
#######################################################################
#
#                 Cambridge Crystallographic Data Centre
#                                CCDC 
#
#######################################################################
#
# If this CIF has been generated from an entry in the Cambridge 
# Structural Database, then it will include bibliographic, chemical, 
# crystal, experimental, refinement or atomic coordinate data resulting 
# from the CCDC's data processing and validation procedures.
#
#######################################################################

data_KIZDEE
_symmetry_cell_setting           triclinic
_symmetry_space_group_name_H-M   'P -1'
_symmetry_Int_Tables_number      2
_space_group_name_Hall           '-P 1'
loop_
_symmetry_equiv_pos_site_id
_symmetry_equiv_pos_as_xyz
1 x,y,z
2 -x,-y,-z
_cell_length_a                   8.4002(11)
_cell_length_b                   13.7180(17)
_cell_length_c                   18.082(2)
_cell_angle_alpha                101.561(2)
_cell_angle_beta                 93.598(2)
_cell_angle_gamma                104.076(2)
_cell_volume                     1966.42
loop_
_atom_site_label
_atom_site_type_symbol
_atom_site_fract_x
_atom_site_fract_y
_atom_site_fract_z
Mn1 Mn 0.79358(10) 0.72051(6) 0.32051(4)
Mn2 Mn 0.37039(10) 0.66777(6) 0.17340(5)
N1 N 0.7993(5) 0.6933(3) 0.4433(2)
N2 N 1.0081(5) 0.8466(3) 0.3972(2)
N3 N 1.0372(6) 0.8681(3) 0.7068(2)
N4 N 1.2193(6) 0.9902(3) 0.6685(2)
H1 H 1.2992 1.0440 0.6711
N5 N 0.2736(5) 0.5917(3) 0.0498(2)
N6 N 0.2394(6) 0.7733(3) 0.1271(2)
N7 N -0.1363(5) 0.6148(3) -0.1502(3)
H2 H -0.1476 0.5621 -0.1870
N8 N -0.1755(6) 0.7594(3) -0.0824(3)
O1 O 1.1630(5) 1.1714(3) 0.7539(2)
O2 O 1.3787(5) 1.2735(3) 0.8331(2)
O3 O -0.4433(5) 0.4722(3) -0.1750(2)
O4 O -0.5992(5) 0.4196(3) -0.2872(2)
O5 O 0.6109(5) 0.8099(3) 0.3623(2)
O6 O 0.3898(5) 0.7840(3) 0.2798(2)
O7 O 0.1814(5) 0.5901(3) 0.2349(2)
O8 O -0.0326(5) 0.6393(3) 0.2782(2)
C1 C 0.6989(7) 0.6155(4) 0.4646(3)
H3 H 0.6276 0.5639 0.4274
C2 C 0.6957(8) 0.6079(5) 0.5405(3)
H4 H 0.6266 0.5509 0.5530
C3 C 0.7951(7) 0.6848(4) 0.5959(3)
H5 H 0.7902 0.6824 0.6468
C4 C 0.9040(7) 0.7671(4) 0.5760(3)
C5 C 1.0171(7) 0.8505(4) 0.6287(3)
C6 C 1.1307(7) 0.9246(4) 0.6035(3)
C7 C 1.1375(6) 0.9262(4) 0.5245(3)
C8 C 1.2545(7) 0.9974(4) 0.4968(3)
H6 H 1.3369 1.0482 0.5297
C9 C 1.2438(7) 0.9899(4) 0.4195(3)
H7 H 1.3212 1.0350 0.3993
C10 C 1.1177(7) 0.9153(4) 0.3719(3)
H8 H 1.1098 0.9133 0.3201
C11 C 1.0187(6) 0.8501(4) 0.4732(3)
C12 C 0.9021(6) 0.7683(4) 0.4976(3)
C13 C 1.1559(7) 0.9537(4) 0.7286(3)
C14 C 1.2229(7) 0.9956(4) 0.8099(3)
C15 C 1.2232(8) 0.9225(5) 0.8535(3)
H9 H 1.1799 0.8529 0.8311
C16 C 1.2860(8) 0.9513(5) 0.9290(3)
H10 H 1.2830 0.9014 0.9573
C17 C 1.3541(8) 1.0546(5) 0.9630(3)
H11 H 1.3986 1.0741 1.0138
C18 C 1.3551(7) 1.1277(5) 0.9211(3)
H12 H 1.4015 1.1968 0.9440
C19 C 1.2876(6) 1.1006(4) 0.8445(3)
C20 C 1.2758(7) 1.1876(4) 0.8071(3)
C21 C 0.3020(7) 0.5062(4) 0.0116(3)
H13 H 0.3689 0.4745 0.0360
C22 C 0.2360(7) 0.4608(5) -0.0642(3)
H14 H 0.2641 0.4028 -0.0900
C23 C 0.1288(7) 0.5036(4) -0.0998(3)
H15 H 0.0807 0.4736 -0.1495
C24 C 0.0935(6) 0.5942(4) -0.0593(3)
C25 C -0.0219(7) 0.6436(4) -0.0874(3)
C26 C -0.0485(7) 0.7333(4) -0.0465(3)
C27 C 0.0456(7) 0.7846(4) 0.0257(3)
C28 C 0.0403(7) 0.8822(4) 0.0678(3)
H16 H -0.0262 0.9187 0.0487
C29 C 0.1337(7) 0.9226(4) 0.1370(3)
H17 H 0.1325 0.9871 0.1650
C30 C 0.2308(7) 0.8656(4) 0.1649(3)
H18 H 0.2925 0.8934 0.2123
C31 C 0.1516(6) 0.7344(4) 0.0572(3)
C32 C 0.1728(6) 0.6377(4) 0.0150(3)
C33 C -0.2288(7) 0.6835(4) -0.1441(3)
C34 C -0.3716(7) 0.6844(4) -0.1972(3)
C35 C -0.3777(9) 0.7832(5) -0.2036(4)
H19 H -0.2916 0.8397 -0.1797
C36 C -0.5104(9) 0.7977(5) -0.2449(4)
H20 H -0.5113 0.8640 -0.2495
C37 C -0.6407(9) 0.7165(5) -0.2794(4)
H21 H -0.7323 0.7271 -0.3049
C38 C -0.6329(8) 0.6188(5) -0.2753(3)
H22 H -0.7190 0.5632 -0.3005
C39 C -0.5016(7) 0.5997(4) -0.2349(3)
C40 C -0.5161(6) 0.4884(4) -0.2323(3)
C41 C 0.4571(6) 0.7756(4) 0.3411(3)
C42 C 0.3516(6) 0.7217(4) 0.3927(3)
C43 C 0.4157(8) 0.7378(5) 0.4683(3)
H23 H 0.5208 0.7813 0.4850
C44 C 0.3272(8) 0.6908(6) 0.5191(4)
H24 H 0.3709 0.7049 0.5698
C45 C 0.1755(8) 0.6237(5) 0.4948(4)
H25 H 0.1170 0.5901 0.5286
C46 C 0.1090(7) 0.6056(4) 0.4198(3)
H26 H 0.0050 0.5605 0.4037
C47 C 0.1954(7) 0.6541(4) 0.3682(3)
C48 C 0.1093(7) 0.6278(4) 0.2877(3)
Mn1_2 Mn -0.20642(10) 0.72051(6) 0.32051(4)
Mn1A Mn -0.79358(10) 0.27949(6) -0.32051(4)
Mn1A_2 Mn 1.20642(10) 1.27949(6) 0.67949(4)
Mn2A Mn -0.37039(10) 0.33223(6) -0.17340(5)
Mn2A_2 Mn 1.62961(10) 1.33223(6) 0.82660(5)
O1A O 0.8370(5) 0.8286(3) 0.2461(2)
O2A O 0.6213(5) 0.7265(3) 0.1669(2)
O3A O 0.4433(5) 0.5278(3) 0.1750(2)
O4A O 0.5992(5) 0.5804(3) 0.2872(2)
O8_2 O 0.9674(5) 0.6393(3) 0.2782(2)
loop_
_geom_bond_atom_site_label_1
_geom_bond_atom_site_label_2
_geom_bond_site_symmetry_1
_geom_bond_site_symmetry_2
Mn1 N1 1_555 1_555
Mn2 N5 1_555 1_555
N1 C1 1_555 1_555
N2 Mn1 1_555 1_555
N3 C5 1_555 1_555
N4 H1 1_555 1_555
N5 C21 1_555 1_555
N6 Mn2 1_555 1_555
N7 H2 1_555 1_555
N8 C26 1_555 1_555
O1 C20 1_555 1_555
O2 C20 1_555 1_555
O3 C40 1_555 1_555
O4 C40 1_555 1_555
O5 Mn1 1_555 1_555
O6 Mn2 1_555 1_555
O7 Mn2 1_555 1_555
O8 C48 1_555 1_555
C1 H3 1_555 1_555
C2 C1 1_555 1_555
H4 C2 1_555 1_555
C3 C2 1_555 1_555
H5 C3 1_555 1_555
C4 C3 1_555 1_555
C5 C4 1_555 1_555
C6 N4 1_555 1_555
C7 C6 1_555 1_555
C8 C7 1_555 1_555
H6 C8 1_555 1_555
C9 C8 1_555 1_555
H7 C9 1_555 1_555
C10 N2 1_555 1_555
H8 C10 1_555 1_555
C11 N2 1_555 1_555
C12 N1 1_555 1_555
C13 N3 1_555 1_555
C14 C13 1_555 1_555
C15 C14 1_555 1_555
H9 C15 1_555 1_555
C16 C15 1_555 1_555
H10 C16 1_555 1_555
C17 C16 1_555 1_555
H11 C17 1_555 1_555
C18 C17 1_555 1_555
H12 C18 1_555 1_555
C19 C14 1_555 1_555
C20 C19 1_555 1_555
C21 H13 1_555 1_555
C22 C21 1_555 1_555
H14 C22 1_555 1_555
C23 C22 1_555 1_555
H15 C23 1_555 1_555
C24 C23 1_555 1_555
C25 N7 1_555 1_555
C26 C25 1_555 1_555
C27 C26 1_555 1_555
C28 C27 1_555 1_555
H16 C28 1_555 1_555
C29 C28 1_555 1_555
H17 C29 1_555 1_555
C30 N6 1_555 1_555
H18 C30 1_555 1_555
C31 N6 1_555 1_555
C32 N5 1_555 1_555
C33 N7 1_555 1_555
C34 C33 1_555 1_555
C35 C34 1_555 1_555
H19 C35 1_555 1_555
C36 C35 1_555 1_555
H20 C36 1_555 1_555
C37 C36 1_555 1_555
H21 C37 1_555 1_555
C38 C37 1_555 1_555
H22 C38 1_555 1_555
C39 C34 1_555 1_555
C40 C39 1_555 1_555
C41 O5 1_555 1_555
C42 C41 1_555 1_555
C43 C42 1_555 1_555
H23 C43 1_555 1_555
C44 C43 1_555 1_555
H24 C44 1_555 1_555
C45 C44 1_555 1_555
H25 C45 1_555 1_555
C46 C45 1_555 1_555
H26 C46 1_555 1_555
C47 C42 1_555 1_555
C48 O7 1_555 1_555
Mn1_2 O8 1_555 1_555
Mn1A O4 1_555 1_555
Mn1A_2 O1 1_555 1_555
Mn2A O3 1_555 1_555
Mn2A_2 O2 1_555 1_555
O1A Mn1 1_555 1_555
O2A Mn2 1_555 1_555
O3A Mn2 1_555 1_555
O4A Mn1 1_555 1_555
O8_2 Mn1 1_555 1_555
N4 C13 1_555 1_555
N8 C33 1_555 1_555
O6 C41 1_555 1_555
C4 C12 1_555 1_555
C5 C6 1_555 1_555
C7 C11 1_555 1_555
C9 C10 1_555 1_555
C11 C12 1_555 1_555
C18 C19 1_555 1_555
C24 C25 1_555 1_555
C24 C32 1_555 1_555
C27 C31 1_555 1_555
C29 C30 1_555 1_555
C31 C32 1_555 1_555
C38 C39 1_555 1_555
C46 C47 1_555 1_555
C47 C48 1_555 1_555

#END
