
#######################################################################
#
#                 Cambridge Crystallographic Data Centre
#                                CCDC 
#
#######################################################################
#
# If this CIF has been generated from an entry in the Cambridge 
# Structural Database, then it will include bibliographic, chemical, 
# crystal, experimental, refinement or atomic coordinate data resulting 
# from the CCDC's data processing and validation procedures.
#
#######################################################################

data_KIZDII
_symmetry_cell_setting           triclinic
_symmetry_space_group_name_H-M   'P -1'
_symmetry_Int_Tables_number      2
_space_group_name_Hall           '-P 1'
loop_
_symmetry_equiv_pos_site_id
_symmetry_equiv_pos_as_xyz
1 x,y,z
2 -x,-y,-z
_cell_length_a                   10.817(3)
_cell_length_b                   11.603(3)
_cell_length_c                   17.926(4)
_cell_angle_alpha                77.374(4)
_cell_angle_beta                 87.890(5)
_cell_angle_gamma                83.188(5)
_cell_volume                     2179.84
loop_
_atom_site_label
_atom_site_type_symbol
_atom_site_fract_x
_atom_site_fract_y
_atom_site_fract_z
Co1 Co 0.91928(11) 0.16777(11) 0.18674(6)
Co2 Co 0.93870(11) 0.23364(11) 0.36446(6)
N1 N 1.0144(7) 0.1516(6) 0.0835(3)
N2 N 0.7747(7) 0.2161(6) 0.1030(4)
N3 N 0.9121(6) 0.1361(5) -0.1819(3)
H1 H 0.9813 0.1197 -0.2046
N4 N 0.7116(6) 0.1759(5) -0.1616(3)
N5 N 1.0190(7) 0.2494(6) 0.4670(4)
N6 N 0.8258(7) 0.3797(6) 0.3930(4)
N7 N 0.9005(6) 0.4394(6) 0.6819(4)
H2 H 0.9560 0.4125 0.7165
N8 N 0.7256(7) 0.5409(6) 0.6245(4)
O1 O 0.9244(5) -0.0726(4) -0.2436(3)
O2 O 0.9637(5) -0.0731(5) -0.3667(3)
O3 O 0.9455(5) 0.6701(5) 0.7073(3)
O4 O 1.0085(5) 0.6693(4) 0.8250(3)
O5 O 0.8511(5) -0.0055(5) 0.2200(3)
O6 O 0.7374(5) -0.1525(5) 0.2288(3)
O7 O 0.8191(5) 0.2100(5) 0.2786(3)
O8 O 0.7702(5) 0.1294(5) 0.3969(3)
C1 C 1.1364(9) 0.1310(7) 0.0735(4)
H3 H 1.1869 0.1260 0.1153
C2 C 1.1951(7) 0.1163(7) 0.0046(4)
H4 H 1.2815 0.1034 0.0012
C3 C 1.1224(8) 0.1215(7) -0.0584(4)
H5 H 1.1583 0.1110 -0.1047
C4 C 0.9910(8) 0.1434(6) -0.0498(4)
C5 C 0.8984(8) 0.1533(7) -0.1081(4)
C6 C 0.7733(8) 0.1780(7) -0.0961(5)
C7 C 0.7244(8) 0.1995(7) -0.0246(4)
C8 C 0.5984(8) 0.2246(7) -0.0077(5)
H6 H 0.5379 0.2234 -0.0430
C9 C 0.5658(8) 0.2506(7) 0.0606(5)
H7 H 0.4823 0.2704 0.0716
C10 C 0.6547(8) 0.2483(7) 0.1146(4)
H8 H 0.6298 0.2699 0.1604
C11 C 0.8087(8) 0.1940(6) 0.0332(4)
C12 C 0.9406(8) 0.1635(7) 0.0212(5)
C13 C 0.7973(8) 0.1497(7) -0.2118(5)
C14 C 0.7638(8) 0.1526(7) -0.2919(4)
C15 C 0.6675(8) 0.2405(7) -0.3196(4)
H9 H 0.6319 0.2904 -0.2886
C16 C 0.6241(9) 0.2540(8) -0.3937(5)
H10 H 0.5569 0.3099 -0.4113
C17 C 0.6810(9) 0.1848(8) -0.4399(5)
H11 H 0.6551 0.1969 -0.4902
C18 C 0.7755(8) 0.0978(7) -0.4138(4)
H12 H 0.8109 0.0495 -0.4458
C19 C 0.8193(7) 0.0808(7) -0.3393(4)
C20 C 0.9086(8) -0.0276(7) -0.3148(5)
C21 C 1.1193(9) 0.1851(8) 0.4992(5)
H13 H 1.1643 0.1320 0.4735
C22 C 1.1610(9) 0.1937(8) 0.5707(5)
H14 H 1.2339 0.1497 0.5917
C23 C 1.0903(9) 0.2691(8) 0.6082(4)
H15 H 1.1129 0.2731 0.6571
C24 C 0.9856(8) 0.3399(7) 0.5752(4)
C25 C 0.9042(8) 0.4197(7) 0.6093(4)
C26 C 0.7982(9) 0.4820(7) 0.5751(5)
C27 C 0.7677(8) 0.4780(8) 0.4988(5)
C28 C 0.6670(9) 0.5423(9) 0.4586(5)
H16 H 0.6134 0.5959 0.4796
C29 C 0.6475(10) 0.5252(9) 0.3863(6)
H17 H 0.5807 0.5680 0.3575
C30 C 0.7287(10) 0.4434(9) 0.3570(5)
H18 H 0.7131 0.4332 0.3083
C31 C 0.8446(8) 0.3981(7) 0.4645(5)
C32 C 0.9513(8) 0.3287(7) 0.5024(4)
C33 C 0.7927(9) 0.5093(8) 0.6894(5)
C34 C 0.7532(10) 0.5345(8) 0.7646(5)
C35 C 0.6412(9) 0.4994(8) 0.7931(6)
H19 H 0.5892 0.4737 0.7614
C36 C 0.6024(9) 0.5008(8) 0.8685(6)
H20 H 0.5261 0.4758 0.8864
C37 C 0.6757(10) 0.5383(8) 0.9143(5)
H21 H 0.6530 0.5377 0.9649
C38 C 0.7885(10) 0.5788(8) 0.8837(5)
H22 H 0.8401 0.6056 0.9150
C39 C 0.8256(9) 0.5802(8) 0.8088(5)
C40 C 0.9347(9) 0.6422(8) 0.7765(5)
C41 C 0.7477(9) -0.0474(9) 0.2327(4)
C42 C 0.6354(8) 0.0274(7) 0.2537(4)
C43 C 0.5190(9) 0.0116(8) 0.2263(5)
H23 H 0.5155 -0.0445 0.1967
C44 C 0.4104(8) 0.0777(8) 0.2424(5)
H24 H 0.3360 0.0678 0.2215
C45 C 0.4101(10) 0.1588(9) 0.2894(5)
H25 H 0.3370 0.2033 0.3002
C46 C 0.5229(10) 0.1703(8) 0.3191(5)
H26 H 0.5251 0.2195 0.3536
C47 C 0.6331(8) 0.1100(8) 0.2986(4)
C48 C 0.7475(9) 0.1470(8) 0.3271(5)
Co1A Co 1.08072(11) -0.16777(11) -0.18674(6)
Co1A_2 Co 1.08072(11) 0.83223(11) 0.81326(6)
Co2A Co 1.06130(11) -0.23364(11) -0.36446(6)
Co2A_2 Co 1.06130(11) 0.76636(11) 0.63554(6)
O1A O 1.0756(5) 0.0726(4) 0.2436(3)
O2A O 1.0363(5) 0.0731(5) 0.3667(3)
O3A O 1.0545(5) 0.3299(5) 0.2927(3)
O4A O 0.9915(5) 0.3307(4) 0.1750(3)
O9 O 0.5593(6) 0.7211(6) 0.1819(3)
O10 O 0.0979(6) 0.3541(5) 0.7881(3)
O11 O 0.9121(13) 0.5293(10) 0.0692(6)
O12 O 0.7179(17) 0.5497(16) 0.1247(11)
H27? H 0.6325 0.1891 -0.1685
loop_
_geom_bond_atom_site_label_1
_geom_bond_atom_site_label_2
_geom_bond_site_symmetry_1
_geom_bond_site_symmetry_2
Co1 N1 1_555 1_555
Co2 N5 1_555 1_555
N1 C1 1_555 1_555
N2 Co1 1_555 1_555
N3 H1 1_555 1_555
N4 C6 1_555 1_555
N5 C21 1_555 1_555
N6 Co2 1_555 1_555
N7 H2 1_555 1_555
N8 C26 1_555 1_555
O1 C20 1_555 1_555
O2 C20 1_555 1_555
O3 C40 1_555 1_555
O4 C40 1_555 1_555
O5 Co1 1_555 1_555
O6 C41 1_555 1_555
O7 Co1 1_555 1_555
O8 Co2 1_555 1_555
C1 H3 1_555 1_555
C2 C1 1_555 1_555
H4 C2 1_555 1_555
C3 C2 1_555 1_555
H5 C3 1_555 1_555
C4 C3 1_555 1_555
C5 N3 1_555 1_555
C6 C5 1_555 1_555
C7 C6 1_555 1_555
C8 C7 1_555 1_555
H6 C8 1_555 1_555
C9 C8 1_555 1_555
H7 C9 1_555 1_555
C10 N2 1_555 1_555
H8 C10 1_555 1_555
C11 N2 1_555 1_555
C12 N1 1_555 1_555
C13 N3 1_555 1_555
C14 C13 1_555 1_555
C15 C14 1_555 1_555
H9 C15 1_555 1_555
C16 C15 1_555 1_555
H10 C16 1_555 1_555
C17 C16 1_555 1_555
H11 C17 1_555 1_555
C18 C17 1_555 1_555
H12 C18 1_555 1_555
C19 C14 1_555 1_555
C20 C19 1_555 1_555
C21 H13 1_555 1_555
C22 C21 1_555 1_555
H14 C22 1_555 1_555
C23 C22 1_555 1_555
H15 C23 1_555 1_555
C24 C23 1_555 1_555
C25 N7 1_555 1_555
C26 C25 1_555 1_555
C27 C26 1_555 1_555
C28 C27 1_555 1_555
H16 C28 1_555 1_555
C29 C28 1_555 1_555
H17 C29 1_555 1_555
C30 N6 1_555 1_555
H18 C30 1_555 1_555
C31 N6 1_555 1_555
C32 N5 1_555 1_555
C33 N7 1_555 1_555
C34 C33 1_555 1_555
C35 C34 1_555 1_555
H19 C35 1_555 1_555
C36 C35 1_555 1_555
H20 C36 1_555 1_555
C37 C36 1_555 1_555
H21 C37 1_555 1_555
C38 C37 1_555 1_555
H22 C38 1_555 1_555
C39 C34 1_555 1_555
C40 C39 1_555 1_555
C41 O5 1_555 1_555
C42 C41 1_555 1_555
C43 C42 1_555 1_555
H23 C43 1_555 1_555
C44 C43 1_555 1_555
H24 C44 1_555 1_555
C45 C44 1_555 1_555
H25 C45 1_555 1_555
C46 C45 1_555 1_555
H26 C46 1_555 1_555
C47 C42 1_555 1_555
C48 O7 1_555 1_555
Co1A O1 1_555 1_555
Co1A_2 O4 1_555 1_555
Co2A O2 1_555 1_555
Co2A_2 O3 1_555 1_555
O1A Co1 1_555 1_555
O2A Co2 1_555 1_555
O3A Co2 1_555 1_555
O4A Co1 1_555 1_555
Co2 O7 1_555 1_555
N4 C13 1_555 1_555
N8 C33 1_555 1_555
O8 C48 1_555 1_555
C4 C5 1_555 1_555
C4 C12 1_555 1_555
C7 C11 1_555 1_555
C9 C10 1_555 1_555
C11 C12 1_555 1_555
C18 C19 1_555 1_555
C24 C25 1_555 1_555
C24 C32 1_555 1_555
C27 C31 1_555 1_555
C29 C30 1_555 1_555
C31 C32 1_555 1_555
C38 C39 1_555 1_555
C46 C47 1_555 1_555
C47 C48 1_555 1_555

#END
