
#######################################################################
#
#                 Cambridge Crystallographic Data Centre
#                                CCDC 
#
#######################################################################
#
# If this CIF has been generated from an entry in the Cambridge 
# Structural Database, then it will include bibliographic, chemical, 
# crystal, experimental, refinement or atomic coordinate data resulting 
# from the CCDC's data processing and validation procedures.
#
#######################################################################

data_KIZGIL
_symmetry_cell_setting           orthorhombic
_symmetry_space_group_name_H-M   'P 21 21 21'
_symmetry_Int_Tables_number      19
_space_group_name_Hall           'P 2ac 2ab'
loop_
_symmetry_equiv_pos_site_id
_symmetry_equiv_pos_as_xyz
1 x,y,z
2 1/2-x,-y,1/2+z
3 -x,1/2+y,1/2-z
4 1/2+x,1/2-y,-z
_cell_length_a                   10.6240(8)
_cell_length_b                   16.4296(12)
_cell_length_c                   43.069(3)
_cell_angle_alpha                90
_cell_angle_beta                 90
_cell_angle_gamma                90
_cell_volume                     7517.61
loop_
_atom_site_label
_atom_site_type_symbol
_atom_site_fract_x
_atom_site_fract_y
_atom_site_fract_z
Zn1 Zn 0.26139(9) 0.35531(5) 0.199599(19)
Zn2 Zn 0.72925(9) -0.24603(5) 0.03324(2)
Zn3 Zn -0.26736(9) -0.69339(5) 0.029516(19)
Zn4 Zn -0.23836(10) 0.31205(5) 0.264749(19)
O1 O -0.8360(7) -0.7984(5) 0.02346(16)
O2 O -0.6984(7) -0.7209(3) 0.00113(13)
O3 O -0.4193(5) -0.6443(3) 0.04726(12)
O4 O -0.4864(6) -0.7713(4) 0.04536(15)
O5 O -0.5981(6) 0.2590(4) 0.24093(13)
O6 O -0.7642(6) 0.3388(3) 0.24405(12)
O7 O -0.4155(5) 0.3428(4) 0.27756(14)
O8 O -0.3577(6) 0.2523(4) 0.31138(16)
O9 O 0.4260(7) -0.3060(6) -0.05009(17)
O10 O 0.3553(6) -0.1907(5) -0.06538(18)
O11 O 0.5830(6) -0.1962(4) -0.01253(12)
O12 O 0.7710(6) -0.2469(4) -0.01159(12)
O13 O 0.0186(5) 0.3136(4) 0.18761(14)
O14 O 0.1270(5) 0.4259(3) 0.18159(13)
O15 O -0.2954(6) 0.2809(3) 0.19186(13)
O16 O -0.2075(6) 0.3679(3) 0.22534(12)
N1 N 0.1364(7) -1.1089(4) 0.20887(17)
N2 N 0.0680(8) -1.0401(5) 0.16798(16)
N3 N 0.1461(10) -1.0017(6) 0.08579(19)
N4 N -0.0761(7) -0.8304(4) 0.09646(16)
N5 N -0.1872(6) -0.7458(4) 0.06816(15)
N6 N 1.1224(6) 0.7160(4) 0.23414(16)
N7 N 0.9569(6) 0.6358(4) 0.24053(15)
N8 N 0.7013(7) 0.5765(4) 0.29301(17)
N9 N 0.5430(6) 0.5218(4) 0.22041(15)
N10 N 0.3961(6) 0.4428(4) 0.20077(16)
N11 N 0.6348(7) -0.1562(4) 0.05545(15)
N12 N 0.5817(7) -0.0619(4) 0.08900(16)
N13 N 0.7018(8) 0.0468(6) 0.1569(2)
N14 N 0.4187(6) 0.1709(4) 0.14674(15)
N15 N 0.3096(6) 0.2656(4) 0.17056(14)
N16 N 0.6053(6) -0.3405(4) 0.03679(16)
N17 N 0.4561(6) -0.4277(4) 0.02568(16)
N18 N 0.3006(7) -0.5279(5) -0.03912(17)
N19 N 0.0306(6) -0.5369(4) 0.01394(16)
N20 N -0.1460(6) -0.6001(4) 0.02331(16)
C1 C 0.1621(9) -1.0862(5) 0.1802(2)
H1 H 0.2355 -1.1000 0.1696
C2 C 0.0234(11) -1.0766(6) 0.2160(2)
H2 H -0.0187 -1.0826 0.2348
C3 C -0.0195(9) -1.0329(6) 0.1904(2)
H3 H -0.0946 -1.0041 0.1890
C4 C 0.0688(9) -1.0030(6) 0.1379(2)
C5 C 0.1360(11) -1.0364(7) 0.1132(3)
H4 H 0.1760 -1.0861 0.1163
C6 C -0.0028(9) -0.9332(6) 0.1330(2)
H5 H -0.0504 -0.9101 0.1488
C7 C 0.0787(10) -0.9349(6) 0.0813(2)
H6 H 0.0840 -0.9096 0.0620
C8 C 0.0001(9) -0.9000(6) 0.1037(2)
C9 C -0.1120(8) -0.8077(5) 0.0674(2)
H7 H -0.0858 -0.8335 0.0493
C10 C -0.1315(11) -0.7762(7) 0.1167(2)
H8 H -0.1234 -0.7752 0.1382
C11 C -0.1990(10) -0.7256(6) 0.0992(2)
H9 H -0.2472 -0.6827 0.1067
C12 C 1.0148(8) 0.7072(5) 0.2495(2)
H10 H 0.9833 0.7436 0.2641
C13 C 1.1327(9) 0.6491(5) 0.2150(2)
H11 H 1.1996 0.6394 0.2016
C14 C 1.0322(9) 0.5995(6) 0.2184(2)
H12 H 1.0169 0.5510 0.2080
C15 C 0.8393(8) 0.6071(5) 0.2509(2)
C16 C 0.8087(9) 0.6060(5) 0.2822(2)
H13 H 0.8665 0.6271 0.2963
C17 C 0.7494(9) 0.5770(4) 0.22979(17)
H14 H 0.7652 0.5760 0.2086
C18 C 0.6391(8) 0.5493(5) 0.2416(2)
C19 C 0.6193(9) 0.5480(5) 0.2726(2)
H15 H 0.5445 0.5259 0.2800
C20 C 0.4859(8) 0.4491(5) 0.2217(2)
H16 H 0.5070 0.4082 0.2357
C21 C 0.3974(8) 0.5172(5) 0.18521(19)
H17 H 0.3436 0.5312 0.1690
C22 C 0.4865(9) 0.5656(5) 0.1968(2)
H18 H 0.5067 0.6180 0.1903
C23 C -0.7606(10) -0.7412(5) 0.02415(19)
C24 C -0.5034(8) -0.6987(6) 0.05111(18)
C25 C -0.7437(8) -0.6931(4) 0.05370(15)
C26 C -0.8510(9) -0.6679(6) 0.0685(2)
H19 H -0.9290 -0.6839 0.0608
C27 C -0.8458(10) -0.6195(6) 0.0943(2)
H20 H -0.9196 -0.6018 0.1037
C28 C -0.7300(11) -0.5972(5) 0.1063(2)
H21 H -0.7260 -0.5640 0.1237
C29 C -0.6200(9) -0.6241(5) 0.0923(2)
H22 H -0.5423 -0.6109 0.1009
C30 C -0.6266(8) -0.6711(5) 0.0653(2)
C31 C -0.6760(9) 0.2956(5) 0.25619(19)
C32 C -0.4393(9) 0.2944(6) 0.2988(2)
C33 C -0.6787(8) 0.2893(4) 0.29142(19)
C34 C -0.7976(10) 0.2800(6) 0.3050(2)
H23 H -0.8686 0.2829 0.2924
C35 C -0.8130(11) 0.2669(7) 0.3361(2)
H24 H -0.8932 0.2608 0.3444
C36 C -0.7086(11) 0.2629(7) 0.3549(2)
H25 H -0.7180 0.2536 0.3761
C37 C -0.5904(10) 0.2727(5) 0.3425(2)
H26 H -0.5208 0.2706 0.3556
C38 C -0.5721(8) 0.2859(5) 0.31024(18)
C39 C 0.4409(10) -0.2398(7) -0.0634(2)
C40 C 0.6776(8) -0.2216(5) -0.0261(2)
C41 C 0.5661(8) -0.2218(5) -0.07772(19)
C42 C 0.6768(7) -0.2200(5) -0.06067(18)
C43 C 0.7894(9) -0.2084(6) -0.0765(2)
H27 H 0.8647 -0.2082 -0.0654
C44 C 0.7915(10) -0.1975(8) -0.1073(3)
H28 H 0.8681 -0.1893 -0.1173
C45 C 0.6817(12) -0.1981(10) -0.1243(2)
H29 H 0.6838 -0.1915 -0.1458
C46 C 0.5703(10) -0.2086(7) -0.1093(2)
H30 H 0.4956 -0.2067 -0.1205
C47 C 0.6751(8) -0.1097(5) 0.0784(2)
H31 H 0.7567 -0.1101 0.0862
C48 C 0.5107(8) -0.1380(5) 0.0518(2)
H32 H 0.4575 -0.1627 0.0375
C49 C 0.4753(8) -0.0791(5) 0.0721(2)
H33 H 0.3962 -0.0554 0.0741
C50 C 0.5931(9) -0.0014(5) 0.1134(2)
C51 C 0.6873(10) -0.0071(7) 0.1342(3)
H34 H 0.7437 -0.0501 0.1327
C52 C 0.5027(8) 0.0569(5) 0.1173(2)
H35 H 0.4341 0.0594 0.1039
C53 C 0.5139(8) 0.1120(5) 0.1412(2)
C54 C 0.6147(11) 0.1049(7) 0.1599(3)
H36 H 0.6243 0.1425 0.1759
C55 C 0.4174(8) 0.2284(5) 0.16891(18)
H37 H 0.4858 0.2402 0.1816
C56 C 0.3014(8) 0.1734(5) 0.1328(2)
H38 H 0.2734 0.1415 0.1164
C57 C 0.2354(10) 0.2320(5) 0.14803(19)
H39 H 0.1527 0.2468 0.1438
C58 C -0.2372(8) 0.3431(5) 0.1982(2)
C59 C 0.0267(8) 0.3856(5) 0.17966(18)
C60 C -0.2081(8) 0.4033(5) 0.17238(18)
C61 C -0.3073(8) 0.4364(6) 0.1570(2)
H40 H -0.3889 0.4187 0.1609
C62 C -0.2850(10) 0.4970(6) 0.1352(2)
H41 H -0.3527 0.5201 0.1247
C63 C -0.1674(9) 0.5232(6) 0.1289(2)
H42 H -0.1540 0.5637 0.1142
C64 C -0.0699(9) 0.4897(5) 0.14419(18)
H43 H 0.0109 0.5090 0.1402
C65 C -0.0852(8) 0.4278(5) 0.16562(17)
C66 C -0.0347(9) -0.6042(5) 0.01052(19)
H44 H -0.0049 -0.6499 0.0001
C67 C -0.1489(9) -0.5234(5) 0.0366(2)
H45 H -0.2163 -0.5022 0.0477
C68 C -0.0406(9) -0.4839(6) 0.0310(2)
H46 H -0.0186 -0.4317 0.0375
C69 C 0.1552(8) -0.5215(5) 0.0028(2)
C70 C 0.1868(8) -0.5438(5) -0.0271(2)
H47 H 0.1274 -0.5705 -0.0393
C71 C 0.2427(8) -0.4836(4) 0.02184(18)
H48 H 0.2239 -0.4691 0.0422
C72 C 0.3590(8) -0.4687(5) 0.0090(2)
C73 C 0.3842(9) -0.4895(5) -0.0215(2)
H49 H 0.4621 -0.4762 -0.0300
C74 C 0.5233(8) -0.3630(5) 0.0160(2)
H50 H 0.5124 -0.3376 -0.0031
C75 C 0.5924(9) -0.3929(5) 0.0620(2)
H51 H 0.6398 -0.3918 0.0802
C76 C 0.4995(9) -0.4454(5) 0.0555(2)
H52 H 0.4693 -0.4862 0.0684
Zn1_2 Zn -0.73861(9) 0.35531(5) 0.199599(19)
Zn2C Zn 0.22925(9) -0.25397(5) -0.03324(2)
Zn3C Zn -0.76736(9) -0.80661(5) -0.029516(19)
Zn4B Zn 0.23836(10) -1.18795(5) 0.235251(19)
Zn4B_2 Zn 1.23836(10) 0.81205(5) 0.235251(19)
O1C O -0.3360(7) -0.7016(5) -0.02346(16)
O2C O -0.1984(7) -0.7791(3) -0.00113(13)
O6_2 O 0.2358(6) 0.3388(3) 0.24405(12)
O9C O 0.9260(7) -0.1940(6) 0.05009(17)
O10C O 0.8553(6) -0.3093(5) 0.06538(18)
N1B N -0.1364(7) 0.3911(4) 0.29113(17)
N6B N -0.1224(6) 0.2160(4) 0.26586(16)
O17 O -0.3722(8) 0.1888(6) 0.23969(19)
O18 O 0.3610(9) 0.1004(5) 0.0592(2)
O19 O -0.264(2) -0.9740(10) 0.2301(4)
O20 O -0.081(3) -0.8383(19) 0.1912(6)
loop_
_geom_bond_atom_site_label_1
_geom_bond_atom_site_label_2
_geom_bond_site_symmetry_1
_geom_bond_site_symmetry_2
Zn1 O14 1_555 1_555
Zn2 O12 1_555 1_555
Zn3 O3 1_555 1_555
Zn4 O7 1_555 1_555
O1 C23 1_555 1_555
O2 C23 1_555 1_555
O3 C24 1_555 1_555
O4 C24 1_555 1_555
O5 C31 1_555 1_555
O6 C31 1_555 1_555
O7 C32 1_555 1_555
O8 Zn4 1_555 1_555
O9 C39 1_555 1_555
O10 C39 1_555 1_555
O11 C40 1_555 1_555
O12 C40 1_555 1_555
O13 C59 1_555 1_555
O14 C59 1_555 1_555
O15 C58 1_555 1_555
O16 Zn4 1_555 1_555
N1 C1 1_555 1_555
N2 C1 1_555 1_555
N3 C5 1_555 1_555
N4 C8 1_555 1_555
N5 Zn3 1_555 1_555
N6 C12 1_555 1_555
N7 C12 1_555 1_555
N8 C16 1_555 1_555
N9 C18 1_555 1_555
N10 Zn1 1_555 1_555
N11 Zn2 1_555 1_555
N12 C47 1_555 1_555
N13 C51 1_555 1_555
N14 C53 1_555 1_555
N15 Zn1 1_555 1_555
N16 Zn2 1_555 1_555
N17 C72 1_555 1_555
N18 C70 1_555 1_555
N19 C66 1_555 1_555
N20 Zn3 1_555 1_555
C1 H1 1_555 1_555
C2 N1 1_555 1_555
H2 C2 1_555 1_555
C3 N2 1_555 1_555
H3 C3 1_555 1_555
C4 N2 1_555 1_555
C5 C4 1_555 1_555
H4 C5 1_555 1_555
C6 C4 1_555 1_555
H5 C6 1_555 1_555
C7 N3 1_555 1_555
H6 C7 1_555 1_555
C8 C6 1_555 1_555
C9 N4 1_555 1_555
H7 C9 1_555 1_555
C10 N4 1_555 1_555
H8 C10 1_555 1_555
C11 N5 1_555 1_555
H9 C11 1_555 1_555
C12 H10 1_555 1_555
C13 N6 1_555 1_555
H11 C13 1_555 1_555
C14 N7 1_555 1_555
H12 C14 1_555 1_555
C15 N7 1_555 1_555
C16 C15 1_555 1_555
H13 C16 1_555 1_555
C17 C15 1_555 1_555
H14 C17 1_555 1_555
C18 C17 1_555 1_555
C19 N8 1_555 1_555
H15 C19 1_555 1_555
C20 N9 1_555 1_555
H16 C20 1_555 1_555
C21 N10 1_555 1_555
H17 C21 1_555 1_555
C22 N9 1_555 1_555
H18 C22 1_555 1_555
C23 C25 1_555 1_555
C24 C30 1_555 1_555
C25 C26 1_555 1_555
C26 H19 1_555 1_555
C27 C26 1_555 1_555
H20 C27 1_555 1_555
C28 C27 1_555 1_555
H21 C28 1_555 1_555
C29 C28 1_555 1_555
H22 C29 1_555 1_555
C30 C25 1_555 1_555
C31 C33 1_555 1_555
C32 O8 1_555 1_555
C33 C34 1_555 1_555
C34 H23 1_555 1_555
C35 C34 1_555 1_555
H24 C35 1_555 1_555
C36 C35 1_555 1_555
H25 C36 1_555 1_555
C37 C36 1_555 1_555
H26 C37 1_555 1_555
C38 C32 1_555 1_555
C39 C41 1_555 1_555
C40 C42 1_555 1_555
C41 C42 1_555 1_555
C42 C43 1_555 1_555
C43 H27 1_555 1_555
C44 C43 1_555 1_555
H28 C44 1_555 1_555
C45 C44 1_555 1_555
H29 C45 1_555 1_555
C46 C41 1_555 1_555
H30 C46 1_555 1_555
C47 N11 1_555 1_555
H31 C47 1_555 1_555
C48 N11 1_555 1_555
H32 C48 1_555 1_555
C49 N12 1_555 1_555
H33 C49 1_555 1_555
C50 N12 1_555 1_555
C51 C50 1_555 1_555
H34 C51 1_555 1_555
C52 C50 1_555 1_555
H35 C52 1_555 1_555
C53 C52 1_555 1_555
C54 N13 1_555 1_555
H36 C54 1_555 1_555
C55 N14 1_555 1_555
H37 C55 1_555 1_555
C56 N14 1_555 1_555
H38 C56 1_555 1_555
C57 N15 1_555 1_555
H39 C57 1_555 1_555
C58 O16 1_555 1_555
C59 C65 1_555 1_555
C60 C58 1_555 1_555
C61 C60 1_555 1_555
H40 C61 1_555 1_555
C62 C61 1_555 1_555
H41 C62 1_555 1_555
C63 C62 1_555 1_555
H42 C63 1_555 1_555
C64 C63 1_555 1_555
H43 C64 1_555 1_555
C65 C60 1_555 1_555
C66 N20 1_555 1_555
H44 C66 1_555 1_555
C67 N20 1_555 1_555
H45 C67 1_555 1_555
C68 N19 1_555 1_555
H46 C68 1_555 1_555
C69 N19 1_555 1_555
C70 C69 1_555 1_555
H47 C70 1_555 1_555
C71 C69 1_555 1_555
H48 C71 1_555 1_555
C72 C71 1_555 1_555
C73 N18 1_555 1_555
H49 C73 1_555 1_555
C74 N16 1_555 1_555
H50 C74 1_555 1_555
C75 N16 1_555 1_555
H51 C75 1_555 1_555
C76 N17 1_555 1_555
H52 C76 1_555 1_555
Zn1_2 O6 1_555 1_555
Zn2C O9 1_555 1_555
Zn3C O1 1_555 1_555
Zn4B N1 1_555 1_555
Zn4B_2 N6 1_555 1_555
O1C Zn3 1_555 1_555
O2C Zn3 1_555 1_555
O6_2 Zn1 1_555 1_555
O9C Zn2 1_555 1_555
O10C Zn2 1_555 1_555
N1B Zn4 1_555 1_555
N6B Zn4 1_555 1_555
O2 Zn3C 1_555 1_555
O10 Zn2C 1_555 1_555
N5 C9 1_555 1_555
N10 C20 1_555 1_555
N15 C55 1_555 1_555
N17 C74 1_555 1_555
C2 C3 1_555 1_555
C7 C8 1_555 1_555
C10 C11 1_555 1_555
C13 C14 1_555 1_555
C18 C19 1_555 1_555
C21 C22 1_555 1_555
C29 C30 1_555 1_555
C33 C38 1_555 1_555
C37 C38 1_555 1_555
C45 C46 1_555 1_555
C48 C49 1_555 1_555
C53 C54 1_555 1_555
C56 C57 1_555 1_555
C64 C65 1_555 1_555
C67 C68 1_555 1_555
C72 C73 1_555 1_555
C75 C76 1_555 1_555

#END
