
#######################################################################
#
#                 Cambridge Crystallographic Data Centre
#                                CCDC 
#
#######################################################################
#
# If this CIF has been generated from an entry in the Cambridge 
# Structural Database, then it will include bibliographic, chemical, 
# crystal, experimental, refinement or atomic coordinate data resulting 
# from the CCDC's data processing and validation procedures.
#
#######################################################################

data_KIZGAD
_symmetry_cell_setting           monoclinic
_symmetry_space_group_name_H-M   'P 21/n'
_symmetry_Int_Tables_number      14
_space_group_name_Hall           '-P 2yn'
loop_
_symmetry_equiv_pos_site_id
_symmetry_equiv_pos_as_xyz
1 x,y,z
2 1/2-x,1/2+y,1/2-z
3 -x,-y,-z
4 1/2+x,1/2-y,1/2+z
_cell_length_a                   12.3362(15)
_cell_length_b                   11.6625(14)
_cell_length_c                   16.7157(19)
_cell_angle_alpha                90
_cell_angle_beta                 93.832(2)
_cell_angle_gamma                90
_cell_volume                     2399.53
loop_
_atom_site_label
_atom_site_type_symbol
_atom_site_fract_x
_atom_site_fract_y
_atom_site_fract_z
Zn1 Zn 0.563012(19) 0.02487(2) 0.145297(13)
O1 O 0.61928(12) -0.06587(14) 0.05765(9)
O2 O 0.55286(12) 0.18977(13) 0.12197(10)
O3 O 0.76576(15) 0.03846(14) 0.08765(11)
C1 C 0.38290(16) -0.13246(16) 0.09075(11)
H1 H 0.4189 -0.1506 0.0453
N1 N 0.41615(14) -0.05494(15) 0.14355(10)
N2 N 0.29014(14) -0.18256(15) 0.11057(10)
C2 C 0.78084(18) -0.11911(18) -0.00053(13)
C3 C 0.71960(18) -0.04206(18) 0.05199(13)
C4 C 0.23416(18) -0.27270(19) 0.06866(12)
C5 C 0.51356(19) 0.3639(2) 0.18599(15)
C6 C 0.52386(19) 0.2366(2) 0.18559(15)
O4 O 0.5046(2) 0.18000(17) 0.24532(12)
C7 C 0.8921(2) -0.1096(2) -0.00060(18)
H2 H 0.9285 -0.0549 0.0315
C8 C 0.4917(4) 0.5983(3) 0.1908(3)
H3 H 0.4813 0.6772 0.1924
C9 C 0.7865(3) -0.2713(3) -0.0958(2)
H4 H 0.7506 -0.3255 -0.1287
C10 C 0.3418(2) -0.0554(3) 0.20024(16)
H5 H 0.3449 -0.0092 0.2457
C11 C 0.1729(3) -0.3489(3) 0.10931(15)
H6 H 0.1681 -0.3389 0.1642
C12 C 0.5085(5) 0.5396(3) 0.2585(3)
H7 H 0.5142 0.5780 0.3074
C13 C 0.7284(2) -0.2010(2) -0.04803(16)
H8 H 0.6534 -0.2090 -0.0479
C14 C 0.2636(3) -0.1319(3) 0.18099(16)
H9 H 0.2032 -0.1477 0.2096
C15 C 0.8973(3) -0.2613(3) -0.0950(2)
H10 H 0.9366 -0.3096 -0.1266
C16 C 0.4897(5) 0.5433(3) 0.1198(3)
H11 H 0.4809 0.5848 0.0723
C17 C 0.5175(4) 0.4217(3) 0.2567(2)
H12 H 0.5263 0.3812 0.3046
C18 C 0.5007(4) 0.4245(3) 0.1173(2)
H13 H 0.4991 0.3869 0.0682
C19 C 0.23907(16) -0.28414(17) -0.01287(12)
H14 H 0.2792 -0.2331 -0.0418
N3 N 0.1204(3) -0.4361(3) 0.07353(14)
C20 C 0.1268(3) -0.4479(3) -0.00492(16)
H15 H 0.0915 -0.5096 -0.0304
C21 C 0.18310(17) -0.37304(18) -0.05029(12)
N4 N 0.17725(14) -0.38207(15) -0.13552(10)
C22 C 0.1382(2) -0.47005(18) -0.18130(13)
H16 H 0.1138 -0.5389 -0.1610
C23 C 0.2032(2) -0.2958(2) -0.18772(13)
H17 H 0.2309 -0.2236 -0.1744
C24 C 0.1802(2) -0.3379(2) -0.26165(14)
H18 H 0.1908 -0.2989 -0.3090
N5 N 0.13883(15) -0.44661(15) -0.25737(10)
C25 C 0.9500(2) -0.1810(3) -0.0481(2)
H19 H 1.0251 -0.1741 -0.0480
Zn1C Zn 0.063012(19) -0.52487(2) -0.354703(13)
N5C N 0.63883(15) -0.05339(15) 0.24263(10)
loop_
_geom_bond_atom_site_label_1
_geom_bond_atom_site_label_2
_geom_bond_site_symmetry_1
_geom_bond_site_symmetry_2
Zn1 O1 1_555 1_555
O1 C3 1_555 1_555
O2 Zn1 1_555 1_555
O3 C3 1_555 1_555
C1 H1 1_555 1_555
N1 Zn1 1_555 1_555
N2 C1 1_555 1_555
C2 C3 1_555 1_555
C4 N2 1_555 1_555
C5 C6 1_555 1_555
C6 O2 1_555 1_555
O4 C6 1_555 1_555
C7 C2 1_555 1_555
H2 C7 1_555 1_555
C8 H3 1_555 1_555
C9 H4 1_555 1_555
C10 N1 1_555 1_555
H5 C10 1_555 1_555
C11 C4 1_555 1_555
H6 C11 1_555 1_555
C12 C8 1_555 1_555
H7 C12 1_555 1_555
C13 C2 1_555 1_555
H8 C13 1_555 1_555
C14 N2 1_555 1_555
H9 C14 1_555 1_555
C15 C9 1_555 1_555
H10 C15 1_555 1_555
C16 C8 1_555 1_555
H11 C16 1_555 1_555
C17 C5 1_555 1_555
H12 C17 1_555 1_555
C18 C5 1_555 1_555
H13 C18 1_555 1_555
C19 C4 1_555 1_555
H14 C19 1_555 1_555
N3 C11 1_555 1_555
C20 N3 1_555 1_555
H15 C20 1_555 1_555
C21 C19 1_555 1_555
N4 C21 1_555 1_555
C22 N4 1_555 1_555
H16 C22 1_555 1_555
C23 N4 1_555 1_555
H17 C23 1_555 1_555
C24 C23 1_555 1_555
H18 C24 1_555 1_555
N5 C22 1_555 1_555
C25 C7 1_555 1_555
H19 C25 1_555 1_555
Zn1C N5 1_555 1_555
N5C Zn1 1_555 1_555
C1 N1 1_555 1_555
C9 C13 1_555 1_555
C10 C14 1_555 1_555
C12 C17 1_555 1_555
C15 C25 1_555 1_555
C16 C18 1_555 1_555
C20 C21 1_555 1_555
C24 N5 1_555 1_555

#END
