
#######################################################################
#
#                 Cambridge Crystallographic Data Centre
#                                CCDC 
#
#######################################################################
#
# If this CIF has been generated from an entry in the Cambridge 
# Structural Database, then it will include bibliographic, chemical, 
# crystal, experimental, refinement or atomic coordinate data resulting 
# from the CCDC's data processing and validation procedures.
#
#######################################################################

data_KIZZEZ
_symmetry_cell_setting           triclinic
_symmetry_space_group_name_H-M   'P -1'
_symmetry_Int_Tables_number      2
_space_group_name_Hall           '-P 1'
loop_
_symmetry_equiv_pos_site_id
_symmetry_equiv_pos_as_xyz
1 x,y,z
2 -x,-y,-z
_cell_length_a                   9.4225(7)
_cell_length_b                   10.4660(8)
_cell_length_c                   10.7979(8)
_cell_angle_alpha                62.248(1)
_cell_angle_beta                 72.937(1)
_cell_angle_gamma                69.856(1)
_cell_volume                     873.293
loop_
_atom_site_label
_atom_site_type_symbol
_atom_site_fract_x
_atom_site_fract_y
_atom_site_fract_z
Cu1 Cu 0.5000 0.5000 1.0000
F1 F 0.25136(15) 0.30055(17) 0.43965(11)
F2 F -0.18916(16) 0.1308(2) 0.55721(19)
O1 O 0.27889(13) 0.12555(12) 0.87818(11)
H1 H 0.2018 0.1716 0.9133
O2 O 0.23617(13) 0.51199(14) 1.10494(14)
H2 H 0.2121 0.4284 1.1448
H3 H 0.1677 0.5769 1.0589
N1 N 0.48755(15) 0.42602(13) 0.86194(14)
N2 N 0.39375(14) 0.38147(13) 0.72947(13)
N3 N 0.54509(17) 0.3678(2) 0.67473(17)
N4 N 0.43888(14) -0.05204(14) 0.72563(13)
N5 N 0.37698(18) -0.09160(16) 0.65301(15)
N6 N 0.44684(14) -0.28626(13) 0.85287(14)
C1 C 0.15412(17) 0.18315(16) 0.68275(16)
C2 C 0.1421(2) 0.2348(2) 0.54152(18)
C3 C 0.0289(2) 0.2202(3) 0.4964(2)
H4 H 0.0250 0.2565 0.4005
C4 C -0.0785(2) 0.1496(3) 0.5994(2)
C5 C -0.0754(2) 0.0968(2) 0.7404(2)
H5 H -0.1496 0.0500 0.8079
C6 C 0.0406(2) 0.1143(2) 0.78112(19)
H6 H 0.0428 0.0790 0.8773
C7 C 0.28838(17) 0.19200(15) 0.72909(14)
C8 C 0.28912(19) 0.35803(16) 0.67003(17)
H7 H 0.3183 0.3955 0.5678
H8 H 0.1863 0.4147 0.6907
C9 C 0.36097(18) 0.41602(17) 0.83923(17)
H9 H 0.2643 0.4311 0.8926
C10 C 0.59614(19) 0.3954(2) 0.75892(19)
H10 H 0.6982 0.3940 0.7483
C11 C 0.44174(17) 0.10312(16) 0.67614(16)
H11 H 0.4616 0.1478 0.5733
H12 H 0.5239 0.1070 0.7104
C12 C 0.47844(17) -0.16724(17) 0.84238(17)
H13 H 0.5223 -0.1654 0.9081
C13 C 0.3839(2) -0.23243(17) 0.73343(17)
H14 H 0.3489 -0.2912 0.7114
Cu1_2 Cu 0.5000 -0.5000 1.0000
Cu1_3 Cu 0.5000 1.5000 1.0000
F1A F 0.74864(15) 0.69945(17) 1.56035(11)
F2A F 1.18916(16) 0.8692(2) 1.44279(19)
O1A O 0.72111(13) 0.87445(12) 1.12182(11)
H1A H 0.7982 0.8284 1.0867
O2A O 0.76383(13) 0.48801(14) 0.89506(14)
H2A H 0.7879 0.5716 0.8552
H3A H 0.8323 0.4231 0.9411
N1A N 0.51245(15) 0.57398(13) 1.13806(14)
N2A N 0.60625(14) 0.61853(13) 1.27053(13)
N3A N 0.45491(17) 0.6322(2) 1.32527(17)
N4A N 0.56112(14) 1.05204(14) 1.27437(13)
N5A N 0.62302(18) 1.09160(16) 1.34699(15)
N6A N 0.55316(14) 1.28626(13) 1.14713(14)
N6_2 N 0.44684(14) 0.71374(13) 0.85287(14)
N6A_2 N 0.55316(14) 0.28626(13) 1.14713(14)
C1A C 0.84588(17) 0.81685(16) 1.31725(16)
C2A C 0.8579(2) 0.7652(2) 1.45848(18)
C3A C 0.9711(2) 0.7798(3) 1.5036(2)
H4A H 0.9750 0.7435 1.5995
C4A C 1.0785(2) 0.8504(3) 1.4006(2)
C5A C 1.0754(2) 0.9032(2) 1.2596(2)
H5A H 1.1496 0.9500 1.1921
C6A C 0.9594(2) 0.8857(2) 1.21888(19)
H6A H 0.9572 0.9210 1.1227
C7A C 0.71162(17) 0.80800(15) 1.27091(14)
C8A C 0.71088(19) 0.64197(16) 1.32997(17)
H7A H 0.6817 0.6045 1.4322
H8A H 0.8137 0.5853 1.3093
C9A C 0.63903(18) 0.58398(17) 1.16077(17)
H9A H 0.7357 0.5689 1.1074
C10A C 0.40386(19) 0.6046(2) 1.24108(19)
H10A H 0.3018 0.6060 1.2517
C11A C 0.55826(17) 0.89688(16) 1.32386(16)
H11A H 0.5384 0.8522 1.4267
H12A H 0.4761 0.8930 1.2896
C12A C 0.52156(17) 1.16724(17) 1.15762(17)
H13A H 0.4777 1.1654 1.0919
C13A C 0.6161(2) 1.23243(17) 1.26657(17)
H14A H 0.6511 1.2912 1.2886
O3 O 0.17608(15) 0.23071(18) 0.14238(16)
O4 O 0.02000(15) 0.26998(17) 0.00925(15)
O5 O -0.05168(18) 0.3656(2) 0.16307(17)
N7 N 0.04787(16) 0.28864(16) 0.10644(15)
loop_
_geom_bond_atom_site_label_1
_geom_bond_atom_site_label_2
_geom_bond_site_symmetry_1
_geom_bond_site_symmetry_2
Cu1 O2 1_555 1_555
F1 C2 1_555 1_555
F2 C4 1_555 1_555
O1 H1 1_555 1_555
O2 H2 1_555 1_555
H3 O2 1_555 1_555
N1 Cu1 1_555 1_555
N2 N3 1_555 1_555
N3 C10 1_555 1_555
N4 N5 1_555 1_555
N5 C13 1_555 1_555
N6 C12 1_555 1_555
C1 C2 1_555 1_555
C2 C3 1_555 1_555
C3 H4 1_555 1_555
C4 C3 1_555 1_555
C5 C4 1_555 1_555
H5 C5 1_555 1_555
C6 C1 1_555 1_555
H6 C6 1_555 1_555
C7 O1 1_555 1_555
C8 N2 1_555 1_555
H7 C8 1_555 1_555
H8 C8 1_555 1_555
C9 N1 1_555 1_555
H9 C9 1_555 1_555
C10 N1 1_555 1_555
H10 C10 1_555 1_555
C11 N4 1_555 1_555
H11 C11 1_555 1_555
H12 C11 1_555 1_555
C12 N4 1_555 1_555
H13 C12 1_555 1_555
C13 N6 1_555 1_555
H14 C13 1_555 1_555
O3 N7 1_555 1_555
O4 N7 1_555 1_555
O5 N7 1_555 1_555
Cu1_2 N6 1_555 1_555
Cu1_3 N6A 1_555 1_555
F1A C2A 1_555 1_555
F2A C4A 1_555 1_555
O1A H1A 1_555 1_555
O2A Cu1 1_555 1_555
H2A O2A 1_555 1_555
H3A O2A 1_555 1_555
N1A Cu1 1_555 1_555
N2A N3A 1_555 1_555
N3A C10A 1_555 1_555
N4A N5A 1_555 1_555
N5A C13A 1_555 1_555
N6A C12A 1_555 1_555
N6_2 Cu1 1_555 1_555
N6A_2 Cu1 1_555 1_555
C1A C2A 1_555 1_555
C2A C3A 1_555 1_555
C3A H4A 1_555 1_555
C4A C3A 1_555 1_555
C5A C4A 1_555 1_555
H5A C5A 1_555 1_555
C6A C1A 1_555 1_555
H6A C6A 1_555 1_555
C7A O1A 1_555 1_555
C8A N2A 1_555 1_555
H7A C8A 1_555 1_555
H8A C8A 1_555 1_555
C9A N1A 1_555 1_555
H9A C9A 1_555 1_555
C10A N1A 1_555 1_555
H10A C10A 1_555 1_555
C11A N4A 1_555 1_555
H11A C11A 1_555 1_555
H12A C11A 1_555 1_555
C12A N4A 1_555 1_555
H13A C12A 1_555 1_555
C13A N6A 1_555 1_555
H14A C13A 1_555 1_555
N2 C9 1_555 1_555
C1 C7 1_555 1_555
C5 C6 1_555 1_555
C7 C8 1_555 1_555
C7 C11 1_555 1_555
N2A C9A 1_555 1_555
C1A C7A 1_555 1_555
C5A C6A 1_555 1_555
C7A C8A 1_555 1_555
C7A C11A 1_555 1_555

#END
