
#######################################################################
#
#                 Cambridge Crystallographic Data Centre
#                                CCDC 
#
#######################################################################
#
# If this CIF has been generated from an entry in the Cambridge 
# Structural Database, then it will include bibliographic, chemical, 
# crystal, experimental, refinement or atomic coordinate data resulting 
# from the CCDC's data processing and validation procedures.
#
#######################################################################

data_KNATAR06
_symmetry_cell_setting           orthorhombic
_symmetry_space_group_name_H-M   'P 21 21 2'
_symmetry_Int_Tables_number      18
_space_group_name_Hall           'P 2 2ab'
loop_
_symmetry_equiv_pos_site_id
_symmetry_equiv_pos_as_xyz
1 x,y,z
2 -x,-y,z
3 1/2+x,1/2-y,-z
4 1/2-x,1/2+y,-z
_cell_length_a                   11.924(3)
_cell_length_b                   14.298(3)
_cell_length_c                   6.230(2)
_cell_angle_alpha                90
_cell_angle_beta                 90
_cell_angle_gamma                90
_cell_volume                     1062.15
loop_
_atom_site_label
_atom_site_type_symbol
_atom_site_fract_x
_atom_site_fract_y
_atom_site_fract_z
O1 O 0.1205(3) 0.1094(2) 0.3500(6)
O2 O 0.2102(4) 0.2028(2) 0.1189(5)
O3 O 0.2322(4) 0.4062(2) 0.8119(6)
O4 O 0.0540(4) 0.3629(3) 0.8428(6)
O5 O 0.1636(3) 0.3567(2) 0.3221(5)
O6 O 0.2954(3) 0.2484(2) 0.6274(6)
O7 O -0.1036(3) 0.4175(2) 0.5158(7)
O8 O 0.2429(6) 0.0413(2) -0.1128(6)
O9 O -0.0622(5) 0.1996(5) -0.0366(9)
O10 O -0.0758(4) 0.1033(4) -0.4227(11)
C1 C 0.1545(3) 0.1879(2) 0.2849(6)
C2 C 0.1249(3) 0.2732(2) 0.4235(6)
C3 C 0.1791(3) 0.2644(2) 0.6451(6)
C4 C 0.1537(5) 0.3516(3) 0.7790(6)
K1 K 0.0000 0.0000 0.0470(3)
K2 K 0.0000 0.5000 0.1586(2)
Na1 Na 0.2312(2) -0.0068(1) 0.5234(3)
O1A O -0.1205(3) -0.1094(2) 0.3500(6)
O1_2 O 0.1205(3) 0.1094(2) -0.6500(6)
O1C O 0.3795(3) 0.6094(2) 0.6500(6)
O2_2 O 0.2102(4) 0.2028(2) -0.8811(5)
O3C O 0.2678(4) -0.0938(2) 0.1881(6)
O3_2 O 0.2322(4) 0.4062(2) -0.1881(6)
O4_2 O 0.0540(4) 0.3629(3) -0.1572(6)
O4A O -0.0540(4) 0.6371(3) -0.1572(6)
O5A O -0.1636(3) 0.6433(2) 0.3221(5)
O5C O 0.3364(3) -0.1433(2) 0.6779(5)
O5_2 O 0.1636(3) 0.3567(2) -0.6779(5)
O6_2 O 0.2954(3) 0.2484(2) -0.3726(6)
O7A O 0.1036(3) 0.5825(2) 0.5158(7)
O7B O 0.3964(3) 0.0825(2) 0.4842(7)
O8A O -0.2429(6) -0.0413(2) -0.1128(6)
O8B O -0.2571(6) 0.4587(2) 0.1128(6)
O8C O 0.2571(6) 0.5413(2) 0.1128(6)
O8_2 O 0.2429(6) 0.0413(2) 0.8872(6)
O9A O 0.0622(5) -0.1996(5) -0.0366(9)
O10A O 0.0758(4) -0.1033(4) -0.4227(11)
O10A_2 O 0.0758(4) -0.1033(4) 0.5773(11)
O10B O 0.4242(4) 0.3967(4) 0.4227(11)
C1_2 C 0.1545(3) 0.1879(2) -0.7151(6)
C2_2 C 0.1249(3) 0.2732(2) -0.5765(6)
C3_2 C 0.1791(3) 0.2644(2) -0.3549(6)
C4_2 C 0.1537(5) 0.3516(3) -0.2210(6)
K1_2 K 0.0000 0.0000 -0.9530(3)
K1B K 0.5000 0.5000 -0.0470(3)
K2_2 K 0.0000 0.5000 1.1586(2)
K2B K 0.5000 0.0000 -0.1586(2)
K2_3 K 0.0000 0.5000 -0.8414(2)
Na1C Na 0.2688(2) 0.4932(1) 0.4766(3)
Na1B Na -0.2688(2) 0.5068(1) 0.4766(3)
Na1_2 Na 0.2312(2) -0.0068(1) -0.4766(3)
Na1A Na -0.2312(2) 0.0068(1) -0.4766(3)
Na1C_2 Na 0.2688(2) 0.4932(1) -0.5234(3)
loop_
_geom_bond_atom_site_label_1
_geom_bond_atom_site_label_2
_geom_bond_site_symmetry_1
_geom_bond_site_symmetry_2
O1 C1 1_555 1_555
O2 C1 1_555 1_555
O3 C4 1_555 1_555
O4 C4 1_555 1_555
O5 C2 1_555 1_555
O6 C3 1_555 1_555
O7 K2 1_555 1_555
O8 K1 1_555 1_555
O9 K1 1_555 1_555
O10 K1 1_555 1_555
C1 C2 1_555 1_555
C2 C3 1_555 1_555
C3 C4 1_555 1_555
K1 O1 1_555 1_555
K2 O5 1_555 1_555
Na1 O1 1_555 1_555
O1A K1 1_555 1_555
O1_2 C1_2 1_555 1_555
O1C Na1C 1_555 1_555
O2_2 C1_2 1_555 1_555
O3C Na1 1_555 1_555
O3_2 C4_2 1_555 1_555
O4_2 K2 1_555 1_555
O4A K2 1_555 1_555
O5A K2 1_555 1_555
O5C Na1 1_555 1_555
O5_2 C2_2 1_555 1_555
O6_2 C3_2 1_555 1_555
O7A K2 1_555 1_555
O7B Na1 1_555 1_555
O8A K1 1_555 1_555
O8B K2 1_555 1_555
O8C K2 1_555 1_555
O8_2 Na1 1_555 1_555
O9A K1 1_555 1_555
O10A K1 1_555 1_555
O10A_2 Na1 1_555 1_555
O10B K1B 1_555 1_555
C1_2 C2_2 1_555 1_555
C2_2 C3_2 1_555 1_555
C3_2 C4_2 1_555 1_555
C4_2 O4_2 1_555 1_555
K1_2 O1_2 1_555 1_555
K1B O8C 1_555 1_555
K2_2 O4 1_555 1_555
K2B O8 1_555 1_555
K2_3 O5_2 1_555 1_555
Na1C O3 1_555 1_555
Na1B O7 1_555 1_555
Na1_2 O8 1_555 1_555
Na1A O10 1_555 1_555
Na1C_2 O3_2 1_555 1_555
O5 Na1C 1_555 1_555
O1_2 Na1_2 1_555 1_555
O5A Na1B 1_555 1_555
O5_2 Na1C_2 1_555 1_555
O7A Na1C 1_555 1_555
O8A Na1A 1_555 1_555
O8B Na1B 1_555 1_555
O8C Na1C 1_555 1_555
O10A Na1_2 1_555 1_555
O10B Na1C 1_555 1_555

#END
