
#######################################################################
#
#                 Cambridge Crystallographic Data Centre
#                                CCDC 
#
#######################################################################
#
# If this CIF has been generated from an entry in the Cambridge 
# Structural Database, then it will include bibliographic, chemical, 
# crystal, experimental, refinement or atomic coordinate data resulting 
# from the CCDC's data processing and validation procedures.
#
#######################################################################

data_KOBZOR
_symmetry_cell_setting           monoclinic
_symmetry_space_group_name_H-M   'C 2/c'
_symmetry_Int_Tables_number      15
_space_group_name_Hall           '-C 2yn'
loop_
_symmetry_equiv_pos_site_id
_symmetry_equiv_pos_as_xyz
1 x,y,z
2 1/2+x,1/2+y,z
3 -x,y,1/2-z
4 1/2-x,1/2+y,1/2-z
5 -x,-y,-z
6 1/2-x,1/2-y,-z
7 x,-y,1/2+z
8 1/2+x,1/2-y,1/2+z
_cell_length_a                   19.7419(4)
_cell_length_b                   10.5996(2)
_cell_length_c                   7.4895(2)
_cell_angle_alpha                90
_cell_angle_beta                 98.275(2)
_cell_angle_gamma                90
_cell_volume                     1550.91
loop_
_atom_site_label
_atom_site_type_symbol
_atom_site_fract_x
_atom_site_fract_y
_atom_site_fract_z
Au1 Au 0.931995(11) 0.32934(2) -0.17793(3)
Cl1 Cl 0.88789(8) 0.43702(17) -0.4306(2)
S1 S 0.96869(7) 0.20183(18) 0.0591(2)
C1 C 0.8934(3) 0.1319(6) 0.1248(9)
C2 C 0.8386(4) 0.2076(9) 0.1596(13)
H1 H 0.8413 0.2970 0.1539
C3 C 0.7811(4) 0.1488(9) 0.2021(15)
H2 H 0.7440 0.1978 0.2321
C4 C 0.7768(4) 0.0163(8) 0.2015(11)
H3 H 0.7364 -0.0241 0.2274
C5 C 0.8302(4) -0.0534(7) 0.1640(11)
H4 H 0.8269 -0.1428 0.1623
C6 C 0.8895(4) 0.0034(7) 0.1283(11)
H5 H 0.9274 -0.0465 0.1062
C7 C 1.0000 0.3013(10) 0.2500
H6 H 0.9626 0.3560 0.2803
H7 H 1.0374 0.3560 0.2197
Au1B Au 1.068005(11) 0.32934(2) 0.67793(3)
Au1B_2 Au 1.068005(11) 0.32934(2) -0.32207(3)
Au1_2 Au 0.931995(11) 0.32934(2) 0.82207(3)
Cl1B Cl 1.11211(8) 0.43702(17) 0.9306(2)
S1B S 1.03131(7) 0.20183(18) 0.4409(2)
C1B C 1.1066(3) 0.1319(6) 0.3752(9)
C2B C 1.1614(4) 0.2076(9) 0.3404(13)
H1B H 1.1587 0.2970 0.3461
C3B C 1.2189(4) 0.1488(9) 0.2979(15)
H2B H 1.2560 0.1978 0.2679
C4B C 1.2232(4) 0.0163(8) 0.2985(11)
H3B H 1.2636 -0.0241 0.2726
C5B C 1.1698(4) -0.0534(7) 0.3360(11)
H4B H 1.1731 -0.1428 0.3377
C6B C 1.1105(4) 0.0034(7) 0.3717(11)
H5B H 1.0726 -0.0465 0.3938
loop_
_geom_bond_atom_site_label_1
_geom_bond_atom_site_label_2
_geom_bond_site_symmetry_1
_geom_bond_site_symmetry_2
Au1 Cl1 1_555 1_555
S1 Au1 1_555 1_555
C1 S1 1_555 1_555
C2 C1 1_555 1_555
H1 C2 1_555 1_555
C3 C2 1_555 1_555
H2 C3 1_555 1_555
C4 C3 1_555 1_555
H3 C4 1_555 1_555
C5 C4 1_555 1_555
H4 C5 1_555 1_555
C6 C1 1_555 1_555
H5 C6 1_555 1_555
C7 S1 1_555 1_555
H6 C7 1_555 1_555
H7 C7 1_555 1_555
Au1B Au1_2 1_555 1_555
Au1B_2 Au1 1_555 1_555
Cl1B Au1B 1_555 1_555
S1B C7 1_555 1_555
C1B S1B 1_555 1_555
C2B C1B 1_555 1_555
H1B C2B 1_555 1_555
C3B C2B 1_555 1_555
H2B C3B 1_555 1_555
C4B C3B 1_555 1_555
H3B C4B 1_555 1_555
C5B C4B 1_555 1_555
H4B C5B 1_555 1_555
C6B C1B 1_555 1_555
H5B C6B 1_555 1_555
C5 C6 1_555 1_555
Au1B S1B 1_555 1_555
C5B C6B 1_555 1_555

#END
