
#######################################################################
#
#                 Cambridge Crystallographic Data Centre
#                                CCDC 
#
#######################################################################
#
# If this CIF has been generated from an entry in the Cambridge 
# Structural Database, then it will include bibliographic, chemical, 
# crystal, experimental, refinement or atomic coordinate data resulting 
# from the CCDC's data processing and validation procedures.
#
#######################################################################

data_KOCPOI
_symmetry_cell_setting           monoclinic
_symmetry_space_group_name_H-M   'P 21/n'
_symmetry_Int_Tables_number      14
_space_group_name_Hall           '-P 2yn'
loop_
_symmetry_equiv_pos_site_id
_symmetry_equiv_pos_as_xyz
1 x,y,z
2 1/2-x,1/2+y,1/2-z
3 -x,-y,-z
4 1/2+x,1/2-y,1/2+z
_cell_length_a                   14.389(3)
_cell_length_b                   20.419(4)
_cell_length_c                   15.101(3)
_cell_angle_alpha                90
_cell_angle_beta                 105.81(3)
_cell_angle_gamma                90
_cell_volume                     4268.97
loop_
_atom_site_label
_atom_site_type_symbol
_atom_site_fract_x
_atom_site_fract_y
_atom_site_fract_z
Nd1 Nd -0.25801(2) 1.042228(15) -0.24445(2)
Cl1 Cl -0.26459(11) 0.96030(8) -0.39565(11)
Cl2 Cl -0.21855(12) 0.92881(8) -0.12824(11)
N1 N -0.4361(4) 0.9805(3) -0.2837(4)
C1 C -0.4587(5) 0.9288(3) -0.2371(5)
H1 H -0.4090 0.9095 -0.1896
C2 C -0.5507(5) 0.9029(3) -0.2554(5)
H2 H -0.5637 0.8673 -0.2201
C3 C -0.6245(5) 0.9298(4) -0.3265(5)
H3 H -0.6881 0.9124 -0.3411
C4 C -0.6022(5) 0.9826(3) -0.3752(5)
H4 H -0.6505 1.0023 -0.4236
C5 C -0.5078(4) 1.0061(3) -0.3516(4)
C6 C -0.4764(5) 1.0655(3) -0.3974(4)
O1 O -0.3934(3) 1.0894(2) -0.3633(3)
N2 N -0.5384(4) 1.0912(2) -0.4711(4)
H5 H -0.5945 1.0719 -0.4938
C7 C -0.5160(5) 1.1505(3) -0.5154(4)
H6 H -0.5575 1.1520 -0.5795
H7 H -0.4480 1.1484 -0.5178
C8 C -0.5309(5) 1.2132(3) -0.4657(5)
H8 H -0.5985 1.2152 -0.4620
H9 H -0.4879 1.2128 -0.4021
N3 N -0.5669(4) 1.4956(3) -0.7132(4)
C9 C -0.5342(5) 1.5407(4) -0.7633(5)
H10 H -0.5771 1.5558 -0.8191
C10 C -0.4419(6) 1.5657(4) -0.7373(6)
H11 H -0.4222 1.5975 -0.7744
C11 C -0.3779(5) 1.5441(4) -0.6563(6)
H12 H -0.3142 1.5614 -0.6365
C12 C -0.4088(5) 1.4970(3) -0.6053(5)
H13 H -0.3662 1.4803 -0.5504
C13 C -0.5030(5) 1.4745(3) -0.6355(4)
C14 C -0.5443(5) 1.4224(3) -0.5863(4)
O2 O -0.6333(3) 1.4071(2) -0.6170(3)
N4 N -0.4886(4) 1.3935(2) -0.5126(4)
H14 H -0.4296 1.4085 -0.4898
C15 C -0.5197(5) 1.3378(3) -0.4669(5)
H15 H -0.5880 1.3438 -0.4670
H16 H -0.4801 1.3357 -0.4021
C16 C -0.5092(5) 1.2733(3) -0.5159(5)
H17 H -0.5536 1.2741 -0.5788
H18 H -0.4424 1.2701 -0.5217
N5 N -0.2940(4) 1.1706(3) -0.2010(4)
C17 C -0.2777(5) 1.2265(3) -0.2425(6)
H19 H -0.2652 1.2233 -0.3010
C18 C -0.2782(6) 1.2886(3) -0.2041(6)
H20 H -0.2680 1.3267 -0.2364
C19 C -0.2939(6) 1.2936(4) -0.1185(7)
H21 H -0.2933 1.3352 -0.0902
C20 C -0.3104(6) 1.2374(3) -0.0740(6)
H22 H -0.3206 1.2398 -0.0145
C21 C -0.3118(5) 1.1770(3) -0.1181(5)
C22 C -0.3343(5) 1.1127(3) -0.0809(5)
O3 O -0.3436(3) 1.0635(2) -0.1297(3)
N6 N -0.3477(4) 1.1102(3) 0.0032(4)
H23 H -0.3378 1.1451 0.0385
C23 C -0.3793(5) 1.0481(3) 0.0363(5)
H24 H -0.3701 1.0507 0.1037
H25 H -0.3393 1.0116 0.0241
C24 C -0.4850(5) 1.0347(3) -0.0114(5)
H26 H -0.4961 1.0389 -0.0788
H27 H -0.5257 1.0677 0.0084
O4 O -0.1802(3) 1.1145(2) -0.3337(3)
H28 H -0.1240 1.1278 -0.3126
C25 C -0.2007(7) 1.1245(5) -0.4319(6)
H29 H -0.1534 1.1006 -0.4554
H30 H -0.1968 1.1714 -0.4447
H31 H -0.2658 1.1085 -0.4622
Nd1C Nd 0.24199(2) 1.457772(15) 0.25555(2)
Nd1C_2 Nd -0.75801(2) 1.457772(15) -0.74445(2)
Nd1B Nd -0.74199(2) 0.957772(15) 0.24445(2)
Cl1C Cl 0.23541(11) 1.53970(8) 0.10435(11)
Cl2C Cl 0.28145(12) 1.57119(8) 0.37176(11)
N1C N 0.0639(4) 1.5195(3) 0.2163(4)
C1C C 0.0413(5) 1.5712(3) 0.2629(5)
H1C H 0.0910 1.5905 0.3104
C2C C -0.0507(5) 1.5971(3) 0.2446(5)
H2C H -0.0637 1.6327 0.2799
C3C C -0.1245(5) 1.5702(4) 0.1735(5)
H3C H -0.1881 1.5876 0.1589
C4C C -0.1022(5) 1.5174(3) 0.1248(5)
H4C H -0.1505 1.4977 0.0764
C5C C -0.0078(4) 1.4939(3) 0.1484(4)
C6C C 0.0236(5) 1.4345(3) 0.1026(4)
O1C O 0.1066(3) 1.4106(2) 0.1367(3)
N2C N -0.0384(4) 1.4088(2) 0.0289(4)
H5C H -0.0945 1.4281 0.0062
C7C C -0.0160(5) 1.3495(3) -0.0154(4)
H6C H -0.0575 1.3480 -0.0795
H7C H 0.0520 1.3516 -0.0178
C8C C -0.0309(5) 1.2868(3) 0.0343(5)
H8C H -0.0985 1.2848 0.0380
H9C H 0.0121 1.2872 0.0979
N3C N -0.0669(4) 1.0044(3) -0.2132(4)
N3_2 N 0.4331(4) 1.4956(3) 0.2868(4)
C9C C -0.0342(5) 0.9593(4) -0.2633(5)
H10C H -0.0771 0.9442 -0.3191
C10C C 0.0581(6) 0.9343(4) -0.2373(6)
H11C H 0.0778 0.9025 -0.2744
C11C C 0.1221(5) 0.9559(4) -0.1563(6)
H12C H 0.1858 0.9386 -0.1365
C12C C 0.0912(5) 1.0030(3) -0.1053(5)
H13C H 0.1338 1.0197 -0.0504
C13C C -0.0030(5) 1.0255(3) -0.1355(4)
C14C C -0.0443(5) 1.0776(3) -0.0863(4)
O2C O -0.1333(3) 1.0929(2) -0.1170(3)
O2_2 O 0.3667(3) 1.4071(2) 0.3830(3)
N4C N 0.0114(4) 1.1065(2) -0.0126(4)
H14C H 0.0704 1.0915 0.0102
C15C C -0.0197(5) 1.1622(3) 0.0331(5)
H15C H -0.0880 1.1562 0.0330
H16C H 0.0199 1.1643 0.0979
C16C C -0.0092(5) 1.2267(3) -0.0159(5)
H17C H -0.0536 1.2259 -0.0788
H18C H 0.0576 1.2299 -0.0217
N5B N -0.7060(4) 0.8294(3) 0.2010(4)
N5C N 0.2060(4) 1.3294(3) 0.2990(4)
C17B C -0.7223(5) 0.7735(3) 0.2425(6)
H19B H -0.7348 0.7767 0.3010
C18B C -0.7218(6) 0.7114(3) 0.2041(6)
H20B H -0.7320 0.6733 0.2364
C19B C -0.7061(6) 0.7064(4) 0.1185(7)
H21B H -0.7067 0.6648 0.0902
C20B C -0.6896(6) 0.7626(3) 0.0740(6)
H22B H -0.6794 0.7602 0.0145
C21B C -0.6882(5) 0.8230(3) 0.1181(5)
C22B C -0.6657(5) 0.8873(3) 0.0809(5)
O3B O -0.6564(3) 0.9365(2) 0.1297(3)
O3C O 0.1564(3) 1.4365(2) 0.3703(3)
N6B N -0.6523(4) 0.8898(3) -0.0032(4)
H23B H -0.6622 0.8549 -0.0385
C23B C -0.6207(5) 0.9519(3) -0.0363(5)
H24B H -0.6299 0.9493 -0.1037
H25B H -0.6607 0.9884 -0.0241
C24B C -0.5150(5) 0.9653(3) 0.0114(5)
H26B H -0.5039 0.9611 0.0788
H27B H -0.4743 0.9323 -0.0084
O4C O 0.3198(3) 1.3855(2) 0.1663(3)
H28C H 0.3760 1.3722 0.1874
C25C C 0.2993(7) 1.3755(5) 0.0681(6)
H29C H 0.3466 1.3994 0.0446
H30C H 0.3032 1.3286 0.0553
H31C H 0.2342 1.3915 0.0378
Cl3 Cl 0.26343(17) 0.79978(11) -0.17903(16)
O5 O -0.0021(4) 0.8468(3) 0.2636(5)
H32 H -0.0495 0.8653 0.2754
C26 C -0.0093(9) 0.7772(5) 0.2742(8)
H33 H -0.0520 0.7587 0.2179
H34 H -0.0357 0.7681 0.3263
H35 H 0.0550 0.7575 0.2857
O6 O -0.6955(8) 1.1545(4) -0.3214(8)
H36 H -0.7169 1.1929 -0.3219
C27 C -0.6055(12) 1.1480(7) -0.2464(10)
H37 H -0.5795 1.1037 -0.2471
H38 H -0.6193 1.1558 -0.1872
H39 H -0.5582 1.1801 -0.2551
O7 O -0.3505(7) 1.6629(4) -0.8797(6)
H40 H -0.3117 1.6877 -0.8427
C28 C -0.4425(11) 1.6959(7) -0.9136(11)
H41 H -0.4828 1.6717 -0.9662
H42 H -0.4318 1.7405 -0.9328
H43 H -0.4753 1.6979 -0.8646
O8 O -0.2287(15) 1.2981(8) -0.4661(15)
H44 H -0.2440 1.3334 -0.4415
C29 C -0.2486(15) 1.3211(11) -0.5645(15)
H45 H -0.2025 1.3557 -0.5684
H46 H -0.3145 1.3384 -0.5852
H47 H -0.2416 1.2843 -0.6038
O9 O -0.1355(9) 0.9076(6) 0.3336(10)
H48 H -0.1894 0.8890 0.3291
C30 C -0.1130(13) 0.9483(9) 0.4106(12)
H49 H -0.1543 0.9872 0.3981
H50 H -0.0452 0.9615 0.4244
H51 H -0.1239 0.9247 0.4634
loop_
_geom_bond_atom_site_label_1
_geom_bond_atom_site_label_2
_geom_bond_site_symmetry_1
_geom_bond_site_symmetry_2
Nd1 Cl1 1_555 1_555
Cl2 Nd1 1_555 1_555
N1 Nd1 1_555 1_555
C1 N1 1_555 1_555
H1 C1 1_555 1_555
C2 C1 1_555 1_555
H2 C2 1_555 1_555
C3 C2 1_555 1_555
H3 C3 1_555 1_555
C4 C3 1_555 1_555
H4 C4 1_555 1_555
C5 N1 1_555 1_555
C6 C5 1_555 1_555
O1 Nd1 1_555 1_555
N2 C6 1_555 1_555
H5 N2 1_555 1_555
C7 N2 1_555 1_555
H6 C7 1_555 1_555
H7 C7 1_555 1_555
C8 C7 1_555 1_555
H8 C8 1_555 1_555
H9 C8 1_555 1_555
N3 C9 1_555 1_555
C9 H10 1_555 1_555
C10 C9 1_555 1_555
H11 C10 1_555 1_555
C11 C10 1_555 1_555
H12 C11 1_555 1_555
C12 C11 1_555 1_555
H13 C12 1_555 1_555
C13 N3 1_555 1_555
C14 C13 1_555 1_555
O2 C14 1_555 1_555
N4 C14 1_555 1_555
H14 N4 1_555 1_555
C15 N4 1_555 1_555
H15 C15 1_555 1_555
H16 C15 1_555 1_555
C16 C8 1_555 1_555
H17 C16 1_555 1_555
H18 C16 1_555 1_555
N5 Nd1 1_555 1_555
C17 N5 1_555 1_555
H19 C17 1_555 1_555
C18 C17 1_555 1_555
H20 C18 1_555 1_555
C19 C18 1_555 1_555
H21 C19 1_555 1_555
C20 C19 1_555 1_555
H22 C20 1_555 1_555
C21 N5 1_555 1_555
C22 C21 1_555 1_555
O3 Nd1 1_555 1_555
N6 C22 1_555 1_555
H23 N6 1_555 1_555
C23 N6 1_555 1_555
H24 C23 1_555 1_555
H25 C23 1_555 1_555
C24 C23 1_555 1_555
H26 C24 1_555 1_555
H27 C24 1_555 1_555
O4 Nd1 1_555 1_555
H28 O4 1_555 1_555
C25 O4 1_555 1_555
H29 C25 1_555 1_555
H30 C25 1_555 1_555
H31 C25 1_555 1_555
O5 H32 1_555 1_555
C26 O5 1_555 1_555
H33 C26 1_555 1_555
H34 C26 1_555 1_555
H35 C26 1_555 1_555
O6 H36 1_555 1_555
C27 O6 1_555 1_555
H37 C27 1_555 1_555
H38 C27 1_555 1_555
H39 C27 1_555 1_555
O7 H40 1_555 1_555
C28 O7 1_555 1_555
H41 C28 1_555 1_555
H42 C28 1_555 1_555
H43 C28 1_555 1_555
O8 H44 1_555 1_555
C29 O8 1_555 1_555
H45 C29 1_555 1_555
H46 C29 1_555 1_555
H47 C29 1_555 1_555
O9 H48 1_555 1_555
C30 O9 1_555 1_555
H49 C30 1_555 1_555
H50 C30 1_555 1_555
H51 C30 1_555 1_555
Nd1C Cl1C 1_555 1_555
Nd1C_2 N3 1_555 1_555
Nd1B N5B 1_555 1_555
Cl2C Nd1C 1_555 1_555
N1C Nd1C 1_555 1_555
C1C N1C 1_555 1_555
H1C C1C 1_555 1_555
C2C C1C 1_555 1_555
H2C C2C 1_555 1_555
C3C C2C 1_555 1_555
H3C C3C 1_555 1_555
C4C C3C 1_555 1_555
H4C C4C 1_555 1_555
C5C N1C 1_555 1_555
C6C C5C 1_555 1_555
O1C Nd1C 1_555 1_555
N2C C6C 1_555 1_555
H5C N2C 1_555 1_555
C7C N2C 1_555 1_555
H6C C7C 1_555 1_555
H7C C7C 1_555 1_555
C8C C7C 1_555 1_555
H8C C8C 1_555 1_555
H9C C8C 1_555 1_555
N3C Nd1 1_555 1_555
N3_2 Nd1C 1_555 1_555
C9C N3C 1_555 1_555
H10C C9C 1_555 1_555
C10C C9C 1_555 1_555
H11C C10C 1_555 1_555
C11C C10C 1_555 1_555
H12C C11C 1_555 1_555
C12C C11C 1_555 1_555
H13C C12C 1_555 1_555
C13C N3C 1_555 1_555
C14C C13C 1_555 1_555
O2C Nd1 1_555 1_555
O2_2 Nd1C 1_555 1_555
N4C C14C 1_555 1_555
H14C N4C 1_555 1_555
C15C N4C 1_555 1_555
H15C C15C 1_555 1_555
H16C C15C 1_555 1_555
C16C C8C 1_555 1_555
H17C C16C 1_555 1_555
H18C C16C 1_555 1_555
N5B C17B 1_555 1_555
N5C Nd1C 1_555 1_555
C17B H19B 1_555 1_555
C18B C17B 1_555 1_555
H20B C18B 1_555 1_555
C19B C18B 1_555 1_555
H21B C19B 1_555 1_555
C20B C19B 1_555 1_555
H22B C20B 1_555 1_555
C21B N5B 1_555 1_555
C22B C21B 1_555 1_555
O3B Nd1B 1_555 1_555
O3C Nd1C 1_555 1_555
N6B C22B 1_555 1_555
H23B N6B 1_555 1_555
C23B N6B 1_555 1_555
H24B C23B 1_555 1_555
H25B C23B 1_555 1_555
C24B C24 1_555 1_555
H26B C24B 1_555 1_555
H27B C24B 1_555 1_555
O4C Nd1C 1_555 1_555
H28C O4C 1_555 1_555
C25C O4C 1_555 1_555
H29C C25C 1_555 1_555
H30C C25C 1_555 1_555
H31C C25C 1_555 1_555
C4 C5 1_555 1_555
C6 O1 1_555 1_555
C12 C13 1_555 1_555
O2 Nd1C_2 1_555 1_555
C15 C16 1_555 1_555
C20 C21 1_555 1_555
C22 O3 1_555 1_555
C4C C5C 1_555 1_555
C6C O1C 1_555 1_555
C12C C13C 1_555 1_555
C14C O2C 1_555 1_555
C15C C16C 1_555 1_555
C20B C21B 1_555 1_555
C22B O3B 1_555 1_555
C23B C24B 1_555 1_555

#END
