
#######################################################################
#
#                 Cambridge Crystallographic Data Centre
#                                CCDC 
#
#######################################################################
#
# If this CIF has been generated from an entry in the Cambridge 
# Structural Database, then it will include bibliographic, chemical, 
# crystal, experimental, refinement or atomic coordinate data resulting 
# from the CCDC's data processing and validation procedures.
#
#######################################################################

data_KOCPUO
_symmetry_cell_setting           monoclinic
_symmetry_space_group_name_H-M   'P 21/n'
_symmetry_Int_Tables_number      14
_space_group_name_Hall           '-P 2yn'
loop_
_symmetry_equiv_pos_site_id
_symmetry_equiv_pos_as_xyz
1 x,y,z
2 1/2-x,1/2+y,1/2-z
3 -x,-y,-z
4 1/2+x,1/2-y,1/2+z
_cell_length_a                   14.218(3)
_cell_length_b                   20.364(4)
_cell_length_c                   14.988(3)
_cell_angle_alpha                90
_cell_angle_beta                 106.11(3)
_cell_angle_gamma                90
_cell_volume                     4169.14
loop_
_atom_site_label
_atom_site_type_symbol
_atom_site_fract_x
_atom_site_fract_y
_atom_site_fract_z
Eu1 Eu -0.25851(2) 1.043300(15) -0.24396(2)
Cl1 Cl -0.26852(12) 0.96121(8) -0.39316(11)
Cl2 Cl -0.21753(13) 0.93135(8) -0.12802(12)
N1 N -0.4346(4) 0.9822(3) -0.2817(4)
C1 C -0.4572(5) 0.9314(4) -0.2338(5)
H1 H -0.4076 0.9136 -0.1835
C2 C -0.5500(5) 0.9043(4) -0.2550(5)
H2 H -0.5635 0.8683 -0.2202
C3 C -0.6221(5) 0.9300(3) -0.3270(5)
H3 H -0.6863 0.9121 -0.3432
C4 C -0.5995(5) 0.9827(3) -0.3759(5)
H4 H -0.6481 1.0015 -0.4262
C5 C -0.5064(4) 1.0071(3) -0.3508(4)
C6 C -0.4728(5) 1.0660(3) -0.3948(5)
O1 O -0.3914(3) 1.0912(2) -0.3603(3)
N2 N -0.5361(4) 1.0913(3) -0.4708(4)
H5 H -0.5923 1.0713 -0.4948
C7 C -0.5136(5) 1.1517(3) -0.5151(5)
H6 H -0.5556 1.1535 -0.5800
H7 H -0.4446 1.1501 -0.5170
C8 C -0.5294(5) 1.2141(3) -0.4647(5)
H8 H -0.5979 1.2156 -0.4611
H9 H -0.4856 1.2137 -0.4006
N3 N -0.5681(4) 1.4933(4) -0.7151(4)
C9 C -0.5375(5) 1.5408(4) -0.7668(5)
H10 H -0.5831 1.5569 -0.8214
C10 C -0.4440(6) 1.5656(4) -0.7428(6)
H11 H -0.4242 1.5964 -0.7817
C11 C -0.3790(5) 1.5445(4) -0.6602(6)
H12 H -0.3148 1.5622 -0.6399
C12 C -0.4093(5) 1.4975(4) -0.6084(5)
H13 H -0.3656 1.4807 -0.5533
C13 C -0.5057(5) 1.4749(3) -0.6386(5)
C14 C -0.5461(5) 1.4232(3) -0.5879(5)
O2 O -0.6359(3) 1.4079(2) -0.6186(3)
N4 N -0.4889(4) 1.3947(3) -0.5134(4)
H14 H -0.4290 1.4098 -0.4905
C15 C -0.5206(5) 1.3395(3) -0.4676(5)
H15 H -0.5902 1.3454 -0.4693
H16 H -0.4815 1.3379 -0.4018
C16 C -0.5085(6) 1.2745(3) -0.5155(5)
H17 H -0.5532 1.2746 -0.5793
H18 H -0.4406 1.2717 -0.5206
N5 N -0.2925(4) 1.1713(3) -0.2007(4)
C17 C -0.2780(5) 1.2271(4) -0.2432(6)
H19 H -0.2685 1.2238 -0.3033
C18 C -0.2762(6) 1.2892(3) -0.2045(6)
H20 H -0.2642 1.3270 -0.2367
C19 C -0.2923(6) 1.2945(4) -0.1179(7)
H21 H -0.2919 1.3362 -0.0894
C20 C -0.3091(6) 1.2377(4) -0.0737(6)
H22 H -0.3206 1.2398 -0.0143
C21 C -0.3088(5) 1.1778(3) -0.1177(5)
C22 C -0.3330(5) 1.1139(3) -0.0802(5)
O3 O -0.3420(3) 1.0638(2) -0.1302(3)
N6 N -0.3467(4) 1.1104(3) 0.0027(4)
H23 H -0.3371 1.1453 0.0387
C23 C -0.3783(5) 1.0480(3) 0.0358(5)
H24 H -0.3682 1.0503 0.1038
H25 H -0.3379 1.0115 0.0229
C24 C -0.4850(5) 1.0347(3) -0.0117(5)
H26 H -0.4969 1.0387 -0.0798
H27 H -0.5259 1.0678 0.0083
O4 O -0.1812(3) 1.1135(2) -0.3314(3)
H28 H -0.1240 1.1278 -0.3126
C25 C -0.2010(8) 1.1239(6) -0.4299(7)
H29 H -0.1447 1.1094 -0.4504
H30 H -0.2128 1.1707 -0.4437
H31 H -0.2590 1.0986 -0.4625
Eu1C Eu 0.24149(2) 1.456700(15) 0.25604(2)
Eu1C_2 Eu -0.75851(2) 1.456700(15) -0.74396(2)
Eu1B Eu -0.74149(2) 0.956700(15) 0.24396(2)
Cl1C Cl 0.23148(12) 1.53879(8) 0.10684(11)
Cl2C Cl 0.28247(13) 1.56865(8) 0.37198(12)
N1C N 0.0654(4) 1.5178(3) 0.2183(4)
C1C C 0.0428(5) 1.5686(4) 0.2662(5)
H1C H 0.0924 1.5864 0.3165
C2C C -0.0500(5) 1.5957(4) 0.2450(5)
H2C H -0.0635 1.6317 0.2798
C3C C -0.1221(5) 1.5700(3) 0.1730(5)
H3C H -0.1863 1.5879 0.1568
C4C C -0.0995(5) 1.5173(3) 0.1241(5)
H4C H -0.1481 1.4985 0.0738
C5C C -0.0064(4) 1.4929(3) 0.1492(4)
C6C C 0.0272(5) 1.4340(3) 0.1052(5)
O1C O 0.1086(3) 1.4088(2) 0.1397(3)
N2C N -0.0361(4) 1.4087(3) 0.0292(4)
H5C H -0.0923 1.4287 0.0052
C7C C -0.0136(5) 1.3483(3) -0.0151(5)
H6C H -0.0556 1.3465 -0.0800
H7C H 0.0554 1.3499 -0.0170
C8C C -0.0294(5) 1.2859(3) 0.0353(5)
H8C H -0.0979 1.2844 0.0389
H9C H 0.0144 1.2863 0.0994
N3C N -0.0681(4) 1.0067(4) -0.2151(4)
N3_2 N 0.4319(4) 1.4933(4) 0.2849(4)
C9C C -0.0375(5) 0.9592(4) -0.2668(5)
H10C H -0.0831 0.9431 -0.3214
C10C C 0.0560(6) 0.9344(4) -0.2428(6)
H11C H 0.0758 0.9036 -0.2817
C11C C 0.1210(5) 0.9555(4) -0.1602(6)
H12C H 0.1852 0.9378 -0.1399
C12C C 0.0907(5) 1.0025(4) -0.1084(5)
H13C H 0.1344 1.0193 -0.0533
C13C C -0.0057(5) 1.0251(3) -0.1386(5)
C14C C -0.0461(5) 1.0768(3) -0.0879(5)
O2C O -0.1359(3) 1.0921(2) -0.1186(3)
O2_2 O 0.3641(3) 1.4079(2) 0.3814(3)
N4C N 0.0111(4) 1.1053(3) -0.0134(4)
H14C H 0.0710 1.0902 0.0095
C15C C -0.0206(5) 1.1605(3) 0.0324(5)
H15C H -0.0902 1.1546 0.0307
H16C H 0.0185 1.1621 0.0982
C16C C -0.0085(6) 1.2255(3) -0.0155(5)
H17C H -0.0532 1.2254 -0.0793
H18C H 0.0594 1.2283 -0.0206
N5B N -0.7075(4) 0.8287(3) 0.2007(4)
N5C N 0.2075(4) 1.3287(3) 0.2993(4)
C17B C -0.7220(5) 0.7729(4) 0.2432(6)
H19B H -0.7315 0.7762 0.3033
C18B C -0.7238(6) 0.7108(3) 0.2045(6)
H20B H -0.7358 0.6730 0.2367
C19B C -0.7077(6) 0.7055(4) 0.1179(7)
H21B H -0.7081 0.6638 0.0894
C20B C -0.6909(6) 0.7623(4) 0.0737(6)
H22B H -0.6794 0.7602 0.0143
C21B C -0.6912(5) 0.8222(3) 0.1177(5)
C22B C -0.6670(5) 0.8861(3) 0.0802(5)
O3B O -0.6580(3) 0.9362(2) 0.1302(3)
O3C O 0.1580(3) 1.4362(2) 0.3698(3)
N6B N -0.6533(4) 0.8896(3) -0.0027(4)
H23B H -0.6629 0.8547 -0.0387
C23B C -0.6217(5) 0.9520(3) -0.0358(5)
H24B H -0.6318 0.9497 -0.1038
H25B H -0.6621 0.9885 -0.0229
C24B C -0.5150(5) 0.9653(3) 0.0117(5)
H26B H -0.5031 0.9613 0.0798
H27B H -0.4741 0.9322 -0.0083
O4C O 0.3188(3) 1.3865(2) 0.1686(3)
H28C H 0.3760 1.3722 0.1874
C25C C 0.2990(8) 1.3761(6) 0.0701(7)
H29C H 0.3553 1.3906 0.0496
H30C H 0.2872 1.3293 0.0563
H31C H 0.2410 1.4014 0.0375
Cl3 Cl 0.26322(18) 0.79970(11) -0.17970(17)
O5 O -0.0022(5) 0.8466(3) 0.2635(5)
H32 H -0.0410 0.8656 0.2882
C26 C -0.0082(9) 0.7775(5) 0.2748(9)
H33 H -0.0577 0.7591 0.2216
H34 H -0.0267 0.7683 0.3319
H35 H 0.0555 0.7574 0.2789
O6 O -0.6932(7) 1.1549(4) -0.3202(9)
H36 H -0.6915 1.1900 -0.3493
C27 C -0.6019(12) 1.1480(8) -0.2450(11)
H37 H -0.5791 1.1024 -0.2424
H38 H -0.6139 1.1597 -0.1857
H39 H -0.5519 1.1772 -0.2568
O7 O -0.3498(7) 1.6647(5) -0.8816(6)
H40 H -0.3141 1.6867 -0.8378
C28 C -0.4433(11) 1.6965(7) -0.9153(11)
H41 H -0.4888 1.6672 -0.9584
H42 H -0.4355 1.7372 -0.9476
H43 H -0.4693 1.7069 -0.8629
O8 O -0.2286(17) 1.3031(8) -0.4646(14)
H44 H -0.2353 1.3353 -0.4318
C29 C -0.2466(14) 1.3243(11) -0.5618(15)
H45 H -0.1947 1.3545 -0.5669
H46 H -0.3101 1.3466 -0.5819
H47 H -0.2470 1.2859 -0.6012
O9 O -0.1375(8) 0.9062(6) 0.3352(10)
H48 H -0.1941 0.8873 0.3287
C30 C -0.1123(13) 0.9484(9) 0.4157(13)
H49 H -0.1594 0.9846 0.4069
H50 H -0.0464 0.9662 0.4241
H51 H -0.1140 0.9231 0.4709
loop_
_geom_bond_atom_site_label_1
_geom_bond_atom_site_label_2
_geom_bond_site_symmetry_1
_geom_bond_site_symmetry_2
Eu1 Cl1 1_555 1_555
Cl2 Eu1 1_555 1_555
N1 Eu1 1_555 1_555
C1 N1 1_555 1_555
H1 C1 1_555 1_555
C2 C1 1_555 1_555
H2 C2 1_555 1_555
C3 C2 1_555 1_555
H3 C3 1_555 1_555
C4 C3 1_555 1_555
H4 C4 1_555 1_555
C5 N1 1_555 1_555
C6 C5 1_555 1_555
O1 Eu1 1_555 1_555
N2 C6 1_555 1_555
H5 N2 1_555 1_555
C7 N2 1_555 1_555
H6 C7 1_555 1_555
H7 C7 1_555 1_555
C8 C7 1_555 1_555
H8 C8 1_555 1_555
H9 C8 1_555 1_555
N3 C9 1_555 1_555
C9 H10 1_555 1_555
C10 C9 1_555 1_555
H11 C10 1_555 1_555
C11 C10 1_555 1_555
H12 C11 1_555 1_555
C12 C11 1_555 1_555
H13 C12 1_555 1_555
C13 N3 1_555 1_555
C14 C13 1_555 1_555
O2 C14 1_555 1_555
N4 C14 1_555 1_555
H14 N4 1_555 1_555
C15 N4 1_555 1_555
H15 C15 1_555 1_555
H16 C15 1_555 1_555
C16 C8 1_555 1_555
H17 C16 1_555 1_555
H18 C16 1_555 1_555
N5 Eu1 1_555 1_555
C17 N5 1_555 1_555
H19 C17 1_555 1_555
C18 C17 1_555 1_555
H20 C18 1_555 1_555
C19 C18 1_555 1_555
H21 C19 1_555 1_555
C20 C19 1_555 1_555
H22 C20 1_555 1_555
C21 N5 1_555 1_555
C22 C21 1_555 1_555
O3 Eu1 1_555 1_555
N6 C22 1_555 1_555
H23 N6 1_555 1_555
C23 N6 1_555 1_555
H24 C23 1_555 1_555
H25 C23 1_555 1_555
C24 C23 1_555 1_555
H26 C24 1_555 1_555
H27 C24 1_555 1_555
O4 Eu1 1_555 1_555
H28 O4 1_555 1_555
C25 O4 1_555 1_555
H29 C25 1_555 1_555
H30 C25 1_555 1_555
H31 C25 1_555 1_555
O5 H32 1_555 1_555
C26 O5 1_555 1_555
H33 C26 1_555 1_555
H34 C26 1_555 1_555
H35 C26 1_555 1_555
O6 H36 1_555 1_555
C27 O6 1_555 1_555
H37 C27 1_555 1_555
H38 C27 1_555 1_555
H39 C27 1_555 1_555
O7 H40 1_555 1_555
C28 O7 1_555 1_555
H41 C28 1_555 1_555
H42 C28 1_555 1_555
H43 C28 1_555 1_555
O8 H44 1_555 1_555
C29 O8 1_555 1_555
H45 C29 1_555 1_555
H46 C29 1_555 1_555
H47 C29 1_555 1_555
O9 H48 1_555 1_555
C30 O9 1_555 1_555
H49 C30 1_555 1_555
H50 C30 1_555 1_555
H51 C30 1_555 1_555
Eu1C Cl1C 1_555 1_555
Eu1C_2 N3 1_555 1_555
Eu1B N5B 1_555 1_555
Cl2C Eu1C 1_555 1_555
N1C Eu1C 1_555 1_555
C1C N1C 1_555 1_555
H1C C1C 1_555 1_555
C2C C1C 1_555 1_555
H2C C2C 1_555 1_555
C3C C2C 1_555 1_555
H3C C3C 1_555 1_555
C4C C3C 1_555 1_555
H4C C4C 1_555 1_555
C5C N1C 1_555 1_555
C6C C5C 1_555 1_555
O1C Eu1C 1_555 1_555
N2C C6C 1_555 1_555
H5C N2C 1_555 1_555
C7C N2C 1_555 1_555
H6C C7C 1_555 1_555
H7C C7C 1_555 1_555
C8C C7C 1_555 1_555
H8C C8C 1_555 1_555
H9C C8C 1_555 1_555
N3C Eu1 1_555 1_555
N3_2 Eu1C 1_555 1_555
C9C N3C 1_555 1_555
H10C C9C 1_555 1_555
C10C C9C 1_555 1_555
H11C C10C 1_555 1_555
C11C C10C 1_555 1_555
H12C C11C 1_555 1_555
C12C C11C 1_555 1_555
H13C C12C 1_555 1_555
C13C N3C 1_555 1_555
C14C C13C 1_555 1_555
O2C Eu1 1_555 1_555
O2_2 Eu1C 1_555 1_555
N4C C14C 1_555 1_555
H14C N4C 1_555 1_555
C15C N4C 1_555 1_555
H15C C15C 1_555 1_555
H16C C15C 1_555 1_555
C16C C8C 1_555 1_555
H17C C16C 1_555 1_555
H18C C16C 1_555 1_555
N5B C17B 1_555 1_555
N5C Eu1C 1_555 1_555
C17B H19B 1_555 1_555
C18B C17B 1_555 1_555
H20B C18B 1_555 1_555
C19B C18B 1_555 1_555
H21B C19B 1_555 1_555
C20B C19B 1_555 1_555
H22B C20B 1_555 1_555
C21B N5B 1_555 1_555
C22B C21B 1_555 1_555
O3B Eu1B 1_555 1_555
O3C Eu1C 1_555 1_555
N6B C22B 1_555 1_555
H23B N6B 1_555 1_555
C23B N6B 1_555 1_555
H24B C23B 1_555 1_555
H25B C23B 1_555 1_555
C24B C24 1_555 1_555
H26B C24B 1_555 1_555
H27B C24B 1_555 1_555
O4C Eu1C 1_555 1_555
H28C O4C 1_555 1_555
C25C O4C 1_555 1_555
H29C C25C 1_555 1_555
H30C C25C 1_555 1_555
H31C C25C 1_555 1_555
C4 C5 1_555 1_555
C6 O1 1_555 1_555
C12 C13 1_555 1_555
O2 Eu1C_2 1_555 1_555
C15 C16 1_555 1_555
C20 C21 1_555 1_555
C22 O3 1_555 1_555
C4C C5C 1_555 1_555
C6C O1C 1_555 1_555
C12C C13C 1_555 1_555
C14C O2C 1_555 1_555
C15C C16C 1_555 1_555
C20B C21B 1_555 1_555
C22B O3B 1_555 1_555
C23B C24B 1_555 1_555

#END
