
#######################################################################
#
#                 Cambridge Crystallographic Data Centre
#                                CCDC 
#
#######################################################################
#
# If this CIF has been generated from an entry in the Cambridge 
# Structural Database, then it will include bibliographic, chemical, 
# crystal, experimental, refinement or atomic coordinate data resulting 
# from the CCDC's data processing and validation procedures.
#
#######################################################################

data_KOCWIJ
_symmetry_cell_setting           orthorhombic
_symmetry_space_group_name_H-M   'P 21 21 21'
_symmetry_Int_Tables_number      19
_space_group_name_Hall           'P 2ac 2ab'
loop_
_symmetry_equiv_pos_site_id
_symmetry_equiv_pos_as_xyz
1 x,y,z
2 1/2-x,-y,1/2+z
3 1/2+x,1/2-y,-z
4 -x,1/2+y,1/2-z
_cell_length_a                   5.5225(6)
_cell_length_b                   10.3642(11)
_cell_length_c                   29.725(3)
_cell_angle_alpha                90
_cell_angle_beta                 90
_cell_angle_gamma                90
_cell_volume                     1701.35
loop_
_atom_site_label
_atom_site_type_symbol
_atom_site_fract_x
_atom_site_fract_y
_atom_site_fract_z
Zn1 Zn 0.17423(8) 0.52068(4) 0.240861(14)
S1 S 0.67417(18) 0.32507(9) 0.22007(3)
S2 S 0.3265(2) 0.44685(12) 0.49000(3)
O1 O 0.5264(5) 0.4252(3) 0.24255(9)
O2 O 0.6315(4) 0.1998(2) 0.24294(9)
O3 O 0.6199(5) 0.3166(3) 0.17265(9)
O4 O 0.9358(5) 0.3596(3) 0.22615(9)
O5 O -0.1309(4) 0.6377(3) 0.24099(10)
N1 N 0.1627(6) 0.4706(3) 0.31018(9)
N2 N -0.1011(6) 0.3782(4) 0.46939(11)
N3 N -0.0916(6) 0.3748(4) 0.51575(11)
N4 N 0.2678(5) 0.4412(3) 0.67159(10)
C1 C 0.3392(8) 0.5071(4) 0.33791(12)
H2 H 0.4744 0.5475 0.3257
C2 C 0.3323(8) 0.4883(4) 0.38383(12)
H3 H 0.4611 0.5144 0.4018
C3 C 0.1324(7) 0.4305(4) 0.40270(12)
C4 C -0.0498(8) 0.3889(4) 0.37395(13)
H4 H -0.1841 0.3456 0.3853
C5 C -0.0300(8) 0.4120(4) 0.32883(13)
H5 H -0.1558 0.3859 0.3101
C6 C 0.1024(7) 0.4152(4) 0.45187(13)
C7 C 0.1209(7) 0.4073(4) 0.53135(13)
C8 C 0.1759(8) 0.4152(4) 0.57946(11)
C9 C 0.3911(7) 0.4670(5) 0.59510(13)
H6 H 0.5100 0.4929 0.5749
C10 C 0.4290(7) 0.4799(4) 0.64077(13)
H7 H 0.5728 0.5171 0.6506
C11 C 0.0630(7) 0.3857(4) 0.65618(12)
H8 H -0.0490 0.3554 0.6770
C12 C 0.0120(8) 0.3720(4) 0.61145(13)
H9 H -0.1324 0.3338 0.6025
H13 H -0.2848 0.6337 0.2405
H14 H -0.1040 0.6997 0.2589
Zn1C Zn 0.82577(8) 0.02068(4) 0.259139(14)
Zn1_2 Zn 1.17423(8) 0.52068(4) 0.240861(14)
Zn1A Zn 0.32577(8) 0.47932(4) 0.740861(14)
O2C O 0.3685(4) 0.6998(2) 0.25706(9)
O4_2 O -0.0642(5) 0.3596(3) 0.22615(9)
N4A N 0.2322(5) 0.5588(3) 0.17159(10)
O6 O 0.1768(12) 0.2061(5) 0.1411(2)
H15 H 0.0557 0.2639 0.1466
H16 H 0.3055 0.2401 0.1502
O7 O 0.324(5) 0.786(2) 0.4461(8)
H1 H 0.2344 0.7596 0.4662
C13 C 0.578(5) 0.745(3) 0.4559(11)
H10 H 0.6219 0.7728 0.4857
H11 H 0.6855 0.7842 0.4344
H12 H 0.5906 0.6531 0.4540
loop_
_geom_bond_atom_site_label_1
_geom_bond_atom_site_label_2
_geom_bond_site_symmetry_1
_geom_bond_site_symmetry_2
Zn1 O1 1_555 1_555
S1 O1 1_555 1_555
S2 C6 1_555 1_555
O2 S1 1_555 1_555
O3 S1 1_555 1_555
O4 S1 1_555 1_555
O5 Zn1 1_555 1_555
O6 H15 1_555 1_555
O7 H1 1_555 1_555
N1 Zn1 1_555 1_555
N2 N3 1_555 1_555
N3 C7 1_555 1_555
N4 C10 1_555 1_555
C1 N1 1_555 1_555
H2 C1 1_555 1_555
C2 C1 1_555 1_555
H3 C2 1_555 1_555
C3 C2 1_555 1_555
C4 C3 1_555 1_555
H4 C4 1_555 1_555
C5 N1 1_555 1_555
H5 C5 1_555 1_555
C6 N2 1_555 1_555
C7 S2 1_555 1_555
C8 C7 1_555 1_555
C9 C8 1_555 1_555
H6 C9 1_555 1_555
C10 C9 1_555 1_555
H7 C10 1_555 1_555
C11 N4 1_555 1_555
H8 C11 1_555 1_555
C12 C8 1_555 1_555
H9 C12 1_555 1_555
C13 O7 1_555 1_555
H10 C13 1_555 1_555
H11 C13 1_555 1_555
H12 C13 1_555 1_555
H13 O5 1_555 1_555
H14 O5 1_555 1_555
H16 O6 1_555 1_555
Zn1C O2 1_555 1_555
Zn1_2 O4 1_555 1_555
Zn1A N4 1_555 1_555
O2C Zn1 1_555 1_555
O4_2 Zn1 1_555 1_555
N4A Zn1 1_555 1_555
C3 C6 1_555 1_555
C4 C5 1_555 1_555
C11 C12 1_555 1_555

#END
