
#######################################################################
#
#                 Cambridge Crystallographic Data Centre
#                                CCDC 
#
#######################################################################
#
# If this CIF has been generated from an entry in the Cambridge 
# Structural Database, then it will include bibliographic, chemical, 
# crystal, experimental, refinement or atomic coordinate data resulting 
# from the CCDC's data processing and validation procedures.
#
#######################################################################

data_KODDIQ
_symmetry_cell_setting           monoclinic
_symmetry_space_group_name_H-M   'P 21/c'
_symmetry_Int_Tables_number      14
_space_group_name_Hall           '-P 2ybc'
loop_
_symmetry_equiv_pos_site_id
_symmetry_equiv_pos_as_xyz
1 x,y,z
2 x,1/2-y,1/2+z
3 -x,-y,-z
4 -x,1/2+y,1/2-z
_cell_length_a                   15.496(3)
_cell_length_b                   15.374(3)
_cell_length_c                   11.245(2)
_cell_angle_alpha                90
_cell_angle_beta                 91.02(3)
_cell_angle_gamma                90
_cell_volume                     2678.53
loop_
_atom_site_label
_atom_site_type_symbol
_atom_site_fract_x
_atom_site_fract_y
_atom_site_fract_z
Ti1 Ti 0.59373(5) 0.52050(5) 0.07050(7)
K1 K 0.5000 0.5000 0.5000
C1 C 0.6565(3) 0.6320(3) 0.0879(5)
O1 O 0.6984(2) 0.6951(2) 0.1013(4)
C2 C 0.7131(3) 0.5190(3) 0.0033(4)
O2 O 0.7848(2) 0.5225(2) -0.0287(3)
C3 C 0.6677(3) 0.4357(3) 0.1580(4)
O3 O 0.7137(2) 0.3883(2) 0.2097(3)
C4 C 0.6079(3) 0.5531(3) 0.2422(5)
O4 O 0.6203(2) 0.5714(3) 0.3422(3)
O5 O 0.4627(2) 0.5105(2) 0.0899(2)
H1 H 0.4356(2) 0.5182(2) 0.1552(2)
C5 C 0.4187(3) 0.7193(3) 0.4796(5)
H2 H 0.3727(3) 0.7639(3) 0.4743(5)
H3 H 0.4629(3) 0.7333(3) 0.4200(5)
O6 O 0.3832(2) 0.6353(2) 0.4562(3)
C6 C 0.3359(3) 0.6309(3) 0.3478(4)
H4 H 0.3736(3) 0.6464(3) 0.2808(4)
H5 H 0.2872(3) 0.6725(3) 0.3489(4)
C7 C 0.3028(3) 0.5409(3) 0.3322(4)
H6 H 0.2706(3) 0.5230(3) 0.4034(4)
H7 H 0.2630(3) 0.5382(3) 0.2624(4)
O7 O 0.3741(2) 0.4837(2) 0.3150(2)
C8 C 0.3478(3) 0.3958(3) 0.2974(4)
H8 H 0.3112(3) 0.3913(3) 0.2246(4)
H9 H 0.3135(3) 0.3760(3) 0.3657(4)
C9 C 0.4256(3) 0.3400(3) 0.2856(4)
H10 H 0.4083(3) 0.2802(3) 0.2626(4)
H11 H 0.4633(3) 0.3636(3) 0.2231(4)
O8 O 0.4708(2) 0.3387(2) 0.3970(3)
C10 C 0.4585(3) 0.7195(3) 0.6011(5)
H12 H 0.4155(3) 0.7012(3) 0.6601(5)
H13 H 0.4785(3) 0.7789(3) 0.6219(5)
O4B O 0.3797(2) 0.4286(3) 0.6578(3)
C4B C 0.3921(3) 0.4469(3) 0.7578(5)
Ti1B Ti 0.40627(5) 0.47950(5) 0.92950(7)
C1B C 0.3435(3) 0.3680(3) 0.9121(5)
O1B O 0.3016(2) 0.3049(2) 0.8987(4)
C2B C 0.2869(3) 0.4810(3) 0.9967(4)
O2B O 0.2152(2) 0.4775(2) 1.0287(3)
C3B C 0.3323(3) 0.5643(3) 0.8420(4)
O3B O 0.2863(2) 0.6117(2) 0.7903(3)
O5B O 0.5373(2) 0.4895(2) 0.9101(2)
Ti1_2 Ti 0.59373(5) 0.52050(5) 1.07050(7)
O5_2 O 0.4627(2) 0.5105(2) 1.0899(2)
H1_2 H 0.4356(2) 0.5182(2) 1.1552(2)
H1B H 0.5644(2) 0.4818(2) 0.8448(2)
O8B O 0.5292(2) 0.6613(2) 0.6030(3)
O6B O 0.6168(2) 0.3647(2) 0.5438(3)
C5B C 0.5813(3) 0.2807(3) 0.5204(5)
H2B H 0.6273(3) 0.2361(3) 0.5257(5)
H3B H 0.5371(3) 0.2667(3) 0.5800(5)
C10B C 0.5415(3) 0.2805(3) 0.3989(5)
O7B O 0.6259(2) 0.5163(2) 0.6850(2)
C7B C 0.6972(3) 0.4591(3) 0.6678(4)
C6B C 0.6641(3) 0.3691(3) 0.6522(4)
H4B H 0.6264(3) 0.3536(3) 0.7192(4)
H5B H 0.7128(3) 0.3275(3) 0.6511(4)
H6B H 0.7294(3) 0.4770(3) 0.5966(4)
H7B H 0.7370(3) 0.4618(3) 0.7376(4)
C8B C 0.6522(3) 0.6042(3) 0.7026(4)
H8B H 0.6888(3) 0.6087(3) 0.7754(4)
H9B H 0.6865(3) 0.6240(3) 0.6343(4)
C9B C 0.5744(3) 0.6600(3) 0.7144(4)
H10B H 0.5917(3) 0.7198(3) 0.7374(4)
H11B H 0.5367(3) 0.6364(3) 0.7769(4)
H12B H 0.5845(3) 0.2988(3) 0.3399(5)
H13B H 0.5215(3) 0.2211(3) 0.3781(5)
O5B_2 O 0.5373(2) 0.4895(2) -0.0899(2)
Ti1B_2 Ti 0.40627(5) 0.47950(5) -0.07050(7)
H1B_2 H 0.5644(2) 0.4818(2) -0.1552(2)
K2 K 1.0000 0.5000 0.5000
N1 N 1.1098(3) 0.6436(2) 0.4701(4)
C11 C 1.0927(3) 0.7118(3) 0.4005(4)
H14 H 1.0577(3) 0.7027(3) 0.3313(4)
C12 C 1.1223(3) 0.7934(3) 0.4223(5)
H15 H 1.1092(3) 0.8400(3) 0.3694(5)
C13 C 1.1716(4) 0.8067(3) 0.5227(6)
H16 H 1.1922(4) 0.8634(3) 0.5415(6)
C14 C 1.1910(3) 0.7385(3) 0.5955(5)
H17 H 1.2257(3) 0.7462(3) 0.6651(5)
C15 C 1.1592(3) 0.6595(3) 0.5653(5)
H18 H 1.1732(3) 0.6119(3) 0.6159(5)
O9 O 0.9029(2) 0.6031(2) 0.3384(3)
C16 C 0.8813(5) 0.5627(4) 0.2285(6)
H19 H 0.8566(5) 0.6059(4) 0.1722(6)
H20 H 0.8380(5) 0.5163(4) 0.2407(6)
C17 C 0.9616(5) 0.5251(5) 0.1802(5)
H21 H 0.9506(5) 0.5031(5) 0.0986(5)
H22 H 1.0070(5) 0.5703(5) 0.1768(5)
O10 O 0.9891(2) 0.4558(2) 0.2558(3)
C18 C 1.0664(5) 0.4172(6) 0.2188(6)
H23 H 1.1129(5) 0.4613(6) 0.2183(6)
H24 H 1.0587(5) 0.3946(6) 0.1368(6)
C19 C 1.0907(4) 0.3466(5) 0.2979(8)
H25 H 1.0416(4) 0.3061(5) 0.3065(8)
H26 H 1.1396(4) 0.3138(5) 0.2642(8)
O11 O 1.1152(2) 0.3810(2) 0.4116(4)
C20 C 1.1416(4) 0.3167(4) 0.4934(9)
H27 H 1.1889(4) 0.2818(4) 0.4596(9)
H28 H 1.0927(4) 0.2773(4) 0.5099(9)
C21 C 0.8286(3) 0.6415(5) 0.3957(7)
H29 H 0.8010(3) 0.6851(5) 0.3425(7)
H30 H 0.7856(3) 0.5959(5) 0.4133(7)
N1B N 0.8902(3) 0.3564(2) 0.5299(4)
C11B C 0.9073(3) 0.2882(3) 0.5995(4)
H14B H 0.9423(3) 0.2973(3) 0.6687(4)
C12B C 0.8777(3) 0.2066(3) 0.5777(5)
H15B H 0.8908(3) 0.1600(3) 0.6306(5)
C13B C 0.8284(4) 0.1933(3) 0.4773(6)
H16B H 0.8078(4) 0.1366(3) 0.4585(6)
C14B C 0.8090(3) 0.2615(3) 0.4045(5)
H17B H 0.7743(3) 0.2538(3) 0.3349(5)
C15B C 0.8408(3) 0.3405(3) 0.4347(5)
H18B H 0.8268(3) 0.3881(3) 0.3841(5)
O9B O 1.0971(2) 0.3969(2) 0.6616(3)
C16B C 1.1187(5) 0.4373(4) 0.7715(6)
H19B H 1.1434(5) 0.3941(4) 0.8278(6)
H20B H 1.1620(5) 0.4837(4) 0.7593(6)
C17B C 1.0384(5) 0.4749(5) 0.8198(5)
H21B H 1.0494(5) 0.4969(5) 0.9014(5)
H22B H 0.9930(5) 0.4297(5) 0.8232(5)
O10B O 1.0109(2) 0.5442(2) 0.7442(3)
C21B C 1.1714(3) 0.3585(5) 0.6043(7)
H29B H 1.1990(3) 0.3149(5) 0.6575(7)
H30B H 1.2144(3) 0.4041(5) 0.5867(7)
O11B O 0.8848(2) 0.6190(2) 0.5884(4)
C19B C 0.9093(4) 0.6534(5) 0.7021(8)
C18B C 0.9336(5) 0.5828(6) 0.7812(6)
H23B H 0.8871(5) 0.5387(6) 0.7817(6)
H24B H 0.9413(5) 0.6054(6) 0.8632(6)
H25B H 0.9584(4) 0.6939(5) 0.6935(8)
H26B H 0.8604(4) 0.6862(5) 0.7358(8)
C20B C 0.8584(4) 0.6833(4) 0.5066(9)
H27B H 0.8111(4) 0.7182(4) 0.5404(9)
H28B H 0.9073(4) 0.7227(4) 0.4901(9)
loop_
_geom_bond_atom_site_label_1
_geom_bond_atom_site_label_2
_geom_bond_site_symmetry_1
_geom_bond_site_symmetry_2
Ti1 C1 1_555 1_555
K1 O4 1_555 1_555
K2 N1 1_555 1_555
C1 O1 1_555 1_555
C2 Ti1 1_555 1_555
O2 C2 1_555 1_555
C3 Ti1 1_555 1_555
O3 C3 1_555 1_555
C4 Ti1 1_555 1_555
O4 C4 1_555 1_555
O5 Ti1 1_555 1_555
H1 O5 1_555 1_555
C5 H2 1_555 1_555
H3 C5 1_555 1_555
O6 K1 1_555 1_555
C6 O6 1_555 1_555
H4 C6 1_555 1_555
H5 C6 1_555 1_555
C7 C6 1_555 1_555
H6 C7 1_555 1_555
H7 C7 1_555 1_555
O7 K1 1_555 1_555
C8 O7 1_555 1_555
H8 C8 1_555 1_555
H9 C8 1_555 1_555
C9 C8 1_555 1_555
H10 C9 1_555 1_555
H11 C9 1_555 1_555
O8 K1 1_555 1_555
C10 C5 1_555 1_555
H12 C10 1_555 1_555
H13 C10 1_555 1_555
N1 C11 1_555 1_555
C11 H14 1_555 1_555
C12 C11 1_555 1_555
H15 C12 1_555 1_555
C13 C12 1_555 1_555
H16 C13 1_555 1_555
C14 C13 1_555 1_555
H17 C14 1_555 1_555
C15 N1 1_555 1_555
H18 C15 1_555 1_555
O9 K2 1_555 1_555
C16 O9 1_555 1_555
H19 C16 1_555 1_555
H20 C16 1_555 1_555
C17 C16 1_555 1_555
H21 C17 1_555 1_555
H22 C17 1_555 1_555
O10 K2 1_555 1_555
C18 O10 1_555 1_555
H23 C18 1_555 1_555
H24 C18 1_555 1_555
C19 C18 1_555 1_555
H25 C19 1_555 1_555
H26 C19 1_555 1_555
O11 K2 1_555 1_555
C20 O11 1_555 1_555
H27 C20 1_555 1_555
H28 C20 1_555 1_555
C21 O9 1_555 1_555
H29 C21 1_555 1_555
H30 C21 1_555 1_555
O4B K1 1_555 1_555
C4B O4B 1_555 1_555
Ti1B C4B 1_555 1_555
C1B Ti1B 1_555 1_555
O1B C1B 1_555 1_555
C2B Ti1B 1_555 1_555
O2B C2B 1_555 1_555
C3B Ti1B 1_555 1_555
O3B C3B 1_555 1_555
O5B Ti1B 1_555 1_555
Ti1_2 O5B 1_555 1_555
O5_2 Ti1B 1_555 1_555
H1_2 O5_2 1_555 1_555
H1B O5B 1_555 1_555
O8B K1 1_555 1_555
O6B K1 1_555 1_555
C5B O6B 1_555 1_555
H2B C5B 1_555 1_555
H3B C5B 1_555 1_555
C10B O8 1_555 1_555
O7B K1 1_555 1_555
C7B O7B 1_555 1_555
C6B O6B 1_555 1_555
H4B C6B 1_555 1_555
H5B C6B 1_555 1_555
H6B C7B 1_555 1_555
H7B C7B 1_555 1_555
C8B O7B 1_555 1_555
H8B C8B 1_555 1_555
H9B C8B 1_555 1_555
C9B O8B 1_555 1_555
H10B C9B 1_555 1_555
H11B C9B 1_555 1_555
H12B C10B 1_555 1_555
H13B C10B 1_555 1_555
O5B_2 Ti1 1_555 1_555
N1B K2 1_555 1_555
C11B N1B 1_555 1_555
H14B C11B 1_555 1_555
C12B C11B 1_555 1_555
H15B C12B 1_555 1_555
C13B C12B 1_555 1_555
H16B C13B 1_555 1_555
C14B C13B 1_555 1_555
H17B C14B 1_555 1_555
C15B N1B 1_555 1_555
H18B C15B 1_555 1_555
O9B K2 1_555 1_555
C16B O9B 1_555 1_555
H19B C16B 1_555 1_555
H20B C16B 1_555 1_555
C17B C16B 1_555 1_555
H21B C17B 1_555 1_555
H22B C17B 1_555 1_555
O10B K2 1_555 1_555
C21B C20 1_555 1_555
H29B C21B 1_555 1_555
H30B C21B 1_555 1_555
O11B K2 1_555 1_555
C19B O11B 1_555 1_555
C18B O10B 1_555 1_555
H23B C18B 1_555 1_555
H24B C18B 1_555 1_555
H25B C19B 1_555 1_555
H26B C19B 1_555 1_555
C20B C21 1_555 1_555
H27B C20B 1_555 1_555
H28B C20B 1_555 1_555
Ti1B_2 O5 1_555 1_555
H1B_2 O5B_2 1_555 1_555
C5 O6 1_555 1_555
C7 O7 1_555 1_555
C9 O8 1_555 1_555
C10 O8B 1_555 1_555
C14 C15 1_555 1_555
C17 O10 1_555 1_555
C19 O11 1_555 1_555
Ti1_2 O5_2 1_555 1_555
C5B C10B 1_555 1_555
C7B C6B 1_555 1_555
C8B C9B 1_555 1_555
O5B_2 Ti1B_2 1_555 1_555
C14B C15B 1_555 1_555
O9B C21B 1_555 1_555
C17B O10B 1_555 1_555
O11B C20B 1_555 1_555
C19B C18B 1_555 1_555

#END
