
#######################################################################
#
#                 Cambridge Crystallographic Data Centre
#                                CCDC 
#
#######################################################################
#
# If this CIF has been generated from an entry in the Cambridge 
# Structural Database, then it will include bibliographic, chemical, 
# crystal, experimental, refinement or atomic coordinate data resulting 
# from the CCDC's data processing and validation procedures.
#
#######################################################################

data_KODLIA
_symmetry_cell_setting           orthorhombic
_symmetry_space_group_name_H-M   'P b c a'
_symmetry_Int_Tables_number      61
_space_group_name_Hall           '-P 2ac 2ab'
loop_
_symmetry_equiv_pos_site_id
_symmetry_equiv_pos_as_xyz
1 x,y,z
2 1/2-x,-y,1/2+z
3 -x,1/2+y,1/2-z
4 1/2+x,1/2-y,-z
5 -x,-y,-z
6 1/2+x,y,1/2-z
7 x,1/2-y,1/2+z
8 1/2-x,1/2+y,z
_cell_length_a                   18.4099(17)
_cell_length_b                   15.6527(14)
_cell_length_c                   22.408(2)
_cell_angle_alpha                90
_cell_angle_beta                 90
_cell_angle_gamma                90
_cell_volume                     6457.19
loop_
_atom_site_label
_atom_site_type_symbol
_atom_site_fract_x
_atom_site_fract_y
_atom_site_fract_z
Cu1 Cu 0.79600(2) 0.41340(3) 0.578994(19)
Cu2 Cu 0.80826(2) 0.58751(3) 0.663163(19)
O1 O 0.75189(15) 0.49750(18) 0.62853(13)
H1 H 0.7046(7) 0.504(3) 0.631(2)
N1 N 0.70619(16) 0.33532(18) 0.58011(12)
C1 C 0.6430(2) 0.3531(3) 0.55323(19)
H2 H 0.6378 0.4044 0.5328
C2 C 0.5859(2) 0.2973(3) 0.5552(2)
H3 H 0.5422 0.3099 0.5362
C3 C 0.5948(2) 0.2224(3) 0.58590(18)
H4 H 0.5568 0.1833 0.5872
N2 N 0.65682(16) 0.20409(18) 0.61392(13)
C4 C 0.70933(18) 0.2617(2) 0.61000(14)
C5 C 0.77793(18) 0.2416(2) 0.64098(14)
N3 N 0.83100(16) 0.29807(17) 0.63642(13)
C6 C 0.8931(2) 0.2794(2) 0.66433(16)
H5 H 0.9317 0.3176 0.6624
C7 C 0.9010(2) 0.2050(3) 0.69583(19)
H6 H 0.9444 0.1924 0.7152
C8 C 0.8434(2) 0.1495(3) 0.69796(18)
H7 H 0.8482 0.0984 0.7187
N4 N 0.78028(16) 0.16757(18) 0.67081(12)
N5 N 0.89016(16) 0.46849(18) 0.59176(13)
C9 C 0.9575(2) 0.4434(2) 0.57677(16)
C10 C 0.9729(2) 0.3797(3) 0.5289(2)
H8 H 0.9467 0.3279 0.5370
H9 H 1.0240 0.3678 0.5279
H10 H 0.9578 0.4023 0.4911
C11 C 1.0067(2) 0.4850(2) 0.61295(17)
H11 H 1.0569 0.4794 0.6123
C12 C 0.9667(2) 0.5363(2) 0.65005(17)
C13 C 0.9939(2) 0.5948(3) 0.6982(2)
H12 H 0.9654 0.6461 0.6985
H13 H 1.0439 0.6088 0.6907
H14 H 0.9899 0.5668 0.7362
N6 N 0.89573(16) 0.52655(18) 0.63757(13)
N7 N 0.80557(18) 0.3946(2) 0.48967(14)
C14 C 0.8057(2) 0.4516(3) 0.44569(18)
C15 C 0.8020(3) 0.5445(3) 0.4585(2)
H15 H 0.7544 0.5587 0.4729
H16 H 0.8118 0.5760 0.4226
H17 H 0.8375 0.5589 0.4882
C16 C 0.8114(3) 0.4095(4) 0.3911(2)
H18 H 0.8131 0.4347 0.3535
C17 C 0.8139(3) 0.3251(4) 0.4032(2)
C18 C 0.8214(4) 0.2473(4) 0.3640(2)
H19 H 0.8227 0.2647 0.3229
H20 H 0.7808 0.2100 0.3704
H21 H 0.8656 0.2178 0.3738
N8 N 0.8099(2) 0.3176(2) 0.46258(15)
H22 H 0.8100 0.2695 0.4813
N9 N 0.83240(19) 0.5933(2) 0.75363(14)
C19 C 0.8509(3) 0.5291(3) 0.78985(19)
C20 C 0.8422(4) 0.4387(3) 0.7698(3)
H23 H 0.8194 0.4376 0.7313
H24 H 0.8125 0.4083 0.7980
H25 H 0.8890 0.4119 0.7674
C21 C 0.8771(3) 0.5615(4) 0.8432(2)
H26 H 0.8936 0.5300 0.8757
C22 C 0.8741(3) 0.6482(4) 0.83922(19)
C23 C 0.8928(4) 0.7172(5) 0.8821(3)
H27 H 0.8944 0.7710 0.8615
H28 H 0.9394 0.7056 0.8995
H29 H 0.8567 0.7196 0.9130
N10 N 0.8467(2) 0.6653(2) 0.78502(14)
H30 H 0.8390 0.7161 0.7718
Cu2G Cu 0.69174(2) 0.08751(3) 0.663163(19)
N2G N 0.84318(16) 0.70409(18) 0.61392(13)
N4G N 0.71972(16) 0.66757(18) 0.67081(12)
Cl1 Cl 0.61643(10) 0.38678(9) 0.74004(7)
O2 O 0.6727(2) 0.3265(2) 0.72803(19)
O3 O 0.5548(3) 0.3464(5) 0.7640(3)
O4 O 0.6404(4) 0.4532(4) 0.7777(3)
O5 O 0.5999(5) 0.4288(5) 0.6834(3)
Cl2 Cl 0.60975(8) 0.61561(9) 0.52247(7)
O9 O 0.6755(2) 0.6646(2) 0.53117(17)
O10 O 0.6154(6) 0.5526(5) 0.4785(4)
O11 O 0.5473(5) 0.6651(7) 0.5294(5)
O12 O 0.6042(4) 0.5569(5) 0.5770(3)
O6? O 0.5527(10) 0.3377(17) 0.7360(13)
O7? O 0.6366(14) 0.4066(15) 0.8009(7)
O8? O 0.6169(18) 0.4613(13) 0.7039(12)
O13? O 0.6308(11) 0.5352(7) 0.5102(7)
O14? O 0.5531(8) 0.6377(12) 0.5592(7)
O15? O 0.5855(5) 0.6503(9) 0.4624(5)
loop_
_geom_bond_atom_site_label_1
_geom_bond_atom_site_label_2
_geom_bond_site_symmetry_1
_geom_bond_site_symmetry_2
Cu1 O1 1_555 1_555
Cu2 O1 1_555 1_555
O1 H1 1_555 1_555
N1 Cu1 1_555 1_555
C1 N1 1_555 1_555
H2 C1 1_555 1_555
C2 C1 1_555 1_555
H3 C2 1_555 1_555
C3 C2 1_555 1_555
H4 C3 1_555 1_555
N2 C3 1_555 1_555
C4 N1 1_555 1_555
C5 C4 1_555 1_555
N3 Cu1 1_555 1_555
C6 N3 1_555 1_555
H5 C6 1_555 1_555
C7 C6 1_555 1_555
H6 C7 1_555 1_555
C8 C7 1_555 1_555
H7 C8 1_555 1_555
N4 C5 1_555 1_555
N5 Cu1 1_555 1_555
C9 N5 1_555 1_555
C10 C9 1_555 1_555
H8 C10 1_555 1_555
H9 C10 1_555 1_555
H10 C10 1_555 1_555
C11 C9 1_555 1_555
H11 C11 1_555 1_555
C12 C11 1_555 1_555
C13 C12 1_555 1_555
H12 C13 1_555 1_555
H13 C13 1_555 1_555
H14 C13 1_555 1_555
N6 Cu2 1_555 1_555
N7 Cu1 1_555 1_555
C14 N7 1_555 1_555
C15 C14 1_555 1_555
H15 C15 1_555 1_555
H16 C15 1_555 1_555
H17 C15 1_555 1_555
C16 C14 1_555 1_555
H18 C16 1_555 1_555
C17 C16 1_555 1_555
C18 C17 1_555 1_555
H19 C18 1_555 1_555
H20 C18 1_555 1_555
H21 C18 1_555 1_555
N8 N7 1_555 1_555
H22 N8 1_555 1_555
N9 Cu2 1_555 1_555
C19 N9 1_555 1_555
C20 C19 1_555 1_555
H23 C20 1_555 1_555
H24 C20 1_555 1_555
H25 C20 1_555 1_555
C21 C19 1_555 1_555
H26 C21 1_555 1_555
C22 C21 1_555 1_555
C23 C22 1_555 1_555
H27 C23 1_555 1_555
H28 C23 1_555 1_555
H29 C23 1_555 1_555
N10 N9 1_555 1_555
H30 N10 1_555 1_555
Cl1 O2 1_555 1_555
O3 Cl1 1_555 1_555
O4 Cl1 1_555 1_555
O5 Cl1 1_555 1_555
Cl2 O9 1_555 1_555
O10 Cl2 1_555 1_555
O11 Cl2 1_555 1_555
O12 Cl2 1_555 1_555
Cu2G N2 1_555 1_555
N2G Cu2 1_555 1_555
N4G Cu2 1_555 1_555
N2 C4 1_555 1_555
C5 N3 1_555 1_555
C8 N4 1_555 1_555
N4 Cu2G 1_555 1_555
N5 N6 1_555 1_555
C12 N6 1_555 1_555
C17 N8 1_555 1_555
C22 N10 1_555 1_555

#END
