
#######################################################################
#
#                 Cambridge Crystallographic Data Centre
#                                CCDC 
#
#######################################################################
#
# If this CIF has been generated from an entry in the Cambridge 
# Structural Database, then it will include bibliographic, chemical, 
# crystal, experimental, refinement or atomic coordinate data resulting 
# from the CCDC's data processing and validation procedures.
#
#######################################################################

data_KODPEZ
_symmetry_cell_setting           monoclinic
_symmetry_space_group_name_H-M   'C 2/c'
_symmetry_Int_Tables_number      15
_space_group_name_Hall           '-C 2yn'
loop_
_symmetry_equiv_pos_site_id
_symmetry_equiv_pos_as_xyz
1 x,y,z
2 -x,y,1/2-z
3 1/2+x,1/2+y,z
4 1/2-x,1/2+y,1/2-z
5 -x,-y,-z
6 x,-y,1/2+z
7 1/2-x,1/2-y,-z
8 1/2+x,1/2-y,1/2+z
_cell_length_a                   16.830(5)
_cell_length_b                   13.804(3)
_cell_length_c                   17.462(3)
_cell_angle_alpha                90
_cell_angle_beta                 108.78(2)
_cell_angle_gamma                90
_cell_volume                     3840.82
loop_
_atom_site_label
_atom_site_type_symbol
_atom_site_fract_x
_atom_site_fract_y
_atom_site_fract_z
Zn1 Zn 0.0708(1) 0.0943(1) 0.1741(1)
Fe1 Fe -0.2765(1) 0.0000(1) 0.0100(1)
O1 O -0.0509(1) 0.1084(2) 0.1041(1)
O2 O -0.1031(2) 0.0786(2) 0.2037(1)
O3 O -0.1176(2) -0.1049(2) -0.0805(1)
O4 O -0.2333(2) -0.0928(2) -0.1859(2)
N1 N 0.0680(2) -0.0605(2) 0.1689(2)
N2 N 0.0867(2) 0.2500(2) 0.1943(2)
C1 C -0.1974(2) 0.1062(2) 0.0745(2)
C2 C -0.2213(2) 0.1253(2) -0.0101(2)
C3 C -0.3094(2) 0.1343(3) -0.0393(2)
C4 C -0.3408(2) 0.1197(3) 0.0261(2)
C5 C -0.2720(2) 0.1025(3) 0.0963(2)
C6 C -0.2475(2) -0.1099(2) -0.0556(2)
C7 C -0.3359(2) -0.0985(3) -0.0772(2)
C8 C -0.3586(2) -0.1134(3) -0.0068(3)
C9 C -0.2848(3) -0.1338(3) 0.0585(2)
C10 C -0.2159(2) -0.1311(2) 0.0285(2)
C11 C -0.1107(2) 0.0965(2) 0.1316(2)
C12 C -0.1966(2) -0.1018(2) -0.1121(2)
C13 C 0.0253(2) -0.1036(3) 0.0989(2)
C14 C 0.0190(3) -0.2013(3) 0.0893(3)
C15 C 0.0590(3) -0.2593(3) 0.1533(3)
C16 C 0.1044(3) -0.2179(3) 0.2255(3)
C17 C 0.1066(3) -0.1185(3) 0.2310(2)
C18 C 0.0285(2) 0.3121(3) 0.1515(2)
C19 C 0.0374(3) 0.4112(3) 0.1586(3)
C20 C 0.1105(3) 0.4487(3) 0.2116(2)
C21 C 0.1711(2) 0.3862(3) 0.2553(2)
C22 C 0.1570(2) 0.2874(3) 0.2453(2)
Zn1A Zn -0.0708(1) 0.0943(1) 0.3259(1)
Zn1D Zn -0.0708(1) -0.0943(1) -0.1741(1)
O2A O 0.1031(2) 0.0786(2) 0.2963(1)
O3D O 0.1176(2) 0.1049(2) 0.0805(1)
loop_
_geom_bond_atom_site_label_1
_geom_bond_atom_site_label_2
_geom_bond_site_symmetry_1
_geom_bond_site_symmetry_2
Zn1 O1 1_555 1_555
Fe1 C1 1_555 1_555
O1 C11 1_555 1_555
O2 C11 1_555 1_555
O3 C12 1_555 1_555
O4 C12 1_555 1_555
N1 Zn1 1_555 1_555
N2 Zn1 1_555 1_555
C1 C2 1_555 1_555
C2 Fe1 1_555 1_555
C3 Fe1 1_555 1_555
C4 Fe1 1_555 1_555
C5 Fe1 1_555 1_555
C6 Fe1 1_555 1_555
C7 Fe1 1_555 1_555
C8 Fe1 1_555 1_555
C9 Fe1 1_555 1_555
C10 Fe1 1_555 1_555
C11 C1 1_555 1_555
C12 C6 1_555 1_555
C13 N1 1_555 1_555
C14 C13 1_555 1_555
C15 C14 1_555 1_555
C16 C15 1_555 1_555
C17 N1 1_555 1_555
C18 N2 1_555 1_555
C19 C18 1_555 1_555
C20 C19 1_555 1_555
C21 C20 1_555 1_555
C22 N2 1_555 1_555
Zn1A O2 1_555 1_555
Zn1D O3 1_555 1_555
O2A Zn1 1_555 1_555
O3D Zn1 1_555 1_555
C1 C5 1_555 1_555
C2 C3 1_555 1_555
C3 C4 1_555 1_555
C4 C5 1_555 1_555
C6 C7 1_555 1_555
C6 C10 1_555 1_555
C7 C8 1_555 1_555
C8 C9 1_555 1_555
C9 C10 1_555 1_555
C16 C17 1_555 1_555
C21 C22 1_555 1_555

#END
