
#######################################################################
#
#                 Cambridge Crystallographic Data Centre
#                                CCDC 
#
#######################################################################
#
# If this CIF has been generated from an entry in the Cambridge 
# Structural Database, then it will include bibliographic, chemical, 
# crystal, experimental, refinement or atomic coordinate data resulting 
# from the CCDC's data processing and validation procedures.
#
#######################################################################

data_KOFLUO
_symmetry_cell_setting           triclinic
_symmetry_space_group_name_H-M   'P -1'
_symmetry_Int_Tables_number      2
_space_group_name_Hall           '-P 1'
loop_
_symmetry_equiv_pos_site_id
_symmetry_equiv_pos_as_xyz
1 x,y,z
2 -x,-y,-z
_cell_length_a                   12.238(5)
_cell_length_b                   13.336(5)
_cell_length_c                   15.963(5)
_cell_angle_alpha                74.709(5)
_cell_angle_beta                 83.524(5)
_cell_angle_gamma                86.990(5)
_cell_volume                     2496.29
loop_
_atom_site_label
_atom_site_type_symbol
_atom_site_fract_x
_atom_site_fract_y
_atom_site_fract_z
C1 C 0.8693(3) 0.7581(2) 0.30650(19)
C2 C 0.1655(2) -0.0700(2) 1.2559(2)
C3 C 0.3941(3) 0.1226(2) 1.1861(2)
C4 C 0.2443(2) 0.0080(2) 1.2005(2)
C5 C 0.7611(2) 0.6228(2) 0.2726(2)
H1 H 0.8235 0.5795 0.2775
C6 C 0.9489(3) 0.7059(2) 0.5400(2)
C7 C 0.8713(3) 0.6715(3) 0.6949(2)
C8 C 0.7697(3) 0.5490(3) 0.8464(2)
C9 C 0.6640(2) 0.5884(2) 0.25285(19)
C10 C 0.7645(2) 0.7227(2) 0.28489(19)
C11 C 0.5717(3) 0.6540(3) 0.2457(2)
H2 H 0.5070 0.6308 0.2326
C12 C 0.7415(3) 0.4579(3) 1.0063(2)
C13 C 0.6611(3) 0.4834(2) 0.2364(2)
C14 C 1.4129(3) 0.5460(3) 0.4563(2)
C15 C 0.5734(3) 0.7529(3) 0.2577(2)
C16 C 0.9304(3) 0.5924(3) 0.7453(2)
H3 H 1.0044 0.5816 0.7286
C17 C 0.4773(3) 0.1703(3) 1.2268(2)
C18 C 0.3945(3) 0.1471(3) 1.0965(2)
H4 H 0.4460 0.1932 1.0617
C19 C 0.9583(3) 0.0647(3) 1.0497(2)
C20 C 0.6711(3) 0.7862(2) 0.2772(2)
H5 H 0.6736 0.8526 0.2852
C21 C 0.8796(3) 0.5291(3) 0.8210(2)
H6 H 0.9183 0.4739 0.8545
C22 C 1.2948(3) 0.5716(3) 0.3348(2)
H7 H 1.3302 0.5248 0.3062
C23 C 1.2066(3) 0.6330(3) 0.3118(2)
H8 H 1.1706 0.6359 0.2629
C24 C 0.3195(4) 0.1043(3) 1.0569(2)
C25 C 1.4232(3) 0.4389(3) 0.4814(3)
H9 H 1.3712 0.3981 0.4689
C26 C 0.2460(3) 0.0333(3) 1.1102(2)
H10 H 0.1969 0.0020 1.0850
C27 C 1.5106(3) 0.3933(3) 0.5249(3)
H11 H 1.5184 0.3212 0.5417
C28 C 0.8112(3) 0.1691(3) 1.1096(3)
C29 C 0.9600(4) -0.0388(3) 1.0858(3)
H12 H 0.9331 -0.0655 1.1439
C30 C 0.7103(4) 0.6264(3) 0.7953(3)
H13 H 0.6364 0.6378 0.8120
C31 C 1.0021(4) -0.1052(3) 1.0360(3)
H14 H 1.0035 -0.1767 1.0603
C32 C 0.4721(3) 0.8232(3) 0.2497(3)
H15 H 0.4804 0.8758 0.1954
H16 H 0.4629 0.8555 0.2972
H17 H 0.4087 0.7829 0.2515
C33 C 1.2484(3) 0.6657(3) 0.4295(2)
C34 C 0.7614(4) 0.6875(3) 0.7186(3)
H18 H 0.7214 0.7396 0.6828
C35 C 0.6096(4) 0.4469(4) 0.9278(3)
H19 H 0.5667 0.4555 0.8818
C36 C 0.5826(4) 0.3958(4) 1.0114(3)
H20 H 0.5165 0.3624 1.0329
C37 C 0.8497(5) 0.4825(6) 1.0300(3)
H21 H 0.8423 0.4846 1.0900
H22 H 0.8730 0.5489 0.9935
H23 H 0.9033 0.4299 1.0217
C38 C 0.9804(5) 0.8670(3) 0.5108(3)
H24 H 1.0013 0.9339 0.4803
C39 C 0.9396(5) 0.8397(3) 0.5948(3)
H25 H 0.9261 0.8827 0.6324
C40 C 0.9353(7) 0.6007(3) 0.5328(3)
H26 H 0.9744 0.5523 0.5756
H27 H 0.9641 0.5958 0.4755
H28 H 0.8586 0.5847 0.5425
C41 C 1.2481(5) 0.7075(6) 0.5070(3)
H29 H 1.3179 0.7377 0.5060
H30 H 1.2354 0.6521 0.5592
H31 H 1.1908 0.7597 0.5059
C42 C 0.3211(6) 0.1351(6) 0.9589(3)
H32 H 0.3116 0.2092 0.9388
H33 H 0.2625 0.1017 0.9423
H34 H 0.3903 0.1140 0.9332
C43 C 0.7283(5) 0.1523(7) 1.0524(6)
H35 H 0.6610 0.1890 1.0637
H36 H 0.7145 0.0794 1.0647
H37 H 0.7563 0.1777 0.9922
C44 C 0.8945(5) 0.2284(6) 1.1924(5)
H38 H 0.9092 0.2621 1.2339
C45 C 0.9688(5) 0.1733(7) 1.1546(6)
H39 H 1.0429 0.1636 1.1633
C46 C 0.3174(2) 0.0545(2) 1.2380(2)
H40 H 0.3149 0.0399 1.2985
N1 N 0.6669(2) 0.4000(2) 1.06086(17)
N2 N 0.7136(3) 0.4842(2) 0.92361(18)
N3 N 0.9218(3) 0.7354(2) 0.61394(18)
N4 N 0.9871(2) 0.7844(2) 0.47646(17)
N5 N 0.7964(2) 0.2294(2) 1.16337(19)
N6 N 0.9151(3) 0.1343(3) 1.1011(2)
N7 N 1.1769(2) 0.6911(2) 0.37099(16)
N8 N 1.3217(2) 0.5929(2) 0.41001(19)
O1 O 0.8792(2) 0.85024(17) 0.30987(16)
O2 O 0.94838(18) 0.69344(17) 0.32106(16)
O3 O 0.75083(18) 0.43341(17) 0.22749(15)
O4 O 0.57094(18) 0.44693(18) 0.22886(15)
O5 O 0.6574(2) 0.2319(2) 1.32440(16)
H41 H 0.6103 0.2604 1.3556
H42 H 0.6373 0.1700 1.3283
O6 O 0.53894(18) 0.23523(17) 1.17579(14)
O7 O 0.4753(3) 0.1449(3) 1.30795(18)
O8 O 0.1410(2) -0.07252(18) 1.33635(14)
O9 O 0.12374(19) -0.13411(17) 1.22391(14)
Ni1 Ni 1.04788(3) 0.79494(3) 0.35086(2)
Ni2 Ni 0.66469(3) 0.31961(3) 1.19366(2)
C14A C 1.5871(3) 0.4540(3) 0.5437(2)
C22A C 1.7052(3) 0.4284(3) 0.6652(2)
H7A H 1.6698 0.4752 0.6938
C23A C 1.7934(3) 0.3670(3) 0.6882(2)
H8A H 1.8294 0.3641 0.7371
C25A C 1.5768(3) 0.5611(3) 0.5186(3)
H9A H 1.6288 0.6019 0.5311
C27A C 1.4894(3) 0.6067(3) 0.4751(3)
H11A H 1.4816 0.6788 0.4583
C33A C 1.7516(3) 0.3343(3) 0.5705(2)
C41A C 1.7519(5) 0.2925(6) 0.4930(3)
H29A H 1.6821 0.2623 0.4940
H30A H 1.7646 0.3479 0.4408
H31A H 1.8092 0.2403 0.4941
N7A N 1.8231(2) 0.3089(2) 0.62901(16)
N8A N 1.6783(2) 0.4071(2) 0.58999(19)
C19A C 1.0417(3) -0.0647(3) 0.9503(2)
C28A C 1.1888(3) -0.1691(3) 0.8904(3)
C29A C 1.0400(4) 0.0388(3) 0.9142(3)
H12A H 1.0669 0.0655 0.8561
C31A C 0.9979(4) 0.1052(3) 0.9640(3)
H14A H 0.9965 0.1767 0.9397
C43A C 1.2717(5) -0.1523(7) 0.9476(6)
H35A H 1.3390 -0.1890 0.9363
H36A H 1.2855 -0.0794 0.9353
H37A H 1.2437 -0.1777 1.0078
C44A C 1.1055(5) -0.2284(6) 0.8076(5)
H38A H 1.0908 -0.2621 0.7661
C45A C 1.0312(5) -0.1733(7) 0.8454(6)
H39A H 0.9571 -0.1636 0.8367
N5A N 1.2036(2) -0.2294(2) 0.83663(19)
N6A N 1.0849(3) -0.1343(3) 0.8989(2)
C1A C 1.1307(3) -0.7581(2) 1.69350(19)
C2A C 1.8345(2) 0.0700(2) 0.7441(2)
C3A C 1.6059(3) -0.1226(2) 0.8139(2)
C4A C 1.7557(2) -0.0080(2) 0.7995(2)
C5A C 1.2389(2) -0.6228(2) 1.7274(2)
H1A H 1.1765 -0.5795 1.7225
C6A C 1.0511(3) -0.7059(2) 1.4600(2)
C7A C 1.1287(3) -0.6715(3) 1.3051(2)
C8A C 1.2303(3) -0.5490(3) 1.1536(2)
C9A C 1.3360(2) -0.5884(2) 1.74715(19)
C10A C 1.2355(2) -0.7227(2) 1.71511(19)
C11A C 1.4283(3) -0.6540(3) 1.7543(2)
H2A H 1.4930 -0.6308 1.7674
C12A C 1.2585(3) -0.4579(3) 0.9937(2)
C13A C 1.3389(3) -0.4834(2) 1.7636(2)
C15A C 1.4266(3) -0.7529(3) 1.7423(2)
C16A C 1.0696(3) -0.5924(3) 1.2547(2)
H3A H 0.9956 -0.5816 1.2714
C17A C 1.5227(3) -0.1703(3) 0.7732(2)
C18A C 1.6055(3) -0.1471(3) 0.9035(2)
H4A H 1.5540 -0.1932 0.9383
C20A C 1.3289(3) -0.7862(2) 1.7228(2)
H5A H 1.3264 -0.8526 1.7148
C21A C 1.1204(3) -0.5291(3) 1.1790(2)
H6A H 1.0817 -0.4739 1.1455
C24A C 1.6805(4) -0.1043(3) 0.9431(2)
C26A C 1.7540(3) -0.0333(3) 0.8898(2)
H10A H 1.8031 -0.0020 0.9150
C30A C 1.2897(4) -0.6264(3) 1.2047(3)
H13A H 1.3636 -0.6378 1.1880
C32A C 1.5279(3) -0.8232(3) 1.7503(3)
H15A H 1.5196 -0.8758 1.8046
H16A H 1.5371 -0.8555 1.7028
H17A H 1.5913 -0.7829 1.7485
C34A C 1.2386(4) -0.6875(3) 1.2814(3)
H18A H 1.2786 -0.7396 1.3172
C35A C 1.3904(4) -0.4469(4) 1.0722(3)
H19A H 1.4333 -0.4555 1.1182
C36A C 1.4174(4) -0.3958(4) 0.9886(3)
H20A H 1.4835 -0.3624 0.9671
C37A C 1.1503(5) -0.4825(6) 0.9700(3)
H21A H 1.1577 -0.4846 0.9100
H22A H 1.1270 -0.5489 1.0065
H23A H 1.0967 -0.4299 0.9783
C38A C 1.0196(5) -0.8670(3) 1.4892(3)
H24A H 0.9987 -0.9339 1.5197
C39A C 1.0604(5) -0.8397(3) 1.4052(3)
H25A H 1.0739 -0.8827 1.3676
C40A C 1.0647(7) -0.6007(3) 1.4672(3)
H26A H 1.0256 -0.5523 1.4244
H27A H 1.0359 -0.5958 1.5245
H28A H 1.1414 -0.5847 1.4575
C42A C 1.6789(6) -0.1351(6) 1.0411(3)
H32A H 1.6884 -0.2092 1.0612
H33A H 1.7375 -0.1017 1.0577
H34A H 1.6097 -0.1140 1.0668
C46A C 1.6826(2) -0.0545(2) 0.7620(2)
H40A H 1.6851 -0.0399 0.7015
N1A N 1.3331(2) -0.4000(2) 0.93914(17)
N2A N 1.2864(3) -0.4842(2) 1.07639(18)
N3A N 1.0782(3) -0.7354(2) 1.38606(18)
N4A N 1.0129(2) -0.7844(2) 1.52354(17)
O1A O 1.1208(2) -0.85024(17) 1.69013(16)
O2A O 1.05162(18) -0.69344(17) 1.67894(16)
O3A O 1.24917(18) -0.43341(17) 1.77251(15)
O4A O 1.42906(18) -0.44693(18) 1.77114(15)
O5A O 1.3426(2) -0.2319(2) 0.67560(16)
H41A H 1.3897 -0.2604 0.6444
H42A H 1.3627 -0.1700 0.6717
O6A O 1.46106(18) -0.23523(17) 0.82421(14)
O7A O 1.5247(3) -0.1449(3) 0.69205(18)
O8A O 1.8590(2) 0.07252(18) 0.66365(14)
O9A O 1.87626(19) 0.13411(17) 0.77609(14)
Ni1A Ni 0.95212(3) -0.79494(3) 1.64914(2)
Ni2A Ni 1.33531(3) -0.31961(3) 0.80634(2)
N7A_2 N 0.8231(2) -0.6911(2) 1.62901(16)
O3_2 O 0.75083(18) 0.43341(17) 1.22749(15)
O3A_2 O 1.24917(18) -0.43341(17) 0.77251(15)
O4_2 O 0.57094(18) 0.44693(18) 1.22886(15)
O4A_2 O 1.42906(18) -0.44693(18) 0.77114(15)
O8_2 O 1.1410(2) 0.92748(18) 0.33635(14)
O8A_2 O 0.8590(2) -0.92748(18) 1.66365(14)
O9_2 O 1.12374(19) 0.86589(17) 0.22391(14)
O9A_2 O 0.87626(19) -0.86589(17) 1.77609(14)
Ni1_2 Ni 0.04788(3) -0.20506(3) 1.35086(2)
Ni1A_2 Ni 1.95212(3) 0.20506(3) 0.64914(2)
Ni2_2 Ni 0.66469(3) 0.31961(3) 0.19366(2)
Ni2A_2 Ni 1.33531(3) -0.31961(3) 1.80634(2)
O10 O 0.6572(13) 0.8170(15) 0.5159(13)
H43 H 0.6004 0.8494 0.5319
H44 H 0.7089 0.8594 0.4951
O11 O 0.4832(8) 0.9311(7) 0.4248(5)
H45 H 0.4359 0.9738 0.4399
H46 H 0.4801 0.8735 0.4636
O12 O 0.2304(7) -0.0269(7) 1.6360(6)
H47 H 0.2298 0.0364 1.6068
H48 H 0.1884 -0.0612 1.6154
O13 O 0.2627(7) -0.0207(7) 1.4655(7)
H49 H 0.3267 0.0030 1.4618
H50 H 0.2606 -0.0823 1.4983
loop_
_geom_bond_atom_site_label_1
_geom_bond_atom_site_label_2
_geom_bond_site_symmetry_1
_geom_bond_site_symmetry_2
C1 C10 1_555 1_555
C2 C4 1_555 1_555
C3 C17 1_555 1_555
C4 C26 1_555 1_555
C5 H1 1_555 1_555
C6 C40 1_555 1_555
C7 C16 1_555 1_555
C8 C21 1_555 1_555
C9 C5 1_555 1_555
C10 C5 1_555 1_555
C11 C9 1_555 1_555
H2 C11 1_555 1_555
C12 C37 1_555 1_555
C13 C9 1_555 1_555
C14 C25 1_555 1_555
C15 C11 1_555 1_555
C16 H3 1_555 1_555
C17 O6 1_555 1_555
C18 C3 1_555 1_555
H4 C18 1_555 1_555
C19 C29 1_555 1_555
C20 C10 1_555 1_555
H5 C20 1_555 1_555
C21 C16 1_555 1_555
H6 C21 1_555 1_555
C22 H7 1_555 1_555
C23 C22 1_555 1_555
H8 C23 1_555 1_555
C24 C18 1_555 1_555
C25 H9 1_555 1_555
C26 C24 1_555 1_555
H10 C26 1_555 1_555
C27 C25 1_555 1_555
H11 C27 1_555 1_555
C28 C43 1_555 1_555
C29 H12 1_555 1_555
C30 C8 1_555 1_555
H13 C30 1_555 1_555
C31 C29 1_555 1_555
H14 C31 1_555 1_555
C32 C15 1_555 1_555
H15 C32 1_555 1_555
H16 C32 1_555 1_555
H17 C32 1_555 1_555
C33 C41 1_555 1_555
C34 C7 1_555 1_555
H18 C34 1_555 1_555
C35 H19 1_555 1_555
C36 C35 1_555 1_555
H20 C36 1_555 1_555
C37 H21 1_555 1_555
H22 C37 1_555 1_555
H23 C37 1_555 1_555
C38 H24 1_555 1_555
C39 C38 1_555 1_555
H25 C39 1_555 1_555
C40 H26 1_555 1_555
H27 C40 1_555 1_555
H28 C40 1_555 1_555
C41 H29 1_555 1_555
H30 C41 1_555 1_555
H31 C41 1_555 1_555
C42 C24 1_555 1_555
H32 C42 1_555 1_555
H33 C42 1_555 1_555
H34 C42 1_555 1_555
C43 H35 1_555 1_555
H36 C43 1_555 1_555
H37 C43 1_555 1_555
C44 H38 1_555 1_555
C45 C44 1_555 1_555
H39 C45 1_555 1_555
C46 C3 1_555 1_555
H40 C46 1_555 1_555
N1 C12 1_555 1_555
N2 C8 1_555 1_555
N3 C6 1_555 1_555
N4 C6 1_555 1_555
N5 C28 1_555 1_555
N6 C19 1_555 1_555
N7 C23 1_555 1_555
N8 C14 1_555 1_555
O1 C1 1_555 1_555
O2 C1 1_555 1_555
O3 C13 1_555 1_555
O4 C13 1_555 1_555
O5 H41 1_555 1_555
H42 O5 1_555 1_555
O6 Ni2 1_555 1_555
O7 C17 1_555 1_555
O8 C2 1_555 1_555
O9 C2 1_555 1_555
Ni1 N4 1_555 1_555
Ni2 N1 1_555 1_555
O10 H43 1_555 1_555
H44 O10 1_555 1_555
O11 H45 1_555 1_555
H46 O11 1_555 1_555
O12 H47 1_555 1_555
H48 O12 1_555 1_555
O13 H49 1_555 1_555
H50 O13 1_555 1_555
C14A C27 1_555 1_555
C22A H7A 1_555 1_555
C23A C22A 1_555 1_555
H8A C23A 1_555 1_555
C25A C14A 1_555 1_555
H9A C25A 1_555 1_555
C27A C14 1_555 1_555
H11A C27A 1_555 1_555
C33A C41A 1_555 1_555
C41A H29A 1_555 1_555
H30A C41A 1_555 1_555
H31A C41A 1_555 1_555
N7A C23A 1_555 1_555
N8A C14A 1_555 1_555
C19A C31 1_555 1_555
C28A C43A 1_555 1_555
C29A C19A 1_555 1_555
H12A C29A 1_555 1_555
C31A C19 1_555 1_555
H14A C31A 1_555 1_555
C43A H35A 1_555 1_555
H36A C43A 1_555 1_555
H37A C43A 1_555 1_555
C44A H38A 1_555 1_555
C45A C44A 1_555 1_555
H39A C45A 1_555 1_555
N5A C28A 1_555 1_555
N6A C19A 1_555 1_555
C1A C10A 1_555 1_555
C2A C4A 1_555 1_555
C3A C17A 1_555 1_555
C4A C26A 1_555 1_555
C5A H1A 1_555 1_555
C6A C40A 1_555 1_555
C7A C16A 1_555 1_555
C8A C21A 1_555 1_555
C9A C5A 1_555 1_555
C10A C5A 1_555 1_555
C11A C9A 1_555 1_555
H2A C11A 1_555 1_555
C12A C37A 1_555 1_555
C13A C9A 1_555 1_555
C15A C11A 1_555 1_555
C16A H3A 1_555 1_555
C17A O6A 1_555 1_555
C18A C3A 1_555 1_555
H4A C18A 1_555 1_555
C20A C10A 1_555 1_555
H5A C20A 1_555 1_555
C21A C16A 1_555 1_555
H6A C21A 1_555 1_555
C24A C18A 1_555 1_555
C26A C24A 1_555 1_555
H10A C26A 1_555 1_555
C30A C8A 1_555 1_555
H13A C30A 1_555 1_555
C32A C15A 1_555 1_555
H15A C32A 1_555 1_555
H16A C32A 1_555 1_555
H17A C32A 1_555 1_555
C34A C7A 1_555 1_555
H18A C34A 1_555 1_555
C35A H19A 1_555 1_555
C36A C35A 1_555 1_555
H20A C36A 1_555 1_555
C37A H21A 1_555 1_555
H22A C37A 1_555 1_555
H23A C37A 1_555 1_555
C38A H24A 1_555 1_555
C39A C38A 1_555 1_555
H25A C39A 1_555 1_555
C40A H26A 1_555 1_555
H27A C40A 1_555 1_555
H28A C40A 1_555 1_555
C42A C24A 1_555 1_555
H32A C42A 1_555 1_555
H33A C42A 1_555 1_555
H34A C42A 1_555 1_555
C46A C3A 1_555 1_555
H40A C46A 1_555 1_555
N1A C12A 1_555 1_555
N2A C8A 1_555 1_555
N3A C6A 1_555 1_555
N4A C6A 1_555 1_555
O1A C1A 1_555 1_555
O2A C1A 1_555 1_555
O3A C13A 1_555 1_555
O4A C13A 1_555 1_555
O5A H41A 1_555 1_555
H42A O5A 1_555 1_555
O6A Ni2A 1_555 1_555
O7A C17A 1_555 1_555
O8A C2A 1_555 1_555
O9A C2A 1_555 1_555
Ni1A N4A 1_555 1_555
Ni2A N5A 1_555 1_555
N7A_2 Ni1A 1_555 1_555
O3_2 Ni2 1_555 1_555
O3A_2 Ni2A 1_555 1_555
O4_2 Ni2 1_555 1_555
O4A_2 Ni2A 1_555 1_555
O8_2 Ni1 1_555 1_555
O8A_2 Ni1A 1_555 1_555
O9_2 Ni1 1_555 1_555
O9A_2 Ni1A 1_555 1_555
Ni1_2 O8 1_555 1_555
Ni1A_2 N7A 1_555 1_555
Ni2_2 O3 1_555 1_555
Ni2A_2 O3A 1_555 1_555
C4 C46 1_555 1_555
C7 N3 1_555 1_555
C12 N2 1_555 1_555
C15 C20 1_555 1_555
C22 N8 1_555 1_555
C28 N6 1_555 1_555
C30 C34 1_555 1_555
C33 N7 1_555 1_555
C33 N8 1_555 1_555
C35 N2 1_555 1_555
C36 N1 1_555 1_555
C38 N4 1_555 1_555
C39 N3 1_555 1_555
C44 N5 1_555 1_555
C45 N6 1_555 1_555
N5 Ni2 1_555 1_555
N7 Ni1 1_555 1_555
O1 Ni1 1_555 1_555
O2 Ni1 1_555 1_555
O4 Ni2_2 1_555 1_555
O5 Ni2 1_555 1_555
O9 Ni1_2 1_555 1_555
C22A N8A 1_555 1_555
C25A C27A 1_555 1_555
C33A N7A 1_555 1_555
C33A N8A 1_555 1_555
C28A N6A 1_555 1_555
C29A C31A 1_555 1_555
C44A N5A 1_555 1_555
C45A N6A 1_555 1_555
C4A C46A 1_555 1_555
C7A N3A 1_555 1_555
C12A N2A 1_555 1_555
C15A C20A 1_555 1_555
C30A C34A 1_555 1_555
C35A N2A 1_555 1_555
C36A N1A 1_555 1_555
C38A N4A 1_555 1_555
C39A N3A 1_555 1_555
N1A Ni2A 1_555 1_555
O1A Ni1A 1_555 1_555
O2A Ni1A 1_555 1_555
O4A Ni2A_2 1_555 1_555
O5A Ni2A 1_555 1_555
O8A Ni1A_2 1_555 1_555
O9A Ni1A_2 1_555 1_555

#END
