
#######################################################################
#
#                 Cambridge Crystallographic Data Centre
#                                CCDC 
#
#######################################################################
#
# If this CIF has been generated from an entry in the Cambridge 
# Structural Database, then it will include bibliographic, chemical, 
# crystal, experimental, refinement or atomic coordinate data resulting 
# from the CCDC's data processing and validation procedures.
#
#######################################################################

data_KOFLEY
_symmetry_cell_setting           monoclinic
_symmetry_space_group_name_H-M   'P 21/n'
_symmetry_Int_Tables_number      14
_space_group_name_Hall           '-P 2yn'
loop_
_symmetry_equiv_pos_site_id
_symmetry_equiv_pos_as_xyz
1 x,y,z
2 1/2-x,1/2+y,1/2-z
3 -x,-y,-z
4 1/2+x,1/2-y,1/2+z
_cell_length_a                   17.145(5)
_cell_length_b                   10.922(5)
_cell_length_c                   25.221(5)
_cell_angle_alpha                90
_cell_angle_beta                 100.421(5)
_cell_angle_gamma                90
_cell_volume                     4644.92
loop_
_atom_site_label
_atom_site_type_symbol
_atom_site_fract_x
_atom_site_fract_y
_atom_site_fract_z
Cd1 Cd 1.001441(12) 0.78314(2) 0.108598(9)
Cd2 Cd 0.501867(12) 0.76584(2) 0.113064(9)
O1 O 0.05806(12) 0.9404(2) 0.06704(9)
N1 N 0.61396(14) 0.8809(3) 0.11365(10)
O2 O -0.05929(12) 0.9795(2) 0.08550(9)
O3 O 0.56123(12) 0.6047(2) 0.07594(9)
N2 N 0.83656(15) 1.0466(3) 0.15363(10)
H1 H 0.8648 1.0469 0.1287
O4 O 0.44233(12) 0.5666(2) 0.09131(10)
N3 N 0.94728(16) 1.1966(3) 0.30085(11)
N4 N 1.38420(14) 1.1719(3) 0.38457(10)
N5 N 1.04977(15) 0.8613(3) 0.19337(11)
N6 N 1.16124(15) 1.0105(3) 0.34026(10)
H2 H 1.1329 1.0096 0.3651
O5 O 0.89984(14) 0.6779(3) 0.06556(10)
O6 O 0.91745(17) 0.6393(3) 0.15127(11)
C1 C 0.51580(17) 0.3975(3) 0.06647(11)
C2 C 0.58954(18) 0.3442(3) 0.06342(12)
C3 C 0.01434(16) 1.1492(3) 0.06227(11)
C4 C -0.0546(2) 1.2205(3) 0.05140(13)
H3 H -0.1039 1.1826 0.0474
O7 O 0.39997(14) 0.8723(3) 0.07089(10)
C5 C 0.87951(17) 0.6260(3) 0.10482(14)
C6 C 0.08890(17) 1.2062(3) 0.06797(11)
C7 C 0.87038(17) 1.0984(3) 0.20238(12)
C8 C 0.21611(18) 1.1470(3) 0.12793(12)
H4 H 0.2029 1.1984 0.1544
C9 C 0.74917(17) 0.8988(3) 0.10362(12)
H5 H 0.7901 0.8716 0.0870
O8 O 0.41856(17) 0.9160(3) 0.15637(11)
C10 C 0.76214(17) 0.9944(3) 0.14069(12)
C11 C 0.25981(17) 1.0040(3) 0.04822(12)
H6 H 0.2752 0.9582 0.0208
C12 C 0.66606(16) 0.4130(3) 0.07432(12)
C13 C 1.24941(17) 1.1497(3) 0.39470(12)
H7 H 1.2087 1.1733 0.4124
C14 C 0.0915(2) 1.3338(3) 0.06427(13)
H8 H 0.1404 1.3728 0.0689
C15 C 1.12671(17) 0.9605(3) 0.29132(12)
C16 C 1.32324(18) 1.2013(3) 0.40847(12)
H9 H 1.3313 1.2597 0.4358
C17 C 0.4478(2) 0.3236(4) 0.05775(13)
H10 H 0.3990 0.3579 0.0603
C18 C 0.18968(17) 1.0688(3) 0.03811(12)
H11 H 0.1580 1.0655 0.0041
C19 C 1.37110(18) 1.0844(3) 0.34651(13)
H12 H 1.4133 1.0608 0.3303
C20 C 1.23573(17) 1.0618(3) 0.35400(12)
C21 C 0.7117(2) 0.4156(4) 0.12517(13)
H13 H 0.6955 0.3715 0.1528
C22 C 0.50651(16) 0.5297(3) 0.07835(11)
C23 C 0.16580(16) 1.1391(3) 0.07833(11)
C24 C 0.00435(16) 1.0148(3) 0.07136(11)
C25 C 1.0238(2) 0.8427(4) 0.23930(14)
H14 H 0.9784 0.7954 0.2381
C26 C 0.69322(17) 0.4735(3) 0.03286(12)
H15 H 0.6646 0.4686 -0.0021
C27 C 1.0594(2) 0.8885(4) 0.28805(14)
H16 H 1.0387 0.8716 0.3189
C28 C 0.67588(18) 0.8450(3) 0.09170(12)
H17 H 0.6687 0.7805 0.0672
C29 C 0.5924(2) 0.2201(4) 0.05094(17)
H18 H 0.6409 0.1841 0.0489
C30 C 0.8417(2) 1.0793(4) 0.24983(14)
H19 H 0.7965 1.0322 0.2498
C31 C 1.1140(2) 0.9322(4) 0.19687(14)
H20 H 1.1335 0.9473 0.1654
C32 C 0.80662(16) 0.5477(3) 0.09462(12)
C33 C 1.29984(18) 1.0283(3) 0.33013(13)
H21 H 1.2941 0.9685 0.3034
C34 C 0.38032(18) 0.9271(3) 0.10966(14)
C35 C 1.1529(2) 0.9840(4) 0.24339(13)
H22 H 1.1965 1.0345 0.2430
C36 C -0.0504(2) 1.3455(4) 0.04659(15)
H23 H -0.0968 1.3913 0.0384
C37 C 0.69681(19) 1.0341(4) 0.16192(14)
H24 H 0.7017 1.1000 0.1857
C38 C 0.76243(17) 0.5408(3) 0.04314(13)
H25 H 0.7795 0.5821 0.0151
C39 C 0.62565(18) 0.9758(4) 0.14759(14)
H26 H 0.5829 1.0037 0.1623
C40 C 0.30782(16) 1.0063(3) 0.09891(12)
C41 C 0.28563(19) 1.0798(3) 0.13868(13)
H27 H 0.3176 1.0837 0.1726
C42 C 0.0226(2) 1.4037(3) 0.05387(15)
H28 H 0.0255 1.4886 0.0518
C43 C 0.7812(2) 0.4830(4) 0.13582(13)
H29 H 0.8109 0.4849 0.1705
C44 C 0.93995(19) 1.1661(4) 0.20638(14)
H30 H 0.9620 1.1803 0.1759
C45 C 0.8811(2) 1.1309(4) 0.29685(14)
H31 H 0.8601 1.1191 0.3280
C46 C 0.9757(2) 1.2114(4) 0.25509(14)
H32 H 1.0226 1.2552 0.2567
C47 C 0.4520(3) 0.2005(4) 0.04546(15)
H33 H 0.4064 0.1526 0.0399
C48 C 0.5239(3) 0.1495(4) 0.04156(17)
H34 H 0.5268 0.0672 0.0326
Cd1_2 Cd 0.001441(12) 0.78314(2) 0.108598(9)
Cd1A Cd 1.498559(12) 1.28314(2) 0.391402(9)
Cd2A Cd 0.998133(12) 1.26584(2) 0.386936(9)
O1_2 O 1.05806(12) 0.9404(2) 0.06704(9)
O2_2 O 0.94071(12) 0.9795(2) 0.08550(9)
N3A N 0.55272(16) 0.6966(3) 0.19915(11)
N4A N 1.11580(14) 0.6719(3) 0.11543(10)
O9 O 0.3243(4) 0.8170(7) 0.2335(3)
H35 H 0.3180 0.7403 0.2365
H36 H 0.2794 0.8513 0.2243
O10 O 0.9766(4) 0.5529(10) 0.2534(6)
H37 H 0.9275 0.5701 0.2495
H38 H 0.9922 0.5620 0.2236
O11 O 0.8275(4) 0.7363(7) 0.2345(3)
H39 H 0.7777 0.7365 0.2234
H40 H 0.8444 0.6630 0.2371
loop_
_geom_bond_atom_site_label_1
_geom_bond_atom_site_label_2
_geom_bond_site_symmetry_1
_geom_bond_site_symmetry_2
Cd1 N5 1_555 1_555
Cd2 N1 1_555 1_555
O1 C24 1_555 1_555
N1 C28 1_555 1_555
O2 C24 1_555 1_555
O3 Cd2 1_555 1_555
N2 H1 1_555 1_555
O4 Cd2 1_555 1_555
N3 C45 1_555 1_555
N4 C16 1_555 1_555
N5 C25 1_555 1_555
N6 H2 1_555 1_555
O5 Cd1 1_555 1_555
O6 Cd1 1_555 1_555
C1 C2 1_555 1_555
C2 C12 1_555 1_555
C3 C4 1_555 1_555
C4 H3 1_555 1_555
O7 Cd2 1_555 1_555
C5 O5 1_555 1_555
C6 C3 1_555 1_555
C7 N2 1_555 1_555
C8 H4 1_555 1_555
C9 H5 1_555 1_555
O8 Cd2 1_555 1_555
C10 N2 1_555 1_555
C11 H6 1_555 1_555
C12 C21 1_555 1_555
C13 H7 1_555 1_555
C14 C6 1_555 1_555
H8 C14 1_555 1_555
C15 N6 1_555 1_555
C16 C13 1_555 1_555
H9 C16 1_555 1_555
C17 C1 1_555 1_555
H10 C17 1_555 1_555
C18 C11 1_555 1_555
H11 C18 1_555 1_555
C19 N4 1_555 1_555
H12 C19 1_555 1_555
C20 N6 1_555 1_555
C21 H13 1_555 1_555
C22 O3 1_555 1_555
C23 C6 1_555 1_555
C24 C3 1_555 1_555
C25 H14 1_555 1_555
C26 C12 1_555 1_555
H15 C26 1_555 1_555
C27 C15 1_555 1_555
H16 C27 1_555 1_555
C28 C9 1_555 1_555
H17 C28 1_555 1_555
C29 C2 1_555 1_555
H18 C29 1_555 1_555
C30 C7 1_555 1_555
H19 C30 1_555 1_555
C31 N5 1_555 1_555
H20 C31 1_555 1_555
C32 C5 1_555 1_555
C33 C19 1_555 1_555
H21 C33 1_555 1_555
C34 O7 1_555 1_555
C35 C15 1_555 1_555
H22 C35 1_555 1_555
C36 C4 1_555 1_555
H23 C36 1_555 1_555
C37 C10 1_555 1_555
H24 C37 1_555 1_555
C38 C26 1_555 1_555
H25 C38 1_555 1_555
C39 N1 1_555 1_555
H26 C39 1_555 1_555
C40 C11 1_555 1_555
C41 C8 1_555 1_555
H27 C41 1_555 1_555
C42 C14 1_555 1_555
H28 C42 1_555 1_555
C43 C21 1_555 1_555
H29 C43 1_555 1_555
C44 C7 1_555 1_555
H30 C44 1_555 1_555
C45 C30 1_555 1_555
H31 C45 1_555 1_555
C46 N3 1_555 1_555
H32 C46 1_555 1_555
C47 C17 1_555 1_555
H33 C47 1_555 1_555
C48 C29 1_555 1_555
H34 C48 1_555 1_555
O9 H35 1_555 1_555
H36 O9 1_555 1_555
O10 H37 1_555 1_555
H38 O10 1_555 1_555
O11 H39 1_555 1_555
H40 O11 1_555 1_555
Cd1_2 O1 1_555 1_555
Cd1A N4 1_555 1_555
Cd2A N3 1_555 1_555
O1_2 Cd1 1_555 1_555
O2_2 Cd1 1_555 1_555
N3A Cd2 1_555 1_555
N4A Cd1 1_555 1_555
O2 Cd1_2 1_555 1_555
O4 C22 1_555 1_555
O6 C5 1_555 1_555
C1 C22 1_555 1_555
C8 C23 1_555 1_555
C9 C10 1_555 1_555
O8 C34 1_555 1_555
C13 C20 1_555 1_555
C18 C23 1_555 1_555
C20 C33 1_555 1_555
C25 C27 1_555 1_555
C31 C35 1_555 1_555
C32 C38 1_555 1_555
C32 C43 1_555 1_555
C34 C40 1_555 1_555
C36 C42 1_555 1_555
C37 C39 1_555 1_555
C40 C41 1_555 1_555
C44 C46 1_555 1_555
C47 C48 1_555 1_555

#END
