
#######################################################################
#
#                 Cambridge Crystallographic Data Centre
#                                CCDC 
#
#######################################################################
#
# If this CIF has been generated from an entry in the Cambridge 
# Structural Database, then it will include bibliographic, chemical, 
# crystal, experimental, refinement or atomic coordinate data resulting 
# from the CCDC's data processing and validation procedures.
#
#######################################################################

data_KOFMAV
_symmetry_cell_setting           triclinic
_symmetry_space_group_name_H-M   'P -1'
_symmetry_Int_Tables_number      2
_space_group_name_Hall           '-P 1'
loop_
_symmetry_equiv_pos_site_id
_symmetry_equiv_pos_as_xyz
1 x,y,z
2 -x,-y,-z
_cell_length_a                   11.191(5)
_cell_length_b                   11.327(5)
_cell_length_c                   11.552(5)
_cell_angle_alpha                83.528(5)
_cell_angle_beta                 70.024(5)
_cell_angle_gamma                68.095(5)
_cell_volume                     1276.69
loop_
_atom_site_label
_atom_site_type_symbol
_atom_site_fract_x
_atom_site_fract_y
_atom_site_fract_z
Ni1 Ni 0.20273(2) 0.35997(2) 0.59857(2)
O1 O -0.09485(14) 0.45115(13) 1.44681(12)
O2 O -0.25037(15) 0.48726(13) 1.35918(13)
O3 O 0.10352(14) 0.27293(13) 0.53850(12)
H1 H 0.0558 0.2400 0.5998
H2 H 0.0486 0.3276 0.5033
O4 O 0.06718(16) 0.37101(14) 0.77964(13)
N1 N 0.45091(18) 0.40995(19) 0.24206(16)
C1 C -0.1632(2) 0.27850(19) 1.43726(18)
N2 N 0.35179(17) 0.35006(17) 0.42598(15)
C2 C 0.3390(2) 0.3862(2) 0.31677(18)
O5 O -0.0225(2) 0.23029(18) 0.76208(14)
N3 N 0.33045(18) 0.20257(17) 0.65950(16)
C3 C -0.1686(2) 0.41246(18) 1.40991(17)
C4 C -0.1239(2) 0.18545(19) 1.34731(18)
N4 N 0.4197(2) 0.07595(19) 0.78976(19)
C5 C -0.1105(2) 0.1472(2) 1.13354(19)
H3 H -0.1520 0.0877 1.1653
C6 C 0.4741(2) 0.4560(2) 0.11875(19)
C7 C -0.2027(3) 0.2503(2) 1.5616(2)
H4 H -0.2268 0.3124 1.6201
C8 C -0.0176(2) 0.2971(2) 1.16033(19)
H5 H 0.0056 0.3383 1.2099
C9 C 0.4145(3) 0.0005(2) 0.7103(2)
H6 H 0.4434 -0.0878 0.7104
C10 C 0.3586(3) 0.0798(2) 0.6300(2)
H7 H 0.3422 0.0542 0.5650
C11 C 0.4613(3) 0.0360(2) 0.8973(2)
C12 C -0.0185(2) 0.26196(19) 0.95833(18)
C13 C -0.1253(3) 0.0647(2) 1.3891(2)
H8 H -0.0972 0.0003 1.3318
C14 C -0.0821(2) 0.21025(18) 1.21313(18)
C15 C -0.0780(2) 0.1720(2) 1.00913(19)
H9 H -0.0962 0.1276 0.9583
C16 C 0.5935(2) 0.3914(3) 0.0285(2)
H10 H 0.6565 0.3182 0.0480
C17 C 0.0124(2) 0.3231(2) 1.03602(19)
H11 H 0.0539 0.3824 1.0038
C18 C 0.4047(3) 0.0333(3) 1.1165(3)
H12 H 0.3409 0.0562 1.1946
C19 C 0.3684(2) 0.1992(2) 0.7570(2)
C20 C 0.5398(2) 0.3856(2) 0.3080(2)
H13 H 0.6252 0.3927 0.2806
C21 C 0.2230(2) 0.3944(3) 0.2768(2)
H14 H 0.1506 0.4748 0.3031
H15 H 0.1910 0.3267 0.3130
H16 H 0.2527 0.3869 0.1887
C22 C 0.4775(2) 0.3495(2) 0.4196(2)
H17 H 0.5138 0.3272 0.4838
C23 C 0.6202(2) 0.4354(3) -0.0916(2)
H18 H 0.7006 0.3920 -0.1527
C24 C 0.0113(2) 0.2901(2) 0.82264(18)
C25 C -0.1671(3) 0.0388(2) 1.5128(2)
H19 H -0.1685 -0.0418 1.5377
C26 C 0.3664(3) 0.3080(3) 0.8190(3)
H20 H 0.4489 0.3246 0.7781
H21 H 0.3594 0.2879 0.9035
H22 H 0.2897 0.3821 0.8154
C27 C -0.2067(3) 0.1314(3) 1.5997(2)
H23 H -0.2359 0.1141 1.6832
C28 C 0.3657(3) 0.0688(3) 1.0124(3)
H24 H 0.2748 0.1147 1.0202
N1A N 0.54909(18) 0.59005(19) -0.24206(16)
N2A N 0.64821(17) 0.64994(17) -0.42598(15)
C2A C 0.6610(2) 0.6138(2) -0.31677(18)
C6A C 0.5259(2) 0.5440(2) -0.11875(19)
C16A C 0.4065(2) 0.6086(3) -0.0285(2)
H10A H 0.3435 0.6818 -0.0480
C20A C 0.4602(2) 0.6144(2) -0.3080(2)
H13A H 0.3748 0.6073 -0.2806
C21A C 0.7770(2) 0.6056(3) -0.2768(2)
H14A H 0.8494 0.5252 -0.3031
H15A H 0.8090 0.6733 -0.3130
H16A H 0.7473 0.6131 -0.1887
C22A C 0.5225(2) 0.6505(2) -0.4196(2)
H17A H 0.4862 0.6728 -0.4838
C23A C 0.3798(2) 0.5646(3) 0.0916(2)
H18A H 0.2994 0.6080 0.1527
N3A N 0.66955(18) -0.20257(17) 1.34050(16)
N4A N 0.5803(2) -0.07595(19) 1.21024(19)
C9A C 0.5855(3) -0.0005(2) 1.2897(2)
H6A H 0.5566 0.0878 1.2896
C10A C 0.6414(3) -0.0798(2) 1.3700(2)
H7A H 0.6578 -0.0542 1.4350
C11A C 0.5387(3) -0.0360(2) 1.1027(2)
C18A C 0.5953(3) -0.0333(3) 0.8835(3)
H12A H 0.6591 -0.0562 0.8054
C19A C 0.6316(2) -0.1992(2) 1.2430(2)
C26A C 0.6336(3) -0.3080(3) 1.1810(3)
H20A H 0.5511 -0.3246 1.2219
H21A H 0.6406 -0.2879 1.0965
H22A H 0.7103 -0.3821 1.1846
C28A C 0.6343(3) -0.0688(3) 0.9876(3)
H24A H 0.7252 -0.1147 0.9798
Ni1A Ni -0.20273(2) 0.64003(2) 1.40143(2)
O1A O 0.09485(14) 0.54885(13) 0.55319(12)
O2A O 0.25037(15) 0.51274(13) 0.64082(13)
O3A O -0.10352(14) 0.72707(13) 1.46150(12)
H1A H -0.0558 0.7600 1.4002
H2A H -0.0486 0.6724 1.4967
O4A O -0.06718(16) 0.62899(14) 1.22036(13)
C1A C 0.1632(2) 0.72150(19) 0.56274(18)
O5A O 0.0225(2) 0.76971(18) 1.23792(14)
C3A C 0.1686(2) 0.58754(18) 0.59009(17)
C4A C 0.1239(2) 0.81455(19) 0.65269(18)
C5A C 0.1105(2) 0.8528(2) 0.86646(19)
H3A H 0.1520 0.9123 0.8347
C7A C 0.2027(3) 0.7497(2) 0.4384(2)
H4A H 0.2268 0.6876 0.3799
C8A C 0.0176(2) 0.7029(2) 0.83967(19)
H5A H -0.0056 0.6617 0.7901
C12A C 0.0185(2) 0.73804(19) 1.04167(18)
C13A C 0.1253(3) 0.9353(2) 0.6109(2)
H8A H 0.0972 0.9997 0.6682
C14A C 0.0821(2) 0.78975(18) 0.78687(18)
C15A C 0.0780(2) 0.8280(2) 0.99087(19)
H9A H 0.0962 0.8724 1.0417
C17A C -0.0124(2) 0.6769(2) 0.96398(19)
H11A H -0.0539 0.6176 0.9962
C24A C -0.0113(2) 0.7099(2) 1.17736(18)
C25A C 0.1671(3) 0.9612(2) 0.4872(2)
H19A H 0.1685 1.0418 0.4623
C27A C 0.2067(3) 0.8686(3) 0.4003(2)
H23A H 0.2359 0.8859 0.3168
Ni1A_2 Ni 0.79727(2) -0.35997(2) 1.40143(2)
Ni1A_3 Ni 0.79727(2) 0.64003(2) -0.59857(2)
N2A_2 N -0.35179(17) 0.64994(17) 1.57402(15)
N3A_2 N -0.33045(18) 0.79743(17) 1.34050(16)
loop_
_geom_bond_atom_site_label_1
_geom_bond_atom_site_label_2
_geom_bond_site_symmetry_1
_geom_bond_site_symmetry_2
Ni1 O3 1_555 1_555
O1 C3 1_555 1_555
O2 C3 1_555 1_555
O3 H1 1_555 1_555
H2 O3 1_555 1_555
O4 Ni1 1_555 1_555
N1 C2 1_555 1_555
C1 C3 1_555 1_555
N2 Ni1 1_555 1_555
C2 N2 1_555 1_555
O5 C24 1_555 1_555
N3 Ni1 1_555 1_555
C4 C1 1_555 1_555
N4 C9 1_555 1_555
C5 H3 1_555 1_555
C6 N1 1_555 1_555
C7 C1 1_555 1_555
H4 C7 1_555 1_555
C8 H5 1_555 1_555
C9 H6 1_555 1_555
C10 N3 1_555 1_555
H7 C10 1_555 1_555
C11 N4 1_555 1_555
C12 C15 1_555 1_555
C13 C4 1_555 1_555
H8 C13 1_555 1_555
C14 C4 1_555 1_555
C15 C5 1_555 1_555
H9 C15 1_555 1_555
C16 C6 1_555 1_555
H10 C16 1_555 1_555
C17 C8 1_555 1_555
H11 C17 1_555 1_555
C18 H12 1_555 1_555
C19 N3 1_555 1_555
C20 N1 1_555 1_555
H13 C20 1_555 1_555
C21 C2 1_555 1_555
H14 C21 1_555 1_555
H15 C21 1_555 1_555
H16 C21 1_555 1_555
C22 N2 1_555 1_555
H17 C22 1_555 1_555
C23 C16 1_555 1_555
H18 C23 1_555 1_555
C24 O4 1_555 1_555
C25 C13 1_555 1_555
H19 C25 1_555 1_555
C26 C19 1_555 1_555
H20 C26 1_555 1_555
H21 C26 1_555 1_555
H22 C26 1_555 1_555
C27 C7 1_555 1_555
H23 C27 1_555 1_555
C28 C11 1_555 1_555
H24 C28 1_555 1_555
N1A C2A 1_555 1_555
N2A C2A 1_555 1_555
C2A C21A 1_555 1_555
C6A C23 1_555 1_555
C16A C6A 1_555 1_555
H10A C16A 1_555 1_555
C20A N1A 1_555 1_555
H13A C20A 1_555 1_555
C21A H14A 1_555 1_555
H15A C21A 1_555 1_555
H16A C21A 1_555 1_555
C22A N2A 1_555 1_555
H17A C22A 1_555 1_555
C23A C6 1_555 1_555
H18A C23A 1_555 1_555
N3A C10A 1_555 1_555
N4A C9A 1_555 1_555
C9A H6A 1_555 1_555
C10A C9A 1_555 1_555
H7A C10A 1_555 1_555
C11A C18 1_555 1_555
C18A C11 1_555 1_555
H12A C18A 1_555 1_555
C19A N3A 1_555 1_555
C26A C19A 1_555 1_555
H20A C26A 1_555 1_555
H21A C26A 1_555 1_555
H22A C26A 1_555 1_555
C28A C11A 1_555 1_555
H24A C28A 1_555 1_555
Ni1A O1 1_555 1_555
O1A Ni1 1_555 1_555
O2A Ni1 1_555 1_555
O3A Ni1A 1_555 1_555
H1A O3A 1_555 1_555
H2A O3A 1_555 1_555
O4A Ni1A 1_555 1_555
C1A C3A 1_555 1_555
O5A C24A 1_555 1_555
C3A O1A 1_555 1_555
C4A C1A 1_555 1_555
C5A H3A 1_555 1_555
C7A C1A 1_555 1_555
H4A C7A 1_555 1_555
C8A H5A 1_555 1_555
C12A C15A 1_555 1_555
C13A C4A 1_555 1_555
H8A C13A 1_555 1_555
C14A C4A 1_555 1_555
C15A C5A 1_555 1_555
H9A C15A 1_555 1_555
C17A C8A 1_555 1_555
H11A C17A 1_555 1_555
C24A O4A 1_555 1_555
C25A C13A 1_555 1_555
H19A C25A 1_555 1_555
C27A C7A 1_555 1_555
H23A C27A 1_555 1_555
Ni1A_2 N3A 1_555 1_555
Ni1A_3 N2A 1_555 1_555
N2A_2 Ni1A 1_555 1_555
N3A_2 Ni1A 1_555 1_555
O2 Ni1A 1_555 1_555
N4 C19 1_555 1_555
C5 C14 1_555 1_555
C8 C14 1_555 1_555
C9 C10 1_555 1_555
C12 C17 1_555 1_555
C12 C24 1_555 1_555
C18 C28 1_555 1_555
C20 C22 1_555 1_555
C25 C27 1_555 1_555
N1A C6A 1_555 1_555
C16A C23A 1_555 1_555
C20A C22A 1_555 1_555
N4A C11A 1_555 1_555
N4A C19A 1_555 1_555
C18A C28A 1_555 1_555
O2A C3A 1_555 1_555
C5A C14A 1_555 1_555
C8A C14A 1_555 1_555
C12A C17A 1_555 1_555
C12A C24A 1_555 1_555
C25A C27A 1_555 1_555

#END
