
#######################################################################
#
#                 Cambridge Crystallographic Data Centre
#                                CCDC 
#
#######################################################################
#
# If this CIF has been generated from an entry in the Cambridge 
# Structural Database, then it will include bibliographic, chemical, 
# crystal, experimental, refinement or atomic coordinate data resulting 
# from the CCDC's data processing and validation procedures.
#
#######################################################################

data_KOFNUQ
_symmetry_cell_setting           monoclinic
_symmetry_space_group_name_H-M   'P 21'
_symmetry_Int_Tables_number      4
_space_group_name_Hall           'P 2yb'
loop_
_symmetry_equiv_pos_site_id
_symmetry_equiv_pos_as_xyz
1 x,y,z
2 -x,1/2+y,-z
_cell_length_a                   18.2534(7)
_cell_length_b                   11.7797(5)
_cell_length_c                   18.7372(8)
_cell_angle_alpha                90
_cell_angle_beta                 91.4750(10)
_cell_angle_gamma                90
_cell_volume                     4027.53
loop_
_atom_site_label
_atom_site_type_symbol
_atom_site_fract_x
_atom_site_fract_y
_atom_site_fract_z
Cd1 Cd 0.206153(19) 0.83691(3) 0.00868(2)
O1 O 0.6174(3) 0.9215(5) 0.0014(3)
N1 N 0.2371(3) 0.4884(4) -0.1070(3)
C1 C 0.4048(3) 0.8362(5) -0.1048(3)
Cd2 Cd 0.293460(19) 0.55768(3) -0.00884(2)
O2 O 0.6166(2) 1.0484(5) -0.0810(3)
N2 N 0.1668(3) 0.4770(5) -0.2053(3)
C2 C 0.4560(3) 0.9286(7) -0.0686(4)
Cd3 Cd -0.204492(19) 0.79735(4) -0.41932(2)
O3 O 0.3080(2) 0.7404(4) -0.0454(3)
N3 N -0.1159(3) 0.5943(5) -0.2443(3)
C3 C 0.5316(4) 0.8974(7) -0.0952(4)
H1 H 0.5345 0.9131 -0.1464
Cd4 Cd 0.701081(19) 0.65976(3) 0.42815(2)
O4 O 0.1898(2) 0.6548(4) 0.0392(3)
N4 N -0.1742(2) 0.6694(4) -0.3368(2)
C4 C 0.5331(5) 0.7645(7) -0.0811(7)
H2 H 0.5634 0.7262 -0.1153
H3 H 0.5519 0.7480 -0.0333
O5 O -0.1093(3) 0.4566(5) -0.0059(3)
N5 N 0.2641(3) 0.9020(6) 0.1062(3)
C5 C 0.4524(5) 0.7268(9) -0.0898(7)
H4 H 0.4366 0.6895 -0.0467
H5 H 0.4470 0.6740 -0.1293
O6 O -0.1206(2) 0.3484(4) 0.0846(2)
N6 N 0.3375(4) 0.9189(10) 0.2013(4)
C6 C 0.5929(4) 0.9616(7) -0.0531(4)
O7 O 0.2108(3) 0.4809(5) 0.0715(3)
N7 N 0.6234(3) 0.8539(5) 0.2439(3)
C7 C 0.4422(5) 1.0507(7) -0.1056(6)
H6 H 0.4803 1.0656 -0.1387
H7 H 0.4425 1.1086 -0.0696
H8 H 0.3956 1.0504 -0.1306
O8 O 0.2933(3) 0.9165(5) -0.0635(3)
N8 N 0.6776(3) 0.7831(4) 0.3427(3)
C8 C 0.4489(4) 0.9402(8) 0.0073(4)
H9 H 0.4000 0.9641 0.0175
H10 H 0.4832 0.9958 0.0251
H11 H 0.4587 0.8685 0.0299
O9 O 0.80915(19) 0.6580(4) 0.4909(2)
C9 C 0.3881(5) 0.8534(14) -0.1787(5)
H12 H 0.3550 0.7953 -0.1954
H13 H 0.4324 0.8500 -0.2052
H14 H 0.3656 0.9265 -0.1853
O10 O 1.1344(3) 0.4087(5) 0.4870(3)
C10 C 0.3313(3) 0.8270(6) -0.0683(3)
O11 O 1.1284(3) 0.4454(5) 0.3757(3)
C11 C 0.1704(3) 0.5649(6) 0.0726(3)
O12 O 0.8229(2) 0.6065(5) 0.3824(3)
C12 C 0.0954(3) 0.5611(5) 0.1077(3)
O13 O 0.68349(19) 0.7917(4) 0.5176(2)
C13 C 0.0333(3) 0.5368(4) 0.0514(3)
O14 O 0.6784(2) 0.8347(5) 0.6292(2)
C14 C -0.0268(3) 0.4879(5) 0.0956(3)
H15 H -0.0483 0.5514 0.1216
O15 O 0.3700(3) 1.0173(4) 0.6298(3)
C15 C 0.0113(4) 0.4125(7) 0.1511(4)
H16 H -0.0121 0.4195 0.1968
H17 H 0.0092 0.3336 0.1362
O16 O 0.3738(2) 1.0360(4) 0.5142(2)
C16 C 0.0901(3) 0.4524(6) 0.1569(4)
H18 H 0.1230 0.3936 0.1408
H19 H 0.1032 0.4713 0.2060
C17 C -0.0895(3) 0.4273(5) 0.0574(3)
C18 C 0.0593(3) 0.4510(6) -0.0052(4)
H20 H 0.1008 0.4816 -0.0291
H21 H 0.0203 0.4370 -0.0395
H22 H 0.0730 0.3810 0.0178
C19 C 0.0090(4) 0.6440(6) 0.0111(4)
H23 H -0.0065 0.7002 0.0446
H24 H -0.0309 0.6259 -0.0213
H25 H 0.0493 0.6731 -0.0153
C20 C 0.0825(4) 0.6688(7) 0.1502(4)
H26 H 0.1147 0.6699 0.1915
H27 H 0.0325 0.6708 0.1651
H28 H 0.0920 0.7338 0.1210
C21 C 0.1995(3) 0.5444(6) -0.1570(3)
H29 H 0.1962 0.6232 -0.1583
C22 C 0.1832(3) 0.3664(5) -0.1866(4)
C23 C 0.1673(4) 0.2634(7) -0.2183(4)
H30 H 0.1419 0.2598 -0.2619
C24 C 0.1905(5) 0.1636(9) -0.1830(5)
H31 H 0.1764 0.0926 -0.2000
C25 C 0.2335(4) 0.1737(7) -0.1242(5)
H32 H 0.2516 0.1072 -0.1035
C26 C 0.2535(4) 0.2774(5) -0.0913(4)
H33 H 0.2831 0.2805 -0.0502
C27 C 0.2258(3) 0.3754(5) -0.1245(3)
C28 C 0.1182(3) 0.5101(8) -0.2661(3)
H34 H 0.1274 0.4606 -0.3063
H35 H 0.1297 0.5871 -0.2803
C29 C 0.0369(4) 0.5032(8) -0.2482(4)
H36 H 0.0078 0.5084 -0.2921
H37 H 0.0273 0.4297 -0.2270
C30 C 0.0133(4) 0.5903(8) -0.2000(4)
H38 H 0.0229 0.6635 -0.2215
H39 H 0.0431 0.5853 -0.1565
C31 C -0.0678(4) 0.5865(7) -0.1798(3)
H40 H -0.0776 0.5162 -0.1549
H41 H -0.0782 0.6490 -0.1480
C32 C -0.1307(3) 0.6872(5) -0.2813(3)
H42 H -0.1121 0.7583 -0.2691
C33 C -0.1885(3) 0.5544(6) -0.3362(3)
C34 C -0.2319(3) 0.4887(5) -0.3823(3)
H43 H -0.2572 0.5200 -0.4213
C35 C -0.2352(4) 0.3746(6) -0.3668(4)
H44 H -0.2617 0.3268 -0.3973
C36 C -0.1994(4) 0.3281(7) -0.3059(4)
H45 H -0.2056 0.2516 -0.2954
C37 C -0.1561(4) 0.3927(6) -0.2624(4)
H46 H -0.1303 0.3613 -0.2237
C38 C -0.1518(3) 0.5067(5) -0.2776(3)
C39 C 0.3062(4) 0.8450(9) 0.1536(4)
H47 H 0.3131 0.7667 0.1539
C40 C 0.3148(4) 1.0274(11) 0.1863(4)
C41 C 0.3288(7) 1.1366(15) 0.2164(6)
H48 H 0.3608 1.1440 0.2556
C42 C 0.2954(7) 1.2298(14) 0.1879(9)
H49 H 0.3000 1.3003 0.2099
C43 C 0.2534(5) 1.2170(10) 0.1239(6)
H50 H 0.2348 1.2815 0.1013
C44 C 0.2387(4) 1.1096(8) 0.0932(5)
H51 H 0.2088 1.1022 0.0526
C45 C 0.2695(3) 1.0193(8) 0.1247(4)
C46 C 0.3865(4) 0.8755(10) 0.2623(4)
H52 H 0.3837 0.7934 0.2656
H53 H 0.3720 0.9080 0.3074
C47 C 0.4684(6) 0.9155(13) 0.2429(6)
H54 H 0.4669 0.9926 0.2249
H55 H 0.4993 0.9145 0.2858
C48 C 0.4950(5) 0.8515(11) 0.1971(5)
H56 H 0.4669 0.8626 0.1530
H57 H 0.4865 0.7740 0.2123
C49 C 0.5770(4) 0.8613(7) 0.1791(3)
H58 H 0.5898 0.8008 0.1465
H59 H 0.5856 0.9332 0.1554
C50 C 0.6383(4) 0.7609(5) 0.2832(4)
H60 H 0.6228 0.6884 0.2702
C51 C 0.8500(3) 0.6301(4) 0.4414(3)
C52 C 0.9317(3) 0.6338(5) 0.4538(3)
H61 H 0.9471 0.7108 0.4415
C53 C 0.9795(3) 0.5531(6) 0.4109(3)
C54 C 1.0561(3) 0.5599(6) 0.4535(4)
C55 C 1.0332(3) 0.5643(9) 0.5326(3)
H62 H 1.0332 0.4886 0.5530
H63 H 1.0670 0.6112 0.5604
C56 C 0.9565(3) 0.6148(7) 0.5330(3)
H64 H 0.9569 0.6863 0.5587
H65 H 0.9231 0.5633 0.5562
C57 C 1.0969(4) 0.6723(8) 0.4383(7)
H66 H 1.1135 0.6718 0.3901
H67 H 1.1383 0.6795 0.4707
H68 H 1.0643 0.7351 0.4447
C58 C 1.1087(3) 0.4643(5) 0.4366(4)
C59 C 0.9516(4) 0.4314(6) 0.4173(5)
H69 H 0.9509 0.4103 0.4668
H70 H 0.9835 0.3811 0.3924
H71 H 0.9029 0.4263 0.3969
C60 C 0.9815(5) 0.5763(11) 0.3334(4)
H72 H 0.9367 0.5504 0.3108
H73 H 1.0222 0.5371 0.3134
H74 H 0.9867 0.6565 0.3258
C61 C 0.6463(3) 0.8114(4) 0.5728(3)
C62 C 0.5621(3) 0.8005(5) 0.5664(3)
H75 H 0.5514 0.7445 0.5289
C63 C 0.5218(3) 0.9077(7) 0.5457(5)
C64 C 0.4431(3) 0.8790(5) 0.5651(4)
C65 C 0.4533(5) 0.8190(10) 0.6364(6)
H76 H 0.4137 0.7657 0.6434
H77 H 0.4534 0.8738 0.6751
C66 C 0.5275(4) 0.7556(8) 0.6355(5)
H78 H 0.5204 0.6741 0.6334
H79 H 0.5577 0.7741 0.6772
C67 C 0.4094(7) 0.8021(10) 0.5101(7)
H80 H 0.4303 0.7277 0.5149
H81 H 0.4188 0.8313 0.4634
H82 H 0.3575 0.7981 0.5166
C68 C 0.5297(5) 0.9313(11) 0.4657(5)
H83 H 0.5790 0.9545 0.4568
H84 H 0.4964 0.9906 0.4512
H85 H 0.5185 0.8636 0.4391
C69 C 0.5497(3) 1.0106(6) 0.5826(5)
H86 H 0.5439 1.0023 0.6331
H87 H 0.5225 1.0756 0.5660
H88 H 0.6006 1.0206 0.5727
C70 C 0.3921(3) 0.9846(5) 0.5696(4)
C71 C 0.6903(3) 0.8986(5) 0.3414(3)
C72 C 0.7291(4) 0.9667(6) 0.3882(4)
H89 H 0.7522 0.9380 0.4292
C73 C 0.7319(5) 1.0798(7) 0.3708(5)
H90 H 0.7582 1.1281 0.4012
C74 C 0.6975(4) 1.1267(6) 0.3100(5)
H91 H 0.7008 1.2041 0.3008
C75 C 0.6598(4) 1.0584(7) 0.2652(4)
H92 H 0.6366 1.0878 0.2245
C76 C 0.6558(3) 0.9448(5) 0.2802(3)
Cd1A Cd -0.206153(19) 0.33691(3) -0.00868(2)
O1A O 0.3826(3) 0.4215(5) -0.0014(3)
Cd2A Cd 0.706540(19) 1.05768(3) 0.00884(2)
O2A O 0.3834(2) 0.5484(5) 0.0810(3)
Cd3_2 Cd 0.795508(19) 0.79735(4) 0.58068(2)
Cd3A Cd 1.204492(19) 0.29735(4) 0.41932(2)
Cd4A Cd 0.298919(19) 1.15976(3) 0.57185(2)
O5A O 0.1093(3) 0.9566(5) 0.0059(3)
O6A O 0.1206(2) 0.8484(4) -0.0846(2)
O9_2 O -0.19085(19) 0.6580(4) -0.5091(2)
O10A O -0.1344(3) 0.9087(5) -0.4870(3)
O11A O -0.1284(3) 0.9454(5) -0.3757(3)
O13_2 O -0.31651(19) 0.7917(4) -0.4824(2)
O14_2 O -0.3216(2) 0.8347(5) -0.3708(2)
O15A O 0.6300(3) 0.5173(4) 0.3702(3)
O16A O 0.6262(2) 0.5360(4) 0.4858(2)
loop_
_geom_bond_atom_site_label_1
_geom_bond_atom_site_label_2
_geom_bond_site_symmetry_1
_geom_bond_site_symmetry_2
Cd1 O3 1_555 1_555
O1 C6 1_555 1_555
N1 Cd2 1_555 1_555
C1 C2 1_555 1_555
Cd2 O3 1_555 1_555
O2 C6 1_555 1_555
N2 C21 1_555 1_555
C2 C3 1_555 1_555
Cd3 N4 1_555 1_555
O3 C10 1_555 1_555
N3 C31 1_555 1_555
C3 H1 1_555 1_555
Cd4 N8 1_555 1_555
O4 Cd1 1_555 1_555
N4 C32 1_555 1_555
C4 C3 1_555 1_555
H2 C4 1_555 1_555
H3 C4 1_555 1_555
O5 C17 1_555 1_555
N5 Cd1 1_555 1_555
C5 C1 1_555 1_555
H4 C5 1_555 1_555
H5 C5 1_555 1_555
O6 C17 1_555 1_555
N6 C39 1_555 1_555
C6 C3 1_555 1_555
O7 Cd2 1_555 1_555
N7 C49 1_555 1_555
C7 C2 1_555 1_555
H6 C7 1_555 1_555
H7 C7 1_555 1_555
H8 C7 1_555 1_555
O8 Cd1 1_555 1_555
N8 C50 1_555 1_555
C8 C2 1_555 1_555
H9 C8 1_555 1_555
H10 C8 1_555 1_555
H11 C8 1_555 1_555
O9 Cd4 1_555 1_555
C9 C1 1_555 1_555
H12 C9 1_555 1_555
H13 C9 1_555 1_555
H14 C9 1_555 1_555
O10 C58 1_555 1_555
C10 C1 1_555 1_555
O11 C58 1_555 1_555
C11 O4 1_555 1_555
O12 Cd4 1_555 1_555
C12 C11 1_555 1_555
O13 Cd4 1_555 1_555
C13 C12 1_555 1_555
O14 C61 1_555 1_555
C14 C13 1_555 1_555
H15 C14 1_555 1_555
O15 C70 1_555 1_555
C15 C14 1_555 1_555
H16 C15 1_555 1_555
H17 C15 1_555 1_555
O16 C70 1_555 1_555
C16 C12 1_555 1_555
H18 C16 1_555 1_555
H19 C16 1_555 1_555
C17 C14 1_555 1_555
C18 C13 1_555 1_555
H20 C18 1_555 1_555
H21 C18 1_555 1_555
H22 C18 1_555 1_555
C19 C13 1_555 1_555
H23 C19 1_555 1_555
H24 C19 1_555 1_555
H25 C19 1_555 1_555
C20 C12 1_555 1_555
H26 C20 1_555 1_555
H27 C20 1_555 1_555
H28 C20 1_555 1_555
C21 N1 1_555 1_555
H29 C21 1_555 1_555
C22 N2 1_555 1_555
C23 C22 1_555 1_555
H30 C23 1_555 1_555
C24 C23 1_555 1_555
H31 C24 1_555 1_555
C25 C24 1_555 1_555
H32 C25 1_555 1_555
C26 C25 1_555 1_555
H33 C26 1_555 1_555
C27 N1 1_555 1_555
C28 N2 1_555 1_555
H34 C28 1_555 1_555
H35 C28 1_555 1_555
C29 C28 1_555 1_555
H36 C29 1_555 1_555
H37 C29 1_555 1_555
C30 C29 1_555 1_555
H38 C30 1_555 1_555
H39 C30 1_555 1_555
C31 C30 1_555 1_555
H40 C31 1_555 1_555
H41 C31 1_555 1_555
C32 N3 1_555 1_555
H42 C32 1_555 1_555
C33 N4 1_555 1_555
C34 C33 1_555 1_555
H43 C34 1_555 1_555
C35 C34 1_555 1_555
H44 C35 1_555 1_555
C36 C35 1_555 1_555
H45 C36 1_555 1_555
C37 C36 1_555 1_555
H46 C37 1_555 1_555
C38 N3 1_555 1_555
C39 N5 1_555 1_555
H47 C39 1_555 1_555
C40 N6 1_555 1_555
C41 C40 1_555 1_555
H48 C41 1_555 1_555
C42 C41 1_555 1_555
H49 C42 1_555 1_555
C43 C42 1_555 1_555
H50 C43 1_555 1_555
C44 C43 1_555 1_555
H51 C44 1_555 1_555
C45 N5 1_555 1_555
C46 N6 1_555 1_555
H52 C46 1_555 1_555
H53 C46 1_555 1_555
C47 C46 1_555 1_555
H54 C47 1_555 1_555
H55 C47 1_555 1_555
C48 C47 1_555 1_555
H56 C48 1_555 1_555
H57 C48 1_555 1_555
C49 C48 1_555 1_555
H58 C49 1_555 1_555
H59 C49 1_555 1_555
C50 N7 1_555 1_555
H60 C50 1_555 1_555
C51 O9 1_555 1_555
C52 C51 1_555 1_555
H61 C52 1_555 1_555
C53 C52 1_555 1_555
C54 C53 1_555 1_555
C55 C54 1_555 1_555
H62 C55 1_555 1_555
H63 C55 1_555 1_555
C56 C52 1_555 1_555
H64 C56 1_555 1_555
H65 C56 1_555 1_555
C57 C54 1_555 1_555
H66 C57 1_555 1_555
H67 C57 1_555 1_555
H68 C57 1_555 1_555
C58 C54 1_555 1_555
C59 C53 1_555 1_555
H69 C59 1_555 1_555
H70 C59 1_555 1_555
H71 C59 1_555 1_555
C60 C53 1_555 1_555
H72 C60 1_555 1_555
H73 C60 1_555 1_555
H74 C60 1_555 1_555
C61 O13 1_555 1_555
C62 C61 1_555 1_555
H75 C62 1_555 1_555
C63 C62 1_555 1_555
C64 C63 1_555 1_555
C65 C64 1_555 1_555
H76 C65 1_555 1_555
H77 C65 1_555 1_555
C66 C62 1_555 1_555
H78 C66 1_555 1_555
H79 C66 1_555 1_555
C67 C64 1_555 1_555
H80 C67 1_555 1_555
H81 C67 1_555 1_555
H82 C67 1_555 1_555
C68 C63 1_555 1_555
H83 C68 1_555 1_555
H84 C68 1_555 1_555
H85 C68 1_555 1_555
C69 C63 1_555 1_555
H86 C69 1_555 1_555
H87 C69 1_555 1_555
H88 C69 1_555 1_555
C70 C64 1_555 1_555
C71 N8 1_555 1_555
C72 C71 1_555 1_555
H89 C72 1_555 1_555
C73 C72 1_555 1_555
H90 C73 1_555 1_555
C74 C73 1_555 1_555
H91 C74 1_555 1_555
C75 C74 1_555 1_555
H92 C75 1_555 1_555
C76 N7 1_555 1_555
Cd1A O5 1_555 1_555
O1A Cd2 1_555 1_555
Cd2A O1 1_555 1_555
O2A Cd2 1_555 1_555
Cd3_2 O9 1_555 1_555
Cd3A O10 1_555 1_555
Cd4A O15 1_555 1_555
O5A Cd1 1_555 1_555
O6A Cd1 1_555 1_555
O9_2 Cd3 1_555 1_555
O10A Cd3 1_555 1_555
O11A Cd3 1_555 1_555
O13_2 Cd3 1_555 1_555
O14_2 Cd3 1_555 1_555
O15A Cd4 1_555 1_555
O16A Cd4 1_555 1_555
Cd2 O4 1_555 1_555
O2 Cd2A 1_555 1_555
C4 C5 1_555 1_555
O6 Cd1A 1_555 1_555
O7 C11 1_555 1_555
O8 C10 1_555 1_555
O11 Cd3A 1_555 1_555
O12 C51 1_555 1_555
O13 Cd3_2 1_555 1_555
O14 Cd3_2 1_555 1_555
C15 C16 1_555 1_555
O16 Cd4A 1_555 1_555
C22 C27 1_555 1_555
C26 C27 1_555 1_555
C33 C38 1_555 1_555
C37 C38 1_555 1_555
C40 C45 1_555 1_555
C44 C45 1_555 1_555
C55 C56 1_555 1_555
C65 C66 1_555 1_555
C71 C76 1_555 1_555
C75 C76 1_555 1_555

#END
