
#######################################################################
#
#                 Cambridge Crystallographic Data Centre
#                                CCDC 
#
#######################################################################
#
# If this CIF has been generated from an entry in the Cambridge 
# Structural Database, then it will include bibliographic, chemical, 
# crystal, experimental, refinement or atomic coordinate data resulting 
# from the CCDC's data processing and validation procedures.
#
#######################################################################

data_KOFPAY
_symmetry_cell_setting           monoclinic
_symmetry_space_group_name_H-M   'P 21/c'
_symmetry_Int_Tables_number      14
_space_group_name_Hall           '-P 2ybc'
loop_
_symmetry_equiv_pos_site_id
_symmetry_equiv_pos_as_xyz
1 x,y,z
2 -x,1/2+y,1/2-z
3 -x,-y,-z
4 x,1/2-y,1/2+z
_cell_length_a                   11.0986(11)
_cell_length_b                   9.4400(10)
_cell_length_c                   15.9969(13)
_cell_angle_alpha                90
_cell_angle_beta                 112.611(5)
_cell_angle_gamma                90
_cell_volume                     1547.18
loop_
_atom_site_label
_atom_site_type_symbol
_atom_site_fract_x
_atom_site_fract_y
_atom_site_fract_z
Cd1 Cd 0.452632(15) -0.376465(17) -0.125862(10)
Cl1 Cl -0.08991(6) -0.30686(7) -0.14807(4)
Cl2 Cl 0.85495(7) 0.05461(9) 0.01255(5)
N1 N 0.5115(2) -0.1553(2) -0.26746(13)
N2 N 0.53180(19) -0.1979(2) -0.18456(13)
N3 N 0.6349(2) 0.0047(2) -0.17436(13)
N4 N 0.5738(2) -0.0342(2) -0.26049(13)
N5 N 0.22898(18) -0.3069(2) -0.20489(13)
N6 N 0.1529(2) -0.4472(3) -0.01809(15)
N7 N 0.33243(18) -0.4439(2) -0.04508(12)
N8 N 0.2482(2) -0.5133(3) 0.04943(15)
N9 N 0.35545(18) -0.5106(2) 0.03333(13)
N10 N 0.54810(18) -0.1823(2) -0.01087(13)
C1 C 0.2073(2) -0.4057(2) -0.07503(16)
C2 C 0.0181(2) -0.2815(3) -0.20042(16)
C3 C 0.1469(2) -0.3294(2) -0.16177(15)
C4 C -0.0243(2) -0.2120(3) -0.28323(17)
H1 H -0.1095 -0.1786 -0.3092
C5 C 0.0596(2) -0.1925(3) -0.32697(17)
H2 H 0.0323 -0.1473 -0.3829
C6 C 0.1862(2) -0.2424(3) -0.28498(16)
H3 H 0.2437 -0.2302 -0.3140
C7 C 0.6070(2) -0.0985(2) -0.12849(16)
C8 C 0.6347(2) -0.1042(2) -0.03141(16)
C9 C 0.7366(2) -0.0344(3) 0.03641(17)
C10 C 0.7435(2) -0.0384(3) 0.12433(16)
H4 H 0.8102 0.0087 0.1701
C11 C 0.6509(2) -0.1124(3) 0.14369(16)
H5 H 0.6518 -0.1135 0.2021
C12 C 0.5562(2) -0.1853(3) 0.07431(16)
H6 H 0.4956 -0.2388 0.0878
Cd1A Cd 0.547368(15) 0.123535(17) -0.374138(10)
Cd1B Cd 0.547368(15) -0.623535(17) 0.125862(10)
N4A N 0.4262(2) -0.5342(2) -0.23951(13)
N9B N 0.64455(18) -0.4894(2) -0.03333(13)
loop_
_geom_bond_atom_site_label_1
_geom_bond_atom_site_label_2
_geom_bond_site_symmetry_1
_geom_bond_site_symmetry_2
Cd1 N2 1_555 1_555
Cl1 C2 1_555 1_555
Cl2 C9 1_555 1_555
N1 N2 1_555 1_555
N2 C7 1_555 1_555
N3 N4 1_555 1_555
N4 N1 1_555 1_555
N5 Cd1 1_555 1_555
N6 N8 1_555 1_555
N7 Cd1 1_555 1_555
N8 N9 1_555 1_555
N9 N7 1_555 1_555
N10 Cd1 1_555 1_555
C1 N6 1_555 1_555
C2 C3 1_555 1_555
C3 N5 1_555 1_555
C4 C2 1_555 1_555
H1 C4 1_555 1_555
C5 C4 1_555 1_555
H2 C5 1_555 1_555
C6 N5 1_555 1_555
H3 C6 1_555 1_555
C7 N3 1_555 1_555
C8 N10 1_555 1_555
C9 C8 1_555 1_555
C10 C9 1_555 1_555
H4 C10 1_555 1_555
C11 C10 1_555 1_555
H5 C11 1_555 1_555
C12 N10 1_555 1_555
H6 C12 1_555 1_555
Cd1A N4 1_555 1_555
Cd1B N9 1_555 1_555
N4A Cd1 1_555 1_555
N9B Cd1 1_555 1_555
N7 C1 1_555 1_555
C1 C3 1_555 1_555
C5 C6 1_555 1_555
C7 C8 1_555 1_555
C11 C12 1_555 1_555

#END
