
#######################################################################
#
#                 Cambridge Crystallographic Data Centre
#                                CCDC 
#
#######################################################################
#
# If this CIF has been generated from an entry in the Cambridge 
# Structural Database, then it will include bibliographic, chemical, 
# crystal, experimental, refinement or atomic coordinate data resulting 
# from the CCDC's data processing and validation procedures.
#
#######################################################################

data_KOFQON
_symmetry_cell_setting           triclinic
_symmetry_space_group_name_H-M   'P -1'
_symmetry_Int_Tables_number      2
_space_group_name_Hall           '-P 1'
loop_
_symmetry_equiv_pos_site_id
_symmetry_equiv_pos_as_xyz
1 x,y,z
2 -x,-y,-z
_cell_length_a                   14.211(3)
_cell_length_b                   15.006(3)
_cell_length_c                   15.894(3)
_cell_angle_alpha                73.59(3)
_cell_angle_beta                 68.99(3)
_cell_angle_gamma                89.32(3)
_cell_volume                     3020.01
loop_
_atom_site_label
_atom_site_type_symbol
_atom_site_fract_x
_atom_site_fract_y
_atom_site_fract_z
Zn1 Zn 1.0000 0.5000 0.5000
O1 O 1.1111(7) 0.4085(6) 0.5207(6)
N1 N 0.8968(8) 0.4111(7) 0.6400(7)
N2 N 0.9518(9) 0.4172(8) 0.4316(8)
C1 C 0.8098(10) 0.4311(9) 0.6872(9)
C2 C 0.9143(10) 0.3270(9) 0.6985(10)
C3 C 0.9624(10) 0.4403(9) 0.3415(10)
C4 C 0.8796(11) 0.3452(10) 0.4737(12)
N3 N 0.7662(8) 0.3594(8) 0.7766(8)
H1 H 0.7792 0.4838 0.6670
H2 H 0.9717 0.2954 0.6827
C5 C 0.8358(10) 0.3012(9) 0.7791(10)
N4 N 0.9023(8) 0.3842(7) 0.3271(8)
H3 H 1.0064 0.4898 0.2944
H4 H 0.8539 0.3166 0.5386
C6 C 0.8470(11) 0.3173(9) 0.4138(9)
C7 C 0.6704(9) 0.3654(8) 0.8475(9)
H5 H 0.8304 0.2495 0.8301
C8 C 0.9022(9) 0.3825(8) 0.2366(9)
H6 H 0.8007 0.2674 0.4266
N5 N 0.6729(9) 0.3582(8) 0.9298(8)
C9 C 0.5824(11) 0.3744(9) 0.8264(10)
N6 N 0.9929(9) 0.3897(9) 0.1694(8)
C10 C 0.8104(10) 0.3783(8) 0.2215(9)
C11 C 0.5827(5) 0.3667(6) 0.9976(5)
N7 N 0.5786(8) 0.3766(7) 0.7387(7)
N8 N 0.4957(8) 0.3802(7) 0.8898(8)
C12 C 0.9905(6) 0.3851(6) 0.0840(4)
N9 N 0.7148(8) 0.3767(7) 0.2957(7)
N10 N 0.8064(9) 0.3715(7) 0.1431(8)
C13 C 0.5796(5) 0.3633(6) 1.0869(6)
C14 C 0.4958(6) 0.3806(6) 0.9765(5)
C15 C 0.5231(10) 0.4317(8) 0.6932(9)
C16 C 0.6324(11) 0.3221(9) 0.6812(10)
C17 C 0.8992(4) 0.3719(6) 0.0735(5)
C18 C 1.0815(4) 0.3891(6) 0.0100(5)
C19 C 0.6882(10) 0.4415(9) 0.3445(9)
C20 C 0.6300(9) 0.3153(8) 0.3228(9)
H7 H 0.6377 0.3539 1.1010
C21 C 0.4897(6) 0.3739(6) 1.1550(5)
C22 C 0.4059(5) 0.3912(7) 1.0447(6)
N11 N 0.5367(8) 0.4159(7) 0.6141(7)
H8 H 0.4814 0.4745 0.7161
C23 C 0.6053(11) 0.3490(9) 0.6054(11)
H9 H 0.6763 0.2780 0.6928
C24 C 0.8989(5) 0.3628(6) -0.0111(6)
C25 C 1.0813(5) 0.3800(6) -0.0745(5)
H10 H 1.1426 0.3979 0.0171
N12 N 0.5921(8) 0.4220(7) 0.4038(7)
H11 H 0.7313 0.4916 0.3370
C26 C 0.5563(9) 0.3424(8) 0.3884(8)
H12 H 0.6252 0.2654 0.3002
H13 H 0.4876 0.3716 1.2148
C27 C 0.4028(5) 0.3879(7) 1.1339(5)
H14 H 0.3477 0.4006 1.0305
Zn2 Zn 0.5000 0.5000 0.5000
H15 H 0.6293 0.3258 0.5539
H16 H 0.8378 0.3541 -0.0182
C28 C 0.9900(6) 0.3669(7) -0.0851(5)
H17 H 1.1422 0.3827 -0.1240
H18 H 0.4906 0.3131 0.4196
H19 H 0.3426 0.3950 1.1795
O2 O 0.3735(6) 0.4054(6) 0.5313(6)
H20 H 0.9898 0.3608 -0.1417
O1A O 0.8889(7) 0.5915(6) 0.4793(6)
N1A N 1.1032(8) 0.5889(7) 0.3600(7)
N2A N 1.0482(9) 0.5828(8) 0.5684(8)
N12A N 0.4079(8) 0.5780(7) 0.5962(7)
O2A O 0.6265(6) 0.5946(6) 0.4687(6)
N11A N 0.4633(8) 0.5841(7) 0.3859(7)
C19A C 0.3118(10) 0.5585(9) 0.6555(9)
C26A C 0.4437(9) 0.6576(8) 0.6116(8)
C15A C 0.4769(10) 0.5683(8) 0.3068(9)
C23A C 0.3947(11) 0.6510(9) 0.3946(11)
N9A N 0.2852(8) 0.6233(7) 0.7043(7)
H11A H 0.2687 0.5084 0.6630
H18A H 0.5094 0.6869 0.5804
C20A C 0.3700(9) 0.6847(8) 0.6772(9)
N7A N 0.4214(8) 0.6234(7) 0.2613(7)
H8A H 0.5186 0.5255 0.2839
H15A H 0.3707 0.6742 0.4461
C16A C 0.3676(11) 0.6779(9) 0.3188(10)
C10A C 0.1896(10) 0.6217(8) 0.7785(9)
H12A H 0.3748 0.7346 0.6998
C9A C 0.4176(11) 0.6256(9) 0.1736(10)
H9A H 0.3237 0.7220 0.3072
N10A N 0.1936(9) 0.6285(7) 0.8569(8)
C8A C 0.0978(9) 0.6175(8) 0.7634(9)
N8A N 0.5043(8) 0.6198(7) 0.1102(8)
C7A C 0.3296(9) 0.6346(8) 0.1525(9)
C17A C 0.1008(4) 0.6281(6) 0.9265(5)
N4A N 0.0977(8) 0.6158(7) 0.6729(8)
N6A N 0.0071(9) 0.6103(9) 0.8306(8)
C14A C 0.5042(6) 0.6194(6) 0.0235(5)
N3A N 0.2338(8) 0.6406(8) 0.2234(8)
N5A N 0.3271(9) 0.6418(8) 0.0702(8)
C24A C 0.1011(5) 0.6372(6) 1.0111(6)
C12A C 0.0095(6) 0.6149(6) 0.9160(4)
C3A C 0.0376(10) 0.5597(9) 0.6585(10)
C6A C 0.1530(11) 0.6827(9) 0.5862(9)
C11A C 0.4173(5) 0.6333(6) 0.0024(5)
C22A C 0.5941(5) 0.6088(7) -0.0447(6)
C1A C 0.1902(10) 0.5689(9) 0.3128(9)
C5A C 0.1642(10) 0.6988(9) 0.2209(10)
H16A H 0.1622 0.6459 1.0182
C28A C 0.0100(6) 0.6331(7) 1.0851(5)
C18A C -0.0815(4) 0.6109(6) 0.9900(5)
N2A_2 N 0.0482(9) 0.5828(8) 0.5684(8)
H3A H -0.0064 0.5102 0.7056
C4A C 0.1204(11) 0.6548(10) 0.5263(12)
H6A H 0.1993 0.7326 0.5734
C13A C 0.4204(5) 0.6367(6) -0.0869(6)
C27A C 0.5972(5) 0.6121(7) -0.1339(5)
H14A H 0.6523 0.5994 -0.0305
N1A_2 N 0.1032(8) 0.5889(7) 0.3600(7)
H1A H 0.2208 0.5162 0.3330
C2A C 0.0857(10) 0.6730(9) 0.3015(10)
H5A H 0.1696 0.7505 0.1699
H20A H 0.0102 0.6392 1.1417
C25A C -0.0813(5) 0.6200(6) 1.0745(5)
H10A H -0.1426 0.6021 0.9829
Zn1_2 Zn 0.0000 0.5000 0.5000
H4A H 0.1461 0.6834 0.4614
H7A H 0.3623 0.6461 -0.1010
C21A C 0.5103(6) 0.6261(6) -0.1550(5)
H19A H 0.6574 0.6050 -0.1795
H2A H 0.0283 0.7046 0.3173
H17A H -0.1422 0.6173 1.1240
H13A H 0.5124 0.6284 -0.2148
Zn3 Zn 0.0000 1.0000 0.5000
Zn4 Zn 0.5000 1.0000 0.5000
O3 O 0.1110(7) 0.9112(6) 0.5200(6)
O4 O 0.3737(7) 0.9047(6) 0.5324(7)
N13 N 0.0492(7) 1.0827(6) 0.5675(7)
N14 N 0.0970(7) 1.1178(6) 0.6742(7)
N15 N 0.4067(8) 1.0776(7) 0.5978(7)
N16 N 0.2858(8) 1.1203(7) 0.7057(7)
N17 N 0.0114(7) 1.1117(6) 0.8286(7)
N18 N 0.1945(7) 1.1297(7) 0.8552(7)
N19 N 0.5381(7) 0.9170(7) 0.6119(7)
N20 N 0.5806(8) 0.8771(7) 0.7389(7)
N21 N 0.8965(8) 0.9120(7) 0.6398(8)
N22 N 0.7657(7) 0.8689(6) 0.7743(7)
N23 N 0.4925(8) 0.8851(7) 0.8905(8)
N24 N 0.6734(8) 0.8606(7) 0.9297(7)
C29 C 0.0366(9) 1.0603(8) 0.6575(9)
H21 H -0.0083 1.0111 0.7042
C30 C 0.1223(9) 1.1623(8) 0.5213(9)
H22 H 0.1456 1.1955 0.4575
C31 C 0.1521(10) 1.1811(9) 0.5881(9)
H23 H 0.2007 1.2282 0.5773
C32 C 0.3120(9) 1.0595(8) 0.6548(8)
H24 H 0.2684 1.0110 0.6596
C33 C 0.4449(11) 1.1535(9) 0.6089(10)
H25 H 0.5107 1.1824 0.5762
C34 C 0.3688(11) 1.1811(9) 0.6779(10)
H26 H 0.3738 1.2311 0.7003
C35 C 0.0969(9) 1.1148(8) 0.7630(9)
C36 C 0.1905(9) 1.1217(8) 0.7774(8)
C37 C 0.0119(6) 1.1139(6) 0.9149(5)
C38 C -0.0805(5) 1.1097(7) 0.9873(6)
H27 H -0.1407 1.1002 0.9789
C39 C -0.0830(5) 1.1197(6) 1.0724(5)
H28 H -0.1449 1.1169 1.1209
C40 C 0.0069(6) 1.1340(6) 1.0850(4)
H29 H 0.0052 1.1407 1.1419
C41 C 0.0993(5) 1.1382(6) 1.0125(5)
H30 H 0.1594 1.1477 1.0209
C42 C 0.1018(5) 1.1281(6) 0.9275(5)
C43 C 0.5261(10) 0.9307(9) 0.6950(9)
H31 H 0.4844 0.9728 0.7194
C44 C 0.6043(9) 0.8492(8) 0.6042(9)
H32 H 0.6275 0.8246 0.5537
C45 C 0.6308(9) 0.8235(8) 0.6811(9)
H33 H 0.6741 0.7787 0.6928
C46 C 0.8068(10) 0.9308(9) 0.6898(9)
H34 H 0.7755 0.9822 0.6681
C47 C 0.9142(10) 0.8318(9) 0.6953(10)
H35 H 0.9733 0.8025 0.6784
C48 C 0.8342(11) 0.7996(10) 0.7792(10)
H36 H 0.8264 0.7451 0.8280
C49 C 0.5804(8) 0.8756(7) 0.8277(8)
C50 C 0.6721(10) 0.8674(9) 0.8466(9)
C51 C 0.4933(6) 0.8788(6) 0.9798(4)
C52 C 0.4041(5) 0.8891(6) 1.0491(6)
H37 H 0.3455 0.8989 1.0359
C53 C 0.4026(5) 0.8847(6) 1.1381(5)
H38 H 0.3430 0.8916 1.1844
C54 C 0.4902(6) 0.8700(6) 1.1578(4)
H39 H 0.4892 0.8671 1.2174
C55 C 0.5794(5) 0.8598(6) 1.0885(6)
H40 H 0.6380 0.8500 1.1017
C56 C 0.5809(5) 0.8642(6) 0.9995(5)
O3A O -0.1110(7) 1.0888(6) 0.4800(6)
N13A N -0.0492(7) 0.9173(6) 0.4325(7)
N19A N 0.4619(7) 1.0830(7) 0.3881(7)
N20A N 0.4194(8) 1.1229(7) 0.2611(7)
N21A N 0.1035(8) 1.0880(7) 0.3602(8)
N22A N 0.2343(7) 1.1311(6) 0.2257(7)
N23A N 0.5075(8) 1.1149(7) 0.1095(8)
N24A N 0.3266(8) 1.1394(7) 0.0703(7)
C43A C 0.4739(10) 1.0693(9) 0.3050(9)
H31A H 0.5156 1.0272 0.2806
C44A C 0.3957(9) 1.1508(8) 0.3958(9)
H32A H 0.3725 1.1754 0.4463
C45A C 0.3692(9) 1.1765(8) 0.3189(9)
H33A H 0.3259 1.2213 0.3072
C46A C 0.1932(10) 1.0692(9) 0.3102(9)
H34A H 0.2245 1.0178 0.3319
C47A C 0.0858(10) 1.1682(9) 0.3047(10)
H35A H 0.0267 1.1975 0.3216
C48A C 0.1658(11) 1.2004(10) 0.2208(10)
H36A H 0.1736 1.2549 0.1720
C49A C 0.4196(8) 1.1244(7) 0.1723(8)
C50A C 0.3279(10) 1.1326(9) 0.1534(9)
C51A C 0.5067(6) 1.1212(6) 0.0202(4)
C52A C 0.5959(5) 1.1109(6) -0.0491(6)
H37A H 0.6545 1.1011 -0.0359
C53A C 0.5974(5) 1.1153(6) -0.1381(5)
H38A H 0.6570 1.1084 -0.1844
C54A C 0.5098(6) 1.1300(6) -0.1578(4)
H39A H 0.5108 1.1329 -0.2174
C55A C 0.4206(5) 1.1402(6) -0.0885(6)
H40A H 0.3620 1.1500 -0.1017
C56A C 0.4191(5) 1.1358(6) 0.0005(5)
O4A O 0.6263(7) 1.0953(6) 0.4676(7)
Zn3_2 Zn 1.0000 1.0000 0.5000
N15A N 0.5933(8) 0.9224(7) 0.4022(7)
N21_2 N -0.1035(8) 0.9120(7) 0.6398(8)
N13A_2 N 0.9508(7) 0.9173(6) 0.4325(7)
C29A C 0.9634(9) 0.9397(8) 0.3425(9)
C30A C 0.8777(9) 0.8377(8) 0.4787(9)
N14A N 0.9030(7) 0.8822(6) 0.3258(7)
C31A C 0.8479(10) 0.8189(9) 0.4119(9)
C35A C 0.9031(9) 0.8852(8) 0.2370(9)
C32A C 0.6880(9) 0.9405(8) 0.3452(8)
C33A C 0.5551(11) 0.8465(9) 0.3911(10)
N16A N 0.7142(8) 0.8797(7) 0.2943(7)
C34A C 0.6312(11) 0.8189(9) 0.3221(10)
C36A C 0.8095(9) 0.8783(8) 0.2226(8)
N17A N 0.9886(7) 0.8883(6) 0.1714(7)
C37A C 0.9881(6) 0.8861(6) 0.0851(5)
N18A N 0.8055(7) 0.8703(7) 0.1448(7)
C42A C 0.8982(5) 0.8719(6) 0.0725(5)
H21A H 1.0083 0.9889 0.2958
H22A H 0.8544 0.8045 0.5425
H23A H 0.7993 0.7718 0.4227
H24A H 0.7316 0.9890 0.3404
H25A H 0.4893 0.8176 0.4238
H26A H 0.6262 0.7689 0.2997
C38A C 1.0805(5) 0.8903(7) 0.0127(6)
H27A H 1.1407 0.8998 0.0211
C39A C 1.0830(5) 0.8803(6) -0.0724(5)
H28A H 1.1449 0.8831 -0.1209
C40A C 0.9931(6) 0.8660(6) -0.0850(4)
H29A H 0.9948 0.8593 -0.1419
C41A C 0.9007(5) 0.8618(6) -0.0125(5)
H30A H 0.8406 0.8523 -0.0209
Cl1 Cl 0.1718(2) 0.34990(19) 0.6981(2)
Cl2 Cl 0.3029(2) 0.3742(2) 0.3777(2)
Cl3 Cl 0.1704(2) 0.8544(2) 0.6973(2)
Cl4 Cl 0.3044(2) 0.8699(2) 0.3791(2)
O5 O 0.156(7) 0.967(6) 0.170(7)
O6 O 0.815(2) 0.553(2) 0.841(2)
loop_
_geom_bond_atom_site_label_1
_geom_bond_atom_site_label_2
_geom_bond_site_symmetry_1
_geom_bond_site_symmetry_2
Zn1 O1 1_555 1_555
N1 Zn1 1_555 1_555
N2 Zn1 1_555 1_555
C1 N1 1_555 1_555
C2 N1 1_555 1_555
C3 N2 1_555 1_555
C4 N2 1_555 1_555
N3 C1 1_555 1_555
H1 C1 1_555 1_555
H2 C2 1_555 1_555
C5 C2 1_555 1_555
N4 C3 1_555 1_555
H3 C3 1_555 1_555
H4 C4 1_555 1_555
C6 C4 1_555 1_555
C7 N3 1_555 1_555
H5 C5 1_555 1_555
C8 N4 1_555 1_555
H6 C6 1_555 1_555
N5 C7 1_555 1_555
C9 C7 1_555 1_555
N6 C8 1_555 1_555
C10 C8 1_555 1_555
C11 N5 1_555 1_555
N7 C9 1_555 1_555
N8 C9 1_555 1_555
C12 N6 1_555 1_555
N9 C10 1_555 1_555
N10 C10 1_555 1_555
C13 C11 1_555 1_555
C14 C11 1_555 1_555
C15 N7 1_555 1_555
C16 N7 1_555 1_555
C17 C12 1_555 1_555
C18 C12 1_555 1_555
C19 N9 1_555 1_555
C20 N9 1_555 1_555
H7 C13 1_555 1_555
C21 C13 1_555 1_555
C22 C14 1_555 1_555
N11 C15 1_555 1_555
H8 C15 1_555 1_555
C23 C16 1_555 1_555
H9 C16 1_555 1_555
C24 C17 1_555 1_555
C25 C18 1_555 1_555
H10 C18 1_555 1_555
N12 C19 1_555 1_555
H11 C19 1_555 1_555
C26 C20 1_555 1_555
H12 C20 1_555 1_555
H13 C21 1_555 1_555
C27 C21 1_555 1_555
H14 C22 1_555 1_555
Zn2 N11 1_555 1_555
H15 C23 1_555 1_555
H16 C24 1_555 1_555
C28 C24 1_555 1_555
H17 C25 1_555 1_555
H18 C26 1_555 1_555
H19 C27 1_555 1_555
O2 Zn2 1_555 1_555
H20 C28 1_555 1_555
Zn3 O3 1_555 1_555
Zn4 O4 1_555 1_555
N13 Zn3 1_555 1_555
N14 C29 1_555 1_555
N15 Zn4 1_555 1_555
N16 C32 1_555 1_555
N17 C35 1_555 1_555
N18 C36 1_555 1_555
N19 Zn4 1_555 1_555
N20 C43 1_555 1_555
N21 C46 1_555 1_555
N22 C46 1_555 1_555
N23 C49 1_555 1_555
N24 C50 1_555 1_555
C29 N13 1_555 1_555
H21 C29 1_555 1_555
C30 N13 1_555 1_555
H22 C30 1_555 1_555
C31 N14 1_555 1_555
H23 C31 1_555 1_555
C32 N15 1_555 1_555
H24 C32 1_555 1_555
C33 N15 1_555 1_555
H25 C33 1_555 1_555
C34 N16 1_555 1_555
H26 C34 1_555 1_555
C35 N14 1_555 1_555
C36 N16 1_555 1_555
C37 N17 1_555 1_555
C38 C37 1_555 1_555
H27 C38 1_555 1_555
C39 C38 1_555 1_555
H28 C39 1_555 1_555
C40 C39 1_555 1_555
H29 C40 1_555 1_555
C41 C40 1_555 1_555
H30 C41 1_555 1_555
C42 N18 1_555 1_555
C43 N19 1_555 1_555
H31 C43 1_555 1_555
C44 N19 1_555 1_555
H32 C44 1_555 1_555
C45 N20 1_555 1_555
H33 C45 1_555 1_555
C46 H34 1_555 1_555
C47 N21 1_555 1_555
H35 C47 1_555 1_555
C48 N22 1_555 1_555
H36 C48 1_555 1_555
C49 N20 1_555 1_555
C50 N22 1_555 1_555
C51 N23 1_555 1_555
C52 C51 1_555 1_555
H37 C52 1_555 1_555
C53 C52 1_555 1_555
H38 C53 1_555 1_555
C54 C53 1_555 1_555
H39 C54 1_555 1_555
C55 C54 1_555 1_555
H40 C55 1_555 1_555
C56 N24 1_555 1_555
O1A Zn1 1_555 1_555
N1A Zn1 1_555 1_555
N2A Zn1 1_555 1_555
N12A Zn2 1_555 1_555
O2A Zn2 1_555 1_555
N11A Zn2 1_555 1_555
C19A N12A 1_555 1_555
C26A N12A 1_555 1_555
C15A N11A 1_555 1_555
C23A N11A 1_555 1_555
N9A C19A 1_555 1_555
H11A C19A 1_555 1_555
H18A C26A 1_555 1_555
C20A C26A 1_555 1_555
N7A C15A 1_555 1_555
H8A C15A 1_555 1_555
H15A C23A 1_555 1_555
C16A C23A 1_555 1_555
C10A N9A 1_555 1_555
H12A C20A 1_555 1_555
C9A N7A 1_555 1_555
H9A C16A 1_555 1_555
N10A C10A 1_555 1_555
C8A C10A 1_555 1_555
N8A C9A 1_555 1_555
C7A C9A 1_555 1_555
C17A N10A 1_555 1_555
N4A C8A 1_555 1_555
N6A C8A 1_555 1_555
C14A N8A 1_555 1_555
N3A C7A 1_555 1_555
N5A C7A 1_555 1_555
C24A C17A 1_555 1_555
C12A C17A 1_555 1_555
C3A N4A 1_555 1_555
C6A N4A 1_555 1_555
C11A C14A 1_555 1_555
C22A C14A 1_555 1_555
C1A N3A 1_555 1_555
C5A N3A 1_555 1_555
H16A C24A 1_555 1_555
C28A C24A 1_555 1_555
C18A C12A 1_555 1_555
N2A_2 C3A 1_555 1_555
H3A C3A 1_555 1_555
C4A C6A 1_555 1_555
H6A C6A 1_555 1_555
C13A C11A 1_555 1_555
C27A C22A 1_555 1_555
H14A C22A 1_555 1_555
N1A_2 C1A 1_555 1_555
H1A C1A 1_555 1_555
C2A C5A 1_555 1_555
H5A C5A 1_555 1_555
H20A C28A 1_555 1_555
C25A C28A 1_555 1_555
H10A C18A 1_555 1_555
Zn1_2 N2A_2 1_555 1_555
H4A C4A 1_555 1_555
H7A C13A 1_555 1_555
C21A C13A 1_555 1_555
H19A C27A 1_555 1_555
H2A C2A 1_555 1_555
H17A C25A 1_555 1_555
H13A C21A 1_555 1_555
O3A Zn3 1_555 1_555
N13A Zn3 1_555 1_555
N19A Zn4 1_555 1_555
N20A C43A 1_555 1_555
N21A Zn3 1_555 1_555
N22A C46A 1_555 1_555
N23A C49A 1_555 1_555
N24A C50A 1_555 1_555
C43A N19A 1_555 1_555
H31A C43A 1_555 1_555
C44A N19A 1_555 1_555
H32A C44A 1_555 1_555
C45A N20A 1_555 1_555
H33A C45A 1_555 1_555
C46A N21A 1_555 1_555
H34A C46A 1_555 1_555
C47A N21A 1_555 1_555
H35A C47A 1_555 1_555
C48A N22A 1_555 1_555
H36A C48A 1_555 1_555
C49A N20A 1_555 1_555
C50A N22A 1_555 1_555
C51A N23A 1_555 1_555
C52A C51A 1_555 1_555
H37A C52A 1_555 1_555
C53A C52A 1_555 1_555
H38A C53A 1_555 1_555
C54A C53A 1_555 1_555
H39A C54A 1_555 1_555
C55A C54A 1_555 1_555
H40A C55A 1_555 1_555
C56A N24A 1_555 1_555
O4A Zn4 1_555 1_555
Zn3_2 N21 1_555 1_555
N15A Zn4 1_555 1_555
N21_2 Zn3 1_555 1_555
N13A_2 Zn3_2 1_555 1_555
C29A N13A_2 1_555 1_555
C30A N13A_2 1_555 1_555
N14A C29A 1_555 1_555
C31A C30A 1_555 1_555
C35A N14A 1_555 1_555
C32A N15A 1_555 1_555
C33A N15A 1_555 1_555
N16A C32A 1_555 1_555
C34A C33A 1_555 1_555
C36A C35A 1_555 1_555
N17A C35A 1_555 1_555
C37A N17A 1_555 1_555
N18A C36A 1_555 1_555
C42A C37A 1_555 1_555
H21A C29A 1_555 1_555
H22A C30A 1_555 1_555
H23A C31A 1_555 1_555
H24A C32A 1_555 1_555
H25A C33A 1_555 1_555
H26A C34A 1_555 1_555
C38A C37A 1_555 1_555
H27A C38A 1_555 1_555
C39A C38A 1_555 1_555
H28A C39A 1_555 1_555
C40A C39A 1_555 1_555
H29A C40A 1_555 1_555
C41A C42A 1_555 1_555
H30A C41A 1_555 1_555
N3 C5 1_555 1_555
N4 C6 1_555 1_555
N8 C14 1_555 1_555
N10 C17 1_555 1_555
C22 C27 1_555 1_555
N11 C23 1_555 1_555
C25 C28 1_555 1_555
N12 C26 1_555 1_555
N12 Zn2 1_555 1_555
C30 C31 1_555 1_555
C33 C34 1_555 1_555
C35 C36 1_555 1_555
C37 C42 1_555 1_555
C41 C42 1_555 1_555
C44 C45 1_555 1_555
C47 C48 1_555 1_555
C49 C50 1_555 1_555
C51 C56 1_555 1_555
C55 C56 1_555 1_555
N9A C20A 1_555 1_555
N7A C16A 1_555 1_555
N6A C12A 1_555 1_555
N5A C11A 1_555 1_555
C18A C25A 1_555 1_555
N2A_2 C4A 1_555 1_555
C27A C21A 1_555 1_555
N1A_2 C2A 1_555 1_555
N1A_2 Zn1_2 1_555 1_555
C44A C45A 1_555 1_555
C47A C48A 1_555 1_555
C49A C50A 1_555 1_555
C51A C56A 1_555 1_555
C55A C56A 1_555 1_555
N14A C31A 1_555 1_555
N16A C34A 1_555 1_555
N16A C36A 1_555 1_555
N18A C42A 1_555 1_555
C40A C41A 1_555 1_555

#END
