
#######################################################################
#
#                 Cambridge Crystallographic Data Centre
#                                CCDC 
#
#######################################################################
#
# If this CIF has been generated from an entry in the Cambridge 
# Structural Database, then it will include bibliographic, chemical, 
# crystal, experimental, refinement or atomic coordinate data resulting 
# from the CCDC's data processing and validation procedures.
#
#######################################################################

data_KOGCOZ
_symmetry_cell_setting           monoclinic
_symmetry_space_group_name_H-M   'P 21/c'
_symmetry_Int_Tables_number      14
_space_group_name_Hall           '-P 2ybc'
loop_
_symmetry_equiv_pos_site_id
_symmetry_equiv_pos_as_xyz
1 x,y,z
2 -x,1/2+y,1/2-z
3 -x,-y,-z
4 x,1/2-y,1/2+z
_cell_length_a                   11.031(7)
_cell_length_b                   10.369(6)
_cell_length_c                   20.946(10)
_cell_angle_alpha                90.00
_cell_angle_beta                 121.78(2)
_cell_angle_gamma                90.00
_cell_volume                     2036.62
loop_
_atom_site_label
_atom_site_type_symbol
_atom_site_fract_x
_atom_site_fract_y
_atom_site_fract_z
Sn1 Sn 0.07530(9) 0.30684(9) 0.23989(5)
F1 F -0.4484(17) 0.6066(11) -0.2105(6)
N1 N -0.2059(10) -0.0271(10) 0.1744(5)
N2 N -0.3467(11) -0.0234(11) 0.1582(6)
N3 N -0.3195(10) 0.1209(9) 0.0901(5)
N4 N -0.3508(10) 0.2290(10) 0.0455(6)
S1 S -0.0351(3) 0.1021(4) 0.1378(2)
C1 C -0.1914(11) 0.0622(12) 0.1347(7)
C2 C -0.4102(12) 0.0655(12) 0.1090(7)
C3 C -0.5604(13) 0.1016(12) 0.0771(7)
C4 C -0.6237(16) 0.0702(17) 0.1196(9)
H1 H -0.5719 0.0293 0.1659
C5 C -0.763(2) 0.103(2) 0.0894(13)
H2 H -0.8046 0.0869 0.1175
C6 C -0.843(2) 0.156(2) 0.0223(12)
H3 H -0.9387 0.1727 0.0035
C7 C -0.7844(17) 0.1861(16) -0.0194(10)
H4 H -0.8387 0.2262 -0.0658
C8 C -0.6455(14) 0.1561(13) 0.0085(8)
H5 H -0.6068 0.1737 -0.0207
C9 C -0.3141(13) 0.2186(13) -0.0023(7)
H6 H -0.2681 0.1445 -0.0037
C10 C -0.3441(13) 0.3227(14) -0.0547(7)
C11 C -0.3288(16) 0.3041(17) -0.1158(8)
H7 H -0.2945 0.2255 -0.1212
C12 C -0.363(2) 0.398(2) -0.1681(10)
H8 H -0.3520 0.3851 -0.2087
C13 C -0.413(2) 0.5126(18) -0.1592(9)
C14 C -0.426(2) 0.5372(16) -0.0998(10)
H9 H -0.4583 0.6168 -0.0945
C15 C -0.3895(17) 0.4421(14) -0.0477(8)
H10 H -0.3957 0.4589 -0.0059
C16 C -0.0904(15) 0.3010(14) 0.2603(9)
H11 H -0.1636 0.3606 0.2276
H12 H -0.0545 0.3243 0.3116
H13 H -0.1292 0.2154 0.2512
C17 C 0.048(2) 0.4261(17) 0.1530(9)
H14 H -0.0401 0.4720 0.1322
H15 H 0.0471 0.3745 0.1145
H16 H 0.1258 0.4865 0.1722
C18 C 0.2533(16) 0.1869(17) 0.3040(10)
H17 H 0.3204 0.1990 0.2885
H18 H 0.2230 0.0984 0.2964
H19 H 0.2976 0.2084 0.3562
Sn1A Sn -0.07530(9) -0.19316(9) 0.26011(5)
N1A N 0.2059(10) 0.4729(10) 0.3256(5)
loop_
_geom_bond_atom_site_label_1
_geom_bond_atom_site_label_2
_geom_bond_site_symmetry_1
_geom_bond_site_symmetry_2
Sn1 S1 1_555 1_555
F1 C13 1_555 1_555
N1 N2 1_555 1_555
N2 C2 1_555 1_555
N3 N4 1_555 1_555
N4 C9 1_555 1_555
S1 C1 1_555 1_555
C1 N1 1_555 1_555
C2 N3 1_555 1_555
C3 C2 1_555 1_555
C4 C3 1_555 1_555
H1 C4 1_555 1_555
C5 C4 1_555 1_555
H2 C5 1_555 1_555
C6 C5 1_555 1_555
H3 C6 1_555 1_555
C7 C6 1_555 1_555
H4 C7 1_555 1_555
C8 C3 1_555 1_555
H5 C8 1_555 1_555
C9 H6 1_555 1_555
C10 C9 1_555 1_555
C11 C10 1_555 1_555
H7 C11 1_555 1_555
C12 C11 1_555 1_555
H8 C12 1_555 1_555
C13 C12 1_555 1_555
C14 C13 1_555 1_555
H9 C14 1_555 1_555
C15 C10 1_555 1_555
H10 C15 1_555 1_555
C16 Sn1 1_555 1_555
H11 C16 1_555 1_555
H12 C16 1_555 1_555
H13 C16 1_555 1_555
C17 Sn1 1_555 1_555
H14 C17 1_555 1_555
H15 C17 1_555 1_555
H16 C17 1_555 1_555
C18 Sn1 1_555 1_555
H17 C18 1_555 1_555
H18 C18 1_555 1_555
H19 C18 1_555 1_555
Sn1A N1 1_555 1_555
N1A Sn1 1_555 1_555
N3 C1 1_555 1_555
C7 C8 1_555 1_555
C14 C15 1_555 1_555

#END
