
#######################################################################
#
#                 Cambridge Crystallographic Data Centre
#                                CCDC 
#
#######################################################################
#
# If this CIF has been generated from an entry in the Cambridge 
# Structural Database, then it will include bibliographic, chemical, 
# crystal, experimental, refinement or atomic coordinate data resulting 
# from the CCDC's data processing and validation procedures.
#
#######################################################################

data_KOGDUG
_symmetry_cell_setting           monoclinic
_symmetry_space_group_name_H-M   'P 21'
_symmetry_Int_Tables_number      4
_space_group_name_Hall           'P 2yb'
loop_
_symmetry_equiv_pos_site_id
_symmetry_equiv_pos_as_xyz
1 x,y,z
2 -x,1/2+y,-z
_cell_length_a                   12.8678(7)
_cell_length_b                   11.6950(5)
_cell_length_c                   15.7404(8)
_cell_angle_alpha                90
_cell_angle_beta                 97.791(4)
_cell_angle_gamma                90
_cell_volume                     2346.89
loop_
_atom_site_label
_atom_site_type_symbol
_atom_site_fract_x
_atom_site_fract_y
_atom_site_fract_z
Zn1 Zn 0.07505(10) 0.22254(8) 0.88147(8)
Zn2 Zn -0.42921(10) 0.53386(8) 0.37593(8)
O1 O -0.3032(7) 0.4599(9) 0.4269(5)
O2 O -0.2679(7) 0.6135(9) 0.5087(5)
O4 O 0.0239(7) 0.3322(7) 0.7923(6)
O6 O -0.1074(8) 0.2133(12) 0.7564(6)
O7 O 0.2373(8) 0.1457(11) 1.0052(7)
O8 O 0.2072(7) 0.2977(8) 0.9258(5)
O9 O 0.3949(7) 0.5356(11) 1.2439(7)
O10 O 0.5252(7) 0.4205(8) 1.2892(5)
C1 C -0.1491(10) 0.4499(11) 0.5309(7)
C2 C -0.1531(9) 0.4253(12) 0.6274(8)
C3 C -0.0553(8) 0.3556(10) 0.6500(7)
H1 H 0.0056 0.4060 0.6498
C4 C -0.0517(12) 0.2655(11) 0.5820(7)
H2 H -0.0784 0.1924 0.5986
H3 H 0.0182 0.2558 0.5665
C5 C -0.1303(13) 0.3264(13) 0.5069(11)
H4 H -0.1001 0.3242 0.4537
H5 H -0.1965 0.2856 0.4982
C6 C -0.0531(10) 0.5272(13) 0.5330(13)
H6 H 0.0080 0.4873 0.5597
H7 H -0.0633 0.5951 0.5652
H8 H -0.0436 0.5478 0.4755
C7 C -0.1479(13) 0.5349(14) 0.6880(10)
H9 H -0.0827 0.5742 0.6862
H10 H -0.1526 0.5113 0.7458
H11 H -0.2051 0.5852 0.6686
C8 C -0.2596(12) 0.3721(15) 0.6345(12)
H12 H -0.2700 0.3068 0.5974
H13 H -0.3138 0.4273 0.6179
H14 H -0.2621 0.3488 0.6926
C9 C -0.2470(11) 0.5142(16) 0.4875(9)
C10 C -0.0492(12) 0.2984(15) 0.7408(9)
C11 C 0.3657(11) 0.2915(12) 1.0253(8)
C12 C 0.3370(10) 0.3820(9) 1.0908(7)
C13 C 0.4313(15) 0.3874(17) 1.1552(13)
H15 H 0.4721 0.4363 1.1215
C14 C 0.4961(10) 0.2766(11) 1.1463(9)
H16 H 0.5658 0.2965 1.1343
H17 H 0.5030 0.2339 1.1996
C15 C 0.4411(9) 0.2033(13) 1.0737(9)
H18 H 0.4031 0.1403 1.0953
H19 H 0.4902 0.1734 1.0376
C16 C 0.4228(12) 0.3262(17) 0.9490(10)
H20 H 0.4366 0.2592 0.9171
H21 H 0.4878 0.3632 0.9701
H22 H 0.3794 0.3779 0.9123
C17 C 0.2856(13) 0.4905(13) 1.0611(11)
H23 H 0.2664 0.5317 1.1094
H24 H 0.2238 0.4744 1.0215
H25 H 0.3331 0.5359 1.0332
C18 C 0.2684(12) 0.3249(13) 1.1558(10)
H26 H 0.2497 0.3818 1.1951
H27 H 0.3080 0.2653 1.1872
H28 H 0.2058 0.2931 1.1245
C19 C 0.2629(10) 0.2419(16) 0.9821(8)
C20 C 0.4509(9) 0.4548(12) 1.2344(8)
C21 C -0.1883(5) 0.1450(7) 1.1874(4)
C22 C -0.2076(5) 0.2374(7) 1.2386(4)
C23 C -0.2635(5) 0.2217(7) 1.3073(4)
H29 H -0.2764 0.2835 1.3415
C24 C -0.3002(5) 0.1136(7) 1.3248(4)
C25 C -0.2809(5) 0.0212(7) 1.2737(4)
C26 C -0.2250(5) 0.0369(7) 1.2050(4)
H30 H -0.2121 -0.0250 1.1708
N1 N -0.0176(5) 0.1846(6) 0.9727(4)
C27 C -0.1028(5) 0.2550(5) 0.9809(4)
H31 H -0.1215 0.3124 0.9408
C28 C -0.1598(4) 0.2395(7) 1.0489(4)
H32 H -0.2168 0.2866 1.0544
C29 C -0.1318(5) 0.1537(7) 1.1087(4)
C30 C -0.0467(6) 0.0834(6) 1.1005(4)
H33 H -0.0279 0.0260 1.1405
C31 C 0.0104(5) 0.0988(6) 1.0325(5)
H34 H 0.0674 0.0518 1.0270
N2 N -0.3885(6) -0.3166(5) 1.3263(4)
C32 C -0.4612(4) -0.2293(7) 1.3071(4)
H35 H -0.5322 -0.2435 1.3078
C33 C -0.4278(5) -0.1208(6) 1.2870(5)
H36 H -0.4765 -0.0624 1.2742
C34 C -0.3217(6) -0.0995(5) 1.2861(5)
C35 C -0.2490(4) -0.1868(7) 1.3052(5)
H37 H -0.1780 -0.1726 1.3045
C36 C -0.2824(5) -0.2953(6) 1.3253(5)
H38 H -0.2337 -0.3537 1.3381
N3 N -0.1065(6) 0.5695(5) 1.1722(4)
C37 C -0.0320(4) 0.4837(6) 1.1905(4)
H39 H 0.0381 0.4984 1.1860
C38 C -0.0622(5) 0.3761(6) 1.2155(5)
H40 H -0.0124 0.3187 1.2277
C39 C -0.1670(6) 0.3542(5) 1.2221(5)
C40 C -0.2415(4) 0.4399(6) 1.2039(5)
H41 H -0.3116 0.4252 1.2084
C41 C -0.2113(5) 0.5475(5) 1.1789(5)
H42 H -0.2611 0.6049 1.1667
N4 N -0.4738(5) 0.0695(6) 1.5371(4)
C42 C -0.3866(6) 0.0011(5) 1.5314(4)
H43 H -0.3672 -0.0545 1.5728
C43 C -0.3285(5) 0.0158(6) 1.4639(5)
H44 H -0.2702 -0.0299 1.4601
C44 C -0.3576(5) 0.0989(7) 1.4021(4)
C45 C -0.4447(6) 0.1673(6) 1.4078(4)
H45 H -0.4641 0.2229 1.3665
C46 C -0.5028(5) 0.1526(6) 1.4753(4)
H46 H -0.5611 0.1983 1.4791
Zn1A Zn -0.07505(10) 0.72254(8) 1.11853(8)
Zn2_2 Zn 0.57079(10) 0.53386(8) 1.37593(8)
Zn2_3 Zn -0.42921(10) -0.46614(8) 1.37593(8)
Zn2A Zn -0.57079(10) 0.03386(8) 1.62407(8)
O10_2 O -0.4748(7) 0.4205(8) 0.2892(5)
N2_2 N -0.3885(6) 0.6834(5) 0.3263(4)
N3A N 0.1065(6) 0.0695(5) 0.8278(4)
N4A N -0.5262(5) 0.5695(6) 0.4629(4)
O3 O -0.7977(9) -0.4891(12) 1.3192(8)
O5 O 0.3259(12) -0.0732(15) 1.0312(10)
O11 O -0.3131(10) 0.2561(13) 0.8231(9)
O12 O -0.1703(14) -0.1691(17) 1.5607(12)
loop_
_geom_bond_atom_site_label_1
_geom_bond_atom_site_label_2
_geom_bond_site_symmetry_1
_geom_bond_site_symmetry_2
Zn1 O4 1_555 1_555
Zn2 O1 1_555 1_555
O1 C9 1_555 1_555
O2 C9 1_555 1_555
O4 C10 1_555 1_555
O6 C10 1_555 1_555
O7 C19 1_555 1_555
O8 Zn1 1_555 1_555
O9 C20 1_555 1_555
O10 C20 1_555 1_555
C1 C2 1_555 1_555
C2 C3 1_555 1_555
C3 H1 1_555 1_555
C4 C3 1_555 1_555
H2 C4 1_555 1_555
H3 C4 1_555 1_555
C5 C1 1_555 1_555
H4 C5 1_555 1_555
H5 C5 1_555 1_555
C6 C1 1_555 1_555
H6 C6 1_555 1_555
H7 C6 1_555 1_555
H8 C6 1_555 1_555
C7 C2 1_555 1_555
H9 C7 1_555 1_555
H10 C7 1_555 1_555
H11 C7 1_555 1_555
C8 C2 1_555 1_555
H12 C8 1_555 1_555
H13 C8 1_555 1_555
H14 C8 1_555 1_555
C9 C1 1_555 1_555
C10 C3 1_555 1_555
C11 C12 1_555 1_555
C12 C13 1_555 1_555
C13 H15 1_555 1_555
C14 C13 1_555 1_555
H16 C14 1_555 1_555
H17 C14 1_555 1_555
C15 C11 1_555 1_555
H18 C15 1_555 1_555
H19 C15 1_555 1_555
C16 C11 1_555 1_555
H20 C16 1_555 1_555
H21 C16 1_555 1_555
H22 C16 1_555 1_555
C17 C12 1_555 1_555
H23 C17 1_555 1_555
H24 C17 1_555 1_555
H25 C17 1_555 1_555
C18 C12 1_555 1_555
H26 C18 1_555 1_555
H27 C18 1_555 1_555
H28 C18 1_555 1_555
C19 O8 1_555 1_555
C20 C13 1_555 1_555
C21 C22 1_555 1_555
C22 C23 1_555 1_555
C23 H29 1_555 1_555
C24 C23 1_555 1_555
C25 C24 1_555 1_555
C26 C21 1_555 1_555
H30 C26 1_555 1_555
N1 Zn1 1_555 1_555
C27 N1 1_555 1_555
H31 C27 1_555 1_555
C28 C27 1_555 1_555
H32 C28 1_555 1_555
C29 C21 1_555 1_555
C30 C29 1_555 1_555
H33 C30 1_555 1_555
C31 N1 1_555 1_555
H34 C31 1_555 1_555
N2 C32 1_555 1_555
C32 H35 1_555 1_555
C33 C32 1_555 1_555
H36 C33 1_555 1_555
C34 C25 1_555 1_555
C35 C34 1_555 1_555
H37 C35 1_555 1_555
C36 N2 1_555 1_555
H38 C36 1_555 1_555
N3 C37 1_555 1_555
C37 H39 1_555 1_555
C38 C37 1_555 1_555
H40 C38 1_555 1_555
C39 C22 1_555 1_555
C40 C39 1_555 1_555
H41 C40 1_555 1_555
C41 N3 1_555 1_555
H42 C41 1_555 1_555
N4 C42 1_555 1_555
C42 H43 1_555 1_555
C43 C42 1_555 1_555
H44 C43 1_555 1_555
C44 C24 1_555 1_555
C45 C44 1_555 1_555
H45 C45 1_555 1_555
C46 N4 1_555 1_555
H46 C46 1_555 1_555
Zn1A N3 1_555 1_555
Zn2_2 O10 1_555 1_555
Zn2_3 N2 1_555 1_555
Zn2A N4 1_555 1_555
O10_2 Zn2 1_555 1_555
N2_2 Zn2 1_555 1_555
N3A Zn1 1_555 1_555
N4A Zn2 1_555 1_555
C4 C5 1_555 1_555
C11 C19 1_555 1_555
C14 C15 1_555 1_555
C25 C26 1_555 1_555
C28 C29 1_555 1_555
C30 C31 1_555 1_555
C33 C34 1_555 1_555
C35 C36 1_555 1_555
C38 C39 1_555 1_555
C40 C41 1_555 1_555
C43 C44 1_555 1_555
C45 C46 1_555 1_555

#END
