
#######################################################################
#
#                 Cambridge Crystallographic Data Centre
#                                CCDC 
#
#######################################################################
#
# If this CIF has been generated from an entry in the Cambridge 
# Structural Database, then it will include bibliographic, chemical, 
# crystal, experimental, refinement or atomic coordinate data resulting 
# from the CCDC's data processing and validation procedures.
#
#######################################################################

data_KOGGIX
_symmetry_cell_setting           monoclinic
_symmetry_space_group_name_H-M   'P 21/c'
_symmetry_Int_Tables_number      14
_space_group_name_Hall           '-P 2ybc'
loop_
_symmetry_equiv_pos_site_id
_symmetry_equiv_pos_as_xyz
1 x,y,z
2 -x,1/2+y,1/2-z
3 -x,-y,-z
4 x,1/2-y,1/2+z
_cell_length_a                   11.6844(16)
_cell_length_b                   8.9372(12)
_cell_length_c                   17.406(2)
_cell_angle_alpha                90.00
_cell_angle_beta                 106.211(2)
_cell_angle_gamma                90.00
_cell_volume                     1745.37
loop_
_atom_site_label
_atom_site_type_symbol
_atom_site_fract_x
_atom_site_fract_y
_atom_site_fract_z
Zn1 Zn 0.30778(3) 0.51203(3) 0.091249(18)
N1 N 0.27040(19) 0.3432(2) 0.00448(14)
N2 N 0.1539(2) 0.3212(3) -0.03589(14)
H1 H 0.1014 0.3912 -0.0474
N3 N 0.2972(2) -0.2968(2) 0.02302(13)
N4 N 0.2761(2) -0.2962(2) -0.05722(13)
H2 H 0.2778 -0.3750 -0.0852
N5 N 0.28775(19) 0.3561(2) 0.18192(13)
O1 O 0.13471(17) 0.5488(2) 0.09477(12)
O2 O -0.01671(19) 0.4520(3) 0.13261(16)
O3 O 0.4136(3) -0.0154(3) 0.3812(2)
O4 O 0.54356(17) 0.0886(2) 0.32834(12)
C1 C 0.4498(3) 0.1838(3) 0.0493(2)
H3 H 0.4685 0.0794 0.0476
H4 H 0.4689 0.2162 0.1040
H5 H 0.4955 0.2405 0.0215
C2 C 0.3204(2) 0.2072(3) 0.01040(16)
C3 C 0.1309(2) 0.1770(3) -0.05553(17)
C4 C 0.0092(3) 0.1244(4) -0.0999(2)
H6 H 0.0108 0.0183 -0.1081
H7 H -0.0159 0.1741 -0.1507
H8 H -0.0455 0.1469 -0.0694
C5 C 0.2999(3) -0.1106(3) 0.12830(17)
H9 H 0.3196 -0.1972 0.1621
H10 H 0.2273 -0.0673 0.1336
H11 H 0.3631 -0.0385 0.1439
C6 C 0.2840(2) -0.1552(3) 0.04344(16)
C7 C 0.2547(2) -0.0638(3) -0.02523(16)
C8 C 0.2521(2) -0.1586(3) -0.08828(17)
C9 C 0.2322(3) -0.1299(4) -0.17551(19)
H12 H 0.2359 -0.2227 -0.2025
H13 H 0.2927 -0.0634 -0.1830
H14 H 0.1552 -0.0851 -0.1971
C10 C 0.2359(2) 0.0992(3) -0.02563(16)
C11 C 0.3699(2) 0.2693(3) 0.23034(16)
H15 H 0.4489 0.2801 0.2301
C12 C 0.3428(2) 0.1638(3) 0.28108(16)
C13 C 0.2245(3) 0.1481(3) 0.28030(18)
H16 H 0.2028 0.0777 0.3130
C14 C 0.1388(2) 0.2382(3) 0.23040(18)
H17 H 0.0590 0.2285 0.2288
C15 C 0.1737(2) 0.3424(3) 0.18316(16)
C16 C 0.0884(2) 0.4553(3) 0.13183(18)
C17 C 0.4402(2) 0.0702(3) 0.33500(17)
Zn1_2 Zn 0.30778(3) -0.48797(3) 0.091249(18)
Zn1A Zn 0.69222(3) 0.01203(3) 0.408751(18)
N3_2 N 0.2972(2) 0.7032(2) 0.02302(13)
O4A O 0.45644(17) 0.5886(2) 0.17166(12)
loop_
_geom_bond_atom_site_label_1
_geom_bond_atom_site_label_2
_geom_bond_site_symmetry_1
_geom_bond_site_symmetry_2
Zn1 N1 1_555 1_555
N1 N2 1_555 1_555
N2 H1 1_555 1_555
N3 N4 1_555 1_555
N4 H2 1_555 1_555
N5 Zn1 1_555 1_555
O1 Zn1 1_555 1_555
O2 C16 1_555 1_555
O3 C17 1_555 1_555
O4 C17 1_555 1_555
C1 H3 1_555 1_555
H4 C1 1_555 1_555
H5 C1 1_555 1_555
C2 N1 1_555 1_555
C3 N2 1_555 1_555
C4 C3 1_555 1_555
H6 C4 1_555 1_555
H7 C4 1_555 1_555
H8 C4 1_555 1_555
C5 H9 1_555 1_555
H10 C5 1_555 1_555
H11 C5 1_555 1_555
C6 N3 1_555 1_555
C7 C6 1_555 1_555
C8 N4 1_555 1_555
C9 C8 1_555 1_555
H12 C9 1_555 1_555
H13 C9 1_555 1_555
H14 C9 1_555 1_555
C10 C2 1_555 1_555
C11 N5 1_555 1_555
H15 C11 1_555 1_555
C12 C11 1_555 1_555
C13 C12 1_555 1_555
H16 C13 1_555 1_555
C14 C13 1_555 1_555
H17 C14 1_555 1_555
C15 N5 1_555 1_555
C16 O1 1_555 1_555
C17 C12 1_555 1_555
Zn1_2 N3 1_555 1_555
Zn1A O4 1_555 1_555
N3_2 Zn1 1_555 1_555
O4A Zn1 1_555 1_555
C1 C2 1_555 1_555
C3 C10 1_555 1_555
C5 C6 1_555 1_555
C7 C8 1_555 1_555
C7 C10 1_555 1_555
C14 C15 1_555 1_555
C15 C16 1_555 1_555

#END
