
#######################################################################
#
#                 Cambridge Crystallographic Data Centre
#                                CCDC 
#
#######################################################################
#
# If this CIF has been generated from an entry in the Cambridge 
# Structural Database, then it will include bibliographic, chemical, 
# crystal, experimental, refinement or atomic coordinate data resulting 
# from the CCDC's data processing and validation procedures.
#
#######################################################################

data_KOGPAZ
_symmetry_cell_setting           monoclinic
_symmetry_space_group_name_H-M   'P 21/c'
_symmetry_Int_Tables_number      14
_space_group_name_Hall           '-P 2ybc'
loop_
_symmetry_equiv_pos_site_id
_symmetry_equiv_pos_as_xyz
1 x,y,z
2 -x,1/2+y,1/2-z
3 -x,-y,-z
4 x,1/2-y,1/2+z
_cell_length_a                   9.150(3)
_cell_length_b                   21.086(7)
_cell_length_c                   9.066(3)
_cell_angle_alpha                90
_cell_angle_beta                 118.607(6)
_cell_angle_gamma                90
_cell_volume                     1535.64
loop_
_atom_site_label
_atom_site_type_symbol
_atom_site_fract_x
_atom_site_fract_y
_atom_site_fract_z
C1 C 0.1918(7) 0.2380(2) 0.6150(7)
C2 C -0.0432(7) 0.1719(2) 0.5548(7)
C3 C -0.1292(7) 0.1994(3) 0.3916(7)
C4 C -0.0498(8) 0.2456(3) 0.3560(7)
C5 C 0.3222(7) 0.0655(3) 0.7252(7)
H1 H 0.3286 0.0997 0.6638
C6 C 0.3683(7) 0.0047(3) 0.6972(7)
H2 H 0.4043 -0.0007 0.6180
C7 C 0.3601(7) -0.0460(3) 0.7859(7)
H3 H 0.3900 -0.0861 0.7673
C8 C 0.3053(7) -0.0369(3) 0.9074(7)
C9 C 0.2931(7) -0.0867(3) 1.0084(7)
H4 H 0.3205 -0.1280 0.9951
C10 C 0.2420(7) -0.0743(3) 1.1235(7)
H5 H 0.2323 -0.1075 1.1857
C11 C 0.2027(7) -0.0112(3) 1.1509(7)
C12 C 0.1478(7) 0.0050(3) 1.2683(6)
H6 H 0.1358 -0.0261 1.3344
C13 C 0.1127(7) 0.0671(3) 1.2828(7)
H7 H 0.0772 0.0785 1.3595
C14 C 0.1304(7) 0.1135(3) 1.1820(6)
H8 H 0.1062 0.1554 1.1942
C15 C 0.2147(6) 0.0385(3) 1.0534(6)
C16 C 0.2656(7) 0.0248(3) 0.9295(6)
Cu1 Cu 0.19358(8) 0.15772(3) 0.89361(8)
N1 N 0.1071(6) 0.2665(2) 0.4595(5)
N2 N 0.1158(6) 0.1916(2) 0.6614(5)
N3 N 0.2696(6) 0.0752(2) 0.8375(5)
N4 N 0.1801(5) 0.1004(2) 1.0699(5)
O1 O 0.3385(5) 0.25471(17) 0.7164(5)
O2 O -0.1097(5) 0.13151(18) 0.6086(5)
O3 O 0.4646(5) 0.1952(2) 1.0249(5)
H9 H -0.250(8) 0.190(3) 0.309(7)
H10 H -0.107(7) 0.266(3) 0.253(7)
H11 H 0.448(7) 0.215(3) 1.093(7)
H12 H 0.448(7) 0.222(3) 0.948(7)
Cu1C Cu 0.19358(8) 0.34228(3) 0.39361(8)
N1C N 0.1071(6) 0.2335(2) 0.9595(5)
O4 O -0.4722(6) 0.1301(2) 0.4575(6)
loop_
_geom_bond_atom_site_label_1
_geom_bond_atom_site_label_2
_geom_bond_site_symmetry_1
_geom_bond_site_symmetry_2
C1 N1 1_555 1_555
C2 C3 1_555 1_555
C3 C4 1_555 1_555
C4 N1 1_555 1_555
C5 H1 1_555 1_555
C6 C5 1_555 1_555
H2 C6 1_555 1_555
C7 C6 1_555 1_555
H3 C7 1_555 1_555
C8 C7 1_555 1_555
C9 C8 1_555 1_555
H4 C9 1_555 1_555
C10 C9 1_555 1_555
H5 C10 1_555 1_555
C11 C10 1_555 1_555
C12 C11 1_555 1_555
H6 C12 1_555 1_555
C13 C12 1_555 1_555
H7 C13 1_555 1_555
C14 C13 1_555 1_555
H8 C14 1_555 1_555
C15 C11 1_555 1_555
C16 C8 1_555 1_555
Cu1 N2 1_555 1_555
N1 Cu1C 1_555 1_555
N2 C1 1_555 1_555
N3 C5 1_555 1_555
N4 C14 1_555 1_555
O1 C1 1_555 1_555
O2 C2 1_555 1_555
O3 Cu1 1_555 1_555
H9 C3 1_555 1_555
H10 C4 1_555 1_555
H11 O3 1_555 1_555
H12 O3 1_555 1_555
N1C Cu1 1_555 1_555
C2 N2 1_555 1_555
C15 C16 1_555 1_555
C15 N4 1_555 1_555
C16 N3 1_555 1_555
Cu1 N3 1_555 1_555
Cu1 N4 1_555 1_555
Cu1 O2 1_555 1_555

#END
