
#######################################################################
#
#                 Cambridge Crystallographic Data Centre
#                                CCDC 
#
#######################################################################
#
# If this CIF has been generated from an entry in the Cambridge 
# Structural Database, then it will include bibliographic, chemical, 
# crystal, experimental, refinement or atomic coordinate data resulting 
# from the CCDC's data processing and validation procedures.
#
#######################################################################

data_KOGXUA
_symmetry_cell_setting           monoclinic
_symmetry_space_group_name_H-M   'P 21/n'
_symmetry_Int_Tables_number      14
_space_group_name_Hall           '-P 2yn'
loop_
_symmetry_equiv_pos_site_id
_symmetry_equiv_pos_as_xyz
1 x,y,z
2 1/2-x,1/2+y,1/2-z
3 -x,-y,-z
4 1/2+x,1/2-y,1/2+z
_cell_length_a                   9.4051(8)
_cell_length_b                   10.6733(10)
_cell_length_c                   10.0219(9)
_cell_angle_alpha                90
_cell_angle_beta                 97.482(2)
_cell_angle_gamma                90
_cell_volume                     997.467
loop_
_atom_site_label
_atom_site_type_symbol
_atom_site_fract_x
_atom_site_fract_y
_atom_site_fract_z
Ag1 Ag 0.36592(4) -0.09299(4) 0.43611(4)
Ag2 Ag 0.24242(4) 0.21992(4) 0.57801(4)
C1 C 0.4010(5) 0.1747(5) 0.2933(5)
C2 C 0.3750(5) 0.1108(5) 0.1651(5)
H1 H 0.3558 0.0236 0.1564
C3 C 0.3807(5) 0.1869(5) 0.0605(5)
H2 H 0.3654 0.1606 -0.0307
C4 C 0.4644(6) 0.3866(4) 0.3812(5)
H3 H 0.3906 0.3885 0.4417
H4 H 0.4738 0.4701 0.3425
H5 H 0.5563 0.3617 0.4318
N1 N 0.4239(4) 0.2972(4) 0.2739(4)
N2 N 0.4328(4) -0.2760(4) 0.2059(4)
N3 N 0.2819(4) -0.0664(4) 0.7349(4)
O1 O 0.4005(4) 0.1276(3) 0.4093(3)
O2 O 0.4707(4) -0.2596(4) 0.3305(3)
O3 O 0.4600(4) -0.3758(3) 0.1529(4)
O4 O 0.3665(4) -0.1915(3) 0.1368(4)
O5 O 0.3007(5) 0.0061(4) 0.6395(4)
O6 O 0.2631(4) -0.0271(4) 0.8454(4)
O7 O 0.2837(4) -0.1818(3) 0.7111(4)
S1 S 0.41946(14) 0.33968(12) 0.11106(12)
Ag1B Ag 0.63408(4) 0.09299(4) 0.56389(4)
Ag1A Ag 0.13408(4) 0.40701(4) 0.06389(4)
Ag2A Ag 0.25758(4) -0.28008(4) -0.07801(4)
Ag2A_2 Ag 0.25758(4) -0.28008(4) 0.92199(4)
O1B O 0.5995(4) -0.1276(3) 0.5907(3)
O4A O 0.1335(4) 0.3085(3) 0.3632(4)
O7A O 0.2163(4) 0.3182(3) 0.7889(4)
S1A S 0.08054(14) -0.16032(12) 0.38894(12)
loop_
_geom_bond_atom_site_label_1
_geom_bond_atom_site_label_2
_geom_bond_site_symmetry_1
_geom_bond_site_symmetry_2
Ag1 O1 1_555 1_555
Ag2 O1 1_555 1_555
C1 C2 1_555 1_555
C2 H1 1_555 1_555
C3 C2 1_555 1_555
H2 C3 1_555 1_555
C4 H3 1_555 1_555
H4 C4 1_555 1_555
H5 C4 1_555 1_555
N1 C1 1_555 1_555
N2 O2 1_555 1_555
N3 O5 1_555 1_555
O1 C1 1_555 1_555
O2 Ag1 1_555 1_555
O3 N2 1_555 1_555
O4 N2 1_555 1_555
O5 Ag1 1_555 1_555
O6 N3 1_555 1_555
O7 N3 1_555 1_555
S1 C3 1_555 1_555
Ag1B O1 1_555 1_555
Ag1A S1 1_555 1_555
Ag2A O4 1_555 1_555
Ag2A_2 O7 1_555 1_555
O1B Ag1 1_555 1_555
O4A Ag2 1_555 1_555
O7A Ag2 1_555 1_555
S1A Ag1 1_555 1_555
Ag2 O5 1_555 1_555
C4 N1 1_555 1_555
N1 S1 1_555 1_555
Ag1B O1B 1_555 1_555

#END
