
#######################################################################
#
#                 Cambridge Crystallographic Data Centre
#                                CCDC 
#
#######################################################################
#
# If this CIF has been generated from an entry in the Cambridge 
# Structural Database, then it will include bibliographic, chemical, 
# crystal, experimental, refinement or atomic coordinate data resulting 
# from the CCDC's data processing and validation procedures.
#
#######################################################################

data_KOGYAH
_symmetry_cell_setting           monoclinic
_symmetry_space_group_name_H-M   'C 2/c'
_symmetry_Int_Tables_number      15
_space_group_name_Hall           '-C 2yn'
loop_
_symmetry_equiv_pos_site_id
_symmetry_equiv_pos_as_xyz
1 x,y,z
2 1/2+x,1/2+y,z
3 -x,y,1/2-z
4 1/2-x,1/2+y,1/2-z
5 -x,-y,-z
6 1/2-x,1/2-y,-z
7 x,-y,1/2+z
8 1/2+x,1/2-y,1/2+z
_cell_length_a                   14.0018(10)
_cell_length_b                   21.6139(15)
_cell_length_c                   9.7482(7)
_cell_angle_alpha                90
_cell_angle_beta                 110.892(2)
_cell_angle_gamma                90
_cell_volume                     2756.17
loop_
_atom_site_label
_atom_site_type_symbol
_atom_site_fract_x
_atom_site_fract_y
_atom_site_fract_z
Ag1 Ag 0.0000 0.20758(3) 0.2500
Ag2 Ag 0.2500 0.2500 0.5000
C1 C 0.1029(4) 0.1400(3) 0.5644(7)
C2 C 0.0903(5) 0.0770(3) 0.5045(8)
H1 H 0.0688 0.0684 0.4024
C3 C 0.1112(5) 0.0346(3) 0.6036(9)
H2 H 0.1091 -0.0084 0.5827
C4 C 0.1471(6) 0.1897(4) 0.8055(9)
H3 H 0.1898 0.2194 0.7773
H4 H 0.1824 0.1768 0.9075
H5 H 0.0819 0.2093 0.7961
C5 C 0.1156(3) 0.3480(2) 0.2423(6)
C6 C 0.1393(4) 0.4054(3) 0.3230(6)
H6 H 0.1670 0.4077 0.4271
C7 C 0.1183(5) 0.4549(3) 0.2354(7)
H7 H 0.1292 0.4963 0.2707
C8 C 0.0447(6) 0.3137(3) -0.0188(7)
H8 H 0.0623 0.2726 0.0258
H9 H 0.0789 0.3203 -0.0895
H10 H -0.0295 0.3165 -0.0694
N1 N 0.1279(4) 0.1355(3) 0.7092(6)
N2 N 0.0777(3) 0.3607(2) 0.0951(5)
O1 O 0.0954(3) 0.19003(18) 0.4963(4)
O2 O 0.1264(3) 0.29397(18) 0.2903(4)
S1 S 0.14346(13) 0.06436(9) 0.7789(2)
S2 S 0.06978(12) 0.43618(6) 0.05336(16)
Ag2G Ag -0.2500 0.2500 0.0000
C1B C -0.1029(4) 0.1400(3) -0.0644(7)
C2B C -0.0903(5) 0.0770(3) -0.0045(8)
H1B H -0.0688 0.0684 0.0976
C3B C -0.1112(5) 0.0346(3) -0.1036(9)
H2B H -0.1091 -0.0084 -0.0827
C4B C -0.1471(6) 0.1897(4) -0.3055(9)
H3B H -0.1898 0.2194 -0.2773
H4B H -0.1824 0.1768 -0.4075
H5B H -0.0819 0.2093 -0.2961
C5B C -0.1156(3) 0.3480(2) 0.2577(6)
C6B C -0.1393(4) 0.4054(3) 0.1770(6)
H6B H -0.1670 0.4077 0.0729
C7B C -0.1183(5) 0.4549(3) 0.2646(7)
H7B H -0.1292 0.4963 0.2293
C8B C -0.0447(6) 0.3137(3) 0.5188(7)
H8B H -0.0623 0.2726 0.4742
H9B H -0.0789 0.3203 0.5895
H10B H 0.0295 0.3165 0.5694
N1B N -0.1279(4) 0.1355(3) -0.2092(6)
N2B N -0.0777(3) 0.3607(2) 0.4049(5)
O1B O -0.0954(3) 0.19003(18) 0.0037(4)
O1E O 0.4046(3) 0.30997(18) 0.5037(4)
O2B O -0.1264(3) 0.29397(18) 0.2097(4)
O2E O 0.3736(3) 0.20603(18) 0.7097(4)
S1B S -0.14346(13) 0.06436(9) -0.2789(2)
S2B S -0.06978(12) 0.43618(6) 0.44664(16)
Cl1 Cl 0.23526(11) 0.12288(7) 0.22885(16)
O3 O 0.2873(5) 0.1703(3) 0.3255(9)
O4 O 0.2391(7) 0.0692(3) 0.3174(7)
O5 O 0.2833(6) 0.1075(4) 0.1291(8)
O6 O 0.1332(4) 0.1394(4) 0.1523(7)
loop_
_geom_bond_atom_site_label_1
_geom_bond_atom_site_label_2
_geom_bond_site_symmetry_1
_geom_bond_site_symmetry_2
Ag1 O1 1_555 1_555
Ag2 O1 1_555 1_555
C1 C2 1_555 1_555
C2 H1 1_555 1_555
C3 C2 1_555 1_555
H2 C3 1_555 1_555
C4 H3 1_555 1_555
H4 C4 1_555 1_555
H5 C4 1_555 1_555
C5 C6 1_555 1_555
C6 H6 1_555 1_555
C7 C6 1_555 1_555
H7 C7 1_555 1_555
C8 H8 1_555 1_555
H9 C8 1_555 1_555
H10 C8 1_555 1_555
Cl1 O3 1_555 1_555
N1 C1 1_555 1_555
N2 C5 1_555 1_555
O1 C1 1_555 1_555
O2 Ag1 1_555 1_555
O4 Cl1 1_555 1_555
O5 Cl1 1_555 1_555
O6 Cl1 1_555 1_555
S1 C3 1_555 1_555
S2 C7 1_555 1_555
Ag2G O1B 1_555 1_555
C1B C2B 1_555 1_555
C2B H1B 1_555 1_555
C3B C2B 1_555 1_555
H2B C3B 1_555 1_555
C4B H3B 1_555 1_555
H4B C4B 1_555 1_555
H5B C4B 1_555 1_555
C5B C6B 1_555 1_555
C6B H6B 1_555 1_555
C7B C6B 1_555 1_555
H7B C7B 1_555 1_555
C8B H8B 1_555 1_555
H9B C8B 1_555 1_555
H10B C8B 1_555 1_555
N1B C1B 1_555 1_555
N2B C5B 1_555 1_555
O1B Ag1 1_555 1_555
O1E Ag2 1_555 1_555
O2B Ag1 1_555 1_555
O2E Ag2 1_555 1_555
S1B C3B 1_555 1_555
S2B C7B 1_555 1_555
Ag2 O2 1_555 1_555
C4 N1 1_555 1_555
C5 O2 1_555 1_555
C8 N2 1_555 1_555
N1 S1 1_555 1_555
N2 S2 1_555 1_555
Ag2G O2B 1_555 1_555
C1B O1B 1_555 1_555
C4B N1B 1_555 1_555
C5B O2B 1_555 1_555
C8B N2B 1_555 1_555
N1B S1B 1_555 1_555
N2B S2B 1_555 1_555

#END
