
#######################################################################
#
#                 Cambridge Crystallographic Data Centre
#                                CCDC 
#
#######################################################################
#
# If this CIF has been generated from an entry in the Cambridge 
# Structural Database, then it will include bibliographic, chemical, 
# crystal, experimental, refinement or atomic coordinate data resulting 
# from the CCDC's data processing and validation procedures.
#
#######################################################################

data_KOGYOV
_symmetry_cell_setting           monoclinic
_symmetry_space_group_name_H-M   'P 21/n'
_symmetry_Int_Tables_number      14
_space_group_name_Hall           '-P 2yn'
loop_
_symmetry_equiv_pos_site_id
_symmetry_equiv_pos_as_xyz
1 x,y,z
2 1/2-x,1/2+y,1/2-z
3 -x,-y,-z
4 1/2+x,1/2-y,1/2+z
_cell_length_a                   15.5963(2)
_cell_length_b                   9.19440(10)
_cell_length_c                   24.2176(2)
_cell_angle_alpha                90
_cell_angle_beta                 101.4740(10)
_cell_angle_gamma                90
_cell_volume                     3403.37
loop_
_atom_site_label
_atom_site_type_symbol
_atom_site_fract_x
_atom_site_fract_y
_atom_site_fract_z
Cu1 Cu 0.37434(8) 0.51657(10) -0.02292(4)
Cu2 Cu 0.32090(6) 0.27647(8) 0.04411(3)
Cl1 Cl 0.47531(9) 0.34615(13) 0.04260(5)
N1 N 0.3406(4) 0.6626(5) 0.0274(2)
N2 N 0.2042(3) 0.8800(4) 0.39180(16)
N3 N 0.2014(3) 0.6277(4) -0.48753(16)
N4 N 0.3412(3) 0.4214(5) -0.09629(17)
C1 C 0.2594(5) 0.6776(7) 0.0349(3)
H1 H 0.2171 0.6154 0.0152
C2 C 0.2328(5) 0.7809(7) 0.0704(3)
H2 H 0.1747 0.7866 0.0740
C3 C 0.2944(5) 0.8736(6) 0.1000(2)
C4 C 0.3787(5) 0.8566(7) 0.0924(3)
H3 H 0.4227 0.9163 0.1118
C5 C 0.3989(5) 0.7524(7) 0.0563(3)
H4 H 0.4566 0.7446 0.0520
C6 C 0.2704(5) 0.9902(6) 0.1377(2)
H5 H 0.2156 1.0345 0.1195
H6 H 0.3150 1.0652 0.1430
C7 C 0.2611(4) 0.9316(6) 0.1953(2)
H7 H 0.3139 0.8793 0.2121
H8 H 0.2125 0.8640 0.1906
C8 C 0.2457(4) 1.0550(5) 0.2344(2)
H9 H 0.2957 1.1199 0.2404
H10 H 0.1947 1.1104 0.2165
C9 C 0.2317(3) 0.9999(5) 0.2905(2)
C10 C 0.1527(3) 1.0123(6) 0.3066(2)
H11 H 0.1069 1.0622 0.2840
C11 C 0.1417(4) 0.9501(6) 0.3565(2)
H12 H 0.0870 0.9578 0.3661
C12 C 0.2823(4) 0.8733(6) 0.3771(2)
H13 H 0.3282 0.8278 0.4014
C13 C 0.2975(4) 0.9306(6) 0.3278(2)
H14 H 0.3529 0.9227 0.3194
C14 C 0.1364(4) 0.5723(6) -0.4655(2)
H15 H 0.0807 0.6113 -0.4768
C15 C 0.1475(4) 0.4612(6) -0.4271(2)
H16 H 0.0999 0.4263 -0.4133
C16 C 0.2296(4) 0.4006(5) -0.4087(2)
C17 C 0.2966(4) 0.4582(6) -0.4308(2)
H17 H 0.3530 0.4221 -0.4194
C18 C 0.2810(4) 0.5692(6) -0.4698(2)
H18 H 0.3276 0.6050 -0.4844
C19 C 0.2432(4) 0.2812(5) -0.3653(2)
H19 H 0.2915 0.2201 -0.3709
H20 H 0.1911 0.2213 -0.3701
C20 C 0.2630(4) 0.3435(5) -0.30575(19)
H21 H 0.2157 0.4077 -0.3009
H22 H 0.3162 0.4007 -0.3008
C21 C 0.2739(4) 0.2245(6) -0.2606(2)
H23 H 0.2197 0.1704 -0.2642
H24 H 0.3193 0.1574 -0.2664
C22 C 0.2976(3) 0.2880(5) -0.2026(2)
C23 C 0.2378(4) 0.3010(7) -0.1677(2)
H25 H 0.1814 0.2647 -0.1791
C24 C 0.2619(4) 0.3676(7) -0.1159(2)
H26 H 0.2202 0.3754 -0.0934
C25 C 0.3985(4) 0.4087(6) -0.1302(2)
H27 H 0.4546 0.4449 -0.1176
C26 C 0.3797(3) 0.3456(6) -0.1824(2)
H28 H 0.4223 0.3415 -0.2043
Cu1B Cu 0.62566(8) 0.48343(10) 0.02292(4)
Cu2A Cu 0.17910(6) 0.77647(8) 0.45589(3)
Cu2A_2 Cu 0.17910(6) 0.77647(8) -0.54411(3)
Cl1B Cl 0.52469(9) 0.65385(13) -0.04260(5)
N2A N 0.2958(3) 0.3800(4) 0.10820(16)
N3A N 0.2986(3) 0.1277(4) -0.01247(16)
O1 O 0.0404(4) 0.1042(6) 0.0444(2)
O2 O 0.0025(7) 0.2999(10) -0.0313(3)
O3 O 0.0920(5) 0.5489(9) -0.0384(3)
O4 O 0.0116(5) 0.6864(9) -0.1341(3)
O5 O -0.0022(5) 0.7863(8) -0.2189(3)
O6 O -0.0140(6) 0.1324(8) -0.1284(3)
O7 O 0.0194(6) 0.0102(7) -0.1980(3)
C27 C 0.0082(6) 0.5271(7) -0.2129(3)
C28 C 0.0101(3) 0.4026(4) -0.18122(17)
H29 H 0.0146 0.4079 -0.1424
C29 C 0.0053(6) 0.2713(6) -0.2079(3)
C30 C 0.0137(6) 0.2585(8) -0.2625(3)
H30 H 0.0182 0.1676 -0.2785
C31 C 0.0154(7) 0.3833(8) -0.2934(3)
H31 H 0.0184 0.3772 -0.3313
C32 C 0.0127(7) 0.5166(8) -0.2687(3)
H32 H 0.0139 0.6006 -0.2899
C33 C 0.0113(3) 0.6753(5) -0.1821(2)
C34 C 0.0071(4) 0.1210(7) -0.1806(2)
O8? O 0.0177(10) 0.3256(15) -0.3365(6)
O9? O 0.0014(6) 0.6830(10) -0.2300(4)
O10? O 0.0245(6) 0.7863(9) -0.1453(3)
O11? O 0.0272(6) 0.1341(8) -0.2332(3)
O12? O -0.0087(6) 0.0098(8) -0.1658(4)
C35? C 0.0224(6) 0.5283(8) -0.1487(3)
C36? C 0.0101(3) 0.4026(4) -0.18122(17)
H33? H -0.0011 0.4066 -0.2204
C37? C 0.0153(6) 0.2736(7) -0.1533(3)
C38? C 0.0181(7) 0.2619(9) -0.0964(3)
H34? H 0.0142 0.1716 -0.0797
C39? C 0.0268(7) 0.3869(8) -0.0649(4)
H35? H 0.0313 0.3819 -0.0260
C40? C 0.0288(6) 0.5211(8) -0.0910(3)
H36? H 0.0345 0.6060 -0.0697
C41? C 0.0113(3) 0.6753(5) -0.1821(2)
C42? C 0.0071(4) 0.1210(7) -0.1806(2)
loop_
_geom_bond_atom_site_label_1
_geom_bond_atom_site_label_2
_geom_bond_site_symmetry_1
_geom_bond_site_symmetry_2
Cu1 Cu2 1_555 1_555
Cu2 Cl1 1_555 1_555
Cl1 Cu1 1_555 1_555
N1 Cu1 1_555 1_555
N2 C11 1_555 1_555
N3 C14 1_555 1_555
N4 Cu1 1_555 1_555
C1 N1 1_555 1_555
H1 C1 1_555 1_555
C2 C1 1_555 1_555
H2 C2 1_555 1_555
C3 C2 1_555 1_555
C4 C3 1_555 1_555
H3 C4 1_555 1_555
C5 N1 1_555 1_555
H4 C5 1_555 1_555
C6 C3 1_555 1_555
H5 C6 1_555 1_555
H6 C6 1_555 1_555
C7 C6 1_555 1_555
H7 C7 1_555 1_555
H8 C7 1_555 1_555
C8 C7 1_555 1_555
H9 C8 1_555 1_555
H10 C8 1_555 1_555
C9 C8 1_555 1_555
C10 C9 1_555 1_555
H11 C10 1_555 1_555
C11 C10 1_555 1_555
H12 C11 1_555 1_555
C12 N2 1_555 1_555
H13 C12 1_555 1_555
C13 C9 1_555 1_555
H14 C13 1_555 1_555
C14 H15 1_555 1_555
C15 C14 1_555 1_555
H16 C15 1_555 1_555
C16 C15 1_555 1_555
C17 C16 1_555 1_555
H17 C17 1_555 1_555
C18 N3 1_555 1_555
H18 C18 1_555 1_555
C19 C16 1_555 1_555
H19 C19 1_555 1_555
H20 C19 1_555 1_555
C20 C19 1_555 1_555
H21 C20 1_555 1_555
H22 C20 1_555 1_555
C21 C20 1_555 1_555
H23 C21 1_555 1_555
H24 C21 1_555 1_555
C22 C21 1_555 1_555
C23 C22 1_555 1_555
H25 C23 1_555 1_555
C24 N4 1_555 1_555
H26 C24 1_555 1_555
C25 N4 1_555 1_555
H27 C25 1_555 1_555
C26 C22 1_555 1_555
H28 C26 1_555 1_555
O4 C33 1_555 1_555
O5 C33 1_555 1_555
O6 C34 1_555 1_555
O7 C34 1_555 1_555
C27 C28 1_555 1_555
C28 H29 1_555 1_555
C29 C28 1_555 1_555
C30 C29 1_555 1_555
H30 C30 1_555 1_555
C31 C30 1_555 1_555
H31 C31 1_555 1_555
C32 C27 1_555 1_555
H32 C32 1_555 1_555
C33 C27 1_555 1_555
C34 C29 1_555 1_555
Cu1B Cl1 1_555 1_555
Cu2A N2 1_555 1_555
Cu2A_2 N3 1_555 1_555
Cl1B Cu1 1_555 1_555
N2A Cu2 1_555 1_555
N3A Cu2 1_555 1_555
C4 C5 1_555 1_555
C12 C13 1_555 1_555
C17 C18 1_555 1_555
C23 C24 1_555 1_555
C25 C26 1_555 1_555
C31 C32 1_555 1_555
Cu1B Cl1B 1_555 1_555

#END
