
#######################################################################
#
#                 Cambridge Crystallographic Data Centre
#                                CCDC 
#
#######################################################################
#
# If this CIF has been generated from an entry in the Cambridge 
# Structural Database, then it will include bibliographic, chemical, 
# crystal, experimental, refinement or atomic coordinate data resulting 
# from the CCDC's data processing and validation procedures.
#
#######################################################################

data_KOHBIT
_symmetry_cell_setting           monoclinic
_symmetry_space_group_name_H-M   'C 2/c'
_symmetry_Int_Tables_number      15
_space_group_name_Hall           '-C 2yn'
loop_
_symmetry_equiv_pos_site_id
_symmetry_equiv_pos_as_xyz
1 x,y,z
2 1/2+x,1/2+y,z
3 -x,y,1/2-z
4 1/2-x,1/2+y,1/2-z
5 -x,-y,-z
6 1/2-x,1/2-y,-z
7 x,-y,1/2+z
8 1/2+x,1/2-y,1/2+z
_cell_length_a                   24.2121(19)
_cell_length_b                   11.5806(6)
_cell_length_c                   7.8686(6)
_cell_angle_alpha                90
_cell_angle_beta                 99.6520(10)
_cell_angle_gamma                90
_cell_volume                     2175.05
loop_
_atom_site_label
_atom_site_type_symbol
_atom_site_fract_x
_atom_site_fract_y
_atom_site_fract_z
Pb1 Pb 0.0000 0.098769(12) 0.7500
S1 S 0.11824(4) 0.40321(7) 0.46012(13)
O1 O 0.03711(11) 0.11466(18) 0.4420(3)
O2 O 0.02619(10) 0.26849(17) 0.5947(3)
O3 O 0.21335(9) 0.37210(17) 0.6763(3)
N1 N 0.17610(11) 0.2073(2) 0.5706(4)
N2 N 0.22667(11) 0.1837(2) 0.6843(3)
N3 N 0.39812(11) 0.3461(2) 1.0829(3)
C1 C 0.04398(12) 0.2188(2) 0.4734(4)
C2 C 0.07527(13) 0.2888(3) 0.3557(4)
H1 H 0.0481 0.3219 0.2641
H2 H 0.0988 0.2368 0.3029
C3 C 0.17068(12) 0.3184(3) 0.5719(4)
C4 C 0.24635(12) 0.2816(2) 0.7424(4)
C5 C 0.29797(12) 0.3044(3) 0.8623(4)
C6 C 0.33006(13) 0.2142(2) 0.9406(4)
H3 H 0.3185 0.1380 0.9210
C7 C 0.37920(13) 0.2393(3) 1.0477(4)
H4 H 0.4007 0.1782 1.0990
C8 C 0.36599(15) 0.4322(3) 1.0104(5)
H5 H 0.3779 0.5076 1.0355
C9 C 0.31587(14) 0.4156(3) 0.9000(5)
H6 H 0.2947 0.4782 0.8523
Pb1G Pb 0.5000 0.401231(12) 1.2500
Pb1G_2 Pb -0.5000 0.401231(12) 0.2500
S1B S -0.11824(4) 0.40321(7) 1.03988(13)
O1B O -0.03711(11) 0.11466(18) 1.0580(3)
O2B O -0.02619(10) 0.26849(17) 0.9053(3)
O3B O -0.21335(9) 0.37210(17) 0.8237(3)
N1B N -0.17610(11) 0.2073(2) 0.9294(4)
N2B N -0.22667(11) 0.1837(2) 0.8157(3)
N3B N -0.39812(11) 0.3461(2) 0.4171(3)
N3G N -0.10188(11) 0.1539(2) 0.5829(3)
N3E N 0.10188(11) 0.1539(2) 0.9171(3)
C1B C -0.04398(12) 0.2188(2) 1.0266(4)
C2B C -0.07527(13) 0.2888(3) 1.1443(4)
H1B H -0.0481 0.3219 1.2359
H2B H -0.0988 0.2368 1.1971
C3B C -0.17068(12) 0.3184(3) 0.9281(4)
C4B C -0.24635(12) 0.2816(2) 0.7576(4)
C5B C -0.29797(12) 0.3044(3) 0.6377(4)
C6B C -0.33006(13) 0.2142(2) 0.5594(4)
H3B H -0.3185 0.1380 0.5790
C7B C -0.37920(13) 0.2393(3) 0.4523(4)
H4B H -0.4007 0.1782 0.4010
C8B C -0.36599(15) 0.4322(3) 0.4896(5)
H5B H -0.3779 0.5076 0.4645
C9B C -0.31587(14) 0.4156(3) 0.6000(5)
H6B H -0.2947 0.4782 0.6477
O4 O 0.0000 0.5196(3) 0.2500
H7 H 0.0129 0.5596 0.1751
H7B H -0.0129 0.5596 0.3249
loop_
_geom_bond_atom_site_label_1
_geom_bond_atom_site_label_2
_geom_bond_site_symmetry_1
_geom_bond_site_symmetry_2
Pb1 O1 1_555 1_555
S1 C2 1_555 1_555
O1 C1 1_555 1_555
O2 Pb1 1_555 1_555
O3 C3 1_555 1_555
N1 N2 1_555 1_555
N2 C4 1_555 1_555
N3 C7 1_555 1_555
C1 O2 1_555 1_555
C2 C1 1_555 1_555
H1 C2 1_555 1_555
H2 C2 1_555 1_555
C3 S1 1_555 1_555
C4 O3 1_555 1_555
C5 C4 1_555 1_555
C6 C5 1_555 1_555
H3 C6 1_555 1_555
C7 C6 1_555 1_555
H4 C7 1_555 1_555
C8 N3 1_555 1_555
H5 C8 1_555 1_555
C9 C5 1_555 1_555
H6 C9 1_555 1_555
O4 H7 1_555 1_555
Pb1G N3 1_555 1_555
Pb1G_2 N3B 1_555 1_555
S1B C2B 1_555 1_555
O1B Pb1 1_555 1_555
O2B Pb1 1_555 1_555
O3B C3B 1_555 1_555
N1B N2B 1_555 1_555
N2B C4B 1_555 1_555
N3B C7B 1_555 1_555
N3G Pb1 1_555 1_555
N3E Pb1 1_555 1_555
C1B O1B 1_555 1_555
C2B C1B 1_555 1_555
H1B C2B 1_555 1_555
H2B C2B 1_555 1_555
C3B S1B 1_555 1_555
C4B O3B 1_555 1_555
C5B C4B 1_555 1_555
C6B C5B 1_555 1_555
H3B C6B 1_555 1_555
C7B C6B 1_555 1_555
H4B C7B 1_555 1_555
C8B N3B 1_555 1_555
H5B C8B 1_555 1_555
C9B C5B 1_555 1_555
H6B C9B 1_555 1_555
H7B O4 1_555 1_555
N1 C3 1_555 1_555
C8 C9 1_555 1_555
O2B C1B 1_555 1_555
N1B C3B 1_555 1_555
C8B C9B 1_555 1_555

#END
