
#######################################################################
#
#                 Cambridge Crystallographic Data Centre
#                                CCDC 
#
#######################################################################
#
# If this CIF has been generated from an entry in the Cambridge 
# Structural Database, then it will include bibliographic, chemical, 
# crystal, experimental, refinement or atomic coordinate data resulting 
# from the CCDC's data processing and validation procedures.
#
#######################################################################

data_KOHBEP
_symmetry_cell_setting           triclinic
_symmetry_space_group_name_H-M   'P -1'
_symmetry_Int_Tables_number      2
_space_group_name_Hall           '-P 1'
loop_
_symmetry_equiv_pos_site_id
_symmetry_equiv_pos_as_xyz
1 x,y,z
2 -x,-y,-z
_cell_length_a                   8.345(5)
_cell_length_b                   11.673(7)
_cell_length_c                   12.642(7)
_cell_angle_alpha                113.281(7)
_cell_angle_beta                 95.691(8)
_cell_angle_gamma                98.615(8)
_cell_volume                     1101.3
loop_
_atom_site_label
_atom_site_type_symbol
_atom_site_fract_x
_atom_site_fract_y
_atom_site_fract_z
Zn1 Zn 0.24206(4) 0.15598(3) 0.48379(3)
S1 S -0.02458(11) 0.52460(8) 0.76847(7)
S2 S 0.59417(9) 0.28583(7) 0.23944(6)
O1 O 0.0372(3) 0.1974(2) 0.55683(17)
O2 O 0.1199(3) 0.3837(3) 0.5558(2)
O3 O 0.1957(2) 0.59363(18) 0.96020(15)
O4 O 0.5505(3) 0.1158(2) 0.44972(18)
O5 O 0.4029(2) 0.24271(17) 0.41508(15)
O6 O 0.3555(2) 0.15358(17) 0.05818(15)
O7 O 0.2235(3) -0.0181(2) 0.4783(2)
H1 H 0.3118 -0.0378 0.4985
H2 H 0.1351 -0.0737 0.4596
N1 N 0.6008(3) 0.7474(2) 1.34146(18)
N2 N 0.2339(3) 0.4134(2) 0.9653(2)
N3 N 0.1205(3) 0.3842(2) 0.8630(2)
N4 N -0.0810(3) -0.0771(2) -0.30704(19)
N5 N 0.3036(3) -0.0400(2) 0.05289(19)
N6 N 0.4316(3) 0.0366(2) 0.14828(19)
C1 C 0.3861(3) 0.6109(3) 1.1289(2)
C2 C 0.4337(4) 0.7418(3) 1.1731(2)
H3 H 0.3945 0.7864 1.1328
C3 C 0.5409(4) 0.8051(3) 1.2784(2)
H4 H 0.5734 0.8932 1.3072
C4 C 0.5509(4) 0.6204(3) 1.2975(2)
H5 H 0.5891 0.5778 1.3401
C5 C 0.4463(4) 0.5500(3) 1.1927(2)
H6 H 0.4165 0.4618 1.1651
C6 C 0.2728(3) 0.5341(3) 1.0178(2)
C7 C 0.1025(4) 0.4925(3) 0.8652(2)
C8 C -0.0964(3) 0.3631(3) 0.6602(2)
H7 H -0.1263 0.3083 0.6993
H8 H -0.1946 0.3589 0.6097
C9 C 0.0310(4) 0.3136(4) 0.5858(2)
C10 C 0.1431(3) -0.0029(3) -0.1012(2)
C11 C 0.0455(3) -0.1248(3) -0.1554(2)
H9 H 0.0532 -0.1835 -0.1235
C12 C -0.0624(4) -0.1573(3) -0.2567(2)
H10 H -0.1262 -0.2395 -0.2925
C13 C 0.0106(4) 0.0399(3) -0.2520(2)
H11 H -0.0013 0.0976 -0.2846
C14 C 0.1224(4) 0.0816(3) -0.1496(2)
H12 H 0.1823 0.1650 -0.1143
C15 C 0.2640(3) 0.0315(3) 0.0037(2)
C16 C 0.4557(3) 0.1478(3) 0.1470(2)
C17 C 0.6613(3) 0.2326(3) 0.3486(2)
H13 H 0.7120 0.1604 0.3120
H14 H 0.7455 0.3003 0.4077
C18 C 0.5287(3) 0.1939(3) 0.4089(2)
Zn1A Zn 0.75794(4) 0.84402(3) 1.51621(3)
Zn1A_2 Zn -0.24206(4) -0.15598(3) -0.48379(3)
N1A N 0.3992(3) 0.2526(2) 0.65854(18)
N4A N 0.0810(3) 0.0771(2) 0.30704(19)
O8 O 0.3076(3) 0.4793(2) 0.4318(2)
H15 H 0.2359 0.4596 0.4684
H16 H 0.3834 0.4369 0.4186
loop_
_geom_bond_atom_site_label_1
_geom_bond_atom_site_label_2
_geom_bond_site_symmetry_1
_geom_bond_site_symmetry_2
Zn1 O1 1_555 1_555
S1 C7 1_555 1_555
S2 C16 1_555 1_555
O1 C9 1_555 1_555
O2 C9 1_555 1_555
O3 C6 1_555 1_555
O4 C18 1_555 1_555
O5 Zn1 1_555 1_555
O6 C15 1_555 1_555
O7 Zn1 1_555 1_555
H1 O7 1_555 1_555
H2 O7 1_555 1_555
N1 C3 1_555 1_555
N2 N3 1_555 1_555
N3 C7 1_555 1_555
N4 C12 1_555 1_555
N5 N6 1_555 1_555
N6 C16 1_555 1_555
C1 C2 1_555 1_555
C2 H3 1_555 1_555
C3 C2 1_555 1_555
H4 C3 1_555 1_555
C4 N1 1_555 1_555
H5 C4 1_555 1_555
C5 C1 1_555 1_555
H6 C5 1_555 1_555
C6 N2 1_555 1_555
C7 O3 1_555 1_555
C8 S1 1_555 1_555
H7 C8 1_555 1_555
H8 C8 1_555 1_555
C9 C8 1_555 1_555
C10 C11 1_555 1_555
C11 H9 1_555 1_555
C12 C11 1_555 1_555
H10 C12 1_555 1_555
C13 N4 1_555 1_555
H11 C13 1_555 1_555
C14 C10 1_555 1_555
H12 C14 1_555 1_555
C15 N5 1_555 1_555
C16 O6 1_555 1_555
C17 S2 1_555 1_555
H13 C17 1_555 1_555
H14 C17 1_555 1_555
C18 O5 1_555 1_555
O8 H15 1_555 1_555
H16 O8 1_555 1_555
Zn1A N1 1_555 1_555
Zn1A_2 N4 1_555 1_555
N1A Zn1 1_555 1_555
N4A Zn1 1_555 1_555
C1 C6 1_555 1_555
C4 C5 1_555 1_555
C10 C15 1_555 1_555
C13 C14 1_555 1_555
C17 C18 1_555 1_555

#END
