
#######################################################################
#
#                 Cambridge Crystallographic Data Centre
#                                CCDC 
#
#######################################################################
#
# If this CIF has been generated from an entry in the Cambridge 
# Structural Database, then it will include bibliographic, chemical, 
# crystal, experimental, refinement or atomic coordinate data resulting 
# from the CCDC's data processing and validation procedures.
#
#######################################################################

data_KOHBUF
_symmetry_cell_setting           monoclinic
_symmetry_space_group_name_H-M   'P 21/c'
_symmetry_Int_Tables_number      14
_space_group_name_Hall           '-P 2ybc'
loop_
_symmetry_equiv_pos_site_id
_symmetry_equiv_pos_as_xyz
1 x,y,z
2 -x,1/2+y,1/2-z
3 -x,-y,-z
4 x,1/2-y,1/2+z
_cell_length_a                   4.7162(4)
_cell_length_b                   26.4099(19)
_cell_length_c                   8.1806(6)
_cell_angle_alpha                90
_cell_angle_beta                 105.4840(10)
_cell_angle_gamma                90
_cell_volume                     981.947
loop_
_atom_site_label
_atom_site_type_symbol
_atom_site_fract_x
_atom_site_fract_y
_atom_site_fract_z
Cd1 Cd 0.5000 1.0000 1.0000
S1 S -0.06344(14) 0.83428(2) 1.14178(9)
O1 O -0.0028(4) 0.73563(5) 1.1669(2)
O2 O 0.3022(4) 0.96574(6) 1.1986(2)
O3 O -0.1551(4) 0.93679(6) 1.0943(2)
N1 N 0.2582(4) 0.56162(7) 1.3000(2)
N2 N 0.3984(6) 0.72222(8) 1.3715(3)
N3 N 0.3536(5) 0.77516(7) 1.3534(3)
C1 C 0.1250(5) 0.64771(8) 1.2254(3)
C2 C 0.3010(5) 0.61132(8) 1.3255(3)
H1 H 0.4565 0.6220 1.4148
C3 C 0.0389(6) 0.54738(8) 1.1682(3)
H2 H 0.0097 0.5129 1.1469
C4 C -0.1465(6) 0.58073(9) 1.0621(3)
H3 H -0.2967 0.5689 0.9718
C5 C -0.1061(6) 0.63228(9) 1.0917(3)
H4 H -0.2306 0.6558 1.0237
C6 C 0.1873(5) 0.70156(8) 1.2614(3)
C7 C 0.1181(5) 0.78028(8) 1.2324(3)
C8 C 0.2127(5) 0.87983(8) 1.2401(3)
H5 H 0.3980 0.8715 1.2163
H6 H 0.2422 0.8795 1.3621
C9 C 0.1105(5) 0.93195(8) 1.1699(3)
Cd1_2 Cd -0.5000 1.0000 1.0000
Cd1C Cd 0.5000 0.5000 1.5000
Cd1_3 Cd 1.5000 1.0000 1.0000
Cd1C_2 Cd 0.5000 1.5000 0.5000
S1B S 1.06344(14) 1.16572(2) 0.85822(9)
O1B O 1.0028(4) 1.26437(5) 0.8331(2)
O2B O 0.6978(4) 1.03426(6) 0.8014(2)
O3B O 1.1551(4) 1.06321(6) 0.9057(2)
O3_2 O 0.8449(4) 0.93679(6) 1.0943(2)
O3B_2 O 0.1551(4) 1.06321(6) 0.9057(2)
N1B N 0.7418(4) 1.43838(7) 0.7000(2)
N1C N 0.2582(4) 0.93838(7) 0.8000(2)
N1A N 0.7418(4) 1.06162(7) 1.2000(2)
N2B N 0.6016(6) 1.27778(8) 0.6285(3)
N3B N 0.6464(5) 1.22484(7) 0.6466(3)
C1B C 0.8750(5) 1.35229(8) 0.7746(3)
C2B C 0.6990(5) 1.38868(8) 0.6745(3)
H1B H 0.5435 1.3780 0.5852
C3B C 0.9611(6) 1.45262(8) 0.8318(3)
H2B H 0.9903 1.4871 0.8531
C4B C 1.1465(6) 1.41927(9) 0.9379(3)
H3B H 1.2967 1.4311 1.0282
C5B C 1.1061(6) 1.36772(9) 0.9083(3)
H4B H 1.2306 1.3442 0.9763
C6B C 0.8127(5) 1.29844(8) 0.7386(3)
C7B C 0.8819(5) 1.21972(8) 0.7676(3)
C8B C 0.7873(5) 1.12017(8) 0.7599(3)
H5B H 0.6020 1.1285 0.7837
H6B H 0.7578 1.1205 0.6379
C9B C 0.8895(5) 1.06805(8) 0.8301(3)
loop_
_geom_bond_atom_site_label_1
_geom_bond_atom_site_label_2
_geom_bond_site_symmetry_1
_geom_bond_site_symmetry_2
Cd1 O2 1_555 1_555
S1 C7 1_555 1_555
O1 C6 1_555 1_555
O2 C9 1_555 1_555
O3 C9 1_555 1_555
N1 C2 1_555 1_555
N2 N3 1_555 1_555
N3 C7 1_555 1_555
C1 C2 1_555 1_555
C2 H1 1_555 1_555
C3 N1 1_555 1_555
H2 C3 1_555 1_555
C4 C3 1_555 1_555
H3 C4 1_555 1_555
C5 C1 1_555 1_555
H4 C5 1_555 1_555
C6 N2 1_555 1_555
C7 O1 1_555 1_555
C8 S1 1_555 1_555
H5 C8 1_555 1_555
H6 C8 1_555 1_555
C9 C8 1_555 1_555
Cd1_2 O3 1_555 1_555
Cd1C N1 1_555 1_555
Cd1_3 O3B 1_555 1_555
Cd1C_2 N1B 1_555 1_555
S1B C7B 1_555 1_555
O1B C6B 1_555 1_555
O2B Cd1 1_555 1_555
O3B C9B 1_555 1_555
O3_2 Cd1 1_555 1_555
O3B_2 Cd1 1_555 1_555
N1B C2B 1_555 1_555
N1C Cd1 1_555 1_555
N1A Cd1 1_555 1_555
N2B N3B 1_555 1_555
N3B C7B 1_555 1_555
C1B C2B 1_555 1_555
C2B H1B 1_555 1_555
C3B N1B 1_555 1_555
H2B C3B 1_555 1_555
C4B C3B 1_555 1_555
H3B C4B 1_555 1_555
C5B C1B 1_555 1_555
H4B C5B 1_555 1_555
C6B N2B 1_555 1_555
C7B O1B 1_555 1_555
C8B S1B 1_555 1_555
H5B C8B 1_555 1_555
H6B C8B 1_555 1_555
C9B O2B 1_555 1_555
C1 C6 1_555 1_555
C4 C5 1_555 1_555
C1B C6B 1_555 1_555
C4B C5B 1_555 1_555
C8B C9B 1_555 1_555

#END
