
#######################################################################
#
#                 Cambridge Crystallographic Data Centre
#                                CCDC 
#
#######################################################################
#
# If this CIF has been generated from an entry in the Cambridge 
# Structural Database, then it will include bibliographic, chemical, 
# crystal, experimental, refinement or atomic coordinate data resulting 
# from the CCDC's data processing and validation procedures.
#
#######################################################################

data_KOHKOI
_symmetry_cell_setting           tetragonal
_symmetry_space_group_name_H-M   'I 41 2 2'
_symmetry_Int_Tables_number      98
_space_group_name_Hall           'I 4bw 2bw'
loop_
_symmetry_equiv_pos_site_id
_symmetry_equiv_pos_as_xyz
1 x,y,z
2 x,1/2-y,1/4-z
3 1/2-x,1/2-y,1/2+z
4 1/2-x,y,3/4-z
5 1/2+y,1/2+x,1/2-z
6 1/2+y,-x,3/4+z
7 -y,1/2+x,1/4+z
8 -y,-x,-z
9 1/2+x,1/2+y,1/2+z
10 1/2+x,-y,3/4-z
11 -x,-y,z
12 -x,1/2+y,1/4-z
13 y,x,-z
14 y,1/2-x,1/4+z
15 1/2-y,x,3/4+z
16 1/2-y,1/2-x,1/2-z
_cell_length_a                   32.441(2)
_cell_length_b                   32.441(2)
_cell_length_c                   47.814(3)
_cell_angle_alpha                90
_cell_angle_beta                 90
_cell_angle_gamma                90
_cell_volume                     50320.3
loop_
_atom_site_label
_atom_site_type_symbol
_atom_site_fract_x
_atom_site_fract_y
_atom_site_fract_z
Zn1 Zn 0.51558(3) 0.11723(3) 0.147540(17)
Zn2 Zn 0.43349(3) 0.14925(3) 0.18485(2)
Zn3 Zn 0.52905(2) 0.17001(3) 0.20557(2)
Zn4 Zn 0.5000 0.0000 -0.184543(19)
Zn5 Zn 0.58942(2) 0.01709(2) -0.205071(16)
Zn6 Zn 0.5000 0.0000 -0.2500
K1 K 0.49138(7) 0.2500 0.1250
O1 O 0.49242(17) 0.16883(16) 0.11267(10)
O2 O 0.52973(16) 0.11349(17) 0.10713(11)
O3 O 0.53685(15) 0.02669(14) -0.15407(9)
O4 O 0.59172(15) 0.05690(14) -0.17272(10)
O5 O 0.57109(18) 0.10550(15) 0.16107(11)
O6 O 0.56548(17) 0.12251(16) 0.20611(12)
O7 O 0.43772(17) 0.22562(14) 0.16612(10)
O8 O 0.38681(15) 0.18628(15) 0.17922(11)
O9 O 0.60168(14) -0.03880(14) -0.19141(10)
O10 O 0.53624(12) -0.05352(15) -0.18231(10)
O11 O 0.49618(18) 0.18413(18) 0.23726(11)
O12 O 0.43618(18) 0.15547(17) 0.22568(12)
O13 O 0.54778(15) 0.27773(14) 0.08777(12)
O14 O 0.56970(13) 0.21493(15) 0.20557(12)
O15 O 0.63697(13) 0.03423(16) -0.22704(12)
O16 O 0.61016(17) 0.0051(2) -0.26451(12)
H1 H 0.5910 -0.0001 -0.2529
O17 O 0.41667(16) 0.10622(19) 0.15965(16)
O18 O 0.47452(17) 0.07255(16) 0.14857(12)
O19 O 0.49232(13) 0.15695(12) 0.17440(8)
H2 H 0.4919 0.1793 0.1651
O20 O 0.53303(10) 0.02708(10) -0.21769(7)
H3 H 0.5285 0.0529 -0.2177
O21 O 0.45284(11) 0.04716(11) -0.2500
C1 C 0.5118(3) 0.1454(3) 0.09809(16)
C2 C 0.5164(2) 0.1551(2) 0.06801(15)
C3 C 0.5411(3) 0.1289(2) 0.05123(16)
H4 H 0.5517 0.1045 0.0585
C4 C 0.5492(3) 0.1405(2) 0.02348(16)
H5 H 0.5665 0.1239 0.0128
C5 C 0.5327(2) 0.1753(2) 0.01145(14)
C6 C 0.5077(2) 0.19970(19) 0.02897(14)
H6 H 0.4959 0.2236 0.0218
C7 C 0.5003(2) 0.1892(2) 0.05580(13)
H7 H 0.4835 0.2063 0.0665
C8 C 0.5448(2) 0.1899(2) -0.01707(14)
C9 C 0.5440(2) 0.1621(2) -0.03954(16)
H8 H 0.5356 0.1350 -0.0368
C10 C 0.5559(2) 0.1758(3) -0.06625(15)
C11 C 0.5675(2) 0.2165(2) -0.07034(15)
H9 H 0.5758 0.2256 -0.0879
C12 C 0.5664(2) 0.2432(2) -0.04824(15)
C13 C 0.5548(2) 0.22989(19) -0.02228(14)
H10 H 0.5537 0.2488 -0.0077
C14 C 0.5595(3) 0.1439(2) -0.08963(15)
C15 C 0.5286(3) 0.1130(3) -0.09224(16)
H11 H 0.5072 0.1122 -0.0793
C16 C 0.5294(3) 0.0848(2) -0.11281(17)
H12 H 0.5090 0.0647 -0.1139
C17 C 0.5610(2) 0.0860(2) -0.13238(15)
C18 C 0.5907(3) 0.1171(3) -0.12978(18)
H13 H 0.6112 0.1188 -0.1433
C19 C 0.5912(3) 0.1443(2) -0.10900(17)
H14 H 0.6126 0.1633 -0.1075
C20 C 0.5633(2) 0.0536(2) -0.15485(13)
C21 C 0.5775(2) 0.2870(2) -0.05278(15)
C22 C 0.5697(3) 0.3062(2) -0.07771(16)
H15 H 0.5574 0.2915 -0.0922
C23 C 0.5804(3) 0.3486(2) -0.08163(16)
H16 H 0.5754 0.3613 -0.0987
C24 C 0.5982(2) 0.3705(2) -0.06009(15)
C25 C 0.6060(3) 0.3507(2) -0.03545(16)
H17 H 0.6186 0.3648 -0.0208
C26 C 0.5954(3) 0.3097(2) -0.03210(16)
H18 H 0.6006 0.2971 -0.0150
C27 C 0.5854(2) 0.1095(3) 0.1852(2)
C28 C 0.4000(2) 0.2192(2) 0.16974(15)
C29 C 0.3705(2) 0.2542(2) 0.16369(13)
C30 C 0.3293(2) 0.2476(2) 0.16680(15)
H19 H 0.3195 0.2227 0.1738
C31 C 0.3030(2) 0.2781(3) 0.15952(17)
H20 H 0.2749 0.2738 0.1622
C32 C 0.3156(2) 0.3151(2) 0.14844(14)
C33 C 0.3570(2) 0.3205(2) 0.14551(15)
H21 H 0.3666 0.3448 0.1375
C34 C 0.3847(2) 0.2918(2) 0.15374(14)
H22 H 0.4128 0.2972 0.1527
C35 C 0.28528(19) 0.3461(2) 0.13616(15)
C36 C 0.2488(2) 0.3556(2) 0.14771(15)
H23 H 0.2415 0.3433 0.1645
C37 C 0.2217(2) 0.3832(2) 0.13553(15)
C38 C 0.2334(2) 0.4016(2) 0.11017(17)
H24 H 0.2162 0.4210 0.1018
C39 C 0.27113(19) 0.39085(19) 0.09729(16)
C40 C 0.2959(2) 0.3637(2) 0.11109(16)
H25 H 0.3212 0.3569 0.1032
C41 C 0.1807(2) 0.3939(2) 0.14842(16)
C42 C 0.1559(3) 0.3657(2) 0.16026(18)
H26 H 0.1642 0.3383 0.1607
C43 C 0.1185(2) 0.3766(2) 0.17177(16)
H27 H 0.1030 0.3564 0.1807
C44 C 0.10357(19) 0.4152(2) 0.17070(14)
C45 C 0.1273(2) 0.4449(2) 0.15781(15)
H28 H 0.1174 0.4718 0.1568
C46 C 0.1644(2) 0.4361(2) 0.14661(17)
H29 H 0.1796 0.4566 0.1378
C47 C 0.5735(2) -0.0619(2) -0.18275(14)
C48 C 0.28273(19) 0.4092(2) 0.07008(14)
C49 C 0.2732(2) 0.4486(2) 0.06170(17)
H30 H 0.2566 0.4646 0.0732
C50 C 0.2871(2) 0.4650(2) 0.03757(17)
H31 H 0.2811 0.4923 0.0332
C51 C 0.3098(2) 0.4420(2) 0.01959(15)
C52 C 0.3209(2) 0.4023(2) 0.02627(17)
H32 H 0.3374 0.3867 0.0144
C53 C 0.3062(2) 0.3859(2) 0.05196(17)
H33 H 0.3125 0.3588 0.0567
C54 C 0.4600(2) 0.1759(3) 0.24181(16)
C55 C 0.5698(2) 0.2670(2) 0.06743(18)
C56 C 0.59813(18) 0.23146(19) 0.07116(16)
C57 C 0.6218(2) 0.2181(2) 0.04837(16)
H34 H 0.6217 0.2328 0.0317
C58 C 0.6453(2) 0.1829(2) 0.05106(17)
H35 H 0.6617 0.1745 0.0362
C59 C 0.6449(2) 0.1591(2) 0.07586(16)
C60 C 0.62246(19) 0.1746(2) 0.09799(14)
H36 H 0.6227 0.1604 0.1149
C61 C 0.59923(19) 0.2113(2) 0.09603(15)
H37 H 0.5850 0.2214 0.1115
C62 C 0.6643(2) 0.1175(2) 0.07762(14)
C63 C 0.7011(2) 0.1091(2) 0.06474(16)
H38 H 0.7151 0.1299 0.0552
C64 C 0.7174(2) 0.0697(2) 0.06590(17)
C65 C 0.6980(2) 0.0395(2) 0.08037(16)
H39 H 0.7096 0.0134 0.0818
C66 C 0.6601(2) 0.0485(2) 0.09317(14)
C67 C 0.6449(2) 0.0873(2) 0.09164(14)
H40 H 0.6202 0.0932 0.1006
C68 C 0.75606(14) 0.05918(18) 0.04935(11)
C69 C 0.75911(13) 0.06947(18) 0.02120(11)
H41 H 0.7377 0.0834 0.0124
C70 C 0.79424(16) 0.05894(17) 0.00617(8)
H42 H 0.7963 0.0658 -0.0127
C71 C 0.82632(13) 0.03812(17) 0.01929(10)
C72 C 0.82326(14) 0.02783(18) 0.04743(11)
H43 H 0.8447 0.0139 0.0562
C73 C 0.78813(17) 0.03836(19) 0.06246(9)
H44 H 0.7861 0.0315 0.0813
C74 C 0.6368(2) 0.0251(2) -0.2530(2)
C75 C 0.6355(2) 0.0152(2) 0.10786(15)
C76 C 0.6555(2) -0.0172(2) 0.12179(17)
H45 H 0.6841 -0.0186 0.1223
C77 C 0.6307(2) -0.0481(2) 0.13521(17)
H46 H 0.6435 -0.0703 0.1440
C78 C 0.5889(2) -0.0455(2) 0.13521(17)
C79 C 0.5691(2) -0.0142(3) 0.12232(17)
H47 H 0.5405 -0.0132 0.1221
C80 C 0.5927(2) 0.0171(2) 0.10913(15)
H48 H 0.5793 0.0395 0.1011
C81 C 0.4367(3) 0.0775(2) 0.14824(18)
Zn1J Zn 0.48442(3) -0.11723(3) 0.147540(17)
Zn1E Zn 0.61723(3) 0.48442(3) -0.102460(17)
Zn2N Zn 0.35075(3) 0.43349(3) -0.06515(2)
Zn2J Zn 0.56651(3) -0.14925(3) 0.18485(2)
Zn3N Zn 0.32999(3) 0.52905(2) -0.04443(2)
Zn3E Zn 0.67001(3) 0.47095(2) -0.04443(2)
Zn3A Zn 0.52905(2) 0.32999(3) 0.04443(2)
Zn4G Zn 0.0000 0.5000 0.184543(19)
Zn5G Zn -0.01709(2) 0.41058(2) 0.205071(16)
Zn5C Zn 0.91058(2) 0.01709(2) -0.044929(16)
O1A O 0.49242(17) 0.33117(16) 0.13733(10)
O3J O 0.46315(15) -0.02669(14) -0.15407(9)
O5E O 0.60550(15) 0.42891(18) -0.08893(11)
O6E O 0.62251(16) 0.43452(17) -0.04389(12)
O7A O 0.43772(17) 0.27438(14) 0.08388(10)
O9G O 0.03880(14) 0.39832(14) 0.19141(10)
O10J O 0.46376(12) 0.05352(15) -0.18231(10)
O10G O 0.05352(15) 0.46376(12) 0.18231(10)
O11N O 0.31587(18) 0.49618(18) -0.01274(11)
O12N O 0.34453(17) 0.43618(18) -0.02432(12)
O13A O 0.54778(15) 0.22227(14) 0.16223(12)
O14A O 0.56970(13) 0.28507(15) 0.04443(12)
O15C O 0.86303(13) 0.03423(16) -0.02296(12)
O16C O 0.88984(17) 0.0051(2) 0.01451(12)
H1C H 0.9090 -0.0001 0.0029
O17J O 0.58333(16) -0.10622(19) 0.15965(16)
O18J O 0.52548(17) -0.07255(16) 0.14857(12)
O20J O 0.46697(10) -0.02708(10) -0.21769(7)
O20D O 0.52708(10) 0.03303(10) -0.28231(7)
O20O O 0.47292(10) -0.03303(10) -0.28231(7)
O21D O 0.54716(11) -0.04716(11) -0.2500
C24F C 0.6295(2) 0.0982(2) 0.18991(15)
C27E C 0.6095(3) 0.4146(2) -0.0648(2)
C44G C 0.5848(2) -0.10357(19) -0.17070(14)
C47G C 0.0619(2) 0.4265(2) 0.18275(14)
C51M C 0.4420(2) 0.1902(2) 0.26959(15)
C54N C 0.3241(3) 0.4600(2) -0.00819(16)
C55A C 0.5698(2) 0.2330(2) 0.18257(18)
C71C C 0.67368(13) 0.03812(17) -0.26929(10)
C74C C 0.8632(2) 0.0251(2) 0.0030(2)
C78J C 0.4111(2) 0.0455(2) 0.13521(17)
C81J C 0.5633(3) -0.0775(2) 0.14824(18)
loop_
_geom_bond_atom_site_label_1
_geom_bond_atom_site_label_2
_geom_bond_site_symmetry_1
_geom_bond_site_symmetry_2
Zn1 O1 1_555 1_555
Zn2 O8 1_555 1_555
Zn3 O6 1_555 1_555
Zn4 O3 1_555 1_555
Zn5 O4 1_555 1_555
Zn6 O20 1_555 1_555
K1 O1 1_555 1_555
O1 C1 1_555 1_555
O2 Zn1 1_555 1_555
O3 C20 1_555 1_555
O4 C20 1_555 1_555
O5 Zn1 1_555 1_555
O6 C27 1_555 1_555
O7 K1 1_555 1_555
O8 C28 1_555 1_555
O9 Zn5 1_555 1_555
O10 Zn4 1_555 1_555
O11 Zn3 1_555 1_555
O12 Zn2 1_555 1_555
O13 K1 1_555 1_555
O14 Zn3 1_555 1_555
O15 Zn5 1_555 1_555
O16 H1 1_555 1_555
O17 Zn2 1_555 1_555
O18 Zn1 1_555 1_555
O19 Zn1 1_555 1_555
H2 O19 1_555 1_555
O20 Zn4 1_555 1_555
H3 O20 1_555 1_555
O21 Zn6 1_555 1_555
C1 O2 1_555 1_555
C2 C1 1_555 1_555
C3 C2 1_555 1_555
H4 C3 1_555 1_555
C4 C3 1_555 1_555
H5 C4 1_555 1_555
C5 C4 1_555 1_555
C6 C5 1_555 1_555
H6 C6 1_555 1_555
C7 C2 1_555 1_555
H7 C7 1_555 1_555
C8 C5 1_555 1_555
C9 C8 1_555 1_555
H8 C9 1_555 1_555
C10 C9 1_555 1_555
C11 C10 1_555 1_555
H9 C11 1_555 1_555
C12 C11 1_555 1_555
C13 C8 1_555 1_555
H10 C13 1_555 1_555
C14 C10 1_555 1_555
C15 C14 1_555 1_555
H11 C15 1_555 1_555
C16 C15 1_555 1_555
H12 C16 1_555 1_555
C17 C16 1_555 1_555
C18 C17 1_555 1_555
H13 C18 1_555 1_555
C19 C14 1_555 1_555
H14 C19 1_555 1_555
C20 C17 1_555 1_555
C21 C12 1_555 1_555
C22 C21 1_555 1_555
H15 C22 1_555 1_555
C23 C22 1_555 1_555
H16 C23 1_555 1_555
C24 C23 1_555 1_555
C25 C24 1_555 1_555
H17 C25 1_555 1_555
C26 C21 1_555 1_555
H18 C26 1_555 1_555
C27 O5 1_555 1_555
C28 O7 1_555 1_555
C29 C28 1_555 1_555
C30 C29 1_555 1_555
H19 C30 1_555 1_555
C31 C30 1_555 1_555
H20 C31 1_555 1_555
C32 C31 1_555 1_555
C33 C32 1_555 1_555
H21 C33 1_555 1_555
C34 C29 1_555 1_555
H22 C34 1_555 1_555
C35 C32 1_555 1_555
C36 C35 1_555 1_555
H23 C36 1_555 1_555
C37 C36 1_555 1_555
C38 C37 1_555 1_555
H24 C38 1_555 1_555
C39 C38 1_555 1_555
C40 C35 1_555 1_555
H25 C40 1_555 1_555
C41 C37 1_555 1_555
C42 C41 1_555 1_555
H26 C42 1_555 1_555
C43 C42 1_555 1_555
H27 C43 1_555 1_555
C44 C43 1_555 1_555
C45 C44 1_555 1_555
H28 C45 1_555 1_555
C46 C41 1_555 1_555
H29 C46 1_555 1_555
C47 O9 1_555 1_555
C48 C39 1_555 1_555
C49 C48 1_555 1_555
H30 C49 1_555 1_555
C50 C49 1_555 1_555
H31 C50 1_555 1_555
C51 C50 1_555 1_555
C52 C51 1_555 1_555
H32 C52 1_555 1_555
C53 C48 1_555 1_555
H33 C53 1_555 1_555
C54 O11 1_555 1_555
C55 O13 1_555 1_555
C56 C55 1_555 1_555
C57 C56 1_555 1_555
H34 C57 1_555 1_555
C58 C57 1_555 1_555
H35 C58 1_555 1_555
C59 C58 1_555 1_555
C60 C59 1_555 1_555
H36 C60 1_555 1_555
C61 C56 1_555 1_555
H37 C61 1_555 1_555
C62 C59 1_555 1_555
C63 C62 1_555 1_555
H38 C63 1_555 1_555
C64 C63 1_555 1_555
C65 C64 1_555 1_555
H39 C65 1_555 1_555
C66 C65 1_555 1_555
C67 C62 1_555 1_555
H40 C67 1_555 1_555
C68 C64 1_555 1_555
C69 C68 1_555 1_555
H41 C69 1_555 1_555
C70 C69 1_555 1_555
H42 C70 1_555 1_555
C71 C70 1_555 1_555
C72 C71 1_555 1_555
H43 C72 1_555 1_555
C73 C68 1_555 1_555
H44 C73 1_555 1_555
C74 O15 1_555 1_555
C75 C66 1_555 1_555
C76 C75 1_555 1_555
H45 C76 1_555 1_555
C77 C76 1_555 1_555
H46 C77 1_555 1_555
C78 C77 1_555 1_555
C79 C78 1_555 1_555
H47 C79 1_555 1_555
C80 C75 1_555 1_555
H48 C80 1_555 1_555
C81 O17 1_555 1_555
Zn1J O18J 1_555 1_555
Zn1E O5E 1_555 1_555
Zn2N O12N 1_555 1_555
Zn2J O17J 1_555 1_555
Zn3N O11N 1_555 1_555
Zn3E O6E 1_555 1_555
Zn3A O14A 1_555 1_555
Zn4G O10G 1_555 1_555
Zn5G O9G 1_555 1_555
Zn5C O15C 1_555 1_555
O1A K1 1_555 1_555
O3J Zn4 1_555 1_555
O5E C27E 1_555 1_555
O6E C27E 1_555 1_555
O7A K1 1_555 1_555
O9G C47G 1_555 1_555
O10J Zn4 1_555 1_555
O10G C47G 1_555 1_555
O11N C54N 1_555 1_555
O12N C54N 1_555 1_555
O13A K1 1_555 1_555
O14A C55 1_555 1_555
O15C C74C 1_555 1_555
O16C H1C 1_555 1_555
O17J C81J 1_555 1_555
O18J C81J 1_555 1_555
O20J Zn4 1_555 1_555
O20D Zn6 1_555 1_555
O20O Zn6 1_555 1_555
O21D Zn6 1_555 1_555
C24F C27 1_555 1_555
C27E C24 1_555 1_555
C44G C47 1_555 1_555
C47G C44 1_555 1_555
C51M C54 1_555 1_555
C54N C51 1_555 1_555
C55A O14 1_555 1_555
C71C C74 1_555 1_555
C74C C71 1_555 1_555
C78J C81 1_555 1_555
C81J C78 1_555 1_555
Zn2 O19 1_555 1_555
Zn3 O19 1_555 1_555
Zn5 O20 1_555 1_555
Zn6 O20J 1_555 1_555
O10 C47 1_555 1_555
O12 C54 1_555 1_555
O16 C74 1_555 1_555
O18 C81 1_555 1_555
C6 C7 1_555 1_555
C12 C13 1_555 1_555
C18 C19 1_555 1_555
C25 C26 1_555 1_555
C33 C34 1_555 1_555
C39 C40 1_555 1_555
C45 C46 1_555 1_555
C52 C53 1_555 1_555
C60 C61 1_555 1_555
C66 C67 1_555 1_555
C72 C73 1_555 1_555
C79 C80 1_555 1_555
O13A C55A 1_555 1_555
O16C C74C 1_555 1_555

#END
