
#######################################################################
#
#                 Cambridge Crystallographic Data Centre
#                                CCDC 
#
#######################################################################
#
# If this CIF has been generated from an entry in the Cambridge 
# Structural Database, then it will include bibliographic, chemical, 
# crystal, experimental, refinement or atomic coordinate data resulting 
# from the CCDC's data processing and validation procedures.
#
#######################################################################

data_KOHPED
_symmetry_cell_setting           monoclinic
_symmetry_space_group_name_H-M   'C 2/c'
_symmetry_Int_Tables_number      15
_space_group_name_Hall           '-C 2yn'
loop_
_symmetry_equiv_pos_site_id
_symmetry_equiv_pos_as_xyz
1 x,y,z
2 1/2+x,1/2+y,z
3 -x,y,1/2-z
4 1/2-x,1/2+y,1/2-z
5 -x,-y,-z
6 1/2-x,1/2-y,-z
7 x,-y,1/2+z
8 1/2+x,1/2-y,1/2+z
_cell_length_a                   21.693(4)
_cell_length_b                   8.5861(18)
_cell_length_c                   22.878(5)
_cell_angle_alpha                90
_cell_angle_beta                 100.686(12)
_cell_angle_gamma                90
_cell_volume                     4187.32
loop_
_atom_site_label
_atom_site_type_symbol
_atom_site_fract_x
_atom_site_fract_y
_atom_site_fract_z
Cd1 Cd 0.0000 0.16214(4) 0.2500
Cd2 Cd -0.001676(8) 0.362437(19) 0.064239(8)
O2 O -0.02781(10) 0.0947(2) 0.05888(8)
O4 O 0.00534(10) 0.1876(2) 0.14901(8)
O5 O 0.02314(10) -0.3767(2) 0.04104(8)
O6 O 0.04125(10) -0.4329(2) 0.13581(9)
O7 O 0.18843(18) -0.3428(5) 0.19639(18)
O8 O 0.18995(18) -0.2464(5) 0.10952(13)
H1 H 0.2214 -0.3013 0.1132
O9 O 0.09659(11) 0.0639(3) 0.28510(10)
O10 O 0.17674(15) -0.0930(4) 0.28487(15)
O11 O 0.02221(9) -0.0969(2) 0.19795(8)
O12 O -0.06626(14) 0.3909(3) 0.25014(12)
N1 N 0.09886(10) 0.2762(3) 0.06238(10)
N2 N 0.39896(10) -0.0577(3) 0.06899(10)
C1 C -0.00811(11) 0.0759(3) 0.11320(11)
C2 C 0.00320(12) -0.0914(3) 0.13500(11)
H2 H -0.0355 -0.1518 0.1233
C3 C 0.05626(12) -0.1673(3) 0.10821(11)
H3 H 0.0619 -0.1121 0.0721
C4 C 0.04024(11) -0.3373(3) 0.09450(11)
C5 C 0.12172(15) -0.0495(4) 0.26567(13)
C6 C 0.08574(13) -0.1486(3) 0.21504(12)
H4 H 0.0857 -0.2570 0.2284
C7 C 0.11362(13) -0.1418(3) 0.15848(13)
H5 H 0.1289 -0.0356 0.1547
C8 C 0.16756(14) -0.2523(4) 0.15655(15)
C9 C 0.14755(13) 0.3132(4) 0.10464(14)
H6 H 0.1417 0.3859 0.1332
C10 C 0.20641(13) 0.2484(4) 0.10800(15)
H7 H 0.2390 0.2773 0.1385
C11 C 0.21675(12) 0.1400(3) 0.06571(12)
C12 C 0.16583(13) 0.1010(4) 0.02233(14)
H8 H 0.1702 0.0277 -0.0066
C13 C 0.10825(13) 0.1713(4) 0.02197(13)
H9 H 0.0747 0.1441 -0.0078
C14 C 0.38661(14) 0.0259(4) 0.11408(14)
H10 H 0.4187 0.0421 0.1466
C15 C 0.32840(14) 0.0905(5) 0.11522(15)
H11 H 0.3221 0.1486 0.1479
C16 C 0.27963(11) 0.0684(3) 0.06755(12)
C17 C 0.29233(13) -0.0217(4) 0.02114(14)
H12 H 0.2609 -0.0415 -0.0116
C18 C 0.35190(14) -0.0824(4) 0.02348(15)
H13 H 0.3594 -0.1431 -0.0081
Cd2B Cd 0.001676(8) 0.362437(19) 0.435761(8)
Cd2_2 Cd -0.001676(8) -0.637563(19) 0.064239(8)
Cd2D Cd 0.001676(8) -0.362437(19) -0.064239(8)
Cd2A Cd 0.498324(8) -0.137563(19) 0.064239(8)
Cd2F Cd -0.001676(8) -0.362437(19) 0.564239(8)
Cd2B_2 Cd 0.001676(8) -0.637563(19) 0.435761(8)
Cd2A_2 Cd -0.501676(8) 0.862437(19) 0.064239(8)
O2B O 0.02781(10) 0.0947(2) 0.44112(8)
O4B O -0.00534(10) 0.1876(2) 0.35099(8)
O5B O -0.02314(10) -0.3767(2) 0.45896(8)
O5_2 O 0.02314(10) 0.6233(2) 0.04104(8)
O5D O -0.02314(10) 0.3767(2) -0.04104(8)
O5F O 0.02314(10) 0.3767(2) 0.54104(8)
O5B_2 O -0.02314(10) 0.6233(2) 0.45896(8)
O6B O -0.04125(10) -0.4329(2) 0.36419(9)
O6_2 O 0.04125(10) 0.5671(2) 0.13581(9)
O6B_2 O -0.04125(10) 0.5671(2) 0.36419(9)
O7B O -0.18843(18) -0.3428(5) 0.30361(18)
O8B O -0.18995(18) -0.2464(5) 0.39048(13)
H1B H -0.2214 -0.3013 0.3868
O9B O -0.09659(11) 0.0639(3) 0.21490(10)
O10B O -0.17674(15) -0.0930(4) 0.21513(15)
O11B O -0.02221(9) -0.0969(2) 0.30205(8)
O12B O 0.06626(14) 0.3909(3) 0.24986(12)
N1A N -0.40114(10) 0.7762(3) 0.06238(10)
N1B N -0.09886(10) 0.2762(3) 0.43762(10)
N2A N -0.10104(10) 0.4423(3) 0.06899(10)
N2C N 0.10104(10) 0.4423(3) 0.43101(10)
C1B C 0.00811(11) 0.0759(3) 0.38680(11)
C2B C -0.00320(12) -0.0914(3) 0.36500(11)
H2B H 0.0355 -0.1518 0.3767
C3B C -0.05626(12) -0.1673(3) 0.39179(11)
H3B H -0.0619 -0.1121 0.4279
C4B C -0.04024(11) -0.3373(3) 0.40550(11)
C5B C -0.12172(15) -0.0495(4) 0.23433(13)
C6B C -0.08574(13) -0.1486(3) 0.28496(12)
H4B H -0.0857 -0.2570 0.2716
C7B C -0.11362(13) -0.1418(3) 0.34152(13)
H5B H -0.1289 -0.0356 0.3453
C8B C -0.16756(14) -0.2523(4) 0.34345(15)
C9A C -0.35245(13) 0.8132(4) 0.10464(14)
H6A H -0.3583 0.8859 0.1332
C10A C -0.29359(13) 0.7484(4) 0.10800(15)
H7A H -0.2610 0.7773 0.1385
C11A C -0.28325(12) 0.6400(3) 0.06571(12)
C12A C -0.33417(13) 0.6010(4) 0.02233(14)
H8A H -0.3298 0.5277 -0.0066
C13A C -0.39175(13) 0.6713(4) 0.02197(13)
H9A H -0.4253 0.6441 -0.0078
C14A C -0.11339(14) 0.5259(4) 0.11408(14)
H10A H -0.0813 0.5421 0.1466
C15A C -0.17160(14) 0.5905(5) 0.11522(15)
H11A H -0.1779 0.6486 0.1479
C16A C -0.22037(11) 0.5684(3) 0.06755(12)
C17A C -0.20767(13) 0.4783(4) 0.02114(14)
H12A H -0.2391 0.4585 -0.0116
C18A C -0.14810(14) 0.4176(4) 0.02348(15)
H13A H -0.1406 0.3569 -0.0081
O1 O 0.20002(16) 0.1054(5) 0.38671(16)
H15 H 0.186(4) 0.064(8) 0.352(2)
H16 H 0.179(3) 0.189(5) 0.385(3)
O3 O 0.1942(2) 0.3458(8) 0.2569(3)
H14 H 0.224(9) 0.39(3) 0.245(13)
loop_
_geom_bond_atom_site_label_1
_geom_bond_atom_site_label_2
_geom_bond_site_symmetry_1
_geom_bond_site_symmetry_2
Cd1 O4 1_555 1_555
Cd2 O2 1_555 1_555
O1 H15 1_555 1_555
O2 C1 1_555 1_555
O3 H14 1_555 1_555
O4 Cd2 1_555 1_555
O5 C4 1_555 1_555
O6 C4 1_555 1_555
O7 C8 1_555 1_555
O8 H1 1_555 1_555
O9 Cd1 1_555 1_555
O10 C5 1_555 1_555
O11 Cd1 1_555 1_555
O12 Cd1 1_555 1_555
N1 Cd2 1_555 1_555
N2 C14 1_555 1_555
C1 O4 1_555 1_555
C2 O11 1_555 1_555
H2 C2 1_555 1_555
C3 C2 1_555 1_555
H3 C3 1_555 1_555
C4 C3 1_555 1_555
C5 O9 1_555 1_555
C6 O11 1_555 1_555
H4 C6 1_555 1_555
C7 C3 1_555 1_555
H5 C7 1_555 1_555
C8 O8 1_555 1_555
C9 N1 1_555 1_555
H6 C9 1_555 1_555
C10 C9 1_555 1_555
H7 C10 1_555 1_555
C11 C10 1_555 1_555
C12 C11 1_555 1_555
H8 C12 1_555 1_555
C13 N1 1_555 1_555
H9 C13 1_555 1_555
C14 H10 1_555 1_555
C15 C14 1_555 1_555
H11 C15 1_555 1_555
C16 C11 1_555 1_555
C17 C16 1_555 1_555
H12 C17 1_555 1_555
C18 N2 1_555 1_555
H13 C18 1_555 1_555
H16 O1 1_555 1_555
Cd2B O2B 1_555 1_555
Cd2_2 O5 1_555 1_555
Cd2D O5 1_555 1_555
Cd2A N2 1_555 1_555
Cd2F O5B 1_555 1_555
Cd2B_2 O5B 1_555 1_555
Cd2A_2 N1A 1_555 1_555
O2B C1B 1_555 1_555
O4B Cd1 1_555 1_555
O5B C4B 1_555 1_555
O5_2 Cd2 1_555 1_555
O5D Cd2 1_555 1_555
O5F Cd2B 1_555 1_555
O5B_2 Cd2B 1_555 1_555
O6B Cd2B_2 1_555 1_555
O6_2 Cd2 1_555 1_555
O6B_2 Cd2B 1_555 1_555
O7B C8B 1_555 1_555
O8B H1B 1_555 1_555
O9B Cd1 1_555 1_555
O10B C5B 1_555 1_555
O11B Cd1 1_555 1_555
O12B Cd1 1_555 1_555
N1A C9A 1_555 1_555
N1B Cd2B 1_555 1_555
N2A Cd2 1_555 1_555
N2C Cd2B 1_555 1_555
C1B O4B 1_555 1_555
C2B O11B 1_555 1_555
H2B C2B 1_555 1_555
C3B C2B 1_555 1_555
H3B C3B 1_555 1_555
C4B O6B 1_555 1_555
C5B O9B 1_555 1_555
C6B O11B 1_555 1_555
H4B C6B 1_555 1_555
C7B C3B 1_555 1_555
H5B C7B 1_555 1_555
C8B O8B 1_555 1_555
C9A H6A 1_555 1_555
C10A C9A 1_555 1_555
H7A C10A 1_555 1_555
C11A C10A 1_555 1_555
C12A C11A 1_555 1_555
H8A C12A 1_555 1_555
C13A N1A 1_555 1_555
H9A C13A 1_555 1_555
C14A N2A 1_555 1_555
H10A C14A 1_555 1_555
C15A C14A 1_555 1_555
H11A C15A 1_555 1_555
C16A C11A 1_555 1_555
C17A C16A 1_555 1_555
H12A C17A 1_555 1_555
C18A N2A 1_555 1_555
H13A C18A 1_555 1_555
O6 Cd2_2 1_555 1_555
C1 C2 1_555 1_555
C5 C6 1_555 1_555
C6 C7 1_555 1_555
C7 C8 1_555 1_555
C12 C13 1_555 1_555
C15 C16 1_555 1_555
C17 C18 1_555 1_555
Cd2B O4B 1_555 1_555
C1B C2B 1_555 1_555
C3B C4B 1_555 1_555
C5B C6B 1_555 1_555
C6B C7B 1_555 1_555
C7B C8B 1_555 1_555
C12A C13A 1_555 1_555
C15A C16A 1_555 1_555
C17A C18A 1_555 1_555

#END
