
#######################################################################
#
#                 Cambridge Crystallographic Data Centre
#                                CCDC 
#
#######################################################################
#
# If this CIF has been generated from an entry in the Cambridge 
# Structural Database, then it will include bibliographic, chemical, 
# crystal, experimental, refinement or atomic coordinate data resulting 
# from the CCDC's data processing and validation procedures.
#
#######################################################################

data_KOHSUX
_symmetry_cell_setting           triclinic
_symmetry_space_group_name_H-M   'P -1'
_symmetry_Int_Tables_number      2
_space_group_name_Hall           '-P 1'
loop_
_symmetry_equiv_pos_site_id
_symmetry_equiv_pos_as_xyz
1 x,y,z
2 -x,-y,-z
_cell_length_a                   11.1977(7)
_cell_length_b                   11.2936(7)
_cell_length_c                   14.7885(9)
_cell_angle_alpha                70.036(6)
_cell_angle_beta                 88.302(5)
_cell_angle_gamma                79.258(5)
_cell_volume                     1725.83
loop_
_atom_site_label
_atom_site_type_symbol
_atom_site_fract_x
_atom_site_fract_y
_atom_site_fract_z
Ni1 Ni 1.5000 1.0000 0.5000
Ni2 Ni 1.0000 1.0000 1.0000
C1 C 1.1555(4) 0.9087(4) 0.5872(3)
C2 C 1.1476(4) 0.9609(4) 0.6599(3)
H1 H 1.2051 1.0084 0.6649
C3 C 1.0568(4) 0.9438(4) 0.7248(3)
C4 C 0.9704(4) 0.8740(4) 0.7164(3)
H2 H 0.9091 0.8611 0.7605
C5 C 0.9749(3) 0.8239(4) 0.6434(3)
C6 C 1.0674(4) 0.8412(4) 0.5790(3)
H3 H 1.0706 0.8072 0.5297
C7 C 1.2565(4) 0.9324(4) 0.5180(3)
C8 C 1.0519(5) 1.0005(5) 0.8031(3)
C9 C 0.8753(3) 0.7554(4) 0.6309(3)
H4 H 0.8299 0.7334 0.6893
H5 H 0.8195 0.8128 0.5788
C10 C 0.8314(4) 0.6001(4) 0.5645(3)
H6 H 0.7583 0.5998 0.6014
H7 H 0.8601 0.5139 0.5639
C11 C 0.8021(4) 0.6915(4) 0.4624(3)
H8 H 0.7457 0.7671 0.4640
H9 H 0.8762 0.7186 0.4344
C12 C 0.8342(3) 0.5275(4) 0.3795(3)
H10 H 0.8654 0.4627 0.4403
H11 H 0.7904 0.4878 0.3456
C13 C 0.9390(4) 0.5727(4) 0.3208(3)
H12 H 0.9837 0.6115 0.3547
H13 H 0.9083 0.6375 0.2599
C14 C 1.0244(4) 0.4626(4) 0.3020(3)
H14 H 0.9802 0.4268 0.2655
H15 H 1.0901 0.4956 0.2633
C15 C 0.6321(3) 0.5922(4) 0.4409(3)
H16 H 0.5831 0.6608 0.4585
H17 H 0.6525 0.5184 0.4992
C16 C 0.5573(3) 0.5577(4) 0.3733(3)
C17 C 0.4802(3) 0.6515(3) 0.3030(3)
H18 H 0.4781 0.7375 0.2943
C18 C 0.4059(3) 0.6193(4) 0.2451(3)
C19 C 0.4097(3) 0.4914(4) 0.2583(3)
H19 H 0.3618 0.4691 0.2186
C20 C 0.4838(3) 0.3966(3) 0.3299(3)
C21 C 0.5574(3) 0.4303(3) 0.3871(3)
H20 H 0.6074 0.3665 0.4353
C22 C 0.3164(4) 0.7179(4) 0.1717(3)
C23 C 0.4731(3) 0.2592(3) 0.3503(3)
N1 N 0.9245(3) 0.6387(3) 0.6098(2)
N2 N 0.7476(3) 0.6340(3) 0.3988(2)
O1 O 1.3234(2) 1.0037(3) 0.5302(2)
O2 O 1.2691(3) 0.8815(3) 0.4552(2)
O3 O 0.9998(3) 0.9518(3) 0.8776(2)
O4 O 1.0828(9) 1.1096(7) 0.7809(6)
O5 O 0.3166(4) 0.8335(3) 0.1571(3)
O6 O 0.2469(3) 0.6776(3) 0.1288(2)
H21 H 0.2018 0.7387 0.0905
O7 O 0.4614(3) 0.2241(3) 0.2804(2)
O8 O 0.4737(3) 0.1939(2) 0.43674(18)
O9 O 1.5288(3) 1.0318(3) 0.63002(19)
H22 H 1.598(2) 1.061(3) 0.615(3)
H23 H 1.548(3) 0.9495(16) 0.667(3)
O10 O 1.0147(3) 0.8074(3) 1.0817(2)
H24 H 0.981(5) 0.763(5) 1.062(3)
H25 H 1.003(5) 0.820(5) 1.132(2)
O11 O 0.8139(3) 1.0148(4) 0.9992(3)
H26 H 0.782(4) 0.943(3) 1.026(4)
H27 H 0.760(4) 1.069(4) 0.953(3)
C1A C 0.8445(4) 0.0913(4) 0.4128(3)
C2A C 0.8524(4) 0.0391(4) 0.3401(3)
H1A H 0.7949 -0.0084 0.3351
C3A C 0.9432(4) 0.0562(4) 0.2752(3)
C4A C 1.0296(4) 0.1260(4) 0.2836(3)
H2A H 1.0909 0.1389 0.2395
C5A C 1.0251(3) 0.1761(4) 0.3566(3)
C6A C 0.9326(4) 0.1588(4) 0.4210(3)
H3A H 0.9294 0.1928 0.4703
C7A C 0.7435(4) 0.0676(4) 0.4820(3)
C8A C 0.9481(5) -0.0005(5) 0.1969(3)
C9A C 1.1247(3) 0.2446(4) 0.3691(3)
H4A H 1.1701 0.2666 0.3107
H5A H 1.1805 0.1872 0.4212
C10A C 1.1686(4) 0.3999(4) 0.4355(3)
H6A H 1.2417 0.4002 0.3986
H7A H 1.1399 0.4861 0.4361
C11A C 1.1979(4) 0.3085(4) 0.5376(3)
H8A H 1.2543 0.2329 0.5360
H9A H 1.1238 0.2814 0.5656
C12A C 1.1658(3) 0.4725(4) 0.6205(3)
H10A H 1.1346 0.5373 0.5597
H11A H 1.2096 0.5122 0.6544
C13A C 1.0610(4) 0.4273(4) 0.6792(3)
H12A H 1.0163 0.3885 0.6453
H13A H 1.0917 0.3625 0.7401
C14A C 0.9756(4) 0.5374(4) 0.6980(3)
H14A H 1.0198 0.5732 0.7345
H15A H 0.9099 0.5044 0.7367
C15A C 1.3679(3) 0.4078(4) 0.5591(3)
H16A H 1.4169 0.3392 0.5415
H17A H 1.3475 0.4816 0.5008
C16A C 1.4427(3) 0.4423(4) 0.6267(3)
C17A C 1.5198(3) 0.3485(3) 0.6970(3)
H18A H 1.5219 0.2625 0.7057
C18A C 1.5941(3) 0.3807(4) 0.7549(3)
C19A C 1.5903(3) 0.5086(4) 0.7417(3)
H19A H 1.6382 0.5309 0.7814
C20A C 1.5162(3) 0.6034(3) 0.6701(3)
C21A C 1.4426(3) 0.5697(3) 0.6129(3)
H20A H 1.3926 0.6335 0.5647
C22A C 1.6836(4) 0.2821(4) 0.8283(3)
C23A C 1.5269(3) 0.7408(3) 0.6497(3)
N1A N 1.0755(3) 0.3613(3) 0.3902(2)
N2A N 1.2524(3) 0.3660(3) 0.6012(2)
O1A O 0.6766(2) -0.0037(3) 0.4698(2)
O2A O 0.7309(3) 0.1185(3) 0.5448(2)
O3A O 1.0002(3) 0.0482(3) 0.1224(2)
O4A O 0.9172(9) -0.1096(7) 0.2191(6)
O5A O 1.6834(4) 0.1665(3) 0.8429(3)
O6A O 1.7531(3) 0.3224(3) 0.8712(2)
H21A H 1.7982 0.2613 0.9095
O7A O 1.5386(3) 0.7759(3) 0.7196(2)
O8A O 1.5263(3) 0.8061(2) 0.56326(18)
O9A O 1.4712(3) 0.9682(3) 0.36998(19)
H22A H 1.402(2) 0.939(3) 0.385(3)
H23A H 1.452(3) 1.0505(16) 0.333(3)
O10A O 0.9853(3) 1.1926(3) 0.9183(2)
H24A H 1.019(5) 1.237(5) 0.938(3)
H25A H 0.997(5) 1.180(5) 0.868(2)
O11A O 1.1861(3) 0.9852(4) 1.0008(3)
H26A H 1.218(4) 1.057(3) 0.974(4)
H27A H 1.240(4) 0.931(4) 1.047(3)
Ni1_2 Ni 0.5000 0.0000 0.5000
Ni2_2 Ni 1.0000 0.0000 0.0000
O1A_2 O 1.6766(2) 0.9963(3) 0.4698(2)
O3A_2 O 1.0002(3) 1.0482(3) 1.1224(2)
O8_2 O 1.4737(3) 1.1939(2) 0.43674(18)
Ni3 Ni 0.5000 0.5000 1.0000
C24 C 0.7264(5) 0.4974(6) 1.1494(3)
H28 H 0.7255 0.4170 1.1998
H29 H 0.6470 0.5505 1.1410
H30 H 0.7845 0.5397 1.1662
C25 C 0.7613(4) 0.4737(4) 1.0562(3)
C26 C 0.8868(4) 0.3894(5) 1.0686(4)
H31 H 0.8871 0.3105 1.1209
H32 H 0.9459 0.4332 1.0823
H33 H 0.9066 0.3715 1.0105
C27 C 0.7640(4) 0.5975(4) 0.9738(3)
H34 H 0.8356 0.6291 0.9835
H35 H 0.7742 0.5774 0.9150
C28 C 0.6569(4) 0.7043(4) 0.9581(3)
H36 H 0.6427 0.7209 1.0188
C29 C 0.6844(5) 0.8252(5) 0.8827(4)
H37 H 0.6155 0.8936 0.8734
H38 H 0.7010 0.8102 0.8231
H39 H 0.7540 0.8484 0.9039
C30 C 0.4375(4) 0.7650(4) 0.9281(4)
H40 H 0.4465 0.8463 0.8801
H41 H 0.4284 0.7763 0.9902
C31 C 0.3294(4) 0.7225(4) 0.9033(3)
H42 H 0.3324 0.7234 0.8374
H43 H 0.2555 0.7790 0.9097
N3 N 0.5443(3) 0.6667(3) 0.9310(2)
H44 H 0.550(4) 0.669(5) 0.8708(13)
N4 N 0.3315(3) 0.5898(3) 0.9712(2)
H45 H 0.304(4) 0.596(5) 1.0266(19)
C24A C 0.2736(5) 0.5026(6) 0.8506(3)
H28A H 0.2745 0.5830 0.8002
H29A H 0.3530 0.4495 0.8590
H30A H 0.2155 0.4603 0.8338
C25A C 0.2387(4) 0.5263(4) 0.9438(3)
C26A C 0.1132(4) 0.6106(5) 0.9314(4)
H31A H 0.1129 0.6895 0.8791
H32A H 0.0541 0.5668 0.9177
H33A H 0.0934 0.6285 0.9895
C27A C 0.2360(4) 0.4025(4) 1.0262(3)
H34A H 0.1644 0.3709 1.0165
H35A H 0.2258 0.4226 1.0850
C28A C 0.3431(4) 0.2957(4) 1.0419(3)
H36A H 0.3573 0.2791 0.9812
C29A C 0.3156(5) 0.1748(5) 1.1173(4)
H37A H 0.3845 0.1064 1.1266
H38A H 0.2990 0.1898 1.1769
H39A H 0.2460 0.1516 1.0961
C30A C 0.5625(4) 0.2350(4) 1.0719(4)
H40A H 0.5535 0.1537 1.1199
H41A H 0.5716 0.2237 1.0098
C31A C 0.6706(4) 0.2775(4) 1.0967(3)
H42A H 0.6676 0.2766 1.1626
H43A H 0.7445 0.2210 1.0903
N3A N 0.4557(3) 0.3333(3) 1.0690(2)
H44A H 0.450(4) 0.331(5) 1.1292(13)
N4A N 0.6685(3) 0.4102(3) 1.0288(2)
H45A H 0.696(4) 0.404(5) 0.9734(19)
O13 O 1.3397(5) 1.1322(5) 0.7364(4)
O15 O 0.5348(5) 0.9072(5) 0.0890(3)
O16 O 1.1643(6) 0.7251(5) 0.3845(4)
H46 H 1.159(9) 0.781(6) 0.3234(19)
H47 H 1.192(8) 0.765(6) 0.421(4)
O12? O 1.1388(12) 1.0597(14) 0.8073(9)
O14? O 1.2823(12) 1.1915(15) 0.7863(11)
loop_
_geom_bond_atom_site_label_1
_geom_bond_atom_site_label_2
_geom_bond_site_symmetry_1
_geom_bond_site_symmetry_2
Ni1 O1 1_555 1_555
Ni2 O3 1_555 1_555
C1 C2 1_555 1_555
C2 H1 1_555 1_555
C3 C2 1_555 1_555
C4 C3 1_555 1_555
H2 C4 1_555 1_555
C5 C4 1_555 1_555
C6 C1 1_555 1_555
H3 C6 1_555 1_555
C7 C1 1_555 1_555
C8 C3 1_555 1_555
C9 C5 1_555 1_555
H4 C9 1_555 1_555
H5 C9 1_555 1_555
C10 H6 1_555 1_555
H7 C10 1_555 1_555
C11 C10 1_555 1_555
H8 C11 1_555 1_555
H9 C11 1_555 1_555
C12 H10 1_555 1_555
H11 C12 1_555 1_555
C13 C12 1_555 1_555
H12 C13 1_555 1_555
H13 C13 1_555 1_555
C14 C13 1_555 1_555
H14 C14 1_555 1_555
H15 C14 1_555 1_555
C15 H16 1_555 1_555
H17 C15 1_555 1_555
C16 C15 1_555 1_555
C17 C16 1_555 1_555
H18 C17 1_555 1_555
C18 C17 1_555 1_555
C19 C18 1_555 1_555
H19 C19 1_555 1_555
C20 C19 1_555 1_555
C21 C16 1_555 1_555
H20 C21 1_555 1_555
C22 C18 1_555 1_555
C23 C20 1_555 1_555
N1 C9 1_555 1_555
N2 C11 1_555 1_555
O1 C7 1_555 1_555
O2 C7 1_555 1_555
O3 C8 1_555 1_555
O4 C8 1_555 1_555
O5 C22 1_555 1_555
O6 C22 1_555 1_555
H21 O6 1_555 1_555
O7 C23 1_555 1_555
O8 C23 1_555 1_555
O9 Ni1 1_555 1_555
H22 O9 1_555 1_555
H23 O9 1_555 1_555
O10 Ni2 1_555 1_555
H24 O10 1_555 1_555
H25 O10 1_555 1_555
O11 Ni2 1_555 1_555
H26 O11 1_555 1_555
H27 O11 1_555 1_555
Ni3 N3 1_555 1_555
C24 H28 1_555 1_555
H29 C24 1_555 1_555
H30 C24 1_555 1_555
C25 C24 1_555 1_555
C26 C25 1_555 1_555
H31 C26 1_555 1_555
H32 C26 1_555 1_555
H33 C26 1_555 1_555
C27 C25 1_555 1_555
H34 C27 1_555 1_555
H35 C27 1_555 1_555
C28 C27 1_555 1_555
H36 C28 1_555 1_555
C29 C28 1_555 1_555
H37 C29 1_555 1_555
H38 C29 1_555 1_555
H39 C29 1_555 1_555
C30 H40 1_555 1_555
H41 C30 1_555 1_555
C31 C30 1_555 1_555
H42 C31 1_555 1_555
H43 C31 1_555 1_555
N3 C28 1_555 1_555
H44 N3 1_555 1_555
N4 Ni3 1_555 1_555
H45 N4 1_555 1_555
O16 H46 1_555 1_555
H47 O16 1_555 1_555
C1A C2A 1_555 1_555
C2A H1A 1_555 1_555
C3A C2A 1_555 1_555
C4A C3A 1_555 1_555
H2A C4A 1_555 1_555
C5A C4A 1_555 1_555
C6A C1A 1_555 1_555
H3A C6A 1_555 1_555
C7A C1A 1_555 1_555
C8A C3A 1_555 1_555
C9A C5A 1_555 1_555
H4A C9A 1_555 1_555
H5A C9A 1_555 1_555
C10A H6A 1_555 1_555
H7A C10A 1_555 1_555
C11A C10A 1_555 1_555
H8A C11A 1_555 1_555
H9A C11A 1_555 1_555
C12A H10A 1_555 1_555
H11A C12A 1_555 1_555
C13A C12A 1_555 1_555
H12A C13A 1_555 1_555
H13A C13A 1_555 1_555
C14A N1 1_555 1_555
H14A C14A 1_555 1_555
H15A C14A 1_555 1_555
C15A H16A 1_555 1_555
H17A C15A 1_555 1_555
C16A C15A 1_555 1_555
C17A C16A 1_555 1_555
H18A C17A 1_555 1_555
C18A C17A 1_555 1_555
C19A C18A 1_555 1_555
H19A C19A 1_555 1_555
C20A C19A 1_555 1_555
C21A C16A 1_555 1_555
H20A C21A 1_555 1_555
C22A C18A 1_555 1_555
C23A C20A 1_555 1_555
N1A C14 1_555 1_555
N2A C11A 1_555 1_555
O1A C7A 1_555 1_555
O2A C7A 1_555 1_555
O3A C8A 1_555 1_555
O4A C8A 1_555 1_555
O5A C22A 1_555 1_555
O6A C22A 1_555 1_555
H21A O6A 1_555 1_555
O7A C23A 1_555 1_555
O8A Ni1 1_555 1_555
O9A Ni1 1_555 1_555
H22A O9A 1_555 1_555
H23A O9A 1_555 1_555
O10A Ni2 1_555 1_555
H24A O10A 1_555 1_555
H25A O10A 1_555 1_555
O11A Ni2 1_555 1_555
H26A O11A 1_555 1_555
H27A O11A 1_555 1_555
Ni1_2 O8 1_555 1_555
Ni2_2 O3A 1_555 1_555
O1A_2 Ni1 1_555 1_555
O3A_2 Ni2 1_555 1_555
O8_2 Ni1 1_555 1_555
C24A H28A 1_555 1_555
H29A C24A 1_555 1_555
H30A C24A 1_555 1_555
C25A N4 1_555 1_555
C26A C25A 1_555 1_555
H31A C26A 1_555 1_555
H32A C26A 1_555 1_555
H33A C26A 1_555 1_555
C27A C25A 1_555 1_555
H34A C27A 1_555 1_555
H35A C27A 1_555 1_555
C28A C27A 1_555 1_555
H36A C28A 1_555 1_555
C29A C28A 1_555 1_555
H37A C29A 1_555 1_555
H38A C29A 1_555 1_555
H39A C29A 1_555 1_555
C30A H40A 1_555 1_555
H41A C30A 1_555 1_555
C31A C30A 1_555 1_555
H42A C31A 1_555 1_555
H43A C31A 1_555 1_555
N3A Ni3 1_555 1_555
H44A N3A 1_555 1_555
N4A Ni3 1_555 1_555
H45A N4A 1_555 1_555
C5 C6 1_555 1_555
C10 N1 1_555 1_555
C12 N2 1_555 1_555
C15 N2 1_555 1_555
C20 C21 1_555 1_555
C25 N4A 1_555 1_555
C30 N3 1_555 1_555
C31 N4 1_555 1_555
C5A C6A 1_555 1_555
C9A N1A 1_555 1_555
C10A N1A 1_555 1_555
C12A N2A 1_555 1_555
C13A C14A 1_555 1_555
C15A N2A 1_555 1_555
C20A C21A 1_555 1_555
C23A O8A 1_555 1_555
O1A Ni1_2 1_555 1_555
C24A C25A 1_555 1_555
C28A N3A 1_555 1_555
C30A N3A 1_555 1_555
C31A N4A 1_555 1_555

#END
