
#######################################################################
#
#                 Cambridge Crystallographic Data Centre
#                                CCDC 
#
#######################################################################
#
# If this CIF has been generated from an entry in the Cambridge 
# Structural Database, then it will include bibliographic, chemical, 
# crystal, experimental, refinement or atomic coordinate data resulting 
# from the CCDC's data processing and validation procedures.
#
#######################################################################

data_KOHSIL
_symmetry_cell_setting           triclinic
_symmetry_space_group_name_H-M   'P -1'
_symmetry_Int_Tables_number      2
_space_group_name_Hall           '-P 1'
loop_
_symmetry_equiv_pos_site_id
_symmetry_equiv_pos_as_xyz
1 x,y,z
2 -x,-y,-z
_cell_length_a                   10.9750(6)
_cell_length_b                   14.5480(7)
_cell_length_c                   16.0630(9)
_cell_angle_alpha                81.074(5)
_cell_angle_beta                 86.503(5)
_cell_angle_gamma                86.458(4)
_cell_volume                     2525.35
loop_
_atom_site_label
_atom_site_type_symbol
_atom_site_fract_x
_atom_site_fract_y
_atom_site_fract_z
Co1 Co 0.5000 0.5000 0.5000
Co2 Co 0.5000 0.0000 1.0000
Co3 Co 1.0000 0.5000 1.0000
C1 C 0.5562(4) 0.1862(3) 0.5517(3)
C2 C 0.4424(4) 0.1723(3) 0.5927(3)
H1 H 0.3886 0.2233 0.5977
C3 C 0.4076(4) 0.0837(3) 0.6264(3)
C4 C 0.4910(4) 0.0086(3) 0.6231(3)
H2 H 0.4689 -0.0506 0.6474
C5 C 0.6070(4) 0.0199(3) 0.5842(3)
C6 C 0.6367(4) 0.1091(3) 0.5462(2)
H3 H 0.7118 0.1173 0.5166
C7 C 0.5915(4) 0.2836(3) 0.5146(3)
C8 C 0.2785(4) 0.0678(3) 0.6628(3)
C9 C 0.6938(4) -0.0640(3) 0.5822(3)
H4 H 0.6644 -0.1144 0.6239
H5 H 0.6922 -0.0836 0.5273
C10 C 0.8302(4) -0.0166(3) 0.6791(2)
H6 H 0.8147 -0.0680 0.7239
H7 H 0.7656 0.0311 0.6839
C11 C 0.9514(4) 0.0233(3) 0.6942(2)
H8 H 0.9476 0.0361 0.7518
H9 H 1.0157 -0.0248 0.6898
C12 C 1.0186(4) 0.0911(3) 0.5489(2)
H10 H 0.9431 0.0800 0.5245
H11 H 1.0701 0.0342 0.5516
C13 C 1.0823(4) 0.1674(3) 0.4900(3)
H12 H 1.1593 0.1785 0.5124
H13 H 1.0316 0.2248 0.4854
C14 C 1.1053(4) 0.1370(3) 0.4030(2)
H14 H 1.0269 0.1306 0.3802
H15 H 1.1460 0.1861 0.3658
C15 C 0.8976(4) 0.1918(3) 0.6386(2)
H16 H 0.9294 0.2454 0.6020
H17 H 0.8224 0.1773 0.6159
C16 C 0.8694(4) 0.2168(3) 0.7253(2)
C17 C 0.7614(4) 0.1921(3) 0.7706(3)
H18 H 0.7065 0.1581 0.7477
C18 C 0.7345(4) 0.2177(3) 0.8497(3)
C19 C 0.8175(4) 0.2688(3) 0.8826(3)
H19 H 0.8000 0.2866 0.9354
C20 C 0.9247(4) 0.2937(3) 0.8389(3)
C21 C 0.9508(4) 0.2671(3) 0.7604(3)
H20 H 1.0238 0.2831 0.7309
C22 C 0.6217(4) 0.1867(3) 0.9035(3)
C23 C 1.0096(4) 0.3547(3) 0.8739(3)
C24 C 0.6536(5) 0.5336(4) 0.3491(3)
H21 H 0.7266 0.5184 0.3158
H22 H 0.6378 0.6006 0.3392
C25 C 0.5467(5) 0.4861(4) 0.3235(3)
H23 H 0.5313 0.5084 0.2647
H24 H 0.5645 0.4194 0.3299
C26 C 0.3200(5) 0.4678(3) 0.3619(3)
C27 C 0.2741(6) 0.5148(4) 0.2775(4)
H25 H 0.2613 0.5806 0.2781
H26 H 0.1984 0.4894 0.2678
H27 H 0.3336 0.5041 0.2332
C28 C 0.3395(6) 0.3623(4) 0.3618(4)
H28 H 0.4000 0.3508 0.3184
H29 H 0.2639 0.3373 0.3514
H30 H 0.3669 0.3328 0.4157
C29 C 0.2249(4) 0.4885(4) 0.4308(3)
H31 H 0.1469 0.4706 0.4150
H32 H 0.2185 0.5556 0.4291
C30 C 0.2404(4) 0.4447(3) 0.5233(3)
H33 H 0.2760 0.3811 0.5236
C31 C 0.1174(5) 0.4384(5) 0.5734(4)
H34 H 0.1299 0.4099 0.6304
H35 H 0.0649 0.4015 0.5479
H36 H 0.0800 0.4998 0.5732
C32 C 0.5867(5) 0.0529(4) 1.1463(3)
H37 H 0.5534 0.0023 1.1859
H38 H 0.6066 0.1015 1.1775
C33 C 0.7008(5) 0.0181(4) 1.0997(3)
H39 H 0.7393 0.0699 1.0647
H40 H 0.7589 -0.0122 1.1397
C34 C 0.7662(4) -0.0875(3) 0.9941(3)
C35 C 0.8284(5) -0.0107(4) 0.9346(3)
H41 H 0.8610 0.0316 0.9668
H42 H 0.7700 0.0225 0.8973
H43 H 0.8936 -0.0376 0.9021
C36 C 0.8618(5) -0.1414(4) 1.0518(4)
H44 H 0.8235 -0.1902 1.0896
H45 H 0.8960 -0.0997 1.0837
H46 H 0.9255 -0.1681 1.0179
C37 C 0.7122(5) -0.1542(4) 0.9447(3)
H47 H 0.6720 -0.2007 0.9852
H48 H 0.7799 -0.1863 0.9175
C38 C 0.6213(5) -0.1180(3) 0.8770(3)
H49 H 0.6542 -0.0634 0.8413
C39 C 0.6088(6) -0.1932(4) 0.8224(4)
H50 H 0.5528 -0.1708 0.7792
H51 H 0.5786 -0.2478 0.8568
H52 H 0.6873 -0.2084 0.7967
C40 C 1.1644(5) 0.3904(4) 1.1102(3)
H53 H 1.1678 0.3365 1.0812
H54 H 1.1978 0.3713 1.1651
C41 C 1.2401(5) 0.4661(4) 1.0595(3)
H55 H 1.2383 0.5196 1.0889
H56 H 1.3244 0.4429 1.0531
C42 C 1.2366(4) 0.5807(4) 0.9260(3)
H57 H 1.2062 0.6329 0.9548
C43 C 1.3755(5) 0.5817(5) 0.9180(4)
H58 H 1.4072 0.5730 0.9732
H59 H 1.3991 0.6405 0.8873
H60 H 1.4076 0.5324 0.8884
C44 C 1.1819(5) 0.5954(4) 0.8385(3)
H61 H 1.2358 0.6343 0.8001
H62 H 1.1845 0.5352 0.8194
C45 C 1.0522(5) 0.6384(3) 0.8287(3)
C46 C 1.0400(6) 0.7351(4) 0.8566(4)
H63 H 1.0564 0.7292 0.9153
H64 H 0.9585 0.7614 0.8482
H65 H 1.0975 0.7749 0.8238
C47 C 1.0269(6) 0.6464(4) 0.7347(3)
H66 H 0.9457 0.6731 0.7255
H67 H 1.0341 0.5855 0.7181
H68 H 1.0850 0.6854 0.7016
N1 N 0.8214(3) -0.0498(2) 0.59837(19)
N2 N 0.9888(3) 0.1101(2) 0.63725(19)
O1 O 0.5164(3) 0.3487(2) 0.5284(2)
O2 O 0.6918(3) 0.2928(2) 0.4746(3)
O3 O 0.2120(3) 0.1386(2) 0.6771(2)
H69 H 0.2508 0.1856 0.6638
O4 O 0.2428(3) -0.0116(2) 0.6735(3)
O5 O 0.5771(3) 0.1125(3) 0.8911(2)
O6 O 0.5858(3) 0.2337(2) 0.9594(2)
O7 O 0.9795(3) 0.3766(2) 0.94527(19)
O8 O 1.1009(4) 0.3814(3) 0.8291(3)
N3 N 0.6719(4) 0.5020(3) 0.4393(2)
H70 H 0.695(5) 0.446(4) 0.445(3)
N4 N 0.4378(4) 0.5072(3) 0.3778(2)
H71 H 0.432(5) 0.559(4) 0.367(3)
N5 N 0.4968(4) 0.0897(3) 1.0838(3)
H72 H 0.522(5) 0.134(4) 1.056(4)
N6 N 0.6637(3) -0.0482(3) 1.0472(2)
H73 H 0.636(5) -0.096(4) 1.086(3)
N7 N 1.0357(4) 0.4257(3) 1.1209(2)
H74 H 1.043(5) 0.483(4) 1.144(3)
N8 N 1.1899(4) 0.4938(3) 0.9760(3)
H75 H 1.204(5) 0.450(4) 0.946(3)
C1A C 1.4438(4) -0.1862(3) 0.4483(3)
C2A C 1.5576(4) -0.1723(3) 0.4073(3)
H1A H 1.6114 -0.2233 0.4023
C3A C 1.5924(4) -0.0837(3) 0.3736(3)
C4A C 1.5090(4) -0.0086(3) 0.3769(3)
H2A H 1.5311 0.0506 0.3526
C5A C 1.3930(4) -0.0199(3) 0.4158(3)
C6A C 1.3633(4) -0.1091(3) 0.4538(2)
H3A H 1.2882 -0.1173 0.4834
C7A C 1.4085(4) -0.2836(3) 0.4854(3)
C8A C 1.7215(4) -0.0678(3) 0.3372(3)
C9A C 1.3062(4) 0.0640(3) 0.4178(3)
H4A H 1.3356 0.1144 0.3761
H5A H 1.3078 0.0836 0.4727
C10A C 1.1698(4) 0.0166(3) 0.3209(2)
H6A H 1.1853 0.0680 0.2761
H7A H 1.2344 -0.0311 0.3161
C11A C 1.0486(4) -0.0233(3) 0.3058(2)
H8A H 1.0524 -0.0361 0.2482
H9A H 0.9843 0.0248 0.3102
C12A C 0.9814(4) -0.0911(3) 0.4511(2)
H10A H 1.0569 -0.0800 0.4755
H11A H 0.9299 -0.0342 0.4484
C13A C 0.9177(4) -0.1674(3) 0.5100(3)
H12A H 0.8407 -0.1785 0.4876
H13A H 0.9684 -0.2248 0.5146
C14A C 0.8947(4) -0.1370(3) 0.5970(2)
H14A H 0.9731 -0.1306 0.6198
H15A H 0.8540 -0.1861 0.6342
C15A C 1.1024(4) -0.1918(3) 0.3614(2)
H16A H 1.0706 -0.2454 0.3980
H17A H 1.1776 -0.1773 0.3841
C16A C 1.1306(4) -0.2168(3) 0.2747(2)
C17A C 1.2386(4) -0.1921(3) 0.2294(3)
H18A H 1.2935 -0.1581 0.2523
C18A C 1.2655(4) -0.2177(3) 0.1503(3)
C19A C 1.1825(4) -0.2688(3) 0.1174(3)
H19A H 1.2000 -0.2866 0.0646
C20A C 1.0753(4) -0.2937(3) 0.1611(3)
C21A C 1.0492(4) -0.2671(3) 0.2396(3)
H20A H 0.9762 -0.2831 0.2691
C22A C 1.3783(4) -0.1867(3) 0.0965(3)
C23A C 0.9904(4) -0.3547(3) 0.1261(3)
N1A N 1.1786(3) 0.0498(2) 0.40163(19)
N2A N 1.0112(3) -0.1101(2) 0.36275(19)
O1A O 1.4836(3) -0.3487(2) 0.4716(2)
O2A O 1.3082(3) -0.2928(2) 0.5254(3)
O3A O 1.7880(3) -0.1386(2) 0.3229(2)
H69A H 1.7492 -0.1856 0.3362
O4A O 1.7572(3) 0.0116(2) 0.3265(3)
O5A O 1.4229(3) -0.1125(3) 0.1089(2)
O6A O 1.4142(3) -0.2337(2) 0.0406(2)
O7A O 1.0205(3) -0.3766(2) 0.05473(19)
O8A O 0.8991(4) -0.3814(3) 0.1709(3)
C24A C 0.3464(5) 0.4664(4) 0.6509(3)
H21A H 0.2734 0.4816 0.6842
H22A H 0.3622 0.3994 0.6608
C25A C 0.4533(5) 0.5139(4) 0.6765(3)
H23A H 0.4687 0.4916 0.7353
H24A H 0.4355 0.5806 0.6701
C26A C 0.6800(5) 0.5322(3) 0.6381(3)
C27A C 0.7259(6) 0.4852(4) 0.7225(4)
H25A H 0.7387 0.4194 0.7219
H26A H 0.8016 0.5106 0.7322
H27A H 0.6664 0.4959 0.7668
C28A C 0.6605(6) 0.6377(4) 0.6382(4)
H28A H 0.6000 0.6492 0.6816
H29A H 0.7361 0.6627 0.6486
H30A H 0.6331 0.6672 0.5843
C29A C 0.7751(4) 0.5115(4) 0.5692(3)
H31A H 0.8531 0.5294 0.5850
H32A H 0.7815 0.4444 0.5709
C30A C 0.7596(4) 0.5553(3) 0.4767(3)
H33A H 0.7240 0.6189 0.4764
C31A C 0.8826(5) 0.5616(5) 0.4266(4)
H34A H 0.8701 0.5901 0.3696
H35A H 0.9351 0.5985 0.4521
H36A H 0.9200 0.5002 0.4268
N3A N 0.3281(4) 0.4980(3) 0.5607(2)
H70A H 0.305(5) 0.554(4) 0.555(3)
N4A N 0.5622(4) 0.4928(3) 0.6222(2)
H71A H 0.568(5) 0.441(4) 0.633(3)
C32A C 0.4133(5) -0.0529(4) 0.8537(3)
H37A H 0.4466 -0.0023 0.8141
H38A H 0.3934 -0.1015 0.8225
C33A C 0.2992(5) -0.0181(4) 0.9003(3)
H39A H 0.2607 -0.0699 0.9353
H40A H 0.2411 0.0122 0.8603
C34A C 0.2338(4) 0.0875(3) 1.0059(3)
C35A C 0.1716(5) 0.0107(4) 1.0654(3)
H41A H 0.1390 -0.0316 1.0332
H42A H 0.2300 -0.0225 1.1027
H43A H 0.1064 0.0376 1.0979
C36A C 0.1382(5) 0.1414(4) 0.9482(4)
H44A H 0.1765 0.1902 0.9104
H45A H 0.1040 0.0997 0.9163
H46A H 0.0745 0.1681 0.9821
C37A C 0.2878(5) 0.1542(4) 1.0553(3)
H47A H 0.3280 0.2007 1.0148
H48A H 0.2201 0.1863 1.0825
C38A C 0.3787(5) 0.1180(3) 1.1230(3)
H49A H 0.3458 0.0634 1.1587
C39A C 0.3912(6) 0.1932(4) 1.1776(4)
H50A H 0.4472 0.1708 1.2208
H51A H 0.4214 0.2478 1.1432
H52A H 0.3127 0.2084 1.2033
N5A N 0.5032(4) -0.0897(3) 0.9162(3)
H72A H 0.478(5) -0.134(4) 0.944(4)
N6A N 0.3363(3) 0.0482(3) 0.9528(2)
H73A H 0.364(5) 0.096(4) 0.914(3)
C40A C 0.8356(5) 0.6096(4) 0.8898(3)
H53A H 0.8322 0.6635 0.9188
H54A H 0.8022 0.6287 0.8349
C41A C 0.7599(5) 0.5339(4) 0.9405(3)
H55A H 0.7617 0.4804 0.9111
H56A H 0.6756 0.5571 0.9469
C42A C 0.7634(4) 0.4193(4) 1.0740(3)
H57A H 0.7938 0.3671 1.0452
C43A C 0.6245(5) 0.4183(5) 1.0820(4)
H58A H 0.5928 0.4270 1.0268
H59A H 0.6009 0.3595 1.1127
H60A H 0.5924 0.4676 1.1116
C44A C 0.8181(5) 0.4046(4) 1.1615(3)
H61A H 0.7642 0.3657 1.1999
H62A H 0.8155 0.4648 1.1806
C45A C 0.9478(5) 0.3616(3) 1.1713(3)
C46A C 0.9600(6) 0.2649(4) 1.1434(4)
H63A H 0.9436 0.2708 1.0847
H64A H 1.0415 0.2386 1.1518
H65A H 0.9025 0.2251 1.1762
C47A C 0.9731(6) 0.3536(4) 1.2653(3)
H66A H 1.0543 0.3269 1.2745
H67A H 0.9659 0.4145 1.2819
H68A H 0.9150 0.3146 1.2984
N7A N 0.9643(4) 0.5743(3) 0.8791(2)
H74A H 0.957(5) 0.517(4) 0.856(3)
N8A N 0.8101(4) 0.5062(3) 1.0240(3)
H75A H 0.796(5) 0.550(4) 1.054(3)
Co1_2 Co 1.5000 -0.5000 0.5000
Co2_2 Co 1.5000 0.0000 0.0000
Co3_2 Co 1.0000 -0.5000 0.0000
O1A_2 O 0.4836(3) 0.6513(2) 0.4716(2)
O5A_2 O 0.4229(3) -0.1125(3) 1.1089(2)
O7A_2 O 1.0205(3) 0.6234(2) 1.05473(19)
O9 O 0.2999(6) 0.2602(4) 0.7770(3)
O10 O 0.3933(8) 0.3595(5) 0.8947(5)
O11 O 0.3101(11) 0.7934(6) 0.6828(6)
O12? O 0.2012(11) 0.8146(7) 0.6432(8)
loop_
_geom_bond_atom_site_label_1
_geom_bond_atom_site_label_2
_geom_bond_site_symmetry_1
_geom_bond_site_symmetry_2
Co1 O1 1_555 1_555
Co2 O5 1_555 1_555
Co3 O7 1_555 1_555
C1 C2 1_555 1_555
C2 H1 1_555 1_555
C3 C2 1_555 1_555
C4 C3 1_555 1_555
H2 C4 1_555 1_555
C5 C4 1_555 1_555
C6 C1 1_555 1_555
H3 C6 1_555 1_555
C7 C1 1_555 1_555
C8 C3 1_555 1_555
C9 C5 1_555 1_555
H4 C9 1_555 1_555
H5 C9 1_555 1_555
C10 H6 1_555 1_555
H7 C10 1_555 1_555
C11 C10 1_555 1_555
H8 C11 1_555 1_555
H9 C11 1_555 1_555
C12 H10 1_555 1_555
H11 C12 1_555 1_555
C13 C12 1_555 1_555
H12 C13 1_555 1_555
H13 C13 1_555 1_555
C14 C13 1_555 1_555
H14 C14 1_555 1_555
H15 C14 1_555 1_555
C15 H16 1_555 1_555
H17 C15 1_555 1_555
C16 C15 1_555 1_555
C17 C16 1_555 1_555
H18 C17 1_555 1_555
C18 C17 1_555 1_555
C19 C18 1_555 1_555
H19 C19 1_555 1_555
C20 C19 1_555 1_555
C21 C16 1_555 1_555
H20 C21 1_555 1_555
C22 C18 1_555 1_555
C23 C20 1_555 1_555
C24 H21 1_555 1_555
H22 C24 1_555 1_555
C25 C24 1_555 1_555
H23 C25 1_555 1_555
H24 C25 1_555 1_555
C26 C27 1_555 1_555
C27 H25 1_555 1_555
H26 C27 1_555 1_555
H27 C27 1_555 1_555
C28 C26 1_555 1_555
H28 C28 1_555 1_555
H29 C28 1_555 1_555
H30 C28 1_555 1_555
C29 C26 1_555 1_555
H31 C29 1_555 1_555
H32 C29 1_555 1_555
C30 C29 1_555 1_555
H33 C30 1_555 1_555
C31 C30 1_555 1_555
H34 C31 1_555 1_555
H35 C31 1_555 1_555
H36 C31 1_555 1_555
C32 H37 1_555 1_555
H38 C32 1_555 1_555
C33 C32 1_555 1_555
H39 C33 1_555 1_555
H40 C33 1_555 1_555
C34 C35 1_555 1_555
C35 H41 1_555 1_555
H42 C35 1_555 1_555
H43 C35 1_555 1_555
C36 C34 1_555 1_555
H44 C36 1_555 1_555
H45 C36 1_555 1_555
H46 C36 1_555 1_555
C37 C34 1_555 1_555
H47 C37 1_555 1_555
H48 C37 1_555 1_555
C38 C37 1_555 1_555
H49 C38 1_555 1_555
C39 C38 1_555 1_555
H50 C39 1_555 1_555
H51 C39 1_555 1_555
H52 C39 1_555 1_555
C40 H53 1_555 1_555
H54 C40 1_555 1_555
C41 C40 1_555 1_555
H55 C41 1_555 1_555
H56 C41 1_555 1_555
C42 H57 1_555 1_555
C43 C42 1_555 1_555
H58 C43 1_555 1_555
H59 C43 1_555 1_555
H60 C43 1_555 1_555
C44 C42 1_555 1_555
H61 C44 1_555 1_555
H62 C44 1_555 1_555
C45 C44 1_555 1_555
C46 C45 1_555 1_555
H63 C46 1_555 1_555
H64 C46 1_555 1_555
H65 C46 1_555 1_555
C47 C45 1_555 1_555
H66 C47 1_555 1_555
H67 C47 1_555 1_555
H68 C47 1_555 1_555
N1 C9 1_555 1_555
N2 C11 1_555 1_555
O1 C7 1_555 1_555
O2 C7 1_555 1_555
O3 C8 1_555 1_555
H69 O3 1_555 1_555
O4 C8 1_555 1_555
O5 C22 1_555 1_555
O6 C22 1_555 1_555
O7 C23 1_555 1_555
O8 C23 1_555 1_555
N3 Co1 1_555 1_555
H70 N3 1_555 1_555
N4 Co1 1_555 1_555
H71 N4 1_555 1_555
N5 Co2 1_555 1_555
H72 N5 1_555 1_555
N6 Co2 1_555 1_555
H73 N6 1_555 1_555
N7 Co3 1_555 1_555
H74 N7 1_555 1_555
N8 Co3 1_555 1_555
H75 N8 1_555 1_555
C1A C2A 1_555 1_555
C2A H1A 1_555 1_555
C3A C2A 1_555 1_555
C4A C3A 1_555 1_555
H2A C4A 1_555 1_555
C5A C4A 1_555 1_555
C6A C1A 1_555 1_555
H3A C6A 1_555 1_555
C7A C1A 1_555 1_555
C8A C3A 1_555 1_555
C9A C5A 1_555 1_555
H4A C9A 1_555 1_555
H5A C9A 1_555 1_555
C10A H6A 1_555 1_555
H7A C10A 1_555 1_555
C11A C10A 1_555 1_555
H8A C11A 1_555 1_555
H9A C11A 1_555 1_555
C12A H10A 1_555 1_555
H11A C12A 1_555 1_555
C13A C12A 1_555 1_555
H12A C13A 1_555 1_555
H13A C13A 1_555 1_555
C14A N1 1_555 1_555
H14A C14A 1_555 1_555
H15A C14A 1_555 1_555
C15A H16A 1_555 1_555
H17A C15A 1_555 1_555
C16A C15A 1_555 1_555
C17A C16A 1_555 1_555
H18A C17A 1_555 1_555
C18A C17A 1_555 1_555
C19A C18A 1_555 1_555
H19A C19A 1_555 1_555
C20A C19A 1_555 1_555
C21A C16A 1_555 1_555
H20A C21A 1_555 1_555
C22A C18A 1_555 1_555
C23A C20A 1_555 1_555
N1A C14 1_555 1_555
N2A C11A 1_555 1_555
O1A C7A 1_555 1_555
O2A C7A 1_555 1_555
O3A C8A 1_555 1_555
H69A O3A 1_555 1_555
O4A C8A 1_555 1_555
O5A C22A 1_555 1_555
O6A C22A 1_555 1_555
O7A C23A 1_555 1_555
O8A C23A 1_555 1_555
C24A H21A 1_555 1_555
H22A C24A 1_555 1_555
C25A C24A 1_555 1_555
H23A C25A 1_555 1_555
H24A C25A 1_555 1_555
C26A C27A 1_555 1_555
C27A H25A 1_555 1_555
H26A C27A 1_555 1_555
H27A C27A 1_555 1_555
C28A C26A 1_555 1_555
H28A C28A 1_555 1_555
H29A C28A 1_555 1_555
H30A C28A 1_555 1_555
C29A C26A 1_555 1_555
H31A C29A 1_555 1_555
H32A C29A 1_555 1_555
C30A N3 1_555 1_555
H33A C30A 1_555 1_555
C31A C30A 1_555 1_555
H34A C31A 1_555 1_555
H35A C31A 1_555 1_555
H36A C31A 1_555 1_555
N3A Co1 1_555 1_555
H70A N3A 1_555 1_555
N4A Co1 1_555 1_555
H71A N4A 1_555 1_555
C32A H37A 1_555 1_555
H38A C32A 1_555 1_555
C33A C32A 1_555 1_555
H39A C33A 1_555 1_555
H40A C33A 1_555 1_555
C34A C35A 1_555 1_555
C35A H41A 1_555 1_555
H42A C35A 1_555 1_555
H43A C35A 1_555 1_555
C36A C34A 1_555 1_555
H44A C36A 1_555 1_555
H45A C36A 1_555 1_555
H46A C36A 1_555 1_555
C37A C34A 1_555 1_555
H47A C37A 1_555 1_555
H48A C37A 1_555 1_555
C38A N5 1_555 1_555
H49A C38A 1_555 1_555
C39A C38A 1_555 1_555
H50A C39A 1_555 1_555
H51A C39A 1_555 1_555
H52A C39A 1_555 1_555
N5A Co2 1_555 1_555
H72A N5A 1_555 1_555
N6A Co2 1_555 1_555
H73A N6A 1_555 1_555
C40A H53A 1_555 1_555
H54A C40A 1_555 1_555
C41A C40A 1_555 1_555
H55A C41A 1_555 1_555
H56A C41A 1_555 1_555
C42A H57A 1_555 1_555
C43A C42A 1_555 1_555
H58A C43A 1_555 1_555
H59A C43A 1_555 1_555
H60A C43A 1_555 1_555
C44A C42A 1_555 1_555
H61A C44A 1_555 1_555
H62A C44A 1_555 1_555
C45A N7 1_555 1_555
C46A C45A 1_555 1_555
H63A C46A 1_555 1_555
H64A C46A 1_555 1_555
H65A C46A 1_555 1_555
C47A C45A 1_555 1_555
H66A C47A 1_555 1_555
H67A C47A 1_555 1_555
H68A C47A 1_555 1_555
N7A Co3 1_555 1_555
H74A N7A 1_555 1_555
N8A Co3 1_555 1_555
H75A N8A 1_555 1_555
Co1_2 O1A 1_555 1_555
Co2_2 O5A 1_555 1_555
Co3_2 O7A 1_555 1_555
O1A_2 Co1 1_555 1_555
O5A_2 Co2 1_555 1_555
O7A_2 Co3 1_555 1_555
C5 C6 1_555 1_555
C10 N1 1_555 1_555
C12 N2 1_555 1_555
C15 N2 1_555 1_555
C20 C21 1_555 1_555
C24 N3 1_555 1_555
C25 N4 1_555 1_555
C26 N4 1_555 1_555
C30 N3A 1_555 1_555
C32 N5 1_555 1_555
C33 N6 1_555 1_555
C34 N6 1_555 1_555
C38 N5A 1_555 1_555
C40 N7 1_555 1_555
C41 N8 1_555 1_555
C42 N8 1_555 1_555
C45 N7A 1_555 1_555
C5A C6A 1_555 1_555
C9A N1A 1_555 1_555
C10A N1A 1_555 1_555
C12A N2A 1_555 1_555
C13A C14A 1_555 1_555
C15A N2A 1_555 1_555
C20A C21A 1_555 1_555
C24A N3A 1_555 1_555
C25A N4A 1_555 1_555
C26A N4A 1_555 1_555
C29A C30A 1_555 1_555
C32A N5A 1_555 1_555
C33A N6A 1_555 1_555
C34A N6A 1_555 1_555
C37A C38A 1_555 1_555
C40A N7A 1_555 1_555
C41A N8A 1_555 1_555
C42A N8A 1_555 1_555
C44A C45A 1_555 1_555

#END
