
#######################################################################
#
#                 Cambridge Crystallographic Data Centre
#                                CCDC 
#
#######################################################################
#
# If this CIF has been generated from an entry in the Cambridge 
# Structural Database, then it will include bibliographic, chemical, 
# crystal, experimental, refinement or atomic coordinate data resulting 
# from the CCDC's data processing and validation procedures.
#
#######################################################################

data_KOHTUX
_symmetry_cell_setting           monoclinic
_symmetry_space_group_name_H-M   'P 21/m'
_symmetry_Int_Tables_number      11
_space_group_name_Hall           '-P 2yb'
loop_
_symmetry_equiv_pos_site_id
_symmetry_equiv_pos_as_xyz
1 x,y,z
2 -x,1/2+y,-z
3 -x,-y,-z
4 x,1/2-y,z
_cell_length_a                   7.3615(2)
_cell_length_b                   17.614(4)
_cell_length_c                   11.267(2)
_cell_angle_alpha                90
_cell_angle_beta                 108.06(3)
_cell_angle_gamma                90
_cell_volume                     1388.96
loop_
_atom_site_label
_atom_site_type_symbol
_atom_site_fract_x
_atom_site_fract_y
_atom_site_fract_z
Ag1 Ag 0.15175(2) 0.513079(11) -0.081356(14)
C8 C -0.5750(3) 0.45304(14) -0.8380(2)
H4 H -0.6179 0.4073 -0.8783
C9 C -0.4519(3) 0.45060(12) -0.7181(2)
H5 H -0.4124 0.4041 -0.6798
C10 C -0.3865(3) 0.51733(11) -0.65430(18)
C11 C -0.4446(4) 0.58383(13) -0.7197(2)
H6 H -0.4005 0.6303 -0.6826
C12 C -0.5684(4) 0.58162(14) -0.8404(2)
H7 H -0.6060 0.6273 -0.8820
C13 C -0.2235(4) 0.45030(13) -0.4535(2)
H8 H -0.2730 0.4045 -0.4910
C14 C -0.1109(4) 0.45091(13) -0.3306(2)
H9 H -0.0862 0.4052 -0.2872
C15 C -0.0754(3) 0.57923(13) -0.3363(2)
H10 H -0.0260 0.6243 -0.2961
C16 C -0.1859(3) 0.58273(12) -0.4601(2)
H11 H -0.2077 0.6291 -0.5015
C17 C -0.2643(3) 0.51691(11) -0.52242(18)
N1 N -0.0356(3) 0.51467(10) -0.27098(16)
N2 N -0.6366(3) 0.51748(11) -0.89991(17)
O7 O 0.0803(3) 0.36690(11) -0.0466(2)
H15 H 0.115(4) 0.3289(10) -0.079(2)
H16 H 0.011(3) 0.3468(13) -0.007(2)
Ag1_2 Ag 1.15175(2) 0.513079(11) 0.918644(14)
Ag1B Ag -0.15175(2) 0.486921(11) 0.081356(14)
Ag1_3 Ag -0.84825(2) 0.513079(11) -1.081356(14)
Ag1B_2 Ag 0.84825(2) 0.486921(11) 1.081356(14)
C8_2 C 0.4250(3) 0.45304(14) 0.1620(2)
H4_2 H 0.3821 0.4073 0.1217
C9_2 C 0.5481(3) 0.45060(12) 0.2819(2)
H5_2 H 0.5876 0.4041 0.3202
C10_2 C 0.6135(3) 0.51733(11) 0.34570(18)
C11_2 C 0.5554(4) 0.58383(13) 0.2803(2)
H6_2 H 0.5995 0.6303 0.3174
C12_2 C 0.4316(4) 0.58162(14) 0.1596(2)
H7_2 H 0.3940 0.6273 0.1180
C13_2 C 0.7765(4) 0.45030(13) 0.5465(2)
H8_2 H 0.7270 0.4045 0.5090
C14_2 C 0.8891(4) 0.45091(13) 0.6694(2)
H9_2 H 0.9138 0.4052 0.7128
C15_2 C 0.9246(3) 0.57923(13) 0.6637(2)
H10_2 H 0.9740 0.6243 0.7039
C16_2 C 0.8141(3) 0.58273(12) 0.5399(2)
H11_2 H 0.7923 0.6291 0.4985
C17_2 C 0.7357(3) 0.51691(11) 0.47758(18)
N1_2 N 0.9644(3) 0.51467(10) 0.72902(16)
N2_2 N 0.3634(3) 0.51748(11) 0.10009(17)
N2_3 N 1.3634(3) 0.51748(11) 1.10009(17)
O7_2 O 1.0803(3) 0.36690(11) 0.9534(2)
H15_2 H 1.115(4) 0.3289(10) 0.921(2)
H16_2 H 1.011(3) 0.3468(13) 0.993(2)
C1 C 0.6568(4) 0.2500 0.2209(3)
C2 C 0.4607(5) 0.2500 0.2041(3)
H1 H 0.3745 0.2500 0.1238
C3 C 0.3947(5) 0.2500 0.3050(4)
H2 H 0.2638 0.2500 0.2925
C4 C 0.5201(5) 0.2500 0.4256(4)
C5 C 0.7191(4) 0.2500 0.4447(3)
C6 C 0.7835(4) 0.2500 0.3409(3)
H3 H 0.9142 0.2500 0.3523
C7 C 0.8585(5) 0.2500 0.5742(3)
O1 O 0.5859(4) 0.2500 -0.0190(2)
O2 O 0.8584(3) 0.31814(13) 0.10363(18)
O3 O 0.7857(4) 0.2500 0.6627(2)
O4 O 1.0326(4) 0.2500 0.5878(2)
O5 O 0.4546(4) 0.2500 0.5239(3)
S1 S 0.74595(12) 0.2500 0.09221(7)
H12 H 0.550(5) 0.2500 0.589(4)
O2C O 0.8584(3) 0.18186(13) 0.10363(18)
O6 O 0.2088(4) 0.2500 0.8356(3)
H13 H 0.184(4) 0.2500 0.7567(10)
H14 H 0.3304(15) 0.2500 0.859(3)
loop_
_geom_bond_atom_site_label_1
_geom_bond_atom_site_label_2
_geom_bond_site_symmetry_1
_geom_bond_site_symmetry_2
Ag1 N1 1_555 1_555
C1 C2 1_555 1_555
C2 H1 1_555 1_555
C3 C2 1_555 1_555
H2 C3 1_555 1_555
C4 C3 1_555 1_555
C5 C4 1_555 1_555
C6 C1 1_555 1_555
H3 C6 1_555 1_555
C7 C5 1_555 1_555
C8 H4 1_555 1_555
C9 C8 1_555 1_555
H5 C9 1_555 1_555
C10 C9 1_555 1_555
C11 C10 1_555 1_555
H6 C11 1_555 1_555
C12 C11 1_555 1_555
H7 C12 1_555 1_555
C13 H8 1_555 1_555
C14 C13 1_555 1_555
H9 C14 1_555 1_555
C15 H10 1_555 1_555
C16 C15 1_555 1_555
H11 C16 1_555 1_555
C17 C10 1_555 1_555
N1 C14 1_555 1_555
N2 C8 1_555 1_555
O1 S1 1_555 1_555
O2 S1 1_555 1_555
O3 C7 1_555 1_555
O4 C7 1_555 1_555
O5 C4 1_555 1_555
O6 H13 1_555 1_555
O7 Ag1 1_555 1_555
S1 C1 1_555 1_555
H12 O5 1_555 1_555
H14 O6 1_555 1_555
H15 O7 1_555 1_555
H16 O7 1_555 1_555
Ag1_2 Ag1B_2 1_555 1_555
Ag1B Ag1 1_555 1_555
Ag1_3 N2 1_555 1_555
C8_2 H4_2 1_555 1_555
C9_2 C8_2 1_555 1_555
H5_2 C9_2 1_555 1_555
C10_2 C9_2 1_555 1_555
C11_2 C10_2 1_555 1_555
H6_2 C11_2 1_555 1_555
C12_2 C11_2 1_555 1_555
H7_2 C12_2 1_555 1_555
C13_2 H8_2 1_555 1_555
C14_2 C13_2 1_555 1_555
H9_2 C14_2 1_555 1_555
C15_2 H10_2 1_555 1_555
C16_2 C15_2 1_555 1_555
H11_2 C16_2 1_555 1_555
C17_2 C10_2 1_555 1_555
N1_2 Ag1_2 1_555 1_555
N2_2 Ag1 1_555 1_555
N2_3 Ag1_2 1_555 1_555
O2C S1 1_555 1_555
O7_2 Ag1_2 1_555 1_555
H15_2 O7_2 1_555 1_555
H16_2 O7_2 1_555 1_555
C5 C6 1_555 1_555
C12 N2 1_555 1_555
C13 C17 1_555 1_555
C15 N1 1_555 1_555
C16 C17 1_555 1_555
C8_2 N2_2 1_555 1_555
C12_2 N2_2 1_555 1_555
C13_2 C17_2 1_555 1_555
C14_2 N1_2 1_555 1_555
C15_2 N1_2 1_555 1_555
C16_2 C17_2 1_555 1_555

#END
