
#######################################################################
#
#                 Cambridge Crystallographic Data Centre
#                                CCDC 
#
#######################################################################
#
# If this CIF has been generated from an entry in the Cambridge 
# Structural Database, then it will include bibliographic, chemical, 
# crystal, experimental, refinement or atomic coordinate data resulting 
# from the CCDC's data processing and validation procedures.
#
#######################################################################

data_KOHVUZ
_symmetry_cell_setting           triclinic
_symmetry_space_group_name_H-M   'P -1'
_symmetry_Int_Tables_number      2
_space_group_name_Hall           '-P 1'
loop_
_symmetry_equiv_pos_site_id
_symmetry_equiv_pos_as_xyz
1 x,y,z
2 -x,-y,-z
_cell_length_a                   9.929(2)
_cell_length_b                   10.597(2)
_cell_length_c                   13.095(3)
_cell_angle_alpha                79.59(2)
_cell_angle_beta                 80.74(3)
_cell_angle_gamma                67.55(3)
_cell_volume                     1246.02
loop_
_atom_site_label
_atom_site_type_symbol
_atom_site_fract_x
_atom_site_fract_y
_atom_site_fract_z
Ag1 Ag 0.09649(3) 0.51419(3) 0.59701(2)
Ag2 Ag 0.92255(3) 0.34496(3) 0.13802(3)
C1 C 0.4585(3) 0.5464(3) 0.2710(3)
H1 H 0.4550 0.5106 0.3412
C2 C 0.3355(3) 0.6384(3) 0.2330(3)
C3 C 0.3341(3) 0.6946(3) 0.1226(3)
C4 C 0.2064(4) 0.7875(3) 0.0779(3)
H2 H 0.1180 0.8156 0.1198
C5 C 0.2112(4) 0.8367(4) -0.0267(3)
H3 H 0.1262 0.8979 -0.0548
C6 C 0.3419(4) 0.7959(4) -0.0904(3)
H4 H 0.3442 0.8295 -0.1611
C7 C 0.4679(4) 0.7058(4) -0.0492(3)
H5 H 0.5553 0.6796 -0.0923
C8 C 0.4665(3) 0.6531(3) 0.0566(3)
C9 C 0.6030(3) 0.5565(3) 0.0976(3)
C10 C 0.5950(3) 0.5015(3) 0.2070(3)
C11 C 1.1893(4) 0.2146(4) -0.0207(3)
H6 H 1.1324 0.2823 -0.0684
C12 C 1.2118(4) 0.0953(4) 0.1430(3)
H7 H 1.1705 0.0774 0.2104
C13 C 1.3568(4) 0.0177(4) 0.1153(3)
H8 H 1.4108 -0.0500 0.1644
C14 C 1.4223(3) 0.0393(3) 0.0161(3)
C15 C 1.3324(4) 0.1390(4) -0.0537(3)
H9 H 1.3690 0.1547 -0.1228
C16 C 0.2767(3) 0.2023(3) 0.6459(3)
H10 H 0.1857 0.1999 0.6749
C17 C 0.3942(3) 0.0815(3) 0.6474(3)
H11 H 0.3818 -0.0004 0.6770
C18 C 0.5327(3) 0.0798(3) 0.6048(2)
C19 C 0.5423(3) 0.2063(3) 0.5622(3)
H12 H 0.6320 0.2115 0.5327
C20 C 0.4190(4) 0.3235(3) 0.5639(3)
H13 H 0.4281 0.4071 0.5352
C21 C 0.7717(4) -0.2967(3) 0.6405(3)
H14 H 0.7602 -0.3801 0.6660
C22 C 0.6504(3) -0.1784(3) 0.6432(3)
H15 H 0.5597 -0.1828 0.6709
C23 C 0.6626(3) -0.0517(3) 0.6045(2)
C24 C 0.8019(3) -0.0542(3) 0.5659(3)
H16 H 0.8166 0.0277 0.5397
C25 C 0.9184(3) -0.1774(3) 0.5664(3)
H17 H 1.0106 -0.1762 0.5398
N1 N 0.7183(3) 0.4077(3) 0.2434(2)
N2 N 1.1290(3) 0.1948(3) 0.0766(3)
N3 N 0.2861(3) 0.3239(3) 0.6046(2)
N4 N 0.9059(3) -0.2986(3) 0.6031(2)
O1 O 0.2194(3) 0.6199(3) 0.4236(2)
O2 O 0.1311(3) 0.8407(2) 0.3171(2)
O3 O 0.0677(2) 0.6529(3) 0.2867(2)
O4 O 0.7141(3) 0.3561(3) 0.3391(2)
O5 O 0.7206(2) 0.5229(3) 0.0393(2)
O6 O 1.0718(4) 0.4967(4) 0.1346(3)
S1 S 0.17532(8) 0.69255(8) 0.32252(7)
H18 H 1.146(5) 0.483(5) 0.092(4)
H19 H 1.073(6) 0.547(5) 0.172(4)
Ag1_2 Ag -0.90351(3) 1.51419(3) 0.59701(2)
Ag1_3 Ag 1.09649(3) -0.48581(3) 0.59701(2)
Ag2_2 Ag -0.07745(3) 1.34496(3) 0.13802(3)
Ag2A Ag 2.07745(3) -0.34496(3) -0.13802(3)
C1_2 C -0.5415(3) 1.5464(3) 0.2710(3)
H1_2 H -0.5450 1.5106 0.3412
C2_2 C -0.6645(3) 1.6384(3) 0.2330(3)
C3_2 C -0.6659(3) 1.6946(3) 0.1226(3)
C4_2 C -0.7936(4) 1.7875(3) 0.0779(3)
H2_2 H -0.8820 1.8156 0.1198
C5_2 C -0.7888(4) 1.8367(4) -0.0267(3)
H3_2 H -0.8738 1.8979 -0.0548
C6_2 C -0.6581(4) 1.7959(4) -0.0904(3)
H4_2 H -0.6558 1.8295 -0.1611
C7_2 C -0.5321(4) 1.7058(4) -0.0492(3)
H5_2 H -0.4447 1.6796 -0.0923
C8_2 C -0.5335(3) 1.6531(3) 0.0566(3)
C9_2 C -0.3970(3) 1.5565(3) 0.0976(3)
C10_2 C -0.4050(3) 1.5015(3) 0.2070(3)
C11A C 1.8107(4) -0.2146(4) 0.0207(3)
H6A H 1.8676 -0.2823 0.0684
C12A C 1.7882(4) -0.0953(4) -0.1430(3)
H7A H 1.8295 -0.0774 -0.2104
C13A C 1.6432(4) -0.0177(4) -0.1153(3)
H8A H 1.5892 0.0500 -0.1644
C14A C 1.5777(3) -0.0393(3) -0.0161(3)
C15A C 1.6676(4) -0.1390(4) 0.0537(3)
H9A H 1.6310 -0.1547 0.1228
C16_2 C -0.7233(3) 1.2023(3) 0.6459(3)
H10_2 H -0.8143 1.1999 0.6749
C17_2 C -0.6058(3) 1.0815(3) 0.6474(3)
H11_2 H -0.6182 0.9996 0.6770
C18_2 C -0.4673(3) 1.0798(3) 0.6048(2)
C19_2 C -0.4577(3) 1.2063(3) 0.5622(3)
H12_2 H -0.3680 1.2115 0.5327
C20_2 C -0.5810(4) 1.3235(3) 0.5639(3)
H13_2 H -0.5719 1.4071 0.5352
C21_2 C -0.2283(4) 0.7033(3) 0.6405(3)
H14_2 H -0.2398 0.6199 0.6660
C22_2 C -0.3496(3) 0.8216(3) 0.6432(3)
H15_2 H -0.4403 0.8172 0.6709
C23_2 C -0.3374(3) 0.9483(3) 0.6045(2)
C24_2 C -0.1981(3) 0.9458(3) 0.5659(3)
H16_2 H -0.1834 1.0277 0.5397
C25_2 C -0.0816(3) 0.8226(3) 0.5664(3)
H17_2 H 0.0106 0.8238 0.5398
N1_2 N -0.2817(3) 1.4077(3) 0.2434(2)
N2A N 1.8710(3) -0.1948(3) -0.0766(3)
N2_2 N 0.1290(3) 1.1948(3) 0.0766(3)
N3_2 N -0.7139(3) 1.3239(3) 0.6046(2)
N4_2 N -0.0941(3) 0.7014(3) 0.6031(2)
N4_3 N -1.0941(3) 1.7014(3) 0.6031(2)
O1_2 O -0.7806(3) 1.6199(3) 0.4236(2)
O2_2 O -0.8689(3) 1.8407(2) 0.3171(2)
O3_2 O -0.9323(2) 1.6529(3) 0.2867(2)
O4_2 O -0.2859(3) 1.3561(3) 0.3391(2)
O5_2 O -0.2794(2) 1.5229(3) 0.0393(2)
O6_2 O 0.0718(4) 1.4967(4) 0.1346(3)
S1_2 S -0.82468(8) 1.69255(8) 0.32252(7)
H18_2 H 0.146(5) 1.483(5) 0.092(4)
H19_2 H 0.073(6) 1.547(5) 0.172(4)
O7 O 1.1480(4) -0.0634(4) 0.7024(4)
H20 H 1.063(5) -0.016(5) 0.693(5)
H21 H 1.161(7) -0.134(5) 0.674(6)
loop_
_geom_bond_atom_site_label_1
_geom_bond_atom_site_label_2
_geom_bond_site_symmetry_1
_geom_bond_site_symmetry_2
Ag1 N3 1_555 1_555
Ag2 N1 1_555 1_555
C1 H1 1_555 1_555
C2 C1 1_555 1_555
C3 C2 1_555 1_555
C4 C3 1_555 1_555
H2 C4 1_555 1_555
C5 C4 1_555 1_555
H3 C5 1_555 1_555
C6 C5 1_555 1_555
H4 C6 1_555 1_555
C7 C6 1_555 1_555
H5 C7 1_555 1_555
C8 C3 1_555 1_555
C9 C8 1_555 1_555
C10 C1 1_555 1_555
C11 H6 1_555 1_555
C12 H7 1_555 1_555
C13 C12 1_555 1_555
H8 C13 1_555 1_555
C14 C13 1_555 1_555
C15 C11 1_555 1_555
H9 C15 1_555 1_555
C16 H10 1_555 1_555
C17 C16 1_555 1_555
H11 C17 1_555 1_555
C18 C17 1_555 1_555
C19 C18 1_555 1_555
H12 C19 1_555 1_555
C20 C19 1_555 1_555
H13 C20 1_555 1_555
C21 H14 1_555 1_555
C22 C21 1_555 1_555
H15 C22 1_555 1_555
C23 C18 1_555 1_555
C24 C23 1_555 1_555
H16 C24 1_555 1_555
C25 C24 1_555 1_555
H17 C25 1_555 1_555
N1 C10 1_555 1_555
N2 Ag2 1_555 1_555
N3 C16 1_555 1_555
N4 C21 1_555 1_555
O1 Ag1 1_555 1_555
O2 S1 1_555 1_555
O3 S1 1_555 1_555
O4 N1 1_555 1_555
O5 Ag2 1_555 1_555
O6 Ag2 1_555 1_555
O7 H20 1_555 1_555
S1 C2 1_555 1_555
H18 O6 1_555 1_555
H19 O6 1_555 1_555
H21 O7 1_555 1_555
Ag1_2 N3_2 1_555 1_555
Ag1_3 N4 1_555 1_555
Ag2_2 N1_2 1_555 1_555
Ag2A N2A 1_555 1_555
C1_2 H1_2 1_555 1_555
C2_2 C1_2 1_555 1_555
C3_2 C2_2 1_555 1_555
C4_2 C3_2 1_555 1_555
H2_2 C4_2 1_555 1_555
C5_2 C4_2 1_555 1_555
H3_2 C5_2 1_555 1_555
C6_2 C5_2 1_555 1_555
H4_2 C6_2 1_555 1_555
C7_2 C6_2 1_555 1_555
H5_2 C7_2 1_555 1_555
C8_2 C3_2 1_555 1_555
C9_2 C8_2 1_555 1_555
C10_2 C1_2 1_555 1_555
C11A H6A 1_555 1_555
C12A H7A 1_555 1_555
C13A C12A 1_555 1_555
H8A C13A 1_555 1_555
C14A C14 1_555 1_555
C15A C11A 1_555 1_555
H9A C15A 1_555 1_555
C16_2 H10_2 1_555 1_555
C17_2 C16_2 1_555 1_555
H11_2 C17_2 1_555 1_555
C18_2 C17_2 1_555 1_555
C19_2 C18_2 1_555 1_555
H12_2 C19_2 1_555 1_555
C20_2 C19_2 1_555 1_555
H13_2 C20_2 1_555 1_555
C21_2 H14_2 1_555 1_555
C22_2 C21_2 1_555 1_555
H15_2 C22_2 1_555 1_555
C23_2 C18_2 1_555 1_555
C24_2 C23_2 1_555 1_555
H16_2 C24_2 1_555 1_555
C25_2 C24_2 1_555 1_555
H17_2 C25_2 1_555 1_555
N1_2 C10_2 1_555 1_555
N2A C11A 1_555 1_555
N2_2 Ag2_2 1_555 1_555
N3_2 C16_2 1_555 1_555
N4_2 Ag1 1_555 1_555
N4_3 Ag1_2 1_555 1_555
O1_2 Ag1_2 1_555 1_555
O2_2 S1_2 1_555 1_555
O3_2 S1_2 1_555 1_555
O4_2 N1_2 1_555 1_555
O5_2 Ag2_2 1_555 1_555
O6_2 Ag2_2 1_555 1_555
S1_2 C2_2 1_555 1_555
H18_2 O6_2 1_555 1_555
H19_2 O6_2 1_555 1_555
C7 C8 1_555 1_555
C9 C10 1_555 1_555
C9 O5 1_555 1_555
C11 N2 1_555 1_555
C12 N2 1_555 1_555
C14 C15 1_555 1_555
C20 N3 1_555 1_555
C22 C23 1_555 1_555
C25 N4 1_555 1_555
O1 S1 1_555 1_555
C7_2 C8_2 1_555 1_555
C9_2 C10_2 1_555 1_555
C9_2 O5_2 1_555 1_555
C12A N2A 1_555 1_555
C13A C14A 1_555 1_555
C14A C15A 1_555 1_555
C20_2 N3_2 1_555 1_555
C21_2 N4_2 1_555 1_555
C22_2 C23_2 1_555 1_555
C25_2 N4_2 1_555 1_555
O1_2 S1_2 1_555 1_555

#END
