
#######################################################################
#
#                 Cambridge Crystallographic Data Centre
#                                CCDC 
#
#######################################################################
#
# If this CIF has been generated from an entry in the Cambridge 
# Structural Database, then it will include bibliographic, chemical, 
# crystal, experimental, refinement or atomic coordinate data resulting 
# from the CCDC's data processing and validation procedures.
#
#######################################################################

data_KOHVEJ
_symmetry_cell_setting           triclinic
_symmetry_space_group_name_H-M   'P -1'
_symmetry_Int_Tables_number      2
_space_group_name_Hall           '-P 1'
loop_
_symmetry_equiv_pos_site_id
_symmetry_equiv_pos_as_xyz
1 x,y,z
2 -x,-y,-z
_cell_length_a                   8.241(2)
_cell_length_b                   11.441(2)
_cell_length_c                   13.314(3)
_cell_angle_alpha                76.90(3)
_cell_angle_beta                 82.36(3)
_cell_angle_gamma                71.57(3)
_cell_volume                     1157.38
loop_
_atom_site_label
_atom_site_type_symbol
_atom_site_fract_x
_atom_site_fract_y
_atom_site_fract_z
Ag1 Ag 0.76929(4) 1.07222(2) 0.45611(2)
C1 C 0.2495(4) 0.2659(3) 0.9164(3)
C2 C 0.4270(5) 0.2229(4) 0.8905(3)
H1 H 0.4778 0.1386 0.8873
C3 C 0.5260(5) 0.3029(4) 0.8698(3)
H2 H 0.6421 0.2722 0.8511
C4 C 0.4574(5) 0.4284(3) 0.8759(3)
C5 C 0.2829(5) 0.4723(3) 0.9039(3)
H3 H 0.2338 0.5560 0.9095
C6 C 0.1832(5) 0.3929(3) 0.9230(3)
H4 H 0.0670 0.4245 0.9411
C7 C 0.6094(5) 0.6934(4) 0.8244(3)
C8 C 0.7843(5) 0.6491(4) 0.8155(3)
H5 H 0.8383 0.5630 0.8249
C9 C 0.8806(5) 0.7319(4) 0.7926(3)
H6 H 0.9995 0.7012 0.7868
C10 C 0.8036(5) 0.8583(3) 0.7784(3)
C11 C 0.6259(5) 0.9041(4) 0.7864(4)
H7 H 0.5723 0.9903 0.7759
C12 C 0.5292(5) 0.8217(4) 0.8099(4)
H8 H 0.4102 0.8521 0.8160
C13 C 0.7073(9) 0.8148(5) 0.5369(4)
H9 H 0.6877 0.8439 0.5985
C14 C 0.7062(8) 0.6941(4) 0.5412(3)
H10 H 0.6846 0.6456 0.6048
C15 C 0.7351(4) 0.6447(3) 0.4568(3)
C16 C 0.7716(8) 0.7220(4) 0.3654(3)
H11 H 0.7977 0.6924 0.3038
C17 C 0.7689(8) 0.8430(4) 0.3667(4)
H12 H 0.7926 0.8936 0.3048
C18 C 0.7149(5) 0.3566(3) 0.3750(3)
H13 H 0.6984 0.3347 0.3148
C19 C 0.7133(5) 0.4779(3) 0.3707(3)
H14 H 0.6974 0.5354 0.3085
C20 C 0.7353(4) 0.5147(3) 0.4583(3)
C21 C 0.7589(6) 0.4232(3) 0.5481(3)
H15 H 0.7726 0.4432 0.6098
C22 C 0.7619(6) 0.3023(3) 0.5458(3)
H16 H 0.7810 0.2418 0.6063
C23 C -0.0344(6) 0.2344(5) 0.9524(5)
H17 H -0.0827 0.1662 0.9618
H18 H -0.0831 0.2981 0.8949
H19 H -0.0595 0.2694 1.0138
C24 C 0.2197(7) 0.0554(4) 0.9428(4)
H20 H 0.1287 0.0174 0.9538
H21 H 0.2904 0.0228 1.0005
H22 H 0.2877 0.0367 0.8808
N1 N 0.5700(4) 0.5031(3) 0.8513(2)
N2 N 0.4966(4) 0.6172(3) 0.8473(2)
N3 N 0.1484(4) 0.1888(3) 0.9326(3)
N4 N 0.7340(4) 0.8910(3) 0.4524(2)
N5 N 0.7386(4) 0.2690(3) 0.4605(2)
O1 O 0.9217(4) 0.9965(3) 0.6262(2)
O2 O 0.8426(5) 1.0720(3) 0.7846(3)
O3 O 1.0969(4) 0.8996(3) 0.7674(3)
S1 S 0.92565(12) 0.96604(8) 0.73743(7)
Ag1_2 Ag 0.76929(4) 0.07222(2) 0.45611(2)
Ag1A Ag 1.23071(4) 0.92778(2) 0.54389(2)
N5_2 N 0.7386(4) 1.2690(3) 0.4605(2)
O1A O 1.0783(4) 1.0035(3) 0.3738(2)
loop_
_geom_bond_atom_site_label_1
_geom_bond_atom_site_label_2
_geom_bond_site_symmetry_1
_geom_bond_site_symmetry_2
Ag1 N4 1_555 1_555
C1 C2 1_555 1_555
C2 H1 1_555 1_555
C3 C2 1_555 1_555
H2 C3 1_555 1_555
C4 C3 1_555 1_555
C5 C4 1_555 1_555
H3 C5 1_555 1_555
C6 C1 1_555 1_555
H4 C6 1_555 1_555
C7 C8 1_555 1_555
C8 H5 1_555 1_555
C9 C8 1_555 1_555
H6 C9 1_555 1_555
C10 C9 1_555 1_555
C11 C10 1_555 1_555
H7 C11 1_555 1_555
C12 C7 1_555 1_555
H8 C12 1_555 1_555
C13 H9 1_555 1_555
C14 C13 1_555 1_555
H10 C14 1_555 1_555
C15 C14 1_555 1_555
C16 C15 1_555 1_555
H11 C16 1_555 1_555
C17 C16 1_555 1_555
H12 C17 1_555 1_555
C18 H13 1_555 1_555
C19 C18 1_555 1_555
H14 C19 1_555 1_555
C20 C15 1_555 1_555
C21 C20 1_555 1_555
H15 C21 1_555 1_555
C22 C21 1_555 1_555
H16 C22 1_555 1_555
C23 H17 1_555 1_555
H18 C23 1_555 1_555
H19 C23 1_555 1_555
C24 H20 1_555 1_555
H21 C24 1_555 1_555
H22 C24 1_555 1_555
N1 C4 1_555 1_555
N2 C7 1_555 1_555
N3 C1 1_555 1_555
N4 C13 1_555 1_555
N5 C18 1_555 1_555
O1 Ag1 1_555 1_555
O2 S1 1_555 1_555
O3 S1 1_555 1_555
S1 C10 1_555 1_555
Ag1_2 N5 1_555 1_555
Ag1A O1 1_555 1_555
N5_2 Ag1 1_555 1_555
O1A Ag1 1_555 1_555
C5 C6 1_555 1_555
C11 C12 1_555 1_555
C17 N4 1_555 1_555
C19 C20 1_555 1_555
C22 N5 1_555 1_555
C23 N3 1_555 1_555
C24 N3 1_555 1_555
N1 N2 1_555 1_555
O1 S1 1_555 1_555
Ag1A O1A 1_555 1_555

#END
