
#######################################################################
#
#                 Cambridge Crystallographic Data Centre
#                                CCDC 
#
#######################################################################
#
# If this CIF has been generated from an entry in the Cambridge 
# Structural Database, then it will include bibliographic, chemical, 
# crystal, experimental, refinement or atomic coordinate data resulting 
# from the CCDC's data processing and validation procedures.
#
#######################################################################

data_KOJCES
_symmetry_cell_setting           monoclinic
_symmetry_space_group_name_H-M   'P 21'
_symmetry_Int_Tables_number      4
_space_group_name_Hall           'P 2yb'
loop_
_symmetry_equiv_pos_site_id
_symmetry_equiv_pos_as_xyz
1 x,y,z
2 -x,1/2+y,-z
_cell_length_a                   13.722(3)
_cell_length_b                   6.0487(13)
_cell_length_c                   16.910(4)
_cell_angle_alpha                90
_cell_angle_beta                 97.687(4)
_cell_angle_gamma                90
_cell_volume                     1390.92
loop_
_atom_site_label
_atom_site_type_symbol
_atom_site_fract_x
_atom_site_fract_y
_atom_site_fract_z
C1 C 1.2182(5) 0.2516(13) 0.2060(4)
H1 H 1.2643 0.1550 0.1853
H2 H 1.2382 0.4024 0.2005
H3 H 1.1540 0.2302 0.1767
C2 C 1.2154(5) 0.2004(11) 0.2930(4)
H4 H 1.2017 0.3401 0.3187
C3 C 1.3113(4) 0.1083(15) 0.3393(5)
H5 H 1.2940 0.0626 0.3913
C4 C 1.3879(5) 0.2798(14) 0.3574(4)
H6 H 1.3623 0.4034 0.3849
H7 H 1.4091 0.3339 0.3085
C5 C 1.4733(5) 0.1739(13) 0.4099(5)
H8 H 1.5246 0.2830 0.4237
H9 H 1.4513 0.1229 0.4590
C6 C 1.5136(5) -0.0152(13) 0.3689(4)
H10 H 1.5704 -0.0760 0.4021
H11 H 1.5341 0.0334 0.3190
C7 C 1.4339(5) -0.1903(13) 0.3529(4)
H12 H 1.4599 -0.3162 0.3269
H13 H 1.4153 -0.2404 0.4033
C8 C 1.3438(5) -0.1037(12) 0.3008(4)
H14 H 1.2915 -0.2128 0.2968
H15 H 1.3592 -0.0728 0.2476
C9 C 0.7682(5) 0.2741(15) 0.3096(4)
H16 H 0.7499 0.1210 0.3059
H17 H 0.7154 0.3589 0.3262
H18 H 0.8260 0.2912 0.3479
C10 C 0.7892(5) 0.3550(14) 0.2291(4)
H19 H 0.8224 0.4985 0.2368
C11 C 0.6977(5) 0.3853(11) 0.1676(4)
H20 H 0.7200 0.4093 0.1155
C12 C 0.6292(5) 0.1878(12) 0.1597(5)
H21 H 0.6654 0.0563 0.1484
H22 H 0.6030 0.1646 0.2096
C13 C 0.5459(6) 0.2263(16) 0.0934(5)
H23 H 0.5032 0.0980 0.0875
H24 H 0.5719 0.2492 0.0434
C14 C 0.4882(6) 0.4280(14) 0.1130(5)
H25 H 0.4342 0.4529 0.0707
H26 H 0.4608 0.4027 0.1622
C15 C 0.5529(5) 0.6265(17) 0.1218(5)
H27 H 0.5156 0.7533 0.1361
H28 H 0.5763 0.6583 0.0714
C16 C 0.6410(5) 0.5873(13) 0.1865(5)
H29 H 0.6839 0.7153 0.1900
H30 H 0.6178 0.5682 0.2377
Cu1 Cu 0.99545(6) 0.13686(18) 0.25269(7)
Cu2 Cu 0.99920(8) 0.31196(14) 0.48910(6)
Cu3 Cu 1.00030(6) 0.00811(11) 0.00622(6)
N1 N 1.1317(3) 0.0525(9) 0.3005(3)
H31 H 1.1304 0.0298 0.3529
H32 H 1.1453 -0.0787 0.2793
N2 N 0.8586(4) 0.1963(10) 0.1969(4)
H33 H 0.8653 0.2426 0.1473
H34 H 0.8277 0.0650 0.1915
N3 N 0.9903(5) 0.3557(13) 0.3420(4)
N4 N 0.9808(4) 0.5505(12) 0.3331(3)
N5 N 0.9701(4) 0.7321(10) 0.3305(3)
N6 N 1.0085(4) -0.0584(12) 0.1553(4)
N7 N 0.9683(5) -0.2237(12) 0.1583(4)
N8 N 0.9271(4) -0.3946(10) 0.1574(3)
N9 N 1.0960(4) 0.0561(11) 0.4959(4)
N10 N 1.1628(4) 0.0560(11) 0.5527(4)
N11 N 1.2234(4) 0.0473(12) 0.6019(4)
N12 N 0.9092(4) 0.0657(11) 0.4902(3)
N13 N 0.8286(4) 0.0844(10) 0.5139(3)
N14 N 0.7543(4) 0.0998(12) 0.5338(4)
N15 N 1.0945(4) 0.2609(11) 0.0140(4)
N16 N 1.1545(4) 0.2911(10) -0.0323(3)
N17 N 1.2067(5) 0.3120(13) -0.0715(4)
N18 N 0.9050(5) 0.2582(12) 0.0011(4)
N19 N 0.8240(4) 0.2530(13) -0.0412(4)
N20 N 0.7519(4) 0.2434(10) -0.0771(4)
Cu2A Cu 1.00080(8) -0.18804(14) 0.51090(6)
Cu2A_2 Cu 1.00080(8) 0.81196(14) 0.51090(6)
Cu3A Cu 0.99970(6) -0.49189(11) -0.00622(6)
Cu3A_2 Cu 0.99970(6) 0.50811(11) -0.00622(6)
N9A N 0.9040(4) 0.5561(11) 0.5041(4)
N12A N 1.0908(4) 0.5657(11) 0.5098(3)
N15A N 0.9055(4) -0.2391(11) -0.0140(4)
N18A N 1.0950(5) -0.2418(12) -0.0011(4)
loop_
_geom_bond_atom_site_label_1
_geom_bond_atom_site_label_2
_geom_bond_site_symmetry_1
_geom_bond_site_symmetry_2
C1 H1 1_555 1_555
H2 C1 1_555 1_555
H3 C1 1_555 1_555
C2 C1 1_555 1_555
H4 C2 1_555 1_555
C3 C2 1_555 1_555
H5 C3 1_555 1_555
C4 C3 1_555 1_555
H6 C4 1_555 1_555
H7 C4 1_555 1_555
C5 C4 1_555 1_555
H8 C5 1_555 1_555
H9 C5 1_555 1_555
C6 C5 1_555 1_555
H10 C6 1_555 1_555
H11 C6 1_555 1_555
C7 C6 1_555 1_555
H12 C7 1_555 1_555
H13 C7 1_555 1_555
C8 C3 1_555 1_555
H14 C8 1_555 1_555
H15 C8 1_555 1_555
C9 H16 1_555 1_555
H17 C9 1_555 1_555
H18 C9 1_555 1_555
C10 C9 1_555 1_555
H19 C10 1_555 1_555
C11 C10 1_555 1_555
H20 C11 1_555 1_555
C12 C11 1_555 1_555
H21 C12 1_555 1_555
H22 C12 1_555 1_555
C13 C12 1_555 1_555
H23 C13 1_555 1_555
H24 C13 1_555 1_555
C14 C13 1_555 1_555
H25 C14 1_555 1_555
H26 C14 1_555 1_555
C15 C14 1_555 1_555
H27 C15 1_555 1_555
H28 C15 1_555 1_555
C16 C11 1_555 1_555
H29 C16 1_555 1_555
H30 C16 1_555 1_555
Cu1 N1 1_555 1_555
Cu2 N3 1_555 1_555
Cu3 N6 1_555 1_555
N1 C2 1_555 1_555
H31 N1 1_555 1_555
H32 N1 1_555 1_555
N2 C10 1_555 1_555
H33 N2 1_555 1_555
H34 N2 1_555 1_555
N3 Cu1 1_555 1_555
N4 N3 1_555 1_555
N5 N4 1_555 1_555
N6 Cu1 1_555 1_555
N7 N6 1_555 1_555
N8 N7 1_555 1_555
N9 Cu2 1_555 1_555
N10 N9 1_555 1_555
N11 N10 1_555 1_555
N12 Cu2 1_555 1_555
N13 N12 1_555 1_555
N14 N13 1_555 1_555
N15 Cu3 1_555 1_555
N16 N15 1_555 1_555
N17 N16 1_555 1_555
N18 Cu3 1_555 1_555
N19 N18 1_555 1_555
N20 N19 1_555 1_555
Cu2A N9 1_555 1_555
Cu2A_2 N9A 1_555 1_555
Cu3A N15A 1_555 1_555
Cu3A_2 N15 1_555 1_555
N9A Cu2 1_555 1_555
N12A Cu2 1_555 1_555
N15A Cu3 1_555 1_555
N18A Cu3 1_555 1_555
C7 C8 1_555 1_555
C15 C16 1_555 1_555
Cu1 N2 1_555 1_555
N12 Cu2A 1_555 1_555
N18 Cu3A_2 1_555 1_555
Cu2A_2 N12A 1_555 1_555
Cu3A N18A 1_555 1_555

#END
