
#######################################################################
#
#                 Cambridge Crystallographic Data Centre
#                                CCDC 
#
#######################################################################
#
# If this CIF has been generated from an entry in the Cambridge 
# Structural Database, then it will include bibliographic, chemical, 
# crystal, experimental, refinement or atomic coordinate data resulting 
# from the CCDC's data processing and validation procedures.
#
#######################################################################

data_KOJCUI
_symmetry_cell_setting           orthorhombic
_symmetry_space_group_name_H-M   'I b a 2'
_symmetry_Int_Tables_number      45
_space_group_name_Hall           'I 2 -2c'
loop_
_symmetry_equiv_pos_site_id
_symmetry_equiv_pos_as_xyz
1 x,y,z
2 -x,-y,z
3 -x,y,1/2+z
4 x,-y,1/2+z
5 1/2+x,1/2+y,1/2+z
6 1/2-x,1/2-y,1/2+z
7 1/2-x,1/2+y,z
8 1/2+x,1/2-y,z
_cell_length_a                   18.3259(15)
_cell_length_b                   25.300(2)
_cell_length_c                   7.5240(7)
_cell_angle_alpha                90
_cell_angle_beta                 90
_cell_angle_gamma                90
_cell_volume                     3488.47
loop_
_atom_site_label
_atom_site_type_symbol
_atom_site_fract_x
_atom_site_fract_y
_atom_site_fract_z
Mn1 Mn 0.90073(3) 0.51713(2) 0.26448(13)
C1 C 0.7510(3) 0.6110(2) 0.5834(8)
C2 C 0.7102(3) 0.6095(2) 0.7385(9)
H1 H 0.7226 0.5851 0.8297
C3 C 0.6516(3) 0.6434(2) 0.7613(10)
C4 C 0.6307(3) 0.6813(2) 0.6325(8)
C5 C 0.6761(3) 0.6815(2) 0.4800(9)
C6 C 0.7337(3) 0.6477(2) 0.4552(9)
H2 H 0.7618 0.6496 0.3493
C7 C 0.8109(3) 0.5707(2) 0.5538(8)
C8 C 0.5531(3) 0.87209(18) 0.4792(7)
C9 C 0.6204(3) 0.8532(2) 0.5368(8)
H3 H 0.6614 0.8762 0.5394
C10 C 0.6282(3) 0.8011(2) 0.5903(9)
H4 H 0.6746 0.7884 0.6272
C11 C 0.5679(3) 0.76694(19) 0.5902(8)
C12 C 0.5002(4) 0.78583(16) 0.5315(9)
H5 H 0.4590 0.7630 0.5307
C13 C 0.4932(3) 0.83731(18) 0.4748(7)
H6 H 0.4474 0.8495 0.4322
C14 C 0.5448(3) 0.92669(18) 0.4215(7)
H7 H 0.536(3) 0.711(3) 0.733(9)
N1 N 0.6099(4) 0.6377(2) 0.9267(9)
N2 N 0.6559(4) 0.7134(2) 0.3232(8)
N3 N 0.5734(3) 0.71540(18) 0.6558(7)
O1 O 0.6439(5) 0.6205(3) 1.0557(8)
O2 O 0.5469(4) 0.6510(2) 0.9302(9)
O3 O 0.5925(3) 0.7141(2) 0.2788(9)
O4 O 0.7051(4) 0.7363(3) 0.2461(11)
O5 O 0.8383(2) 0.57100(16) 0.4010(7)
O6 O 0.8269(3) 0.5406(2) 0.6785(6)
O7 O 0.5856(2) 0.96240(14) 0.4904(5)
O8 O 0.5010(2) 0.93867(12) 0.2988(5)
Mn1C Mn 0.90073(3) 0.48287(2) 0.76448(13)
Mn1E Mn 0.59927(3) 0.98287(2) 0.76448(13)
Mn1F Mn 0.59927(3) 1.01713(2) 0.26448(13)
Mn1G Mn 0.40073(3) 0.98287(2) 0.26448(13)
O6C O 0.8269(3) 0.4594(2) 0.1785(6)
O7E O 0.9144(2) 0.53760(14) -0.0096(5)
O7F O 0.9144(2) 0.46240(14) 0.4904(5)
O8F O 0.9990(2) 0.43867(12) 0.2988(5)
O8G O 1.0010(2) 0.56133(12) 0.2988(5)
loop_
_geom_bond_atom_site_label_1
_geom_bond_atom_site_label_2
_geom_bond_site_symmetry_1
_geom_bond_site_symmetry_2
Mn1 O5 1_555 1_555
C1 C2 1_555 1_555
C2 H1 1_555 1_555
C3 C2 1_555 1_555
C4 C3 1_555 1_555
C5 C4 1_555 1_555
C6 C1 1_555 1_555
H2 C6 1_555 1_555
C7 C1 1_555 1_555
C8 C9 1_555 1_555
C9 H3 1_555 1_555
C10 C9 1_555 1_555
H4 C10 1_555 1_555
C11 C10 1_555 1_555
C12 C11 1_555 1_555
H5 C12 1_555 1_555
C13 C8 1_555 1_555
H6 C13 1_555 1_555
C14 C8 1_555 1_555
H7 N3 1_555 1_555
N1 C3 1_555 1_555
N2 C5 1_555 1_555
N3 C4 1_555 1_555
O1 N1 1_555 1_555
O2 N1 1_555 1_555
O3 N2 1_555 1_555
O4 N2 1_555 1_555
O5 C7 1_555 1_555
O6 C7 1_555 1_555
O7 C14 1_555 1_555
O8 C14 1_555 1_555
Mn1C O6 1_555 1_555
Mn1E O7 1_555 1_555
Mn1F O7 1_555 1_555
Mn1G O8 1_555 1_555
O6C Mn1 1_555 1_555
O7E Mn1 1_555 1_555
O7F Mn1 1_555 1_555
O8F Mn1 1_555 1_555
O8G Mn1 1_555 1_555
C5 C6 1_555 1_555
C11 N3 1_555 1_555
C12 C13 1_555 1_555
O8 Mn1F 1_555 1_555
Mn1C O7F 1_555 1_555

#END
