
#######################################################################
#
#                 Cambridge Crystallographic Data Centre
#                                CCDC 
#
#######################################################################
#
# If this CIF has been generated from an entry in the Cambridge 
# Structural Database, then it will include bibliographic, chemical, 
# crystal, experimental, refinement or atomic coordinate data resulting 
# from the CCDC's data processing and validation procedures.
#
#######################################################################

data_KOJMIH
_symmetry_cell_setting           triclinic
_symmetry_space_group_name_H-M   'P -1'
_symmetry_Int_Tables_number      2
_space_group_name_Hall           '-P 1'
loop_
_symmetry_equiv_pos_site_id
_symmetry_equiv_pos_as_xyz
1 x,y,z
2 -x,-y,-z
_cell_length_a                   9.2907(4)
_cell_length_b                   10.2235(4)
_cell_length_c                   16.6685(6)
_cell_angle_alpha                91.619(3)
_cell_angle_beta                 91.911(3)
_cell_angle_gamma                113.207(4)
_cell_volume                     1452.84
loop_
_atom_site_label
_atom_site_type_symbol
_atom_site_fract_x
_atom_site_fract_y
_atom_site_fract_z
Eu1 Eu 0.722837(17) 0.477739(16) 0.273156(9)
Eu2 Eu 0.245223(18) 0.526595(17) 0.226364(9)
O1 O 0.7073(3) 0.6958(3) 0.34160(15)
O2 O 0.9064(3) 0.7346(3) 0.26444(15)
O3 O 0.0453(3) 0.2691(3) 0.23552(16)
O4 O -0.1148(3) 0.5454(3) 0.39999(14)
O5 O 0.2520(3) 0.3083(3) 0.16443(16)
O6 O 0.5537(3) 0.5557(2) 0.19150(13)
O7 O 1.0559(3) 0.4574(3) 0.11426(15)
C1 C 0.5296(4) 0.6102(4) 0.1281(2)
O8 O 0.4403(3) 0.7312(3) 0.29742(16)
H1 H 0.5278 0.7350 0.3181
H2 H 0.4553 0.8196 0.3020
O9 O 0.7660(3) 0.2642(3) 0.29474(16)
H3 H 0.6914 0.1870 0.3071
H4 H 0.8338 0.2359 0.2759
C2 C 0.1186(4) 0.2284(4) 0.1861(2)
O10 O 0.5343(3) 0.3900(3) 0.37004(16)
O11 O 0.0482(3) 0.5299(3) 0.31131(14)
C3 C 0.0207(4) 0.5676(4) 0.3796(2)
O12 O 0.5192(3) 0.2743(3) 0.20347(18)
H5 H 0.4372 0.2864 0.1868
H6 H 0.5169 0.1908 0.1939
O13 O 0.4037(3) 0.6220(3) 0.11290(14)
C4 C 0.8390(4) 0.7741(4) 0.3178(2)
O14 O 0.1980(3) 0.7412(3) 0.20205(16)
H7 H 0.2792 0.8147 0.2165
H8 H 0.1213 0.7394 0.2291
C5 C 0.4042(4) 0.3904(4) 0.3829(2)
O15 O 0.8412(3) 0.4785(3) 0.15403(15)
C6 C 0.0444(4) 0.0781(4) 0.1471(2)
H9 H 0.0577 0.0825 0.0896
H10 H 0.0969 0.0205 0.1686
C7 C 0.3895(5) 0.2236(4) 0.4906(2)
N1 N 1.2116(5) 1.0395(4) 0.3308(3)
C8 C 0.6388(5) 0.7701(5) 0.0186(2)
O16 O 0.3310(3) 0.4448(3) 0.34134(15)
C9 C 0.9179(5) 0.9217(4) 0.3586(3)
H11 H 0.8649 0.9809 0.3399
H12 H 0.9064 0.9140 0.4161
N2 N 0.4388(5) 0.1472(4) 0.5149(2)
C10 C 1.0834(5) 0.9908(4) 0.3432(3)
N3 N 0.0922(5) 0.8134(5) 0.5362(3)
C11 C 0.1227(5) 0.7390(5) 0.4950(3)
C12 C 0.3252(4) 0.3218(4) 0.4583(2)
H13 H 0.3380 0.3959 0.4989
H14 H 0.2138 0.2704 0.4458
C13 C 0.1568(4) 0.6433(4) 0.4400(2)
H15 H 0.1786 0.5731 0.4704
H16 H 0.2497 0.6972 0.4115
C14 C -0.1213(5) 0.0126(4) 0.1621(3)
N4 N 0.6222(5) 0.8551(5) -0.0181(2)
N5 N -0.2509(5) -0.0357(5) 0.1743(3)
C15 C 0.6579(4) 0.6637(4) 0.0694(2)
H17 H 0.7586 0.7051 0.0988
H18 H 0.6568 0.5842 0.0359
C16 C 0.9138(4) 0.4292(4) 0.1081(2)
C17 C 0.8974(5) 0.2542(4) -0.0023(2)
N6 N 0.9610(5) 0.1951(4) -0.0335(2)
C18 C 0.8157(4) 0.3305(4) 0.0389(2)
H19 H 0.7201 0.2618 0.0594
H20 H 0.7863 0.3861 0.0004
Eu1_2 Eu -0.277163(17) 0.477739(16) 0.273156(9)
Eu2_2 Eu 1.245223(18) 0.526595(17) 0.226364(9)
O4_2 O 0.8852(3) 0.5454(3) 0.39999(14)
O7_2 O 0.0559(3) 0.4574(3) 0.11426(15)
O11_2 O 1.0482(3) 0.5299(3) 0.31131(14)
O17 O 0.5254(3) 0.0209(3) 0.34710(17)
H21 H 0.4453 0.0231 0.3420
H22 H 0.5356 -0.0009 0.3986
O18 O 0.4354(3) -0.0159(3) 0.14848(18)
H23 H 0.5098 -0.0433 0.1448
H24 H 0.4141 -0.0165 0.0987
loop_
_geom_bond_atom_site_label_1
_geom_bond_atom_site_label_2
_geom_bond_site_symmetry_1
_geom_bond_site_symmetry_2
Eu1 O1 1_555 1_555
Eu2 O3 1_555 1_555
O1 C4 1_555 1_555
O2 Eu1 1_555 1_555
O3 C2 1_555 1_555
O4 C3 1_555 1_555
O5 Eu2 1_555 1_555
O6 Eu1 1_555 1_555
O7 C16 1_555 1_555
C1 O6 1_555 1_555
O8 Eu2 1_555 1_555
H1 O8 1_555 1_555
H2 O8 1_555 1_555
O9 Eu1 1_555 1_555
H3 O9 1_555 1_555
H4 O9 1_555 1_555
C2 O5 1_555 1_555
O10 Eu1 1_555 1_555
O11 Eu2 1_555 1_555
C3 O11 1_555 1_555
O12 Eu1 1_555 1_555
H5 O12 1_555 1_555
H6 O12 1_555 1_555
O13 Eu2 1_555 1_555
C4 O2 1_555 1_555
O14 Eu2 1_555 1_555
H7 O14 1_555 1_555
H8 O14 1_555 1_555
C5 O10 1_555 1_555
O15 Eu1 1_555 1_555
C6 C2 1_555 1_555
H9 C6 1_555 1_555
H10 C6 1_555 1_555
C7 N2 1_555 1_555
N1 C10 1_555 1_555
C8 N4 1_555 1_555
O16 Eu2 1_555 1_555
C9 C4 1_555 1_555
H11 C9 1_555 1_555
H12 C9 1_555 1_555
C10 C9 1_555 1_555
N3 C11 1_555 1_555
C11 C13 1_555 1_555
C12 C5 1_555 1_555
H13 C12 1_555 1_555
H14 C12 1_555 1_555
C13 C3 1_555 1_555
H15 C13 1_555 1_555
H16 C13 1_555 1_555
C14 C6 1_555 1_555
N5 C14 1_555 1_555
C15 C1 1_555 1_555
H17 C15 1_555 1_555
H18 C15 1_555 1_555
C16 O15 1_555 1_555
C17 N6 1_555 1_555
C18 C16 1_555 1_555
H19 C18 1_555 1_555
H20 C18 1_555 1_555
O17 H21 1_555 1_555
H22 O17 1_555 1_555
O18 H23 1_555 1_555
H24 O18 1_555 1_555
Eu1_2 O4 1_555 1_555
Eu2_2 O7 1_555 1_555
O4_2 Eu1 1_555 1_555
O7_2 Eu2 1_555 1_555
O11_2 Eu1 1_555 1_555
Eu2 O6 1_555 1_555
C1 O13 1_555 1_555
O11 Eu1_2 1_555 1_555
C5 O16 1_555 1_555
C7 C12 1_555 1_555
C8 C15 1_555 1_555
C17 C18 1_555 1_555
Eu2_2 O11_2 1_555 1_555

#END
