
#######################################################################
#
#                 Cambridge Crystallographic Data Centre
#                                CCDC 
#
#######################################################################
#
# If this CIF has been generated from an entry in the Cambridge 
# Structural Database, then it will include bibliographic, chemical, 
# crystal, experimental, refinement or atomic coordinate data resulting 
# from the CCDC's data processing and validation procedures.
#
#######################################################################

data_KOJQAD
_symmetry_cell_setting           monoclinic
_symmetry_space_group_name_H-M   'C 2/c'
_symmetry_Int_Tables_number      15
_space_group_name_Hall           '-C 2yn'
loop_
_symmetry_equiv_pos_site_id
_symmetry_equiv_pos_as_xyz
1 x,y,z
2 -x,y,1/2-z
3 1/2+x,1/2+y,z
4 1/2-x,1/2+y,1/2-z
5 -x,-y,-z
6 x,-y,1/2+z
7 1/2-x,1/2-y,-z
8 1/2+x,1/2-y,1/2+z
_cell_length_a                   20.3823(13)
_cell_length_b                   10.5171(4)
_cell_length_c                   15.1002(9)
_cell_angle_alpha                90
_cell_angle_beta                 120.961(8)
_cell_angle_gamma                90
_cell_volume                     2775.72
loop_
_atom_site_label
_atom_site_type_symbol
_atom_site_fract_x
_atom_site_fract_y
_atom_site_fract_z
Cu1 Cu 0.5000 0.11616(3) 0.7500
Cu2 Cu 0.5000 -0.37703(3) 0.7500
N1 N 0.39172(10) 0.13608(17) 0.63911(13)
N2 N 0.5000 -0.0876(2) 0.7500
N3 N 0.35760(11) -0.5365(2) 0.60946(16)
N4 N 0.46768(10) 0.15281(18) 0.85433(13)
C1 C 0.32997(11) 0.1490(2) 0.57259(16)
C2 C 0.41140(11) -0.47678(19) 0.65476(17)
C3 C 0.5000 -0.1955(3) 0.7500
C4 C 0.42422(18) 0.0715(3) 0.8687(2)
H1 H 0.4098 -0.0040 0.8313
C5 C 0.3996(2) 0.0940(4) 0.9366(3)
H2 H 0.3701 0.0340 0.9459
C6 C 0.41894(19) 0.2052(5) 0.9900(2)
H3 H 0.4020 0.2235 1.0352
C7 C 0.4631(2) 0.2882(4) 0.9761(3)
H4 H 0.4774 0.3646 1.0123
C8 C 0.48704(18) 0.2599(3) 0.9078(3)
H5 H 0.5178 0.3179 0.8992
N5 N 0.25345(12) 0.1716(2) 0.32580(16)
C9 C 0.3086(2) 0.2479(4) 0.3371(3)
H6 H 0.3334 0.2976 0.3964
C10 C 0.3314(3) 0.2581(5) 0.2670(4)
H7 H 0.3710 0.3130 0.2792
C11 C 0.2966(3) 0.1889(5) 0.1806(3)
H8 H 0.3109 0.1955 0.1314
C12 C 0.2415(3) 0.1111(5) 0.1669(3)
H9 H 0.2166 0.0610 0.1078
C13 C 0.2205(2) 0.1039(4) 0.2412(2)
H10 H 0.1813 0.0485 0.2301
Cu3 Cu 0.23232(2) 0.14253(3) 0.44658(2)
N1A N 0.60828(10) 0.13608(17) 0.86089(13)
N3A N 0.64240(11) -0.5365(2) 0.89054(16)
N4A N 0.53232(10) 0.15281(18) 0.64567(13)
C1A C 0.67003(11) 0.1490(2) 0.92741(16)
C2A C 0.58860(11) -0.47678(19) 0.84524(17)
C4A C 0.57578(18) 0.0715(3) 0.6313(2)
H1A H 0.5902 -0.0040 0.6687
C5A C 0.6004(2) 0.0940(4) 0.5634(3)
H2A H 0.6299 0.0340 0.5541
C6A C 0.58106(19) 0.2052(5) 0.5100(2)
H3A H 0.5980 0.2235 0.4648
C7A C 0.5369(2) 0.2882(4) 0.5239(3)
H4A H 0.5226 0.3646 0.4877
C8A C 0.51296(18) 0.2599(3) 0.5922(3)
H5A H 0.4822 0.3179 0.6008
N5A N 0.74655(12) 0.1716(2) 1.17420(16)
C9A C 0.6914(2) 0.2479(4) 1.1629(3)
H6A H 0.6666 0.2976 1.1036
C10A C 0.6686(3) 0.2581(5) 1.2330(4)
H7A H 0.6290 0.3130 1.2208
C11A C 0.7034(3) 0.1889(5) 1.3194(3)
H8A H 0.6891 0.1955 1.3686
C12A C 0.7585(3) 0.1111(5) 1.3331(3)
H9A H 0.7834 0.0610 1.3922
C13A C 0.7795(2) 0.1039(4) 1.2588(2)
H10A H 0.8187 0.0485 1.2699
Cu3A Cu 0.76768(2) 0.14253(3) 1.05342(2)
N3F N 0.14240(11) 0.0365(2) 0.39054(16)
N3G N 0.85760(11) 0.0365(2) 1.10946(16)
C1F C 0.17003(11) 0.3510(2) 0.42741(16)
C1G C 0.82997(11) 0.3510(2) 1.07259(16)
Cu3F Cu 0.26768(2) -0.64253(3) 0.55342(2)
Cu3F_2 Cu 0.26768(2) 0.35747(3) 0.55342(2)
Cu3G Cu 0.73232(2) -0.64253(3) 0.94658(2)
Cu3G_2 Cu 0.73232(2) 0.35747(3) 0.94658(2)
loop_
_geom_bond_atom_site_label_1
_geom_bond_atom_site_label_2
_geom_bond_site_symmetry_1
_geom_bond_site_symmetry_2
Cu1 N1 1_555 1_555
Cu2 C2 1_555 1_555
N1 C1 1_555 1_555
N2 Cu1 1_555 1_555
N3 C2 1_555 1_555
N4 Cu1 1_555 1_555
C1 Cu3 1_555 1_555
C3 Cu2 1_555 1_555
C4 N4 1_555 1_555
H1 C4 1_555 1_555
C5 C4 1_555 1_555
H2 C5 1_555 1_555
C6 C5 1_555 1_555
H3 C6 1_555 1_555
C7 C6 1_555 1_555
H4 C7 1_555 1_555
C8 N4 1_555 1_555
H5 C8 1_555 1_555
N5 C9 1_555 1_555
C9 H6 1_555 1_555
C10 C9 1_555 1_555
H7 C10 1_555 1_555
C11 C10 1_555 1_555
H8 C11 1_555 1_555
C12 C11 1_555 1_555
H9 C12 1_555 1_555
C13 N5 1_555 1_555
H10 C13 1_555 1_555
Cu3 N5 1_555 1_555
N1A Cu1 1_555 1_555
N3A C2A 1_555 1_555
N4A Cu1 1_555 1_555
C1A N1A 1_555 1_555
C2A Cu2 1_555 1_555
C4A N4A 1_555 1_555
H1A C4A 1_555 1_555
C5A C4A 1_555 1_555
H2A C5A 1_555 1_555
C6A C5A 1_555 1_555
H3A C6A 1_555 1_555
C7A C6A 1_555 1_555
H4A C7A 1_555 1_555
C8A N4A 1_555 1_555
H5A C8A 1_555 1_555
N5A C9A 1_555 1_555
C9A H6A 1_555 1_555
C10A C9A 1_555 1_555
H7A C10A 1_555 1_555
C11A C10A 1_555 1_555
H8A C11A 1_555 1_555
C12A C11A 1_555 1_555
H9A C12A 1_555 1_555
C13A N5A 1_555 1_555
H10A C13A 1_555 1_555
Cu3A C1A 1_555 1_555
N3F Cu3 1_555 1_555
N3G Cu3A 1_555 1_555
C1F Cu3 1_555 1_555
C1G Cu3A 1_555 1_555
Cu3F N3 1_555 1_555
Cu3F_2 C1 1_555 1_555
Cu3G N3A 1_555 1_555
Cu3G_2 C1A 1_555 1_555
N2 C3 1_555 1_555
C7 C8 1_555 1_555
C12 C13 1_555 1_555
Cu3 Cu3F_2 1_555 1_555
C7A C8A 1_555 1_555
N5A Cu3A 1_555 1_555
C12A C13A 1_555 1_555
Cu3A Cu3G_2 1_555 1_555
C1F Cu3F_2 1_555 1_555
C1G Cu3G_2 1_555 1_555

#END
