
#######################################################################
#
#                 Cambridge Crystallographic Data Centre
#                                CCDC 
#
#######################################################################
#
# If this CIF has been generated from an entry in the Cambridge 
# Structural Database, then it will include bibliographic, chemical, 
# crystal, experimental, refinement or atomic coordinate data resulting 
# from the CCDC's data processing and validation procedures.
#
#######################################################################

data_KOKDAQ
_symmetry_cell_setting           monoclinic
_symmetry_space_group_name_H-M   'P 21/c'
_symmetry_Int_Tables_number      14
_space_group_name_Hall           '-P 2ybc'
loop_
_symmetry_equiv_pos_site_id
_symmetry_equiv_pos_as_xyz
1 x,y,z
2 -x,1/2+y,1/2-z
3 -x,-y,-z
4 x,1/2-y,1/2+z
_cell_length_a                   11.4070(10)
_cell_length_b                   22.7362(19)
_cell_length_c                   30.981(3)
_cell_angle_alpha                90
_cell_angle_beta                 96.769(2)
_cell_angle_gamma                90
_cell_volume                     7978.97
loop_
_atom_site_label
_atom_site_type_symbol
_atom_site_fract_x
_atom_site_fract_y
_atom_site_fract_z
Cu1 Cu 0.87320(7) 0.70760(3) 0.56031(2)
Cu2 Cu 0.72701(6) 0.71299(3) 0.677604(19)
Cu3 Cu 0.96729(6) 0.67697(3) 0.65653(2)
Cu4 Cu 0.78899(7) 0.81839(3) 0.613600(18)
Cu5 Cu 0.65277(6) 0.66924(2) 0.58770(2)
Cu6 Cu 0.99486(9) 0.88942(3) 0.38769(2)
Cu7 Cu 0.65016(7) 0.59189(3) 0.33703(2)
N1 N 1.0180(5) 0.8632(2) 0.44875(14)
N2 N 1.0142(4) 0.75041(18) 0.59018(13)
N3 N 1.0468(4) 0.73964(19) 0.63350(13)
N4 N 1.2666(5) 0.7995(3) 0.78207(17)
N5 N 0.7034(4) 0.6524(2) 0.38513(13)
N6 N 0.7617(4) 0.76595(17) 0.53098(12)
N7 N 0.7476(4) 0.81696(17) 0.55358(13)
N8 N 0.6407(8) 1.0365(3) 0.5616(3)
N9 N 1.2719(7) 0.5768(4) 0.5241(4)
N10 N 0.8569(4) 0.62306(17) 0.56350(13)
N11 N 0.7509(4) 0.60651(17) 0.57621(12)
N12 N 0.4747(4) 0.45485(18) 0.63529(14)
N13 N 0.3916(8) 0.6036(4) 0.7566(3)
N14 N 0.7722(4) 0.63238(16) 0.68878(13)
N15 N 0.8825(4) 0.61620(17) 0.67949(13)
N16 N 1.2063(5) 0.4607(2) 0.66933(14)
N17 N 0.9369(5) 0.67395(19) 0.84487(14)
N18 N 0.8268(4) 0.78070(17) 0.70086(12)
N19 N 0.8356(4) 0.82682(16) 0.67298(12)
N20 N 0.9574(5) 1.03694(19) 0.63865(14)
N21 N 0.5882(4) 0.87415(19) 0.77853(14)
N22 N 0.5839(4) 0.74749(17) 0.64564(12)
N23 N 0.5573(4) 0.73097(17) 0.60323(12)
N24 N 0.3538(6) 0.7588(3) 0.44800(17)
C1 C 1.0292(6) 0.7850(2) 0.49967(17)
H1 H 1.0245 0.7446 0.5042
C2 C 1.0134(7) 0.8069(3) 0.45790(19)
H2 H 0.9987 0.7804 0.4350
C3 C 1.0393(8) 0.8993(3) 0.4829(2)
H3 H 1.0417 0.9395 0.4775
C4 C 1.0577(7) 0.8809(2) 0.52535(18)
H4 H 1.0741 0.9081 0.5477
C5 C 1.0518(5) 0.8219(2) 0.53450(17)
C6 C 1.0673(5) 0.7998(2) 0.57943(16)
C7 C 1.1327(5) 0.8226(2) 0.61592(17)
H5 H 1.1771 0.8570 0.6177
C8 C 1.1189(5) 0.7839(2) 0.64921(16)
C9 C 1.1698(5) 0.7880(3) 0.69480(17)
C10 C 1.2145(6) 0.8414(3) 0.71238(19)
H6 H 1.2126 0.8748 0.6950
C11 C 1.2606(7) 0.8444(4) 0.7549(2)
H7 H 1.2898 0.8805 0.7655
C12 C 1.2275(6) 0.7487(4) 0.7659(2)
H8 H 1.2338 0.7161 0.7842
C13 C 1.1775(6) 0.7405(3) 0.72309(17)
H9 H 1.1495 0.7037 0.7136
C14 C 0.7136(6) 0.6741(2) 0.46117(17)
H10 H 0.7129 0.6596 0.4892
C15 C 0.7015(6) 0.6370(3) 0.42676(18)
H11 H 0.6908 0.5973 0.4325
C16 C 0.7238(6) 0.7090(3) 0.37894(18)
H12 H 0.7315 0.7216 0.3509
C17 C 0.7340(6) 0.7499(2) 0.41152(18)
H13 H 0.7458 0.7892 0.4049
C18 C 0.7271(5) 0.7335(2) 0.45432(16)
C19 C 0.7289(5) 0.7782(2) 0.48857(15)
C20 C 0.6951(6) 0.8366(2) 0.48354(17)
H14 H 0.6694 0.8561 0.4578
C21 C 0.7081(5) 0.8597(2) 0.52531(16)
C22 C 0.6833(6) 0.9200(2) 0.5380(2)
C23 C 0.6914(9) 0.9654(3) 0.5093(2)
H15 H 0.7122 0.9583 0.4816
C24 C 0.6677(11) 1.0222(3) 0.5225(3)
H16 H 0.6711 1.0524 0.5025
C25 C 0.6349(8) 0.9937(3) 0.5883(3)
H17 H 0.6169 1.0025 0.6161
C26 C 0.6539(7) 0.9347(3) 0.5784(2)
H18 H 0.6466 0.9056 0.5991
C27 C 1.0986(12) 0.6237(4) 0.5427(7)
H19 H 1.0621 0.6595 0.5468
C28 C 1.2120(14) 0.6231(5) 0.5300(10)
H20 H 1.2468 0.6592 0.5254
C29 C 1.2222(7) 0.5309(4) 0.5319(2)
H21 H 1.2627 0.4959 0.5292
C30 C 1.1092(7) 0.5274(3) 0.5446(2)
H22 H 1.0788 0.4906 0.5504
C31 C 1.0431(6) 0.5750(3) 0.5488(2)
C32 C 0.9230(5) 0.5739(2) 0.56154(17)
C33 C 0.8579(5) 0.5258(2) 0.57284(16)
H23 H 0.8816 0.4866 0.5737
C34 C 0.7527(5) 0.5473(2) 0.58245(14)
C35 C 0.6546(5) 0.5161(2) 0.59873(16)
C36 C 0.6677(5) 0.4577(2) 0.61212(19)
H24 H 0.7372 0.4377 0.6088
C37 C 0.5792(6) 0.4294(2) 0.6302(2)
H25 H 0.5918 0.3907 0.6394
C38 C 0.4594(6) 0.5100(2) 0.62020(19)
H26 H 0.3871 0.5282 0.6219
C39 C 0.5466(5) 0.5409(2) 0.60224(18)
H27 H 0.5315 0.5791 0.5924
C40 C 0.5186(6) 0.6244(3) 0.7019(2)
H28 H 0.5283 0.6437 0.6761
C41 C 0.4130(7) 0.6294(3) 0.7203(3)
H29 H 0.3537 0.6526 0.7059
C42 C 0.4751(10) 0.5704(4) 0.7758(3)
H30 H 0.4609 0.5510 0.8011
C43 C 0.5846(7) 0.5620(3) 0.7607(2)
H31 H 0.6412 0.5379 0.7759
C44 C 0.6077(5) 0.5903(2) 0.72259(18)
C45 C 0.7233(5) 0.5856(2) 0.70659(16)
C46 C 0.8008(5) 0.5393(2) 0.70863(17)
H32 H 0.7893 0.5021 0.7198
C47 C 0.9003(5) 0.5588(2) 0.69066(16)
C48 C 1.0066(5) 0.5269(2) 0.68341(16)
C49 C 0.9980(5) 0.4681(2) 0.66877(18)
H33 H 0.9248 0.4499 0.6637
C50 C 1.0978(6) 0.4384(2) 0.66218(18)
H34 H 1.0897 0.4000 0.6520
C51 C 1.2146(6) 0.5157(3) 0.6840(2)
H35 H 1.2894 0.5321 0.6903
C52 C 1.1180(6) 0.5494(2) 0.69052(19)
H36 H 1.1289 0.5880 0.6999
C53 C 0.8179(6) 0.7071(2) 0.78045(16)
H37 H 0.7524 0.7008 0.7601
C54 C 0.8458(6) 0.6683(2) 0.81425(17)
H38 H 0.7972 0.6356 0.8157
C55 C 1.0003(6) 0.7226(3) 0.84240(17)
H39 H 1.0627 0.7288 0.8641
C56 C 0.9808(5) 0.7646(2) 0.81008(17)
H40 H 1.0283 0.7979 0.8105
C57 C 0.8899(5) 0.7563(2) 0.77730(15)
C58 C 0.8747(5) 0.7972(2) 0.74055(15)
C59 C 0.9146(5) 0.8547(2) 0.73893(16)
H41 H 0.9514 0.8769 0.7618
C60 C 0.8880(5) 0.8719(2) 0.69603(15)
C61 C 0.9120(6) 0.9287(2) 0.67610(16)
C62 C 0.9151(9) 0.9796(3) 0.6986(2)
H42 H 0.9004 0.9791 0.7275
C63 C 0.9396(10) 1.0322(3) 0.6798(2)
H43 H 0.9438 1.0659 0.6969
C64 C 0.9493(7) 0.9885(2) 0.61605(19)
H44 H 0.9565 0.9908 0.5865
C65 C 0.9306(6) 0.9341(2) 0.63365(18)
H45 H 0.9306 0.9007 0.6163
C66 C 0.5439(5) 0.7920(2) 0.73225(17)
H46 H 0.5316 0.7516 0.7300
C67 C 0.5648(6) 0.8170(2) 0.77196(18)
H47 H 0.5628 0.7930 0.7962
C68 C 0.5789(7) 0.9066(2) 0.74258(18)
H48 H 0.5890 0.9470 0.7460
C69 C 0.5556(7) 0.8855(2) 0.70086(19)
H49 H 0.5502 0.9111 0.6773
C70 C 0.5404(5) 0.8255(2) 0.69462(16)
C71 C 0.5262(5) 0.7985(2) 0.65134(16)
C72 C 0.4624(5) 0.8152(2) 0.61264(17)
H50 H 0.4152 0.8484 0.6076
C73 C 0.4836(5) 0.7719(2) 0.58259(16)
C74 C 0.4406(5) 0.7668(2) 0.53635(17)
C75 C 0.3827(7) 0.8137(3) 0.5143(2)
H51 H 0.3723 0.8488 0.5287
C76 C 0.3408(8) 0.8076(3) 0.4709(2)
H52 H 0.3013 0.8392 0.4568
C77 C 0.4072(7) 0.7150(3) 0.4692(2)
H53 H 0.4165 0.6804 0.4540
C78 C 0.4506(6) 0.7167(3) 0.51238(18)
H54 H 0.4870 0.6836 0.5255
Cu6C Cu 0.99486(9) 0.61058(3) 0.88769(2)
Cu6B Cu 1.00514(9) 1.11058(3) 0.61231(2)
Cu7B Cu 0.34984(7) 0.40811(3) 0.66297(2)
Cu7B_2 Cu 1.34984(7) 0.40811(3) 0.66297(2)
Cu7C Cu 0.65016(7) 0.90811(3) 0.83703(2)
N12B N 0.5253(4) 0.54515(18) 0.36471(14)
N16B N 0.7937(5) 0.5393(2) 0.33067(14)
N17C N 0.9369(5) 0.82605(19) 0.34487(14)
N20B N 1.0426(5) 0.96306(19) 0.36135(14)
N21C N 0.5882(4) 0.62585(19) 0.27853(14)
Cl1 Cl 0.7205(2) 0.49918(11) 0.87699(9)
O1 O 0.7524(14) 0.4659(6) 0.9099(3)
O2 O 0.6037(10) 0.5031(7) 0.8674(5)
O3 O 0.7703(8) 0.4822(4) 0.8396(3)
O4 O 0.7510(11) 0.5541(4) 0.8855(4)
O5 O 0.2498(6) 0.8055(3) 0.87393(18)
H55 H 0.2447 0.8073 0.8464
H56 H 0.1925 0.8245 0.8824
O6 O 0.0883(11) 0.8622(5) 0.9147(5)
H57 H 0.0209 0.8561 0.9006
H58 H 0.0879 0.8465 0.9396
O7 O 0.7325(19) 0.1393(8) 0.6507(8)
H59 H 0.6608 0.1355 0.6400
H60 H 0.7604 0.1063 0.6599
O8 O 0.4965(11) 0.1203(5) 0.6076(4)
H61 H 0.4708 0.0873 0.6154
H62 H 0.4986 0.1208 0.5803
O9 O 0.5003(5) 0.5666(3) 0.49170(19)
H63 H 0.4344 0.5753 0.5004
H64 H 0.5106 0.5297 0.4947
loop_
_geom_bond_atom_site_label_1
_geom_bond_atom_site_label_2
_geom_bond_site_symmetry_1
_geom_bond_site_symmetry_2
Cu1 N2 1_555 1_555
Cu2 N14 1_555 1_555
Cu3 N3 1_555 1_555
Cu4 N7 1_555 1_555
Cu5 N11 1_555 1_555
Cu6 N1 1_555 1_555
Cu7 N5 1_555 1_555
N1 C2 1_555 1_555
N2 N3 1_555 1_555
N3 C8 1_555 1_555
N4 C11 1_555 1_555
N5 C15 1_555 1_555
N6 Cu1 1_555 1_555
N7 N6 1_555 1_555
N8 C24 1_555 1_555
N9 C28 1_555 1_555
N10 Cu1 1_555 1_555
N11 N10 1_555 1_555
N12 C37 1_555 1_555
N13 C41 1_555 1_555
N14 N15 1_555 1_555
N15 Cu3 1_555 1_555
N16 C50 1_555 1_555
N17 C54 1_555 1_555
N18 Cu2 1_555 1_555
N19 Cu4 1_555 1_555
N20 C63 1_555 1_555
N21 C67 1_555 1_555
N22 Cu2 1_555 1_555
N23 Cu5 1_555 1_555
N24 C76 1_555 1_555
C1 H1 1_555 1_555
C2 C1 1_555 1_555
H2 C2 1_555 1_555
C3 N1 1_555 1_555
H3 C3 1_555 1_555
C4 C3 1_555 1_555
H4 C4 1_555 1_555
C5 C1 1_555 1_555
C6 N2 1_555 1_555
C7 C6 1_555 1_555
H5 C7 1_555 1_555
C8 C7 1_555 1_555
C9 C8 1_555 1_555
C10 C9 1_555 1_555
H6 C10 1_555 1_555
C11 C10 1_555 1_555
H7 C11 1_555 1_555
C12 N4 1_555 1_555
H8 C12 1_555 1_555
C13 C9 1_555 1_555
H9 C13 1_555 1_555
C14 H10 1_555 1_555
C15 C14 1_555 1_555
H11 C15 1_555 1_555
C16 N5 1_555 1_555
H12 C16 1_555 1_555
C17 C16 1_555 1_555
H13 C17 1_555 1_555
C18 C14 1_555 1_555
C19 N6 1_555 1_555
C20 C19 1_555 1_555
H14 C20 1_555 1_555
C21 N7 1_555 1_555
C22 C21 1_555 1_555
C23 C22 1_555 1_555
H15 C23 1_555 1_555
C24 C23 1_555 1_555
H16 C24 1_555 1_555
C25 N8 1_555 1_555
H17 C25 1_555 1_555
C26 C22 1_555 1_555
H18 C26 1_555 1_555
C27 H19 1_555 1_555
C28 C27 1_555 1_555
H20 C28 1_555 1_555
C29 N9 1_555 1_555
H21 C29 1_555 1_555
C30 C29 1_555 1_555
H22 C30 1_555 1_555
C31 C27 1_555 1_555
C32 N10 1_555 1_555
C33 C32 1_555 1_555
H23 C33 1_555 1_555
C34 N11 1_555 1_555
C35 C34 1_555 1_555
C36 C35 1_555 1_555
H24 C36 1_555 1_555
C37 C36 1_555 1_555
H25 C37 1_555 1_555
C38 N12 1_555 1_555
H26 C38 1_555 1_555
C39 C35 1_555 1_555
H27 C39 1_555 1_555
C40 H28 1_555 1_555
C41 C40 1_555 1_555
H29 C41 1_555 1_555
C42 N13 1_555 1_555
H30 C42 1_555 1_555
C43 C42 1_555 1_555
H31 C43 1_555 1_555
C44 C40 1_555 1_555
C45 N14 1_555 1_555
C46 C45 1_555 1_555
H32 C46 1_555 1_555
C47 N15 1_555 1_555
C48 C47 1_555 1_555
C49 C48 1_555 1_555
H33 C49 1_555 1_555
C50 C49 1_555 1_555
H34 C50 1_555 1_555
C51 N16 1_555 1_555
H35 C51 1_555 1_555
C52 C48 1_555 1_555
H36 C52 1_555 1_555
C53 H37 1_555 1_555
C54 C53 1_555 1_555
H38 C54 1_555 1_555
C55 N17 1_555 1_555
H39 C55 1_555 1_555
C56 C55 1_555 1_555
H40 C56 1_555 1_555
C57 C53 1_555 1_555
C58 N18 1_555 1_555
C59 C58 1_555 1_555
H41 C59 1_555 1_555
C60 N19 1_555 1_555
C61 C60 1_555 1_555
C62 C61 1_555 1_555
H42 C62 1_555 1_555
C63 C62 1_555 1_555
H43 C63 1_555 1_555
C64 N20 1_555 1_555
H44 C64 1_555 1_555
C65 C61 1_555 1_555
H45 C65 1_555 1_555
C66 H46 1_555 1_555
C67 C66 1_555 1_555
H47 C67 1_555 1_555
C68 N21 1_555 1_555
H48 C68 1_555 1_555
C69 C68 1_555 1_555
H49 C69 1_555 1_555
C70 C66 1_555 1_555
C71 N22 1_555 1_555
C72 C71 1_555 1_555
H50 C72 1_555 1_555
C73 N23 1_555 1_555
C74 C73 1_555 1_555
C75 C74 1_555 1_555
H51 C75 1_555 1_555
C76 C75 1_555 1_555
H52 C76 1_555 1_555
C77 N24 1_555 1_555
H53 C77 1_555 1_555
C78 C74 1_555 1_555
H54 C78 1_555 1_555
Cl1 O1 1_555 1_555
O2 Cl1 1_555 1_555
O3 Cl1 1_555 1_555
O4 Cl1 1_555 1_555
O5 H55 1_555 1_555
H56 O5 1_555 1_555
O6 H57 1_555 1_555
H58 O6 1_555 1_555
O7 H59 1_555 1_555
H60 O7 1_555 1_555
O8 H61 1_555 1_555
H62 O8 1_555 1_555
O9 H63 1_555 1_555
H64 O9 1_555 1_555
Cu6C N17 1_555 1_555
Cu6B N20 1_555 1_555
Cu7B N12 1_555 1_555
Cu7B_2 N16 1_555 1_555
Cu7C N21 1_555 1_555
N12B Cu7 1_555 1_555
N16B Cu7 1_555 1_555
N17C Cu6 1_555 1_555
N20B Cu6 1_555 1_555
N21C Cu7 1_555 1_555
N18 N19 1_555 1_555
N22 N23 1_555 1_555
C4 C5 1_555 1_555
C5 C6 1_555 1_555
C12 C13 1_555 1_555
C17 C18 1_555 1_555
C18 C19 1_555 1_555
C20 C21 1_555 1_555
C25 C26 1_555 1_555
C30 C31 1_555 1_555
C31 C32 1_555 1_555
C33 C34 1_555 1_555
C38 C39 1_555 1_555
C43 C44 1_555 1_555
C44 C45 1_555 1_555
C46 C47 1_555 1_555
C51 C52 1_555 1_555
C56 C57 1_555 1_555
C57 C58 1_555 1_555
C59 C60 1_555 1_555
C64 C65 1_555 1_555
C69 C70 1_555 1_555
C70 C71 1_555 1_555
C72 C73 1_555 1_555
C77 C78 1_555 1_555

#END
