
#######################################################################
#
#                 Cambridge Crystallographic Data Centre
#                                CCDC 
#
#######################################################################
#
# If this CIF has been generated from an entry in the Cambridge 
# Structural Database, then it will include bibliographic, chemical, 
# crystal, experimental, refinement or atomic coordinate data resulting 
# from the CCDC's data processing and validation procedures.
#
#######################################################################

data_KOLLON
_symmetry_cell_setting           orthorhombic
_symmetry_space_group_name_H-M   'P b c a'
_symmetry_Int_Tables_number      61
_space_group_name_Hall           '-P 2ac 2ab'
loop_
_symmetry_equiv_pos_site_id
_symmetry_equiv_pos_as_xyz
1 x,y,z
2 1/2+x,1/2-y,-z
3 -x,1/2+y,1/2-z
4 1/2-x,-y,1/2+z
5 -x,-y,-z
6 1/2-x,1/2+y,z
7 x,1/2-y,1/2+z
8 1/2+x,y,1/2-z
_cell_length_a                   16.0465(4)
_cell_length_b                   14.2446(3)
_cell_length_c                   8.4274(2)
_cell_angle_alpha                90
_cell_angle_beta                 90
_cell_angle_gamma                90
_cell_volume                     1926.3
loop_
_atom_site_label
_atom_site_type_symbol
_atom_site_fract_x
_atom_site_fract_y
_atom_site_fract_z
Cs1 Cs 0.450580(8) -0.747300(8) -0.440250(14)
S1 S 0.43510(3) -0.55108(4) -0.16633(7)
S2 S 0.27909(3) -0.65642(3) -0.23000(6)
O1 O 0.40177(10) -0.24437(9) -0.30569(17)
H1 H 0.3644 -0.2044 -0.2882
O2 O 0.06752(9) -0.41045(11) -0.18659(17)
H2 H 0.0304 -0.4490 -0.2125
N1 N 0.28964(10) -0.46926(11) -0.22990(19)
C1 C 0.33086(13) -0.55111(14) -0.2122(2)
C2 C 0.32823(13) -0.37812(13) -0.1937(2)
H3 H 0.3732 -0.3872 -0.1147
H4 H 0.2859 -0.3359 -0.1466
C3 C 0.36425(13) -0.33271(13) -0.3422(2)
H5 H 0.4065 -0.3749 -0.3895
H6 H 0.3193 -0.3234 -0.4212
C4 C 0.20272(12) -0.46298(14) -0.2834(2)
H7 H 0.1897 -0.5179 -0.3510
H8 H 0.1957 -0.4058 -0.3488
C5 C 0.14156(13) -0.45980(15) -0.1450(2)
H9 H 0.1271 -0.5246 -0.1130
H10 H 0.1683 -0.4285 -0.0533
Cs1F Cs 0.450580(8) -0.752700(8) 0.059750(14)
Cs1E Cs 0.049420(8) -0.247300(8) -0.440250(14)
Cs1C Cs 0.049420(8) -0.252700(8) 0.059750(14)
Cs1D Cs 0.549420(8) -0.252700(8) -0.559750(14)
Cs1B Cs 0.549420(8) -0.247300(8) -0.059750(14)
S1F S 0.43510(3) -0.94892(4) -0.66633(7)
S2F S 0.27909(3) -0.84358(3) -0.73000(6)
O1B O 0.59823(10) -0.74437(9) -0.19431(17)
O1D O 0.59823(10) -0.75563(9) -0.69431(17)
H1D H 0.6356 -0.7956 -0.7118
H1B H 0.6356 -0.7044 -0.2118
O2C O 0.43248(9) -0.58955(11) -0.68659(17)
O2E O 0.43248(9) -0.91045(11) -0.18659(17)
H2E H 0.4696 -0.9490 -0.2125
H2C H 0.4696 -0.5510 -0.7125
loop_
_geom_bond_atom_site_label_1
_geom_bond_atom_site_label_2
_geom_bond_site_symmetry_1
_geom_bond_site_symmetry_2
Cs1 S1 1_555 1_555
S1 C1 1_555 1_555
S2 Cs1 1_555 1_555
O1 H1 1_555 1_555
O2 H2 1_555 1_555
N1 C1 1_555 1_555
C1 S2 1_555 1_555
C2 N1 1_555 1_555
H3 C2 1_555 1_555
H4 C2 1_555 1_555
C3 O1 1_555 1_555
H5 C3 1_555 1_555
H6 C3 1_555 1_555
C4 N1 1_555 1_555
H7 C4 1_555 1_555
H8 C4 1_555 1_555
C5 O2 1_555 1_555
H9 C5 1_555 1_555
H10 C5 1_555 1_555
Cs1F S1 1_555 1_555
Cs1E O2 1_555 1_555
Cs1C O2 1_555 1_555
Cs1D O1 1_555 1_555
Cs1B O1 1_555 1_555
S1F Cs1 1_555 1_555
S2F Cs1 1_555 1_555
O1B Cs1 1_555 1_555
O1D Cs1 1_555 1_555
H1D O1D 1_555 1_555
H1B O1B 1_555 1_555
O2C Cs1 1_555 1_555
O2E Cs1 1_555 1_555
H2E O2E 1_555 1_555
H2C O2C 1_555 1_555
S2 Cs1F 1_555 1_555
C2 C3 1_555 1_555
C4 C5 1_555 1_555
Cs1F O1B 1_555 1_555
Cs1F O2E 1_555 1_555

#END
