
#######################################################################
#
#                 Cambridge Crystallographic Data Centre
#                                CCDC 
#
#######################################################################
#
# If this CIF has been generated from an entry in the Cambridge 
# Structural Database, then it will include bibliographic, chemical, 
# crystal, experimental, refinement or atomic coordinate data resulting 
# from the CCDC's data processing and validation procedures.
#
#######################################################################

data_KOLNEF
_symmetry_cell_setting           triclinic
_symmetry_space_group_name_H-M   'P -1'
_symmetry_Int_Tables_number      2
_space_group_name_Hall           '-P 1'
loop_
_symmetry_equiv_pos_site_id
_symmetry_equiv_pos_as_xyz
1 x,y,z
2 -x,-y,-z
_cell_length_a                   7.6927(7)
_cell_length_b                   9.7564(9)
_cell_length_c                   17.2857(17)
_cell_angle_alpha                81.067(2)
_cell_angle_beta                 81.968(2)
_cell_angle_gamma                86.102(2)
_cell_volume                     1267.61
loop_
_atom_site_label
_atom_site_type_symbol
_atom_site_fract_x
_atom_site_fract_y
_atom_site_fract_z
Zn1 Zn 0.22210(4) 0.25532(3) 0.263813(17)
N1 N 0.2620(3) 0.3165(2) 0.13487(12)
C1 C 0.2224(3) 0.4465(3) 0.10124(15)
H1 H 0.1743 0.5125 0.1343
C2 C 0.2491(3) 0.4884(3) 0.01974(15)
C3 C 0.3207(3) 0.3899(3) -0.02804(15)
H2 H 0.3400 0.4139 -0.0839
C4 C 0.3627(4) 0.2576(3) 0.00712(16)
H3 H 0.4129 0.1896 -0.0243
C5 C 0.3314(3) 0.2242(3) 0.08829(16)
H4 H 0.3603 0.1324 0.1118
N2 N 0.2119(3) 0.6224(2) -0.01833(12)
H5 H 0.2234 0.6330 -0.0703
C6 C 0.1597(3) 0.7386(3) 0.01545(15)
O1 O 0.1252(2) 0.73578(18) 0.08818(10)
N3 N 0.1505(3) 0.8563(2) -0.03508(13)
H6 H 0.1760 0.8534 -0.0861
C7 C 0.0995(3) 0.9890(3) -0.00824(16)
H7 H 0.1468 1.0649 -0.0491
H8 H 0.1515 0.9933 0.0405
C8 C 0.5613(4) -0.4457(3) 0.50672(16)
H9 H 0.6438 -0.4902 0.5433
H10 H 0.6315 -0.4108 0.4559
N4 N 0.4662(3) -0.3294(2) 0.53927(13)
H11 H 0.4495 -0.3304 0.5908
C9 C 0.4028(3) -0.2196(3) 0.49155(15)
O2 O 0.4125(2) -0.21615(19) 0.41974(10)
N5 N 0.3281(3) -0.1136(2) 0.53019(12)
H12 H 0.3288 -0.1261 0.5817
C10 C 0.2507(3) 0.0121(3) 0.49768(15)
C11 C 0.1533(3) 0.0932(3) 0.55006(15)
H13 H 0.1387 0.0614 0.6053
C12 C 0.0791(3) 0.2192(3) 0.52072(15)
H14 H 0.0135 0.2756 0.5556
C13 C 0.1006(3) 0.2635(3) 0.44003(16)
H15 H 0.0486 0.3507 0.4202
N6 N 0.1931(3) 0.1863(2) 0.38900(12)
C14 C 0.2664(3) 0.0634(3) 0.41748(15)
H16 H 0.3318 0.0091 0.3813
O3 O 0.3568(3) 0.4291(2) 0.28003(13)
O4 O -0.0128(3) 0.3709(2) 0.27865(12)
O5 O 0.0932(3) 0.0778(2) 0.25229(11)
O6 O 0.4637(2) 0.13913(18) 0.25024(10)
S1 S 0.63982(8) 0.19627(6) 0.23539(3)
O7 O 0.6417(2) 0.32733(18) 0.18062(10)
O8 O 0.6954(2) 0.21998(18) 0.31037(10)
O9 O 0.7653(2) 0.09207(18) 0.20092(10)
H23 H 0.435(4) 0.437(3) 0.2521(19)
H24 H 0.311(5) 0.508(4) 0.295(2)
H25 H -0.099(5) 0.334(3) 0.2851(19)
H26 H -0.033(5) 0.446(4) 0.254(2)
H27 H 0.151(5) 0.018(4) 0.234(2)
H28 H 0.005(5) 0.088(4) 0.237(2)
Zn1A Zn -0.22210(4) 1.74468(3) -0.263813(17)
Zn1A_2 Zn 0.77790(4) -1.25532(3) 0.736187(17)
N1A N -0.2620(3) 1.6835(2) -0.13487(12)
C1A C -0.2224(3) 1.5535(3) -0.10124(15)
H1A H -0.1743 1.4875 -0.1343
C2A C -0.2491(3) 1.5116(3) -0.01974(15)
C3A C -0.3207(3) 1.6101(3) 0.02804(15)
H2A H -0.3400 1.5861 0.0839
C4A C -0.3627(4) 1.7424(3) -0.00712(16)
H3A H -0.4129 1.8104 0.0243
C5A C -0.3314(3) 1.7758(3) -0.08829(16)
H4A H -0.3603 1.8676 -0.1118
N2A N -0.2119(3) 1.3776(2) 0.01833(12)
H5A H -0.2234 1.3670 0.0703
C6A C -0.1597(3) 1.2614(3) -0.01545(15)
O1A O -0.1252(2) 1.26422(18) -0.08818(10)
N3A N -0.1505(3) 1.1437(2) 0.03508(13)
H6A H -0.1760 1.1466 0.0861
C7A C -0.0995(3) 1.0110(3) 0.00824(16)
H7A H -0.1468 0.9351 0.0491
H8A H -0.1515 1.0067 -0.0405
C8A C 0.4387(4) -0.5543(3) 0.49328(16)
H9A H 0.3562 -0.5098 0.4567
H10A H 0.3685 -0.5892 0.5441
N4A N 0.5338(3) -0.6706(2) 0.46073(13)
H11A H 0.5505 -0.6696 0.4092
C9A C 0.5972(3) -0.7804(3) 0.50845(15)
O2A O 0.5875(2) -0.78385(19) 0.58026(10)
N5A N 0.6719(3) -0.8864(2) 0.46981(12)
H12A H 0.6712 -0.8739 0.4183
C10A C 0.7493(3) -1.0121(3) 0.50232(15)
C11A C 0.8467(3) -1.0932(3) 0.44994(15)
H13A H 0.8613 -1.0614 0.3947
C12A C 0.9209(3) -1.2192(3) 0.47928(15)
H14A H 0.9865 -1.2756 0.4444
C13A C 0.8994(3) -1.2635(3) 0.55997(16)
H15A H 0.9514 -1.3507 0.5798
N6A N 0.8069(3) -1.1863(2) 0.61100(12)
N6A_2 N -0.1931(3) 1.8137(2) -0.38900(12)
C14A C 0.7336(3) -1.0634(3) 0.58252(15)
H16A H 0.6682 -1.0091 0.6187
O3A O -0.3568(3) 1.5709(2) -0.28003(13)
O4A O 0.0128(3) 1.6291(2) -0.27865(12)
O5A O -0.0932(3) 1.9222(2) -0.25229(11)
O6A O -0.4637(2) 1.86087(18) -0.25024(10)
S1A S -0.63982(8) 1.80373(6) -0.23539(3)
O7A O -0.6417(2) 1.67267(18) -0.18062(10)
O8A O -0.6954(2) 1.78002(18) -0.31037(10)
O9A O -0.7653(2) 1.90793(18) -0.20092(10)
H23A H -0.435(4) 1.563(3) -0.2521(19)
H24A H -0.311(5) 1.492(4) -0.295(2)
H25A H 0.099(5) 1.666(3) -0.2851(19)
H26A H 0.033(5) 1.554(4) -0.254(2)
H27A H -0.151(5) 1.982(4) -0.234(2)
H28A H -0.005(5) 1.912(4) -0.237(2)
O10 O 0.8896(3) 0.6229(2) 0.20808(13)
H17 H 0.9500 0.6635 0.1679
C15 C 0.8308(4) 0.7191(3) 0.26097(18)
H18 H 0.9092 0.7981 0.2501
H19 H 0.8374 0.6735 0.3159
C16 C 0.6441(4) 0.7729(3) 0.25309(16)
H20 H 0.5669 0.6934 0.2616
H21 H 0.6037 0.8316 0.2946
O11 O 0.6286(3) 0.8519(2) 0.17774(12)
H22 H 0.6587 0.9332 0.1772
O12 O 0.2726(3) 0.8636(2) 0.18971(12)
H29 H 0.241(5) 0.820(4) 0.154(2)
H30 H 0.377(4) 0.871(3) 0.1790(16)
O13 O 0.2210(3) 0.6640(2) 0.32815(13)
H31 H 0.276(5) 0.699(4) 0.358(2)
H32 H 0.227(4) 0.725(4) 0.288(2)
loop_
_geom_bond_atom_site_label_1
_geom_bond_atom_site_label_2
_geom_bond_site_symmetry_1
_geom_bond_site_symmetry_2
Zn1 N1 1_555 1_555
N1 C1 1_555 1_555
C1 H1 1_555 1_555
C2 C1 1_555 1_555
C3 C2 1_555 1_555
H2 C3 1_555 1_555
C4 C3 1_555 1_555
H3 C4 1_555 1_555
C5 N1 1_555 1_555
H4 C5 1_555 1_555
N2 C2 1_555 1_555
H5 N2 1_555 1_555
C6 N2 1_555 1_555
O1 C6 1_555 1_555
N3 C6 1_555 1_555
H6 N3 1_555 1_555
C7 N3 1_555 1_555
H7 C7 1_555 1_555
H8 C7 1_555 1_555
C8 H9 1_555 1_555
H10 C8 1_555 1_555
N4 C8 1_555 1_555
H11 N4 1_555 1_555
C9 N4 1_555 1_555
O2 C9 1_555 1_555
N5 C9 1_555 1_555
H12 N5 1_555 1_555
C10 N5 1_555 1_555
C11 C10 1_555 1_555
H13 C11 1_555 1_555
C12 C11 1_555 1_555
H14 C12 1_555 1_555
C13 C12 1_555 1_555
H15 C13 1_555 1_555
N6 Zn1 1_555 1_555
C14 C10 1_555 1_555
H16 C14 1_555 1_555
O3 Zn1 1_555 1_555
O4 Zn1 1_555 1_555
O5 Zn1 1_555 1_555
O6 Zn1 1_555 1_555
S1 O6 1_555 1_555
O7 S1 1_555 1_555
O8 S1 1_555 1_555
O9 S1 1_555 1_555
O10 H17 1_555 1_555
C15 O10 1_555 1_555
H18 C15 1_555 1_555
H19 C15 1_555 1_555
C16 C15 1_555 1_555
H20 C16 1_555 1_555
H21 C16 1_555 1_555
O11 C16 1_555 1_555
H22 O11 1_555 1_555
O12 H29 1_555 1_555
O13 H31 1_555 1_555
H23 O3 1_555 1_555
H24 O3 1_555 1_555
H25 O4 1_555 1_555
H26 O4 1_555 1_555
H27 O5 1_555 1_555
H28 O5 1_555 1_555
H30 O12 1_555 1_555
H32 O13 1_555 1_555
Zn1A N1A 1_555 1_555
Zn1A_2 N6A 1_555 1_555
N1A C1A 1_555 1_555
C1A H1A 1_555 1_555
C2A C1A 1_555 1_555
C3A C2A 1_555 1_555
H2A C3A 1_555 1_555
C4A C3A 1_555 1_555
H3A C4A 1_555 1_555
C5A N1A 1_555 1_555
H4A C5A 1_555 1_555
N2A C2A 1_555 1_555
H5A N2A 1_555 1_555
C6A N2A 1_555 1_555
O1A C6A 1_555 1_555
N3A C6A 1_555 1_555
H6A N3A 1_555 1_555
C7A C7 1_555 1_555
H7A C7A 1_555 1_555
H8A C7A 1_555 1_555
C8A C8 1_555 1_555
H9A C8A 1_555 1_555
H10A C8A 1_555 1_555
N4A C8A 1_555 1_555
H11A N4A 1_555 1_555
C9A N4A 1_555 1_555
O2A C9A 1_555 1_555
N5A C9A 1_555 1_555
H12A N5A 1_555 1_555
C10A N5A 1_555 1_555
C11A C10A 1_555 1_555
H13A C11A 1_555 1_555
C12A C11A 1_555 1_555
H14A C12A 1_555 1_555
C13A C12A 1_555 1_555
H15A C13A 1_555 1_555
N6A C13A 1_555 1_555
N6A_2 Zn1A 1_555 1_555
C14A C10A 1_555 1_555
H16A C14A 1_555 1_555
O3A Zn1A 1_555 1_555
O4A Zn1A 1_555 1_555
O5A Zn1A 1_555 1_555
O6A Zn1A 1_555 1_555
S1A O6A 1_555 1_555
O7A S1A 1_555 1_555
O8A S1A 1_555 1_555
O9A S1A 1_555 1_555
H23A O3A 1_555 1_555
H24A O3A 1_555 1_555
H25A O4A 1_555 1_555
H26A O4A 1_555 1_555
H27A O5A 1_555 1_555
H28A O5A 1_555 1_555
C4 C5 1_555 1_555
C13 N6 1_555 1_555
N6 C14 1_555 1_555
C4A C5A 1_555 1_555
N3A C7A 1_555 1_555
N6A C14A 1_555 1_555

#END
