
#######################################################################
#
#                 Cambridge Crystallographic Data Centre
#                                CCDC 
#
#######################################################################
#
# If this CIF has been generated from an entry in the Cambridge 
# Structural Database, then it will include bibliographic, chemical, 
# crystal, experimental, refinement or atomic coordinate data resulting 
# from the CCDC's data processing and validation procedures.
#
#######################################################################

data_KOLNIJ
_symmetry_cell_setting           monoclinic
_symmetry_space_group_name_H-M   'P 21/n'
_symmetry_Int_Tables_number      14
_space_group_name_Hall           '-P 2yn'
loop_
_symmetry_equiv_pos_site_id
_symmetry_equiv_pos_as_xyz
1 x,y,z
2 1/2-x,1/2+y,1/2-z
3 -x,-y,-z
4 1/2+x,1/2-y,1/2+z
_cell_length_a                   13.0983(12)
_cell_length_b                   13.9309(12)
_cell_length_c                   24.194(2)
_cell_angle_alpha                90
_cell_angle_beta                 94.795(2)
_cell_angle_gamma                90
_cell_volume                     4399.26
loop_
_atom_site_label
_atom_site_type_symbol
_atom_site_fract_x
_atom_site_fract_y
_atom_site_fract_z
Zn1 Zn 0.76333(3) 0.24791(3) 0.996826(16)
N1 N 0.6096(2) 0.3138(2) 0.97639(12)
C1 C 0.5573(3) 0.3484(3) 1.01717(16)
H1 H 0.5891 0.3498 1.0530
C2 C 0.4580(3) 0.3823(3) 1.00842(17)
H2 H 0.4252 0.4067 1.0380
C3 C 0.4073(3) 0.3802(3) 0.95608(17)
H3 H 0.3396 0.4002 0.9498
C4 C 0.4622(3) 0.3465(3) 0.91280(15)
C5 C 0.5624(3) 0.3154(3) 0.92535(15)
H4 H 0.5988 0.2943 0.8963
N2 N 0.4206(2) 0.3398(2) 0.85757(13)
H5 H 0.4479 0.2995 0.8363
C6 C 0.3394(3) 0.3931(3) 0.83512(16)
O1 O 0.2981(2) 0.4563(2) 0.86094(12)
N3 N 0.3091(2) 0.3712(2) 0.78223(13)
H6 H 0.3405 0.3281 0.7647
C7 C 0.2214(3) 0.4225(3) 0.75524(18)
H7 H 0.2390 0.4897 0.7519
H8 H 0.1644 0.4182 0.7783
C8 C 0.1890(3) 0.3834(3) 0.69902(16)
H9 H 0.2432 0.3917 0.6744
H10 H 0.1733 0.3155 0.7013
N4 N 0.0984(3) 0.4370(3) 0.67869(14)
H11 H 0.0770 0.4819 0.6993
C9 C 0.0466(3) 0.4204(3) 0.62987(16)
O2 O 0.0681(2) 0.35624(19) 0.59740(11)
N5 N -0.0331(2) 0.4830(2) 0.61828(13)
H12 H -0.0496 0.5188 0.6451
C10 C -0.0903(3) 0.4944(3) 0.56734(15)
C11 C -0.1402(3) 0.5813(3) 0.55880(15)
H13 H -0.1312 0.6272 0.5867
N6 N -0.2002(2) 0.6041(2) 0.51346(12)
C12 C -0.2120(3) 0.5369(3) 0.47339(15)
H14 H -0.2543 0.5503 0.4415
C13 C -0.1634(3) 0.4486(3) 0.47789(16)
H15 H -0.1722 0.4046 0.4490
C14 C -0.1023(3) 0.4261(3) 0.52493(15)
H16 H -0.0697 0.3669 0.5285
N7 N 0.9166(2) 0.1838(2) 1.01893(12)
C15 C 0.9741(3) 0.1501(3) 0.97996(16)
H17 H 0.9466 0.1495 0.9433
C16 C 1.0729(3) 0.1162(3) 0.99212(17)
H18 H 1.1099 0.0926 0.9639
C17 C 1.1168(3) 0.1175(3) 1.04625(16)
H19 H 1.1833 0.0956 1.0550
C18 C 1.0578(3) 0.1527(3) 1.08711(15)
C19 C 0.9583(3) 0.1820(3) 1.07191(15)
H20 H 0.9180 0.2016 1.0997
N8 N 1.0921(2) 0.1627(2) 1.14325(12)
H21 H 1.0644 0.2074 1.1614
C20 C 1.1658(3) 0.1080(3) 1.17221(16)
O3 O 1.2123(2) 0.0429(2) 1.15038(11)
N9 N 1.1818(2) 0.1321(2) 1.22636(13)
H22 H 1.1475 0.1790 1.2386
C21 C 1.2545(3) 0.0822(3) 1.26446(16)
H23 H 1.2627 0.0170 1.2514
H24 H 1.2274 0.0787 1.3005
C22 C 1.3583(3) 0.1305(3) 1.27066(17)
H25 H 1.3814 0.1434 1.2343
H26 H 1.3532 0.1912 1.2899
N10 N 1.4315(3) 0.0685(3) 1.30182(14)
H27 H 1.4529 0.0190 1.2850
C23 C 1.4682(3) 0.0822(3) 1.35461(16)
O4 O 1.4550(2) 0.15585(19) 1.38188(11)
N11 N 1.5259(2) 0.0065(2) 1.37623(13)
H28 H 1.5285 -0.0432 1.3553
C24 C 1.5803(3) 0.0005(3) 1.42796(15)
C25 C 1.6197(3) -0.0891(3) 1.44290(15)
H29 H 1.6064 -0.1393 1.4180
N12 N 1.6752(2) -0.1085(2) 1.49024(12)
C26 C 1.6954(3) -0.0358(3) 1.52594(16)
H30 H 1.7350 -0.0471 1.5590
C27 C 1.6585(3) 0.0553(3) 1.51454(16)
H31 H 1.6729 0.1040 1.5403
C28 C 1.6006(3) 0.0760(3) 1.46550(16)
H32 H 1.5760 0.1376 1.4578
O5 O 0.7893(2) 0.25706(18) 0.91221(11)
O6 O 0.73641(19) 0.23754(18) 1.08103(10)
Zn1A Zn -0.26333(3) 0.74791(3) 0.503174(16)
Zn1A_2 Zn 1.73667(3) -0.25209(3) 1.503174(16)
N6A N 0.7002(2) 0.1041(2) 0.98654(12)
N12A N 0.8248(2) 0.3915(2) 1.00976(12)
S1 S 0.48756(7) 0.16960(7) 0.74932(4)
O7 O 0.5397(2) 0.2514(2) 0.77761(12)
O8 O 0.3767(2) 0.1757(2) 0.75592(12)
O9 O 0.5046(2) 0.1698(2) 0.68980(11)
O10 O 0.5285(2) 0.0802(2) 0.77467(12)
O11 O 0.1697(3) 0.9442(3) 0.36230(14)
C29 C 0.0646(4) 0.9312(4) 0.3430(2)
H33 H 0.0506 0.9590 0.3064
H34 H 0.0204 0.9614 0.3681
C30 C 0.0466(4) 0.8221(3) 0.3411(2)
H35 H 0.0282 0.8003 0.3035
H36 H -0.0067 0.8034 0.3645
C31 C 0.1526(4) 0.7816(4) 0.3638(2)
H37 H 0.1563 0.7724 0.4036
H38 H 0.1677 0.7214 0.3460
C32 C 0.2211(4) 0.8583(4) 0.3484(2)
H39 H 0.2874 0.8533 0.3693
H40 H 0.2305 0.8562 0.3091
O12 O 0.1664(2) 0.0649(2) 0.86483(13)
C33 C 0.0662(4) 0.0388(3) 0.8423(2)
H41 H 0.0268 0.0134 0.8712
H42 H 0.0702 -0.0100 0.8139
C34 C 0.0162(4) 0.1276(4) 0.8177(2)
H43 H -0.0197 0.1625 0.8449
H44 H -0.0313 0.1125 0.7860
C35 C 0.1083(4) 0.1838(4) 0.8005(2)
H45 H 0.1294 0.1615 0.7653
H46 H 0.0939 0.2521 0.7982
C36 C 0.1884(4) 0.1613(4) 0.8478(2)
H47 H 0.2568 0.1652 0.8354
H48 H 0.1834 0.2059 0.8782
O13 O 0.7414(2) 0.1448(2) 0.82424(11)
O14 O 0.2576(2) 0.6411(2) 0.83557(11)
loop_
_geom_bond_atom_site_label_1
_geom_bond_atom_site_label_2
_geom_bond_site_symmetry_1
_geom_bond_site_symmetry_2
Zn1 N1 1_555 1_555
N1 C1 1_555 1_555
C1 H1 1_555 1_555
C2 C1 1_555 1_555
H2 C2 1_555 1_555
C3 C2 1_555 1_555
H3 C3 1_555 1_555
C4 C3 1_555 1_555
C5 N1 1_555 1_555
H4 C5 1_555 1_555
N2 C4 1_555 1_555
H5 N2 1_555 1_555
C6 N2 1_555 1_555
O1 C6 1_555 1_555
N3 C6 1_555 1_555
H6 N3 1_555 1_555
C7 N3 1_555 1_555
H7 C7 1_555 1_555
H8 C7 1_555 1_555
C8 C7 1_555 1_555
H9 C8 1_555 1_555
H10 C8 1_555 1_555
N4 C8 1_555 1_555
H11 N4 1_555 1_555
C9 N4 1_555 1_555
O2 C9 1_555 1_555
N5 C9 1_555 1_555
H12 N5 1_555 1_555
C10 N5 1_555 1_555
C11 C10 1_555 1_555
H13 C11 1_555 1_555
N6 C11 1_555 1_555
C12 N6 1_555 1_555
H14 C12 1_555 1_555
C13 C12 1_555 1_555
H15 C13 1_555 1_555
C14 C10 1_555 1_555
H16 C14 1_555 1_555
N7 Zn1 1_555 1_555
C15 N7 1_555 1_555
H17 C15 1_555 1_555
C16 C15 1_555 1_555
H18 C16 1_555 1_555
C17 C16 1_555 1_555
H19 C17 1_555 1_555
C18 C17 1_555 1_555
C19 N7 1_555 1_555
H20 C19 1_555 1_555
N8 C18 1_555 1_555
H21 N8 1_555 1_555
C20 N8 1_555 1_555
O3 C20 1_555 1_555
N9 C20 1_555 1_555
H22 N9 1_555 1_555
C21 N9 1_555 1_555
H23 C21 1_555 1_555
H24 C21 1_555 1_555
C22 C21 1_555 1_555
H25 C22 1_555 1_555
H26 C22 1_555 1_555
N10 C22 1_555 1_555
H27 N10 1_555 1_555
C23 N10 1_555 1_555
O4 C23 1_555 1_555
N11 C23 1_555 1_555
H28 N11 1_555 1_555
C24 N11 1_555 1_555
C25 C24 1_555 1_555
H29 C25 1_555 1_555
N12 C25 1_555 1_555
C26 N12 1_555 1_555
H30 C26 1_555 1_555
C27 C26 1_555 1_555
H31 C27 1_555 1_555
C28 C24 1_555 1_555
H32 C28 1_555 1_555
O5 Zn1 1_555 1_555
O6 Zn1 1_555 1_555
S1 O7 1_555 1_555
O8 S1 1_555 1_555
O9 S1 1_555 1_555
O10 S1 1_555 1_555
O11 C29 1_555 1_555
C29 H33 1_555 1_555
H34 C29 1_555 1_555
C30 C29 1_555 1_555
H35 C30 1_555 1_555
H36 C30 1_555 1_555
C31 C30 1_555 1_555
H37 C31 1_555 1_555
H38 C31 1_555 1_555
C32 O11 1_555 1_555
H39 C32 1_555 1_555
H40 C32 1_555 1_555
O12 C33 1_555 1_555
C33 H41 1_555 1_555
H42 C33 1_555 1_555
C34 C33 1_555 1_555
H43 C34 1_555 1_555
H44 C34 1_555 1_555
C35 C34 1_555 1_555
H45 C35 1_555 1_555
H46 C35 1_555 1_555
C36 O12 1_555 1_555
H47 C36 1_555 1_555
H48 C36 1_555 1_555
Zn1A N6 1_555 1_555
Zn1A_2 N12 1_555 1_555
N6A Zn1 1_555 1_555
N12A Zn1 1_555 1_555
C4 C5 1_555 1_555
C13 C14 1_555 1_555
C18 C19 1_555 1_555
C27 C28 1_555 1_555
C31 C32 1_555 1_555
C35 C36 1_555 1_555

#END
