
#######################################################################
#
#                 Cambridge Crystallographic Data Centre
#                                CCDC 
#
#######################################################################
#
# If this CIF has been generated from an entry in the Cambridge 
# Structural Database, then it will include bibliographic, chemical, 
# crystal, experimental, refinement or atomic coordinate data resulting 
# from the CCDC's data processing and validation procedures.
#
#######################################################################

data_KOLPIL
_symmetry_cell_setting           monoclinic
_symmetry_space_group_name_H-M   'P c'
_symmetry_Int_Tables_number      7
_space_group_name_Hall           'P -2yc'
loop_
_symmetry_equiv_pos_site_id
_symmetry_equiv_pos_as_xyz
1 x,y,z
2 x,-y,1/2+z
_cell_length_a                   6.7735(5)
_cell_length_b                   9.3861(7)
_cell_length_c                   16.9365(13)
_cell_angle_alpha                90
_cell_angle_beta                 92.569(1)
_cell_angle_gamma                90
_cell_volume                     1075.69
loop_
_atom_site_label
_atom_site_type_symbol
_atom_site_fract_x
_atom_site_fract_y
_atom_site_fract_z
Nd1 Nd 0.26003(4) 0.43101(3) 0.780791(19)
Nd2 Nd -0.25533(4) 0.81345(3) 1.010049(19)
O1 O 0.1537(7) 0.6082(5) 0.8834(2)
O2 O 0.0336(6) 0.8156(4) 0.9220(2)
O3 O 0.1305(7) 1.2189(5) 0.7146(3)
O4 O 0.0497(6) 1.1476(5) 0.5923(2)
O5 O 0.2345(8) 0.6332(5) 0.5365(2)
O6 O 0.2982(7) 0.4944(5) 0.6409(3)
O7 O 0.7881(7) 0.9342(4) 0.4801(2)
O8 O 0.7616(10) 0.7034(5) 0.5063(4)
O9 O 0.5653(6) 0.5832(5) 0.7926(3)
O10 O 0.6178(7) 0.7604(5) 0.8772(2)
O11 O 0.5423(7) 1.2648(5) 0.7595(3)
O12 O 0.6732(6) 1.2817(5) 0.6425(2)
O13 O -0.0898(7) 0.4678(6) 0.7307(4)
H1 H -0.1368 0.4335 0.6874
H2 H -0.1782 0.4854 0.7635
O14 O 0.0170(11) 0.3001(7) 0.8697(4)
H3 H 0.1074 0.2549 0.8956
H4 H -0.0904 0.2876 0.8928
O15 O 0.4215(9) 0.3514(8) 0.9052(3)
H5 H 0.3832 0.4064 0.9414
H6 H 0.5469 0.3479 0.9096
O16 O -0.5972(8) 0.9551(6) 0.9819(4)
H7 H -0.6568 0.9176 0.9418
H8 H -0.6690 0.9422 1.0211
O17 O -0.5481(8) 0.6577(6) 1.0150(3)
H9 H -0.5900 0.6323 1.0594
H10 H -0.6288 0.6399 0.9763
O18 O -0.1169(7) 0.5719(5) 1.0112(3)
H11 H -0.1423 0.4893 1.0287
H12 H -0.0216 0.5678 0.9803
N1 N 0.1792(7) 0.6940(5) 0.7377(3)
N2 N 0.6727(7) 1.0072(5) 0.6208(3)
C1 C 0.1320(8) 0.7930(6) 0.7906(3)
C2 C 0.1034(9) 0.9339(6) 0.7692(3)
H13 H 0.0709 1.0015 0.8066
C3 C 0.1242(8) 0.9733(6) 0.6900(3)
C4 C 0.1630(8) 0.8664(7) 0.6368(3)
H14 H 0.1684 0.8875 0.5833
C5 C 0.1933(8) 0.7303(6) 0.6622(3)
C6 C 0.1017(8) 0.7350(6) 0.8724(3)
C7 C 0.0994(8) 1.1262(6) 0.6629(3)
C8 C 0.2457(9) 0.6106(7) 0.6079(3)
C9 C 0.6943(8) 0.8682(7) 0.6081(3)
C10 C 0.6671(8) 0.7669(6) 0.6665(3)
H15 H 0.6760 0.6700 0.6558
C11 C 0.6259(8) 0.8158(7) 0.7419(3)
C12 C 0.6063(8) 0.9594(7) 0.7549(3)
H16 H 0.5792 0.9932 0.8049
C13 C 0.6271(8) 1.0533(6) 0.6929(3)
C14 C 0.7537(9) 0.8307(7) 0.5253(3)
C15 C 0.6014(8) 0.7109(7) 0.8103(3)
C16 C 0.6099(8) 1.2124(6) 0.6996(3)
Nd1_2 Nd 0.26003(4) 1.43101(3) 0.780791(19)
Nd2A Nd -0.25533(4) 1.18655(3) 0.510049(19)
Nd2A_2 Nd 0.74467(4) 1.18655(3) 0.510049(19)
Nd2_2 Nd 0.74467(4) 0.81345(3) 1.010049(19)
O3_2 O 0.1305(7) 0.2189(5) 0.7146(3)
O4A O 0.0497(6) 0.8524(5) 1.0923(2)
O7A O -0.2119(7) 1.0658(4) 0.9801(2)
O10_2 O -0.3822(7) 0.7604(5) 0.8772(2)
O11_2 O 0.5423(7) 0.2648(5) 0.7595(3)
O12A O -0.3268(6) 0.7183(5) 1.1425(2)
N2A N -0.3273(7) 0.9928(5) 1.1208(3)
loop_
_geom_bond_atom_site_label_1
_geom_bond_atom_site_label_2
_geom_bond_site_symmetry_1
_geom_bond_site_symmetry_2
Nd1 O1 1_555 1_555
Nd2 O2 1_555 1_555
O1 C6 1_555 1_555
O2 C6 1_555 1_555
O3 C7 1_555 1_555
O4 C7 1_555 1_555
O5 C8 1_555 1_555
O6 Nd1 1_555 1_555
O7 C14 1_555 1_555
O8 C14 1_555 1_555
O9 Nd1 1_555 1_555
O10 C15 1_555 1_555
O11 C16 1_555 1_555
O12 C16 1_555 1_555
O13 Nd1 1_555 1_555
H1 O13 1_555 1_555
H2 O13 1_555 1_555
O14 Nd1 1_555 1_555
H3 O14 1_555 1_555
H4 O14 1_555 1_555
O15 Nd1 1_555 1_555
H5 O15 1_555 1_555
H6 O15 1_555 1_555
O16 Nd2 1_555 1_555
H7 O16 1_555 1_555
H8 O16 1_555 1_555
O17 Nd2 1_555 1_555
H9 O17 1_555 1_555
H10 O17 1_555 1_555
O18 Nd2 1_555 1_555
H11 O18 1_555 1_555
H12 O18 1_555 1_555
N1 Nd1 1_555 1_555
N2 C9 1_555 1_555
C1 N1 1_555 1_555
C2 C1 1_555 1_555
H13 C2 1_555 1_555
C3 C2 1_555 1_555
C4 C3 1_555 1_555
H14 C4 1_555 1_555
C5 N1 1_555 1_555
C6 C1 1_555 1_555
C7 C3 1_555 1_555
C8 O6 1_555 1_555
C9 C10 1_555 1_555
C10 H15 1_555 1_555
C11 C10 1_555 1_555
C12 C11 1_555 1_555
H16 C12 1_555 1_555
C13 N2 1_555 1_555
C14 C9 1_555 1_555
C15 O9 1_555 1_555
C16 C13 1_555 1_555
Nd1_2 O3 1_555 1_555
Nd2A O4 1_555 1_555
Nd2A_2 O7 1_555 1_555
Nd2_2 O10 1_555 1_555
O3_2 Nd1 1_555 1_555
O4A Nd2 1_555 1_555
O7A Nd2 1_555 1_555
O10_2 Nd2 1_555 1_555
O11_2 Nd1 1_555 1_555
O12A Nd2 1_555 1_555
N2A Nd2 1_555 1_555
O11 Nd1_2 1_555 1_555
O12 Nd2A_2 1_555 1_555
N2 Nd2A_2 1_555 1_555
C4 C5 1_555 1_555
C5 C8 1_555 1_555
C11 C15 1_555 1_555
C12 C13 1_555 1_555

#END
