
#######################################################################
#
#                 Cambridge Crystallographic Data Centre
#                                CCDC 
#
#######################################################################
#
# If this CIF has been generated from an entry in the Cambridge 
# Structural Database, then it will include bibliographic, chemical, 
# crystal, experimental, refinement or atomic coordinate data resulting 
# from the CCDC's data processing and validation procedures.
#
#######################################################################

data_KOLQEI
_symmetry_cell_setting           monoclinic
_symmetry_space_group_name_H-M   'C 2/c'
_symmetry_Int_Tables_number      15
_space_group_name_Hall           '-C 2yn'
loop_
_symmetry_equiv_pos_site_id
_symmetry_equiv_pos_as_xyz
1 x,y,z
2 1/2+x,1/2+y,z
3 -x,y,1/2-z
4 1/2-x,1/2+y,1/2-z
5 -x,-y,-z
6 1/2-x,1/2-y,-z
7 x,-y,1/2+z
8 1/2+x,1/2-y,1/2+z
_cell_length_a                   21.7769(15)
_cell_length_b                   9.2174(6)
_cell_length_c                   22.3883(15)
_cell_angle_alpha                90
_cell_angle_beta                 101.353(2)
_cell_angle_gamma                90
_cell_volume                     4405.99
loop_
_atom_site_label
_atom_site_type_symbol
_atom_site_fract_x
_atom_site_fract_y
_atom_site_fract_z
Dy1 Dy 0.044718(13) 0.30858(3) 0.423601(12)
Dy2 Dy 0.156573(13) 0.39136(3) 0.176112(11)
O1 O -0.0237(2) 0.2501(6) 0.48755(19)
H1 H -0.0198 0.3028 0.5192
H2 H -0.0607 0.2166 0.4789
O2 O 0.1155(2) 0.1165(5) 0.4414(2)
H3 H 0.1320 0.0848 0.4126
H4 H 0.1160 0.0508 0.4682
O3 O 0.0739(2) 0.3387(5) 0.32941(18)
O4 O 0.1365(2) 0.4338(5) 0.27129(18)
O5 O 0.3271(3) 0.7148(6) 0.3915(2)
O6 O 0.3676(2) 0.6091(6) 0.4785(2)
O7 O 0.1734(2) 0.4948(5) 0.58621(18)
O8 O 0.0945(2) 0.3882(5) 0.52221(18)
O9 O -0.2363(2) -0.4303(4) 0.28568(19)
O10 O -0.2598(2) -0.2248(5) 0.2353(2)
O11 O -0.1013(2) 0.1838(4) 0.3045(2)
O12 O -0.0151(2) 0.1240(5) 0.3733(2)
O13 O 0.0281(2) -0.4248(5) 0.41331(19)
O14 O -0.04956(19) -0.5654(4) 0.37022(17)
N1 N 0.1467(2) 0.4266(5) 0.4294(2)
N2 N -0.1205(2) -0.3507(5) 0.3243(2)
C1 C 0.1681(3) 0.4507(7) 0.3779(3)
C2 C 0.2246(3) 0.5179(7) 0.3783(3)
H5 H 0.2381 0.5351 0.3421
C3 C 0.2612(3) 0.5600(7) 0.4339(3)
C4 C 0.2388(3) 0.5358(7) 0.4873(3)
H6 H 0.2622 0.5626 0.5250
C5 C 0.1803(3) 0.4703(6) 0.4825(2)
C6 C 0.1228(3) 0.4039(7) 0.3210(3)
C7 C 0.3240(3) 0.6339(7) 0.4353(3)
C8 C 0.1474(3) 0.4488(6) 0.5352(3)
C9 C -0.1603(3) -0.2464(6) 0.2987(3)
C10 C -0.1436(3) -0.1034(7) 0.3011(3)
H7 H -0.1718 -0.0338 0.2822
C11 C -0.0843(3) -0.0624(7) 0.3319(3)
C12 C -0.0437(3) -0.1702(7) 0.3586(3)
H8 H -0.0038 -0.1469 0.3798
C13 C -0.0635(3) -0.3125(6) 0.3534(3)
C14 C -0.2245(3) -0.3046(6) 0.2711(3)
C15 C -0.0658(3) 0.0951(6) 0.3368(3)
C16 C -0.0258(3) -0.4402(6) 0.3808(2)
Dy1_2 Dy 0.044718(13) 1.30858(3) 0.423601(12)
Dy1_3 Dy 0.044718(13) -0.69142(3) 0.423601(12)
Dy1C Dy 0.455282(13) -0.19142(3) 0.076399(12)
Dy2C Dy 0.343427(13) 0.89136(3) 0.323888(11)
Dy2F Dy 0.156573(13) 0.60864(3) 0.676112(11)
Dy2B Dy -0.156573(13) -0.60864(3) 0.323888(11)
Dy2A Dy -0.343427(13) -0.10864(3) 0.176112(11)
Dy2B_2 Dy -0.156573(13) 0.39136(3) 0.323888(11)
Dy2A_2 Dy -0.343427(13) 0.89136(3) 0.176112(11)
Dy2B_3 Dy -0.156573(13) 1.39136(3) 0.323888(11)
Dy2C_2 Dy 0.343427(13) -0.10864(3) 0.323888(11)
Dy2E Dy 0.343427(13) 0.10864(3) -0.176112(11)
O1_2 O -0.0237(2) 1.2501(6) 0.48755(19)
H1_2 H -0.0198 1.3028 0.5192
H2_2 H -0.0607 1.2166 0.4789
O2_2 O 0.1155(2) 1.1165(5) 0.4414(2)
H3_2 H 0.1320 1.0848 0.4126
H4_2 H 0.1160 1.0508 0.4682
O3C O 0.4261(2) -0.1613(5) 0.17059(18)
O3_2 O 0.0739(2) 1.3387(5) 0.32941(18)
O4C O 0.3635(2) -0.0662(5) 0.22871(18)
O4C_2 O 0.3635(2) 0.9338(5) 0.22871(18)
O5C O 0.1729(3) 0.2148(6) 0.1085(2)
O6C O 0.1324(2) 0.1091(6) 0.0215(2)
O7C O 0.3266(2) -0.0052(5) -0.08621(18)
O7F O 0.1734(2) 0.5052(5) 0.08621(18)
O7E O 0.3266(2) 1.0052(5) 0.41379(18)
O8C O 0.4055(2) -0.1118(5) -0.02221(18)
O8_2 O 0.0945(2) 1.3882(5) 0.52221(18)
O9_2 O -0.2363(2) 0.5697(4) 0.28568(19)
O9B O 0.2363(2) 0.5697(4) 0.21432(19)
O9A O 0.2637(2) 1.0697(4) 0.28568(19)
O10_2 O -0.2598(2) 0.7752(5) 0.2353(2)
O10A O 0.2402(2) 0.2752(5) 0.2353(2)
O10B O 0.2598(2) 0.7752(5) 0.2647(2)
O11_2 O -0.1013(2) 1.1838(4) 0.3045(2)
O11B O 0.1013(2) 0.1838(4) 0.1955(2)
O11A O 0.3987(2) 0.6838(4) 0.3045(2)
O12_2 O -0.0151(2) 1.1240(5) 0.3733(2)
O13_2 O 0.0281(2) 0.5752(5) 0.41331(19)
O13_3 O 0.0281(2) 1.5752(5) 0.41331(19)
O14_2 O -0.04956(19) 0.4346(4) 0.37022(17)
O14B O 0.04956(19) 0.4346(4) 0.12978(17)
O14_3 O -0.04956(19) 1.4346(4) 0.37022(17)
O14A O 0.45044(19) 0.9346(4) 0.37022(17)
N1C N 0.3533(2) -0.0734(5) 0.0706(2)
N1_2 N 0.1467(2) 1.4266(5) 0.4294(2)
N2_2 N -0.1205(2) 0.6493(5) 0.3243(2)
N2B N 0.1205(2) 0.6493(5) 0.1757(2)
N2A N 0.3795(2) 1.1493(5) 0.3243(2)
C1C C 0.3319(3) -0.0493(7) 0.1221(3)
C2C C 0.2754(3) 0.0179(7) 0.1217(3)
H5C H 0.2619 0.0351 0.1579
C3C C 0.2388(3) 0.0600(7) 0.0661(3)
C4C C 0.2612(3) 0.0358(7) 0.0127(3)
H6C H 0.2378 0.0626 -0.0250
C5C C 0.3197(3) -0.0297(6) 0.0175(2)
C6C C 0.3772(3) -0.0961(7) 0.1790(3)
C7C C 0.1760(3) 0.1339(7) 0.0647(3)
C8C C 0.3526(3) -0.0512(6) -0.0352(3)
C9_2 C -0.1603(3) 0.7536(6) 0.2987(3)
C10_2 C -0.1436(3) 0.8966(7) 0.3011(3)
H7_2 H -0.1718 0.9662 0.2822
C11_2 C -0.0843(3) 0.9376(7) 0.3319(3)
C12_2 C -0.0437(3) 0.8298(7) 0.3586(3)
H8_2 H -0.0038 0.8531 0.3798
C13_2 C -0.0635(3) 0.6875(6) 0.3534(3)
C14_2 C -0.2245(3) 0.6954(6) 0.2711(3)
C15_2 C -0.0658(3) 1.0951(6) 0.3368(3)
C16_2 C -0.0258(3) 0.5598(6) 0.3808(2)
O15 O -0.0976(8) 0.754(2) 0.1722(8)
O16 O 0.1463(19) 0.062(4) 0.3272(13)
O18 O 0.0000 0.5837(15) 0.2500
O17? O 0.1633(19) 0.013(4) 0.3516(13)
loop_
_geom_bond_atom_site_label_1
_geom_bond_atom_site_label_2
_geom_bond_site_symmetry_1
_geom_bond_site_symmetry_2
Dy1 O1 1_555 1_555
Dy2 O4 1_555 1_555
O1 H1 1_555 1_555
H2 O1 1_555 1_555
O2 Dy1 1_555 1_555
H3 O2 1_555 1_555
H4 O2 1_555 1_555
O3 Dy1 1_555 1_555
O4 C6 1_555 1_555
O5 C7 1_555 1_555
O6 C7 1_555 1_555
O7 C8 1_555 1_555
O8 Dy1 1_555 1_555
O9 C14 1_555 1_555
O10 C14 1_555 1_555
O11 C15 1_555 1_555
O12 Dy1 1_555 1_555
O13 C16 1_555 1_555
O14 C16 1_555 1_555
N1 Dy1 1_555 1_555
N2 C9 1_555 1_555
C1 N1 1_555 1_555
C2 C1 1_555 1_555
H5 C2 1_555 1_555
C3 C2 1_555 1_555
C4 C3 1_555 1_555
H6 C4 1_555 1_555
C5 N1 1_555 1_555
C6 O3 1_555 1_555
C7 C3 1_555 1_555
C8 O8 1_555 1_555
C9 C10 1_555 1_555
C10 H7 1_555 1_555
C11 C10 1_555 1_555
C12 C11 1_555 1_555
H8 C12 1_555 1_555
C13 N2 1_555 1_555
C14 C9 1_555 1_555
C15 O12 1_555 1_555
C16 C13 1_555 1_555
Dy1_2 O1_2 1_555 1_555
Dy1_3 O13 1_555 1_555
Dy1C O3C 1_555 1_555
Dy2C O5 1_555 1_555
Dy2F O7 1_555 1_555
Dy2B O9 1_555 1_555
Dy2A O10 1_555 1_555
Dy2B_2 O11 1_555 1_555
Dy2A_2 O10_2 1_555 1_555
Dy2B_3 O11_2 1_555 1_555
Dy2C_2 O4C 1_555 1_555
Dy2E O7C 1_555 1_555
O1_2 H1_2 1_555 1_555
H2_2 O1_2 1_555 1_555
O2_2 Dy1_2 1_555 1_555
H3_2 O2_2 1_555 1_555
H4_2 O2_2 1_555 1_555
O3C C6C 1_555 1_555
O3_2 Dy1_2 1_555 1_555
O4C C6C 1_555 1_555
O4C_2 Dy2C 1_555 1_555
O5C Dy2 1_555 1_555
O6C C7C 1_555 1_555
O7C C8C 1_555 1_555
O7F Dy2 1_555 1_555
O7E Dy2C 1_555 1_555
O8C Dy1C 1_555 1_555
O8_2 Dy1_2 1_555 1_555
O9_2 Dy2B_2 1_555 1_555
O9B Dy2 1_555 1_555
O9A Dy2C 1_555 1_555
O10_2 C14_2 1_555 1_555
O10A Dy2 1_555 1_555
O10B Dy2C 1_555 1_555
O11_2 C15_2 1_555 1_555
O11B Dy2 1_555 1_555
O11A Dy2C 1_555 1_555
O12_2 Dy1_2 1_555 1_555
O13_2 Dy1 1_555 1_555
O13_3 Dy1_2 1_555 1_555
O14_2 Dy1 1_555 1_555
O14B Dy2 1_555 1_555
O14_3 Dy1_2 1_555 1_555
O14A Dy2C 1_555 1_555
N1C Dy1C 1_555 1_555
N1_2 Dy1_2 1_555 1_555
N2_2 Dy2B_2 1_555 1_555
N2B Dy2 1_555 1_555
N2A Dy2C 1_555 1_555
C1C N1C 1_555 1_555
C2C C1C 1_555 1_555
H5C C2C 1_555 1_555
C3C C2C 1_555 1_555
C4C C3C 1_555 1_555
H6C C4C 1_555 1_555
C5C N1C 1_555 1_555
C6C C1C 1_555 1_555
C7C O5C 1_555 1_555
C8C O8C 1_555 1_555
C9_2 N2_2 1_555 1_555
C10_2 C9_2 1_555 1_555
H7_2 C10_2 1_555 1_555
C11_2 C10_2 1_555 1_555
C12_2 C11_2 1_555 1_555
H8_2 C12_2 1_555 1_555
C13_2 N2_2 1_555 1_555
C14_2 O9_2 1_555 1_555
C15_2 O12_2 1_555 1_555
C16_2 O13_2 1_555 1_555
O14 Dy1_3 1_555 1_555
O14 Dy2B 1_555 1_555
N2 Dy2B 1_555 1_555
C1 C6 1_555 1_555
C4 C5 1_555 1_555
C5 C8 1_555 1_555
C11 C15 1_555 1_555
C12 C13 1_555 1_555
Dy2B_2 O14_2 1_555 1_555
Dy2B_3 O14_3 1_555 1_555
O14_2 C16_2 1_555 1_555
C3C C7C 1_555 1_555
C4C C5C 1_555 1_555
C5C C8C 1_555 1_555
C9_2 C14_2 1_555 1_555
C11_2 C15_2 1_555 1_555
C12_2 C13_2 1_555 1_555
C13_2 C16_2 1_555 1_555

#END
