
#######################################################################
#
#                 Cambridge Crystallographic Data Centre
#                                CCDC 
#
#######################################################################
#
# If this CIF has been generated from an entry in the Cambridge 
# Structural Database, then it will include bibliographic, chemical, 
# crystal, experimental, refinement or atomic coordinate data resulting 
# from the CCDC's data processing and validation procedures.
#
#######################################################################

data_KOLWUE
_symmetry_cell_setting           orthorhombic
_symmetry_space_group_name_H-M   'P b c a'
_symmetry_Int_Tables_number      61
_space_group_name_Hall           '-P 2ac 2ab'
loop_
_symmetry_equiv_pos_site_id
_symmetry_equiv_pos_as_xyz
1 x,y,z
2 1/2-x,-y,1/2+z
3 -x,1/2+y,1/2-z
4 1/2+x,1/2-y,-z
5 -x,-y,-z
6 1/2+x,y,1/2-z
7 x,1/2-y,1/2+z
8 1/2-x,1/2+y,z
_cell_length_a                   14.300(3)
_cell_length_b                   13.041(3)
_cell_length_c                   18.230(4)
_cell_angle_alpha                90
_cell_angle_beta                 90
_cell_angle_gamma                90
_cell_volume                     3399.65
loop_
_atom_site_label
_atom_site_type_symbol
_atom_site_fract_x
_atom_site_fract_y
_atom_site_fract_z
Cd1 Cd 0.06042(3) 0.49452(3) 0.17910(2)
Cd2 Cd 0.03264(3) 0.21663(3) 0.12888(2)
Cd3 Cd 0.25689(3) 0.25123(3) -0.06673(2)
O1 O 0.0480(3) 0.3811(3) 0.08303(19)
O2 O 0.1295(3) 0.2704(3) 0.0179(2)
O3 O 0.0424(3) 0.6092(3) 0.0852(2)
O4 O 0.1168(3) 0.7244(3) 0.0171(2)
O5 O 0.0544(3) 0.6139(3) 0.2789(2)
O6 O 0.1285(3) 0.7351(3) 0.3398(2)
O7 O 0.4089(3) 0.8207(3) 0.2289(2)
O8 O 0.3325(3) 0.8040(3) 0.3334(2)
O9 O -0.0881(4) 0.4605(5) 0.2086(4)
O10 O -0.0031(5) 0.0851(5) 0.0553(3)
N1 N 0.2310(3) 0.4162(3) -0.0507(2)
N2 N 0.2263(3) 0.5863(3) -0.0481(2)
N3 N 0.2032(3) 0.5617(4) 0.1959(2)
N4 N 0.3394(3) 0.6421(4) 0.1761(2)
C1 C 0.2665(4) 0.5026(4) -0.0767(3)
H1 H 0.3143 0.5050 -0.1113
C2 C 0.1613(4) 0.4458(4) -0.0031(3)
C3 C 0.1585(4) 0.5518(4) -0.0014(3)
C4 C 0.1096(4) 0.3622(4) 0.0344(3)
C5 C 0.1011(4) 0.6333(4) 0.0372(3)
C6 C 0.2821(4) 0.5659(4) 0.1563(3)
H2 H 0.2957 0.5202 0.1187
C7 C 0.2108(4) 0.6403(4) 0.2460(3)
C8 C 0.2961(4) 0.6901(4) 0.2343(3)
C9 C 0.1280(3) 0.6645(4) 0.2911(3)
C10 C 0.3480(4) 0.7781(4) 0.2687(3)
H5 H -0.116(6) 0.496(6) 0.249(4)
H6 H -0.109(7) 0.394(4) 0.192(5)
H7 H -0.007(7) 0.129(8) 0.011(5)
H8 H 0.014(7) 0.011(8) 0.056(5)
Cd1G Cd 0.43958(3) 0.99452(3) 0.17910(2)
Cd2B Cd -0.03264(3) 0.71663(3) 0.37112(2)
Cd2G Cd 0.46736(3) 0.71663(3) 0.12888(2)
Cd3G Cd 0.24311(3) 0.75123(3) -0.06673(2)
Cd3A Cd 0.24311(3) 0.74877(3) 0.43327(2)
O4G O 0.3832(3) 0.2244(3) 0.0171(2)
O5B O -0.0544(3) 0.1139(3) 0.2211(2)
O6B O -0.1285(3) 0.2351(3) 0.1602(2)
O6A O 0.3715(3) 0.2649(3) -0.1602(2)
O7G O 0.0911(3) 0.3207(3) 0.2289(2)
O8A O 0.1675(3) 0.1960(3) -0.1666(2)
N2G N 0.2737(3) 0.0863(3) -0.0481(2)
N4G N 0.1606(3) 0.1421(4) 0.1761(2)
O11 O 0.0177(6) 0.8746(5) 0.1034(5)
H3 H -0.024(7) 0.875(8) 0.137(5)
H4 H 0.050(7) 0.822(8) 0.090(6)
loop_
_geom_bond_atom_site_label_1
_geom_bond_atom_site_label_2
_geom_bond_site_symmetry_1
_geom_bond_site_symmetry_2
Cd1 O1 1_555 1_555
Cd2 O1 1_555 1_555
Cd3 O2 1_555 1_555
O1 C4 1_555 1_555
O2 Cd2 1_555 1_555
O3 Cd1 1_555 1_555
O4 C5 1_555 1_555
O5 Cd1 1_555 1_555
O6 C9 1_555 1_555
O7 C10 1_555 1_555
O8 C10 1_555 1_555
O9 Cd1 1_555 1_555
O10 Cd2 1_555 1_555
O11 H3 1_555 1_555
N1 Cd3 1_555 1_555
N2 C1 1_555 1_555
N3 Cd1 1_555 1_555
N4 C6 1_555 1_555
C1 N1 1_555 1_555
H1 C1 1_555 1_555
C2 N1 1_555 1_555
C3 N2 1_555 1_555
C4 O2 1_555 1_555
C5 O3 1_555 1_555
C6 N3 1_555 1_555
H2 C6 1_555 1_555
C7 N3 1_555 1_555
C8 N4 1_555 1_555
C9 O5 1_555 1_555
C10 C8 1_555 1_555
H4 O11 1_555 1_555
H5 O9 1_555 1_555
H6 O9 1_555 1_555
H7 O10 1_555 1_555
H8 O10 1_555 1_555
Cd1G O7 1_555 1_555
Cd2B O5 1_555 1_555
Cd2G O7 1_555 1_555
Cd3G O4 1_555 1_555
Cd3A O6 1_555 1_555
O4G Cd3 1_555 1_555
O5B Cd2 1_555 1_555
O6B Cd2 1_555 1_555
O6A Cd3 1_555 1_555
O7G Cd1 1_555 1_555
O8A Cd3 1_555 1_555
N2G Cd3 1_555 1_555
N4G Cd2 1_555 1_555
Cd2 O7G 1_555 1_555
O6 Cd2B 1_555 1_555
O8 Cd3A 1_555 1_555
N2 Cd3G 1_555 1_555
N4 Cd2G 1_555 1_555
C2 C3 1_555 1_555
C2 C4 1_555 1_555
C3 C5 1_555 1_555
C7 C8 1_555 1_555
C7 C9 1_555 1_555

#END
