
#######################################################################
#
#                 Cambridge Crystallographic Data Centre
#                                CCDC 
#
#######################################################################
#
# If this CIF has been generated from an entry in the Cambridge 
# Structural Database, then it will include bibliographic, chemical, 
# crystal, experimental, refinement or atomic coordinate data resulting 
# from the CCDC's data processing and validation procedures.
#
#######################################################################

data_KOMCOG
_symmetry_cell_setting           orthorhombic
_symmetry_space_group_name_H-M   'P n n a'
_symmetry_Int_Tables_number      52
_space_group_name_Hall           '-P 2a 2bc'
loop_
_symmetry_equiv_pos_site_id
_symmetry_equiv_pos_as_xyz
1 x,y,z
2 1/2-x,-y,z
3 1/2-x,1/2+y,1/2-z
4 x,1/2-y,1/2-z
5 -x,-y,-z
6 1/2+x,y,-z
7 1/2+x,1/2-y,1/2+z
8 -x,1/2+y,1/2+z
_cell_length_a                   28.470(7)
_cell_length_b                   27.784(7)
_cell_length_c                   9.255(2)
_cell_angle_alpha                90
_cell_angle_beta                 90
_cell_angle_gamma                90
_cell_volume                     7320.8
loop_
_atom_site_label
_atom_site_type_symbol
_atom_site_fract_x
_atom_site_fract_y
_atom_site_fract_z
N8 N 0.5000 0.5000 0.5000
O1 O 0.5336(2) 0.5095(3) 0.5668(8)
O2 O 0.4979(4) 0.4690(4) 0.4021(10)
O3 O 0.4646(3) 0.5281(4) 0.5036(15)
O1D O 0.4664(2) 0.4905(3) 0.4332(8)
O2D O 0.5021(4) 0.5310(4) 0.5979(10)
O3D O 0.5354(3) 0.4719(4) 0.4964(15)
Cl1 Cl 0.31677(7) 0.49924(7) -0.1071(2)
Zn1 Zn 0.364971(17) 0.492063(18) 0.08132(6)
C1 C 0.45563(15) 0.54215(16) 0.1372(5)
H1 H 0.4587 0.5281 0.2279
C2 C 0.43067(18) 0.5597(2) -0.0717(5)
H2 H 0.4129 0.5600 -0.1560
C3 C 0.46848(17) 0.5865(2) -0.0478(5)
H3 H 0.4816 0.6090 -0.1101
C4 C 0.52336(13) 0.59572(15) 0.1638(4)
C5 C 0.55238(14) 0.56772(15) 0.2460(5)
H4 H 0.5481 0.5345 0.2482
C6 C 0.58757(16) 0.58826(16) 0.3249(5)
H5 H 0.6068 0.5688 0.3815
C7 C 0.59518(13) 0.63728(14) 0.3222(4)
C8 C 0.56616(14) 0.66502(14) 0.2353(4)
H6 H 0.5712 0.6980 0.2292
C9 C 0.53022(14) 0.64452(15) 0.1581(5)
H7 H 0.5106 0.6637 0.1021
C10 C 0.79662(14) 0.54090(14) 0.7265(4)
H8 H 0.7771 0.5476 0.8046
C11 C 0.8539(2) 0.5158(3) 0.5991(6)
H9 H 0.8822 0.5016 0.5722
C12 C 0.82428(18) 0.5379(2) 0.5103(6)
H10 H 0.8278 0.5417 0.4110
C13 C 0.74830(13) 0.58109(16) 0.5414(5)
C14 C 0.72486(15) 0.61114(16) 0.6368(5)
H11 H 0.7351 0.6142 0.7318
C15 C 0.68642(15) 0.63623(18) 0.5893(4)
H12 H 0.6705 0.6562 0.6533
C16 C 0.67093(14) 0.63244(15) 0.4485(4)
C17 C 0.69476(17) 0.60345(17) 0.3573(5)
H13 H 0.6851 0.6011 0.2616
C18 C 0.73307(18) 0.5772(2) 0.4032(5)
H14 H 0.7485 0.5568 0.3392
C19 C 0.63104(15) 0.88573(15) 0.5653(4)
H15 H 0.6552 0.8850 0.4975
C20 C 0.58030(15) 0.91025(16) 0.7180(5)
H16 H 0.5627 0.9305 0.7770
C21 C 0.57569(15) 0.86260(16) 0.7099(5)
H17 H 0.5543 0.8437 0.7605
C22 C 0.61483(14) 0.79852(14) 0.5645(4)
C23 C 0.57733(15) 0.76714(15) 0.5665(4)
H18 H 0.5485 0.7769 0.6036
C24 C 0.58276(14) 0.72131(14) 0.5134(4)
H19 H 0.5576 0.7000 0.5154
C25 C 0.62521(14) 0.70679(15) 0.4575(5)
C26 C 0.66261(16) 0.73837(16) 0.4557(5)
H20 H 0.6913 0.7287 0.4176
C27 C 0.65756(15) 0.78392(16) 0.5098(5)
H21 H 0.6829 0.8050 0.5096
N1 N 0.42190(12) 0.53183(13) 0.0458(4)
N2 N 0.48420(12) 0.57435(14) 0.0857(4)
N3 N 0.61517(12) 0.92463(12) 0.6253(4)
N4 N 0.60846(12) 0.84696(12) 0.6128(3)
N5 N 0.78783(12) 0.55414(13) 0.5918(3)
N6 N 0.83619(13) 0.51715(13) 0.7361(4)
N7 N 0.63094(12) 0.65928(13) 0.4029(4)
Zn1E Zn 0.864971(17) 0.492063(18) 0.91868(6)
Zn1G Zn 0.635029(17) 0.992063(18) 0.58132(6)
N3G N 0.38483(12) 0.42463(12) 0.1253(4)
N6E N 0.33619(13) 0.51715(13) 0.2639(4)
loop_
_geom_bond_atom_site_label_1
_geom_bond_atom_site_label_2
_geom_bond_site_symmetry_1
_geom_bond_site_symmetry_2
Cl1 Zn1 1_555 1_555
Zn1 N1 1_555 1_555
C1 H1 1_555 1_555
C2 H2 1_555 1_555
C3 C2 1_555 1_555
H3 C3 1_555 1_555
C4 C5 1_555 1_555
C5 H4 1_555 1_555
C6 C5 1_555 1_555
H5 C6 1_555 1_555
C7 C6 1_555 1_555
C8 C7 1_555 1_555
H6 C8 1_555 1_555
C9 C4 1_555 1_555
H7 C9 1_555 1_555
C10 H8 1_555 1_555
C11 H9 1_555 1_555
C12 C11 1_555 1_555
H10 C12 1_555 1_555
C13 C14 1_555 1_555
C14 H11 1_555 1_555
C15 C14 1_555 1_555
H12 C15 1_555 1_555
C16 C15 1_555 1_555
C17 C16 1_555 1_555
H13 C17 1_555 1_555
C18 C13 1_555 1_555
H14 C18 1_555 1_555
C19 H15 1_555 1_555
C20 H16 1_555 1_555
C21 C20 1_555 1_555
H17 C21 1_555 1_555
C22 C23 1_555 1_555
C23 H18 1_555 1_555
C24 C23 1_555 1_555
H19 C24 1_555 1_555
C25 C24 1_555 1_555
C26 C25 1_555 1_555
H20 C26 1_555 1_555
C27 C22 1_555 1_555
H21 C27 1_555 1_555
N1 C1 1_555 1_555
N2 C1 1_555 1_555
N3 C19 1_555 1_555
N4 C19 1_555 1_555
N5 C10 1_555 1_555
N6 C10 1_555 1_555
N7 C7 1_555 1_555
N8 O1 1_555 1_555
O1 O2D 1_555 1_555
O2 N8 1_555 1_555
O3 N8 1_555 1_555
Zn1E N6 1_555 1_555
Zn1G N3 1_555 1_555
N3G Zn1 1_555 1_555
N6E Zn1 1_555 1_555
O1D N8 1_555 1_555
O2D N8 1_555 1_555
O3D N8 1_555 1_555
C2 N1 1_555 1_555
C3 N2 1_555 1_555
C4 N2 1_555 1_555
C8 C9 1_555 1_555
C11 N6 1_555 1_555
C12 N5 1_555 1_555
C13 N5 1_555 1_555
C16 N7 1_555 1_555
C17 C18 1_555 1_555
C20 N3 1_555 1_555
C21 N4 1_555 1_555
C22 N4 1_555 1_555
C25 N7 1_555 1_555
C26 C27 1_555 1_555
O1 O3D 1_555 1_555
O2 O1D 1_555 1_555
O2 O3D 1_555 1_555
O3 O1D 1_555 1_555
O3 O2D 1_555 1_555

#END
