
#######################################################################
#
#                 Cambridge Crystallographic Data Centre
#                                CCDC 
#
#######################################################################
#
# If this CIF has been generated from an entry in the Cambridge 
# Structural Database, then it will include bibliographic, chemical, 
# crystal, experimental, refinement or atomic coordinate data resulting 
# from the CCDC's data processing and validation procedures.
#
#######################################################################

data_KOMFOI
_symmetry_cell_setting           monoclinic
_symmetry_space_group_name_H-M   'C 2/c'
_symmetry_Int_Tables_number      15
_space_group_name_Hall           '-C 2yn'
loop_
_symmetry_equiv_pos_site_id
_symmetry_equiv_pos_as_xyz
1 x,y,z
2 1/2+x,1/2+y,z
3 -x,y,1/2-z
4 1/2-x,1/2+y,1/2-z
5 -x,-y,-z
6 1/2-x,1/2-y,-z
7 x,-y,1/2+z
8 1/2+x,1/2-y,1/2+z
_cell_length_a                   10.964(3)
_cell_length_b                   12.672(3)
_cell_length_c                   12.837(3)
_cell_angle_alpha                90
_cell_angle_beta                 91.011(5)
_cell_angle_gamma                90
_cell_volume                     1783.24
loop_
_atom_site_label
_atom_site_type_symbol
_atom_site_fract_x
_atom_site_fract_y
_atom_site_fract_z
O1 O 0.0000 0.55550(19) 0.2500
H1 H 0.048(3) 0.595(3) 0.213(3)
H1B H -0.048(3) 0.595(3) 0.287(3)
Cu1 Cu 0.2500 0.2500 0.5000
N1 N 0.26921(17) 0.29849(14) 0.35147(14)
N2 N 0.35728(19) 0.25410(13) 0.28779(16)
N3 N 0.26444(17) 0.38152(14) 0.20568(13)
N4 N 0.23295(17) 0.45538(13) 0.13126(13)
N5 N 0.13317(17) 0.53880(14) 0.00915(14)
N6 N 0.22760(16) 0.60155(14) 0.04735(13)
C1 C 0.2145(2) 0.37430(16) 0.30170(16)
H2 H 0.1509 0.4172 0.3276
C2 C 0.3518(2) 0.30586(18) 0.20053(17)
H3 H 0.4014 0.2928 0.1420
C3 C 0.1393(2) 0.45070(17) 0.06073(17)
H4 H 0.0864 0.3921 0.0507
C4 C 0.2867(2) 0.55120(16) 0.12043(16)
H5 H 0.3551 0.5768 0.1593
S1 S -0.14697(18) 0.10821(17) 0.38436(11)
C5 C -0.0366(5) 0.1812(4) 0.4336(4)
N7 N 0.0367(5) 0.2328(4) 0.4704(5)
Cu1F Cu 0.2500 0.7500 0.0000
Cu1F_2 Cu 0.2500 -0.2500 1.0000
N1E N 0.23079(17) 0.20151(14) 0.64853(14)
N2E N 0.14272(19) 0.24590(13) 0.71221(16)
N3E N 0.23556(17) 0.11848(14) 0.79432(13)
N4E N 0.26705(17) 0.04462(13) 0.86874(13)
N5E N 0.36683(17) -0.03880(14) 0.99085(14)
N6E N 0.27240(16) -0.10155(14) 0.95265(13)
N6F N 0.22760(16) 0.39845(14) 0.54735(13)
N6C N 0.27240(16) 0.10155(14) 0.45265(13)
C1E C 0.2855(2) 0.12570(16) 0.69830(16)
H2E H 0.3491 0.0828 0.6724
C2E C 0.1482(2) 0.19414(18) 0.79947(17)
H3E H 0.0986 0.2072 0.8580
C3E C 0.3607(2) 0.04930(17) 0.93927(17)
H4E H 0.4136 0.1079 0.9493
C4E C 0.2133(2) -0.05120(16) 0.87957(16)
H5E H 0.1449 -0.0768 0.8407
S1E S 0.64697(18) 0.39179(17) 0.61564(11)
C5E C 0.5366(5) 0.3188(4) 0.5664(4)
N7E N 0.4633(5) 0.2672(4) 0.5296(5)
B1? B -0.0788(8) 0.1671(7) 0.4011(7)
F1? F 0.0153(8) 0.1868(9) 0.4692(7)
F2? F -0.0642(7) 0.2372(5) 0.3190(5)
F3? F -0.0755(7) 0.0679(4) 0.3584(6)
F4? F -0.1888(4) 0.1906(4) 0.4461(4)
loop_
_geom_bond_atom_site_label_1
_geom_bond_atom_site_label_2
_geom_bond_site_symmetry_1
_geom_bond_site_symmetry_2
Cu1 N1 1_555 1_555
O1 H1 1_555 1_555
N1 N2 1_555 1_555
N2 C2 1_555 1_555
N3 N4 1_555 1_555
N4 C3 1_555 1_555
N5 N6 1_555 1_555
N6 C4 1_555 1_555
C1 N1 1_555 1_555
H2 C1 1_555 1_555
C2 N3 1_555 1_555
H3 C2 1_555 1_555
C3 N5 1_555 1_555
H4 C3 1_555 1_555
C4 N4 1_555 1_555
H5 C4 1_555 1_555
S1 C5 1_555 1_555
C5 N7 1_555 1_555
N7 Cu1 1_555 1_555
Cu1F N6 1_555 1_555
Cu1F_2 N6E 1_555 1_555
H1B O1 1_555 1_555
N1E Cu1 1_555 1_555
N2E N1E 1_555 1_555
N3E N4E 1_555 1_555
N4E C3E 1_555 1_555
N5E N6E 1_555 1_555
N6E C4E 1_555 1_555
N6F Cu1 1_555 1_555
N6C Cu1 1_555 1_555
C1E N1E 1_555 1_555
H2E C1E 1_555 1_555
C2E N2E 1_555 1_555
H3E C2E 1_555 1_555
C3E N5E 1_555 1_555
H4E C3E 1_555 1_555
C4E N4E 1_555 1_555
H5E C4E 1_555 1_555
S1E C5E 1_555 1_555
C5E N7E 1_555 1_555
N7E Cu1 1_555 1_555
N3 C1 1_555 1_555
N3E C1E 1_555 1_555
N3E C2E 1_555 1_555

#END
