
#######################################################################
#
#                 Cambridge Crystallographic Data Centre
#                                CCDC 
#
#######################################################################
#
# If this CIF has been generated from an entry in the Cambridge 
# Structural Database, then it will include bibliographic, chemical, 
# crystal, experimental, refinement or atomic coordinate data resulting 
# from the CCDC's data processing and validation procedures.
#
#######################################################################

data_KOMHEA
_symmetry_cell_setting           monoclinic
_symmetry_space_group_name_H-M   'C 2/c'
_symmetry_Int_Tables_number      15
_space_group_name_Hall           '-C 2yn'
loop_
_symmetry_equiv_pos_site_id
_symmetry_equiv_pos_as_xyz
1 x,y,z
2 1/2+x,1/2+y,z
3 -x,y,1/2-z
4 1/2-x,1/2+y,1/2-z
5 -x,-y,-z
6 1/2-x,1/2-y,-z
7 x,-y,1/2+z
8 1/2+x,1/2-y,1/2+z
_cell_length_a                   22.267(8)
_cell_length_b                   8.262(3)
_cell_length_c                   9.323(4)
_cell_angle_alpha                90
_cell_angle_beta                 111.271(6)
_cell_angle_gamma                90
_cell_volume                     1598.31
loop_
_atom_site_label
_atom_site_type_symbol
_atom_site_fract_x
_atom_site_fract_y
_atom_site_fract_z
Zn1 Zn 0.17255(6) 0.23370(16) 0.03410(15)
N1 N 0.1869(4) 0.1393(12) -0.1477(11)
N2 N 0.2501(4) 0.1192(12) -0.1379(11)
N3 N 0.1897(4) -0.0530(12) -0.3123(10)
N4 N 0.0883(5) 0.0128(18) -0.2946(15)
H1 H 0.0682 -0.0570 -0.3638
H2 H 0.0674 0.0710 -0.2519
O1 O 0.0486(5) 0.1872(15) -0.0698(11)
O2 O 0.1084(4) 0.3969(13) 0.0292(13)
C1 C 0.1526(5) 0.0312(14) -0.2532(12)
C2 C 0.2483(5) 0.0073(15) -0.2375(12)
H3 H 0.2847 -0.0276 -0.2550
C3 C 0.0536(6) 0.3274(18) -0.0256(16)
C4 C -0.0045(7) 0.4173(19) -0.037(2)
H4 H -0.0289 0.3518 0.0096
H5 H -0.0308 0.4294 -0.1448
Zn1E Zn 0.32745(6) 0.26630(16) -0.03410(15)
Zn1F Zn 0.17255(6) -0.23370(16) -0.46590(15)
Zn1D Zn -0.17255(6) 0.76630(16) -0.03410(15)
Zn1C Zn 0.32745(6) 0.73370(16) 0.46590(15)
N1E N 0.3131(4) 0.3607(12) 0.1477(11)
N2E N 0.2499(4) 0.3808(12) 0.1379(11)
N3E N 0.3103(4) 0.5530(12) 0.3123(10)
N3F N 0.1897(4) 0.0530(12) 0.1877(10)
N3C N 0.3103(4) 0.4470(12) -0.1877(10)
N4E N 0.4117(5) 0.4872(18) 0.2946(15)
H1E H 0.4318 0.5570 0.3638
H2E H 0.4326 0.4290 0.2519
O1D O -0.0486(5) 0.8128(15) 0.0698(11)
O2D O -0.1084(4) 0.6031(13) -0.0292(13)
O2E O 0.3916(4) 0.1031(13) -0.0292(13)
C1E C 0.3474(5) 0.4688(14) 0.2532(12)
C2E C 0.2517(5) 0.4927(15) 0.2375(12)
H3E H 0.2153 0.5276 0.2550
C3D C -0.0536(6) 0.6726(18) 0.0256(16)
C4D C 0.0045(7) 0.5827(19) 0.037(2)
H4D H 0.0289 0.6482 -0.0096
H5D H 0.0308 0.5706 0.1448
loop_
_geom_bond_atom_site_label_1
_geom_bond_atom_site_label_2
_geom_bond_site_symmetry_1
_geom_bond_site_symmetry_2
Zn1 N1 1_555 1_555
N1 N2 1_555 1_555
N2 C2 1_555 1_555
N3 C1 1_555 1_555
N4 H1 1_555 1_555
H2 N4 1_555 1_555
O1 C3 1_555 1_555
O2 Zn1 1_555 1_555
C1 N1 1_555 1_555
C2 N3 1_555 1_555
H3 C2 1_555 1_555
C3 O2 1_555 1_555
C4 C3 1_555 1_555
H4 C4 1_555 1_555
H5 C4 1_555 1_555
Zn1E N2 1_555 1_555
Zn1F N3 1_555 1_555
Zn1D O2D 1_555 1_555
Zn1C N3E 1_555 1_555
N1E Zn1E 1_555 1_555
N2E Zn1 1_555 1_555
N3E C1E 1_555 1_555
N3F Zn1 1_555 1_555
N3C Zn1E 1_555 1_555
N4E H1E 1_555 1_555
H2E N4E 1_555 1_555
O1D C3D 1_555 1_555
O2D C3D 1_555 1_555
O2E Zn1E 1_555 1_555
C1E N1E 1_555 1_555
C2E N2E 1_555 1_555
H3E C2E 1_555 1_555
C3D C4D 1_555 1_555
C4D C4 1_555 1_555
H4D C4D 1_555 1_555
H5D C4D 1_555 1_555
N4 C1 1_555 1_555
N1E N2E 1_555 1_555
N3E C2E 1_555 1_555
N4E C1E 1_555 1_555

#END
