
#######################################################################
#
#                 Cambridge Crystallographic Data Centre
#                                CCDC 
#
#######################################################################
#
# If this CIF has been generated from an entry in the Cambridge 
# Structural Database, then it will include bibliographic, chemical, 
# crystal, experimental, refinement or atomic coordinate data resulting 
# from the CCDC's data processing and validation procedures.
#
#######################################################################

data_KOMJIG
_symmetry_cell_setting           orthorhombic
_symmetry_space_group_name_H-M   'P b a m'
_symmetry_Int_Tables_number      55
_space_group_name_Hall           '-P 2 2ab'
loop_
_symmetry_equiv_pos_site_id
_symmetry_equiv_pos_as_xyz
1 x,y,z
2 -x,-y,z
3 1/2-x,1/2+y,-z
4 1/2+x,1/2-y,-z
5 -x,-y,-z
6 x,y,-z
7 1/2+x,1/2-y,z
8 1/2-x,1/2+y,z
_cell_length_a                   8.9161(18)
_cell_length_b                   16.499(3)
_cell_length_c                   7.2597(15)
_cell_angle_alpha                90
_cell_angle_beta                 90
_cell_angle_gamma                90
_cell_volume                     1067.95
loop_
_atom_site_label
_atom_site_type_symbol
_atom_site_fract_x
_atom_site_fract_y
_atom_site_fract_z
H1 H 0.102(5) 0.378(2) 0.089(6)
Eu1 Eu -0.01171(2) 0.118400(12) 0.5000
K1 K 0.02978(15) 0.21552(8) 0.0000
C1 C 0.0000 0.0000 0.1077(6)
C2 C 0.2789(4) 0.22920(19) 0.3940(4)
C3 C 0.2891(5) -0.0242(3) 0.5000
C4 C 0.4301(6) 0.0251(3) 0.5000
H2 H 0.4305 0.0598 0.3921
H3 H 0.4305 0.0598 0.6079
O1 O -0.0241(3) 0.06688(15) 0.1853(4)
O2 O 0.1855(3) 0.18398(15) 0.3167(3)
O3 O 0.3739(3) 0.27323(16) 0.3173(4)
O4 O 0.1635(4) 0.0127(2) 0.5000
O5 O 0.2897(5) -0.0988(2) 0.5000
O6 O 0.1543(13) 0.3710(6) 0.0000
H1E H 0.102(5) 0.378(2) -0.089(6)
H1D H -0.102(5) -0.378(2) -0.089(6)
H1A H -0.102(5) -0.378(2) 0.089(6)
Eu1_2 Eu -0.01171(2) 0.118400(12) -0.5000
Eu1F Eu 0.48829(2) 0.381600(12) 0.5000
Eu1D Eu 0.01171(2) -0.118400(12) 0.5000
Eu1D_2 Eu 0.01171(2) -0.118400(12) -0.5000
Eu1_3 Eu 0.98829(2) 0.118400(12) 0.5000
Eu1D_3 Eu 1.01171(2) -0.118400(12) 0.5000
Eu1F_2 Eu -0.51171(2) 0.381600(12) 0.5000
K1D K -0.02978(15) -0.21552(8) 0.0000
K1F K 0.52978(15) 0.28448(8) 0.0000
K1_2 K 0.02978(15) 0.21552(8) 1.0000
K1F_2 K 0.52978(15) 0.28448(8) 1.0000
K1F_3 K -0.47022(15) 0.28448(8) 0.0000
K1F_4 K -0.47022(15) 0.28448(8) 1.0000
C1E C 0.0000 0.0000 -0.1077(6)
C2E C 0.2789(4) 0.22920(19) 0.6060(4)
C2F C -0.2211(4) 0.27080(19) 0.3940(4)
C2C C -0.2211(4) 0.27080(19) 0.6060(4)
C3D C 0.7109(5) 0.0242(3) 0.5000
C4D C 0.5699(6) -0.0251(3) 0.5000
H2D H 0.5695 -0.0598 0.6079
H2A H 0.5695 -0.0598 0.3921
O1E O -0.0241(3) 0.06688(15) -0.1853(4)
O1D O 0.0241(3) -0.06688(15) -0.1853(4)
O1A O 0.0241(3) -0.06688(15) 0.1853(4)
O1E_2 O -0.0241(3) 0.06688(15) 0.8147(4)
O1_2 O -0.0241(3) 0.06688(15) -0.8147(4)
O2E O 0.1855(3) 0.18398(15) 0.6833(3)
O2F O -0.3145(3) 0.31602(15) 0.3167(3)
O2C O -0.3145(3) 0.31602(15) 0.6833(3)
O2E_2 O 0.1855(3) 0.18398(15) -0.3167(3)
O2_2 O 0.1855(3) 0.18398(15) -0.6833(3)
O2D O -0.1855(3) -0.18398(15) -0.3167(3)
O2A O -0.1855(3) -0.18398(15) 0.3167(3)
O3E O 0.3739(3) 0.27323(16) 0.6827(4)
O3F O -0.1261(3) 0.22677(16) 0.3173(4)
O3C O -0.1261(3) 0.22677(16) 0.6827(4)
O3C_2 O -0.1261(3) 0.22677(16) -0.3173(4)
O3F_2 O -0.1261(3) 0.22677(16) -0.6827(4)
O3G O 0.1261(3) -0.22677(16) 0.3173(4)
O3B O 0.1261(3) -0.22677(16) -0.3173(4)
O4D O 0.8365(4) -0.0127(2) 0.5000
O4D_2 O -0.1635(4) -0.0127(2) 0.5000
O4_2 O 0.1635(4) 0.0127(2) -0.5000
O4D_3 O -0.1635(4) -0.0127(2) -0.5000
O5D O 0.7103(5) 0.0988(2) 0.5000
O5D_2 O -0.2897(5) 0.0988(2) 0.5000
O5D_3 O -0.2897(5) 0.0988(2) -0.5000
O6D O -0.1543(13) -0.3710(6) 0.0000
O7 O 0.3389(16) 0.0550(10) 0.0000
loop_
_geom_bond_atom_site_label_1
_geom_bond_atom_site_label_2
_geom_bond_site_symmetry_1
_geom_bond_site_symmetry_2
H1 O6 1_555 1_555
Eu1 O1 1_555 1_555
K1 O1 1_555 1_555
C1 O1 1_555 1_555
C2 O2 1_555 1_555
C3 C4 1_555 1_555
C4 H2 1_555 1_555
H3 C4 1_555 1_555
O2 Eu1 1_555 1_555
O3 C2 1_555 1_555
O4 Eu1 1_555 1_555
O5 C3 1_555 1_555
O6 K1 1_555 1_555
H1E O6 1_555 1_555
H1D O6D 1_555 1_555
H1A O6D 1_555 1_555
Eu1_2 O1E 1_555 1_555
Eu1F O3 1_555 1_555
Eu1D O4 1_555 1_555
Eu1D_2 O1D 1_555 1_555
Eu1_3 O4D 1_555 1_555
Eu1D_3 O4D 1_555 1_555
Eu1F_2 O2F 1_555 1_555
K1D O1D 1_555 1_555
K1F O3 1_555 1_555
K1_2 O1E_2 1_555 1_555
K1F_2 O3E 1_555 1_555
K1F_3 O2F 1_555 1_555
K1F_4 O2C 1_555 1_555
C1E C1 1_555 1_555
C2E C2 1_555 1_555
C2F C2C 1_555 1_555
C2C O2C 1_555 1_555
C3D C4D 1_555 1_555
C4D C4 1_555 1_555
H2D C4D 1_555 1_555
H2A C4D 1_555 1_555
O1E K1 1_555 1_555
O1D C1E 1_555 1_555
O1A C1 1_555 1_555
O1E_2 Eu1 1_555 1_555
O1_2 Eu1_2 1_555 1_555
O2E Eu1 1_555 1_555
O2F C2F 1_555 1_555
O2C Eu1F_2 1_555 1_555
O2E_2 K1 1_555 1_555
O2_2 Eu1_2 1_555 1_555
O2D Eu1D_2 1_555 1_555
O2A Eu1D 1_555 1_555
O3E Eu1F 1_555 1_555
O3F Eu1 1_555 1_555
O3C Eu1 1_555 1_555
O3C_2 K1 1_555 1_555
O3F_2 Eu1_2 1_555 1_555
O3G Eu1D 1_555 1_555
O3B Eu1D_2 1_555 1_555
O4D C3D 1_555 1_555
O4D_2 Eu1 1_555 1_555
O4_2 Eu1_2 1_555 1_555
O4D_3 Eu1_2 1_555 1_555
O5D Eu1_3 1_555 1_555
O5D_2 Eu1 1_555 1_555
O5D_3 Eu1_2 1_555 1_555
O6D K1D 1_555 1_555
K1 O2 1_555 1_555
K1 O3F 1_555 1_555
C3 O4 1_555 1_555
O5 Eu1D 1_555 1_555
Eu1_2 O2E_2 1_555 1_555
Eu1_2 O3C_2 1_555 1_555
Eu1D O1A 1_555 1_555
Eu1D O4D_2 1_555 1_555
Eu1D_2 O4_2 1_555 1_555
Eu1D_2 O4D_3 1_555 1_555
K1D O1A 1_555 1_555
K1D O2D 1_555 1_555
K1D O2A 1_555 1_555
K1D O3G 1_555 1_555
K1D O3B 1_555 1_555
K1_2 O2E 1_555 1_555
K1_2 O3C 1_555 1_555
C1E O1E 1_555 1_555
C2E O2E 1_555 1_555
C2E O3E 1_555 1_555
C2F O3F 1_555 1_555
C2C O3C 1_555 1_555
C3D O5D 1_555 1_555

#END
