
#######################################################################
#
#                 Cambridge Crystallographic Data Centre
#                                CCDC 
#
#######################################################################
#
# If this CIF has been generated from an entry in the Cambridge 
# Structural Database, then it will include bibliographic, chemical, 
# crystal, experimental, refinement or atomic coordinate data resulting 
# from the CCDC's data processing and validation procedures.
#
#######################################################################

data_KOMJUS
_symmetry_cell_setting           orthorhombic
_symmetry_space_group_name_H-M   'P b a m'
_symmetry_Int_Tables_number      55
_space_group_name_Hall           '-P 2 2ab'
loop_
_symmetry_equiv_pos_site_id
_symmetry_equiv_pos_as_xyz
1 x,y,z
2 -x,-y,z
3 1/2-x,1/2+y,-z
4 1/2+x,1/2-y,-z
5 -x,-y,-z
6 x,y,-z
7 1/2+x,1/2-y,z
8 1/2-x,1/2+y,z
_cell_length_a                   8.8981(18)
_cell_length_b                   16.434(3)
_cell_length_c                   7.2451(14)
_cell_angle_alpha                90
_cell_angle_beta                 90
_cell_angle_gamma                90
_cell_volume                     1059.46
loop_
_atom_site_label
_atom_site_type_symbol
_atom_site_fract_x
_atom_site_fract_y
_atom_site_fract_z
H1 H 1.100(5) 0.383(3) 0.096(7)
Gd1 Gd 0.98809(2) 0.118450(12) 0.5000
K1 K 1.02953(15) 0.21607(8) 0.0000
C1 C 1.0000 0.0000 0.1086(6)
C2 C 0.7781(4) 0.27054(19) 0.3941(5)
C3 C 0.7117(6) 0.0242(3) 0.5000
C4 C 0.5703(6) -0.0250(3) 0.5000
H2 H 0.5700 -0.0598 0.6081
H3 H 0.5700 -0.0598 0.3919
O1 O 0.9756(3) 0.06702(13) 0.1855(3)
O2 O 0.8730(3) 0.22631(16) 0.3164(4)
O3 O 0.6845(3) 0.31568(15) 0.3170(4)
O4 O 0.7105(5) 0.0985(2) 0.5000
O5 O 0.8371(4) -0.01324(19) 0.5000
O6 O 1.1539(11) 0.3721(5) 0.0000
H1E H 1.100(5) 0.383(3) -0.096(7)
H1D H 0.900(5) -0.383(3) -0.096(7)
H1A H 0.900(5) -0.383(3) 0.096(7)
Gd1_2 Gd 0.98809(2) 0.118450(12) -0.5000
Gd1F Gd 0.48809(2) 0.381550(12) 0.5000
Gd1D Gd 1.01191(2) -0.118450(12) 0.5000
Gd1D_2 Gd 1.01191(2) -0.118450(12) -0.5000
Gd1D_3 Gd 0.01191(2) -0.118450(12) 0.5000
Gd1_3 Gd -0.01191(2) 0.118450(12) 0.5000
Gd1F_2 Gd 1.48809(2) 0.381550(12) 0.5000
K1D K 0.97047(15) -0.21607(8) 0.0000
K1F K 0.52953(15) 0.28393(8) 0.0000
K1_2 K 1.02953(15) 0.21607(8) 1.0000
K1F_2 K 0.52953(15) 0.28393(8) 1.0000
K1F_3 K 1.52953(15) 0.28393(8) 0.0000
K1F_4 K 1.52953(15) 0.28393(8) 1.0000
C1E C 1.0000 0.0000 -0.1086(6)
C2E C 0.7781(4) 0.27054(19) 0.6059(5)
C2F C 1.2781(4) 0.22946(19) 0.3941(5)
C2C C 1.2781(4) 0.22946(19) 0.6059(5)
C3D C 0.2883(6) -0.0242(3) 0.5000
C4D C 0.4297(6) 0.0250(3) 0.5000
H2D H 0.4300 0.0598 0.3919
H2A H 0.4300 0.0598 0.6081
O1E O 0.9756(3) 0.06702(13) -0.1855(3)
O1D O 1.0244(3) -0.06702(13) -0.1855(3)
O1A O 1.0244(3) -0.06702(13) 0.1855(3)
O1E_2 O 0.9756(3) 0.06702(13) 0.8145(3)
O1_2 O 0.9756(3) 0.06702(13) -0.8145(3)
O2E O 0.8730(3) 0.22631(16) 0.6836(4)
O2F O 1.3730(3) 0.27369(16) 0.3164(4)
O2C O 1.3730(3) 0.27369(16) 0.6836(4)
O2E_2 O 0.8730(3) 0.22631(16) -0.3164(4)
O2_2 O 0.8730(3) 0.22631(16) -0.6836(4)
O2D O 1.1270(3) -0.22631(16) -0.3164(4)
O2A O 1.1270(3) -0.22631(16) 0.3164(4)
O3E O 0.6845(3) 0.31568(15) 0.6830(4)
O3F O 1.1845(3) 0.18432(15) 0.3170(4)
O3C O 1.1845(3) 0.18432(15) 0.6830(4)
O3C_2 O 1.1845(3) 0.18432(15) -0.3170(4)
O3F_2 O 1.1845(3) 0.18432(15) -0.6830(4)
O3G O 0.8155(3) -0.18432(15) 0.3170(4)
O3B O 0.8155(3) -0.18432(15) -0.3170(4)
O4D O 0.2895(5) -0.0985(2) 0.5000
O4_2 O 0.7105(5) 0.0985(2) -0.5000
O5D O 0.1629(4) 0.01324(19) 0.5000
O5D_2 O 1.1629(4) 0.01324(19) 0.5000
O5_2 O 0.8371(4) -0.01324(19) -0.5000
O5D_3 O 1.1629(4) 0.01324(19) -0.5000
O6D O 0.8461(11) -0.3721(5) 0.0000
O7 O 0.1580(15) 0.5552(8) 1.0000
loop_
_geom_bond_atom_site_label_1
_geom_bond_atom_site_label_2
_geom_bond_site_symmetry_1
_geom_bond_site_symmetry_2
H1 O6 1_555 1_555
Gd1 O1 1_555 1_555
K1 O1 1_555 1_555
C1 O1 1_555 1_555
C2 O2 1_555 1_555
C3 C4 1_555 1_555
C4 H2 1_555 1_555
H3 C4 1_555 1_555
O2 Gd1 1_555 1_555
O3 C2 1_555 1_555
O4 Gd1 1_555 1_555
O5 Gd1 1_555 1_555
O6 K1 1_555 1_555
H1E O6 1_555 1_555
H1D O6D 1_555 1_555
H1A O6D 1_555 1_555
Gd1_2 O1E 1_555 1_555
Gd1F O3 1_555 1_555
Gd1D O5 1_555 1_555
Gd1D_2 O1D 1_555 1_555
Gd1D_3 O4D 1_555 1_555
Gd1_3 O5D 1_555 1_555
Gd1F_2 O2F 1_555 1_555
K1D O1D 1_555 1_555
K1F O3 1_555 1_555
K1_2 O1E_2 1_555 1_555
K1F_2 O3E 1_555 1_555
K1F_3 O2F 1_555 1_555
K1F_4 O2C 1_555 1_555
C1E C1 1_555 1_555
C2E C2 1_555 1_555
C2F C2C 1_555 1_555
C2C O2C 1_555 1_555
C3D C4D 1_555 1_555
C4D C4 1_555 1_555
H2D C4D 1_555 1_555
H2A C4D 1_555 1_555
O1E K1 1_555 1_555
O1D C1E 1_555 1_555
O1A C1 1_555 1_555
O1E_2 Gd1 1_555 1_555
O1_2 Gd1_2 1_555 1_555
O2E Gd1 1_555 1_555
O2F C2F 1_555 1_555
O2C Gd1F_2 1_555 1_555
O2E_2 K1 1_555 1_555
O2_2 Gd1_2 1_555 1_555
O2D Gd1D_2 1_555 1_555
O2A Gd1D 1_555 1_555
O3E Gd1F 1_555 1_555
O3F Gd1 1_555 1_555
O3C Gd1 1_555 1_555
O3C_2 K1 1_555 1_555
O3F_2 Gd1_2 1_555 1_555
O3G Gd1D 1_555 1_555
O3B Gd1D_2 1_555 1_555
O4D C3D 1_555 1_555
O4_2 Gd1_2 1_555 1_555
O5D Gd1D_3 1_555 1_555
O5D_2 Gd1 1_555 1_555
O5_2 Gd1_2 1_555 1_555
O5D_3 Gd1_2 1_555 1_555
O6D K1D 1_555 1_555
K1 O2 1_555 1_555
K1 O3F 1_555 1_555
C3 O4 1_555 1_555
C3 O5 1_555 1_555
Gd1_2 O2E_2 1_555 1_555
Gd1_2 O3C_2 1_555 1_555
Gd1D O1A 1_555 1_555
Gd1D O5D_2 1_555 1_555
Gd1D_2 O5_2 1_555 1_555
Gd1D_2 O5D_3 1_555 1_555
K1D O1A 1_555 1_555
K1D O2D 1_555 1_555
K1D O2A 1_555 1_555
K1D O3G 1_555 1_555
K1D O3B 1_555 1_555
K1_2 O2E 1_555 1_555
K1_2 O3C 1_555 1_555
C1E O1E 1_555 1_555
C2E O2E 1_555 1_555
C2E O3E 1_555 1_555
C2F O3F 1_555 1_555
C2C O3C 1_555 1_555
C3D O5D 1_555 1_555

#END
