
#######################################################################
#
#                 Cambridge Crystallographic Data Centre
#                                CCDC 
#
#######################################################################
#
# If this CIF has been generated from an entry in the Cambridge 
# Structural Database, then it will include bibliographic, chemical, 
# crystal, experimental, refinement or atomic coordinate data resulting 
# from the CCDC's data processing and validation procedures.
#
#######################################################################

data_KOMVIT
_symmetry_cell_setting           monoclinic
_symmetry_space_group_name_H-M   'I 2/a'
_symmetry_Int_Tables_number      15
_space_group_name_Hall           '-I 2ya'
loop_
_symmetry_equiv_pos_site_id
_symmetry_equiv_pos_as_xyz
1 x,y,z
2 1/2-x,y,-z
3 1/2+x,1/2+y,1/2+z
4 -x,1/2+y,1/2-z
5 -x,-y,-z
6 1/2+x,-y,z
7 1/2-x,1/2-y,1/2-z
8 x,1/2-y,1/2+z
_cell_length_a                   10.1200(10)
_cell_length_b                   21.9340(10)
_cell_length_c                   15.8180(10)
_cell_angle_alpha                90
_cell_angle_beta                 105.430(10)
_cell_angle_gamma                90
_cell_volume                     3384.6
loop_
_atom_site_label
_atom_site_type_symbol
_atom_site_fract_x
_atom_site_fract_y
_atom_site_fract_z
C1 C 0.8223(5) 0.2453(3) 0.3812(4)
C2 C 0.9362(6) 0.2842(3) 0.4176(4)
C3 C 1.0690(6) 0.2577(3) 0.4318(5)
H1 H 1.1459 0.281 0.4578
C4 C 1.0861(6) 0.1991(3) 0.4081(5)
H2 H 1.1743 0.1835 0.4178
C5 C 0.9752(6) 0.1623(3) 0.3701(4)
C6 C 0.8413(6) 0.1865(3) 0.3573(4)
H3 H 0.7656 0.1623 0.3324
C7 C 0.6814(5) 0.2737(3) 0.3704(4)
H4 H 0.6709 0.2837 0.428
H5 H 0.6768 0.3115 0.3379
C8 C 0.4354(5) 0.2672(3) 0.3175(5)
H6 H 0.4383 0.3066 0.2901
H7 H 0.4235 0.2741 0.3756
C9 C 0.3156(5) 0.2307(3) 0.2636(5)
H8 H 0.2998 0.1959 0.2974
H9 H 0.3377 0.2155 0.2114
N1 N 0.5663(5) 0.2345(2) 0.3249(4)
O1 O 0.9211(4) 0.3410(2) 0.4367(3)
O2 O 0.75000 0.0574(3) 0.50000
O3 O 1.0903(6) -0.0808(3) 0.1962(4)
O4 O 0.8025(8) -0.0772(4) 0.1918(6)
O5 O 1.0191(6) -0.1330(3) 0.4195(5)
O6 O 0.8975(7) -0.0723(3) -0.0165(4)
O7 O 0.75000 0.0879(3) 0.00000
O8 O 1.1016(5) 0.0897(2) 0.2881(4)
O9 O 1.0569(5) 0.0540(2) 0.4211(3)
O10 O 0.8710(5) 0.0629(2) 0.2899(4)
S1 S 1.00235(16) 0.08753(8) 0.34022(11)
K1 K 0.83862(15) -0.03238(8) 0.40370(11)
K2 K 0.9327(2) 0.02016(9) 0.12300(13)
H10 H 0.561(9) 0.1982(16) 0.342(5)
H11 H 0.811(7) 0.082(3) 0.526(6)
H12 H 1.136(8) -0.070(4) 0.248(3)
H13 H 1.086(9) -0.104(4) 0.150(4)
H14 H 0.877(7) -0.087(4) 0.232(5)
H15 H 0.738(7) -0.053(4) 0.167(6)
H16 H 1.056(9) -0.150(4) 0.469(3)
H17 H 1.026(9) -0.116(4) 0.369(4)
H18 H 0.905(10) -0.082(4) 0.0379(19)
H19 H 0.866(10) -0.084(4) -0.0715(19)
H20 H 0.716(10) 0.113(3) 0.028(6)
C1F C -0.3223(5) 0.2547(3) 0.1188(4)
C2F C -0.4362(6) 0.2158(3) 0.0824(4)
C3F C -0.5690(6) 0.2423(3) 0.0682(5)
H1F H -0.6459 0.219 0.0422
C4F C -0.5861(6) 0.3009(3) 0.0919(5)
H2F H -0.6743 0.3165 0.0822
C5F C -0.4752(6) 0.3377(3) 0.1299(4)
C6F C -0.3413(6) 0.3135(3) 0.1427(4)
H3F H -0.2656 0.3377 0.1676
C7F C -0.1814(5) 0.2263(3) 0.1296(4)
H4F H -0.1709 0.2163 0.072
H5F H -0.1768 0.1885 0.1621
C8F C 0.0646(5) 0.2328(3) 0.1825(5)
H6F H 0.0617 0.1934 0.2099
H7F H 0.0765 0.2259 0.1244
C9F C 0.1844(5) 0.2693(3) 0.2364(5)
H8F H 0.2002 0.3041 0.2026
H9F H 0.1623 0.2845 0.2886
N1F N -0.0663(5) 0.2655(2) 0.1751(4)
O1F O -0.4211(4) 0.1590(2) 0.0633(3)
O8F O -0.6016(5) 0.4103(2) 0.2119(4)
O9F O -0.5569(5) 0.4460(2) 0.0789(3)
O10F O -0.3710(5) 0.4371(2) 0.2101(4)
S1F S -0.50235(16) 0.41247(8) 0.15978(11)
H10F H -0.061(9) 0.3018(16) 0.158(5)
H11A H 0.689(7) 0.082(3) 0.474(6)
H20A H 0.784(10) 0.113(3) -0.028(6)
O3A O 0.4097(6) -0.0808(3) -0.1962(4)
O4A O 0.6975(8) -0.0772(4) -0.1918(6)
O5A O 0.4809(6) -0.1330(3) -0.4195(5)
O6A O 0.6025(7) -0.0723(3) 0.0165(4)
K1A K 0.66138(15) -0.03238(8) -0.40370(11)
K2A K 0.5673(2) 0.02016(9) -0.12300(13)
H12A H 0.364(8) -0.070(4) -0.248(3)
H13A H 0.414(9) -0.104(4) -0.150(4)
H14A H 0.623(7) -0.087(4) -0.232(5)
H15A H 0.762(7) -0.053(4) -0.167(6)
H16A H 0.444(9) -0.150(4) -0.469(3)
H17A H 0.474(9) -0.116(4) -0.369(4)
H18A H 0.595(10) -0.082(4) -0.0379(19)
H19A H 0.634(10) -0.084(4) 0.0715(19)
O2_2 O 0.75000 0.0574(3) -0.50000
O6D O 1.1025(7) 0.0723(3) 0.0165(4)
O6E O 0.3975(7) 0.0723(3) -0.0165(4)
O8A O 0.3984(5) 0.0897(2) -0.2881(4)
O8D O 0.8984(5) -0.0897(2) -0.2881(4)
O8E O 0.6016(5) -0.0897(2) 0.2881(4)
O9A O 0.4431(5) 0.0540(2) -0.4211(3)
O9D O 0.9431(5) -0.0540(2) -0.4211(3)
O9D_2 O 0.9431(5) -0.0540(2) 0.5789(3)
O9E O 0.5569(5) -0.0540(2) -0.5789(3)
O9E_2 O 0.5569(5) -0.0540(2) 0.4211(3)
O10A O 0.6290(5) 0.0629(2) -0.2899(4)
K1A_2 K 0.66138(15) -0.03238(8) 0.59630(11)
K1B K -0.66138(15) 0.46762(8) -0.09630(11)
K1C K -0.83862(15) 0.46762(8) 0.09630(11)
K1D K 1.16138(15) 0.03238(8) 0.59630(11)
K1E K 1.33862(15) 0.03238(8) 0.40370(11)
K1F K -0.33862(15) 0.53238(8) 0.09630(11)
K2D K 1.0673(2) -0.02016(9) -0.12300(13)
K2E K 0.4327(2) -0.02016(9) 0.12300(13)
K2F K -0.4327(2) 0.47984(9) 0.37700(13)
loop_
_geom_bond_atom_site_label_1
_geom_bond_atom_site_label_2
_geom_bond_site_symmetry_1
_geom_bond_site_symmetry_2
C1 C2 1_555 1_555
C2 C3 1_555 1_555
C3 H1 1_555 1_555
C4 C3 1_555 1_555
H2 C4 1_555 1_555
C5 C4 1_555 1_555
C6 C1 1_555 1_555
H3 C6 1_555 1_555
C7 C1 1_555 1_555
H4 C7 1_555 1_555
H5 C7 1_555 1_555
C8 H6 1_555 1_555
H7 C8 1_555 1_555
C9 C8 1_555 1_555
H8 C9 1_555 1_555
H9 C9 1_555 1_555
N1 C7 1_555 1_555
O1 C2 1_555 1_555
O2 K1 1_555 1_555
O3 K2 1_555 1_555
O4 K2 1_555 1_555
O5 K1 1_555 1_555
O6 K2 1_555 1_555
O7 K2 1_555 1_555
O8 S1 1_555 1_555
O9 S1 1_555 1_555
O10 S1 1_555 1_555
S1 C5 1_555 1_555
K1 O9 1_555 1_555
K2 O8 1_555 1_555
H10 N1 1_555 1_555
H11 O2 1_555 1_555
H12 O3 1_555 1_555
H13 O3 1_555 1_555
H14 O4 1_555 1_555
H15 O4 1_555 1_555
H16 O5 1_555 1_555
H17 O5 1_555 1_555
H18 O6 1_555 1_555
H19 O6 1_555 1_555
H20 O7 1_555 1_555
C1F C2F 1_555 1_555
C2F C3F 1_555 1_555
C3F H1F 1_555 1_555
C4F C3F 1_555 1_555
H2F C4F 1_555 1_555
C5F C4F 1_555 1_555
C6F C1F 1_555 1_555
H3F C6F 1_555 1_555
C7F C1F 1_555 1_555
H4F C7F 1_555 1_555
H5F C7F 1_555 1_555
C8F H6F 1_555 1_555
H7F C8F 1_555 1_555
C9F C9 1_555 1_555
H8F C9F 1_555 1_555
H9F C9F 1_555 1_555
N1F C7F 1_555 1_555
O1F C2F 1_555 1_555
O8F S1F 1_555 1_555
O9F S1F 1_555 1_555
O10F S1F 1_555 1_555
S1F C5F 1_555 1_555
H10F N1F 1_555 1_555
H11A O2 1_555 1_555
H20A O7 1_555 1_555
O3A K2A 1_555 1_555
O4A K2A 1_555 1_555
O5A K1A 1_555 1_555
O6A K2A 1_555 1_555
K1A O2_2 1_555 1_555
K2A O7 1_555 1_555
H12A O3A 1_555 1_555
H13A O3A 1_555 1_555
H14A O4A 1_555 1_555
H15A O4A 1_555 1_555
H16A O5A 1_555 1_555
H17A O5A 1_555 1_555
H18A O6A 1_555 1_555
H19A O6A 1_555 1_555
O6D K2 1_555 1_555
O6E K2A 1_555 1_555
O8A K2A 1_555 1_555
O8D K1A 1_555 1_555
O8E K1 1_555 1_555
O9A K1A 1_555 1_555
O9D K1A 1_555 1_555
O9D_2 K1 1_555 1_555
O9E K1A 1_555 1_555
O9E_2 K1 1_555 1_555
O10A K1A 1_555 1_555
K1A_2 O2 1_555 1_555
K1B O9F 1_555 1_555
K1C O8F 1_555 1_555
K1D O9 1_555 1_555
K1E O8 1_555 1_555
K1F O9F 1_555 1_555
K2D O6 1_555 1_555
K2E O6A 1_555 1_555
K2F O8F 1_555 1_555
C5 C6 1_555 1_555
C8 N1 1_555 1_555
O9 K1E 1_555 1_555
O10 K1 1_555 1_555
O10 K2 1_555 1_555
C5F C6F 1_555 1_555
C8F C9F 1_555 1_555
C8F N1F 1_555 1_555
O9F K1C 1_555 1_555
O10F K1F 1_555 1_555
O10F K2F 1_555 1_555
K2A O10A 1_555 1_555
O6D K2D 1_555 1_555
O6E K2E 1_555 1_555
O8D K2D 1_555 1_555
O8E K2E 1_555 1_555
O9D_2 K1A_2 1_555 1_555
O9D_2 K1D 1_555 1_555
O9E_2 K1A_2 1_555 1_555

#END
