
#######################################################################
#
#                 Cambridge Crystallographic Data Centre
#                                CCDC 
#
#######################################################################
#
# If this CIF has been generated from an entry in the Cambridge 
# Structural Database, then it will include bibliographic, chemical, 
# crystal, experimental, refinement or atomic coordinate data resulting 
# from the CCDC's data processing and validation procedures.
#
#######################################################################

data_KONBIZ
_symmetry_cell_setting           monoclinic
_symmetry_space_group_name_H-M   'P 2/c'
_symmetry_Int_Tables_number      13
_space_group_name_Hall           '-P 2yc'
loop_
_symmetry_equiv_pos_site_id
_symmetry_equiv_pos_as_xyz
1 x,y,z
2 -x,y,1/2-z
3 -x,-y,-z
4 x,-y,1/2+z
_cell_length_a                   16.0396(16)
_cell_length_b                   6.2190(6)
_cell_length_c                   16.2606(17)
_cell_angle_alpha                90
_cell_angle_beta                 102.787(1)
_cell_angle_gamma                90
_cell_volume                     1581.77
loop_
_atom_site_label
_atom_site_type_symbol
_atom_site_fract_x
_atom_site_fract_y
_atom_site_fract_z
Mn1 Mn 0.125160(18) 0.43002(5) 0.332296(18)
O1 O 0.12846(9) -0.4131(2) 0.21728(9)
O2 O 0.14991(11) -0.4593(3) 0.08873(10)
O3 O 0.11772(9) 0.0366(2) 0.18567(10)
O4 O 0.20326(9) 0.1858(3) 0.29839(10)
O5 O 0.5000 0.2333(4) 0.2500
O6 O 0.0000 0.2581(3) 0.2500
O7 O 0.04039(10) 0.6816(3) 0.35867(10)
O8 O 0.11352(12) 0.2479(3) 0.44283(11)
N1 N 0.24412(11) 0.6089(3) 0.40743(11)
C1 C 0.17105(12) -0.3891(3) 0.16189(12)
C2 C 0.25539(12) -0.2726(3) 0.18523(12)
C3 C 0.32757(13) -0.3781(3) 0.16999(14)
H1 H 0.3217 -0.5126 0.1444
C4 C 0.40753(13) -0.2840(4) 0.19273(15)
H2 H 0.4553 -0.3572 0.1838
C5 C 0.41681(13) -0.0804(3) 0.22890(15)
C6 C 0.34441(13) 0.0252(3) 0.24276(14)
H3 H 0.3502 0.1618 0.2666
C7 C 0.26407(12) -0.0681(3) 0.22199(12)
C8 C 0.5000 0.0384(5) 0.2500
C9 C 0.23924(16) 0.7990(4) 0.44436(17)
H4 H 0.1854 0.8494 0.4473
C10 C 0.30899(18) 0.9246(5) 0.47828(19)
H5 H 0.3017 1.0531 0.5051
C11 C 0.38913(17) 0.8604(5) 0.47251(16)
C12 C 0.39545(16) 0.6624(6) 0.43514(18)
H6 H 0.4487 0.6101 0.4309
C13 C 0.32209(15) 0.5419(5) 0.40391(17)
H7 H 0.3278 0.4090 0.3796
C14 C 0.46185(18) 1.0101(6) 0.5041(2)
H8 H 0.4499 1.1313 0.5330
C15 C 0.18792(12) 0.0601(3) 0.23633(12)
H9 H 0.0265(17) 0.177(4) 0.2247(17)
H10 H 0.0434(16) 0.721(5) 0.4079(8)
H11 H -0.0098(9) 0.667(5) 0.3328(14)
H12 H 0.1383(17) 0.308(5) 0.4882(13)
H13 H 0.0623(8) 0.228(6) 0.4450(19)
Mn1A Mn 0.874840(18) 0.43002(5) 0.167704(18)
Mn1_2 Mn 0.125160(18) -0.56998(5) 0.332296(18)
Mn1A_2 Mn 0.874840(18) -0.56998(5) 0.167704(18)
Mn1A_3 Mn -0.125160(18) 0.43002(5) 0.167704(18)
Mn1B Mn 0.874840(18) 1.56998(5) 0.667704(18)
O1_2 O 0.12846(9) 0.5869(2) 0.21728(9)
O1A O 0.87154(9) -0.4131(2) 0.28272(9)
O1B O 0.87154(9) 1.4131(2) 0.78272(9)
O2A O 0.85009(11) -0.4593(3) 0.41127(10)
O3A O 0.88228(9) 0.0366(2) 0.31433(10)
O4A O 0.79674(9) 0.1858(3) 0.20161(10)
O4B O 0.79674(9) 1.8142(3) 0.70161(10)
O6C O 1.0000 1.7419(3) 0.7500
O7B O 0.95961(10) 1.3184(3) 0.64133(10)
O8B O 0.88648(12) 1.7521(3) 0.55717(11)
N1B N 0.75588(11) 1.3911(3) 0.59257(11)
C1A C 0.82895(12) -0.3891(3) 0.33811(12)
C2A C 0.74461(12) -0.2726(3) 0.31477(12)
C3A C 0.67243(13) -0.3781(3) 0.33001(14)
H1A H 0.6783 -0.5126 0.3556
C4A C 0.59247(13) -0.2840(4) 0.30727(15)
H2A H 0.5447 -0.3572 0.3162
C5A C 0.58319(13) -0.0804(3) 0.27110(15)
C6A C 0.65559(13) 0.0252(3) 0.25724(14)
H3A H 0.6498 0.1618 0.2334
C7A C 0.73593(12) -0.0681(3) 0.27801(12)
C9B C 0.76076(16) 1.2010(4) 0.55564(17)
H4B H 0.8146 1.1506 0.5527
C10B C 0.69101(18) 1.0754(5) 0.52172(19)
H5B H 0.6983 0.9469 0.4949
C11B C 0.61087(17) 1.1396(5) 0.52749(16)
C12B C 0.60455(16) 1.3376(6) 0.56486(18)
H6B H 0.5513 1.3899 0.5691
C13B C 0.67791(15) 1.4581(5) 0.59609(17)
H7B H 0.6722 1.5910 0.6204
C14B C 0.53815(18) 0.9899(6) 0.4959(2)
H8B H 0.5501 0.8687 0.4670
C15A C 0.81208(12) 0.0601(3) 0.26367(12)
H9A H -0.0265(17) 0.177(4) 0.2753(17)
H9C H 1.0265(17) 1.823(4) 0.7247(17)
H9B H 0.9735(17) 1.823(4) 0.7753(17)
H10B H 0.9566(16) 1.279(5) 0.5921(8)
H11B H 1.0098(9) 1.333(5) 0.6672(14)
H12B H 0.8617(17) 1.692(5) 0.5118(13)
H13B H 0.9377(8) 1.772(6) 0.5550(19)
O9 O 0.04787(11) 0.2113(3) 0.02799(11)
H14 H 0.0748(17) 0.322(2) 0.0470(16)
H15 H 0.0669(18) 0.108(3) 0.0596(15)
loop_
_geom_bond_atom_site_label_1
_geom_bond_atom_site_label_2
_geom_bond_site_symmetry_1
_geom_bond_site_symmetry_2
Mn1 O4 1_555 1_555
O1 C1 1_555 1_555
O2 C1 1_555 1_555
O3 C15 1_555 1_555
O4 C15 1_555 1_555
O5 C8 1_555 1_555
O6 Mn1 1_555 1_555
O7 Mn1 1_555 1_555
O8 Mn1 1_555 1_555
O9 H14 1_555 1_555
N1 Mn1 1_555 1_555
C1 C2 1_555 1_555
C2 C3 1_555 1_555
C3 H1 1_555 1_555
C4 C3 1_555 1_555
H2 C4 1_555 1_555
C5 C4 1_555 1_555
C6 C5 1_555 1_555
H3 C6 1_555 1_555
C7 C2 1_555 1_555
C8 C5 1_555 1_555
C9 N1 1_555 1_555
H4 C9 1_555 1_555
C10 C9 1_555 1_555
H5 C10 1_555 1_555
C11 C10 1_555 1_555
C12 C11 1_555 1_555
H6 C12 1_555 1_555
C13 N1 1_555 1_555
H7 C13 1_555 1_555
C14 C11 1_555 1_555
H8 C14 1_555 1_555
C15 C7 1_555 1_555
H9 O6 1_555 1_555
H10 O7 1_555 1_555
H11 O7 1_555 1_555
H12 O8 1_555 1_555
H13 O8 1_555 1_555
H15 O9 1_555 1_555
Mn1A O4A 1_555 1_555
Mn1_2 O1 1_555 1_555
Mn1A_2 O1A 1_555 1_555
Mn1A_3 O6 1_555 1_555
Mn1B O1B 1_555 1_555
O1_2 Mn1 1_555 1_555
O1A C1A 1_555 1_555
O2A C1A 1_555 1_555
O3A C15A 1_555 1_555
O4A C15A 1_555 1_555
O4B Mn1B 1_555 1_555
O6C Mn1B 1_555 1_555
O7B Mn1B 1_555 1_555
O8B Mn1B 1_555 1_555
N1B Mn1B 1_555 1_555
C1A C2A 1_555 1_555
C2A C3A 1_555 1_555
C3A H1A 1_555 1_555
C4A C3A 1_555 1_555
H2A C4A 1_555 1_555
C5A C8 1_555 1_555
C6A C5A 1_555 1_555
H3A C6A 1_555 1_555
C7A C2A 1_555 1_555
C9B N1B 1_555 1_555
H4B C9B 1_555 1_555
C10B C9B 1_555 1_555
H5B C10B 1_555 1_555
C11B C10B 1_555 1_555
C12B C11B 1_555 1_555
H6B C12B 1_555 1_555
C13B N1B 1_555 1_555
H7B C13B 1_555 1_555
C14B C14 1_555 1_555
H8B C14B 1_555 1_555
C15A C7A 1_555 1_555
H9A O6 1_555 1_555
H9C O6C 1_555 1_555
H9B O6C 1_555 1_555
H10B O7B 1_555 1_555
H11B O7B 1_555 1_555
H12B O8B 1_555 1_555
H13B O8B 1_555 1_555
C6 C7 1_555 1_555
C12 C13 1_555 1_555
C4A C5A 1_555 1_555
C6A C7A 1_555 1_555
C11B C14B 1_555 1_555
C12B C13B 1_555 1_555

#END
