
#######################################################################
#
#                 Cambridge Crystallographic Data Centre
#                                CCDC 
#
#######################################################################
#
# If this CIF has been generated from an entry in the Cambridge 
# Structural Database, then it will include bibliographic, chemical, 
# crystal, experimental, refinement or atomic coordinate data resulting 
# from the CCDC's data processing and validation procedures.
#
#######################################################################

data_KONZIY
_symmetry_cell_setting           triclinic
_symmetry_space_group_name_H-M   'P -1'
_symmetry_Int_Tables_number      2
_space_group_name_Hall           '-P 1'
loop_
_symmetry_equiv_pos_site_id
_symmetry_equiv_pos_as_xyz
1 x,y,z
2 -x,-y,-z
_cell_length_a                   9.059(4)
_cell_length_b                   15.197(6)
_cell_length_c                   23.751(10)
_cell_angle_alpha                73.595(8)
_cell_angle_beta                 88.406(14)
_cell_angle_gamma                81.684(12)
_cell_volume                     3103.4
loop_
_atom_site_label
_atom_site_type_symbol
_atom_site_fract_x
_atom_site_fract_y
_atom_site_fract_z
Ir1 Ir 0.66612(4) 0.50001(2) 0.303176(16)
Ir2 Ir 1.20840(4) 0.04144(3) 0.173043(16)
Y1 Y 0.79838(14) -0.04345(7) 0.49191(5)
O1 O 1.1516(11) -0.2452(7) 0.4562(4)
O2 O 0.9320(9) -0.1594(5) 0.4622(3)
O3 O 1.7109(9) 0.0231(6) 0.3990(3)
O4 O 1.8227(10) 0.1124(7) 0.3254(3)
O5 O 0.3919(8) 0.1292(5) 0.5131(3)
O6 O 0.6331(9) 0.0723(4) 0.5104(3)
O7 O 1.2305(8) 0.1243(5) 0.4145(3)
O8 O 1.3686(8) 0.2056(5) 0.3433(4)
O9 O 0.9803(11) 0.0394(8) 0.4461(6)
N1 N 1.3984(9) 0.0342(6) 0.2270(3)
N2 N 1.1433(9) -0.0280(5) 0.2601(3)
N3 N 1.1384(9) 0.1706(6) 0.1806(3)
C1 C 1.0315(11) -0.0356(7) 0.1039(4)
N4 N 0.8785(8) 0.4118(4) 0.3304(3)
N5 N 0.6096(8) 0.3921(5) 0.3766(3)
N6 N 0.6312(8) 0.4299(5) 0.2441(3)
N7 N 0.4585(11) 0.5751(6) 0.2892(4)
C2 C 1.1244(11) 0.2762(7) 0.3598(4)
C3 C 0.8028(16) 0.5916(7) 0.3790(5)
H1 H 0.8863 0.5457 0.3796
C4 C 0.6835(10) 0.5875(6) 0.3521(4)
C5 C 0.5641(11) 0.3531(7) 0.2541(5)
H2 H 0.5396 0.3238 0.2934
C6 C 1.2907(11) 0.1155(7) 0.0981(4)
C7 C 1.2538(11) 0.1961(7) 0.3731(4)
C8 C 0.3429(10) 0.5678(7) 0.2522(5)
H3 H 0.3595 0.5265 0.2285
C9 C 1.0770(12) -0.1184(7) 0.3740(5)
C10 C 0.7379(10) 0.5869(6) 0.2295(4)
C11 C 0.8460(13) 0.7201(8) 0.1712(6)
H4 H 0.8834 0.7764 0.1683
C12 C 0.4739(10) 0.3852(6) 0.4011(4)
H5 H 0.3976 0.4371 0.3903
C13 C 1.2072(11) -0.0794(7) 0.3617(4)
H6 H 1.2749 -0.0833 0.3924
C14 C 1.7264(12) 0.0645(8) 0.3458(5)
C15 C 0.8971(11) 0.1087(8) 0.1131(5)
H7 H 0.8867 0.1608 0.1281
C16 C 1.2653(9) -0.0827(5) 0.1544(3)
C17 C 1.0168(12) -0.0643(7) 0.2733(4)
H8 H 0.9498 -0.0598 0.2422
C18 C 1.1660(13) -0.1040(7) 0.1197(4)
C19 C 0.9872(10) 0.2636(6) 0.3845(5)
H9 H 0.9758 0.2073 0.4134
C20 C 0.5228(12) 0.1361(7) 0.4957(4)
C21 C 1.3784(12) 0.0046(6) 0.2872(4)
C22 C 1.5226(11) 0.0695(7) 0.2068(4)
H10 H 1.5363 0.0907 0.1657
C23 C 0.6673(12) 0.4697(7) 0.1876(5)
C24 C 0.4424(11) 0.3044(7) 0.4419(4)
H11 H 0.3468 0.3012 0.4592
C25 C 1.0121(11) 0.4272(7) 0.3051(4)
H12 H 1.0201 0.4848 0.2771
C26 C 0.5532(11) 0.2291(6) 0.4565(4)
C27 C 0.6923(11) 0.2382(7) 0.4340(4)
H13 H 0.7712 0.1881 0.4459
C28 C 1.1364(10) 0.3607(6) 0.3192(4)
H14 H 1.2293 0.3727 0.3014
C29 C 0.4323(12) 0.6420(6) 0.3212(5)
C30 C 1.2740(12) 0.2104(7) 0.0911(4)
C31 C 1.4849(11) 0.0138(7) 0.3251(4)
H15 H 1.4690 -0.0058 0.3662
C32 C 0.7325(12) 0.5565(7) 0.1796(4)
C33 C 0.5611(14) 0.6489(8) 0.3541(5)
C34 C 1.2381(11) -0.0345(7) 0.3040(4)
C35 C 1.0543(15) -0.1787(9) 0.4372(5)
C36 C 0.7957(12) 0.6690(7) 0.2237(5)
H16 H 0.8004 0.6906 0.2574
C37 C 0.8408(14) 0.6873(10) 0.1224(6)
H17 H 0.8762 0.7213 0.0858
C38 C 1.3885(13) -0.1415(7) 0.1711(5)
H18 H 1.4572 -0.1272 0.1956
C39 C 0.6954(18) 0.7207(10) 0.4099(6)
H19 H 0.7007 0.7671 0.4292
C40 C 1.1826(12) 0.2409(8) 0.1365(5)
C41 C 0.5293(15) 0.3151(8) 0.2117(6)
H20 H 0.4810 0.2614 0.2210
C42 C 0.2098(13) 0.6204(8) 0.2512(6)
H21 H 0.1324 0.6147 0.2269
C43 C 0.7186(11) 0.3192(6) 0.3944(4)
C44 C 0.7850(13) 0.6062(10) 0.1262(5)
H22 H 0.7825 0.5844 0.0926
C45 C 0.6363(17) 0.4330(10) 0.1427(6)
H23 H 0.6636 0.4608 0.1035
C46 C 1.4082(14) 0.2366(9) 0.0009(5)
H24 H 1.4521 0.2765 -0.0313
C47 C 0.8184(17) 0.6587(10) 0.4075(5)
H25 H 0.9110 0.6610 0.4245
C48 C 0.8659(11) 0.3319(6) 0.3677(4)
C49 C 0.1813(14) 0.6821(8) 0.2842(8)
H26 H 0.0853 0.7175 0.2825
C50 C 0.9121(14) -0.0441(8) 0.0692(5)
H27 H 0.9163 -0.0962 0.0543
C51 C 0.2904(15) 0.6926(9) 0.3192(7)
H28 H 0.2696 0.7347 0.3423
C52 C 1.3313(13) 0.2729(9) 0.0425(6)
H29 H 1.3176 0.3376 0.0384
C53 C 0.5658(18) 0.3562(10) 0.1558(7)
H30 H 0.5421 0.3314 0.1252
C54 C 0.5654(18) 0.7160(9) 0.3847(6)
H31 H 0.4780 0.7573 0.3875
C55 C 0.9781(12) -0.1085(7) 0.3305(4)
H32 H 0.8850 -0.1309 0.3386
C56 C 1.0458(11) 0.1916(7) 0.2206(5)
H33 H 1.0145 0.1428 0.2511
N8 N 1.0257(12) 0.0428(7) 0.1266(4)
C57 C 0.9945(14) 0.2800(8) 0.2193(5)
H34 H 0.9275 0.2915 0.2488
C58 C 1.1976(15) -0.1845(8) 0.1023(5)
H35 H 1.1276 -0.1987 0.0783
C59 C 1.4214(13) 0.1451(9) 0.0057(4)
H36 H 1.4702 0.1222 -0.0243
C60 C 1.4235(14) -0.2216(8) 0.1553(5)
H37 H 1.5133 -0.2620 0.1692
C61 C 1.6335(12) 0.0760(7) 0.2452(4)
H38 H 1.7232 0.0983 0.2296
C62 C 1.6136(11) 0.0506(7) 0.3050(4)
C63 C 1.1360(14) 0.3347(8) 0.1346(5)
H39 H 1.1718 0.3833 0.1053
C64 C 1.3268(14) -0.2434(8) 0.1189(5)
H40 H 1.3497 -0.2975 0.1059
C65 C 1.3660(12) 0.0841(8) 0.0531(4)
H41 H 1.3786 0.0200 0.0556
C66 C 0.7915(14) 0.0234(10) 0.0576(5)
H42 H 0.7103 0.0179 0.0350
C67 C 0.7865(12) 0.0985(9) 0.0783(5)
H43 H 0.7030 0.1458 0.0683
C68 C 1.0367(14) 0.3540(8) 0.1766(6)
H44 H 0.9991 0.4160 0.1759
Y1_2 Y 1.79838(14) -0.04345(7) 0.49191(5)
Y1A Y 0.20162(14) 0.04345(7) 0.50809(5)
Y1A_2 Y 1.20162(14) 0.04345(7) 0.50809(5)
O3_2 O 0.7109(9) 0.0231(6) 0.3990(3)
O5A O 0.6081(8) -0.1292(5) 0.4869(3)
O7A O 0.7695(8) -0.1243(5) 0.5855(3)
O9A O 1.0197(11) -0.0394(8) 0.5539(6)
loop_
_geom_bond_atom_site_label_1
_geom_bond_atom_site_label_2
_geom_bond_site_symmetry_1
_geom_bond_site_symmetry_2
Ir1 N4 1_555 1_555
Ir2 N1 1_555 1_555
Y1 O2 1_555 1_555
O1 C35 1_555 1_555
O2 C35 1_555 1_555
O3 C14 1_555 1_555
O4 C14 1_555 1_555
O5 C20 1_555 1_555
O6 Y1 1_555 1_555
O7 C7 1_555 1_555
O8 C7 1_555 1_555
O9 Y1 1_555 1_555
N1 C21 1_555 1_555
N2 Ir2 1_555 1_555
N3 Ir2 1_555 1_555
C1 C18 1_555 1_555
N4 C25 1_555 1_555
N5 Ir1 1_555 1_555
N6 Ir1 1_555 1_555
N7 Ir1 1_555 1_555
C2 C7 1_555 1_555
C3 H1 1_555 1_555
C4 Ir1 1_555 1_555
C5 N6 1_555 1_555
H2 C5 1_555 1_555
C6 Ir2 1_555 1_555
C8 N7 1_555 1_555
H3 C8 1_555 1_555
C9 C13 1_555 1_555
C10 Ir1 1_555 1_555
C11 H4 1_555 1_555
C12 N5 1_555 1_555
H5 C12 1_555 1_555
C13 H6 1_555 1_555
C14 C62 1_555 1_555
C15 H7 1_555 1_555
C16 Ir2 1_555 1_555
C17 N2 1_555 1_555
H8 C17 1_555 1_555
C18 C16 1_555 1_555
C19 C2 1_555 1_555
H9 C19 1_555 1_555
C20 O6 1_555 1_555
C21 C31 1_555 1_555
C22 N1 1_555 1_555
H10 C22 1_555 1_555
C23 N6 1_555 1_555
C24 C12 1_555 1_555
H11 C24 1_555 1_555
C25 H12 1_555 1_555
C26 C20 1_555 1_555
C27 C26 1_555 1_555
H13 C27 1_555 1_555
C28 C2 1_555 1_555
H14 C28 1_555 1_555
C29 N7 1_555 1_555
C30 C6 1_555 1_555
C31 H15 1_555 1_555
C32 C10 1_555 1_555
C33 C4 1_555 1_555
C34 N2 1_555 1_555
C35 C9 1_555 1_555
C36 C10 1_555 1_555
H16 C36 1_555 1_555
C37 C11 1_555 1_555
H17 C37 1_555 1_555
C38 C16 1_555 1_555
H18 C38 1_555 1_555
C39 H19 1_555 1_555
C40 N3 1_555 1_555
C41 C5 1_555 1_555
H20 C41 1_555 1_555
C42 C8 1_555 1_555
H21 C42 1_555 1_555
C43 N5 1_555 1_555
C44 C32 1_555 1_555
H22 C44 1_555 1_555
C45 C23 1_555 1_555
H23 C45 1_555 1_555
C46 H24 1_555 1_555
C47 C3 1_555 1_555
H25 C47 1_555 1_555
C48 N4 1_555 1_555
C49 C42 1_555 1_555
H26 C49 1_555 1_555
C50 C1 1_555 1_555
H27 C50 1_555 1_555
C51 C29 1_555 1_555
H28 C51 1_555 1_555
C52 C30 1_555 1_555
H29 C52 1_555 1_555
C53 C41 1_555 1_555
H30 C53 1_555 1_555
C54 C33 1_555 1_555
H31 C54 1_555 1_555
C55 C9 1_555 1_555
H32 C55 1_555 1_555
C56 N3 1_555 1_555
H33 C56 1_555 1_555
N8 Ir2 1_555 1_555
C57 C56 1_555 1_555
H34 C57 1_555 1_555
C58 C18 1_555 1_555
H35 C58 1_555 1_555
C59 C46 1_555 1_555
H36 C59 1_555 1_555
C60 C38 1_555 1_555
H37 C60 1_555 1_555
C61 C22 1_555 1_555
H38 C61 1_555 1_555
C62 C31 1_555 1_555
C63 C40 1_555 1_555
H39 C63 1_555 1_555
C64 C58 1_555 1_555
H40 C64 1_555 1_555
C65 C6 1_555 1_555
H41 C65 1_555 1_555
C66 C50 1_555 1_555
H42 C66 1_555 1_555
C67 C15 1_555 1_555
H43 C67 1_555 1_555
C68 C57 1_555 1_555
H44 C68 1_555 1_555
Y1_2 O3 1_555 1_555
Y1A O5 1_555 1_555
Y1A_2 O7 1_555 1_555
O3_2 Y1 1_555 1_555
O5A Y1 1_555 1_555
O7A Y1 1_555 1_555
O9A Y1 1_555 1_555
O9 Y1A_2 1_555 1_555
C1 N8 1_555 1_555
C3 C4 1_555 1_555
C11 C36 1_555 1_555
C13 C34 1_555 1_555
C15 N8 1_555 1_555
C17 C55 1_555 1_555
C19 C48 1_555 1_555
C21 C34 1_555 1_555
C23 C32 1_555 1_555
C24 C26 1_555 1_555
C25 C28 1_555 1_555
C27 C43 1_555 1_555
C29 C33 1_555 1_555
C30 C40 1_555 1_555
C37 C44 1_555 1_555
C39 C47 1_555 1_555
C39 C54 1_555 1_555
C43 C48 1_555 1_555
C45 C53 1_555 1_555
C46 C52 1_555 1_555
C49 C51 1_555 1_555
C59 C65 1_555 1_555
C60 C64 1_555 1_555
C61 C62 1_555 1_555
C63 C68 1_555 1_555
C66 C67 1_555 1_555
Y1A_2 O9A 1_555 1_555

#END
