
#######################################################################
#
#                 Cambridge Crystallographic Data Centre
#                                CCDC 
#
#######################################################################
#
# If this CIF has been generated from an entry in the Cambridge 
# Structural Database, then it will include bibliographic, chemical, 
# crystal, experimental, refinement or atomic coordinate data resulting 
# from the CCDC's data processing and validation procedures.
#
#######################################################################

data_KOPBEW
_symmetry_cell_setting           orthorhombic
_symmetry_space_group_name_H-M   'P b c m'
_symmetry_Int_Tables_number      57
_space_group_name_Hall           '-P 2c 2b'
loop_
_symmetry_equiv_pos_site_id
_symmetry_equiv_pos_as_xyz
1 x,y,z
2 -x,-y,1/2+z
3 x,1/2-y,-z
4 -x,1/2+y,1/2-z
5 -x,-y,-z
6 x,y,1/2-z
7 -x,1/2+y,z
8 x,1/2-y,1/2+z
_cell_length_a                   4.284(4)
_cell_length_b                   14.770(12)
_cell_length_c                   13.170(11)
_cell_angle_alpha                90
_cell_angle_beta                 90
_cell_angle_gamma                90
_cell_volume                     833.328
loop_
_atom_site_label
_atom_site_type_symbol
_atom_site_fract_x
_atom_site_fract_y
_atom_site_fract_z
Cd1 Cd 0.9415(4) 0.6227(2) 0.2500
O1 O 0.5587(35) 0.7833(12) 0.2500
C1 C 0.4332(59) 0.8249(17) 0.1540(20)
C2 C 0.5160(28) 0.9210(14) 0.1660(11)
O2 O 0.6102(44) 0.4636(12) 0.2500
C3 C 0.9590(37) 0.6297(15) 0.0917(17)
H1 H 0.2132(59) 0.8175(17) 0.1499(20)
H2 H 0.5281(59) 0.7991(17) 0.0956(20)
H3 H 0.4476(28) 0.9523(14) 0.1071(11)
H4 H 0.7369(28) 0.9248(14) 0.1708(11)
H5 H 0.935(28) 0.5639(68) 0.077(12)
H6 H 1.158(22) 0.6570(18) 0.081(13)
H7 H 0.769(22) 0.6663(83) 0.082(12)
C3E C 0.9590(37) 0.6297(15) 0.4083(17)
C1E C 0.4332(59) 0.8249(17) 0.3460(20)
O2C O 0.3898(44) 0.9636(12) 0.2500
C2F C 0.4840(28) 0.4210(14) 0.1660(11)
C2C C 0.4840(28) 0.4210(14) 0.3340(11)
H5E H 0.935(28) 0.5639(68) 0.423(12)
H6E H 1.158(22) 0.6570(18) 0.419(13)
H7E H 0.769(22) 0.6663(83) 0.418(12)
C2E C 0.5160(28) 0.9210(14) 0.3340(11)
H1E H 0.2132(59) 0.8175(17) 0.3501(20)
H2E H 0.5281(59) 0.7991(17) 0.4044(20)
Cd1C Cd 0.0585(4) 1.1227(2) 0.2500
C1F C 0.5668(59) 0.3249(17) 0.1540(20)
H3F H 0.5524(28) 0.4523(14) 0.1071(11)
H4F H 0.2631(28) 0.4248(14) 0.1708(11)
C1C C 0.5668(59) 0.3249(17) 0.3460(20)
H3C H 0.5524(28) 0.4523(14) 0.3929(11)
H4C H 0.2631(28) 0.4248(14) 0.3292(11)
H3E H 0.4476(28) 0.9523(14) 0.3929(11)
H4E H 0.7369(28) 0.9248(14) 0.3292(11)
O1C O 0.4413(35) 1.2833(12) 0.2500
C3F C 0.0410(37) 1.1297(15) 0.0917(17)
C3C C 0.0410(37) 1.1297(15) 0.4083(17)
O1C_2 O 0.4413(35) 0.2833(12) 0.2500
H1F H 0.7868(59) 0.3175(17) 0.1499(20)
H2F H 0.4719(59) 0.2991(17) 0.0956(20)
H1C H 0.7868(59) 0.3175(17) 0.3501(20)
H2C H 0.4719(59) 0.2991(17) 0.4044(20)
H5F H 0.065(28) 1.0639(68) 0.077(12)
H6F H -0.158(22) 1.1570(18) 0.081(13)
H7F H 0.231(22) 1.1663(83) 0.082(12)
H5C H 0.065(28) 1.0639(68) 0.423(12)
H6C H -0.158(22) 1.1570(18) 0.419(13)
H7C H 0.231(22) 1.1663(83) 0.418(12)
Cd1C_2 Cd 0.0585(4) 0.1227(2) 0.2500
loop_
_geom_bond_atom_site_label_1
_geom_bond_atom_site_label_2
_geom_bond_site_symmetry_1
_geom_bond_site_symmetry_2
Cd1 O1 1_555 1_555
O1 C1 1_555 1_555
C1 C2 1_555 1_555
C2 H3 1_555 1_555
O2 Cd1 1_555 1_555
C3 Cd1 1_555 1_555
H1 C1 1_555 1_555
H2 C1 1_555 1_555
H4 C2 1_555 1_555
H5 C3 1_555 1_555
H6 C3 1_555 1_555
H7 C3 1_555 1_555
C3E Cd1 1_555 1_555
C1E O1 1_555 1_555
O2C C2 1_555 1_555
C2F O2 1_555 1_555
C2C O2 1_555 1_555
H5E C3E 1_555 1_555
H6E C3E 1_555 1_555
H7E C3E 1_555 1_555
C2E C1E 1_555 1_555
H1E C1E 1_555 1_555
H2E C1E 1_555 1_555
Cd1C O2C 1_555 1_555
C1F C2F 1_555 1_555
H3F C2F 1_555 1_555
H4F C2F 1_555 1_555
C1C C2C 1_555 1_555
H3C C2C 1_555 1_555
H4C C2C 1_555 1_555
H3E C2E 1_555 1_555
H4E C2E 1_555 1_555
O1C Cd1C 1_555 1_555
C3F Cd1C 1_555 1_555
C3C Cd1C 1_555 1_555
O1C_2 C1F 1_555 1_555
H1F C1F 1_555 1_555
H2F C1F 1_555 1_555
H1C C1C 1_555 1_555
H2C C1C 1_555 1_555
H5F C3F 1_555 1_555
H6F C3F 1_555 1_555
H7F C3F 1_555 1_555
H5C C3C 1_555 1_555
H6C C3C 1_555 1_555
H7C C3C 1_555 1_555
Cd1C_2 O1C_2 1_555 1_555
O2C C2E 1_555 1_555
C1C O1C_2 1_555 1_555

#END
