
#######################################################################
#
#                 Cambridge Crystallographic Data Centre
#                                CCDC 
#
#######################################################################
#
# If this CIF has been generated from an entry in the Cambridge 
# Structural Database, then it will include bibliographic, chemical, 
# crystal, experimental, refinement or atomic coordinate data resulting 
# from the CCDC's data processing and validation procedures.
#
#######################################################################

data_KOPFOM
_symmetry_cell_setting           orthorhombic
_symmetry_space_group_name_H-M   'P b a 2'
_symmetry_Int_Tables_number      32
_space_group_name_Hall           'P 2 -2ab'
loop_
_symmetry_equiv_pos_site_id
_symmetry_equiv_pos_as_xyz
1 x,y,z
2 -x,-y,z
3 1/2-x,1/2+y,z
4 1/2+x,1/2-y,z
_cell_length_a                   22.533(4)
_cell_length_b                   23.066(5)
_cell_length_c                   14.201(3)
_cell_angle_alpha                90
_cell_angle_beta                 90
_cell_angle_gamma                90
_cell_volume                     7380.92
loop_
_atom_site_label
_atom_site_type_symbol
_atom_site_fract_x
_atom_site_fract_y
_atom_site_fract_z
Cu4 Cu 0.25474(3) 0.25082(3) 0.92614(6)
Cu5 Cu 0.20445(3) 0.44030(3) 0.97174(5)
Cu6 Cu 0.26449(3) 0.62910(3) 0.99325(6)
O9 O 0.19506(17) 0.20416(15) 0.9879(4)
O10 O 0.14460(18) 0.38349(15) 1.0009(3)
O11 O 0.3145(2) 0.30528(17) 0.8805(4)
O12 O 0.14670(17) 0.49917(15) 0.9378(4)
O13 O 0.31812(19) 0.57448(16) 1.0545(3)
O14 O 0.20388(16) 0.67459(15) 0.9287(3)
N6 N 0.2195(2) 0.32004(18) 0.9703(4)
N7 N 0.25104(19) 0.37079(18) 0.9468(4)
N8 N 0.2527(2) 0.50861(19) 0.9948(5)
N9 N 0.2235(2) 0.55944(18) 0.9640(4)
C33 C 0.1404(3) 0.2226(2) 1.0167(5)
C34 C 0.0985(3) 0.1822(2) 1.0432(6)
H28 H 0.1082 0.1430 1.0404
C35 C 0.0425(3) 0.1979(3) 1.0738(7)
H29 H 0.0149 0.1698 1.0909
C36 C 0.0281(3) 0.2561(3) 1.0785(7)
H30 H -0.0087 0.2676 1.1015
C37 C 0.0687(3) 0.2970(3) 1.0491(5)
H31 H 0.0576 0.3358 1.0487
C38 C 0.1248(2) 0.2824(2) 1.0204(4)
C39 C 0.1651(3) 0.3303(2) 0.9941(5)
C40 C 0.2987(3) 0.3581(2) 0.8994(5)
C41 C 0.3387(3) 0.4049(2) 0.8629(5)
C42 C 0.3465(3) 0.4102(3) 0.7665(5)
H32 H 0.3274 0.3849 0.7255
C43 C 0.3824(4) 0.4531(3) 0.7319(6)
H33 H 0.3869 0.4572 0.6671
C44 C 0.4119(3) 0.4903(3) 0.7916(6)
H34 H 0.4365 0.5192 0.7675
C45 C 0.4047(3) 0.4843(3) 0.8873(6)
H35 H 0.4245 0.5093 0.9278
C46 C 0.3687(3) 0.4421(2) 0.9240(5)
C47 C 0.3658(3) 0.4341(2) 1.0288(5)
C48 C 0.3948(3) 0.3874(3) 1.0758(6)
H36 H 0.4149 0.3596 1.0406
C49 C 0.3935(4) 0.3829(3) 1.1707(6)
H37 H 0.4125 0.3519 1.2000
C50 C 0.3657(4) 0.4219(4) 1.2222(6)
H38 H 0.3665 0.4182 1.2874
C51 C 0.3352(3) 0.4683(3) 1.1829(5)
H39 H 0.3156 0.4951 1.2207
C52 C 0.3349(3) 0.4736(2) 1.0860(5)
C53 C 0.3018(3) 0.5223(2) 1.0431(5)
C54 C 0.1689(3) 0.5497(2) 0.9392(5)
C55 C 0.1304(3) 0.5985(2) 0.9114(4)
C56 C 0.0715(3) 0.5856(3) 0.8921(5)
H40 H 0.0601 0.5468 0.8914
C57 C 0.0291(3) 0.6268(3) 0.8739(5)
H41 H -0.0099 0.6161 0.8612
C58 C 0.0459(3) 0.6847(3) 0.8748(6)
H42 H 0.0182 0.7137 0.8630
C59 C 0.1049(3) 0.6986(3) 0.8938(5)
H43 H 0.1159 0.7375 0.8936
C60 C 0.1475(2) 0.6579(2) 0.9127(4)
O15 O 0.2090(2) 0.2489(2) 0.7876(4)
H44 H 0.1712(10) 0.252(3) 0.791(5)
H45 H 0.216(3) 0.228(3) 0.740(4)
O16 O 0.2284(4) 0.6599(3) 1.1560(6)
N10 N 0.2517(5) 0.7479(4) 1.2114(7)
C61 C 0.2164(5) 0.7111(5) 1.1711(7)
C62 C 0.2406(6) 0.8085(5) 1.2244(13)
H46 H 0.2504 0.8291 1.1678
H47 H 0.2644 0.8228 1.2754
H48 H 0.1994 0.8143 1.2389
C63 C 0.1577(6) 0.7346(6) 1.1369(9)
H49 H 0.1371 0.7050 1.1024
H50 H 0.1646 0.7673 1.0966
H51 H 0.1342 0.7464 1.1899
C64 C 0.3131(5) 0.7220(6) 1.2495(9)
H52 H 0.3115 0.6804 1.2484
H53 H 0.3197 0.7350 1.3129
H54 H 0.3451 0.7350 1.2102
Cu4B Cu 0.24526(3) 0.75082(3) 0.92614(6)
Cu6B Cu 0.23551(3) 0.12910(3) 0.99325(6)
O9B O 0.30494(17) 0.70416(15) 0.9879(4)
O14B O 0.29612(16) 0.17459(15) 0.9287(3)
O17 O 0.0878(4) 0.2330(4) 0.7580(7)
N11 N -0.0017(4) 0.2351(5) 0.6947(7)
C65 C 0.0377(6) 0.2143(6) 0.7438(8)
C66 C 0.0149(8) 0.1579(6) 0.7979(11)
H55 H 0.0465 0.1424 0.8356
H56 H 0.0024 0.1293 0.7530
H57 H -0.0179 0.1681 0.8378
C67 C 0.0168(6) 0.2895(4) 0.6421(9)
H58 H 0.0577 0.2980 0.6556
H59 H -0.0075 0.3214 0.6619
H60 H 0.0120 0.2835 0.5757
C68 C -0.0632(4) 0.2162(5) 0.6817(8)
H61 H -0.0700 0.1814 0.7172
H62 H -0.0702 0.2087 0.6161
H63 H -0.0896 0.2460 0.7031
Cu1 Cu 0.23951(3) 0.22107(3) 0.50570(5)
Cu2 Cu 0.29441(3) 0.41147(2) 0.48458(6)
Cu3 Cu 0.23776(3) 0.59962(3) 0.44157(5)
O1 O 0.29991(16) 0.17704(14) 0.4403(3)
O2 O 0.18309(18) 0.27347(15) 0.5641(3)
O3 O 0.35231(17) 0.35551(15) 0.4485(3)
O4 O 0.35462(17) 0.46897(14) 0.5007(4)
O5 O 0.17542(19) 0.54362(16) 0.4122(4)
O6 O 0.30204(16) 0.64718(13) 0.4865(4)
N1 N 0.2792(2) 0.29231(17) 0.4824(4)
N2 N 0.2490(2) 0.34143(18) 0.5167(4)
N3 N 0.24543(18) 0.47958(18) 0.4631(4)
N4 N 0.2781(2) 0.53121(16) 0.4813(4)
C1 C 0.3527(3) 0.1965(2) 0.4087(5)
C2 C 0.3923(3) 0.1586(3) 0.3674(7)
H1 H 0.3818 0.1197 0.3624
C3 C 0.4459(3) 0.1756(3) 0.3338(7)
H2 H 0.4709 0.1484 0.3060
C4 C 0.4639(3) 0.2331(3) 0.3403(7)
H3 H 0.5014 0.2444 0.3202
C5 C 0.4254(3) 0.2724(2) 0.3766(5)
H4 H 0.4366 0.3112 0.3787
C6 C 0.3684(2) 0.2566(2) 0.4115(5)
C7 C 0.3324(3) 0.3031(2) 0.4497(4)
C8 C 0.1989(3) 0.3265(2) 0.5569(4)
C9 C 0.1606(3) 0.3714(2) 0.6013(5)
C10 C 0.1572(3) 0.3752(3) 0.6985(5)
H5 H 0.1795 0.3506 0.7365
C11 C 0.1198(3) 0.4166(3) 0.7382(5)
H6 H 0.1178 0.4200 0.8033
C12 C 0.0862(3) 0.4520(3) 0.6838(6)
H7 H 0.0603 0.4781 0.7120
C13 C 0.0902(3) 0.4496(3) 0.5861(5)
H8 H 0.0685 0.4753 0.5493
C14 C 0.1269(3) 0.4081(2) 0.5433(5)
C15 C 0.1299(2) 0.4025(2) 0.4402(5)
C16 C 0.0997(3) 0.3578(3) 0.3945(5)
H9 H 0.0808 0.3294 0.4301
C17 C 0.0972(3) 0.3548(3) 0.2965(6)
H10 H 0.0756 0.3254 0.2676
C18 C 0.1262(4) 0.3946(3) 0.2427(6)
H11 H 0.1258 0.3917 0.1774
C19 C 0.1569(3) 0.4402(3) 0.2874(5)
H12 H 0.1763 0.4682 0.2516
C20 C 0.1580(3) 0.4432(2) 0.3837(5)
C21 C 0.1943(2) 0.4917(2) 0.4243(4)
C22 C 0.3343(2) 0.5214(2) 0.4959(5)
C23 C 0.3757(2) 0.5706(2) 0.5059(4)
C24 C 0.4359(3) 0.5581(2) 0.5182(5)
H13 H 0.4473 0.5195 0.5245
C25 C 0.4781(3) 0.5991(2) 0.5212(5)
H14 H 0.5178 0.5893 0.5294
C26 C 0.4610(3) 0.6569(2) 0.5118(5)
H15 H 0.4897 0.6859 0.5121
C27 C 0.4033(2) 0.6715(2) 0.5021(5)
H16 H 0.3930 0.7105 0.4986
C28 C 0.3590(2) 0.6301(2) 0.4974(4)
O7 O 0.2643(5) 0.5874(4) 0.2860(5)
H17 H 0.267(6) 0.617(4) 0.246(8)
H18 H 0.244(6) 0.564(4) 0.253(8)
O8 O 0.2718(2) 0.1852(2) 0.6562(4)
N5 N 0.2582(5) 0.0918(3) 0.7027(6)
C29 C 0.1943(4) 0.1083(4) 0.7283(6)
H19 H 0.1921 0.1174 0.7942
H20 H 0.1683 0.0764 0.7146
H21 H 0.1824 0.1415 0.6921
C30 C 0.3556(4) 0.1183(4) 0.6436(6)
H22 H 0.3579 0.0784 0.6248
H23 H 0.3803 0.1245 0.6977
H24 H 0.3689 0.1426 0.5928
C31 C 0.2922(5) 0.1333(4) 0.6678(6)
C32 C 0.2759(5) 0.0317(3) 0.7127(8)
H25 H 0.2453 0.0071 0.6880
H26 H 0.2820 0.0231 0.7781
H27 H 0.3120 0.0252 0.6785
Cu1B Cu 0.26049(3) 0.72107(3) 0.50570(5)
Cu3B Cu 0.26224(3) 0.09962(3) 0.44157(5)
O1B O 0.20009(16) 0.67704(14) 0.4403(3)
O6B O 0.19796(16) 0.14718(13) 0.4865(4)
loop_
_geom_bond_atom_site_label_1
_geom_bond_atom_site_label_2
_geom_bond_site_symmetry_1
_geom_bond_site_symmetry_2
Cu1 O1 1_555 1_555
Cu2 O3 1_555 1_555
Cu3 O5 1_555 1_555
O1 C1 1_555 1_555
O2 Cu1 1_555 1_555
O3 C7 1_555 1_555
O4 Cu2 1_555 1_555
O5 C21 1_555 1_555
O6 Cu3 1_555 1_555
N1 Cu1 1_555 1_555
N2 Cu2 1_555 1_555
N3 Cu2 1_555 1_555
N4 Cu3 1_555 1_555
C1 C2 1_555 1_555
C2 H1 1_555 1_555
C3 C2 1_555 1_555
H2 C3 1_555 1_555
C4 C3 1_555 1_555
H3 C4 1_555 1_555
C5 C4 1_555 1_555
H4 C5 1_555 1_555
C6 C1 1_555 1_555
C7 N1 1_555 1_555
C8 O2 1_555 1_555
C9 C8 1_555 1_555
C10 C9 1_555 1_555
H5 C10 1_555 1_555
C11 C10 1_555 1_555
H6 C11 1_555 1_555
C12 C11 1_555 1_555
H7 C12 1_555 1_555
C13 C12 1_555 1_555
H8 C13 1_555 1_555
C14 C9 1_555 1_555
C15 C14 1_555 1_555
C16 C15 1_555 1_555
H9 C16 1_555 1_555
C17 C16 1_555 1_555
H10 C17 1_555 1_555
C18 C17 1_555 1_555
H11 C18 1_555 1_555
C19 C18 1_555 1_555
H12 C19 1_555 1_555
C20 C15 1_555 1_555
C21 N3 1_555 1_555
C22 O4 1_555 1_555
C23 C22 1_555 1_555
C24 C23 1_555 1_555
H13 C24 1_555 1_555
C25 C24 1_555 1_555
H14 C25 1_555 1_555
C26 C25 1_555 1_555
H15 C26 1_555 1_555
C27 C26 1_555 1_555
H16 C27 1_555 1_555
C28 O6 1_555 1_555
O7 Cu3 1_555 1_555
H17 O7 1_555 1_555
H18 O7 1_555 1_555
O8 Cu1 1_555 1_555
N5 C29 1_555 1_555
C29 H19 1_555 1_555
H20 C29 1_555 1_555
H21 C29 1_555 1_555
C30 H22 1_555 1_555
H23 C30 1_555 1_555
H24 C30 1_555 1_555
C31 O8 1_555 1_555
C32 N5 1_555 1_555
H25 C32 1_555 1_555
H26 C32 1_555 1_555
H27 C32 1_555 1_555
Cu4 O9 1_555 1_555
Cu5 O10 1_555 1_555
Cu6 O13 1_555 1_555
O9 C33 1_555 1_555
O10 C39 1_555 1_555
O11 Cu4 1_555 1_555
O12 Cu5 1_555 1_555
O13 C53 1_555 1_555
O14 Cu6 1_555 1_555
N6 Cu4 1_555 1_555
N7 Cu5 1_555 1_555
N8 Cu5 1_555 1_555
N9 Cu6 1_555 1_555
C33 C34 1_555 1_555
C34 H28 1_555 1_555
C35 C34 1_555 1_555
H29 C35 1_555 1_555
C36 C35 1_555 1_555
H30 C36 1_555 1_555
C37 C36 1_555 1_555
H31 C37 1_555 1_555
C38 C33 1_555 1_555
C39 N6 1_555 1_555
C40 O11 1_555 1_555
C41 C40 1_555 1_555
C42 C41 1_555 1_555
H32 C42 1_555 1_555
C43 C42 1_555 1_555
H33 C43 1_555 1_555
C44 C43 1_555 1_555
H34 C44 1_555 1_555
C45 C44 1_555 1_555
H35 C45 1_555 1_555
C46 C41 1_555 1_555
C47 C46 1_555 1_555
C48 C47 1_555 1_555
H36 C48 1_555 1_555
C49 C48 1_555 1_555
H37 C49 1_555 1_555
C50 C49 1_555 1_555
H38 C50 1_555 1_555
C51 C50 1_555 1_555
H39 C51 1_555 1_555
C52 C47 1_555 1_555
C53 N8 1_555 1_555
C54 O12 1_555 1_555
C55 C54 1_555 1_555
C56 C55 1_555 1_555
H40 C56 1_555 1_555
C57 C56 1_555 1_555
H41 C57 1_555 1_555
C58 C57 1_555 1_555
H42 C58 1_555 1_555
C59 C58 1_555 1_555
H43 C59 1_555 1_555
C60 O14 1_555 1_555
O15 Cu4 1_555 1_555
H44 O15 1_555 1_555
H45 O15 1_555 1_555
O16 Cu6 1_555 1_555
N10 C61 1_555 1_555
C61 O16 1_555 1_555
C62 N10 1_555 1_555
H46 C62 1_555 1_555
H47 C62 1_555 1_555
H48 C62 1_555 1_555
C63 C61 1_555 1_555
H49 C63 1_555 1_555
H50 C63 1_555 1_555
H51 C63 1_555 1_555
C64 N10 1_555 1_555
H52 C64 1_555 1_555
H53 C64 1_555 1_555
H54 C64 1_555 1_555
O17 C65 1_555 1_555
N11 C65 1_555 1_555
C65 C66 1_555 1_555
C66 H55 1_555 1_555
H56 C66 1_555 1_555
H57 C66 1_555 1_555
C67 N11 1_555 1_555
H58 C67 1_555 1_555
H59 C67 1_555 1_555
H60 C67 1_555 1_555
C68 N11 1_555 1_555
H61 C68 1_555 1_555
H62 C68 1_555 1_555
H63 C68 1_555 1_555
Cu1B O6 1_555 1_555
Cu3B O1 1_555 1_555
O1B Cu3 1_555 1_555
O6B Cu1 1_555 1_555
Cu4B O14 1_555 1_555
Cu6B O9 1_555 1_555
O9B Cu6 1_555 1_555
O14B Cu4 1_555 1_555
N1 N2 1_555 1_555
N2 C8 1_555 1_555
N3 N4 1_555 1_555
N4 C22 1_555 1_555
C5 C6 1_555 1_555
C6 C7 1_555 1_555
C13 C14 1_555 1_555
C19 C20 1_555 1_555
C20 C21 1_555 1_555
C23 C28 1_555 1_555
C27 C28 1_555 1_555
N5 C31 1_555 1_555
C30 C31 1_555 1_555
N6 N7 1_555 1_555
N7 C40 1_555 1_555
N8 N9 1_555 1_555
N9 C54 1_555 1_555
C37 C38 1_555 1_555
C38 C39 1_555 1_555
C45 C46 1_555 1_555
C51 C52 1_555 1_555
C52 C53 1_555 1_555
C55 C60 1_555 1_555
C59 C60 1_555 1_555
Cu1B O1B 1_555 1_555
Cu3B O6B 1_555 1_555
Cu4B O9B 1_555 1_555
Cu6B O14B 1_555 1_555

#END
