
#######################################################################
#
#                 Cambridge Crystallographic Data Centre
#                                CCDC 
#
#######################################################################
#
# If this CIF has been generated from an entry in the Cambridge 
# Structural Database, then it will include bibliographic, chemical, 
# crystal, experimental, refinement or atomic coordinate data resulting 
# from the CCDC's data processing and validation procedures.
#
#######################################################################

data_KOPFUS
_symmetry_cell_setting           monoclinic
_symmetry_space_group_name_H-M   'P 21/c'
_symmetry_Int_Tables_number      14
_space_group_name_Hall           '-P 2ybc'
loop_
_symmetry_equiv_pos_site_id
_symmetry_equiv_pos_as_xyz
1 x,y,z
2 -x,1/2+y,1/2-z
3 -x,-y,-z
4 x,1/2-y,1/2+z
_cell_length_a                   14.760(3)
_cell_length_b                   14.693(3)
_cell_length_c                   18.395(4)
_cell_angle_alpha                90
_cell_angle_beta                 98.88(3)
_cell_angle_gamma                90
_cell_volume                     3941.48
loop_
_atom_site_label
_atom_site_type_symbol
_atom_site_fract_x
_atom_site_fract_y
_atom_site_fract_z
Cu1 Cu 0.57234(3) 0.41724(3) 0.039540(19)
Cu2 Cu 0.80914(2) 0.50577(3) 0.214659(18)
Cu3 Cu 0.93067(2) 0.57143(3) 0.452783(18)
O1 O 0.57427(17) 0.49423(16) -0.04375(12)
O2 O 0.57897(15) 0.35136(14) 0.13415(11)
O3 O 0.80653(16) 0.55586(16) 0.11794(11)
O4 O 0.94061(15) 0.51032(16) 0.23747(11)
O5 O 0.79640(15) 0.57923(15) 0.43181(11)
O6 O 1.05988(14) 0.55661(15) 0.46074(11)
N1 N 0.66806(17) 0.48514(17) 0.09637(12)
N2 N 0.69261(18) 0.45493(17) 0.16943(12)
N3 N 0.81962(16) 0.52124(17) 0.32141(13)
N4 N 0.91203(16) 0.52585(17) 0.35442(13)
N5 N 0.4966(2) 0.32144(19) -0.02017(14)
N6 N 0.9420(2) 0.65487(18) 0.54001(14)
C1 C 0.6450(2) 0.5430(2) -0.05617(16)
C2 C 0.6439(3) 0.5776(2) -0.12734(18)
H1 H 0.5938 0.5647 -0.1630
C3 C 0.7129(3) 0.6291(3) -0.14644(18)
H2 H 0.7100 0.6495 -0.1946
C4 C 0.7878(3) 0.6516(3) -0.09421(19)
H3 H 0.8349 0.6876 -0.1066
C5 C 0.7908(3) 0.6197(3) -0.02431(19)
H4 H 0.8412 0.6343 0.0107
C6 C 0.7215(2) 0.5662(2) -0.00306(16)
C7 C 0.7330(2) 0.5347(2) 0.07388(16)
C8 C 0.6421(2) 0.3846(2) 0.18244(15)
C9 C 0.6625(2) 0.3394(2) 0.25577(16)
C10 C 0.6913(3) 0.2497(2) 0.2592(2)
H5 H 0.6983 0.2190 0.2162
C11 C 0.7098(3) 0.2056(3) 0.3258(2)
H6 H 0.7294 0.1454 0.3277
C12 C 0.6993(3) 0.2501(3) 0.3888(2)
H7 H 0.7116 0.2200 0.4337
C13 C 0.6707(3) 0.3394(3) 0.38676(18)
H8 H 0.6639 0.3692 0.4302
C14 C 0.6518(2) 0.3851(2) 0.31968(16)
C15 C 0.6130(2) 0.4792(2) 0.31727(15)
C16 C 0.5198(2) 0.4909(3) 0.29179(17)
H9 H 0.4839 0.4404 0.2765
C17 C 0.4802(2) 0.5752(3) 0.28890(19)
H10 H 0.4182 0.5818 0.2706
C18 C 0.5321(2) 0.6507(3) 0.31315(18)
H11 H 0.5051 0.7080 0.3114
C19 C 0.6244(2) 0.6406(2) 0.34008(17)
H12 H 0.6593 0.6910 0.3575
C20 C 0.6653(2) 0.5551(2) 0.34112(15)
C21 C 0.7658(2) 0.5507(2) 0.36699(15)
C22 C 0.9697(2) 0.5203(2) 0.30664(15)
C23 C 1.0689(2) 0.5267(2) 0.33231(16)
C24 C 1.1283(2) 0.5132(2) 0.28049(18)
H13 H 1.1031 0.5001 0.2321
C25 C 1.2212(2) 0.5183(3) 0.2980(2)
H14 H 1.2587 0.5090 0.2624
C26 C 1.2587(2) 0.5379(3) 0.37073(19)
H15 H 1.3220 0.5419 0.3839
C27 C 1.2030(2) 0.5513(2) 0.42263(18)
H16 H 1.2294 0.5650 0.4706
C28 C 1.1070(2) 0.5448(2) 0.40576(15)
C29 C 0.4680(4) 0.2494(3) 0.0113(2)
H17 H 0.4848 0.2429 0.0619
C30 C 0.4143(5) 0.1826(4) -0.0265(2)
H18 H 0.3962 0.1320 -0.0019
C31 C 0.3885(3) 0.1920(3) -0.0997(2)
H19 H 0.3533 0.1476 -0.1269
C32 C 0.4151(3) 0.2671(3) -0.1323(2)
H20 H 0.3968 0.2759 -0.1825
C33 C 0.4688(3) 0.3306(3) -0.09196(18)
H21 H 0.4866 0.3820 -0.1156
C34 C 0.8695(3) 0.6783(3) 0.57017(19)
H22 H 0.8128 0.6541 0.5506
C35 C 0.8743(3) 0.7369(3) 0.6291(2)
H23 H 0.8216 0.7518 0.6485
C36 C 0.9552(4) 0.7719(4) 0.6581(3)
H24 H 0.9596 0.8129 0.6970
C37 C 1.0310(4) 0.7464(4) 0.6297(3)
H25 H 1.0884 0.7683 0.6502
C38 C 1.0225(3) 0.6886(3) 0.5710(2)
H26 H 1.0749 0.6721 0.5519
Cu1B Cu 0.42766(3) 0.58276(3) -0.039540(19)
Cu3B Cu 1.06933(2) 0.42857(3) 0.547217(18)
O1B O 0.42573(17) 0.50577(16) 0.04375(12)
O6B O 0.94012(14) 0.44339(15) 0.53926(11)
O7 O 0.7575(5) 0.2948(5) 0.0626(4)
N7 N 0.9033(5) 0.3307(5) 0.0977(4)
C39 C 0.9601(7) 0.2899(5) 0.1569(5)
H27 H 0.9233 0.2546 0.1853
H28 H 0.9921 0.3362 0.1875
H29 H 1.0036 0.2509 0.1386
C40 C 0.9433(8) 0.3989(7) 0.0582(5)
H30 H 0.9007 0.4163 0.0157
H31 H 0.9982 0.3756 0.0430
H32 H 0.9582 0.4510 0.0893
C41 C 0.8201(10) 0.2881(10) 0.0996(7)
H33 H 0.8187 0.2482 0.1386
C42? C 0.8178(17) 0.3399(11) 0.0492(12)
H34? H 0.8108 0.3797 0.0094
loop_
_geom_bond_atom_site_label_1
_geom_bond_atom_site_label_2
_geom_bond_site_symmetry_1
_geom_bond_site_symmetry_2
Cu1 O1 1_555 1_555
Cu2 O3 1_555 1_555
Cu3 O5 1_555 1_555
O1 C1 1_555 1_555
O2 Cu1 1_555 1_555
O3 C7 1_555 1_555
O4 Cu2 1_555 1_555
O5 C21 1_555 1_555
O6 Cu3 1_555 1_555
N1 Cu1 1_555 1_555
N2 Cu2 1_555 1_555
N3 Cu2 1_555 1_555
N4 Cu3 1_555 1_555
N5 Cu1 1_555 1_555
N6 Cu3 1_555 1_555
C1 C2 1_555 1_555
C2 H1 1_555 1_555
C3 C2 1_555 1_555
H2 C3 1_555 1_555
C4 C3 1_555 1_555
H3 C4 1_555 1_555
C5 C4 1_555 1_555
H4 C5 1_555 1_555
C6 C1 1_555 1_555
C7 N1 1_555 1_555
C8 O2 1_555 1_555
C9 C8 1_555 1_555
C10 C9 1_555 1_555
H5 C10 1_555 1_555
C11 C10 1_555 1_555
H6 C11 1_555 1_555
C12 C11 1_555 1_555
H7 C12 1_555 1_555
C13 C12 1_555 1_555
H8 C13 1_555 1_555
C14 C9 1_555 1_555
C15 C14 1_555 1_555
C16 C15 1_555 1_555
H9 C16 1_555 1_555
C17 C16 1_555 1_555
H10 C17 1_555 1_555
C18 C17 1_555 1_555
H11 C18 1_555 1_555
C19 C18 1_555 1_555
H12 C19 1_555 1_555
C20 C15 1_555 1_555
C21 N3 1_555 1_555
C22 O4 1_555 1_555
C23 C22 1_555 1_555
C24 C23 1_555 1_555
H13 C24 1_555 1_555
C25 C24 1_555 1_555
H14 C25 1_555 1_555
C26 C25 1_555 1_555
H15 C26 1_555 1_555
C27 C26 1_555 1_555
H16 C27 1_555 1_555
C28 O6 1_555 1_555
C29 N5 1_555 1_555
H17 C29 1_555 1_555
C30 C29 1_555 1_555
H18 C30 1_555 1_555
C31 C30 1_555 1_555
H19 C31 1_555 1_555
C32 C31 1_555 1_555
H20 C32 1_555 1_555
C33 N5 1_555 1_555
H21 C33 1_555 1_555
C34 N6 1_555 1_555
H22 C34 1_555 1_555
C35 C34 1_555 1_555
H23 C35 1_555 1_555
C36 C35 1_555 1_555
H24 C36 1_555 1_555
C37 C36 1_555 1_555
H25 C37 1_555 1_555
C38 N6 1_555 1_555
H26 C38 1_555 1_555
O7 C41 1_555 1_555
N7 C39 1_555 1_555
C39 H27 1_555 1_555
H28 C39 1_555 1_555
H29 C39 1_555 1_555
C40 N7 1_555 1_555
H30 C40 1_555 1_555
H31 C40 1_555 1_555
H32 C40 1_555 1_555
C41 N7 1_555 1_555
H33 C41 1_555 1_555
Cu1B O1 1_555 1_555
Cu3B O6 1_555 1_555
O1B Cu1 1_555 1_555
O6B Cu3 1_555 1_555
N1 N2 1_555 1_555
N2 C8 1_555 1_555
N3 N4 1_555 1_555
N4 C22 1_555 1_555
C5 C6 1_555 1_555
C6 C7 1_555 1_555
C13 C14 1_555 1_555
C19 C20 1_555 1_555
C20 C21 1_555 1_555
C23 C28 1_555 1_555
C27 C28 1_555 1_555
C32 C33 1_555 1_555
C37 C38 1_555 1_555
Cu1B O1B 1_555 1_555
Cu3B O6B 1_555 1_555

#END
