
#######################################################################
#
#                 Cambridge Crystallographic Data Centre
#                                CCDC 
#
#######################################################################
#
# If this CIF has been generated from an entry in the Cambridge 
# Structural Database, then it will include bibliographic, chemical, 
# crystal, experimental, refinement or atomic coordinate data resulting 
# from the CCDC's data processing and validation procedures.
#
#######################################################################

data_KOPYIZ
_symmetry_cell_setting           monoclinic
_symmetry_space_group_name_H-M   'C 2/c'
_symmetry_Int_Tables_number      15
_space_group_name_Hall           '-C 2yn'
loop_
_symmetry_equiv_pos_site_id
_symmetry_equiv_pos_as_xyz
1 x,y,z
2 -x,y,1/2-z
3 1/2+x,1/2+y,z
4 1/2-x,1/2+y,1/2-z
5 -x,-y,-z
6 x,-y,1/2+z
7 1/2-x,1/2-y,-z
8 1/2+x,1/2-y,1/2+z
_cell_length_a                   17.5227(16)
_cell_length_b                   11.7243(10)
_cell_length_c                   16.7131(15)
_cell_angle_alpha                90
_cell_angle_beta                 112.255(2)
_cell_angle_gamma                90
_cell_volume                     3177.79
loop_
_atom_site_label
_atom_site_type_symbol
_atom_site_fract_x
_atom_site_fract_y
_atom_site_fract_z
C1 C 0.4129(11) 0.1964(14) 0.6039(12)
C2 C 0.377(2) 0.131(3) 0.652(2)
H1 H 0.4046 0.1462 0.7121
H2 H 0.3823 0.0510 0.6410
H3 H 0.3197 0.1497 0.6337
C3 C 0.7728(17) 0.4778(17) 0.4267(17)
C4 C 0.817(2) 0.536(3) 0.373(3)
C5 C 0.784(2) 0.632(3) 0.328(3)
H4 H 0.7797 0.6877 0.3688
H5 H 0.7285 0.6139 0.2891
C6 C 0.8243(14) 0.6916(18) 0.2749(16)
N1 N 0.8710(16) 0.758(2) 0.1809(15)
N2 N 0.8625(14) 0.7925(17) 0.3009(14)
H6 H 0.8670 0.8264 0.3481
O1 O 0.6553(9) 0.5581(15) 0.5753(11)
O2 O 0.5280(10) 0.4838(16) 0.3586(11)
O3 O 0.5231(8) 0.1644(13) 0.4411(11)
O4 O 0.6444(11) 0.2622(15) 0.6534(11)
O5 O 0.6532(8) 0.3364(11) 0.4856(10)
O6 O 0.5187(8) 0.3903(11) 0.5162(10)
O7 O 0.4766(15) 0.1570(17) 0.5925(19)
O8 O 0.7112(14) 0.5278(15) 0.4250(15)
C7 C 0.8298(15) 0.671(2) 0.2010(17)
H7 H 0.8089 0.6068 0.1671
C8 C 0.8921(16) 0.833(2) 0.2449(19)
H8 H 0.9218 0.8998 0.2493
U1 U 0.58230(4) 0.22083(6) 0.54662(5)
U2 U 0.58854(4) 0.52109(6) 0.46729(5)
N3 N 0.8909(11) 0.4824(15) 0.3858(12)
H9 H 0.9317 0.5281 0.4196
H10 H 0.8958 0.4785 0.3341
O9 O 0.3908(17) 0.2903(17) 0.574(2)
O10 O 0.7997(9) 0.3890(12) 0.4599(11)
O6D O 0.4813(8) 0.6097(11) 0.4838(10)
U1F U 0.91770(4) 0.27917(6) 0.45338(5)
U2D U 0.41146(4) 0.47891(6) 0.53271(5)
N3F N 0.6091(11) 0.0176(15) 0.6142(12)
O9D O 0.6092(17) 0.7097(17) 0.426(2)
O10F O 0.7003(9) 0.1110(12) 0.5401(11)
loop_
_geom_bond_atom_site_label_1
_geom_bond_atom_site_label_2
_geom_bond_site_symmetry_1
_geom_bond_site_symmetry_2
C1 C2 1_555 1_555
C2 H1 1_555 1_555
H2 C2 1_555 1_555
H3 C2 1_555 1_555
C3 C4 1_555 1_555
C4 C5 1_555 1_555
C5 H4 1_555 1_555
H5 C5 1_555 1_555
C6 C5 1_555 1_555
N1 C7 1_555 1_555
N2 C6 1_555 1_555
H6 N2 1_555 1_555
O1 U2 1_555 1_555
O2 U2 1_555 1_555
O3 U1 1_555 1_555
O4 U1 1_555 1_555
O5 U1 1_555 1_555
O6 U1 1_555 1_555
O7 C1 1_555 1_555
O8 C3 1_555 1_555
C7 C6 1_555 1_555
H7 C7 1_555 1_555
C8 N1 1_555 1_555
H8 C8 1_555 1_555
U1 O7 1_555 1_555
U2 O5 1_555 1_555
N3 C4 1_555 1_555
H9 N3 1_555 1_555
H10 N3 1_555 1_555
O9 C1 1_555 1_555
O10 C3 1_555 1_555
O6D U2 1_555 1_555
U1F N3 1_555 1_555
U2D O6 1_555 1_555
N3F U1 1_555 1_555
O9D U2 1_555 1_555
O10F U1 1_555 1_555
N2 C8 1_555 1_555
O6 U2 1_555 1_555
O8 U2 1_555 1_555
O9 U2D 1_555 1_555
O10 U1F 1_555 1_555
O6D U2D 1_555 1_555

#END
