
#######################################################################
#
#                 Cambridge Crystallographic Data Centre
#                                CCDC 
#
#######################################################################
#
# If this CIF has been generated from an entry in the Cambridge 
# Structural Database, then it will include bibliographic, chemical, 
# crystal, experimental, refinement or atomic coordinate data resulting 
# from the CCDC's data processing and validation procedures.
#
#######################################################################

data_KOPZIA
_symmetry_cell_setting           monoclinic
_symmetry_space_group_name_H-M   'C 2/c'
_symmetry_Int_Tables_number      15
_space_group_name_Hall           '-C 2yn'
loop_
_symmetry_equiv_pos_site_id
_symmetry_equiv_pos_as_xyz
1 x,y,z
2 -x,y,1/2-z
3 1/2+x,1/2+y,z
4 1/2-x,1/2+y,1/2-z
5 -x,-y,-z
6 x,-y,1/2+z
7 1/2-x,1/2-y,-z
8 1/2+x,1/2-y,1/2+z
_cell_length_a                   17.941(13)
_cell_length_b                   21.240(15)
_cell_length_c                   13.616(10)
_cell_angle_alpha                90
_cell_angle_beta                 130.316(7)
_cell_angle_gamma                90
_cell_volume                     3956.25
loop_
_atom_site_label
_atom_site_type_symbol
_atom_site_fract_x
_atom_site_fract_y
_atom_site_fract_z
C1 C 0.5590(3) 0.14172(15) 1.0075(4)
H1 H 0.5396 0.1537 1.0536
C2 C 0.5867(2) 0.08517(14) 0.9094(3)
H2 H 0.5923 0.0514 0.8710
C3 C 0.6570(2) 0.16954(15) 0.8618(3)
C4 C 0.6288(2) 0.22846(15) 0.8058(3)
H3 H 0.5834 0.2521 0.8022
C5 C 0.6700(2) 0.25153(15) 0.7550(3)
C6 C 0.7410(2) 0.21658(15) 0.7659(3)
C7 C 0.7694(2) 0.15804(15) 0.8248(3)
H4 H 0.8171 0.1350 0.8326
C8 C 0.7262(3) 0.13422(16) 0.8717(3)
H5 H 0.7436 0.0946 0.9098
C9 C 0.6462(2) 0.31189(15) 0.6806(3)
C10 C 0.6615(3) 0.37074(17) 0.7569(4)
H6 H 0.6187 0.3691 0.7763
H7 H 0.6472 0.4076 0.7066
H8 H 0.7282 0.3723 0.8357
C11 C 0.5411(3) 0.3105(2) 0.5520(4)
H9 H 0.5317 0.2733 0.5050
H10 H 0.5295 0.3471 0.5025
H11 H 0.4963 0.3100 0.5680
C12 C 0.7187(2) 0.30846(16) 0.6579(3)
C13 C 0.7334(2) 0.35198(15) 0.5967(3)
H12 H 0.6966 0.3887 0.5623
C14 C 0.8045(2) 0.33923(15) 0.5880(3)
C15 C 0.8595(2) 0.28447(15) 0.6368(3)
H13 H 0.9064 0.2770 0.6287
C16 C 0.8441(2) 0.24071(16) 0.6979(3)
H14 H 0.8806 0.2038 0.7315
C17 C 0.7731(2) 0.25305(14) 0.7080(3)
C18 C 0.7960(3) 0.45325(16) 0.3994(3)
H15 H 0.7644 0.4812 0.3306
C19 C 0.9072(2) 0.40370(15) 0.5638(3)
H16 H 0.9679 0.3888 0.6357
Cl1 Cl 0.61561(6) 0.02059(4) 1.23047(8)
N1 N 0.55185(19) 0.08145(12) 0.9696(2)
N2 N 0.5949(2) 0.18175(12) 0.9753(3)
N3 N 0.61282(19) 0.14413(12) 0.9113(3)
N4 N 0.82213(19) 0.38375(12) 0.5264(3)
N5 N 0.7483(2) 0.41668(14) 0.4199(3)
N6 N 0.89403(19) 0.44749(12) 0.4850(3)
Ni1 Ni 0.5000 0.0000 1.0000
C1D C 0.4410(3) -0.14172(15) 0.9925(4)
H1D H 0.4604 -0.1537 0.9464
C2D C 0.4133(2) -0.08517(14) 1.0906(3)
H2D H 0.4077 -0.0514 1.1290
C3D C 0.3430(2) -0.16954(15) 1.1382(3)
C4D C 0.3712(2) -0.22846(15) 1.1942(3)
H3D H 0.4166 -0.2521 1.1978
C5D C 0.3300(2) -0.25153(15) 1.2450(3)
C6D C 0.2590(2) -0.21658(15) 1.2341(3)
C7D C 0.2306(2) -0.15804(15) 1.1752(3)
H4D H 0.1829 -0.1350 1.1674
C8D C 0.2738(3) -0.13422(16) 1.1283(3)
H5D H 0.2564 -0.0946 1.0902
C9D C 0.3538(2) -0.31189(15) 1.3194(3)
C10D C 0.3385(3) -0.37074(17) 1.2431(4)
H6D H 0.3813 -0.3691 1.2237
H7D H 0.3528 -0.4076 1.2934
H8D H 0.2718 -0.3723 1.1643
C11D C 0.4589(3) -0.3105(2) 1.4480(4)
H9D H 0.4683 -0.2733 1.4950
H10D H 0.4705 -0.3471 1.4975
H11D H 0.5037 -0.3100 1.4320
C12D C 0.2813(2) -0.30846(16) 1.3421(3)
C13D C 0.2666(2) -0.35198(15) 1.4033(3)
H12D H 0.3034 -0.3887 1.4377
C14D C 0.1955(2) -0.33923(15) 1.4120(3)
C15D C 0.1405(2) -0.28447(15) 1.3632(3)
H13D H 0.0936 -0.2770 1.3713
C16D C 0.1559(2) -0.24071(16) 1.3021(3)
H14D H 0.1194 -0.2038 1.2685
C17D C 0.2269(2) -0.25305(14) 1.2920(3)
C18D C 0.2040(3) -0.45325(16) 1.6006(3)
H15D H 0.2356 -0.4812 1.6694
C19D C 0.0928(2) -0.40370(15) 1.4362(3)
H16D H 0.0321 -0.3888 1.3643
Cl1D Cl 0.38439(6) -0.02059(4) 0.76953(8)
N1D N 0.44815(19) -0.08145(12) 1.0304(2)
N2D N 0.4051(2) -0.18175(12) 1.0247(3)
N3D N 0.38718(19) -0.14413(12) 1.0887(3)
N4D N 0.17787(19) -0.38375(12) 1.4736(3)
N5D N 0.2517(2) -0.41668(14) 1.5801(3)
N6D N 0.10597(19) -0.44749(12) 1.5150(3)
N6C N 0.60597(19) -0.05251(12) 1.0150(3)
N6G N 0.39403(19) 0.05251(12) 0.9850(3)
Ni1C Ni 0.0000 -0.5000 1.5000
Ni1C_2 Ni 1.0000 0.5000 0.5000
C20 C 0.5742(10) 0.5084(7) 0.4272(14)
H17 H 0.5129 0.5280 0.3907
H18 H 0.5623 0.4674 0.3898
H19 H 0.6087 0.5337 0.4097
O1 O 0.6360(10) 0.5034(5) 0.5701(13)
H20 H 0.6102 0.5225 0.5936
O2 O 1.0000 0.0946(10) 0.7500
H21 H 0.9962 0.0967 0.7934
H21A H 1.0038 0.0967 0.7066
H22? H 0.6132 0.4930 0.4119
H23? H 0.6155 0.5215 0.5200
H24? H 0.5425 0.5483 0.3795
O3? O 0.5010(13) 0.4646(8) 0.404(2)
H25? H 0.4514 0.4695 0.3290
H26? H 1.0391 0.1217 0.7753
loop_
_geom_bond_atom_site_label_1
_geom_bond_atom_site_label_2
_geom_bond_site_symmetry_1
_geom_bond_site_symmetry_2
C1 H1 1_555 1_555
C2 H2 1_555 1_555
C3 C4 1_555 1_555
C4 H3 1_555 1_555
C5 C4 1_555 1_555
C6 C5 1_555 1_555
C7 C6 1_555 1_555
H4 C7 1_555 1_555
C8 C3 1_555 1_555
H5 C8 1_555 1_555
C9 C5 1_555 1_555
C10 C9 1_555 1_555
H6 C10 1_555 1_555
H7 C10 1_555 1_555
H8 C10 1_555 1_555
C11 C9 1_555 1_555
H9 C11 1_555 1_555
H10 C11 1_555 1_555
H11 C11 1_555 1_555
C12 C9 1_555 1_555
C13 C12 1_555 1_555
H12 C13 1_555 1_555
C14 C13 1_555 1_555
C15 C14 1_555 1_555
H13 C15 1_555 1_555
C16 C15 1_555 1_555
H14 C16 1_555 1_555
C17 C6 1_555 1_555
C18 H15 1_555 1_555
C19 H16 1_555 1_555
Cl1 Ni1 1_555 1_555
N1 C1 1_555 1_555
N2 C1 1_555 1_555
N3 C2 1_555 1_555
N4 C14 1_555 1_555
N5 C18 1_555 1_555
N6 C18 1_555 1_555
Ni1 N1 1_555 1_555
C20 H17 1_555 1_555
H18 C20 1_555 1_555
H19 C20 1_555 1_555
O1 C20 1_555 1_555
H20 O1 1_555 1_555
O2 H21 1_555 1_555
C1D H1D 1_555 1_555
C2D H2D 1_555 1_555
C3D C4D 1_555 1_555
C4D H3D 1_555 1_555
C5D C4D 1_555 1_555
C6D C5D 1_555 1_555
C7D C6D 1_555 1_555
H4D C7D 1_555 1_555
C8D C3D 1_555 1_555
H5D C8D 1_555 1_555
C9D C5D 1_555 1_555
C10D C9D 1_555 1_555
H6D C10D 1_555 1_555
H7D C10D 1_555 1_555
H8D C10D 1_555 1_555
C11D C9D 1_555 1_555
H9D C11D 1_555 1_555
H10D C11D 1_555 1_555
H11D C11D 1_555 1_555
C12D C9D 1_555 1_555
C13D C12D 1_555 1_555
H12D C13D 1_555 1_555
C14D C13D 1_555 1_555
C15D C14D 1_555 1_555
H13D C15D 1_555 1_555
C16D C15D 1_555 1_555
H14D C16D 1_555 1_555
C17D C6D 1_555 1_555
C18D H15D 1_555 1_555
C19D H16D 1_555 1_555
Cl1D Ni1 1_555 1_555
N1D Ni1 1_555 1_555
N2D C1D 1_555 1_555
N3D C2D 1_555 1_555
N4D C14D 1_555 1_555
N5D C18D 1_555 1_555
N6D C18D 1_555 1_555
N6C Ni1 1_555 1_555
N6G Ni1 1_555 1_555
Ni1C N6D 1_555 1_555
Ni1C_2 N6 1_555 1_555
H21A O2 1_555 1_555
C2 N1 1_555 1_555
C3 N3 1_555 1_555
C7 C8 1_555 1_555
C12 C17 1_555 1_555
C16 C17 1_555 1_555
C19 N4 1_555 1_555
C19 N6 1_555 1_555
N2 N3 1_555 1_555
N4 N5 1_555 1_555
C1D N1D 1_555 1_555
C2D N1D 1_555 1_555
C3D N3D 1_555 1_555
C7D C8D 1_555 1_555
C12D C17D 1_555 1_555
C16D C17D 1_555 1_555
C19D N4D 1_555 1_555
C19D N6D 1_555 1_555
N2D N3D 1_555 1_555
N4D N5D 1_555 1_555

#END
