
#######################################################################
#
#                 Cambridge Crystallographic Data Centre
#                                CCDC 
#
#######################################################################
#
# If this CIF has been generated from an entry in the Cambridge 
# Structural Database, then it will include bibliographic, chemical, 
# crystal, experimental, refinement or atomic coordinate data resulting 
# from the CCDC's data processing and validation procedures.
#
#######################################################################

data_KOPZIA01
_symmetry_cell_setting           monoclinic
_symmetry_space_group_name_H-M   'C 2/c'
_symmetry_Int_Tables_number      15
_space_group_name_Hall           '-C 2yn'
loop_
_symmetry_equiv_pos_site_id
_symmetry_equiv_pos_as_xyz
1 x,y,z
2 -x,y,1/2-z
3 1/2+x,1/2+y,z
4 1/2-x,1/2+y,1/2-z
5 -x,-y,-z
6 x,-y,1/2+z
7 1/2-x,1/2-y,-z
8 1/2+x,1/2-y,1/2+z
_cell_length_a                   17.979(12)
_cell_length_b                   21.364(14)
_cell_length_c                   13.657(9)
_cell_angle_alpha                90
_cell_angle_beta                 130.835(7)
_cell_angle_gamma                90
_cell_volume                     3968.87
loop_
_atom_site_label
_atom_site_type_symbol
_atom_site_fract_x
_atom_site_fract_y
_atom_site_fract_z
C1 C 0.4409(2) 0.14187(13) -0.0091(3)
H1 H 0.4600 0.1539 -0.0568
C2 C 0.4134(2) 0.08531(12) 0.0905(3)
H2 H 0.4077 0.0511 0.1297
C3 C 0.3436(2) 0.16972(13) 0.1382(3)
C4 C 0.3718(2) 0.22930(13) 0.1938(3)
H3 H 0.4173 0.2536 0.1963
C5 C 0.3312(2) 0.25189(13) 0.2452(3)
C6 C 0.2597(2) 0.21664(13) 0.2345(3)
C7 C 0.2316(2) 0.15790(13) 0.1768(3)
H4 H 0.1839 0.1342 0.1705
C8 C 0.2743(2) 0.13409(13) 0.1282(3)
H5 H 0.2561 0.0939 0.0888
C9 C 0.3549(2) 0.31245(13) 0.3201(3)
C10 C 0.4613(2) 0.31140(16) 0.4501(3)
H6 H 0.4729 0.3484 0.5010
H7 H 0.5071 0.3117 0.4340
H8 H 0.4718 0.2735 0.4981
C11 C 0.3395(2) 0.37181(14) 0.2432(3)
H9 H 0.2711 0.3734 0.1618
H10 H 0.3836 0.3703 0.2245
H11 H 0.3540 0.4092 0.2948
C12 C 0.28257(19) 0.30918(13) 0.3430(3)
C13 C 0.2680(2) 0.35264(13) 0.4044(3)
H12 H 0.3053 0.3902 0.4392
C14 C 0.1966(2) 0.33932(13) 0.4134(3)
C15 C 0.1415(2) 0.28455(13) 0.3639(3)
H13 H 0.0937 0.2770 0.3721
C16 C 0.1561(2) 0.24083(13) 0.3026(3)
H14 H 0.1186 0.2033 0.2682
C17 C 0.2275(2) 0.25338(12) 0.2925(3)
C18 C 0.2068(2) 0.45421(14) 0.6029(3)
H15 H 0.2395 0.4829 0.6730
C19 C 0.0930(2) 0.40430(13) 0.4366(3)
H16 H 0.0305 0.3892 0.3628
Cl1 Cl 0.38289(5) 0.02021(3) -0.23305(7)
N1 N 0.44829(16) 0.08164(10) 0.0292(2)
N2 N 0.40557(18) 0.18231(11) 0.0241(2)
N3 N 0.38765(16) 0.14468(10) 0.0882(2)
N4 N 0.17922(17) 0.38415(10) 0.4749(2)
N5 N 0.25449(18) 0.41732(11) 0.5828(2)
N6 N 0.10726(17) 0.44818(10) 0.5157(2)
Ni1 Ni 0.5000 0.0000 0.0000
C1D C 0.5591(2) -0.14187(13) 0.0091(3)
H1D H 0.5400 -0.1539 0.0568
C2D C 0.5866(2) -0.08531(12) -0.0905(3)
H2D H 0.5923 -0.0511 -0.1297
C3D C 0.6564(2) -0.16972(13) -0.1382(3)
C4D C 0.6282(2) -0.22930(13) -0.1938(3)
H3D H 0.5827 -0.2536 -0.1963
C5D C 0.6688(2) -0.25189(13) -0.2452(3)
C6D C 0.7403(2) -0.21664(13) -0.2345(3)
C7D C 0.7684(2) -0.15790(13) -0.1768(3)
H4D H 0.8161 -0.1342 -0.1705
C8D C 0.7257(2) -0.13409(13) -0.1282(3)
H5D H 0.7439 -0.0939 -0.0888
C9D C 0.6451(2) -0.31245(13) -0.3201(3)
C10D C 0.5387(2) -0.31140(16) -0.4501(3)
H6D H 0.5271 -0.3484 -0.5010
H7D H 0.4929 -0.3117 -0.4340
H8D H 0.5282 -0.2735 -0.4981
C11D C 0.6605(2) -0.37181(14) -0.2432(3)
H9D H 0.7289 -0.3734 -0.1618
H10D H 0.6164 -0.3703 -0.2245
H11D H 0.6460 -0.4092 -0.2948
C12D C 0.71743(19) -0.30918(13) -0.3430(3)
C13D C 0.7320(2) -0.35264(13) -0.4044(3)
H12D H 0.6947 -0.3902 -0.4392
C14D C 0.8034(2) -0.33932(13) -0.4134(3)
C15D C 0.8585(2) -0.28455(13) -0.3639(3)
H13D H 0.9063 -0.2770 -0.3721
C16D C 0.8439(2) -0.24083(13) -0.3026(3)
H14D H 0.8814 -0.2033 -0.2682
C17D C 0.7725(2) -0.25338(12) -0.2925(3)
C18D C 0.7932(2) -0.45421(14) -0.6029(3)
H15D H 0.7605 -0.4829 -0.6730
C19D C 0.9070(2) -0.40430(13) -0.4366(3)
H16D H 0.9695 -0.3892 -0.3628
Cl1D Cl 0.61711(5) -0.02021(3) 0.23305(7)
N1D N 0.55171(16) -0.08164(10) -0.0292(2)
N2D N 0.59443(18) -0.18231(11) -0.0241(2)
N3D N 0.61235(16) -0.14468(10) -0.0882(2)
N4D N 0.82078(17) -0.38415(10) -0.4749(2)
N5D N 0.74551(18) -0.41732(11) -0.5828(2)
N6D N 0.89274(17) -0.44818(10) -0.5157(2)
N6C N 0.39274(17) -0.05182(10) -0.0157(2)
N6G N 0.60726(17) 0.05182(10) 0.0157(2)
Ni1C Ni 0.0000 0.5000 0.5000
Ni1C_2 Ni 1.0000 -0.5000 -0.5000
C20 C 0.0800(5) 1.0128(3) 0.9367(7)
H17 H 0.0648 1.0552 0.9464
H18 H 0.0725 1.0108 0.8590
H19 H 0.1478 1.0022 1.0128
O1 O 0.0153(9) 0.9700(5) 0.9252(13)
H20 H -0.0075 0.9457 0.8628
O2 O 0.9658(9) 0.9012(7) 0.7346(19)
H21? H 0.0657 1.0573 0.9174
H22? H 0.0169 0.9895 0.8864
H23? H 0.1165 0.9978 0.9111
O3? O 0.1356(5) 1.0023(3) 1.0706(6)
H24? H 0.1014 1.0113 1.0904
H25? H 1.0000 0.8688 0.7500
H26? H 0.9661 0.9337 0.6983
loop_
_geom_bond_atom_site_label_1
_geom_bond_atom_site_label_2
_geom_bond_site_symmetry_1
_geom_bond_site_symmetry_2
C1 H1 1_555 1_555
C2 H2 1_555 1_555
C3 C4 1_555 1_555
C4 H3 1_555 1_555
C5 C4 1_555 1_555
C6 C5 1_555 1_555
C7 C6 1_555 1_555
H4 C7 1_555 1_555
C8 C3 1_555 1_555
H5 C8 1_555 1_555
C9 C5 1_555 1_555
C10 C9 1_555 1_555
H6 C10 1_555 1_555
H7 C10 1_555 1_555
H8 C10 1_555 1_555
C11 C9 1_555 1_555
H9 C11 1_555 1_555
H10 C11 1_555 1_555
H11 C11 1_555 1_555
C12 C9 1_555 1_555
C13 C12 1_555 1_555
H12 C13 1_555 1_555
C14 C13 1_555 1_555
C15 C14 1_555 1_555
H13 C15 1_555 1_555
C16 C15 1_555 1_555
H14 C16 1_555 1_555
C17 C6 1_555 1_555
C18 H15 1_555 1_555
C19 H16 1_555 1_555
Cl1 Ni1 1_555 1_555
N1 C1 1_555 1_555
N2 C1 1_555 1_555
N3 C2 1_555 1_555
N4 C14 1_555 1_555
N5 C18 1_555 1_555
N6 C18 1_555 1_555
Ni1 N1 1_555 1_555
C20 H17 1_555 1_555
H18 C20 1_555 1_555
H19 C20 1_555 1_555
O1 C20 1_555 1_555
H20 O1 1_555 1_555
C1D H1D 1_555 1_555
C2D H2D 1_555 1_555
C3D C4D 1_555 1_555
C4D H3D 1_555 1_555
C5D C4D 1_555 1_555
C6D C5D 1_555 1_555
C7D C6D 1_555 1_555
H4D C7D 1_555 1_555
C8D C3D 1_555 1_555
H5D C8D 1_555 1_555
C9D C5D 1_555 1_555
C10D C9D 1_555 1_555
H6D C10D 1_555 1_555
H7D C10D 1_555 1_555
H8D C10D 1_555 1_555
C11D C9D 1_555 1_555
H9D C11D 1_555 1_555
H10D C11D 1_555 1_555
H11D C11D 1_555 1_555
C12D C9D 1_555 1_555
C13D C12D 1_555 1_555
H12D C13D 1_555 1_555
C14D C13D 1_555 1_555
C15D C14D 1_555 1_555
H13D C15D 1_555 1_555
C16D C15D 1_555 1_555
H14D C16D 1_555 1_555
C17D C6D 1_555 1_555
C18D H15D 1_555 1_555
C19D H16D 1_555 1_555
Cl1D Ni1 1_555 1_555
N1D Ni1 1_555 1_555
N2D C1D 1_555 1_555
N3D C2D 1_555 1_555
N4D C14D 1_555 1_555
N5D C18D 1_555 1_555
N6D C18D 1_555 1_555
N6C Ni1 1_555 1_555
N6G Ni1 1_555 1_555
Ni1C N6 1_555 1_555
Ni1C_2 N6D 1_555 1_555
C2 N1 1_555 1_555
C3 N3 1_555 1_555
C7 C8 1_555 1_555
C12 C17 1_555 1_555
C16 C17 1_555 1_555
C19 N4 1_555 1_555
C19 N6 1_555 1_555
N2 N3 1_555 1_555
N4 N5 1_555 1_555
C1D N1D 1_555 1_555
C2D N1D 1_555 1_555
C3D N3D 1_555 1_555
C7D C8D 1_555 1_555
C12D C17D 1_555 1_555
C16D C17D 1_555 1_555
C19D N4D 1_555 1_555
C19D N6D 1_555 1_555
N2D N3D 1_555 1_555
N4D N5D 1_555 1_555

#END
