
#######################################################################
#
#                 Cambridge Crystallographic Data Centre
#                                CCDC 
#
#######################################################################
#
# If this CIF has been generated from an entry in the Cambridge 
# Structural Database, then it will include bibliographic, chemical, 
# crystal, experimental, refinement or atomic coordinate data resulting 
# from the CCDC's data processing and validation procedures.
#
#######################################################################

data_KOQCUQ
_symmetry_cell_setting           triclinic
_symmetry_space_group_name_H-M   'P -1'
_symmetry_Int_Tables_number      2
_space_group_name_Hall           '-P 1'
loop_
_symmetry_equiv_pos_site_id
_symmetry_equiv_pos_as_xyz
1 x,y,z
2 -x,-y,-z
_cell_length_a                   9.976(2)
_cell_length_b                   10.462(2)
_cell_length_c                   10.933(2)
_cell_angle_alpha                81.98(3)
_cell_angle_beta                 67.17(3)
_cell_angle_gamma                84.87(3)
_cell_volume                     1040.61
loop_
_atom_site_label
_atom_site_type_symbol
_atom_site_fract_x
_atom_site_fract_y
_atom_site_fract_z
Cd1 Cd 0.341671(13) 0.437463(12) 0.548959(12)
C1 C 0.5254(2) 0.36801(19) 0.72347(18)
C2 C 0.5561(2) 0.28809(19) 0.83605(18)
C3 C 0.5992(2) 0.1590(2) 0.8261(2)
H1 H 0.6004 0.1205 0.7540
C4 C 0.6403(3) 0.0874(2) 0.9229(3)
H2 H 0.6717 0.0014 0.9145
C5 C 0.6349(3) 0.1433(2) 1.0324(3)
H3 H 0.6621 0.0946 1.0975
C6 C 0.5894(3) 0.2704(2) 1.0454(2)
H4 H 0.5848 0.3072 1.1196
C7 C 0.5502(2) 0.3440(2) 0.94715(19)
C8 C 0.6582(2) 0.29474(18) 0.37735(17)
C9 C 0.7298(2) 0.17096(18) 0.32201(18)
C10 C 0.8622(2) 0.1770(2) 0.2129(2)
H5 H 0.9044 0.2564 0.1769
C11 C 0.9315(2) 0.0667(2) 0.1577(2)
H6 H 1.0208 0.0719 0.0862
C12 C 0.8682(3) -0.0518(2) 0.2087(2)
H7 H 0.9147 -0.1260 0.1709
C13 C 0.7364(3) -0.0595(2) 0.3153(2)
H8 H 0.6929 -0.1387 0.3484
C14 C 0.6680(2) 0.05148(19) 0.37346(18)
C15 C 0.2339(3) 0.2627(3) 0.4014(2)
H9 H 0.3322 0.2683 0.3474
C16 C 0.1505(3) 0.1861(3) 0.3694(3)
H10 H 0.1915 0.1412 0.2950
C17 C 0.0065(3) 0.1769(3) 0.4487(3)
H11 H -0.0519 0.1239 0.4304
C18 C -0.0506(3) 0.2468(3) 0.5552(3)
H12 H -0.1492 0.2434 0.6089
C19 C 0.0381(2) 0.3225(2) 0.5833(2)
C20 C -0.0218(2) 0.4016(3) 0.6982(2)
H13 H -0.0304 0.4919 0.6658
H14 H -0.1178 0.3733 0.7578
C21 C 0.0317(2) 0.44520(19) 0.88324(19)
C22 C 0.1248(2) 0.4242(2) 0.9502(2)
H15 H 0.2090 0.3727 0.9169
C23 C -0.0943(2) 0.5208(2) 0.9335(2)
H16 H -0.1582 0.5346 0.8892
N1 N 0.4987(2) 0.47508(17) 0.95253(17)
N2 N 0.5424(2) 0.04087(16) 0.49689(17)
N3 N 0.17965(17) 0.32968(16) 0.50704(16)
O1 O 0.41122(16) 0.34611(16) 0.71017(14)
O2 O 0.62086(19) 0.44380(16) 0.65070(15)
O3 O 0.74317(17) 0.37904(14) 0.36993(17)
O4 O 0.52382(16) 0.30433(15) 0.42357(16)
O5 O 0.07333(15) 0.38610(14) 0.76703(14)
C1A C 0.4746(2) 0.63199(19) 1.27653(18)
C2A C 0.4439(2) 0.71191(19) 1.16395(18)
C3A C 0.4008(2) 0.8410(2) 1.1739(2)
H1A H 0.3996 0.8795 1.2460
C4A C 0.3597(3) 0.9126(2) 1.0771(3)
H2A H 0.3283 0.9986 1.0855
C5A C 0.3651(3) 0.8567(2) 0.9676(3)
H3A H 0.3379 0.9054 0.9025
C6A C 0.4106(3) 0.7296(2) 0.9546(2)
H4A H 0.4152 0.6928 0.8804
C7A C 0.4498(2) 0.6560(2) 1.05285(19)
N1A N 0.5013(2) 0.52492(17) 1.04747(17)
O1A O 0.58878(16) 0.65389(16) 1.28983(14)
O2A O 0.37914(19) 0.55620(16) 1.34930(15)
C8A C 0.3418(2) -0.29474(18) 0.62265(17)
C9A C 0.2702(2) -0.17096(18) 0.67799(18)
C10A C 0.1378(2) -0.1770(2) 0.7871(2)
H5A H 0.0956 -0.2564 0.8231
C11A C 0.0685(2) -0.0667(2) 0.8423(2)
H6A H -0.0208 -0.0719 0.9138
C12A C 0.1318(3) 0.0518(2) 0.7913(2)
H7A H 0.0853 0.1260 0.8291
C13A C 0.2636(3) 0.0595(2) 0.6847(2)
H8A H 0.3071 0.1387 0.6516
C14A C 0.3320(2) -0.05148(19) 0.62654(18)
N2A N 0.4576(2) -0.04087(16) 0.50311(17)
O3A O 0.25683(17) -0.37904(14) 0.63007(17)
O4A O 0.47618(16) -0.30433(15) 0.57643(16)
C15A C -0.2339(3) 0.7373(3) 1.5986(2)
H9A H -0.3322 0.7317 1.6526
C16A C -0.1505(3) 0.8139(3) 1.6306(3)
H10A H -0.1915 0.8588 1.7050
C17A C -0.0065(3) 0.8231(3) 1.5513(3)
H11A H 0.0519 0.8761 1.5696
C18A C 0.0506(3) 0.7532(3) 1.4448(3)
H12A H 0.1492 0.7566 1.3911
C19A C -0.0381(2) 0.6775(2) 1.4167(2)
C20A C 0.0218(2) 0.5984(3) 1.3018(2)
H13A H 0.0304 0.5081 1.3342
H14A H 0.1178 0.6267 1.2422
C21A C -0.0317(2) 0.55480(19) 1.11676(19)
C22A C -0.1248(2) 0.5758(2) 1.0498(2)
H15A H -0.2090 0.6273 1.0831
C23A C 0.0943(2) 0.4792(2) 1.0665(2)
H16A H 0.1582 0.4654 1.1108
N3A N -0.17965(17) 0.67032(16) 1.49296(16)
O5A O -0.07333(15) 0.61390(14) 1.23297(14)
Cd1A Cd -0.341671(13) 0.562537(12) 1.451041(12)
Cd1_2 Cd 0.341671(13) -0.562537(12) 0.548959(12)
Cd1_3 Cd 0.341671(13) 0.437463(12) 1.548959(12)
Cd1A_2 Cd 0.658329(13) -0.437463(12) 0.451041(12)
Cd1A_3 Cd 0.658329(13) 0.562537(12) 0.451041(12)
Cd1A_4 Cd 0.658329(13) 0.562537(12) 1.451041(12)
O1A_2 O -0.41122(16) 0.65389(16) 1.28983(14)
O2_2 O -0.37914(19) 0.44380(16) 1.65070(15)
O2A_2 O 0.37914(19) 0.55620(16) 0.34930(15)
O3_2 O -0.25683(17) 0.37904(14) 1.36993(17)
O3A_2 O 0.25683(17) 0.62096(14) 0.63007(17)
O4A_2 O -0.52382(16) 0.69567(15) 1.57643(16)
loop_
_geom_bond_atom_site_label_1
_geom_bond_atom_site_label_2
_geom_bond_site_symmetry_1
_geom_bond_site_symmetry_2
Cd1 N3 1_555 1_555
C1 C2 1_555 1_555
C2 C3 1_555 1_555
C3 H1 1_555 1_555
C4 C3 1_555 1_555
H2 C4 1_555 1_555
C5 C4 1_555 1_555
H3 C5 1_555 1_555
C6 C5 1_555 1_555
H4 C6 1_555 1_555
C7 C2 1_555 1_555
C8 C9 1_555 1_555
C9 C10 1_555 1_555
C10 H5 1_555 1_555
C11 C10 1_555 1_555
H6 C11 1_555 1_555
C12 C11 1_555 1_555
H7 C12 1_555 1_555
C13 C12 1_555 1_555
H8 C13 1_555 1_555
C14 C9 1_555 1_555
C15 H9 1_555 1_555
C16 C15 1_555 1_555
H10 C16 1_555 1_555
C17 C16 1_555 1_555
H11 C17 1_555 1_555
C18 C17 1_555 1_555
H12 C18 1_555 1_555
C19 C18 1_555 1_555
C20 C19 1_555 1_555
H13 C20 1_555 1_555
H14 C20 1_555 1_555
C21 C22 1_555 1_555
C22 H15 1_555 1_555
C23 C21 1_555 1_555
H16 C23 1_555 1_555
N1 C7 1_555 1_555
N2 C14 1_555 1_555
N3 C15 1_555 1_555
O1 Cd1 1_555 1_555
O2 C1 1_555 1_555
O3 C8 1_555 1_555
O4 Cd1 1_555 1_555
O5 C20 1_555 1_555
C1A C2A 1_555 1_555
C2A C3A 1_555 1_555
C3A H1A 1_555 1_555
C4A C3A 1_555 1_555
H2A C4A 1_555 1_555
C5A C4A 1_555 1_555
H3A C5A 1_555 1_555
C6A C5A 1_555 1_555
H4A C6A 1_555 1_555
C7A C2A 1_555 1_555
N1A N1 1_555 1_555
O1A C1A 1_555 1_555
O2A C1A 1_555 1_555
C8A C9A 1_555 1_555
C9A C10A 1_555 1_555
C10A H5A 1_555 1_555
C11A C10A 1_555 1_555
H6A C11A 1_555 1_555
C12A C11A 1_555 1_555
H7A C12A 1_555 1_555
C13A C12A 1_555 1_555
H8A C13A 1_555 1_555
C14A C9A 1_555 1_555
N2A N2 1_555 1_555
O3A C8A 1_555 1_555
O4A C8A 1_555 1_555
C15A H9A 1_555 1_555
C16A C15A 1_555 1_555
H10A C16A 1_555 1_555
C17A C16A 1_555 1_555
H11A C17A 1_555 1_555
C18A C17A 1_555 1_555
H12A C18A 1_555 1_555
C19A C18A 1_555 1_555
C20A C19A 1_555 1_555
H13A C20A 1_555 1_555
H14A C20A 1_555 1_555
C21A C22A 1_555 1_555
C22A C23 1_555 1_555
H15A C22A 1_555 1_555
C23A C22 1_555 1_555
H16A C23A 1_555 1_555
N3A C15A 1_555 1_555
O5A C20A 1_555 1_555
Cd1A N3A 1_555 1_555
Cd1_2 O3A 1_555 1_555
Cd1_3 O2A 1_555 1_555
Cd1A_2 O4A 1_555 1_555
Cd1A_3 O2 1_555 1_555
Cd1A_4 O1A 1_555 1_555
O1A_2 Cd1A 1_555 1_555
O2_2 Cd1A 1_555 1_555
O2A_2 Cd1 1_555 1_555
O3_2 Cd1A 1_555 1_555
O3A_2 Cd1 1_555 1_555
O4A_2 Cd1A 1_555 1_555
C1 O1 1_555 1_555
C6 C7 1_555 1_555
C8 O4 1_555 1_555
C13 C14 1_555 1_555
C19 N3 1_555 1_555
C21 O5 1_555 1_555
O3 Cd1A_3 1_555 1_555
C6A C7A 1_555 1_555
C7A N1A 1_555 1_555
C13A C14A 1_555 1_555
C14A N2A 1_555 1_555
C19A N3A 1_555 1_555
C21A C23A 1_555 1_555
C21A O5A 1_555 1_555

#END
