
#######################################################################
#
#                 Cambridge Crystallographic Data Centre
#                                CCDC 
#
#######################################################################
#
# If this CIF has been generated from an entry in the Cambridge 
# Structural Database, then it will include bibliographic, chemical, 
# crystal, experimental, refinement or atomic coordinate data resulting 
# from the CCDC's data processing and validation procedures.
#
#######################################################################

data_KOQDEB
_symmetry_cell_setting           triclinic
_symmetry_space_group_name_H-M   'P -1'
_symmetry_Int_Tables_number      2
_space_group_name_Hall           '-P 1'
loop_
_symmetry_equiv_pos_site_id
_symmetry_equiv_pos_as_xyz
1 x,y,z
2 -x,-y,-z
_cell_length_a                   10.056(2)
_cell_length_b                   10.955(2)
_cell_length_c                   11.676(2)
_cell_angle_alpha                113.00(3)
_cell_angle_beta                 97.99(3)
_cell_angle_gamma                92.39(3)
_cell_volume                     1166
loop_
_atom_site_label
_atom_site_type_symbol
_atom_site_fract_x
_atom_site_fract_y
_atom_site_fract_z
Cd1 Cd 0.115687(18) 0.528317(16) 0.398408(15)
Cl1 Cl -0.10418(6) 0.37935(6) 0.35682(6)
C1 C 0.1369(2) 0.7676(2) 0.38436(19)
C2 C 0.1560(2) 0.8812(2) 0.34442(19)
C3 C 0.2523(2) 0.8771(2) 0.2689(2)
H1 H 0.3151 0.8153 0.2588
C4 C 0.2567(3) 0.9632(2) 0.2084(2)
H2 H 0.3223 0.9589 0.1586
C5 C 0.1648(3) 1.0547(2) 0.2215(2)
H3 H 0.1657 1.1100 0.1781
C6 C 0.0709(3) 1.0643(2) 0.2998(2)
H4 H 0.0088 1.1268 0.3096
C7 C 0.0689(2) 0.9813(2) 0.36363(19)
C8 C 0.0487(3) 0.3353(3) 0.0945(2)
H5 H -0.0093 0.2887 0.1223
C9 C 0.0461(3) 0.2957(3) -0.0327(2)
H6 H -0.0120 0.2224 -0.0898
C10 C 0.1299(3) 0.3650(3) -0.0755(2)
H7 H 0.1275 0.3400 -0.1617
C11 C 0.2174(2) 0.4717(2) 0.0104(2)
C12 C 0.2152(3) 0.5032(2) 0.1371(2)
H8 H 0.2753 0.5736 0.1963
C13 C 0.3080(3) 0.5520(3) -0.0311(2)
H9 H 0.3434 0.4943 -0.1044
H10 H 0.2584 0.6160 -0.0532
C14 C 0.4974(3) 0.7195(3) 0.0672(2)
C15 C 0.4985(3) 0.7500(3) -0.0369(3)
H11 H 0.4410 0.7001 -0.1124
C16 C 0.5856(4) 0.8549(4) -0.0279(3)
H12 H 0.5865 0.8758 -0.0977
C17 C 0.6703(4) 0.9285(4) 0.0817(4)
H13 H 0.7282 0.9993 0.0863
C18 C 0.6712(3) 0.8984(3) 0.1871(3)
H14 H 0.7288 0.9493 0.2622
C19 C 0.5863(2) 0.7931(3) 0.1790(2)
C20 C 0.6678(3) 0.8195(3) 0.3910(2)
H15 H 0.6494 0.9118 0.4286
H16 H 0.7609 0.8174 0.3777
C21 C 0.6438(2) 0.7503(2) 0.4755(2)
C22 C 0.5323(3) 0.7665(3) 0.5350(2)
H17 H 0.4691 0.8222 0.5238
C23 C 0.5156(3) 0.6993(3) 0.6107(3)
H18 H 0.4406 0.7085 0.6508
C24 C 0.6107(3) 0.6188(3) 0.6265(2)
H19 H 0.5992 0.5744 0.6786
C25 C 0.7337(3) 0.6662(2) 0.4951(2)
H20 H 0.8083 0.6536 0.4543
N1 N -0.02435(18) 1.00549(17) 0.45015(16)
N2 N 0.1318(2) 0.43832(19) 0.17922(18)
N3 N 0.7194(2) 0.60136(19) 0.56989(18)
O1 O 0.24044(16) 0.72109(16) 0.41691(15)
O2 O 0.01952(15) 0.71420(15) 0.37014(14)
O3 O 0.41527(17) 0.61938(17) 0.07137(14)
O4 O 0.57879(17) 0.75014(18) 0.27456(15)
C1A C -0.1369(2) 1.2324(2) 0.61564(19)
C2A C -0.1560(2) 1.1188(2) 0.65558(19)
C3A C -0.2523(2) 1.1229(2) 0.7311(2)
H1A H -0.3151 1.1847 0.7412
C4A C -0.2567(3) 1.0368(2) 0.7916(2)
H2A H -0.3223 1.0411 0.8414
C5A C -0.1648(3) 0.9453(2) 0.7785(2)
H3A H -0.1657 0.8900 0.8219
C6A C -0.0709(3) 0.9357(2) 0.7002(2)
H4A H -0.0088 0.8732 0.6904
C7A C -0.0689(2) 1.0187(2) 0.63637(19)
N1A N 0.02435(18) 0.99451(17) 0.54985(16)
O1A O -0.24044(16) 1.27891(16) 0.58309(15)
O2A O -0.01952(15) 1.28580(15) 0.62986(14)
Cd1A Cd -0.115687(18) 0.471683(16) 0.601592(15)
Cl1A Cl 0.10418(6) 0.62065(6) 0.64318(6)
C8A C -0.0487(3) 0.6647(3) 0.9055(2)
H5A H 0.0093 0.7113 0.8777
C9A C -0.0461(3) 0.7043(3) 1.0327(2)
H6A H 0.0120 0.7776 1.0898
C10A C -0.1299(3) 0.6350(3) 1.0755(2)
H7A H -0.1275 0.6600 1.1617
C11A C -0.2174(2) 0.5283(2) 0.9896(2)
C12A C -0.2152(3) 0.4968(2) 0.8629(2)
H8A H -0.2753 0.4264 0.8037
C13A C -0.3080(3) 0.4480(3) 1.0311(2)
H9A H -0.3434 0.5057 1.1044
H10A H -0.2584 0.3840 1.0532
C14A C -0.4974(3) 0.2805(3) 0.9328(2)
C15A C -0.4985(3) 0.2500(3) 1.0369(3)
H11A H -0.4410 0.2999 1.1124
C16A C -0.5856(4) 0.1451(4) 1.0279(3)
H12A H -0.5865 0.1242 1.0977
C17A C -0.6703(4) 0.0715(4) 0.9183(4)
H13A H -0.7282 0.0007 0.9137
C18A C -0.6712(3) 0.1016(3) 0.8129(3)
H14A H -0.7288 0.0507 0.7378
C19A C -0.5863(2) 0.2069(3) 0.8210(2)
C20A C -0.6678(3) 0.1805(3) 0.6090(2)
H15A H -0.6494 0.0882 0.5714
H16A H -0.7609 0.1826 0.6223
C21A C -0.6438(2) 0.2497(2) 0.5245(2)
C22A C -0.5323(3) 0.2335(3) 0.4650(2)
H17A H -0.4691 0.1778 0.4762
C23A C -0.5156(3) 0.3007(3) 0.3893(3)
H18A H -0.4406 0.2915 0.3492
C24A C -0.6107(3) 0.3812(3) 0.3735(2)
H19A H -0.5992 0.4256 0.3214
C25A C -0.7337(3) 0.3338(2) 0.5049(2)
H20A H -0.8083 0.3464 0.5457
N2A N -0.1318(2) 0.56168(19) 0.82078(18)
N3A N -0.7194(2) 0.39864(19) 0.43011(18)
O3A O -0.41527(17) 0.38062(17) 0.92863(14)
O4A O -0.57879(17) 0.24986(18) 0.72544(15)
Cd1_2 Cd -0.884313(18) 0.528317(16) 0.398408(15)
Cd1A_2 Cd -0.115687(18) 1.471683(16) 0.601592(15)
Cd1A_3 Cd 0.884313(18) 0.471683(16) 0.601592(15)
N3_2 N -0.2806(2) 0.60136(19) 0.56989(18)
N3A_2 N 0.2806(2) 0.39864(19) 0.43011(18)
O1A_2 O -0.24044(16) 0.27891(16) 0.58309(15)
O2A_2 O -0.01952(15) 0.28580(15) 0.62986(14)
loop_
_geom_bond_atom_site_label_1
_geom_bond_atom_site_label_2
_geom_bond_site_symmetry_1
_geom_bond_site_symmetry_2
Cd1 Cl1 1_555 1_555
Cl1 Cd1A 1_555 1_555
C1 C2 1_555 1_555
C2 C3 1_555 1_555
C3 H1 1_555 1_555
C4 C3 1_555 1_555
H2 C4 1_555 1_555
C5 C4 1_555 1_555
H3 C5 1_555 1_555
C6 C5 1_555 1_555
H4 C6 1_555 1_555
C7 C2 1_555 1_555
C8 H5 1_555 1_555
C9 C8 1_555 1_555
H6 C9 1_555 1_555
C10 C9 1_555 1_555
H7 C10 1_555 1_555
C11 C10 1_555 1_555
C12 C11 1_555 1_555
H8 C12 1_555 1_555
C13 C11 1_555 1_555
H9 C13 1_555 1_555
H10 C13 1_555 1_555
C14 C15 1_555 1_555
C15 H11 1_555 1_555
C16 C15 1_555 1_555
H12 C16 1_555 1_555
C17 C16 1_555 1_555
H13 C17 1_555 1_555
C18 C17 1_555 1_555
H14 C18 1_555 1_555
C19 C14 1_555 1_555
C20 H15 1_555 1_555
H16 C20 1_555 1_555
C21 C20 1_555 1_555
C22 C21 1_555 1_555
H17 C22 1_555 1_555
C23 C22 1_555 1_555
H18 C23 1_555 1_555
C24 C23 1_555 1_555
H19 C24 1_555 1_555
C25 C21 1_555 1_555
H20 C25 1_555 1_555
N1 C7 1_555 1_555
N2 Cd1 1_555 1_555
N3 C24 1_555 1_555
O1 Cd1 1_555 1_555
O2 Cd1 1_555 1_555
O3 C13 1_555 1_555
O4 C19 1_555 1_555
C1A C2A 1_555 1_555
C2A C3A 1_555 1_555
C3A H1A 1_555 1_555
C4A C3A 1_555 1_555
H2A C4A 1_555 1_555
C5A C4A 1_555 1_555
H3A C5A 1_555 1_555
C6A C5A 1_555 1_555
H4A C6A 1_555 1_555
C7A C2A 1_555 1_555
N1A N1 1_555 1_555
O1A C1A 1_555 1_555
O2A C1A 1_555 1_555
Cd1A Cl1A 1_555 1_555
Cl1A Cd1 1_555 1_555
C8A H5A 1_555 1_555
C9A C8A 1_555 1_555
H6A C9A 1_555 1_555
C10A C9A 1_555 1_555
H7A C10A 1_555 1_555
C11A C10A 1_555 1_555
C12A C11A 1_555 1_555
H8A C12A 1_555 1_555
C13A C11A 1_555 1_555
H9A C13A 1_555 1_555
H10A C13A 1_555 1_555
C14A C15A 1_555 1_555
C15A H11A 1_555 1_555
C16A C15A 1_555 1_555
H12A C16A 1_555 1_555
C17A C16A 1_555 1_555
H13A C17A 1_555 1_555
C18A C17A 1_555 1_555
H14A C18A 1_555 1_555
C19A C14A 1_555 1_555
C20A H15A 1_555 1_555
H16A C20A 1_555 1_555
C21A C20A 1_555 1_555
C22A C21A 1_555 1_555
H17A C22A 1_555 1_555
C23A C22A 1_555 1_555
H18A C23A 1_555 1_555
C24A C23A 1_555 1_555
H19A C24A 1_555 1_555
C25A C21A 1_555 1_555
H20A C25A 1_555 1_555
N2A Cd1A 1_555 1_555
N3A C24A 1_555 1_555
O3A C13A 1_555 1_555
O4A C19A 1_555 1_555
Cd1_2 N3A 1_555 1_555
Cd1A_2 O1A 1_555 1_555
Cd1A_3 N3 1_555 1_555
N3_2 Cd1A 1_555 1_555
N3A_2 Cd1 1_555 1_555
O1A_2 Cd1A 1_555 1_555
O2A_2 Cd1A 1_555 1_555
C1 O1 1_555 1_555
C1 O2 1_555 1_555
C6 C7 1_555 1_555
C8 N2 1_555 1_555
C12 N2 1_555 1_555
C14 O3 1_555 1_555
C18 C19 1_555 1_555
C20 O4 1_555 1_555
C25 N3 1_555 1_555
C6A C7A 1_555 1_555
C7A N1A 1_555 1_555
O2A Cd1A_2 1_555 1_555
C8A N2A 1_555 1_555
C12A N2A 1_555 1_555
C14A O3A 1_555 1_555
C18A C19A 1_555 1_555
C20A O4A 1_555 1_555
C25A N3A 1_555 1_555

#END
