
#######################################################################
#
#                 Cambridge Crystallographic Data Centre
#                                CCDC 
#
#######################################################################
#
# If this CIF has been generated from an entry in the Cambridge 
# Structural Database, then it will include bibliographic, chemical, 
# crystal, experimental, refinement or atomic coordinate data resulting 
# from the CCDC's data processing and validation procedures.
#
#######################################################################

data_KOQHUV
_symmetry_cell_setting           monoclinic
_symmetry_space_group_name_H-M   'P 21/c'
_symmetry_Int_Tables_number      14
_space_group_name_Hall           '-P 2ybc'
loop_
_symmetry_equiv_pos_site_id
_symmetry_equiv_pos_as_xyz
1 x,y,z
2 -x,1/2+y,1/2-z
3 -x,-y,-z
4 x,1/2-y,1/2+z
_cell_length_a                   11.622(5)
_cell_length_b                   22.213(5)
_cell_length_c                   11.896(5)
_cell_angle_alpha                90
_cell_angle_beta                 112.738(5)
_cell_angle_gamma                90
_cell_volume                     2832.39
loop_
_atom_site_label
_atom_site_type_symbol
_atom_site_fract_x
_atom_site_fract_y
_atom_site_fract_z
C6 C 0.539(4) 0.3038(16) 1.009(5)
H5 H 0.4917 0.3235 1.0452
C7 C 0.659(3) 0.3000(17) 1.073(5)
H6 H 0.6940 0.3141 1.1525
C8 C 0.738(3) 0.2731(16) 1.015(3)
C9 C 0.677(3) 0.2533(17) 0.897(4)
H7 H 0.7201 0.2377 0.8527
C10 C 0.549(4) 0.2574(17) 0.848(4)
H8 H 0.5092 0.2408 0.7706
C11 C 0.879(2) 0.2708(18) 1.083(3)
C12 C 0.940(3) 0.3058(16) 1.183(3)
H9 H 0.8998 0.3374 1.2040
C13 C 1.064(3) 0.293(2) 1.252(4)
H10 H 1.1053 0.3151 1.3236
C14 C 1.063(3) 0.215(2) 1.118(4)
H11 H 1.1023 0.1823 1.0988
C15 C 0.940(3) 0.2277(18) 1.045(3)
H12 H 0.9000 0.2075 0.9721
N2 N 0.478(3) 0.2814(15) 0.895(3)
N3 N 1.126(3) 0.250(2) 1.218(4)
O1 O 0.515(3) 0.0588(14) 1.087(3)
O2 O 0.177(3) -0.0479(15) 0.788(3)
O3 O 0.389(3) 0.0487(14) 0.932(3)
O4 O 0.359(3) -0.0292(13) 0.961(3)
O5 O 0.509(3) 0.0260(13) 0.873(3)
O6 O 0.232(3) 0.0963(14) 0.972(2)
O7 O 0.230(3) 0.0660(15) 0.758(3)
O8 O 0.388(3) 0.0284(15) 0.671(3)
O9 O 0.019(2) 0.0412(16) 0.812(3)
O10 O 0.489(2) -0.0580(12) 0.576(2)
O11 O 0.211(3) -0.1111(11) 1.176(3)
O12 O 0.318(4) 0.1469(15) 0.634(3)
O13 O 0.198(2) -0.1661(10) 0.745(3)
O14 O 0.321(3) 0.2076(11) 1.059(3)
O15 O 0.195(3) -0.0152(14) 1.013(3)
O16 O 0.281(4) -0.1211(16) 0.983(3)
O17 O 0.546(3) 0.1133(14) 0.808(3)
O18 O 0.377(3) 0.1507(14) 0.883(3)
O19 O 0.555(2) 0.1539(17) 1.102(3)
O20 O 0.363(3) -0.0118(14) 1.231(4)
O21 O 0.358(3) -0.0777(17) 0.714(2)
O22 O 0.592(3) -0.1032(18) 0.810(3)
Si1 Si 0.5000 0.0000 1.0000
Cu1 Cu 0.3007(6) 0.2682(4) 0.8089(8)
W1 W 0.37150(14) 0.09942(7) 0.75056(14)
W2 W 0.17527(12) 0.02712(7) 0.87263(14)
W3 W 0.38239(13) 0.14066(6) 1.04221(14)
W4 W 0.29235(14) -0.11343(7) 0.82705(14)
W5 W 0.30273(15) -0.07415(7) 1.11835(16)
W6 W 0.49256(14) -0.04047(8) 0.71037(14)
O1B O 0.485(3) -0.0588(14) 0.913(3)
O3B O 0.611(3) -0.0487(14) 1.068(3)
O4B O 0.641(3) 0.0292(13) 1.039(3)
O5B O 0.491(3) -0.0260(13) 1.127(3)
C6B C 0.461(4) -0.3038(16) 0.991(5)
H5B H 0.5083 -0.3235 0.9548
C7B C 0.341(3) -0.3000(17) 0.927(5)
H6B H 0.3060 -0.3141 0.8475
C8B C 0.262(3) -0.2731(16) 0.985(3)
C9B C 0.323(3) -0.2533(17) 1.103(4)
H7B H 0.2799 -0.2377 1.1473
C10B C 0.451(4) -0.2574(17) 1.152(4)
H8B H 0.4908 -0.2408 1.2294
C11B C 0.121(2) -0.2708(18) 0.917(3)
C12B C 0.060(3) -0.3058(16) 0.817(3)
H9B H 0.1002 -0.3374 0.7960
C13B C -0.064(3) -0.293(2) 0.748(4)
H10B H -0.1053 -0.3151 0.6764
C14B C -0.063(3) -0.215(2) 0.882(4)
H11B H -0.1023 -0.1823 0.9012
C15B C 0.060(3) -0.2277(18) 0.955(3)
H12B H 0.1000 -0.2075 1.0279
N2B N 0.522(3) -0.2814(15) 1.105(3)
N3B N -0.126(3) -0.250(2) 0.782(4)
O2B O 0.823(3) 0.0479(15) 1.212(3)
O6B O 0.768(3) -0.0963(14) 1.028(2)
O7B O 0.770(3) -0.0660(15) 1.242(3)
O8B O 0.612(3) -0.0284(15) 1.329(3)
O9B O 0.981(2) -0.0412(16) 1.188(3)
O10B O 0.511(2) 0.0580(12) 1.424(2)
O11B O 0.789(3) 0.1111(11) 0.824(3)
O12B O 0.682(4) -0.1469(15) 1.366(3)
O13B O 0.802(2) 0.1661(10) 1.255(3)
O14B O 0.679(3) -0.2076(11) 0.941(3)
O15B O 0.805(3) 0.0152(14) 0.987(3)
O16B O 0.719(4) 0.1211(16) 1.017(3)
O17B O 0.454(3) -0.1133(14) 1.192(3)
O18B O 0.623(3) -0.1507(14) 1.117(3)
O19B O 0.445(2) -0.1539(17) 0.898(3)
O20B O 0.637(3) 0.0118(14) 0.769(4)
O21B O 0.642(3) 0.0777(17) 1.286(2)
O22B O 0.408(3) 0.1032(18) 1.190(3)
Cu1B Cu 0.6993(6) -0.2682(4) 1.1911(8)
W1B W 0.62850(14) -0.09942(7) 1.24944(14)
W2B W 0.82473(12) -0.02712(7) 1.12737(14)
W3B W 0.61761(13) -0.14066(6) 0.95779(14)
W4B W 0.70765(14) 0.11343(7) 1.17295(14)
W5B W 0.69727(15) 0.07415(7) 0.88165(16)
W6B W 0.50744(14) 0.04047(8) 1.28963(14)
N3A N 0.874(3) -0.250(2) 1.282(4)
N3C N 0.126(3) 0.250(2) 0.718(4)
Cu1A Cu -0.3007(6) -0.2318(4) 0.6911(8)
Cu1C Cu 1.3007(6) 0.2318(4) 1.3089(8)
C1 C 0.888(6) 0.049(2) 0.523(6)
H1 H 0.9041 0.0835 0.4875
C2 C 0.950(6) -0.004(3) 0.524(7)
C3 C 0.912(5) -0.057(2) 0.560(5)
H2 H 0.9463 -0.0931 0.5496
C4 C 0.825(6) -0.055(2) 0.611(6)
H3 H 0.8084 -0.0896 0.6466
N1 N 0.761(5) -0.003(3) 0.608(7)
C5 C 0.802(7) 0.050(2) 0.576(8)
H4 H 0.7710 0.0871 0.5906
C1B C 1.112(6) -0.049(2) 0.477(6)
H1B H 1.0959 -0.0835 0.5125
C2B C 1.050(6) 0.004(3) 0.476(7)
C3B C 1.088(5) 0.057(2) 0.440(5)
H2B H 1.0537 0.0931 0.4504
C4B C 1.175(6) 0.055(2) 0.389(6)
H3B H 1.1916 0.0896 0.3534
N1B N 1.239(5) 0.003(3) 0.392(7)
C5B C 1.198(7) -0.050(2) 0.424(8)
H4B H 1.2290 -0.0871 0.4094
loop_
_geom_bond_atom_site_label_1
_geom_bond_atom_site_label_2
_geom_bond_site_symmetry_1
_geom_bond_site_symmetry_2
C1 H1 1_555 1_555
C2 C1 1_555 1_555
C3 C2 1_555 1_555
H2 C3 1_555 1_555
C4 C3 1_555 1_555
H3 C4 1_555 1_555
N1 C4 1_555 1_555
C5 C1 1_555 1_555
H4 C5 1_555 1_555
C6 H5 1_555 1_555
C7 C6 1_555 1_555
H6 C7 1_555 1_555
C8 C7 1_555 1_555
C9 C8 1_555 1_555
H7 C9 1_555 1_555
C10 C9 1_555 1_555
H8 C10 1_555 1_555
C11 C8 1_555 1_555
C12 C11 1_555 1_555
H9 C12 1_555 1_555
C13 C12 1_555 1_555
H10 C13 1_555 1_555
C14 H11 1_555 1_555
C15 C11 1_555 1_555
H12 C15 1_555 1_555
N2 C6 1_555 1_555
N3 C13 1_555 1_555
O1 Si1 1_555 1_555
O2 W2 1_555 1_555
O3 Si1 1_555 1_555
O4 Si1 1_555 1_555
O5 Si1 1_555 1_555
O6 W2 1_555 1_555
O7 W1 1_555 1_555
O8 W1 1_555 1_555
O9 W2 1_555 1_555
O10 W6 1_555 1_555
O11 W5 1_555 1_555
O12 W1 1_555 1_555
O13 W4 1_555 1_555
O14 W3 1_555 1_555
O15 W2 1_555 1_555
O16 W4 1_555 1_555
O17 W1 1_555 1_555
O18 Cu1 1_555 1_555
O19 W3 1_555 1_555
O20 W5 1_555 1_555
O21 W4 1_555 1_555
O22 W6 1_555 1_555
Si1 O1B 1_555 1_555
Cu1 N2 1_555 1_555
W1 O3 1_555 1_555
W2 O3 1_555 1_555
W3 O1 1_555 1_555
W4 O2 1_555 1_555
W5 O4 1_555 1_555
W6 O5 1_555 1_555
C1B H1B 1_555 1_555
C2B C2 1_555 1_555
C3B C2B 1_555 1_555
H2B C3B 1_555 1_555
C4B C3B 1_555 1_555
H3B C4B 1_555 1_555
N1B C4B 1_555 1_555
C5B C1B 1_555 1_555
H4B C5B 1_555 1_555
O1B W4 1_555 1_555
O3B Si1 1_555 1_555
O4B Si1 1_555 1_555
O5B Si1 1_555 1_555
C6B H5B 1_555 1_555
C7B C6B 1_555 1_555
H6B C7B 1_555 1_555
C8B C7B 1_555 1_555
C9B C8B 1_555 1_555
H7B C9B 1_555 1_555
C10B C9B 1_555 1_555
H8B C10B 1_555 1_555
C11B C8B 1_555 1_555
C12B C11B 1_555 1_555
H9B C12B 1_555 1_555
C13B C12B 1_555 1_555
H10B C13B 1_555 1_555
C14B H11B 1_555 1_555
C15B C11B 1_555 1_555
H12B C15B 1_555 1_555
N2B C6B 1_555 1_555
N3B C13B 1_555 1_555
O2B W2B 1_555 1_555
O6B W2B 1_555 1_555
O7B W1B 1_555 1_555
O8B W1B 1_555 1_555
O9B W2B 1_555 1_555
O10B W6B 1_555 1_555
O11B W5B 1_555 1_555
O12B W1B 1_555 1_555
O13B W4B 1_555 1_555
O14B W3B 1_555 1_555
O15B W2B 1_555 1_555
O16B W4B 1_555 1_555
O17B W5 1_555 1_555
O18B Cu1B 1_555 1_555
O19B W4 1_555 1_555
O20B W6 1_555 1_555
O21B W4B 1_555 1_555
O22B W3 1_555 1_555
Cu1B N2B 1_555 1_555
W1B O3B 1_555 1_555
W2B O3B 1_555 1_555
W3B O22 1_555 1_555
W4B O1 1_555 1_555
W5B O5 1_555 1_555
W6B O1 1_555 1_555
N3A Cu1B 1_555 1_555
N3C Cu1 1_555 1_555
Cu1A N3B 1_555 1_555
Cu1C N3 1_555 1_555
N1 C5 1_555 1_555
C10 N2 1_555 1_555
C14 C15 1_555 1_555
C14 N3 1_555 1_555
O3 W3 1_555 1_555
O4 W2 1_555 1_555
O4 W4 1_555 1_555
O5 W1 1_555 1_555
O6 W3 1_555 1_555
O7 W2 1_555 1_555
O8 W6 1_555 1_555
O15 W5 1_555 1_555
O16 W5 1_555 1_555
O17 W5B 1_555 1_555
O18 W1 1_555 1_555
O18 W3 1_555 1_555
O19 W4B 1_555 1_555
O20 W6B 1_555 1_555
O21 W6 1_555 1_555
W5 O5B 1_555 1_555
W6 O1B 1_555 1_555
C1B C2B 1_555 1_555
N1B C5B 1_555 1_555
O1B W3B 1_555 1_555
O3B W3B 1_555 1_555
O4B W2B 1_555 1_555
O4B W4B 1_555 1_555
O4B W5B 1_555 1_555
O5B W1B 1_555 1_555
O5B W6B 1_555 1_555
C10B N2B 1_555 1_555
C14B C15B 1_555 1_555
C14B N3B 1_555 1_555
O2B W4B 1_555 1_555
O6B W3B 1_555 1_555
O7B W2B 1_555 1_555
O8B W6B 1_555 1_555
O15B W5B 1_555 1_555
O16B W5B 1_555 1_555
O17B W1B 1_555 1_555
O18B W1B 1_555 1_555
O18B W3B 1_555 1_555
O19B W3B 1_555 1_555
O20B W5B 1_555 1_555
O21B W6B 1_555 1_555
O22B W6B 1_555 1_555

#END
