
#######################################################################
#
#                 Cambridge Crystallographic Data Centre
#                                CCDC 
#
#######################################################################
#
# If this CIF has been generated from an entry in the Cambridge 
# Structural Database, then it will include bibliographic, chemical, 
# crystal, experimental, refinement or atomic coordinate data resulting 
# from the CCDC's data processing and validation procedures.
#
#######################################################################

data_KOQJIL
_symmetry_cell_setting           triclinic
_symmetry_space_group_name_H-M   'P -1'
_symmetry_Int_Tables_number      2
_space_group_name_Hall           '-P 1'
loop_
_symmetry_equiv_pos_site_id
_symmetry_equiv_pos_as_xyz
1 x,y,z
2 -x,-y,-z
_cell_length_a                   6.0148(5)
_cell_length_b                   11.3871(10)
_cell_length_c                   11.4256(10)
_cell_angle_alpha                88.5910(10)
_cell_angle_beta                 81.2110(10)
_cell_angle_gamma                76.6910(10)
_cell_volume                     752.547
loop_
_atom_site_label
_atom_site_type_symbol
_atom_site_fract_x
_atom_site_fract_y
_atom_site_fract_z
Zn1 Zn 0.01401(4) 0.15438(2) 0.49500(2)
O1 O 0.2067(3) 0.25316(17) 0.38103(17)
O2 O 0.3193(3) 0.05606(17) 0.37904(17)
O3 O 0.8941(3) -0.10039(16) 0.34943(15)
O4 O 0.8079(3) 0.09262(16) 0.40593(16)
N1 N -0.2619(4) 0.28989(18) 0.56854(18)
N2 N -0.9314(4) 0.49116(19) 0.87279(19)
C1 C -0.4593(4) 0.2568(2) 0.6110(2)
H1 H -0.4698 0.1764 0.5978
C2 C -0.6468(4) 0.3354(2) 0.6731(2)
H2 H -0.7830 0.3087 0.7023
C3 C -0.6364(4) 0.4538(2) 0.6928(2)
C4 C -0.4333(5) 0.4882(2) 0.6469(2)
H3 H -0.4196 0.5687 0.6572
C5 C -0.2516(4) 0.4043(2) 0.5860(2)
H4 H -0.1136 0.4288 0.5553
C6 C -0.8400(5) 0.5414(2) 0.7612(2)
H5 H -0.7916 0.6158 0.7784
H6 H -0.9642 0.5638 0.7115
C7 C -1.1422(4) 0.5760(2) 0.9280(2)
H7 H -1.2595 0.5886 0.8740
H8 H -1.1065 0.6548 0.9412
C8 C -0.7618(4) 0.4717(3) 0.9555(2)
H9 H -0.7199 0.5488 0.9693
H10 H -0.6197 0.4134 0.9202
C9 C 0.3433(4) 0.1564(2) 0.3388(2)
C10 C 0.5332(4) 0.1643(2) 0.2380(2)
H11 H 0.5996 0.2331 0.2539
H12 H 0.4637 0.1822 0.1646
C11 C 0.7309(4) 0.0509(2) 0.2160(2)
C12 C 0.8143(4) 0.0104(2) 0.3335(2)
C13 C 0.6577(5) -0.0480(3) 0.1542(2)
H13 H 0.7875 -0.1187 0.1404
H14 H 0.6116 -0.0183 0.0782
H15 H 0.5271 -0.0707 0.2043
C14 C 0.9380(5) 0.0867(3) 0.1389(2)
H16 H 1.0659 0.0154 0.1232
H17 H 0.9874 0.1480 0.1807
H18 H 0.8923 0.1194 0.0638
N1A N -1.7381(4) 0.71011(18) 1.43146(18)
N2A N -1.0686(4) 0.50884(19) 1.12721(19)
C1A C -1.5407(4) 0.7432(2) 1.3890(2)
H1A H -1.5302 0.8236 1.4022
C2A C -1.3532(4) 0.6646(2) 1.3269(2)
H2A H -1.2170 0.6913 1.2977
C3A C -1.3636(4) 0.5462(2) 1.3072(2)
C4A C -1.5667(5) 0.5118(2) 1.3531(2)
H3A H -1.5804 0.4313 1.3428
C5A C -1.7484(4) 0.5957(2) 1.4140(2)
H4A H -1.8864 0.5712 1.4447
C6A C -1.1600(5) 0.4586(2) 1.2388(2)
H5A H -1.2084 0.3842 1.2216
H6A H -1.0358 0.4362 1.2885
C7A C -0.8578(4) 0.4240(2) 1.0720(2)
H7A H -0.7405 0.4114 1.1260
H8A H -0.8935 0.3452 1.0588
C8A C -1.2382(4) 0.5283(3) 1.0445(2)
H9A H -1.2801 0.4512 1.0307
H10A H -1.3803 0.5866 1.0798
Zn1A Zn -2.01401(4) 0.84562(2) 1.50500(2)
O1A O -2.2067(3) 0.74684(17) 1.61897(17)
O2A O -2.3193(3) 0.94394(17) 1.62096(17)
O3A O -2.8941(3) 1.10039(16) 1.65057(15)
O4A O -2.8079(3) 0.90738(16) 1.59407(16)
C9A C -2.3433(4) 0.8436(2) 1.6612(2)
C10A C -2.5332(4) 0.8357(2) 1.7620(2)
H11A H -2.5996 0.7669 1.7461
H12A H -2.4637 0.8178 1.8354
C11A C -2.7309(4) 0.9491(2) 1.7840(2)
C12A C -2.8143(4) 0.9896(2) 1.6665(2)
C13A C -2.6577(5) 1.0480(3) 1.8458(2)
H13A H -2.7875 1.1187 1.8596
H14A H -2.6116 1.0183 1.9218
H15A H -2.5271 1.0707 1.7957
C14A C -2.9380(5) 0.9133(3) 1.8611(2)
H16A H -3.0659 0.9846 1.8768
H17A H -2.9874 0.8520 1.8193
H18A H -2.8923 0.8806 1.9362
Zn1_2 Zn -2.98599(4) 1.15438(2) 1.49500(2)
Zn1_3 Zn 1.01401(4) 0.15438(2) 0.49500(2)
Zn1A_2 Zn -3.01401(4) 0.84562(2) 1.50500(2)
Zn1A_3 Zn 0.98599(4) -0.15438(2) 0.50500(2)
O3_2 O -2.1059(3) 0.89961(16) 1.34943(15)
O3A_2 O 0.1059(3) 0.10039(16) 0.65057(15)
O4_2 O -0.1921(3) 0.09262(16) 0.40593(16)
O4A_2 O -1.8079(3) 0.90738(16) 1.59407(16)
O5 O -1.1832(6) 0.2810(4) 0.8622(3)
H19 H -1.064(7) 0.327(4) 0.861(5)
H20 H -1.105(8) 0.227(4) 0.799(4)
loop_
_geom_bond_atom_site_label_1
_geom_bond_atom_site_label_2
_geom_bond_site_symmetry_1
_geom_bond_site_symmetry_2
Zn1 O1 1_555 1_555
O1 C9 1_555 1_555
O2 Zn1 1_555 1_555
O3 C12 1_555 1_555
O4 C12 1_555 1_555
N1 Zn1 1_555 1_555
N2 C6 1_555 1_555
C1 N1 1_555 1_555
H1 C1 1_555 1_555
C2 C1 1_555 1_555
H2 C2 1_555 1_555
C3 C2 1_555 1_555
C4 C3 1_555 1_555
H3 C4 1_555 1_555
C5 N1 1_555 1_555
H4 C5 1_555 1_555
C6 C3 1_555 1_555
H5 C6 1_555 1_555
H6 C6 1_555 1_555
C7 N2 1_555 1_555
H7 C7 1_555 1_555
H8 C7 1_555 1_555
C8 N2 1_555 1_555
H9 C8 1_555 1_555
H10 C8 1_555 1_555
C9 O2 1_555 1_555
C10 C9 1_555 1_555
H11 C10 1_555 1_555
H12 C10 1_555 1_555
C11 C10 1_555 1_555
C12 C11 1_555 1_555
C13 C11 1_555 1_555
H13 C13 1_555 1_555
H14 C13 1_555 1_555
H15 C13 1_555 1_555
C14 C11 1_555 1_555
H16 C14 1_555 1_555
H17 C14 1_555 1_555
H18 C14 1_555 1_555
O5 H19 1_555 1_555
H20 O5 1_555 1_555
N1A C1A 1_555 1_555
N2A C6A 1_555 1_555
C1A H1A 1_555 1_555
C2A C1A 1_555 1_555
H2A C2A 1_555 1_555
C3A C2A 1_555 1_555
C4A C3A 1_555 1_555
H3A C4A 1_555 1_555
C5A N1A 1_555 1_555
H4A C5A 1_555 1_555
C6A C3A 1_555 1_555
H5A C6A 1_555 1_555
H6A C6A 1_555 1_555
C7A C8 1_555 1_555
H7A C7A 1_555 1_555
H8A C7A 1_555 1_555
C8A C7 1_555 1_555
H9A C8A 1_555 1_555
H10A C8A 1_555 1_555
Zn1A N1A 1_555 1_555
O1A Zn1A 1_555 1_555
O2A Zn1A 1_555 1_555
O3A C12A 1_555 1_555
O4A C12A 1_555 1_555
C9A O1A 1_555 1_555
C10A C9A 1_555 1_555
H11A C10A 1_555 1_555
H12A C10A 1_555 1_555
C11A C10A 1_555 1_555
C12A C11A 1_555 1_555
C13A C11A 1_555 1_555
H13A C13A 1_555 1_555
H14A C13A 1_555 1_555
H15A C13A 1_555 1_555
C14A C11A 1_555 1_555
H16A C14A 1_555 1_555
H17A C14A 1_555 1_555
H18A C14A 1_555 1_555
Zn1_2 O3A 1_555 1_555
Zn1_3 O4 1_555 1_555
Zn1A_2 O4A 1_555 1_555
Zn1A_3 O3 1_555 1_555
O3_2 Zn1A 1_555 1_555
O3A_2 Zn1 1_555 1_555
O4_2 Zn1 1_555 1_555
O4A_2 Zn1A 1_555 1_555
C4 C5 1_555 1_555
N2A C7A 1_555 1_555
N2A C8A 1_555 1_555
C4A C5A 1_555 1_555
O2A C9A 1_555 1_555

#END
