
#######################################################################
#
#                 Cambridge Crystallographic Data Centre
#                                CCDC 
#
#######################################################################
#
# If this CIF has been generated from an entry in the Cambridge 
# Structural Database, then it will include bibliographic, chemical, 
# crystal, experimental, refinement or atomic coordinate data resulting 
# from the CCDC's data processing and validation procedures.
#
#######################################################################

data_KOQKAE
_symmetry_cell_setting           monoclinic
_symmetry_space_group_name_H-M   'C 2/c'
_symmetry_Int_Tables_number      15
_space_group_name_Hall           '-C 2yn'
loop_
_symmetry_equiv_pos_site_id
_symmetry_equiv_pos_as_xyz
1 x,y,z
2 -x,y,1/2-z
3 1/2+x,1/2+y,z
4 1/2-x,1/2+y,1/2-z
5 -x,-y,-z
6 x,-y,1/2+z
7 1/2-x,1/2-y,-z
8 1/2+x,1/2-y,1/2+z
_cell_length_a                   7.4312(13)
_cell_length_b                   16.987(3)
_cell_length_c                   18.379(3)
_cell_angle_alpha                90
_cell_angle_beta                 95.251(2)
_cell_angle_gamma                90
_cell_volume                     2310.31
loop_
_atom_site_label
_atom_site_type_symbol
_atom_site_fract_x
_atom_site_fract_y
_atom_site_fract_z
Zn1 Zn 0.5000 0.67287(2) 0.7500
O1 O 0.3114(3) 0.59825(13) 0.72282(11)
N1 N 0.4263(3) 0.74167(12) 0.83337(11)
C1 C 0.0000 0.4961(2) 0.7500
N2 N 0.1074(3) 0.92961(13) 0.99659(11)
O2 O 0.1192(3) 0.67919(14) 0.66763(18)
C2 C 0.5037(4) 0.81592(17) 0.94139(16)
H1 H 0.5948 0.8344 0.9769
C3 C 0.3250(4) 0.83728(16) 0.94597(14)
C4 C 0.1581(4) 0.61406(17) 0.69004(14)
C5 C 0.2536(4) 0.76172(16) 0.83799(15)
H2 H 0.1647 0.7427 0.8018
C6 C 0.1203(4) 0.99463(16) 0.94552(15)
H3 H 0.1527 0.9740 0.8981
H4 H 0.2168 1.0312 0.9648
C7 C 0.1990(4) 0.80864(16) 0.89285(14)
H5 H 0.0748 0.8213 0.8941
C8 C 0.0558(4) 0.96190(17) 1.06558(14)
H6 H 0.1514 0.9982 1.0864
H7 H 0.0448 0.9185 1.1009
C9 C -0.1658(4) 0.44377(17) 0.73350(16)
H8 H -0.1491 0.4107 0.6909
H9 H -0.2732 0.4768 0.7231
H10 H -0.1814 0.4102 0.7758
C10 C 0.0195(4) 0.54859(15) 0.68258(13)
H11 H 0.0491 0.5141 0.6419
H12 H -0.0998 0.5726 0.6680
C11 C 0.5495(4) 0.76820(17) 0.88578(15)
H13 H 0.6723 0.7534 0.8842
C12 C 0.2779(4) 0.88817(18) 1.00854(15)
H14 H 0.2747 0.8546 1.0525
H15 H 0.3754 0.9274 1.0190
O1A O -0.3114(3) 0.59825(13) 0.77718(11)
O2A O -0.1192(3) 0.67919(14) 0.83237(18)
C4A C -0.1581(4) 0.61406(17) 0.80996(14)
C9A C 0.1658(4) 0.44377(17) 0.76650(16)
H8A H 0.1491 0.4107 0.8091
H9A H 0.2732 0.4768 0.7769
H10A H 0.1814 0.4102 0.7242
C10A C -0.0195(4) 0.54859(15) 0.81742(13)
H11A H -0.0491 0.5141 0.8581
H12A H 0.0998 0.5726 0.8320
N1D N -0.4263(3) 1.25833(12) 1.16663(11)
N2D N -0.1074(3) 1.07039(13) 1.00341(11)
C2D C -0.5037(4) 1.18408(17) 1.05861(16)
H1D H -0.5948 1.1656 1.0231
C3D C -0.3250(4) 1.16272(16) 1.05403(14)
C5D C -0.2536(4) 1.23828(16) 1.16201(15)
H2D H -0.1647 1.2573 1.1982
C6D C -0.1203(4) 1.00537(16) 1.05448(15)
H3D H -0.1527 1.0260 1.1019
H4D H -0.2168 0.9688 1.0352
C7D C -0.1990(4) 1.19136(16) 1.10715(14)
H5D H -0.0748 1.1787 1.1059
C8D C -0.0558(4) 1.03810(17) 0.93442(14)
H6D H -0.1514 1.0018 0.9136
H7D H -0.0448 1.0815 0.8991
C11D C -0.5495(4) 1.23180(17) 1.11422(15)
H13D H -0.6723 1.2466 1.1158
C12D C -0.2779(4) 1.11183(18) 0.99146(15)
H14D H -0.2747 1.1454 0.9475
H15D H -0.3754 1.0726 0.9810
Zn1_2 Zn -0.5000 0.67287(2) 0.7500
Zn1D Zn -0.5000 1.32713(2) 1.2500
O1A_2 O 0.6886(3) 0.59825(13) 0.77718(11)
N1A N 0.5737(3) 0.74167(12) 0.66663(11)
loop_
_geom_bond_atom_site_label_1
_geom_bond_atom_site_label_2
_geom_bond_site_symmetry_1
_geom_bond_site_symmetry_2
Zn1 O1 1_555 1_555
O1 C4 1_555 1_555
N1 Zn1 1_555 1_555
C1 C9 1_555 1_555
N2 C6 1_555 1_555
O2 C4 1_555 1_555
C2 H1 1_555 1_555
C3 C2 1_555 1_555
C4 C10 1_555 1_555
C5 N1 1_555 1_555
H2 C5 1_555 1_555
C6 H3 1_555 1_555
H4 C6 1_555 1_555
C7 C3 1_555 1_555
H5 C7 1_555 1_555
C8 N2 1_555 1_555
H6 C8 1_555 1_555
H7 C8 1_555 1_555
C9 H8 1_555 1_555
H9 C9 1_555 1_555
H10 C9 1_555 1_555
C10 C1 1_555 1_555
H11 C10 1_555 1_555
H12 C10 1_555 1_555
C11 N1 1_555 1_555
H13 C11 1_555 1_555
C12 N2 1_555 1_555
H14 C12 1_555 1_555
H15 C12 1_555 1_555
O1A C4A 1_555 1_555
O2A C4A 1_555 1_555
C4A C10A 1_555 1_555
C9A C1 1_555 1_555
H8A C9A 1_555 1_555
H9A C9A 1_555 1_555
H10A C9A 1_555 1_555
C10A C1 1_555 1_555
H11A C10A 1_555 1_555
H12A C10A 1_555 1_555
N1D C5D 1_555 1_555
N2D C6D 1_555 1_555
C2D H1D 1_555 1_555
C3D C2D 1_555 1_555
C5D H2D 1_555 1_555
C6D C8 1_555 1_555
H3D C6D 1_555 1_555
H4D C6D 1_555 1_555
C7D C3D 1_555 1_555
H5D C7D 1_555 1_555
C8D C6 1_555 1_555
H6D C8D 1_555 1_555
H7D C8D 1_555 1_555
C11D N1D 1_555 1_555
H13D C11D 1_555 1_555
C12D N2D 1_555 1_555
H14D C12D 1_555 1_555
H15D C12D 1_555 1_555
Zn1_2 O1A 1_555 1_555
Zn1D N1D 1_555 1_555
O1A_2 Zn1 1_555 1_555
N1A Zn1 1_555 1_555
C2 C11 1_555 1_555
C3 C12 1_555 1_555
C5 C7 1_555 1_555
N2D C8D 1_555 1_555
C2D C11D 1_555 1_555
C3D C12D 1_555 1_555
C5D C7D 1_555 1_555

#END
