
#######################################################################
#
#                 Cambridge Crystallographic Data Centre
#                                CCDC 
#
#######################################################################
#
# If this CIF has been generated from an entry in the Cambridge 
# Structural Database, then it will include bibliographic, chemical, 
# crystal, experimental, refinement or atomic coordinate data resulting 
# from the CCDC's data processing and validation procedures.
#
#######################################################################

data_KOQKEI
_symmetry_cell_setting           monoclinic
_symmetry_space_group_name_H-M   'P 21/c'
_symmetry_Int_Tables_number      14
_space_group_name_Hall           '-P 2ybc'
loop_
_symmetry_equiv_pos_site_id
_symmetry_equiv_pos_as_xyz
1 x,y,z
2 -x,1/2+y,1/2-z
3 -x,-y,-z
4 x,1/2-y,1/2+z
_cell_length_a                   8.5514(6)
_cell_length_b                   12.8459(10)
_cell_length_c                   22.6025(17)
_cell_angle_alpha                90
_cell_angle_beta                 92.1000(10)
_cell_angle_gamma                90
_cell_volume                     2481.23
loop_
_atom_site_label
_atom_site_type_symbol
_atom_site_fract_x
_atom_site_fract_y
_atom_site_fract_z
Zn1 Zn 0.38453(4) 0.08321(2) 0.241843(13)
O1 O 0.2093(2) -0.07443(15) 0.31658(9)
O2 O 0.1644(2) 0.04849(16) 0.24909(9)
O3 O -0.3243(2) 0.08169(16) 0.21315(9)
O4 O -0.5063(2) -0.03958(15) 0.21446(9)
N1 N 0.3560(2) 0.20272(17) 0.18265(9)
N2 N 0.4572(3) 0.14384(16) 0.32208(9)
N3 N 0.1407(3) 0.45107(17) 0.02322(9)
N4 N 0.4963(3) 0.38911(17) 0.49102(9)
C1 C 0.3106(3) 0.3618(2) 0.09934(11)
C2 C 0.4338(3) 0.3652(2) 0.14153(11)
H1 H 0.5042 0.4225 0.1427
C3 C 0.2132(3) 0.2761(2) 0.09978(11)
H2 H 0.1299 0.2699 0.0710
C4 C 0.2368(3) 0.1995(2) 0.14193(11)
H3 H 0.1663 0.1423 0.1423
C5 C 0.4526(3) 0.2849(2) 0.18147(11)
H4 H 0.5380 0.2879 0.2095
C6 C 0.2909(3) 0.4497(2) 0.05549(12)
H5 H 0.3044 0.5165 0.0769
H6 H 0.3750 0.4449 0.0266
C7 C 0.6010(3) 0.1800(2) 0.33414(11)
H7 H 0.6769 0.1750 0.3046
C8 C 0.6439(3) 0.2246(2) 0.38789(12)
H8 H 0.7479 0.2488 0.3949
C9 C 0.5356(3) 0.2340(2) 0.43149(11)
C10 C 0.3860(3) 0.1960(2) 0.41879(12)
H9 H 0.3078 0.2007 0.4475
C11 C 0.3517(3) 0.1516(2) 0.36463(12)
H10 H 0.2492 0.1252 0.3568
C12 C 0.5755(3) 0.2874(2) 0.48933(11)
H11 H 0.5418 0.2436 0.5226
H12 H 0.6901 0.2974 0.4937
C13 C 0.1223(3) -0.0297(2) 0.27982(12)
C14 C -0.3680(3) -0.0116(2) 0.20683(11)
C15 C -0.2553(3) -0.0957(2) 0.18965(13)
H13 H -0.2833 -0.1604 0.2106
H14 H -0.2712 -0.1090 0.1467
C16 C -0.0446(3) -0.0629(2) 0.26876(12)
H15 H -0.1152 -0.0106 0.2857
H16 H -0.0623 -0.1301 0.2889
C17 C -0.0841(3) -0.0749(2) 0.20205(13)
H17 H -0.0555 -0.0088 0.1817
C18 C 0.0147(4) -0.1639(3) 0.17740(16)
H18 H 0.1261 -0.1472 0.1831
H19 H -0.0106 -0.1725 0.1351
H20 H -0.0083 -0.2286 0.1983
C19 C 0.0125(3) 0.4802(2) 0.06131(11)
H21 H 0.0304 0.5514 0.0769
H22 H 0.0098 0.4319 0.0954
C20 C 0.1417(3) 0.5237(2) -0.02680(12)
H23 H 0.2276 0.5052 -0.0531
H24 H 0.1606 0.5953 -0.0120
C21 C 0.5196(3) 0.4354(2) 0.55043(11)
H25 H 0.6329 0.4440 0.5596
H26 H 0.4765 0.3882 0.5804
C22 C 0.5606(3) 0.4604(2) 0.44679(11)
H27 H 0.5446 0.4304 0.4067
H28 H 0.6744 0.4692 0.4547
N1B N -0.3560(2) 0.79728(17) -0.18265(9)
N3B N -0.1407(3) 0.54893(17) -0.02322(9)
C1B C -0.3106(3) 0.6382(2) -0.09934(11)
C2B C -0.4338(3) 0.6348(2) -0.14153(11)
H1B H -0.5042 0.5775 -0.1427
C3B C -0.2132(3) 0.7239(2) -0.09978(11)
H2B H -0.1299 0.7301 -0.0710
C4B C -0.2368(3) 0.8005(2) -0.14193(11)
H3B H -0.1663 0.8577 -0.1423
C5B C -0.4526(3) 0.7151(2) -0.18147(11)
H4B H -0.5380 0.7121 -0.2095
C6B C -0.2909(3) 0.5503(2) -0.05549(12)
H5B H -0.3044 0.4835 -0.0769
H6B H -0.3750 0.5551 -0.0266
C19B C -0.0125(3) 0.5198(2) -0.06131(11)
H21B H -0.0304 0.4486 -0.0769
H22B H -0.0098 0.5681 -0.0954
C20B C -0.1417(3) 0.4763(2) 0.02680(12)
H23B H -0.2276 0.4948 0.0531
H24B H -0.1606 0.4047 0.0120
N2B N 0.5428(3) 0.85616(16) 0.67792(9)
N4B N 0.5037(3) 0.61089(17) 0.50898(9)
C7B C 0.3990(3) 0.8200(2) 0.66586(11)
H7B H 0.3231 0.8250 0.6954
C8B C 0.3561(3) 0.7754(2) 0.61211(12)
H8B H 0.2521 0.7512 0.6051
C9B C 0.4644(3) 0.7660(2) 0.56851(11)
C10B C 0.6140(3) 0.8040(2) 0.58121(12)
H9B H 0.6922 0.7993 0.5525
C11B C 0.6483(3) 0.8484(2) 0.63537(12)
H10B H 0.7508 0.8748 0.6432
C12B C 0.4245(3) 0.7126(2) 0.51067(11)
H11B H 0.4582 0.7564 0.4774
H12B H 0.3099 0.7026 0.5063
C21B C 0.4804(3) 0.5646(2) 0.44957(11)
H25B H 0.3671 0.5560 0.4404
H26B H 0.5235 0.6118 0.4196
C22B C 0.4394(3) 0.5396(2) 0.55321(11)
H27B H 0.4554 0.5696 0.5933
H28B H 0.3256 0.5308 0.5453
Zn1B Zn -0.38453(4) 0.91679(2) -0.241843(13)
O1B O -0.2093(2) 1.07443(15) -0.31658(9)
O2B O -0.1644(2) 0.95151(16) -0.24909(9)
O3B O 0.3243(2) 0.91831(16) -0.21315(9)
O4B O 0.5063(2) 1.03958(15) -0.21446(9)
C13B C -0.1223(3) 1.0297(2) -0.27982(12)
C14B C 0.3680(3) 1.0116(2) -0.20683(11)
C15B C 0.2553(3) 1.0957(2) -0.18965(13)
H13B H 0.2833 1.1604 -0.2106
H14B H 0.2712 1.1090 -0.1467
C16B C 0.0446(3) 1.0629(2) -0.26876(12)
H15B H 0.1152 1.0106 -0.2857
H16B H 0.0623 1.1301 -0.2889
C17B C 0.0841(3) 1.0749(2) -0.20205(13)
H17B H 0.0555 1.0088 -0.1817
C18B C -0.0147(4) 1.1639(3) -0.17740(16)
H18B H -0.1261 1.1472 -0.1831
H19B H 0.0106 1.1725 -0.1351
H20B H 0.0083 1.2286 -0.1983
Zn1_2 Zn -0.61547(4) 0.08321(2) 0.241843(13)
Zn1B_2 Zn 0.61547(4) 0.91679(2) -0.241843(13)
Zn1B_3 Zn 0.61547(4) 0.91679(2) 0.758157(13)
O4_2 O 0.4937(2) -0.03958(15) 0.21446(9)
O4B_2 O -0.4937(2) 1.03958(15) -0.21446(9)
N2B_2 N -0.4572(3) 0.85616(16) -0.32208(9)
O5 O -0.0412(3) 0.0918(2) 0.05744(13)
H29 H -0.0841 0.0304 0.0574
H30 H -0.0955 0.1340 0.0787
O6 O 0.1545(3) 0.39008(19) 0.46499(10)
H31 H 0.2538 0.3827 0.4738
H32 H 0.1023 0.3895 0.4973
O7 O 0.1741(3) -0.27694(19) 0.36299(12)
H33 H 0.2109 -0.3196 0.3371
H34 H 0.1742 -0.2140 0.3489
loop_
_geom_bond_atom_site_label_1
_geom_bond_atom_site_label_2
_geom_bond_site_symmetry_1
_geom_bond_site_symmetry_2
Zn1 O2 1_555 1_555
O1 C13 1_555 1_555
O2 C13 1_555 1_555
O3 C14 1_555 1_555
O4 C14 1_555 1_555
N1 Zn1 1_555 1_555
N2 Zn1 1_555 1_555
N3 C6 1_555 1_555
N4 C12 1_555 1_555
C1 C2 1_555 1_555
C2 H1 1_555 1_555
C3 C1 1_555 1_555
H2 C3 1_555 1_555
C4 N1 1_555 1_555
H3 C4 1_555 1_555
C5 N1 1_555 1_555
H4 C5 1_555 1_555
C6 C1 1_555 1_555
H5 C6 1_555 1_555
H6 C6 1_555 1_555
C7 N2 1_555 1_555
H7 C7 1_555 1_555
C8 C7 1_555 1_555
H8 C8 1_555 1_555
C9 C8 1_555 1_555
C10 C9 1_555 1_555
H9 C10 1_555 1_555
C11 N2 1_555 1_555
H10 C11 1_555 1_555
C12 C9 1_555 1_555
H11 C12 1_555 1_555
H12 C12 1_555 1_555
C13 C16 1_555 1_555
C14 C15 1_555 1_555
C15 H13 1_555 1_555
H14 C15 1_555 1_555
C16 H15 1_555 1_555
H16 C16 1_555 1_555
C17 C15 1_555 1_555
H17 C17 1_555 1_555
C18 C17 1_555 1_555
H18 C18 1_555 1_555
H19 C18 1_555 1_555
H20 C18 1_555 1_555
C19 N3 1_555 1_555
H21 C19 1_555 1_555
H22 C19 1_555 1_555
C20 N3 1_555 1_555
H23 C20 1_555 1_555
H24 C20 1_555 1_555
C21 N4 1_555 1_555
H25 C21 1_555 1_555
H26 C21 1_555 1_555
C22 N4 1_555 1_555
H27 C22 1_555 1_555
H28 C22 1_555 1_555
O5 H29 1_555 1_555
H30 O5 1_555 1_555
O6 H31 1_555 1_555
H32 O6 1_555 1_555
O7 H33 1_555 1_555
H34 O7 1_555 1_555
N1B C4B 1_555 1_555
N3B C6B 1_555 1_555
C1B C2B 1_555 1_555
C2B H1B 1_555 1_555
C3B C1B 1_555 1_555
H2B C3B 1_555 1_555
C4B C3B 1_555 1_555
H3B C4B 1_555 1_555
C5B N1B 1_555 1_555
H4B C5B 1_555 1_555
C6B C1B 1_555 1_555
H5B C6B 1_555 1_555
H6B C6B 1_555 1_555
C19B C20 1_555 1_555
H21B C19B 1_555 1_555
H22B C19B 1_555 1_555
C20B C19 1_555 1_555
H23B C20B 1_555 1_555
H24B C20B 1_555 1_555
N2B C7B 1_555 1_555
N4B C12B 1_555 1_555
C7B H7B 1_555 1_555
C8B C7B 1_555 1_555
H8B C8B 1_555 1_555
C9B C8B 1_555 1_555
C10B C9B 1_555 1_555
H9B C10B 1_555 1_555
C11B N2B 1_555 1_555
H10B C11B 1_555 1_555
C12B C9B 1_555 1_555
H11B C12B 1_555 1_555
H12B C12B 1_555 1_555
C21B C22 1_555 1_555
H25B C21B 1_555 1_555
H26B C21B 1_555 1_555
C22B C21 1_555 1_555
H27B C22B 1_555 1_555
H28B C22B 1_555 1_555
Zn1B N1B 1_555 1_555
O1B C13B 1_555 1_555
O2B Zn1B 1_555 1_555
O3B C14B 1_555 1_555
O4B C14B 1_555 1_555
C13B O2B 1_555 1_555
C14B C15B 1_555 1_555
C15B H13B 1_555 1_555
H14B C15B 1_555 1_555
C16B C13B 1_555 1_555
H15B C16B 1_555 1_555
H16B C16B 1_555 1_555
C17B C15B 1_555 1_555
H17B C17B 1_555 1_555
C18B C17B 1_555 1_555
H18B C18B 1_555 1_555
H19B C18B 1_555 1_555
H20B C18B 1_555 1_555
Zn1_2 O4 1_555 1_555
Zn1B_2 O4B 1_555 1_555
Zn1B_3 N2B 1_555 1_555
O4_2 Zn1 1_555 1_555
O4B_2 Zn1B 1_555 1_555
N2B_2 Zn1B 1_555 1_555
C2 C5 1_555 1_555
C3 C4 1_555 1_555
C10 C11 1_555 1_555
C16 C17 1_555 1_555
N3B C19B 1_555 1_555
N3B C20B 1_555 1_555
C2B C5B 1_555 1_555
N4B C21B 1_555 1_555
N4B C22B 1_555 1_555
C10B C11B 1_555 1_555
C16B C17B 1_555 1_555

#END
