
#######################################################################
#
#                 Cambridge Crystallographic Data Centre
#                                CCDC 
#
#######################################################################
#
# If this CIF has been generated from an entry in the Cambridge 
# Structural Database, then it will include bibliographic, chemical, 
# crystal, experimental, refinement or atomic coordinate data resulting 
# from the CCDC's data processing and validation procedures.
#
#######################################################################

data_KOQKIM
_symmetry_cell_setting           triclinic
_symmetry_space_group_name_H-M   'P -1'
_symmetry_Int_Tables_number      2
_space_group_name_Hall           '-P 1'
loop_
_symmetry_equiv_pos_site_id
_symmetry_equiv_pos_as_xyz
1 x,y,z
2 -x,-y,-z
_cell_length_a                   6.2634(9)
_cell_length_b                   10.4787(15)
_cell_length_c                   17.072(2)
_cell_angle_alpha                86.821(2)
_cell_angle_beta                 88.584(2)
_cell_angle_gamma                72.801(2)
_cell_volume                     1068.68
loop_
_atom_site_label
_atom_site_type_symbol
_atom_site_fract_x
_atom_site_fract_y
_atom_site_fract_z
Zn1 Zn 0.96575(7) -0.00625(4) 0.26164(2)
O1 O 1.1138(5) -0.1158(3) 0.35431(15)
O2 O 1.1699(5) 0.0766(3) 0.37653(17)
O3 O 1.1838(5) 0.0107(3) 0.18135(16)
O4 O 0.8826(6) 0.0974(4) 0.11149(19)
N1 N 0.6977(5) 0.1568(3) 0.28153(17)
N2 N 0.1069(5) 0.4907(3) 0.42443(17)
N3 N 0.5883(6) -0.4863(3) 0.07504(18)
N4 N 0.8265(5) -0.1522(3) 0.22743(17)
C1 C 0.5021(7) 0.1733(4) 0.2459(2)
H1 H 0.4934 0.1117 0.2083
C2 C 0.3130(6) 0.2767(4) 0.2619(2)
H2 H 0.1775 0.2852 0.2354
C3 C 0.3212(6) 0.3675(4) 0.3165(2)
C4 C 0.5249(7) 0.3536(4) 0.3509(2)
H3 H 0.5389 0.4162 0.3871
C5 C 0.7083(6) 0.2480(4) 0.3323(2)
H4 H 0.8472 0.2397 0.3564
C6 C 0.1174(7) 0.4783(4) 0.3400(2)
H5 H 0.1227 0.5640 0.3137
H6 H -0.0190 0.4592 0.3225
C7 C 0.0629(7) 0.3756(4) 0.4661(2)
H7 H 0.1780 0.2928 0.4514
H8 H -0.0846 0.3692 0.4504
C8 C -0.0648(7) 0.6126(4) 0.4463(2)
H9 H -0.2136 0.6092 0.4300
H10 H -0.0351 0.6917 0.4192
C9 C 0.6524(7) -0.1770(4) 0.2646(2)
H11 H 0.5854 -0.1236 0.3069
C10 C 0.5648(7) -0.2775(4) 0.2440(2)
H12 H 0.4407 -0.2921 0.2722
C11 C 0.9180(7) -0.2290(4) 0.1681(2)
H13 H 1.0413 -0.2120 0.1406
C12 C 0.8420(7) -0.3316(4) 0.1447(2)
H14 H 0.9148 -0.3850 0.1031
C13 C 0.6587(7) -0.3564(4) 0.1824(2)
C14 C 0.5680(7) -0.4669(4) 0.1589(2)
H15 H 0.6496 -0.5513 0.1875
H16 H 0.4085 -0.4454 0.1745
C15 C 0.5307(8) -0.6073(4) 0.0569(2)
H17 H 0.3745 -0.5984 0.0734
H18 H 0.6297 -0.6857 0.0863
C16 C 0.4434(7) -0.3721(4) 0.0296(2)
H19 H 0.4815 -0.2899 0.0412
H20 H 0.2858 -0.3598 0.0454
C17 C 1.1888(6) -0.0416(4) 0.3959(2)
C18 C 1.3044(7) -0.1051(4) 0.4714(2)
H21 H 1.4275 -0.1854 0.4585
H22 H 1.1961 -0.1355 0.5050
C19 C 1.4003(7) -0.0164(4) 0.5187(2)
H23 H 1.2814 0.0683 0.5271
H24 H 1.4443 -0.0615 0.5709
C20 C 1.0863(7) 0.0697(5) 0.1191(2)
C21 C 1.2296(9) 0.0988(6) 0.0534(3)
H25 H 1.1362 0.1257 0.0059
H26 H 1.2779 0.1767 0.0668
C22 C 1.4283(8) -0.0091(5) 0.0337(3)
H27 H 1.3790 -0.0884 0.0246
H28 H 1.5241 -0.0315 0.0808
O1A O 1.8862(5) 0.1158(3) 0.64569(15)
O2A O 1.8301(5) -0.0766(3) 0.62347(17)
C17A C 1.8112(6) 0.0416(4) 0.6041(2)
C18A C 1.6956(7) 0.1051(4) 0.5286(2)
H21A H 1.5725 0.1854 0.5415
H22A H 1.8039 0.1355 0.4950
C19A C 1.5997(7) 0.0164(4) 0.4813(2)
H23A H 1.7186 -0.0683 0.4729
H24A H 1.5557 0.0615 0.4291
O3A O 1.8162(5) -0.0107(3) -0.18135(16)
O4A O 2.1174(6) -0.0974(4) -0.11149(19)
C20A C 1.9137(7) -0.0697(5) -0.1191(2)
C21A C 1.7704(9) -0.0988(6) -0.0534(3)
H25A H 1.8638 -0.1257 -0.0059
H26A H 1.7221 -0.1767 -0.0668
C22A C 1.5717(8) 0.0091(5) -0.0337(3)
H27A H 1.6210 0.0884 -0.0246
H28A H 1.4759 0.0315 -0.0808
N1A N -0.6977(5) 0.8432(3) 0.71847(17)
N2A N -0.1069(5) 0.5093(3) 0.57557(17)
C1A C -0.5021(7) 0.8267(4) 0.7541(2)
H1A H -0.4934 0.8883 0.7917
C2A C -0.3130(6) 0.7233(4) 0.7381(2)
H2A H -0.1775 0.7148 0.7646
C3A C -0.3212(6) 0.6325(4) 0.6835(2)
C4A C -0.5249(7) 0.6464(4) 0.6491(2)
H3A H -0.5389 0.5838 0.6129
C5A C -0.7083(6) 0.7520(4) 0.6677(2)
H4A H -0.8472 0.7603 0.6436
C6A C -0.1174(7) 0.5217(4) 0.6600(2)
H5A H -0.1227 0.4360 0.6863
H6A H 0.0190 0.5408 0.6775
C7A C -0.0629(7) 0.6244(4) 0.5339(2)
H7A H -0.1780 0.7072 0.5486
H8A H 0.0846 0.6308 0.5496
C8A C 0.0648(7) 0.3874(4) 0.5537(2)
H9A H 0.2136 0.3908 0.5700
H10A H 0.0351 0.3083 0.5808
N3A N 0.4117(6) -0.5137(3) -0.07504(18)
N4A N 0.1735(5) -0.8478(3) -0.22743(17)
C9A C 0.3476(7) -0.8230(4) -0.2646(2)
H11A H 0.4146 -0.8764 -0.3069
C10A C 0.4352(7) -0.7225(4) -0.2440(2)
H12A H 0.5593 -0.7079 -0.2722
C11A C 0.0820(7) -0.7710(4) -0.1681(2)
H13A H -0.0413 -0.7880 -0.1406
C12A C 0.1580(7) -0.6684(4) -0.1447(2)
H14A H 0.0852 -0.6150 -0.1031
C13A C 0.3413(7) -0.6436(4) -0.1824(2)
C14A C 0.4320(7) -0.5331(4) -0.1589(2)
H15A H 0.3504 -0.4487 -0.1875
H16A H 0.5915 -0.5546 -0.1745
C15A C 0.4693(8) -0.3927(4) -0.0569(2)
H17A H 0.6255 -0.4016 -0.0734
H18A H 0.3703 -0.3143 -0.0863
C16A C 0.5566(7) -0.6279(4) -0.0296(2)
H19A H 0.5185 -0.7101 -0.0412
H20A H 0.7142 -0.6402 -0.0454
Zn1A Zn -0.96575(7) 1.00625(4) 0.73836(2)
Zn1A_2 Zn 0.03425(7) -0.99375(4) -0.26164(2)
Zn1A_3 Zn 2.03425(7) 0.00625(4) -0.26164(2)
Zn1A_4 Zn 2.03425(7) 0.00625(4) 0.73836(2)
O1A_2 O -1.1138(5) 1.1158(3) 0.64569(15)
O3A_2 O -1.1838(5) 0.9893(3) 0.81865(16)
N4A_2 N -0.8265(5) 1.1522(3) 0.77257(17)
loop_
_geom_bond_atom_site_label_1
_geom_bond_atom_site_label_2
_geom_bond_site_symmetry_1
_geom_bond_site_symmetry_2
Zn1 O1 1_555 1_555
O1 C17 1_555 1_555
O2 C17 1_555 1_555
O3 Zn1 1_555 1_555
O4 C20 1_555 1_555
N1 Zn1 1_555 1_555
N2 C6 1_555 1_555
N3 C14 1_555 1_555
N4 Zn1 1_555 1_555
C1 N1 1_555 1_555
H1 C1 1_555 1_555
C2 C1 1_555 1_555
H2 C2 1_555 1_555
C3 C2 1_555 1_555
C4 C3 1_555 1_555
H3 C4 1_555 1_555
C5 N1 1_555 1_555
H4 C5 1_555 1_555
C6 C3 1_555 1_555
H5 C6 1_555 1_555
H6 C6 1_555 1_555
C7 N2 1_555 1_555
H7 C7 1_555 1_555
H8 C7 1_555 1_555
C8 N2 1_555 1_555
H9 C8 1_555 1_555
H10 C8 1_555 1_555
C9 N4 1_555 1_555
H11 C9 1_555 1_555
C10 C9 1_555 1_555
H12 C10 1_555 1_555
C11 N4 1_555 1_555
H13 C11 1_555 1_555
C12 C11 1_555 1_555
H14 C12 1_555 1_555
C13 C10 1_555 1_555
C14 C13 1_555 1_555
H15 C14 1_555 1_555
H16 C14 1_555 1_555
C15 N3 1_555 1_555
H17 C15 1_555 1_555
H18 C15 1_555 1_555
C16 N3 1_555 1_555
H19 C16 1_555 1_555
H20 C16 1_555 1_555
C17 C18 1_555 1_555
C18 H21 1_555 1_555
H22 C18 1_555 1_555
C19 C18 1_555 1_555
H23 C19 1_555 1_555
H24 C19 1_555 1_555
C20 O3 1_555 1_555
C21 C20 1_555 1_555
H25 C21 1_555 1_555
H26 C21 1_555 1_555
C22 C21 1_555 1_555
H27 C22 1_555 1_555
H28 C22 1_555 1_555
O1A C17A 1_555 1_555
O2A C17A 1_555 1_555
C17A C18A 1_555 1_555
C18A H21A 1_555 1_555
H22A C18A 1_555 1_555
C19A C19 1_555 1_555
H23A C19A 1_555 1_555
H24A C19A 1_555 1_555
O3A C20A 1_555 1_555
O4A C20A 1_555 1_555
C20A C21A 1_555 1_555
C21A H25A 1_555 1_555
H26A C21A 1_555 1_555
C22A C22 1_555 1_555
H27A C22A 1_555 1_555
H28A C22A 1_555 1_555
N1A C1A 1_555 1_555
N2A C6A 1_555 1_555
C1A H1A 1_555 1_555
C2A C1A 1_555 1_555
H2A C2A 1_555 1_555
C3A C2A 1_555 1_555
C4A C3A 1_555 1_555
H3A C4A 1_555 1_555
C5A N1A 1_555 1_555
H4A C5A 1_555 1_555
C6A C3A 1_555 1_555
H5A C6A 1_555 1_555
H6A C6A 1_555 1_555
C7A C8 1_555 1_555
H7A C7A 1_555 1_555
H8A C7A 1_555 1_555
C8A C7 1_555 1_555
H9A C8A 1_555 1_555
H10A C8A 1_555 1_555
N3A C14A 1_555 1_555
N4A C9A 1_555 1_555
C9A H11A 1_555 1_555
C10A C9A 1_555 1_555
H12A C10A 1_555 1_555
C11A N4A 1_555 1_555
H13A C11A 1_555 1_555
C12A C11A 1_555 1_555
H14A C12A 1_555 1_555
C13A C10A 1_555 1_555
C14A C13A 1_555 1_555
H15A C14A 1_555 1_555
H16A C14A 1_555 1_555
C15A C16 1_555 1_555
H17A C15A 1_555 1_555
H18A C15A 1_555 1_555
C16A C15 1_555 1_555
H19A C16A 1_555 1_555
H20A C16A 1_555 1_555
Zn1A N1A 1_555 1_555
Zn1A_2 N4A 1_555 1_555
Zn1A_3 O3A 1_555 1_555
Zn1A_4 O1A 1_555 1_555
O1A_2 Zn1A 1_555 1_555
O3A_2 Zn1A 1_555 1_555
N4A_2 Zn1A 1_555 1_555
C4 C5 1_555 1_555
C12 C13 1_555 1_555
C18A C19A 1_555 1_555
C21A C22A 1_555 1_555
N2A C7A 1_555 1_555
N2A C8A 1_555 1_555
C4A C5A 1_555 1_555
N3A C15A 1_555 1_555
N3A C16A 1_555 1_555
C12A C13A 1_555 1_555

#END
