
#######################################################################
#
#                 Cambridge Crystallographic Data Centre
#                                CCDC 
#
#######################################################################
#
# If this CIF has been generated from an entry in the Cambridge 
# Structural Database, then it will include bibliographic, chemical, 
# crystal, experimental, refinement or atomic coordinate data resulting 
# from the CCDC's data processing and validation procedures.
#
#######################################################################

data_KOQLAF
_symmetry_cell_setting           monoclinic
_symmetry_space_group_name_H-M   'P 2/n'
_symmetry_Int_Tables_number      13
_space_group_name_Hall           '-P 2yac'
loop_
_symmetry_equiv_pos_site_id
_symmetry_equiv_pos_as_xyz
1 x,y,z
2 1/2-x,y,1/2-z
3 -x,-y,-z
4 1/2+x,-y,1/2+z
_cell_length_a                   15.690(3)
_cell_length_b                   9.0941(14)
_cell_length_c                   21.264(3)
_cell_angle_alpha                90
_cell_angle_beta                 101.230(3)
_cell_angle_gamma                90
_cell_volume                     2975.99
loop_
_atom_site_label
_atom_site_type_symbol
_atom_site_fract_x
_atom_site_fract_y
_atom_site_fract_z
Cd1 Cd 0.7500 1.111324(18) 0.2500
Cd2 Cd 0.2500 1.78679(2) 0.2500
N1 N 0.84966(9) 0.93843(15) 0.29047(6)
N2 N 0.91126(9) 0.74471(16) 0.34020(7)
N3 N 0.79808(10) 1.04614(16) 0.68658(7)
N4 N 0.85545(10) 0.85589(16) 0.64732(7)
C1 C 0.63802(11) 1.27293(18) 0.30370(9)
C2 C 0.57448(11) 1.34673(19) 0.33775(8)
C3 C 0.51425(10) 1.44573(18) 0.30582(8)
H1 H 0.5149 1.4706 0.2635
C4 C 0.45296(11) 1.50800(19) 0.33657(9)
C5 C 0.38538(11) 1.6093(2) 0.30115(10)
C6 C 0.45430(13) 1.4726(3) 0.39935(10)
H2 H 0.4135 1.5151 0.4201
C7 C 0.51379(15) 1.3768(3) 0.43242(11)
H3 H 0.5142 1.3563 0.4753
C8 C 0.57310(13) 1.3111(2) 0.40143(10)
H4 H 0.6123 1.2427 0.4230
C9 C 0.92483(12) 0.9066(2) 0.26882(9)
H5 H 0.9457 0.9599 0.2377
C10 C 0.96287(12) 0.7898(2) 0.29863(9)
H6 H 1.0144 0.7466 0.2927
C11 C 0.84312(11) 0.83898(19) 0.33342(8)
C12 C 0.77026(13) 0.8309(2) 0.36804(10)
H7 H 0.7341 0.9162 0.3582
H8 H 0.7927 0.8271 0.4134
H9 H 0.7366 0.7440 0.3551
C13 C 0.92531(14) 0.6094(2) 0.37980(9)
H10 H 0.9820 0.5696 0.3777
H11 H 0.8822 0.5370 0.3614
C14 C 0.92027(11) 0.63091(18) 0.44879(8)
C15 C 0.85430(12) 0.5668(2) 0.47388(9)
C16 C 0.78615(15) 0.4715(3) 0.43496(12)
H12 H 0.7856 0.4866 0.3902
H13 H 0.7303 0.4965 0.4441
H14 H 0.7988 0.3702 0.4456
C17 C 0.85001(12) 0.5941(2) 0.53935(10)
C18 C 0.77509(16) 0.5313(3) 0.56811(13)
H15 H 0.7973 0.4584 0.5997
H16 H 0.7328 0.4871 0.5347
H17 H 0.7483 0.6091 0.5879
C19 C 0.91212(13) 0.68420(19) 0.57696(9)
C20 C 0.98059(12) 0.74518(19) 0.55179(9)
C21 C 1.04568(17) 0.8404(3) 0.59256(11)
H18 H 1.0978 0.7852 0.6075
H19 H 1.0227 0.8746 0.6286
H20 H 1.0586 0.9231 0.5680
C22 C 0.98444(11) 0.71775(18) 0.48728(9)
C23 C 1.05846(13) 0.7801(2) 0.45953(10)
H21 H 1.0697 0.7169 0.4259
H22 H 1.1096 0.7866 0.4926
H23 H 1.0431 0.8763 0.4425
C24 C 0.90511(14) 0.7193(2) 0.64423(10)
H24 H 0.8766 0.6387 0.6617
H25 H 0.9629 0.7302 0.6702
C25 C 0.81205(15) 0.9363(2) 0.59590(10)
H26 H 0.8081 0.9145 0.5527
C26 C 0.77649(14) 1.0528(2) 0.62053(10)
H27 H 0.7430 1.1257 0.5969
C27 C 0.84470(12) 0.9259(2) 0.70083(9)
C28 C 0.88037(15) 0.8735(3) 0.76569(10)
H28 H 0.8729 0.9479 0.7962
H29 H 0.9411 0.8527 0.7694
H30 H 0.8505 0.7857 0.7740
O1 O 0.68964(9) 1.18056(14) 0.33480(7)
O2 O 0.63717(9) 1.30315(14) 0.24648(6)
O3 O 0.34725(9) 1.69447(16) 0.33396(7)
O4 O 0.36669(8) 1.60797(16) 0.24175(7)
C1A C -0.13802(11) 1.27293(18) 0.19630(9)
C2A C -0.07448(11) 1.34673(19) 0.16225(8)
C3A C -0.01425(10) 1.44573(18) 0.19418(8)
H1A H -0.0149 1.4706 0.2365
C4A C 0.04704(11) 1.50800(19) 0.16343(9)
C5A C 0.11462(11) 1.6093(2) 0.19885(10)
C6A C 0.04570(13) 1.4726(3) 0.10065(10)
H2A H 0.0865 1.5151 0.0799
C7A C -0.01379(15) 1.3768(3) 0.06758(11)
H3A H -0.0142 1.3563 0.0247
C8A C -0.07310(13) 1.3111(2) 0.09857(10)
H4A H -0.1123 1.2427 0.0770
O1A O -0.18964(9) 1.18056(14) 0.16520(7)
O2A O -0.13717(9) 1.30315(14) 0.25352(6)
O3A O 0.15275(9) 1.69447(16) 0.16604(7)
O4A O 0.13331(8) 1.60797(16) 0.25825(7)
N1A N 0.65034(9) 0.93843(15) 0.20953(6)
N2A N 0.58874(9) 0.74471(16) 0.15980(7)
N3A N 0.70192(10) 1.04614(16) -0.18658(7)
N4A N 0.64455(10) 0.85589(16) -0.14732(7)
C9A C 0.57517(12) 0.9066(2) 0.23118(9)
H5A H 0.5543 0.9599 0.2623
C10A C 0.53713(12) 0.7898(2) 0.20137(9)
H6A H 0.4856 0.7466 0.2073
C11A C 0.65688(11) 0.83898(19) 0.16658(8)
C12A C 0.72974(13) 0.8309(2) 0.13196(10)
H7A H 0.7659 0.9162 0.1418
H8A H 0.7073 0.8271 0.0866
H9A H 0.7634 0.7440 0.1449
C13A C 0.57469(14) 0.6094(2) 0.12020(9)
H10A H 0.5180 0.5696 0.1223
H11A H 0.6178 0.5370 0.1386
C14A C 0.57973(11) 0.63091(18) 0.05121(8)
C15A C 0.64570(12) 0.5668(2) 0.02612(9)
C16A C 0.71385(15) 0.4715(3) 0.06504(12)
H12A H 0.7144 0.4866 0.1098
H13A H 0.7697 0.4965 0.0559
H14A H 0.7012 0.3702 0.0544
C17A C 0.64999(12) 0.5941(2) -0.03935(10)
C18A C 0.72491(16) 0.5313(3) -0.06811(13)
H15A H 0.7027 0.4584 -0.0997
H16A H 0.7672 0.4871 -0.0347
H17A H 0.7517 0.6091 -0.0879
C19A C 0.58788(13) 0.68420(19) -0.07696(9)
C20A C 0.51941(12) 0.74518(19) -0.05179(9)
C21A C 0.45432(17) 0.8404(3) -0.09256(11)
H18A H 0.4022 0.7852 -0.1075
H19A H 0.4773 0.8746 -0.1286
H20A H 0.4414 0.9231 -0.0680
C22A C 0.51556(11) 0.71775(18) 0.01272(9)
C23A C 0.44154(13) 0.7801(2) 0.04047(10)
H21A H 0.4303 0.7169 0.0741
H22A H 0.3904 0.7866 0.0074
H23A H 0.4569 0.8763 0.0575
C24A C 0.59489(14) 0.7193(2) -0.14423(10)
H24A H 0.6234 0.6387 -0.1617
H25A H 0.5371 0.7302 -0.1702
C25A C 0.68795(15) 0.9363(2) -0.09590(10)
H26A H 0.6919 0.9145 -0.0527
C26A C 0.72351(14) 1.0528(2) -0.12053(10)
H27A H 0.7570 1.1257 -0.0969
C27A C 0.65530(12) 0.9259(2) -0.20083(9)
C28A C 0.61963(15) 0.8735(3) -0.26569(10)
H28A H 0.6271 0.9479 -0.2962
H29A H 0.5589 0.8527 -0.2694
H30A H 0.6495 0.7857 -0.2740
Cd1_2 Cd -0.2500 1.111324(18) 0.2500
Cd2B Cd 0.7500 1.21321(2) -0.2500
Cd2B_2 Cd 0.7500 1.21321(2) 0.7500
N3B N 0.20192(10) 1.95386(16) 0.31342(7)
N3C N 0.29808(10) 1.95386(16) 0.18658(7)
O1A_2 O 0.81036(9) 1.18056(14) 0.16520(7)
O2A_2 O 0.86283(9) 1.30315(14) 0.25352(6)
O5 O 0.7500 0.5604(3) 0.2500
O6 O 0.4783(5) 0.8695(5) 0.4288(2)
H31 H 0.5318 0.8894 0.4416
H32 H 0.4576 0.9234 0.3968
H33? H 0.7694 0.4733 0.2561
H34? H 0.7682 0.5984 0.2185
loop_
_geom_bond_atom_site_label_1
_geom_bond_atom_site_label_2
_geom_bond_site_symmetry_1
_geom_bond_site_symmetry_2
Cd1 N1 1_555 1_555
Cd2 O3 1_555 1_555
N1 C9 1_555 1_555
N2 C10 1_555 1_555
N3 C26 1_555 1_555
N4 C24 1_555 1_555
C1 C2 1_555 1_555
C2 C3 1_555 1_555
C3 H1 1_555 1_555
C4 C3 1_555 1_555
C5 C4 1_555 1_555
C6 C4 1_555 1_555
H2 C6 1_555 1_555
C7 C6 1_555 1_555
H3 C7 1_555 1_555
C8 C2 1_555 1_555
H4 C8 1_555 1_555
C9 H5 1_555 1_555
C10 C9 1_555 1_555
H6 C10 1_555 1_555
C11 N1 1_555 1_555
C12 C11 1_555 1_555
H7 C12 1_555 1_555
H8 C12 1_555 1_555
H9 C12 1_555 1_555
C13 N2 1_555 1_555
H10 C13 1_555 1_555
H11 C13 1_555 1_555
C14 C13 1_555 1_555
C15 C14 1_555 1_555
C16 C15 1_555 1_555
H12 C16 1_555 1_555
H13 C16 1_555 1_555
H14 C16 1_555 1_555
C17 C15 1_555 1_555
C18 C17 1_555 1_555
H15 C18 1_555 1_555
H16 C18 1_555 1_555
H17 C18 1_555 1_555
C19 C17 1_555 1_555
C20 C19 1_555 1_555
C21 C20 1_555 1_555
H18 C21 1_555 1_555
H19 C21 1_555 1_555
H20 C21 1_555 1_555
C22 C14 1_555 1_555
C23 C22 1_555 1_555
H21 C23 1_555 1_555
H22 C23 1_555 1_555
H23 C23 1_555 1_555
C24 C19 1_555 1_555
H24 C24 1_555 1_555
H25 C24 1_555 1_555
C25 N4 1_555 1_555
H26 C25 1_555 1_555
C26 C25 1_555 1_555
H27 C26 1_555 1_555
C27 N3 1_555 1_555
C28 C27 1_555 1_555
H28 C28 1_555 1_555
H29 C28 1_555 1_555
H30 C28 1_555 1_555
O1 Cd1 1_555 1_555
O2 Cd1 1_555 1_555
O3 C5 1_555 1_555
O4 Cd2 1_555 1_555
O6 H31 1_555 1_555
H32 O6 1_555 1_555
C1A C2A 1_555 1_555
C2A C3A 1_555 1_555
C3A H1A 1_555 1_555
C4A C3A 1_555 1_555
C5A C4A 1_555 1_555
C6A C4A 1_555 1_555
H2A C6A 1_555 1_555
C7A C6A 1_555 1_555
H3A C7A 1_555 1_555
C8A C2A 1_555 1_555
H4A C8A 1_555 1_555
O1A C1A 1_555 1_555
O2A C1A 1_555 1_555
O3A Cd2 1_555 1_555
O4A Cd2 1_555 1_555
N1A Cd1 1_555 1_555
N2A C10A 1_555 1_555
N3A C26A 1_555 1_555
N4A C24A 1_555 1_555
C9A N1A 1_555 1_555
H5A C9A 1_555 1_555
C10A C9A 1_555 1_555
H6A C10A 1_555 1_555
C11A N1A 1_555 1_555
C12A C11A 1_555 1_555
H7A C12A 1_555 1_555
H8A C12A 1_555 1_555
H9A C12A 1_555 1_555
C13A N2A 1_555 1_555
H10A C13A 1_555 1_555
H11A C13A 1_555 1_555
C14A C13A 1_555 1_555
C15A C14A 1_555 1_555
C16A C15A 1_555 1_555
H12A C16A 1_555 1_555
H13A C16A 1_555 1_555
H14A C16A 1_555 1_555
C17A C15A 1_555 1_555
C18A C17A 1_555 1_555
H15A C18A 1_555 1_555
H16A C18A 1_555 1_555
H17A C18A 1_555 1_555
C19A C17A 1_555 1_555
C20A C19A 1_555 1_555
C21A C20A 1_555 1_555
H18A C21A 1_555 1_555
H19A C21A 1_555 1_555
H20A C21A 1_555 1_555
C22A C14A 1_555 1_555
C23A C22A 1_555 1_555
H21A C23A 1_555 1_555
H22A C23A 1_555 1_555
H23A C23A 1_555 1_555
C24A C19A 1_555 1_555
H24A C24A 1_555 1_555
H25A C24A 1_555 1_555
C25A N4A 1_555 1_555
H26A C25A 1_555 1_555
C26A C25A 1_555 1_555
H27A C26A 1_555 1_555
C27A N3A 1_555 1_555
C28A C27A 1_555 1_555
H28A C28A 1_555 1_555
H29A C28A 1_555 1_555
H30A C28A 1_555 1_555
Cd1_2 O1A 1_555 1_555
Cd2B N3A 1_555 1_555
Cd2B_2 N3 1_555 1_555
N3B Cd2 1_555 1_555
N3C Cd2 1_555 1_555
O1A_2 Cd1 1_555 1_555
O2A_2 Cd1 1_555 1_555
N2 C11 1_555 1_555
N4 C27 1_555 1_555
C1 O1 1_555 1_555
C1 O2 1_555 1_555
C5 O4 1_555 1_555
C7 C8 1_555 1_555
C20 C22 1_555 1_555
C5A O3A 1_555 1_555
C5A O4A 1_555 1_555
C7A C8A 1_555 1_555
O2A Cd1_2 1_555 1_555
N2A C11A 1_555 1_555
N4A C27A 1_555 1_555
C20A C22A 1_555 1_555

#END
