
#######################################################################
#
#                 Cambridge Crystallographic Data Centre
#                                CCDC 
#
#######################################################################
#
# If this CIF has been generated from an entry in the Cambridge 
# Structural Database, then it will include bibliographic, chemical, 
# crystal, experimental, refinement or atomic coordinate data resulting 
# from the CCDC's data processing and validation procedures.
#
#######################################################################

data_KOQVAP
_symmetry_cell_setting           monoclinic
_symmetry_space_group_name_H-M   'P 21'
_symmetry_Int_Tables_number      4
_space_group_name_Hall           'P 2yb'
loop_
_symmetry_equiv_pos_site_id
_symmetry_equiv_pos_as_xyz
1 x,y,z
2 -x,1/2+y,-z
_cell_length_a                   9.293(2)
_cell_length_b                   12.686(3)
_cell_length_c                   17.958(4)
_cell_angle_alpha                90
_cell_angle_beta                 94.178(3)
_cell_angle_gamma                90
_cell_volume                     2111.46
loop_
_atom_site_label
_atom_site_type_symbol
_atom_site_fract_x
_atom_site_fract_y
_atom_site_fract_z
Zn1 Zn 1.05156(11) 0.81662(7) 0.67340(7)
O1 O 0.9004(8) 0.9365(8) 0.6397(6)
N1 N 1.1265(9) 0.6658(7) 0.7113(6)
O2 O 0.8492(9) 0.7740(8) 0.6138(6)
N2 N 0.9978(7) 0.8202(8) 0.7866(4)
O3 O 1.2342(8) 0.9175(7) 0.6757(5)
O4 O 1.1942(7) 0.8070(9) 0.5822(5)
C1 C 0.8128(11) 0.8684(12) 0.6120(7)
C2 C 1.1954(13) 0.5943(11) 0.6774(8)
C3 C 1.1028(10) 0.6517(8) 0.7857(7)
C4 C 1.0370(10) 0.7269(10) 0.8246(6)
C5 C 0.9319(10) 0.8985(11) 0.8206(7)
C6 C 0.6630(10) 0.9015(10) 0.5733(7)
H1 H 1.2211 0.6090 0.6294
C7 C 1.2352(15) 0.4935(12) 0.7088(9)
C8 C 1.1395(12) 0.5504(10) 0.8206(7)
C9 C 1.0102(11) 0.7124(11) 0.8995(7)
C10 C 0.9109(13) 0.8851(11) 0.8966(8)
H2 H 0.9013 0.9592 0.7950
C11 C 0.6718(15) 0.9183(18) 0.4957(7)
C12 C 0.6256(11) 1.0216(8) 0.6158(8)
C13 C 0.5335(10) 0.8434(10) 0.6057(7)
H3 H 1.2796 0.4435 0.6803
C14 C 1.2079(12) 0.4720(11) 0.7795(8)
C15 C 1.1060(16) 0.5393(12) 0.8969(8)
C16 C 1.0488(14) 0.6169(12) 0.9332(7)
C17 C 0.9450(13) 0.8000(11) 0.9361(7)
H4 H 0.8695 0.9408 0.9211
H5 H 0.6701 0.8516 0.4704
H6 H 0.7599 0.9545 0.4875
H7 H 0.5912 0.9601 0.4767
H8 H 0.6566 1.0212 0.6685
H9 H 0.6705 1.0802 0.5917
C18 C 0.4555(11) 1.0253(8) 0.6026(9)
C19 C 0.4033(9) 0.9095(10) 0.5788(7)
C20 C 0.5512(10) 0.8164(14) 0.6863(6)
C21 C 0.5189(12) 0.7370(9) 0.5585(6)
H10 H 1.2332 0.4073 0.8010
H11 H 1.1253 0.4757 0.9213
H12 H 1.0336 0.6075 0.9834
H13 H 0.9275 0.7963 0.9864
H14 H 0.4268 1.0754 0.5635
H15 H 0.4130 1.0466 0.6480
H16 H 0.3876 0.9050 0.5244
C22 C 0.2676(9) 0.8786(10) 0.6145(7)
H17 H 0.5640 0.8799 0.7152
H18 H 0.6343 0.7720 0.6955
H19 H 0.4669 0.7799 0.7004
H20 H 0.6132 0.7114 0.5494
H21 H 0.4652 0.7504 0.5118
H22 H 0.4694 0.6851 0.5860
O3_2 O 0.2342(8) 0.9175(7) 0.6757(5)
O4_2 O 0.1942(7) 0.8070(9) 0.5822(5)
Zn1_2 Zn 0.05156(11) 0.81662(7) 0.67340(7)
Zn2 Zn 0.93231(11) 0.22000(7) 0.82866(7)
O5 O 0.1365(9) 0.2654(7) 0.8867(5)
O6 O 0.0958(9) 0.0994(8) 0.8605(6)
O7 O 0.7535(9) 0.1226(8) 0.8391(6)
O8 O 0.7955(9) 0.2430(10) 0.9245(5)
C23 C 0.1760(12) 0.1680(12) 0.8888(8)
C24 C 0.3161(11) 0.1383(13) 0.9222(7)
C25 C 0.3915(17) 0.2426(13) 0.9840(9)
H23 H 0.3981 0.3095 0.9583
H24 H 0.3377 0.2515 1.0279
C26 C 0.5612(17) 0.185(2) 1.0054(10)
H25 H 0.6355 0.2379 1.0170
H26 H 0.5601 0.1350 1.0459
C27 C 0.5779(10) 0.1315(12) 0.9294(7)
H27 H 0.5859 0.0551 0.9366
C28 C 0.7167(13) 0.1734(13) 0.8987(9)
C29 C 0.4446(11) 0.1553(17) 0.8876(8)
C30 C 0.4429(10) 0.2185(15) 0.8206(6)
H28 H 0.3551 0.2057 0.7905
H29 H 0.5239 0.2000 0.7930
H30 H 0.4487 0.2918 0.8339
C31 C 0.321(3) 0.045(2) 0.9682(14)
H31 H 0.3198 -0.0161 0.9371
H32 H 0.2385 0.0445 0.9975
H33 H 0.4075 0.0461 1.0008
C32 C 0.459(2) 0.0197(15) 0.8537(15)
H34 H 0.5374 -0.0153 0.8813
H35 H 0.4766 0.0207 0.8016
H36 H 0.3707 -0.0172 0.8602
N3 N -0.1510(9) 0.3685(7) 0.7877(5)
C33 C -0.2129(12) 0.4484(10) 0.8289(8)
N4 N -0.0205(8) 0.2182(8) 0.7157(5)
C34 C 0.0462(10) 0.1445(10) 0.6792(7)
C35 C -0.0736(14) 0.4186(12) 0.5650(8)
C36 C -0.0340(11) 0.3181(11) 0.6015(5)
C37 C -0.2352(14) 0.5556(12) 0.7234(9)
H37 H -0.2666 0.6191 0.7019
C38 C -0.1674(12) 0.4814(10) 0.6791(7)
C39 C -0.1394(14) 0.4960(10) 0.6043(8)
C40 C -0.1301(11) 0.3908(10) 0.7164(6)
C41 C 0.0765(12) 0.1477(10) 0.6048(6)
C42 C -0.0579(10) 0.3044(9) 0.6767(7)
C43 C -0.2563(15) 0.5372(11) 0.7971(9)
H38 H -0.2234 0.4383 0.8795
H39 H -0.0544 0.4299 0.5155
H40 H -0.1655 0.5591 0.5807
C44 C 0.0343(11) 0.2395(10) 0.5657(6)
H41 H 0.0525 0.2469 0.5157
H42 H -0.3016 0.5879 0.8246
H43 H 0.1222 0.0923 0.5823
H44 H 0.0756 0.0847 0.7061
Zn2_2 Zn -0.06769(11) 0.22000(7) 0.82866(7)
O8_2 O -0.2045(9) 0.2430(10) 0.9245(5)
O7_2 O -0.2465(9) 0.1226(8) 0.8391(6)
loop_
_geom_bond_atom_site_label_1
_geom_bond_atom_site_label_2
_geom_bond_site_symmetry_1
_geom_bond_site_symmetry_2
Zn1 O1 1_555 1_555
O1 C1 1_555 1_555
N1 Zn1 1_555 1_555
O2 Zn1 1_555 1_555
N2 Zn1 1_555 1_555
O3 Zn1 1_555 1_555
O4 Zn1 1_555 1_555
C1 O2 1_555 1_555
C2 N1 1_555 1_555
C3 N1 1_555 1_555
C4 N2 1_555 1_555
C5 N2 1_555 1_555
C6 C1 1_555 1_555
H1 C2 1_555 1_555
C7 C2 1_555 1_555
C8 C3 1_555 1_555
C9 C4 1_555 1_555
C10 C5 1_555 1_555
H2 C5 1_555 1_555
C11 C6 1_555 1_555
C12 C6 1_555 1_555
C13 C6 1_555 1_555
H3 C7 1_555 1_555
C14 C7 1_555 1_555
C15 C8 1_555 1_555
C16 C9 1_555 1_555
C17 C9 1_555 1_555
H4 C10 1_555 1_555
H5 C11 1_555 1_555
H6 C11 1_555 1_555
H7 C11 1_555 1_555
H8 C12 1_555 1_555
H9 C12 1_555 1_555
C18 C12 1_555 1_555
C19 C13 1_555 1_555
C20 C13 1_555 1_555
C21 C13 1_555 1_555
H10 C14 1_555 1_555
H11 C15 1_555 1_555
H12 C16 1_555 1_555
H13 C17 1_555 1_555
H14 C18 1_555 1_555
H15 C18 1_555 1_555
H16 C19 1_555 1_555
C22 C19 1_555 1_555
H17 C20 1_555 1_555
H18 C20 1_555 1_555
H19 C20 1_555 1_555
H20 C21 1_555 1_555
H21 C21 1_555 1_555
H22 C21 1_555 1_555
Zn2 O7 1_555 1_555
O5 C23 1_555 1_555
O6 C23 1_555 1_555
O7 C28 1_555 1_555
O8 Zn2 1_555 1_555
C23 C24 1_555 1_555
C24 C25 1_555 1_555
C25 H23 1_555 1_555
H24 C25 1_555 1_555
C26 C25 1_555 1_555
H25 C26 1_555 1_555
H26 C26 1_555 1_555
C27 C26 1_555 1_555
H27 C27 1_555 1_555
C28 O8 1_555 1_555
C29 C24 1_555 1_555
C30 C29 1_555 1_555
H28 C30 1_555 1_555
H29 C30 1_555 1_555
H30 C30 1_555 1_555
C31 C24 1_555 1_555
H31 C31 1_555 1_555
H32 C31 1_555 1_555
H33 C31 1_555 1_555
C32 C29 1_555 1_555
H34 C32 1_555 1_555
H35 C32 1_555 1_555
H36 C32 1_555 1_555
N3 C33 1_555 1_555
C33 C43 1_555 1_555
N4 C34 1_555 1_555
C34 C41 1_555 1_555
C35 C36 1_555 1_555
C36 C42 1_555 1_555
C37 H37 1_555 1_555
C38 C37 1_555 1_555
C39 C35 1_555 1_555
C40 N3 1_555 1_555
C41 C44 1_555 1_555
C42 N4 1_555 1_555
C43 C37 1_555 1_555
H38 C33 1_555 1_555
H39 C35 1_555 1_555
H40 C39 1_555 1_555
C44 C36 1_555 1_555
H41 C44 1_555 1_555
H42 C43 1_555 1_555
H43 C41 1_555 1_555
H44 C34 1_555 1_555
O3_2 C22 1_555 1_555
O4_2 C22 1_555 1_555
Zn1_2 O3_2 1_555 1_555
Zn2_2 O5 1_555 1_555
O8_2 Zn2_2 1_555 1_555
O7_2 Zn2_2 1_555 1_555
C3 C4 1_555 1_555
C8 C14 1_555 1_555
C10 C17 1_555 1_555
C15 C16 1_555 1_555
C18 C19 1_555 1_555
O6 Zn2_2 1_555 1_555
C27 C28 1_555 1_555
C27 C29 1_555 1_555
N3 Zn2_2 1_555 1_555
N4 Zn2_2 1_555 1_555
C38 C39 1_555 1_555
C38 C40 1_555 1_555
C40 C42 1_555 1_555
O4_2 Zn1_2 1_555 1_555

#END
