
#######################################################################
#
#                 Cambridge Crystallographic Data Centre
#                                CCDC 
#
#######################################################################
#
# If this CIF has been generated from an entry in the Cambridge 
# Structural Database, then it will include bibliographic, chemical, 
# crystal, experimental, refinement or atomic coordinate data resulting 
# from the CCDC's data processing and validation procedures.
#
#######################################################################

data_KOQVET
_symmetry_cell_setting           orthorhombic
_symmetry_space_group_name_H-M   'P 21 21 21'
_symmetry_Int_Tables_number      19
_space_group_name_Hall           'P 2ac 2ab'
loop_
_symmetry_equiv_pos_site_id
_symmetry_equiv_pos_as_xyz
1 x,y,z
2 1/2-x,-y,1/2+z
3 1/2+x,1/2-y,-z
4 -x,1/2+y,1/2-z
_cell_length_a                   18.78(6)
_cell_length_b                   14.94(4)
_cell_length_c                   20.96(6)
_cell_angle_alpha                90
_cell_angle_beta                 90
_cell_angle_gamma                90
_cell_volume                     5880.81
loop_
_atom_site_label
_atom_site_type_symbol
_atom_site_fract_x
_atom_site_fract_y
_atom_site_fract_z
Zn1 Zn 0.66983(7) 0.12518(10) 0.18649(6)
Zn2 Zn 0.92941(10) 0.65542(10) 0.03118(7)
O1 O 0.7583(5) 0.1998(8) 0.1819(6)
O2 O 0.6965(6) 0.3030(8) 0.2265(6)
O3 O 0.9271(5) 0.4730(6) 0.0451(4)
O4 O 0.9024(5) 0.5899(7) 0.1078(4)
O5 O 0.7102(4) 0.0012(5) 0.1777(4)
O6 O 0.7668(6) 0.0210(9) 0.2675(6)
O7 O 1.0154(10) -0.1348(14) 0.1100(9)
O8 O 0.9431(8) -0.2143(7) 0.0467(6)
N1 N 0.6544(6) 0.1477(7) 0.0791(5)
N2 N 0.5581(4) 0.1253(6) 0.1665(4)
N3 N 0.6179(6) 0.1285(7) 0.2808(4)
N4 N 1.0438(6) 0.6244(7) 0.0332(5)
N5 N 0.9555(6) 0.6330(7) -0.0638(5)
N6 N 0.8247(7) 0.6572(7) -0.0183(5)
C1 C 0.7521(11) 0.2776(12) 0.2060(6)
C2 C 0.8233(8) 0.3331(9) 0.2073(6)
H1 H 0.8242 0.3610 0.2496
C3 C 0.8926(8) 0.2796(12) 0.2036(13)
H2 H 0.8858 0.2196 0.1870
H3 H 0.9179 0.2774 0.2439
C4 C 0.9326(11) 0.3526(15) 0.1479(9)
H4 H 0.9834 0.3566 0.1559
H5 H 0.9257 0.3300 0.1049
C5 C 0.8171(11) 0.4107(12) 0.1612(9)
C6 C 0.7700(12) 0.4865(15) 0.1979(11)
H6 H 0.7929 0.5436 0.1938
H7 H 0.7661 0.4711 0.2423
H8 H 0.7234 0.4892 0.1794
C7 C 0.7779(8) 0.3971(12) 0.1006(7)
H9 H 0.7989 0.3484 0.0775
H10 H 0.7804 0.4506 0.0754
H11 H 0.7290 0.3835 0.1098
C8 C 0.9165(14) 0.4874(12) 0.2143(9)
H12 H 0.9512 0.4528 0.2373
H13 H 0.8741 0.4931 0.2395
H14 H 0.9355 0.5457 0.2054
C9 C 0.8994(7) 0.4423(9) 0.1542(7)
C10 C 0.9114(7) 0.5028(8) 0.0967(8)
C11 C 0.7587(8) -0.0214(11) 0.2165(8)
C12 C 0.8036(7) -0.1007(13) 0.2018(7)
C13 C 0.7607(9) -0.1828(11) 0.1816(9)
H15 H 0.7449 -0.2145 0.2188
H16 H 0.7900 -0.2214 0.1561
H17 H 0.7201 -0.1641 0.1571
C14 C 0.8595(14) -0.136(2) 0.2514(13)
H18 H 0.8352 -0.1702 0.2842
H19 H 0.8828 -0.0857 0.2717
C15 C 0.9230(10) -0.2032(15) 0.2146(8)
H20 H 0.9715 -0.1853 0.2238
H21 H 0.9163 -0.2665 0.2226
C16 C 0.8980(10) -0.1745(12) 0.1503(7)
H22 H 0.8625 -0.2185 0.1365
C17 C 0.9619(13) -0.1761(13) 0.0973(12)
C18 C 0.8610(11) -0.0859(15) 0.1527(10)
C19 C 0.9132(15) -0.0115(17) 0.1805(15)
H23 H 0.8879 0.0253 0.2104
H24 H 0.9307 0.0250 0.1462
H25 H 0.9526 -0.0399 0.2016
C20 C 0.8275(16) -0.045(2) 0.0917(13)
H26 H 0.8132 -0.0927 0.0635
H27 H 0.8619 -0.0082 0.0707
H28 H 0.7867 -0.0101 0.1031
C21 C 0.7094(7) 0.1652(9) 0.0375(6)
H29 H 0.7550 0.1757 0.0531
C22 C 0.6967(8) 0.1673(10) -0.0283(8)
H30 H 0.7346 0.1756 -0.0563
C23 C 0.6271(9) 0.1570(11) -0.0527(6)
H31 H 0.6179 0.1637 -0.0960
C24 C 0.5718(6) 0.1363(8) -0.0097(5)
H32 H 0.5263 0.1227 -0.0244
C25 C 0.5870(7) 0.1367(8) 0.0562(5)
C26 C 0.5331(6) 0.1249(8) 0.1060(5)
C27 C 0.4588(6) 0.1200(7) 0.0933(5)
H33 H 0.4419 0.1189 0.0516
C28 C 0.4119(6) 0.1168(8) 0.1448(5)
C29 C 0.4403(8) 0.1189(8) 0.2081(6)
H34 H 0.4095 0.1171 0.2429
C30 C 0.5116(7) 0.1235(8) 0.2180(5)
C31 C 0.5469(7) 0.1274(8) 0.2815(6)
C32 C 0.5055(8) 0.1281(9) 0.3373(6)
H35 H 0.4561 0.1236 0.3365
C33 C 0.5443(10) 0.1362(11) 0.3942(7)
H36 H 0.5199 0.1412 0.4326
C34 C 0.6181(9) 0.1368(10) 0.3944(6)
H37 H 0.6428 0.1404 0.4328
C35 C 0.6539(8) 0.1322(9) 0.3384(7)
H38 H 0.7034 0.1315 0.3387
C36 C 0.3320(7) 0.1139(8) 0.1319(6)
C37 C 0.3012(8) 0.0808(9) 0.0751(6)
H39 H 0.3305 0.0600 0.0425
C38 C 0.2306(8) 0.0789(10) 0.0676(7)
H40 H 0.2132 0.0565 0.0292
C39 C 0.1809(7) 0.1077(10) 0.1124(8)
C40 C 0.2827(7) 0.1466(9) 0.1782(6)
H41 H 0.3001 0.1698 0.2164
C41 C 0.2111(8) 0.1447(11) 0.1682(7)
H42 H 0.1811 0.1685 0.1991
C42 C 0.1025(7) 0.1004(12) 0.1033(8)
H43 H 0.0866 0.0427 0.1175
H44 H 0.0912 0.1076 0.0589
H45 H 0.0790 0.1463 0.1275
C43 C 1.0839(11) 0.6127(11) 0.0872(7)
H46 H 1.0642 0.6243 0.1271
C44 C 1.1532(11) 0.5838(12) 0.0825(8)
H47 H 1.1784 0.5749 0.1201
C45 C 1.1867(8) 0.5677(10) 0.0272(8)
H48 H 1.2337 0.5483 0.0261
C46 C 1.1459(9) 0.5821(9) -0.0315(8)
H49 H 1.1663 0.5750 -0.0716
C47 C 1.0752(9) 0.6069(8) -0.0239(6)
C48 C 1.0219(8) 0.6163(8) -0.0798(6)
C49 C 1.0444(6) 0.6111(8) -0.1429(5)
H50 H 1.0921 0.6017 -0.1526
C50 C 0.9940(6) 0.6200(7) -0.1914(5)
C51 C 0.9212(6) 0.6331(7) -0.1738(5)
H51 H 0.8852 0.6378 -0.2041
C52 C 0.9073(8) 0.6381(8) -0.1097(6)
C53 C 0.8307(9) 0.6488(9) -0.0839(7)
C54 C 0.7716(10) 0.6537(11) -0.1217(7)
H52 H 0.7772 0.6506 -0.1657
C55 C 0.7022(9) 0.6634(12) -0.0965(11)
H53 H 0.6628 0.6644 -0.1234
C56 C 0.6941(10) 0.6707(13) -0.0358(12)
H54 H 0.6491 0.6800 -0.0186
C57 C 0.7528(13) 0.6647(12) 0.0037(9)
H55 H 0.7450 0.6655 0.0475
C58 C 1.0176(7) 0.6209(8) -0.2606(5)
C59 C 1.0867(8) 0.6074(8) -0.2809(6)
H56 H 1.1219 0.5965 -0.2507
C60 C 1.1045(8) 0.6095(11) -0.3424(7)
H57 H 1.1518 0.6008 -0.3539
C61 C 1.0546(10) 0.6244(10) -0.3897(6)
C62 C 0.9900(9) 0.6401(11) -0.3718(6)
H58 H 0.9567 0.6540 -0.4031
C63 C 0.9674(7) 0.6375(9) -0.3099(7)
H59 H 0.9196 0.6466 -0.3001
C64 C 1.0777(10) 0.6282(12) -0.4617(7)
H60 H 1.0865 0.5686 -0.4769
H61 H 1.1203 0.6632 -0.4658
H62 H 1.0403 0.6550 -0.4865
Zn2_2 Zn 0.92941(10) -0.34458(10) 0.03118(7)
O8_2 O 0.9431(8) 0.7857(7) 0.0467(6)
loop_
_geom_bond_atom_site_label_1
_geom_bond_atom_site_label_2
_geom_bond_site_symmetry_1
_geom_bond_site_symmetry_2
Zn1 O1 1_555 1_555
Zn2 O4 1_555 1_555
O1 C1 1_555 1_555
O2 C1 1_555 1_555
O3 C10 1_555 1_555
O4 C10 1_555 1_555
O5 Zn1 1_555 1_555
O6 C11 1_555 1_555
O7 C17 1_555 1_555
O8 C17 1_555 1_555
N1 Zn1 1_555 1_555
N2 Zn1 1_555 1_555
N3 Zn1 1_555 1_555
N4 Zn2 1_555 1_555
N5 Zn2 1_555 1_555
N6 Zn2 1_555 1_555
C1 C2 1_555 1_555
C2 H1 1_555 1_555
C3 C2 1_555 1_555
H2 C3 1_555 1_555
H3 C3 1_555 1_555
C4 C3 1_555 1_555
H4 C4 1_555 1_555
H5 C4 1_555 1_555
C5 C2 1_555 1_555
C6 C5 1_555 1_555
H6 C6 1_555 1_555
H7 C6 1_555 1_555
H8 C6 1_555 1_555
C7 C5 1_555 1_555
H9 C7 1_555 1_555
H10 C7 1_555 1_555
H11 C7 1_555 1_555
C8 H12 1_555 1_555
H13 C8 1_555 1_555
H14 C8 1_555 1_555
C9 C4 1_555 1_555
C10 C9 1_555 1_555
C11 O5 1_555 1_555
C12 C11 1_555 1_555
C13 C12 1_555 1_555
H15 C13 1_555 1_555
H16 C13 1_555 1_555
H17 C13 1_555 1_555
C14 C12 1_555 1_555
H18 C14 1_555 1_555
H19 C14 1_555 1_555
C15 C14 1_555 1_555
H20 C15 1_555 1_555
H21 C15 1_555 1_555
C16 C15 1_555 1_555
H22 C16 1_555 1_555
C17 C16 1_555 1_555
C18 C12 1_555 1_555
C19 C18 1_555 1_555
H23 C19 1_555 1_555
H24 C19 1_555 1_555
H25 C19 1_555 1_555
C20 C18 1_555 1_555
H26 C20 1_555 1_555
H27 C20 1_555 1_555
H28 C20 1_555 1_555
C21 N1 1_555 1_555
H29 C21 1_555 1_555
C22 C21 1_555 1_555
H30 C22 1_555 1_555
C23 C22 1_555 1_555
H31 C23 1_555 1_555
C24 C23 1_555 1_555
H32 C24 1_555 1_555
C25 N1 1_555 1_555
C26 N2 1_555 1_555
C27 C26 1_555 1_555
H33 C27 1_555 1_555
C28 C27 1_555 1_555
C29 C28 1_555 1_555
H34 C29 1_555 1_555
C30 N2 1_555 1_555
C31 N3 1_555 1_555
C32 C31 1_555 1_555
H35 C32 1_555 1_555
C33 C32 1_555 1_555
H36 C33 1_555 1_555
C34 C33 1_555 1_555
H37 C34 1_555 1_555
C35 N3 1_555 1_555
H38 C35 1_555 1_555
C36 C28 1_555 1_555
C37 C36 1_555 1_555
H39 C37 1_555 1_555
C38 C37 1_555 1_555
H40 C38 1_555 1_555
C39 C38 1_555 1_555
C40 C36 1_555 1_555
H41 C40 1_555 1_555
C41 C39 1_555 1_555
H42 C41 1_555 1_555
C42 C39 1_555 1_555
H43 C42 1_555 1_555
H44 C42 1_555 1_555
H45 C42 1_555 1_555
C43 N4 1_555 1_555
H46 C43 1_555 1_555
C44 C43 1_555 1_555
H47 C44 1_555 1_555
C45 C44 1_555 1_555
H48 C45 1_555 1_555
C46 C45 1_555 1_555
H49 C46 1_555 1_555
C47 N4 1_555 1_555
C48 N5 1_555 1_555
C49 C48 1_555 1_555
H50 C49 1_555 1_555
C50 C49 1_555 1_555
C51 C50 1_555 1_555
H51 C51 1_555 1_555
C52 N5 1_555 1_555
C53 N6 1_555 1_555
C54 C53 1_555 1_555
H52 C54 1_555 1_555
C55 C54 1_555 1_555
H53 C55 1_555 1_555
C56 C55 1_555 1_555
H54 C56 1_555 1_555
C57 N6 1_555 1_555
H55 C57 1_555 1_555
C58 C50 1_555 1_555
C59 C58 1_555 1_555
H56 C59 1_555 1_555
C60 C59 1_555 1_555
H57 C60 1_555 1_555
C61 C60 1_555 1_555
C62 C61 1_555 1_555
H58 C62 1_555 1_555
C63 C58 1_555 1_555
H59 C63 1_555 1_555
C64 C61 1_555 1_555
H60 C64 1_555 1_555
H61 C64 1_555 1_555
H62 C64 1_555 1_555
Zn2_2 O8 1_555 1_555
O8_2 Zn2 1_555 1_555
C5 C9 1_555 1_555
C8 C9 1_555 1_555
C16 C18 1_555 1_555
C24 C25 1_555 1_555
C25 C26 1_555 1_555
C29 C30 1_555 1_555
C30 C31 1_555 1_555
C34 C35 1_555 1_555
C40 C41 1_555 1_555
C46 C47 1_555 1_555
C47 C48 1_555 1_555
C51 C52 1_555 1_555
C52 C53 1_555 1_555
C56 C57 1_555 1_555
C62 C63 1_555 1_555

#END
