
#######################################################################
#
#                 Cambridge Crystallographic Data Centre
#                                CCDC 
#
#######################################################################
#
# If this CIF has been generated from an entry in the Cambridge 
# Structural Database, then it will include bibliographic, chemical, 
# crystal, experimental, refinement or atomic coordinate data resulting 
# from the CCDC's data processing and validation procedures.
#
#######################################################################

data_KOQVUJ
_symmetry_cell_setting           monoclinic
_symmetry_space_group_name_H-M   'P 21'
_symmetry_Int_Tables_number      4
_space_group_name_Hall           'P 2yb'
loop_
_symmetry_equiv_pos_site_id
_symmetry_equiv_pos_as_xyz
1 x,y,z
2 -x,1/2+y,-z
_cell_length_a                   13.3707(5)
_cell_length_b                   7.1228(2)
_cell_length_c                   14.8560(6)
_cell_angle_alpha                90
_cell_angle_beta                 111.2070(17)
_cell_angle_gamma                90
_cell_volume                     1319.02
loop_
_atom_site_label
_atom_site_type_symbol
_atom_site_fract_x
_atom_site_fract_y
_atom_site_fract_z
Cu1 Cu 0.84007(8) 0.24146(16) 0.19161(7)
Cl1 Cl 0.8787(2) 0.7470(5) 0.23866(16)
N1 N 0.9851(5) 0.2591(14) 0.2817(5)
C1 C 1.0024(7) 0.2763(11) 0.3764(6)
N2 N 0.8121(6) 0.2515(16) 0.3163(5)
N3 N 0.9193(6) 0.2426(16) 0.0982(5)
C2 C 1.1040(7) 0.2941(11) 0.4433(6)
H1 H 1.116 0.3025 0.5088
C3 C 1.1687(7) 0.2832(14) 0.3107(6)
H2 H 1.2242 0.2882 0.2869
C4 C 1.1904(7) 0.2994(12) 0.4094(6)
C5 C 0.9008(7) 0.2686(14) 0.3961(6)
C6 C 1.3041(8) 0.3271(13) 0.4791(7)
C7 C 1.3842(7) 0.4089(14) 0.4522(7)
H3 H 1.368 0.4422 0.3879
C8 C 1.0252(7) 0.2482(18) 0.1403(6)
C9 C 1.0650(7) 0.2600(17) 0.2492(6)
C10 C 0.7077(10) 0.269(2) 0.4165(10)
H4 H 0.6404 0.2702 0.4215
C11 C 0.8788(10) 0.234(2) 0.0010(7)
H5 H 0.8047 0.2342 -0.0299
C12 C 0.9404(11) 0.225(2) -0.0541(7)
H6 H 0.9091 0.2121 -0.1208
C13 C 0.7961(9) 0.2830(16) 0.4958(9)
H7 H 0.7911 0.2925 0.5564
C14 C 1.0935(9) 0.243(2) 0.0904(6)
H8 H 1.1675 0.2446 0.1225
C15 C 0.7170(7) 0.252(2) 0.3253(8)
H9 H 0.6553 0.2413 0.2705
C16 C 0.8969(9) 0.2833(13) 0.4860(7)
H10 H 0.9596 0.2934 0.54
O1 O 0.8340(9) 0.8991(19) 0.1815(9)
C17 C 1.3312(8) 0.2735(14) 0.5754(7)
H11 H 1.2797 0.2214 0.5964
O2 O 0.9926(8) 0.768(4) 0.2619(9)
O3 O 0.8643(8) 0.727(3) 0.3242(6)
C18 C 1.5160(8) 0.3803(16) 0.6124(8)
C19 C 1.4364(9) 0.2986(14) 0.6402(7)
H12 H 1.4541 0.2597 0.7038
C20 C 1.0485(12) 0.235(3) -0.0102(8)
H13 H 1.0921 0.2371 -0.0467
C21 C 1.4804(7) 0.4401(14) 0.5137(8)
H14 H 1.5285 0.5043 0.4926
C22 C 1.6233(11) 0.407(2) 0.6829(11)
H15 H 1.6678 0.4639 0.6523
H16 H 1.653 0.2877 0.7094
H17 H 1.6202 0.4872 0.7338
O4 O 0.8363(12) 0.5863(17) 0.1794(9)
O5 O 0.6951(6) 0.2328(18) 0.1013(5)
H18 H 0.650(5) 0.307(8) 0.067(5)
H19 H 0.652(4) 0.166(8) 0.115(5)
Cu1_2 Cu 0.84007(8) 1.24146(16) 0.19161(7)
O1_2 O 0.8340(9) -0.1009(19) 0.1815(9)
Cl2 Cl 0.3908(3) 0.4227(7) 0.1458(3)
O6 O 0.3188(11) 0.488(3) 0.1892(10)
O7 O 0.3299(13) 0.367(4) 0.0561(13)
O8 O 0.460(3) 0.292(6) 0.198(2)
O9 O 0.441(2) 0.574(4) 0.1316(16)
loop_
_geom_bond_atom_site_label_1
_geom_bond_atom_site_label_2
_geom_bond_site_symmetry_1
_geom_bond_site_symmetry_2
Cu1 N1 1_555 1_555
Cl1 O1 1_555 1_555
N1 C1 1_555 1_555
C1 C2 1_555 1_555
N2 Cu1 1_555 1_555
N3 Cu1 1_555 1_555
C2 H1 1_555 1_555
C3 H2 1_555 1_555
C4 C2 1_555 1_555
C5 C1 1_555 1_555
C6 C4 1_555 1_555
C7 C6 1_555 1_555
H3 C7 1_555 1_555
C8 N3 1_555 1_555
C9 N1 1_555 1_555
C10 H4 1_555 1_555
C11 N3 1_555 1_555
H5 C11 1_555 1_555
C12 C11 1_555 1_555
H6 C12 1_555 1_555
C13 C10 1_555 1_555
H7 C13 1_555 1_555
C14 C8 1_555 1_555
H8 C14 1_555 1_555
C15 N2 1_555 1_555
H9 C15 1_555 1_555
C16 C5 1_555 1_555
H10 C16 1_555 1_555
O1 Cu1_2 1_555 1_555
C17 C6 1_555 1_555
H11 C17 1_555 1_555
O2 Cl1 1_555 1_555
O3 Cl1 1_555 1_555
C18 C19 1_555 1_555
C19 C17 1_555 1_555
H12 C19 1_555 1_555
C20 C12 1_555 1_555
H13 C20 1_555 1_555
C21 C7 1_555 1_555
H14 C21 1_555 1_555
C22 C18 1_555 1_555
H15 C22 1_555 1_555
H16 C22 1_555 1_555
H17 C22 1_555 1_555
O4 Cu1 1_555 1_555
O5 Cu1 1_555 1_555
H18 O5 1_555 1_555
H19 O5 1_555 1_555
Cl2 O6 1_555 1_555
O7 Cl2 1_555 1_555
O8 Cl2 1_555 1_555
O9 Cl2 1_555 1_555
O1_2 Cu1 1_555 1_555
Cl1 O4 1_555 1_555
N2 C5 1_555 1_555
C3 C4 1_555 1_555
C3 C9 1_555 1_555
C8 C9 1_555 1_555
C10 C15 1_555 1_555
C13 C16 1_555 1_555
C14 C20 1_555 1_555
C18 C21 1_555 1_555

#END
