
#######################################################################
#
#                 Cambridge Crystallographic Data Centre
#                                CCDC 
#
#######################################################################
#
# If this CIF has been generated from an entry in the Cambridge 
# Structural Database, then it will include bibliographic, chemical, 
# crystal, experimental, refinement or atomic coordinate data resulting 
# from the CCDC's data processing and validation procedures.
#
#######################################################################

data_KOQXUL
_symmetry_cell_setting           monoclinic
_symmetry_space_group_name_H-M   'P 21/c'
_symmetry_Int_Tables_number      14
_space_group_name_Hall           '-P 2ybc'
loop_
_symmetry_equiv_pos_site_id
_symmetry_equiv_pos_as_xyz
1 x,y,z
2 -x,1/2+y,1/2-z
3 -x,-y,-z
4 x,1/2-y,1/2+z
_cell_length_a                   11.377(5)
_cell_length_b                   16.892(7)
_cell_length_c                   7.953(3)
_cell_angle_alpha                90
_cell_angle_beta                 98.915(10)
_cell_angle_gamma                90
_cell_volume                     1509.95
loop_
_atom_site_label
_atom_site_type_symbol
_atom_site_fract_x
_atom_site_fract_y
_atom_site_fract_z
La1 La 0.70151(3) 0.208827(18) -0.00779(4)
O1 O 0.9637(5) 0.0625(3) 0.1883(9)
H1 H 0.9704 0.1068 0.1224
O2 O 0.7887(4) 0.0649(3) 0.0186(6)
O3 O 1.0716(4) -0.2840(3) 0.3788(7)
O4 O 1.1761(4) -0.1936(3) 0.2681(6)
O5 O 0.5695(4) 0.1120(3) 0.1300(7)
O6 O 0.7111(4) 0.1675(3) 0.3130(6)
O7 O 0.4816(5) -0.2122(3) 0.4978(9)
O8 O 0.4222(5) -0.1569(3) 0.2475(7)
C1 C 0.8652(6) -0.0589(4) 0.1272(9)
C2 C 0.9673(6) -0.0996(4) 0.1953(9)
H2 H 1.0381 -0.0720 0.2265
C3 C 0.9649(6) -0.1817(4) 0.2176(8)
C4 C 0.8583(7) -0.2216(5) 0.1766(13)
H3 H 0.8546 -0.2755 0.1989
C5 C 0.7557(7) -0.1813(5) 0.1015(12)
H4 H 0.6851 -0.2088 0.0689
C6 C 0.7600(6) -0.0995(4) 0.0760(10)
H5 H 0.6926 -0.0725 0.0249
C7 C 0.8680(6) 0.0289(4) 0.1040(9)
C8 C 1.0762(6) -0.2236(4) 0.2893(8)
C9 C 0.6470(5) 0.0365(3) 0.3735(8)
C10 C 0.5705(5) -0.0262(4) 0.3287(8)
H6 H 0.5156 -0.0237 0.2292
C11 C 0.5752(5) -0.0932(4) 0.4321(8)
C12 C 0.6595(6) -0.0986(4) 0.5801(9)
H7 H 0.6627 -0.1430 0.6499
C13 C 0.7385(7) -0.0358(5) 0.6201(10)
H8 H 0.7960 -0.0390 0.7166
C14 C 0.7330(6) 0.0308(4) 0.5195(9)
H9 H 0.7865 0.0721 0.5485
C15 C 0.6386(5) 0.1096(3) 0.2648(7)
C16 C 0.4872(5) -0.1597(4) 0.3888(9)
La1A La 0.29849(3) -0.291173(18) 0.50779(4)
La1A_2 La 1.29849(3) -0.291173(18) 0.50779(4)
La1B La 0.29849(3) -0.208827(18) 0.00779(4)
La1B_2 La 1.29849(3) -0.208827(18) 0.00779(4)
La1C La 0.70151(3) 0.291173(18) 0.49221(4)
O3A O 0.9284(4) 0.2160(3) 0.1212(7)
O4A O 0.8239(4) 0.3064(3) 0.2319(6)
O4B O 0.8239(4) 0.1936(3) -0.2681(6)
O6C O 0.7111(4) 0.3325(3) -0.1870(6)
O7A O 0.5184(5) 0.2878(3) 0.0022(9)
O8B O 0.5778(5) 0.1569(3) -0.2475(7)
loop_
_geom_bond_atom_site_label_1
_geom_bond_atom_site_label_2
_geom_bond_site_symmetry_1
_geom_bond_site_symmetry_2
La1 O2 1_555 1_555
O1 H1 1_555 1_555
O2 C7 1_555 1_555
O3 C8 1_555 1_555
O4 C8 1_555 1_555
O5 La1 1_555 1_555
O6 La1 1_555 1_555
O7 C16 1_555 1_555
O8 C16 1_555 1_555
C1 C2 1_555 1_555
C2 H2 1_555 1_555
C3 C2 1_555 1_555
C4 C3 1_555 1_555
H3 C4 1_555 1_555
C5 C4 1_555 1_555
H4 C5 1_555 1_555
C6 C1 1_555 1_555
H5 C6 1_555 1_555
C7 O1 1_555 1_555
C8 C3 1_555 1_555
C9 C10 1_555 1_555
C10 H6 1_555 1_555
C11 C10 1_555 1_555
C12 C11 1_555 1_555
H7 C12 1_555 1_555
C13 C12 1_555 1_555
H8 C13 1_555 1_555
C14 C9 1_555 1_555
H9 C14 1_555 1_555
C15 O5 1_555 1_555
C16 C11 1_555 1_555
La1A O7 1_555 1_555
La1A_2 O3 1_555 1_555
La1B O8 1_555 1_555
La1B_2 O4 1_555 1_555
La1C O6 1_555 1_555
O3A La1 1_555 1_555
O4A La1 1_555 1_555
O4B La1 1_555 1_555
O6C La1 1_555 1_555
O7A La1 1_555 1_555
O8B La1 1_555 1_555
O4 La1A_2 1_555 1_555
O6 C15 1_555 1_555
C1 C7 1_555 1_555
C5 C6 1_555 1_555
C9 C15 1_555 1_555
C13 C14 1_555 1_555
La1C O4A 1_555 1_555

#END
