
#######################################################################
#
#                 Cambridge Crystallographic Data Centre
#                                CCDC 
#
#######################################################################
#
# If this CIF has been generated from an entry in the Cambridge 
# Structural Database, then it will include bibliographic, chemical, 
# crystal, experimental, refinement or atomic coordinate data resulting 
# from the CCDC's data processing and validation procedures.
#
#######################################################################

data_KOTDOO
_symmetry_cell_setting           orthorhombic
_symmetry_space_group_name_H-M   'P 21 21 21'
_symmetry_Int_Tables_number      19
_space_group_name_Hall           'P 2ac 2ab'
loop_
_symmetry_equiv_pos_site_id
_symmetry_equiv_pos_as_xyz
1 x,y,z
2 1/2-x,-y,1/2+z
3 -x,1/2+y,1/2-z
4 1/2+x,1/2-y,-z
_cell_length_a                   8.0669(2)
_cell_length_b                   10.9191(3)
_cell_length_c                   14.7177(4)
_cell_angle_alpha                90
_cell_angle_beta                 90
_cell_angle_gamma                90
_cell_volume                     1296.38
loop_
_atom_site_label
_atom_site_type_symbol
_atom_site_fract_x
_atom_site_fract_y
_atom_site_fract_z
Yb1 Yb -0.07229(3) 0.293753(19) 1.00169(3)
O1 O 0.0539(6) 0.2926(5) 0.8696(4)
O2 O -0.1949(7) 0.4808(5) 0.9478(5)
O3 O -0.3513(6) 0.3176(4) 0.9431(4)
C1 C 0.1789(8) 0.2736(6) 0.7239(5)
H1 H 0.2370 0.2006 0.7017
C2 C 0.1791(8) 0.2604(6) 0.8263(6)
O4 O 0.3067(6) 0.2172(5) 0.8647(4)
C3 C 0.2635(19) 0.4917(10) 0.7512(8)
H2 H 0.3079 0.4754 0.8105
H3 H 0.1478 0.5111 0.7562
H4 H 0.3212 0.5598 0.7246
C4 C -0.3309(10) 0.4307(7) 0.9292(6)
H5 H -0.4169 0.4772 0.9050
C5 C 0.2848(13) 0.3806(9) 0.6921(7)
C6 C 0.0139(18) 0.2661(19) 0.6833(9)
H6 H -0.0732 0.2660 0.7287
H7 H 0.0021 0.1955 0.6439
C7 C 0.0211(13) 0.4015(11) 0.6234(10)
H8 H -0.0516 0.3991 0.5709
H9 H -0.0088 0.4707 0.6613
C8 C 0.2123(9) 0.4074(6) 0.5936(5)
C9 C 0.2568(8) 0.5337(6) 0.5573(5)
C10 C 0.279(2) 0.3161(8) 0.5313(11)
H10 H 0.2358 0.3300 0.4715
H11 H 0.2482 0.2357 0.5515
H12 H 0.3979 0.3224 0.5299
O5 O 0.1432(6) 0.6019(4) 0.5300(4)
O6 O 0.4072(6) 0.5619(5) 0.5539(4)
C11 C 0.455(2) 0.324(2) 0.6848(10)
H13 H 0.4993 0.3103 0.7445
H14 H 0.5273 0.3777 0.6518
H15 H 0.4475 0.2469 0.6533
Yb1A Yb 0.57229(3) 0.706247(19) 0.50169(3)
Yb1B Yb 0.07229(3) 0.793753(19) 0.49831(3)
Yb1C Yb -0.57229(3) 0.206247(19) 0.99831(3)
Yb1C_2 Yb 0.42771(3) 0.206247(19) 0.99831(3)
O3C O 0.1487(6) 0.1824(4) 1.0569(4)
O4C O -0.1933(6) 0.2828(5) 1.1353(4)
O5B O -0.1432(6) 0.1019(4) 0.9700(4)
O6A O 0.0928(6) 0.4381(5) 1.0539(4)
loop_
_geom_bond_atom_site_label_1
_geom_bond_atom_site_label_2
_geom_bond_site_symmetry_1
_geom_bond_site_symmetry_2
Yb1 O1 1_555 1_555
O1 C2 1_555 1_555
O2 Yb1 1_555 1_555
O3 Yb1 1_555 1_555
C1 H1 1_555 1_555
C2 C1 1_555 1_555
O4 C2 1_555 1_555
C3 H2 1_555 1_555
H3 C3 1_555 1_555
H4 C3 1_555 1_555
C4 O2 1_555 1_555
H5 C4 1_555 1_555
C5 C1 1_555 1_555
C6 C1 1_555 1_555
H6 C6 1_555 1_555
H7 C6 1_555 1_555
C7 C6 1_555 1_555
H8 C7 1_555 1_555
H9 C7 1_555 1_555
C8 C5 1_555 1_555
C9 C8 1_555 1_555
C10 C8 1_555 1_555
H10 C10 1_555 1_555
H11 C10 1_555 1_555
H12 C10 1_555 1_555
O5 C9 1_555 1_555
O6 C9 1_555 1_555
C11 C5 1_555 1_555
H13 C11 1_555 1_555
H14 C11 1_555 1_555
H15 C11 1_555 1_555
Yb1A O6 1_555 1_555
Yb1B O5 1_555 1_555
Yb1C O3 1_555 1_555
Yb1C_2 O4 1_555 1_555
O3C Yb1 1_555 1_555
O4C Yb1 1_555 1_555
O5B Yb1 1_555 1_555
O6A Yb1 1_555 1_555
O3 C4 1_555 1_555
C3 C5 1_555 1_555
C7 C8 1_555 1_555
Yb1C_2 O3C 1_555 1_555

#END
