
#######################################################################
#
#                 Cambridge Crystallographic Data Centre
#                                CCDC 
#
#######################################################################
#
# If this CIF has been generated from an entry in the Cambridge 
# Structural Database, then it will include bibliographic, chemical, 
# crystal, experimental, refinement or atomic coordinate data resulting 
# from the CCDC's data processing and validation procedures.
#
#######################################################################

data_KOTPAM
_symmetry_cell_setting           hexagonal
_symmetry_space_group_name_H-M   'P 65'
_symmetry_Int_Tables_number      170
_space_group_name_Hall           'P 65'
loop_
_symmetry_equiv_pos_site_id
_symmetry_equiv_pos_as_xyz
1 x,y,z
2 -y,x-y,2/3+z
3 -x+y,-x,1/3+z
4 -x,-y,1/2+z
5 y,-x+y,1/6+z
6 x-y,x,5/6+z
_cell_length_a                   10.99310(10)
_cell_length_b                   10.99310(10)
_cell_length_c                   21.5180(4)
_cell_angle_alpha                90
_cell_angle_beta                 90
_cell_angle_gamma                120
_cell_volume                     2252.02
loop_
_atom_site_label
_atom_site_type_symbol
_atom_site_fract_x
_atom_site_fract_y
_atom_site_fract_z
Ce1 Ce 0.96940(2) 1.19545(2) 0.50086(2)
O1 O 1.1576(4) 1.1302(4) 0.46362(18)
O2 O 1.1063(5) 1.3416(4) 0.40193(17)
H1 H 1.0839 1.2894 0.3717
O3 O 0.7373(4) 1.0022(4) 0.51650(19)
C1 C 0.6299(5) 0.9290(5) 0.4834(2)
C2 C 1.0798(5) 1.0425(6) 0.4246(2)
C3 C 0.4894(5) 0.8517(5) 0.5169(2)
H2 H 0.4914 0.9157 0.5491
C4 C 0.4705(5) 0.7210(5) 0.5507(3)
C5 C 0.5164(7) 0.6388(6) 0.5088(5)
H3 H 0.6165 0.6910 0.5036
H4 H 0.4718 0.6244 0.4690
H5 H 0.4896 0.5496 0.5274
C6 C 1.1297(7) 0.9582(8) 0.3878(3)
H6 H 1.2084 1.0205 0.3626
H7 H 1.0549 0.8922 0.3617
H8 H 1.1573 0.9085 0.4159
C7 C 0.2533(6) 0.6631(8) 0.4980(4)
H9 H 0.1621 0.6549 0.5043
H10 H 0.2438 0.5953 0.4667
C8 C 0.5527(8) 0.7547(9) 0.6111(4)
H11 H 0.6515 0.8064 0.6022
H12 H 0.5304 0.6689 0.6320
H13 H 0.5283 0.8101 0.6371
C9 C 0.3623(6) 0.8150(8) 0.4764(4)
H14 H 0.3845 0.8168 0.4327
H15 H 0.3275 0.8794 0.4836
C10 C 0.3068(5) 0.6349(5) 0.5591(2)
C11 C 0.2579(6) 0.4843(5) 0.5744(3)
C12 C 0.2618(9) 0.6976(8) 0.6128(4)
H16 H 0.1616 0.6446 0.6175
H17 H 0.2903 0.7936 0.6035
H18 H 0.3057 0.6934 0.6507
O4 O 0.1884(4) 0.3867(5) 0.5362(3)
O5 O 0.2876(7) 0.4573(5) 0.6252(2)
O6 O 0.6338(5) 0.9159(5) 0.42619(19)
O7 O 0.9547(4) 1.0176(4) 0.41651(17)
Ce1_2 Ce -0.03060(2) 0.19545(2) 0.50086(2)
Ce1D Ce 0.19545(2) 0.22605(3) 0.66753(2)
Ce1E Ce 0.77395(3) 0.96940(2) 0.33419(2)
O4_2 O 1.1884(4) 1.3867(5) 0.5362(3)
O5E O 0.8303(9) 1.2876(7) 0.4585(2)
O6D O 0.9159(5) 1.2821(7) 0.59286(19)
O7D O 1.0176(4) 1.0629(6) 0.58318(17)
loop_
_geom_bond_atom_site_label_1
_geom_bond_atom_site_label_2
_geom_bond_site_symmetry_1
_geom_bond_site_symmetry_2
Ce1 O1 1_555 1_555
O1 C2 1_555 1_555
O2 Ce1 1_555 1_555
H1 O2 1_555 1_555
O3 Ce1 1_555 1_555
C1 O3 1_555 1_555
C2 C6 1_555 1_555
C3 C1 1_555 1_555
H2 C3 1_555 1_555
C4 C3 1_555 1_555
C5 C4 1_555 1_555
H3 C5 1_555 1_555
H4 C5 1_555 1_555
H5 C5 1_555 1_555
C6 H6 1_555 1_555
H7 C6 1_555 1_555
H8 C6 1_555 1_555
C7 H9 1_555 1_555
H10 C7 1_555 1_555
C8 C4 1_555 1_555
H11 C8 1_555 1_555
H12 C8 1_555 1_555
H13 C8 1_555 1_555
C9 C3 1_555 1_555
H14 C9 1_555 1_555
H15 C9 1_555 1_555
C10 C4 1_555 1_555
C11 C10 1_555 1_555
C12 C10 1_555 1_555
H16 C12 1_555 1_555
H17 C12 1_555 1_555
H18 C12 1_555 1_555
O4 C11 1_555 1_555
O5 C11 1_555 1_555
O6 C1 1_555 1_555
O7 Ce1 1_555 1_555
Ce1_2 O4 1_555 1_555
Ce1D O5 1_555 1_555
Ce1E O6 1_555 1_555
O4_2 Ce1 1_555 1_555
O5E Ce1 1_555 1_555
O6D Ce1 1_555 1_555
O7D Ce1 1_555 1_555
C2 O7 1_555 1_555
C7 C9 1_555 1_555
C7 C10 1_555 1_555
O7 Ce1E 1_555 1_555

#END
