
#######################################################################
#
#                 Cambridge Crystallographic Data Centre
#                                CCDC 
#
#######################################################################
#
# If this CIF has been generated from an entry in the Cambridge 
# Structural Database, then it will include bibliographic, chemical, 
# crystal, experimental, refinement or atomic coordinate data resulting 
# from the CCDC's data processing and validation procedures.
#
#######################################################################

data_KOVFEI
_symmetry_cell_setting           orthorhombic
_symmetry_space_group_name_H-M   'P 21 21 21'
_symmetry_Int_Tables_number      19
_space_group_name_Hall           'P 2ac 2ab'
loop_
_symmetry_equiv_pos_site_id
_symmetry_equiv_pos_as_xyz
1 x,y,z
2 1/2-x,-y,1/2+z
3 1/2+x,1/2-y,-z
4 -x,1/2+y,1/2-z
_cell_length_a                   8.2090(5)
_cell_length_b                   9.1718(6)
_cell_length_c                   20.3772(17)
_cell_angle_alpha                90
_cell_angle_beta                 90
_cell_angle_gamma                90
_cell_volume                     1534.23
loop_
_atom_site_label
_atom_site_type_symbol
_atom_site_fract_x
_atom_site_fract_y
_atom_site_fract_z
Cu1 Cu -0.57156(4) -0.52113(4) -0.490150(14)
O1 O -0.3929(2) -0.4998(2) -0.43176(8)
O2 O -0.1830(2) -0.7544(2) -0.56498(11)
N1 N -0.7028(3) -0.3841(3) -0.43855(11)
N2 N -0.7549(2) -0.5048(3) -0.55853(10)
N3 N -0.4314(3) -0.6254(3) -0.55161(11)
C1 C -0.0806(4) -0.4198(3) -0.23751(13)
H1 H -0.0692 -0.3800 -0.1947
C2 C 0.0477(3) -0.4909(3) -0.26572(13)
H2 H 0.1470 -0.5012 -0.2422
C3 C 0.0338(3) -0.5491(3) -0.32933(13)
H3 H 0.1237 -0.5978 -0.3489
C4 C -0.1101(3) -0.5354(3) -0.36307(13)
H4 H -0.1192 -0.5756 -0.4059
C5 C -0.2436(3) -0.4632(3) -0.33535(12)
C6 C -0.3929(3) -0.4443(3) -0.37298(12)
C7 C -0.5202(3) -0.3618(3) -0.34584(13)
C8 C -0.5032(4) -0.3100(4) -0.27983(14)
H5 H -0.5922 -0.2598 -0.2604
C9 C -0.3671(4) -0.3290(4) -0.24412(14)
H6 H -0.3617 -0.2920 -0.2006
C10 C -0.2303(3) -0.4047(3) -0.27124(13)
C11 C -0.6636(3) -0.3210(3) -0.38352(14)
C12 C -0.7654(3) -0.1956(4) -0.35828(15)
H7 H -0.8601 -0.2338 -0.3346
H8 H -0.8024 -0.1360 -0.3953
H9 H -0.6997 -0.1356 -0.3286
C13 C -0.8533(3) -0.3407(3) -0.47250(14)
H10 H -0.8360 -0.2481 -0.4965
H11 H -0.9422 -0.3260 -0.4403
C14 C -0.8984(3) -0.4611(3) -0.52012(13)
H12 H -0.9407 -0.5461 -0.4956
H13 H -0.9851 -0.4265 -0.5500
C15 C -0.7064(3) -0.3906(3) -0.60550(14)
H14 H -0.6876 -0.2990 -0.5819
H15 H -0.7932 -0.3768 -0.6379
H16 H -0.6060 -0.4202 -0.6279
C16 C -0.7925(4) -0.6390(3) -0.59610(15)
H17 H -0.6963 -0.6686 -0.6213
H18 H -0.8831 -0.6199 -0.6262
H19 H -0.8228 -0.7171 -0.5657
C17 C -0.3076(3) -0.6880(3) -0.55651(13)
Cu1B Cu -0.07156(4) -0.97887(4) -0.509850(14)
O2B O -0.6830(2) -0.7456(2) -0.43502(11)
loop_
_geom_bond_atom_site_label_1
_geom_bond_atom_site_label_2
_geom_bond_site_symmetry_1
_geom_bond_site_symmetry_2
Cu1 O1 1_555 1_555
O1 C6 1_555 1_555
O2 C17 1_555 1_555
N1 Cu1 1_555 1_555
N2 Cu1 1_555 1_555
N3 Cu1 1_555 1_555
C1 H1 1_555 1_555
C2 C1 1_555 1_555
H2 C2 1_555 1_555
C3 C2 1_555 1_555
H3 C3 1_555 1_555
C4 C3 1_555 1_555
H4 C4 1_555 1_555
C5 C4 1_555 1_555
C6 C5 1_555 1_555
C7 C6 1_555 1_555
C8 C7 1_555 1_555
H5 C8 1_555 1_555
C9 C8 1_555 1_555
H6 C9 1_555 1_555
C10 C1 1_555 1_555
C11 N1 1_555 1_555
C12 C11 1_555 1_555
H7 C12 1_555 1_555
H8 C12 1_555 1_555
H9 C12 1_555 1_555
C13 N1 1_555 1_555
H10 C13 1_555 1_555
H11 C13 1_555 1_555
C14 N2 1_555 1_555
H12 C14 1_555 1_555
H13 C14 1_555 1_555
C15 N2 1_555 1_555
H14 C15 1_555 1_555
H15 C15 1_555 1_555
H16 C15 1_555 1_555
C16 N2 1_555 1_555
H17 C16 1_555 1_555
H18 C16 1_555 1_555
H19 C16 1_555 1_555
C17 N3 1_555 1_555
Cu1B O2 1_555 1_555
O2B Cu1 1_555 1_555
C5 C10 1_555 1_555
C7 C11 1_555 1_555
C9 C10 1_555 1_555
C13 C14 1_555 1_555

#END
