
#######################################################################
#
#                 Cambridge Crystallographic Data Centre
#                                CCDC 
#
#######################################################################
#
# If this CIF has been generated from an entry in the Cambridge 
# Structural Database, then it will include bibliographic, chemical, 
# crystal, experimental, refinement or atomic coordinate data resulting 
# from the CCDC's data processing and validation procedures.
#
#######################################################################

data_KOVKOV
_symmetry_cell_setting           monoclinic
_symmetry_space_group_name_H-M   'P 21/c'
_symmetry_Int_Tables_number      14
_space_group_name_Hall           '-P 2ybc'
loop_
_symmetry_equiv_pos_site_id
_symmetry_equiv_pos_as_xyz
1 x,y,z
2 -x,1/2+y,1/2-z
3 -x,-y,-z
4 x,1/2-y,1/2+z
_cell_length_a                   9.609(4)
_cell_length_b                   18.688(8)
_cell_length_c                   11.181(9)
_cell_angle_alpha                90
_cell_angle_beta                 109.19(5)
_cell_angle_gamma                90
_cell_volume                     1896.24
loop_
_atom_site_label
_atom_site_type_symbol
_atom_site_fract_x
_atom_site_fract_y
_atom_site_fract_z
Hg1 Hg 0.20024(3) 0.73525(1) 0.51894(3)
I1 I 0.11451(6) 0.60265(3) 0.51114(5)
P1 P 0.3305(2) 0.84496(9) 0.5181(2)
C1 C 0.2043(7) 0.9178(3) 0.4549(6)
C2 C 0.2414(8) 0.9869(4) 0.4950(7)
C3 C 0.1501(9) 1.0440(4) 0.4435(8)
C4 C 0.023(1) 1.0309(4) 0.3455(8)
C5 C -0.0177(9) 0.9620(5) 0.3031(8)
C6 C 0.0745(9) 0.9045(4) 0.3593(7)
C7 C 0.4493(7) 0.8360(3) 0.4224(6)
C8 C 0.4413(9) 0.8856(4) 0.3269(7)
C9 C 0.5386(9) 0.8786(5) 0.2594(7)
C10 C 0.6384(9) 0.8233(5) 0.2846(8)
C11 C 0.6459(9) 0.7751(4) 0.3768(9)
C12 C 0.5501(9) 0.7798(4) 0.4473(8)
C13 C 0.4457(7) 0.8736(3) 0.6736(6)
C14 C 0.5926(8) 0.8914(4) 0.6956(7)
C15 C 0.6752(9) 0.9187(5) 0.8147(8)
C16 C 0.613(1) 0.9278(4) 0.9071(7)
C17 C 0.467(1) 0.9096(4) 0.8840(7)
C18 C 0.3858(8) 0.8820(4) 0.7690(7)
N1 N 0.0170(8) 0.7697(3) 0.6932(7)
O1 O -0.0152(7) 0.7886(3) 0.5805(6)
O2 O 0.1475(7) 0.7542(3) 0.7503(5)
O3 O -0.0751(9) 0.7665(4) 0.7476(8)
H1 H 0.3339 0.9955 0.5630
H2 H 0.1748 1.09213 0.4752
H3 H -0.0381 1.0716 0.3058
H4 H -0.1103 0.9535 0.2360
H5 H 0.0469 0.8555 0.3319
H6 H 0.3696 0.9243 0.3084
H7 H 0.5349 0.9115 0.1926
H8 H 0.7056 0.8195 0.2364
H9 H 0.7180 0.7373 0.3938
H10 H 0.5546 0.7450 0.5122
H11 H 0.6370 0.8848 0.6300
H12 H 0.7781 0.9318 0.8324
H13 H 0.6706 0.9463 0.9892
H14 H 0.4240 0.9159 0.9500
H15 H 0.2852 0.8677 0.7545
O2C O 0.1475(7) 0.7458(3) 0.2503(5)
Hg1C Hg 0.20024(3) 0.76475(1) 1.01894(3)
I1C I 0.11451(6) 0.89735(3) 1.01114(5)
P1C P 0.3305(2) 0.65504(9) 1.0181(2)
O1C O -0.0152(7) 0.7114(3) 1.0805(6)
O2C_2 O 0.1475(7) 0.7458(3) 1.2503(5)
C1C C 0.2043(7) 0.5822(3) 0.9549(6)
C7C C 0.4493(7) 0.6640(3) 0.9224(6)
C13C C 0.4457(7) 0.6264(3) 1.1736(6)
N1C N 0.0170(8) 0.7303(3) 1.1932(7)
C2C C 0.2414(8) 0.5131(4) 0.9950(7)
C6C C 0.0745(9) 0.5955(4) 0.8593(7)
C8C C 0.4413(9) 0.6144(4) 0.8269(7)
C12C C 0.5501(9) 0.7202(4) 0.9473(8)
C14C C 0.5926(8) 0.6086(4) 1.1956(7)
C18C C 0.3858(8) 0.6180(4) 1.2690(7)
C3C C 0.1501(9) 0.4560(4) 0.9435(8)
H1C H 0.3339 0.5045 1.0630
C5C C -0.0177(9) 0.5380(5) 0.8031(8)
H5C H 0.0469 0.6445 0.8319
C9C C 0.5386(9) 0.6214(5) 0.7594(7)
H6C H 0.3696 0.5757 0.8084
C11C C 0.6459(9) 0.7249(4) 0.8768(9)
H10C H 0.5546 0.7550 1.0122
C15C C 0.6752(9) 0.5813(5) 1.3147(8)
H11C H 0.6370 0.6152 1.1300
C17C C 0.467(1) 0.5904(4) 1.3840(7)
H15C H 0.2852 0.6323 1.2545
C4C C 0.023(1) 0.4691(4) 0.8455(8)
H2C H 0.1748 0.40787 0.9752
H4C H -0.1103 0.5465 0.7360
C10C C 0.6384(9) 0.6767(5) 0.7846(8)
H7C H 0.5349 0.5885 0.6926
H9C H 0.7180 0.7627 0.8938
C16C C 0.613(1) 0.5722(4) 1.4071(7)
H12C H 0.7781 0.5682 1.3324
H14C H 0.4240 0.5841 1.4500
H3C H -0.0381 0.4284 0.8058
H8C H 0.7056 0.6805 0.7364
H13C H 0.6706 0.5537 1.4892
Hg1_2 Hg 0.20024(3) 0.73525(1) 1.51894(3)
O3C O -0.0751(9) 0.7335(4) 1.2476(8)
loop_
_geom_bond_atom_site_label_1
_geom_bond_atom_site_label_2
_geom_bond_site_symmetry_1
_geom_bond_site_symmetry_2
Hg1 I1 1_555 1_555
P1 Hg1 1_555 1_555
C1 P1 1_555 1_555
C2 C1 1_555 1_555
C3 C2 1_555 1_555
C4 C3 1_555 1_555
C5 C4 1_555 1_555
C6 C1 1_555 1_555
C7 P1 1_555 1_555
C8 C7 1_555 1_555
C9 C8 1_555 1_555
C10 C9 1_555 1_555
C11 C10 1_555 1_555
C12 C7 1_555 1_555
C13 P1 1_555 1_555
C14 C13 1_555 1_555
C15 C14 1_555 1_555
C16 C15 1_555 1_555
C17 C16 1_555 1_555
C18 C13 1_555 1_555
N1 O1 1_555 1_555
O1 Hg1 1_555 1_555
O2 Hg1 1_555 1_555
O3 N1 1_555 1_555
H1 C2 1_555 1_555
H2 C3 1_555 1_555
H3 C4 1_555 1_555
H4 C5 1_555 1_555
H5 C6 1_555 1_555
H6 C8 1_555 1_555
H7 C9 1_555 1_555
H8 C10 1_555 1_555
H9 C11 1_555 1_555
H10 C12 1_555 1_555
H11 C14 1_555 1_555
H12 C15 1_555 1_555
H13 C16 1_555 1_555
H14 C17 1_555 1_555
H15 C18 1_555 1_555
O2C Hg1 1_555 1_555
Hg1C O2 1_555 1_555
I1C Hg1C 1_555 1_555
P1C Hg1C 1_555 1_555
O1C Hg1C 1_555 1_555
O2C_2 Hg1C 1_555 1_555
C1C P1C 1_555 1_555
C7C P1C 1_555 1_555
C13C P1C 1_555 1_555
N1C O1C 1_555 1_555
C2C C1C 1_555 1_555
C6C C1C 1_555 1_555
C8C C7C 1_555 1_555
C12C C7C 1_555 1_555
C14C C13C 1_555 1_555
C18C C13C 1_555 1_555
C3C C2C 1_555 1_555
H1C C2C 1_555 1_555
C5C C6C 1_555 1_555
H5C C6C 1_555 1_555
C9C C8C 1_555 1_555
H6C C8C 1_555 1_555
C11C C12C 1_555 1_555
H10C C12C 1_555 1_555
C15C C14C 1_555 1_555
H11C C14C 1_555 1_555
C17C C18C 1_555 1_555
H15C C18C 1_555 1_555
C4C C3C 1_555 1_555
H2C C3C 1_555 1_555
H4C C5C 1_555 1_555
C10C C9C 1_555 1_555
H7C C9C 1_555 1_555
H9C C11C 1_555 1_555
C16C C15C 1_555 1_555
H12C C15C 1_555 1_555
H14C C17C 1_555 1_555
H3C C4C 1_555 1_555
H8C C10C 1_555 1_555
H13C C16C 1_555 1_555
Hg1_2 O2C_2 1_555 1_555
O3C N1C 1_555 1_555
C5 C6 1_555 1_555
C11 C12 1_555 1_555
C17 C18 1_555 1_555
N1 O2 1_555 1_555
O2C_2 N1C 1_555 1_555
C5C C4C 1_555 1_555
C11C C10C 1_555 1_555
C17C C16C 1_555 1_555

#END
