
#######################################################################
#
#                 Cambridge Crystallographic Data Centre
#                                CCDC 
#
#######################################################################
#
# If this CIF has been generated from an entry in the Cambridge 
# Structural Database, then it will include bibliographic, chemical, 
# crystal, experimental, refinement or atomic coordinate data resulting 
# from the CCDC's data processing and validation procedures.
#
#######################################################################

data_KOVZIG
_symmetry_cell_setting           triclinic
_symmetry_space_group_name_H-M   'P -1'
_symmetry_Int_Tables_number      2
_space_group_name_Hall           '-P 1'
loop_
_symmetry_equiv_pos_site_id
_symmetry_equiv_pos_as_xyz
1 x,y,z
2 -x,-y,-z
_cell_length_a                   12.3100(18)
_cell_length_b                   12.6680(18)
_cell_length_c                   13.816(2)
_cell_angle_alpha                106.758(2)
_cell_angle_beta                 108.015(2)
_cell_angle_gamma                108.944(2)
_cell_volume                     1747.58
loop_
_atom_site_label
_atom_site_type_symbol
_atom_site_fract_x
_atom_site_fract_y
_atom_site_fract_z
O28 O 0.5000 0.5000 0.5000
W1 W 0.23625(7) 0.23008(7) -0.06076(6)
Si1 Si 0.5000 0.5000 0.0000
O1 O 0.3757(16) 0.9666(15) 0.0978(14)
N1 N 0.8843(14) 1.1876(16) -0.0216(13)
C1 C 0.5224(19) 1.0493(19) 0.3534(16)
H1 H 0.5318 0.9929 0.3004
O2 O 0.3115(13) 0.7639(13) 0.1825(11)
Cu1 Cu 0.2596(2) 0.9394(2) 0.1730(2)
W2 W 0.68615(7) 0.73522(7) 0.27862(7)
O3 O 0.5821(19) 0.2413(18) -0.0383(15)
O4 O 0.227(2) 1.1012(18) 0.1585(16)
N2 N 0.4051(17) 1.0479(17) 0.3249(15)
C2 C 1.0029(19) 1.241(2) 0.1733(18)
W3 W 0.55065(9) 0.28139(8) 0.09135(7)
N3 N 0.8179(18) 1.141(2) 0.4267(18)
C3 C 0.9522(18) 1.3012(19) -0.0052(17)
H2 H 0.9349 1.3216 -0.0658
O5 O 0.1373(13) 0.8989(16) 0.2372(12)
O6 O 0.794(2) 1.108(3) 0.5701(18)
W4 W 0.18398(7) 0.44596(8) -0.15789(7)
C4 C 1.0477(19) 1.390(2) 0.099(2)
H3 H 1.0949 1.4689 0.1070
N4 N 0.954(2) 1.167(3) 0.307(2)
O7 O 0.442(2) 0.398(2) 0.039(2)
O8 O 0.5843(18) 0.6050(19) 0.308(2)
W5 W 0.36904(8) 0.67438(8) 0.12490(9)
C5 C 1.075(2) 1.364(2) 0.192(2)
H4 H 1.1377 1.4246 0.2632
W6 W 0.42480(8) 0.45975(9) 0.21731(8)
O9 O 0.155(2) 0.3204(19) -0.1070(14)
C6 C 1.036(2) 1.206(3) 0.269(2)
O10 O 0.223(2) 0.5549(19) -0.0105(17)
C7 C 0.395(2) 1.129(3) 0.402(2)
H5 H 0.3149 1.1278 0.3855
O11 O 0.3457(18) 0.5647(19) 0.190(2)
C8 C 0.629(2) 1.130(2) 0.457(2)
O12 O 0.5136(16) 0.3644(18) 0.2030(15)
C9 C 0.754(2) 1.126(2) 0.4895(19)
O13 O 0.2534(15) 0.1888(16) -0.1968(12)
C10 C 0.493(3) 1.215(3) 0.505(3)
H6 H 0.4824 1.2742 0.5542
O14 O 0.3757(17) 0.1931(18) -0.0038(15)
C11 C 0.945(3) 1.149(3) 0.469(2)
H7 H 1.0075 1.2342 0.5178
H8 H 0.9492 1.1014 0.5126
O15 O 0.4026(19) 0.5639(19) -0.0278(18)
C12 C 0.910(2) 1.160(2) 0.0678(18)
H9 H 0.8599 1.0805 0.0561
O16 O 0.505(2) 0.576(2) 0.1232(18)
C13 C 0.788(3) 1.191(3) 0.347(3)
H10 H 0.6980 1.1707 0.3169
H11 H 0.8376 1.2804 0.3842
C14 C 0.614(3) 1.211(3) 0.536(3)
H12 H 0.6809 1.2619 0.6082
O17 O 0.638(2) 0.601(2) 0.086(2)
C15 C 0.973(3) 1.102(3) 0.379(3)
H13 H 0.9172 1.0142 0.3355
H14 H 1.0610 1.1154 0.4090
O18 O 0.2763(17) 0.322(2) 0.0876(13)
O19 O 0.7924(18) 0.6537(17) 0.2701(15)
C16 C 0.815(3) 1.145(4) 0.261(3)
H15 H 0.7584 1.0569 0.2173
H16 H 0.8013 1.1849 0.2111
O20 O 0.5424(18) 0.7652(19) 0.2287(19)
O21 O 0.5737(15) 0.1758(14) 0.1327(15)
O22 O 0.1123(17) 0.0983(15) -0.0908(19)
O23 O 0.720(2) 0.413(2) 0.1714(19)
O24 O 0.3878(17) 0.441(2) 0.3214(17)
O25 O 0.0336(14) 0.4182(18) -0.2318(15)
O26 O 0.7753(18) 0.8460(14) 0.4096(12)
O27 O 1.1393(15) 1.199(2) 0.3010(14)
O7A O 0.558(2) 0.602(2) -0.039(2)
O15A O 0.5974(19) 0.4361(19) 0.0278(18)
O16A O 0.495(2) 0.424(2) -0.1232(18)
O17A O 0.362(2) 0.399(2) -0.086(2)
W1A W 0.76375(7) 0.76992(7) 0.06076(6)
O1A O 0.6243(16) 0.0334(15) -0.0978(14)
N1A N 0.1157(14) -0.1876(16) 0.0216(13)
C1A C 0.4776(19) -0.0493(19) -0.3534(16)
H1A H 0.4682 0.0071 -0.3004
O2A O 0.6885(13) 0.2361(13) -0.1825(11)
Cu1A Cu 0.7404(2) 0.0606(2) -0.1730(2)
W2A W 0.31385(7) 0.26478(7) -0.27862(7)
O3A O 0.4179(19) 0.7587(18) 0.0383(15)
O4A O 0.773(2) -0.1012(18) -0.1585(16)
N2A N 0.5949(17) -0.0479(17) -0.3249(15)
C2A C -0.0029(19) -0.241(2) -0.1733(18)
W3A W 0.44935(9) 0.71861(8) -0.09135(7)
N3A N 0.1821(18) -0.141(2) -0.4267(18)
C3A C 0.0478(18) -0.3012(19) 0.0052(17)
H2A H 0.0651 -0.3216 0.0658
O5A O 0.8627(13) 0.1011(16) -0.2372(12)
O6A O 0.206(2) -0.108(3) -0.5701(18)
W4A W 0.81602(7) 0.55404(8) 0.15789(7)
C4A C -0.0477(19) -0.390(2) -0.099(2)
H3A H -0.0949 -0.4689 -0.1070
N4A N 0.046(2) -0.167(3) -0.307(2)
O8A O 0.4157(18) 0.3950(19) -0.308(2)
W5A W 0.63096(8) 0.32562(8) -0.12490(9)
C5A C -0.075(2) -0.364(2) -0.192(2)
H4A H -0.1377 -0.4246 -0.2632
W6A W 0.57520(8) 0.54025(9) -0.21731(8)
O9A O 0.845(2) 0.6796(19) 0.1070(14)
C6A C -0.036(2) -0.206(3) -0.269(2)
O10A O 0.777(2) 0.4451(19) 0.0105(17)
C7A C 0.605(2) -0.129(3) -0.402(2)
H5A H 0.6851 -0.1278 -0.3855
O11A O 0.6543(18) 0.4353(19) -0.190(2)
C8A C 0.371(2) -0.130(2) -0.457(2)
O12A O 0.4864(16) 0.6356(18) -0.2030(15)
C9A C 0.246(2) -0.126(2) -0.4895(19)
O13A O 0.7466(15) 0.8112(16) 0.1968(12)
C10A C 0.507(3) -0.215(3) -0.505(3)
H6A H 0.5176 -0.2742 -0.5542
O14A O 0.6243(17) 0.8069(18) 0.0038(15)
C11A C 0.055(3) -0.149(3) -0.469(2)
H7A H -0.0075 -0.2342 -0.5178
H8A H 0.0508 -0.1014 -0.5126
C12A C 0.090(2) -0.160(2) -0.0678(18)
H9A H 0.1401 -0.0805 -0.0561
C13A C 0.212(3) -0.191(3) -0.347(3)
H10A H 0.3020 -0.1707 -0.3169
H11A H 0.1624 -0.2804 -0.3842
C14A C 0.386(3) -0.211(3) -0.536(3)
H12A H 0.3191 -0.2619 -0.6082
C15A C 0.027(3) -0.102(3) -0.379(3)
H13A H 0.0828 -0.0142 -0.3355
H14A H -0.0610 -0.1154 -0.4090
O18A O 0.7237(17) 0.678(2) -0.0876(13)
O19A O 0.2076(18) 0.3463(17) -0.2701(15)
C16A C 0.185(3) -0.145(4) -0.261(3)
H15A H 0.2416 -0.0569 -0.2173
H16A H 0.1987 -0.1849 -0.2111
O20A O 0.4576(18) 0.2348(19) -0.2287(19)
O21A O 0.4263(15) 0.8242(14) -0.1327(15)
O22A O 0.8877(17) 0.9017(15) 0.0908(19)
O23A O 0.280(2) 0.587(2) -0.1714(19)
O24A O 0.6122(17) 0.559(2) -0.3214(17)
O25A O 0.9664(14) 0.5818(18) 0.2318(15)
O26A O 0.2247(18) 0.1540(14) -0.4096(12)
O27A O -0.1393(15) -0.199(2) -0.3010(14)
N1_2 N 0.8843(14) 0.1876(16) -0.0216(13)
N1A_2 N 0.1157(14) 0.8124(16) 0.0216(13)
Cu1_2 Cu 0.2596(2) -0.0606(2) 0.1730(2)
Cu1A_2 Cu 0.7404(2) 1.0606(2) -0.1730(2)
loop_
_geom_bond_atom_site_label_1
_geom_bond_atom_site_label_2
_geom_bond_site_symmetry_1
_geom_bond_site_symmetry_2
W1 O7 1_555 1_555
Si1 O7 1_555 1_555
O1 Cu1 1_555 1_555
N1 C3 1_555 1_555
C1 H1 1_555 1_555
O2 Cu1 1_555 1_555
Cu1 O4 1_555 1_555
W2 O8 1_555 1_555
O3 W3 1_555 1_555
N2 C1 1_555 1_555
C2 C5 1_555 1_555
W3 O7 1_555 1_555
N3 C9 1_555 1_555
C3 H2 1_555 1_555
O5 Cu1 1_555 1_555
O6 C9 1_555 1_555
W4 O9 1_555 1_555
C4 C3 1_555 1_555
H3 C4 1_555 1_555
N4 C6 1_555 1_555
O7 W6 1_555 1_555
O8 W6 1_555 1_555
W5 O2 1_555 1_555
C5 C4 1_555 1_555
H4 C5 1_555 1_555
W6 O11 1_555 1_555
O9 W1 1_555 1_555
C6 C2 1_555 1_555
O10 W4 1_555 1_555
C7 N2 1_555 1_555
H5 C7 1_555 1_555
O11 W5 1_555 1_555
C8 C1 1_555 1_555
O12 W3 1_555 1_555
C9 C8 1_555 1_555
O13 W1 1_555 1_555
C10 C7 1_555 1_555
H6 C10 1_555 1_555
O14 W1 1_555 1_555
C11 N3 1_555 1_555
H7 C11 1_555 1_555
H8 C11 1_555 1_555
O15 Si1 1_555 1_555
C12 N1 1_555 1_555
H9 C12 1_555 1_555
O16 Si1 1_555 1_555
C13 N3 1_555 1_555
H10 C13 1_555 1_555
H11 C13 1_555 1_555
C14 C8 1_555 1_555
H12 C14 1_555 1_555
O17 Si1 1_555 1_555
C15 N4 1_555 1_555
H13 C15 1_555 1_555
H14 C15 1_555 1_555
O18 W1 1_555 1_555
O19 W2 1_555 1_555
C16 N4 1_555 1_555
H15 C16 1_555 1_555
H16 C16 1_555 1_555
O20 W2 1_555 1_555
O21 W3 1_555 1_555
O22 W1 1_555 1_555
O23 W3 1_555 1_555
O24 W6 1_555 1_555
O25 W4 1_555 1_555
O26 W2 1_555 1_555
O27 C6 1_555 1_555
O7A Si1 1_555 1_555
O15A Si1 1_555 1_555
O16A Si1 1_555 1_555
O17A W1 1_555 1_555
W1A O17 1_555 1_555
O1A Cu1A 1_555 1_555
N1A C3A 1_555 1_555
C1A H1A 1_555 1_555
O2A Cu1A 1_555 1_555
Cu1A O4A 1_555 1_555
W2A O13 1_555 1_555
O3A W5 1_555 1_555
N2A C1A 1_555 1_555
C2A C5A 1_555 1_555
W3A O15 1_555 1_555
N3A C9A 1_555 1_555
C3A H2A 1_555 1_555
O5A Cu1A 1_555 1_555
O6A C9A 1_555 1_555
W4A O17 1_555 1_555
C4A C3A 1_555 1_555
H3A C4A 1_555 1_555
N4A C6A 1_555 1_555
O8A W2A 1_555 1_555
W5A O3 1_555 1_555
C5A C4A 1_555 1_555
H4A C5A 1_555 1_555
W6A O7A 1_555 1_555
O9A W1A 1_555 1_555
C6A C2A 1_555 1_555
O10A W4A 1_555 1_555
C7A N2A 1_555 1_555
H5A C7A 1_555 1_555
O11A W5A 1_555 1_555
C8A C1A 1_555 1_555
O12A W3A 1_555 1_555
C9A C8A 1_555 1_555
O13A W2 1_555 1_555
C10A C7A 1_555 1_555
H6A C10A 1_555 1_555
O14A W1A 1_555 1_555
C11A N3A 1_555 1_555
H7A C11A 1_555 1_555
H8A C11A 1_555 1_555
C12A N1A 1_555 1_555
H9A C12A 1_555 1_555
C13A N3A 1_555 1_555
H10A C13A 1_555 1_555
H11A C13A 1_555 1_555
C14A C8A 1_555 1_555
H12A C14A 1_555 1_555
C15A N4A 1_555 1_555
H13A C15A 1_555 1_555
H14A C15A 1_555 1_555
O18A W1A 1_555 1_555
O19A W4 1_555 1_555
C16A N4A 1_555 1_555
H15A C16A 1_555 1_555
H16A C16A 1_555 1_555
O20A W2A 1_555 1_555
O21A W3A 1_555 1_555
O22A W1A 1_555 1_555
O23A W4 1_555 1_555
O24A W6A 1_555 1_555
O25A W4A 1_555 1_555
O26A W2A 1_555 1_555
O27A C6A 1_555 1_555
N1_2 Cu1A 1_555 1_555
N1A_2 Cu1 1_555 1_555
Cu1_2 N1A 1_555 1_555
Cu1A_2 N1 1_555 1_555
Si1 O17A 1_555 1_555
Cu1 N2 1_555 1_555
W2 O16 1_555 1_555
W2 O17 1_555 1_555
C2 C12 1_555 1_555
W3 O14 1_555 1_555
W3 O15A 1_555 1_555
W4 O15 1_555 1_555
W4 O17A 1_555 1_555
O7 O17A 1_555 1_555
W5 O10 1_555 1_555
W5 O15 1_555 1_555
W5 O16 1_555 1_555
W5 O20 1_555 1_555
W6 O12 1_555 1_555
W6 O16 1_555 1_555
W6 O18 1_555 1_555
C10 C14 1_555 1_555
C11 C15 1_555 1_555
C13 C16 1_555 1_555
O17 O7A 1_555 1_555
O19 W4A 1_555 1_555
O23 W4A 1_555 1_555
O7A W1A 1_555 1_555
O7A W3A 1_555 1_555
O15A W4A 1_555 1_555
O15A W5A 1_555 1_555
O16A W2A 1_555 1_555
O16A W5A 1_555 1_555
O16A W6A 1_555 1_555
O17A W2A 1_555 1_555
W1A O13A 1_555 1_555
O2A W5A 1_555 1_555
Cu1A N2A 1_555 1_555
W2A O19A 1_555 1_555
O3A W3A 1_555 1_555
C2A C12A 1_555 1_555
W3A O14A 1_555 1_555
W3A O23A 1_555 1_555
W4A O9A 1_555 1_555
O8A W6A 1_555 1_555
W5A O10A 1_555 1_555
W5A O20A 1_555 1_555
W6A O11A 1_555 1_555
W6A O12A 1_555 1_555
W6A O18A 1_555 1_555
C10A C14A 1_555 1_555
C11A C15A 1_555 1_555
C13A C16A 1_555 1_555

#END
