
#######################################################################
#
#                 Cambridge Crystallographic Data Centre
#                                CCDC 
#
#######################################################################
#
# If this CIF has been generated from an entry in the Cambridge 
# Structural Database, then it will include bibliographic, chemical, 
# crystal, experimental, refinement or atomic coordinate data resulting 
# from the CCDC's data processing and validation procedures.
#
#######################################################################

data_KOWSAS
_symmetry_cell_setting           monoclinic
_symmetry_space_group_name_H-M   'P 21/c'
_symmetry_Int_Tables_number      14
_space_group_name_Hall           '-P 2ybc'
loop_
_symmetry_equiv_pos_site_id
_symmetry_equiv_pos_as_xyz
1 x,y,z
2 -x,1/2+y,1/2-z
3 -x,-y,-z
4 x,1/2-y,1/2+z
_cell_length_a                   7.7317(2)
_cell_length_b                   16.6766(4)
_cell_length_c                   18.3032(4)
_cell_angle_alpha                90
_cell_angle_beta                 111.814(2)
_cell_angle_gamma                90
_cell_volume                     2191
loop_
_atom_site_label
_atom_site_type_symbol
_atom_site_fract_x
_atom_site_fract_y
_atom_site_fract_z
Cd1 Cd 0.83617(3) 0.813293(11) 0.775048(11)
N1 N 1.1483(3) 0.48961(13) 1.22878(12)
N2 N 1.3156(3) 0.68013(13) 0.93878(13)
O1 O 0.7791(3) 0.70629(12) 0.38465(11)
O2 O 0.6020(3) 0.60847(12) 0.31437(11)
C1 C 0.6970(4) 0.72036(16) 0.64460(16)
O3 O 0.8550(3) 0.75142(12) 0.65872(11)
O4 O 0.6099(3) 0.72978(12) 0.69064(11)
C2 C 0.6740(4) 0.68027(16) 0.51034(16)
H1 H 0.7792 0.7112 0.5176
N3 N 1.1081(3) 0.74788(13) 0.84247(13)
C3 C 1.1564(4) 0.72245(16) 0.91598(16)
H2 H 1.0887 0.7326 0.9477
C4 C 1.3106(4) 0.46110(16) 1.21175(16)
H3 H 1.3255 0.4039 1.2215
H4 H 1.4223 0.4875 1.2469
C5 C 1.0286(4) 0.44361(17) 1.25067(16)
H5 H 1.0323 0.3882 1.2570
C6 C 1.3316(3) 0.56686(16) 1.03127(16)
C7 C 1.1732(4) 0.44064(17) 0.99067(16)
H6 H 1.1121 0.4042 0.9510
C8 C 1.2458(4) 0.72061(17) 0.81801(16)
H7 H 1.2499 0.7296 0.7685
C9 C 1.3740(4) 0.67889(17) 0.87635(17)
H8 H 1.4804 0.6542 0.8747
C10 C 0.6582(4) 0.65169(16) 0.37462(15)
C11 C 1.3549(3) 0.54857(16) 1.10868(16)
H9 H 1.4167 0.5848 1.1485
C12 C 1.2882(3) 0.47775(16) 1.12773(16)
C13 C 1.1967(3) 0.42342(16) 1.06771(16)
H10 H 1.1514 0.3755 1.0796
C14 C 0.3562(4) 0.58749(16) 0.48804(16)
C15 C 1.4112(4) 0.64533(17) 1.01707(16)
H11 H 1.4072 0.6837 1.0562
H12 H 1.5410 0.6371 1.0248
C16 C 0.9040(4) 0.49459(17) 1.26132(16)
H13 H 0.8062 0.4797 1.2764
C17 C 0.6070(4) 0.67339(15) 0.57052(15)
N4 N 0.9440(3) 0.57185(13) 1.24640(13)
C18 C 0.4482(4) 0.62700(16) 0.55899(16)
H14 H 0.4033 0.6225 0.5994
C19 C 1.2402(3) 0.51205(16) 0.97223(16)
H15 H 1.2239 0.5232 0.9203
C20 C 1.0920(4) 0.56601(16) 1.22671(15)
H16 H 1.1497 0.6094 1.2132
C21 C 0.1811(4) 0.54101(18) 0.47520(18)
H17 H 0.1835 0.5208 0.5247
H18 H 0.1725 0.4970 0.4402
H19 H 0.0751 0.5755 0.4525
C22 C 0.5846(4) 0.64112(16) 0.43914(15)
C23 C 0.4283(4) 0.59473(16) 0.42896(15)
H20 H 0.3703 0.5678 0.3816
Cd1C Cd 0.83617(3) 0.686707(11) 0.275048(11)
Cd1C_2 Cd 0.83617(3) 0.686707(11) 1.275048(11)
O1C O 0.7791(3) 0.79371(12) 0.88465(11)
O2C O 0.6020(3) 0.89153(12) 0.81437(11)
N4C N 0.9440(3) 0.92815(13) 0.74640(13)
O5 O 0.1671(4) 0.77203(16) 0.61205(16)
H21 H 0.0785 0.7486 0.6203
H22 H 0.2548 0.7416 0.6402
loop_
_geom_bond_atom_site_label_1
_geom_bond_atom_site_label_2
_geom_bond_site_symmetry_1
_geom_bond_site_symmetry_2
Cd1 O3 1_555 1_555
N1 C4 1_555 1_555
N2 C3 1_555 1_555
O1 C10 1_555 1_555
O2 C10 1_555 1_555
C1 O3 1_555 1_555
O4 Cd1 1_555 1_555
C2 H1 1_555 1_555
N3 Cd1 1_555 1_555
C3 N3 1_555 1_555
H2 C3 1_555 1_555
C4 H3 1_555 1_555
H4 C4 1_555 1_555
C5 N1 1_555 1_555
H5 C5 1_555 1_555
C6 C11 1_555 1_555
C7 H6 1_555 1_555
C8 N3 1_555 1_555
H7 C8 1_555 1_555
C9 N2 1_555 1_555
H8 C9 1_555 1_555
C10 C22 1_555 1_555
C11 H9 1_555 1_555
C12 C4 1_555 1_555
C13 C7 1_555 1_555
H10 C13 1_555 1_555
C14 C18 1_555 1_555
C15 N2 1_555 1_555
H11 C15 1_555 1_555
H12 C15 1_555 1_555
C16 C5 1_555 1_555
H13 C16 1_555 1_555
C17 C1 1_555 1_555
N4 C16 1_555 1_555
C18 C17 1_555 1_555
H14 C18 1_555 1_555
C19 C6 1_555 1_555
H15 C19 1_555 1_555
C20 N1 1_555 1_555
H16 C20 1_555 1_555
C21 C14 1_555 1_555
H17 C21 1_555 1_555
H18 C21 1_555 1_555
H19 C21 1_555 1_555
C22 C2 1_555 1_555
C23 C14 1_555 1_555
H20 C23 1_555 1_555
O5 H21 1_555 1_555
H22 O5 1_555 1_555
Cd1C O1 1_555 1_555
Cd1C_2 N4 1_555 1_555
O1C Cd1 1_555 1_555
O2C Cd1 1_555 1_555
N4C Cd1 1_555 1_555
O2 Cd1C 1_555 1_555
C1 O4 1_555 1_555
C2 C17 1_555 1_555
C6 C15 1_555 1_555
C7 C19 1_555 1_555
C8 C9 1_555 1_555
C11 C12 1_555 1_555
C12 C13 1_555 1_555
N4 C20 1_555 1_555
C22 C23 1_555 1_555

#END
