
#######################################################################
#
#                 Cambridge Crystallographic Data Centre
#                                CCDC 
#
#######################################################################
#
# If this CIF has been generated from an entry in the Cambridge 
# Structural Database, then it will include bibliographic, chemical, 
# crystal, experimental, refinement or atomic coordinate data resulting 
# from the CCDC's data processing and validation procedures.
#
#######################################################################

data_KOWSEW01
_symmetry_cell_setting           monoclinic
_symmetry_space_group_name_H-M   'P 21/c'
_symmetry_Int_Tables_number      14
_space_group_name_Hall           '-P 2ybc'
loop_
_symmetry_equiv_pos_site_id
_symmetry_equiv_pos_as_xyz
1 x,y,z
2 -x,1/2+y,1/2-z
3 -x,-y,-z
4 x,1/2-y,1/2+z
_cell_length_a                   10.0418(3)
_cell_length_b                   23.8651(6)
_cell_length_c                   8.7872(2)
_cell_angle_alpha                90
_cell_angle_beta                 112.333(3)
_cell_angle_gamma                90
_cell_volume                     1947.88
loop_
_atom_site_label
_atom_site_type_symbol
_atom_site_fract_x
_atom_site_fract_y
_atom_site_fract_z
C1 C 0.3518(3) 0.86649(10) 0.4711(3)
C2 C 0.4491(2) 0.84142(10) 0.6129(3)
H1 H 0.5338 0.8600 0.6746
C3 C 0.4218(3) 0.78934(10) 0.6633(3)
C4 C 0.2963(3) 0.76114(11) 0.5682(3)
H2 H 0.2769 0.7260 0.6005
C5 C 0.2008(3) 0.78533(11) 0.4260(3)
H3 H 0.1179 0.7661 0.3619
C6 C 0.2276(3) 0.83800(11) 0.3782(3)
H4 H 0.1618 0.8543 0.2832
C7 C 0.3867(2) 0.98778(10) 0.6571(3)
H5 H 0.4783 0.9772 0.7283
C8 C 0.1796(3) 1.02635(12) 0.5577(3)
H6 H 0.1004 1.0484 0.5478
C9 C 0.1877(3) 0.99199(12) 0.4398(3)
H7 H 0.1168 0.9859 0.3361
C10 C 0.3805(3) 0.92488(10) 0.4277(3)
H8 H 0.4836 0.9303 0.4633
H9 H 0.3386 0.9293 0.3091
C11 C 0.5844(3) 0.67097(10) 0.7269(3)
H10 H 0.4927 0.6560 0.6995
C12 C 0.8029(3) 0.68049(12) 0.7609(4)
H11 H 0.8942 0.6734 0.7616
C13 C 0.7625(3) 0.72820(13) 0.8141(4)
H12 H 0.8202 0.7593 0.8577
C14 C 0.5274(3) 0.76403(11) 0.8217(3)
H13 H 0.5856 0.7937 0.8906
H14 H 0.4742 0.7464 0.8806
C15 C 0.2035(2) 0.91544(10) 0.9103(3)
C16 C 0.0966(2) 0.92761(9) 0.9696(3)
H15 H 0.1145 0.9538 1.0533
C17 C -0.0368(2) 0.90112(9) 0.9053(3)
C18 C -0.0662(2) 0.86504(11) 0.7724(3)
H16 H -0.1572 0.8492 0.7234
C19 C 0.0396(3) 0.85268(12) 0.7127(3)
H17 H 0.0200 0.8279 0.6252
C20 C 0.1749(2) 0.87710(11) 0.7830(3)
H18 H 0.2465 0.8677 0.7446
C21 C 0.3482(2) 0.94365(10) 0.9841(3)
C22 C -0.1468(2) 0.91118(10) 0.9792(3)
N1 N 0.3051(2) 1.02421(8) 0.6945(2)
N2 N 0.3213(2) 0.96781(8) 0.5037(2)
N3 N 0.6900(2) 0.64438(8) 0.7061(2)
N4 N 0.6225(2) 0.72228(8) 0.7921(2)
Ni1 Ni 0.33014(3) 1.066697(12) 0.90706(3)
O1 O 0.35274(16) 0.99211(7) 1.04091(18)
O2 O 0.45535(16) 0.91528(7) 0.98759(19)
O3 O -0.10838(16) 0.93287(7) 1.12054(18)
O4 O -0.27610(15) 0.89697(7) 0.90011(19)
N3A N 0.3100(2) 1.14438(8) 0.7939(2)
Ni1A Ni 0.66986(3) 0.566697(12) 0.59294(3)
Ni1B Ni -0.33014(3) 0.933303(12) 1.09294(3)
Ni1B_2 Ni 0.66986(3) 0.933303(12) 1.09294(3)
O2B O 0.54465(16) 1.08472(7) 1.01241(19)
O3B O 0.10838(16) 1.06713(7) 0.87946(18)
O4B O 0.27610(15) 1.10303(7) 1.09989(19)
loop_
_geom_bond_atom_site_label_1
_geom_bond_atom_site_label_2
_geom_bond_site_symmetry_1
_geom_bond_site_symmetry_2
C1 C2 1_555 1_555
C2 H1 1_555 1_555
C3 C2 1_555 1_555
C4 C3 1_555 1_555
H2 C4 1_555 1_555
C5 C4 1_555 1_555
H3 C5 1_555 1_555
C6 C1 1_555 1_555
H4 C6 1_555 1_555
C7 H5 1_555 1_555
C8 H6 1_555 1_555
C9 C8 1_555 1_555
H7 C9 1_555 1_555
C10 C1 1_555 1_555
H8 C10 1_555 1_555
H9 C10 1_555 1_555
C11 H10 1_555 1_555
C12 H11 1_555 1_555
C13 C12 1_555 1_555
H12 C13 1_555 1_555
C14 C3 1_555 1_555
H13 C14 1_555 1_555
H14 C14 1_555 1_555
C15 C16 1_555 1_555
C16 H15 1_555 1_555
C17 C16 1_555 1_555
C18 C17 1_555 1_555
H16 C18 1_555 1_555
C19 C18 1_555 1_555
H17 C19 1_555 1_555
C20 C15 1_555 1_555
H18 C20 1_555 1_555
C21 C15 1_555 1_555
C22 C17 1_555 1_555
N1 C7 1_555 1_555
N2 C7 1_555 1_555
N3 C11 1_555 1_555
N4 C11 1_555 1_555
Ni1 N1 1_555 1_555
O1 C21 1_555 1_555
O2 C21 1_555 1_555
O3 C22 1_555 1_555
O4 C22 1_555 1_555
N3A Ni1 1_555 1_555
Ni1A N3 1_555 1_555
Ni1B O3 1_555 1_555
Ni1B_2 O2 1_555 1_555
O2B Ni1 1_555 1_555
O3B Ni1 1_555 1_555
O4B Ni1 1_555 1_555
C5 C6 1_555 1_555
C8 N1 1_555 1_555
C9 N2 1_555 1_555
C10 N2 1_555 1_555
C12 N3 1_555 1_555
C13 N4 1_555 1_555
C14 N4 1_555 1_555
C19 C20 1_555 1_555
Ni1 O1 1_555 1_555
O4 Ni1B 1_555 1_555

#END
