
#######################################################################
#
#                 Cambridge Crystallographic Data Centre
#                                CCDC 
#
#######################################################################
#
# If this CIF has been generated from an entry in the Cambridge 
# Structural Database, then it will include bibliographic, chemical, 
# crystal, experimental, refinement or atomic coordinate data resulting 
# from the CCDC's data processing and validation procedures.
#
#######################################################################

data_KOWTOH
_symmetry_cell_setting           monoclinic
_symmetry_space_group_name_H-M   'P 21/c'
_symmetry_Int_Tables_number      14
_space_group_name_Hall           '-P 2ybc'
loop_
_symmetry_equiv_pos_site_id
_symmetry_equiv_pos_as_xyz
1 x,y,z
2 -x,1/2+y,1/2-z
3 -x,-y,-z
4 x,1/2-y,1/2+z
_cell_length_a                   7.157(3)
_cell_length_b                   14.641(6)
_cell_length_c                   12.026(4)
_cell_angle_alpha                90
_cell_angle_beta                 112.03(2)
_cell_angle_gamma                90
_cell_volume                     1168.15
loop_
_atom_site_label
_atom_site_type_symbol
_atom_site_fract_x
_atom_site_fract_y
_atom_site_fract_z
Ni1 Ni 0.0000 0.5000 0.5000
C1 C 0.3382(8) 0.5252(3) 0.7381(4)
C2 C 0.4209(7) 0.5120(3) 0.8734(4)
C3 C 0.6063(8) 0.4721(4) 0.9346(4)
C4 C 0.6822(8) 0.4607(4) 1.0568(4)
C5 C 0.1444(8) 0.3528(3) 0.3898(4)
H1 H 0.1688 0.4005 0.3460
C6 C 0.1428(11) 0.1923(4) 0.4294(6)
H2 H 0.2683 0.1700 0.4864
H3 H 0.0762 0.1444 0.3744
H4 H 0.0586 0.2122 0.4708
C7 C 0.2859(10) 0.2499(4) 0.2801(6)
H5 H 0.3224 0.3070 0.2544
H6 H 0.1976 0.2169 0.2115
H7 H 0.4052 0.2145 0.3201
C8 C 0.2401(16) 0.6149(7) 0.3804(6)
H8 H 0.2683 0.5787 0.3210
H9 H 0.1007 0.6342 0.3426
C9 C 0.3416(18) 0.6861(7) 0.3916(8)
H10 H 0.2788 0.7350 0.4180
H11 H 0.3487 0.7018 0.3158
H12 H 0.4751 0.6763 0.4497
F1 F 0.7183(6) 0.4408(3) 0.8734(3)
F2 F 0.8632(5) 0.4190(3) 1.1092(3)
N1 N 0.1808(7) 0.2677(3) 0.3644(4)
O1 O 0.1776(5) 0.4869(2) 0.6806(2)
O2 O 0.4433(7) 0.5723(3) 0.6985(3)
O3 O 0.0804(6) 0.3709(2) 0.4683(3)
O4 O 0.2425(5) 0.5530(3) 0.4692(3)
C1B C 0.6618(8) 0.4748(3) 1.2619(4)
C2B C 0.5791(7) 0.4880(3) 1.1266(4)
C3B C 0.3937(8) 0.5279(4) 1.0654(4)
C4B C 0.3178(8) 0.5393(4) 0.9432(4)
F1B F 0.2817(6) 0.5592(3) 1.1266(3)
F2B F 0.1368(5) 0.5810(3) 0.8908(3)
O1B O 0.8224(5) 0.5131(2) 1.3194(2)
O2B O 0.5567(7) 0.4277(3) 1.3015(3)
C5B C -0.1444(8) 0.6472(3) 0.6102(4)
H1B H -0.1688 0.5995 0.6540
C6B C -0.1428(11) 0.8077(4) 0.5706(6)
H2B H -0.2683 0.8300 0.5136
H3B H -0.0762 0.8556 0.6256
H4B H -0.0586 0.7878 0.5292
C7B C -0.2859(10) 0.7501(4) 0.7199(6)
H5B H -0.3224 0.6930 0.7456
H6B H -0.1976 0.7831 0.7885
H7B H -0.4052 0.7855 0.6799
C8B C -0.2401(16) 0.3851(7) 0.6196(6)
H8B H -0.2683 0.4213 0.6790
H9B H -0.1007 0.3658 0.6574
C9B C -0.3416(18) 0.3139(7) 0.6084(8)
H10B H -0.2788 0.2650 0.5820
H11B H -0.3487 0.2982 0.6842
H12B H -0.4751 0.3237 0.5503
N1B N -0.1808(7) 0.7323(3) 0.6356(4)
O3B O -0.0804(6) 0.6291(2) 0.5317(3)
O4B O -0.2425(5) 0.4470(3) 0.5308(3)
Ni1_2 Ni 1.0000 0.5000 1.5000
O1B_2 O -0.1776(5) 0.5131(2) 0.3194(2)
loop_
_geom_bond_atom_site_label_1
_geom_bond_atom_site_label_2
_geom_bond_site_symmetry_1
_geom_bond_site_symmetry_2
Ni1 O1 1_555 1_555
C1 C2 1_555 1_555
C2 C3 1_555 1_555
C3 C4 1_555 1_555
C4 F2 1_555 1_555
C5 H1 1_555 1_555
C6 H2 1_555 1_555
H3 C6 1_555 1_555
H4 C6 1_555 1_555
C7 H5 1_555 1_555
H6 C7 1_555 1_555
H7 C7 1_555 1_555
C8 H8 1_555 1_555
H9 C8 1_555 1_555
C9 C8 1_555 1_555
H10 C9 1_555 1_555
H11 C9 1_555 1_555
H12 C9 1_555 1_555
F1 C3 1_555 1_555
N1 C5 1_555 1_555
O1 C1 1_555 1_555
O2 C1 1_555 1_555
O3 Ni1 1_555 1_555
O4 Ni1 1_555 1_555
C1B C2B 1_555 1_555
C2B C4 1_555 1_555
C3B C2B 1_555 1_555
C4B C2 1_555 1_555
F1B C3B 1_555 1_555
F2B C4B 1_555 1_555
O1B C1B 1_555 1_555
O2B C1B 1_555 1_555
C5B H1B 1_555 1_555
C6B H2B 1_555 1_555
H3B C6B 1_555 1_555
H4B C6B 1_555 1_555
C7B H5B 1_555 1_555
H6B C7B 1_555 1_555
H7B C7B 1_555 1_555
C8B H8B 1_555 1_555
H9B C8B 1_555 1_555
C9B C8B 1_555 1_555
H10B C9B 1_555 1_555
H11B C9B 1_555 1_555
H12B C9B 1_555 1_555
N1B C5B 1_555 1_555
O3B Ni1 1_555 1_555
O4B Ni1 1_555 1_555
Ni1_2 O1B 1_555 1_555
O1B_2 Ni1 1_555 1_555
C5 O3 1_555 1_555
C6 N1 1_555 1_555
C7 N1 1_555 1_555
C8 O4 1_555 1_555
C3B C4B 1_555 1_555
C5B O3B 1_555 1_555
C6B N1B 1_555 1_555
C7B N1B 1_555 1_555
C8B O4B 1_555 1_555

#END
