
#######################################################################
#
#                 Cambridge Crystallographic Data Centre
#                                CCDC 
#
#######################################################################
#
# If this CIF has been generated from an entry in the Cambridge 
# Structural Database, then it will include bibliographic, chemical, 
# crystal, experimental, refinement or atomic coordinate data resulting 
# from the CCDC's data processing and validation procedures.
#
#######################################################################

data_KOWTUN
_symmetry_cell_setting           triclinic
_symmetry_space_group_name_H-M   'P -1'
_symmetry_Int_Tables_number      2
_space_group_name_Hall           '-P 1'
loop_
_symmetry_equiv_pos_site_id
_symmetry_equiv_pos_as_xyz
1 x,y,z
2 -x,-y,-z
_cell_length_a                   8.321(3)
_cell_length_b                   10.113(4)
_cell_length_c                   11.021(4)
_cell_angle_alpha                65.473(7)
_cell_angle_beta                 89.196(7)
_cell_angle_gamma                77.318(7)
_cell_volume                     820.039
loop_
_atom_site_label
_atom_site_type_symbol
_atom_site_fract_x
_atom_site_fract_y
_atom_site_fract_z
O1 O 0.7113(16) 0.2703(16) 0.5156(18)
Cd1 Cd 0.21206(12) 0.52805(11) 0.49380(11)
C1 C 0.1009(16) 0.2850(14) 0.4201(14)
C2 C 0.0485(17) 0.1358(14) 0.4643(15)
C3 C 0.0627(17) 0.0344(15) 0.5930(14)
C4 C 0.0156(18) -0.1008(15) 0.6307(14)
C5 C 0.5666(16) 0.2617(16) 0.5242(16)
C6 C 0.5365(15) 0.1232(14) 0.5094(14)
C7 C 0.5038(19) 0.0060(15) 0.6219(15)
C8 C 0.5295(18) 0.1171(15) 0.3904(16)
C9 C 0.212(2) 0.311(2) 0.7907(19)
H1 H 0.2180 0.2463 0.7500
C10 C 0.195(5) 0.348(4) 0.992(3)
H2 H 0.2713 0.4117 0.9607
H3 H 0.2230 0.2847 1.0860
H4 H 0.0849 0.4086 0.9793
C11 C 0.202(5) 0.102(3) 0.998(3)
H5 H 0.1324 0.0715 0.9501
H6 H 0.1588 0.0912 1.0817
H7 H 0.3119 0.0403 1.0135
C12 C 0.341(4) 0.645(3) 0.187(3)
H8 H 0.3548 0.7354 0.1929
H9 H 0.4429 0.5693 0.2269
C13 C 0.321(6) 0.674(6) 0.056(4)
H10 H 0.3440 0.5808 0.0474
H11 H 0.3964 0.7323 0.0071
H12 H 0.2098 0.7275 0.0213
F1 F 0.1233(14) 0.0579(11) 0.6944(9)
F2 F 0.0412(16) -0.1974(12) 0.7615(10)
F3 F 0.5027(15) 0.0091(12) 0.7422(10)
F4 F 0.5623(15) 0.2266(11) 0.2796(10)
N1 N 0.205(2) 0.257(2) 0.9185(16)
O2 O 0.0653(11) 0.3528(11) 0.4953(10)
O3 O 0.1763(15) 0.3234(12) 0.3206(11)
O4 O 0.4462(16) 0.3475(13) 0.5413(14)
O5 O 0.2116(18) 0.4421(16) 0.7181(12)
O6 O 0.2055(17) 0.5946(14) 0.2687(12)
O1A O 0.2887(16) -0.2703(16) 0.4844(18)
C5A C 0.4334(16) -0.2617(16) 0.4758(16)
C6A C 0.4635(15) -0.1232(14) 0.4906(14)
C7A C 0.4962(19) -0.0060(15) 0.3781(15)
C8A C 0.4705(18) -0.1171(15) 0.6096(16)
F3A F 0.4973(15) -0.0091(12) 0.2578(10)
F4A F 0.4377(15) -0.2266(11) 0.7204(10)
O4A O 0.5538(16) -0.3475(13) 0.4587(14)
C1A C -0.1009(16) -0.2850(14) 0.5799(14)
C2A C -0.0485(17) -0.1358(14) 0.5357(15)
C3A C -0.0627(17) -0.0344(15) 0.4070(14)
C4A C -0.0156(18) 0.1008(15) 0.3693(14)
F1A F -0.1233(14) -0.0579(11) 0.3056(9)
F2A F -0.0412(16) 0.1974(12) 0.2385(10)
O2A O -0.0653(11) -0.3528(11) 0.5047(10)
O3A O -0.1763(15) -0.3234(12) 0.6794(11)
Cd1A Cd -0.21206(12) -0.52805(11) 0.50620(11)
C9A C -0.212(2) -0.311(2) 0.2093(19)
H1A H -0.2180 -0.2463 0.2500
C10A C -0.195(5) -0.348(4) 0.008(3)
H2A H -0.2713 -0.4117 0.0393
H3A H -0.2230 -0.2847 -0.0860
H4A H -0.0849 -0.4086 0.0207
C11A C -0.202(5) -0.102(3) 0.002(3)
H5A H -0.1324 -0.0715 0.0499
H6A H -0.1588 -0.0912 -0.0817
H7A H -0.3119 -0.0403 -0.0135
C12A C -0.341(4) -0.645(3) 0.813(3)
H8A H -0.3548 -0.7354 0.8071
H9A H -0.4429 -0.5693 0.7731
C13A C -0.321(6) -0.674(6) 0.944(4)
H10A H -0.3440 -0.5808 0.9526
H11A H -0.3964 -0.7323 0.9929
H12A H -0.2098 -0.7275 0.9787
N1A N -0.205(2) -0.257(2) 0.0815(16)
O5A O -0.2116(18) -0.4421(16) 0.2819(12)
O6A O -0.2055(17) -0.5946(14) 0.7313(12)
O1_2 O -0.2887(16) -0.7297(16) 0.5156(18)
O1A_2 O 0.2887(16) 0.7297(16) 0.4844(18)
Cd1_2 Cd 0.21206(12) -0.47195(11) 0.49380(11)
Cd1A_2 Cd -0.21206(12) 0.47195(11) 0.50620(11)
Cd1A_3 Cd 0.78794(12) -0.52805(11) 0.50620(11)
Cd1A_4 Cd 0.78794(12) 0.47195(11) 0.50620(11)
O2_2 O 0.0653(11) -0.6472(11) 0.4953(10)
O2A_2 O -0.0653(11) 0.6472(11) 0.5047(10)
O4A_2 O -0.4462(16) -0.3475(13) 0.4587(14)
loop_
_geom_bond_atom_site_label_1
_geom_bond_atom_site_label_2
_geom_bond_site_symmetry_1
_geom_bond_site_symmetry_2
O1 C5 1_555 1_555
Cd1 O2 1_555 1_555
C1 C2 1_555 1_555
C2 C3 1_555 1_555
C3 C4 1_555 1_555
C4 F2 1_555 1_555
C5 C6 1_555 1_555
C6 C7 1_555 1_555
C7 F3 1_555 1_555
C8 C6 1_555 1_555
C9 H1 1_555 1_555
C10 H2 1_555 1_555
H3 C10 1_555 1_555
H4 C10 1_555 1_555
C11 H5 1_555 1_555
H6 C11 1_555 1_555
H7 C11 1_555 1_555
C12 H8 1_555 1_555
H9 C12 1_555 1_555
C13 C12 1_555 1_555
H10 C13 1_555 1_555
H11 C13 1_555 1_555
H12 C13 1_555 1_555
F1 C3 1_555 1_555
F4 C8 1_555 1_555
N1 C9 1_555 1_555
O2 C1 1_555 1_555
O3 C1 1_555 1_555
O4 Cd1 1_555 1_555
O5 Cd1 1_555 1_555
O6 Cd1 1_555 1_555
O1A C5A 1_555 1_555
C5A C6A 1_555 1_555
C6A C7A 1_555 1_555
C7A C8 1_555 1_555
C8A C7 1_555 1_555
F3A C7A 1_555 1_555
F4A C8A 1_555 1_555
O4A C5A 1_555 1_555
C1A C2A 1_555 1_555
C2A C4 1_555 1_555
C3A C2A 1_555 1_555
C4A C2 1_555 1_555
F1A C3A 1_555 1_555
F2A C4A 1_555 1_555
O2A C1A 1_555 1_555
O3A C1A 1_555 1_555
Cd1A O2A 1_555 1_555
C9A H1A 1_555 1_555
C10A H2A 1_555 1_555
H3A C10A 1_555 1_555
H4A C10A 1_555 1_555
C11A H5A 1_555 1_555
H6A C11A 1_555 1_555
H7A C11A 1_555 1_555
C12A H8A 1_555 1_555
H9A C12A 1_555 1_555
C13A C12A 1_555 1_555
H10A C13A 1_555 1_555
H11A C13A 1_555 1_555
H12A C13A 1_555 1_555
N1A C9A 1_555 1_555
O5A Cd1A 1_555 1_555
O6A Cd1A 1_555 1_555
O1_2 Cd1A 1_555 1_555
O1A_2 Cd1 1_555 1_555
Cd1_2 O1A 1_555 1_555
Cd1A_2 O2 1_555 1_555
Cd1A_3 O4A 1_555 1_555
Cd1A_4 O1 1_555 1_555
O2_2 Cd1A 1_555 1_555
O2A_2 Cd1 1_555 1_555
O4A_2 Cd1A 1_555 1_555
C5 O4 1_555 1_555
C9 O5 1_555 1_555
C10 N1 1_555 1_555
C11 N1 1_555 1_555
C12 O6 1_555 1_555
C6A C8A 1_555 1_555
C3A C4A 1_555 1_555
O2A Cd1_2 1_555 1_555
C9A O5A 1_555 1_555
C10A N1A 1_555 1_555
C11A N1A 1_555 1_555
C12A O6A 1_555 1_555
Cd1_2 O2_2 1_555 1_555
Cd1A_2 O2A_2 1_555 1_555

#END
