
#######################################################################
#
#                 Cambridge Crystallographic Data Centre
#                                CCDC 
#
#######################################################################
#
# If this CIF has been generated from an entry in the Cambridge 
# Structural Database, then it will include bibliographic, chemical, 
# crystal, experimental, refinement or atomic coordinate data resulting 
# from the CCDC's data processing and validation procedures.
#
#######################################################################

data_KOWYAY
_symmetry_cell_setting           monoclinic
_symmetry_space_group_name_H-M   'C 2/c'
_symmetry_Int_Tables_number      15
_space_group_name_Hall           '-C 2yn'
loop_
_symmetry_equiv_pos_site_id
_symmetry_equiv_pos_as_xyz
1 x,y,z
2 -x,y,1/2-z
3 1/2+x,1/2+y,z
4 1/2-x,1/2+y,1/2-z
5 -x,-y,-z
6 x,-y,1/2+z
7 1/2-x,1/2-y,-z
8 1/2+x,1/2-y,1/2+z
_cell_length_a                   31.779(4)
_cell_length_b                   10.674(2)
_cell_length_c                   14.856(2)
_cell_angle_alpha                90
_cell_angle_beta                 115.473(3)
_cell_angle_gamma                90
_cell_volume                     4549.41
loop_
_atom_site_label
_atom_site_type_symbol
_atom_site_fract_x
_atom_site_fract_y
_atom_site_fract_z
Co1 Co 0.830160(16) 0.88205(4) 0.12456(4)
C1 C 0.85231(13) 0.8677(3) 0.3543(3)
C2 C 0.84089(13) 0.7318(3) 0.3649(3)
C3 C 0.86911(13) 0.6363(3) 0.3605(3)
H1 H 0.8958 0.6551 0.3520
C4 C 0.85790(12) 0.5111(3) 0.3685(3)
C5 C 0.81615(13) 0.4839(3) 0.3742(3)
H2 H 0.8078 0.4010 0.3773
C6 C 0.78697(13) 0.5804(3) 0.3753(3)
C7 C 0.80008(13) 0.7047(3) 0.3735(3)
H3 H 0.7815 0.7694 0.3780
C8 C 0.74055(14) 0.5547(3) 0.3755(3)
C9 C 0.92974(14) 0.4122(4) 0.3764(3)
C10 C 0.95267(14) 0.2884(4) 0.3788(3)
C11 C 1.00108(14) 0.2822(4) 0.4326(4)
H4 H 1.0181 0.3518 0.4668
C12 C 1.02297(16) 0.1706(5) 0.4335(4)
H5 H 1.0552 0.1675 0.4701
C13 C 0.95601(17) 0.0749(4) 0.3375(4)
H6 H 0.9400 0.0035 0.3046
C14 C 0.93025(15) 0.1815(4) 0.3316(3)
H7 H 0.8980 0.1805 0.2959
C15 C 0.92278(15) 0.8493(4) 0.1146(3)
H8 H 0.9248 0.9360 0.1122
C16 C 0.95982(15) 0.7772(4) 0.1182(3)
H9 H 0.9859 0.8159 0.1174
C17 C 0.95802(15) 0.6492(4) 0.1228(3)
H10 H 0.9829 0.6005 0.1261
C18 C 0.91811(15) 0.5930(4) 0.1225(3)
C19 C 0.91163(15) 0.4603(4) 0.1254(3)
H11 H 0.9351 0.4064 0.1278
C20 C 0.87216(16) 0.4118(4) 0.1247(3)
H12 H 0.8691 0.3254 0.1272
C21 C 0.83509(14) 0.4906(4) 0.1203(3)
C22 C 0.79383(15) 0.4483(4) 0.1218(3)
H13 H 0.7882 0.3629 0.1222
C23 C 0.76166(14) 0.5327(4) 0.1226(3)
H14 H 0.7345 0.5050 0.1253
C24 C 0.76983(14) 0.6613(4) 0.1194(3)
H15 H 0.7476 0.7177 0.1196
C25 C 0.84068(13) 0.6209(3) 0.1178(3)
C26 C 0.88218(13) 0.6717(4) 0.1173(3)
N1 N 0.88585(11) 0.4074(3) 0.3687(3)
H16 H 0.8737(14) 0.334(4) 0.363(3)
N2 N 1.00176(14) 0.0674(4) 0.3864(3)
N3 N 0.80820(11) 0.7056(3) 0.1161(2)
N4 N 0.88463(11) 0.7987(3) 0.1147(2)
O1 O 0.86554(10) 0.8945(2) 0.2896(2)
O2 O 0.84767(10) 0.9446(2) 0.4135(2)
O3 O 0.71440(10) 0.6459(3) 0.3667(2)
O4 O 0.72967(9) 0.4416(2) 0.3818(2)
O5 O 0.95138(10) 0.5091(3) 0.3835(3)
O6 O 0.84938(10) 1.0463(3) 0.0944(2)
H17 H 0.8297(15) 1.102(4) 0.092(3)
H18 H 0.8499(15) 1.043(4) 0.038(3)
Co1C Co 0.669840(16) 0.38205(4) 0.37544(4)
O4C O 0.77033(9) 0.9416(2) 0.1182(2)
O7 O 0.17001(12) 0.1880(3) 0.1492(3)
H19 H 0.1635(17) 0.115(4) 0.125(4)
H20 H 0.1830(18) 0.182(5) 0.212(4)
loop_
_geom_bond_atom_site_label_1
_geom_bond_atom_site_label_2
_geom_bond_site_symmetry_1
_geom_bond_site_symmetry_2
Co1 N3 1_555 1_555
C1 C2 1_555 1_555
C2 C3 1_555 1_555
C3 H1 1_555 1_555
C4 C3 1_555 1_555
C5 C4 1_555 1_555
H2 C5 1_555 1_555
C6 C5 1_555 1_555
C7 C2 1_555 1_555
H3 C7 1_555 1_555
C8 C6 1_555 1_555
C9 C10 1_555 1_555
C10 C11 1_555 1_555
C11 H4 1_555 1_555
C12 C11 1_555 1_555
H5 C12 1_555 1_555
C13 H6 1_555 1_555
C14 C10 1_555 1_555
H7 C14 1_555 1_555
C15 H8 1_555 1_555
C16 C15 1_555 1_555
H9 C16 1_555 1_555
C17 C16 1_555 1_555
H10 C17 1_555 1_555
C18 C17 1_555 1_555
C19 C18 1_555 1_555
H11 C19 1_555 1_555
C20 C19 1_555 1_555
H12 C20 1_555 1_555
C21 C20 1_555 1_555
C22 C21 1_555 1_555
H13 C22 1_555 1_555
C23 C22 1_555 1_555
H14 C23 1_555 1_555
C24 C23 1_555 1_555
H15 C24 1_555 1_555
C25 C21 1_555 1_555
C26 C18 1_555 1_555
N1 C4 1_555 1_555
H16 N1 1_555 1_555
N2 C12 1_555 1_555
N3 C24 1_555 1_555
N4 Co1 1_555 1_555
O1 Co1 1_555 1_555
O2 C1 1_555 1_555
O3 C8 1_555 1_555
O4 C8 1_555 1_555
O5 C9 1_555 1_555
O6 Co1 1_555 1_555
H17 O6 1_555 1_555
H18 O6 1_555 1_555
O7 H19 1_555 1_555
H20 O7 1_555 1_555
Co1C O4 1_555 1_555
O4C Co1 1_555 1_555
C1 O1 1_555 1_555
C6 C7 1_555 1_555
C9 N1 1_555 1_555
C13 C14 1_555 1_555
C13 N2 1_555 1_555
C15 N4 1_555 1_555
C25 C26 1_555 1_555
C25 N3 1_555 1_555
C26 N4 1_555 1_555

#END
