
#######################################################################
#
#                 Cambridge Crystallographic Data Centre
#                                CCDC 
#
#######################################################################
#
# If this CIF has been generated from an entry in the Cambridge 
# Structural Database, then it will include bibliographic, chemical, 
# crystal, experimental, refinement or atomic coordinate data resulting 
# from the CCDC's data processing and validation procedures.
#
#######################################################################

data_KOXFOU
_symmetry_cell_setting           monoclinic
_symmetry_space_group_name_H-M   'C 2/c'
_symmetry_Int_Tables_number      15
_space_group_name_Hall           '-C 2yn'
loop_
_symmetry_equiv_pos_site_id
_symmetry_equiv_pos_as_xyz
1 x,y,z
2 -x,y,1/2-z
3 1/2+x,1/2+y,z
4 1/2-x,1/2+y,1/2-z
5 -x,-y,-z
6 x,-y,1/2+z
7 1/2-x,1/2-y,-z
8 1/2+x,1/2-y,1/2+z
_cell_length_a                   18.259(2)
_cell_length_b                   16.7070(10)
_cell_length_c                   27.6920(10)
_cell_angle_alpha                90
_cell_angle_beta                 91.634(8)
_cell_angle_gamma                90
_cell_volume                     8444.1
loop_
_atom_site_label
_atom_site_type_symbol
_atom_site_fract_x
_atom_site_fract_y
_atom_site_fract_z
Co1 Co 0.55967(2) -0.23726(3) 0.475009(18)
Cl1 Cl 0.64931(5) -0.34467(6) 0.48121(4)
Cl2 Cl 0.46628(5) -0.12957(6) 0.46786(4)
O1 O 0.22579(13) -0.58415(15) 0.70096(10)
O2 O 0.41471(12) -0.38729(15) 0.69582(10)
O3 O 0.41448(12) -0.58722(14) 0.75005(9)
O4 O 0.23557(14) -0.38038(16) 0.75381(10)
N1 N 0.11202(15) -0.66762(17) 0.53246(12)
N2 N 0.49565(15) -0.30062(18) 0.52721(11)
N3 N 0.49912(15) -0.69855(18) 0.91925(11)
N4 N 0.12844(15) -0.31931(18) 0.92273(12)
C1 C 0.31910(17) -0.4850(2) 0.69836(13)
C2 C 0.26803(18) -0.5339(2) 0.67391(14)
C3 C 0.26101(17) -0.5341(2) 0.62379(14)
C4 C 0.30846(18) -0.4855(2) 0.59807(14)
H1 H 0.3051 -0.4858 0.5645
C5 C 0.36055(18) -0.4367(2) 0.62097(14)
C6 C 0.36527(17) -0.4366(2) 0.67124(14)
C7 C 0.20534(18) -0.5809(2) 0.59560(14)
C8 C 0.19361(19) -0.6621(2) 0.60211(14)
H2 H 0.2163 -0.6890 0.6278
C9 C 0.14772(18) -0.7028(2) 0.56992(14)
H3 H 0.1412 -0.7575 0.5745
C10 C 0.1207(2) -0.5889(2) 0.52805(15)
H4 H 0.0946 -0.5628 0.5034
C11 C 0.16620(19) -0.5440(2) 0.55791(15)
H5 H 0.1707 -0.4892 0.5529
C12 C 0.40869(18) -0.3885(2) 0.58982(14)
C13 C 0.44353(19) -0.4249(2) 0.55205(15)
H6 H 0.4379 -0.4795 0.5467
C14 C 0.4865(2) -0.3802(2) 0.52261(15)
H7 H 0.5106 -0.4063 0.4980
C15 C 0.46077(19) -0.2659(2) 0.56327(15)
H8 H 0.4655 -0.2108 0.5670
C16 C 0.41829(19) -0.3063(2) 0.59530(15)
H9 H 0.3962 -0.2791 0.6203
C17 C 0.1521(2) -0.5551(3) 0.70775(18)
H10 H 0.1539 -0.5077 0.7273
H11 H 0.1240 -0.5955 0.7235
H12 H 0.1295 -0.5428 0.6769
C18 C 0.48949(19) -0.4076(3) 0.69130(16)
H13 H 0.4996 -0.4566 0.7084
H14 H 0.5196 -0.3656 0.7047
H15 H 0.5000 -0.4144 0.6578
C19 C 0.32273(17) -0.4859(2) 0.75218(13)
C20 C 0.36800(17) -0.5412(2) 0.77695(14)
C21 C 0.36745(18) -0.5475(2) 0.82687(14)
C22 C 0.31978(18) -0.4988(2) 0.85154(14)
H16 H 0.3181 -0.5038 0.8849
C23 C 0.27431(18) -0.4428(2) 0.82870(14)
C24 C 0.27823(18) -0.4355(2) 0.77893(14)
C25 C 0.41455(19) -0.6030(2) 0.85619(14)
C26 C 0.48957(18) -0.6109(2) 0.85112(14)
H17 H 0.5129 -0.5850 0.8261
C27 C 0.52896(19) -0.6575(2) 0.88361(14)
H18 H 0.5795 -0.6605 0.8805
C28 C 0.42568(19) -0.6940(2) 0.92246(15)
H19 H 0.4032 -0.7242 0.9461
C29 C 0.38259(19) -0.6473(2) 0.89274(15)
H20 H 0.3323 -0.6451 0.8969
C30 C 0.24671(19) -0.3716(2) 0.90499(15)
H21 H 0.2946 -0.3817 0.9157
C31 C 0.22387(18) -0.3952(2) 0.85929(14)
C32 C 0.19880(19) -0.3330(2) 0.93504(15)
H22 H 0.2163 -0.3159 0.9652
C33 C 0.10602(19) -0.3420(2) 0.87772(14)
H23 H 0.0575 -0.3326 0.8682
C34 C 0.15126(19) -0.3781(2) 0.84554(15)
H24 H 0.1337 -0.3911 0.8147
C35 C 0.3921(2) -0.6693(2) 0.74431(16)
H25 H 0.3890 -0.6940 0.7755
H26 H 0.4273 -0.6974 0.7256
H27 H 0.3450 -0.6713 0.7280
C36 C 0.2694(3) -0.3032(3) 0.7518(2)
H28 H 0.2692 -0.2788 0.7832
H29 H 0.2428 -0.2700 0.7291
H30 H 0.3191 -0.3089 0.7417
Co1B Co 0.05967(2) -0.73726(3) 0.475009(18)
Co1E Co 0.55967(2) -0.76274(3) 0.975009(18)
Co1G Co 0.05967(2) -0.26274(3) 0.975009(18)
N1B N 0.61202(15) -0.16762(17) 0.53246(12)
N3E N 0.49912(15) -0.30145(18) 0.41925(11)
N4G N 0.62844(15) -0.18069(18) 0.42273(12)
O5 O -0.0019(8) -0.5583(8) 0.2743(5)
H31 H 0.0084 -0.5381 0.3006
C37 C -0.0168(13) -0.6433(8) 0.2806(8)
H32 H 0.0185 -0.6657 0.3032
H33 H -0.0134 -0.6701 0.2501
H34 H -0.0651 -0.6502 0.2927
O5A O 0.0019(8) -0.5583(8) 0.2257(5)
H31A H -0.0084 -0.5381 0.1994
C37A C 0.0168(13) -0.6433(8) 0.2194(8)
H32A H -0.0185 -0.6657 0.1968
H33A H 0.0134 -0.6701 0.2499
H34A H 0.0651 -0.6502 0.2073
O6 O 0.2026(4) -0.3875(8) 0.4169(5)
N5 N 0.0900(5) -0.4244(4) 0.3781(3)
C38 C 0.1421(5) -0.4173(6) 0.4173(5)
H35 H 0.1279 -0.4381 0.4467
C39 C 0.0234(5) -0.4562(5) 0.3891(5)
H36 H 0.0260 -0.4780 0.4212
H37 H 0.0108 -0.4978 0.3665
H38 H -0.0132 -0.4150 0.3874
C40 C 0.1239(8) -0.3948(6) 0.3381(4)
H39 H 0.1643 -0.3615 0.3482
H40 H 0.0895 -0.3638 0.3191
H41 H 0.1416 -0.4384 0.3191
C41 C 0.2216(8) -0.3475(7) 0.5152(6)
H42 H 0.2101 -0.3917 0.5340
N6 N 0.2426(5) -0.2827(7) 0.5386(4)
O7 O 0.2156(12) -0.3559(10) 0.4712(7)
C42 C 0.2613(10) -0.2113(7) 0.5132(5)
H43 H 0.2186 -0.1907 0.4964
H44 H 0.2797 -0.1720 0.5357
H45 H 0.2983 -0.2233 0.4903
C43 C 0.2465(9) -0.2823(10) 0.5913(4)
H46 H 0.2763 -0.3262 0.6026
H47 H 0.2676 -0.2329 0.6024
H48 H 0.1980 -0.2877 0.6035
O6F O 0.2974(4) -0.1125(8) 0.5831(5)
N5F N 0.4100(5) -0.0756(4) 0.6219(3)
C38F C 0.3579(5) -0.0827(6) 0.5827(5)
H35F H 0.3721 -0.0619 0.5533
C39F C 0.4766(5) -0.0438(5) 0.6109(5)
H36F H 0.4740 -0.0220 0.5788
H37F H 0.4892 -0.0022 0.6335
H38F H 0.5132 -0.0850 0.6126
C40F C 0.3761(8) -0.1052(6) 0.6619(4)
H39F H 0.3357 -0.1385 0.6518
H40F H 0.4105 -0.1362 0.6809
H41F H 0.3584 -0.0616 0.6809
C41F C 0.2784(8) -0.1525(7) 0.4848(6)
H42F H 0.2899 -0.1083 0.4660
N6F N 0.2574(5) -0.2173(7) 0.4614(4)
O7F O 0.2844(12) -0.1441(10) 0.5288(7)
C42F C 0.2387(10) -0.2887(7) 0.4868(5)
H43F H 0.2814 -0.3093 0.5036
H44F H 0.2203 -0.3280 0.4643
H45F H 0.2017 -0.2767 0.5097
C43F C 0.2535(9) -0.2177(10) 0.4087(4)
H46F H 0.2237 -0.1738 0.3974
H47F H 0.2324 -0.2671 0.3976
H48F H 0.3020 -0.2123 0.3965
O8 O 0.3111(8) -0.5160(9) 0.9732(6)
O9 O 0.4108(5) -0.1160(5) 0.3604(3)
H49 H 0.4311 -0.1268 0.3864
C44 C 0.3392(6) -0.1504(6) 0.3586(5)
H50 H 0.3369 -0.1932 0.3816
H51 H 0.3288 -0.1710 0.3268
H52 H 0.3037 -0.1102 0.3661
O10? O 0.0202(18) -0.4711(19) 0.3153(10)
N7? N 0.0987(15) -0.4136(13) 0.3701(10)
C45? C 0.0780(17) -0.4641(17) 0.4102(8)
H53? H 0.0752 -0.4322 0.4390
H54? H 0.1140 -0.5054 0.4151
H55? H 0.0311 -0.4879 0.4031
C46? C 0.154(2) -0.353(2) 0.3781(17)
H56? H 0.2007 -0.3732 0.3676
H57? H 0.1582 -0.3404 0.4119
H58? H 0.1416 -0.3059 0.3601
C47? C 0.0672(18) -0.4229(16) 0.3271(9)
H59? H 0.0828 -0.3886 0.3030
loop_
_geom_bond_atom_site_label_1
_geom_bond_atom_site_label_2
_geom_bond_site_symmetry_1
_geom_bond_site_symmetry_2
Co1 Cl1 1_555 1_555
Cl2 Co1 1_555 1_555
O1 C2 1_555 1_555
O2 C6 1_555 1_555
O3 C20 1_555 1_555
O4 C24 1_555 1_555
N1 C9 1_555 1_555
N2 Co1 1_555 1_555
N3 C27 1_555 1_555
N4 C32 1_555 1_555
C1 C2 1_555 1_555
C2 C3 1_555 1_555
C3 C4 1_555 1_555
C4 H1 1_555 1_555
C5 C4 1_555 1_555
C6 C1 1_555 1_555
C7 C3 1_555 1_555
C8 C7 1_555 1_555
H2 C8 1_555 1_555
C9 C8 1_555 1_555
H3 C9 1_555 1_555
C10 N1 1_555 1_555
H4 C10 1_555 1_555
C11 C7 1_555 1_555
H5 C11 1_555 1_555
C12 C5 1_555 1_555
C13 C12 1_555 1_555
H6 C13 1_555 1_555
C14 N2 1_555 1_555
H7 C14 1_555 1_555
C15 N2 1_555 1_555
H8 C15 1_555 1_555
C16 C12 1_555 1_555
H9 C16 1_555 1_555
C17 O1 1_555 1_555
H10 C17 1_555 1_555
H11 C17 1_555 1_555
H12 C17 1_555 1_555
C18 O2 1_555 1_555
H13 C18 1_555 1_555
H14 C18 1_555 1_555
H15 C18 1_555 1_555
C19 C1 1_555 1_555
C20 C19 1_555 1_555
C21 C20 1_555 1_555
C22 C21 1_555 1_555
H16 C22 1_555 1_555
C23 C22 1_555 1_555
C24 C19 1_555 1_555
C25 C21 1_555 1_555
C26 C25 1_555 1_555
H17 C26 1_555 1_555
C27 C26 1_555 1_555
H18 C27 1_555 1_555
C28 N3 1_555 1_555
H19 C28 1_555 1_555
C29 C25 1_555 1_555
H20 C29 1_555 1_555
C30 H21 1_555 1_555
C31 C23 1_555 1_555
C32 C30 1_555 1_555
H22 C32 1_555 1_555
C33 N4 1_555 1_555
H23 C33 1_555 1_555
C34 C31 1_555 1_555
H24 C34 1_555 1_555
C35 O3 1_555 1_555
H25 C35 1_555 1_555
H26 C35 1_555 1_555
H27 C35 1_555 1_555
C36 O4 1_555 1_555
H28 C36 1_555 1_555
H29 C36 1_555 1_555
H30 C36 1_555 1_555
O5 H31 1_555 1_555
C37 O5 1_555 1_555
H32 C37 1_555 1_555
H33 C37 1_555 1_555
H34 C37 1_555 1_555
O6 C38 1_555 1_555
N5 C38 1_555 1_555
C38 H35 1_555 1_555
C39 N5 1_555 1_555
H36 C39 1_555 1_555
H37 C39 1_555 1_555
H38 C39 1_555 1_555
C40 N5 1_555 1_555
H39 C40 1_555 1_555
H40 C40 1_555 1_555
H41 C40 1_555 1_555
C41 H42 1_555 1_555
N6 C41 1_555 1_555
O7 C41 1_555 1_555
C42 N6 1_555 1_555
H43 C42 1_555 1_555
H44 C42 1_555 1_555
H45 C42 1_555 1_555
C43 N6 1_555 1_555
H46 C43 1_555 1_555
H47 C43 1_555 1_555
H48 C43 1_555 1_555
O9 H49 1_555 1_555
C44 O9 1_555 1_555
H50 C44 1_555 1_555
H51 C44 1_555 1_555
H52 C44 1_555 1_555
Co1B N1 1_555 1_555
Co1E N3 1_555 1_555
Co1G N4 1_555 1_555
N1B Co1 1_555 1_555
N3E Co1 1_555 1_555
N4G Co1 1_555 1_555
O5A H31A 1_555 1_555
C37A O5A 1_555 1_555
H32A C37A 1_555 1_555
H33A C37A 1_555 1_555
H34A C37A 1_555 1_555
O6F C38F 1_555 1_555
N5F C38F 1_555 1_555
C38F H35F 1_555 1_555
C39F N5F 1_555 1_555
H36F C39F 1_555 1_555
H37F C39F 1_555 1_555
H38F C39F 1_555 1_555
C40F N5F 1_555 1_555
H39F C40F 1_555 1_555
H40F C40F 1_555 1_555
H41F C40F 1_555 1_555
C41F H42F 1_555 1_555
N6F C41F 1_555 1_555
O7F C41F 1_555 1_555
C42F N6F 1_555 1_555
H43F C42F 1_555 1_555
H44F C42F 1_555 1_555
H45F C42F 1_555 1_555
C43F N6F 1_555 1_555
H46F C43F 1_555 1_555
H47F C43F 1_555 1_555
H48F C43F 1_555 1_555
C5 C6 1_555 1_555
C10 C11 1_555 1_555
C13 C14 1_555 1_555
C15 C16 1_555 1_555
C23 C24 1_555 1_555
C28 C29 1_555 1_555
C30 C31 1_555 1_555
C33 C34 1_555 1_555

#END
