
#######################################################################
#
#                 Cambridge Crystallographic Data Centre
#                                CCDC 
#
#######################################################################
#
# If this CIF has been generated from an entry in the Cambridge 
# Structural Database, then it will include bibliographic, chemical, 
# crystal, experimental, refinement or atomic coordinate data resulting 
# from the CCDC's data processing and validation procedures.
#
#######################################################################

data_KOXTUO
_symmetry_cell_setting           orthorhombic
_symmetry_space_group_name_H-M   'P b c a'
_symmetry_Int_Tables_number      61
_space_group_name_Hall           '-P 2ac 2ab'
loop_
_symmetry_equiv_pos_site_id
_symmetry_equiv_pos_as_xyz
1 x,y,z
2 1/2-x,-y,1/2+z
3 -x,1/2+y,1/2-z
4 1/2+x,1/2-y,-z
5 -x,-y,-z
6 1/2+x,y,1/2-z
7 x,1/2-y,1/2+z
8 1/2-x,1/2+y,z
_cell_length_a                   15.2202(4)
_cell_length_b                   13.8725(4)
_cell_length_c                   22.3548(7)
_cell_angle_alpha                90
_cell_angle_beta                 90
_cell_angle_gamma                90
_cell_volume                     4720.04
loop_
_atom_site_label
_atom_site_type_symbol
_atom_site_fract_x
_atom_site_fract_y
_atom_site_fract_z
C1 C 0.13946(17) 0.89101(19) 0.38054(12)
H1 H 0.1340 0.9487 0.3563
H2 H 0.1594 0.8392 0.3548
C2 C 0.0497(2) 0.8650(3) 0.40570(15)
H3 H 0.0549 0.8038 0.4263
H4 H 0.0341 0.9131 0.4353
C3 C -0.0244(2) 0.8573(2) 0.36185(15)
C4 C -0.0261(2) 0.9043(3) 0.30759(16)
H5 H 0.0225 0.9398 0.2953
C5 C -0.1001(3) 0.8992(3) 0.27090(19)
H6 H -0.1010 0.9321 0.2347
C6 C -0.1710(3) 0.8460(4) 0.2880(3)
H7 H -0.2203 0.8422 0.2635
C7 C -0.1692(3) 0.7985(4) 0.3413(3)
H8 H -0.2174 0.7619 0.3529
C8 C -0.0974(2) 0.8039(3) 0.37807(19)
H9 H -0.0977 0.7712 0.4144
C9 C 0.32216(16) 0.93805(19) 0.39821(12)
H10 H 0.3428 0.8794 0.3793
H11 H 0.3096 0.9842 0.3668
C10 C 0.39523(19) 0.9780(3) 0.43723(14)
H12 H 0.3776 1.0402 0.4530
H13 H 0.4048 0.9350 0.4708
C11 C 0.47962(19) 0.9892(2) 0.40290(15)
C12 C 0.5512(2) 0.9318(3) 0.41543(16)
H14 H 0.5481 0.8871 0.4463
C13 C 0.6276(2) 0.9403(3) 0.3825(2)
H15 H 0.6755 0.9014 0.3917
C14 C 0.6341(3) 1.0043(4) 0.3369(2)
H16 H 0.6855 1.0085 0.3146
C15 C 0.5642(3) 1.0623(3) 0.3242(2)
H17 H 0.5683 1.1069 0.2932
C16 C 0.4876(2) 1.0555(3) 0.3567(2)
H18 H 0.4406 1.0959 0.3477
C17 C 0.55552(19) 0.6334(2) 0.40429(13)
H19 H 0.5524 0.6066 0.4423
C18 C 0.6210(2) 0.6064(3) 0.36612(15)
H20 H 0.6629 0.5618 0.3785
C19 C 0.6255(2) 0.6441(3) 0.31007(15)
H21 H 0.6699 0.6257 0.2839
C20 C 0.5636(2) 0.7095(3) 0.29312(14)
H22 H 0.5654 0.7361 0.2550
C21 C 0.4985(2) 0.7362(2) 0.33236(14)
H23 H 0.4562 0.7807 0.3207
N1 N 0.49598(14) 0.69839(16) 0.38704(10)
O1 O 0.43576(12) 0.72910(14) 0.42675(9)
P1 P 0.22081(4) 0.91170(4) 0.43803(3)
Se1 Se 0.23503(2) 0.784770(19) 0.494365(12)
Se2 Se 0.17858(2) 1.031153(18) 0.494413(12)
Br1 Br 0.27420(2) 0.65619(2) 0.327294(13)
Zn1 Zn 0.31479(2) 0.67317(2) 0.429283(13)
Se2G Se 0.32142(2) 0.531153(18) 0.494413(12)
Zn1G Zn 0.18521(2) 1.17317(2) 0.429283(13)
loop_
_geom_bond_atom_site_label_1
_geom_bond_atom_site_label_2
_geom_bond_site_symmetry_1
_geom_bond_site_symmetry_2
C1 H1 1_555 1_555
H2 C1 1_555 1_555
C2 C1 1_555 1_555
H3 C2 1_555 1_555
H4 C2 1_555 1_555
C3 C2 1_555 1_555
C4 C3 1_555 1_555
H5 C4 1_555 1_555
C5 C4 1_555 1_555
H6 C5 1_555 1_555
C6 C5 1_555 1_555
H7 C6 1_555 1_555
C7 C6 1_555 1_555
H8 C7 1_555 1_555
C8 C3 1_555 1_555
H9 C8 1_555 1_555
C9 H10 1_555 1_555
H11 C9 1_555 1_555
C10 C9 1_555 1_555
H12 C10 1_555 1_555
H13 C10 1_555 1_555
C11 C10 1_555 1_555
C12 C11 1_555 1_555
H14 C12 1_555 1_555
C13 C12 1_555 1_555
H15 C13 1_555 1_555
C14 C13 1_555 1_555
H16 C14 1_555 1_555
C15 C14 1_555 1_555
H17 C15 1_555 1_555
C16 C11 1_555 1_555
H18 C16 1_555 1_555
C17 H19 1_555 1_555
C18 C17 1_555 1_555
H20 C18 1_555 1_555
C19 C18 1_555 1_555
H21 C19 1_555 1_555
C20 C19 1_555 1_555
H22 C20 1_555 1_555
C21 C20 1_555 1_555
H23 C21 1_555 1_555
N1 C17 1_555 1_555
O1 N1 1_555 1_555
P1 C1 1_555 1_555
Se1 P1 1_555 1_555
Se2 P1 1_555 1_555
Br1 Zn1 1_555 1_555
Zn1 O1 1_555 1_555
Se2G Zn1 1_555 1_555
Zn1G Se2 1_555 1_555
C7 C8 1_555 1_555
C9 P1 1_555 1_555
C15 C16 1_555 1_555
C21 N1 1_555 1_555
Se1 Zn1 1_555 1_555

#END
