
#######################################################################
#
#                 Cambridge Crystallographic Data Centre
#                                CCDC 
#
#######################################################################
#
# If this CIF has been generated from an entry in the Cambridge 
# Structural Database, then it will include bibliographic, chemical, 
# crystal, experimental, refinement or atomic coordinate data resulting 
# from the CCDC's data processing and validation procedures.
#
#######################################################################

data_KOYKUE01
_symmetry_cell_setting           orthorhombic
_symmetry_space_group_name_H-M   'P b c n'
_symmetry_Int_Tables_number      60
_space_group_name_Hall           '-P 2n 2ab'
loop_
_symmetry_equiv_pos_site_id
_symmetry_equiv_pos_as_xyz
1 x,y,z
2 1/2+x,1/2+y,1/2-z
3 x,-y,1/2+z
4 1/2-x,1/2+y,z
5 -x,-y,-z
6 1/2-x,1/2-y,1/2+z
7 -x,y,1/2-z
8 1/2+x,1/2-y,-z
_cell_length_a                   12.4210(10)
_cell_length_b                   14.660(2)
_cell_length_c                   12.285(2)
_cell_angle_alpha                90
_cell_angle_beta                 90
_cell_angle_gamma                90
_cell_volume                     2237
loop_
_atom_site_label
_atom_site_type_symbol
_atom_site_fract_x
_atom_site_fract_y
_atom_site_fract_z
Cu1 Cu 0.0000 0.30841(6) 0.2500
Cl1 Cl 0.29774(14) 0.31302(12) 0.1992(2)
O1 O 0.1875(5) 0.3184(5) 0.1757(6)
O2 O 0.3472(8) 0.2564(6) 0.1292(8)
O3 O 0.3011(6) 0.2795(5) 0.3088(6)
O4 O 0.3388(8) 0.4004(5) 0.1954(7)
N1 N -0.0521(4) 0.4114(3) 0.1572(5)
N2 N -0.0276(4) 0.2095(3) 0.1403(5)
C1 C -0.1121(5) 0.4045(4) 0.0679(6)
H1 H -0.1228(5) 0.3471(4) 0.0375(6)
C2 C -0.1592(5) 0.4794(5) 0.0181(6)
H2 H -0.2005(5) 0.4731(5) -0.0446(6)
C3 C -0.1425(6) 0.5640(5) 0.0653(8)
H3 H -0.1741(6) 0.6156(5) 0.0349(8)
C4 C -0.0795(6) 0.5722(4) 0.1566(7)
H4 H -0.0678(6) 0.6291(4) 0.1881(7)
C5 C -0.0335(5) 0.4945(4) 0.2015(5)
C6 C 0.0367(6) 0.2009(4) 0.0542(6)
H5 H 0.0760(6) 0.2515(4) 0.0318(6)
C7 C 0.0480(6) 0.1210(4) -0.0032(6)
H6 H 0.0938(6) 0.1187(4) -0.0630(6)
C8 C -0.0082(5) 0.0443(4) 0.0276(5)
C9 C -0.0788(5) 0.0545(4) 0.1138(6)
H7 H -0.1203(5) 0.0052(4) 0.1364(6)
C10 C -0.0882(5) 0.1372(4) 0.1666(6)
H8 H -0.1383(5) 0.1429(4) 0.2224(6)
C5F C 0.0335(5) 0.4945(4) 0.2985(5)
N1F N 0.0521(4) 0.4114(3) 0.3428(5)
C1F C 0.1121(5) 0.4045(4) 0.4321(6)
H1F H 0.1228(5) 0.3471(4) 0.4625(6)
C2F C 0.1592(5) 0.4794(5) 0.4819(6)
H2F H 0.2005(5) 0.4731(5) 0.5446(6)
C3F C 0.1425(6) 0.5640(5) 0.4347(8)
H3F H 0.1741(6) 0.6156(5) 0.4651(8)
C4F C 0.0795(6) 0.5722(4) 0.3434(7)
H4F H 0.0678(6) 0.6291(4) 0.3119(7)
C8D C 0.0082(5) -0.0443(4) -0.0276(5)
C7D C -0.0480(6) -0.1210(4) 0.0032(6)
C6D C -0.0367(6) -0.2009(4) -0.0542(6)
N2D N 0.0276(4) -0.2095(3) -0.1403(5)
C10D C 0.0882(5) -0.1372(4) -0.1666(6)
C9D C 0.0788(5) -0.0545(4) -0.1138(6)
H7D H 0.1203(5) -0.0052(4) -0.1364(6)
H8D H 0.1383(5) -0.1429(4) -0.2224(6)
H5D H -0.0760(6) -0.2515(4) -0.0318(6)
H6D H -0.0938(6) -0.1187(4) 0.0630(6)
Cl1F Cl -0.29774(14) 0.31302(12) 0.3008(2)
O1F O -0.1875(5) 0.3184(5) 0.3243(6)
O2F O -0.3472(8) 0.2564(6) 0.3708(8)
O3F O -0.3011(6) 0.2795(5) 0.1912(6)
O4F O -0.3388(8) 0.4004(5) 0.3046(7)
N2F N 0.0276(4) 0.2095(3) 0.3597(5)
Cu1B Cu 0.0000 -0.30841(6) -0.2500
loop_
_geom_bond_atom_site_label_1
_geom_bond_atom_site_label_2
_geom_bond_site_symmetry_1
_geom_bond_site_symmetry_2
Cu1 O1 1_555 1_555
Cl1 O1 1_555 1_555
O2 Cl1 1_555 1_555
O3 Cl1 1_555 1_555
O4 Cl1 1_555 1_555
N1 Cu1 1_555 1_555
N2 Cu1 1_555 1_555
C1 N1 1_555 1_555
H1 C1 1_555 1_555
C2 C1 1_555 1_555
H2 C2 1_555 1_555
C3 C2 1_555 1_555
H3 C3 1_555 1_555
C4 C3 1_555 1_555
H4 C4 1_555 1_555
C5 N1 1_555 1_555
C6 N2 1_555 1_555
H5 C6 1_555 1_555
C7 C6 1_555 1_555
H6 C7 1_555 1_555
C8 C7 1_555 1_555
C9 C8 1_555 1_555
H7 C9 1_555 1_555
C10 N2 1_555 1_555
H8 C10 1_555 1_555
C5F C5 1_555 1_555
N1F Cu1 1_555 1_555
C1F N1F 1_555 1_555
H1F C1F 1_555 1_555
C2F C1F 1_555 1_555
H2F C2F 1_555 1_555
C3F C2F 1_555 1_555
H3F C3F 1_555 1_555
C4F C5F 1_555 1_555
H4F C4F 1_555 1_555
C8D C8 1_555 1_555
C7D C8D 1_555 1_555
C6D C7D 1_555 1_555
N2D C6D 1_555 1_555
C10D N2D 1_555 1_555
C9D C8D 1_555 1_555
H7D C9D 1_555 1_555
H8D C10D 1_555 1_555
H5D C6D 1_555 1_555
H6D C7D 1_555 1_555
Cl1F O1F 1_555 1_555
O1F Cu1 1_555 1_555
O2F Cl1F 1_555 1_555
O3F Cl1F 1_555 1_555
O4F Cl1F 1_555 1_555
N2F Cu1 1_555 1_555
Cu1B N2D 1_555 1_555
C4 C5 1_555 1_555
C9 C10 1_555 1_555
C5F N1F 1_555 1_555
C3F C4F 1_555 1_555
C10D C9D 1_555 1_555

#END
