
#######################################################################
#
#                 Cambridge Crystallographic Data Centre
#                                CCDC 
#
#######################################################################
#
# If this CIF has been generated from an entry in the Cambridge 
# Structural Database, then it will include bibliographic, chemical, 
# crystal, experimental, refinement or atomic coordinate data resulting 
# from the CCDC's data processing and validation procedures.
#
#######################################################################

data_KOYKUE
_symmetry_cell_setting           orthorhombic
_symmetry_space_group_name_H-M   'P b c n'
_symmetry_Int_Tables_number      60
_space_group_name_Hall           '-P 2n 2ab'
loop_
_symmetry_equiv_pos_site_id
_symmetry_equiv_pos_as_xyz
1 x,y,z
2 1/2-x,1/2+y,z
3 x,-y,1/2+z
4 1/2-x,1/2-y,1/2+z
5 -x,-y,-z
6 1/2+x,1/2-y,-z
7 -x,y,1/2-z
8 1/2+x,1/2+y,1/2-z
_cell_length_a                   12.413(3)
_cell_length_b                   14.645(3)
_cell_length_c                   12.287(2)
_cell_angle_alpha                90
_cell_angle_beta                 90
_cell_angle_gamma                90
_cell_volume                     2233.63
loop_
_atom_site_label
_atom_site_type_symbol
_atom_site_fract_x
_atom_site_fract_y
_atom_site_fract_z
Cu1 Cu 0.0000 0.19151(5) 0.2500
Cl1 Cl 0.2977(1) 0.1870(1) 0.1991(1)
O1 O 0.1883(4) 0.1834(5) 0.1749(5)
O2 O 0.3391(7) 0.1000(4) 0.1954(6)
O3 O 0.3466(7) 0.2431(5) 0.1281(7)
O4 O 0.3000(5) 0.2209(4) 0.3094(5)
N1 N 0.0524(3) 0.0892(3) 0.3428(3)
N2 N 0.0279(4) 0.2910(3) 0.3600(3)
C1 C 0.0358(4) 0.0058(3) 0.3018(4)
C2 C 0.0801(5) -0.0729(4) 0.3443(5)
C3 C 0.1428(5) -0.0638(4) 0.4352(6)
C4 C 0.1589(5) 0.0203(4) 0.4815(5)
C5 C 0.1125(5) 0.0962(4) 0.4324(4)
C6 C 0.0890(5) 0.3633(4) 0.3333(5)
C7 C 0.0798(4) 0.4464(3) 0.3865(5)
C8 C 0.0072(5) 0.4556(3) 0.4723(4)
C9 C -0.0496(5) 0.3782(3) 0.5035(5)
C10 C -0.0372(5) 0.2987(3) 0.4449(4)
H1 H 0.0688 -0.1346 0.3240
H2 H 0.1773 -0.1191 0.4696
H3 H 0.2028 0.0262 0.5509
H4 H 0.1259 0.1594 0.4658
H5 H 0.1436 0.3568 0.2708
H6 H 0.1259 0.5002 0.3641
H7 H -0.1000 0.3803 0.5689
H8 H -0.0811 0.2435 0.4681
O1F O -0.1883(4) 0.1834(5) 0.3251(5)
N1F N -0.0524(3) 0.0892(3) 0.1572(3)
N2F N -0.0279(4) 0.2910(3) 0.1400(3)
C1F C -0.0358(4) 0.0058(3) 0.1982(4)
C8D C -0.0072(5) 0.5444(3) 0.5277(4)
Cl1F Cl -0.2977(1) 0.1870(1) 0.3009(1)
C5F C -0.1125(5) 0.0962(4) 0.0676(4)
C2F C -0.0801(5) -0.0729(4) 0.1557(5)
C7D C -0.0798(4) 0.5536(3) 0.6135(5)
C9D C 0.0496(5) 0.6218(3) 0.4965(5)
O2F O -0.3391(7) 0.1000(4) 0.3046(6)
O3F O -0.3466(7) 0.2431(5) 0.3719(7)
O4F O -0.3000(5) 0.2209(4) 0.1906(5)
C4F C -0.1589(5) 0.0203(4) 0.0185(5)
H4F H -0.1259 0.1594 0.0342
C3F C -0.1428(5) -0.0638(4) 0.0648(6)
H1F H -0.0688 -0.1346 0.1760
C6D C -0.0890(5) 0.6367(4) 0.6667(5)
H6D H -0.1259 0.4998 0.6359
C10D C 0.0372(5) 0.7013(3) 0.5551(4)
H7D H 0.1000 0.6197 0.4311
H3F H -0.2028 0.0262 -0.0509
H2F H -0.1773 -0.1191 0.0304
N2D N -0.0279(4) 0.7090(3) 0.6400(3)
H5D H -0.1436 0.6432 0.7292
H8D H 0.0811 0.7565 0.5319
Cu1D Cu 0.0000 0.80849(5) 0.7500
loop_
_geom_bond_atom_site_label_1
_geom_bond_atom_site_label_2
_geom_bond_site_symmetry_1
_geom_bond_site_symmetry_2
Cu1 O1 1_555 1_555
Cl1 O1 1_555 1_555
O2 Cl1 1_555 1_555
O3 Cl1 1_555 1_555
O4 Cl1 1_555 1_555
N1 Cu1 1_555 1_555
N2 Cu1 1_555 1_555
C1 N1 1_555 1_555
C2 C1 1_555 1_555
C3 C2 1_555 1_555
C4 C3 1_555 1_555
C5 N1 1_555 1_555
C6 N2 1_555 1_555
C7 C6 1_555 1_555
C8 C7 1_555 1_555
C9 C8 1_555 1_555
C10 N2 1_555 1_555
H1 C2 1_555 1_555
H2 C3 1_555 1_555
H3 C4 1_555 1_555
H4 C5 1_555 1_555
H5 C6 1_555 1_555
H6 C7 1_555 1_555
H7 C9 1_555 1_555
H8 C10 1_555 1_555
O1F Cu1 1_555 1_555
N1F Cu1 1_555 1_555
N2F Cu1 1_555 1_555
C1F C1 1_555 1_555
C8D C8 1_555 1_555
Cl1F O1F 1_555 1_555
C5F N1F 1_555 1_555
C2F C1F 1_555 1_555
C7D C8D 1_555 1_555
C9D C8D 1_555 1_555
O2F Cl1F 1_555 1_555
O3F Cl1F 1_555 1_555
O4F Cl1F 1_555 1_555
C4F C5F 1_555 1_555
H4F C5F 1_555 1_555
C3F C2F 1_555 1_555
H1F C2F 1_555 1_555
C6D C7D 1_555 1_555
H6D C7D 1_555 1_555
C10D C9D 1_555 1_555
H7D C9D 1_555 1_555
H3F C4F 1_555 1_555
H2F C3F 1_555 1_555
N2D C6D 1_555 1_555
H5D C6D 1_555 1_555
H8D C10D 1_555 1_555
Cu1D N2D 1_555 1_555
C4 C5 1_555 1_555
C9 C10 1_555 1_555
N1F C1F 1_555 1_555
C4F C3F 1_555 1_555
C10D N2D 1_555 1_555

#END
