
#######################################################################
#
#                 Cambridge Crystallographic Data Centre
#                                CCDC 
#
#######################################################################
#
# If this CIF has been generated from an entry in the Cambridge 
# Structural Database, then it will include bibliographic, chemical, 
# crystal, experimental, refinement or atomic coordinate data resulting 
# from the CCDC's data processing and validation procedures.
#
#######################################################################

data_KOYKUE02
_symmetry_cell_setting           orthorhombic
_symmetry_space_group_name_H-M   'P b c n'
_symmetry_Int_Tables_number      60
_space_group_name_Hall           '-P 2n 2ab'
loop_
_symmetry_equiv_pos_site_id
_symmetry_equiv_pos_as_xyz
1 x,y,z
2 1/2+x,1/2+y,1/2-z
3 x,-y,1/2+z
4 1/2-x,1/2+y,z
5 -x,-y,-z
6 1/2-x,1/2-y,1/2+z
7 -x,y,1/2-z
8 1/2+x,1/2-y,-z
_cell_length_a                   12.421(2)
_cell_length_b                   14.673(3)
_cell_length_c                   12.290(2)
_cell_angle_alpha                90
_cell_angle_beta                 90
_cell_angle_gamma                90
_cell_volume                     2239.89
loop_
_atom_site_label
_atom_site_type_symbol
_atom_site_fract_x
_atom_site_fract_y
_atom_site_fract_z
Cu1 Cu 0.0000 0.30839(4) 0.2500
Cl1 Cl -0.29760(10) 0.31266(7) 0.19931(11)
O1 O -0.1877(4) 0.3175(4) 0.1735(4)
O2 O -0.2996(4) 0.2805(4) 0.3117(4)
O3 O -0.3498(5) 0.2555(4) 0.1316(5)
O4 O -0.3405(6) 0.4001(4) 0.1977(5)
N1 N 0.0513(3) 0.4113(2) 0.1569(2)
N2 N 0.0279(3) 0.2097(2) 0.1404(3)
C1 C 0.0339(3) 0.4944(3) 0.2001(3)
C2 C 0.0794(4) 0.5719(3) 0.1562(4)
H1 H 0.0679(4) 0.6285(3) 0.1884(4)
C3 C 0.1417(4) 0.5643(3) 0.0646(4)
H2 H 0.1725(4) 0.6158(3) 0.0334(4)
C4 C 0.1582(3) 0.4786(4) 0.0187(4)
H3 H 0.1997(3) 0.4721(4) -0.0439(4)
C5 C 0.1125(3) 0.4042(3) 0.0672(3)
H4 H 0.1241(3) 0.3469(3) 0.0371(3)
C6 C 0.0876(3) 0.1367(3) 0.1662(3)
H5 H 0.1376(3) 0.1423(3) 0.2221(3)
C7 C 0.0790(3) 0.0536(2) 0.1143(3)
H6 H 0.1206(3) 0.0043(2) 0.1367(3)
C8 C 0.0070(3) 0.0447(3) 0.0279(3)
C9 C -0.0485(4) 0.1215(3) -0.0030(3)
H7 H -0.0938(4) 0.1196(3) -0.0633(3)
C10 C -0.0373(4) 0.2006(2) 0.0545(4)
H8 H -0.0773(4) 0.2510(2) 0.0327(4)
C1F C -0.0339(3) 0.4944(3) 0.2999(3)
N1F N -0.0513(3) 0.4113(2) 0.3431(2)
C5F C -0.1125(3) 0.4042(3) 0.4328(3)
C4F C -0.1582(3) 0.4786(4) 0.4813(4)
C3F C -0.1417(4) 0.5643(3) 0.4354(4)
C2F C -0.0794(4) 0.5719(3) 0.3438(4)
H1F H -0.0679(4) 0.6285(3) 0.3116(4)
H2F H -0.1725(4) 0.6158(3) 0.4666(4)
H3F H -0.1997(3) 0.4721(4) 0.5439(4)
H4F H -0.1241(3) 0.3469(3) 0.4629(3)
C8D C -0.0070(3) -0.0447(3) -0.0279(3)
C7D C -0.0790(3) -0.0536(2) -0.1143(3)
C6D C -0.0876(3) -0.1367(3) -0.1662(3)
N2D N -0.0279(3) -0.2097(2) -0.1404(3)
C10D C 0.0373(4) -0.2006(2) -0.0545(4)
C9D C 0.0485(4) -0.1215(3) 0.0030(3)
H7D H 0.0938(4) -0.1196(3) 0.0633(3)
H8D H 0.0773(4) -0.2510(2) -0.0327(4)
H5D H -0.1376(3) -0.1423(3) -0.2221(3)
H6D H -0.1206(3) -0.0043(2) -0.1367(3)
Cl1F Cl 0.29760(10) 0.31266(7) 0.30069(11)
O1F O 0.1877(4) 0.3175(4) 0.3265(4)
O2F O 0.2996(4) 0.2805(4) 0.1883(4)
O3F O 0.3498(5) 0.2555(4) 0.3684(5)
O4F O 0.3405(6) 0.4001(4) 0.3023(5)
N2F N -0.0279(3) 0.2097(2) 0.3596(3)
Cu1B Cu 0.0000 -0.30839(4) -0.2500
loop_
_geom_bond_atom_site_label_1
_geom_bond_atom_site_label_2
_geom_bond_site_symmetry_1
_geom_bond_site_symmetry_2
Cu1 O1 1_555 1_555
Cl1 O1 1_555 1_555
O2 Cl1 1_555 1_555
O3 Cl1 1_555 1_555
O4 Cl1 1_555 1_555
N1 Cu1 1_555 1_555
N2 Cu1 1_555 1_555
C1 N1 1_555 1_555
C2 C1 1_555 1_555
H1 C2 1_555 1_555
C3 C2 1_555 1_555
H2 C3 1_555 1_555
C4 C3 1_555 1_555
H3 C4 1_555 1_555
C5 N1 1_555 1_555
H4 C5 1_555 1_555
C6 N2 1_555 1_555
H5 C6 1_555 1_555
C7 C6 1_555 1_555
H6 C7 1_555 1_555
C8 C7 1_555 1_555
C9 C8 1_555 1_555
H7 C9 1_555 1_555
C10 N2 1_555 1_555
H8 C10 1_555 1_555
C1F C1 1_555 1_555
N1F Cu1 1_555 1_555
C5F N1F 1_555 1_555
C4F C5F 1_555 1_555
C3F C4F 1_555 1_555
C2F C1F 1_555 1_555
H1F C2F 1_555 1_555
H2F C3F 1_555 1_555
H3F C4F 1_555 1_555
H4F C5F 1_555 1_555
C8D C8 1_555 1_555
C7D C8D 1_555 1_555
C6D C7D 1_555 1_555
N2D C6D 1_555 1_555
C10D N2D 1_555 1_555
C9D C8D 1_555 1_555
H7D C9D 1_555 1_555
H8D C10D 1_555 1_555
H5D C6D 1_555 1_555
H6D C7D 1_555 1_555
Cl1F O1F 1_555 1_555
O1F Cu1 1_555 1_555
O2F Cl1F 1_555 1_555
O3F Cl1F 1_555 1_555
O4F Cl1F 1_555 1_555
N2F Cu1 1_555 1_555
Cu1B N2D 1_555 1_555
C4 C5 1_555 1_555
C9 C10 1_555 1_555
C1F N1F 1_555 1_555
C3F C2F 1_555 1_555
C10D C9D 1_555 1_555

#END
