
#######################################################################
#
#                 Cambridge Crystallographic Data Centre
#                                CCDC 
#
#######################################################################
#
# If this CIF has been generated from an entry in the Cambridge 
# Structural Database, then it will include bibliographic, chemical, 
# crystal, experimental, refinement or atomic coordinate data resulting 
# from the CCDC's data processing and validation procedures.
#
#######################################################################

data_KOYKIS
_symmetry_cell_setting           orthorhombic
_symmetry_space_group_name_H-M   'P 21 21 21'
_symmetry_Int_Tables_number      19
_space_group_name_Hall           'P 2ac 2ab'
loop_
_symmetry_equiv_pos_site_id
_symmetry_equiv_pos_as_xyz
1 x,y,z
2 1/2+x,1/2-y,-z
3 -x,1/2+y,1/2-z
4 1/2-x,-y,1/2+z
_cell_length_a                   21.37(2)
_cell_length_b                   22.04(1)
_cell_length_c                   8.66(1)
_cell_angle_alpha                90
_cell_angle_beta                 90
_cell_angle_gamma                90
_cell_volume                     4078.81
loop_
_atom_site_label
_atom_site_type_symbol
_atom_site_fract_x
_atom_site_fract_y
_atom_site_fract_z
P1 P 0.1340(3) 0.4616(3) 0.5672(7)
O1 O 0.3075(7) 0.379(1) 0.669(2)
O2 O 0.3985(7) 0.4127(8) 0.329(2)
O3 O 0.4110(7) 0.476(1) 0.593(2)
O4 O 0.2082(7) 0.4543(7) 0.556(2)
O5 O 0.2585(8) 0.1272(7) 0.236(2)
O6 O 0.1111(8) 0.4287(8) 0.425(2)
O7 O 0.1156(7) 0.4284(7) 0.714(2)
O8 O 0.1194(7) 0.5299(8) 0.575(2)
N1 N 0.358(1) 0.147(1) 0.312(2)
N2 N 0.461(1) 0.158(1) 0.390(4)
N3 N 0.392(1) 0.234(1) 0.438(2)
N4 N 0.2301(9) 0.259(1) 0.358(2)
N5 N 0.3094(8) 0.3116(9) 0.464(2)
C1 C 0.340(1) 0.361(1) 0.532(3)
C2 C 0.402(1) 0.183(1) 0.385(3)
C3 C 0.344(1) 0.416(1) 0.428(2)
C4 C 0.349(1) 0.469(1) 0.543(3)
C5 C 0.332(1) 0.253(1) 0.422(3)
C6 C 0.311(1) 0.446(1) 0.675(2)
C7 C 0.286(1) 0.223(1) 0.351(2)
C8 C 0.244(1) 0.471(1) 0.693(3)
C9 C 0.294(1) 0.169(1) 0.296(3)
C10 C 0.249(1) 0.309(1) 0.429(3)
Ba1 Ba 0.10833(6) 0.23553(7) 0.2382(2)
Ba2 Ba 0.49024(6) 0.56448(7) 0.7137(2)
P2 P 0.1217(2) 0.0290(3) -0.2328(7)
O9 O 0.2741(7) 0.1297(8) -0.362(2)
O10 O 0.3858(7) 0.0966(7) -0.070(2)
O11 O 0.3946(8) 0.0530(8) -0.357(2)
O12 O 0.1968(6) 0.0370(7) -0.246(2)
O13 O 0.2430(8) 0.3734(9) 0.103(2)
O14 O 0.1058(7) -0.0340(7) -0.289(2)
O15 O 0.0930(6) 0.0774(7) -0.331(2)
O16 O 0.1090(8) 0.0345(8) -0.058(2)
N6 N 0.339(1) 0.357(1) -0.007(2)
N7 N 0.435(1) 0.351(1) -0.127(2)
N8 N 0.367(1) 0.269(1) -0.147(2)
N9 N 0.2103(9) 0.243(1) -0.013(2)
N10 N 0.2842(8) 0.1968(9) -0.154(2)
C11 C 0.317(1) 0.145(1) -0.244(3)
C12 C 0.380(1) 0.322(1) -0.094(3)
C13 C 0.331(1) 0.092(1) -0.155(3)
C14 C 0.334(1) 0.044(1) -0.281(3)
C15 C 0.310(1) 0.247(1) -0.109(2)
C16 C 0.285(1) 0.067(1) -0.395(2)
C17 C 0.263(1) 0.276(1) -0.022(3)
C18 C 0.223(1) 0.032(1) -0.397(3)
C19 C 0.277(1) 0.339(1) 0.033(3)
C20 C 0.225(1) 0.193(1) -0.089(3)
O17 O 0.119(1) 0.360(1) 0.127(3)
O18 O -0.0136(8) 0.3049(8) 0.169(2)
O19 O 0.1413(8) 0.174(1) 0.516(2)
O20 O 0.003(1) 0.198(1) 0.409(2)
O21 O 0.1318(9) 0.1157(8) 0.169(2)
O22 O 0.053(1) 0.240(1) -0.056(2)
O23 O 0.0880(8) 0.3104(9) 0.479(2)
O24 O 0.4872(9) 0.566(1) 0.392(2)
O25 O 0.4940(8) 0.4717(8) 0.934(2)
O26 O 0.5483(8) 0.457(1) 0.605(2)
H1 H 0.4938 0.1795 0.4376
H2 H 0.4679 0.1195 0.3443
H3 H 0.4424 0.3908 -0.0915
H4 H 0.4657 0.3302 -0.1864
H5 H 0.3700 0.1082 0.2719
H6 H 0.3525 0.3952 0.0292
H7 H 0.2207 0.3411 0.4524
H8 H 0.1983 0.1582 -0.0967
H9 H 0.3812 0.3481 0.5593
H10 H 0.3543 0.1598 -0.2882
H11 H 0.3071 0.4198 0.3684
H12 H 0.2969 0.0829 -0.0869
H13 H 0.3322 0.5052 0.5013
H14 H 0.3273 0.0035 -0.2454
H15 H 0.3326 0.4569 0.7669
H16 H 0.3026 0.0637 -0.4955
H17 H 0.2444 0.5137 0.7036
H18 H 0.2245 0.4533 0.7819
H19 H 0.2292 -0.0096 -0.4227
H20 H 0.1949 0.0494 -0.4712
Ba2C Ba 0.00976(6) 0.43552(7) 0.2137(2)
O6C O 0.3889(8) 0.5713(8) 0.925(2)
O10B O 0.6142(7) 0.5966(7) 0.570(2)
O11B O 0.6054(8) 0.5530(8) 0.857(2)
O17C O 0.381(1) 0.640(1) 0.627(3)
O18C O 0.5136(8) 0.6951(8) 0.669(2)
Ba2B Ba 0.50976(6) 0.06448(7) -0.2137(2)
O27 O 0.0048(8) 0.1588(8) -0.290(2)
O28 O 0.131(1) 0.317(1) 0.784(3)
loop_
_geom_bond_atom_site_label_1
_geom_bond_atom_site_label_2
_geom_bond_site_symmetry_1
_geom_bond_site_symmetry_2
P1 O4 1_555 1_555
O1 C1 1_555 1_555
O2 C3 1_555 1_555
O3 C4 1_555 1_555
O4 C8 1_555 1_555
O5 C9 1_555 1_555
O6 P1 1_555 1_555
O7 P1 1_555 1_555
O8 P1 1_555 1_555
N1 C2 1_555 1_555
N2 C2 1_555 1_555
N3 C2 1_555 1_555
N4 C7 1_555 1_555
N5 C1 1_555 1_555
C1 C3 1_555 1_555
C3 C4 1_555 1_555
C4 C6 1_555 1_555
C5 N3 1_555 1_555
C6 O1 1_555 1_555
C7 C5 1_555 1_555
C8 C6 1_555 1_555
C9 N1 1_555 1_555
C10 N4 1_555 1_555
Ba1 N4 1_555 1_555
Ba2 O3 1_555 1_555
P2 O12 1_555 1_555
O9 C11 1_555 1_555
O10 C13 1_555 1_555
O11 C14 1_555 1_555
O12 C18 1_555 1_555
O13 C19 1_555 1_555
O14 P2 1_555 1_555
O15 P2 1_555 1_555
O16 P2 1_555 1_555
N6 C12 1_555 1_555
N7 C12 1_555 1_555
N8 C12 1_555 1_555
N9 Ba1 1_555 1_555
N10 C11 1_555 1_555
C11 C13 1_555 1_555
C13 C14 1_555 1_555
C14 C16 1_555 1_555
C15 N8 1_555 1_555
C16 O9 1_555 1_555
C17 N9 1_555 1_555
C18 C16 1_555 1_555
C19 N6 1_555 1_555
C20 N9 1_555 1_555
O17 Ba1 1_555 1_555
O18 Ba1 1_555 1_555
O19 Ba1 1_555 1_555
O20 Ba1 1_555 1_555
O21 Ba1 1_555 1_555
O22 Ba1 1_555 1_555
O23 Ba1 1_555 1_555
O24 Ba2 1_555 1_555
O25 Ba2 1_555 1_555
O26 Ba2 1_555 1_555
H1 N2 1_555 1_555
H2 N2 1_555 1_555
H3 N7 1_555 1_555
H4 N7 1_555 1_555
H5 N1 1_555 1_555
H6 N6 1_555 1_555
H7 C10 1_555 1_555
H8 C20 1_555 1_555
H9 C1 1_555 1_555
H10 C11 1_555 1_555
H11 C3 1_555 1_555
H12 C13 1_555 1_555
H13 C4 1_555 1_555
H14 C14 1_555 1_555
H15 C6 1_555 1_555
H16 C16 1_555 1_555
H17 C8 1_555 1_555
H18 C8 1_555 1_555
H19 C18 1_555 1_555
H20 C18 1_555 1_555
Ba2C O6 1_555 1_555
O6C Ba2 1_555 1_555
O10B Ba2 1_555 1_555
O11B Ba2 1_555 1_555
O17C Ba2 1_555 1_555
O18C Ba2 1_555 1_555
Ba2B O10 1_555 1_555
N5 C5 1_555 1_555
N5 C10 1_555 1_555
C7 C9 1_555 1_555
O11 Ba2B 1_555 1_555
N10 C15 1_555 1_555
N10 C20 1_555 1_555
C15 C17 1_555 1_555
C17 C19 1_555 1_555
O17 Ba2C 1_555 1_555
O18 Ba2C 1_555 1_555

#END
