
#######################################################################
#
#                 Cambridge Crystallographic Data Centre
#                                CCDC 
#
#######################################################################
#
# If this CIF has been generated from an entry in the Cambridge 
# Structural Database, then it will include bibliographic, chemical, 
# crystal, experimental, refinement or atomic coordinate data resulting 
# from the CCDC's data processing and validation procedures.
#
#######################################################################

data_KOYPAR
_symmetry_cell_setting           monoclinic
_symmetry_space_group_name_H-M   'C 2/c'
_symmetry_Int_Tables_number      15
_space_group_name_Hall           '-C 2yn'
loop_
_symmetry_equiv_pos_site_id
_symmetry_equiv_pos_as_xyz
1 x,y,z
2 -x,y,1/2-z
3 1/2+x,1/2+y,z
4 1/2-x,1/2+y,1/2-z
5 -x,-y,-z
6 x,-y,1/2+z
7 1/2-x,1/2-y,-z
8 1/2+x,1/2-y,1/2+z
_cell_length_a                   10.1535(5)
_cell_length_b                   16.3971(7)
_cell_length_c                   15.7138(7)
_cell_angle_alpha                90
_cell_angle_beta                 106.707(2)
_cell_angle_gamma                90
_cell_volume                     2505.72
loop_
_atom_site_label
_atom_site_type_symbol
_atom_site_fract_x
_atom_site_fract_y
_atom_site_fract_z
C1 C 0.2197(5) 0.1741(3) 0.7954(3)
C2 C 0.3269(6) 0.2397(3) 0.8042(4)
H1 H 0.3186 0.2791 0.8485
H2 H 0.3111 0.2680 0.7480
C3 C 0.4713(6) 0.2041(4) 0.8312(3)
H3 H 0.4866 0.1757 0.8874
H4 H 0.5375 0.2482 0.8399
N1 N -0.0642(4) 0.0036(2) 0.8225(2)
C4 C -0.1809(5) 0.0055(3) 0.8429(3)
H5 H -0.2547 0.0386 0.8142
C5 C -0.0558(5) -0.0822(3) 0.9368(3)
C6 C 0.0022(6) -0.1370(3) 1.0045(3)
H6 H -0.0470 -0.1571 1.0416
C7 C 0.1355(6) -0.1601(3) 1.0141(3)
H7 H 0.1776 -0.1964 1.0592
C8 C 0.2098(6) -0.1311(3) 0.9587(3)
H8 H 0.2996 -0.1489 0.9672
C9 C 0.1532(5) -0.0766(3) 0.8916(3)
H9 H 0.2033 -0.0568 0.8549
C10 C 0.0189(5) -0.0522(3) 0.8809(3)
N2 N -0.1821(4) -0.0453(3) 0.9091(3)
O1 O 0.1194(3) 0.1730(2) 0.7258(2)
O2 O 0.2295(4) 0.1229(2) 0.8553(2)
S1 S 0.5000 0.13460(14) 0.7500
Cu1 Cu 0.0000 0.08443(5) 0.7500
H10 H -0.245(4) -0.052(3) 0.932(3)
C1A C 0.7803(5) 0.1741(3) 0.7046(3)
C2A C 0.6731(6) 0.2397(3) 0.6958(4)
H1A H 0.6814 0.2791 0.6515
H2A H 0.6889 0.2680 0.7520
C3A C 0.5287(6) 0.2041(4) 0.6688(3)
H3A H 0.5134 0.1757 0.6126
H4A H 0.4625 0.2482 0.6601
O1A O 0.8806(3) 0.1730(2) 0.7742(2)
O2A O 0.7705(4) 0.1229(2) 0.6447(2)
N1A N 0.0642(4) 0.0036(2) 0.6775(2)
C4A C 0.1809(5) 0.0055(3) 0.6571(3)
H5A H 0.2547 0.0386 0.6858
C5A C 0.0558(5) -0.0822(3) 0.5632(3)
C6A C -0.0022(6) -0.1370(3) 0.4955(3)
H6A H 0.0470 -0.1571 0.4584
C7A C -0.1355(6) -0.1601(3) 0.4859(3)
H7A H -0.1776 -0.1964 0.4408
C8A C -0.2098(6) -0.1311(3) 0.5413(3)
H8A H -0.2996 -0.1489 0.5328
C9A C -0.1532(5) -0.0766(3) 0.6084(3)
H9A H -0.2033 -0.0568 0.6451
C10A C -0.0189(5) -0.0522(3) 0.6191(3)
N2A N 0.1821(4) -0.0453(3) 0.5909(3)
H10A H 0.245(4) -0.052(3) 0.568(3)
O1A_2 O -0.1194(3) 0.1730(2) 0.7742(2)
O2A_2 O -0.2295(4) 0.1229(2) 0.6447(2)
Cu1_2 Cu 1.0000 0.08443(5) 0.7500
O3 O 0.0915(4) 0.4342(3) 0.9876(3)
H11 H 0.0696 0.3951 0.9469
H12 H 0.140(6) 0.412(3) 1.034(2)
O4 O -0.0186(8) 0.3361(4) 0.8356(4)
H13 H -0.0705 0.2948 0.8324
H14 H 0.0503 0.3210 0.8221
loop_
_geom_bond_atom_site_label_1
_geom_bond_atom_site_label_2
_geom_bond_site_symmetry_1
_geom_bond_site_symmetry_2
C1 C2 1_555 1_555
C2 H1 1_555 1_555
H2 C2 1_555 1_555
C3 C2 1_555 1_555
H3 C3 1_555 1_555
H4 C3 1_555 1_555
N1 C4 1_555 1_555
C4 H5 1_555 1_555
C5 C6 1_555 1_555
C6 H6 1_555 1_555
C7 C6 1_555 1_555
H7 C7 1_555 1_555
C8 C7 1_555 1_555
H8 C8 1_555 1_555
C9 C8 1_555 1_555
H9 C9 1_555 1_555
C10 N1 1_555 1_555
N2 C4 1_555 1_555
O1 C1 1_555 1_555
O2 C1 1_555 1_555
S1 C3 1_555 1_555
Cu1 N1 1_555 1_555
H10 N2 1_555 1_555
O3 H11 1_555 1_555
H12 O3 1_555 1_555
O4 H13 1_555 1_555
H14 O4 1_555 1_555
C1A C2A 1_555 1_555
C2A H1A 1_555 1_555
H2A C2A 1_555 1_555
C3A S1 1_555 1_555
H3A C3A 1_555 1_555
H4A C3A 1_555 1_555
O1A C1A 1_555 1_555
O2A C1A 1_555 1_555
N1A Cu1 1_555 1_555
C4A N1A 1_555 1_555
H5A C4A 1_555 1_555
C5A C6A 1_555 1_555
C6A H6A 1_555 1_555
C7A C6A 1_555 1_555
H7A C7A 1_555 1_555
C8A C7A 1_555 1_555
H8A C8A 1_555 1_555
C9A C8A 1_555 1_555
H9A C9A 1_555 1_555
C10A N1A 1_555 1_555
N2A C4A 1_555 1_555
H10A N2A 1_555 1_555
O1A_2 Cu1 1_555 1_555
O2A_2 Cu1 1_555 1_555
Cu1_2 O1A 1_555 1_555
C5 C10 1_555 1_555
C5 N2 1_555 1_555
C9 C10 1_555 1_555
O1 Cu1 1_555 1_555
O2 Cu1 1_555 1_555
C2A C3A 1_555 1_555
O2A Cu1_2 1_555 1_555
C5A C10A 1_555 1_555
C5A N2A 1_555 1_555
C9A C10A 1_555 1_555

#END
