
#######################################################################
#
#                 Cambridge Crystallographic Data Centre
#                                CCDC 
#
#######################################################################
#
# If this CIF has been generated from an entry in the Cambridge 
# Structural Database, then it will include bibliographic, chemical, 
# crystal, experimental, refinement or atomic coordinate data resulting 
# from the CCDC's data processing and validation procedures.
#
#######################################################################

data_KOYWEC
_symmetry_cell_setting           monoclinic
_symmetry_space_group_name_H-M   'C 2/c'
_symmetry_Int_Tables_number      15
_space_group_name_Hall           '-C 2yn'
loop_
_symmetry_equiv_pos_site_id
_symmetry_equiv_pos_as_xyz
1 x,y,z
2 -x,y,1/2-z
3 1/2+x,1/2+y,z
4 1/2-x,1/2+y,1/2-z
5 -x,-y,-z
6 x,-y,1/2+z
7 1/2-x,1/2-y,-z
8 1/2+x,1/2-y,1/2+z
_cell_length_a                   27.057(5)
_cell_length_b                   9.9832(15)
_cell_length_c                   18.718(3)
_cell_angle_alpha                90
_cell_angle_beta                 122.2560(19)
_cell_angle_gamma                90
_cell_volume                     4275.73
loop_
_atom_site_label
_atom_site_type_symbol
_atom_site_fract_x
_atom_site_fract_y
_atom_site_fract_z
Rh1 Rh 0.5000 0.48681(4) 0.2500
Rh2 Rh 0.5000 0.21732(4) 0.2500
N1 N 0.55449(15) 0.4974(3) 0.2053(2)
C1 C 0.61052(18) 0.5151(4) 0.2656(3)
N2 N 0.64316(19) 0.5329(5) 0.2329(3)
H1 H 0.6803 0.5453 0.2606
C2 C 0.6067(3) 0.5277(8) 0.1471(4)
H2 H 0.6173 0.5369 0.1076
C3 C 0.5518(2) 0.5066(5) 0.1305(3)
H3 H 0.5181 0.4995 0.0770
N3 N 0.58000(14) 0.4915(3) 0.3611(2)
C4 C 0.62451(18) 0.5126(4) 0.3513(3)
N4 N 0.67424(16) 0.5295(4) 0.4261(2)
H4 H 0.7081 0.5452 0.4342
C5 C 0.6616(2) 0.5175(5) 0.4866(3)
H5 H 0.6879 0.5234 0.5447
C6 C 0.6035(2) 0.4951(4) 0.4465(3)
H6 H 0.5827 0.4839 0.4727
N5 N 0.49934(15) 0.2108(3) 0.1393(2)
C7 C 0.55188(19) 0.1931(4) 0.1512(3)
N6 N 0.54808(19) 0.1764(5) 0.0777(3)
H7 H 0.5769 0.1639 0.0712
C8 C 0.4904(2) 0.1825(6) 0.0147(3)
H8 H 0.4747 0.1743 -0.0430
C9 C 0.4605(2) 0.2030(4) 0.0536(3)
H9 H 0.4201 0.2106 0.0263
N7 N 0.58799(14) 0.2093(3) 0.2966(2)
C10 C 0.60043(18) 0.1946(4) 0.2374(3)
N8 N 0.65797(17) 0.1829(5) 0.2720(3)
H10 H 0.6756 0.1733 0.2453
C11 C 0.6838(2) 0.1889(6) 0.3576(4)
H11 H 0.7236 0.1836 0.3980
C12 C 0.64002(19) 0.2042(4) 0.3727(3)
H12 H 0.6447 0.2102 0.4256
N9 N 0.5000 0.7202(4) 0.2500
C13 C 0.53399(19) 0.7867(4) 0.3200(3)
H13 H 0.5580 0.7402 0.3700
C14 C 0.53457(19) 0.9261(4) 0.3204(3)
H14 H 0.5594 0.9718 0.3704
N10 N 0.5000 0.9941(4) 0.2500
C13A C 0.46601(19) 0.7867(4) 0.1800(3)
H13A H 0.4420 0.7402 0.1300
C14A C 0.46543(19) 0.9261(4) 0.1796(3)
H14A H 0.4406 0.9718 0.1296
N1A N 0.44551(15) 0.4974(3) 0.2947(2)
C1A C 0.38948(18) 0.5151(4) 0.2344(3)
N2A N 0.35684(19) 0.5329(5) 0.2671(3)
H1A H 0.3197 0.5453 0.2394
C2A C 0.3933(3) 0.5277(8) 0.3529(4)
H2A H 0.3827 0.5369 0.3924
C3A C 0.4482(2) 0.5066(5) 0.3695(3)
H3A H 0.4819 0.4995 0.4230
N3A N 0.42000(14) 0.4915(3) 0.1389(2)
C4A C 0.37549(18) 0.5126(4) 0.1487(3)
N4A N 0.32576(16) 0.5295(4) 0.0739(2)
H4A H 0.2919 0.5452 0.0658
C5A C 0.3384(2) 0.5175(5) 0.0134(3)
H5A H 0.3121 0.5234 -0.0447
C6A C 0.3965(2) 0.4951(4) 0.0535(3)
H6A H 0.4173 0.4839 0.0273
N5A N 0.50066(15) 0.2108(3) 0.3607(2)
C7A C 0.44812(19) 0.1931(4) 0.3488(3)
N6A N 0.45192(19) 0.1764(5) 0.4223(3)
H7A H 0.4231 0.1639 0.4288
C8A C 0.5096(2) 0.1825(6) 0.4853(3)
H8A H 0.5253 0.1743 0.5430
C9A C 0.5395(2) 0.2030(4) 0.4464(3)
H9A H 0.5799 0.2106 0.4737
N7A N 0.41201(14) 0.2093(3) 0.2034(2)
C10A C 0.39957(18) 0.1946(4) 0.2626(3)
N8A N 0.34203(17) 0.1829(5) 0.2280(3)
H10A H 0.3244 0.1733 0.2547
C11A C 0.3162(2) 0.1889(6) 0.1424(4)
H11A H 0.2764 0.1836 0.1020
C12A C 0.35998(19) 0.2042(4) 0.1273(3)
H12A H 0.3553 0.2102 0.0744
Rh2_2 Rh 0.5000 1.21732(4) 0.2500
N10_2 N 0.5000 -0.0059(4) 0.2500
Si1 Si 0.81273(6) 0.5852(2) 0.41399(10)
F1 F 0.8146(7) 0.7193(11) 0.3712(7)
F2 F 0.8735(4) 0.6493(11) 0.4859(6)
F3 F 0.8438(4) 0.5230(10) 0.3688(7)
F4 F 0.7547(3) 0.5092(10) 0.3475(7)
F5 F 0.7766(5) 0.6599(9) 0.4453(10)
F6 F 0.8270(8) 0.4585(14) 0.4673(8)
O1 O 0.5947(3) 0.8697(6) 0.1915(4)
O2 O 0.6770(4) 0.8445(8) 0.3646(5)
O3 O 0.7085(5) 0.7199(9) 0.1683(10)
loop_
_geom_bond_atom_site_label_1
_geom_bond_atom_site_label_2
_geom_bond_site_symmetry_1
_geom_bond_site_symmetry_2
Rh1 Rh2 1_555 1_555
Rh2 N5 1_555 1_555
N1 Rh1 1_555 1_555
C1 N1 1_555 1_555
N2 C1 1_555 1_555
H1 N2 1_555 1_555
C2 N2 1_555 1_555
H2 C2 1_555 1_555
C3 N1 1_555 1_555
H3 C3 1_555 1_555
N3 Rh1 1_555 1_555
C4 C1 1_555 1_555
N4 C4 1_555 1_555
H4 N4 1_555 1_555
C5 N4 1_555 1_555
H5 C5 1_555 1_555
C6 N3 1_555 1_555
H6 C6 1_555 1_555
N5 C7 1_555 1_555
C7 N6 1_555 1_555
N6 H7 1_555 1_555
C8 N6 1_555 1_555
H8 C8 1_555 1_555
C9 N5 1_555 1_555
H9 C9 1_555 1_555
N7 Rh2 1_555 1_555
C10 C7 1_555 1_555
N8 C10 1_555 1_555
H10 N8 1_555 1_555
C11 N8 1_555 1_555
H11 C11 1_555 1_555
C12 N7 1_555 1_555
H12 C12 1_555 1_555
N9 Rh1 1_555 1_555
C13 N9 1_555 1_555
H13 C13 1_555 1_555
C14 C13 1_555 1_555
H14 C14 1_555 1_555
N10 C14 1_555 1_555
Si1 F1 1_555 1_555
F2 Si1 1_555 1_555
F3 Si1 1_555 1_555
F4 Si1 1_555 1_555
F5 Si1 1_555 1_555
F6 Si1 1_555 1_555
C13A N9 1_555 1_555
H13A C13A 1_555 1_555
C14A N10 1_555 1_555
H14A C14A 1_555 1_555
N1A Rh1 1_555 1_555
C1A N1A 1_555 1_555
N2A C1A 1_555 1_555
H1A N2A 1_555 1_555
C2A N2A 1_555 1_555
H2A C2A 1_555 1_555
C3A N1A 1_555 1_555
H3A C3A 1_555 1_555
N3A Rh1 1_555 1_555
C4A C1A 1_555 1_555
N4A C4A 1_555 1_555
H4A N4A 1_555 1_555
C5A N4A 1_555 1_555
H5A C5A 1_555 1_555
C6A N3A 1_555 1_555
H6A C6A 1_555 1_555
N5A Rh2 1_555 1_555
C7A N5A 1_555 1_555
N6A C7A 1_555 1_555
H7A N6A 1_555 1_555
C8A N6A 1_555 1_555
H8A C8A 1_555 1_555
C9A N5A 1_555 1_555
H9A C9A 1_555 1_555
N7A Rh2 1_555 1_555
C10A C7A 1_555 1_555
N8A C10A 1_555 1_555
H10A N8A 1_555 1_555
C11A N8A 1_555 1_555
H11A C11A 1_555 1_555
C12A N7A 1_555 1_555
H12A C12A 1_555 1_555
Rh2_2 N10 1_555 1_555
N10_2 Rh2 1_555 1_555
C2 C3 1_555 1_555
N3 C4 1_555 1_555
C5 C6 1_555 1_555
C8 C9 1_555 1_555
N7 C10 1_555 1_555
C11 C12 1_555 1_555
C13A C14A 1_555 1_555
C2A C3A 1_555 1_555
N3A C4A 1_555 1_555
C5A C6A 1_555 1_555
C8A C9A 1_555 1_555
N7A C10A 1_555 1_555
C11A C12A 1_555 1_555

#END
