
#######################################################################
#
#                 Cambridge Crystallographic Data Centre
#                                CCDC 
#
#######################################################################
#
# If this CIF has been generated from an entry in the Cambridge 
# Structural Database, then it will include bibliographic, chemical, 
# crystal, experimental, refinement or atomic coordinate data resulting 
# from the CCDC's data processing and validation procedures.
#
#######################################################################

data_KOZDOU
_symmetry_cell_setting           monoclinic
_symmetry_space_group_name_H-M   'C 2/c'
_symmetry_Int_Tables_number      15
_space_group_name_Hall           '-C 2yn'
loop_
_symmetry_equiv_pos_site_id
_symmetry_equiv_pos_as_xyz
1 x,y,z
2 -x,y,1/2-z
3 1/2+x,1/2+y,z
4 1/2-x,1/2+y,1/2-z
5 -x,-y,-z
6 x,-y,1/2+z
7 1/2-x,1/2-y,-z
8 1/2+x,1/2-y,1/2+z
_cell_length_a                   20.940(13)
_cell_length_b                   9.168(4)
_cell_length_c                   16.491(10)
_cell_angle_alpha                90
_cell_angle_beta                 114.673(7)
_cell_angle_gamma                90
_cell_volume                     2876.88
loop_
_atom_site_label
_atom_site_type_symbol
_atom_site_fract_x
_atom_site_fract_y
_atom_site_fract_z
Zn1 Zn 0.18207(3) 0.07592(7) 0.03678(4)
Br1 Br 0.27644(3) 0.19249(7) 0.15505(4)
Br2 Br 0.13560(4) -0.11887(8) 0.09233(5)
N1 N -0.1108(2) -0.7559(5) -0.4810(3)
O1 O 0.2121(2) -0.0102(5) -0.0510(3)
C1 C -0.1303(3) -0.6164(7) -0.4950(4)
H1 H -0.1764 -0.5942 -0.5335
C2 C 0.1531(4) -0.3466(8) -0.2496(6)
H2 H 0.1990 -0.3734 -0.2130
N2 N 0.1341(2) -0.2087(5) -0.2540(3)
C3 C 0.1611(3) -0.0538(7) -0.1222(4)
C4 C 0.0204(3) -0.2712(7) -0.3578(4)
H3 H -0.0243 -0.2406 -0.3969
C5 C 0.0697(3) -0.1688(7) -0.3082(4)
H4 H 0.0574 -0.0707 -0.3130
C6 C 0.0363(3) -0.4177(6) -0.3501(4)
O2 O 0.0991(3) -0.0550(7) -0.1370(4)
C7 C 0.1847(3) -0.1024(7) -0.1944(4)
H5 H 0.1874 -0.0184 -0.2285
H6 H 0.2309 -0.1463 -0.1667
C8 C -0.0162(3) -0.5314(6) -0.3980(4)
C9 C -0.0454(3) -0.7835(7) -0.4274(6)
H7 H -0.0306 -0.8801 -0.4192
C10 C -0.0842(3) -0.5036(7) -0.4544(5)
H8 H -0.0999 -0.4076 -0.4656
C11 C 0.1052(4) -0.4525(8) -0.2991(6)
H9 H 0.1201 -0.5484 -0.2977
C12 C 0.0029(3) -0.6759(8) -0.3824(5)
H10 H 0.0479 -0.7012 -0.3418
Zn1A Zn -0.18207(3) -0.92408(7) -0.53678(4)
N1A N 0.1108(2) 0.2441(5) -0.0190(3)
loop_
_geom_bond_atom_site_label_1
_geom_bond_atom_site_label_2
_geom_bond_site_symmetry_1
_geom_bond_site_symmetry_2
Zn1 Br1 1_555 1_555
Br2 Zn1 1_555 1_555
N1 C1 1_555 1_555
O1 Zn1 1_555 1_555
C1 H1 1_555 1_555
C2 H2 1_555 1_555
N2 C2 1_555 1_555
C3 O1 1_555 1_555
C4 H3 1_555 1_555
C5 N2 1_555 1_555
H4 C5 1_555 1_555
C6 C4 1_555 1_555
O2 C3 1_555 1_555
C7 N2 1_555 1_555
H5 C7 1_555 1_555
H6 C7 1_555 1_555
C8 C6 1_555 1_555
C9 N1 1_555 1_555
H7 C9 1_555 1_555
C10 C1 1_555 1_555
H8 C10 1_555 1_555
C11 C2 1_555 1_555
H9 C11 1_555 1_555
C12 C8 1_555 1_555
H10 C12 1_555 1_555
Zn1A N1 1_555 1_555
N1A Zn1 1_555 1_555
C3 C7 1_555 1_555
C4 C5 1_555 1_555
C6 C11 1_555 1_555
C8 C10 1_555 1_555
C9 C12 1_555 1_555

#END
