
#######################################################################
#
#                 Cambridge Crystallographic Data Centre
#                                CCDC 
#
#######################################################################
#
# If this CIF has been generated from an entry in the Cambridge 
# Structural Database, then it will include bibliographic, chemical, 
# crystal, experimental, refinement or atomic coordinate data resulting 
# from the CCDC's data processing and validation procedures.
#
#######################################################################

data_KOZFOW
_symmetry_cell_setting           triclinic
_symmetry_space_group_name_H-M   'P -1'
_symmetry_Int_Tables_number      2
_space_group_name_Hall           '-P 1'
loop_
_symmetry_equiv_pos_site_id
_symmetry_equiv_pos_as_xyz
1 x,y,z
2 -x,-y,-z
_cell_length_a                   9.8825(2)
_cell_length_b                   10.8403(2)
_cell_length_c                   13.6337(3)
_cell_angle_alpha                100.6150(9)
_cell_angle_beta                 102.6920(9)
_cell_angle_gamma                90.3470(8)
_cell_volume                     1398.85
loop_
_atom_site_label
_atom_site_type_symbol
_atom_site_fract_x
_atom_site_fract_y
_atom_site_fract_z
Cu1 Cu 0.0000 1.0000 0.0000
I1 I 0.06805(5) 0.86932(4) 0.39035(3)
N1 N -0.0229(3) 0.8814(2) -0.13393(19)
O1 O 0.0636(2) 0.8603(2) 0.07080(18)
O2 O -0.1068(3) 0.8489(3) 0.1537(3)
C1 C -0.1336(4) 0.8818(3) -0.2110(3)
H1 H -0.2033 0.9365 -0.2003
C2 C -0.1482(4) 0.8050(4) -0.3047(3)
H2 H -0.2271 0.8081 -0.3558
C3 C -0.0476(5) 0.7236(4) -0.3237(3)
C4 C 0.0660(4) 0.7214(4) -0.2436(3)
H3 H 0.1360 0.6664 -0.2526
C5 C 0.0751(4) 0.8006(3) -0.1510(3)
H4 H 0.1522 0.7980 -0.0983
C6 C -0.0571(8) 0.6388(6) -0.4261(4)
H5 H -0.0118 0.5625 -0.4162
H6 H -0.0125 0.6805 -0.4678
H7 H -0.1529 0.6195 -0.4596
C7 C 0.0040(3) 0.8167(3) 0.1317(3)
C8 C 0.0811(4) 0.7148(3) 0.1798(3)
C9 C 0.1123(4) 0.7174(4) 0.2851(3)
C10 C 0.1855(5) 0.6205(6) 0.3236(5)
H8 H 0.2095 0.6232 0.3939
C11 C 0.2228(6) 0.5198(6) 0.2572(7)
H9 H 0.2689 0.4541 0.2830
C12 C 0.1925(7) 0.5173(5) 0.1559(6)
H10 H 0.2182 0.4502 0.1118
C13 C 0.1229(5) 0.6147(4) 0.1169(4)
H11 H 0.1039 0.6124 0.0467
Cu2 Cu 0.5000 1.0000 0.0000
I2 I 0.43085(4) 0.64857(4) -0.37456(2)
O3 O 0.4350(2) 0.8248(2) -0.06446(18)
O4 O 0.6106(3) 0.7575(3) -0.1360(3)
N2 N 0.5200(3) 0.9531(2) 0.1392(2)
C14 C 0.4263(4) 0.8754(4) 0.1567(3)
H12 H 0.3502 0.8444 0.1041
C15 C 0.4385(5) 0.8396(4) 0.2501(3)
H13 H 0.3722 0.7839 0.2590
C16 C 0.5494(5) 0.8862(4) 0.3308(3)
C17 C 0.6436(5) 0.9663(4) 0.3124(3)
H14 H 0.7196 0.9998 0.3643
C18 C 0.6265(4) 0.9978(4) 0.2170(3)
H15 H 0.6922 1.0527 0.2064
C19 C 0.5637(8) 0.8464(6) 0.4328(4)
H16 H 0.5411 0.7580 0.4220
H17 H 0.5016 0.8920 0.4697
H18 H 0.6575 0.8639 0.4717
C20 C 0.4955(3) 0.7440(3) -0.1169(2)
C21 C 0.4156(3) 0.6187(3) -0.1574(3)
C22 C 0.3852(4) 0.5606(3) -0.2597(3)
C23 C 0.3125(5) 0.4439(4) -0.2911(4)
H19 H 0.2903 0.4067 -0.3602
C24 C 0.2736(5) 0.3839(4) -0.2209(5)
H20 H 0.2283 0.3048 -0.2417
C25 C 0.3022(6) 0.4415(4) -0.1187(5)
H21 H 0.2753 0.4015 -0.0708
C26 C 0.3705(5) 0.5580(4) -0.0880(4)
H22 H 0.3868 0.5970 -0.0195
O5 O 0.2519(2) 1.0453(2) -0.0014(2)
H23 H 0.284(5) 1.102(4) 0.045(4)
H24 H 0.212(5) 1.072(5) -0.056(4)
I1A I -0.06805(5) 1.13068(4) -0.39035(3)
N1A N 0.0229(3) 1.1186(2) 0.13393(19)
O1A O -0.0636(2) 1.1397(2) -0.07080(18)
O2A O 0.1068(3) 1.1511(3) -0.1537(3)
C1A C 0.1336(4) 1.1182(3) 0.2110(3)
H1A H 0.2033 1.0635 0.2003
C2A C 0.1482(4) 1.1950(4) 0.3047(3)
H2A H 0.2271 1.1919 0.3558
C3A C 0.0476(5) 1.2764(4) 0.3237(3)
C4A C -0.0660(4) 1.2786(4) 0.2436(3)
H3A H -0.1360 1.3336 0.2526
C5A C -0.0751(4) 1.1994(3) 0.1510(3)
H4A H -0.1522 1.2020 0.0983
C6A C 0.0571(8) 1.3612(6) 0.4261(4)
H5A H 0.0118 1.4375 0.4162
H6A H 0.0125 1.3195 0.4678
H7A H 0.1529 1.3805 0.4596
C7A C -0.0040(3) 1.1833(3) -0.1317(3)
C8A C -0.0811(4) 1.2852(3) -0.1798(3)
C9A C -0.1123(4) 1.2826(4) -0.2851(3)
C10A C -0.1855(5) 1.3795(6) -0.3236(5)
H8A H -0.2095 1.3768 -0.3939
C11A C -0.2228(6) 1.4802(6) -0.2572(7)
H9A H -0.2689 1.5459 -0.2830
C12A C -0.1925(7) 1.4827(5) -0.1559(6)
H10A H -0.2182 1.5498 -0.1118
C13A C -0.1229(5) 1.3853(4) -0.1169(4)
H11A H -0.1039 1.3876 -0.0467
O5A O -0.2519(2) 0.9547(2) 0.0014(2)
H23A H -0.284(5) 0.898(4) -0.045(4)
H24A H -0.212(5) 0.928(5) 0.056(4)
I2A I 0.56915(4) 1.35143(4) 0.37456(2)
O3A O 0.5650(2) 1.1752(2) 0.06446(18)
O4A O 0.3894(3) 1.2425(3) 0.1360(3)
C20A C 0.5045(3) 1.2560(3) 0.1169(2)
C21A C 0.5844(3) 1.3813(3) 0.1574(3)
C22A C 0.6148(4) 1.4394(3) 0.2597(3)
C23A C 0.6875(5) 1.5561(4) 0.2911(4)
H19A H 0.7097 1.5933 0.3602
C24A C 0.7264(5) 1.6161(4) 0.2209(5)
H20A H 0.7717 1.6952 0.2417
C25A C 0.6978(6) 1.5585(4) 0.1187(5)
H21A H 0.7247 1.5985 0.0708
C26A C 0.6295(5) 1.4420(4) 0.0880(4)
H22A H 0.6132 1.4030 0.0195
N2A N 0.4800(3) 1.0469(2) -0.1392(2)
C14A C 0.5737(4) 1.1246(4) -0.1567(3)
H12A H 0.6498 1.1556 -0.1041
C15A C 0.5615(5) 1.1604(4) -0.2501(3)
H13A H 0.6278 1.2161 -0.2590
C16A C 0.4506(5) 1.1138(4) -0.3308(3)
C17A C 0.3564(5) 1.0337(4) -0.3124(3)
H14A H 0.2804 1.0002 -0.3643
C18A C 0.3735(4) 1.0022(4) -0.2170(3)
H15A H 0.3078 0.9473 -0.2064
C19A C 0.4363(8) 1.1536(6) -0.4328(4)
H16A H 0.4589 1.2420 -0.4220
H17A H 0.4984 1.1080 -0.4697
H18A H 0.3425 1.1361 -0.4717
Cu2_2 Cu -0.5000 1.0000 0.0000
O5A_2 O 0.7481(2) 0.9547(2) 0.0014(2)
loop_
_geom_bond_atom_site_label_1
_geom_bond_atom_site_label_2
_geom_bond_site_symmetry_1
_geom_bond_site_symmetry_2
Cu1 N1 1_555 1_555
I1 C9 1_555 1_555
N1 C1 1_555 1_555
O1 Cu1 1_555 1_555
O2 C7 1_555 1_555
C1 H1 1_555 1_555
C2 C1 1_555 1_555
H2 C2 1_555 1_555
C3 C2 1_555 1_555
C4 C3 1_555 1_555
H3 C4 1_555 1_555
C5 N1 1_555 1_555
H4 C5 1_555 1_555
C6 C3 1_555 1_555
H5 C6 1_555 1_555
H6 C6 1_555 1_555
H7 C6 1_555 1_555
C7 O1 1_555 1_555
C8 C7 1_555 1_555
C9 C8 1_555 1_555
C10 C9 1_555 1_555
H8 C10 1_555 1_555
C11 C10 1_555 1_555
H9 C11 1_555 1_555
C12 C11 1_555 1_555
H10 C12 1_555 1_555
C13 C8 1_555 1_555
H11 C13 1_555 1_555
Cu2 O3 1_555 1_555
I2 C22 1_555 1_555
O3 C20 1_555 1_555
O4 C20 1_555 1_555
N2 Cu2 1_555 1_555
C14 N2 1_555 1_555
H12 C14 1_555 1_555
C15 C14 1_555 1_555
H13 C15 1_555 1_555
C16 C15 1_555 1_555
C17 C16 1_555 1_555
H14 C17 1_555 1_555
C18 N2 1_555 1_555
H15 C18 1_555 1_555
C19 C16 1_555 1_555
H16 C19 1_555 1_555
H17 C19 1_555 1_555
H18 C19 1_555 1_555
C20 C21 1_555 1_555
C21 C22 1_555 1_555
C22 C23 1_555 1_555
C23 H19 1_555 1_555
C24 C23 1_555 1_555
H20 C24 1_555 1_555
C25 C24 1_555 1_555
H21 C25 1_555 1_555
C26 C21 1_555 1_555
H22 C26 1_555 1_555
O5 Cu1 1_555 1_555
H23 O5 1_555 1_555
H24 O5 1_555 1_555
I1A C9A 1_555 1_555
N1A Cu1 1_555 1_555
O1A Cu1 1_555 1_555
O2A C7A 1_555 1_555
C1A N1A 1_555 1_555
H1A C1A 1_555 1_555
C2A C1A 1_555 1_555
H2A C2A 1_555 1_555
C3A C2A 1_555 1_555
C4A C3A 1_555 1_555
H3A C4A 1_555 1_555
C5A N1A 1_555 1_555
H4A C5A 1_555 1_555
C6A C3A 1_555 1_555
H5A C6A 1_555 1_555
H6A C6A 1_555 1_555
H7A C6A 1_555 1_555
C7A O1A 1_555 1_555
C8A C7A 1_555 1_555
C9A C8A 1_555 1_555
C10A C9A 1_555 1_555
H8A C10A 1_555 1_555
C11A C10A 1_555 1_555
H9A C11A 1_555 1_555
C12A C11A 1_555 1_555
H10A C12A 1_555 1_555
C13A C8A 1_555 1_555
H11A C13A 1_555 1_555
O5A Cu1 1_555 1_555
H23A O5A 1_555 1_555
H24A O5A 1_555 1_555
I2A C22A 1_555 1_555
O3A Cu2 1_555 1_555
O4A C20A 1_555 1_555
C20A O3A 1_555 1_555
C21A C20A 1_555 1_555
C22A C21A 1_555 1_555
C23A C22A 1_555 1_555
H19A C23A 1_555 1_555
C24A C23A 1_555 1_555
H20A C24A 1_555 1_555
C25A C24A 1_555 1_555
H21A C25A 1_555 1_555
C26A C21A 1_555 1_555
H22A C26A 1_555 1_555
N2A Cu2 1_555 1_555
C14A N2A 1_555 1_555
H12A C14A 1_555 1_555
C15A C14A 1_555 1_555
H13A C15A 1_555 1_555
C16A C15A 1_555 1_555
C17A C16A 1_555 1_555
H14A C17A 1_555 1_555
C18A N2A 1_555 1_555
H15A C18A 1_555 1_555
C19A C16A 1_555 1_555
H16A C19A 1_555 1_555
H17A C19A 1_555 1_555
H18A C19A 1_555 1_555
Cu2_2 O5A 1_555 1_555
O5A_2 Cu2 1_555 1_555
C4 C5 1_555 1_555
C12 C13 1_555 1_555
Cu2 O5 1_555 1_555
C17 C18 1_555 1_555
C25 C26 1_555 1_555
C4A C5A 1_555 1_555
C12A C13A 1_555 1_555
C25A C26A 1_555 1_555
C17A C18A 1_555 1_555

#END
