
#######################################################################
#
#                 Cambridge Crystallographic Data Centre
#                                CCDC 
#
#######################################################################
#
# If this CIF has been generated from an entry in the Cambridge 
# Structural Database, then it will include bibliographic, chemical, 
# crystal, experimental, refinement or atomic coordinate data resulting 
# from the CCDC's data processing and validation procedures.
#
#######################################################################

data_KOZQEX
_symmetry_cell_setting           cubic
_symmetry_space_group_name_H-M   'P m -3 m'
_symmetry_Int_Tables_number      221
_space_group_name_Hall           '-P 4 2 3'
loop_
_symmetry_equiv_pos_site_id
_symmetry_equiv_pos_as_xyz
1 x,y,z
2 -y,x,z
3 -x,-y,z
4 y,-x,z
5 x,-y,-z
6 y,x,-z
7 -x,y,-z
8 -y,-x,-z
9 z,x,y
10 -x,z,y
11 -z,-x,y
12 x,-z,y
13 z,-x,-y
14 x,z,-y
15 -z,x,-y
16 -x,-z,-y
17 y,z,x
18 -z,-y,-x
19 -z,y,x
20 z,y,-x
21 z,-y,x
22 y,-z,-x
23 -y,-z,x
24 -y,z,-x
25 -x,-y,-z
26 y,-x,-z
27 x,y,-z
28 -y,x,-z
29 -x,y,z
30 -y,-x,z
31 x,-y,z
32 y,x,z
33 -z,-x,-y
34 x,-z,-y
35 z,x,-y
36 -x,z,-y
37 -z,x,y
38 -x,-z,y
39 z,-x,y
40 x,z,y
41 -y,-z,-x
42 z,y,x
43 z,-y,-x
44 -z,-y,x
45 -z,y,-x
46 -y,z,x
47 y,z,-x
48 y,-z,x
_cell_length_a                   27.860(3)
_cell_length_b                   27.860(3)
_cell_length_c                   27.860(3)
_cell_angle_alpha                90
_cell_angle_beta                 90
_cell_angle_gamma                90
_cell_volume                     21624.4
loop_
_atom_site_label
_atom_site_type_symbol
_atom_site_fract_x
_atom_site_fract_y
_atom_site_fract_z
Cu1 Cu 0.5000 0.5000 0.24979(3)
Cu2 Cu 0.5000 0.5000 0.15536(3)
Cu3 Cu 0.45244(5) 0.0000 0.0000
O1 O 0.5000 0.43028(10) 0.16273(9)
O2 O 0.5000 0.43002(9) 0.24268(9)
O3 O 0.5000 0.5000 0.07856(19)
O4 O 0.5000 0.5000 0.32754(17)
O5 O 0.46012(18) 0.04997(8) 0.04997(8)
O6 O 0.3728(4) 0.0000 0.0000
N1 N 0.5000 0.20824(12) 0.20824(12)
C1 C 0.5000 0.40931(15) 0.20265(15)
C2 C 0.5000 0.35600(15) 0.20259(15)
C3 C 0.5000 0.33142(17) 0.15853(15)
H1 H 0.5000 0.3486 0.1299
C4 C 0.5000 0.28211(19) 0.15742(17)
H2 H 0.5000 0.2659 0.1282
C5 C 0.5000 0.25683(17) 0.19996(16)
C6 C 0.5000 0.28092(15) 0.24477(13)
C7 C 0.5000 0.33046(14) 0.24496(14)
H3 H 0.5000 0.3468 0.2741
C8 C 0.5000 0.17224(16) 0.17224(16)
C9 C 0.4612(3) 0.15591(16) 0.15591(16)
H4 H 0.4323 0.1678 0.1678
C10 C 0.4603(3) 0.11866(16) 0.11866(16)
H5 H 0.4310 0.1073 0.1073
C11 C 0.5000 0.10148(15) 0.10148(15)
C12 C 0.5000 0.06376(18) 0.06376(18)
O1I O 0.5000 0.16273(9) 0.43028(10)
O2I O 0.5000 0.24268(9) 0.43002(9)
O5I O 0.53988(18) 0.04997(8) 0.04997(8)
C1I C 0.5000 0.20265(15) 0.40931(15)
C2I C 0.5000 0.20259(15) 0.35600(15)
C3I C 0.5000 0.15853(15) 0.33142(17)
H1I H 0.5000 0.1299 0.3486
C4I C 0.5000 0.15742(17) 0.28211(19)
H2I H 0.5000 0.1282 0.2659
C5I C 0.5000 0.19996(16) 0.25683(17)
C6I C 0.5000 0.24477(13) 0.28092(15)
C7I C 0.5000 0.24496(14) 0.33046(14)
H3I H 0.5000 0.2741 0.3468
C9I C 0.5388(3) 0.15591(16) 0.15591(16)
H4I H 0.5677 0.1678 0.1678
C10I C 0.5397(3) 0.11866(16) 0.11866(16)
H5I H 0.5690 0.1073 0.1073
O1A O 0.56972(10) 0.5000 0.16273(9)
O2A O 0.56998(9) 0.5000 0.24268(9)
O5A O 0.95003(8) 0.46012(18) 0.04997(8)
N1A N 0.79176(12) 0.5000 0.20824(12)
C1A C 0.59069(15) 0.5000 0.20265(15)
C2A C 0.64400(15) 0.5000 0.20259(15)
C3A C 0.66858(17) 0.5000 0.15853(15)
H1A H 0.6514 0.5000 0.1299
C4A C 0.71789(19) 0.5000 0.15742(17)
H2A H 0.7341 0.5000 0.1282
C5A C 0.74317(17) 0.5000 0.19996(16)
C6A C 0.71908(15) 0.5000 0.24477(13)
C7A C 0.66954(14) 0.5000 0.24496(14)
H3A H 0.6532 0.5000 0.2741
C8A C 0.82776(16) 0.5000 0.17224(16)
C9A C 0.84409(16) 0.4612(3) 0.15591(16)
H4A H 0.8322 0.4323 0.1678
C10A C 0.88134(16) 0.4603(3) 0.11866(16)
H5A H 0.8927 0.4310 0.1073
C11A C 0.89852(15) 0.5000 0.10148(15)
C12A C 0.93624(18) 0.5000 0.06376(18)
O1J O 0.83727(9) 0.5000 0.43028(10)
O2J O 0.75732(9) 0.5000 0.43002(9)
O5J O 0.95003(8) 0.53988(18) 0.04997(8)
C1J C 0.79735(15) 0.5000 0.40931(15)
C2J C 0.79741(15) 0.5000 0.35600(15)
C3J C 0.84147(15) 0.5000 0.33142(17)
H1J H 0.8701 0.5000 0.3486
C4J C 0.84258(17) 0.5000 0.28211(19)
H2J H 0.8718 0.5000 0.2659
C5J C 0.80004(16) 0.5000 0.25683(17)
C6J C 0.75523(13) 0.5000 0.28092(15)
C7J C 0.75504(14) 0.5000 0.33046(14)
H3J H 0.7259 0.5000 0.3468
C9J C 0.84409(16) 0.5388(3) 0.15591(16)
H4J H 0.8322 0.5677 0.1678
C10J C 0.88134(16) 0.5397(3) 0.11866(16)
H5J H 0.8927 0.5690 0.1073
Cu1I Cu 0.5000 0.24979(3) 0.5000
Cu1J Cu 0.75021(3) 0.5000 0.5000
Cu2I Cu 0.5000 0.15536(3) 0.5000
Cu2J Cu 0.84464(3) 0.5000 0.5000
Cu3A Cu 1.0000 0.45244(5) 0.0000
Cu3B Cu 0.54756(5) 0.0000 0.0000
Cu3C Cu 1.0000 0.54756(5) 0.0000
O1B O 0.5000 0.56972(10) 0.16273(9)
O1C O 0.43028(10) 0.5000 0.16273(9)
O2B O 0.5000 0.56998(9) 0.24268(9)
O2C O 0.43002(9) 0.5000 0.24268(9)
O5D O 0.46012(18) -0.04997(8) -0.04997(8)
O5K O 0.46012(18) -0.04997(8) 0.04997(8)
O5M O 0.46012(18) 0.04997(8) -0.04997(8)
loop_
_geom_bond_atom_site_label_1
_geom_bond_atom_site_label_2
_geom_bond_site_symmetry_1
_geom_bond_site_symmetry_2
Cu1 Cu2 1_555 1_555
Cu2 O1 1_555 1_555
Cu3 O5 1_555 1_555
O1 C1 1_555 1_555
O2 Cu1 1_555 1_555
O3 Cu2 1_555 1_555
O4 Cu1 1_555 1_555
O5 C12 1_555 1_555
O6 Cu3 1_555 1_555
N1 C5 1_555 1_555
C1 O2 1_555 1_555
C2 C1 1_555 1_555
C3 C2 1_555 1_555
H1 C3 1_555 1_555
C4 C3 1_555 1_555
H2 C4 1_555 1_555
C5 C4 1_555 1_555
C6 C5 1_555 1_555
C7 C2 1_555 1_555
H3 C7 1_555 1_555
C8 N1 1_555 1_555
C9 C8 1_555 1_555
H4 C9 1_555 1_555
C10 C9 1_555 1_555
H5 C10 1_555 1_555
C11 C10 1_555 1_555
C12 C11 1_555 1_555
O1I C1I 1_555 1_555
O2I C1I 1_555 1_555
O5I C12 1_555 1_555
C1I C2I 1_555 1_555
C2I C3I 1_555 1_555
C3I H1I 1_555 1_555
C4I C3I 1_555 1_555
H2I C4I 1_555 1_555
C5I N1 1_555 1_555
C6I C6 1_555 1_555
C7I C2I 1_555 1_555
H3I C7I 1_555 1_555
C9I C8 1_555 1_555
H4I C9I 1_555 1_555
C10I C11 1_555 1_555
H5I C10I 1_555 1_555
O1A Cu2 1_555 1_555
O2A Cu1 1_555 1_555
O5A C12A 1_555 1_555
N1A C5A 1_555 1_555
C1A O1A 1_555 1_555
C2A C1A 1_555 1_555
C3A C2A 1_555 1_555
H1A C3A 1_555 1_555
C4A C3A 1_555 1_555
H2A C4A 1_555 1_555
C5A C4A 1_555 1_555
C6A C5A 1_555 1_555
C7A C2A 1_555 1_555
H3A C7A 1_555 1_555
C8A N1A 1_555 1_555
C9A C8A 1_555 1_555
H4A C9A 1_555 1_555
C10A C9A 1_555 1_555
H5A C10A 1_555 1_555
C11A C10A 1_555 1_555
C12A C11A 1_555 1_555
O1J C1J 1_555 1_555
O2J C1J 1_555 1_555
O5J C12A 1_555 1_555
C1J C2J 1_555 1_555
C2J C3J 1_555 1_555
C3J H1J 1_555 1_555
C4J C3J 1_555 1_555
H2J C4J 1_555 1_555
C5J N1A 1_555 1_555
C6J C6A 1_555 1_555
C7J C2J 1_555 1_555
H3J C7J 1_555 1_555
C9J C8A 1_555 1_555
H4J C9J 1_555 1_555
C10J C11A 1_555 1_555
H5J C10J 1_555 1_555
Cu1I O2I 1_555 1_555
Cu1J O2J 1_555 1_555
Cu2I O1I 1_555 1_555
Cu2J O1J 1_555 1_555
Cu3A O5A 1_555 1_555
Cu3B Cu3 1_555 1_555
Cu3C O5J 1_555 1_555
O1B Cu2 1_555 1_555
O1C Cu2 1_555 1_555
O2B Cu1 1_555 1_555
O2C Cu1 1_555 1_555
O5D Cu3 1_555 1_555
O5K Cu3 1_555 1_555
O5M Cu3 1_555 1_555
C6 C7 1_555 1_555
O5I Cu3B 1_555 1_555
C4I C5I 1_555 1_555
C5I C6I 1_555 1_555
C6I C7I 1_555 1_555
C9I C10I 1_555 1_555
O2A C1A 1_555 1_555
C6A C7A 1_555 1_555
C4J C5J 1_555 1_555
C5J C6J 1_555 1_555
C6J C7J 1_555 1_555
C9J C10J 1_555 1_555
Cu1I Cu2I 1_555 1_555
Cu1J Cu2J 1_555 1_555
Cu3A Cu3C 1_555 1_555

#END
