
#######################################################################
#
#                 Cambridge Crystallographic Data Centre
#                                CCDC 
#
#######################################################################
#
# If this CIF has been generated from an entry in the Cambridge 
# Structural Database, then it will include bibliographic, chemical, 
# crystal, experimental, refinement or atomic coordinate data resulting 
# from the CCDC's data processing and validation procedures.
#
#######################################################################

data_KUBCEQ
_symmetry_cell_setting           monoclinic
_symmetry_space_group_name_H-M   'P 21/c'
_symmetry_Int_Tables_number      14
_space_group_name_Hall           '-P 2ybc'
loop_
_symmetry_equiv_pos_site_id
_symmetry_equiv_pos_as_xyz
1 x,y,z
2 -x,1/2+y,1/2-z
3 -x,-y,-z
4 x,1/2-y,1/2+z
_cell_length_a                   9.5176(5)
_cell_length_b                   16.4831(8)
_cell_length_c                   7.6488(4)
_cell_angle_alpha                90
_cell_angle_beta                 99.9880(10)
_cell_angle_gamma                90
_cell_volume                     1181.75
loop_
_atom_site_label
_atom_site_type_symbol
_atom_site_fract_x
_atom_site_fract_y
_atom_site_fract_z
Cu1 Cu 0.14811(2) 0.122838(11) 0.37252(3)
S1 S 0.28778(6) 0.38203(3) 0.59795(7)
S2 S -0.31778(6) 0.18911(3) 0.08472(10)
N1 N 0.31232(15) 0.08117(8) 0.55223(18)
N2 N 0.42261(17) -0.02273(10) 0.6927(2)
H1 H 0.4439 -0.0719 0.7245
N3 N 0.10836(16) 0.00363(8) 0.34882(19)
N4 N 0.1819(2) -0.12058(8) 0.4118(3)
H2 H 0.2322 -0.1606 0.4601
N5 N 0.1938(2) 0.23411(10) 0.4479(2)
N6 N -0.03956(19) 0.15073(11) 0.2362(2)
C1 C 0.4248(2) 0.10977(11) 0.6726(2)
H3 H 0.4499 0.1640 0.6910
C2 C 0.4935(2) 0.04581(12) 0.7606(3)
H4 H 0.5734 0.0480 0.8499
C3 C 0.31375(18) 0.00115(9) 0.5675(2)
C4 C 0.20525(18) -0.04211(10) 0.4492(2)
C5 C 0.0186(2) -0.04881(12) 0.2438(3)
H5 H -0.0599 -0.0339 0.1599
C6 C 0.0630(3) -0.12560(12) 0.2823(3)
H6 H 0.0211 -0.1728 0.2308
C7 C 0.2340(2) 0.29470(11) 0.5107(2)
C8 C -0.1536(2) 0.16621(11) 0.1713(3)
Cu1C Cu 0.14811(2) 0.377162(11) 0.87252(3)
S1C S 0.28778(6) 0.11797(3) 0.09795(7)
loop_
_geom_bond_atom_site_label_1
_geom_bond_atom_site_label_2
_geom_bond_site_symmetry_1
_geom_bond_site_symmetry_2
Cu1 N1 1_555 1_555
S1 C7 1_555 1_555
S2 C8 1_555 1_555
N1 C1 1_555 1_555
N2 H1 1_555 1_555
N3 Cu1 1_555 1_555
N4 H2 1_555 1_555
N5 Cu1 1_555 1_555
N6 Cu1 1_555 1_555
C1 H3 1_555 1_555
C2 N2 1_555 1_555
H4 C2 1_555 1_555
C3 N1 1_555 1_555
C4 N3 1_555 1_555
C5 N3 1_555 1_555
H5 C5 1_555 1_555
C6 N4 1_555 1_555
H6 C6 1_555 1_555
C7 N5 1_555 1_555
C8 N6 1_555 1_555
Cu1C S1 1_555 1_555
S1C Cu1 1_555 1_555
N2 C3 1_555 1_555
N4 C4 1_555 1_555
C1 C2 1_555 1_555
C3 C4 1_555 1_555
C5 C6 1_555 1_555

#END
