
#######################################################################
#
#                 Cambridge Crystallographic Data Centre
#                                CCDC 
#
#######################################################################
#
# If this CIF has been generated from an entry in the Cambridge 
# Structural Database, then it will include bibliographic, chemical, 
# crystal, experimental, refinement or atomic coordinate data resulting 
# from the CCDC's data processing and validation procedures.
#
#######################################################################

data_KUBKUO
_symmetry_cell_setting           monoclinic
_symmetry_space_group_name_H-M   'P 21/n'
_symmetry_Int_Tables_number      14
_space_group_name_Hall           '-P 2yn'
loop_
_symmetry_equiv_pos_site_id
_symmetry_equiv_pos_as_xyz
1 x,y,z
2 1/2-x,1/2+y,1/2-z
3 -x,-y,-z
4 1/2+x,1/2-y,1/2+z
_cell_length_a                   13.698(3)
_cell_length_b                   13.313(3)
_cell_length_c                   41.992(8)
_cell_angle_alpha                90
_cell_angle_beta                 94.53(3)
_cell_angle_gamma                90
_cell_volume                     7633.8
loop_
_atom_site_label
_atom_site_type_symbol
_atom_site_fract_x
_atom_site_fract_y
_atom_site_fract_z
Tb1 Tb 0.80793(5) -0.87980(5) 0.103210(15)
Tb2 Tb 0.84041(5) -0.65525(5) 0.159050(15)
Tb3 Tb 0.57922(6) -0.73543(5) 0.129470(15)
Tb4 Tb 0.74959(5) -0.60985(5) 0.070950(15)
S1 S 0.9484(3) -0.0912(3) 0.06828(9)
S2 S 0.6679(4) -0.2751(3) 0.26331(8)
S3 S 1.3300(4) -0.7897(4) 0.23108(11)
S4 S 0.3778(3) -0.2645(3) 0.00042(8)
O1 O 0.9128(7) -0.0076(7) 0.0875(2)
O2 O 1.0405(8) -0.0635(8) 0.0551(3)
O3 O 0.8731(8) -0.1284(7) 0.0452(2)
O4 O 0.8285(7) -0.4657(6) 0.0919(2)
O5 O 0.8991(8) -0.5074(7) 0.1401(2)
O6 O 0.6537(7) -0.2755(7) 0.2980(2)
O7 O 0.6244(10) -0.1865(8) 0.2480(2)
O8 O 0.7708(9) -0.2896(8) 0.2581(2)
O9 O 0.7327(8) -0.5859(7) 0.1916(2)
O10 O 0.5934(8) -0.6709(8) 0.1803(2)
O11 O 0.9994(7) -0.7241(8) 0.1571(2)
O12 O 0.9530(8) -0.8736(7) 0.1368(2)
O13 O 1.2789(10) -0.6973(12) 0.2396(3)
O14 O 1.4090(9) -0.7714(10) 0.2109(3)
O15 O 1.3604(10) -0.8512(12) 0.2592(3)
O16 O 0.2990(7) -0.3003(6) -0.0233(2)
O17 O 0.4740(7) -0.2798(8) -0.0109(2)
O18 O 0.3580(8) -0.1630(7) 0.0100(2)
O19 O 0.5952(8) -0.5426(7) 0.0639(2)
O20 O 0.4950(7) -0.6250(7) 0.0941(2)
O21 O 0.7397(7) -0.7977(6) 0.1456(2)
H1 H 0.7377 -0.8428 0.1640
O22 O 0.6737(6) -0.7708(6) 0.08501(19)
H2 H 0.6335 -0.7996 0.0669
O23 O 0.7016(6) -0.6057(6) 0.12376(18)
H3 H 0.6773 -0.5392 0.1293
O24 O 0.8599(7) -0.7053(6) 0.10316(19)
H4 H 0.9274 -0.6977 0.0974
O25 O 0.8101(6) -0.8666(6) 0.0470(2)
H5 H 0.7653 -0.8342 0.0363
H6 H 0.8558 -0.8944 0.0377
O26 O 0.4166(8) -0.7211(7) 0.1478(2)
H7 H 0.3836 -0.7736 0.1511
H8 H 0.3924 -0.6634 0.1508
O27 O 0.9389(7) -0.5742(7) 0.2028(2)
H9 H 0.9647 -0.5173 0.1999
H10 H 0.9474 -0.6030 0.2209
N1 N 0.7864(9) -1.0227(8) 0.1438(3)
N2 N 0.6839(9) -1.0156(9) 0.0853(3)
N3 N 0.5478(8) -0.9004(8) 0.1566(2)
N4 N 0.4693(9) -0.8600(8) 0.0968(2)
N5 N 0.8957(8) -0.6373(9) 0.0346(3)
N6 N 0.7607(9) -0.4833(9) 0.0260(2)
C1 C 0.9760(11) -0.1887(10) 0.0962(3)
C2 C 0.9174(11) -0.2722(10) 0.0967(3)
H11 H 0.8614 -0.2766 0.0828
C3 C 0.9415(11) -0.3520(9) 0.1184(3)
C4 C 1.0226(11) -0.3405(10) 0.1404(3)
H12 H 1.0369 -0.3901 0.1556
C5 C 1.0816(13) -0.2569(12) 0.1398(4)
H13 H 1.1348 -0.2494 0.1548
C6 C 1.0610(12) -0.1848(12) 0.1169(4)
H14 H 1.1047 -0.1320 0.1150
C7 C 0.8849(11) -0.4481(10) 0.1165(3)
C8 C 0.6063(13) -0.3794(12) 0.2480(4)
C9 C 0.6486(11) -0.4494(10) 0.2300(3)
H15 H 0.7149 -0.4433 0.2270
C10 C 0.5966(14) -0.5303(14) 0.2159(4)
C11 C 0.5014(17) -0.5417(18) 0.2211(5)
H16 H 0.4667 -0.5973 0.2130
C12 C 0.4528(17) -0.466(2) 0.2395(6)
H17 H 0.3859 -0.4690 0.2418
C13 C 0.5079(18) -0.3912(19) 0.2532(6)
H18 H 0.4792 -0.3462 0.2666
C14 C 0.6436(11) -0.6005(11) 0.1949(3)
C15 C 1.0124(12) -0.8183(13) 0.1543(3)
C16 C 1.0970(12) -0.8707(13) 0.1705(4)
C17 C 1.1072(16) -0.9725(15) 0.1707(5)
H19 H 1.0601 -1.0112 0.1592
C18 C 1.1830(17) -1.0191(17) 0.1868(6)
H20 H 1.1895 -1.0884 0.1851
C19 C 1.2514(15) -0.9655(17) 0.2058(5)
H21 H 1.3031 -0.9985 0.2171
C20 C 1.2425(13) -0.8636(16) 0.2080(4)
C21 C 1.1652(13) -0.8129(13) 0.1910(4)
H22 H 1.1581 -0.7437 0.1929
C22 C 0.3705(10) -0.3407(10) 0.0349(3)
C23 C 0.2986(10) -0.3233(10) 0.0559(3)
H23 H 0.2533 -0.2720 0.0517
C24 C 0.2942(11) -0.3824(10) 0.0831(3)
H24 H 0.2469 -0.3707 0.0974
C25 C 0.3630(10) -0.4602(10) 0.0885(3)
H25 H 0.3601 -0.5016 0.1063
C26 C 0.4352(9) -0.4758(9) 0.0676(3)
C27 C 0.4391(11) -0.4176(10) 0.0405(3)
H26 H 0.4865 -0.4294 0.0263
C28 C 0.5134(12) -0.5539(10) 0.0754(3)
C29 C 0.8365(12) -1.0250(11) 0.1720(3)
H27 H 0.8738 -0.9693 0.1786
C30 C 0.8354(12) -1.1088(12) 0.1926(3)
H28 H 0.8707 -1.1077 0.2125
C31 C 0.7830(12) -1.1899(12) 0.1831(4)
H29 H 0.7825 -1.2460 0.1963
C32 C 0.7293(12) -1.1903(10) 0.1536(3)
C33 C 0.6681(13) -1.2736(12) 0.1419(4)
H30 H 0.6632 -1.3307 0.1545
C34 C 0.6193(13) -1.2686(12) 0.1135(4)
H31 H 0.5830 -1.3246 0.1065
C35 C 0.6183(12) -1.1824(11) 0.0927(4)
C36 C 0.5685(13) -1.1747(12) 0.0627(4)
H32 H 0.5292 -1.2275 0.0548
C37 C 0.5768(12) -1.0909(11) 0.0450(4)
H33 H 0.5432 -1.0855 0.0249
C38 C 0.6362(11) -1.0131(10) 0.0571(3)
H34 H 0.6424 -0.9563 0.0445
C39 C 0.6783(10) -1.0993(11) 0.1035(3)
C40 C 0.7326(10) -1.1020(10) 0.1344(3)
C41 C 0.5868(10) -0.9199(10) 0.1861(3)
H35 H 0.6260 -0.8713 0.1966
C42 C 0.5710(12) -1.0103(12) 0.2018(3)
H36 H 0.6018 -1.0219 0.2219
C43 C 0.5101(14) -1.0821(12) 0.1875(4)
H37 H 0.4978 -1.1418 0.1979
C44 C 0.4669(13) -1.0626(11) 0.1565(4)
C45 C 0.3988(13) -1.1316(12) 0.1410(4)
H38 H 0.3817 -1.1897 0.1515
C46 C 0.3588(13) -1.1125(12) 0.1111(3)
H39 H 0.3186 -1.1604 0.1006
C47 C 0.3776(11) -1.0194(10) 0.0951(3)
C48 C 0.3381(12) -0.9938(11) 0.0642(3)
H40 H 0.2959 -1.0383 0.0530
C49 C 0.3603(11) -0.9054(10) 0.0506(3)
H41 H 0.3318 -0.8876 0.0306
C50 C 0.4275(11) -0.8411(11) 0.0674(3)
H42 H 0.4441 -0.7816 0.0575
C51 C 0.4443(11) -0.9504(10) 0.1097(3)
C52 C 0.4894(11) -0.9716(11) 0.1420(3)
C53 C 0.9620(11) -0.7070(10) 0.0378(3)
H43 H 0.9684 -0.7413 0.0571
C54 C 1.0234(11) -0.7343(12) 0.0150(3)
H44 H 1.0693 -0.7850 0.0192
C55 C 1.0169(11) -0.6874(12) -0.0134(4)
H45 H 1.0574 -0.7068 -0.0290
C56 C 0.9495(11) -0.6098(11) -0.0195(3)
C57 C 0.9394(12) -0.5531(12) -0.0485(3)
H46 H 0.9775 -0.5692 -0.0652
C58 C 0.8755(12) -0.4771(11) -0.0518(3)
H47 H 0.8717 -0.4411 -0.0708
C59 C 0.8113(11) -0.4474(10) -0.0273(3)
C60 C 0.7465(11) -0.3680(11) -0.0300(3)
H48 H 0.7385 -0.3325 -0.0491
C61 C 0.6937(11) -0.3406(11) -0.0050(3)
H49 H 0.6537 -0.2841 -0.0062
C62 C 0.7021(10) -0.4011(10) 0.0227(3)
H50 H 0.6654 -0.3838 0.0396
C63 C 0.8187(11) -0.5053(11) 0.0017(3)
C64 C 0.8874(10) -0.5863(10) 0.0058(3)
Tb1_2 Tb 0.80793(5) 0.12020(5) 0.103210(15)
Tb2A Tb 0.65959(5) -0.15525(5) 0.340950(15)
Tb4B Tb 0.25041(5) -0.39015(5) -0.070950(15)
O1_2 O 0.9128(7) -1.0076(7) 0.0875(2)
O6A O 0.8463(7) -0.7755(7) 0.2020(2)
O16B O 0.7010(7) -0.6997(6) 0.0233(2)
O28 O 0.2465(8) 0.2779(9) 0.1100(2)
O29 O 0.1031(9) 0.1262(9) 0.0872(3)
H51 H 0.1533 0.1073 0.1019
H52 H 0.1327 0.0948 0.0695
O30 O 0.1460(9) 0.4226(9) 0.1422(3)
O31 O 0.9360(8) 0.6247(7) 0.2235(2)
O32 O 0.124(5) 0.128(5) 0.3212(12)
O33 O 0.981(5) 0.023(5) 0.3507(12)
O34 O 0.205(3) 0.220(3) 0.3050(10)
O35 O 0.2246(11) 0.4905(13) 0.2023(4)
O36 O 0.8518(8) 0.0136(8) -0.0029(2)
loop_
_geom_bond_atom_site_label_1
_geom_bond_atom_site_label_2
_geom_bond_site_symmetry_1
_geom_bond_site_symmetry_2
Tb1 O12 1_555 1_555
Tb2 O5 1_555 1_555
Tb3 O10 1_555 1_555
Tb4 O4 1_555 1_555
S1 O1 1_555 1_555
S2 O6 1_555 1_555
S3 O13 1_555 1_555
S4 O16 1_555 1_555
O1 Tb1_2 1_555 1_555
O2 S1 1_555 1_555
O3 S1 1_555 1_555
O4 C7 1_555 1_555
O5 C7 1_555 1_555
O6 Tb2A 1_555 1_555
O7 S2 1_555 1_555
O8 S2 1_555 1_555
O9 Tb2 1_555 1_555
O10 C14 1_555 1_555
O11 Tb2 1_555 1_555
O12 C15 1_555 1_555
O14 S3 1_555 1_555
O15 S3 1_555 1_555
O16 Tb4B 1_555 1_555
O17 S4 1_555 1_555
O18 S4 1_555 1_555
O19 Tb4 1_555 1_555
O20 Tb3 1_555 1_555
O21 Tb1 1_555 1_555
H1 O21 1_555 1_555
O22 Tb1 1_555 1_555
H2 O22 1_555 1_555
O23 Tb2 1_555 1_555
H3 O23 1_555 1_555
O24 Tb1 1_555 1_555
H4 O24 1_555 1_555
O25 Tb1 1_555 1_555
H5 O25 1_555 1_555
H6 O25 1_555 1_555
O26 Tb3 1_555 1_555
H7 O26 1_555 1_555
H8 O26 1_555 1_555
O27 Tb2 1_555 1_555
H9 O27 1_555 1_555
H10 O27 1_555 1_555
N1 Tb1 1_555 1_555
N2 Tb1 1_555 1_555
N3 Tb3 1_555 1_555
N4 Tb3 1_555 1_555
N5 Tb4 1_555 1_555
N6 Tb4 1_555 1_555
C1 S1 1_555 1_555
C2 C1 1_555 1_555
H11 C2 1_555 1_555
C3 C2 1_555 1_555
C4 C3 1_555 1_555
H12 C4 1_555 1_555
C5 C4 1_555 1_555
H13 C5 1_555 1_555
C6 C1 1_555 1_555
H14 C6 1_555 1_555
C7 C3 1_555 1_555
C8 S2 1_555 1_555
C9 C8 1_555 1_555
H15 C9 1_555 1_555
C10 C9 1_555 1_555
C11 C10 1_555 1_555
H16 C11 1_555 1_555
C12 C11 1_555 1_555
H17 C12 1_555 1_555
C13 C8 1_555 1_555
H18 C13 1_555 1_555
C14 O9 1_555 1_555
C15 O11 1_555 1_555
C16 C15 1_555 1_555
C17 C16 1_555 1_555
H19 C17 1_555 1_555
C18 C17 1_555 1_555
H20 C18 1_555 1_555
C19 C18 1_555 1_555
H21 C19 1_555 1_555
C20 S3 1_555 1_555
C21 C16 1_555 1_555
H22 C21 1_555 1_555
C22 S4 1_555 1_555
C23 C22 1_555 1_555
H23 C23 1_555 1_555
C24 C23 1_555 1_555
H24 C24 1_555 1_555
C25 C24 1_555 1_555
H25 C25 1_555 1_555
C26 C25 1_555 1_555
C27 C22 1_555 1_555
H26 C27 1_555 1_555
C28 O19 1_555 1_555
C29 N1 1_555 1_555
H27 C29 1_555 1_555
C30 C29 1_555 1_555
H28 C30 1_555 1_555
C31 C30 1_555 1_555
H29 C31 1_555 1_555
C32 C31 1_555 1_555
C33 C32 1_555 1_555
H30 C33 1_555 1_555
C34 C33 1_555 1_555
H31 C34 1_555 1_555
C35 C34 1_555 1_555
C36 C35 1_555 1_555
H32 C36 1_555 1_555
C37 C36 1_555 1_555
H33 C37 1_555 1_555
C38 N2 1_555 1_555
H34 C38 1_555 1_555
C39 N2 1_555 1_555
C40 N1 1_555 1_555
C41 N3 1_555 1_555
H35 C41 1_555 1_555
C42 C41 1_555 1_555
H36 C42 1_555 1_555
C43 C42 1_555 1_555
H37 C43 1_555 1_555
C44 C43 1_555 1_555
C45 C44 1_555 1_555
H38 C45 1_555 1_555
C46 C45 1_555 1_555
H39 C46 1_555 1_555
C47 C46 1_555 1_555
C48 C47 1_555 1_555
H40 C48 1_555 1_555
C49 C48 1_555 1_555
H41 C49 1_555 1_555
C50 N4 1_555 1_555
H42 C50 1_555 1_555
C51 N4 1_555 1_555
C52 N3 1_555 1_555
C53 N5 1_555 1_555
H43 C53 1_555 1_555
C54 C53 1_555 1_555
H44 C54 1_555 1_555
C55 C54 1_555 1_555
H45 C55 1_555 1_555
C56 C55 1_555 1_555
C57 C56 1_555 1_555
H46 C57 1_555 1_555
C58 C57 1_555 1_555
H47 C58 1_555 1_555
C59 C58 1_555 1_555
C60 C59 1_555 1_555
H48 C60 1_555 1_555
C61 C60 1_555 1_555
H49 C61 1_555 1_555
C62 N6 1_555 1_555
H50 C62 1_555 1_555
C63 N6 1_555 1_555
C64 N5 1_555 1_555
O29 H51 1_555 1_555
H52 O29 1_555 1_555
O1_2 Tb1 1_555 1_555
O6A Tb2 1_555 1_555
O16B Tb4 1_555 1_555
Tb2 O21 1_555 1_555
Tb2 O24 1_555 1_555
Tb3 O21 1_555 1_555
Tb3 O22 1_555 1_555
Tb3 O23 1_555 1_555
Tb4 O22 1_555 1_555
Tb4 O23 1_555 1_555
Tb4 O24 1_555 1_555
O20 C28 1_555 1_555
C5 C6 1_555 1_555
C10 C14 1_555 1_555
C12 C13 1_555 1_555
C19 C20 1_555 1_555
C20 C21 1_555 1_555
C26 C27 1_555 1_555
C26 C28 1_555 1_555
C32 C40 1_555 1_555
C35 C39 1_555 1_555
C37 C38 1_555 1_555
C39 C40 1_555 1_555
C44 C52 1_555 1_555
C47 C51 1_555 1_555
C49 C50 1_555 1_555
C51 C52 1_555 1_555
C56 C64 1_555 1_555
C59 C63 1_555 1_555
C61 C62 1_555 1_555
C63 C64 1_555 1_555

#END
