
#######################################################################
#
#                 Cambridge Crystallographic Data Centre
#                                CCDC 
#
#######################################################################
#
# If this CIF has been generated from an entry in the Cambridge 
# Structural Database, then it will include bibliographic, chemical, 
# crystal, experimental, refinement or atomic coordinate data resulting 
# from the CCDC's data processing and validation procedures.
#
#######################################################################

data_KUBPUT
_symmetry_cell_setting           triclinic
_symmetry_space_group_name_H-M   'P -1'
_symmetry_Int_Tables_number      2
_space_group_name_Hall           '-P 1'
loop_
_symmetry_equiv_pos_site_id
_symmetry_equiv_pos_as_xyz
1 x,y,z
2 -x,-y,-z
_cell_length_a                   12.1060(2)
_cell_length_b                   12.6430(2)
_cell_length_c                   12.9800(2)
_cell_angle_alpha                71.6290(10)
_cell_angle_beta                 89.5940(10)
_cell_angle_gamma                63.6520(10)
_cell_volume                     1668.83
loop_
_atom_site_label
_atom_site_type_symbol
_atom_site_fract_x
_atom_site_fract_y
_atom_site_fract_z
Cu1 Cu 0.34289(3) 0.25135(3) 0.29027(3)
P1 P 0.22721(8) 0.17648(8) 0.39694(7)
P2 P 0.47993(7) -0.10340(8) 0.73958(7)
N1 N 0.3926(3) 0.3469(3) 0.3690(2)
N2 N 0.2470(3) 0.3770(3) 0.1425(3)
C1 C 0.4715(4) 0.2848(4) 0.4627(3)
H1 H 0.5034 0.1954 0.4971
C2 C 0.5148(4) 0.3404(4) 0.5166(3)
H2 H 0.5698 0.2900 0.5855
C3 C 0.4766(3) 0.4681(3) 0.4727(3)
C4 C 0.3918(4) 0.5335(4) 0.3771(3)
H3 H 0.3608 0.6228 0.3432
C5 C 0.3524(3) 0.4710(3) 0.3281(3)
H4 H 0.2917 0.5218 0.2626
C6 C 0.0887(3) 0.2932(3) 0.4284(3)
C7 C 0.0193(3) 0.4073(3) 0.3435(3)
H5 H 0.0467 0.4232 0.2732
C8 C -0.0911(4) 0.4987(4) 0.3586(4)
H6 H -0.1393 0.5765 0.2991
C9 C -0.1309(4) 0.4773(4) 0.4597(4)
H7 H -0.2076 0.5398 0.4703
C10 C -0.0603(4) 0.3660(4) 0.5458(3)
H8 H -0.0868 0.3534 0.6166
C11 C 0.0489(3) 0.2724(3) 0.5304(3)
H9 H 0.0965 0.1942 0.5895
C12 C 0.1721(3) 0.0815(3) 0.3537(3)
C13 C 0.1471(4) 0.1053(5) 0.2439(3)
H10 H 0.1552 0.1733 0.1910
C14 C 0.1041(5) 0.0351(5) 0.2080(4)
H11 H 0.0875 0.0512 0.1309
C15 C 0.0879(5) -0.0571(5) 0.2807(4)
H12 H 0.0626 -0.1092 0.2575
C16 C 0.1132(7) -0.0821(6) 0.3892(5)
H13 H 0.0963 -0.1454 0.4395
C17 C 0.1553(6) -0.0129(5) 0.4266(4)
H14 H 0.1752 -0.0337 0.5042
C18 C 0.3126(3) 0.0719(3) 0.5286(3)
C19 C 0.3759(3) 0.0018(3) 0.6166(3)
C20 C 0.4992(3) 0.0041(3) 0.7948(3)
C21 C 0.4236(4) 0.1328(4) 0.7561(4)
H15 H 0.3552 0.1690 0.6979
C22 C 0.4470(5) 0.2075(4) 0.8015(4)
H16 H 0.3943 0.2969 0.7741
C23 C 0.5450(4) 0.1545(4) 0.8860(4)
H17 H 0.5628 0.2066 0.9161
C24 C 0.6183(4) 0.0265(5) 0.9263(4)
H18 H 0.6849 -0.0104 0.9864
C25 C 0.5962(4) -0.0488(4) 0.8806(3)
H19 H 0.6477 -0.1385 0.9087
C26 C 0.3841(3) -0.1580(3) 0.8284(3)
C27 C 0.2714(3) -0.0750(3) 0.8486(3)
H20 H 0.2377 0.0140 0.8103
C28 C 0.2056(3) -0.1202(4) 0.9219(3)
H21 H 0.1288 -0.0628 0.9373
C29 C 0.2516(3) -0.2475(4) 0.9759(3)
H22 H 0.2047 -0.2778 1.0258
C30 C 0.3636(4) -0.3310(4) 0.9562(3)
H23 H 0.3958 -0.4197 0.9950
C31 C 0.4296(3) -0.2867(3) 0.8820(3)
H24 H 0.5067 -0.3440 0.8669
C32 C 0.1974(4) 0.4396(4) 0.0564(3)
C33 C 0.1332(5) 0.5208(6) -0.0552(4)
H25 H 0.1812 0.5589 -0.0948
H26 H 0.0537 0.5853 -0.0515
H27 H 0.1209 0.4713 -0.0924
Cu1A Cu 0.65711(3) -0.25135(3) 0.70973(3)
Cu1A_2 Cu 0.65711(3) 0.74865(3) 0.70973(3)
P1A P 0.77279(8) -0.17648(8) 0.60306(7)
P2A P 0.52007(7) 0.10340(8) 0.26042(7)
N1A N 0.6074(3) 0.6531(3) 0.6310(2)
N1A_2 N 0.6074(3) -0.3469(3) 0.6310(2)
N2A N 0.7530(3) -0.3770(3) 0.8575(3)
C1A C 0.5285(4) 0.7152(4) 0.5373(3)
H1A H 0.4966 0.8046 0.5029
C2A C 0.4852(4) 0.6596(4) 0.4834(3)
H2A H 0.4302 0.7100 0.4145
C3A C 0.5234(3) 0.5319(3) 0.5273(3)
C4A C 0.6082(4) 0.4665(4) 0.6229(3)
H3A H 0.6392 0.3772 0.6568
C5A C 0.6476(3) 0.5290(3) 0.6719(3)
H4A H 0.7083 0.4782 0.7374
C6A C 0.9113(3) -0.2932(3) 0.5716(3)
C7A C 0.9807(3) -0.4073(3) 0.6565(3)
H5A H 0.9533 -0.4232 0.7268
C8A C 1.0911(4) -0.4987(4) 0.6414(4)
H6A H 1.1393 -0.5765 0.7009
C9A C 1.1309(4) -0.4773(4) 0.5403(4)
H7A H 1.2076 -0.5398 0.5297
C10A C 1.0603(4) -0.3660(4) 0.4542(3)
H8A H 1.0868 -0.3534 0.3834
C11A C 0.9511(3) -0.2724(3) 0.4696(3)
H9A H 0.9035 -0.1942 0.4105
C12A C 0.8279(3) -0.0815(3) 0.6463(3)
C13A C 0.8529(4) -0.1053(5) 0.7561(3)
H10A H 0.8448 -0.1733 0.8090
C14A C 0.8959(5) -0.0351(5) 0.7920(4)
H11A H 0.9125 -0.0512 0.8691
C15A C 0.9121(5) 0.0571(5) 0.7193(4)
H12A H 0.9374 0.1092 0.7425
C16A C 0.8868(7) 0.0821(6) 0.6108(5)
H13A H 0.9037 0.1454 0.5605
C17A C 0.8447(6) 0.0129(5) 0.5734(4)
H14A H 0.8248 0.0337 0.4958
C18A C 0.6874(3) -0.0719(3) 0.4714(3)
C19A C 0.6241(3) -0.0018(3) 0.3834(3)
C20A C 0.5008(3) -0.0041(3) 0.2052(3)
C21A C 0.5764(4) -0.1328(4) 0.2439(4)
H15A H 0.6448 -0.1690 0.3021
C22A C 0.5530(5) -0.2075(4) 0.1985(4)
H16A H 0.6057 -0.2969 0.2259
C23A C 0.4550(4) -0.1545(4) 0.1140(4)
H17A H 0.4372 -0.2066 0.0839
C24A C 0.3817(4) -0.0265(5) 0.0737(4)
H18A H 0.3151 0.0104 0.0136
C25A C 0.4038(4) 0.0488(4) 0.1194(3)
H19A H 0.3523 0.1385 0.0913
C26A C 0.6159(3) 0.1580(3) 0.1716(3)
C27A C 0.7286(3) 0.0750(3) 0.1514(3)
H20A H 0.7623 -0.0140 0.1897
C28A C 0.7944(3) 0.1202(4) 0.0781(3)
H21A H 0.8712 0.0628 0.0627
C29A C 0.7484(3) 0.2475(4) 0.0241(3)
H22A H 0.7953 0.2778 -0.0258
C30A C 0.6364(4) 0.3310(4) 0.0438(3)
H23A H 0.6042 0.4197 0.0050
C31A C 0.5704(3) 0.2867(3) 0.1180(3)
H24A H 0.4933 0.3440 0.1331
C32A C 0.8026(4) -0.4396(4) 0.9436(3)
C33A C 0.8668(5) -0.5208(6) 1.0552(4)
H25A H 0.8188 -0.5589 1.0948
H26A H 0.9463 -0.5853 1.0515
H27A H 0.8791 -0.4713 1.0924
F1 F 0.1135(3) 0.2284(3) 0.8043(3)
F2 F -0.0750(3) 0.3588(3) 0.8296(3)
F3 F 0.0880(6) 0.2828(6) 0.9526(6)
F4 F 0.0206(3) 0.1554(3) 0.9328(3)
B1 B 0.0367(5) 0.2575(4) 0.8799(4)
N3 N 0.6261(4) 0.4871(4) 0.2264(5)
C34 C 0.7030(8) 0.3858(10) 0.2763(7)
C35 C 0.8255(5) 0.2474(4) 0.3018(4)
H28 H 0.8398 0.1931 0.3766
H29 H 0.8963 0.2619 0.2870
H30 H 0.8132 0.2083 0.2534
loop_
_geom_bond_atom_site_label_1
_geom_bond_atom_site_label_2
_geom_bond_site_symmetry_1
_geom_bond_site_symmetry_2
Cu1 P1 1_555 1_555
P1 C6 1_555 1_555
P2 C19 1_555 1_555
F1 B1 1_555 1_555
F2 B1 1_555 1_555
F3 B1 1_555 1_555
F4 B1 1_555 1_555
N1 Cu1 1_555 1_555
N2 Cu1 1_555 1_555
N3 C34 1_555 1_555
C1 N1 1_555 1_555
H1 C1 1_555 1_555
C2 C1 1_555 1_555
H2 C2 1_555 1_555
C3 C2 1_555 1_555
C4 C3 1_555 1_555
H3 C4 1_555 1_555
C5 N1 1_555 1_555
H4 C5 1_555 1_555
C6 C7 1_555 1_555
C7 H5 1_555 1_555
C8 C7 1_555 1_555
H6 C8 1_555 1_555
C9 C8 1_555 1_555
H7 C9 1_555 1_555
C10 C9 1_555 1_555
H8 C10 1_555 1_555
C11 C6 1_555 1_555
H9 C11 1_555 1_555
C12 P1 1_555 1_555
C13 C12 1_555 1_555
H10 C13 1_555 1_555
C14 C13 1_555 1_555
H11 C14 1_555 1_555
C15 C14 1_555 1_555
H12 C15 1_555 1_555
C16 C15 1_555 1_555
H13 C16 1_555 1_555
C17 C12 1_555 1_555
H14 C17 1_555 1_555
C18 P1 1_555 1_555
C19 C18 1_555 1_555
C20 P2 1_555 1_555
C21 C20 1_555 1_555
H15 C21 1_555 1_555
C22 C21 1_555 1_555
H16 C22 1_555 1_555
C23 C22 1_555 1_555
H17 C23 1_555 1_555
C24 C23 1_555 1_555
H18 C24 1_555 1_555
C25 C20 1_555 1_555
H19 C25 1_555 1_555
C26 P2 1_555 1_555
C27 C26 1_555 1_555
H20 C27 1_555 1_555
C28 C27 1_555 1_555
H21 C28 1_555 1_555
C29 C28 1_555 1_555
H22 C29 1_555 1_555
C30 C29 1_555 1_555
H23 C30 1_555 1_555
C31 C26 1_555 1_555
H24 C31 1_555 1_555
C32 N2 1_555 1_555
C33 C32 1_555 1_555
H25 C33 1_555 1_555
H26 C33 1_555 1_555
H27 C33 1_555 1_555
C34 C35 1_555 1_555
C35 H28 1_555 1_555
H29 C35 1_555 1_555
H30 C35 1_555 1_555
Cu1A P2 1_555 1_555
Cu1A_2 N1A 1_555 1_555
P1A Cu1A 1_555 1_555
P2A Cu1 1_555 1_555
N1A C1A 1_555 1_555
N1A_2 Cu1A 1_555 1_555
N2A Cu1A 1_555 1_555
C1A H1A 1_555 1_555
C2A C1A 1_555 1_555
H2A C2A 1_555 1_555
C3A C3 1_555 1_555
C4A C3A 1_555 1_555
H3A C4A 1_555 1_555
C5A N1A 1_555 1_555
H4A C5A 1_555 1_555
C6A P1A 1_555 1_555
C7A C6A 1_555 1_555
H5A C7A 1_555 1_555
C8A C7A 1_555 1_555
H6A C8A 1_555 1_555
C9A C8A 1_555 1_555
H7A C9A 1_555 1_555
C10A C9A 1_555 1_555
H8A C10A 1_555 1_555
C11A C6A 1_555 1_555
H9A C11A 1_555 1_555
C12A P1A 1_555 1_555
C13A C12A 1_555 1_555
H10A C13A 1_555 1_555
C14A C13A 1_555 1_555
H11A C14A 1_555 1_555
C15A C14A 1_555 1_555
H12A C15A 1_555 1_555
C16A C15A 1_555 1_555
H13A C16A 1_555 1_555
C17A C12A 1_555 1_555
H14A C17A 1_555 1_555
C18A P1A 1_555 1_555
C19A P2A 1_555 1_555
C20A P2A 1_555 1_555
C21A C20A 1_555 1_555
H15A C21A 1_555 1_555
C22A C21A 1_555 1_555
H16A C22A 1_555 1_555
C23A C22A 1_555 1_555
H17A C23A 1_555 1_555
C24A C23A 1_555 1_555
H18A C24A 1_555 1_555
C25A C20A 1_555 1_555
H19A C25A 1_555 1_555
C26A P2A 1_555 1_555
C27A C26A 1_555 1_555
H20A C27A 1_555 1_555
C28A C27A 1_555 1_555
H21A C28A 1_555 1_555
C29A C28A 1_555 1_555
H22A C29A 1_555 1_555
C30A C29A 1_555 1_555
H23A C30A 1_555 1_555
C31A C26A 1_555 1_555
H24A C31A 1_555 1_555
C32A N2A 1_555 1_555
C33A C32A 1_555 1_555
H25A C33A 1_555 1_555
H26A C33A 1_555 1_555
H27A C33A 1_555 1_555
C4 C5 1_555 1_555
C10 C11 1_555 1_555
C16 C17 1_555 1_555
C24 C25 1_555 1_555
C30 C31 1_555 1_555
C2A C3A 1_555 1_555
C4A C5A 1_555 1_555
C10A C11A 1_555 1_555
C16A C17A 1_555 1_555
C18A C19A 1_555 1_555
C24A C25A 1_555 1_555
C30A C31A 1_555 1_555

#END
