
#######################################################################
#
#                 Cambridge Crystallographic Data Centre
#                                CCDC 
#
#######################################################################
#
# If this CIF has been generated from an entry in the Cambridge 
# Structural Database, then it will include bibliographic, chemical, 
# crystal, experimental, refinement or atomic coordinate data resulting 
# from the CCDC's data processing and validation procedures.
#
#######################################################################

data_KUBYUC
_symmetry_cell_setting           monoclinic
_symmetry_space_group_name_H-M   'P 21/n'
_symmetry_Int_Tables_number      14
_space_group_name_Hall           '-P 2yn'
loop_
_symmetry_equiv_pos_site_id
_symmetry_equiv_pos_as_xyz
1 x,y,z
2 1/2-x,1/2+y,1/2-z
3 -x,-y,-z
4 1/2+x,1/2-y,1/2+z
_cell_length_a                   11.6336(15)
_cell_length_b                   8.7105(12)
_cell_length_c                   14.0802(18)
_cell_angle_alpha                90
_cell_angle_beta                 105.263(3)
_cell_angle_gamma                90
_cell_volume                     1376.48
loop_
_atom_site_label
_atom_site_type_symbol
_atom_site_fract_x
_atom_site_fract_y
_atom_site_fract_z
Ni1 Ni 0.81072(6) 0.37284(8) 0.03230(4)
O1 O 0.7954(3) 0.4243(4) 0.1765(2)
O2 O 0.9310(3) 0.5348(4) 0.1188(2)
O3 O 1.1892(3) 0.9626(4) 0.4798(2)
O4 O 1.2066(3) 0.9162(5) 0.3273(3)
O5 O 0.8524(3) 0.3629(4) -0.0996(2)
H1 H 0.9271 0.3750 -0.0898
H2 H 0.8178 0.4364 -0.1356
N1 N 0.8234(3) 0.6923(5) 0.5069(3)
H5 H 0.8736 0.7163 0.5654
N2 N 0.5839(4) 0.6903(5) 0.4210(3)
N3 N 0.4660(4) 0.5074(6) 0.3478(3)
H6 H 0.4041 0.4621 0.3118
C1 C 0.8902(4) 0.6876(6) 0.4356(4)
C2 C 0.8574(4) 0.5967(5) 0.3518(4)
H7 H 0.7919 0.5317 0.3423
C3 C 0.9225(4) 0.6031(6) 0.2819(4)
C4 C 1.0209(4) 0.6987(6) 0.2969(4)
H8 H 1.0652 0.7019 0.2507
C5 C 1.0536(4) 0.7897(6) 0.3805(4)
C6 C 0.9875(4) 0.7836(6) 0.4488(4)
H9 H 1.0089 0.8452 0.5047
C7 C 0.7576(5) 0.5503(7) 0.5196(4)
H10 H 0.7497 0.5451 0.5864
H11 H 0.8017 0.4607 0.5082
C8 C 0.6369(5) 0.5512(7) 0.4484(4)
C9 C 0.5664(5) 0.4372(7) 0.4033(4)
H12 H 0.5823 0.3325 0.4085
C10 C 0.4814(5) 0.6605(7) 0.3594(4)
H13 H 0.4267 0.7341 0.3280
C11 C 0.8811(4) 0.5158(6) 0.1873(4)
C12 C 1.1584(4) 0.8980(6) 0.3971(4)
Ni1A Ni 0.68928(6) 0.87284(8) 0.46770(4)
Ni1C Ni 1.31072(6) 1.12716(8) 0.53230(4)
O3C O 0.6892(3) 0.5374(4) -0.0202(2)
N1A N 0.6766(3) 0.1923(5) -0.0069(3)
H5A H 0.6264 0.2163 -0.0654
N2A N 0.9161(4) 0.1903(5) 0.0790(3)
O6 O 0.9130(5) 0.1743(7) 0.3225(4)
H3 H 0.8596 0.1082 0.3236
H4 H 0.8817 0.2447 0.2821
loop_
_geom_bond_atom_site_label_1
_geom_bond_atom_site_label_2
_geom_bond_site_symmetry_1
_geom_bond_site_symmetry_2
Ni1 O1 1_555 1_555
O1 C11 1_555 1_555
O2 Ni1 1_555 1_555
O3 C12 1_555 1_555
O4 C12 1_555 1_555
O5 Ni1 1_555 1_555
H1 O5 1_555 1_555
H2 O5 1_555 1_555
O6 H3 1_555 1_555
H4 O6 1_555 1_555
N1 H5 1_555 1_555
N2 C8 1_555 1_555
N3 H6 1_555 1_555
C1 N1 1_555 1_555
C2 C1 1_555 1_555
H7 C2 1_555 1_555
C3 C2 1_555 1_555
C4 C3 1_555 1_555
H8 C4 1_555 1_555
C5 C4 1_555 1_555
C6 C1 1_555 1_555
H9 C6 1_555 1_555
C7 N1 1_555 1_555
H10 C7 1_555 1_555
H11 C7 1_555 1_555
C8 C7 1_555 1_555
C9 N3 1_555 1_555
H12 C9 1_555 1_555
C10 N2 1_555 1_555
H13 C10 1_555 1_555
C11 O2 1_555 1_555
C12 C5 1_555 1_555
Ni1A N1 1_555 1_555
Ni1C O3 1_555 1_555
O3C Ni1 1_555 1_555
N1A Ni1 1_555 1_555
H5A N1A 1_555 1_555
N2A Ni1 1_555 1_555
N2 Ni1A 1_555 1_555
N3 C10 1_555 1_555
C3 C11 1_555 1_555
C5 C6 1_555 1_555
C8 C9 1_555 1_555

#END
