
#######################################################################
#
#                 Cambridge Crystallographic Data Centre
#                                CCDC 
#
#######################################################################
#
# If this CIF has been generated from an entry in the Cambridge 
# Structural Database, then it will include bibliographic, chemical, 
# crystal, experimental, refinement or atomic coordinate data resulting 
# from the CCDC's data processing and validation procedures.
#
#######################################################################

data_KUBYOW
_symmetry_cell_setting           triclinic
_symmetry_space_group_name_H-M   'P -1'
_symmetry_Int_Tables_number      2
_space_group_name_Hall           '-P 1'
loop_
_symmetry_equiv_pos_site_id
_symmetry_equiv_pos_as_xyz
1 x,y,z
2 -x,-y,-z
_cell_length_a                   6.5407(2)
_cell_length_b                   9.8108(3)
_cell_length_c                   10.3024(3)
_cell_angle_alpha                113.931(5)
_cell_angle_beta                 99.232(5)
_cell_angle_gamma                99.090(5)
_cell_volume                     577.923
loop_
_atom_site_label
_atom_site_type_symbol
_atom_site_fract_x
_atom_site_fract_y
_atom_site_fract_z
Cu1 Cu 0.5000 0.5000 0.5000
O3 O 0.65750(18) 0.70421(14) 0.53109(14)
O4 O 0.4717(2) 0.86112(16) 0.65451(16)
C4 C 0.6216(3) 0.8345(2) 0.59205(19)
C5 C 0.7697(3) 0.9694(2) 0.5903(2)
H5 H 0.8470 1.0397 0.6904
H6 H 0.6829 1.0239 0.5538
C6 C 0.9318(3) 0.9285(2) 0.4986(2)
H7 H 0.8569 0.8575 0.3982
H8 H 1.0237 0.8775 0.5364
N1 N 0.2506(2) 0.50279(17) 0.35791(16)
C7 C 0.0511(3) 0.4332(2) 0.34880(19)
H9 H 0.0335 0.3730 0.3984
C8 C -0.1306(3) 0.4470(2) 0.26855(19)
C9 C -0.1019(3) 0.5305(2) 0.1883(2)
H10 H -0.2191 0.5408 0.1318
C10 C 0.1037(3) 0.5978(2) 0.1940(2)
H11 H 0.1257 0.6527 0.1400
C11 C 0.2766(3) 0.5834(2) 0.2798(2)
H12 H 0.4140 0.6305 0.2838
N2 N -0.3330(2) 0.38387(18) 0.27390(17)
H13 H -0.3467 0.3359 0.3270
H14 H -0.4446 0.3928 0.2241
Cu1_2 Cu -0.5000 0.5000 0.5000
Cu1_3 Cu 1.5000 1.5000 0.5000
Cu1_4 Cu 1.5000 0.5000 0.5000
O3A O 1.34250(18) 1.29579(14) 0.46891(14)
O3A_2 O 0.34250(18) 0.29579(14) 0.46891(14)
O4A O 1.5283(2) 1.13888(16) 0.34549(16)
C4A C 1.3784(3) 1.1655(2) 0.40795(19)
C5A C 1.2303(3) 1.0306(2) 0.4097(2)
H5A H 1.1530 0.9603 0.3096
H6A H 1.3171 0.9761 0.4462
C6A C 1.0682(3) 1.0715(2) 0.5014(2)
H7A H 1.1431 1.1425 0.6018
H8A H 0.9763 1.1225 0.4636
N1A N 0.7494(2) 0.49721(17) 0.64209(16)
C7A C 0.9489(3) 0.5668(2) 0.65120(19)
H9A H 0.9665 0.6270 0.6016
C8A C 1.1306(3) 0.5530(2) 0.73145(19)
C9A C 1.1019(3) 0.4695(2) 0.8117(2)
H10A H 1.2191 0.4592 0.8682
C10A C 0.8963(3) 0.4022(2) 0.8060(2)
H11A H 0.8743 0.3473 0.8600
C11A C 0.7234(3) 0.4166(2) 0.7202(2)
H12A H 0.5860 0.3695 0.7162
N2A N 1.3330(2) 0.61613(18) 0.72610(17)
N2_2 N 0.6670(2) 0.38387(18) 0.27390(17)
N2A_2 N 0.3330(2) 0.61613(18) 0.72610(17)
H13A H 1.3467 0.6641 0.6730
H13_2 H 0.6533 0.3359 0.3270
H13A_2 H 0.3467 0.6641 0.6730
H14A H 1.4446 0.6072 0.7759
H14_2 H 0.5554 0.3928 0.2241
H14A_2 H 0.4446 0.6072 0.7759
O1 O 0.4898(2) 0.14410(18) -0.18495(18)
O2 O 0.3628(2) 0.30093(17) -0.01505(16)
C1 C 0.3631(3) 0.1700(2) -0.0950(2)
C2 C 0.2224(3) 0.0310(2) -0.0968(2)
H1 H 0.3126 -0.0262 -0.0672
H2 H 0.1388 -0.0355 -0.1964
C3 C 0.0708(3) 0.0714(2) 0.0037(2)
H3 H 0.1538 0.1356 0.1038
H4 H -0.0182 0.1300 -0.0245
H15 H 0.484(5) 0.043(4) -0.240(3)
O1A O -0.4898(2) -0.14410(18) 0.18495(18)
O2A O -0.3628(2) -0.30093(17) 0.01505(16)
C1A C -0.3631(3) -0.1700(2) 0.0950(2)
C2A C -0.2224(3) -0.0310(2) 0.0968(2)
H1A H -0.3126 0.0262 0.0672
H2A H -0.1388 0.0355 0.1964
C3A C -0.0708(3) -0.0714(2) -0.0037(2)
H3A H -0.1538 -0.1356 -0.1038
H4A H 0.0182 -0.1300 0.0245
H15A H -0.484(5) -0.043(4) 0.240(3)
loop_
_geom_bond_atom_site_label_1
_geom_bond_atom_site_label_2
_geom_bond_site_symmetry_1
_geom_bond_site_symmetry_2
Cu1 O3 1_555 1_555
O1 C1 1_555 1_555
O2 C1 1_555 1_555
C1 C2 1_555 1_555
C2 H1 1_555 1_555
H2 C2 1_555 1_555
C3 C2 1_555 1_555
H3 C3 1_555 1_555
H4 C3 1_555 1_555
O3 C4 1_555 1_555
O4 C4 1_555 1_555
C4 C5 1_555 1_555
C5 H5 1_555 1_555
H6 C5 1_555 1_555
C6 C5 1_555 1_555
H7 C6 1_555 1_555
H8 C6 1_555 1_555
N1 Cu1 1_555 1_555
C7 N1 1_555 1_555
H9 C7 1_555 1_555
C8 C7 1_555 1_555
C9 C8 1_555 1_555
H10 C9 1_555 1_555
C10 C9 1_555 1_555
H11 C10 1_555 1_555
C11 N1 1_555 1_555
H12 C11 1_555 1_555
N2 C8 1_555 1_555
H13 N2 1_555 1_555
H14 N2 1_555 1_555
H15 O1 1_555 1_555
Cu1_2 N2 1_555 1_555
Cu1_3 O3A 1_555 1_555
Cu1_4 N2A 1_555 1_555
O1A C1A 1_555 1_555
O2A C1A 1_555 1_555
C1A C2A 1_555 1_555
C2A H1A 1_555 1_555
H2A C2A 1_555 1_555
C3A C3 1_555 1_555
H3A C3A 1_555 1_555
H4A C3A 1_555 1_555
O3A C4A 1_555 1_555
O3A_2 Cu1 1_555 1_555
O4A C4A 1_555 1_555
C4A C5A 1_555 1_555
C5A H5A 1_555 1_555
H6A C5A 1_555 1_555
C6A C6 1_555 1_555
H7A C6A 1_555 1_555
H8A C6A 1_555 1_555
N1A Cu1 1_555 1_555
C7A N1A 1_555 1_555
H9A C7A 1_555 1_555
C8A C7A 1_555 1_555
C9A C8A 1_555 1_555
H10A C9A 1_555 1_555
C10A C9A 1_555 1_555
H11A C10A 1_555 1_555
C11A N1A 1_555 1_555
H12A C11A 1_555 1_555
N2A C8A 1_555 1_555
N2_2 Cu1 1_555 1_555
N2A_2 Cu1 1_555 1_555
H13A N2A 1_555 1_555
H13_2 N2_2 1_555 1_555
H13A_2 N2A_2 1_555 1_555
H14A N2A 1_555 1_555
H14_2 N2_2 1_555 1_555
H14A_2 N2A_2 1_555 1_555
H15A O1A 1_555 1_555
C10 C11 1_555 1_555
C2A C3A 1_555 1_555
C5A C6A 1_555 1_555
C10A C11A 1_555 1_555

#END
