
#######################################################################
#
#                 Cambridge Crystallographic Data Centre
#                                CCDC 
#
#######################################################################
#
# If this CIF has been generated from an entry in the Cambridge 
# Structural Database, then it will include bibliographic, chemical, 
# crystal, experimental, refinement or atomic coordinate data resulting 
# from the CCDC's data processing and validation procedures.
#
#######################################################################

data_KUBZAJ
_symmetry_cell_setting           monoclinic
_symmetry_space_group_name_H-M   'P 21/n'
_symmetry_Int_Tables_number      14
_space_group_name_Hall           '-P 2yn'
loop_
_symmetry_equiv_pos_site_id
_symmetry_equiv_pos_as_xyz
1 x,y,z
2 1/2-x,1/2+y,1/2-z
3 -x,-y,-z
4 1/2+x,1/2-y,1/2+z
_cell_length_a                   11.6065(18)
_cell_length_b                   8.7508(13)
_cell_length_c                   14.206(2)
_cell_angle_alpha                90
_cell_angle_beta                 105.219(4)
_cell_angle_gamma                90
_cell_volume                     1392.25
loop_
_atom_site_label
_atom_site_type_symbol
_atom_site_fract_x
_atom_site_fract_y
_atom_site_fract_z
Co1 Co 0.68928(7) 1.12565(8) 0.96817(5)
N1 N 0.6724(4) 0.8151(5) 0.4907(3)
H1 H 0.6712 0.7365 0.4541
N2 N 0.9156(4) 0.8124(5) 0.5784(3)
N3 N 1.0322(5) 0.9942(5) 0.6524(3)
H2 H 1.0937 1.0382 0.6896
O1 O 0.7058(4) 1.0732(4) 0.8230(2)
O2 O 0.5656(3) 0.9667(4) 0.8776(2)
O3 O 0.3112(4) 0.5384(4) 0.5230(3)
O4 O 0.2968(3) 0.5819(4) 0.6741(2)
O5 O 0.6455(3) 1.1358(4) 1.1009(2)
H3 H 0.7069 1.1537 1.1475
H4 H 0.6116 1.0547 1.1128
C1 C 0.6079(5) 0.8166(6) 0.5636(4)
C2 C 0.6417(5) 0.9073(5) 0.6468(3)
H7 H 0.7060 0.9740 0.6557
C3 C 0.5763(5) 0.8962(6) 0.7173(3)
C4 C 0.4791(5) 0.8006(5) 0.7028(4)
H8 H 0.4352 0.7964 0.7489
C5 C 0.4465(5) 0.7108(5) 0.6202(4)
C6 C 0.5123(5) 0.7200(5) 0.5519(4)
H9 H 0.4910 0.6589 0.4965
C7 C 0.7407(5) 0.9521(6) 0.4803(4)
H10 H 0.6971 1.0422 0.4910
H11 H 0.7496 0.9570 0.4143
C8 C 0.8607(6) 0.9518(6) 0.5507(4)
C9 C 0.9329(6) 1.0662(6) 0.5970(4)
H12 H 0.9180 1.1707 0.5920
C10 C 1.0172(6) 0.8435(6) 0.6388(4)
H13 H 1.0728 0.7704 0.6691
C11 C 0.6191(5) 0.9854(6) 0.8109(4)
C12 C 0.3430(5) 0.6031(6) 0.6044(4)
Co1A Co 0.81072(7) 0.62565(8) 0.53183(5)
Co1C Co 0.18928(7) 0.37435(8) 0.46817(5)
N1A N 0.8276(4) 1.3151(5) 1.0093(3)
H1A H 0.8288 1.2365 1.0459
N2A N 0.5844(4) 1.3124(5) 0.9216(3)
O3C O 0.8112(4) 0.9616(4) 1.0230(3)
O6 O 0.5859(5) 0.3246(5) 0.6782(3)
H5 H 0.6175 0.2542 0.7178
H6 H 0.6393 0.3905 0.6770
loop_
_geom_bond_atom_site_label_1
_geom_bond_atom_site_label_2
_geom_bond_site_symmetry_1
_geom_bond_site_symmetry_2
Co1 O1 1_555 1_555
N1 H1 1_555 1_555
N2 C8 1_555 1_555
N3 H2 1_555 1_555
O1 C11 1_555 1_555
O2 Co1 1_555 1_555
O3 C12 1_555 1_555
O4 C12 1_555 1_555
O5 Co1 1_555 1_555
H3 O5 1_555 1_555
H4 O5 1_555 1_555
O6 H5 1_555 1_555
H6 O6 1_555 1_555
C1 N1 1_555 1_555
C2 C1 1_555 1_555
H7 C2 1_555 1_555
C3 C2 1_555 1_555
C4 C3 1_555 1_555
H8 C4 1_555 1_555
C5 C4 1_555 1_555
C6 C1 1_555 1_555
H9 C6 1_555 1_555
C7 N1 1_555 1_555
H10 C7 1_555 1_555
H11 C7 1_555 1_555
C8 C7 1_555 1_555
C9 N3 1_555 1_555
H12 C9 1_555 1_555
C10 N2 1_555 1_555
H13 C10 1_555 1_555
C11 O2 1_555 1_555
C12 C5 1_555 1_555
Co1A N1 1_555 1_555
Co1C O3 1_555 1_555
N1A Co1 1_555 1_555
H1A N1A 1_555 1_555
N2A Co1 1_555 1_555
O3C Co1 1_555 1_555
N2 Co1A 1_555 1_555
N3 C10 1_555 1_555
C3 C11 1_555 1_555
C5 C6 1_555 1_555
C8 C9 1_555 1_555

#END
