
#######################################################################
#
#                 Cambridge Crystallographic Data Centre
#                                CCDC 
#
#######################################################################
#
# If this CIF has been generated from an entry in the Cambridge 
# Structural Database, then it will include bibliographic, chemical, 
# crystal, experimental, refinement or atomic coordinate data resulting 
# from the CCDC's data processing and validation procedures.
#
#######################################################################

data_KUCJAU
_symmetry_cell_setting           monoclinic
_symmetry_space_group_name_H-M   'P 21/n'
_symmetry_Int_Tables_number      14
_space_group_name_Hall           '-P 2yn'
loop_
_symmetry_equiv_pos_site_id
_symmetry_equiv_pos_as_xyz
1 x,y,z
2 1/2-x,1/2+y,1/2-z
3 -x,-y,-z
4 1/2+x,1/2-y,1/2+z
_cell_length_a                   15.2130(8)
_cell_length_b                   17.8271(10)
_cell_length_c                   17.2771(10)
_cell_angle_alpha                90
_cell_angle_beta                 103.2550(10)
_cell_angle_gamma                90
_cell_volume                     4560.78
loop_
_atom_site_label
_atom_site_type_symbol
_atom_site_fract_x
_atom_site_fract_y
_atom_site_fract_z
Mn1 Mn 0.50647(3) 0.39668(3) 0.25909(3)
Mn2 Mn 0.84157(3) 0.30988(3) 0.51968(3)
N1 N 0.58115(17) 0.14350(14) 0.27839(15)
N2 N 0.75248(16) 0.25521(15) 0.26539(15)
N3 N 0.41660(18) 0.35803(17) 0.33691(17)
N4 N 0.4807(2) 0.49730(16) 0.33429(17)
N5 N 0.40867(16) 0.45766(14) 0.15997(15)
N6 N 0.58871(16) 0.46333(14) 0.19171(16)
N7 N 0.88074(18) 0.41747(15) 0.46712(16)
N8 N 0.83728(18) 0.40169(16) 0.60774(16)
O1 O 0.62628(14) 0.36882(12) 0.34359(12)
O2 O 0.70431(14) 0.33313(12) 0.46216(12)
O3 O 0.47254(13) 0.29560(11) 0.18529(12)
O4 O 0.47781(13) 0.22520(12) 0.07947(12)
O5 O 0.80176(16) 0.22267(16) 0.59079(17)
O6 O 0.86040(15) 0.24439(14) 0.41925(14)
C1 C 0.61885(18) 0.21022(16) 0.30117(17)
C2 C 0.62385(19) 0.24058(16) 0.37625(17)
C3 C 0.5948(2) 0.19654(19) 0.43180(19)
H1 H 0.6002 0.2136 0.4835
C4 C 0.5579(2) 0.1273(2) 0.4092(2)
H2 H 0.5390 0.0964 0.4456
C5 C 0.5496(2) 0.10458(18) 0.3322(2)
H3 H 0.5203 0.0594 0.3165
C6 C 0.65481(19) 0.31964(17) 0.39517(18)
C7 C 0.66238(18) 0.24615(16) 0.24171(16)
C8 C 0.61546(18) 0.26122(16) 0.16427(17)
C9 C 0.6642(2) 0.28193(18) 0.10940(18)
H4 H 0.6347 0.2899 0.0566
C10 C 0.7558(2) 0.2908(2) 0.1327(2)
H5 H 0.7895 0.3049 0.0964
C11 C 0.7970(2) 0.2781(2) 0.2116(2)
H6 H 0.8589 0.2860 0.2280
C12 C 0.51424(19) 0.25945(16) 0.14140(17)
C13 C 0.3926(2) 0.2862(2) 0.3413(3)
H7 H 0.4050 0.2529 0.3038
C14 C 0.3507(3) 0.2588(3) 0.3981(3)
H8 H 0.3358 0.2083 0.4000
C15 C 0.3321(3) 0.3093(4) 0.4516(3)
H9 H 0.3027 0.2932 0.4902
C16 C 0.3561(3) 0.3830(3) 0.4494(3)
H10 H 0.3442 0.4167 0.4867
C17 C 0.3982(2) 0.4066(2) 0.3907(2)
C18 C 0.4272(2) 0.4852(2) 0.3845(2)
C19 C 0.4005(3) 0.5442(3) 0.4270(2)
H11 H 0.3634 0.5352 0.4619
C20 C 0.4294(4) 0.6146(3) 0.4167(3)
H12 H 0.4123 0.6542 0.4450
C21 C 0.4832(4) 0.6275(2) 0.3654(3)
H13 H 0.5025 0.6758 0.3573
C22 C 0.5084(3) 0.5671(2) 0.3256(2)
H14 H 0.5464 0.5754 0.2912
C23 C 0.3189(2) 0.4518(2) 0.1461(2)
H15 H 0.2943 0.4183 0.1766
C24 C 0.2615(2) 0.4930(2) 0.0890(2)
H16 H 0.1992 0.4871 0.0804
C25 C 0.2975(3) 0.5428(2) 0.0452(2)
H17 H 0.2601 0.5719 0.0065
C26 C 0.3899(3) 0.5496(2) 0.0586(2)
H18 H 0.4155 0.5833 0.0290
C27 C 0.4443(2) 0.50607(17) 0.11647(19)
C28 C 0.5449(2) 0.50994(17) 0.13447(19)
C29 C 0.5914(2) 0.5590(2) 0.0968(2)
H19 H 0.5602 0.5918 0.0582
C30 C 0.6844(3) 0.5592(2) 0.1168(3)
H20 H 0.7165 0.5921 0.0919
C31 C 0.7287(2) 0.5108(2) 0.1731(3)
H21 H 0.7915 0.5092 0.1866
C32 C 0.6788(2) 0.4645(2) 0.2094(2)
H22 H 0.7093 0.4321 0.2487
C33 C 0.8991(2) 0.4222(2) 0.3953(2)
H23 H 0.9048 0.3780 0.3684
C34 C 0.9101(3) 0.4891(3) 0.3589(3)
H24 H 0.9229 0.4902 0.3088
C35 C 0.9017(3) 0.5534(3) 0.3985(3)
H25 H 0.9081 0.5995 0.3752
C36 C 0.8839(3) 0.5507(2) 0.4725(3)
H26 H 0.8790 0.5947 0.5001
C37 C 0.8730(2) 0.48041(19) 0.5064(2)
C38 C 0.8546(2) 0.47193(19) 0.5859(2)
C39 C 0.8559(3) 0.5316(2) 0.6374(3)
H27 H 0.8686 0.5798 0.6225
C40 C 0.8383(3) 0.5190(3) 0.7106(4)
H28 H 0.8394 0.5588 0.7457
C41 C 0.8191(3) 0.4487(3) 0.7321(3)
H29 H 0.8062 0.4397 0.7814
C42 C 0.8192(3) 0.3909(2) 0.6790(2)
H30 H 0.8062 0.3426 0.6934
H31 H 0.8485(15) 0.213(2) 0.6237(18)
H32 H 0.7603(19) 0.222(2) 0.614(2)
H33 H 0.9100(14) 0.238(2) 0.409(2)
H34 H 0.824(2) 0.244(2) 0.3760(12)
Mn2C Mn 0.34157(3) 0.19012(3) 0.01968(3)
O4C O 0.97781(13) 0.27480(12) 0.57947(12)
O7 O 0.1760(2) 0.2949(2) 0.1751(2)
H35 H 0.170(3) 0.270(2) 0.2130(17)
H36 H 0.1292(16) 0.313(2) 0.149(2)
Cl1 Cl 0.96342(6) 0.39424(5) 0.10026(6)
O8 O 0.9300(2) 0.41467(17) 0.1670(2)
O9 O 0.9055(2) 0.4174(3) 0.0303(2)
O10 O 0.9703(3) 0.31584(17) 0.0973(2)
O11 O 1.04887(19) 0.4258(2) 0.1060(2)
Cl2 Cl 0.57711(7) 0.26019(6) 0.84692(6)
O12 O 0.5030(3) 0.3040(2) 0.8421(4)
O13 O 0.5519(4) 0.1948(2) 0.8036(3)
O14 O 0.6153(5) 0.2411(4) 0.9222(2)
O15 O 0.6384(2) 0.3005(2) 0.8144(3)
loop_
_geom_bond_atom_site_label_1
_geom_bond_atom_site_label_2
_geom_bond_site_symmetry_1
_geom_bond_site_symmetry_2
Mn1 N3 1_555 1_555
Mn2 N7 1_555 1_555
N1 C1 1_555 1_555
N2 C7 1_555 1_555
N3 C13 1_555 1_555
N4 Mn1 1_555 1_555
N5 Mn1 1_555 1_555
N6 Mn1 1_555 1_555
N7 C33 1_555 1_555
N8 Mn2 1_555 1_555
O1 Mn1 1_555 1_555
O2 Mn2 1_555 1_555
O3 Mn1 1_555 1_555
O4 C12 1_555 1_555
O5 Mn2 1_555 1_555
O6 Mn2 1_555 1_555
O7 H35 1_555 1_555
C1 C2 1_555 1_555
C2 C3 1_555 1_555
C3 H1 1_555 1_555
C4 C3 1_555 1_555
H2 C4 1_555 1_555
C5 N1 1_555 1_555
H3 C5 1_555 1_555
C6 O1 1_555 1_555
C7 C1 1_555 1_555
C8 C7 1_555 1_555
C9 C8 1_555 1_555
H4 C9 1_555 1_555
C10 C9 1_555 1_555
H5 C10 1_555 1_555
C11 N2 1_555 1_555
H6 C11 1_555 1_555
C12 O3 1_555 1_555
C13 H7 1_555 1_555
C14 C13 1_555 1_555
H8 C14 1_555 1_555
C15 C14 1_555 1_555
H9 C15 1_555 1_555
C16 C15 1_555 1_555
H10 C16 1_555 1_555
C17 N3 1_555 1_555
C18 N4 1_555 1_555
C19 C18 1_555 1_555
H11 C19 1_555 1_555
C20 C19 1_555 1_555
H12 C20 1_555 1_555
C21 C20 1_555 1_555
H13 C21 1_555 1_555
C22 N4 1_555 1_555
H14 C22 1_555 1_555
C23 N5 1_555 1_555
H15 C23 1_555 1_555
C24 C23 1_555 1_555
H16 C24 1_555 1_555
C25 C24 1_555 1_555
H17 C25 1_555 1_555
C26 C25 1_555 1_555
H18 C26 1_555 1_555
C27 N5 1_555 1_555
C28 N6 1_555 1_555
C29 C28 1_555 1_555
H19 C29 1_555 1_555
C30 C29 1_555 1_555
H20 C30 1_555 1_555
C31 C30 1_555 1_555
H21 C31 1_555 1_555
C32 N6 1_555 1_555
H22 C32 1_555 1_555
C33 H23 1_555 1_555
C34 C33 1_555 1_555
H24 C34 1_555 1_555
C35 C34 1_555 1_555
H25 C35 1_555 1_555
C36 C35 1_555 1_555
H26 C36 1_555 1_555
C37 N7 1_555 1_555
C38 N8 1_555 1_555
C39 C38 1_555 1_555
H27 C39 1_555 1_555
C40 C39 1_555 1_555
H28 C40 1_555 1_555
C41 C40 1_555 1_555
H29 C41 1_555 1_555
C42 N8 1_555 1_555
H30 C42 1_555 1_555
Cl1 O8 1_555 1_555
Cl2 O12 1_555 1_555
O9 Cl1 1_555 1_555
O10 Cl1 1_555 1_555
O11 Cl1 1_555 1_555
O13 Cl2 1_555 1_555
O14 Cl2 1_555 1_555
O15 Cl2 1_555 1_555
H31 O5 1_555 1_555
H32 O5 1_555 1_555
H33 O6 1_555 1_555
H34 O6 1_555 1_555
H36 O7 1_555 1_555
Mn2C O4 1_555 1_555
O4C Mn2 1_555 1_555
O2 C6 1_555 1_555
C2 C6 1_555 1_555
C4 C5 1_555 1_555
C8 C12 1_555 1_555
C10 C11 1_555 1_555
C16 C17 1_555 1_555
C17 C18 1_555 1_555
C21 C22 1_555 1_555
C26 C27 1_555 1_555
C27 C28 1_555 1_555
C31 C32 1_555 1_555
C36 C37 1_555 1_555
C37 C38 1_555 1_555
C41 C42 1_555 1_555

#END
