
#######################################################################
#
#                 Cambridge Crystallographic Data Centre
#                                CCDC 
#
#######################################################################
#
# If this CIF has been generated from an entry in the Cambridge 
# Structural Database, then it will include bibliographic, chemical, 
# crystal, experimental, refinement or atomic coordinate data resulting 
# from the CCDC's data processing and validation procedures.
#
#######################################################################

data_KUCJIC
_symmetry_cell_setting           orthorhombic
_symmetry_space_group_name_H-M   'P b c n'
_symmetry_Int_Tables_number      60
_space_group_name_Hall           '-P 2n 2ab'
loop_
_symmetry_equiv_pos_site_id
_symmetry_equiv_pos_as_xyz
1 x,y,z
2 1/2-x,1/2-y,1/2+z
3 -x,y,1/2-z
4 1/2+x,1/2-y,-z
5 -x,-y,-z
6 1/2+x,1/2+y,1/2-z
7 x,-y,1/2+z
8 1/2-x,1/2+y,z
_cell_length_a                   6.4536(6)
_cell_length_b                   15.1013(14)
_cell_length_c                   11.9578(11)
_cell_angle_alpha                90
_cell_angle_beta                 90
_cell_angle_gamma                90
_cell_volume                     1165.38
loop_
_atom_site_label
_atom_site_type_symbol
_atom_site_fract_x
_atom_site_fract_y
_atom_site_fract_z
Cu1 Cu 0.0000 0.04748(3) 0.7500
N1 N 0.1583(3) 0.14797(14) 0.8129(2)
O1 O 0.3150(3) 0.45449(12) 0.80942(18)
O2 O 0.1595(3) 0.39869(13) 0.65722(18)
O3 O 0.1946(4) 0.04860(17) 0.5644(2)
C1 C 0.1004(4) 0.23096(17) 0.7821(2)
C2 C 0.2290(4) 0.30290(17) 0.8096(2)
C3 C 0.3949(4) 0.28734(19) 0.8810(2)
H1 H 0.4743 0.3348 0.9057
C4 C 0.4441(5) 0.20314(19) 0.9158(3)
H2 H 0.5535 0.1930 0.9648
C5 C 0.3263(5) 0.13460(19) 0.8757(3)
H3 H 0.3647 0.0768 0.8929
C6 C 0.2262(4) 0.39289(17) 0.7532(3)
H4 H 0.252(6) 0.0009(19) 0.586(4)
H5 H 0.170(7) 0.041(3) 0.4962(18)
Cu1E Cu 0.5000 0.54748(3) 0.7500
Cu1E_2 Cu -0.5000 0.54748(3) 0.7500
N1B N -0.1583(3) 0.14797(14) 0.6871(2)
O1B O -0.3150(3) 0.45449(12) 0.69058(18)
O1E O -0.1850(3) -0.04551(12) 0.69058(18)
O1G O 0.1850(3) -0.04551(12) 0.80942(18)
O2B O -0.1595(3) 0.39869(13) 0.84278(18)
O3B O -0.1946(4) 0.04860(17) 0.9356(2)
C1B C -0.1004(4) 0.23096(17) 0.7179(2)
C2B C -0.2290(4) 0.30290(17) 0.6904(2)
C3B C -0.3949(4) 0.28734(19) 0.6190(2)
H1B H -0.4743 0.3348 0.5943
C4B C -0.4441(5) 0.20314(19) 0.5842(3)
H2B H -0.5535 0.1930 0.5352
C5B C -0.3263(5) 0.13460(19) 0.6243(3)
H3B H -0.3647 0.0768 0.6071
C6B C -0.2262(4) 0.39289(17) 0.7468(3)
H4B H -0.252(6) 0.0009(19) 0.914(4)
H5B H -0.170(7) 0.041(3) 1.0038(18)
loop_
_geom_bond_atom_site_label_1
_geom_bond_atom_site_label_2
_geom_bond_site_symmetry_1
_geom_bond_site_symmetry_2
Cu1 N1 1_555 1_555
N1 C1 1_555 1_555
O1 C6 1_555 1_555
O2 C6 1_555 1_555
O3 Cu1 1_555 1_555
C1 C2 1_555 1_555
C2 C3 1_555 1_555
C3 H1 1_555 1_555
C4 C3 1_555 1_555
H2 C4 1_555 1_555
C5 N1 1_555 1_555
H3 C5 1_555 1_555
C6 C2 1_555 1_555
H4 O3 1_555 1_555
H5 O3 1_555 1_555
Cu1E O1 1_555 1_555
Cu1E_2 O1B 1_555 1_555
N1B Cu1 1_555 1_555
O1B C6B 1_555 1_555
O1E Cu1 1_555 1_555
O1G Cu1 1_555 1_555
O2B C6B 1_555 1_555
O3B Cu1 1_555 1_555
C1B C1 1_555 1_555
C2B C1B 1_555 1_555
C3B C2B 1_555 1_555
H1B C3B 1_555 1_555
C4B C3B 1_555 1_555
H2B C4B 1_555 1_555
C5B N1B 1_555 1_555
H3B C5B 1_555 1_555
C6B C2B 1_555 1_555
H4B O3B 1_555 1_555
H5B O3B 1_555 1_555
C4 C5 1_555 1_555
N1B C1B 1_555 1_555
C4B C5B 1_555 1_555

#END
