
#######################################################################
#
#                 Cambridge Crystallographic Data Centre
#                                CCDC 
#
#######################################################################
#
# If this CIF has been generated from an entry in the Cambridge 
# Structural Database, then it will include bibliographic, chemical, 
# crystal, experimental, refinement or atomic coordinate data resulting 
# from the CCDC's data processing and validation procedures.
#
#######################################################################

data_KUCJUO
_symmetry_cell_setting           monoclinic
_symmetry_space_group_name_H-M   'P 21/n'
_symmetry_Int_Tables_number      14
_space_group_name_Hall           '-P 2yn'
loop_
_symmetry_equiv_pos_site_id
_symmetry_equiv_pos_as_xyz
1 x,y,z
2 1/2-x,1/2+y,1/2-z
3 -x,-y,-z
4 1/2+x,1/2-y,1/2+z
_cell_length_a                   7.4228(6)
_cell_length_b                   15.1542(12)
_cell_length_c                   14.0963(12)
_cell_angle_alpha                90
_cell_angle_beta                 102.0770(10)
_cell_angle_gamma                90
_cell_volume                     1550.55
loop_
_atom_site_label
_atom_site_type_symbol
_atom_site_fract_x
_atom_site_fract_y
_atom_site_fract_z
Cd1 Cd 0.15285(2) 0.485749(11) 0.767213(12)
N1 N 0.4972(3) 0.85997(13) 0.67754(14)
N2 N 0.3864(3) 0.87329(12) 0.84929(14)
O1 O 0.3310(3) 0.55619(12) 0.66243(15)
O2 O 0.2249(2) 0.64148(11) 0.76356(12)
O3 O 0.7261(2) 0.65468(11) 0.81813(13)
O4 O 0.5867(2) 0.57990(11) 0.91828(13)
C1 C 0.3187(3) 0.62997(16) 0.70002(17)
C2 C 0.4122(3) 0.70777(15) 0.66561(16)
C3 C 0.4486(3) 0.70534(17) 0.57271(17)
H1 H 0.4306 0.6534 0.5369
C4 C 0.5113(4) 0.77983(18) 0.53382(18)
H2 H 0.5430 0.7782 0.4734
C5 C 0.5257(3) 0.85639(17) 0.58669(18)
H3 H 0.5567 0.9081 0.5584
C6 C 0.4518(3) 0.78575(15) 0.71873(16)
C7 C 0.4521(3) 0.79577(14) 0.82488(16)
C8 C 0.5198(3) 0.73172(15) 0.89537(16)
C9 C 0.5035(3) 0.74797(17) 0.99006(16)
H4 H 0.5408 0.7053 1.0376
C10 C 0.4324(4) 0.82678(18) 1.01422(17)
H5 H 0.4206 0.8380 1.0775
C11 C 0.3793(3) 0.88850(17) 0.94231(17)
H6 H 0.3367 0.9429 0.9587
C12 C 0.6182(3) 0.64869(15) 0.87484(16)
O5 O 0.4470(3) 0.41780(13) 0.83360(14)
O6 O -0.1333(3) 0.54046(13) 0.70560(15)
O7 O 0.2236(3) 0.52925(12) 0.93178(13)
H7 H 0.497(5) 0.381(2) 0.802(2)
H8 H 0.533(4) 0.452(2) 0.857(3)
H9 H 0.264(5) 0.4876(18) 0.970(2)
H10 H 0.321(3) 0.560(2) 0.935(3)
H14 H -0.187(5) 0.571(2) 0.741(2)
Cd1A Cd 0.34715(2) 0.985749(11) 0.732787(12)
N1A N 0.0028(3) 0.35997(13) 0.82246(14)
N2A N 0.1136(3) 0.37329(12) 0.65071(14)
O8 O 0.5314(3) 0.27828(14) 0.72354(19)
H11 H 0.444(4) 0.242(2) 0.720(3)
H12 H 0.622(4) 0.248(2) 0.715(3)
O9 O 0.5873(3) 0.43619(18) 0.6129(2)
H13 H 0.545(5) 0.3875(15) 0.631(3)
H15 H 0.682(4) 0.472(2) 0.639(3)
loop_
_geom_bond_atom_site_label_1
_geom_bond_atom_site_label_2
_geom_bond_site_symmetry_1
_geom_bond_site_symmetry_2
Cd1 O1 1_555 1_555
N1 C5 1_555 1_555
N2 C7 1_555 1_555
O1 C1 1_555 1_555
O2 Cd1 1_555 1_555
O3 C12 1_555 1_555
O4 C12 1_555 1_555
C1 O2 1_555 1_555
C2 C1 1_555 1_555
C3 C2 1_555 1_555
H1 C3 1_555 1_555
C4 C3 1_555 1_555
H2 C4 1_555 1_555
C5 C4 1_555 1_555
H3 C5 1_555 1_555
C6 N1 1_555 1_555
C7 C6 1_555 1_555
C8 C7 1_555 1_555
C9 C8 1_555 1_555
H4 C9 1_555 1_555
C10 C9 1_555 1_555
H5 C10 1_555 1_555
C11 N2 1_555 1_555
H6 C11 1_555 1_555
C12 C8 1_555 1_555
O5 Cd1 1_555 1_555
O6 Cd1 1_555 1_555
O7 Cd1 1_555 1_555
O8 H11 1_555 1_555
O9 H13 1_555 1_555
H7 O5 1_555 1_555
H8 O5 1_555 1_555
H9 O7 1_555 1_555
H10 O7 1_555 1_555
H12 O8 1_555 1_555
H14 O6 1_555 1_555
H15 O9 1_555 1_555
Cd1A N1 1_555 1_555
N1A Cd1 1_555 1_555
N2A Cd1 1_555 1_555
N2 Cd1A 1_555 1_555
C2 C6 1_555 1_555
C10 C11 1_555 1_555

#END
