
#######################################################################
#
#                 Cambridge Crystallographic Data Centre
#                                CCDC 
#
#######################################################################
#
# If this CIF has been generated from an entry in the Cambridge 
# Structural Database, then it will include bibliographic, chemical, 
# crystal, experimental, refinement or atomic coordinate data resulting 
# from the CCDC's data processing and validation procedures.
#
#######################################################################

data_KUCKAV
_symmetry_cell_setting           monoclinic
_symmetry_space_group_name_H-M   'P 21/c'
_symmetry_Int_Tables_number      14
_space_group_name_Hall           '-P 2ybc'
loop_
_symmetry_equiv_pos_site_id
_symmetry_equiv_pos_as_xyz
1 x,y,z
2 -x,1/2+y,1/2-z
3 -x,-y,-z
4 x,1/2-y,1/2+z
_cell_length_a                   9.4195(10)
_cell_length_b                   11.7262(12)
_cell_length_c                   18.227(2)
_cell_angle_alpha                90
_cell_angle_beta                 99.648(2)
_cell_angle_gamma                90
_cell_volume                     1984.79
loop_
_atom_site_label
_atom_site_type_symbol
_atom_site_fract_x
_atom_site_fract_y
_atom_site_fract_z
Co1 Co 0.28744(4) 0.46225(3) 0.27947(2)
N1 N 0.4001(2) 0.47745(19) 0.18769(15)
N2 N 0.4760(3) 0.55962(19) 0.32469(15)
O1 O 0.7025(3) 0.74508(19) 0.09567(15)
O2 O 0.6116(2) 0.80224(16) 0.19566(12)
O3 O 0.8307(2) 0.49073(19) 0.22143(16)
O4 O 0.9224(2) 0.66080(18) 0.25525(17)
O5 O 0.1059(2) 0.38200(18) 0.21855(15)
O6 O 0.1937(3) 0.45154(19) 0.37358(16)
O7 O 0.1872(2) 0.61158(19) 0.24130(16)
C1 C 0.6253(3) 0.7329(3) 0.14448(19)
C2 C 0.5329(3) 0.6260(2) 0.13833(18)
C3 C 0.4633(4) 0.5973(3) 0.06735(19)
H1 H 0.4824 0.6383 0.0264
C4 C 0.3663(3) 0.5086(3) 0.0573(2)
H2 H 0.3225 0.4870 0.0098
C5 C 0.3358(3) 0.4530(3) 0.1187(2)
H3 H 0.2669 0.3954 0.1120
C6 C 0.5032(3) 0.5600(2) 0.19789(18)
C7 C 0.5687(3) 0.5750(2) 0.27644(18)
C8 C 0.7134(3) 0.6020(2) 0.30087(19)
C9 C 0.7545(4) 0.6317(3) 0.3747(2)
H4 H 0.8483 0.6556 0.3920
C10 C 0.6559(4) 0.6257(3) 0.4230(2)
H5 H 0.6805 0.6496 0.4722
C11 C 0.5213(4) 0.5838(3) 0.3968(2)
H6 H 0.4585 0.5717 0.4303
C12 C 0.8299(3) 0.5833(3) 0.2542(2)
H12 H 0.025(3) 0.411(3) 0.218(2)
H13 H 0.192(5) 0.500(3) 0.4080(18)
H14 H 0.104(4) 0.3109(18) 0.229(2)
H15 H 0.210(4) 0.383(2) 0.389(2)
H16 H 0.099(2) 0.624(3) 0.241(2)
H17 H 0.235(4) 0.672(2) 0.238(2)
Co1A Co 0.71256(4) 0.96225(3) 0.22053(2)
O2A O 0.3884(2) 0.30224(16) 0.30434(12)
N3 N 0.8323(4) 0.1298(3) 0.0315(2)
C13 C 0.8233(4) 0.2204(3) 0.0743(2)
H7 H 0.7796 0.2113 0.1160
C14 C 0.8745(4) 0.3264(3) 0.0607(2)
H8 H 0.8651 0.3868 0.0926
C15 C 0.9404(4) 0.3429(3) -0.0012(2)
C16 C 0.9465(4) 0.2490(3) -0.0469(2)
H9 H 0.9871 0.2558 -0.0898
C17 C 0.8926(5) 0.1463(3) -0.0285(3)
H10 H 0.8986 0.0846 -0.0599
C18 C 0.9972(4) 0.4528(3) -0.0213(2)
H11 H 1.0316 0.4576 -0.0662
N3B N 1.1677(4) 0.8702(3) -0.0315(2)
C13B C 1.1767(4) 0.7796(3) -0.0743(2)
H7B H 1.2204 0.7887 -0.1160
C14B C 1.1255(4) 0.6736(3) -0.0607(2)
H8B H 1.1349 0.6132 -0.0926
C15B C 1.0596(4) 0.6571(3) 0.0012(2)
C16B C 1.0535(4) 0.7510(3) 0.0469(2)
H9B H 1.0129 0.7442 0.0898
C17B C 1.1074(5) 0.8537(3) 0.0285(3)
H10B H 1.1014 0.9154 0.0599
C18B C 1.0028(4) 0.5472(3) 0.0213(2)
H11B H 0.9684 0.5424 0.0662
O8 O 0.6685(3) 0.3030(2) 0.2544(3)
H18 H 0.587(3) 0.314(4) 0.262(2)
H19 H 0.706(4) 0.360(2) 0.238(2)
loop_
_geom_bond_atom_site_label_1
_geom_bond_atom_site_label_2
_geom_bond_site_symmetry_1
_geom_bond_site_symmetry_2
Co1 N1 1_555 1_555
N1 C5 1_555 1_555
N2 Co1 1_555 1_555
N3 C13 1_555 1_555
O1 C1 1_555 1_555
O2 C1 1_555 1_555
O3 C12 1_555 1_555
O4 C12 1_555 1_555
O5 Co1 1_555 1_555
O6 Co1 1_555 1_555
O7 Co1 1_555 1_555
O8 H18 1_555 1_555
C1 C2 1_555 1_555
C2 C3 1_555 1_555
C3 H1 1_555 1_555
C4 C3 1_555 1_555
H2 C4 1_555 1_555
C5 C4 1_555 1_555
H3 C5 1_555 1_555
C6 N1 1_555 1_555
C7 N2 1_555 1_555
C8 C7 1_555 1_555
C9 C8 1_555 1_555
H4 C9 1_555 1_555
C10 C9 1_555 1_555
H5 C10 1_555 1_555
C11 N2 1_555 1_555
H6 C11 1_555 1_555
C12 C8 1_555 1_555
C13 H7 1_555 1_555
C14 C13 1_555 1_555
H8 C14 1_555 1_555
C15 C14 1_555 1_555
C16 C15 1_555 1_555
H9 C16 1_555 1_555
C17 N3 1_555 1_555
H10 C17 1_555 1_555
C18 C15 1_555 1_555
H11 C18 1_555 1_555
H12 O5 1_555 1_555
H13 O6 1_555 1_555
H14 O5 1_555 1_555
H15 O6 1_555 1_555
H16 O7 1_555 1_555
H17 O7 1_555 1_555
H19 O8 1_555 1_555
Co1A O2 1_555 1_555
N3B C13B 1_555 1_555
O2A Co1 1_555 1_555
C13B H7B 1_555 1_555
C14B C13B 1_555 1_555
H8B C14B 1_555 1_555
C15B C14B 1_555 1_555
C16B C15B 1_555 1_555
H9B C16B 1_555 1_555
C17B N3B 1_555 1_555
H10B C17B 1_555 1_555
C18B C18 1_555 1_555
H11B C18B 1_555 1_555
C2 C6 1_555 1_555
C6 C7 1_555 1_555
C10 C11 1_555 1_555
C16 C17 1_555 1_555
C15B C18B 1_555 1_555
C16B C17B 1_555 1_555

#END
