
#######################################################################
#
#                 Cambridge Crystallographic Data Centre
#                                CCDC 
#
#######################################################################
#
# If this CIF has been generated from an entry in the Cambridge 
# Structural Database, then it will include bibliographic, chemical, 
# crystal, experimental, refinement or atomic coordinate data resulting 
# from the CCDC's data processing and validation procedures.
#
#######################################################################

data_KUCPII
_symmetry_cell_setting           orthorhombic
_symmetry_space_group_name_H-M   'P b c a'
_symmetry_Int_Tables_number      61
_space_group_name_Hall           '-P 2ac 2ab'
loop_
_symmetry_equiv_pos_site_id
_symmetry_equiv_pos_as_xyz
1 x,y,z
2 1/2-x,-y,1/2+z
3 -x,1/2+y,1/2-z
4 1/2+x,1/2-y,-z
5 -x,-y,-z
6 1/2+x,y,1/2-z
7 x,1/2-y,1/2+z
8 1/2-x,1/2+y,z
_cell_length_a                   12.6305(5)
_cell_length_b                   14.9567(7)
_cell_length_c                   16.7100(10)
_cell_angle_alpha                90
_cell_angle_beta                 90
_cell_angle_gamma                90
_cell_volume                     3156.7
loop_
_atom_site_label
_atom_site_type_symbol
_atom_site_fract_x
_atom_site_fract_y
_atom_site_fract_z
Cd1 Cd 0.5000 0.0000 0.5000
S1 S 0.64473(8) 0.10375(8) 0.42643(8)
N1 N 0.6165(3) 0.0446(2) 0.6021(2)
C1 C 0.7442(3) 0.0834(3) 0.4991(3)
N2 N 0.8743(3) 0.3832(2) 0.4849(2)
C2 C 0.8464(3) 0.0971(3) 0.4762(4)
H1 H 0.8615 0.1125 0.4235
C3 C 0.9297(4) 0.0880(4) 0.5322(5)
H2 H 0.9993 0.0976 0.5162
C4 C 0.9088(4) 0.0654(4) 0.6089(5)
H3 H 0.9642 0.0602 0.6453
C5 C 0.8039(4) 0.0496(3) 0.6346(4)
C6 C 0.7784(5) 0.0238(5) 0.7125(4)
H4 H 0.8323 0.0147 0.7495
C7 C 0.6760(5) 0.0118(4) 0.7351(4)
H5 H 0.6584 -0.0030 0.7875
C8 C 0.5983(4) 0.0227(4) 0.6763(3)
H6 H 0.5282 0.0137 0.6914
C9 C 0.7203(3) 0.0597(3) 0.5786(3)
C10 C 0.8245(3) 0.3476(3) 0.5479(3)
H7 H 0.8517 0.3584 0.5987
C11 C 0.8366(3) 0.3640(3) 0.4127(3)
H8 H 0.8721 0.3868 0.3684
C12 C 0.7474(3) 0.3121(3) 0.3997(3)
H9 H 0.7231 0.3009 0.3481
C13 C 0.7351(3) 0.2958(3) 0.5412(3)
H10 H 0.7016 0.2736 0.5866
C14 C 0.6957(3) 0.2773(3) 0.4657(3)
C15 C 0.6010(3) 0.2164(3) 0.4560(3)
H11 H 0.5540 0.2404 0.4155
H12 H 0.5624 0.2131 0.5061
Cd1C Cd 1.0000 0.5000 0.5000
Cd1C_2 Cd 0.0000 -0.5000 0.5000
S1D S 0.35527(8) -0.10375(8) 0.57357(8)
N1D N 0.3835(3) -0.0446(2) 0.3979(2)
C1D C 0.2558(3) -0.0834(3) 0.5009(3)
N2D N 0.1257(3) -0.3832(2) 0.5151(2)
N2C N 0.3743(3) 0.1168(2) 0.5151(2)
N2G N 0.6257(3) -0.1168(2) 0.4849(2)
C2D C 0.1536(3) -0.0971(3) 0.5238(4)
H1D H 0.1385 -0.1125 0.5765
C3D C 0.0703(4) -0.0880(4) 0.4678(5)
H2D H 0.0007 -0.0976 0.4838
C4D C 0.0912(4) -0.0654(4) 0.3911(5)
H3D H 0.0358 -0.0602 0.3547
C5D C 0.1961(4) -0.0496(3) 0.3654(4)
C6D C 0.2216(5) -0.0238(5) 0.2875(4)
H4D H 0.1677 -0.0147 0.2505
C7D C 0.3240(5) -0.0118(4) 0.2649(4)
H5D H 0.3416 0.0030 0.2125
C8D C 0.4017(4) -0.0227(4) 0.3237(3)
H6D H 0.4718 -0.0137 0.3086
C9D C 0.2797(3) -0.0597(3) 0.4214(3)
C10D C 0.1755(3) -0.3476(3) 0.4521(3)
H7D H 0.1483 -0.3584 0.4013
C11D C 0.1634(3) -0.3640(3) 0.5873(3)
H8D H 0.1279 -0.3868 0.6316
C12D C 0.2526(3) -0.3121(3) 0.6003(3)
H9D H 0.2769 -0.3009 0.6519
C13D C 0.2649(3) -0.2958(3) 0.4588(3)
H10D H 0.2984 -0.2736 0.4134
C14D C 0.3043(3) -0.2773(3) 0.5343(3)
C15D C 0.3990(3) -0.2164(3) 0.5440(3)
H11D H 0.4460 -0.2404 0.5845
H12D H 0.4376 -0.2131 0.4939
Cl1 Cl 0.48154(14) -0.21713(13) 0.77648(10)
O1 O 0.5000(3) -0.2097(5) 0.8565(3)
O2 O 0.3773(7) -0.2408(7) 0.7688(5)
O3 O 0.4875(6) -0.1440(5) 0.7341(7)
O4 O 0.5423(10) -0.2717(10) 0.7423(6)
loop_
_geom_bond_atom_site_label_1
_geom_bond_atom_site_label_2
_geom_bond_site_symmetry_1
_geom_bond_site_symmetry_2
Cd1 S1 1_555 1_555
S1 C1 1_555 1_555
Cl1 O1 1_555 1_555
N1 Cd1 1_555 1_555
C1 C2 1_555 1_555
N2 C10 1_555 1_555
C2 H1 1_555 1_555
O2 Cl1 1_555 1_555
C3 C2 1_555 1_555
H2 C3 1_555 1_555
O3 Cl1 1_555 1_555
C4 C3 1_555 1_555
H3 C4 1_555 1_555
O4 Cl1 1_555 1_555
C5 C4 1_555 1_555
C6 C5 1_555 1_555
H4 C6 1_555 1_555
C7 C6 1_555 1_555
H5 C7 1_555 1_555
C8 N1 1_555 1_555
H6 C8 1_555 1_555
C9 N1 1_555 1_555
C10 H7 1_555 1_555
C11 N2 1_555 1_555
H8 C11 1_555 1_555
C12 C11 1_555 1_555
H9 C12 1_555 1_555
C13 C10 1_555 1_555
H10 C13 1_555 1_555
C14 C12 1_555 1_555
C15 S1 1_555 1_555
H11 C15 1_555 1_555
H12 C15 1_555 1_555
Cd1C N2 1_555 1_555
Cd1C_2 N2D 1_555 1_555
S1D Cd1 1_555 1_555
N1D Cd1 1_555 1_555
C1D S1D 1_555 1_555
N2D C10D 1_555 1_555
N2C Cd1 1_555 1_555
N2G Cd1 1_555 1_555
C2D C1D 1_555 1_555
H1D C2D 1_555 1_555
C3D C2D 1_555 1_555
H2D C3D 1_555 1_555
C4D C3D 1_555 1_555
H3D C4D 1_555 1_555
C5D C4D 1_555 1_555
C6D C5D 1_555 1_555
H4D C6D 1_555 1_555
C7D C6D 1_555 1_555
H5D C7D 1_555 1_555
C8D N1D 1_555 1_555
H6D C8D 1_555 1_555
C9D N1D 1_555 1_555
C10D H7D 1_555 1_555
C11D N2D 1_555 1_555
H8D C11D 1_555 1_555
C12D C11D 1_555 1_555
H9D C12D 1_555 1_555
C13D C10D 1_555 1_555
H10D C13D 1_555 1_555
C14D C12D 1_555 1_555
C15D S1D 1_555 1_555
H11D C15D 1_555 1_555
H12D C15D 1_555 1_555
C1 C9 1_555 1_555
C5 C9 1_555 1_555
C7 C8 1_555 1_555
C13 C14 1_555 1_555
C14 C15 1_555 1_555
C1D C9D 1_555 1_555
C5D C9D 1_555 1_555
C7D C8D 1_555 1_555
C13D C14D 1_555 1_555
C14D C15D 1_555 1_555

#END
