
#######################################################################
#
#                 Cambridge Crystallographic Data Centre
#                                CCDC 
#
#######################################################################
#
# If this CIF has been generated from an entry in the Cambridge 
# Structural Database, then it will include bibliographic, chemical, 
# crystal, experimental, refinement or atomic coordinate data resulting 
# from the CCDC's data processing and validation procedures.
#
#######################################################################

data_KUCSIL
_symmetry_cell_setting           monoclinic
_symmetry_space_group_name_H-M   'P 21/n'
_symmetry_Int_Tables_number      14
_space_group_name_Hall           '-P 2yn'
loop_
_symmetry_equiv_pos_site_id
_symmetry_equiv_pos_as_xyz
1 x,y,z
2 1/2-x,1/2+y,1/2-z
3 -x,-y,-z
4 1/2+x,1/2-y,1/2+z
_cell_length_a                   7.1231(6)
_cell_length_b                   16.2570(14)
_cell_length_c                   23.818(2)
_cell_angle_alpha                90
_cell_angle_beta                 90.7160(10)
_cell_angle_gamma                90
_cell_volume                     2757.91
loop_
_atom_site_label
_atom_site_type_symbol
_atom_site_fract_x
_atom_site_fract_y
_atom_site_fract_z
Cd1 Cd -0.23938(16) -0.30604(5) 0.56906(4)
Fe1 Fe -0.3183(3) -0.00245(11) 0.35719(8)
O1 O -0.6246(18) -0.2236(7) 0.1539(4)
O2 O -0.884(3) -0.2608(12) 0.1871(5)
O3 O -0.5031(19) -0.2239(6) 0.3610(4)
O4 O 0.0087(19) -0.1818(6) 0.3721(5)
O5 O -0.1449(17) -0.1968(6) 0.5153(4)
O6 O 0.0817(14) -0.2817(5) 0.5363(4)
O7 O -0.5440(16) -0.2689(7) 0.5788(5)
H1 H -0.5215 -0.2599 0.6134
H2 H -0.6622 -0.2710 0.5736
N1 N -0.232(2) -0.4455(6) 0.5934(4)
N2 N -0.2837(17) -0.3866(6) 0.4881(4)
C1 C -0.716(2) -0.2438(8) 0.1972(4)
C2 C -0.626(3) -0.2481(6) 0.2542(4)
H7 H -0.6968 -0.2842 0.2785
H8 H -0.4989 -0.2691 0.2516
C3 C -0.624(2) -0.1621(6) 0.2773(4)
H9 H -0.7500 -0.1394 0.2767
H10 H -0.5444 -0.1271 0.2546
C4 C -0.5512(18) -0.1660(6) 0.3351(4)
C5 C -0.5420(15) -0.0827(4) 0.3619(3)
C6 C -0.4559(14) -0.0707(5) 0.4153(3)
H11 H -0.4029 -0.1115 0.4379
C7 C -0.4648(16) 0.0144(6) 0.4283(4)
H12 H -0.4187 0.0393 0.4608
C8 C -0.5564(17) 0.0551(4) 0.3828(5)
H13 H -0.5809 0.1112 0.3804
C9 C -0.6041(14) -0.0050(5) 0.3418(3)
H14 H -0.6653 0.0049 0.3077
C10 C -0.1282(15) -0.0498(5) 0.3030(3)
H15 H -0.1419 -0.0983 0.2827
C11 C -0.1856(15) 0.0297(7) 0.2851(3)
H16 H -0.2434 0.0425 0.2510
C12 C -0.1391(15) 0.0864(4) 0.3284(5)
H17 H -0.1612 0.1428 0.3277
C13 C -0.0531(14) 0.0419(5) 0.3731(4)
H18 H -0.0089 0.0640 0.4068
C14 C -0.0463(14) -0.0423(5) 0.3574(3)
C15 C 0.0150(18) -0.1156(6) 0.3907(4)
C16 C 0.063(2) -0.0935(6) 0.4486(4)
H19 H 0.1446 -0.0459 0.4491
H20 H -0.0506 -0.0798 0.4688
C17 C 0.1582(16) -0.1645(7) 0.4760(5)
H21 H 0.2593 -0.1448 0.5002
H22 H 0.2119 -0.2000 0.4477
C18 C 0.0208(18) -0.2114(7) 0.5097(5)
C19 C -0.211(3) -0.4731(9) 0.6456(6)
H23 H -0.2096 -0.4345 0.6745
C20 C -0.191(3) -0.5533(10) 0.6599(7)
H24 H -0.1793 -0.5696 0.6972
C21 C -0.188(3) -0.6100(8) 0.6165(6)
H25 H -0.1723 -0.6657 0.6243
C22 C -0.208(2) -0.5842(8) 0.5620(6)
H26 H -0.2035 -0.6221 0.5328
C23 C -0.235(2) -0.5015(7) 0.5506(5)
C24 C -0.258(2) -0.4675(7) 0.4940(5)
C25 C -0.257(3) -0.5184(8) 0.4471(5)
H27 H -0.2356 -0.5746 0.4510
C26 C -0.289(2) -0.4835(10) 0.3937(6)
H28 H -0.2970 -0.5169 0.3620
C27 C -0.307(3) -0.4004(10) 0.3888(6)
H29 H -0.3217 -0.3761 0.3537
C28 C -0.304(2) -0.3531(9) 0.4365(6)
H30 H -0.3158 -0.2963 0.4332
Cd1C Cd -0.73938(16) -0.19396(5) 0.06906(4)
O1C O -0.1246(18) -0.2764(7) 0.6539(4)
O8 O 0.238(2) -0.3327(9) 0.6734(6)
H3 H 0.2690 -0.3033 0.7015
H4 H 0.1209 -0.3286 0.6670
O9 O 0.361(2) -0.2203(10) 0.7727(6)
H5 H 0.4023 -0.2475 0.8007
H6 H 0.4389 -0.2255 0.7461
loop_
_geom_bond_atom_site_label_1
_geom_bond_atom_site_label_2
_geom_bond_site_symmetry_1
_geom_bond_site_symmetry_2
Cd1 O5 1_555 1_555
Fe1 C5 1_555 1_555
O1 C1 1_555 1_555
O2 C1 1_555 1_555
O3 C4 1_555 1_555
O4 C15 1_555 1_555
O5 C18 1_555 1_555
O6 Cd1 1_555 1_555
O7 Cd1 1_555 1_555
H1 O7 1_555 1_555
H2 O7 1_555 1_555
O8 H3 1_555 1_555
H4 O8 1_555 1_555
O9 H5 1_555 1_555
H6 O9 1_555 1_555
N1 Cd1 1_555 1_555
N2 Cd1 1_555 1_555
C1 C2 1_555 1_555
C2 H7 1_555 1_555
H8 C2 1_555 1_555
C3 C2 1_555 1_555
H9 C3 1_555 1_555
H10 C3 1_555 1_555
C4 C3 1_555 1_555
C5 C4 1_555 1_555
C6 Fe1 1_555 1_555
H11 C6 1_555 1_555
C7 Fe1 1_555 1_555
H12 C7 1_555 1_555
C8 Fe1 1_555 1_555
H13 C8 1_555 1_555
C9 Fe1 1_555 1_555
H14 C9 1_555 1_555
C10 Fe1 1_555 1_555
H15 C10 1_555 1_555
C11 Fe1 1_555 1_555
H16 C11 1_555 1_555
C12 Fe1 1_555 1_555
H17 C12 1_555 1_555
C13 Fe1 1_555 1_555
H18 C13 1_555 1_555
C14 Fe1 1_555 1_555
C15 C14 1_555 1_555
C16 C15 1_555 1_555
H19 C16 1_555 1_555
H20 C16 1_555 1_555
C17 C16 1_555 1_555
H21 C17 1_555 1_555
H22 C17 1_555 1_555
C18 O6 1_555 1_555
C19 N1 1_555 1_555
H23 C19 1_555 1_555
C20 C19 1_555 1_555
H24 C20 1_555 1_555
C21 C20 1_555 1_555
H25 C21 1_555 1_555
C22 C21 1_555 1_555
H26 C22 1_555 1_555
C23 N1 1_555 1_555
C24 N2 1_555 1_555
C25 C24 1_555 1_555
H27 C25 1_555 1_555
C26 C25 1_555 1_555
H28 C26 1_555 1_555
C27 C26 1_555 1_555
H29 C27 1_555 1_555
C28 N2 1_555 1_555
H30 C28 1_555 1_555
Cd1C O1 1_555 1_555
O1C Cd1 1_555 1_555
C5 C6 1_555 1_555
C5 C9 1_555 1_555
C6 C7 1_555 1_555
C7 C8 1_555 1_555
C8 C9 1_555 1_555
C10 C11 1_555 1_555
C10 C14 1_555 1_555
C11 C12 1_555 1_555
C12 C13 1_555 1_555
C13 C14 1_555 1_555
C17 C18 1_555 1_555
C22 C23 1_555 1_555
C23 C24 1_555 1_555
C27 C28 1_555 1_555

#END
