
#######################################################################
#
#                 Cambridge Crystallographic Data Centre
#                                CCDC 
#
#######################################################################
#
# If this CIF has been generated from an entry in the Cambridge 
# Structural Database, then it will include bibliographic, chemical, 
# crystal, experimental, refinement or atomic coordinate data resulting 
# from the CCDC's data processing and validation procedures.
#
#######################################################################

data_KUCYAJ
_symmetry_cell_setting           monoclinic
_symmetry_space_group_name_H-M   'C 2/c'
_symmetry_Int_Tables_number      15
_space_group_name_Hall           '-C 2yn'
loop_
_symmetry_equiv_pos_site_id
_symmetry_equiv_pos_as_xyz
1 x,y,z
2 1/2+x,1/2+y,z
3 -x,y,1/2-z
4 1/2-x,1/2+y,1/2-z
5 -x,-y,-z
6 1/2-x,1/2-y,-z
7 x,-y,1/2+z
8 1/2+x,1/2-y,1/2+z
_cell_length_a                   18.3689(4)
_cell_length_b                   17.0722(7)
_cell_length_c                   14.3451(6)
_cell_angle_alpha                90
_cell_angle_beta                 129.960(2)
_cell_angle_gamma                90
_cell_volume                     3448.14
loop_
_atom_site_label
_atom_site_type_symbol
_atom_site_fract_x
_atom_site_fract_y
_atom_site_fract_z
Cu1 Cu 0.36575(5) 0.19010(5) 0.24788(6)
Cu2 Cu 0.13218(5) 0.05988(5) 0.24785(6)
N1 N 0.2901(3) 0.2917(3) 0.1482(4)
O1 O 0.1642(4) 0.5336(3) -0.1051(5)
N2 N 0.1082(3) -0.0415(3) 0.1488(4)
O2 O -0.0181(3) -0.2839(3) -0.1037(4)
N3 N 0.2919(4) 0.1402(3) 0.2804(5)
C1 C 0.2109(4) 0.3132(3) 0.1272(5)
C2 C 0.1526(4) -0.1291(3) 0.0610(5)
C3 C 0.1351(4) 0.4960(4) -0.0631(5)
N4 N 0.4690(4) 0.1855(3) 0.2520(5)
C4 C 0.0741(4) -0.1756(3) 0.0122(5)
C5 C 0.0324(4) 0.0644(3) 0.2532(5)
C6 C 0.2359(4) 0.1097(3) 0.2801(5)
C7 C 0.0519(4) -0.2461(4) -0.0641(6)
C8 C 0.1887(4) 0.4253(3) 0.0127(5)
C9 C 0.0315(4) -0.0883(4) 0.0994(6)
C10 C 0.3188(4) 0.3380(4) 0.1014(6)
C11 C 0.1659(4) -0.0629(3) 0.1272(5)
C12 C 0.0137(4) -0.1529(4) 0.0346(5)
C13 C 0.1584(4) 0.3779(4) 0.0603(5)
C14 C 0.2714(4) 0.4033(4) 0.0351(5)
C15 C 0.0464(5) 0.5175(4) -0.0853(6)
C16 C 0.1180(5) -0.2676(4) -0.0858(7)
H1 H 0.188619 0.282788 0.160785
H2 H 0.195439 -0.141959 0.046391
H3 H -0.014486 -0.075210 0.108478
H4 H 0.375456 0.324796 0.114286
H5 H 0.221269 -0.031957 0.159545
H6 H -0.041669 -0.183539 0.003224
H7 H 0.100829 0.389434 0.046136
H8 H 0.294496 0.434963 0.003703
H9 H 0.034916 0.480689 -0.045419
H10 H -0.005954 0.516609 -0.171259
H11 H 0.052846 0.569119 -0.054299
H12 H 0.168539 -0.229822 -0.046216
H13 H 0.084509 -0.267072 -0.171676
H14 H 0.144019 -0.318772 -0.053856
Cu1B Cu 0.63425(5) 0.19010(5) 0.25212(6)
Cu2B Cu -0.13218(5) 0.05988(5) 0.25215(6)
Cu2B_2 Cu 0.86782(5) 0.05988(5) 0.25215(6)
N1B N 0.7099(3) 0.2917(3) 0.3518(4)
O1B O 0.8358(4) 0.5336(3) 0.6051(5)
N2B N -0.1082(3) -0.0415(3) 0.3512(4)
O2B O 0.0181(3) -0.2839(3) 0.6037(4)
N3B N 0.7081(4) 0.1402(3) 0.2196(5)
C1B C 0.7891(4) 0.3132(3) 0.3728(5)
C2B C -0.1526(4) -0.1291(3) 0.4390(5)
C3B C 0.8649(4) 0.4960(4) 0.5631(5)
N4B N 0.5310(4) 0.1855(3) 0.2480(5)
C4B C -0.0741(4) -0.1756(3) 0.4878(5)
C5B C -0.0324(4) 0.0644(3) 0.2468(5)
C6B C 0.7641(4) 0.1097(3) 0.2199(5)
C6B_2 C -0.2359(4) 0.1097(3) 0.2199(5)
C7B C -0.0519(4) -0.2461(4) 0.5641(6)
C8B C 0.8113(4) 0.4253(3) 0.4873(5)
C9B C -0.0315(4) -0.0883(4) 0.4006(6)
C10B C 0.6812(4) 0.3380(4) 0.3986(6)
C11B C -0.1659(4) -0.0629(3) 0.3728(5)
C12B C -0.0137(4) -0.1529(4) 0.4654(5)
C13B C 0.8416(4) 0.3779(4) 0.4397(5)
C14B C 0.7286(4) 0.4033(4) 0.4649(5)
C15B C 0.9536(5) 0.5175(4) 0.5853(6)
C16B C -0.1180(5) -0.2676(4) 0.5858(7)
H1B H 0.811381 0.282788 0.339215
H2B H -0.195439 -0.141959 0.453609
H3B H 0.014486 -0.075210 0.391522
H4B H 0.624544 0.324796 0.385714
H5B H -0.221269 -0.031957 0.340455
H6B H 0.041669 -0.183539 0.496776
H7B H 0.899171 0.389434 0.453864
H8B H 0.705504 0.434963 0.496297
H9B H 0.965084 0.480689 0.545419
H10B H 1.005954 0.516609 0.671259
H11B H 0.947154 0.569119 0.554299
H12B H -0.168539 -0.229822 0.546216
H13B H -0.084509 -0.267072 0.671676
H14B H -0.144019 -0.318772 0.553856
loop_
_geom_bond_atom_site_label_1
_geom_bond_atom_site_label_2
_geom_bond_site_symmetry_1
_geom_bond_site_symmetry_2
Cu1 N1 1_555 1_555
Cu2 N2 1_555 1_555
N1 C1 1_555 1_555
O1 C3 1_555 1_555
N2 C9 1_555 1_555
O2 C7 1_555 1_555
N3 Cu1 1_555 1_555
C1 C13 1_555 1_555
C2 C4 1_555 1_555
C3 C8 1_555 1_555
N4 Cu1 1_555 1_555
C4 C7 1_555 1_555
C5 Cu2 1_555 1_555
C6 Cu2 1_555 1_555
C7 C16 1_555 1_555
C8 C13 1_555 1_555
C9 C12 1_555 1_555
C10 N1 1_555 1_555
C11 N2 1_555 1_555
C12 C4 1_555 1_555
C13 H7 1_555 1_555
C14 C8 1_555 1_555
C15 C3 1_555 1_555
C16 H12 1_555 1_555
H1 C1 1_555 1_555
H2 C2 1_555 1_555
H3 C9 1_555 1_555
H4 C10 1_555 1_555
H5 C11 1_555 1_555
H6 C12 1_555 1_555
H8 C14 1_555 1_555
H9 C15 1_555 1_555
H10 C15 1_555 1_555
H11 C15 1_555 1_555
H13 C16 1_555 1_555
H14 C16 1_555 1_555
Cu1B N1B 1_555 1_555
Cu2B N2B 1_555 1_555
Cu2B_2 C6B 1_555 1_555
N1B C1B 1_555 1_555
O1B C3B 1_555 1_555
N2B C9B 1_555 1_555
O2B C7B 1_555 1_555
N3B Cu1B 1_555 1_555
C1B C13B 1_555 1_555
C2B C4B 1_555 1_555
C3B C8B 1_555 1_555
N4B N4 1_555 1_555
C4B C7B 1_555 1_555
C5B C5 1_555 1_555
C6B N3B 1_555 1_555
C6B_2 Cu2B 1_555 1_555
C7B C16B 1_555 1_555
C8B C13B 1_555 1_555
C9B C12B 1_555 1_555
C10B N1B 1_555 1_555
C11B N2B 1_555 1_555
C12B C4B 1_555 1_555
C13B H7B 1_555 1_555
C14B C8B 1_555 1_555
C15B C3B 1_555 1_555
C16B H12B 1_555 1_555
H1B C1B 1_555 1_555
H2B C2B 1_555 1_555
H3B C9B 1_555 1_555
H4B C10B 1_555 1_555
H5B C11B 1_555 1_555
H6B C12B 1_555 1_555
H8B C14B 1_555 1_555
H9B C15B 1_555 1_555
H10B C15B 1_555 1_555
H11B C15B 1_555 1_555
H13B C16B 1_555 1_555
H14B C16B 1_555 1_555
N3 C6 1_555 1_555
C2 C11 1_555 1_555
C10 C14 1_555 1_555
Cu1B N4B 1_555 1_555
Cu2B C5B 1_555 1_555
C2B C11B 1_555 1_555
C10B C14B 1_555 1_555

#END
