
#######################################################################
#
#                 Cambridge Crystallographic Data Centre
#                                CCDC 
#
#######################################################################
#
# If this CIF has been generated from an entry in the Cambridge 
# Structural Database, then it will include bibliographic, chemical, 
# crystal, experimental, refinement or atomic coordinate data resulting 
# from the CCDC's data processing and validation procedures.
#
#######################################################################

data_KUDGUM
_symmetry_cell_setting           monoclinic
_symmetry_space_group_name_H-M   'C 2/c'
_symmetry_Int_Tables_number      15
_space_group_name_Hall           '-C 2yn'
loop_
_symmetry_equiv_pos_site_id
_symmetry_equiv_pos_as_xyz
1 x,y,z
2 -x,y,1/2-z
3 1/2+x,1/2+y,z
4 1/2-x,1/2+y,1/2-z
5 -x,-y,-z
6 x,-y,1/2+z
7 1/2-x,1/2-y,-z
8 1/2+x,1/2-y,1/2+z
_cell_length_a                   25.868(12)
_cell_length_b                   27.268(11)
_cell_length_c                   18.400(9)
_cell_angle_alpha                90
_cell_angle_beta                 128.401(6)
_cell_angle_gamma                90
_cell_volume                     10171.2
loop_
_atom_site_label
_atom_site_type_symbol
_atom_site_fract_x
_atom_site_fract_y
_atom_site_fract_z
Fe1 Fe 0.42740(3) 0.13496(3) 0.40660(5)
Mn1 Mn 0.64251(3) 0.29079(3) 0.56653(5)
O1 O 0.68175(15) 0.23452(12) 0.6438(2)
O2 O 0.67259(15) 0.27484(12) 0.4992(2)
N1 N 0.60726(17) 0.31418(14) 0.6305(2)
N2 N 0.59967(18) 0.35277(14) 0.4958(2)
N3 N 0.42097(19) 0.12103(15) 0.5757(3)
N4 N 0.50913(19) 0.14134(14) 0.5355(2)
N5 N 0.46628(18) 0.19079(14) 0.3919(2)
N6 N 0.55188(18) 0.24367(15) 0.4591(2)
N7 N 0.39587(17) 0.07225(15) 0.4203(2)
N8 N 0.47293(18) 0.09059(15) 0.3830(2)
N9 N 0.4972(2) 0.01246(16) 0.3746(3)
N10 N 0.37242(18) 0.18060(14) 0.4169(2)
N11 N 0.34941(17) 0.13554(14) 0.2783(2)
N12 N 0.24699(18) 0.16619(15) 0.1697(2)
C1 C 0.6955(2) 0.22652(18) 0.7252(3)
C2 C 0.7364(2) 0.18712(19) 0.7801(3)
C3 C 0.7531(2) 0.1783(2) 0.8658(3)
C4 C 0.7293(2) 0.2081(2) 0.9010(3)
C5 C 0.6872(2) 0.24631(19) 0.8470(3)
C6 C 0.6692(2) 0.25638(18) 0.7590(3)
C7 C 0.6250(2) 0.29674(18) 0.7082(3)
C8 C 0.5557(2) 0.35402(18) 0.5815(3)
C9 C 0.5513(2) 0.38333(19) 0.6478(3)
C10 C 0.4892(2) 0.32779(19) 0.5115(3)
C11 C 0.5756(2) 0.38693(18) 0.5334(3)
C12 C 0.6327(2) 0.42138(19) 0.6025(3)
C13 C 0.5168(2) 0.4182(2) 0.4557(3)
C14 C 0.5961(2) 0.36612(18) 0.4255(3)
C15 C 0.6220(2) 0.33968(18) 0.3860(3)
C16 C 0.6117(2) 0.36066(19) 0.3075(3)
C17 C 0.6361(2) 0.3391(2) 0.2671(3)
C18 C 0.6715(2) 0.29504(19) 0.3046(3)
C19 C 0.6819(2) 0.27348(19) 0.3805(3)
C20 C 0.6584(2) 0.29547(17) 0.4244(3)
C21 C 0.4923(2) 0.1199(2) 0.6495(3)
C22 C 0.5292(2) 0.10776(18) 0.6111(3)
C23 C 0.5461(2) 0.17700(19) 0.5490(3)
C24 C 0.5244(2) 0.20593(18) 0.4717(3)
C25 C 0.4563(2) 0.21986(19) 0.3244(3)
C26 C 0.5089(2) 0.25169(19) 0.3650(3)
C27 C 0.3853(2) 0.07554(19) 0.5438(3)
C28 C 0.3505(2) 0.0664(2) 0.4416(3)
C29 C 0.4194(2) 0.03364(18) 0.4079(3)
C30 C 0.4631(2) 0.04228(19) 0.3884(3)
C31 C 0.5164(2) 0.0918(2) 0.3650(3)
C32 C 0.5304(2) 0.0437(2) 0.3592(3)
C33 C 0.3857(2) 0.16633(19) 0.5589(3)
C34 C 0.3922(2) 0.20332(19) 0.5034(3)
C35 C 0.3157(2) 0.19044(18) 0.3407(3)
C36 C 0.3002(2) 0.16598(18) 0.2594(3)
C37 C 0.3260(2) 0.11558(19) 0.1950(3)
C38 C 0.2641(2) 0.13453(19) 0.1295(3)
H1 H 0.7530 0.1661 0.7575
H2 H 0.7812 0.1515 0.9017
H3 H 0.7419 0.2023 0.9609
H4 H 0.6700 0.2662 0.8699
H5 H 0.6070 0.3121 0.7344
H6 H 0.5204 0.3683 0.6526
H7 H 0.5374 0.4158 0.6250
H8 H 0.5934 0.3842 0.7072
H9 H 0.4812 0.3245 0.4539
H10 H 0.4548 0.3465 0.5030
H11 H 0.4907 0.2962 0.5345
H12 H 0.6583 0.4073 0.6627
H13 H 0.6156 0.4521 0.6030
H14 H 0.6597 0.4261 0.5844
H15 H 0.5327 0.4478 0.4489
H16 H 0.4889 0.4255 0.4713
H17 H 0.4926 0.4004 0.3990
H18 H 0.5744 0.3963 0.3969
H19 H 0.5874 0.3903 0.2822
H20 H 0.6293 0.3537 0.2148
H21 H 0.6886 0.2798 0.2772
H22 H 0.7052 0.2433 0.4037
H23 H 0.5023 0.0957 0.6936
H24 H 0.5063 0.1511 0.6787
H25 H 0.5753 0.1109 0.6594
H26 H 0.5192 0.0751 0.5885
H27 H 0.5864 0.1837 0.6086
H28 H 0.4195 0.2185 0.2603
H29 H 0.5146 0.2755 0.3328
H30 H 0.3533 0.0762 0.5535
H31 H 0.4154 0.0495 0.5787
H32 H 0.3334 0.0340 0.4264
H33 H 0.3153 0.0892 0.4058
H34 H 0.4075 0.0014 0.4120
H35 H 0.5340 0.1203 0.3578
H36 H 0.5592 0.0338 0.3463
H37 H 0.4027 0.1806 0.6170
H38 H 0.3403 0.1589 0.5257
H39 H 0.3645 0.2306 0.4890
H40 H 0.4367 0.2140 0.5390
H41 H 0.2858 0.2123 0.3376
H42 H 0.3484 0.0928 0.1843
H43 H 0.2369 0.1268 0.0653
Fe1G Fe 0.92740(3) 0.36504(3) 0.90660(5)
Mn1G Mn 0.14251(3) 0.20921(3) 0.06653(5)
Mn1G_2 Mn 1.14251(3) 0.20921(3) 1.06653(5)
O1G O 0.18175(15) 0.26548(12) 0.1438(2)
O2G O 0.17259(15) 0.22516(12) -0.0008(2)
N1G N 0.10726(17) 0.18582(14) 0.1305(2)
N2G N 0.09967(18) 0.14723(14) -0.0042(2)
N3G N 0.92097(19) 0.37897(15) 1.0757(3)
N4G N 1.00913(19) 0.35866(14) 1.0355(2)
N5G N 0.96628(18) 0.30921(14) 0.8919(2)
N6G N 1.05188(18) 0.25633(15) 0.9591(2)
N6G_2 N 0.05188(18) 0.25633(15) -0.0409(2)
N7G N 0.89587(17) 0.42775(15) 0.9203(2)
N8G N 0.97293(18) 0.40941(15) 0.8830(2)
N9G N 0.9972(2) 0.48754(16) 0.8746(3)
N10G N 0.87242(18) 0.31940(14) 0.9169(2)
N11G N 0.84941(17) 0.36446(14) 0.7783(2)
N12G N 0.74699(18) 0.33381(15) 0.6697(2)
C1G C 0.1955(2) 0.27348(18) 0.2252(3)
C2G C 0.2364(2) 0.31288(19) 0.2801(3)
C3G C 0.2531(2) 0.3217(2) 0.3658(3)
C4G C 0.2293(2) 0.2919(2) 0.4010(3)
C5G C 0.1872(2) 0.25369(19) 0.3470(3)
C6G C 0.1692(2) 0.24362(18) 0.2590(3)
C7G C 0.1250(2) 0.20326(18) 0.2082(3)
C8G C 0.0557(2) 0.14598(18) 0.0815(3)
C9G C 0.0513(2) 0.11667(19) 0.1478(3)
C10G C -0.0108(2) 0.17221(19) 0.0115(3)
C11G C 0.0756(2) 0.11307(18) 0.0334(3)
C12G C 0.1327(2) 0.07862(19) 0.1025(3)
C13G C 0.0168(2) 0.0818(2) -0.0443(3)
C14G C 0.0961(2) 0.13388(18) -0.0745(3)
C15G C 0.1220(2) 0.16032(18) -0.1140(3)
C16G C 0.1117(2) 0.13934(19) -0.1925(3)
C17G C 0.1361(2) 0.1609(2) -0.2329(3)
C18G C 0.1715(2) 0.20496(19) -0.1954(3)
C19G C 0.1819(2) 0.22652(19) -0.1195(3)
C20G C 0.1584(2) 0.20453(17) -0.0756(3)
C21G C 0.9923(2) 0.3801(2) 1.1495(3)
C22G C 1.0292(2) 0.39224(18) 1.1111(3)
C23G C 1.0461(2) 0.32300(19) 1.0490(3)
C24G C 1.0244(2) 0.29407(18) 0.9717(3)
C25G C 0.9563(2) 0.28014(19) 0.8244(3)
C26G C 1.0089(2) 0.24831(19) 0.8650(3)
C27G C 0.8853(2) 0.42446(19) 1.0438(3)
C28G C 0.8505(2) 0.4336(2) 0.9416(3)
C29G C 0.9194(2) 0.46636(18) 0.9079(3)
C30G C 0.9631(2) 0.45772(19) 0.8884(3)
C31G C 1.0164(2) 0.4082(2) 0.8650(3)
C32G C 1.0304(2) 0.4563(2) 0.8592(3)
C33G C 0.8857(2) 0.33367(19) 1.0589(3)
C34G C 0.8922(2) 0.29668(19) 1.0034(3)
C35G C 0.8157(2) 0.30956(18) 0.8407(3)
C36G C 0.8002(2) 0.33402(18) 0.7594(3)
C37G C 0.8260(2) 0.38442(19) 0.6950(3)
C38G C 0.7641(2) 0.36547(19) 0.6295(3)
H1G H 0.2530 0.3339 0.2575
H2G H 0.2812 0.3485 0.4017
H3G H 0.2419 0.2977 0.4609
H4G H 0.1700 0.2338 0.3699
H5G H 0.1070 0.1879 0.2344
H6G H 0.0204 0.1317 0.1526
H7G H 0.0374 0.0842 0.1250
H8G H 0.0934 0.1158 0.2072
H9G H -0.0188 0.1755 -0.0461
H10G H -0.0452 0.1535 0.0030
H11G H -0.0093 0.2038 0.0345
H12G H 0.1583 0.0927 0.1627
H13G H 0.1156 0.0479 0.1030
H14G H 0.1597 0.0739 0.0844
H15G H 0.0327 0.0522 -0.0511
H16G H -0.0111 0.0745 -0.0287
H17G H -0.0074 0.0996 -0.1010
H18G H 0.0744 0.1037 -0.1031
H19G H 0.0874 0.1097 -0.2178
H20G H 0.1293 0.1463 -0.2852
H21G H 0.1886 0.2202 -0.2228
H22G H 0.2052 0.2567 -0.0963
H23G H 1.0023 0.4043 1.1936
H24G H 1.0063 0.3489 1.1787
H25G H 1.0753 0.3891 1.1594
H26G H 1.0192 0.4249 1.0885
H27G H 1.0864 0.3163 1.1086
H28G H 0.9195 0.2815 0.7603
H29G H 1.0146 0.2245 0.8328
H30G H 0.8533 0.4238 1.0535
H31G H 0.9154 0.4505 1.0787
H32G H 0.8334 0.4660 0.9264
H33G H 0.8153 0.4108 0.9058
H34G H 0.9075 0.4986 0.9120
H35G H 1.0340 0.3797 0.8578
H36G H 1.0592 0.4662 0.8463
H37G H 0.9027 0.3194 1.1170
H38G H 0.8403 0.3411 1.0257
H39G H 0.8645 0.2694 0.9890
H40G H 0.9367 0.2860 1.0390
H41G H 0.7858 0.2877 0.8376
H42G H 0.8484 0.4072 0.6843
H43G H 0.7369 0.3732 0.5653
Cl1 Cl 0.5000 0.27268(7) 0.7500
O3 O 0.52069(17) 0.24261(15) 0.7081(2)
O4 O 0.5542(2) 0.30332(18) 0.8195(3)
O3A O 0.47931(17) 0.24261(15) 0.7919(2)
O4A O 0.4458(2) 0.30332(18) 0.6805(3)
N13 N 0.3353(3) 0.4311(2) 0.3701(4)
C39 C 0.2299(4) 0.4791(3) 0.3173(5)
C40 C 0.2893(4) 0.4517(2) 0.3471(4)
H44 H 0.2400 0.5131 0.3287
H45 H 0.2157 0.4679 0.3512
H46 H 0.1959 0.4740 0.2529
N14 N 0.7112(2) 0.6213(2) 0.4011(4)
C41 C 0.6180(3) 0.5950(2) 0.4080(4)
C42 C 0.6709(3) 0.6106(2) 0.4052(4)
H47 H 0.6338 0.5696 0.4525
H48 H 0.5818 0.5832 0.3486
H49 H 0.6042 0.6220 0.4246
N15 N 0.1659(2) 0.5770(2) 0.6138(3)
C43 C 0.1817(2) 0.6399(2) 0.5228(4)
C44 C 0.1729(2) 0.6046(2) 0.5738(3)
H50 H 0.1630 0.6705 0.5201
H51 H 0.1606 0.6282 0.4617
H52 H 0.2275 0.6441 0.5534
N16 N 0.3172(3) 0.5134(2) 0.6809(5)
C45 C 0.2410(5) 0.5289(3) 0.4955(7)
C46 C 0.2722(5) 0.5228(4) 0.5738(8)
Cl2? Cl 0.48130(10) 0.50674(9) 0.72506(17)
O5? O 0.5225(2) 0.47925(17) 0.7109(2)
O6? O 0.4177(3) 0.5185(2) 0.6381(5)
O7? O 0.5177(3) 0.5519(2) 0.7661(9)
C47? C 0.2859(7) 0.5341(5) 0.5238(11)
C48? C 0.3071(9) 0.5254(6) 0.5976(12)
loop_
_geom_bond_atom_site_label_1
_geom_bond_atom_site_label_2
_geom_bond_site_symmetry_1
_geom_bond_site_symmetry_2
Fe1 N4 1_555 1_555
Mn1 O1 1_555 1_555
Cl1 O3 1_555 1_555
O1 C1 1_555 1_555
O2 Mn1 1_555 1_555
O4 Cl1 1_555 1_555
N1 Mn1 1_555 1_555
N2 Mn1 1_555 1_555
N3 C21 1_555 1_555
N4 C22 1_555 1_555
N5 Fe1 1_555 1_555
N6 Mn1 1_555 1_555
N7 Fe1 1_555 1_555
N8 Fe1 1_555 1_555
N9 C30 1_555 1_555
N10 Fe1 1_555 1_555
N11 Fe1 1_555 1_555
N12 C36 1_555 1_555
N13 C40 1_555 1_555
N14 C42 1_555 1_555
N15 C44 1_555 1_555
N16 C46 1_555 1_555
C1 C2 1_555 1_555
C2 C3 1_555 1_555
C3 C4 1_555 1_555
C4 C5 1_555 1_555
C5 C6 1_555 1_555
C6 C1 1_555 1_555
C7 N1 1_555 1_555
C8 N1 1_555 1_555
C9 C8 1_555 1_555
C10 C8 1_555 1_555
C11 N2 1_555 1_555
C12 C11 1_555 1_555
C13 C11 1_555 1_555
C14 N2 1_555 1_555
C15 C14 1_555 1_555
C16 C15 1_555 1_555
C17 C16 1_555 1_555
C18 C17 1_555 1_555
C19 C18 1_555 1_555
C20 O2 1_555 1_555
C21 C22 1_555 1_555
C22 H25 1_555 1_555
C23 N4 1_555 1_555
C24 N5 1_555 1_555
C25 N5 1_555 1_555
C26 N6 1_555 1_555
C27 N3 1_555 1_555
C28 N7 1_555 1_555
C29 N7 1_555 1_555
C30 N8 1_555 1_555
C31 N8 1_555 1_555
C32 N9 1_555 1_555
C33 N3 1_555 1_555
C34 N10 1_555 1_555
C35 N10 1_555 1_555
C36 N11 1_555 1_555
C37 N11 1_555 1_555
C38 N12 1_555 1_555
C39 C40 1_555 1_555
C41 C42 1_555 1_555
C43 C44 1_555 1_555
C45 C46 1_555 1_555
H1 C2 1_555 1_555
H2 C3 1_555 1_555
H3 C4 1_555 1_555
H4 C5 1_555 1_555
H5 C7 1_555 1_555
H6 C9 1_555 1_555
H7 C9 1_555 1_555
H8 C9 1_555 1_555
H9 C10 1_555 1_555
H10 C10 1_555 1_555
H11 C10 1_555 1_555
H12 C12 1_555 1_555
H13 C12 1_555 1_555
H14 C12 1_555 1_555
H15 C13 1_555 1_555
H16 C13 1_555 1_555
H17 C13 1_555 1_555
H18 C14 1_555 1_555
H19 C16 1_555 1_555
H20 C17 1_555 1_555
H21 C18 1_555 1_555
H22 C19 1_555 1_555
H23 C21 1_555 1_555
H24 C21 1_555 1_555
H26 C22 1_555 1_555
H27 C23 1_555 1_555
H28 C25 1_555 1_555
H29 C26 1_555 1_555
H30 C27 1_555 1_555
H31 C27 1_555 1_555
H32 C28 1_555 1_555
H33 C28 1_555 1_555
H34 C29 1_555 1_555
H35 C31 1_555 1_555
H36 C32 1_555 1_555
H37 C33 1_555 1_555
H38 C33 1_555 1_555
H39 C34 1_555 1_555
H40 C34 1_555 1_555
H41 C35 1_555 1_555
H42 C37 1_555 1_555
H43 C38 1_555 1_555
H44 C39 1_555 1_555
H45 C39 1_555 1_555
H46 C39 1_555 1_555
H47 C41 1_555 1_555
H48 C41 1_555 1_555
H49 C41 1_555 1_555
H50 C43 1_555 1_555
H51 C43 1_555 1_555
H52 C43 1_555 1_555
Fe1G N4G 1_555 1_555
Mn1G N12 1_555 1_555
Mn1G_2 N6G 1_555 1_555
O1G Mn1G 1_555 1_555
O2G Mn1G 1_555 1_555
O3A Cl1 1_555 1_555
O4A Cl1 1_555 1_555
N1G Mn1G 1_555 1_555
N2G Mn1G 1_555 1_555
N3G C21G 1_555 1_555
N4G C22G 1_555 1_555
N5G Fe1G 1_555 1_555
N6G C24G 1_555 1_555
N6G_2 Mn1G 1_555 1_555
N7G Fe1G 1_555 1_555
N8G Fe1G 1_555 1_555
N9G C30G 1_555 1_555
N10G Fe1G 1_555 1_555
N11G Fe1G 1_555 1_555
N12G Mn1 1_555 1_555
C1G O1G 1_555 1_555
C2G C1G 1_555 1_555
C3G C2G 1_555 1_555
C4G C3G 1_555 1_555
C5G C4G 1_555 1_555
C6G C1G 1_555 1_555
C7G N1G 1_555 1_555
C8G N1G 1_555 1_555
C9G C8G 1_555 1_555
C10G C8G 1_555 1_555
C11G N2G 1_555 1_555
C12G C11G 1_555 1_555
C13G C11G 1_555 1_555
C14G N2G 1_555 1_555
C15G C14G 1_555 1_555
C16G C15G 1_555 1_555
C17G C16G 1_555 1_555
C18G C17G 1_555 1_555
C19G C18G 1_555 1_555
C20G O2G 1_555 1_555
C21G C22G 1_555 1_555
C22G H25G 1_555 1_555
C23G N4G 1_555 1_555
C24G N5G 1_555 1_555
C25G N5G 1_555 1_555
C26G N6G 1_555 1_555
C27G N3G 1_555 1_555
C28G N7G 1_555 1_555
C29G N7G 1_555 1_555
C30G N8G 1_555 1_555
C31G N8G 1_555 1_555
C32G N9G 1_555 1_555
C33G N3G 1_555 1_555
C34G N10G 1_555 1_555
C35G N10G 1_555 1_555
C36G N11G 1_555 1_555
C37G N11G 1_555 1_555
C38G N12G 1_555 1_555
H1G C2G 1_555 1_555
H2G C3G 1_555 1_555
H3G C4G 1_555 1_555
H4G C5G 1_555 1_555
H5G C7G 1_555 1_555
H6G C9G 1_555 1_555
H7G C9G 1_555 1_555
H8G C9G 1_555 1_555
H9G C10G 1_555 1_555
H10G C10G 1_555 1_555
H11G C10G 1_555 1_555
H12G C12G 1_555 1_555
H13G C12G 1_555 1_555
H14G C12G 1_555 1_555
H15G C13G 1_555 1_555
H16G C13G 1_555 1_555
H17G C13G 1_555 1_555
H18G C14G 1_555 1_555
H19G C16G 1_555 1_555
H20G C17G 1_555 1_555
H21G C18G 1_555 1_555
H22G C19G 1_555 1_555
H23G C21G 1_555 1_555
H24G C21G 1_555 1_555
H26G C22G 1_555 1_555
H27G C23G 1_555 1_555
H28G C25G 1_555 1_555
H29G C26G 1_555 1_555
H30G C27G 1_555 1_555
H31G C27G 1_555 1_555
H32G C28G 1_555 1_555
H33G C28G 1_555 1_555
H34G C29G 1_555 1_555
H35G C31G 1_555 1_555
H36G C32G 1_555 1_555
H37G C33G 1_555 1_555
H38G C33G 1_555 1_555
H39G C34G 1_555 1_555
H40G C34G 1_555 1_555
H41G C35G 1_555 1_555
H42G C37G 1_555 1_555
H43G C38G 1_555 1_555
N6 C24 1_555 1_555
C6 C7 1_555 1_555
C8 C11 1_555 1_555
C15 C20 1_555 1_555
C19 C20 1_555 1_555
C23 C24 1_555 1_555
C25 C26 1_555 1_555
C27 C28 1_555 1_555
C29 C30 1_555 1_555
C31 C32 1_555 1_555
C33 C34 1_555 1_555
C35 C36 1_555 1_555
C37 C38 1_555 1_555
N12G C36G 1_555 1_555
C5G C6G 1_555 1_555
C6G C7G 1_555 1_555
C8G C11G 1_555 1_555
C15G C20G 1_555 1_555
C19G C20G 1_555 1_555
C23G C24G 1_555 1_555
C25G C26G 1_555 1_555
C27G C28G 1_555 1_555
C29G C30G 1_555 1_555
C31G C32G 1_555 1_555
C33G C34G 1_555 1_555
C35G C36G 1_555 1_555
C37G C38G 1_555 1_555

#END
