
#######################################################################
#
#                 Cambridge Crystallographic Data Centre
#                                CCDC 
#
#######################################################################
#
# If this CIF has been generated from an entry in the Cambridge 
# Structural Database, then it will include bibliographic, chemical, 
# crystal, experimental, refinement or atomic coordinate data resulting 
# from the CCDC's data processing and validation procedures.
#
#######################################################################

data_KUDQEG
_symmetry_cell_setting           monoclinic
_symmetry_space_group_name_H-M   'P 21/n'
_symmetry_Int_Tables_number      14
_space_group_name_Hall           '-P 2yn'
loop_
_symmetry_equiv_pos_site_id
_symmetry_equiv_pos_as_xyz
1 x,y,z
2 1/2-x,1/2+y,1/2-z
3 -x,-y,-z
4 1/2+x,1/2-y,1/2+z
_cell_length_a                   15.286(10)
_cell_length_b                   14.454(10)
_cell_length_c                   16.658(11)
_cell_angle_alpha                90
_cell_angle_beta                 97.065(10)
_cell_angle_gamma                90
_cell_volume                     3652.54
loop_
_atom_site_label
_atom_site_type_symbol
_atom_site_fract_x
_atom_site_fract_y
_atom_site_fract_z
Zn1 Zn 0.23279(8) 0.31542(10) 0.47366(7)
N1 N 0.1183(6) 0.4023(7) 0.4297(4)
N2 N 0.2833(6) 0.4227(6) 0.4128(4)
N3 N 0.3703(6) 0.2863(8) 0.4816(5)
N4 N 0.3901(6) 0.8290(8) 0.3057(5)
O1 O 0.2213(4) 0.3117(6) 0.5888(4)
O2 O 0.2905(5) 0.4451(7) 0.5965(4)
O3 O 0.3543(5) 0.5107(5) 0.7313(4)
H1 H 0.3558 0.5003 0.6831
O4 O 0.5244(4) 0.3729(6) 0.9364(4)
H2 H 0.5663 0.3442 0.9597
O5 O 0.6733(4) 0.3005(6) 0.9355(4)
O6 O 0.7706(5) 0.3590(5) 0.8602(4)
C1 C 0.0353(9) 0.3829(9) 0.4387(6)
H3 H 0.0233 0.3287 0.4654
C2 C -0.0335(8) 0.4392(10) 0.4106(6)
H4 H -0.0912 0.4250 0.4182
C3 C -0.0130(8) 0.5185(9) 0.3701(6)
H5 H -0.0582 0.5583 0.3498
C4 C 0.0715(8) 0.5395(8) 0.3593(6)
H6 H 0.0846 0.5932 0.3324
C5 C 0.1373(9) 0.4786(9) 0.3895(6)
C6 C 0.2311(8) 0.4956(10) 0.3840(6)
C7 C 0.2651(7) 0.5705(8) 0.3514(5)
H7 H 0.2280 0.6162 0.3272
C8 C 0.3564(7) 0.5794(8) 0.3541(6)
C9 C 0.4087(7) 0.5050(8) 0.3853(5)
H8 H 0.4696 0.5068 0.3857
C10 C 0.3689(7) 0.4286(8) 0.4156(5)
C11 C 0.4217(8) 0.3456(9) 0.4463(6)
C12 C 0.5085(7) 0.3295(10) 0.4424(6)
H9 H 0.5429 0.3737 0.4206
C13 C 0.5446(8) 0.2479(11) 0.4708(7)
H10 H 0.6032 0.2343 0.4657
C14 C 0.4952(9) 0.1875(9) 0.5060(7)
H11 H 0.5191 0.1324 0.5276
C15 C 0.4090(9) 0.2087(10) 0.5096(7)
H12 H 0.3749 0.1658 0.5334
C16 C 0.3574(7) 0.7513(10) 0.3322(6)
H13 H 0.3068 0.7547 0.3579
C17 C 0.3955(7) 0.6644(9) 0.3233(6)
C18 C 0.4698(7) 0.6599(8) 0.2866(6)
H14 H 0.4972 0.6034 0.2805
C19 C 0.5045(6) 0.7406(10) 0.2580(6)
H15 H 0.5551 0.7395 0.2322
C20 C 0.4614(8) 0.8219(9) 0.2691(6)
H16 H 0.4841 0.8759 0.2494
C21 C 0.2631(7) 0.3763(10) 0.6300(7)
C22 C 0.2819(6) 0.3641(8) 0.7194(6)
C23 C 0.2557(6) 0.2873(8) 0.7563(6)
H17 H 0.2236 0.2424 0.7254
C24 C 0.2755(6) 0.2735(8) 0.8398(6)
C25 C 0.2488(6) 0.1949(9) 0.8780(6)
H18 H 0.2166 0.1503 0.8469
C26 C 0.2674(7) 0.1802(9) 0.9582(6)
H19 H 0.2496 0.1261 0.9817
C27 C 0.3146(7) 0.2490(10) 1.0054(7)
H20 H 0.3281 0.2404 1.0609
C28 C 0.3405(6) 0.3278(9) 0.9705(6)
H21 H 0.3708 0.3724 1.0032
C29 C 0.3232(6) 0.3443(8) 0.8869(6)
C30 C 0.3486(6) 0.4261(8) 0.8486(6)
C31 C 0.3276(6) 0.4338(8) 0.7675(6)
C32 C 0.4003(6) 0.5053(7) 0.8939(5)
H22 H 0.3698 0.5631 0.8804
H23 H 0.4015 0.4956 0.9516
C33 C 0.4934(6) 0.5130(8) 0.8741(6)
C34 C 0.5230(7) 0.5928(8) 0.8339(5)
C35 C 0.4687(7) 0.6717(9) 0.8110(6)
H24 H 0.4118 0.6742 0.8252
C36 C 0.4988(8) 0.7418(9) 0.7693(7)
H25 H 0.4620 0.7920 0.7554
C37 C 0.5830(8) 0.7420(8) 0.7463(6)
H26 H 0.6018 0.7912 0.7168
C38 C 0.6385(7) 0.6684(9) 0.7678(6)
H27 H 0.6950 0.6679 0.7526
C39 C 0.6095(7) 0.5931(9) 0.8130(5)
C40 C 0.6665(6) 0.5171(8) 0.8328(6)
H28 H 0.7229 0.5170 0.8172
C41 C 0.6390(7) 0.4444(8) 0.8745(6)
C42 C 0.5543(7) 0.4431(9) 0.8941(5)
C43 C 0.7005(8) 0.3611(8) 0.8902(7)
Zn1C Zn 0.73279(8) 0.18458(10) 0.97366(7)
O5C O 0.1733(4) 0.1995(6) 0.4355(4)
O7 O 0.4050(6) 1.0149(7) 0.3608(7)
O8 O 0.9322(14) 0.5504(14) 0.1722(11)
O9? O 0.8867(15) 0.5066(15) 0.1216(15)
loop_
_geom_bond_atom_site_label_1
_geom_bond_atom_site_label_2
_geom_bond_site_symmetry_1
_geom_bond_site_symmetry_2
Zn1 N1 1_555 1_555
N1 C1 1_555 1_555
N2 Zn1 1_555 1_555
N3 Zn1 1_555 1_555
N4 C16 1_555 1_555
O1 Zn1 1_555 1_555
O2 C21 1_555 1_555
O3 H1 1_555 1_555
O4 H2 1_555 1_555
O5 C43 1_555 1_555
O6 C43 1_555 1_555
C1 H3 1_555 1_555
C2 C1 1_555 1_555
H4 C2 1_555 1_555
C3 C2 1_555 1_555
H5 C3 1_555 1_555
C4 C3 1_555 1_555
H6 C4 1_555 1_555
C5 N1 1_555 1_555
C6 N2 1_555 1_555
C7 C6 1_555 1_555
H7 C7 1_555 1_555
C8 C7 1_555 1_555
C9 C8 1_555 1_555
H8 C9 1_555 1_555
C10 N2 1_555 1_555
C11 N3 1_555 1_555
C12 C11 1_555 1_555
H9 C12 1_555 1_555
C13 C12 1_555 1_555
H10 C13 1_555 1_555
C14 C13 1_555 1_555
H11 C14 1_555 1_555
C15 N3 1_555 1_555
H12 C15 1_555 1_555
C16 H13 1_555 1_555
C17 C8 1_555 1_555
C18 C17 1_555 1_555
H14 C18 1_555 1_555
C19 C18 1_555 1_555
H15 C19 1_555 1_555
C20 N4 1_555 1_555
H16 C20 1_555 1_555
C21 O1 1_555 1_555
C22 C21 1_555 1_555
C23 C22 1_555 1_555
H17 C23 1_555 1_555
C24 C23 1_555 1_555
C25 C24 1_555 1_555
H18 C25 1_555 1_555
C26 C25 1_555 1_555
H19 C26 1_555 1_555
C27 C26 1_555 1_555
H20 C27 1_555 1_555
C28 C27 1_555 1_555
H21 C28 1_555 1_555
C29 C24 1_555 1_555
C30 C29 1_555 1_555
C31 O3 1_555 1_555
C32 C30 1_555 1_555
H22 C32 1_555 1_555
H23 C32 1_555 1_555
C33 C32 1_555 1_555
C34 C33 1_555 1_555
C35 C34 1_555 1_555
H24 C35 1_555 1_555
C36 C35 1_555 1_555
H25 C36 1_555 1_555
C37 C36 1_555 1_555
H26 C37 1_555 1_555
C38 C37 1_555 1_555
H27 C38 1_555 1_555
C39 C34 1_555 1_555
C40 C39 1_555 1_555
H28 C40 1_555 1_555
C41 C40 1_555 1_555
C42 O4 1_555 1_555
C43 C41 1_555 1_555
Zn1C O5 1_555 1_555
O5C Zn1 1_555 1_555
C4 C5 1_555 1_555
C5 C6 1_555 1_555
C9 C10 1_555 1_555
C10 C11 1_555 1_555
C14 C15 1_555 1_555
C16 C17 1_555 1_555
C19 C20 1_555 1_555
C22 C31 1_555 1_555
C28 C29 1_555 1_555
C30 C31 1_555 1_555
C33 C42 1_555 1_555
C38 C39 1_555 1_555
C41 C42 1_555 1_555

#END
