
#######################################################################
#
#                 Cambridge Crystallographic Data Centre
#                                CCDC 
#
#######################################################################
#
# If this CIF has been generated from an entry in the Cambridge 
# Structural Database, then it will include bibliographic, chemical, 
# crystal, experimental, refinement or atomic coordinate data resulting 
# from the CCDC's data processing and validation procedures.
#
#######################################################################

data_KUDTOU
_symmetry_cell_setting           monoclinic
_symmetry_space_group_name_H-M   'P 21/n'
_symmetry_Int_Tables_number      14
_space_group_name_Hall           '-P 2yn'
loop_
_symmetry_equiv_pos_site_id
_symmetry_equiv_pos_as_xyz
1 x,y,z
2 1/2-x,1/2+y,1/2-z
3 -x,-y,-z
4 1/2+x,1/2-y,1/2+z
_cell_length_a                   9.6057(12)
_cell_length_b                   22.766(3)
_cell_length_c                   11.7677(15)
_cell_angle_alpha                90
_cell_angle_beta                 107.889(2)
_cell_angle_gamma                90
_cell_volume                     2448.99
loop_
_atom_site_label
_atom_site_type_symbol
_atom_site_fract_x
_atom_site_fract_y
_atom_site_fract_z
Y1 Y 0.59659(4) 0.440962(18) 0.15913(4)
S1 S 1.31839(13) 0.13913(5) 0.05783(11)
S2 S 1.84901(11) 0.10132(4) 0.37802(9)
N1 N 0.8699(4) 0.42521(16) 0.2436(3)
N2 N 0.6966(4) 0.33805(15) 0.1229(3)
N3 N 1.2913(4) 0.29555(16) 0.2792(4)
N4 N 1.1484(4) 0.22156(17) 0.1926(4)
H1 H 1.1224 0.1869 0.1650
O1 O 1.2873(5) 0.19048(19) -0.0149(4)
O2 O 1.1902(4) 0.1182(2) 0.0866(5)
O3 O 1.3869(4) 0.09259(16) 0.0117(3)
O4 O 1.9003(3) 0.10214(13) 0.5089(3)
O5 O 1.9432(3) 0.13273(14) 0.3246(3)
O6 O 1.8129(3) 0.04259(13) 0.3293(3)
O7 O 0.3937(4) 0.49039(15) 0.1752(3)
O8 O 0.3563(7) 0.5386(2) 0.0073(4)
C1 C 0.9564(5) 0.4680(2) 0.3048(4)
H2 H 0.9123 0.5025 0.3188
C2 C 1.1072(5) 0.4642(2) 0.3484(5)
H3 H 1.1619 0.4954 0.3905
C3 C 1.1745(5) 0.4146(2) 0.3291(5)
H4 H 1.2760 0.4114 0.3561
C4 C 1.0880(5) 0.36815(19) 0.2675(4)
C5 C 1.1462(5) 0.31242(19) 0.2473(4)
C6 C 1.0570(5) 0.26734(19) 0.1925(4)
C7 C 0.9014(4) 0.27253(19) 0.1478(4)
C8 C 0.8055(5) 0.2284(2) 0.0866(4)
H5 H 0.8412 0.1918 0.0734
C9 C 0.6603(5) 0.2397(2) 0.0471(4)
H6 H 0.5949 0.2111 0.0065
C10 C 0.6101(5) 0.2946(2) 0.0678(4)
H7 H 0.5098 0.3013 0.0414
C11 C 0.8422(4) 0.32767(19) 0.1638(4)
C12 C 0.9356(5) 0.37471(19) 0.2256(4)
C13 C 1.2876(5) 0.24030(19) 0.2441(4)
C14 C 1.4208(5) 0.20369(18) 0.2713(4)
C15 C 1.5280(5) 0.2152(2) 0.3765(4)
H8 H 1.5135 0.2454 0.4250
C16 C 1.6576(5) 0.1833(2) 0.4130(4)
H9 H 1.7274 0.1911 0.4860
C17 C 1.6810(5) 0.13999(18) 0.3394(4)
C18 C 1.5762(5) 0.12846(18) 0.2310(4)
H10 H 1.5938 0.0999 0.1806
C19 C 1.4465(4) 0.15894(18) 0.1972(4)
C20 C 0.3165(6) 0.5226(2) 0.0939(4)
C21 C 0.1684(6) 0.5419(3) 0.0989(6)
H11 H 0.1750 0.5844 0.1024
H12 H 0.1671 0.5297 0.1775
C22 C -0.0074(14) 0.5284(4) 0.0079(9)
H13 H -0.0800 0.5365 0.0478
H14 H -0.0307 0.5502 -0.0664
O9 O 0.6657(4) 0.47256(14) 0.3589(3)
O10 O 0.5257(4) 0.36735(16) 0.2777(3)
O7B O -0.3937(4) 0.50961(15) -0.1752(3)
O8B O -0.3563(7) 0.4614(2) -0.0073(4)
C20B C -0.3165(6) 0.4774(2) -0.0939(4)
C21B C -0.1684(6) 0.4581(3) -0.0989(6)
H11B H -0.1750 0.4156 -0.1024
H12B H -0.1671 0.4703 -0.1775
C22B C 0.0074(14) 0.4716(4) -0.0079(9)
H13B H 0.0800 0.4635 -0.0478
H14B H 0.0307 0.4498 0.0664
Y1B Y -0.59659(4) 0.559038(18) -0.15913(4)
S1B S -1.31839(13) 0.86087(5) -0.05783(11)
S2B S -1.84901(11) 0.89868(4) -0.37802(9)
N1B N -0.8699(4) 0.57479(16) -0.2436(3)
N2B N -0.6966(4) 0.66195(15) -0.1229(3)
N3B N -1.2913(4) 0.70445(16) -0.2792(4)
N4B N -1.1484(4) 0.77844(17) -0.1926(4)
H1B H -1.1224 0.8131 -0.1650
O1B O -1.2873(5) 0.80952(19) 0.0149(4)
O2B O -1.1902(4) 0.8818(2) -0.0866(5)
O3B O -1.3869(4) 0.90741(16) -0.0117(3)
O4B O -1.9003(3) 0.89786(13) -0.5089(3)
O5B O -1.9432(3) 0.86727(14) -0.3246(3)
O6B O -1.8129(3) 0.95741(13) -0.3293(3)
C1B C -0.9564(5) 0.5320(2) -0.3048(4)
H2B H -0.9123 0.4975 -0.3188
C2B C -1.1072(5) 0.5358(2) -0.3484(5)
H3B H -1.1619 0.5046 -0.3905
C3B C -1.1745(5) 0.5854(2) -0.3291(5)
H4B H -1.2760 0.5886 -0.3561
C4B C -1.0880(5) 0.63185(19) -0.2675(4)
C5B C -1.1462(5) 0.68758(19) -0.2473(4)
C6B C -1.0570(5) 0.73266(19) -0.1925(4)
C7B C -0.9014(4) 0.72747(19) -0.1478(4)
C8B C -0.8055(5) 0.7716(2) -0.0866(4)
H5B H -0.8412 0.8082 -0.0734
C9B C -0.6603(5) 0.7603(2) -0.0471(4)
H6B H -0.5949 0.7889 -0.0065
C10B C -0.6101(5) 0.7054(2) -0.0678(4)
H7B H -0.5098 0.6987 -0.0414
C11B C -0.8422(4) 0.67233(19) -0.1638(4)
C12B C -0.9356(5) 0.62529(19) -0.2256(4)
C13B C -1.2876(5) 0.75970(19) -0.2441(4)
C14B C -1.4208(5) 0.79631(18) -0.2713(4)
C15B C -1.5280(5) 0.7848(2) -0.3765(4)
H8B H -1.5135 0.7546 -0.4250
C16B C -1.6576(5) 0.8167(2) -0.4130(4)
H9B H -1.7274 0.8089 -0.4860
C17B C -1.6810(5) 0.86001(18) -0.3394(4)
C18B C -1.5762(5) 0.87154(18) -0.2310(4)
H10B H -1.5938 0.9001 -0.1806
C19B C -1.4465(4) 0.84106(18) -0.1972(4)
O9B O -0.6657(4) 0.52744(14) -0.3589(3)
O10B O -0.5257(4) 0.63265(16) -0.2777(3)
Y1_2 Y -0.40341(4) 0.440962(18) 0.15913(4)
Y1A Y -2.09659(4) 0.940962(18) -0.65913(4)
Y1A_2 Y 1.90341(4) -0.059038(18) 0.34087(4)
Y1B_2 Y 0.40341(4) 0.559038(18) -0.15913(4)
Y1C Y -1.90341(4) 1.059038(18) -0.34087(4)
Y1C_2 Y 2.09659(4) 0.059038(18) 0.65913(4)
O4A O -0.4003(3) 0.60214(13) -0.0089(3)
O4C O 0.4003(3) 0.39786(13) 0.0089(3)
O6A O 0.6871(3) 0.54259(13) 0.1707(3)
O6C O -0.6871(3) 0.45741(13) -0.1707(3)
O8_2 O -0.6437(7) 0.5386(2) 0.0073(4)
O8B_2 O 0.6437(7) 0.4614(2) -0.0073(4)
O11 O 1.9266(5) 0.0804(2) 0.1001(4)
loop_
_geom_bond_atom_site_label_1
_geom_bond_atom_site_label_2
_geom_bond_site_symmetry_1
_geom_bond_site_symmetry_2
Y1 N1 1_555 1_555
S1 O1 1_555 1_555
S2 O4 1_555 1_555
N1 C1 1_555 1_555
N2 Y1 1_555 1_555
N3 C5 1_555 1_555
N4 H1 1_555 1_555
O2 S1 1_555 1_555
O3 S1 1_555 1_555
O4 Y1C_2 1_555 1_555
O5 S2 1_555 1_555
O6 S2 1_555 1_555
O7 Y1 1_555 1_555
O8 C20 1_555 1_555
C1 H2 1_555 1_555
C2 C1 1_555 1_555
H3 C2 1_555 1_555
C3 C2 1_555 1_555
H4 C3 1_555 1_555
C4 C3 1_555 1_555
C5 C4 1_555 1_555
C6 N4 1_555 1_555
C7 C6 1_555 1_555
C8 C7 1_555 1_555
H5 C8 1_555 1_555
C9 C8 1_555 1_555
H6 C9 1_555 1_555
C10 N2 1_555 1_555
H7 C10 1_555 1_555
C11 N2 1_555 1_555
C12 N1 1_555 1_555
C13 N3 1_555 1_555
C14 C13 1_555 1_555
C15 C14 1_555 1_555
H8 C15 1_555 1_555
C16 C15 1_555 1_555
H9 C16 1_555 1_555
C17 S2 1_555 1_555
C18 C17 1_555 1_555
H10 C18 1_555 1_555
C19 S1 1_555 1_555
C20 O7 1_555 1_555
C21 C20 1_555 1_555
H11 C21 1_555 1_555
H12 C21 1_555 1_555
C22 C21 1_555 1_555
H13 C22 1_555 1_555
H14 C22 1_555 1_555
O9 Y1 1_555 1_555
O10 Y1 1_555 1_555
O7B C20B 1_555 1_555
O8B C20B 1_555 1_555
C20B C21B 1_555 1_555
C21B H11B 1_555 1_555
H12B C21B 1_555 1_555
C22B C22 1_555 1_555
H13B C22B 1_555 1_555
H14B C22B 1_555 1_555
Y1B O7B 1_555 1_555
S1B O1B 1_555 1_555
S2B O4B 1_555 1_555
N1B Y1B 1_555 1_555
N2B Y1B 1_555 1_555
N3B C5B 1_555 1_555
N4B H1B 1_555 1_555
O2B S1B 1_555 1_555
O3B S1B 1_555 1_555
O4B Y1A 1_555 1_555
O5B S2B 1_555 1_555
O6B S2B 1_555 1_555
C1B N1B 1_555 1_555
H2B C1B 1_555 1_555
C2B C1B 1_555 1_555
H3B C2B 1_555 1_555
C3B C2B 1_555 1_555
H4B C3B 1_555 1_555
C4B C3B 1_555 1_555
C5B C4B 1_555 1_555
C6B N4B 1_555 1_555
C7B C6B 1_555 1_555
C8B C7B 1_555 1_555
H5B C8B 1_555 1_555
C9B C8B 1_555 1_555
H6B C9B 1_555 1_555
C10B N2B 1_555 1_555
H7B C10B 1_555 1_555
C11B N2B 1_555 1_555
C12B N1B 1_555 1_555
C13B N3B 1_555 1_555
C14B C13B 1_555 1_555
C15B C14B 1_555 1_555
H8B C15B 1_555 1_555
C16B C15B 1_555 1_555
H9B C16B 1_555 1_555
C17B S2B 1_555 1_555
C18B C17B 1_555 1_555
H10B C18B 1_555 1_555
C19B S1B 1_555 1_555
O9B Y1B 1_555 1_555
O10B Y1B 1_555 1_555
Y1_2 O8B 1_555 1_555
Y1A_2 O6 1_555 1_555
Y1B_2 O8 1_555 1_555
Y1C O6B 1_555 1_555
O4A Y1B 1_555 1_555
O4C Y1 1_555 1_555
O6A Y1 1_555 1_555
O6C Y1B 1_555 1_555
O8_2 Y1B 1_555 1_555
O8B_2 Y1 1_555 1_555
N4 C13 1_555 1_555
C4 C12 1_555 1_555
C5 C6 1_555 1_555
C7 C11 1_555 1_555
C9 C10 1_555 1_555
C11 C12 1_555 1_555
C14 C19 1_555 1_555
C16 C17 1_555 1_555
C18 C19 1_555 1_555
C21B C22B 1_555 1_555
N4B C13B 1_555 1_555
C4B C12B 1_555 1_555
C5B C6B 1_555 1_555
C7B C11B 1_555 1_555
C9B C10B 1_555 1_555
C11B C12B 1_555 1_555
C14B C19B 1_555 1_555
C16B C17B 1_555 1_555
C18B C19B 1_555 1_555

#END
