
#######################################################################
#
#                 Cambridge Crystallographic Data Centre
#                                CCDC 
#
#######################################################################
#
# If this CIF has been generated from an entry in the Cambridge 
# Structural Database, then it will include bibliographic, chemical, 
# crystal, experimental, refinement or atomic coordinate data resulting 
# from the CCDC's data processing and validation procedures.
#
#######################################################################

data_KUDWUD
_symmetry_cell_setting           triclinic
_symmetry_space_group_name_H-M   'P -1'
_symmetry_Int_Tables_number      2
_space_group_name_Hall           '-P 1'
loop_
_symmetry_equiv_pos_site_id
_symmetry_equiv_pos_as_xyz
1 x,y,z
2 -x,-y,-z
_cell_length_a                   9.5118(3)
_cell_length_b                   10.5591(3)
_cell_length_c                   14.5326(5)
_cell_angle_alpha                109.846(4)
_cell_angle_beta                 93.618(3)
_cell_angle_gamma                104.815(4)
_cell_volume                     1309.11
loop_
_atom_site_label
_atom_site_type_symbol
_atom_site_fract_x
_atom_site_fract_y
_atom_site_fract_z
Zn1 Zn 0.88909(4) 0.14132(4) 0.11465(3)
O1 O 0.8671(3) 0.4391(3) 0.3500(2)
O2 O 0.9117(3) 0.3588(3) 0.19518(19)
O3 O 1.5920(5) 0.8555(6) 0.3452(4)
O4 O 1.5777(4) 0.8861(4) 0.4965(3)
O5 O 1.1523(3) 0.0826(2) -0.05180(18)
O6 O 1.1170(3) 0.2086(3) 0.09758(19)
O7 O 1.8536(4) 0.5337(5) 0.0411(4)
O8 O 1.8302(4) 0.6372(4) 0.1922(4)
O9 O 1.4003(3) 0.3463(3) 0.3975(2)
O10 O 0.3467(2) -0.0828(3) -0.14454(17)
N1 N 1.5271(4) 0.8314(4) 0.4092(3)
N2 N 1.7850(4) 0.5475(4) 0.1102(4)
N3 N 0.9685(3) 0.1292(3) 0.2625(2)
N4 N 1.3297(3) 0.4235(4) 0.5466(2)
H1 H 1.4152 0.4830 0.5733
H2 H 1.2605 0.4171 0.5816
N5 N 0.7923(3) 0.1216(3) -0.0391(2)
N6 N 0.3979(3) -0.2171(3) -0.2888(2)
H3 H 0.3090 -0.2722 -0.3076
H4 H 0.4633 -0.2315 -0.3263
C1 C 0.9464(4) 0.4401(3) 0.2850(3)
C2 C 1.0981(4) 0.5454(3) 0.3168(2)
C3 C 1.1568(4) 0.6153(4) 0.4178(3)
H5 H 1.1008 0.5981 0.4648
C4 C 1.2969(5) 0.7097(5) 0.4486(3)
H6 H 1.3356 0.7566 0.5157
C5 C 1.3777(4) 0.7324(4) 0.3772(3)
C6 C 1.3225(4) 0.6662(5) 0.2774(3)
H7 H 1.3786 0.6851 0.2309
C7 C 1.1821(4) 0.5709(4) 0.2470(3)
H8 H 1.1444 0.5241 0.1798
C8 C 1.1944(3) 0.1804(3) 0.0309(2)
C9 C 1.3506(3) 0.2755(3) 0.0529(2)
C10 C 1.4151(4) 0.3680(4) 0.1489(3)
H9 H 1.3613 0.3707 0.2004
C11 C 1.5580(4) 0.4561(5) 0.1691(3)
H10 H 1.6008 0.5176 0.2333
C12 C 1.6357(4) 0.4502(4) 0.0910(3)
C13 C 1.5764(4) 0.3579(4) -0.0052(3)
H11 H 1.6314 0.3547 -0.0562
C14 C 1.4334(4) 0.2706(4) -0.0237(3)
H12 H 1.3919 0.2079 -0.0879
C15 C 1.1025(3) 0.2154(3) 0.3102(2)
H13 H 1.1637 0.2597 0.2758
C16 C 1.1542(3) 0.2416(3) 0.4080(2)
C17 C 1.0644(4) 0.1754(4) 0.4601(3)
H14 H 1.0946 0.1935 0.5266
C18 C 0.9282(4) 0.0815(5) 0.4100(3)
H15 H 0.8671 0.0319 0.4417
C19 C 0.8841(4) 0.0623(4) 0.3123(3)
H16 H 0.7920 0.0002 0.2799
C20 C 1.3046(3) 0.3414(3) 0.4512(2)
C21 C 0.6540(3) 0.0355(3) -0.0750(2)
H17 H 0.5976 0.0097 -0.0307
C22 C 0.5908(3) -0.0170(3) -0.1739(2)
C23 C 0.6756(4) 0.0196(4) -0.2406(3)
H18 H 0.6386 -0.0170 -0.3081
C24 C 0.8167(4) 0.1120(4) -0.2041(3)
H19 H 0.8746 0.1411 -0.2466
C25 C 0.8706(3) 0.1609(4) -0.1032(3)
H20 H 0.9651 0.2234 -0.0794
C26 C 0.4345(3) -0.1097(3) -0.2019(2)
Zn1A Zn 0.11091(4) -0.14132(4) -0.11465(3)
Zn1A_2 Zn 1.11091(4) -0.14132(4) -0.11465(3)
O5A O 0.8477(3) -0.0826(2) 0.05180(18)
O10A O 0.6533(2) 0.0828(3) 0.14454(17)
loop_
_geom_bond_atom_site_label_1
_geom_bond_atom_site_label_2
_geom_bond_site_symmetry_1
_geom_bond_site_symmetry_2
Zn1 O2 1_555 1_555
O1 C1 1_555 1_555
O2 C1 1_555 1_555
O3 N1 1_555 1_555
O4 N1 1_555 1_555
O5 C8 1_555 1_555
O6 Zn1 1_555 1_555
O7 N2 1_555 1_555
O8 N2 1_555 1_555
O9 C20 1_555 1_555
O10 C26 1_555 1_555
N1 C5 1_555 1_555
N2 C12 1_555 1_555
N3 Zn1 1_555 1_555
N4 H1 1_555 1_555
H2 N4 1_555 1_555
N5 Zn1 1_555 1_555
N6 H3 1_555 1_555
H4 N6 1_555 1_555
C1 C2 1_555 1_555
C2 C3 1_555 1_555
C3 H5 1_555 1_555
C4 C3 1_555 1_555
H6 C4 1_555 1_555
C5 C4 1_555 1_555
C6 C5 1_555 1_555
H7 C6 1_555 1_555
C7 C2 1_555 1_555
H8 C7 1_555 1_555
C8 O6 1_555 1_555
C9 C8 1_555 1_555
C10 C9 1_555 1_555
H9 C10 1_555 1_555
C11 C10 1_555 1_555
H10 C11 1_555 1_555
C12 C11 1_555 1_555
C13 C12 1_555 1_555
H11 C13 1_555 1_555
C14 C9 1_555 1_555
H12 C14 1_555 1_555
C15 N3 1_555 1_555
H13 C15 1_555 1_555
C16 C15 1_555 1_555
C17 C16 1_555 1_555
H14 C17 1_555 1_555
C18 C17 1_555 1_555
H15 C18 1_555 1_555
C19 N3 1_555 1_555
H16 C19 1_555 1_555
C20 N4 1_555 1_555
C21 N5 1_555 1_555
H17 C21 1_555 1_555
C22 C21 1_555 1_555
C23 C22 1_555 1_555
H18 C23 1_555 1_555
C24 C23 1_555 1_555
H19 C24 1_555 1_555
C25 N5 1_555 1_555
H20 C25 1_555 1_555
C26 N6 1_555 1_555
Zn1A O10 1_555 1_555
Zn1A_2 O5 1_555 1_555
O5A Zn1 1_555 1_555
O10A Zn1 1_555 1_555
C6 C7 1_555 1_555
C13 C14 1_555 1_555
C16 C20 1_555 1_555
C18 C19 1_555 1_555
C22 C26 1_555 1_555
C24 C25 1_555 1_555

#END
