
#######################################################################
#
#                 Cambridge Crystallographic Data Centre
#                                CCDC 
#
#######################################################################
#
# If this CIF has been generated from an entry in the Cambridge 
# Structural Database, then it will include bibliographic, chemical, 
# crystal, experimental, refinement or atomic coordinate data resulting 
# from the CCDC's data processing and validation procedures.
#
#######################################################################

data_KUFFAU
_symmetry_cell_setting           cubic
_symmetry_space_group_name_H-M   'P a -3'
_symmetry_Int_Tables_number      205
_space_group_name_Hall           '-P 2ac 2ab 3'
loop_
_symmetry_equiv_pos_site_id
_symmetry_equiv_pos_as_xyz
1 x,y,z
2 1/2-x,-y,1/2+z
3 -x,1/2+y,1/2-z
4 1/2+x,1/2-y,-z
5 z,x,y
6 1/2+z,1/2-x,-y
7 1/2-z,-x,1/2+y
8 -z,1/2+x,1/2-y
9 y,z,x
10 -y,1/2+z,1/2-x
11 1/2+y,1/2-z,-x
12 1/2-y,-z,1/2+x
13 -x,-y,-z
14 1/2+x,y,1/2-z
15 x,1/2-y,1/2+z
16 1/2-x,1/2+y,z
17 -z,-x,-y
18 1/2-z,1/2+x,y
19 1/2+z,x,1/2-y
20 z,1/2-x,1/2+y
21 -y,-z,-x
22 y,1/2-z,1/2+x
23 1/2-y,1/2+z,x
24 1/2+y,z,1/2-x
_cell_length_a                   20.82910(10)
_cell_length_b                   20.82910(10)
_cell_length_c                   20.82910(10)
_cell_angle_alpha                90
_cell_angle_beta                 90
_cell_angle_gamma                90
_cell_volume                     9036.73
loop_
_atom_site_label
_atom_site_type_symbol
_atom_site_fract_x
_atom_site_fract_y
_atom_site_fract_z
N1 N 0.92246(14) 0.10022(15) 0.80200(14)
Co1 Co 0.87480(2) 0.11029(2) 1.02564(2)
Co2 Co 1.0000 0.0000 1.0000
Fe1 Fe 0.87512(2) -0.12488(2) 0.87512(2)
Fe2 Fe 0.73298(2) 0.10861(3) 0.97267(2)
P1 P 0.97866(4) -0.01253(4) 0.83835(4)
O1 O 0.99340(17) 0.23801(15) 0.72898(15)
O2 O 0.89717(17) -0.21162(17) 0.8237(2)
H1 H 0.930(2) -0.227(3) 0.805(3)
O3 O 0.97978(13) 0.20665(12) 0.82989(12)
O4 O 0.66261(15) 0.17899(15) 0.95887(17)
O5 O 0.77750(12) 0.12761(14) 0.88748(13)
O6 O 0.87943(12) 0.12870(13) 0.92091(12)
O7 O 0.67106(13) 0.03074(14) 0.95173(13)
O8 O 0.67518(13) 0.07278(13) 1.04794(13)
O9 O 0.98341(12) 0.02525(11) 0.90211(11)
O10 O 1.04382(12) -0.00169(12) 0.80561(12)
O11 O 0.95954(12) -0.08140(12) 0.84306(12)
C1 C 0.91656(17) 0.02950(17) 0.79483(18)
H2 H 0.9192 0.0184 0.7497
H3 H 0.8749 0.0159 0.8105
C2 C 0.95762(19) 0.13087(19) 0.74893(18)
H4 H 0.9302 0.1337 0.7114
H5 H 0.9950 0.1053 0.7379
C3 C 0.97860(18) 0.19803(19) 0.76955(18)
C4 C 0.85841(18) 0.12998(19) 0.80912(17)
H6 H 0.8278 0.1074 0.7822
H7 H 0.8603 0.1743 0.7948
C5 C 0.83601(17) 0.12786(18) 0.87804(18)
C6 C 0.65226(18) 0.03252(19) 1.00921(19)
C7 C 0.60080(18) -0.01154(19) 1.03114(18)
C8 C 0.58426(19) -0.06472(19) 0.99498(19)
H8 H 0.6089 -0.0762 0.9595
H9 H 0.6255(11) 0.1743(18) 0.973(2)
H10 H 0.8725(18) -0.2415(16) 0.820(2)
H11 H 0.6773(17) 0.2138(13) 0.968(2)
O7E O 0.45173(13) -0.17106(13) 0.96926(14)
O8E O 0.54794(13) -0.17518(13) 0.92722(13)
C6E C 0.50921(19) -0.15226(18) 0.96748(19)
C7E C 0.53114(18) -0.10080(18) 1.01154(19)
C8E C 0.49498(19) -0.08426(19) 1.06472(19)
H8E H 0.4595 -0.1089 1.0762
O7K O 0.46926(14) 0.04827(13) 1.17106(13)
O8K O 0.42722(13) -0.04794(13) 1.17518(13)
C6K C 0.46748(19) -0.00921(19) 1.15226(18)
C7K C 0.51154(19) -0.03114(18) 1.10080(18)
C8K C 0.56472(19) 0.00502(19) 1.08426(19)
H8K H 0.5762 0.0405 1.1089
N1D N 0.80200(14) -0.07754(14) 1.10022(15)
Co1D Co 1.02564(2) -0.12520(2) 1.11029(2)
Fe2D Fe 0.97267(2) -0.26702(2) 1.10861(3)
P1D P 0.83835(4) -0.02134(4) 0.98747(4)
O1D O 0.72898(15) -0.00660(17) 1.23801(15)
O2D O 0.8237(2) -0.10283(17) 0.78838(17)
H1D H 0.805(3) -0.070(2) 0.773(3)
O3D O 0.82989(12) -0.02022(13) 1.20665(12)
O4D O 0.95887(17) -0.33739(15) 1.17899(15)
O5D O 0.88748(13) -0.22250(12) 1.12761(14)
O6D O 0.92091(12) -0.12057(12) 1.12870(13)
O9D O 0.90211(11) -0.01659(12) 1.02525(11)
O10D O 0.80561(12) 0.04382(12) 0.99831(12)
O11D O 0.84306(12) -0.04046(12) 0.91860(12)
C1D C 0.79483(18) -0.08344(17) 1.02950(17)
H2D H 0.7497 -0.0808 1.0184
H3D H 0.8105 -0.1251 1.0159
C2D C 0.74893(18) -0.04238(19) 1.13087(19)
H4D H 0.7114 -0.0698 1.1337
H5D H 0.7379 -0.0050 1.1053
C3D C 0.76955(18) -0.02140(18) 1.19803(19)
C4D C 0.80912(17) -0.14159(18) 1.12998(19)
H6D H 0.7822 -0.1722 1.1074
H7D H 0.7948 -0.1397 1.1743
C5D C 0.87804(18) -0.16399(17) 1.12786(18)
H9D H 0.973(2) -0.3745(11) 1.1743(18)
H10D H 0.820(2) -0.1275(18) 0.7585(16)
H11D H 0.968(2) -0.3227(17) 1.2138(13)
N1H N 1.10022(15) -0.19800(14) 0.92246(14)
Co1H Co 1.11029(2) 0.02564(2) 0.87480(2)
Fe2H Fe 1.10861(3) -0.02733(2) 0.73298(2)
P1H P 0.98747(4) -0.16165(4) 0.97866(4)
O1H O 1.23801(15) -0.27102(15) 0.99340(17)
O2H O 0.78838(17) -0.1763(2) 0.89717(17)
H1H H 0.773(3) -0.195(3) 0.930(2)
O3H O 1.20665(12) -0.17011(12) 0.97978(13)
O4H O 1.17899(15) -0.04113(17) 0.66261(15)
O5H O 1.12761(14) -0.11252(13) 0.77750(12)
O6H O 1.12870(13) -0.07909(12) 0.87943(12)
O9H O 1.02525(11) -0.09789(11) 0.98341(12)
O10H O 0.99831(12) -0.19439(12) 1.04382(12)
O11H O 0.91860(12) -0.15694(12) 0.95954(12)
C1H C 1.02950(17) -0.20517(18) 0.91656(17)
H2H H 1.0184 -0.2503 0.9192
H3H H 1.0159 -0.1895 0.8749
C2H C 1.13087(19) -0.25107(18) 0.95762(19)
H4H H 1.1337 -0.2886 0.9302
H5H H 1.1053 -0.2621 0.9950
C3H C 1.19803(19) -0.23045(18) 0.97860(18)
C4H C 1.12998(19) -0.19088(17) 0.85841(18)
H6H H 1.1074 -0.2178 0.8278
H7H H 1.1743 -0.2052 0.8603
C5H C 1.12786(18) -0.12196(18) 0.83601(17)
H9H H 1.1743(18) -0.027(2) 0.6255(11)
H10H H 0.7585(16) -0.180(2) 0.8725(18)
H11H H 1.2138(13) -0.032(2) 0.6773(17)
N1L N 1.07754(14) -0.10022(15) 1.19800(14)
Co1L Co 1.12520(2) -0.11029(2) 0.97436(2)
Fe1L Fe 1.12488(2) 0.12488(2) 1.12488(2)
Fe2L Fe 1.26702(2) -0.10861(3) 1.02733(2)
P1L P 1.02134(4) 0.01253(4) 1.16165(4)
O1L O 1.00660(17) -0.23801(15) 1.27102(15)
O2L O 1.10283(17) 0.21162(17) 1.1763(2)
H1L H 1.070(2) 0.227(3) 1.195(3)
O3L O 1.02022(13) -0.20665(12) 1.17011(12)
O4L O 1.33739(15) -0.17899(15) 1.04113(17)
O5L O 1.22250(12) -0.12761(14) 1.11252(13)
O6L O 1.12057(12) -0.12870(13) 1.07909(12)
O7L O 1.32894(13) -0.03074(14) 1.04827(13)
O8L O 1.32482(13) -0.07278(13) 0.95206(13)
O9L O 1.01659(12) -0.02525(11) 1.09789(11)
O10L O 0.95618(12) 0.00169(12) 1.19439(12)
O11L O 1.04046(12) 0.08140(12) 1.15694(12)
C1L C 1.08344(17) -0.02950(17) 1.20517(18)
H2L H 1.0808 -0.0184 1.2503
H3L H 1.1251 -0.0159 1.1895
C2L C 1.04238(19) -0.13087(19) 1.25107(18)
H4L H 1.0698 -0.1337 1.2886
H5L H 1.0050 -0.1053 1.2621
C3L C 1.02140(18) -0.19803(19) 1.23045(18)
C4L C 1.14159(18) -0.12998(19) 1.19088(17)
H6L H 1.1722 -0.1074 1.2178
H7L H 1.1397 -0.1743 1.2052
C5L C 1.16399(17) -0.12786(18) 1.12196(18)
C6L C 1.34774(18) -0.03252(19) 0.99079(19)
C7L C 1.39920(18) 0.01154(19) 0.96886(18)
C8L C 1.41574(19) 0.06472(19) 1.00502(19)
H8L H 1.3911 0.0762 1.0405
H9L H 1.3745(11) -0.1743(18) 1.027(2)
H10L H 1.1275(18) 0.2415(16) 1.180(2)
H11L H 1.3227(17) -0.2138(13) 1.032(2)
O7Q O 1.54827(13) 0.17106(13) 1.03074(14)
O8Q O 1.45206(13) 0.17518(13) 1.07278(13)
C6Q C 1.49079(19) 0.15226(18) 1.03252(19)
C7Q C 1.46886(18) 0.10080(18) 0.98846(19)
C8Q C 1.50502(19) 0.08426(19) 0.93528(19)
H8Q H 1.5405 0.1089 0.9238
O7W O 1.53074(14) -0.04827(13) 0.82894(13)
O8W O 1.57278(13) 0.04794(13) 0.82482(13)
C6W C 1.53252(19) 0.00921(19) 0.84774(18)
C7W C 1.48846(19) 0.03114(18) 0.89920(18)
C8W C 1.43528(19) -0.00502(19) 0.91574(19)
H8W H 1.4238 -0.0405 0.8911
N1P N 1.19800(14) 0.07754(14) 0.89978(15)
Co1P Co 0.97436(2) 0.12520(2) 0.88971(2)
Fe2P Fe 1.02733(2) 0.26702(2) 0.89139(3)
P1P P 1.16165(4) 0.02134(4) 1.01253(4)
O1P O 1.27102(15) 0.00660(17) 0.76199(15)
O2P O 1.1763(2) 0.10283(17) 1.21162(17)
H1P H 1.195(3) 0.070(2) 1.227(3)
O3P O 1.17011(12) 0.02022(13) 0.79335(12)
O4P O 1.04113(17) 0.33739(15) 0.82101(15)
O5P O 1.11252(13) 0.22250(12) 0.87239(14)
O6P O 1.07909(12) 0.12057(12) 0.87130(13)
O9P O 1.09789(11) 0.01659(12) 0.97475(11)
O10P O 1.19439(12) -0.04382(12) 1.00169(12)
O11P O 1.15694(12) 0.04046(12) 1.08140(12)
C1P C 1.20517(18) 0.08344(17) 0.97050(17)
H2P H 1.2503 0.0808 0.9816
H3P H 1.1895 0.1251 0.9841
C2P C 1.25107(18) 0.04238(19) 0.86913(19)
H4P H 1.2886 0.0698 0.8663
H5P H 1.2621 0.0050 0.8947
C3P C 1.23045(18) 0.02140(18) 0.80197(19)
C4P C 1.19088(17) 0.14159(18) 0.87002(19)
H6P H 1.2178 0.1722 0.8926
H7P H 1.2052 0.1397 0.8257
C5P C 1.12196(18) 0.16399(17) 0.87214(18)
H9P H 1.027(2) 0.3745(11) 0.8257(18)
H10P H 1.180(2) 0.1275(18) 1.2415(16)
H11P H 1.032(2) 0.3227(17) 0.7862(13)
N1T N 0.89978(15) 0.19800(14) 1.07754(14)
Co1T Co 0.88971(2) -0.02564(2) 1.12520(2)
Fe2T Fe 0.89139(3) 0.02733(2) 1.26702(2)
P1T P 1.01253(4) 0.16165(4) 1.02134(4)
O1T O 0.76199(15) 0.27102(15) 1.00660(17)
O2T O 1.21162(17) 0.1763(2) 1.10283(17)
H1T H 1.227(3) 0.195(3) 1.070(2)
O3T O 0.79335(12) 0.17011(12) 1.02022(13)
O4T O 0.82101(15) 0.04113(17) 1.33739(15)
O5T O 0.87239(14) 0.11252(13) 1.22250(12)
O6T O 0.87130(13) 0.07909(12) 1.12057(12)
O9T O 0.97475(11) 0.09789(11) 1.01659(12)
O10T O 1.00169(12) 0.19439(12) 0.95618(12)
O11T O 1.08140(12) 0.15694(12) 1.04046(12)
C1T C 0.97050(17) 0.20517(18) 1.08344(17)
H2T H 0.9816 0.2503 1.0808
H3T H 0.9841 0.1895 1.1251
C2T C 0.86913(19) 0.25107(18) 1.04238(19)
H4T H 0.8663 0.2886 1.0698
H5T H 0.8947 0.2621 1.0050
C3T C 0.80197(19) 0.23045(18) 1.02140(18)
C4T C 0.87002(19) 0.19088(17) 1.14159(18)
H6T H 0.8926 0.2178 1.1722
H7T H 0.8257 0.2052 1.1397
C5T C 0.87214(18) 0.12196(18) 1.16399(17)
H9T H 0.8257(18) 0.027(2) 1.3745(11)
H10T H 1.2415(16) 0.180(2) 1.1275(18)
H11T H 0.7862(13) 0.032(2) 1.3227(17)
Fe2E Fe 0.47267(2) -0.23298(2) 0.89139(3)
Fe2K Fe 0.39139(3) 0.02733(2) 1.23298(2)
Fe2Q Fe 1.52733(2) 0.23298(2) 1.10861(3)
Fe2W Fe 1.60861(3) -0.02733(2) 0.76702(2)
O7D O 0.95173(13) -0.32894(13) 1.03074(14)
O7H O 1.03074(14) -0.04827(13) 0.67106(13)
O7P O 1.04827(13) 0.32894(13) 0.96926(14)
O7T O 0.96926(14) 0.04827(13) 1.32894(13)
O8D O 1.04794(13) -0.32482(13) 1.07278(13)
O8H O 1.07278(13) 0.04794(13) 0.67518(13)
O8P O 0.95206(13) 0.32482(13) 0.92722(13)
O8T O 0.92722(13) -0.04794(13) 1.32482(13)
O12 O 0.8351(3) -0.3360(3) 0.8024(3)
H12 H 0.8598(19) -0.337(2) 0.8352(17)
H13 H 0.8145(19) -0.3693(15) 0.799(2)
loop_
_geom_bond_atom_site_label_1
_geom_bond_atom_site_label_2
_geom_bond_site_symmetry_1
_geom_bond_site_symmetry_2
N1 C1 1_555 1_555
Co1 O6 1_555 1_555
Co2 O9 1_555 1_555
Fe1 O2 1_555 1_555
Fe2 O4 1_555 1_555
P1 O9 1_555 1_555
O1 C3 1_555 1_555
O2 H1 1_555 1_555
O3 C3 1_555 1_555
O4 H9 1_555 1_555
O5 Fe2 1_555 1_555
O6 C5 1_555 1_555
O7 Fe2 1_555 1_555
O8 Fe2 1_555 1_555
O9 Co1P 1_555 1_555
O10 P1 1_555 1_555
O11 Fe1 1_555 1_555
C1 P1 1_555 1_555
H2 C1 1_555 1_555
H3 C1 1_555 1_555
C2 N1 1_555 1_555
H4 C2 1_555 1_555
H5 C2 1_555 1_555
C3 C2 1_555 1_555
C4 N1 1_555 1_555
H6 C4 1_555 1_555
H7 C4 1_555 1_555
C5 O5 1_555 1_555
C6 O7 1_555 1_555
C7 C6 1_555 1_555
C8 C7 1_555 1_555
H8 C8 1_555 1_555
H10 O2 1_555 1_555
H11 O4 1_555 1_555
O12 H12 1_555 1_555
H13 O12 1_555 1_555
O7E C6E 1_555 1_555
O8E C6E 1_555 1_555
C6E C7E 1_555 1_555
C7E C8 1_555 1_555
C8E C7E 1_555 1_555
H8E C8E 1_555 1_555
O7K C6K 1_555 1_555
O8K C6K 1_555 1_555
C6K C7K 1_555 1_555
C7K C8E 1_555 1_555
C8K C7 1_555 1_555
H8K C8K 1_555 1_555
N1D C1D 1_555 1_555
Co1D O6D 1_555 1_555
Fe2D O4D 1_555 1_555
P1D O9D 1_555 1_555
O1D C3D 1_555 1_555
O2D Fe1 1_555 1_555
H1D O2D 1_555 1_555
O3D C3D 1_555 1_555
O4D H9D 1_555 1_555
O5D Fe2D 1_555 1_555
O6D C5D 1_555 1_555
O9D Co2 1_555 1_555
O10D Co1 1_555 1_555
O11D Fe1 1_555 1_555
C1D P1D 1_555 1_555
H2D C1D 1_555 1_555
H3D C1D 1_555 1_555
C2D N1D 1_555 1_555
H4D C2D 1_555 1_555
H5D C2D 1_555 1_555
C3D C2D 1_555 1_555
C4D N1D 1_555 1_555
H6D C4D 1_555 1_555
H7D C4D 1_555 1_555
C5D O5D 1_555 1_555
H10D O2D 1_555 1_555
H11D O4D 1_555 1_555
N1H C1H 1_555 1_555
Co1H O10 1_555 1_555
Fe2H O10 1_555 1_555
P1H O9H 1_555 1_555
O1H C3H 1_555 1_555
O2H Fe1 1_555 1_555
H1H O2H 1_555 1_555
O3H C3H 1_555 1_555
O4H Fe2H 1_555 1_555
O5H Fe2H 1_555 1_555
O6H Co1H 1_555 1_555
O9H Co2 1_555 1_555
O10H Co1D 1_555 1_555
O11H Fe1 1_555 1_555
C1H P1H 1_555 1_555
H2H C1H 1_555 1_555
H3H C1H 1_555 1_555
C2H N1H 1_555 1_555
H4H C2H 1_555 1_555
H5H C2H 1_555 1_555
C3H C2H 1_555 1_555
C4H N1H 1_555 1_555
H6H C4H 1_555 1_555
H7H C4H 1_555 1_555
C5H O5H 1_555 1_555
H9H O4H 1_555 1_555
H10H O2H 1_555 1_555
H11H O4H 1_555 1_555
N1L Co1D 1_555 1_555
Co1L N1H 1_555 1_555
Fe1L O2L 1_555 1_555
Fe2L O3H 1_555 1_555
P1L O9L 1_555 1_555
O1L C3L 1_555 1_555
O2L H1L 1_555 1_555
O3L Co1D 1_555 1_555
O4L Fe2L 1_555 1_555
O5L Fe2L 1_555 1_555
O6L Co1D 1_555 1_555
O7L Fe2L 1_555 1_555
O8L Fe2L 1_555 1_555
O9L Co2 1_555 1_555
O10L P1L 1_555 1_555
O11L Fe1L 1_555 1_555
C1L N1L 1_555 1_555
H2L C1L 1_555 1_555
H3L C1L 1_555 1_555
C2L N1L 1_555 1_555
H4L C2L 1_555 1_555
H5L C2L 1_555 1_555
C3L O3L 1_555 1_555
C4L N1L 1_555 1_555
H6L C4L 1_555 1_555
H7L C4L 1_555 1_555
C5L O5L 1_555 1_555
C6L O7L 1_555 1_555
C7L C6L 1_555 1_555
C8L C7L 1_555 1_555
H8L C8L 1_555 1_555
H9L O4L 1_555 1_555
H10L O2L 1_555 1_555
H11L O4L 1_555 1_555
O7Q C6Q 1_555 1_555
O8Q C6Q 1_555 1_555
C6Q C7Q 1_555 1_555
C7Q C8L 1_555 1_555
C8Q C7Q 1_555 1_555
H8Q C8Q 1_555 1_555
O7W C6W 1_555 1_555
O8W C6W 1_555 1_555
C6W C7W 1_555 1_555
C7W C8Q 1_555 1_555
C8W C7L 1_555 1_555
H8W C8W 1_555 1_555
N1P Co1H 1_555 1_555
Co1P N1 1_555 1_555
Fe2P O3 1_555 1_555
P1P O9P 1_555 1_555
O1P C3P 1_555 1_555
O2P Fe1L 1_555 1_555
H1P O2P 1_555 1_555
O3P Co1H 1_555 1_555
O4P Fe2P 1_555 1_555
O5P Fe2P 1_555 1_555
O6P Co1H 1_555 1_555
O9P Co2 1_555 1_555
O10P Co1L 1_555 1_555
O11P Fe1L 1_555 1_555
C1P N1P 1_555 1_555
H2P C1P 1_555 1_555
H3P C1P 1_555 1_555
C2P N1P 1_555 1_555
H4P C2P 1_555 1_555
H5P C2P 1_555 1_555
C3P O3P 1_555 1_555
C4P N1P 1_555 1_555
H6P C4P 1_555 1_555
H7P C4P 1_555 1_555
C5P O5P 1_555 1_555
H9P O4P 1_555 1_555
H10P O2P 1_555 1_555
H11P O4P 1_555 1_555
N1T Co1 1_555 1_555
Co1T N1D 1_555 1_555
Fe2T O3D 1_555 1_555
P1T O9T 1_555 1_555
O1T C3T 1_555 1_555
O2T Fe1L 1_555 1_555
H1T O2T 1_555 1_555
O3T Co1 1_555 1_555
O4T Fe2T 1_555 1_555
O5T Fe2T 1_555 1_555
O6T Co1 1_555 1_555
O9T Co1 1_555 1_555
O10T Co1P 1_555 1_555
O11T Fe1L 1_555 1_555
C1T N1T 1_555 1_555
H2T C1T 1_555 1_555
H3T C1T 1_555 1_555
C2T N1T 1_555 1_555
H4T C2T 1_555 1_555
H5T C2T 1_555 1_555
C3T O3T 1_555 1_555
C4T N1T 1_555 1_555
H6T C4T 1_555 1_555
H7T C4T 1_555 1_555
C5T O5T 1_555 1_555
H9T O4T 1_555 1_555
H10T O2T 1_555 1_555
H11T O4T 1_555 1_555
Fe2E O7E 1_555 1_555
Fe2K O7K 1_555 1_555
Fe2Q O7Q 1_555 1_555
Fe2W O7W 1_555 1_555
O7D Fe2D 1_555 1_555
O7H Fe2H 1_555 1_555
O7P Fe2P 1_555 1_555
O7T Fe2T 1_555 1_555
O8D Fe2D 1_555 1_555
O8H Fe2H 1_555 1_555
O8P Fe2P 1_555 1_555
O8T Fe2T 1_555 1_555
Co2 O9T 1_555 1_555
Fe2 O10D 1_555 1_555
Fe2 O3T 1_555 1_555
P1 O11 1_555 1_555
O3 Co1P 1_555 1_555
O6 Co1P 1_555 1_555
O8 C6 1_555 1_555
C4 C5 1_555 1_555
O8E Fe2E 1_555 1_555
O8K Fe2K 1_555 1_555
C7K C8K 1_555 1_555
Co1D O9L 1_555 1_555
Fe2D O10H 1_555 1_555
Fe2D O3L 1_555 1_555
P1D O10D 1_555 1_555
P1D O11D 1_555 1_555
O3D Co1T 1_555 1_555
O6D Co1T 1_555 1_555
O9D Co1T 1_555 1_555
C4D C5D 1_555 1_555
Co1H O9P 1_555 1_555
Fe2H O3P 1_555 1_555
P1H O10H 1_555 1_555
P1H O11H 1_555 1_555
O3H Co1L 1_555 1_555
O6H C5H 1_555 1_555
O6H Co1L 1_555 1_555
O9H Co1L 1_555 1_555
C4H C5H 1_555 1_555
Co1L O6L 1_555 1_555
Fe2L O10P 1_555 1_555
P1L O11L 1_555 1_555
P1L C1L 1_555 1_555
O6L C5L 1_555 1_555
O8L C6L 1_555 1_555
O10L Co1T 1_555 1_555
O10L Fe2T 1_555 1_555
C2L C3L 1_555 1_555
C4L C5L 1_555 1_555
O8Q Fe2Q 1_555 1_555
O8W Fe2W 1_555 1_555
C7W C8W 1_555 1_555
Co1P O6P 1_555 1_555
Fe2P O10T 1_555 1_555
P1P O10P 1_555 1_555
P1P O11P 1_555 1_555
P1P C1P 1_555 1_555
O6P C5P 1_555 1_555
C2P C3P 1_555 1_555
C4P C5P 1_555 1_555
Co1T O6T 1_555 1_555
P1T O10T 1_555 1_555
P1T O11T 1_555 1_555
P1T C1T 1_555 1_555
O6T C5T 1_555 1_555
C2T C3T 1_555 1_555
C4T C5T 1_555 1_555

#END
