
#######################################################################
#
#                 Cambridge Crystallographic Data Centre
#                                CCDC 
#
#######################################################################
#
# If this CIF has been generated from an entry in the Cambridge 
# Structural Database, then it will include bibliographic, chemical, 
# crystal, experimental, refinement or atomic coordinate data resulting 
# from the CCDC's data processing and validation procedures.
#
#######################################################################

data_KUFMII
_symmetry_cell_setting           orthorhombic
_symmetry_space_group_name_H-M   'P b c a'
_symmetry_Int_Tables_number      61
_space_group_name_Hall           '-P 2ac 2ab'
loop_
_symmetry_equiv_pos_site_id
_symmetry_equiv_pos_as_xyz
1 x,y,z
2 1/2-x,-y,1/2+z
3 -x,1/2+y,1/2-z
4 1/2+x,1/2-y,-z
5 -x,-y,-z
6 1/2+x,y,1/2-z
7 x,1/2-y,1/2+z
8 1/2-x,1/2+y,z
_cell_length_a                   13.656(3)
_cell_length_b                   15.464(4)
_cell_length_c                   22.626(5)
_cell_angle_alpha                90
_cell_angle_beta                 90
_cell_angle_gamma                90
_cell_volume                     4778.08
loop_
_atom_site_label
_atom_site_type_symbol
_atom_site_fract_x
_atom_site_fract_y
_atom_site_fract_z
Dy1 Dy 0.23822(3) 0.11194(3) 0.457454(19)
Zn1 Zn 0.28594(11) 0.00358(7) 0.70483(5)
Cl1 Cl 0.1200(2) 0.00444(19) 0.69962(14)
N1 N 0.3384(7) 0.1224(5) 0.6764(3)
N2 N 0.1659(6) 0.1169(5) 0.2318(4)
O1 O 0.3264(5) 0.2187(5) 0.5053(3)
O2 O 0.4073(5) 0.3380(5) 0.5325(3)
O3 O 0.3244(6) 0.0620(5) 0.7856(3)
O4 O 0.3780(6) 0.1850(5) 0.8250(3)
O5 O 0.1843(6) 0.0551(4) 0.1230(3)
O6 O 0.1404(6) 0.1808(5) 0.0831(3)
O7 O 0.1652(5) 0.2187(5) 0.4039(3)
O8 O 0.1096(6) 0.3437(5) 0.3709(3)
O9 O 0.3526(6) 0.1502(5) 0.3801(3)
H1 H 0.3666 0.1139 0.3532
H2 H 0.3788 0.2001 0.3799
O10 O 0.2115(6) -0.0122(5) 0.5214(3)
H3 H 0.2131 -0.0630 0.5072
H4 H 0.2004 -0.0048 0.5580
O11 O 0.3873(5) 0.0509(5) 0.4862(3)
H5 H 0.4078 0.0052 0.4694
H6 H 0.4211 0.0744 0.5134
O12 O 0.0771(5) 0.0638(5) 0.4350(3)
H7 H 0.0688 0.0201 0.4128
H8 H 0.0278 0.0903 0.4491
O13 O 0.1430(5) 0.1597(5) 0.5378(3)
H9 H 0.0977 0.1278 0.5515
H10 H 0.1539 0.2090 0.5530
O14 O 0.2516(5) -0.0137(5) 0.3932(3)
H11 H 0.2443 -0.0642 0.4074
H12 H 0.2635 -0.0071 0.3566
C1 C 0.3424(7) 0.1517(6) 0.6208(5)
H19 H 0.3260 0.1128 0.5893
C2 C 0.3675(7) 0.2344(6) 0.6065(4)
C3 C 0.3902(8) 0.2900(7) 0.6513(4)
C4 C 0.3872(8) 0.2613(7) 0.7105(5)
C5 C 0.3609(7) 0.1767(7) 0.7214(4)
C6 C 0.3551(8) 0.1384(7) 0.7829(5)
C7 C 0.3677(7) 0.2661(6) 0.5425(4)
C8 C 0.1619(8) 0.1485(6) 0.2880(4)
H20 H 0.1769 0.1104 0.3202
C9 C 0.1378(7) 0.2331(6) 0.3007(4)
C10 C 0.1181(8) 0.2879(7) 0.2535(4)
H21 H 0.1039 0.3478 0.2608
C11 C 0.1193(8) 0.2574(7) 0.1957(4)
H22 H 0.1026 0.2947 0.1633
C12 C 0.1448(7) 0.1723(7) 0.1865(4)
C13 C 0.1590(8) 0.1327(7) 0.1259(5)
C14 C 0.1380(7) 0.2681(6) 0.3638(4)
H23 H 0.401(8) 0.298(7) 0.748(5)
H24 H 0.404(6) 0.343(6) 0.646(4)
Zn1A Zn 0.21406(11) -0.00358(7) 0.20483(5)
N2A N 0.3341(6) -0.1169(5) 0.7318(4)
O5A O 0.3157(6) -0.0551(4) 0.6230(3)
O15 O 0.4372(6) -0.1163(5) 0.4834(3)
H13 H 0.4370 -0.1575 0.4586
H14 H 0.4751 -0.1182 0.5132
O16 O 0.4614(5) 0.3886(4) 0.4235(3)
H15 H 0.5024 0.3895 0.3953
H16 H 0.4561 0.4321 0.4463
O17 O 0.4643(7) 0.0194(6) 0.3284(4)
H17 H 0.4553 -0.0275 0.3096
H18 H 0.5160 0.0488 0.3227
loop_
_geom_bond_atom_site_label_1
_geom_bond_atom_site_label_2
_geom_bond_site_symmetry_1
_geom_bond_site_symmetry_2
Dy1 O1 1_555 1_555
Zn1 Cl1 1_555 1_555
N1 Zn1 1_555 1_555
N2 C8 1_555 1_555
O1 C7 1_555 1_555
O2 C7 1_555 1_555
O3 Zn1 1_555 1_555
O4 C6 1_555 1_555
O5 C13 1_555 1_555
O6 C13 1_555 1_555
O7 Dy1 1_555 1_555
O8 C14 1_555 1_555
O9 Dy1 1_555 1_555
H1 O9 1_555 1_555
H2 O9 1_555 1_555
O10 Dy1 1_555 1_555
H3 O10 1_555 1_555
H4 O10 1_555 1_555
O11 Dy1 1_555 1_555
H5 O11 1_555 1_555
H6 O11 1_555 1_555
O12 Dy1 1_555 1_555
H7 O12 1_555 1_555
H8 O12 1_555 1_555
O13 Dy1 1_555 1_555
H9 O13 1_555 1_555
H10 O13 1_555 1_555
O14 Dy1 1_555 1_555
H11 O14 1_555 1_555
H12 O14 1_555 1_555
O15 H13 1_555 1_555
H14 O15 1_555 1_555
O16 H15 1_555 1_555
H16 O16 1_555 1_555
O17 H17 1_555 1_555
H18 O17 1_555 1_555
C1 N1 1_555 1_555
H19 C1 1_555 1_555
C2 C1 1_555 1_555
C3 C2 1_555 1_555
C4 C3 1_555 1_555
C5 N1 1_555 1_555
C6 O3 1_555 1_555
C7 C2 1_555 1_555
C8 H20 1_555 1_555
C9 C8 1_555 1_555
C10 C9 1_555 1_555
H21 C10 1_555 1_555
C11 C10 1_555 1_555
H22 C11 1_555 1_555
C12 N2 1_555 1_555
C13 C12 1_555 1_555
C14 O7 1_555 1_555
H23 C4 1_555 1_555
H24 C3 1_555 1_555
Zn1A N2 1_555 1_555
N2A Zn1 1_555 1_555
O5A Zn1 1_555 1_555
O5 Zn1A 1_555 1_555
C4 C5 1_555 1_555
C5 C6 1_555 1_555
C9 C14 1_555 1_555
C11 C12 1_555 1_555

#END
