
#######################################################################
#
#                 Cambridge Crystallographic Data Centre
#                                CCDC 
#
#######################################################################
#
# If this CIF has been generated from an entry in the Cambridge 
# Structural Database, then it will include bibliographic, chemical, 
# crystal, experimental, refinement or atomic coordinate data resulting 
# from the CCDC's data processing and validation procedures.
#
#######################################################################

data_KUFPUX
_symmetry_cell_setting           triclinic
_symmetry_space_group_name_H-M   'P -1'
_symmetry_Int_Tables_number      2
_space_group_name_Hall           '-P 1'
loop_
_symmetry_equiv_pos_site_id
_symmetry_equiv_pos_as_xyz
1 x,y,z
2 -x,-y,-z
_cell_length_a                   13.597(2)
_cell_length_b                   15.900(3)
_cell_length_c                   17.489(3)
_cell_angle_alpha                95.297(4)
_cell_angle_beta                 100.923(3)
_cell_angle_gamma                103.237(4)
_cell_volume                     3577.24
loop_
_atom_site_label
_atom_site_type_symbol
_atom_site_fract_x
_atom_site_fract_y
_atom_site_fract_z
Cu1 Cu 0.3614(2) 1.44531(17) 0.63532(17)
Cu2 Cu 0.1844(2) 0.60041(16) 0.39655(17)
Cu3 Cu 0.2407(2) 0.97067(17) -0.02292(17)
Sm1 Sm 0.32193(10) 1.16737(7) 0.51626(7)
Sm2 Sm 0.24694(9) 0.80146(7) 0.61333(7)
Sm3 Sm 0.34251(9) 1.21006(7) 0.15991(7)
Sm4 Sm -0.04274(10) 1.37153(7) 0.14139(7)
C1 C 0.3380(17) 1.2658(13) 0.3504(13)
C2 C 0.3452(17) 1.3393(13) 0.4129(12)
C3 C 0.3635(16) 1.4282(12) 0.4097(12)
C4 C 0.3714(17) 1.4677(13) 0.4830(12)
C5 C 0.3878(17) 1.5547(14) 0.5267(13)
C6 C 0.320(2) 1.4344(16) 0.7844(16)
C7 C 0.2979(19) 1.3422(15) 0.7420(14)
C8 C 0.2404(19) 1.2585(15) 0.7530(14)
C9 C 0.2399(19) 1.2025(15) 0.6873(14)
C10 C 0.195(2) 1.1088(15) 0.6529(15)
C11 C 0.305(2) 0.9456(15) 0.4962(15)
C12 C 0.2846(18) 0.8647(14) 0.4392(13)
C13 C 0.2861(18) 0.8476(14) 0.3613(13)
C14 C 0.2499(18) 0.7571(14) 0.3466(13)
C15 C 0.2278(19) 0.6949(15) 0.2748(14)
C16 C 0.1138(18) 0.4363(14) 0.4383(14)
C17 C 0.1323(17) 0.5028(13) 0.5090(13)
C18 C 0.1138(17) 0.4981(13) 0.5872(13)
C19 C 0.1480(18) 0.5883(14) 0.6217(13)
C20 C 0.1485(18) 0.6329(14) 0.6955(14)
C21 C 0.5429(19) 1.1275(14) 0.2296(14)
C22 C 0.4879(18) 1.0619(14) 0.1587(13)
C23 C 0.5074(18) 0.9874(14) 0.1231(13)
C24 C 0.4256(18) 0.9548(14) 0.0640(14)
C25 C 0.3889(19) 0.8768(14) 0.0012(14)
C26 C 0.0498(17) 0.9736(13) -0.1159(13)
C27 C 0.0802(17) 1.0489(13) -0.0556(12)
C28 C 0.0381(16) 1.1193(13) -0.0345(12)
C29 C 0.1114(16) 1.1696(13) 0.0313(12)
C30 C 0.1142(18) 1.2486(13) 0.0830(13)
I1 I 0.38280(14) 1.49707(10) 0.31341(10)
I2 I 0.18398(18) 1.22240(13) 0.84683(12)
I3 I 0.32952(17) 0.93397(11) 0.28535(11)
I4 I 0.06260(13) 0.39108(9) 0.63819(10)
I5 I 0.63525(13) 0.93912(11) 0.16046(11)
I6 I -0.09903(14) 1.14182(12) -0.09121(11)
N1 N 0.3408(14) 1.3246(10) 0.4848(10)
N2 N 0.3596(14) 1.4038(10) 0.5300(10)
N3 N 0.3231(15) 1.3344(11) 0.6704(11)
N4 N 0.2855(15) 1.2528(11) 0.6355(11)
N5 N 0.2558(14) 0.7895(11) 0.4689(10)
N6 N 0.2348(15) 0.7230(11) 0.4113(11)
N7 N 0.1694(15) 0.5857(11) 0.5002(11)
N8 N 0.1790(14) 0.6367(11) 0.5660(11)
N9 N 0.3953(14) 1.0757(11) 0.1181(10)
N10 N 0.3633(14) 1.0107(11) 0.0608(10)
N11 N 0.1713(13) 1.0620(10) -0.0053(10)
N12 N 0.1930(16) 1.1299(12) 0.0484(12)
O1 O 0.3411(12) 1.2777(9) 0.2848(9)
O2 O 0.3114(12) 1.1899(9) 0.3737(8)
O3 O 0.4023(12) 1.6218(9) 0.4915(9)
O4 O 0.3897(12) 1.5591(9) 0.5975(9)
O5 O 0.3541(14) 1.4900(11) 0.7406(10)
O6 O 0.3012(15) 1.4439(11) 0.8456(11)
O7 O 0.1595(14) 1.0610(10) 0.6995(10)
O8 O 0.1989(13) 1.0869(10) 0.5860(9)
O9 O 0.4919(16) 1.2682(12) 0.5915(11)
H1 H 0.4719 1.2965 0.6266
H2 H 0.5444 1.3020 0.5811
O10 O 0.1485(18) 1.1501(14) 0.4483(13)
H3 H 0.1495 1.2038 0.4494
H4 H 0.1150 1.1303 0.4820
O11 O 0.4735(15) 1.1329(11) 0.4691(11)
H5 H 0.5326 1.1447 0.4575
H6 H 0.4319 1.0969 0.4315
O12 O 0.4129(13) 1.1060(9) 0.6254(9)
H7 H 0.3780 1.0555 0.6292
H8 H 0.4766 1.1068 0.6382
O13 O 0.3091(14) 1.0191(10) 0.4705(10)
O14 O 0.3104(13) 0.9354(10) 0.5672(10)
O15 O 0.2381(14) 0.7093(10) 0.2080(10)
O16 O 0.1898(13) 0.6141(10) 0.2877(9)
O17 O 0.1368(12) 0.4731(9) 0.3793(9)
O18 O 0.0835(13) 0.3595(10) 0.4385(9)
O19 O 0.1904(13) 0.7135(10) 0.7102(9)
O20 O 0.1065(13) 0.5968(10) 0.7476(9)
O21 O 0.4039(14) 0.7527(11) 0.6150(10)
H9 H 0.3948 0.7038 0.5869
H10 H 0.4379 0.7502 0.6605
O22 O 0.0689(13) 0.7777(10) 0.5404(10)
H11 H 0.0324 0.7621 0.5736
H12 H 0.0635 0.7327 0.5081
O23 O 0.1597(13) 0.8913(10) 0.6800(10)
H13 H 0.1700 0.9426 0.7039
H14 H 0.1367 0.8556 0.7097
O24 O 0.6221(12) 1.1218(9) 0.2725(9)
O25 O 0.4963(12) 1.1888(9) 0.2408(9)
O26 O 0.4354(13) 0.8200(10) -0.0042(10)
O27 O 0.3015(12) 0.8713(9) -0.0442(9)
O28 O 0.1171(12) 0.9282(9) -0.1095(9)
O29 O -0.0266(12) 0.9555(9) -0.1688(9)
O30 O 0.2012(12) 1.2796(9) 0.1312(9)
O31 O 0.0398(12) 1.2836(9) 0.0781(9)
O32 O 0.4012(15) 1.2351(11) 0.0416(10)
H15 H 0.4225 1.2090 0.0059
H16 H 0.3536 1.2568 0.0191
O33 O 0.2374(13) 1.1020(9) 0.2189(9)
H17 H 0.2504 1.1055 0.2688
H18 H 0.1830 1.0611 0.2009
O34 O 0.4607(16) 1.3530(12) 0.1751(11)
H19 H 0.5234 1.3517 0.1907
H20 H 0.4521 1.3985 0.1998
O35 O -0.2120(17) 1.3037(13) 0.0653(12)
H21 H -0.2627 1.2587 0.0551
H22 H -0.2261 1.3413 0.0964
O36 O -0.0412(16) 1.4099(12) 0.0052(12)
H23 H -0.0610 1.3551 0.0045
H24 H -0.0719 1.4222 -0.0377
O37 O -0.1252(19) 1.4914(13) 0.1199(13)
H25 H -0.1428 1.5186 0.1571
H26 H -0.0654 1.4843 0.1377
O38 O 0.1030(16) 1.4956(13) 0.1528(12)
H27 H 0.1263 1.4510 0.1597
H28 H 0.1327 1.5345 0.1922
O39 O 0.1001(14) 1.3580(10) 0.2482(10)
H29 H 0.1404 1.3309 0.2726
H30 H 0.0609 1.3694 0.2781
O40 O -0.0989(14) 1.2314(10) 0.1798(10)
H31 H -0.1553 1.2388 0.1900
H32 H -0.1139 1.1874 0.1444
Sm2A Sm 0.75306(9) 1.19854(7) 0.38667(7)
Sm4A Sm 0.04274(10) 0.62847(7) 0.85861(7)
O20A O -0.1065(13) 1.4032(10) 0.2524(9)
O24A O 0.3779(12) 0.8782(9) 0.7275(9)
O41 O 0.400(2) 0.6178(18) 0.9163(17)
H33 H 0.4152 0.6353 0.9655
H34 H 0.3697 0.5638 0.9092
O42 O 0.9515(14) 0.8201(10) 0.6972(10)
H35 H 0.9522 0.8615 0.7318
H36 H 0.9105 0.8240 0.6552
O43 O 0.738(3) 0.373(2) 0.926(2)
H37 H 0.6981 0.3333 0.9427
H38 H 0.7436 0.3533 0.8807
O44 O 0.944(3) 0.0673(19) 0.6660(18)
H39 H 0.9999 0.0532 0.6831
H40 H 0.8944 0.0219 0.6598
O45 O 0.609(3) 0.601(2) 0.012(2)
H41 H 0.6406 0.6067 0.0593
H42 H 0.5485 0.5681 0.0073
O46 O 0.474(2) 0.7399(17) 0.2444(17)
H43 H 0.4161 0.7534 0.2398
H44 H 0.4842 0.7299 0.1985
O47 O 0.0495(19) 0.9291(14) 0.5054(14)
H45 H 0.0843 0.9722 0.5398
H46 H 0.0908 0.8995 0.4942
O48 O 0.848(7) 0.587(5) 0.037(5)
H47 H 0.8637 0.6421 0.0470
H48 H 0.8681 0.5733 -0.0047
O49 O 0.725(4) 0.527(3) 0.920(3)
H49 H 0.6693 0.4892 0.9203
H50 H 0.7078 0.5691 0.8990
loop_
_geom_bond_atom_site_label_1
_geom_bond_atom_site_label_2
_geom_bond_site_symmetry_1
_geom_bond_site_symmetry_2
Cu1 N2 1_555 1_555
Cu2 N6 1_555 1_555
Cu3 N10 1_555 1_555
Sm1 N1 1_555 1_555
Sm2 N5 1_555 1_555
Sm3 N9 1_555 1_555
Sm4 O31 1_555 1_555
C1 C2 1_555 1_555
C2 C3 1_555 1_555
C3 C4 1_555 1_555
C4 C5 1_555 1_555
C5 O3 1_555 1_555
C6 C7 1_555 1_555
C7 C8 1_555 1_555
C8 C9 1_555 1_555
C9 C10 1_555 1_555
C10 O7 1_555 1_555
C11 C12 1_555 1_555
C12 C13 1_555 1_555
C13 C14 1_555 1_555
C14 C15 1_555 1_555
C15 O15 1_555 1_555
C16 C17 1_555 1_555
C17 C18 1_555 1_555
C18 C19 1_555 1_555
C19 C20 1_555 1_555
C20 O19 1_555 1_555
C21 C22 1_555 1_555
C22 C23 1_555 1_555
C23 C24 1_555 1_555
C24 C25 1_555 1_555
C25 O26 1_555 1_555
C26 C27 1_555 1_555
C27 C28 1_555 1_555
C28 C29 1_555 1_555
C29 C30 1_555 1_555
C30 O30 1_555 1_555
I1 C3 1_555 1_555
I2 C8 1_555 1_555
I3 C13 1_555 1_555
I4 C18 1_555 1_555
I5 C23 1_555 1_555
I6 C28 1_555 1_555
N1 C2 1_555 1_555
N2 C4 1_555 1_555
N3 Cu1 1_555 1_555
N4 Sm1 1_555 1_555
N5 C12 1_555 1_555
N6 C14 1_555 1_555
N7 Cu2 1_555 1_555
N8 Sm2 1_555 1_555
N9 C22 1_555 1_555
N10 C24 1_555 1_555
N11 Cu3 1_555 1_555
N12 Sm3 1_555 1_555
O1 Sm3 1_555 1_555
O2 Sm1 1_555 1_555
O4 Cu1 1_555 1_555
O5 Cu1 1_555 1_555
O6 C6 1_555 1_555
O8 Sm1 1_555 1_555
O9 Sm1 1_555 1_555
H1 O9 1_555 1_555
H2 O9 1_555 1_555
O10 Sm1 1_555 1_555
H3 O10 1_555 1_555
H4 O10 1_555 1_555
O11 Sm1 1_555 1_555
H5 O11 1_555 1_555
H6 O11 1_555 1_555
O12 Sm1 1_555 1_555
H7 O12 1_555 1_555
H8 O12 1_555 1_555
O13 Sm1 1_555 1_555
O14 Sm2 1_555 1_555
O16 Cu2 1_555 1_555
O17 Cu2 1_555 1_555
O18 C16 1_555 1_555
O19 Sm2 1_555 1_555
O20 C20 1_555 1_555
O21 Sm2 1_555 1_555
H9 O21 1_555 1_555
H10 O21 1_555 1_555
O22 Sm2 1_555 1_555
H11 O22 1_555 1_555
H12 O22 1_555 1_555
O23 Sm2 1_555 1_555
H13 O23 1_555 1_555
H14 O23 1_555 1_555
O24 C21 1_555 1_555
O25 Sm3 1_555 1_555
O27 Cu3 1_555 1_555
O28 Cu3 1_555 1_555
O29 C26 1_555 1_555
O30 Sm3 1_555 1_555
O31 C30 1_555 1_555
O32 Sm3 1_555 1_555
H15 O32 1_555 1_555
H16 O32 1_555 1_555
O33 Sm3 1_555 1_555
H17 O33 1_555 1_555
H18 O33 1_555 1_555
O34 Sm3 1_555 1_555
H19 O34 1_555 1_555
H20 O34 1_555 1_555
O35 Sm4 1_555 1_555
H21 O35 1_555 1_555
H22 O35 1_555 1_555
O36 Sm4 1_555 1_555
H23 O36 1_555 1_555
H24 O36 1_555 1_555
O37 Sm4 1_555 1_555
H25 O37 1_555 1_555
H26 O37 1_555 1_555
O38 Sm4 1_555 1_555
H27 O38 1_555 1_555
H28 O38 1_555 1_555
O39 Sm4 1_555 1_555
H29 O39 1_555 1_555
H30 O39 1_555 1_555
O40 Sm4 1_555 1_555
H31 O40 1_555 1_555
H32 O40 1_555 1_555
O41 H33 1_555 1_555
H34 O41 1_555 1_555
O42 H35 1_555 1_555
H36 O42 1_555 1_555
O43 H37 1_555 1_555
H38 O43 1_555 1_555
O44 H39 1_555 1_555
H40 O44 1_555 1_555
O45 H41 1_555 1_555
H42 O45 1_555 1_555
O46 H43 1_555 1_555
H44 O46 1_555 1_555
O47 H45 1_555 1_555
H46 O47 1_555 1_555
O48 H47 1_555 1_555
H48 O48 1_555 1_555
O49 H49 1_555 1_555
H50 O49 1_555 1_555
Sm2A O24 1_555 1_555
Sm4A O20 1_555 1_555
O20A Sm4 1_555 1_555
O24A Sm2 1_555 1_555
C1 O1 1_555 1_555
C1 O2 1_555 1_555
C5 O4 1_555 1_555
C6 O5 1_555 1_555
C7 N3 1_555 1_555
C9 N4 1_555 1_555
C10 O8 1_555 1_555
C11 O13 1_555 1_555
C11 O14 1_555 1_555
C15 O16 1_555 1_555
C16 O17 1_555 1_555
C17 N7 1_555 1_555
C19 N8 1_555 1_555
C21 O25 1_555 1_555
C25 O27 1_555 1_555
C26 O28 1_555 1_555
C27 N11 1_555 1_555
C29 N12 1_555 1_555
N1 N2 1_555 1_555
N3 N4 1_555 1_555
N5 N6 1_555 1_555
N7 N8 1_555 1_555
N9 N10 1_555 1_555
N11 N12 1_555 1_555

#END
