
#######################################################################
#
#                 Cambridge Crystallographic Data Centre
#                                CCDC 
#
#######################################################################
#
# If this CIF has been generated from an entry in the Cambridge 
# Structural Database, then it will include bibliographic, chemical, 
# crystal, experimental, refinement or atomic coordinate data resulting 
# from the CCDC's data processing and validation procedures.
#
#######################################################################

data_KUFQEI
_symmetry_cell_setting           triclinic
_symmetry_space_group_name_H-M   'P -1'
_symmetry_Int_Tables_number      2
_space_group_name_Hall           '-P 1'
loop_
_symmetry_equiv_pos_site_id
_symmetry_equiv_pos_as_xyz
1 x,y,z
2 -x,-y,-z
_cell_length_a                   13.4889(9)
_cell_length_b                   15.9353(11)
_cell_length_c                   17.5321(12)
_cell_angle_alpha                95.3640(10)
_cell_angle_beta                 100.8100(10)
_cell_angle_gamma                103.8850(10)
_cell_volume                     3555.38
loop_
_atom_site_label
_atom_site_type_symbol
_atom_site_fract_x
_atom_site_fract_y
_atom_site_fract_z
Cu1 Cu 1.13887(8) 0.05810(6) 0.36357(6)
Cu2 Cu 1.31566(8) 0.90099(6) 0.60340(6)
Cu3 Cu 1.26010(8) 0.52904(7) 1.02187(6)
Gd1 Gd 1.17643(3) 0.33351(2) 0.48298(2)
Gd2 Gd 1.25352(3) 0.70026(2) 0.38848(2)
Gd3 Gd 1.15746(3) 0.29202(3) 0.83727(2)
Gd4 Gd 1.54110(3) 0.13121(3) 0.85585(2)
C1 C 1.1668(6) 0.2374(5) 0.6463(4)
C2 C 1.1560(6) 0.1603(5) 0.5880(5)
C3 C 1.1352(6) 0.0715(5) 0.5909(4)
C4 C 1.1289(6) 0.0350(5) 0.5163(5)
C5 C 1.1113(6) -0.0540(5) 0.4720(5)
C6 C 1.1813(8) 0.0740(6) 0.2171(5)
C7 C 1.2062(7) 0.1647(6) 0.2593(5)
C8 C 1.2571(7) 0.2476(6) 0.2491(5)
C9 C 1.2585(6) 0.3001(5) 0.3171(5)
C10 C 1.3052(6) 0.3946(6) 0.3473(5)
C11 C 1.2011(6) 0.5551(5) 0.5051(5)
C12 C 1.2181(6) 0.6360(5) 0.5603(5)
C13 C 1.2187(6) 0.6522(5) 0.6391(5)
C14 C 1.2480(7) 0.7442(5) 0.6554(5)
C15 C 1.2734(7) 0.8095(6) 0.7254(5)
C16 C 1.3856(6) 1.0647(5) 0.5600(5)
C17 C 1.3702(6) 0.9999(5) 0.4889(5)
C18 C 1.3839(6) 1.0023(5) 0.4134(4)
C19 C 1.3529(6) 0.9130(5) 0.3801(4)
C20 C 1.3543(7) 0.8654(5) 0.3035(5)
C21 C 0.9583(7) 0.3694(5) 0.7680(5)
C22 C 1.0110(6) 0.4353(5) 0.8380(4)
C23 C 0.9906(6) 0.5104(5) 0.8721(5)
C24 C 1.0727(7) 0.5434(5) 0.9349(5)
C25 C 1.1092(7) 0.6218(6) 0.9963(5)
C26 C 1.4489(7) 0.5241(6) 1.1156(5)
C27 C 1.4206(6) 0.4473(5) 1.0530(4)
C28 C 1.4624(6) 0.3802(5) 1.0320(4)
C29 C 1.3892(6) 0.3317(5) 0.9649(4)
C30 C 1.3813(7) 0.2513(5) 0.9125(5)
I1 I 1.11934(5) 0.00462(4) 0.68474(3)
I2 I 1.31915(6) 0.28503(5) 0.15562(4)
I3 I 1.17918(6) 0.56486(4) 0.71409(4)
I4 I 1.43724(5) 1.10920(4) 0.36078(3)
I5 I 0.86356(5) 0.55871(4) 0.83766(4)
I6 I 1.59701(5) 0.35546(4) 1.08998(4)
N1 N 1.1616(5) 0.1769(4) 0.5144(4)
N2 N 1.1443(5) 0.1002(4) 0.4712(4)
N3 N 1.2107(6) 0.2523(4) 0.3662(4)
N4 N 1.1776(6) 0.1691(4) 0.3295(4)
N5 N 1.2635(5) 0.7762(4) 0.5893(4)
N6 N 1.2445(5) 0.7115(4) 0.5302(4)
N7 N 1.3324(5) 0.9164(4) 0.4988(4)
N8 N 1.3208(5) 0.8638(4) 0.4334(4)
N9 N 1.1005(5) 0.4242(4) 0.8790(4)
N10 N 1.1383(5) 0.4903(4) 0.9384(4)
N11 N 1.3097(5) 0.3695(4) 0.9485(4)
N12 N 1.3283(5) 0.4393(4) 1.0019(4)
O1 O 1.1846(5) 0.3115(4) 0.6243(3)
O2 O 1.1575(5) 0.2242(4) 0.7142(3)
O3 O 1.0994(5) -0.1188(4) 0.5057(4)
O4 O 1.1124(5) -0.0562(4) 0.3994(3)
O5 O 1.1440(6) 0.0141(4) 0.2565(4)
O6 O 1.2002(7) 0.0598(5) 0.1538(4)
O7 O 1.3437(5) 0.4437(4) 0.3025(4)
O8 O 1.2995(5) 0.4184(4) 0.4162(3)
O9 O 1.0075(5) 0.2341(4) 0.4135(4)
H1 H 0.9678 0.1926 0.4294
H2 H 0.9982 0.2219 0.3640
O10 O 1.3523(5) 0.3546(4) 0.5482(4)
H3 H 1.3863 0.3583 0.5949
H4 H 1.3803 0.3273 0.5180
O11 O 1.0250(5) 0.3683(5) 0.5307(4)
H5 H 0.9903 0.3483 0.5638
H6 H 1.0335 0.4233 0.5361
O12 O 1.0841(5) 0.3948(4) 0.3761(4)
H7 H 1.0690 0.3924 0.3265
H8 H 1.1009 0.4483 0.3961
O13 O 1.2001(5) 0.4851(4) 0.5313(3)
O14 O 1.1922(5) 0.5651(3) 0.4324(3)
O15 O 1.2591(7) 0.7883(5) 0.7889(4)
O16 O 1.3102(5) 0.8878(4) 0.7137(3)
O17 O 1.3636(4) 1.0282(3) 0.6204(3)
O18 O 1.4154(5) 1.1430(4) 0.5607(4)
O19 O 1.3971(5) 0.9037(4) 0.2555(3)
O20 O 1.3094(5) 0.7843(4) 0.2930(3)
O21 O 1.1001(5) 0.7494(4) 0.3912(4)
H9 H 1.0845 0.7608 0.4350
H10 H 1.0437 0.7349 0.3562
O22 O 1.4273(5) 0.7264(4) 0.4579(4)
H11 H 1.4509 0.6974 0.4920
H12 H 1.4746 0.7731 0.4598
O23 O 1.3368(5) 0.6117(4) 0.3188(4)
H13 H 1.3353 0.5578 0.3116
H14 H 1.3686 0.6365 0.2861
O24 O 0.8780(4) 0.3767(4) 0.7243(3)
O25 O 1.0039(5) 0.3099(4) 0.7572(4)
O26 O 1.0604(5) 0.6752(4) 1.0005(4)
O27 O 1.1978(4) 0.6262(4) 1.0430(3)
O28 O 1.3810(5) 0.5702(4) 1.1097(3)
O29 O 1.5272(5) 0.5403(4) 1.1692(4)
O30 O 1.2972(5) 0.2227(4) 0.8608(3)
O31 O 1.4553(5) 0.2178(4) 0.9203(3)
O32 O 1.0405(6) 0.1489(4) 0.8210(4)
H15 H 0.9770 0.1364 0.8252
H16 H 1.0511 0.1036 0.7979
O33 O 1.2621(5) 0.3985(4) 0.7788(3)
H17 H 1.2546 0.3848 0.7296
H18 H 1.3200 0.4370 0.7953
O34 O 1.0974(6) 0.2657(5) 0.9564(4)
H19 H 1.0577 0.2891 0.9786
H20 H 1.1209 0.2332 0.9869
O35 O 1.6030(5) 0.2703(4) 0.8210(3)
H21 H 1.6243 0.2658 0.7785
H22 H 1.6062 0.3238 0.8339
O36 O 1.5392(7) 0.0900(5) 0.9866(4)
H23 H 1.5039 0.1269 0.9773
H24 H 1.5489 0.0871 1.0355
O37 O 1.7145(6) 0.1948(5) 0.9290(5)
H25 H 1.7580 0.2448 0.9366
H26 H 1.6542 0.2028 0.9280
O38 O 1.6145(7) 0.0076(5) 0.8687(5)
H27 H 1.5841 -0.0243 0.8249
H28 H 1.6606 0.0501 0.8599
O39 O 1.3924(7) 0.0080(5) 0.8441(5)
H29 H 1.3573 -0.0278 0.8035
H30 H 1.4098 0.0581 0.8301
O40 O 1.4019(5) 0.1465(4) 0.7507(4)
H31 H 1.4059 0.1327 0.7036
H32 H 1.3601 0.1790 0.7501
Gd2A Gd 0.74648(3) 0.29974(2) 0.61152(2)
Gd4A Gd 1.45890(3) 0.86879(3) 0.14415(2)
O19A O 1.6029(5) 0.0963(4) 0.7445(3)
O24A O 1.1220(4) 0.6233(4) 0.2757(3)
O41 O 0.1127(8) 0.8831(7) 0.0901(7)
H33 H 0.0738 0.8632 0.1208
H34 H 0.1090 0.9350 0.0860
O42 O 0.2499(12) 0.8703(9) 0.9250(6)
H35 H 0.2525 0.8392 0.8837
H36 H 0.1880 0.8545 0.9324
O43 O 0.4514(6) 0.5761(4) 0.5035(5)
H37 H 0.4804 0.6271 0.4953
H38 H 0.3954 0.5564 0.4685
O44 O 0.5550(8) 0.4354(10) 0.3434(7)
H39 H 0.4952 0.4439 0.3271
H40 H 0.5810 0.4271 0.3036
O45 O 0.4493(6) 0.3260(5) 0.6951(4)
H41 H 0.4130 0.3215 0.6490
H42 H 0.4352 0.3656 0.7238
O46 O 0.201(2) 0.0361(13) 0.9043(11)
H43 H 0.1380 0.0153 0.8795
H44 H 0.2254 0.0834 0.8874
O47 O 0.9668(8) 0.2466(8) 0.2474(6)
H45 H 0.9873 0.2624 0.2967
H46 H 1.0062 0.2816 0.2252
O48 O 0.352(2) 0.0995(17) 0.0346(19)
H47 H 0.3174 0.1128 0.0676
H48 H 0.3242 0.0464 0.0147
O49 O 0.907(2) 0.8938(11) 0.9872(11)
H49 H 0.8980 0.8407 0.9944
H50 H 0.9016 0.8953 0.9383
loop_
_geom_bond_atom_site_label_1
_geom_bond_atom_site_label_2
_geom_bond_site_symmetry_1
_geom_bond_site_symmetry_2
Cu1 N2 1_555 1_555
Cu2 N5 1_555 1_555
Cu3 N10 1_555 1_555
Gd1 N1 1_555 1_555
Gd2 N6 1_555 1_555
Gd3 N9 1_555 1_555
Gd4 O31 1_555 1_555
C1 C2 1_555 1_555
C2 C3 1_555 1_555
C3 C4 1_555 1_555
C4 C5 1_555 1_555
C5 O3 1_555 1_555
C6 C7 1_555 1_555
C7 C8 1_555 1_555
C8 C9 1_555 1_555
C9 C10 1_555 1_555
C10 O7 1_555 1_555
C11 C12 1_555 1_555
C12 C13 1_555 1_555
C13 C14 1_555 1_555
C14 C15 1_555 1_555
C15 O15 1_555 1_555
C16 C17 1_555 1_555
C17 C18 1_555 1_555
C18 C19 1_555 1_555
C19 C20 1_555 1_555
C20 O19 1_555 1_555
C21 C22 1_555 1_555
C22 C23 1_555 1_555
C23 C24 1_555 1_555
C24 C25 1_555 1_555
C25 O26 1_555 1_555
C26 C27 1_555 1_555
C27 C28 1_555 1_555
C28 C29 1_555 1_555
C29 C30 1_555 1_555
C30 O30 1_555 1_555
I1 C3 1_555 1_555
I2 C8 1_555 1_555
I3 C13 1_555 1_555
I4 C18 1_555 1_555
I5 C23 1_555 1_555
I6 C28 1_555 1_555
N1 C2 1_555 1_555
N2 C4 1_555 1_555
N3 Gd1 1_555 1_555
N4 Cu1 1_555 1_555
N5 C14 1_555 1_555
N6 C12 1_555 1_555
N7 Cu2 1_555 1_555
N8 Gd2 1_555 1_555
N9 C22 1_555 1_555
N10 C24 1_555 1_555
N11 Gd3 1_555 1_555
N12 Cu3 1_555 1_555
O1 Gd1 1_555 1_555
O2 Gd3 1_555 1_555
O4 Cu1 1_555 1_555
O5 Cu1 1_555 1_555
O6 C6 1_555 1_555
O8 Gd1 1_555 1_555
O9 Gd1 1_555 1_555
H1 O9 1_555 1_555
H2 O9 1_555 1_555
O10 Gd1 1_555 1_555
H3 O10 1_555 1_555
H4 O10 1_555 1_555
O11 Gd1 1_555 1_555
H5 O11 1_555 1_555
H6 O11 1_555 1_555
O12 Gd1 1_555 1_555
H7 O12 1_555 1_555
H8 O12 1_555 1_555
O13 Gd1 1_555 1_555
O14 Gd2 1_555 1_555
O16 Cu2 1_555 1_555
O17 Cu2 1_555 1_555
O18 C16 1_555 1_555
O19 Gd4A 1_555 1_555
O20 Gd2 1_555 1_555
O21 Gd2 1_555 1_555
H9 O21 1_555 1_555
H10 O21 1_555 1_555
O22 Gd2 1_555 1_555
H11 O22 1_555 1_555
H12 O22 1_555 1_555
O23 Gd2 1_555 1_555
H13 O23 1_555 1_555
H14 O23 1_555 1_555
O24 C21 1_555 1_555
O25 Gd3 1_555 1_555
O27 Cu3 1_555 1_555
O28 Cu3 1_555 1_555
O29 C26 1_555 1_555
O30 Gd3 1_555 1_555
O31 C30 1_555 1_555
O32 Gd3 1_555 1_555
H15 O32 1_555 1_555
H16 O32 1_555 1_555
O33 Gd3 1_555 1_555
H17 O33 1_555 1_555
H18 O33 1_555 1_555
O34 Gd3 1_555 1_555
H19 O34 1_555 1_555
H20 O34 1_555 1_555
O35 Gd4 1_555 1_555
H21 O35 1_555 1_555
H22 O35 1_555 1_555
O36 Gd4 1_555 1_555
H23 O36 1_555 1_555
H24 O36 1_555 1_555
O37 Gd4 1_555 1_555
H25 O37 1_555 1_555
H26 O37 1_555 1_555
O38 Gd4 1_555 1_555
H27 O38 1_555 1_555
H28 O38 1_555 1_555
O39 Gd4 1_555 1_555
H29 O39 1_555 1_555
H30 O39 1_555 1_555
O40 Gd4 1_555 1_555
H31 O40 1_555 1_555
H32 O40 1_555 1_555
O41 H33 1_555 1_555
H34 O41 1_555 1_555
O42 H35 1_555 1_555
H36 O42 1_555 1_555
O43 H37 1_555 1_555
H38 O43 1_555 1_555
O44 H39 1_555 1_555
H40 O44 1_555 1_555
O45 H41 1_555 1_555
H42 O45 1_555 1_555
O46 H43 1_555 1_555
H44 O46 1_555 1_555
O47 H45 1_555 1_555
H46 O47 1_555 1_555
O48 H47 1_555 1_555
H48 O48 1_555 1_555
O49 H49 1_555 1_555
H50 O49 1_555 1_555
Gd2A O24 1_555 1_555
O19A Gd4 1_555 1_555
O24A Gd2 1_555 1_555
C1 O1 1_555 1_555
C1 O2 1_555 1_555
C5 O4 1_555 1_555
C6 O5 1_555 1_555
C7 N4 1_555 1_555
C9 N3 1_555 1_555
C10 O8 1_555 1_555
C11 O13 1_555 1_555
C11 O14 1_555 1_555
C15 O16 1_555 1_555
C16 O17 1_555 1_555
C17 N7 1_555 1_555
C19 N8 1_555 1_555
C20 O20 1_555 1_555
C21 O25 1_555 1_555
C25 O27 1_555 1_555
C26 O28 1_555 1_555
C27 N12 1_555 1_555
C29 N11 1_555 1_555
N1 N2 1_555 1_555
N3 N4 1_555 1_555
N5 N6 1_555 1_555
N7 N8 1_555 1_555
N9 N10 1_555 1_555
N11 N12 1_555 1_555

#END
