
#######################################################################
#
#                 Cambridge Crystallographic Data Centre
#                                CCDC 
#
#######################################################################
#
# If this CIF has been generated from an entry in the Cambridge 
# Structural Database, then it will include bibliographic, chemical, 
# crystal, experimental, refinement or atomic coordinate data resulting 
# from the CCDC's data processing and validation procedures.
#
#######################################################################

data_KUFQIM
_symmetry_cell_setting           triclinic
_symmetry_space_group_name_H-M   'P -1'
_symmetry_Int_Tables_number      2
_space_group_name_Hall           '-P 1'
loop_
_symmetry_equiv_pos_site_id
_symmetry_equiv_pos_as_xyz
1 x,y,z
2 -x,-y,-z
_cell_length_a                   13.5120(18)
_cell_length_b                   15.939(2)
_cell_length_c                   17.575(2)
_cell_angle_alpha                95.204(3)
_cell_angle_beta                 100.982(3)
_cell_angle_gamma                103.946(3)
_cell_volume                     3568.98
loop_
_atom_site_label
_atom_site_type_symbol
_atom_site_fract_x
_atom_site_fract_y
_atom_site_fract_z
Cu1 Cu -0.31549(13) -0.90093(11) -0.10315(9)
Cu2 Cu -0.13821(13) -0.05781(11) 0.13601(10)
Cu3 Cu -0.26086(13) -0.52968(11) -0.52171(10)
Tb1 Tb -0.25316(5) -0.70030(4) 0.11147(4)
Tb2 Tb -0.17703(5) -0.33353(4) 0.01731(4)
Tb3 Tb -0.15755(5) -0.29292(4) -0.33694(4)
Tb4 Tb -0.54054(5) -0.13137(4) -0.35508(4)
C1 C -0.3522(10) -0.8636(9) 0.1969(8)
C2 C -0.3547(9) -0.9142(8) 0.1192(7)
C3 C -0.3834(9) -1.0019(8) 0.0879(7)
C4 C -0.3688(10) -0.9997(9) 0.0108(7)
C5 C -0.3848(10) -1.0658(10) -0.0592(8)
C6 C -0.2726(11) -0.8093(10) -0.2261(8)
C7 C -0.2482(10) -0.7421(9) -0.1561(7)
C8 C -0.2185(10) -0.6528(9) -0.1398(7)
C9 C -0.2173(10) -0.6361(8) -0.0603(8)
C10 C -0.1988(10) -0.5526(10) -0.0056(8)
C11 C -0.3053(10) -0.3948(9) 0.1526(8)
C12 C -0.2587(10) -0.3014(8) 0.1828(7)
C13 C -0.2565(10) -0.2473(9) 0.2503(7)
C14 C -0.2035(11) -0.1656(10) 0.2386(8)
C15 C -0.1797(11) -0.0721(10) 0.2814(8)
C16 C -0.1127(10) 0.0531(9) 0.0255(8)
C17 C -0.1302(10) -0.0357(9) -0.0165(8)
C18 C -0.1359(10) -0.0714(9) -0.0922(7)
C19 C -0.1554(9) -0.1610(8) -0.0875(7)
C20 C -0.1671(9) -0.2401(9) -0.1468(8)
C21 C 0.0395(11) -0.3721(10) -0.2679(7)
C22 C -0.0109(10) -0.4366(9) -0.3375(7)
C23 C 0.0106(10) -0.5105(9) -0.3719(8)
C24 C -0.0733(10) -0.5441(9) -0.4360(8)
C25 C -0.1102(11) -0.6235(9) -0.4958(8)
C26 C -0.4510(11) -0.5245(9) -0.6177(8)
C27 C -0.4212(10) -0.4474(9) -0.5521(7)
C28 C -0.4601(9) -0.3791(9) -0.5313(7)
C29 C -0.3889(10) -0.3309(9) -0.4647(8)
C30 C -0.3779(11) -0.2507(9) -0.4100(8)
I1 I -0.43725(7) -1.10948(6) 0.14005(5)
I2 I -0.17800(9) -0.56354(7) -0.21374(6)
I3 I -0.32130(9) -0.28492(8) 0.34341(6)
I4 I -0.11927(8) -0.00547(6) -0.18594(5)
I5 I 0.13738(7) -0.55910(7) -0.33779(6)
I6 I -0.59654(7) -0.35306(7) -0.58960(6)
N1 N -0.3223(8) -0.8634(7) 0.0667(6)
N2 N -0.3319(8) -0.9184(7) 0.0016(6)
N3 N -0.2619(8) -0.7761(7) -0.0887(6)
N4 N -0.2439(8) -0.7115(7) -0.0286(6)
N5 N -0.2101(8) -0.2516(7) 0.1356(6)
N6 N -0.1765(8) -0.1675(7) 0.1702(6)
N7 N -0.1443(8) -0.0986(7) 0.0276(6)
N8 N -0.1597(8) -0.1791(7) -0.0143(6)
N9 N -0.1019(8) -0.4235(7) -0.3791(6)
N10 N -0.1391(8) -0.4906(7) -0.4386(6)
N11 N -0.3282(8) -0.4403(7) -0.5009(6)
N12 N -0.3094(8) -0.3698(7) -0.4458(6)
O1 O -0.3983(7) -0.9036(6) 0.2443(5)
O2 O -0.3097(7) -0.7835(6) 0.2053(5)
O3 O -0.4151(8) -1.1427(6) -0.0610(6)
O4 O -0.3631(6) -1.0283(6) -0.1187(5)
O5 O -0.3102(7) -0.8874(6) -0.2147(5)
O6 O -0.2577(9) -0.7871(7) -0.2880(5)
O7 O -0.1927(7) -0.5654(6) 0.0669(5)
O8 O -0.1962(7) -0.4828(6) -0.0297(5)
O9 O -0.4265(6) -0.7267(6) 0.0419(5)
H1 H -0.4586 -0.6884 0.0295
H2 H -0.4716 -0.7758 0.0338
O10 O -0.1015(7) -0.7498(7) 0.1100(6)
H3 H -0.0415 -0.7166 0.1112
H4 H -0.1008 -0.8018 0.0948
O11 O -0.3350(7) -0.6092(6) 0.1803(5)
H5 H -0.3354 -0.5567 0.1933
H6 H -0.3596 -0.6392 0.2133
O12 O -0.0253(8) -0.3675(8) -0.0295(6)
H7 H 0.0300 -0.3477 -0.0456
H8 H -0.0381 -0.4228 -0.0354
O13 O -0.0852(7) -0.3938(6) 0.1238(5)
H9 H -0.1040 -0.4491 0.1206
H10 H -0.0189 -0.3777 0.1375
O14 O -0.0089(8) -0.2342(7) 0.0882(6)
H11 H 0.0308 -0.1929 0.0721
H12 H -0.0283 -0.2121 0.1268
O15 O -0.3518(7) -0.3542(7) -0.0486(6)
H13 H -0.3654 -0.3084 -0.0641
H14 H -0.3926 -0.3724 -0.0189
O16 O -0.2983(7) -0.4186(6) 0.0833(5)
O17 O -0.3441(8) -0.4428(6) 0.1970(5)
O18 O -0.1976(9) -0.0598(7) 0.3475(6)
O19 O -0.1431(8) -0.0147(6) 0.2432(5)
O20 O -0.1114(7) 0.0560(6) 0.0994(5)
O21 O -0.1007(7) 0.1178(6) -0.0078(5)
O22 O -0.1851(7) -0.3133(6) -0.1230(5)
O23 O -0.1569(7) -0.2262(6) -0.2138(5)
O24 O 0.1234(7) -0.3769(6) -0.2232(5)
O25 O -0.0039(7) -0.3112(6) -0.2558(5)
O26 O -0.0603(7) -0.6768(7) -0.5005(6)
O27 O -0.1996(7) -0.6269(6) -0.5429(5)
O28 O -0.3820(6) -0.5702(6) -0.6095(5)
O29 O -0.5273(7) -0.5389(6) -0.6703(5)
O30 O -0.2953(7) -0.2215(6) -0.3611(5)
O31 O -0.4547(7) -0.2166(6) -0.4177(5)
O32 O -0.0995(7) -0.2662(7) -0.4543(5)
H15 H -0.1495 -0.2768 -0.4943
H16 H -0.0528 -0.2890 -0.4662
O33 O -0.0417(8) -0.1501(7) -0.3229(6)
H17 H -0.0495 -0.1075 -0.2940
H18 H 0.0121 -0.1639 -0.2997
O34 O -0.2615(7) -0.3965(6) -0.2777(5)
H19 H -0.2471 -0.4360 -0.2515
H20 H -0.3162 -0.4200 -0.3130
O35 O -0.6013(7) -0.2696(6) -0.3205(5)
H21 H -0.6352 -0.2636 -0.2852
H22 H -0.6270 -0.3210 -0.3453
O36 O -0.4038(7) -0.1473(6) -0.2502(5)
H23 H -0.3785 -0.1109 -0.2085
H24 H -0.3633 -0.1803 -0.2526
O37 O -0.3959(8) -0.0109(7) -0.3425(6)
H25 H -0.3642 0.0259 -0.3020
H26 H -0.3596 -0.0024 -0.3770
O38 O -0.6157(9) -0.0105(8) -0.3684(7)
H27 H -0.6322 0.0081 -0.3269
H28 H -0.5588 0.0245 -0.3718
O39 O -0.7124(8) -0.1951(7) -0.4278(7)
H29 H -0.7608 -0.2422 -0.4428
H30 H -0.7393 -0.1528 -0.4356
O40 O -0.5371(8) -0.0900(7) -0.4840(5)
H31 H -0.5283 -0.1316 -0.5135
H32 H -0.5831 -0.0696 -0.5105
Tb1A Tb 0.25316(5) -0.29970(4) -0.11147(4)
Tb4A Tb -0.45946(5) -0.86863(4) 0.35508(4)
O1A O -0.6017(7) -0.0964(6) -0.2443(5)
O24A O -0.1234(7) -0.6231(6) 0.2232(5)
O41 O -0.9716(10) -0.2475(10) -0.7483(7)
H33 H -0.9088 -0.2511 -0.7401
H34 H -0.9974 -0.2659 -0.7105
O42 O -0.350(3) -0.093(2) -0.531(2)
H35 H -0.3326 -0.1342 -0.5555
H36 H -0.3016 -0.0465 -0.5278
O43 O -0.083(2) -0.0964(17) -0.5199(13)
H37 H -0.1125 -0.0841 -0.5629
H38 H -0.0303 -0.1138 -0.5278
O44 O -0.5535(8) -0.6751(8) -0.8054(6)
H39 H -0.4901 -0.6475 -0.8012
H40 H -0.5796 -0.6454 -0.7758
O45 O -0.803(2) -0.9700(18) -0.5936(13)
H41 H -0.8678 -0.9749 -0.5981
H42 H -0.7763 -0.9218 -0.6083
O46 O -0.1082(10) -0.8831(9) -0.5884(9)
H43 H -0.1344 -0.9375 -0.6033
H44 H -0.1014 -0.8588 -0.6289
O47 O -0.2468(13) -0.8651(11) -0.4265(7)
H45 H -0.2424 -0.8223 -0.3923
H46 H -0.1871 -0.8755 -0.4201
O48 O -0.4452(10) -0.5611(11) -0.1622(8)
H47 H -0.4470 -0.6147 -0.1616
H48 H -0.4994 -0.5530 -0.1482
O49 O -0.4541(8) -0.5750(7) -1.0047(6)
H49 H -0.4557 -0.6274 -0.9981
H50 H -0.3947 -0.5428 -0.9802
loop_
_geom_bond_atom_site_label_1
_geom_bond_atom_site_label_2
_geom_bond_site_symmetry_1
_geom_bond_site_symmetry_2
Cu1 N2 1_555 1_555
Cu2 N6 1_555 1_555
Cu3 N10 1_555 1_555
Tb1 N1 1_555 1_555
Tb2 N5 1_555 1_555
Tb3 N9 1_555 1_555
Tb4 O31 1_555 1_555
C1 C2 1_555 1_555
C2 C3 1_555 1_555
C3 C4 1_555 1_555
C4 C5 1_555 1_555
C5 O3 1_555 1_555
C6 C7 1_555 1_555
C7 C8 1_555 1_555
C8 C9 1_555 1_555
C9 C10 1_555 1_555
C10 O7 1_555 1_555
C11 C12 1_555 1_555
C12 C13 1_555 1_555
C13 C14 1_555 1_555
C14 C15 1_555 1_555
C15 O18 1_555 1_555
C16 C17 1_555 1_555
C17 C18 1_555 1_555
C18 C19 1_555 1_555
C19 C20 1_555 1_555
C20 O22 1_555 1_555
C21 C22 1_555 1_555
C22 C23 1_555 1_555
C23 C24 1_555 1_555
C24 C25 1_555 1_555
C25 O26 1_555 1_555
C26 C27 1_555 1_555
C27 C28 1_555 1_555
C28 C29 1_555 1_555
C29 C30 1_555 1_555
C30 O30 1_555 1_555
I1 C3 1_555 1_555
I2 C8 1_555 1_555
I3 C13 1_555 1_555
I4 C18 1_555 1_555
I5 C23 1_555 1_555
I6 C28 1_555 1_555
N1 C2 1_555 1_555
N2 C4 1_555 1_555
N3 Cu1 1_555 1_555
N4 Tb1 1_555 1_555
N5 C12 1_555 1_555
N6 C14 1_555 1_555
N7 Cu2 1_555 1_555
N8 Tb2 1_555 1_555
N9 C22 1_555 1_555
N10 C24 1_555 1_555
N11 Cu3 1_555 1_555
N12 Tb3 1_555 1_555
O1 C1 1_555 1_555
O2 Tb1 1_555 1_555
O4 Cu1 1_555 1_555
O5 Cu1 1_555 1_555
O6 C6 1_555 1_555
O7 Tb1 1_555 1_555
O8 Tb2 1_555 1_555
O9 Tb1 1_555 1_555
H1 O9 1_555 1_555
H2 O9 1_555 1_555
O10 Tb1 1_555 1_555
H3 O10 1_555 1_555
H4 O10 1_555 1_555
O11 Tb1 1_555 1_555
H5 O11 1_555 1_555
H6 O11 1_555 1_555
O12 Tb2 1_555 1_555
H7 O12 1_555 1_555
H8 O12 1_555 1_555
O13 Tb2 1_555 1_555
H9 O13 1_555 1_555
H10 O13 1_555 1_555
O14 Tb2 1_555 1_555
H11 O14 1_555 1_555
H12 O14 1_555 1_555
O15 Tb2 1_555 1_555
H13 O15 1_555 1_555
H14 O15 1_555 1_555
O16 Tb2 1_555 1_555
O17 C11 1_555 1_555
O19 Cu2 1_555 1_555
O20 Cu2 1_555 1_555
O21 C16 1_555 1_555
O22 Tb2 1_555 1_555
O23 Tb3 1_555 1_555
O24 C21 1_555 1_555
O25 Tb3 1_555 1_555
O27 Cu3 1_555 1_555
O28 Cu3 1_555 1_555
O29 C26 1_555 1_555
O30 Tb3 1_555 1_555
O31 C30 1_555 1_555
O32 Tb3 1_555 1_555
H15 O32 1_555 1_555
H16 O32 1_555 1_555
O33 Tb3 1_555 1_555
H17 O33 1_555 1_555
H18 O33 1_555 1_555
O34 Tb3 1_555 1_555
H19 O34 1_555 1_555
H20 O34 1_555 1_555
O35 Tb4 1_555 1_555
H21 O35 1_555 1_555
H22 O35 1_555 1_555
O36 Tb4 1_555 1_555
H23 O36 1_555 1_555
H24 O36 1_555 1_555
O37 Tb4 1_555 1_555
H25 O37 1_555 1_555
H26 O37 1_555 1_555
O38 Tb4 1_555 1_555
H27 O38 1_555 1_555
H28 O38 1_555 1_555
O39 Tb4 1_555 1_555
H29 O39 1_555 1_555
H30 O39 1_555 1_555
O40 Tb4 1_555 1_555
H31 O40 1_555 1_555
H32 O40 1_555 1_555
O41 H33 1_555 1_555
H34 O41 1_555 1_555
O42 H35 1_555 1_555
H36 O42 1_555 1_555
O43 H37 1_555 1_555
H38 O43 1_555 1_555
O44 H39 1_555 1_555
H40 O44 1_555 1_555
O45 H41 1_555 1_555
H42 O45 1_555 1_555
O46 H43 1_555 1_555
H44 O46 1_555 1_555
O47 H45 1_555 1_555
H46 O47 1_555 1_555
O48 H47 1_555 1_555
H48 O48 1_555 1_555
O49 H49 1_555 1_555
H50 O49 1_555 1_555
Tb1A O24 1_555 1_555
Tb4A O1 1_555 1_555
O1A Tb4 1_555 1_555
O24A Tb1 1_555 1_555
C1 O2 1_555 1_555
C5 O4 1_555 1_555
C6 O5 1_555 1_555
C7 N3 1_555 1_555
C9 N4 1_555 1_555
C10 O8 1_555 1_555
C11 O16 1_555 1_555
C15 O19 1_555 1_555
C16 O20 1_555 1_555
C17 N7 1_555 1_555
C19 N8 1_555 1_555
C20 O23 1_555 1_555
C21 O25 1_555 1_555
C25 O27 1_555 1_555
C26 O28 1_555 1_555
C27 N11 1_555 1_555
C29 N12 1_555 1_555
N1 N2 1_555 1_555
N3 N4 1_555 1_555
N5 N6 1_555 1_555
N7 N8 1_555 1_555
N9 N10 1_555 1_555
N11 N12 1_555 1_555

#END
