
#######################################################################
#
#                 Cambridge Crystallographic Data Centre
#                                CCDC 
#
#######################################################################
#
# If this CIF has been generated from an entry in the Cambridge 
# Structural Database, then it will include bibliographic, chemical, 
# crystal, experimental, refinement or atomic coordinate data resulting 
# from the CCDC's data processing and validation procedures.
#
#######################################################################

data_KUGDEW
_symmetry_cell_setting           monoclinic
_symmetry_space_group_name_H-M   'C 2/c'
_symmetry_Int_Tables_number      15
_space_group_name_Hall           '-C 2yn'
loop_
_symmetry_equiv_pos_site_id
_symmetry_equiv_pos_as_xyz
1 x,y,z
2 -x,y,1/2-z
3 1/2+x,1/2+y,z
4 1/2-x,1/2+y,1/2-z
5 -x,-y,-z
6 x,-y,1/2+z
7 1/2-x,1/2-y,-z
8 1/2+x,1/2-y,1/2+z
_cell_length_a                   13.649(10)
_cell_length_b                   12.022(9)
_cell_length_c                   6.813(5)
_cell_angle_alpha                90
_cell_angle_beta                 91.539(9)
_cell_angle_gamma                90
_cell_volume                     1117.53
loop_
_atom_site_label
_atom_site_type_symbol
_atom_site_fract_x
_atom_site_fract_y
_atom_site_fract_z
Ag1 Ag 0.0000 1.04732(3) 0.2500
Ag2 Ag 0.0000 0.63520(2) -0.2500
N1 N 0.09333(17) 0.52411(18) 0.3405(3)
O1 O 0.01984(18) 0.79284(15) -0.0451(3)
O2 O 0.10767(15) 0.90309(16) 0.1554(4)
C1 C 0.05484(19) 0.6182(2) 0.2640(4)
C2 C 0.1135(2) 0.7097(2) 0.2155(4)
C3 C 0.2134(2) 0.7051(2) 0.2691(5)
H1 H 0.2538 0.7655 0.2445
C4 C 0.2515(2) 0.6114(3) 0.3580(4)
H2 H 0.3170 0.6084 0.3987
C5 C 0.1899(2) 0.5215(2) 0.3853(4)
H3 H 0.2166 0.4562 0.4371
C6 C 0.0768(2) 0.8102(2) 0.1011(4)
Ag1D Ag 0.0000 0.95268(3) -0.2500
Ag1D_2 Ag 0.0000 0.95268(3) 0.7500
Ag2D Ag 0.0000 0.36480(2) 0.2500
Ag2_2 Ag 0.0000 0.63520(2) 0.7500
N1A N -0.09333(17) 0.52411(18) 0.1595(3)
N1D N -0.09333(17) 0.47589(18) -0.3405(3)
N1E N 0.09333(17) 0.47589(18) -0.1595(3)
O1A O -0.01984(18) 0.79284(15) 0.5451(3)
O1D O -0.01984(18) 1.20716(15) 0.0451(3)
O1E O 0.01984(18) 1.20716(15) 0.4549(3)
O1A_2 O -0.01984(18) 0.79284(15) -0.4549(3)
O2A O -0.10767(15) 0.90309(16) 0.3446(4)
C1A C -0.05484(19) 0.6182(2) 0.2360(4)
C2A C -0.1135(2) 0.7097(2) 0.2845(4)
C3A C -0.2134(2) 0.7051(2) 0.2309(5)
H1A H -0.2538 0.7655 0.2555
C4A C -0.2515(2) 0.6114(3) 0.1420(4)
H2A H -0.3170 0.6084 0.1013
C5A C -0.1899(2) 0.5215(2) 0.1147(4)
H3A H -0.2166 0.4562 0.0629
C6A C -0.0768(2) 0.8102(2) 0.3989(4)
loop_
_geom_bond_atom_site_label_1
_geom_bond_atom_site_label_2
_geom_bond_site_symmetry_1
_geom_bond_site_symmetry_2
Ag1 O2 1_555 1_555
Ag2 O1 1_555 1_555
N1 C1 1_555 1_555
O1 C6 1_555 1_555
O2 C6 1_555 1_555
C1 C2 1_555 1_555
C2 C3 1_555 1_555
C3 H1 1_555 1_555
C4 C3 1_555 1_555
H2 C4 1_555 1_555
C5 N1 1_555 1_555
H3 C5 1_555 1_555
C6 C2 1_555 1_555
Ag1D O1 1_555 1_555
Ag1D_2 O1A 1_555 1_555
Ag2D N1 1_555 1_555
Ag2_2 O1A 1_555 1_555
N1A Ag2D 1_555 1_555
N1D Ag2 1_555 1_555
N1E Ag2 1_555 1_555
O1A C6A 1_555 1_555
O1D Ag1 1_555 1_555
O1E Ag1 1_555 1_555
O1A_2 Ag2 1_555 1_555
O2A Ag1 1_555 1_555
C1A C1 1_555 1_555
C2A C1A 1_555 1_555
C3A C2A 1_555 1_555
H1A C3A 1_555 1_555
C4A C3A 1_555 1_555
H2A C4A 1_555 1_555
C5A N1A 1_555 1_555
H3A C5A 1_555 1_555
C6A O2A 1_555 1_555
C4 C5 1_555 1_555
Ag1D O1A_2 1_555 1_555
N1A C1A 1_555 1_555
C2A C6A 1_555 1_555
C4A C5A 1_555 1_555

#END
