
#######################################################################
#
#                 Cambridge Crystallographic Data Centre
#                                CCDC 
#
#######################################################################
#
# If this CIF has been generated from an entry in the Cambridge 
# Structural Database, then it will include bibliographic, chemical, 
# crystal, experimental, refinement or atomic coordinate data resulting 
# from the CCDC's data processing and validation procedures.
#
#######################################################################

data_KUGPUY
_symmetry_cell_setting           monoclinic
_symmetry_space_group_name_H-M   'P 21/c'
_symmetry_Int_Tables_number      14
_space_group_name_Hall           '-P 2ybc'
loop_
_symmetry_equiv_pos_site_id
_symmetry_equiv_pos_as_xyz
1 x,y,z
2 -x,1/2+y,1/2-z
3 -x,-y,-z
4 x,1/2-y,1/2+z
_cell_length_a                   8.0343(2)
_cell_length_b                   26.4763(6)
_cell_length_c                   11.73390(10)
_cell_angle_alpha                90
_cell_angle_beta                 107.36
_cell_angle_gamma                90
_cell_volume                     2382.32
loop_
_atom_site_label
_atom_site_type_symbol
_atom_site_fract_x
_atom_site_fract_y
_atom_site_fract_z
Sm1 Sm 0.58254(9) 0.72547(3) 0.66410(5)
Sm2 Sm 0.90282(9) 0.69496(3) 0.49051(6)
O1 O 0.8380(12) 0.6746(4) 0.6779(7)
O2 O 1.0811(13) 0.7194(4) 0.7363(8)
O3 O 1.1102(14) 0.7474(4) 0.9837(9)
O4 O 1.3931(13) 0.7254(4) 1.0182(9)
O5 O 0.9791(13) 0.8401(4) 0.8169(8)
O6 O 0.7351(11) 0.7991(3) 0.7714(7)
O7 O 0.6970(14) 0.7981(4) 0.3667(8)
O8 O 0.7588(12) 0.7672(4) 0.5510(8)
O9 O 0.5639(12) 0.6775(4) 0.4742(8)
O10 O 0.7387(14) 0.6156(4) 0.4533(8)
O11 O 0.1303(13) 0.6410(4) 0.5742(8)
O12 O 0.4176(12) 0.6527(4) 0.6509(8)
O13 O 0.3872(12) 0.7648(4) 0.7621(8)
C1 C 0.9909(18) 0.6835(5) 0.7539(12)
C2 C 1.0526(17) 0.6483(5) 0.8546(11)
C3 C 0.995(2) 0.5986(6) 0.8412(13)
H1 H 0.9128 0.5884 0.7686
C4 C 1.057(2) 0.5633(6) 0.9322(14)
H2 H 1.0167 0.5293 0.9215
C5 C 1.175(3) 0.5781(7) 1.0375(15)
H3 H 1.2150 0.5541 1.1000
C6 C 1.236(2) 0.6254(6) 1.0543(14)
H4 H 1.3217 0.6343 1.1268
C7 C 1.1722(16) 0.6628(5) 0.9625(12)
C8 C 1.226(2) 0.7174(5) 0.9880(11)
C9 C 0.8312(18) 0.8323(5) 0.7463(12)
C10 C 0.7651(18) 0.8677(5) 0.6428(12)
C11 C 0.764(2) 0.9185(6) 0.6776(13)
H5 H 0.8093 0.9274 0.7595
C12 C 0.700(2) 0.9547(6) 0.5954(17)
H6 H 0.7016 0.9890 0.6196
C13 C 0.633(2) 0.9424(7) 0.4770(15)
H7 H 0.5892 0.9687 0.4211
C14 C 0.627(2) 0.8942(6) 0.4360(13)
H8 H 0.5750 0.8863 0.3541
C15 C 0.7031(16) 0.8558(5) 0.5225(11)
C16 C 0.7202(17) 0.8036(5) 0.4766(12)
C17 C 0.5914(19) 0.6300(5) 0.4593(11)
C18 C 0.4498(19) 0.5901(5) 0.4435(12)
C19 C 0.466(2) 0.5496(6) 0.3724(13)
H9 H 0.5615 0.5484 0.3402
C20 C 0.346(2) 0.5115(6) 0.3487(14)
H10 H 0.3560 0.4845 0.2979
C21 C 0.210(2) 0.5119(6) 0.3975(16)
H11 H 0.1287 0.4848 0.3835
C22 C 0.194(2) 0.5524(6) 0.4671(14)
H12 H 0.0979 0.5534 0.4985
C23 C 0.3118(17) 0.5914(5) 0.4929(11)
C24 C 0.2876(17) 0.6318(5) 0.5780(11)
Sm1C Sm 1.58254(9) 0.77453(3) 1.16410(5)
Sm1C_2 Sm 0.58254(9) 0.77453(3) 0.16410(5)
Sm2C Sm 0.90282(9) 0.80504(3) 0.99051(6)
Sm2_2 Sm -0.09718(9) 0.69496(3) 0.49051(6)
O3C O 1.1102(14) 0.7526(4) 0.4837(9)
O4C O 0.3931(13) 0.7746(4) 0.5182(9)
O5C O 0.9791(13) 0.6599(4) 0.3169(8)
O6C O 0.7351(11) 0.7009(3) 0.2714(7)
O7C O 0.6970(14) 0.7019(4) 0.8667(8)
O11_2 O 1.1303(13) 0.6410(4) 0.5742(8)
loop_
_geom_bond_atom_site_label_1
_geom_bond_atom_site_label_2
_geom_bond_site_symmetry_1
_geom_bond_site_symmetry_2
Sm1 O1 1_555 1_555
Sm2 O1 1_555 1_555
O1 C1 1_555 1_555
O2 Sm2 1_555 1_555
O3 C8 1_555 1_555
O4 C8 1_555 1_555
O5 C9 1_555 1_555
O6 Sm1 1_555 1_555
O7 C16 1_555 1_555
O8 Sm1 1_555 1_555
O9 Sm1 1_555 1_555
O10 Sm2 1_555 1_555
O11 C24 1_555 1_555
O12 Sm1 1_555 1_555
O13 Sm1 1_555 1_555
C1 O2 1_555 1_555
C2 C1 1_555 1_555
C3 C2 1_555 1_555
H1 C3 1_555 1_555
C4 C3 1_555 1_555
H2 C4 1_555 1_555
C5 C4 1_555 1_555
H3 C5 1_555 1_555
C6 C5 1_555 1_555
H4 C6 1_555 1_555
C7 C2 1_555 1_555
C8 C7 1_555 1_555
C9 O6 1_555 1_555
C10 C9 1_555 1_555
C11 C10 1_555 1_555
H5 C11 1_555 1_555
C12 C11 1_555 1_555
H6 C12 1_555 1_555
C13 C12 1_555 1_555
H7 C13 1_555 1_555
C14 C13 1_555 1_555
H8 C14 1_555 1_555
C15 C10 1_555 1_555
C16 O8 1_555 1_555
C17 O9 1_555 1_555
C18 C17 1_555 1_555
C19 C18 1_555 1_555
H9 C19 1_555 1_555
C20 C19 1_555 1_555
H10 C20 1_555 1_555
C21 C20 1_555 1_555
H11 C21 1_555 1_555
C22 C21 1_555 1_555
H12 C22 1_555 1_555
C23 C18 1_555 1_555
C24 O12 1_555 1_555
Sm1C O4 1_555 1_555
Sm1C_2 O7 1_555 1_555
Sm2C O3 1_555 1_555
Sm2_2 O11 1_555 1_555
O3C Sm2 1_555 1_555
O4C Sm1 1_555 1_555
O5C Sm2 1_555 1_555
O6C Sm2 1_555 1_555
O7C Sm1 1_555 1_555
O11_2 Sm2 1_555 1_555
Sm2 O8 1_555 1_555
Sm2 O9 1_555 1_555
O5 Sm2C 1_555 1_555
O6 Sm2C 1_555 1_555
O10 C17 1_555 1_555
C6 C7 1_555 1_555
C14 C15 1_555 1_555
C15 C16 1_555 1_555
C22 C23 1_555 1_555
C23 C24 1_555 1_555
Sm1C_2 O6C 1_555 1_555

#END
