
#######################################################################
#
#                 Cambridge Crystallographic Data Centre
#                                CCDC 
#
#######################################################################
#
# If this CIF has been generated from an entry in the Cambridge 
# Structural Database, then it will include bibliographic, chemical, 
# crystal, experimental, refinement or atomic coordinate data resulting 
# from the CCDC's data processing and validation procedures.
#
#######################################################################

data_KUGXUH
_symmetry_cell_setting           monoclinic
_symmetry_space_group_name_H-M   'P 21/c'
_symmetry_Int_Tables_number      14
_space_group_name_Hall           '-P 2ybc'
loop_
_symmetry_equiv_pos_site_id
_symmetry_equiv_pos_as_xyz
1 x,y,z
2 -x,1/2+y,1/2-z
3 -x,-y,-z
4 x,1/2-y,1/2+z
_cell_length_a                   15.3203(12)
_cell_length_b                   8.6991(6)
_cell_length_c                   21.5900(17)
_cell_angle_alpha                90
_cell_angle_beta                 90.555(3)
_cell_angle_gamma                90
_cell_volume                     2877.23
loop_
_atom_site_label
_atom_site_type_symbol
_atom_site_fract_x
_atom_site_fract_y
_atom_site_fract_z
C1 C 0.1038(4) -0.0150(7) 0.3553(3)
H1 H 0.1507 0.0059 0.3816
C2 C 0.0228(5) -0.0485(8) 0.3813(3)
H2 H 0.0157 -0.0507 0.4241
C3 C -0.0453(4) -0.0777(9) 0.3424(3)
H3 H -0.0999 -0.1015 0.3583
C4 C -0.0336(4) -0.0722(7) 0.2790(3)
H4 H -0.0800 -0.0923 0.2520
C5 C 0.0478(3) -0.0364(5) 0.2563(2)
C6 C 0.0670(3) -0.0254(5) 0.1891(2)
C7 C -0.0048(3) -0.0383(6) 0.1422(3)
C8 C -0.0753(4) 0.0617(8) 0.1440(3)
H5 H -0.0768 0.1371 0.1745
C9 C -0.1423(4) 0.0523(10) 0.1020(4)
H6 H -0.1888 0.1209 0.1036
C10 C -0.1398(5) -0.0604(12) 0.0576(4)
H7 H -0.1852 -0.0686 0.0289
C11 C -0.0710(5) -0.1611(11) 0.0550(3)
H8 H -0.0705 -0.2373 0.0249
C12 C -0.0028(4) -0.1503(8) 0.0966(3)
H9 H 0.0442 -0.2176 0.0942
C13 C 0.1836(4) 0.0187(11) 0.1154(3)
H10 H 0.1591 -0.0577 0.0874
H11 H 0.1657 0.1192 0.1004
C14 C 0.2750(4) 0.0092(10) 0.1137(3)
H12 H 0.2966 0.0872 0.0856
H13 H 0.2912 -0.0903 0.0972
C15 C 0.3981(3) 0.0493(6) 0.1833(2)
C16 C 0.4245(3) 0.0545(6) 0.2498(3)
C17 C 0.5094(4) 0.0855(9) 0.2697(3)
H14 H 0.5527 0.1063 0.2409
C18 C 0.5290(5) 0.0852(12) 0.3313(4)
H15 H 0.5854 0.1066 0.3450
C19 C 0.4654(6) 0.0535(11) 0.3722(4)
H16 H 0.4780 0.0509 0.4144
C20 C 0.3814(5) 0.0248(8) 0.3512(3)
H17 H 0.3380 0.0044 0.3799
C21 C 0.4651(3) 0.0673(7) 0.1347(3)
C22 C 0.5355(4) -0.0328(9) 0.1325(4)
H18 H 0.5407 -0.1117 0.1613
C23 C 0.5974(5) -0.0145(12) 0.0874(5)
H19 H 0.6440 -0.0829 0.0858
C24 C 0.5923(6) 0.0993(15) 0.0457(5)
H20 H 0.6351 0.1093 0.0157
C25 C 0.5234(6) 0.2018(11) 0.0472(4)
H21 H 0.5203 0.2816 0.0186
C26 C 0.4582(4) 0.1858(8) 0.0919(3)
H22 H 0.4112 0.2534 0.0928
C27 C 0.2625(3) -0.3604(6) 0.2580(3)
C28 C 0.2559(3) -0.6239(6) 0.2599(2)
N1 N 0.1168(3) -0.0116(5) 0.2943(2)
N2 N 0.3605(3) 0.0254(5) 0.2901(2)
N3 N 0.3173(3) 0.0293(5) 0.17398(19)
N4 N 0.1475(3) -0.0050(5) 0.1772(2)
N5 N 0.2469(3) -0.2348(6) 0.2556(3)
N6 N 0.2934(4) -0.4950(6) 0.2638(5)
N7 N 0.2318(3) -0.7481(6) 0.2595(2)
Co1 Co 0.23603(4) 0.00834(7) 0.24809(3)
N7_2 N 0.2318(3) 0.2519(6) 0.2595(2)
Co1_2 Co 0.23603(4) -0.99166(7) 0.24809(3)
P1 P 0.24966(13) -0.4783(2) 0.03219(8)
F1 F 0.2648(8) -0.6091(14) -0.0122(5)
F2 F 0.2472(4) -0.3883(12) -0.0282(3)
F3 F 0.1513(5) -0.5140(12) 0.0255(4)
F4 F 0.2217(9) -0.3611(12) 0.0743(6)
F5 F 0.3451(4) -0.4485(14) 0.0378(4)
F6 F 0.2573(5) -0.5853(11) 0.0882(4)
loop_
_geom_bond_atom_site_label_1
_geom_bond_atom_site_label_2
_geom_bond_site_symmetry_1
_geom_bond_site_symmetry_2
C1 H1 1_555 1_555
C2 C1 1_555 1_555
H2 C2 1_555 1_555
C3 C2 1_555 1_555
H3 C3 1_555 1_555
C4 C3 1_555 1_555
H4 C4 1_555 1_555
C5 C4 1_555 1_555
C6 C5 1_555 1_555
C7 C6 1_555 1_555
C8 C7 1_555 1_555
H5 C8 1_555 1_555
C9 C8 1_555 1_555
H6 C9 1_555 1_555
C10 C9 1_555 1_555
H7 C10 1_555 1_555
C11 C10 1_555 1_555
H8 C11 1_555 1_555
C12 C7 1_555 1_555
H9 C12 1_555 1_555
C13 H10 1_555 1_555
H11 C13 1_555 1_555
C14 C13 1_555 1_555
H12 C14 1_555 1_555
H13 C14 1_555 1_555
C15 C16 1_555 1_555
C16 C17 1_555 1_555
C17 H14 1_555 1_555
C18 C17 1_555 1_555
H15 C18 1_555 1_555
C19 C18 1_555 1_555
H16 C19 1_555 1_555
C20 C19 1_555 1_555
H17 C20 1_555 1_555
C21 C15 1_555 1_555
C22 C21 1_555 1_555
H18 C22 1_555 1_555
C23 C22 1_555 1_555
H19 C23 1_555 1_555
C24 C23 1_555 1_555
H20 C24 1_555 1_555
C25 C24 1_555 1_555
H21 C25 1_555 1_555
C26 C21 1_555 1_555
H22 C26 1_555 1_555
C27 N5 1_555 1_555
C28 N6 1_555 1_555
N1 C1 1_555 1_555
N2 C16 1_555 1_555
N3 C14 1_555 1_555
N4 C6 1_555 1_555
N5 Co1 1_555 1_555
N6 C27 1_555 1_555
N7 C28 1_555 1_555
Co1 N1 1_555 1_555
P1 F1 1_555 1_555
F2 P1 1_555 1_555
F3 P1 1_555 1_555
F4 P1 1_555 1_555
F5 P1 1_555 1_555
F6 P1 1_555 1_555
N7_2 Co1 1_555 1_555
Co1_2 N7 1_555 1_555
C5 N1 1_555 1_555
C11 C12 1_555 1_555
C13 N4 1_555 1_555
C15 N3 1_555 1_555
C20 N2 1_555 1_555
C25 C26 1_555 1_555
N2 Co1 1_555 1_555
N3 Co1 1_555 1_555
N4 Co1 1_555 1_555

#END
