
#######################################################################
#
#                 Cambridge Crystallographic Data Centre
#                                CCDC 
#
#######################################################################
#
# If this CIF has been generated from an entry in the Cambridge 
# Structural Database, then it will include bibliographic, chemical, 
# crystal, experimental, refinement or atomic coordinate data resulting 
# from the CCDC's data processing and validation procedures.
#
#######################################################################

data_KUHDEX01
_symmetry_cell_setting           monoclinic
_symmetry_space_group_name_H-M   'C 2/c'
_symmetry_Int_Tables_number      15
_space_group_name_Hall           '-C 2yn'
loop_
_symmetry_equiv_pos_site_id
_symmetry_equiv_pos_as_xyz
1 x,y,z
2 -x,y,1/2-z
3 1/2+x,1/2+y,z
4 1/2-x,1/2+y,1/2-z
5 -x,-y,-z
6 x,-y,1/2+z
7 1/2-x,1/2-y,-z
8 1/2+x,1/2-y,1/2+z
_cell_length_a                   9.46474(20)
_cell_length_b                   16.18395(30)
_cell_length_c                   12.72862(24)
_cell_angle_alpha                90
_cell_angle_beta                 93.2389(15)
_cell_angle_gamma                90
_cell_volume                     1946.62
loop_
_atom_site_label
_atom_site_type_symbol
_atom_site_fract_x
_atom_site_fract_y
_atom_site_fract_z
Tb1 Tb 0.61108(14) 0.86879(8) 0.57244(9)
N1 N 0.59967 1.01544 0.62595
N2 N 0.52136 1.06794 0.56398
N3 N 0.54590 1.14555 0.59982
N4 N 0.60668 0.71328 0.57428
N5 N 0.70099 0.66793 0.52298
N6 N 0.66596 0.58739 0.53233
N7 N 0.78045 0.86537 0.73662
N8 N 0.64146 0.85979 0.75493
N9 N 0.62997 0.85345 0.86001
C1 C 0.67260 1.06060 0.70010
C2 C 0.63937 1.14101 0.68395
C3 C 0.51337 0.66076 0.61534
C4 C 0.55001 0.58296 0.58941
C5 C 0.85486 0.86247 0.83039
C6 C 0.76187 0.85511 0.90664
H1 H 0.73940 1.03841 0.75691
H2 H 0.67727 1.18875 0.72672
H3 H 0.43161 0.67667 0.65750
H4 H 0.50010 0.53121 0.60901
H5 H 0.96021 0.86528 0.84140
H6 H 0.78634 0.85152 0.98397
Tb1D Tb 0.38892(14) 1.13121(8) 0.42756(9)
Tb1F Tb 0.88892(14) 0.63121(8) 0.42756(9)
Tb1A Tb 0.38892(14) 0.86879(8) 0.92756(9)
N2D N 0.47864 0.93206 0.43602
N3D N 0.45410 0.85445 0.40018
N5F N 0.79901 0.83207 0.47702
N6F N 0.83404 0.91261 0.46767
N9A N 0.37003 0.85345 0.63999
loop_
_geom_bond_atom_site_label_1
_geom_bond_atom_site_label_2
_geom_bond_site_symmetry_1
_geom_bond_site_symmetry_2
Tb1 N1 1_555 1_555
N1 N2 1_555 1_555
N2 N3 1_555 1_555
N3 C2 1_555 1_555
N4 Tb1 1_555 1_555
N5 N4 1_555 1_555
N6 N5 1_555 1_555
N7 Tb1 1_555 1_555
N8 Tb1 1_555 1_555
N9 N8 1_555 1_555
C1 N1 1_555 1_555
C2 C1 1_555 1_555
C3 N4 1_555 1_555
C4 N6 1_555 1_555
C5 N7 1_555 1_555
C6 N9 1_555 1_555
H1 C1 1_555 1_555
H2 C2 1_555 1_555
H3 C3 1_555 1_555
H4 C4 1_555 1_555
H5 C5 1_555 1_555
H6 C6 1_555 1_555
Tb1D N2 1_555 1_555
Tb1F N5 1_555 1_555
Tb1A N9 1_555 1_555
N2D Tb1 1_555 1_555
N3D Tb1 1_555 1_555
N5F Tb1 1_555 1_555
N6F Tb1 1_555 1_555
N9A Tb1 1_555 1_555
N3 Tb1D 1_555 1_555
N6 Tb1F 1_555 1_555
N7 N8 1_555 1_555
C3 C4 1_555 1_555
C5 C6 1_555 1_555
N2D N3D 1_555 1_555
N5F N6F 1_555 1_555

#END
