
#######################################################################
#
#                 Cambridge Crystallographic Data Centre
#                                CCDC 
#
#######################################################################
#
# If this CIF has been generated from an entry in the Cambridge 
# Structural Database, then it will include bibliographic, chemical, 
# crystal, experimental, refinement or atomic coordinate data resulting 
# from the CCDC's data processing and validation procedures.
#
#######################################################################

data_KUHFUQ
_symmetry_cell_setting           triclinic
_symmetry_space_group_name_H-M   'P -1'
_symmetry_Int_Tables_number      2
_space_group_name_Hall           '-P 1'
loop_
_symmetry_equiv_pos_site_id
_symmetry_equiv_pos_as_xyz
1 x,y,z
2 -x,-y,-z
_cell_length_a                   12.4006(2)
_cell_length_b                   13.1923(3)
_cell_length_c                   14.4294(4)
_cell_angle_alpha                104.022(2)
_cell_angle_beta                 107.238(2)
_cell_angle_gamma                99.5150(18)
_cell_volume                     2114.51
loop_
_atom_site_label
_atom_site_type_symbol
_atom_site_fract_x
_atom_site_fract_y
_atom_site_fract_z
Cu1 Cu 0.037031(14) 0.630797(13) 0.484159(12)
Cu2 Cu 0.009404(14) 0.629427(13) 0.085299(12)
Cl1 Cl -0.07792(3) 0.47253(3) 0.36650(2)
Cl2 Cl 0.07087(3) 0.48572(3) 0.12057(2)
S1 S -0.02023(3) 0.76096(3) 0.35081(3)
S2 S 0.10790(3) 0.77504(3) 0.28914(3)
C1 C 0.15389(16) 0.86489(12) 0.54335(12)
H1 H 0.2097 0.8560 0.5070
H2 H 0.1881 0.9342 0.5994
C2 C 0.04178(16) 0.87194(12) 0.47014(12)
H3 H 0.0566 0.9407 0.4543
H4 H -0.0166 0.8741 0.5044
C3 C 0.08376(14) 0.87976(12) 0.22860(12)
H5 H 0.0891 0.9465 0.2810
H6 H 0.1468 0.8959 0.2013
C4 C -0.03261(14) 0.84969(12) 0.14304(11)
H7 H -0.0952 0.8303 0.1700
H8 H -0.0429 0.9141 0.1212
C5 C 0.28053(14) 0.69082(13) 0.53468(12)
C6 C 0.38900(16) 0.70057(18) 0.52579(15)
H9 H 0.4562 0.7485 0.5797
C7 C 0.39900(16) 0.63991(19) 0.43764(16)
H10 H 0.4732 0.6462 0.4302
C8 C 0.30082(15) 0.57029(15) 0.36061(13)
H11 H 0.3061 0.5281 0.2994
C9 C 0.19448(13) 0.56311(12) 0.37412(11)
H12 H 0.1264 0.5149 0.3214
C10 C 0.25816(14) 0.75295(13) 0.62631(12)
H13 H 0.2589 0.7101 0.6740
H14 H 0.3194 0.8217 0.6626
C11 C -0.03886(15) 0.75264(12) 0.62930(12)
C12 C -0.10834(18) 0.78424(15) 0.68514(14)
H15 H -0.0756 0.8410 0.7481
C13 C -0.2248(2) 0.73216(17) 0.64785(16)
H16 H -0.2734 0.7515 0.6856
C14 C -0.27120(17) 0.65122(16) 0.55485(15)
H17 H -0.3517 0.6143 0.5281
C15 C -0.19850(14) 0.62510(13) 0.50158(13)
H18 H -0.2305 0.5710 0.4369
C16 C 0.09053(16) 0.79917(13) 0.67016(12)
H19 H 0.1081 0.8785 0.7007
H20 H 0.1269 0.7689 0.7246
C17 C -0.22302(12) 0.64031(12) 0.04716(11)
C18 C -0.33529(13) 0.62492(14) 0.04970(12)
H21 H -0.3882 0.6606 0.0168
C19 C -0.36899(13) 0.55679(14) 0.10101(12)
H22 H -0.4453 0.5456 0.1041
C20 C -0.29117(13) 0.50524(13) 0.14763(11)
H23 H -0.3130 0.4585 0.1835
C21 C -0.18108(12) 0.52258(11) 0.14143(10)
H24 H -0.1276 0.4865 0.1728
C22 C -0.17610(13) 0.71286(12) -0.00553(11)
H25 H -0.1903 0.6712 -0.0769
H26 H -0.2158 0.7720 -0.0064
C23 C 0.13502(13) 0.77147(11) 0.01492(11)
C24 C 0.22193(15) 0.82157(13) -0.01384(12)
H27 H 0.2080 0.8715 -0.0508
C25 C 0.32921(15) 0.79723(14) 0.01242(13)
H28 H 0.3897 0.8300 -0.0069
C26 C 0.34743(14) 0.72509(14) 0.06680(13)
H29 H 0.4211 0.7087 0.0866
C27 C 0.25727(13) 0.67687(12) 0.09219(12)
H30 H 0.2696 0.6265 0.1290
C28 C 0.01538(13) 0.79174(12) -0.01331(11)
H31 H 0.0228 0.8696 -0.0049
H32 H -0.0298 0.7510 -0.0859
N1 N 0.14152(11) 0.77498(10) 0.58888(9)
N2 N -0.04837(11) 0.75829(9) 0.05123(9)
N3 N 0.18456(10) 0.62228(9) 0.45947(9)
N4 N -0.08385(11) 0.67415(10) 0.53878(9)
N5 N -0.14765(10) 0.58909(9) 0.09228(9)
N6 N 0.15236(10) 0.69951(9) 0.06610(9)
Cu1A Cu -0.037031(14) 0.369203(13) 0.515841(12)
Cu2A Cu -0.009404(14) 0.370573(13) -0.085299(12)
Cl1A Cl 0.07792(3) 0.52747(3) 0.63350(2)
Cl2A Cl -0.07087(3) 0.51428(3) -0.12057(2)
B1 B 0.6706(5) 0.9506(5) 0.1700(5)
F1 F 0.6103(10) 0.8579(6) 0.0897(7)
F2 F 0.6068(2) 0.9693(2) 0.23447(19)
F3 F 0.7770(5) 0.9380(6) 0.2252(5)
F4 F 0.6844(3) 1.0380(2) 0.1347(3)
B6 B 0.4809(8) 0.4206(7) 0.2494(7)
F21 F 0.4298(6) 0.4867(4) 0.1963(4)
F22 F 0.5650(6) 0.4860(6) 0.3351(5)
F23 F 0.3967(5) 0.3551(5) 0.2681(5)
F24 F 0.5220(5) 0.3545(4) 0.1831(5)
C29 C -0.40000(16) 0.89727(16) 0.86623(15)
H33 H -0.4412 0.8228 0.8236
H34 H -0.4371 0.9474 0.8360
H35 H -0.4034 0.9078 0.9348
C30 C -0.27813(16) 0.91804(13) 0.87270(13)
N7 N -0.18259(14) 0.93452(12) 0.87891(12)
C31 C -0.3543(2) 0.76185(19) 0.32104(18)
H36 H -0.3105 0.7625 0.2746
H37 H -0.4276 0.7812 0.2934
H38 H -0.3716 0.6895 0.3281
C32 C -0.28569(18) 0.83893(16) 0.41950(17)
N8 N -0.22977(19) 0.89953(15) 0.49681(16)
B2? B 0.6906(8) 0.9465(7) 0.1576(7)
F5? F 0.7606(4) 0.9792(5) 0.1052(4)
F6? F 0.6037(11) 0.8536(9) 0.0961(11)
F7? F 0.7657(8) 0.9310(9) 0.2421(7)
F8? F 0.6438(3) 1.0268(4) 0.1900(4)
B3? B 0.6775(16) 0.9566(16) 0.1438(13)
F9? F 0.7845(12) 0.9775(14) 0.1320(12)
F10? F 0.625(3) 0.8479(17) 0.090(3)
F11? F 0.6883(13) 0.9719(10) 0.2448(8)
F12? F 0.6169(12) 1.0239(9) 0.1066(10)
B4? B 0.4935(7) 0.4169(7) 0.2622(6)
F13? F 0.4216(7) 0.4388(8) 0.1809(6)
F14? F 0.5668(8) 0.5120(7) 0.3308(7)
F15? F 0.4268(8) 0.3662(8) 0.3061(6)
F16? F 0.5587(9) 0.3514(8) 0.2294(8)
B5? B 0.4861(9) 0.4163(8) 0.2717(7)
F17? F 0.5075(5) 0.5189(3) 0.2586(5)
F18? F 0.4874(3) 0.4305(3) 0.3697(2)
F19? F 0.3774(3) 0.3559(3) 0.2047(3)
F20? F 0.5750(7) 0.3662(7) 0.2611(6)
loop_
_geom_bond_atom_site_label_1
_geom_bond_atom_site_label_2
_geom_bond_site_symmetry_1
_geom_bond_site_symmetry_2
Cu1 Cl1 1_555 1_555
Cu2 Cl2 1_555 1_555
Cl1 Cu1A 1_555 1_555
Cl2 Cu2A 1_555 1_555
S1 Cu1 1_555 1_555
S2 Cu2 1_555 1_555
C1 H1 1_555 1_555
H2 C1 1_555 1_555
C2 S1 1_555 1_555
H3 C2 1_555 1_555
H4 C2 1_555 1_555
C3 S2 1_555 1_555
H5 C3 1_555 1_555
H6 C3 1_555 1_555
C4 C3 1_555 1_555
H7 C4 1_555 1_555
H8 C4 1_555 1_555
C5 C6 1_555 1_555
C6 H9 1_555 1_555
C7 C6 1_555 1_555
H10 C7 1_555 1_555
C8 C7 1_555 1_555
H11 C8 1_555 1_555
C9 C8 1_555 1_555
H12 C9 1_555 1_555
C10 C5 1_555 1_555
H13 C10 1_555 1_555
H14 C10 1_555 1_555
C11 C12 1_555 1_555
C12 H15 1_555 1_555
C13 C12 1_555 1_555
H16 C13 1_555 1_555
C14 C13 1_555 1_555
H17 C14 1_555 1_555
C15 C14 1_555 1_555
H18 C15 1_555 1_555
C16 C11 1_555 1_555
H19 C16 1_555 1_555
H20 C16 1_555 1_555
C17 C18 1_555 1_555
C18 H21 1_555 1_555
C19 C18 1_555 1_555
H22 C19 1_555 1_555
C20 C19 1_555 1_555
H23 C20 1_555 1_555
C21 C20 1_555 1_555
H24 C21 1_555 1_555
C22 C17 1_555 1_555
H25 C22 1_555 1_555
H26 C22 1_555 1_555
C23 C24 1_555 1_555
C24 H27 1_555 1_555
C25 C24 1_555 1_555
H28 C25 1_555 1_555
C26 C25 1_555 1_555
H29 C26 1_555 1_555
C27 C26 1_555 1_555
H30 C27 1_555 1_555
C28 C23 1_555 1_555
H31 C28 1_555 1_555
H32 C28 1_555 1_555
N1 Cu1 1_555 1_555
N2 Cu2 1_555 1_555
N3 Cu1 1_555 1_555
N4 Cu1 1_555 1_555
N5 Cu2 1_555 1_555
N6 Cu2 1_555 1_555
B1 F1 1_555 1_555
F2 B1 1_555 1_555
F3 B1 1_555 1_555
F4 B1 1_555 1_555
B6 F21 1_555 1_555
F22 B6 1_555 1_555
F23 B6 1_555 1_555
F24 B6 1_555 1_555
C29 H33 1_555 1_555
H34 C29 1_555 1_555
H35 C29 1_555 1_555
C30 C29 1_555 1_555
N7 C30 1_555 1_555
C31 H36 1_555 1_555
H37 C31 1_555 1_555
H38 C31 1_555 1_555
C32 C31 1_555 1_555
N8 C32 1_555 1_555
Cu1A Cl1A 1_555 1_555
Cu2A Cl2A 1_555 1_555
Cl1A Cu1 1_555 1_555
Cl2A Cu2 1_555 1_555
S1 S2 1_555 1_555
C1 C2 1_555 1_555
C1 N1 1_555 1_555
C4 N2 1_555 1_555
C5 N3 1_555 1_555
C9 N3 1_555 1_555
C10 N1 1_555 1_555
C11 N4 1_555 1_555
C15 N4 1_555 1_555
C16 N1 1_555 1_555
C17 N5 1_555 1_555
C21 N5 1_555 1_555
C22 N2 1_555 1_555
C23 N6 1_555 1_555
C27 N6 1_555 1_555
C28 N2 1_555 1_555

#END
