
#######################################################################
#
#                 Cambridge Crystallographic Data Centre
#                                CCDC 
#
#######################################################################
#
# If this CIF has been generated from an entry in the Cambridge 
# Structural Database, then it will include bibliographic, chemical, 
# crystal, experimental, refinement or atomic coordinate data resulting 
# from the CCDC's data processing and validation procedures.
#
#######################################################################

data_KUHNEI
_symmetry_cell_setting           orthorhombic
_symmetry_space_group_name_H-M   'P b c n'
_symmetry_Int_Tables_number      60
_space_group_name_Hall           '-P 2n 2ab'
loop_
_symmetry_equiv_pos_site_id
_symmetry_equiv_pos_as_xyz
1 x,y,z
2 1/2-x,1/2-y,1/2+z
3 -x,y,1/2-z
4 1/2+x,1/2-y,-z
5 -x,-y,-z
6 1/2+x,1/2+y,1/2-z
7 x,-y,1/2+z
8 1/2-x,1/2+y,z
_cell_length_a                   13.669(3)
_cell_length_b                   15.925(3)
_cell_length_c                   14.633(3)
_cell_angle_alpha                90
_cell_angle_beta                 90
_cell_angle_gamma                90
_cell_volume                     3185.29
loop_
_atom_site_label
_atom_site_type_symbol
_atom_site_fract_x
_atom_site_fract_y
_atom_site_fract_z
Co1 Co 0.20609(6) 0.49710(4) 0.23316(4)
Co2 Co 0.06400(4) 0.41669(4) 0.03015(4)
C1 C 0.2644(3) 0.3954(3) 0.1112(3)
C2 C 0.2944(3) 0.3284(3) 0.0442(3)
C3 C 0.2870(3) 0.3349(3) -0.0515(3)
C4 C 0.2401(3) 0.4078(3) -0.1004(3)
C5 C 0.3179(3) 0.2672(3) -0.1042(3)
H1 H 0.3163 0.2719 -0.1675
C6 C 0.3511(3) 0.1925(3) -0.0656(3)
C7 C 0.3770(3) 0.1227(3) -0.1315(3)
C8 C 0.3543(3) 0.1852(3) 0.0292(3)
C9 C 0.3742(3) 0.1035(3) 0.0786(3)
C10 C 0.3273(3) 0.2540(3) 0.0828(3)
H2 H 0.3314 0.2498 0.1461
C11 C 0.0780(5) 0.2219(5) 0.0120(6)
C12 C 0.0746(5) 0.1779(4) -0.1411(6)
H3 H 0.0707 0.2375 -0.1500
H4 H 0.0164 0.1518 -0.1645
H5 H 0.1307 0.1563 -0.1729
C13 C 0.1033(8) 0.0736(5) -0.0221(10)
H6 H 0.1725 0.0635 -0.0253
H7 H 0.0703 0.0388 -0.0660
H8 H 0.0802 0.0604 0.0382
C14 C 0.0837(5) 0.2017(4) 0.1155(6)
H9 H 0.0775 0.2527 0.1500
H10 H 0.1455 0.1758 0.1289
H11 H 0.0317 0.1640 0.1317
N1 N 0.0840(4) 0.1592(4) -0.0415(5)
O1 O 0.3265(2) 0.4333(2) 0.1576(2)
O2 O 0.1733(2) 0.4093(2) 0.1250(2)
O3 O 0.1702(3) 0.4466(2) -0.0646(3)
O4 O 0.2729(3) 0.4242(2) -0.1792(2)
O5 O 0.3090(2) 0.1016(2) -0.1834(2)
O6 O 0.4617(2) 0.0929(2) -0.1327(2)
O7 O 0.4428(2) 0.0545(2) 0.0532(2)
O8 O 0.3169(3) 0.0889(2) 0.1424(3)
O9 O 0.0665(3) 0.2949(3) -0.0106(4)
O10 O 0.0478(5) 0.5355(6) 0.2569(6)
Co1A Co 0.29391(6) 0.00290(4) -0.26684(4)
Co1F Co 0.20609(6) 0.50290(4) -0.26684(4)
Co1G Co 0.29391(6) -0.00290(4) 0.23316(4)
Co2C Co 0.56400(4) 0.08331(4) -0.03015(4)
Co2G Co 0.43600(4) -0.08331(4) 0.03015(4)
O4F O 0.2729(3) 0.5758(2) 0.3208(2)
O5A O 0.1910(2) 0.3984(2) 0.3166(2)
O6C O -0.0383(2) 0.4071(2) 0.1327(2)
O7C O -0.0572(2) 0.4455(2) -0.0532(2)
O7G O 0.0572(2) 0.5545(2) 0.0532(2)
O8G O 0.1831(3) 0.5889(2) 0.1424(3)
loop_
_geom_bond_atom_site_label_1
_geom_bond_atom_site_label_2
_geom_bond_site_symmetry_1
_geom_bond_site_symmetry_2
Co1 O1 1_555 1_555
Co2 O2 1_555 1_555
C1 C2 1_555 1_555
C2 C3 1_555 1_555
C3 C4 1_555 1_555
C4 O3 1_555 1_555
C5 C3 1_555 1_555
H1 C5 1_555 1_555
C6 C5 1_555 1_555
C7 C6 1_555 1_555
C8 C6 1_555 1_555
C9 C8 1_555 1_555
C10 C2 1_555 1_555
H2 C10 1_555 1_555
C11 C14 1_555 1_555
C12 H3 1_555 1_555
H4 C12 1_555 1_555
H5 C12 1_555 1_555
C13 H6 1_555 1_555
H7 C13 1_555 1_555
H8 C13 1_555 1_555
C14 H9 1_555 1_555
H10 C14 1_555 1_555
H11 C14 1_555 1_555
N1 C11 1_555 1_555
O1 C1 1_555 1_555
O2 Co1 1_555 1_555
O3 Co2 1_555 1_555
O4 C4 1_555 1_555
O5 C7 1_555 1_555
O6 C7 1_555 1_555
O7 C9 1_555 1_555
O8 C9 1_555 1_555
O9 Co2 1_555 1_555
O10 Co1 1_555 1_555
Co1A O5 1_555 1_555
Co1F O4 1_555 1_555
Co1G O8 1_555 1_555
Co2C O6 1_555 1_555
Co2G O7 1_555 1_555
O4F Co1 1_555 1_555
O5A Co1 1_555 1_555
O6C Co2 1_555 1_555
O7C Co2 1_555 1_555
O7G Co2 1_555 1_555
O8G Co1 1_555 1_555
C1 O2 1_555 1_555
C8 C10 1_555 1_555
C11 O9 1_555 1_555
C12 N1 1_555 1_555
C13 N1 1_555 1_555
O7 Co2C 1_555 1_555

#END
