
#######################################################################
#
#                 Cambridge Crystallographic Data Centre
#                                CCDC 
#
#######################################################################
#
# If this CIF has been generated from an entry in the Cambridge 
# Structural Database, then it will include bibliographic, chemical, 
# crystal, experimental, refinement or atomic coordinate data resulting 
# from the CCDC's data processing and validation procedures.
#
#######################################################################

data_KUHZAP
_symmetry_cell_setting           triclinic
_symmetry_space_group_name_H-M   'P -1'
_symmetry_Int_Tables_number      2
_space_group_name_Hall           '-P 1'
loop_
_symmetry_equiv_pos_site_id
_symmetry_equiv_pos_as_xyz
1 x,y,z
2 -x,-y,-z
_cell_length_a                   5.5061(11)
_cell_length_b                   7.6378(16)
_cell_length_c                   14.332(3)
_cell_angle_alpha                79.301(2)
_cell_angle_beta                 88.416(2)
_cell_angle_gamma                75.341(2)
_cell_volume                     572.85
loop_
_atom_site_label
_atom_site_type_symbol
_atom_site_fract_x
_atom_site_fract_y
_atom_site_fract_z
S1 S 0.46668(9) 1.08616(6) 0.19340(3)
Na1 Na 0.81329(15) 0.43294(11) 0.19900(6)
O1 O 0.7047(3) 0.5545(2) 0.62879(11)
H1 H 0.6881 0.4992 0.6824
O2 O 0.2891(3) 0.6664(2) 0.63818(10)
O3 O 0.6971(3) 1.1443(2) 0.18218(11)
O4 O 0.2297(3) 1.22386(19) 0.17970(11)
O5 O 0.3845(3) 0.6221(2) 0.20859(11)
O6 O -0.0054(3) 0.6932(2) 0.14856(12)
O7 O 0.7414(6) 0.5165(4) 0.02370(16)
H2 H 0.7439 0.6263 0.0173
H3 H 0.5979 0.5061 0.0089
N1 N 0.4745(3) 0.9537(2) 0.11692(11)
H4 H 0.613(5) 0.879(3) 0.1200(17)
C1 C 0.4836(4) 0.6533(3) 0.59357(14)
C2 C 0.4882(4) 0.7518(3) 0.49304(14)
C3 C 0.7051(4) 0.7334(3) 0.43877(15)
H5 H 0.8550 0.6534 0.4641
C4 C 0.6974(4) 0.8339(3) 0.34760(15)
H6 H 0.8413 0.8204 0.3113
C5 C 0.4728(4) 0.9557(3) 0.31024(14)
C6 C 0.2546(4) 0.9726(3) 0.36265(15)
H7 H 0.1045 1.0524 0.3374
C7 C 0.2649(4) 0.8681(3) 0.45327(15)
H8 H 0.1188 0.8763 0.4882
C8 C 0.2496(4) 0.8983(3) 0.09377(14)
H9 H 0.2603 0.8804 0.0284
H10 H 0.1039 0.9992 0.0977
C9 C 0.2053(3) 0.7238(3) 0.15610(13)
Na1A Na 0.18671(15) 0.56706(11) 0.80100(6)
Na1_2 Na 0.81329(15) 1.43294(11) 0.19900(6)
Na1_3 Na -0.18671(15) 1.43294(11) 0.19900(6)
Na1_4 Na -0.18671(15) 0.43294(11) 0.19900(6)
O2A O 0.7109(3) 0.3336(2) 0.36182(10)
O3_2 O 0.6971(3) 0.1443(2) 0.18218(11)
O4_2 O 1.2297(3) 0.22386(19) 0.17970(11)
O6_2 O 0.9946(3) 0.6932(2) 0.14856(12)
loop_
_geom_bond_atom_site_label_1
_geom_bond_atom_site_label_2
_geom_bond_site_symmetry_1
_geom_bond_site_symmetry_2
S1 O3 1_555 1_555
Na1 O5 1_555 1_555
O1 H1 1_555 1_555
O2 C1 1_555 1_555
O3 Na1_2 1_555 1_555
O4 S1 1_555 1_555
O5 C9 1_555 1_555
O6 C9 1_555 1_555
O7 Na1 1_555 1_555
H2 O7 1_555 1_555
H3 O7 1_555 1_555
N1 S1 1_555 1_555
H4 N1 1_555 1_555
C1 O1 1_555 1_555
C2 C1 1_555 1_555
C3 C2 1_555 1_555
H5 C3 1_555 1_555
C4 C3 1_555 1_555
H6 C4 1_555 1_555
C5 S1 1_555 1_555
C6 C5 1_555 1_555
H7 C6 1_555 1_555
C7 C2 1_555 1_555
H8 C7 1_555 1_555
C8 N1 1_555 1_555
H9 C8 1_555 1_555
H10 C8 1_555 1_555
C9 C8 1_555 1_555
Na1A O2 1_555 1_555
Na1_3 O4 1_555 1_555
Na1_4 O6 1_555 1_555
O2A Na1 1_555 1_555
O3_2 Na1 1_555 1_555
O4_2 Na1 1_555 1_555
O6_2 Na1 1_555 1_555
C4 C5 1_555 1_555
C6 C7 1_555 1_555

#END
