
#######################################################################
#
#                 Cambridge Crystallographic Data Centre
#                                CCDC 
#
#######################################################################
#
# If this CIF has been generated from an entry in the Cambridge 
# Structural Database, then it will include bibliographic, chemical, 
# crystal, experimental, refinement or atomic coordinate data resulting 
# from the CCDC's data processing and validation procedures.
#
#######################################################################

data_KUJFOM
_symmetry_cell_setting           monoclinic
_symmetry_space_group_name_H-M   'C 2/c'
_symmetry_Int_Tables_number      15
_space_group_name_Hall           '-C 2yn'
loop_
_symmetry_equiv_pos_site_id
_symmetry_equiv_pos_as_xyz
1 x,y,z
2 -x,y,1/2-z
3 1/2+x,1/2+y,z
4 1/2-x,1/2+y,1/2-z
5 -x,-y,-z
6 x,-y,1/2+z
7 1/2-x,1/2-y,-z
8 1/2+x,1/2-y,1/2+z
_cell_length_a                   18.4925(11)
_cell_length_b                   12.8749(3)
_cell_length_c                   13.8337(9)
_cell_angle_alpha                90
_cell_angle_beta                 131.706(11)
_cell_angle_gamma                90
_cell_volume                     2458.94
loop_
_atom_site_label
_atom_site_type_symbol
_atom_site_fract_x
_atom_site_fract_y
_atom_site_fract_z
Sc1 Sc 0.68297(3) 0.25012(3) 0.23595(4)
N1 N 0.65434(13) 0.06308(14) 0.18830(18)
C1 C 0.71522(16) -0.00940(17) 0.2088(2)
H1 H 0.7697 0.0136 0.2241
N2 N 0.70437(13) -0.11183(14) 0.20911(18)
C2 C 0.62394(16) -0.14417(17) 0.1834(2)
C3 C 0.55580(15) -0.07518(17) 0.1585(2)
H2 H 0.4999 -0.0982 0.1397
C4 C 0.57457(16) 0.02931(17) 0.1627(2)
C5 C 0.50752(16) 0.11556(18) 0.1382(2)
O1 O 0.54390(11) 0.20637(12) 0.16252(16)
O2 O 0.42599(11) 0.09286(12) 0.09533(15)
C6 C 0.61578(16) -0.26060(17) 0.1862(2)
O3 O 0.68678(11) -0.31089(12) 0.21510(15)
O4 O 0.54375(11) -0.29813(12) 0.16249(16)
O5 O 0.69292(11) 0.34475(12) 0.38122(15)
C7 C 0.73053(16) 0.30457(17) 0.4885(2)
O6 O 0.74094(12) 0.34376(12) 0.58022(15)
O7 O 0.64271(11) 0.24521(12) 0.04857(15)
O8 O 0.59249(11) 0.38958(12) 0.13356(15)
H3 H 0.5870 0.2654 -0.0206
H4 H 0.6592 0.1993 0.0216
H5 H 0.5971 0.4308 0.0895
H6 H 0.5344 0.4021 0.1038
O5F O 0.80708(11) 0.15525(12) 0.61878(15)
C7F C 0.76947(16) 0.19543(17) 0.5115(2)
O6F O 0.75906(12) 0.15624(12) 0.41978(15)
Sc1F Sc 0.81703(3) 0.24988(3) 0.76405(4)
N1F N 0.84566(13) 0.43692(14) 0.81170(18)
C1F C 0.78478(16) 0.50940(17) 0.7912(2)
H1F H 0.7303 0.4864 0.7759
N2F N 0.79563(13) 0.61183(14) 0.79089(18)
C2F C 0.87606(16) 0.64417(17) 0.8166(2)
C3F C 0.94420(15) 0.57518(17) 0.8415(2)
H2F H 1.0001 0.5982 0.8603
C4F C 0.92543(16) 0.47069(17) 0.8373(2)
C5F C 0.99248(16) 0.38444(18) 0.8618(2)
O1F O 0.95610(11) 0.29363(12) 0.83748(16)
O2F O 1.07401(11) 0.40714(12) 0.90467(15)
C6F C 0.88422(16) 0.76060(17) 0.8138(2)
O3F O 0.81322(11) 0.81089(12) 0.78490(15)
O4F O 0.95625(11) 0.79813(12) 0.83751(16)
O7F O 0.85729(11) 0.25479(12) 0.95143(15)
O8F O 0.90751(11) 0.11042(12) 0.86644(15)
H3F H 0.9130 0.2346 1.0206
H4F H 0.8408 0.3007 0.9784
H5F H 0.9029 0.0692 0.9105
H6F H 0.9656 0.0979 0.8962
Sc1C Sc 0.81703(3) -0.24988(3) 0.26405(4)
Sc1E Sc 0.68297(3) 0.74988(3) 0.73595(4)
N2C N 0.79563(13) 0.38817(14) 0.29089(18)
N2E N 0.70437(13) 0.11183(14) 0.70911(18)
O3C O 0.81322(11) 0.18911(12) 0.28490(15)
O3E O 0.68678(11) 0.31089(12) 0.71510(15)
O9 O 0.61779(12) 0.54399(13) 0.33659(17)
H7 H 0.5897 0.5757 0.2600
H8 H 0.6409 0.4853 0.3319
O10 O 0.68486(12) -0.08955(13) 0.46503(16)
H9 H 0.7452 -0.0749 0.5186
H10 H 0.6573 -0.0302 0.4460
O11 O 0.58478(12) 0.47087(13) 0.48507(16)
H11 H 0.5870 0.4981 0.4311
H12 H 0.6300 0.4237 0.5224
loop_
_geom_bond_atom_site_label_1
_geom_bond_atom_site_label_2
_geom_bond_site_symmetry_1
_geom_bond_site_symmetry_2
Sc1 N1 1_555 1_555
N1 C1 1_555 1_555
C1 H1 1_555 1_555
N2 C1 1_555 1_555
C2 N2 1_555 1_555
C3 C2 1_555 1_555
H2 C3 1_555 1_555
C4 N1 1_555 1_555
C5 C4 1_555 1_555
O1 Sc1 1_555 1_555
O2 C5 1_555 1_555
C6 C2 1_555 1_555
O3 C6 1_555 1_555
O4 C6 1_555 1_555
O5 Sc1 1_555 1_555
C7 O5 1_555 1_555
O6 C7 1_555 1_555
O7 Sc1 1_555 1_555
O8 Sc1 1_555 1_555
H3 O7 1_555 1_555
H4 O7 1_555 1_555
H5 O8 1_555 1_555
H6 O8 1_555 1_555
O9 H7 1_555 1_555
H8 O9 1_555 1_555
O10 H9 1_555 1_555
H10 O10 1_555 1_555
O11 H11 1_555 1_555
H12 O11 1_555 1_555
O5F C7F 1_555 1_555
C7F C7 1_555 1_555
O6F Sc1 1_555 1_555
Sc1F O6 1_555 1_555
N1F Sc1F 1_555 1_555
C1F N1F 1_555 1_555
H1F C1F 1_555 1_555
N2F C1F 1_555 1_555
C2F N2F 1_555 1_555
C3F C2F 1_555 1_555
H2F C3F 1_555 1_555
C4F N1F 1_555 1_555
C5F C4F 1_555 1_555
O1F Sc1F 1_555 1_555
O2F C5F 1_555 1_555
C6F C2F 1_555 1_555
O3F C6F 1_555 1_555
O4F C6F 1_555 1_555
O7F Sc1F 1_555 1_555
O8F Sc1F 1_555 1_555
H3F O7F 1_555 1_555
H4F O7F 1_555 1_555
H5F O8F 1_555 1_555
H6F O8F 1_555 1_555
Sc1C N2 1_555 1_555
Sc1E N2F 1_555 1_555
N2C Sc1 1_555 1_555
N2E Sc1F 1_555 1_555
O3C Sc1 1_555 1_555
O3E Sc1F 1_555 1_555
C3 C4 1_555 1_555
C5 O1 1_555 1_555
O3 Sc1C 1_555 1_555
O5F Sc1F 1_555 1_555
C7F O6F 1_555 1_555
C3F C4F 1_555 1_555
C5F O1F 1_555 1_555
O3F Sc1E 1_555 1_555

#END
