
#######################################################################
#
#                 Cambridge Crystallographic Data Centre
#                                CCDC 
#
#######################################################################
#
# If this CIF has been generated from an entry in the Cambridge 
# Structural Database, then it will include bibliographic, chemical, 
# crystal, experimental, refinement or atomic coordinate data resulting 
# from the CCDC's data processing and validation procedures.
#
#######################################################################

data_KUJMEJ
_symmetry_cell_setting           monoclinic
_symmetry_space_group_name_H-M   'P 21/c'
_symmetry_Int_Tables_number      14
_space_group_name_Hall           '-P 2ybc'
loop_
_symmetry_equiv_pos_site_id
_symmetry_equiv_pos_as_xyz
1 x,y,z
2 -x,1/2+y,1/2-z
3 -x,-y,-z
4 x,1/2-y,1/2+z
_cell_length_a                   10.4163(9)
_cell_length_b                   10.5420(9)
_cell_length_c                   17.0478(15)
_cell_angle_alpha                90
_cell_angle_beta                 95.854(2)
_cell_angle_gamma                90
_cell_volume                     1862.23
loop_
_atom_site_label
_atom_site_type_symbol
_atom_site_fract_x
_atom_site_fract_y
_atom_site_fract_z
C1 C -0.0423(7) 0.2313(7) 0.1137(5)
C2 C -0.1487(6) 0.2813(7) 0.1583(4)
C3 C -0.1220(6) 0.3463(7) 0.2279(4)
H1 H -0.0365 0.3585 0.2482
C4 C -0.2203(6) 0.3941(7) 0.2687(4)
C5 C -0.3467(6) 0.3755(7) 0.2376(4)
H2 H -0.4131 0.4087 0.2638
C6 C -0.3769(6) 0.3088(7) 0.1684(4)
C7 C -0.2773(6) 0.2623(7) 0.1286(4)
H3 H -0.2963 0.2179 0.0817
C8 C -0.5160(7) 0.2829(8) 0.1365(5)
C9 C -0.1899(7) 0.4623(7) 0.3461(4)
C10 C 0.1087(18) 0.5673(16) 0.1147(11)
H4 H 0.0329 0.5157 0.1046
H5 H 0.0838 0.6539 0.1217
H6 H 0.1588 0.5380 0.1616
C11 C 0.3410(15) 0.612(2) 0.0773(12)
H7 H 0.3671 0.5668 0.1253
H8 H 0.3344 0.7008 0.0885
H9 H 0.4038 0.5992 0.0406
C12 C 0.2306(15) 0.2653(12) -0.1551(7)
H10 H 0.1453 0.3008 -0.1595
H11 H 0.2621 0.2640 -0.2061
H12 H 0.2869 0.3161 -0.1197
C13 C 0.3936(9) 0.0838(13) -0.1005(7)
H13 H 0.4335 0.1542 -0.0717
H14 H 0.4299 0.0749 -0.1497
H15 H 0.4084 0.0076 -0.0701
Cd1 Cd 0.24387(4) 0.22521(5) 0.07965(3)
Cd2 Cd 0.0000 0.0000 0.0000
O1 O 0.0701(5) 0.2540(5) 0.1426(3)
O2 O -0.0747(5) 0.1758(5) 0.0498(3)
O3 O -0.6029(5) 0.3142(6) 0.1790(3)
O4 O -0.5371(5) 0.2347(6) 0.0705(3)
O5 O -0.2765(5) 0.5300(6) 0.3689(3)
O6 O -0.0802(5) 0.4427(6) 0.3797(3)
O7 O 0.2111(7) 0.4187(6) 0.0194(4)
O8 O 0.1802(4) 0.1228(5) -0.0376(3)
S1 S 0.1971(5) 0.5575(4) 0.0382(3)
S2 S 0.2261(2) 0.1110(2) -0.11870(13)
C1B C 0.0423(7) -0.2313(7) -0.1137(5)
C2B C 0.1487(6) -0.2813(7) -0.1583(4)
C3B C 0.1220(6) -0.3463(7) -0.2279(4)
H1B H 0.0365 -0.3585 -0.2482
C4B C 0.2203(6) -0.3941(7) -0.2687(4)
C5B C 0.3467(6) -0.3755(7) -0.2376(4)
H2B H 0.4131 -0.4087 -0.2638
C6B C 0.3769(6) -0.3088(7) -0.1684(4)
C7B C 0.2773(6) -0.2623(7) -0.1286(4)
H3B H 0.2963 -0.2179 -0.0817
C8B C 0.5160(7) -0.2829(8) -0.1365(5)
C9B C 0.1899(7) -0.4623(7) -0.3461(4)
C10B C -0.1087(18) -0.5673(16) -0.1147(11)
H4B H -0.0329 -0.5157 -0.1046
H5B H -0.0838 -0.6539 -0.1217
H6B H -0.1588 -0.5380 -0.1616
C11B C -0.3410(15) -0.612(2) -0.0773(12)
H7B H -0.3671 -0.5668 -0.1253
H8B H -0.3344 -0.7008 -0.0885
H9B H -0.4038 -0.5992 -0.0406
C12B C -0.2306(15) -0.2653(12) 0.1551(7)
H10B H -0.1453 -0.3008 0.1595
H11B H -0.2621 -0.2640 0.2061
H12B H -0.2869 -0.3161 0.1197
C13B C -0.3936(9) -0.0838(13) 0.1005(7)
H13B H -0.4335 -0.1542 0.0717
H14B H -0.4299 -0.0749 0.1497
H15B H -0.4084 -0.0076 0.0701
Cd1B Cd -0.24387(4) -0.22521(5) -0.07965(3)
O1B O -0.0701(5) -0.2540(5) -0.1426(3)
O2B O 0.0747(5) -0.1758(5) -0.0498(3)
O3B O 0.6029(5) -0.3142(6) -0.1790(3)
O4B O 0.5371(5) -0.2347(6) -0.0705(3)
O5B O 0.2765(5) -0.5300(6) -0.3689(3)
O6B O 0.0802(5) -0.4427(6) -0.3797(3)
O7B O -0.2111(7) -0.4187(6) -0.0194(4)
O8B O -0.1802(4) -0.1228(5) 0.0376(3)
S1B S -0.1971(5) -0.5575(4) -0.0382(3)
S2B S -0.2261(2) -0.1110(2) 0.11870(13)
Cd1_2 Cd -0.75613(4) 0.22521(5) 0.07965(3)
Cd1A Cd -0.24387(4) 0.72521(5) 0.42035(3)
Cd1B_2 Cd 0.75613(4) -0.22521(5) -0.07965(3)
Cd1C Cd 0.24387(4) -0.72521(5) -0.42035(3)
Cd2A Cd 0.0000 -0.5000 -0.5000
Cd2A_2 Cd 0.0000 0.5000 0.5000
O3_2 O 0.3971(5) 0.3142(6) 0.1790(3)
O3B_2 O -0.3971(5) -0.3142(6) -0.1790(3)
O4_2 O 0.4629(5) 0.2347(6) 0.0705(3)
O4B_2 O -0.4629(5) -0.2347(6) -0.0705(3)
O5A O 0.2765(5) 0.0300(6) 0.1311(3)
O5C O -0.2765(5) -0.0300(6) -0.1311(3)
O6A O 0.0802(5) -0.0573(6) 0.1203(3)
O6C O -0.0802(5) 0.0573(6) -0.1203(3)
loop_
_geom_bond_atom_site_label_1
_geom_bond_atom_site_label_2
_geom_bond_site_symmetry_1
_geom_bond_site_symmetry_2
C1 C2 1_555 1_555
C2 C3 1_555 1_555
C3 H1 1_555 1_555
C4 C3 1_555 1_555
C5 C4 1_555 1_555
H2 C5 1_555 1_555
C6 C5 1_555 1_555
C7 C2 1_555 1_555
H3 C7 1_555 1_555
C8 C6 1_555 1_555
C9 C4 1_555 1_555
C10 H4 1_555 1_555
H5 C10 1_555 1_555
H6 C10 1_555 1_555
C11 H7 1_555 1_555
H8 C11 1_555 1_555
H9 C11 1_555 1_555
C12 H10 1_555 1_555
H11 C12 1_555 1_555
H12 C12 1_555 1_555
C13 H13 1_555 1_555
H14 C13 1_555 1_555
H15 C13 1_555 1_555
Cd1 O1 1_555 1_555
Cd2 O2 1_555 1_555
O1 C1 1_555 1_555
O2 C1 1_555 1_555
O3 C8 1_555 1_555
O4 C8 1_555 1_555
O5 C9 1_555 1_555
O6 C9 1_555 1_555
O7 Cd1 1_555 1_555
O8 Cd1 1_555 1_555
S1 C10 1_555 1_555
S2 C12 1_555 1_555
C1B C2B 1_555 1_555
C2B C3B 1_555 1_555
C3B H1B 1_555 1_555
C4B C3B 1_555 1_555
C5B C4B 1_555 1_555
H2B C5B 1_555 1_555
C6B C5B 1_555 1_555
C7B C2B 1_555 1_555
H3B C7B 1_555 1_555
C8B C6B 1_555 1_555
C9B C4B 1_555 1_555
C10B H4B 1_555 1_555
H5B C10B 1_555 1_555
H6B C10B 1_555 1_555
C11B H7B 1_555 1_555
H8B C11B 1_555 1_555
H9B C11B 1_555 1_555
C12B H10B 1_555 1_555
H11B C12B 1_555 1_555
H12B C12B 1_555 1_555
C13B H13B 1_555 1_555
H14B C13B 1_555 1_555
H15B C13B 1_555 1_555
Cd1B O1B 1_555 1_555
O1B C1B 1_555 1_555
O2B Cd2 1_555 1_555
O3B C8B 1_555 1_555
O4B C8B 1_555 1_555
O5B C9B 1_555 1_555
O6B C9B 1_555 1_555
O7B Cd1B 1_555 1_555
O8B Cd2 1_555 1_555
S1B C10B 1_555 1_555
S2B C12B 1_555 1_555
Cd1_2 O3 1_555 1_555
Cd1A O5 1_555 1_555
Cd1B_2 O3B 1_555 1_555
Cd1C O5B 1_555 1_555
Cd2A O6B 1_555 1_555
Cd2A_2 O6 1_555 1_555
O3_2 Cd1 1_555 1_555
O3B_2 Cd1B 1_555 1_555
O4_2 Cd1 1_555 1_555
O4B_2 Cd1B 1_555 1_555
O5A Cd1 1_555 1_555
O5C Cd1B 1_555 1_555
O6A Cd2 1_555 1_555
O6C Cd2 1_555 1_555
C6 C7 1_555 1_555
C11 S1 1_555 1_555
C13 S2 1_555 1_555
Cd2 O8 1_555 1_555
O4 Cd1_2 1_555 1_555
O7 S1 1_555 1_555
O8 S2 1_555 1_555
C1B O2B 1_555 1_555
C6B C7B 1_555 1_555
C11B S1B 1_555 1_555
C13B S2B 1_555 1_555
Cd1B O8B 1_555 1_555
O4B Cd1B_2 1_555 1_555
O7B S1B 1_555 1_555
O8B S2B 1_555 1_555

#END
