
#######################################################################
#
#                 Cambridge Crystallographic Data Centre
#                                CCDC 
#
#######################################################################
#
# If this CIF has been generated from an entry in the Cambridge 
# Structural Database, then it will include bibliographic, chemical, 
# crystal, experimental, refinement or atomic coordinate data resulting 
# from the CCDC's data processing and validation procedures.
#
#######################################################################

data_KUJWUJ
_symmetry_cell_setting           monoclinic
_symmetry_space_group_name_H-M   'P 21/c'
_symmetry_Int_Tables_number      14
_space_group_name_Hall           '-P 2ybc'
loop_
_symmetry_equiv_pos_site_id
_symmetry_equiv_pos_as_xyz
1 x,y,z
2 -x,1/2+y,1/2-z
3 -x,-y,-z
4 x,1/2-y,1/2+z
_cell_length_a                   16.3375(16)
_cell_length_b                   9.1644(9)
_cell_length_c                   20.670(2)
_cell_angle_alpha                90
_cell_angle_beta                 95.8940(10)
_cell_angle_gamma                90
_cell_volume                     3078.42
loop_
_atom_site_label
_atom_site_type_symbol
_atom_site_fract_x
_atom_site_fract_y
_atom_site_fract_z
Br1 Br 0.82875(4) -0.03891(6) 0.37092(3)
Br2 Br 0.76438(4) 0.42793(7) 0.42393(3)
Br3 Br 0.62640(4) -0.03292(7) 0.06964(3)
Br4 Br 0.76978(4) 0.36912(6) 0.04901(3)
C1 C 0.9321(3) 0.0189(6) 0.1513(3)
C2 C 0.8436(3) 0.1902(6) 0.1972(3)
H1 H 0.8499 0.2891 0.1792
H2 H 0.8833 0.1804 0.2365
C3 C 0.7563(3) 0.1721(6) 0.2161(3)
H3 H 0.7165 0.1716 0.1766
H4 H 0.7514 0.0783 0.2391
C4 C 0.7375(3) 0.2975(6) 0.2599(3)
H5 H 0.7492 0.3900 0.2379
H6 H 0.7755 0.2916 0.3003
C5 C 0.6493(3) 0.3030(6) 0.2783(3)
H7 H 0.6391 0.4003 0.2966
H8 H 0.6107 0.2906 0.2385
C6 C 0.5607(3) 0.1300(5) 0.3234(2)
C7 C 1.0018(3) 0.0454(6) 0.2038(3)
C8 C 0.9953(4) 0.0000(7) 0.2670(3)
H9 H 0.9485 -0.0537 0.2770
C9 C 1.0572(4) 0.0333(7) 0.3153(3)
H10 H 1.0526 0.0032 0.3588
C10 C 1.1257(4) 0.1101(7) 0.3009(3)
H11 H 1.1677 0.1332 0.3346
C11 C 1.1335(4) 0.1533(7) 0.2382(3)
H12 H 1.1810 0.2051 0.2283
C12 C 1.0705(4) 0.1201(6) 0.1888(3)
H13 H 1.0753 0.1492 0.1452
C13 C 0.9463(3) -0.0860(6) 0.0981(3)
C14 C 1.0189(4) -0.1634(6) 0.0971(3)
H14 H 1.0624 -0.1501 0.1307
C15 C 1.0278(4) -0.2606(7) 0.0468(3)
H15 H 1.0779 -0.3121 0.0446
C16 C 0.9616(4) -0.2809(8) -0.0002(3)
H16 H 0.9647 -0.3485 -0.0347
C17 C 0.8914(4) -0.1998(8) 0.0048(3)
H17 H 0.8460 -0.2132 -0.0273
C18 C 0.4921(3) 0.1591(5) 0.2709(3)
C19 C 0.4245(3) 0.2396(6) 0.2848(3)
H18 H 0.4213 0.2767 0.3274
C20 C 0.3612(4) 0.2658(6) 0.2359(3)
H19 H 0.3152 0.3226 0.2452
C21 C 0.3642(4) 0.2105(7) 0.1741(3)
H20 H 0.3203 0.2286 0.1412
C22 C 0.4317(4) 0.1283(6) 0.1603(3)
H21 H 0.4340 0.0889 0.1180
C23 C 0.4960(3) 0.1038(6) 0.2088(3)
H22 H 0.5427 0.0491 0.1994
C24 C 0.5445(3) 0.0260(6) 0.3760(2)
C25 C 0.4693(3) -0.0458(6) 0.3761(3)
H23 H 0.4257 -0.0253 0.3433
C26 C 0.4583(4) -0.1471(6) 0.4240(3)
H24 H 0.4076 -0.1975 0.4246
C27 C 0.5232(4) -0.1733(7) 0.4711(3)
H25 H 0.5181 -0.2440 0.5041
C28 C 0.5952(4) -0.0956(7) 0.4697(3)
H26 H 0.6388 -0.1126 0.5028
Hg1 Hg 0.728698(13) 0.13654(3) 0.417047(11)
Hg2 Hg 0.769660(13) 0.05486(2) 0.055876(10)
N1 N 0.8622(3) 0.0818(5) 0.1494(2)
N2 N 0.8840(3) -0.1040(7) 0.0519(2)
N3 N 0.6319(3) 0.1914(5) 0.3254(2)
N4 N 0.6062(3) 0.0032(5) 0.4233(2)
Br2C Br 0.76438(4) 0.07207(7) -0.07607(3)
Br4C Br 0.76978(4) 0.13088(6) 0.54901(3)
Hg1C Hg 0.728698(13) 0.36346(3) -0.082953(11)
Hg2C Hg 0.769660(13) 0.44514(2) 0.555876(10)
loop_
_geom_bond_atom_site_label_1
_geom_bond_atom_site_label_2
_geom_bond_site_symmetry_1
_geom_bond_site_symmetry_2
Br1 Hg1 1_555 1_555
Br2 Hg1 1_555 1_555
Br3 Hg2 1_555 1_555
Br4 Hg2 1_555 1_555
C1 C7 1_555 1_555
C2 H1 1_555 1_555
H2 C2 1_555 1_555
C3 C2 1_555 1_555
H3 C3 1_555 1_555
H4 C3 1_555 1_555
C4 C3 1_555 1_555
H5 C4 1_555 1_555
H6 C4 1_555 1_555
C5 C4 1_555 1_555
H7 C5 1_555 1_555
H8 C5 1_555 1_555
C6 C18 1_555 1_555
C7 C8 1_555 1_555
C8 H9 1_555 1_555
C9 C8 1_555 1_555
H10 C9 1_555 1_555
C10 C9 1_555 1_555
H11 C10 1_555 1_555
C11 C10 1_555 1_555
H12 C11 1_555 1_555
C12 C7 1_555 1_555
H13 C12 1_555 1_555
C13 C1 1_555 1_555
C14 C13 1_555 1_555
H14 C14 1_555 1_555
C15 C14 1_555 1_555
H15 C15 1_555 1_555
C16 C15 1_555 1_555
H16 C16 1_555 1_555
C17 C16 1_555 1_555
H17 C17 1_555 1_555
C18 C19 1_555 1_555
C19 H18 1_555 1_555
C20 C19 1_555 1_555
H19 C20 1_555 1_555
C21 C20 1_555 1_555
H20 C21 1_555 1_555
C22 C21 1_555 1_555
H21 C22 1_555 1_555
C23 C18 1_555 1_555
H22 C23 1_555 1_555
C24 C6 1_555 1_555
C25 C24 1_555 1_555
H23 C25 1_555 1_555
C26 C25 1_555 1_555
H24 C26 1_555 1_555
C27 C26 1_555 1_555
H25 C27 1_555 1_555
C28 C27 1_555 1_555
H26 C28 1_555 1_555
Hg1 N3 1_555 1_555
Hg2 N1 1_555 1_555
N1 C1 1_555 1_555
N2 C13 1_555 1_555
N3 C5 1_555 1_555
N4 C24 1_555 1_555
Br2C Hg2 1_555 1_555
Br4C Hg1 1_555 1_555
Hg1C Br4 1_555 1_555
Hg2C Br2 1_555 1_555
C2 N1 1_555 1_555
C6 N3 1_555 1_555
C11 C12 1_555 1_555
C17 N2 1_555 1_555
C22 C23 1_555 1_555
C28 N4 1_555 1_555
Hg1 N4 1_555 1_555
Hg2 N2 1_555 1_555
Br2C Hg1C 1_555 1_555
Br4C Hg2C 1_555 1_555

#END
