
#######################################################################
#
#                 Cambridge Crystallographic Data Centre
#                                CCDC 
#
#######################################################################
#
# If this CIF has been generated from an entry in the Cambridge 
# Structural Database, then it will include bibliographic, chemical, 
# crystal, experimental, refinement or atomic coordinate data resulting 
# from the CCDC's data processing and validation procedures.
#
#######################################################################

data_KUJYIX
_symmetry_cell_setting           monoclinic
_symmetry_space_group_name_H-M   'C 2/c'
_symmetry_Int_Tables_number      15
_space_group_name_Hall           '-C 2yn'
loop_
_symmetry_equiv_pos_site_id
_symmetry_equiv_pos_as_xyz
1 x,y,z
2 1/2+x,1/2+y,z
3 -x,y,1/2-z
4 1/2-x,1/2+y,1/2-z
5 -x,-y,-z
6 1/2-x,1/2-y,-z
7 x,-y,1/2+z
8 1/2+x,1/2-y,1/2+z
_cell_length_a                   9.790(2)
_cell_length_b                   12.662(3)
_cell_length_c                   11.109(2)
_cell_angle_alpha                90
_cell_angle_beta                 103.9
_cell_angle_gamma                90
_cell_volume                     1336.76
loop_
_atom_site_label
_atom_site_type_symbol
_atom_site_fract_x
_atom_site_fract_y
_atom_site_fract_z
Cu1 Cu 0.0000 0.0000 0.0000
N1 N -0.0751(3) 0.1452(2) -0.0594(2)
C1 C -0.1254(4) 0.1671(3) -0.1788(3)
C2 C -0.1576(4) 0.2691(3) -0.224(3)
C3 C -0.1377(4) 0.3501(3) -0.1388(4)
C4 C -0.0898(4) 0.3292(2) -0.0126(3)
C5 C -0.0604(3) 0.2259(2) 0.0234(3)
C6 C -0.0219(3) 0.1906(2) 0.1514(3)
O1 O 0.0000 0.2581(2) 0.2500
N2 N -0.0240(3) 0.0928(2) 0.1852(2)
Cl1 Cl -0.2252(1) -0.0634(1) -0.0190(1)
H1 H -0.135(4) 0.112(3) -0.231(4)
H2 H -0.188(4) 0.278(3) -0.308(4)
H3 H -0.159(4) 0.417(3) -0.158(4)
H4 H -0.078(4) 0.379(3) 0.047(4)
C6B C 0.0219(3) 0.1906(2) 0.3486(3)
C5B C 0.0604(3) 0.2259(2) 0.4766(3)
N1B N 0.0751(3) 0.1452(2) 0.5594(2)
C1B C 0.1254(4) 0.1671(3) 0.6788(3)
C2B C 0.1576(4) 0.2691(3) 0.724(3)
C3B C 0.1377(4) 0.3501(3) 0.6388(4)
C4B C 0.0898(4) 0.3292(2) 0.5126(3)
H4B H 0.078(4) 0.379(3) 0.453(4)
H3B H 0.159(4) 0.417(3) 0.658(4)
H2B H 0.188(4) 0.278(3) 0.808(4)
H1B H 0.135(4) 0.112(3) 0.731(4)
N2B N 0.0240(3) 0.0928(2) 0.3148(2)
Cl1D Cl 0.2252(1) 0.0634(1) 0.0190(1)
N1D N 0.0751(3) -0.1452(2) 0.0594(2)
N2D N 0.0240(3) -0.0928(2) -0.1852(2)
Cu1B Cu 0.0000 0.0000 0.5000
loop_
_geom_bond_atom_site_label_1
_geom_bond_atom_site_label_2
_geom_bond_site_symmetry_1
_geom_bond_site_symmetry_2
Cu1 N1 1_555 1_555
N1 C1 1_555 1_555
C1 C2 1_555 1_555
C2 C3 1_555 1_555
C3 C4 1_555 1_555
C4 C5 1_555 1_555
C5 N1 1_555 1_555
C6 C5 1_555 1_555
O1 C6 1_555 1_555
N2 Cu1 1_555 1_555
Cl1 Cu1 1_555 1_555
H1 C1 1_555 1_555
H2 C2 1_555 1_555
H3 C3 1_555 1_555
H4 C4 1_555 1_555
C6B O1 1_555 1_555
C5B C6B 1_555 1_555
N1B C5B 1_555 1_555
C1B N1B 1_555 1_555
C2B C1B 1_555 1_555
C3B C2B 1_555 1_555
C4B C5B 1_555 1_555
H4B C4B 1_555 1_555
H3B C3B 1_555 1_555
H2B C2B 1_555 1_555
H1B C1B 1_555 1_555
N2B N2 1_555 1_555
Cl1D Cu1 1_555 1_555
N1D Cu1 1_555 1_555
N2D Cu1 1_555 1_555
Cu1B N1B 1_555 1_555
C6 N2 1_555 1_555
C6B N2B 1_555 1_555
C3B C4B 1_555 1_555
N2B Cu1B 1_555 1_555

#END
