
#######################################################################
#
#                 Cambridge Crystallographic Data Centre
#                                CCDC 
#
#######################################################################
#
# If this CIF has been generated from an entry in the Cambridge 
# Structural Database, then it will include bibliographic, chemical, 
# crystal, experimental, refinement or atomic coordinate data resulting 
# from the CCDC's data processing and validation procedures.
#
#######################################################################

data_KUJYIX01
_symmetry_cell_setting           monoclinic
_symmetry_space_group_name_H-M   'C 2/c'
_symmetry_Int_Tables_number      15
_space_group_name_Hall           '-C 2yn'
loop_
_symmetry_equiv_pos_site_id
_symmetry_equiv_pos_as_xyz
1 x,y,z
2 1/2+x,1/2+y,z
3 x,-y,1/2+z
4 1/2+x,1/2-y,1/2+z
5 -x,-y,-z
6 1/2-x,1/2-y,-z
7 -x,y,1/2-z
8 1/2-x,1/2+y,1/2-z
_cell_length_a                   9.812(2)
_cell_length_b                   12.679(3)
_cell_length_c                   11.111(2)
_cell_angle_alpha                90
_cell_angle_beta                 103.92(3)
_cell_angle_gamma                90
_cell_volume                     1341.68
loop_
_atom_site_label
_atom_site_type_symbol
_atom_site_fract_x
_atom_site_fract_y
_atom_site_fract_z
Cu1 Cu 0.0000 0.5000 0.0000
Cl1 Cl -0.22514(8) 0.43657(6) -0.01900(8)
O1 O 0.0000 0.2419(2) -0.2500
N1 N 0.0744(2) 0.35449(18) 0.0590(2)
N2 N 0.0136(3) 0.40712(17) -0.1859(2)
C1 C 0.1246(3) 0.3331(3) 0.1792(3)
H1 H 0.1375 0.3884 0.2359
C2 C 0.1579(3) 0.2318(3) 0.2226(3)
H2 H 0.1927 0.2190 0.3068
C3 C 0.1384(3) 0.1505(3) 0.1384(3)
H3 H 0.1579 0.0816 0.1657
C4 C 0.0899(3) 0.1707(2) 0.0131(3)
H4 H 0.0774 0.1166 -0.0451
C5 C 0.0606(3) 0.2748(2) -0.0228(3)
C6 C 0.0222(3) 0.3092(2) -0.1515(3)
Cl1D Cl 0.22514(8) 0.56343(6) 0.01900(8)
C6F C -0.0222(3) 0.3092(2) -0.3485(3)
N2F N -0.0136(3) 0.40712(17) -0.3141(2)
Cu1F Cu 0.0000 0.5000 -0.5000
N1F N -0.0744(2) 0.35449(18) -0.5590(2)
C1F C -0.1246(3) 0.3331(3) -0.6792(3)
H1F H -0.1375 0.3884 -0.7359
C2F C -0.1579(3) 0.2318(3) -0.7226(3)
H2F H -0.1927 0.2190 -0.8068
C3F C -0.1384(3) 0.1505(3) -0.6384(3)
H3F H -0.1579 0.0816 -0.6657
C4F C -0.0899(3) 0.1707(2) -0.5131(3)
H4F H -0.0774 0.1166 -0.4549
C5F C -0.0606(3) 0.2748(2) -0.4772(3)
N1D N -0.0744(2) 0.64551(18) -0.0590(2)
N2D N -0.0136(3) 0.59288(17) 0.1859(2)
loop_
_geom_bond_atom_site_label_1
_geom_bond_atom_site_label_2
_geom_bond_site_symmetry_1
_geom_bond_site_symmetry_2
Cu1 Cl1 1_555 1_555
O1 C6 1_555 1_555
N1 Cu1 1_555 1_555
N2 Cu1 1_555 1_555
C1 N1 1_555 1_555
H1 C1 1_555 1_555
C2 C1 1_555 1_555
H2 C2 1_555 1_555
C3 C2 1_555 1_555
H3 C3 1_555 1_555
C4 C3 1_555 1_555
H4 C4 1_555 1_555
C5 N1 1_555 1_555
C6 N2 1_555 1_555
Cl1D Cu1 1_555 1_555
C6F O1 1_555 1_555
N2F N2 1_555 1_555
Cu1F N2F 1_555 1_555
N1F Cu1F 1_555 1_555
C1F N1F 1_555 1_555
H1F C1F 1_555 1_555
C2F C1F 1_555 1_555
H2F C2F 1_555 1_555
C3F C2F 1_555 1_555
H3F C3F 1_555 1_555
C4F C3F 1_555 1_555
H4F C4F 1_555 1_555
C5F C6F 1_555 1_555
N1D Cu1 1_555 1_555
N2D Cu1 1_555 1_555
C4 C5 1_555 1_555
C5 C6 1_555 1_555
C6F N2F 1_555 1_555
N1F C5F 1_555 1_555
C4F C5F 1_555 1_555

#END
