
#######################################################################
#
#                 Cambridge Crystallographic Data Centre
#                                CCDC 
#
#######################################################################
#
# If this CIF has been generated from an entry in the Cambridge 
# Structural Database, then it will include bibliographic, chemical, 
# crystal, experimental, refinement or atomic coordinate data resulting 
# from the CCDC's data processing and validation procedures.
#
#######################################################################

data_KUKHEF
_symmetry_cell_setting           triclinic
_symmetry_space_group_name_H-M   'P -1'
_symmetry_Int_Tables_number      2
_space_group_name_Hall           '-P 1'
loop_
_symmetry_equiv_pos_site_id
_symmetry_equiv_pos_as_xyz
1 x,y,z
2 -x,-y,-z
_cell_length_a                   10.2824(3)
_cell_length_b                   14.3227(4)
_cell_length_c                   17.9095(5)
_cell_angle_alpha                67.6000(10)
_cell_angle_beta                 84.5890(10)
_cell_angle_gamma                73.7040(10)
_cell_volume                     2340.34
loop_
_atom_site_label
_atom_site_type_symbol
_atom_site_fract_x
_atom_site_fract_y
_atom_site_fract_z
Zn1 Zn 0.60502(3) -0.05873(3) 0.06205(2)
Zn2 Zn -0.44106(3) -0.39086(3) 0.42621(2)
O1 O -0.2126(2) -0.37304(17) 0.47753(15)
O2 O -0.3626(2) -0.27323(18) 0.37973(15)
O3 O 0.4683(3) 0.0023(2) 0.13282(16)
O4 O 0.3100(3) 0.0933(2) 0.03662(16)
O5 O -0.3255(2) 0.48236(17) 0.41583(16)
O6 O -0.4765(2) 0.39251(18) 0.47035(14)
O7 O 0.3619(2) -0.08577(18) -0.00374(16)
O8 O 0.5184(3) -0.17782(18) 0.09275(15)
O9 O -0.4154(3) -0.4090(2) 0.00221(17)
H1 H -0.4823 -0.4175 -0.0132
O10 O -0.3736(3) -0.5815(2) 0.06647(18)
O11 O 0.3933(3) -0.8804(2) 0.48068(16)
H2 H 0.4379 -0.9357 0.5131
O12 O 0.4906(3) -0.9538(2) 0.39420(16)
N1 N 1.3875(3) -0.3391(2) 0.35717(17)
N2 N 0.7760(3) -0.1252(2) 0.13112(16)
N3 N -0.0452(3) 0.0621(2) 0.35235(18)
N4 N 0.1663(3) -0.5040(2) 0.15253(17)
C1 C 1.3570(4) -0.2427(3) 0.3014(2)
H3 H 1.4188 -0.2030 0.2920
C2 C 1.2393(4) -0.1992(3) 0.2571(2)
H4 H 1.2224 -0.1312 0.2190
C3 C 1.1447(3) -0.2557(2) 0.2687(2)
C4 C 1.1771(3) -0.3554(3) 0.3269(2)
H5 H 1.1169 -0.3967 0.3376
C5 C 1.2965(3) -0.3940(3) 0.3689(2)
H6 H 1.3156 -0.4617 0.4075
C6 C 1.0174(3) -0.2115(2) 0.2206(2)
C7 C 0.9967(4) -0.1199(3) 0.1537(3)
H7 H 1.0647 -0.0853 0.1371
C8 C 0.8767(4) -0.0797(3) 0.1117(3)
H8 H 0.8651 -0.0172 0.0672
C9 C 0.7963(3) -0.2153(3) 0.1944(2)
H9 H 0.7276 -0.2493 0.2086
C10 C 0.9135(3) -0.2602(3) 0.2394(2)
H10 H 0.9234 -0.3237 0.2827
C11 C -0.2581(3) -0.2892(2) 0.4216(2)
C12 C -0.1969(3) -0.1995(2) 0.39993(19)
C13 C -0.0809(3) -0.2091(3) 0.4388(2)
H11 H -0.0359 -0.2739 0.4759
C14 C -0.0315(3) -0.1237(3) 0.4231(2)
H12 H 0.0458 -0.1307 0.4501
C15 C -0.0964(3) -0.0280(2) 0.3676(2)
C16 C -0.2075(3) -0.0181(2) 0.3259(2)
H13 H -0.2485 0.0461 0.2865
C17 C -0.2592(3) -0.1032(2) 0.3418(2)
H14 H -0.3354 -0.0959 0.3138
C18 C 0.3514(3) 0.0562(3) 0.1085(2)
C19 C 0.2485(3) 0.0734(2) 0.1711(2)
C20 C 0.1126(4) 0.1159(3) 0.1503(2)
H15 H 0.0856 0.1437 0.0963
C21 C 0.0170(4) 0.1170(3) 0.2094(2)
H16 H -0.0742 0.1464 0.1950
C22 C 0.0548(3) 0.0751(2) 0.2901(2)
C23 C 0.1899(4) 0.0382(3) 0.3105(2)
H17 H 0.2169 0.0137 0.3642
C24 C 0.2866(4) 0.0372(3) 0.2510(2)
H18 H 0.3781 0.0118 0.2652
C25 C -0.2800(3) 0.3126(2) 0.4143(2)
C26 C -0.3101(3) 0.2162(3) 0.4436(2)
H19 H -0.3838 0.2074 0.4774
C27 C -0.2333(3) 0.1339(2) 0.4239(2)
H20 H -0.2540 0.0696 0.4454
C28 C -0.1244(3) 0.1458(2) 0.3718(2)
C29 C -0.0920(4) 0.2420(3) 0.3432(2)
H21 H -0.0182 0.2512 0.3095
C30 C -0.1692(3) 0.3232(3) 0.3648(2)
H22 H -0.1462 0.3866 0.3457
C31 C 0.4155(3) -0.1673(3) 0.0541(2)
C32 C 0.3543(3) -0.2564(2) 0.0790(2)
C33 C 0.2457(4) -0.2515(3) 0.0351(2)
H23 H 0.2131 -0.1921 -0.0105
C34 C 0.1864(4) -0.3322(3) 0.0576(2)
H24 H 0.1164 -0.3276 0.0260
C35 C 0.2284(3) -0.4214(2) 0.1271(2)
C36 C 0.3382(4) -0.4274(3) 0.1702(2)
H25 H 0.3703 -0.4865 0.2161
C37 C 0.4001(3) -0.3469(3) 0.1458(2)
H26 H 0.4745 -0.3535 0.1750
C38 C -0.3432(4) -0.4964(3) 0.0477(2)
C39 C -0.2145(4) -0.4967(3) 0.0784(2)
C40 C -0.1128(4) -0.5881(3) 0.1062(2)
H27 H -0.1288 -0.6504 0.1096
C41 C 0.0116(4) -0.5898(3) 0.1291(2)
H28 H 0.0797 -0.6523 0.1457
C42 C 0.0366(3) -0.4980(3) 0.1274(2)
C43 C -0.0682(4) -0.4067(3) 0.1034(2)
H29 H -0.0557 -0.3457 0.1050
C44 C -0.1907(4) -0.4054(3) 0.0771(2)
H30 H -0.2581 -0.3427 0.0582
C45 C 0.4162(3) -0.8794(3) 0.4112(2)
C46 C 0.3533(3) -0.7804(2) 0.3429(2)
C47 C 0.4008(4) -0.7627(3) 0.2652(2)
H31 H 0.4733 -0.8121 0.2551
C48 C 0.3406(4) -0.6716(3) 0.2025(2)
H32 H 0.3734 -0.6590 0.1503
C49 C 0.2318(3) -0.5994(2) 0.2174(2)
C50 C 0.1830(4) -0.6171(3) 0.2942(2)
H33 H 0.1087 -0.5686 0.3039
C51 C 0.2447(4) -0.7067(3) 0.3567(2)
H34 H 0.2130 -0.7180 0.4089
C52 C -0.3659(3) 0.4008(2) 0.4355(2)
Zn1A Zn 0.39498(3) 0.05873(3) -0.06205(2)
Zn2_2 Zn -0.44106(3) 0.60914(3) 0.42621(2)
Zn2_3 Zn 1.55894(3) -0.39086(3) 0.42621(2)
Zn2A Zn -0.55894(3) 0.39086(3) 0.57379(2)
O4A O 0.6900(3) -0.0933(2) -0.03662(16)
O5_2 O -0.3255(2) -0.51764(17) 0.41583(16)
O6A O -0.5235(2) -0.39251(18) 0.52965(14)
O7A O 0.6381(2) 0.08577(18) 0.00374(16)
N1_2 N -0.6125(3) -0.3391(2) 0.35717(17)
O13 O 0.0143(3) 0.5180(2) 0.58896(17)
O14 O -0.3497(9) 0.1674(7) 0.1486(4)
loop_
_geom_bond_atom_site_label_1
_geom_bond_atom_site_label_2
_geom_bond_site_symmetry_1
_geom_bond_site_symmetry_2
Zn1 O3 1_555 1_555
Zn2 O2 1_555 1_555
O1 C11 1_555 1_555
O2 C11 1_555 1_555
O3 C18 1_555 1_555
O4 C18 1_555 1_555
O5 C52 1_555 1_555
O6 C52 1_555 1_555
O7 C31 1_555 1_555
O8 Zn1 1_555 1_555
O9 H1 1_555 1_555
O10 C38 1_555 1_555
O11 H2 1_555 1_555
O12 C45 1_555 1_555
N1 C1 1_555 1_555
N2 Zn1 1_555 1_555
N3 C15 1_555 1_555
N4 C35 1_555 1_555
C1 H3 1_555 1_555
C2 C1 1_555 1_555
H4 C2 1_555 1_555
C3 C2 1_555 1_555
C4 C3 1_555 1_555
H5 C4 1_555 1_555
C5 N1 1_555 1_555
H6 C5 1_555 1_555
C6 C3 1_555 1_555
C7 C6 1_555 1_555
H7 C7 1_555 1_555
C8 N2 1_555 1_555
H8 C8 1_555 1_555
C9 N2 1_555 1_555
H9 C9 1_555 1_555
C10 C6 1_555 1_555
H10 C10 1_555 1_555
C11 C12 1_555 1_555
C12 C13 1_555 1_555
C13 H11 1_555 1_555
C14 C13 1_555 1_555
H12 C14 1_555 1_555
C15 C14 1_555 1_555
C16 C15 1_555 1_555
H13 C16 1_555 1_555
C17 C12 1_555 1_555
H14 C17 1_555 1_555
C18 C19 1_555 1_555
C19 C20 1_555 1_555
C20 H15 1_555 1_555
C21 C20 1_555 1_555
H16 C21 1_555 1_555
C22 N3 1_555 1_555
C23 C22 1_555 1_555
H17 C23 1_555 1_555
C24 C19 1_555 1_555
H18 C24 1_555 1_555
C25 C26 1_555 1_555
C26 H19 1_555 1_555
C27 C26 1_555 1_555
H20 C27 1_555 1_555
C28 N3 1_555 1_555
C29 C28 1_555 1_555
H21 C29 1_555 1_555
C30 C25 1_555 1_555
H22 C30 1_555 1_555
C31 O8 1_555 1_555
C32 C31 1_555 1_555
C33 C32 1_555 1_555
H23 C33 1_555 1_555
C34 C33 1_555 1_555
H24 C34 1_555 1_555
C35 C34 1_555 1_555
C36 C35 1_555 1_555
H25 C36 1_555 1_555
C37 C32 1_555 1_555
H26 C37 1_555 1_555
C38 O9 1_555 1_555
C39 C38 1_555 1_555
C40 C39 1_555 1_555
H27 C40 1_555 1_555
C41 C40 1_555 1_555
H28 C41 1_555 1_555
C42 N4 1_555 1_555
C43 C42 1_555 1_555
H29 C43 1_555 1_555
C44 C39 1_555 1_555
H30 C44 1_555 1_555
C45 O11 1_555 1_555
C46 C45 1_555 1_555
C47 C46 1_555 1_555
H31 C47 1_555 1_555
C48 C47 1_555 1_555
H32 C48 1_555 1_555
C49 N4 1_555 1_555
C50 C49 1_555 1_555
H33 C50 1_555 1_555
C51 C46 1_555 1_555
H34 C51 1_555 1_555
C52 C25 1_555 1_555
Zn1A O4 1_555 1_555
Zn2_2 O5 1_555 1_555
Zn2_3 N1 1_555 1_555
Zn2A O6 1_555 1_555
O4A Zn1 1_555 1_555
O5_2 Zn2 1_555 1_555
O6A Zn2 1_555 1_555
O7A Zn1 1_555 1_555
N1_2 Zn2 1_555 1_555
O7 Zn1A 1_555 1_555
C4 C5 1_555 1_555
C7 C8 1_555 1_555
C9 C10 1_555 1_555
C16 C17 1_555 1_555
C21 C22 1_555 1_555
C23 C24 1_555 1_555
C27 C28 1_555 1_555
C29 C30 1_555 1_555
C36 C37 1_555 1_555
C41 C42 1_555 1_555
C43 C44 1_555 1_555
C48 C49 1_555 1_555
C50 C51 1_555 1_555

#END
