
#######################################################################
#
#                 Cambridge Crystallographic Data Centre
#                                CCDC 
#
#######################################################################
#
# If this CIF has been generated from an entry in the Cambridge 
# Structural Database, then it will include bibliographic, chemical, 
# crystal, experimental, refinement or atomic coordinate data resulting 
# from the CCDC's data processing and validation procedures.
#
#######################################################################

data_KUKMOS
_symmetry_cell_setting           triclinic
_symmetry_space_group_name_H-M   'P -1'
_symmetry_Int_Tables_number      2
_space_group_name_Hall           '-P 1'
loop_
_symmetry_equiv_pos_site_id
_symmetry_equiv_pos_as_xyz
1 x,y,z
2 -x,-y,-z
_cell_length_a                   11.669(5)
_cell_length_b                   14.471(2)
_cell_length_c                   8.963(1)
_cell_angle_alpha                103.96(1)
_cell_angle_beta                 96.743(2)
_cell_angle_gamma                70.237(2)
_cell_volume                     1381.23
loop_
_atom_site_label
_atom_site_type_symbol
_atom_site_fract_x
_atom_site_fract_y
_atom_site_fract_z
Ru1 Ru 0.08268(4) 0.43532(3) 0.02463(5)
Ru2 Ru 0.49008(4) 0.03605(3) 0.39757(5)
O1 O -0.0306(4) 0.3688(3) 0.0721(5)
O2 O 0.0789(4) 0.5042(3) 0.24835
O3 O -0.1920(4) 0.4943(3) 0.0230(5)
O4 O -0.0833(4) 0.6311(3) 0.2020(5)
O5 O 0.4514(4) 0.1713(3) 0.5424(5)
O6 O 0.3118(3) 0.0497(93) 0.3807(5)
O7 O 0.4695(4) 0.1012(3) 0.7437(4)
O8 O 0.3322(3) -0.0215(3) 0.5813(5)
N1 N 0.2516(4) 0.2950(3) 0.0891(6)
N2 N 0.4279(4) 0.1352(3) 0.1993(6)
C1 C -0.1443(6) 0.4101(5) 0.0617(8)
C2 C -0.0032(6) 0.5876(4) 0.2936(8)
C3 C -0.2285(7) 0.3612(5) 0.098(1)
C4 C -0.1671(18) 0.2555(6) 0.123(1)
C5 C -0.0090(7) 0.6361(6) 0.4590(8)
C6 C 0.1281(8) 0.6169(7) 0.474(1)
C7 C 0.4503(5) 0.1772(4) 0.6854(7)
C8 C 0.2667(5) 0.0198(4) 0.4747(7)
C9 C 0.4253(8) 0.2775(5) 0.7961(9)
C10 C 0.4329(8) 0.3633(5) 0.730(1)
C11 C 0.1345(6) 0.0360(5) 0.4635(8)
C12 C 0.0741(6) 0.0539(6) 0.3073(9)
C13 C 0.2506(5) 0.1987(4) 0.0406(7)
C14 C 0.1577(6) 0.1773(5) -0.0651(8)
C15 C 0.1557(6) 0.0813(5) -0.1136(8)
C16 C 0.2466(6) 0.0013(5) -0.0619(8)
C17 C 0.3350(6) 0.0186(4) 0.0415(7)
C18 C 0.3388(5) 0.1187(4) 0.0967(6)
C19 C 0.4394(5) 0.2273(4) 0.2331(6)
C20 C 0.5423(5) 0.2437(5) 0.3216(7)
C21 C 0.5532(6) 0.3379(4) 0.3584(8)
C22 C 0.4604(6) 0.4194(4) 0.3127(8)
C23 C 0.3609(6) 0.4066(4) 0.2279(8)
C24 C 0.3489(5) 0.3088(4) 0.1799(7)
Ru1A Ru -0.08268(4) 0.56468(3) -0.02463(5)
Ru2A Ru 0.50992(4) -0.03605(3) 0.60243(5)
O3A O 0.1920(4) 0.5057(3) -0.0230(5)
O4A O 0.0833(4) 0.3689(3) -0.2020(5)
O7A O 0.5305(4) -0.1012(3) 0.2563(4)
O8A O 0.6678(3) 0.0215(3) 0.4187(5)
F1 F 0.9125(5) 0.2157(5) 0.7301(7)
F2 F 0.7469(6) 0.3449(4) 0.6968(9)
F3 F 0.7289(5) 0.1976(4) 0.7098(7)
F4 F 0.8101(5) 0.2134(4) 0.5081(6)
B1 B 0.7981(8) 0.2440(7) 0.664(1)
loop_
_geom_bond_atom_site_label_1
_geom_bond_atom_site_label_2
_geom_bond_site_symmetry_1
_geom_bond_site_symmetry_2
Ru1 O1 1_555 1_555
Ru2 O5 1_555 1_555
F1 B1 1_555 1_555
F2 B1 1_555 1_555
F3 B1 1_555 1_555
F4 B1 1_555 1_555
O1 C1 1_555 1_555
O2 Ru1 1_555 1_555
O3 C1 1_555 1_555
O4 C2 1_555 1_555
O5 C7 1_555 1_555
O6 Ru2 1_555 1_555
O7 C7 1_555 1_555
O8 C8 1_555 1_555
N1 Ru1 1_555 1_555
N2 Ru2 1_555 1_555
C1 C3 1_555 1_555
C2 O2 1_555 1_555
C3 C4 1_555 1_555
C5 C2 1_555 1_555
C6 C5 1_555 1_555
C7 C9 1_555 1_555
C8 O6 1_555 1_555
C9 C10 1_555 1_555
C11 C8 1_555 1_555
C12 C11 1_555 1_555
C13 N1 1_555 1_555
C14 C13 1_555 1_555
C15 C14 1_555 1_555
C16 C15 1_555 1_555
C17 C16 1_555 1_555
C18 N2 1_555 1_555
C19 N2 1_555 1_555
C20 C19 1_555 1_555
C21 C20 1_555 1_555
C22 C21 1_555 1_555
C23 C22 1_555 1_555
C24 N1 1_555 1_555
Ru1A Ru1 1_555 1_555
Ru2A Ru2 1_555 1_555
O3A Ru1 1_555 1_555
O4A Ru1 1_555 1_555
O7A Ru2 1_555 1_555
O8A Ru2 1_555 1_555
O3 Ru1A 1_555 1_555
O4 Ru1A 1_555 1_555
O7 Ru2A 1_555 1_555
O8 Ru2A 1_555 1_555
C13 C18 1_555 1_555
C17 C18 1_555 1_555
C19 C24 1_555 1_555
C23 C24 1_555 1_555

#END
