
#######################################################################
#
#                 Cambridge Crystallographic Data Centre
#                                CCDC 
#
#######################################################################
#
# If this CIF has been generated from an entry in the Cambridge 
# Structural Database, then it will include bibliographic, chemical, 
# crystal, experimental, refinement or atomic coordinate data resulting 
# from the CCDC's data processing and validation procedures.
#
#######################################################################

data_KULCAX
_symmetry_cell_setting           monoclinic
_symmetry_space_group_name_H-M   'C c'
_symmetry_Int_Tables_number      9
_space_group_name_Hall           'C -2yc'
loop_
_symmetry_equiv_pos_site_id
_symmetry_equiv_pos_as_xyz
1 x,y,z
2 x,-y,1/2+z
3 1/2+x,1/2+y,z
4 1/2+x,1/2-y,1/2+z
_cell_length_a                   14.4066(15)
_cell_length_b                   5.6353(4)
_cell_length_c                   9.9895(8)
_cell_angle_alpha                90
_cell_angle_beta                 100.569(6)
_cell_angle_gamma                90
_cell_volume                     797.244
loop_
_atom_site_label
_atom_site_type_symbol
_atom_site_fract_x
_atom_site_fract_y
_atom_site_fract_z
Cu1 Cu 0.63538(5) 0.86561(10) 0.85697(5)
O1 O 0.5020(3) 0.7809(9) 0.8158(4)
O2 O 0.3764(3) 0.5705(7) 0.7241(4)
O3 O 0.6358(4) 0.9951(7) 0.6395(3)
O4 O 0.6104(3) 0.8266(6) 0.4348(4)
N1 N 0.6680(3) 0.5666(8) 0.7648(4)
H1 H 0.6505 0.4385 0.8098
N2 N 0.7755(4) 0.8828(8) 0.9298(5)
H2 H 0.8020 0.9965 0.8858
H3 H 0.7861 0.9184 1.0191
C1 C 0.4595(4) 0.6294(9) 0.7306(7)
C2 C 0.5107(4) 0.5009(9) 0.6300(6)
H4 H 0.5101 0.3324 0.6497
H5 H 0.4740 0.5234 0.5392
C3 C 0.6123(5) 0.5719(9) 0.6266(6)
H6 H 0.6390 0.4558 0.5712
C4 C 0.6200(4) 0.8203(9) 0.5646(6)
C5 C 0.7701(5) 0.5606(11) 0.7710(6)
H7 H 0.7871 0.6604 0.7002
H8 H 0.7904 0.3997 0.7572
C6 C 0.8174(5) 0.6489(11) 0.9083(7)
H9 H 0.8071 0.5385 0.9787
H10 H 0.8848 0.6645 0.9117
Cu1A Cu 0.63538(5) 1.13439(10) 0.35697(5)
O4A O 0.6104(3) 1.1734(6) 0.9348(4)
loop_
_geom_bond_atom_site_label_1
_geom_bond_atom_site_label_2
_geom_bond_site_symmetry_1
_geom_bond_site_symmetry_2
Cu1 O1 1_555 1_555
O1 C1 1_555 1_555
O2 C1 1_555 1_555
O3 Cu1 1_555 1_555
O4 C4 1_555 1_555
N1 Cu1 1_555 1_555
H1 N1 1_555 1_555
N2 Cu1 1_555 1_555
H2 N2 1_555 1_555
H3 N2 1_555 1_555
C1 C2 1_555 1_555
C2 H4 1_555 1_555
H5 C2 1_555 1_555
C3 N1 1_555 1_555
H6 C3 1_555 1_555
C4 O3 1_555 1_555
C5 N1 1_555 1_555
H7 C5 1_555 1_555
H8 C5 1_555 1_555
C6 N2 1_555 1_555
H9 C6 1_555 1_555
H10 C6 1_555 1_555
Cu1A O4 1_555 1_555
O4A Cu1 1_555 1_555
C2 C3 1_555 1_555
C3 C4 1_555 1_555
C5 C6 1_555 1_555

#END
