
#######################################################################
#
#                 Cambridge Crystallographic Data Centre
#                                CCDC 
#
#######################################################################
#
# If this CIF has been generated from an entry in the Cambridge 
# Structural Database, then it will include bibliographic, chemical, 
# crystal, experimental, refinement or atomic coordinate data resulting 
# from the CCDC's data processing and validation procedures.
#
#######################################################################

data_KULPUD
_symmetry_cell_setting           monoclinic
_symmetry_space_group_name_H-M   'P 21/c'
_symmetry_Int_Tables_number      14
_space_group_name_Hall           '-P 2ybc'
loop_
_symmetry_equiv_pos_site_id
_symmetry_equiv_pos_as_xyz
1 x,y,z
2 -x,1/2+y,1/2-z
3 -x,-y,-z
4 x,1/2-y,1/2+z
_cell_length_a                   4.8599(3)
_cell_length_b                   8.9770(5)
_cell_length_c                   14.3882(9)
_cell_angle_alpha                90
_cell_angle_beta                 94.418(3)
_cell_angle_gamma                90
_cell_volume                     625.853
loop_
_atom_site_label
_atom_site_type_symbol
_atom_site_fract_x
_atom_site_fract_y
_atom_site_fract_z
La1 La 0.99970(10) 0.00097(6) 0.76880(3)
O1 O 1.1305(17) -0.1302(9) 0.9245(5)
O2 O 1.0954(18) -0.1348(8) 1.0793(5)
O3 O 0.7295(15) 0.2258(8) 0.7204(5)
O4 O 1.2603(15) 0.2276(8) 0.7246(5)
C1 C 1.064(3) -0.0768(13) 1.0014(8)
O5 O 0.730(2) 0.0930(10) 0.6071(6)
H1 H 0.6779 0.1938 0.5960
H2 H 0.8924 0.0749 0.5760
O6 O 1.183(2) -0.0699(11) 0.6086(7)
H3 H 1.3765 -0.0872 0.6121
H4 H 1.0937 -0.1640 0.6048
O7 O 0.5073(18) 0.0477(11) 0.7932(7)
H5 H 0.5251 0.0666 0.8584
H6 H 0.5011 0.1412 0.7622
La1B La 1.00030(10) -0.00097(6) 1.23120(3)
La1A La 1.00030(10) 0.50097(6) 0.73120(3)
La1_2 La -0.00030(10) 0.00097(6) 0.76880(3)
La1A_2 La 1.00030(10) -0.49903(6) 0.73120(3)
La1_3 La 1.99970(10) 0.00097(6) 0.76880(3)
O1B O 0.8695(17) 0.1302(9) 1.0755(5)
O2B O 0.9046(18) 0.1348(8) 0.9207(5)
O3A O 1.2705(15) -0.2742(8) 0.7796(5)
O3B O 1.2705(15) -0.2258(8) 1.2796(5)
O3C O 0.7295(15) 0.2742(8) 1.2204(5)
O4A O 0.7397(15) -0.2724(8) 0.7754(5)
O4B O 0.7397(15) -0.2276(8) 1.2754(5)
O4C O 1.2603(15) 0.2724(8) 1.2246(5)
C1B C 0.936(3) 0.0768(13) 0.9986(8)
O5B O 1.270(2) -0.0930(10) 1.3929(6)
H1B H 1.3221 -0.1938 1.4040
H2B H 1.1076 -0.0749 1.4240
O6B O 0.817(2) 0.0699(11) 1.3914(7)
H3B H 0.6235 0.0872 1.3879
H4B H 0.9063 0.1640 1.3952
O7_2 O 1.5073(18) 0.0477(11) 0.7932(7)
O7B O 1.4927(18) -0.0477(11) 1.2068(7)
O7B_2 O 0.4927(18) -0.0477(11) 1.2068(7)
H5_2 H 1.5251 0.0666 0.8584
H5B H 1.4749 -0.0666 1.1416
H5B_2 H 0.4749 -0.0666 1.1416
H6_2 H 1.5011 0.1412 0.7622
H6B H 1.4989 -0.1412 1.2378
H6B_2 H 0.4989 -0.1412 1.2378
loop_
_geom_bond_atom_site_label_1
_geom_bond_atom_site_label_2
_geom_bond_site_symmetry_1
_geom_bond_site_symmetry_2
La1 O1 1_555 1_555
O1 C1 1_555 1_555
O2 C1 1_555 1_555
O3 La1 1_555 1_555
O4 La1 1_555 1_555
C1 C1B 1_555 1_555
O5 La1 1_555 1_555
H1 O5 1_555 1_555
H2 O5 1_555 1_555
O6 La1 1_555 1_555
H3 O6 1_555 1_555
H4 O6 1_555 1_555
O7 La1 1_555 1_555
H5 O7 1_555 1_555
H6 O7 1_555 1_555
La1B O2 1_555 1_555
La1A O3 1_555 1_555
La1_2 O7 1_555 1_555
La1A_2 O3A 1_555 1_555
La1_3 O7_2 1_555 1_555
O1B La1B 1_555 1_555
O2B La1 1_555 1_555
O3A La1 1_555 1_555
O3B La1B 1_555 1_555
O3C La1B 1_555 1_555
O4A La1 1_555 1_555
O4B La1B 1_555 1_555
O4C La1B 1_555 1_555
C1B O1B 1_555 1_555
O5B La1B 1_555 1_555
H1B O5B 1_555 1_555
H2B O5B 1_555 1_555
O6B La1B 1_555 1_555
H3B O6B 1_555 1_555
H4B O6B 1_555 1_555
O7_2 La1 1_555 1_555
O7B La1B 1_555 1_555
O7B_2 La1B 1_555 1_555
H5_2 O7_2 1_555 1_555
H5B O7B 1_555 1_555
H5B_2 O7B_2 1_555 1_555
H6_2 O7_2 1_555 1_555
H6B O7B 1_555 1_555
H6B_2 O7B_2 1_555 1_555
O4 La1A 1_555 1_555
La1A_2 O4A 1_555 1_555
O2B C1B 1_555 1_555

#END
