
#######################################################################
#
#                 Cambridge Crystallographic Data Centre
#                                CCDC 
#
#######################################################################
#
# If this CIF has been generated from an entry in the Cambridge 
# Structural Database, then it will include bibliographic, chemical, 
# crystal, experimental, refinement or atomic coordinate data resulting 
# from the CCDC's data processing and validation procedures.
#
#######################################################################

data_KULTOB
_symmetry_cell_setting           orthorhombic
_symmetry_space_group_name_H-M   'P c a 21'
_symmetry_Int_Tables_number      29
_space_group_name_Hall           'P 2c -2ac'
loop_
_symmetry_equiv_pos_site_id
_symmetry_equiv_pos_as_xyz
1 x,y,z
2 -x,-y,1/2+z
3 1/2-x,y,1/2+z
4 1/2+x,-y,z
_cell_length_a                   8.4112(19)
_cell_length_b                   9.149(2)
_cell_length_c                   17.248(4)
_cell_angle_alpha                90
_cell_angle_beta                 90
_cell_angle_gamma                90
_cell_volume                     1327.3
loop_
_atom_site_label
_atom_site_type_symbol
_atom_site_fract_x
_atom_site_fract_y
_atom_site_fract_z
Ag1 Ag 0.61715(10) 0.69624(5) 0.23088(13)
N1 N 0.6159(7) 0.9296(4) 0.2290(6)
C1 C 0.6043(10) 1.4016(7) 0.2252(8)
C2 C 0.6130(7) 1.2406(6) 0.2270(5)
C3 C 0.5238(8) 1.1585(7) 0.2855(4)
C4 C 0.4299(9) 1.2307(9) 0.3441(5)
H1 H 0.4261 1.3321 0.3464
C5 C 0.3464(9) 1.1476(10) 0.3963(4)
H2 H 0.2851 1.1930 0.4342
C6 C 0.3530(11) 0.9933(10) 0.3927(6)
H3 H 0.2961 0.9389 0.4288
C7 C 0.4374(9) 0.9241(8) 0.3398(5)
C8 C 0.5302(8) 1.0036(6) 0.2834(4)
C9 C 0.7020(9) 1.0053(7) 0.1767(5)
C10 C 0.7917(9) 0.9252(8) 0.1217(4)
C11 C 0.8807(9) 0.9959(10) 0.0669(6)
H4 H 0.9394 0.9431 0.0308
C12 C 0.8822(9) 1.1530(9) 0.0658(5)
H5 H 0.9443 1.2016 0.0294
C13 C 0.7937(8) 1.2324(8) 0.1176(5)
H6 H 0.7940 1.3339 0.1153
C14 C 0.7021(7) 1.1599(6) 0.1744(4)
O1 O 0.5282(10) 1.4607(6) 0.1742(4)
O2 O 0.6783(9) 1.4678(6) 0.2781(4)
H7 H 0.820(7) 0.803(6) 0.121(3)
H8 H 0.468(13) 0.801(10) 0.330(7)
Ag1_2 Ag 0.61715(10) 1.69624(5) 0.23088(13)
O1_2 O 0.5282(10) 0.4607(6) 0.1742(4)
O2_2 O 0.6783(9) 0.4678(6) 0.2781(4)
O3 O 0.7167(12) 0.4247(14) -0.0637(6)
H9 H 0.739(8) 0.434(8) -0.1115(10)
H10 H 0.803(7) 0.463(11) -0.048(4)
O4 O 0.9364(9) 0.6052(10) 0.0171(5)
loop_
_geom_bond_atom_site_label_1
_geom_bond_atom_site_label_2
_geom_bond_site_symmetry_1
_geom_bond_site_symmetry_2
Ag1 N1 1_555 1_555
N1 C8 1_555 1_555
C1 C2 1_555 1_555
C2 C3 1_555 1_555
C3 C4 1_555 1_555
C4 H1 1_555 1_555
C5 C4 1_555 1_555
H2 C5 1_555 1_555
C6 C5 1_555 1_555
H3 C6 1_555 1_555
C7 C6 1_555 1_555
C8 C3 1_555 1_555
C9 N1 1_555 1_555
C10 C9 1_555 1_555
C11 C10 1_555 1_555
H4 C11 1_555 1_555
C12 C11 1_555 1_555
H5 C12 1_555 1_555
C13 C12 1_555 1_555
H6 C13 1_555 1_555
C14 C2 1_555 1_555
O1 C1 1_555 1_555
O2 C1 1_555 1_555
O3 H9 1_555 1_555
H7 C10 1_555 1_555
H8 C7 1_555 1_555
H10 O3 1_555 1_555
Ag1_2 O1 1_555 1_555
O1_2 Ag1 1_555 1_555
O2_2 Ag1 1_555 1_555
C7 C8 1_555 1_555
C9 C14 1_555 1_555
C13 C14 1_555 1_555
O2 Ag1_2 1_555 1_555

#END
