
#######################################################################
#
#                 Cambridge Crystallographic Data Centre
#                                CCDC 
#
#######################################################################
#
# If this CIF has been generated from an entry in the Cambridge 
# Structural Database, then it will include bibliographic, chemical, 
# crystal, experimental, refinement or atomic coordinate data resulting 
# from the CCDC's data processing and validation procedures.
#
#######################################################################

data_KULVIX
_symmetry_cell_setting           monoclinic
_symmetry_space_group_name_H-M   'P 21/c'
_symmetry_Int_Tables_number      14
_space_group_name_Hall           '-P 2ybc'
loop_
_symmetry_equiv_pos_site_id
_symmetry_equiv_pos_as_xyz
1 x,y,z
2 -x,1/2+y,1/2-z
3 -x,-y,-z
4 x,1/2-y,1/2+z
_cell_length_a                   8.6261(17)
_cell_length_b                   16.509(3)
_cell_length_c                   12.325(3)
_cell_angle_alpha                90
_cell_angle_beta                 104.59(3)
_cell_angle_gamma                90
_cell_volume                     1698.58
loop_
_atom_site_label
_atom_site_type_symbol
_atom_site_fract_x
_atom_site_fract_y
_atom_site_fract_z
Sm1 Sm 0.08943(2) 0.037780(11) 0.653784(14)
C1 C -0.0700(7) 0.1745(3) 0.8058(5)
H1 H -0.1211 0.1879 0.7322
C2 C -0.0962(8) 0.2227(4) 0.8907(6)
H2 H -0.1625 0.2679 0.8743
C3 C -0.0248(8) 0.2037(5) 0.9972(6)
H3 H -0.0419 0.2354 1.0555
C4 C 0.0732(7) 0.1375(5) 1.0199(4)
H4 H 0.1232 0.1235 1.0934
C5 C 0.0970(6) 0.0909(3) 0.9294(4)
C6 C 0.2019(6) 0.0201(3) 0.9463(3)
C7 C 0.2695(8) -0.0135(5) 1.0519(4)
H5 H 0.2465 0.0088 1.1153
C8 C 0.3696(8) -0.0792(5) 1.0622(5)
H6 H 0.4140 -0.1014 1.1325
C9 C 0.4040(6) -0.1120(4) 0.9692(6)
H7 H 0.4726 -0.1562 0.9751
C10 C 0.3336(6) -0.0776(3) 0.8649(4)
H8 H 0.3555 -0.1000 0.8011
C11 C -0.7375(4) -0.1031(2) 0.5215(3)
C12 C -0.5854(4) -0.1512(3) 0.5316(4)
H9 H -0.5844 -0.1965 0.5817
H10 H -0.5846 -0.1728 0.4585
C13 C -0.1462(4) -0.0917(2) 0.6180(3)
C14 C -0.2814(4) -0.1507(2) 0.6001(3)
H11 H -0.2722 -0.1834 0.6668
H12 H -0.2793 -0.1864 0.5380
C15 C -0.4388(4) -0.1021(2) 0.5743(4)
H13 H -0.4472 -0.0747 0.6421
H14 H -0.4339 -0.0608 0.5192
O1 O -0.0998(3) -0.06647(15) 0.53338(19)
O2 O -0.8409(3) -0.10322(16) 0.4285(2)
O3 O -0.7524(3) -0.06699(16) 0.6079(2)
O4 O -0.0825(3) -0.06391(17) 0.7130(2)
O5 O 0.3704(3) 0.09421(18) 0.6949(2)
O6 O 0.1864(4) 0.18487(18) 0.6719(3)
O7 O 0.4353(4) 0.2219(2) 0.7071(3)
N1 N 0.0254(5) 0.1094(2) 0.8243(3)
N2 N 0.2363(4) -0.0139(2) 0.8534(3)
N3 N 0.3329(4) 0.1688(2) 0.6918(3)
Sm1B Sm -1.08943(2) -0.037780(11) 0.346216(14)
Sm1_2 Sm -0.91057(2) 0.037780(11) 0.653784(14)
Sm1B_2 Sm -0.08943(2) -0.037780(11) 0.346216(14)
O1B O 0.0998(3) 0.06647(15) 0.46662(19)
O2B O -0.1591(3) 0.10322(16) 0.5715(2)
O3_2 O 0.2476(3) -0.06699(16) 0.6079(2)
loop_
_geom_bond_atom_site_label_1
_geom_bond_atom_site_label_2
_geom_bond_site_symmetry_1
_geom_bond_site_symmetry_2
Sm1 O1 1_555 1_555
C1 H1 1_555 1_555
C2 C1 1_555 1_555
H2 C2 1_555 1_555
C3 C2 1_555 1_555
H3 C3 1_555 1_555
C4 C3 1_555 1_555
H4 C4 1_555 1_555
C5 C4 1_555 1_555
C6 C5 1_555 1_555
C7 C6 1_555 1_555
H5 C7 1_555 1_555
C8 C7 1_555 1_555
H6 C8 1_555 1_555
C9 C8 1_555 1_555
H7 C9 1_555 1_555
C10 C9 1_555 1_555
H8 C10 1_555 1_555
C11 C12 1_555 1_555
C12 H9 1_555 1_555
H10 C12 1_555 1_555
C13 C14 1_555 1_555
C14 H11 1_555 1_555
H12 C14 1_555 1_555
C15 C12 1_555 1_555
H13 C15 1_555 1_555
H14 C15 1_555 1_555
O1 C13 1_555 1_555
O2 C11 1_555 1_555
O3 C11 1_555 1_555
O4 Sm1 1_555 1_555
O5 Sm1 1_555 1_555
O6 Sm1 1_555 1_555
O7 N3 1_555 1_555
N1 Sm1 1_555 1_555
N2 Sm1 1_555 1_555
N3 O5 1_555 1_555
Sm1B O2 1_555 1_555
Sm1_2 O3 1_555 1_555
Sm1B_2 O1 1_555 1_555
O1B Sm1 1_555 1_555
O2B Sm1 1_555 1_555
O3_2 Sm1 1_555 1_555
C1 N1 1_555 1_555
C5 N1 1_555 1_555
C6 N2 1_555 1_555
C10 N2 1_555 1_555
C13 O4 1_555 1_555
C14 C15 1_555 1_555
O6 N3 1_555 1_555
Sm1B_2 O1B 1_555 1_555

#END
