
#######################################################################
#
#                 Cambridge Crystallographic Data Centre
#                                CCDC 
#
#######################################################################
#
# If this CIF has been generated from an entry in the Cambridge 
# Structural Database, then it will include bibliographic, chemical, 
# crystal, experimental, refinement or atomic coordinate data resulting 
# from the CCDC's data processing and validation procedures.
#
#######################################################################

data_KULVUJ
_symmetry_cell_setting           monoclinic
_symmetry_space_group_name_H-M   'P 21/c'
_symmetry_Int_Tables_number      14
_space_group_name_Hall           '-P 2ybc'
loop_
_symmetry_equiv_pos_site_id
_symmetry_equiv_pos_as_xyz
1 x,y,z
2 -x,1/2+y,1/2-z
3 -x,-y,-z
4 x,1/2-y,1/2+z
_cell_length_a                   8.6846(17)
_cell_length_b                   16.536(3)
_cell_length_c                   12.413(3)
_cell_angle_alpha                90
_cell_angle_beta                 104.71(3)
_cell_angle_gamma                90
_cell_volume                     1724.18
loop_
_atom_site_label
_atom_site_type_symbol
_atom_site_fract_x
_atom_site_fract_y
_atom_site_fract_z
Pr1 Pr 0.409580(14) 1.038835(8) 0.845450(10)
C1 C 0.1678(4) 0.9250(3) 0.6299(3)
H1 H 0.1450 0.9025 0.6927
C2 C 0.0995(5) 0.8905(3) 0.5258(4)
H2 H 0.0316 0.8462 0.5191
C3 C 0.1358(6) 0.9240(4) 0.4334(4)
H3 H 0.0928 0.9022 0.3631
C4 C 0.2349(6) 0.9889(3) 0.4457(3)
H4 H 0.2599 1.0115 0.3836
C5 C 0.2990(4) 1.0219(2) 0.5507(2)
C6 C 0.4042(4) 1.0929(2) 0.5680(3)
C7 C 0.4293(6) 1.1405(4) 0.4797(3)
H5 H 0.3798 1.1277 0.4061
C8 C 0.5288(6) 1.2066(4) 0.5049(5)
H6 H 0.5468 1.2387 0.4478
C9 C 0.5995(6) 1.2247(3) 0.6108(5)
H7 H 0.6658 1.2695 0.6283
C10 C 0.5721(6) 1.1755(2) 0.6934(4)
H8 H 0.6229 1.1877 0.7669
C11 C 1.2345(3) 0.89613(16) 0.9775(2)
C12 C 1.0829(3) 0.84782(19) 0.9671(3)
H9 H 1.0817 0.8026 0.9170
H10 H 1.0818 0.8261 1.0395
C13 C 0.6457(3) 0.90720(16) 0.8808(2)
C14 C 0.7812(3) 0.84862(16) 0.8992(2)
H11 H 0.7724 0.8156 0.8333
H12 H 0.7800 0.8133 0.9614
C15 C 0.9368(3) 0.89781(19) 0.9242(3)
H13 H 0.9449 0.9249 0.8566
H14 H 0.9322 0.9391 0.9788
O1 O 0.5995(2) 0.93243(11) 0.96482(14)
O2 O 1.3378(2) 0.89543(12) 1.06958(15)
O3 O 1.2493(2) 0.93285(12) 0.89186(16)
O4 O 0.5829(2) 0.93453(14) 0.78595(15)
O5 O 0.1256(2) 1.09708(14) 0.80620(19)
O6 O 0.3080(3) 1.18751(14) 0.8247(2)
O7 O 0.0612(3) 1.22444(17) 0.7930(3)
N1 N 0.2639(3) 0.98876(18) 0.6425(2)
N2 N 0.4753(4) 1.11046(18) 0.6732(2)
N3 N 0.1622(3) 1.17118(17) 0.80691(19)
Pr1B Pr 0.590420(14) 0.961165(8) 1.154550(10)
Pr1B_2 Pr 1.590420(14) 0.961165(8) 1.154550(10)
Pr1_2 Pr 1.409580(14) 1.038835(8) 0.845450(10)
O1B O 0.4005(2) 1.06757(11) 1.03518(14)
O2B O 0.6622(2) 1.10457(12) 0.93042(15)
O3_2 O 0.2493(2) 0.93285(12) 0.89186(16)
loop_
_geom_bond_atom_site_label_1
_geom_bond_atom_site_label_2
_geom_bond_site_symmetry_1
_geom_bond_site_symmetry_2
Pr1 O1 1_555 1_555
C1 H1 1_555 1_555
C2 C1 1_555 1_555
H2 C2 1_555 1_555
C3 C2 1_555 1_555
H3 C3 1_555 1_555
C4 C3 1_555 1_555
H4 C4 1_555 1_555
C5 C4 1_555 1_555
C6 C5 1_555 1_555
C7 C6 1_555 1_555
H5 C7 1_555 1_555
C8 C7 1_555 1_555
H6 C8 1_555 1_555
C9 C8 1_555 1_555
H7 C9 1_555 1_555
C10 C9 1_555 1_555
H8 C10 1_555 1_555
C11 C12 1_555 1_555
C12 H9 1_555 1_555
H10 C12 1_555 1_555
C13 C14 1_555 1_555
C14 H11 1_555 1_555
H12 C14 1_555 1_555
C15 C12 1_555 1_555
H13 C15 1_555 1_555
H14 C15 1_555 1_555
O1 C13 1_555 1_555
O2 C11 1_555 1_555
O3 C11 1_555 1_555
O4 Pr1 1_555 1_555
O5 Pr1 1_555 1_555
O6 Pr1 1_555 1_555
O7 N3 1_555 1_555
N1 Pr1 1_555 1_555
N2 Pr1 1_555 1_555
N3 O5 1_555 1_555
Pr1B O1 1_555 1_555
Pr1B_2 O2 1_555 1_555
Pr1_2 O3 1_555 1_555
O1B Pr1 1_555 1_555
O2B Pr1 1_555 1_555
O3_2 Pr1 1_555 1_555
C1 N1 1_555 1_555
C5 N1 1_555 1_555
C6 N2 1_555 1_555
C10 N2 1_555 1_555
C13 O4 1_555 1_555
C14 C15 1_555 1_555
O6 N3 1_555 1_555
Pr1B O1B 1_555 1_555

#END
