
#######################################################################
#
#                 Cambridge Crystallographic Data Centre
#                                CCDC 
#
#######################################################################
#
# If this CIF has been generated from an entry in the Cambridge 
# Structural Database, then it will include bibliographic, chemical, 
# crystal, experimental, refinement or atomic coordinate data resulting 
# from the CCDC's data processing and validation procedures.
#
#######################################################################

data_KUMHOR
_symmetry_cell_setting           monoclinic
_symmetry_space_group_name_H-M   'P 21/c'
_symmetry_Int_Tables_number      14
_space_group_name_Hall           '-P 2ybc'
loop_
_symmetry_equiv_pos_site_id
_symmetry_equiv_pos_as_xyz
1 x,y,z
2 -x,1/2+y,1/2-z
3 -x,-y,-z
4 x,1/2-y,1/2+z
_cell_length_a                   18.5433(5)
_cell_length_b                   6.77370(10)
_cell_length_c                   28.4801(6)
_cell_angle_alpha                90
_cell_angle_beta                 90.2570(10)
_cell_angle_gamma                90
_cell_volume                     3577.26
loop_
_atom_site_label
_atom_site_type_symbol
_atom_site_fract_x
_atom_site_fract_y
_atom_site_fract_z
Ag1 Ag -0.00285(2) 0.26418(5) 0.137642(12)
C1 C 0.1136(3) 0.2255(7) 0.05052(16)
H1 H 0.1216 0.0906 0.0580
C2 C 0.1485(3) 0.3249(9) 0.01746(18)
H2 H 0.1850 0.2756 -0.0027
C3 C 0.0695(3) 0.5189(6) 0.05198(16)
C4 C 0.0276(4) 0.6961(7) 0.0643(2)
H3 H 0.0160 0.7703 0.0357
H4 H 0.0560 0.7795 0.0856
H5 H -0.0172 0.6564 0.0799
C5 C 0.1483(6) 0.6728(11) -0.01078(19)
H6 H 0.1340 0.7991 0.0040
H7 H 0.2017 0.6672 -0.0102
C6 C 0.1263(3) 0.6778(7) -0.05758(16)
H8 H 0.0733 0.6606 -0.0589
H9 H 0.1483 0.5649 -0.0743
C7 C 0.1456(3) 0.8641(6) -0.08282(15)
C8 C 0.1201(2) 1.0943(6) -0.13856(14)
C9 C 0.2188(2) 1.1258(6) -0.09256(14)
N1 N 0.0642(2) 0.3450(6) 0.07246(13)
N2 N 0.1214(3) 0.5126(6) 0.01848(13)
N3 N 0.10019(19) 0.9236(5) -0.11663(12)
N4 N 0.0782(2) 1.1574(6) -0.17365(13)
H10 H 0.0890 1.2673 -0.1886
H11 H 0.0398 1.0893 -0.1819
N5 N 0.17772(18) 1.2015(5) -0.12709(12)
N6 N 0.2769(2) 1.2260(5) -0.07950(13)
H12 H 0.2875 1.3384 -0.0933
H13 H 0.3049 1.1801 -0.0570
N7 N 0.2048(2) 0.9559(5) -0.06937(12)
N8 N 0.0268(2) 0.4406(6) 0.20064(13)
H14 H 0.0514 0.5503 0.1916
H15 H 0.0551 0.3666 0.2200
H16 H -0.0139 0.4770 0.2161
Ag1B Ag 0.00285(2) 0.73582(5) -0.137642(12)
C1B C -0.1136(3) 0.7745(7) -0.05052(16)
H1B H -0.1216 0.9094 -0.0580
C2B C -0.1485(3) 0.6751(9) -0.01746(18)
H2B H -0.1850 0.7244 0.0027
C3B C -0.0695(3) 0.4811(6) -0.05198(16)
C4B C -0.0276(4) 0.3039(7) -0.0643(2)
H3B H -0.0160 0.2297 -0.0357
H4B H -0.0560 0.2205 -0.0856
H5B H 0.0172 0.3436 -0.0799
C5B C -0.1483(6) 0.3272(11) 0.01078(19)
H6B H -0.1340 0.2009 -0.0040
H7B H -0.2017 0.3328 0.0102
C6B C -0.1263(3) 0.3222(7) 0.05758(16)
H8B H -0.0733 0.3394 0.0589
H9B H -0.1483 0.4351 0.0743
C7B C -0.1456(3) 0.1359(6) 0.08282(15)
C8B C -0.1201(2) -0.0943(6) 0.13856(14)
C9B C -0.2188(2) -0.1258(6) 0.09256(14)
N1B N -0.0642(2) 0.6550(6) -0.07246(13)
N2B N -0.1214(3) 0.4874(6) -0.01848(13)
N3B N -0.10019(19) 0.0764(5) 0.11663(12)
N4B N -0.0782(2) -0.1574(6) 0.17365(13)
H10B H -0.0890 -0.2673 0.1886
H11B H -0.0398 -0.0893 0.1819
N5B N -0.17772(18) -0.2015(5) 0.12709(12)
N6B N -0.2769(2) -0.2260(5) 0.07950(13)
H12B H -0.2875 -0.3384 0.0933
H13B H -0.3049 -0.1801 0.0570
N7B N -0.2048(2) 0.0441(5) 0.06937(12)
N8B N -0.0268(2) 0.5594(6) -0.20064(13)
H14B H -0.0514 0.4497 -0.1916
H15B H -0.0551 0.6334 -0.2200
H16B H 0.0139 0.5230 -0.2161
Ag2 Ag 0.48313(2) -0.02886(5) 0.112246(12)
C10 C 0.6160(3) -0.5883(8) 0.29649(18)
H17 H 0.6263 -0.7209 0.3050
C11 C 0.6464(4) -0.4924(12) 0.2621(2)
H18 H 0.6824 -0.5417 0.2416
C12 C 0.5685(3) -0.2976(8) 0.29645(18)
C13 C 0.5265(3) -0.1235(8) 0.3088(2)
H19 H 0.5522 -0.0479 0.3329
H20 H 0.4794 -0.1644 0.3208
H21 H 0.5196 -0.0410 0.2808
C14 C 0.6447(6) -0.1482(14) 0.2317(2)
H22 H 0.6361 -0.0203 0.2475
H23 H 0.6975 -0.1673 0.2303
C15 C 0.6183(3) -0.1322(7) 0.18460(17)
H24 H 0.5649 -0.1337 0.1850
H25 H 0.6345 -0.2486 0.1665
C16 C 0.6432(2) 0.0510(6) 0.16025(14)
C17 C 0.6305(2) 0.2774(6) 0.10239(15)
C18 C 0.7215(2) 0.3036(6) 0.15512(15)
N9 N 0.5653(2) -0.4642(6) 0.31917(13)
N10 N 0.6155(3) -0.3012(8) 0.26095(14)
N11 N 0.60432(18) 0.1142(5) 0.12360(12)
N12 N 0.5965(2) 0.3433(6) 0.06414(13)
H26 H 0.6123 0.4497 0.0497
H27 H 0.5584 0.2805 0.0533
N13 N 0.68841(19) 0.3793(5) 0.11724(12)
N14 N 0.7786(2) 0.4013(6) 0.17230(13)
H28 H 0.7932 0.5109 0.1587
H29 H 0.8016 0.3557 0.1971
N15 N 0.7017(2) 0.1355(5) 0.17748(12)
N16 N 0.4718(2) -0.2279(6) 0.05232(14)
H30 H 0.4414 -0.1734 0.0308
H31 H 0.4537 -0.3455 0.0622
H32 H 0.5158 -0.2476 0.0390
Ag2A Ag 0.51687(2) -0.52886(5) 0.387754(12)
N9A N 0.4347(2) 0.0358(6) 0.18083(13)
C19 C 0.1950(2) 0.1276(6) 0.17829(13)
C20 C 0.2090(2) 0.3127(6) 0.19502(14)
H33 H 0.1858 0.3582 0.2226
C21 C 0.2580(2) 0.4358(6) 0.17126(14)
H34 H 0.2670 0.5649 0.1830
C22 C 0.2927(2) 0.3738(6) 0.13180(14)
H35 H 0.3266 0.4581 0.1170
C23 C 0.2785(2) 0.1840(6) 0.11279(13)
C24 C 0.3105(2) 0.1140(6) 0.06984(13)
C25 C 0.2951(2) -0.0696(6) 0.05333(14)
H36 H 0.3154 -0.1122 0.0245
C26 C 0.2494(2) -0.1973(6) 0.07842(14)
H37 H 0.2415 -0.3279 0.0674
C27 C 0.2167(2) -0.1351(6) 0.11824(14)
H38 H 0.1847 -0.2217 0.1341
C28 C 0.2292(2) 0.0572(6) 0.13678(13)
O1 O 0.07557(15) -0.0721(5) 0.17662(10)
O2 O 0.10859(16) 0.0947(4) 0.24850(10)
O3 O 0.17298(16) -0.1985(4) 0.22504(10)
O4 O 0.43370(15) 0.2999(4) 0.06740(10)
O5 O 0.33370(16) 0.4445(4) 0.02419(10)
O6 O 0.38975(16) 0.1435(5) -0.00392(10)
S1 S 0.13367(6) -0.02548(14) 0.20964(3)
S2 S 0.37131(6) 0.26370(15) 0.03691(3)
loop_
_geom_bond_atom_site_label_1
_geom_bond_atom_site_label_2
_geom_bond_site_symmetry_1
_geom_bond_site_symmetry_2
Ag1 N1 1_555 1_555
C1 H1 1_555 1_555
C2 C1 1_555 1_555
H2 C2 1_555 1_555
C3 C4 1_555 1_555
C4 H3 1_555 1_555
H4 C4 1_555 1_555
H5 C4 1_555 1_555
C5 H6 1_555 1_555
H7 C5 1_555 1_555
C6 C5 1_555 1_555
H8 C6 1_555 1_555
H9 C6 1_555 1_555
C7 C6 1_555 1_555
C8 N3 1_555 1_555
C9 N5 1_555 1_555
N1 C1 1_555 1_555
N2 C2 1_555 1_555
N3 C7 1_555 1_555
N4 C8 1_555 1_555
H10 N4 1_555 1_555
H11 N4 1_555 1_555
N5 C8 1_555 1_555
N6 C9 1_555 1_555
H12 N6 1_555 1_555
H13 N6 1_555 1_555
N7 C7 1_555 1_555
N8 Ag1 1_555 1_555
H14 N8 1_555 1_555
H15 N8 1_555 1_555
H16 N8 1_555 1_555
Ag2 N11 1_555 1_555
C10 H17 1_555 1_555
C11 C10 1_555 1_555
H18 C11 1_555 1_555
C12 C13 1_555 1_555
C13 H19 1_555 1_555
H20 C13 1_555 1_555
H21 C13 1_555 1_555
C14 H22 1_555 1_555
H23 C14 1_555 1_555
C15 C14 1_555 1_555
H24 C15 1_555 1_555
H25 C15 1_555 1_555
C16 C15 1_555 1_555
C17 N11 1_555 1_555
C18 N13 1_555 1_555
N9 C10 1_555 1_555
N10 C11 1_555 1_555
N11 C16 1_555 1_555
N12 C17 1_555 1_555
H26 N12 1_555 1_555
H27 N12 1_555 1_555
N13 C17 1_555 1_555
N14 C18 1_555 1_555
H28 N14 1_555 1_555
H29 N14 1_555 1_555
N15 C16 1_555 1_555
N16 Ag2 1_555 1_555
H30 N16 1_555 1_555
H31 N16 1_555 1_555
H32 N16 1_555 1_555
C19 C20 1_555 1_555
C20 H33 1_555 1_555
C21 C20 1_555 1_555
H34 C21 1_555 1_555
C22 C21 1_555 1_555
H35 C22 1_555 1_555
C23 C22 1_555 1_555
C24 C23 1_555 1_555
C25 C24 1_555 1_555
H36 C25 1_555 1_555
C26 C25 1_555 1_555
H37 C26 1_555 1_555
C27 C26 1_555 1_555
H38 C27 1_555 1_555
C28 C19 1_555 1_555
O1 S1 1_555 1_555
O2 S1 1_555 1_555
O3 S1 1_555 1_555
O4 S2 1_555 1_555
O5 S2 1_555 1_555
O6 S2 1_555 1_555
S1 C19 1_555 1_555
S2 C24 1_555 1_555
Ag1B N3 1_555 1_555
C1B H1B 1_555 1_555
C2B C1B 1_555 1_555
H2B C2B 1_555 1_555
C3B C4B 1_555 1_555
C4B H3B 1_555 1_555
H4B C4B 1_555 1_555
H5B C4B 1_555 1_555
C5B H6B 1_555 1_555
H7B C5B 1_555 1_555
C6B C5B 1_555 1_555
H8B C6B 1_555 1_555
H9B C6B 1_555 1_555
C7B C6B 1_555 1_555
C8B N3B 1_555 1_555
C9B N5B 1_555 1_555
N1B Ag1B 1_555 1_555
N2B C2B 1_555 1_555
N3B Ag1 1_555 1_555
N4B C8B 1_555 1_555
H10B N4B 1_555 1_555
H11B N4B 1_555 1_555
N5B C8B 1_555 1_555
N6B C9B 1_555 1_555
H12B N6B 1_555 1_555
H13B N6B 1_555 1_555
N7B C7B 1_555 1_555
N8B Ag1B 1_555 1_555
H14B N8B 1_555 1_555
H15B N8B 1_555 1_555
H16B N8B 1_555 1_555
Ag2A N9 1_555 1_555
N9A Ag2 1_555 1_555
C3 N1 1_555 1_555
C3 N2 1_555 1_555
C5 N2 1_555 1_555
C9 N7 1_555 1_555
C12 N9 1_555 1_555
C12 N10 1_555 1_555
C14 N10 1_555 1_555
C18 N15 1_555 1_555
C23 C28 1_555 1_555
C27 C28 1_555 1_555
C1B N1B 1_555 1_555
C3B N1B 1_555 1_555
C3B N2B 1_555 1_555
C5B N2B 1_555 1_555
C7B N3B 1_555 1_555
C9B N7B 1_555 1_555

#END
