
#######################################################################
#
#                 Cambridge Crystallographic Data Centre
#                                CCDC 
#
#######################################################################
#
# If this CIF has been generated from an entry in the Cambridge 
# Structural Database, then it will include bibliographic, chemical, 
# crystal, experimental, refinement or atomic coordinate data resulting 
# from the CCDC's data processing and validation procedures.
#
#######################################################################

data_KUMVAQ
_symmetry_cell_setting           monoclinic
_symmetry_space_group_name_H-M   'P 21/n'
_symmetry_Int_Tables_number      14
_space_group_name_Hall           '-P 2yn'
loop_
_symmetry_equiv_pos_site_id
_symmetry_equiv_pos_as_xyz
1 x,y,z
2 1/2-x,1/2+y,1/2-z
3 -x,-y,-z
4 1/2+x,1/2-y,1/2+z
_cell_length_a                   14.4626(12)
_cell_length_b                   8.1213(4)
_cell_length_c                   17.7717(13)
_cell_angle_alpha                90
_cell_angle_beta                 113.536(6)
_cell_angle_gamma                90
_cell_volume                     1913.73
loop_
_atom_site_label
_atom_site_type_symbol
_atom_site_fract_x
_atom_site_fract_y
_atom_site_fract_z
C1 C 0.95467(15) -0.0068(3) 0.65841(12)
H1 H 1.0059 -0.0865 0.6833
C2 C 0.94112(15) 0.1066(3) 0.71264(12)
C3 C 0.90375(14) -0.0202(2) 0.57284(11)
C4 C 1.00890(19) 0.0866(3) 0.80245(13)
H2 H 1.0795 0.0963 0.8098
H3 H 0.9977 -0.0219 0.8214
H4 H 0.9934 0.1725 0.8344
C5 C 0.93882(16) -0.1598(3) 0.53384(13)
H5 H 0.9636 -0.1147 0.4942
H6 H 0.8823 -0.2346 0.5056
H7 H 0.9933 -0.2204 0.5765
C6 C 0.86980(14) 0.3405(3) 0.74993(11)
C7 C 0.91389(17) 0.4939(3) 0.75806(14)
H8 H 0.9457 0.5248 0.7226
C8 C 0.91224(18) 0.6035(3) 0.81769(15)
H9 H 0.9438 0.7081 0.8238
C9 C 0.86419(15) 0.5588(3) 0.86800(12)
C10 C 0.81519(16) 0.4108(3) 0.85747(13)
H10 H 0.7794 0.3834 0.8905
C11 C 0.81781(17) 0.3009(3) 0.79856(13)
H11 H 0.7839 0.1982 0.7914
C12 C 0.9520(2) 0.7452(5) 0.9763(2)
H12 H 0.9532 0.7712 1.0306
H13 H 0.9559 0.8474 0.9484
H14 H 1.0096 0.6747 0.9826
C13 C 0.77675(14) 0.0503(2) 0.44135(11)
C14 C 0.71974(15) -0.0926(3) 0.41309(12)
H15 H 0.7180 -0.1732 0.4512
C15 C 0.66574(16) -0.1177(3) 0.32998(12)
H16 H 0.6286 -0.2167 0.3115
C16 C 0.66529(14) 0.0003(3) 0.27330(11)
C17 C 0.72025(16) 0.1442(3) 0.30046(12)
H17 H 0.7205 0.2259 0.2623
C18 C 0.77502(16) 0.1677(3) 0.38424(12)
H18 H 0.8122 0.2667 0.4027
C19 C 0.5958(2) 0.0880(3) 0.13332(13)
H19 H 0.5494 0.0494 0.0791
H20 H 0.6615 0.1130 0.1321
H21 H 0.5684 0.1875 0.1479
C20 C 0.7392(2) 0.4930(3) 0.52411(17)
H22 H 0.6807 0.4779 0.4721
H23 H 0.7924 0.5517 0.5140
H24 H 0.7192 0.5572 0.5619
N1 N 0.87506(13) 0.2291(2) 0.68909(10)
N2 N 0.83086(12) 0.0815(2) 0.52713(9)
O1 O 0.86188(12) 0.6625(2) 0.92957(10)
O2 O 0.60767(12) -0.0366(2) 0.19251(8)
Zn1 Zn 0.789776(17) 0.27716(3) 0.572760(13)
O1A O 0.63812(12) 0.1625(2) 0.57043(10)
Zn1A Zn 0.710224(17) 0.77716(3) 0.927240(13)
loop_
_geom_bond_atom_site_label_1
_geom_bond_atom_site_label_2
_geom_bond_site_symmetry_1
_geom_bond_site_symmetry_2
C1 H1 1_555 1_555
C2 C1 1_555 1_555
C3 C1 1_555 1_555
C4 C2 1_555 1_555
H2 C4 1_555 1_555
H3 C4 1_555 1_555
H4 C4 1_555 1_555
C5 C3 1_555 1_555
H5 C5 1_555 1_555
H6 C5 1_555 1_555
H7 C5 1_555 1_555
C6 C7 1_555 1_555
C7 H8 1_555 1_555
C8 C7 1_555 1_555
H9 C8 1_555 1_555
C9 C8 1_555 1_555
C10 C9 1_555 1_555
H10 C10 1_555 1_555
C11 C6 1_555 1_555
H11 C11 1_555 1_555
C12 H12 1_555 1_555
H13 C12 1_555 1_555
H14 C12 1_555 1_555
C13 C14 1_555 1_555
C14 H15 1_555 1_555
C15 C14 1_555 1_555
H16 C15 1_555 1_555
C16 C15 1_555 1_555
C17 C16 1_555 1_555
H17 C17 1_555 1_555
C18 C13 1_555 1_555
H18 C18 1_555 1_555
C19 H19 1_555 1_555
H20 C19 1_555 1_555
H21 C19 1_555 1_555
C20 H22 1_555 1_555
H23 C20 1_555 1_555
H24 C20 1_555 1_555
N1 C2 1_555 1_555
N2 C3 1_555 1_555
O1 C9 1_555 1_555
O2 C16 1_555 1_555
Zn1 C20 1_555 1_555
O1A Zn1 1_555 1_555
Zn1A O1 1_555 1_555
C6 N1 1_555 1_555
C10 C11 1_555 1_555
C12 O1 1_555 1_555
C13 N2 1_555 1_555
C17 C18 1_555 1_555
C19 O2 1_555 1_555
N1 Zn1 1_555 1_555
N2 Zn1 1_555 1_555

#END
