
#######################################################################
#
#                 Cambridge Crystallographic Data Centre
#                                CCDC 
#
#######################################################################
#
# If this CIF has been generated from an entry in the Cambridge 
# Structural Database, then it will include bibliographic, chemical, 
# crystal, experimental, refinement or atomic coordinate data resulting 
# from the CCDC's data processing and validation procedures.
#
#######################################################################

data_KUMWIZ
_symmetry_cell_setting           rhombohedral
_symmetry_space_group_name_H-M   'R -3'
_symmetry_Int_Tables_number      148
_space_group_name_Hall           '-R 3'
loop_
_symmetry_equiv_pos_site_id
_symmetry_equiv_pos_as_xyz
1 x,y,z
2 -y,x-y,z
3 -x+y,-x,z
4 2/3+x,1/3+y,1/3+z
5 2/3-y,1/3+x-y,1/3+z
6 2/3-x+y,1/3-x,1/3+z
7 1/3+x,2/3+y,2/3+z
8 1/3-y,2/3+x-y,2/3+z
9 1/3-x+y,2/3-x,2/3+z
10 -x,-y,-z
11 y,-x+y,-z
12 x-y,x,-z
13 1/3-x,2/3-y,2/3-z
14 1/3+y,2/3-x+y,2/3-z
15 1/3+x-y,2/3+x,2/3-z
16 2/3-x,1/3-y,1/3-z
17 2/3+y,1/3-x+y,1/3-z
18 2/3+x-y,1/3+x,1/3-z
_cell_length_a                   24.031(3)
_cell_length_b                   24.031(3)
_cell_length_c                   26.102(4)
_cell_angle_alpha                90
_cell_angle_beta                 90
_cell_angle_gamma                120
_cell_volume                     13054.1
loop_
_atom_site_label
_atom_site_type_symbol
_atom_site_fract_x
_atom_site_fract_y
_atom_site_fract_z
C1 C 0.0218(3) -0.5620(3) 0.2120(2)
H1 H 0.0060 -0.6040 0.2265
H2 H -0.0105 -0.5621 0.1903
H3 H 0.0597 -0.5505 0.1923
C2 C 0.0378(2) -0.5142(2) 0.25417(18)
C3 C 0.0634(2) -0.4452(2) 0.24558(18)
C4 C 0.0697(5) -0.4217(3) 0.1918(2)
H4 H 0.0871 -0.3760 0.1919
H5 H 0.0979 -0.4319 0.1731
H6 H 0.0282 -0.4422 0.1758
C5 C 0.1033(2) -0.34106(19) 0.27894(15)
C6 C 0.0625(2) -0.3184(2) 0.2676(2)
H7 H 0.0189 -0.3473 0.2631
C7 C 0.0852(2) -0.2534(2) 0.2626(2)
H8 H 0.0565 -0.2393 0.2553
C8 C 0.14981(19) -0.20884(19) 0.26801(14)
C9 C 0.1904(2) -0.2319(2) 0.2789(2)
H9 H 0.2341 -0.2032 0.2824
C10 C 0.1673(2) -0.2974(2) 0.2847(2)
H10 H 0.1958 -0.3117 0.2926
C11 C 0.2624(3) 0.1942(3) 0.1656(2)
H11 H 0.2807 0.2386 0.1749
H12 H 0.2189 0.1778 0.1544
H13 H 0.2872 0.1903 0.1385
C12 C 0.2631(2) 0.1564(2) 0.21140(17)
C13 C 0.2385(2) 0.0870(2) 0.21138(16)
C14 C 0.2186(3) 0.0528(3) 0.16159(18)
H14 H 0.2038 0.0080 0.1668
H15 H 0.2545 0.0705 0.1386
H16 H 0.1845 0.0578 0.1472
C15 C 0.2155(2) -0.00714(19) 0.25730(15)
C16 C 0.2578(2) -0.0281(2) 0.2673(2)
H17 H 0.3011 0.0015 0.2722
C17 C 0.2366(2) -0.0933(2) 0.2701(2)
H18 H 0.2662 -0.1065 0.2766
C18 C 0.17309(19) -0.13884(18) 0.26355(14)
C19 C 0.1312(2) -0.1162(2) 0.2547(2)
H19 H 0.0877 -0.1457 0.2508
C20 C 0.1514(2) -0.0518(2) 0.2513(2)
H20 H 0.1218 -0.0383 0.2451
C21 C -0.0910(3) -0.4739(3) 0.3415(3)
C22 C -0.1464(4) -0.4742(5) 0.3192(4)
H21 H -0.1571 -0.4970 0.2873
H22 H -0.1822 -0.4949 0.3423
H23 H -0.1366 -0.4307 0.3134
C23 C 0.2263(2) -0.4114(2) 0.3866(2)
C24 C 0.4611(3) -0.2730(3) 0.5304(2)
N1 N 0.03317(19) -0.52910(16) 0.30158(15)
N2 N 0.07934(17) -0.40863(16) 0.28521(13)
N3 N 0.2856(2) 0.18276(17) 0.25538(15)
N4 N 0.23796(17) 0.06055(16) 0.25515(13)
N5 N -0.0459(3) -0.4706(3) 0.3548(2)
N6 N 0.2562(2) -0.3818(2) 0.4210(2)
N7 N 0.4125(2) -0.2891(2) 0.5102(2)
O1 O 0.01193(19) -0.59058(15) 0.31415(14)
O2 O 0.3110(2) 0.24637(16) 0.25993(14)
H24 H 0.3235 0.2573 0.2894
S1 S 0.18461(8) -0.45276(9) 0.33788(6)
S2 S 0.53024(10) -0.24681(12) 0.55708(9)
Cr1 Cr 0.3333 -0.3333 0.46720(6)
Cu1 Cu 0.06342(3) -0.45787(2) 0.35252(2)
C1L C 0.3115(3) 0.2287(3) 0.4547(2)
C1B C 0.4162(4) -0.0218(3) 0.2120(2)
H1L H 0.3273 0.2707 0.4402
H1B H 0.3900 -0.0060 0.2265
H2L H 0.3438 0.2288 0.4764
H2B H 0.4484 0.0105 0.1903
H3L H 0.2736 0.2172 0.4744
H3B H 0.3898 -0.0597 0.1923
C2L C 0.2955(2) 0.1809(2) 0.41250(18)
C2B C 0.4480(3) -0.0378(2) 0.25417(18)
C3L C 0.2699(2) 0.1119(2) 0.42109(18)
C3B C 0.4914(3) -0.0634(2) 0.24558(18)
C4L C 0.2636(5) 0.0884(3) 0.4749(2)
C4B C 0.5086(6) -0.0697(5) 0.1918(2)
H4L H 0.2462 0.0427 0.4748
H4B H 0.5369 -0.0871 0.1919
H5L H 0.2354 0.0986 0.4936
H5B H 0.4702 -0.0979 0.1731
H6L H 0.3051 0.1089 0.4909
H6B H 0.5296 -0.0282 0.1758
C5L C 0.2300(2) 0.00773(19) 0.38773(15)
C5B C 0.55564(28) -0.1033(2) 0.27894(15)
C6L C 0.2708(2) -0.0149(2) 0.3991(2)
C6B C 0.6191(3) -0.0625(2) 0.2676(2)
H7L H 0.3144 0.0140 0.4036
H7B H 0.6338 -0.0189 0.2631
C7L C 0.2481(2) -0.0799(2) 0.4041(2)
C7B C 0.6614(3) -0.0852(2) 0.2626(2)
H8L H 0.2768 -0.0940 0.4114
H8B H 0.7042 -0.0565 0.2553
C8L C 0.18352(19) -0.12449(19) 0.39866(14)
C8B C 0.64135(27) -0.14981(19) 0.26801(14)
C9L C 0.1429(2) -0.1014(2) 0.3878(2)
C9B C 0.5777(3) -0.1904(2) 0.2789(2)
H9L H 0.0992 -0.1301 0.3843
H9B H 0.5627 -0.2341 0.2824
C10L C 0.1660(2) -0.0359(2) 0.3820(2)
C10B C 0.5353(3) -0.1673(2) 0.2847(2)
H10L H 0.1375 -0.0216 0.3741
H10B H 0.4925 -0.1958 0.2926
C11L C 0.0709(3) -0.5275(3) 0.5011(2)
C11B C 0.9318(4) -0.2624(3) 0.1656(2)
H11L H 0.0526 -0.5719 0.4918
H11B H 0.9579 -0.2807 0.1749
H12L H 0.1144 -0.5111 0.5123
H12B H 0.9589 -0.2189 0.1544
H13L H 0.0461 -0.5236 0.5282
H13B H 0.9031 -0.2872 0.1385
C12L C 0.0702(2) -0.4897(2) 0.45527(17)
C12B C 0.8933(3) -0.2631(2) 0.21140(17)
C13L C 0.0948(2) -0.4203(2) 0.45529(16)
C13B C 0.8485(3) -0.2385(2) 0.21138(16)
C14L C 0.1147(3) -0.3861(3) 0.50508(18)
C14B C 0.8342(4) -0.2186(3) 0.16159(18)
H14L H 0.1295 -0.3413 0.4999
H14B H 0.8042 -0.2038 0.1668
H15L H 0.0788 -0.4038 0.5281
H15B H 0.8160 -0.2545 0.1386
H16L H 0.1488 -0.3911 0.5195
H16B H 0.8733 -0.1845 0.1472
C15L C 0.1178(2) -0.32619(19) 0.40937(15)
C15B C 0.77736(28) -0.2155(2) 0.25730(15)
C16L C 0.0755(2) -0.3052(2) 0.3994(2)
C16B C 0.7141(3) -0.2578(2) 0.2673(2)
H17L H 0.0322 -0.3348 0.3945
H17B H 0.7004 -0.3011 0.2722
C17L C 0.0967(2) -0.2400(2) 0.3966(2)
C17B C 0.6701(3) -0.2366(2) 0.2701(2)
H18L H 0.0671 -0.2268 0.3901
H18B H 0.6273 -0.2662 0.2766
C18L C 0.16024(19) -0.19449(18) 0.40312(14)
C18B C 0.68807(26) -0.17309(19) 0.26355(14)
C19L C 0.2021(2) -0.2171(2) 0.4120(2)
C19B C 0.7526(3) -0.1312(2) 0.2547(2)
H19L H 0.2456 -0.1876 0.4159
H19B H 0.7666 -0.0877 0.2508
C20L C 0.1819(2) -0.2815(2) 0.4154(2)
C20B C 0.7968(3) -0.1514(2) 0.2513(2)
H20L H 0.2115 -0.2950 0.4216
H20B H 0.8399 -0.1218 0.2451
C21B C 0.6171(4) 0.0910(3) 0.3415(3)
C21L C 0.4243(3) 0.1406(3) 0.3252(3)
C22B C 0.6722(6) 0.1464(4) 0.3192(4)
C22L C 0.4797(4) 0.1409(5) 0.3475(4)
H21B H 0.6601 0.1571 0.2873
H21L H 0.4904 0.1637 0.3794
H22B H 0.6873 0.1822 0.3423
H22L H 0.5155 0.1616 0.3244
H23B H 0.7059 0.1366 0.3134
H23L H 0.4699 0.0974 0.3533
C23B C 0.3623(3) -0.2263(2) 0.3866(2)
C23A C 0.4114(2) -0.3623(3) 0.3866(2)
C24B C 0.2659(4) -0.4611(3) 0.5304(2)
C24A C 0.2730(3) -0.2659(4) 0.5304(2)
N1L N 0.30016(19) 0.19577(16) 0.36509(15)
N1B N 0.43773(25) -0.03317(19) 0.30158(15)
N2L N 0.25399(17) 0.07530(16) 0.38146(13)
N2B N 0.51203(23) -0.07934(17) 0.28521(13)
N3L N 0.0477(2) -0.51609(17) 0.41129(15)
N3B N 0.89716(26) -0.2856(2) 0.25538(15)
N3N N 0.43617(26) -0.0477(2) 0.41129(15)
N4L N 0.09537(17) -0.39388(16) 0.41152(13)
N4B N 0.82259(23) -0.23796(17) 0.25515(13)
N4N N 0.51074(23) -0.09537(17) 0.41152(13)
N5B N 0.5753(4) 0.0459(3) 0.3548(2)
N5L N 0.3792(3) 0.1373(3) 0.3119(2)
N6B N 0.3620(3) -0.2562(2) 0.4210(2)
N6A N 0.3818(2) -0.3620(3) 0.4210(2)
N7B N 0.2984(3) -0.4125(2) 0.5102(2)
N7A N 0.2891(2) -0.2984(3) 0.5102(2)
O1L O 0.32140(19) 0.25725(15) 0.35252(14)
O1B O 0.39749(24) -0.01193(19) 0.31415(14)
O2L O 0.0223(2) -0.57970(16) 0.40674(14)
O2B O 0.93537(26) -0.3110(2) 0.25993(14)
H24L H 0.0098 -0.5906 0.3773
H24B H 0.9338 -0.3235 0.2894
S1B S 0.36263(12) -0.18461(8) 0.33788(6)
S1A S 0.45276(9) -0.36263(12) 0.33788(6)
S1L S 0.14872(8) 0.11943(9) 0.32879(6)
S2B S 0.22295(16) -0.53024(10) 0.55708(9)
S2A S 0.24681(12) -0.22295(16) 0.55708(9)
Cu1B Cu 0.47871(4) -0.06342(3) 0.35252(2)
Cu1A Cu 0.45787(2) -0.47871(4) 0.35252(2)
Cu1L Cu 0.26991(3) 0.12454(2) 0.31415(2)
Cu1N Cu 0.85462(4) -0.26991(3) 0.31415(2)
O3 O 0.0000 0.0000 0.4079(11)
loop_
_geom_bond_atom_site_label_1
_geom_bond_atom_site_label_2
_geom_bond_site_symmetry_1
_geom_bond_site_symmetry_2
C1 H1 1_555 1_555
H2 C1 1_555 1_555
H3 C1 1_555 1_555
C2 C1 1_555 1_555
C3 C2 1_555 1_555
C4 C3 1_555 1_555
H4 C4 1_555 1_555
H5 C4 1_555 1_555
H6 C4 1_555 1_555
C5 C6 1_555 1_555
C6 H7 1_555 1_555
C7 C6 1_555 1_555
H8 C7 1_555 1_555
C8 C7 1_555 1_555
C9 C8 1_555 1_555
H9 C9 1_555 1_555
C10 C5 1_555 1_555
H10 C10 1_555 1_555
C11 H11 1_555 1_555
H12 C11 1_555 1_555
H13 C11 1_555 1_555
C12 C11 1_555 1_555
C13 C12 1_555 1_555
C14 C13 1_555 1_555
H14 C14 1_555 1_555
H15 C14 1_555 1_555
H16 C14 1_555 1_555
C15 C16 1_555 1_555
C16 H17 1_555 1_555
C17 C16 1_555 1_555
H18 C17 1_555 1_555
C18 C8 1_555 1_555
C19 C18 1_555 1_555
H19 C19 1_555 1_555
C20 C15 1_555 1_555
H20 C20 1_555 1_555
C21 C22 1_555 1_555
C22 H21 1_555 1_555
H22 C22 1_555 1_555
H23 C22 1_555 1_555
C23 N6 1_555 1_555
C24 N7 1_555 1_555
N1 C2 1_555 1_555
N2 C3 1_555 1_555
N3 C12 1_555 1_555
N4 C13 1_555 1_555
N5 C21 1_555 1_555
N6 Cr1 1_555 1_555
N7 Cr1 1_555 1_555
O1 N1 1_555 1_555
O2 N3 1_555 1_555
H24 O2 1_555 1_555
S1 C23 1_555 1_555
S2 C24 1_555 1_555
Cr1 N6B 1_555 1_555
Cu1 N1 1_555 1_555
C1L H1L 1_555 1_555
C1B H1B 1_555 1_555
H2L C1L 1_555 1_555
H2B C1B 1_555 1_555
H3L C1L 1_555 1_555
H3B C1B 1_555 1_555
C2L C1L 1_555 1_555
C2B C1B 1_555 1_555
C3L C2L 1_555 1_555
C3B C2B 1_555 1_555
C4L C3L 1_555 1_555
C4B C3B 1_555 1_555
H4L C4L 1_555 1_555
H4B C4B 1_555 1_555
H5L C4L 1_555 1_555
H5B C4B 1_555 1_555
H6L C4L 1_555 1_555
H6B C4B 1_555 1_555
C5L C6L 1_555 1_555
C5B C6B 1_555 1_555
C6L H7L 1_555 1_555
C6B H7B 1_555 1_555
C7L C6L 1_555 1_555
C7B C6B 1_555 1_555
H8L C7L 1_555 1_555
H8B C7B 1_555 1_555
C8L C7L 1_555 1_555
C8B C7B 1_555 1_555
C9L C8L 1_555 1_555
C9B C8B 1_555 1_555
H9L C9L 1_555 1_555
H9B C9B 1_555 1_555
C10L C5L 1_555 1_555
C10B C5B 1_555 1_555
H10L C10L 1_555 1_555
H10B C10B 1_555 1_555
C11L H11L 1_555 1_555
C11B H11B 1_555 1_555
H12L C11L 1_555 1_555
H12B C11B 1_555 1_555
H13L C11L 1_555 1_555
H13B C11B 1_555 1_555
C12L C11L 1_555 1_555
C12B C11B 1_555 1_555
C13L C12L 1_555 1_555
C13B C12B 1_555 1_555
C14L C13L 1_555 1_555
C14B C13B 1_555 1_555
H14L C14L 1_555 1_555
H14B C14B 1_555 1_555
H15L C14L 1_555 1_555
H15B C14B 1_555 1_555
H16L C14L 1_555 1_555
H16B C14B 1_555 1_555
C15L C16L 1_555 1_555
C15B C16B 1_555 1_555
C16L H17L 1_555 1_555
C16B H17B 1_555 1_555
C17L C16L 1_555 1_555
C17B C16B 1_555 1_555
H18L C17L 1_555 1_555
H18B C17B 1_555 1_555
C18L C8L 1_555 1_555
C18B C8B 1_555 1_555
C19L C18L 1_555 1_555
C19B C18B 1_555 1_555
H19L C19L 1_555 1_555
H19B C19B 1_555 1_555
C20L C15L 1_555 1_555
C20B C15B 1_555 1_555
H20L C20L 1_555 1_555
H20B C20B 1_555 1_555
C21B C22B 1_555 1_555
C21L C22L 1_555 1_555
C22B H21B 1_555 1_555
C22L H21L 1_555 1_555
H22B C22B 1_555 1_555
H22L C22L 1_555 1_555
H23B C22B 1_555 1_555
H23L C22L 1_555 1_555
C23B N6B 1_555 1_555
C23A N6A 1_555 1_555
C24B N7B 1_555 1_555
C24A N7A 1_555 1_555
N1L C2L 1_555 1_555
N1B C2B 1_555 1_555
N2L C3L 1_555 1_555
N2B C3B 1_555 1_555
N3L Cu1 1_555 1_555
N3B C12B 1_555 1_555
N3N Cu1B 1_555 1_555
N4L Cu1 1_555 1_555
N4B C13B 1_555 1_555
N4N Cu1B 1_555 1_555
N5B C21B 1_555 1_555
N5L C21L 1_555 1_555
N6A Cr1 1_555 1_555
N7B Cr1 1_555 1_555
N7A Cr1 1_555 1_555
O1L N1L 1_555 1_555
O1B N1B 1_555 1_555
O2L N3L 1_555 1_555
O2B N3B 1_555 1_555
H24L O2L 1_555 1_555
H24B O2B 1_555 1_555
S1B C23B 1_555 1_555
S1A C23A 1_555 1_555
S1L Cu1L 1_555 1_555
S2B C24B 1_555 1_555
S2A C24A 1_555 1_555
Cu1B N1B 1_555 1_555
Cu1A S1A 1_555 1_555
Cu1L N3 1_555 1_555
Cu1N N3B 1_555 1_555
C5 N2 1_555 1_555
C9 C10 1_555 1_555
C15 N4 1_555 1_555
C17 C18 1_555 1_555
C19 C20 1_555 1_555
N2 Cu1 1_555 1_555
N4 Cu1L 1_555 1_555
N5 Cu1 1_555 1_555
S1 Cu1 1_555 1_555
C5L N2L 1_555 1_555
C5B N2B 1_555 1_555
C9L C10L 1_555 1_555
C9B C10B 1_555 1_555
C12L N3L 1_555 1_555
C13L N4L 1_555 1_555
C15L N4L 1_555 1_555
C15B N4B 1_555 1_555
C17L C18L 1_555 1_555
C17B C18B 1_555 1_555
C19L C20L 1_555 1_555
C19B C20B 1_555 1_555
N1L Cu1L 1_555 1_555
N2L Cu1L 1_555 1_555
N2B Cu1B 1_555 1_555
N4B Cu1N 1_555 1_555
N5B Cu1B 1_555 1_555
N5L Cu1L 1_555 1_555
S1B Cu1B 1_555 1_555

#END
