
#######################################################################
#
#                 Cambridge Crystallographic Data Centre
#                                CCDC 
#
#######################################################################
#
# If this CIF has been generated from an entry in the Cambridge 
# Structural Database, then it will include bibliographic, chemical, 
# crystal, experimental, refinement or atomic coordinate data resulting 
# from the CCDC's data processing and validation procedures.
#
#######################################################################

data_KUNJEK
_symmetry_cell_setting           monoclinic
_symmetry_space_group_name_H-M   'C c'
_symmetry_Int_Tables_number      9
_space_group_name_Hall           'C -2yc'
loop_
_symmetry_equiv_pos_site_id
_symmetry_equiv_pos_as_xyz
1 x,y,z
2 x,-y,1/2+z
3 1/2+x,1/2+y,z
4 1/2+x,1/2-y,1/2+z
_cell_length_a                   8.007(3)
_cell_length_b                   15.910(5)
_cell_length_c                   13.916(5)
_cell_angle_alpha                90
_cell_angle_beta                 101.318(4)
_cell_angle_gamma                90
_cell_volume                     1738.3
loop_
_atom_site_label
_atom_site_type_symbol
_atom_site_fract_x
_atom_site_fract_y
_atom_site_fract_z
Lu1 Lu 0.33700(3) 0.795392(15) 0.15993(2)
Lu2 Lu 0.59354(2) 0.980325(14) 0.051023(16)
F1 F 0.7701(5) 0.9999(2) -0.0442(3)
F2 F 0.7588(5) 0.9971(2) 0.1909(3)
O1 O 0.3979(6) 0.9984(3) 0.1432(4)
O2 O 0.3894(6) 0.9878(3) -0.0833(3)
O3 O 0.1765(6) 0.9114(3) 0.1266(3)
O4 O 0.4883(5) 0.8387(3) 0.0468(3)
O5 O 0.5168(5) 0.8584(3) 0.2835(3)
O6 O 0.1359(6) 1.0487(3) 0.1216(4)
O7 O 0.1260(5) 0.7547(3) 0.0090(3)
O8 O 0.6528(6) 0.7323(3) 0.0103(3)
O9 O 0.7648(5) 0.8565(3) 0.0659(3)
O10 O 0.6142(5) 0.7425(2) 0.2281(3)
O11 O 0.5518(6) 0.8511(3) -0.1944(3)
O12 O 0.3155(5) 0.6667(2) 0.0909(3)
O13 O 0.1357(6) 0.9285(3) -0.1283(3)
O14 O 0.5920(6) 0.7414(3) -0.2878(3)
O15 O 0.1588(6) 1.0674(3) -0.1320(3)
O16 O 0.0510(5) 0.6219(2) 0.0348(3)
O17 O 0.7914(5) 0.8230(3) 0.3347(3)
O18 O 0.8135(6) 0.7989(3) -0.1924(3)
C1 C 0.2336(8) 0.9880(4) 0.1303(5)
C2 C 0.6462(8) 0.8090(4) 0.2843(4)
C3 C 0.1618(8) 0.6807(4) 0.0434(4)
C4 C 0.2241(8) 0.9955(4) -0.1140(4)
C5 C 0.6499(8) 0.7990(4) -0.2229(5)
C6 C 0.6403(8) 0.8053(4) 0.0418(5)
Na1 Na 0.5874(5) 1.0012(3) 0.3055(2)
Na2 Na 0.3293(4) 0.8190(2) -0.1117(2)
Na3 Na 0.3507(3) 0.8246(2) 0.41002(19)
Na4 Na 0.4659(4) 0.60858(15) -0.0277(2)
Na5 Na 0.4628(3) 0.59833(16) 0.22618(18)
Na6 Na -0.0445(3) 0.88711(16) 0.22427(19)
Na7 Na -0.0443(4) 0.87870(16) -0.0332(2)
Na8 Na 0.3372(4) 1.16559(15) 0.1498(2)
Lu1C Lu 0.83700(3) 0.704608(15) -0.34007(2)
Lu2B Lu 0.09354(2) 0.480325(14) 0.051023(16)
F1_2 F -0.2299(5) 0.9999(2) -0.0442(3)
F1A F 0.7701(5) 1.0001(2) 0.4558(3)
F1B F 0.2701(5) 0.4999(2) -0.0442(3)
F2_2 F -0.2412(5) 0.9971(2) 0.1909(3)
F2B F 0.2588(5) 0.4971(2) 0.1909(3)
O2A O 0.3894(6) 1.0122(3) 0.4167(3)
O6B O 0.6359(6) 0.5487(3) 0.1216(4)
O7C O 0.6260(5) 0.7453(3) 0.5090(3)
O8B O 0.1528(6) 1.2323(3) 0.0103(3)
O8C O 0.1528(6) 0.7677(3) 0.5103(3)
O9_2 O -0.2352(5) 0.8565(3) 0.0659(3)
O10B O 0.1142(5) 1.2425(2) 0.2281(3)
O10C O 0.1142(5) 0.7575(2) -0.2719(3)
O11A O 0.5518(6) 1.1489(3) 0.3056(3)
O13C O 0.6357(6) 0.5715(3) 0.3717(3)
O14A O 0.5920(6) 1.2586(3) 0.2122(3)
O14C O 0.0920(6) 0.7586(3) 0.2122(3)
O15A O 0.1588(6) 0.9326(3) 0.3680(3)
O15B O 0.6588(6) 0.5674(3) -0.1320(3)
O16B O 0.5510(5) 1.1219(2) 0.0348(3)
O16C O 0.5510(5) 0.8781(2) 0.5348(3)
O17_2 O -0.2086(5) 0.8230(3) 0.3347(3)
O17C O 0.2914(5) 0.6770(3) -0.1653(3)
O18_2 O -0.1865(6) 0.7989(3) -0.1924(3)
O18C O 0.3135(6) 0.7011(3) 0.3076(3)
Na1A Na 0.5874(5) 0.9988(3) -0.1945(2)
Na2C Na 0.8293(4) 0.6810(2) 0.3883(2)
Na3A Na 0.3507(3) 1.1754(2) -0.08998(19)
Na3C Na -0.1493(3) 0.6754(2) -0.08998(19)
Na3C_2 Na 0.8507(3) 0.6754(2) -0.08998(19)
Na4B Na -0.0341(4) 1.10858(15) -0.0277(2)
Na4B_2 Na 0.9659(4) 1.10858(15) -0.0277(2)
Na4C Na 0.9659(4) 0.89142(15) 0.4723(2)
Na5B Na -0.0372(3) 1.09833(16) 0.22618(18)
Na5B_2 Na 0.9628(3) 1.09833(16) 0.22618(18)
Na5C Na -0.0372(3) 0.90167(16) -0.27382(18)
Na5C_2 Na 0.9628(3) 0.90167(16) -0.27382(18)
Na6_2 Na 0.9555(3) 0.88711(16) 0.22427(19)
Na6A Na -0.0445(3) 1.11289(16) -0.27573(19)
Na6C Na 0.4555(3) 0.61289(16) -0.27573(19)
Na7_2 Na 0.9557(4) 0.87870(16) -0.0332(2)
Na8A Na 0.3372(4) 0.83441(15) -0.3502(2)
Na8B Na -0.1628(4) 0.66559(15) 0.1498(2)
Na8B_2 Na 0.8372(4) 0.66559(15) 0.1498(2)
loop_
_geom_bond_atom_site_label_1
_geom_bond_atom_site_label_2
_geom_bond_site_symmetry_1
_geom_bond_site_symmetry_2
Lu1 O3 1_555 1_555
Lu2 F1 1_555 1_555
F1 Na1A 1_555 1_555
F2 Lu2 1_555 1_555
O1 Lu2 1_555 1_555
O2 Lu2 1_555 1_555
O3 C1 1_555 1_555
O4 Lu1 1_555 1_555
O5 Lu1 1_555 1_555
O6 C1 1_555 1_555
O7 Lu1 1_555 1_555
O8 C6 1_555 1_555
O9 Lu2 1_555 1_555
O10 Lu1 1_555 1_555
O11 C5 1_555 1_555
O12 Lu1 1_555 1_555
O13 C4 1_555 1_555
O14 C5 1_555 1_555
O15 C4 1_555 1_555
O16 C3 1_555 1_555
O17 C2 1_555 1_555
O18 C5 1_555 1_555
C1 O1 1_555 1_555
C2 O5 1_555 1_555
C3 Lu1 1_555 1_555
C4 O2 1_555 1_555
C6 O4 1_555 1_555
Na1 F2 1_555 1_555
Na2 O2 1_555 1_555
Na3 O5 1_555 1_555
Na4 O8 1_555 1_555
Na5 O10 1_555 1_555
Na6 O3 1_555 1_555
Na7 O3 1_555 1_555
Na8 O1 1_555 1_555
Lu1C O14 1_555 1_555
Lu2B O16 1_555 1_555
F1_2 Na7 1_555 1_555
F1A Na1 1_555 1_555
F1B Na4 1_555 1_555
F2_2 Na6 1_555 1_555
F2B Na5 1_555 1_555
O2A Na1 1_555 1_555
O6B Na4 1_555 1_555
O7C Na3 1_555 1_555
O8B Na8 1_555 1_555
O8C Na3 1_555 1_555
O9_2 Na6 1_555 1_555
O10B Na8 1_555 1_555
O10C Na2 1_555 1_555
O11A Na1 1_555 1_555
O13C Na5 1_555 1_555
O14A Na8 1_555 1_555
O14C Lu1 1_555 1_555
O15A Na3 1_555 1_555
O15B Na4 1_555 1_555
O16B Lu2 1_555 1_555
O16C Na3 1_555 1_555
O17_2 Na6 1_555 1_555
O17C Na2 1_555 1_555
O18_2 Na7 1_555 1_555
O18C Lu1 1_555 1_555
Na1A O2 1_555 1_555
Na2C O10 1_555 1_555
Na3A O2 1_555 1_555
Na3C O7 1_555 1_555
Na3C_2 O8 1_555 1_555
Na4B O6 1_555 1_555
Na4B_2 F1 1_555 1_555
Na4C O17 1_555 1_555
Na5B O6 1_555 1_555
Na5B_2 F2 1_555 1_555
Na5C O13 1_555 1_555
Na5C_2 O18 1_555 1_555
Na6_2 F2 1_555 1_555
Na6A O15 1_555 1_555
Na6C O14 1_555 1_555
Na7_2 F1 1_555 1_555
Na8A O11 1_555 1_555
Na8B O16 1_555 1_555
Na8B_2 O8 1_555 1_555
Lu2 O4 1_555 1_555
O1 Na1 1_555 1_555
O4 Na2 1_555 1_555
O5 Na1 1_555 1_555
O6 Na8 1_555 1_555
O7 C3 1_555 1_555
O7 Na2 1_555 1_555
O7 Na7 1_555 1_555
O9 C6 1_555 1_555
O9 Na6_2 1_555 1_555
O9 Na7_2 1_555 1_555
O10 C2 1_555 1_555
O10 Na8B_2 1_555 1_555
O11 Na2 1_555 1_555
O11 Na1A 1_555 1_555
O12 C3 1_555 1_555
O12 Na4 1_555 1_555
O12 Na5 1_555 1_555
O13 Na2 1_555 1_555
O13 Na7 1_555 1_555
O14 Na8A 1_555 1_555
O15 Na3A 1_555 1_555
O15 Na4B 1_555 1_555
O16 Na3C 1_555 1_555
O17 Na2C 1_555 1_555
O17 Na6_2 1_555 1_555
O18 Lu1C 1_555 1_555
O18 Na3C_2 1_555 1_555
O18 Na7_2 1_555 1_555
Na3 O2A 1_555 1_555
Na3 O18C 1_555 1_555
Na4 O17C 1_555 1_555
Na5 O6B 1_555 1_555
Na5 O18C 1_555 1_555
Na6 O14C 1_555 1_555
Na6 O15A 1_555 1_555
Na7 O9_2 1_555 1_555
Na8 O11A 1_555 1_555
Na8 O16B 1_555 1_555
Lu2B F1B 1_555 1_555
Lu2B F2B 1_555 1_555
F1_2 Na4B 1_555 1_555
F1A Na4C 1_555 1_555
F2_2 Na5B 1_555 1_555
O6B Na8B_2 1_555 1_555
O7C Na2C 1_555 1_555
O8B Na3A 1_555 1_555
O8B Na4B 1_555 1_555
O10B Na5B 1_555 1_555
O10C Na5C 1_555 1_555
O10C Na8A 1_555 1_555
O13C Na2C 1_555 1_555
O14C Na8B 1_555 1_555
O15B Na3C_2 1_555 1_555
O15B Na6C 1_555 1_555
O16B Na3A 1_555 1_555
O17C Na6C 1_555 1_555
O18_2 Na3C 1_555 1_555
O18_2 Na5C 1_555 1_555

#END
