
#######################################################################
#
#                 Cambridge Crystallographic Data Centre
#                                CCDC 
#
#######################################################################
#
# If this CIF has been generated from an entry in the Cambridge 
# Structural Database, then it will include bibliographic, chemical, 
# crystal, experimental, refinement or atomic coordinate data resulting 
# from the CCDC's data processing and validation procedures.
#
#######################################################################

data_KUNJAF
_symmetry_cell_setting           monoclinic
_symmetry_space_group_name_H-M   'C 2/c'
_symmetry_Int_Tables_number      15
_space_group_name_Hall           '-C 2yn'
loop_
_symmetry_equiv_pos_site_id
_symmetry_equiv_pos_as_xyz
1 x,y,z
2 -x,y,1/2-z
3 1/2+x,1/2+y,z
4 1/2-x,1/2+y,1/2-z
5 -x,-y,-z
6 x,-y,1/2+z
7 1/2-x,1/2-y,-z
8 1/2+x,1/2-y,1/2+z
_cell_length_a                   25.775(5)
_cell_length_b                   10.576(2)
_cell_length_c                   22.990(5)
_cell_angle_alpha                90
_cell_angle_beta                 121.24(3)
_cell_angle_gamma                90
_cell_volume                     5358.29
loop_
_atom_site_label
_atom_site_type_symbol
_atom_site_fract_x
_atom_site_fract_y
_atom_site_fract_z
Cu1 Cu 0.00500(3) 0.82802(6) 0.31115(4)
Se1 Se 0.09462(3) 0.79941(5) 0.30080(4)
P1 P -0.00387(7) 1.03139(14) 0.33250(9)
N1 N 0.0035(2) 0.7014(5) 0.3779(3)
C1 C 0.1210(3) 0.6258(5) 0.3193(3)
C2 C 0.1777(3) 0.5951(6) 0.3317(4)
H1 H 0.2032 0.6593 0.3312
C3 C 0.1980(3) 0.4705(7) 0.3450(5)
H2 H 0.2368 0.4504 0.3521
C4 C 0.1632(4) 0.3775(7) 0.3478(5)
H3 H 0.1778 0.2931 0.3578
C5 C 0.1068(4) 0.4070(6) 0.3361(4)
H4 H 0.0819 0.3421 0.3376
C6 C 0.0854(3) 0.5306(6) 0.3221(4)
H5 H 0.0463 0.5499 0.3143
C7 C 0.0474(3) 0.6975(8) 0.4421(4)
H6 H 0.0808 0.7532 0.4560
C8 C 0.0490(4) 0.6192(7) 0.4908(4)
H7 H 0.0834 0.6189 0.5357
C9 C 0.0004(3) 0.5413(5) 0.4741(3)
C10 C -0.0444(3) 0.5460(8) 0.4081(4)
H8 H -0.0790 0.4934 0.3930
C11 C -0.0416(4) 0.6244(8) 0.3621(4)
H9 H -0.0744 0.6226 0.3162
C12 C -0.0619(3) 1.0681(6) 0.3530(4)
C13 C -0.0616(3) 0.9980(6) 0.4033(4)
H10 H -0.0329 0.9316 0.4244
C14 C -0.1030(3) 1.0225(8) 0.4244(4)
H11 H -0.1021 0.9729 0.4593
C15 C -0.1443(3) 1.1176(8) 0.3947(5)
H12 H -0.1722 1.1350 0.4090
C16 C -0.1453(3) 1.1877(9) 0.3440(5)
H13 H -0.1742 1.2539 0.3231
C17 C -0.1048(3) 1.1632(7) 0.3230(4)
H14 H -0.1065 1.2123 0.2874
C18 C 0.0623(3) 1.1108(5) 0.4027(3)
C19 C 0.0585(3) 1.2195(6) 0.4350(4)
H15 H 0.0198 1.2541 0.4214
C20 C 0.1097(3) 1.2767(6) 0.4859(4)
H16 H 0.1062 1.3507 0.5071
C21 C 0.1662(3) 1.2280(6) 0.5067(4)
H17 H 0.2015 1.2681 0.5422
C22 C 0.1718(3) 1.1226(6) 0.4764(4)
H18 H 0.2109 1.0891 0.4907
C23 C 0.1199(3) 1.0637(6) 0.4243(4)
H19 H 0.1241 0.9902 0.4033
C24 C -0.0230(3) 1.1393(6) 0.2621(3)
H20 H -0.0634 1.1163 0.2232
H21 H -0.0258 1.2262 0.2763
Cu1A Cu -0.00500(3) 0.82802(6) 0.18885(4)
Cu1D Cu -0.00500(3) 0.17198(6) 0.68885(4)
Se1A Se -0.09462(3) 0.79941(5) 0.19920(4)
P1A P 0.00387(7) 1.03139(14) 0.16750(9)
N1D N -0.0035(2) 0.2986(5) 0.6221(3)
N1A N -0.0035(2) 0.7014(5) 0.1221(3)
C1A C -0.1210(3) 0.6258(5) 0.1807(3)
C2A C -0.1777(3) 0.5951(6) 0.1683(4)
H1A H -0.2032 0.6593 0.1688
C3A C -0.1980(3) 0.4705(7) 0.1550(5)
H2A H -0.2368 0.4504 0.1479
C4A C -0.1632(4) 0.3775(7) 0.1522(5)
H3A H -0.1778 0.2931 0.1422
C5A C -0.1068(4) 0.4070(6) 0.1639(4)
H4A H -0.0819 0.3421 0.1624
C6A C -0.0854(3) 0.5306(6) 0.1779(4)
H5A H -0.0463 0.5499 0.1857
C7D C -0.0474(3) 0.3025(8) 0.5579(4)
H6D H -0.0808 0.2468 0.5440
C8D C -0.0490(4) 0.3808(7) 0.5092(4)
H7D H -0.0834 0.3811 0.4643
C9D C -0.0004(3) 0.4587(5) 0.5259(3)
C10D C 0.0444(3) 0.4540(8) 0.5919(4)
H8D H 0.0790 0.5066 0.6070
C11D C 0.0416(4) 0.3756(8) 0.6379(4)
H9D H 0.0744 0.3774 0.6838
C12A C 0.0619(3) 1.0681(6) 0.1470(4)
C13A C 0.0616(3) 0.9980(6) 0.0967(4)
H10A H 0.0329 0.9316 0.0756
C14A C 0.1030(3) 1.0225(8) 0.0756(4)
H11A H 0.1021 0.9729 0.0407
C15A C 0.1443(3) 1.1176(8) 0.1053(5)
H12A H 0.1722 1.1350 0.0910
C16A C 0.1453(3) 1.1877(9) 0.1560(5)
H13A H 0.1742 1.2539 0.1769
C17A C 0.1048(3) 1.1632(7) 0.1770(4)
H14A H 0.1065 1.2123 0.2126
C18A C -0.0623(3) 1.1108(5) 0.0973(3)
C19A C -0.0585(3) 1.2195(6) 0.0650(4)
H15A H -0.0198 1.2541 0.0786
C20A C -0.1097(3) 1.2767(6) 0.0141(4)
H16A H -0.1062 1.3507 -0.0071
C21A C -0.1662(3) 1.2280(6) -0.0067(4)
H17A H -0.2015 1.2681 -0.0422
C22A C -0.1718(3) 1.1226(6) 0.0236(4)
H18A H -0.2109 1.0891 0.0093
C23A C -0.1199(3) 1.0637(6) 0.0757(4)
H19A H -0.1241 0.9902 0.0967
C24A C 0.0230(3) 1.1393(6) 0.2379(3)
H20A H 0.0634 1.1163 0.2768
H21A H 0.0258 1.2262 0.2237
O1 O 0.1904(7) 1.4108(16) 0.6397(9)
O2 O 0.2193(8) 1.5446(18) 0.5527(11)
C25 C 0.197(2) 1.306(4) 0.678(2)
H22 H 0.2374 1.2685 0.6941
H23 H 0.1658 1.2440 0.6501
H24 H 0.1941 1.3299 0.7170
C26 C 0.2467(9) 1.464(2) 0.6705(12)
H25 H 0.2787 1.3990 0.6857
H26 H 0.2545 1.5160 0.7102
C27 C 0.2442(13) 1.545(2) 0.6156(17)
H27 H 0.2320 1.6287 0.6243
H28 H 0.2876 1.5550 0.6306
C28 C 0.2131(12) 1.633(2) 0.5138(15)
H29 H 0.1817 1.6106 0.4671
H30 H 0.2516 1.6474 0.5160
H31 H 0.2011 1.7096 0.5277
C29? C 0.1880(12) 1.240(2) 0.6885(16)
C30? C 0.2203(13) 1.446(2) 0.6943(16)
C31? C 0.2462(9) 1.522(2) 0.6500(12)
C32? C 0.2141(12) 1.639(3) 0.5621(16)
H32? H 0.1757 1.1624 0.6614
H33? H 0.1522 1.2821 0.6838
H34? H 0.2162 1.2193 0.7364
H35? H 0.2495 1.4483 0.7440
H36? H 0.1802 1.4773 0.6839
H37? H 0.2637 1.6052 0.6712
H38? H 0.2782 1.4720 0.6490
H39? H 0.1997 1.6289 0.5137
H40? H 0.2584 1.6456 0.5881
H41? H 0.1967 1.7167 0.5686
O3? O 0.2165(9) 1.321(2) 0.6657(12)
O4? O 0.1968(8) 1.5393(16) 0.5841(10)
loop_
_geom_bond_atom_site_label_1
_geom_bond_atom_site_label_2
_geom_bond_site_symmetry_1
_geom_bond_site_symmetry_2
Cu1 Se1 1_555 1_555
Se1 C1 1_555 1_555
P1 Cu1 1_555 1_555
N1 Cu1 1_555 1_555
C1 C2 1_555 1_555
C2 H1 1_555 1_555
C3 C2 1_555 1_555
H2 C3 1_555 1_555
C4 C3 1_555 1_555
H3 C4 1_555 1_555
C5 C4 1_555 1_555
H4 C5 1_555 1_555
C6 C1 1_555 1_555
H5 C6 1_555 1_555
C7 N1 1_555 1_555
H6 C7 1_555 1_555
C8 C7 1_555 1_555
H7 C8 1_555 1_555
C9 C8 1_555 1_555
C10 C9 1_555 1_555
H8 C10 1_555 1_555
C11 N1 1_555 1_555
H9 C11 1_555 1_555
C12 P1 1_555 1_555
C13 C12 1_555 1_555
H10 C13 1_555 1_555
C14 C13 1_555 1_555
H11 C14 1_555 1_555
C15 C14 1_555 1_555
H12 C15 1_555 1_555
C16 C15 1_555 1_555
H13 C16 1_555 1_555
C17 C12 1_555 1_555
H14 C17 1_555 1_555
C18 P1 1_555 1_555
C19 C18 1_555 1_555
H15 C19 1_555 1_555
C20 C19 1_555 1_555
H16 C20 1_555 1_555
C21 C20 1_555 1_555
H17 C21 1_555 1_555
C22 C21 1_555 1_555
H18 C22 1_555 1_555
C23 C18 1_555 1_555
H19 C23 1_555 1_555
C24 P1 1_555 1_555
H20 C24 1_555 1_555
H21 C24 1_555 1_555
O1 C25 1_555 1_555
O2 C27 1_555 1_555
C25 H22 1_555 1_555
H23 C25 1_555 1_555
H24 C25 1_555 1_555
C26 O1 1_555 1_555
H25 C26 1_555 1_555
H26 C26 1_555 1_555
C27 C26 1_555 1_555
H27 C27 1_555 1_555
H28 C27 1_555 1_555
C28 O2 1_555 1_555
H29 C28 1_555 1_555
H30 C28 1_555 1_555
H31 C28 1_555 1_555
Cu1A Se1 1_555 1_555
Cu1D N1D 1_555 1_555
Se1A Cu1 1_555 1_555
P1A Cu1A 1_555 1_555
N1D C7D 1_555 1_555
N1A Cu1A 1_555 1_555
C1A Se1A 1_555 1_555
C2A C1A 1_555 1_555
H1A C2A 1_555 1_555
C3A C2A 1_555 1_555
H2A C3A 1_555 1_555
C4A C3A 1_555 1_555
H3A C4A 1_555 1_555
C5A C4A 1_555 1_555
H4A C5A 1_555 1_555
C6A C1A 1_555 1_555
H5A C6A 1_555 1_555
C7D H6D 1_555 1_555
C8D C7D 1_555 1_555
H7D C8D 1_555 1_555
C9D C9 1_555 1_555
C10D C9D 1_555 1_555
H8D C10D 1_555 1_555
C11D N1D 1_555 1_555
H9D C11D 1_555 1_555
C12A P1A 1_555 1_555
C13A C12A 1_555 1_555
H10A C13A 1_555 1_555
C14A C13A 1_555 1_555
H11A C14A 1_555 1_555
C15A C14A 1_555 1_555
H12A C15A 1_555 1_555
C16A C15A 1_555 1_555
H13A C16A 1_555 1_555
C17A C12A 1_555 1_555
H14A C17A 1_555 1_555
C18A P1A 1_555 1_555
C19A C18A 1_555 1_555
H15A C19A 1_555 1_555
C20A C19A 1_555 1_555
H16A C20A 1_555 1_555
C21A C20A 1_555 1_555
H17A C21A 1_555 1_555
C22A C21A 1_555 1_555
H18A C22A 1_555 1_555
C23A C18A 1_555 1_555
H19A C23A 1_555 1_555
C24A C24 1_555 1_555
H20A C24A 1_555 1_555
H21A C24A 1_555 1_555
C5 C6 1_555 1_555
C10 C11 1_555 1_555
C16 C17 1_555 1_555
C22 C23 1_555 1_555
Cu1A Se1A 1_555 1_555
P1A C24A 1_555 1_555
C5A C6A 1_555 1_555
C8D C9D 1_555 1_555
C10D C11D 1_555 1_555
C16A C17A 1_555 1_555
C22A C23A 1_555 1_555

#END
