
#######################################################################
#
#                 Cambridge Crystallographic Data Centre
#                                CCDC 
#
#######################################################################
#
# If this CIF has been generated from an entry in the Cambridge 
# Structural Database, then it will include bibliographic, chemical, 
# crystal, experimental, refinement or atomic coordinate data resulting 
# from the CCDC's data processing and validation procedures.
#
#######################################################################

data_KUNKEK
_symmetry_cell_setting           triclinic
_symmetry_space_group_name_H-M   'P -1'
_symmetry_Int_Tables_number      2
_space_group_name_Hall           '-P 1'
loop_
_symmetry_equiv_pos_site_id
_symmetry_equiv_pos_as_xyz
1 x,y,z
2 -x,-y,-z
_cell_length_a                   5.9778(12)
_cell_length_b                   8.3606(18)
_cell_length_c                   9.1921(19)
_cell_angle_alpha                83.697(4)
_cell_angle_beta                 72.625(4)
_cell_angle_gamma                72.405(4)
_cell_volume                     417.833
loop_
_atom_site_label
_atom_site_type_symbol
_atom_site_fract_x
_atom_site_fract_y
_atom_site_fract_z
Cu1 Cu 0.5000 0.0000 0.0000
Cu2 Cu 0.59762(10) 0.44409(7) 0.13826(6)
P1 P 0.1464(2) 0.34131(15) 0.15537(13)
C1 C 0.2407(8) 0.2925(6) 0.3278(5)
C2 C 0.1327(9) 0.2008(6) 0.4493(5)
H1 H 0.0042 0.1629 0.4442
C3 C 0.2155(9) 0.1660(7) 0.5770(5)
H2 H 0.1447 0.1040 0.6583
C4 C 0.4070(9) 0.2250(6) 0.5827(5)
C5 C 0.5091(9) 0.3119(6) 0.4568(5)
H3 H 0.6381 0.3508 0.4592
C6 C 0.5063(9) 0.1867(7) 0.7217(5)
N1 N 0.4326(7) 0.3429(5) 0.3318(4)
O1 O 0.1961(6) 0.1796(4) 0.0791(3)
O2 O 0.3105(5) 0.4513(4) 0.0684(3)
O3 O -0.1181(5) 0.4378(4) 0.1996(3)
O4 O 0.6228(7) 0.2779(5) 0.7415(4)
O5 O 0.4600(7) 0.0658(4) 0.7991(4)
O6 O 0.2254(6) -0.1820(4) -0.0027(4)
H4 H 0.1588 -0.2050 0.0895
H5 H 0.1106 -0.1233 -0.0406
Cu1_2 Cu 0.5000 0.0000 1.0000
Cu1_3 Cu 0.5000 0.0000 -1.0000
Cu2A Cu 0.40238(10) -0.44409(7) -0.13826(6)
Cu2A_2 Cu 0.40238(10) 0.55591(7) -0.13826(6)
Cu2_2 Cu -0.40238(10) 0.44409(7) 0.13826(6)
Cu2A_3 Cu 0.40238(10) 0.55591(7) 0.86174(6)
Cu2_3 Cu 0.59762(10) -0.55591(7) 0.13826(6)
Cu2A_4 Cu 1.40238(10) -0.44409(7) -0.13826(6)
Cu2_4 Cu 0.59762(10) -0.55591(7) -0.86174(6)
P1A P 0.8536(2) -0.34131(15) -0.15537(13)
C1A C 0.7593(8) -0.2925(6) -0.3278(5)
C2A C 0.8673(9) -0.2008(6) -0.4493(5)
H1A H 0.9958 -0.1629 -0.4442
C3A C 0.7845(9) -0.1660(7) -0.5770(5)
H2A H 0.8553 -0.1040 -0.6583
C4A C 0.5930(9) -0.2250(6) -0.5827(5)
C5A C 0.4909(9) -0.3119(6) -0.4568(5)
H3A H 0.3619 -0.3508 -0.4592
C6A C 0.4937(9) -0.1867(7) -0.7217(5)
N1A N 0.5674(7) -0.3429(5) -0.3318(4)
O1A O 0.8039(6) -0.1796(4) -0.0791(3)
O2A O 0.6895(5) -0.4513(4) -0.0684(3)
O2A_2 O 0.6895(5) 0.5487(4) -0.0684(3)
O2_2 O 0.3105(5) -0.5487(4) 0.0684(3)
O3A O 1.1181(5) -0.4378(4) -0.1996(3)
O3_2 O 0.8819(5) 0.4378(4) 0.1996(3)
O3A_2 O 0.1181(5) -0.4378(4) -0.1996(3)
O4A O 0.3772(7) -0.2779(5) -0.7415(4)
O4A_2 O 0.3772(7) 0.7221(5) 0.2585(4)
O4_2 O 0.6228(7) -0.7221(5) -0.2585(4)
O5A O 0.5400(7) -0.0658(4) -0.7991(4)
O5_2 O 0.4600(7) 0.0658(4) -0.2009(4)
O5A_2 O 0.5400(7) -0.0658(4) 0.2009(4)
O6A O 0.7746(6) 0.1820(4) 0.0027(4)
H4A H 0.8412 0.2050 -0.0895
H5A H 0.8894 0.1233 0.0406
loop_
_geom_bond_atom_site_label_1
_geom_bond_atom_site_label_2
_geom_bond_site_symmetry_1
_geom_bond_site_symmetry_2
Cu1 O1 1_555 1_555
Cu2 N1 1_555 1_555
P1 C1 1_555 1_555
C1 C2 1_555 1_555
C2 H1 1_555 1_555
C3 C2 1_555 1_555
H2 C3 1_555 1_555
C4 C3 1_555 1_555
C5 C4 1_555 1_555
H3 C5 1_555 1_555
C6 C4 1_555 1_555
N1 C1 1_555 1_555
O1 P1 1_555 1_555
O2 Cu2 1_555 1_555
O3 P1 1_555 1_555
O4 C6 1_555 1_555
O5 C6 1_555 1_555
O6 Cu1 1_555 1_555
H4 O6 1_555 1_555
H5 O6 1_555 1_555
Cu1_2 O5 1_555 1_555
Cu1_3 O5A 1_555 1_555
Cu2A O6 1_555 1_555
Cu2A_2 O2 1_555 1_555
Cu2_2 O3 1_555 1_555
Cu2A_3 O4 1_555 1_555
Cu2_3 O2A 1_555 1_555
Cu2A_4 O3A 1_555 1_555
Cu2_4 O4A 1_555 1_555
P1A C1A 1_555 1_555
C1A C2A 1_555 1_555
C2A H1A 1_555 1_555
C3A C2A 1_555 1_555
H2A C3A 1_555 1_555
C4A C3A 1_555 1_555
C5A C4A 1_555 1_555
H3A C5A 1_555 1_555
C6A C4A 1_555 1_555
N1A Cu2A 1_555 1_555
O1A Cu1 1_555 1_555
O2A Cu2A 1_555 1_555
O2A_2 Cu2 1_555 1_555
O2_2 Cu2A 1_555 1_555
O3A P1A 1_555 1_555
O3_2 Cu2 1_555 1_555
O3A_2 Cu2A 1_555 1_555
O4A C6A 1_555 1_555
O4A_2 Cu2 1_555 1_555
O4_2 Cu2A 1_555 1_555
O5A C6A 1_555 1_555
O5_2 Cu1 1_555 1_555
O5A_2 Cu1 1_555 1_555
O6A Cu1 1_555 1_555
H4A O6A 1_555 1_555
H5A O6A 1_555 1_555
Cu2 O6A 1_555 1_555
P1 O2 1_555 1_555
C5 N1 1_555 1_555
Cu2A_2 O2A_2 1_555 1_555
Cu2_3 O2_2 1_555 1_555
P1A O1A 1_555 1_555
P1A O2A 1_555 1_555
C1A N1A 1_555 1_555
C5A N1A 1_555 1_555

#END
