
#######################################################################
#
#                 Cambridge Crystallographic Data Centre
#                                CCDC 
#
#######################################################################
#
# If this CIF has been generated from an entry in the Cambridge 
# Structural Database, then it will include bibliographic, chemical, 
# crystal, experimental, refinement or atomic coordinate data resulting 
# from the CCDC's data processing and validation procedures.
#
#######################################################################

data_KUNNAK
_symmetry_cell_setting           orthorhombic
_symmetry_space_group_name_H-M   'P b c n'
_symmetry_Int_Tables_number      60
_space_group_name_Hall           '-P 2n 2ab'
loop_
_symmetry_equiv_pos_site_id
_symmetry_equiv_pos_as_xyz
1 x,y,z
2 1/2-x,1/2-y,1/2+z
3 -x,y,1/2-z
4 1/2+x,1/2-y,-z
5 -x,-y,-z
6 1/2+x,1/2+y,1/2-z
7 x,-y,1/2+z
8 1/2-x,1/2+y,z
_cell_length_a                   12.5435(3)
_cell_length_b                   9.6560(2)
_cell_length_c                   16.5414(4)
_cell_angle_alpha                90
_cell_angle_beta                 90
_cell_angle_gamma                90
_cell_volume                     2003.49
loop_
_atom_site_label
_atom_site_type_symbol
_atom_site_fract_x
_atom_site_fract_y
_atom_site_fract_z
Hg1 Hg 0.5000 0.16603(2) 0.7500
Br1 Br 0.68750(5) 0.09484(10) 0.74111(3)
O1 O 0.2176(2) 0.3576(3) 0.9820(2)
N1 N 0.4941(2) 0.3602(4) 0.8458(3)
N2 N 0.2984(2) 0.5638(3) 0.96122(18)
H1 H 0.2915 0.6513 0.9696
C1 C 0.5722(3) 0.4526(5) 0.8407(3)
H2 H 0.6351 0.4275 0.8148
C2 C 0.5638(4) 0.5834(5) 0.8719(3)
H3 H 0.6196 0.6462 0.8667
C3 C 0.4705(4) 0.6205(5) 0.9114(3)
H4 H 0.4624 0.7092 0.9325
C4 C 0.3893(3) 0.5235(4) 0.9190(2)
C5 C 0.4039(3) 0.3948(4) 0.8840(2)
H5 H 0.3491 0.3302 0.8870
C6 C 0.2195(3) 0.4830(4) 0.9907(2)
C7 C 0.1377(3) 0.5580(4) 1.0411(2)
H6 H 0.1316 0.6523 1.0216
H7 H 0.1630 0.5621 1.0965
C8 C 0.0283(3) 0.4920(5) 1.0404(3)
H8 H -0.0149 0.5338 1.0825
H9 H 0.0354 0.3942 1.0527
O1D O -0.2176(2) 0.6424(3) 1.0180(2)
N1D N -0.4941(2) 0.6398(4) 1.1542(3)
N2D N -0.2984(2) 0.4362(3) 1.03878(18)
H1D H -0.2915 0.3487 1.0304
C1D C -0.5722(3) 0.5474(5) 1.1593(3)
H2D H -0.6351 0.5725 1.1852
C2D C -0.5638(4) 0.4166(5) 1.1281(3)
H3D H -0.6196 0.3538 1.1333
C3D C -0.4705(4) 0.3795(5) 1.0886(3)
H4D H -0.4624 0.2908 1.0675
C4D C -0.3893(3) 0.4765(4) 1.0810(2)
C5D C -0.4039(3) 0.6052(4) 1.1160(2)
H5D H -0.3491 0.6698 1.1130
C6D C -0.2195(3) 0.5170(4) 1.0093(2)
C7D C -0.1377(3) 0.4420(4) 0.9589(2)
H6D H -0.1316 0.3477 0.9784
H7D H -0.1630 0.4379 0.9035
C8D C -0.0283(3) 0.5080(5) 0.9596(3)
H8D H 0.0149 0.4662 0.9175
H9D H -0.0354 0.6058 0.9473
Br1B Br 0.31250(5) 0.09484(10) 0.75889(3)
Hg1D Hg -0.5000 0.83397(2) 1.2500
N1B N 0.5059(2) 0.3602(4) 0.6542(3)
loop_
_geom_bond_atom_site_label_1
_geom_bond_atom_site_label_2
_geom_bond_site_symmetry_1
_geom_bond_site_symmetry_2
Hg1 Br1 1_555 1_555
O1 C6 1_555 1_555
N1 Hg1 1_555 1_555
N2 H1 1_555 1_555
C1 N1 1_555 1_555
H2 C1 1_555 1_555
C2 C1 1_555 1_555
H3 C2 1_555 1_555
C3 C2 1_555 1_555
H4 C3 1_555 1_555
C4 N2 1_555 1_555
C5 N1 1_555 1_555
H5 C5 1_555 1_555
C6 N2 1_555 1_555
C7 C6 1_555 1_555
H6 C7 1_555 1_555
H7 C7 1_555 1_555
C8 C7 1_555 1_555
H8 C8 1_555 1_555
H9 C8 1_555 1_555
O1D C6D 1_555 1_555
N1D C1D 1_555 1_555
N2D H1D 1_555 1_555
C1D H2D 1_555 1_555
C2D C1D 1_555 1_555
H3D C2D 1_555 1_555
C3D C2D 1_555 1_555
H4D C3D 1_555 1_555
C4D N2D 1_555 1_555
C5D N1D 1_555 1_555
H5D C5D 1_555 1_555
C6D N2D 1_555 1_555
C7D C6D 1_555 1_555
H6D C7D 1_555 1_555
H7D C7D 1_555 1_555
C8D C8 1_555 1_555
H8D C8D 1_555 1_555
H9D C8D 1_555 1_555
Br1B Hg1 1_555 1_555
Hg1D N1D 1_555 1_555
N1B Hg1 1_555 1_555
C3 C4 1_555 1_555
C4 C5 1_555 1_555
C3D C4D 1_555 1_555
C4D C5D 1_555 1_555
C7D C8D 1_555 1_555

#END
