
#######################################################################
#
#                 Cambridge Crystallographic Data Centre
#                                CCDC 
#
#######################################################################
#
# If this CIF has been generated from an entry in the Cambridge 
# Structural Database, then it will include bibliographic, chemical, 
# crystal, experimental, refinement or atomic coordinate data resulting 
# from the CCDC's data processing and validation procedures.
#
#######################################################################

data_KUNNAK01
_symmetry_cell_setting           tetragonal
_symmetry_space_group_name_H-M   'P 43 21 2'
_symmetry_Int_Tables_number      96
_space_group_name_Hall           'P 4nw 2abw'
loop_
_symmetry_equiv_pos_site_id
_symmetry_equiv_pos_as_xyz
1 x,y,z
2 -x,-y,1/2+z
3 1/2-y,1/2+x,3/4+z
4 1/2+y,1/2-x,1/4+z
5 1/2-x,1/2+y,3/4-z
6 1/2+x,1/2-y,1/4-z
7 y,x,-z
8 -y,-x,1/2-z
_cell_length_a                   8.45900(10)
_cell_length_b                   8.45900(10)
_cell_length_c                   27.3117(5)
_cell_angle_alpha                90
_cell_angle_beta                 90
_cell_angle_gamma                90
_cell_volume                     1954.28
loop_
_atom_site_label
_atom_site_type_symbol
_atom_site_fract_x
_atom_site_fract_y
_atom_site_fract_z
Hg1 Hg 0.63409(2) 0.63409(2) 0.0000
Br1 Br 0.56538(8) 0.58457(7) 0.08670(2)
O1 O 0.5776(4) 1.1144(4) 0.13787(13)
N1 N 0.6573(4) 0.9228(5) 0.00157(17)
N2 N 0.7886(5) 1.2054(5) 0.09519(15)
H1 H 0.8750 1.2586 0.0974
C1 C 0.6862(6) 0.9890(6) 0.0453(2)
H2 H 0.6626 0.9331 0.0737
C2 C 0.7509(6) 1.1401(6) 0.04892(19)
C3 C 0.7826(6) 1.2218(6) 0.0067(2)
H3 H 0.8267 1.3224 0.0085
C4 C 0.7502(7) 1.1574(7) -0.0377(2)
H4 H 0.7691 1.2134 -0.0664
C5 C 0.6874(7) 1.0037(7) -0.0391(2)
H5 H 0.6664 0.9573 -0.0693
C6 C 0.6995(7) 1.1909(6) 0.1364(2)
C7 C 0.7687(8) 1.2752(7) 0.1796(2)
H6 H 0.8829 1.2656 0.1783
H7 H 0.7430 1.3867 0.1771
C8 C 0.7131(7) 1.2159(8) 0.2277(2)
H8 H 0.7319 1.1028 0.2287
H9 H 0.5996 1.2315 0.2293
O1G O 0.8856(4) 1.4224(4) 0.36213(13)
N1G N 1.0772(5) 1.3427(4) 0.49843(17)
N2G N 0.7946(5) 1.2114(5) 0.40481(15)
H1G H 0.7414 1.1250 0.4026
C1G C 1.0110(6) 1.3138(6) 0.4547(2)
H2G H 1.0669 1.3374 0.4263
C2G C 0.8599(6) 1.2491(6) 0.45108(19)
C3G C 0.7782(6) 1.2174(6) 0.4933(2)
H3G H 0.6776 1.1733 0.4915
C4G C 0.8426(7) 1.2498(7) 0.5377(2)
H4G H 0.7866 1.2309 0.5664
C5G C 0.9963(7) 1.3126(7) 0.5391(2)
H5G H 1.0427 1.3336 0.5693
C6G C 0.8091(6) 1.3005(7) 0.3636(2)
C7G C 0.7248(7) 1.2313(8) 0.3204(2)
H6G H 0.7344 1.1171 0.3217
H7G H 0.6133 1.2570 0.3229
C8G C 0.7841(8) 1.2869(7) 0.2723(2)
H8G H 0.8972 1.2681 0.2713
H9G H 0.7685 1.4004 0.2707
Br1F Br 0.58457(7) 0.56538(8) -0.08670(2)
Hg1A Hg 1.36591(2) 1.36591(2) 0.5000
N1F N 0.9228(5) 0.6573(4) -0.00157(17)
loop_
_geom_bond_atom_site_label_1
_geom_bond_atom_site_label_2
_geom_bond_site_symmetry_1
_geom_bond_site_symmetry_2
Hg1 Br1 1_555 1_555
O1 C6 1_555 1_555
N1 Hg1 1_555 1_555
N2 H1 1_555 1_555
C1 N1 1_555 1_555
H2 C1 1_555 1_555
C2 N2 1_555 1_555
C3 C2 1_555 1_555
H3 C3 1_555 1_555
C4 C3 1_555 1_555
H4 C4 1_555 1_555
C5 N1 1_555 1_555
H5 C5 1_555 1_555
C6 N2 1_555 1_555
C7 C6 1_555 1_555
H6 C7 1_555 1_555
H7 C7 1_555 1_555
C8 C7 1_555 1_555
H8 C8 1_555 1_555
H9 C8 1_555 1_555
O1G C6G 1_555 1_555
N1G C1G 1_555 1_555
N2G H1G 1_555 1_555
C1G H2G 1_555 1_555
C2G N2G 1_555 1_555
C3G C2G 1_555 1_555
H3G C3G 1_555 1_555
C4G C3G 1_555 1_555
H4G C4G 1_555 1_555
C5G N1G 1_555 1_555
H5G C5G 1_555 1_555
C6G N2G 1_555 1_555
C7G C6G 1_555 1_555
H6G C7G 1_555 1_555
H7G C7G 1_555 1_555
C8G C8 1_555 1_555
H8G C8G 1_555 1_555
H9G C8G 1_555 1_555
Br1F Hg1 1_555 1_555
Hg1A N1G 1_555 1_555
N1F Hg1 1_555 1_555
C1 C2 1_555 1_555
C4 C5 1_555 1_555
C1G C2G 1_555 1_555
C4G C5G 1_555 1_555
C7G C8G 1_555 1_555

#END
