
#######################################################################
#
#                 Cambridge Crystallographic Data Centre
#                                CCDC 
#
#######################################################################
#
# If this CIF has been generated from an entry in the Cambridge 
# Structural Database, then it will include bibliographic, chemical, 
# crystal, experimental, refinement or atomic coordinate data resulting 
# from the CCDC's data processing and validation procedures.
#
#######################################################################

data_KUNTES
_symmetry_cell_setting           monoclinic
_symmetry_space_group_name_H-M   'P 21/c'
_symmetry_Int_Tables_number      14
_space_group_name_Hall           '-P 2ybc'
loop_
_symmetry_equiv_pos_site_id
_symmetry_equiv_pos_as_xyz
1 x,y,z
2 -x,1/2+y,1/2-z
3 -x,-y,-z
4 x,1/2-y,1/2+z
_cell_length_a                   5.668(2)
_cell_length_b                   7.500(2)
_cell_length_c                   23.104(2)
_cell_angle_alpha                90
_cell_angle_beta                 95.52(2)
_cell_angle_gamma                90
_cell_volume                     977.596
loop_
_atom_site_label
_atom_site_type_symbol
_atom_site_fract_x
_atom_site_fract_y
_atom_site_fract_z
Mn1 Mn 0.5000 0.5000 0.5000
P1 P -0.01495(7) 0.41447(5) 0.42702(2)
O1 O 0.2292(2) 0.3417(2) 0.44544(6)
O2 O -0.2096(2) 0.3624(2) 0.46411(5)
O3 O 0.4996(2) 0.3006(2) 0.56875(6)
N1 N 0.7200(3) 0.0658(3) 0.54666(9)
C1 C -0.1025(3) 0.3505(2) 0.35282(7)
C2 C -0.3257(3) 0.3981(3) 0.32688(8)
C3 C -0.3969(4) 0.3498(3) 0.27000(9)
C4 C -0.2461(4) 0.2532(3) 0.2386(1)
C5 C -0.0258(4) 0.2050(3) 0.2636(1)
C6 C 0.0469(4) 0.2533(3) 0.32030(9)
C7 C 0.5469(3) 0.1395(2) 0.57309(8)
C8 C 0.4081(5) 0.0209(3) 0.6090(1)
H1 H -0.005(3) 0.592(3) 0.4240(8)
H2 H 0.748(5) -0.061(4) 0.547(1)
H3 H 0.788(4) 0.133(3) 0.525(1)
H4 H -0.429(5) 0.454(3) 0.349(1)
H5 H -0.556(4) 0.380(3) 0.251(1)
H6 H -0.296(4) 0.228(3) 0.201(1)
H7 H 0.070(5) 0.152(4) 0.243(1)
H8 H 0.201(4) 0.222(3) 0.335(1)
H9 H 0.475(7) 0.026(4) 0.645(2)
H10 H 0.424(5) -0.115(4) 0.601(1)
H11 H 0.268(6) 0.059(5) 0.611(1)
P1B P 1.01495(7) 0.58553(5) 0.57298(2)
O1B O 0.7708(2) 0.6583(2) 0.55456(6)
O2B O 1.2096(2) 0.6376(2) 0.53589(5)
C1B C 1.1025(3) 0.6495(2) 0.64718(7)
C2B C 1.3257(3) 0.6019(3) 0.67312(8)
C3B C 1.3969(4) 0.6502(3) 0.73000(9)
C4B C 1.2461(4) 0.7468(3) 0.7614(1)
C5B C 1.0258(4) 0.7950(3) 0.7364(1)
C6B C 0.9531(4) 0.7467(3) 0.67970(9)
H1B H 1.005(3) 0.408(3) 0.5760(8)
H4B H 1.429(5) 0.546(3) 0.651(1)
H5B H 1.556(4) 0.620(3) 0.749(1)
H6B H 1.296(4) 0.772(3) 0.799(1)
H7B H 0.930(5) 0.848(4) 0.757(1)
H8B H 0.799(4) 0.778(3) 0.665(1)
O3B O 0.5004(2) 0.6994(2) 0.43125(6)
N1B N 0.2800(3) 0.9342(3) 0.45334(9)
C7B C 0.4531(3) 0.8605(2) 0.42691(8)
C8B C 0.5919(5) 0.9791(3) 0.3910(1)
H2B H 0.252(5) 1.061(4) 0.453(1)
H3B H 0.212(4) 0.867(3) 0.475(1)
H9B H 0.525(7) 0.974(4) 0.355(2)
H10B H 0.576(5) 1.115(4) 0.399(1)
H11B H 0.732(6) 0.941(5) 0.389(1)
O2_2 O 0.7904(2) 0.3624(2) 0.46411(5)
O2B_2 O 0.2096(2) 0.6376(2) 0.53589(5)
Mn1_2 Mn -0.5000 0.5000 0.5000
Mn1_3 Mn 1.5000 0.5000 0.5000
loop_
_geom_bond_atom_site_label_1
_geom_bond_atom_site_label_2
_geom_bond_site_symmetry_1
_geom_bond_site_symmetry_2
Mn1 O1 1_555 1_555
P1 O1 1_555 1_555
O2 P1 1_555 1_555
O3 Mn1 1_555 1_555
N1 C7 1_555 1_555
C1 P1 1_555 1_555
C2 C1 1_555 1_555
C3 C2 1_555 1_555
C4 C3 1_555 1_555
C5 C4 1_555 1_555
C6 C1 1_555 1_555
C7 O3 1_555 1_555
C8 C7 1_555 1_555
H1 P1 1_555 1_555
H2 N1 1_555 1_555
H3 N1 1_555 1_555
H4 C2 1_555 1_555
H5 C3 1_555 1_555
H6 C4 1_555 1_555
H7 C5 1_555 1_555
H8 C6 1_555 1_555
H9 C8 1_555 1_555
H10 C8 1_555 1_555
H11 C8 1_555 1_555
P1B O1B 1_555 1_555
O1B Mn1 1_555 1_555
O2B P1B 1_555 1_555
C1B P1B 1_555 1_555
C2B C1B 1_555 1_555
C3B C2B 1_555 1_555
C4B C3B 1_555 1_555
C5B C4B 1_555 1_555
C6B C1B 1_555 1_555
H1B P1B 1_555 1_555
H4B C2B 1_555 1_555
H5B C3B 1_555 1_555
H6B C4B 1_555 1_555
H7B C5B 1_555 1_555
H8B C6B 1_555 1_555
O3B Mn1 1_555 1_555
N1B C7B 1_555 1_555
C7B O3B 1_555 1_555
C8B C7B 1_555 1_555
H2B N1B 1_555 1_555
H3B N1B 1_555 1_555
H9B C8B 1_555 1_555
H10B C8B 1_555 1_555
H11B C8B 1_555 1_555
O2_2 Mn1 1_555 1_555
O2B_2 Mn1 1_555 1_555
Mn1_2 O2 1_555 1_555
Mn1_3 O2B 1_555 1_555
C5 C6 1_555 1_555
C5B C6B 1_555 1_555

#END
