
#######################################################################
#
#                 Cambridge Crystallographic Data Centre
#                                CCDC 
#
#######################################################################
#
# If this CIF has been generated from an entry in the Cambridge 
# Structural Database, then it will include bibliographic, chemical, 
# crystal, experimental, refinement or atomic coordinate data resulting 
# from the CCDC's data processing and validation procedures.
#
#######################################################################

data_KUNTUJ
_symmetry_cell_setting           triclinic
_symmetry_space_group_name_H-M   'P -1'
_symmetry_Int_Tables_number      2
_space_group_name_Hall           '-P 1'
loop_
_symmetry_equiv_pos_site_id
_symmetry_equiv_pos_as_xyz
1 x,y,z
2 -x,-y,-z
_cell_length_a                   10.275(2)
_cell_length_b                   11.698(2)
_cell_length_c                   14.193(3)
_cell_angle_alpha                67.33(2)
_cell_angle_beta                 81.79(2)
_cell_angle_gamma                77.89(3)
_cell_volume                     1535.49
loop_
_atom_site_label
_atom_site_type_symbol
_atom_site_fract_x
_atom_site_fract_y
_atom_site_fract_z
C1 C 0.1031(3) 0.3176(3) 0.0393(2)
C2 C 0.1945(3) 0.2747(3) -0.0282(3)
H1 H 0.2807 0.2927 -0.0404
C3 C 0.1572(4) 0.2064(4) -0.0760(3)
H2 H 0.2178 0.1809 -0.1224
C4 C 0.0301(4) 0.1740(4) -0.0569(3)
H3 H 0.0063 0.1266 -0.0894
C5 C -0.0589(3) 0.2132(3) 0.0106(3)
H4 H -0.1433 0.1909 0.0245
C6 C -0.0255(3) 0.2863(3) 0.0590(2)
C7 C -0.1226(3) 0.3304(3) 0.1271(2)
C8 C -0.0827(3) 0.4098(3) 0.1664(2)
H5 H -0.1432 0.4448 0.2073
C9 C 0.0429(3) 0.4363(3) 0.1455(2)
H6 H 0.0664 0.4874 0.1746
C10 C 0.2717(3) 0.4156(3) 0.0778(3)
H7 H 0.2690 0.4910 0.0917
H8 H 0.3107 0.4300 0.0086
C11 C 0.3601(3) 0.3057(3) 0.1529(2)
C12 C -0.5380(3) 0.8016(3) 0.2210(2)
C13 C -0.5984(4) 0.9102(3) 0.1445(3)
H9 H -0.6197 0.9864 0.1540
C14 C -0.6253(4) 0.9024(5) 0.0562(3)
H10 H -0.6639 0.9748 0.0053
C15 C -0.5973(4) 0.7904(5) 0.0396(3)
H11 H -0.6179 0.7878 -0.0212
C16 C -0.5397(3) 0.6848(4) 0.1123(3)
H12 H -0.5209 0.6095 0.1013
C17 C -0.5075(3) 0.6874(3) 0.2048(2)
C18 C -0.4420(3) 0.5753(3) 0.2808(3)
C19 C -0.4244(3) 0.5841(3) 0.3732(3)
H13 H -0.3907 0.5123 0.4268
C20 C -0.4558(3) 0.6963(3) 0.3857(3)
H14 H -0.4401 0.6994 0.4475
C21 C -0.5150(3) 0.9205(3) 0.3298(3)
H15 H -0.5332 0.9050 0.4022
H16 H -0.5878 0.9824 0.2938
C22 C -0.3857(4) 0.9728(3) 0.2927(3)
C23 C -0.9548(3) 0.3575(3) 0.4248(2)
C24 C -1.0575(3) 0.4630(3) 0.4004(3)
H17 H -1.1457 0.4529 0.4215
C25 C -1.0272(4) 0.5803(3) 0.3455(3)
H18 H -1.0956 0.6495 0.3293
C26 C -0.8959(4) 0.5981(3) 0.3133(3)
H19 H -0.8766 0.6786 0.2770
C27 C -0.7958(4) 0.4965(4) 0.3354(3)
H20 H -0.7083 0.5085 0.3133
C28 C -0.8220(3) 0.3743(3) 0.3909(2)
C29 C -0.7147(3) 0.2668(3) 0.4138(2)
C30 C -0.7518(3) 0.1494(3) 0.4713(2)
H21 H -0.6869 0.0775 0.4871
C31 C -0.8811(3) 0.1391(3) 0.5043(2)
H22 H -0.9011 0.0598 0.5441
C32 C -1.1177(3) 0.2160(3) 0.5222(2)
H23 H -1.1593 0.2784 0.5515
H24 H -1.1128 0.1341 0.5769
C33 C -1.2058(3) 0.2214(3) 0.4431(2)
N1 N 0.1351(2) 0.3923(2) 0.08486(19)
N2 N -0.5086(3) 0.8030(2) 0.3128(2)
N3 N -0.9817(2) 0.2378(2) 0.48241(18)
O1 O -0.2379(2) 0.2995(2) 0.14761(16)
O2 O 0.3185(2) 0.2070(2) 0.2016(2)
O3 O 0.4724(2) 0.3306(3) 0.15672(18)
O4 O -0.4027(2) 0.4754(2) 0.2620(2)
O5 O -0.2992(3) 0.9261(4) 0.2445(3)
O6 O -0.3802(3) 1.0625(2) 0.3197(2)
O7 O -0.5943(2) 0.2816(3) 0.38461(19)
O8 O -1.1570(2) 0.2052(2) 0.36240(17)
O9 O -1.3289(2) 0.2403(3) 0.46307(18)
Sm1 Sm -0.389750(13) 0.266320(13) 0.290440(11)
O3_2 O -0.5276(2) 0.3306(3) 0.15672(18)
O6_2 O -0.3802(3) 0.0625(2) 0.3197(2)
O8_2 O -0.1570(2) 0.2052(2) 0.36240(17)
O9_2 O -0.3289(2) 0.2403(3) 0.46307(18)
Sm1_2 Sm -0.389750(13) 1.266320(13) 0.290440(11)
Sm1_3 Sm 0.610250(13) 0.266320(13) 0.290440(11)
Sm1_4 Sm -1.389750(13) 0.266320(13) 0.290440(11)
O10 O -0.9059(3) 0.0862(2) 0.2954(2)
H25 H -0.8442 0.1286 0.2668
H26 H -0.9699 0.1350 0.3129
O11 O -0.0220(3) 0.9093(3) 0.2556(2)
H27 H 0.0087 0.9763 0.2422
H28 H -0.1063 0.9297 0.2524
loop_
_geom_bond_atom_site_label_1
_geom_bond_atom_site_label_2
_geom_bond_site_symmetry_1
_geom_bond_site_symmetry_2
C1 C2 1_555 1_555
C2 H1 1_555 1_555
C3 C2 1_555 1_555
H2 C3 1_555 1_555
C4 C3 1_555 1_555
H3 C4 1_555 1_555
C5 C4 1_555 1_555
H4 C5 1_555 1_555
C6 C1 1_555 1_555
C7 C6 1_555 1_555
C8 C7 1_555 1_555
H5 C8 1_555 1_555
C9 C8 1_555 1_555
H6 C9 1_555 1_555
C10 H7 1_555 1_555
H8 C10 1_555 1_555
C11 C10 1_555 1_555
C12 C13 1_555 1_555
C13 H9 1_555 1_555
C14 C13 1_555 1_555
H10 C14 1_555 1_555
C15 C14 1_555 1_555
H11 C15 1_555 1_555
C16 C15 1_555 1_555
H12 C16 1_555 1_555
C17 C12 1_555 1_555
C18 C17 1_555 1_555
C19 C18 1_555 1_555
H13 C19 1_555 1_555
C20 C19 1_555 1_555
H14 C20 1_555 1_555
C21 H15 1_555 1_555
H16 C21 1_555 1_555
C22 C21 1_555 1_555
C23 C24 1_555 1_555
C24 H17 1_555 1_555
C25 C24 1_555 1_555
H18 C25 1_555 1_555
C26 C25 1_555 1_555
H19 C26 1_555 1_555
C27 C26 1_555 1_555
H20 C27 1_555 1_555
C28 C23 1_555 1_555
C29 C28 1_555 1_555
C30 C29 1_555 1_555
H21 C30 1_555 1_555
C31 C30 1_555 1_555
H22 C31 1_555 1_555
C32 H23 1_555 1_555
H24 C32 1_555 1_555
C33 C32 1_555 1_555
N1 C1 1_555 1_555
N2 C12 1_555 1_555
N3 C23 1_555 1_555
O1 C7 1_555 1_555
O2 C11 1_555 1_555
O3 C11 1_555 1_555
O4 C18 1_555 1_555
O5 C22 1_555 1_555
O6 C22 1_555 1_555
O7 C29 1_555 1_555
O8 C33 1_555 1_555
O9 C33 1_555 1_555
Sm1 O1 1_555 1_555
O10 H25 1_555 1_555
H26 O10 1_555 1_555
O11 H27 1_555 1_555
H28 O11 1_555 1_555
O3_2 Sm1 1_555 1_555
O6_2 Sm1 1_555 1_555
O8_2 Sm1 1_555 1_555
O9_2 Sm1 1_555 1_555
Sm1_2 O6 1_555 1_555
Sm1_3 O3 1_555 1_555
Sm1_4 O8 1_555 1_555
C5 C6 1_555 1_555
C9 N1 1_555 1_555
C10 N1 1_555 1_555
C16 C17 1_555 1_555
C20 N2 1_555 1_555
C21 N2 1_555 1_555
C27 C28 1_555 1_555
C31 N3 1_555 1_555
C32 N3 1_555 1_555
O4 Sm1 1_555 1_555
O7 Sm1 1_555 1_555
O9 Sm1_4 1_555 1_555

#END
