
#######################################################################
#
#                 Cambridge Crystallographic Data Centre
#                                CCDC 
#
#######################################################################
#
# If this CIF has been generated from an entry in the Cambridge 
# Structural Database, then it will include bibliographic, chemical, 
# crystal, experimental, refinement or atomic coordinate data resulting 
# from the CCDC's data processing and validation procedures.
#
#######################################################################

data_KUNVUL
_symmetry_cell_setting           monoclinic
_symmetry_space_group_name_H-M   'P 21/n'
_symmetry_Int_Tables_number      14
_space_group_name_Hall           '-P 2yn'
loop_
_symmetry_equiv_pos_site_id
_symmetry_equiv_pos_as_xyz
1 x,y,z
2 1/2-x,1/2+y,1/2-z
3 -x,-y,-z
4 1/2+x,1/2-y,1/2+z
_cell_length_a                   10.314(1)
_cell_length_b                   16.253(1)
_cell_length_c                   13.986(1)
_cell_angle_alpha                90
_cell_angle_beta                 99.615(1)
_cell_angle_gamma                90
_cell_volume                     2311.59
loop_
_atom_site_label
_atom_site_type_symbol
_atom_site_fract_x
_atom_site_fract_y
_atom_site_fract_z
Zn1 Zn 0.46568(4) 0.46377(2) -0.40057(3)
Zn2 Zn 0.13127(3) -0.12651(2) -0.85703(3)
C1 C 0.1815(4) 0.4133(3) -0.3635(3)
H1 H 0.1681 0.4697 -0.3594
C2 C 0.0770(4) 0.3610(3) -0.3587(3)
H2 H -0.0045 0.3817 -0.3504
C3 C 0.0963(4) 0.2780(3) -0.3664(3)
H3 H 0.0275 0.2415 -0.3643
C4 C 0.2186(4) 0.2492(2) -0.3772(3)
H4 H 0.2331 0.1931 -0.3830
C5 C 0.3195(3) 0.3046(2) -0.3793(2)
C6 C 0.4567(3) 0.2845(2) -0.3872(2)
C7 C 0.6594(3) 0.3085(2) -0.3974(3)
H5 H 0.7362 0.3363 -0.4042
C8 C 0.6501(4) 0.2274(2) -0.3825(3)
H6 H 0.7181 0.1893 -0.3775
C9 C 0.4715(4) 0.1283(2) -0.3635(3)
H7 H 0.5452 0.0921 -0.3413
H8 H 0.4171 0.1300 -0.3133
C10 C 0.3917(4) 0.0923(2) -0.4546(3)
C11 C 0.3785(4) 0.1306(2) -0.5431(3)
H9 H 0.4241 0.1790 -0.5496
C12 C 0.2974(3) 0.0973(2) -0.6228(3)
H10 H 0.2874 0.1248 -0.6819
C13 C 0.2316(3) 0.0245(2) -0.6162(3)
C14 C 0.1459(3) -0.0114(2) -0.7039(3)
C15 C 0.2494(4) -0.0153(2) -0.5281(3)
H11 H 0.2089 -0.0657 -0.5225
C16 C 0.3274(4) 0.0192(2) -0.4474(3)
H12 H 0.3361 -0.0076 -0.3879
C17 C 0.3621(3) 0.6492(2) -0.3782(2)
C18 C -0.1191(3) 0.6531(2) -0.3757(3)
C19 C 0.0059(3) 0.7008(2) -0.3776(2)
C20 C 0.1204(3) 0.6581(2) -0.3821(2)
H13 H 0.1177 0.6011 -0.3872
C21 C 0.2393(3) 0.6984(2) -0.3794(2)
C22 C 0.2417(3) 0.7837(2) -0.3739(2)
H14 H 0.3204 0.8118 -0.3734
C23 C 0.1283(3) 0.8268(2) -0.3692(3)
H15 H 0.1307 0.8839 -0.3648
C24 C 0.0101(3) 0.7855(2) -0.3708(3)
H16 H -0.0663 0.8149 -0.3673
N1 N 0.5219(3) 0.21119(17) -0.3762(2)
N2 N 0.5387(3) 0.34409(17) -0.4011(2)
N3 N 0.3005(3) 0.38639(17) -0.3737(2)
O1 O 0.0657(2) 0.03571(15) -0.75424(18)
O2 O 0.1634(2) -0.08654(14) -0.72128(17)
O3 O 0.4694(2) 0.68972(14) -0.36820(17)
O4 O 0.3535(2) 0.57283(14) -0.38617(18)
O5 O -0.2221(2) 0.69638(14) -0.37208(18)
O6 O -0.1167(2) 0.57724(15) -0.3751(2)
O7 O 0.61268(19) 0.53270(13) -0.44766(15)
Zn1C Zn -0.03432(4) 0.03623(2) -0.90057(3)
Zn1B Zn 0.53432(4) 0.53623(2) -0.59943(3)
Zn2C Zn 0.63127(3) 0.62651(2) -0.35703(3)
Zn2C_2 Zn -0.36873(3) 0.62651(2) -0.35703(3)
O1C O 0.5657(2) 0.46429(15) -0.25424(18)
O3C O -0.0306(2) -0.18972(14) -0.86820(17)
O5C O 0.2779(2) -0.19638(14) -0.87208(18)
O7B O 0.38732(19) 0.46730(13) -0.55234(15)
O7C O 0.11268(19) -0.03270(13) -0.94766(15)
loop_
_geom_bond_atom_site_label_1
_geom_bond_atom_site_label_2
_geom_bond_site_symmetry_1
_geom_bond_site_symmetry_2
Zn1 N2 1_555 1_555
Zn2 O2 1_555 1_555
C1 H1 1_555 1_555
C2 C1 1_555 1_555
H2 C2 1_555 1_555
C3 C2 1_555 1_555
H3 C3 1_555 1_555
C4 C3 1_555 1_555
H4 C4 1_555 1_555
C5 C4 1_555 1_555
C6 C5 1_555 1_555
C7 H5 1_555 1_555
C8 C7 1_555 1_555
H6 C8 1_555 1_555
C9 H7 1_555 1_555
H8 C9 1_555 1_555
C10 C9 1_555 1_555
C11 C10 1_555 1_555
H9 C11 1_555 1_555
C12 C11 1_555 1_555
H10 C12 1_555 1_555
C13 C12 1_555 1_555
C14 C13 1_555 1_555
C15 C13 1_555 1_555
H11 C15 1_555 1_555
C16 C10 1_555 1_555
H12 C16 1_555 1_555
C17 C21 1_555 1_555
C18 C19 1_555 1_555
C19 C20 1_555 1_555
C20 H13 1_555 1_555
C21 C20 1_555 1_555
C22 C21 1_555 1_555
H14 C22 1_555 1_555
C23 C22 1_555 1_555
H15 C23 1_555 1_555
C24 C19 1_555 1_555
H16 C24 1_555 1_555
N1 C6 1_555 1_555
N2 C6 1_555 1_555
N3 Zn1 1_555 1_555
O1 C14 1_555 1_555
O2 C14 1_555 1_555
O3 C17 1_555 1_555
O4 Zn1 1_555 1_555
O5 C18 1_555 1_555
O6 C18 1_555 1_555
O7 Zn1 1_555 1_555
Zn1C O1 1_555 1_555
Zn1B O7 1_555 1_555
Zn2C O3 1_555 1_555
Zn2C_2 O5 1_555 1_555
O1C Zn1 1_555 1_555
O3C Zn2 1_555 1_555
O5C Zn2 1_555 1_555
O7B Zn1 1_555 1_555
O7C Zn2 1_555 1_555
C1 N3 1_555 1_555
C5 N3 1_555 1_555
C7 N2 1_555 1_555
C8 N1 1_555 1_555
C9 N1 1_555 1_555
C15 C16 1_555 1_555
C17 O4 1_555 1_555
C23 C24 1_555 1_555
O7 Zn2C 1_555 1_555
Zn1C O7C 1_555 1_555
Zn1B O7B 1_555 1_555

#END
