
#######################################################################
#
#                 Cambridge Crystallographic Data Centre
#                                CCDC 
#
#######################################################################
#
# If this CIF has been generated from an entry in the Cambridge 
# Structural Database, then it will include bibliographic, chemical, 
# crystal, experimental, refinement or atomic coordinate data resulting 
# from the CCDC's data processing and validation procedures.
#
#######################################################################

data_KUNVOF
_symmetry_cell_setting           monoclinic
_symmetry_space_group_name_H-M   'P 21/n'
_symmetry_Int_Tables_number      14
_space_group_name_Hall           '-P 2yn'
loop_
_symmetry_equiv_pos_site_id
_symmetry_equiv_pos_as_xyz
1 x,y,z
2 1/2-x,1/2+y,1/2-z
3 -x,-y,-z
4 1/2+x,1/2-y,1/2+z
_cell_length_a                   10.065(1)
_cell_length_b                   14.493(1)
_cell_length_c                   18.577(1)
_cell_angle_alpha                90
_cell_angle_beta                 100.390(1)
_cell_angle_gamma                90
_cell_volume                     2665.43
loop_
_atom_site_label
_atom_site_type_symbol
_atom_site_fract_x
_atom_site_fract_y
_atom_site_fract_z
Zn1 Zn 0.29226(3) 0.24018(2) 1.171154(16)
C1 C 0.4899(3) 0.1228(2) 1.36971(15)
H1 H 0.5622 0.1122 1.4076
C2 C 0.4927(3) 0.1703(2) 1.30732(15)
H2 H 0.5688 0.1981 1.2949
C3 C 0.2869(3) 0.12451(17) 1.30251(13)
C4 C 0.1411(3) 0.11410(18) 1.27196(14)
C5 C -0.0153(3) 0.1361(2) 1.16741(17)
H3 H -0.0352 0.1534 1.1184
C6 C -0.1205(3) 0.1075(2) 1.20067(19)
H4 H -0.2089 0.1059 1.1751
C7 C -0.0896(3) 0.0817(2) 1.27295(19)
H5 H -0.1576 0.0618 1.2971
C8 C 0.0425(3) 0.0852(2) 1.30982(16)
H6 H 0.0645 0.0686 1.3589
C9 C 0.3147(3) 0.0363(2) 1.42311(14)
H7 H 0.2514 -0.0098 1.3998
H8 H 0.3923 0.0042 1.4503
C10 C 0.2482(3) 0.09159(18) 1.47632(14)
C11 C 0.2552(3) 0.1862(2) 1.48149(17)
H9 H 0.3041 0.2189 1.4519
C12 C 0.1907(4) 0.2335(2) 1.53012(18)
H10 H 0.1966 0.2975 1.5329
C13 C 0.1174(3) 0.18638(18) 1.57462(14)
C14 C 0.1106(3) 0.09122(19) 1.56926(15)
H11 H 0.0611 0.0586 1.5985
C15 C 0.1757(3) 0.04366(19) 1.52141(15)
H12 H 0.1711 -0.0204 1.5193
C16 C 0.0420(3) 0.23878(19) 1.62474(15)
C17 C -0.0399(3) 0.4027(2) 1.18268(15)
H13 H -0.1294 0.4180 1.1643
C18 C 0.0444(3) 0.35488(19) 1.14746(15)
H14 H 0.0224 0.3316 1.1002
C19 C 0.1568(3) 0.38911(17) 1.25513(13)
C20 C 0.2697(3) 0.39884(17) 1.31768(14)
C21 C 0.5056(3) 0.3985(2) 1.36580(17)
H15 H 0.5952 0.3948 1.3598
C22 C 0.4743(3) 0.4086(2) 1.43466(16)
H16 H 0.5419 0.4101 1.4760
C23 C 0.3406(3) 0.4166(2) 1.44046(15)
H17 H 0.3200 0.4261 1.4867
C24 C 0.2388(2) 0.41141(16) 1.38392(12)
H18 H 0.1495 0.4164 1.3903
C25 C -0.0253(3) 0.47623(19) 1.30605(15)
H19 H 0.0452 0.5144 1.3336
H20 H -0.0959 0.5168 1.2817
C26 C -0.0832(3) 0.41462(18) 1.35884(14)
C27 C -0.1121(3) 0.3221(2) 1.34634(15)
H21 H -0.0959 0.2945 1.3036
C28 C -0.1653(3) 0.27013(19) 1.39714(16)
H22 H -0.1837 0.2079 1.3882
C29 C -0.1914(2) 0.30993(18) 1.46105(13)
C30 C -0.1603(3) 0.40271(19) 1.47367(14)
H23 H -0.1748 0.4301 1.5168
C31 C -0.1082(3) 0.45467(19) 1.42312(14)
H24 H -0.0896 0.5169 1.4321
C32 C -0.2515(3) 0.25414(19) 1.51582(15)
N1 N 0.3590(2) 0.09310(15) 1.36598(11)
N2 N 0.3658(2) 0.17110(15) 1.26523(11)
N3 N 0.1127(2) 0.14041(17) 1.20144(13)
N4 N 0.0311(2) 0.42444(15) 1.25036(12)
N5 N 0.1678(2) 0.34610(15) 1.19278(11)
N6 N 0.4021(3) 0.39393(19) 1.30555(15)
O1 O -0.0428(2) 0.19140(14) 1.65333(11)
O2 O 0.0621(2) 0.32218(15) 1.63413(13)
O3 O -0.2771(2) 0.17202(15) 1.50469(11)
O4 O -0.2745(2) 0.30046(14) 1.57154(10)
Zn1C Zn -0.20774(3) 0.25982(2) 1.671154(16)
O1C O 0.4572(2) 0.30860(14) 1.15333(11)
O4C O 0.2255(2) 0.19954(14) 1.07154(10)
loop_
_geom_bond_atom_site_label_1
_geom_bond_atom_site_label_2
_geom_bond_site_symmetry_1
_geom_bond_site_symmetry_2
Zn1 N2 1_555 1_555
C1 H1 1_555 1_555
C2 C1 1_555 1_555
H2 C2 1_555 1_555
C3 C4 1_555 1_555
C4 C8 1_555 1_555
C5 H3 1_555 1_555
C6 C5 1_555 1_555
H4 C6 1_555 1_555
C7 C6 1_555 1_555
H5 C7 1_555 1_555
C8 C7 1_555 1_555
H6 C8 1_555 1_555
C9 H7 1_555 1_555
H8 C9 1_555 1_555
C10 C9 1_555 1_555
C11 C10 1_555 1_555
H9 C11 1_555 1_555
C12 C11 1_555 1_555
H10 C12 1_555 1_555
C13 C12 1_555 1_555
C14 C13 1_555 1_555
H11 C14 1_555 1_555
C15 C10 1_555 1_555
H12 C15 1_555 1_555
C16 C13 1_555 1_555
C17 H13 1_555 1_555
C18 C17 1_555 1_555
H14 C18 1_555 1_555
C19 C20 1_555 1_555
C20 C24 1_555 1_555
C21 H15 1_555 1_555
C22 C21 1_555 1_555
H16 C22 1_555 1_555
C23 C22 1_555 1_555
H17 C23 1_555 1_555
C24 C23 1_555 1_555
H18 C24 1_555 1_555
C25 H19 1_555 1_555
H20 C25 1_555 1_555
C26 C25 1_555 1_555
C27 C26 1_555 1_555
H21 C27 1_555 1_555
C28 C27 1_555 1_555
H22 C28 1_555 1_555
C29 C28 1_555 1_555
C30 C29 1_555 1_555
H23 C30 1_555 1_555
C31 C26 1_555 1_555
H24 C31 1_555 1_555
C32 C29 1_555 1_555
N1 C1 1_555 1_555
N2 C2 1_555 1_555
N3 Zn1 1_555 1_555
N4 C17 1_555 1_555
N5 Zn1 1_555 1_555
N6 C20 1_555 1_555
O1 C16 1_555 1_555
O2 C16 1_555 1_555
O3 C32 1_555 1_555
O4 C32 1_555 1_555
Zn1C O1 1_555 1_555
O1C Zn1 1_555 1_555
O4C Zn1 1_555 1_555
C3 N1 1_555 1_555
C3 N2 1_555 1_555
C4 N3 1_555 1_555
C5 N3 1_555 1_555
C9 N1 1_555 1_555
C14 C15 1_555 1_555
C18 N5 1_555 1_555
C19 N4 1_555 1_555
C19 N5 1_555 1_555
C21 N6 1_555 1_555
C25 N4 1_555 1_555
C30 C31 1_555 1_555
O4 Zn1C 1_555 1_555

#END
