
#######################################################################
#
#                 Cambridge Crystallographic Data Centre
#                                CCDC 
#
#######################################################################
#
# If this CIF has been generated from an entry in the Cambridge 
# Structural Database, then it will include bibliographic, chemical, 
# crystal, experimental, refinement or atomic coordinate data resulting 
# from the CCDC's data processing and validation procedures.
#
#######################################################################

data_KUNWIA
_symmetry_cell_setting           triclinic
_symmetry_space_group_name_H-M   'P -1'
_symmetry_Int_Tables_number      2
_space_group_name_Hall           '-P 1'
loop_
_symmetry_equiv_pos_site_id
_symmetry_equiv_pos_as_xyz
1 x,y,z
2 -x,-y,-z
_cell_length_a                   11.466(1)
_cell_length_b                   13.849(2)
_cell_length_c                   15.676(2)
_cell_angle_alpha                65.389(2)
_cell_angle_beta                 69.664(2)
_cell_angle_gamma                72.967(2)
_cell_volume                     2089.74
loop_
_atom_site_label
_atom_site_type_symbol
_atom_site_fract_x
_atom_site_fract_y
_atom_site_fract_z
Zn1 Zn 1.47414(6) 0.10096(5) -0.72850(5)
Zn2 Zn 1.24776(6) 0.01069(6) -0.33165(6)
Zn3 Zn 1.5000 0.0000 -0.5000
Zn4 Zn 1.85287(7) 0.58336(6) -0.26805(7)
C1 C 2.1885(6) -0.2305(5) -1.2308(5)
H1 H 2.2697 -0.2704 -1.2342
C2 C 2.0813(7) -0.2709(6) -1.1812(6)
H2 H 2.0748 -0.3429 -1.1445
C3 C 2.0349(6) -0.0947(5) -1.2523(5)
C4 C 1.9725(6) 0.0184(6) -1.2842(5)
C5 C 1.8457(6) 0.0543(7) -1.2762(5)
H3 H 1.7895 0.0062 -1.2499
C6 C 1.8044(8) 0.1642(8) -1.3085(6)
H4 H 1.7188 0.1911 -1.3036
C7 C 1.8871(8) 0.2336(8) -1.3473(7)
H5 H 1.8593 0.3078 -1.3676
C8 C 2.0133(7) 0.1908(6) -1.3557(6)
H6 H 2.0712 0.2376 -1.3852
C9 C 1.8514(6) -0.1937(6) -1.1395(5)
H7 H 1.7972 -0.1572 -1.1836
H8 H 1.8423 -0.2690 -1.1098
C10 C 1.8093(6) -0.1452(6) -1.0620(5)
C11 C 1.8936(6) -0.1254(6) -1.0284(5)
H9 H 1.9800 -0.1409 -1.0551
C12 C 1.8491(6) -0.0822(6) -0.9547(5)
H10 H 1.9065 -0.0687 -0.9330
C13 C 1.7219(6) -0.0592(5) -0.9135(5)
C14 C 1.6377(6) -0.0791(6) -0.9471(6)
H11 H 1.5513 -0.0639 -0.9203
C15 C 1.6816(6) -0.1213(6) -1.0200(5)
H12 H 1.6238 -0.1342 -1.0418
C16 C 1.6753(6) -0.0125(5) -0.8347(5)
C17 C 1.6487(7) 0.6736(5) -0.3810(5)
H13 H 1.6775 0.7374 -0.4241
C18 C 1.5386(7) 0.6468(5) -0.3707(5)
H14 H 1.4788 0.6882 -0.4054
C19 C 1.6381(6) 0.5142(5) -0.2685(5)
C20 C 1.6831(6) 0.4127(5) -0.1980(5)
C21 C 1.6195(6) 0.3259(5) -0.1454(5)
H15 H 1.5419 0.3289 -0.1537
C22 C 1.6740(7) 0.2335(6) -0.0796(6)
H16 H 1.6330 0.1745 -0.0431
C23 C 1.7876(8) 0.2323(6) -0.0705(7)
H17 H 1.8261 0.1721 -0.0277
C24 C 1.8455(7) 0.3210(6) -0.1251(6)
H18 H 1.9238 0.3187 -0.1185
C25 C 1.4197(6) 0.4983(5) -0.2634(5)
H19 H 1.3490 0.5546 -0.2801
H20 H 1.4010 0.4670 -0.1930
C26 C 1.4305(6) 0.4121(5) -0.3022(5)
C27 C 1.5279(6) 0.3861(5) -0.3744(5)
H21 H 1.5967 0.4215 -0.4015
C28 C 1.5267(6) 0.3081(5) -0.4085(5)
H22 H 1.5949 0.2910 -0.4564
C29 C 1.4238(6) 0.2564(5) -0.3709(5)
C30 C 1.3255(6) 0.2819(5) -0.2984(5)
H23 H 1.2553 0.2483 -0.2732
C31 C 1.3291(6) 0.3562(5) -0.2625(5)
H24 H 1.2635 0.3694 -0.2113
C32 C 1.4129(6) 0.1745(5) -0.4061(5)
C33 C 1.2527(6) 0.4423(5) -0.9482(6)
C34 C 1.3829(5) 0.4687(5) -0.9745(4)
C35 C 1.4079(6) 0.5667(5) -1.0439(4)
H25 H 1.3459 0.6122 -1.0752
C36 C 1.4778(6) 0.3994(5) -0.9308(4)
C37 C 1.4647(6) 0.2873(5) -0.8621(5)
C38 C 1.2504(5) 0.0567(5) -0.5711(4)
C39 C 1.1178(5) 0.0326(5) -0.5350(4)
C40 C 1.1066(5) -0.0749(5) -0.4866(4)
H26 H 1.1792 -0.1257 -0.4775
C41 C 1.0083(5) 0.1103(5) -0.5490(4)
C42 C 1.0096(6) 0.2299(5) -0.6013(5)
N1 N 2.1590(4) -0.1202(4) -1.2761(4)
N2 N 1.9830(5) -0.1857(5) -1.1950(4)
N3 N 2.0560(5) 0.0854(4) -1.3237(4)
N4 N 1.7105(5) 0.5907(4) -0.3171(4)
N5 N 1.5324(5) 0.5472(4) -0.2995(4)
N6 N 1.7943(5) 0.4110(4) -0.1877(5)
O1 O 1.7544(4) 0.0119(4) -0.8110(3)
O2 O 1.5577(4) 0.0003(3) -0.7968(3)
O3 O 1.3040(4) 0.1510(3) -0.3776(3)
O4 O 1.5078(4) 0.1346(3) -0.4590(3)
O5 O 1.1909(4) 0.4102(4) -0.8632(4)
O6 O 1.2137(6) 0.4587(6) -1.0173(5)
O7 O 1.4075(5) 0.2337(4) -0.8735(5)
O8 O 1.5179(5) 0.2505(4) -0.7943(4)
O9 O 1.3050(4) 0.0693(3) -0.6590(3)
O10 O 1.2983(3) 0.0561(3) -0.5100(3)
O11 O 1.1148(4) 0.2621(3) -0.6401(4)
O12 O 0.9055(4) 0.2921(4) -0.6045(4)
O13 O 1.5744(3) 0.0772(3) -0.6360(3)
O14 O 2.0379(4) 0.5214(4) -0.2874(4)
Zn1A Zn 0.52586(6) -0.10096(5) -0.27150(5)
Zn1A_2 Zn 1.52586(6) 0.89904(5) -1.27150(5)
Zn1A_3 Zn 1.52586(6) -0.10096(5) -0.27150(5)
Zn1_2 Zn 0.47414(6) 0.10096(5) 0.27150(5)
Zn2A Zn 1.75224(6) -0.01069(6) -0.66835(6)
Zn2_2 Zn 2.24776(6) 0.01069(6) -1.33165(6)
Zn2A_2 Zn 0.75224(6) -0.01069(6) -0.66835(6)
Zn2A_3 Zn 0.75224(6) -0.01069(6) 0.33165(6)
Zn3_2 Zn 0.5000 0.0000 -0.5000
Zn4A Zn 1.14713(7) -0.58336(6) -0.73195(7)
Zn4A_2 Zn 1.14713(7) 0.41664(6) -0.73195(7)
Zn4_2 Zn 1.85287(7) 0.58336(6) -1.26805(7)
Zn4_3 Zn 0.85287(7) -0.41664(6) -0.26805(7)
C1_2 C 1.1885(6) -0.2305(5) -0.2308(5)
H1_2 H 1.2697 -0.2704 -0.2342
C2_2 C 1.0813(7) -0.2709(6) -0.1812(6)
H2_2 H 1.0748 -0.3429 -0.1445
C3_2 C 1.0349(6) -0.0947(5) -0.2523(5)
C4_2 C 0.9725(6) 0.0184(6) -0.2842(5)
C5_2 C 0.8457(6) 0.0543(7) -0.2762(5)
H3_2 H 0.7895 0.0062 -0.2499
C6_2 C 0.8044(8) 0.1642(8) -0.3085(6)
H4_2 H 0.7188 0.1911 -0.3036
C7_2 C 0.8871(8) 0.2336(8) -0.3473(7)
H5_2 H 0.8593 0.3078 -0.3676
C8_2 C 1.0133(7) 0.1908(6) -0.3557(6)
H6_2 H 1.0712 0.2376 -0.3852
C9_2 C 0.8514(6) -0.1937(6) -0.1395(5)
H7_2 H 0.7972 -0.1572 -0.1836
H8_2 H 0.8423 -0.2690 -0.1098
C10_2 C 0.8093(6) -0.1452(6) -0.0620(5)
C11_2 C 0.8936(6) -0.1254(6) -0.0284(5)
H9_2 H 0.9800 -0.1409 -0.0551
C12_2 C 0.8491(6) -0.0822(6) 0.0453(5)
H10_2 H 0.9065 -0.0687 0.0670
C13_2 C 0.7219(6) -0.0592(5) 0.0865(5)
C14_2 C 0.6377(6) -0.0791(6) 0.0529(6)
H11_2 H 0.5513 -0.0639 0.0797
C15_2 C 0.6816(6) -0.1213(6) -0.0200(5)
H12_2 H 0.6238 -0.1342 -0.0418
C16_2 C 0.6753(6) -0.0125(5) 0.1653(5)
C17A C 1.3513(7) -0.6736(5) -0.6190(5)
H13A H 1.3225 -0.7374 -0.5759
C18A C 1.4614(7) -0.6468(5) -0.6293(5)
H14A H 1.5212 -0.6882 -0.5946
C19A C 1.3619(6) -0.5142(5) -0.7315(5)
C20A C 1.3169(6) -0.4127(5) -0.8020(5)
C21A C 1.3805(6) -0.3259(5) -0.8546(5)
H15A H 1.4581 -0.3289 -0.8463
C22A C 1.3260(7) -0.2335(6) -0.9204(6)
H16A H 1.3670 -0.1745 -0.9569
C23A C 1.2124(8) -0.2323(6) -0.9295(7)
H17A H 1.1739 -0.1721 -0.9723
C24A C 1.1545(7) -0.3210(6) -0.8749(6)
H18A H 1.0762 -0.3187 -0.8815
C25A C 1.5803(6) -0.4983(5) -0.7366(5)
H19A H 1.6510 -0.5546 -0.7199
H20A H 1.5990 -0.4670 -0.8070
C26A C 1.5695(6) -0.4121(5) -0.6978(5)
C27A C 1.4721(6) -0.3861(5) -0.6256(5)
H21A H 1.4033 -0.4215 -0.5985
C28A C 1.4733(6) -0.3081(5) -0.5915(5)
H22A H 1.4051 -0.2910 -0.5436
C29A C 1.5762(6) -0.2564(5) -0.6291(5)
C30A C 1.6745(6) -0.2819(5) -0.7016(5)
H23A H 1.7447 -0.2483 -0.7268
C31A C 1.6709(6) -0.3562(5) -0.7375(5)
H24A H 1.7365 -0.3694 -0.7887
C32A C 1.5871(6) -0.1745(5) -0.5939(5)
C33A C 1.7473(6) 0.5577(5) -1.0518(6)
C34A C 1.6171(5) 0.5313(5) -1.0255(4)
C35A C 1.5921(6) 0.4333(5) -0.9561(4)
H25A H 1.6541 0.3878 -0.9248
C36A C 1.5222(6) 0.6006(5) -1.0692(4)
C37A C 1.5353(6) 0.7127(5) -1.1379(5)
C38A C 0.7496(5) -0.0567(5) -0.4289(4)
C39A C 0.8822(5) -0.0326(5) -0.4650(4)
C40A C 0.8934(5) 0.0749(5) -0.5134(4)
H26A H 0.8208 0.1257 -0.5225
C41A C 0.9917(5) -0.1103(5) -0.4510(4)
C42A C 0.9904(6) -0.2299(5) -0.3987(5)
N1_2 N 1.1590(4) -0.1202(4) -0.2761(4)
N1A N 1.8410(4) 0.1202(4) -0.7239(4)
N2_2 N 0.9830(5) -0.1857(5) -0.1950(4)
N3_2 N 1.0560(5) 0.0854(4) -0.3237(4)
N3A N 1.9440(5) -0.0854(4) -0.6763(4)
N4A N 1.2895(5) -0.5907(4) -0.6829(4)
N5A N 1.4676(5) -0.5472(4) -0.7005(4)
N6A N 1.2057(5) -0.4110(4) -0.8123(5)
O1_2 O 0.7544(4) 0.0119(4) 0.1890(3)
O1A O 1.2456(4) -0.0119(4) -0.1890(3)
O2_2 O 0.5577(4) 0.0003(3) 0.2032(3)
O2A O 0.4423(4) -0.0003(3) -0.2032(3)
O3A O 1.6960(4) -0.1510(3) -0.6224(3)
O4A O 1.4922(4) -0.1346(3) -0.5410(3)
O5A O 1.8091(4) 0.5898(4) -1.1368(4)
O5A_2 O 1.8091(4) 0.5898(4) -0.1368(4)
O5_2 O 1.1909(4) -0.5898(4) -0.8632(4)
O6A O 1.7863(6) 0.5413(6) -0.9827(5)
O7A O 1.5925(5) 0.7663(4) -1.1265(5)
O7A_2 O 0.5925(5) -0.2337(4) -0.1265(5)
O8A O 1.4821(5) 0.7495(4) -1.2057(4)
O8A_2 O 0.4821(5) -0.2505(4) -0.2057(4)
O9A O 0.6950(4) -0.0693(3) -0.3410(3)
O10A O 0.7017(3) -0.0561(3) -0.4900(3)
O10A_2 O 1.7017(3) -0.0561(3) -0.4900(3)
O11A O 0.8852(4) -0.2621(3) -0.3599(4)
O11A_2 O 1.8852(4) 0.7379(3) -0.3599(4)
O11_2 O 1.1148(4) -0.7379(3) -0.6401(4)
O12A O 1.0945(4) -0.2921(4) -0.3955(4)
O13A O 1.4256(3) -0.0772(3) -0.3640(3)
O13A_2 O 0.4256(3) -0.0772(3) -0.3640(3)
O14A O 0.9621(4) -0.5214(4) -0.7126(4)
O15 O 0.0543(6) 0.4384(5) 0.9012(5)
H27 H -0.016(8) 0.466(7) 0.939(7)
H28 H 0.094(9) 0.431(7) 0.952(8)
loop_
_geom_bond_atom_site_label_1
_geom_bond_atom_site_label_2
_geom_bond_site_symmetry_1
_geom_bond_site_symmetry_2
Zn1 O2 1_555 1_555
Zn2 O3 1_555 1_555
Zn3 O4 1_555 1_555
Zn4 N4 1_555 1_555
C1 H1 1_555 1_555
C2 C1 1_555 1_555
H2 C2 1_555 1_555
C3 C4 1_555 1_555
C4 C5 1_555 1_555
C5 H3 1_555 1_555
C6 C5 1_555 1_555
H4 C6 1_555 1_555
C7 C6 1_555 1_555
H5 C7 1_555 1_555
C8 C7 1_555 1_555
H6 C8 1_555 1_555
C9 H7 1_555 1_555
H8 C9 1_555 1_555
C10 C9 1_555 1_555
C11 C10 1_555 1_555
H9 C11 1_555 1_555
C12 C11 1_555 1_555
H10 C12 1_555 1_555
C13 C12 1_555 1_555
C14 C13 1_555 1_555
H11 C14 1_555 1_555
C15 C10 1_555 1_555
H12 C15 1_555 1_555
C16 C13 1_555 1_555
C17 H13 1_555 1_555
C18 C17 1_555 1_555
H14 C18 1_555 1_555
C19 C20 1_555 1_555
C20 C21 1_555 1_555
C21 H15 1_555 1_555
C22 C21 1_555 1_555
H16 C22 1_555 1_555
C23 C22 1_555 1_555
H17 C23 1_555 1_555
C24 C23 1_555 1_555
H18 C24 1_555 1_555
C25 H19 1_555 1_555
H20 C25 1_555 1_555
C26 C25 1_555 1_555
C27 C26 1_555 1_555
H21 C27 1_555 1_555
C28 C27 1_555 1_555
H22 C28 1_555 1_555
C29 C28 1_555 1_555
C30 C29 1_555 1_555
H23 C30 1_555 1_555
C31 C26 1_555 1_555
H24 C31 1_555 1_555
C32 C29 1_555 1_555
C33 C34 1_555 1_555
C34 C35 1_555 1_555
C35 H25 1_555 1_555
C36 C34 1_555 1_555
C37 C36 1_555 1_555
C38 C39 1_555 1_555
C39 C40 1_555 1_555
C40 H26 1_555 1_555
C41 C39 1_555 1_555
C42 C41 1_555 1_555
N1 C1 1_555 1_555
N2 C2 1_555 1_555
N3 C4 1_555 1_555
N4 C17 1_555 1_555
N5 C18 1_555 1_555
N6 Zn4 1_555 1_555
O1 C16 1_555 1_555
O2 C16 1_555 1_555
O3 C32 1_555 1_555
O4 C32 1_555 1_555
O5 C33 1_555 1_555
O6 C33 1_555 1_555
O7 Zn1 1_555 1_555
O8 Zn1 1_555 1_555
O9 Zn1 1_555 1_555
O10 Zn2 1_555 1_555
O11 C42 1_555 1_555
O12 C42 1_555 1_555
O13 Zn1 1_555 1_555
O14 Zn4 1_555 1_555
O15 H27 1_555 1_555
H28 O15 1_555 1_555
Zn1A O2A 1_555 1_555
Zn1A_2 O7A 1_555 1_555
Zn1A_3 O13A 1_555 1_555
Zn1_2 O2_2 1_555 1_555
Zn2A O1 1_555 1_555
Zn2_2 N1 1_555 1_555
Zn2A_2 O10A 1_555 1_555
Zn2A_3 O1_2 1_555 1_555
Zn3_2 O10A 1_555 1_555
Zn4A N4A 1_555 1_555
Zn4A_2 O5 1_555 1_555
Zn4_2 O5A 1_555 1_555
Zn4_3 O11A 1_555 1_555
C1_2 H1_2 1_555 1_555
C2_2 C1_2 1_555 1_555
H2_2 C2_2 1_555 1_555
C3_2 C4_2 1_555 1_555
C4_2 C5_2 1_555 1_555
C5_2 H3_2 1_555 1_555
C6_2 C5_2 1_555 1_555
H4_2 C6_2 1_555 1_555
C7_2 C6_2 1_555 1_555
H5_2 C7_2 1_555 1_555
C8_2 C7_2 1_555 1_555
H6_2 C8_2 1_555 1_555
C9_2 H7_2 1_555 1_555
H8_2 C9_2 1_555 1_555
C10_2 C9_2 1_555 1_555
C11_2 C10_2 1_555 1_555
H9_2 C11_2 1_555 1_555
C12_2 C11_2 1_555 1_555
H10_2 C12_2 1_555 1_555
C13_2 C12_2 1_555 1_555
C14_2 C13_2 1_555 1_555
H11_2 C14_2 1_555 1_555
C15_2 C10_2 1_555 1_555
H12_2 C15_2 1_555 1_555
C16_2 C13_2 1_555 1_555
C17A H13A 1_555 1_555
C18A C17A 1_555 1_555
H14A C18A 1_555 1_555
C19A C20A 1_555 1_555
C20A C21A 1_555 1_555
C21A H15A 1_555 1_555
C22A C21A 1_555 1_555
H16A C22A 1_555 1_555
C23A C22A 1_555 1_555
H17A C23A 1_555 1_555
C24A C23A 1_555 1_555
H18A C24A 1_555 1_555
C25A H19A 1_555 1_555
H20A C25A 1_555 1_555
C26A C25A 1_555 1_555
C27A C26A 1_555 1_555
H21A C27A 1_555 1_555
C28A C27A 1_555 1_555
H22A C28A 1_555 1_555
C29A C28A 1_555 1_555
C30A C29A 1_555 1_555
H23A C30A 1_555 1_555
C31A C26A 1_555 1_555
H24A C31A 1_555 1_555
C32A C29A 1_555 1_555
C33A C34A 1_555 1_555
C34A C35A 1_555 1_555
C35A C36 1_555 1_555
H25A C35A 1_555 1_555
C36A C35 1_555 1_555
C37A C36A 1_555 1_555
C38A C39A 1_555 1_555
C39A C40A 1_555 1_555
C40A C41 1_555 1_555
H26A C40A 1_555 1_555
C41A C40 1_555 1_555
C42A C41A 1_555 1_555
N1_2 Zn2 1_555 1_555
N1A Zn2A 1_555 1_555
N2_2 C2_2 1_555 1_555
N3_2 Zn2 1_555 1_555
N3A Zn2A 1_555 1_555
N4A C17A 1_555 1_555
N5A C18A 1_555 1_555
N6A Zn4A 1_555 1_555
O1_2 C16_2 1_555 1_555
O1A Zn2 1_555 1_555
O2_2 C16_2 1_555 1_555
O3A Zn2A 1_555 1_555
O4A Zn3 1_555 1_555
O5A C33A 1_555 1_555
O5A_2 Zn4 1_555 1_555
O5_2 Zn4A 1_555 1_555
O6A C33A 1_555 1_555
O7A C37A 1_555 1_555
O7A_2 Zn1A 1_555 1_555
O8A Zn1A_2 1_555 1_555
O8A_2 Zn1A 1_555 1_555
O9A Zn1A 1_555 1_555
O10A C38A 1_555 1_555
O10A_2 Zn3 1_555 1_555
O11A C42A 1_555 1_555
O11A_2 Zn4 1_555 1_555
O11_2 Zn4A 1_555 1_555
O12A C42A 1_555 1_555
O13A Zn2 1_555 1_555
O13A_2 Zn1A 1_555 1_555
O14A Zn4A 1_555 1_555
Zn3 O10 1_555 1_555
Zn3 O13 1_555 1_555
Zn3 O13A 1_555 1_555
C3 N1 1_555 1_555
C3 N2 1_555 1_555
C8 N3 1_555 1_555
C9 N2 1_555 1_555
C14 C15 1_555 1_555
C19 N4 1_555 1_555
C19 N5 1_555 1_555
C20 N6 1_555 1_555
C24 N6 1_555 1_555
C25 N5 1_555 1_555
C30 C31 1_555 1_555
C37 O7 1_555 1_555
C37 O8 1_555 1_555
C38 O9 1_555 1_555
C38 O10 1_555 1_555
N3 Zn2_2 1_555 1_555
O11 Zn4A_2 1_555 1_555
O13 Zn2A 1_555 1_555
Zn2A O10A_2 1_555 1_555
Zn3_2 O13A_2 1_555 1_555
C1_2 N1_2 1_555 1_555
C3_2 N1_2 1_555 1_555
C3_2 N2_2 1_555 1_555
C4_2 N3_2 1_555 1_555
C8_2 N3_2 1_555 1_555
C9_2 N2_2 1_555 1_555
C14_2 C15_2 1_555 1_555
C19A N4A 1_555 1_555
C19A N5A 1_555 1_555
C20A N6A 1_555 1_555
C24A N6A 1_555 1_555
C25A N5A 1_555 1_555
C30A C31A 1_555 1_555
C32A O3A 1_555 1_555
C32A O4A 1_555 1_555
C34A C36A 1_555 1_555
C37A O8A 1_555 1_555
C38A O9A 1_555 1_555
C39A C41A 1_555 1_555

#END
