
#######################################################################
#
#                 Cambridge Crystallographic Data Centre
#                                CCDC 
#
#######################################################################
#
# If this CIF has been generated from an entry in the Cambridge 
# Structural Database, then it will include bibliographic, chemical, 
# crystal, experimental, refinement or atomic coordinate data resulting 
# from the CCDC's data processing and validation procedures.
#
#######################################################################

data_KUPHUY01
_symmetry_cell_setting           triclinic
_symmetry_space_group_name_H-M   'P -1'
_symmetry_Int_Tables_number      2
_space_group_name_Hall           '-P 1'
loop_
_symmetry_equiv_pos_site_id
_symmetry_equiv_pos_as_xyz
1 x,y,z
2 -x,-y,-z
_cell_length_a                   7.5428(7)
_cell_length_b                   7.8639(7)
_cell_length_c                   9.8375(9)
_cell_angle_alpha                66.481(7)
_cell_angle_beta                 68.625(8)
_cell_angle_gamma                75.535(7)
_cell_volume                     494.508
loop_
_atom_site_label
_atom_site_type_symbol
_atom_site_fract_x
_atom_site_fract_y
_atom_site_fract_z
C1 C 0.7015(2) 0.4141(2) 0.19986(19)
H1 H 0.7212 0.2968 0.2723
C2 C 0.7629(2) 0.4305(2) 0.04466(19)
C3 C 0.7362(3) 0.6052(3) -0.0637(2)
H2 H 0.7749 0.6225 -0.1690
C4 C 0.6505(4) 0.7530(3) -0.0107(2)
H3 H 0.6319 0.8724 -0.0808
C5 C 0.5926(3) 0.7235(3) 0.1456(2)
H4 H 0.5345 0.8249 0.1789
C6 C 0.8505(3) 0.2554(2) 0.0083(2)
C7 C 0.8774(2) 0.2439(2) 0.50466(18)
C8 C 0.9780(2) 0.0479(2) 0.55974(19)
H5 H 0.8970 -0.0241 0.6587
H6 H 1.0965 0.0533 0.5745
N1 N 0.6163(2) 0.55551(19) 0.25189(16)
N2 N 0.9521(3) 0.2694(2) -0.1364(2)
O1 O 0.8260(2) 0.10323(18) 0.11454(17)
O2 O 0.69468(16) 0.25847(15) 0.54096(14)
O3 O 0.97286(19) 0.37656(17) 0.42614(18)
Co1 Co 0.5000 0.5000 0.5000
H7 H 0.980(4) 0.375(3) -0.206(3)
H8 H 1.019(3) 0.168(3) -0.151(3)
O4 O 0.67944(18) 0.67715(18) 0.48774(16)
H9 H 0.637(3) 0.747(3) 0.542(3)
H10 H 0.784(3) 0.623(3) 0.497(3)
C1A C 0.2985(2) 0.5859(2) 0.80014(19)
H1A H 0.2788 0.7032 0.7277
C2A C 0.2371(2) 0.5695(2) 0.95534(19)
C3A C 0.2638(3) 0.3948(3) 1.0637(2)
H2A H 0.2251 0.3775 1.1690
C4A C 0.3495(4) 0.2470(3) 1.0107(2)
H3A H 0.3681 0.1276 1.0808
C5A C 0.4074(3) 0.2765(3) 0.8544(2)
H4A H 0.4655 0.1751 0.8211
C6A C 0.1495(3) 0.7446(2) 0.9917(2)
C7A C 1.1226(2) -0.2439(2) 0.49534(18)
C8A C 1.0220(2) -0.0479(2) 0.44026(19)
H5A H 1.1030 0.0241 0.3413
H6A H 0.9035 -0.0533 0.4255
N1A N 0.3837(2) 0.44449(19) 0.74811(16)
N2A N 0.0479(3) 0.7306(2) 1.1364(2)
O1A O 0.1740(2) 0.89677(18) 0.88546(17)
O2A O 1.30532(16) -0.25847(15) 0.45904(14)
O2A_2 O 0.30532(16) 0.74153(15) 0.45904(14)
O3A O 1.02714(19) -0.37656(17) 0.57386(18)
Co1_2 Co 1.5000 -0.5000 0.5000
H7A H 0.020(4) 0.625(3) 1.206(3)
H8A H -0.019(3) 0.832(3) 1.151(3)
O4A O 0.32056(18) 0.32285(18) 0.51226(16)
H9A H 0.363(3) 0.253(3) 0.458(3)
H10A H 0.216(3) 0.377(3) 0.503(3)
O5 O 0.5463(2) -0.08614(19) 0.66304(17)
H11 H 0.434(3) -0.081(4) 0.725(3)
H12 H 0.587(3) 0.017(3) 0.625(3)
loop_
_geom_bond_atom_site_label_1
_geom_bond_atom_site_label_2
_geom_bond_site_symmetry_1
_geom_bond_site_symmetry_2
C1 H1 1_555 1_555
C2 C1 1_555 1_555
C3 C2 1_555 1_555
H2 C3 1_555 1_555
C4 C3 1_555 1_555
H3 C4 1_555 1_555
C5 C4 1_555 1_555
H4 C5 1_555 1_555
C6 C2 1_555 1_555
C7 C8 1_555 1_555
C8 H5 1_555 1_555
H6 C8 1_555 1_555
N1 C1 1_555 1_555
N2 C6 1_555 1_555
O1 C6 1_555 1_555
O2 C7 1_555 1_555
O3 C7 1_555 1_555
Co1 N1 1_555 1_555
H7 N2 1_555 1_555
H8 N2 1_555 1_555
O4 Co1 1_555 1_555
H9 O4 1_555 1_555
H10 O4 1_555 1_555
O5 H11 1_555 1_555
H12 O5 1_555 1_555
C1A H1A 1_555 1_555
C2A C1A 1_555 1_555
C3A C2A 1_555 1_555
H2A C3A 1_555 1_555
C4A C3A 1_555 1_555
H3A C4A 1_555 1_555
C5A C4A 1_555 1_555
H4A C5A 1_555 1_555
C6A C2A 1_555 1_555
C7A C8A 1_555 1_555
C8A C8 1_555 1_555
H5A C8A 1_555 1_555
H6A C8A 1_555 1_555
N1A Co1 1_555 1_555
N2A C6A 1_555 1_555
O1A C6A 1_555 1_555
O2A C7A 1_555 1_555
O2A_2 Co1 1_555 1_555
O3A C7A 1_555 1_555
Co1_2 O2A 1_555 1_555
H7A N2A 1_555 1_555
H8A N2A 1_555 1_555
O4A Co1 1_555 1_555
H9A O4A 1_555 1_555
H10A O4A 1_555 1_555
C5 N1 1_555 1_555
O2 Co1 1_555 1_555
C1A N1A 1_555 1_555
C5A N1A 1_555 1_555

#END
