
#######################################################################
#
#                 Cambridge Crystallographic Data Centre
#                                CCDC 
#
#######################################################################
#
# If this CIF has been generated from an entry in the Cambridge 
# Structural Database, then it will include bibliographic, chemical, 
# crystal, experimental, refinement or atomic coordinate data resulting 
# from the CCDC's data processing and validation procedures.
#
#######################################################################

data_KUPHUY
_symmetry_cell_setting           triclinic
_symmetry_space_group_name_H-M   'P -1'
_symmetry_Int_Tables_number      2
_space_group_name_Hall           '-P 1'
loop_
_symmetry_equiv_pos_site_id
_symmetry_equiv_pos_as_xyz
1 x,y,z
2 -x,-y,-z
_cell_length_a                   7.549(3)
_cell_length_b                   7.866(3)
_cell_length_c                   9.858(3)
_cell_angle_alpha                68.36(2)
_cell_angle_beta                 99.56(2)
_cell_angle_gamma                75.69(2)
_cell_volume                     505.273
loop_
_atom_site_label
_atom_site_type_symbol
_atom_site_fract_x
_atom_site_fract_y
_atom_site_fract_z
Co1 Co 0.0000 0.5000 0.5000
O1 O -0.1784(6) 0.3337(6) 0.4898(5)
O2 O -0.1938(5) 0.7003(5) 0.5410(5)
O3 O -0.3261(7) 1.2824(6) 0.1146(5)
O4 O -0.4734(6) 0.6973(7) 0.4262(6)
N1 N -0.1165(7) 0.6923(6) 0.2516(5)
N2 N -0.4518(8) 1.3682(7) -0.1367(6)
C1 C -0.0906(11) 0.6302(9) 0.1455(7)
C2 C -0.1510(12) 0.7580(9) -0.0102(8)
C3 C -0.2370(10) 0.9598(9) -0.0643(7)
C4 C -0.2633(8) 1.0243(8) 0.0454(7)
C5 C -0.2016(8) 0.8870(8) 0.2000(6)
C6 C -0.3488(9) 1.2351(8) 0.0084(7)
C7 C -0.3762(8) 0.7513(8) 0.5049(6)
C8 C -0.4793(8) 0.8915(7) 0.5600(7)
O1A O 0.1784(6) 0.6663(6) 0.5102(5)
O2A O 0.1938(5) 0.2997(5) 0.4590(5)
N1A N 0.1165(7) 0.3077(6) 0.7484(5)
C8A C -0.5207(8) 1.1085(7) 0.4400(7)
C1A C 0.0906(11) 0.3698(9) 0.8545(7)
C5A C 0.2016(8) 0.1130(8) 0.8000(6)
C7A C -0.6238(8) 1.2487(8) 0.4951(6)
C2A C 0.1510(12) 0.2420(9) 1.0102(8)
C4A C 0.2633(8) -0.0243(8) 0.9546(7)
C3A C 0.2370(10) 0.0402(9) 1.0643(7)
C6A C 0.3488(9) -0.2351(8) 0.9916(7)
O3A O 0.3261(7) -0.2824(6) 0.8854(5)
N2A N 0.4518(8) -0.3682(7) 1.1367(6)
O2A_2 O -0.8062(5) 1.2997(5) 0.4590(5)
O4A O -0.5266(6) 1.3027(7) 0.5738(6)
Co1_2 Co -1.0000 1.5000 0.5000
O5 O -0.0451(7) 0.9223(6) 0.6636(5)
loop_
_geom_bond_atom_site_label_1
_geom_bond_atom_site_label_2
_geom_bond_site_symmetry_1
_geom_bond_site_symmetry_2
Co1 O1 1_555 1_555
O2 Co1 1_555 1_555
O3 C6 1_555 1_555
O4 C7 1_555 1_555
N1 Co1 1_555 1_555
N2 C6 1_555 1_555
C1 N1 1_555 1_555
C2 C1 1_555 1_555
C3 C2 1_555 1_555
C4 C3 1_555 1_555
C5 N1 1_555 1_555
C6 C4 1_555 1_555
C7 O2 1_555 1_555
C8 C7 1_555 1_555
O1A Co1 1_555 1_555
O2A Co1 1_555 1_555
N1A Co1 1_555 1_555
C8A C8 1_555 1_555
C1A N1A 1_555 1_555
C5A N1A 1_555 1_555
C7A C8A 1_555 1_555
C2A C1A 1_555 1_555
C4A C5A 1_555 1_555
C3A C2A 1_555 1_555
C6A C4A 1_555 1_555
O3A C6A 1_555 1_555
N2A C6A 1_555 1_555
O2A_2 C7A 1_555 1_555
O4A C7A 1_555 1_555
Co1_2 O2A_2 1_555 1_555
C4 C5 1_555 1_555
C4A C3A 1_555 1_555

#END
