
#######################################################################
#
#                 Cambridge Crystallographic Data Centre
#                                CCDC 
#
#######################################################################
#
# If this CIF has been generated from an entry in the Cambridge 
# Structural Database, then it will include bibliographic, chemical, 
# crystal, experimental, refinement or atomic coordinate data resulting 
# from the CCDC's data processing and validation procedures.
#
#######################################################################

data_KUPRIX
_symmetry_cell_setting           monoclinic
_symmetry_space_group_name_H-M   'P 21/c'
_symmetry_Int_Tables_number      14
_space_group_name_Hall           '-P 2ybc'
loop_
_symmetry_equiv_pos_site_id
_symmetry_equiv_pos_as_xyz
1 x,y,z
2 -x,1/2+y,1/2-z
3 -x,-y,-z
4 x,1/2-y,1/2+z
_cell_length_a                   7.8410(10)
_cell_length_b                   31.561(6)
_cell_length_c                   15.281(3)
_cell_angle_alpha                90
_cell_angle_beta                 93.11(3)
_cell_angle_gamma                90
_cell_volume                     3776.02
loop_
_atom_site_label
_atom_site_type_symbol
_atom_site_fract_x
_atom_site_fract_y
_atom_site_fract_z
Mn1 Mn 0.00126(4) 0.095443(9) 0.824682(18)
Mn2 Mn -0.74363(4) 0.137910(9) 0.682990(18)
Mn3 Mn 0.12153(4) 0.195011(9) 0.846582(18)
O1 O 0.39574(19) 0.18001(5) 0.89713(10)
H1 H 0.4439 0.1636 0.8630
O2 O -0.50966(18) 0.12973(5) 0.76066(10)
O3 O 0.12890(16) 0.14194(4) 0.78477(8)
O4 O -0.23076(18) 0.12230(5) 0.76577(10)
O5 O 0.3593(2) 0.13485(5) 0.57690(10)
N1 N -0.7896(2) 0.22341(5) 0.74616(10)
O6 O -0.10176(19) 0.04786(5) 0.86845(9)
N2 N 0.0839(2) 0.06073(5) 0.72645(11)
N3 N 0.0225(2) 0.16520(5) 0.94645(11)
O7 O -0.8795(2) 0.24658(4) 0.90553(9)
O8 O -0.15333(19) 0.20508(5) 0.79090(10)
H2 H -0.1986 0.1816 0.7786
N4 N 0.1794(2) 0.07998(5) 0.66565(10)
N5 N -0.0268(2) 0.12402(5) 0.93501(10)
C1 C 0.2096(3) 0.05214(6) 0.60137(13)
C2 C -0.2271(3) -0.00315(6) 0.95734(14)
C3 C 0.4548(3) 0.11548(7) 0.43958(13)
C4 C 0.3286(3) 0.03320(8) 0.45951(15)
H3 H 0.2861 0.0053 0.4666
C5 C -0.1608(2) 0.03872(6) 0.94618(13)
C6 C 0.5160(3) 0.15668(8) 0.42602(15)
H4 H 0.5053 0.1776 0.4702
C7 C -0.9784(3) 0.35998(7) 0.89427(16)
C8 C -0.0179(3) 0.17691(7) 1.02697(14)
H5 H 0.0021 0.2041 1.0520
C9 C -0.9653(3) 0.31777(7) 0.92570(13)
N6 N -0.7225(2) 0.20081(5) 0.68046(10)
C10 C -0.0982(3) 0.11015(7) 1.00827(12)
C11 C -0.7699(3) 0.26517(6) 0.73180(13)
C12 C -0.2939(3) -0.07303(7) 0.89982(18)
H6 H -0.2972 -0.0926 0.8525
C13 C -0.8923(3) 0.28560(6) 0.87258(13)
C14 C -0.3779(2) 0.10781(6) 0.75001(13)
C15 C -1.0247(3) 0.30834(7) 1.00891(15)
H7 H -1.0164 0.2802 1.0306
C16 C -0.9187(3) 0.37004(7) 0.81140(16)
H8 H -0.9262 0.3983 0.7903
C17 C -0.8373(3) 0.29662(6) 0.79029(13)
C18 C -0.2893(3) -0.01545(7) 1.03906(15)
C19 C 0.3706(3) 0.10441(7) 0.51749(13)
C20 C -1.0530(3) 0.39093(7) 0.94758(17)
H9 H -1.0633 0.4193 0.9271
C21 C -0.1621(3) 0.06723(7) 1.01566(13)
C22 C -1.0947(3) 0.33934(8) 1.05928(16)
H10 H -1.1325 0.3325 1.1156
C23 C -0.8505(3) 0.33931(7) 0.76172(15)
H11 H -0.8104 0.3466 0.7062
C24 C -0.0926(3) 0.14357(7) 1.06777(14)
H12 H -0.1327 0.1433 1.1253
C25 C -0.6613(3) 0.22885(7) 0.62388(14)
H13 H -0.6081 0.2217 0.5715
C26 C 0.1317(3) 0.01403(7) 0.62170(17)
H14 H 0.1317 -0.0115 0.5888
C27 C -0.3505(3) -0.05748(8) 1.04902(17)
H15 H -0.3909 -0.0661 1.1037
C28 C -0.6872(3) 0.26971(7) 0.65346(14)
H16 H -0.6556 0.2954 0.6263
C29 C -0.2325(3) -0.03274(7) 0.88826(15)
H17 H -0.1931 -0.0247 0.8329
C30 C -0.3521(3) -0.08543(8) 0.98165(19)
H18 H -0.3926 -0.1135 0.9896
C31 C 0.3056(3) 0.06383(7) 0.52632(13)
C32 C 0.4745(3) 0.08435(8) 0.37348(15)
C33 C -0.2257(3) 0.05392(8) 1.09683(14)
H19 H -0.2250 0.0734 1.1443
C34 C 0.0548(3) 0.02090(7) 0.69913(16)
H20 H -0.0095 0.0004 0.7289
C35 C -0.2870(3) 0.01434(8) 1.10832(15)
H21 H -0.3288 0.0065 1.1632
C36 C -1.1103(3) 0.38074(8) 1.02794(18)
H22 H -1.1607 0.4019 1.0624
C37 C 0.5547(3) 0.09632(9) 0.29722(16)
H23 H 0.5708 0.0757 0.2531
C38 C -0.2190(4) 0.23624(9) 0.73093(19)
H24 H -0.1721 0.2640 0.7477
H25 H -0.3438 0.2370 0.7321
H26 H -0.1864 0.2291 0.6717
C39 C 0.4101(3) 0.04306(8) 0.38543(16)
H27 H 0.4236 0.0221 0.3418
C40 C 0.5906(3) 0.16708(9) 0.35013(16)
H28 H 0.6297 0.1952 0.3416
C41 C 0.6098(3) 0.13664(9) 0.28506(17)
H29 H 0.6613 0.1441 0.2323
C42 C 0.5142(3) 0.21067(10) 0.9298(2)
H30 H 0.5895 0.2188 0.8835
H31 H 0.5826 0.1988 0.9795
H32 H 0.4526 0.2357 0.9492
C43 C -0.3964(3) 0.06309(7) 0.71707(17)
H33 H -0.4063 0.0632 0.6529
H34 H -0.4991 0.0503 0.7397
H35 H -0.2959 0.0466 0.7371
Mn2_2 Mn 0.25637(4) 0.137910(9) 0.682990(18)
Mn3_2 Mn -0.87847(4) 0.195011(9) 0.846582(18)
O3_2 O -0.87110(16) 0.14194(4) 0.78477(8)
O5_2 O -0.6407(2) 0.13485(5) 0.57690(10)
N1_2 N 0.2104(2) 0.22341(5) 0.74616(10)
O7_2 O 0.1205(2) 0.24658(4) 0.90553(9)
N4_2 N -0.8206(2) 0.07998(5) 0.66565(10)
loop_
_geom_bond_atom_site_label_1
_geom_bond_atom_site_label_2
_geom_bond_site_symmetry_1
_geom_bond_site_symmetry_2
Mn1 O3 1_555 1_555
Mn2 O2 1_555 1_555
Mn3 O1 1_555 1_555
O1 H1 1_555 1_555
O2 C14 1_555 1_555
O3 Mn3 1_555 1_555
O4 Mn1 1_555 1_555
O5 C19 1_555 1_555
N1 N6 1_555 1_555
O6 Mn1 1_555 1_555
N2 Mn1 1_555 1_555
N3 Mn3 1_555 1_555
O7 C13 1_555 1_555
O8 Mn3 1_555 1_555
H2 O8 1_555 1_555
N4 N2 1_555 1_555
N5 Mn1 1_555 1_555
C1 N4 1_555 1_555
C2 C5 1_555 1_555
C3 C6 1_555 1_555
C4 H3 1_555 1_555
C5 O6 1_555 1_555
C6 H4 1_555 1_555
C7 C9 1_555 1_555
C8 N3 1_555 1_555
H5 C8 1_555 1_555
C9 C13 1_555 1_555
N6 Mn2 1_555 1_555
C10 N5 1_555 1_555
C11 N1 1_555 1_555
C12 H6 1_555 1_555
C13 C17 1_555 1_555
C14 O4 1_555 1_555
C15 C9 1_555 1_555
H7 C15 1_555 1_555
C16 C7 1_555 1_555
H8 C16 1_555 1_555
C17 C11 1_555 1_555
C18 C2 1_555 1_555
C19 C3 1_555 1_555
C20 C7 1_555 1_555
H9 C20 1_555 1_555
C21 C5 1_555 1_555
C22 C15 1_555 1_555
H10 C22 1_555 1_555
C23 C16 1_555 1_555
H11 C23 1_555 1_555
C24 C8 1_555 1_555
H12 C24 1_555 1_555
C25 N6 1_555 1_555
H13 C25 1_555 1_555
C26 C1 1_555 1_555
H14 C26 1_555 1_555
C27 C18 1_555 1_555
H15 C27 1_555 1_555
C28 C11 1_555 1_555
H16 C28 1_555 1_555
C29 C2 1_555 1_555
H17 C29 1_555 1_555
C30 C12 1_555 1_555
H18 C30 1_555 1_555
C31 C1 1_555 1_555
C32 C3 1_555 1_555
C33 C21 1_555 1_555
H19 C33 1_555 1_555
C34 N2 1_555 1_555
H20 C34 1_555 1_555
C35 C18 1_555 1_555
H21 C35 1_555 1_555
C36 C20 1_555 1_555
H22 C36 1_555 1_555
C37 C32 1_555 1_555
H23 C37 1_555 1_555
C38 O8 1_555 1_555
H24 C38 1_555 1_555
H25 C38 1_555 1_555
H26 C38 1_555 1_555
C39 C4 1_555 1_555
H27 C39 1_555 1_555
C40 C6 1_555 1_555
H28 C40 1_555 1_555
C41 C37 1_555 1_555
H29 C41 1_555 1_555
C42 O1 1_555 1_555
H30 C42 1_555 1_555
H31 C42 1_555 1_555
H32 C42 1_555 1_555
C43 C14 1_555 1_555
H33 C43 1_555 1_555
H34 C43 1_555 1_555
H35 C43 1_555 1_555
Mn2_2 O3 1_555 1_555
Mn3_2 N1 1_555 1_555
O3_2 Mn2 1_555 1_555
O5_2 Mn2 1_555 1_555
N1_2 Mn3 1_555 1_555
O7_2 Mn3 1_555 1_555
N4_2 Mn2 1_555 1_555
O5 Mn2_2 1_555 1_555
N3 N5 1_555 1_555
O7 Mn3_2 1_555 1_555
N4 Mn2_2 1_555 1_555
C4 C31 1_555 1_555
C10 C21 1_555 1_555
C10 C24 1_555 1_555
C12 C29 1_555 1_555
C17 C23 1_555 1_555
C19 C31 1_555 1_555
C22 C36 1_555 1_555
C25 C28 1_555 1_555
C26 C34 1_555 1_555
C27 C30 1_555 1_555
C32 C39 1_555 1_555
C33 C35 1_555 1_555
C40 C41 1_555 1_555
Mn3_2 O3_2 1_555 1_555

#END
