
#######################################################################
#
#                 Cambridge Crystallographic Data Centre
#                                CCDC 
#
#######################################################################
#
# If this CIF has been generated from an entry in the Cambridge 
# Structural Database, then it will include bibliographic, chemical, 
# crystal, experimental, refinement or atomic coordinate data resulting 
# from the CCDC's data processing and validation procedures.
#
#######################################################################

data_KUQCIJ
_symmetry_cell_setting           monoclinic
_symmetry_space_group_name_H-M   'C 2/c'
_symmetry_Int_Tables_number      15
_space_group_name_Hall           '-C 2yn'
loop_
_symmetry_equiv_pos_site_id
_symmetry_equiv_pos_as_xyz
1 x,y,z
2 -x,y,1/2-z
3 1/2+x,1/2+y,z
4 1/2-x,1/2+y,1/2-z
5 -x,-y,-z
6 x,-y,1/2+z
7 1/2-x,1/2-y,-z
8 1/2+x,1/2-y,1/2+z
_cell_length_a                   19.696(2)
_cell_length_b                   5.3916(8)
_cell_length_c                   14.2090(16)
_cell_angle_alpha                90
_cell_angle_beta                 105.203(2)
_cell_angle_gamma                90
_cell_volume                     1456.09
loop_
_atom_site_label
_atom_site_type_symbol
_atom_site_fract_x
_atom_site_fract_y
_atom_site_fract_z
Pb1 Pb 0.294943(16) 0.11722(5) 0.14086(2)
N1 N 0.3686(3) 0.2881(13) 0.2943(5)
O1 O 0.3440(3) 0.5164(12) 0.1216(4)
O2 O 0.4088(3) 0.8424(10) 0.1896(5)
O3 O 0.2874(3) -0.0997(9) 0.3020(4)
O4 O 0.3297(4) -0.1324(10) 0.4622(5)
C1 C 0.3863(5) 0.6250(14) 0.1912(6)
C2 C 0.4069(4) 0.4921(14) 0.2894(6)
C3 C 0.4585(5) 0.5794(14) 0.3673(6)
H1 H 0.4843 0.7194 0.3604
C4 C 0.4716(4) 0.4579(16) 0.4557(6)
C5 C 0.4286(5) 0.2534(15) 0.4624(6)
H2 H 0.4336 0.1725 0.5217
C6 C 0.3791(4) 0.1746(15) 0.3807(6)
C7 C 0.3293(5) -0.0381(16) 0.3837(7)
Pb1D Pb 0.705057(16) 0.88278(5) 0.85914(2)
Pb1_2 Pb 0.294943(16) 1.11722(5) 0.14086(2)
Pb1C Pb 0.205057(16) -0.38278(5) 0.35914(2)
Pb1E Pb 0.294943(16) -0.11722(5) 0.64086(2)
Pb1G Pb 0.794943(16) 1.38278(5) 0.64086(2)
Pb1A Pb 0.705057(16) 1.11722(5) 0.35914(2)
Pb1D_2 Pb 0.705057(16) -0.11722(5) 0.85914(2)
N1D N 0.6314(3) 0.7119(13) 0.7057(5)
N1D_2 N 0.6314(3) -0.2881(13) 0.7057(5)
O1D O 0.6560(3) 0.4836(12) 0.8784(4)
O1D_2 O 0.6560(3) -0.5164(12) 0.8784(4)
O2D O 0.5912(3) 0.1576(10) 0.8104(5)
O2_2 O 0.4088(3) -0.1576(10) 0.1896(5)
O3D O 0.7126(3) 1.0997(9) 0.6980(4)
O3C O 0.2126(3) 0.4003(9) 0.1980(4)
O3D_2 O 0.7126(3) 0.0997(9) 0.6980(4)
O3G O 0.7874(3) -0.4003(9) 0.8020(4)
O4D O 0.6703(4) 1.1324(10) 0.5378(5)
O4C O 0.1703(4) 0.3676(10) 0.0378(5)
O4E O 0.3297(4) 0.1324(10) -0.0378(5)
O4A O 0.6703(4) -0.1324(10) 1.0378(5)
O4G O 0.8297(4) -0.3676(10) 0.9622(5)
C1D C 0.6137(5) 0.3750(14) 0.8088(6)
C2D C 0.5931(4) 0.5079(14) 0.7106(6)
C3D C 0.5415(5) 0.4206(14) 0.6327(6)
H1D H 0.5157 0.2806 0.6396
C4D C 0.5284(4) 0.5421(16) 0.5443(6)
C5D C 0.5714(5) 0.7466(15) 0.5376(6)
H2D H 0.5664 0.8275 0.4783
C6D C 0.6209(4) 0.8254(15) 0.6193(6)
C7D C 0.6707(5) 1.0381(16) 0.6163(7)
loop_
_geom_bond_atom_site_label_1
_geom_bond_atom_site_label_2
_geom_bond_site_symmetry_1
_geom_bond_site_symmetry_2
Pb1 N1 1_555 1_555
N1 C2 1_555 1_555
O1 Pb1 1_555 1_555
O2 C1 1_555 1_555
O3 Pb1 1_555 1_555
O4 C7 1_555 1_555
C1 O1 1_555 1_555
C2 C1 1_555 1_555
C3 C2 1_555 1_555
H1 C3 1_555 1_555
C4 C3 1_555 1_555
C5 C4 1_555 1_555
H2 C5 1_555 1_555
C6 N1 1_555 1_555
C7 O3 1_555 1_555
Pb1D N1D 1_555 1_555
Pb1_2 O2 1_555 1_555
Pb1C O3 1_555 1_555
Pb1E O4 1_555 1_555
Pb1G O3D 1_555 1_555
Pb1A O4D 1_555 1_555
Pb1D_2 N1D_2 1_555 1_555
N1D C2D 1_555 1_555
O1D Pb1D 1_555 1_555
O1D_2 Pb1D_2 1_555 1_555
O2D Pb1D_2 1_555 1_555
O2_2 Pb1 1_555 1_555
O3D Pb1D 1_555 1_555
O3C Pb1 1_555 1_555
O3D_2 Pb1D_2 1_555 1_555
O3G Pb1D_2 1_555 1_555
O4D Pb1G 1_555 1_555
O4C Pb1 1_555 1_555
O4E Pb1 1_555 1_555
O4A Pb1D_2 1_555 1_555
O4G Pb1D_2 1_555 1_555
C1D O1D 1_555 1_555
C2D C1D 1_555 1_555
C3D C2D 1_555 1_555
H1D C3D 1_555 1_555
C4D C4 1_555 1_555
C5D C4D 1_555 1_555
H2D C5D 1_555 1_555
C6D N1D 1_555 1_555
C7D O3D 1_555 1_555
O4 Pb1C 1_555 1_555
C5 C6 1_555 1_555
C6 C7 1_555 1_555
O2D C1D 1_555 1_555
O4D C7D 1_555 1_555
C3D C4D 1_555 1_555
C5D C6D 1_555 1_555
C6D C7D 1_555 1_555

#END
