
#######################################################################
#
#                 Cambridge Crystallographic Data Centre
#                                CCDC 
#
#######################################################################
#
# If this CIF has been generated from an entry in the Cambridge 
# Structural Database, then it will include bibliographic, chemical, 
# crystal, experimental, refinement or atomic coordinate data resulting 
# from the CCDC's data processing and validation procedures.
#
#######################################################################

data_KUQWUQ
_symmetry_cell_setting           monoclinic
_symmetry_space_group_name_H-M   'P 21/c'
_symmetry_Int_Tables_number      14
_space_group_name_Hall           '-P 2ybc'
loop_
_symmetry_equiv_pos_site_id
_symmetry_equiv_pos_as_xyz
1 x,y,z
2 -x,1/2+y,1/2-z
3 -x,-y,-z
4 x,1/2-y,1/2+z
_cell_length_a                   17.276(4)
_cell_length_b                   29.697(6)
_cell_length_c                   31.436(6)
_cell_angle_alpha                90
_cell_angle_beta                 98.50(3)
_cell_angle_gamma                90
_cell_volume                     15950.9
loop_
_atom_site_label
_atom_site_type_symbol
_atom_site_fract_x
_atom_site_fract_y
_atom_site_fract_z
N1 N 0.8608(5) 0.6766(3) 0.4718(3)
N2 N 0.7086(4) 1.1353(3) 0.6956(2)
C1 C 0.5746(4) 1.0282(3) 0.7820(2)
C2 C 0.5655(5) 1.0496(3) 0.6966(3)
C3 C 0.6808(5) 1.1092(3) 0.7158(3)
C4 C 0.6965(4) 1.0856(3) 0.7991(3)
C5 C 0.5524(5) 1.1145(3) 0.7557(3)
C6 C 0.7013(5) 1.0211(3) 0.7412(2)
C7 C 0.2651(5) 0.9319(3) 0.7879(3)
C8 C 0.1495(5) 0.9737(3) 0.7293(4)
C9 C 0.0342(5) 0.9304(3) 0.7641(3)
C10 C 0.1550(4) 0.8875(3) 0.8203(3)
C11 C 0.1521(4) 0.8825(3) 0.7340(3)
C12 C 0.1467(5) 0.9796(3) 0.8144(4)
C13 C 0.2560(4) 0.7881(3) 0.4484(3)
C14 C 0.1363(5) 0.7463(3) 0.4820(3)
C15 C 0.1741(5) 0.7925(3) 0.5554(3)
C16 C 0.2963(5) 0.8337(3) 0.5238(3)
C17 C 0.2869(4) 0.7398(3) 0.5258(3)
C18 C 0.1449(5) 0.8360(3) 0.4814(3)
C19 C 0.7993(6) 0.6723(3) 0.4816(3)
C20 C 0.6565(5) 0.6746(3) 0.4416(3)
C21 C 0.5987(5) 0.6514(3) 0.5163(3)
C22 C 0.7505(6) 0.6555(4) 0.5570(4)
C23 C 0.7084(5) 0.5999(3) 0.4876(3)
C24 C 0.6919(6) 0.7250(4) 0.5119(4)
C25 C 0.2916(7) 1.0955(4) 0.7832(5)
H1 H 0.2771 1.1103 0.8080
H2 H 0.2453 1.0874 0.7639
H3 H 0.3231 1.1154 0.7689
C26 C 0.3391(6) 1.0522(4) 0.7977(4)
C27 C 0.3562(6) 1.0440(4) 0.8442(4)
C28 C 0.3270(7) 1.0718(4) 0.8739(5)
H4 H 0.2941 1.0965 0.8677
C29 C 0.3563(9) 1.0555(5) 0.9143(5)
H5 H 0.3413 1.0738 0.9356
C30 C 0.3987(9) 1.0219(5) 0.9311(4)
H6 H 0.4116 1.0153 0.9602
C31 C 0.4235(7) 0.9950(5) 0.8933(4)
C32 C 0.4718(7) 0.9550(5) 0.8972(4)
C33 C 0.5035(7) 0.9357(5) 0.9409(4)
H7 H 0.4870 0.9542 0.9630
H8 H 0.5597 0.9351 0.9443
H9 H 0.4841 0.9057 0.9431
C34 C 0.5335(8) 0.8983(5) 0.8620(5)
H10 H 0.5039 0.8711 0.8654
H11 H 0.5768 0.9000 0.8854
C35 C 0.5633(8) 0.8984(5) 0.8187(6)
H12 H 0.6033 0.9213 0.8186
H13 H 0.5863 0.8694 0.8138
C36 C 0.5143(11) 0.9088(5) 0.7453(6)
H14 H 0.5253 0.8785 0.7363
H15 H 0.5609 0.9267 0.7438
C37 C 0.4508(10) 0.9272(6) 0.7135(5)
H16 H 0.4684 0.9324 0.6860
H17 H 0.4060 0.9071 0.7094
C38 C 0.3667(8) 0.9872(6) 0.7084(4)
H18 H 0.3206 0.9689 0.7096
H19 H 0.3734 0.9907 0.6785
C39 C 0.3570(7) 1.0306(5) 0.7273(4)
H20 H 0.3957 1.0515 0.7195
H21 H 0.3054 1.0425 0.7168
C40 C -0.0954(7) 1.0418(4) 0.8691(4)
H22 H -0.1090 1.0315 0.8959
H23 H -0.1231 1.0692 0.8608
H24 H -0.0401 1.0473 0.8722
C41 C -0.1174(6) 1.0067(4) 0.8353(4)
C42 C -0.1561(6) 0.9641(5) 0.8448(4)
C43 C -0.1744(8) 0.9547(5) 0.8880(5)
H25 H -0.1667 0.9747 0.9110
C44 C -0.2034(9) 0.9134(6) 0.8893(5)
H26 H -0.2096 0.9028 0.9165
C45 C -0.2254(7) 0.8844(5) 0.8556(5)
H27 H -0.2508 0.8575 0.8597
C46 C -0.2081(6) 0.8969(4) 0.8138(5)
C47 C -0.2248(6) 0.8737(4) 0.7719(5)
C48 C -0.2600(6) 0.8265(4) 0.7731(5)
H28 H -0.2683 0.8196 0.8019
H29 H -0.2248 0.8048 0.7638
H30 H -0.3091 0.8255 0.7543
C49 C -0.2204(8) 0.8730(5) 0.7001(5)
H31 H -0.1803 0.8508 0.6972
H32 H -0.2711 0.8582 0.6955
C50 C -0.2182(9) 0.9093(5) 0.6690(4)
H33 H -0.2182 0.8966 0.6405
H34 H -0.2643 0.9280 0.6682
C51 C -0.1421(8) 0.9701(5) 0.6526(4)
H35 H -0.1899 0.9876 0.6472
H36 H -0.1307 0.9582 0.6254
C52 C -0.0745(7) 0.9995(4) 0.6736(4)
H37 H -0.0264 0.9823 0.6792
H38 H -0.0665 1.0249 0.6554
C53 C -0.0431(7) 1.0399(4) 0.7386(5)
H39 H -0.0307 1.0667 0.7234
H40 H 0.0047 1.0227 0.7464
C54 C -0.0760(6) 1.0523(4) 0.7772(4)
H41 H -0.1180 1.0739 0.7700
H42 H -0.0360 1.0660 0.7981
C55 C -0.0922(8) 0.7839(6) 0.6636(6)
H43 H -0.1054 0.7596 0.6814
H44 H -0.1142 0.7782 0.6342
H45 H -0.1130 0.8115 0.6730
C56 C -0.0057(8) 0.7875(5) 0.6671(5)
C57 C 0.0445(9) 0.7504(4) 0.6797(4)
C58 C 0.0377(10) 0.7073(6) 0.6979(5)
H46 H -0.0121 0.6988 0.7028
C59 C 0.0955(11) 0.6775(6) 0.7089(6)
H47 H 0.0838 0.6490 0.7183
C60 C 0.1594(10) 0.6869(5) 0.7069(5)
H48 H 0.2013 0.6681 0.7169
C61 C 0.1686(9) 0.7277(4) 0.6886(4)
C62 C 0.2529(8) 0.7392(4) 0.6850(4)
C63 C 0.3296(8) 0.7139(4) 0.6963(4)
H49 H 0.3198 0.6851 0.7082
H50 H 0.3642 0.7310 0.7171
H51 H 0.3533 0.7098 0.6709
C64 C 0.3237(7) 0.8016(4) 0.6578(4)
H52 H 0.3638 0.7983 0.6826
H53 H 0.3410 0.7843 0.6348
C65 C 0.3249(8) 0.8468(5) 0.6454(4)
H54 H 0.3528 0.8646 0.6686
H55 H 0.3513 0.8498 0.6204
C66 C 0.2340(8) 0.9058(5) 0.6224(4)
H56 H 0.2382 0.9258 0.6470
H57 H 0.2711 0.9155 0.6039
C67 C 0.1583(9) 0.9069(4) 0.6000(5)
H58 H 0.1583 0.8923 0.5724
H59 H 0.1434 0.9381 0.5945
C68 C 0.0227(7) 0.8819(4) 0.6002(5)
H60 H -0.0002 0.9113 0.5934
H61 H 0.0205 0.8647 0.5738
C69 C -0.0179(7) 0.8591(4) 0.6299(4)
H62 H -0.0704 0.8519 0.6160
H63 H -0.0223 0.8788 0.6540
C70 C -0.0972(9) 0.8096(5) 0.3850(5)
H64 H -0.0982 0.8046 0.3547
H65 H -0.0584 0.8319 0.3947
H66 H -0.1476 0.8199 0.3902
C71 C -0.0789(8) 0.7700(6) 0.4070(6)
C72 C -0.0644(6) 0.7306(5) 0.3785(5)
C73 C -0.0762(8) 0.7297(6) 0.3360(5)
H67 H -0.0971 0.7542 0.3197
C74 C -0.0544(8) 0.6877(6) 0.3159(5)
H68 H -0.0591 0.6877 0.2860
C75 C -0.0301(8) 0.6517(5) 0.3345(5)
H69 H -0.0184 0.6256 0.3204
C76 C -0.0231(6) 0.6564(5) 0.3805(4)
C77 C 0.0067(7) 0.6180(5) 0.4077(5)
C78 C 0.0315(6) 0.5719(4) 0.3951(4)
H70 H 0.0257 0.5698 0.3643
H71 H -0.0006 0.5496 0.4060
H72 H 0.0853 0.5670 0.4070
C79 C 0.0353(9) 0.5952(5) 0.4793(5)
H73 H 0.0768 0.5773 0.4700
H74 H -0.0079 0.5753 0.4828
C80 C 0.0643(11) 0.6179(6) 0.5207(5)
H75 H 0.1167 0.6294 0.5202
H76 H 0.0665 0.5964 0.5442
C81 C 0.0153(11) 0.6800(6) 0.5664(5)
H77 H 0.0698 0.6863 0.5770
H78 H -0.0051 0.6616 0.5876
C82 C -0.0270(10) 0.7215(6) 0.5618(5)
H79 H -0.0789 0.7162 0.5690
H80 H -0.0010 0.7427 0.5827
C83 C -0.0735(10) 0.7770(6) 0.5159(6)
H81 H -0.0512 0.7994 0.5367
H82 H -0.1265 0.7714 0.5213
C84 C -0.0792(7) 0.7973(5) 0.4741(5)
H83 H -0.1292 0.8124 0.4668
H84 H -0.0378 0.8193 0.4736
C85 C 0.1203(8) 0.7300(5) 0.2904(5)
H85 H 0.0727 0.7426 0.2975
H86 H 0.1248 0.6992 0.2998
H87 H 0.1195 0.7312 0.2598
C86 C 0.1839(6) 0.7546(4) 0.3107(4)
C87 C 0.2648(7) 0.7455(4) 0.3077(3)
C88 C 0.2945(9) 0.7060(5) 0.2848(4)
H88 H 0.2561 0.6860 0.2724
C89 C 0.3644(9) 0.6956(5) 0.2797(5)
H89 H 0.3775 0.6706 0.2643
C90 C 0.4217(8) 0.7280(5) 0.3013(4)
H90 H 0.4744 0.7243 0.2990
C91 C 0.3994(7) 0.7637(5) 0.3248(4)
C92 C 0.4460(8) 0.7988(6) 0.3507(5)
C93 C 0.5362(6) 0.7916(4) 0.3480(4)
H91 H 0.5548 0.8159 0.3321
H92 H 0.5431 0.7636 0.3338
H93 H 0.5652 0.7909 0.3765
C94 C 0.4639(9) 0.8588(5) 0.3971(4)
H94 H 0.4858 0.8806 0.3791
H95 H 0.5064 0.8437 0.4152
C95 C 0.4117(11) 0.8806(6) 0.4229(6)
H96 H 0.4065 0.8619 0.4476
H97 H 0.4340 0.9093 0.4334
C96 C 0.2852(11) 0.9076(6) 0.4157(6)
H98 H 0.3033 0.9371 0.4260
H99 H 0.2731 0.8905 0.4402
C97 C 0.2170(11) 0.9125(5) 0.3859(5)
H100 H 0.1755 0.9273 0.3983
H101 H 0.2265 0.9285 0.3603
C98 C 0.1271(7) 0.8638(5) 0.3533(4)
H102 H 0.1255 0.8809 0.3269
H103 H 0.0880 0.8764 0.3691
C99 C 0.1066(6) 0.8164(5) 0.3425(4)
H104 H 0.0921 0.8007 0.3672
H105 H 0.0633 0.8148 0.3191
C100 C 0.3439(6) 0.6743(3) 0.3908(3)
H106 H 0.3084 0.6514 0.3784
H107 H 0.3907 0.6734 0.3777
H108 H 0.3196 0.7033 0.3859
C101 C 0.3643(5) 0.6663(3) 0.4385(3)
C102 C 0.3305(5) 0.6260(3) 0.4583(3)
C103 C 0.2819(5) 0.5945(3) 0.4337(3)
H109 H 0.2644 0.5991 0.4046
C104 C 0.2614(5) 0.5565(3) 0.4548(3)
H110 H 0.2301 0.5345 0.4398
C105 C 0.2880(5) 0.5511(3) 0.4991(3)
H111 H 0.2732 0.5263 0.5141
C106 C 0.3368(4) 0.5839(3) 0.5196(3)
C107 C 0.3699(5) 0.5825(3) 0.5651(3)
C108 C 0.3536(5) 0.5426(3) 0.5932(3)
H112 H 0.3222 0.5208 0.5760
H113 H 0.3262 0.5530 0.6158
H114 H 0.4023 0.5291 0.6056
C109 C 0.4456(5) 0.6219(3) 0.6230(3)
H115 H 0.4672 0.5934 0.6341
H116 H 0.4063 0.6311 0.6403
C110 C 0.5087(5) 0.6561(3) 0.6266(3)
H117 H 0.5228 0.6655 0.6563
H118 H 0.5548 0.6438 0.6166
C111 C 0.5353(5) 0.7295(3) 0.5996(3)
H119 H 0.5844 0.7173 0.5932
H120 H 0.5450 0.7441 0.6275
C112 C 0.5036(5) 0.7619(3) 0.5665(3)
H121 H 0.4551 0.7748 0.5731
H122 H 0.5406 0.7861 0.5645
C113 C 0.4615(5) 0.7625(3) 0.4895(3)
H123 H 0.4989 0.7855 0.4845
H124 H 0.4122 0.7769 0.4926
C114 C 0.4504(5) 0.7287(3) 0.4529(3)
H125 H 0.4207 0.7425 0.4276
H126 H 0.5010 0.7198 0.4458
Co1 Co 0.43444(6) 0.97015(4) 0.80336(4)
Co2 Co -0.14607(6) 0.95825(4) 0.75107(4)
Co3 Co 0.15051(7) 0.81972(4) 0.65067(4)
Co4 Co -0.02602(7) 0.69575(5) 0.46633(4)
Co5 Co 0.28892(7) 0.82240(4) 0.35757(4)
Co6 Co 0.42617(6) 0.67027(4) 0.53263(4)
Fe1 Fe 0.62908(6) 1.06784(4) 0.74822(4)
Fe2 Fe 0.14988(6) 0.93047(4) 0.77489(4)
Fe3 Fe 0.21582(6) 0.78875(4) 0.50290(4)
Fe4 Fe 0.70035(7) 0.66268(4) 0.49944(4)
N3 N 0.5376(3) 1.0055(2) 0.8011(2)
N4 N 0.5297(5) 1.0363(3) 0.6648(3)
N5 N 0.7374(4) 1.0972(3) 0.8301(2)
N6 N 0.5078(4) 1.1406(3) 0.7607(3)
N7 N 0.7481(4) 0.9934(3) 0.7373(2)
N8 N 0.3311(4) 0.9333(2) 0.7942(3)
N9 N 0.1490(5) 1.0005(3) 0.7026(3)
N10 N -0.0315(4) 0.9320(2) 0.7596(2)
N11 N 0.1595(4) 0.8619(3) 0.8490(3)
N12 N 0.1545(4) 0.8548(2) 0.7080(2)
N13 N 0.1415(5) 1.0097(3) 0.8376(3)
N14 N 0.2778(4) 0.7908(3) 0.4157(2)
N15 N 0.0890(4) 0.7210(3) 0.4717(3)
N16 N 0.1496(4) 0.7957(2) 0.5873(2)
N17 N 0.3423(5) 0.8595(3) 0.5338(3)
N18 N 0.3277(4) 0.7109(2) 0.5381(2)
N19 N 0.1056(5) 0.8651(3) 0.4688(3)
N20 N 0.6316(5) 0.6842(3) 0.4062(3)
N21 N 0.5374(4) 0.6455(2) 0.5246(2)
N22 N 0.7798(6) 0.6535(4) 0.5935(4)
N23 N 0.7156(5) 0.5618(3) 0.4806(3)
N24 N 0.6887(6) 0.7626(3) 0.5197(4)
N25 N 0.3664(4) 1.0256(3) 0.7733(3)
N26 N 0.4008(4) 1.0081(3) 0.8538(2)
N27 N 0.4837(4) 0.9378(3) 0.8616(3)
N28 N -0.2064(5) 0.8940(3) 0.7431(3)
N29 N -0.1724(4) 0.9377(3) 0.8113(3)
N30 N -0.1063(4) 1.0109(3) 0.7952(3)
N31 N 0.0212(5) 0.8185(3) 0.6453(3)
N32 N 0.1172(6) 0.7586(3) 0.6769(2)
N33 N 0.2564(5) 0.7799(3) 0.6680(2)
N34 N -0.0718(6) 0.7622(4) 0.4443(4)
N35 N -0.0411(5) 0.6940(4) 0.3994(3)
N36 N 0.0098(5) 0.6289(3) 0.4478(4)
N37 N 0.1747(5) 0.7976(3) 0.3302(3)
N38 N 0.3201(7) 0.7680(4) 0.3229(3)
N39 N 0.4153(7) 0.8272(5) 0.3714(4)
N40 N 0.4092(4) 0.6895(2) 0.4653(2)
N41 N 0.3565(3) 0.6201(2) 0.4990(2)
N42 N 0.4091(4) 0.6163(2) 0.5780(2)
O1 O 0.4336(4) 0.9656(3) 0.7315(2)
O2 O 0.5029(5) 0.9070(3) 0.7869(4)
O3 O -0.1501(5) 0.9358(3) 0.6804(2)
O4 O -0.0986(4) 1.0140(2) 0.7124(3)
O5 O 0.1016(5) 0.8861(2) 0.6210(2)
O6 O 0.2502(5) 0.8611(3) 0.6361(3)
O7 O -0.0343(6) 0.7401(4) 0.5245(3)
O8 O 0.0106(5) 0.6557(4) 0.5277(3)
O9 O 0.2020(6) 0.8691(3) 0.3782(3)
O10 O 0.3400(7) 0.8877(4) 0.3998(3)
O11 O 0.4900(3) 0.73685(18) 0.5270(2)
O12 O 0.4780(3) 0.6937(2) 0.60004(17)
N1_2 N -0.1392(5) 0.6766(3) 0.4718(3)
N2B N 0.2914(4) 0.8647(3) 0.3044(2)
Co2_2 Co 0.85393(6) 0.95825(4) 0.75107(4)
Co4_2 Co 0.97398(7) 0.69575(5) 0.46633(4)
Co5B Co 0.71108(7) 1.17760(4) 0.64243(4)
N7_2 N -0.2519(4) 0.9934(3) 0.7373(2)
O13 O 0.1232(9) 0.0242(5) 0.0031(5)
O14 O 0.0111(10) 0.0740(5) 0.5814(6)
O15 O 0.1134(7) 0.0859(4) 0.6684(4)
O16 O 0.1059(5) 0.1080(4) 0.8287(4)
O17 O 0.1214(9) 0.0470(5) 0.9201(5)
O18 O 0.3954(4) 0.2076(3) 0.7683(2)
O19 O 0.7883(6) 0.1516(5) 0.9072(4)
O20 O 0.9298(5) 0.6438(4) 0.7549(4)
O21 O 0.5864(7) 0.6575(4) 0.1478(4)
O22 O 0.5400(6) 0.7034(3) 0.2202(3)
O23 O 0.7272(6) 0.7858(4) 0.1747(4)
O24 O 0.8360(5) 0.7793(3) 0.2451(3)
O25 O 0.7255(5) 0.7949(3) 0.2999(3)
O26 O 0.7363(10) 0.8778(5) 0.3435(5)
O27 O 0.7340(5) 0.7534(4) 0.3814(4)
O28 O 0.4868(12) 0.8931(6) 0.5720(7)
O29 O 0.7060(8) 0.7965(4) 0.6214(5)
O30? O 0.7157(12) 0.8189(8) 0.4347(7)
loop_
_geom_bond_atom_site_label_1
_geom_bond_atom_site_label_2
_geom_bond_site_symmetry_1
_geom_bond_site_symmetry_2
N1 C19 1_555 1_555
N2 C3 1_555 1_555
C1 Fe1 1_555 1_555
C2 Fe1 1_555 1_555
C3 Fe1 1_555 1_555
C4 Fe1 1_555 1_555
C5 Fe1 1_555 1_555
C6 Fe1 1_555 1_555
C7 Fe2 1_555 1_555
C8 Fe2 1_555 1_555
C9 Fe2 1_555 1_555
C10 Fe2 1_555 1_555
C11 Fe2 1_555 1_555
C12 Fe2 1_555 1_555
C13 Fe3 1_555 1_555
C14 Fe3 1_555 1_555
C15 Fe3 1_555 1_555
C16 Fe3 1_555 1_555
C17 Fe3 1_555 1_555
C18 Fe3 1_555 1_555
C19 Fe4 1_555 1_555
C20 Fe4 1_555 1_555
C21 Fe4 1_555 1_555
C22 Fe4 1_555 1_555
C23 Fe4 1_555 1_555
C24 Fe4 1_555 1_555
C25 H1 1_555 1_555
H2 C25 1_555 1_555
H3 C25 1_555 1_555
C26 C25 1_555 1_555
C27 C26 1_555 1_555
C28 C27 1_555 1_555
H4 C28 1_555 1_555
C29 C28 1_555 1_555
H5 C29 1_555 1_555
C30 C29 1_555 1_555
H6 C30 1_555 1_555
C31 C30 1_555 1_555
C32 C31 1_555 1_555
C33 C32 1_555 1_555
H7 C33 1_555 1_555
H8 C33 1_555 1_555
H9 C33 1_555 1_555
C34 H10 1_555 1_555
H11 C34 1_555 1_555
C35 C34 1_555 1_555
H12 C35 1_555 1_555
H13 C35 1_555 1_555
C36 H14 1_555 1_555
H15 C36 1_555 1_555
C37 C36 1_555 1_555
H16 C37 1_555 1_555
H17 C37 1_555 1_555
C38 H18 1_555 1_555
H19 C38 1_555 1_555
C39 C38 1_555 1_555
H20 C39 1_555 1_555
H21 C39 1_555 1_555
C40 H22 1_555 1_555
H23 C40 1_555 1_555
H24 C40 1_555 1_555
C41 C40 1_555 1_555
C42 C41 1_555 1_555
C43 C42 1_555 1_555
H25 C43 1_555 1_555
C44 C43 1_555 1_555
H26 C44 1_555 1_555
C45 C44 1_555 1_555
H27 C45 1_555 1_555
C46 C45 1_555 1_555
C47 C46 1_555 1_555
C48 C47 1_555 1_555
H28 C48 1_555 1_555
H29 C48 1_555 1_555
H30 C48 1_555 1_555
C49 H31 1_555 1_555
H32 C49 1_555 1_555
C50 C49 1_555 1_555
H33 C50 1_555 1_555
H34 C50 1_555 1_555
C51 H35 1_555 1_555
H36 C51 1_555 1_555
C52 C51 1_555 1_555
H37 C52 1_555 1_555
H38 C52 1_555 1_555
C53 H39 1_555 1_555
H40 C53 1_555 1_555
C54 C53 1_555 1_555
H41 C54 1_555 1_555
H42 C54 1_555 1_555
C55 H43 1_555 1_555
H44 C55 1_555 1_555
H45 C55 1_555 1_555
C56 C55 1_555 1_555
C57 C56 1_555 1_555
C58 C57 1_555 1_555
H46 C58 1_555 1_555
C59 C58 1_555 1_555
H47 C59 1_555 1_555
C60 C59 1_555 1_555
H48 C60 1_555 1_555
C61 C60 1_555 1_555
C62 C61 1_555 1_555
C63 C62 1_555 1_555
H49 C63 1_555 1_555
H50 C63 1_555 1_555
H51 C63 1_555 1_555
C64 H52 1_555 1_555
H53 C64 1_555 1_555
C65 C64 1_555 1_555
H54 C65 1_555 1_555
H55 C65 1_555 1_555
C66 H56 1_555 1_555
H57 C66 1_555 1_555
C67 C66 1_555 1_555
H58 C67 1_555 1_555
H59 C67 1_555 1_555
C68 H60 1_555 1_555
H61 C68 1_555 1_555
C69 C68 1_555 1_555
H62 C69 1_555 1_555
H63 C69 1_555 1_555
C70 H64 1_555 1_555
H65 C70 1_555 1_555
H66 C70 1_555 1_555
C71 C70 1_555 1_555
C72 C71 1_555 1_555
C73 C72 1_555 1_555
H67 C73 1_555 1_555
C74 C73 1_555 1_555
H68 C74 1_555 1_555
C75 C74 1_555 1_555
H69 C75 1_555 1_555
C76 C75 1_555 1_555
C77 C76 1_555 1_555
C78 C77 1_555 1_555
H70 C78 1_555 1_555
H71 C78 1_555 1_555
H72 C78 1_555 1_555
C79 H73 1_555 1_555
H74 C79 1_555 1_555
C80 C79 1_555 1_555
H75 C80 1_555 1_555
H76 C80 1_555 1_555
C81 H77 1_555 1_555
H78 C81 1_555 1_555
C82 C81 1_555 1_555
H79 C82 1_555 1_555
H80 C82 1_555 1_555
C83 H81 1_555 1_555
H82 C83 1_555 1_555
C84 C83 1_555 1_555
H83 C84 1_555 1_555
H84 C84 1_555 1_555
C85 H85 1_555 1_555
H86 C85 1_555 1_555
H87 C85 1_555 1_555
C86 C85 1_555 1_555
C87 C86 1_555 1_555
C88 C87 1_555 1_555
H88 C88 1_555 1_555
C89 C88 1_555 1_555
H89 C89 1_555 1_555
C90 C89 1_555 1_555
H90 C90 1_555 1_555
C91 C90 1_555 1_555
C92 C91 1_555 1_555
C93 C92 1_555 1_555
H91 C93 1_555 1_555
H92 C93 1_555 1_555
H93 C93 1_555 1_555
C94 H94 1_555 1_555
H95 C94 1_555 1_555
C95 C94 1_555 1_555
H96 C95 1_555 1_555
H97 C95 1_555 1_555
C96 H98 1_555 1_555
H99 C96 1_555 1_555
C97 C96 1_555 1_555
H100 C97 1_555 1_555
H101 C97 1_555 1_555
C98 H102 1_555 1_555
H103 C98 1_555 1_555
C99 C98 1_555 1_555
H104 C99 1_555 1_555
H105 C99 1_555 1_555
C100 H106 1_555 1_555
H107 C100 1_555 1_555
H108 C100 1_555 1_555
C101 C100 1_555 1_555
C102 C101 1_555 1_555
C103 C102 1_555 1_555
H109 C103 1_555 1_555
C104 C103 1_555 1_555
H110 C104 1_555 1_555
C105 C104 1_555 1_555
H111 C105 1_555 1_555
C106 C105 1_555 1_555
C107 C106 1_555 1_555
C108 C107 1_555 1_555
H112 C108 1_555 1_555
H113 C108 1_555 1_555
H114 C108 1_555 1_555
C109 H115 1_555 1_555
H116 C109 1_555 1_555
C110 C109 1_555 1_555
H117 C110 1_555 1_555
H118 C110 1_555 1_555
C111 H119 1_555 1_555
H120 C111 1_555 1_555
C112 C111 1_555 1_555
H121 C112 1_555 1_555
H122 C112 1_555 1_555
C113 H123 1_555 1_555
H124 C113 1_555 1_555
C114 C113 1_555 1_555
H125 C114 1_555 1_555
H126 C114 1_555 1_555
Co1 N3 1_555 1_555
Co2 N10 1_555 1_555
Co3 N12 1_555 1_555
Co4 N15 1_555 1_555
Co5 N14 1_555 1_555
Co6 N18 1_555 1_555
N3 C1 1_555 1_555
N4 C2 1_555 1_555
N5 C4 1_555 1_555
N6 C5 1_555 1_555
N7 C6 1_555 1_555
N8 C7 1_555 1_555
N9 C8 1_555 1_555
N10 C9 1_555 1_555
N11 C10 1_555 1_555
N12 C11 1_555 1_555
N13 C12 1_555 1_555
N14 C13 1_555 1_555
N15 C14 1_555 1_555
N16 C15 1_555 1_555
N17 C16 1_555 1_555
N18 C17 1_555 1_555
N19 C18 1_555 1_555
N20 C20 1_555 1_555
N21 C21 1_555 1_555
N22 C22 1_555 1_555
N23 C23 1_555 1_555
N24 C24 1_555 1_555
N25 C26 1_555 1_555
N26 C27 1_555 1_555
N27 C32 1_555 1_555
N28 C47 1_555 1_555
N29 C42 1_555 1_555
N30 C41 1_555 1_555
N31 C56 1_555 1_555
N32 C57 1_555 1_555
N33 C62 1_555 1_555
N34 C71 1_555 1_555
N35 C72 1_555 1_555
N36 C77 1_555 1_555
N37 C86 1_555 1_555
N38 C87 1_555 1_555
N39 C92 1_555 1_555
N40 C101 1_555 1_555
N41 C102 1_555 1_555
N42 C107 1_555 1_555
O1 C37 1_555 1_555
O2 C35 1_555 1_555
O3 C50 1_555 1_555
O4 C52 1_555 1_555
O5 C67 1_555 1_555
O6 C65 1_555 1_555
O7 C82 1_555 1_555
O8 C80 1_555 1_555
O9 C97 1_555 1_555
O10 C95 1_555 1_555
O11 C112 1_555 1_555
O12 C110 1_555 1_555
N1_2 Co4 1_555 1_555
N2B Co5 1_555 1_555
Co2_2 N7 1_555 1_555
Co4_2 N1 1_555 1_555
Co5B N2 1_555 1_555
N7_2 Co2 1_555 1_555
C31 N26 1_555 1_555
C34 N27 1_555 1_555
C36 O2 1_555 1_555
C38 O1 1_555 1_555
C39 N25 1_555 1_555
C46 N29 1_555 1_555
C49 N28 1_555 1_555
C51 O3 1_555 1_555
C53 O4 1_555 1_555
C54 N30 1_555 1_555
C61 N32 1_555 1_555
C64 N33 1_555 1_555
C66 O6 1_555 1_555
C68 O5 1_555 1_555
C69 N31 1_555 1_555
C76 N35 1_555 1_555
C79 N36 1_555 1_555
C81 O8 1_555 1_555
C83 O7 1_555 1_555
C84 N34 1_555 1_555
C91 N38 1_555 1_555
C94 N39 1_555 1_555
C96 O10 1_555 1_555
C98 O9 1_555 1_555
C99 N37 1_555 1_555
C106 N41 1_555 1_555
C109 N42 1_555 1_555
C111 O12 1_555 1_555
C113 O11 1_555 1_555
C114 N40 1_555 1_555
Co1 N8 1_555 1_555
Co1 N25 1_555 1_555
Co1 N26 1_555 1_555
Co1 N27 1_555 1_555
Co1 O1 1_555 1_555
Co1 O2 1_555 1_555
Co2 N28 1_555 1_555
Co2 N29 1_555 1_555
Co2 N30 1_555 1_555
Co2 O3 1_555 1_555
Co2 O4 1_555 1_555
Co3 N16 1_555 1_555
Co3 N31 1_555 1_555
Co3 N32 1_555 1_555
Co3 N33 1_555 1_555
Co3 O5 1_555 1_555
Co3 O6 1_555 1_555
Co4 N34 1_555 1_555
Co4 N35 1_555 1_555
Co4 N36 1_555 1_555
Co4 O7 1_555 1_555
Co4 O8 1_555 1_555
Co5 N37 1_555 1_555
Co5 N38 1_555 1_555
Co5 N39 1_555 1_555
Co5 O9 1_555 1_555
Co5 O10 1_555 1_555
Co6 N21 1_555 1_555
Co6 N40 1_555 1_555
Co6 N41 1_555 1_555
Co6 N42 1_555 1_555
Co6 O11 1_555 1_555
Co6 O12 1_555 1_555

#END
