
#######################################################################
#
#                 Cambridge Crystallographic Data Centre
#                                CCDC 
#
#######################################################################
#
# If this CIF has been generated from an entry in the Cambridge 
# Structural Database, then it will include bibliographic, chemical, 
# crystal, experimental, refinement or atomic coordinate data resulting 
# from the CCDC's data processing and validation procedures.
#
#######################################################################

data_KUQWID01
_symmetry_cell_setting           monoclinic
_symmetry_space_group_name_H-M   'P 21/c'
_symmetry_Int_Tables_number      14
_space_group_name_Hall           '-P 2ybc'
loop_
_symmetry_equiv_pos_site_id
_symmetry_equiv_pos_as_xyz
1 x,y,z
2 -x,1/2+y,1/2-z
3 -x,-y,-z
4 x,1/2-y,1/2+z
_cell_length_a                   11.3911(2)
_cell_length_b                   9.40230(10)
_cell_length_c                   14.4361(2)
_cell_angle_alpha                90
_cell_angle_beta                 104.7400(10)
_cell_angle_gamma                90
_cell_volume                     1495.26
loop_
_atom_site_label
_atom_site_type_symbol
_atom_site_fract_x
_atom_site_fract_y
_atom_site_fract_z
Mn1 Mn 0.685703(18) 0.13748(2) 0.798547(13)
O1 O 0.64361(9) 0.36163(10) 0.84543(7)
O2 O 0.69761(9) 0.12284(10) 0.96504(7)
O3 O 0.68758(10) 0.21574(12) 1.16611(7)
O4 O 0.64784(9) 0.50889(11) 1.16128(7)
O5 O 0.60963(10) 0.61501(10) 0.96111(7)
O6 O 0.50393(11) 0.06671(16) 0.79010(10)
H1 H 0.4694(18) 0.079(2) 0.8351(15)
H2 H 0.469(2) 0.015(2) 0.7544(17)
N1 N 0.88745(10) 0.20027(12) 0.83449(8)
N2 N 0.80325(10) -0.06149(12) 0.84535(8)
C1 C 0.92501(15) 0.33227(16) 0.82211(11)
H3 H 0.8623(15) 0.4000(19) 0.7992(12)
C2 C 1.04557(15) 0.36752(17) 0.83568(11)
H4 H 1.0690(16) 0.461(2) 0.8277(12)
C3 C 1.13186(14) 0.26196(18) 0.86124(11)
H5 H 1.2137(18) 0.279(2) 0.8684(13)
C4 C 1.09496(14) 0.12544(18) 0.87456(12)
H6 H 1.1522(17) 0.051(2) 0.8943(13)
C5 C 0.97164(12) 0.09809(15) 0.86180(9)
C6 C 0.92461(12) -0.04632(15) 0.87346(9)
C7 C 1.00084(15) -0.15974(17) 0.90884(11)
H7 H 1.0874(18) -0.1466(19) 0.9314(13)
C8 C 0.95076(17) -0.29293(17) 0.91223(12)
H8 H 1.0004(17) -0.372(2) 0.9341(13)
C9 C 0.82694(17) -0.30929(17) 0.88033(13)
H9 H 0.7890(17) -0.401(2) 0.8795(13)
C10 C 0.75643(15) -0.19115(16) 0.84863(11)
H10 H 0.6698(17) -0.198(2) 0.8269(13)
C11 C 0.65021(11) 0.36720(14) 0.93363(9)
C12 C 0.67681(11) 0.24317(14) 0.99503(9)
C13 C 0.67400(12) 0.28695(15) 1.09142(9)
C14 C 0.65142(11) 0.43985(15) 1.08892(9)
C15 C 0.63387(11) 0.49253(14) 0.98997(9)
Mn1C Mn 0.685703(18) 0.36252(2) 1.298547(13)
O3C O 0.68758(10) 0.28426(12) 0.66611(7)
O4C O 0.64784(9) -0.00889(11) 0.66128(7)
O7 O 0.40479(13) 0.11779(17) 0.94164(11)
H11 H 0.385(2) 0.057(3) 0.9714(19)
H12 H 0.402(2) 0.191(3) 0.9678(18)
loop_
_geom_bond_atom_site_label_1
_geom_bond_atom_site_label_2
_geom_bond_site_symmetry_1
_geom_bond_site_symmetry_2
Mn1 O1 1_555 1_555
O1 C11 1_555 1_555
O2 Mn1 1_555 1_555
O3 C13 1_555 1_555
O4 C14 1_555 1_555
O5 C15 1_555 1_555
O6 Mn1 1_555 1_555
H1 O6 1_555 1_555
H2 O6 1_555 1_555
N1 Mn1 1_555 1_555
N2 Mn1 1_555 1_555
C1 N1 1_555 1_555
H3 C1 1_555 1_555
C2 C1 1_555 1_555
H4 C2 1_555 1_555
C3 C2 1_555 1_555
H5 C3 1_555 1_555
C4 C3 1_555 1_555
H6 C4 1_555 1_555
C5 N1 1_555 1_555
C6 N2 1_555 1_555
C7 C6 1_555 1_555
H7 C7 1_555 1_555
C8 C7 1_555 1_555
H8 C8 1_555 1_555
C9 C8 1_555 1_555
H9 C9 1_555 1_555
C10 N2 1_555 1_555
H10 C10 1_555 1_555
C11 C12 1_555 1_555
C12 O2 1_555 1_555
C13 C12 1_555 1_555
C14 C13 1_555 1_555
C15 C11 1_555 1_555
O7 H11 1_555 1_555
H12 O7 1_555 1_555
Mn1C O3 1_555 1_555
O3C Mn1 1_555 1_555
O4C Mn1 1_555 1_555
O4 Mn1C 1_555 1_555
C4 C5 1_555 1_555
C5 C6 1_555 1_555
C9 C10 1_555 1_555
C14 C15 1_555 1_555

#END
