
#######################################################################
#
#                 Cambridge Crystallographic Data Centre
#                                CCDC 
#
#######################################################################
#
# If this CIF has been generated from an entry in the Cambridge 
# Structural Database, then it will include bibliographic, chemical, 
# crystal, experimental, refinement or atomic coordinate data resulting 
# from the CCDC's data processing and validation procedures.
#
#######################################################################

data_KUQYUS
_symmetry_cell_setting           monoclinic
_symmetry_space_group_name_H-M   'C 2/m'
_symmetry_Int_Tables_number      12
_space_group_name_Hall           '-C 2y'
loop_
_symmetry_equiv_pos_site_id
_symmetry_equiv_pos_as_xyz
1 x,y,z
2 -x,y,-z
3 1/2+x,1/2+y,z
4 1/2-x,1/2+y,-z
5 -x,-y,-z
6 x,-y,z
7 1/2-x,1/2-y,-z
8 1/2+x,1/2-y,z
_cell_length_a                   21.2466(16)
_cell_length_b                   7.9440(6)
_cell_length_c                   15.8517(12)
_cell_angle_alpha                90
_cell_angle_beta                 124.6690(10)
_cell_angle_gamma                90
_cell_volume                     2200.47
loop_
_atom_site_label
_atom_site_type_symbol
_atom_site_fract_x
_atom_site_fract_y
_atom_site_fract_z
Ag1 Ag 0.0000 0.25258(2) 0.0000
N1 N 0.04033(11) 0.0000 0.27538(15)
C1 C -0.01835(13) 0.0000 0.37195(17)
N2 N -0.29539(11) 0.0000 0.26418(15)
N3 N -0.39635(8) -0.08746(19) 0.11835(11)
N4 N 0.00877(8) 0.08740(19) 0.12538(10)
C2 C -0.33528(10) -0.1354(2) 0.20691(13)
H1 H -0.3215 -0.2467 0.2273
C3 C -0.22283(14) 0.0000 0.36752(18)
H2 H -0.2213 -0.0987 0.4047
C4 C -0.05273(10) -0.1506(2) 0.36851(13)
H3 H -0.0309 -0.2522 0.3688
C5 C -0.11976(10) -0.1502(2) 0.36466(14)
H4 H -0.1424 -0.2517 0.3626
C6 C -0.15308(14) 0.0000 0.36380(17)
C7 C 0.02771(9) 0.1351(2) 0.21597(13)
H5 H 0.0319 0.2465 0.2366
C8 C 0.05564(14) 0.0000 0.37886(18)
H6 H 0.0854 0.0988 0.4163
N3E N -0.39635(8) 0.08746(19) 0.11835(11)
N4E N 0.00877(8) -0.08740(19) 0.12538(10)
C2E C -0.33528(10) 0.1354(2) 0.20691(13)
H1E H -0.3215 0.2467 0.2273
H2E H -0.2213 0.0987 0.4047
C4E C -0.05273(10) 0.1506(2) 0.36851(13)
H3E H -0.0309 0.2522 0.3688
C5E C -0.11976(10) 0.1502(2) 0.36466(14)
H4E H -0.1424 0.2517 0.3626
C7E C 0.02771(9) -0.1351(2) 0.21597(13)
H5E H 0.0319 -0.2465 0.2366
H6E H 0.0854 -0.0988 0.4163
Ag1B Ag -0.5000 -0.24742(2) 0.0000
Ag1D Ag 0.0000 -0.25258(2) 0.0000
Ag1F Ag -0.5000 0.24742(2) 0.0000
N3B N 0.10365(8) 0.41254(19) 0.11835(11)
N3C N -0.10365(8) 0.41254(19) -0.11835(11)
N4A N -0.00877(8) 0.08740(19) -0.12538(10)
Cl1 Cl 0.12332(3) 0.5000 0.41909(4)
O1 O 0.16285(8) 0.35162(18) 0.42136(12)
O2 O 0.04730(11) 0.5000 0.32593(15)
O3 O 0.11857(15) 0.5000 0.50508(17)
O1E O 0.16285(8) 0.64838(18) 0.42136(12)
C9 C 0.73155(16) 0.0000 0.9055(2)
C10 C 0.82961(17) 0.0000 1.0864(2)
H7 H 0.8581 0.0992 1.1251
C11 C 0.75110(17) 0.0000 1.0666(2)
H8 H 0.7440 -0.0993 1.0959
C12 C 0.81726(17) 0.0000 0.9827(2)
H9 H 0.8399 -0.0993 0.9746
C13 C 0.61609(16) 0.0000 0.9055(2)
H10 H 0.6005 0.1058 0.9173
N5 N 0.69823(13) 0.0000 0.95607(18)
O4 O 0.69723(13) 0.0000 0.81168(16)
H7E H 0.8581 -0.0992 1.1251
H8E H 0.7440 0.0993 1.0959
H9E H 0.8399 0.0993 0.9746
H10E H 0.6005 -0.1058 0.9173
O5 O 0.76782(11) 0.0000 0.71135(15)
H11 H 0.745(2) 0.0000 0.748(2)
H12 H 0.7305(17) 0.0000 0.6432(14)
H13? H 0.0854 0.0988 0.4163
H14? H -0.2213 -0.0987 0.4047
H15? H 0.8581 0.0992 1.1251
H16? H 0.7440 -0.0993 1.0959
H17? H 0.8399 -0.0993 0.9746
H18? H 0.6022 -0.0896 0.9325
H19? H 0.5912 -0.0162 0.8332
loop_
_geom_bond_atom_site_label_1
_geom_bond_atom_site_label_2
_geom_bond_site_symmetry_1
_geom_bond_site_symmetry_2
Ag1 N4 1_555 1_555
N1 C7 1_555 1_555
C1 C4 1_555 1_555
N2 C2 1_555 1_555
N3 C2 1_555 1_555
N4 C7 1_555 1_555
C2 H1 1_555 1_555
C3 N2 1_555 1_555
H2 C3 1_555 1_555
C4 H3 1_555 1_555
C5 C4 1_555 1_555
H4 C5 1_555 1_555
C6 C3 1_555 1_555
C7 H5 1_555 1_555
C8 N1 1_555 1_555
H6 C8 1_555 1_555
Cl1 O1 1_555 1_555
O2 Cl1 1_555 1_555
O3 Cl1 1_555 1_555
C9 C12 1_555 1_555
C10 H7 1_555 1_555
C11 C10 1_555 1_555
H8 C11 1_555 1_555
C12 C10 1_555 1_555
H9 C12 1_555 1_555
C13 H10 1_555 1_555
N5 C9 1_555 1_555
O4 C9 1_555 1_555
O5 H11 1_555 1_555
H12 O5 1_555 1_555
N3E N3 1_555 1_555
N4E N4 1_555 1_555
C2E N2 1_555 1_555
H1E C2E 1_555 1_555
H2E C3 1_555 1_555
C4E C1 1_555 1_555
H3E C4E 1_555 1_555
C5E C6 1_555 1_555
H4E C5E 1_555 1_555
C7E N1 1_555 1_555
H5E C7E 1_555 1_555
H6E C8 1_555 1_555
Ag1B N3 1_555 1_555
Ag1D N4E 1_555 1_555
Ag1F N3E 1_555 1_555
N3B Ag1 1_555 1_555
N3C Ag1 1_555 1_555
N4A Ag1 1_555 1_555
O1E Cl1 1_555 1_555
H7E C10 1_555 1_555
H8E C11 1_555 1_555
H9E C12 1_555 1_555
H10E C13 1_555 1_555
C1 C8 1_555 1_555
C5 C6 1_555 1_555
C11 N5 1_555 1_555
C13 N5 1_555 1_555
N3E C2E 1_555 1_555
N4E C7E 1_555 1_555
C4E C5E 1_555 1_555

#END
