
#######################################################################
#
#                 Cambridge Crystallographic Data Centre
#                                CCDC 
#
#######################################################################
#
# If this CIF has been generated from an entry in the Cambridge 
# Structural Database, then it will include bibliographic, chemical, 
# crystal, experimental, refinement or atomic coordinate data resulting 
# from the CCDC's data processing and validation procedures.
#
#######################################################################

data_KUQYAX
_symmetry_cell_setting           triclinic
_symmetry_space_group_name_H-M   'P -1'
_symmetry_Int_Tables_number      2
_space_group_name_Hall           '-P 1'
loop_
_symmetry_equiv_pos_site_id
_symmetry_equiv_pos_as_xyz
1 x,y,z
2 -x,-y,-z
_cell_length_a                   10.8627(9)
_cell_length_b                   11.1883(9)
_cell_length_c                   11.3773(11)
_cell_angle_alpha                69.3620(10)
_cell_angle_beta                 79.777(2)
_cell_angle_gamma                74.4510(10)
_cell_volume                     1241.35
loop_
_atom_site_label
_atom_site_type_symbol
_atom_site_fract_x
_atom_site_fract_y
_atom_site_fract_z
Cd1 Cd 0.54365(2) 0.41358(2) 0.28196(2)
O1 O 0.3542(2) 0.8866(2) 0.10268(19)
O2 O 0.3214(2) 1.2522(2) -0.28718(19)
O3 O 0.1420(2) 1.3233(2) 0.0916(2)
O4 O 0.4432(2) 0.6332(2) 0.2357(2)
O5 O 0.5437(2) 0.5865(2) 0.0661(2)
O6 O 0.5431(3) 1.2039(2) -0.5437(2)
O7 O 0.4067(2) 1.3816(2) -0.5227(2)
O8 O -0.0535(2) 1.4391(3) 0.3059(3)
O9 O 0.1493(2) 1.4535(2) 0.2573(2)
H1 H 0.1277 1.5055 0.2969
C1 C 0.3153(3) 1.0160(3) 0.0337(3)
C2 C 0.3429(3) 1.0643(3) -0.0970(3)
H2 H 0.3902 1.0092 -0.1420
C3 C 0.2977(3) 1.1969(3) -0.1577(3)
C4 C 0.2276(3) 1.2805(3) -0.0947(3)
H3 H 0.1962 1.3685 -0.1379
C5 C 0.2041(3) 1.2307(3) 0.0360(3)
C6 C 0.2464(3) 1.0985(3) 0.1016(3)
H4 H 0.2291 1.0661 0.1886
C7 C 0.4302(3) 0.8030(3) 0.0343(3)
H5 H 0.5045 0.8377 -0.0099
H6 H 0.3804 0.8023 -0.0281
C8 C 0.4747(3) 0.6645(3) 0.1192(3)
C9 C 0.4244(3) 1.1799(3) -0.3480(3)
H7 H 0.4002 1.1035 -0.3505
H8 H 0.4988 1.1499 -0.3004
C10 C 0.4583(3) 1.2636(3) -0.4811(3)
C11 C 0.0923(3) 1.2835(3) 0.2194(3)
H9 H 0.1563 1.2157 0.2700
H10 H 0.0174 1.2485 0.2278
C12 C 0.0562(3) 1.4019(3) 0.2637(3)
C13 C 0.7531(3) 0.1663(3) 0.2358(3)
H11 H 0.7154 0.1270 0.3153
C14 C 0.8412(3) 0.0875(3) 0.1767(3)
H12 H 0.8612 -0.0027 0.2162
C15 C 0.9007(3) 0.1419(3) 0.0581(3)
C16 C 0.8686(3) 0.2783(3) 0.0088(3)
H13 H 0.9087 0.3208 -0.0681
C17 C 0.7779(3) 0.3505(3) 0.0735(3)
H14 H 0.7573 0.4412 0.0374
C18 C 0.9902(3) 0.0636(3) -0.0129(3)
H15 H 1.0380 0.1080 -0.0830
N1 N 0.7183(2) 0.2966(2) 0.1854(2)
O10 O 0.4035(2) 0.3480(2) 0.1975(2)
H16 H 0.3277 0.3919 0.2079
H17 H 0.4254 0.3618 0.1192
O11 O 0.6901(2) 0.4441(2) 0.3850(2)
H18 H 0.7506 0.4707 0.3319
H19 H 0.6534 0.5012 0.4209
Cd1_2 Cd 0.54365(2) -0.58642(2) 1.28196(2)
Cd1_3 Cd 0.54365(2) 1.41358(2) -0.71804(2)
Cd1A Cd 1.45635(2) -0.41358(2) -0.28196(2)
O1_2 O 0.3542(2) -0.1134(2) 1.10268(19)
O2_2 O 0.3214(2) 0.2522(2) 0.71282(19)
O3_2 O 0.1420(2) 0.3233(2) 1.0916(2)
O4_2 O 0.4432(2) -0.3668(2) 1.2357(2)
O5_2 O 0.5437(2) -0.4135(2) 1.0661(2)
O6_2 O 0.5431(3) 0.2039(2) 0.4563(2)
O6_3 O 0.5431(3) -0.7961(2) 1.4563(2)
O7_2 O 0.4067(2) 0.3816(2) 0.4773(2)
O7_3 O 0.4067(2) -0.6184(2) 1.4773(2)
O8_2 O -0.0535(2) 0.4391(3) 1.3059(3)
O9_2 O 0.1493(2) 0.4535(2) 1.2573(2)
H1_2 H 0.1277 0.5055 1.2969
C1_2 C 0.3153(3) 0.0160(3) 1.0337(3)
C2_2 C 0.3429(3) 0.0643(3) 0.9030(3)
H2_2 H 0.3902 0.0092 0.8580
C3_2 C 0.2977(3) 0.1969(3) 0.8423(3)
C4_2 C 0.2276(3) 0.2805(3) 0.9053(3)
H3_2 H 0.1962 0.3685 0.8621
C5_2 C 0.2041(3) 0.2307(3) 1.0360(3)
C6_2 C 0.2464(3) 0.0985(3) 1.1016(3)
H4_2 H 0.2291 0.0661 1.1886
C7_2 C 0.4302(3) -0.1970(3) 1.0343(3)
H5_2 H 0.5045 -0.1623 0.9901
H6_2 H 0.3804 -0.1977 0.9719
C8_2 C 0.4747(3) -0.3355(3) 1.1192(3)
C9_2 C 0.4244(3) 0.1799(3) 0.6520(3)
H7_2 H 0.4002 0.1035 0.6495
H8_2 H 0.4988 0.1499 0.6996
C10_2 C 0.4583(3) 0.2636(3) 0.5189(3)
C11_2 C 0.0923(3) 0.2835(3) 1.2194(3)
H9_2 H 0.1563 0.2157 1.2700
H10_2 H 0.0174 0.2485 1.2278
C12_2 C 0.0562(3) 0.4019(3) 1.2637(3)
C13A C 1.2469(3) -0.1663(3) -0.2358(3)
H11A H 1.2846 -0.1270 -0.3153
C14A C 1.1588(3) -0.0875(3) -0.1767(3)
H12A H 1.1388 0.0027 -0.2162
C15A C 1.0993(3) -0.1419(3) -0.0581(3)
C16A C 1.1314(3) -0.2783(3) -0.0088(3)
H13A H 1.0913 -0.3208 0.0681
C17A C 1.2221(3) -0.3505(3) -0.0735(3)
H14A H 1.2427 -0.4412 -0.0374
C18A C 1.0098(3) -0.0636(3) 0.0129(3)
H15A H 0.9620 -0.1080 0.0830
N1A N 1.2817(2) -0.2966(2) -0.1854(2)
N1_2 N 0.7183(2) -0.7034(2) 1.1854(2)
O10_2 O 0.4035(2) -0.6520(2) 1.1975(2)
H16_2 H 0.3277 -0.6081 1.2079
H17_2 H 0.4254 -0.6382 1.1192
O11_2 O 0.6901(2) -0.5559(2) 1.3850(2)
H18_2 H 0.7506 -0.5293 1.3319
H19_2 H 0.6534 -0.4988 1.4209
C19 C 1.0424(4) 0.3157(4) 0.6064(3)
H20 H 1.1035 0.3583 0.6104
C20 C 1.0797(4) 0.2125(3) 0.5602(3)
H21 H 1.1652 0.1865 0.5318
C21 C 0.9897(4) 0.1470(3) 0.5557(3)
C22 C 0.8639(4) 0.1909(4) 0.5974(4)
H22 H 0.8009 0.1496 0.5952
C23 C 0.8316(4) 0.2955(4) 0.6420(4)
H23 H 0.7468 0.3247 0.6701
C24 C 1.0359(4) 0.0346(3) 0.5054(3)
H24 H 1.1230 0.0132 0.4800
N2 N 0.9216(3) 0.3558(3) 0.6454(3)
C19A C 0.9576(4) -0.3157(4) 0.3936(3)
H20A H 0.8965 -0.3583 0.3896
C20A C 0.9203(4) -0.2125(3) 0.4398(3)
H21A H 0.8348 -0.1865 0.4682
C21A C 1.0103(4) -0.1470(3) 0.4443(3)
C22A C 1.1361(4) -0.1909(4) 0.4026(4)
H22A H 1.1991 -0.1496 0.4048
C23A C 1.1684(4) -0.2955(4) 0.3580(4)
H23A H 1.2532 -0.3247 0.3299
C24A C 0.9641(4) -0.0346(3) 0.4946(3)
H24A H 0.8770 -0.0132 0.5200
N2A N 1.0784(3) -0.3558(3) 0.3546(3)
O12 O 0.6588(3) 0.9373(3) 0.5855(3)
H25 H 0.6291 1.0182 0.5488
H26 H 0.6087 0.8942 0.5778
loop_
_geom_bond_atom_site_label_1
_geom_bond_atom_site_label_2
_geom_bond_site_symmetry_1
_geom_bond_site_symmetry_2
Cd1 O4 1_555 1_555
O1 C1 1_555 1_555
O2 C3 1_555 1_555
O3 C5 1_555 1_555
O4 C8 1_555 1_555
O5 Cd1 1_555 1_555
O6 C10 1_555 1_555
O7 C10 1_555 1_555
O8 C12 1_555 1_555
O9 H1 1_555 1_555
C1 C2 1_555 1_555
C2 H2 1_555 1_555
C3 C2 1_555 1_555
C4 C3 1_555 1_555
H3 C4 1_555 1_555
C5 C4 1_555 1_555
C6 C1 1_555 1_555
H4 C6 1_555 1_555
C7 O1 1_555 1_555
H5 C7 1_555 1_555
H6 C7 1_555 1_555
C8 O5 1_555 1_555
C9 O2 1_555 1_555
H7 C9 1_555 1_555
H8 C9 1_555 1_555
C10 C9 1_555 1_555
C11 O3 1_555 1_555
H9 C11 1_555 1_555
H10 C11 1_555 1_555
C12 O9 1_555 1_555
C13 H11 1_555 1_555
C14 C13 1_555 1_555
H12 C14 1_555 1_555
C15 C14 1_555 1_555
C16 C15 1_555 1_555
H13 C16 1_555 1_555
C17 C16 1_555 1_555
H14 C17 1_555 1_555
C18 C15 1_555 1_555
H15 C18 1_555 1_555
N1 Cd1 1_555 1_555
O10 Cd1 1_555 1_555
H16 O10 1_555 1_555
H17 O10 1_555 1_555
O11 Cd1 1_555 1_555
H18 O11 1_555 1_555
H19 O11 1_555 1_555
C19 H20 1_555 1_555
C20 C19 1_555 1_555
H21 C20 1_555 1_555
C21 C20 1_555 1_555
C22 C21 1_555 1_555
H22 C22 1_555 1_555
C23 C22 1_555 1_555
H23 C23 1_555 1_555
C24 C21 1_555 1_555
H24 C24 1_555 1_555
N2 C19 1_555 1_555
O12 H25 1_555 1_555
H26 O12 1_555 1_555
Cd1_2 O4_2 1_555 1_555
Cd1_3 O6 1_555 1_555
Cd1A N1A 1_555 1_555
O1_2 C1_2 1_555 1_555
O2_2 C3_2 1_555 1_555
O3_2 C5_2 1_555 1_555
O4_2 C8_2 1_555 1_555
O5_2 Cd1_2 1_555 1_555
O6_2 Cd1 1_555 1_555
O6_3 Cd1_2 1_555 1_555
O7_2 Cd1 1_555 1_555
O7_3 Cd1_2 1_555 1_555
O8_2 C12_2 1_555 1_555
O9_2 H1_2 1_555 1_555
C1_2 C2_2 1_555 1_555
C2_2 H2_2 1_555 1_555
C3_2 C2_2 1_555 1_555
C4_2 C3_2 1_555 1_555
H3_2 C4_2 1_555 1_555
C5_2 C4_2 1_555 1_555
C6_2 C1_2 1_555 1_555
H4_2 C6_2 1_555 1_555
C7_2 O1_2 1_555 1_555
H5_2 C7_2 1_555 1_555
H6_2 C7_2 1_555 1_555
C8_2 O5_2 1_555 1_555
C9_2 O2_2 1_555 1_555
H7_2 C9_2 1_555 1_555
H8_2 C9_2 1_555 1_555
C10_2 O6_2 1_555 1_555
C11_2 O3_2 1_555 1_555
H9_2 C11_2 1_555 1_555
H10_2 C11_2 1_555 1_555
C12_2 O9_2 1_555 1_555
C13A H11A 1_555 1_555
C14A C13A 1_555 1_555
H12A C14A 1_555 1_555
C15A C14A 1_555 1_555
C16A C15A 1_555 1_555
H13A C16A 1_555 1_555
C17A C16A 1_555 1_555
H14A C17A 1_555 1_555
C18A C18 1_555 1_555
H15A C18A 1_555 1_555
N1A C13A 1_555 1_555
N1_2 Cd1_2 1_555 1_555
O10_2 Cd1_2 1_555 1_555
H16_2 O10_2 1_555 1_555
H17_2 O10_2 1_555 1_555
O11_2 Cd1_2 1_555 1_555
H18_2 O11_2 1_555 1_555
H19_2 O11_2 1_555 1_555
C19A H20A 1_555 1_555
C20A C19A 1_555 1_555
H21A C20A 1_555 1_555
C21A C20A 1_555 1_555
C22A C21A 1_555 1_555
H22A C22A 1_555 1_555
C23A C22A 1_555 1_555
H23A C23A 1_555 1_555
C24A C24 1_555 1_555
H24A C24A 1_555 1_555
N2A C19A 1_555 1_555
O7 Cd1_3 1_555 1_555
C5 C6 1_555 1_555
C7 C8 1_555 1_555
C11 C12 1_555 1_555
C13 N1 1_555 1_555
C17 N1 1_555 1_555
C23 N2 1_555 1_555
O7_2 C10_2 1_555 1_555
C5_2 C6_2 1_555 1_555
C7_2 C8_2 1_555 1_555
C9_2 C10_2 1_555 1_555
C11_2 C12_2 1_555 1_555
C15A C18A 1_555 1_555
C17A N1A 1_555 1_555
C21A C24A 1_555 1_555
C23A N2A 1_555 1_555

#END
