
#######################################################################
#
#                 Cambridge Crystallographic Data Centre
#                                CCDC 
#
#######################################################################
#
# If this CIF has been generated from an entry in the Cambridge 
# Structural Database, then it will include bibliographic, chemical, 
# crystal, experimental, refinement or atomic coordinate data resulting 
# from the CCDC's data processing and validation procedures.
#
#######################################################################

data_KURJIS
_symmetry_cell_setting           monoclinic
_symmetry_space_group_name_H-M   'P 21/c'
_symmetry_Int_Tables_number      14
_space_group_name_Hall           '-P 2ybc'
loop_
_symmetry_equiv_pos_site_id
_symmetry_equiv_pos_as_xyz
1 x,y,z
2 -x,1/2+y,1/2-z
3 -x,-y,-z
4 x,1/2-y,1/2+z
_cell_length_a                   10.9763(2)
_cell_length_b                   17.4706(4)
_cell_length_c                   13.3915(3)
_cell_angle_alpha                90
_cell_angle_beta                 101.2370(10)
_cell_angle_gamma                90
_cell_volume                     2518.76
loop_
_atom_site_label
_atom_site_type_symbol
_atom_site_fract_x
_atom_site_fract_y
_atom_site_fract_z
Eu1 Eu 0.32822(2) 0.04256(2) 0.90966(2)
Eu2 Eu -0.15700(2) 0.25812(2) 0.90651(2)
O1 O 0.3327(3) -0.10330(18) 0.8915(2)
H1 H 0.3967 -0.1280 0.9412
H2 H 0.2582 -0.1343 0.8841
O2 O 0.1763(3) 0.14859(18) 0.8785(3)
O3 O 0.4847(3) 0.15008(18) 0.9455(2)
O4 O -0.0423(3) 0.38509(18) 0.9275(3)
H3 H -0.0822 0.4348 0.9179
H4 H 0.0371 0.3927 0.9730
N1 N 0.3744(3) 0.1205(2) 0.7572(3)
O5 O 0.4537(3) 0.00970(17) 1.0857(2)
O6 O -0.1541(3) 0.48729(18) 1.5260(2)
O7 O 0.2067(3) 0.01191(19) 0.7414(3)
O8 O 0.0581(3) 0.23951(19) 0.9264(3)
N2 N 0.2885(3) 0.1207(2) 1.0668(3)
O9 O -0.1282(3) 0.36102(18) 1.5141(2)
O10 O 0.6357(3) 0.2142(2) 0.8943(3)
O11 O -0.1732(4) 0.2943(2) 1.0712(3)
O12 O -0.2968(4) 0.3645(2) 0.8373(3)
H5 H -0.2801 0.3996 0.7855
H6 H -0.3574 0.3884 0.8713
C1 C 0.1401(4) 0.1867(3) 0.9444(4)
C2 C 0.4694(4) 0.1689(3) 0.7688(4)
C3 C 0.3472(4) 0.1044(3) 1.1616(3)
C4 C 0.3103(4) 0.1061(3) 0.6635(4)
C5 C 0.2103(4) 0.0458(3) 0.6591(4)
C6 C 0.2266(5) 0.1953(3) 1.2326(4)
H7 H 0.2058 0.2205 1.2881
C7 C 0.1652(5) 0.2116(3) 1.1352(4)
H8 H 0.1016 0.2476 1.1239
C8 C 0.5354(4) 0.1784(2) 0.8781(4)
C9 C 0.3198(5) 0.1409(3) 1.2464(4)
H9 H 0.3632 0.1291 1.3113
C10 C 0.3399(5) 0.1405(3) 0.5787(4)
H10 H 0.2941 0.1300 0.5142
C11 C 0.5055(5) 0.2050(3) 0.6877(4)
H11 H 0.5732 0.2381 0.6977
C12 C 0.4383(5) 0.1904(3) 0.5911(4)
H12 H 0.4595 0.2144 0.5349
C13 C -0.1425(4) 0.3719(3) 1.2168(4)
C14 C -0.1650(4) 0.2954(3) 1.1663(4)
C15 C -0.1208(5) 0.4381(3) 1.1670(4)
H13 H -0.1213 0.4379 1.0975
C16 C 0.1992(4) 0.1736(2) 1.0544(4)
O13 O -0.1729(3) 0.23853(18) 1.2209(2)
O14 O 0.5065(4) 0.0266(2) 1.2530(3)
C17 C 0.4429(4) 0.0418(3) 1.1700(4)
O15 O 0.1429(3) 0.0316(2) 0.5754(3)
N3 N -0.1436(3) 0.3702(2) 1.3163(3)
C18 C -0.1257(4) 0.4359(3) 1.3685(3)
C19 C -0.1011(4) 0.5040(3) 1.3248(4)
H14 H -0.0867 0.5485 1.3634
C20 C -0.0985(5) 0.5045(3) 1.2228(4)
H15 H -0.0816 0.5497 1.1914
C21 C -0.1352(4) 0.4279(3) 1.4786(3)
Eu1A Eu -0.32822(2) 0.54256(2) 1.59034(2)
Eu1B Eu 0.67178(2) -0.04256(2) 1.09034(2)
Eu2_2 Eu 0.84300(2) 0.25812(2) 0.90651(2)
Eu2C Eu -0.15700(2) 0.24188(2) 1.40651(2)
O5B O 0.5463(3) -0.00970(17) 0.9143(2)
O6A O 0.1541(3) -0.01271(18) 0.9740(2)
O9C O -0.1282(3) 0.13898(18) 1.0141(2)
O10_2 O -0.3643(3) 0.2142(2) 0.8943(3)
O13C O -0.1729(3) 0.26147(18) 0.7209(2)
N3C N -0.1436(3) 0.1298(2) 0.8163(3)
O16 O 0.5643(17) 0.4429(8) 0.9646(13)
loop_
_geom_bond_atom_site_label_1
_geom_bond_atom_site_label_2
_geom_bond_site_symmetry_1
_geom_bond_site_symmetry_2
Eu1 O1 1_555 1_555
Eu2 O4 1_555 1_555
O1 H1 1_555 1_555
H2 O1 1_555 1_555
O2 Eu1 1_555 1_555
O3 Eu1 1_555 1_555
O4 H3 1_555 1_555
H4 O4 1_555 1_555
N1 Eu1 1_555 1_555
O5 Eu1 1_555 1_555
O6 C21 1_555 1_555
O7 Eu1 1_555 1_555
O8 Eu2 1_555 1_555
N2 Eu1 1_555 1_555
O9 C21 1_555 1_555
O10 C8 1_555 1_555
O11 Eu2 1_555 1_555
O12 Eu2 1_555 1_555
H5 O12 1_555 1_555
H6 O12 1_555 1_555
C1 O2 1_555 1_555
C2 N1 1_555 1_555
C3 N2 1_555 1_555
C4 N1 1_555 1_555
C5 O7 1_555 1_555
C6 H7 1_555 1_555
C7 C6 1_555 1_555
H8 C7 1_555 1_555
C8 O3 1_555 1_555
C9 C3 1_555 1_555
H9 C9 1_555 1_555
C10 C4 1_555 1_555
H10 C10 1_555 1_555
C11 C2 1_555 1_555
H11 C11 1_555 1_555
C12 C10 1_555 1_555
H12 C12 1_555 1_555
C13 C14 1_555 1_555
C14 O11 1_555 1_555
C15 C13 1_555 1_555
H13 C15 1_555 1_555
C16 N2 1_555 1_555
O13 C14 1_555 1_555
O14 C17 1_555 1_555
C17 O5 1_555 1_555
O15 C5 1_555 1_555
N3 C13 1_555 1_555
C18 N3 1_555 1_555
C19 C18 1_555 1_555
H14 C19 1_555 1_555
C20 C15 1_555 1_555
H15 C20 1_555 1_555
C21 C18 1_555 1_555
Eu1A O6 1_555 1_555
Eu1B O5 1_555 1_555
Eu2_2 O10 1_555 1_555
Eu2C O9 1_555 1_555
O5B Eu1 1_555 1_555
O6A Eu1 1_555 1_555
O9C Eu2 1_555 1_555
O10_2 Eu2 1_555 1_555
O13C Eu2 1_555 1_555
N3C Eu2 1_555 1_555
O8 C1 1_555 1_555
C1 C16 1_555 1_555
C2 C8 1_555 1_555
C3 C17 1_555 1_555
C4 C5 1_555 1_555
C6 C9 1_555 1_555
C7 C16 1_555 1_555
C11 C12 1_555 1_555
O13 Eu2C 1_555 1_555
N3 Eu2C 1_555 1_555
C19 C20 1_555 1_555
Eu1B O5B 1_555 1_555

#END
