
#######################################################################
#
#                 Cambridge Crystallographic Data Centre
#                                CCDC 
#
#######################################################################
#
# If this CIF has been generated from an entry in the Cambridge 
# Structural Database, then it will include bibliographic, chemical, 
# crystal, experimental, refinement or atomic coordinate data resulting 
# from the CCDC's data processing and validation procedures.
#
#######################################################################

data_KURNUG
_symmetry_cell_setting           triclinic
_symmetry_space_group_name_H-M   'P -1'
_symmetry_Int_Tables_number      2
_space_group_name_Hall           '-P 1'
loop_
_symmetry_equiv_pos_site_id
_symmetry_equiv_pos_as_xyz
1 x,y,z
2 -x,-y,-z
_cell_length_a                   8.159(1)
_cell_length_b                   9.860(1)
_cell_length_c                   11.262(1)
_cell_angle_alpha                78.44(1)
_cell_angle_beta                 75.11(1)
_cell_angle_gamma                84.30(1)
_cell_volume                     856.724
loop_
_atom_site_label
_atom_site_type_symbol
_atom_site_fract_x
_atom_site_fract_y
_atom_site_fract_z
Co1 Co 0.5000 0.5000 0.5000
P1 P 0.7830(1) 0.4754(1) 0.2076(1)
O1 O 0.6875(3) 0.4922(2) 0.3339(2)
O2 O 0.6854(3) 0.4097(2) 0.1313(2)
O3 O 0.8365(3) 0.6120(2) 0.1182(2)
O4 O 0.4787(3) 0.7170(2) 0.4510(3)
N1 N 0.3038(3) 0.4842(2) 0.4103(2)
C1 C 0.3078(4) 0.5474(4) 0.2924(3)
C2 C 0.2031(4) 0.5163(4) 0.2240(3)
C3 C 0.0853(4) 0.4160(3) 0.2787(3)
C4 C 0.0764(4) 0.3556(3) 0.4013(3)
C5 C 0.1836(4) 0.3928(3) 0.4628(3)
C6 C 0.9780(4) 0.3711(4) 0.2056(3)
C7 C 0.6010(6) 0.2795(5) 0.1841(4)
C8 C 0.5577(14) 0.2354(10) 0.0769(8)
C9 C 0.7801(14) 0.7462(4) 0.1455(7)
C10 C 0.8631(16) 0.8626(7) 0.0524(9)
H1 H 0.396(5) 0.611(4) 0.252(4)
H2 H 0.208(4) 0.568(4) 0.141(3)
H3 H 0.000(4) 0.280(3) 0.447(3)
H4 H 0.394(6) 0.775(5) 0.413(5)
H5 H 0.552(4) 0.790(3) 0.449(3)
H6 H 0.179(4) 0.355(3) 0.546(3)
H7 H 1.047(4) 0.381(3) 0.119(3)
H8 H 0.956(4) 0.277(4) 0.246(3)
H9 H 0.488(7) 0.292(6) 0.257(2)
H10 H 0.689(3) 0.204(2) 0.229(2)
H11 H 0.683(6) 0.211(12) 0.023(10)
H12 H 0.485(16) 0.327(9) 0.045(14)
H13 H 0.482(13) 0.146(8) 0.119(10)
H14 H 0.812(9) 0.757(7) 0.230(4)
H15 H 0.647(4) 0.768(10) 0.148(10)
H16 H 0.850(12) 0.864(9) -0.041(3)
H17 H 0.975(8) 0.864(11) 0.089(10)
H18 H 0.838(8) 0.956(4) 0.092(6)
O1A O 0.3125(3) 0.5078(2) 0.6661(2)
O4A O 0.5213(3) 0.2830(2) 0.5490(3)
N1A N 0.6962(3) 0.5158(2) 0.5897(2)
C6_2 C -0.0220(4) 0.3711(4) 0.2056(3)
C3_2 C 1.0853(4) 0.4160(3) 0.2787(3)
H4A H 0.606(6) 0.225(5) 0.587(5)
H5A H 0.448(4) 0.210(3) 0.551(3)
P1_2 P -0.2170(1) 0.4754(1) 0.2076(1)
H7_2 H 0.047(4) 0.381(3) 0.119(3)
H8_2 H -0.044(4) 0.277(4) 0.246(3)
C2_2 C 1.2031(4) 0.5163(4) 0.2240(3)
C4_2 C 1.0764(4) 0.3556(3) 0.4013(3)
O1_2 O -0.3125(3) 0.4922(2) 0.3339(2)
O2_2 O -0.3146(3) 0.4097(2) 0.1313(2)
O3_2 O -0.1635(3) 0.6120(2) 0.1182(2)
C1_2 C 1.3078(4) 0.5474(4) 0.2924(3)
H2_2 H 1.208(4) 0.568(4) 0.141(3)
C5_2 C 1.1836(4) 0.3928(3) 0.4628(3)
H3_2 H 1.000(4) 0.280(3) 0.447(3)
Co1_2 Co -0.5000 0.5000 0.5000
C7_2 C -0.3990(6) 0.2795(5) 0.1841(4)
C9_2 C -0.2199(14) 0.7462(4) 0.1455(7)
N1_2 N 1.3038(3) 0.4842(2) 0.4103(2)
H1_2 H 1.396(5) 0.611(4) 0.252(4)
H6_2 H 1.179(4) 0.355(3) 0.546(3)
C8_2 C -0.4423(14) 0.2354(10) 0.0769(8)
H9_2 H -0.512(7) 0.292(6) 0.257(2)
H10_2 H -0.311(3) 0.204(2) 0.229(2)
C10_2 C -0.1369(16) 0.8626(7) 0.0524(9)
H14_2 H -0.188(9) 0.757(7) 0.230(4)
H15_2 H -0.353(4) 0.768(10) 0.148(10)
Co1_3 Co 1.5000 0.5000 0.5000
H11_2 H -0.317(6) 0.211(12) 0.023(10)
H12_2 H -0.515(16) 0.327(9) 0.045(14)
H13_2 H -0.518(13) 0.146(8) 0.119(10)
H16_2 H -0.150(12) 0.864(9) -0.041(3)
H17_2 H -0.025(8) 0.864(11) 0.089(10)
H18_2 H -0.162(8) 0.956(4) 0.092(6)
Cl1 Cl 0.1744(1) 0.9509(1) 0.2898(1)
O6 O 0.1912(5) 0.8730(5) 0.4026(4)
O7 O 0.2794(7) 0.9012(4) 0.1880(4)
O8 O 0.2142(10) 1.0826(4) 0.2822(6)
O9 O 0.0109(7) 0.9734(11) 0.2814(7)
O5 O 0.3206(6) 1.0740(4) 0.5575(6)
H19 H 0.348(9) 1.108(7) 0.467(1)
H20 H 0.231(8) 1.008(7) 0.578(9)
loop_
_geom_bond_atom_site_label_1
_geom_bond_atom_site_label_2
_geom_bond_site_symmetry_1
_geom_bond_site_symmetry_2
Co1 O1 1_555 1_555
Cl1 O6 1_555 1_555
P1 O1 1_555 1_555
O2 P1 1_555 1_555
O3 P1 1_555 1_555
O4 Co1 1_555 1_555
O5 H19 1_555 1_555
N1 Co1 1_555 1_555
C1 N1 1_555 1_555
C2 C1 1_555 1_555
C3 C2 1_555 1_555
C4 C3 1_555 1_555
C5 N1 1_555 1_555
C6 P1 1_555 1_555
C7 O2 1_555 1_555
C8 C7 1_555 1_555
C9 O3 1_555 1_555
C10 C9 1_555 1_555
O7 Cl1 1_555 1_555
O8 Cl1 1_555 1_555
O9 Cl1 1_555 1_555
H1 C1 1_555 1_555
H2 C2 1_555 1_555
H3 C4 1_555 1_555
H4 O4 1_555 1_555
H5 O4 1_555 1_555
H6 C5 1_555 1_555
H7 C6 1_555 1_555
H8 C6 1_555 1_555
H9 C7 1_555 1_555
H10 C7 1_555 1_555
H11 C8 1_555 1_555
H12 C8 1_555 1_555
H13 C8 1_555 1_555
H14 C9 1_555 1_555
H15 C9 1_555 1_555
H16 C10 1_555 1_555
H17 C10 1_555 1_555
H18 C10 1_555 1_555
H20 O5 1_555 1_555
O1A Co1 1_555 1_555
O4A Co1 1_555 1_555
N1A Co1 1_555 1_555
C6_2 C3 1_555 1_555
C3_2 C6 1_555 1_555
H4A O4A 1_555 1_555
H5A O4A 1_555 1_555
P1_2 C6_2 1_555 1_555
H7_2 C6_2 1_555 1_555
H8_2 C6_2 1_555 1_555
C2_2 C3_2 1_555 1_555
C4_2 C3_2 1_555 1_555
O1_2 P1_2 1_555 1_555
O2_2 P1_2 1_555 1_555
O3_2 P1_2 1_555 1_555
C1_2 C2_2 1_555 1_555
H2_2 C2_2 1_555 1_555
C5_2 C4_2 1_555 1_555
H3_2 C4_2 1_555 1_555
Co1_2 O1_2 1_555 1_555
C7_2 O2_2 1_555 1_555
C9_2 O3_2 1_555 1_555
N1_2 C1_2 1_555 1_555
H1_2 C1_2 1_555 1_555
H6_2 C5_2 1_555 1_555
C8_2 C7_2 1_555 1_555
H9_2 C7_2 1_555 1_555
H10_2 C7_2 1_555 1_555
C10_2 C9_2 1_555 1_555
H14_2 C9_2 1_555 1_555
H15_2 C9_2 1_555 1_555
Co1_3 N1_2 1_555 1_555
H11_2 C8_2 1_555 1_555
H12_2 C8_2 1_555 1_555
H13_2 C8_2 1_555 1_555
H16_2 C10_2 1_555 1_555
H17_2 C10_2 1_555 1_555
H18_2 C10_2 1_555 1_555
C4 C5 1_555 1_555
C5_2 N1_2 1_555 1_555

#END
