
#######################################################################
#
#                 Cambridge Crystallographic Data Centre
#                                CCDC 
#
#######################################################################
#
# If this CIF has been generated from an entry in the Cambridge 
# Structural Database, then it will include bibliographic, chemical, 
# crystal, experimental, refinement or atomic coordinate data resulting 
# from the CCDC's data processing and validation procedures.
#
#######################################################################

data_KURNAO
_symmetry_cell_setting           monoclinic
_symmetry_space_group_name_H-M   'P 21/c'
_symmetry_Int_Tables_number      14
_space_group_name_Hall           '-P 2ybc'
loop_
_symmetry_equiv_pos_site_id
_symmetry_equiv_pos_as_xyz
1 x,y,z
2 -x,1/2+y,1/2-z
3 -x,-y,-z
4 x,1/2-y,1/2+z
_cell_length_a                   7.6647(5)
_cell_length_b                   26.6935(14)
_cell_length_c                   7.5350(5)
_cell_angle_alpha                90
_cell_angle_beta                 111.787(7)
_cell_angle_gamma                90
_cell_volume                     1431.52
loop_
_atom_site_label
_atom_site_type_symbol
_atom_site_fract_x
_atom_site_fract_y
_atom_site_fract_z
C1 C 0.4857(4) 0.22808(13) -0.1467(4)
H1 H 0.3748 0.2171 -0.2412
Cd1 Cd 1.00803(3) 0.155428(8) 0.32213(3)
O1 O 1.0810(3) 0.23671(8) 0.4014(3)
O2 O 1.2297(3) 0.15697(8) 0.1752(3)
H2 H 1.3308 0.1741 0.2303
H3 H 1.1685 0.1710 0.0693
O3 O 0.6046(3) 0.37041(9) 0.1042(3)
O4 O 0.8107(3) 0.37028(9) -0.0382(3)
N1 N 0.5191(3) 0.27704(11) -0.1241(3)
C2 C 0.7029(4) 0.34893(12) 0.0297(4)
N2 N 0.8945(3) 0.08690(10) 0.1280(3)
N3 N 0.7717(3) 0.20770(10) 0.1033(3)
C3 C 0.8062(4) 0.25699(12) 0.1293(4)
O5 O 1.2444(3) 0.12226(10) 0.5681(3)
H4 H 1.3583 0.1280 0.5838
H5 H 1.2477 0.1141 0.6795
C4 C 0.8141(4) 0.04524(13) 0.1672(4)
H6 H 0.8024 0.0401 0.2844
N4 N 0.7543(4) 0.01292(11) 0.0274(3)
C5 C 0.6105(4) 0.19295(13) -0.0343(4)
H7 H 0.5828 0.1590 -0.0540
C6 C 0.6818(4) 0.29218(12) 0.0123(4)
C7 C 0.8804(4) 0.07938(13) -0.0520(4)
H8 H 0.9222 0.1014 -0.1233
N5 N 0.7975(3) 0.03573(10) -0.1133(3)
C8 C 0.7410(4) 0.01458(13) -0.3053(4)
H9 H 0.8054 -0.0170 -0.2993
H10 H 0.7779 0.0372 -0.3859
C9 C 0.5297(4) 0.00604(13) -0.3934(4)
H11 H 0.4646 0.0358 -0.3774
H12 H 0.4956 -0.0215 -0.3287
O6 O 1.0152(3) 0.31699(9) 0.3249(3)
C10 C 0.9835(4) 0.27155(13) 0.2982(4)
N2B N 0.1055(3) -0.08690(10) -1.1280(3)
C4B C 0.1859(4) -0.04524(13) -1.1672(4)
H6B H 0.1976 -0.0401 -1.2844
N4B N 0.2457(4) -0.01292(11) -1.0274(3)
C7B C 0.1196(4) -0.07938(13) -0.9480(4)
H8B H 0.0778 -0.1014 -0.8767
N5B N 0.2025(3) -0.03573(10) -0.8867(3)
C8B C 0.2590(4) -0.01458(13) -0.6947(4)
H9B H 0.1946 0.0170 -0.7007
H10B H 0.2221 -0.0372 -0.6141
C9B C 0.4703(4) -0.00604(13) -0.6066(4)
H11B H 0.5354 -0.0358 -0.6226
H12B H 0.5044 0.0215 -0.6713
C1B C 0.5143(4) -0.22808(13) -0.8533(4)
H1B H 0.6252 -0.2171 -0.7588
Cd1B Cd -0.00803(3) -0.155428(8) -1.32213(3)
O1B O -0.0810(3) -0.23671(8) -1.4014(3)
O2B O -0.2297(3) -0.15697(8) -1.1752(3)
H2B H -0.3308 -0.1741 -1.2303
H3B H -0.1685 -0.1710 -1.0693
O3B O 0.3954(3) -0.37041(9) -1.1042(3)
O4B O 0.1893(3) -0.37028(9) -0.9618(3)
N1B N 0.4809(3) -0.27704(11) -0.8759(3)
C2B C 0.2971(4) -0.34893(12) -1.0297(4)
N3B N 0.2283(3) -0.20770(10) -1.1033(3)
C3B C 0.1938(4) -0.25699(12) -1.1293(4)
O5B O -0.2444(3) -0.12226(10) -1.5681(3)
H4B H -0.3583 -0.1280 -1.5838
H5B H -0.2477 -0.1141 -1.6795
C5B C 0.3895(4) -0.19295(13) -0.9657(4)
H7B H 0.4172 -0.1590 -0.9460
C6B C 0.3182(4) -0.29218(12) -1.0123(4)
O6B O -0.0152(3) -0.31699(9) -1.3249(3)
C10B C 0.0165(4) -0.27155(13) -1.2982(4)
Cd1A Cd -0.00803(3) -0.344572(8) -0.82213(3)
Cd1C Cd 1.00803(3) 0.344572(8) -0.17787(3)
O4A O 0.1893(3) -0.12972(9) -1.4618(3)
O4C O 0.8107(3) 0.12972(9) 0.4618(3)
O7 O 0.3471(3) 0.09068(9) 0.9408(3)
H13 H 0.3358 0.0580 0.9642
H14 H 0.3202 0.1081 1.0231
loop_
_geom_bond_atom_site_label_1
_geom_bond_atom_site_label_2
_geom_bond_site_symmetry_1
_geom_bond_site_symmetry_2
C1 H1 1_555 1_555
Cd1 O1 1_555 1_555
O1 C10 1_555 1_555
O2 Cd1 1_555 1_555
H2 O2 1_555 1_555
H3 O2 1_555 1_555
O3 C2 1_555 1_555
O4 C2 1_555 1_555
N1 C1 1_555 1_555
C2 C6 1_555 1_555
N2 Cd1 1_555 1_555
N3 Cd1 1_555 1_555
C3 N3 1_555 1_555
O5 Cd1 1_555 1_555
H4 O5 1_555 1_555
H5 O5 1_555 1_555
C4 N2 1_555 1_555
H6 C4 1_555 1_555
N4 C4 1_555 1_555
C5 C1 1_555 1_555
H7 C5 1_555 1_555
C6 N1 1_555 1_555
C7 N2 1_555 1_555
H8 C7 1_555 1_555
N5 N4 1_555 1_555
C8 N5 1_555 1_555
H9 C8 1_555 1_555
H10 C8 1_555 1_555
C9 C8 1_555 1_555
H11 C9 1_555 1_555
H12 C9 1_555 1_555
O6 C10 1_555 1_555
C10 C3 1_555 1_555
O7 H13 1_555 1_555
H14 O7 1_555 1_555
N2B C4B 1_555 1_555
C4B H6B 1_555 1_555
N4B C4B 1_555 1_555
C7B N2B 1_555 1_555
H8B C7B 1_555 1_555
N5B N4B 1_555 1_555
C8B N5B 1_555 1_555
H9B C8B 1_555 1_555
H10B C8B 1_555 1_555
C9B C9 1_555 1_555
H11B C9B 1_555 1_555
H12B C9B 1_555 1_555
C1B H1B 1_555 1_555
Cd1B N2B 1_555 1_555
O1B Cd1B 1_555 1_555
O2B Cd1B 1_555 1_555
H2B O2B 1_555 1_555
H3B O2B 1_555 1_555
O3B C2B 1_555 1_555
O4B C2B 1_555 1_555
N1B C1B 1_555 1_555
C2B C6B 1_555 1_555
N3B Cd1B 1_555 1_555
C3B N3B 1_555 1_555
O5B Cd1B 1_555 1_555
H4B O5B 1_555 1_555
H5B O5B 1_555 1_555
C5B C1B 1_555 1_555
H7B C5B 1_555 1_555
C6B N1B 1_555 1_555
O6B C10B 1_555 1_555
C10B O1B 1_555 1_555
Cd1A O4B 1_555 1_555
Cd1C O4 1_555 1_555
O4A Cd1B 1_555 1_555
O4C Cd1 1_555 1_555
N3 C5 1_555 1_555
C3 C6 1_555 1_555
C7 N5 1_555 1_555
C7B N5B 1_555 1_555
C8B C9B 1_555 1_555
N3B C5B 1_555 1_555
C3B C6B 1_555 1_555
C3B C10B 1_555 1_555

#END
