
#######################################################################
#
#                 Cambridge Crystallographic Data Centre
#                                CCDC 
#
#######################################################################
#
# If this CIF has been generated from an entry in the Cambridge 
# Structural Database, then it will include bibliographic, chemical, 
# crystal, experimental, refinement or atomic coordinate data resulting 
# from the CCDC's data processing and validation procedures.
#
#######################################################################

data_KURPOD
_symmetry_cell_setting           triclinic
_symmetry_space_group_name_H-M   'P -1'
_symmetry_Int_Tables_number      2
_space_group_name_Hall           '-P 1'
loop_
_symmetry_equiv_pos_site_id
_symmetry_equiv_pos_as_xyz
1 x,y,z
2 -x,-y,-z
_cell_length_a                   12.031(2)
_cell_length_b                   13.550(2)
_cell_length_c                   15.653(3)
_cell_angle_alpha                102.611(2)
_cell_angle_beta                 93.213(3)
_cell_angle_gamma                93.556(3)
_cell_volume                     2479.05
loop_
_atom_site_label
_atom_site_type_symbol
_atom_site_fract_x
_atom_site_fract_y
_atom_site_fract_z
Mn1 Mn 0.00691(4) 0.18036(4) 0.04401(3)
Mn2 Mn 0.44247(4) 0.13551(4) 0.60030(3)
S1 S 0.01371(9) 0.00873(11) 0.36605(7)
O1 O -0.09407(19) 0.05450(17) 0.06451(15)
O2 O -0.0797(2) -0.10541(18) 0.07046(15)
O3 O 0.3690(2) 0.00206(17) 0.51458(15)
O4 O 0.3952(2) -0.08857(19) 0.38353(16)
N1 N -0.1243(2) 0.2224(2) -0.04545(17)
N2 N 0.0733(2) 0.3260(2) 0.00598(18)
N3 N -0.0269(2) 0.2710(2) 0.17757(17)
N4 N 0.1538(2) 0.1728(2) 0.13582(18)
N5 N 0.2905(2) 0.2255(2) 0.58200(19)
N6 N 0.4855(2) 0.2419(2) 0.51181(17)
N7 N 0.4777(2) 0.2644(2) 0.72353(17)
N8 N 0.3891(2) 0.0761(2) 0.71663(18)
C1 C -0.2205(3) 0.1664(3) -0.0711(2)
C2 C -0.2844(3) 0.1696(3) -0.1456(3)
C3 C -0.2485(4) 0.2349(3) -0.1955(3)
C4 C -0.1508(3) 0.2953(3) -0.1695(2)
C5 C -0.0893(3) 0.2875(2) -0.0941(2)
C6 C 0.0169(3) 0.3484(2) -0.0628(2)
C7 C 0.0578(4) 0.4254(3) -0.1006(3)
C8 C 0.1570(4) 0.4800(3) -0.0660(3)
C9 C 0.2121(4) 0.4584(3) 0.0051(3)
C10 C 0.1686(3) 0.3801(3) 0.0388(3)
C11 C -0.1235(3) 0.3113(3) 0.1952(2)
C12 C -0.1491(4) 0.3540(3) 0.2788(3)
C13 C -0.0740(4) 0.3528(3) 0.3471(3)
C14 C 0.0255(4) 0.3107(3) 0.3300(2)
C15 C 0.0481(3) 0.2711(2) 0.2442(2)
C16 C 0.1523(3) 0.2232(3) 0.2196(2)
C17 C 0.2448(4) 0.2287(4) 0.2772(3)
C18 C 0.3369(4) 0.1801(4) 0.2501(3)
C19 C 0.3375(3) 0.1271(3) 0.1658(3)
C20 C 0.2449(3) 0.1260(3) 0.1106(3)
C21 C -0.0823(3) -0.0139(3) 0.1054(2)
C22 C -0.0775(3) 0.0126(3) 0.2050(2)
C23 C 0.0177(3) -0.0257(3) 0.2481(2)
C24 C 0.1392(4) -0.0405(4) 0.4038(3)
C25 C 0.2439(4) 0.0136(3) 0.3925(3)
C26 C 0.3433(3) -0.0280(3) 0.4341(2)
C27 C 0.1953(3) 0.2153(3) 0.6200(3)
C28 C 0.1122(4) 0.2822(4) 0.6202(4)
C29 C 0.1298(5) 0.3605(4) 0.5792(4)
C30 C 0.2265(4) 0.3717(3) 0.5399(3)
C31 C 0.3061(3) 0.3027(3) 0.5413(2)
C32 C 0.4114(3) 0.3080(2) 0.4981(2)
C33 C 0.4348(4) 0.3754(3) 0.4449(3)
C34 C 0.5352(5) 0.3734(4) 0.4064(3)
C35 C 0.6093(4) 0.3076(4) 0.4220(3)
C36 C 0.5824(4) 0.2432(3) 0.4752(2)
C37 C 0.5167(3) 0.3587(3) 0.7230(2)
C38 C 0.5160(4) 0.4381(3) 0.7933(3)
C39 C 0.4740(5) 0.4204(3) 0.8676(3)
C40 C 0.4348(4) 0.3239(3) 0.8707(2)
C41 C 0.4382(3) 0.2461(3) 0.7976(2)
C42 C 0.4041(3) 0.1390(3) 0.7961(2)
C43 C 0.3942(3) 0.1036(3) 0.8722(2)
C44 C 0.3718(3) 0.0017(3) 0.8659(3)
C45 C 0.3576(3) -0.0629(3) 0.7856(3)
C46 C 0.3654(3) -0.0226(3) 0.7124(3)
H1 H -0.2455 0.1229 -0.0366
H2 H -0.3504 0.1286 -0.1617
H3 H -0.2897 0.2384 -0.2467
H4 H -0.1264 0.3410 -0.2022
H5 H 0.0189 0.4401 -0.1487
H6 H 0.1859 0.5313 -0.0913
H7 H 0.2777 0.4959 0.0303
H8 H 0.2072 0.3641 0.0866
H9 H -0.1757 0.3105 0.1489
H10 H -0.2165 0.3832 0.2887
H11 H -0.0899 0.3802 0.4046
H12 H 0.0774 0.3088 0.3758
H13 H 0.2443 0.2656 0.3347
H14 H 0.3989 0.1832 0.2891
H15 H 0.3989 0.0926 0.1462
H16 H 0.2454 0.0908 0.0525
H17 H -0.0738 0.0858 0.2249
H18 H -0.1462 -0.0146 0.2238
H19 H 0.0870 0.0025 0.2312
H20 H 0.0150 -0.0989 0.2289
H21 H 0.1354 -0.0397 0.4657
H22 H 0.1404 -0.1107 0.3729
H23 H 0.2417 0.0850 0.4192
H24 H 0.2528 0.0072 0.3304
H25 H 0.1841 0.1615 0.6474
H26 H 0.0466 0.2738 0.6474
H27 H 0.0755 0.4063 0.5781
H28 H 0.2389 0.4253 0.5124
H29 H 0.3835 0.4212 0.4353
H30 H 0.5518 0.4173 0.3700
H31 H 0.6777 0.3059 0.3969
H32 H 0.6341 0.1984 0.4863
H33 H 0.5456 0.3708 0.6720
H34 H 0.5437 0.5029 0.7905
H35 H 0.4717 0.4734 0.9164
H36 H 0.4062 0.3111 0.9215
H37 H 0.4027 0.1483 0.9269
H38 H 0.3664 -0.0233 0.9164
H39 H 0.3430 -0.1322 0.7803
H40 H 0.3536 -0.0662 0.6574
Mn1A Mn -0.00691(4) -0.18036(4) -0.04401(3)
Mn2A Mn 0.55753(4) -0.13551(4) 0.39970(3)
O2A O 0.0797(2) 0.10541(18) -0.07046(15)
O4A O 0.6048(2) 0.08857(19) 0.61647(16)
Cl1 Cl 0.55665(8) 0.29282(7) 0.09891(6)
O5 O 0.4477(2) 0.3230(2) 0.08365(18)
O6 O 0.5608(3) 0.1882(2) 0.0577(2)
O7 O 0.6353(3) 0.3516(2) 0.0625(2)
O8 O 0.5816(3) 0.3050(3) 0.19051(19)
Cl2 Cl 0.81938(9) 0.43090(8) 0.63234(7)
O9 O 0.7915(4) 0.3273(3) 0.6220(3)
O10 O 0.8648(3) 0.4539(3) 0.5569(2)
O11 O 0.9012(3) 0.4606(3) 0.7031(2)
O12 O 0.7260(4) 0.4848(4) 0.6470(3)
loop_
_geom_bond_atom_site_label_1
_geom_bond_atom_site_label_2
_geom_bond_site_symmetry_1
_geom_bond_site_symmetry_2
Mn1 O1 1_555 1_555
Mn2 O3 1_555 1_555
S1 C23 1_555 1_555
O1 C21 1_555 1_555
O2 C21 1_555 1_555
O3 C26 1_555 1_555
O4 C26 1_555 1_555
N1 Mn1 1_555 1_555
N2 Mn1 1_555 1_555
N3 Mn1 1_555 1_555
N4 Mn1 1_555 1_555
N5 Mn2 1_555 1_555
N6 Mn2 1_555 1_555
N7 Mn2 1_555 1_555
N8 Mn2 1_555 1_555
C1 N1 1_555 1_555
C2 C1 1_555 1_555
C3 C2 1_555 1_555
C4 C3 1_555 1_555
C5 N1 1_555 1_555
C6 N2 1_555 1_555
C7 C6 1_555 1_555
C8 C7 1_555 1_555
C9 C8 1_555 1_555
C10 N2 1_555 1_555
C11 N3 1_555 1_555
C12 C11 1_555 1_555
C13 C12 1_555 1_555
C14 C13 1_555 1_555
C15 N3 1_555 1_555
C16 N4 1_555 1_555
C17 C16 1_555 1_555
C18 C17 1_555 1_555
C19 C18 1_555 1_555
C20 N4 1_555 1_555
C21 C22 1_555 1_555
C22 C23 1_555 1_555
C23 H19 1_555 1_555
C24 S1 1_555 1_555
C25 C24 1_555 1_555
C26 C25 1_555 1_555
C27 N5 1_555 1_555
C28 C27 1_555 1_555
C29 C28 1_555 1_555
C30 C29 1_555 1_555
C31 N5 1_555 1_555
C32 N6 1_555 1_555
C33 C32 1_555 1_555
C34 C33 1_555 1_555
C35 C34 1_555 1_555
C36 N6 1_555 1_555
C37 N7 1_555 1_555
C38 C37 1_555 1_555
C39 C38 1_555 1_555
C40 C39 1_555 1_555
C41 N7 1_555 1_555
C42 N8 1_555 1_555
C43 C42 1_555 1_555
C44 C43 1_555 1_555
C45 C44 1_555 1_555
C46 N8 1_555 1_555
H1 C1 1_555 1_555
H2 C2 1_555 1_555
H3 C3 1_555 1_555
H4 C4 1_555 1_555
H5 C7 1_555 1_555
H6 C8 1_555 1_555
H7 C9 1_555 1_555
H8 C10 1_555 1_555
H9 C11 1_555 1_555
H10 C12 1_555 1_555
H11 C13 1_555 1_555
H12 C14 1_555 1_555
H13 C17 1_555 1_555
H14 C18 1_555 1_555
H15 C19 1_555 1_555
H16 C20 1_555 1_555
H17 C22 1_555 1_555
H18 C22 1_555 1_555
H20 C23 1_555 1_555
H21 C24 1_555 1_555
H22 C24 1_555 1_555
H23 C25 1_555 1_555
H24 C25 1_555 1_555
H25 C27 1_555 1_555
H26 C28 1_555 1_555
H27 C29 1_555 1_555
H28 C30 1_555 1_555
H29 C33 1_555 1_555
H30 C34 1_555 1_555
H31 C35 1_555 1_555
H32 C36 1_555 1_555
H33 C37 1_555 1_555
H34 C38 1_555 1_555
H35 C39 1_555 1_555
H36 C40 1_555 1_555
H37 C43 1_555 1_555
H38 C44 1_555 1_555
H39 C45 1_555 1_555
H40 C46 1_555 1_555
Cl1 O5 1_555 1_555
O6 Cl1 1_555 1_555
O7 Cl1 1_555 1_555
O8 Cl1 1_555 1_555
Cl2 O9 1_555 1_555
O10 Cl2 1_555 1_555
O11 Cl2 1_555 1_555
O12 Cl2 1_555 1_555
Mn1A O2 1_555 1_555
Mn2A O4 1_555 1_555
O2A Mn1 1_555 1_555
O4A Mn2 1_555 1_555
C4 C5 1_555 1_555
C5 C6 1_555 1_555
C9 C10 1_555 1_555
C14 C15 1_555 1_555
C15 C16 1_555 1_555
C19 C20 1_555 1_555
C30 C31 1_555 1_555
C31 C32 1_555 1_555
C35 C36 1_555 1_555
C40 C41 1_555 1_555
C41 C42 1_555 1_555
C45 C46 1_555 1_555

#END
