
#######################################################################
#
#                 Cambridge Crystallographic Data Centre
#                                CCDC 
#
#######################################################################
#
# If this CIF has been generated from an entry in the Cambridge 
# Structural Database, then it will include bibliographic, chemical, 
# crystal, experimental, refinement or atomic coordinate data resulting 
# from the CCDC's data processing and validation procedures.
#
#######################################################################

data_KURRUL
_symmetry_cell_setting           cubic
_symmetry_space_group_name_H-M   'P -4 3 n'
_symmetry_Int_Tables_number      218
_space_group_name_Hall           'P -4n 2 3'
loop_
_symmetry_equiv_pos_site_id
_symmetry_equiv_pos_as_xyz
1 x,y,z
2 -x,-y,z
3 x,-y,-z
4 -x,y,-z
5 z,x,y
6 y,z,x
7 -z,-x,y
8 -y,z,-x
9 z,-x,-y
10 -y,-z,x
11 -z,x,-y
12 y,-z,-x
13 1/2+y,1/2+x,1/2+z
14 1/2-y,1/2-x,1/2+z
15 1/2-y,1/2+x,1/2-z
16 1/2+y,1/2-x,1/2-z
17 1/2+x,1/2+z,1/2+y
18 1/2+z,1/2+y,1/2+x
19 1/2-x,1/2-z,1/2+y
20 1/2+z,1/2-y,1/2-x
21 1/2-x,1/2+z,1/2-y
22 1/2-z,1/2-y,1/2+x
23 1/2+x,1/2-z,1/2-y
24 1/2-z,1/2+y,1/2-x
_cell_length_a                   22.943(5)
_cell_length_b                   22.943(5)
_cell_length_c                   22.943(5)
_cell_angle_alpha                90
_cell_angle_beta                 90
_cell_angle_gamma                90
_cell_volume                     12076.8
loop_
_atom_site_label
_atom_site_type_symbol
_atom_site_fract_x
_atom_site_fract_y
_atom_site_fract_z
Nd1 Nd 0.2500 0.0000 0.5000
Na1 Na 0.5000 0.0000 0.5000
P1 P 0.34264(7) -0.11150(8) 0.56551(8)
S1 S 0.38783(6) -0.07841(7) 0.45680(7)
C1 C 0.3831(3) -0.1414(3) 0.4113(3)
N1 N 0.3939(2) -0.1001(3) 0.5188(2)
N2 N 0.3754(2) -0.1023(3) 0.6282(3)
N3 N 0.3220(3) -0.1790(3) 0.5648(4)
O1 O 0.33520(14) -0.04482(17) 0.44606(16)
O2 O 0.44068(16) -0.0500(2) 0.4378(2)
O3 O 0.28838(15) -0.07562(17) 0.55946(17)
O4 O 0.4251(3) -0.0792(4) 0.7367(2)
O5 O 0.2927(4) -0.2972(3) 0.5510(4)
C2 C 0.4310(3) -0.1778(3) 0.4091(3)
H1 H 0.4651 -0.1699 0.4296
C3 C 0.4246(4) -0.2277(3) 0.3737(4)
H2 H 0.4562 -0.2528 0.3701
C4 C 0.3754(5) -0.2411(4) 0.3447(4)
H3 H 0.3734 -0.2741 0.3212
C5 C 0.3306(5) -0.2067(4) 0.3505(4)
H4 H 0.2960 -0.2167 0.3321
C6 C 0.3325(4) -0.1552(3) 0.3833(3)
H5 H 0.3000 -0.1311 0.3859
C7 C 0.4355(3) -0.0977(4) 0.6373(3)
H6 H 0.4509 -0.1370 0.6396
H7 H 0.4521 -0.0800 0.6026
C8 C 0.4565(5) -0.0675(5) 0.6845(4)
H8 H 0.4546 -0.0260 0.6763
H9 H 0.4972 -0.0776 0.6903
C9 C 0.3442(3) -0.1124(4) 0.6830(3)
H10 H 0.3032 -0.1036 0.6778
H11 H 0.3477 -0.1531 0.6939
C10 C 0.3674(4) -0.0770(6) 0.7282(4)
H12 H 0.3569 -0.0368 0.7201
H13 H 0.3484 -0.0878 0.7644
C11 C 0.2463(4) -0.2556(2) 0.5500(5)
H14 H 0.2280 -0.2535 0.5880
H15 H 0.2171 -0.2673 0.5218
C12 C 0.2713(3) -0.1964(2) 0.5334(5)
H16 H 0.2807 -0.1969 0.4922
H17 H 0.2414 -0.1671 0.5393
C13 C 0.3666(4) -0.2253(3) 0.5699(5)
H18 H 0.3873 -0.2288 0.5332
H19 H 0.3946 -0.2145 0.5997
C14 C 0.3422(5) -0.2777(4) 0.5838(6)
H20 H 0.3308 -0.2761 0.6245
H21 H 0.3723 -0.3072 0.5805
Na1P Na 0.0000 0.0000 0.5000
P1B P 0.34264(7) 0.11150(8) 0.43449(8)
P1R P 0.15736(7) -0.06551(8) 0.38850(8)
P1T P 0.15736(7) 0.06551(8) 0.61150(8)
S1B S 0.38783(6) 0.07841(7) 0.54320(7)
S1R S 0.11217(6) 0.04320(7) 0.42159(7)
S1T S 0.11217(6) -0.04320(7) 0.57841(7)
C1B C 0.3831(3) 0.1414(3) 0.5887(3)
C1R C 0.1169(3) 0.0887(3) 0.3586(3)
C1T C 0.1169(3) -0.0887(3) 0.6414(3)
N1B N 0.3939(2) 0.1001(3) 0.4812(2)
N1R N 0.1061(2) -0.0188(2) 0.3999(3)
N1T N 0.1061(2) 0.0188(2) 0.6001(3)
N2B N 0.3754(2) 0.1023(3) 0.3718(3)
N2R N 0.1246(2) -0.1282(3) 0.3977(3)
N2T N 0.1246(2) 0.1282(3) 0.6023(3)
N3B N 0.3220(3) 0.1790(3) 0.4352(4)
N3R N 0.1780(3) -0.0648(4) 0.3210(3)
N3T N 0.1780(3) 0.0648(4) 0.6790(3)
O1B O 0.33520(14) 0.04482(17) 0.55394(16)
O1R O 0.16480(14) 0.05394(16) 0.45518(17)
O1T O 0.16480(14) -0.05394(16) 0.54482(17)
O2B O 0.44068(16) 0.0500(2) 0.5622(2)
O2R O 0.05932(16) 0.0622(2) 0.4500(2)
O2T O 0.05932(16) -0.0622(2) 0.5500(2)
O2A O 0.55932(16) 0.0500(2) 0.4378(2)
O2C O 0.55932(16) -0.0500(2) 0.5622(2)
O3B O 0.28838(15) 0.07562(17) 0.44054(17)
O3R O 0.21162(15) -0.05946(17) 0.42438(17)
O3T O 0.21162(15) 0.05946(17) 0.57562(17)
O4B O 0.4251(3) 0.0792(4) 0.2633(2)
O4R O 0.0749(3) -0.2367(2) 0.4208(4)
O4T O 0.0749(3) 0.2367(2) 0.5792(4)
O5B O 0.2927(4) 0.2972(3) 0.4490(4)
O5R O 0.2073(4) -0.0510(4) 0.2028(3)
O5T O 0.2073(4) 0.0510(4) 0.7972(3)
C2B C 0.4310(3) 0.1778(3) 0.5909(3)
C2R C 0.0690(3) 0.0909(3) 0.3222(3)
C2T C 0.0690(3) -0.0909(3) 0.6778(3)
H1B H 0.4651 0.1699 0.5704
H1R H 0.0349 0.0704 0.3301
H1T H 0.0349 -0.0704 0.6699
C3B C 0.4246(4) 0.2277(3) 0.6263(4)
C3R C 0.0754(4) 0.1263(4) 0.2723(3)
C3T C 0.0754(4) -0.1263(4) 0.7277(3)
H2B H 0.4562 0.2528 0.6299
H2R H 0.0438 0.1299 0.2472
H2T H 0.0438 -0.1299 0.7528
C4B C 0.3754(5) 0.2411(4) 0.6553(4)
C4R C 0.1246(5) 0.1553(4) 0.2589(4)
C4T C 0.1246(5) -0.1553(4) 0.7411(4)
H3B H 0.3734 0.2741 0.6788
H3R H 0.1266 0.1788 0.2259
H3T H 0.1266 -0.1788 0.7741
C5B C 0.3306(5) 0.2067(4) 0.6495(4)
C5R C 0.1694(5) 0.1495(4) 0.2933(4)
C5T C 0.1694(5) -0.1495(4) 0.7067(4)
H4B H 0.2960 0.2167 0.6679
H4R H 0.2040 0.1679 0.2833
H4T H 0.2040 -0.1679 0.7167
C6B C 0.3325(4) 0.1552(3) 0.6167(3)
C6R C 0.1675(4) 0.1167(3) 0.3448(3)
C6T C 0.1675(4) -0.1167(3) 0.6552(3)
H5B H 0.3000 0.1311 0.6141
H5R H 0.2000 0.1141 0.3689
H5T H 0.2000 -0.1141 0.6311
C7B C 0.4355(3) 0.0977(4) 0.3627(3)
C7R C 0.0645(3) -0.1373(3) 0.4023(4)
C7T C 0.0645(3) 0.1373(3) 0.5977(4)
H6B H 0.4509 0.1370 0.3604
H6R H 0.0491 -0.1396 0.3630
H6T H 0.0491 0.1396 0.6370
H7B H 0.4521 0.0800 0.3974
H7R H 0.0479 -0.1026 0.4200
H7T H 0.0479 0.1026 0.5800
C8B C 0.4565(5) 0.0675(5) 0.3155(4)
C8R C 0.0435(5) -0.1845(4) 0.4325(5)
C8T C 0.0435(5) 0.1845(4) 0.5675(5)
H8B H 0.4546 0.0260 0.3237
H8R H 0.0454 -0.1763 0.4740
H8T H 0.0454 0.1763 0.5260
H9B H 0.4972 0.0776 0.3097
H9R H 0.0028 -0.1903 0.4224
H9T H 0.0028 0.1903 0.5776
C9B C 0.3442(3) 0.1124(4) 0.3170(3)
C9R C 0.1558(3) -0.1830(3) 0.3876(4)
C9T C 0.1558(3) 0.1830(3) 0.6124(4)
H10B H 0.3032 0.1036 0.3222
H10R H 0.1968 -0.1778 0.3964
H10T H 0.1968 0.1778 0.6036
H11B H 0.3477 0.1531 0.3061
H11R H 0.1523 -0.1939 0.3469
H11T H 0.1523 0.1939 0.6531
C10B C 0.3674(4) 0.0770(6) 0.2718(4)
C10R C 0.1326(4) -0.2282(4) 0.4230(6)
C10T C 0.1326(4) 0.2282(4) 0.5770(6)
H12B H 0.3569 0.0368 0.2799
H12R H 0.1431 -0.2201 0.4632
H12T H 0.1431 0.2201 0.5368
H13B H 0.3484 0.0878 0.2356
H13R H 0.1516 -0.2644 0.4122
H13T H 0.1516 0.2644 0.5878
C11B C 0.2463(4) 0.2556(2) 0.4500(5)
C11R C 0.2537(4) -0.0500(5) 0.2444(2)
C11T C 0.2537(4) 0.0500(5) 0.7556(2)
H14B H 0.2280 0.2535 0.4120
H14R H 0.2720 -0.0880 0.2465
H14T H 0.2720 0.0880 0.7535
H15B H 0.2171 0.2673 0.4782
H15R H 0.2829 -0.0218 0.2327
H15T H 0.2829 0.0218 0.7673
C12B C 0.2713(3) 0.1964(2) 0.4666(5)
C12R C 0.2287(3) -0.0334(5) 0.3036(2)
C12T C 0.2287(3) 0.0334(5) 0.6964(2)
H16B H 0.2807 0.1969 0.5078
H16R H 0.2193 0.0078 0.3031
H16T H 0.2193 -0.0078 0.6969
H17B H 0.2414 0.1671 0.4607
H17R H 0.2586 -0.0393 0.3329
H17T H 0.2586 0.0393 0.6671
C13B C 0.3666(4) 0.2253(3) 0.4301(5)
C13R C 0.1334(4) -0.0699(5) 0.2747(3)
C13T C 0.1334(4) 0.0699(5) 0.7253(3)
H18B H 0.3873 0.2288 0.4668
H18R H 0.1127 -0.0332 0.2712
H18T H 0.1127 0.0332 0.7288
H19B H 0.3946 0.2145 0.4003
H19R H 0.1054 -0.0997 0.2855
H19T H 0.1054 0.0997 0.7145
C14B C 0.3422(5) 0.2777(4) 0.4162(6)
C14R C 0.1578(5) -0.0838(6) 0.2223(4)
C14T C 0.1578(5) 0.0838(6) 0.7777(4)
H20B H 0.3308 0.2761 0.3755
H20R H 0.1692 -0.1245 0.2239
H20T H 0.1692 0.1245 0.7761
H21B H 0.3723 0.3072 0.4195
H21R H 0.1277 -0.0805 0.1928
H21T H 0.1277 0.0805 0.8072
loop_
_geom_bond_atom_site_label_1
_geom_bond_atom_site_label_2
_geom_bond_site_symmetry_1
_geom_bond_site_symmetry_2
Nd1 O1 1_555 1_555
Na1 O2 1_555 1_555
P1 N1 1_555 1_555
S1 C1 1_555 1_555
C1 C2 1_555 1_555
N1 S1 1_555 1_555
N2 P1 1_555 1_555
N3 P1 1_555 1_555
O1 S1 1_555 1_555
O2 S1 1_555 1_555
O3 Nd1 1_555 1_555
O4 C8 1_555 1_555
O5 C11 1_555 1_555
C2 H1 1_555 1_555
C3 C2 1_555 1_555
H2 C3 1_555 1_555
C4 C3 1_555 1_555
H3 C4 1_555 1_555
C5 C4 1_555 1_555
H4 C5 1_555 1_555
C6 C1 1_555 1_555
H5 C6 1_555 1_555
C7 N2 1_555 1_555
H6 C7 1_555 1_555
H7 C7 1_555 1_555
C8 C7 1_555 1_555
H8 C8 1_555 1_555
H9 C8 1_555 1_555
C9 N2 1_555 1_555
H10 C9 1_555 1_555
H11 C9 1_555 1_555
C10 O4 1_555 1_555
H12 C10 1_555 1_555
H13 C10 1_555 1_555
C11 H14 1_555 1_555
H15 C11 1_555 1_555
C12 N3 1_555 1_555
H16 C12 1_555 1_555
H17 C12 1_555 1_555
C13 N3 1_555 1_555
H18 C13 1_555 1_555
H19 C13 1_555 1_555
C14 O5 1_555 1_555
H20 C14 1_555 1_555
H21 C14 1_555 1_555
Na1P O2R 1_555 1_555
P1B N1B 1_555 1_555
P1R N1R 1_555 1_555
P1T N1T 1_555 1_555
S1B C1B 1_555 1_555
S1R C1R 1_555 1_555
S1T C1T 1_555 1_555
C1B C2B 1_555 1_555
C1R C2R 1_555 1_555
C1T C2T 1_555 1_555
N1B S1B 1_555 1_555
N1R S1R 1_555 1_555
N1T S1T 1_555 1_555
N2B P1B 1_555 1_555
N2R P1R 1_555 1_555
N2T P1T 1_555 1_555
N3B P1B 1_555 1_555
N3R P1R 1_555 1_555
N3T P1T 1_555 1_555
O1B Nd1 1_555 1_555
O1R Nd1 1_555 1_555
O1T Nd1 1_555 1_555
O2B Na1 1_555 1_555
O2R S1R 1_555 1_555
O2T Na1P 1_555 1_555
O2A Na1 1_555 1_555
O2C Na1 1_555 1_555
O3B Nd1 1_555 1_555
O3R Nd1 1_555 1_555
O3T Nd1 1_555 1_555
O4B C8B 1_555 1_555
O4R C8R 1_555 1_555
O4T C8T 1_555 1_555
O5B C11B 1_555 1_555
O5R C11R 1_555 1_555
O5T C11T 1_555 1_555
C2B H1B 1_555 1_555
C2R H1R 1_555 1_555
C2T H1T 1_555 1_555
C3B C2B 1_555 1_555
C3R C2R 1_555 1_555
C3T C2T 1_555 1_555
H2B C3B 1_555 1_555
H2R C3R 1_555 1_555
H2T C3T 1_555 1_555
C4B C3B 1_555 1_555
C4R C3R 1_555 1_555
C4T C3T 1_555 1_555
H3B C4B 1_555 1_555
H3R C4R 1_555 1_555
H3T C4T 1_555 1_555
C5B C4B 1_555 1_555
C5R C4R 1_555 1_555
C5T C4T 1_555 1_555
H4B C5B 1_555 1_555
H4R C5R 1_555 1_555
H4T C5T 1_555 1_555
C6B C1B 1_555 1_555
C6R C1R 1_555 1_555
C6T C1T 1_555 1_555
H5B C6B 1_555 1_555
H5R C6R 1_555 1_555
H5T C6T 1_555 1_555
C7B N2B 1_555 1_555
C7R N2R 1_555 1_555
C7T N2T 1_555 1_555
H6B C7B 1_555 1_555
H6R C7R 1_555 1_555
H6T C7T 1_555 1_555
H7B C7B 1_555 1_555
H7R C7R 1_555 1_555
H7T C7T 1_555 1_555
C8B C7B 1_555 1_555
C8R C7R 1_555 1_555
C8T C7T 1_555 1_555
H8B C8B 1_555 1_555
H8R C8R 1_555 1_555
H8T C8T 1_555 1_555
H9B C8B 1_555 1_555
H9R C8R 1_555 1_555
H9T C8T 1_555 1_555
C9B N2B 1_555 1_555
C9R N2R 1_555 1_555
C9T N2T 1_555 1_555
H10B C9B 1_555 1_555
H10R C9R 1_555 1_555
H10T C9T 1_555 1_555
H11B C9B 1_555 1_555
H11R C9R 1_555 1_555
H11T C9T 1_555 1_555
C10B O4B 1_555 1_555
C10R O4R 1_555 1_555
C10T O4T 1_555 1_555
H12B C10B 1_555 1_555
H12R C10R 1_555 1_555
H12T C10T 1_555 1_555
H13B C10B 1_555 1_555
H13R C10R 1_555 1_555
H13T C10T 1_555 1_555
C11B H14B 1_555 1_555
C11R H14R 1_555 1_555
C11T H14T 1_555 1_555
H15B C11B 1_555 1_555
H15R C11R 1_555 1_555
H15T C11T 1_555 1_555
C12B N3B 1_555 1_555
C12R N3R 1_555 1_555
C12T N3T 1_555 1_555
H16B C12B 1_555 1_555
H16R C12R 1_555 1_555
H16T C12T 1_555 1_555
H17B C12B 1_555 1_555
H17R C12R 1_555 1_555
H17T C12T 1_555 1_555
C13B N3B 1_555 1_555
C13R N3R 1_555 1_555
C13T N3T 1_555 1_555
H18B C13B 1_555 1_555
H18R C13R 1_555 1_555
H18T C13T 1_555 1_555
H19B C13B 1_555 1_555
H19R C13R 1_555 1_555
H19T C13T 1_555 1_555
C14B O5B 1_555 1_555
C14R O5R 1_555 1_555
C14T O5T 1_555 1_555
H20B C14B 1_555 1_555
H20R C14R 1_555 1_555
H20T C14T 1_555 1_555
H21B C14B 1_555 1_555
H21R C14R 1_555 1_555
H21T C14T 1_555 1_555
P1 O3 1_555 1_555
C5 C6 1_555 1_555
C9 C10 1_555 1_555
C11 C12 1_555 1_555
C13 C14 1_555 1_555
P1B O3B 1_555 1_555
P1R O3R 1_555 1_555
P1T O3T 1_555 1_555
S1B O1B 1_555 1_555
S1B O2B 1_555 1_555
S1R O1R 1_555 1_555
S1T O1T 1_555 1_555
S1T O2T 1_555 1_555
C5B C6B 1_555 1_555
C5R C6R 1_555 1_555
C5T C6T 1_555 1_555
C9B C10B 1_555 1_555
C9R C10R 1_555 1_555
C9T C10T 1_555 1_555
C11B C12B 1_555 1_555
C11R C12R 1_555 1_555
C11T C12T 1_555 1_555
C13B C14B 1_555 1_555
C13R C14R 1_555 1_555
C13T C14T 1_555 1_555

#END
