
#######################################################################
#
#                 Cambridge Crystallographic Data Centre
#                                CCDC 
#
#######################################################################
#
# If this CIF has been generated from an entry in the Cambridge 
# Structural Database, then it will include bibliographic, chemical, 
# crystal, experimental, refinement or atomic coordinate data resulting 
# from the CCDC's data processing and validation procedures.
#
#######################################################################

data_KURSOG
_symmetry_cell_setting           monoclinic
_symmetry_space_group_name_H-M   'C 2/c'
_symmetry_Int_Tables_number      15
_space_group_name_Hall           '-C 2yn'
loop_
_symmetry_equiv_pos_site_id
_symmetry_equiv_pos_as_xyz
1 x,y,z
2 -x,y,1/2-z
3 1/2+x,1/2+y,z
4 1/2-x,1/2+y,1/2-z
5 -x,-y,-z
6 x,-y,1/2+z
7 1/2-x,1/2-y,-z
8 1/2+x,1/2-y,1/2+z
_cell_length_a                   32.0103(8)
_cell_length_b                   10.2389(3)
_cell_length_c                   19.5533(5)
_cell_angle_alpha                90
_cell_angle_beta                 93.8269(8)
_cell_angle_gamma                90
_cell_volume                     6394.31
loop_
_atom_site_label
_atom_site_type_symbol
_atom_site_fract_x
_atom_site_fract_y
_atom_site_fract_z
W1 W 0.145909(4) 0.677683(13) 0.197487(7)
Cu1 Cu 0.0000 0.49203(8) 0.2500
Cu2 Cu 0.188606(15) 1.17685(4) 0.21356(2)
O1 O 0.0000 0.7293(9) 0.2500
N1 N 0.05975(11) 0.5193(3) 0.23372(18)
N2 N 0.17619(12) 0.9853(3) 0.21299(18)
N3 N 0.17679(12) 0.3708(3) 0.21001(18)
N4 N 0.24430(12) 0.6811(3) 0.26064(19)
N5 N 0.10782(14) 0.5221(4) 0.0592(2)
N6 N 0.06447(17) 0.8632(4) 0.1550(3)
N7 N 0.13445(14) 0.7107(5) 0.36327(19)
N8 N 0.19927(14) 0.7590(4) 0.06671(18)
N9 N 0.01423(12) 0.4524(4) 0.34652(19)
N10 N 0.04890(15) 0.4583(5) 0.4471(2)
N11 N 0.17406(12) 1.1776(3) 0.31062(18)
N12 N 0.17738(19) 1.1969(4) 0.4229(2)
N13 N 0.18846(12) 1.1756(3) 0.11163(18)
N14 N 0.16506(13) 1.2126(4) 0.00448(19)
C1 C 0.09067(13) 0.5704(4) 0.22258(19)
C2 C 0.16532(12) 0.8801(3) 0.21138(19)
C3 C 0.16736(12) 0.4779(3) 0.20814(18)
C4 C 0.21022(13) 0.6805(3) 0.2396(2)
C5 C 0.12014(14) 0.5790(4) 0.1062(2)
C6 C 0.09391(15) 0.8020(4) 0.1676(2)
C7 C 0.13846(14) 0.7019(4) 0.3060(2)
C8 C 0.18115(14) 0.7292(4) 0.11189(19)
C9 C 0.04547(15) 0.5048(5) 0.3837(2)
C10 C -0.00421(16) 0.3619(5) 0.3883(2)
C11 C -0.03601(18) 0.2733(6) 0.3741(3)
C12 C -0.0462(2) 0.1936(7) 0.4281(5)
C13 C -0.0237(3) 0.2026(9) 0.4940(5)
C14 C 0.0073(3) 0.2874(8) 0.5065(3)
C15 C 0.01723(19) 0.3657(6) 0.4523(2)
C16 C 0.19871(18) 1.2102(5) 0.3653(2)
C17 C 0.13574(16) 1.1428(4) 0.3341(2)
C18 C 0.09927(18) 1.1010(6) 0.2988(3)
C19 C 0.0650(2) 1.0730(8) 0.3375(6)
C20 C 0.0680(3) 1.0858(9) 0.4067(6)
C21 C 0.1033(3) 1.1243(8) 0.4433(4)
C22 C 0.1385(2) 1.1537(5) 0.4053(3)
C23 C 0.15930(14) 1.2307(4) 0.0704(2)
C24 C 0.21615(14) 1.1184(4) 0.0683(2)
C25 C 0.25409(15) 1.0524(4) 0.0820(2)
C26 C 0.27512(18) 1.0159(5) 0.0266(3)
C27 C 0.2601(2) 1.0414(5) -0.0407(2)
C28 C 0.2242(2) 1.1052(5) -0.0553(2)
C29 C 0.20135(17) 1.1435(4) 0.0004(2)
H1 H 0.025(3) 0.784(12) 0.233(6)
H2 H 0.0633 0.5677 0.3674
H3 H 0.0672 0.4809 0.4791
H4 H -0.0499 0.2671 0.3309
H5 H -0.0679 0.1336 0.4215
H6 H 0.1873 1.2136 0.4639
H7 H -0.0311 0.1475 0.5291
H8 H 0.0215 0.2937 0.5494
H9 H 0.1489 1.2395 -0.0295
H10 H 0.2264 1.2378 0.3643
H11 H 0.0975 1.0918 0.2514
H12 H 0.0399 1.0454 0.3155
H13 H 0.0445 1.0671 0.4304
H14 H 0.1045 1.1312 0.4908
H15 H 0.1369 1.2775 0.0860
H16 H 0.2644 1.0343 0.1265
H17 H 0.3005 0.9722 0.0341
H18 H 0.2756 1.0132 -0.0765
H19 H 0.2147 1.1234 -0.1002
W1A W -0.145909(4) 0.677683(13) 0.302513(7)
Cu2A Cu -0.188606(15) 1.17685(4) 0.28644(2)
Cu2_2 Cu 0.188606(15) 0.17685(4) 0.21356(2)
Cu2A_2 Cu -0.188606(15) 0.17685(4) 0.28644(2)
Cu2B Cu -0.311394(15) 0.67685(4) 0.21356(2)
Cu2C Cu 0.311394(15) 0.67685(4) 0.28644(2)
N1A N -0.05975(11) 0.5193(3) 0.26628(18)
N2A N -0.17619(12) 0.9853(3) 0.28701(18)
N3A N -0.17679(12) 0.3708(3) 0.28999(18)
N3_2 N 0.17679(12) 1.3708(3) 0.21001(18)
N3A_2 N -0.17679(12) 1.3708(3) 0.28999(18)
N4A N -0.24430(12) 0.6811(3) 0.23936(19)
N4B N -0.25570(12) 1.1811(3) 0.26064(19)
N4C N 0.25570(12) 1.1811(3) 0.23936(19)
N5A N -0.10782(14) 0.5221(4) 0.4408(2)
N6A N -0.06447(17) 0.8632(4) 0.3450(3)
N7A N -0.13445(14) 0.7107(5) 0.13673(19)
N8A N -0.19927(14) 0.7590(4) 0.43329(18)
N9A N -0.01423(12) 0.4524(4) 0.15348(19)
N10A N -0.04890(15) 0.4583(5) 0.0529(2)
N11A N -0.17406(12) 1.1776(3) 0.18938(18)
N12A N -0.17738(19) 1.1969(4) 0.0771(2)
N13A N -0.18846(12) 1.1756(3) 0.38837(18)
N14A N -0.16506(13) 1.2126(4) 0.49552(19)
C1A C -0.09067(13) 0.5704(4) 0.27742(19)
C2A C -0.16532(12) 0.8801(3) 0.28862(19)
C3A C -0.16736(12) 0.4779(3) 0.29186(18)
C4A C -0.21022(13) 0.6805(3) 0.2604(2)
C5A C -0.12014(14) 0.5790(4) 0.3938(2)
C6A C -0.09391(15) 0.8020(4) 0.3324(2)
C7A C -0.13846(14) 0.7019(4) 0.1940(2)
C8A C -0.18115(14) 0.7292(4) 0.38811(19)
C9A C -0.04547(15) 0.5048(5) 0.1163(2)
C10A C 0.00421(16) 0.3619(5) 0.1117(2)
C11A C 0.03601(18) 0.2733(6) 0.1259(3)
C12A C 0.0462(2) 0.1936(7) 0.0719(5)
C13A C 0.0237(3) 0.2026(9) 0.0060(5)
C14A C -0.0073(3) 0.2874(8) -0.0065(3)
C15A C -0.01723(19) 0.3657(6) 0.0477(2)
C16A C -0.19871(18) 1.2102(5) 0.1347(2)
C17A C -0.13574(16) 1.1428(4) 0.1659(2)
C18A C -0.09927(18) 1.1010(6) 0.2012(3)
C19A C -0.0650(2) 1.0730(8) 0.1625(6)
C20A C -0.0680(3) 1.0858(9) 0.0933(6)
C21A C -0.1033(3) 1.1243(8) 0.0567(4)
C22A C -0.1385(2) 1.1537(5) 0.0947(3)
C23A C -0.15930(14) 1.2307(4) 0.4296(2)
C24A C -0.21615(14) 1.1184(4) 0.4317(2)
C25A C -0.25409(15) 1.0524(4) 0.4180(2)
C26A C -0.27512(18) 1.0159(5) 0.4734(3)
C27A C -0.2601(2) 1.0414(5) 0.5407(2)
C28A C -0.2242(2) 1.1052(5) 0.5553(2)
C29A C -0.20135(17) 1.1435(4) 0.4996(2)
H1A H -0.025(3) 0.784(12) 0.267(6)
H2A H -0.0633 0.5677 0.1326
H3A H -0.0672 0.4809 0.0209
H4A H 0.0499 0.2671 0.1691
H5A H 0.0679 0.1336 0.0785
H6A H -0.1873 1.2136 0.0361
H7A H 0.0311 0.1475 -0.0291
H8A H -0.0215 0.2937 -0.0494
H9A H -0.1489 1.2395 0.5295
H10A H -0.2264 1.2378 0.1357
H11A H -0.0975 1.0918 0.2486
H12A H -0.0399 1.0454 0.1845
H13A H -0.0445 1.0671 0.0696
H14A H -0.1045 1.1312 0.0092
H15A H -0.1369 1.2775 0.4140
H16A H -0.2644 1.0343 0.3735
H17A H -0.3005 0.9722 0.4659
H18A H -0.2756 1.0132 0.5765
H19A H -0.2147 1.1234 0.6002
loop_
_geom_bond_atom_site_label_1
_geom_bond_atom_site_label_2
_geom_bond_site_symmetry_1
_geom_bond_site_symmetry_2
W1 C1 1_555 1_555
Cu1 O1 1_555 1_555
Cu2 N2 1_555 1_555
O1 H1 1_555 1_555
N1 Cu1 1_555 1_555
N2 C2 1_555 1_555
N3 C3 1_555 1_555
N4 C4 1_555 1_555
N5 C5 1_555 1_555
N6 C6 1_555 1_555
N7 C7 1_555 1_555
N8 C8 1_555 1_555
N9 Cu1 1_555 1_555
N10 C9 1_555 1_555
N11 Cu2 1_555 1_555
N12 C16 1_555 1_555
N13 Cu2 1_555 1_555
N14 C23 1_555 1_555
C1 N1 1_555 1_555
C2 W1 1_555 1_555
C3 W1 1_555 1_555
C4 W1 1_555 1_555
C5 W1 1_555 1_555
C6 W1 1_555 1_555
C7 W1 1_555 1_555
C8 W1 1_555 1_555
C9 N9 1_555 1_555
C10 N9 1_555 1_555
C11 C10 1_555 1_555
C12 C11 1_555 1_555
C13 C12 1_555 1_555
C14 C13 1_555 1_555
C15 N10 1_555 1_555
C16 N11 1_555 1_555
C17 N11 1_555 1_555
C18 C17 1_555 1_555
C19 C18 1_555 1_555
C20 C19 1_555 1_555
C21 C20 1_555 1_555
C22 N12 1_555 1_555
C23 N13 1_555 1_555
C24 N13 1_555 1_555
C25 C24 1_555 1_555
C26 C25 1_555 1_555
C27 C26 1_555 1_555
C28 C27 1_555 1_555
C29 N14 1_555 1_555
H2 C9 1_555 1_555
H3 N10 1_555 1_555
H4 C11 1_555 1_555
H5 C12 1_555 1_555
H6 N12 1_555 1_555
H7 C13 1_555 1_555
H8 C14 1_555 1_555
H9 N14 1_555 1_555
H10 C16 1_555 1_555
H11 C18 1_555 1_555
H12 C19 1_555 1_555
H13 C20 1_555 1_555
H14 C21 1_555 1_555
H15 C23 1_555 1_555
H16 C25 1_555 1_555
H17 C26 1_555 1_555
H18 C27 1_555 1_555
H19 C28 1_555 1_555
W1A C1A 1_555 1_555
Cu2A N2A 1_555 1_555
Cu2_2 N3 1_555 1_555
Cu2A_2 N3A 1_555 1_555
Cu2B N4A 1_555 1_555
Cu2C N4 1_555 1_555
N1A Cu1 1_555 1_555
N2A C2A 1_555 1_555
N3A C3A 1_555 1_555
N3_2 Cu2 1_555 1_555
N3A_2 Cu2A 1_555 1_555
N4A C4A 1_555 1_555
N4B Cu2A 1_555 1_555
N4C Cu2 1_555 1_555
N5A C5A 1_555 1_555
N6A C6A 1_555 1_555
N7A C7A 1_555 1_555
N8A C8A 1_555 1_555
N9A Cu1 1_555 1_555
N10A C9A 1_555 1_555
N11A Cu2A 1_555 1_555
N12A C16A 1_555 1_555
N13A Cu2A 1_555 1_555
N14A C23A 1_555 1_555
C1A N1A 1_555 1_555
C2A W1A 1_555 1_555
C3A W1A 1_555 1_555
C4A W1A 1_555 1_555
C5A W1A 1_555 1_555
C6A W1A 1_555 1_555
C7A W1A 1_555 1_555
C8A W1A 1_555 1_555
C9A N9A 1_555 1_555
C10A N9A 1_555 1_555
C11A C10A 1_555 1_555
C12A C11A 1_555 1_555
C13A C12A 1_555 1_555
C14A C13A 1_555 1_555
C15A N10A 1_555 1_555
C16A N11A 1_555 1_555
C17A N11A 1_555 1_555
C18A C17A 1_555 1_555
C19A C18A 1_555 1_555
C20A C19A 1_555 1_555
C21A C20A 1_555 1_555
C22A N12A 1_555 1_555
C23A N13A 1_555 1_555
C24A N13A 1_555 1_555
C25A C24A 1_555 1_555
C26A C25A 1_555 1_555
C27A C26A 1_555 1_555
C28A C27A 1_555 1_555
C29A N14A 1_555 1_555
H1A O1 1_555 1_555
H2A C9A 1_555 1_555
H3A N10A 1_555 1_555
H4A C11A 1_555 1_555
H5A C12A 1_555 1_555
H6A N12A 1_555 1_555
H7A C13A 1_555 1_555
H8A C14A 1_555 1_555
H9A N14A 1_555 1_555
H10A C16A 1_555 1_555
H11A C18A 1_555 1_555
H12A C19A 1_555 1_555
H13A C20A 1_555 1_555
H14A C21A 1_555 1_555
H15A C23A 1_555 1_555
H16A C25A 1_555 1_555
H17A C26A 1_555 1_555
H18A C27A 1_555 1_555
H19A C28A 1_555 1_555
C10 C15 1_555 1_555
C14 C15 1_555 1_555
C17 C22 1_555 1_555
C21 C22 1_555 1_555
C24 C29 1_555 1_555
C28 C29 1_555 1_555
C10A C15A 1_555 1_555
C14A C15A 1_555 1_555
C17A C22A 1_555 1_555
C21A C22A 1_555 1_555
C24A C29A 1_555 1_555
C28A C29A 1_555 1_555

#END
