
#######################################################################
#
#                 Cambridge Crystallographic Data Centre
#                                CCDC 
#
#######################################################################
#
# If this CIF has been generated from an entry in the Cambridge 
# Structural Database, then it will include bibliographic, chemical, 
# crystal, experimental, refinement or atomic coordinate data resulting 
# from the CCDC's data processing and validation procedures.
#
#######################################################################

data_KURVID
_symmetry_cell_setting           monoclinic
_symmetry_space_group_name_H-M   'C 2/c'
_symmetry_Int_Tables_number      15
_space_group_name_Hall           '-C 2yn'
loop_
_symmetry_equiv_pos_site_id
_symmetry_equiv_pos_as_xyz
1 x,y,z
2 -x,y,1/2-z
3 1/2+x,1/2+y,z
4 1/2-x,1/2+y,1/2-z
5 -x,-y,-z
6 x,-y,1/2+z
7 1/2-x,1/2-y,-z
8 1/2+x,1/2-y,1/2+z
_cell_length_a                   23.425(5)
_cell_length_b                   10.146(2)
_cell_length_c                   14.427(3)
_cell_angle_alpha                90
_cell_angle_beta                 126.50(3)
_cell_angle_gamma                90
_cell_volume                     2756.32
loop_
_atom_site_label
_atom_site_type_symbol
_atom_site_fract_x
_atom_site_fract_y
_atom_site_fract_z
Zn1 Zn 0.44260(3) 0.47289(5) 0.56752(5)
Na1 Na 0.29885(10) 0.8061(2) 0.4465(2)
C1 C 0.4802(2) 1.2199(5) 0.5988(4)
C2 C 0.7090(3) 0.9737(5) 0.8706(5)
C3 C 0.5942(2) 1.0936(5) 0.7306(4)
H1 H 0.6191 1.1727 0.7565
C4 C 0.4854(3) 0.9745(4) 0.6091(4)
H2 H 0.4365 0.9746 0.5531
C5 C 0.5209(2) 1.0942(4) 0.6463(4)
C6 C 0.6303(3) 0.9744(5) 0.7762(4)
C7 C 0.5932(2) 0.8565(5) 0.7375(4)
H3 H 0.6173 0.7773 0.7687
C8 C 0.4788(2) 0.7306(5) 0.6098(4)
C9 C 0.5198(2) 0.8558(5) 0.6519(4)
O1 O 0.41242(17) 0.7350(3) 0.5455(3)
O2 O 0.3853(3) 0.4688(5) 0.6293(5)
O3 O 0.3838(2) 0.4876(6) 0.3961(4)
O4 O 0.2642(4) 0.7532(7) 0.2655(5)
O5 O 0.41411(19) 1.2178(4) 0.5267(4)
O6 O 0.3018(3) 1.0451(6) 0.4118(6)
O7 O 0.51477(17) 1.3279(3) 0.6362(3)
O8 O 0.51282(16) 0.6223(3) 0.6419(3)
O9 O 0.73536(18) 0.8792(4) 0.9374(3)
O10 O 0.7451(2) 1.0708(6) 0.8821(6)
H4 H 0.392(5) 0.402(9) 0.679(8)
H5 H 0.224(4) 0.730(11) 0.207(3)
H6 H 0.269(5) 0.822(8) 0.221(4)
H7 H 0.331(5) 1.086(2) 0.475(5)
H8 H 0.336(5) 1.053(3) 0.394(10)
H9 H 0.363(6) 0.559(8) 0.345(8)
H10 H 0.340(3) 0.471(11) 0.579(8)
H11 H 0.389(6) 0.440(10) 0.347(8)
Zn1_2 Zn 0.44260(3) 1.47289(5) 0.56752(5)
Na1A Na 0.70115(10) 0.8061(2) 1.0535(2)
Na1G Na 0.79885(10) 0.6939(2) 0.9465(2)
O5_2 O 0.41411(19) 0.2178(4) 0.5267(4)
O7_2 O 0.51477(17) 0.3279(3) 0.6362(3)
O9A O 0.26464(18) 0.8792(4) 0.5626(3)
O9G O 0.23536(18) 0.6208(4) 0.4374(3)
loop_
_geom_bond_atom_site_label_1
_geom_bond_atom_site_label_2
_geom_bond_site_symmetry_1
_geom_bond_site_symmetry_2
Zn1 O1 1_555 1_555
Na1 O1 1_555 1_555
C1 C5 1_555 1_555
C2 C6 1_555 1_555
C3 H1 1_555 1_555
C4 H2 1_555 1_555
C5 C3 1_555 1_555
C6 C3 1_555 1_555
C7 C6 1_555 1_555
H3 C7 1_555 1_555
C8 C9 1_555 1_555
C9 C4 1_555 1_555
O1 C8 1_555 1_555
O2 Zn1 1_555 1_555
O3 Zn1 1_555 1_555
O4 Na1 1_555 1_555
O5 C1 1_555 1_555
O6 Na1 1_555 1_555
O7 C1 1_555 1_555
O8 Zn1 1_555 1_555
O9 C2 1_555 1_555
O10 C2 1_555 1_555
H4 O2 1_555 1_555
H5 O4 1_555 1_555
H6 O4 1_555 1_555
H7 O6 1_555 1_555
H8 O6 1_555 1_555
H9 O3 1_555 1_555
H10 O2 1_555 1_555
H11 O3 1_555 1_555
Zn1_2 O5 1_555 1_555
Na1A O9 1_555 1_555
Na1G O9 1_555 1_555
O5_2 Zn1 1_555 1_555
O7_2 Zn1 1_555 1_555
O9A Na1 1_555 1_555
O9G Na1 1_555 1_555
C4 C5 1_555 1_555
C7 C9 1_555 1_555
C8 O8 1_555 1_555
O7 Zn1_2 1_555 1_555

#END
