
#######################################################################
#
#                 Cambridge Crystallographic Data Centre
#                                CCDC 
#
#######################################################################
#
# If this CIF has been generated from an entry in the Cambridge 
# Structural Database, then it will include bibliographic, chemical, 
# crystal, experimental, refinement or atomic coordinate data resulting 
# from the CCDC's data processing and validation procedures.
#
#######################################################################

data_KUSCOR
_symmetry_cell_setting           monoclinic
_symmetry_space_group_name_H-M   'P 21/c'
_symmetry_Int_Tables_number      14
_space_group_name_Hall           '-P 2ybc'
loop_
_symmetry_equiv_pos_site_id
_symmetry_equiv_pos_as_xyz
1 x,y,z
2 -x,1/2+y,1/2-z
3 -x,-y,-z
4 x,1/2-y,1/2+z
_cell_length_a                   16.145(3)
_cell_length_b                   8.1155(16)
_cell_length_c                   7.3986(15)
_cell_angle_alpha                90
_cell_angle_beta                 92.98(3)
_cell_angle_gamma                90
_cell_volume                     968.089
loop_
_atom_site_label
_atom_site_type_symbol
_atom_site_fract_x
_atom_site_fract_y
_atom_site_fract_z
Na1 Na 0.01791(3) 0.64831(7) 0.25611(7)
O1 O 0.14852(7) 0.53347(14) 0.41532(13)
C1 C 0.18004(8) 0.53264(15) 0.26404(16)
C2 C 0.27247(8) 0.53757(16) 0.25234(17)
C3 C 0.32656(10) 0.4527(2) 0.3718(2)
C4 C 0.30354(11) 0.6271(3) 0.1107(2)
C5 C 0.41092(11) 0.4583(3) 0.3414(3)
C6 C 0.29779(16) 0.3518(4) 0.5275(4)
H1 H 0.2774 0.4239 0.6181
H2 H 0.3434 0.2884 0.5788
H3 H 0.2542 0.2789 0.4848
C7 C 0.38805(13) 0.6352(3) 0.0885(4)
C8 C 0.44096(12) 0.5494(3) 0.2038(4)
O2 O 0.13648(6) 0.53062(13) 0.11780(13)
O3 O 0.08470(7) 0.91596(13) 0.25956(15)
O4 O -0.05771(7) 0.74541(15) 0.49901(14)
H4 H 0.1128(15) 0.918(3) 0.179(4)
H5 H 0.1175(16) 0.921(3) 0.357(4)
H6 H -0.0863(15) 0.676(3) 0.526(3)
H7 H -0.0901(14) 0.819(3) 0.458(3)
H8 H 0.2640(13) 0.693(3) 0.026(3)
H9 H 0.4464(15) 0.395(3) 0.412(3)
H10 H 0.4058(17) 0.705(4) -0.018(4)
H11 H 0.495(2) 0.556(4) 0.179(4)
Na1A Na -0.01791(3) 1.14831(7) 0.24389(7)
Na1C Na 0.01791(3) 0.85169(7) 0.75611(7)
O3A O -0.08470(7) 0.41596(13) 0.24044(15)
O4C O -0.05771(7) 0.75459(15) -0.00099(14)
H4A H -0.1128(15) 0.418(3) 0.321(4)
H5A H -0.1175(16) 0.421(3) 0.143(4)
H6C H -0.0863(15) 0.824(3) 0.026(3)
H7C H -0.0901(14) 0.681(3) -0.042(3)
loop_
_geom_bond_atom_site_label_1
_geom_bond_atom_site_label_2
_geom_bond_site_symmetry_1
_geom_bond_site_symmetry_2
Na1 O1 1_555 1_555
O1 C1 1_555 1_555
C1 C2 1_555 1_555
C2 C3 1_555 1_555
C3 C5 1_555 1_555
C4 C2 1_555 1_555
C5 C8 1_555 1_555
C6 C3 1_555 1_555
H1 C6 1_555 1_555
H2 C6 1_555 1_555
H3 C6 1_555 1_555
C7 C4 1_555 1_555
C8 C7 1_555 1_555
O2 Na1 1_555 1_555
O3 Na1 1_555 1_555
O4 Na1 1_555 1_555
H4 O3 1_555 1_555
H5 O3 1_555 1_555
H6 O4 1_555 1_555
H7 O4 1_555 1_555
H8 C4 1_555 1_555
H9 C5 1_555 1_555
H10 C7 1_555 1_555
H11 C8 1_555 1_555
Na1A O3 1_555 1_555
Na1C O4 1_555 1_555
O3A Na1 1_555 1_555
O4C Na1 1_555 1_555
H4A O3A 1_555 1_555
H5A O3A 1_555 1_555
H6C O4C 1_555 1_555
H7C O4C 1_555 1_555
C1 O2 1_555 1_555

#END
