
#######################################################################
#
#                 Cambridge Crystallographic Data Centre
#                                CCDC 
#
#######################################################################
#
# If this CIF has been generated from an entry in the Cambridge 
# Structural Database, then it will include bibliographic, chemical, 
# crystal, experimental, refinement or atomic coordinate data resulting 
# from the CCDC's data processing and validation procedures.
#
#######################################################################

data_KUSDAE
_symmetry_cell_setting           monoclinic
_symmetry_space_group_name_H-M   'P 21/c'
_symmetry_Int_Tables_number      14
_space_group_name_Hall           '-P 2ybc'
loop_
_symmetry_equiv_pos_site_id
_symmetry_equiv_pos_as_xyz
1 x,y,z
2 -x,1/2+y,1/2-z
3 -x,-y,-z
4 x,1/2-y,1/2+z
_cell_length_a                   16.0160(6)
_cell_length_b                   8.8832(3)
_cell_length_c                   10.1952(4)
_cell_angle_alpha                90
_cell_angle_beta                 95.7360(10)
_cell_angle_gamma                90
_cell_volume                     1443.24
loop_
_atom_site_label
_atom_site_type_symbol
_atom_site_fract_x
_atom_site_fract_y
_atom_site_fract_z
U1 U 0.586399(8) 0.547362(15) 0.296990(13)
O1 O 0.44462(19) 0.5074(4) 0.3220(3)
O2 O -0.2633(2) 0.5414(4) 0.3430(3)
O3 O -0.31269(18) 0.6577(4) 0.1612(3)
C1 C -0.2507(3) 0.6109(5) 0.2366(4)
C2 C -0.1633(2) 0.6318(4) 0.2024(4)
C3 C -0.0998(3) 0.5442(4) 0.2653(4)
H1 H -0.1117 0.4782 0.3317
C4 C -0.1455(3) 0.7312(5) 0.1032(4)
H2 H -0.1882 0.7885 0.0592
C5 C -0.0187(3) 0.5542(4) 0.2301(4)
H3 H 0.0235 0.4933 0.2706
C6 C -0.0644(2) 0.7442(5) 0.0705(4)
H4 H -0.0521 0.8123 0.0059
C7 C -0.0012(2) 0.6565(5) 0.1335(4)
C8 C 0.3855(3) 0.5534(4) 0.3832(4)
C9 C 0.3020(2) 0.5761(4) 0.3109(4)
C10 C 0.2377(2) 0.6428(5) 0.3721(4)
H5 H 0.2465 0.6672 0.4611
C11 C 0.1611(3) 0.6734(5) 0.3031(4)
H6 H 0.1186 0.7193 0.3445
C12 C 0.1486(2) 0.6341(5) 0.1702(4)
C13 C 0.2118(3) 0.5663(5) 0.1080(4)
H7 H 0.2026 0.5404 0.0194
C14 C 0.2885(3) 0.5371(4) 0.1778(4)
H8 H 0.3310 0.4916 0.1362
O4 O 0.07633(17) 0.6721(4) 0.0895(3)
O5 O 0.39500(19) 0.5838(4) 0.5061(3)
O6 O 0.5825(2) 0.7188(3) 0.3837(3)
O7 O 0.58900(19) 0.3749(3) 0.2127(3)
O8 O 0.50947(19) 0.6486(3) 0.0952(3)
H9 H 0.4613 0.6883 0.0787
H10 H 0.5375 0.6547 0.0288
U1_2 U -0.413601(8) 0.547362(15) 0.296990(13)
U1B U 0.413601(8) 0.452638(15) 0.703010(13)
O2_2 O 0.7367(2) 0.5414(4) 0.3430(3)
O3_2 O 0.68731(18) 0.6577(4) 0.1612(3)
O5B O 0.60500(19) 0.4162(4) 0.4939(3)
loop_
_geom_bond_atom_site_label_1
_geom_bond_atom_site_label_2
_geom_bond_site_symmetry_1
_geom_bond_site_symmetry_2
U1 O1 1_555 1_555
O1 C8 1_555 1_555
O2 C1 1_555 1_555
O3 C1 1_555 1_555
C1 C2 1_555 1_555
C2 C3 1_555 1_555
C3 H1 1_555 1_555
C4 C2 1_555 1_555
H2 C4 1_555 1_555
C5 C3 1_555 1_555
H3 C5 1_555 1_555
C6 C4 1_555 1_555
H4 C6 1_555 1_555
C7 C5 1_555 1_555
C8 C9 1_555 1_555
C9 C10 1_555 1_555
C10 H5 1_555 1_555
C11 C10 1_555 1_555
H6 C11 1_555 1_555
C12 C11 1_555 1_555
C13 C12 1_555 1_555
H7 C13 1_555 1_555
C14 C9 1_555 1_555
H8 C14 1_555 1_555
O4 C7 1_555 1_555
O5 C8 1_555 1_555
O6 U1 1_555 1_555
O7 U1 1_555 1_555
O8 U1 1_555 1_555
H9 O8 1_555 1_555
H10 O8 1_555 1_555
U1_2 O2 1_555 1_555
U1B O5 1_555 1_555
O2_2 U1 1_555 1_555
O3_2 U1 1_555 1_555
O5B U1 1_555 1_555
O3 U1_2 1_555 1_555
C6 C7 1_555 1_555
C12 O4 1_555 1_555
C13 C14 1_555 1_555

#END
