
#######################################################################
#
#                 Cambridge Crystallographic Data Centre
#                                CCDC 
#
#######################################################################
#
# If this CIF has been generated from an entry in the Cambridge 
# Structural Database, then it will include bibliographic, chemical, 
# crystal, experimental, refinement or atomic coordinate data resulting 
# from the CCDC's data processing and validation procedures.
#
#######################################################################

data_KUTFEM
_symmetry_cell_setting           monoclinic
_symmetry_space_group_name_H-M   'C 2/c'
_symmetry_Int_Tables_number      15
_space_group_name_Hall           '-C 2yn'
loop_
_symmetry_equiv_pos_site_id
_symmetry_equiv_pos_as_xyz
1 x,y,z
2 -x,y,1/2-z
3 1/2+x,1/2+y,z
4 1/2-x,1/2+y,1/2-z
5 -x,-y,-z
6 x,-y,1/2+z
7 1/2-x,1/2-y,-z
8 1/2+x,1/2-y,1/2+z
_cell_length_a                   11.662(2)
_cell_length_b                   6.8070(10)
_cell_length_c                   12.447(3)
_cell_angle_alpha                90
_cell_angle_beta                 103.09(2)
_cell_angle_gamma                90
_cell_volume                     962.408
loop_
_atom_site_label
_atom_site_type_symbol
_atom_site_fract_x
_atom_site_fract_y
_atom_site_fract_z
Sr1 Sr 0.66982(3) 0.10179(4) 0.34404(2)
O1 O 0.4589(2) -0.0290(4) 0.3609(2)
O2 O 0.33583(19) -0.6574(3) 0.32098(17)
O3 O 0.72229(19) -0.5267(4) 0.44735(18)
N1 N 0.3917(2) -0.3414(4) 0.3409(2)
N2 N 0.5328(2) -0.5998(4) 0.3807(2)
N3 N 0.5936(2) -0.2675(4) 0.4150(2)
C1 C 0.4805(3) -0.2153(5) 0.3725(2)
C2 C 0.4213(3) -0.5339(5) 0.3477(2)
C3 C 0.6161(3) -0.4641(5) 0.4145(2)
Li1 Li 0.3533(5) 0.1312(9) 0.4262(4)
Sr1_2 Sr 0.66982(3) -0.89821(4) 0.34404(2)
Sr1A Sr 0.33018(3) -0.89821(4) 0.15596(2)
Sr1A_2 Sr 0.33018(3) 0.10179(4) 0.15596(2)
Sr1B Sr 0.16982(3) -0.39821(4) 0.34404(2)
Sr1F Sr 0.83018(3) -0.60179(4) 0.65596(2)
O1A O 0.5411(2) -0.0290(4) 0.1391(2)
O2_2 O 0.33583(19) 0.3426(3) 0.32098(17)
O2A O 0.66417(19) 0.3426(3) 0.17902(17)
O2B O 0.83583(19) -0.1574(3) 0.32098(17)
O3_2 O 0.72229(19) 0.4733(4) 0.44735(18)
O3B O 0.22229(19) -0.0267(4) 0.44735(18)
O3F O 0.77771(19) 0.0267(4) 0.55265(18)
N1B N 0.8917(2) 0.1586(4) 0.3409(2)
N2_2 N 0.5328(2) 0.4002(4) 0.3807(2)
N3D N 0.4064(2) 0.2675(4) 0.5850(2)
Li1_2 Li 0.3533(5) -0.8688(9) 0.4262(4)
Li1B Li 0.8533(5) -0.3688(9) 0.4262(4)
Li1D Li 0.6467(5) -0.1312(9) 0.5738(4)
loop_
_geom_bond_atom_site_label_1
_geom_bond_atom_site_label_2
_geom_bond_site_symmetry_1
_geom_bond_site_symmetry_2
Sr1 O1 1_555 1_555
O1 C1 1_555 1_555
O2 C2 1_555 1_555
O3 C3 1_555 1_555
N1 C1 1_555 1_555
N2 C2 1_555 1_555
N3 Sr1 1_555 1_555
C1 N3 1_555 1_555
C2 N1 1_555 1_555
C3 N2 1_555 1_555
Li1 O1 1_555 1_555
Sr1_2 O3 1_555 1_555
Sr1A O2 1_555 1_555
Sr1A_2 O1 1_555 1_555
Sr1B O2 1_555 1_555
Sr1F O3 1_555 1_555
O1A Sr1 1_555 1_555
O2_2 Li1 1_555 1_555
O2A Sr1 1_555 1_555
O2B Sr1 1_555 1_555
O3_2 Sr1 1_555 1_555
O3B Li1 1_555 1_555
O3F Sr1 1_555 1_555
N1B Sr1 1_555 1_555
N2_2 Sr1 1_555 1_555
N3D Li1 1_555 1_555
Li1_2 O2 1_555 1_555
Li1B O3 1_555 1_555
Li1D N3 1_555 1_555
N1 Sr1B 1_555 1_555
N2 Sr1_2 1_555 1_555
N3 C3 1_555 1_555
Sr1A_2 O1A 1_555 1_555
Sr1A_2 O2_2 1_555 1_555
Sr1B O3B 1_555 1_555
O2B Li1B 1_555 1_555
O3F Li1D 1_555 1_555

#END
