
#######################################################################
#
#                 Cambridge Crystallographic Data Centre
#                                CCDC 
#
#######################################################################
#
# If this CIF has been generated from an entry in the Cambridge 
# Structural Database, then it will include bibliographic, chemical, 
# crystal, experimental, refinement or atomic coordinate data resulting 
# from the CCDC's data processing and validation procedures.
#
#######################################################################

data_KUTJEQ
_symmetry_cell_setting           monoclinic
_symmetry_space_group_name_H-M   'C 2/c'
_symmetry_Int_Tables_number      15
_space_group_name_Hall           '-C 2yn'
loop_
_symmetry_equiv_pos_site_id
_symmetry_equiv_pos_as_xyz
1 x,y,z
2 -x,y,1/2-z
3 1/2+x,1/2+y,z
4 1/2-x,1/2+y,1/2-z
5 -x,-y,-z
6 x,-y,1/2+z
7 1/2-x,1/2-y,-z
8 1/2+x,1/2-y,1/2+z
_cell_length_a                   15.749(2)
_cell_length_b                   9.2252(15)
_cell_length_c                   12.0140(18)
_cell_angle_alpha                90
_cell_angle_beta                 102.969(13)
_cell_angle_gamma                90
_cell_volume                     1700.96
loop_
_atom_site_label
_atom_site_type_symbol
_atom_site_fract_x
_atom_site_fract_y
_atom_site_fract_z
Cu1 Cu 0.45697(5) 0.08780(9) 0.36880(7)
Cl1 Cl 0.5000 -0.0796(3) 0.2500
Cl2 Cl 0.5000 0.2569(3) 0.2500
N1 N 0.3977(4) 0.2524(6) 0.4324(5)
Br1 Br 0.26216(6) 0.18921(12) 0.25185(8)
C1 C 0.2731(6) 0.4016(9) 0.4244(10)
H1 H 0.2160 0.4240 0.3883
C2 C 0.3998(7) 0.4402(9) 0.5681(9)
H2 H 0.4305 0.4929 0.6302
C3 C 0.3151(6) 0.4759(10) 0.5174(9)
H3 H 0.2870 0.5504 0.5469
C4 C 0.4382(5) 0.3262(8) 0.5256(7)
H4 H 0.4942 0.2987 0.5626
C5 C 0.3173(5) 0.2925(9) 0.3848(7)
Cl3 Cl 0.39882(11) -0.08055(18) 0.46826(15)
Cu1A Cu 0.54303(5) 0.08780(9) 0.13120(7)
N1A N 0.6023(4) 0.2524(6) 0.0676(5)
Br1A Br 0.73784(6) 0.18921(12) 0.24815(8)
C1A C 0.7269(6) 0.4016(9) 0.0756(10)
H1A H 0.7840 0.4240 0.1117
C2A C 0.6002(7) 0.4402(9) -0.0681(9)
H2A H 0.5695 0.4929 -0.1302
C3A C 0.6849(6) 0.4759(10) -0.0174(9)
H3A H 0.7130 0.5504 -0.0469
C4A C 0.5618(5) 0.3262(8) -0.0256(7)
H4A H 0.5058 0.2987 -0.0626
C5A C 0.6827(5) 0.2925(9) 0.1152(7)
Cl3A Cl 0.60118(11) -0.08055(18) 0.03174(15)
Cu1D Cu 0.54303(5) -0.08780(9) 0.63120(7)
Cu1E Cu 0.45697(5) -0.08780(9) -0.13120(7)
Cl3D Cl 0.60118(11) 0.08055(18) 0.53174(15)
Cl3E Cl 0.39882(11) 0.08055(18) -0.03174(15)
loop_
_geom_bond_atom_site_label_1
_geom_bond_atom_site_label_2
_geom_bond_site_symmetry_1
_geom_bond_site_symmetry_2
Cu1 Cl1 1_555 1_555
Cl1 Cu1A 1_555 1_555
Cl2 Cu1 1_555 1_555
N1 Cu1 1_555 1_555
Br1 C5 1_555 1_555
C1 H1 1_555 1_555
C2 H2 1_555 1_555
C3 C1 1_555 1_555
H3 C3 1_555 1_555
C4 N1 1_555 1_555
H4 C4 1_555 1_555
C5 N1 1_555 1_555
Cl3 Cu1 1_555 1_555
Cu1A Cl2 1_555 1_555
N1A Cu1A 1_555 1_555
Br1A C5A 1_555 1_555
C1A H1A 1_555 1_555
C2A H2A 1_555 1_555
C3A C1A 1_555 1_555
H3A C3A 1_555 1_555
C4A N1A 1_555 1_555
H4A C4A 1_555 1_555
C5A N1A 1_555 1_555
Cl3A Cu1A 1_555 1_555
Cu1D Cl3 1_555 1_555
Cu1E Cl3A 1_555 1_555
Cl3D Cu1 1_555 1_555
Cl3E Cu1A 1_555 1_555
C1 C5 1_555 1_555
C2 C3 1_555 1_555
C2 C4 1_555 1_555
C1A C5A 1_555 1_555
C2A C3A 1_555 1_555
C2A C4A 1_555 1_555
Cu1D Cl3D 1_555 1_555
Cu1E Cl3E 1_555 1_555

#END
