
#######################################################################
#
#                 Cambridge Crystallographic Data Centre
#                                CCDC 
#
#######################################################################
#
# If this CIF has been generated from an entry in the Cambridge 
# Structural Database, then it will include bibliographic, chemical, 
# crystal, experimental, refinement or atomic coordinate data resulting 
# from the CCDC's data processing and validation procedures.
#
#######################################################################

data_KUTPEU
_symmetry_cell_setting           triclinic
_symmetry_space_group_name_H-M   'P -1'
_symmetry_Int_Tables_number      2
_space_group_name_Hall           '-P 1'
loop_
_symmetry_equiv_pos_site_id
_symmetry_equiv_pos_as_xyz
1 x,y,z
2 -x,-y,-z
_cell_length_a                   11.064(3)
_cell_length_b                   12.154(4)
_cell_length_c                   8.439(4)
_cell_angle_alpha                108.42(3)
_cell_angle_beta                 90.85(3)
_cell_angle_gamma                109.80(2)
_cell_volume                     1003.53
loop_
_atom_site_label
_atom_site_type_symbol
_atom_site_fract_x
_atom_site_fract_y
_atom_site_fract_z
Cu1 Cu 0.55417(9) 0.39317(8) 0.4507(1)
Cu2 Cu 0.4109(1) 0.4433(1) 0.1177(1)
O1 O 0.5805(4) 0.5550(4) 0.4243(6)
O2 O 0.7107(6) 0.0679(5) 0.3065(7)
N1 N 0.7040(6) 0.3750(5) 0.3326(8)
N2 N 0.4916(6) 0.2303(6) 0.4758(9)
N3 N 0.3853(8) 0.3012(7) 0.188(1)
N4 N 0.3529(7) 0.1956(8) 0.104(1)
N5 N 0.3226(8) 0.0898(8) 0.036(1)
N6 N 0.6951(7) 0.4939(7) 0.722(1)
N7 N 0.7931(9) 0.4897(8) 0.745(1)
N8 N 0.887(1) 0.476(1) 0.762(2)
N9 N 0.5375(7) 0.4130(7) -0.0382(9)
N10 N 0.5715(8) 0.3237(8) -0.078(1)
N11 N 0.602(1) 0.2394(9) -0.117(1)
C1 C 0.6825(6) 0.6275(6) 0.3747(8)
C2 C 0.7795(6) 0.5827(6) 0.3058(8)
C3 C 0.8810(6) 0.6564(6) 0.248(1)
C4 C 0.8957(6) 0.7748(6) 0.2557(9)
C5 C 0.8001(7) 0.8180(6) 0.324(1)
C6 C 0.6950(6) 0.7467(6) 0.3835(9)
C7 C 1.0111(6) 0.8544(7) 0.191(1)
C8 C 1.0174(7) 0.9873(7) 0.232(1)
C9 C 1.0006(8) 0.7939(8) -0.001(1)
C10 C 1.1384(8) 0.8612(8) 0.277(1)
C11 C 0.7810(7) 0.4610(7) 0.289(1)
C12 C 0.735(1) 0.2624(8) 0.299(1)
C13 C 0.656(1) 0.1636(9) 0.332(2)
C14 C 0.558(1) 0.142(1) 0.417(2)
C15 C 0.3922(7) 0.1888(7) 0.543(1)
H1 H 0.9437 0.6231 0.2000
H2 H 0.8062 0.8992 0.3303
H3 H 1.0252 1.0258 0.3500
H4 H 1.0904 1.0321 0.1900
H5 H 0.9405 0.9870 0.1793
H6 H 0.9220 0.7910 -0.0531
H7 H 1.0720 0.8419 -0.0408
H8 H 1.000 0.7120 -0.0270
H9 H 1.1381 0.7792 0.2529
H10 H 1.2093 0.9080 0.2353
H11 H 1.1448 0.8997 0.3953
H12 H 0.8506 0.4427 0.2362
H13 H 0.7360 0.2301 0.1820
H14 H 0.8218 0.2894 0.3561
H15 H 0.7159 0.2044 0.4531
H16 H 0.7133 0.0206 0.1708
H17 H 0.5847 0.1274 0.5169
H18 H 0.4986 0.0679 0.3425
H19 H 0.3877 0.1313 0.6284
O1A O 0.4195(4) 0.4450(4) 0.5757(6)
O2A O 0.2893(6) 0.9321(5) 0.6935(7)
N1A N 0.2960(6) 0.6250(5) 0.6674(8)
N2A N 0.5084(6) 0.7697(6) 0.5242(9)
C1A C 0.3175(6) 0.3725(6) 0.6253(8)
C2A C 0.2205(6) 0.4173(6) 0.6942(8)
C3A C 0.1190(6) 0.3436(6) 0.752(1)
C4A C 0.1043(6) 0.2252(6) 0.7443(9)
C5A C 0.1999(7) 0.1820(6) 0.676(1)
C6A C 0.3050(6) 0.2533(6) 0.6165(9)
C7A C -0.0111(6) 0.1456(7) 0.809(1)
C8A C -0.0174(7) 0.0127(7) 0.768(1)
C9A C -0.0006(8) 0.2061(8) 1.001(1)
C10A C -0.1384(8) 0.1388(8) 0.723(1)
C11A C 0.2190(7) 0.5390(7) 0.711(1)
C12A C 0.265(1) 0.7376(8) 0.701(1)
C13A C 0.344(1) 0.8364(9) 0.668(2)
C14A C 0.442(1) 0.858(1) 0.583(2)
C15A C 0.6078(7) 0.8112(7) 0.457(1)
H1A H 0.0563 0.3769 0.8000
H2A H 0.1938 0.1008 0.6697
H3A H -0.0252 -0.0258 0.6500
H4A H -0.0904 -0.0321 0.8100
H5A H 0.0595 0.0130 0.8207
H6A H 0.0780 0.2090 1.0531
H7A H -0.0720 0.1581 1.0408
H8A H 0.000 0.2880 1.0270
H9A H -0.1381 0.2208 0.7471
H10A H -0.2093 0.0920 0.7647
H11A H -0.1448 0.1003 0.6047
H12A H 0.1494 0.5573 0.7638
H13A H 0.2640 0.7699 0.8180
H14A H 0.1782 0.7106 0.6439
H15A H 0.2841 0.7956 0.5469
H16A H 0.2867 0.9794 0.8292
H17A H 0.4153 0.8726 0.4831
H18A H 0.5014 0.9321 0.6575
H19A H 0.6123 0.8687 0.3716
Cu1A Cu 0.44583(9) 0.60683(8) -0.4507(1)
Cu2A Cu 0.5891(1) 0.5567(1) -0.1177(1)
N3A N 0.6147(8) 0.6988(7) -0.188(1)
N4A N 0.6471(7) 0.8044(8) -0.104(1)
N5A N 0.6774(8) 0.9102(8) -0.036(1)
N6A N 0.3049(7) 0.5061(7) -0.722(1)
N7A N 0.2069(9) 0.5103(8) -0.745(1)
N8A N 0.113(1) 0.524(1) -0.762(2)
N9A N 0.4625(7) 0.5870(7) 0.0382(9)
N10A N 0.4285(8) 0.6763(8) 0.078(1)
N11A N 0.398(1) 0.7606(9) 0.117(1)
Cu1A_2 Cu 0.44583(9) 0.60683(8) 0.5493(1)
Cu2_2 Cu 0.4109(1) 0.4433(1) -0.8823(1)
Cu2A_2 Cu 0.5891(1) 0.5567(1) 0.8823(1)
O1_2 O 0.5805(4) 0.5550(4) -0.5757(6)
O1A_2 O 0.4195(4) 0.4450(4) -0.4243(6)
N1A_2 N 0.2960(6) 0.6250(5) -0.3326(8)
N2A_2 N 0.5084(6) 0.7697(6) -0.4758(9)
N6_2 N 0.6951(7) 0.4939(7) -0.278(1)
N6A_2 N 0.3049(7) 0.5061(7) 0.278(1)
loop_
_geom_bond_atom_site_label_1
_geom_bond_atom_site_label_2
_geom_bond_site_symmetry_1
_geom_bond_site_symmetry_2
Cu1 O1 1_555 1_555
Cu2 N3 1_555 1_555
O1 C1 1_555 1_555
O2 C13 1_555 1_555
N1 Cu1 1_555 1_555
N2 Cu1 1_555 1_555
N3 Cu1 1_555 1_555
N4 N3 1_555 1_555
N5 N4 1_555 1_555
N6 Cu1 1_555 1_555
N7 N6 1_555 1_555
N8 N7 1_555 1_555
N9 Cu2 1_555 1_555
N10 N9 1_555 1_555
N11 N10 1_555 1_555
C1 C2 1_555 1_555
C2 C3 1_555 1_555
C3 C4 1_555 1_555
C4 C5 1_555 1_555
C5 C6 1_555 1_555
C6 C1 1_555 1_555
C7 C4 1_555 1_555
C8 C7 1_555 1_555
C9 C7 1_555 1_555
C10 C7 1_555 1_555
C11 N1 1_555 1_555
C12 N1 1_555 1_555
C13 C12 1_555 1_555
C14 N2 1_555 1_555
C15 N2 1_555 1_555
H1 C3 1_555 1_555
H2 C5 1_555 1_555
H3 C8 1_555 1_555
H4 C8 1_555 1_555
H5 C8 1_555 1_555
H6 C9 1_555 1_555
H7 C9 1_555 1_555
H8 C9 1_555 1_555
H9 C10 1_555 1_555
H10 C10 1_555 1_555
H11 C10 1_555 1_555
H12 C11 1_555 1_555
H13 C12 1_555 1_555
H14 C12 1_555 1_555
H15 C13 1_555 1_555
H16 O2 1_555 1_555
H17 C14 1_555 1_555
H18 C14 1_555 1_555
H19 C15 1_555 1_555
O1A Cu1 1_555 1_555
O2A C13A 1_555 1_555
N1A C11A 1_555 1_555
N2A C14A 1_555 1_555
C1A O1A 1_555 1_555
C2A C1A 1_555 1_555
C3A C2A 1_555 1_555
C4A C3A 1_555 1_555
C5A C4A 1_555 1_555
C6A C15 1_555 1_555
C7A C4A 1_555 1_555
C8A C7A 1_555 1_555
C9A C7A 1_555 1_555
C10A C7A 1_555 1_555
C11A C2A 1_555 1_555
C12A N1A 1_555 1_555
C13A C12A 1_555 1_555
C14A C13A 1_555 1_555
C15A C6 1_555 1_555
H1A C3A 1_555 1_555
H2A C5A 1_555 1_555
H3A C8A 1_555 1_555
H4A C8A 1_555 1_555
H5A C8A 1_555 1_555
H6A C9A 1_555 1_555
H7A C9A 1_555 1_555
H8A C9A 1_555 1_555
H9A C10A 1_555 1_555
H10A C10A 1_555 1_555
H11A C10A 1_555 1_555
H12A C11A 1_555 1_555
H13A C12A 1_555 1_555
H14A C12A 1_555 1_555
H15A C13A 1_555 1_555
H16A O2A 1_555 1_555
H17A C14A 1_555 1_555
H18A C14A 1_555 1_555
H19A C15A 1_555 1_555
Cu1A N3A 1_555 1_555
Cu2A N9 1_555 1_555
N3A Cu2A 1_555 1_555
N4A N3A 1_555 1_555
N5A N4A 1_555 1_555
N6A Cu1A 1_555 1_555
N7A N6A 1_555 1_555
N8A N7A 1_555 1_555
N9A Cu2 1_555 1_555
N10A N9A 1_555 1_555
N11A N10A 1_555 1_555
Cu1A_2 O1 1_555 1_555
Cu2_2 N6A 1_555 1_555
Cu2A_2 N6 1_555 1_555
O1_2 Cu1A 1_555 1_555
O1A_2 Cu1A 1_555 1_555
N1A_2 Cu1A 1_555 1_555
N2A_2 Cu1A 1_555 1_555
N6_2 Cu2A 1_555 1_555
N6A_2 Cu2 1_555 1_555
C2 C11 1_555 1_555
C13 C14 1_555 1_555
O1A Cu1A_2 1_555 1_555
N1A Cu1A_2 1_555 1_555
N2A C15A 1_555 1_555
N2A Cu1A_2 1_555 1_555
C1A C6A 1_555 1_555
C5A C6A 1_555 1_555
Cu2A N9A 1_555 1_555
Cu1A_2 N6A_2 1_555 1_555

#END
