
#######################################################################
#
#                 Cambridge Crystallographic Data Centre
#                                CCDC 
#
#######################################################################
#
# If this CIF has been generated from an entry in the Cambridge 
# Structural Database, then it will include bibliographic, chemical, 
# crystal, experimental, refinement or atomic coordinate data resulting 
# from the CCDC's data processing and validation procedures.
#
#######################################################################

data_KUTPAR
_symmetry_cell_setting           monoclinic
_symmetry_space_group_name_H-M   'C 2/c'
_symmetry_Int_Tables_number      15
_space_group_name_Hall           '-C 2yn'
loop_
_symmetry_equiv_pos_site_id
_symmetry_equiv_pos_as_xyz
1 x,y,z
2 -x,y,1/2-z
3 1/2+x,1/2+y,z
4 1/2-x,1/2+y,1/2-z
5 -x,-y,-z
6 x,-y,1/2+z
7 1/2-x,1/2-y,-z
8 1/2+x,1/2-y,1/2+z
_cell_length_a                   11.1288(7)
_cell_length_b                   6.6724(4)
_cell_length_c                   28.144(2)
_cell_angle_alpha                90
_cell_angle_beta                 102.274(6)
_cell_angle_gamma                90
_cell_volume                     2042.09
loop_
_atom_site_label
_atom_site_type_symbol
_atom_site_fract_x
_atom_site_fract_y
_atom_site_fract_z
C1 C 0.31355(16) 0.8280(3) 0.10792(6)
C2 C 0.39097(18) 0.8966(3) 0.07759(7)
C3 C 0.3434(2) 0.9809(3) 0.03289(8)
H1 H 0.3951 1.0261 0.0132
C4 C 0.2181(2) 0.9965(4) 0.01810(8)
H2 H 0.1843 1.0514 -0.0122
C5 C 0.1413(2) 0.9312(4) 0.04792(9)
H3 H 0.0566 0.9446 0.0375
C6 C 0.18813(18) 0.8472(3) 0.09260(7)
H4 H 0.1358 0.8038 0.1122
Cl1 Cl 0.38325(5) 0.35684(8) 0.123234(19)
Cl2 Cl 0.54842(5) 0.88282(9) 0.09392(2)
N1 N 0.45784(14) 0.5415(2) 0.16212(6)
Na1 Na 0.14395(7) 0.50352(13) 0.23560(3)
O1 O 0.25555(13) 0.6627(2) 0.18286(5)
O2 O 0.44039(12) 0.8680(2) 0.19636(5)
O3 O 0.29191(13) 0.6793(2) 0.29703(5)
H5 H 0.3538(18) 0.627(4) 0.3106(9)
H6 H 0.258(2) 0.718(4) 0.3182(8)
O4 O 0.0000 0.7742(3) 0.2500
H7 H 0.013(2) 0.852(3) 0.2729(7)
S1 S 0.36626(4) 0.71995(7) 0.166416(15)
C1B C -0.18645(16) 0.3280(3) 0.10792(6)
C2B C -0.10903(18) 0.3966(3) 0.07759(7)
C3B C -0.1566(2) 0.4809(3) 0.03289(8)
H1B H -0.1049 0.5261 0.0132
C4B C -0.2819(2) 0.4965(4) 0.01810(8)
H2B H -0.3157 0.5514 -0.0122
C5B C -0.3587(2) 0.4312(4) 0.04792(9)
H3B H -0.4434 0.4446 0.0375
C6B C -0.31187(18) 0.3472(3) 0.09260(7)
H4B H -0.3642 0.3038 0.1122
Cl1B Cl -0.11675(5) -0.14316(8) 0.123234(19)
Cl2B Cl 0.04842(5) 0.38282(9) 0.09392(2)
N1B N -0.04216(14) 0.0415(2) 0.16212(6)
Na1B Na -0.35605(7) 0.00352(13) 0.23560(3)
Na1B_2 Na 0.64395(7) 1.00352(13) 0.23560(3)
Na1C Na 0.35605(7) 1.00352(13) 0.26440(3)
Na1A Na -0.14395(7) 0.50352(13) 0.26440(3)
Na1C_2 Na 0.35605(7) 0.00352(13) 0.26440(3)
O1B O -0.24445(13) 0.1627(2) 0.18286(5)
O2B O -0.05961(12) 0.3680(2) 0.19636(5)
O2C O 0.05961(12) 0.3680(2) 0.30364(5)
O2_2 O -0.55961(12) -0.1320(2) 0.19636(5)
O2A O -0.44039(12) -0.1320(2) 0.30364(5)
O3C O 0.20809(13) 0.1793(2) 0.20297(5)
O3B O -0.20809(13) 0.1793(2) 0.29703(5)
O3A O -0.29191(13) -0.3207(2) 0.20297(5)
H5C H 0.1462(18) 0.127(4) 0.1894(9)
H5B H -0.1462(18) 0.127(4) 0.3106(9)
H5A H -0.3538(18) -0.373(4) 0.1894(9)
H6C H 0.242(2) 0.218(4) 0.1818(8)
H6B H -0.242(2) 0.218(4) 0.3182(8)
H6A H -0.258(2) -0.282(4) 0.1818(8)
O4B O -0.5000 0.2742(3) 0.2500
H7A H -0.013(2) 0.852(3) 0.2271(7)
H7B H -0.487(2) 0.352(3) 0.2729(7)
H7C H -0.513(2) 0.352(3) 0.2271(7)
S1B S -0.13374(4) 0.21995(7) 0.166416(15)
loop_
_geom_bond_atom_site_label_1
_geom_bond_atom_site_label_2
_geom_bond_site_symmetry_1
_geom_bond_site_symmetry_2
C1 C2 1_555 1_555
C2 C3 1_555 1_555
C3 H1 1_555 1_555
C4 C3 1_555 1_555
H2 C4 1_555 1_555
C5 C4 1_555 1_555
H3 C5 1_555 1_555
C6 C1 1_555 1_555
H4 C6 1_555 1_555
Cl1 N1 1_555 1_555
Cl2 C2 1_555 1_555
N1 S1 1_555 1_555
Na1 O1 1_555 1_555
O1 S1 1_555 1_555
O2 S1 1_555 1_555
O3 Na1 1_555 1_555
H5 O3 1_555 1_555
H6 O3 1_555 1_555
O4 Na1 1_555 1_555
H7 O4 1_555 1_555
S1 C1 1_555 1_555
C1B C2B 1_555 1_555
C2B C3B 1_555 1_555
C3B H1B 1_555 1_555
C4B C3B 1_555 1_555
H2B C4B 1_555 1_555
C5B C4B 1_555 1_555
H3B C5B 1_555 1_555
C6B C1B 1_555 1_555
H4B C6B 1_555 1_555
Cl1B N1B 1_555 1_555
Cl2B C2B 1_555 1_555
N1B S1B 1_555 1_555
Na1B O1B 1_555 1_555
Na1B_2 O2 1_555 1_555
Na1C O2 1_555 1_555
Na1A O4 1_555 1_555
Na1C_2 O3C 1_555 1_555
O1B S1B 1_555 1_555
O2B Na1 1_555 1_555
O2C Na1 1_555 1_555
O2_2 Na1B 1_555 1_555
O2A Na1B 1_555 1_555
O3C Na1 1_555 1_555
O3B Na1B 1_555 1_555
O3A Na1B 1_555 1_555
H5C O3C 1_555 1_555
H5B O3B 1_555 1_555
H5A O3A 1_555 1_555
H6C O3C 1_555 1_555
H6B O3B 1_555 1_555
H6A O3A 1_555 1_555
O4B Na1B 1_555 1_555
H7A O4 1_555 1_555
H7B O4B 1_555 1_555
H7C O4B 1_555 1_555
S1B C1B 1_555 1_555
C5 C6 1_555 1_555
O3 Na1C 1_555 1_555
C5B C6B 1_555 1_555
Na1A O2B 1_555 1_555
Na1A O2C 1_555 1_555
Na1A O3B 1_555 1_555
O2B S1B 1_555 1_555

#END
