
#######################################################################
#
#                 Cambridge Crystallographic Data Centre
#                                CCDC 
#
#######################################################################
#
# If this CIF has been generated from an entry in the Cambridge 
# Structural Database, then it will include bibliographic, chemical, 
# crystal, experimental, refinement or atomic coordinate data resulting 
# from the CCDC's data processing and validation procedures.
#
#######################################################################

data_KUWCEL
_symmetry_cell_setting           monoclinic
_symmetry_space_group_name_H-M   'P 21/c'
_symmetry_Int_Tables_number      14
_space_group_name_Hall           '-P 2ybc'
loop_
_symmetry_equiv_pos_site_id
_symmetry_equiv_pos_as_xyz
1 x,y,z
2 -x,1/2+y,1/2-z
3 -x,-y,-z
4 x,1/2-y,1/2+z
_cell_length_a                   7.4288(3)
_cell_length_b                   28.8893(14)
_cell_length_c                   8.4783(3)
_cell_angle_alpha                90
_cell_angle_beta                 120.325(3)
_cell_angle_gamma                90
_cell_volume                     1570.59
loop_
_atom_site_label
_atom_site_type_symbol
_atom_site_fract_x
_atom_site_fract_y
_atom_site_fract_z
C1 C 0.2061(3) 0.62265(8) 0.3760(3)
H1 H 0.2559 0.6511 0.4332
C2 C -0.0069(3) 0.61385(9) 0.2894(3)
C3 C -0.0786(3) 0.57184(9) 0.2011(3)
H2 H -0.2199 0.5647 0.1436
C4 C 0.0605(4) 0.54043(9) 0.1986(4)
H3 H 0.0140 0.5125 0.1362
C5 C 0.2702(3) 0.55148(8) 0.2908(3)
C6 C -0.1509(3) 0.64882(8) 0.3020(3)
C7 C 0.4370(4) 0.52026(9) 0.2974(4)
C8 C 1.0760(4) 0.55504(9) 0.6522(4)
H4 H 1.0268 0.5362 0.5496
C9 C 1.2864(4) 0.58800(10) 0.9122(4)
H5 H 1.4056 0.5962 1.0208
C10 C 1.0928(4) 0.60496(10) 0.8475(4)
H6 H 1.0550 0.6272 0.9046
C11 C 0.7472(4) 0.69196(9) 0.6515(4)
H7 H 0.8040 0.6993 0.5788
C12 C 0.6428(5) 0.69839(11) 0.8479(5)
H8 H 0.6138 0.7104 0.9345
C13 C 0.5997(5) 0.65547(11) 0.7773(4)
H9 H 0.5356 0.6323 0.8076
N1 N 0.3416(3) 0.59159(7) 0.3798(3)
N2 N 0.9594(3) 0.58392(8) 0.6828(3)
N3 N 1.2737(3) 0.55644(8) 0.7879(3)
H10 H 1.3751 0.5403 0.7955
N4 N 0.6663(3) 0.65140(7) 0.6523(3)
N5 N 0.7370(4) 0.72078(8) 0.7680(3)
H11 H 0.7821 0.7488 0.7894
O1 O -0.0917(3) 0.68972(7) 0.3324(3)
O2 O -0.3190(2) 0.63357(6) 0.2832(3)
O3 O 0.6234(2) 0.53443(6) 0.3969(3)
O4 O 0.3851(3) 0.48415(7) 0.2076(3)
Cu1 Cu 0.65676(4) 0.594791(10) 0.51851(4)
O2_2 O 0.6810(2) 0.63357(6) 0.2832(3)
Cu1_2 Cu -0.34324(4) 0.594791(10) 0.51851(4)
O5 O 0.2143(6) 0.74249(12) 0.3180(6)
H12 H 0.132(8) 0.7265(19) 0.333(8)
H13 H 0.258(9) 0.7642(15) 0.394(7)
O6 O 0.3441(5) 0.69720(11) 0.1088(4)
H14 H 0.452(5) 0.6821(17) 0.170(5)
H15 H 0.317(8) 0.7129(17) 0.176(5)
loop_
_geom_bond_atom_site_label_1
_geom_bond_atom_site_label_2
_geom_bond_site_symmetry_1
_geom_bond_site_symmetry_2
C1 H1 1_555 1_555
C2 C1 1_555 1_555
C3 C2 1_555 1_555
H2 C3 1_555 1_555
C4 C3 1_555 1_555
H3 C4 1_555 1_555
C5 C4 1_555 1_555
C6 C2 1_555 1_555
C7 C5 1_555 1_555
C8 H4 1_555 1_555
C9 H5 1_555 1_555
C10 C9 1_555 1_555
H6 C10 1_555 1_555
C11 H7 1_555 1_555
C12 H8 1_555 1_555
C13 C12 1_555 1_555
H9 C13 1_555 1_555
N1 C1 1_555 1_555
N2 C8 1_555 1_555
N3 C8 1_555 1_555
H10 N3 1_555 1_555
N4 C11 1_555 1_555
N5 C11 1_555 1_555
H11 N5 1_555 1_555
O1 C6 1_555 1_555
O2 C6 1_555 1_555
O3 C7 1_555 1_555
O4 C7 1_555 1_555
Cu1 N1 1_555 1_555
O5 H12 1_555 1_555
H13 O5 1_555 1_555
O6 H14 1_555 1_555
H15 O6 1_555 1_555
O2_2 Cu1 1_555 1_555
Cu1_2 O2 1_555 1_555
C5 N1 1_555 1_555
C9 N3 1_555 1_555
C10 N2 1_555 1_555
C12 N5 1_555 1_555
C13 N4 1_555 1_555
N2 Cu1 1_555 1_555
N4 Cu1 1_555 1_555
O3 Cu1 1_555 1_555

#END
