
#######################################################################
#
#                 Cambridge Crystallographic Data Centre
#                                CCDC 
#
#######################################################################
#
# If this CIF has been generated from an entry in the Cambridge 
# Structural Database, then it will include bibliographic, chemical, 
# crystal, experimental, refinement or atomic coordinate data resulting 
# from the CCDC's data processing and validation procedures.
#
#######################################################################

data_KUWDIR
_symmetry_cell_setting           monoclinic
_symmetry_space_group_name_H-M   'P 21/c'
_symmetry_Int_Tables_number      14
_space_group_name_Hall           '-P 2ybc'
loop_
_symmetry_equiv_pos_site_id
_symmetry_equiv_pos_as_xyz
1 x,y,z
2 -x,1/2+y,1/2-z
3 -x,-y,-z
4 x,1/2-y,1/2+z
_cell_length_a                   12.018(2)
_cell_length_b                   16.358(3)
_cell_length_c                   15.613(3)
_cell_angle_alpha                90
_cell_angle_beta                 106.11(3)
_cell_angle_gamma                90
_cell_volume                     2948.83
loop_
_atom_site_label
_atom_site_type_symbol
_atom_site_fract_x
_atom_site_fract_y
_atom_site_fract_z
Mn1 Mn 0.39135(8) 0.88666(6) 0.28124(7)
Mn2 Mn 0.20405(8) 0.89889(6) -0.01046(7)
O1 O 0.2493(4) 0.8127(3) 0.2225(4)
O2 O 0.2070(4) 0.7999(3) 0.0741(4)
O3 O -0.1027(4) 0.5631(4) 0.3127(4)
O4 O 0.0584(4) 0.6249(3) 0.3839(3)
O5 O 0.0882(5) 0.9585(4) 0.0595(4)
H1 H 0.1182 0.9840 0.1078
H2 H 0.0155 0.9538 0.0506
O6 O 0.3316(4) 0.8318(3) -0.0665(3)
H3 H 0.3940 0.8495 -0.0754
H4 H 0.3719 0.7910 -0.0422
O7 O 0.2765(4) 0.9755(3) 0.3151(3)
H5 H 0.3188 1.0042 0.3571
H6 H 0.2268 1.0037 0.2772
N1 N 0.5462(4) 0.9724(3) 0.3245(4)
N2 N 0.4744(4) 0.8684(3) 0.4289(3)
N3 N 0.4572(4) 0.8221(3) 0.4981(4)
N4 N 0.6060(4) 0.9088(3) 0.5544(4)
N5 N 0.4145(4) 0.9567(3) 0.1615(4)
N6 N 0.3480(5) 0.9678(3) 0.0774(4)
N7 N 0.4866(5) 1.0631(4) 0.1041(4)
N8 N 0.6421(5) 0.8470(4) 0.7237(4)
N9 N 0.5056(5) 0.7210(3) 0.7590(4)
N10 N 0.2408(5) 1.0193(4) -0.0878(4)
N11 N 0.3012(6) 1.1613(5) -0.1588(5)
C1 C 0.5776(6) 1.0213(4) 0.2652(5)
C2 C 0.6724(6) 1.0715(5) 0.2894(5)
H7 H 0.6917 1.1059 0.2482
C3 C 0.7382(7) 1.0692(5) 0.3771(6)
H8 H 0.8058 1.1000 0.3946
C4 C 0.7055(7) 1.0220(5) 0.4396(5)
H9 H 0.7477 1.0230 0.4993
C5 C 0.6078(6) 0.9730(4) 0.4105(4)
C6 C 0.5621(5) 0.9187(4) 0.4664(4)
C7 C 0.5356(5) 0.8484(4) 0.5699(5)
C8 C 0.4956(5) 1.0145(4) 0.1766(4)
C9 C 0.3923(6) 1.0318(4) 0.0450(5)
C10 C 0.3336(6) 1.0624(4) -0.0424(5)
C11 C 0.3610(6) 1.1335(5) -0.0783(5)
H10 H 0.4238 1.1638 -0.0454
C12 C 0.5538(5) 0.8160(4) 0.6607(5)
C13 C 0.4849(6) 0.7548(4) 0.6786(4)
H11 H 0.4220 0.7366 0.6332
C14 C 0.6627(6) 0.8118(5) 0.8031(5)
H12 H 0.7257 0.8297 0.8486
C15 C 0.5956(6) 0.7505(5) 0.8213(5)
H13 H 0.6133 0.7289 0.8787
C16 C 0.2103(8) 1.1190(6) -0.2019(6)
H14 H 0.1646 1.1376 -0.2567
C17 C 0.1812(7) 1.0465(5) -0.1667(6)
H15 H 0.1181 1.0165 -0.1996
C18 C 0.1851(6) 0.7890(4) 0.1489(5)
C19 C -0.0219(6) 0.6120(4) 0.3158(5)
C20 C 0.0763(5) 0.7030(4) 0.2295(4)
H16 H 0.1376 0.7085 0.2808
C21 C -0.0202(6) 0.6574(4) 0.2311(5)
C22 C -0.1129(7) 0.6534(5) 0.1560(5)
H17 H -0.1784 0.6238 0.1573
C23 C -0.1092(7) 0.6928(6) 0.0792(5)
H18 H -0.1723 0.6906 0.0288
C24 C -0.0118(6) 0.7355(5) 0.0777(5)
H19 H -0.0092 0.7615 0.0253
C25 C 0.0809(6) 0.7408(4) 0.1503(5)
Mn1C Mn 0.39135(8) 0.61334(6) 0.78124(7)
Mn2C Mn 0.20405(8) 0.60111(6) 0.48954(7)
O4C O 0.0584(4) 0.8751(3) -0.1161(3)
N9C N 0.5056(5) 0.7790(3) 0.2590(4)
O8 O 0.0361(14) 0.9124(12) 0.3965(11)
H20 H -0.0090 0.9532 0.3921
H21 H 0.0801 0.9184 0.3628
loop_
_geom_bond_atom_site_label_1
_geom_bond_atom_site_label_2
_geom_bond_site_symmetry_1
_geom_bond_site_symmetry_2
Mn1 O1 1_555 1_555
Mn2 O2 1_555 1_555
O1 C18 1_555 1_555
O2 C18 1_555 1_555
O3 C19 1_555 1_555
O4 C19 1_555 1_555
O5 Mn2 1_555 1_555
H1 O5 1_555 1_555
H2 O5 1_555 1_555
O6 Mn2 1_555 1_555
H3 O6 1_555 1_555
H4 O6 1_555 1_555
O7 Mn1 1_555 1_555
H5 O7 1_555 1_555
H6 O7 1_555 1_555
N1 Mn1 1_555 1_555
N2 Mn1 1_555 1_555
N3 N2 1_555 1_555
N4 C6 1_555 1_555
N5 Mn1 1_555 1_555
N6 Mn2 1_555 1_555
N7 C8 1_555 1_555
N8 C12 1_555 1_555
N9 C13 1_555 1_555
N10 Mn2 1_555 1_555
N11 C11 1_555 1_555
C1 N1 1_555 1_555
C2 C1 1_555 1_555
H7 C2 1_555 1_555
C3 C2 1_555 1_555
H8 C3 1_555 1_555
C4 C3 1_555 1_555
H9 C4 1_555 1_555
C5 N1 1_555 1_555
C6 N2 1_555 1_555
C7 N3 1_555 1_555
C8 N5 1_555 1_555
C9 N6 1_555 1_555
C10 N10 1_555 1_555
C11 C10 1_555 1_555
H10 C11 1_555 1_555
C12 C7 1_555 1_555
C13 C12 1_555 1_555
H11 C13 1_555 1_555
C14 N8 1_555 1_555
H12 C14 1_555 1_555
C15 N9 1_555 1_555
H13 C15 1_555 1_555
C16 N11 1_555 1_555
H14 C16 1_555 1_555
C17 N10 1_555 1_555
H15 C17 1_555 1_555
C18 C25 1_555 1_555
C19 C21 1_555 1_555
C20 H16 1_555 1_555
C21 C20 1_555 1_555
C22 C21 1_555 1_555
H17 C22 1_555 1_555
C23 C22 1_555 1_555
H18 C23 1_555 1_555
C24 C23 1_555 1_555
H19 C24 1_555 1_555
C25 C20 1_555 1_555
O8 H20 1_555 1_555
H21 O8 1_555 1_555
Mn1C N9 1_555 1_555
Mn2C O4 1_555 1_555
O4C Mn2 1_555 1_555
N9C Mn1 1_555 1_555
N4 C7 1_555 1_555
N5 N6 1_555 1_555
N7 C9 1_555 1_555
C1 C8 1_555 1_555
C4 C5 1_555 1_555
C5 C6 1_555 1_555
C9 C10 1_555 1_555
C14 C15 1_555 1_555
C16 C17 1_555 1_555
C24 C25 1_555 1_555

#END
