
#######################################################################
#
#                 Cambridge Crystallographic Data Centre
#                                CCDC 
#
#######################################################################
#
# If this CIF has been generated from an entry in the Cambridge 
# Structural Database, then it will include bibliographic, chemical, 
# crystal, experimental, refinement or atomic coordinate data resulting 
# from the CCDC's data processing and validation procedures.
#
#######################################################################

data_KUWGAM
_symmetry_cell_setting           cubic
_symmetry_space_group_name_H-M   'P 21 3'
_symmetry_Int_Tables_number      198
_space_group_name_Hall           'P 2ac 2ab 3'
loop_
_symmetry_equiv_pos_site_id
_symmetry_equiv_pos_as_xyz
1 x,y,z
2 1/2-x,-y,1/2+z
3 -x,1/2+y,1/2-z
4 1/2+x,1/2-y,-z
5 z,x,y
6 1/2+z,1/2-x,-y
7 1/2-z,-x,1/2+y
8 -z,1/2+x,1/2-y
9 y,z,x
10 -y,1/2+z,1/2-x
11 1/2+y,1/2-z,-x
12 1/2-y,-z,1/2+x
_cell_length_a                   14.6382(4)
_cell_length_b                   14.6382(4)
_cell_length_c                   14.6382(4)
_cell_angle_alpha                90
_cell_angle_beta                 90
_cell_angle_gamma                90
_cell_volume                     3136.63
loop_
_atom_site_label
_atom_site_type_symbol
_atom_site_fract_x
_atom_site_fract_y
_atom_site_fract_z
Zn1 Zn 0.04658(4) 0.04658(4) 0.04658(4)
Ni1 Ni 0.19577(4) 0.19577(4) 0.19577(4)
N1 N 0.1827(3) 0.1997(3) 0.3372(3)
N2 N 0.2019(3) 0.1791(3) 0.4858(3)
O1 O 0.2085(2) 0.1861(2) 0.0525(2)
O2 O 0.1647(2) 0.0547(2) -0.0129(2)
Br1 Br -0.04648(5) -0.04648(5) -0.04648(5)
C1 C 0.2167(3) 0.1231(3) -0.0040(3)
C2 C 0.2948(3) 0.1282(3) -0.0710(3)
C3 C 0.3017(3) 0.0651(3) -0.1415(3)
H1 H 0.2589 0.0183 -0.1461
C4 C 0.2387(4) 0.1726(4) 0.4018(4)
H2 H 0.2975 0.1512 0.3907
C5 C 0.1064(4) 0.2276(5) 0.3824(4)
H3 H 0.0543 0.2513 0.3549
C6 C 0.1177(5) 0.2156(5) 0.4733(4)
H4 H 0.0756 0.2298 0.5188
C7 C 0.2415(4) 0.1480(4) 0.5721(3)
H5 H 0.3062 0.1366 0.5634
H6 H 0.2130 0.0908 0.5896
C8 C 0.2291(4) 0.2170(3) 0.6485(3)
C9 C 0.1573(4) 0.2090(3) 0.7111(3)
C10 C 0.0849(5) 0.1345(4) 0.7009(5)
H7 H 0.1009 0.0951 0.6509
H8 H 0.0266 0.1621 0.6891
H9 H 0.0817 0.0994 0.7562
N1E N -0.1628(3) 0.3173(3) 0.8003(3)
N2E N -0.0142(3) 0.2981(3) 0.8209(3)
C4E C -0.0982(4) 0.2613(4) 0.8274(4)
H2E H -0.1093 0.2025 0.8488
C5E C -0.1176(4) 0.3936(4) 0.7724(5)
H3E H -0.1451 0.4457 0.7487
C6E C -0.0267(4) 0.3823(5) 0.7844(5)
H4E H 0.0188 0.4244 0.7702
C7E C 0.0721(3) 0.2585(4) 0.8520(4)
H5E H 0.0634 0.1938 0.8634
H6E H 0.0896 0.2870 0.9092
C8E C 0.1485(3) 0.2709(4) 0.7830(3)
C9E C 0.2111(3) 0.3427(4) 0.7910(3)
C10E C 0.2009(5) 0.4151(5) 0.8655(4)
H7E H 0.1509 0.3991 0.9049
H8E H 0.1891 0.4734 0.8379
H9E H 0.2562 0.4183 0.9006
N1K N 0.3003(3) 0.6628(3) 0.6827(3)
N2K N 0.3209(3) 0.5142(3) 0.7019(3)
C4K C 0.3274(4) 0.5982(4) 0.7387(4)
H2K H 0.3488 0.6093 0.7975
C5K C 0.2724(5) 0.6176(4) 0.6064(4)
H3K H 0.2487 0.6451 0.5543
C6K C 0.2844(5) 0.5267(4) 0.6177(5)
H4K H 0.2702 0.4812 0.5756
C7K C 0.3520(4) 0.4279(3) 0.7415(4)
H5K H 0.3634 0.4366 0.8062
H6K H 0.4092 0.4104 0.7130
C8K C 0.2830(3) 0.3515(3) 0.7291(4)
C9K C 0.2910(3) 0.2889(3) 0.6573(4)
C10K C 0.3655(4) 0.2991(5) 0.5849(5)
H7K H 0.4049 0.3491 0.6009
H8K H 0.3379 0.3109 0.5266
H9K H 0.4006 0.2438 0.5817
O1E O 0.5525(2) 0.2915(2) -0.1861(2)
O2E O 0.4871(2) 0.3353(2) -0.0547(2)
C1E C 0.4960(3) 0.2833(3) -0.1231(3)
C2E C 0.4290(3) 0.2052(3) -0.1282(3)
C3E C 0.3585(3) 0.1983(3) -0.0651(3)
H1E H 0.3539 0.2411 -0.0183
O1K O 0.3139(2) -0.0525(2) -0.2915(2)
O2K O 0.4453(2) 0.0129(2) -0.3353(2)
C1K C 0.3769(3) 0.0040(3) -0.2833(3)
C2K C 0.3718(3) 0.0710(3) -0.2052(3)
C3K C 0.4349(3) 0.1415(3) -0.1983(3)
H1K H 0.4817 0.1461 -0.2411
Zn1A Zn 0.45342(4) -0.04658(4) -0.45342(4)
Zn1C Zn 0.54658(4) 0.45342(4) -0.04658(4)
Ni1A Ni 0.30423(4) -0.19577(4) -0.30423(4)
Ni1A_2 Ni 0.30423(4) 0.80423(4) 0.69577(4)
Ni1C Ni -0.30423(4) 0.30423(4) 0.80423(4)
Ni1C_2 Ni 0.69577(4) 0.30423(4) -0.19577(4)
N1D N 0.3372(3) 0.1827(3) 0.1997(3)
N1H N 0.1997(3) 0.3372(3) 0.1827(3)
O1D O 0.0525(2) 0.2085(2) 0.1861(2)
O1H O 0.1861(2) 0.0525(2) 0.2085(2)
O2D O -0.0129(2) 0.1647(2) 0.0547(2)
O2H O 0.0547(2) -0.0129(2) 0.1647(2)
loop_
_geom_bond_atom_site_label_1
_geom_bond_atom_site_label_2
_geom_bond_site_symmetry_1
_geom_bond_site_symmetry_2
Zn1 O2 1_555 1_555
Ni1 N1 1_555 1_555
N1 C4 1_555 1_555
N2 C4 1_555 1_555
O1 Ni1 1_555 1_555
O2 C1 1_555 1_555
Br1 Zn1 1_555 1_555
C1 O1 1_555 1_555
C2 C1 1_555 1_555
C3 C2 1_555 1_555
H1 C3 1_555 1_555
C4 H2 1_555 1_555
C5 N1 1_555 1_555
H3 C5 1_555 1_555
C6 N2 1_555 1_555
H4 C6 1_555 1_555
C7 N2 1_555 1_555
H5 C7 1_555 1_555
H6 C7 1_555 1_555
C8 C7 1_555 1_555
C9 C8 1_555 1_555
C10 C9 1_555 1_555
H7 C10 1_555 1_555
H8 C10 1_555 1_555
H9 C10 1_555 1_555
N1E C4E 1_555 1_555
N2E C4E 1_555 1_555
C4E H2E 1_555 1_555
C5E N1E 1_555 1_555
H3E C5E 1_555 1_555
C6E N2E 1_555 1_555
H4E C6E 1_555 1_555
C7E N2E 1_555 1_555
H5E C7E 1_555 1_555
H6E C7E 1_555 1_555
C8E C9 1_555 1_555
C9E C8E 1_555 1_555
C10E C9E 1_555 1_555
H7E C10E 1_555 1_555
H8E C10E 1_555 1_555
H9E C10E 1_555 1_555
N1K C4K 1_555 1_555
N2K C4K 1_555 1_555
C4K H2K 1_555 1_555
C5K N1K 1_555 1_555
H3K C5K 1_555 1_555
C6K N2K 1_555 1_555
H4K C6K 1_555 1_555
C7K N2K 1_555 1_555
H5K C7K 1_555 1_555
H6K C7K 1_555 1_555
C8K C9E 1_555 1_555
C9K C8 1_555 1_555
C10K C9K 1_555 1_555
H7K C10K 1_555 1_555
H8K C10K 1_555 1_555
H9K C10K 1_555 1_555
O1E C1E 1_555 1_555
O2E C1E 1_555 1_555
C1E C2E 1_555 1_555
C2E C3E 1_555 1_555
C3E C2 1_555 1_555
H1E C3E 1_555 1_555
O1K C1K 1_555 1_555
O2K C1K 1_555 1_555
C1K C2K 1_555 1_555
C2K C3 1_555 1_555
C3K C2E 1_555 1_555
H1K C3K 1_555 1_555
Zn1A O2K 1_555 1_555
Zn1C O2E 1_555 1_555
Ni1A O1K 1_555 1_555
Ni1A_2 N1K 1_555 1_555
Ni1C N1E 1_555 1_555
Ni1C_2 O1E 1_555 1_555
N1D Ni1 1_555 1_555
N1H Ni1 1_555 1_555
O1D Ni1 1_555 1_555
O1H Ni1 1_555 1_555
O2D Zn1 1_555 1_555
O2H Zn1 1_555 1_555
C5 C6 1_555 1_555
C5E C6E 1_555 1_555
C7E C8E 1_555 1_555
C5K C6K 1_555 1_555
C7K C8K 1_555 1_555
C8K C9K 1_555 1_555
C2K C3K 1_555 1_555

#END
