
#######################################################################
#
#                 Cambridge Crystallographic Data Centre
#                                CCDC 
#
#######################################################################
#
# If this CIF has been generated from an entry in the Cambridge 
# Structural Database, then it will include bibliographic, chemical, 
# crystal, experimental, refinement or atomic coordinate data resulting 
# from the CCDC's data processing and validation procedures.
#
#######################################################################

data_KUWVII
_symmetry_cell_setting           tetragonal
_symmetry_space_group_name_H-M   'I 41/a'
_symmetry_Int_Tables_number      88
_space_group_name_Hall           '-I 4ad'
loop_
_symmetry_equiv_pos_site_id
_symmetry_equiv_pos_as_xyz
1 x,y,z
2 1/2-x,-y,1/2+z
3 3/4-y,1/4+x,1/4+z
4 3/4+y,3/4-x,3/4+z
5 1/2+x,1/2+y,1/2+z
6 -x,1/2-y,z
7 1/4-y,3/4+x,3/4+z
8 1/4+y,1/4-x,1/4+z
9 -x,-y,-z
10 1/2+x,y,1/2-z
11 1/4+y,3/4-x,3/4-z
12 1/4-y,1/4+x,1/4-z
13 1/2-x,1/2-y,1/2-z
14 x,1/2+y,-z
15 3/4+y,1/4-x,1/4-z
16 3/4-y,3/4+x,3/4-z
_cell_length_a                   15.5200(17)
_cell_length_b                   15.5200(17)
_cell_length_c                   18.476(4)
_cell_angle_alpha                90
_cell_angle_beta                 90
_cell_angle_gamma                90
_cell_volume                     4450.32
loop_
_atom_site_label
_atom_site_type_symbol
_atom_site_fract_x
_atom_site_fract_y
_atom_site_fract_z
Ni1 Ni 0.0000 0.7500 0.10490(3)
S1 S 0.24423(8) 0.60700(8) 0.02576(7)
N1 N -0.06727(19) 0.6779(2) 0.02445(15)
N2 N 0.0969(2) 0.6566(2) 0.10086(18)
C1 C -0.2044(2) 0.6331(2) -0.02368(19)
C2 C -0.1532(2) 0.6716(2) 0.02890(19)
H1 H -0.1803 0.6945 0.0695
C3 C -0.1633(2) 0.5993(3) -0.08422(18)
H2 H -0.1951 0.5745 -0.1215
C4 C -0.0286(2) 0.6438(3) -0.03352(19)
H3 H 0.0311 0.6475 -0.0373
C5 C 0.1584(2) 0.6345(2) 0.07066(19)
C6 C -0.0744(3) 0.6030(3) -0.0882(2)
H4 H -0.0456 0.5785 -0.1272
N3 N -0.4345(2) 0.6809(2) -0.06459(16)
C7 C -0.3487(2) 0.6763(2) -0.06697(19)
H5 H -0.3204 0.7031 -0.1053
C8 C -0.2990(2) 0.6338(2) -0.01549(19)
C9 C -0.4741(3) 0.6437(3) -0.0092(2)
H6 H -0.5339 0.6468 -0.0066
C10 C -0.3414(3) 0.5964(3) 0.0414(2)
H7 H -0.3106 0.5685 0.0777
C11 C -0.4303(3) 0.6003(3) 0.0446(2)
H8 H -0.4600 0.5742 0.0824
Ni1C Ni -0.5000 0.7500 -0.14510(3)
Ni1C_2 Ni 0.5000 0.7500 -0.14510(3)
S1E S -0.24423(8) 0.89300(8) 0.02576(7)
N1E N 0.06727(19) 0.8221(2) 0.02445(15)
N2E N -0.0969(2) 0.8434(2) 0.10086(18)
C1E C 0.2044(2) 0.8669(2) -0.02368(19)
C2E C 0.1532(2) 0.8284(2) 0.02890(19)
H1E H 0.1803 0.8055 0.0695
C3E C 0.1633(2) 0.9007(3) -0.08422(18)
H2E H 0.1951 0.9255 -0.1215
C4E C 0.0286(2) 0.8562(3) -0.03352(19)
H3E H -0.0311 0.8525 -0.0373
C5E C -0.1584(2) 0.8655(2) 0.07066(19)
C6E C 0.0744(3) 0.8970(3) -0.0882(2)
H4E H 0.0456 0.9215 -0.1272
N3E N 0.4345(2) 0.8191(2) -0.06459(16)
N3B N 0.0691(2) 0.8155(2) 0.18541(16)
N3G N -0.0691(2) 0.6845(2) 0.18541(16)
C7E C 0.3487(2) 0.8237(2) -0.06697(19)
H5E H 0.3204 0.7969 -0.1053
C8E C 0.2990(2) 0.8662(2) -0.01549(19)
C9E C 0.4741(3) 0.8563(3) -0.0092(2)
H6E H 0.5339 0.8532 -0.0066
C10E C 0.3414(3) 0.9036(3) 0.0414(2)
H7E H 0.3106 0.9315 0.0777
C11E C 0.4303(3) 0.8997(3) 0.0446(2)
H8E H 0.4600 0.9258 0.0824
loop_
_geom_bond_atom_site_label_1
_geom_bond_atom_site_label_2
_geom_bond_site_symmetry_1
_geom_bond_site_symmetry_2
Ni1 N1 1_555 1_555
S1 C5 1_555 1_555
N1 C2 1_555 1_555
N2 Ni1 1_555 1_555
C1 C2 1_555 1_555
C2 H1 1_555 1_555
C3 C1 1_555 1_555
H2 C3 1_555 1_555
C4 N1 1_555 1_555
H3 C4 1_555 1_555
C5 N2 1_555 1_555
C6 C3 1_555 1_555
H4 C6 1_555 1_555
N3 C7 1_555 1_555
C7 H5 1_555 1_555
C8 C1 1_555 1_555
C9 N3 1_555 1_555
H6 C9 1_555 1_555
C10 C8 1_555 1_555
H7 C10 1_555 1_555
C11 C9 1_555 1_555
H8 C11 1_555 1_555
Ni1C N3 1_555 1_555
Ni1C_2 N3E 1_555 1_555
S1E C5E 1_555 1_555
N1E Ni1 1_555 1_555
N2E Ni1 1_555 1_555
C1E C2E 1_555 1_555
C2E N1E 1_555 1_555
H1E C2E 1_555 1_555
C3E C1E 1_555 1_555
H2E C3E 1_555 1_555
C4E N1E 1_555 1_555
H3E C4E 1_555 1_555
C5E N2E 1_555 1_555
C6E C3E 1_555 1_555
H4E C6E 1_555 1_555
N3E C7E 1_555 1_555
N3B Ni1 1_555 1_555
N3G Ni1 1_555 1_555
C7E H5E 1_555 1_555
C8E C1E 1_555 1_555
C9E N3E 1_555 1_555
H6E C9E 1_555 1_555
C10E C8E 1_555 1_555
H7E C10E 1_555 1_555
C11E C9E 1_555 1_555
H8E C11E 1_555 1_555
C4 C6 1_555 1_555
C7 C8 1_555 1_555
C10 C11 1_555 1_555
C4E C6E 1_555 1_555
C7E C8E 1_555 1_555
C10E C11E 1_555 1_555

#END
