
#######################################################################
#
#                 Cambridge Crystallographic Data Centre
#                                CCDC 
#
#######################################################################
#
# If this CIF has been generated from an entry in the Cambridge 
# Structural Database, then it will include bibliographic, chemical, 
# crystal, experimental, refinement or atomic coordinate data resulting 
# from the CCDC's data processing and validation procedures.
#
#######################################################################

data_KUXDEO
_symmetry_cell_setting           triclinic
_symmetry_space_group_name_H-M   'P -1'
_symmetry_Int_Tables_number      2
_space_group_name_Hall           '-P 1'
loop_
_symmetry_equiv_pos_site_id
_symmetry_equiv_pos_as_xyz
1 x,y,z
2 -x,-y,-z
_cell_length_a                   8.1102(5)
_cell_length_b                   11.5366(7)
_cell_length_c                   18.1148(11)
_cell_angle_alpha                79.9990(10)
_cell_angle_beta                 83.7790(10)
_cell_angle_gamma                82.9780(10)
_cell_volume                     1650.03
loop_
_atom_site_label
_atom_site_type_symbol
_atom_site_fract_x
_atom_site_fract_y
_atom_site_fract_z
Gd1 Gd 0.32080(3) -0.707681(19) 0.773725(12)
Cu1 Cu 0.22430(6) -0.65716(4) 0.58203(3)
O1 O 0.1785(5) -0.8156(3) 0.88503(19)
H1 H 0.2250 -0.8820 0.9050
H2 H 0.2312 -0.7619 0.8953
O2 O 0.3375(5) -0.5146(3) 0.69761(19)
N1 N 0.5740(5) -0.0959(3) 0.7044(2)
C1 C 0.3410(5) -0.4641(4) 0.6316(3)
S1 S 0.45637(15) -0.29825(10) 0.69721(6)
Cu2 Cu 0.47971(8) -0.08955(5) 0.80613(3)
C2 C 0.4029(7) -0.3420(4) 0.6134(3)
H3 H 0.3166 -0.2849 0.5913
H4 H 0.4999 -0.3437 0.5771
N2 N 0.6571(5) -0.0009(3) 0.6671(2)
O3 O 0.1475(5) -0.6155(3) 0.4640(2)
H5 H 0.1225 -0.6552 0.4412
H6 H 0.1160 -0.5626 0.4489
O4 O 0.2980(4) -0.5008(3) 0.57570(19)
S2 S 0.61908(16) -0.12667(10) 0.56757(6)
S3 S 0.78000(14) 0.10095(10) 0.52980(6)
C3 C 0.5484(5) -0.1699(4) 0.6607(2)
O5 O 0.5297(4) 0.2785(3) 0.67084(18)
N3 N 0.0068(5) -1.2364(4) 0.6869(2)
N4 N -0.0793(5) -1.3356(4) 0.6968(2)
O6 O 0.4559(4) 0.2740(3) 0.55680(18)
C4 C 0.6861(5) -0.0056(4) 0.5962(2)
S4 S 0.12194(15) -1.08055(11) 0.75965(7)
C5 C 0.7420(5) 0.2252(4) 0.5804(3)
H7 H 0.8029 0.2061 0.6250
H8 H 0.7871 0.2929 0.5489
O7 O 0.2410(5) -0.8610(3) 0.7128(2)
N5 N 0.6628(5) -0.9528(3) 1.0490(2)
S5 S -0.07160(19) -1.28538(12) 0.82855(7)
O8 O 0.1563(4) -0.8164(3) 0.59724(19)
N6 N 0.6270(5) -0.8663(4) 1.0940(2)
C6 C 0.5602(5) 0.2606(4) 0.6047(2)
S6 S -0.23203(16) -1.49482(11) 0.80097(7)
O9 O 0.0507(4) -1.6488(3) 0.7384(2)
C7 C 0.1800(5) -0.8848(4) 0.6586(3)
S7 S 0.80503(18) -1.00747(11) 0.91892(7)
O10 O -0.0038(4) -1.5935(3) 0.61973(19)
C8 C 0.1314(6) -1.0084(4) 0.6626(3)
H9 H 0.2130 -1.0530 0.6323
H10 H 0.0236 -1.0045 0.6432
S8 S 0.77294(19) -0.76584(11) 0.97280(7)
O11 O 0.5014(4) -0.9012(3) 0.81235(18)
C9 C 0.0210(6) -1.2016(4) 0.7497(3)
S9 S 0.64301(18) -0.63989(11) 1.10614(7)
O12 O 0.5890(4) -0.7350(3) 0.82796(19)
C10 C -0.1257(6) -1.3706(4) 0.7671(3)
O13 O 0.7215(5) -0.4261(3) 1.13850(19)
C11 C -0.2164(5) -1.5525(4) 0.7147(3)
H11 H -0.2883 -1.6154 0.7206
H12 H -0.2565 -1.4903 0.6755
O14 O 0.8479(6) -0.3498(3) 1.0285(2)
C12 C -0.0415(5) -1.6002(4) 0.6899(3)
C13 C 0.6160(6) -0.8432(4) 0.8240(2)
C14 C 0.7906(6) -0.9039(5) 0.8323(3)
H13 H 0.8664 -0.8446 0.8308
H14 H 0.8252 -0.9456 0.7902
C15 C 0.7380(6) -0.9130(4) 0.9843(2)
C16 C 0.6765(6) -0.7639(4) 1.0619(2)
C17 C 0.7595(8) -0.5379(4) 1.0381(3)
H15 H 0.7021 -0.5158 0.9926
H16 H 0.8693 -0.5763 1.0249
C18 C 0.7762(7) -0.4276(4) 1.0711(3)
Gd1_2 Gd 0.32080(3) -1.707681(19) 0.773725(12)
Gd1_3 Gd 0.32080(3) 0.292319(19) 0.773725(12)
Gd1A Gd 0.67920(3) -0.292319(19) 1.226275(12)
Cu1_2 Cu 0.22430(6) -1.65716(4) 0.58203(3)
Cu1_3 Cu 0.22430(6) 0.34284(4) 0.58203(3)
Cu2_2 Cu 0.47971(8) -1.08955(5) 0.80613(3)
Cu2A Cu 0.52029(8) -0.91045(5) 1.19387(3)
O5_2 O 0.5297(4) -0.7215(3) 0.67084(18)
O6_2 O 0.4559(4) -0.7260(3) 0.55680(18)
N6A N 0.3730(5) -0.1337(4) 0.9060(2)
O9_2 O 0.0507(4) -0.6488(3) 0.7384(2)
O10_2 O -0.0038(4) -0.5935(3) 0.61973(19)
O11_2 O 0.5014(4) 0.0988(3) 0.81235(18)
O13A O 0.2785(5) -0.5739(3) 0.86150(19)
loop_
_geom_bond_atom_site_label_1
_geom_bond_atom_site_label_2
_geom_bond_site_symmetry_1
_geom_bond_site_symmetry_2
Gd1 O1 1_555 1_555
Cu1 O3 1_555 1_555
O1 H1 1_555 1_555
H2 O1 1_555 1_555
O2 Gd1 1_555 1_555
N1 Cu2 1_555 1_555
C1 O2 1_555 1_555
S1 C2 1_555 1_555
Cu2 N6A 1_555 1_555
C2 C1 1_555 1_555
H3 C2 1_555 1_555
H4 C2 1_555 1_555
N2 N1 1_555 1_555
O3 H5 1_555 1_555
H6 O3 1_555 1_555
O4 Cu1 1_555 1_555
S2 C3 1_555 1_555
S3 C4 1_555 1_555
C3 N1 1_555 1_555
O5 C6 1_555 1_555
N3 N4 1_555 1_555
N4 C10 1_555 1_555
O6 C6 1_555 1_555
C4 N2 1_555 1_555
S4 C8 1_555 1_555
C5 S3 1_555 1_555
H7 C5 1_555 1_555
H8 C5 1_555 1_555
O7 Gd1 1_555 1_555
N5 N6 1_555 1_555
S5 C9 1_555 1_555
O8 Cu1 1_555 1_555
N6 C16 1_555 1_555
C6 C5 1_555 1_555
S6 C10 1_555 1_555
O9 C12 1_555 1_555
C7 O7 1_555 1_555
S7 C14 1_555 1_555
O10 C12 1_555 1_555
C8 C7 1_555 1_555
H9 C8 1_555 1_555
H10 C8 1_555 1_555
S8 C15 1_555 1_555
O11 Gd1 1_555 1_555
C9 N3 1_555 1_555
S9 C16 1_555 1_555
O12 Gd1 1_555 1_555
C10 S5 1_555 1_555
O13 C18 1_555 1_555
C11 S6 1_555 1_555
H11 C11 1_555 1_555
H12 C11 1_555 1_555
O14 C18 1_555 1_555
C12 C11 1_555 1_555
C13 O11 1_555 1_555
C14 C13 1_555 1_555
H13 C14 1_555 1_555
H14 C14 1_555 1_555
C15 N5 1_555 1_555
C16 S8 1_555 1_555
C17 S9 1_555 1_555
H15 C17 1_555 1_555
H16 C17 1_555 1_555
C18 C17 1_555 1_555
Gd1_2 O9 1_555 1_555
Gd1_3 O5 1_555 1_555
Gd1A O13 1_555 1_555
Cu1_2 O10 1_555 1_555
Cu1_3 O6 1_555 1_555
Cu2_2 O11 1_555 1_555
Cu2A N6 1_555 1_555
O5_2 Gd1 1_555 1_555
O6_2 Cu1 1_555 1_555
O9_2 Gd1 1_555 1_555
O10_2 Cu1 1_555 1_555
O11_2 Cu2 1_555 1_555
O13A Gd1 1_555 1_555
C1 O4 1_555 1_555
S1 C3 1_555 1_555
S2 C4 1_555 1_555
S4 C9 1_555 1_555
O8 C7 1_555 1_555
S7 C15 1_555 1_555
O12 C13 1_555 1_555
Gd1_3 O11_2 1_555 1_555

#END
