
#######################################################################
#
#                 Cambridge Crystallographic Data Centre
#                                CCDC 
#
#######################################################################
#
# If this CIF has been generated from an entry in the Cambridge 
# Structural Database, then it will include bibliographic, chemical, 
# crystal, experimental, refinement or atomic coordinate data resulting 
# from the CCDC's data processing and validation procedures.
#
#######################################################################

data_KUXDAK
_symmetry_cell_setting           triclinic
_symmetry_space_group_name_H-M   'P -1'
_symmetry_Int_Tables_number      2
_space_group_name_Hall           '-P 1'
loop_
_symmetry_equiv_pos_site_id
_symmetry_equiv_pos_as_xyz
1 x,y,z
2 -x,-y,-z
_cell_length_a                   8.1074(5)
_cell_length_b                   11.5236(7)
_cell_length_c                   18.0939(11)
_cell_angle_alpha                80.0150(10)
_cell_angle_beta                 83.8720(10)
_cell_angle_gamma                82.9300(10)
_cell_volume                     1645.86
loop_
_atom_site_label
_atom_site_type_symbol
_atom_site_fract_x
_atom_site_fract_y
_atom_site_fract_z
Eu1 Eu 0.82153(2) -0.207877(15) 0.273445(10)
O1 O 0.5530(4) -0.1478(3) 0.23901(17)
N1 N 0.4217(4) 0.1642(3) 0.1977(2)
C1 C 0.4593(5) -0.1000(3) 0.1900(2)
S1 S 0.26862(13) 0.00502(9) 0.30145(6)
Cu1 Cu 0.72451(5) -0.15718(4) 0.08211(2)
O2 O 0.6797(4) -0.3149(2) 0.38380(16)
H1 H 0.7262 -0.3803 0.3902
H2 H 0.6737 -0.2944 0.4276
N2 N 0.5069(4) 0.2635(3) 0.18712(19)
C2 C 0.2844(5) -0.0524(3) 0.2150(2)
H3 H 0.2126 -0.1153 0.2209
H4 H 0.2440 0.0100 0.1759
O3 O 0.4968(3) -0.0940(2) 0.11993(15)
S2 S 0.42852(15) 0.21483(10) 0.32904(6)
Cu2 Cu 0.98084(7) 0.41024(4) 0.30621(3)
O4 O 0.6457(4) -0.1147(3) -0.03564(17)
H5 H 0.6424 -0.1622 -0.0681
H6 H 0.6054 -0.0769 -0.0751
O5 O 0.7410(4) 0.6403(2) 0.21354(17)
C3 C 0.3749(5) 0.1281(3) 0.2678(2)
N3 N 1.0757(4) 0.4041(3) 0.20483(17)
S3 S 0.62204(13) 0.41942(9) 0.26016(6)
O6 O 0.6571(3) 0.6831(2) 0.09745(16)
N4 N 1.1587(4) 0.4984(3) 0.16728(18)
C4 C 0.5220(5) 0.2984(3) 0.2502(2)
S4 S 0.95725(13) 0.20157(8) 0.19750(5)
O7 O 0.8401(4) -0.0160(2) 0.19782(16)
N5 N 0.8735(4) 0.3653(3) 0.40593(18)
C5 C 0.6313(5) 0.4915(3) 0.1633(2)
H7 H 0.7123 0.4465 0.1329
H8 H 0.5233 0.4958 0.1440
S5 S 1.11941(13) 0.37303(8) 0.06755(5)
S6 S 1.28061(12) 0.60118(8) 0.02983(5)
O8 O 0.7982(4) -0.0008(2) 0.07601(15)
N6 N 0.8370(5) 0.4523(3) 0.45109(18)
C6 C 0.6810(4) 0.6155(3) 0.1589(2)
O9 O 1.0292(3) 0.7770(2) 0.17140(15)
C7 C 0.8419(5) 0.0361(3) 0.1318(2)
S7 S 0.85785(15) 0.13937(9) 0.39383(6)
O10 O 0.9555(3) 0.7742(2) 0.05687(15)
C8 C 0.9036(6) 0.1570(3) 0.1133(2)
H9 H 0.8175 0.2142 0.0909
H10 H 1.0008 0.1549 0.0771
S8 S 0.72694(16) 0.26540(9) 0.52699(6)
O11 O 0.7791(4) -0.0742(2) 0.36091(16)
S9 S 0.69446(15) 0.50727(9) 0.58106(6)
C9 C 1.0485(4) 0.3297(3) 0.1608(2)
C10 C 1.1868(4) 0.4945(3) 0.0965(2)
O12 O 0.6521(5) -0.1506(3) 0.47069(19)
C11 C 1.2426(5) 0.7253(3) 0.0807(2)
H11 H 1.3036 0.7060 0.1253
H12 H 1.2877 0.7931 0.0493
O13 O 0.9119(3) 0.2343(2) 0.67250(15)
C12 C 1.0605(4) 0.7609(3) 0.1049(2)
O14 O 0.9986(3) 0.4011(2) 0.68788(15)
C13 C 0.7233(6) -0.0728(3) 0.4278(2)
C14 C 0.7407(6) 0.0377(4) 0.4611(2)
H13 H 0.7976 0.0151 0.5068
H14 H 0.6309 0.0765 0.4741
C15 C 0.8245(5) 0.2633(3) 0.4382(2)
C16 C 0.7612(5) 0.4127(3) 0.5154(2)
C17 C 0.7102(5) 0.4030(4) 0.6674(2)
H15 H 0.6746 0.4442 0.7097
H16 H 0.6352 0.3431 0.6686
C18 C 0.8845(5) 0.3432(3) 0.67602(19)
Eu1_2 Eu 0.82153(2) 0.792123(15) 0.273445(10)
Eu1A Eu 1.17847(2) 0.207877(15) 0.726555(10)
Cu1_2 Cu 0.72451(5) 0.84282(4) 0.08211(2)
Cu2A Cu 1.01916(7) 0.58976(4) 0.69379(3)
O5_2 O 0.7410(4) -0.3597(2) 0.21354(17)
O6_2 O 0.6571(3) -0.3169(2) 0.09745(16)
O9_2 O 1.0292(3) -0.2230(2) 0.17140(15)
O10_2 O 0.9555(3) -0.2258(2) 0.05687(15)
O13A O 1.0881(3) -0.2343(2) 0.32750(15)
O14A O 1.0014(3) -0.4011(2) 0.31212(15)
O14A_2 O 1.0014(3) 0.5989(2) 0.31212(15)
loop_
_geom_bond_atom_site_label_1
_geom_bond_atom_site_label_2
_geom_bond_site_symmetry_1
_geom_bond_site_symmetry_2
Eu1 O1 1_555 1_555
O1 C1 1_555 1_555
N1 N2 1_555 1_555
C1 C2 1_555 1_555
S1 C2 1_555 1_555
Cu1 O3 1_555 1_555
O2 Eu1 1_555 1_555
H1 O2 1_555 1_555
H2 O2 1_555 1_555
N2 C4 1_555 1_555
C2 H3 1_555 1_555
H4 C2 1_555 1_555
O3 C1 1_555 1_555
S2 C3 1_555 1_555
Cu2 N3 1_555 1_555
O4 Cu1 1_555 1_555
H5 O4 1_555 1_555
H6 O4 1_555 1_555
O5 C6 1_555 1_555
C3 N1 1_555 1_555
N3 N4 1_555 1_555
S3 C4 1_555 1_555
O6 C6 1_555 1_555
N4 C10 1_555 1_555
C4 S2 1_555 1_555
S4 C8 1_555 1_555
O7 Eu1 1_555 1_555
N5 Cu2 1_555 1_555
C5 S3 1_555 1_555
H7 C5 1_555 1_555
H8 C5 1_555 1_555
S5 C9 1_555 1_555
S6 C10 1_555 1_555
O8 Cu1 1_555 1_555
N6 N5 1_555 1_555
C6 C5 1_555 1_555
O9 C12 1_555 1_555
C7 O7 1_555 1_555
S7 C14 1_555 1_555
O10 C12 1_555 1_555
C8 C7 1_555 1_555
H9 C8 1_555 1_555
H10 C8 1_555 1_555
S8 C15 1_555 1_555
O11 Eu1 1_555 1_555
S9 C16 1_555 1_555
C9 N3 1_555 1_555
C10 S5 1_555 1_555
O12 C13 1_555 1_555
C11 S6 1_555 1_555
H11 C11 1_555 1_555
H12 C11 1_555 1_555
O13 C18 1_555 1_555
C12 C11 1_555 1_555
O14 C18 1_555 1_555
C13 O11 1_555 1_555
C14 C13 1_555 1_555
H13 C14 1_555 1_555
H14 C14 1_555 1_555
C15 N5 1_555 1_555
C16 N6 1_555 1_555
C17 S9 1_555 1_555
H15 C17 1_555 1_555
H16 C17 1_555 1_555
C18 C17 1_555 1_555
Eu1_2 O5 1_555 1_555
Eu1A O13 1_555 1_555
Cu1_2 O6 1_555 1_555
Cu2A O14 1_555 1_555
O5_2 Eu1 1_555 1_555
O6_2 Cu1 1_555 1_555
O9_2 Eu1 1_555 1_555
O10_2 Cu1 1_555 1_555
O13A Eu1 1_555 1_555
O14A Eu1 1_555 1_555
O14A_2 Cu2 1_555 1_555
S1 C3 1_555 1_555
S4 C9 1_555 1_555
O8 C7 1_555 1_555
O9 Eu1_2 1_555 1_555
S7 C15 1_555 1_555
O10 Cu1_2 1_555 1_555
S8 C16 1_555 1_555
O14 Eu1A 1_555 1_555
Eu1_2 O14A_2 1_555 1_555

#END
