
#######################################################################
#
#                 Cambridge Crystallographic Data Centre
#                                CCDC 
#
#######################################################################
#
# If this CIF has been generated from an entry in the Cambridge 
# Structural Database, then it will include bibliographic, chemical, 
# crystal, experimental, refinement or atomic coordinate data resulting 
# from the CCDC's data processing and validation procedures.
#
#######################################################################

data_KUXFAK
_symmetry_cell_setting           triclinic
_symmetry_space_group_name_H-M   'P -1'
_symmetry_Int_Tables_number      2
_space_group_name_Hall           '-P 1'
loop_
_symmetry_equiv_pos_site_id
_symmetry_equiv_pos_as_xyz
1 x,y,z
2 -x,-y,-z
_cell_length_a                   10.459(1)
_cell_length_b                   10.434(3)
_cell_length_c                   6.762(4)
_cell_angle_alpha                71.73(4)
_cell_angle_beta                 83.67(4)
_cell_angle_gamma                62.82(2)
_cell_volume                     622.88
loop_
_atom_site_label
_atom_site_type_symbol
_atom_site_fract_x
_atom_site_fract_y
_atom_site_fract_z
Cu1 Cu 1.0000 1.0000 0.0000
Na1 Na 0.5986(3) 0.4700(3) 0.2407(5)
N1 N 0.9341(6) 0.8556(7) -0.009(1)
C1 C 0.7981(8) 0.9132(9) -0.100(1)
O1 O 0.7375(5) 1.0458(6) -0.2044(8)
N2 N 0.7378(6) 0.8177(7) -0.0608(9)
C2 C 0.7970(8) 0.6722(9) 0.054(1)
O2 O 0.7408(5) 0.5895(6) 0.0887(8)
N3 N 0.9368(6) 0.6209(7) 0.133(1)
C3 C 1.0021(8) 0.7108(9) 0.104(1)
O3 O 1.1245(5) 0.6593(6) 0.1843(8)
N4 N 0.7437(6) 0.8761(7) 0.4102(9)
C4 C 0.6068(8) 0.9329(9) 0.325(1)
O4 O 0.5439(5) 1.0652(6) 0.2153(9)
N5 N 0.5436(6) 0.8389(7) 0.366(1)
C5 C 0.6006(8) 0.6950(9) 0.484(1)
O5 O 0.5445(5) 0.6113(6) 0.5173(8)
N6 N 0.7376(6) 0.6436(7) 0.570(1)
C6 C 0.8063(8) 0.7330(9) 0.531(1)
O6 O 0.9326(5) 0.6742(6) 0.6078(8)
O7 O 0.9002(6) 1.0215(7) 0.2553(9)
O8 O 0.6033(6) 0.3313(6) 0.0034(9)
O9 O 0.8197(6) 0.2554(6) 0.4280(9)
H1 H 0.6430 0.8584 -0.1219
H2 H 0.9887 0.5160 0.2104
H3 H 0.4495 0.8803 0.3034
H4 H 0.7851 0.5410 0.6605
H5 H 0.8662 1.1136 0.3099
H6 H 0.8270 0.9953 0.3034
H7 H 0.6672 0.2940 -0.0927
H8 H 0.5750 0.2490 0.0640
H9 H 0.8372 0.1775 0.5696
H10 H 0.8874 0.2622 0.4494
N1A N 1.0659(6) 1.1444(7) 0.009(1)
C1A C 1.2019(8) 1.0868(9) 0.100(1)
O1A O 1.2625(5) 0.9542(6) 0.2044(8)
N2A N 1.2622(6) 1.1823(7) 0.0608(9)
C2A C 1.2030(8) 1.3278(9) -0.054(1)
O2A O 1.2592(5) 1.4105(6) -0.0887(8)
N3A N 1.0632(6) 1.3791(7) -0.133(1)
C3A C 0.9979(8) 1.2892(9) -0.104(1)
O3A O 0.8755(5) 1.3407(6) -0.1843(8)
H1A H 1.3570 1.1416 0.1219
H2A H 1.0113 1.4840 -0.2104
O7A O 1.0998(6) 0.9785(7) -0.2553(9)
H5A H 1.1338 0.8864 -0.3099
H6A H 1.1730 1.0047 -0.3034
Na1A Na 1.4014(3) 1.5300(3) -0.2407(5)
N4A N 0.2563(6) 0.1239(7) 0.5898(9)
C4A C 0.3932(8) 0.0671(9) 0.675(1)
O4A O 0.4561(5) -0.0652(6) 0.7847(9)
N5A N 0.4564(6) 0.1611(7) 0.634(1)
C5A C 0.3994(8) 0.3050(9) 0.516(1)
O5A O 0.4555(5) 0.3887(6) 0.4827(8)
N6A N 0.2624(6) 0.3564(7) 0.430(1)
C6A C 0.1937(8) 0.2670(9) 0.469(1)
O6A O 0.0674(5) 0.3258(6) 0.3922(8)
H3A H 0.5505 0.1197 0.6966
H4A H 0.2149 0.4590 0.3395
O8A O 0.3967(6) 0.6687(6) -0.0034(9)
H7A H 0.3328 0.7060 0.0927
H8A H 0.4250 0.7510 -0.0640
O9A O 1.1803(6) 1.7446(6) -0.4280(9)
H9A H 1.1628 1.8225 -0.5696
H10A H 1.1126 1.7378 -0.4494
Na1A_2 Na 0.4014(3) 0.5300(3) 0.7593(5)
Na1A_3 Na 0.4014(3) 0.5300(3) -0.2407(5)
O5_2 O 1.5445(5) 1.6113(6) -0.4827(8)
O5A_2 O 1.4555(5) 1.3887(6) -0.5173(8)
O8_2 O 1.6033(6) 1.3313(6) 0.0034(9)
O8A_2 O 1.3967(6) 1.6687(6) -0.0034(9)
H7_2 H 1.6672 1.2940 -0.0927
H8_2 H 1.5750 1.2490 0.0640
H7A_2 H 1.3328 1.7060 0.0927
H8A_2 H 1.4250 1.7510 -0.0640
loop_
_geom_bond_atom_site_label_1
_geom_bond_atom_site_label_2
_geom_bond_site_symmetry_1
_geom_bond_site_symmetry_2
Cu1 N1 1_555 1_555
Na1 O2 1_555 1_555
N1 C1 1_555 1_555
C1 O1 1_555 1_555
N2 C1 1_555 1_555
C2 N2 1_555 1_555
O2 C2 1_555 1_555
N3 C2 1_555 1_555
C3 N1 1_555 1_555
O3 C3 1_555 1_555
N4 C4 1_555 1_555
C4 O4 1_555 1_555
N5 C4 1_555 1_555
C5 N5 1_555 1_555
O5 Na1 1_555 1_555
N6 C5 1_555 1_555
C6 N4 1_555 1_555
O6 C6 1_555 1_555
O7 Cu1 1_555 1_555
O8 Na1 1_555 1_555
O9 Na1 1_555 1_555
H1 N2 1_555 1_555
H2 N3 1_555 1_555
H3 N5 1_555 1_555
H4 N6 1_555 1_555
H5 O7 1_555 1_555
H6 O7 1_555 1_555
H7 O8 1_555 1_555
H8 O8 1_555 1_555
H9 O9 1_555 1_555
H10 O9 1_555 1_555
N1A Cu1 1_555 1_555
C1A N1A 1_555 1_555
O1A C1A 1_555 1_555
N2A C1A 1_555 1_555
C2A N2A 1_555 1_555
O2A C2A 1_555 1_555
N3A C2A 1_555 1_555
C3A N1A 1_555 1_555
O3A C3A 1_555 1_555
H1A N2A 1_555 1_555
H2A N3A 1_555 1_555
O7A Cu1 1_555 1_555
H5A O7A 1_555 1_555
H6A O7A 1_555 1_555
Na1A O2A 1_555 1_555
N4A C4A 1_555 1_555
C4A O4A 1_555 1_555
N5A C4A 1_555 1_555
C5A N5A 1_555 1_555
O5A Na1 1_555 1_555
N6A C5A 1_555 1_555
C6A N4A 1_555 1_555
O6A C6A 1_555 1_555
H3A N5A 1_555 1_555
H4A N6A 1_555 1_555
O8A Na1 1_555 1_555
H7A O8A 1_555 1_555
H8A O8A 1_555 1_555
O9A Na1A 1_555 1_555
H9A O9A 1_555 1_555
H10A O9A 1_555 1_555
Na1A_2 O5 1_555 1_555
Na1A_3 O8 1_555 1_555
O5_2 Na1A 1_555 1_555
O5A_2 Na1A 1_555 1_555
O8_2 Na1A 1_555 1_555
O8A_2 Na1A 1_555 1_555
H7_2 O8_2 1_555 1_555
H8_2 O8_2 1_555 1_555
H7A_2 O8A_2 1_555 1_555
H8A_2 O8A_2 1_555 1_555
N3 C3 1_555 1_555
C5 O5 1_555 1_555
N6 C6 1_555 1_555
N3A C3A 1_555 1_555
C5A O5A 1_555 1_555
O5A Na1A_2 1_555 1_555
N6A C6A 1_555 1_555
O8A Na1A_3 1_555 1_555

#END
