
#######################################################################
#
#                 Cambridge Crystallographic Data Centre
#                                CCDC 
#
#######################################################################
#
# If this CIF has been generated from an entry in the Cambridge 
# Structural Database, then it will include bibliographic, chemical, 
# crystal, experimental, refinement or atomic coordinate data resulting 
# from the CCDC's data processing and validation procedures.
#
#######################################################################

data_KUXGAN
_symmetry_cell_setting           monoclinic
_symmetry_space_group_name_H-M   'P 21/c'
_symmetry_Int_Tables_number      14
_space_group_name_Hall           '-P 2ybc'
loop_
_symmetry_equiv_pos_site_id
_symmetry_equiv_pos_as_xyz
1 x,y,z
2 -x,1/2+y,1/2-z
3 -x,-y,-z
4 x,1/2-y,1/2+z
_cell_length_a                   11.8703(6)
_cell_length_b                   20.6946(11)
_cell_length_c                   8.2401(4)
_cell_angle_alpha                90
_cell_angle_beta                 93.7490(10)
_cell_angle_gamma                90
_cell_volume                     2019.86
loop_
_atom_site_label
_atom_site_type_symbol
_atom_site_fract_x
_atom_site_fract_y
_atom_site_fract_z
Sm1 Sm 0.038202(15) 0.238206(9) 0.29727(2)
N1 N 0.5213(3) 0.08497(16) -0.1209(4)
N2 N 0.4155(2) 0.06030(15) -0.1705(4)
S1 S 0.64808(8) 0.13022(5) 0.13969(11)
S2 S 0.40905(8) 0.08123(5) 0.13414(12)
O1 O 0.8917(2) 0.19559(13) -0.1101(3)
S3 S 0.21344(8) 0.02239(5) -0.07276(13)
O2 O 0.8628(2) 0.19659(13) 0.1564(3)
O3 O 0.1059(2) 0.19369(12) 0.0593(3)
C1 C 0.8360(3) 0.18390(17) 0.0108(4)
O4 O 0.1471(2) 0.15611(12) -0.1773(3)
C2 C 0.7254(3) 0.1503(2) -0.0337(4)
H1 H 0.7402 0.1110 -0.0928
H2 H 0.6791 0.1781 -0.1055
C3 C 0.5292(3) 0.09811(18) 0.0330(4)
C4 C 0.3490(3) 0.05552(17) -0.0512(4)
C5 C 0.1416(3) 0.08143(18) 0.0462(5)
H3 H 0.0661 0.0659 0.0624
H4 H 0.1815 0.0853 0.1523
C6 C 0.1334(3) 0.14771(17) -0.0319(4)
Cu1 Cu 0.61014(4) -0.04499(2) 0.41501(6)
O5 O 0.2774(2) 0.10651(13) 0.4659(4)
S4 S 0.49616(9) 0.21832(5) 0.49952(17)
N3 N 0.5415(2) 0.08797(15) 0.4967(4)
C7 C 0.2804(3) 0.16630(19) 0.4712(5)
S5 S 0.72126(8) 0.15520(4) 0.55231(12)
N4 N 0.6305(2) 0.04415(15) 0.5069(4)
O6 O 0.2200(2) 0.20320(14) 0.3809(4)
C8 C 0.3648(3) 0.19898(19) 0.5916(5)
H5 H 0.3318 0.2384 0.6311
H6 H 0.3808 0.1706 0.6839
C9 C 0.5765(3) 0.14749(18) 0.5162(4)
O7 O 0.9948(2) 0.19054(11) 0.5592(3)
S6 S 0.84977(8) 0.02434(5) 0.55929(13)
C10 C 0.7289(3) 0.07198(18) 0.5379(4)
O8 O 1.0033(2) 0.11727(12) 0.3679(3)
C11 C 0.9544(3) 0.08226(17) 0.6332(4)
H7 H 1.0218 0.0590 0.6723
H8 H 0.9260 0.1049 0.7252
C12 C 0.9870(3) 0.13187(17) 0.5088(4)
Sm1_2 Sm 1.038202(15) 0.238206(9) 0.29727(2)
Sm1C Sm 0.038202(15) 0.261794(9) -0.20273(2)
Sm1C_2 Sm 1.038202(15) 0.261794(9) -0.20273(2)
Sm1C_3 Sm 1.038202(15) 0.261794(9) 0.79727(2)
N2B N 0.5845(2) -0.06030(15) 0.1705(4)
O1C O -0.1083(2) 0.30441(13) 0.3899(3)
O2_2 O -0.1372(2) 0.19659(13) 0.1564(3)
O3C O 0.1059(2) 0.30631(12) 0.5593(3)
O4C O 0.1471(2) 0.34389(12) 0.3227(3)
Cu1B Cu 0.38986(4) 0.04499(2) -0.41501(6)
Cu1B_2 Cu 0.38986(4) 0.04499(2) 0.58499(6)
O5B O 0.7226(2) -0.10651(13) 0.5341(4)
N3B N 0.4585(2) -0.08797(15) 0.5033(4)
O7_2 O -0.0052(2) 0.19054(11) 0.5592(3)
O7C O -0.0052(2) 0.30946(11) 0.0592(3)
O8_2 O 0.0033(2) 0.11727(12) 0.3679(3)
loop_
_geom_bond_atom_site_label_1
_geom_bond_atom_site_label_2
_geom_bond_site_symmetry_1
_geom_bond_site_symmetry_2
Sm1 O3 1_555 1_555
N1 N2 1_555 1_555
N2 C4 1_555 1_555
S1 C2 1_555 1_555
S2 C3 1_555 1_555
O1 C1 1_555 1_555
S3 C4 1_555 1_555
O2 C1 1_555 1_555
O3 C6 1_555 1_555
C1 C2 1_555 1_555
O4 C6 1_555 1_555
C2 H1 1_555 1_555
H2 C2 1_555 1_555
C3 N1 1_555 1_555
C4 S2 1_555 1_555
C5 S3 1_555 1_555
H3 C5 1_555 1_555
H4 C5 1_555 1_555
C6 C5 1_555 1_555
Cu1 N4 1_555 1_555
O5 C7 1_555 1_555
S4 C8 1_555 1_555
N3 N4 1_555 1_555
C7 O6 1_555 1_555
S5 C9 1_555 1_555
N4 C10 1_555 1_555
O6 Sm1 1_555 1_555
C8 C7 1_555 1_555
H5 C8 1_555 1_555
H6 C8 1_555 1_555
C9 S4 1_555 1_555
O7 C12 1_555 1_555
S6 C10 1_555 1_555
C10 S5 1_555 1_555
O8 C12 1_555 1_555
C11 S6 1_555 1_555
H7 C11 1_555 1_555
H8 C11 1_555 1_555
C12 C11 1_555 1_555
Sm1_2 O2 1_555 1_555
Sm1C O3 1_555 1_555
Sm1C_2 O1 1_555 1_555
Sm1C_3 O7 1_555 1_555
N2B Cu1 1_555 1_555
O1C Sm1 1_555 1_555
O2_2 Sm1 1_555 1_555
O3C Sm1 1_555 1_555
O4C Sm1 1_555 1_555
Cu1B N2 1_555 1_555
Cu1B_2 O5 1_555 1_555
O5B Cu1 1_555 1_555
N3B Cu1 1_555 1_555
O7_2 Sm1 1_555 1_555
O7C Sm1 1_555 1_555
O8_2 Sm1 1_555 1_555
S1 C3 1_555 1_555
O4 Sm1C 1_555 1_555
N3 C9 1_555 1_555
N3 Cu1B_2 1_555 1_555
O7 Sm1_2 1_555 1_555
O8 Sm1_2 1_555 1_555
Sm1C O7C 1_555 1_555

#END
