
#######################################################################
#
#                 Cambridge Crystallographic Data Centre
#                                CCDC 
#
#######################################################################
#
# If this CIF has been generated from an entry in the Cambridge 
# Structural Database, then it will include bibliographic, chemical, 
# crystal, experimental, refinement or atomic coordinate data resulting 
# from the CCDC's data processing and validation procedures.
#
#######################################################################

data_KUXHIW
_symmetry_cell_setting           triclinic
_symmetry_space_group_name_H-M   'P -1'
_symmetry_Int_Tables_number      2
_space_group_name_Hall           '-P 1'
loop_
_symmetry_equiv_pos_site_id
_symmetry_equiv_pos_as_xyz
1 x,y,z
2 -x,-y,-z
_cell_length_a                   9.6951(5)
_cell_length_b                   13.4552(6)
_cell_length_c                   14.9519(7)
_cell_angle_alpha                65.9080(10)
_cell_angle_beta                 82.1670(10)
_cell_angle_gamma                80.0940(10)
_cell_volume                     1749.28
loop_
_atom_site_label
_atom_site_type_symbol
_atom_site_fract_x
_atom_site_fract_y
_atom_site_fract_z
Sm1 Sm 0.29095(3) -0.96366(2) 1.949901(18)
S1 S -0.15240(14) -1.01621(12) 1.74054(10)
N1 N -0.0005(5) -0.9030(4) 1.5730(3)
O1 O 0.1025(4) -1.0411(3) 1.9318(3)
C1 C -0.0048(5) -1.0425(4) 1.8944(4)
O2 O 0.3350(4) -0.5939(3) 1.1207(3)
H1 H 0.3378 -0.6489 1.1754
H2 H 0.4187 -0.5881 1.0953
Sm2 Sm 0.16327(3) -0.44770(2) 1.039559(18)
S2 S -0.24459(15) -0.91587(13) 1.53400(10)
O3 O -0.1111(3) -1.0873(3) 1.9429(3)
N2 N -0.0038(5) -0.8498(4) 1.4710(3)
C2 C -0.0048(6) -0.9872(5) 1.7837(4)
H3 H 0.0819 -1.0128 1.7543
H4 H -0.0091 -0.9085 1.7634
O4 O 0.2930(5) -0.3220(4) 1.0605(3)
H5 H 0.2756 -0.2867 1.0975
H6 H 0.3514 -0.2899 1.0140
S3 S -0.16656(15) -0.79780(13) 1.32023(10)
O5 O 0.0229(4) -0.5916(3) 1.0927(3)
N3 N 0.2379(5) -0.6641(4) 1.3687(3)
C3 C -0.1168(6) -0.9430(5) 1.6147(4)
O6 O 0.1267(4) -0.4809(3) 1.2138(3)
H7 H 0.0697 -0.4222 1.2013
H8 H 0.1328 -0.5109 1.2756
S4 S 0.13573(15) -0.66890(12) 1.54595(10)
O7 O -0.1297(4) -0.7059(3) 1.1206(3)
N4 N 0.3239(5) -0.7215(4) 1.3185(3)
C4 C -0.1226(6) -0.8509(4) 1.4414(4)
O8 O -0.0243(5) -0.3155(4) 1.0632(3)
H9 H -0.0907 -0.3536 1.0733
H10 H -0.0542 -0.2492 1.0287
O9 O 0.3516(4) -0.7977(3) 1.9699(3)
H11 H 0.4392 -0.8151 1.9765
H12 H 0.3356 -0.7281 1.9430
S5 S 0.34836(15) -0.83969(12) 1.50006(10)
N5 N 0.4592(5) -0.3386(4) 0.4583(3)
O10 O 0.1938(4) -0.8034(3) 1.8263(3)
C5 C -0.0248(6) -0.7176(5) 1.2593(4)
H13 H -0.0269 -0.6598 1.2827
H14 H 0.0648 -0.7638 1.2723
S6 S 0.50240(16) -0.90903(12) 1.34403(10)
O11 O 0.0501(4) -0.6643(4) 1.7318(3)
N6 N 0.4654(5) -0.3942(4) 0.5592(3)
C6 C -0.0444(5) -0.6689(4) 1.1512(4)
S7 S 0.28605(18) -0.28716(14) 0.31025(11)
O12 O 0.6386(4) -1.0028(3) 1.2096(3)
C7 C 0.1475(5) -0.7400(5) 1.7434(4)
S8 S 0.22614(16) -0.41632(14) 0.52252(11)
O13 O 0.5932(4) -0.8632(3) 1.0693(3)
C8 C 0.2196(6) -0.7606(5) 1.6553(4)
H15 H 0.2158 -0.8359 1.6652
H16 H 0.3175 -0.7497 1.6481
S9 S 0.31680(18) -0.52170(14) 0.72438(11)
O14 O 0.4529(4) -0.0506(3) 0.0937(3)
C9 C 0.2394(5) -0.7157(4) 1.4627(4)
O15 O 0.2687(4) -0.1343(3) 0.1152(3)
C10 C 0.3869(5) -0.8126(4) 1.3771(4)
O16 O 0.3915(4) -0.4289(3) 0.9250(3)
C11 C 0.5147(6) -0.8320(5) 1.2125(4)
H17 H 0.4214 -0.8030 1.1896
H18 H 0.5669 -0.7707 1.1963
O17 O 0.2511(4) -0.5357(4) 0.9183(3)
C12 C 0.5876(5) -0.9060(5) 1.1634(4)
C13 C 0.3771(5) -0.1255(4) 0.1467(4)
C14 C 0.4231(6) -0.2032(5) 0.2470(4)
H19 H 0.5095 -0.2490 0.2404
H20 H 0.4398 -0.1620 0.2838
C15 C 0.3414(6) -0.3441(5) 0.4301(4)
C16 C 0.3549(6) -0.4397(5) 0.6007(4)
C17 C 0.4261(6) -0.4761(6) 0.7860(4)
H21 H 0.5160 -0.5222 0.7962
H22 H 0.4428 -0.4011 0.7457
C18 C 0.3531(5) -0.4827(5) 0.8831(4)
Sm1_2 Sm 0.29095(3) 0.03634(2) -0.050099(18)
Sm1A Sm -0.29095(3) -1.03634(2) 2.050099(18)
Sm1A_2 Sm 0.70905(3) -1.03634(2) 1.050099(18)
Sm1A_3 Sm 0.70905(3) -0.03634(2) 0.050099(18)
Sm2A Sm -0.16327(3) -0.55230(2) 0.960441(18)
O3A O 0.1111(3) -0.9127(3) 2.0571(3)
O5A O -0.0229(4) -0.4084(3) 0.9073(3)
O7A O 0.1297(4) -0.2941(3) 0.8794(3)
O12A O 0.3614(4) -0.9972(3) 1.7904(3)
O13A O 0.4068(4) -1.1368(3) 1.9307(3)
O14_2 O 0.4529(4) -1.0506(3) 2.0937(3)
O14A O 0.5471(4) -0.9494(3) 1.9063(3)
O15_2 O 0.2687(4) -1.1343(3) 2.1152(3)
loop_
_geom_bond_atom_site_label_1
_geom_bond_atom_site_label_2
_geom_bond_site_symmetry_1
_geom_bond_site_symmetry_2
Sm1 O1 1_555 1_555
S1 C2 1_555 1_555
N1 N2 1_555 1_555
O1 C1 1_555 1_555
C1 O3 1_555 1_555
O2 H1 1_555 1_555
H2 O2 1_555 1_555
Sm2 O2 1_555 1_555
S2 C3 1_555 1_555
O3 Sm1A 1_555 1_555
N2 C4 1_555 1_555
C2 C1 1_555 1_555
H3 C2 1_555 1_555
H4 C2 1_555 1_555
O4 Sm2 1_555 1_555
H5 O4 1_555 1_555
H6 O4 1_555 1_555
S3 C4 1_555 1_555
O5 Sm2 1_555 1_555
N3 N4 1_555 1_555
C3 S1 1_555 1_555
O6 Sm2 1_555 1_555
H7 O6 1_555 1_555
H8 O6 1_555 1_555
S4 C8 1_555 1_555
O7 C6 1_555 1_555
N4 C10 1_555 1_555
C4 S2 1_555 1_555
O8 Sm2 1_555 1_555
H9 O8 1_555 1_555
H10 O8 1_555 1_555
O9 Sm1 1_555 1_555
H11 O9 1_555 1_555
H12 O9 1_555 1_555
S5 C9 1_555 1_555
N5 N6 1_555 1_555
O10 Sm1 1_555 1_555
C5 S3 1_555 1_555
H13 C5 1_555 1_555
H14 C5 1_555 1_555
S6 C10 1_555 1_555
O11 C7 1_555 1_555
N6 C16 1_555 1_555
C6 O5 1_555 1_555
S7 C14 1_555 1_555
O12 C12 1_555 1_555
C7 O10 1_555 1_555
S8 C15 1_555 1_555
O13 C12 1_555 1_555
C8 C7 1_555 1_555
H15 C8 1_555 1_555
H16 C8 1_555 1_555
S9 C16 1_555 1_555
O14 C13 1_555 1_555
C9 N3 1_555 1_555
O15 C13 1_555 1_555
C10 S5 1_555 1_555
O16 Sm2 1_555 1_555
C11 S6 1_555 1_555
H17 C11 1_555 1_555
H18 C11 1_555 1_555
O17 Sm2 1_555 1_555
C12 C11 1_555 1_555
C13 C14 1_555 1_555
C14 H19 1_555 1_555
H20 C14 1_555 1_555
C15 N5 1_555 1_555
C16 S8 1_555 1_555
C17 S9 1_555 1_555
H21 C17 1_555 1_555
H22 C17 1_555 1_555
C18 O16 1_555 1_555
Sm1_2 O14 1_555 1_555
Sm1A_2 O12 1_555 1_555
Sm1A_3 O14 1_555 1_555
Sm2A O5 1_555 1_555
O3A Sm1 1_555 1_555
O5A Sm2 1_555 1_555
O7A Sm2 1_555 1_555
O12A Sm1 1_555 1_555
O13A Sm1 1_555 1_555
O14_2 Sm1 1_555 1_555
O14A Sm1 1_555 1_555
O15_2 Sm1 1_555 1_555
N1 C3 1_555 1_555
S4 C9 1_555 1_555
O7 Sm2A 1_555 1_555
C5 C6 1_555 1_555
S7 C15 1_555 1_555
O13 Sm1A_2 1_555 1_555
O15 Sm1_2 1_555 1_555
O17 C18 1_555 1_555
C17 C18 1_555 1_555
Sm2A O5A 1_555 1_555

#END
