
#######################################################################
#
#                 Cambridge Crystallographic Data Centre
#                                CCDC 
#
#######################################################################
#
# If this CIF has been generated from an entry in the Cambridge 
# Structural Database, then it will include bibliographic, chemical, 
# crystal, experimental, refinement or atomic coordinate data resulting 
# from the CCDC's data processing and validation procedures.
#
#######################################################################

data_KUXTUT
_symmetry_cell_setting           monoclinic
_symmetry_space_group_name_H-M   'C 2/c'
_symmetry_Int_Tables_number      15
_space_group_name_Hall           '-C 2yn'
loop_
_symmetry_equiv_pos_site_id
_symmetry_equiv_pos_as_xyz
1 x,y,z
2 -x,y,1/2-z
3 1/2+x,1/2+y,z
4 1/2-x,1/2+y,1/2-z
5 -x,-y,-z
6 x,-y,1/2+z
7 1/2-x,1/2-y,-z
8 1/2+x,1/2-y,1/2+z
_cell_length_a                   21.4622(8)
_cell_length_b                   4.9469(2)
_cell_length_c                   15.6955(4)
_cell_angle_alpha                90
_cell_angle_beta                 102.591(1)
_cell_angle_gamma                90
_cell_volume                     1626.34
loop_
_atom_site_label
_atom_site_type_symbol
_atom_site_fract_x
_atom_site_fract_y
_atom_site_fract_z
Cu1 Cu 0.5000 0.0000 0.5000
O1 O 0.58478(5) 0.1627(2) 0.51957(7)
O2 O 0.60129(6) -0.1189(3) 0.41612(8)
N1 N 0.46747(6) 0.2504(3) 0.40232(8)
N2 N 0.46984(7) 0.5656(3) 0.30486(9)
C1 C 0.41064(8) 0.2433(4) 0.34011(10)
H1 H 0.3762 0.1226 0.3403
C2 C 0.41191(8) 0.4351(4) 0.27914(11)
H2 H 0.3795 0.4726 0.2288
C3 C 0.50161(8) 0.4460(3) 0.37835(10)
H3 H 0.5432 0.4959 0.4090
C4 C 0.5000 0.7386(4) 0.2500
H4 H 0.5324 0.8557 0.2869
C5 C 0.72859(9) 0.0506(4) 0.43856(13)
H5 H 0.7139 -0.0853 0.3962
C6 C 0.68740(7) 0.1588(3) 0.48694(10)
C7 C 0.70885(8) 0.3587(4) 0.54766(12)
H6 H 0.6806 0.4344 0.5802
C8 C 0.61966(8) 0.0560(4) 0.47157(11)
Cu1B Cu 1.0000 0.5000 0.5000
Cu1A Cu 0.5000 0.0000 0.0000
O1F O 0.91522(5) 0.3373(2) 0.48043(7)
O1D O 0.41522(5) -0.1627(2) 0.48043(7)
O2F O 0.89871(6) 0.6189(3) 0.58388(8)
N1A N 0.53253(6) 0.2504(3) 0.09768(8)
N1D N 0.53253(6) -0.2504(3) 0.59768(8)
N2A N 0.53016(7) 0.5656(3) 0.19514(9)
C1A C 0.58936(8) 0.2433(4) 0.15989(10)
H1A H 0.6238 0.1226 0.1597
C2A C 0.58809(8) 0.4351(4) 0.22086(11)
H2A H 0.6205 0.4726 0.2712
C3A C 0.49839(8) 0.4460(3) 0.12165(10)
H3A H 0.4568 0.4959 0.0910
H4A H 0.4676 0.8557 0.2131
C5F C 0.77141(9) 0.4494(4) 0.56144(13)
H5F H 0.7861 0.5853 0.6038
C6F C 0.81260(7) 0.3412(3) 0.51306(10)
C7F C 0.79115(8) 0.1413(4) 0.45234(12)
H6F H 0.8194 0.0656 0.4198
C8F C 0.88034(8) 0.4440(4) 0.52843(11)
loop_
_geom_bond_atom_site_label_1
_geom_bond_atom_site_label_2
_geom_bond_site_symmetry_1
_geom_bond_site_symmetry_2
Cu1 O1 1_555 1_555
O1 C8 1_555 1_555
O2 C8 1_555 1_555
N1 Cu1 1_555 1_555
N2 C2 1_555 1_555
C1 N1 1_555 1_555
H1 C1 1_555 1_555
C2 C1 1_555 1_555
H2 C2 1_555 1_555
C3 N1 1_555 1_555
H3 C3 1_555 1_555
C4 N2 1_555 1_555
H4 C4 1_555 1_555
C5 H5 1_555 1_555
C6 C5 1_555 1_555
C7 C6 1_555 1_555
H6 C7 1_555 1_555
C8 C6 1_555 1_555
Cu1B O1F 1_555 1_555
Cu1A N1A 1_555 1_555
O1F C8F 1_555 1_555
O1D Cu1 1_555 1_555
O2F C8F 1_555 1_555
N1A C1A 1_555 1_555
N1D Cu1 1_555 1_555
N2A C4 1_555 1_555
C1A H1A 1_555 1_555
C2A N2A 1_555 1_555
H2A C2A 1_555 1_555
C3A N1A 1_555 1_555
H3A C3A 1_555 1_555
H4A C4 1_555 1_555
C5F C7 1_555 1_555
H5F C5F 1_555 1_555
C6F C5F 1_555 1_555
C7F C5 1_555 1_555
H6F C7F 1_555 1_555
C8F C6F 1_555 1_555
N2 C3 1_555 1_555
N2A C3A 1_555 1_555
C1A C2A 1_555 1_555
C6F C7F 1_555 1_555

#END
