
#######################################################################
#
#                 Cambridge Crystallographic Data Centre
#                                CCDC 
#
#######################################################################
#
# If this CIF has been generated from an entry in the Cambridge 
# Structural Database, then it will include bibliographic, chemical, 
# crystal, experimental, refinement or atomic coordinate data resulting 
# from the CCDC's data processing and validation procedures.
#
#######################################################################

data_KUXWOQ
_symmetry_cell_setting           monoclinic
_symmetry_space_group_name_H-M   'P 21/c'
_symmetry_Int_Tables_number      14
_space_group_name_Hall           '-P 2ybc'
loop_
_symmetry_equiv_pos_site_id
_symmetry_equiv_pos_as_xyz
1 x,y,z
2 -x,1/2+y,1/2-z
3 -x,-y,-z
4 x,1/2-y,1/2+z
_cell_length_a                   7.5983(1)
_cell_length_b                   18.8221(2)
_cell_length_c                   12.1000(2)
_cell_angle_alpha                90
_cell_angle_beta                 106.648(1)
_cell_angle_gamma                90
_cell_volume                     1657.96
loop_
_atom_site_label
_atom_site_type_symbol
_atom_site_fract_x
_atom_site_fract_y
_atom_site_fract_z
Ag1 Ag -0.28618(4) 0.011764(15) 0.52206(3)
C1 C -0.0742(5) 0.1463(2) 0.6405(3)
H1 H -0.0611 0.1198 0.7072
C2 C 0.0119(5) 0.21172(19) 0.6494(3)
H2 H 0.0818 0.2283 0.7209
C3 C -0.0065(4) 0.25217(18) 0.5518(3)
C4 C -0.1164(5) 0.22583(18) 0.4477(3)
H3 H -0.1347 0.2522 0.3803
C5 C -0.1985(5) 0.16002(19) 0.4452(3)
H4 H -0.2725 0.1432 0.3749
C6 C 0.0885(4) 0.32321(18) 0.5572(3)
C7 C -0.3301(5) -0.14707(19) 0.5626(3)
H5 H -0.2705 -0.1335 0.6379
C8 C -0.3851(5) -0.21726(19) 0.5413(3)
H6 H -0.3594 -0.2501 0.6012
C9 C -0.4785(4) -0.23800(18) 0.4305(3)
C10 C -0.5063(5) -0.18737(19) 0.3442(3)
H7 H -0.5664 -0.1996 0.2682
C11 C -0.4451(5) -0.1192(2) 0.3709(3)
H8 H -0.4638 -0.0861 0.3116
C12 C -0.5582(5) -0.31235(18) 0.4042(3)
C13 C 0.3281(5) -0.01897(18) 0.7967(3)
C14 C 0.1260(5) -0.0251(2) 0.7328(3)
H9 H 0.0993 0.0100 0.6715
H10 H 0.1069 -0.0714 0.6962
C15 C -0.0151(4) -0.01644(17) 0.7969(3)
H11 H 0.363(4) 0.6059(18) 0.562(3)
H12 H 0.203(2) 0.6076(17) 0.579(3)
N1 N -0.1767(4) 0.11943(16) 0.5385(3)
N2 N -0.3593(4) -0.09824(15) 0.4792(3)
Nd1 Nd 0.28344(2) 0.458028(9) 0.566988(16)
O1 O 0.1953(3) 0.34303(13) 0.6515(2)
O2 O 0.0561(3) 0.35976(12) 0.4663(2)
O3 O -0.4755(3) -0.36206(12) 0.4717(2)
O4 O -0.6984(4) -0.31867(14) 0.3236(2)
O5 O 0.4425(3) -0.04211(12) 0.7492(2)
O6 O 0.3795(3) 0.00966(13) 0.8960(2)
O7 O 0.0326(3) -0.01428(13) 0.9056(2)
O8 O -0.1809(3) -0.01531(13) 0.7407(2)
O9 O 0.3030(3) 0.58867(13) 0.6012(2)
Nd1B Nd -0.28344(2) -0.458028(9) 0.433012(16)
Nd1A Nd 0.71656(2) -0.041972(9) 0.933012(16)
Nd1C Nd 0.28344(2) 0.041972(9) 1.066988(16)
Nd1A_2 Nd -0.28344(2) -0.041972(9) 0.933012(16)
O3B O 0.4755(3) 0.36206(12) 0.5283(2)
O5A O 0.5575(3) 0.45789(12) 0.7508(2)
O6A O 0.6205(3) 0.50966(13) 0.6040(2)
O6C O 0.3795(3) 0.49034(13) 0.3960(2)
O7A O -0.0326(3) 0.48572(13) 0.5944(2)
O7C O 0.0326(3) 0.51428(13) 0.4056(2)
O8A O 0.1809(3) 0.48469(13) 0.7593(2)
loop_
_geom_bond_atom_site_label_1
_geom_bond_atom_site_label_2
_geom_bond_site_symmetry_1
_geom_bond_site_symmetry_2
Ag1 N1 1_555 1_555
C1 H1 1_555 1_555
C2 C1 1_555 1_555
H2 C2 1_555 1_555
C3 C2 1_555 1_555
C4 C3 1_555 1_555
H3 C4 1_555 1_555
C5 C4 1_555 1_555
H4 C5 1_555 1_555
C6 C3 1_555 1_555
C7 H5 1_555 1_555
C8 C7 1_555 1_555
H6 C8 1_555 1_555
C9 C8 1_555 1_555
C10 C9 1_555 1_555
H7 C10 1_555 1_555
C11 C10 1_555 1_555
H8 C11 1_555 1_555
C12 C9 1_555 1_555
C13 C14 1_555 1_555
C14 H9 1_555 1_555
H10 C14 1_555 1_555
C15 C14 1_555 1_555
H11 O9 1_555 1_555
H12 O9 1_555 1_555
N1 C1 1_555 1_555
N2 Ag1 1_555 1_555
Nd1 O1 1_555 1_555
O1 C6 1_555 1_555
O2 C6 1_555 1_555
O3 C12 1_555 1_555
O4 C12 1_555 1_555
O5 C13 1_555 1_555
O6 C13 1_555 1_555
O7 C15 1_555 1_555
O8 Ag1 1_555 1_555
O9 Nd1 1_555 1_555
Nd1B O3 1_555 1_555
Nd1A O5 1_555 1_555
Nd1C O6 1_555 1_555
Nd1A_2 O7 1_555 1_555
O3B Nd1 1_555 1_555
O5A Nd1 1_555 1_555
O6A Nd1 1_555 1_555
O6C Nd1 1_555 1_555
O7A Nd1 1_555 1_555
O7C Nd1 1_555 1_555
O8A Nd1 1_555 1_555
C5 N1 1_555 1_555
C7 N2 1_555 1_555
C11 N2 1_555 1_555
C15 O8 1_555 1_555
Nd1 O2 1_555 1_555
O6 Nd1A 1_555 1_555
O7 Nd1C 1_555 1_555
O8 Nd1A_2 1_555 1_555

#END
