
#######################################################################
#
#                 Cambridge Crystallographic Data Centre
#                                CCDC 
#
#######################################################################
#
# If this CIF has been generated from an entry in the Cambridge 
# Structural Database, then it will include bibliographic, chemical, 
# crystal, experimental, refinement or atomic coordinate data resulting 
# from the CCDC's data processing and validation procedures.
#
#######################################################################

data_KUXWAC
_symmetry_cell_setting           monoclinic
_symmetry_space_group_name_H-M   'C 2/c'
_symmetry_Int_Tables_number      15
_space_group_name_Hall           '-C 2yn'
loop_
_symmetry_equiv_pos_site_id
_symmetry_equiv_pos_as_xyz
1 x,y,z
2 -x,y,1/2-z
3 1/2+x,1/2+y,z
4 1/2-x,1/2+y,1/2-z
5 -x,-y,-z
6 x,-y,1/2+z
7 1/2-x,1/2-y,-z
8 1/2+x,1/2-y,1/2+z
_cell_length_a                   21.728(2)
_cell_length_b                   9.3675(10)
_cell_length_c                   17.4117(18)
_cell_angle_alpha                90
_cell_angle_beta                 109.202(2)
_cell_angle_gamma                90
_cell_volume                     3346.76
loop_
_atom_site_label
_atom_site_type_symbol
_atom_site_fract_x
_atom_site_fract_y
_atom_site_fract_z
Ag1 Ag 0.17381(3) 0.43261(8) 0.14190(4)
C1 C 0.1138(5) 0.4156(8) 0.2780(6)
H1 H 0.1167 0.5144 0.2746
C2 C 0.0824(4) 0.3599(7) 0.3278(5)
H2 H 0.0661 0.4204 0.3588
C3 C 0.0750(3) 0.2128(7) 0.3321(4)
C4 C 0.1024(4) 0.1319(8) 0.2867(4)
H3 H 0.0990 0.0330 0.2872
C5 C 0.1351(4) 0.1960(8) 0.2401(4)
H4 H 0.1545 0.1383 0.2112
C6 C 0.0396(3) 0.1481(7) 0.3841(4)
C7 C 0.2226(4) 0.5498(9) 0.0047(5)
H5 H 0.1850 0.6049 -0.0079
C8 C 0.2648(4) 0.5738(10) -0.0383(5)
H6 H 0.2563 0.6456 -0.0773
C9 C 0.3198(3) 0.4901(7) -0.0227(4)
C10 C 0.3259(4) 0.3808(8) 0.0316(5)
H7 H 0.3593 0.3145 0.0395
C11 C 0.2834(4) 0.3680(9) 0.0746(5)
H8 H 0.2908 0.2967 0.1137
C12 C 0.3724(3) 0.5224(7) -0.0577(4)
C13 C 0.0358(3) 0.4834(7) 0.0253(4)
C14 C 0.0373(3) 0.2495(6) 0.7699(4)
N1 N 0.1399(3) 0.3363(6) 0.2348(4)
N2 N 0.2326(3) 0.4527(7) 0.0627(4)
O1 O 0.0367(2) 0.2195(5) 0.4437(2)
O2 O 0.0174(2) 0.0255(4) 0.3653(3)
O3 O 0.3643(2) 0.6229(5) -0.1074(3)
O4 O 0.4250(2) 0.4519(4) -0.0332(2)
O5 O 0.0636(2) 0.5729(4) 0.0797(2)
O6 O 0.0608(2) 0.3742(4) 0.0078(3)
O7 O 0.0709(2) 0.2322(5) 0.7241(2)
O8 O 0.0583(2) 0.2681(5) 0.8458(2)
Ce1 Ce 0.013624(17) 0.18477(3) 0.573541(19)
Ag1D Ag -0.17381(3) 0.56739(8) -0.14190(4)
Ag1D_2 Ag -0.17381(3) -0.43261(8) 0.85810(4)
Ag1C Ag 0.32619(3) -0.06739(8) 0.35810(4)
C1D C -0.1138(5) -0.4156(8) 0.7220(6)
H1D H -0.1167 -0.5144 0.7254
C2D C -0.0824(4) -0.3599(7) 0.6722(5)
H2D H -0.0661 -0.4204 0.6412
C3D C -0.0750(3) -0.2128(7) 0.6679(4)
C4D C -0.1024(4) -0.1319(8) 0.7133(4)
H3D H -0.0990 -0.0330 0.7128
C5D C -0.1351(4) -0.1960(8) 0.7599(4)
H4D H -0.1545 -0.1383 0.7888
C6D C -0.0396(3) -0.1481(7) 0.6159(4)
C7C C 0.2774(4) 0.0498(9) 0.4953(5)
H5C H 0.3150 0.1049 0.5079
C8C C 0.2352(4) 0.0738(10) 0.5383(5)
H6C H 0.2437 0.1456 0.5773
C9C C 0.1802(3) -0.0099(7) 0.5227(4)
C10C C 0.1741(4) -0.1192(8) 0.4684(5)
H7C H 0.1407 -0.1855 0.4605
C11C C 0.2166(4) -0.1320(9) 0.4254(5)
H8C H 0.2092 -0.2033 0.3863
C12C C 0.1276(3) 0.0224(7) 0.5577(4)
C13D C -0.0358(3) 0.5166(7) -0.0253(4)
C14A C -0.0373(3) 0.2495(6) 0.7301(4)
N1D N -0.1399(3) -0.3363(6) 0.7652(4)
N1D_2 N -0.1399(3) 0.6637(6) -0.2348(4)
N2C N 0.2674(3) -0.0473(7) 0.4373(4)
N2D N -0.2326(3) 0.5473(7) -0.0627(4)
O1D O -0.0367(2) -0.2195(5) 0.5563(2)
O2D O -0.0174(2) -0.0255(4) 0.6347(3)
O3C O 0.1357(2) 0.1229(5) 0.6074(3)
O3G O -0.1357(2) -0.1229(5) 0.3926(3)
O4C O 0.0750(2) -0.0481(4) 0.5332(2)
O4G O -0.0750(2) 0.0481(4) 0.4668(2)
O5D O -0.0636(2) 0.4271(4) -0.0797(2)
O5E O 0.0636(2) 0.4271(4) 0.5797(2)
O5A O -0.0636(2) -0.4271(4) 0.4203(2)
O6D O -0.0608(2) 0.6258(4) -0.0078(3)
O6A O -0.0608(2) 0.3742(4) 0.4922(3)
O6E O 0.0608(2) -0.3742(4) 0.5078(3)
O7A O -0.0709(2) 0.2322(5) 0.7759(2)
O7D O -0.0709(2) -0.2322(5) 0.2759(2)
O8A O -0.0583(2) 0.2681(5) 0.6542(2)
O8E O 0.0583(2) -0.2681(5) 0.3458(2)
Ce1D Ce -0.013624(17) -0.18477(3) 0.426459(19)
Ce1C Ce 0.486376(17) 0.68477(3) -0.073541(19)
Ce1G Ce 0.513624(17) 0.31523(3) 0.073541(19)
Ce1E Ce 0.013624(17) 0.81523(3) 0.073541(19)
Ce1A Ce -0.013624(17) 0.18477(3) -0.073541(19)
Ce1A_2 Ce -0.013624(17) 0.18477(3) 0.926459(19)
O9 O 0.2047(3) 0.3056(6) 0.7435(4)
H9 H 0.1687 0.2912 0.7520
H10 H 0.2083 0.2469 0.7080
loop_
_geom_bond_atom_site_label_1
_geom_bond_atom_site_label_2
_geom_bond_site_symmetry_1
_geom_bond_site_symmetry_2
Ag1 N1 1_555 1_555
C1 H1 1_555 1_555
C2 C1 1_555 1_555
H2 C2 1_555 1_555
C3 C2 1_555 1_555
C4 C3 1_555 1_555
H3 C4 1_555 1_555
C5 C4 1_555 1_555
H4 C5 1_555 1_555
C6 C3 1_555 1_555
C7 H5 1_555 1_555
C8 C7 1_555 1_555
H6 C8 1_555 1_555
C9 C8 1_555 1_555
C10 C9 1_555 1_555
H7 C10 1_555 1_555
C11 C10 1_555 1_555
H8 C11 1_555 1_555
C12 C9 1_555 1_555
C13 O5 1_555 1_555
C14 O7 1_555 1_555
N1 C1 1_555 1_555
N2 Ag1 1_555 1_555
O1 C6 1_555 1_555
O2 C6 1_555 1_555
O3 C12 1_555 1_555
O4 C12 1_555 1_555
O5 Ag1 1_555 1_555
O6 C13 1_555 1_555
O7 Ce1 1_555 1_555
O8 C14 1_555 1_555
Ce1 O1 1_555 1_555
O9 H9 1_555 1_555
H10 O9 1_555 1_555
Ag1D N1D_2 1_555 1_555
Ag1D_2 N1D 1_555 1_555
Ag1C N2C 1_555 1_555
C1D H1D 1_555 1_555
C2D C1D 1_555 1_555
H2D C2D 1_555 1_555
C3D C2D 1_555 1_555
C4D C3D 1_555 1_555
H3D C4D 1_555 1_555
C5D C4D 1_555 1_555
H4D C5D 1_555 1_555
C6D C3D 1_555 1_555
C7C H5C 1_555 1_555
C8C C7C 1_555 1_555
H6C C8C 1_555 1_555
C9C C8C 1_555 1_555
C10C C9C 1_555 1_555
H7C C10C 1_555 1_555
C11C C10C 1_555 1_555
H8C C11C 1_555 1_555
C12C C9C 1_555 1_555
C13D C13 1_555 1_555
C14A C14 1_555 1_555
N1D C1D 1_555 1_555
N2C C7C 1_555 1_555
N2D Ag1D 1_555 1_555
O1D C6D 1_555 1_555
O2D Ce1 1_555 1_555
O3C Ce1 1_555 1_555
O3G Ce1D 1_555 1_555
O4C Ce1 1_555 1_555
O4G Ce1 1_555 1_555
O5D Ag1D 1_555 1_555
O5E Ce1 1_555 1_555
O5A Ce1D 1_555 1_555
O6D C13D 1_555 1_555
O6A Ce1 1_555 1_555
O6E Ce1D 1_555 1_555
O7A C14A 1_555 1_555
O7D Ce1D 1_555 1_555
O8A Ce1 1_555 1_555
O8E Ce1D 1_555 1_555
Ce1D O2 1_555 1_555
Ce1C O3 1_555 1_555
Ce1G O4 1_555 1_555
Ce1E O5 1_555 1_555
Ce1A O6 1_555 1_555
Ce1A_2 O8 1_555 1_555
C5 N1 1_555 1_555
C7 N2 1_555 1_555
C11 N2 1_555 1_555
O4 Ce1C 1_555 1_555
C5D N1D 1_555 1_555
C6D O2D 1_555 1_555
C11C N2C 1_555 1_555
C12C O3C 1_555 1_555
C12C O4C 1_555 1_555
C13D O5D 1_555 1_555
C14A O8A 1_555 1_555
O1D Ce1D 1_555 1_555
O4C Ce1D 1_555 1_555
O4G Ce1D 1_555 1_555
O5D Ce1A 1_555 1_555
O6D Ce1E 1_555 1_555
O7A Ce1A_2 1_555 1_555

#END
