
#######################################################################
#
#                 Cambridge Crystallographic Data Centre
#                                CCDC 
#
#######################################################################
#
# If this CIF has been generated from an entry in the Cambridge 
# Structural Database, then it will include bibliographic, chemical, 
# crystal, experimental, refinement or atomic coordinate data resulting 
# from the CCDC's data processing and validation procedures.
#
#######################################################################

data_KUXXOR
_symmetry_cell_setting           triclinic
_symmetry_space_group_name_H-M   'P -1'
_symmetry_Int_Tables_number      2
_space_group_name_Hall           '-P 1'
loop_
_symmetry_equiv_pos_site_id
_symmetry_equiv_pos_as_xyz
1 x,y,z
2 -x,-y,-z
_cell_length_a                   8.3624(5)
_cell_length_b                   16.903(1)
_cell_length_c                   17.3261(10)
_cell_angle_alpha                93.234(4)
_cell_angle_beta                 97.017(4)
_cell_angle_gamma                100.010(4)
_cell_volume                     2386.13
loop_
_atom_site_label
_atom_site_type_symbol
_atom_site_fract_x
_atom_site_fract_y
_atom_site_fract_z
O2 O 0.887(4) 0.8365(17) 0.1717(16)
H3 H 0.8438 0.8597 0.1327
H4 H 0.8481 0.7872 0.1665
Eu1 Eu 0.32922(11) 0.01684(5) 0.11256(5)
Eu2 Eu 0.15437(11) 0.00246(6) 0.39749(5)
Ag1 Ag 0.2273(3) -0.48392(11) 0.59217(15)
Ag2 Ag 0.4402(3) 0.51553(12) 0.26425(16)
Ag3 Ag 0.1548(3) 0.50968(12) 0.08270(16)
C1 C 0.278(4) -0.3125(14) 0.5319(18)
H5 H 0.3242 -0.3397 0.4947
C2 C 0.268(4) -0.2334(16) 0.523(2)
H6 H 0.3202 -0.2055 0.4859
C3 C 0.182(2) -0.1972(11) 0.5696(12)
C4 C 0.118(3) -0.2400(12) 0.6298(14)
H7 H 0.0581 -0.2161 0.6634
C5 C 0.144(3) -0.3175(13) 0.6381(14)
H8 H 0.1024 -0.3453 0.6782
C6 C 0.138(2) -0.1133(11) 0.5543(10)
C7 C 0.327(3) 0.3542(13) 0.5444(15)
H9 H 0.3952 0.3877 0.5164
C8 C 0.316(3) 0.2720(13) 0.5308(15)
H10 H 0.3738 0.2506 0.4946
C9 C 0.217(3) 0.2236(13) 0.5730(15)
C10 C 0.143(4) 0.2576(15) 0.6266(17)
H11 H 0.0775 0.2250 0.6562
C11 C 0.162(4) 0.3393(16) 0.6387(19)
H12 H 0.1143 0.3611 0.6787
C12 C 0.192(2) 0.1317(12) 0.5528(12)
C13 C 0.033(2) 0.1393(12) 0.1565(11)
C14 C 0.053(2) 0.2263(12) 0.1360(13)
C15 C -0.038(3) 0.2787(13) 0.1644(14)
H13 H -0.1182 0.2601 0.1949
C16 C -0.012(3) 0.3567(14) 0.1488(16)
H14 H -0.0748 0.3910 0.1696
C17 C 0.183(4) 0.3348(15) 0.0751(19)
H15 H 0.2608 0.3547 0.0438
C18 C 0.164(3) 0.2549(14) 0.0868(16)
H16 H 0.2233 0.2212 0.0629
C19 C 0.371(2) 0.1304(11) 0.2780(11)
C20 C 0.403(2) 0.2212(10) 0.2770(11)
C21 C 0.328(4) 0.2683(14) 0.3234(17)
H17 H 0.2662 0.2446 0.3599
C22 C 0.343(4) 0.3472(14) 0.3168(17)
H18 H 0.2828 0.3764 0.3454
C23 C 0.522(4) 0.3434(14) 0.2266(17)
H19 H 0.5930 0.3694 0.1948
C24 C 0.502(3) 0.2605(13) 0.2277(13)
H20 H 0.5547 0.2313 0.1952
C25 C 0.579(2) 0.1361(11) 0.0143(11)
C26 C 0.648(2) 0.2197(11) -0.0055(12)
C27 C 0.578(3) 0.2849(13) 0.0120(15)
H21 H 0.4897 0.2788 0.0406
C28 C 0.636(3) 0.3591(13) -0.0123(17)
H22 H 0.5828 0.4016 -0.0014
C29 C 0.836(3) 0.3092(14) -0.0664(14)
H23 H 0.9276 0.3181 -0.0926
C30 C 0.786(2) 0.2334(12) -0.0472(12)
H24 H 0.8392 0.1917 -0.0607
C31 C 0.279(2) -0.1229(12) 0.2569(12)
C32 C 0.327(2) -0.2049(13) 0.2566(10)
C33 C -0.046(2) -0.0320(11) 0.0267(12)
Cl1 Cl -0.2482(10) 0.5550(5) 0.1362(5)
N1 N 0.225(2) -0.3531(11) 0.5915(13)
N2 N 0.247(3) 0.3887(12) 0.5946(13)
N3 N 0.443(3) 0.3868(11) 0.2699(13)
N4 N 0.101(3) 0.3863(10) 0.1040(13)
N5 N 0.402(3) -0.3608(12) 0.2567(13)
N6 N 0.765(3) 0.3728(10) -0.0510(12)
N7 N -0.176(2) -0.5005(11) 0.6053(11)
O3 O 0.210(2) -0.0792(9) 0.5032(9)
O4 O 0.0428(18) -0.0895(9) 0.5921(9)
O5 O 0.2643(17) 0.1062(8) 0.5033(8)
O6 O 0.0893(16) 0.0892(8) 0.5901(9)
O7 O 0.1432(18) 0.1022(9) 0.1408(9)
O8 O -0.0883(18) 0.1115(9) 0.1873(10)
O9 O 0.4900(17) 0.1328(8) 0.0689(8)
O10 O 0.617(2) 0.0777(10) -0.0211(9)
O11 O 0.2731(18) 0.1032(9) 0.3213(9)
O12 O 0.4417(17) 0.0914(8) 0.2321(8)
O13 O 0.2192(18) -0.1014(8) 0.3166(8)
O14 O 0.3005(18) -0.0864(8) 0.1982(8)
O15 O -0.095(3) -0.5208(15) 0.5575(14)
O16 O -0.109(3) -0.4803(11) 0.6738(12)
O17 O -0.329(2) -0.5166(12) 0.5873(14)
O18 O -0.414(3) 0.5144(17) 0.1028(18)
O19 O -0.206(7) 0.5170(16) 0.206(2)
O20 O -0.160(4) 0.5309(16) 0.0817(18)
O21 O -0.218(4) 0.6392(15) 0.140(3)
O22 O 0.0495(16) -0.0615(8) 0.0744(8)
O23 O -0.1915(17) -0.0476(10) 0.0137(9)
O24 O 0.6196(15) -0.0014(8) 0.1444(7)
H25 H 0.6598 -0.0167 0.1065
H26 H 0.6948 0.0261 0.1761
O25 O 0.4476(14) 0.0129(10) 0.4217(9)
H27 H 0.4679 -0.0170 0.3860
O26 O -0.020(3) -0.0101(10) 0.2737(8)
H28 H -0.0282 -0.0540 0.2469
C34 C 0.204(5) -0.269(2) 0.2661(15)
H29 H 0.0997 -0.2604 0.2739
C35 C 0.241(3) -0.346(3) 0.2635(19)
H30 H 0.1581 -0.3892 0.2664
C36 C 0.505(3) -0.3007(14) 0.242(2)
H31 H 0.6065 -0.3094 0.2312
C37 C 0.438(3) -0.2273(18) 0.2144(19)
H32 H 0.4926 -0.1913 0.1835
Eu1A Eu 0.67078(11) -0.01684(5) -0.11256(5)
Eu1A_2 Eu -0.32922(11) -0.01684(5) -0.11256(5)
Eu1_2 Eu 0.32922(11) 1.01684(5) 0.11256(5)
Eu2A Eu -0.15437(11) -0.00246(6) 0.60251(5)
Eu2_2 Eu 0.15437(11) 1.00246(6) 0.39749(5)
Eu2A_2 Eu 0.84563(11) -0.00246(6) -0.39749(5)
Ag1A Ag -0.2273(3) 0.48392(11) 0.40783(15)
Ag1_2 Ag 0.2273(3) 0.51608(11) 0.59217(15)
Ag1A_2 Ag -0.2273(3) -0.51608(11) 0.40783(15)
Ag2_2 Ag 0.4402(3) -0.48447(12) 0.26425(16)
Ag2A Ag 0.5598(3) -0.51553(12) -0.26425(16)
Ag3A Ag 0.8452(3) 0.49032(12) -0.08270(16)
Ag3_2 Ag 0.1548(3) -0.49032(12) 0.08270(16)
Ag3A_2 Ag 0.8452(3) -0.50968(12) -0.08270(16)
C1A C -0.278(4) 0.3125(14) 0.4681(18)
H5A H -0.3242 0.3397 0.5053
C2A C -0.268(4) 0.2334(16) 0.477(2)
H6A H -0.3202 0.2055 0.5141
C3A C -0.182(2) 0.1972(11) 0.4304(12)
C4A C -0.118(3) 0.2400(12) 0.3702(14)
H7A H -0.0581 0.2161 0.3366
C5A C -0.144(3) 0.3175(13) 0.3619(14)
H8A H -0.1024 0.3453 0.3218
C6A C -0.138(2) 0.1133(11) 0.4457(10)
C7A C -0.327(3) -0.3542(13) 0.4556(15)
H9A H -0.3952 -0.3877 0.4836
C8A C -0.316(3) -0.2720(13) 0.4692(15)
H10A H -0.3738 -0.2506 0.5054
C9A C -0.217(3) -0.2236(13) 0.4270(15)
C10A C -0.143(4) -0.2576(15) 0.3734(17)
H11A H -0.0775 -0.2250 0.3438
C11A C -0.162(4) -0.3393(16) 0.3613(19)
H12A H -0.1143 -0.3611 0.3213
C12A C -0.192(2) -0.1317(12) 0.4472(12)
C13A C 0.967(2) -0.1393(12) -0.1565(11)
C14A C 0.947(2) -0.2263(12) -0.1360(13)
C15A C 1.038(3) -0.2787(13) -0.1644(14)
H13A H 1.1182 -0.2601 -0.1949
C16A C 1.012(3) -0.3567(14) -0.1488(16)
H14A H 1.0748 -0.3910 -0.1696
C17A C 0.817(4) -0.3348(15) -0.0751(19)
H15A H 0.7392 -0.3547 -0.0438
C18A C 0.836(3) -0.2549(14) -0.0868(16)
H16A H 0.7767 -0.2212 -0.0629
C19A C 0.629(2) -0.1304(11) -0.2780(11)
C20A C 0.597(2) -0.2212(10) -0.2770(11)
C21A C 0.672(4) -0.2683(14) -0.3234(17)
H17A H 0.7338 -0.2446 -0.3599
C22A C 0.657(4) -0.3472(14) -0.3168(17)
H18A H 0.7172 -0.3764 -0.3454
C23A C 0.478(4) -0.3434(14) -0.2266(17)
H19A H 0.4070 -0.3694 -0.1948
C24A C 0.498(3) -0.2605(13) -0.2277(13)
H20A H 0.4453 -0.2313 -0.1952
C25A C 0.421(2) -0.1361(11) -0.0143(11)
C26A C 0.352(2) -0.2197(11) 0.0055(12)
C27A C 0.422(3) -0.2849(13) -0.0120(15)
H21A H 0.5103 -0.2788 -0.0406
C28A C 0.364(3) -0.3591(13) 0.0123(17)
H22A H 0.4172 -0.4016 0.0014
C29A C 0.164(3) -0.3092(14) 0.0664(14)
H23A H 0.0724 -0.3181 0.0926
C30A C 0.214(2) -0.2334(12) 0.0472(12)
H24A H 0.1608 -0.1917 0.0607
C31_2 C 0.279(2) 0.8771(12) 0.2569(12)
C32_2 C 0.327(2) 0.7951(13) 0.2566(10)
C33A C 0.046(2) 0.0320(11) -0.0267(12)
Cl1A Cl 1.2482(10) 0.4450(5) -0.1362(5)
N1A N -0.225(2) 0.3531(11) 0.4085(13)
N2A N -0.247(3) -0.3887(12) 0.4054(13)
N2_2 N 0.247(3) -0.6113(12) 0.5946(13)
N2A_2 N -0.247(3) 0.6113(12) 0.4054(13)
N3A N 0.557(3) -0.3868(11) -0.2699(13)
N3_2 N 0.443(3) -0.6132(11) 0.2699(13)
N4A N 0.899(3) -0.3863(10) -0.1040(13)
N4A_2 N 0.899(3) 0.6137(10) -0.1040(13)
N5_2 N 0.402(3) 0.6392(12) 0.2567(13)
N6A N 0.235(3) -0.3728(10) 0.0510(12)
N6A_2 N 0.235(3) 0.6272(10) 0.0510(12)
N7A N 0.176(2) -0.4995(11) 0.3947(11)
O3A O -0.210(2) 0.0792(9) 0.4968(9)
O4A O -0.0428(18) 0.0895(9) 0.4079(9)
O5A O -0.2643(17) -0.1062(8) 0.4967(8)
O6A O -0.0893(16) -0.0892(8) 0.4099(9)
O7A O 0.8568(18) -0.1022(9) -0.1408(9)
O8A O 1.0883(18) -0.1115(9) -0.1873(10)
O9A O 0.5100(17) -0.1328(8) -0.0689(8)
O10A O 0.383(2) -0.0777(10) 0.0211(9)
O11A O 0.7269(18) -0.1032(9) -0.3213(9)
O11A_2 O -0.2731(18) -0.1032(9) 0.6787(9)
O12A O 0.5583(17) -0.0914(8) -0.2321(8)
O13_2 O 0.2192(18) 0.8986(8) 0.3166(8)
O13A O -0.2192(18) 0.1014(8) 0.6834(8)
O14_2 O 0.3005(18) 0.9136(8) 0.1982(8)
O14A O 0.6995(18) 0.0864(8) -0.1982(8)
O15A O 0.095(3) -0.4792(15) 0.4425(14)
O15A_2 O 0.095(3) 0.5208(15) 0.4425(14)
O15_2 O -0.095(3) 0.4792(15) 0.5575(14)
O16A O 0.109(3) -0.5197(11) 0.3262(12)
O17A O 0.329(2) -0.4834(12) 0.4127(14)
O18A O 1.414(3) 0.4856(17) -0.1028(18)
O19A O 1.206(7) 0.4830(16) -0.206(2)
O20A O 1.160(4) 0.4691(16) -0.0817(18)
O21A O 1.218(4) 0.3608(15) -0.140(3)
O22A O -0.0495(16) 0.0615(8) -0.0744(8)
O22A_2 O 0.9505(16) 0.0615(8) -0.0744(8)
O23A O 0.1915(17) 0.0476(10) -0.0137(9)
O23_2 O 0.8085(17) -0.0476(10) 0.0137(9)
O24A O 0.3804(15) 0.0014(8) -0.1444(7)
H25A H 0.3402 0.0167 -0.1065
H26A H 0.3052 -0.0261 -0.1761
O25A O -0.4476(14) -0.0129(10) 0.5783(9)
H27A H -0.4679 0.0170 0.6140
O26A O 0.020(3) 0.0101(10) 0.7263(8)
H28A H 0.0282 0.0540 0.7531
C34_2 C 0.204(5) 0.731(2) 0.2661(15)
H29_2 H 0.0997 0.7396 0.2739
C35_2 C 0.241(3) 0.654(3) 0.2635(19)
H30_2 H 0.1581 0.6108 0.2664
C36_2 C 0.505(3) 0.6993(14) 0.242(2)
H31_2 H 0.6065 0.6906 0.2312
C37_2 C 0.438(3) 0.7727(18) 0.2144(19)
H32_2 H 0.4926 0.8087 0.1835
O1 O 0.6256(19) 0.9644(12) 0.3146(9)
H1 H 0.6358 1.0119 0.3013
H2 H 0.7194 0.9547 0.3269
H33? H 0.3989 -0.0120 0.4528
H34? H 0.0729 0.0204 0.2674
C38? C -0.261(4) 0.261(2) -0.3050(19)
C39? C -0.297(4) 0.335(3) -0.308(2)
C40? C -0.471(4) 0.3070(16) -0.2173(19)
C41? C -0.473(3) 0.2207(18) -0.2420(19)
H35? H -0.1868 0.2465 -0.3368
H36? H -0.2543 0.3693 -0.3433
H37? H -0.5491 0.3207 -0.1878
H38? H -0.5536 0.1790 -0.2316
loop_
_geom_bond_atom_site_label_1
_geom_bond_atom_site_label_2
_geom_bond_site_symmetry_1
_geom_bond_site_symmetry_2
O1 H1 1_555 1_555
H2 O1 1_555 1_555
O2 H3 1_555 1_555
H4 O2 1_555 1_555
Eu1 O7 1_555 1_555
Eu2 O3 1_555 1_555
Ag1 N1 1_555 1_555
Ag2 N3 1_555 1_555
Ag3 N4 1_555 1_555
C1 H5 1_555 1_555
C2 C1 1_555 1_555
H6 C2 1_555 1_555
C3 C2 1_555 1_555
C4 C3 1_555 1_555
H7 C4 1_555 1_555
C5 C4 1_555 1_555
H8 C5 1_555 1_555
C6 C3 1_555 1_555
C7 H9 1_555 1_555
C8 C7 1_555 1_555
H10 C8 1_555 1_555
C9 C8 1_555 1_555
C10 C9 1_555 1_555
H11 C10 1_555 1_555
C11 C10 1_555 1_555
H12 C11 1_555 1_555
C12 C9 1_555 1_555
C13 C14 1_555 1_555
C14 C15 1_555 1_555
C15 H13 1_555 1_555
C16 C15 1_555 1_555
H14 C16 1_555 1_555
C17 H15 1_555 1_555
C18 C14 1_555 1_555
H16 C18 1_555 1_555
C19 C20 1_555 1_555
C20 C21 1_555 1_555
C21 H17 1_555 1_555
C22 C21 1_555 1_555
H18 C22 1_555 1_555
C23 H19 1_555 1_555
C24 C20 1_555 1_555
H20 C24 1_555 1_555
C25 C26 1_555 1_555
C26 C27 1_555 1_555
C27 H21 1_555 1_555
C28 C27 1_555 1_555
H22 C28 1_555 1_555
C29 H23 1_555 1_555
C30 C26 1_555 1_555
H24 C30 1_555 1_555
C31 C32 1_555 1_555
C32 C34 1_555 1_555
C33 O22 1_555 1_555
Cl1 O18 1_555 1_555
N1 C1 1_555 1_555
N2 C7 1_555 1_555
N3 C22 1_555 1_555
N4 C16 1_555 1_555
N5 C35 1_555 1_555
N6 C28 1_555 1_555
N7 O15 1_555 1_555
O3 C6 1_555 1_555
O4 C6 1_555 1_555
O5 Eu2 1_555 1_555
O6 C12 1_555 1_555
O7 C13 1_555 1_555
O8 C13 1_555 1_555
O9 Eu1 1_555 1_555
O10 C25 1_555 1_555
O11 Eu2 1_555 1_555
O12 Eu1 1_555 1_555
O13 Eu2 1_555 1_555
O14 Eu1 1_555 1_555
O15 Ag1 1_555 1_555
O16 N7 1_555 1_555
O17 N7 1_555 1_555
O19 Cl1 1_555 1_555
O20 Ag3 1_555 1_555
O21 Cl1 1_555 1_555
O22 Eu1 1_555 1_555
O23 C33 1_555 1_555
O24 Eu1 1_555 1_555
H25 O24 1_555 1_555
H26 O24 1_555 1_555
O25 Eu2 1_555 1_555
H27 O25 1_555 1_555
O26 Eu2 1_555 1_555
H28 O26 1_555 1_555
C34 H29 1_555 1_555
C35 C34 1_555 1_555
H30 C35 1_555 1_555
C36 N5 1_555 1_555
H31 C36 1_555 1_555
C37 C32 1_555 1_555
H32 C37 1_555 1_555
Eu1A O10 1_555 1_555
Eu1A_2 O23 1_555 1_555
Eu1_2 O14_2 1_555 1_555
Eu2A O4 1_555 1_555
Eu2_2 O13_2 1_555 1_555
Eu2A_2 O11A 1_555 1_555
Ag1A N1A 1_555 1_555
Ag1_2 N2 1_555 1_555
Ag1A_2 O15 1_555 1_555
Ag2_2 N5 1_555 1_555
Ag2A N3A 1_555 1_555
Ag3A N6 1_555 1_555
Ag3_2 N6A 1_555 1_555
Ag3A_2 N4A 1_555 1_555
C1A H5A 1_555 1_555
C2A C1A 1_555 1_555
H6A C2A 1_555 1_555
C3A C2A 1_555 1_555
C4A C3A 1_555 1_555
H7A C4A 1_555 1_555
C5A C4A 1_555 1_555
H8A C5A 1_555 1_555
C6A C3A 1_555 1_555
C7A H9A 1_555 1_555
C8A C7A 1_555 1_555
H10A C8A 1_555 1_555
C9A C8A 1_555 1_555
C10A C9A 1_555 1_555
H11A C10A 1_555 1_555
C11A C10A 1_555 1_555
H12A C11A 1_555 1_555
C12A C9A 1_555 1_555
C13A C14A 1_555 1_555
C14A C15A 1_555 1_555
C15A H13A 1_555 1_555
C16A C15A 1_555 1_555
H14A C16A 1_555 1_555
C17A H15A 1_555 1_555
C18A C14A 1_555 1_555
H16A C18A 1_555 1_555
C19A C20A 1_555 1_555
C20A C21A 1_555 1_555
C21A H17A 1_555 1_555
C22A C21A 1_555 1_555
H18A C22A 1_555 1_555
C23A H19A 1_555 1_555
C24A C20A 1_555 1_555
H20A C24A 1_555 1_555
C25A C26A 1_555 1_555
C26A C27A 1_555 1_555
C27A H21A 1_555 1_555
C28A C27A 1_555 1_555
H22A C28A 1_555 1_555
C29A H23A 1_555 1_555
C30A C26A 1_555 1_555
H24A C30A 1_555 1_555
C31_2 C32_2 1_555 1_555
C32_2 C34_2 1_555 1_555
C33A C33 1_555 1_555
Cl1A O18A 1_555 1_555
N1A C1A 1_555 1_555
N2A Ag1A_2 1_555 1_555
N2_2 Ag1 1_555 1_555
N2A_2 Ag1A 1_555 1_555
N3A C22A 1_555 1_555
N3_2 Ag2_2 1_555 1_555
N4A C16A 1_555 1_555
N4A_2 Ag3A 1_555 1_555
N5_2 Ag2 1_555 1_555
N6A C28A 1_555 1_555
N6A_2 Ag3 1_555 1_555
N7A O15A 1_555 1_555
O3A Eu2A 1_555 1_555
O4A Eu2 1_555 1_555
O5A Eu2A 1_555 1_555
O6A Eu2 1_555 1_555
O7A Eu1A 1_555 1_555
O8A C13A 1_555 1_555
O9A Eu1A 1_555 1_555
O10A Eu1 1_555 1_555
O11A C19A 1_555 1_555
O11A_2 Eu2A 1_555 1_555
O12A Eu1A 1_555 1_555
O13_2 C31_2 1_555 1_555
O13A Eu2A 1_555 1_555
O14_2 C31_2 1_555 1_555
O14A Eu1A 1_555 1_555
O15A Ag1 1_555 1_555
O15A_2 Ag1A 1_555 1_555
O15_2 Ag1A 1_555 1_555
O16A N7A 1_555 1_555
O17A N7A 1_555 1_555
O19A Cl1A 1_555 1_555
O20A Ag3A 1_555 1_555
O21A Cl1A 1_555 1_555
O22A Eu1A_2 1_555 1_555
O22A_2 Eu1A 1_555 1_555
O23A Eu1 1_555 1_555
O23_2 Eu1A 1_555 1_555
O24A Eu1A 1_555 1_555
H25A O24A 1_555 1_555
H26A O24A 1_555 1_555
O25A Eu2A 1_555 1_555
H27A O25A 1_555 1_555
O26A Eu2A 1_555 1_555
H28A O26A 1_555 1_555
C34_2 H29_2 1_555 1_555
C35_2 N5_2 1_555 1_555
H30_2 C35_2 1_555 1_555
C36_2 N5_2 1_555 1_555
H31_2 C36_2 1_555 1_555
C37_2 C32_2 1_555 1_555
H32_2 C37_2 1_555 1_555
C5 N1 1_555 1_555
C11 N2 1_555 1_555
C12 O5 1_555 1_555
C17 C18 1_555 1_555
C17 N4 1_555 1_555
C19 O11 1_555 1_555
C19 O12 1_555 1_555
C23 C24 1_555 1_555
C23 N3 1_555 1_555
C25 O9 1_555 1_555
C29 C30 1_555 1_555
C29 N6 1_555 1_555
C31 O13 1_555 1_555
C31 O14 1_555 1_555
Cl1 O20 1_555 1_555
O6 Eu2A 1_555 1_555
C36 C37 1_555 1_555
Ag1_2 O15A_2 1_555 1_555
Ag1_2 O15_2 1_555 1_555
Ag1A_2 O15A 1_555 1_555
C5A N1A 1_555 1_555
C6A O3A 1_555 1_555
C6A O4A 1_555 1_555
C7A N2A 1_555 1_555
C11A N2A 1_555 1_555
C12A O5A 1_555 1_555
C12A O6A 1_555 1_555
C13A O7A 1_555 1_555
C17A C18A 1_555 1_555
C17A N4A 1_555 1_555
C19A O12A 1_555 1_555
C23A C24A 1_555 1_555
C23A N3A 1_555 1_555
C25A O9A 1_555 1_555
C25A O10A 1_555 1_555
C29A C30A 1_555 1_555
C29A N6A 1_555 1_555
C33A O22A 1_555 1_555
C33A O23A 1_555 1_555
Cl1A O20A 1_555 1_555
C34_2 C35_2 1_555 1_555
C36_2 C37_2 1_555 1_555

#END
