
#######################################################################
#
#                 Cambridge Crystallographic Data Centre
#                                CCDC 
#
#######################################################################
#
# If this CIF has been generated from an entry in the Cambridge 
# Structural Database, then it will include bibliographic, chemical, 
# crystal, experimental, refinement or atomic coordinate data resulting 
# from the CCDC's data processing and validation procedures.
#
#######################################################################

data_KUYJAQ
_symmetry_cell_setting           trigonal
_symmetry_space_group_name_H-M   'P -3'
_symmetry_Int_Tables_number      147
_space_group_name_Hall           '-P 3'
loop_
_symmetry_equiv_pos_site_id
_symmetry_equiv_pos_as_xyz
1 x,y,z
2 -y,x-y,z
3 -x+y,-x,z
4 -x,-y,-z
5 y,-x+y,-z
6 x-y,x,-z
_cell_length_a                   13.9739(2)
_cell_length_b                   13.9739(2)
_cell_length_c                   8.11880(10)
_cell_angle_alpha                90
_cell_angle_beta                 90
_cell_angle_gamma                120
_cell_volume                     1372.96
loop_
_atom_site_label
_atom_site_type_symbol
_atom_site_fract_x
_atom_site_fract_y
_atom_site_fract_z
Mg1 Mg 0.77826(11) 0.01439(11) 0.39889(18)
O1 O 0.7487(3) 0.1240(2) 0.5146(4)
O2 O 0.9488(2) 0.1369(2) 0.3855(4)
O3 O 0.8983(2) 0.2838(2) 0.5780(4)
O4 O 0.7459(3) 0.0733(3) 0.1779(4)
C1 C 0.7301(3) 0.2815(3) 0.5313(5)
C2 C 0.6154(3) 0.2191(3) 0.5310(5)
H1 H 0.5809 0.1423 0.5307
C3 C 1.0034(3) 0.1485(3) 0.2561(5)
H2 H 0.9631 0.1231 0.1590
C4 C 0.7986(3) 0.2259(3) 0.5408(5)
N1 N 0.6441(4) 0.0408(4) -0.0535(5)
C5 C 0.6876(4) 0.0111(4) 0.0655(6)
H3 H 0.6738 -0.0612 0.0656
C6 C 0.5833(5) -0.0326(6) -0.1892(7)
H4 H 0.5853 -0.1000 -0.1790
H5 H 0.6165 0.0025 -0.2918
H6 H 0.5079 -0.0488 -0.1864
C7 C 0.6642(6) 0.1535(6) -0.0614(8)
H7 H 0.6850 0.1869 0.0456
H8 H 0.5982 0.1525 -0.0968
H9 H 0.7227 0.1954 -0.1383
O5 O 1.1048(3) 0.1900(3) 0.2443(4)
Mg1A Mg 0.98561(11) 0.76387(16) 0.39889(18)
Mg1B Mg 0.23613(16) 0.22174(11) 0.39889(18)
Mg1D Mg 1.01439(11) 0.23613(16) 0.60111(18)
Mg1B_2 Mg 1.23613(16) 0.22174(11) 0.39889(18)
Mg1E Mg 0.76387(16) 0.77826(11) 0.60111(18)
Mg1C Mg 0.22174(11) -0.01439(11) 0.60111(18)
Mg1E_2 Mg 0.76387(16) -0.22174(11) 0.60111(18)
Mg1A_2 Mg 0.98561(11) -0.23613(16) 0.39889(18)
O1A O 0.8760(2) 0.6247(4) 0.5146(4)
O1B O 0.3753(4) 0.2513(3) 0.5146(4)
O2E O 0.8119(3) -0.0512(2) 0.6145(4)
O2A O 0.8631(2) -0.1881(3) 0.3855(4)
O2A_2 O 0.8631(2) 0.8119(3) 0.3855(4)
O2C O 1.0512(2) 0.8631(2) 0.6145(4)
O2B O 0.1881(3) 0.0512(2) 0.3855(4)
O2D O 0.1369(2) 0.1881(3) 0.6145(4)
O3A O 0.7162(2) 0.6145(3) 0.5780(4)
O3B O 0.3855(3) 0.1017(2) 0.5780(4)
O3E O 0.6145(3) -0.1017(2) 0.4220(4)
O3C O 1.1017(2) 0.7162(2) 0.4220(4)
O3D O 0.2838(2) 0.3855(3) 0.4220(4)
O4A O 0.9267(3) 0.6726(4) 0.1779(4)
O4B O 0.3274(4) 0.2541(3) 0.1779(4)
C1B C 0.5514(4) 0.2699(3) 0.5313(5)
C1A C 0.7185(3) 0.4486(4) 0.5313(5)
C2B C 0.6037(4) 0.3846(3) 0.5310(5)
C2A C 0.7809(3) 0.3963(4) 0.5310(5)
H1A H 0.8577 0.4386 0.5307
H1B H 0.5614 0.4191 0.5307
C3E C 0.8549(4) 0.0034(3) 0.7439(5)
C3A C 0.8515(3) -0.1451(4) 0.2561(5)
H2E H 0.8400 -0.0369 0.8410
H2A H 0.8769 -0.1600 0.1590
C4A C 0.7741(3) 0.5727(4) 0.5408(5)
C4B C 0.4273(4) 0.2014(3) 0.5408(5)
N1A N 0.9592(4) 0.6033(6) -0.0535(5)
N1B N 0.3967(6) 0.3559(4) -0.0535(5)
C5A C 0.9889(4) 0.6765(6) 0.0655(6)
C5B C 0.3235(6) 0.3124(4) 0.0655(6)
H3A H 1.0612 0.7350 0.0656
H3B H 0.2650 0.3262 0.0656
C6A C 1.0326(6) 0.6159(8) -0.1892(7)
C6B C 0.3841(8) 0.4167(5) -0.1892(7)
H4A H 1.1000 0.6853 -0.1790
H4B H 0.3147 0.4147 -0.1790
H5A H 0.9975 0.6140 -0.2918
H5B H 0.3860 0.3835 -0.2918
H6A H 1.0488 0.5567 -0.1864
H6B H 0.4433 0.4921 -0.1864
C7A C 0.8465(6) 0.5107(8) -0.0614(8)
C7B C 0.4893(8) 0.3358(6) -0.0614(8)
H7A H 0.8131 0.4981 0.0456
H7B H 0.5019 0.3150 0.0456
H8A H 0.8475 0.4457 -0.0968
H8B H 0.5543 0.4018 -0.0968
H9A H 0.8046 0.5273 -0.1383
H9B H 0.4727 0.2773 -0.1383
O5E O 0.9148(4) 0.1048(3) 0.7557(4)
O5A O 0.8100(3) -0.0852(4) 0.2443(4)
O5B O 1.0852(4) 0.8952(3) 0.2443(4)
O5_2 O 0.1048(3) 0.1900(3) 0.2443(4)
loop_
_geom_bond_atom_site_label_1
_geom_bond_atom_site_label_2
_geom_bond_site_symmetry_1
_geom_bond_site_symmetry_2
Mg1 O1 1_555 1_555
O1 C4 1_555 1_555
O2 Mg1 1_555 1_555
O3 C4 1_555 1_555
O4 Mg1 1_555 1_555
C1 C2 1_555 1_555
C2 H1 1_555 1_555
C3 O2 1_555 1_555
H2 C3 1_555 1_555
C4 C1 1_555 1_555
N1 C5 1_555 1_555
C5 O4 1_555 1_555
H3 C5 1_555 1_555
C6 N1 1_555 1_555
H4 C6 1_555 1_555
H5 C6 1_555 1_555
H6 C6 1_555 1_555
C7 N1 1_555 1_555
H7 C7 1_555 1_555
H8 C7 1_555 1_555
H9 C7 1_555 1_555
O5 C3 1_555 1_555
Mg1A O1A 1_555 1_555
Mg1B O1B 1_555 1_555
Mg1D O2 1_555 1_555
Mg1B_2 O5 1_555 1_555
Mg1E O2A_2 1_555 1_555
Mg1C O2B 1_555 1_555
Mg1E_2 O2E 1_555 1_555
Mg1A_2 O2A 1_555 1_555
O1A C4A 1_555 1_555
O1B C4B 1_555 1_555
O2E Mg1 1_555 1_555
O2A Mg1E_2 1_555 1_555
O2A_2 Mg1A 1_555 1_555
O2C Mg1A 1_555 1_555
O2B Mg1B 1_555 1_555
O2D Mg1B 1_555 1_555
O3A Mg1E 1_555 1_555
O3B Mg1C 1_555 1_555
O3E Mg1 1_555 1_555
O3C Mg1A 1_555 1_555
O3D Mg1B 1_555 1_555
O4A Mg1A 1_555 1_555
O4B Mg1B 1_555 1_555
C1B C2 1_555 1_555
C1A C2B 1_555 1_555
C2B C1B 1_555 1_555
C2A C1 1_555 1_555
H1A C2A 1_555 1_555
H1B C2B 1_555 1_555
C3E O2E 1_555 1_555
C3A O2A 1_555 1_555
H2E C3E 1_555 1_555
H2A C3A 1_555 1_555
C4A O3A 1_555 1_555
C4B O3B 1_555 1_555
N1A C5A 1_555 1_555
N1B C5B 1_555 1_555
C5A O4A 1_555 1_555
C5B O4B 1_555 1_555
H3A C5A 1_555 1_555
H3B C5B 1_555 1_555
C6A N1A 1_555 1_555
C6B N1B 1_555 1_555
H4A C6A 1_555 1_555
H4B C6B 1_555 1_555
H5A C6A 1_555 1_555
H5B C6B 1_555 1_555
H6A C6A 1_555 1_555
H6B C6B 1_555 1_555
C7A N1A 1_555 1_555
C7B N1B 1_555 1_555
H7A C7A 1_555 1_555
H7B C7B 1_555 1_555
H8A C7A 1_555 1_555
H8B C7B 1_555 1_555
H9A C7A 1_555 1_555
H9B C7B 1_555 1_555
O5E Mg1D 1_555 1_555
O5A Mg1 1_555 1_555
O5B Mg1A 1_555 1_555
O5_2 Mg1B 1_555 1_555
O3 Mg1D 1_555 1_555
C1B C4B 1_555 1_555
C1A C2A 1_555 1_555
C1A C4A 1_555 1_555
C3E O5E 1_555 1_555
C3A O5A 1_555 1_555

#END
