
#######################################################################
#
#                 Cambridge Crystallographic Data Centre
#                                CCDC 
#
#######################################################################
#
# If this CIF has been generated from an entry in the Cambridge 
# Structural Database, then it will include bibliographic, chemical, 
# crystal, experimental, refinement or atomic coordinate data resulting 
# from the CCDC's data processing and validation procedures.
#
#######################################################################

data_KUYLEW
_symmetry_cell_setting           triclinic
_symmetry_space_group_name_H-M   'P -1'
_symmetry_Int_Tables_number      2
_space_group_name_Hall           '-P 1'
loop_
_symmetry_equiv_pos_site_id
_symmetry_equiv_pos_as_xyz
1 x,y,z
2 -x,-y,-z
_cell_length_a                   8.6142(10)
_cell_length_b                   9.0554(10)
_cell_length_c                   12.1094(13)
_cell_angle_alpha                99.688(2)
_cell_angle_beta                 106.542(2)
_cell_angle_gamma                98.184(2)
_cell_volume                     874.304
loop_
_atom_site_label
_atom_site_type_symbol
_atom_site_fract_x
_atom_site_fract_y
_atom_site_fract_z
Cu1 Cu 0.32660(3) 0.82971(3) 0.58802(2)
P1 P 0.32369(6) 1.03977(6) 0.85348(4)
P2 P -0.33649(6) 1.05190(6) 0.64714(4)
O1 O 0.31787(17) 1.03279(17) 0.72590(12)
O2 O 0.33003(18) 0.88390(17) 0.88644(13)
H1 H 0.3720 0.8969 0.9599
O3 O 0.46333(18) 1.16671(18) 0.94061(13)
O4 O -0.43602(17) 0.89210(17) 0.62759(13)
O5 O -0.44080(17) 1.17467(17) 0.67394(13)
H2 H -0.5181 1.1348 0.6956
O6 O -0.26911(17) 1.08135(18) 0.54895(13)
N1 N 0.0864(2) 0.7410(2) 0.55889(15)
N2 N 0.3570(2) 0.6720(2) 0.68729(15)
C1 C 0.1322(2) 1.0872(2) 0.86658(17)
C2 C -0.0105(2) 1.0504(2) 0.76856(17)
H3 H -0.0062 1.0002 0.6943
C3 C -0.1596(2) 1.0864(2) 0.77792(17)
C4 C -0.1667(2) 1.1571(2) 0.88791(18)
H4 H -0.2678 1.1808 0.8953
C5 C -0.0249(3) 1.1930(2) 0.98692(18)
H5 H -0.0298 1.2404 1.0617
C6 C 0.1235(2) 1.1592(2) 0.97584(18)
H6 H 0.2198 1.1853 1.0431
C7 C -0.0474(3) 0.7773(2) 0.49048(18)
H7 H -0.0340 0.8447 0.4401
C8 C -0.2076(3) 0.7190(3) 0.49042(19)
H8 H -0.3007 0.7471 0.4408
C9 C -0.2286(3) 0.6210(3) 0.56286(19)
H9 H -0.3364 0.5812 0.5636
C10 C -0.0895(3) 0.5798(2) 0.63595(18)
C11 C 0.0661(2) 0.6437(2) 0.62948(18)
C12 C -0.0956(3) 0.4795(3) 0.7153(2)
H10 H -0.1994 0.4363 0.7209
C13 C 0.0445(3) 0.4451(3) 0.78248(19)
H11 H 0.0370 0.3798 0.8353
C14 C 0.2038(3) 0.5059(2) 0.77509(18)
C15 C 0.2133(3) 0.6059(2) 0.69964(18)
C16 C 0.3533(3) 0.4700(3) 0.83802(19)
H12 H 0.3534 0.4010 0.8891
C17 C 0.4990(3) 0.5359(3) 0.82459(19)
H13 H 0.6005 0.5120 0.8659
C18 C 0.4971(3) 0.6387(2) 0.74959(18)
H14 H 0.5988 0.6860 0.7430
Cu1A Cu -0.32660(3) 1.17029(3) 0.41198(2)
Cu1_2 Cu -0.67340(3) 0.82971(3) 0.58802(2)
Cu1A_2 Cu 0.67340(3) 1.17029(3) 0.41198(2)
P1A P -0.32369(6) 0.96023(6) 0.14652(4)
P2A P 0.33649(6) 0.94810(6) 0.35286(4)
O1A O -0.31787(17) 0.96721(17) 0.27410(12)
O2A O -0.33003(18) 1.11610(17) 0.11356(13)
H1A H -0.3720 1.1031 0.0401
O3A O -0.46333(18) 0.83329(18) 0.05939(13)
O4A O 0.43602(17) 1.10790(17) 0.37241(13)
O4_2 O 0.56398(17) 0.89210(17) 0.62759(13)
O4A_2 O -0.56398(17) 1.10790(17) 0.37241(13)
O5A O 0.44080(17) 0.82533(17) 0.32606(13)
H2A H 0.5181 0.8652 0.3044
O6A O 0.26911(17) 0.91865(18) 0.45105(13)
N1A N -0.0864(2) 1.2590(2) 0.44111(15)
N2A N -0.3570(2) 1.3280(2) 0.31271(15)
C1A C -0.1322(2) 0.9128(2) 0.13342(17)
C2A C 0.0105(2) 0.9496(2) 0.23144(17)
H3A H 0.0062 0.9998 0.3057
C3A C 0.1596(2) 0.9136(2) 0.22208(17)
C4A C 0.1667(2) 0.8429(2) 0.11209(18)
H4A H 0.2678 0.8192 0.1047
C5A C 0.0249(3) 0.8070(2) 0.01308(18)
H5A H 0.0298 0.7596 -0.0617
C6A C -0.1235(2) 0.8408(2) 0.02416(18)
H6A H -0.2198 0.8147 -0.0431
C7A C 0.0474(3) 1.2227(2) 0.50952(18)
H7A H 0.0340 1.1553 0.5599
C8A C 0.2076(3) 1.2810(3) 0.50958(19)
H8A H 0.3007 1.2529 0.5592
C9A C 0.2286(3) 1.3790(3) 0.43714(19)
H9A H 0.3364 1.4188 0.4364
C10A C 0.0895(3) 1.4202(2) 0.36405(18)
C11A C -0.0661(2) 1.3563(2) 0.37052(18)
C12A C 0.0956(3) 1.5205(3) 0.2847(2)
H10A H 0.1994 1.5637 0.2791
C13A C -0.0445(3) 1.5549(3) 0.21752(19)
H11A H -0.0370 1.6202 0.1647
C14A C -0.2038(3) 1.4941(2) 0.22491(18)
C15A C -0.2133(3) 1.3941(2) 0.30036(18)
C16A C -0.3533(3) 1.5300(3) 0.16198(19)
H12A H -0.3534 1.5990 0.1109
C17A C -0.4990(3) 1.4641(3) 0.17541(19)
H13A H -0.6005 1.4880 0.1341
C18A C -0.4971(3) 1.3613(2) 0.25041(18)
H14A H -0.5988 1.3140 0.2570
loop_
_geom_bond_atom_site_label_1
_geom_bond_atom_site_label_2
_geom_bond_site_symmetry_1
_geom_bond_site_symmetry_2
Cu1 O1 1_555 1_555
P1 O1 1_555 1_555
P2 O4 1_555 1_555
O2 P1 1_555 1_555
H1 O2 1_555 1_555
O3 P1 1_555 1_555
O4 Cu1_2 1_555 1_555
O5 P2 1_555 1_555
H2 O5 1_555 1_555
O6 P2 1_555 1_555
N1 Cu1 1_555 1_555
N2 Cu1 1_555 1_555
C1 P1 1_555 1_555
C2 C1 1_555 1_555
H3 C2 1_555 1_555
C3 P2 1_555 1_555
C4 C3 1_555 1_555
H4 C4 1_555 1_555
C5 C4 1_555 1_555
H5 C5 1_555 1_555
C6 C1 1_555 1_555
H6 C6 1_555 1_555
C7 N1 1_555 1_555
H7 C7 1_555 1_555
C8 C7 1_555 1_555
H8 C8 1_555 1_555
C9 C8 1_555 1_555
H9 C9 1_555 1_555
C10 C9 1_555 1_555
C11 N1 1_555 1_555
C12 C10 1_555 1_555
H10 C12 1_555 1_555
C13 C12 1_555 1_555
H11 C13 1_555 1_555
C14 C13 1_555 1_555
C15 N2 1_555 1_555
C16 C14 1_555 1_555
H12 C16 1_555 1_555
C17 C16 1_555 1_555
H13 C17 1_555 1_555
C18 N2 1_555 1_555
H14 C18 1_555 1_555
Cu1A O6 1_555 1_555
Cu1A_2 O4A 1_555 1_555
P1A O1A 1_555 1_555
P2A O4A 1_555 1_555
O1A Cu1A 1_555 1_555
O2A P1A 1_555 1_555
H1A O2A 1_555 1_555
O3A P1A 1_555 1_555
O4_2 Cu1 1_555 1_555
O4A_2 Cu1A 1_555 1_555
O5A P2A 1_555 1_555
H2A O5A 1_555 1_555
O6A Cu1 1_555 1_555
N1A Cu1A 1_555 1_555
N2A Cu1A 1_555 1_555
C1A P1A 1_555 1_555
C2A C1A 1_555 1_555
H3A C2A 1_555 1_555
C3A P2A 1_555 1_555
C4A C3A 1_555 1_555
H4A C4A 1_555 1_555
C5A C4A 1_555 1_555
H5A C5A 1_555 1_555
C6A C1A 1_555 1_555
H6A C6A 1_555 1_555
C7A N1A 1_555 1_555
H7A C7A 1_555 1_555
C8A C7A 1_555 1_555
H8A C8A 1_555 1_555
C9A C8A 1_555 1_555
H9A C9A 1_555 1_555
C10A C9A 1_555 1_555
C11A N1A 1_555 1_555
C12A C10A 1_555 1_555
H10A C12A 1_555 1_555
C13A C12A 1_555 1_555
H11A C13A 1_555 1_555
C14A C13A 1_555 1_555
C15A N2A 1_555 1_555
C16A C14A 1_555 1_555
H12A C16A 1_555 1_555
C17A C16A 1_555 1_555
H13A C17A 1_555 1_555
C18A N2A 1_555 1_555
H14A C18A 1_555 1_555
C2 C3 1_555 1_555
C5 C6 1_555 1_555
C10 C11 1_555 1_555
C11 C15 1_555 1_555
C14 C15 1_555 1_555
C17 C18 1_555 1_555
P2A O6A 1_555 1_555
C2A C3A 1_555 1_555
C5A C6A 1_555 1_555
C10A C11A 1_555 1_555
C11A C15A 1_555 1_555
C14A C15A 1_555 1_555
C17A C18A 1_555 1_555

#END
