
#######################################################################
#
#                 Cambridge Crystallographic Data Centre
#                                CCDC 
#
#######################################################################
#
# If this CIF has been generated from an entry in the Cambridge 
# Structural Database, then it will include bibliographic, chemical, 
# crystal, experimental, refinement or atomic coordinate data resulting 
# from the CCDC's data processing and validation procedures.
#
#######################################################################

data_LABBEX
_symmetry_cell_setting           triclinic
_symmetry_space_group_name_H-M   'P -1'
_symmetry_Int_Tables_number      2
_space_group_name_Hall           '-P 1'
loop_
_symmetry_equiv_pos_site_id
_symmetry_equiv_pos_as_xyz
1 x,y,z
2 -x,-y,-z
_cell_length_a                   6.2672(5)
_cell_length_b                   15.5566(14)
_cell_length_c                   21.4404(19)
_cell_angle_alpha                85.020(5)
_cell_angle_beta                 84.872(5)
_cell_angle_gamma                89.401(5)
_cell_volume                     2074.13
loop_
_atom_site_label
_atom_site_type_symbol
_atom_site_fract_x
_atom_site_fract_y
_atom_site_fract_z
Cd1 Cd 0.19667(3) 0.764463(10) 0.065193(8)
Cd2 Cd 0.72984(3) 0.727505(10) -0.032738(7)
O1 O 0.3431(2) 0.81577(10) 0.16212(7)
O2 O 0.0986(4) 0.89916(12) 0.03709(12)
H1 H 0.143(6) 0.9474(15) 0.0414(17)
H2 H 0.023(5) 0.906(2) 0.0087(14)
O3 O 0.7869(3) 0.59097(11) 0.00393(9)
H3 H 0.878(4) 0.5828(18) 0.0295(11)
H4 H 0.809(5) 0.5518(15) -0.0196(11)
O4 O 0.8497(3) 0.74533(13) 0.10040(9)
O5 O 0.5599(3) 0.78533(10) 0.05333(7)
O6 O -0.0562(2) 0.68442(11) -0.13365(7)
O7 O 0.4014(3) 0.67172(11) -0.04725(8)
O8 O 0.0900(2) 0.73821(10) -0.02978(7)
O9 O 0.3059(3) 0.94691(13) -0.12559(9)
O10 O 0.7852(3) 0.93808(12) -0.04647(9)
O11 O 0.6160(3) 0.83755(10) -0.09073(8)
O12 O 0.6251(3) 0.53762(12) 0.14474(8)
O13 O 0.1399(3) 0.54304(11) 0.06839(9)
O14 O 0.2951(3) 0.64437(10) 0.11628(8)
C1 C 0.3012(4) 0.79873(16) 0.27658(11)
H5 H 0.4306 0.7692 0.2783
C2 C 0.1761(4) 0.81445(16) 0.33286(11)
C3 C 0.2472(5) 0.7889(2) 0.39271(13)
H6 H 0.3776 0.7604 0.3955
C4 C 0.1259(6) 0.8058(2) 0.44587(14)
H7 H 0.1742 0.7892 0.4849
C5 C -0.0706(6) 0.8481(2) 0.44243(15)
H8 H -0.1524 0.8589 0.4793
C6 C -0.1446(5) 0.8737(2) 0.38602(14)
H9 H -0.2762 0.9017 0.3846
C7 C -0.0215(4) 0.85773(16) 0.32934(12)
C8 C -0.0860(4) 0.88570(17) 0.26929(12)
H10 H -0.2162 0.9143 0.2665
C9 C 0.0371(4) 0.87191(15) 0.21560(12)
H11 H -0.0067 0.8919 0.1766
C10 C 0.2316(4) 0.82697(14) 0.21992(10)
C11 C 0.5553(4) 0.78155(16) 0.16560(10)
H12 H 0.5484 0.7261 0.1902
H13 H 0.6394 0.8202 0.1867
C12 C 0.6627(4) 0.77073(15) 0.10162(11)
C13 C 0.0297(4) 0.64625(16) -0.24064(11)
H14 H 0.1551 0.6183 -0.2300
C14 C -0.0234(4) 0.65250(16) -0.30335(11)
C15 C 0.1182(5) 0.62286(19) -0.35217(13)
H15 H 0.2462 0.5962 -0.3426
C16 C 0.0686(6) 0.6330(2) -0.41307(14)
H16 H 0.1651 0.6145 -0.4447
C17 C -0.1239(6) 0.6705(2) -0.42857(13)
H17 H -0.1559 0.6766 -0.4703
C18 C -0.2657(5) 0.6983(2) -0.38264(13)
H18 H -0.3952 0.7227 -0.3932
C19 C -0.2183(4) 0.69051(16) -0.31911(12)
C20 C -0.3556(4) 0.72204(16) -0.27032(12)
H19 H -0.4875 0.7454 -0.2795
C21 C -0.2998(4) 0.71909(15) -0.21029(11)
H20 H -0.3908 0.7419 -0.1792
C22 C -0.1027(4) 0.68115(15) -0.19545(10)
C23 C 0.1552(4) 0.65928(17) -0.12057(11)
H21 H 0.2549 0.6808 -0.1555
H22 H 0.1645 0.5968 -0.1169
C24 C 0.2196(4) 0.69240(14) -0.06137(11)
C25 C 0.4905(4) 0.95224(17) -0.23101(14)
H23 H 0.6143 0.9756 -0.2186
C26 C 0.4762(4) 0.93842(17) -0.29506(14)
C27 C 0.6433(5) 0.9632(2) -0.34202(16)
H24 H 0.7676 0.9877 -0.3309
C28 C 0.6228(6) 0.9512(2) -0.40345(17)
H25 H 0.7332 0.9681 -0.4338
C29 C 0.4392(7) 0.9139(2) -0.42155(17)
H26 H 0.4285 0.9062 -0.4637
C30 C 0.2748(6) 0.8887(2) -0.37769(16)
H27 H 0.1535 0.8634 -0.3901
C31 C 0.2881(5) 0.90090(17) -0.31359(14)
C32 C 0.1228(5) 0.87724(18) -0.26642(15)
H28 H 0.0002 0.8512 -0.2773
C33 C 0.1383(5) 0.89154(18) -0.20584(15)
H29 H 0.0268 0.8751 -0.1757
C34 C 0.3216(4) 0.93113(17) -0.18767(14)
C35 C 0.4837(5) 0.98092(17) -0.09953(14)
H30 H 0.4315 1.0125 -0.0642
H31 H 0.5575 1.0216 -0.1308
C36 C 0.6437(4) 0.91305(15) -0.07743(11)
C37 C 0.8151(4) 0.59354(17) 0.22056(13)
H32 H 0.9252 0.6047 0.1889
C38 C 0.8406(5) 0.61451(19) 0.27966(14)
H33 H 0.9669 0.6405 0.2879
C39 C 0.6776(5) 0.59723(18) 0.32839(14)
C40 C 0.7010(6) 0.6146(2) 0.39173(15)
H34 H 0.8256 0.6402 0.4015
C41 C 0.5420(6) 0.5937(2) 0.43775(16)
H35 H 0.5587 0.6045 0.4790
C42 C 0.3527(6) 0.5560(2) 0.42307(16)
H36 H 0.2449 0.5420 0.4549
C43 C 0.3233(5) 0.5394(2) 0.36325(14)
H37 H 0.1954 0.5152 0.3545
C44 C 0.4854(5) 0.55860(17) 0.31448(13)
C45 C 0.4605(4) 0.53881(17) 0.25188(12)
H38 H 0.3333 0.5150 0.2422
C46 C 0.6238(4) 0.55501(16) 0.20638(12)
C47 C 0.4413(4) 0.50325(15) 0.12171(12)
H39 H 0.3711 0.4638 0.1546
H40 H 0.4878 0.4700 0.0867
C48 C 0.2791(4) 0.56940(14) 0.10029(11)
Cd1_2 Cd 1.19667(3) 0.764463(10) 0.065193(8)
Cd2_2 Cd -0.27016(3) 0.727505(10) -0.032738(7)
O4_2 O -0.1503(3) 0.74533(13) 0.10040(9)
O6_2 O 0.9438(2) 0.68442(11) -0.13365(7)
O8_2 O 1.0900(2) 0.73821(10) -0.02978(7)
loop_
_geom_bond_atom_site_label_1
_geom_bond_atom_site_label_2
_geom_bond_site_symmetry_1
_geom_bond_site_symmetry_2
Cd1 O1 1_555 1_555
Cd2 O3 1_555 1_555
O1 C10 1_555 1_555
O2 Cd1 1_555 1_555
H1 O2 1_555 1_555
H2 O2 1_555 1_555
O3 H3 1_555 1_555
H4 O3 1_555 1_555
O4 C12 1_555 1_555
O5 Cd1 1_555 1_555
O6 C22 1_555 1_555
O7 Cd2 1_555 1_555
O8 Cd1 1_555 1_555
O9 C34 1_555 1_555
O10 C36 1_555 1_555
O11 Cd2 1_555 1_555
O12 C46 1_555 1_555
O13 C48 1_555 1_555
O14 Cd1 1_555 1_555
C1 H5 1_555 1_555
C2 C1 1_555 1_555
C3 C2 1_555 1_555
H6 C3 1_555 1_555
C4 C3 1_555 1_555
H7 C4 1_555 1_555
C5 C4 1_555 1_555
H8 C5 1_555 1_555
C6 C5 1_555 1_555
H9 C6 1_555 1_555
C7 C2 1_555 1_555
C8 C7 1_555 1_555
H10 C8 1_555 1_555
C9 C8 1_555 1_555
H11 C9 1_555 1_555
C10 C1 1_555 1_555
C11 O1 1_555 1_555
H12 C11 1_555 1_555
H13 C11 1_555 1_555
C12 O5 1_555 1_555
C13 H14 1_555 1_555
C14 C13 1_555 1_555
C15 C14 1_555 1_555
H15 C15 1_555 1_555
C16 C15 1_555 1_555
H16 C16 1_555 1_555
C17 C16 1_555 1_555
H17 C17 1_555 1_555
C18 C17 1_555 1_555
H18 C18 1_555 1_555
C19 C14 1_555 1_555
C20 C19 1_555 1_555
H19 C20 1_555 1_555
C21 C20 1_555 1_555
H20 C21 1_555 1_555
C22 C13 1_555 1_555
C23 O6 1_555 1_555
H21 C23 1_555 1_555
H22 C23 1_555 1_555
C24 O7 1_555 1_555
C25 H23 1_555 1_555
C26 C25 1_555 1_555
C27 C26 1_555 1_555
H24 C27 1_555 1_555
C28 C27 1_555 1_555
H25 C28 1_555 1_555
C29 C28 1_555 1_555
H26 C29 1_555 1_555
C30 C29 1_555 1_555
H27 C30 1_555 1_555
C31 C26 1_555 1_555
C32 C31 1_555 1_555
H28 C32 1_555 1_555
C33 C32 1_555 1_555
H29 C33 1_555 1_555
C34 C25 1_555 1_555
C35 O9 1_555 1_555
H30 C35 1_555 1_555
H31 C35 1_555 1_555
C36 O11 1_555 1_555
C37 H32 1_555 1_555
C38 C37 1_555 1_555
H33 C38 1_555 1_555
C39 C38 1_555 1_555
C40 C39 1_555 1_555
H34 C40 1_555 1_555
C41 C40 1_555 1_555
H35 C41 1_555 1_555
C42 C41 1_555 1_555
H36 C42 1_555 1_555
C43 C42 1_555 1_555
H37 C43 1_555 1_555
C44 C39 1_555 1_555
C45 C44 1_555 1_555
H38 C45 1_555 1_555
C46 C37 1_555 1_555
C47 O12 1_555 1_555
H39 C47 1_555 1_555
H40 C47 1_555 1_555
C48 O14 1_555 1_555
Cd1_2 O4 1_555 1_555
Cd2_2 O6 1_555 1_555
O4_2 Cd1 1_555 1_555
O6_2 Cd2 1_555 1_555
O8_2 Cd2 1_555 1_555
Cd2 O5 1_555 1_555
O8 C24 1_555 1_555
O8 Cd2_2 1_555 1_555
C6 C7 1_555 1_555
C9 C10 1_555 1_555
C11 C12 1_555 1_555
C18 C19 1_555 1_555
C21 C22 1_555 1_555
C23 C24 1_555 1_555
C30 C31 1_555 1_555
C33 C34 1_555 1_555
C35 C36 1_555 1_555
C43 C44 1_555 1_555
C45 C46 1_555 1_555
C47 C48 1_555 1_555
Cd1_2 O8_2 1_555 1_555

#END
