
#######################################################################
#
#                 Cambridge Crystallographic Data Centre
#                                CCDC 
#
#######################################################################
#
# If this CIF has been generated from an entry in the Cambridge 
# Structural Database, then it will include bibliographic, chemical, 
# crystal, experimental, refinement or atomic coordinate data resulting 
# from the CCDC's data processing and validation procedures.
#
#######################################################################

data_LABHON
_symmetry_cell_setting           triclinic
_symmetry_space_group_name_H-M   'P -1'
_symmetry_Int_Tables_number      2
_space_group_name_Hall           '-P 1'
loop_
_symmetry_equiv_pos_site_id
_symmetry_equiv_pos_as_xyz
1 x,y,z
2 -x,-y,-z
_cell_length_a                   8.8979(3)
_cell_length_b                   9.3724(3)
_cell_length_c                   13.7369(5)
_cell_angle_alpha                90.7390(10)
_cell_angle_beta                 103.4510(10)
_cell_angle_gamma                104.0860(10)
_cell_volume                     1077.72
loop_
_atom_site_label
_atom_site_type_symbol
_atom_site_fract_x
_atom_site_fract_y
_atom_site_fract_z
Mn1 Mn 0.69139(3) 1.22594(3) 0.46225(2)
Mn2 Mn 0.88245(3) 1.24475(3) 0.25346(2)
O1 O 0.88001(19) 1.46724(15) 0.29529(11)
O2 O 0.67673(17) 1.41306(15) 0.36851(12)
O3 O 1.05093(17) 1.71075(19) 0.50642(11)
O4 O 0.92714(17) 1.75589(17) 0.62217(10)
O5 O 0.55439(17) 1.79841(15) 0.54656(11)
O6 O 0.67819(18) 2.03609(15) 0.54858(11)
O7 O 0.69746(18) 2.11437(14) 0.32055(11)
O8 O 0.7454(3) 1.98307(19) 0.20673(15)
O9 O 0.7634(2) 1.36591(18) 0.60505(13)
H1 H 0.8467 1.4233 0.6423
H2 H 0.7113 1.3156 0.6431
N1 N 0.8102(2) 1.3071(2) 0.09469(13)
N2 N 1.0506(2) 1.1792(2) 0.16683(14)
C1 C 0.7838(2) 1.66644(19) 0.34714(14)
H5 H 0.8804 1.7261 0.3309
C2 C 0.7783(2) 1.71458(19) 0.45260(13)
H6 H 0.6912 1.6440 0.4721
C3 C 0.7364(2) 1.86431(19) 0.44198(13)
H7 H 0.8349 1.9419 0.4472
C4 C 0.6288(2) 1.85217(19) 0.33207(14)
H8 H 0.5185 1.8468 0.3349
C5 C 0.6356(2) 1.7061(2) 0.28206(14)
H9 H 0.5397 1.6293 0.2809
H10 H 0.6460 1.7188 0.2138
C6 C 0.7798(2) 1.5031(2) 0.33615(14)
C7 C 0.9313(2) 1.7270(2) 0.53229(14)
C8 C 0.6508(2) 1.9029(2) 0.51887(14)
C9 C 0.6912(2) 1.9886(2) 0.28093(15)
C10 C 0.6944(4) 1.3733(3) 0.0603(2)
H11 H 0.6320 1.3899 0.1028
C11 C 0.6623(5) 1.4191(4) -0.0374(2)
H12 H 0.5804 1.4656 -0.0586
C12 C 0.7503(4) 1.3956(4) -0.1000(2)
H13 H 0.7303 1.4266 -0.1648
C13 C 0.8721(4) 1.3247(3) -0.06804(18)
C14 C 0.9702(5) 1.2938(4) -0.1304(2)
H14 H 0.9534 1.3218 -0.1960
C15 C 1.0854(5) 1.2257(4) -0.0962(2)
H15 H 1.1455 1.2050 -0.1392
C16 C 1.1192(3) 1.1835(3) 0.0054(2)
C17 C 1.2407(4) 1.1151(4) 0.0447(3)
H16 H 1.3045 1.0934 0.0047
C18 C 1.2650(4) 1.0807(4) 0.1414(3)
H17 H 1.3462 1.0358 0.1685
C19 C 1.1661(3) 1.1135(3) 0.2009(2)
H18 H 1.1831 1.0877 0.2670
C20 C 1.0268(3) 1.2139(2) 0.06969(17)
C21 C 0.9005(3) 1.2835(2) 0.03230(16)
Mn1A Mn 1.30861(3) 1.77406(3) 0.53775(2)
Mn1A_2 Mn 0.30861(3) 1.77406(3) 0.53775(2)
Mn1_2 Mn 0.69139(3) 2.22594(3) 0.46225(2)
Mn2A Mn 1.11755(3) 1.75525(3) 0.74654(2)
Mn2_2 Mn 0.88245(3) 2.24475(3) 0.25346(2)
O3A O 0.94907(17) 1.28925(19) 0.49358(11)
O4A O 1.07286(17) 1.24411(17) 0.37783(10)
O5A O 0.44561(17) 1.20159(15) 0.45344(11)
O6_2 O 0.67819(18) 1.03609(15) 0.54858(11)
O7_2 O 0.69746(18) 1.11437(14) 0.32055(11)
O8_2 O 0.7454(3) 0.98307(19) 0.20673(15)
O10 O 0.65086(19) 1.57668(17) 0.67737(13)
H3 H 0.5656 1.6026 0.6400
H4 H 0.6988 1.6212 0.7390
loop_
_geom_bond_atom_site_label_1
_geom_bond_atom_site_label_2
_geom_bond_site_symmetry_1
_geom_bond_site_symmetry_2
Mn1 O2 1_555 1_555
Mn2 O1 1_555 1_555
O1 C6 1_555 1_555
O2 C6 1_555 1_555
O3 C7 1_555 1_555
O4 C7 1_555 1_555
O5 C8 1_555 1_555
O6 C8 1_555 1_555
O7 C9 1_555 1_555
O8 C9 1_555 1_555
O9 Mn1 1_555 1_555
H1 O9 1_555 1_555
H2 O9 1_555 1_555
O10 H3 1_555 1_555
H4 O10 1_555 1_555
N1 Mn2 1_555 1_555
N2 Mn2 1_555 1_555
C1 H5 1_555 1_555
C2 C1 1_555 1_555
H6 C2 1_555 1_555
C3 C2 1_555 1_555
H7 C3 1_555 1_555
C4 C3 1_555 1_555
H8 C4 1_555 1_555
C5 C1 1_555 1_555
H9 C5 1_555 1_555
H10 C5 1_555 1_555
C6 C1 1_555 1_555
C7 C2 1_555 1_555
C8 C3 1_555 1_555
C9 C4 1_555 1_555
C10 N1 1_555 1_555
H11 C10 1_555 1_555
C11 C10 1_555 1_555
H12 C11 1_555 1_555
C12 C11 1_555 1_555
H13 C12 1_555 1_555
C13 C12 1_555 1_555
C14 C13 1_555 1_555
H14 C14 1_555 1_555
C15 C14 1_555 1_555
H15 C15 1_555 1_555
C16 C15 1_555 1_555
C17 C16 1_555 1_555
H16 C17 1_555 1_555
C18 C17 1_555 1_555
H17 C18 1_555 1_555
C19 N2 1_555 1_555
H18 C19 1_555 1_555
C20 N2 1_555 1_555
C21 N1 1_555 1_555
Mn1A O3 1_555 1_555
Mn1A_2 O5 1_555 1_555
Mn1_2 O6 1_555 1_555
Mn2A O4 1_555 1_555
Mn2_2 O7 1_555 1_555
O3A Mn1 1_555 1_555
O4A Mn2 1_555 1_555
O5A Mn1 1_555 1_555
O6_2 Mn1 1_555 1_555
O7_2 Mn1 1_555 1_555
O8_2 Mn2 1_555 1_555
Mn2 O7_2 1_555 1_555
O7 Mn1_2 1_555 1_555
O8 Mn2_2 1_555 1_555
C4 C5 1_555 1_555
C13 C21 1_555 1_555
C16 C20 1_555 1_555
C18 C19 1_555 1_555
C20 C21 1_555 1_555

#END
