
#######################################################################
#
#                 Cambridge Crystallographic Data Centre
#                                CCDC 
#
#######################################################################
#
# If this CIF has been generated from an entry in the Cambridge 
# Structural Database, then it will include bibliographic, chemical, 
# crystal, experimental, refinement or atomic coordinate data resulting 
# from the CCDC's data processing and validation procedures.
#
#######################################################################

data_LABHUT
_symmetry_cell_setting           triclinic
_symmetry_space_group_name_H-M   'P -1'
_symmetry_Int_Tables_number      2
_space_group_name_Hall           '-P 1'
loop_
_symmetry_equiv_pos_site_id
_symmetry_equiv_pos_as_xyz
1 x,y,z
2 -x,-y,-z
_cell_length_a                   8.9211(5)
_cell_length_b                   15.8053(8)
_cell_length_c                   21.9313(12)
_cell_angle_alpha                92.7640(10)
_cell_angle_beta                 91.5750(10)
_cell_angle_gamma                90.4070(10)
_cell_volume                     3087.45
loop_
_atom_site_label
_atom_site_type_symbol
_atom_site_fract_x
_atom_site_fract_y
_atom_site_fract_z
Mn1 Mn 1.63529(10) 0.76492(6) 0.20584(4)
Mn2 Mn 1.62011(11) 0.87432(6) 0.35240(4)
Mn3 Mn 1.82478(12) 1.20633(7) 0.14369(5)
Mn4 Mn 1.27062(15) 0.39747(7) 0.32239(5)
N1 N 1.5497(5) 0.7066(3) 0.1148(2)
N2 N 1.7471(6) 0.8373(3) 0.1308(2)
N3 N 1.7581(6) 0.9911(3) 0.3840(2)
N4 N 1.5961(6) 0.8905(3) 0.4529(2)
N5 N 1.9584(6) 1.3011(4) 0.0884(3)
N6 N 1.7772(6) 1.1758(4) 0.0425(3)
N7 N 1.2740(9) 0.3711(4) 0.4218(3)
N8 N 1.5031(9) 0.4340(4) 0.3597(3)
O1 O 1.4766(5) 0.7674(3) 0.3472(2)
O2 O 1.4623(5) 0.7063(3) 0.2536(2)
O3 O 1.2727(6) 0.5028(3) 0.2634(3)
O4 O 1.1467(6) 0.5327(3) 0.3466(2)
O5 O 0.9228(6) 0.5487(3) 0.2139(3)
O6 O 0.7811(5) 0.6603(3) 0.2117(2)
O7 O 0.8636(5) 0.8028(3) 0.3665(2)
O8 O 0.7658(5) 0.8344(3) 0.2780(2)
O9 O 1.4905(5) 0.8779(3) 0.2095(2)
O10 O 1.4841(5) 0.9499(3) 0.29925(19)
O11 O 1.7124(7) 1.1593(5) 0.2355(3)
O12 O 1.6225(7) 1.1199(5) 0.1506(3)
O13 O 1.3264(7) 1.2663(4) 0.3025(3)
O14 O 1.4073(9) 1.3114(4) 0.2193(4)
O15 O 1.0143(5) 1.2245(3) 0.2175(2)
O16 O 1.0133(6) 1.1160(3) 0.1530(2)
C1 C 1.2429(7) 0.7099(4) 0.3144(3)
H1 H 1.2310 0.6967 0.3572
C2 C 1.1637(7) 0.6417(4) 0.2736(3)
H2 H 1.1967 0.6452 0.2316
C3 C 0.9981(7) 0.6676(4) 0.2774(3)
H3 H 0.9643 0.6533 0.3179
C4 C 0.9995(7) 0.7635(4) 0.2758(3)
H4 H 0.9910 0.7791 0.2331
C5 C 1.1551(7) 0.7903(5) 0.3014(4)
H5 H 1.2071 0.8230 0.2721
H6 H 1.1457 0.8251 0.3388
C6 C 1.4079(7) 0.7276(4) 0.3037(3)
C7 C 1.1957(9) 0.5536(5) 0.2962(4)
C8 C 0.8931(8) 0.6218(5) 0.2301(3)
C9 C 0.8699(7) 0.8019(4) 0.3101(3)
C10 C 1.3960(8) 1.0184(4) 0.2125(3)
H7 H 1.4091 1.0110 0.1683
C11 C 1.4663(7) 1.1042(4) 0.2346(3)
H8 H 1.4826 1.1052 0.2790
C12 C 1.3423(7) 1.1669(4) 0.2189(3)
H9 H 1.3410 1.1728 0.1746
C13 C 1.1980(7) 1.1201(4) 0.2345(3)
H10 H 1.1805 1.1309 0.2781
C14 C 1.2296(8) 1.0273(5) 0.2239(4)
H11 H 1.1713 1.0043 0.1889
H12 H 1.2030 0.9966 0.2593
C15 C 1.4644(7) 0.9426(4) 0.2425(3)
C16 C 1.6103(9) 1.1264(5) 0.2051(4)
C17 C 1.3611(8) 1.2546(5) 0.2491(4)
C18 C 1.0674(7) 1.1546(5) 0.1991(4)
C19 C 1.8386(8) 0.9025(5) 0.1384(3)
H13 H 1.8642 0.9218 0.1780
C20 C 1.8999(8) 0.9446(5) 0.0900(4)
H14 H 1.9634 0.9911 0.0976
C21 C 1.8648(8) 0.9165(5) 0.0322(4)
H15 H 1.9062 0.9429 -0.0005
C22 C 1.7667(7) 0.8482(4) 0.0215(3)
C23 C 1.7103(7) 0.8093(4) 0.0722(3)
C24 C 1.7241(8) 0.8137(5) -0.0380(3)
H16 H 1.7635 0.8377 -0.0721
C25 C 1.6302(8) 0.7484(5) -0.0461(3)
H17 H 1.6034 0.7288 -0.0856
C26 C 1.5691(7) 0.7075(4) 0.0046(3)
C27 C 1.6073(7) 0.7388(4) 0.0642(3)
C28 C 1.4721(8) 0.6382(5) -0.0011(3)
H18 H 1.4432 0.6156 -0.0396
C29 C 1.4195(8) 0.6035(4) 0.0501(4)
H19 H 1.3575 0.5559 0.0468
C30 C 1.4593(8) 0.6400(4) 0.1069(3)
H20 H 1.4205 0.6165 0.1413
C31 C 1.8319(8) 1.0424(5) 0.3497(4)
H21 H 1.8251 1.0325 0.3075
C32 C 1.9204(10) 1.1116(6) 0.3730(5)
H22 H 1.9674 1.1480 0.3473
C33 C 1.9339(10) 1.1226(6) 0.4347(5)
H23 H 1.9949 1.1662 0.4514
C34 C 1.8596(9) 1.0710(5) 0.4734(4)
C35 C 1.7701(8) 1.0047(4) 0.4449(3)
C36 C 1.8634(11) 1.0811(6) 0.5381(4)
H24 H 1.9218 1.1243 0.5570
C37 C 1.7862(11) 1.0308(6) 0.5720(4)
H25 H 1.7929 1.0392 0.6143
C38 C 1.6930(10) 0.9640(5) 0.5463(4)
C39 C 1.6844(8) 0.9514(4) 0.4817(3)
C40 C 1.6052(11) 0.9094(6) 0.5786(4)
H26 H 1.6088 0.9145 0.6211
C41 C 1.5152(10) 0.8493(5) 0.5509(4)
H27 H 1.4565 0.8138 0.5732
C42 C 1.5141(8) 0.8426(4) 0.4865(4)
H28 H 1.4517 0.8020 0.4668
C43 C 2.0445(9) 1.3642(6) 0.1122(4)
H29 H 2.0562 1.3708 0.1545
C44 C 2.1176(10) 1.4208(6) 0.0760(5)
H30 H 2.1767 1.4644 0.0938
C45 C 2.1016(10) 1.4114(6) 0.0148(5)
H31 H 2.1528 1.4479 -0.0095
C46 C 2.0108(9) 1.3487(6) -0.0123(4)
C47 C 1.9387(8) 1.2943(5) 0.0271(3)
C48 C 1.9870(12) 1.3356(7) -0.0755(5)
H32 H 2.0351 1.3710 -0.1016
C49 C 1.8972(12) 1.2739(7) -0.0992(4)
H33 H 1.8836 1.2676 -0.1414
C50 C 1.8202(10) 1.2163(6) -0.0606(4)
C51 C 1.8443(8) 1.2270(5) 0.0027(3)
C52 C 1.7245(11) 1.1513(7) -0.0827(4)
H34 H 1.7065 1.1427 -0.1246
C53 C 1.6575(10) 1.1004(6) -0.0433(4)
H35 H 1.5923 1.0574 -0.0577
C54 C 1.6879(8) 1.1136(5) 0.0192(4)
H36 H 1.6438 1.0774 0.0458
C55 C 1.1603(12) 0.3421(5) 0.4526(5)
H37 H 1.0684 0.3330 0.4321
C56 C 1.1724(15) 0.3242(6) 0.5161(5)
H38 H 1.0910 0.3042 0.5369
C57 C 1.3106(17) 0.3382(6) 0.5446(5)
H39 H 1.3227 0.3266 0.5857
C58 C 1.4327(14) 0.3691(6) 0.5138(4)
C59 C 1.4100(11) 0.3845(5) 0.4515(4)
C60 C 1.5755(17) 0.3845(6) 0.5422(5)
H40 H 1.5904 0.3745 0.5834
C61 C 1.6910(15) 0.4137(7) 0.5097(6)
H41 H 1.7841 0.4227 0.5291
C62 C 1.6733(13) 0.4309(6) 0.4468(6)
C63 C 1.5310(11) 0.4167(5) 0.4174(4)
C64 C 1.7856(14) 0.4642(7) 0.4127(7)
H42 H 1.8799 0.4750 0.4306
C65 C 1.7591(13) 0.4816(6) 0.3523(7)
H43 H 1.8343 0.5032 0.3288
C66 C 1.6144(13) 0.4654(6) 0.3279(5)
H44 H 1.5948 0.4772 0.2874
O17 O 1.0447(7) 0.3525(5) 0.3016(4)
H45 H 0.9620 0.3764 0.2935
H46 H 1.0408 0.3027 0.2851
O18 O 1.6932(7) 1.3152(4) 0.1632(3)
H47 H 1.6691 1.3453 0.1945
H48 H 1.6410 1.3313 0.1329
Mn1_2 Mn 0.63529(10) 0.76492(6) 0.20584(4)
Mn2_2 Mn 0.62011(11) 0.87432(6) 0.35240(4)
Mn3_2 Mn 0.82478(12) 1.20633(7) 0.14369(5)
Mn4_2 Mn 1.27062(15) 1.39747(7) 0.32239(5)
O6_2 O 1.7811(5) 0.6603(3) 0.2117(2)
O7_2 O 1.8636(5) 0.8028(3) 0.3665(2)
O8_2 O 1.7658(5) 0.8344(3) 0.2780(2)
O13_2 O 1.3264(7) 0.2663(4) 0.3025(3)
O15_2 O 2.0143(5) 1.2245(3) 0.2175(2)
O16_2 O 2.0133(6) 1.1160(3) 0.1530(2)
O19 O 0.7233(6) 0.4746(3) 0.1300(3)
H49 H 0.8141 0.4801 0.1201
H50 H 0.6814 0.5224 0.1272
O20 O 0.4207(7) 0.4612(4) 0.1624(3)
H51 H 0.3770 0.4990 0.1841
H52 H 0.3727 0.4149 0.1652
O21 O 1.3068(12) 0.7392(6) 0.6593(4)
H53 H 1.3082 0.7620 0.6977
H54 H 1.2546 0.6912 0.6500
loop_
_geom_bond_atom_site_label_1
_geom_bond_atom_site_label_2
_geom_bond_site_symmetry_1
_geom_bond_site_symmetry_2
Mn1 N1 1_555 1_555
Mn2 N3 1_555 1_555
Mn3 N5 1_555 1_555
Mn4 N7 1_555 1_555
N1 C27 1_555 1_555
N2 Mn1 1_555 1_555
N3 C31 1_555 1_555
N4 Mn2 1_555 1_555
N5 C43 1_555 1_555
N6 Mn3 1_555 1_555
N7 C55 1_555 1_555
N8 Mn4 1_555 1_555
O1 Mn2 1_555 1_555
O2 Mn1 1_555 1_555
O3 Mn4 1_555 1_555
O4 Mn4 1_555 1_555
O5 C8 1_555 1_555
O6 C8 1_555 1_555
O7 C9 1_555 1_555
O8 C9 1_555 1_555
O9 Mn1 1_555 1_555
O10 Mn2 1_555 1_555
O11 Mn3 1_555 1_555
O12 Mn3 1_555 1_555
O13 C17 1_555 1_555
O14 C17 1_555 1_555
O15 C18 1_555 1_555
O16 C18 1_555 1_555
C1 H1 1_555 1_555
C2 C1 1_555 1_555
H2 C2 1_555 1_555
C3 C2 1_555 1_555
H3 C3 1_555 1_555
C4 C3 1_555 1_555
H4 C4 1_555 1_555
C5 C1 1_555 1_555
H5 C5 1_555 1_555
H6 C5 1_555 1_555
C6 O1 1_555 1_555
C7 O3 1_555 1_555
C8 C3 1_555 1_555
C9 C4 1_555 1_555
C10 H7 1_555 1_555
C11 C10 1_555 1_555
H8 C11 1_555 1_555
C12 C11 1_555 1_555
H9 C12 1_555 1_555
C13 C12 1_555 1_555
H10 C13 1_555 1_555
C14 C10 1_555 1_555
H11 C14 1_555 1_555
H12 C14 1_555 1_555
C15 O9 1_555 1_555
C16 O11 1_555 1_555
C17 C12 1_555 1_555
C18 C13 1_555 1_555
C19 N2 1_555 1_555
H13 C19 1_555 1_555
C20 C19 1_555 1_555
H14 C20 1_555 1_555
C21 C20 1_555 1_555
H15 C21 1_555 1_555
C22 C21 1_555 1_555
C23 N2 1_555 1_555
C24 C22 1_555 1_555
H16 C24 1_555 1_555
C25 C24 1_555 1_555
H17 C25 1_555 1_555
C26 C25 1_555 1_555
C27 C23 1_555 1_555
C28 C26 1_555 1_555
H18 C28 1_555 1_555
C29 C28 1_555 1_555
H19 C29 1_555 1_555
C30 N1 1_555 1_555
H20 C30 1_555 1_555
C31 H21 1_555 1_555
C32 C31 1_555 1_555
H22 C32 1_555 1_555
C33 C32 1_555 1_555
H23 C33 1_555 1_555
C34 C33 1_555 1_555
C35 N3 1_555 1_555
C36 C34 1_555 1_555
H24 C36 1_555 1_555
C37 C36 1_555 1_555
H25 C37 1_555 1_555
C38 C37 1_555 1_555
C39 N4 1_555 1_555
C40 C38 1_555 1_555
H26 C40 1_555 1_555
C41 C40 1_555 1_555
H27 C41 1_555 1_555
C42 N4 1_555 1_555
H28 C42 1_555 1_555
C43 H29 1_555 1_555
C44 C43 1_555 1_555
H30 C44 1_555 1_555
C45 C44 1_555 1_555
H31 C45 1_555 1_555
C46 C45 1_555 1_555
C47 N5 1_555 1_555
C48 C46 1_555 1_555
H32 C48 1_555 1_555
C49 C48 1_555 1_555
H33 C49 1_555 1_555
C50 C49 1_555 1_555
C51 N6 1_555 1_555
C52 C50 1_555 1_555
H34 C52 1_555 1_555
C53 C52 1_555 1_555
H35 C53 1_555 1_555
C54 N6 1_555 1_555
H36 C54 1_555 1_555
C55 H37 1_555 1_555
C56 C55 1_555 1_555
H38 C56 1_555 1_555
C57 C56 1_555 1_555
H39 C57 1_555 1_555
C58 C57 1_555 1_555
C59 N7 1_555 1_555
C60 C58 1_555 1_555
H40 C60 1_555 1_555
C61 C60 1_555 1_555
H41 C61 1_555 1_555
C62 C61 1_555 1_555
C63 N8 1_555 1_555
C64 C62 1_555 1_555
H42 C64 1_555 1_555
C65 C64 1_555 1_555
H43 C65 1_555 1_555
C66 N8 1_555 1_555
H44 C66 1_555 1_555
O17 Mn4 1_555 1_555
H45 O17 1_555 1_555
H46 O17 1_555 1_555
O18 Mn3 1_555 1_555
H47 O18 1_555 1_555
H48 O18 1_555 1_555
O19 H49 1_555 1_555
H50 O19 1_555 1_555
O20 H51 1_555 1_555
H52 O20 1_555 1_555
O21 H53 1_555 1_555
H54 O21 1_555 1_555
Mn1_2 O6 1_555 1_555
Mn2_2 O7 1_555 1_555
Mn3_2 O15 1_555 1_555
Mn4_2 O13 1_555 1_555
O6_2 Mn1 1_555 1_555
O7_2 Mn2 1_555 1_555
O8_2 Mn1 1_555 1_555
O13_2 Mn4 1_555 1_555
O15_2 Mn3 1_555 1_555
O16_2 Mn3 1_555 1_555
Mn2 O8_2 1_555 1_555
O2 C6 1_555 1_555
O4 C7 1_555 1_555
O8 Mn1_2 1_555 1_555
O8 Mn2_2 1_555 1_555
O10 C15 1_555 1_555
O12 C16 1_555 1_555
O16 Mn3_2 1_555 1_555
C1 C6 1_555 1_555
C2 C7 1_555 1_555
C4 C5 1_555 1_555
C10 C15 1_555 1_555
C11 C16 1_555 1_555
C13 C14 1_555 1_555
C22 C23 1_555 1_555
C26 C27 1_555 1_555
C29 C30 1_555 1_555
C34 C35 1_555 1_555
C35 C39 1_555 1_555
C38 C39 1_555 1_555
C41 C42 1_555 1_555
C46 C47 1_555 1_555
C47 C51 1_555 1_555
C50 C51 1_555 1_555
C53 C54 1_555 1_555
C58 C59 1_555 1_555
C59 C63 1_555 1_555
C62 C63 1_555 1_555
C65 C66 1_555 1_555

#END
