
#######################################################################
#
#                 Cambridge Crystallographic Data Centre
#                                CCDC 
#
#######################################################################
#
# If this CIF has been generated from an entry in the Cambridge 
# Structural Database, then it will include bibliographic, chemical, 
# crystal, experimental, refinement or atomic coordinate data resulting 
# from the CCDC's data processing and validation procedures.
#
#######################################################################

data_LABNUZ
_symmetry_cell_setting           orthorhombic
_symmetry_space_group_name_H-M   'P n m a'
_symmetry_Int_Tables_number      62
_space_group_name_Hall           '-P 2ac 2n'
loop_
_symmetry_equiv_pos_site_id
_symmetry_equiv_pos_as_xyz
1 x,y,z
2 1/2-x,-y,1/2+z
3 -x,1/2+y,-z
4 1/2+x,1/2-y,1/2-z
5 -x,-y,-z
6 1/2+x,y,1/2-z
7 x,1/2-y,z
8 1/2-x,1/2+y,1/2+z
_cell_length_a                   23.515(12)
_cell_length_b                   6.828(3)
_cell_length_c                   8.743(4)
_cell_angle_alpha                90
_cell_angle_beta                 90
_cell_angle_gamma                90
_cell_volume                     1403.78
loop_
_atom_site_label
_atom_site_type_symbol
_atom_site_fract_x
_atom_site_fract_y
_atom_site_fract_z
Gd1 Gd 0.291307(8) 0.2500 0.65809(2)
Cl1 Cl 0.40748(5) 0.2500 0.56644(16)
P1 P 0.20967(4) 0.2500 1.01971(11)
N1 N 0.09947(14) 0.2500 1.1370(4)
H1 H 0.1079 0.3570 1.1927
C1 C 0.13329(18) 0.2500 0.9904(5)
H2 H 0.1230 0.1364 0.9319
C2 C 0.03738(19) 0.2500 1.0997(6)
H3 H 0.0294 0.1364 1.0386
C3 C -0.00203(19) 0.2500 1.2360(5)
C4 C -0.02249(15) 0.4248(7) 1.2939(4)
H4 H -0.0075 0.5462 1.2558
C5 C -0.06435(15) 0.4249(6) 1.4070(4)
H5 H -0.0789 0.5462 1.4466
C6 C -0.08598(18) 0.2500 1.4629(5)
C7 C -0.13108(19) 0.2500 1.5845(5)
O1 O 0.23267(14) 0.2500 0.8597(3)
O2 O 0.22392(10) 0.0698(3) 1.1120(3)
O3 O -0.14884(9) 0.4121(3) 1.6364(2)
O4 O 0.19423(15) 0.2500 0.5362(4)
H6 H 0.1906 0.3516 0.4808
O5 O 0.29899(17) 0.2500 0.3687(4)
H7 H 0.3170 0.3516 0.3402
Gd1A Gd 0.208693(8) -0.2500 1.15809(2)
Gd1C Gd -0.208693(8) 0.2500 1.84191(2)
Gd1A_2 Gd 0.208693(8) 0.7500 1.15809(2)
H1F H 0.1079 0.1430 1.1927
H2F H 0.1230 0.3636 0.9319
H3F H 0.0294 0.3636 1.0386
C4F C -0.02249(15) 0.0752(7) 1.2939(4)
H4F H -0.0075 -0.0462 1.2558
C5F C -0.06435(15) 0.0751(6) 1.4070(4)
H5F H -0.0789 -0.0462 1.4466
O2F O 0.22392(10) 0.4302(3) 1.1120(3)
O2A O 0.27608(10) -0.0698(3) 0.6120(3)
O2G O 0.27608(10) 0.5698(3) 0.6120(3)
O3F O -0.14884(9) 0.0879(3) 1.6364(2)
O3C O 0.35116(9) 0.0879(3) 0.8636(2)
O3E O 0.35116(9) 0.4121(3) 0.8636(2)
H6F H 0.1906 0.1484 0.4808
H7F H 0.3170 0.1484 0.3402
loop_
_geom_bond_atom_site_label_1
_geom_bond_atom_site_label_2
_geom_bond_site_symmetry_1
_geom_bond_site_symmetry_2
Gd1 Cl1 1_555 1_555
P1 C1 1_555 1_555
N1 H1 1_555 1_555
C1 N1 1_555 1_555
H2 C1 1_555 1_555
C2 N1 1_555 1_555
H3 C2 1_555 1_555
C3 C2 1_555 1_555
C4 C3 1_555 1_555
H4 C4 1_555 1_555
C5 C4 1_555 1_555
H5 C5 1_555 1_555
C6 C5 1_555 1_555
C7 C6 1_555 1_555
O1 Gd1 1_555 1_555
O2 P1 1_555 1_555
O3 C7 1_555 1_555
O4 Gd1 1_555 1_555
H6 O4 1_555 1_555
O5 Gd1 1_555 1_555
H7 O5 1_555 1_555
Gd1A O2 1_555 1_555
Gd1C O3 1_555 1_555
Gd1A_2 O2F 1_555 1_555
H1F N1 1_555 1_555
H2F C1 1_555 1_555
H3F C2 1_555 1_555
C4F C3 1_555 1_555
H4F C4F 1_555 1_555
C5F C6 1_555 1_555
H5F C5F 1_555 1_555
O2F P1 1_555 1_555
O2A Gd1 1_555 1_555
O2G Gd1 1_555 1_555
O3F C7 1_555 1_555
O3C Gd1 1_555 1_555
O3E Gd1 1_555 1_555
H6F O4 1_555 1_555
H7F O5 1_555 1_555
P1 O1 1_555 1_555
Gd1C O3F 1_555 1_555
C4F C5F 1_555 1_555

#END
