
#######################################################################
#
#                 Cambridge Crystallographic Data Centre
#                                CCDC 
#
#######################################################################
#
# If this CIF has been generated from an entry in the Cambridge 
# Structural Database, then it will include bibliographic, chemical, 
# crystal, experimental, refinement or atomic coordinate data resulting 
# from the CCDC's data processing and validation procedures.
#
#######################################################################

data_LABPAH
_symmetry_cell_setting           orthorhombic
_symmetry_space_group_name_H-M   'P n m a'
_symmetry_Int_Tables_number      62
_space_group_name_Hall           '-P 2ac 2n'
loop_
_symmetry_equiv_pos_site_id
_symmetry_equiv_pos_as_xyz
1 x,y,z
2 1/2-x,-y,1/2+z
3 -x,1/2+y,-z
4 1/2+x,1/2-y,1/2-z
5 -x,-y,-z
6 1/2+x,y,1/2-z
7 x,1/2-y,z
8 1/2-x,1/2+y,1/2+z
_cell_length_a                   23.480(3)
_cell_length_b                   6.7749(7)
_cell_length_c                   8.6854(9)
_cell_angle_alpha                90
_cell_angle_beta                 90
_cell_angle_gamma                90
_cell_volume                     1381.63
loop_
_atom_site_label
_atom_site_type_symbol
_atom_site_fract_x
_atom_site_fract_y
_atom_site_fract_z
Tb1 Tb 0.291090(7) 0.2500 0.658907(18)
Cl1 Cl 0.40692(5) 0.2500 0.56649(14)
P1 P 0.20974(4) 0.2500 1.02053(11)
N1 N 0.09954(13) 0.2500 1.1372(4)
H1 H 0.1080 0.3570 1.1929
C1 C 0.13339(16) 0.2500 0.9904(4)
H2 H 0.1231 0.1364 0.9318
C2 C 0.03758(17) 0.2500 1.0991(5)
H3 H 0.0296 0.1364 1.0381
C3 C -0.00214(17) 0.2500 1.2359(5)
C4 C -0.02265(14) 0.4256(6) 1.2937(4)
H4 H -0.0077 0.5470 1.2556
C5 C -0.06465(14) 0.4256(5) 1.4066(4)
H5 H -0.0792 0.5469 1.4461
C6 C -0.08606(17) 0.2500 1.4622(5)
C7 C -0.13094(17) 0.2500 1.5844(4)
O1 O 0.23291(13) 0.2500 0.8602(3)
O2 O 0.22398(9) 0.0691(3) 1.1135(2)
O3 O -0.14924(9) 0.4136(3) 1.6364(2)
O4 O 0.19437(14) 0.2500 0.5385(4)
H6 H 0.1908 0.3516 0.4832
O5 O 0.29855(15) 0.2500 0.3707(4)
H7 H 0.3166 0.3516 0.3422
Tb1A Tb 0.208910(7) -0.2500 1.158907(18)
Tb1C Tb -0.208910(7) 0.2500 1.841093(18)
Tb1A_2 Tb 0.208910(7) 0.7500 1.158907(18)
H1F H 0.1080 0.1430 1.1929
H2F H 0.1231 0.3636 0.9318
H3F H 0.0296 0.3636 1.0381
C4F C -0.02265(14) 0.0744(6) 1.2937(4)
H4F H -0.0077 -0.0470 1.2556
C5F C -0.06465(14) 0.0744(5) 1.4066(4)
H5F H -0.0792 -0.0469 1.4461
O2F O 0.22398(9) 0.4309(3) 1.1135(2)
O2A O 0.27602(9) -0.0691(3) 0.6135(2)
O2G O 0.27602(9) 0.5691(3) 0.6135(2)
O3F O -0.14924(9) 0.0864(3) 1.6364(2)
O3C O 0.35076(9) 0.0864(3) 0.8636(2)
O3E O 0.35076(9) 0.4136(3) 0.8636(2)
H6F H 0.1908 0.1484 0.4832
H7F H 0.3166 0.1484 0.3422
loop_
_geom_bond_atom_site_label_1
_geom_bond_atom_site_label_2
_geom_bond_site_symmetry_1
_geom_bond_site_symmetry_2
Tb1 Cl1 1_555 1_555
P1 C1 1_555 1_555
N1 H1 1_555 1_555
C1 N1 1_555 1_555
H2 C1 1_555 1_555
C2 N1 1_555 1_555
H3 C2 1_555 1_555
C3 C2 1_555 1_555
C4 C3 1_555 1_555
H4 C4 1_555 1_555
C5 C4 1_555 1_555
H5 C5 1_555 1_555
C6 C5 1_555 1_555
C7 C6 1_555 1_555
O1 Tb1 1_555 1_555
O2 P1 1_555 1_555
O3 C7 1_555 1_555
O4 Tb1 1_555 1_555
H6 O4 1_555 1_555
O5 Tb1 1_555 1_555
H7 O5 1_555 1_555
Tb1A O2 1_555 1_555
Tb1C O3 1_555 1_555
Tb1A_2 O2F 1_555 1_555
H1F N1 1_555 1_555
H2F C1 1_555 1_555
H3F C2 1_555 1_555
C4F C3 1_555 1_555
H4F C4F 1_555 1_555
C5F C6 1_555 1_555
H5F C5F 1_555 1_555
O2F P1 1_555 1_555
O2A Tb1 1_555 1_555
O2G Tb1 1_555 1_555
O3F C7 1_555 1_555
O3C Tb1 1_555 1_555
O3E Tb1 1_555 1_555
H6F O4 1_555 1_555
H7F O5 1_555 1_555
P1 O1 1_555 1_555
Tb1C O3F 1_555 1_555
C4F C5F 1_555 1_555

#END
