
#######################################################################
#
#                 Cambridge Crystallographic Data Centre
#                                CCDC 
#
#######################################################################
#
# If this CIF has been generated from an entry in the Cambridge 
# Structural Database, then it will include bibliographic, chemical, 
# crystal, experimental, refinement or atomic coordinate data resulting 
# from the CCDC's data processing and validation procedures.
#
#######################################################################

data_LABQUC
_symmetry_cell_setting           triclinic
_symmetry_space_group_name_H-M   'P -1'
_symmetry_Int_Tables_number      2
_space_group_name_Hall           '-P 1'
loop_
_symmetry_equiv_pos_site_id
_symmetry_equiv_pos_as_xyz
1 x,y,z
2 -x,-y,-z
_cell_length_a                   10.966(2)
_cell_length_b                   10.974(2)
_cell_length_c                   14.562(3)
_cell_angle_alpha                84.32(3)
_cell_angle_beta                 87.14(3)
_cell_angle_gamma                71.83(3)
_cell_volume                     1656.51
loop_
_atom_site_label
_atom_site_type_symbol
_atom_site_fract_x
_atom_site_fract_y
_atom_site_fract_z
Zn1 Zn 0.85803(3) 0.35937(3) 0.111100(19)
Zn2 Zn 0.93879(3) 0.90299(3) 0.179130(19)
N1 N 0.8180(2) 0.9899(2) 0.28100(15)
N2 N 0.3811(2) 1.2714(2) 0.83058(16)
N3 N 0.7237(2) 0.3745(2) 0.22511(14)
O1 O 1.1250(2) 0.7636(2) 0.32664(18)
O2 O 0.98855(18) 0.72294(17) 0.23557(13)
O3 O 1.12282(18) 0.49482(18) 0.13755(12)
O4 O 0.96124(18) 0.42639(19) 0.19742(12)
O5 O 1.0997(2) 0.12734(18) 0.33967(13)
O6 O 0.95467(16) 0.16284(16) 0.15655(12)
O7 O 1.08755(17) -0.03570(16) 0.15366(13)
O8 O 1.11987(17) 0.11663(18) -0.05717(12)
O9 O 1.29999(18) -0.04774(19) -0.04901(14)
O10 O 0.76039(18) 0.54690(18) 0.04936(13)
H1 H 0.7229 0.6093 0.0813
H2 H 0.7975 0.5797 0.0055
O11 O 0.99213(18) 0.34979(17) 0.00459(12)
H3 H 0.9634 0.4000 -0.0431
H4 H 1.0260 0.2765 -0.0157
O12 O 0.7336(2) 0.29112(19) 0.04078(14)
H5 H 0.7409 0.2113 0.0477
H6 H 0.7304 0.3098 -0.0173
C1 C 1.0710(3) 0.6913(3) 0.2991(2)
C2 C 1.1037(2) 0.5558(2) 0.34543(18)
C3 C 1.1333(3) 0.5392(3) 0.4382(2)
H9 H 1.1319 0.6104 0.4684
C4 C 1.1647(3) 0.4202(3) 0.4866(2)
H10 H 1.1835 0.4113 0.5489
C5 C 1.1682(3) 0.3130(3) 0.44210(18)
H11 H 1.1906 0.2319 0.4743
C6 C 1.1382(2) 0.3271(2) 0.34923(17)
C7 C 1.1035(2) 0.4491(2) 0.30054(16)
C8 C 1.0591(2) 0.4593(2) 0.20281(17)
C9 C 1.1448(2) 0.2085(2) 0.30264(17)
C10 C 1.2176(2) 0.1897(2) 0.21208(17)
C11 C 1.3286(2) 0.2265(3) 0.20152(19)
H12 H 1.3496 0.2703 0.2468
C12 C 1.4077(3) 0.1985(3) 0.12458(19)
H13 H 1.4827 0.2214 0.1187
C13 C 1.3746(2) 0.1361(2) 0.05642(18)
H14 H 1.4291 0.1149 0.0055
C14 C 1.2607(2) 0.1047(2) 0.06307(17)
C15 C 1.1823(2) 0.1288(2) 0.14191(16)
C16 C 1.0641(2) 0.0855(2) 0.15134(16)
C17 C 1.2258(2) 0.0497(2) -0.01948(17)
C18 C 0.6911(3) 1.0357(3) 0.27566(19)
H15 H 0.6533 1.0381 0.2194
C19 C 0.6131(3) 1.0798(3) 0.3503(2)
H16 H 0.5246 1.1111 0.3435
C20 C 0.6654(3) 1.0781(3) 0.43532(19)
C21 C 0.7983(3) 1.0322(3) 0.43962(19)
H17 H 0.8386 1.0302 0.4947
C22 C 0.8702(3) 0.9897(3) 0.3625(2)
H18 H 0.9591 0.9594 0.3669
C23 C 0.5809(3) 1.1251(3) 0.5142(2)
H19 H 0.4932 1.1553 0.5038
C24 C 0.6178(3) 1.1286(3) 0.5984(2)
H20 H 0.7055 1.0973 0.6091
C25 C 0.5333(3) 1.1772(3) 0.67712(18)
C26 C 0.5864(3) 1.1695(3) 0.76253(19)
H21 H 0.6743 1.1326 0.7703
C27 C 0.5076(3) 1.2170(3) 0.8361(2)
H22 H 0.5451 1.2105 0.8930
C28 C 0.3297(3) 1.2781(3) 0.7482(2)
H23 H 0.2414 1.3152 0.7427
C29 C 0.4008(3) 1.2327(3) 0.6712(2)
H24 H 0.3606 1.2391 0.6154
C30 C 0.5990(3) 0.4378(3) 0.21605(19)
H25 H 0.5657 0.4571 0.1570
C31 C 0.5168(3) 0.4761(3) 0.29007(19)
H26 H 0.4303 0.5196 0.2804
C32 C 0.5636(3) 0.4494(3) 0.37867(18)
C33 C 0.6915(3) 0.3745(3) 0.38835(18)
H27 H 0.7256 0.3473 0.4468
C34 C 0.7667(3) 0.3412(3) 0.31120(18)
H28 H 0.8524 0.2929 0.3191
C35 C 0.4812(3) 0.5018(3) 0.45738(19)
H29 H 0.3944 0.5413 0.4460
Zn1A Zn 0.14197(3) 0.64063(3) 0.888900(19)
Zn1_2 Zn 0.85803(3) 1.35937(3) 0.111100(19)
Zn2_2 Zn 0.93879(3) -0.09701(3) 0.179130(19)
Zn2A Zn 1.06121(3) 0.09701(3) -0.179130(19)
Zn2_3 Zn 0.93879(3) 1.90299(3) 0.179130(19)
Zn2A_2 Zn 1.06121(3) 1.09701(3) -0.179130(19)
N1_2 N 0.8180(2) -0.0101(2) 0.28100(15)
N2_2 N 0.3811(2) 0.2714(2) 0.83058(16)
N3A N 0.2763(2) 0.6255(2) 0.77489(14)
O1_2 O 1.1250(2) 1.7636(2) 0.32664(18)
O2_2 O 0.98855(18) 1.72294(17) 0.23557(13)
O2_3 O 0.98855(18) -0.27706(17) 0.23557(13)
O3_2 O 1.12282(18) 1.49482(18) 0.13755(12)
O4_2 O 0.96124(18) 1.42639(19) 0.19742(12)
O4A O 0.03876(18) 0.57361(19) 0.80258(12)
O5_2 O 1.0997(2) 1.12734(18) 0.33967(13)
O6_2 O 0.95467(16) 1.16284(16) 0.15655(12)
O6A O 0.04533(16) 0.83716(16) 0.84345(12)
O7_2 O 1.08755(17) 0.96430(16) 0.15366(13)
O8_2 O 1.11987(17) 1.11663(18) -0.05717(12)
O8A O 0.88013(17) 0.88337(18) 0.05717(12)
O8A_2 O 0.88013(17) -0.11663(18) 0.05717(12)
O9_2 O 1.29999(18) 0.95226(19) -0.04901(14)
O10A O 0.23961(18) 0.45310(18) 0.95064(13)
H1A H 0.2771 0.3907 0.9187
H2A H 0.2025 0.4203 0.9945
O11A O 0.00787(18) 0.65021(17) 0.99541(12)
H3A H 0.0366 0.6000 1.0431
H4A H -0.0260 0.7235 1.0157
O12A O 0.2664(2) 0.70888(19) 0.95922(14)
H5A H 0.2591 0.7887 0.9523
H6A H 0.2696 0.6902 1.0173
C1_2 C 1.0710(3) 1.6913(3) 0.2991(2)
C2_2 C 1.1037(2) 1.5558(2) 0.34543(18)
C3_2 C 1.1333(3) 1.5392(3) 0.4382(2)
H9_2 H 1.1319 1.6104 0.4684
C4_2 C 1.1647(3) 1.4202(3) 0.4866(2)
H10_2 H 1.1835 1.4113 0.5489
C5_2 C 1.1682(3) 1.3130(3) 0.44210(18)
H11_2 H 1.1906 1.2319 0.4743
C6_2 C 1.1382(2) 1.3271(2) 0.34923(17)
C7_2 C 1.1035(2) 1.4491(2) 0.30054(16)
C8_2 C 1.0591(2) 1.4593(2) 0.20281(17)
C9_2 C 1.1448(2) 1.2085(2) 0.30264(17)
C10_2 C 1.2176(2) 1.1897(2) 0.21208(17)
C11_2 C 1.3286(2) 1.2265(3) 0.20152(19)
H12_2 H 1.3496 1.2703 0.2468
C12_2 C 1.4077(3) 1.1985(3) 0.12458(19)
H13_2 H 1.4827 1.2214 0.1187
C13_2 C 1.3746(2) 1.1361(2) 0.05642(18)
H14_2 H 1.4291 1.1149 0.0055
C14_2 C 1.2607(2) 1.1047(2) 0.06307(17)
C15_2 C 1.1823(2) 1.1288(2) 0.14191(16)
C16_2 C 1.0641(2) 1.0855(2) 0.15134(16)
C17_2 C 1.2258(2) 1.0497(2) -0.01948(17)
C18_2 C 0.6911(3) 0.0357(3) 0.27566(19)
H15_2 H 0.6533 0.0381 0.2194
C19_2 C 0.6131(3) 0.0798(3) 0.3503(2)
H16_2 H 0.5246 0.1111 0.3435
C20_2 C 0.6654(3) 0.0781(3) 0.43532(19)
C21_2 C 0.7983(3) 0.0322(3) 0.43962(19)
H17_2 H 0.8386 0.0302 0.4947
C22_2 C 0.8702(3) -0.0103(3) 0.3625(2)
H18_2 H 0.9591 -0.0406 0.3669
C23_2 C 0.5809(3) 0.1251(3) 0.5142(2)
H19_2 H 0.4932 0.1553 0.5038
C24_2 C 0.6178(3) 0.1286(3) 0.5984(2)
H20_2 H 0.7055 0.0973 0.6091
C25_2 C 0.5333(3) 0.1772(3) 0.67712(18)
C26_2 C 0.5864(3) 0.1695(3) 0.76253(19)
H21_2 H 0.6743 0.1326 0.7703
C27_2 C 0.5076(3) 0.2170(3) 0.8361(2)
H22_2 H 0.5451 0.2105 0.8930
C28_2 C 0.3297(3) 0.2781(3) 0.7482(2)
H23_2 H 0.2414 0.3152 0.7427
C29_2 C 0.4008(3) 0.2327(3) 0.6712(2)
H24_2 H 0.3606 0.2391 0.6154
C30A C 0.4010(3) 0.5622(3) 0.78395(19)
H25A H 0.4343 0.5429 0.8430
C31A C 0.4832(3) 0.5239(3) 0.70993(19)
H26A H 0.5697 0.4804 0.7196
C32A C 0.4364(3) 0.5506(3) 0.62133(18)
C33A C 0.3085(3) 0.6255(3) 0.61165(18)
H27A H 0.2744 0.6527 0.5532
C34A C 0.2333(3) 0.6588(3) 0.68880(18)
H28A H 0.1476 0.7071 0.6809
C35A C 0.5188(3) 0.4982(3) 0.54262(19)
H29A H 0.6056 0.4587 0.5540
O13 O 0.2853(3) 0.6357(3) 0.14155(17)
H7 H 0.2176 0.6236 0.1661
H8 H 0.2922 0.7002 0.1662
loop_
_geom_bond_atom_site_label_1
_geom_bond_atom_site_label_2
_geom_bond_site_symmetry_1
_geom_bond_site_symmetry_2
Zn1 N3 1_555 1_555
Zn2 N1 1_555 1_555
N1 C18 1_555 1_555
N2 C27 1_555 1_555
N3 C30 1_555 1_555
O1 C1 1_555 1_555
O2 Zn2 1_555 1_555
O3 C8 1_555 1_555
O4 Zn1 1_555 1_555
O5 C9 1_555 1_555
O6 Zn1 1_555 1_555
O7 C16 1_555 1_555
O8 C17 1_555 1_555
O9 C17 1_555 1_555
O10 Zn1 1_555 1_555
H1 O10 1_555 1_555
H2 O10 1_555 1_555
O11 Zn1 1_555 1_555
H3 O11 1_555 1_555
H4 O11 1_555 1_555
O12 Zn1 1_555 1_555
H5 O12 1_555 1_555
H6 O12 1_555 1_555
O13 H7 1_555 1_555
H8 O13 1_555 1_555
C1 O2 1_555 1_555
C2 C1 1_555 1_555
C3 C2 1_555 1_555
H9 C3 1_555 1_555
C4 C3 1_555 1_555
H10 C4 1_555 1_555
C5 C4 1_555 1_555
H11 C5 1_555 1_555
C6 C5 1_555 1_555
C7 C2 1_555 1_555
C8 O4 1_555 1_555
C9 C6 1_555 1_555
C10 C9 1_555 1_555
C11 C10 1_555 1_555
H12 C11 1_555 1_555
C12 C11 1_555 1_555
H13 C12 1_555 1_555
C13 C12 1_555 1_555
H14 C13 1_555 1_555
C14 C13 1_555 1_555
C15 C10 1_555 1_555
C16 O6 1_555 1_555
C17 C14 1_555 1_555
C18 H15 1_555 1_555
C19 C18 1_555 1_555
H16 C19 1_555 1_555
C20 C19 1_555 1_555
C21 C20 1_555 1_555
H17 C21 1_555 1_555
C22 N1 1_555 1_555
H18 C22 1_555 1_555
C23 C20 1_555 1_555
H19 C23 1_555 1_555
C24 C23 1_555 1_555
H20 C24 1_555 1_555
C25 C24 1_555 1_555
C26 C25 1_555 1_555
H21 C26 1_555 1_555
C27 C26 1_555 1_555
H22 C27 1_555 1_555
C28 N2 1_555 1_555
H23 C28 1_555 1_555
C29 C25 1_555 1_555
H24 C29 1_555 1_555
C30 H25 1_555 1_555
C31 C30 1_555 1_555
H26 C31 1_555 1_555
C32 C31 1_555 1_555
C33 C32 1_555 1_555
H27 C33 1_555 1_555
C34 N3 1_555 1_555
H28 C34 1_555 1_555
C35 C32 1_555 1_555
H29 C35 1_555 1_555
Zn1A N3A 1_555 1_555
Zn1_2 O4_2 1_555 1_555
Zn2_2 O7 1_555 1_555
Zn2A O8 1_555 1_555
Zn2_3 O2_2 1_555 1_555
Zn2A_2 O8_2 1_555 1_555
N1_2 Zn2_2 1_555 1_555
N2_2 C27_2 1_555 1_555
N3A C30A 1_555 1_555
O1_2 C1_2 1_555 1_555
O2_2 C1_2 1_555 1_555
O2_3 Zn2_2 1_555 1_555
O3_2 C8_2 1_555 1_555
O4_2 C8_2 1_555 1_555
O4A Zn1A 1_555 1_555
O5_2 C9_2 1_555 1_555
O6_2 Zn1_2 1_555 1_555
O6A Zn1A 1_555 1_555
O7_2 Zn2 1_555 1_555
O8_2 C17_2 1_555 1_555
O8A Zn2 1_555 1_555
O8A_2 Zn2_2 1_555 1_555
O9_2 C17_2 1_555 1_555
O10A Zn1A 1_555 1_555
H1A O10A 1_555 1_555
H2A O10A 1_555 1_555
O11A Zn1A 1_555 1_555
H3A O11A 1_555 1_555
H4A O11A 1_555 1_555
O12A Zn1A 1_555 1_555
H5A O12A 1_555 1_555
H6A O12A 1_555 1_555
C1_2 C2_2 1_555 1_555
C2_2 C3_2 1_555 1_555
C3_2 H9_2 1_555 1_555
C4_2 C3_2 1_555 1_555
H10_2 C4_2 1_555 1_555
C5_2 C4_2 1_555 1_555
H11_2 C5_2 1_555 1_555
C6_2 C5_2 1_555 1_555
C7_2 C2_2 1_555 1_555
C8_2 C7_2 1_555 1_555
C9_2 C6_2 1_555 1_555
C10_2 C9_2 1_555 1_555
C11_2 C10_2 1_555 1_555
H12_2 C11_2 1_555 1_555
C12_2 C11_2 1_555 1_555
H13_2 C12_2 1_555 1_555
C13_2 C12_2 1_555 1_555
H14_2 C13_2 1_555 1_555
C14_2 C13_2 1_555 1_555
C15_2 C10_2 1_555 1_555
C16_2 O6_2 1_555 1_555
C17_2 C14_2 1_555 1_555
C18_2 N1_2 1_555 1_555
H15_2 C18_2 1_555 1_555
C19_2 C18_2 1_555 1_555
H16_2 C19_2 1_555 1_555
C20_2 C19_2 1_555 1_555
C21_2 C20_2 1_555 1_555
H17_2 C21_2 1_555 1_555
C22_2 N1_2 1_555 1_555
H18_2 C22_2 1_555 1_555
C23_2 C20_2 1_555 1_555
H19_2 C23_2 1_555 1_555
C24_2 C23_2 1_555 1_555
H20_2 C24_2 1_555 1_555
C25_2 C24_2 1_555 1_555
C26_2 C25_2 1_555 1_555
H21_2 C26_2 1_555 1_555
C27_2 C26_2 1_555 1_555
H22_2 C27_2 1_555 1_555
C28_2 N2_2 1_555 1_555
H23_2 C28_2 1_555 1_555
C29_2 C25_2 1_555 1_555
H24_2 C29_2 1_555 1_555
C30A H25A 1_555 1_555
C31A C30A 1_555 1_555
H26A C31A 1_555 1_555
C32A C31A 1_555 1_555
C33A C32A 1_555 1_555
H27A C33A 1_555 1_555
C34A N3A 1_555 1_555
H28A C34A 1_555 1_555
C35A C35 1_555 1_555
H29A C35A 1_555 1_555
C6 C7 1_555 1_555
C7 C8 1_555 1_555
C14 C15 1_555 1_555
C15 C16 1_555 1_555
C21 C22 1_555 1_555
C28 C29 1_555 1_555
C33 C34 1_555 1_555
O7_2 C16_2 1_555 1_555
C6_2 C7_2 1_555 1_555
C14_2 C15_2 1_555 1_555
C15_2 C16_2 1_555 1_555
C21_2 C22_2 1_555 1_555
C28_2 C29_2 1_555 1_555
C32A C35A 1_555 1_555
C33A C34A 1_555 1_555

#END
