
#######################################################################
#
#                 Cambridge Crystallographic Data Centre
#                                CCDC 
#
#######################################################################
#
# If this CIF has been generated from an entry in the Cambridge 
# Structural Database, then it will include bibliographic, chemical, 
# crystal, experimental, refinement or atomic coordinate data resulting 
# from the CCDC's data processing and validation procedures.
#
#######################################################################

data_LABRAJ
_symmetry_cell_setting           monoclinic
_symmetry_space_group_name_H-M   'P 21/c'
_symmetry_Int_Tables_number      14
_space_group_name_Hall           '-P 2ybc'
loop_
_symmetry_equiv_pos_site_id
_symmetry_equiv_pos_as_xyz
1 x,y,z
2 -x,1/2+y,1/2-z
3 -x,-y,-z
4 x,1/2-y,1/2+z
_cell_length_a                   11.0753(7)
_cell_length_b                   8.7427(6)
_cell_length_c                   24.9801(16)
_cell_angle_alpha                90
_cell_angle_beta                 97.0080(10)
_cell_angle_gamma                90
_cell_volume                     2400.7
loop_
_atom_site_label
_atom_site_type_symbol
_atom_site_fract_x
_atom_site_fract_y
_atom_site_fract_z
Zn1 Zn 0.37547(5) 0.95394(6) 0.47317(2)
Zn2 Zn -0.40711(5) 1.77089(7) 0.41483(2)
N1 N 0.2025(3) 1.0630(4) 0.46575(16)
N2 N -0.2909(3) 1.5860(5) 0.42755(17)
O1 O 0.2952(3) 0.7801(4) 0.42089(12)
O2 O 0.4439(3) 0.7055(4) 0.37187(13)
O3 O 0.1274(3) 0.8959(4) 0.31494(15)
O4 O -0.0155(3) 0.7773(4) 0.35599(17)
H1 H -0.0610 0.8469 0.3443
O5 O 0.4353(3) 0.3963(4) 0.42264(14)
O6 O 0.4496(3) 0.0609(4) 0.41012(12)
O7 O 0.6369(3) 0.1261(4) 0.45023(12)
O8 O 0.6882(3) -0.1094(4) 0.36817(13)
O9 O 0.8491(3) 0.0065(4) 0.34295(16)
O10 O 0.5495(3) 0.8420(4) 0.48242(12)
H2 H 0.5467 0.7687 0.5027
C1 C 0.3025(4) 0.4446(5) 0.34322(18)
C2 C 0.2557(4) 0.5894(5) 0.35248(18)
C3 C 0.1383(4) 0.6266(6) 0.32825(19)
C4 C 0.0724(4) 0.5196(6) 0.2956(2)
H3 H -0.0062 0.5431 0.2803
C5 C 0.1206(5) 0.3813(7) 0.2856(2)
H4 H 0.0757 0.3119 0.2631
C6 C 0.2360(5) 0.3435(6) 0.3089(2)
H5 H 0.2692 0.2494 0.3014
C7 C 0.4198(4) 0.3928(5) 0.3731(2)
C8 C 0.5110(4) 0.3276(6) 0.34113(19)
C9 C 0.5786(4) 0.1993(5) 0.36013(18)
C10 C 0.6677(4) 0.1439(5) 0.33084(19)
C11 C 0.6910(5) 0.2167(6) 0.2837(2)
H6 H 0.7526 0.1808 0.2648
C12 C 0.6223(5) 0.3430(7) 0.2646(2)
H7 H 0.6371 0.3908 0.2327
C13 C 0.5323(5) 0.3964(6) 0.2932(2)
H8 H 0.4854 0.4797 0.2802
C14 C 0.3369(4) 0.7033(5) 0.38532(19)
C15 C 0.0858(4) 0.7838(7) 0.3333(2)
C16 C 0.5523(5) 0.1229(5) 0.4112(2)
C17 C 0.7403(5) 0.0024(6) 0.34888(19)
C18 C 0.1555(5) 1.1108(6) 0.4169(2)
H9 H 0.1918 1.0792 0.3871
C19 C 0.0551(5) 1.2053(6) 0.4088(2)
H10 H 0.0250 1.2348 0.3739
C20 C -0.0010(4) 1.2561(5) 0.4515(2)
C21 C 0.0454(4) 1.2021(6) 0.5023(2)
H11 H 0.0092 1.2297 0.5325
C22 C 0.1455(4) 1.1072(6) 0.5071(2)
H12 H 0.1751 1.0718 0.5413
C23 C -0.1050(4) 1.3674(5) 0.4435(2)
C24 C -0.1300(5) 1.4445(6) 0.3954(2)
H13 H -0.0848 1.4241 0.3672
C25 C -0.2225(4) 1.5526(6) 0.3887(2)
H14 H -0.2374 1.6036 0.3559
C26 C -0.2695(5) 1.5079(6) 0.4738(2)
H15 H -0.3179 1.5274 0.5009
C27 C -0.1791(4) 1.4000(6) 0.4829(2)
H16 H -0.1677 1.3486 0.5157
Zn1_2 Zn 0.37547(5) -0.04606(6) 0.47317(2)
Zn1B Zn 0.62453(5) 0.04606(6) 0.52683(2)
Zn1B_2 Zn 0.62453(5) 1.04606(6) 0.52683(2)
Zn2_2 Zn 0.59289(5) 0.77089(7) 0.41483(2)
Zn2_3 Zn 0.59289(5) -0.22911(7) 0.41483(2)
O2_2 O -0.5561(3) 1.7055(4) 0.37187(13)
O6_2 O 0.4496(3) 1.0609(4) 0.41012(12)
O7B O 0.3631(3) 0.8739(4) 0.54977(12)
O8_2 O -0.3118(3) 1.8906(4) 0.36817(13)
O10B O 0.4505(3) 1.1580(4) 0.51758(12)
O10_2 O -0.4505(3) 1.8420(4) 0.48242(12)
H2B H 0.4533 1.2313 0.4973
H2_2 H -0.4533 1.7687 0.5027
loop_
_geom_bond_atom_site_label_1
_geom_bond_atom_site_label_2
_geom_bond_site_symmetry_1
_geom_bond_site_symmetry_2
Zn1 N1 1_555 1_555
Zn2 N2 1_555 1_555
N1 C18 1_555 1_555
N2 C25 1_555 1_555
O1 Zn1 1_555 1_555
O2 C14 1_555 1_555
O3 C15 1_555 1_555
O4 H1 1_555 1_555
O5 C7 1_555 1_555
O6 C16 1_555 1_555
O7 C16 1_555 1_555
O8 C17 1_555 1_555
O9 C17 1_555 1_555
O10 Zn1 1_555 1_555
H2 O10 1_555 1_555
C1 C2 1_555 1_555
C2 C3 1_555 1_555
C3 C4 1_555 1_555
C4 H3 1_555 1_555
C5 C4 1_555 1_555
H4 C5 1_555 1_555
C6 C1 1_555 1_555
H5 C6 1_555 1_555
C7 C1 1_555 1_555
C8 C7 1_555 1_555
C9 C8 1_555 1_555
C10 C9 1_555 1_555
C11 C10 1_555 1_555
H6 C11 1_555 1_555
C12 C11 1_555 1_555
H7 C12 1_555 1_555
C13 C8 1_555 1_555
H8 C13 1_555 1_555
C14 O1 1_555 1_555
C15 O4 1_555 1_555
C16 C9 1_555 1_555
C17 C10 1_555 1_555
C18 H9 1_555 1_555
C19 C18 1_555 1_555
H10 C19 1_555 1_555
C20 C19 1_555 1_555
C21 C20 1_555 1_555
H11 C21 1_555 1_555
C22 N1 1_555 1_555
H12 C22 1_555 1_555
C23 C20 1_555 1_555
C24 C23 1_555 1_555
H13 C24 1_555 1_555
C25 C24 1_555 1_555
H14 C25 1_555 1_555
C26 N2 1_555 1_555
H15 C26 1_555 1_555
C27 C23 1_555 1_555
H16 C27 1_555 1_555
Zn1_2 O6 1_555 1_555
Zn1B O7 1_555 1_555
Zn1B_2 O10 1_555 1_555
Zn2_2 O2 1_555 1_555
Zn2_3 O8 1_555 1_555
O2_2 Zn2 1_555 1_555
O6_2 Zn1 1_555 1_555
O7B Zn1 1_555 1_555
O8_2 Zn2 1_555 1_555
O10B Zn1 1_555 1_555
O10_2 Zn2 1_555 1_555
H2B O10B 1_555 1_555
H2_2 O10_2 1_555 1_555
O10 Zn2_2 1_555 1_555
C2 C14 1_555 1_555
C3 C15 1_555 1_555
C5 C6 1_555 1_555
C12 C13 1_555 1_555
C21 C22 1_555 1_555
C26 C27 1_555 1_555
Zn1B_2 O10B 1_555 1_555

#END
