
#######################################################################
#
#                 Cambridge Crystallographic Data Centre
#                                CCDC 
#
#######################################################################
#
# If this CIF has been generated from an entry in the Cambridge 
# Structural Database, then it will include bibliographic, chemical, 
# crystal, experimental, refinement or atomic coordinate data resulting 
# from the CCDC's data processing and validation procedures.
#
#######################################################################

data_LABRIR
_symmetry_cell_setting           triclinic
_symmetry_space_group_name_H-M   'P -1'
_symmetry_Int_Tables_number      2
_space_group_name_Hall           '-P 1'
loop_
_symmetry_equiv_pos_site_id
_symmetry_equiv_pos_as_xyz
1 x,y,z
2 -x,-y,-z
_cell_length_a                   11.6833(13)
_cell_length_b                   12.4887(14)
_cell_length_c                   16.2276(18)
_cell_angle_alpha                71.931(2)
_cell_angle_beta                 74.323(2)
_cell_angle_gamma                69.001(2)
_cell_volume                     2067.47
loop_
_atom_site_label
_atom_site_type_symbol
_atom_site_fract_x
_atom_site_fract_y
_atom_site_fract_z
Cd1 Cd 0.44482(3) 0.52174(3) 0.66291(2)
Cd2 Cd -0.00804(3) 0.09350(3) 0.83341(2)
N1 N 0.5301(4) 0.5314(4) 0.7739(3)
N2 N 1.2569(4) 0.5384(4) 0.7634(3)
N3 N -0.0075(4) 0.2725(4) 0.7361(3)
N4 N -0.0121(4) 1.0237(4) 0.7159(3)
O1 O 0.2195(3) -0.0010(4) 0.8115(3)
O2 O 0.1341(3) 0.0938(3) 0.9172(2)
O3 O 0.1644(3) -0.1506(4) 1.0343(3)
O4 O 0.2315(4) -0.1241(4) 1.1371(3)
O5 O 0.3597(4) 0.1864(3) 0.7832(3)
O6 O 0.5572(4) 0.3041(3) 0.6916(3)
O7 O 0.4119(3) 0.3783(3) 0.6104(2)
O8 O 0.6416(4) 0.3372(3) 0.4701(2)
O9 O 0.5739(4) 0.2701(4) 0.3891(3)
O10 O 0.6344(3) 0.5045(3) 0.5583(2)
H1 H 0.6212 0.5501 0.5084
H2 H 0.6594 0.4339 0.5527
O11 O 0.0031(4) -0.1020(3) 0.9177(2)
H3 H -0.0517 -0.1083 0.9642
H4 H 0.0722 -0.1174 0.9333
C1 C 0.3472(4) -0.0302(4) 0.9118(3)
C2 C 0.3569(4) -0.1045(4) 0.9953(3)
C3 C 0.4715(4) -0.1521(4) 1.0224(3)
H5 H 0.4769 -0.1985 1.0792
C4 C 0.5779(5) -0.1316(4) 0.9662(4)
H6 H 0.6547 -0.1667 0.9843
C5 C 0.5693(5) -0.0582(4) 0.8825(3)
H7 H 0.6405 -0.0445 0.8441
C6 C 0.4540(4) -0.0055(4) 0.8562(3)
C7 C 0.4377(5) 0.0932(5) 0.7760(4)
C8 C 0.5120(4) 0.0771(4) 0.6882(3)
C9 C 0.5325(4) 0.1755(4) 0.6222(3)
C10 C 0.5843(4) 0.1607(4) 0.5355(3)
C11 C 0.6138(5) 0.0511(5) 0.5181(4)
H8 H 0.6465 0.0421 0.4608
C12 C 0.5954(5) -0.0448(5) 0.5846(4)
H9 H 0.6167 -0.1181 0.5721
C13 C 0.5456(5) -0.0320(5) 0.6691(4)
H10 H 0.5344 -0.0971 0.7139
C14 C 0.2251(5) 0.0246(5) 0.8778(3)
C15 C 0.2421(5) -0.1283(4) 1.0597(4)
C16 C 0.4985(5) 0.2942(4) 0.6436(3)
C17 C 0.6019(5) 0.2629(5) 0.4606(3)
C18 C 0.0956(5) 0.3028(5) 0.6962(4)
H11 H 0.1719 0.2486 0.7074
C19 C 0.0948(6) 0.4108(5) 0.6389(4)
H12 H 0.1696 0.4275 0.6126
C20 C -0.0155(6) 0.4938(5) 0.6202(4)
C21 C -0.1225(6) 0.4622(5) 0.6603(4)
H13 H -0.1998 0.5153 0.6503
C22 C -0.1148(5) 0.3510(5) 0.7156(4)
H14 H -0.1878 0.3300 0.7395
C23 C -0.0210(7) 0.6141(5) 0.5596(4)
H15 H -0.0951 0.6440 0.5333
H16 H 0.0510 0.6074 0.5125
C24 C -0.0232(7) 0.6992(5) 0.6084(4)
H17 H -0.0965 0.7069 0.6544
H18 H 0.0494 0.6672 0.6364
C25 C -0.0246(6) 0.8225(5) 0.5491(4)
H19 H -0.0995 0.8576 0.5234
H20 H 0.0469 0.8158 0.5016
C26 C -0.0209(5) 0.8992(5) 0.6026(3)
C27 C 0.0887(5) 0.8927(5) 0.6213(4)
H21 H 0.1631 0.8456 0.5958
C28 C 0.0910(5) 0.9543(5) 0.6772(4)
H22 H 0.1675 0.9474 0.6886
C29 C -0.1185(5) 1.0355(5) 0.6941(4)
H23 H -0.1912 1.0874 0.7170
C30 C -0.1263(5) 0.9750(6) 0.6396(4)
H24 H -0.2034 0.9852 0.6275
C31 C 0.5188(5) 0.6332(5) 0.7915(4)
H25 H 0.4786 0.7036 0.7557
C32 C 0.5636(5) 0.6387(5) 0.8596(4)
H26 H 0.5517 0.7116 0.8697
C33 C 0.6260(4) 0.5368(5) 0.9129(3)
C34 C 0.6341(5) 0.4325(5) 0.8966(3)
H27 H 0.6737 0.3610 0.9316
C35 C 0.5842(5) 0.4331(5) 0.8288(3)
H28 H 0.5885 0.3610 0.8209
C36 C 0.6864(4) 0.5369(5) 0.9839(4)
H29 H 0.6676 0.4785 1.0367
H30 H 0.6522 0.6136 0.9978
C37 C 0.8290(6) 0.5089(8) 0.9548(4)
H31 H 0.8661 0.4925 1.0059
H32 H 0.8610 0.4383 0.9323
C38 C 0.8662(6) 0.6021(7) 0.8891(5)
H33 H 0.8393 0.6703 0.9140
H34 H 0.8217 0.6232 0.8410
C39 C 1.0112(6) 0.5770(6) 0.8490(4)
C40 C 1.0639(6) 0.6617(6) 0.8244(4)
H35 H 1.0199 0.7352 0.8365
C41 C 1.1838(5) 0.6400(6) 0.7809(4)
H36 H 1.2174 0.7026 0.7618
C42 C 1.2091(6) 0.4491(6) 0.7938(5)
H37 H 1.2586 0.3744 0.7863
C43 C 1.0822(7) 0.4661(7) 0.8382(5)
H38 H 1.0487 0.4033 0.8593
Cd1_2 Cd 1.44482(3) 0.52174(3) 0.66291(2)
Cd1A Cd 0.55518(3) 0.47826(3) 0.33709(2)
Cd2_2 Cd -0.00804(3) 1.09350(3) 0.83341(2)
Cd2A Cd 0.00804(3) -0.09350(3) 1.16659(2)
N2_2 N 0.2569(4) 0.5384(4) 0.7634(3)
N4_2 N -0.0121(4) 0.0237(4) 0.7159(3)
O4A O -0.2315(4) 0.1241(4) 0.8629(3)
O8A O 0.3584(4) 0.6628(3) 0.5299(2)
O9A O 0.4261(4) 0.7299(4) 0.6109(3)
loop_
_geom_bond_atom_site_label_1
_geom_bond_atom_site_label_2
_geom_bond_site_symmetry_1
_geom_bond_site_symmetry_2
Cd1 N1 1_555 1_555
Cd2 N3 1_555 1_555
N1 C31 1_555 1_555
N2 C41 1_555 1_555
N3 C18 1_555 1_555
N4 C28 1_555 1_555
O1 Cd2 1_555 1_555
O2 Cd2 1_555 1_555
O3 C15 1_555 1_555
O4 C15 1_555 1_555
O5 C7 1_555 1_555
O6 Cd1 1_555 1_555
O7 Cd1 1_555 1_555
O8 C17 1_555 1_555
O9 C17 1_555 1_555
O10 Cd1 1_555 1_555
H1 O10 1_555 1_555
H2 O10 1_555 1_555
O11 Cd2 1_555 1_555
H3 O11 1_555 1_555
H4 O11 1_555 1_555
C1 C2 1_555 1_555
C2 C3 1_555 1_555
C3 H5 1_555 1_555
C4 C3 1_555 1_555
H6 C4 1_555 1_555
C5 C4 1_555 1_555
H7 C5 1_555 1_555
C6 C1 1_555 1_555
C7 C6 1_555 1_555
C8 C7 1_555 1_555
C9 C8 1_555 1_555
C10 C9 1_555 1_555
C11 C10 1_555 1_555
H8 C11 1_555 1_555
C12 C11 1_555 1_555
H9 C12 1_555 1_555
C13 C8 1_555 1_555
H10 C13 1_555 1_555
C14 O1 1_555 1_555
C15 C2 1_555 1_555
C16 O6 1_555 1_555
C17 C10 1_555 1_555
C18 H11 1_555 1_555
C19 C18 1_555 1_555
H12 C19 1_555 1_555
C20 C19 1_555 1_555
C21 C20 1_555 1_555
H13 C21 1_555 1_555
C22 N3 1_555 1_555
H14 C22 1_555 1_555
C23 C20 1_555 1_555
H15 C23 1_555 1_555
H16 C23 1_555 1_555
C24 C23 1_555 1_555
H17 C24 1_555 1_555
H18 C24 1_555 1_555
C25 C24 1_555 1_555
H19 C25 1_555 1_555
H20 C25 1_555 1_555
C26 C25 1_555 1_555
C27 C26 1_555 1_555
H21 C27 1_555 1_555
C28 C27 1_555 1_555
H22 C28 1_555 1_555
C29 N4 1_555 1_555
H23 C29 1_555 1_555
C30 C26 1_555 1_555
H24 C30 1_555 1_555
C31 H25 1_555 1_555
C32 C31 1_555 1_555
H26 C32 1_555 1_555
C33 C32 1_555 1_555
C34 C33 1_555 1_555
H27 C34 1_555 1_555
C35 N1 1_555 1_555
H28 C35 1_555 1_555
C36 C33 1_555 1_555
H29 C36 1_555 1_555
H30 C36 1_555 1_555
C37 C36 1_555 1_555
H31 C37 1_555 1_555
H32 C37 1_555 1_555
C38 C37 1_555 1_555
H33 C38 1_555 1_555
H34 C38 1_555 1_555
C39 C38 1_555 1_555
C40 C39 1_555 1_555
H35 C40 1_555 1_555
C41 C40 1_555 1_555
H36 C41 1_555 1_555
C42 N2 1_555 1_555
H37 C42 1_555 1_555
C43 C39 1_555 1_555
H38 C43 1_555 1_555
Cd1_2 N2 1_555 1_555
Cd1A O8 1_555 1_555
Cd2_2 N4 1_555 1_555
Cd2A O4 1_555 1_555
N2_2 Cd1 1_555 1_555
N4_2 Cd2 1_555 1_555
O4A Cd2 1_555 1_555
O8A Cd1 1_555 1_555
O9A Cd1 1_555 1_555
O2 C14 1_555 1_555
O7 C16 1_555 1_555
O9 Cd1A 1_555 1_555
C1 C14 1_555 1_555
C5 C6 1_555 1_555
C9 C16 1_555 1_555
C12 C13 1_555 1_555
C21 C22 1_555 1_555
C29 C30 1_555 1_555
C34 C35 1_555 1_555
C42 C43 1_555 1_555

#END
