
#######################################################################
#
#                 Cambridge Crystallographic Data Centre
#                                CCDC 
#
#######################################################################
#
# If this CIF has been generated from an entry in the Cambridge 
# Structural Database, then it will include bibliographic, chemical, 
# crystal, experimental, refinement or atomic coordinate data resulting 
# from the CCDC's data processing and validation procedures.
#
#######################################################################

data_LABSIS
_symmetry_cell_setting           monoclinic
_symmetry_space_group_name_H-M   'C 2/c'
_symmetry_Int_Tables_number      15
_space_group_name_Hall           '-C 2yn'
loop_
_symmetry_equiv_pos_site_id
_symmetry_equiv_pos_as_xyz
1 x,y,z
2 -x,y,1/2-z
3 1/2+x,1/2+y,z
4 1/2-x,1/2+y,1/2-z
5 -x,-y,-z
6 x,-y,1/2+z
7 1/2-x,1/2-y,-z
8 1/2+x,1/2-y,1/2+z
_cell_length_a                   18.9900(19)
_cell_length_b                   23.231(2)
_cell_length_c                   12.0864(12)
_cell_angle_alpha                90
_cell_angle_beta                 120.5250(10)
_cell_angle_gamma                90
_cell_volume                     4593.02
loop_
_atom_site_label
_atom_site_type_symbol
_atom_site_fract_x
_atom_site_fract_y
_atom_site_fract_z
Co1 Co 0.299670(18) 1.050476(12) 0.32026(3)
Co2 Co 0.5000 1.023328(17) 0.7500
O1 O 0.18684(11) 0.86475(8) 0.55767(18)
O2 O 0.29442(9) 0.92353(6) 0.65496(15)
O3 O 0.31580(9) 1.01455(6) 0.49156(14)
O4 O 0.43004(9) 0.96520(6) 0.62093(15)
O5 O 0.39097(9) 0.99382(6) 0.33851(15)
O6 O 0.44158(9) 0.91794(6) 0.29307(15)
O7 O 0.19466(12) 0.72891(8) 0.2543(2)
O8 O 0.26975(13) 0.74523(8) 0.1711(2)
O9 O 0.20630(10) 1.11435(7) 0.29187(16)
H1 H 0.2267 1.1463 0.3281
H2 H 0.1900 1.1198 0.2141
N1 N 0.24241(13) 0.75868(9) 0.2404(2)
N2 N 0.19797(11) 0.99477(8) 0.20432(19)
N3 N 0.10919(12) 0.61310(8) 0.07592(19)
C1 C 0.27243(13) 0.87720(9) 0.4685(2)
C2 C 0.32383(12) 0.91442(9) 0.4499(2)
C3 C 0.34565(13) 0.90048(9) 0.3586(2)
C4 C 0.31982(13) 0.84918(9) 0.2912(2)
H3 H 0.3363 0.8390 0.2334
C5 C 0.26937(14) 0.81347(9) 0.3110(2)
C6 C 0.24444(14) 0.82680(9) 0.3971(2)
H4 H 0.2093 0.8024 0.4072
C7 C 0.24800(14) 0.88910(10) 0.5676(2)
C8 C 0.35851(13) 0.96946(9) 0.5282(2)
C9 C 0.39624(13) 0.94074(9) 0.3290(2)
C10 C 0.13939(16) 0.98410(11) 0.2308(3)
H5 H 0.1427 1.0013 0.3029
C11 C 0.07370(17) 0.94859(12) 0.1562(3)
H6 H 0.0341 0.9425 0.1785
C12 C 0.06649(15) 0.92204(10) 0.0486(3)
C13 C 0.12694(17) 0.93381(11) 0.0210(3)
H7 H 0.1247 0.9175 -0.0511
C14 C 0.19086(16) 0.96966(10) 0.0997(2)
H8 H 0.2310 0.9767 0.0790
C15 C -0.00026(16) 0.87929(11) -0.0290(3)
H9 H -0.0203 0.8848 -0.1198
H10 H -0.0455 0.8850 -0.0143
C16 C 0.03363(16) 0.81858(11) 0.0107(3)
H11 H 0.0529 0.8138 0.1014
H12 H 0.0804 0.8144 -0.0007
C17 C -0.02736(17) 0.77067(11) -0.0636(3)
H13 H -0.0723 0.7721 -0.0472
H14 H -0.0494 0.7759 -0.1550
C18 C 0.11002(15) 0.64446(10) -0.0165(2)
H15 H 0.1426 0.6321 -0.0490
C19 C 0.06511(16) 0.69403(11) -0.0658(3)
H16 H 0.0685 0.7147 -0.1288
C20 C 0.01520(15) 0.71304(10) -0.0219(3)
C21 C 0.01055(15) 0.67922(11) 0.0685(3)
H17 H -0.0245 0.6894 0.0978
C22 C 0.05823(14) 0.63008(10) 0.1153(3)
H18 H 0.0546 0.6081 0.1765
Co1A Co 0.700330(18) 1.050476(12) 1.17974(3)
Co1B Co 0.799670(18) 0.550476(12) 1.32026(3)
Co1C Co 0.200330(18) 0.550476(12) 0.17974(3)
Co1D Co 0.700330(18) 0.949524(12) 0.67974(3)
Co1E Co 0.299670(18) 0.949524(12) 0.82026(3)
Co2D Co 0.5000 0.976672(17) 0.2500
Co2D_2 Co 0.5000 0.976672(17) 1.2500
O1A O 0.81316(11) 0.86475(8) 0.94233(18)
O2A O 0.70558(9) 0.92353(6) 0.84504(15)
O2D O 0.70558(9) 1.07647(6) 1.34504(15)
O2E O 0.29442(9) 1.07647(6) 0.15496(15)
O3A O 0.68420(9) 1.01455(6) 1.00844(14)
O4A O 0.56996(9) 0.96520(6) 0.87907(15)
O5A O 0.60903(9) 0.99382(6) 1.16149(15)
O6A O 0.55842(9) 0.91794(6) 1.20693(15)
O6D O 0.55842(9) 1.08206(6) 0.70693(15)
O6E O 0.44158(9) 1.08206(6) 0.79307(15)
O7A O 0.80534(12) 0.72891(8) 1.2457(2)
O8A O 0.73025(13) 0.74523(8) 1.3289(2)
O9A O 0.79370(10) 1.11435(7) 1.20813(16)
H1A H 0.7733 1.1463 1.1719
H2A H 0.8100 1.1198 1.2859
N1A N 0.75759(13) 0.75868(9) 1.2596(2)
N2A N 0.80203(11) 0.99477(8) 1.29568(19)
N3A N 0.89081(12) 0.61310(8) 1.42408(19)
N3B N 0.60919(12) 1.11310(8) 1.07592(19)
N3C N 0.39081(12) 1.11310(8) 0.42408(19)
C1A C 0.72757(13) 0.87720(9) 1.0315(2)
C2A C 0.67617(12) 0.91442(9) 1.0501(2)
C3A C 0.65435(13) 0.90048(9) 1.1414(2)
C4A C 0.68018(13) 0.84918(9) 1.2088(2)
H3A H 0.6637 0.8390 1.2666
C5A C 0.73063(14) 0.81347(9) 1.1890(2)
C6A C 0.75556(14) 0.82680(9) 1.1029(2)
H4A H 0.7907 0.8024 1.0928
C7A C 0.75200(14) 0.88910(10) 0.9324(2)
C8A C 0.64149(13) 0.96946(9) 0.9718(2)
C9A C 0.60376(13) 0.94074(9) 1.1710(2)
C10A C 0.86061(16) 0.98410(11) 1.2692(3)
H5A H 0.8573 1.0013 1.1971
C11A C 0.92630(17) 0.94859(12) 1.3438(3)
H6A H 0.9659 0.9425 1.3215
C12A C 0.93351(15) 0.92204(10) 1.4514(3)
C13A C 0.87306(17) 0.93381(11) 1.4790(3)
H7A H 0.8753 0.9175 1.5511
C14A C 0.80914(16) 0.96966(10) 1.4003(2)
H8A H 0.7690 0.9767 1.4210
C15A C 1.00026(16) 0.87929(11) 1.5290(3)
H9A H 1.0203 0.8848 1.6198
H10A H 1.0455 0.8850 1.5143
C16A C 0.96637(16) 0.81858(11) 1.4893(3)
H11A H 0.9471 0.8138 1.3986
H12A H 0.9196 0.8144 1.5007
C17A C 1.02736(17) 0.77067(11) 1.5636(3)
H13A H 1.0723 0.7721 1.5472
H14A H 1.0494 0.7759 1.6550
C18A C 0.88998(15) 0.64446(10) 1.5165(2)
H15A H 0.8574 0.6321 1.5490
C19A C 0.93489(16) 0.69403(11) 1.5658(3)
H16A H 0.9315 0.7147 1.6288
C20A C 0.98480(15) 0.71304(10) 1.5219(3)
C21A C 0.98945(15) 0.67922(11) 1.4315(3)
H17A H 1.0245 0.6894 1.4022
C22A C 0.94177(14) 0.63008(10) 1.3847(3)
H18A H 0.9454 0.6081 1.3235
loop_
_geom_bond_atom_site_label_1
_geom_bond_atom_site_label_2
_geom_bond_site_symmetry_1
_geom_bond_site_symmetry_2
Co1 O3 1_555 1_555
Co2 O4 1_555 1_555
O1 C7 1_555 1_555
O2 C7 1_555 1_555
O3 C8 1_555 1_555
O4 C8 1_555 1_555
O5 Co1 1_555 1_555
O6 C9 1_555 1_555
O7 N1 1_555 1_555
O8 N1 1_555 1_555
O9 Co1 1_555 1_555
H1 O9 1_555 1_555
H2 O9 1_555 1_555
N1 C5 1_555 1_555
N2 Co1 1_555 1_555
N3 C18 1_555 1_555
C1 C2 1_555 1_555
C2 C3 1_555 1_555
C3 C4 1_555 1_555
C4 H3 1_555 1_555
C5 C4 1_555 1_555
C6 C1 1_555 1_555
H4 C6 1_555 1_555
C7 C1 1_555 1_555
C8 C2 1_555 1_555
C9 O5 1_555 1_555
C10 N2 1_555 1_555
H5 C10 1_555 1_555
C11 C10 1_555 1_555
H6 C11 1_555 1_555
C12 C11 1_555 1_555
C13 C12 1_555 1_555
H7 C13 1_555 1_555
C14 N2 1_555 1_555
H8 C14 1_555 1_555
C15 C12 1_555 1_555
H9 C15 1_555 1_555
H10 C15 1_555 1_555
C16 C15 1_555 1_555
H11 C16 1_555 1_555
H12 C16 1_555 1_555
C17 C16 1_555 1_555
H13 C17 1_555 1_555
H14 C17 1_555 1_555
C18 H15 1_555 1_555
C19 C18 1_555 1_555
H16 C19 1_555 1_555
C20 C17 1_555 1_555
C21 C20 1_555 1_555
H17 C21 1_555 1_555
C22 N3 1_555 1_555
H18 C22 1_555 1_555
Co1A O2D 1_555 1_555
Co1B N3A 1_555 1_555
Co1C N3 1_555 1_555
Co1D O2A 1_555 1_555
Co1E O2 1_555 1_555
Co2D O6 1_555 1_555
Co2D_2 O6A 1_555 1_555
O1A C7A 1_555 1_555
O2A C7A 1_555 1_555
O2E Co1 1_555 1_555
O3A Co1A 1_555 1_555
O4A Co2 1_555 1_555
O5A Co1A 1_555 1_555
O6A C9A 1_555 1_555
O6D Co2 1_555 1_555
O6E Co2 1_555 1_555
O7A N1A 1_555 1_555
O8A N1A 1_555 1_555
O9A Co1A 1_555 1_555
H1A O9A 1_555 1_555
H2A O9A 1_555 1_555
N1A C5A 1_555 1_555
N2A Co1A 1_555 1_555
N3A C18A 1_555 1_555
N3B Co1A 1_555 1_555
N3C Co1 1_555 1_555
C1A C2A 1_555 1_555
C2A C3A 1_555 1_555
C3A C4A 1_555 1_555
C4A H3A 1_555 1_555
C5A C4A 1_555 1_555
C6A C1A 1_555 1_555
H4A C6A 1_555 1_555
C7A C1A 1_555 1_555
C8A O3A 1_555 1_555
C9A O5A 1_555 1_555
C10A N2A 1_555 1_555
H5A C10A 1_555 1_555
C11A C10A 1_555 1_555
H6A C11A 1_555 1_555
C12A C11A 1_555 1_555
C13A C12A 1_555 1_555
H7A C13A 1_555 1_555
C14A N2A 1_555 1_555
H8A C14A 1_555 1_555
C15A C12A 1_555 1_555
H9A C15A 1_555 1_555
H10A C15A 1_555 1_555
C16A C15A 1_555 1_555
H11A C16A 1_555 1_555
H12A C16A 1_555 1_555
C17A C16A 1_555 1_555
H13A C17A 1_555 1_555
H14A C17A 1_555 1_555
C18A H15A 1_555 1_555
C19A C18A 1_555 1_555
H16A C19A 1_555 1_555
C20A C17A 1_555 1_555
C21A C20A 1_555 1_555
H17A C21A 1_555 1_555
C22A N3A 1_555 1_555
H18A C22A 1_555 1_555
C3 C9 1_555 1_555
C5 C6 1_555 1_555
C13 C14 1_555 1_555
C19 C20 1_555 1_555
C21 C22 1_555 1_555
O4A C8A 1_555 1_555
C2A C8A 1_555 1_555
C3A C9A 1_555 1_555
C5A C6A 1_555 1_555
C13A C14A 1_555 1_555
C19A C20A 1_555 1_555
C21A C22A 1_555 1_555

#END
