
#######################################################################
#
#                 Cambridge Crystallographic Data Centre
#                                CCDC 
#
#######################################################################
#
# If this CIF has been generated from an entry in the Cambridge 
# Structural Database, then it will include bibliographic, chemical, 
# crystal, experimental, refinement or atomic coordinate data resulting 
# from the CCDC's data processing and validation procedures.
#
#######################################################################

data_LABTEO
_symmetry_cell_setting           monoclinic
_symmetry_space_group_name_H-M   'P 21/c'
_symmetry_Int_Tables_number      14
_space_group_name_Hall           '-P 2ybc'
loop_
_symmetry_equiv_pos_site_id
_symmetry_equiv_pos_as_xyz
1 x,y,z
2 x,1/2-y,1/2+z
3 -x,-y,-z
4 -x,1/2+y,1/2-z
_cell_length_a                   6.880(5)
_cell_length_b                   12.270(6)
_cell_length_c                   18.828(9)
_cell_angle_alpha                90
_cell_angle_beta                 99.99(1)
_cell_angle_gamma                90
_cell_volume                     1565.32
loop_
_atom_site_label
_atom_site_type_symbol
_atom_site_fract_x
_atom_site_fract_y
_atom_site_fract_z
Zn1 Zn 0.23038(6) 0.20396(4) 0.36138(3)
O1 O 0.4166(4) 0.2869(3) 0.43707(17)
O2 O 0.1859(5) 0.2464(4) 0.5033(2)
O3 O 0.3265(4) 0.2915(3) 0.76782(18)
O4 O 0.5636(4) 0.4061(3) 0.81978(18)
N1 N -0.0228(5) 0.2917(3) 0.3331(2)
N2 N -0.3067(6) 0.3693(4) 0.3395(3)
H1 H -0.4123 0.3936 0.3571
N3 N 0.1679(4) 0.0519(3) 0.39031(19)
N4 N 0.0137(6) -0.0883(4) 0.4291(3)
H2 H -0.0842 -0.1321 0.4381
C1 C 0.4736(5) 0.3399(4) 0.5627(2)
C2 C 0.4215(5) 0.3271(4) 0.6308(2)
H3 H 0.3027 0.2882 0.6348
C3 C 0.5364(5) 0.3693(4) 0.6934(2)
C4 C 0.7085(6) 0.4290(4) 0.6860(3)
H4 H 0.7896 0.4597 0.7279
C5 C 0.7616(6) 0.4428(5) 0.6181(3)
H5 H 0.8789 0.4828 0.6138
C6 C 0.6451(6) 0.4001(4) 0.5569(2)
H6 H 0.6815 0.4114 0.5104
C7 C 0.3486(6) 0.2878(4) 0.4975(2)
C8 C 0.4764(5) 0.3567(4) 0.7667(2)
C9 C -0.1566(6) 0.3111(4) 0.3764(3)
H7 H -0.1458 0.2872 0.4255
C10 C -0.2712(7) 0.3859(5) 0.2699(3)
H8 H -0.3548 0.4231 0.2314
C11 C -0.0944(7) 0.3381(5) 0.2673(3)
H9 H -0.0293 0.3371 0.2262
C12 C -0.0082(6) 0.0077(5) 0.3959(3)
H10 H -0.1334 0.0412 0.3785
C13 C 0.2135(8) -0.1089(6) 0.4480(4)
H11 H 0.2749 -0.1715 0.4730
C14 C 0.3051(7) -0.0245(5) 0.4228(3)
H12 H 0.4455 -0.0169 0.4270
O3A O 0.3265(4) 0.2085(3) 0.26782(18)
Zn1A Zn 0.23038(6) 0.29604(4) 0.86138(3)
loop_
_geom_bond_atom_site_label_1
_geom_bond_atom_site_label_2
_geom_bond_site_symmetry_1
_geom_bond_site_symmetry_2
Zn1 O1 1_555 1_555
O1 C7 1_555 1_555
O2 C7 1_555 1_555
O3 C8 1_555 1_555
O4 C8 1_555 1_555
N1 Zn1 1_555 1_555
N2 H1 1_555 1_555
N3 Zn1 1_555 1_555
N4 H2 1_555 1_555
C1 C2 1_555 1_555
C2 H3 1_555 1_555
C3 C2 1_555 1_555
C4 C3 1_555 1_555
H4 C4 1_555 1_555
C5 C4 1_555 1_555
H5 C5 1_555 1_555
C6 C1 1_555 1_555
H6 C6 1_555 1_555
C7 C1 1_555 1_555
C8 C3 1_555 1_555
C9 N1 1_555 1_555
H7 C9 1_555 1_555
C10 N2 1_555 1_555
H8 C10 1_555 1_555
C11 N1 1_555 1_555
H9 C11 1_555 1_555
C12 N3 1_555 1_555
H10 C12 1_555 1_555
C13 N4 1_555 1_555
H11 C13 1_555 1_555
C14 N3 1_555 1_555
H12 C14 1_555 1_555
O3A Zn1 1_555 1_555
Zn1A O3 1_555 1_555
N2 C9 1_555 1_555
N4 C12 1_555 1_555
C5 C6 1_555 1_555
C10 C11 1_555 1_555
C13 C14 1_555 1_555

#END
