
#######################################################################
#
#                 Cambridge Crystallographic Data Centre
#                                CCDC 
#
#######################################################################
#
# If this CIF has been generated from an entry in the Cambridge 
# Structural Database, then it will include bibliographic, chemical, 
# crystal, experimental, refinement or atomic coordinate data resulting 
# from the CCDC's data processing and validation procedures.
#
#######################################################################

data_LABWEQ
_symmetry_cell_setting           monoclinic
_symmetry_space_group_name_H-M   'P 21'
_symmetry_Int_Tables_number      4
_space_group_name_Hall           'P 2yb'
loop_
_symmetry_equiv_pos_site_id
_symmetry_equiv_pos_as_xyz
1 x,y,z
2 -x,1/2+y,-z
_cell_length_a                   11.207(1)
_cell_length_b                   7.078(2)
_cell_length_c                   13.436(2)
_cell_angle_alpha                90
_cell_angle_beta                 93.968(10)
_cell_angle_gamma                90
_cell_volume                     1063.23
loop_
_atom_site_label
_atom_site_type_symbol
_atom_site_fract_x
_atom_site_fract_y
_atom_site_fract_z
Cd1 Cd 0.21608(1) 0.238(6) 0.09092(1)
O1 O 0.3813(2) 0.095(6) 0.0455(3)
O2 O 0.2915(2) 0.430(6) 0.2160(2)
O3 O 0.3093(3) 0.457(6) -0.0170(2)
O4 O 0.2146(2) 0.707(6) 0.0249(3)
O5 O 0.3921(2) 0.729(6) -0.0175(2)
O6 O 0.1001(4) -0.002(6) 0.1792(2)
O7 O 0.2775(5) -0.025(6) 0.2255(4)
O8 O 0.1635(3) -0.250(6) 0.2582(2)
N1 N -0.1173(2) 0.607(6) 0.0538(1)
N2 N 0.0345(2) 0.399(6) 0.1175(2)
N3 N 0.3032(2) 0.631(6) -0.0023(2)
N4 N 0.1793(3) -0.098(6) 0.2205(2)
C1 C -0.0182(2) 0.507(6) 0.0460(2)
C2 C -0.1679(2) 0.600(6) 0.1414(2)
C3 C -0.1202(2) 0.491(6) 0.2203(2)
C4 C -0.0174(2) 0.391(6) 0.2042(2)
C5 C -0.1796(2) 0.477(6) 0.3173(2)
C6 C -0.1634(3) 0.619(6) 0.3892(2)
C7 C -0.0913(3) 0.784(6) 0.3762(2)
C8 C -0.0778(3) 0.918(6) 0.4476(3)
C9 C -0.1339(4) 0.898(6) 0.5394(3)
C10 C -0.2005(3) 0.743(6) 0.5559(2)
C11 C -0.2190(3) 0.601(6) 0.4818(2)
C12 C -0.2893(3) 0.444(6) 0.4968(2)
C13 C -0.3090(3) 0.303(6) 0.4254(2)
C14 C -0.3851(4) 0.144(6) 0.4380(3)
C15 C -0.4066(4) 0.013(6) 0.3673(3)
C16 C -0.3511(3) 0.029(6) 0.2757(3)
C17 C -0.2759(3) 0.174(6) 0.2598(2)
C18 C -0.2520(2) 0.318(6) 0.3325(2)
C19 C 0.4088(3) 0.431(6) 0.2656(3)
C20 C 0.4896(4) 0.566(6) 0.2227(4)
H1 H 0.014(3) 0.506(8) -0.022(2)
H2 H -0.243(4) 0.650(8) 0.149(3)
H3 H 0.013(3) 0.313(8) 0.249(3)
H4 H -0.057(3) 0.791(8) 0.323(3)
H5 H -0.033(4) 1.026(9) 0.432(3)
H6 H -0.122(4) 0.986(10) 0.582(3)
H7 H -0.242(4) 0.73(1) 0.614(3)
H8 H -0.336(4) 0.431(9) 0.553(3)
H9 H -0.416(4) 0.129(10) 0.494(3)
H10 H -0.466(4) -0.080(10) 0.377(3)
H11 H -0.364(4) -0.061(10) 0.230(3)
H12 H -0.241(3) 0.183(8) 0.197(3)
H13 H 0.444(3) 0.130(8) 0.044(2)
H14 H 0.366(5) 0.00(1) 0.039(4)
H15 H 0.5051 0.5235 0.1580
H16 H 0.4511 0.6799 0.2222
H17 H 0.5616 0.5662 0.2643
H18 H 0.402(6) 0.48(1) 0.328(5)
H19 H 0.432(3) 0.299(8) 0.271(3)
H20 H 0.281(4) 0.522(9) 0.238(3)
Cd1A Cd -0.21608(1) 0.738(6) -0.09092(1)
N1A N 0.1173(2) 0.107(6) -0.0538(1)
loop_
_geom_bond_atom_site_label_1
_geom_bond_atom_site_label_2
_geom_bond_site_symmetry_1
_geom_bond_site_symmetry_2
Cd1 O1 1_555 1_555
O1 H13 1_555 1_555
O2 Cd1 1_555 1_555
O3 Cd1 1_555 1_555
O4 N3 1_555 1_555
O5 N3 1_555 1_555
O6 Cd1 1_555 1_555
O7 N4 1_555 1_555
O8 N4 1_555 1_555
N1 C1 1_555 1_555
N2 Cd1 1_555 1_555
N3 O3 1_555 1_555
N4 O6 1_555 1_555
C1 N2 1_555 1_555
C2 N1 1_555 1_555
C3 C2 1_555 1_555
C4 N2 1_555 1_555
C5 C3 1_555 1_555
C6 C5 1_555 1_555
C7 C6 1_555 1_555
C8 C7 1_555 1_555
C9 C8 1_555 1_555
C10 C9 1_555 1_555
C11 C6 1_555 1_555
C12 C11 1_555 1_555
C13 C12 1_555 1_555
C14 C13 1_555 1_555
C15 C14 1_555 1_555
C16 C15 1_555 1_555
C17 C16 1_555 1_555
C18 C5 1_555 1_555
C19 O2 1_555 1_555
C20 C19 1_555 1_555
H1 C1 1_555 1_555
H2 C2 1_555 1_555
H3 C4 1_555 1_555
H4 C7 1_555 1_555
H5 C8 1_555 1_555
H6 C9 1_555 1_555
H7 C10 1_555 1_555
H8 C12 1_555 1_555
H9 C14 1_555 1_555
H10 C15 1_555 1_555
H11 C16 1_555 1_555
H12 C17 1_555 1_555
H14 O1 1_555 1_555
H15 C20 1_555 1_555
H16 C20 1_555 1_555
H17 C20 1_555 1_555
H18 C19 1_555 1_555
H19 C19 1_555 1_555
H20 O2 1_555 1_555
Cd1A N1 1_555 1_555
N1A Cd1 1_555 1_555
C3 C4 1_555 1_555
C10 C11 1_555 1_555
C13 C18 1_555 1_555
C17 C18 1_555 1_555

#END
