
#######################################################################
#
#                 Cambridge Crystallographic Data Centre
#                                CCDC 
#
#######################################################################
#
# If this CIF has been generated from an entry in the Cambridge 
# Structural Database, then it will include bibliographic, chemical, 
# crystal, experimental, refinement or atomic coordinate data resulting 
# from the CCDC's data processing and validation procedures.
#
#######################################################################

data_LACCEZ
_symmetry_cell_setting           monoclinic
_symmetry_space_group_name_H-M   'C 2/c'
_symmetry_Int_Tables_number      15
_space_group_name_Hall           '-C 2yn'
loop_
_symmetry_equiv_pos_site_id
_symmetry_equiv_pos_as_xyz
1 x,y,z
2 -x,y,1/2-z
3 1/2+x,1/2+y,z
4 1/2-x,1/2+y,1/2-z
5 -x,-y,-z
6 x,-y,1/2+z
7 1/2-x,1/2-y,-z
8 1/2+x,1/2-y,1/2+z
_cell_length_a                   18.693(3)
_cell_length_b                   10.1161(19)
_cell_length_c                   20.355(4)
_cell_angle_alpha                90
_cell_angle_beta                 97.326(3)
_cell_angle_gamma                90
_cell_volume                     3817.71
loop_
_atom_site_label
_atom_site_type_symbol
_atom_site_fract_x
_atom_site_fract_y
_atom_site_fract_z
Ni1 Ni 0.0000 0.19000(5) -0.2500
O1 O 0.07311(12) 0.1808(2) -0.16609(10)
O2 O 0.15460(13) 0.0302(3) -0.18688(11)
O3 O 0.29032(15) -0.0541(3) 0.04500(12)
O4 O 0.13225(13) 0.3064(2) 0.06574(11)
O5 O 0.06234(13) 0.0530(2) -0.29463(11)
H1 H 0.0877 0.0044 -0.2666
H2 H 0.0373 0.0056 -0.3234
N1 N 0.48756(17) -0.3538(3) 0.13353(17)
N2 N 0.05649(15) 0.6565(3) 0.20914(13)
C1 C 0.12586(17) 0.1052(3) -0.14916(15)
C2 C 0.15654(17) 0.1098(3) -0.07694(15)
C3 C 0.13079(17) 0.2020(3) -0.03585(15)
H3 H 0.0936 0.2615 -0.0529
C4 C 0.15949(17) 0.2076(3) 0.03081(15)
C5 C 0.21249(18) 0.1212(3) 0.05613(15)
H4 H 0.2316 0.1244 0.1016
C6 C 0.23798(18) 0.0281(3) 0.01387(16)
C7 C 0.21136(18) 0.0222(3) -0.05232(16)
H5 H 0.2299 -0.0402 -0.0807
C8 C 0.33175(19) -0.1302(4) 0.00527(17)
H6 H 0.3563 -0.0717 -0.0238
H7 H 0.3002 -0.1918 -0.0230
C9 C 0.38642(19) -0.2061(3) 0.05101(18)
C10 C 0.3892(2) -0.2008(4) 0.11899(19)
H8 H 0.3569 -0.1462 0.1392
C11 C 0.4404(2) -0.2772(4) 0.1573(2)
H9 H 0.4413 -0.2737 0.2041
C12 C 0.4848(2) -0.3581(4) 0.0678(2)
H10 H 0.5183 -0.4131 0.0493
C13 C 0.4361(2) -0.2870(4) 0.0253(2)
H11 H 0.4365 -0.2933 -0.0212
C14 C 0.15795(19) 0.3178(3) 0.13459(15)
H12 H 0.2110 0.3288 0.1411
H13 H 0.1457 0.2373 0.1585
C15 C 0.12239(18) 0.4360(3) 0.16008(16)
C16 C 0.1532(2) 0.5017(5) 0.2150(2)
H14 H 0.1979 0.4723 0.2378
C17 C 0.1196(2) 0.6103(5) 0.2372(2)
H15 H 0.1429 0.6553 0.2749
C18 C 0.0266(2) 0.5913(4) 0.15642(18)
H16 H -0.0185 0.6217 0.1350
C19 C 0.0569(2) 0.4818(4) 0.13065(18)
H17 H 0.0327 0.4384 0.0928
Ni1D Ni 0.0000 0.81000(5) 0.2500
Ni1D_2 Ni 0.0000 0.81000(5) -0.7500
O1A O -0.07311(12) 0.1808(2) -0.33391(10)
O2A O -0.15460(13) 0.0302(3) -0.31312(11)
O3A O -0.29032(15) -0.0541(3) -0.54500(12)
O4A O -0.13225(13) 0.3064(2) -0.56574(11)
O5A O -0.06234(13) 0.0530(2) -0.20537(11)
H1A H -0.0877 0.0044 -0.2334
H2A H -0.0373 0.0056 -0.1766
N1A N -0.48756(17) -0.3538(3) -0.63353(17)
N2A N -0.05649(15) 0.6565(3) -0.70914(13)
N2D N -0.05649(15) 0.3435(3) -0.20914(13)
N2E N 0.05649(15) 0.3435(3) -0.29086(13)
C1A C -0.12586(17) 0.1052(3) -0.35084(15)
C2A C -0.15654(17) 0.1098(3) -0.42306(15)
C3A C -0.13079(17) 0.2020(3) -0.46415(15)
H3A H -0.0936 0.2615 -0.4471
C4A C -0.15949(17) 0.2076(3) -0.53081(15)
C5A C -0.21249(18) 0.1212(3) -0.55613(15)
H4A H -0.2316 0.1244 -0.6016
C6A C -0.23798(18) 0.0281(3) -0.51387(16)
C7A C -0.21136(18) 0.0222(3) -0.44768(16)
H5A H -0.2299 -0.0402 -0.4193
C8A C -0.33175(19) -0.1302(4) -0.50527(17)
H6A H -0.3563 -0.0717 -0.4762
H7A H -0.3002 -0.1918 -0.4770
C9A C -0.38642(19) -0.2061(3) -0.55101(18)
C10A C -0.3892(2) -0.2008(4) -0.61899(19)
H8A H -0.3569 -0.1462 -0.6392
C11A C -0.4404(2) -0.2772(4) -0.6573(2)
H9A H -0.4413 -0.2737 -0.7041
C12A C -0.4848(2) -0.3581(4) -0.5678(2)
H10A H -0.5183 -0.4131 -0.5493
C13A C -0.4361(2) -0.2870(4) -0.5253(2)
H11A H -0.4365 -0.2933 -0.4788
C14A C -0.15795(19) 0.3178(3) -0.63459(15)
H12A H -0.2110 0.3288 -0.6411
H13A H -0.1457 0.2373 -0.6585
C15A C -0.12239(18) 0.4360(3) -0.66008(16)
C16A C -0.1532(2) 0.5017(5) -0.7150(2)
H14A H -0.1979 0.4723 -0.7378
C17A C -0.1196(2) 0.6103(5) -0.7372(2)
H15A H -0.1429 0.6553 -0.7749
C18A C -0.0266(2) 0.5913(4) -0.65642(18)
H16A H 0.0185 0.6217 -0.6350
C19A C -0.0569(2) 0.4818(4) -0.63065(18)
H17A H -0.0327 0.4384 -0.5928
O6 O 0.1693(3) 0.8273(4) 0.1319(2)
H18 H 0.1379 0.8623 0.1533
H19 H 0.2017 0.7923 0.1596
O7 O 0.2178(2) 0.2072(4) 0.2718(2)
H20 H 0.2008 0.1369 0.2866
H21 H 0.2499 0.2377 0.3012
loop_
_geom_bond_atom_site_label_1
_geom_bond_atom_site_label_2
_geom_bond_site_symmetry_1
_geom_bond_site_symmetry_2
Ni1 O1 1_555 1_555
O1 C1 1_555 1_555
O2 C1 1_555 1_555
O3 C6 1_555 1_555
O4 C4 1_555 1_555
O5 Ni1 1_555 1_555
H1 O5 1_555 1_555
H2 O5 1_555 1_555
N1 C11 1_555 1_555
N2 C17 1_555 1_555
C1 C2 1_555 1_555
C2 C3 1_555 1_555
C3 H3 1_555 1_555
C4 C3 1_555 1_555
C5 C4 1_555 1_555
H4 C5 1_555 1_555
C6 C5 1_555 1_555
C7 C2 1_555 1_555
H5 C7 1_555 1_555
C8 O3 1_555 1_555
H6 C8 1_555 1_555
H7 C8 1_555 1_555
C9 C8 1_555 1_555
C10 C9 1_555 1_555
H8 C10 1_555 1_555
C11 C10 1_555 1_555
H9 C11 1_555 1_555
C12 N1 1_555 1_555
H10 C12 1_555 1_555
C13 C9 1_555 1_555
H11 C13 1_555 1_555
C14 O4 1_555 1_555
H12 C14 1_555 1_555
H13 C14 1_555 1_555
C15 C14 1_555 1_555
C16 C15 1_555 1_555
H14 C16 1_555 1_555
C17 C16 1_555 1_555
H15 C17 1_555 1_555
C18 N2 1_555 1_555
H16 C18 1_555 1_555
C19 C15 1_555 1_555
H17 C19 1_555 1_555
O6 H18 1_555 1_555
H19 O6 1_555 1_555
O7 H20 1_555 1_555
H21 O7 1_555 1_555
Ni1D N2 1_555 1_555
Ni1D_2 N2A 1_555 1_555
O1A Ni1 1_555 1_555
O2A C1A 1_555 1_555
O3A C6A 1_555 1_555
O4A C4A 1_555 1_555
O5A Ni1 1_555 1_555
H1A O5A 1_555 1_555
H2A O5A 1_555 1_555
N1A C11A 1_555 1_555
N2A C17A 1_555 1_555
N2D Ni1 1_555 1_555
N2E Ni1 1_555 1_555
C1A O1A 1_555 1_555
C2A C1A 1_555 1_555
C3A C2A 1_555 1_555
H3A C3A 1_555 1_555
C4A C3A 1_555 1_555
C5A C4A 1_555 1_555
H4A C5A 1_555 1_555
C6A C5A 1_555 1_555
C7A C2A 1_555 1_555
H5A C7A 1_555 1_555
C8A O3A 1_555 1_555
H6A C8A 1_555 1_555
H7A C8A 1_555 1_555
C9A C8A 1_555 1_555
C10A C9A 1_555 1_555
H8A C10A 1_555 1_555
C11A C10A 1_555 1_555
H9A C11A 1_555 1_555
C12A N1A 1_555 1_555
H10A C12A 1_555 1_555
C13A C9A 1_555 1_555
H11A C13A 1_555 1_555
C14A O4A 1_555 1_555
H12A C14A 1_555 1_555
H13A C14A 1_555 1_555
C15A C14A 1_555 1_555
C16A C15A 1_555 1_555
H14A C16A 1_555 1_555
C17A C16A 1_555 1_555
H15A C17A 1_555 1_555
C18A N2A 1_555 1_555
H16A C18A 1_555 1_555
C19A C15A 1_555 1_555
H17A C19A 1_555 1_555
C6 C7 1_555 1_555
C12 C13 1_555 1_555
C18 C19 1_555 1_555
C6A C7A 1_555 1_555
C12A C13A 1_555 1_555
C18A C19A 1_555 1_555

#END
