
#######################################################################
#
#                 Cambridge Crystallographic Data Centre
#                                CCDC 
#
#######################################################################
#
# If this CIF has been generated from an entry in the Cambridge 
# Structural Database, then it will include bibliographic, chemical, 
# crystal, experimental, refinement or atomic coordinate data resulting 
# from the CCDC's data processing and validation procedures.
#
#######################################################################

data_LACCOI
_symmetry_cell_setting           triclinic
_symmetry_space_group_name_H-M   'P 1'
_symmetry_Int_Tables_number      1
_space_group_name_Hall           'P 1'
loop_
_symmetry_equiv_pos_site_id
_symmetry_equiv_pos_as_xyz
1 x,y,z
_cell_length_a                   6.938(1)
_cell_length_b                   7.566(2)
_cell_length_c                   15.409(3)
_cell_angle_alpha                94.76(3)
_cell_angle_beta                 96.38(3)
_cell_angle_gamma                111.67(3)
_cell_volume                     740.277
loop_
_atom_site_label
_atom_site_type_symbol
_atom_site_fract_x
_atom_site_fract_y
_atom_site_fract_z
U1 U 0.1855(3) 0.4418(2) 0.3259(1)
U2 U 0.5550(3) 0.3380(2) 0.97439(9)
Na1 Na 0.681(3) 0.953(3) 0.330(1)
Na2 Na 1.056(3) -0.154(2) 0.971(1)
Na3 Na 0.792(2) -0.198(2) 0.719(1)
Na4 Na 0.594(2) 0.055(2) 0.5819(9)
O1 O 0.425(5) 0.628(4) 0.314(2)
O2 O -0.055(4) 0.255(3) 0.320(2)
O3 O -0.067(6) 0.869(5) 0.422(2)
O4 O 0.832(6) -0.062(5) 0.875(3)
O5 O 0.491(5) 0.068(4) 0.428(2)
O6 O 0.799(6) 0.531(5) 0.962(2)
O7 O 0.316(6) 0.145(5) 0.970(2)
O8 O 0.493(5) 1.041(4) 0.209(2)
O9 O 0.288(4) 0.422(3) 0.474(1)
O11 O 0.438(4) 0.278(4) 0.569(2)
O12 O 0.006(4) 0.599(3) 0.241(1)
O13 O 0.350(4) 0.215(3) 0.341(1)
O14 O 0.070(4) 0.651(4) 0.414(1)
O15 O 0.214(4) 0.345(4) 0.178(2)
O16 O 0.693(4) -0.214(4) 0.565(2)
O17 O 1.130(5) 0.047(4) 0.701(2)
O18 O 0.718(3) 0.111(3) 0.962(1)
O19 O 0.540(4) 0.216(3) 0.829(2)
O20 O 0.386(4) 0.496(4) 0.885(2)
O21 O 0.437(5) 0.543(4) 1.062(2)
O22 O 0.683(5) 0.326(4) 1.124(2)
O23 O 0.264(5) -0.201(4) 0.592(2)
O24 O 0.648(4) 0.047(4) 0.732(2)
O25 O 0.947(6) -0.430(5) 0.730(2)
O26 O 0.436(5) -0.437(4) 0.704(2)
O27 O -0.151(4) 0.814(3) 0.240(2)
O28 O 0.295(4) 0.760(4) 1.066(2)
O29 O 0.208(5) 0.693(4) 0.881(2)
O30 O 0.952(5) 0.267(4) 0.596(2)
C1 C -0.027(5) 0.751(4) 0.379(2)
C2 C -0.062(5) 0.719(4) 0.276(2)
C3 C 0.427(6) 0.187(5) 0.415(2)
C4 C 0.381(5) 0.296(5) 0.496(2)
C5 C 0.625(5) 0.102(4) 0.808(2)
C6 C 0.737(5) 0.034(4) 0.885(2)
C7 C 0.315(7) 0.613(6) 0.919(3)
C8 C 0.359(7) 0.639(6) 1.024(3)
O2_2 O 0.945(4) 1.255(3) 0.320(2)
O3_2 O 0.933(6) 0.869(5) 0.422(2)
O5_2 O 0.491(5) 1.068(4) 0.428(2)
O27_2 O 0.849(4) 0.814(3) 0.240(2)
O6_2 O 0.799(6) -0.469(5) 0.962(2)
O7_2 O 1.316(6) 0.145(5) 0.970(2)
O28_2 O 1.295(4) -0.240(4) 1.066(2)
O29_2 O 1.208(5) -0.307(4) 0.881(2)
Na1_2 Na -0.319(3) -0.047(3) 0.330(1)
Na1_3 Na -0.319(3) 0.953(3) 0.330(1)
Na1_4 Na 0.681(3) -0.047(3) 0.330(1)
Na2_2 Na 1.056(3) 0.846(2) 0.971(1)
Na2_3 Na 0.056(3) -0.154(2) 0.971(1)
Na2_4 Na 0.056(3) 0.846(2) 0.971(1)
O10 O 0.934(4) 1.001(3) 1.091(2)
loop_
_geom_bond_atom_site_label_1
_geom_bond_atom_site_label_2
_geom_bond_site_symmetry_1
_geom_bond_site_symmetry_2
U1 O1 1_555 1_555
U2 O6 1_555 1_555
Na1 O1 1_555 1_555
Na2 O4 1_555 1_555
Na3 O16 1_555 1_555
Na4 O5 1_555 1_555
O2 U1 1_555 1_555
O3 C1 1_555 1_555
O4 C6 1_555 1_555
O5 C3 1_555 1_555
O6 Na2_2 1_555 1_555
O7 U2 1_555 1_555
O8 Na1 1_555 1_555
O9 U1 1_555 1_555
O11 Na4 1_555 1_555
O12 U1 1_555 1_555
O13 U1 1_555 1_555
O14 U1 1_555 1_555
O15 U1 1_555 1_555
O16 Na4 1_555 1_555
O17 Na3 1_555 1_555
O18 U2 1_555 1_555
O19 U2 1_555 1_555
O20 U2 1_555 1_555
O21 U2 1_555 1_555
O22 U2 1_555 1_555
O23 Na4 1_555 1_555
O24 Na3 1_555 1_555
O25 Na3 1_555 1_555
O26 Na3 1_555 1_555
O27 C2 1_555 1_555
O28 C8 1_555 1_555
O29 C7 1_555 1_555
O30 Na4 1_555 1_555
C1 O14 1_555 1_555
C2 O12 1_555 1_555
C3 O13 1_555 1_555
C4 O9 1_555 1_555
C5 O19 1_555 1_555
C6 O18 1_555 1_555
C7 O20 1_555 1_555
C8 O21 1_555 1_555
O2_2 Na1 1_555 1_555
O3_2 Na1 1_555 1_555
O5_2 Na1 1_555 1_555
O27_2 Na1 1_555 1_555
O6_2 Na2 1_555 1_555
O7_2 Na2 1_555 1_555
O28_2 Na2 1_555 1_555
O29_2 Na2 1_555 1_555
Na1_2 O2 1_555 1_555
Na1_3 O3 1_555 1_555
Na1_4 O5 1_555 1_555
Na2_3 O7 1_555 1_555
Na2_4 O28 1_555 1_555
Na4 O24 1_555 1_555
O11 C4 1_555 1_555
O24 C5 1_555 1_555
O27 Na1_3 1_555 1_555
O29 Na2_4 1_555 1_555
C1 C2 1_555 1_555
C3 C4 1_555 1_555
C5 C6 1_555 1_555
C7 C8 1_555 1_555

#END
