
#######################################################################
#
#                 Cambridge Crystallographic Data Centre
#                                CCDC 
#
#######################################################################
#
# If this CIF has been generated from an entry in the Cambridge 
# Structural Database, then it will include bibliographic, chemical, 
# crystal, experimental, refinement or atomic coordinate data resulting 
# from the CCDC's data processing and validation procedures.
#
#######################################################################

data_LACDEY
_symmetry_cell_setting           monoclinic
_symmetry_space_group_name_H-M   'P 21/n'
_symmetry_Int_Tables_number      14
_space_group_name_Hall           '-P 2yn'
loop_
_symmetry_equiv_pos_site_id
_symmetry_equiv_pos_as_xyz
1 x,y,z
2 1/2-x,1/2+y,1/2-z
3 -x,-y,-z
4 1/2+x,1/2-y,1/2+z
_cell_length_a                   13.848(2)
_cell_length_b                   7.280(1)
_cell_length_c                   22.572(1)
_cell_angle_alpha                90
_cell_angle_beta                 96.573(7)
_cell_angle_gamma                90
_cell_volume                     2260.6
loop_
_atom_site_label
_atom_site_type_symbol
_atom_site_fract_x
_atom_site_fract_y
_atom_site_fract_z
Co1 Co 0.40519(4) 0.54739(9) -0.28588(3)
O1 O 0.3620(4) 1.0281(7) -0.3353(3)
O2 O 0.4545(4) 0.9051(9) -0.3918(3)
O3 O 0.3543(3) 0.7368(5) -0.3507(2)
O4 O 0.5524(4) 0.1609(9) -0.2575(3)
O5 O 0.4532(5) 0.0545(7) -0.2024(2)
O6 O 0.4506(3) 0.3410(5) -0.2221(2)
O7 O 0.5273(2) 0.7139(5) -0.2583(2)
O8 O 0.4726(3) 0.4032(6) -0.3496(2)
N1 N 0.1588(3) 0.1820(5) -0.2848(2)
N2 N 0.2742(3) 0.3954(5) -0.3123(2)
N3 N 0.3925(3) 0.8942(7) -0.3588(2)
N4 N 0.4854(3) 0.1823(6) -0.2272(2)
C1 C 0.2342(3) 0.2949(6) -0.2719(2)
C2 C 0.2359(3) 0.3828(7) -0.3693(2)
C3 C 0.1593(3) 0.2656(6) -0.3874(2)
C4 C 0.1232(3) 0.1662(7) -0.3425(2)
C5 C 0.1185(3) 0.2459(6) -0.4516(2)
C6 C 0.0180(3) 0.2677(6) -0.4683(2)
C7 C -0.0484(4) 0.3247(7) -0.4281(2)
C8 C -0.1455(4) 0.3374(8) -0.4462(3)
C9 C -0.1835(4) 0.2966(8) -0.5060(3)
C10 C -0.1234(4) 0.2524(8) -0.5458(3)
C11 C -0.0209(4) 0.2379(6) -0.5293(2)
C12 C 0.0418(4) 0.1969(7) -0.5706(2)
C13 C 0.1415(4) 0.1790(7) -0.5557(2)
C14 C 0.2057(5) 0.1410(8) -0.5991(3)
C15 C 0.3021(5) 0.1142(10) -0.5835(3)
C16 C 0.3405(5) 0.1230(10) -0.5236(3)
C17 C 0.2832(4) 0.1621(8) -0.4802(2)
C18 C 0.1815(4) 0.1983(6) -0.4945(2)
C19 C 0.5085(9) 0.448(1) -0.4021(5)
C20 C 0.5793(8) 0.365(2) -0.4252(5)
C21 C 0.6225(5) 0.670(1) -0.2496(7)
C22 C 0.6965(5) 0.766(1) -0.2260(5)
H1 H 0.258(5) 0.299(9) -0.233(3)
H2 H 0.068(4) 0.064(8) -0.350(3)
H3 H 0.268(4) 0.451(8) -0.397(3)
H4 H -0.019(4) 0.369(8) -0.386(2)
H5 H -0.187(4) 0.370(9) -0.420(3)
H6 H -0.254(4) 0.309(8) -0.515(2)
H7 H -0.142(4) 0.209(8) -0.588(3)
H8 H 0.014(4) 0.182(9) -0.608(3)
H9 H 0.185(4) 0.148(9) -0.642(3)
H10 H 0.340(5) 0.104(10) -0.615(3)
H11 H 0.403(5) 0.12(1) -0.513(3)
H12 H 0.308(4) 0.167(7) -0.441(2)
H13 H 0.5623 0.2401 -0.4332
H14 H 0.5903 0.4242 -0.4613
H15 H 0.6367 0.3702 -0.3979
H16 H 0.4541 0.4392 -0.4318
H17 H 0.5283 0.5720 -0.3976
H18 H 0.4804 0.2766 -0.3400
H19 H 0.7543 0.6951 -0.2260
H20 H 0.7019 0.8743 -0.2488
H21 H 0.6876 0.7977 -0.1862
H22 H 0.6247 0.5618 -0.2257
H23 H 0.6384 0.63968 -0.2882
H24 H 0.5131 0.8377 -0.2509
Co1A Co 0.09481(4) 0.04739(9) -0.21412(3)
N1A N 0.3412(3) 0.6820(5) -0.2152(2)
loop_
_geom_bond_atom_site_label_1
_geom_bond_atom_site_label_2
_geom_bond_site_symmetry_1
_geom_bond_site_symmetry_2
Co1 O3 1_555 1_555
O1 N3 1_555 1_555
O2 N3 1_555 1_555
O3 N3 1_555 1_555
O4 N4 1_555 1_555
O5 N4 1_555 1_555
O6 Co1 1_555 1_555
O7 Co1 1_555 1_555
O8 Co1 1_555 1_555
N1 C1 1_555 1_555
N2 Co1 1_555 1_555
N4 O6 1_555 1_555
C1 N2 1_555 1_555
C2 N2 1_555 1_555
C3 C2 1_555 1_555
C4 N1 1_555 1_555
C5 C3 1_555 1_555
C6 C5 1_555 1_555
C7 C6 1_555 1_555
C8 C7 1_555 1_555
C9 C8 1_555 1_555
C10 C9 1_555 1_555
C11 C6 1_555 1_555
C12 C11 1_555 1_555
C13 C12 1_555 1_555
C14 C13 1_555 1_555
C15 C14 1_555 1_555
C16 C15 1_555 1_555
C17 C16 1_555 1_555
C18 C5 1_555 1_555
C19 O8 1_555 1_555
C20 C19 1_555 1_555
C21 O7 1_555 1_555
C22 C21 1_555 1_555
H1 C1 1_555 1_555
H2 C4 1_555 1_555
H3 C2 1_555 1_555
H4 C7 1_555 1_555
H5 C8 1_555 1_555
H6 C9 1_555 1_555
H7 C10 1_555 1_555
H8 C12 1_555 1_555
H9 C14 1_555 1_555
H10 C15 1_555 1_555
H11 C16 1_555 1_555
H12 C17 1_555 1_555
H13 C20 1_555 1_555
H14 C20 1_555 1_555
H15 C20 1_555 1_555
H16 C19 1_555 1_555
H17 C19 1_555 1_555
H18 O8 1_555 1_555
H19 C22 1_555 1_555
H20 C22 1_555 1_555
H21 C22 1_555 1_555
H22 C21 1_555 1_555
H23 C21 1_555 1_555
H24 O7 1_555 1_555
Co1A N1 1_555 1_555
N1A Co1 1_555 1_555
C3 C4 1_555 1_555
C10 C11 1_555 1_555
C13 C18 1_555 1_555
C17 C18 1_555 1_555

#END
