
#######################################################################
#
#                 Cambridge Crystallographic Data Centre
#                                CCDC 
#
#######################################################################
#
# If this CIF has been generated from an entry in the Cambridge 
# Structural Database, then it will include bibliographic, chemical, 
# crystal, experimental, refinement or atomic coordinate data resulting 
# from the CCDC's data processing and validation procedures.
#
#######################################################################

data_LACGED
_symmetry_cell_setting           tetragonal
_symmetry_space_group_name_H-M   'I -4 2 d'
_symmetry_Int_Tables_number      122
_space_group_name_Hall           'I -4 2bw'
loop_
_symmetry_equiv_pos_site_id
_symmetry_equiv_pos_as_xyz
1 x,y,z
2 -x,-y,z
3 y,-x,-z
4 -y,x,-z
5 1/2-x,y,3/4-z
6 1/2+x,-y,3/4-z
7 1/2-y,-x,3/4+z
8 1/2+y,x,3/4+z
9 1/2+x,1/2+y,1/2+z
10 1/2-x,1/2-y,1/2+z
11 1/2+y,1/2-x,1/2-z
12 1/2-y,1/2+x,1/2-z
13 -x,1/2+y,1/4-z
14 x,1/2-y,1/4-z
15 -y,1/2-x,1/4+z
16 y,1/2+x,1/4+z
_cell_length_a                   21.1180(4)
_cell_length_b                   21.1180(4)
_cell_length_c                   9.4092(3)
_cell_angle_alpha                90
_cell_angle_beta                 90
_cell_angle_gamma                90
_cell_volume                     4196.22
loop_
_atom_site_label
_atom_site_type_symbol
_atom_site_fract_x
_atom_site_fract_y
_atom_site_fract_z
Pb1 Pb 0.250000(3) -0.1960 0.3750
Ca1 Ca 0.3919 -0.250000(17) 0.1250
O1 O 0.30902(5) -0.18004(6) 0.08406(12)
O2 O 0.28475(5) -0.10803(6) 0.24832(12)
O3 O 0.28545(5) 0.11617(6) 0.14422(11)
O4 O 0.33626(5) 0.15325(5) -0.04241(12)
O5 O 0.35380(5) -0.04507(7) -0.35106(11)
H1 H 0.3610(3) -0.086(2) -0.4025(15)
O6 O 0.46586(11) -0.17053(9) 0.06908(19)
H2 H 0.4965 -0.1817 0.0027
C1 C 0.30273(6) -0.12323(6) 0.12480(17)
C2 C 0.31455(7) 0.10810(7) 0.02874(15)
C3 C 0.18356(6) -0.07086(7) 0.72664(15)
C4 C 0.31219(7) -0.00877(7) 0.06946(14)
H3 H 0.3018 -0.0003 0.1636
C5 C 0.32326(6) 0.04068(7) -0.02341(15)
C6 C 0.33900(7) 0.02838(7) -0.16450(14)
H4 H 0.3475 0.0615 -0.2269
C7 C 0.34181(7) -0.03442(7) -0.21090(15)
C8 C 0.33110(6) -0.08418(6) -0.11705(17)
H5 H 0.3337 -0.1259 -0.1482
C9 C 0.47004(17) -0.10910(19) 0.1217(5)
H6 H 0.5032 -0.0868 0.0730
H7 H 0.4305 -0.0876 0.1068
H8 H 0.4793 -0.1104 0.2215
Pb1G Pb 0.3040 0.250000(3) 0.1250
Pb1C Pb 0.1960 0.250000(3) 0.6250
Ca1D Ca 0.1081 -0.250000(17) 0.6250
Ca1J Ca 0.250000(17) 0.1081 0.3750
O1M O 0.30902(5) -0.31996(6) 0.16594(12)
O1D O 0.19098(5) -0.18004(6) 0.66594(12)
O2D O 0.21525(5) -0.10803(6) 0.50168(12)
O3O O 0.11617(6) -0.21455(5) 0.39422(11)
O3K O 0.38383(6) -0.21455(5) 0.35578(11)
O3F O 0.38383(6) -0.28545(5) -0.10578(11)
O3D O 0.21455(5) 0.11617(6) 0.60578(11)
O4K O 0.34675(5) -0.16374(5) 0.54241(12)
O4O O 0.15325(5) -0.16374(5) 0.20759(12)
O4D O 0.16374(5) 0.15325(5) 0.79241(12)
O5D O 0.14620(5) -0.04507(7) 1.10106(11)
H1D H 0.1390(3) -0.086(2) 1.1525(15)
O6M O 0.46586(11) -0.32947(9) 0.18092(19)
H2M H 0.4965 -0.3183 0.2473
C1D C 0.19727(6) -0.12323(6) 0.62520(17)
C2D C 0.18545(7) 0.10810(7) 0.72126(15)
C3D C 0.31644(6) -0.07086(7) 0.02336(15)
C4D C 0.18781(7) -0.00877(7) 0.68054(14)
H3D H 0.1982 -0.0003 0.5864
C5D C 0.17674(6) 0.04068(7) 0.77341(15)
C6D C 0.16100(7) 0.02838(7) 0.91450(14)
H4D H 0.1525 0.0615 0.9769
C7D C 0.15819(7) -0.03442(7) 0.96090(15)
C8D C 0.16890(6) -0.08418(6) 0.86705(17)
H5D H 0.1663 -0.1259 0.8982
C9M C 0.47004(17) -0.39090(19) 0.1283(5)
H6M H 0.5032 -0.4132 0.1770
H7M H 0.4305 -0.4124 0.1432
H8M H 0.4793 -0.3896 0.0285
loop_
_geom_bond_atom_site_label_1
_geom_bond_atom_site_label_2
_geom_bond_site_symmetry_1
_geom_bond_site_symmetry_2
Pb1 O2 1_555 1_555
Ca1 O1 1_555 1_555
O1 C1 1_555 1_555
O2 C1 1_555 1_555
O3 C2 1_555 1_555
O4 C2 1_555 1_555
O5 H1 1_555 1_555
O6 Ca1 1_555 1_555
H2 O6 1_555 1_555
C1 C3D 1_555 1_555
C2 C5 1_555 1_555
C3 C1D 1_555 1_555
C4 H3 1_555 1_555
C5 C4 1_555 1_555
C6 C5 1_555 1_555
H4 C6 1_555 1_555
C7 O5 1_555 1_555
C8 C7 1_555 1_555
H5 C8 1_555 1_555
C9 O6 1_555 1_555
H6 C9 1_555 1_555
H7 C9 1_555 1_555
H8 C9 1_555 1_555
Pb1G O3 1_555 1_555
Pb1C O3D 1_555 1_555
Ca1D O1D 1_555 1_555
Ca1J O3 1_555 1_555
O1M Ca1 1_555 1_555
O1D C1D 1_555 1_555
O2D Pb1 1_555 1_555
O3O Pb1 1_555 1_555
O3K Pb1 1_555 1_555
O3F Ca1 1_555 1_555
O3D Ca1J 1_555 1_555
O4K Pb1 1_555 1_555
O4O Pb1 1_555 1_555
O4D Pb1C 1_555 1_555
O5D H1D 1_555 1_555
O6M Ca1 1_555 1_555
H2M O6M 1_555 1_555
C1D O2D 1_555 1_555
C2D O3D 1_555 1_555
C3D C4 1_555 1_555
C4D C3 1_555 1_555
H3D C4D 1_555 1_555
C5D C2D 1_555 1_555
C6D C5D 1_555 1_555
H4D C6D 1_555 1_555
C7D O5D 1_555 1_555
C8D C3 1_555 1_555
H5D C8D 1_555 1_555
C9M O6M 1_555 1_555
H6M C9M 1_555 1_555
H7M C9M 1_555 1_555
H8M C9M 1_555 1_555
Ca1 O3K 1_555 1_555
O4 Pb1G 1_555 1_555
C6 C7 1_555 1_555
C8 C3D 1_555 1_555
Ca1D O3O 1_555 1_555
O4D C2D 1_555 1_555
C4D C5D 1_555 1_555
C6D C7D 1_555 1_555
C7D C8D 1_555 1_555

#END
