
#######################################################################
#
#                 Cambridge Crystallographic Data Centre
#                                CCDC 
#
#######################################################################
#
# If this CIF has been generated from an entry in the Cambridge 
# Structural Database, then it will include bibliographic, chemical, 
# crystal, experimental, refinement or atomic coordinate data resulting 
# from the CCDC's data processing and validation procedures.
#
#######################################################################

data_LACGAZ
_symmetry_cell_setting           monoclinic
_symmetry_space_group_name_H-M   'P 21/c'
_symmetry_Int_Tables_number      14
_space_group_name_Hall           '-P 2ybc'
loop_
_symmetry_equiv_pos_site_id
_symmetry_equiv_pos_as_xyz
1 x,y,z
2 -x,1/2+y,1/2-z
3 -x,-y,-z
4 x,1/2-y,1/2+z
_cell_length_a                   10.143(2)
_cell_length_b                   12.709(3)
_cell_length_c                   16.795(4)
_cell_angle_alpha                90
_cell_angle_beta                 107.036(4)
_cell_angle_gamma                90
_cell_volume                     2070
loop_
_atom_site_label
_atom_site_type_symbol
_atom_site_fract_x
_atom_site_fract_y
_atom_site_fract_z
Pb1 Pb -0.00300(2) 0.984907(16) 0.131074(13)
Ca1 Ca 0.06862(10) 0.76799(8) 0.28719(6)
S1 S 0.3897(3) 0.7368(3) 0.45852(16)
O1 O -0.2693(5) 0.9545(5) 0.1265(5)
O2 O -0.1293(4) 0.8301(4) 0.1908(3)
O3 O -0.7449(5) 0.9649(4) 0.1506(4)
O4 O -0.8364(4) 0.8208(3) 0.1848(2)
O5 O 0.0435(5) 1.1957(3) 0.1251(2)
O6 O 0.0349(6) 1.1241(4) 0.0037(2)
O7 O 0.0877(5) 1.5507(4) -0.1908(3)
O8 O -0.0118(5) 1.3965(3) -0.2269(2)
O9 O 0.2765(6) 0.7421(6) 0.3805(4)
C1 C -0.2468(6) 0.8709(5) 0.1659(4)
C2 C -0.7349(6) 0.8711(5) 0.1724(4)
C3 C -0.3665(6) 0.8133(5) 0.1824(4)
C4 C -0.3537(7) 0.7087(5) 0.2084(5)
H1 H -0.2691 0.6748 0.2189
C5 C -0.4654(7) 0.6552(5) 0.2187(5)
H2 H -0.4578 0.5845 0.2334
C6 C -0.5909(6) 0.7083(5) 0.2069(4)
H3 H -0.6664 0.6727 0.2144
C7 C -0.6032(6) 0.8123(4) 0.1844(4)
C8 C -0.4903(6) 0.8655(5) 0.1718(4)
H4 H -0.4983 0.9360 0.1564
C9 C 0.0568(6) 1.1992(4) 0.0526(3)
C10 C 0.0549(6) 1.4607(5) -0.1730(4)
C11 C 0.1003(6) 1.3052(4) 0.0268(3)
C12 C 0.1714(7) 1.3761(5) 0.0855(4)
H5 H 0.1962 1.3585 0.1417
C13 C 0.2063(8) 1.4739(5) 0.0612(4)
H6 H 0.2543 1.5218 0.1010
C14 C 0.1700(8) 1.5000(5) -0.0219(5)
H7 H 0.1944 1.5655 -0.0380
C15 C 0.0976(6) 1.4299(4) -0.0818(3)
C16 C 0.0651(6) 1.3319(4) -0.0578(3)
H8 H 0.0198 1.2833 -0.0979
C17 C 0.4741(16) 0.8286(15) 0.4325(14)
H9 H 0.4263 0.8940 0.4312
H10 H 0.4834 0.8142 0.3783
H11 H 0.5639 0.8332 0.4722
C18 C 0.4967(12) 0.6463(10) 0.4482(9)
H12 H 0.5719 0.6415 0.4985
H13 H 0.5316 0.6639 0.4026
H14 H 0.4498 0.5798 0.4374
Pb1_2 Pb -1.00300(2) 0.984907(16) 0.131074(13)
Pb1B Pb 0.00300(2) 1.015093(16) -0.131074(13)
Pb1C Pb -0.00300(2) 1.515093(16) -0.368926(13)
Ca1_2 Ca -0.93138(10) 0.76799(8) 0.28719(6)
Ca1A Ca -0.06862(10) 1.26799(8) 0.21281(6)
Ca1C Ca 0.06862(10) 1.73201(8) -0.21281(6)
Ca1B Ca -0.06862(10) 1.23201(8) -0.28719(6)
O3_2 O 0.2551(5) 0.9649(4) 0.1506(4)
O4_2 O 0.1636(4) 0.8208(3) 0.1848(2)
O5A O -0.0435(5) 0.6957(3) 0.3749(2)
O6B O -0.0349(6) 0.8759(4) -0.0037(2)
O7C O 0.0877(5) 0.9493(4) 0.3092(3)
O8C O -0.0118(5) 1.1035(3) 0.2731(2)
O8B O 0.0118(5) 0.6035(3) 0.2269(2)
loop_
_geom_bond_atom_site_label_1
_geom_bond_atom_site_label_2
_geom_bond_site_symmetry_1
_geom_bond_site_symmetry_2
Pb1 O1 1_555 1_555
Ca1 O2 1_555 1_555
S1 O9 1_555 1_555
O1 C1 1_555 1_555
O2 Pb1 1_555 1_555
O3 C2 1_555 1_555
O4 C2 1_555 1_555
O5 Pb1 1_555 1_555
O6 Pb1 1_555 1_555
O7 C10 1_555 1_555
O8 C10 1_555 1_555
O9 Ca1 1_555 1_555
C1 O2 1_555 1_555
C2 C7 1_555 1_555
C3 C1 1_555 1_555
C4 C3 1_555 1_555
H1 C4 1_555 1_555
C5 C4 1_555 1_555
H2 C5 1_555 1_555
C6 C5 1_555 1_555
H3 C6 1_555 1_555
C7 C6 1_555 1_555
C8 C3 1_555 1_555
H4 C8 1_555 1_555
C9 O5 1_555 1_555
C10 C15 1_555 1_555
C11 C9 1_555 1_555
C12 C11 1_555 1_555
H5 C12 1_555 1_555
C13 C12 1_555 1_555
H6 C13 1_555 1_555
C14 C13 1_555 1_555
H7 C14 1_555 1_555
C15 C14 1_555 1_555
C16 C11 1_555 1_555
H8 C16 1_555 1_555
C17 S1 1_555 1_555
H9 C17 1_555 1_555
H10 C17 1_555 1_555
H11 C17 1_555 1_555
C18 S1 1_555 1_555
H12 C18 1_555 1_555
H13 C18 1_555 1_555
H14 C18 1_555 1_555
Pb1_2 O3 1_555 1_555
Pb1B O6 1_555 1_555
Pb1C O7 1_555 1_555
Ca1_2 O4 1_555 1_555
Ca1A O5 1_555 1_555
Ca1C O7 1_555 1_555
Ca1B O8 1_555 1_555
O3_2 Pb1 1_555 1_555
O4_2 Pb1 1_555 1_555
O5A Ca1 1_555 1_555
O6B Pb1 1_555 1_555
O7C Pb1 1_555 1_555
O8C Pb1 1_555 1_555
O8B Ca1 1_555 1_555
Ca1 O4_2 1_555 1_555
Ca1 O7C 1_555 1_555
O4 Pb1_2 1_555 1_555
O6 C9 1_555 1_555
O8 Pb1C 1_555 1_555
C7 C8 1_555 1_555
C15 C16 1_555 1_555
Pb1B O6B 1_555 1_555
Ca1A O8C 1_555 1_555

#END
