
#######################################################################
#
#                 Cambridge Crystallographic Data Centre
#                                CCDC 
#
#######################################################################
#
# If this CIF has been generated from an entry in the Cambridge 
# Structural Database, then it will include bibliographic, chemical, 
# crystal, experimental, refinement or atomic coordinate data resulting 
# from the CCDC's data processing and validation procedures.
#
#######################################################################

data_LACKEF
_symmetry_cell_setting           orthorhombic
_symmetry_space_group_name_H-M   'P 21 21 21'
_symmetry_Int_Tables_number      19
_space_group_name_Hall           'P 2ac 2ab'
loop_
_symmetry_equiv_pos_site_id
_symmetry_equiv_pos_as_xyz
1 x,y,z
2 1/2-x,-y,1/2+z
3 1/2+x,1/2-y,-z
4 -x,1/2+y,1/2-z
_cell_length_a                   21.444(2)
_cell_length_b                   15.175(2)
_cell_length_c                   15.6850(12)
_cell_angle_alpha                90
_cell_angle_beta                 90
_cell_angle_gamma                90
_cell_volume                     5104.1
loop_
_atom_site_label
_atom_site_type_symbol
_atom_site_fract_x
_atom_site_fract_y
_atom_site_fract_z
K1 K 0.2855(5) 0.2436(7) 0.0373(7)
K2 K 0.2137(5) 0.2539(7) 0.4632(5)
Yb1 Yb 0.2344(1) 0.5029(4) 0.2441(1)
Yb2 Yb 0.2659(1) -0.0031(1) 0.2561(1)
S1 S 0.3338(6) 0.3124(8) 0.2652(9)
S2 S 0.3315(6) 0.4542(8) 0.4353(7)
S3 S 0.3334(6) 0.5149(7) 0.0564(7)
S4 S 0.3434(6) 0.6761(8) 0.2075(8)
S5 S 0.1655(6) -0.0115(8) 0.4450(8)
S6 S 0.1558(7) -0.1733(8) 0.2903(9)
S7 S 0.1683(6) 0.0474(7) 0.0622(8)
S8 S 0.1659(6) 0.1871(7) 0.2347(7)
O1 O 0.2996(11) 0.3859(16) 0.2262(16)
O2 O 0.3591(12) 0.2510(17) 0.2015(16)
O3 O 0.2971(10) 0.2705(14) 0.3310(14)
O4 O 0.1618(12) 0.4217(16) 0.3254(16)
O5 O 0.1802(12) 0.4096(16) 0.1495(18)
O6 O 0.1701(13) 0.5974(18) 0.1645(18)
O7 O 0.1843(12) 0.5932(15) 0.3428(15)
O8 O 0.2860(10) 0.4802(13) 0.3742(12)
O9 O 0.3466(13) 0.5327(19) 0.4828(18)
O10 O 0.3155(15) 0.3774(19) 0.4892(20)
O11 O 0.3155(13) -0.1020(17) 0.1548(18)
O12 O 0.3372(11) 0.0793(13) 0.1854(13)
O13 O 0.3251(11) 0.0835(15) 0.3505(15)
O14 O 0.3262(13) -0.1015(17) 0.3315(18)
O15 O 0.2816(11) 0.5217(15) 0.1069(15)
O16 O 0.3342(13) 0.5823(16) -0.0111(17)
O17 O 0.3396(14) 0.4215(17) 0.0249(18)
O18 O 0.2977(9) 0.6215(12) 0.2535(13)
O19 O 0.3180(11) 0.7143(16) 0.1397(16)
O20 O 0.3664(8) 0.7434(11) 0.2608(12)
O21 O 0.2189(12) -0.0226(15) 0.3841(15)
O22 O 0.1588(12) 0.0725(15) 0.4833(16)
O23 O 0.1651(16) -0.0767(20) 0.5109(21)
O24 O 0.1950(9) -0.1141(13) 0.2397(14)
O25 O 0.1851(10) -0.2116(14) 0.3720(14)
O26 O 0.1235(9) -0.2361(12) 0.2302(13)
O27 O 0.2180(10) 0.0309(14) 0.1269(13)
O28 O 0.1854(14) 0.1181(18) 0.0100(18)
O29 O 0.1483(10) -0.0292(14) 0.0112(14)
O30 O 0.2043(13) 0.1188(18) 0.2715(18)
O31 O 0.1955(10) 0.2338(15) 0.1655(15)
O32 O 0.1458(12) 0.2456(19) 0.3020(17)
O33 O 0.3132(12) 0.1975(17) 0.5615(17)
O34 O 0.1967(11) 0.3085(16) -0.0597(16)
C1 C 0.4028(15) 0.3665(20) 0.3148(20)
C2 C 0.3956(15) 0.4215(22) 0.3762(21)
C3 C 0.4555(21) 0.4534(27) 0.4083(29)
C4 C 0.5145(17) 0.4285(21) 0.3683(22)
C5 C 0.5129(16) 0.3681(20) 0.3038(21)
C6 C 0.4572(20) 0.3351(27) 0.2794(27)
C7 C 0.4019(19) 0.5381(25) 0.1195(25)
C8 C 0.4070(22) 0.6079(28) 0.1777(30)
C9 C 0.4635(18) 0.6244(26) 0.2076(24)
C10 C 0.5128(15) 0.5844(18) 0.1951(19)
C11 C 0.5108(13) 0.4965(18) 0.1277(17)
C12 C 0.4580(15) 0.4814(21) 0.1005(22)
C13 C 0.0924(21) -0.1035(26) 0.3259(29)
C14 C 0.0976(19) -0.0341(25) 0.3872(25)
C15 C 0.0488(17) 0.0097(25) 0.4017(24)
C16 C -0.0129(14) -0.0134(19) 0.3576(18)
C17 C -0.0188(13) -0.0632(18) 0.3097(17)
C18 C 0.0358(18) -0.1199(26) 0.2818(25)
C19 C 0.0954(13) 0.0764(19) 0.1194(19)
C20 C 0.0988(14) 0.1411(19) 0.1943(19)
C21 C 0.0409(15) 0.1573(20) 0.2264(21)
C22 C -0.0146(17) 0.1170(21) 0.1907(22)
C23 C -0.0101(14) 0.0589(18) 0.1234(18)
C24 C 0.0451(16) 0.0379(21) 0.0953(22)
O16A O 0.1658(13) 0.4177(16) 0.4889(17)
O19A O 0.1820(11) 0.2857(16) 0.6397(16)
O23A O 0.3349(16) 0.0767(20) 0.0109(21)
O25A O 0.3149(10) 0.2116(14) -0.1280(14)
K2A K 0.2863(5) 0.7461(7) -0.0368(5)
K1A K 0.2145(5) -0.2436(7) 0.5373(7)
O35 O 0.5521(16) 0.7559(25) -0.0815(26)
C25 C 0.5367(21) 0.7134(30) -0.0182(34)
C26 C 0.4551(13) 0.7353(22) -0.0089(23)
O36 O 0.5604(10) 0.2932(15) 0.0538(15)
C27 C 0.5283(14) 0.2299(20) 0.0075(22)
C28 C 0.4647(15) 0.2089(21) 0.0382(22)
loop_
_geom_bond_atom_site_label_1
_geom_bond_atom_site_label_2
_geom_bond_site_symmetry_1
_geom_bond_site_symmetry_2
K1 O2 1_555 1_555
K2 O3 1_555 1_555
Yb1 O1 1_555 1_555
Yb2 O11 1_555 1_555
S1 O1 1_555 1_555
S2 O8 1_555 1_555
S3 O15 1_555 1_555
S4 O18 1_555 1_555
S5 O21 1_555 1_555
S6 O24 1_555 1_555
S7 O27 1_555 1_555
S8 O30 1_555 1_555
O2 S1 1_555 1_555
O3 S1 1_555 1_555
O4 Yb1 1_555 1_555
O5 Yb1 1_555 1_555
O6 Yb1 1_555 1_555
O7 Yb1 1_555 1_555
O8 Yb1 1_555 1_555
O9 S2 1_555 1_555
O10 K2 1_555 1_555
O12 Yb2 1_555 1_555
O13 Yb2 1_555 1_555
O14 Yb2 1_555 1_555
O15 Yb1 1_555 1_555
O16 S3 1_555 1_555
O17 K1 1_555 1_555
O18 Yb1 1_555 1_555
O19 S4 1_555 1_555
O20 S4 1_555 1_555
O21 Yb2 1_555 1_555
O22 K2 1_555 1_555
O23 S5 1_555 1_555
O24 Yb2 1_555 1_555
O25 S6 1_555 1_555
O26 S6 1_555 1_555
O27 Yb2 1_555 1_555
O28 K1 1_555 1_555
O29 S7 1_555 1_555
O30 Yb2 1_555 1_555
O31 K1 1_555 1_555
O32 K2 1_555 1_555
O33 K2 1_555 1_555
O34 K1 1_555 1_555
O35 C25 1_555 1_555
O36 C27 1_555 1_555
C1 S1 1_555 1_555
C2 S2 1_555 1_555
C3 C2 1_555 1_555
C4 C3 1_555 1_555
C5 C4 1_555 1_555
C6 C1 1_555 1_555
C7 S3 1_555 1_555
C8 S4 1_555 1_555
C9 C8 1_555 1_555
C10 C9 1_555 1_555
C11 C10 1_555 1_555
C12 C7 1_555 1_555
C13 S6 1_555 1_555
C14 S5 1_555 1_555
C15 C14 1_555 1_555
C16 C15 1_555 1_555
C17 C16 1_555 1_555
C18 C13 1_555 1_555
C19 S7 1_555 1_555
C20 S8 1_555 1_555
C21 C20 1_555 1_555
C22 C21 1_555 1_555
C23 C22 1_555 1_555
C24 C19 1_555 1_555
C25 C26 1_555 1_555
C27 C28 1_555 1_555
O16A K2 1_555 1_555
O19A K2 1_555 1_555
O23A K1 1_555 1_555
O25A K1 1_555 1_555
K2A O16 1_555 1_555
K1A O23 1_555 1_555
S2 O10 1_555 1_555
S3 O17 1_555 1_555
S5 O22 1_555 1_555
S7 O28 1_555 1_555
S8 O31 1_555 1_555
S8 O32 1_555 1_555
O19 K2A 1_555 1_555
O25 K1A 1_555 1_555
C1 C2 1_555 1_555
C5 C6 1_555 1_555
C7 C8 1_555 1_555
C11 C12 1_555 1_555
C13 C14 1_555 1_555
C17 C18 1_555 1_555
C19 C20 1_555 1_555
C23 C24 1_555 1_555

#END
