
#######################################################################
#
#                 Cambridge Crystallographic Data Centre
#                                CCDC 
#
#######################################################################
#
# If this CIF has been generated from an entry in the Cambridge 
# Structural Database, then it will include bibliographic, chemical, 
# crystal, experimental, refinement or atomic coordinate data resulting 
# from the CCDC's data processing and validation procedures.
#
#######################################################################

data_LACMAE
_symmetry_cell_setting           monoclinic
_symmetry_space_group_name_H-M   'P 21/n'
_symmetry_Int_Tables_number      14
_space_group_name_Hall           '-P 2yn'
loop_
_symmetry_equiv_pos_site_id
_symmetry_equiv_pos_as_xyz
1 x,y,z
2 1/2+x,1/2-y,1/2+z
3 -x,-y,-z
4 1/2-x,1/2+y,1/2-z
_cell_length_a                   12.158(1)
_cell_length_b                   16.660(2)
_cell_length_c                   15.720(2)
_cell_angle_alpha                90
_cell_angle_beta                 109.19(1)
_cell_angle_gamma                90
_cell_volume                     3007.19
loop_
_atom_site_label
_atom_site_type_symbol
_atom_site_fract_x
_atom_site_fract_y
_atom_site_fract_z
Cu1 Cu 0.19270(4) 0.05507(3) 0.28896(3)
O1 O 0.3248(3) 0.12183(18) 0.2924(2)
C1 C 0.5009(5) 0.1891(4) 0.3418(4)
F1 F 0.4633(4) 0.2641(3) 0.3232(4)
F2 F 0.5313(4) 0.1594(4) 0.2770(3)
F3 F 0.5979(3) 0.1973(3) 0.4104(3)
C2 C 0.4084(4) 0.1392(3) 0.3616(3)
C3 C 0.4229(4) 0.1182(3) 0.4492(4)
H1 H 0.479(5) 0.137(3) 0.490(4)
C4 C 0.3424(4) 0.0719(3) 0.4722(3)
C5 C 0.3656(5) 0.0554(4) 0.5719(3)
F4 F 0.4766(3) 0.0501(3) 0.6187(2)
F5 F 0.3219(5) 0.1113(3) 0.6076(2)
F6 F 0.3208(5) -0.0133(3) 0.5846(3)
O2 O 0.2521(3) 0.04086(18) 0.4202(2)
O3 O 0.0495(3) 0.00092(18) 0.2853(2)
C6 C -0.1433(6) -0.0400(6) 0.2393(6)
F7 F -0.1485(7) -0.0265(7) 0.3165(7)
F8 F -0.2417(4) -0.0260(5) 0.1911(6)
F9 F -0.1276(6) -0.1122(4) 0.2440(9)
C7 C -0.0451(4) 0.0076(3) 0.2234(4)
C8 C -0.0693(5) 0.0504(4) 0.1451(4)
H2 H -0.133(5) 0.050(3) 0.101(4)
C9 C 0.0159(4) 0.0922(3) 0.1236(3)
C10 C -0.0172(7) 0.1383(5) 0.0360(4)
F10 F 0.0084(14) 0.1034(6) -0.0223(5)
F11 F -0.1205(6) 0.1539(8) 0.0009(6)
F12 F 0.0259(8) 0.2040(4) 0.0419(4)
O4 O 0.1205(3) 0.09719(18) 0.16814(19)
O5 O 0.0814(4) 0.1828(2) 0.3179(3)
N1 N 0.0621(3) 0.2335(2) 0.3710(3)
C11 C -0.0174(5) 0.2189(3) 0.4235(4)
C12 C 0.0058(10) 0.1375(4) 0.4687(7)
H3 H 0.078(8) 0.151(5) 0.513(6)
H4 H -0.046(7) 0.138(5) 0.519(5)
H5 H -0.028(6) 0.102(5) 0.417(5)
C13 C -0.1381(8) 0.2201(10) 0.3504(10)
H6 H -0.164(12) 0.169(9) 0.315(9)
H7 H -0.180(7) 0.225(4) 0.374(5)
H8 H -0.162(9) 0.281(7) 0.315(7)
C14 C 0.0132(6) 0.2932(3) 0.4847(4)
C15 C -0.0889(16) 0.3305(7) 0.5054(12)
H9 H -0.142(6) 0.347(5) 0.460(5)
H10 H -0.122(6) 0.287(4) 0.538(4)
H11 H -0.056(8) 0.376(6) 0.549(6)
C16 C 0.1138(11) 0.2774(6) 0.5722(5)
H12 H 0.131(9) 0.329(6) 0.597(7)
H13 H 0.089(6) 0.249(4) 0.612(5)
H14 H 0.190(7) 0.249(5) 0.550(6)
N2 N 0.0590(5) 0.3522(2) 0.4328(3)
C17 C 0.0910(4) 0.3147(3) 0.3751(3)
C18 C 0.1474(4) 0.3487(2) 0.3148(3)
C19 C 0.1793(4) 0.4296(2) 0.3112(3)
C20 C 0.1602(6) 0.4978(3) 0.3656(4)
H15 H 0.209(7) 0.536(5) 0.373(5)
H16 H 0.082(7) 0.511(5) 0.374(5)
H17 H 0.175(5) 0.477(4) 0.430(4)
N3 N 0.2294(3) 0.43956(19) 0.2485(2)
N4 N 0.2298(3) 0.36563(19) 0.2116(2)
C21 C 0.2779(6) 0.3526(4) 0.1393(4)
H18 H 0.274(5) 0.299(4) 0.127(4)
H19 H 0.237(5) 0.385(4) 0.086(4)
H20 H 0.355(6) 0.354(4) 0.158(4)
C22 C 0.1812(4) 0.3113(3) 0.2497(3)
H21 H 0.177(3) 0.263(3) 0.234(3)
N3C N 0.2706(3) -0.06044(19) 0.2515(2)
Cu1C Cu 0.30730(4) 0.55507(3) 0.21104(3)
loop_
_geom_bond_atom_site_label_1
_geom_bond_atom_site_label_2
_geom_bond_site_symmetry_1
_geom_bond_site_symmetry_2
Cu1 O1 1_555 1_555
O1 C2 1_555 1_555
C1 F1 1_555 1_555
F2 C1 1_555 1_555
F3 C1 1_555 1_555
C2 C1 1_555 1_555
C3 C2 1_555 1_555
H1 C3 1_555 1_555
C4 C3 1_555 1_555
C5 C4 1_555 1_555
F4 C5 1_555 1_555
F5 C5 1_555 1_555
F6 C5 1_555 1_555
O2 Cu1 1_555 1_555
O3 Cu1 1_555 1_555
C6 F7 1_555 1_555
F8 C6 1_555 1_555
F9 C6 1_555 1_555
C7 O3 1_555 1_555
C8 C7 1_555 1_555
H2 C8 1_555 1_555
C9 C8 1_555 1_555
C10 C9 1_555 1_555
F10 C10 1_555 1_555
F11 C10 1_555 1_555
F12 C10 1_555 1_555
O4 Cu1 1_555 1_555
O5 Cu1 1_555 1_555
N1 O5 1_555 1_555
C11 N1 1_555 1_555
C12 C11 1_555 1_555
H3 C12 1_555 1_555
H4 C12 1_555 1_555
H5 C12 1_555 1_555
C13 C11 1_555 1_555
H6 C13 1_555 1_555
H7 C13 1_555 1_555
H8 C13 1_555 1_555
C14 C11 1_555 1_555
C15 C14 1_555 1_555
H9 C15 1_555 1_555
H10 C15 1_555 1_555
H11 C15 1_555 1_555
C16 C14 1_555 1_555
H12 C16 1_555 1_555
H13 C16 1_555 1_555
H14 C16 1_555 1_555
N2 C14 1_555 1_555
C17 N1 1_555 1_555
C18 C17 1_555 1_555
C19 C18 1_555 1_555
C20 C19 1_555 1_555
H15 C20 1_555 1_555
H16 C20 1_555 1_555
H17 C20 1_555 1_555
N3 C19 1_555 1_555
N4 N3 1_555 1_555
C21 N4 1_555 1_555
H18 C21 1_555 1_555
H19 C21 1_555 1_555
H20 C21 1_555 1_555
C22 C18 1_555 1_555
H21 C22 1_555 1_555
N3C Cu1 1_555 1_555
Cu1C N3 1_555 1_555
C4 O2 1_555 1_555
C6 C7 1_555 1_555
C9 O4 1_555 1_555
N2 C17 1_555 1_555
N4 C22 1_555 1_555

#END
