
#######################################################################
#
#                 Cambridge Crystallographic Data Centre
#                                CCDC 
#
#######################################################################
#
# If this CIF has been generated from an entry in the Cambridge 
# Structural Database, then it will include bibliographic, chemical, 
# crystal, experimental, refinement or atomic coordinate data resulting 
# from the CCDC's data processing and validation procedures.
#
#######################################################################

data_LACYUK
_symmetry_cell_setting           orthorhombic
_symmetry_space_group_name_H-M   'F d d 2'
_symmetry_Int_Tables_number      43
_space_group_name_Hall           'F 2 -2d'
loop_
_symmetry_equiv_pos_site_id
_symmetry_equiv_pos_as_xyz
1 x,y,z
2 -x,-y,z
3 1/4+x,1/4-y,1/4+z
4 1/4-x,1/4+y,1/4+z
5 x,1/2+y,1/2+z
6 -x,1/2-y,1/2+z
7 1/4+x,3/4-y,3/4+z
8 1/4-x,3/4+y,3/4+z
9 1/2+x,y,1/2+z
10 1/2-x,-y,1/2+z
11 3/4+x,1/4-y,3/4+z
12 3/4-x,1/4+y,3/4+z
13 1/2+x,1/2+y,z
14 1/2-x,1/2-y,z
15 3/4+x,3/4-y,1/4+z
16 3/4-x,3/4+y,1/4+z
_cell_length_a                   20.7255(11)
_cell_length_b                   46.166(2)
_cell_length_c                   8.4332(4)
_cell_angle_alpha                90
_cell_angle_beta                 90
_cell_angle_gamma                90
_cell_volume                     8069
loop_
_atom_site_label
_atom_site_type_symbol
_atom_site_fract_x
_atom_site_fract_y
_atom_site_fract_z
P1 P 0.37287(6) 0.07060(3) 0.74564(13)
F1 F 0.42212(19) 0.07517(10) 0.6048(4)
F2 F 0.3614(2) 0.10458(8) 0.7546(5)
F3 F 0.3224(3) 0.06729(10) 0.8818(6)
F4 F 0.3829(2) 0.03725(7) 0.7333(4)
F5 F 0.4311(2) 0.07517(10) 0.8647(5)
F6 F 0.31804(16) 0.06759(8) 0.6153(5)
C15 C 0.4805(13) 0.0274(3) 0.047(3)
O1 O 0.5000 0.0000 -0.0129(14)
C15A C 0.5195(13) -0.0274(3) 0.047(3)
Ag1 Ag 0.293512(12) 0.072918(5) 0.20749(3)
C1 C 0.35676(17) 0.13049(7) 0.3618(4)
C2 C 0.40436(16) 0.15146(7) 0.3948(4)
C3 C 0.47673(18) 0.12702(7) 0.2385(4)
H1 H 0.5187 0.1249 0.1950
C4 C 0.43010(18) 0.10735(7) 0.2016(5)
H2 H 0.4402 0.0922 0.1296
C5 C 0.29183(17) 0.13076(8) 0.4337(6)
H3 H 0.2754 0.1109 0.4407
H4 H 0.2942 0.1392 0.5402
H5 H 0.2627 0.1424 0.3679
C6 C 0.39160(17) 0.17649(7) 0.5000(4)
C7 C 0.33296(18) 0.19523(7) 0.4785(6)
H6 H 0.3448 0.2156 0.4939
H7 H 0.3158 0.1926 0.3712
H8 H 0.3000 0.1897 0.5563
C8 C 0.4064(2) 0.17247(8) 0.9215(5)
H9 H 0.4401 0.1593 0.8839
H10 H 0.4096 0.1745 1.0369
H11 H 0.3639 0.1646 0.8938
C9 C 0.41502(17) 0.20176(7) 0.8443(4)
C10 C 0.40423(15) 0.22803(7) 0.9418(4)
C11 C 0.34401(18) 0.24871(8) 1.1392(4)
H12 H 0.3141 0.2471 1.2241
C12 C 0.36902(18) 0.27548(8) 1.1017(4)
H13 H 0.3531 0.2922 1.1543
C13 C 0.43520(16) 0.25467(7) 0.9123(4)
C14 C 0.48998(19) 0.25852(8) 0.8011(5)
H14 H 0.5173 0.2745 0.8379
H15 H 0.5154 0.2406 0.7970
H16 H 0.4734 0.2630 0.6951
N1 N 0.37152(16) 0.10855(6) 0.2619(4)
N2 N 0.46414(13) 0.14939(6) 0.3357(3)
N3 N 0.43502(15) 0.18121(6) 0.6050(4)
N4 N 0.42628(13) 0.20584(5) 0.6983(4)
N5 N 0.36106(16) 0.22500(7) 1.0584(4)
N6 N 0.41573(14) 0.27840(6) 0.9916(3)
C1J C 0.10676(17) 0.11951(7) 0.1118(4)
C2J C 0.15436(16) 0.09854(7) 0.1448(4)
C3J C 0.22673(18) 0.12298(7) -0.0115(4)
H1J H 0.2687 0.1251 -0.0550
C4J C 0.18010(18) 0.14265(7) -0.0484(5)
H2J H 0.1902 0.1578 -0.1204
C5J C 0.04183(17) 0.11924(8) 0.1837(6)
H3J H 0.0254 0.1391 0.1907
H4J H 0.0442 0.1108 0.2902
H5J H 0.0127 0.1076 0.1179
C6J C 0.14160(17) 0.07351(7) 0.2500(4)
C7J C 0.08296(18) 0.05477(7) 0.2285(6)
H6J H 0.0948 0.0344 0.2439
H7J H 0.0658 0.0574 0.1212
H8J H 0.0500 0.0603 0.3063
C8J C 0.1564(2) 0.07753(8) 0.6715(5)
H9J H 0.1901 0.0907 0.6339
H10J H 0.1596 0.0755 0.7869
H11J H 0.1139 0.0854 0.6438
C9J C 0.16502(17) 0.04824(7) 0.5943(4)
C10J C 0.15423(15) 0.02197(7) 0.6918(4)
C11J C 0.09401(18) 0.00129(8) 0.8892(4)
H12J H 0.0641 0.0029 0.9741
C12J C 0.11902(18) -0.02548(8) 0.8517(4)
H13J H 0.1031 -0.0422 0.9043
C13J C 0.18520(16) -0.00467(7) 0.6623(4)
C14J C 0.23998(19) -0.00852(8) 0.5511(5)
H14J H 0.2673 -0.0245 0.5879
H15J H 0.2654 0.0094 0.5470
H16J H 0.2234 -0.0130 0.4451
N1J N 0.12152(16) 0.14145(6) 0.0119(4)
N2J N 0.21414(13) 0.10061(6) 0.0857(3)
N3J N 0.18502(15) 0.06879(6) 0.3550(4)
N4J N 0.17628(13) 0.04416(5) 0.4483(4)
N5J N 0.11106(16) 0.02500(7) 0.8084(4)
N6J N 0.16573(14) -0.02840(6) 0.7416(3)
Ag1J Ag 0.043512(12) 0.177082(5) -0.04251(3)
N6O N 0.33427(14) 0.02840(6) 0.2416(3)
Ag1B Ag 0.543512(12) 0.177082(5) 0.45749(3)
Ag1K Ag 0.456488(12) 0.322918(5) 0.95749(3)
Ag1I Ag 0.206488(12) -0.072918(5) 0.70749(3)
N2H N -0.03586(13) 0.14939(6) -0.1643(3)
N3H N -0.06498(15) 0.18121(6) 0.1050(4)
N6M N 0.08427(14) 0.22160(6) -0.0084(3)
C16? C 0.4727(11) 0.0143(5) 0.005(3)
O2? O 0.4977(8) 0.0382(3) 0.097(2)
loop_
_geom_bond_atom_site_label_1
_geom_bond_atom_site_label_2
_geom_bond_site_symmetry_1
_geom_bond_site_symmetry_2
Ag1 N1 1_555 1_555
C1 C2 1_555 1_555
C2 C6 1_555 1_555
C3 H1 1_555 1_555
C4 C3 1_555 1_555
H2 C4 1_555 1_555
C5 C1 1_555 1_555
H3 C5 1_555 1_555
H4 C5 1_555 1_555
H5 C5 1_555 1_555
C6 C7 1_555 1_555
C7 H6 1_555 1_555
H7 C7 1_555 1_555
H8 C7 1_555 1_555
C8 H9 1_555 1_555
H10 C8 1_555 1_555
H11 C8 1_555 1_555
C9 C8 1_555 1_555
C10 C9 1_555 1_555
C11 H12 1_555 1_555
C12 C11 1_555 1_555
H13 C12 1_555 1_555
C13 C10 1_555 1_555
C14 C13 1_555 1_555
H14 C14 1_555 1_555
H15 C14 1_555 1_555
H16 C14 1_555 1_555
N1 C1 1_555 1_555
N2 C2 1_555 1_555
N3 C6 1_555 1_555
N4 C9 1_555 1_555
N5 C10 1_555 1_555
N6 C12 1_555 1_555
P1 F1 1_555 1_555
F2 P1 1_555 1_555
F3 P1 1_555 1_555
F4 P1 1_555 1_555
F5 P1 1_555 1_555
F6 P1 1_555 1_555
C15 O1 1_555 1_555
O1 C15A 1_555 1_555
C1J C2J 1_555 1_555
C2J C6J 1_555 1_555
C3J H1J 1_555 1_555
C4J C3J 1_555 1_555
H2J C4J 1_555 1_555
C5J C1J 1_555 1_555
H3J C5J 1_555 1_555
H4J C5J 1_555 1_555
H5J C5J 1_555 1_555
C6J C7J 1_555 1_555
C7J H6J 1_555 1_555
H7J C7J 1_555 1_555
H8J C7J 1_555 1_555
C8J H9J 1_555 1_555
H10J C8J 1_555 1_555
H11J C8J 1_555 1_555
C9J C8J 1_555 1_555
C10J C9J 1_555 1_555
C11J H12J 1_555 1_555
C12J C11J 1_555 1_555
H13J C12J 1_555 1_555
C13J C10J 1_555 1_555
C14J C13J 1_555 1_555
H14J C14J 1_555 1_555
H15J C14J 1_555 1_555
H16J C14J 1_555 1_555
N1J C1J 1_555 1_555
N2J Ag1 1_555 1_555
N3J Ag1 1_555 1_555
N4J C9J 1_555 1_555
N5J C10J 1_555 1_555
N6J C12J 1_555 1_555
Ag1J N1J 1_555 1_555
N6O Ag1 1_555 1_555
Ag1B N2 1_555 1_555
Ag1K N6 1_555 1_555
Ag1I N6J 1_555 1_555
N2H Ag1J 1_555 1_555
N3H Ag1J 1_555 1_555
N6M Ag1J 1_555 1_555
C3 N2 1_555 1_555
C4 N1 1_555 1_555
C11 N5 1_555 1_555
C13 N6 1_555 1_555
N3 N4 1_555 1_555
N3 Ag1B 1_555 1_555
C2J N2J 1_555 1_555
C3J N2J 1_555 1_555
C4J N1J 1_555 1_555
C6J N3J 1_555 1_555
C11J N5J 1_555 1_555
C13J N6J 1_555 1_555
N3J N4J 1_555 1_555

#END
