
#######################################################################
#
#                 Cambridge Crystallographic Data Centre
#                                CCDC 
#
#######################################################################
#
# If this CIF has been generated from an entry in the Cambridge 
# Structural Database, then it will include bibliographic, chemical, 
# crystal, experimental, refinement or atomic coordinate data resulting 
# from the CCDC's data processing and validation procedures.
#
#######################################################################

data_LADDUR
_symmetry_cell_setting           triclinic
_symmetry_space_group_name_H-M   'P -1'
_symmetry_Int_Tables_number      2
_space_group_name_Hall           '-P 1'
loop_
_symmetry_equiv_pos_site_id
_symmetry_equiv_pos_as_xyz
1 x,y,z
2 -x,-y,-z
_cell_length_a                   7.9351(4)
_cell_length_b                   11.3444(5)
_cell_length_c                   12.9490(6)
_cell_angle_alpha                100.7740(10)
_cell_angle_beta                 107.3420(10)
_cell_angle_gamma                101.2400(10)
_cell_volume                     1053.28
loop_
_atom_site_label
_atom_site_type_symbol
_atom_site_fract_x
_atom_site_fract_y
_atom_site_fract_z
Ni1 Ni 0.0000 0.5000 0.0000
Br1 Br 0.38650(6) 0.95454(4) 0.14501(4)
Br2 Br 0.37887(6) 1.22257(4) 0.07648(4)
O1 O 0.9180(4) 0.6767(3) 0.3752(2)
O2 O 0.0285(3) 0.6834(2) -0.0003(2)
O3 O -0.0288(4) 0.7620(2) 0.1545(2)
O4 O 0.1472(3) 0.4876(2) -0.1071(2)
H1 H 0.1111 0.4090 -0.1339
H2 H 0.1417 0.5318 -0.1537
N1 N 0.2488(4) 0.5447(3) 0.1348(3)
N2 N 0.7981(5) 0.5931(4) 0.4869(3)
N3 N 0.9889(5) 0.6353(4) 0.5391(3)
N4 N 1.6065(5) 0.8500(4) 0.5201(4)
C1 C 0.5868(5) 0.5951(4) 0.3032(3)
C2 C 0.5704(5) 0.6454(4) 0.2123(3)
H3 H 0.6721 0.6963 0.2062
C3 C 0.4002(5) 0.6183(4) 0.1315(3)
H4 H 0.3895 0.6531 0.0711
C4 C 0.2674(5) 0.4982(4) 0.2243(3)
H5 H 0.1637 0.4478 0.2288
C5 C 0.4307(5) 0.5210(4) 0.3092(3)
H6 H 0.4370 0.4874 0.3701
C6 C 0.7646(5) 0.6191(4) 0.3913(3)
C7 C 1.0535(6) 0.6844(4) 0.4721(3)
C8 C 1.2422(6) 0.7419(4) 0.4873(3)
C9 C 1.3821(6) 0.7420(5) 0.5830(4)
H7 H 1.3561 0.7061 0.6374
C10 C 1.5596(6) 0.7968(5) 0.5943(4)
H8 H 1.6529 0.7966 0.6580
C11 C 1.4715(7) 0.8490(4) 0.4299(4)
H9 H 1.5018 0.8857 0.3771
C12 C 1.2890(6) 0.7971(4) 0.4098(4)
H10 H 1.1992 0.7992 0.3453
C13 C 0.0014(5) 0.7668(3) 0.0663(3)
C14 C 0.0019(5) 0.8890(3) 0.0317(3)
C15 C 0.1632(5) 0.9825(3) 0.0632(3)
C16 C 0.1606(5) 1.0925(3) 0.0312(3)
Ni1_2 Ni 0.0000 1.5000 0.0000
Br1A Br -0.38650(6) 1.04546(4) -0.14501(4)
Br2A Br -0.37887(6) 0.77743(4) -0.07648(4)
O1A O -0.9180(4) 0.3233(3) -0.3752(2)
O2A O -0.0285(3) 1.3166(2) 0.0003(2)
O2A_2 O -0.0285(3) 0.3166(2) 0.0003(2)
O3A O 0.0288(4) 1.2380(2) -0.1545(2)
O4A O -0.1472(3) 0.5124(2) 0.1071(2)
H1A H -0.1111 0.5910 0.1339
H2A H -0.1417 0.4682 0.1537
N1A N -0.2488(4) 0.4553(3) -0.1348(3)
N2A N -0.7981(5) 0.4069(4) -0.4869(3)
N3A N -0.9889(5) 0.3647(4) -0.5391(3)
N4A N -1.6065(5) 0.1500(4) -0.5201(4)
C1A C -0.5868(5) 0.4049(4) -0.3032(3)
C2A C -0.5704(5) 0.3546(4) -0.2123(3)
H3A H -0.6721 0.3037 -0.2062
C3A C -0.4002(5) 0.3817(4) -0.1315(3)
H4A H -0.3895 0.3469 -0.0711
C4A C -0.2674(5) 0.5018(4) -0.2243(3)
H5A H -0.1637 0.5522 -0.2288
C5A C -0.4307(5) 0.4790(4) -0.3092(3)
H6A H -0.4370 0.5126 -0.3701
C6A C -0.7646(5) 0.3809(4) -0.3913(3)
C7A C -1.0535(6) 0.3156(4) -0.4721(3)
C8A C -1.2422(6) 0.2581(4) -0.4873(3)
C9A C -1.3821(6) 0.2580(5) -0.5830(4)
H7A H -1.3561 0.2939 -0.6374
C10A C -1.5596(6) 0.2032(5) -0.5943(4)
H8A H -1.6529 0.2034 -0.6580
C11A C -1.4715(7) 0.1510(4) -0.4299(4)
H9A H -1.5018 0.1143 -0.3771
C12A C -1.2890(6) 0.2029(4) -0.4098(4)
H10A H -1.1992 0.2008 -0.3453
C13A C -0.0014(5) 1.2332(3) -0.0663(3)
C14A C -0.0019(5) 1.1110(3) -0.0317(3)
C15A C -0.1632(5) 1.0175(3) -0.0632(3)
C16A C -0.1606(5) 0.9075(3) -0.0312(3)
O5 O 0.1566(5) 0.6501(3) 0.7652(3)
H11 H 0.1138 0.6277 0.6965
C17 C 0.1473(10) 0.7773(6) 0.8039(6)
H12 H 0.2057 0.8057 0.8838
H13 H 0.0214 0.7792 0.7839
H14 H 0.2087 0.8307 0.7692
O6 O 0.7978(12) 0.9379(8) 0.2556(8)
O7 O 0.9688(11) 0.9307(9) 0.5407(9)
O8? O 0.957(3) 0.9894(13) 0.3274(15)
loop_
_geom_bond_atom_site_label_1
_geom_bond_atom_site_label_2
_geom_bond_site_symmetry_1
_geom_bond_site_symmetry_2
Ni1 O2 1_555 1_555
Br1 C15 1_555 1_555
Br2 C16 1_555 1_555
O1 C6 1_555 1_555
O2 C13 1_555 1_555
O3 C13 1_555 1_555
O4 Ni1 1_555 1_555
H1 O4 1_555 1_555
H2 O4 1_555 1_555
N1 Ni1 1_555 1_555
N2 N3 1_555 1_555
N3 C7 1_555 1_555
N4 C10 1_555 1_555
C1 C2 1_555 1_555
C2 H3 1_555 1_555
C3 N1 1_555 1_555
H4 C3 1_555 1_555
C4 N1 1_555 1_555
H5 C4 1_555 1_555
C5 C1 1_555 1_555
H6 C5 1_555 1_555
C6 N2 1_555 1_555
C7 O1 1_555 1_555
C8 C7 1_555 1_555
C9 C8 1_555 1_555
H7 C9 1_555 1_555
C10 C9 1_555 1_555
H8 C10 1_555 1_555
C11 N4 1_555 1_555
H9 C11 1_555 1_555
C12 C8 1_555 1_555
H10 C12 1_555 1_555
C13 C14 1_555 1_555
C14 C15 1_555 1_555
C15 C16 1_555 1_555
C16 C14A 1_555 1_555
O5 H11 1_555 1_555
C17 O5 1_555 1_555
H12 C17 1_555 1_555
H13 C17 1_555 1_555
H14 C17 1_555 1_555
Ni1_2 O2A 1_555 1_555
Br1A C15A 1_555 1_555
Br2A C16A 1_555 1_555
O1A C6A 1_555 1_555
O2A C13A 1_555 1_555
O2A_2 Ni1 1_555 1_555
O3A C13A 1_555 1_555
O4A Ni1 1_555 1_555
H1A O4A 1_555 1_555
H2A O4A 1_555 1_555
N1A Ni1 1_555 1_555
N2A N3A 1_555 1_555
N3A C7A 1_555 1_555
N4A C10A 1_555 1_555
C1A C2A 1_555 1_555
C2A H3A 1_555 1_555
C3A N1A 1_555 1_555
H4A C3A 1_555 1_555
C4A N1A 1_555 1_555
H5A C4A 1_555 1_555
C5A C1A 1_555 1_555
H6A C5A 1_555 1_555
C6A N2A 1_555 1_555
C7A O1A 1_555 1_555
C8A C7A 1_555 1_555
C9A C8A 1_555 1_555
H7A C9A 1_555 1_555
C10A C9A 1_555 1_555
H8A C10A 1_555 1_555
C11A N4A 1_555 1_555
H9A C11A 1_555 1_555
C12A C8A 1_555 1_555
H10A C12A 1_555 1_555
C13A C14A 1_555 1_555
C14A C15A 1_555 1_555
C15A C16A 1_555 1_555
C16A C14 1_555 1_555
C1 C6 1_555 1_555
C2 C3 1_555 1_555
C4 C5 1_555 1_555
C11 C12 1_555 1_555
C1A C6A 1_555 1_555
C2A C3A 1_555 1_555
C4A C5A 1_555 1_555
C11A C12A 1_555 1_555

#END
