
#######################################################################
#
#                 Cambridge Crystallographic Data Centre
#                                CCDC 
#
#######################################################################
#
# If this CIF has been generated from an entry in the Cambridge 
# Structural Database, then it will include bibliographic, chemical, 
# crystal, experimental, refinement or atomic coordinate data resulting 
# from the CCDC's data processing and validation procedures.
#
#######################################################################

data_LADGEE
_symmetry_cell_setting           monoclinic
_symmetry_space_group_name_H-M   'P 21/c'
_symmetry_Int_Tables_number      14
_space_group_name_Hall           '-P 2ybc'
loop_
_symmetry_equiv_pos_site_id
_symmetry_equiv_pos_as_xyz
1 x,y,z
2 -x,1/2+y,1/2-z
3 -x,-y,-z
4 x,1/2-y,1/2+z
_cell_length_a                   8.5891(12)
_cell_length_b                   10.7816(15)
_cell_length_c                   18.136(2)
_cell_angle_alpha                90
_cell_angle_beta                 100.141(2)
_cell_angle_gamma                90
_cell_volume                     1653.23
loop_
_atom_site_label
_atom_site_type_symbol
_atom_site_fract_x
_atom_site_fract_y
_atom_site_fract_z
O1 O 0.6312(6) 0.5429(6) 0.7871(3)
H1 H 0.5863 0.5980 0.8095
H2 H 0.5970 0.4717 0.7965
O2 O 0.2403(5) 0.6128(4) 0.7787(2)
H3 H 0.1598 0.6592 0.7664
H4 H 0.2964 0.6401 0.8187
O3 O -0.5625(5) -0.3460(4) 0.9733(2)
O4 O -0.0385(5) 0.0172(4) 1.1907(2)
O5 O 0.0548(5) 0.2033(4) 1.1783(2)
C1 C -0.0251(7) 0.1120(6) 1.1507(3)
C2 C -0.0977(7) 0.1110(5) 1.0698(3)
C3 C -0.0439(7) 0.1929(5) 1.0215(3)
H5 H 0.0333 0.2509 1.0401
C4 C -0.1034(7) 0.1887(5) 0.9453(3)
C5 C -0.2116(7) 0.0233(6) 1.0416(3)
H6 H -0.2474 -0.0323 1.0741
Sm1 Sm 0.15193(4) 0.40152(3) 0.800009(15)
O6 O 0.0950(5) 0.3268(4) 0.9204(2)
O7 O -0.0857(5) 0.2765(4) 0.8249(2)
C6 C -0.2187(7) 0.1027(6) 0.9179(3)
H7 H -0.2606 0.1008 0.8670
C7 C -0.0285(7) 0.2694(5) 0.8945(3)
C8 C -0.4084(8) -0.1665(6) 0.9812(3)
H8 H -0.4653 -0.1363 1.0193
H9 H -0.3088 -0.2013 1.0062
C9 C -0.5050(8) -0.2654(6) 0.9354(4)
C10 C -0.2710(7) 0.0185(6) 0.9664(3)
O8 O -0.3783(5) -0.0665(4) 0.9342(2)
O9 O -0.5187(6) -0.2645(4) 0.8658(2)
O10 O 0.3759(5) 0.3806(4) 0.7353(2)
H10 H 0.3893 0.4477 0.7126
H11 H 0.3572 0.3219 0.7037
O11 O 0.2437(5) 0.1842(4) 0.8161(2)
H12 H 0.3185 0.1728 0.7918
H13 H 0.1675 0.1357 0.7996
O12 O -0.0087(6) 0.5482(4) 0.8562(2)
H14 H 0.0071 0.6211 0.8412
H15 H -0.1058 0.5295 0.8430
O14 O 0.3827(5) 0.4465(4) 0.8948(2)
H18 H 0.3546 0.4892 0.9296
H19 H 0.4234 0.3787 0.9127
O4C O -0.0385(5) 0.4828(4) 0.6907(2)
O5C O 0.0548(5) 0.2967(4) 0.6783(2)
Sm1C Sm 0.15193(4) 0.09848(3) 1.300009(15)
O13 O 0.2020(6) 1.0045(5) 0.5405(2)
H16 H 0.2979 0.9813 0.5455
H17 H 0.1883 1.0688 0.5131
loop_
_geom_bond_atom_site_label_1
_geom_bond_atom_site_label_2
_geom_bond_site_symmetry_1
_geom_bond_site_symmetry_2
O1 H1 1_555 1_555
H2 O1 1_555 1_555
O2 H3 1_555 1_555
H4 O2 1_555 1_555
O3 C9 1_555 1_555
O4 C1 1_555 1_555
O5 C1 1_555 1_555
C1 C2 1_555 1_555
C2 C3 1_555 1_555
C3 H5 1_555 1_555
C4 C3 1_555 1_555
C5 C2 1_555 1_555
H6 C5 1_555 1_555
Sm1 O2 1_555 1_555
O6 Sm1 1_555 1_555
O7 Sm1 1_555 1_555
C6 C4 1_555 1_555
H7 C6 1_555 1_555
C7 C4 1_555 1_555
C8 H8 1_555 1_555
H9 C8 1_555 1_555
C9 C8 1_555 1_555
C10 C5 1_555 1_555
O8 C8 1_555 1_555
O9 C9 1_555 1_555
O10 Sm1 1_555 1_555
H10 O10 1_555 1_555
H11 O10 1_555 1_555
O11 Sm1 1_555 1_555
H12 O11 1_555 1_555
H13 O11 1_555 1_555
O12 Sm1 1_555 1_555
H14 O12 1_555 1_555
H15 O12 1_555 1_555
O13 H16 1_555 1_555
H17 O13 1_555 1_555
O14 Sm1 1_555 1_555
H18 O14 1_555 1_555
H19 O14 1_555 1_555
O4C Sm1 1_555 1_555
O5C Sm1 1_555 1_555
Sm1C O4 1_555 1_555
O5 Sm1C 1_555 1_555
O6 C7 1_555 1_555
O7 C7 1_555 1_555
C6 C10 1_555 1_555
C10 O8 1_555 1_555

#END
