
#######################################################################
#
#                 Cambridge Crystallographic Data Centre
#                                CCDC 
#
#######################################################################
#
# If this CIF has been generated from an entry in the Cambridge 
# Structural Database, then it will include bibliographic, chemical, 
# crystal, experimental, refinement or atomic coordinate data resulting 
# from the CCDC's data processing and validation procedures.
#
#######################################################################

data_LADQEM01
_symmetry_cell_setting           triclinic
_symmetry_space_group_name_H-M   'P -1'
_symmetry_Int_Tables_number      2
_space_group_name_Hall           '-P 1'
loop_
_symmetry_equiv_pos_site_id
_symmetry_equiv_pos_as_xyz
1 x,y,z
2 -x,-y,-z
_cell_length_a                   14.045(2)
_cell_length_b                   16.649(2)
_cell_length_c                   17.028(2)
_cell_angle_alpha                72.093(9)
_cell_angle_beta                 65.695(2)
_cell_angle_gamma                65.050(11)
_cell_volume                     3246.72
loop_
_atom_site_label
_atom_site_type_symbol
_atom_site_fract_x
_atom_site_fract_y
_atom_site_fract_z
Mn1 Mn 0.5000 0.5000 0.0000
O1 O 0.5043(2) 0.3978(2) 0.1135(2)
H1 H 0.4626(33) 0.4089(23) 0.1549(25)
H2 H 0.5462(40) 0.3430(32) 0.1117(29)
O2 O 0.3825(3) 0.6001(2) 0.0850(2)
H3 H 0.4043(34) 0.6143(24) 0.1096(25)
H4 H 0.3234(34) 0.6090(22) 0.1002(23)
N1 N 0.6530(2) 0.5190(2) 0.0020(2)
C1 C 0.7251(4) 0.4532(3) 0.0388(3)
H5 H 0.7068 0.4023 0.0706
C2 C 0.8245(4) 0.4554(3) 0.0328(3)
H6 H 0.8707 0.4072 0.0603
C3 C 0.8558(3) 0.5291(3) -0.0140(3)
C4 C 0.7812(4) 0.5985(3) -0.0505(3)
H7 H 0.7971 0.6507 -0.0814
C5 C 0.6834(4) 0.5910(3) -0.0416(3)
H8 H 0.6351 0.6390 -0.0675
C6 C 0.9673(4) 0.5350(3) -0.0290(3)
H9 H 0.9547 0.5941 -0.0204
H10 H 1.0126 0.5297 -0.0895
C6A C 1.0327(4) 0.4650(3) 0.0290(3)
C3A C 1.1442(3) 0.4709(3) 0.0140(3)
C2A C 1.1755(4) 0.5446(3) -0.0328(3)
C1A C 1.2749(4) 0.5468(3) -0.0388(3)
N1A N 1.3470(2) 0.4810(2) -0.0020(2)
C5A C 1.3166(4) 0.4090(3) 0.0416(3)
C4A C 1.2188(4) 0.4015(3) 0.0505(3)
H7A H 1.2029 0.3493 0.0814
H8A H 1.3649 0.3610 0.0675
H5A H 1.2932 0.5977 -0.0706
H6A H 1.1293 0.5928 -0.0603
H9A H 1.0453 0.4059 0.0204
H10A H 0.9874 0.4703 0.0895
O1A O 0.4957(2) 0.6022(2) -0.1135(2)
H1A H 0.5374(33) 0.5911(23) -0.1549(25)
H2A H 0.4538(40) 0.6570(32) -0.1117(29)
O2A O 0.6175(3) 0.3999(2) -0.0850(2)
H3A H 0.5957(34) 0.3857(24) -0.1096(25)
H4A H 0.6766(34) 0.3910(22) -0.1002(23)
N1A_2 N 0.3470(2) 0.4810(2) -0.0020(2)
Mn1_2 Mn 1.5000 0.5000 0.0000
N2 N 0.6662(3) 0.5716(2) 0.7289(2)
C7 C 0.7209(4) 0.6294(3) 0.6935(3)
H11 H 0.6956 0.6788 0.7206
C8 C 0.8126(3) 0.6209(3) 0.6193(3)
H12 H 0.8486 0.6627 0.5985
C9 C 0.8504(3) 0.5505(2) 0.5765(2)
C10 C 0.7936(3) 0.4907(3) 0.6123(2)
H13 H 0.8160 0.4416 0.5858
C11 C 0.7032(3) 0.5040(3) 0.6878(2)
H14 H 0.6665 0.4625 0.7109
C12 C 0.9498(3) 0.5398(3) 0.4931(2)
H15 H 0.9301 0.5318 0.4484
H16 H 0.9687 0.5941 0.4727
C12A C 1.0502(3) 0.4602(3) 0.5069(2)
C9A C 1.1496(3) 0.4495(2) 0.4235(2)
C8A C 1.1874(3) 0.3791(3) 0.3807(3)
C7A C 1.2791(4) 0.3706(3) 0.3065(3)
N2A N 1.3338(3) 0.4284(2) 0.2711(2)
C11A C 1.2968(3) 0.4960(3) 0.3122(2)
C10A C 1.2064(3) 0.5093(3) 0.3877(2)
H13A H 1.1840 0.5584 0.4142
H14A H 1.3335 0.5375 0.2891
H11A H 1.3044 0.3212 0.2794
H12A H 1.1514 0.3373 0.4015
H15A H 1.0699 0.4682 0.5516
H16A H 1.0313 0.4059 0.5273
N3 N 0.6709(3) 1.2340(2) 0.0939(2)
C13 C 0.6856(3) 1.1899(2) 0.0346(3)
H17 H 0.6342 1.2127 0.0052
C14 C 0.7741(3) 1.1113(2) 0.0141(3)
H18 H 0.7807 1.0826 -0.0279
C15 C 0.8512(3) 1.0763(2) 0.0554(2)
C16 C 0.8372(3) 1.1226(3) 0.1164(3)
H19 H 0.8879 1.1016 0.1461
C17 C 0.7470(4) 1.2003(3) 0.1327(3)
H20 H 0.7394 1.2308 0.1736
C18 C 0.9506(3) 0.9911(2) 0.0352(3)
H21 H 0.9699 0.9598 0.0878
H22 H 0.9301 0.9520 0.0178
C18A C 1.0494(3) 1.0089(2) -0.0352(3)
C15A C 1.1488(3) 0.9237(2) -0.0554(2)
C14A C 1.2259(3) 0.8887(2) -0.0141(3)
C13A C 1.3144(3) 0.8101(2) -0.0346(3)
N3A N 1.3291(3) 0.7660(2) -0.0939(2)
C17A C 1.2530(4) 0.7997(3) -0.1327(3)
C16A C 1.1628(3) 0.8774(3) -0.1164(3)
H19A H 1.1121 0.8984 -0.1461
H20A H 1.2606 0.7692 -0.1736
H17A H 1.3658 0.7873 -0.0052
H18A H 1.2193 0.9174 0.0279
H21A H 1.0301 1.0402 -0.0878
H22A H 1.0699 1.0480 -0.0178
N4 N 0.4720(3) 0.6501(3) 0.1755(2)
C19 C 0.4803(4) 0.7289(3) 0.1644(3)
H23 H 0.4285 0.7790 0.1438
C20 C 0.5589(4) 0.7429(3) 0.1806(3)
H24 H 0.5600 0.8007 0.1704
C21 C 0.6360(4) 0.6720(3) 0.2118(3)
C22 C 0.6304(4) 0.5878(3) 0.2227(3)
H25 H 0.6823 0.5367 0.2420
C23 C 0.5475(4) 0.5803(3) 0.2047(3)
H26 H 0.5444 0.5234 0.2136
C24 C 0.7305(4) 0.6818(4) 0.2266(3)
H27 H 0.7066 0.7399 0.2431
H28 H 0.7519 0.6355 0.2733
C25 C 0.8250(5) 0.6734(4) 0.1451(3)
H29 H 0.8054 0.7259 0.1022
H30 H 0.8366 0.6215 0.1233
C26 C 0.9362(3) 0.6638(3) 0.1518(3)
C27 C 0.9942(4) 0.5893(3) 0.1992(3)
H31 H 0.9624 0.5460 0.2346
C28 C 1.0981(4) 0.5797(3) 0.1935(3)
H32 H 1.1356 0.5289 0.2255
C29 C 1.0908(4) 0.7109(3) 0.1029(3)
H33 H 1.1229 0.7547 0.0703
C30 C 0.9877(4) 0.7257(3) 0.1039(3)
H34 H 0.9520 0.7778 0.0721
N5 N 1.1487(3) 0.6392(2) 0.1447(2)
Mn2 Mn 0.5000 1.0000 0.5000
O3 O 0.4847(2) 0.8977(2) 0.6139(2)
H35 H 0.4741(37) 0.9098(29) 0.6556(30)
H36 H 0.4876(37) 0.8465(32) 0.6144(28)
O4 O 0.5673(3) 0.9003(2) 0.4148(2)
H37 H 0.6262(37) 0.8825(25) 0.3896(26)
H38 H 0.5322(33) 0.8905(23) 0.3984(23)
N6 N 0.3257(2) 1.0188(2) 0.5021(2)
C31 C 0.2827(4) 0.9529(3) 0.5390(3)
H39 H 0.3198 0.9021 0.5711
C32 C 0.1877(4) 0.9554(3) 0.5325(3)
H40 H 0.1624 0.9071 0.5596
C33 C 0.1292(3) 1.0290(3) 0.4862(3)
C34 C 0.1714(4) 1.0986(3) 0.4494(3)
H41 H 0.1344 1.1507 0.4185
C35 C 0.2661(4) 1.0909(3) 0.4583(3)
H42 H 0.2921 1.1390 0.4323
C36 C 0.0262(4) 1.0359(3) 0.4709(3)
H43 H 0.0459 1.0317 0.4103
H44 H -0.0291 1.0947 0.4807
C36A C -0.0262(4) 0.9641(3) 0.5291(3)
C33A C -0.1292(3) 0.9710(3) 0.5138(3)
C32A C -0.1877(4) 1.0446(3) 0.4675(3)
C31A C -0.2827(4) 1.0471(3) 0.4610(3)
N6A N -0.3257(2) 0.9812(2) 0.4979(2)
C35A C -0.2661(4) 0.9091(3) 0.5417(3)
C34A C -0.1714(4) 0.9014(3) 0.5506(3)
H41A H -0.1344 0.8493 0.5815
H42A H -0.2921 0.8610 0.5677
H39A H -0.3198 1.0979 0.4289
H40A H -0.1624 1.0929 0.4404
H43A H -0.0459 0.9683 0.5897
H44A H 0.0291 0.9053 0.5193
O3A O 0.5153(2) 1.1023(2) 0.3861(2)
H35A H 0.5259(37) 1.0902(29) 0.3444(30)
H36A H 0.5124(37) 1.1535(32) 0.3856(28)
O4A O 0.4327(3) 1.0997(2) 0.5852(2)
H37A H 0.3738(37) 1.1175(25) 0.6104(26)
H38A H 0.4678(33) 1.1095(23) 0.6016(23)
N6A_2 N 0.6743(2) 0.9812(2) 0.4979(2)
Mn2_2 Mn -0.5000 1.0000 0.5000
N7 N 0.5336(3) 1.0723(2) 0.2287(2)
C37 C 0.6049(4) 1.0043(3) 0.1880(2)
H45 H 0.6598 0.9626 0.2113
C38 C 0.6031(3) 0.9912(3) 0.1126(2)
H46 H 0.6564 0.9420 0.0862
C39 C 0.5227(3) 1.0504(2) 0.0766(2)
C40 C 0.4471(4) 1.1209(3) 0.1193(3)
H47 H 0.3905 1.1629 0.0980
C41 C 0.4552(4) 1.1292(3) 0.1944(3)
H48 H 0.4027 1.1774 0.2226
C42 C 0.5167(4) 1.0394(3) -0.0063(2)
H49 H 0.4635 1.0936 -0.0264
H50 H 0.5888 1.0320 -0.0513
C42A C 0.4833(4) 0.9606(3) 0.0063(2)
C39A C 0.4773(3) 0.9496(2) -0.0766(2)
C38A C 0.3969(3) 1.0088(3) -0.1126(2)
C37A C 0.3951(4) 0.9957(3) -0.1880(2)
N7A N 0.4664(3) 0.9277(2) -0.2287(2)
C41A C 0.5448(4) 0.8708(3) -0.1944(3)
C40A C 0.5529(4) 0.8791(3) -0.1193(3)
H47A H 0.6095 0.8371 -0.0980
H48A H 0.5973 0.8226 -0.2226
H45A H 0.3402 1.0374 -0.2113
H46A H 0.3436 1.0580 -0.0862
H49A H 0.5365 0.9064 0.0264
H50A H 0.4112 0.9680 0.0513
N8 N 0.5013(3) 0.7339(2) 0.5938(2)
C43 C 0.5904(4) 0.6894(2) 0.5344(3)
H51 H 0.6485 0.7120 0.5054
C44 C 0.6009(3) 0.6116(2) 0.5135(3)
H52 H 0.6648 0.5833 0.4712
C45 C 0.5168(4) 0.5757(2) 0.5552(2)
C46 C 0.4244(4) 0.6223(3) 0.6164(3)
H53 H 0.3650 0.6013 0.6464
C47 C 0.4200(4) 0.7000(3) 0.6329(3)
H54 H 0.3563 0.7303 0.6740
C48 C 0.5236(4) 0.4910(2) 0.5351(3)
H55 H 0.6008 0.4524 0.5173
H56 H 0.4837 0.4593 0.5878
C48A C 0.4764(4) 0.5090(2) 0.4649(3)
C45A C 0.4832(4) 0.4243(2) 0.4448(2)
C44A C 0.3991(3) 0.3884(2) 0.4865(3)
C43A C 0.4096(4) 0.3106(2) 0.4656(3)
N8A N 0.4987(3) 0.2661(2) 0.4062(2)
C47A C 0.5800(4) 0.3000(3) 0.3671(3)
C46A C 0.5756(4) 0.3777(3) 0.3836(3)
H53A H 0.6350 0.3987 0.3536
H54A H 0.6437 0.2697 0.3260
H51A H 0.3515 0.2880 0.4946
H52A H 0.3352 0.4167 0.5288
H55A H 0.3992 0.5476 0.4827
H56A H 0.5163 0.5407 0.4122
N9 N 0.4334(3) 0.8610(2) 0.3550(2)
C49 C 0.4044(4) 0.7889(3) 0.3971(3)
H57 H 0.4474 0.7450 0.4299
C50 C 0.3172(4) 0.7744(3) 0.3960(3)
H58 H 0.3017 0.7223 0.4279
C51 C 0.2516(4) 0.8360(3) 0.3481(3)
C52 C 0.2826(4) 0.9106(3) 0.3008(3)
H59 H 0.2432 0.9537 0.2651
C53 C 0.3713(4) 0.9206(3) 0.3069(3)
H60 H 0.3890 0.9719 0.2756
C54 C 0.1450(5) 0.8260(4) 0.3549(3)
H61 H 0.1359 0.7733 0.3977
H62 H 0.0829 0.8776 0.3772
C55 C 0.1382(4) 0.8177(4) 0.2743(3)
H63 H 0.1885 0.7595 0.2578
H64 H 0.1601 0.8637 0.2274
C56 C 0.0196(3) 0.8277(3) 0.2886(3)
C57 C -0.0174(4) 0.7572(3) 0.3188(3)
H65 H 0.0316 0.6993 0.3285
C58 C -0.1259(4) 0.7709(3) 0.3350(3)
H66 H -0.1478 0.7206 0.3556
C59 C -0.1666(4) 0.9194(3) 0.2949(3)
H67 H -0.2177 0.9763 0.2861
C60 C -0.0586(4) 0.9124(3) 0.2772(3)
H68 H -0.0385 0.9635 0.2580
N10 N -0.2025(3) 0.8497(3) 0.3240(2)
Cl1 Cl 0.88350(13) 0.37272(13) 0.38234(12)
O5 O 0.8633(10) 0.2967(7) 0.3914(6)
O6 O 0.8877(18) 0.3537(9) 0.4606(7)
O7 O 0.9725(7) 0.3765(6) 0.3173(7)
O8 O 0.8179(8) 0.4526(8) 0.3787(9)
Cl2 Cl 0.13866(14) 1.12717(12) 0.11742(11)
O12 O 0.2083(21) 1.0309(14) 0.1109(14)
O13 O 0.0436(27) 1.1581(23) 0.1033(17)
O14 O 0.0979(27) 1.1280(16) 0.2122(15)
O15 O 0.2241(20) 1.1699(15) 0.0367(15)
O25 O 0.1849(5) 0.2496(4) 0.2507(4)
O26 O 0.8438(9) 0.2872(7) 0.2220(7)
O9? O 0.0373(17) 1.2042(17) 0.1087(12)
O10? O 0.1674(18) 1.1195(11) 0.1936(11)
O11? O 0.1389(25) 1.1050(21) 0.0441(21)
O16? O 0.1188(19) 1.0410(14) 0.1450(16)
O17? O 0.0548(19) 1.0928(15) 0.1945(15)
O18? O 0.2282(18) 1.1045(14) 0.1480(15)
O19? O 0.0501(50) 1.2151(40) 0.1581(41)
O20? O 0.1712(32) 1.1617(25) 0.1608(24)
O21? O 0.1454(23) 1.0582(19) 0.0964(22)
O22? O 0.1815(28) 1.1344(22) 0.0259(19)
O23? O 0.0663(22) 1.2262(16) 0.1028(16)
O24? O 0.2299(33) 1.1547(25) 0.0670(29)
O27? O 0.8556(10) 0.2111(8) 0.2774(8)
loop_
_geom_bond_atom_site_label_1
_geom_bond_atom_site_label_2
_geom_bond_site_symmetry_1
_geom_bond_site_symmetry_2
Mn1 O1 1_555 1_555
O1 H1 1_555 1_555
H2 O1 1_555 1_555
O2 Mn1 1_555 1_555
H3 O2 1_555 1_555
H4 O2 1_555 1_555
N1 Mn1 1_555 1_555
C1 N1 1_555 1_555
H5 C1 1_555 1_555
C2 C1 1_555 1_555
H6 C2 1_555 1_555
C3 C2 1_555 1_555
C4 C3 1_555 1_555
H7 C4 1_555 1_555
C5 N1 1_555 1_555
H8 C5 1_555 1_555
C6 C3 1_555 1_555
H9 C6 1_555 1_555
H10 C6 1_555 1_555
N2 C7 1_555 1_555
C7 H11 1_555 1_555
C8 C7 1_555 1_555
H12 C8 1_555 1_555
C9 C8 1_555 1_555
C10 C9 1_555 1_555
H13 C10 1_555 1_555
C11 N2 1_555 1_555
H14 C11 1_555 1_555
C12 C9 1_555 1_555
H15 C12 1_555 1_555
H16 C12 1_555 1_555
N3 C13 1_555 1_555
C13 H17 1_555 1_555
C14 C13 1_555 1_555
H18 C14 1_555 1_555
C15 C14 1_555 1_555
C16 C15 1_555 1_555
H19 C16 1_555 1_555
C17 N3 1_555 1_555
H20 C17 1_555 1_555
C18 C15 1_555 1_555
H21 C18 1_555 1_555
H22 C18 1_555 1_555
N4 C19 1_555 1_555
C19 H23 1_555 1_555
C20 C19 1_555 1_555
H24 C20 1_555 1_555
C21 C20 1_555 1_555
C22 C21 1_555 1_555
H25 C22 1_555 1_555
C23 N4 1_555 1_555
H26 C23 1_555 1_555
C24 C21 1_555 1_555
H27 C24 1_555 1_555
H28 C24 1_555 1_555
C25 C24 1_555 1_555
H29 C25 1_555 1_555
H30 C25 1_555 1_555
C26 C25 1_555 1_555
C27 C26 1_555 1_555
H31 C27 1_555 1_555
C28 C27 1_555 1_555
H32 C28 1_555 1_555
C29 H33 1_555 1_555
C30 C26 1_555 1_555
H34 C30 1_555 1_555
N5 C28 1_555 1_555
Mn2 O3 1_555 1_555
O3 H35 1_555 1_555
H36 O3 1_555 1_555
O4 Mn2 1_555 1_555
H37 O4 1_555 1_555
H38 O4 1_555 1_555
N6 Mn2 1_555 1_555
C31 N6 1_555 1_555
H39 C31 1_555 1_555
C32 C31 1_555 1_555
H40 C32 1_555 1_555
C33 C32 1_555 1_555
C34 C33 1_555 1_555
H41 C34 1_555 1_555
C35 N6 1_555 1_555
H42 C35 1_555 1_555
C36 C33 1_555 1_555
H43 C36 1_555 1_555
H44 C36 1_555 1_555
N7 C37 1_555 1_555
C37 H45 1_555 1_555
C38 C37 1_555 1_555
H46 C38 1_555 1_555
C39 C38 1_555 1_555
C40 C39 1_555 1_555
H47 C40 1_555 1_555
C41 N7 1_555 1_555
H48 C41 1_555 1_555
C42 C39 1_555 1_555
H49 C42 1_555 1_555
H50 C42 1_555 1_555
N8 C43 1_555 1_555
C43 H51 1_555 1_555
C44 C43 1_555 1_555
H52 C44 1_555 1_555
C45 C44 1_555 1_555
C46 C45 1_555 1_555
H53 C46 1_555 1_555
C47 N8 1_555 1_555
H54 C47 1_555 1_555
C48 C45 1_555 1_555
H55 C48 1_555 1_555
H56 C48 1_555 1_555
N9 C49 1_555 1_555
C49 H57 1_555 1_555
C50 C49 1_555 1_555
H58 C50 1_555 1_555
C51 C50 1_555 1_555
C52 C51 1_555 1_555
H59 C52 1_555 1_555
C53 N9 1_555 1_555
H60 C53 1_555 1_555
C54 C51 1_555 1_555
H61 C54 1_555 1_555
H62 C54 1_555 1_555
C55 C54 1_555 1_555
H63 C55 1_555 1_555
H64 C55 1_555 1_555
C56 C55 1_555 1_555
C57 C56 1_555 1_555
H65 C57 1_555 1_555
C58 C57 1_555 1_555
H66 C58 1_555 1_555
C59 H67 1_555 1_555
C60 C56 1_555 1_555
H68 C60 1_555 1_555
N10 C58 1_555 1_555
Cl1 O5 1_555 1_555
O6 Cl1 1_555 1_555
O7 Cl1 1_555 1_555
O8 Cl1 1_555 1_555
Cl2 O12 1_555 1_555
O13 Cl2 1_555 1_555
O14 Cl2 1_555 1_555
O15 Cl2 1_555 1_555
C6A C6 1_555 1_555
C3A C6A 1_555 1_555
C2A C3A 1_555 1_555
C1A C2A 1_555 1_555
N1A C1A 1_555 1_555
C5A N1A 1_555 1_555
C4A C3A 1_555 1_555
H7A C4A 1_555 1_555
H8A C5A 1_555 1_555
H5A C1A 1_555 1_555
H6A C2A 1_555 1_555
H9A C6A 1_555 1_555
H10A C6A 1_555 1_555
C12A C12 1_555 1_555
C9A C12A 1_555 1_555
C8A C9A 1_555 1_555
C7A C8A 1_555 1_555
N2A C7A 1_555 1_555
C11A N2A 1_555 1_555
C10A C9A 1_555 1_555
H13A C10A 1_555 1_555
H14A C11A 1_555 1_555
H11A C7A 1_555 1_555
H12A C8A 1_555 1_555
H15A C12A 1_555 1_555
H16A C12A 1_555 1_555
C18A C18 1_555 1_555
C15A C18A 1_555 1_555
C14A C15A 1_555 1_555
C13A C14A 1_555 1_555
N3A C13A 1_555 1_555
C17A N3A 1_555 1_555
C16A C15A 1_555 1_555
H19A C16A 1_555 1_555
H20A C17A 1_555 1_555
H17A C13A 1_555 1_555
H18A C14A 1_555 1_555
H21A C18A 1_555 1_555
H22A C18A 1_555 1_555
C36A C36 1_555 1_555
C33A C36A 1_555 1_555
C32A C33A 1_555 1_555
C31A C32A 1_555 1_555
N6A C31A 1_555 1_555
C35A N6A 1_555 1_555
C34A C33A 1_555 1_555
H41A C34A 1_555 1_555
H42A C35A 1_555 1_555
H39A C31A 1_555 1_555
H40A C32A 1_555 1_555
H43A C36A 1_555 1_555
H44A C36A 1_555 1_555
C42A C42 1_555 1_555
C39A C42A 1_555 1_555
C38A C39A 1_555 1_555
C37A C38A 1_555 1_555
N7A C37A 1_555 1_555
C41A N7A 1_555 1_555
C40A C39A 1_555 1_555
H47A C40A 1_555 1_555
H48A C41A 1_555 1_555
H45A C37A 1_555 1_555
H46A C38A 1_555 1_555
H49A C42A 1_555 1_555
H50A C42A 1_555 1_555
C48A C48 1_555 1_555
C45A C48A 1_555 1_555
C44A C45A 1_555 1_555
C43A C44A 1_555 1_555
N8A C43A 1_555 1_555
C47A N8A 1_555 1_555
C46A C45A 1_555 1_555
H53A C46A 1_555 1_555
H54A C47A 1_555 1_555
H51A C43A 1_555 1_555
H52A C44A 1_555 1_555
H55A C48A 1_555 1_555
H56A C48A 1_555 1_555
O1A Mn1 1_555 1_555
H1A O1A 1_555 1_555
H2A O1A 1_555 1_555
O2A Mn1 1_555 1_555
H3A O2A 1_555 1_555
H4A O2A 1_555 1_555
O3A Mn2 1_555 1_555
H35A O3A 1_555 1_555
H36A O3A 1_555 1_555
O4A Mn2 1_555 1_555
H37A O4A 1_555 1_555
H38A O4A 1_555 1_555
N1A_2 Mn1 1_555 1_555
N6A_2 Mn2 1_555 1_555
Mn1_2 N1A 1_555 1_555
Mn2_2 N6A 1_555 1_555
C4 C5 1_555 1_555
C10 C11 1_555 1_555
C16 C17 1_555 1_555
C22 C23 1_555 1_555
C29 N5 1_555 1_555
C29 C30 1_555 1_555
C34 C35 1_555 1_555
C40 C41 1_555 1_555
C46 C47 1_555 1_555
C52 C53 1_555 1_555
C59 N10 1_555 1_555
C59 C60 1_555 1_555
C5A C4A 1_555 1_555
C11A C10A 1_555 1_555
C17A C16A 1_555 1_555
C35A C34A 1_555 1_555
C41A C40A 1_555 1_555
C47A C46A 1_555 1_555

#END
