
#######################################################################
#
#                 Cambridge Crystallographic Data Centre
#                                CCDC 
#
#######################################################################
#
# If this CIF has been generated from an entry in the Cambridge 
# Structural Database, then it will include bibliographic, chemical, 
# crystal, experimental, refinement or atomic coordinate data resulting 
# from the CCDC's data processing and validation procedures.
#
#######################################################################

data_LADQAK
_symmetry_cell_setting           orthorhombic
_symmetry_space_group_name_H-M   'F d d 2'
_symmetry_Int_Tables_number      43
_space_group_name_Hall           'F 2 -2d'
loop_
_symmetry_equiv_pos_site_id
_symmetry_equiv_pos_as_xyz
1 x,y,z
2 -x,-y,z
3 1/4+x,1/4-y,1/4+z
4 1/4-x,1/4+y,1/4+z
5 x,1/2+y,1/2+z
6 -x,1/2-y,1/2+z
7 1/4+x,3/4-y,3/4+z
8 1/4-x,3/4+y,3/4+z
9 1/2+x,y,1/2+z
10 1/2-x,-y,1/2+z
11 3/4+x,1/4-y,3/4+z
12 3/4-x,1/4+y,3/4+z
13 1/2+x,1/2+y,z
14 1/2-x,1/2-y,z
15 3/4+x,3/4-y,1/4+z
16 3/4-x,3/4+y,1/4+z
_cell_length_a                   26.196(5)
_cell_length_b                   35.384(7)
_cell_length_c                   11.073(2)
_cell_angle_alpha                90
_cell_angle_beta                 90
_cell_angle_gamma                90
_cell_volume                     10263.8
loop_
_atom_site_label
_atom_site_type_symbol
_atom_site_fract_x
_atom_site_fract_y
_atom_site_fract_z
Cu1 Cu 0.04651(5) 0.18856(3) 1.02535(17)
O1 O 0.0726(2) 0.19516(16) 0.8614(6)
O2 O -0.0025(3) 0.17843(16) 1.1639(6)
N1 N 0.0503(3) 0.13452(19) 1.0157(10)
C1 C 0.0676(4) 0.1157(3) 0.9289(10)
H1 H 0.0676 0.0896 0.9383
C2 C 0.0870(4) 0.1295(3) 0.8191(9)
C3 C 0.0896(3) 0.1678(2) 0.7883(9)
C4 C 0.1057(4) 0.1769(3) 0.6698(9)
H2 H 0.1024 0.2017 0.643
C5 C 0.1252(3) 0.1516(2) 0.5963(9)
H3 H 0.1387 0.1589 0.5222
C6 C 0.1256(3) 0.1139(3) 0.6301(10)
H4 H 0.139 0.0957 0.5783
C7 C 0.1067(3) 0.1038(3) 0.7373(9)
H5 H 0.1067 0.0784 0.7579
C8 C 0.0295(4) 0.1159(3) 1.1269(9)
H6 H 0.0191 0.0902 1.109
H7 H 0.0554 0.1152 1.1896
C9 C -0.0137(3) 0.1377(2) 1.1666(9)
H8 H -0.0227 0.1303 1.2482
H9 H -0.0426 0.1324 1.1147
N2 N 0.0360(3) 0.24360(18) 1.0406(8)
N3 N 0.0053(3) 0.44272(17) 1.0921(9)
C10 C 0.0474(3) 0.2629(2) 1.1467(8)
H10 H 0.0622 0.2497 1.2102
C11 C 0.0377(3) 0.3011(2) 1.1611(9)
H11 H 0.0435 0.3126 1.2353
C12 C 0.0200(3) 0.3212(2) 1.0686(8)
C13 C 0.0074(4) 0.3044(3) 0.9616(10)
H12 H -0.0071 0.3177 0.8979
C14 C 0.0182(3) 0.2650(2) 0.9545(9)
H13 H 0.0118 0.2534 0.8808
C15 C 0.0130(3) 0.3642(2) 1.0812(10)
C16 C 0.0396(4) 0.3858(3) 1.1627(10)
H14 H 0.0611 0.3739 1.2175
C17 C 0.0357(3) 0.4237(2) 1.1661(9)
H15 H 0.0549 0.437 1.2223
C18 C -0.0202(3) 0.4222(3) 1.0070(10)
H16 H -0.0397 0.435 0.9498
C19 C -0.0181(3) 0.3825(3) 1.0022(10)
H17 H -0.0375 0.3691 0.9464
Cu2 Cu 0.00000 0.50000 1.0905(2)
N4 N 0.00000 0.50000 0.9081(10)
N5 N 0.00000 0.50000 0.2702(10)
C20 C -0.0354(3) 0.5191(2) 0.8458(9)
H18 H -0.0607 0.5321 0.8873
C21 C -0.0349(4) 0.5198(3) 0.7184(9)
H19 H -0.0593 0.5343 0.6783
C22 C 0.00000 0.50000 0.6520(14)
C23 C 0.00000 0.50000 0.5202(15)
C24 C 0.0437(4) 0.5075(2) 0.4580(8)
H20 H 0.0739 0.5129 0.4984
C25 C 0.0418(4) 0.5070(2) 0.3308(9)
H21 H 0.0716 0.5118 0.288
N6 N 0.1363(5) 0.1786(3) 1.2223(13)
O3 O 0.1248(3) 0.1906(2) 1.1146(8)
O4 O 0.1103(4) 0.1878(3) 1.3010(12)
O5 O 0.1817(5) 0.1680(3) 1.2227(11)
O9 O -0.10004(19) 0.49491(18) 1.0818(7)
H22 H -0.1175(18) 0.4771(6) 1.059(7)
H23 H -0.1180(16) 0.5133(10) 1.097(8)
Cu1A Cu -0.04651(5) 0.81144(3) 1.02535(17)
O1A O -0.0726(2) 0.80484(16) 0.8614(6)
O2A O 0.0025(3) 0.82157(16) 1.1639(6)
N1A N -0.0503(3) 0.86548(19) 1.0157(10)
C1A C -0.0676(4) 0.8843(3) 0.9289(10)
H1A H -0.0676 0.9104 0.9383
C2A C -0.0870(4) 0.8705(3) 0.8191(9)
C3A C -0.0896(3) 0.8322(2) 0.7883(9)
C4A C -0.1057(4) 0.8231(3) 0.6698(9)
H2A H -0.1024 0.7983 0.643
C5A C -0.1252(3) 0.8484(2) 0.5963(9)
H3A H -0.1387 0.8411 0.5222
C6A C -0.1256(3) 0.8861(3) 0.6301(10)
H4A H -0.139 0.9043 0.5783
C7A C -0.1067(3) 0.8962(3) 0.7373(9)
H5A H -0.1067 0.9216 0.7579
C8A C -0.0295(4) 0.8841(3) 1.1269(9)
H6A H -0.0191 0.9098 1.109
H7A H -0.0554 0.8848 1.1896
C9A C 0.0137(3) 0.8623(2) 1.1666(9)
H8A H 0.0227 0.8697 1.2482
H9A H 0.0426 0.8676 1.1147
N2A N -0.0360(3) 0.75640(18) 1.0406(8)
N3A N -0.0053(3) 0.55728(17) 1.0921(9)
C10A C -0.0474(3) 0.7371(2) 1.1467(8)
H10A H -0.0622 0.7503 1.2102
C11A C -0.0377(3) 0.6989(2) 1.1611(9)
H11A H -0.0435 0.6874 1.2353
C12A C -0.0200(3) 0.6788(2) 1.0686(8)
C13A C -0.0074(4) 0.6956(3) 0.9616(10)
H12A H 0.0071 0.6823 0.8979
C14A C -0.0182(3) 0.7350(2) 0.9545(9)
H13A H -0.0118 0.7466 0.8808
C15A C -0.0130(3) 0.6358(2) 1.0812(10)
C16A C -0.0396(4) 0.6142(3) 1.1627(10)
H14A H -0.0611 0.6261 1.2175
C17A C -0.0357(3) 0.5763(2) 1.1661(9)
H15A H -0.0549 0.563 1.2223
C18A C 0.0202(3) 0.5778(3) 1.0070(10)
H16A H 0.0397 0.565 0.9498
C19A C 0.0181(3) 0.6175(3) 1.0022(10)
H17A H 0.0375 0.6309 0.9464
Cu2_2 Cu 0.00000 0.50000 0.0905(2)
N5_2 N 0.00000 0.50000 1.2702(10)
C20A C 0.0354(3) 0.4809(2) 0.8458(9)
H18A H 0.0607 0.4679 0.8873
C21A C 0.0349(4) 0.4802(3) 0.7184(9)
H19A H 0.0593 0.4657 0.6783
C24A C -0.0437(4) 0.4925(2) 0.4580(8)
H20A H -0.0739 0.4871 0.4984
C25A C -0.0418(4) 0.4930(2) 0.3308(9)
H21A H -0.0716 0.4882 0.288
N6A N -0.1363(5) 0.8214(3) 1.2223(13)
O3A O -0.1248(3) 0.8094(2) 1.1146(8)
O4A O -0.1103(4) 0.8122(3) 1.3010(12)
O5A O -0.1817(5) 0.8320(3) 1.2227(11)
O9A O 0.10004(19) 0.50509(18) 1.0818(7)
H22A H 0.1175(18) 0.5229(6) 1.059(7)
H23A H 0.1180(16) 0.4867(10) 1.097(8)
N7 N -0.1454(5) 0.4528(3) 0.7790(13)
O6 O -0.0997(4) 0.4483(2) 0.7559(10)
O7 O -0.1571(3) 0.4592(2) 0.8887(8)
O8 O -0.1780(4) 0.4468(3) 0.7027(10)
loop_
_geom_bond_atom_site_label_1
_geom_bond_atom_site_label_2
_geom_bond_site_symmetry_1
_geom_bond_site_symmetry_2
Cu1 O1 1_555 1_555
O1 C3 1_555 1_555
O2 Cu1 1_555 1_555
N1 Cu1 1_555 1_555
C1 N1 1_555 1_555
H1 C1 1_555 1_555
C2 C1 1_555 1_555
C3 C2 1_555 1_555
C4 C3 1_555 1_555
H2 C4 1_555 1_555
C5 C4 1_555 1_555
H3 C5 1_555 1_555
C6 C5 1_555 1_555
H4 C6 1_555 1_555
C7 C2 1_555 1_555
H5 C7 1_555 1_555
C8 N1 1_555 1_555
H6 C8 1_555 1_555
H7 C8 1_555 1_555
C9 O2 1_555 1_555
H8 C9 1_555 1_555
H9 C9 1_555 1_555
N2 Cu1 1_555 1_555
N3 C17 1_555 1_555
C10 N2 1_555 1_555
H10 C10 1_555 1_555
C11 C10 1_555 1_555
H11 C11 1_555 1_555
C12 C11 1_555 1_555
C13 C12 1_555 1_555
H12 C13 1_555 1_555
C14 N2 1_555 1_555
H13 C14 1_555 1_555
C15 C12 1_555 1_555
C16 C15 1_555 1_555
H14 C16 1_555 1_555
C17 C16 1_555 1_555
H15 C17 1_555 1_555
C18 N3 1_555 1_555
H16 C18 1_555 1_555
C19 C15 1_555 1_555
H17 C19 1_555 1_555
Cu2 N3 1_555 1_555
N4 Cu2 1_555 1_555
N5 C25 1_555 1_555
C20 N4 1_555 1_555
H18 C20 1_555 1_555
C21 C20 1_555 1_555
H19 C21 1_555 1_555
C22 C21 1_555 1_555
C23 C22 1_555 1_555
C24 C23 1_555 1_555
H20 C24 1_555 1_555
C25 C24 1_555 1_555
H21 C25 1_555 1_555
N6 O3 1_555 1_555
O3 Cu1 1_555 1_555
O4 N6 1_555 1_555
O5 N6 1_555 1_555
N7 O6 1_555 1_555
O7 N7 1_555 1_555
O8 N7 1_555 1_555
O9 Cu2 1_555 1_555
H22 O9 1_555 1_555
H23 O9 1_555 1_555
Cu1A O1A 1_555 1_555
O1A C3A 1_555 1_555
O2A Cu1A 1_555 1_555
N1A Cu1A 1_555 1_555
C1A N1A 1_555 1_555
H1A C1A 1_555 1_555
C2A C1A 1_555 1_555
C3A C2A 1_555 1_555
C4A C3A 1_555 1_555
H2A C4A 1_555 1_555
C5A C4A 1_555 1_555
H3A C5A 1_555 1_555
C6A C5A 1_555 1_555
H4A C6A 1_555 1_555
C7A C2A 1_555 1_555
H5A C7A 1_555 1_555
C8A N1A 1_555 1_555
H6A C8A 1_555 1_555
H7A C8A 1_555 1_555
C9A O2A 1_555 1_555
H8A C9A 1_555 1_555
H9A C9A 1_555 1_555
N2A Cu1A 1_555 1_555
N3A Cu2 1_555 1_555
C10A N2A 1_555 1_555
H10A C10A 1_555 1_555
C11A C10A 1_555 1_555
H11A C11A 1_555 1_555
C12A C11A 1_555 1_555
C13A C12A 1_555 1_555
H12A C13A 1_555 1_555
C14A N2A 1_555 1_555
H13A C14A 1_555 1_555
C15A C12A 1_555 1_555
C16A C15A 1_555 1_555
H14A C16A 1_555 1_555
C17A N3A 1_555 1_555
H15A C17A 1_555 1_555
C18A N3A 1_555 1_555
H16A C18A 1_555 1_555
C19A C15A 1_555 1_555
H17A C19A 1_555 1_555
Cu2_2 N5 1_555 1_555
N5_2 Cu2 1_555 1_555
C20A N4 1_555 1_555
H18A C20A 1_555 1_555
C21A C22 1_555 1_555
H19A C21A 1_555 1_555
C24A C23 1_555 1_555
H20A C24A 1_555 1_555
C25A N5 1_555 1_555
H21A C25A 1_555 1_555
N6A O3A 1_555 1_555
O3A Cu1A 1_555 1_555
O4A N6A 1_555 1_555
O5A N6A 1_555 1_555
O9A Cu2 1_555 1_555
H22A O9A 1_555 1_555
H23A O9A 1_555 1_555
C6 C7 1_555 1_555
C8 C9 1_555 1_555
C13 C14 1_555 1_555
C18 C19 1_555 1_555
C6A C7A 1_555 1_555
C8A C9A 1_555 1_555
C13A C14A 1_555 1_555
C16A C17A 1_555 1_555
C18A C19A 1_555 1_555
C20A C21A 1_555 1_555
C24A C25A 1_555 1_555

#END
