
#######################################################################
#
#                 Cambridge Crystallographic Data Centre
#                                CCDC 
#
#######################################################################
#
# If this CIF has been generated from an entry in the Cambridge 
# Structural Database, then it will include bibliographic, chemical, 
# crystal, experimental, refinement or atomic coordinate data resulting 
# from the CCDC's data processing and validation procedures.
#
#######################################################################

data_LAFDOL10
_symmetry_cell_setting           monoclinic
_symmetry_space_group_name_H-M   'P 21/c'
_symmetry_Int_Tables_number      14
_space_group_name_Hall           '-P 2ybc'
loop_
_symmetry_equiv_pos_site_id
_symmetry_equiv_pos_as_xyz
1 x,y,z
2 -x,1/2+y,1/2-z
3 -x,-y,-z
4 x,1/2-y,1/2+z
_cell_length_a                   11.528(1)
_cell_length_b                   11.209(1)
_cell_length_c                   16.512(2)
_cell_angle_alpha                90
_cell_angle_beta                 103.928(4)
_cell_angle_gamma                90
_cell_volume                     2070.91
loop_
_atom_site_label
_atom_site_type_symbol
_atom_site_fract_x
_atom_site_fract_y
_atom_site_fract_z
V1 V 0.32558(9) 0.21612(9) 0.88832(7)
Na1 Na 0.1883(2) 0.0697(2) 1.0455(2)
O1 O 0.2281(4) 0.1495(4) 0.9260(3)
O2 O 0.3001(4) 0.3826(4) 0.8847(3)
O3 O 0.1825(4) 0.2819(4) 0.6354(3)
O4 O 0.6308(4) 0.0135(5) 0.9186(3)
N1 N 0.2710(4) 0.2032(4) 0.7631(3)
N2 N 0.4482(5) 0.1035(4) 0.8650(3)
N3 N 0.4736(5) 0.2443(5) 0.9898(3)
C1 C 0.2026(6) 0.4290(6) 0.8334(4)
C2 C 0.1492(7) 0.5273(6) 0.8631(5)
C3 C 0.0469(7) 0.5773(7) 0.8147(6)
C4 C -0.0034(7) 0.5339(8) 0.7366(6)
C5 C 0.0498(7) 0.4410(8) 0.7063(5)
C6 C 0.1527(6) 0.3844(6) 0.7532(4)
C7 C 0.2049(5) 0.2850(6) 0.7127(4)
C8 C 0.3182(6) 0.1002(6) 0.7312(4)
C9 C 0.2718(6) 0.0487(6) 0.6529(4)
C10 C 0.3249(7) -0.0552(7) 0.6313(5)
C11 C 0.4203(7) -0.1061(7) 0.6854(5)
C12 C 0.4676(6) -0.0562(6) 0.7628(5)
C13 C 0.4152(6) 0.0465(6) 0.7861(4)
C14 C 0.5493(6) 0.0849(6) 0.9217(4)
C15 C 0.5622(6) 0.1647(6) 0.9951(4)
C16 C 0.6564(6) 0.1610(7) 1.0640(4)
C17 C 0.6613(6) 0.2416(8) 1.1276(5)
C18 C 0.5733(7) 0.3261(7) 1.1203(5)
C19 C 0.4790(7) 0.3249(7) 1.0507(5)
O3C O 0.1825(4) 0.2181(4) 1.1354(3)
O4B O 0.3692(4) -0.0135(5) 1.0814(3)
Na1C Na 0.1883(2) 0.4303(2) 0.5455(2)
Na1B Na 0.8117(2) -0.0697(2) 0.9545(2)
N4 N 0.9171(7) 0.1213(8) 0.9724(5)
C20 C 0.9405(8) 0.2046(9) 0.9468(6)
C21 C 0.9840(10) 0.3230(10) 0.9236(9)
loop_
_geom_bond_atom_site_label_1
_geom_bond_atom_site_label_2
_geom_bond_site_symmetry_1
_geom_bond_site_symmetry_2
V1 O1 1_555 1_555
Na1 O1 1_555 1_555
O2 V1 1_555 1_555
O3 C7 1_555 1_555
O4 C14 1_555 1_555
N1 V1 1_555 1_555
N2 V1 1_555 1_555
N3 V1 1_555 1_555
C1 O2 1_555 1_555
C2 C1 1_555 1_555
C3 C2 1_555 1_555
C4 C3 1_555 1_555
C5 C4 1_555 1_555
C6 C1 1_555 1_555
C7 N1 1_555 1_555
C8 N1 1_555 1_555
C9 C8 1_555 1_555
C10 C9 1_555 1_555
C11 C10 1_555 1_555
C12 C11 1_555 1_555
C13 N2 1_555 1_555
C14 N2 1_555 1_555
C15 N3 1_555 1_555
C16 C15 1_555 1_555
C17 C16 1_555 1_555
C18 C17 1_555 1_555
C19 N3 1_555 1_555
N4 C20 1_555 1_555
C20 C21 1_555 1_555
O3C Na1 1_555 1_555
O4B Na1 1_555 1_555
Na1C O3 1_555 1_555
Na1B O4 1_555 1_555
C5 C6 1_555 1_555
C6 C7 1_555 1_555
C8 C13 1_555 1_555
C12 C13 1_555 1_555
C14 C15 1_555 1_555
C18 C19 1_555 1_555

#END
