
#######################################################################
#
#                 Cambridge Crystallographic Data Centre
#                                CCDC 
#
#######################################################################
#
# If this CIF has been generated from an entry in the Cambridge 
# Structural Database, then it will include bibliographic, chemical, 
# crystal, experimental, refinement or atomic coordinate data resulting 
# from the CCDC's data processing and validation procedures.
#
#######################################################################

data_LAFJUY
_symmetry_cell_setting           orthorhombic
_symmetry_space_group_name_H-M   'P n m a'
_symmetry_Int_Tables_number      62
_space_group_name_Hall           '-P 2ac 2n'
loop_
_symmetry_equiv_pos_site_id
_symmetry_equiv_pos_as_xyz
1 x,y,z
2 1/2-x,1/2+y,1/2+z
3 x,1/2-y,z
4 1/2+x,y,1/2-z
5 -x,-y,-z
6 1/2+x,1/2-y,1/2-z
7 -x,1/2+y,-z
8 1/2-x,-y,1/2+z
_cell_length_a                   13.0061(5)
_cell_length_b                   12.3550(4)
_cell_length_c                   9.2235(4)
_cell_angle_alpha                90
_cell_angle_beta                 90
_cell_angle_gamma                90
_cell_volume                     1482.13
loop_
_atom_site_label
_atom_site_type_symbol
_atom_site_fract_x
_atom_site_fract_y
_atom_site_fract_z
Fe1 Fe 0.0000 0.5000 0.0000
N1 N 0.03440(9) 0.1539(1) -0.1142(1)
N2 N 0.14644(10) 0.5651(1) -0.0601(1)
N3 N 0.43417(9) 0.5655(1) -0.3081(1)
N4 N 0.32994(9) 0.6074(1) -0.0937(1)
C1 C 0.0211(2) 0.2500 -0.0519(2)
C2 C 0.0651(1) 0.3453(1) -0.2536(2)
C3 C 0.0812(2) 0.2500 -0.3284(2)
C4 C 0.2326(1) 0.5822(1) -0.0822(1)
C5 C 0.3810(1) 0.5824(1) -0.2104(2)
H1 H 0.010(2) 0.2500 0.050(3)
H2 H 0.078(1) 0.089(1) -0.299(2)
H3 H 0.105(2) 0.2500 -0.427(3)
Fe1B Fe 0.0000 0.0000 0.0000
N1B N 0.03440(9) 0.3461(1) -0.1142(1)
N1F N -0.03440(9) 0.6539(1) 0.1142(1)
Fe1C Fe 0.5000 0.5000 -0.5000
Fe1C_2 Fe -0.5000 0.5000 -0.5000
N2C N -0.35356(10) 0.5651(1) -0.4399(1)
C4C C -0.2674(1) 0.5822(1) -0.4178(1)
N4C N -0.17006(9) 0.6074(1) -0.4063(1)
C5C C -0.1190(1) 0.5824(1) -0.2896(2)
N3C N -0.06583(9) 0.5655(1) -0.1919(1)
N2D N -0.14644(10) 0.4349(1) 0.0601(1)
N3G N 0.06583(9) 0.4345(1) 0.1919(1)
C2B C 0.0651(1) 0.1547(1) -0.2536(2)
H2B H 0.078(1) 0.411(1) -0.299(2)
N5 N 0.8222(1) -0.8466(1) 0.6037(2)
C6 C 0.8166(2) -0.7500 0.6667(3)
C7 C 0.8369(2) -0.8451(2) 0.4600(2)
C8 C 0.8465(2) -0.7500 0.3829(3)
H4 H 0.797(2) -0.7500 0.780(3)
H5 H 0.835(2) -0.930(2) 0.410(3)
H6 H 0.850(2) -0.7500 0.280(4)
N5B N 0.8222(1) -0.6534(1) 0.6037(2)
C7B C 0.8369(2) -0.6549(2) 0.4600(2)
H5B H 0.835(2) -0.570(2) 0.410(3)
loop_
_geom_bond_atom_site_label_1
_geom_bond_atom_site_label_2
_geom_bond_site_symmetry_1
_geom_bond_site_symmetry_2
Fe1 N2 1_555 1_555
N1 C1 1_555 1_555
N2 C4 1_555 1_555
N3 C5 1_555 1_555
N4 C4 1_555 1_555
N5 C6 1_555 1_555
C1 H1 1_555 1_555
C2 C3 1_555 1_555
C3 H3 1_555 1_555
C5 N4 1_555 1_555
C6 H4 1_555 1_555
C7 N5 1_555 1_555
C8 C7 1_555 1_555
H2 C2B 1_555 1_555
H5 C7 1_555 1_555
H6 C8 1_555 1_555
Fe1B N1 1_555 1_555
N1B Fe1 1_555 1_555
N1F Fe1 1_555 1_555
Fe1C N3 1_555 1_555
Fe1C_2 N2C 1_555 1_555
N2C C4C 1_555 1_555
C4C N4C 1_555 1_555
N4C C5C 1_555 1_555
C5C N3C 1_555 1_555
N3C Fe1 1_555 1_555
N2D Fe1 1_555 1_555
N3G Fe1 1_555 1_555
C2B N1 1_555 1_555
H2B C2 1_555 1_555
N5B C6 1_555 1_555
C7B C8 1_555 1_555
H5B C7B 1_555 1_555
C1 N1B 1_555 1_555
C2 N1B 1_555 1_555
C3 C2B 1_555 1_555
N5B C7B 1_555 1_555

#END
