
#######################################################################
#
#                 Cambridge Crystallographic Data Centre
#                                CCDC 
#
#######################################################################
#
# If this CIF has been generated from an entry in the Cambridge 
# Structural Database, then it will include bibliographic, chemical, 
# crystal, experimental, refinement or atomic coordinate data resulting 
# from the CCDC's data processing and validation procedures.
#
#######################################################################

data_LAFMAG02
_symmetry_cell_setting           triclinic
_symmetry_space_group_name_H-M   'P -1'
_symmetry_Int_Tables_number      2
_space_group_name_Hall           '-P 1'
loop_
_symmetry_equiv_pos_site_id
_symmetry_equiv_pos_as_xyz
1 x,y,z
2 -x,-y,-z
_cell_length_a                   6.0280(8)
_cell_length_b                   10.0639(14)
_cell_length_c                   12.8561(17)
_cell_angle_alpha                105.788(2)
_cell_angle_beta                 102.5610(10)
_cell_angle_gamma                103.7220(10)
_cell_volume                     695.105
loop_
_atom_site_label
_atom_site_type_symbol
_atom_site_fract_x
_atom_site_fract_y
_atom_site_fract_z
Cd1 Cd -0.57179(6) -0.66076(4) 0.20927(3)
N1 N -0.4530(7) -0.3989(4) 0.2776(3)
N2 N -0.3407(8) -0.1799(4) 0.2284(4)
N3 N -0.5887(8) -0.1934(4) 0.3546(4)
N4 N -0.1671(8) -0.1745(5) 0.4202(3)
N5 N 0.1580(8) -0.6778(5) 0.3132(4)
N6 N -0.3079(9) -0.6644(5) 0.1033(4)
O1 O -0.7173(7) -0.9132(4) 0.1280(3)
H1 H -0.7113 -0.9407 0.0603
H2 H -0.8622 -0.9244 0.1269
S1 S -0.2587(2) -0.69416(16) 0.37956(12)
S2 S 0.0856(2) -0.66967(16) 0.02218(11)
C1 C -0.4066(10) -0.3396(5) 0.1879(4)
H5 H -0.2779 -0.3685 0.1641
H6 H -0.5489 -0.3801 0.1226
C2 C -0.6498(9) -0.3512(5) 0.3127(4)
H7 H -0.7940 -0.3918 0.2485
H8 H -0.6828 -0.3886 0.3717
C3 C -0.2343(9) -0.3320(5) 0.3782(4)
H9 H -0.2636 -0.3686 0.4381
H10 H -0.1027 -0.3607 0.3576
C4 C -0.5377(9) -0.1393(5) 0.2641(4)
H11 H -0.6806 -0.1783 0.1992
H12 H -0.4969 -0.0341 0.2907
C5 C -0.3658(10) -0.1331(6) 0.4509(4)
H13 H -0.3225 -0.0278 0.4786
H14 H -0.3944 -0.1671 0.5120
C6 C -0.1260(9) -0.1198(6) 0.3295(5)
H15 H 0.0069 -0.1455 0.3079
H16 H -0.0824 -0.0145 0.3572
C7 C -0.0167(9) -0.6842(5) 0.3396(4)
C8 C -0.1436(9) -0.6661(5) 0.0713(4)
Cd1_2 Cd 0.42821(6) -0.66076(4) 0.20927(3)
N5_2 N -0.8420(8) -0.6778(5) 0.3132(4)
S2_2 S -0.9144(2) -0.66967(16) 0.02218(11)
O2 O -1.2227(8) -0.9996(4) 0.1025(3)
H3 H -1.3093 -0.9940 0.1466
H4 H -1.1986 -1.0786 0.1052
loop_
_geom_bond_atom_site_label_1
_geom_bond_atom_site_label_2
_geom_bond_site_symmetry_1
_geom_bond_site_symmetry_2
Cd1 N1 1_555 1_555
N1 C1 1_555 1_555
N2 C1 1_555 1_555
N3 C2 1_555 1_555
N4 C3 1_555 1_555
N5 C7 1_555 1_555
N6 Cd1 1_555 1_555
O1 Cd1 1_555 1_555
H1 O1 1_555 1_555
H2 O1 1_555 1_555
O2 H3 1_555 1_555
H4 O2 1_555 1_555
S1 Cd1 1_555 1_555
S2 C8 1_555 1_555
C1 H5 1_555 1_555
H6 C1 1_555 1_555
C2 N1 1_555 1_555
H7 C2 1_555 1_555
H8 C2 1_555 1_555
C3 N1 1_555 1_555
H9 C3 1_555 1_555
H10 C3 1_555 1_555
C4 N2 1_555 1_555
H11 C4 1_555 1_555
H12 C4 1_555 1_555
C5 N3 1_555 1_555
H13 C5 1_555 1_555
H14 C5 1_555 1_555
C6 N2 1_555 1_555
H15 C6 1_555 1_555
H16 C6 1_555 1_555
C7 S1 1_555 1_555
C8 N6 1_555 1_555
Cd1_2 N5 1_555 1_555
N5_2 Cd1 1_555 1_555
S2_2 Cd1 1_555 1_555
N3 C4 1_555 1_555
N4 C5 1_555 1_555
N4 C6 1_555 1_555
S2 Cd1_2 1_555 1_555

#END
