
#######################################################################
#
#                 Cambridge Crystallographic Data Centre
#                                CCDC 
#
#######################################################################
#
# If this CIF has been generated from an entry in the Cambridge 
# Structural Database, then it will include bibliographic, chemical, 
# crystal, experimental, refinement or atomic coordinate data resulting 
# from the CCDC's data processing and validation procedures.
#
#######################################################################

data_LAFMUC
_symmetry_cell_setting           triclinic
_symmetry_space_group_name_H-M   'P -1'
_symmetry_Int_Tables_number      2
_space_group_name_Hall           '-P 1'
loop_
_symmetry_equiv_pos_site_id
_symmetry_equiv_pos_as_xyz
1 x,y,z
2 -x,-y,-z
_cell_length_a                   7.325(1)
_cell_length_b                   7.554(1)
_cell_length_c                   10.527(1)
_cell_angle_alpha                94.25(1)
_cell_angle_beta                 96.19(1)
_cell_angle_gamma                117.75(1)
_cell_volume                     507.35
loop_
_atom_site_label
_atom_site_type_symbol
_atom_site_fract_x
_atom_site_fract_y
_atom_site_fract_z
Ag1 Ag 0.6942(1) 0.4409(1) 0.4730(1)
O1 O 0.7510(8) 0.7098(9) 0.6627(5)
O2 O 0.4449(7) 0.5419(8) 0.7303(5)
O3 O 0.967(1) 0.376(1) 0.6008(6)
N1 N 0.5497(8) 0.1929(9) 0.6056(6)
N2 N 0.617(1) 0.052(1) 0.7874(6)
N3 N 1.029(1) 0.270(1) 0.7836(6)
F1 F 0.732(1) 0.500(1) 0.9164(6)
F2 F 0.945(1) 0.806(1) 0.9026(5)
F3 F 0.669(1) 0.732(1) 0.9693(5)
C1 C 0.638(1) 0.640(1) 0.7442(6)
C2 C 0.748(1) 0.668(1) 0.8816(7)
C3 C 0.673(1) 0.167(1) 0.6955(6)
C4 C 0.345(1) 0.088(1) 0.6086(8)
C5 C 0.409(1) -0.051(1) 0.7883(9)
C6 C 0.268(1) -0.037(1) 0.6999(9)
C7 C 0.908(1) 0.284(1) 0.6915(7)
H1 H 1.162 0.328 0.784
H2 H 0.977 0.203 0.845
H3 H 0.252 0.101 0.547
H4 H 0.361 -0.135 0.851
H5 H 0.125 -0.109 0.701
Ag1A Ag 0.3058(1) 0.5591(1) 0.5270(1)
Ag1A_2 Ag 1.3058(1) 0.5591(1) 0.5270(1)
O2A O 0.5551(7) 0.4581(8) 0.2697(5)
O3A O 1.033(1) 0.624(1) 0.3992(6)
loop_
_geom_bond_atom_site_label_1
_geom_bond_atom_site_label_2
_geom_bond_site_symmetry_1
_geom_bond_site_symmetry_2
Ag1 O1 1_555 1_555
O1 C1 1_555 1_555
O2 C1 1_555 1_555
O3 Ag1 1_555 1_555
N1 Ag1 1_555 1_555
N2 C3 1_555 1_555
N3 C7 1_555 1_555
F1 C2 1_555 1_555
F2 C2 1_555 1_555
F3 C2 1_555 1_555
C1 C2 1_555 1_555
C3 N1 1_555 1_555
C4 N1 1_555 1_555
C5 N2 1_555 1_555
C6 C4 1_555 1_555
C7 O3 1_555 1_555
H1 N3 1_555 1_555
H2 N3 1_555 1_555
H3 C4 1_555 1_555
H4 C5 1_555 1_555
H5 C6 1_555 1_555
Ag1A O2 1_555 1_555
Ag1A_2 O3 1_555 1_555
O2A Ag1 1_555 1_555
O3A Ag1 1_555 1_555
C3 C7 1_555 1_555
C5 C6 1_555 1_555
Ag1A_2 O3A 1_555 1_555

#END
