
#######################################################################
#
#                 Cambridge Crystallographic Data Centre
#                                CCDC 
#
#######################################################################
#
# If this CIF has been generated from an entry in the Cambridge 
# Structural Database, then it will include bibliographic, chemical, 
# crystal, experimental, refinement or atomic coordinate data resulting 
# from the CCDC's data processing and validation procedures.
#
#######################################################################

data_LAFRUG
_symmetry_cell_setting           monoclinic
_symmetry_space_group_name_H-M   'P 21/a'
_symmetry_Int_Tables_number      14
_space_group_name_Hall           '-P 2yab'
loop_
_symmetry_equiv_pos_site_id
_symmetry_equiv_pos_as_xyz
1 x,y,z
2 1/2+x,1/2-y,z
3 -x,-y,-z
4 1/2-x,1/2+y,-z
_cell_length_a                   7.277(2)
_cell_length_b                   15.929(3)
_cell_length_c                   8.263(2)
_cell_angle_alpha                90
_cell_angle_beta                 106.06(3)
_cell_angle_gamma                90
_cell_volume                     920.428
loop_
_atom_site_label
_atom_site_type_symbol
_atom_site_fract_x
_atom_site_fract_y
_atom_site_fract_z
Cu1 Cu 0.70534(6) 0.07377(3) 0.79413(5)
C1 C 0.5879(4) -0.0049(2) 0.4656(4)
O1 O 0.7461(3) 0.0170(1) 0.5536(3)
O2 O 0.5557(3) -0.0348(1) 0.3167(3)
C2 C 0.9414(4) -0.0405(2) 0.9975(4)
O3 O 0.7698(3) -0.0375(2) 0.9133(3)
O4 O 1.0268(3) -0.1018(1) 1.0776(3)
O5 O 0.5718(4) 0.1202(2) 1.0140(3)
H1 H 0.6557 0.1388 1.1016
H2 H 0.5005 0.1002 1.0600
N1 N 0.3647(4) 0.3061(2) 0.2734(4)
C3 C 0.3597(5) 0.2214(2) 0.2874(4)
H3 H 0.2829 0.1925 0.1956
N2 N 0.4527(4) 0.1754(2) 0.4182(3)
C4 C 0.5607(4) 0.2201(2) 0.5452(4)
C5 C 0.5780(4) 0.3074(2) 0.5403(4)
C6 C 0.4751(5) 0.3496(2) 0.4003(4)
H4 H 0.4825 0.4077 0.3941
N3 N 0.7060(4) 0.3289(2) 0.6922(4)
H5 H 0.7455 0.3787 0.7245
C7 C 0.7565(5) 0.2584(2) 0.7790(4)
H6 H 0.8422 0.2569 0.8859
N4 N 0.6728(4) 0.1906(2) 0.6985(3)
C1B C 0.4121(4) 0.0049(2) 0.5344(4)
O1B O 0.2539(3) -0.0170(1) 0.4464(3)
O2B O 0.4443(3) 0.0348(1) 0.6833(3)
C2B C 1.0586(4) 0.0405(2) 1.0025(4)
O3B O 1.2302(3) 0.0375(2) 1.0867(3)
O4B O 0.9732(3) 0.1018(1) 0.9224(3)
Cu1B Cu 0.29466(6) -0.07377(3) 0.20587(5)
O5B O 0.4282(4) -0.1202(2) -0.0140(3)
H1B H 0.3443 -0.1388 -0.1016
H2B H 0.4995 -0.1002 -0.0600
N1B N 0.6353(4) -0.3061(2) 0.7266(4)
C3B C 0.6403(5) -0.2214(2) 0.7126(4)
H3B H 0.7171 -0.1925 0.8044
N2B N 0.5473(4) -0.1754(2) 0.5818(3)
C4B C 0.4393(4) -0.2201(2) 0.4548(4)
C5B C 0.4220(4) -0.3074(2) 0.4597(4)
C6B C 0.5249(5) -0.3496(2) 0.5997(4)
H4B H 0.5175 -0.4077 0.6059
N3B N 0.2940(4) -0.3289(2) 0.3078(4)
H5B H 0.2545 -0.3787 0.2755
C7B C 0.2435(5) -0.2584(2) 0.2210(4)
H6B H 0.1578 -0.2569 0.1141
N4B N 0.3272(4) -0.1906(2) 0.3015(3)
Cu1B_2 Cu 1.29466(6) -0.07377(3) 1.20587(5)
O3B_2 O 0.2302(3) 0.0375(2) 0.0867(3)
O4_2 O 0.0268(3) -0.1018(1) 0.0776(3)
loop_
_geom_bond_atom_site_label_1
_geom_bond_atom_site_label_2
_geom_bond_site_symmetry_1
_geom_bond_site_symmetry_2
Cu1 O1 1_555 1_555
C1 O1 1_555 1_555
O2 C1 1_555 1_555
C2 O3 1_555 1_555
O3 Cu1 1_555 1_555
O4 C2 1_555 1_555
O5 Cu1 1_555 1_555
H1 O5 1_555 1_555
H2 O5 1_555 1_555
N1 C3 1_555 1_555
C3 H3 1_555 1_555
N2 C3 1_555 1_555
C4 N2 1_555 1_555
C5 C4 1_555 1_555
C6 N1 1_555 1_555
H4 C6 1_555 1_555
N3 C5 1_555 1_555
H5 N3 1_555 1_555
C7 N3 1_555 1_555
H6 C7 1_555 1_555
N4 Cu1 1_555 1_555
C1B C1 1_555 1_555
O1B C1B 1_555 1_555
O2B Cu1 1_555 1_555
C2B C2 1_555 1_555
O3B C2B 1_555 1_555
O4B Cu1 1_555 1_555
Cu1B O2 1_555 1_555
O5B Cu1B 1_555 1_555
H1B O5B 1_555 1_555
H2B O5B 1_555 1_555
N1B C3B 1_555 1_555
C3B H3B 1_555 1_555
N2B C3B 1_555 1_555
C4B N2B 1_555 1_555
C5B C4B 1_555 1_555
C6B N1B 1_555 1_555
H4B C6B 1_555 1_555
N3B C5B 1_555 1_555
H5B N3B 1_555 1_555
C7B N3B 1_555 1_555
H6B C7B 1_555 1_555
N4B Cu1B 1_555 1_555
Cu1B_2 O4 1_555 1_555
O3B_2 Cu1B 1_555 1_555
O4_2 Cu1B 1_555 1_555
C4 N4 1_555 1_555
C5 C6 1_555 1_555
C7 N4 1_555 1_555
C1B O2B 1_555 1_555
O1B Cu1B 1_555 1_555
C2B O4B 1_555 1_555
O3B Cu1B_2 1_555 1_555
C4B N4B 1_555 1_555
C5B C6B 1_555 1_555
C7B N4B 1_555 1_555

#END
