
#######################################################################
#
#                 Cambridge Crystallographic Data Centre
#                                CCDC 
#
#######################################################################
#
# If this CIF has been generated from an entry in the Cambridge 
# Structural Database, then it will include bibliographic, chemical, 
# crystal, experimental, refinement or atomic coordinate data resulting 
# from the CCDC's data processing and validation procedures.
#
#######################################################################

data_LAFSER
_symmetry_cell_setting           monoclinic
_symmetry_space_group_name_H-M   'P 21/a'
_symmetry_Int_Tables_number      14
_space_group_name_Hall           '-P 2yab'
loop_
_symmetry_equiv_pos_site_id
_symmetry_equiv_pos_as_xyz
1 x,y,z
2 1/2-x,1/2+y,-z
3 -x,-y,-z
4 1/2+x,1/2-y,z
_cell_length_a                   6.988(1)
_cell_length_b                   16.143(2)
_cell_length_c                   8.334(1)
_cell_angle_alpha                90
_cell_angle_beta                 106.10(1)
_cell_angle_gamma                90
_cell_volume                     903.263
loop_
_atom_site_label
_atom_site_type_symbol
_atom_site_fract_x
_atom_site_fract_y
_atom_site_fract_z
Zn1 Zn 0.67559(5) 0.07746(2) 0.79205(4)
C1 C 0.6014(4) -0.00094(16) 0.4783(3)
O1 O 0.7508(3) 0.02559(12) 0.5855(2)
O2 O 0.5994(3) -0.02922(11) 0.3365(2)
C2 C 0.9367(4) -0.03947(17) 1.0016(3)
O3 O 0.7545(3) -0.03469(12) 0.9321(3)
O4 O 1.0286(3) -0.10135(12) 1.0754(2)
O5 O 0.5512(3) 0.12245(12) 0.9800(2)
H1 H 0.6462 0.1421 1.0658
H2 H 0.4754 0.0932 1.0211
N1 N 0.3215(4) 0.29972(16) 0.2428(3)
C3 C 0.3278(4) 0.21728(19) 0.2621(4)
H3 H 0.2611 0.1856 0.1713
N2 N 0.4253(4) 0.17421(15) 0.3968(3)
C4 C 0.5273(4) 0.22190(17) 0.5231(3)
C5 C 0.5345(4) 0.30807(18) 0.5134(4)
C6 C 0.4267(5) 0.34688(19) 0.3683(4)
H4 H 0.4073 0.4049 0.3409
N3 N 0.6545(4) 0.33352(14) 0.6635(3)
H5 H 0.6757 0.3839 0.7044
C7 C 0.7122(4) 0.26569(19) 0.7565(4)
H6 H 0.8006 0.2631 0.8633
N4 N 0.6387(4) 0.19602(14) 0.6789(3)
C1B C 0.3986(4) 0.00094(16) 0.5217(3)
O1B O 0.2492(3) -0.02559(12) 0.4145(2)
O2B O 0.4006(3) 0.02922(11) 0.6635(2)
C2B C 1.0633(4) 0.03947(17) 0.9984(3)
O3B O 1.2455(3) 0.03469(12) 1.0679(3)
O4B O 0.9714(3) 0.10135(12) 0.9246(2)
Zn1B Zn 0.32441(5) -0.07746(2) 0.20795(4)
O5B O 0.4488(3) -0.12245(12) 0.0200(2)
H1B H 0.3538 -0.1421 -0.0658
H2B H 0.5246 -0.0932 -0.0211
N1B N 0.6785(4) -0.29972(16) 0.7572(3)
C3B C 0.6722(4) -0.21728(19) 0.7379(4)
H3B H 0.7389 -0.1856 0.8287
N2B N 0.5747(4) -0.17421(15) 0.6032(3)
C4B C 0.4727(4) -0.22190(17) 0.4769(3)
C5B C 0.4655(4) -0.30807(18) 0.4866(4)
C6B C 0.5733(5) -0.34688(19) 0.6317(4)
H4B H 0.5927 -0.4049 0.6591
N3B N 0.3455(4) -0.33352(14) 0.3365(3)
H5B H 0.3243 -0.3839 0.2956
C7B C 0.2878(4) -0.26569(19) 0.2435(4)
H6B H 0.1994 -0.2631 0.1367
N4B N 0.3613(4) -0.19602(14) 0.3211(3)
Zn1B_2 Zn 1.32441(5) -0.07746(2) 1.20795(4)
O3B_2 O 0.2455(3) 0.03469(12) 0.0679(3)
O4_2 O 0.0286(3) -0.10135(12) 0.0754(2)
loop_
_geom_bond_atom_site_label_1
_geom_bond_atom_site_label_2
_geom_bond_site_symmetry_1
_geom_bond_site_symmetry_2
Zn1 O1 1_555 1_555
C1 O1 1_555 1_555
O2 C1 1_555 1_555
C2 O3 1_555 1_555
O3 Zn1 1_555 1_555
O4 C2 1_555 1_555
O5 Zn1 1_555 1_555
H1 O5 1_555 1_555
H2 O5 1_555 1_555
N1 C3 1_555 1_555
C3 H3 1_555 1_555
N2 C3 1_555 1_555
C4 N2 1_555 1_555
C5 C4 1_555 1_555
C6 N1 1_555 1_555
H4 C6 1_555 1_555
N3 C5 1_555 1_555
H5 N3 1_555 1_555
C7 N3 1_555 1_555
H6 C7 1_555 1_555
N4 Zn1 1_555 1_555
C1B C1 1_555 1_555
O1B C1B 1_555 1_555
O2B Zn1 1_555 1_555
C2B C2 1_555 1_555
O3B C2B 1_555 1_555
O4B Zn1 1_555 1_555
Zn1B O2 1_555 1_555
O5B Zn1B 1_555 1_555
H1B O5B 1_555 1_555
H2B O5B 1_555 1_555
N1B C3B 1_555 1_555
C3B H3B 1_555 1_555
N2B C3B 1_555 1_555
C4B N2B 1_555 1_555
C5B C4B 1_555 1_555
C6B N1B 1_555 1_555
H4B C6B 1_555 1_555
N3B C5B 1_555 1_555
H5B N3B 1_555 1_555
C7B N3B 1_555 1_555
H6B C7B 1_555 1_555
N4B Zn1B 1_555 1_555
Zn1B_2 O4 1_555 1_555
O3B_2 Zn1B 1_555 1_555
O4_2 Zn1B 1_555 1_555
C4 N4 1_555 1_555
C5 C6 1_555 1_555
C7 N4 1_555 1_555
C1B O2B 1_555 1_555
O1B Zn1B 1_555 1_555
C2B O4B 1_555 1_555
O3B Zn1B_2 1_555 1_555
C4B N4B 1_555 1_555
C5B C6B 1_555 1_555
C7B N4B 1_555 1_555

#END
