
#######################################################################
#
#                 Cambridge Crystallographic Data Centre
#                                CCDC 
#
#######################################################################
#
# If this CIF has been generated from an entry in the Cambridge 
# Structural Database, then it will include bibliographic, chemical, 
# crystal, experimental, refinement or atomic coordinate data resulting 
# from the CCDC's data processing and validation procedures.
#
#######################################################################

data_LAFSAM01
_symmetry_cell_setting           triclinic
_symmetry_space_group_name_H-M   'P -1'
_symmetry_Int_Tables_number      2
_space_group_name_Hall           '-P 1'
loop_
_symmetry_equiv_pos_site_id
_symmetry_equiv_pos_as_xyz
1 x,y,z
2 -x,-y,-z
_cell_length_a                   8.417(2)
_cell_length_b                   8.516(2)
_cell_length_c                   13.756(3)
_cell_angle_alpha                82.07(3)
_cell_angle_beta                 73.89(3)
_cell_angle_gamma                79.67(3)
_cell_volume                     927.877
loop_
_atom_site_label
_atom_site_type_symbol
_atom_site_fract_x
_atom_site_fract_y
_atom_site_fract_z
Sn1 Sn -0.4523(1) -0.1342(1) 0.2305(1)
Sn2 Sn -0.7824(1) -0.4328(1) 0.2759(1)
S1 S 0.0420(2) 0.1716(2) 0.3335(1)
S2 S -0.0994(2) 0.0963(2) 0.1905(1)
O1 O 0.0799(5) 0.3199(4) 0.2748(3)
O2 O 0.1664(5) 0.0924(6) 0.3834(4)
O3 O -0.2413(5) 0.2183(6) 0.2261(4)
O4 O -0.1438(5) -0.0486(5) 0.1695(4)
O5 O -0.6880(4) -0.2153(4) 0.2670(4)
N1 N 0.0168(6) 0.0457(5) 0.2676(4)
C1 C -0.1444(7) 0.2140(8) 0.4254(5)
C2 C 0.0203(9) 0.1811(10) 0.0788(6)
C3 C -0.3140(7) -0.3406(8) 0.1582(6)
C4 C -0.5134(8) 0.0700(8) 0.1351(5)
C5 C -0.4461(7) -0.1086(9) 0.3798(5)
C6 C -1.0260(6) -0.3516(7) 0.3609(5)
C7 C -0.6207(7) -0.5778(7) 0.3565(5)
C8 C -0.7326(10) -0.4411(10) 0.1179(5)
H1 H -0.7613 -0.1489 0.3024
H2 H -0.1338 0.2909 0.4673
H3 H -0.2315 0.2572 0.3923
H4 H -0.1719 0.1174 0.4670
H5 H -0.0455 0.2126 0.0304
H6 H 0.0575 0.2736 0.0929
H7 H 0.1155 0.1047 0.0512
H8 H -0.2931 -0.4253 0.2089
H9 H -0.3778 -0.3744 0.1190
H10 H -0.2095 -0.3154 0.1143
H11 H -0.5744 0.1548 0.1760
H12 H -0.4131 0.1037 0.0906
H13 H -0.5813 0.0447 0.0953
H14 H -0.5137 -0.0095 0.4006
H15 H -0.4893 -0.1962 0.4251
H16 H -0.3331 -0.1072 0.3815
H17 H -1.0885 -0.2873 0.3171
H18 H -1.0804 -0.4426 0.3925
H19 H -1.0203 -0.2888 0.4124
H20 H -0.5138 -0.6070 0.3103
H21 H -0.6073 -0.5192 0.4078
H22 H -0.6674 -0.6729 0.3879
H23 H -0.8166 -0.3690 0.0925
H24 H -0.6246 -0.4110 0.0847
H25 H -0.7343 -0.5485 0.1046
O1_2 O -0.9201(5) -0.6801(4) 0.2748(3)
Sn2_2 Sn 0.2176(1) 0.5672(1) 0.2759(1)
loop_
_geom_bond_atom_site_label_1
_geom_bond_atom_site_label_2
_geom_bond_site_symmetry_1
_geom_bond_site_symmetry_2
Sn1 O4 1_555 1_555
Sn2 O5 1_555 1_555
S1 O1 1_555 1_555
S2 O3 1_555 1_555
O1 Sn2_2 1_555 1_555
O2 S1 1_555 1_555
O4 S2 1_555 1_555
O5 Sn1 1_555 1_555
N1 S1 1_555 1_555
C1 S1 1_555 1_555
C2 S2 1_555 1_555
C3 Sn1 1_555 1_555
C4 Sn1 1_555 1_555
C5 Sn1 1_555 1_555
C6 Sn2 1_555 1_555
C7 Sn2 1_555 1_555
C8 Sn2 1_555 1_555
H1 O5 1_555 1_555
H2 C1 1_555 1_555
H3 C1 1_555 1_555
H4 C1 1_555 1_555
H5 C2 1_555 1_555
H6 C2 1_555 1_555
H7 C2 1_555 1_555
H8 C3 1_555 1_555
H9 C3 1_555 1_555
H10 C3 1_555 1_555
H11 C4 1_555 1_555
H12 C4 1_555 1_555
H13 C4 1_555 1_555
H14 C5 1_555 1_555
H15 C5 1_555 1_555
H16 C5 1_555 1_555
H17 C6 1_555 1_555
H18 C6 1_555 1_555
H19 C6 1_555 1_555
H20 C7 1_555 1_555
H21 C7 1_555 1_555
H22 C7 1_555 1_555
H23 C8 1_555 1_555
H24 C8 1_555 1_555
H25 C8 1_555 1_555
O1_2 Sn2 1_555 1_555
S2 N1 1_555 1_555

#END
