
#######################################################################
#
#                 Cambridge Crystallographic Data Centre
#                                CCDC 
#
#######################################################################
#
# If this CIF has been generated from an entry in the Cambridge 
# Structural Database, then it will include bibliographic, chemical, 
# crystal, experimental, refinement or atomic coordinate data resulting 
# from the CCDC's data processing and validation procedures.
#
#######################################################################

data_LAFVUK
_symmetry_cell_setting           orthorhombic
_symmetry_space_group_name_H-M   'P n a 21'
_symmetry_Int_Tables_number      33
_space_group_name_Hall           'P 2c -2n'
loop_
_symmetry_equiv_pos_site_id
_symmetry_equiv_pos_as_xyz
1 x,y,z
2 -x,-y,1/2+z
3 1/2+x,1/2-y,z
4 1/2-x,1/2+y,1/2+z
_cell_length_a                   9.927(4)
_cell_length_b                   16.194(6)
_cell_length_c                   4.5801(17)
_cell_angle_alpha                90
_cell_angle_beta                 90
_cell_angle_gamma                90
_cell_volume                     736.287
loop_
_atom_site_label
_atom_site_type_symbol
_atom_site_fract_x
_atom_site_fract_y
_atom_site_fract_z
Yb1 Yb 0.85724(4) 0.52121(3) 0.2831
O1 O 0.5430(12) 0.3552(6) 0.030(3)
O2 O 0.7090(13) 0.4469(7) 0.023(2)
O3 O 0.7715(13) 0.1303(7) 0.627(2)
O4 O 1.0008(9) 0.3642(5) 0.811(3)
O5 O 0.6633(14) 0.5247(8) 0.544(3)
H1 H 0.622(8) 0.4804(11) 0.59(3)
H2 H 0.630(8) 0.5705(12) 0.60(3)
O6 O 1.0693(9) 0.4650(5) 0.270(4)
N1 N 0.8816(12) 0.2509(8) 0.706(2)
N2 N 0.8325(12) 0.3748(8) 0.455(2)
C1 C 0.6541(16) 0.3815(11) 0.108(3)
C2 C 0.7301(14) 0.3321(9) 0.330(3)
C3 C 0.7032(14) 0.2517(9) 0.377(3)
H3 H 0.6320 0.2269 0.2782
C4 C 0.7797(17) 0.2057(10) 0.568(3)
C5 C 0.9065(14) 0.3322(9) 0.653(3)
O3C O 0.7285(13) 0.6303(7) 0.127(2)
O4A O 0.9992(9) 0.6358(5) 0.311(3)
O6A O 0.9307(9) 0.5350(5) -0.230(4)
O6A_2 O 0.9307(9) 0.5350(5) 0.770(4)
Yb1C Yb 0.64276(4) 0.02121(3) 0.7831
Yb1A Yb 1.14276(4) 0.47879(3) 0.7831
Yb1A_2 Yb 1.14276(4) 0.47879(3) -0.2169
loop_
_geom_bond_atom_site_label_1
_geom_bond_atom_site_label_2
_geom_bond_site_symmetry_1
_geom_bond_site_symmetry_2
Yb1 O2 1_555 1_555
O1 C1 1_555 1_555
O2 C1 1_555 1_555
O3 C4 1_555 1_555
O4 C5 1_555 1_555
O5 Yb1 1_555 1_555
H1 O5 1_555 1_555
H2 O5 1_555 1_555
O6 Yb1 1_555 1_555
N1 C4 1_555 1_555
N2 Yb1 1_555 1_555
C1 C2 1_555 1_555
C2 N2 1_555 1_555
C3 C2 1_555 1_555
H3 C3 1_555 1_555
C4 C3 1_555 1_555
C5 N1 1_555 1_555
O3C Yb1 1_555 1_555
O4A Yb1 1_555 1_555
O6A Yb1 1_555 1_555
O6A_2 Yb1 1_555 1_555
Yb1C O3 1_555 1_555
Yb1A O4 1_555 1_555
Yb1A_2 O6 1_555 1_555
O6 Yb1A 1_555 1_555
N2 C5 1_555 1_555
O6A Yb1A_2 1_555 1_555
O6A_2 Yb1A 1_555 1_555

#END
