
#######################################################################
#
#                 Cambridge Crystallographic Data Centre
#                                CCDC 
#
#######################################################################
#
# If this CIF has been generated from an entry in the Cambridge 
# Structural Database, then it will include bibliographic, chemical, 
# crystal, experimental, refinement or atomic coordinate data resulting 
# from the CCDC's data processing and validation procedures.
#
#######################################################################

data_LAGCON
_symmetry_cell_setting           trigonal
_symmetry_space_group_name_H-M   'P -3'
_symmetry_Int_Tables_number      147
_space_group_name_Hall           '-P 3'
loop_
_symmetry_equiv_pos_site_id
_symmetry_equiv_pos_as_xyz
1 x,y,z
2 -y,x-y,z
3 -x+y,-x,z
4 -x,-y,-z
5 y,-x+y,-z
6 x-y,x,-z
_cell_length_a                   15.4582(12)
_cell_length_b                   15.4582(12)
_cell_length_c                   16.5235(18)
_cell_angle_alpha                90
_cell_angle_beta                 90
_cell_angle_gamma                120
_cell_volume                     3419.4
loop_
_atom_site_label
_atom_site_type_symbol
_atom_site_fract_x
_atom_site_fract_y
_atom_site_fract_z
F1 F 0.3375(6) 0.4470(6) -0.2526(5)
F2 F 0.3994(6) 0.6252(4) -0.2583(4)
F3 F 0.2857(6) 0.5212(6) -0.1513(4)
F4 F 0.2788(6) 0.5134(6) -0.3571(4)
F5 F 0.1677(6) 0.4112(6) -0.2515(5)
P1 P 0.2759(3) 0.5115(3) -0.2521(3)
F1A F 0.5530(6) 0.8905(8) -0.2526(5)
F1B F 0.1095(8) 0.6625(6) -0.2526(5)
F2A F 0.3748(4) 0.7742(7) -0.2583(4)
F2B F 0.2258(7) 0.6006(6) -0.2583(4)
F3B F 0.2355(8) 0.7143(6) -0.1513(4)
F3A F 0.4788(6) 0.7645(8) -0.1513(4)
F4B F 0.2346(8) 0.7212(6) -0.3571(4)
F4A F 0.4866(6) 0.7654(8) -0.3571(4)
F5B F 0.2435(8) 0.8323(6) -0.2515(5)
F5A F 0.5888(6) 0.7565(8) -0.2515(5)
P1A P 0.4885(3) 0.7644(4) -0.2521(3)
P1B P 0.2356(4) 0.7241(3) -0.2521(3)
C1 C 0.6025(3) 0.4617(3) -0.2391(2)
C2 C 0.5247(3) 0.4371(3) -0.2951(2)
H1 H 0.4732 0.4489 -0.2810
C3 C 0.5219(3) 0.3944(3) -0.3732(2)
C4 C 0.4481(3) 0.3871(3) -0.4355(2)
C5 C 0.4550(4) 0.3554(4) -0.5113(3)
H2 H 0.5051 0.3404 -0.5224
C6 C 0.3738(5) 0.4097(7) -0.4214(3)
H3 H 0.3683 0.4319 -0.3704
C7 C 0.3880(4) 0.3453(4) -0.5725(3)
H4 H 0.3928 0.3230 -0.6236
C8 C 0.3075(5) 0.4003(6) -0.4810(3)
H5 H 0.2575 0.4155 -0.4704
C9 C 0.3163(4) 0.3683(3) -0.5564(3)
C10 C 0.2475(4) 0.3587(3) -0.6187(3)
C11 C 0.6041(3) 0.5168(3) -0.1647(2)
C12 C 0.6492(3) 0.5060(3) -0.0959(2)
H6 H 0.6785 0.4660 -0.0978
C13 C 0.5640(5) 0.5791(4) -0.1621(3)
H7 H 0.5343 0.5874 -0.2081
C14 C 0.6515(4) 0.5539(4) -0.0242(3)
H8 H 0.6795 0.5445 0.0224
C15 C 0.5677(5) 0.6295(4) -0.0914(3)
H9 H 0.5412 0.6719 -0.0899
C16 C 0.6109(4) 0.6158(4) -0.0240(3)
C17 C 0.6132(4) 0.6669(4) 0.0503(3)
N1 N 0.6126(4) 0.7057(3) 0.1079(2)
N2 N 0.1941(3) 0.3502(3) -0.6706(2)
O1 O 0.6725(2) 0.44236(19) -0.24588(14)
O2 O 0.5803(2) 0.3649(2) -0.39588(14)
Zn1 Zn 0.6667 0.3333 -0.32174(4)
Ag1 Ag 0.40088(3) 0.27331(3) -0.23721(2)
C1B C 0.8592(4) 0.3975(3) -0.2391(2)
C1A C 0.5383(3) 0.1408(4) -0.2391(2)
C2B C 0.9124(4) 0.4753(3) -0.2951(2)
C2A C 0.5629(3) 0.0876(4) -0.2951(2)
H1B H 0.9757 0.5268 -0.2810
H1A H 0.5511 0.0243 -0.2810
C3B C 0.8725(4) 0.4781(3) -0.3732(2)
C3A C 0.6056(3) 0.1275(4) -0.3732(2)
C4B C 0.9390(4) 0.5519(3) -0.4355(2)
C4A C 0.6129(3) 0.0610(4) -0.4355(2)
C5B C 0.9004(6) 0.5450(4) -0.5113(3)
C5A C 0.6446(4) 0.0996(6) -0.5113(3)
H2B H 0.8353 0.4949 -0.5224
H2A H 0.6596 0.1647 -0.5224
C6B C 1.0359(9) 0.6262(5) -0.4214(3)
C6A C 0.5903(7) -0.0359(9) -0.4214(3)
H3B H 1.0636 0.6317 -0.3704
H3A H 0.5681 -0.0636 -0.3704
C7B C 0.9573(6) 0.6120(4) -0.5725(3)
C7A C 0.6547(4) 0.0427(6) -0.5725(3)
H4B H 0.9302 0.6072 -0.6236
H4A H 0.6770 0.0698 -0.6236
C8B C 1.0928(8) 0.6925(5) -0.4810(3)
C8A C 0.5997(6) -0.0928(8) -0.4810(3)
H5B H 1.1580 0.7425 -0.4704
H5A H 0.5845 -0.1580 -0.4704
C9B C 1.0520(5) 0.6837(4) -0.5564(3)
C9A C 0.6317(3) -0.0520(5) -0.5564(3)
C10B C 1.1112(5) 0.7525(4) -0.6187(3)
C10A C 0.6413(3) -0.1112(5) -0.6187(3)
C11B C 0.9127(4) 0.3959(3) -0.1647(2)
C11A C 0.4832(3) 0.0873(4) -0.1647(2)
C12B C 0.8568(4) 0.3508(3) -0.0959(2)
C12A C 0.4940(3) 0.1432(4) -0.0959(2)
H6B H 0.7875 0.3215 -0.0978
H6A H 0.5340 0.2125 -0.0978
C13B C 1.0151(6) 0.4360(5) -0.1621(3)
C13A C 0.4209(4) -0.0151(6) -0.1621(3)
H7B H 1.0531 0.4657 -0.2081
H7A H 0.4126 -0.0531 -0.2081
C14B C 0.9024(6) 0.3485(4) -0.0242(3)
C14A C 0.4461(4) 0.0976(6) -0.0242(3)
H8B H 0.8650 0.3205 0.0224
H8A H 0.4555 0.1350 0.0224
C15B C 1.0618(6) 0.4323(5) -0.0914(3)
C15A C 0.3705(4) -0.0618(6) -0.0914(3)
H9B H 1.1307 0.4588 -0.0899
H9A H 0.3281 -0.1307 -0.0899
C16B C 1.0049(6) 0.3891(4) -0.0240(3)
C16A C 0.3842(4) -0.0049(6) -0.0240(3)
C17B C 1.0537(6) 0.3868(4) 0.0503(3)
C17A C 0.3331(4) -0.0537(6) 0.0503(3)
N1B N 1.0931(5) 0.3874(4) 0.1079(2)
N1A N 0.2943(3) -0.0931(5) 0.1079(2)
N1C N 0.3874(4) 0.2943(3) -0.1079(2)
N1E N 0.9069(5) 0.6126(4) -0.1079(2)
N1D N 0.7057(3) 0.0931(5) -0.1079(2)
N2B N 1.1561(4) 0.8059(3) -0.6706(2)
N2A N 0.6498(3) -0.1561(4) -0.6706(2)
N2D N 0.3502(3) 0.1561(4) -0.3294(2)
N2C N 0.8059(3) 0.6498(3) -0.3294(2)
N2E N 0.8439(4) 0.1941(3) -0.3294(2)
O1B O 0.76986(28) 0.3275(2) -0.24588(14)
O1A O 0.55764(19) 0.23014(28) -0.24588(14)
O2B O 0.7846(3) 0.4197(2) -0.39588(14)
O2A O 0.6351(2) 0.2154(3) -0.39588(14)
Ag1B Ag 0.87243(4) 0.59912(3) -0.23721(2)
Ag1A Ag 0.72669(3) 0.12757(4) -0.23721(2)
Ag1C Ag 0.59912(3) 0.72669(3) 0.23721(2)
Ag1E Ag 0.12757(4) 0.40088(3) -0.76279(2)
Ag1E_2 Ag 1.12757(4) 0.40088(3) 0.23721(2)
Ag1D Ag 1.27331(3) 0.87243(4) -0.76279(2)
Ag1D_2 Ag 0.27331(3) -0.12757(4) 0.23721(2)
Ag1C_2 Ag 0.59912(3) -0.27331(3) -0.76279(2)
loop_
_geom_bond_atom_site_label_1
_geom_bond_atom_site_label_2
_geom_bond_site_symmetry_1
_geom_bond_site_symmetry_2
C1 C2 1_555 1_555
C2 H1 1_555 1_555
C3 C2 1_555 1_555
C4 C3 1_555 1_555
C5 C4 1_555 1_555
H2 C5 1_555 1_555
C6 C4 1_555 1_555
H3 C6 1_555 1_555
C7 C5 1_555 1_555
H4 C7 1_555 1_555
C8 C6 1_555 1_555
H5 C8 1_555 1_555
C9 C7 1_555 1_555
C10 C9 1_555 1_555
C11 C1 1_555 1_555
C12 C11 1_555 1_555
H6 C12 1_555 1_555
C13 C11 1_555 1_555
H7 C13 1_555 1_555
C14 C12 1_555 1_555
H8 C14 1_555 1_555
C15 C13 1_555 1_555
H9 C15 1_555 1_555
C16 C14 1_555 1_555
C17 C16 1_555 1_555
N1 C17 1_555 1_555
N2 C10 1_555 1_555
O1 C1 1_555 1_555
O2 C3 1_555 1_555
F1 P1 1_555 1_555
F2 P1 1_555 1_555
F3 P1 1_555 1_555
F4 P1 1_555 1_555
F5 P1 1_555 1_555
P1 F2B 1_555 1_555
Zn1 O1 1_555 1_555
Ag1 C2 1_555 1_555
C1B C2B 1_555 1_555
C1A C2A 1_555 1_555
C2B H1B 1_555 1_555
C2A H1A 1_555 1_555
C3B C2B 1_555 1_555
C3A C2A 1_555 1_555
C4B C3B 1_555 1_555
C4A C3A 1_555 1_555
C5B C4B 1_555 1_555
C5A C4A 1_555 1_555
H2B C5B 1_555 1_555
H2A C5A 1_555 1_555
C6B C4B 1_555 1_555
C6A C4A 1_555 1_555
H3B C6B 1_555 1_555
H3A C6A 1_555 1_555
C7B C5B 1_555 1_555
C7A C5A 1_555 1_555
H4B C7B 1_555 1_555
H4A C7A 1_555 1_555
C8B C6B 1_555 1_555
C8A C6A 1_555 1_555
H5B C8B 1_555 1_555
H5A C8A 1_555 1_555
C9B C7B 1_555 1_555
C9A C7A 1_555 1_555
C10B C9B 1_555 1_555
C10A C9A 1_555 1_555
C11B C1B 1_555 1_555
C11A C1A 1_555 1_555
C12B C11B 1_555 1_555
C12A C11A 1_555 1_555
H6B C12B 1_555 1_555
H6A C12A 1_555 1_555
C13B C11B 1_555 1_555
C13A C11A 1_555 1_555
H7B C13B 1_555 1_555
H7A C13A 1_555 1_555
C14B C12B 1_555 1_555
C14A C12A 1_555 1_555
H8B C14B 1_555 1_555
H8A C14A 1_555 1_555
C15B C13B 1_555 1_555
C15A C13A 1_555 1_555
H9B C15B 1_555 1_555
H9A C15A 1_555 1_555
C16B C14B 1_555 1_555
C16A C14A 1_555 1_555
C17B C16B 1_555 1_555
C17A C16A 1_555 1_555
N1B C17B 1_555 1_555
N1A C17A 1_555 1_555
N1C Ag1 1_555 1_555
N1E Ag1B 1_555 1_555
N1D Ag1A 1_555 1_555
N2B C10B 1_555 1_555
N2A C10A 1_555 1_555
N2D Ag1 1_555 1_555
N2C Ag1B 1_555 1_555
N2E Ag1A 1_555 1_555
O1B Zn1 1_555 1_555
O1A Zn1 1_555 1_555
O2B Zn1 1_555 1_555
O2A Zn1 1_555 1_555
F1A P1A 1_555 1_555
F1B P1B 1_555 1_555
F2A P1A 1_555 1_555
F2B P1B 1_555 1_555
F3B P1B 1_555 1_555
F3A P1A 1_555 1_555
F4B P1B 1_555 1_555
F4A P1A 1_555 1_555
F5B P1B 1_555 1_555
F5A P1A 1_555 1_555
P1A F2 1_555 1_555
P1B F2A 1_555 1_555
Ag1B C2B 1_555 1_555
Ag1A C2A 1_555 1_555
Ag1C N1 1_555 1_555
Ag1E N2 1_555 1_555
Ag1E_2 N1B 1_555 1_555
Ag1D N2B 1_555 1_555
Ag1D_2 N1A 1_555 1_555
Ag1C_2 N2A 1_555 1_555
C8 C9 1_555 1_555
C15 C16 1_555 1_555
O2 Zn1 1_555 1_555
C1B O1B 1_555 1_555
C1A O1A 1_555 1_555
C3B O2B 1_555 1_555
C3A O2A 1_555 1_555
C8B C9B 1_555 1_555
C8A C9A 1_555 1_555
C15B C16B 1_555 1_555
C15A C16A 1_555 1_555

#END
