
#######################################################################
#
#                 Cambridge Crystallographic Data Centre
#                                CCDC 
#
#######################################################################
#
# If this CIF has been generated from an entry in the Cambridge 
# Structural Database, then it will include bibliographic, chemical, 
# crystal, experimental, refinement or atomic coordinate data resulting 
# from the CCDC's data processing and validation procedures.
#
#######################################################################

data_LAGDAA
_symmetry_cell_setting           trigonal
_symmetry_space_group_name_H-M   'P -3'
_symmetry_Int_Tables_number      147
_space_group_name_Hall           '-P 3'
loop_
_symmetry_equiv_pos_site_id
_symmetry_equiv_pos_as_xyz
1 x,y,z
2 -y,x-y,z
3 -x+y,-x,z
4 -x,-y,-z
5 y,-x+y,-z
6 x-y,x,-z
_cell_length_a                   15.824(3)
_cell_length_b                   15.824(3)
_cell_length_c                   16.563(6)
_cell_angle_alpha                90
_cell_angle_beta                 90
_cell_angle_gamma                120
_cell_volume                     3591.72
loop_
_atom_site_label
_atom_site_type_symbol
_atom_site_fract_x
_atom_site_fract_y
_atom_site_fract_z
C1 C 0.4028(5) 0.5348(5) 0.2615(3)
C2 C 0.4797(5) 0.5632(5) 0.2042(4)
H1 H 0.5334 0.5579 0.2194
C3 C 0.4798(5) 0.5988(5) 0.1257(4)
C4 C 0.5579(5) 0.6109(5) 0.0661(4)
C5 C 0.6301(7) 0.5898(8) 0.0840(5)
H2 H 0.6340 0.5686 0.1355
C6 C 0.6979(7) 0.5999(8) 0.0250(5)
H3 H 0.7468 0.5856 0.0370
C7 C 0.6910(6) 0.6314(6) -0.0515(4)
C8 C 0.6184(6) 0.6522(6) -0.0697(4)
H4 H 0.6143 0.6735 -0.1211
C9 C 0.5523(6) 0.6414(6) -0.0115(4)
H5 H 0.5028 0.6545 -0.0241
C10 C 0.7596(6) 0.6400(6) -0.1136(4)
C11 C 0.4018(5) 0.4773(5) 0.3359(4)
C12 C 0.3592(5) 0.4876(6) 0.4053(4)
H6 H 0.3322 0.5280 0.4052
C13 C 0.3567(6) 0.4378(6) 0.4752(4)
H7 H 0.3281 0.4444 0.5220
C14 C 0.3972(6) 0.3786(6) 0.4740(4)
C15 C 0.4414(7) 0.3693(6) 0.4057(5)
H8 H 0.4701 0.3304 0.4062
C16 C 0.4428(6) 0.4190(6) 0.3359(4)
H9 H 0.4716 0.4126 0.2892
C17 C 0.3982(6) 0.3291(6) 0.5483(5)
N1 N 0.3978(6) 0.2918(5) 0.6058(4)
N2 N 0.8106(5) 0.6447(5) -0.1644(4)
O1 O 0.3328(3) 0.5504(3) 0.2566(3)
O2 O 0.4198(4) 0.6219(4) 0.1000(2)
Ag1 Ag 0.59034(5) 0.72965(5) 0.26502(4)
Cd1 Cd 0.3333 0.6667 0.17680(4)
C1B C 0.1320(7) 0.5972(5) 0.2615(3)
C1A C 0.4652(5) 0.8680(7) 0.2615(3)
C2B C 0.0835(7) 0.5203(5) 0.2042(4)
C2A C 0.4368(5) 0.9165(7) 0.2042(4)
H1B H 0.0245 0.4666 0.2194
H1A H 0.4421 0.9755 0.2194
C3B C 0.1190(7) 0.5202(5) 0.1257(4)
C3A C 0.4012(5) 0.8810(7) 0.1257(4)
C4B C 0.0530(7) 0.4421(5) 0.0661(4)
C4A C 0.3891(5) 0.9470(7) 0.0661(4)
C5B C -0.0403(11) 0.3699(7) 0.0840(5)
C5A C 0.4102(8) 1.0403(11) 0.0840(5)
H2B H -0.0654 0.3660 0.1355
H2A H 0.4314 1.0654 0.1355
C6B C -0.0980(11) 0.3021(7) 0.0250(5)
C6A C 0.4001(8) 1.0980(11) 0.0250(5)
H3B H -0.1612 0.2532 0.0370
H3A H 0.4144 1.1612 0.0370
C7B C -0.0596(8) 0.3090(6) -0.0515(4)
C7A C 0.3686(6) 1.0596(8) -0.0515(4)
C8B C 0.0338(8) 0.3816(6) -0.0697(4)
C8A C 0.3478(6) 0.9662(8) -0.0697(4)
H4B H 0.0592 0.3857 -0.1211
H4A H 0.3265 0.9408 -0.1211
C9B C 0.0891(8) 0.4477(6) -0.0115(4)
C9A C 0.3586(6) 0.9109(8) -0.0115(4)
H5B H 0.1517 0.4972 -0.0241
H5A H 0.3455 0.8483 -0.0241
C10B C -0.1196(8) 0.2404(6) -0.1136(4)
C10A C 0.3600(6) 1.1196(8) -0.1136(4)
C11B C 0.0755(7) 0.5982(5) 0.3359(4)
C11A C 0.5227(5) 0.9245(7) 0.3359(4)
C12B C 0.1284(8) 0.6408(5) 0.4053(4)
C12A C 0.5124(6) 0.8716(8) 0.4053(4)
H6B H 0.1958 0.6678 0.4052
H6A H 0.4720 0.8042 0.4052
C13B C 0.0811(8) 0.6433(6) 0.4752(4)
C13A C 0.5622(6) 0.9189(8) 0.4752(4)
H7B H 0.1163 0.6719 0.5220
H7A H 0.5556 0.8837 0.5220
C14B C -0.0186(8) 0.6028(6) 0.4740(4)
C14A C 0.6214(6) 1.0186(8) 0.4740(4)
C15B C -0.0721(9) 0.5586(7) 0.4057(5)
C15A C 0.6307(6) 1.0721(9) 0.4057(5)
H8B H -0.1397 0.5299 0.4062
H8A H 0.6696 1.1397 0.4062
C16B C -0.0238(8) 0.5572(6) 0.3359(4)
C16A C 0.5810(6) 1.0238(8) 0.3359(4)
H9B H -0.0590 0.5284 0.2892
H9A H 0.5874 1.0590 0.2892
C17B C -0.0691(8) 0.6018(6) 0.5483(5)
C17A C 0.6709(6) 1.0691(8) 0.5483(5)
N1B N -0.1060(8) 0.6022(6) 0.6058(4)
N1A N 0.7082(5) 1.1060(8) 0.6058(4)
N1C N 0.6022(6) 0.7082(5) 0.3942(4)
N1E N 0.1060(8) 0.3978(6) 0.3942(4)
N1D N 0.2918(5) 0.8940(8) 0.3942(4)
N2B N -0.1659(7) 0.1894(5) -0.1644(4)
N2A N 0.3553(5) 1.1659(7) -0.1644(4)
N2D N 0.6447(5) 0.8341(7) 0.1644(4)
N2C N 0.1894(5) 0.3553(5) 0.1644(4)
N2E N 0.1659(7) 0.8106(5) 0.1644(4)
O1B O 0.2176(4) 0.6672(3) 0.2566(3)
O1A O 0.4496(3) 0.7824(4) 0.2566(3)
O2B O 0.2021(6) 0.5802(4) 0.1000(2)
O2A O 0.3781(4) 0.7979(6) 0.1000(2)
Ag1B Ag 0.13931(7) 0.40966(5) 0.26502(4)
Ag1A Ag 0.27035(5) 0.86069(7) 0.26502(4)
Ag1C Ag 0.40966(5) 0.27035(5) 0.73498(4)
Ag1E Ag 0.86069(7) 0.59034(5) -0.26502(4)
Ag1E_2 Ag -0.13931(7) 0.59034(5) 0.73498(4)
Ag1D Ag -0.27035(5) 0.13931(7) -0.26502(4)
Ag1D_2 Ag 0.72965(5) 1.13931(7) 0.73498(4)
Ag1C_2 Ag 0.40966(5) 1.27035(5) -0.26502(4)
O3 O 0.7535(8) 0.7138(9) 0.2490(7)
O4 O 0.8055(10) 0.6683(11) 0.3641(6)
O5 O 0.8346(11) 0.6255(13) 0.2366(7)
O6 O 0.6761(9) 0.5500(9) 0.2876(9)
Cl1 Cl 0.7674(4) 0.6394(5) 0.2844(3)
Cl2 Cl 0.3333 0.6667 0.5847(12)
O7 O 0.2572(11) 0.6802(15) 0.6151(14)
O8 O 0.3333 0.6667 0.4989(13)
O7A O 0.3198(15) 0.5770(19) 0.6151(14)
O7B O 0.4230(19) 0.7428(11) 0.6151(14)
loop_
_geom_bond_atom_site_label_1
_geom_bond_atom_site_label_2
_geom_bond_site_symmetry_1
_geom_bond_site_symmetry_2
C1 C2 1_555 1_555
C2 H1 1_555 1_555
C3 C2 1_555 1_555
C4 C3 1_555 1_555
C5 C4 1_555 1_555
H2 C5 1_555 1_555
C6 C5 1_555 1_555
H3 C6 1_555 1_555
C7 C6 1_555 1_555
C8 C7 1_555 1_555
H4 C8 1_555 1_555
C9 C4 1_555 1_555
H5 C9 1_555 1_555
C10 C7 1_555 1_555
C11 C1 1_555 1_555
C12 C11 1_555 1_555
H6 C12 1_555 1_555
C13 C12 1_555 1_555
H7 C13 1_555 1_555
C14 C13 1_555 1_555
C15 C14 1_555 1_555
H8 C15 1_555 1_555
C16 C11 1_555 1_555
H9 C16 1_555 1_555
C17 C14 1_555 1_555
N1 C17 1_555 1_555
N2 C10 1_555 1_555
O1 C1 1_555 1_555
O2 C3 1_555 1_555
O3 Cl1 1_555 1_555
O4 Cl1 1_555 1_555
O5 Cl1 1_555 1_555
O6 Cl1 1_555 1_555
Cl2 O7 1_555 1_555
O8 Cl2 1_555 1_555
Ag1 C2 1_555 1_555
Cd1 O1 1_555 1_555
C1B C2B 1_555 1_555
C1A C2A 1_555 1_555
C2B H1B 1_555 1_555
C2A H1A 1_555 1_555
C3B C2B 1_555 1_555
C3A C2A 1_555 1_555
C4B C3B 1_555 1_555
C4A C3A 1_555 1_555
C5B C4B 1_555 1_555
C5A C4A 1_555 1_555
H2B C5B 1_555 1_555
H2A C5A 1_555 1_555
C6B C5B 1_555 1_555
C6A C5A 1_555 1_555
H3B C6B 1_555 1_555
H3A C6A 1_555 1_555
C7B C6B 1_555 1_555
C7A C6A 1_555 1_555
C8B C7B 1_555 1_555
C8A C7A 1_555 1_555
H4B C8B 1_555 1_555
H4A C8A 1_555 1_555
C9B C4B 1_555 1_555
C9A C4A 1_555 1_555
H5B C9B 1_555 1_555
H5A C9A 1_555 1_555
C10B C7B 1_555 1_555
C10A C7A 1_555 1_555
C11B C1B 1_555 1_555
C11A C1A 1_555 1_555
C12B C11B 1_555 1_555
C12A C11A 1_555 1_555
H6B C12B 1_555 1_555
H6A C12A 1_555 1_555
C13B C12B 1_555 1_555
C13A C12A 1_555 1_555
H7B C13B 1_555 1_555
H7A C13A 1_555 1_555
C14B C13B 1_555 1_555
C14A C13A 1_555 1_555
C15B C14B 1_555 1_555
C15A C14A 1_555 1_555
H8B C15B 1_555 1_555
H8A C15A 1_555 1_555
C16B C11B 1_555 1_555
C16A C11A 1_555 1_555
H9B C16B 1_555 1_555
H9A C16A 1_555 1_555
C17B C14B 1_555 1_555
C17A C14A 1_555 1_555
N1B C17B 1_555 1_555
N1A C17A 1_555 1_555
N1C Ag1 1_555 1_555
N1E Ag1B 1_555 1_555
N1D Ag1A 1_555 1_555
N2B C10B 1_555 1_555
N2A C10A 1_555 1_555
N2D Ag1 1_555 1_555
N2C Ag1B 1_555 1_555
N2E Ag1A 1_555 1_555
O1B Cd1 1_555 1_555
O1A Cd1 1_555 1_555
O2B Cd1 1_555 1_555
O2A Cd1 1_555 1_555
O7A Cl2 1_555 1_555
O7B Cl2 1_555 1_555
Ag1B C2B 1_555 1_555
Ag1A C2A 1_555 1_555
Ag1C N1 1_555 1_555
Ag1E N2 1_555 1_555
Ag1E_2 N1B 1_555 1_555
Ag1D N2B 1_555 1_555
Ag1D_2 N1A 1_555 1_555
Ag1C_2 N2A 1_555 1_555
C8 C9 1_555 1_555
C15 C16 1_555 1_555
O2 Cd1 1_555 1_555
C1B O1B 1_555 1_555
C1A O1A 1_555 1_555
C3B O2B 1_555 1_555
C3A O2A 1_555 1_555
C8B C9B 1_555 1_555
C8A C9A 1_555 1_555
C15B C16B 1_555 1_555
C15A C16A 1_555 1_555

#END
