
#######################################################################
#
#                 Cambridge Crystallographic Data Centre
#                                CCDC 
#
#######################################################################
#
# If this CIF has been generated from an entry in the Cambridge 
# Structural Database, then it will include bibliographic, chemical, 
# crystal, experimental, refinement or atomic coordinate data resulting 
# from the CCDC's data processing and validation procedures.
#
#######################################################################

data_LAGKOU
_symmetry_cell_setting           triclinic
_symmetry_space_group_name_H-M   'P -1'
_symmetry_Int_Tables_number      2
_space_group_name_Hall           '-P 1'
loop_
_symmetry_equiv_pos_site_id
_symmetry_equiv_pos_as_xyz
1 x,y,z
2 -x,-y,-z
_cell_length_a                   7.8484(4)
_cell_length_b                   8.7280(3)
_cell_length_c                   8.9316(4)
_cell_angle_alpha                68.485(3)
_cell_angle_beta                 73.0482(19)
_cell_angle_gamma                70.5094(17)
_cell_volume                     526.494
loop_
_atom_site_label
_atom_site_type_symbol
_atom_site_fract_x
_atom_site_fract_y
_atom_site_fract_z
Cd1 Cd 0.242413(19) 0.941227(17) 0.067178(16)
Na1 Na -0.02695(13) 0.61928(13) 0.13852(12)
O1 O 0.1705(2) 0.6204(2) 0.2945(2)
O2 O 0.4286(2) 0.6801(2) 0.1309(2)
O3 O 0.9194(2) 0.1492(2) 0.06481(18)
O4 O 1.0242(2) -0.0101(2) 0.2917(2)
O5 O 0.5644(2) -0.0282(2) 0.83170(18)
O6 O 0.2824(2) 0.1385(2) 0.81943(18)
C1 C 0.4526(3) 0.4091(3) 0.3294(2)
C2 C 0.6130(3) 0.3288(3) 0.2409(2)
H1 H 0.6467 0.3785 0.1288
C3 C 0.7232(3) 0.1746(3) 0.3193(2)
C4 C 0.6740(3) 0.0996(3) 0.4874(2)
H2 H 0.7502 -0.0011 0.5408
C5 C 0.5099(3) 0.1764(3) 0.5751(2)
C6 C 0.3989(3) 0.3306(3) 0.4952(2)
H3 H 0.2885 0.3809 0.5535
C7 C 0.3405(3) 0.5815(3) 0.2466(2)
C8 C 0.8998(3) 0.0975(3) 0.2207(3)
C9 C 0.4494(3) 0.0907(2) 0.7543(2)
O7 O -0.2006(2) 0.6221(2) -0.0469(2)
H4 H -0.2013 0.6965 -0.1435
H5 H -0.3163 0.6535 -0.0046
O8 O -0.0046(3) 0.3440(3) 0.3763(3)
O3_2 O -0.0806(2) 1.1492(2) 0.06481(18)
O3A O 0.0806(2) 0.8508(2) -0.06481(18)
O4_2 O 0.0242(2) 0.9899(2) 0.2917(2)
O5A O 0.4356(2) 1.0282(2) 0.16830(18)
O6_2 O 0.2824(2) 1.1385(2) -0.18057(18)
O6A O -0.2824(2) 0.8615(2) 0.18057(18)
O7A O 0.2006(2) 0.3779(2) 0.0469(2)
Cd1_2 Cd 1.242413(19) -0.058773(17) 0.067178(16)
Cd1A Cd 0.757587(19) 0.058773(17) -0.067178(16)
Na1A Na 1.02695(13) 0.38072(13) -0.13852(12)
Cd1A_2 Cd 0.757587(19) 0.058773(17) 0.932822(16)
Cd1_3 Cd 0.242413(19) -0.058773(17) 1.067178(16)
Na1A_2 Na 0.02695(13) 0.38072(13) 0.86148(12)
Na1A_3 Na 0.02695(13) 0.38072(13) -0.13852(12)
H4A H 0.2013 0.3035 0.1435
H5A H 0.3163 0.3465 0.0046
loop_
_geom_bond_atom_site_label_1
_geom_bond_atom_site_label_2
_geom_bond_site_symmetry_1
_geom_bond_site_symmetry_2
Cd1 O2 1_555 1_555
Na1 O1 1_555 1_555
O1 C7 1_555 1_555
O2 C7 1_555 1_555
O3 C8 1_555 1_555
O4 C8 1_555 1_555
O5 C9 1_555 1_555
O6 C9 1_555 1_555
C1 C2 1_555 1_555
C2 H1 1_555 1_555
C3 C2 1_555 1_555
C4 C3 1_555 1_555
H2 C4 1_555 1_555
C5 C4 1_555 1_555
C6 C1 1_555 1_555
H3 C6 1_555 1_555
C7 C1 1_555 1_555
C8 C3 1_555 1_555
C9 C5 1_555 1_555
O7 Na1 1_555 1_555
H4 O7 1_555 1_555
H5 O7 1_555 1_555
O8 Na1 1_555 1_555
O3_2 Cd1 1_555 1_555
O3A Cd1 1_555 1_555
O4_2 Cd1 1_555 1_555
O5A Cd1 1_555 1_555
O6_2 Cd1 1_555 1_555
O6A Na1 1_555 1_555
O7A Na1 1_555 1_555
Cd1_2 O3 1_555 1_555
Cd1A O3 1_555 1_555
Na1A O3 1_555 1_555
Cd1A_2 O5 1_555 1_555
Cd1_3 O6 1_555 1_555
Na1A_2 O6 1_555 1_555
Na1A_3 O7 1_555 1_555
H4A O7A 1_555 1_555
H5A O7A 1_555 1_555
Na1 O3A 1_555 1_555
O4 Cd1_2 1_555 1_555
C5 C6 1_555 1_555
O7A Na1A_3 1_555 1_555

#END
