
#######################################################################
#
#                 Cambridge Crystallographic Data Centre
#                                CCDC 
#
#######################################################################
#
# If this CIF has been generated from an entry in the Cambridge 
# Structural Database, then it will include bibliographic, chemical, 
# crystal, experimental, refinement or atomic coordinate data resulting 
# from the CCDC's data processing and validation procedures.
#
#######################################################################

data_LAGKIO
_symmetry_cell_setting           monoclinic
_symmetry_space_group_name_H-M   'C 2/c'
_symmetry_Int_Tables_number      15
_space_group_name_Hall           '-C 2yn'
loop_
_symmetry_equiv_pos_site_id
_symmetry_equiv_pos_as_xyz
1 x,y,z
2 1/2+x,1/2+y,z
3 x,-y,1/2+z
4 1/2+x,1/2-y,1/2+z
5 -x,-y,-z
6 1/2-x,1/2-y,-z
7 -x,y,1/2-z
8 1/2-x,1/2+y,1/2-z
_cell_length_a                   19.4353(12)
_cell_length_b                   7.1029(3)
_cell_length_c                   18.0458(10)
_cell_angle_alpha                90
_cell_angle_beta                 118.0300(19)
_cell_angle_gamma                90
_cell_volume                     2198.96
loop_
_atom_site_label
_atom_site_type_symbol
_atom_site_fract_x
_atom_site_fract_y
_atom_site_fract_z
Cd1 Cd 0.318397(10) 0.48547(3) 0.030301(11)
Co1 Co 0.5000 0.73965(7) 0.2500
O1 O 0.45958(11) 0.5309(3) 0.15382(12)
O2 O 0.43540(11) 0.3849(3) 0.03764(12)
O3 O 0.67090(11) 0.2041(3) 0.00607(11)
O4 O 0.77173(11) 0.0783(3) 0.11616(12)
O5 O 0.77411(12) 0.0804(3) 0.39507(12)
O6 O 0.67395(12) 0.1940(3) 0.40627(12)
O7 O 0.46095(14) 0.9412(3) 0.15078(15)
H1 H 0.4170 0.9746 0.1377
O8 O 0.39307(12) 0.7588(3) 0.24624(14)
H2 H 0.3496 0.6998 0.2135
C1 C 0.56135(15) 0.3403(4) 0.15111(16)
C2 C 0.59665(14) 0.2928(4) 0.10196(16)
H3 H 0.5716 0.3203 0.0449
C3 C 0.66905(14) 0.2045(4) 0.13760(15)
C4 C 0.70546(15) 0.1583(4) 0.22248(15)
H4 H 0.7531 0.0959 0.2462
C5 C 0.67040(15) 0.2055(4) 0.27229(15)
C6 C 0.59916(15) 0.2967(4) 0.23617(16)
H5 H 0.5762 0.3295 0.2694
C7 C 0.48146(14) 0.4266(4) 0.11192(16)
C8 C 0.70611(15) 0.1599(4) 0.08246(16)
C9 C 0.70886(15) 0.1574(4) 0.36393(16)
O1F O 0.54042(11) 0.5309(3) 0.34618(12)
O2F O 0.56460(11) 0.3849(3) 0.46236(12)
O3F O 0.32910(11) 0.2041(3) 0.49393(11)
O4F O 0.22827(11) 0.0783(3) 0.38384(12)
O5F O 0.22589(12) 0.0804(3) 0.10493(12)
O6F O 0.32605(12) 0.1940(3) 0.09373(12)
C1F C 0.43865(15) 0.3403(4) 0.34889(16)
C2F C 0.40335(14) 0.2928(4) 0.39804(16)
H3F H 0.4284 0.3203 0.4551
C3F C 0.33095(14) 0.2045(4) 0.36240(15)
C4F C 0.29454(15) 0.1583(4) 0.27752(15)
H4F H 0.2469 0.0959 0.2538
C5F C 0.32960(15) 0.2055(4) 0.22771(15)
C6F C 0.40084(15) 0.2967(4) 0.26383(16)
H5F H 0.4238 0.3295 0.2306
C7F C 0.51854(14) 0.4266(4) 0.38808(16)
C8F C 0.29389(15) 0.1599(4) 0.41754(16)
C9F C 0.29114(15) 0.1574(4) 0.13607(16)
O7F O 0.53905(14) 0.9412(3) 0.34922(15)
H1F H 0.5830 0.9746 0.3623
O8F O 0.60693(12) 0.7588(3) 0.25376(14)
H2F H 0.6504 0.6998 0.2865
Cd1F Cd 0.681603(10) 0.48547(3) 0.469699(11)
O3D O 0.32910(11) 0.7959(3) -0.00607(11)
O4A O 0.27173(11) 0.5783(3) 0.11616(12)
O5C O 0.27411(12) 0.4196(3) -0.10493(12)
Cd1D Cd 0.681603(10) 0.51453(3) -0.030301(11)
Cd1A Cd 0.818397(10) -0.01453(3) 0.030301(11)
Cd1C Cd 0.818397(10) 0.01453(3) 0.530301(11)
Cd1B Cd 0.318397(10) 0.51453(3) 0.530301(11)
Cd1G Cd 0.181603(10) -0.01453(3) 0.469699(11)
Cd1E Cd 0.181603(10) 0.01453(3) -0.030301(11)
O3B O 0.67090(11) 0.7959(3) 0.50607(11)
O4G O 0.72827(11) 0.5783(3) 0.38384(12)
O5E O 0.72589(12) 0.4196(3) 0.60493(12)
O9 O 0.4305(2) 0.1810(4) -0.0914(2)
loop_
_geom_bond_atom_site_label_1
_geom_bond_atom_site_label_2
_geom_bond_site_symmetry_1
_geom_bond_site_symmetry_2
Cd1 O1 1_555 1_555
Co1 O1 1_555 1_555
O1 C7 1_555 1_555
O2 Cd1 1_555 1_555
O3 C8 1_555 1_555
O4 C8 1_555 1_555
O5 C9 1_555 1_555
O6 C9 1_555 1_555
O7 Co1 1_555 1_555
H1 O7 1_555 1_555
O8 Co1 1_555 1_555
H2 O8 1_555 1_555
C1 C2 1_555 1_555
C2 H3 1_555 1_555
C3 C2 1_555 1_555
C4 C3 1_555 1_555
H4 C4 1_555 1_555
C5 C4 1_555 1_555
C6 C1 1_555 1_555
H5 C6 1_555 1_555
C7 O2 1_555 1_555
C8 C3 1_555 1_555
C9 C5 1_555 1_555
O1F Co1 1_555 1_555
O2F C7F 1_555 1_555
O3F C8F 1_555 1_555
O4F C8F 1_555 1_555
O5F C9F 1_555 1_555
O6F Cd1 1_555 1_555
C1F C2F 1_555 1_555
C2F H3F 1_555 1_555
C3F C2F 1_555 1_555
C4F C3F 1_555 1_555
H4F C4F 1_555 1_555
C5F C4F 1_555 1_555
C6F C1F 1_555 1_555
H5F C6F 1_555 1_555
C7F O1F 1_555 1_555
C8F C3F 1_555 1_555
C9F O6F 1_555 1_555
O7F Co1 1_555 1_555
H1F O7F 1_555 1_555
O8F Co1 1_555 1_555
H2F O8F 1_555 1_555
Cd1F O6 1_555 1_555
O3D Cd1 1_555 1_555
O4A Cd1 1_555 1_555
O5C Cd1 1_555 1_555
Cd1D O3 1_555 1_555
Cd1A O4 1_555 1_555
Cd1C O5 1_555 1_555
Cd1B O3F 1_555 1_555
Cd1G O4F 1_555 1_555
Cd1E O5F 1_555 1_555
O3B Cd1F 1_555 1_555
O4G Cd1F 1_555 1_555
O5E Cd1F 1_555 1_555
C1 C7 1_555 1_555
C5 C6 1_555 1_555
O1F Cd1F 1_555 1_555
O2F Cd1F 1_555 1_555
C1F C7F 1_555 1_555
C5F C6F 1_555 1_555
C5F C9F 1_555 1_555

#END
