
#######################################################################
#
#                 Cambridge Crystallographic Data Centre
#                                CCDC 
#
#######################################################################
#
# If this CIF has been generated from an entry in the Cambridge 
# Structural Database, then it will include bibliographic, chemical, 
# crystal, experimental, refinement or atomic coordinate data resulting 
# from the CCDC's data processing and validation procedures.
#
#######################################################################

data_LAGKIO01
_symmetry_cell_setting           monoclinic
_symmetry_space_group_name_H-M   'C 2/c'
_symmetry_Int_Tables_number      15
_space_group_name_Hall           '-C 2yn'
loop_
_symmetry_equiv_pos_site_id
_symmetry_equiv_pos_as_xyz
1 x,y,z
2 -x,y,1/2-z
3 1/2+x,1/2+y,z
4 1/2-x,1/2+y,1/2-z
5 -x,-y,-z
6 x,-y,1/2+z
7 1/2-x,1/2-y,-z
8 1/2+x,1/2-y,1/2+z
_cell_length_a                   19.426(5)
_cell_length_b                   7.1010(13)
_cell_length_c                   18.061(3)
_cell_angle_alpha                90
_cell_angle_beta                 117.927(2)
_cell_angle_gamma                90
_cell_volume                     2201.27
loop_
_atom_site_label
_atom_site_type_symbol
_atom_site_fract_x
_atom_site_fract_y
_atom_site_fract_z
Cd1 Cd 1.18146(6) 0.51355(15) 0.46899(7)
Co1 Co 1.0000 0.2604(4) 0.2500
O1 O 1.0410(7) 0.4678(17) 0.3465(8)
O2 O 1.0647(7) 0.616(2) 0.4617(7)
O3 O 0.8292(6) 0.7964(16) 0.4932(6)
O4 O 0.8943(7) 0.2407(19) 0.2459(8)
H1 H 0.8566 0.3079 0.2117
H2 H 0.8876 0.1650 0.2785
O5 O 0.9605(8) 0.060(2) 0.1515(9)
H3 H 0.9395 0.0968 0.1009
H4 H 0.9657 -0.0570 0.1627
C1 C 0.9385(8) 0.661(2) 0.3484(9)
C2 C 0.9024(8) 0.707(2) 0.3970(8)
H5 H 0.9268 0.6763 0.4536
C3 C 0.8309(8) 0.797(2) 0.3622(9)
C4 C 0.7946(8) 0.842(2) 0.2770(9)
H6 H 0.7468 0.9035 0.2530
C5 C 0.8301(8) 0.795(2) 0.2283(9)
C6 C 0.9029(9) 0.703(2) 0.2639(10)
H7 H 0.9265 0.6718 0.2311
C7 C 1.0182(8) 0.573(2) 0.3881(9)
C8 C 0.7941(8) 0.841(2) 0.4176(9)
C9 C 0.7912(9) 0.844(2) 0.1352(10)
O6 O 0.7255(7) 0.9195(18) 0.1042(7)
O7 O 0.8270(7) 0.8065(15) 0.0936(7)
O8 O 0.7279(6) 0.9224(17) 0.3830(7)
Cd1A Cd 0.81854(6) 0.51355(15) 0.03101(7)
Cd1D Cd 0.81854(6) 0.48645(15) 0.53101(7)
Cd1G Cd 0.68146(6) 0.98645(15) -0.03101(7)
Cd1B Cd 0.68146(6) 1.01355(15) 0.46899(7)
Cd1E Cd 1.18146(6) 0.48645(15) -0.03101(7)
Cd1F Cd 1.31854(6) 0.98645(15) 0.53101(7)
Cd1C Cd 1.31854(6) 1.01355(15) 0.03101(7)
O1A O 0.9590(7) 0.4678(17) 0.1535(8)
O2A O 0.9353(7) 0.616(2) 0.0383(7)
O3A O 1.1708(6) 0.7964(16) 0.0068(6)
O3D O 1.1708(6) 0.2036(16) 0.5068(6)
O3E O 0.8292(6) 0.2036(16) -0.0068(6)
O4A O 1.1057(7) 0.2407(19) 0.2541(8)
H1A H 1.1434 0.3079 0.2883
H2A H 1.1124 0.1650 0.2215
O5A O 1.0395(8) 0.060(2) 0.3485(9)
H3A H 1.0605 0.0968 0.3991
H4A H 1.0343 -0.0570 0.3373
C1A C 1.0615(8) 0.661(2) 0.1516(9)
C2A C 1.0976(8) 0.707(2) 0.1030(8)
H5A H 1.0732 0.6763 0.0464
C3A C 1.1691(8) 0.797(2) 0.1378(9)
C4A C 1.2054(8) 0.842(2) 0.2230(9)
H6A H 1.2532 0.9035 0.2470
C5A C 1.1699(8) 0.795(2) 0.2717(9)
C6A C 1.0971(9) 0.703(2) 0.2361(10)
H7A H 1.0735 0.6718 0.2689
C7A C 0.9818(8) 0.573(2) 0.1119(9)
C8A C 1.2059(8) 0.841(2) 0.0824(9)
C9A C 1.2088(9) 0.844(2) 0.3648(10)
O6A O 1.2745(7) 0.9195(18) 0.3958(7)
O6G O 1.2255(7) 0.5805(18) 0.6042(7)
O6F O 0.7745(7) 0.5805(18) -0.1042(7)
O7A O 1.1730(7) 0.8065(15) 0.4064(7)
O8A O 1.2721(6) 0.9224(17) 0.1170(7)
O8B O 1.2279(6) 0.4224(17) 0.3830(7)
O8C O 0.7721(6) 0.4224(17) 0.1170(7)
loop_
_geom_bond_atom_site_label_1
_geom_bond_atom_site_label_2
_geom_bond_site_symmetry_1
_geom_bond_site_symmetry_2
Cd1 O1 1_555 1_555
Co1 O1 1_555 1_555
O1 C7 1_555 1_555
O2 Cd1 1_555 1_555
O3 C8 1_555 1_555
O4 Co1 1_555 1_555
H1 O4 1_555 1_555
H2 O4 1_555 1_555
O5 Co1 1_555 1_555
H3 O5 1_555 1_555
H4 O5 1_555 1_555
C1 C2 1_555 1_555
C2 H5 1_555 1_555
C3 C2 1_555 1_555
C4 C3 1_555 1_555
H6 C4 1_555 1_555
C5 C4 1_555 1_555
C6 C1 1_555 1_555
H7 C6 1_555 1_555
C7 O2 1_555 1_555
C8 C3 1_555 1_555
C9 C5 1_555 1_555
O6 C9 1_555 1_555
O7 C9 1_555 1_555
O8 C8 1_555 1_555
Cd1A O7 1_555 1_555
Cd1D O3 1_555 1_555
Cd1G O6 1_555 1_555
Cd1B O8 1_555 1_555
Cd1E O3A 1_555 1_555
Cd1F O6A 1_555 1_555
Cd1C O8A 1_555 1_555
O1A Co1 1_555 1_555
O2A Cd1A 1_555 1_555
O3A C8A 1_555 1_555
O3D Cd1 1_555 1_555
O3E Cd1A 1_555 1_555
O4A Co1 1_555 1_555
H1A O4A 1_555 1_555
H2A O4A 1_555 1_555
O5A Co1 1_555 1_555
H3A O5A 1_555 1_555
H4A O5A 1_555 1_555
C1A C2A 1_555 1_555
C2A H5A 1_555 1_555
C3A C2A 1_555 1_555
C4A C3A 1_555 1_555
H6A C4A 1_555 1_555
C5A C4A 1_555 1_555
C6A C1A 1_555 1_555
H7A C6A 1_555 1_555
C7A O1A 1_555 1_555
C8A C3A 1_555 1_555
C9A C5A 1_555 1_555
O6A C9A 1_555 1_555
O6G Cd1 1_555 1_555
O6F Cd1A 1_555 1_555
O7A Cd1 1_555 1_555
O8A C8A 1_555 1_555
O8B Cd1 1_555 1_555
O8C Cd1A 1_555 1_555
C1 C7 1_555 1_555
C5 C6 1_555 1_555
Cd1A O1A 1_555 1_555
O2A C7A 1_555 1_555
C1A C7A 1_555 1_555
C5A C6A 1_555 1_555
C9A O7A 1_555 1_555

#END
