
#######################################################################
#
#                 Cambridge Crystallographic Data Centre
#                                CCDC 
#
#######################################################################
#
# If this CIF has been generated from an entry in the Cambridge 
# Structural Database, then it will include bibliographic, chemical, 
# crystal, experimental, refinement or atomic coordinate data resulting 
# from the CCDC's data processing and validation procedures.
#
#######################################################################

data_LAGPAM
_symmetry_cell_setting           triclinic
_symmetry_space_group_name_H-M   'P -1'
_symmetry_Int_Tables_number      2
_space_group_name_Hall           '-P 1'
loop_
_symmetry_equiv_pos_site_id
_symmetry_equiv_pos_as_xyz
1 x,y,z
2 -x,-y,-z
_cell_length_a                   9.3659(4)
_cell_length_b                   10.5662(4)
_cell_length_c                   11.0781(8)
_cell_angle_alpha                98.841(5)
_cell_angle_beta                 112.937(5)
_cell_angle_gamma                113.844(3)
_cell_volume                     858.107
loop_
_atom_site_label
_atom_site_type_symbol
_atom_site_fract_x
_atom_site_fract_y
_atom_site_fract_z
Y1 Y 0.69761(7) 1.01050(5) -0.02367(6)
O1 O 0.4755(5) 0.8793(4) 0.0563(4)
O2 O 0.7115(5) 0.8547(4) 0.1153(5)
O3 O -0.0055(5) 0.1785(4) 0.0649(5)
O4 O 0.2264(5) 0.1468(4) 0.1146(4)
O5 O 0.7999(5) 1.1716(4) 0.1951(4)
O6 O 0.5747(5) 1.1803(4) 0.2149(4)
O7 O 0.7067(7) 1.0901(5) -0.2096(6)
C1 C 0.4562(8) 0.6626(6) 0.1056(6)
C2 C 0.2705(9) 0.5916(8) 0.0442(11)
H1 H 0.2106 0.6401 0.0071
C3 C 0.1742(9) 0.4500(8) 0.0379(10)
H2 H 0.0490 0.4008 -0.0091
C4 C 0.2621(7) 0.3798(6) 0.1008(7)
C5 C 0.4461(8) 0.4494(6) 0.1628(7)
H3 H 0.5059 0.4024 0.2041
C6 C 0.5429(8) 0.5897(6) 0.1638(7)
H4 H 0.6674 0.6354 0.2041
C7 C 0.5574(8) 0.8098(6) 0.0957(6)
C8 C 0.1523(7) 0.2239(6) 0.0917(6)
C9 C 0.8734(7) 1.3700(6) 0.3816(6)
C10 C 1.0541(8) 1.4362(7) 0.4211(7)
H5 H 1.0910 1.3929 0.3689
C11 C 0.8201(8) 1.4334(7) 0.4619(7)
H6 H 0.6992 1.3881 0.4370
C12 C 0.7373(8) 1.2288(6) 0.2543(6)
C13 C 0.7535(10) 1.0686(9) -0.2975(9)
C14 C 0.803(2) 1.0674(19) -0.4885(16)
H7 H 0.6937 1.0039 -0.5791
H8 H 0.8943 1.1360 -0.5042
C15 C 0.7681(19) 1.1496(14) -0.3972(14)
H9 H 0.6569 1.1481 -0.4512
H10 H 0.8662 1.2523 -0.3460
C16 C 0.863(2) 0.9788(17) -0.4226(16)
H11 H 0.9937 1.0262 -0.3753
H12 H 0.8099 0.8804 -0.4903
N1 N 0.7990(16) 0.9722(12) -0.3219(12)
H13 H 0.7920 0.9082 -0.2816
Y1A Y 0.30239(7) -0.01050(5) 0.02367(6)
Y1A_2 Y 0.30239(7) 0.98950(5) 0.02367(6)
Y1_2 Y -0.30239(7) 0.01050(5) -0.02367(6)
Y1A_3 Y 1.30239(7) 1.98950(5) 1.02367(6)
Y1_3 Y 1.69761(7) 2.01050(5) 0.97633(6)
Y1_4 Y 0.69761(7) 0.01050(5) -0.02367(6)
Y1A_4 Y 1.30239(7) 0.98950(5) 0.02367(6)
O1A O 0.5245(5) 0.1207(4) -0.0563(4)
O1A_2 O 0.5245(5) 1.1207(4) -0.0563(4)
O1_2 O 0.4755(5) -0.1207(4) 0.0563(4)
O2A O 0.2885(5) 0.1453(4) -0.1153(5)
O3A O 1.0055(5) 0.8215(4) -0.0649(5)
O3_2 O 0.9945(5) 1.1785(4) 0.0649(5)
O3A_2 O 0.0055(5) -0.1785(4) -0.0649(5)
O4A O 0.7736(5) 0.8532(4) -0.1146(4)
O5A O 1.2001(5) 1.8284(4) 0.8049(4)
O5A_2 O 0.2001(5) -0.1716(4) -0.1951(4)
O6A O 1.4253(5) 1.8197(4) 0.7851(4)
O6A_2 O 0.4253(5) 0.8197(4) -0.2149(4)
O6_2 O 0.5747(5) 0.1803(4) 0.2149(4)
O7A O 0.2933(7) -0.0901(5) 0.2096(6)
C1A C 0.5438(8) 0.3374(6) -0.1056(6)
C2A C 0.7295(9) 0.4084(8) -0.0442(11)
H1A H 0.7894 0.3599 -0.0071
C3A C 0.8258(9) 0.5500(8) -0.0379(10)
H2A H 0.9510 0.5992 0.0091
C4A C 0.7379(7) 0.6202(6) -0.1008(7)
C5A C 0.5539(8) 0.5506(6) -0.1628(7)
H3A H 0.4941 0.5976 -0.2041
C6A C 0.4571(8) 0.4103(6) -0.1638(7)
H4A H 0.3326 0.3646 -0.2041
C7A C 0.4426(8) 0.1902(6) -0.0957(6)
C8A C 0.8477(7) 0.7761(6) -0.0917(6)
C9A C 1.1266(7) 1.6300(6) 0.6184(6)
C10A C 0.9459(8) 1.5638(7) 0.5789(7)
H5A H 0.9090 1.6071 0.6311
C11A C 1.1799(8) 1.5666(7) 0.5381(7)
H6A H 1.3008 1.6119 0.5630
C12A C 1.2627(8) 1.7712(6) 0.7457(6)
C13A C 0.2465(10) -0.0686(9) 0.2975(9)
C14A C 0.197(2) -0.0674(19) 0.4885(16)
H7A H 0.3063 -0.0039 0.5791
H8A H 0.1057 -0.1360 0.5042
C15A C 0.2319(19) -0.1496(14) 0.3972(14)
H9A H 0.3431 -0.1481 0.4512
H10A H 0.1338 -0.2523 0.3460
C16A C 0.137(2) 0.0212(17) 0.4226(16)
H11A H 0.0063 -0.0262 0.3753
H12A H 0.1901 0.1196 0.4903
N1A N 0.2010(16) 0.0278(12) 0.3219(12)
H13A H 0.2080 0.0918 0.2816
loop_
_geom_bond_atom_site_label_1
_geom_bond_atom_site_label_2
_geom_bond_site_symmetry_1
_geom_bond_site_symmetry_2
Y1 O1 1_555 1_555
O1 C7 1_555 1_555
O2 Y1 1_555 1_555
O3 C8 1_555 1_555
O4 C8 1_555 1_555
O5 Y1 1_555 1_555
O6 C12 1_555 1_555
O7 Y1 1_555 1_555
C1 C2 1_555 1_555
C2 H1 1_555 1_555
C3 C2 1_555 1_555
H2 C3 1_555 1_555
C4 C3 1_555 1_555
C5 C4 1_555 1_555
H3 C5 1_555 1_555
C6 C1 1_555 1_555
H4 C6 1_555 1_555
C7 O2 1_555 1_555
C8 C4 1_555 1_555
C9 C10 1_555 1_555
C10 H5 1_555 1_555
C11 C9 1_555 1_555
H6 C11 1_555 1_555
C12 O5 1_555 1_555
C13 O7 1_555 1_555
C14 H7 1_555 1_555
H8 C14 1_555 1_555
C15 C13 1_555 1_555
H9 C15 1_555 1_555
H10 C15 1_555 1_555
C16 C14 1_555 1_555
H11 C16 1_555 1_555
H12 C16 1_555 1_555
N1 C13 1_555 1_555
H13 N1 1_555 1_555
Y1A O4 1_555 1_555
Y1A_2 O1 1_555 1_555
Y1_2 O3 1_555 1_555
Y1A_3 O5A 1_555 1_555
Y1_3 O6A 1_555 1_555
Y1_4 O1A 1_555 1_555
Y1A_4 O3A 1_555 1_555
O1A Y1A 1_555 1_555
O1A_2 Y1 1_555 1_555
O1_2 Y1A 1_555 1_555
O2A Y1A 1_555 1_555
O3A C8A 1_555 1_555
O3_2 Y1 1_555 1_555
O3A_2 Y1A 1_555 1_555
O4A Y1 1_555 1_555
O5A C12A 1_555 1_555
O5A_2 Y1A 1_555 1_555
O6A C12A 1_555 1_555
O6A_2 Y1 1_555 1_555
O6_2 Y1A 1_555 1_555
O7A Y1A 1_555 1_555
C1A C2A 1_555 1_555
C2A H1A 1_555 1_555
C3A C2A 1_555 1_555
H2A C3A 1_555 1_555
C4A C3A 1_555 1_555
C5A C4A 1_555 1_555
H3A C5A 1_555 1_555
C6A C1A 1_555 1_555
H4A C6A 1_555 1_555
C7A O1A 1_555 1_555
C8A O4A 1_555 1_555
C9A C10A 1_555 1_555
C10A C11 1_555 1_555
H5A C10A 1_555 1_555
C11A C10 1_555 1_555
H6A C11A 1_555 1_555
C12A C9A 1_555 1_555
C13A O7A 1_555 1_555
C14A H7A 1_555 1_555
H8A C14A 1_555 1_555
C15A C13A 1_555 1_555
H9A C15A 1_555 1_555
H10A C15A 1_555 1_555
C16A C14A 1_555 1_555
H11A C16A 1_555 1_555
H12A C16A 1_555 1_555
N1A C13A 1_555 1_555
H13A N1A 1_555 1_555
O6 Y1A_2 1_555 1_555
C1 C7 1_555 1_555
C5 C6 1_555 1_555
C9 C12 1_555 1_555
C14 C15 1_555 1_555
C16 N1 1_555 1_555
Y1A_2 O1A_2 1_555 1_555
Y1_4 O1_2 1_555 1_555
O2A C7A 1_555 1_555
C1A C7A 1_555 1_555
C4A C8A 1_555 1_555
C5A C6A 1_555 1_555
C9A C11A 1_555 1_555
C14A C15A 1_555 1_555
C16A N1A 1_555 1_555

#END
