
#######################################################################
#
#                 Cambridge Crystallographic Data Centre
#                                CCDC 
#
#######################################################################
#
# If this CIF has been generated from an entry in the Cambridge 
# Structural Database, then it will include bibliographic, chemical, 
# crystal, experimental, refinement or atomic coordinate data resulting 
# from the CCDC's data processing and validation procedures.
#
#######################################################################

data_LAGQER
_symmetry_cell_setting           triclinic
_symmetry_space_group_name_H-M   'P -1'
_symmetry_Int_Tables_number      2
_space_group_name_Hall           '-P 1'
loop_
_symmetry_equiv_pos_site_id
_symmetry_equiv_pos_as_xyz
1 x,y,z
2 -x,-y,-z
_cell_length_a                   9.9098(3)
_cell_length_b                   10.5314(4)
_cell_length_c                   11.0619(4)
_cell_angle_alpha                77.711(3)
_cell_angle_beta                 76.638(3)
_cell_angle_gamma                66.320(3)
_cell_volume                     1019.27
loop_
_atom_site_label
_atom_site_type_symbol
_atom_site_fract_x
_atom_site_fract_y
_atom_site_fract_z
Sm1 Sm 0.05602(4) 0.77361(4) 0.17713(4)
O1 O 0.1437(6) 0.9558(5) 0.1293(5)
O2 O 0.1195(6) 1.1020(6) -0.0484(5)
O3 O 0.1469(6) 0.6202(6) 0.3758(5)
O4 O 0.3188(6) 0.6516(6) 0.2202(5)
O5 O -0.1729(6) 0.7552(5) 0.3207(5)
O6 O -0.1195(6) 0.9388(5) 0.3250(5)
O7 O 0.2024(6) 0.7359(6) -0.0267(5)
O8 O 0.0444(6) 0.5666(5) 0.1327(5)
C1 C 0.3513(8) 1.0128(7) 0.0182(7)
C2 C 0.4089(8) 1.0832(8) -0.0880(8)
H1 H 0.3487 1.1390 -0.1471
C3 C 0.4419(8) 0.9301(8) 0.1060(7)
H2 H 0.4031 0.8830 0.1775
C4 C 0.1914(8) 1.0256(7) 0.0352(7)
C5 C 0.3942(8) 0.5514(7) 0.4209(7)
C6 C 0.5370(8) 0.5528(8) 0.3766(8)
H3 H 0.5618 0.5877 0.2935
C7 C 0.3569(9) 0.4978(8) 0.5441(7)
H4 H 0.2619 0.4957 0.5735
C8 C 0.2797(9) 0.6103(8) 0.3352(8)
C9 C -0.3584(8) 0.9365(8) 0.4339(7)
C10 C -0.3884(9) 1.0475(8) 0.4962(8)
H5 H -0.3136 1.0810 0.4927
C11 C -0.4716(9) 0.8902(8) 0.4361(8)
H6 H -0.4534 0.8173 0.3922
C12 C -0.2074(8) 0.8714(8) 0.3557(7)
C13 C 0.3312(10) 0.7265(8) -0.0813(8)
C14 C 0.5222(9) 0.7570(9) -0.2360(8)
H7 H 0.5388 0.8444 -0.2595
H8 H 0.5668 0.7023 -0.3053
C15 C 0.5860(9) 0.6753(9) -0.1165(8)
H9 H 0.6614 0.5842 -0.1316
H10 H 0.6289 0.7265 -0.0838
C16 C 0.0429(11) 0.2712(8) 0.3517(8)
H11 H -0.0134 0.2644 0.4355
H12 H 0.1418 0.1985 0.3493
C17 C -0.0370(11) 0.2629(9) 0.2550(9)
H13 H 0.0056 0.1708 0.2283
H14 H -0.1428 0.2861 0.2859
C18 C 0.0284(8) 0.4581(8) 0.1942(8)
N1 N 0.4559(8) 0.6626(7) -0.0326(7)
H15 H 0.4589 0.6177 0.0421
N2 N 0.3658(8) 0.7818(8) -0.2011(7)
H16 H 0.3015 0.8266 -0.2507
N3 N 0.0506(8) 0.4089(7) 0.3123(6)
H17 H 0.0675 0.4538 0.3599
N4 N -0.0100(9) 0.3682(7) 0.1542(7)
H18 H -0.0180 0.3722 0.0776
Sm1A Sm -1.05602(4) 1.22639(4) 0.82287(4)
Sm1_2 Sm 1.05602(4) 0.77361(4) 0.17713(4)
Sm1A_2 Sm -0.05602(4) 1.22639(4) -0.17713(4)
Sm1A_3 Sm 0.94398(4) 0.22639(4) 0.82287(4)
Sm1A_4 Sm 0.94398(4) 1.22639(4) -0.17713(4)
O1A O 0.8563(6) 1.0442(5) -0.1293(5)
O1A_2 O -1.1437(6) 1.0442(5) 0.8707(5)
O2A O 0.8805(6) 0.8980(6) 0.0484(5)
O2_2 O -0.8805(6) 1.1020(6) 0.9516(5)
O2A_2 O -0.1195(6) 0.8980(6) 0.0484(5)
O3A O 0.8531(6) 0.3798(6) 0.6242(5)
O3A_2 O -1.1469(6) 1.3798(6) 0.6242(5)
O4A O 0.6812(6) 0.3484(6) 0.7798(5)
O4A_2 O -1.3188(6) 1.3484(6) 0.7798(5)
O5A O -0.8271(6) 1.2448(5) 0.6793(5)
O6A O -0.8805(6) 1.0612(5) 0.6750(5)
O7A O -1.2024(6) 1.2641(6) 1.0267(5)
O8A O -1.0444(6) 1.4334(5) 0.8673(5)
C1A C 0.6487(8) 0.9872(7) -0.0182(7)
C2A C 0.5911(8) 0.9168(8) 0.0880(8)
H1A H 0.6513 0.8610 0.1471
C3A C 0.5581(8) 1.0699(8) -0.1060(7)
H2A H 0.5969 1.1170 -0.1775
C4A C 0.8086(8) 0.9744(7) -0.0352(7)
C5A C 0.6058(8) 0.4486(7) 0.5791(7)
C6A C 0.4630(8) 0.4472(8) 0.6234(8)
H3A H 0.4382 0.4123 0.7065
C7A C 0.6431(9) 0.5022(8) 0.4559(7)
H4A H 0.7381 0.5043 0.4265
C8A C 0.7203(9) 0.3897(8) 0.6648(8)
C8A_2 C -1.2797(9) 1.3897(8) 0.6648(8)
C9A C -0.6416(8) 1.0635(8) 0.5661(7)
C10A C -0.6116(9) 0.9525(8) 0.5038(8)
H5A H -0.6864 0.9190 0.5073
C11A C -0.5284(9) 1.1098(8) 0.5639(8)
H6A H -0.5466 1.1827 0.6078
C12A C -0.7926(8) 1.1286(8) 0.6443(7)
C13A C -1.3312(10) 1.2735(8) 1.0813(8)
C14A C -1.5222(9) 1.2430(9) 1.2360(8)
H7A H -1.5388 1.1556 1.2595
H8A H -1.5668 1.2977 1.3053
C15A C -1.5860(9) 1.3247(9) 1.1165(8)
H9A H -1.6614 1.4158 1.1316
H10A H -1.6289 1.2735 1.0838
C16A C -1.0429(11) 1.7288(8) 0.6483(8)
H11A H -0.9866 1.7356 0.5645
H12A H -1.1418 1.8015 0.6507
C17A C -0.9630(11) 1.7371(9) 0.7450(9)
H13A H -1.0056 1.8292 0.7717
H14A H -0.8572 1.7139 0.7141
C18A C -1.0284(8) 1.5419(8) 0.8058(8)
N1A N -1.4559(8) 1.3374(7) 1.0326(7)
H15A H -1.4589 1.3823 0.9579
N2A N -1.3658(8) 1.2182(8) 1.2011(7)
H16A H -1.3015 1.1734 1.2507
N3A N -1.0506(8) 1.5911(7) 0.6877(6)
H17A H -1.0675 1.5462 0.6401
N4A N -0.9900(9) 1.6318(7) 0.8458(7)
H18A H -0.9820 1.6278 0.9224
loop_
_geom_bond_atom_site_label_1
_geom_bond_atom_site_label_2
_geom_bond_site_symmetry_1
_geom_bond_site_symmetry_2
Sm1 O1 1_555 1_555
O1 C4 1_555 1_555
O2 C4 1_555 1_555
O3 Sm1 1_555 1_555
O4 Sm1 1_555 1_555
O5 Sm1 1_555 1_555
O6 Sm1 1_555 1_555
O7 Sm1 1_555 1_555
O8 Sm1 1_555 1_555
C1 C2 1_555 1_555
C2 H1 1_555 1_555
C3 C1 1_555 1_555
H2 C3 1_555 1_555
C4 C1 1_555 1_555
C5 C6 1_555 1_555
C6 H3 1_555 1_555
C7 C5 1_555 1_555
H4 C7 1_555 1_555
C8 O3 1_555 1_555
C9 C10 1_555 1_555
C10 H5 1_555 1_555
C11 C9 1_555 1_555
H6 C11 1_555 1_555
C12 O5 1_555 1_555
C13 O7 1_555 1_555
C14 H7 1_555 1_555
H8 C14 1_555 1_555
C15 C14 1_555 1_555
H9 C15 1_555 1_555
H10 C15 1_555 1_555
C16 H11 1_555 1_555
H12 C16 1_555 1_555
C17 C16 1_555 1_555
H13 C17 1_555 1_555
H14 C17 1_555 1_555
C18 O8 1_555 1_555
N1 C13 1_555 1_555
H15 N1 1_555 1_555
N2 C13 1_555 1_555
H16 N2 1_555 1_555
N3 C16 1_555 1_555
H17 N3 1_555 1_555
N4 C17 1_555 1_555
H18 N4 1_555 1_555
Sm1A O1A_2 1_555 1_555
Sm1_2 O2A 1_555 1_555
Sm1A_2 O2 1_555 1_555
Sm1A_3 O3A 1_555 1_555
Sm1A_4 O1A 1_555 1_555
O1A C4A 1_555 1_555
O2A C4A 1_555 1_555
O2_2 Sm1A 1_555 1_555
O2A_2 Sm1 1_555 1_555
O3A C8A 1_555 1_555
O3A_2 Sm1A 1_555 1_555
O4A Sm1A_3 1_555 1_555
O4A_2 Sm1A 1_555 1_555
O5A Sm1A 1_555 1_555
O6A Sm1A 1_555 1_555
O7A Sm1A 1_555 1_555
O8A Sm1A 1_555 1_555
C1A C2A 1_555 1_555
C2A C3 1_555 1_555
H1A C2A 1_555 1_555
C3A C2 1_555 1_555
H2A C3A 1_555 1_555
C4A C1A 1_555 1_555
C5A C6A 1_555 1_555
C6A C7 1_555 1_555
H3A C6A 1_555 1_555
C7A C6 1_555 1_555
H4A C7A 1_555 1_555
C8A O4A 1_555 1_555
C8A_2 O3A_2 1_555 1_555
C9A C10A 1_555 1_555
C10A C11 1_555 1_555
H5A C10A 1_555 1_555
C11A C10 1_555 1_555
H6A C11A 1_555 1_555
C12A O5A 1_555 1_555
C13A O7A 1_555 1_555
C14A H7A 1_555 1_555
H8A C14A 1_555 1_555
C15A C14A 1_555 1_555
H9A C15A 1_555 1_555
H10A C15A 1_555 1_555
C16A H11A 1_555 1_555
H12A C16A 1_555 1_555
C17A C16A 1_555 1_555
H13A C17A 1_555 1_555
H14A C17A 1_555 1_555
C18A O8A 1_555 1_555
N1A C13A 1_555 1_555
H15A N1A 1_555 1_555
N2A C13A 1_555 1_555
H16A N2A 1_555 1_555
N3A C16A 1_555 1_555
H17A N3A 1_555 1_555
N4A C17A 1_555 1_555
H18A N4A 1_555 1_555
O4 C8 1_555 1_555
O6 C12 1_555 1_555
C5 C8 1_555 1_555
C9 C12 1_555 1_555
C14 N2 1_555 1_555
C15 N1 1_555 1_555
C18 N3 1_555 1_555
C18 N4 1_555 1_555
O4A_2 C8A_2 1_555 1_555
O6A C12A 1_555 1_555
C1A C3A 1_555 1_555
C5A C7A 1_555 1_555
C5A C8A 1_555 1_555
C9A C11A 1_555 1_555
C9A C12A 1_555 1_555
C14A N2A 1_555 1_555
C15A N1A 1_555 1_555
C18A N3A 1_555 1_555
C18A N4A 1_555 1_555

#END
