
#######################################################################
#
#                 Cambridge Crystallographic Data Centre
#                                CCDC 
#
#######################################################################
#
# If this CIF has been generated from an entry in the Cambridge 
# Structural Database, then it will include bibliographic, chemical, 
# crystal, experimental, refinement or atomic coordinate data resulting 
# from the CCDC's data processing and validation procedures.
#
#######################################################################

data_LAGQOB
_symmetry_cell_setting           triclinic
_symmetry_space_group_name_H-M   'P -1'
_symmetry_Int_Tables_number      2
_space_group_name_Hall           '-P 1'
loop_
_symmetry_equiv_pos_site_id
_symmetry_equiv_pos_as_xyz
1 x,y,z
2 -x,-y,-z
_cell_length_a                   9.87390(10)
_cell_length_b                   10.4767(2)
_cell_length_c                   11.0735(2)
_cell_angle_alpha                77.2300(10)
_cell_angle_beta                 76.4210(10)
_cell_angle_gamma                66.1660(10)
_cell_volume                     1008.22
loop_
_atom_site_label
_atom_site_type_symbol
_atom_site_fract_x
_atom_site_fract_y
_atom_site_fract_z
Gd1 Gd 0.05555(2) 0.77250(2) 0.177213(16)
O1 O 0.1436(3) 0.9543(3) 0.1287(2)
O2 O 0.1173(3) 1.1029(3) -0.0498(3)
O3 O 0.1453(3) 0.6216(3) 0.3760(3)
O4 O 0.3169(3) 0.6508(3) 0.2203(3)
O5 O -0.1723(3) 0.7531(3) 0.3196(3)
O6 O -0.1181(3) 0.9360(3) 0.3237(3)
O7 O 0.2020(3) 0.7362(3) -0.0259(2)
O8 O 0.0433(3) 0.5667(3) 0.1339(2)
C1 C 0.3516(4) 1.0137(4) 0.0176(3)
C2 C 0.4112(4) 1.0837(4) -0.0901(4)
H1 H 0.3517 1.1393 -0.1503
C3 C 0.4403(4) 0.9301(4) 0.1069(4)
H2 H 0.4001 0.8832 0.1784
C4 C 0.1916(4) 1.0245(4) 0.0339(4)
C5 C 0.3929(4) 0.5514(4) 0.4199(4)
C6 C 0.5381(4) 0.5514(4) 0.3759(4)
H3 H 0.5642 0.5855 0.2924
C7 C 0.3578(4) 0.4987(4) 0.5446(4)
H4 H 0.2622 0.4972 0.5749
C8 C 0.2791(4) 0.6103(4) 0.3346(4)
C9 C -0.3573(4) 0.9348(4) 0.4333(3)
C10 C -0.3860(4) 1.0465(4) 0.4966(4)
H5 H -0.3100 1.0785 0.4940
C11 C -0.4728(4) 0.8900(4) 0.4368(4)
H6 H -0.4550 0.8164 0.3938
C12 C -0.2067(4) 0.8698(4) 0.3558(3)
C13 C 0.3307(5) 0.7267(4) -0.0804(4)
C14 C 0.5220(5) 0.7569(5) -0.2355(4)
H7 H 0.5367 0.8458 -0.2594
H8 H 0.5680 0.7022 -0.3046
C15 C 0.5864(5) 0.6759(5) -0.1170(4)
H9 H 0.6615 0.5838 -0.1313
H10 H 0.6304 0.7275 -0.0860
C16 C 0.0437(6) 0.2670(5) 0.3514(4)
H11 H -0.0133 0.2585 0.4350
H12 H 0.1433 0.1940 0.3490
C17 C -0.0357(6) 0.2602(5) 0.2531(4)
H13 H 0.0078 0.1680 0.2257
H14 H -0.1421 0.2830 0.2835
C18 C 0.0285(4) 0.4561(4) 0.1956(4)
N1 N 0.4555(4) 0.6642(4) -0.0310(3)
H15 H 0.4585 0.6209 0.0446
N2 N 0.3651(4) 0.7795(4) -0.2008(3)
H16 H 0.3007 0.8219 -0.2510
N3 N 0.0506(4) 0.4062(4) 0.3134(3)
H17 H 0.0670 0.4510 0.3613
N4 N -0.0086(5) 0.3675(4) 0.1536(3)
H18 H -0.0158 0.3730 0.0765
Gd1A Gd -1.05555(2) 1.22750(2) 0.822787(16)
Gd1_2 Gd 1.05555(2) 0.77250(2) 0.177213(16)
Gd1A_2 Gd -0.05555(2) 1.22750(2) -0.177213(16)
Gd1A_3 Gd 0.94445(2) 0.22750(2) 0.822787(16)
Gd1A_4 Gd 0.94445(2) 1.22750(2) -0.177213(16)
O1A O 0.8564(3) 1.0457(3) -0.1287(2)
O1A_2 O -1.1436(3) 1.0457(3) 0.8713(2)
O2A O 0.8827(3) 0.8971(3) 0.0498(3)
O2_2 O -0.8827(3) 1.1029(3) 0.9502(3)
O2A_2 O -0.1173(3) 0.8971(3) 0.0498(3)
O3A O 0.8547(3) 0.3784(3) 0.6240(3)
O3A_2 O -1.1453(3) 1.3784(3) 0.6240(3)
O4A O 0.6831(3) 0.3492(3) 0.7797(3)
O4A_2 O -1.3169(3) 1.3492(3) 0.7797(3)
O5A O -0.8277(3) 1.2469(3) 0.6804(3)
O6A O -0.8819(3) 1.0640(3) 0.6763(3)
O7A O -1.2020(3) 1.2638(3) 1.0259(2)
O8A O -1.0433(3) 1.4333(3) 0.8661(2)
C1A C 0.6484(4) 0.9863(4) -0.0176(3)
C2A C 0.5888(4) 0.9163(4) 0.0901(4)
H1A H 0.6483 0.8607 0.1503
C3A C 0.5597(4) 1.0699(4) -0.1069(4)
H2A H 0.5999 1.1168 -0.1784
C4A C 0.8084(4) 0.9755(4) -0.0339(4)
C5A C 0.6071(4) 0.4486(4) 0.5801(4)
C6A C 0.4619(4) 0.4486(4) 0.6241(4)
H3A H 0.4358 0.4145 0.7076
C7A C 0.6422(4) 0.5013(4) 0.4554(4)
H4A H 0.7378 0.5028 0.4251
C8A C 0.7209(4) 0.3897(4) 0.6654(4)
C8A_2 C -1.2791(4) 1.3897(4) 0.6654(4)
C9A C -0.6427(4) 1.0652(4) 0.5667(3)
C10A C -0.6140(4) 0.9535(4) 0.5034(4)
H5A H -0.6900 0.9215 0.5060
C11A C -0.5272(4) 1.1100(4) 0.5632(4)
H6A H -0.5450 1.1836 0.6062
C12A C -0.7933(4) 1.1302(4) 0.6442(3)
C13A C -1.3307(5) 1.2733(4) 1.0804(4)
C14A C -1.5220(5) 1.2431(5) 1.2355(4)
H7A H -1.5367 1.1542 1.2594
H8A H -1.5680 1.2978 1.3046
C15A C -1.5864(5) 1.3241(5) 1.1170(4)
H9A H -1.6615 1.4162 1.1313
H10A H -1.6304 1.2725 1.0860
C16A C -1.0437(6) 1.7330(5) 0.6486(4)
H11A H -0.9867 1.7415 0.5650
H12A H -1.1433 1.8060 0.6510
C17A C -0.9643(6) 1.7398(5) 0.7469(4)
H13A H -1.0078 1.8320 0.7743
H14A H -0.8579 1.7170 0.7165
C18A C -1.0285(4) 1.5439(4) 0.8044(4)
N1A N -1.4555(4) 1.3358(4) 1.0310(3)
H15A H -1.4585 1.3791 0.9554
N2A N -1.3651(4) 1.2205(4) 1.2008(3)
H16A H -1.3007 1.1781 1.2510
N3A N -1.0506(4) 1.5938(4) 0.6866(3)
H17A H -1.0670 1.5490 0.6387
N4A N -0.9914(5) 1.6325(4) 0.8464(3)
H18A H -0.9842 1.6270 0.9235
loop_
_geom_bond_atom_site_label_1
_geom_bond_atom_site_label_2
_geom_bond_site_symmetry_1
_geom_bond_site_symmetry_2
Gd1 O1 1_555 1_555
O1 C4 1_555 1_555
O2 C4 1_555 1_555
O3 Gd1 1_555 1_555
O4 Gd1 1_555 1_555
O5 Gd1 1_555 1_555
O6 Gd1 1_555 1_555
O7 Gd1 1_555 1_555
O8 Gd1 1_555 1_555
C1 C2 1_555 1_555
C2 H1 1_555 1_555
C3 C1 1_555 1_555
H2 C3 1_555 1_555
C4 C1 1_555 1_555
C5 C6 1_555 1_555
C6 H3 1_555 1_555
C7 C5 1_555 1_555
H4 C7 1_555 1_555
C8 O3 1_555 1_555
C9 C10 1_555 1_555
C10 H5 1_555 1_555
C11 C9 1_555 1_555
H6 C11 1_555 1_555
C12 O5 1_555 1_555
C13 O7 1_555 1_555
C14 H7 1_555 1_555
H8 C14 1_555 1_555
C15 C14 1_555 1_555
H9 C15 1_555 1_555
H10 C15 1_555 1_555
C16 H11 1_555 1_555
H12 C16 1_555 1_555
C17 C16 1_555 1_555
H13 C17 1_555 1_555
H14 C17 1_555 1_555
C18 O8 1_555 1_555
N1 C13 1_555 1_555
H15 N1 1_555 1_555
N2 C13 1_555 1_555
H16 N2 1_555 1_555
N3 C16 1_555 1_555
H17 N3 1_555 1_555
N4 C17 1_555 1_555
H18 N4 1_555 1_555
Gd1A O1A_2 1_555 1_555
Gd1_2 O2A 1_555 1_555
Gd1A_2 O2 1_555 1_555
Gd1A_3 O3A 1_555 1_555
Gd1A_4 O1A 1_555 1_555
O1A C4A 1_555 1_555
O2A C4A 1_555 1_555
O2_2 Gd1A 1_555 1_555
O2A_2 Gd1 1_555 1_555
O3A C8A 1_555 1_555
O3A_2 Gd1A 1_555 1_555
O4A Gd1A_3 1_555 1_555
O4A_2 Gd1A 1_555 1_555
O5A Gd1A 1_555 1_555
O6A Gd1A 1_555 1_555
O7A Gd1A 1_555 1_555
O8A Gd1A 1_555 1_555
C1A C2A 1_555 1_555
C2A C3 1_555 1_555
H1A C2A 1_555 1_555
C3A C2 1_555 1_555
H2A C3A 1_555 1_555
C4A C1A 1_555 1_555
C5A C6A 1_555 1_555
C6A C7 1_555 1_555
H3A C6A 1_555 1_555
C7A C6 1_555 1_555
H4A C7A 1_555 1_555
C8A O4A 1_555 1_555
C8A_2 O3A_2 1_555 1_555
C9A C10A 1_555 1_555
C10A C11 1_555 1_555
H5A C10A 1_555 1_555
C11A C10 1_555 1_555
H6A C11A 1_555 1_555
C12A O5A 1_555 1_555
C13A O7A 1_555 1_555
C14A H7A 1_555 1_555
H8A C14A 1_555 1_555
C15A C14A 1_555 1_555
H9A C15A 1_555 1_555
H10A C15A 1_555 1_555
C16A H11A 1_555 1_555
H12A C16A 1_555 1_555
C17A C16A 1_555 1_555
H13A C17A 1_555 1_555
H14A C17A 1_555 1_555
C18A O8A 1_555 1_555
N1A C13A 1_555 1_555
H15A N1A 1_555 1_555
N2A C13A 1_555 1_555
H16A N2A 1_555 1_555
N3A C16A 1_555 1_555
H17A N3A 1_555 1_555
N4A C17A 1_555 1_555
H18A N4A 1_555 1_555
O4 C8 1_555 1_555
O6 C12 1_555 1_555
C5 C8 1_555 1_555
C9 C12 1_555 1_555
C14 N2 1_555 1_555
C15 N1 1_555 1_555
C18 N3 1_555 1_555
C18 N4 1_555 1_555
O4A_2 C8A_2 1_555 1_555
O6A C12A 1_555 1_555
C1A C3A 1_555 1_555
C5A C7A 1_555 1_555
C5A C8A 1_555 1_555
C9A C11A 1_555 1_555
C9A C12A 1_555 1_555
C14A N2A 1_555 1_555
C15A N1A 1_555 1_555
C18A N3A 1_555 1_555
C18A N4A 1_555 1_555

#END
