
#######################################################################
#
#                 Cambridge Crystallographic Data Centre
#                                CCDC 
#
#######################################################################
#
# If this CIF has been generated from an entry in the Cambridge 
# Structural Database, then it will include bibliographic, chemical, 
# crystal, experimental, refinement or atomic coordinate data resulting 
# from the CCDC's data processing and validation procedures.
#
#######################################################################

data_LAGRUI
_symmetry_cell_setting           triclinic
_symmetry_space_group_name_H-M   'P -1'
_symmetry_Int_Tables_number      2
_space_group_name_Hall           '-P 1'
loop_
_symmetry_equiv_pos_site_id
_symmetry_equiv_pos_as_xyz
1 x,y,z
2 -x,-y,-z
_cell_length_a                   9.7738(4)
_cell_length_b                   9.8625(4)
_cell_length_c                   17.2013(7)
_cell_angle_alpha                79.481(3)
_cell_angle_beta                 84.160(3)
_cell_angle_gamma                67.850(3)
_cell_volume                     1508.94
loop_
_atom_site_label
_atom_site_type_symbol
_atom_site_fract_x
_atom_site_fract_y
_atom_site_fract_z
Zn1 Zn 0.10254(6) 0.77661(6) 0.19200(3)
Zn2 Zn 0.24205(6) 0.88716(6) 0.30124(3)
O1 O 0.1385(5) 0.7739(4) 0.3845(2)
O2 O 0.0538(4) 0.6797(4) 0.3015(2)
O3 O 0.3275(4) 0.9538(4) 0.1955(2)
O4 O 0.2071(4) 0.8937(4) 0.1125(2)
O5 O 0.0439(4) 1.0536(4) 0.2807(2)
O6 O -0.0698(4) 0.9652(4) 0.2067(2)
O7 O -0.5925(4) 1.6809(4) 0.2954(2)
O8 O -0.6905(4) 1.6118(4) 0.2036(2)
O9 O 0.3238(4) 0.9748(4) 0.3707(2)
O10 O 0.0234(4) 0.6893(4) 0.1219(2)
N1 N 0.1350(6) 0.6368(5) 0.0034(3)
N2 N 0.1565(6) 0.4488(5) 0.1102(3)
N3 N 0.5519(5) 0.8273(5) 0.4146(3)
N4 N 0.3510(5) 0.8848(5) 0.5012(3)
C1 C 0.0396(5) 0.5922(5) 0.4371(3)
C2 C 0.0385(6) 0.6134(5) 0.5149(3)
H1 H 0.0655 0.6891 0.5253
C3 C 0.0020(6) 0.4762(6) 0.4230(3)
H2 H 0.0042 0.4589 0.3714
C4 C 0.0808(6) 0.6899(5) 0.3686(3)
C5 C 0.4055(6) 0.9688(5) 0.0610(3)
C6 C 0.3698(6) 0.9911(6) -0.0170(3)
H3 H 0.2821 0.9844 -0.0289
C7 C 0.5380(6) 0.9769(6) 0.0776(3)
H4 H 0.5647 0.9606 0.1298
C8 C 0.3050(6) 0.9362(5) 0.1283(3)
C9 C -0.2015(5) 1.1975(5) 0.2468(3)
C10 C -0.2001(6) 1.3159(5) 0.2810(3)
H5 H -0.1143 1.3089 0.3032
C11 C -0.3318(5) 1.2124(5) 0.2139(3)
H6 H -0.3349 1.1348 0.1913
C12 C -0.0645(5) 1.0602(5) 0.2450(3)
C13 C -0.4541(6) 1.4562(5) 0.2487(3)
C14 C -0.3241(6) 1.4415(5) 0.2820(3)
H7 H -0.3215 1.5184 0.3053
C15 C -0.4558(5) 1.3387(6) 0.2140(3)
H8 H -0.5411 1.3465 0.1911
C16 C -0.5906(6) 1.5952(5) 0.2490(3)
C17 C 0.1038(6) 0.5942(6) 0.0798(3)
C18 C 0.2284(9) 0.5316(8) -0.0474(4)
H9 H 0.2846 0.5781 -0.0850
H10 H 0.1670 0.5027 -0.0768
C19 C 0.3309(10) 0.3985(9) 0.0008(5)
H11 H 0.3827 0.3242 -0.0327
H12 H 0.4038 0.4248 0.0224
C20 C 0.2519(8) 0.3361(7) 0.0659(4)
H13 H 0.1936 0.2917 0.0446
H14 H 0.3229 0.2589 0.1008
C21 C 0.0746(8) 0.7906(7) -0.0312(4)
H15 H 0.0162 0.8480 0.0081
H16 H 0.0135 0.8020 -0.0741
H17 H 0.1537 0.8243 -0.0507
C22 C 0.1126(9) 0.4014(7) 0.1908(4)
H18 H 0.0495 0.4866 0.2137
H19 H 0.1991 0.3501 0.2217
H20 H 0.0604 0.3364 0.1903
C23 C 0.4077(6) 0.8963(6) 0.4265(3)
C24 C 0.6484(8) 0.7209(10) 0.4744(5)
H21 H 0.7151 0.7627 0.4897
H22 H 0.7077 0.6324 0.4521
C25 C 0.5664(10) 0.6805(10) 0.5444(5)
H23 H 0.5342 0.6036 0.5345
H24 H 0.6327 0.6389 0.5881
C26 C 0.4399(9) 0.7999(9) 0.5676(4)
H25 H 0.4722 0.8642 0.5914
H26 H 0.3807 0.7603 0.6071
C27 C 0.6193(7) 0.8508(8) 0.3358(4)
H27 H 0.5455 0.9220 0.3011
H28 H 0.6599 0.7587 0.3153
H29 H 0.6965 0.8870 0.3391
C28 C 0.1936(7) 0.9591(8) 0.5174(4)
H30 H 0.1459 1.0108 0.4687
H31 H 0.1794 1.0284 0.5527
H32 H 0.1517 0.8870 0.5412
Zn1A Zn -0.10254(6) 0.22339(6) 0.80800(3)
Zn1_2 Zn -0.89746(6) 1.77661(6) 0.19200(3)
Zn1A_2 Zn 0.89746(6) -0.77661(6) 0.80800(3)
Zn1A_3 Zn 0.89746(6) 1.22339(6) -0.19200(3)
Zn2A Zn -0.24205(6) 0.11284(6) 0.69876(3)
Zn2_2 Zn -0.75795(6) 1.88716(6) 0.30124(3)
Zn2A_2 Zn 0.75795(6) -0.88716(6) 0.69876(3)
Zn2A_3 Zn 0.75795(6) 1.11284(6) -0.30124(3)
O1A O -0.1385(5) 0.2261(4) 0.6155(2)
O2A O -0.0538(4) 0.3203(4) 0.6985(2)
O3A O 0.6725(4) 1.0462(4) -0.1955(2)
O3A_2 O -0.3275(4) 0.0462(4) 0.8045(2)
O4A O 0.7929(4) 1.1063(4) -0.1125(2)
O4A_2 O -0.2071(4) 0.1063(4) 0.8875(2)
O5A O -0.0439(4) -0.0536(4) 0.7193(2)
O6A O 0.0698(4) 0.0348(4) 0.7933(2)
O7A O 0.5925(4) -0.6809(4) 0.7046(2)
O7_2 O 0.4075(4) 0.6809(4) 0.2954(2)
O7A_2 O -0.4075(4) 0.3191(4) 0.7046(2)
O8A O 0.6905(4) -0.6118(4) 0.7964(2)
O8_2 O 0.3095(4) 0.6118(4) 0.2036(2)
O8A_2 O -0.3095(4) 0.3882(4) 0.7964(2)
O9A O -0.3238(4) 0.0252(4) 0.6293(2)
O10A O -0.0234(4) 0.3107(4) 0.8781(2)
N1A N -0.1350(6) 0.3632(5) 0.9966(3)
N2A N -0.1565(6) 0.5512(5) 0.8898(3)
N3A N -0.5519(5) 0.1727(5) 0.5854(3)
N4A N -0.3510(5) 0.1152(5) 0.4988(3)
C1A C -0.0396(5) 0.4078(5) 0.5629(3)
C2A C -0.0385(6) 0.3866(5) 0.4851(3)
H1A H -0.0655 0.3109 0.4747
C3A C -0.0020(6) 0.5238(6) 0.5770(3)
H2A H -0.0042 0.5411 0.6286
C4A C -0.0808(6) 0.3101(5) 0.6314(3)
C5A C 0.5945(6) 1.0312(5) -0.0610(3)
C6A C 0.6302(6) 1.0089(6) 0.0170(3)
H3A H 0.7179 1.0156 0.0289
C7A C 0.4620(6) 1.0231(6) -0.0776(3)
H4A H 0.4353 1.0394 -0.1298
C8A C 0.6950(6) 1.0638(5) -0.1283(3)
C9A C 0.2015(5) -0.1975(5) 0.7532(3)
C10A C 0.2001(6) -0.3159(5) 0.7190(3)
H5A H 0.1143 -0.3089 0.6968
C11A C 0.3318(5) -0.2124(5) 0.7861(3)
H6A H 0.3349 -0.1348 0.8087
C12A C 0.0645(5) -0.0602(5) 0.7550(3)
C13A C 0.4541(6) -0.4562(5) 0.7513(3)
C14A C 0.3241(6) -0.4415(5) 0.7180(3)
H7A H 0.3215 -0.5184 0.6947
C15A C 0.4558(5) -0.3387(6) 0.7860(3)
H8A H 0.5411 -0.3465 0.8089
C16A C 0.5906(6) -0.5952(5) 0.7510(3)
C17A C -0.1038(6) 0.4058(6) 0.9202(3)
C18A C -0.2284(9) 0.4684(8) 1.0474(4)
H9A H -0.2846 0.4219 1.0850
H10A H -0.1670 0.4973 1.0768
C19A C -0.3309(10) 0.6015(9) 0.9992(5)
H11A H -0.3827 0.6758 1.0327
H12A H -0.4038 0.5752 0.9776
C20A C -0.2519(8) 0.6639(7) 0.9341(4)
H13A H -0.1936 0.7083 0.9554
H14A H -0.3229 0.7411 0.8992
C21A C -0.0746(8) 0.2094(7) 1.0312(4)
H15A H -0.0162 0.1520 0.9919
H16A H -0.0135 0.1980 1.0741
H17A H -0.1537 0.1757 1.0507
C22A C -0.1126(9) 0.5986(7) 0.8092(4)
H18A H -0.0495 0.5134 0.7863
H19A H -0.1991 0.6499 0.7783
H20A H -0.0604 0.6636 0.8097
C23A C -0.4077(6) 0.1037(6) 0.5735(3)
C24A C -0.6484(8) 0.2791(10) 0.5256(5)
H21A H -0.7151 0.2373 0.5103
H22A H -0.7077 0.3676 0.5479
C25A C -0.5664(10) 0.3195(10) 0.4556(5)
H23A H -0.5342 0.3964 0.4655
H24A H -0.6327 0.3611 0.4119
C26A C -0.4399(9) 0.2001(9) 0.4324(4)
H25A H -0.4722 0.1358 0.4086
H26A H -0.3807 0.2397 0.3929
C27A C -0.6193(7) 0.1492(8) 0.6642(4)
H27A H -0.5455 0.0780 0.6989
H28A H -0.6599 0.2413 0.6847
H29A H -0.6965 0.1130 0.6609
C28A C -0.1936(7) 0.0409(8) 0.4826(4)
H30A H -0.1459 -0.0108 0.5313
H31A H -0.1794 -0.0284 0.4473
H32A H -0.1517 0.1130 0.4588
loop_
_geom_bond_atom_site_label_1
_geom_bond_atom_site_label_2
_geom_bond_site_symmetry_1
_geom_bond_site_symmetry_2
Zn1 O2 1_555 1_555
Zn2 O1 1_555 1_555
O1 C4 1_555 1_555
O2 C4 1_555 1_555
O3 Zn2 1_555 1_555
O4 Zn1 1_555 1_555
O5 Zn2 1_555 1_555
O6 Zn1 1_555 1_555
O7 C16 1_555 1_555
O8 C16 1_555 1_555
O9 Zn2 1_555 1_555
O10 Zn1 1_555 1_555
N1 C17 1_555 1_555
N2 C17 1_555 1_555
N3 C23 1_555 1_555
N4 C23 1_555 1_555
C1 C2 1_555 1_555
C2 H1 1_555 1_555
C3 C1 1_555 1_555
H2 C3 1_555 1_555
C4 C1 1_555 1_555
C5 C6 1_555 1_555
C6 H3 1_555 1_555
C7 C5 1_555 1_555
H4 C7 1_555 1_555
C8 O3 1_555 1_555
C9 C10 1_555 1_555
C10 H5 1_555 1_555
C11 C9 1_555 1_555
H6 C11 1_555 1_555
C12 O5 1_555 1_555
C13 C14 1_555 1_555
C14 C10 1_555 1_555
H7 C14 1_555 1_555
C15 C11 1_555 1_555
H8 C15 1_555 1_555
C16 C13 1_555 1_555
C17 O10 1_555 1_555
C18 N1 1_555 1_555
H9 C18 1_555 1_555
H10 C18 1_555 1_555
C19 C18 1_555 1_555
H11 C19 1_555 1_555
H12 C19 1_555 1_555
C20 N2 1_555 1_555
H13 C20 1_555 1_555
H14 C20 1_555 1_555
C21 N1 1_555 1_555
H15 C21 1_555 1_555
H16 C21 1_555 1_555
H17 C21 1_555 1_555
C22 N2 1_555 1_555
H18 C22 1_555 1_555
H19 C22 1_555 1_555
H20 C22 1_555 1_555
C23 O9 1_555 1_555
C24 N3 1_555 1_555
H21 C24 1_555 1_555
H22 C24 1_555 1_555
C25 C24 1_555 1_555
H23 C25 1_555 1_555
H24 C25 1_555 1_555
C26 N4 1_555 1_555
H25 C26 1_555 1_555
H26 C26 1_555 1_555
C27 N3 1_555 1_555
H27 C27 1_555 1_555
H28 C27 1_555 1_555
H29 C27 1_555 1_555
C28 N4 1_555 1_555
H30 C28 1_555 1_555
H31 C28 1_555 1_555
H32 C28 1_555 1_555
Zn1A O2A 1_555 1_555
Zn1_2 O8 1_555 1_555
Zn1A_2 O8A 1_555 1_555
Zn1A_3 O4A 1_555 1_555
Zn2A O1A 1_555 1_555
Zn2_2 O7 1_555 1_555
Zn2A_2 O7A 1_555 1_555
Zn2A_3 O3A 1_555 1_555
O1A C4A 1_555 1_555
O2A C4A 1_555 1_555
O3A C8A 1_555 1_555
O3A_2 Zn2A 1_555 1_555
O4A C8A 1_555 1_555
O4A_2 Zn1A 1_555 1_555
O5A Zn2A 1_555 1_555
O6A Zn1A 1_555 1_555
O7A C16A 1_555 1_555
O7_2 Zn2 1_555 1_555
O7A_2 Zn2A 1_555 1_555
O8A C16A 1_555 1_555
O8_2 Zn1 1_555 1_555
O8A_2 Zn1A 1_555 1_555
O9A Zn2A 1_555 1_555
O10A Zn1A 1_555 1_555
N1A C17A 1_555 1_555
N2A C17A 1_555 1_555
N3A C23A 1_555 1_555
N4A C23A 1_555 1_555
C1A C2A 1_555 1_555
C2A C3 1_555 1_555
H1A C2A 1_555 1_555
C3A C2 1_555 1_555
H2A C3A 1_555 1_555
C4A C1A 1_555 1_555
C5A C6A 1_555 1_555
C6A C7 1_555 1_555
H3A C6A 1_555 1_555
C7A C6 1_555 1_555
H4A C7A 1_555 1_555
C8A C5A 1_555 1_555
C9A C10A 1_555 1_555
C10A H5A 1_555 1_555
C11A C9A 1_555 1_555
H6A C11A 1_555 1_555
C12A O5A 1_555 1_555
C13A C14A 1_555 1_555
C14A C10A 1_555 1_555
H7A C14A 1_555 1_555
C15A C11A 1_555 1_555
H8A C15A 1_555 1_555
C16A C13A 1_555 1_555
C17A O10A 1_555 1_555
C18A N1A 1_555 1_555
H9A C18A 1_555 1_555
H10A C18A 1_555 1_555
C19A C18A 1_555 1_555
H11A C19A 1_555 1_555
H12A C19A 1_555 1_555
C20A N2A 1_555 1_555
H13A C20A 1_555 1_555
H14A C20A 1_555 1_555
C21A N1A 1_555 1_555
H15A C21A 1_555 1_555
H16A C21A 1_555 1_555
H17A C21A 1_555 1_555
C22A N2A 1_555 1_555
H18A C22A 1_555 1_555
H19A C22A 1_555 1_555
H20A C22A 1_555 1_555
C23A O9A 1_555 1_555
C24A N3A 1_555 1_555
H21A C24A 1_555 1_555
H22A C24A 1_555 1_555
C25A C24A 1_555 1_555
H23A C25A 1_555 1_555
H24A C25A 1_555 1_555
C26A N4A 1_555 1_555
H25A C26A 1_555 1_555
H26A C26A 1_555 1_555
C27A N3A 1_555 1_555
H27A C27A 1_555 1_555
H28A C27A 1_555 1_555
H29A C27A 1_555 1_555
C28A N4A 1_555 1_555
H30A C28A 1_555 1_555
H31A C28A 1_555 1_555
H32A C28A 1_555 1_555
O4 C8 1_555 1_555
O6 C12 1_555 1_555
C5 C8 1_555 1_555
C9 C12 1_555 1_555
C13 C15 1_555 1_555
C19 C20 1_555 1_555
C25 C26 1_555 1_555
O6A C12A 1_555 1_555
C1A C3A 1_555 1_555
C5A C7A 1_555 1_555
C9A C12A 1_555 1_555
C13A C15A 1_555 1_555
C19A C20A 1_555 1_555
C25A C26A 1_555 1_555

#END
