
#######################################################################
#
#                 Cambridge Crystallographic Data Centre
#                                CCDC 
#
#######################################################################
#
# If this CIF has been generated from an entry in the Cambridge 
# Structural Database, then it will include bibliographic, chemical, 
# crystal, experimental, refinement or atomic coordinate data resulting 
# from the CCDC's data processing and validation procedures.
#
#######################################################################

data_LAGRIW
_symmetry_cell_setting           triclinic
_symmetry_space_group_name_H-M   'P -1'
_symmetry_Int_Tables_number      2
_space_group_name_Hall           '-P 1'
loop_
_symmetry_equiv_pos_site_id
_symmetry_equiv_pos_as_xyz
1 x,y,z
2 -x,-y,-z
_cell_length_a                   8.56790(10)
_cell_length_b                   10.18680(10)
_cell_length_c                   10.87240(10)
_cell_angle_alpha                66.7910(10)
_cell_angle_beta                 69.3160(10)
_cell_angle_gamma                78.2460(10)
_cell_volume                     813.627
loop_
_atom_site_label
_atom_site_type_symbol
_atom_site_fract_x
_atom_site_fract_y
_atom_site_fract_z
Yb1 Yb 0.65437(3) 0.43302(3) 0.15639(3)
O1 O 0.3702(5) 0.3821(4) 0.2583(4)
O2 O 0.8348(5) 0.5078(5) -0.0742(4)
H1 H 0.9037 0.5618 -0.0811
H2 H 0.7842 0.5424 -0.1365
O3 O 0.4544(5) 0.5185(4) 0.3328(4)
O4 O 0.5297(6) 0.6271(4) 0.0281(4)
O5 O 0.3415(6) 0.7475(5) -0.0785(5)
O6 O 0.6735(5) 0.2486(5) 0.3643(4)
O7 O 0.9073(5) 0.2862(4) 0.1908(5)
O8 O 0.8074(5) 0.5751(5) 0.1787(5)
C1 C 0.3392(7) 0.4604(6) 0.3327(6)
C2 C 0.1639(7) 0.4818(6) 0.4182(6)
C3 C 0.1228(8) 0.5762(7) 0.4907(6)
H3 H 0.2052 0.6269 0.4854
C4 C 0.0398(8) 0.4053(7) 0.4298(6)
H4 H 0.0667 0.3406 0.3831
C5 C 0.4442(8) 0.7400(7) -0.0181(7)
C6 C 0.4727(7) 0.8735(6) -0.0074(6)
C7 C 0.6271(8) 0.8942(6) -0.0095(6)
H5 H 0.7141 0.8235 -0.0165
C8 C 0.3456(8) 0.9809(6) 0.0012(7)
H6 H 0.2408 0.9689 0.0014
C9 C 0.8282(8) 0.2207(6) 0.3143(7)
C10 C 0.9168(8) 0.1040(6) 0.4110(7)
C11 C 1.0872(8) 0.0736(7) 0.3638(7)
H7 H 1.1465 0.1228 0.2714
C12 C 0.8288(8) 0.0282(7) 0.5488(7)
H8 H 0.7136 0.0462 0.5817
C13 C 0.8017(8) 0.6754(7) 0.2192(7)
C14 C 0.7095(10) 0.8384(7) 0.3329(8)
H9 H 0.6938 0.8201 0.4309
H10 H 0.6379 0.9218 0.2979
C15 C 0.8928(9) 0.8580(8) 0.2453(8)
H11 H 0.9082 0.9562 0.1816
H12 H 0.9641 0.8319 0.3048
N1 N 0.6769(7) 0.7145(6) 0.3140(6)
H13 H 0.5861 0.6713 0.3596
N2 N 0.9282(7) 0.7610(6) 0.1684(6)
H14 H 1.0172 0.7586 0.1002
Yb1A Yb -0.65437(3) 0.56698(3) 0.84361(3)
Yb1_2 Yb 0.65437(3) 1.43302(3) 0.15639(3)
Yb1A_2 Yb 0.34563(3) 0.56698(3) -0.15639(3)
Yb1A_3 Yb 0.34563(3) 1.56698(3) -0.15639(3)
Yb1A_4 Yb 1.34563(3) -0.43302(3) 0.84361(3)
O1A O -0.3702(5) 0.6179(4) 0.7417(4)
O2A O -0.8348(5) 0.4922(5) 1.0742(4)
H1A H -0.9037 0.4382 1.0811
H2A H -0.7842 0.4576 1.1365
O3A O -0.4544(5) 0.4815(4) 0.6672(4)
O4A O 0.4703(6) 1.3729(4) -0.0281(4)
O4A_2 O -0.5297(6) 0.3729(4) 0.9719(4)
O5A O 0.6585(6) 1.2525(5) 0.0785(5)
O5_2 O -0.6585(6) 0.7475(5) 0.9215(5)
O5A_2 O 0.6585(6) 0.2525(5) 0.0785(5)
O6A O 1.3265(5) -0.2486(5) 0.6357(4)
O6A_2 O -0.6735(5) 0.7514(5) 0.6357(4)
O7A O 1.0927(5) -0.2862(4) 0.8092(5)
O7A_2 O -0.9073(5) 0.7138(4) 0.8092(5)
O8A O -0.8074(5) 0.4249(5) 0.8213(5)
C1A C -0.3392(7) 0.5396(6) 0.6673(6)
C2A C -0.1639(7) 0.5182(6) 0.5818(6)
C3A C -0.1228(8) 0.4238(7) 0.5093(6)
H3A H -0.2052 0.3731 0.5146
C4A C -0.0398(8) 0.5947(7) 0.5702(6)
H4A H -0.0667 0.6594 0.6169
C5A C 0.5558(8) 1.2600(7) 0.0181(7)
C6A C 0.5273(7) 1.1265(6) 0.0074(6)
C7A C 0.3729(8) 1.1058(6) 0.0095(6)
H5A H 0.2859 1.1765 0.0165
C8A C 0.6544(8) 1.0191(6) -0.0012(7)
H6A H 0.7592 1.0311 -0.0014
C9A C 1.1718(8) -0.2207(6) 0.6857(7)
C9A_2 C -0.8282(8) 0.7793(6) 0.6857(7)
C10A C 1.0832(8) -0.1040(6) 0.5890(7)
C11A C 0.9128(8) -0.0736(7) 0.6362(7)
H7A H 0.8535 -0.1228 0.7286
C12A C 1.1712(8) -0.0282(7) 0.4512(7)
H8A H 1.2864 -0.0462 0.4183
C13A C -0.8017(8) 0.3246(7) 0.7808(7)
C14A C -0.7095(10) 0.1616(7) 0.6671(8)
H9A H -0.6938 0.1799 0.5691
H10A H -0.6379 0.0782 0.7021
C15A C -0.8928(9) 0.1420(8) 0.7547(8)
H11A H -0.9082 0.0438 0.8184
H12A H -0.9641 0.1681 0.6952
N1A N -0.6769(7) 0.2855(6) 0.6860(6)
H13A H -0.5861 0.3287 0.6404
N2A N -0.9282(7) 0.2390(6) 0.8316(6)
H14A H -1.0172 0.2414 0.8998
loop_
_geom_bond_atom_site_label_1
_geom_bond_atom_site_label_2
_geom_bond_site_symmetry_1
_geom_bond_site_symmetry_2
Yb1 O1 1_555 1_555
O1 C1 1_555 1_555
O2 Yb1 1_555 1_555
H1 O2 1_555 1_555
H2 O2 1_555 1_555
O3 Yb1 1_555 1_555
O4 Yb1 1_555 1_555
O5 C5 1_555 1_555
O6 Yb1 1_555 1_555
O7 Yb1 1_555 1_555
O8 Yb1 1_555 1_555
C1 O3 1_555 1_555
C2 C1 1_555 1_555
C3 C2 1_555 1_555
H3 C3 1_555 1_555
C4 C2 1_555 1_555
H4 C4 1_555 1_555
C5 O4 1_555 1_555
C6 C5 1_555 1_555
C7 C6 1_555 1_555
H5 C7 1_555 1_555
C8 C6 1_555 1_555
H6 C8 1_555 1_555
C9 O6 1_555 1_555
C10 C9 1_555 1_555
C11 C10 1_555 1_555
H7 C11 1_555 1_555
C12 C10 1_555 1_555
H8 C12 1_555 1_555
C13 O8 1_555 1_555
C14 H9 1_555 1_555
H10 C14 1_555 1_555
C15 C14 1_555 1_555
H11 C15 1_555 1_555
H12 C15 1_555 1_555
N1 C13 1_555 1_555
H13 N1 1_555 1_555
N2 C13 1_555 1_555
H14 N2 1_555 1_555
Yb1A O1A 1_555 1_555
Yb1_2 O5A 1_555 1_555
Yb1A_2 O5 1_555 1_555
Yb1A_3 O4A 1_555 1_555
Yb1A_4 O6A 1_555 1_555
O1A C1A 1_555 1_555
O2A Yb1A 1_555 1_555
H1A O2A 1_555 1_555
H2A O2A 1_555 1_555
O3A Yb1A 1_555 1_555
O4A C5A 1_555 1_555
O4A_2 Yb1A 1_555 1_555
O5A C5A 1_555 1_555
O5_2 Yb1A 1_555 1_555
O5A_2 Yb1 1_555 1_555
O6A C9A 1_555 1_555
O6A_2 Yb1A 1_555 1_555
O7A Yb1A_4 1_555 1_555
O7A_2 Yb1A 1_555 1_555
O8A Yb1A 1_555 1_555
C1A O3A 1_555 1_555
C2A C1A 1_555 1_555
C3A C4 1_555 1_555
H3A C3A 1_555 1_555
C4A C3 1_555 1_555
H4A C4A 1_555 1_555
C5A C6A 1_555 1_555
C6A C7A 1_555 1_555
C7A C8 1_555 1_555
H5A C7A 1_555 1_555
C8A C7 1_555 1_555
H6A C8A 1_555 1_555
C9A O7A 1_555 1_555
C9A_2 O6A_2 1_555 1_555
C10A C9A 1_555 1_555
C11A C12 1_555 1_555
H7A C11A 1_555 1_555
C12A C11 1_555 1_555
H8A C12A 1_555 1_555
C13A O8A 1_555 1_555
C14A H9A 1_555 1_555
H10A C14A 1_555 1_555
C15A C14A 1_555 1_555
H11A C15A 1_555 1_555
H12A C15A 1_555 1_555
N1A C13A 1_555 1_555
H13A N1A 1_555 1_555
N2A C13A 1_555 1_555
H14A N2A 1_555 1_555
O7 C9 1_555 1_555
C14 N1 1_555 1_555
C15 N2 1_555 1_555
O7A_2 C9A_2 1_555 1_555
C2A C3A 1_555 1_555
C2A C4A 1_555 1_555
C6A C8A 1_555 1_555
C10A C11A 1_555 1_555
C10A C12A 1_555 1_555
C14A N1A 1_555 1_555
C15A N2A 1_555 1_555

#END
