
#######################################################################
#
#                 Cambridge Crystallographic Data Centre
#                                CCDC 
#
#######################################################################
#
# If this CIF has been generated from an entry in the Cambridge 
# Structural Database, then it will include bibliographic, chemical, 
# crystal, experimental, refinement or atomic coordinate data resulting 
# from the CCDC's data processing and validation procedures.
#
#######################################################################

data_LAGSUJ
_symmetry_cell_setting           triclinic
_symmetry_space_group_name_H-M   'P -1'
_symmetry_Int_Tables_number      2
_space_group_name_Hall           '-P 1'
loop_
_symmetry_equiv_pos_site_id
_symmetry_equiv_pos_as_xyz
1 x,y,z
2 -x,-y,-z
_cell_length_a                   9.7729(6)
_cell_length_b                   14.5265(10)
_cell_length_c                   16.0240(11)
_cell_angle_alpha                70.126(3)
_cell_angle_beta                 77.453(4)
_cell_angle_gamma                84.463(4)
_cell_volume                     2087.65
loop_
_atom_site_label
_atom_site_type_symbol
_atom_site_fract_x
_atom_site_fract_y
_atom_site_fract_z
Yb1 Yb 0.240562(13) 0.025796(9) 0.542356(9)
Yb2 Yb 0.182293(15) 0.038366(10) 0.845655(10)
O1 O 0.1685(3) 0.16511(18) 0.71832(17)
O2 O 0.1132(2) 0.12535(16) 0.60792(16)
O3 O 0.5921(2) 0.87191(17) 0.46836(17)
O4 O 0.3912(2) 0.95719(18) 0.45752(17)
O5 O 0.2117(3) 0.57803(18) 0.4071(2)
O6 O 0.3422(3) -0.05193(18) 0.78111(19)
O7 O 0.3235(3) -0.07690(18) 0.65557(17)
O8 O 0.3982(3) -0.8852(2) 0.8278(2)
O9 O 0.2091(2) -0.85013(17) 0.91450(17)
O10 O 0.5693(3) -0.48970(19) 0.8661(3)
O11 O 0.1538(2) 0.10670(17) 0.41906(16)
O12 O -0.0621(2) 0.07213(17) 0.41869(17)
O13 O 0.1827(3) 0.92122(18) -0.02445(18)
O14 O 0.0406(3) 0.91542(17) 0.10515(18)
O15 O -0.0112(3) 0.48468(18) 0.11333(19)
O16 O 0.0466(3) -0.05663(18) 0.81308(19)
C1 C 0.1978(4) 0.4846(2) 0.4680(3)
C2 C 0.1738(4) 0.4138(3) 0.4333(3)
H1 H 0.1702 0.4307 0.3724
C3 C 0.1553(4) 0.3183(3) 0.4892(2)
H2 H 0.1386 0.2711 0.4656
C4 C 0.1611(3) 0.2912(2) 0.5803(2)
C5 C 0.1849(4) 0.3631(3) 0.6141(3)
H3 H 0.1892 0.3461 0.6749
C6 C 0.2022(4) 0.4595(3) 0.5590(3)
H4 H 0.2167 0.5071 0.5828
C7 C 0.1470(3) 0.1873(2) 0.6399(2)
C8 C 0.2758(4) 0.6487(3) 0.4253(3)
C9 C 0.4083(5) 0.6357(3) 0.4428(4)
H5 H 0.4569 0.5766 0.4468
C10 C 0.4697(4) 0.7111(3) 0.4547(4)
H6 H 0.5595 0.7022 0.4673
C11 C 0.5105(4) -0.3966(3) 0.8325(4)
C12 C 0.3997(3) 0.7981(2) 0.4480(2)
C13 C 0.2654(4) 0.8098(3) 0.4321(3)
H7 H 0.2161 0.8685 0.4293
C14 C 0.5011(4) -0.3578(3) 0.7426(3)
H8 H 0.5262 -0.3955 0.7047
C15 C 0.4535(4) -0.2613(3) 0.7092(3)
H9 H 0.4466 -0.2343 0.6487
C16 C 0.2033(4) 0.7350(3) 0.4201(3)
H10 H 0.1128 0.7433 0.4085
C17 C 0.4164(3) -0.2057(2) 0.7657(2)
C18 C 0.4655(3) 0.8813(2) 0.4589(2)
C19 C 0.4297(4) -0.2466(3) 0.8552(3)
H11 H 0.4069 -0.2091 0.8934
C20 C 0.4767(5) -0.3426(3) 0.8886(3)
H12 H 0.4849 -0.3698 0.9490
C21 C 0.3568(3) -0.1038(2) 0.7323(2)
C22 C 0.5062(4) -0.5702(3) 0.8615(4)
C23 C 0.5919(5) -0.6346(3) 0.8272(4)
H13 H 0.6859 -0.6210 0.8022
C24 C 0.5364(5) -0.7207(3) 0.8302(4)
H14 H 0.5935 -0.7653 0.8076
C25 C 0.3957(4) -0.7399(2) 0.8670(3)
C26 C 0.3129(4) -0.6726(3) 0.8996(3)
H15 H 0.2187 -0.6853 0.9247
C27 C 0.3676(4) -0.5858(3) 0.8957(3)
H16 H 0.3104 -0.5396 0.9161
C28 C 0.3329(4) -0.8307(3) 0.8704(3)
C29 C 0.0039(4) 0.4025(2) 0.1874(2)
C30 C 0.1324(4) 0.3708(3) 0.2084(3)
H17 H 0.2110 0.4087 0.1783
C31 C 0.1442(4) 0.2815(3) 0.2750(3)
H18 H 0.2314 0.2597 0.2894
C32 C 0.0291(3) 0.2247(2) 0.3201(2)
C33 C -0.0992(4) 0.2589(3) 0.2969(3)
H19 H -0.1781 0.2213 0.3263
C34 C 0.0410(3) 0.1279(2) 0.3906(2)
C35 C -0.1119(4) 0.3483(3) 0.2308(3)
H20 H -0.1988 0.3710 0.2162
C36 C 0.0365(4) 0.5744(2) 0.1044(2)
C37 C 0.0797(4) 0.6342(3) 0.0171(3)
H21 H 0.0896 0.6098 -0.0306
C38 C 0.1086(4) 0.7313(2) 0.0000(2)
H22 H 0.1389 0.7720 -0.0591
C39 C 0.0922(3) 0.7675(2) 0.0710(2)
C40 C 0.0519(4) 0.7059(3) 0.1587(2)
H23 H 0.0422 0.7300 0.2066
C41 C 0.0258(4) 0.6085(3) 0.1760(2)
H24 H 0.0013 0.5666 0.2352
C42 C 0.1068(3) 0.8756(2) 0.0497(3)
C43 C -0.0837(4) -0.0547(3) 0.8175(3)
C44 C -0.3203(5) -0.0714(5) 0.8737(4)
H25 H -0.3606 -0.0275 0.9072
H26 H -0.3810 -0.1266 0.8915
C45 C -0.2973(4) -0.0188(4) 0.7728(3)
H27 H -0.3229 -0.0590 0.7414
H28 H -0.3502 0.0427 0.7587
N1 N -0.1779(4) -0.1037(3) 0.8880(2)
H29 H -0.1582 -0.1483 0.9354
N2 N -0.1476(4) -0.0030(3) 0.7502(2)
H30 H -0.1051 0.0354 0.6991
Yb1A Yb 0.759438(13) 0.974204(9) 0.457644(9)
Yb1_2 Yb 0.240562(13) 1.025796(9) 0.542356(9)
Yb1A_2 Yb -0.240562(13) -0.025796(9) 0.457644(9)
Yb2_2 Yb 0.182293(15) -0.961634(10) 0.845655(10)
Yb2_3 Yb 0.182293(15) 1.038366(10) -0.154345(10)
Yb2A Yb -0.182293(15) 0.961634(10) 0.154345(10)
O3A O 0.4079(2) 0.12809(17) 0.53164(17)
O4_2 O 0.3912(2) -0.04281(18) 0.45752(17)
O8_2 O 0.3982(3) 0.1148(2) 0.8278(2)
O9_2 O 0.2091(2) 0.14987(17) 0.91450(17)
O12A O 0.0621(2) -0.07213(17) 0.58131(17)
O13_2 O 0.1827(3) -0.07878(18) 0.97555(18)
O14A O -0.0406(3) 0.08458(17) 0.89485(18)
loop_
_geom_bond_atom_site_label_1
_geom_bond_atom_site_label_2
_geom_bond_site_symmetry_1
_geom_bond_site_symmetry_2
Yb1 O2 1_555 1_555
Yb2 O1 1_555 1_555
O1 C7 1_555 1_555
O2 C7 1_555 1_555
O3 C18 1_555 1_555
O4 C18 1_555 1_555
O5 C1 1_555 1_555
O6 Yb2 1_555 1_555
O7 Yb1 1_555 1_555
O8 C28 1_555 1_555
O9 C28 1_555 1_555
O10 C11 1_555 1_555
O11 Yb1 1_555 1_555
O12 C34 1_555 1_555
O13 C42 1_555 1_555
O14 C42 1_555 1_555
O15 C29 1_555 1_555
O16 Yb2 1_555 1_555
C1 C2 1_555 1_555
C2 H1 1_555 1_555
C3 C2 1_555 1_555
H2 C3 1_555 1_555
C4 C3 1_555 1_555
C5 C4 1_555 1_555
H3 C5 1_555 1_555
C6 C1 1_555 1_555
H4 C6 1_555 1_555
C7 C4 1_555 1_555
C8 O5 1_555 1_555
C9 C8 1_555 1_555
H5 C9 1_555 1_555
C10 C9 1_555 1_555
H6 C10 1_555 1_555
C11 C14 1_555 1_555
C12 C10 1_555 1_555
C13 C12 1_555 1_555
H7 C13 1_555 1_555
C14 H8 1_555 1_555
C15 C14 1_555 1_555
H9 C15 1_555 1_555
C16 C8 1_555 1_555
H10 C16 1_555 1_555
C17 C15 1_555 1_555
C18 C12 1_555 1_555
C19 C17 1_555 1_555
H11 C19 1_555 1_555
C20 C11 1_555 1_555
H12 C20 1_555 1_555
C21 O6 1_555 1_555
C22 O10 1_555 1_555
C23 C22 1_555 1_555
H13 C23 1_555 1_555
C24 C23 1_555 1_555
H14 C24 1_555 1_555
C25 C24 1_555 1_555
C26 C25 1_555 1_555
H15 C26 1_555 1_555
C27 C22 1_555 1_555
H16 C27 1_555 1_555
C28 C25 1_555 1_555
C29 C30 1_555 1_555
C30 H17 1_555 1_555
C31 C30 1_555 1_555
H18 C31 1_555 1_555
C32 C31 1_555 1_555
C33 C32 1_555 1_555
H19 C33 1_555 1_555
C34 O11 1_555 1_555
C35 C29 1_555 1_555
H20 C35 1_555 1_555
C36 O15 1_555 1_555
C37 C36 1_555 1_555
H21 C37 1_555 1_555
C38 C37 1_555 1_555
H22 C38 1_555 1_555
C39 C38 1_555 1_555
C40 C39 1_555 1_555
H23 C40 1_555 1_555
C41 C36 1_555 1_555
H24 C41 1_555 1_555
C42 C39 1_555 1_555
C43 O16 1_555 1_555
C44 H25 1_555 1_555
H26 C44 1_555 1_555
C45 C44 1_555 1_555
H27 C45 1_555 1_555
H28 C45 1_555 1_555
N1 C43 1_555 1_555
H29 N1 1_555 1_555
N2 C43 1_555 1_555
H30 N2 1_555 1_555
Yb1A O3 1_555 1_555
Yb1_2 O4 1_555 1_555
Yb1A_2 O12 1_555 1_555
Yb2_2 O8 1_555 1_555
Yb2_3 O13 1_555 1_555
Yb2A O14 1_555 1_555
O3A Yb1 1_555 1_555
O4_2 Yb1 1_555 1_555
O8_2 Yb2 1_555 1_555
O9_2 Yb2 1_555 1_555
O12A Yb1 1_555 1_555
O13_2 Yb2 1_555 1_555
O14A Yb2 1_555 1_555
O7 C21 1_555 1_555
O9 Yb2_2 1_555 1_555
C5 C6 1_555 1_555
C13 C16 1_555 1_555
C17 C21 1_555 1_555
C19 C20 1_555 1_555
C26 C27 1_555 1_555
C32 C34 1_555 1_555
C33 C35 1_555 1_555
C40 C41 1_555 1_555
C44 N1 1_555 1_555
C45 N2 1_555 1_555

#END
