
#######################################################################
#
#                 Cambridge Crystallographic Data Centre
#                                CCDC 
#
#######################################################################
#
# If this CIF has been generated from an entry in the Cambridge 
# Structural Database, then it will include bibliographic, chemical, 
# crystal, experimental, refinement or atomic coordinate data resulting 
# from the CCDC's data processing and validation procedures.
#
#######################################################################

data_LAGSET
_symmetry_cell_setting           orthorhombic
_symmetry_space_group_name_H-M   'P 21 21 2'
_symmetry_Int_Tables_number      18
_space_group_name_Hall           'P 2 2ab'
loop_
_symmetry_equiv_pos_site_id
_symmetry_equiv_pos_as_xyz
1 x,y,z
2 -x,-y,z
3 1/2-x,1/2+y,-z
4 1/2+x,1/2-y,-z
_cell_length_a                   13.771(4)
_cell_length_b                   14.247(5)
_cell_length_c                   9.167(3)
_cell_angle_alpha                90
_cell_angle_beta                 90
_cell_angle_gamma                90
_cell_volume                     1798.52
loop_
_atom_site_label
_atom_site_type_symbol
_atom_site_fract_x
_atom_site_fract_y
_atom_site_fract_z
Li1 Li 0.1013(4) 0.5016(6) -0.0362(7)
Li2 Li 0.5000(6) 0.3807(4) -0.2548(6)
O1 O 0.4973(5) 0.3714(3) -0.4601(4)
O2 O 0.0000 0.5000 -0.2052(4)
N1 N 0.3844(3) 0.4534(3) -0.1710(6)
N2 N 0.3799(3) 0.5483(3) -0.1838(5)
N3 N 0.2395(2) 0.4999(4) -0.0944(5)
N4 N 0.0493(3) 0.6134(3) 0.0711(5)
N5 N -0.0499(3) 0.6175(3) 0.0624(5)
N6 N 0.0019(4) 0.7465(2) 0.1728(4)
N7 N 0.4401(11) 0.3315(9) -0.6818(9)
N8 N 0.5868(10) 0.3981(7) -0.6570(9)
N9 N 0.0529(6) 0.4432(6) -0.4224(6)
C1 C 0.3002(4) 0.4300(4) -0.1164(8)
H1 H 0.2842 0.3682 -0.0945
C2 C 0.2926(4) 0.5711(4) -0.1392(6)
H2 H 0.2699 0.6326 -0.1391
C3 C 0.0746(4) 0.6921(4) 0.1361(6)
H3 H 0.1390 0.7078 0.1545
C4 C -0.0733(4) 0.6966(3) 0.1253(6)
H4 H -0.1372 0.7163 0.1360
C5 C 0.5108(7) 0.3671(4) -0.5914(6)
C6 C 0.4857(10) 0.3331(9) -0.8271(15)
H5 H 0.4896 0.2701 -0.8667
H6 H 0.4479 0.3716 -0.8934
C7 C 0.5831(12) 0.3725(12) -0.809(2)
H7 H 0.6325 0.3263 -0.8318
H8 H 0.5922 0.4270 -0.8707
C8 C 0.3623(14) 0.2790(14) -0.622(2)
H9 H 0.3512 0.2983 -0.5235
H10 H 0.3784 0.2134 -0.6242
H11 H 0.3048 0.2896 -0.6790
C9 C 0.6690(9) 0.4349(11) -0.598(2)
H12 H 0.6596 0.4443 -0.4951
H13 H 0.6832 0.4940 -0.6435
H14 H 0.7221 0.3924 -0.6130
C10 C 0.0000 0.5000 -0.3406(6)
C11 C 0.0334(6) 0.4679(6) -0.5769(10)
H15 H 0.0920 0.4913 -0.6230
H16 H 0.0113 0.4131 -0.6302
C12 C 0.1139(9) 0.3745(7) -0.3720(16)
H17 H 0.1153 0.3761 -0.2673
H18 H 0.1782 0.3851 -0.4092
H19 H 0.0911 0.3143 -0.4040
Li1A Li -0.1013(4) 0.4984(6) -0.0362(7)
Li2A Li -0.5000(6) 0.6193(4) -0.2548(6)
Li2_2 Li -0.5000(6) 0.3807(4) -0.2548(6)
Li2A_2 Li 0.5000(6) 0.6193(4) -0.2548(6)
Li2B Li 0.0000(6) 0.8807(4) 0.2548(6)
Li2C Li 0.0000(6) 0.1193(4) 0.2548(6)
O1A O -0.4973(5) 0.6286(3) -0.4601(4)
N1A N -0.3844(3) 0.5466(3) -0.1710(6)
N2A N -0.3799(3) 0.4517(3) -0.1838(5)
N2_2 N -0.6201(3) 0.5483(3) -0.1838(5)
N2A_2 N 0.6201(3) 0.4517(3) -0.1838(5)
N3A N -0.2395(2) 0.5001(4) -0.0944(5)
N4A N -0.0493(3) 0.3866(3) 0.0711(5)
N5A N 0.0499(3) 0.3825(3) 0.0624(5)
N6A N -0.0019(4) 0.2535(2) 0.1728(4)
N6B N 0.4981(4) 0.2465(2) -0.1728(4)
N6C N -0.4981(4) 0.7535(2) -0.1728(4)
N7A N -0.4401(11) 0.6685(9) -0.6818(9)
N8A N -0.5868(10) 0.6019(7) -0.6570(9)
N9A N -0.0529(6) 0.5568(6) -0.4224(6)
C1A C -0.3002(4) 0.5700(4) -0.1164(8)
H1A H -0.2842 0.6318 -0.0945
C2A C -0.2926(4) 0.4289(4) -0.1392(6)
H2A H -0.2699 0.3674 -0.1391
C3A C -0.0746(4) 0.3079(4) 0.1361(6)
H3A H -0.1390 0.2922 0.1545
C4A C 0.0733(4) 0.3034(3) 0.1253(6)
H4A H 0.1372 0.2837 0.1360
C5A C -0.5108(7) 0.6329(4) -0.5914(6)
C6A C -0.4857(10) 0.6669(9) -0.8271(15)
H5A H -0.4896 0.7299 -0.8667
H6A H -0.4479 0.6284 -0.8934
C7A C -0.5831(12) 0.6275(12) -0.809(2)
H7A H -0.6325 0.6737 -0.8318
H8A H -0.5922 0.5730 -0.8707
C8A C -0.3623(14) 0.7210(14) -0.622(2)
H9A H -0.3512 0.7017 -0.5235
H10A H -0.3784 0.7866 -0.6242
H11A H -0.3048 0.7104 -0.6790
C9A C -0.6690(9) 0.5651(11) -0.598(2)
H12A H -0.6596 0.5557 -0.4951
H13A H -0.6832 0.5060 -0.6435
H14A H -0.7221 0.6076 -0.6130
C11A C -0.0334(6) 0.5321(6) -0.5769(10)
H15A H -0.0920 0.5087 -0.6230
H16A H -0.0113 0.5869 -0.6302
C12A C -0.1139(9) 0.6255(7) -0.3720(16)
H17A H -0.1153 0.6239 -0.2673
H18A H -0.1782 0.6149 -0.4092
H19A H -0.0911 0.6857 -0.4040
loop_
_geom_bond_atom_site_label_1
_geom_bond_atom_site_label_2
_geom_bond_site_symmetry_1
_geom_bond_site_symmetry_2
Li1 O2 1_555 1_555
Li2 O1 1_555 1_555
O1 C5 1_555 1_555
O2 C10 1_555 1_555
N1 Li2 1_555 1_555
N2 N1 1_555 1_555
N3 Li1 1_555 1_555
N4 Li1 1_555 1_555
N5 N4 1_555 1_555
N6 C3 1_555 1_555
N7 C5 1_555 1_555
N8 C5 1_555 1_555
N9 C10 1_555 1_555
C1 N1 1_555 1_555
H1 C1 1_555 1_555
C2 N2 1_555 1_555
H2 C2 1_555 1_555
C3 N4 1_555 1_555
H3 C3 1_555 1_555
C4 N5 1_555 1_555
H4 C4 1_555 1_555
C6 N7 1_555 1_555
H5 C6 1_555 1_555
H6 C6 1_555 1_555
C7 N8 1_555 1_555
H7 C7 1_555 1_555
H8 C7 1_555 1_555
C8 N7 1_555 1_555
H9 C8 1_555 1_555
H10 C8 1_555 1_555
H11 C8 1_555 1_555
C9 N8 1_555 1_555
H12 C9 1_555 1_555
H13 C9 1_555 1_555
H14 C9 1_555 1_555
C10 N9A 1_555 1_555
C11 N9 1_555 1_555
H15 C11 1_555 1_555
H16 C11 1_555 1_555
C12 N9 1_555 1_555
H17 C12 1_555 1_555
H18 C12 1_555 1_555
H19 C12 1_555 1_555
Li1A O2 1_555 1_555
Li2A O1A 1_555 1_555
Li2_2 N2A 1_555 1_555
Li2A_2 N2 1_555 1_555
Li2B N6 1_555 1_555
Li2C N6A 1_555 1_555
O1A C5A 1_555 1_555
N1A Li2A 1_555 1_555
N2A N1A 1_555 1_555
N2_2 Li2A 1_555 1_555
N2A_2 Li2 1_555 1_555
N3A Li1A 1_555 1_555
N4A Li1A 1_555 1_555
N5A Li1 1_555 1_555
N6A C3A 1_555 1_555
N6B Li2 1_555 1_555
N6C Li2A 1_555 1_555
N7A C5A 1_555 1_555
N8A C5A 1_555 1_555
N9A C11A 1_555 1_555
C1A N1A 1_555 1_555
H1A C1A 1_555 1_555
C2A N2A 1_555 1_555
H2A C2A 1_555 1_555
C3A N4A 1_555 1_555
H3A C3A 1_555 1_555
C4A N5A 1_555 1_555
H4A C4A 1_555 1_555
C6A N7A 1_555 1_555
H5A C6A 1_555 1_555
H6A C6A 1_555 1_555
C7A N8A 1_555 1_555
H7A C7A 1_555 1_555
H8A C7A 1_555 1_555
C8A N7A 1_555 1_555
H9A C8A 1_555 1_555
H10A C8A 1_555 1_555
H11A C8A 1_555 1_555
C9A N8A 1_555 1_555
H12A C9A 1_555 1_555
H13A C9A 1_555 1_555
H14A C9A 1_555 1_555
C11A C11 1_555 1_555
H15A C11A 1_555 1_555
H16A C11A 1_555 1_555
C12A N9A 1_555 1_555
H17A C12A 1_555 1_555
H18A C12A 1_555 1_555
H19A C12A 1_555 1_555
N3 C1 1_555 1_555
N3 C2 1_555 1_555
N5 Li1A 1_555 1_555
N6 C4 1_555 1_555
C6 C7 1_555 1_555
N3A C1A 1_555 1_555
N3A C2A 1_555 1_555
N4A N5A 1_555 1_555
N6A C4A 1_555 1_555
C6A C7A 1_555 1_555

#END
