
#######################################################################
#
#                 Cambridge Crystallographic Data Centre
#                                CCDC 
#
#######################################################################
#
# If this CIF has been generated from an entry in the Cambridge 
# Structural Database, then it will include bibliographic, chemical, 
# crystal, experimental, refinement or atomic coordinate data resulting 
# from the CCDC's data processing and validation procedures.
#
#######################################################################

data_LAGSAP
_symmetry_cell_setting           orthorhombic
_symmetry_space_group_name_H-M   'C c c a'
_symmetry_Int_Tables_number      68
_space_group_name_Hall           '-C 2b 2bc'
loop_
_symmetry_equiv_pos_site_id
_symmetry_equiv_pos_as_xyz
1 x,y,z
2 1/2-x,-y,z
3 -x,y,1/2-z
4 1/2+x,-y,1/2-z
5 1/2+x,1/2+y,z
6 -x,1/2-y,z
7 1/2-x,1/2+y,1/2-z
8 x,1/2-y,1/2-z
9 -x,-y,-z
10 1/2+x,y,-z
11 x,-y,1/2+z
12 1/2-x,y,1/2+z
13 1/2-x,1/2-y,-z
14 x,1/2+y,-z
15 1/2+x,1/2-y,1/2+z
16 -x,1/2+y,1/2+z
_cell_length_a                   12.8369(3)
_cell_length_b                   18.7513(4)
_cell_length_c                   19.3939(5)
_cell_angle_alpha                90
_cell_angle_beta                 90
_cell_angle_gamma                90
_cell_volume                     4668.28
loop_
_atom_site_label
_atom_site_type_symbol
_atom_site_fract_x
_atom_site_fract_y
_atom_site_fract_z
Cd1 Cd 0.7500 0.0000 0.155200(14)
O1 O 0.6701(2) 0.07935(12) 0.07623(12)
O2 O 0.8196(2) 0.10844(12) 0.12219(12)
O3 O 0.6296(2) 0.01296(14) 0.23552(12)
N1 N 0.6012(3) -0.02074(17) 0.34571(14)
N2 N 0.6234(2) 0.09840(17) 0.31718(15)
C1 C 0.7469(3) 0.18883(15) 0.04045(15)
C2 C 0.6644(3) 0.20604(16) -0.00167(17)
H1 H 0.6061 0.1767 -0.0028
C3 C 0.6675(3) 0.26691(17) -0.04248(16)
H2 H 0.6118 0.2778 -0.0712
C4 C 0.7447(3) 0.12111(18) 0.08266(15)
C5 C 0.6185(3) 0.0302(2) 0.29756(17)
C6 C 0.5716(3) -0.00311(19) 0.41607(17)
H3 H 0.5937 -0.0410 0.4468
H4 H 0.4964 0.0009 0.4191
C7 C 0.6203(3) 0.0653(2) 0.43789(18)
H5 H 0.5930 0.0793 0.4825
H6 H 0.6950 0.0590 0.4424
C8 C 0.5986(4) 0.1225(2) 0.38672(19)
H7 H 0.5256 0.1357 0.3891
H8 H 0.6399 0.1643 0.3977
C9 C 0.5874(4) -0.0938(2) 0.3254(2)
H9 H 0.6092 -0.0997 0.2784
H10 H 0.5152 -0.1065 0.3295
H11 H 0.6284 -0.1241 0.3547
C10 C 0.6407(3) 0.1534(2) 0.2653(2)
H12 H 0.6566 0.1314 0.2219
H13 H 0.6978 0.1831 0.2791
H14 H 0.5790 0.1819 0.2607
Cd1L Cd 0.7500 0.5000 -0.155200(14)
O1L O 0.8299(2) 0.42065(12) -0.07623(12)
O1A O 0.8299(2) -0.07935(12) 0.07623(12)
O2L O 0.6804(2) 0.39156(12) -0.12219(12)
O2A O 0.6804(2) -0.10844(12) 0.12219(12)
O3A O 0.8704(2) -0.01296(14) 0.23552(12)
N1A N 0.8988(3) 0.02074(17) 0.34571(14)
N2A N 0.8766(2) -0.09840(17) 0.31718(15)
C1L C 0.7531(3) 0.31117(15) -0.04045(15)
C2L C 0.8356(3) 0.29396(16) 0.00167(17)
H1L H 0.8939 0.3233 0.0028
C3L C 0.8325(3) 0.23309(17) 0.04248(16)
H2L H 0.8882 0.2222 0.0712
C4L C 0.7553(3) 0.37889(18) -0.08266(15)
C4A C 0.7553(3) -0.12111(18) 0.08266(15)
C5A C 0.8815(3) -0.0302(2) 0.29756(17)
C6A C 0.9284(3) 0.00311(19) 0.41607(17)
H3A H 0.9063 0.0410 0.4468
H4A H 1.0036 -0.0009 0.4191
C7A C 0.8797(3) -0.0653(2) 0.43789(18)
H5A H 0.9070 -0.0793 0.4825
H6A H 0.8050 -0.0590 0.4424
C8A C 0.9014(4) -0.1225(2) 0.38672(19)
H7A H 0.9744 -0.1357 0.3891
H8A H 0.8601 -0.1643 0.3977
C9A C 0.9126(4) 0.0938(2) 0.3254(2)
H9A H 0.8908 0.0997 0.2784
H10A H 0.9848 0.1065 0.3295
H11A H 0.8716 0.1241 0.3547
C10A C 0.8593(3) -0.1534(2) 0.2653(2)
H12A H 0.8434 -0.1314 0.2219
H13A H 0.8022 -0.1831 0.2791
H14A H 0.9210 -0.1819 0.2607
loop_
_geom_bond_atom_site_label_1
_geom_bond_atom_site_label_2
_geom_bond_site_symmetry_1
_geom_bond_site_symmetry_2
Cd1 O1 1_555 1_555
O1 C4 1_555 1_555
O2 Cd1 1_555 1_555
O3 Cd1 1_555 1_555
N1 C5 1_555 1_555
N2 C5 1_555 1_555
C1 C2 1_555 1_555
C2 H1 1_555 1_555
C3 C2 1_555 1_555
H2 C3 1_555 1_555
C4 O2 1_555 1_555
C5 O3 1_555 1_555
C6 N1 1_555 1_555
H3 C6 1_555 1_555
H4 C6 1_555 1_555
C7 C6 1_555 1_555
H5 C7 1_555 1_555
H6 C7 1_555 1_555
C8 N2 1_555 1_555
H7 C8 1_555 1_555
H8 C8 1_555 1_555
C9 N1 1_555 1_555
H9 C9 1_555 1_555
H10 C9 1_555 1_555
H11 C9 1_555 1_555
C10 N2 1_555 1_555
H12 C10 1_555 1_555
H13 C10 1_555 1_555
H14 C10 1_555 1_555
Cd1L O1L 1_555 1_555
O1L C4L 1_555 1_555
O1A Cd1 1_555 1_555
O2L Cd1L 1_555 1_555
O2A Cd1 1_555 1_555
O3A Cd1 1_555 1_555
N1A C5A 1_555 1_555
N2A C5A 1_555 1_555
C1L C3 1_555 1_555
C2L C1L 1_555 1_555
H1L C2L 1_555 1_555
C3L C1 1_555 1_555
H2L C3L 1_555 1_555
C4L O2L 1_555 1_555
C4A O1A 1_555 1_555
C5A O3A 1_555 1_555
C6A N1A 1_555 1_555
H3A C6A 1_555 1_555
H4A C6A 1_555 1_555
C7A C6A 1_555 1_555
H5A C7A 1_555 1_555
H6A C7A 1_555 1_555
C8A N2A 1_555 1_555
H7A C8A 1_555 1_555
H8A C8A 1_555 1_555
C9A N1A 1_555 1_555
H9A C9A 1_555 1_555
H10A C9A 1_555 1_555
H11A C9A 1_555 1_555
C10A N2A 1_555 1_555
H12A C10A 1_555 1_555
H13A C10A 1_555 1_555
H14A C10A 1_555 1_555
C1 C4 1_555 1_555
C7 C8 1_555 1_555
O2A C4A 1_555 1_555
C1L C4L 1_555 1_555
C2L C3L 1_555 1_555
C7A C8A 1_555 1_555

#END
