
#######################################################################
#
#                 Cambridge Crystallographic Data Centre
#                                CCDC 
#
#######################################################################
#
# If this CIF has been generated from an entry in the Cambridge 
# Structural Database, then it will include bibliographic, chemical, 
# crystal, experimental, refinement or atomic coordinate data resulting 
# from the CCDC's data processing and validation procedures.
#
#######################################################################

data_LAGSOD
_symmetry_cell_setting           monoclinic
_symmetry_space_group_name_H-M   'P 21/n'
_symmetry_Int_Tables_number      14
_space_group_name_Hall           '-P 2yn'
loop_
_symmetry_equiv_pos_site_id
_symmetry_equiv_pos_as_xyz
1 x,y,z
2 1/2-x,1/2+y,1/2-z
3 -x,-y,-z
4 1/2+x,1/2-y,1/2+z
_cell_length_a                   14.1105(2)
_cell_length_b                   19.4747(3)
_cell_length_c                   15.0946(2)
_cell_angle_alpha                90
_cell_angle_beta                 93.1570(10)
_cell_angle_gamma                90
_cell_volume                     4141.67
loop_
_atom_site_label
_atom_site_type_symbol
_atom_site_fract_x
_atom_site_fract_y
_atom_site_fract_z
Dy1 Dy 0.46134(2) 0.226229(18) 0.74851(2)
Dy2 Dy 0.21009(2) 0.254505(18) 0.99647(2)
O1 O 0.3645(4) 0.2244(3) 0.9873(4)
O2 O 0.1140(4) 0.2368(3) 0.2300(4)
O3 O 0.4636(4) 0.3457(3) 0.7608(4)
O4 O 0.4334(4) 0.2282(3) 0.5970(3)
O5 O 0.4840(4) 0.2213(3) 0.8988(3)
O6 O 0.8092(4) 0.2346(3) 1.2572(4)
C1 C 0.6526(5) 0.2202(3) 1.1967(5)
C2 C 0.5215(5) 0.2188(4) 1.0526(5)
C3 C 0.4506(5) 0.2216(3) 0.9736(5)
O7 O 0.2301(4) 0.2700(3) 0.1459(3)
C4 C 0.7238(6) 0.2256(3) 1.2730(5)
O8 O 0.5515(4) 0.2568(3) 0.5119(4)
C5 C 0.6837(5) 0.2182(4) 1.1090(5)
O9 O 0.6941(4) 0.2211(3) 1.3499(3)
C6 C 0.3154(5) 0.2042(4) 0.4426(5)
C7 C 0.3979(5) 0.2442(4) 0.4433(5)
C8 C 0.6182(5) 0.2167(4) 1.0387(5)
C9 C 0.2499(5) 0.2071(4) 0.3693(5)
O10 O 0.3656(4) 0.1314(3) 0.7664(3)
C10 C 0.4152(5) 0.2864(4) 0.3718(4)
C11 C 0.4667(5) 0.2432(4) 0.5238(5)
C12 C 0.2690(5) 0.2499(4) 0.2972(5)
O11 O 0.5557(4) 0.1295(3) 0.7338(3)
C13 C 0.1982(5) 0.2523(4) 0.2188(5)
O12 O 0.1762(4) 0.1432(4) 0.9210(4)
O13 O 0.1471(4) 0.3713(3) 0.9968(4)
O14 O 0.2086(4) 0.1382(3) 1.0612(4)
N1 N 0.3475(5) 0.0295(3) 0.8352(4)
O15 O 0.3008(4) 0.3636(4) 1.0070(4)
N2 N 0.2552(5) 0.0579(3) 0.7085(4)
C14 C 0.3515(5) 0.2886(4) 0.2990(5)
N3 N 0.5134(6) 0.4376(4) 0.6867(6)
N4 N 0.5259(6) 0.0254(4) 0.6722(5)
C15 C 0.4900(5) 0.2195(4) 1.1387(5)
C16 C 0.3243(5) 0.0759(4) 0.7703(5)
C17 C 0.5036(6) 0.4015(5) 0.7619(7)
N5 N 0.6199(5) 0.0355(4) 0.8013(4)
N6 N 0.5360(6) 0.4289(4) 0.8422(6)
N7 N 0.1868(6) 0.1074(4) 0.9894(7)
C18 C 0.5565(6) 0.2194(4) 1.2092(5)
N8 N 0.2262(7) 0.4008(4) 1.0043(5)
C19 C 0.5655(6) 0.0655(4) 0.7360(5)
C20 C 0.3033(7) -0.0384(5) 0.8431(6)
C21 C 0.4696(7) 0.0572(5) 0.5974(6)
C22 C 0.4112(6) 0.0510(4) 0.9107(6)
O16 O 0.2338(7) 0.4631(5) 1.0094(6)
O17 O 0.1747(6) 0.0451(5) 0.9874(5)
C23 C 0.1941(7) -0.0026(6) 0.7144(7)
C24 C 0.2526(8) -0.0612(5) 0.7582(7)
C25 C 0.6287(8) -0.0385(6) 0.8132(7)
C26 C 0.6641(7) 0.0782(5) 0.8720(6)
C27 C 0.2211(7) 0.1108(6) 0.6422(6)
C28 C 0.4750(8) 0.4086(6) 0.6045(7)
C29 C 0.5350(9) -0.0482(7) 0.6720(8)
C30 C 0.5148(8) 0.3941(6) 0.9282(7)
C31 C 0.5615(10) 0.5028(7) 0.6833(8)
C32 C 0.6129(9) -0.0745(7) 0.7271(8)
C33 C 0.5779(10) 0.4984(7) 0.8508(9)
C34 C 0.6191(12) 0.5185(9) 0.7637(11)
Dy1C Dy -0.03866(2) 0.273771(18) 0.24851(2)
Dy1C_2 Dy 0.96134(2) 0.273771(18) 1.24851(2)
Dy2_2 Dy 0.21009(2) 0.254505(18) -0.00353(2)
Dy2C Dy 0.71009(2) 0.245495(18) 0.49647(2)
Dy2C_2 Dy 0.71009(2) 0.245495(18) 1.49647(2)
O2C O 0.6140(4) 0.2632(3) 0.7300(4)
O6C O 0.3092(4) 0.2654(3) 0.7572(4)
O7_2 O 0.2301(4) 0.2700(3) 1.1459(3)
O8C O 0.0515(4) 0.2432(3) 1.0119(4)
O9C O 0.1941(4) 0.2789(3) 0.8499(3)
loop_
_geom_bond_atom_site_label_1
_geom_bond_atom_site_label_2
_geom_bond_site_symmetry_1
_geom_bond_site_symmetry_2
Dy1 O3 1_555 1_555
Dy2 O1 1_555 1_555
O1 C3 1_555 1_555
O2 C13 1_555 1_555
O3 C17 1_555 1_555
O4 Dy1 1_555 1_555
O5 Dy1 1_555 1_555
O6 C4 1_555 1_555
C1 C4 1_555 1_555
C2 C3 1_555 1_555
C3 O5 1_555 1_555
O7 C13 1_555 1_555
C4 O9 1_555 1_555
O8 C11 1_555 1_555
C5 C1 1_555 1_555
O9 Dy2C_2 1_555 1_555
C6 C7 1_555 1_555
C7 C10 1_555 1_555
C8 C2 1_555 1_555
C9 C6 1_555 1_555
O10 Dy1 1_555 1_555
C10 C14 1_555 1_555
C11 O4 1_555 1_555
C12 C9 1_555 1_555
O11 Dy1 1_555 1_555
C13 C12 1_555 1_555
O12 Dy2 1_555 1_555
O13 Dy2 1_555 1_555
O14 Dy2 1_555 1_555
N1 C16 1_555 1_555
O15 Dy2 1_555 1_555
N2 C16 1_555 1_555
C14 C12 1_555 1_555
N3 C17 1_555 1_555
N4 C19 1_555 1_555
C15 C2 1_555 1_555
C16 O10 1_555 1_555
C17 N6 1_555 1_555
N5 C19 1_555 1_555
N6 C30 1_555 1_555
N7 O12 1_555 1_555
C18 C1 1_555 1_555
N8 O13 1_555 1_555
C19 O11 1_555 1_555
C20 N1 1_555 1_555
C21 N4 1_555 1_555
C22 N1 1_555 1_555
O16 N8 1_555 1_555
O17 N7 1_555 1_555
C23 N2 1_555 1_555
C24 C20 1_555 1_555
C25 N5 1_555 1_555
C26 N5 1_555 1_555
C27 N2 1_555 1_555
C28 N3 1_555 1_555
C29 N4 1_555 1_555
C31 N3 1_555 1_555
C32 C25 1_555 1_555
C33 N6 1_555 1_555
C34 C31 1_555 1_555
Dy1C O2 1_555 1_555
Dy1C_2 O6 1_555 1_555
Dy2_2 O7 1_555 1_555
Dy2C O8 1_555 1_555
O2C Dy1 1_555 1_555
O6C Dy1 1_555 1_555
O7_2 Dy2 1_555 1_555
O8C Dy2 1_555 1_555
O9C Dy2 1_555 1_555
C5 C8 1_555 1_555
C7 C11 1_555 1_555
O14 N7 1_555 1_555
O15 N8 1_555 1_555
C15 C18 1_555 1_555
C23 C24 1_555 1_555
C29 C32 1_555 1_555
C33 C34 1_555 1_555

#END
