
#######################################################################
#
#                 Cambridge Crystallographic Data Centre
#                                CCDC 
#
#######################################################################
#
# If this CIF has been generated from an entry in the Cambridge 
# Structural Database, then it will include bibliographic, chemical, 
# crystal, experimental, refinement or atomic coordinate data resulting 
# from the CCDC's data processing and validation procedures.
#
#######################################################################

data_LAGTEU
_symmetry_cell_setting           orthorhombic
_symmetry_space_group_name_H-M   'P 21 21 21'
_symmetry_Int_Tables_number      19
_space_group_name_Hall           'P 2ac 2ab'
loop_
_symmetry_equiv_pos_site_id
_symmetry_equiv_pos_as_xyz
1 x,y,z
2 1/2-x,-y,1/2+z
3 -x,1/2+y,1/2-z
4 1/2+x,1/2-y,-z
_cell_length_a                   6.64920(10)
_cell_length_b                   10.20260(10)
_cell_length_c                   17.6072(2)
_cell_angle_alpha                90
_cell_angle_beta                 90
_cell_angle_gamma                90
_cell_volume                     1194.46
loop_
_atom_site_label
_atom_site_type_symbol
_atom_site_fract_x
_atom_site_fract_y
_atom_site_fract_z
Cd1 Cd -0.00464(3) 0.270743(19) 0.971553(13)
O1 O 0.0912(4) 0.4103(2) 0.87280(17)
O2 O 0.3418(4) 0.2795(2) 0.90609(15)
O3 O 0.1226(4) 0.6490(3) 0.62469(17)
O4 O 0.3489(4) 0.5730(2) 0.54216(16)
O5 O -0.3004(3) 0.3946(2) 0.98145(15)
N1 N -0.5205(5) 0.5672(3) 0.96644(19)
H1 H -0.6148 0.5374 0.9951
N2 N -0.2220(5) 0.5822(3) 0.9144(2)
H2 H -0.0965 0.5659 0.9073
C1 C 0.3818(5) 0.4096(3) 0.7946(2)
C2 C 0.2878(5) 0.4848(3) 0.7386(2)
H3 H 0.1562 0.5130 0.7458
C3 C 0.3886(6) 0.5180(3) 0.6722(2)
C4 C 0.5910(5) 0.4847(3) 0.6637(2)
H4 H 0.6605 0.5092 0.6201
C5 C 0.6879(5) 0.4151(3) 0.7206(2)
H5 H 0.8237 0.3952 0.7157
C6 C 0.5835(5) 0.3751(3) 0.7845(2)
H6 H 0.6483 0.3248 0.8212
C7 C 0.2664(5) 0.3643(3) 0.8631(2)
C8 C 0.2806(5) 0.5858(3) 0.6097(2)
C9 C -0.3437(5) 0.5065(3) 0.9552(2)
C10 C -0.3251(6) 0.6955(4) 0.8833(3)
H7 H -0.3403 0.6882 0.8286
H8 H -0.2542 0.7760 0.8951
C11 C -0.5331(5) 0.6896(3) 0.9242(3)
H9 H -0.5509 0.7638 0.9581
H10 H -0.6428 0.6877 0.8879
Cd1A Cd 0.50464(3) 0.729257(19) 0.471553(13)
Cd1B Cd 0.00464(3) 0.770743(19) 0.528447(13)
Cd1C Cd -0.50464(3) 0.229257(19) 1.028447(13)
Cd1C_2 Cd 0.49536(3) 0.229257(19) 1.028447(13)
O2C O -0.1582(4) 0.2205(2) 1.09391(15)
O3B O -0.1226(4) 0.1490(3) 0.87531(17)
O4A O 0.1511(4) 0.4270(2) 1.04216(16)
O5C O 0.1996(3) 0.1054(2) 1.01855(15)
loop_
_geom_bond_atom_site_label_1
_geom_bond_atom_site_label_2
_geom_bond_site_symmetry_1
_geom_bond_site_symmetry_2
Cd1 O1 1_555 1_555
O1 C7 1_555 1_555
O2 Cd1 1_555 1_555
O3 C8 1_555 1_555
O4 C8 1_555 1_555
O5 Cd1 1_555 1_555
N1 H1 1_555 1_555
N2 H2 1_555 1_555
C1 C2 1_555 1_555
C2 H3 1_555 1_555
C3 C2 1_555 1_555
C4 C3 1_555 1_555
H4 C4 1_555 1_555
C5 C4 1_555 1_555
H5 C5 1_555 1_555
C6 C1 1_555 1_555
H6 C6 1_555 1_555
C7 O2 1_555 1_555
C8 C3 1_555 1_555
C9 O5 1_555 1_555
C10 N2 1_555 1_555
H7 C10 1_555 1_555
H8 C10 1_555 1_555
C11 N1 1_555 1_555
H9 C11 1_555 1_555
H10 C11 1_555 1_555
Cd1A O4 1_555 1_555
Cd1B O3 1_555 1_555
Cd1C O5 1_555 1_555
Cd1C_2 O2 1_555 1_555
O2C Cd1 1_555 1_555
O3B Cd1 1_555 1_555
O4A Cd1 1_555 1_555
O5C Cd1 1_555 1_555
N1 C9 1_555 1_555
N2 C9 1_555 1_555
C1 C7 1_555 1_555
C5 C6 1_555 1_555
C10 C11 1_555 1_555
Cd1C O2C 1_555 1_555
Cd1C_2 O5C 1_555 1_555

#END
