
#######################################################################
#
#                 Cambridge Crystallographic Data Centre
#                                CCDC 
#
#######################################################################
#
# If this CIF has been generated from an entry in the Cambridge 
# Structural Database, then it will include bibliographic, chemical, 
# crystal, experimental, refinement or atomic coordinate data resulting 
# from the CCDC's data processing and validation procedures.
#
#######################################################################

data_LAGTIY
_symmetry_cell_setting           trigonal
_symmetry_space_group_name_H-M   'P 3 1 c'
_symmetry_Int_Tables_number      159
_space_group_name_Hall           "P 3 -2'c"
loop_
_symmetry_equiv_pos_site_id
_symmetry_equiv_pos_as_xyz
1 x,y,z
2 -y,x-y,z
3 -x+y,-x,z
4 y,x,1/2+z
5 x-y,-y,1/2+z
6 -x,-x+y,1/2+z
_cell_length_a                   14.4155(3)
_cell_length_b                   14.4155(3)
_cell_length_c                   16.9725(9)
_cell_angle_alpha                90
_cell_angle_beta                 90
_cell_angle_gamma                120
_cell_volume                     3054.47
loop_
_atom_site_label
_atom_site_type_symbol
_atom_site_fract_x
_atom_site_fract_y
_atom_site_fract_z
Yb1 Yb 0.20254(4) 0.50594(4) 0.38372(5)
O1 O 0.1269(8) 0.5440(8) 0.2820(7)
O2 O -0.1265(9) 0.4167(9) -0.0152(6)
O3 O -0.1730(8) 0.5433(7) -0.0264(6)
O4 O 0.1731(8) 0.7162(8) 0.2948(6)
O5 O 0.0714(7) 0.3431(7) 0.3832(7)
O6 O 0.3333 0.6667 0.3841(10)
N1 N -0.0405(13) 0.1954(10) 0.3151(10)
N2 N -0.0404(12) 0.1955(10) 0.4504(10)
S1 S -0.0001(5) 0.5059(3) 0.1336(3)
C1 C -0.1254(12) 0.5018(11) 0.0058(10)
C2 C 0.1254(12) 0.6285(12) 0.2611(9)
C3 C -0.0600(11) 0.5596(11) 0.0762(9)
C4 C 0.0599(11) 0.6193(11) 0.1909(9)
C5 C 0.0359(11) 0.6959(10) 0.1668(9)
C6 C -0.0347(10) 0.6596(10) 0.1000(9)
C7 C -0.167(2) 0.0229(19) 0.385(3)
C8 C 0.0044(18) 0.2506(17) 0.5281(12)
C9 C 0.006(2) 0.2536(16) 0.2392(11)
C10 C -0.141(2) 0.0848(19) 0.311(2)
C11 C -0.142(2) 0.0838(18) 0.4556(17)
C12 C -0.0014(11) 0.2450(11) 0.3835(9)
Yb1E Yb -0.20254(4) 0.30340(6) 0.88372(5)
Yb1D Yb 0.69660(6) 0.49406(4) 0.88372(5)
Yb1E_2 Yb -0.20254(4) 0.30340(6) -0.11628(5)
Yb1D_2 Yb -0.30340(6) 0.49406(4) -0.11628(5)
Yb1B Yb 0.30340(6) 0.79746(4) 0.38372(5)
Yb1A Yb 0.49406(4) 0.69660(6) 0.38372(5)
Yb1D_3 Yb -0.30340(6) 0.49406(4) 0.88372(5)
Yb1C Yb 0.50594(4) 0.20254(4) 0.88372(5)
O1E O -0.1269(8) 0.4171(11) 0.7820(7)
O1D O 0.5829(11) 0.4560(8) 0.7820(7)
O2E O 0.1265(9) 0.5432(13) 0.4848(6)
O2D O 0.4568(13) 0.5833(9) 0.4848(6)
O2_2 O -0.1265(9) 0.4167(9) 0.9848(6)
O2A O 0.5833(9) 0.4568(13) 0.9848(6)
O3E O 0.1730(8) 0.7163(11) 0.4736(6)
O3D O 0.2837(11) 0.4567(7) 0.4736(6)
O3B O -0.2837(11) 0.1730(8) 0.9736(6)
O3_2 O 0.8270(8) 0.5433(7) 0.9736(6)
O4E O -0.1731(8) 0.5431(11) 0.7948(6)
O4D O 0.4569(11) 0.2838(8) 0.7948(6)
O4A O 0.2838(8) 0.4569(11) 0.2948(6)
O4C O -0.2838(8) 0.1731(8) 0.7948(6)
O4E_2 O 0.8269(8) 0.5431(11) 0.7948(6)
O5E O -0.0714(7) 0.2717(10) 0.8832(7)
O5D O 0.7283(10) 0.6569(7) 0.8832(7)
O6E O -0.3333 0.3334 0.8841(10)
O6D O 0.6666 0.3333 0.8841(10)
N1E N 0.0405(13) 0.2359(16) 0.8151(10)
N1D N 0.7641(16) 0.8046(10) 0.8151(10)
N2E N 0.0404(12) 0.2359(16) 0.9504(10)
N2D N 0.7641(16) 0.8045(10) 0.9504(10)
S1E S 0.0001(5) 0.5060(6) 0.6336(3)
S1D S 0.4940(6) 0.4941(3) 0.6336(3)
C1E C 0.1254(12) 0.6272(16) 0.5058(10)
C1D C 0.3728(16) 0.4982(11) 0.5058(10)
C2E C -0.1254(12) 0.5031(17) 0.7611(9)
C2D C 0.4969(17) 0.3715(12) 0.7611(9)
C3E C 0.0600(11) 0.6196(16) 0.5762(9)
C3D C 0.3804(16) 0.4404(11) 0.5762(9)
C4E C -0.0599(11) 0.5594(16) 0.6909(9)
C4D C 0.4406(16) 0.3807(11) 0.6909(9)
C5E C -0.0359(11) 0.6600(15) 0.6668(9)
C5D C 0.3400(15) 0.3041(10) 0.6668(9)
C6E C 0.0347(10) 0.6943(14) 0.6000(9)
C6D C 0.3057(14) 0.3404(10) 0.6000(9)
C7E C 0.167(2) 0.1899(28) 0.885(3)
C7D C 0.8101(28) 0.9771(19) 0.885(3)
C8E C -0.0044(18) 0.2462(25) 1.0281(12)
C8D C 0.7538(25) 0.7494(17) 1.0281(12)
C9E C -0.006(2) 0.2476(26) 0.7392(11)
C9D C 0.7524(26) 0.7464(16) 0.7392(11)
C10E C 0.141(2) 0.2258(28) 0.811(2)
C10D C 0.7742(28) 0.9152(19) 0.811(2)
C11E C 0.142(2) 0.2258(27) 0.9556(17)
C11D C 0.7742(27) 0.9162(18) 0.9556(17)
C12E C 0.0014(11) 0.2464(16) 0.8835(9)
C12D C 0.7536(16) 0.7550(11) 0.8835(9)
O7 O 0.0868(12) 1.0872(12) 0.1331(12)
N3 N 0.0000 1.0000 0.1334(16)
O7B O 0.0004(17) 0.9132(12) 0.1331(12)
O7A O -0.0872(12) 0.9996(17) 0.1331(12)
loop_
_geom_bond_atom_site_label_1
_geom_bond_atom_site_label_2
_geom_bond_site_symmetry_1
_geom_bond_site_symmetry_2
Yb1 O1 1_555 1_555
O1 C2 1_555 1_555
O2 C1 1_555 1_555
O3 C1 1_555 1_555
O4 C2 1_555 1_555
O5 Yb1 1_555 1_555
O6 Yb1 1_555 1_555
O7 N3 1_555 1_555
N1 C9 1_555 1_555
N2 C8 1_555 1_555
N3 O7B 1_555 1_555
S1 C3 1_555 1_555
C1 C3 1_555 1_555
C2 C4 1_555 1_555
C3 C6 1_555 1_555
C4 S1 1_555 1_555
C5 C4 1_555 1_555
C6 C5 1_555 1_555
C7 C10 1_555 1_555
C10 N1 1_555 1_555
C11 N2 1_555 1_555
C12 O5 1_555 1_555
Yb1E O1E 1_555 1_555
Yb1D O1D 1_555 1_555
Yb1E_2 O2 1_555 1_555
Yb1D_2 O3 1_555 1_555
Yb1B O4 1_555 1_555
Yb1A O6 1_555 1_555
Yb1D_3 O4E 1_555 1_555
Yb1C O4D 1_555 1_555
O1E C2E 1_555 1_555
O1D C2D 1_555 1_555
O2E Yb1 1_555 1_555
O2D Yb1A 1_555 1_555
O2_2 Yb1E 1_555 1_555
O2A Yb1D 1_555 1_555
O3E Yb1B 1_555 1_555
O3D Yb1 1_555 1_555
O3B Yb1E 1_555 1_555
O3_2 Yb1D 1_555 1_555
O4E C2E 1_555 1_555
O4D C2D 1_555 1_555
O4A Yb1 1_555 1_555
O4C Yb1E 1_555 1_555
O4E_2 Yb1D 1_555 1_555
O5E Yb1E 1_555 1_555
O5D Yb1D 1_555 1_555
O6E Yb1E 1_555 1_555
O6D Yb1D 1_555 1_555
O7A N3 1_555 1_555
N1E C9E 1_555 1_555
N1D C9D 1_555 1_555
N2E C8E 1_555 1_555
N2D C8D 1_555 1_555
S1E C3E 1_555 1_555
S1D C3D 1_555 1_555
C1E O2E 1_555 1_555
C1D O2D 1_555 1_555
C2E C4E 1_555 1_555
C2D C4D 1_555 1_555
C3E C1E 1_555 1_555
C3D C1D 1_555 1_555
C4E S1E 1_555 1_555
C4D S1D 1_555 1_555
C5E C4E 1_555 1_555
C5D C4D 1_555 1_555
C6E C3E 1_555 1_555
C6D C3D 1_555 1_555
C7E C10E 1_555 1_555
C7D C10D 1_555 1_555
C10E N1E 1_555 1_555
C10D N1D 1_555 1_555
C11E N2E 1_555 1_555
C11D N2D 1_555 1_555
C12E O5E 1_555 1_555
C12D O5D 1_555 1_555
O6 Yb1B 1_555 1_555
N1 C12 1_555 1_555
N2 C12 1_555 1_555
C7 C11 1_555 1_555
Yb1D_3 O6E 1_555 1_555
Yb1C O6D 1_555 1_555
O3E C1E 1_555 1_555
O3D C1D 1_555 1_555
N1E C12E 1_555 1_555
N1D C12D 1_555 1_555
N2E C12E 1_555 1_555
N2D C12D 1_555 1_555
C5E C6E 1_555 1_555
C5D C6D 1_555 1_555
C7E C11E 1_555 1_555
C7D C11D 1_555 1_555

#END
