
#######################################################################
#
#                 Cambridge Crystallographic Data Centre
#                                CCDC 
#
#######################################################################
#
# If this CIF has been generated from an entry in the Cambridge 
# Structural Database, then it will include bibliographic, chemical, 
# crystal, experimental, refinement or atomic coordinate data resulting 
# from the CCDC's data processing and validation procedures.
#
#######################################################################

data_LAHSUJ
_symmetry_cell_setting           monoclinic
_symmetry_space_group_name_H-M   'C 2/c'
_symmetry_Int_Tables_number      15
_space_group_name_Hall           '-C 2yn'
loop_
_symmetry_equiv_pos_site_id
_symmetry_equiv_pos_as_xyz
1 x,y,z
2 1/2+x,1/2+y,z
3 -x,y,1/2-z
4 1/2-x,1/2+y,1/2-z
5 -x,-y,-z
6 1/2-x,1/2-y,-z
7 x,-y,1/2+z
8 1/2+x,1/2-y,1/2+z
_cell_length_a                   37.646(10)
_cell_length_b                   7.2783(19)
_cell_length_c                   23.023(6)
_cell_angle_alpha                90
_cell_angle_beta                 108.256(5)
_cell_angle_gamma                90
_cell_volume                     5990.76
loop_
_atom_site_label
_atom_site_type_symbol
_atom_site_fract_x
_atom_site_fract_y
_atom_site_fract_z
Mn1 Mn 0.204476(15) 0.03519(8) 0.30372(2)
O1 O 0.18772(7) -0.2114(4) 0.34962(11)
H1 H 0.2003 -0.3056 0.3562
C1 C 0.17131(12) -0.1846(6) 0.39732(19)
H2 H 0.1846 -0.0860 0.4245
H3 H 0.1732 -0.2985 0.4208
H4 H 0.1449 -0.1510 0.3793
O2 O 0.15624(6) 0.1279(3) 0.29170(11)
N1 N 0.18797(8) -0.0938(4) 0.22514(13)
N2 N 0.25072(8) -0.0870(4) 0.30741(13)
O3 O 0.23358(6) 0.1305(3) 0.38250(10)
C2 C 0.12393(10) 0.0757(5) 0.25286(16)
C3 C 0.09014(10) 0.1587(5) 0.25400(17)
C4 C 0.09099(11) 0.3173(6) 0.2985(2)
C5 C 0.11307(13) 0.4778(6) 0.2840(3)
H5 H 0.1137 0.5794 0.3122
H6 H 0.1010 0.5188 0.2419
H7 H 0.1387 0.4380 0.2886
C6 C 0.10817(13) 0.2519(8) 0.3651(2)
H8 H 0.1085 0.3541 0.3930
H9 H 0.1338 0.2088 0.3715
H10 H 0.0931 0.1512 0.3733
C7 C 0.05154(12) 0.3883(7) 0.2925(2)
H11 H 0.0533 0.4891 0.3215
H12 H 0.0366 0.2884 0.3015
H13 H 0.0396 0.4328 0.2508
C8 C 0.05675(10) 0.0972(5) 0.21340(17)
H14 H 0.0343 0.1526 0.2151
C9 C 0.05392(10) -0.0417(6) 0.16982(16)
C10 C 0.01547(11) -0.0987(6) 0.12645(18)
C11 C 0.01883(13) -0.2567(8) 0.0847(2)
H15 H -0.0061 -0.2897 0.0576
H16 H 0.0301 -0.3634 0.1097
H17 H 0.0346 -0.2185 0.0601
C12 C -0.00995(11) -0.1582(7) 0.1634(2)
H18 H -0.0344 -0.1946 0.1354
H19 H -0.0131 -0.0557 0.1889
H20 H 0.0014 -0.2625 0.1895
C13 C -0.00231(12) 0.0674(7) 0.0862(2)
H21 H -0.0268 0.0324 0.0581
H22 H 0.0139 0.1066 0.0625
H23 H -0.0053 0.1688 0.1122
C14 C 0.08668(10) -0.1141(5) 0.16733(17)
H24 H 0.0859 -0.2048 0.1373
C15 C 0.12170(10) -0.0605(5) 0.20732(16)
C16 C 0.15395(10) -0.1324(5) 0.19533(16)
H25 H 0.1498 -0.2164 0.1623
C17 C 0.21846(10) -0.1574(6) 0.20374(17)
H26 H 0.2215 -0.0728 0.1719
H27 H 0.2126 -0.2811 0.1854
C18 C 0.25444(10) -0.1644(5) 0.25686(16)
O4 O 0.28362(7) -0.2307(4) 0.25072(11)
C19 C 0.27961(9) -0.0629(5) 0.36367(15)
C20 C 0.31518(10) -0.1378(5) 0.38076(16)
H28 H 0.3220 -0.2187 0.3536
C21 C 0.34107(10) -0.0962(5) 0.43720(17)
C22 C 0.38004(11) -0.1856(6) 0.45450(18)
C23 C 0.40565(12) -0.1140(8) 0.5153(2)
H29 H 0.3941 -0.1366 0.5473
H30 H 0.4095 0.0183 0.5121
H31 H 0.4298 -0.1776 0.5256
C24 C 0.39770(11) -0.1508(6) 0.4044(2)
H32 H 0.3811 -0.1966 0.3653
H33 H 0.4218 -0.2148 0.4145
H34 H 0.4017 -0.0186 0.4012
C25 C 0.37583(13) -0.3946(6) 0.4614(2)
H35 H 0.3597 -0.4454 0.4227
H36 H 0.3646 -0.4182 0.4938
H37 H 0.4005 -0.4530 0.4720
C26 C 0.32987(10) 0.0235(5) 0.47519(16)
H38 H 0.3473 0.0552 0.5136
C27 C 0.29423(10) 0.0982(5) 0.45896(16)
H39 H 0.2874 0.1775 0.4865
C28 C 0.26841(9) 0.0575(5) 0.40257(15)
O4C O 0.21638(7) 0.2693(4) 0.24928(11)
Mn1C Mn 0.295524(15) -0.46481(8) 0.19628(2)
O5 O 0.23537(8) 0.5115(4) 0.39261(12)
H40 H 0.2313 0.3981 0.3930
C29 C 0.26351(11) 0.5619(5) 0.44755(17)
H41 H 0.2629 0.6952 0.4533
H42 H 0.2881 0.5260 0.4451
H43 H 0.2589 0.4994 0.4822
loop_
_geom_bond_atom_site_label_1
_geom_bond_atom_site_label_2
_geom_bond_site_symmetry_1
_geom_bond_site_symmetry_2
Mn1 O1 1_555 1_555
O1 H1 1_555 1_555
C1 O1 1_555 1_555
H2 C1 1_555 1_555
H3 C1 1_555 1_555
H4 C1 1_555 1_555
O2 Mn1 1_555 1_555
N1 Mn1 1_555 1_555
N2 Mn1 1_555 1_555
O3 Mn1 1_555 1_555
C2 O2 1_555 1_555
C3 C2 1_555 1_555
C4 C3 1_555 1_555
C5 C4 1_555 1_555
H5 C5 1_555 1_555
H6 C5 1_555 1_555
H7 C5 1_555 1_555
C6 C4 1_555 1_555
H8 C6 1_555 1_555
H9 C6 1_555 1_555
H10 C6 1_555 1_555
C7 C4 1_555 1_555
H11 C7 1_555 1_555
H12 C7 1_555 1_555
H13 C7 1_555 1_555
C8 C3 1_555 1_555
H14 C8 1_555 1_555
C9 C8 1_555 1_555
C10 C9 1_555 1_555
C11 C10 1_555 1_555
H15 C11 1_555 1_555
H16 C11 1_555 1_555
H17 C11 1_555 1_555
C12 C10 1_555 1_555
H18 C12 1_555 1_555
H19 C12 1_555 1_555
H20 C12 1_555 1_555
C13 C10 1_555 1_555
H21 C13 1_555 1_555
H22 C13 1_555 1_555
H23 C13 1_555 1_555
C14 C9 1_555 1_555
H24 C14 1_555 1_555
C15 C2 1_555 1_555
C16 N1 1_555 1_555
H25 C16 1_555 1_555
C17 N1 1_555 1_555
H26 C17 1_555 1_555
H27 C17 1_555 1_555
C18 N2 1_555 1_555
O4 C18 1_555 1_555
C19 N2 1_555 1_555
C20 C19 1_555 1_555
H28 C20 1_555 1_555
C21 C20 1_555 1_555
C22 C21 1_555 1_555
C23 C22 1_555 1_555
H29 C23 1_555 1_555
H30 C23 1_555 1_555
H31 C23 1_555 1_555
C24 C22 1_555 1_555
H32 C24 1_555 1_555
H33 C24 1_555 1_555
H34 C24 1_555 1_555
C25 C22 1_555 1_555
H35 C25 1_555 1_555
H36 C25 1_555 1_555
H37 C25 1_555 1_555
C26 C21 1_555 1_555
H38 C26 1_555 1_555
C27 C26 1_555 1_555
H39 C27 1_555 1_555
C28 O3 1_555 1_555
O5 H40 1_555 1_555
C29 O5 1_555 1_555
H41 C29 1_555 1_555
H42 C29 1_555 1_555
H43 C29 1_555 1_555
O4C Mn1 1_555 1_555
Mn1C O4 1_555 1_555
C14 C15 1_555 1_555
C15 C16 1_555 1_555
C17 C18 1_555 1_555
C19 C28 1_555 1_555
C27 C28 1_555 1_555

#END
