
#######################################################################
#
#                 Cambridge Crystallographic Data Centre
#                                CCDC 
#
#######################################################################
#
# If this CIF has been generated from an entry in the Cambridge 
# Structural Database, then it will include bibliographic, chemical, 
# crystal, experimental, refinement or atomic coordinate data resulting 
# from the CCDC's data processing and validation procedures.
#
#######################################################################

data_LAHTAQ
_symmetry_cell_setting           orthorhombic
_symmetry_space_group_name_H-M   'P b c a'
_symmetry_Int_Tables_number      61
_space_group_name_Hall           '-P 2ac 2ab'
loop_
_symmetry_equiv_pos_site_id
_symmetry_equiv_pos_as_xyz
1 x,y,z
2 1/2-x,-y,1/2+z
3 1/2+x,1/2-y,-z
4 -x,1/2+y,1/2-z
5 -x,-y,-z
6 1/2+x,y,1/2-z
7 1/2-x,1/2+y,z
8 x,1/2-y,1/2+z
_cell_length_a                   19.572(3)
_cell_length_b                   8.8073(12)
_cell_length_c                   32.192(4)
_cell_angle_alpha                90
_cell_angle_beta                 90
_cell_angle_gamma                90
_cell_volume                     5549.14
loop_
_atom_site_label
_atom_site_type_symbol
_atom_site_fract_x
_atom_site_fract_y
_atom_site_fract_z
Mn1 Mn -0.42546(2) -0.00422(5) 0.202000(12)
O1 O -0.48361(11) 0.3355(2) 0.27942(6)
O2 O -0.42809(10) -0.1136(2) 0.15147(6)
N1 N -0.43158(12) 0.1249(2) 0.25078(7)
O3 O -0.33819(12) 0.1397(3) 0.17641(7)
O4 O -0.35901(10) -0.1108(2) 0.23478(6)
N2 N -0.49363(12) 0.1407(3) 0.18132(7)
C1 C -0.47554(15) -0.2299(3) 0.09135(9)
C2 C -0.35269(14) -0.0552(3) 0.27400(8)
C3 C -0.47303(15) 0.2457(3) 0.25019(8)
C4 C -0.53010(7) 0.12513(15) 0.14819(4)
H1 H -0.5627 0.1994 0.1428
C5 C -0.52451(7) 0.00261(15) 0.11890(4)
C6 C -0.62432(7) -0.11133(15) 0.01989(4)
C7 C -0.57403(7) -0.10837(15) 0.05663(4)
C8 C -0.52444(7) -0.22376(15) 0.06060(4)
H2 H -0.5248 -0.3014 0.0410
C9 C -0.47487(14) -0.1126(3) 0.12190(8)
C10 C -0.39129(14) 0.0737(3) 0.28454(8)
C11 C -0.57307(14) 0.0026(3) 0.08616(9)
H3 H -0.6051 0.0804 0.0848
C12 C -0.58377(18) -0.1105(5) -0.02114(10)
H4 H -0.5534 -0.1961 -0.0218
H5 H -0.5577 -0.0184 -0.0231
H6 H -0.6149 -0.1164 -0.0441
C13 C -0.31278(16) -0.1254(4) 0.30389(9)
H7 H -0.2857 -0.2082 0.2967
C14 C -0.42343(18) -0.3599(4) 0.09297(11)
C15 C -0.50688(18) 0.2686(4) 0.20892(9)
H8 H -0.5558 0.2797 0.2129
H9 H -0.4899 0.3612 0.1963
C16 C -0.35208(18) 0.0531(4) 0.35447(10)
H10 H -0.3523 0.0884 0.3817
C17 C -0.31309(17) -0.0722(4) 0.34476(10)
C18 C -0.39092(16) 0.1283(4) 0.32497(9)
H11 H -0.4163 0.2137 0.3321
C19 C -0.66718(19) -0.2565(5) 0.02224(11)
H12 H -0.6375 -0.3433 0.0219
H13 H -0.6975 -0.2609 -0.0012
H14 H -0.6934 -0.2564 0.0474
C20 C -0.6721(2) 0.0245(5) 0.02051(12)
H15 H -0.7027 0.0189 -0.0028
H16 H -0.6459 0.1163 0.0188
H17 H -0.6980 0.0240 0.0458
C21 C -0.35113(19) -0.2979(5) 0.08999(14)
H18 H -0.3191 -0.3804 0.0910
H19 H -0.3428 -0.2301 0.1128
H20 H -0.3458 -0.2439 0.0643
C22 C -0.2710(2) -0.1522(5) 0.37762(12)
H21 H -0.2471 -0.2361 0.3653
H22 H -0.3006 -0.1890 0.3992
H23 H -0.2385 -0.0823 0.3892
C23 C -0.3245(2) 0.1586(5) 0.13375(12)
H24 H -0.2982 0.0740 0.1239
H25 H -0.2992 0.2507 0.1296
H26 H -0.3668 0.1639 0.1187
C24 C -0.4329(3) -0.4708(5) 0.05691(16)
H27 H -0.4782 -0.5127 0.0579
H28 H -0.4000 -0.5512 0.0591
H29 H -0.4266 -0.4182 0.0311
C25 C -0.4327(3) -0.4485(5) 0.13359(14)
H30 H -0.4784 -0.4878 0.1349
H31 H -0.4249 -0.3821 0.1568
H32 H -0.4007 -0.5310 0.1345
H33 H -0.301(3) 0.135(7) 0.1908(17)
O1C O -0.51639(11) -0.1645(2) 0.22058(6)
Mn1C Mn -0.57454(2) 0.49578(5) 0.298000(12)
O5 O -0.28451(15) -0.3601(4) 0.21356(11)
C26 C -0.3199(2) -0.4832(5) 0.23095(18)
H34 H -0.3677 -0.4593 0.2326
H35 H -0.3026 -0.5032 0.2583
H36 H -0.3137 -0.5714 0.2138
H37 H -0.304(3) -0.272(7) 0.2172(18)
loop_
_geom_bond_atom_site_label_1
_geom_bond_atom_site_label_2
_geom_bond_site_symmetry_1
_geom_bond_site_symmetry_2
Mn1 O2 1_555 1_555
O1 C3 1_555 1_555
O2 C9 1_555 1_555
N1 Mn1 1_555 1_555
O3 Mn1 1_555 1_555
O4 Mn1 1_555 1_555
N2 Mn1 1_555 1_555
C1 C8 1_555 1_555
C2 O4 1_555 1_555
C3 N1 1_555 1_555
C4 N2 1_555 1_555
H1 C4 1_555 1_555
C5 C4 1_555 1_555
C6 C7 1_555 1_555
C7 C8 1_555 1_555
C8 H2 1_555 1_555
C9 C1 1_555 1_555
C10 N1 1_555 1_555
C11 C5 1_555 1_555
H3 C11 1_555 1_555
C12 C6 1_555 1_555
H4 C12 1_555 1_555
H5 C12 1_555 1_555
H6 C12 1_555 1_555
C13 C2 1_555 1_555
H7 C13 1_555 1_555
C14 C1 1_555 1_555
C15 N2 1_555 1_555
H8 C15 1_555 1_555
H9 C15 1_555 1_555
C16 H10 1_555 1_555
C17 C13 1_555 1_555
C18 C10 1_555 1_555
H11 C18 1_555 1_555
C19 C6 1_555 1_555
H12 C19 1_555 1_555
H13 C19 1_555 1_555
H14 C19 1_555 1_555
C20 C6 1_555 1_555
H15 C20 1_555 1_555
H16 C20 1_555 1_555
H17 C20 1_555 1_555
C21 C14 1_555 1_555
H18 C21 1_555 1_555
H19 C21 1_555 1_555
H20 C21 1_555 1_555
C22 C17 1_555 1_555
H21 C22 1_555 1_555
H22 C22 1_555 1_555
H23 C22 1_555 1_555
C23 O3 1_555 1_555
H24 C23 1_555 1_555
H25 C23 1_555 1_555
H26 C23 1_555 1_555
C24 C14 1_555 1_555
H27 C24 1_555 1_555
H28 C24 1_555 1_555
H29 C24 1_555 1_555
C25 C14 1_555 1_555
H30 C25 1_555 1_555
H31 C25 1_555 1_555
H32 C25 1_555 1_555
H33 O3 1_555 1_555
O5 C26 1_555 1_555
C26 H34 1_555 1_555
H35 C26 1_555 1_555
H36 C26 1_555 1_555
H37 O5 1_555 1_555
O1C Mn1 1_555 1_555
Mn1C O1 1_555 1_555
C2 C10 1_555 1_555
C3 C15 1_555 1_555
C5 C9 1_555 1_555
C7 C11 1_555 1_555
C16 C17 1_555 1_555
C16 C18 1_555 1_555

#END
