
#######################################################################
#
#                 Cambridge Crystallographic Data Centre
#                                CCDC 
#
#######################################################################
#
# If this CIF has been generated from an entry in the Cambridge 
# Structural Database, then it will include bibliographic, chemical, 
# crystal, experimental, refinement or atomic coordinate data resulting 
# from the CCDC's data processing and validation procedures.
#
#######################################################################

data_LAHTOE
_symmetry_cell_setting           triclinic
_symmetry_space_group_name_H-M   'P -1'
_symmetry_Int_Tables_number      2
_space_group_name_Hall           '-P 1'
loop_
_symmetry_equiv_pos_site_id
_symmetry_equiv_pos_as_xyz
1 x,y,z
2 -x,-y,-z
_cell_length_a                   7.8009(7)
_cell_length_b                   13.4560(12)
_cell_length_c                   13.5453(12)
_cell_angle_alpha                65.207(2)
_cell_angle_beta                 88.035(2)
_cell_angle_gamma                77.135(2)
_cell_volume                     1255.57
loop_
_atom_site_label
_atom_site_type_symbol
_atom_site_fract_x
_atom_site_fract_y
_atom_site_fract_z
Co1 Co 0.24520(9) 0.17368(6) 0.95445(5)
Co2 Co 0.26128(9) 0.66535(6) 0.86587(6)
O1 O -0.0284(5) 0.2017(3) 0.9449(3)
O2 O 0.2472(5) 0.3232(3) 0.9703(3)
O3 O 0.5379(5) 0.6413(3) 0.8876(3)
O4 O 0.2686(5) 0.5769(3) 1.0429(3)
O5 O 0.3120(5) 0.5140(3) 0.8493(3)
O6 O 0.5243(5) 0.1431(3) 0.9537(3)
O7 O -0.0138(5) 0.6758(3) 0.8643(3)
O8 O 0.0036(5) 0.4828(3) 0.8473(3)
O9 O 0.2600(5) 0.0499(3) 0.8980(3)
O10 O 0.2601(6) 0.0259(3) 0.7447(3)
O11 O -0.2713(5) 0.2939(4) 0.8347(3)
O12 O 0.2291(5) 0.8136(3) 0.8846(3)
C1 C 0.2539(7) -0.0486(5) 1.3475(4)
C2 C 0.2632(7) 0.3786(4) 0.7585(4)
H1 H 0.2155 0.4368 0.6875
H2 H 0.3905 0.3600 0.7574
C3 C 0.2549(8) -0.1147(5) 1.4679(4)
C4 C 0.0008(7) 0.3061(4) 0.7547(4)
H3 H -0.0214 0.2751 0.7046
H4 H -0.0385 0.3873 0.7173
C5 C 0.2869(8) 0.2042(4) 0.7311(4)
H5 H 0.4109 0.2052 0.7295
H6 H 0.2393 0.2329 0.6566
C6 C -0.1073(7) 0.2639(4) 0.8522(4)
C7 C 0.4079(8) -0.1515(5) 1.5340(5)
H7 H 0.5126 -0.1345 1.5042
C8 C 0.3478(9) 0.0328(5) 1.3041(4)
H8 H 0.4129 0.0484 1.3499
C9 C 0.4038(8) -0.2134(5) 1.6444(5)
H9 H 0.5082 -0.2387 1.6876
C10 C 0.1117(9) -0.2028(6) 1.6287(5)
H10 H 0.0082 -0.2192 1.6609
C11 C 0.1617(9) -0.0682(5) 1.2753(5)
H11 H 0.0973 -0.1235 1.3012
C12 C 0.3466(8) 0.0918(5) 1.1928(5)
H12 H 0.4114 0.1468 1.1653
C13 C 0.2670(7) 0.0833(5) 0.7945(4)
C14 C 0.1033(8) -0.1418(6) 1.5170(5)
H13 H -0.0024 -0.1194 1.4756
C15 C 0.1646(8) -0.0062(5) 1.1651(5)
H14 H 0.0998 -0.0201 1.1179
N1 N 0.1937(6) 0.2770(3) 0.7819(3)
N2 N 0.2565(6) 0.0735(4) 1.1227(3)
N3 N 0.2572(6) -0.2393(4) 1.6927(3)
P1 P 0.20167(18) 0.42994(11) 0.86272(11)
N3_2 N 0.2572(6) 0.7607(4) 0.6927(3)
Co2_2 Co 0.26128(9) -0.33465(6) 1.86587(6)
O13 O 0.1756(8) 0.3632(5) 0.3581(5)
O14 O -0.5434(10) 0.4663(6) 0.3340(7)
O15 O 0.0295(19) 0.5925(11) 0.5021(7)
O16 O 0.353(2) 0.6150(11) 0.4561(11)
loop_
_geom_bond_atom_site_label_1
_geom_bond_atom_site_label_2
_geom_bond_site_symmetry_1
_geom_bond_site_symmetry_2
Co1 O1 1_555 1_555
Co2 O3 1_555 1_555
O1 C6 1_555 1_555
O2 Co1 1_555 1_555
O4 Co2 1_555 1_555
O5 Co2 1_555 1_555
O6 Co1 1_555 1_555
O7 Co2 1_555 1_555
O8 P1 1_555 1_555
O9 Co1 1_555 1_555
O10 C13 1_555 1_555
O11 C6 1_555 1_555
O12 Co2 1_555 1_555
C1 C3 1_555 1_555
C2 H1 1_555 1_555
H2 C2 1_555 1_555
C3 C7 1_555 1_555
C4 H3 1_555 1_555
H4 C4 1_555 1_555
C5 H5 1_555 1_555
H6 C5 1_555 1_555
C6 C4 1_555 1_555
C7 H7 1_555 1_555
C8 C1 1_555 1_555
H8 C8 1_555 1_555
C9 C7 1_555 1_555
H9 C9 1_555 1_555
C10 H10 1_555 1_555
C11 C1 1_555 1_555
H11 C11 1_555 1_555
C12 C8 1_555 1_555
H12 C12 1_555 1_555
C13 O9 1_555 1_555
C14 C3 1_555 1_555
H13 C14 1_555 1_555
C15 C11 1_555 1_555
H14 C15 1_555 1_555
N1 Co1 1_555 1_555
N2 Co1 1_555 1_555
N3 C9 1_555 1_555
P1 O2 1_555 1_555
N3_2 Co2 1_555 1_555
Co2_2 N3 1_555 1_555
O5 P1 1_555 1_555
C2 N1 1_555 1_555
C2 P1 1_555 1_555
C4 N1 1_555 1_555
C5 C13 1_555 1_555
C5 N1 1_555 1_555
C10 C14 1_555 1_555
C10 N3 1_555 1_555
C12 N2 1_555 1_555
C15 N2 1_555 1_555

#END
