
#######################################################################
#
#                 Cambridge Crystallographic Data Centre
#                                CCDC 
#
#######################################################################
#
# If this CIF has been generated from an entry in the Cambridge 
# Structural Database, then it will include bibliographic, chemical, 
# crystal, experimental, refinement or atomic coordinate data resulting 
# from the CCDC's data processing and validation procedures.
#
#######################################################################

data_LAHTEU
_symmetry_cell_setting           orthorhombic
_symmetry_space_group_name_H-M   'P b c a'
_symmetry_Int_Tables_number      61
_space_group_name_Hall           '-P 2ac 2ab'
loop_
_symmetry_equiv_pos_site_id
_symmetry_equiv_pos_as_xyz
1 x,y,z
2 1/2-x,-y,1/2+z
3 1/2+x,1/2-y,-z
4 -x,1/2+y,1/2-z
5 -x,-y,-z
6 1/2+x,y,1/2-z
7 1/2-x,1/2+y,z
8 x,1/2-y,1/2+z
_cell_length_a                   18.653(3)
_cell_length_b                   8.8588(14)
_cell_length_c                   32.470(6)
_cell_angle_alpha                90
_cell_angle_beta                 90
_cell_angle_gamma                90
_cell_volume                     5365.45
loop_
_atom_site_label
_atom_site_type_symbol
_atom_site_fract_x
_atom_site_fract_y
_atom_site_fract_z
Mn1 Mn 0.42884(4) 0.00764(8) 0.20105(2)
O1 O 0.43646(17) 0.1196(4) 0.15201(11)
O2 O 0.35610(17) 0.1127(4) 0.23126(11)
O3 O 0.47753(18) -0.3379(4) 0.27796(12)
O4 O 0.3420(3) -0.1348(6) 0.17092(17)
N1 N 0.5025(2) -0.1363(4) 0.18304(13)
N2 N 0.42784(19) -0.1238(4) 0.24878(13)
C1 C 0.5358(3) -0.0047(6) 0.12018(17)
C2 C 0.3791(2) -0.0797(5) 0.27979(15)
C3 C 0.4715(2) -0.2443(5) 0.24948(16)
C4 C 0.4887(3) 0.2287(6) 0.09212(17)
C5 C 0.3410(2) 0.0513(6) 0.26867(16)
C6 C 0.4858(3) 0.1141(5) 0.12261(16)
C7 C 0.5405(3) -0.1224(6) 0.15020(17)
H1 H 0.5747 -0.1968 0.1455
C8 C 0.5166(3) -0.2596(6) 0.21154(17)
H2 H 0.5669 -0.2594 0.2191
H3 H 0.5061 -0.3551 0.1982
C9 C 0.2928(3) 0.1150(7) 0.29594(19)
H4 H 0.2673 0.2013 0.2887
C10 C 0.5869(3) -0.0125(7) 0.08763(19)
C11 C 0.3685(3) -0.1446(6) 0.31826(17)
H5 H 0.3938 -0.2306 0.3260
C12 C 0.4399(4) 0.3681(7) 0.0945(2)
C13 C 0.5392(3) 0.2150(7) 0.06125(19)
H6 H 0.5409 0.2904 0.0413
C14 C 0.5882(3) 0.0957(7) 0.0578(2)
C15 C 0.3194(3) -0.0787(7) 0.3451(2)
H7 H 0.3114 -0.1218 0.3708
C16 C 0.4573(4) 0.4546(7) 0.1344(3)
H8 H 0.4273 0.5424 0.1363
H9 H 0.5067 0.4849 0.1341
H10 H 0.4487 0.3904 0.1577
C17 C 0.2828(3) 0.0492(7) 0.3340(2)
H11 H 0.2507 0.0924 0.3524
C18 C 0.3317(4) -0.1522(9) 0.1280(2)
H12 H 0.3075 -0.0650 0.1172
H13 H 0.3032 -0.2405 0.1229
H14 H 0.3774 -0.1630 0.1147
C19 C 0.3607(4) 0.3238(9) 0.0944(3)
H15 H 0.3317 0.4131 0.0960
H16 H 0.3509 0.2603 0.1177
H17 H 0.3498 0.2701 0.0695
C20 C 0.4499(5) 0.4734(9) 0.0577(3)
H18 H 0.4188 0.5591 0.0606
H19 H 0.4385 0.4205 0.0328
H20 H 0.4988 0.5070 0.0567
C21 C 0.6423(4) 0.0874(9) 0.0225(2)
C22 C 0.7198(8) 0.096(2) 0.0421(5)
H21 H 0.7275 0.0096 0.0594
H22 H 0.7239 0.1863 0.0582
H23 H 0.7550 0.0973 0.0205
C23 C 0.6505(7) -0.0617(13) 0.0062(4)
H24 H 0.6405 -0.1343 0.0274
H25 H 0.6987 -0.0750 -0.0034
H26 H 0.6177 -0.0759 -0.0162
C24 C 0.6382(11) 0.203(2) -0.0049(5)
H27 H 0.6311 0.2961 0.0096
H28 H 0.5987 0.1861 -0.0233
H29 H 0.6819 0.2082 -0.0204
H30 H 0.312(4) -0.132(9) 0.179(3)
O3C O 0.52247(18) 0.1621(4) 0.22204(12)
Mn1C Mn 0.57116(4) -0.49236(8) 0.29895(2)
O5 O 0.2117(2) -0.1377(5) 0.20556(14)
H31 H 0.2539 -0.1273 0.2120
C25 C 0.1709(2) -0.0159(5) 0.22176(14)
H32 H 0.1902 0.0778 0.2119
H33 H 0.1730 -0.0180 0.2513
H34 H 0.1220 -0.0253 0.2130
loop_
_geom_bond_atom_site_label_1
_geom_bond_atom_site_label_2
_geom_bond_site_symmetry_1
_geom_bond_site_symmetry_2
Mn1 O1 1_555 1_555
O1 C6 1_555 1_555
O2 Mn1 1_555 1_555
O3 C3 1_555 1_555
O4 Mn1 1_555 1_555
N1 Mn1 1_555 1_555
N2 Mn1 1_555 1_555
C1 C6 1_555 1_555
C2 N2 1_555 1_555
C3 N2 1_555 1_555
C4 C6 1_555 1_555
C5 O2 1_555 1_555
C7 N1 1_555 1_555
H1 C7 1_555 1_555
C8 N1 1_555 1_555
H2 C8 1_555 1_555
H3 C8 1_555 1_555
C9 C5 1_555 1_555
H4 C9 1_555 1_555
C10 C1 1_555 1_555
C11 C2 1_555 1_555
H5 C11 1_555 1_555
C12 C4 1_555 1_555
C13 C4 1_555 1_555
H6 C13 1_555 1_555
C14 C10 1_555 1_555
C15 C11 1_555 1_555
H7 C15 1_555 1_555
C16 C12 1_555 1_555
H8 C16 1_555 1_555
H9 C16 1_555 1_555
H10 C16 1_555 1_555
C17 C9 1_555 1_555
H11 C17 1_555 1_555
C18 O4 1_555 1_555
H12 C18 1_555 1_555
H13 C18 1_555 1_555
H14 C18 1_555 1_555
C19 C12 1_555 1_555
H15 C19 1_555 1_555
H16 C19 1_555 1_555
H17 C19 1_555 1_555
C20 C12 1_555 1_555
H18 C20 1_555 1_555
H19 C20 1_555 1_555
H20 C20 1_555 1_555
C21 C14 1_555 1_555
C22 C21 1_555 1_555
H21 C22 1_555 1_555
H22 C22 1_555 1_555
H23 C22 1_555 1_555
C23 C21 1_555 1_555
H24 C23 1_555 1_555
H25 C23 1_555 1_555
H26 C23 1_555 1_555
C24 C21 1_555 1_555
H27 C24 1_555 1_555
H28 C24 1_555 1_555
H29 C24 1_555 1_555
H30 O4 1_555 1_555
O5 H31 1_555 1_555
C25 O5 1_555 1_555
H32 C25 1_555 1_555
H33 C25 1_555 1_555
H34 C25 1_555 1_555
O3C Mn1 1_555 1_555
Mn1C O3 1_555 1_555
C1 C7 1_555 1_555
C2 C5 1_555 1_555
C3 C8 1_555 1_555
C13 C14 1_555 1_555
C15 C17 1_555 1_555

#END
