
#######################################################################
#
#                 Cambridge Crystallographic Data Centre
#                                CCDC 
#
#######################################################################
#
# If this CIF has been generated from an entry in the Cambridge 
# Structural Database, then it will include bibliographic, chemical, 
# crystal, experimental, refinement or atomic coordinate data resulting 
# from the CCDC's data processing and validation procedures.
#
#######################################################################

data_LAHWIC
_symmetry_cell_setting           monoclinic
_symmetry_space_group_name_H-M   'P 21/n'
_symmetry_Int_Tables_number      14
_space_group_name_Hall           '-P 2yn'
loop_
_symmetry_equiv_pos_site_id
_symmetry_equiv_pos_as_xyz
1 x,y,z
2 1/2-x,1/2+y,1/2-z
3 -x,-y,-z
4 1/2+x,1/2-y,1/2+z
_cell_length_a                   10.141(2)
_cell_length_b                   18.174(4)
_cell_length_c                   22.988(5)
_cell_angle_alpha                90
_cell_angle_beta                 97.34(3)
_cell_angle_gamma                90
_cell_volume                     4202.03
loop_
_atom_site_label
_atom_site_type_symbol
_atom_site_fract_x
_atom_site_fract_y
_atom_site_fract_z
Bi1 Bi 0.801863(17) 0.135685(12) 0.218288(9)
Bi2 Bi 1.309410(18) 0.072825(13) 0.219603(9)
S1 S 1.06187(12) 0.08968(9) 0.31714(6)
S2 S 1.05596(12) 0.13838(9) 0.12550(6)
S3 S 0.56380(12) 0.12037(9) 0.32061(6)
S4 S 0.54054(12) 0.08501(9) 0.12051(6)
O1 O 1.0008(3) 0.1544(2) 0.28402(16)
O2 O 1.1990(3) 0.0796(2) 0.30380(17)
O3 O 0.9800(3) 0.0258(2) 0.30945(17)
O4 O 0.9202(3) 0.1571(2) 0.13582(16)
O5 O 1.1015(3) 0.0710(2) 0.15866(16)
O6 O 1.1495(3) 0.1985(2) 0.13827(16)
O7 O 0.7001(3) 0.1317(2) 0.30522(16)
O8 O 0.5055(3) 0.0532(2) 0.29066(16)
O9 O 0.4787(3) 0.1834(2) 0.31146(16)
O10 O 0.5798(3) 0.1439(2) 0.16388(16)
O11 O 0.4173(3) 0.0497(2) 0.13573(16)
O12 O 0.6457(3) 0.0333(2) 0.11421(16)
C1 C 0.7853(5) 0.2572(4) 0.2201(2)
C2 C 0.6679(5) 0.2917(4) 0.2294(2)
H1 H 0.5923 0.2633 0.2357
C3 C 0.6611(5) 0.3677(4) 0.2296(2)
H2 H 0.5801 0.3913 0.2354
C4 C 0.7712(5) 0.4098(4) 0.2215(2)
H3 H 0.7662 0.4620 0.2220
C5 C 0.8888(5) 0.3749(4) 0.2126(3)
H4 H 0.9646 0.4036 0.2070
C6 C 0.8966(5) 0.2994(4) 0.2117(2)
H5 H 0.9774 0.2759 0.2054
C7 C 1.0834(5) 0.1141(4) 0.3916(2)
C8 C 1.1916(6) 0.1569(4) 0.4142(3)
H6 H 1.2536 0.1738 0.3895
C9 C 1.2071(7) 0.1744(4) 0.4731(3)
H7 H 1.2802 0.2042 0.4886
C10 C 1.1189(7) 0.1497(5) 0.5103(3)
C11 C 1.0124(7) 0.1070(5) 0.4859(3)
H8 H 0.9500 0.0898 0.5103
C12 C 0.9948(6) 0.0888(4) 0.4273(3)
H9 H 0.9218 0.0589 0.4117
C13 C 1.1423(7) 0.1676(5) 0.5748(3)
H10 H 1.1326 0.2207 0.5803
H11 H 1.2322 0.1523 0.5910
H12 H 1.0771 0.1414 0.5951
C14 C 1.0464(5) 0.1167(4) 0.0509(2)
C15 C 0.9519(6) 0.1525(4) 0.0115(3)
H13 H 0.8864 0.1831 0.0252
C16 C 0.9555(6) 0.1425(4) -0.0481(3)
H14 H 0.8915 0.1669 -0.0753
C17 C 1.0491(5) 0.0982(4) -0.0691(3)
C18 C 1.1395(5) 0.0610(4) -0.0289(3)
H15 H 1.2032 0.0293 -0.0427
C19 C 1.1385(5) 0.0691(4) 0.0307(3)
H16 H 1.1997 0.0427 0.0577
C20 C 1.0557(6) 0.0914(4) -0.1342(2)
H17 H 0.9822 0.0605 -0.1521
H18 H 1.1405 0.0688 -0.1406
H19 H 1.0488 0.1403 -0.1522
C21 C 0.5884(5) 0.1006(4) 0.3962(2)
C22 C 0.6396(5) 0.0330(4) 0.4164(3)
H20 H 0.6560 -0.0043 0.3892
C23 C 0.6664(5) 0.0202(4) 0.4760(3)
H21 H 0.7015 -0.0261 0.4895
C24 C 0.6428(5) 0.0739(4) 0.5164(3)
C25 C 0.5904(5) 0.1406(4) 0.4948(3)
H22 H 0.5717 0.1778 0.5217
C26 C 0.5647(5) 0.1542(4) 0.4352(3)
H23 H 0.5307 0.2006 0.4214
C27 C 0.6778(6) 0.0614(5) 0.5811(3)
H24 H 0.6590 0.0101 0.5904
H25 H 0.6248 0.0942 0.6027
H26 H 0.7726 0.0715 0.5924
C28 C 0.4921(5) 0.1280(4) 0.0531(3)
C29 C 0.4047(5) 0.1869(4) 0.0493(3)
H27 H 0.3758 0.2063 0.0840
C30 C 0.3595(5) 0.2175(4) -0.0041(3)
H28 H 0.3008 0.2584 -0.0061
C31 C 0.3986(5) 0.1892(4) -0.0555(3)
C32 C 0.4837(6) 0.1305(4) -0.0513(3)
H29 H 0.5101 0.1102 -0.0861
C33 C 0.5319(6) 0.1002(4) 0.0021(3)
H30 H 0.5926 0.0601 0.0039
C34 C 0.3462(6) 0.2221(4) -0.1148(3)
H31 H 0.4078 0.2600 -0.1251
H32 H 0.2587 0.2440 -0.1129
H33 H 0.3385 0.1833 -0.1447
C35 C 1.2829(5) -0.0487(4) 0.2223(2)
C36 C 1.3212(6) -0.0919(4) 0.1782(3)
H34 H 1.3540 -0.0694 0.1456
C37 C 1.3125(6) -0.1678(4) 0.1808(3)
H35 H 1.3426 -0.1971 0.1509
C38 C 1.2605(5) -0.2007(4) 0.2264(3)
H36 H 1.2522 -0.2527 0.2275
C39 C 1.2206(6) -0.1590(4) 0.2703(3)
H37 H 1.1851 -0.1817 0.3021
C40 C 1.2324(5) -0.0834(4) 0.2681(3)
H38 H 1.2051 -0.0546 0.2989
Bi2_2 Bi 0.309410(18) 0.072825(13) 0.219603(9)
O8_2 O 1.5055(3) 0.0532(2) 0.29066(16)
O11_2 O 1.4173(3) 0.0497(2) 0.13573(16)
loop_
_geom_bond_atom_site_label_1
_geom_bond_atom_site_label_2
_geom_bond_site_symmetry_1
_geom_bond_site_symmetry_2
Bi1 O1 1_555 1_555
Bi2 O2 1_555 1_555
S1 O1 1_555 1_555
S2 O4 1_555 1_555
S3 O7 1_555 1_555
S4 O10 1_555 1_555
O2 S1 1_555 1_555
O3 S1 1_555 1_555
O4 Bi1 1_555 1_555
O5 Bi2 1_555 1_555
O6 S2 1_555 1_555
O7 Bi1 1_555 1_555
O8 S3 1_555 1_555
O9 S3 1_555 1_555
O10 Bi1 1_555 1_555
O11 S4 1_555 1_555
O12 S4 1_555 1_555
C1 Bi1 1_555 1_555
C2 C1 1_555 1_555
H1 C2 1_555 1_555
C3 C2 1_555 1_555
H2 C3 1_555 1_555
C4 C3 1_555 1_555
H3 C4 1_555 1_555
C5 C4 1_555 1_555
H4 C5 1_555 1_555
C6 C1 1_555 1_555
H5 C6 1_555 1_555
C7 S1 1_555 1_555
C8 C7 1_555 1_555
H6 C8 1_555 1_555
C9 C8 1_555 1_555
H7 C9 1_555 1_555
C10 C9 1_555 1_555
C11 C10 1_555 1_555
H8 C11 1_555 1_555
C12 C7 1_555 1_555
H9 C12 1_555 1_555
C13 C10 1_555 1_555
H10 C13 1_555 1_555
H11 C13 1_555 1_555
H12 C13 1_555 1_555
C14 S2 1_555 1_555
C15 C14 1_555 1_555
H13 C15 1_555 1_555
C16 C15 1_555 1_555
H14 C16 1_555 1_555
C17 C16 1_555 1_555
C18 C17 1_555 1_555
H15 C18 1_555 1_555
C19 C14 1_555 1_555
H16 C19 1_555 1_555
C20 C17 1_555 1_555
H17 C20 1_555 1_555
H18 C20 1_555 1_555
H19 C20 1_555 1_555
C21 S3 1_555 1_555
C22 C21 1_555 1_555
H20 C22 1_555 1_555
C23 C22 1_555 1_555
H21 C23 1_555 1_555
C24 C23 1_555 1_555
C25 C24 1_555 1_555
H22 C25 1_555 1_555
C26 C21 1_555 1_555
H23 C26 1_555 1_555
C27 C24 1_555 1_555
H24 C27 1_555 1_555
H25 C27 1_555 1_555
H26 C27 1_555 1_555
C28 S4 1_555 1_555
C29 C28 1_555 1_555
H27 C29 1_555 1_555
C30 C29 1_555 1_555
H28 C30 1_555 1_555
C31 C30 1_555 1_555
C32 C31 1_555 1_555
H29 C32 1_555 1_555
C33 C28 1_555 1_555
H30 C33 1_555 1_555
C34 C31 1_555 1_555
H31 C34 1_555 1_555
H32 C34 1_555 1_555
H33 C34 1_555 1_555
C35 Bi2 1_555 1_555
C36 C35 1_555 1_555
H34 C36 1_555 1_555
C37 C36 1_555 1_555
H35 C37 1_555 1_555
C38 C37 1_555 1_555
H36 C38 1_555 1_555
C39 C38 1_555 1_555
H37 C39 1_555 1_555
C40 C35 1_555 1_555
H38 C40 1_555 1_555
Bi2_2 O8 1_555 1_555
O8_2 Bi2 1_555 1_555
O11_2 Bi2 1_555 1_555
S2 O5 1_555 1_555
O11 Bi2_2 1_555 1_555
C5 C6 1_555 1_555
C11 C12 1_555 1_555
C18 C19 1_555 1_555
C25 C26 1_555 1_555
C32 C33 1_555 1_555
C39 C40 1_555 1_555

#END
