
#######################################################################
#
#                 Cambridge Crystallographic Data Centre
#                                CCDC 
#
#######################################################################
#
# If this CIF has been generated from an entry in the Cambridge 
# Structural Database, then it will include bibliographic, chemical, 
# crystal, experimental, refinement or atomic coordinate data resulting 
# from the CCDC's data processing and validation procedures.
#
#######################################################################

data_LAHXAV
_symmetry_cell_setting           monoclinic
_symmetry_space_group_name_H-M   'P 21/n'
_symmetry_Int_Tables_number      14
_space_group_name_Hall           '-P 2yn'
loop_
_symmetry_equiv_pos_site_id
_symmetry_equiv_pos_as_xyz
1 x,y,z
2 1/2-x,1/2+y,1/2-z
3 -x,-y,-z
4 1/2+x,1/2-y,1/2+z
_cell_length_a                   11.7139(3)
_cell_length_b                   8.9011(3)
_cell_length_c                   19.1572(5)
_cell_angle_alpha                90
_cell_angle_beta                 99.3340(10)
_cell_angle_gamma                90
_cell_volume                     1971.01
loop_
_atom_site_label
_atom_site_type_symbol
_atom_site_fract_x
_atom_site_fract_y
_atom_site_fract_z
Bi1 Bi 0.77407(4) 0.88819(5) 0.21626(2)
S1 S 0.5420(3) 0.6843(4) 0.25779(16)
O1 O 0.6291(8) 0.6964(10) 0.2101(4)
O2 O 0.5409(8) 0.5279(11) 0.2834(5)
O3 O 0.5620(8) 0.7928(10) 0.3134(5)
C1 C 0.8818(11) 0.7535(15) 0.3004(6)
C2 C 0.8457(11) 0.7443(14) 0.3666(7)
H1 H 0.7747 0.7885 0.3737
C3 C 0.9157(12) 0.6692(16) 0.4221(7)
H2 H 0.8931 0.6661 0.4675
C4 C 1.0149(11) 0.6011(18) 0.4119(7)
H3 H 1.0586 0.5455 0.4493
C5 C 1.0535(12) 0.6118(19) 0.3471(7)
H4 H 1.1247 0.5670 0.3407
C6 C 0.9861(13) 0.6893(15) 0.2915(7)
H5 H 1.0122 0.6980 0.2473
C7 C 0.8139(10) 0.7645(14) 0.1225(6)
C8 C 0.8531(10) 0.6151(17) 0.1243(6)
H6 H 0.8696 0.5637 0.1683
C9 C 0.8678(12) 0.5421(16) 0.0622(7)
H7 H 0.8968 0.4423 0.0640
C10 C 0.8402(11) 0.6145(17) -0.0022(7)
H8 H 0.8494 0.5641 -0.0447
C11 C 0.7992(12) 0.7598(16) -0.0048(7)
H9 H 0.7798 0.8095 -0.0490
C12 C 0.7867(11) 0.8318(17) 0.0557(6)
H10 H 0.7583 0.9320 0.0528
C13 C 0.4050(10) 0.7234(14) 0.2048(7)
C14 C 0.3861(12) 0.6761(14) 0.1335(7)
C15 C 0.2839(12) 0.7232(15) 0.0911(7)
H11 H 0.2711 0.6945 0.0427
C16 C 0.2011(12) 0.8084(15) 0.1155(7)
C17 C 0.2189(12) 0.8429(15) 0.1882(7)
H12 H 0.1612 0.8972 0.2072
C18 C 0.3192(12) 0.7991(15) 0.2327(7)
C19 C 0.4664(13) 0.5794(17) 0.0981(7)
H13 H 0.4228 0.5333 0.0555
H14 H 0.4999 0.5005 0.1308
H15 H 0.5286 0.6418 0.0850
C20 C 0.0930(12) 0.8599(19) 0.0690(8)
H16 H 0.1119 0.8948 0.0237
H17 H 0.0582 0.9424 0.0921
H18 H 0.0381 0.7762 0.0607
C21 C 0.3294(13) 0.8466(18) 0.3101(7)
H19 H 0.3786 0.9359 0.3184
H20 H 0.3638 0.7646 0.3406
H21 H 0.2524 0.8696 0.3209
Bi1A Bi 0.72593(4) 0.38819(5) 0.28374(2)
O2A O 0.9591(8) 1.0279(11) 0.2166(5)
loop_
_geom_bond_atom_site_label_1
_geom_bond_atom_site_label_2
_geom_bond_site_symmetry_1
_geom_bond_site_symmetry_2
Bi1 O1 1_555 1_555
S1 O1 1_555 1_555
O2 S1 1_555 1_555
O3 S1 1_555 1_555
C1 Bi1 1_555 1_555
C2 C1 1_555 1_555
H1 C2 1_555 1_555
C3 C2 1_555 1_555
H2 C3 1_555 1_555
C4 C3 1_555 1_555
H3 C4 1_555 1_555
C5 C4 1_555 1_555
H4 C5 1_555 1_555
C6 C1 1_555 1_555
H5 C6 1_555 1_555
C7 Bi1 1_555 1_555
C8 C7 1_555 1_555
H6 C8 1_555 1_555
C9 C8 1_555 1_555
H7 C9 1_555 1_555
C10 C9 1_555 1_555
H8 C10 1_555 1_555
C11 C10 1_555 1_555
H9 C11 1_555 1_555
C12 C7 1_555 1_555
H10 C12 1_555 1_555
C13 S1 1_555 1_555
C14 C13 1_555 1_555
C15 C14 1_555 1_555
H11 C15 1_555 1_555
C16 C15 1_555 1_555
C17 C16 1_555 1_555
H12 C17 1_555 1_555
C18 C13 1_555 1_555
C19 C14 1_555 1_555
H13 C19 1_555 1_555
H14 C19 1_555 1_555
H15 C19 1_555 1_555
C20 C16 1_555 1_555
H16 C20 1_555 1_555
H17 C20 1_555 1_555
H18 C20 1_555 1_555
C21 C18 1_555 1_555
H19 C21 1_555 1_555
H20 C21 1_555 1_555
H21 C21 1_555 1_555
Bi1A O2 1_555 1_555
O2A Bi1 1_555 1_555
C5 C6 1_555 1_555
C11 C12 1_555 1_555
C17 C18 1_555 1_555

#END
