
#######################################################################
#
#                 Cambridge Crystallographic Data Centre
#                                CCDC 
#
#######################################################################
#
# If this CIF has been generated from an entry in the Cambridge 
# Structural Database, then it will include bibliographic, chemical, 
# crystal, experimental, refinement or atomic coordinate data resulting 
# from the CCDC's data processing and validation procedures.
#
#######################################################################

data_LAHYUP
_symmetry_cell_setting           monoclinic
_symmetry_space_group_name_H-M   'P 21/c'
_symmetry_Int_Tables_number      14
_space_group_name_Hall           '-P 2ybc'
loop_
_symmetry_equiv_pos_site_id
_symmetry_equiv_pos_as_xyz
1 x,y,z
2 -x,1/2+y,1/2-z
3 -x,-y,-z
4 x,1/2-y,1/2+z
_cell_length_a                   11.6602(4)
_cell_length_b                   19.9062(6)
_cell_length_c                   9.6896(3)
_cell_angle_alpha                90
_cell_angle_beta                 99.5760(10)
_cell_angle_gamma                90
_cell_volume                     2217.72
loop_
_atom_site_label
_atom_site_type_symbol
_atom_site_fract_x
_atom_site_fract_y
_atom_site_fract_z
Cu1 Cu 0.08710(4) 0.06582(2) 0.04303(5)
Cu2 Cu 0.23396(4) 0.15425(2) -0.16751(5)
Cu3 Cu 0.36902(4) 0.10079(3) 0.11134(5)
O1 O 0.2313(2) 0.08105(12) -0.0300(3)
H1 H 0.240(4) 0.0483(15) -0.084(4)
O2 O 0.2524(3) 0.23310(14) -0.2838(3)
O3 O 0.2903(2) 0.28687(14) -0.4658(3)
O4 O -0.0595(2) 0.03360(13) 0.0943(3)
O5 O -0.2165(2) 0.02912(14) 0.1904(3)
N1 N 0.3966(3) 0.12681(17) -0.1690(4)
N2 N 0.4582(3) 0.10487(17) -0.0435(4)
N3 N 0.0652(3) 0.16418(16) -0.1829(3)
N4 N 0.0060(3) 0.12854(17) -0.0962(4)
N5 N 0.1794(3) 0.03796(18) 0.2203(4)
N6 N 0.2902(3) 0.06092(17) 0.2546(3)
N7 N 0.4890(3) 0.14511(19) 0.2540(4)
N8 N 0.4616(3) 0.19948(19) 0.3240(4)
H2 H 0.400(4) 0.218(3) 0.293(5)
C1 C 0.5620(4) 0.0886(3) -0.0666(6)
H3 H 0.6208 0.0717 0.0011
C2 C 0.5730(4) 0.0996(3) -0.2036(6)
H4 H 0.6376 0.0920 -0.2463
C3 C 0.4673(4) 0.1244(3) -0.2625(5)
H5 H 0.4475 0.1377 -0.3554
C4 C -0.0106(4) 0.2037(2) -0.2612(5)
H6 H 0.0073 0.2331 -0.3291
C5 C -0.1205(4) 0.1948(3) -0.2273(6)
H7 H -0.1893 0.2161 -0.2663
C6 C -0.1045(4) 0.1475(2) -0.1230(6)
H8 H -0.1629 0.1310 -0.0776
C7 C 0.1547(5) 0.0041(2) 0.3313(5)
H9 H 0.0845 -0.0174 0.3351
C8 C 0.2478(5) 0.0058(2) 0.4382(5)
H10 H 0.2529 -0.0130 0.5269
C9 C 0.3312(4) 0.0411(2) 0.3856(5)
H11 H 0.4055 0.0500 0.4336
C10 C 0.5960(4) 0.1301(3) 0.3118(5)
H12 H 0.6387 0.0946 0.2840
C11 C 0.6365(5) 0.1738(3) 0.4192(6)
H13 H 0.7088 0.1731 0.4767
C12 C 0.5487(5) 0.2181(3) 0.4234(5)
H14 H 0.5493 0.2544 0.4839
C13 C 0.2451(3) 0.23878(18) -0.4137(4)
C14 C 0.1813(5) 0.1866(2) -0.5080(5)
H15 H 0.1518 0.1528 -0.4525
H16 H 0.2333 0.1664 -0.5629
H17 H 0.1177 0.2073 -0.5689
C15 C -0.1239(4) 0.05558(19) 0.1782(4)
C16 C -0.0849(5) 0.1162(3) 0.2659(7)
H18 H -0.0115 0.1314 0.2454
H19 H -0.0768 0.1045 0.3632
H20 H -0.1416 0.1513 0.2452
O4B O 0.0595(2) -0.03360(13) -0.0943(3)
O3C O 0.2903(2) 0.21313(14) 0.0342(3)
Cu2C Cu 0.23396(4) 0.34575(2) -0.66751(5)
Cu3C Cu 0.36902(4) 0.39921(3) -0.38866(5)
Cu1B Cu -0.08710(4) -0.06582(2) -0.04303(5)
loop_
_geom_bond_atom_site_label_1
_geom_bond_atom_site_label_2
_geom_bond_site_symmetry_1
_geom_bond_site_symmetry_2
Cu1 O1 1_555 1_555
Cu2 O1 1_555 1_555
Cu3 O1 1_555 1_555
O1 H1 1_555 1_555
O2 Cu2 1_555 1_555
O3 C13 1_555 1_555
O4 Cu1 1_555 1_555
O5 C15 1_555 1_555
N1 Cu2 1_555 1_555
N2 Cu3 1_555 1_555
N3 Cu2 1_555 1_555
N4 Cu1 1_555 1_555
N5 Cu1 1_555 1_555
N6 Cu3 1_555 1_555
N7 Cu3 1_555 1_555
N8 N7 1_555 1_555
H2 N8 1_555 1_555
C1 N2 1_555 1_555
H3 C1 1_555 1_555
C2 C1 1_555 1_555
H4 C2 1_555 1_555
C3 N1 1_555 1_555
H5 C3 1_555 1_555
C4 N3 1_555 1_555
H6 C4 1_555 1_555
C5 C4 1_555 1_555
H7 C5 1_555 1_555
C6 N4 1_555 1_555
H8 C6 1_555 1_555
C7 N5 1_555 1_555
H9 C7 1_555 1_555
C8 C7 1_555 1_555
H10 C8 1_555 1_555
C9 N6 1_555 1_555
H11 C9 1_555 1_555
C10 N7 1_555 1_555
H12 C10 1_555 1_555
C11 C10 1_555 1_555
H13 C11 1_555 1_555
C12 N8 1_555 1_555
H14 C12 1_555 1_555
C13 O2 1_555 1_555
C14 C13 1_555 1_555
H15 C14 1_555 1_555
H16 C14 1_555 1_555
H17 C14 1_555 1_555
C15 O4 1_555 1_555
C16 C15 1_555 1_555
H18 C16 1_555 1_555
H19 C16 1_555 1_555
H20 C16 1_555 1_555
O4B Cu1 1_555 1_555
O3C Cu2 1_555 1_555
Cu2C O3 1_555 1_555
Cu3C O3 1_555 1_555
Cu1B O4 1_555 1_555
Cu3 O3C 1_555 1_555
N1 N2 1_555 1_555
N3 N4 1_555 1_555
N5 N6 1_555 1_555
C2 C3 1_555 1_555
C5 C6 1_555 1_555
C8 C9 1_555 1_555
C11 C12 1_555 1_555
O4B Cu1B 1_555 1_555

#END
