
#######################################################################
#
#                 Cambridge Crystallographic Data Centre
#                                CCDC 
#
#######################################################################
#
# If this CIF has been generated from an entry in the Cambridge 
# Structural Database, then it will include bibliographic, chemical, 
# crystal, experimental, refinement or atomic coordinate data resulting 
# from the CCDC's data processing and validation procedures.
#
#######################################################################

data_LAJLAL
_symmetry_cell_setting           cubic
_symmetry_space_group_name_H-M   'I 4 3 2'
_symmetry_Int_Tables_number      211
_space_group_name_Hall           'I 4 2 3'
loop_
_symmetry_equiv_pos_site_id
_symmetry_equiv_pos_as_xyz
1 x,y,z
2 -y,x,z
3 x,-y,-z
4 z,x,y
5 -x,-y,z
6 y,x,-z
7 -x,z,y
8 y,-x,z
9 -x,y,-z
10 -z,-x,y
11 -y,-x,-z
12 x,-z,y
13 z,-x,-y
14 -x,-z,-y
15 -z,x,-y
16 x,z,-y
17 y,z,x
18 -z,y,x
19 z,y,-x
20 y,-z,-x
21 -z,-y,-x
22 -y,z,-x
23 -y,-z,x
24 z,-y,x
25 1/2+x,1/2+y,1/2+z
26 1/2-y,1/2+x,1/2+z
27 1/2+x,1/2-y,1/2-z
28 1/2+z,1/2+x,1/2+y
29 1/2-x,1/2-y,1/2+z
30 1/2+y,1/2+x,1/2-z
31 1/2-x,1/2+z,1/2+y
32 1/2+y,1/2-x,1/2+z
33 1/2-x,1/2+y,1/2-z
34 1/2-z,1/2-x,1/2+y
35 1/2-y,1/2-x,1/2-z
36 1/2+x,1/2-z,1/2+y
37 1/2+z,1/2-x,1/2-y
38 1/2-x,1/2-z,1/2-y
39 1/2-z,1/2+x,1/2-y
40 1/2+x,1/2+z,1/2-y
41 1/2+y,1/2+z,1/2+x
42 1/2-z,1/2+y,1/2+x
43 1/2+z,1/2+y,1/2-x
44 1/2+y,1/2-z,1/2-x
45 1/2-z,1/2-y,1/2-x
46 1/2-y,1/2+z,1/2-x
47 1/2-y,1/2-z,1/2+x
48 1/2+z,1/2-y,1/2+x
_cell_length_a                   31.006(8)
_cell_length_b                   31.006(8)
_cell_length_c                   31.006(8)
_cell_angle_alpha                90
_cell_angle_beta                 90
_cell_angle_gamma                90
_cell_volume                     29808.3
loop_
_atom_site_label
_atom_site_type_symbol
_atom_site_fract_x
_atom_site_fract_y
_atom_site_fract_z
K1 K 0.81116(10) 0.5000 0.81116(10)
O1 O 0.8388(5) 0.6864(3) 0.8587(3)
C1 C 0.8193(9) 0.6532(4) 0.8749(3)
H1 H 0.7877 0.6591 0.8766
O2 O 0.8037(6) 0.5738(3) 0.8620(3)
H2 H 0.8061 0.5729 0.8935
C2 C 0.8280(4) 0.6047(3) 0.8468(3)
H3 H 0.8163 0.6104 0.8173
O3 O 0.8800(4) 0.5658(3) 0.8145(3)
H4 H 0.8725 0.5392 0.8298
C3 C 0.8720(6) 0.6008(3) 0.8407(2)
H5 H 0.8846 0.5937 0.8696
O4 O 0.9417(3) 0.63970(18) 0.82612(18)
C4 C 0.8956(6) 0.6474(2) 0.8244(3)
H6 H 0.8863 0.6552 0.7945
C5 C 0.8880(7) 0.6870(3) 0.8572(3)
H7 H 0.9011 0.6815 0.8862
O5 O 0.8917(9) 0.7315(6) 0.7915(9)
H8 H 0.8603 0.7293 0.7889
C6 C 0.9042(8) 0.7278(8) 0.8375(5)
H9 H 0.9360 0.7287 0.8398
H10 H 0.8924 0.7527 0.8536
O6 O 0.9855(2) 0.67720(19) 0.77801(19)
C7 C 0.9618(4) 0.6359(2) 0.7852(2)
H11 H 0.9384 0.6343 0.7631
O7 O 0.9633(5) 0.5594(5) 0.7909(4)
H12 H 0.9335 0.5653 0.7998
C8 C 0.9857(3) 0.6009(5) 0.7810(4)
H13 H 0.9959 0.5995 0.7505
O8 O 1.0539(4) 0.5650(4) 0.8040(6)
H14 H 1.0840 0.5742 0.8071
C9 C 1.0265(3) 0.6005(4) 0.8110(3)
H15 H 1.0166 0.5999 0.8417
O9 O 0.8346(4) 0.64230(17) 0.91555(18)
C10 C 1.0471(3) 0.6444(3) 0.8021(3)
H16 H 1.0596 0.6437 0.7723
C11 C 1.0213(3) 0.6826(3) 0.8060(3)
H17 H 1.0111 0.6859 0.8365
O10 O 1.0571(3) 0.7209(3) 0.7530(4)
H18 H 1.0740 0.7473 0.7485
C12 C 1.0413(7) 0.7208(11) 0.7921(5)
H19 H 1.0199 0.7445 0.7942
H20 H 1.0650 0.7276 0.8124
K1D K 1.18884(10) 0.5000 0.81116(10)
K1HA K 1.0000 0.68884(10) 0.68884(10)
K1IA K 1.31116(10) 0.68884(10) 1.0000
K1H K 1.18884(10) 0.5000 1.18884(10)
K1EA K 1.0000 0.68884(10) 1.31116(10)
K1B K 0.81116(10) 0.5000 1.18884(10)
K1GA K 0.68884(10) 0.68884(10) 1.0000
O1Q O 1.1413(3) 0.6864(3) 0.8388(5)
O1H O 1.1612(5) 0.6864(3) 1.1413(3)
O1R O 0.8587(3) 0.6864(3) 1.1612(5)
C1Q C 1.1251(3) 0.6532(4) 0.8193(9)
C1H C 1.1807(9) 0.6532(4) 1.1251(3)
C1R C 0.8749(3) 0.6532(4) 1.1807(9)
H1Q H 1.1234 0.6591 0.7877
H1H H 1.2123 0.6591 1.1234
H1R H 0.8766 0.6591 1.2123
O2Q O 1.1380(3) 0.5738(3) 0.8037(6)
O2H O 1.1963(6) 0.5738(3) 1.1380(3)
O2R O 0.8620(3) 0.5738(3) 1.1963(6)
O2W O 0.8620(3) 0.4262(3) 0.8037(6)
O2D O 1.1963(6) 0.4262(3) 0.8620(3)
H2Q H 1.1065 0.5729 0.8061
H2H H 1.1939 0.5729 1.1065
H2R H 0.8935 0.5729 1.1939
H2W H 0.8935 0.4271 0.8061
H2D H 1.1939 0.4271 0.8935
C2Q C 1.1532(3) 0.6047(3) 0.8280(4)
C2H C 1.1720(4) 0.6047(3) 1.1532(3)
C2R C 0.8468(3) 0.6047(3) 1.1720(4)
H3Q H 1.1827 0.6104 0.8163
H3H H 1.1837 0.6104 1.1827
H3R H 0.8173 0.6104 1.1837
O3Q O 1.1855(3) 0.5658(3) 0.8800(4)
O3H O 1.1200(4) 0.5658(3) 1.1855(3)
O3R O 0.8145(3) 0.5658(3) 1.1200(4)
O3W O 0.8145(3) 0.4342(3) 0.8800(4)
O3D O 1.1200(4) 0.4342(3) 0.8145(3)
H4Q H 1.1702 0.5392 0.8725
H4H H 1.1275 0.5392 1.1702
H4R H 0.8298 0.5392 1.1275
H4W H 0.8298 0.4608 0.8725
H4D H 1.1275 0.4608 0.8298
C3Q C 1.1593(2) 0.6008(3) 0.8720(6)
C3H C 1.1280(6) 0.6008(3) 1.1593(2)
C3R C 0.8407(2) 0.6008(3) 1.1280(6)
H5Q H 1.1304 0.5937 0.8846
H5H H 1.1154 0.5937 1.1304
H5R H 0.8696 0.5937 1.1154
O4Q O 1.17388(18) 0.63970(18) 0.9417(3)
O4H O 1.0583(3) 0.63970(18) 1.17388(18)
O4R O 0.82612(18) 0.63970(18) 1.0583(3)
C4Q C 1.1756(3) 0.6474(2) 0.8956(6)
C4H C 1.1044(6) 0.6474(2) 1.1756(3)
C4R C 0.8244(3) 0.6474(2) 1.1044(6)
H6R H 0.7945 0.6552 1.1137
H6H H 1.1137 0.6552 1.2055
H6Q H 1.2055 0.6552 0.8863
C5Q C 1.1428(3) 0.6870(3) 0.8880(7)
C5H C 1.1120(7) 0.6870(3) 1.1428(3)
C5R C 0.8572(3) 0.6870(3) 1.1120(7)
H7R H 0.8862 0.6815 1.0989
H7H H 1.0989 0.6815 1.1138
H7Q H 1.1138 0.6815 0.9011
O5R O 0.7915(9) 0.7315(6) 1.1083(9)
O5H O 1.1083(9) 0.7315(6) 1.2085(9)
O5Q O 1.2085(9) 0.7315(6) 0.8917(9)
H8R H 0.7889 0.7293 1.1397
H8H H 1.1397 0.7293 1.2111
H8Q H 1.2111 0.7293 0.8603
C6R C 0.8375(5) 0.7278(8) 1.0958(8)
C6H C 1.0958(8) 0.7278(8) 1.1625(5)
C6Q C 1.1625(5) 0.7278(8) 0.9042(8)
H9R H 0.8398 0.7287 1.0640
H9H H 1.0640 0.7287 1.1602
H9Q H 1.1602 0.7287 0.9360
H10R H 0.8536 0.7527 1.1076
H10H H 1.1076 0.7527 1.1464
H10Q H 1.1464 0.7527 0.8924
O6Q O 1.22199(19) 0.67720(19) 0.9855(2)
O6H O 1.0145(2) 0.67720(19) 1.22199(19)
O6R O 0.77801(19) 0.67720(19) 1.0145(2)
O6HA O 0.82280(19) 0.5145(2) 0.72199(19)
O6LA O 0.72199(19) 0.4855(2) 0.82280(19)
O6JA O 1.27801(19) 0.5145(2) 0.82280(19)
O6CA O 1.17720(19) 0.4855(2) 0.72199(19)
C7Q C 1.2148(2) 0.6359(2) 0.9618(4)
C7H C 1.0382(4) 0.6359(2) 1.2148(2)
C7R C 0.7852(2) 0.6359(2) 1.0382(4)
H11Q H 1.2369 0.6343 0.9384
H11H H 1.0616 0.6343 1.2369
H11R H 0.7631 0.6343 1.0616
O7Q O 1.2091(4) 0.5594(5) 0.9633(5)
O7H O 1.0367(5) 0.5594(5) 1.2091(4)
O7R O 0.7909(4) 0.5594(5) 1.0367(5)
H12Q H 1.2002 0.5653 0.9335
H12H H 1.0665 0.5653 1.2002
H12R H 0.7998 0.5653 1.0665
C8Q C 1.2190(4) 0.6009(5) 0.9857(3)
C8H C 1.0143(3) 0.6009(5) 1.2190(4)
C8R C 0.7810(4) 0.6009(5) 1.0143(3)
H13Q H 1.2495 0.5995 0.9959
H13H H 1.0041 0.5995 1.2495
H13R H 0.7505 0.5995 1.0041
O8Q O 1.1960(6) 0.5650(4) 1.0539(4)
O8H O 0.9461(4) 0.5650(4) 1.1960(6)
O8R O 0.8040(6) 0.5650(4) 0.9461(4)
H14Q H 1.1929 0.5742 1.0840
H14H H 0.9160 0.5742 1.1929
H14R H 0.8071 0.5742 0.9160
C9Q C 1.1890(3) 0.6005(4) 1.0265(3)
C9H C 0.9735(3) 0.6005(4) 1.1890(3)
C9R C 0.8110(3) 0.6005(4) 0.9735(3)
H15Q H 1.1583 0.5999 1.0166
H15H H 0.9834 0.5999 1.1583
H15R H 0.8417 0.5999 0.9834
O9Q O 1.08445(18) 0.64230(17) 0.8346(4)
O9H O 1.1654(4) 0.64230(17) 1.08445(18)
O9R O 0.91555(18) 0.64230(17) 1.1654(4)
C10Q C 1.1979(3) 0.6444(3) 1.0471(3)
C10H C 0.9529(3) 0.6444(3) 1.1979(3)
C10R C 0.8021(3) 0.6444(3) 0.9529(3)
H16R H 0.7723 0.6437 0.9404
H16H H 0.9404 0.6437 1.2277
H16Q H 1.2277 0.6437 1.0596
C11Q C 1.1940(3) 0.6826(3) 1.0213(3)
C11H C 0.9787(3) 0.6826(3) 1.1940(3)
C11R C 0.8060(3) 0.6826(3) 0.9787(3)
H17R H 0.8365 0.6859 0.9889
H17H H 0.9889 0.6859 1.1635
H17Q H 1.1635 0.6859 1.0111
O10R O 0.7530(4) 0.7209(3) 0.9429(3)
O10H O 0.9429(3) 0.7209(3) 1.2470(4)
O10Q O 1.2470(4) 0.7209(3) 1.0571(3)
O10HA O 0.7791(3) 0.4429(3) 0.7470(4)
O10LA O 0.7470(4) 0.5571(3) 0.7791(3)
O10JA O 1.2530(4) 0.4429(3) 0.7791(3)
O10CA O 1.2209(3) 0.5571(3) 0.7470(4)
H18R H 0.7485 0.7473 0.9260
H18H H 0.9260 0.7473 1.2515
H18Q H 1.2515 0.7473 1.0740
H18HA H 0.7527 0.4260 0.7515
H18LA H 0.7515 0.5740 0.7527
H18JA H 1.2485 0.4260 0.7527
H18CA H 1.2473 0.5740 0.7515
C12R C 0.7921(5) 0.7208(11) 0.9587(7)
C12H C 0.9587(7) 0.7208(11) 1.2079(5)
C12Q C 1.2079(5) 0.7208(11) 1.0413(7)
H19R H 0.7942 0.7445 0.9801
H19H H 0.9801 0.7445 1.2058
H19Q H 1.2058 0.7445 1.0199
H20R H 0.8124 0.7276 0.9350
H20H H 0.9350 0.7276 1.1876
H20Q H 1.1876 0.7276 1.0650
O11 O 0.7741(14) 0.6973(11) 0.7204(8)
loop_
_geom_bond_atom_site_label_1
_geom_bond_atom_site_label_2
_geom_bond_site_symmetry_1
_geom_bond_site_symmetry_2
K1 O2 1_555 1_555
O1 C1 1_555 1_555
C1 H1 1_555 1_555
O2 H2 1_555 1_555
C2 C1 1_555 1_555
H3 C2 1_555 1_555
O3 K1 1_555 1_555
H4 O3 1_555 1_555
C3 C2 1_555 1_555
H5 C3 1_555 1_555
O4 C4 1_555 1_555
C4 C3 1_555 1_555
H6 C4 1_555 1_555
C5 O1 1_555 1_555
H7 C5 1_555 1_555
O5 H8 1_555 1_555
C6 C5 1_555 1_555
H9 C6 1_555 1_555
H10 C6 1_555 1_555
O6 C7 1_555 1_555
C7 O4 1_555 1_555
H11 C7 1_555 1_555
O7 H12 1_555 1_555
C8 C7 1_555 1_555
H13 C8 1_555 1_555
O8 H14 1_555 1_555
C9 C8 1_555 1_555
H15 C9 1_555 1_555
O9 C1 1_555 1_555
C10 C9 1_555 1_555
H16 C10 1_555 1_555
C11 O6 1_555 1_555
H17 C11 1_555 1_555
O10 H18 1_555 1_555
C12 C11 1_555 1_555
H19 C12 1_555 1_555
H20 C12 1_555 1_555
K1D O2Q 1_555 1_555
K1HA O6 1_555 1_555
K1IA O6Q 1_555 1_555
K1H O2H 1_555 1_555
K1EA O6H 1_555 1_555
K1B O2R 1_555 1_555
K1GA O6R 1_555 1_555
O1Q C1Q 1_555 1_555
O1H C1H 1_555 1_555
O1R C1R 1_555 1_555
C1Q H1Q 1_555 1_555
C1H H1H 1_555 1_555
C1R H1R 1_555 1_555
O2Q H2Q 1_555 1_555
O2H H2H 1_555 1_555
O2R H2R 1_555 1_555
O2W K1 1_555 1_555
O2D K1D 1_555 1_555
H2W O2W 1_555 1_555
H2D O2D 1_555 1_555
C2Q C1Q 1_555 1_555
C2H C1H 1_555 1_555
C2R C1R 1_555 1_555
H3Q C2Q 1_555 1_555
H3H C2H 1_555 1_555
H3R C2R 1_555 1_555
O3Q K1D 1_555 1_555
O3H K1H 1_555 1_555
O3R K1B 1_555 1_555
O3W K1 1_555 1_555
O3D K1D 1_555 1_555
H4Q O3Q 1_555 1_555
H4H O3H 1_555 1_555
H4R O3R 1_555 1_555
H4W O3W 1_555 1_555
H4D O3D 1_555 1_555
C3Q C2Q 1_555 1_555
C3H C2H 1_555 1_555
C3R C2R 1_555 1_555
H5Q C3Q 1_555 1_555
H5H C3H 1_555 1_555
H5R C3R 1_555 1_555
O4Q C4Q 1_555 1_555
O4H C4H 1_555 1_555
O4R C4R 1_555 1_555
C4Q C3Q 1_555 1_555
C4H C3H 1_555 1_555
C4R C3R 1_555 1_555
H6R C4R 1_555 1_555
H6H C4H 1_555 1_555
H6Q C4Q 1_555 1_555
C5Q O1Q 1_555 1_555
C5H O1H 1_555 1_555
C5R O1R 1_555 1_555
H7R C5R 1_555 1_555
H7H C5H 1_555 1_555
H7Q C5Q 1_555 1_555
O5R H8R 1_555 1_555
O5H H8H 1_555 1_555
O5Q H8Q 1_555 1_555
C6R C5R 1_555 1_555
C6H C5H 1_555 1_555
C6Q C5Q 1_555 1_555
H9R C6R 1_555 1_555
H9H C6H 1_555 1_555
H9Q C6Q 1_555 1_555
H10R C6R 1_555 1_555
H10H C6H 1_555 1_555
H10Q C6Q 1_555 1_555
O6Q C7Q 1_555 1_555
O6H C7H 1_555 1_555
O6R C7R 1_555 1_555
O6HA K1 1_555 1_555
O6LA K1 1_555 1_555
O6JA K1D 1_555 1_555
O6CA K1D 1_555 1_555
C7Q O4Q 1_555 1_555
C7H O4H 1_555 1_555
C7R O4R 1_555 1_555
H11Q C7Q 1_555 1_555
H11H C7H 1_555 1_555
H11R C7R 1_555 1_555
O7Q H12Q 1_555 1_555
O7H H12H 1_555 1_555
O7R H12R 1_555 1_555
C8Q C7Q 1_555 1_555
C8H C7H 1_555 1_555
C8R C7R 1_555 1_555
H13Q C8Q 1_555 1_555
H13H C8H 1_555 1_555
H13R C8R 1_555 1_555
O8Q H14Q 1_555 1_555
O8H H14H 1_555 1_555
O8R H14R 1_555 1_555
C9Q C8Q 1_555 1_555
C9H C8H 1_555 1_555
C9R C8R 1_555 1_555
H15Q C9Q 1_555 1_555
H15H C9H 1_555 1_555
H15R C9R 1_555 1_555
O9Q C10 1_555 1_555
O9H C1H 1_555 1_555
O9R C1R 1_555 1_555
C10Q C9Q 1_555 1_555
C10H C9H 1_555 1_555
C10R O9 1_555 1_555
H16R C10R 1_555 1_555
H16H C10H 1_555 1_555
H16Q C10Q 1_555 1_555
C11Q O6Q 1_555 1_555
C11H O6H 1_555 1_555
C11R O6R 1_555 1_555
H17R C11R 1_555 1_555
H17H C11H 1_555 1_555
H17Q C11Q 1_555 1_555
O10R K1GA 1_555 1_555
O10H K1EA 1_555 1_555
O10Q K1IA 1_555 1_555
O10HA K1 1_555 1_555
O10LA K1 1_555 1_555
O10JA K1D 1_555 1_555
O10CA K1D 1_555 1_555
H18R O10R 1_555 1_555
H18H O10H 1_555 1_555
H18Q O10Q 1_555 1_555
H18HA O10HA 1_555 1_555
H18LA O10LA 1_555 1_555
H18JA O10JA 1_555 1_555
H18CA O10CA 1_555 1_555
C12R C11R 1_555 1_555
C12H C11H 1_555 1_555
C12Q C11Q 1_555 1_555
H19R C12R 1_555 1_555
H19H C12H 1_555 1_555
H19Q C12Q 1_555 1_555
H20R C12R 1_555 1_555
H20H C12H 1_555 1_555
H20Q C12Q 1_555 1_555
O2 C2 1_555 1_555
O3 C3 1_555 1_555
C4 C5 1_555 1_555
O5 C6 1_555 1_555
O7 C8 1_555 1_555
O8 C9 1_555 1_555
C10 C11 1_555 1_555
O10 C12 1_555 1_555
O10 K1HA 1_555 1_555
C1Q O9Q 1_555 1_555
O2Q C2Q 1_555 1_555
O2H C2H 1_555 1_555
O2R C2R 1_555 1_555
O3Q C3Q 1_555 1_555
O3H C3H 1_555 1_555
O3R C3R 1_555 1_555
C4Q C5Q 1_555 1_555
C4H C5H 1_555 1_555
C4R C5R 1_555 1_555
O5R C6R 1_555 1_555
O5H C6H 1_555 1_555
O5Q C6Q 1_555 1_555
O7Q C8Q 1_555 1_555
O7H C8H 1_555 1_555
O7R C8R 1_555 1_555
O8Q C9Q 1_555 1_555
O8H C9H 1_555 1_555
O8R C9R 1_555 1_555
C9R C10R 1_555 1_555
O9H C10Q 1_555 1_555
O9R C10H 1_555 1_555
C10Q C11Q 1_555 1_555
C10H C11H 1_555 1_555
C10R C11R 1_555 1_555
O10R C12R 1_555 1_555
O10H C12H 1_555 1_555
O10Q C12Q 1_555 1_555

#END
