
#######################################################################
#
#                 Cambridge Crystallographic Data Centre
#                                CCDC 
#
#######################################################################
#
# If this CIF has been generated from an entry in the Cambridge 
# Structural Database, then it will include bibliographic, chemical, 
# crystal, experimental, refinement or atomic coordinate data resulting 
# from the CCDC's data processing and validation procedures.
#
#######################################################################

data_LAJSEW
_symmetry_cell_setting           orthorhombic
_symmetry_space_group_name_H-M   'P b c a'
_symmetry_Int_Tables_number      61
_space_group_name_Hall           '-P 2ac 2ab'
loop_
_symmetry_equiv_pos_site_id
_symmetry_equiv_pos_as_xyz
1 x,y,z
2 1/2-x,-y,1/2+z
3 1/2+x,1/2-y,-z
4 -x,1/2+y,1/2-z
5 -x,-y,-z
6 1/2+x,y,1/2-z
7 1/2-x,1/2+y,z
8 x,1/2-y,1/2+z
_cell_length_a                   11.6697(4)
_cell_length_b                   10.3646(4)
_cell_length_c                   19.6047(6)
_cell_angle_alpha                90
_cell_angle_beta                 90
_cell_angle_gamma                90
_cell_volume                     2371.22
loop_
_atom_site_label
_atom_site_type_symbol
_atom_site_fract_x
_atom_site_fract_y
_atom_site_fract_z
Pb1 Pb 0.16511(3) 0.09589(3) 0.509207(18)
S1 S 0.35155(19) 0.0302(2) 0.56507(13)
O1 O 0.2823(6) 0.2853(8) 0.5052(3)
O2 O 0.4216(5) 0.4035(6) 0.5501(4)
C1 C 0.6424(8) 0.1697(11) 0.7169(5)
H1 H 0.6602 0.2566 0.7119
C2 C 0.0594(8) 0.1999(10) 0.5814(5)
H2 H 0.0898 0.1890 0.6265
H3 H -0.0174 0.1670 0.5797
H4 H 0.0590 0.2900 0.5699
C3 C 0.7060(10) 0.0964(10) 0.7614(6)
H5 H 0.7667 0.1337 0.7850
C4 C 0.1980(10) 0.0389(12) 0.4044(5)
H6 H 0.2650 -0.0147 0.4027
H7 H 0.2100 0.1144 0.3770
H8 H 0.1334 -0.0084 0.3871
C5 C 0.5512(9) 0.1179(10) 0.6785(5)
C6 C 0.3675(8) 0.2972(10) 0.5437(5)
C7 C 0.5288(8) -0.0157(10) 0.6881(5)
H9 H 0.4713 -0.0556 0.6629
C8 C 0.4088(8) 0.1813(8) 0.5844(5)
C9 C 0.6801(8) -0.0337(11) 0.7715(5)
H10 H 0.7214 -0.0833 0.8024
C10 C 0.5918(9) -0.0867(10) 0.7345(6)
H11 H 0.5739 -0.1732 0.7409
C11 C 0.4923(8) 0.2023(10) 0.6316(5)
H12 H 0.509(8) 0.281(10) 0.635(4)
Pb1F Pb 0.33489(3) 0.59589(3) 0.509207(18)
O2F O 0.0784(5) -0.0965(6) 0.5501(4)
loop_
_geom_bond_atom_site_label_1
_geom_bond_atom_site_label_2
_geom_bond_site_symmetry_1
_geom_bond_site_symmetry_2
Pb1 S1 1_555 1_555
S1 C8 1_555 1_555
O1 Pb1 1_555 1_555
O2 C6 1_555 1_555
C1 H1 1_555 1_555
C2 Pb1 1_555 1_555
H2 C2 1_555 1_555
H3 C2 1_555 1_555
H4 C2 1_555 1_555
C3 C1 1_555 1_555
H5 C3 1_555 1_555
C4 Pb1 1_555 1_555
H6 C4 1_555 1_555
H7 C4 1_555 1_555
H8 C4 1_555 1_555
C5 C1 1_555 1_555
C6 O1 1_555 1_555
C7 C5 1_555 1_555
H9 C7 1_555 1_555
C8 C6 1_555 1_555
C9 C3 1_555 1_555
H10 C9 1_555 1_555
C10 C7 1_555 1_555
H11 C10 1_555 1_555
C11 C5 1_555 1_555
H12 C11 1_555 1_555
Pb1F O2 1_555 1_555
O2F Pb1 1_555 1_555
C8 C11 1_555 1_555
C9 C10 1_555 1_555

#END
