
#######################################################################
#
#                 Cambridge Crystallographic Data Centre
#                                CCDC 
#
#######################################################################
#
# If this CIF has been generated from an entry in the Cambridge 
# Structural Database, then it will include bibliographic, chemical, 
# crystal, experimental, refinement or atomic coordinate data resulting 
# from the CCDC's data processing and validation procedures.
#
#######################################################################

data_LAKBIK
_symmetry_cell_setting           monoclinic
_symmetry_space_group_name_H-M   'P 21/c'
_symmetry_Int_Tables_number      14
_space_group_name_Hall           '-P 2ybc'
loop_
_symmetry_equiv_pos_site_id
_symmetry_equiv_pos_as_xyz
1 x,y,z
2 -x,1/2+y,1/2-z
3 -x,-y,-z
4 x,1/2-y,1/2+z
_cell_length_a                   15.919(3)
_cell_length_b                   6.8923(14)
_cell_length_c                   22.295(3)
_cell_angle_alpha                90
_cell_angle_beta                 126.882(10)
_cell_angle_gamma                90
_cell_volume                     1956.63
loop_
_atom_site_label
_atom_site_type_symbol
_atom_site_fract_x
_atom_site_fract_y
_atom_site_fract_z
Cd1 Cd 0.19402(3) -0.00592(6) 0.590800(19)
N1 N 0.2346(3) 0.2558(7) 0.6790(2)
N2 N 0.3389(3) -0.0783(7) 0.7056(2)
N3 N 0.4719(3) -0.0098(7) 0.8210(2)
O1 O 0.2652(3) 0.1706(6) 0.5367(2)
O2 O 0.1127(3) 0.2663(5) 0.50672(19)
O3 O 0.2256(3) 0.6678(6) 0.5550(2)
O4 O 0.0875(3) 0.8380(6) 0.4732(2)
O5 O 0.0670(3) -0.0839(7) 0.6061(2)
C1 C 0.1830(4) 0.2694(7) 0.4981(3)
C2 C 0.1638(4) 0.3911(8) 0.4350(3)
C3 C 0.1619(4) 0.3003(8) 0.3787(3)
H1 H 0.1810 0.1704 0.3839
C4 C 0.1319(5) 0.4002(10) 0.3152(3)
H2 H 0.1310 0.3378 0.2778
C5 C 0.1040(5) 0.5886(11) 0.3071(3)
H3 H 0.0829 0.6549 0.2638
C6 C 0.1063(4) 0.6831(9) 0.3623(3)
H4 H 0.0874 0.8132 0.3562
C7 C 0.1369(4) 0.5862(8) 0.4273(3)
C8 C 0.1498(4) 0.7014(8) 0.4900(3)
C9 C 0.1742(5) 0.4063(10) 0.6638(3)
H5 H 0.1176 0.4285 0.6141
C10 C 0.1899(6) 0.5323(9) 0.7170(4)
H6 H 0.1452 0.6374 0.7038
C11 C 0.2718(6) 0.5002(9) 0.7893(4)
H7 H 0.2830 0.5811 0.8269
C12 C 0.3383(5) 0.3480(9) 0.8071(3)
H8 H 0.3963 0.3271 0.8564
C13 C 0.3179(4) 0.2255(8) 0.7503(3)
C14 C 0.3774(4) 0.0505(8) 0.7603(3)
C15 C 0.4093(4) -0.2262(9) 0.7323(3)
H9 H 0.4022 -0.3372 0.7059
C16 C 0.4918(4) -0.1845(9) 0.8040(3)
H10 H 0.5509 -0.2613 0.8355
C17 C 0.5436(4) 0.0826(10) 0.8938(3)
H11 H 0.5405 0.2220 0.8867
H12 H 0.6147 0.0409 0.9153
C18 C 0.5200(4) 0.0374(7) 0.9487(3)
C19 C 0.4286(4) -0.0516(9) 0.9271(3)
H13 H 0.3796 -0.0876 0.8773
C20 C 0.5917(4) 0.0884(9) 1.0222(3)
H14 H 0.6543 0.1480 1.0379
H15 H 0.022(4) 0.003(7) 0.595(3)
H16 H 0.029(3) -0.183(4) 0.5822(19)
Cd1B Cd 0.80598(3) 0.00592(6) 1.409200(19)
Cd1_2 Cd 0.19402(3) 0.99408(6) 0.590800(19)
Cd1_3 Cd 0.19402(3) -1.00592(6) 0.590800(19)
N1B N 0.7654(3) -0.2558(7) 1.3210(2)
N2B N 0.6611(3) 0.0783(7) 1.2944(2)
N3B N 0.5281(3) 0.0098(7) 1.1790(2)
O1_2 O 0.2652(3) -0.8294(6) 0.5367(2)
O1B O 0.7348(3) -0.1706(6) 1.4633(2)
O2_2 O 0.1127(3) -0.7337(5) 0.50672(19)
O2B O 0.8873(3) -0.2663(5) 1.49328(19)
O3_2 O 0.2256(3) -0.3322(6) 0.5550(2)
O3B O 0.7744(3) 0.3322(6) 1.4450(2)
O4_2 O 0.0875(3) -0.1620(6) 0.4732(2)
O4B O 0.9125(3) 0.1620(6) 1.5268(2)
O5B O 0.9330(3) 0.0839(7) 1.3939(2)
C1_2 C 0.1830(4) -0.7306(7) 0.4981(3)
C2_2 C 0.1638(4) -0.6089(8) 0.4350(3)
C3_2 C 0.1619(4) -0.6997(8) 0.3787(3)
H1_2 H 0.1810 -0.8296 0.3839
C4_2 C 0.1319(5) -0.5998(10) 0.3152(3)
H2_2 H 0.1310 -0.6622 0.2778
C5_2 C 0.1040(5) -0.4114(11) 0.3071(3)
H3_2 H 0.0829 -0.3451 0.2638
C6_2 C 0.1063(4) -0.3169(9) 0.3623(3)
H4_2 H 0.0874 -0.1868 0.3562
C7_2 C 0.1369(4) -0.4138(8) 0.4273(3)
C8_2 C 0.1498(4) -0.2986(8) 0.4900(3)
C9B C 0.8258(5) -0.4063(10) 1.3362(3)
H5B H 0.8824 -0.4285 1.3859
C10B C 0.8101(6) -0.5323(9) 1.2830(4)
H6B H 0.8548 -0.6374 1.2962
C11B C 0.7282(6) -0.5002(9) 1.2107(4)
H7B H 0.7170 -0.5811 1.1731
C12B C 0.6617(5) -0.3480(9) 1.1929(3)
H8B H 0.6037 -0.3271 1.1436
C13B C 0.6821(4) -0.2255(8) 1.2497(3)
C14B C 0.6226(4) -0.0505(8) 1.2397(3)
C15B C 0.5907(4) 0.2262(9) 1.2677(3)
H9B H 0.5978 0.3372 1.2941
C16B C 0.5082(4) 0.1845(9) 1.1960(3)
H10B H 0.4491 0.2613 1.1645
C17B C 0.4564(4) -0.0826(10) 1.1062(3)
H11B H 0.4595 -0.2220 1.1133
H12B H 0.3853 -0.0409 1.0847
C18B C 0.4800(4) -0.0374(7) 1.0513(3)
C19B C 0.5714(4) 0.0516(9) 1.0729(3)
H13B H 0.6204 0.0876 1.1227
C20B C 0.4083(4) -0.0884(9) 0.9778(3)
H14B H 0.3457 -0.1480 0.9621
H15B H 0.978(4) -0.003(7) 1.405(3)
H16B H 0.971(3) 0.183(4) 1.4178(19)
O6 O 0.5861(6) 0.9603(8) 0.4852(5)
H17 H 0.6035 0.8765 0.4666
H18 H 0.5576 0.9029 0.5026
loop_
_geom_bond_atom_site_label_1
_geom_bond_atom_site_label_2
_geom_bond_site_symmetry_1
_geom_bond_site_symmetry_2
Cd1 N1 1_555 1_555
N1 C9 1_555 1_555
N2 Cd1 1_555 1_555
N3 C14 1_555 1_555
O1 Cd1 1_555 1_555
O2 Cd1 1_555 1_555
O3 C8 1_555 1_555
O4 C8 1_555 1_555
O5 Cd1 1_555 1_555
O6 H17 1_555 1_555
C1 O1 1_555 1_555
C2 C1 1_555 1_555
C3 C2 1_555 1_555
H1 C3 1_555 1_555
C4 C3 1_555 1_555
H2 C4 1_555 1_555
C5 C4 1_555 1_555
H3 C5 1_555 1_555
C6 C5 1_555 1_555
H4 C6 1_555 1_555
C7 C2 1_555 1_555
C8 C7 1_555 1_555
C9 H5 1_555 1_555
C10 C9 1_555 1_555
H6 C10 1_555 1_555
C11 C10 1_555 1_555
H7 C11 1_555 1_555
C12 C11 1_555 1_555
H8 C12 1_555 1_555
C13 N1 1_555 1_555
C14 N2 1_555 1_555
C15 N2 1_555 1_555
H9 C15 1_555 1_555
C16 N3 1_555 1_555
H10 C16 1_555 1_555
C17 N3 1_555 1_555
H11 C17 1_555 1_555
H12 C17 1_555 1_555
C18 C17 1_555 1_555
C19 C18 1_555 1_555
H13 C19 1_555 1_555
C20 C18 1_555 1_555
H14 C20 1_555 1_555
H15 O5 1_555 1_555
H16 O5 1_555 1_555
H18 O6 1_555 1_555
Cd1B N1B 1_555 1_555
Cd1_2 O3 1_555 1_555
Cd1_3 O1_2 1_555 1_555
N1B C9B 1_555 1_555
N2B Cd1B 1_555 1_555
N3B C14B 1_555 1_555
O1_2 C1_2 1_555 1_555
O1B Cd1B 1_555 1_555
O2_2 Cd1_3 1_555 1_555
O2B Cd1B 1_555 1_555
O3_2 Cd1 1_555 1_555
O3B Cd1B 1_555 1_555
O4_2 Cd1 1_555 1_555
O4B Cd1B 1_555 1_555
O5B Cd1B 1_555 1_555
C1_2 O2_2 1_555 1_555
C2_2 C1_2 1_555 1_555
C3_2 C2_2 1_555 1_555
H1_2 C3_2 1_555 1_555
C4_2 C3_2 1_555 1_555
H2_2 C4_2 1_555 1_555
C5_2 C4_2 1_555 1_555
H3_2 C5_2 1_555 1_555
C6_2 C5_2 1_555 1_555
H4_2 C6_2 1_555 1_555
C7_2 C2_2 1_555 1_555
C8_2 O3_2 1_555 1_555
C9B H5B 1_555 1_555
C10B C9B 1_555 1_555
H6B C10B 1_555 1_555
C11B C10B 1_555 1_555
H7B C11B 1_555 1_555
C12B C11B 1_555 1_555
H8B C12B 1_555 1_555
C13B N1B 1_555 1_555
C14B N2B 1_555 1_555
C15B N2B 1_555 1_555
H9B C15B 1_555 1_555
C16B N3B 1_555 1_555
H10B C16B 1_555 1_555
C17B N3B 1_555 1_555
H11B C17B 1_555 1_555
H12B C17B 1_555 1_555
C18B C17B 1_555 1_555
C19B C20 1_555 1_555
H13B C19B 1_555 1_555
C20B C19 1_555 1_555
H14B C20B 1_555 1_555
H15B O5B 1_555 1_555
H16B O5B 1_555 1_555
O2 C1 1_555 1_555
O4 Cd1_2 1_555 1_555
C6 C7 1_555 1_555
C12 C13 1_555 1_555
C13 C14 1_555 1_555
C15 C16 1_555 1_555
O4_2 C8_2 1_555 1_555
C6_2 C7_2 1_555 1_555
C7_2 C8_2 1_555 1_555
C12B C13B 1_555 1_555
C13B C14B 1_555 1_555
C15B C16B 1_555 1_555
C18B C19B 1_555 1_555
C18B C20B 1_555 1_555

#END
