
#######################################################################
#
#                 Cambridge Crystallographic Data Centre
#                                CCDC 
#
#######################################################################
#
# If this CIF has been generated from an entry in the Cambridge 
# Structural Database, then it will include bibliographic, chemical, 
# crystal, experimental, refinement or atomic coordinate data resulting 
# from the CCDC's data processing and validation procedures.
#
#######################################################################

data_LAKCUX
_symmetry_cell_setting           monoclinic
_symmetry_space_group_name_H-M   'P 21/c'
_symmetry_Int_Tables_number      14
_space_group_name_Hall           '-P 2ybc'
loop_
_symmetry_equiv_pos_site_id
_symmetry_equiv_pos_as_xyz
1 x,y,z
2 -x,1/2+y,1/2-z
3 -x,-y,-z
4 x,1/2-y,1/2+z
_cell_length_a                   7.6187(15)
_cell_length_b                   15.744(3)
_cell_length_c                   13.672(3)
_cell_angle_alpha                90
_cell_angle_beta                 106.571(9)
_cell_angle_gamma                90
_cell_volume                     1571.83
loop_
_atom_site_label
_atom_site_type_symbol
_atom_site_fract_x
_atom_site_fract_y
_atom_site_fract_z
Mn1 Mn 0.67439(5) 0.39343(2) 0.26136(2)
O1 O 0.7634(3) 0.39727(10) 0.42646(12)
H1 H 0.8212 0.3518 0.4398
H2 H 0.6883 0.4009 0.4602
O2 O 0.4577(2) 0.29965(10) 0.23385(12)
H3 H 0.4816 0.2495 0.2258
H4 H 0.3459 0.3095 0.2094
O5 O 0.8681(2) 0.28832(10) 0.27239(12)
O6 O 0.9346(2) 0.24658(10) 0.43550(12)
O7 O 1.4717(2) 0.00992(10) 0.75721(12)
O8 O 1.4823(3) -0.12986(10) 0.78717(12)
N1 N 1.1419(3) 0.00023(12) 0.26564(13)
N2 N 1.3386(3) -0.10655(11) 0.40625(13)
C1 C 1.4323(3) -0.16390(14) 0.47272(17)
H8 H 1.4760 -0.2118 0.4475
C2 C 1.4675(3) -0.15557(14) 0.57710(16)
H9 H 1.5311 -0.1976 0.6208
C3 C 1.4066(3) -0.08347(14) 0.61558(16)
C4 C 1.3024(3) -0.02518(13) 0.54653(16)
H10 H 1.2551 0.0226 0.5701
C5 C 1.2691(3) -0.03832(13) 0.44242(16)
C6 C 1.1602(3) 0.02107(14) 0.36402(15)
C7 C 1.0885(3) 0.09544(13) 0.38988(17)
H11 H 1.1022 0.1080 0.4581
C8 C 0.9963(3) 0.15147(14) 0.31459(16)
C9 C 0.9734(3) 0.12892(16) 0.21350(18)
H12 H 0.9091 0.1642 0.1608
C10 C 1.0472(3) 0.05356(15) 0.19229(17)
H13 H 1.0310 0.0389 0.1244
C11 C 1.4574(3) -0.06650(15) 0.72914(16)
C12 C 0.9271(3) 0.23496(14) 0.34411(17)
Mn1C Mn 1.67439(5) 0.10657(2) 0.76136(2)
Mn1A Mn 1.32561(5) -0.10657(2) 0.23864(2)
O7C O 0.4717(2) 0.49008(10) 0.25721(12)
N1A N 0.8581(3) 0.50023(12) 0.23436(13)
N2A N 0.6614(3) 0.39345(11) 0.09375(13)
O3 O 0.0937(2) 0.32693(12) 0.13281(13)
H5 H 0.0263 0.3212 0.1709
H6 H 0.0476 0.3021 0.0772
O4 O 0.4880(3) 0.37984(16) 0.51063(15)
H7 H 0.4957 0.3825 0.5716
C13 C 0.3068(5) 0.3976(2) 0.4530(3)
H14 H 0.2274 0.3531 0.4626
H15 H 0.3010 0.4013 0.3820
H16 H 0.2687 0.4507 0.4750
loop_
_geom_bond_atom_site_label_1
_geom_bond_atom_site_label_2
_geom_bond_site_symmetry_1
_geom_bond_site_symmetry_2
Mn1 O1 1_555 1_555
O1 H1 1_555 1_555
H2 O1 1_555 1_555
O2 Mn1 1_555 1_555
H3 O2 1_555 1_555
H4 O2 1_555 1_555
O3 H5 1_555 1_555
H6 O3 1_555 1_555
O4 H7 1_555 1_555
O5 Mn1 1_555 1_555
O6 C12 1_555 1_555
O7 C11 1_555 1_555
O8 C11 1_555 1_555
N1 C6 1_555 1_555
N2 C1 1_555 1_555
C1 H8 1_555 1_555
C2 C1 1_555 1_555
H9 C2 1_555 1_555
C3 C2 1_555 1_555
C4 C3 1_555 1_555
H10 C4 1_555 1_555
C5 N2 1_555 1_555
C6 C5 1_555 1_555
C7 C6 1_555 1_555
H11 C7 1_555 1_555
C8 C7 1_555 1_555
C9 C8 1_555 1_555
H12 C9 1_555 1_555
C10 N1 1_555 1_555
H13 C10 1_555 1_555
C11 C3 1_555 1_555
C12 O5 1_555 1_555
C13 O4 1_555 1_555
H14 C13 1_555 1_555
H15 C13 1_555 1_555
H16 C13 1_555 1_555
Mn1C O7 1_555 1_555
Mn1A N1 1_555 1_555
O7C Mn1 1_555 1_555
N1A Mn1 1_555 1_555
N2A Mn1 1_555 1_555
N2 Mn1A 1_555 1_555
C4 C5 1_555 1_555
C8 C12 1_555 1_555
C9 C10 1_555 1_555

#END
