
#######################################################################
#
#                 Cambridge Crystallographic Data Centre
#                                CCDC 
#
#######################################################################
#
# If this CIF has been generated from an entry in the Cambridge 
# Structural Database, then it will include bibliographic, chemical, 
# crystal, experimental, refinement or atomic coordinate data resulting 
# from the CCDC's data processing and validation procedures.
#
#######################################################################

data_LAKCIL
_symmetry_cell_setting           monoclinic
_symmetry_space_group_name_H-M   'C 2/c'
_symmetry_Int_Tables_number      15
_space_group_name_Hall           '-C 2yn'
loop_
_symmetry_equiv_pos_site_id
_symmetry_equiv_pos_as_xyz
1 x,y,z
2 -x,y,1/2-z
3 1/2+x,1/2+y,z
4 1/2-x,1/2+y,1/2-z
5 -x,-y,-z
6 x,-y,1/2+z
7 1/2-x,1/2-y,-z
8 1/2+x,1/2-y,1/2+z
_cell_length_a                   14.8630(13)
_cell_length_b                   27.868(2)
_cell_length_c                   9.8710(8)
_cell_angle_alpha                90
_cell_angle_beta                 110.1990(10)
_cell_angle_gamma                90
_cell_volume                     3837.14
loop_
_atom_site_label
_atom_site_type_symbol
_atom_site_fract_x
_atom_site_fract_y
_atom_site_fract_z
Br1 Br 0.36476(6) 0.86206(3) 0.53758(9)
Br2 Br 0.5000 1.02580(4) 0.2500
C1 C 0.3862(5) 0.7194(3) 0.4389(8)
C2 C 0.3779(6) 0.7690(3) 0.4304(9)
H1 H 0.3761 0.7849 0.3467
C3 C 0.3724(6) 0.7947(3) 0.5478(9)
C4 C 0.3703(5) 0.7716(3) 0.6739(10)
H2 H 0.3640 0.7893 0.7501
C5 C 0.3776(6) 0.7218(3) 0.6819(8)
C6 C 0.3870(5) 0.6945(3) 0.5651(9)
H3 H 0.3936 0.6613 0.5713
C7 C 0.3937(5) 0.6916(3) 0.3160(9)
C8 C 0.3761(6) 0.6965(3) 0.8116(9)
C9 C 0.6571(6) 0.5386(3) 0.5881(9)
C10 C 0.7226(6) 0.5519(3) 0.7196(9)
H4 H 0.7375 0.5841 0.7391
C11 C 0.7664(6) 0.5177(3) 0.8229(9)
H5 H 0.8114 0.5277 0.9098
C12 C 0.7461(6) 0.4693(3) 0.8024(10)
H6 H 0.7755 0.4471 0.8743
C13 C 0.6794(6) 0.4549(3) 0.6690(10)
H7 H 0.6659 0.4224 0.6516
C14 C 0.6321(6) 0.4890(3) 0.5597(10)
C15 C 0.5000 0.8602(4) 0.2500
H8 H 0.5000 0.8268 0.2500
C16 C 0.4190(6) 0.8840(3) 0.1638(9)
C17 C 0.4201(6) 0.9346(3) 0.1682(10)
H9 H 0.3659 0.9519 0.1150
C18 C 0.5000 0.9577(4) 0.2500
C19 C 0.3331(5) 0.8561(3) 0.0761(10)
Cd1 Cd 0.60633(4) 0.64364(2) 0.43784(7)
Cd2 Cd 0.2500 0.7500 0.0000
N1 N 0.5984(5) 0.5654(2) 0.4653(8)
N2 N 0.5440(5) 0.5325(3) 0.3601(8)
N3 N 0.5632(5) 0.4856(3) 0.4201(8)
O1 O 0.3562(4) 0.7063(2) 0.1934(7)
O2 O 0.4388(4) 0.6514(2) 0.3415(6)
O3 O 0.3918(4) 0.65279(19) 0.8271(6)
O4 O 0.3626(4) 0.7208(2) 0.9107(6)
O5 O 0.2604(4) 0.8787(2) 0.0018(6)
O6 O 0.3379(4) 0.8116(2) 0.0881(6)
Br1F Br 0.13524(6) 0.63794(3) -0.53758(9)
C1F C 0.1138(5) 0.7806(3) -0.4389(8)
C2F C 0.1221(6) 0.7310(3) -0.4304(9)
H1F H 0.1239 0.7151 -0.3467
C3F C 0.1276(6) 0.7053(3) -0.5478(9)
C4F C 0.1297(5) 0.7284(3) -0.6739(10)
H2F H 0.1360 0.7107 -0.7501
C5F C 0.1224(6) 0.7782(3) -0.6819(8)
C6F C 0.1130(5) 0.8055(3) -0.5651(9)
H3F H 0.1064 0.8387 -0.5713
C7F C 0.1063(5) 0.8084(3) -0.3160(9)
C8F C 0.1239(6) 0.8035(3) -0.8116(9)
C9F C -0.1571(6) 0.9614(3) -0.5881(9)
C10F C -0.2226(6) 0.9481(3) -0.7196(9)
H4F H -0.2375 0.9159 -0.7391
C11F C -0.2664(6) 0.9823(3) -0.8229(9)
H5F H -0.3114 0.9723 -0.9098
C12F C -0.2461(6) 1.0307(3) -0.8024(10)
H6F H -0.2755 1.0529 -0.8743
C13F C -0.1794(6) 1.0451(3) -0.6690(10)
H7F H -0.1659 1.0776 -0.6516
C14F C -0.1321(6) 1.0110(3) -0.5597(10)
C16A C 0.5810(6) 0.8840(3) 0.3362(9)
C17A C 0.5799(6) 0.9346(3) 0.3318(10)
H9A H 0.6341 0.9519 0.3850
C19A C 0.6669(5) 0.8561(3) 0.4239(10)
Cd1F Cd -0.10633(4) 0.85636(2) -0.43784(7)
Cd1A Cd 0.39367(4) 0.64364(2) 0.06216(7)
Cd1A_2 Cd 0.39367(4) 0.64364(2) 1.06216(7)
Cd1G Cd 0.10633(4) 0.85636(2) -0.06216(7)
Cd1F_2 Cd 0.89367(4) 0.85636(2) 0.56216(7)
Cd1G_2 Cd 0.10633(4) 0.85636(2) -1.06216(7)
Cd2_2 Cd 0.2500 0.7500 1.0000
Cd2A Cd 0.7500 0.7500 0.5000
Cd2_3 Cd 0.2500 0.7500 -1.0000
N1F N -0.0984(5) 0.9346(2) -0.4653(8)
N2F N -0.0440(5) 0.9675(3) -0.3601(8)
N3F N -0.0632(5) 1.0144(3) -0.4201(8)
O1F O 0.1438(4) 0.7937(2) -0.1934(7)
O1A O 0.6438(4) 0.7063(2) 0.3066(7)
O1G O -0.1438(4) 0.7937(2) -0.3066(7)
O2F O 0.0612(4) 0.8486(2) -0.3415(6)
O2A O 0.5612(4) 0.6514(2) 0.1585(6)
O2G O -0.0612(4) 0.8486(2) -0.1585(6)
O3F O 0.1082(4) 0.84721(19) -0.8271(6)
O3A O 0.6082(4) 0.65279(19) 0.6729(6)
O3G O -0.1082(4) 0.84721(19) -0.6729(6)
O4F O 0.1374(4) 0.7792(2) -0.9107(6)
O4A O 0.6374(4) 0.7208(2) 0.5893(6)
O4F_2 O 0.1374(4) 0.7792(2) 0.0893(6)
O4_2 O 0.3626(4) 0.7208(2) -0.0893(6)
O4G O -0.1374(4) 0.7792(2) -0.5893(6)
O5A O 0.7396(4) 0.8787(2) 0.4982(6)
O5G O 0.7604(4) 0.6213(2) 0.5018(6)
O5A_2 O -0.2604(4) 0.8787(2) -0.5018(6)
O6A O 0.6621(4) 0.8116(2) 0.4119(6)
O6F O 0.1621(4) 0.6884(2) -0.0881(6)
loop_
_geom_bond_atom_site_label_1
_geom_bond_atom_site_label_2
_geom_bond_site_symmetry_1
_geom_bond_site_symmetry_2
Br1 C3 1_555 1_555
Br2 C18 1_555 1_555
C1 C2 1_555 1_555
C2 H1 1_555 1_555
C3 C2 1_555 1_555
C4 C3 1_555 1_555
H2 C4 1_555 1_555
C5 C4 1_555 1_555
C6 C1 1_555 1_555
H3 C6 1_555 1_555
C7 C1 1_555 1_555
C8 C5 1_555 1_555
C9 C10 1_555 1_555
C10 H4 1_555 1_555
C11 C10 1_555 1_555
H5 C11 1_555 1_555
C12 C11 1_555 1_555
H6 C12 1_555 1_555
C13 C12 1_555 1_555
H7 C13 1_555 1_555
C14 C9 1_555 1_555
C15 H8 1_555 1_555
C16 C15 1_555 1_555
C17 C16 1_555 1_555
H9 C17 1_555 1_555
C18 C17 1_555 1_555
C19 C16 1_555 1_555
Cd1 N1 1_555 1_555
Cd2 O1 1_555 1_555
N1 C9 1_555 1_555
N2 N1 1_555 1_555
N3 C14 1_555 1_555
O1 C7 1_555 1_555
O2 C7 1_555 1_555
O3 C8 1_555 1_555
O4 C8 1_555 1_555
O5 C19 1_555 1_555
O6 C19 1_555 1_555
Br1F C3F 1_555 1_555
C1F C2F 1_555 1_555
C2F H1F 1_555 1_555
C3F C2F 1_555 1_555
C4F C3F 1_555 1_555
H2F C4F 1_555 1_555
C5F C4F 1_555 1_555
C6F C1F 1_555 1_555
H3F C6F 1_555 1_555
C7F C1F 1_555 1_555
C8F C5F 1_555 1_555
C9F C10F 1_555 1_555
C10F H4F 1_555 1_555
C11F C10F 1_555 1_555
H5F C11F 1_555 1_555
C12F C11F 1_555 1_555
H6F C12F 1_555 1_555
C13F C12F 1_555 1_555
H7F C13F 1_555 1_555
C14F C9F 1_555 1_555
C16A C15 1_555 1_555
C17A C18 1_555 1_555
H9A C17A 1_555 1_555
C19A C16A 1_555 1_555
Cd1F N1F 1_555 1_555
Cd1A O1 1_555 1_555
Cd1A_2 O3 1_555 1_555
Cd1G O5 1_555 1_555
Cd1F_2 O5A 1_555 1_555
Cd1G_2 O3F 1_555 1_555
Cd2_2 O4 1_555 1_555
Cd2A O1A 1_555 1_555
Cd2_3 O4F 1_555 1_555
N1F C9F 1_555 1_555
N2F N1F 1_555 1_555
N3F C14F 1_555 1_555
O1F Cd2 1_555 1_555
O1A Cd1 1_555 1_555
O1G Cd1F 1_555 1_555
O2F C7F 1_555 1_555
O2A Cd1 1_555 1_555
O2G Cd1F 1_555 1_555
O3F C8F 1_555 1_555
O3A Cd1 1_555 1_555
O3G Cd1F 1_555 1_555
O4F C8F 1_555 1_555
O4A Cd1 1_555 1_555
O4F_2 Cd2 1_555 1_555
O4_2 Cd2 1_555 1_555
O4G Cd1F 1_555 1_555
O5A C19A 1_555 1_555
O5G Cd1 1_555 1_555
O5A_2 Cd1F 1_555 1_555
O6A C19A 1_555 1_555
O6F Cd2 1_555 1_555
C5 C6 1_555 1_555
C13 C14 1_555 1_555
Cd1 O2 1_555 1_555
Cd2 O6 1_555 1_555
N2 N3 1_555 1_555
O2 Cd1A 1_555 1_555
O4 Cd1A_2 1_555 1_555
C5F C6F 1_555 1_555
C7F O1F 1_555 1_555
C13F C14F 1_555 1_555
C16A C17A 1_555 1_555
Cd1F O2F 1_555 1_555
Cd1A O2A 1_555 1_555
Cd1A O4_2 1_555 1_555
Cd1G O1F 1_555 1_555
Cd1G O2F 1_555 1_555
Cd1G O2G 1_555 1_555
Cd1G O4F_2 1_555 1_555
Cd1G_2 O4F 1_555 1_555
Cd2A O4A 1_555 1_555
Cd2A O6A 1_555 1_555
N2F N3F 1_555 1_555

#END
