
#######################################################################
#
#                 Cambridge Crystallographic Data Centre
#                                CCDC 
#
#######################################################################
#
# If this CIF has been generated from an entry in the Cambridge 
# Structural Database, then it will include bibliographic, chemical, 
# crystal, experimental, refinement or atomic coordinate data resulting 
# from the CCDC's data processing and validation procedures.
#
#######################################################################

data_LAKHIP
_symmetry_cell_setting           hexagonal
_symmetry_space_group_name_H-M   'P 61 2 2'
_symmetry_Int_Tables_number      178
_space_group_name_Hall           "P 61 2' (0,0,5)"
loop_
_symmetry_equiv_pos_site_id
_symmetry_equiv_pos_as_xyz
1 x,y,z
2 -y,x-y,1/3+z
3 -x+y,-x,2/3+z
4 -x,-y,1/2+z
5 y,-x+y,5/6+z
6 x-y,x,1/6+z
7 y,x,1/3-z
8 x-y,-y,-z
9 -x,-x+y,2/3-z
10 -y,-x,5/6-z
11 -x+y,y,1/2-z
12 x,x-y,1/6-z
_cell_length_a                   19.4384(3)
_cell_length_b                   19.4384(3)
_cell_length_c                   55.937(2)
_cell_angle_alpha                90
_cell_angle_beta                 90
_cell_angle_gamma                120
_cell_volume                     18304.2
loop_
_atom_site_label
_atom_site_type_symbol
_atom_site_fract_x
_atom_site_fract_y
_atom_site_fract_z
Cd1 Cd -0.49248(6) 0.0000 0.0000
Cl1 Cl -0.4853(4) 0.0165(4) 0.06279(8)
O1 O 0.3648(7) 0.6760(10) -0.0260(3)
O2 O 0.3216(8) 0.6754(7) 0.0274(2)
O3 O -0.4924(14) -0.0060(12) 0.0424(3)
O4 O -0.477(4) -0.005(4) 0.0813(12)
O5 O -0.4372(13) 0.1152(13) 0.0607(4)
O7 O -0.557(3) 0.032(2) 0.0582(7)
N1 N -0.3613(8) 0.0970(9) 0.0021(3)
N2 N 0.4645(8) 0.0958(8) -0.0011(3)
C1 C -0.3159(11) 0.0890(15) 0.0178(3)
H1 H -0.3388 0.0417 0.0271
C2 C -0.2321(14) 0.1478(14) 0.0222(4)
H2 H -0.2025 0.1432 0.0350
C3 C -0.1970(9) 0.2153(10) 0.0049(3)
C4 C -0.2498(14) 0.2147(16) -0.0115(4)
H3 H -0.2296 0.2569 -0.0227
C5 C -0.3278(12) 0.1597(14) -0.0131(4)
H4 H -0.3595 0.1650 -0.0250
C6 C -0.1110(10) 0.2684(14) 0.0071(3)
H5 H -0.0840 0.2623 0.0204
C7 C -0.0676(10) 0.3275(11) -0.0096(3)
H6 H -0.0956 0.3288 -0.0234
C8 C 0.0146(11) 0.3863(10) -0.0083(4)
C9 C 0.0483(15) 0.4402(17) -0.0303(4)
H7 H 0.0168 0.4320 -0.0442
C10 C 0.1277(10) 0.5021(13) -0.0292(3)
C11 C 0.158(3) 0.562(4) -0.0441(6)
H8 H 0.1214 0.5697 -0.0534
C12 C 0.2345(11) 0.6133(17) -0.0476(3)
H9 H 0.2537 0.6462 -0.0614
C13 C 0.2874(9) 0.6153(12) -0.0284(3)
C14 C 0.2575(9) 0.5621(10) -0.0099(2)
C15 C 0.1774(10) 0.5055(11) -0.0097(2)
C16 C 0.1438(12) 0.4544(14) 0.0114(4)
H10 H 0.1714 0.4609 0.0260
C17 C 0.0663(10) 0.3951(11) 0.0070(3)
H11 H 0.0481 0.3518 0.0178
C18 C 0.4116(17) 0.697(2) -0.0468(3)
H12 H 0.4686 0.7313 -0.0430
H13 H 0.3956 0.7259 -0.0582
C19 C 0.394(4) 0.617(4) -0.0569(11)
H14 H 0.4257 0.6257 -0.0714
H15 H 0.3375 0.5853 -0.0607
H16 H 0.4081 0.5893 -0.0449
C20 C 0.211(3) 0.662(3) 0.0580(8)
H17 H 0.2054 0.6857 0.0727
H18 H 0.1923 0.6051 0.0608
H19 H 0.1795 0.6669 0.0452
C21 C 0.3014(19) 0.7049(19) 0.0503(5)
H20 H 0.3198 0.7622 0.0483
H21 H 0.3323 0.7000 0.0636
C22 C 0.3155(11) 0.5641(10) 0.0104(5)
C23 C 0.3365(8) 0.5033(12) 0.0066(5)
C24 C 0.3143(10) 0.4480(8) -0.0101(3)
H22 H 0.2794 0.4468 -0.0221
C25 C 0.3371(11) 0.3930(10) -0.0114(3)
H23 H 0.3234 0.3586 -0.0248
C26 C 0.3849(12) 0.3875(12) 0.0090(3)
C27 C 0.4050(10) 0.4400(11) 0.0259(2)
H24 H 0.4344 0.4370 0.0390
C28 C 0.3857(8) 0.5022(12) 0.0260(3)
C29 C 0.4071(13) 0.5596(14) 0.0472(4)
H25 H 0.4348 0.5579 0.0610
C30 C 0.3834(13) 0.6107(13) 0.0442(4)
H26 H 0.3998 0.6500 0.0564
C31 C 0.3389(9) 0.6171(11) 0.0267(4)
C32 C 0.4143(13) 0.3279(13) 0.0086(4)
H27 H 0.4525 0.3368 0.0206
C33 C 0.3975(15) 0.2692(13) -0.0046(5)
H28 H 0.3630 0.2633 -0.0174
C34 C 0.5037(12) 0.1594(9) 0.0098(3)
H29 H 0.5516 0.1712 0.0177
C35 C 0.4725(14) 0.220(2) 0.0101(6)
H30 H 0.4944 0.2626 0.0212
C36 C 0.4186(11) 0.2131(14) -0.0042(5)
C37 C 0.3896(14) 0.1484(14) -0.0171(4)
H31 H 0.3436 0.1354 -0.0264
C38 C 0.4194(15) 0.0971(16) -0.0187(6)
H32 H 0.4077 0.0633 -0.0321
Cd1_2 Cd 0.50752(6) 0.0000 0.0000
Cl1G Cl -0.5018(6) -0.0165(4) -0.06279(8)
O1G O -0.3112(12) -0.6760(10) 0.0260(3)
O2G O -0.3538(11) -0.6754(7) -0.0274(2)
O3G O -0.4864(18) 0.0060(12) -0.0424(3)
O4G O -0.472(6) 0.005(4) -0.0813(12)
O5G O -0.5524(18) -0.1152(13) -0.0607(4)
O7G O -0.589(4) -0.032(2) -0.0582(7)
N1G N -0.4583(12) -0.0970(9) -0.0021(3)
N2G N 0.3687(11) -0.0958(8) 0.0011(3)
N2_2 N -0.5355(8) 0.0958(8) -0.0011(3)
N2G_2 N -0.6313(11) -0.0958(8) 0.0011(3)
C1G C -0.4049(19) -0.0890(15) -0.0178(3)
H1G H -0.3805 -0.0417 -0.0271
C2G C -0.3799(20) -0.1478(14) -0.0222(4)
H2G H -0.3457 -0.1432 -0.0350
C3G C -0.4123(13) -0.2153(10) -0.0049(3)
C4G C -0.4645(21) -0.2147(16) 0.0115(4)
H3G H -0.4865 -0.2569 0.0227
C5G C -0.4875(18) -0.1597(14) 0.0131(4)
H4G H -0.5245 -0.1650 0.0250
C6G C -0.3794(17) -0.2684(14) -0.0071(3)
H5G H -0.3463 -0.2623 -0.0204
C7G C -0.3951(15) -0.3275(11) 0.0096(3)
H6G H -0.4244 -0.3288 0.0234
C8G C -0.3717(15) -0.3863(10) 0.0083(4)
C9G C -0.3919(23) -0.4402(17) 0.0303(4)
H7G H -0.4152 -0.4320 0.0442
C10G C -0.3744(16) -0.5021(13) 0.0292(3)
C11G C -0.404(5) -0.562(4) 0.0441(6)
H8G H -0.4483 -0.5697 0.0534
C12G C -0.3788(20) -0.6133(17) 0.0476(3)
H9G H -0.3925 -0.6462 0.0614
C13G C -0.3279(15) -0.6153(12) 0.0284(3)
C14G C -0.3046(13) -0.5621(10) 0.0099(2)
C15G C -0.3281(15) -0.5055(11) 0.0097(2)
C16G C -0.3106(18) -0.4544(14) -0.0114(4)
H10G H -0.2895 -0.4609 -0.0260
C17G C -0.3288(15) -0.3951(11) -0.0070(3)
H11G H -0.3037 -0.3518 -0.0178
C18G C -0.2854(26) -0.697(2) 0.0468(3)
H12G H -0.2627 -0.7313 0.0430
H13G H -0.3303 -0.7259 0.0582
C19G C -0.223(6) -0.617(4) 0.0569(11)
H14G H -0.2000 -0.6257 0.0714
H15G H -0.2478 -0.5853 0.0607
H16G H -0.1812 -0.5893 0.0449
C20G C -0.451(4) -0.662(3) -0.0580(8)
H17G H -0.4803 -0.6857 -0.0727
H18G H -0.4128 -0.6051 -0.0608
H19G H -0.4874 -0.6669 -0.0452
C21G C -0.4035(27) -0.7049(19) -0.0503(5)
H20G H -0.4424 -0.7622 -0.0483
H21G H -0.3677 -0.7000 -0.0636
C22G C -0.2486(15) -0.5641(10) -0.0104(5)
C23G C -0.1668(14) -0.5033(12) -0.0066(5)
C24G C -0.1337(13) -0.4480(8) 0.0101(3)
H22G H -0.1674 -0.4468 0.0221
C25G C -0.0559(15) -0.3930(10) 0.0114(3)
H23G H -0.0352 -0.3586 0.0248
C26G C -0.0026(17) -0.3875(12) -0.0090(3)
C27G C -0.0350(15) -0.4400(11) -0.0259(2)
H24G H -0.0026 -0.4370 -0.0390
C28G C -0.1165(14) -0.5022(12) -0.0260(3)
C29G C -0.1525(19) -0.5596(14) -0.0472(4)
H25G H -0.1231 -0.5579 -0.0610
C30G C -0.2273(18) -0.6107(13) -0.0442(4)
H26G H -0.2502 -0.6500 -0.0564
C31G C -0.2782(14) -0.6171(11) -0.0267(4)
C32G C 0.0864(18) -0.3279(13) -0.0086(4)
H27G H 0.1157 -0.3368 -0.0206
C33G C 0.1283(20) -0.2692(13) 0.0046(5)
H28G H 0.0997 -0.2633 0.0174
C34G C 0.3443(15) -0.1594(9) -0.0098(3)
H29G H 0.3804 -0.1712 -0.0177
C35G C 0.2525(24) -0.220(2) -0.0101(6)
H30G H 0.2318 -0.2626 -0.0212
C36G C 0.2055(18) -0.2131(14) 0.0042(5)
C37G C 0.2412(20) -0.1484(14) 0.0171(4)
H31G H 0.2082 -0.1354 0.0264
C38G C 0.3223(22) -0.0971(16) 0.0187(6)
H32G H 0.3444 -0.0633 0.0321
C39 C 0.7878(15) 0.5915(11) -0.0777(4)
H33 H 0.7532 0.5378 -0.0733
C40 C 0.7565(11) 0.6388(15) -0.0849(4)
H34 H 0.7006 0.6174 -0.0853
C41 C 0.8070(16) 0.7173(14) -0.0915(4)
H35 H 0.7857 0.7496 -0.0963
C42 C 0.8888(15) 0.7486(12) -0.0909(5)
H36 H 0.9234 0.8023 -0.0954
C43 C 0.9201(11) 0.7013(17) -0.0837(5)
H37 H 0.9760 0.7227 -0.0833
C44 C 0.8696(16) 0.6228(16) -0.0772(4)
H38 H 0.8909 0.5905 -0.0723
O10 O -0.362(3) -0.117(3) 0.0949(10)
C53 C -0.362(5) -0.086(5) 0.0716(14)
C54 C -0.330(5) -0.110(4) 0.0558(13)
C55 C 0.692(3) 0.869(3) -0.1217(6)
H43 H 0.6792 0.8651 -0.1383
C56 C 0.764(3) 0.877(3) -0.1143(6)
H44 H 0.8003 0.8789 -0.1258
C57 C 0.7817(18) 0.883(2) -0.0901(6)
H45 H 0.8309 0.8886 -0.0850
C58 C 0.728(2) 0.881(2) -0.0733(5)
H46 H 0.7403 0.8846 -0.0567
C59 C 0.656(2) 0.873(3) -0.0807(7)
H47 H 0.6191 0.8709 -0.0692
C60 C 0.638(2) 0.867(3) -0.1049(8)
H48 H 0.5886 0.8611 -0.1100
O11 O 0.240(4) 0.379(5) 0.0237(13)
O12 O -0.577(3) 0.2114(13) 0.0833
O13 O 0.588(3) 0.638(3) -0.0670(10)
O15 O 0.563(4) 0.519(4) -0.0719(11)
O6? O -0.5479(14) -0.0002(14) 0.0804(4)
C45? C 0.0427(17) -0.0427(17) -0.0833
H39? H 0.0709 -0.0709 -0.0833
C46? C 0.0323(14) -0.0104(15) -0.0624(4)
H40? H 0.0441 -0.0274 -0.0479
C47? C 0.0127(10) 0.0310(10) -0.0611(3)
H41? H 0.0078 0.0491 -0.0448
C48? C -0.082(5) -0.011(5) -0.0829(15)
H42? H -0.1383 -0.0253 -0.0806
O8? O 0.198(4) 0.054(4) 0.0055(12)
C49? C 0.156(3) 0.097(3) -0.0032(9)
C50? C 0.159(2) 0.195(3) 0.0058(7)
O9? O 0.0270(15) -0.001(2) -0.0052(4)
C51? C -0.0417(9) -0.0422(9) -0.0029(3)
C52? C -0.094(2) -0.097(2) -0.0021(7)
O14? O 0.4926(18) 0.5162(18) -0.0626(6)
loop_
_geom_bond_atom_site_label_1
_geom_bond_atom_site_label_2
_geom_bond_site_symmetry_1
_geom_bond_site_symmetry_2
Cd1 O3 1_555 1_555
Cl1 O3 1_555 1_555
O1 C13 1_555 1_555
O2 C21 1_555 1_555
O4 Cl1 1_555 1_555
O5 Cl1 1_555 1_555
O7 Cl1 1_555 1_555
N1 Cd1 1_555 1_555
N2 C34 1_555 1_555
C1 N1 1_555 1_555
H1 C1 1_555 1_555
C2 C1 1_555 1_555
H2 C2 1_555 1_555
C3 C2 1_555 1_555
C4 C3 1_555 1_555
H3 C4 1_555 1_555
C5 N1 1_555 1_555
H4 C5 1_555 1_555
C6 C3 1_555 1_555
H5 C6 1_555 1_555
C7 C6 1_555 1_555
H6 C7 1_555 1_555
C8 C7 1_555 1_555
C9 C8 1_555 1_555
H7 C9 1_555 1_555
C10 C9 1_555 1_555
C11 C10 1_555 1_555
H8 C11 1_555 1_555
C12 C11 1_555 1_555
H9 C12 1_555 1_555
C13 C12 1_555 1_555
C14 C13 1_555 1_555
C15 C10 1_555 1_555
C16 C15 1_555 1_555
H10 C16 1_555 1_555
C17 C8 1_555 1_555
H11 C17 1_555 1_555
C18 O1 1_555 1_555
H12 C18 1_555 1_555
H13 C18 1_555 1_555
C19 C18 1_555 1_555
H14 C19 1_555 1_555
H15 C19 1_555 1_555
H16 C19 1_555 1_555
C20 H17 1_555 1_555
H18 C20 1_555 1_555
H19 C20 1_555 1_555
C21 C20 1_555 1_555
H20 C21 1_555 1_555
H21 C21 1_555 1_555
C22 C14 1_555 1_555
C23 C22 1_555 1_555
C24 C23 1_555 1_555
H22 C24 1_555 1_555
C25 C24 1_555 1_555
H23 C25 1_555 1_555
C26 C25 1_555 1_555
C27 C26 1_555 1_555
H24 C27 1_555 1_555
C28 C23 1_555 1_555
C29 C28 1_555 1_555
H25 C29 1_555 1_555
C30 C29 1_555 1_555
H26 C30 1_555 1_555
C31 O2 1_555 1_555
C32 C26 1_555 1_555
H27 C32 1_555 1_555
C33 C32 1_555 1_555
H28 C33 1_555 1_555
C34 H29 1_555 1_555
C35 C34 1_555 1_555
H30 C35 1_555 1_555
C36 C33 1_555 1_555
C37 C36 1_555 1_555
H31 C37 1_555 1_555
C38 N2 1_555 1_555
H32 C38 1_555 1_555
C39 H33 1_555 1_555
C40 C39 1_555 1_555
H34 C40 1_555 1_555
C41 C40 1_555 1_555
H35 C41 1_555 1_555
C42 C41 1_555 1_555
H36 C42 1_555 1_555
C43 C42 1_555 1_555
H37 C43 1_555 1_555
C44 C39 1_555 1_555
H38 C44 1_555 1_555
O10 C53 1_555 1_555
C53 C54 1_555 1_555
C55 H43 1_555 1_555
C56 C55 1_555 1_555
H44 C56 1_555 1_555
C57 C56 1_555 1_555
H45 C57 1_555 1_555
C58 C57 1_555 1_555
H46 C58 1_555 1_555
C59 C58 1_555 1_555
H47 C59 1_555 1_555
C60 C55 1_555 1_555
H48 C60 1_555 1_555
Cd1_2 N2 1_555 1_555
Cl1G O3G 1_555 1_555
O1G C13G 1_555 1_555
O2G C21G 1_555 1_555
O3G Cd1 1_555 1_555
O4G Cl1G 1_555 1_555
O5G Cl1G 1_555 1_555
O7G Cl1G 1_555 1_555
N1G Cd1 1_555 1_555
N2G Cd1_2 1_555 1_555
N2_2 Cd1 1_555 1_555
N2G_2 Cd1 1_555 1_555
C1G N1G 1_555 1_555
H1G C1G 1_555 1_555
C2G C1G 1_555 1_555
H2G C2G 1_555 1_555
C3G C2G 1_555 1_555
C4G C3G 1_555 1_555
H3G C4G 1_555 1_555
C5G N1G 1_555 1_555
H4G C5G 1_555 1_555
C6G C3G 1_555 1_555
H5G C6G 1_555 1_555
C7G C6G 1_555 1_555
H6G C7G 1_555 1_555
C8G C7G 1_555 1_555
C9G C8G 1_555 1_555
H7G C9G 1_555 1_555
C10G C9G 1_555 1_555
C11G C10G 1_555 1_555
H8G C11G 1_555 1_555
C12G C11G 1_555 1_555
H9G C12G 1_555 1_555
C13G C12G 1_555 1_555
C14G C13G 1_555 1_555
C15G C10G 1_555 1_555
C16G C15G 1_555 1_555
H10G C16G 1_555 1_555
C17G C8G 1_555 1_555
H11G C17G 1_555 1_555
C18G O1G 1_555 1_555
H12G C18G 1_555 1_555
H13G C18G 1_555 1_555
C19G C18G 1_555 1_555
H14G C19G 1_555 1_555
H15G C19G 1_555 1_555
H16G C19G 1_555 1_555
C20G H17G 1_555 1_555
H18G C20G 1_555 1_555
H19G C20G 1_555 1_555
C21G C20G 1_555 1_555
H20G C21G 1_555 1_555
H21G C21G 1_555 1_555
C22G C14G 1_555 1_555
C23G C22G 1_555 1_555
C24G C23G 1_555 1_555
H22G C24G 1_555 1_555
C25G C24G 1_555 1_555
H23G C25G 1_555 1_555
C26G C25G 1_555 1_555
C27G C26G 1_555 1_555
H24G C27G 1_555 1_555
C28G C23G 1_555 1_555
C29G C28G 1_555 1_555
H25G C29G 1_555 1_555
C30G C29G 1_555 1_555
H26G C30G 1_555 1_555
C31G O2G 1_555 1_555
C32G C26G 1_555 1_555
H27G C32G 1_555 1_555
C33G C32G 1_555 1_555
H28G C33G 1_555 1_555
C34G N2G 1_555 1_555
H29G C34G 1_555 1_555
C35G C34G 1_555 1_555
H30G C35G 1_555 1_555
C36G C33G 1_555 1_555
C37G C36G 1_555 1_555
H31G C37G 1_555 1_555
C38G N2G 1_555 1_555
H32G C38G 1_555 1_555
C4 C5 1_555 1_555
C14 C15 1_555 1_555
C16 C17 1_555 1_555
C22 C31 1_555 1_555
C27 C28 1_555 1_555
C30 C31 1_555 1_555
C35 C36 1_555 1_555
C37 C38 1_555 1_555
C43 C44 1_555 1_555
C59 C60 1_555 1_555
C4G C5G 1_555 1_555
C14G C15G 1_555 1_555
C16G C17G 1_555 1_555
C22G C31G 1_555 1_555
C27G C28G 1_555 1_555
C30G C31G 1_555 1_555
C35G C36G 1_555 1_555
C37G C38G 1_555 1_555

#END
