
#######################################################################
#
#                 Cambridge Crystallographic Data Centre
#                                CCDC 
#
#######################################################################
#
# If this CIF has been generated from an entry in the Cambridge 
# Structural Database, then it will include bibliographic, chemical, 
# crystal, experimental, refinement or atomic coordinate data resulting 
# from the CCDC's data processing and validation procedures.
#
#######################################################################

data_LAKKAK
_symmetry_cell_setting           orthorhombic
_symmetry_space_group_name_H-M   'P b c a'
_symmetry_Int_Tables_number      61
_space_group_name_Hall           '-P 2ac 2ab'
loop_
_symmetry_equiv_pos_site_id
_symmetry_equiv_pos_as_xyz
1 x,y,z
2 1/2-x,-y,1/2+z
3 1/2+x,1/2-y,-z
4 -x,1/2+y,1/2-z
5 -x,-y,-z
6 1/2+x,y,1/2-z
7 1/2-x,1/2+y,z
8 x,1/2-y,1/2+z
_cell_length_a                   11.9182(5)
_cell_length_b                   16.5293(7)
_cell_length_c                   21.1391(9)
_cell_angle_alpha                90
_cell_angle_beta                 90
_cell_angle_gamma                90
_cell_volume                     4164.39
loop_
_atom_site_label
_atom_site_type_symbol
_atom_site_fract_x
_atom_site_fract_y
_atom_site_fract_z
Zn1 Zn 0.52193(3) 0.20700(3) 0.53727(2)
Zn2 Zn 0.74500(3) 0.27152(3) 0.46421(2)
O1 O 0.6340(2) 0.2079(2) 0.60410(10)
O2 O 0.7765(2) 0.2669(2) 0.55440(10)
O3 O 0.5538(2) 0.1300(2) 0.47040(10)
O4 O 0.7135(2) 0.1675(2) 0.42470(10)
O5 O 0.6263(2) 0.3436(2) 0.43640(10)
O6 O 0.4921(2) 0.3155(2) 0.50560(10)
O7 O 0.3775(2) 0.1831(2) 0.57120(10)
C1 C 0.7287(3) 0.2409(2) 0.6025(2)
C2 C 0.7874(3) 0.2518(2) 0.6644(2)
C3 C 0.7335(3) 0.2327(2) 0.7205(2)
C4 C 0.7853(4) 0.2468(3) 0.7773(2)
C5 C 0.8913(4) 0.2790(3) 0.7788(2)
C6 C 0.9452(4) 0.2980(3) 0.7242(2)
C7 C 0.8941(3) 0.2838(2) 0.6665(2)
C8 C 0.6289(3) 0.1230(2) 0.4293(2)
C9 C 0.6148(3) 0.0576(2) 0.3815(2)
C10 C 0.5171(4) 0.0130(3) 0.3794(2)
C11 C 0.5008(5) -0.0447(3) 0.3328(3)
C12 C 0.5827(6) -0.0582(3) 0.2890(3)
C13 C 0.6809(6) -0.0148(3) 0.2911(3)
C14 C 0.6962(4) 0.0437(3) 0.3371(2)
C15 C 0.5322(3) 0.3561(2) 0.4617(2)
C16 C 0.4641(3) 0.4248(2) 0.4368(2)
C17 C 0.3645(3) 0.4447(3) 0.4664(2)
C18 C 0.3009(5) 0.5075(3) 0.4433(4)
C19 C 0.3338(6) 0.5487(3) 0.3919(4)
C20 C 0.4318(6) 0.5315(3) 0.3623(3)
C21 C 0.4995(4) 0.4682(3) 0.3854(2)
H1 H 0.373(3) 0.141(2) 0.594(2)
H2 H 0.6619 0.2104 0.7196
H3 H 0.7486 0.2344 0.8149
H4 H 0.9265 0.2879 0.8174
H5 H 1.0167 0.3205 0.7256
H6 H 0.9317 0.2960 0.6292
H7 H 0.4616 0.0218 0.4095
H8 H 0.4343 -0.0742 0.3315
H9 H 0.5721 -0.0969 0.2576
H10 H 0.7371 -0.0248 0.2617
H11 H 0.7621 0.0738 0.3379
H12 H 0.3407 0.4159 0.5017
H13 H 0.2344 0.5215 0.4636
H14 H 0.2885 0.5899 0.3763
H15 H 0.4541 0.5611 0.3271
H16 H 0.5674 0.4560 0.3659
Zn2B Zn 0.24500(3) 0.22848(3) 0.53579(2)
O7B O 0.8775(2) 0.3169(2) 0.42880(10)
H1B H 0.873(3) 0.359(2) 0.406(2)
loop_
_geom_bond_atom_site_label_1
_geom_bond_atom_site_label_2
_geom_bond_site_symmetry_1
_geom_bond_site_symmetry_2
Zn1 O1 1_555 1_555
Zn2 O2 1_555 1_555
O1 C1 1_555 1_555
O2 C1 1_555 1_555
O3 Zn1 1_555 1_555
O4 Zn2 1_555 1_555
O5 Zn2 1_555 1_555
O6 Zn1 1_555 1_555
O7 Zn1 1_555 1_555
C1 C2 1_555 1_555
C2 C3 1_555 1_555
C3 C4 1_555 1_555
C4 C5 1_555 1_555
C5 C6 1_555 1_555
C6 C7 1_555 1_555
C7 C2 1_555 1_555
C8 O3 1_555 1_555
C9 C8 1_555 1_555
C10 C9 1_555 1_555
C11 C10 1_555 1_555
C12 C11 1_555 1_555
C13 C12 1_555 1_555
C14 C9 1_555 1_555
C15 O5 1_555 1_555
C16 C15 1_555 1_555
C17 C16 1_555 1_555
C18 C17 1_555 1_555
C19 C18 1_555 1_555
C20 C19 1_555 1_555
C21 C16 1_555 1_555
H1 O7 1_555 1_555
H2 C3 1_555 1_555
H3 C4 1_555 1_555
H4 C5 1_555 1_555
H5 C6 1_555 1_555
H6 C7 1_555 1_555
H7 C10 1_555 1_555
H8 C11 1_555 1_555
H9 C12 1_555 1_555
H10 C13 1_555 1_555
H11 C14 1_555 1_555
H12 C17 1_555 1_555
H13 C18 1_555 1_555
H14 C19 1_555 1_555
H15 C20 1_555 1_555
H16 C21 1_555 1_555
Zn2B O7 1_555 1_555
O7B Zn2 1_555 1_555
H1B O7B 1_555 1_555
O4 C8 1_555 1_555
O6 C15 1_555 1_555
C13 C14 1_555 1_555
C20 C21 1_555 1_555

#END
