
#######################################################################
#
#                 Cambridge Crystallographic Data Centre
#                                CCDC 
#
#######################################################################
#
# If this CIF has been generated from an entry in the Cambridge 
# Structural Database, then it will include bibliographic, chemical, 
# crystal, experimental, refinement or atomic coordinate data resulting 
# from the CCDC's data processing and validation procedures.
#
#######################################################################

data_LAKYUT
_symmetry_cell_setting           monoclinic
_symmetry_space_group_name_H-M   'P 21/c'
_symmetry_Int_Tables_number      14
_space_group_name_Hall           '-P 2ybc'
loop_
_symmetry_equiv_pos_site_id
_symmetry_equiv_pos_as_xyz
1 x,y,z
2 -x,1/2+y,1/2-z
3 -x,-y,-z
4 x,1/2-y,1/2+z
_cell_length_a                   20.2350(9)
_cell_length_b                   14.1760(7)
_cell_length_c                   19.6441(10)
_cell_angle_alpha                90
_cell_angle_beta                 111.3070(10)
_cell_angle_gamma                90
_cell_volume                     5249.77
loop_
_atom_site_label
_atom_site_type_symbol
_atom_site_fract_x
_atom_site_fract_y
_atom_site_fract_z
Ga1 Ga 0.78807(2) 0.52954(3) 0.08771(2)
K1 K 0.78351(5) 0.66316(6) 0.36878(5)
N1 N 0.70862(14) 0.45396(19) 0.03345(15)
N2 N 0.75489(14) 0.62664(19) 0.01317(15)
N3 N 0.78671(14) 0.58570(19) 0.17870(14)
N4 N 0.83880(15) 0.7021(2) 0.26729(15)
C1 C 0.67276(18) 0.5029(2) -0.03217(19)
H1 H 0.6340 0.4743 -0.0697
C2 C 0.69383(18) 0.5903(3) -0.04110(19)
H2 H 0.6681 0.6266 -0.0830
C3 C 0.71715(18) 0.3534(2) 0.03116(18)
C4 C 0.69156(18) 0.2965(2) 0.07506(19)
C5 C 0.7056(2) 0.2004(3) 0.0794(2)
H3 H 0.6888 0.1616 0.1092
C6 C 0.7439(2) 0.1604(3) 0.0407(2)
H4 H 0.7539 0.0947 0.0448
C7 C 0.7672(2) 0.2158(3) -0.0034(2)
H5 H 0.7923 0.1871 -0.0305
C8 C 0.75516(19) 0.3125(3) -0.00968(19)
C9 C 0.64564(19) 0.3389(3) 0.1135(2)
H6 H 0.6654 0.4024 0.1323
C10 C 0.57017(18) 0.3529(3) 0.0585(2)
H7 H 0.5504 0.2919 0.0374
H8 H 0.5712 0.3953 0.0195
H9 H 0.5406 0.3806 0.0833
C11 C 0.6438(2) 0.2809(3) 0.1781(2)
H10 H 0.6195 0.3169 0.2047
H11 H 0.6924 0.2668 0.2108
H12 H 0.6182 0.2218 0.1603
C12 C 0.77937(19) 0.3686(3) -0.0617(2)
H13 H 0.7733 0.4370 -0.0531
C13 C 0.8574(2) 0.3522(3) -0.0507(2)
H14 H 0.8870 0.3651 0.0003
H15 H 0.8710 0.3944 -0.0828
H16 H 0.8640 0.2865 -0.0625
C14 C 0.7323(2) 0.3457(3) -0.1406(2)
H17 H 0.7364 0.2785 -0.1500
H18 H 0.7476 0.3833 -0.1741
H19 H 0.6829 0.3606 -0.1482
C15 C 0.77331(19) 0.7221(3) 0.01378(18)
C16 C 0.84677(19) 0.7467(2) 0.03404(18)
C17 C 0.8663(2) 0.8405(3) 0.03751(19)
H20 H 0.9152 0.8560 0.0531
C18 C 0.8165(2) 0.9132(3) 0.01892(19)
H21 H 0.8308 0.9772 0.0202
C19 C 0.7459(2) 0.8897(3) -0.00129(19)
H22 H 0.7117 0.9389 -0.0144
C20 C 0.72249(19) 0.7967(2) -0.00328(18)
C21 C 0.90373(18) 0.6709(3) 0.0515(2)
H23 H 0.8918 0.6228 0.0825
C22 C 0.97876(18) 0.7047(3) 0.0946(2)
H24 H 0.9951 0.7453 0.0636
H25 H 1.0104 0.6501 0.1105
H26 H 0.9791 0.7403 0.1375
C23 C 0.9020(2) 0.6203(3) -0.0176(2)
H27 H 0.8540 0.5966 -0.0441
H28 H 0.9354 0.5673 -0.0043
H29 H 0.9154 0.6644 -0.0487
C24 C 0.64382(18) 0.7819(3) -0.01816(19)
H30 H 0.6372 0.7147 -0.0065
C25 C 0.59774(19) 0.7991(3) -0.0993(2)
H31 H 0.5479 0.7866 -0.1071
H32 H 0.6131 0.7569 -0.1302
H33 H 0.6030 0.8648 -0.1121
C26 C 0.6177(2) 0.8446(3) 0.0303(2)
H34 H 0.6477 0.8347 0.0817
H35 H 0.5685 0.8283 0.0230
H36 H 0.6202 0.9109 0.0174
C27 C 0.82807(18) 0.6611(2) 0.20518(19)
H37 H 0.8517 0.6870 0.1756
C28 C 0.75438(18) 0.5455(2) 0.22584(17)
C29 C 0.79125(18) 0.4758(3) 0.27703(18)
C30 C 0.7589(2) 0.4390(2) 0.3228(2)
H38 H 0.7836 0.3932 0.3582
C31 C 0.6920(2) 0.4670(3) 0.3181(2)
H39 H 0.6708 0.4406 0.3497
C32 C 0.65663(19) 0.5335(3) 0.2673(2)
H40 H 0.6104 0.5522 0.2636
C33 C 0.68664(18) 0.5746(2) 0.22073(18)
C34 C 0.86358(18) 0.4390(3) 0.2833(2)
H41 H 0.8837 0.4837 0.2564
C35 C 0.9156(2) 0.4337(3) 0.3622(2)
H42 H 0.9151 0.4935 0.3870
H43 H 0.9635 0.4218 0.3628
H44 H 0.9017 0.3823 0.3876
C36 C 0.8563(2) 0.3419(3) 0.2464(2)
H45 H 0.8363 0.2968 0.2714
H46 H 0.9031 0.3200 0.2491
H47 H 0.8248 0.3471 0.1950
C37 C 0.64633(19) 0.6493(3) 0.1660(2)
H48 H 0.6808 0.6820 0.1483
C38 C 0.6139(2) 0.7234(3) 0.2008(2)
H49 H 0.5773 0.6939 0.2155
H50 H 0.5925 0.7737 0.1654
H51 H 0.6510 0.7501 0.2438
C39 C 0.58933(19) 0.6044(3) 0.1002(2)
H52 H 0.6116 0.5613 0.0759
H53 H 0.5637 0.6538 0.0658
H54 H 0.5561 0.5692 0.1164
C40 C 0.88790(19) 0.7791(3) 0.28663(19)
C41 C 0.9607(2) 0.7614(3) 0.32391(19)
C42 C 1.0069(2) 0.8378(3) 0.3452(2)
H55 H 1.0562 0.8270 0.3701
C43 C 0.9821(2) 0.9284(3) 0.3309(2)
H56 H 1.0144 0.9797 0.3452
C44 C 0.9105(2) 0.9458(3) 0.2957(2)
H57 H 0.8941 1.0091 0.2874
C45 C 0.8626(2) 0.8727(3) 0.27263(19)
C46 C 0.9887(2) 0.6619(3) 0.3441(2)
H58 H 0.9472 0.6180 0.3263
C47 C 1.0233(2) 0.6484(3) 0.4255(2)
H59 H 1.0647 0.6899 0.4445
H60 H 1.0383 0.5826 0.4359
H61 H 0.9893 0.6641 0.4488
C48 C 1.0404(3) 0.6330(3) 0.3079(3)
H62 H 1.0179 0.6407 0.2549
H63 H 1.0539 0.5668 0.3193
H64 H 1.0828 0.6728 0.3262
C49 C 0.7832(2) 0.8926(3) 0.2365(2)
H65 H 0.7604 0.8364 0.2063
C50 C 0.7502(2) 0.9064(3) 0.2947(2)
H66 H 0.7720 0.9611 0.3251
H67 H 0.7584 0.8499 0.3254
H68 H 0.6991 0.9170 0.2708
C51 C 0.7670(2) 0.9785(3) 0.1864(2)
H69 H 0.7834 1.0357 0.2157
H70 H 0.7157 0.9827 0.1595
H71 H 0.7914 0.9724 0.1517
H80 H 0.8573(13) 0.4810(18) 0.1063(14)
K1C K 0.78351(5) 0.83684(6) -0.13122(5)
C15C C 0.77331(19) 0.7779(3) 0.51378(18)
C16C C 0.84677(19) 0.7533(2) 0.53404(18)
C17C C 0.8663(2) 0.6595(3) 0.53751(19)
H20C H 0.9152 0.6440 0.5531
C18C C 0.8165(2) 0.5868(3) 0.51892(19)
H21C H 0.8308 0.5228 0.5202
C19C C 0.7459(2) 0.6103(3) 0.49871(19)
H22C H 0.7117 0.5611 0.4856
C20C C 0.72249(19) 0.7033(2) 0.49672(18)
C52 C 0.5567(4) 1.0326(6) 0.2439(5)
H72 H 0.5944 1.0508 0.2263
H73 H 0.5779 1.0094 0.2942
H74 H 0.5268 1.0875 0.2426
C53 C 0.5116(4) 0.9550(5) 0.1952(4)
C54 C 0.4903(6) 0.8763(8) 0.2284(6)
H75 H 0.5054 0.8707 0.2800
C55 C 0.4487(4) 0.8113(6) 0.1842(4)
H76 H 0.4328 0.7595 0.2049
C56 C 0.4273(4) 0.8179(6) 0.1061(4)
H77 H 0.3982 0.7701 0.0760
C57 C 0.4472(4) 0.8881(6) 0.0765(4)
H78 H 0.4322 0.8922 0.0248
C58 C 0.4907(5) 0.9581(7) 0.1201(4)
H79 H 0.5061 1.0086 0.0978
C59? C 0.4236(6) 0.7847(7) 0.1342(7)
C60? C 0.4664(5) 0.8699(7) 0.1583(6)
C61? C 0.4739(7) 0.9226(9) 0.1010(8)
C62? C 0.5203(6) 0.9983(8) 0.1262(6)
C63? C 0.5524(6) 1.0213(9) 0.1970(7)
C64? C 0.5433(6) 0.9670(9) 0.2520(7)
C65? C 0.5001(8) 0.8962(10) 0.2290(7)
H81? H 0.4488 0.7397 0.1146
H82? H 0.3781 0.8011 0.0962
H83? H 0.4151 0.7563 0.1758
H84? H 0.4501 0.9082 0.0507
H85? H 0.5298 1.0363 0.0910
H86? H 0.5818 1.0756 0.2097
H87? H 0.5669 0.9807 0.3024
H88? H 0.4912 0.8593 0.2651
loop_
_geom_bond_atom_site_label_1
_geom_bond_atom_site_label_2
_geom_bond_site_symmetry_1
_geom_bond_site_symmetry_2
Ga1 N1 1_555 1_555
K1 N4 1_555 1_555
N1 C1 1_555 1_555
N2 Ga1 1_555 1_555
N3 Ga1 1_555 1_555
N4 C27 1_555 1_555
C1 H1 1_555 1_555
C2 N2 1_555 1_555
H2 C2 1_555 1_555
C3 N1 1_555 1_555
C4 C3 1_555 1_555
C5 C4 1_555 1_555
H3 C5 1_555 1_555
C6 C5 1_555 1_555
H4 C6 1_555 1_555
C7 C6 1_555 1_555
H5 C7 1_555 1_555
C8 C3 1_555 1_555
C9 C4 1_555 1_555
H6 C9 1_555 1_555
C10 C9 1_555 1_555
H7 C10 1_555 1_555
H8 C10 1_555 1_555
H9 C10 1_555 1_555
C11 C9 1_555 1_555
H10 C11 1_555 1_555
H11 C11 1_555 1_555
H12 C11 1_555 1_555
C12 C8 1_555 1_555
H13 C12 1_555 1_555
C13 C12 1_555 1_555
H14 C13 1_555 1_555
H15 C13 1_555 1_555
H16 C13 1_555 1_555
C14 C12 1_555 1_555
H17 C14 1_555 1_555
H18 C14 1_555 1_555
H19 C14 1_555 1_555
C15 N2 1_555 1_555
C16 C15 1_555 1_555
C17 C16 1_555 1_555
H20 C17 1_555 1_555
C18 C17 1_555 1_555
H21 C18 1_555 1_555
C19 C18 1_555 1_555
H22 C19 1_555 1_555
C20 C15 1_555 1_555
C21 C16 1_555 1_555
H23 C21 1_555 1_555
C22 C21 1_555 1_555
H24 C22 1_555 1_555
H25 C22 1_555 1_555
H26 C22 1_555 1_555
C23 C21 1_555 1_555
H27 C23 1_555 1_555
H28 C23 1_555 1_555
H29 C23 1_555 1_555
C24 C20 1_555 1_555
H30 C24 1_555 1_555
C25 C24 1_555 1_555
H31 C25 1_555 1_555
H32 C25 1_555 1_555
H33 C25 1_555 1_555
C26 C24 1_555 1_555
H34 C26 1_555 1_555
H35 C26 1_555 1_555
H36 C26 1_555 1_555
C27 N3 1_555 1_555
H37 C27 1_555 1_555
C28 K1 1_555 1_555
C29 K1 1_555 1_555
C30 K1 1_555 1_555
H38 C30 1_555 1_555
C31 K1 1_555 1_555
H39 C31 1_555 1_555
C32 K1 1_555 1_555
H40 C32 1_555 1_555
C33 K1 1_555 1_555
C34 C29 1_555 1_555
H41 C34 1_555 1_555
C35 C34 1_555 1_555
H42 C35 1_555 1_555
H43 C35 1_555 1_555
H44 C35 1_555 1_555
C36 C34 1_555 1_555
H45 C36 1_555 1_555
H46 C36 1_555 1_555
H47 C36 1_555 1_555
C37 C33 1_555 1_555
H48 C37 1_555 1_555
C38 C37 1_555 1_555
H49 C38 1_555 1_555
H50 C38 1_555 1_555
H51 C38 1_555 1_555
C39 C37 1_555 1_555
H52 C39 1_555 1_555
H53 C39 1_555 1_555
H54 C39 1_555 1_555
C40 N4 1_555 1_555
C41 C40 1_555 1_555
C42 C41 1_555 1_555
H55 C42 1_555 1_555
C43 C42 1_555 1_555
H56 C43 1_555 1_555
C44 C43 1_555 1_555
H57 C44 1_555 1_555
C45 C40 1_555 1_555
C46 C41 1_555 1_555
H58 C46 1_555 1_555
C47 C46 1_555 1_555
H59 C47 1_555 1_555
H60 C47 1_555 1_555
H61 C47 1_555 1_555
C48 C46 1_555 1_555
H62 C48 1_555 1_555
H63 C48 1_555 1_555
H64 C48 1_555 1_555
C49 C45 1_555 1_555
H65 C49 1_555 1_555
C50 C49 1_555 1_555
H66 C50 1_555 1_555
H67 C50 1_555 1_555
H68 C50 1_555 1_555
C51 C49 1_555 1_555
H69 C51 1_555 1_555
H70 C51 1_555 1_555
H71 C51 1_555 1_555
C52 H72 1_555 1_555
H73 C52 1_555 1_555
H74 C52 1_555 1_555
C53 C52 1_555 1_555
C54 C53 1_555 1_555
H75 C54 1_555 1_555
C55 C54 1_555 1_555
H76 C55 1_555 1_555
C56 C55 1_555 1_555
H77 C56 1_555 1_555
C57 C56 1_555 1_555
H78 C57 1_555 1_555
C58 C53 1_555 1_555
H79 C58 1_555 1_555
H80 Ga1 1_555 1_555
K1C C15 1_555 1_555
C15C K1 1_555 1_555
C16C K1 1_555 1_555
C17C K1 1_555 1_555
H20C C17C 1_555 1_555
C18C K1 1_555 1_555
H21C C18C 1_555 1_555
C19C K1 1_555 1_555
H22C C19C 1_555 1_555
C20C K1 1_555 1_555
N3 C28 1_555 1_555
C1 C2 1_555 1_555
C7 C8 1_555 1_555
C16 K1C 1_555 1_555
C17 K1C 1_555 1_555
C18 K1C 1_555 1_555
C19 C20 1_555 1_555
C19 K1C 1_555 1_555
C20 K1C 1_555 1_555
C28 C29 1_555 1_555
C28 C33 1_555 1_555
C29 C30 1_555 1_555
C30 C31 1_555 1_555
C31 C32 1_555 1_555
C32 C33 1_555 1_555
C44 C45 1_555 1_555
C57 C58 1_555 1_555
C15C C16C 1_555 1_555
C15C C20C 1_555 1_555
C16C C17C 1_555 1_555
C17C C18C 1_555 1_555
C18C C19C 1_555 1_555
C19C C20C 1_555 1_555

#END
