
#######################################################################
#
#                 Cambridge Crystallographic Data Centre
#                                CCDC 
#
#######################################################################
#
# If this CIF has been generated from an entry in the Cambridge 
# Structural Database, then it will include bibliographic, chemical, 
# crystal, experimental, refinement or atomic coordinate data resulting 
# from the CCDC's data processing and validation procedures.
#
#######################################################################

data_LALFIP
_symmetry_cell_setting           monoclinic
_symmetry_space_group_name_H-M   'C 2/m'
_symmetry_Int_Tables_number      12
_space_group_name_Hall           '-C 2y'
loop_
_symmetry_equiv_pos_site_id
_symmetry_equiv_pos_as_xyz
1 x,y,z
2 -x,y,-z
3 1/2+x,1/2+y,z
4 1/2-x,1/2+y,-z
5 -x,-y,-z
6 x,-y,z
7 1/2-x,1/2-y,-z
8 1/2+x,1/2-y,z
_cell_length_a                   16.1459(19)
_cell_length_b                   19.2618(15)
_cell_length_c                   9.9376(12)
_cell_angle_alpha                90
_cell_angle_beta                 124.970(4)
_cell_angle_gamma                90
_cell_volume                     2532.59
loop_
_atom_site_label
_atom_site_type_symbol
_atom_site_fract_x
_atom_site_fract_y
_atom_site_fract_z
Sn1 Sn 0.586538(19) 0.5000 0.30642(3)
Mn1 Mn 0.33826(4) 0.5000 0.02641(7)
Mn2 Mn 0.5000 0.59097(3) 0.5000
S1 S 0.46641(5) 0.40594(3) 0.20211(8)
S2 S 0.71470(7) 0.5000 0.26303(12)
S3 S 0.64402(7) 0.5000 0.58955(11)
N1 N 0.20737(17) 0.42987(12) -0.0303(3)
N2 N 0.60126(17) 0.68689(11) 0.5696(3)
C1 C 0.2090(2) 0.36136(15) -0.0230(4)
H1 H 0.2699 0.3386 0.0183
C2 C 0.1232(3) 0.32140(16) -0.0745(4)
H2 H 0.1277 0.2733 -0.0662
C3 C 0.0333(2) 0.35385(18) -0.1368(4)
H3 H -0.0243 0.3279 -0.1716
C4 C 0.0274(2) 0.42674(17) -0.1486(3)
C5 C 0.1181(2) 0.46247(14) -0.0901(3)
C6 C -0.0638(2) 0.46518(18) -0.2136(4)
H4 H -0.1243 0.4415 -0.2566
C7 C 0.6989(2) 0.68718(15) 0.6362(4)
H5 H 0.7316 0.6447 0.6573
C8 C 0.7563(3) 0.74780(17) 0.6771(4)
H6 H 0.8257 0.7452 0.7270
C9 C 0.7096(2) 0.81051(16) 0.6432(4)
H7 H 0.7466 0.8513 0.6684
C10 C 0.6045(2) 0.81322(14) 0.5694(3)
C11 C 0.5534(2) 0.74939(13) 0.5357(3)
C12 C 0.5500(2) 0.87738(14) 0.5334(4)
H8 H 0.5841 0.9194 0.5566
Mn1A Mn 0.66174(4) 0.5000 -0.02641(7)
Mn2D Mn 0.5000 0.40903(3) 0.5000
S1E S 0.46641(5) 0.59406(3) 0.20211(8)
S1D S 0.53359(5) 0.59406(3) 0.79789(8)
S2A S 0.28530(7) 0.5000 -0.26303(12)
S3A S 0.35598(7) 0.5000 0.41045(11)
N1E N 0.20737(17) 0.57013(12) -0.0303(3)
N2A N 0.39874(17) 0.68689(11) 0.4304(3)
C1E C 0.2090(2) 0.63864(15) -0.0230(4)
H1E H 0.2699 0.6614 0.0183
C2E C 0.1232(3) 0.67860(16) -0.0745(4)
H2E H 0.1277 0.7267 -0.0662
C3E C 0.0333(2) 0.64615(18) -0.1368(4)
H3E H -0.0243 0.6721 -0.1716
C4E C 0.0274(2) 0.57326(17) -0.1486(3)
C5E C 0.1181(2) 0.53753(14) -0.0901(3)
C6E C -0.0638(2) 0.53482(18) -0.2136(4)
H4E H -0.1243 0.5585 -0.2566
C7A C 0.3011(2) 0.68718(15) 0.3638(4)
H5A H 0.2684 0.6447 0.3427
C8A C 0.2437(3) 0.74780(17) 0.3229(4)
H6A H 0.1743 0.7452 0.2730
C9A C 0.2904(2) 0.81051(16) 0.3568(4)
H7A H 0.2534 0.8513 0.3316
C10A C 0.3955(2) 0.81322(14) 0.4306(3)
C11A C 0.4466(2) 0.74939(13) 0.4643(3)
C12A C 0.4500(2) 0.87738(14) 0.4666(4)
H8A H 0.4159 0.9194 0.4434
O1 O 0.0000 0.20959(17) 0.0000
H9 H 0.010(4) 0.184(2) -0.055(5)
H9A H -0.010(4) 0.184(2) 0.055(5)
loop_
_geom_bond_atom_site_label_1
_geom_bond_atom_site_label_2
_geom_bond_site_symmetry_1
_geom_bond_site_symmetry_2
Sn1 S1 1_555 1_555
Mn1 S1 1_555 1_555
Mn2 S3 1_555 1_555
S1 Mn2D 1_555 1_555
S2 Sn1 1_555 1_555
S3 Sn1 1_555 1_555
N1 Mn1 1_555 1_555
N2 Mn2 1_555 1_555
C1 N1 1_555 1_555
H1 C1 1_555 1_555
C2 C1 1_555 1_555
H2 C2 1_555 1_555
C3 C2 1_555 1_555
H3 C3 1_555 1_555
C4 C3 1_555 1_555
C5 N1 1_555 1_555
C6 C4 1_555 1_555
H4 C6 1_555 1_555
C7 N2 1_555 1_555
H5 C7 1_555 1_555
C8 C7 1_555 1_555
H6 C8 1_555 1_555
C9 C8 1_555 1_555
H7 C9 1_555 1_555
C10 C9 1_555 1_555
C11 N2 1_555 1_555
C12 C10 1_555 1_555
H8 C12 1_555 1_555
O1 H9 1_555 1_555
Mn1A S2 1_555 1_555
Mn2D S3 1_555 1_555
S1E Sn1 1_555 1_555
S1D Mn2 1_555 1_555
S2A Mn1 1_555 1_555
S3A Mn2 1_555 1_555
N1E Mn1 1_555 1_555
N2A Mn2 1_555 1_555
C1E N1E 1_555 1_555
H1E C1E 1_555 1_555
C2E C1E 1_555 1_555
H2E C2E 1_555 1_555
C3E C2E 1_555 1_555
H3E C3E 1_555 1_555
C4E C3E 1_555 1_555
C5E C5 1_555 1_555
C6E C6 1_555 1_555
H4E C6E 1_555 1_555
C7A N2A 1_555 1_555
H5A C7A 1_555 1_555
C8A C7A 1_555 1_555
H6A C8A 1_555 1_555
C9A C8A 1_555 1_555
H7A C9A 1_555 1_555
C10A C9A 1_555 1_555
C11A C11 1_555 1_555
C12A C12 1_555 1_555
H8A C12A 1_555 1_555
H9A O1 1_555 1_555
Mn1 S1E 1_555 1_555
Mn2 S1E 1_555 1_555
C4 C5 1_555 1_555
C10 C11 1_555 1_555
Mn2D S3A 1_555 1_555
N1E C5E 1_555 1_555
N2A C11A 1_555 1_555
C4E C5E 1_555 1_555
C4E C6E 1_555 1_555
C10A C11A 1_555 1_555
C10A C12A 1_555 1_555

#END
