
#######################################################################
#
#                 Cambridge Crystallographic Data Centre
#                                CCDC 
#
#######################################################################
#
# If this CIF has been generated from an entry in the Cambridge 
# Structural Database, then it will include bibliographic, chemical, 
# crystal, experimental, refinement or atomic coordinate data resulting 
# from the CCDC's data processing and validation procedures.
#
#######################################################################

data_LALGIQ
_symmetry_cell_setting           tetragonal
_symmetry_space_group_name_H-M   'P 43 21 2'
_symmetry_Int_Tables_number      96
_space_group_name_Hall           'P 4nw 2abw'
loop_
_symmetry_equiv_pos_site_id
_symmetry_equiv_pos_as_xyz
1 x,y,z
2 1/2-y,1/2+x,3/4+z
3 1/2+x,1/2-y,1/4-z
4 -x,-y,1/2+z
5 y,x,-z
6 1/2+y,1/2-x,1/4+z
7 1/2-x,1/2+y,3/4-z
8 -y,-x,1/2-z
_cell_length_a                   14.0340(2)
_cell_length_b                   14.0340(2)
_cell_length_c                   49.2861(9)
_cell_angle_alpha                90
_cell_angle_beta                 90
_cell_angle_gamma                90
_cell_volume                     9707.05
loop_
_atom_site_label
_atom_site_type_symbol
_atom_site_fract_x
_atom_site_fract_y
_atom_site_fract_z
Sn1 Sn 0.695468(19) -0.05013(2) 0.881874(6)
Sn2 Sn 0.95592(2) -0.31680(2) 0.783390(6)
Sn3 Sn 1.20417(2) -0.46078(2) 0.703110(6)
O1 O 0.7266(2) -0.1801(2) 0.85966(6)
O2 O 0.6079(2) -0.1811(2) 0.82928(6)
O3 O 0.8294(2) -0.3001(2) 0.80913(6)
O4 O 0.8440(2) -0.4134(2) 0.84046(6)
O5 O 1.2218(2) -0.3304(2) 0.72583(6)
O6 O 1.0982(2) -0.3352(2) 0.75404(6)
C1 C 0.6734(3) -0.2201(3) 0.84152(8)
C2 C 0.6956(3) -0.3265(3) 0.83757(9)
H1 H 0.6827 -0.3603 0.8548
H2 H 0.6518 -0.3525 0.8237
C3 C 0.7982(3) -0.3478(3) 0.82888(8)
C4 C 1.1887(3) -0.1887(3) 0.7500
H3 H 1.1690 -0.1494 0.7343
H4 H 1.1494 -0.1690 0.7657
C5 C 1.1668(3) -0.2931(3) 0.74361(8)
C6 C 0.7383(3) 0.0388(3) 0.84939(9)
C7 C 0.7013(3) 0.1287(3) 0.84378(9)
H5 H 0.6541 0.1551 0.8554
C8 C 0.7325(3) 0.1802(3) 0.82156(9)
H6 H 0.7051 0.2405 0.8176
C9 C 0.8038(3) 0.1440(3) 0.80498(9)
H7 H 0.8246 0.1792 0.7896
C10 C 0.8447(3) 0.0565(4) 0.81080(9)
H8 H 0.8957 0.0329 0.8000
C11 C 0.8106(3) 0.0038(3) 0.83249(9)
H9 H 0.8368 -0.0574 0.8360
C12 C 0.8081(3) -0.0818(3) 0.90936(9)
C13 C 0.8887(3) -0.1291(3) 0.89968(10)
H10 H 0.8924 -0.1466 0.8811
C14 C 0.9639(4) -0.1510(3) 0.91716(11)
H11 H 1.0188 -0.1826 0.9103
C15 C 0.9588(4) -0.1269(4) 0.94435(12)
H12 H 1.0101 -0.1421 0.9562
C16 C 0.8792(4) -0.0808(4) 0.95432(10)
H13 H 0.8755 -0.0645 0.9730
C17 C 0.8038(3) -0.0582(3) 0.93679(9)
H14 H 0.7492 -0.0264 0.9437
C18 C 0.5561(3) -0.0961(3) 0.89131(8)
C19 C 0.4773(3) -0.0359(4) 0.88993(8)
H15 H 0.4854 0.0284 0.8843
C20 C 0.3870(4) -0.0687(5) 0.89666(9)
H16 H 0.3336 -0.0275 0.8950
C21 C 0.3744(4) -0.1606(5) 0.90570(9)
H17 H 0.3127 -0.1827 0.9105
C22 C 0.4525(4) -0.2208(4) 0.90772(9)
H18 H 0.4443 -0.2841 0.9141
C23 C 0.5424(3) -0.1891(3) 0.90043(8)
H19 H 0.5953 -0.2311 0.9017
C24 C 0.9252(3) -0.4578(3) 0.77133(9)
C25 C 0.8869(3) -0.4741(3) 0.74574(8)
H20 H 0.8801 -0.4224 0.7334
C26 C 0.8585(3) -0.5646(4) 0.73790(9)
H21 H 0.8316 -0.5746 0.7204
C27 C 0.8696(3) -0.6408(3) 0.75568(9)
H22 H 0.8495 -0.7029 0.7505
C28 C 0.9100(3) -0.6256(3) 0.78083(9)
H23 H 0.9190 -0.6777 0.7929
C29 C 0.9374(3) -0.5348(3) 0.78863(8)
H24 H 0.9650 -0.5252 0.8060
C30 C 0.9090(3) -0.2046(3) 0.75805(9)
C31 C 0.9443(4) -0.1922(4) 0.73195(10)
H25 H 0.9888 -0.2368 0.7249
C32 C 0.9159(4) -0.1161(4) 0.71602(11)
H26 H 0.9404 -0.1087 0.6982
C33 C 0.8504(4) -0.0501(4) 0.72653(11)
H27 H 0.8316 0.0033 0.7159
C34 C 0.8136(4) -0.0623(3) 0.75190(10)
H28 H 0.7683 -0.0180 0.7587
C35 C 0.8416(3) -0.1386(3) 0.76783(9)
H29 H 0.8152 -0.1465 0.7854
C36 C 1.0488(3) -0.2762(3) 0.81484(8)
C37 C 1.0269(4) -0.1931(4) 0.82916(11)
H30 H 0.9713 -0.1581 0.8245
C38 C 1.0843(4) -0.1606(4) 0.84999(11)
H31 H 1.0686 -0.1036 0.8594
C39 C 1.1641(4) -0.2113(4) 0.85703(10)
H32 H 1.2031 -0.1898 0.8715
C40 C 1.1886(3) -0.2944(4) 0.84304(9)
H33 H 1.2444 -0.3289 0.8478
C41 C 1.1303(3) -0.3258(4) 0.82211(9)
H34 H 1.1466 -0.3824 0.8126
C42 C 1.0716(3) -0.4220(3) 0.68625(8)
C43 C 1.0599(4) -0.3281(3) 0.67735(9)
H35 H 1.1111 -0.2842 0.6788
C44 C 0.9730(4) -0.2986(4) 0.66629(9)
H36 H 0.9656 -0.2347 0.6602
C45 C 0.8985(4) -0.3610(4) 0.66410(10)
H37 H 0.8393 -0.3401 0.6569
C46 C 0.9095(3) -0.4557(4) 0.67254(9)
H38 H 0.8581 -0.4993 0.6709
C47 C 0.9962(3) -0.4855(3) 0.68333(8)
H39 H 1.0040 -0.5500 0.6888
C48 C 1.2288(3) -0.5588(3) 0.73457(9)
C49 C 1.1620(3) -0.5780(3) 0.75500(8)
H40 H 1.1022 -0.5462 0.7548
C50 C 1.1821(4) -0.6426(4) 0.77539(9)
H41 H 1.1365 -0.6543 0.7892
C51 C 1.2684(4) -0.6903(3) 0.77564(10)
H42 H 1.2820 -0.7354 0.7895
C52 C 1.3350(4) -0.6716(4) 0.75558(9)
H43 H 1.3943 -0.7041 0.7557
C53 C 1.3162(3) -0.6069(3) 0.73556(9)
H44 H 1.3631 -0.5944 0.7221
C54 C 1.3308(3) -0.4253(3) 0.68182(9)
C55 C 1.3430(3) -0.4475(3) 0.65453(9)
H45 H 1.2956 -0.4833 0.6453
C56 C 1.4235(4) -0.4178(3) 0.64062(9)
H46 H 1.4311 -0.4338 0.6220
C57 C 1.4930(3) -0.3650(3) 0.65378(10)
H47 H 1.5475 -0.3435 0.6442
C58 C 1.4823(3) -0.3438(3) 0.68101(10)
H48 H 1.5303 -0.3087 0.6902
C59 C 1.4016(3) -0.3736(3) 0.69492(9)
H49 H 1.3946 -0.3585 0.7136
Sn1F Sn 0.804532(19) 0.44987(2) 0.868126(6)
Sn1F_2 Sn 0.804532(19) -0.55013(2) 0.868126(6)
Sn2F Sn 0.54408(2) 0.18320(2) 0.966610(6)
Sn2G Sn 1.31680(2) 0.04408(2) 0.716610(6)
Sn3G Sn 1.46078(2) -0.20417(2) 0.796890(6)
O1F O 0.7734(2) 0.3199(2) 0.89034(6)
O2F O 0.8921(2) 0.3189(2) 0.92072(6)
O3F O 0.6706(2) 0.1999(2) 0.94087(6)
O4F O 0.6560(2) 0.0866(2) 0.90954(6)
O4_2 O 0.8440(2) 0.5866(2) 0.84046(6)
O5G O 1.3304(2) -0.2218(2) 0.77417(6)
O6G O 1.3352(2) -0.0982(2) 0.74596(6)
O6F O 0.4018(2) 0.1648(2) 0.99596(6)
C1F C 0.8266(3) 0.2799(3) 0.90848(8)
C2F C 0.8044(3) 0.1735(3) 0.91243(9)
H1F H 0.8173 0.1397 0.8952
H2F H 0.8482 0.1475 0.9263
C3F C 0.7018(3) 0.1522(3) 0.92112(8)
C5G C 1.2931(3) -0.1668(3) 0.75639(8)
C6F C 0.7617(3) 0.5388(3) 0.90061(9)
C7F C 0.7987(3) 0.6287(3) 0.90622(9)
H5F H 0.8459 0.6551 0.8946
C8F C 0.7675(3) 0.6802(3) 0.92844(9)
H6F H 0.7949 0.7405 0.9324
C9F C 0.6962(3) 0.6440(3) 0.94502(9)
H7F H 0.6754 0.6792 0.9604
C10F C 0.6553(3) 0.5565(4) 0.93920(9)
H8F H 0.6043 0.5329 0.9500
C11F C 0.6894(3) 0.5038(3) 0.91751(9)
H9F H 0.6632 0.4426 0.9140
C12F C 0.6919(3) 0.4182(3) 0.84064(9)
C13F C 0.6113(3) 0.3709(3) 0.85032(10)
H10F H 0.6076 0.3534 0.8689
C14F C 0.5361(4) 0.3490(3) 0.83284(11)
H11F H 0.4812 0.3174 0.8397
C15F C 0.5412(4) 0.3731(4) 0.80565(12)
H12F H 0.4899 0.3579 0.7938
C16F C 0.6208(4) 0.4192(4) 0.79568(10)
H13F H 0.6245 0.4355 0.7770
C17F C 0.6962(3) 0.4418(3) 0.81321(9)
H14F H 0.7508 0.4736 0.8063
C18F C 0.9439(3) 0.4039(3) 0.85869(8)
C19F C 1.0227(3) 0.4641(4) 0.86007(8)
H15F H 1.0146 0.5284 0.8657
C20F C 1.1130(4) 0.4313(5) 0.85334(9)
H16F H 1.1664 0.4725 0.8550
C21F C 1.1256(4) 0.3394(5) 0.84430(9)
H17F H 1.1873 0.3173 0.8395
C22F C 1.0475(4) 0.2792(4) 0.84228(9)
H18F H 1.0557 0.2159 0.8359
C23F C 0.9576(3) 0.3109(3) 0.84957(8)
H19F H 0.9047 0.2689 0.8483
C24F C 0.5748(3) 0.0422(3) 0.97867(9)
C25F C 0.6131(3) 0.0259(3) 1.00426(8)
H20F H 0.6199 0.0776 1.0166
C26F C 0.6415(3) -0.0646(4) 1.01210(9)
H21F H 0.6684 -0.0746 1.0296
C27F C 0.6304(3) -0.1408(3) 0.99432(9)
H22F H 0.6505 -0.2029 0.9995
C28F C 0.5900(3) -0.1256(3) 0.96917(9)
H23F H 0.5810 -0.1777 0.9571
C29F C 0.5626(3) -0.0348(3) 0.96137(8)
H24F H 0.5350 -0.0252 0.9440
C30F C 0.5910(3) 0.2954(3) 0.99195(9)
C31F C 0.5557(4) 0.3078(4) 1.01805(10)
H25F H 0.5112 0.2632 1.0251
C32F C 0.5841(4) 0.3839(4) 1.03398(11)
H26F H 0.5596 0.3913 1.0518
C33F C 0.6496(4) 0.4499(4) 1.02347(11)
H27F H 0.6684 0.5033 1.0341
C34F C 0.6864(4) 0.4377(3) 0.99810(10)
H28F H 0.7317 0.4820 0.9913
C35F C 0.6584(3) 0.3614(3) 0.98217(9)
H29F H 0.6848 0.3535 0.9646
C36F C 0.4512(3) 0.2238(3) 0.93516(8)
C37F C 0.4731(4) 0.3069(4) 0.92084(11)
H30F H 0.5287 0.3419 0.9255
C38F C 0.4157(4) 0.3394(4) 0.90001(11)
H31F H 0.4314 0.3964 0.8906
C39F C 0.3359(4) 0.2887(4) 0.89297(10)
H32F H 0.2969 0.3102 0.8785
C40F C 0.3114(3) 0.2056(4) 0.90696(9)
H33F H 0.2556 0.1711 0.9022
C41F C 0.3697(3) 0.1742(4) 0.92789(9)
H34F H 0.3534 0.1176 0.9374
C42G C 1.4220(3) -0.0716(3) 0.81375(8)
C43G C 1.3281(3) -0.0599(4) 0.82265(9)
H35G H 1.2842 -0.1111 0.8212
C44G C 1.2986(4) 0.0270(4) 0.83371(9)
H36G H 1.2347 0.0344 0.8398
C45G C 1.3610(4) 0.1015(4) 0.83590(10)
H37G H 1.3401 0.1607 0.8431
C46G C 1.4557(4) 0.0905(3) 0.82746(9)
H38G H 1.4993 0.1419 0.8291
C47G C 1.4855(3) 0.0038(3) 0.81667(8)
H39G H 1.5500 -0.0040 0.8112
C48G C 1.5588(3) -0.2288(3) 0.76543(9)
C49G C 1.5780(3) -0.1620(3) 0.74500(8)
H40G H 1.5462 -0.1022 0.7452
C50G C 1.6426(4) -0.1821(4) 0.72461(9)
H41G H 1.6543 -0.1365 0.7108
C51G C 1.6903(3) -0.2684(4) 0.72436(10)
H42G H 1.7354 -0.2820 0.7105
C52G C 1.6716(4) -0.3350(4) 0.74442(9)
H43G H 1.7041 -0.3943 0.7443
C53G C 1.6069(3) -0.3162(3) 0.76444(9)
H44G H 1.5944 -0.3631 0.7779
C54G C 1.4253(3) -0.3308(3) 0.81818(9)
C55G C 1.4475(3) -0.3430(3) 0.84547(9)
H45G H 1.4833 -0.2956 0.8547
C56G C 1.4178(3) -0.4235(4) 0.85938(9)
H46G H 1.4338 -0.4311 0.8780
C57G C 1.3650(3) -0.4930(3) 0.84622(10)
H47G H 1.3435 -0.5475 0.8558
C58G C 1.3438(3) -0.4823(3) 0.81899(10)
H48G H 1.3087 -0.5303 0.8098
C59G C 1.3736(3) -0.4016(3) 0.80508(9)
H49G H 1.3585 -0.3946 0.7864
loop_
_geom_bond_atom_site_label_1
_geom_bond_atom_site_label_2
_geom_bond_site_symmetry_1
_geom_bond_site_symmetry_2
Sn1 O1 1_555 1_555
Sn2 O3 1_555 1_555
Sn3 O5 1_555 1_555
O1 C1 1_555 1_555
O2 C1 1_555 1_555
O3 C3 1_555 1_555
O4 C3 1_555 1_555
O5 C5 1_555 1_555
O6 Sn2 1_555 1_555
C1 C2 1_555 1_555
C2 H1 1_555 1_555
H2 C2 1_555 1_555
C3 C2 1_555 1_555
C4 H3 1_555 1_555
H4 C4 1_555 1_555
C5 O6 1_555 1_555
C6 Sn1 1_555 1_555
C7 C6 1_555 1_555
H5 C7 1_555 1_555
C8 C7 1_555 1_555
H6 C8 1_555 1_555
C9 C8 1_555 1_555
H7 C9 1_555 1_555
C10 C9 1_555 1_555
H8 C10 1_555 1_555
C11 C6 1_555 1_555
H9 C11 1_555 1_555
C12 Sn1 1_555 1_555
C13 C12 1_555 1_555
H10 C13 1_555 1_555
C14 C13 1_555 1_555
H11 C14 1_555 1_555
C15 C14 1_555 1_555
H12 C15 1_555 1_555
C16 C15 1_555 1_555
H13 C16 1_555 1_555
C17 C12 1_555 1_555
H14 C17 1_555 1_555
C18 Sn1 1_555 1_555
C19 C18 1_555 1_555
H15 C19 1_555 1_555
C20 C19 1_555 1_555
H16 C20 1_555 1_555
C21 C20 1_555 1_555
H17 C21 1_555 1_555
C22 C21 1_555 1_555
H18 C22 1_555 1_555
C23 C18 1_555 1_555
H19 C23 1_555 1_555
C24 Sn2 1_555 1_555
C25 C24 1_555 1_555
H20 C25 1_555 1_555
C26 C25 1_555 1_555
H21 C26 1_555 1_555
C27 C26 1_555 1_555
H22 C27 1_555 1_555
C28 C27 1_555 1_555
H23 C28 1_555 1_555
C29 C24 1_555 1_555
H24 C29 1_555 1_555
C30 Sn2 1_555 1_555
C31 C30 1_555 1_555
H25 C31 1_555 1_555
C32 C31 1_555 1_555
H26 C32 1_555 1_555
C33 C32 1_555 1_555
H27 C33 1_555 1_555
C34 C33 1_555 1_555
H28 C34 1_555 1_555
C35 C30 1_555 1_555
H29 C35 1_555 1_555
C36 Sn2 1_555 1_555
C37 C36 1_555 1_555
H30 C37 1_555 1_555
C38 C37 1_555 1_555
H31 C38 1_555 1_555
C39 C38 1_555 1_555
H32 C39 1_555 1_555
C40 C39 1_555 1_555
H33 C40 1_555 1_555
C41 C36 1_555 1_555
H34 C41 1_555 1_555
C42 Sn3 1_555 1_555
C43 C42 1_555 1_555
H35 C43 1_555 1_555
C44 C43 1_555 1_555
H36 C44 1_555 1_555
C45 C44 1_555 1_555
H37 C45 1_555 1_555
C46 C45 1_555 1_555
H38 C46 1_555 1_555
C47 C42 1_555 1_555
H39 C47 1_555 1_555
C48 Sn3 1_555 1_555
C49 C48 1_555 1_555
H40 C49 1_555 1_555
C50 C49 1_555 1_555
H41 C50 1_555 1_555
C51 C50 1_555 1_555
H42 C51 1_555 1_555
C52 C51 1_555 1_555
H43 C52 1_555 1_555
C53 C48 1_555 1_555
H44 C53 1_555 1_555
C54 Sn3 1_555 1_555
C55 C54 1_555 1_555
H45 C55 1_555 1_555
C56 C55 1_555 1_555
H46 C56 1_555 1_555
C57 C56 1_555 1_555
H47 C57 1_555 1_555
C58 C57 1_555 1_555
H48 C58 1_555 1_555
C59 C54 1_555 1_555
H49 C59 1_555 1_555
Sn1F O1F 1_555 1_555
Sn1F_2 O4 1_555 1_555
Sn2F O3F 1_555 1_555
Sn2G O6G 1_555 1_555
Sn3G O5G 1_555 1_555
O1F C1F 1_555 1_555
O2F C1F 1_555 1_555
O3F C3F 1_555 1_555
O4F Sn1 1_555 1_555
O4_2 Sn1F 1_555 1_555
O5G C5G 1_555 1_555
O6G C5G 1_555 1_555
O6F Sn2F 1_555 1_555
C1F C2F 1_555 1_555
C2F H1F 1_555 1_555
H2F C2F 1_555 1_555
C3F O4F 1_555 1_555
C5G C4 1_555 1_555
C6F Sn1F 1_555 1_555
C7F C6F 1_555 1_555
H5F C7F 1_555 1_555
C8F C7F 1_555 1_555
H6F C8F 1_555 1_555
C9F C8F 1_555 1_555
H7F C9F 1_555 1_555
C10F C9F 1_555 1_555
H8F C10F 1_555 1_555
C11F C6F 1_555 1_555
H9F C11F 1_555 1_555
C12F Sn1F 1_555 1_555
C13F C12F 1_555 1_555
H10F C13F 1_555 1_555
C14F C13F 1_555 1_555
H11F C14F 1_555 1_555
C15F C14F 1_555 1_555
H12F C15F 1_555 1_555
C16F C15F 1_555 1_555
H13F C16F 1_555 1_555
C17F C12F 1_555 1_555
H14F C17F 1_555 1_555
C18F Sn1F 1_555 1_555
C19F C18F 1_555 1_555
H15F C19F 1_555 1_555
C20F C19F 1_555 1_555
H16F C20F 1_555 1_555
C21F C20F 1_555 1_555
H17F C21F 1_555 1_555
C22F C21F 1_555 1_555
H18F C22F 1_555 1_555
C23F C18F 1_555 1_555
H19F C23F 1_555 1_555
C24F Sn2F 1_555 1_555
C25F C24F 1_555 1_555
H20F C25F 1_555 1_555
C26F C25F 1_555 1_555
H21F C26F 1_555 1_555
C27F C26F 1_555 1_555
H22F C27F 1_555 1_555
C28F C27F 1_555 1_555
H23F C28F 1_555 1_555
C29F C24F 1_555 1_555
H24F C29F 1_555 1_555
C30F Sn2F 1_555 1_555
C31F C30F 1_555 1_555
H25F C31F 1_555 1_555
C32F C31F 1_555 1_555
H26F C32F 1_555 1_555
C33F C32F 1_555 1_555
H27F C33F 1_555 1_555
C34F C33F 1_555 1_555
H28F C34F 1_555 1_555
C35F C30F 1_555 1_555
H29F C35F 1_555 1_555
C36F Sn2F 1_555 1_555
C37F C36F 1_555 1_555
H30F C37F 1_555 1_555
C38F C37F 1_555 1_555
H31F C38F 1_555 1_555
C39F C38F 1_555 1_555
H32F C39F 1_555 1_555
C40F C39F 1_555 1_555
H33F C40F 1_555 1_555
C41F C36F 1_555 1_555
H34F C41F 1_555 1_555
C42G Sn3G 1_555 1_555
C43G C42G 1_555 1_555
H35G C43G 1_555 1_555
C44G C43G 1_555 1_555
H36G C44G 1_555 1_555
C45G C44G 1_555 1_555
H37G C45G 1_555 1_555
C46G C45G 1_555 1_555
H38G C46G 1_555 1_555
C47G C42G 1_555 1_555
H39G C47G 1_555 1_555
C48G Sn3G 1_555 1_555
C49G C48G 1_555 1_555
H40G C49G 1_555 1_555
C50G C49G 1_555 1_555
H41G C50G 1_555 1_555
C51G C50G 1_555 1_555
H42G C51G 1_555 1_555
C52G C51G 1_555 1_555
H43G C52G 1_555 1_555
C53G C48G 1_555 1_555
H44G C53G 1_555 1_555
C54G Sn3G 1_555 1_555
C55G C54G 1_555 1_555
H45G C55G 1_555 1_555
C56G C55G 1_555 1_555
H46G C56G 1_555 1_555
C57G C56G 1_555 1_555
H47G C57G 1_555 1_555
C58G C57G 1_555 1_555
H48G C58G 1_555 1_555
C59G C54G 1_555 1_555
H49G C59G 1_555 1_555
C4 C5 1_555 1_555
C10 C11 1_555 1_555
C16 C17 1_555 1_555
C22 C23 1_555 1_555
C28 C29 1_555 1_555
C34 C35 1_555 1_555
C40 C41 1_555 1_555
C46 C47 1_555 1_555
C52 C53 1_555 1_555
C58 C59 1_555 1_555
C2F C3F 1_555 1_555
C10F C11F 1_555 1_555
C16F C17F 1_555 1_555
C22F C23F 1_555 1_555
C28F C29F 1_555 1_555
C34F C35F 1_555 1_555
C40F C41F 1_555 1_555
C46G C47G 1_555 1_555
C52G C53G 1_555 1_555
C58G C59G 1_555 1_555

#END
