
#######################################################################
#
#                 Cambridge Crystallographic Data Centre
#                                CCDC 
#
#######################################################################
#
# If this CIF has been generated from an entry in the Cambridge 
# Structural Database, then it will include bibliographic, chemical, 
# crystal, experimental, refinement or atomic coordinate data resulting 
# from the CCDC's data processing and validation procedures.
#
#######################################################################

data_LALHEN
_symmetry_cell_setting           monoclinic
_symmetry_space_group_name_H-M   'P 21/c'
_symmetry_Int_Tables_number      14
_space_group_name_Hall           '-P 2ybc'
loop_
_symmetry_equiv_pos_site_id
_symmetry_equiv_pos_as_xyz
1 x,y,z
2 -x,1/2+y,1/2-z
3 -x,-y,-z
4 x,1/2-y,1/2+z
_cell_length_a                   14.646(3)
_cell_length_b                   9.3218(19)
_cell_length_c                   13.855(3)
_cell_angle_alpha                90
_cell_angle_beta                 108.49(3)
_cell_angle_gamma                90
_cell_volume                     1793.94
loop_
_atom_site_label
_atom_site_type_symbol
_atom_site_fract_x
_atom_site_fract_y
_atom_site_fract_z
Cd1 Cd 0.244754(11) 0.687474(19) 0.002605(12)
N1 N 0.40021(14) 0.7090(2) -0.01366(16)
N2 N 0.26593(13) 0.5235(2) -0.11983(15)
N3 N -0.02203(14) 0.2724(2) -0.15124(15)
O1 O 0.09837(13) 0.5110(2) -0.08663(15)
C1 C 0.03913(17) 0.3222(3) -0.20893(19)
H1 H -0.0003 0.3677 -0.2712
H2 H 0.0714 0.2408 -0.2274
N4 N 0.19687(14) 0.4265(2) -0.16940(15)
H3 H 0.2063 0.3668 -0.2126
C2 C 0.34357(17) 0.5304(3) -0.14241(18)
H4 H 0.3523 0.4727 -0.1936
C3 C 0.11377(17) 0.4283(3) -0.14763(17)
C4 C 0.46792(19) 0.7997(3) 0.0391(2)
H5 H 0.4556 0.8555 0.0892
C5 C 0.41876(17) 0.6300(3) -0.08685(18)
C6 C 0.50432(18) 0.6404(3) -0.1079(2)
H6 H 0.5152 0.5847 -0.1588
C7 C 0.5560(2) 0.8145(3) 0.0225(2)
H7 H 0.6021 0.8777 0.0615
C8 C 0.57356(19) 0.7347(3) -0.0521(2)
H8 H 0.6317 0.7438 -0.0653
O2 O 0.29592(14) 0.5148(2) 0.13556(14)
O3 O 0.25926(14) 0.9597(2) -0.00905(16)
N5 N -0.12700(14) 0.2593(2) -0.07120(16)
N6 N 0.34538(16) 0.5961(3) 0.20709(17)
O4 O 0.34775(16) 0.7261(2) 0.18825(15)
O5 O 0.17534(15) 0.8390(2) -0.13819(16)
N7 N 0.21094(16) 0.9584(3) -0.1014(2)
C9 C -0.0890(2) 0.3402(3) -0.1257(2)
H9 H -0.1074 0.4344 -0.1440
O6 O 0.19715(19) 1.0651(3) -0.1554(2)
O7 O 0.3877(2) 0.5439(3) 0.28998(17)
N8 N -0.0132(2) 0.1401(3) -0.1123(3)
C10 C -0.0777(3) 0.1392(3) -0.0649(3)
H10 H -0.0880 0.0595 -0.0294
Cd1B Cd -0.244754(11) 0.312526(19) -0.002605(12)
N5B N 0.12700(14) 0.7407(2) 0.07120(16)
O8 O 0.24298(19) 0.2579(2) -0.30921(17)
H11 H 0.2631 0.1718 -0.3047
C11 C 0.1702(3) 0.2608(4) -0.4030(3)
H12 H 0.1434 0.3556 -0.4146
H13 H 0.1207 0.1935 -0.4024
H14 H 0.1961 0.2359 -0.4563
loop_
_geom_bond_atom_site_label_1
_geom_bond_atom_site_label_2
_geom_bond_site_symmetry_1
_geom_bond_site_symmetry_2
Cd1 N1 1_555 1_555
N1 C4 1_555 1_555
N2 Cd1 1_555 1_555
N3 C1 1_555 1_555
O1 C3 1_555 1_555
C1 H1 1_555 1_555
H2 C1 1_555 1_555
N4 N2 1_555 1_555
H3 N4 1_555 1_555
C2 N2 1_555 1_555
H4 C2 1_555 1_555
C3 C1 1_555 1_555
C4 H5 1_555 1_555
C5 N1 1_555 1_555
C6 C5 1_555 1_555
H6 C6 1_555 1_555
C7 C4 1_555 1_555
H7 C7 1_555 1_555
C8 C6 1_555 1_555
H8 C8 1_555 1_555
O2 Cd1 1_555 1_555
O3 Cd1 1_555 1_555
N5 C9 1_555 1_555
N6 O2 1_555 1_555
O4 Cd1 1_555 1_555
O5 Cd1 1_555 1_555
N7 O3 1_555 1_555
C9 N3 1_555 1_555
H9 C9 1_555 1_555
O6 N7 1_555 1_555
O7 N6 1_555 1_555
N8 N3 1_555 1_555
C10 N5 1_555 1_555
H10 C10 1_555 1_555
O8 H11 1_555 1_555
C11 O8 1_555 1_555
H12 C11 1_555 1_555
H13 C11 1_555 1_555
H14 C11 1_555 1_555
Cd1B N5 1_555 1_555
N5B Cd1 1_555 1_555
N4 C3 1_555 1_555
C2 C5 1_555 1_555
C7 C8 1_555 1_555
N6 O4 1_555 1_555
O5 N7 1_555 1_555
N8 C10 1_555 1_555

#END
