
#######################################################################
#
#                 Cambridge Crystallographic Data Centre
#                                CCDC 
#
#######################################################################
#
# If this CIF has been generated from an entry in the Cambridge 
# Structural Database, then it will include bibliographic, chemical, 
# crystal, experimental, refinement or atomic coordinate data resulting 
# from the CCDC's data processing and validation procedures.
#
#######################################################################

data_LALNET
_symmetry_cell_setting           monoclinic
_symmetry_space_group_name_H-M   'P 21/c'
_symmetry_Int_Tables_number      14
_space_group_name_Hall           '-P 2ybc'
loop_
_symmetry_equiv_pos_site_id
_symmetry_equiv_pos_as_xyz
1 x,y,z
2 -x,1/2+y,1/2-z
3 -x,-y,-z
4 x,1/2-y,1/2+z
_cell_length_a                   14.3545(13)
_cell_length_b                   8.5015(8)
_cell_length_c                   16.4308(15)
_cell_angle_alpha                90
_cell_angle_beta                 93.5700(10)
_cell_angle_gamma                90
_cell_volume                     2001.24
loop_
_atom_site_label
_atom_site_type_symbol
_atom_site_fract_x
_atom_site_fract_y
_atom_site_fract_z
Ni1 Ni 0.779354(15) 0.52439(3) 0.682570(13)
O1 O 0.83867(9) 0.40987(15) 0.78738(7)
O2 O 0.86363(11) 0.60356(16) 0.87839(8)
H1 H 0.8529 0.6582 0.8378
O3 O 0.83510(9) 0.73868(16) 0.73175(8)
O4 O 0.92692(12) 0.9354(2) 0.75916(11)
O5 O 0.92695(11) 0.82413(18) 0.64123(9)
O6 O 0.67099(9) 0.59140(16) 0.75117(8)
H2 H 0.6512 0.5144 0.7747
H3 H 0.6281 0.6413 0.7273
N1 N 0.90511(10) 0.02491(19) 1.12316(9)
H4 H 0.9474 0.0630 1.1608
H5 H 0.9276 -0.0667 1.1052
N2 N 0.71075(10) 0.32325(18) 0.64659(9)
N3 N 0.71458(10) 0.60202(18) 0.57553(9)
N4 N 0.89855(11) 0.83407(19) 0.71043(10)
C1 C 0.85719(12) 0.4539(2) 0.85795(11)
C2 C 0.87233(12) 0.3432(2) 0.92680(10)
C3 C 0.86674(13) 0.1821(2) 0.91317(11)
H6 H 0.8541 0.1447 0.8604
C4 C 0.87970(13) 0.0765(2) 0.97697(11)
H7 H 0.8758 -0.0311 0.9671
C5 C 0.89858(12) 0.1323(2) 1.05612(10)
C6 C 0.90578(13) 0.2929(2) 1.06991(11)
H8 H 0.9194 0.3301 1.1225
C7 C 0.89288(13) 0.3979(2) 1.00616(11)
H9 H 0.8979 0.5054 1.0160
C8 C 0.70791(14) 0.1886(2) 0.68844(12)
H10 H 0.7449 0.1793 0.7367
C9 C 0.65289(16) 0.0633(3) 0.66339(14)
H11 H 0.6525 -0.0287 0.6940
C10 C 0.59832(16) 0.0772(3) 0.59173(14)
H12 H 0.5601 -0.0055 0.5734
C11 C 0.60074(14) 0.2150(3) 0.54726(13)
H13 H 0.5648 0.2254 0.4985
C12 C 0.65726(12) 0.3372(2) 0.57608(11)
C13 C 0.66271(12) 0.4911(2) 0.53449(11)
C14 C 0.61880(15) 0.5223(3) 0.45866(12)
H14 H 0.5837 0.4448 0.4311
C15 C 0.62771(15) 0.6693(3) 0.42456(13)
H15 H 0.5992 0.6916 0.3735
C16 C 0.67917(15) 0.7827(3) 0.46674(13)
H16 H 0.6852 0.8831 0.4452
C17 C 0.72158(13) 0.7442(2) 0.54158(12)
H17 H 0.7568 0.8207 0.5699
Ni1C Ni 0.779354(15) -0.02439(3) 1.182570(13)
N1C N 0.90511(10) 0.47509(19) 0.62316(9)
O7 O 0.52650(10) 0.72378(18) 0.64966(9)
O8 O 0.39810(11) 0.8558(2) 0.65256(9)
O9 O 0.49147(12) 0.8441(2) 0.75943(9)
N5 N 0.47217(11) 0.8069(2) 0.68802(10)
loop_
_geom_bond_atom_site_label_1
_geom_bond_atom_site_label_2
_geom_bond_site_symmetry_1
_geom_bond_site_symmetry_2
Ni1 O1 1_555 1_555
O1 C1 1_555 1_555
O2 H1 1_555 1_555
O3 Ni1 1_555 1_555
O4 N4 1_555 1_555
O5 N4 1_555 1_555
O6 Ni1 1_555 1_555
H2 O6 1_555 1_555
H3 O6 1_555 1_555
N1 H4 1_555 1_555
H5 N1 1_555 1_555
N2 Ni1 1_555 1_555
N3 Ni1 1_555 1_555
N4 O3 1_555 1_555
C1 O2 1_555 1_555
C2 C1 1_555 1_555
C3 C2 1_555 1_555
H6 C3 1_555 1_555
C4 C3 1_555 1_555
H7 C4 1_555 1_555
C5 N1 1_555 1_555
C6 C5 1_555 1_555
H8 C6 1_555 1_555
C7 C2 1_555 1_555
H9 C7 1_555 1_555
C8 N2 1_555 1_555
H10 C8 1_555 1_555
C9 C8 1_555 1_555
H11 C9 1_555 1_555
C10 C9 1_555 1_555
H12 C10 1_555 1_555
C11 C10 1_555 1_555
H13 C11 1_555 1_555
C12 N2 1_555 1_555
C13 N3 1_555 1_555
C14 C13 1_555 1_555
H14 C14 1_555 1_555
C15 C14 1_555 1_555
H15 C15 1_555 1_555
C16 C15 1_555 1_555
H16 C16 1_555 1_555
C17 N3 1_555 1_555
H17 C17 1_555 1_555
O7 N5 1_555 1_555
O8 N5 1_555 1_555
O9 N5 1_555 1_555
Ni1C N1 1_555 1_555
N1C Ni1 1_555 1_555
C4 C5 1_555 1_555
C6 C7 1_555 1_555
C11 C12 1_555 1_555
C12 C13 1_555 1_555
C16 C17 1_555 1_555

#END
