
#######################################################################
#
#                 Cambridge Crystallographic Data Centre
#                                CCDC 
#
#######################################################################
#
# If this CIF has been generated from an entry in the Cambridge 
# Structural Database, then it will include bibliographic, chemical, 
# crystal, experimental, refinement or atomic coordinate data resulting 
# from the CCDC's data processing and validation procedures.
#
#######################################################################

data_LALXAY
_symmetry_cell_setting           monoclinic
_symmetry_space_group_name_H-M   'P 21/n'
_symmetry_Int_Tables_number      14
_space_group_name_Hall           '-P 2yn'
loop_
_symmetry_equiv_pos_site_id
_symmetry_equiv_pos_as_xyz
1 x,y,z
2 1/2-x,1/2+y,1/2-z
3 -x,-y,-z
4 1/2+x,1/2-y,1/2+z
_cell_length_a                   10.0681(2)
_cell_length_b                   16.4467(2)
_cell_length_c                   15.7838(3)
_cell_angle_alpha                90
_cell_angle_beta                 100.0460(10)
_cell_angle_gamma                90
_cell_volume                     2573.52
loop_
_atom_site_label
_atom_site_type_symbol
_atom_site_fract_x
_atom_site_fract_y
_atom_site_fract_z
Mo1 Mo 0.54498(4) 0.04400(2) 0.10608(3)
Mo2 Mo 0.26219(4) -0.06619(3) 0.13894(3)
Mo3 Mo 0.49535(4) -0.16560(3) 0.05649(3)
Mo4 Mo 0.77312(4) -0.05375(2) 0.02944(3)
Co1 Co 1.01122(6) -0.22707(4) 0.08778(4)
O1 O 0.8831(3) 0.0108(2) 0.0882(2)
O2 O 0.3779(4) -0.2250(2) -0.0050(2)
O3 O 0.2236(4) -0.0603(2) 0.2390(2)
O4 O 0.4076(3) -0.1409(2) 0.1512(2)
O5 O 0.6428(3) -0.05965(19) 0.1116(2)
O6 O 0.6137(3) 0.04249(19) -0.0143(2)
O7 O 0.6630(3) 0.1060(2) 0.1624(2)
O8 O 0.4413(3) 0.0161(2) 0.1799(2)
O9 O 0.6160(4) -0.2319(2) 0.1025(3)
O10 O 0.4219(3) 0.1205(2) 0.0400(2)
O11 O 0.8474(3) -0.1490(2) 0.0460(2)
O12 O 0.1995(3) 0.0332(2) 0.0843(2)
O13 O 0.1401(3) -0.1297(2) 0.0827(2)
C1 C 0.8303(6) -0.3665(3) 0.1327(4)
H1 H 0.8330 -0.3388 0.1844
C2 C 0.7576(7) -0.4390(4) 0.1198(4)
H2 H 0.7135 -0.4600 0.1621
C3 C 0.7534(7) -0.4785(4) 0.0427(4)
H3 H 0.7042 -0.5264 0.0319
C4 C 0.8218(6) -0.4476(3) -0.0190(4)
H4 H 0.8190 -0.4740 -0.0714
C5 C 0.8942(5) -0.3766(3) -0.0011(3)
C6 C 0.9748(5) -0.3391(3) -0.0619(3)
C7 C 1.0027(5) -0.3783(4) -0.1347(3)
H5 H 0.9683 -0.4298 -0.1494
C8 C 1.0829(5) -0.3389(4) -0.1852(3)
H6 H 1.1055 -0.3645 -0.2333
C9 C 1.1284(5) -0.2618(4) -0.1632(3)
H7 H 1.1790 -0.2336 -0.1976
C10 C 1.0982(5) -0.2266(4) -0.0896(3)
H8 H 1.1305 -0.1747 -0.0747
C11 C 0.9261(6) -0.1551(4) 0.2503(4)
H9 H 0.8555 -0.1317 0.2122
C12 C 0.9397(7) -0.1370(4) 0.3368(4)
H10 H 0.8793 -0.1019 0.3565
C13 C 1.0432(7) -0.1714(4) 0.3933(4)
H11 H 1.0542 -0.1595 0.4517
C14 C 1.1303(6) -0.2233(4) 0.3631(4)
H12 H 1.1999 -0.2480 0.4009
C15 C 1.1135(5) -0.2387(3) 0.2747(3)
C16 C 1.2044(5) -0.2924(3) 0.2364(3)
C17 C 1.3090(6) -0.3361(3) 0.2852(4)
H13 H 1.3229 -0.3337 0.3450
C18 C 1.3914(6) -0.3828(4) 0.2442(4)
H14 H 1.4621 -0.4121 0.2759
C19 C 1.3683(6) -0.3858(4) 0.1559(5)
H15 H 1.4233 -0.4170 0.1271
C20 C 1.2621(5) -0.3416(3) 0.1103(4)
H16 H 1.2469 -0.3437 0.0505
N1 N 0.8964(4) -0.3353(3) 0.0735(3)
N2 N 1.0242(4) -0.2641(3) -0.0387(2)
N3 N 1.0107(4) -0.2052(3) 0.2192(3)
N4 N 1.1808(4) -0.2962(3) 0.1495(3)
Mo1B Mo 0.45502(4) -0.04400(2) -0.10608(3)
Mo3B Mo 0.50465(4) 0.16560(3) -0.05649(3)
Mo4B Mo 0.22688(4) 0.05375(2) -0.02944(3)
Co1_2 Co 0.01122(6) -0.22707(4) 0.08778(4)
O6B O 0.3863(3) -0.04249(19) 0.0143(2)
O10B O 0.5781(3) -0.1205(2) -0.0400(2)
O12B O 0.8005(3) -0.0332(2) -0.0843(2)
O13_2 O 1.1401(3) -0.1297(2) 0.0827(2)
loop_
_geom_bond_atom_site_label_1
_geom_bond_atom_site_label_2
_geom_bond_site_symmetry_1
_geom_bond_site_symmetry_2
Mo1 O5 1_555 1_555
Mo2 O3 1_555 1_555
Mo3 O2 1_555 1_555
Mo4 O1 1_555 1_555
Co1 O11 1_555 1_555
O4 Mo2 1_555 1_555
O5 Mo3 1_555 1_555
O6 Mo1 1_555 1_555
O7 Mo1 1_555 1_555
O8 Mo1 1_555 1_555
O9 Mo3 1_555 1_555
O10 Mo1 1_555 1_555
O11 Mo4 1_555 1_555
O12 Mo2 1_555 1_555
O13 Mo2 1_555 1_555
C1 H1 1_555 1_555
C2 C1 1_555 1_555
H2 C2 1_555 1_555
C3 C2 1_555 1_555
H3 C3 1_555 1_555
C4 C3 1_555 1_555
H4 C4 1_555 1_555
C5 C4 1_555 1_555
C6 C5 1_555 1_555
C7 C6 1_555 1_555
H5 C7 1_555 1_555
C8 C7 1_555 1_555
H6 C8 1_555 1_555
C9 C8 1_555 1_555
H7 C9 1_555 1_555
C10 C9 1_555 1_555
H8 C10 1_555 1_555
C11 H9 1_555 1_555
C12 C11 1_555 1_555
H10 C12 1_555 1_555
C13 C12 1_555 1_555
H11 C13 1_555 1_555
C14 C13 1_555 1_555
H12 C14 1_555 1_555
C15 C14 1_555 1_555
C16 C15 1_555 1_555
C17 C16 1_555 1_555
H13 C17 1_555 1_555
C18 C17 1_555 1_555
H14 C18 1_555 1_555
C19 C18 1_555 1_555
H15 C19 1_555 1_555
C20 C19 1_555 1_555
H16 C20 1_555 1_555
N1 Co1 1_555 1_555
N2 Co1 1_555 1_555
N3 Co1 1_555 1_555
N4 Co1 1_555 1_555
Mo1B O6 1_555 1_555
Mo3B O6 1_555 1_555
Mo4B O10 1_555 1_555
Co1_2 O13 1_555 1_555
O6B Mo1 1_555 1_555
O10B Mo3 1_555 1_555
O12B Mo4 1_555 1_555
O13_2 Co1 1_555 1_555
Mo2 O8 1_555 1_555
Mo3 O4 1_555 1_555
Mo3 O6B 1_555 1_555
Mo4 O5 1_555 1_555
Mo4 O6 1_555 1_555
Mo4 O10B 1_555 1_555
O10 Mo3B 1_555 1_555
O12 Mo4B 1_555 1_555
C1 N1 1_555 1_555
C5 N1 1_555 1_555
C6 N2 1_555 1_555
C10 N2 1_555 1_555
C11 N3 1_555 1_555
C15 N3 1_555 1_555
C16 N4 1_555 1_555
C20 N4 1_555 1_555
Mo1B O6B 1_555 1_555
Mo1B O10B 1_555 1_555
Mo4B O6B 1_555 1_555

#END
