
#######################################################################
#
#                 Cambridge Crystallographic Data Centre
#                                CCDC 
#
#######################################################################
#
# If this CIF has been generated from an entry in the Cambridge 
# Structural Database, then it will include bibliographic, chemical, 
# crystal, experimental, refinement or atomic coordinate data resulting 
# from the CCDC's data processing and validation procedures.
#
#######################################################################

data_LALYEE
_symmetry_cell_setting           orthorhombic
_symmetry_space_group_name_H-M   'P c c n'
_symmetry_Int_Tables_number      56
_space_group_name_Hall           '-P 2ab 2ac'
loop_
_symmetry_equiv_pos_site_id
_symmetry_equiv_pos_as_xyz
1 x,y,z
2 1/2-x,1/2-y,z
3 -x,1/2+y,1/2-z
4 1/2+x,-y,1/2-z
5 -x,-y,-z
6 1/2+x,1/2+y,-z
7 x,1/2-y,1/2+z
8 1/2-x,y,1/2+z
_cell_length_a                   11.9673(13)
_cell_length_b                   18.139(2)
_cell_length_c                   8.9259(9)
_cell_angle_alpha                90
_cell_angle_beta                 90
_cell_angle_gamma                90
_cell_volume                     1937.59
loop_
_atom_site_label
_atom_site_type_symbol
_atom_site_fract_x
_atom_site_fract_y
_atom_site_fract_z
Zn1 Zn 0.78686(3) 0.617685(18) 0.06334(4)
Cl1 Cl 0.95582(6) 0.60838(4) -0.03469(8)
S1 S 1.08065(6) 0.71775(4) 0.41949(10)
O1 O 0.79275(15) 0.64474(12) 0.2784(2)
O2 O 0.83966(16) 0.68083(11) 0.5029(2)
N1 N 1.21759(18) 0.48441(14) 0.4298(2)
C1 C 1.1269(2) 0.62654(15) 0.4188(3)
C2 C 1.0730(2) 0.56699(16) 0.3535(3)
H1 H 1.0055 0.5737 0.3038
C3 C 1.1196(2) 0.49823(16) 0.3626(3)
H2 H 1.0812 0.4589 0.3197
C4 C 1.2696(3) 0.54185(17) 0.4927(4)
H3 H 1.3378 0.5337 0.5397
C5 C 1.2273(3) 0.61209(17) 0.4916(5)
H4 H 1.2657 0.6500 0.5393
C6 C 0.9587(2) 0.71605(15) 0.3018(3)
H5 H 0.9384 0.7665 0.2785
H6 H 0.9785 0.6921 0.2083
C7 C 0.8579(2) 0.67803(14) 0.3646(3)
Zn1G Zn 0.71314(3) 0.617685(18) 0.56334(4)
Zn1C Zn 1.28686(3) 0.382315(18) 0.43666(4)
O2G O 0.66034(16) 0.68083(11) 0.0029(2)
N1C N 0.71759(18) 0.51559(14) 0.0702(2)
loop_
_geom_bond_atom_site_label_1
_geom_bond_atom_site_label_2
_geom_bond_site_symmetry_1
_geom_bond_site_symmetry_2
Zn1 Cl1 1_555 1_555
S1 C1 1_555 1_555
O1 Zn1 1_555 1_555
O2 C7 1_555 1_555
N1 C3 1_555 1_555
C1 C2 1_555 1_555
C2 H1 1_555 1_555
C3 C2 1_555 1_555
H2 C3 1_555 1_555
C4 N1 1_555 1_555
H3 C4 1_555 1_555
C5 C1 1_555 1_555
H4 C5 1_555 1_555
C6 S1 1_555 1_555
H5 C6 1_555 1_555
H6 C6 1_555 1_555
C7 O1 1_555 1_555
Zn1G O2 1_555 1_555
Zn1C N1 1_555 1_555
O2G Zn1 1_555 1_555
N1C Zn1 1_555 1_555
C4 C5 1_555 1_555
C6 C7 1_555 1_555

#END
