
#######################################################################
#
#                 Cambridge Crystallographic Data Centre
#                                CCDC 
#
#######################################################################
#
# If this CIF has been generated from an entry in the Cambridge 
# Structural Database, then it will include bibliographic, chemical, 
# crystal, experimental, refinement or atomic coordinate data resulting 
# from the CCDC's data processing and validation procedures.
#
#######################################################################

data_LAMCEJ
_symmetry_cell_setting           monoclinic
_symmetry_space_group_name_H-M   'P 21/c'
_symmetry_Int_Tables_number      14
_space_group_name_Hall           '-P 2ybc'
loop_
_symmetry_equiv_pos_site_id
_symmetry_equiv_pos_as_xyz
1 x,y,z
2 -x,1/2+y,1/2-z
3 -x,-y,-z
4 x,1/2-y,1/2+z
_cell_length_a                   12.0121(15)
_cell_length_b                   31.327(4)
_cell_length_c                   8.8522(11)
_cell_angle_alpha                90
_cell_angle_beta                 109.794(2)
_cell_angle_gamma                90
_cell_volume                     3134.3
loop_
_atom_site_label
_atom_site_type_symbol
_atom_site_fract_x
_atom_site_fract_y
_atom_site_fract_z
Ba1 Ba 0.077157(18) 0.153048(7) 1.03108(3)
N1 N 0.3993(2) 0.06201(9) 0.7553(3)
N2 N 0.5766(2) 0.05182(8) 0.6942(3)
N3 N 0.4753(2) -0.00826(8) 0.7520(4)
N4 N 0.5510(2) 0.19562(9) 1.1397(3)
N5 N 0.6286(2) 0.26254(8) 1.2581(3)
N6 N 0.7235(2) 0.19776(9) 1.3776(3)
O1 O 0.0682(2) 0.06856(8) 0.9643(3)
O2 O 0.0784(2) -0.00142(8) 0.9373(3)
H1 H 0.036(6) -0.002(3) 0.993(9)
O3 O 0.7295(2) 0.11543(9) 0.9399(3)
H2 H 0.786(3) 0.1089(13) 1.014(5)
O4 O 0.8463(2) 0.13556(8) 0.8035(3)
O5 O 0.9306(2) 0.01671(9) 0.5579(4)
H3 H 0.964(7) 0.004(3) 0.514(14)
O6 O 0.8644(2) -0.04850(8) 0.5818(3)
O7 O 0.3066(2) 0.12910(8) 1.0594(3)
O8 O 0.4237(2) 0.12727(9) 1.3163(3)
H4 H 0.365(3) 0.1298(13) 1.336(5)
O9 O 0.2043(2) 0.22045(8) 0.6214(3)
H5 H 0.156(2) 0.2331(10) 0.544(3)
O10 O 0.26460(19) 0.28645(7) 0.7069(3)
O11 O 1.01939(19) 0.29700(8) 1.7561(3)
O12 O 1.05917(19) 0.23723(7) 1.9009(3)
O13 O -0.0663(3) 0.09963(9) 1.1659(4)
H6 H -0.043(4) 0.0759(12) 1.161(5)
H7 H -0.066(4) 0.1083(13) 1.253(5)
O14 O 0.1031(3) 0.14914(10) 0.7358(4)
H8 H 0.129(4) 0.1655(15) 0.711(6)
H9 H 0.062(4) 0.1360(14) 0.660(5)
O15 O 0.2090(3) 0.13025(10) 1.3599(4)
H10 H 0.192(3) 0.1049(12) 1.388(5)
H11 H 0.195(4) 0.1451(13) 1.422(5)
S1 S 0.28504(8) -0.00351(3) 0.83175(12)
S2 S 0.49911(7) 0.13120(3) 0.70131(11)
S3 S 0.66682(8) -0.02503(3) 0.68310(13)
S4 S 0.64958(8) 0.12200(3) 1.26428(11)
S5 S 0.45008(7) 0.26820(3) 0.99492(11)
S6 S 0.80576(8) 0.27281(3) 1.51962(11)
C1 C 0.3965(3) 0.01983(11) 0.7725(4)
C2 C 0.4920(3) 0.07579(10) 0.7174(4)
C3 C 0.5630(3) 0.01004(11) 0.7133(4)
C4 C 0.1986(3) 0.04358(12) 0.8377(5)
H14 H 0.249(3) 0.0624(10) 0.890(4)
H15 H 0.155(3) 0.0484(10) 0.727(4)
C5 C 0.1098(3) 0.03703(12) 0.9203(4)
C6 C 0.6385(3) 0.13659(12) 0.6696(5)
H16 H 0.640(3) 0.1165(10) 0.580(4)
H17 H 0.641(3) 0.1652(10) 0.630(4)
C7 C 0.7488(3) 0.12912(11) 0.8118(4)
C8 C 0.7681(3) 0.01276(12) 0.6453(5)
H18 H 0.724(3) 0.0320(10) 0.573(4)
H19 H 0.808(3) 0.0265(10) 0.740(4)
C9 C 0.8596(3) -0.00955(13) 0.5910(4)
C10 C 0.6396(3) 0.17752(10) 1.2589(4)
C11 C 0.5529(3) 0.23844(11) 1.1456(4)
C12 C 0.7108(3) 0.23999(11) 1.3711(4)
C13 C 0.5078(3) 0.10894(12) 1.1190(4)
H20 H 0.501(3) 0.1199(10) 1.018(4)
H21 H 0.509(3) 0.0783(10) 1.113(4)
C14 C 0.4027(3) 0.12344(11) 1.1606(5)
C15 C 0.3621(3) 0.22688(11) 0.8658(4)
H22 H 0.413(3) 0.2094(10) 0.832(4)
H23 H 0.323(3) 0.2088(10) 0.917(4)
C16 C 0.2723(3) 0.24826(12) 0.7236(4)
C17 C 0.9051(3) 0.23452(12) 1.6485(5)
H24 H 0.867(3) 0.2166(10) 1.691(4)
H25 H 0.943(3) 0.2172(10) 1.582(4)
C18 C 1.0014(3) 0.25896(11) 1.7767(4)
Ba1_2 Ba 1.077157(18) 0.153048(7) 1.03108(3)
Ba1C Ba 0.077157(18) 0.346952(7) 0.53108(3)
Ba1C_2 Ba 1.077157(18) 0.346952(7) 1.53108(3)
Ba1_3 Ba 1.077157(18) 0.153048(7) 2.03108(3)
O4_2 O -0.1537(2) 0.13556(8) 0.8035(3)
O10C O 0.26460(19) 0.21355(7) 1.2069(3)
O11C O 0.01939(19) 0.20300(8) 1.2561(3)
O12_2 O 0.05917(19) 0.23723(7) 0.9009(3)
O16 O 0.9361(3) 0.10455(10) 0.4901(5)
H12 H 0.939(4) 0.0787(4) 0.504(6)
H13 H 0.885(3) 0.1169(15) 0.515(6)
loop_
_geom_bond_atom_site_label_1
_geom_bond_atom_site_label_2
_geom_bond_site_symmetry_1
_geom_bond_site_symmetry_2
Ba1 O1 1_555 1_555
N1 C1 1_555 1_555
N2 C2 1_555 1_555
N3 C1 1_555 1_555
N4 C10 1_555 1_555
N5 C11 1_555 1_555
N6 C10 1_555 1_555
O1 C5 1_555 1_555
O2 H1 1_555 1_555
O3 H2 1_555 1_555
O4 C7 1_555 1_555
O5 H3 1_555 1_555
O6 C9 1_555 1_555
O7 Ba1 1_555 1_555
O8 H4 1_555 1_555
O9 H5 1_555 1_555
O10 C16 1_555 1_555
O11 C18 1_555 1_555
O12 C18 1_555 1_555
O13 Ba1 1_555 1_555
H6 O13 1_555 1_555
H7 O13 1_555 1_555
O14 Ba1 1_555 1_555
H8 O14 1_555 1_555
H9 O14 1_555 1_555
O15 Ba1 1_555 1_555
H10 O15 1_555 1_555
H11 O15 1_555 1_555
O16 H12 1_555 1_555
H13 O16 1_555 1_555
S1 C1 1_555 1_555
S2 C2 1_555 1_555
S3 C3 1_555 1_555
S4 C10 1_555 1_555
S5 C11 1_555 1_555
S6 C12 1_555 1_555
C2 N1 1_555 1_555
C3 N2 1_555 1_555
C4 S1 1_555 1_555
H14 C4 1_555 1_555
H15 C4 1_555 1_555
C5 O2 1_555 1_555
C6 S2 1_555 1_555
H16 C6 1_555 1_555
H17 C6 1_555 1_555
C7 O3 1_555 1_555
C8 S3 1_555 1_555
H18 C8 1_555 1_555
H19 C8 1_555 1_555
C9 O5 1_555 1_555
C11 N4 1_555 1_555
C12 N5 1_555 1_555
C13 S4 1_555 1_555
H20 C13 1_555 1_555
H21 C13 1_555 1_555
C14 O7 1_555 1_555
C15 S5 1_555 1_555
H22 C15 1_555 1_555
H23 C15 1_555 1_555
C16 O9 1_555 1_555
C17 S6 1_555 1_555
H24 C17 1_555 1_555
H25 C17 1_555 1_555
C18 C17 1_555 1_555
Ba1_2 O4 1_555 1_555
Ba1C O10 1_555 1_555
Ba1C_2 O11 1_555 1_555
Ba1_3 O12 1_555 1_555
O4_2 Ba1 1_555 1_555
O10C Ba1 1_555 1_555
O11C Ba1 1_555 1_555
O12_2 Ba1 1_555 1_555
N3 C3 1_555 1_555
N6 C12 1_555 1_555
O8 C14 1_555 1_555
C4 C5 1_555 1_555
C6 C7 1_555 1_555
C8 C9 1_555 1_555
C13 C14 1_555 1_555
C15 C16 1_555 1_555

#END
