
#######################################################################
#
#                 Cambridge Crystallographic Data Centre
#                                CCDC 
#
#######################################################################
#
# If this CIF has been generated from an entry in the Cambridge 
# Structural Database, then it will include bibliographic, chemical, 
# crystal, experimental, refinement or atomic coordinate data resulting 
# from the CCDC's data processing and validation procedures.
#
#######################################################################

data_LAMCAE
_symmetry_cell_setting           monoclinic
_symmetry_space_group_name_H-M   'I 2/a'
_symmetry_Int_Tables_number      15
_space_group_name_Hall           '-I 2ya'
loop_
_symmetry_equiv_pos_site_id
_symmetry_equiv_pos_as_xyz
1 x,y,z
2 1/2+x,1/2+y,1/2+z
3 1/2-x,y,-z
4 -x,1/2+y,1/2-z
5 -x,-y,-z
6 1/2-x,1/2-y,1/2-z
7 1/2+x,-y,z
8 x,1/2-y,1/2+z
_cell_length_a                   7.483(3)
_cell_length_b                   11.702(4)
_cell_length_c                   12.105(4)
_cell_angle_alpha                90
_cell_angle_beta                 99.755(4)
_cell_angle_gamma                90
_cell_volume                     1044.66
loop_
_atom_site_label
_atom_site_type_symbol
_atom_site_fract_x
_atom_site_fract_y
_atom_site_fract_z
Mn1 Mn 0.2500 0.7500 0.2500
N1 N -0.09394(12) 0.66573(8) 0.34061(8)
O1 O 0.04529(11) 0.63373(7) 0.30089(8)
O2 O -0.19977(11) 0.58933(7) 0.36407(8)
O3 O -0.12287(13) 0.76774(7) 0.35485(9)
N2 N 0.23519(13) 0.63708(8) 0.09628(8)
C1 C 0.23377(16) 0.52221(10) 0.09550(10)
H1 H 0.2213 0.4823 0.1621
C2 C 0.2500 0.46039(14) 0.0000
H2 H 0.2500 0.3792 0.0000
C3 C 0.2500 0.68923(13) 0.0000
H3 H 0.2500 0.7704 0.0000
O4 O 0.06881(11) 0.86682(7) 0.14545(7)
H4 H -0.0433(13) 0.8674(15) 0.1414(16)
H5 H 0.107(2) 0.9330(9) 0.1387(15)
Mn1G Mn 0.2500 0.7500 -0.2500
N1E N 0.59394(12) 0.83427(8) 0.15939(8)
O1E O 0.45471(11) 0.86627(7) 0.19911(8)
O2E O 0.69977(11) 0.91067(7) 0.13593(8)
O3E O 0.62287(13) 0.73226(7) 0.14515(9)
N2B N 0.26481(13) 0.63708(8) -0.09628(8)
N2E N 0.26481(13) 0.86292(8) 0.40372(8)
C1B C 0.26623(16) 0.52221(10) -0.09550(10)
H1B H 0.2787 0.4823 -0.1621
O4E O 0.43119(11) 0.63318(7) 0.35455(7)
H4E H 0.5433(13) 0.6326(15) 0.3586(16)
H5E H 0.393(2) 0.5670(9) 0.3613(15)
loop_
_geom_bond_atom_site_label_1
_geom_bond_atom_site_label_2
_geom_bond_site_symmetry_1
_geom_bond_site_symmetry_2
Mn1 O1 1_555 1_555
N1 O1 1_555 1_555
O2 N1 1_555 1_555
O3 N1 1_555 1_555
N2 Mn1 1_555 1_555
C1 N2 1_555 1_555
H1 C1 1_555 1_555
C2 C1 1_555 1_555
H2 C2 1_555 1_555
C3 N2 1_555 1_555
H3 C3 1_555 1_555
O4 Mn1 1_555 1_555
H4 O4 1_555 1_555
H5 O4 1_555 1_555
Mn1G N2B 1_555 1_555
N1E O1E 1_555 1_555
O1E Mn1 1_555 1_555
O2E N1E 1_555 1_555
O3E N1E 1_555 1_555
N2B C3 1_555 1_555
N2E Mn1 1_555 1_555
C1B C2 1_555 1_555
H1B C1B 1_555 1_555
O4E Mn1 1_555 1_555
H4E O4E 1_555 1_555
H5E O4E 1_555 1_555
N2B C1B 1_555 1_555

#END
