
#######################################################################
#
#                 Cambridge Crystallographic Data Centre
#                                CCDC 
#
#######################################################################
#
# If this CIF has been generated from an entry in the Cambridge 
# Structural Database, then it will include bibliographic, chemical, 
# crystal, experimental, refinement or atomic coordinate data resulting 
# from the CCDC's data processing and validation procedures.
#
#######################################################################

data_LAMNAQ
_symmetry_cell_setting           monoclinic
_symmetry_space_group_name_H-M   'C 2/c'
_symmetry_Int_Tables_number      15
_space_group_name_Hall           '-C 2yn'
loop_
_symmetry_equiv_pos_site_id
_symmetry_equiv_pos_as_xyz
1 x,y,z
2 -x,y,1/2-z
3 1/2+x,1/2+y,z
4 1/2-x,1/2+y,1/2-z
5 -x,-y,-z
6 x,-y,1/2+z
7 1/2-x,1/2-y,-z
8 1/2+x,1/2-y,1/2+z
_cell_length_a                   25.703(5)
_cell_length_b                   9.3679(19)
_cell_length_c                   20.005(4)
_cell_angle_alpha                90
_cell_angle_beta                 111.58(3)
_cell_angle_gamma                90
_cell_volume                     4479.23
loop_
_atom_site_label
_atom_site_type_symbol
_atom_site_fract_x
_atom_site_fract_y
_atom_site_fract_z
Br1 Br 0.037465(15) -0.13108(4) 0.085054(19)
Cu1 Cu 0.045283(18) 0.10762(4) 0.03058(2)
P1 P 0.12847(4) 0.14974(9) 0.02434(5)
N1 N 0.02809(12) 0.2487(3) 0.09919(15)
C1 C 0.05533(18) 0.2313(4) 0.16946(19)
H1 H 0.0706 0.1420 0.1857
C2 C 0.00515(15) 0.3770(4) 0.0794(2)
H2 H -0.0154 0.3921 0.0308
C3 C 0.06232(18) 0.3374(4) 0.2197(2)
H3 H 0.0820 0.3186 0.2681
C4 C 0.00981(15) 0.4879(4) 0.12585(18)
H4 H -0.0075 0.5746 0.1085
C5 C 0.04018(15) 0.4712(4) 0.19846(18)
C6 C 0.05047(16) 0.5895(4) 0.2525(2)
H5 H 0.0778 0.6541 0.2462
H6 H 0.0672 0.5482 0.3002
C7 C 0.0000 0.6766(5) 0.2500
H7 H 0.0109 0.7378 0.2920
C8 C 0.13901(13) 0.3398(3) 0.01233(18)
C9 C 0.15024(16) 0.3953(4) -0.0452(2)
H8 H 0.1547 0.3340 -0.0793
C10 C 0.13194(15) 0.4350(4) 0.0618(2)
H9 H 0.1242 0.4000 0.1007
C11 C 0.15479(18) 0.5417(4) -0.0523(2)
H10 H 0.1630 0.5777 -0.0906
C12 C 0.13618(17) 0.5808(4) 0.0539(3)
H11 H 0.1315 0.6431 0.0875
C13 C 0.14731(18) 0.6335(4) -0.0035(3)
H12 H 0.1498 0.7316 -0.0091
C14 C 0.19053(15) 0.1027(4) 0.10280(18)
C15 C 0.23762(16) 0.1870(4) 0.1286(2)
H13 H 0.2380 0.2747 0.1070
C16 C 0.19065(18) -0.0256(5) 0.1358(2)
H14 H 0.1590 -0.0833 0.1196
C17 C 0.28428(18) 0.1441(5) 0.1858(2)
H15 H 0.3158 0.2021 0.2023
C18 C 0.2374(2) -0.0702(6) 0.1931(3)
H16 H 0.2373 -0.1582 0.2145
C19 C 0.2840(2) 0.0159(7) 0.2183(2)
H17 H 0.3152 -0.0131 0.2572
C20 C 0.14205(14) 0.0655(3) -0.04961(17)
C21 C 0.19394(16) 0.0172(4) -0.0453(2)
H18 H 0.2242 0.0236 -0.0020
C22 C 0.09837(18) 0.0530(5) -0.1144(2)
H19 H 0.0627 0.0809 -0.1180
C23 C 0.20140(18) -0.0412(5) -0.1054(2)
H20 H 0.2364 -0.0753 -0.1016
C24 C 0.1062(2) 0.0002(6) -0.1743(2)
H21 H 0.0764 -0.0025 -0.2182
C25 C 0.1577(2) -0.0482(5) -0.1693(2)
H22 H 0.1628 -0.0858 -0.2095
Br1D Br -0.037465(15) 0.13108(4) -0.085054(19)
Cu1D Cu -0.045283(18) -0.10762(4) -0.03058(2)
Cu1A Cu -0.045283(18) 0.10762(4) 0.46942(2)
P1D P -0.12847(4) -0.14974(9) -0.02434(5)
N1A N -0.02809(12) 0.2487(3) 0.40081(15)
N1D N -0.02809(12) -0.2487(3) -0.09919(15)
C1A C -0.05533(18) 0.2313(4) 0.33054(19)
H1A H -0.0706 0.1420 0.3143
C2A C -0.00515(15) 0.3770(4) 0.4206(2)
H2A H 0.0154 0.3921 0.4692
C3A C -0.06232(18) 0.3374(4) 0.2803(2)
H3A H -0.0820 0.3186 0.2319
C4A C -0.00981(15) 0.4879(4) 0.37415(18)
H4A H 0.0075 0.5746 0.3915
C5A C -0.04018(15) 0.4712(4) 0.30154(18)
C6A C -0.05047(16) 0.5895(4) 0.2475(2)
H5A H -0.0778 0.6541 0.2538
H6A H -0.0672 0.5482 0.1998
H7A H -0.0109 0.7378 0.2080
C8D C -0.13901(13) -0.3398(3) -0.01233(18)
C9D C -0.15024(16) -0.3953(4) 0.0452(2)
H8D H -0.1547 -0.3340 0.0793
C10D C -0.13194(15) -0.4350(4) -0.0618(2)
H9D H -0.1242 -0.4000 -0.1007
C11D C -0.15479(18) -0.5417(4) 0.0523(2)
H10D H -0.1630 -0.5777 0.0906
C12D C -0.13618(17) -0.5808(4) -0.0539(3)
H11D H -0.1315 -0.6431 -0.0875
C13D C -0.14731(18) -0.6335(4) 0.0035(3)
H12D H -0.1498 -0.7316 0.0091
C14D C -0.19053(15) -0.1027(4) -0.10280(18)
C15D C -0.23762(16) -0.1870(4) -0.1286(2)
H13D H -0.2380 -0.2747 -0.1070
C16D C -0.19065(18) 0.0256(5) -0.1358(2)
H14D H -0.1590 0.0833 -0.1196
C17D C -0.28428(18) -0.1441(5) -0.1858(2)
H15D H -0.3158 -0.2021 -0.2023
C18D C -0.2374(2) 0.0702(6) -0.1931(3)
H16D H -0.2373 0.1582 -0.2145
C19D C -0.2840(2) -0.0159(7) -0.2183(2)
H17D H -0.3152 0.0131 -0.2572
C20D C -0.14205(14) -0.0655(3) 0.04961(17)
C21D C -0.19394(16) -0.0172(4) 0.0453(2)
H18D H -0.2242 -0.0236 0.0020
C22D C -0.09837(18) -0.0530(5) 0.1144(2)
H19D H -0.0627 -0.0809 0.1180
C23D C -0.20140(18) 0.0412(5) 0.1054(2)
H20D H -0.2364 0.0753 0.1016
C24D C -0.1062(2) -0.0002(6) 0.1743(2)
H21D H -0.0764 0.0025 0.2182
C25D C -0.1577(2) 0.0482(5) 0.1693(2)
H22D H -0.1628 0.0858 0.2095
loop_
_geom_bond_atom_site_label_1
_geom_bond_atom_site_label_2
_geom_bond_site_symmetry_1
_geom_bond_site_symmetry_2
Br1 Cu1 1_555 1_555
Cu1 P1 1_555 1_555
P1 C8 1_555 1_555
N1 Cu1 1_555 1_555
C1 N1 1_555 1_555
H1 C1 1_555 1_555
C2 N1 1_555 1_555
H2 C2 1_555 1_555
C3 C1 1_555 1_555
H3 C3 1_555 1_555
C4 C2 1_555 1_555
H4 C4 1_555 1_555
C5 C3 1_555 1_555
C6 C5 1_555 1_555
H5 C6 1_555 1_555
H6 C6 1_555 1_555
C7 C6 1_555 1_555
H7 C7 1_555 1_555
C8 C9 1_555 1_555
C9 H8 1_555 1_555
C10 C8 1_555 1_555
H9 C10 1_555 1_555
C11 C9 1_555 1_555
H10 C11 1_555 1_555
C12 C10 1_555 1_555
H11 C12 1_555 1_555
C13 C11 1_555 1_555
H12 C13 1_555 1_555
C14 P1 1_555 1_555
C15 C14 1_555 1_555
H13 C15 1_555 1_555
C16 C14 1_555 1_555
H14 C16 1_555 1_555
C17 C15 1_555 1_555
H15 C17 1_555 1_555
C18 C16 1_555 1_555
H16 C18 1_555 1_555
C19 C17 1_555 1_555
H17 C19 1_555 1_555
C20 P1 1_555 1_555
C21 C20 1_555 1_555
H18 C21 1_555 1_555
C22 C20 1_555 1_555
H19 C22 1_555 1_555
C23 C21 1_555 1_555
H20 C23 1_555 1_555
C24 C22 1_555 1_555
H21 C24 1_555 1_555
C25 C23 1_555 1_555
H22 C25 1_555 1_555
Br1D Cu1 1_555 1_555
Cu1D Br1 1_555 1_555
Cu1A N1A 1_555 1_555
P1D Cu1D 1_555 1_555
N1A C1A 1_555 1_555
N1D Cu1D 1_555 1_555
C1A H1A 1_555 1_555
C2A N1A 1_555 1_555
H2A C2A 1_555 1_555
C3A C1A 1_555 1_555
H3A C3A 1_555 1_555
C4A C2A 1_555 1_555
H4A C4A 1_555 1_555
C5A C3A 1_555 1_555
C6A C7 1_555 1_555
H5A C6A 1_555 1_555
H6A C6A 1_555 1_555
H7A C7 1_555 1_555
C8D P1D 1_555 1_555
C9D C8D 1_555 1_555
H8D C9D 1_555 1_555
C10D C8D 1_555 1_555
H9D C10D 1_555 1_555
C11D C9D 1_555 1_555
H10D C11D 1_555 1_555
C12D C10D 1_555 1_555
H11D C12D 1_555 1_555
C13D C11D 1_555 1_555
H12D C13D 1_555 1_555
C14D P1D 1_555 1_555
C15D C14D 1_555 1_555
H13D C15D 1_555 1_555
C16D C14D 1_555 1_555
H14D C16D 1_555 1_555
C17D C15D 1_555 1_555
H15D C17D 1_555 1_555
C18D C16D 1_555 1_555
H16D C18D 1_555 1_555
C19D C17D 1_555 1_555
H17D C19D 1_555 1_555
C20D P1D 1_555 1_555
C21D C20D 1_555 1_555
H18D C21D 1_555 1_555
C22D C20D 1_555 1_555
H19D C22D 1_555 1_555
C23D C21D 1_555 1_555
H20D C23D 1_555 1_555
C24D C22D 1_555 1_555
H21D C24D 1_555 1_555
C25D C23D 1_555 1_555
H22D C25D 1_555 1_555
C4 C5 1_555 1_555
C12 C13 1_555 1_555
C18 C19 1_555 1_555
C24 C25 1_555 1_555
Br1D Cu1D 1_555 1_555
C4A C5A 1_555 1_555
C5A C6A 1_555 1_555
C12D C13D 1_555 1_555
C18D C19D 1_555 1_555
C24D C25D 1_555 1_555

#END
