
#######################################################################
#
#                 Cambridge Crystallographic Data Centre
#                                CCDC 
#
#######################################################################
#
# If this CIF has been generated from an entry in the Cambridge 
# Structural Database, then it will include bibliographic, chemical, 
# crystal, experimental, refinement or atomic coordinate data resulting 
# from the CCDC's data processing and validation procedures.
#
#######################################################################

data_LAMRUO
_symmetry_cell_setting           monoclinic
_symmetry_space_group_name_H-M   'P 21/c'
_symmetry_Int_Tables_number      14
_space_group_name_Hall           '-P 2ybc'
loop_
_symmetry_equiv_pos_site_id
_symmetry_equiv_pos_as_xyz
1 x,y,z
2 -x,1/2+y,1/2-z
3 -x,-y,-z
4 x,1/2-y,1/2+z
_cell_length_a                   12.9573(13)
_cell_length_b                   10.5506(11)
_cell_length_c                   18.9241(18)
_cell_angle_alpha                90
_cell_angle_beta                 108.9610(10)
_cell_angle_gamma                90
_cell_volume                     2446.69
loop_
_atom_site_label
_atom_site_type_symbol
_atom_site_fract_x
_atom_site_fract_y
_atom_site_fract_z
Cu1 Cu 0.60682(4) 0.39666(4) 0.25965(3)
P1 P 0.75772(8) 0.43807(9) 0.35473(6)
S1 S 0.44293(9) 0.45262(10) 0.28281(7)
N1 N 0.6132(3) 0.4852(3) 0.16249(18)
N2 N 0.4224(3) 0.7158(3) 0.2701(2)
C1 C 0.6628(3) 0.4305(4) 0.1208(2)
H1 H 0.6942 0.3515 0.1357
C2 C 0.5675(3) 0.6006(4) 0.1397(2)
H2 H 0.5312 0.6408 0.1685
C3 C 0.5719(4) 0.6601(4) 0.0774(3)
H3 H 0.5406 0.7398 0.0650
C4 C 0.6232(3) 0.6021(4) 0.0322(2)
C5 C 0.6721(3) 0.4842(4) 0.0535(2)
C6 C 0.7248(4) 0.4218(5) 0.0107(3)
H4 H 0.7581 0.3440 0.0262
C7 C 0.7275(4) 0.4745(5) -0.0540(3)
H5 H 0.7627 0.4329 -0.0830
C8 C 0.6774(4) 0.5913(5) -0.0770(3)
H6 H 0.6794 0.6257 -0.1218
C9 C 0.6265(4) 0.6557(5) -0.0369(3)
H7 H 0.5939 0.7335 -0.0535
C10 C 0.8397(3) 0.5678(3) 0.3374(2)
C11 C 0.7862(3) 0.6785(4) 0.3058(2)
H8 H 0.7108 0.6840 0.2942
C12 C 0.8432(4) 0.7799(4) 0.2916(3)
H9 H 0.8066 0.8541 0.2716
C13 C 0.9535(4) 0.7718(4) 0.3067(3)
H10 H 0.9915 0.8398 0.2959
C14 C 1.0081(4) 0.6638(4) 0.3376(2)
H11 H 1.0833 0.6588 0.3486
C15 C 0.9514(3) 0.5630(4) 0.3524(2)
H12 H 0.9891 0.4897 0.3731
C16 C 0.8556(3) 0.3077(3) 0.3805(2)
C17 C 0.9200(3) 0.2820(4) 0.4534(2)
H13 H 0.9139 0.3318 0.4924
C18 C 0.9935(4) 0.1819(4) 0.4680(3)
H14 H 1.0364 0.1647 0.5170
C19 C 1.0033(4) 0.1087(4) 0.4113(3)
H15 H 1.0534 0.0425 0.4216
C20 C 0.9398(4) 0.1320(4) 0.3393(3)
H16 H 0.9462 0.0814 0.3007
C21 C 0.8663(4) 0.2305(4) 0.3241(3)
H17 H 0.8230 0.2456 0.2750
C22 C 0.7412(3) 0.4807(4) 0.4436(2)
C23 C 0.8026(3) 0.5724(4) 0.4911(2)
H18 H 0.8544 0.6179 0.4772
C24 C 0.7881(4) 0.5973(4) 0.5587(2)
H19 H 0.8301 0.6592 0.5900
C25 C 0.7125(4) 0.5319(5) 0.5801(3)
H20 H 0.7030 0.5491 0.6258
C26 C 0.6510(4) 0.4414(5) 0.5342(3)
H21 H 0.6001 0.3957 0.5489
C27 C 0.6640(4) 0.4169(4) 0.4657(3)
H22 H 0.6200 0.3565 0.4342
C28 C 0.4320(3) 0.6079(4) 0.2756(2)
Cu1A Cu 0.39318(4) 0.89666(4) 0.24035(3)
N2A N 0.5776(3) 0.2158(3) 0.2299(2)
loop_
_geom_bond_atom_site_label_1
_geom_bond_atom_site_label_2
_geom_bond_site_symmetry_1
_geom_bond_site_symmetry_2
Cu1 P1 1_555 1_555
P1 C10 1_555 1_555
S1 Cu1 1_555 1_555
N1 Cu1 1_555 1_555
N2 C28 1_555 1_555
C1 N1 1_555 1_555
H1 C1 1_555 1_555
C2 N1 1_555 1_555
H2 C2 1_555 1_555
C3 C2 1_555 1_555
H3 C3 1_555 1_555
C4 C3 1_555 1_555
C5 C1 1_555 1_555
C6 C5 1_555 1_555
H4 C6 1_555 1_555
C7 C6 1_555 1_555
H5 C7 1_555 1_555
C8 C7 1_555 1_555
H6 C8 1_555 1_555
C9 C4 1_555 1_555
H7 C9 1_555 1_555
C10 C11 1_555 1_555
C11 H8 1_555 1_555
C12 C11 1_555 1_555
H9 C12 1_555 1_555
C13 C12 1_555 1_555
H10 C13 1_555 1_555
C14 C13 1_555 1_555
H11 C14 1_555 1_555
C15 C10 1_555 1_555
H12 C15 1_555 1_555
C16 P1 1_555 1_555
C17 C16 1_555 1_555
H13 C17 1_555 1_555
C18 C17 1_555 1_555
H14 C18 1_555 1_555
C19 C18 1_555 1_555
H15 C19 1_555 1_555
C20 C19 1_555 1_555
H16 C20 1_555 1_555
C21 C16 1_555 1_555
H17 C21 1_555 1_555
C22 P1 1_555 1_555
C23 C22 1_555 1_555
H18 C23 1_555 1_555
C24 C23 1_555 1_555
H19 C24 1_555 1_555
C25 C24 1_555 1_555
H20 C25 1_555 1_555
C26 C25 1_555 1_555
H21 C26 1_555 1_555
C27 C22 1_555 1_555
H22 C27 1_555 1_555
C28 S1 1_555 1_555
Cu1A N2 1_555 1_555
N2A Cu1 1_555 1_555
C4 C5 1_555 1_555
C8 C9 1_555 1_555
C14 C15 1_555 1_555
C20 C21 1_555 1_555
C26 C27 1_555 1_555

#END
