
#######################################################################
#
#                 Cambridge Crystallographic Data Centre
#                                CCDC 
#
#######################################################################
#
# If this CIF has been generated from an entry in the Cambridge 
# Structural Database, then it will include bibliographic, chemical, 
# crystal, experimental, refinement or atomic coordinate data resulting 
# from the CCDC's data processing and validation procedures.
#
#######################################################################

data_LAMZUV
_symmetry_cell_setting           triclinic
_symmetry_space_group_name_H-M   'P -1'
_symmetry_Int_Tables_number      2
_space_group_name_Hall           '-P 1'
loop_
_symmetry_equiv_pos_site_id
_symmetry_equiv_pos_as_xyz
1 x,y,z
2 -x,-y,-z
_cell_length_a                   7.2758(10)
_cell_length_b                   10.9867(16)
_cell_length_c                   20.037(3)
_cell_angle_alpha                79.993(3)
_cell_angle_beta                 84.103(3)
_cell_angle_gamma                78.941(3)
_cell_volume                     1544.04
loop_
_atom_site_label
_atom_site_type_symbol
_atom_site_fract_x
_atom_site_fract_y
_atom_site_fract_z
K1 K -0.81557(6) 0.58195(4) 0.77082(2)
Er1 Er -0.278899(11) 0.462730(8) 0.760181(4)
C1 C -0.3827(3) 0.7310(2) 0.66586(11)
O1 O -0.5353(2) 0.40455(14) 0.72328(7)
O2 O -0.2141(2) 0.38199(15) 0.65723(8)
C2 C -0.4967(4) 0.8437(2) 0.63707(13)
H1 H -0.630(5) 0.851(3) 0.6577(18)
N1 N -1.1304(4) 1.0049(2) 0.72610(13)
O3 O -0.4596(2) 0.64986(15) 0.70726(8)
C3 C -0.4495(4) 0.9428(3) 0.58970(16)
H2 H -0.540(5) 1.002(3) 0.5845(17)
O4 O -0.1000(2) 0.59701(14) 0.69083(8)
C4 C -0.2789(5) 0.9600(3) 0.55611(17)
H3 H -0.281(5) 1.035(4) 0.528(2)
O5 O -1.1898(2) 0.57994(16) 0.83565(8)
C5 C -0.1078(5) 0.8798(3) 0.56367(17)
H4 H -0.015(5) 0.908(3) 0.5414(18)
O6 O -1.5129(2) 0.51500(15) 0.84440(7)
C6 C -0.0623(4) 0.7657(3) 0.60665(13)
H5 H 0.069(5) 0.722(3) 0.6066(16)
O7 O -0.9755(2) 0.36762(14) 0.78298(8)
C7 C -0.1759(3) 0.69703(19) 0.65433(10)
O8 O -1.2588(2) 0.26451(14) 0.82840(8)
C8 C -0.5348(3) 0.38001(19) 0.66285(10)
C9 C -0.7043(3) 0.3671(2) 0.63869(12)
H6 H -0.805(4) 0.380(2) 0.6717(14)
O9 O -0.9159(4) 0.8300(2) 0.76017(16)
C10 C -0.7411(4) 0.3428(3) 0.57581(14)
H7 H -0.857(5) 0.337(3) 0.5703(17)
C11 C -0.6221(4) 0.3231(3) 0.51880(13)
H8 H -0.678(5) 0.318(3) 0.4800(18)
C12 C -0.4319(4) 0.3240(3) 0.51114(13)
H9 H -0.381(5) 0.317(3) 0.4662(17)
C13 C -0.3127(3) 0.3429(3) 0.55700(13)
H10 H -0.197(4) 0.343(3) 0.5437(15)
C14 C -0.3490(3) 0.3679(2) 0.62469(11)
C15 C -1.3020(3) 0.6159(2) 0.88473(11)
C16 C -1.2418(4) 0.6854(3) 0.92909(13)
H11 H -1.130(4) 0.711(3) 0.9169(15)
C17 C -1.3295(4) 0.7278(3) 0.98771(13)
H12 H -1.261(5) 0.770(3) 1.0084(17)
C18 C -1.5055(4) 0.7189(2) 1.01921(12)
H13 H -1.535(4) 0.746(3) 1.0591(15)
C19 C -1.6425(4) 0.6675(2) 0.99570(12)
H14 H -1.752(4) 0.669(3) 1.0213(16)
C20 C -1.6371(3) 0.6087(2) 0.93932(12)
H15 H -1.748(4) 0.574(2) 0.9332(13)
C21 C -1.4891(3) 0.5793(2) 0.88962(10)
C22 C -1.0994(3) 0.1998(2) 0.84616(11)
C23 C -1.0925(3) 0.0807(2) 0.88757(13)
H16 H -1.225(4) 0.052(3) 0.8962(15)
C24 C -0.9419(4) -0.0080(2) 0.91177(14)
H17 H -0.975(5) -0.084(3) 0.9329(16)
C25 C -0.7507(4) -0.0042(2) 0.90359(15)
H18 H -0.662(4) -0.072(3) 0.9248(16)
C26 C -0.6678(3) 0.0942(2) 0.86920(13)
H19 H -0.537(4) 0.082(2) 0.8701(13)
C27 C -0.7470(3) 0.2092(2) 0.83350(12)
H20 H -0.668(4) 0.263(3) 0.8120(14)
C28 C -0.9355(3) 0.25982(19) 0.82035(10)
C29 C -0.9851(5) 1.0745(3) 0.69000(19)
H21 H -0.8608 1.0220 0.6954
H22 H -0.9907 1.1516 0.7090
H23 H -1.0074 1.0961 0.6416
C30 C -1.3248(5) 1.0663(3) 0.72453(18)
H24 H -1.4048 1.0100 0.7507
H25 H -1.3595 1.0871 0.6774
H26 H -1.3417 1.1435 0.7444
C31 C -1.0789(5) 0.8876(3) 0.75776(18)
H27 H -1.195(5) 0.850(3) 0.7857(17)
K1_2 K 0.18443(6) 0.58195(4) 0.77082(2)
K1_3 K -1.81557(6) 0.58195(4) 0.77082(2)
Er1_2 Er -1.278899(11) 0.462730(8) 0.760181(4)
O4_2 O -1.1000(2) 0.59701(14) 0.69083(8)
O5_2 O -0.1898(2) 0.57994(16) 0.83565(8)
O6_2 O -0.5129(2) 0.51500(15) 0.84440(7)
O7_2 O 0.0245(2) 0.36762(14) 0.78298(8)
O8_2 O -0.2588(2) 0.26451(14) 0.82840(8)
loop_
_geom_bond_atom_site_label_1
_geom_bond_atom_site_label_2
_geom_bond_site_symmetry_1
_geom_bond_site_symmetry_2
K1 O1 1_555 1_555
Er1 O1 1_555 1_555
C1 C2 1_555 1_555
O1 C8 1_555 1_555
O2 Er1 1_555 1_555
C2 H1 1_555 1_555
N1 C29 1_555 1_555
O3 K1 1_555 1_555
C3 C2 1_555 1_555
H2 C3 1_555 1_555
O4 Er1 1_555 1_555
C4 C3 1_555 1_555
H3 C4 1_555 1_555
O5 K1 1_555 1_555
C5 C4 1_555 1_555
H4 C5 1_555 1_555
O6 C21 1_555 1_555
C6 C5 1_555 1_555
H5 C6 1_555 1_555
O7 K1 1_555 1_555
C7 C1 1_555 1_555
O8 C22 1_555 1_555
C8 C9 1_555 1_555
C9 H6 1_555 1_555
O9 K1 1_555 1_555
C10 C9 1_555 1_555
H7 C10 1_555 1_555
C11 C10 1_555 1_555
H8 C11 1_555 1_555
C12 C11 1_555 1_555
H9 C12 1_555 1_555
C13 C12 1_555 1_555
H10 C13 1_555 1_555
C14 O2 1_555 1_555
C15 O5 1_555 1_555
C16 C15 1_555 1_555
H11 C16 1_555 1_555
C17 C16 1_555 1_555
H12 C17 1_555 1_555
C18 C17 1_555 1_555
H13 C18 1_555 1_555
C19 C18 1_555 1_555
H14 C19 1_555 1_555
C20 C19 1_555 1_555
H15 C20 1_555 1_555
C21 C15 1_555 1_555
C22 C23 1_555 1_555
C23 H16 1_555 1_555
C24 C23 1_555 1_555
H17 C24 1_555 1_555
C25 C24 1_555 1_555
H18 C25 1_555 1_555
C26 C25 1_555 1_555
H19 C26 1_555 1_555
C27 C26 1_555 1_555
H20 C27 1_555 1_555
C28 O7 1_555 1_555
C29 H21 1_555 1_555
H22 C29 1_555 1_555
H23 C29 1_555 1_555
C30 N1 1_555 1_555
H24 C30 1_555 1_555
H25 C30 1_555 1_555
H26 C30 1_555 1_555
C31 N1 1_555 1_555
H27 C31 1_555 1_555
K1_2 O4 1_555 1_555
K1_3 O6 1_555 1_555
Er1_2 O5 1_555 1_555
O4_2 K1 1_555 1_555
O5_2 Er1 1_555 1_555
O6_2 K1 1_555 1_555
O7_2 Er1 1_555 1_555
O8_2 Er1 1_555 1_555
Er1 O3 1_555 1_555
Er1 O6_2 1_555 1_555
C1 O3 1_555 1_555
O4 C7 1_555 1_555
O6 Er1_2 1_555 1_555
C6 C7 1_555 1_555
O7 Er1_2 1_555 1_555
O8 Er1_2 1_555 1_555
C8 C14 1_555 1_555
O9 C31 1_555 1_555
C13 C14 1_555 1_555
C20 C21 1_555 1_555
C22 C28 1_555 1_555
C27 C28 1_555 1_555
K1_2 O5_2 1_555 1_555
K1_2 O7_2 1_555 1_555
Er1_2 O4_2 1_555 1_555

#END
