
#######################################################################
#
#                 Cambridge Crystallographic Data Centre
#                                CCDC 
#
#######################################################################
#
# If this CIF has been generated from an entry in the Cambridge 
# Structural Database, then it will include bibliographic, chemical, 
# crystal, experimental, refinement or atomic coordinate data resulting 
# from the CCDC's data processing and validation procedures.
#
#######################################################################

data_LANBEI
_symmetry_cell_setting           triclinic
_symmetry_space_group_name_H-M   'P -1'
_symmetry_Int_Tables_number      2
_space_group_name_Hall           '-P 1'
loop_
_symmetry_equiv_pos_site_id
_symmetry_equiv_pos_as_xyz
1 x,y,z
2 -x,-y,-z
_cell_length_a                   7.2465(4)
_cell_length_b                   10.9035(5)
_cell_length_c                   19.8822(10)
_cell_angle_alpha                80.1350(10)
_cell_angle_beta                 84.1030(10)
_cell_angle_gamma                78.8180(10)
_cell_volume                     1514.4
loop_
_atom_site_label
_atom_site_type_symbol
_atom_site_fract_x
_atom_site_fract_y
_atom_site_fract_z
Lu1 Lu 0.277860(12) 0.537283(9) 0.239731(5)
K1 K -0.18540(7) 0.41863(5) 0.22875(3)
O1 O -0.0254(2) 0.63272(17) 0.21755(9)
O2 O 0.2582(2) 0.73512(17) 0.17192(9)
O3 O -0.5412(2) 0.35090(17) 0.29222(9)
O4 O -0.9005(2) 0.40294(17) 0.30861(9)
O5 O -0.7878(2) 0.61799(18) 0.34225(9)
O6 O -0.4668(2) 0.59602(17) 0.27622(9)
O7 O 0.1887(2) 0.41989(18) 0.16464(9)
O8 O 0.5114(2) 0.48557(17) 0.15525(9)
O9 O -0.0862(4) 0.1700(2) 0.24005(16)
N1 N 0.1294(4) -0.0060(2) 0.27438(15)
C1 C -0.0653(3) 0.7405(2) 0.18021(12)
C2 C -0.2542(3) 0.7922(2) 0.16747(13)
H1 H -0.3419 0.7390 0.1865
C3 C -0.3336(4) 0.9074(3) 0.13191(14)
H2 H -0.4671 0.9212 0.1316
C4 C -0.2506(4) 1.0061(3) 0.09654(16)
H3 H -0.3327 1.0787 0.0761
C5 C -0.0589(4) 1.0091(3) 0.08805(15)
H4 H -0.0264 1.0840 0.0614
C6 C 0.0923(4) 0.9196(3) 0.11251(15)
H5 H 0.2120 0.9428 0.0990
C7 C 0.0995(3) 0.8005(2) 0.15378(12)
C8 C -0.6171(3) 0.2697(2) 0.33365(12)
C9 C -0.5023(4) 0.1561(3) 0.36216(15)
H6 H -0.3731 0.1471 0.3461
C10 C -0.5478(4) 0.0563(3) 0.40962(16)
H7 H -0.4457 -0.0112 0.4204
C11 C -0.7209(5) 0.0395(3) 0.44420(18)
H8 H -0.7210 -0.0354 0.4767
C12 C -0.8919(4) 0.1202(3) 0.43623(17)
H9 H -0.9945 0.0932 0.4647
C13 C -0.9377(4) 0.2337(3) 0.39354(14)
H10 H -1.0673 0.2715 0.3970
C14 C -0.8246(3) 0.3029(2) 0.34561(12)
C15 C -0.6527(3) 0.6325(2) 0.37564(12)
C16 C -0.6888(4) 0.6565(3) 0.44365(14)
H11 H -0.8166 0.6603 0.4610
C17 C -0.5695(4) 0.6755(3) 0.48955(14)
H12 H -0.6282 0.6894 0.5332
C18 C -0.3788(4) 0.6775(3) 0.48166(14)
H13 H -0.3236 0.6936 0.5198
C19 C -0.2593(4) 0.6585(3) 0.42402(15)
H14 H -0.1315 0.6634 0.4281
C20 C -0.2970(3) 0.6333(3) 0.36123(13)
H15 H -0.1905 0.6234 0.3292
C21 C -0.4670(3) 0.6200(2) 0.33706(12)
C22 C 0.4876(3) 0.4206(2) 0.11027(12)
C23 C 0.6360(3) 0.3910(3) 0.06011(13)
H16 H 0.7507 0.4160 0.0665
C24 C 0.6422(4) 0.3319(3) 0.00345(13)
H17 H 0.7587 0.3256 -0.0235
C25 C 0.5045(4) 0.2803(3) -0.02023(13)
H18 H 0.5349 0.2482 -0.0623
C26 C 0.3272(4) 0.2714(3) 0.01167(14)
H19 H 0.2539 0.2294 -0.0107
C27 C 0.2403(4) 0.3135(3) 0.07046(14)
H20 H 0.1195 0.2916 0.0834
C28 C 0.3007(3) 0.3842(2) 0.11503(12)
C29 C 0.0777(5) 0.1117(3) 0.24296(19)
H21 H 0.1145 0.1028 0.1939
C30 C -0.0161(5) -0.0762(3) 0.3111(2)
H22 H -0.1413 -0.0237 0.3055
H23 H 0.0062 -0.0969 0.3599
H24 H -0.0097 -0.1544 0.2923
C31 C 0.3231(4) -0.0684(3) 0.27682(18)
H25 H 0.4046 -0.0123 0.2508
H26 H 0.3403 -0.1464 0.2568
H27 H 0.3563 -0.0891 0.3245
Lu1_2 Lu -0.722140(12) 0.537283(9) 0.239731(5)
K1_2 K 0.81460(7) 0.41863(5) 0.22875(3)
K1_3 K -1.18540(7) 0.41863(5) 0.22875(3)
O3_2 O 0.4588(2) 0.35090(17) 0.29222(9)
O4_2 O 0.0995(2) 0.40294(17) 0.30861(9)
O5_2 O 0.2122(2) 0.61799(18) 0.34225(9)
O6_2 O 0.5332(2) 0.59602(17) 0.27622(9)
O8_2 O -0.4886(2) 0.48557(17) 0.15525(9)
loop_
_geom_bond_atom_site_label_1
_geom_bond_atom_site_label_2
_geom_bond_site_symmetry_1
_geom_bond_site_symmetry_2
Lu1 O1 1_555 1_555
K1 O1 1_555 1_555
O1 C1 1_555 1_555
O2 Lu1 1_555 1_555
O3 K1 1_555 1_555
O4 C14 1_555 1_555
O5 C15 1_555 1_555
O6 K1 1_555 1_555
O7 Lu1 1_555 1_555
O8 Lu1 1_555 1_555
O9 K1 1_555 1_555
N1 C29 1_555 1_555
C1 C2 1_555 1_555
C2 H1 1_555 1_555
C3 C2 1_555 1_555
H2 C3 1_555 1_555
C4 C3 1_555 1_555
H3 C4 1_555 1_555
C5 C4 1_555 1_555
H4 C5 1_555 1_555
C6 C5 1_555 1_555
H5 C6 1_555 1_555
C7 O2 1_555 1_555
C8 O3 1_555 1_555
C9 C8 1_555 1_555
H6 C9 1_555 1_555
C10 C9 1_555 1_555
H7 C10 1_555 1_555
C11 C10 1_555 1_555
H8 C11 1_555 1_555
C12 C11 1_555 1_555
H9 C12 1_555 1_555
C13 C12 1_555 1_555
H10 C13 1_555 1_555
C14 C8 1_555 1_555
C15 C16 1_555 1_555
C16 H11 1_555 1_555
C17 C16 1_555 1_555
H12 C17 1_555 1_555
C18 C17 1_555 1_555
H13 C18 1_555 1_555
C19 C18 1_555 1_555
H14 C19 1_555 1_555
C20 C19 1_555 1_555
H15 C20 1_555 1_555
C21 O6 1_555 1_555
C22 O8 1_555 1_555
C23 C22 1_555 1_555
H16 C23 1_555 1_555
C24 C23 1_555 1_555
H17 C24 1_555 1_555
C25 C24 1_555 1_555
H18 C25 1_555 1_555
C26 C25 1_555 1_555
H19 C26 1_555 1_555
C27 C26 1_555 1_555
H20 C27 1_555 1_555
C28 O7 1_555 1_555
C29 O9 1_555 1_555
H21 C29 1_555 1_555
C30 N1 1_555 1_555
H22 C30 1_555 1_555
H23 C30 1_555 1_555
H24 C30 1_555 1_555
C31 N1 1_555 1_555
H25 C31 1_555 1_555
H26 C31 1_555 1_555
H27 C31 1_555 1_555
Lu1_2 O3 1_555 1_555
K1_2 O8 1_555 1_555
K1_3 O4 1_555 1_555
O3_2 Lu1 1_555 1_555
O4_2 Lu1 1_555 1_555
O5_2 Lu1 1_555 1_555
O6_2 Lu1 1_555 1_555
O8_2 K1 1_555 1_555
K1 O7 1_555 1_555
K1 O4_2 1_555 1_555
O4 Lu1_2 1_555 1_555
O5 Lu1_2 1_555 1_555
O6 Lu1_2 1_555 1_555
C1 C7 1_555 1_555
C6 C7 1_555 1_555
C13 C14 1_555 1_555
C15 C21 1_555 1_555
C20 C21 1_555 1_555
C22 C28 1_555 1_555
C27 C28 1_555 1_555
Lu1_2 O8_2 1_555 1_555
K1_2 O3_2 1_555 1_555
K1_2 O6_2 1_555 1_555

#END
