
#######################################################################
#
#                 Cambridge Crystallographic Data Centre
#                                CCDC 
#
#######################################################################
#
# If this CIF has been generated from an entry in the Cambridge 
# Structural Database, then it will include bibliographic, chemical, 
# crystal, experimental, refinement or atomic coordinate data resulting 
# from the CCDC's data processing and validation procedures.
#
#######################################################################

data_LANCIO01
_symmetry_cell_setting           monoclinic
_symmetry_space_group_name_H-M   'P 21/c'
_symmetry_Int_Tables_number      14
_space_group_name_Hall           '-P 2ybc'
loop_
_symmetry_equiv_pos_site_id
_symmetry_equiv_pos_as_xyz
1 x,y,z
2 -x,1/2+y,1/2-z
3 -x,-y,-z
4 x,1/2-y,1/2+z
_cell_length_a                   6.4752(12)
_cell_length_b                   18.941(5)
_cell_length_c                   10.482(2)
_cell_angle_alpha                90
_cell_angle_beta                 90.205(17)
_cell_angle_gamma                90
_cell_volume                     1285.58
loop_
_atom_site_label
_atom_site_type_symbol
_atom_site_fract_x
_atom_site_fract_y
_atom_site_fract_z
Cd1 Cd 0.25316(5) 0.46171(2) 0.94412(3)
N1 N 0.4043(7) 0.4388(2) 0.7498(4)
N2 N 0.6218(7) 0.3896(2) 0.6156(4)
N3 N 0.9259(7) 0.2437(3) 0.4677(5)
N4 N 1.1364(7) 0.1547(2) 0.4385(4)
N5 N 0.4461(6) 0.5705(2) 0.9439(4)
N6 N 0.4473(7) 0.6096(2) 0.8556(4)
N7 N 0.4408(10) 0.6492(3) 0.7734(5)
N8 N -0.0500(7) 0.5164(2) 0.8709(4)
N9 N -0.0786(6) 0.5351(2) 0.7662(4)
N10 N -0.1083(9) 0.5523(3) 0.6618(5)
C1 C 0.3264(9) 0.4417(3) 0.6287(5)
H1 H 0.2005 0.4619 0.6063
C2 C 0.4581(9) 0.4112(3) 0.5465(5)
H2 H 0.4396 0.4060 0.4590
C3 C 0.5845(8) 0.4069(3) 0.7382(5)
H3 H 0.6740 0.3975 0.8057
C4 C 0.8065(9) 0.3526(3) 0.5700(6)
H4 H 0.9011 0.3447 0.6406
H5 H 0.8764 0.3812 0.5068
C5 C 0.7453(9) 0.2834(3) 0.5126(6)
H6 H 0.6723 0.2556 0.5757
H7 H 0.6521 0.2917 0.4415
C6 C 1.0639(11) 0.2644(3) 0.3788(6)
H8 H 1.0687 0.3080 0.3383
C7 C 1.1936(11) 0.2094(3) 0.3602(6)
H9 H 1.3038 0.2088 0.3036
C8 C 0.9765(9) 0.1780(3) 0.4995(5)
H10 H 0.9045 0.1515 0.5593
Cd1B Cd -0.25316(5) 0.53829(2) 1.05588(3)
Cd1B_2 Cd 0.74684(5) 0.53829(2) 1.05588(3)
Cd1C Cd 1.25316(5) 0.03829(2) 0.44412(3)
N4C N 0.1364(7) 0.3453(2) 0.9385(4)
N5B N 0.5539(6) 0.4295(2) 1.0561(4)
N8B N 0.0500(7) 0.4836(2) 1.1291(4)
loop_
_geom_bond_atom_site_label_1
_geom_bond_atom_site_label_2
_geom_bond_site_symmetry_1
_geom_bond_site_symmetry_2
Cd1 N1 1_555 1_555
N1 C1 1_555 1_555
N2 C2 1_555 1_555
N3 C5 1_555 1_555
N4 C7 1_555 1_555
N5 Cd1 1_555 1_555
N6 N5 1_555 1_555
N7 N6 1_555 1_555
N8 Cd1 1_555 1_555
N9 N8 1_555 1_555
N10 N9 1_555 1_555
C1 H1 1_555 1_555
C2 C1 1_555 1_555
H2 C2 1_555 1_555
C3 N1 1_555 1_555
H3 C3 1_555 1_555
C4 N2 1_555 1_555
H4 C4 1_555 1_555
H5 C4 1_555 1_555
C5 C4 1_555 1_555
H6 C5 1_555 1_555
H7 C5 1_555 1_555
C6 N3 1_555 1_555
H8 C6 1_555 1_555
C7 C6 1_555 1_555
H9 C7 1_555 1_555
C8 N3 1_555 1_555
H10 C8 1_555 1_555
Cd1B N8 1_555 1_555
Cd1B_2 N5 1_555 1_555
Cd1C N4 1_555 1_555
N4C Cd1 1_555 1_555
N5B Cd1 1_555 1_555
N8B Cd1 1_555 1_555
N2 C3 1_555 1_555
N4 C8 1_555 1_555
Cd1B N8B 1_555 1_555
Cd1B_2 N5B 1_555 1_555

#END
