
#######################################################################
#
#                 Cambridge Crystallographic Data Centre
#                                CCDC 
#
#######################################################################
#
# If this CIF has been generated from an entry in the Cambridge 
# Structural Database, then it will include bibliographic, chemical, 
# crystal, experimental, refinement or atomic coordinate data resulting 
# from the CCDC's data processing and validation procedures.
#
#######################################################################

data_LAOXDH
_symmetry_cell_setting           monoclinic
_symmetry_space_group_name_H-M   'P 21/c'
_symmetry_Int_Tables_number      14
_space_group_name_Hall           '-P 2ybc'
loop_
_symmetry_equiv_pos_site_id
_symmetry_equiv_pos_as_xyz
1 x,y,z
2 -x,1/2+y,1/2-z
3 -x,-y,-z
4 x,1/2-y,1/2+z
_cell_length_a                   11.370(9)
_cell_length_b                   9.608(4)
_cell_length_c                   10.490(6)
_cell_angle_alpha                90
_cell_angle_beta                 114.57(5)
_cell_angle_gamma                90
_cell_volume                     1042.2
loop_
_atom_site_label
_atom_site_type_symbol
_atom_site_fract_x
_atom_site_fract_y
_atom_site_fract_z
C1 C -0.00200 0.45060 0.44500
C2 C -0.44470 0.52790 0.57190
C3 C -0.46720 0.43150 0.00550
La1 La -0.31070 0.54640 0.33100
O1 O -0.10930 0.42950 0.33860
O2 O 0.10880 0.38970 0.46320
O3 O -0.33340 0.55400 0.56580
O4 O -0.47060 0.52300 0.67630
O5 O -0.37430 0.39810 0.11300
O6 O -0.50980 0.35800 -0.10970
O7 O -0.20220 0.69400 0.20660
O8 O -0.29050 0.29540 0.42290
O9 O -0.32920 0.79760 0.38450
C1B C 0.00200 0.54940 0.55500
O1B O 0.10930 0.57050 0.66140
O2B O -0.10880 0.61030 0.53680
C2B C -0.55530 0.47210 0.42810
O3B O -0.66660 0.44600 0.43420
O4B O -0.52940 0.47700 0.32370
C3B C -0.53280 0.56850 -0.00550
O5B O -0.62570 0.60190 -0.11300
O6B O -0.49020 0.64200 0.10970
La1B La 0.31070 0.45360 0.66900
O7B O 0.20220 0.30600 0.79340
O8B O 0.29050 0.70460 0.57710
O9B O 0.32920 0.20240 0.61550
La1B_2 La -0.68930 0.45360 0.66900
La1B_3 La -0.68930 0.45360 -0.33100
O3B_2 O 0.33340 0.44600 0.43420
O4_2 O 0.52940 0.52300 0.67630
O5B_2 O 0.37430 0.60190 0.88700
O6_2 O 0.49020 0.35800 0.89030
O10 O 0.06800 0.45920 0.00290
loop_
_geom_bond_atom_site_label_1
_geom_bond_atom_site_label_2
_geom_bond_site_symmetry_1
_geom_bond_site_symmetry_2
C1 O1 1_555 1_555
C2 O3 1_555 1_555
C3 O5 1_555 1_555
La1 O1 1_555 1_555
O2 C1 1_555 1_555
O3 La1 1_555 1_555
O4 C2 1_555 1_555
O5 La1 1_555 1_555
O6 C3 1_555 1_555
O7 La1 1_555 1_555
O8 La1 1_555 1_555
O9 La1 1_555 1_555
C1B C1 1_555 1_555
O1B C1B 1_555 1_555
O2B La1 1_555 1_555
C2B C2 1_555 1_555
O3B C2B 1_555 1_555
O4B La1 1_555 1_555
C3B C3 1_555 1_555
O5B C3B 1_555 1_555
O6B La1 1_555 1_555
La1B O2 1_555 1_555
O7B La1B 1_555 1_555
O8B La1B 1_555 1_555
O9B La1B 1_555 1_555
La1B_2 O4 1_555 1_555
La1B_3 O6 1_555 1_555
O3B_2 La1B 1_555 1_555
O4_2 La1B 1_555 1_555
O5B_2 La1B 1_555 1_555
O6_2 La1B 1_555 1_555
C1B O2B 1_555 1_555
O1B La1B 1_555 1_555
C2B O4B 1_555 1_555
O3B La1B_2 1_555 1_555
C3B O6B 1_555 1_555
O5B La1B_3 1_555 1_555

#END
