
#######################################################################
#
#                 Cambridge Crystallographic Data Centre
#                                CCDC 
#
#######################################################################
#
# If this CIF has been generated from an entry in the Cambridge 
# Structural Database, then it will include bibliographic, chemical, 
# crystal, experimental, refinement or atomic coordinate data resulting 
# from the CCDC's data processing and validation procedures.
#
#######################################################################

data_LAPLET01
_symmetry_cell_setting           monoclinic
_symmetry_space_group_name_H-M   'C 2/c'
_symmetry_Int_Tables_number      15
_space_group_name_Hall           '-C 2yn'
loop_
_symmetry_equiv_pos_site_id
_symmetry_equiv_pos_as_xyz
1 x,y,z
2 -x,y,1/2-z
3 1/2+x,1/2+y,z
4 1/2-x,1/2+y,1/2-z
5 -x,-y,-z
6 x,-y,1/2+z
7 1/2-x,1/2-y,-z
8 1/2+x,1/2-y,1/2+z
_cell_length_a                   9.640(5)
_cell_length_b                   24.97(1)
_cell_length_c                   16.032(7)
_cell_angle_alpha                90
_cell_angle_beta                 106.76(3)
_cell_angle_gamma                90
_cell_volume                     3695.15
loop_
_atom_site_label
_atom_site_type_symbol
_atom_site_fract_x
_atom_site_fract_y
_atom_site_fract_z
Cu1 Cu 0.4126(3) 0.4425(1) 0.0663(2)
S1 S 0.244(1) 0.2813(3) 0.1893(6)
F1 F 0.656(2) 0.2833(7) -0.078(1)
F2 F 0.788(2) 0.3452(8) -0.019(2)
F3 F 0.623(3) 0.3585(8) -0.136(1)
O1 O 0.360(2) 0.3615(6) 0.103(1)
O2 O 0.527(2) 0.3991(6) -0.009(1)
N1 N 0.223(2) 0.4643(8) -0.013(1)
N2 N -0.426(2) 0.5335(8) -0.334(1)
C1 C 0.117(2) 0.4262(7) -0.044(1)
C2 C -0.013(2) 0.439(1) -0.104(1)
C3 C -0.035(2) 0.4903(9) -0.136(2)
C4 C 0.070(2) 0.5306(9) -0.103(1)
C5 C 0.203(3) 0.513(1) -0.040(1)
C6 C -0.345(2) 0.569(1) -0.281(2)
C7 C -0.219(2) 0.559(1) -0.216(1)
C8 C -0.174(3) 0.505(1) -0.203(2)
C9 C -0.264(3) 0.467(1) -0.253(2)
C10 C -0.382(3) 0.482(1) -0.320(2)
C11 C 0.549(3) 0.351(1) -0.009(2)
C12 C 0.503(3) 0.310(1) 0.037(2)
C13 C 0.408(3) 0.316(1) 0.084(2)
C14 C 0.359(3) 0.272(1) 0.126(2)
C15 C 0.391(3) 0.217(1) 0.118(2)
C16 C 0.316(4) 0.185(1) 0.172(2)
C17 C 0.235(4) 0.216(1) 0.210(2)
C18 C 0.655(3) 0.334(1) -0.061(2)
H1 H 0.1358 0.3905 -0.0191
H2 H -0.0892 0.4115 -0.1237
H3 H 0.0511 0.5671 -0.1224
H4 H 0.2832 0.5378 -0.0212
H5 H -0.3866 0.6061 -0.2886
H6 H -0.1632 0.5891 -0.1827
H7 H -0.2467 0.4286 -0.2398
H8 H -0.4354 0.4539 -0.3597
H9 H 0.5440 0.2738 0.0350
H10 H 0.4577 0.2019 0.0864
H11 H 0.3199 0.1456 0.1791
H12 H 0.1785 0.2006 0.2475
N2E N 0.574(2) 0.4665(8) 0.166(1)
Cu1E Cu -0.5874(3) 0.5575(1) -0.4337(2)
loop_
_geom_bond_atom_site_label_1
_geom_bond_atom_site_label_2
_geom_bond_site_symmetry_1
_geom_bond_site_symmetry_2
Cu1 O1 1_555 1_555
S1 C14 1_555 1_555
F1 C18 1_555 1_555
F2 C18 1_555 1_555
F3 C18 1_555 1_555
O1 C13 1_555 1_555
O2 Cu1 1_555 1_555
N1 Cu1 1_555 1_555
N2 C6 1_555 1_555
C1 N1 1_555 1_555
C2 C1 1_555 1_555
C3 C2 1_555 1_555
C4 C3 1_555 1_555
C5 N1 1_555 1_555
C6 C7 1_555 1_555
C7 C8 1_555 1_555
C8 C3 1_555 1_555
C9 C8 1_555 1_555
C10 N2 1_555 1_555
C11 O2 1_555 1_555
C12 C11 1_555 1_555
C13 C12 1_555 1_555
C14 C13 1_555 1_555
C15 C14 1_555 1_555
C16 C15 1_555 1_555
C17 S1 1_555 1_555
C18 C11 1_555 1_555
H1 C1 1_555 1_555
H2 C2 1_555 1_555
H3 C4 1_555 1_555
H4 C5 1_555 1_555
H5 C6 1_555 1_555
H6 C7 1_555 1_555
H7 C9 1_555 1_555
H8 C10 1_555 1_555
H9 C12 1_555 1_555
H10 C15 1_555 1_555
H11 C16 1_555 1_555
H12 C17 1_555 1_555
N2E Cu1 1_555 1_555
Cu1E N2 1_555 1_555
C4 C5 1_555 1_555
C9 C10 1_555 1_555
C16 C17 1_555 1_555

#END
