
#######################################################################
#
#                 Cambridge Crystallographic Data Centre
#                                CCDC 
#
#######################################################################
#
# If this CIF has been generated from an entry in the Cambridge 
# Structural Database, then it will include bibliographic, chemical, 
# crystal, experimental, refinement or atomic coordinate data resulting 
# from the CCDC's data processing and validation procedures.
#
#######################################################################

data_LAPQID
_symmetry_cell_setting           monoclinic
_symmetry_space_group_name_H-M   'P 2/c'
_symmetry_Int_Tables_number      13
_space_group_name_Hall           '-P 2yc'
loop_
_symmetry_equiv_pos_site_id
_symmetry_equiv_pos_as_xyz
1 x,y,z
2 -x,y,1/2-z
3 -x,-y,-z
4 x,-y,1/2+z
_cell_length_a                   6.24770(10)
_cell_length_b                   8.4165(2)
_cell_length_c                   15.0632(4)
_cell_angle_alpha                90
_cell_angle_beta                 101.7797(11)
_cell_angle_gamma                90
_cell_volume                     775.398
loop_
_atom_site_label
_atom_site_type_symbol
_atom_site_fract_x
_atom_site_fract_y
_atom_site_fract_z
Ag1 Ag 0.5000 0.33677(3) 0.2500
N1 N 0.4595(3) 0.3001(2) 0.10404(13)
N2 N 0.9190(3) 0.0438(3) 0.01445(12)
N3 N 0.0000 0.4604(4) 0.2500
O1 O 0.1564(3) 0.5346(3) 0.23066(15)
O2 O 0.0000 0.3143(4) 0.2500
C1 C 0.6112(4) 0.2215(3) 0.07096(14)
H1 H 0.7302 0.1804 0.1118
C2 C 0.2879(4) 0.3593(3) 0.04471(18)
H2 H 0.1795 0.4129 0.0668
C3 C 0.2671(4) 0.3435(3) -0.04690(19)
H3 H 0.1472 0.3870 -0.0862
C4 C 0.4251(4) 0.2626(3) -0.08076(15)
H4 H 0.4131 0.2520 -0.1430
C5 C 0.6019(4) 0.1974(3) -0.02116(14)
C6 C 0.7760(4) 0.1034(3) -0.05064(14)
C7 C 0.7731(5) 0.0836(4) -0.14975(15)
H5 H 0.8868 0.0114 -0.1575
H6 H 0.7967 0.1848 -0.1756
H7 H 0.6339 0.0420 -0.1796
Ag1C Ag 1.5000 -0.33677(3) -0.2500
Ag1_2 Ag -0.5000 0.33677(3) 0.2500
N1B N 1.5405(3) -0.3001(2) -0.10404(13)
N1A N 0.5405(3) 0.3001(2) 0.39596(13)
N2B N 1.0810(3) -0.0438(3) -0.01445(12)
O1A O -0.1564(3) 0.5346(3) 0.26934(15)
O1A_2 O 0.8436(3) 0.5346(3) 0.26934(15)
C1B C 1.3888(4) -0.2215(3) -0.07096(14)
H1B H 1.2698 -0.1804 -0.1118
C2B C 1.7121(4) -0.3593(3) -0.04471(18)
H2B H 1.8205 -0.4129 -0.0668
C3B C 1.7329(4) -0.3435(3) 0.04690(19)
H3B H 1.8528 -0.3870 0.0862
C4B C 1.5749(4) -0.2626(3) 0.08076(15)
H4B H 1.5869 -0.2520 0.1430
C5B C 1.3981(4) -0.1974(3) 0.02116(14)
C6B C 1.2240(4) -0.1034(3) 0.05064(14)
C7B C 1.2269(5) -0.0836(4) 0.14975(15)
H5B H 1.1132 -0.0114 0.1575
H6B H 1.2033 -0.1848 0.1756
H7B H 1.3661 -0.0420 0.1796
loop_
_geom_bond_atom_site_label_1
_geom_bond_atom_site_label_2
_geom_bond_site_symmetry_1
_geom_bond_site_symmetry_2
Ag1 N1 1_555 1_555
N1 C1 1_555 1_555
N2 C6 1_555 1_555
N3 O1 1_555 1_555
O1 Ag1 1_555 1_555
O2 N3 1_555 1_555
C1 H1 1_555 1_555
C2 N1 1_555 1_555
H2 C2 1_555 1_555
C3 C2 1_555 1_555
H3 C3 1_555 1_555
C4 C3 1_555 1_555
H4 C4 1_555 1_555
C5 C1 1_555 1_555
C6 C5 1_555 1_555
C7 C6 1_555 1_555
H5 C7 1_555 1_555
H6 C7 1_555 1_555
H7 C7 1_555 1_555
Ag1C N1B 1_555 1_555
Ag1_2 O1A 1_555 1_555
N1B C1B 1_555 1_555
N1A Ag1 1_555 1_555
N2B N2 1_555 1_555
O1A N3 1_555 1_555
O1A_2 Ag1 1_555 1_555
C1B H1B 1_555 1_555
C2B N1B 1_555 1_555
H2B C2B 1_555 1_555
C3B C2B 1_555 1_555
H3B C3B 1_555 1_555
C4B C3B 1_555 1_555
H4B C4B 1_555 1_555
C5B C1B 1_555 1_555
C6B N2B 1_555 1_555
C7B C6B 1_555 1_555
H5B C7B 1_555 1_555
H6B C7B 1_555 1_555
H7B C7B 1_555 1_555
C4 C5 1_555 1_555
C4B C5B 1_555 1_555
C5B C6B 1_555 1_555

#END
