
#######################################################################
#
#                 Cambridge Crystallographic Data Centre
#                                CCDC 
#
#######################################################################
#
# If this CIF has been generated from an entry in the Cambridge 
# Structural Database, then it will include bibliographic, chemical, 
# crystal, experimental, refinement or atomic coordinate data resulting 
# from the CCDC's data processing and validation procedures.
#
#######################################################################

data_LAQFUF
_symmetry_cell_setting           monoclinic
_symmetry_space_group_name_H-M   'P 21/c'
_symmetry_Int_Tables_number      14
_space_group_name_Hall           '-P 2ybc'
loop_
_symmetry_equiv_pos_site_id
_symmetry_equiv_pos_as_xyz
1 x,y,z
2 -x,1/2+y,1/2-z
3 -x,-y,-z
4 x,1/2-y,1/2+z
_cell_length_a                   6.757(1)
_cell_length_b                   13.211(1)
_cell_length_c                   13.112(1)
_cell_angle_alpha                90
_cell_angle_beta                 90.03(1)
_cell_angle_gamma                90
_cell_volume                     1170.47
loop_
_atom_site_label
_atom_site_type_symbol
_atom_site_fract_x
_atom_site_fract_y
_atom_site_fract_z
Ag1 Ag 0.25538(8) 0.49375(5) 0.02823(4)
S1 S 0.4871(3) 0.65417(10) -0.00368(16)
S2 S -0.0475(2) 0.49870(14) 0.15062(11)
N1 N 0.5146(8) 0.6376(4) 0.2056(4)
N2 N 0.4615(10) 0.5355(4) 0.2085(5)
H1 H 0.564(11) 0.503(7) 0.216(6)
H2 H 0.391(11) 0.522(6) 0.262(6)
N3 N 0.5850(9) 0.7937(4) 0.2550(4)
N4 N 0.5712(9) 0.7860(4) 0.1499(4)
H3 H 0.606(11) 0.845(6) 0.108(6)
N5 N -0.0335(8) 0.2894(4) 0.1381(4)
N6 N 0.0135(10) 0.2863(4) 0.0336(4)
H4 H 0.080(11) 0.230(6) 0.028(6)
H5 H -0.098(12) 0.295(6) 0.003(6)
N7 N -0.0863(9) 0.2416(4) 0.2966(5)
N8 N -0.0905(8) 0.3451(4) 0.2871(4)
H6 H -0.118(12) 0.385(6) 0.336(6)
C1 C 0.5252(9) 0.6911(5) 0.1171(5)
C2 C 0.5504(11) 0.7012(5) 0.2859(5)
H7 H 0.5501 0.6808 0.3554
C3 C -0.0558(9) 0.3767(4) 0.1913(5)
C4 C -0.0498(10) 0.2108(5) 0.2040(6)
H8 H -0.0363 0.1417 0.1851
Ag1B Ag 0.74462(8) 0.50625(5) -0.02823(4)
Ag1B_2 Ag -0.25538(8) 0.50625(5) -0.02823(4)
S1B S 0.5129(3) 0.34583(10) 0.00368(16)
S2B S 0.0475(2) 0.50130(14) -0.15062(11)
N9 N -0.2499(7) 0.4965(5) 0.5023(4)
O1 O -0.2923(10) 0.5255(4) 0.5888(4)
O2 O -0.2362(11) 0.4072(4) 0.4844(6)
O3 O -0.2222(12) 0.5593(7) 0.4354(6)
loop_
_geom_bond_atom_site_label_1
_geom_bond_atom_site_label_2
_geom_bond_site_symmetry_1
_geom_bond_site_symmetry_2
Ag1 S1 1_555 1_555
S1 C1 1_555 1_555
S2 Ag1 1_555 1_555
N1 N2 1_555 1_555
N2 H1 1_555 1_555
H2 N2 1_555 1_555
N3 N4 1_555 1_555
N4 H3 1_555 1_555
N5 N6 1_555 1_555
N6 H4 1_555 1_555
H5 N6 1_555 1_555
N7 N8 1_555 1_555
N8 H6 1_555 1_555
C1 N1 1_555 1_555
C2 N1 1_555 1_555
H7 C2 1_555 1_555
C3 S2 1_555 1_555
C4 N5 1_555 1_555
H8 C4 1_555 1_555
N9 O1 1_555 1_555
O2 N9 1_555 1_555
O3 N9 1_555 1_555
Ag1B S1 1_555 1_555
Ag1B_2 S2 1_555 1_555
S1B Ag1 1_555 1_555
S2B Ag1 1_555 1_555
N3 C2 1_555 1_555
N4 C1 1_555 1_555
N5 C3 1_555 1_555
N7 C4 1_555 1_555
N8 C3 1_555 1_555
Ag1B S1B 1_555 1_555
Ag1B_2 S2B 1_555 1_555

#END
