
#######################################################################
#
#                 Cambridge Crystallographic Data Centre
#                                CCDC 
#
#######################################################################
#
# If this CIF has been generated from an entry in the Cambridge 
# Structural Database, then it will include bibliographic, chemical, 
# crystal, experimental, refinement or atomic coordinate data resulting 
# from the CCDC's data processing and validation procedures.
#
#######################################################################

data_LAQPAV
_symmetry_cell_setting           monoclinic
_symmetry_space_group_name_H-M   'C 2/c'
_symmetry_Int_Tables_number      15
_space_group_name_Hall           '-C 2yn'
loop_
_symmetry_equiv_pos_site_id
_symmetry_equiv_pos_as_xyz
1 x,y,z
2 1/2+x,1/2+y,z
3 -x,y,1/2-z
4 1/2-x,1/2+y,1/2-z
5 -x,-y,-z
6 1/2-x,1/2-y,-z
7 x,-y,1/2+z
8 1/2+x,1/2-y,1/2+z
_cell_length_a                   16.119(2)
_cell_length_b                   8.8952(13)
_cell_length_c                   14.195(2)
_cell_angle_alpha                90
_cell_angle_beta                 118.507(2)
_cell_angle_gamma                90
_cell_volume                     1788.54
loop_
_atom_site_label
_atom_site_type_symbol
_atom_site_fract_x
_atom_site_fract_y
_atom_site_fract_z
Co1 Co 1.0000 1.0000 0.0000
C1 C 0.8650(5) 0.8033(9) 0.3073(7)
C2 C 0.8949(5) 0.8158(9) 0.1500(6)
H1 H 0.9211 0.9108 0.1723
C3 C 0.8928(5) 0.7489(9) 0.0606(6)
C4 C 0.8573(5) 0.7384(8) 0.2048(6)
C5 C 0.9098(6) 0.6840(9) -0.0763(6)
H2 H 0.9264 0.6857 -0.1307
C6 C 0.8138(7) 0.5257(9) 0.0821(8)
H3 H 0.7867 0.4314 0.0591
C7 C 0.8543(6) 0.6034(9) 0.0295(6)
C8 C 0.8156(6) 0.5943(9) 0.1695(6)
H4 H 0.7890 0.5455 0.2066
N1 N 0.8669(6) 0.5690(8) -0.0582(6)
N2 N 0.9262(5) 0.7963(7) -0.0083(5)
O1 O 0.9213(5) 1.1346(7) 0.0501(5)
H5 H 0.8990 1.2060 0.0091
O2 O 0.9051(4) 0.9308(6) 0.3365(4)
O3 O 0.8350(4) 0.7286(6) 0.3582(4)
H6 H 0.859(6) 0.494(10) -0.079(7)
H7 H 0.897(5) 1.140(8) 0.098(6)
Co1F Co 1.0000 1.0000 0.5000
Co1F_2 Co 1.0000 1.0000 -0.5000
C1D C 1.1350(5) 1.1967(9) -0.3073(7)
C2D C 1.1051(5) 1.1842(9) -0.1500(6)
H1D H 1.0789 1.0892 -0.1723
C3D C 1.1072(5) 1.2511(9) -0.0606(6)
C4D C 1.1427(5) 1.2616(8) -0.2048(6)
C5D C 1.0902(6) 1.3160(9) 0.0763(6)
H2D H 1.0736 1.3143 0.1307
C6D C 1.1862(7) 1.4743(9) -0.0821(8)
H3D H 1.2133 1.5686 -0.0591
C7D C 1.1457(6) 1.3966(9) -0.0295(6)
C8D C 1.1844(6) 1.4057(9) -0.1695(6)
H4D H 1.2110 1.4545 -0.2066
N1D N 1.1331(6) 1.4310(8) 0.0582(6)
N2D N 1.0738(5) 1.2037(7) 0.0083(5)
O1D O 1.0787(5) 0.8654(7) -0.0501(5)
H5D H 1.1010 0.7940 -0.0091
O2D O 1.0949(4) 1.0692(6) -0.3365(4)
O2F O 0.9051(4) 1.0692(6) -0.1635(4)
O2B O 1.0949(4) 0.9308(6) 0.1635(4)
O3D O 1.1650(4) 1.2714(6) -0.3582(4)
H6D H 1.141(6) 1.506(10) 0.079(7)
H7D H 1.103(5) 0.860(8) -0.098(6)
O4 O 0.8550(5) 0.1678(8) 0.1934(6)
H8 H 0.857(7) 0.089(7) 0.227(7)
H9 H 0.805(4) 0.212(9) 0.182(7)
loop_
_geom_bond_atom_site_label_1
_geom_bond_atom_site_label_2
_geom_bond_site_symmetry_1
_geom_bond_site_symmetry_2
Co1 N2 1_555 1_555
C1 C4 1_555 1_555
C2 H1 1_555 1_555
C3 C2 1_555 1_555
C4 C2 1_555 1_555
C5 H2 1_555 1_555
C6 H3 1_555 1_555
C7 C3 1_555 1_555
C8 C4 1_555 1_555
H4 C8 1_555 1_555
N1 C5 1_555 1_555
N2 C3 1_555 1_555
O1 Co1 1_555 1_555
H5 O1 1_555 1_555
O2 C1 1_555 1_555
O3 C1 1_555 1_555
O4 H8 1_555 1_555
H6 N1 1_555 1_555
H7 O1 1_555 1_555
H9 O4 1_555 1_555
Co1F O2 1_555 1_555
Co1F_2 O2D 1_555 1_555
C1D C4D 1_555 1_555
C2D H1D 1_555 1_555
C3D C2D 1_555 1_555
C4D C2D 1_555 1_555
C5D H2D 1_555 1_555
C6D H3D 1_555 1_555
C7D C3D 1_555 1_555
C8D C4D 1_555 1_555
H4D C8D 1_555 1_555
N1D C5D 1_555 1_555
N2D Co1 1_555 1_555
O1D Co1 1_555 1_555
H5D O1D 1_555 1_555
O2D C1D 1_555 1_555
O2F Co1 1_555 1_555
O2B Co1 1_555 1_555
O3D C1D 1_555 1_555
H6D N1D 1_555 1_555
H7D O1D 1_555 1_555
C5 N2 1_555 1_555
C6 C7 1_555 1_555
C6 C8 1_555 1_555
C7 N1 1_555 1_555
C3D N2D 1_555 1_555
C5D N2D 1_555 1_555
C6D C7D 1_555 1_555
C6D C8D 1_555 1_555
C7D N1D 1_555 1_555

#END
