
#######################################################################
#
#                 Cambridge Crystallographic Data Centre
#                                CCDC 
#
#######################################################################
#
# If this CIF has been generated from an entry in the Cambridge 
# Structural Database, then it will include bibliographic, chemical, 
# crystal, experimental, refinement or atomic coordinate data resulting 
# from the CCDC's data processing and validation procedures.
#
#######################################################################

data_LARBOW01
_symmetry_cell_setting           monoclinic
_symmetry_space_group_name_H-M   'P 21/c'
_symmetry_Int_Tables_number      14
_space_group_name_Hall           '-P 2ybc'
loop_
_symmetry_equiv_pos_site_id
_symmetry_equiv_pos_as_xyz
1 x,y,z
2 -x,1/2+y,1/2-z
3 -x,-y,-z
4 x,1/2-y,1/2+z
_cell_length_a                   12.470(3)
_cell_length_b                   7.3738(17)
_cell_length_c                   10.760(3)
_cell_angle_alpha                90
_cell_angle_beta                 107.110(4)
_cell_angle_gamma                90
_cell_volume                     945.607
loop_
_atom_site_label
_atom_site_type_symbol
_atom_site_fract_x
_atom_site_fract_y
_atom_site_fract_z
Cd1 Cd 0.15813(2) 0.02530(4) 0.13853(3)
O1 O 0.3443(2) 0.0221(4) 0.1926(3)
O2 O 0.2836(2) 0.2036(5) 0.3181(3)
O3 O 0.1546(3) 0.2448(5) -0.0182(3)
N1 N 0.8734(3) 0.1838(5) 0.7091(3)
N2 N 0.9785(3) 0.2522(5) 0.7378(3)
N3 N 0.9901(3) 0.3379(5) 0.6362(3)
N4 N 0.8932(3) 0.3266(5) 0.5380(3)
C1 C 0.6774(3) 0.0893(6) 0.4023(4)
H1 H 0.7337 0.0336 0.3755
C2 C 0.5661(3) 0.0652(6) 0.3323(4)
H2 H 0.5474 -0.0101 0.2598
C3 C 0.4818(3) 0.1537(5) 0.3703(4)
C4 C 0.5092(3) 0.2588(6) 0.4804(4)
H3 H 0.4529 0.3151 0.5069
C5 C 0.6205(3) 0.2812(6) 0.5521(4)
H4 H 0.6389 0.3526 0.6266
C6 C 0.7046(3) 0.1967(5) 0.5126(4)
C7 C 0.3616(3) 0.1250(5) 0.2896(4)
C8 C 0.8232(3) 0.2321(5) 0.5859(4)
H5 H 0.202(5) 0.253(9) -0.039(6)
H6 H 0.096(6) 0.255(9) -0.079(6)
Cd1B Cd 0.84187(2) -0.02530(4) 0.86147(3)
Cd1C Cd 1.15813(2) 0.47470(4) 0.63853(3)
Cd1A Cd 0.84187(2) 0.52530(4) 0.36147(3)
N1B N 0.1266(3) -0.1838(5) 0.2909(3)
N3C N -0.0099(3) 0.1621(5) 0.1362(3)
N4A N 0.1068(3) -0.1734(5) -0.0380(3)
loop_
_geom_bond_atom_site_label_1
_geom_bond_atom_site_label_2
_geom_bond_site_symmetry_1
_geom_bond_site_symmetry_2
Cd1 O1 1_555 1_555
O1 C7 1_555 1_555
O2 Cd1 1_555 1_555
O3 Cd1 1_555 1_555
N1 N2 1_555 1_555
N2 N3 1_555 1_555
N3 N4 1_555 1_555
N4 C8 1_555 1_555
C1 H1 1_555 1_555
C2 C1 1_555 1_555
H2 C2 1_555 1_555
C3 C2 1_555 1_555
C4 C3 1_555 1_555
H3 C4 1_555 1_555
C5 C4 1_555 1_555
H4 C5 1_555 1_555
C6 C1 1_555 1_555
C7 O2 1_555 1_555
C8 N1 1_555 1_555
H5 O3 1_555 1_555
H6 O3 1_555 1_555
Cd1B N1 1_555 1_555
Cd1C N3 1_555 1_555
Cd1A N4 1_555 1_555
N1B Cd1 1_555 1_555
N3C Cd1 1_555 1_555
N4A Cd1 1_555 1_555
C3 C7 1_555 1_555
C5 C6 1_555 1_555
C6 C8 1_555 1_555

#END
