
#######################################################################
#
#                 Cambridge Crystallographic Data Centre
#                                CCDC 
#
#######################################################################
#
# If this CIF has been generated from an entry in the Cambridge 
# Structural Database, then it will include bibliographic, chemical, 
# crystal, experimental, refinement or atomic coordinate data resulting 
# from the CCDC's data processing and validation procedures.
#
#######################################################################

data_LARDAL
_symmetry_cell_setting           monoclinic
_symmetry_space_group_name_H-M   'P 21'
_symmetry_Int_Tables_number      4
_space_group_name_Hall           'P 2yb'
loop_
_symmetry_equiv_pos_site_id
_symmetry_equiv_pos_as_xyz
1 x,y,z
2 -x,1/2+y,-z
_cell_length_a                   11.3478(13)
_cell_length_b                   24.0164(16)
_cell_length_c                   20.6607(17)
_cell_angle_alpha                90
_cell_angle_beta                 102.060(9)
_cell_angle_gamma                90
_cell_volume                     5506.45
loop_
_atom_site_label
_atom_site_type_symbol
_atom_site_fract_x
_atom_site_fract_y
_atom_site_fract_z
Gd1 Gd 0.01353(6) 0.35614(7) -0.09757(3)
Gd2 Gd 0.11367(6) 0.41199(7) 0.06602(4)
Gd3 Gd 0.09057(6) 0.26600(7) 0.04158(4)
Cu1 Cu -0.43171(14) 0.35427(11) -0.00261(9)
C1 C 0.1738(18) 0.1256(7) 0.0113(9)
O1 O 0.0928(12) 0.1685(6) -0.0137(7)
C2 C 0.0280(16) 0.1638(6) -0.0807(9)
C3 C -0.0004(17) 0.1144(9) -0.1148(10)
C4 C -0.058(3) 0.1177(13) -0.1824(10)
C5 C -0.0805(18) 0.1679(13) -0.2128(10)
C6 C -0.0502(12) 0.2207(7) -0.1785(7)
C7 C 0.0005(12) 0.2162(7) -0.1123(7)
O2 O 0.0281(8) 0.2614(4) -0.0762(4)
C8 C -0.0706(16) 0.2644(11) -0.2187(13)
O3 O -0.0470(12) 0.3121(8) -0.2024(6)
C9 C 0.180(2) 0.4679(11) 0.2255(12)
O4 O 0.1762(13) 0.4210(7) 0.1908(7)
C10 C 0.2096(12) 0.3717(8) 0.2301(8)
C11 C 0.2567(18) 0.3723(10) 0.2962(10)
C12 C 0.2813(18) 0.3214(10) 0.3305(9)
C13 C 0.2618(16) 0.2748(10) 0.2938(9)
C14 C 0.2139(13) 0.2748(8) 0.2249(7)
C15 C 0.1876(13) 0.3267(7) 0.1942(7)
O5 O 0.1500(8) 0.3298(4) 0.1269(5)
C16 C 0.1905(14) 0.2244(10) 0.1917(10)
O6 O 0.1463(11) 0.2105(6) 0.1375(5)
C17 C -0.197(2) 0.4484(13) -0.2083(12)
O7 O -0.1013(15) 0.4426(8) -0.1562(7)
C18 C -0.031(2) 0.4995(12) -0.1302(12)
C19 C -0.054(2) 0.5540(11) -0.1587(12)
C20 C 0.030(3) 0.5975(11) -0.1175(14)
C21 C 0.096(3) 0.5902(10) -0.0652(15)
C22 C 0.103(2) 0.5401(9) -0.0326(14)
C23 C 0.0344(15) 0.4953(8) -0.0722(9)
O8 O 0.0475(10) 0.4433(6) -0.0434(6)
C24 C 0.174(2) 0.5355(11) 0.0263(13)
O9 O 0.1887(13) 0.5041(7) 0.0635(8)
N1 N 0.2112(12) 0.3751(7) -0.1697(7)
O10 O 0.1289(11) 0.4104(6) -0.1699(6)
O11 O 0.2127(10) 0.3323(5) -0.1372(6)
O12 O 0.2953(12) 0.3841(6) -0.1992(7)
N2 N -0.1098(11) 0.4542(7) 0.1065(8)
O13 O -0.0409(10) 0.4813(5) 0.0801(7)
O14 O -0.0830(10) 0.4070(5) 0.1199(6)
O15 O -0.2055(10) 0.4760(6) 0.1195(7)
N3 N -0.1521(13) 0.2402(6) 0.0698(7)
O16 O -0.1151(10) 0.2230(6) 0.0208(6)
O17 O -0.0720(12) 0.2661(7) 0.1096(7)
O18 O -0.2512(12) 0.2318(8) 0.0809(9)
N4 N 0.3691(13) 0.2437(6) 0.0167(10)
O19 O 0.3072(10) 0.2452(6) 0.0652(7)
O20 O 0.3199(12) 0.2433(5) -0.0410(6)
O21 O 0.4854(12) 0.2457(9) 0.0379(7)
O22 O 0.1717(7) 0.3445(4) -0.0049(5)
O23 O -0.0290(6) 0.3458(4) 0.0107(4)
O24 O 0.3307(9) 0.4134(6) 0.0945(6)
C25 C 0.4171(12) 0.3931(7) 0.0765(8)
O25 O 0.4124(8) 0.3722(6) 0.0184(5)
C26 C 0.5456(14) 0.3962(8) 0.1229(9)
C27 C 0.5324(13) 0.3766(9) 0.1935(9)
C28 C 0.5055(18) 0.3198(10) 0.1968(9)
C29 C 0.6464(18) 0.3955(15) 0.2427(11)
N5 N 0.6297(11) 0.3660(7) 0.0925(7)
O26 O -0.2790(7) 0.3410(5) -0.0275(5)
C30 C -0.2843(13) 0.3339(7) -0.0893(7)
O27 O -0.1962(9) 0.3380(7) -0.1159(6)
C31 C -0.4049(17) 0.3215(14) -0.1318(12)
C32 C -0.408(2) 0.2650(15) -0.1670(13)
C33 C -0.358(3) 0.2161(16) -0.1229(16)
C34 C -0.515(2) 0.2700(17) -0.2178(15)
N6 N -0.4981(12) 0.3202(10) -0.0928(7)
O28 O -0.4181(15) 0.4468(6) -0.0358(8)
C35 C -0.317(2) 0.4742(11) -0.0534(12)
H1 H 0.2156 0.1335 0.0568
H2 H 0.2330 0.1211 -0.0163
H3 H 0.1278 0.0916 0.0107
H4 H 0.0202 0.0795 -0.0936
H5 H -0.0804 0.0850 -0.2073
H6 H -0.1215 0.1682 -0.2579
H7 H -0.1107 0.2594 -0.2641
H8 H 0.2750 0.4049 0.3208
H9 H 0.3123 0.3188 0.3764
H10 H 0.2782 0.2406 0.3149
H11 H 0.2062 0.1923 0.2194
H12 H -0.2389 0.4120 -0.2177
H13 H -0.1745 0.4604 -0.2493
H14 H -0.2538 0.4746 -0.1969
H15 H 0.0211 0.6328 -0.1381
H16 H 0.1509 0.6198 -0.0447
H17 H 0.5721 0.4358 0.1280
H18 H 0.4617 0.3955 0.2047
H19 H 0.4789 0.3104 0.2375
H20 H 0.5795 0.2981 0.1961
H21 H 0.4434 0.3092 0.1586
H22 H 0.6320 0.3879 0.2871
H23 H 0.6624 0.4348 0.2391
H24 H 0.7161 0.3742 0.2369
H25 H -0.4272 0.3538 -0.1628
H26 H -0.3391 0.2690 -0.1896
H27 H -0.5114 0.2403 -0.2496
H28 H -0.5290 0.3055 -0.2432
H29 H -0.5832 0.2643 -0.1973
H67 H 0.2214 0.5694 0.0406
H68 H -0.3432 0.5109 -0.0684
H69 H -0.2571 0.4770 -0.0127
H70 H -0.2815 0.4564 -0.0865
H71 H -0.4982 0.4589 -0.0572
H72 H -0.1110 0.3475 0.0164
H73 H 0.2536 0.3435 -0.0110
H79 H -0.1117 0.5580 -0.1999
H80 H -0.3637 0.1829 -0.1483
H81 H -0.2763 0.2233 -0.1032
H82 H -0.4032 0.2120 -0.0893
H83 H 0.1572 0.4984 0.1963
H84 H 0.2582 0.4741 0.2514
H85 H 0.1242 0.4643 0.2538
H86 H -0.5672 0.3402 -0.1149
H87 H -0.5216 0.2822 -0.0876
H88 H 0.7039 0.3859 0.0990
H89 H 0.6450 0.3304 0.1139
Cu1_2 Cu 0.56829(14) 0.35427(11) -0.00261(9)
O25_2 O -0.5876(8) 0.3722(6) 0.0184(5)
N5_2 N -0.3703(11) 0.3660(7) 0.0925(7)
H88_2 H -0.2961 0.3859 0.0990
H89_2 H -0.3550 0.3304 0.1139
Gd4 Gd -0.07753(7) 0.55464(7) 0.44016(4)
Gd5 Gd 0.01216(7) 0.61154(7) 0.60306(3)
Gd6 Gd -0.06503(9) 0.70103(8) 0.46124(5)
Cu2 Cu -0.5364(2) 0.57411(16) 0.50872(11)
C36 C -0.162(2) 0.7886(9) 0.3187(12)
O29 O -0.1339(14) 0.7360(7) 0.3410(8)
C37 C -0.174(2) 0.6956(11) 0.2878(10)
C38 C -0.2242(19) 0.7067(11) 0.2194(9)
C39 C -0.2520(19) 0.6633(10) 0.1802(8)
C40 C -0.2261(19) 0.6095(13) 0.1988(9)
C41 C -0.1800(14) 0.5984(9) 0.2666(9)
C42 C -0.1525(11) 0.6427(9) 0.3095(8)
O30 O -0.1060(11) 0.6350(8) 0.3754(6)
C43 C -0.1584(19) 0.5367(13) 0.2806(9)
O31 O -0.1218(13) 0.5175(9) 0.3296(6)
C44 C 0.168(3) 0.6720(12) 0.7561(12)
O32 O 0.1024(16) 0.6799(8) 0.6931(8)
C45 C 0.072(2) 0.7426(11) 0.6849(11)
C46 C 0.0870(17) 0.7807(12) 0.7297(11)
C47 C 0.0548(19) 0.8331(13) 0.7129(12)
C48 C 0.0068(17) 0.8473(7) 0.6493(14)
C49 C -0.0090(14) 0.8033(10) 0.5977(9)
C50 C 0.0219(12) 0.7518(7) 0.6201(8)
O33 O 0.0017(12) 0.7067(6) 0.5766(7)
C51 C -0.061(3) 0.8187(18) 0.5297(13)
O34 O -0.0766(19) 0.7950(7) 0.4836(11)
C52 C -0.225(2) 0.4214(13) 0.4317(13)
O35 O -0.1498(13) 0.4587(7) 0.4709(7)
C53 C -0.1148(14) 0.4365(8) 0.5340(9)
C54 C -0.144(2) 0.3846(10) 0.5557(11)
C55 C -0.098(3) 0.3720(8) 0.6292(11)
C56 C -0.036(2) 0.4071(10) 0.6663(11)
C57 C -0.012(2) 0.4627(8) 0.6433(8)
C58 C -0.0386(19) 0.4757(8) 0.5751(11)
O36 O -0.0177(12) 0.5254(5) 0.5515(6)
C59 C 0.057(2) 0.4958(10) 0.6982(13)
O37 O 0.0654(13) 0.5443(7) 0.6897(7)
N7 N 0.1479(17) 0.5090(10) 0.4054(10)
O38 O 0.1161(14) 0.5601(9) 0.3899(8)
O39 O 0.0816(15) 0.4817(7) 0.4393(9)
O40 O 0.2455(15) 0.4882(9) 0.4009(11)
N8 N -0.2037(12) 0.6035(7) 0.6677(7)
O41 O -0.1310(14) 0.6440(6) 0.6737(7)
O42 O -0.1881(13) 0.5649(6) 0.6293(6)
O43 O -0.2841(12) 0.6017(9) 0.6987(8)
N9 N 0.1756(11) 0.7197(4) 0.4261(6)
O44 O 0.1456(15) 0.7412(5) 0.4754(8)
O45 O 0.1012(15) 0.6948(5) 0.3854(7)
O46 O 0.2849(14) 0.7241(5) 0.4179(8)
O47 O -0.2875(18) 0.7198(9) 0.4473(12)
O48 O 0.0583(8) 0.6207(5) 0.4973(5)
O49 O -0.1463(9) 0.6245(5) 0.5081(5)
O50 O 0.2267(11) 0.5969(7) 0.6219(6)
C60 C 0.3104(14) 0.5830(8) 0.5946(9)
O51 O 0.3095(11) 0.5873(7) 0.5343(6)
C61 C 0.4212(16) 0.5562(10) 0.6387(8)
C62 C 0.3837(19) 0.5088(11) 0.6810(10)
C63 C 0.497(3) 0.4860(14) 0.7271(11)
C64 C 0.326(3) 0.4618(11) 0.6440(14)
N10 N 0.5062(14) 0.5392(7) 0.5940(7)
O52 O -0.3904(13) 0.5475(10) 0.4781(8)
C65 C -0.3788(17) 0.5640(15) 0.4245(11)
O53 O -0.2889(10) 0.5569(8) 0.4011(7)
C66 C -0.4835(17) 0.5958(10) 0.3834(9)
C67 C -0.515(2) 0.5723(14) 0.3116(9)
C68 C -0.525(3) 0.5146(16) 0.3035(15)
C69 C -0.619(3) 0.5990(18) 0.2697(13)
N11 N -0.5913(19) 0.5935(9) 0.4154(11)
H30 H -0.1252 0.8134 0.3547
H31 H -0.2507 0.7920 0.3124
H32 H -0.1385 0.7996 0.2781
H33 H -0.2390 0.7439 0.2037
H34 H -0.2950 0.6699 0.1363
H35 H -0.2403 0.5797 0.1681
H36 H -0.1761 0.5120 0.2436
H37 H 0.2040 0.6348 0.7545
H38 H 0.1228 0.6722 0.7911
H39 H 0.2314 0.6991 0.7654
H40 H 0.1195 0.7724 0.7752
H41 H 0.0608 0.8604 0.7471
H42 H -0.0167 0.8845 0.6369
H43 H -0.0941 0.8559 0.5238
H44 H -0.2405 0.4374 0.3879
H45 H -0.2987 0.4193 0.4479
H46 H -0.1926 0.3837 0.4297
H47 H -0.1846 0.3578 0.5253
H48 H -0.1249 0.3382 0.6454
H49 H -0.0079 0.3971 0.7119
H50 H 0.0867 0.4805 0.7406
H51 H 0.4634 0.5860 0.6686
H52 H 0.3298 0.5254 0.7089
H53 H 0.4775 0.4707 0.7674
H54 H 0.5548 0.5177 0.7409
H55 H 0.5371 0.4586 0.7053
H56 H 0.3070 0.4317 0.6718
H57 H 0.2513 0.4758 0.6166
H58 H 0.3749 0.4463 0.6146
H59 H -0.4544 0.6351 0.3801
H60 H -0.4461 0.5795 0.2897
H61 H -0.5568 0.5016 0.2581
H62 H -0.4481 0.4964 0.3209
H63 H -0.5821 0.5052 0.3309
H64 H -0.6243 0.5925 0.2224
H65 H -0.6132 0.6385 0.2781
H66 H -0.6944 0.5854 0.2806
H74 H 0.1409 0.6210 0.4926
H75 H -0.2289 0.6240 0.5130
H78 H -0.3045 0.7231 0.4922
H90 H 0.5869 0.5490 0.6143
H91 H 0.5032 0.4993 0.5882
H92 H -0.6319 0.6288 0.4111
H93 H -0.6478 0.5661 0.3934
Cu2_2 Cu 0.4636(2) 0.57411(16) 0.50872(11)
O51_2 O -0.6905(11) 0.5873(7) 0.5343(6)
N10_2 N -0.4938(14) 0.5392(7) 0.5940(7)
H90_2 H -0.4131 0.5490 0.6143
H91_2 H -0.4968 0.4993 0.5882
O54 O 0.5576(16) 0.6772(7) 0.5681(8)
H76 H 0.6188 0.7012 0.5938
H77 H 0.4895 0.7021 0.5479
loop_
_geom_bond_atom_site_label_1
_geom_bond_atom_site_label_2
_geom_bond_site_symmetry_1
_geom_bond_site_symmetry_2
Gd1 O2 1_555 1_555
Gd2 O4 1_555 1_555
Gd3 O1 1_555 1_555
Gd4 O30 1_555 1_555
Gd5 O32 1_555 1_555
Gd6 O29 1_555 1_555
Cu1 O26 1_555 1_555
Cu2 O52 1_555 1_555
C1 O1 1_555 1_555
O1 C2 1_555 1_555
C2 C3 1_555 1_555
C3 C4 1_555 1_555
C4 C5 1_555 1_555
C5 C6 1_555 1_555
C6 C7 1_555 1_555
C7 C2 1_555 1_555
O2 Gd3 1_555 1_555
C8 C6 1_555 1_555
O3 Gd1 1_555 1_555
C9 O4 1_555 1_555
O4 C10 1_555 1_555
C10 C11 1_555 1_555
C11 C12 1_555 1_555
C12 C13 1_555 1_555
C13 C14 1_555 1_555
C14 C15 1_555 1_555
C15 C10 1_555 1_555
O5 Gd2 1_555 1_555
C16 C14 1_555 1_555
O6 Gd3 1_555 1_555
C17 O7 1_555 1_555
O7 Gd1 1_555 1_555
C18 O7 1_555 1_555
C19 C18 1_555 1_555
C20 C19 1_555 1_555
C21 C20 1_555 1_555
C22 C21 1_555 1_555
C23 C18 1_555 1_555
O8 Gd1 1_555 1_555
C24 C22 1_555 1_555
O9 Gd2 1_555 1_555
N1 O10 1_555 1_555
O10 Gd1 1_555 1_555
O11 Gd1 1_555 1_555
O12 N1 1_555 1_555
N2 O13 1_555 1_555
O13 Gd2 1_555 1_555
O14 Gd2 1_555 1_555
O15 N2 1_555 1_555
N3 O16 1_555 1_555
O16 Gd3 1_555 1_555
O17 Gd3 1_555 1_555
O18 N3 1_555 1_555
N4 O19 1_555 1_555
O19 Gd3 1_555 1_555
O20 N4 1_555 1_555
O21 N4 1_555 1_555
O22 Gd1 1_555 1_555
O23 Gd1 1_555 1_555
O24 Gd2 1_555 1_555
C25 O24 1_555 1_555
O25 C25 1_555 1_555
C26 C25 1_555 1_555
C27 C26 1_555 1_555
C28 C27 1_555 1_555
C29 C27 1_555 1_555
N5 C26 1_555 1_555
O26 C30 1_555 1_555
C30 O27 1_555 1_555
O27 Gd1 1_555 1_555
C31 C30 1_555 1_555
C32 C31 1_555 1_555
C33 C32 1_555 1_555
C34 C32 1_555 1_555
N6 Cu1 1_555 1_555
O28 Cu1 1_555 1_555
C35 O28 1_555 1_555
C36 O29 1_555 1_555
O29 C37 1_555 1_555
C37 C38 1_555 1_555
C38 C39 1_555 1_555
C39 C40 1_555 1_555
C40 C41 1_555 1_555
C41 C42 1_555 1_555
C42 C37 1_555 1_555
O30 Gd6 1_555 1_555
C43 C41 1_555 1_555
O31 Gd4 1_555 1_555
C44 O32 1_555 1_555
O32 C45 1_555 1_555
C45 C46 1_555 1_555
C46 C47 1_555 1_555
C47 C48 1_555 1_555
C48 C49 1_555 1_555
C49 C50 1_555 1_555
C50 C45 1_555 1_555
O33 Gd5 1_555 1_555
C51 C49 1_555 1_555
O34 Gd6 1_555 1_555
C52 O35 1_555 1_555
O35 Gd4 1_555 1_555
C53 O35 1_555 1_555
C54 C53 1_555 1_555
C55 C54 1_555 1_555
C56 C55 1_555 1_555
C57 C56 1_555 1_555
C58 C53 1_555 1_555
O36 Gd4 1_555 1_555
C59 C57 1_555 1_555
O37 Gd5 1_555 1_555
N7 O38 1_555 1_555
O38 Gd4 1_555 1_555
O39 Gd4 1_555 1_555
O40 N7 1_555 1_555
N8 O41 1_555 1_555
O41 Gd5 1_555 1_555
O42 Gd5 1_555 1_555
O43 N8 1_555 1_555
N9 O44 1_555 1_555
O44 Gd6 1_555 1_555
O45 Gd6 1_555 1_555
O46 N9 1_555 1_555
O47 Gd6 1_555 1_555
O48 Gd4 1_555 1_555
O49 Gd4 1_555 1_555
O50 Gd5 1_555 1_555
C60 O50 1_555 1_555
O51 C60 1_555 1_555
C61 C60 1_555 1_555
C62 C61 1_555 1_555
C63 C62 1_555 1_555
C64 C62 1_555 1_555
N10 C61 1_555 1_555
O52 C65 1_555 1_555
C65 O53 1_555 1_555
O53 Gd4 1_555 1_555
C66 C65 1_555 1_555
C67 C66 1_555 1_555
C68 C67 1_555 1_555
C69 C67 1_555 1_555
N11 Cu2 1_555 1_555
O54 H76 1_555 1_555
H1 C1 1_555 1_555
H2 C1 1_555 1_555
H3 C1 1_555 1_555
H4 C3 1_555 1_555
H5 C4 1_555 1_555
H6 C5 1_555 1_555
H7 C8 1_555 1_555
H8 C11 1_555 1_555
H9 C12 1_555 1_555
H10 C13 1_555 1_555
H11 C16 1_555 1_555
H12 C17 1_555 1_555
H13 C17 1_555 1_555
H14 C17 1_555 1_555
H15 C20 1_555 1_555
H16 C21 1_555 1_555
H17 C26 1_555 1_555
H18 C27 1_555 1_555
H19 C28 1_555 1_555
H20 C28 1_555 1_555
H21 C28 1_555 1_555
H22 C29 1_555 1_555
H23 C29 1_555 1_555
H24 C29 1_555 1_555
H25 C31 1_555 1_555
H26 C32 1_555 1_555
H27 C34 1_555 1_555
H28 C34 1_555 1_555
H29 C34 1_555 1_555
H30 C36 1_555 1_555
H31 C36 1_555 1_555
H32 C36 1_555 1_555
H33 C38 1_555 1_555
H34 C39 1_555 1_555
H35 C40 1_555 1_555
H36 C43 1_555 1_555
H37 C44 1_555 1_555
H38 C44 1_555 1_555
H39 C44 1_555 1_555
H40 C46 1_555 1_555
H41 C47 1_555 1_555
H42 C48 1_555 1_555
H43 C51 1_555 1_555
H44 C52 1_555 1_555
H45 C52 1_555 1_555
H46 C52 1_555 1_555
H47 C54 1_555 1_555
H48 C55 1_555 1_555
H49 C56 1_555 1_555
H50 C59 1_555 1_555
H51 C61 1_555 1_555
H52 C62 1_555 1_555
H53 C63 1_555 1_555
H54 C63 1_555 1_555
H55 C63 1_555 1_555
H56 C64 1_555 1_555
H57 C64 1_555 1_555
H58 C64 1_555 1_555
H59 C66 1_555 1_555
H60 C67 1_555 1_555
H61 C68 1_555 1_555
H62 C68 1_555 1_555
H63 C68 1_555 1_555
H64 C69 1_555 1_555
H65 C69 1_555 1_555
H66 C69 1_555 1_555
H67 C24 1_555 1_555
H68 C35 1_555 1_555
H69 C35 1_555 1_555
H70 C35 1_555 1_555
H71 O28 1_555 1_555
H72 O23 1_555 1_555
H73 O22 1_555 1_555
H74 O48 1_555 1_555
H75 O49 1_555 1_555
H77 O54 1_555 1_555
H78 O47 1_555 1_555
H79 C19 1_555 1_555
H80 C33 1_555 1_555
H81 C33 1_555 1_555
H82 C33 1_555 1_555
H83 C9 1_555 1_555
H84 C9 1_555 1_555
H85 C9 1_555 1_555
H86 N6 1_555 1_555
H87 N6 1_555 1_555
H88 N5 1_555 1_555
H89 N5 1_555 1_555
H90 N10 1_555 1_555
H91 N10 1_555 1_555
H92 N11 1_555 1_555
H93 N11 1_555 1_555
Cu1_2 O25 1_555 1_555
Cu2_2 O51 1_555 1_555
O25_2 Cu1 1_555 1_555
N5_2 Cu1 1_555 1_555
O51_2 Cu2 1_555 1_555
N10_2 Cu2 1_555 1_555
H88_2 N5_2 1_555 1_555
H89_2 N5_2 1_555 1_555
H90_2 N10_2 1_555 1_555
H91_2 N10_2 1_555 1_555
Gd2 O8 1_555 1_555
Gd2 O22 1_555 1_555
Gd2 O23 1_555 1_555
Gd3 O5 1_555 1_555
Gd3 O22 1_555 1_555
Gd3 O23 1_555 1_555
Gd5 O36 1_555 1_555
Gd5 O48 1_555 1_555
Gd5 O49 1_555 1_555
Gd6 O33 1_555 1_555
Gd6 O48 1_555 1_555
Gd6 O49 1_555 1_555
C7 O2 1_555 1_555
C8 O3 1_555 1_555
C15 O5 1_555 1_555
C16 O6 1_555 1_555
C22 C23 1_555 1_555
C23 O8 1_555 1_555
C24 O9 1_555 1_555
N1 O11 1_555 1_555
N2 O14 1_555 1_555
N3 O17 1_555 1_555
N5 Cu1_2 1_555 1_555
C31 N6 1_555 1_555
C42 O30 1_555 1_555
C43 O31 1_555 1_555
C50 O33 1_555 1_555
C51 O34 1_555 1_555
C57 C58 1_555 1_555
C58 O36 1_555 1_555
C59 O37 1_555 1_555
N7 O39 1_555 1_555
N8 O42 1_555 1_555
N9 O45 1_555 1_555
N10 Cu2_2 1_555 1_555
C66 N11 1_555 1_555

#END
