
#######################################################################
#
#                 Cambridge Crystallographic Data Centre
#                                CCDC 
#
#######################################################################
#
# If this CIF has been generated from an entry in the Cambridge 
# Structural Database, then it will include bibliographic, chemical, 
# crystal, experimental, refinement or atomic coordinate data resulting 
# from the CCDC's data processing and validation procedures.
#
#######################################################################

data_LARLUN
_symmetry_cell_setting           triclinic
_symmetry_space_group_name_H-M   'P -1'
_symmetry_Int_Tables_number      2
_space_group_name_Hall           '-P 1'
loop_
_symmetry_equiv_pos_site_id
_symmetry_equiv_pos_as_xyz
1 x,y,z
2 -x,-y,-z
_cell_length_a                   10.035(1)
_cell_length_b                   10.678(2)
_cell_length_c                   11.189(5)
_cell_angle_alpha                79.71(3)
_cell_angle_beta                 66.48(3)
_cell_angle_gamma                63.96(1)
_cell_volume                     987.731
loop_
_atom_site_label
_atom_site_type_symbol
_atom_site_fract_x
_atom_site_fract_y
_atom_site_fract_z
C1 C 0.8241(4) -0.1925(3) 0.6515(4)
C2 C 0.7577(4) -0.0362(3) 0.6297(4)
C3 C 0.6207(4) 0.0290(3) 0.6022(4)
H1 H 0.5674 -0.0246 0.5994
C4 C 0.5586(4) 0.1713(3) 0.5784(4)
C5 C 0.4019(4) 0.2436(4) 0.5596(4)
C6 C 0.6380(4) 0.2492(4) 0.5820(4)
H2 H 0.5999 0.3458 0.5614
C7 C 0.7725(4) 0.1861(4) 0.6155(4)
C8 C 0.8438(4) 0.2750(3) 0.6344(4)
C9 C 0.8348(4) 0.0423(3) 0.6371(4)
H3 H 0.9291 -0.0018 0.6568
C10 C 0.2768(5) 0.4726(5) 0.7775(5)
H4 H 0.2858 0.5155 0.6943
C11 C 0.3632(6) 0.4844(5) 0.8404(6)
H5 H 0.4296 0.5337 0.8022
C12 C 0.3500(7) 0.4209(6) 0.9636(7)
H6 H 0.4076 0.4249 1.0117
C13 C 0.2493(7) 0.3521(5) 1.0122(6)
H7 H 0.2348 0.3098 1.0960
C14 C 0.1699(5) 0.3451(4) 0.9387(5)
C15 C 0.0604(5) 0.2770(4) 0.9833(4)
C16 C -0.0992(5) 0.1755(4) 1.1104(5)
C17 C -0.1046(5) 0.1978(4) 0.9825(5)
C18 C -0.2086(6) 0.1610(5) 0.9568(5)
H8 H -0.2180 0.1755 0.8737
C19 C -0.2964(6) 0.1026(6) 1.0589(6)
H9 H -0.3961 0.1129 1.0546
C20 C -0.2862(6) 0.0820(6) 1.1804(6)
H10 H -0.3502 0.0415 1.2471
C21 C -0.1874(6) 0.1179(6) 1.2075(5)
H11 H -0.1806 0.1030 1.2916
N1 N -0.0043(4) 0.2605(4) 0.9072(4)
N2 N 0.0102(5) 0.2270(4) 1.1032(4)
H12 H 0.0395 0.2259 1.1660
N3 N 0.1821(4) 0.4062(4) 0.8240(4)
O1 O 0.7436(3) -0.2525(2) 0.6446(3)
O2 O 0.9491(3) -0.2513(2) 0.6753(3)
O3 O 0.3804(3) 0.3502(2) 0.4885(3)
O4 O 0.3020(3) 0.1914(2) 0.6206(3)
O5 O 0.9758(3) 0.2160(2) 0.6478(3)
O6 O 0.7594(3) 0.4046(2) 0.6422(3)
O7 O 1.0204(3) -0.5201(2) 0.6174(2)
H13 H 0.9982 -0.4451 0.6499
Zn1 Zn 0.81567(5) -0.43602(4) 0.56736(4)
Zn2 Zn 0.07182(5) 0.30641(4) 0.71637(4)
O3A O 0.6196(3) -0.3502(2) 0.5115(3)
O5_2 O -0.0242(3) 0.2160(2) 0.6478(3)
O6_2 O 0.7594(3) -0.5954(2) 0.6422(3)
O7A O 0.9796(3) -0.4799(2) 0.3826(2)
O7_2 O 0.0204(3) 0.4799(2) 0.6174(2)
H13A H 1.0018 -0.5549 0.3501
H13_2 H -0.0018 0.5549 0.6499
Zn1A Zn 0.18433(5) 0.43602(4) 0.43264(4)
Zn1_2 Zn 0.81567(5) 0.56398(4) 0.56736(4)
Zn1A_2 Zn 1.18433(5) -0.56398(4) 0.43264(4)
Zn2_2 Zn 1.07182(5) 0.30641(4) 0.71637(4)
Zn2_3 Zn 1.07182(5) -0.69359(4) 0.71637(4)
loop_
_geom_bond_atom_site_label_1
_geom_bond_atom_site_label_2
_geom_bond_site_symmetry_1
_geom_bond_site_symmetry_2
C1 C2 1_555 1_555
C2 C3 1_555 1_555
C3 H1 1_555 1_555
C4 C3 1_555 1_555
C5 C4 1_555 1_555
C6 C4 1_555 1_555
H2 C6 1_555 1_555
C7 C6 1_555 1_555
C8 C7 1_555 1_555
C9 C2 1_555 1_555
H3 C9 1_555 1_555
C10 H4 1_555 1_555
C11 C10 1_555 1_555
H5 C11 1_555 1_555
C12 C11 1_555 1_555
H6 C12 1_555 1_555
C13 C12 1_555 1_555
H7 C13 1_555 1_555
C14 C13 1_555 1_555
C15 C14 1_555 1_555
C16 C17 1_555 1_555
C17 C18 1_555 1_555
C18 H8 1_555 1_555
C19 C18 1_555 1_555
H9 C19 1_555 1_555
C20 C19 1_555 1_555
H10 C20 1_555 1_555
C21 C16 1_555 1_555
H11 C21 1_555 1_555
N1 C15 1_555 1_555
N2 C15 1_555 1_555
H12 N2 1_555 1_555
N3 C10 1_555 1_555
O1 C1 1_555 1_555
O2 C1 1_555 1_555
O3 C5 1_555 1_555
O4 C5 1_555 1_555
O5 C8 1_555 1_555
O6 C8 1_555 1_555
O7 H13 1_555 1_555
Zn1 O1 1_555 1_555
Zn2 N1 1_555 1_555
O3A Zn1 1_555 1_555
O5_2 Zn2 1_555 1_555
O6_2 Zn1 1_555 1_555
O7A Zn1 1_555 1_555
O7_2 Zn2 1_555 1_555
H13A O7A 1_555 1_555
H13_2 O7_2 1_555 1_555
Zn1A O3 1_555 1_555
Zn1_2 O6 1_555 1_555
Zn1A_2 O7 1_555 1_555
Zn2_2 O5 1_555 1_555
Zn2_3 O7 1_555 1_555
C7 C9 1_555 1_555
C14 N3 1_555 1_555
C16 N2 1_555 1_555
C17 N1 1_555 1_555
C20 C21 1_555 1_555
N3 Zn2 1_555 1_555
O4 Zn2 1_555 1_555
O7 Zn1 1_555 1_555
O7A Zn1A_2 1_555 1_555
O7_2 Zn1A 1_555 1_555

#END
