
#######################################################################
#
#                 Cambridge Crystallographic Data Centre
#                                CCDC 
#
#######################################################################
#
# If this CIF has been generated from an entry in the Cambridge 
# Structural Database, then it will include bibliographic, chemical, 
# crystal, experimental, refinement or atomic coordinate data resulting 
# from the CCDC's data processing and validation procedures.
#
#######################################################################

data_LARLIB
_symmetry_cell_setting           monoclinic
_symmetry_space_group_name_H-M   'P 21/n'
_symmetry_Int_Tables_number      14
_space_group_name_Hall           '-P 2yn'
loop_
_symmetry_equiv_pos_site_id
_symmetry_equiv_pos_as_xyz
1 x,y,z
2 1/2-x,1/2+y,1/2-z
3 -x,-y,-z
4 1/2+x,1/2-y,1/2+z
_cell_length_a                   10.047(2)
_cell_length_b                   13.664(3)
_cell_length_c                   12.952(3)
_cell_angle_alpha                90
_cell_angle_beta                 97.00(3)
_cell_angle_gamma                90
_cell_volume                     1764.83
loop_
_atom_site_label
_atom_site_type_symbol
_atom_site_fract_x
_atom_site_fract_y
_atom_site_fract_z
Hg1 Hg 0.16684(2) 0.188033(16) 0.453066(16)
I1 I 0.02276(4) 0.11275(3) 0.28394(3)
C1 C 0.1927(5) 0.4428(4) 0.4552(4)
C2 C 0.0351(5) 0.3892(4) 0.3428(4)
H1 H -0.0207 0.3476 0.3002
N1 N 0.0191(4) 0.4878(3) 0.3433(3)
N2 N 0.1359(4) 0.3580(3) 0.4074(3)
C3 C 0.1191(5) 0.5251(4) 0.4165(4)
C4 C 0.3356(6) 0.5480(5) 0.5637(5)
H2 H 0.4094 0.5575 0.6134
N3 N -0.0246(4) 0.5823(3) 0.1857(3)
C5 C 0.3036(6) 0.4546(4) 0.5296(4)
H3 H 0.3545 0.4011 0.5554
C6 C 0.1515(6) 0.6186(4) 0.4514(4)
H4 H 0.1017 0.6727 0.4257
C7 C 0.2606(7) 0.6281(5) 0.5258(5)
H5 H 0.2848 0.6901 0.5514
C8 C -0.0966(5) 0.5980(4) 0.0889(4)
N4 N 0.1175(5) 0.6530(4) 0.0901(4)
C9 C -0.0061(5) 0.6425(4) 0.0290(4)
C10 C 0.1006(5) 0.6165(4) 0.1806(4)
H6 H 0.1683 0.6144 0.2363
C11 C -0.2280(5) 0.5780(4) 0.0488(4)
H7 H -0.2873 0.5484 0.0890
C12 C -0.0799(5) 0.5435(4) 0.2766(4)
H8 H -0.1117 0.5973 0.3159
H9 H -0.1559 0.5017 0.2538
C13 C -0.0464(6) 0.6695(5) -0.0729(4)
H10 H 0.0119 0.7004 -0.1130
C14 C -0.2668(6) 0.6036(5) -0.0529(5)
H11 H -0.3541 0.5909 -0.0827
I2 I 0.16635(4) 0.18528(3) 0.65943(3)
C15 C -0.1766(6) 0.6486(5) -0.1123(5)
H12 H -0.2059 0.6651 -0.1810
Hg1A Hg 0.33316(2) 0.688033(16) 0.046934(16)
N4A N 0.3825(5) 0.1530(4) 0.4099(4)
loop_
_geom_bond_atom_site_label_1
_geom_bond_atom_site_label_2
_geom_bond_site_symmetry_1
_geom_bond_site_symmetry_2
Hg1 I1 1_555 1_555
C1 N2 1_555 1_555
C2 H1 1_555 1_555
N1 C2 1_555 1_555
N2 Hg1 1_555 1_555
C3 C1 1_555 1_555
C4 H2 1_555 1_555
N3 C8 1_555 1_555
C5 C1 1_555 1_555
H3 C5 1_555 1_555
C6 C3 1_555 1_555
H4 C6 1_555 1_555
C7 C4 1_555 1_555
H5 C7 1_555 1_555
C8 C9 1_555 1_555
N4 C9 1_555 1_555
C9 C13 1_555 1_555
C10 N3 1_555 1_555
H6 C10 1_555 1_555
C11 C8 1_555 1_555
H7 C11 1_555 1_555
C12 N1 1_555 1_555
H8 C12 1_555 1_555
H9 C12 1_555 1_555
C13 H10 1_555 1_555
C14 C11 1_555 1_555
H11 C14 1_555 1_555
I2 Hg1 1_555 1_555
C15 C13 1_555 1_555
H12 C15 1_555 1_555
Hg1A N4 1_555 1_555
N4A Hg1 1_555 1_555
C2 N2 1_555 1_555
N1 C3 1_555 1_555
C4 C5 1_555 1_555
N3 C12 1_555 1_555
C6 C7 1_555 1_555
N4 C10 1_555 1_555
C14 C15 1_555 1_555

#END
