
#######################################################################
#
#                 Cambridge Crystallographic Data Centre
#                                CCDC 
#
#######################################################################
#
# If this CIF has been generated from an entry in the Cambridge 
# Structural Database, then it will include bibliographic, chemical, 
# crystal, experimental, refinement or atomic coordinate data resulting 
# from the CCDC's data processing and validation procedures.
#
#######################################################################

data_LARLEX
_symmetry_cell_setting           monoclinic
_symmetry_space_group_name_H-M   'P 21/n'
_symmetry_Int_Tables_number      14
_space_group_name_Hall           '-P 2yn'
loop_
_symmetry_equiv_pos_site_id
_symmetry_equiv_pos_as_xyz
1 x,y,z
2 1/2-x,1/2+y,1/2-z
3 -x,-y,-z
4 1/2+x,1/2-y,1/2+z
_cell_length_a                   9.5936(19)
_cell_length_b                   13.496(3)
_cell_length_c                   12.995(3)
_cell_angle_alpha                90
_cell_angle_beta                 100.32(3)
_cell_angle_gamma                90
_cell_volume                     1655.31
loop_
_atom_site_label
_atom_site_type_symbol
_atom_site_fract_x
_atom_site_fract_y
_atom_site_fract_z
Hg1 Hg 0.33455(3) 0.19337(2) 0.547146(19)
Br1 Br 0.32399(8) 0.18284(5) 0.35276(5)
Br2 Br 0.48996(9) 0.12928(7) 0.71084(6)
N1 N 0.3673(6) 0.3639(4) 0.5891(4)
N2 N 0.4880(5) 0.4964(4) 0.6577(4)
N3 N 0.5333(6) 0.5886(4) 0.8187(4)
N4 N 0.3863(6) 0.6553(4) 0.9118(4)
C1 C 0.5146(7) 0.6399(5) 0.9767(5)
C2 C 0.5583(8) 0.6611(6) 1.0834(5)
H1 H 0.4971 0.6899 1.1228
C3 C 0.6955(8) 0.6372(6) 1.1272(6)
H2 H 0.7279 0.6509 1.1976
C4 C 0.7871(8) 0.5933(6) 1.0690(6)
H3 H 0.8777 0.5761 1.1026
C5 C 0.7487(8) 0.5743(6) 0.9636(6)
H4 H 0.8120 0.5479 0.9245
C6 C 0.6090(7) 0.5972(4) 0.9190(5)
C7 C 0.4009(7) 0.6243(5) 0.8190(5)
H5 H 0.3294 0.6264 0.7603
C8 C 0.5904(7) 0.5542(5) 0.7272(5)
H6 H 0.6180 0.6110 0.6897
H7 H 0.6743 0.5144 0.7505
C9 C 0.3806(7) 0.5322(5) 0.5804(5)
C10 C 0.3434(8) 0.6261(6) 0.5428(5)
H8 H 0.3935 0.6818 0.5706
C11 C 0.2292(10) 0.6336(6) 0.4625(6)
H9 H 0.2026 0.6958 0.4350
C12 C 0.1525(8) 0.5511(7) 0.4213(6)
H10 H 0.0749 0.5594 0.3679
C13 C 0.1891(7) 0.4576(6) 0.4579(5)
H11 H 0.1375 0.4025 0.4298
C14 C 0.3055(7) 0.4473(5) 0.5383(5)
C15 C 0.4748(7) 0.3960(5) 0.6572(5)
H12 H 0.5360 0.3544 0.7011
Hg1A Hg 0.16545(3) 0.69337(2) 0.952854(19)
N4A N 0.1137(6) 0.1553(4) 0.5882(4)
loop_
_geom_bond_atom_site_label_1
_geom_bond_atom_site_label_2
_geom_bond_site_symmetry_1
_geom_bond_site_symmetry_2
Hg1 Br1 1_555 1_555
Br2 Hg1 1_555 1_555
N1 Hg1 1_555 1_555
N2 C8 1_555 1_555
N3 C6 1_555 1_555
N4 C1 1_555 1_555
C1 C2 1_555 1_555
C2 H1 1_555 1_555
C3 C2 1_555 1_555
H2 C3 1_555 1_555
C4 C3 1_555 1_555
H3 C4 1_555 1_555
C5 C4 1_555 1_555
H4 C5 1_555 1_555
C6 C1 1_555 1_555
C7 N3 1_555 1_555
H5 C7 1_555 1_555
C8 N3 1_555 1_555
H6 C8 1_555 1_555
H7 C8 1_555 1_555
C9 N2 1_555 1_555
C10 C9 1_555 1_555
H8 C10 1_555 1_555
C11 C10 1_555 1_555
H9 C11 1_555 1_555
C12 C11 1_555 1_555
H10 C12 1_555 1_555
C13 C12 1_555 1_555
H11 C13 1_555 1_555
C14 N1 1_555 1_555
C15 N1 1_555 1_555
H12 C15 1_555 1_555
Hg1A N4 1_555 1_555
N4A Hg1 1_555 1_555
N2 C15 1_555 1_555
N4 C7 1_555 1_555
C5 C6 1_555 1_555
C9 C14 1_555 1_555
C13 C14 1_555 1_555

#END
