
#######################################################################
#
#                 Cambridge Crystallographic Data Centre
#                                CCDC 
#
#######################################################################
#
# If this CIF has been generated from an entry in the Cambridge 
# Structural Database, then it will include bibliographic, chemical, 
# crystal, experimental, refinement or atomic coordinate data resulting 
# from the CCDC's data processing and validation procedures.
#
#######################################################################

data_LARNOI
_symmetry_cell_setting           triclinic
_symmetry_space_group_name_H-M   'P -1'
_symmetry_Int_Tables_number      2
_space_group_name_Hall           '-P 1'
loop_
_symmetry_equiv_pos_site_id
_symmetry_equiv_pos_as_xyz
1 x,y,z
2 -x,-y,-z
_cell_length_a                   7.956(2)
_cell_length_b                   9.938(3)
_cell_length_c                   14.242(4)
_cell_angle_alpha                106.191(4)
_cell_angle_beta                 97.322(4)
_cell_angle_gamma                107.392(4)
_cell_volume                     1004.3
loop_
_atom_site_label
_atom_site_type_symbol
_atom_site_fract_x
_atom_site_fract_y
_atom_site_fract_z
Ag1 Ag 0.81995(13) 0.57962(10) 0.53756(8)
Ag2 Ag 0.4367(2) 1.09220(10) 1.09893(9)
N1 N 0.3672(11) 0.8438(8) 1.0704(6)
N2 N 0.4092(10) 0.7672(8) 0.9832(6)
N3 N 0.5960(15) 0.4639(11) 0.6043(7)
N4 N 0.1825(14) 1.1870(11) 1.4481(8)
C1 C 0.1735(14) 1.0705(12) 1.4019(8)
C2 C 0.1599(13) 0.9223(10) 1.3404(7)
C3 C 0.2241(12) 0.9061(10) 1.2541(7)
H1 H 0.2791 0.9888 1.2360
C4 C 0.2043(12) 0.7620(10) 1.1944(7)
C5 C 0.1262(13) 0.6413(11) 1.2221(7)
H2 H 0.1150 0.5461 1.1819
C6 C 0.0638(14) 0.6588(11) 1.3090(8)
H3 H 0.0104 0.5756 1.3270
C7 C 0.0803(14) 0.8006(12) 1.3700(8)
H4 H 0.0392 0.8137 1.4290
C8 C 0.2771(12) 0.7442(9) 1.1048(7)
C9 C 0.3383(12) 0.6257(10) 0.9707(7)
C10 C 0.3433(12) 0.4990(10) 0.8920(7)
C11 C 0.4253(13) 0.5235(10) 0.8148(7)
H5 H 0.4740 0.6201 0.8133
C12 C 0.4343(13) 0.4041(11) 0.7404(7)
C13 C 0.3639(14) 0.2587(10) 0.7420(7)
H6 H 0.3704 0.1784 0.6919
C14 C 0.2843(13) 0.2365(10) 0.8200(7)
H7 H 0.2369 0.1400 0.8221
C15 C 0.2738(12) 0.3549(10) 0.8949(7)
H8 H 0.2204 0.3380 0.9469
C16 C 0.5244(14) 0.4358(11) 0.6628(8)
O1 O 0.2547(9) 0.6041(6) 1.0450(5)
O2 O 0.1816(17) 1.1527(18) 1.1466(12)
O3 O -0.1466(14) 1.0660(10) 1.0999(8)
H9 H -0.1517 1.0019 1.0478
O4 O 0.0267(13) 1.2792(10) 1.0626(7)
O5 O 0.0164(16) 1.2913(11) 1.2268(7)
H10 H 0.0079 1.2471 1.2677
O6 O 0.5768(14) 0.2145(11) 0.2799(7)
O7 O 0.7827(11) 0.1054(8) 0.3385(7)
H11 H 0.8342 0.1117 0.2928
O8 O 0.6009(12) 0.1675(10) 0.4367(6)
H12 H 0.5364 0.2158 0.4549
O9 O 0.8506(10) 0.3689(8) 0.4226(6)
P1 P 0.0293(5) 1.1903(4) 1.1288(3)
P2 P 0.7034(4) 0.2285(3) 0.3643(2)
Ag1A Ag 0.18005(13) 1.42038(10) 1.46244(8)
Ag1A_2 Ag 1.18005(13) 0.42038(10) 0.46244(8)
Ag2A Ag 0.5633(2) 0.90780(10) 0.90107(9)
Ag2_2 Ag 0.4367(2) 0.09220(10) 0.09893(9)
N2A N 0.5908(10) 1.2328(8) 1.0168(6)
N4A N 0.8175(14) 0.8130(11) 0.5519(8)
O6_2 O 0.5768(14) 1.2145(11) 1.2799(7)
O9A O 1.1494(10) 0.6311(8) 0.5774(6)
loop_
_geom_bond_atom_site_label_1
_geom_bond_atom_site_label_2
_geom_bond_site_symmetry_1
_geom_bond_site_symmetry_2
Ag1 N3 1_555 1_555
Ag2 N1 1_555 1_555
N1 N2 1_555 1_555
N2 C9 1_555 1_555
N3 C16 1_555 1_555
N4 C1 1_555 1_555
C1 C2 1_555 1_555
C2 C3 1_555 1_555
C3 H1 1_555 1_555
C4 C3 1_555 1_555
C5 C4 1_555 1_555
H2 C5 1_555 1_555
C6 C5 1_555 1_555
H3 C6 1_555 1_555
C7 C2 1_555 1_555
H4 C7 1_555 1_555
C8 N1 1_555 1_555
C9 C10 1_555 1_555
C10 C11 1_555 1_555
C11 H5 1_555 1_555
C12 C11 1_555 1_555
C13 C12 1_555 1_555
H6 C13 1_555 1_555
C14 C13 1_555 1_555
H7 C14 1_555 1_555
C15 C10 1_555 1_555
H8 C15 1_555 1_555
C16 C12 1_555 1_555
O1 C8 1_555 1_555
O2 Ag2 1_555 1_555
O3 H9 1_555 1_555
O4 P1 1_555 1_555
O5 H10 1_555 1_555
O6 P2 1_555 1_555
O7 H11 1_555 1_555
O8 H12 1_555 1_555
O9 Ag1 1_555 1_555
P1 O2 1_555 1_555
P2 O7 1_555 1_555
Ag1A N4 1_555 1_555
Ag1A_2 O9 1_555 1_555
Ag2A N2 1_555 1_555
Ag2_2 O6 1_555 1_555
N2A Ag2 1_555 1_555
N4A Ag1 1_555 1_555
O6_2 Ag2 1_555 1_555
O9A Ag1 1_555 1_555
C4 C8 1_555 1_555
C6 C7 1_555 1_555
C9 O1 1_555 1_555
C14 C15 1_555 1_555
O3 P1 1_555 1_555
O5 P1 1_555 1_555
O8 P2 1_555 1_555
O9 P2 1_555 1_555
Ag1A_2 O9A 1_555 1_555

#END
