
#######################################################################
#
#                 Cambridge Crystallographic Data Centre
#                                CCDC 
#
#######################################################################
#
# If this CIF has been generated from an entry in the Cambridge 
# Structural Database, then it will include bibliographic, chemical, 
# crystal, experimental, refinement or atomic coordinate data resulting 
# from the CCDC's data processing and validation procedures.
#
#######################################################################

data_LARNAU
_symmetry_cell_setting           triclinic
_symmetry_space_group_name_H-M   'P -1'
_symmetry_Int_Tables_number      2
_space_group_name_Hall           '-P 1'
loop_
_symmetry_equiv_pos_site_id
_symmetry_equiv_pos_as_xyz
1 x,y,z
2 -x,-y,-z
_cell_length_a                   7.498(3)
_cell_length_b                   10.649(4)
_cell_length_c                   13.673(5)
_cell_angle_alpha                98.602(5)
_cell_angle_beta                 100.004(5)
_cell_angle_gamma                110.232(5)
_cell_volume                     982.495
loop_
_atom_site_label
_atom_site_type_symbol
_atom_site_fract_x
_atom_site_fract_y
_atom_site_fract_z
Ag1 Ag 0.40998(8) 0.32386(4) 0.50060(4)
N1 N 0.2017(9) 0.1798(6) 0.5914(5)
N2 N -0.2779(7) -0.3896(4) 0.6346(3)
N3 N -0.3516(7) -0.5293(4) 0.6351(3)
N4 N -0.4460(9) -1.1238(6) 0.5846(4)
C1 C -0.4083(10) -1.0285(6) 0.6468(5)
C2 C -0.3591(9) -0.9051(6) 0.7224(4)
C3 C -0.3382(11) -0.9050(7) 0.8255(5)
H1 H -0.3578 -0.9862 0.8476
C4 C -0.2883(12) -0.7832(7) 0.8939(5)
H2 H -0.2693 -0.7818 0.9632
C5 C -0.2657(10) -0.6641(7) 0.8631(4)
H3 H -0.2354 -0.5832 0.9108
C6 C -0.2880(9) -0.6635(5) 0.7600(4)
C7 C -0.3338(9) -0.7845(5) 0.6896(4)
H4 H -0.3476 -0.7849 0.6206
C8 C -0.2693(8) -0.5394(5) 0.7222(4)
C9 C -0.1571(8) -0.3277(5) 0.7215(4)
C10 C -0.0364(8) -0.1813(5) 0.7598(4)
C11 C 0.0096(8) -0.1002(6) 0.6906(4)
H5 H -0.0333 -0.1389 0.6209
C12 C 0.1195(9) 0.0380(6) 0.7256(5)
C13 C 0.1647(9) 0.1195(6) 0.6512(5)
C14 C 0.1843(10) 0.0978(6) 0.8286(5)
H6 H 0.2563 0.1918 0.8514
C15 C 0.1405(11) 0.0158(7) 0.8971(5)
H7 H 0.1849 0.0546 0.9667
C16 C 0.0322(10) -0.1222(7) 0.8635(5)
H8 H 0.0044 -0.1767 0.9103
O1 O -0.1443(6) -0.4158(4) 0.7815(3)
Ag1A Ag -0.40998(8) -0.32386(4) 0.49940(4)
Ag1_2 Ag -0.59002(8) -0.67614(4) 0.50060(4)
Ag1A_2 Ag -0.40998(8) -1.32386(4) 0.49940(4)
Ag1A_3 Ag 0.59002(8) 0.67614(4) 0.49940(4)
Ag1_3 Ag 0.40998(8) 1.32386(4) 0.50060(4)
N1A N -0.2017(9) -0.1798(6) 0.4086(5)
N2A N 0.2779(7) 0.3896(4) 0.3654(3)
N3A N 0.3516(7) 0.5293(4) 0.3649(3)
N3_2 N 0.6484(7) 0.4707(4) 0.6351(3)
N3A_2 N -0.6484(7) -0.4707(4) 0.3649(3)
N4A N 0.4460(9) 1.1238(6) 0.4154(4)
N4A_2 N 0.4460(9) 0.1238(6) 0.4154(4)
N4_2 N -0.4460(9) -0.1238(6) 0.5846(4)
C1A C 0.4083(10) 1.0285(6) 0.3532(5)
C2A C 0.3591(9) 0.9051(6) 0.2776(4)
C3A C 0.3382(11) 0.9050(7) 0.1745(5)
H1A H 0.3578 0.9862 0.1524
C4A C 0.2883(12) 0.7832(7) 0.1061(5)
H2A H 0.2693 0.7818 0.0368
C5A C 0.2657(10) 0.6641(7) 0.1369(4)
H3A H 0.2354 0.5832 0.0892
C6A C 0.2880(9) 0.6635(5) 0.2400(4)
C7A C 0.3338(9) 0.7845(5) 0.3104(4)
H4A H 0.3476 0.7849 0.3794
C8A C 0.2693(8) 0.5394(5) 0.2778(4)
C9A C 0.1571(8) 0.3277(5) 0.2785(4)
C10A C 0.0364(8) 0.1813(5) 0.2402(4)
C11A C -0.0096(8) 0.1002(6) 0.3094(4)
H5A H 0.0333 0.1389 0.3791
C12A C -0.1195(9) -0.0380(6) 0.2744(5)
C13A C -0.1647(9) -0.1195(6) 0.3488(5)
C14A C -0.1843(10) -0.0978(6) 0.1714(5)
H6A H -0.2563 -0.1918 0.1486
C15A C -0.1405(11) -0.0158(7) 0.1029(5)
H7A H -0.1849 -0.0546 0.0333
C16A C -0.0322(10) 0.1222(7) 0.1365(5)
H8A H -0.0044 0.1767 0.0897
O1A O 0.1443(6) 0.4158(4) 0.2185(3)
C17 C 1.0669(12) 0.6373(9) 0.4969(6)
H9 H 1.1117 0.7295 0.4942
C18 C 0.9190(12) 0.5387(9) 0.4174(6)
H10 H 0.8644 0.5656 0.3619
C19 C 1.1461(12) 0.5968(9) 0.5797(6)
H11 H 1.2437 0.6618 0.6334
C17A C 0.9331(12) 0.3627(9) 0.5031(6)
H9A H 0.8883 0.2705 0.5058
C18A C 1.0810(12) 0.4613(9) 0.5826(6)
H10A H 1.1356 0.4344 0.6381
C19A C 0.8539(12) 0.4032(9) 0.4203(6)
H11A H 0.7563 0.3382 0.3666
B1 B 0.547(2) 0.3379(13) 0.1379(8)
F1 F 0.7143(12) 0.3485(13) 0.1335(7)
F2 F 0.5465(11) 0.4458(10) 0.2010(6)
F3 F 0.4154(17) 0.3095(11) 0.0508(7)
F4 F 0.462(2) 0.2419(12) 0.1818(12)
O2 O 0.103(10) 0.377(13) 0.915(3)
H12 H 0.196(7) 0.385(5) 0.969(3)
H13 H 0.152(8) 0.358(6) 0.861(3)
loop_
_geom_bond_atom_site_label_1
_geom_bond_atom_site_label_2
_geom_bond_site_symmetry_1
_geom_bond_site_symmetry_2
Ag1 N1 1_555 1_555
N1 C13 1_555 1_555
N2 N3 1_555 1_555
N3 C8 1_555 1_555
N4 C1 1_555 1_555
C1 C2 1_555 1_555
C2 C3 1_555 1_555
C3 H1 1_555 1_555
C4 C3 1_555 1_555
H2 C4 1_555 1_555
C5 C4 1_555 1_555
H3 C5 1_555 1_555
C6 C5 1_555 1_555
C7 C2 1_555 1_555
H4 C7 1_555 1_555
C8 C6 1_555 1_555
C9 N2 1_555 1_555
C10 C9 1_555 1_555
C11 C10 1_555 1_555
H5 C11 1_555 1_555
C12 C11 1_555 1_555
C13 C12 1_555 1_555
C14 C12 1_555 1_555
H6 C14 1_555 1_555
C15 C14 1_555 1_555
H7 C15 1_555 1_555
C16 C10 1_555 1_555
H8 C16 1_555 1_555
C17 H9 1_555 1_555
C18 C17 1_555 1_555
H10 C18 1_555 1_555
C19 C17 1_555 1_555
H11 C19 1_555 1_555
B1 F1 1_555 1_555
O1 C8 1_555 1_555
O2 H12 1_555 1_555
F2 B1 1_555 1_555
F3 B1 1_555 1_555
F4 B1 1_555 1_555
H13 O2 1_555 1_555
Ag1A N2 1_555 1_555
Ag1_2 N3 1_555 1_555
Ag1A_2 N4 1_555 1_555
Ag1A_3 N3A 1_555 1_555
Ag1_3 N4A 1_555 1_555
N1A Ag1A 1_555 1_555
N2A Ag1 1_555 1_555
N3A N2A 1_555 1_555
N3_2 Ag1 1_555 1_555
N3A_2 Ag1A 1_555 1_555
N4A C1A 1_555 1_555
N4A_2 Ag1 1_555 1_555
N4_2 Ag1A 1_555 1_555
C1A C2A 1_555 1_555
C2A C3A 1_555 1_555
C3A H1A 1_555 1_555
C4A C3A 1_555 1_555
H2A C4A 1_555 1_555
C5A C4A 1_555 1_555
H3A C5A 1_555 1_555
C6A C5A 1_555 1_555
C7A C2A 1_555 1_555
H4A C7A 1_555 1_555
C8A N3A 1_555 1_555
C9A N2A 1_555 1_555
C10A C9A 1_555 1_555
C11A C10A 1_555 1_555
H5A C11A 1_555 1_555
C12A C11A 1_555 1_555
C13A N1A 1_555 1_555
C14A C12A 1_555 1_555
H6A C14A 1_555 1_555
C15A C14A 1_555 1_555
H7A C15A 1_555 1_555
C16A C10A 1_555 1_555
H8A C16A 1_555 1_555
C17A H9A 1_555 1_555
C18A C19 1_555 1_555
H10A C18A 1_555 1_555
C19A C18 1_555 1_555
H11A C19A 1_555 1_555
O1A C8A 1_555 1_555
C6 C7 1_555 1_555
C9 O1 1_555 1_555
C15 C16 1_555 1_555
C6A C7A 1_555 1_555
C6A C8A 1_555 1_555
C9A O1A 1_555 1_555
C12A C13A 1_555 1_555
C15A C16A 1_555 1_555
C17A C18A 1_555 1_555
C17A C19A 1_555 1_555

#END
