
#######################################################################
#
#                 Cambridge Crystallographic Data Centre
#                                CCDC 
#
#######################################################################
#
# If this CIF has been generated from an entry in the Cambridge 
# Structural Database, then it will include bibliographic, chemical, 
# crystal, experimental, refinement or atomic coordinate data resulting 
# from the CCDC's data processing and validation procedures.
#
#######################################################################

data_LARQUR
_symmetry_cell_setting           triclinic
_symmetry_space_group_name_H-M   'P -1'
_symmetry_Int_Tables_number      2
_space_group_name_Hall           '-P 1'
loop_
_symmetry_equiv_pos_site_id
_symmetry_equiv_pos_as_xyz
1 x,y,z
2 -x,-y,-z
_cell_length_a                   9.159(2)
_cell_length_b                   9.315(2)
_cell_length_c                   16.208(4)
_cell_angle_alpha                74.469(3)
_cell_angle_beta                 74.175(3)
_cell_angle_gamma                77.150(3)
_cell_volume                     1265.06
loop_
_atom_site_label
_atom_site_type_symbol
_atom_site_fract_x
_atom_site_fract_y
_atom_site_fract_z
Dy1 Dy 0.688227(16) 0.889448(15) 0.724609(9)
N1 N 0.4031(3) 0.9124(3) 0.78946(19)
N2 N 0.5236(3) 1.0965(3) 0.63806(18)
N3 N 0.6613(3) 1.1176(3) 0.78773(17)
N4 N 0.9479(3) 0.7541(3) 0.74457(19)
O1 O 0.6714(3) 0.8322(2) 0.87620(15)
O2 O 0.6825(3) 0.8939(3) 0.99816(15)
O3 O 0.6491(3) 1.6416(2) 0.75955(15)
O4 O 0.6932(6) 1.5458(3) 0.64245(19)
O5 O 0.8880(3) 1.0177(3) 0.63786(16)
O6 O 1.1367(3) 1.0180(3) 0.57284(16)
O7 O 1.0242(3) 0.3603(4) 0.9311(2)
O8 O 1.2755(3) 0.3563(4) 0.8871(2)
H1 H 1.2779 0.2792 0.9261
O9 O 0.7405(4) 0.8240(3) 0.58924(17)
C1 C 0.3401(5) 0.8172(5) 0.8605(2)
H2 H 0.4024 0.7301 0.8830
C2 C 0.1851(5) 0.8413(6) 0.9034(3)
H3 H 0.1454 0.7703 0.9521
C3 C 0.0940(5) 0.9680(6) 0.8734(3)
H4 H -0.0083 0.9869 0.9029
C4 C 0.1528(4) 1.0723(5) 0.7973(3)
C5 C 0.3090(4) 1.0385(4) 0.7569(2)
C6 C 0.3735(4) 1.1356(4) 0.6761(2)
C7 C 0.2791(5) 1.2639(4) 0.6392(3)
C8 C 0.1219(5) 1.2971(5) 0.6840(3)
H5 H 0.0600 1.3833 0.6602
C9 C 0.0626(5) 1.2075(6) 0.7588(3)
H6 H -0.0396 1.2329 0.7868
C10 C 0.3455(5) 1.3506(5) 0.5582(3)
H7 H 0.2880 1.4376 0.5317
C11 C 0.4936(5) 1.3077(4) 0.5183(3)
H8 H 0.5369 1.3624 0.4634
C12 C 0.5803(5) 1.1806(4) 0.5605(2)
H9 H 0.6825 1.1536 0.5331
C13 C 0.6705(4) 0.9250(4) 0.9207(2)
C14 C 0.6568(4) 1.0898(3) 0.8742(2)
C15 C 0.6457(4) 1.2025(4) 0.9169(2)
H10 H 0.6388 1.1795 0.9772
C16 C 0.6448(4) 1.3500(4) 0.8697(2)
H11 H 0.6368 1.4276 0.8975
C17 C 0.6559(4) 1.3800(3) 0.7800(2)
C18 C 0.6620(4) 1.2610(4) 0.7427(2)
H12 H 0.6670 1.2816 0.6827
C19 C 0.6665(4) 1.5346(4) 0.7224(2)
C20 C 1.0294(4) 0.9618(4) 0.6272(2)
C21 C 1.0691(4) 0.8119(4) 0.6895(2)
C22 C 1.2188(4) 0.7423(4) 0.6913(2)
H13 H 1.3012 0.7840 0.6518
C23 C 1.2434(4) 0.6101(4) 0.7526(2)
H14 H 1.3429 0.5609 0.7545
C24 C 1.1189(4) 0.5512(4) 0.8114(2)
C25 C 0.9732(4) 0.6265(4) 0.8050(2)
H15 H 0.8891 0.5872 0.8442
C26 C 1.1336(4) 0.4121(4) 0.8834(3)
H16 H 0.786(5) 0.857(5) 0.5369(13)
H17 H 0.738(6) 0.732(2) 0.595(3)
Dy1_2 Dy 0.688227(16) 1.889448(15) 0.724609(9)
O3_2 O 0.6491(3) 0.6416(2) 0.75955(15)
O10 O 0.0824(7) 0.6551(6) 0.4890(4)
H18 H 0.056(11) 0.745(4) 0.462(6)
H19 H 0.16(4) 0.617(19) 0.452(11)
loop_
_geom_bond_atom_site_label_1
_geom_bond_atom_site_label_2
_geom_bond_site_symmetry_1
_geom_bond_site_symmetry_2
Dy1 N1 1_555 1_555
N1 C1 1_555 1_555
N2 Dy1 1_555 1_555
N3 Dy1 1_555 1_555
N4 Dy1 1_555 1_555
O1 Dy1 1_555 1_555
O2 C13 1_555 1_555
O3 C19 1_555 1_555
O4 C19 1_555 1_555
O5 Dy1 1_555 1_555
O6 C20 1_555 1_555
O7 C26 1_555 1_555
O8 H1 1_555 1_555
O9 Dy1 1_555 1_555
O10 H18 1_555 1_555
C1 H2 1_555 1_555
C2 C1 1_555 1_555
H3 C2 1_555 1_555
C3 C2 1_555 1_555
H4 C3 1_555 1_555
C4 C3 1_555 1_555
C5 N1 1_555 1_555
C6 N2 1_555 1_555
C7 C6 1_555 1_555
C8 C7 1_555 1_555
H5 C8 1_555 1_555
C9 C4 1_555 1_555
H6 C9 1_555 1_555
C10 C7 1_555 1_555
H7 C10 1_555 1_555
C11 C10 1_555 1_555
H8 C11 1_555 1_555
C12 N2 1_555 1_555
H9 C12 1_555 1_555
C13 O1 1_555 1_555
C14 N3 1_555 1_555
C15 C14 1_555 1_555
H10 C15 1_555 1_555
C16 C15 1_555 1_555
H11 C16 1_555 1_555
C17 C16 1_555 1_555
C18 N3 1_555 1_555
H12 C18 1_555 1_555
C19 C17 1_555 1_555
C20 O5 1_555 1_555
C21 N4 1_555 1_555
C22 C21 1_555 1_555
H13 C22 1_555 1_555
C23 C22 1_555 1_555
H14 C23 1_555 1_555
C24 C23 1_555 1_555
C25 N4 1_555 1_555
H15 C25 1_555 1_555
C26 O8 1_555 1_555
H16 O9 1_555 1_555
H17 O9 1_555 1_555
H19 O10 1_555 1_555
Dy1_2 O3 1_555 1_555
O3_2 Dy1 1_555 1_555
C4 C5 1_555 1_555
C5 C6 1_555 1_555
C8 C9 1_555 1_555
C11 C12 1_555 1_555
C13 C14 1_555 1_555
C17 C18 1_555 1_555
C20 C21 1_555 1_555
C24 C25 1_555 1_555
C24 C26 1_555 1_555

#END
