
#######################################################################
#
#                 Cambridge Crystallographic Data Centre
#                                CCDC 
#
#######################################################################
#
# If this CIF has been generated from an entry in the Cambridge 
# Structural Database, then it will include bibliographic, chemical, 
# crystal, experimental, refinement or atomic coordinate data resulting 
# from the CCDC's data processing and validation procedures.
#
#######################################################################

data_LARSEE
_symmetry_cell_setting           monoclinic
_symmetry_space_group_name_H-M   'P 21/c'
_symmetry_Int_Tables_number      14
_space_group_name_Hall           '-P 2ybc'
loop_
_symmetry_equiv_pos_site_id
_symmetry_equiv_pos_as_xyz
1 x,y,z
2 -x,1/2+y,1/2-z
3 -x,-y,-z
4 x,1/2-y,1/2+z
_cell_length_a                   9.977
_cell_length_b                   9.677(4)
_cell_length_c                   27.564(10)
_cell_angle_alpha                90
_cell_angle_beta                 90.500(6)
_cell_angle_gamma                90
_cell_volume                     2661.13
loop_
_atom_site_label
_atom_site_type_symbol
_atom_site_fract_x
_atom_site_fract_y
_atom_site_fract_z
Cd1 Cd 0.19726(3) 0.59315(3) 0.208869(9)
Cd2 Cd 0.56337(3) 1.05139(3) 0.091314(9)
O1 O 0.5994(3) 0.8498(3) 0.03891(8)
C1 C 0.3997(3) 0.5084(4) 0.12540(13)
N1 N 0.1018(3) 0.4134(3) 0.24288(10)
O2 O 0.4551(3) 0.4526(2) 0.08800(9)
H1 H 0.4902 0.5128 0.0715
O3 O 0.3818(2) 1.1788(3) 0.06250(9)
H2 H 0.3933 1.2607 0.0688
N2 N 0.4472(3) 0.8792(3) 0.12313(10)
N3 N 0.3441(3) 0.7212(3) 0.16838(10)
O4 O -0.0496(3) 0.1332(3) 0.36240(8)
C2 C 0.4070(3) 0.6573(3) 0.13005(12)
O5 O 0.3423(3) 0.4409(2) 0.15756(9)
C3 C 0.0299(4) 0.2263(4) 0.35589(13)
O6 O 0.1053(3) 0.2684(3) 0.39192(9)
H3 H 0.1542 0.3310 0.3826
N4 N -0.0342(3) 0.2499(3) 0.27025(10)
C4 C 0.3703(3) 0.8535(3) 0.16254(12)
O7 O 0.5635(3) 0.6277(3) 0.03654(9)
N5 N 0.7912(3) 1.3186(3) -0.00471(11)
C5 C 0.1289(3) 0.3945(3) 0.29134(12)
C6 C 0.5500(3) 0.7461(4) 0.05710(12)
C7 C 0.0440(3) 0.2932(3) 0.30838(12)
N6 N 0.7010(3) 1.1537(3) 0.03836(11)
O8 O 0.2909(2) 0.5683(2) 0.28899(8)
C8 C 0.4704(3) 0.7552(3) 0.10214(12)
C9 C 0.2323(3) 0.4796(4) 0.31488(13)
C10 C 0.8404(4) 1.1991(5) -0.02233(15)
H4 H 0.9006 1.1892 -0.0477
C11 C 0.7087(3) 1.2862(4) 0.03188(13)
H5 H 0.6629 1.3510 0.0503
C12 C 0.7861(4) 1.0987(4) 0.00363(15)
H6 H 0.8025 1.0049 -0.0008
O9 O 0.2549(2) 0.4611(2) 0.36009(9)
O10 O 0.5524(3) 1.2159(3) 0.15094(10)
H7 H 0.5932 1.1888 0.1751
C13 C 0.0042(3) 0.3241(3) 0.23184(12)
C14 C -0.0425(4) 0.3033(4) 0.18083(13)
H8 H -0.0505 0.3923 0.1649
H9 H -0.1306 0.2607 0.1809
C15 C 0.3184(4) 0.9616(4) 0.19629(13)
H10 H 0.2214 0.9556 0.1968
H11 H 0.3417 1.0517 0.1835
C16 C 0.3703(4) 0.9520(5) 0.24778(15)
H12 H 0.4674 0.9549 0.2475
H13 H 0.3437 0.8638 0.2614
C17 C 0.0546(4) 0.2113(5) 0.15212(15)
H14 H 0.1433 0.2521 0.1539
H15 H 0.0593 0.1217 0.1678
C18 C 0.3192(5) 1.0670(6) 0.28006(19)
H16 H 0.3540 1.1539 0.2691
H17 H 0.3483 1.0508 0.3129
H18 H 0.2231 1.0690 0.2787
C19 C 0.0193(5) 0.1904(6) 0.10062(17)
H19 H -0.0673 0.1476 0.0982
H20 H 0.0849 0.1319 0.0858
H21 H 0.0173 0.2780 0.0843
C20 C 0.8195(4) 1.4574(4) -0.02229(14)
H22 H 0.7388 1.5127 -0.0199
H23 H 0.8431 1.4521 -0.0563
C21 C 0.9309(4) 1.5287(4) 0.00500(15)
H24 H 0.9137 1.5213 0.0395
H25 H 0.9298 1.6260 -0.0034
H26 H 0.481(3) 1.267(4) 0.1576(13)
H27 H 0.382(4) 1.172(4) 0.0301(4)
Cd1A Cd -0.19726(3) 1.09315(3) 0.291131(9)
Cd1A_2 Cd -0.19726(3) 0.09315(3) 0.291131(9)
Cd2A Cd 0.43663(3) 0.55139(3) 0.408686(9)
Cd2B Cd 1.43663(3) 1.94861(3) -0.091314(9)
Cd2_2 Cd -0.43663(3) 1.05139(3) 0.091314(9)
Cd2A_2 Cd -0.56337(3) 1.55139(3) 0.408686(9)
O1A O -0.5994(3) 1.3498(3) 0.46109(8)
O1A_2 O 0.4006(3) 0.3498(3) 0.46109(8)
C1A C -0.3997(3) 1.0084(4) 0.37460(13)
N1A N -0.1018(3) 0.9134(3) 0.25712(10)
O2A O -0.4551(3) 0.9526(2) 0.41200(9)
H1A H -0.4902 1.0128 0.4285
O3A O 0.6182(2) 0.6788(3) 0.43750(9)
H2A H 0.6067 0.7607 0.4312
N2A N -0.4472(3) 1.3792(3) 0.37687(10)
N2A_2 N 0.5528(3) 0.3792(3) 0.37687(10)
N3A N -0.3441(3) 1.2212(3) 0.33162(10)
O4A O 0.0496(3) 0.6332(3) 0.13760(8)
O4_2 O -0.0496(3) 1.1332(3) 0.36240(8)
C2A C -0.4070(3) 1.1573(3) 0.36995(12)
O5A O -0.3423(3) 0.9409(2) 0.34244(9)
C3A C -0.0299(4) 0.7263(4) 0.14411(13)
O6A O -0.1053(3) 0.7684(3) 0.10808(9)
H3A H -0.1542 0.8310 0.1174
N4A N 0.0342(3) 0.7499(3) 0.22975(10)
N4_2 N -0.0342(3) 1.2499(3) 0.27025(10)
C4A C -0.3703(3) 1.3535(3) 0.33746(12)
O7A O -0.5635(3) 1.1277(3) 0.46346(9)
N5B N 1.2088(3) 1.6814(3) 0.00471(11)
C5A C -0.1289(3) 0.8945(3) 0.20866(12)
C6A C -0.5500(3) 1.2461(4) 0.44290(12)
C7A C -0.0440(3) 0.7932(3) 0.19162(12)
N6B N 1.2990(3) 1.8463(3) -0.03836(11)
N6A N 0.2990(3) 0.6537(3) 0.46164(11)
O8A O -0.2909(2) 1.0683(2) 0.21101(8)
C8A C -0.4704(3) 1.2552(3) 0.39786(12)
C9A C -0.2323(3) 0.9796(4) 0.18512(13)
C10B C 1.1596(4) 1.8009(5) 0.02233(15)
H4B H 1.0994 1.8108 0.0477
C11B C 1.2913(3) 1.7138(4) -0.03188(13)
H5B H 1.3371 1.6490 -0.0503
C12B C 1.2139(4) 1.9013(4) -0.00363(15)
H6B H 1.1975 1.9951 0.0008
O9A O -0.2549(2) 0.9611(2) 0.13991(9)
O9A_2 O 0.7451(2) 0.9611(2) 0.13991(9)
O10A O 0.4476(3) 0.7159(3) 0.34906(10)
H7A H 0.4068 0.6888 0.3249
C13A C -0.0042(3) 0.8241(3) 0.26816(12)
C14A C 0.0425(4) 0.8033(4) 0.31917(13)
H8A H 0.0505 0.8923 0.3351
H9A H 0.1306 0.7607 0.3191
C15A C -0.3184(4) 1.4616(4) 0.30371(13)
H10A H -0.2214 1.4556 0.3032
H11A H -0.3417 1.5517 0.3165
C16A C -0.3703(4) 1.4520(5) 0.25222(15)
H12A H -0.4674 1.4549 0.2525
H13A H -0.3437 1.3638 0.2386
C17A C -0.0546(4) 0.7113(5) 0.34788(15)
H14A H -0.1433 0.7521 0.3461
H15A H -0.0593 0.6217 0.3322
C18A C -0.3192(5) 1.5670(6) 0.21994(19)
H16A H -0.3540 1.6539 0.2309
H17A H -0.3483 1.5508 0.1871
H18A H -0.2231 1.5690 0.2213
C19A C -0.0193(5) 0.6904(6) 0.39938(17)
H19A H 0.0673 0.6476 0.4018
H20A H -0.0849 0.6319 0.4142
H21A H -0.0173 0.7780 0.4157
C20B C 1.1805(4) 1.5426(4) 0.02229(14)
H22B H 1.2612 1.4873 0.0199
H23B H 1.1569 1.5479 0.0563
C21B C 1.0691(4) 1.4713(4) -0.00500(15)
H24B H 1.0863 1.4787 -0.0395
H25B H 1.0702 1.3740 0.0034
H26A H 0.519(3) 0.767(4) 0.3424(13)
H27A H 0.618(4) 0.672(4) 0.4699(4)
loop_
_geom_bond_atom_site_label_1
_geom_bond_atom_site_label_2
_geom_bond_site_symmetry_1
_geom_bond_site_symmetry_2
Cd1 N1 1_555 1_555
Cd2 O1 1_555 1_555
O1 C6 1_555 1_555
C1 O2 1_555 1_555
N1 C5 1_555 1_555
O2 H1 1_555 1_555
O3 Cd2 1_555 1_555
H2 O3 1_555 1_555
N2 Cd2 1_555 1_555
N3 Cd1 1_555 1_555
O4 C3 1_555 1_555
C2 C1 1_555 1_555
O5 Cd1 1_555 1_555
C3 O6 1_555 1_555
O6 H3 1_555 1_555
N4 C7 1_555 1_555
C4 N2 1_555 1_555
O7 C6 1_555 1_555
N5 C10 1_555 1_555
C5 C7 1_555 1_555
C6 C8 1_555 1_555
C7 C3 1_555 1_555
N6 Cd2 1_555 1_555
O8 Cd1 1_555 1_555
C8 N2 1_555 1_555
C9 C5 1_555 1_555
C10 H4 1_555 1_555
C11 N5 1_555 1_555
H5 C11 1_555 1_555
C12 N6 1_555 1_555
H6 C12 1_555 1_555
O9 C9 1_555 1_555
O10 Cd2 1_555 1_555
H7 O10 1_555 1_555
C13 N1 1_555 1_555
C14 C13 1_555 1_555
H8 C14 1_555 1_555
H9 C14 1_555 1_555
C15 C4 1_555 1_555
H10 C15 1_555 1_555
H11 C15 1_555 1_555
C16 C15 1_555 1_555
H12 C16 1_555 1_555
H13 C16 1_555 1_555
C17 C14 1_555 1_555
H14 C17 1_555 1_555
H15 C17 1_555 1_555
C18 C16 1_555 1_555
H16 C18 1_555 1_555
H17 C18 1_555 1_555
H18 C18 1_555 1_555
C19 C17 1_555 1_555
H19 C19 1_555 1_555
H20 C19 1_555 1_555
H21 C19 1_555 1_555
C20 N5 1_555 1_555
H22 C20 1_555 1_555
H23 C20 1_555 1_555
C21 C20 1_555 1_555
H24 C21 1_555 1_555
H25 C21 1_555 1_555
H26 O10 1_555 1_555
H27 O3 1_555 1_555
Cd1A N1A 1_555 1_555
Cd1A_2 O4 1_555 1_555
Cd2A O9 1_555 1_555
Cd2B N6B 1_555 1_555
Cd2_2 O9A 1_555 1_555
Cd2A_2 O1A 1_555 1_555
O1A C6A 1_555 1_555
O1A_2 Cd2A 1_555 1_555
C1A O2A 1_555 1_555
N1A C5A 1_555 1_555
O2A H1A 1_555 1_555
O3A Cd2A 1_555 1_555
H2A O3A 1_555 1_555
N2A Cd2A_2 1_555 1_555
N2A_2 Cd2A 1_555 1_555
N3A Cd1A 1_555 1_555
O4A Cd1 1_555 1_555
O4_2 Cd1A 1_555 1_555
C2A C1A 1_555 1_555
O5A Cd1A 1_555 1_555
C3A O4A 1_555 1_555
O6A C3A 1_555 1_555
H3A O6A 1_555 1_555
N4A Cd1 1_555 1_555
N4_2 Cd1A 1_555 1_555
C4A N2A 1_555 1_555
O7A C6A 1_555 1_555
N5B C10B 1_555 1_555
C5A C7A 1_555 1_555
C6A C8A 1_555 1_555
C7A C3A 1_555 1_555
N6B C11B 1_555 1_555
N6A Cd2A 1_555 1_555
O8A Cd1A 1_555 1_555
C8A N2A 1_555 1_555
C9A C5A 1_555 1_555
C10B H4B 1_555 1_555
C11B N5B 1_555 1_555
H5B C11B 1_555 1_555
C12B N6B 1_555 1_555
H6B C12B 1_555 1_555
O9A C9A 1_555 1_555
O9A_2 Cd2 1_555 1_555
O10A Cd2A 1_555 1_555
H7A O10A 1_555 1_555
C13A N1A 1_555 1_555
C14A C13A 1_555 1_555
H8A C14A 1_555 1_555
H9A C14A 1_555 1_555
C15A C4A 1_555 1_555
H10A C15A 1_555 1_555
H11A C15A 1_555 1_555
C16A C15A 1_555 1_555
H12A C16A 1_555 1_555
H13A C16A 1_555 1_555
C17A C14A 1_555 1_555
H14A C17A 1_555 1_555
H15A C17A 1_555 1_555
C18A C16A 1_555 1_555
H16A C18A 1_555 1_555
H17A C18A 1_555 1_555
H18A C18A 1_555 1_555
C19A C17A 1_555 1_555
H19A C19A 1_555 1_555
H20A C19A 1_555 1_555
H21A C19A 1_555 1_555
C20B N5B 1_555 1_555
H22B C20B 1_555 1_555
H23B C20B 1_555 1_555
C21B C21 1_555 1_555
H24B C21B 1_555 1_555
H25B C21B 1_555 1_555
H26A O10A 1_555 1_555
H27A O3A 1_555 1_555
C1 O5 1_555 1_555
N3 C2 1_555 1_555
N3 C4 1_555 1_555
C2 C8 1_555 1_555
N4 C13 1_555 1_555
N4 Cd1A_2 1_555 1_555
N6 C11 1_555 1_555
O8 C9 1_555 1_555
C10 C12 1_555 1_555
C1A O5A 1_555 1_555
N3A C2A 1_555 1_555
N3A C4A 1_555 1_555
C2A C8A 1_555 1_555
N4A C7A 1_555 1_555
N4A C13A 1_555 1_555
O8A C9A 1_555 1_555
C10B C12B 1_555 1_555
C20B C21B 1_555 1_555

#END
