
#######################################################################
#
#                 Cambridge Crystallographic Data Centre
#                                CCDC 
#
#######################################################################
#
# If this CIF has been generated from an entry in the Cambridge 
# Structural Database, then it will include bibliographic, chemical, 
# crystal, experimental, refinement or atomic coordinate data resulting 
# from the CCDC's data processing and validation procedures.
#
#######################################################################

data_LARXIN
_symmetry_cell_setting           monoclinic
_symmetry_space_group_name_H-M   'C 2/m'
_symmetry_Int_Tables_number      12
_space_group_name_Hall           '-C 2y'
loop_
_symmetry_equiv_pos_site_id
_symmetry_equiv_pos_as_xyz
1 x,y,z
2 -x,y,-z
3 1/2+x,1/2+y,z
4 1/2-x,1/2+y,-z
5 -x,-y,-z
6 x,-y,z
7 1/2-x,1/2-y,-z
8 1/2+x,1/2-y,z
_cell_length_a                   10.3837(2)
_cell_length_b                   7.1228(1)
_cell_length_c                   9.5745(2)
_cell_angle_alpha                90
_cell_angle_beta                 120.680(1)
_cell_angle_gamma                90
_cell_volume                     609.022
loop_
_atom_site_label
_atom_site_type_symbol
_atom_site_fract_x
_atom_site_fract_y
_atom_site_fract_z
Pb1 Pb 0.254033(12) 0.5000 0.127238(14)
S1 S 0.37893(9) 0.5000 -0.39327(10)
O1 O 0.3114(2) 0.6543(3) -0.0935(2)
O2 O 0.3019(3) 0.5000 -0.5691(3)
O3 O 0.4696(2) 0.3312(3) -0.3195(2)
O4 O -0.0028(3) 0.5000 -0.1530(3)
C1 C 0.2909(4) 0.5000 -0.1661(4)
C2 C 0.2333(4) 0.5000 -0.3457(4)
H1 H 0.1710 0.6100 -0.3940
H2 H -0.026(5) 0.595(5) -0.218(5)
Pb1C Pb 0.245967(12) 1.0000 -0.127238(14)
Pb1_2 Pb 0.254033(12) 0.5000 -0.872762(14)
Pb1A Pb 0.745967(12) 0.5000 -0.127238(14)
Pb1A_2 Pb -0.254033(12) 0.5000 -0.127238(14)
Pb1C_2 Pb 0.245967(12) 0.0000 -0.127238(14)
O1E O 0.3114(2) 0.3457(3) -0.0935(2)
O1C O 0.1886(2) 0.1543(3) 0.0935(2)
O1F O 0.1886(2) 0.8457(3) 0.0935(2)
O2_2 O 0.3019(3) 0.5000 0.4309(3)
O3E O 0.4696(2) 0.6688(3) -0.3195(2)
O3A O 0.5304(2) 0.3312(3) 0.3195(2)
O3D O 0.5304(2) 0.6688(3) 0.3195(2)
O4A O 0.0028(3) 0.5000 0.1530(3)
H1E H 0.1710 0.3900 -0.3940
H2E H -0.026(5) 0.405(5) -0.218(5)
H2A H 0.026(5) 0.595(5) 0.218(5)
H2D H 0.026(5) 0.405(5) 0.218(5)
loop_
_geom_bond_atom_site_label_1
_geom_bond_atom_site_label_2
_geom_bond_site_symmetry_1
_geom_bond_site_symmetry_2
Pb1 O1 1_555 1_555
S1 O2 1_555 1_555
O1 C1 1_555 1_555
O2 Pb1_2 1_555 1_555
O3 S1 1_555 1_555
O4 Pb1 1_555 1_555
C1 C2 1_555 1_555
C2 S1 1_555 1_555
H1 C2 1_555 1_555
H2 O4 1_555 1_555
Pb1C O1 1_555 1_555
Pb1A O3 1_555 1_555
Pb1A_2 O4 1_555 1_555
Pb1C_2 O1E 1_555 1_555
O1E Pb1 1_555 1_555
O1C Pb1 1_555 1_555
O1F Pb1 1_555 1_555
O2_2 Pb1 1_555 1_555
O3E S1 1_555 1_555
O3A Pb1 1_555 1_555
O3D Pb1 1_555 1_555
O4A Pb1 1_555 1_555
H1E C2 1_555 1_555
H2E O4 1_555 1_555
H2A O4A 1_555 1_555
H2D O4A 1_555 1_555
C1 O1E 1_555 1_555
Pb1C O1F 1_555 1_555
Pb1A O3E 1_555 1_555
Pb1A_2 O4A 1_555 1_555
Pb1C_2 O1C 1_555 1_555

#END
