
#######################################################################
#
#                 Cambridge Crystallographic Data Centre
#                                CCDC 
#
#######################################################################
#
# If this CIF has been generated from an entry in the Cambridge 
# Structural Database, then it will include bibliographic, chemical, 
# crystal, experimental, refinement or atomic coordinate data resulting 
# from the CCDC's data processing and validation procedures.
#
#######################################################################

data_LARYOU
_symmetry_cell_setting           monoclinic
_symmetry_space_group_name_H-M   'P 21/c'
_symmetry_Int_Tables_number      14
_space_group_name_Hall           '-P 2ybc'
loop_
_symmetry_equiv_pos_site_id
_symmetry_equiv_pos_as_xyz
1 x,y,z
2 -x,1/2+y,1/2-z
3 -x,-y,-z
4 x,1/2-y,1/2+z
_cell_length_a                   10.661(6)
_cell_length_b                   12.894(7)
_cell_length_c                   6.715(4)
_cell_angle_alpha                90
_cell_angle_beta                 95.375(6)
_cell_angle_gamma                90
_cell_volume                     919.005
loop_
_atom_site_label
_atom_site_type_symbol
_atom_site_fract_x
_atom_site_fract_y
_atom_site_fract_z
C1 C 0.1056(4) -0.3592(4) -0.1132(7)
C2 C 0.0799(5) -0.4524(4) -0.2104(7)
H1 H 0.1458 -0.4958 -0.2379
C3 C -0.0427(4) -0.4814(4) -0.2667(7)
H2 H -0.0590 -0.5445 -0.3311
C4 C -0.1420(4) -0.4171(4) -0.2283(7)
C5 C -0.1168(5) -0.3245(4) -0.1281(8)
H3 H -0.1827 -0.2814 -0.0992
C6 C 0.0057(5) -0.2961(4) -0.0712(8)
H4 H 0.0220 -0.2338 -0.0037
C7 C 0.2385(4) -0.3254(4) -0.0614(7)
C8 C -0.2733(5) -0.4494(4) -0.2975(8)
C9 C 0.5440(5) -0.1306(4) -0.2784(8)
H5 H 0.579(5) -0.132(4) -0.380(8)
O1 O 0.2580(3) -0.2424(3) 0.0291(5)
O2 O 0.3258(3) -0.3826(3) -0.1185(5)
O3 O -0.2875(3) -0.5368(3) -0.3797(6)
O4 O -0.3616(3) -0.3871(3) -0.2731(6)
O5 O 0.4919(3) -0.2106(2) -0.2229(5)
O6 O 0.5506(3) -0.0510(3) -0.1763(5)
Tb1 Tb 0.42631(2) -0.128780(16) 0.09861(3)
O2C O 0.3258(3) -0.1174(3) 0.3815(5)
O3A O 0.2875(3) -0.0368(3) -0.1203(6)
O4C O 0.6384(3) -0.1129(3) 0.2269(6)
O5C O 0.4919(3) -0.2894(2) 0.2771(5)
O6B O 0.4494(3) 0.0510(3) 0.1763(5)
Tb1C Tb 0.42631(2) -0.371220(16) -0.40139(3)
Tb1A Tb -0.42631(2) -0.628780(16) -0.59861(3)
Tb1B Tb 0.57369(2) 0.128780(16) -0.09861(3)
Tb1C_2 Tb -0.57369(2) -0.371220(16) -0.40139(3)
loop_
_geom_bond_atom_site_label_1
_geom_bond_atom_site_label_2
_geom_bond_site_symmetry_1
_geom_bond_site_symmetry_2
C1 C2 1_555 1_555
C2 H1 1_555 1_555
C3 C2 1_555 1_555
H2 C3 1_555 1_555
C4 C3 1_555 1_555
C5 C4 1_555 1_555
H3 C5 1_555 1_555
C6 C1 1_555 1_555
H4 C6 1_555 1_555
C7 C1 1_555 1_555
C8 C4 1_555 1_555
C9 H5 1_555 1_555
O1 C7 1_555 1_555
O2 C7 1_555 1_555
O3 C8 1_555 1_555
O4 C8 1_555 1_555
O5 C9 1_555 1_555
O6 C9 1_555 1_555
Tb1 O1 1_555 1_555
O2C Tb1 1_555 1_555
O3A Tb1 1_555 1_555
O4C Tb1 1_555 1_555
O5C Tb1 1_555 1_555
O6B Tb1 1_555 1_555
Tb1C O2 1_555 1_555
Tb1A O3 1_555 1_555
Tb1B O6 1_555 1_555
Tb1C_2 O4 1_555 1_555
C5 C6 1_555 1_555
O5 Tb1 1_555 1_555
O5 Tb1C 1_555 1_555
O6 Tb1 1_555 1_555
O6B Tb1B 1_555 1_555

#END
