
#######################################################################
#
#                 Cambridge Crystallographic Data Centre
#                                CCDC 
#
#######################################################################
#
# If this CIF has been generated from an entry in the Cambridge 
# Structural Database, then it will include bibliographic, chemical, 
# crystal, experimental, refinement or atomic coordinate data resulting 
# from the CCDC's data processing and validation procedures.
#
#######################################################################

data_LARZOV
_symmetry_cell_setting           monoclinic
_symmetry_space_group_name_H-M   'P 21/c'
_symmetry_Int_Tables_number      14
_space_group_name_Hall           '-P 2ybc'
loop_
_symmetry_equiv_pos_site_id
_symmetry_equiv_pos_as_xyz
1 x,y,z
2 -x,1/2+y,1/2-z
3 -x,-y,-z
4 x,1/2-y,1/2+z
_cell_length_a                   9.3330(19)
_cell_length_b                   21.050(4)
_cell_length_c                   18.687(4)
_cell_angle_alpha                90
_cell_angle_beta                 102.47(3)
_cell_angle_gamma                90
_cell_volume                     3584.63
loop_
_atom_site_label
_atom_site_type_symbol
_atom_site_fract_x
_atom_site_fract_y
_atom_site_fract_z
Cd1 Cd -0.84251(2) 1.018241(10) -0.223345(11)
Cd2 Cd -0.75070(2) 1.302890(10) -0.053700(12)
O1 O -0.9322(3) 1.25599(11) 0.00083(13)
O2 O -1.0695(3) 1.16960(12) 0.00084(15)
O3 O -1.2688(3) 0.89376(11) -0.52271(12)
O4 O -1.2169(3) 0.99622(12) -0.52419(12)
O5 O -1.0752(3) 1.07507(11) -0.44141(13)
O6 O -0.9360(3) 1.07905(10) -0.32890(12)
O7 O -1.0062(2) 1.01027(10) -0.13855(13)
O8 O -1.0995(3) 1.06453(12) -0.05763(14)
N1 N -0.5657(3) 1.26746(14) 0.04439(15)
N2 N -0.5198(3) 1.32871(13) -0.07636(15)
N3 N -0.8064(3) 1.20738(11) -0.10838(13)
N4 N -1.1263(3) 0.88201(11) -0.37679(13)
N5 N -0.9907(2) 0.95390(11) -0.30309(12)
N6 N -0.6112(3) 1.02142(13) -0.25400(14)
N7 N -0.6704(3) 0.95894(14) -0.13758(15)
N8 N -0.8308(3) 1.11102(11) -0.16039(13)
C1 C -0.5950(5) 1.2411(2) 0.1046(2)
H1 H -0.6922 1.2319 0.1053
C2 C -0.4880(5) 1.2268(2) 0.1655(3)
H2 H -0.5110 1.2070 0.2061
C3 C -0.3468(6) 1.2427(3) 0.1642(3)
H3 H -0.2725 1.2358 0.2054
C4 C -0.3137(5) 1.2690(3) 0.1023(2)
H4 H -0.2171 1.2785 0.1007
C5 C -0.4267(4) 1.28124(18) 0.04234(18)
C6 C -0.4008(3) 1.31126(15) -0.02557(19)
C7 C -0.2611(4) 1.3216(2) -0.0366(2)
H5 H -0.1796 1.3083 -0.0019
C8 C -0.2436(5) 1.3518(2) -0.0996(3)
H6 H -0.1500 1.3593 -0.1074
C9 C -0.3638(5) 1.3706(2) -0.1503(3)
H7 H -0.3541 1.3913 -0.1929
C10 C -0.4999(4) 1.35817(18) -0.1366(2)
H8 H -0.5823 1.3709 -0.1711
C11 C -0.9049(3) 1.17312(14) -0.07889(16)
C12 C -0.9734(4) 1.20169(15) -0.02234(18)
C13 C -1.2105(4) 0.94169(16) -0.49173(16)
C14 C -1.1290(3) 0.93819(13) -0.41470(15)
C15 C -1.0457(3) 0.98194(13) -0.36941(15)
C16 C -1.0161(3) 1.04982(14) -0.38090(16)
C17 C -1.0428(3) 0.89396(13) -0.30998(15)
C18 C -1.0157(4) 0.84700(16) -0.24860(19)
H9 H -0.9138 0.8497 -0.2230
H10 H -1.0325 0.8045 -0.2688
C19 C -1.1131(6) 0.8574(2) -0.1938(2)
H11 H -1.0908 0.8259 -0.1558
H12 H -1.2142 0.8537 -0.2184
H13 H -1.0955 0.8989 -0.1726
C20 C -1.0124(3) 1.05899(16) -0.10270(17)
C21 C -0.9191(3) 1.11401(14) -0.11114(16)
C22 C -0.7652(3) 1.16830(14) -0.15726(15)
C23 C -0.6581(4) 1.18680(16) -0.20174(18)
H14 H -0.6686 1.2318 -0.2127
H15 H -0.6805 1.1639 -0.2479
C24 C -0.4991(4) 1.1733(2) -0.1634(2)
H16 H -0.4348 1.1861 -0.1945
H17 H -0.4872 1.1286 -0.1534
H18 H -0.4753 1.1966 -0.1182
C25 C -0.5882(4) 1.05021(18) -0.31408(18)
H19 H -0.6685 1.0659 -0.3479
C26 C -0.4501(5) 1.0576(2) -0.3281(2)
H20 H -0.4371 1.0769 -0.3710
C27 C -0.3319(5) 1.0355(3) -0.2769(3)
H21 H -0.2372 1.0408 -0.2842
C28 C -0.3545(4) 1.0056(2) -0.2155(2)
H22 H -0.2752 0.9900 -0.1810
C29 C -0.4953(3) 0.99873(15) -0.20450(17)
C30 C -0.5283(3) 0.96621(15) -0.13950(17)
C31 C -0.4193(4) 0.9435(2) -0.0824(2)
H23 H -0.3210 0.9495 -0.0835
C32 C -0.4564(5) 0.9122(2) -0.0245(2)
H24 H -0.3840 0.8969 0.0138
C33 C -0.6019(5) 0.9038(2) -0.0242(2)
H25 H -0.6300 0.8820 0.0138
C34 C -0.7056(4) 0.9282(2) -0.0813(2)
H26 H -0.8043 0.9230 -0.0806
Cd2A Cd -1.24930(2) 0.802890(10) -0.446300(12)
O3A O -0.7312(3) 1.39376(11) 0.02271(12)
N4A N -0.8737(3) 1.38201(11) -0.12321(13)
O9 O -0.9462(4) 1.21051(14) -0.3502(2)
H27 H -0.936(6) 1.1685(7) -0.341(3)
H28 H -0.943(6) 1.213(3) -0.391(3)
loop_
_geom_bond_atom_site_label_1
_geom_bond_atom_site_label_2
_geom_bond_site_symmetry_1
_geom_bond_site_symmetry_2
Cd1 O6 1_555 1_555
Cd2 O1 1_555 1_555
O1 C12 1_555 1_555
O2 C12 1_555 1_555
O3 C13 1_555 1_555
O4 C13 1_555 1_555
O5 C16 1_555 1_555
O6 C16 1_555 1_555
O7 Cd1 1_555 1_555
O8 C20 1_555 1_555
O9 H27 1_555 1_555
N1 Cd2 1_555 1_555
N2 Cd2 1_555 1_555
N3 Cd2 1_555 1_555
N4 C14 1_555 1_555
N5 Cd1 1_555 1_555
N6 Cd1 1_555 1_555
N7 Cd1 1_555 1_555
N8 Cd1 1_555 1_555
C1 N1 1_555 1_555
H1 C1 1_555 1_555
C2 C1 1_555 1_555
H2 C2 1_555 1_555
C3 C2 1_555 1_555
H3 C3 1_555 1_555
C4 C3 1_555 1_555
H4 C4 1_555 1_555
C5 N1 1_555 1_555
C6 N2 1_555 1_555
C7 C6 1_555 1_555
H5 C7 1_555 1_555
C8 C7 1_555 1_555
H6 C8 1_555 1_555
C9 C8 1_555 1_555
H7 C9 1_555 1_555
C10 N2 1_555 1_555
H8 C10 1_555 1_555
C11 N3 1_555 1_555
C12 C11 1_555 1_555
C13 C14 1_555 1_555
C14 C15 1_555 1_555
C15 N5 1_555 1_555
C16 C15 1_555 1_555
C17 N4 1_555 1_555
C18 C17 1_555 1_555
H9 C18 1_555 1_555
H10 C18 1_555 1_555
C19 C18 1_555 1_555
H11 C19 1_555 1_555
H12 C19 1_555 1_555
H13 C19 1_555 1_555
C20 O7 1_555 1_555
C21 N8 1_555 1_555
C22 N3 1_555 1_555
C23 C22 1_555 1_555
H14 C23 1_555 1_555
H15 C23 1_555 1_555
C24 C23 1_555 1_555
H16 C24 1_555 1_555
H17 C24 1_555 1_555
H18 C24 1_555 1_555
C25 N6 1_555 1_555
H19 C25 1_555 1_555
C26 C25 1_555 1_555
H20 C26 1_555 1_555
C27 C26 1_555 1_555
H21 C27 1_555 1_555
C28 C27 1_555 1_555
H22 C28 1_555 1_555
C29 N6 1_555 1_555
C30 N7 1_555 1_555
C31 C30 1_555 1_555
H23 C31 1_555 1_555
C32 C31 1_555 1_555
H24 C32 1_555 1_555
C33 C32 1_555 1_555
H25 C33 1_555 1_555
C34 N7 1_555 1_555
H26 C34 1_555 1_555
H28 O9 1_555 1_555
Cd2A O3 1_555 1_555
O3A Cd2 1_555 1_555
N4A Cd2 1_555 1_555
N4 Cd2A 1_555 1_555
N5 C17 1_555 1_555
N8 C22 1_555 1_555
C4 C5 1_555 1_555
C5 C6 1_555 1_555
C9 C10 1_555 1_555
C11 C21 1_555 1_555
C20 C21 1_555 1_555
C28 C29 1_555 1_555
C29 C30 1_555 1_555
C33 C34 1_555 1_555

#END
