
#######################################################################
#
#                 Cambridge Crystallographic Data Centre
#                                CCDC 
#
#######################################################################
#
# If this CIF has been generated from an entry in the Cambridge 
# Structural Database, then it will include bibliographic, chemical, 
# crystal, experimental, refinement or atomic coordinate data resulting 
# from the CCDC's data processing and validation procedures.
#
#######################################################################

data_LASBIS
_symmetry_cell_setting           monoclinic
_symmetry_space_group_name_H-M   'C 2/c'
_symmetry_Int_Tables_number      15
_space_group_name_Hall           '-C 2yn'
loop_
_symmetry_equiv_pos_site_id
_symmetry_equiv_pos_as_xyz
1 x,y,z
2 -x,y,1/2-z
3 1/2+x,1/2+y,z
4 1/2-x,1/2+y,1/2-z
5 -x,-y,-z
6 x,-y,1/2+z
7 1/2-x,1/2-y,-z
8 1/2+x,1/2-y,1/2+z
_cell_length_a                   12.6362(10)
_cell_length_b                   18.7271(13)
_cell_length_c                   20.8941(14)
_cell_angle_alpha                90
_cell_angle_beta                 106.204(7)
_cell_angle_gamma                90
_cell_volume                     4747.95
loop_
_atom_site_label
_atom_site_type_symbol
_atom_site_fract_x
_atom_site_fract_y
_atom_site_fract_z
Mn1 Mn 0.92392(3) 0.20178(3) 0.81126(2)
S1 S 1.19458(6) 0.10460(5) 0.98360(4)
S2 S 0.58911(6) 0.19099(5) 0.67301(4)
O1 O 1.07964(16) 0.14841(12) 0.85826(10)
O2 O 1.12536(16) 0.12391(12) 0.76467(10)
O3 O 0.77127(15) 0.26040(12) 0.76658(10)
O4 O 0.82517(16) 0.34790(13) 0.71009(12)
O5 O 1.0000 0.27284(16) 0.7500
N1 N 1.16684(19) -0.12739(14) 1.13259(12)
N2 N 0.45500(19) 0.23233(14) 0.40636(13)
C1 C 1.1360(2) 0.11578(18) 0.82549(15)
C2 C 1.2230(2) 0.06367(17) 0.86214(15)
C3 C 1.2729(2) 0.02294(18) 0.82299(16)
H1 H 1.2495 0.0284 0.7769
C4 C 1.3562(3) -0.02529(18) 0.85009(17)
H2 H 1.3883 -0.0520 0.8229
C5 C 1.3904(2) -0.03283(18) 0.91869(17)
H3 H 1.4477 -0.0640 0.9380
C6 C 1.3413(2) 0.00493(17) 0.95853(16)
H4 H 1.3648 -0.0019 1.0044
C7 C 1.2559(2) 0.05382(17) 0.93167(15)
C8 C 1.1126(2) -0.09942(19) 1.07388(15)
H5 H 1.0503 -0.1233 1.0487
C9 C 1.1430(2) -0.03735(19) 1.04822(16)
H6 H 1.1026 -0.0207 1.0067
C10 C 1.2348(2) -0.00006(18) 1.08519(15)
C11 C 1.2954(2) -0.03073(18) 1.14488(15)
H7 H 1.3595 -0.0088 1.1703
C12 C 1.2601(2) -0.09351(18) 1.16604(15)
H8 H 1.3027 -0.1137 1.2055
C13 C 1.2651(3) 0.07317(18) 1.06581(15)
H9 H 1.2522 0.1072 1.0978
H10 H 1.3436 0.0734 1.0702
C14 C 0.7527(2) 0.31205(19) 0.72625(15)
C15 C 0.6348(2) 0.33301(18) 0.69477(15)
C16 C 0.5520(2) 0.28227(17) 0.67009(15)
C17 C 0.4446(2) 0.3060(2) 0.64120(17)
H11 H 0.3890 0.2727 0.6245
C18 C 0.4194(3) 0.3775(2) 0.63702(18)
H12 H 0.3470 0.3921 0.6181
C19 C 0.5009(3) 0.4279(2) 0.66071(17)
H13 H 0.4842 0.4764 0.6577
C20 C 0.6076(2) 0.40488(19) 0.68901(16)
H14 H 0.6628 0.4386 0.7047
C21 C 0.3662(2) 0.21437(17) 0.42637(16)
H15 H 0.2971 0.2183 0.3958
C22 C 0.3719(2) 0.19058(17) 0.48940(15)
H16 H 0.3079 0.1789 0.5007
C23 C 0.4741(2) 0.18404(16) 0.53633(15)
C24 C 0.5659(2) 0.20282(17) 0.51663(15)
H17 H 0.6356 0.2003 0.5467
C25 C 0.5534(2) 0.22531(17) 0.45225(15)
H18 H 0.6166 0.2363 0.4397
C26 C 0.4826(2) 0.15415(19) 0.60444(15)
H19 H 0.4123 0.1612 0.6137
H20 H 0.4946 0.1031 0.6032
Mn1A Mn 1.07608(3) 0.20178(3) 0.68874(2)
Mn1D Mn 1.07608(3) -0.20178(3) 1.18874(2)
Mn1G Mn 0.42392(3) 0.29822(3) 0.31126(2)
Mn1E Mn 0.92392(3) -0.20178(3) 0.31126(2)
Mn1G_2 Mn 1.42392(3) 0.29822(3) 1.31126(2)
S1A S 0.80542(6) 0.10460(5) 0.51640(4)
S2G S 1.08911(6) 0.30901(5) 1.17301(4)
O1A O 0.92036(16) 0.14841(12) 0.64174(10)
O2A O 0.87464(16) 0.12391(12) 0.73533(10)
O3G O 1.27127(15) 0.23960(12) 1.26658(10)
O3A O 1.22873(15) 0.26040(12) 0.73342(10)
O4G O 1.32517(16) 0.15210(13) 1.21009(12)
N1A N 0.83316(19) -0.12739(14) 0.36741(12)
N1D N 0.83316(19) 0.12739(14) 0.86741(12)
N1E N 1.16684(19) 0.12739(14) 0.63259(12)
N2G N 0.95500(19) 0.26767(14) 0.90636(13)
N2F N 1.04500(19) 0.26767(14) 0.59364(13)
C1A C 0.8640(2) 0.11578(18) 0.67451(15)
C2A C 0.7770(2) 0.06367(17) 0.63786(15)
C3A C 0.7271(2) 0.02294(18) 0.67701(16)
H1A H 0.7505 0.0284 0.7231
C4A C 0.6438(3) -0.02529(18) 0.64991(17)
H2A H 0.6117 -0.0520 0.6771
C5A C 0.6096(2) -0.03283(18) 0.58131(17)
H3A H 0.5523 -0.0640 0.5620
C6A C 0.6587(2) 0.00493(17) 0.54147(16)
H4A H 0.6352 -0.0019 0.4956
C7A C 0.7441(2) 0.05382(17) 0.56833(15)
C8A C 0.8874(2) -0.09942(19) 0.42612(15)
H5A H 0.9497 -0.1233 0.4513
C9A C 0.8570(2) -0.03735(19) 0.45178(16)
H6A H 0.8974 -0.0207 0.4933
C10A C 0.7652(2) -0.00006(18) 0.41481(15)
C11A C 0.7046(2) -0.03073(18) 0.35512(15)
H7A H 0.6405 -0.0088 0.3297
C12A C 0.7399(2) -0.09351(18) 0.33396(15)
H8A H 0.6973 -0.1137 0.2945
C13A C 0.7349(3) 0.07317(18) 0.43419(15)
H9A H 0.7478 0.1072 0.4022
H10A H 0.6564 0.0734 0.4298
C14G C 1.2527(2) 0.18795(19) 1.22625(15)
C15G C 1.1348(2) 0.16699(18) 1.19477(15)
C16G C 1.0520(2) 0.21773(17) 1.17009(15)
C17G C 0.9446(2) 0.1940(2) 1.14120(17)
H11G H 0.8890 0.2273 1.1245
C18G C 0.9194(3) 0.1225(2) 1.13702(18)
H12G H 0.8470 0.1079 1.1181
C19G C 1.0009(3) 0.0721(2) 1.16071(17)
H13G H 0.9842 0.0236 1.1577
C20G C 1.1076(2) 0.09512(19) 1.18901(16)
H14G H 1.1628 0.0614 1.2047
C21G C 0.8662(2) 0.28563(17) 0.92637(16)
H15G H 0.7971 0.2817 0.8958
C22G C 0.8719(2) 0.30942(17) 0.98940(15)
H16G H 0.8079 0.3211 1.0007
C23G C 0.9741(2) 0.31596(16) 1.03633(15)
C24G C 1.0659(2) 0.29718(17) 1.01663(15)
H17G H 1.1356 0.2997 1.0467
C25G C 1.0534(2) 0.27469(17) 0.95225(15)
H18G H 1.1166 0.2637 0.9397
C26G C 0.9826(2) 0.34585(19) 1.10444(15)
H19G H 0.9123 0.3388 1.1137
H20G H 0.9946 0.3969 1.1032
loop_
_geom_bond_atom_site_label_1
_geom_bond_atom_site_label_2
_geom_bond_site_symmetry_1
_geom_bond_site_symmetry_2
Mn1 O1 1_555 1_555
S1 C7 1_555 1_555
S2 C16 1_555 1_555
O1 C1 1_555 1_555
O2 C1 1_555 1_555
O3 Mn1 1_555 1_555
O4 C14 1_555 1_555
O5 Mn1 1_555 1_555
N1 C8 1_555 1_555
N2 C21 1_555 1_555
C1 C2 1_555 1_555
C2 C3 1_555 1_555
C3 H1 1_555 1_555
C4 C3 1_555 1_555
H2 C4 1_555 1_555
C5 C4 1_555 1_555
H3 C5 1_555 1_555
C6 C5 1_555 1_555
H4 C6 1_555 1_555
C7 C2 1_555 1_555
C8 H5 1_555 1_555
C9 C8 1_555 1_555
H6 C9 1_555 1_555
C10 C9 1_555 1_555
C11 C10 1_555 1_555
H7 C11 1_555 1_555
C12 N1 1_555 1_555
H8 C12 1_555 1_555
C13 S1 1_555 1_555
H9 C13 1_555 1_555
H10 C13 1_555 1_555
C14 O3 1_555 1_555
C15 C14 1_555 1_555
C16 C15 1_555 1_555
C17 C16 1_555 1_555
H11 C17 1_555 1_555
C18 C17 1_555 1_555
H12 C18 1_555 1_555
C19 C18 1_555 1_555
H13 C19 1_555 1_555
C20 C15 1_555 1_555
H14 C20 1_555 1_555
C21 H15 1_555 1_555
C22 C21 1_555 1_555
H16 C22 1_555 1_555
C23 C22 1_555 1_555
C24 C23 1_555 1_555
H17 C24 1_555 1_555
C25 N2 1_555 1_555
H18 C25 1_555 1_555
C26 S2 1_555 1_555
H19 C26 1_555 1_555
H20 C26 1_555 1_555
Mn1A O2 1_555 1_555
Mn1D N1 1_555 1_555
Mn1G N2 1_555 1_555
Mn1E N1A 1_555 1_555
Mn1G_2 O3G 1_555 1_555
S1A C7A 1_555 1_555
S2G C16G 1_555 1_555
O1A Mn1A 1_555 1_555
O2A Mn1 1_555 1_555
O3G C14G 1_555 1_555
O3A Mn1A 1_555 1_555
O4G C14G 1_555 1_555
N1A C8A 1_555 1_555
N1D Mn1 1_555 1_555
N1E Mn1A 1_555 1_555
N2G Mn1 1_555 1_555
N2F Mn1A 1_555 1_555
C1A O1A 1_555 1_555
C2A C1A 1_555 1_555
C3A C2A 1_555 1_555
H1A C3A 1_555 1_555
C4A C3A 1_555 1_555
H2A C4A 1_555 1_555
C5A C4A 1_555 1_555
H3A C5A 1_555 1_555
C6A C5A 1_555 1_555
H4A C6A 1_555 1_555
C7A C2A 1_555 1_555
C8A H5A 1_555 1_555
C9A C8A 1_555 1_555
H6A C9A 1_555 1_555
C10A C9A 1_555 1_555
C11A C10A 1_555 1_555
H7A C11A 1_555 1_555
C12A N1A 1_555 1_555
H8A C12A 1_555 1_555
C13A S1A 1_555 1_555
H9A C13A 1_555 1_555
H10A C13A 1_555 1_555
C14G C15G 1_555 1_555
C15G C16G 1_555 1_555
C16G C17G 1_555 1_555
C17G H11G 1_555 1_555
C18G C17G 1_555 1_555
H12G C18G 1_555 1_555
C19G C18G 1_555 1_555
H13G C19G 1_555 1_555
C20G C15G 1_555 1_555
H14G C20G 1_555 1_555
C21G N2G 1_555 1_555
H15G C21G 1_555 1_555
C22G C21G 1_555 1_555
H16G C22G 1_555 1_555
C23G C22G 1_555 1_555
C24G C23G 1_555 1_555
H17G C24G 1_555 1_555
C25G N2G 1_555 1_555
H18G C25G 1_555 1_555
C26G S2G 1_555 1_555
H19G C26G 1_555 1_555
H20G C26G 1_555 1_555
O5 Mn1A 1_555 1_555
C6 C7 1_555 1_555
C10 C13 1_555 1_555
C11 C12 1_555 1_555
C19 C20 1_555 1_555
C23 C26 1_555 1_555
C24 C25 1_555 1_555
O2A C1A 1_555 1_555
C6A C7A 1_555 1_555
C10A C13A 1_555 1_555
C11A C12A 1_555 1_555
C19G C20G 1_555 1_555
C23G C26G 1_555 1_555
C24G C25G 1_555 1_555

#END
