
#######################################################################
#
#                 Cambridge Crystallographic Data Centre
#                                CCDC 
#
#######################################################################
#
# If this CIF has been generated from an entry in the Cambridge 
# Structural Database, then it will include bibliographic, chemical, 
# crystal, experimental, refinement or atomic coordinate data resulting 
# from the CCDC's data processing and validation procedures.
#
#######################################################################

data_LASDAM
_symmetry_cell_setting           triclinic
_symmetry_space_group_name_H-M   'P -1'
_symmetry_Int_Tables_number      2
_space_group_name_Hall           '-P 1'
loop_
_symmetry_equiv_pos_site_id
_symmetry_equiv_pos_as_xyz
1 x,y,z
2 -x,-y,-z
_cell_length_a                   7.405(4)
_cell_length_b                   7.855(5)
_cell_length_c                   12.379(8)
_cell_angle_alpha                102.512(5)
_cell_angle_beta                 95.582(4)
_cell_angle_gamma                102.822(6)
_cell_volume                     677.374
loop_
_atom_site_label
_atom_site_type_symbol
_atom_site_fract_x
_atom_site_fract_y
_atom_site_fract_z
Cu1 Cu 0.26513(4) 0.33341(4) 0.26884(2)
C1 C 0.2646(4) 0.1724(3) 0.4736(2)
H1 H 0.2785 0.0658 0.4291
C2 C 0.2572(4) 0.4064(4) -0.0639(2)
H2 H 0.2624 0.3390 -0.1347
N1 N 0.4165(3) 0.1583(3) 0.22395(17)
C3 C 0.5348(3) 0.0915(3) 0.2028(2)
O1 O 0.2328(3) 0.7680(2) 0.50077(16)
N2 N 0.2660(3) 0.4300(3) 0.13140(16)
N3 N 0.2629(3) 0.3138(3) 0.42968(16)
N4 N 0.2390(3) 0.5691(3) 0.33456(17)
C4 C 0.8336(4) 0.0756(3) 0.1950(2)
N5 N 0.9923(3) 0.1291(3) 0.2093(2)
C5 C 0.2426(3) 0.4649(3) 0.49681(19)
N6 N 0.2281(4) 0.3329(3) 0.65292(18)
N7 N 0.6557(3) -0.0001(3) 0.1748(3)
C6 C 0.2721(4) 0.3364(4) 0.0274(2)
H3 H 0.2871 0.2198 0.0175
C7 C 0.2368(4) 0.6945(3) 0.2645(2)
H4 H 0.3438 0.7977 0.2908
H5 H 0.1235 0.7369 0.2671
C8 C 0.2283(4) 0.6766(3) 0.0566(2)
H6 H 0.2136 0.7934 0.0679
C9 C 0.2459(5) 0.1844(4) 0.5850(2)
H7 H 0.2458 0.0839 0.6132
C10 C 0.2445(3) 0.5979(3) 0.1464(2)
C11 C 0.2377(3) 0.6196(3) 0.4434(2)
C12 C 0.2257(4) 0.4722(3) 0.6079(2)
H8 H 0.2121 0.5785 0.6530
C13 C 0.2344(4) 0.5790(4) -0.0491(2)
H9 H 0.2231 0.6292 -0.1102
Cu1_2 Cu 1.26513(4) 0.33341(4) 0.26884(2)
N5_2 N -0.0077(3) 0.1291(3) 0.2093(2)
loop_
_geom_bond_atom_site_label_1
_geom_bond_atom_site_label_2
_geom_bond_site_symmetry_1
_geom_bond_site_symmetry_2
Cu1 N1 1_555 1_555
C1 H1 1_555 1_555
C2 H2 1_555 1_555
N1 C3 1_555 1_555
C3 N7 1_555 1_555
O1 C11 1_555 1_555
N2 Cu1 1_555 1_555
N3 Cu1 1_555 1_555
N4 Cu1 1_555 1_555
C4 N5 1_555 1_555
N5 Cu1_2 1_555 1_555
C5 N3 1_555 1_555
N6 C9 1_555 1_555
N7 C4 1_555 1_555
C6 C2 1_555 1_555
H3 C6 1_555 1_555
C7 N4 1_555 1_555
H4 C7 1_555 1_555
H5 C7 1_555 1_555
C8 H6 1_555 1_555
C9 C1 1_555 1_555
H7 C9 1_555 1_555
C10 N2 1_555 1_555
C11 N4 1_555 1_555
C12 C5 1_555 1_555
H8 C12 1_555 1_555
C13 C2 1_555 1_555
H9 C13 1_555 1_555
N5_2 Cu1 1_555 1_555
C1 N3 1_555 1_555
N2 C6 1_555 1_555
C5 C11 1_555 1_555
N6 C12 1_555 1_555
C7 C10 1_555 1_555
C8 C10 1_555 1_555
C8 C13 1_555 1_555

#END
