
#######################################################################
#
#                 Cambridge Crystallographic Data Centre
#                                CCDC 
#
#######################################################################
#
# If this CIF has been generated from an entry in the Cambridge 
# Structural Database, then it will include bibliographic, chemical, 
# crystal, experimental, refinement or atomic coordinate data resulting 
# from the CCDC's data processing and validation procedures.
#
#######################################################################

data_LASNOK
_symmetry_cell_setting           orthorhombic
_symmetry_space_group_name_H-M   'P n n a'
_symmetry_Int_Tables_number      52
_space_group_name_Hall           '-P 2a 2bc'
loop_
_symmetry_equiv_pos_site_id
_symmetry_equiv_pos_as_xyz
1 x,y,z
2 1/2-x,-y,z
3 x,1/2-y,1/2-z
4 1/2-x,1/2+y,1/2-z
5 -x,-y,-z
6 1/2+x,y,-z
7 -x,1/2+y,1/2+z
8 1/2+x,1/2-y,1/2+z
_cell_length_a                   14.1980(6)
_cell_length_b                   21.2033(6)
_cell_length_c                   8.7574(3)
_cell_angle_alpha                90
_cell_angle_beta                 90
_cell_angle_gamma                90
_cell_volume                     2636.37
loop_
_atom_site_label
_atom_site_type_symbol
_atom_site_fract_x
_atom_site_fract_y
_atom_site_fract_z
Cl3 Cl 0.7500 0.5000 0.5958(3)
O10 O 0.7438(12) 0.5672(3) 0.5711(14)
O11 O 0.6668(7) 0.4714(6) 0.5568(13)
O10A O 0.7562(12) 0.4328(3) 0.5711(14)
O11A O 0.8332(7) 0.5286(6) 0.5568(13)
O14 O 0.1659(7) 0.8836(6) 0.7673(11)
O15 O 0.2500 1.0000 0.604(3)
Cu1 Cu 0.05777(7) 0.2500 0.2500
N1 N 0.0565(3) 0.32781(18) 0.1213(5)
N2 N 0.0837(4) 0.4228(2) 0.0221(6)
N3 N 0.0110(3) 0.39403(18) -0.0521(4)
N4 N 0.0502(3) 0.37788(19) -0.3926(5)
N5 N 0.1176(4) 0.3390(2) -0.3337(5)
N6 N 0.0673(3) 0.30352(19) -0.5604(5)
C1 C -0.0039(4) 0.3380(2) 0.0090(6)
H1 H -0.0501 0.3097 -0.0224
C2 C 0.1088(4) 0.3811(2) 0.1240(6)
H2 H 0.1581 0.3875 0.1921
C3 C -0.0391(4) 0.4245(2) -0.1777(6)
H3 H -0.0645 0.4644 -0.1427
H4 H -0.0916 0.3981 -0.2085
C4 C 0.0233(5) 0.4360(2) -0.3129(7)
H5 H -0.0091 0.4635 -0.3840
H6 H 0.0799 0.4575 -0.2791
C5 C 0.0223(4) 0.3559(2) -0.5261(6)
H7 H -0.0229 0.3748 -0.5876
C6 C 0.1251(4) 0.2950(3) -0.4373(6)
H8 H 0.1661 0.2610 -0.4283
Cl1 Cl 0.3170(5) 0.2607(4) 0.2459(14)
O1 O 0.3481(12) 0.2957(8) 0.3787(15)
O2 O 0.3940(9) 0.2228(6) 0.1930(18)
O3 O 0.2900(10) 0.3046(7) 0.1290(18)
O4 O 0.2388(8) 0.2222(6) 0.2864(18)
O13 O -0.1103(5) 0.2500 0.2500
Cu1_2 Cu 0.05777(7) 0.2500 -0.7500
Cu1_3 Cu 0.05777(7) 0.2500 1.2500
N1B N 0.0565(3) 0.17219(18) 0.3787(5)
N2B N 0.0837(4) 0.0772(2) 0.4779(6)
N3B N 0.0110(3) 0.10597(18) 0.5521(4)
N4B N 0.0502(3) 0.12212(19) 0.8926(5)
N5B N 0.1176(4) 0.1610(2) 0.8337(5)
N6B N 0.0673(3) 0.19648(19) 1.0604(5)
N6_2 N 0.0673(3) 0.30352(19) 0.4396(5)
N6B_2 N 0.0673(3) 0.19648(19) 0.0604(5)
C1B C -0.0039(4) 0.1620(2) 0.4910(6)
H1B H -0.0501 0.1903 0.5224
C2B C 0.1088(4) 0.1189(2) 0.3760(6)
H2B H 0.1581 0.1125 0.3079
C3B C -0.0391(4) 0.0755(2) 0.6777(6)
H3B H -0.0645 0.0356 0.6427
H4B H -0.0916 0.1019 0.7085
C4B C 0.0233(5) 0.0640(2) 0.8129(7)
H5B H -0.0091 0.0365 0.8840
H6B H 0.0799 0.0425 0.7791
C5B C 0.0223(4) 0.1441(2) 1.0261(6)
H7B H -0.0229 0.1252 1.0876
C6B C 0.1251(4) 0.2050(3) 0.9373(6)
H8B H 0.1661 0.2390 0.9283
Cl1B Cl 0.3170(5) 0.2393(4) 0.2541(14)
O1B O 0.3481(12) 0.2043(8) 0.1213(15)
O2B O 0.3940(9) 0.2772(6) 0.3070(18)
O3B O 0.2900(10) 0.1954(7) 0.3710(18)
O4B O 0.2388(8) 0.2778(6) 0.2136(18)
Cl2? Cl 0.3132(10) 0.2590(8) 0.3034(18)
O5? O 0.3046(17) 0.3223(9) 0.364(3)
O6? O 0.4082(11) 0.2500 0.2500
O7? O 0.2478(15) 0.2515(18) 0.180(3)
O8? O 0.2929(16) 0.2141(11) 0.422(3)
O9? O 0.7327(9) 0.5080(7) 0.7574(8)
O12? O 0.8283(8) 0.4768(8) 0.5161(15)
O16? O 0.2139(18) 0.9686(12) 0.588(3)
loop_
_geom_bond_atom_site_label_1
_geom_bond_atom_site_label_2
_geom_bond_site_symmetry_1
_geom_bond_site_symmetry_2
Cu1 N1 1_555 1_555
N1 C1 1_555 1_555
N2 N3 1_555 1_555
N3 C1 1_555 1_555
N4 N5 1_555 1_555
N5 C6 1_555 1_555
N6 C5 1_555 1_555
C1 H1 1_555 1_555
C2 N1 1_555 1_555
H2 C2 1_555 1_555
C3 N3 1_555 1_555
H3 C3 1_555 1_555
H4 C3 1_555 1_555
C4 N4 1_555 1_555
H5 C4 1_555 1_555
H6 C4 1_555 1_555
C5 N4 1_555 1_555
H7 C5 1_555 1_555
C6 N6 1_555 1_555
H8 C6 1_555 1_555
Cl1 O1 1_555 1_555
O1 O2B 1_555 1_555
O2 Cl1 1_555 1_555
O3 Cl1 1_555 1_555
O4 Cu1 1_555 1_555
Cl3 O10 1_555 1_555
O11 Cl3 1_555 1_555
O13 Cu1 1_555 1_555
Cu1_2 N6 1_555 1_555
Cu1_3 N6B 1_555 1_555
N1B Cu1 1_555 1_555
N2B N3B 1_555 1_555
N3B C1B 1_555 1_555
N4B N5B 1_555 1_555
N5B C6B 1_555 1_555
N6B C5B 1_555 1_555
N6_2 Cu1 1_555 1_555
N6B_2 Cu1 1_555 1_555
C1B N1B 1_555 1_555
H1B C1B 1_555 1_555
C2B N1B 1_555 1_555
H2B C2B 1_555 1_555
C3B N3B 1_555 1_555
H3B C3B 1_555 1_555
H4B C3B 1_555 1_555
C4B N4B 1_555 1_555
H5B C4B 1_555 1_555
H6B C4B 1_555 1_555
C5B N4B 1_555 1_555
H7B C5B 1_555 1_555
C6B N6B 1_555 1_555
H8B C6B 1_555 1_555
Cl1B Cl1 1_555 1_555
O1B O2 1_555 1_555
O2B Cl1 1_555 1_555
O3B O4 1_555 1_555
O4B Cu1 1_555 1_555
O10A Cl3 1_555 1_555
O11A Cl3 1_555 1_555
N2 C2 1_555 1_555
C3 C4 1_555 1_555
Cl1 O4 1_555 1_555
Cl1 O4B 1_555 1_555
O2 Cl1B 1_555 1_555
O3 O4B 1_555 1_555
O4 Cl1B 1_555 1_555
O4 O4B 1_555 1_555
N2B C2B 1_555 1_555
C3B C4B 1_555 1_555
Cl1B O1B 1_555 1_555
Cl1B O2B 1_555 1_555
Cl1B O3B 1_555 1_555
Cl1B O4B 1_555 1_555

#END
