
#######################################################################
#
#                 Cambridge Crystallographic Data Centre
#                                CCDC 
#
#######################################################################
#
# If this CIF has been generated from an entry in the Cambridge 
# Structural Database, then it will include bibliographic, chemical, 
# crystal, experimental, refinement or atomic coordinate data resulting 
# from the CCDC's data processing and validation procedures.
#
#######################################################################

data_LASPCU
_symmetry_cell_setting           monoclinic
_symmetry_space_group_name_H-M   'P 21'
_symmetry_Int_Tables_number      4
_space_group_name_Hall           'P 2yb'
loop_
_symmetry_equiv_pos_site_id
_symmetry_equiv_pos_as_xyz
1 x,y,z
2 -x,1/2+y,-z
_cell_length_a                   5.028(1)
_cell_length_b                   18.928(4)
_cell_length_c                   6.174(1)
_cell_angle_alpha                90
_cell_angle_beta                 96.4(1)
_cell_angle_gamma                90
_cell_volume                     583.918
loop_
_atom_site_label
_atom_site_type_symbol
_atom_site_fract_x
_atom_site_fract_y
_atom_site_fract_z
C1 C 0.29160 -0.13700 0.36110
C2 C 0.06050 -0.12020 0.50490
C3 C 0.15190 -0.13090 0.74490
C4 C -0.06590 -0.10800 0.87420
C5 C 0.05200 0.13490 0.07690
C6 C 0.21850 0.09950 -0.09310
C7 C 0.34800 0.15280 -0.21120
C8 C 0.51340 0.11830 -0.39640
N1 N -0.05130 -0.04930 0.43870
N2 N -0.18390 -0.16370 0.98670
N3 N 0.41190 0.04940 0.03890
N4 N 0.64930 0.16400 -0.50160
O1 O 0.39610 -0.08740 0.25740
O2 O 0.42240 -0.19440 0.39620
O3 O -0.14840 -0.05000 0.89850
O4 O -0.01120 0.08840 0.22340
O5 O -0.03580 0.19370 0.05800
O6 O 0.48490 0.05370 -0.43300
Cu1 Cu 0.19060 0.00000 0.25040
Cu1_2 Cu 0.19060 0.00000 1.25040
Cu1_3 Cu 0.19060 0.00000 -0.74960
O3_2 O -0.14840 -0.05000 -0.10150
O6_2 O 0.48490 0.05370 0.56700
loop_
_geom_bond_atom_site_label_1
_geom_bond_atom_site_label_2
_geom_bond_site_symmetry_1
_geom_bond_site_symmetry_2
C1 C2 1_555 1_555
C2 C3 1_555 1_555
C3 C4 1_555 1_555
C4 N2 1_555 1_555
C5 C6 1_555 1_555
C6 C7 1_555 1_555
C7 C8 1_555 1_555
C8 N4 1_555 1_555
N1 C2 1_555 1_555
N3 C6 1_555 1_555
O1 C1 1_555 1_555
O2 C1 1_555 1_555
O3 C4 1_555 1_555
O4 C5 1_555 1_555
O5 C5 1_555 1_555
O6 C8 1_555 1_555
Cu1 N1 1_555 1_555
Cu1_2 O3 1_555 1_555
Cu1_3 O6 1_555 1_555
O3_2 Cu1 1_555 1_555
O6_2 Cu1 1_555 1_555
N3 Cu1 1_555 1_555
O1 Cu1 1_555 1_555
O4 Cu1 1_555 1_555

#END
