
#######################################################################
#
#                 Cambridge Crystallographic Data Centre
#                                CCDC 
#
#######################################################################
#
# If this CIF has been generated from an entry in the Cambridge 
# Structural Database, then it will include bibliographic, chemical, 
# crystal, experimental, refinement or atomic coordinate data resulting 
# from the CCDC's data processing and validation procedures.
#
#######################################################################

data_LASPUS
_symmetry_cell_setting           monoclinic
_symmetry_space_group_name_H-M   'P 21/n'
_symmetry_Int_Tables_number      14
_space_group_name_Hall           '-P 2yn'
loop_
_symmetry_equiv_pos_site_id
_symmetry_equiv_pos_as_xyz
1 x,y,z
2 1/2-x,1/2+y,1/2-z
3 -x,-y,-z
4 1/2+x,1/2-y,1/2+z
_cell_length_a                   11.749(2)
_cell_length_b                   12.010(2)
_cell_length_c                   14.524(3)
_cell_angle_alpha                90
_cell_angle_beta                 99.314(2)
_cell_angle_gamma                90
_cell_volume                     2022.4
loop_
_atom_site_label
_atom_site_type_symbol
_atom_site_fract_x
_atom_site_fract_y
_atom_site_fract_z
C1 C -0.0630(4) 1.0327(3) 0.9179(3)
H1 H -0.1057 1.0559 0.8616
C2 C 0.0107(4) 1.1073(3) 0.9690(3)
H2 H 0.0166 1.1795 0.9470
C3 C -0.0760(3) 0.9243(3) 0.9473(3)
C4 C -0.1600(3) 0.8511(3) 0.8899(3)
C5 C -0.2672(3) 0.8959(3) 0.8517(3)
H3 H -0.2851 0.9679 0.8682
C6 C -0.3471(3) 0.8374(3) 0.7906(3)
C7 C -0.3238(3) 0.7281(3) 0.7706(3)
H4 H -0.3767 0.6876 0.7290
C8 C -0.2222(3) 0.6786(3) 0.8122(3)
H5 H -0.2095 0.6036 0.8016
C9 C -0.1382(3) 0.7400(3) 0.8699(3)
C10 C -0.4554(4) 0.8940(4) 0.7458(3)
C11 C -0.0218(3) 0.6869(3) 0.9001(3)
C12 C 0.2472(5) 0.2339(5) 0.8938(4)
H6 H 0.1814 0.2183 0.8509
C13 C 0.3370(6) 0.1568(5) 0.9054(5)
H7 H 0.3311 0.0915 0.8705
C14 C 0.4332(6) 0.1781(6) 0.9682(5)
H8 H 0.4931 0.1266 0.9773
C15 C 0.4427(4) 0.2760(5) 1.0187(4)
C16 C 0.3481(4) 0.3509(4) 1.0025(3)
C17 C 0.3550(3) 0.4543(4) 1.0517(3)
C18 C 0.4543(4) 0.4826(5) 1.1141(3)
C19 C 0.5476(4) 0.4046(7) 1.1292(4)
H9 H 0.6137 0.4222 1.1711
C20 C 0.5418(5) 0.3075(7) 1.0846(5)
H10 H 0.6038 0.2586 1.0965
C21 C 0.4558(5) 0.5866(6) 1.1576(3)
H11 H 0.5205 0.6086 1.1992
C22 C 0.3641(5) 0.6550(6) 1.1398(4)
H12 H 0.3651 0.7242 1.1687
C23 C 0.2682(4) 0.6209(4) 1.0776(3)
H13 H 0.2054 0.6689 1.0657
Mn1 Mn 0.10925(5) 0.45727(5) 0.93658(4)
N1 N 0.2614(3) 0.5243(3) 1.0347(2)
N2 N 0.2513(3) 0.3283(3) 0.9412(2)
O1 O -0.0180(2) 0.5959(2) 0.94720(18)
O2 O 0.0627(3) 0.7301(3) 0.8749(3)
O3 O -0.4995(3) 0.8619(2) 0.66470(19)
O4 O -0.4929(3) 0.9707(3) 0.7898(3)
O5 O 0.1729(3) 0.5484(3) 0.8221(2)
H14 H 0.125(4) 0.525(4) 0.779(3)
H15 H 0.160(5) 0.6135(18) 0.834(4)
C1B C 0.0630(4) 0.9673(3) 1.0821(3)
H1B H 0.1057 0.9441 1.1384
C2B C -0.0107(4) 0.8927(3) 1.0310(3)
H2B H -0.0166 0.8205 1.0530
C3B C 0.0760(3) 1.0757(3) 1.0527(3)
C4B C 0.1600(3) 1.1489(3) 1.1101(3)
C5B C 0.2672(3) 1.1041(3) 1.1483(3)
H3B H 0.2851 1.0321 1.1318
C6B C 0.3471(3) 1.1626(3) 1.2094(3)
C7B C 0.3238(3) 1.2719(3) 1.2294(3)
H4B H 0.3767 1.3124 1.2710
C8B C 0.2222(3) 1.3214(3) 1.1878(3)
H5B H 0.2095 1.3964 1.1984
C9B C 0.1382(3) 1.2600(3) 1.1301(3)
C10B C 0.4554(4) 1.1060(4) 1.2542(3)
C11B C 0.0218(3) 1.3131(3) 1.0999(3)
C12B C -0.2472(5) 1.7661(5) 1.1062(4)
H6B H -0.1814 1.7817 1.1491
C13B C -0.3370(6) 1.8432(5) 1.0946(5)
H7B H -0.3311 1.9085 1.1295
C14B C -0.4332(6) 1.8219(6) 1.0318(5)
H8B H -0.4931 1.8734 1.0227
C15B C -0.4427(4) 1.7240(5) 0.9813(4)
C16B C -0.3481(4) 1.6491(4) 0.9975(3)
C17B C -0.3550(3) 1.5457(4) 0.9483(3)
C18B C -0.4543(4) 1.5174(5) 0.8859(3)
C19B C -0.5476(4) 1.5954(7) 0.8708(4)
H9B H -0.6137 1.5778 0.8289
C20B C -0.5418(5) 1.6925(7) 0.9154(5)
H10B H -0.6038 1.7414 0.9035
C21B C -0.4558(5) 1.4134(6) 0.8424(3)
H11B H -0.5205 1.3914 0.8008
C22B C -0.3641(5) 1.3450(6) 0.8602(4)
H12B H -0.3651 1.2758 0.8313
C23B C -0.2682(4) 1.3791(4) 0.9224(3)
H13B H -0.2054 1.3311 0.9343
Mn1B Mn -0.10925(5) 1.54273(5) 1.06342(4)
Mn1B_2 Mn -0.10925(5) 0.54273(5) 1.06342(4)
Mn1A Mn -0.60925(5) 0.95727(5) 0.56342(4)
Mn1_2 Mn 0.10925(5) 1.45727(5) 0.93658(4)
Mn1C Mn 0.60925(5) 1.04273(5) 1.43658(4)
N1B N -0.2614(3) 1.4757(3) 0.9653(2)
N2B N -0.2513(3) 1.6717(3) 1.0588(2)
O1B O 0.0180(2) 1.4041(2) 1.05280(18)
O1B_2 O 0.0180(2) 0.4041(2) 1.05280(18)
O1_2 O -0.0180(2) 1.5959(2) 0.94720(18)
O2B O -0.0627(3) 1.2699(3) 1.1251(3)
O3B O 0.4995(3) 1.1381(2) 1.33530(19)
O3A O -0.0005(3) 0.3619(2) 0.83530(19)
O3C O 0.0005(3) 1.6381(2) 1.16470(19)
O4B O 0.4929(3) 1.0293(3) 1.2102(3)
O5B O -0.1729(3) 1.4516(3) 1.1779(2)
H14B H -0.125(4) 1.475(4) 1.221(3)
H15B H -0.160(5) 1.3865(18) 1.166(4)
loop_
_geom_bond_atom_site_label_1
_geom_bond_atom_site_label_2
_geom_bond_site_symmetry_1
_geom_bond_site_symmetry_2
C1 H1 1_555 1_555
C2 C1 1_555 1_555
H2 C2 1_555 1_555
C3 C1 1_555 1_555
C4 C3 1_555 1_555
C5 C4 1_555 1_555
H3 C5 1_555 1_555
C6 C5 1_555 1_555
C7 C6 1_555 1_555
H4 C7 1_555 1_555
C8 C7 1_555 1_555
H5 C8 1_555 1_555
C9 C4 1_555 1_555
C10 C6 1_555 1_555
C11 C9 1_555 1_555
C12 H6 1_555 1_555
C13 C12 1_555 1_555
H7 C13 1_555 1_555
C14 C13 1_555 1_555
H8 C14 1_555 1_555
C15 C14 1_555 1_555
C16 C15 1_555 1_555
C17 C16 1_555 1_555
C18 C17 1_555 1_555
C19 C18 1_555 1_555
H9 C19 1_555 1_555
C20 C15 1_555 1_555
H10 C20 1_555 1_555
C21 C18 1_555 1_555
H11 C21 1_555 1_555
C22 C21 1_555 1_555
H12 C22 1_555 1_555
C23 C22 1_555 1_555
H13 C23 1_555 1_555
Mn1 N1 1_555 1_555
N1 C17 1_555 1_555
N2 C12 1_555 1_555
O1 C11 1_555 1_555
O2 C11 1_555 1_555
O3 C10 1_555 1_555
O4 C10 1_555 1_555
O5 Mn1 1_555 1_555
H14 O5 1_555 1_555
H15 O5 1_555 1_555
C1B H1B 1_555 1_555
C2B C3 1_555 1_555
H2B C2B 1_555 1_555
C3B C2 1_555 1_555
C4B C3B 1_555 1_555
C5B C4B 1_555 1_555
H3B C5B 1_555 1_555
C6B C5B 1_555 1_555
C7B C6B 1_555 1_555
H4B C7B 1_555 1_555
C8B C7B 1_555 1_555
H5B C8B 1_555 1_555
C9B C4B 1_555 1_555
C10B C6B 1_555 1_555
C11B C9B 1_555 1_555
C12B H6B 1_555 1_555
C13B C12B 1_555 1_555
H7B C13B 1_555 1_555
C14B C13B 1_555 1_555
H8B C14B 1_555 1_555
C15B C14B 1_555 1_555
C16B C15B 1_555 1_555
C17B C16B 1_555 1_555
C18B C17B 1_555 1_555
C19B C18B 1_555 1_555
H9B C19B 1_555 1_555
C20B C15B 1_555 1_555
H10B C20B 1_555 1_555
C21B C18B 1_555 1_555
H11B C21B 1_555 1_555
C22B C21B 1_555 1_555
H12B C22B 1_555 1_555
C23B C22B 1_555 1_555
H13B C23B 1_555 1_555
Mn1B N1B 1_555 1_555
Mn1B_2 O1 1_555 1_555
Mn1A O3 1_555 1_555
Mn1_2 O1B 1_555 1_555
Mn1C O3B 1_555 1_555
N1B C17B 1_555 1_555
N2B C12B 1_555 1_555
O1B C11B 1_555 1_555
O1B_2 Mn1 1_555 1_555
O1_2 Mn1B 1_555 1_555
O2B C11B 1_555 1_555
O3B C10B 1_555 1_555
O3A Mn1 1_555 1_555
O3C Mn1B 1_555 1_555
O4B C10B 1_555 1_555
O5B Mn1B 1_555 1_555
H14B O5B 1_555 1_555
H15B O5B 1_555 1_555
C8 C9 1_555 1_555
C16 N2 1_555 1_555
C19 C20 1_555 1_555
C23 N1 1_555 1_555
Mn1 N2 1_555 1_555
Mn1 O1 1_555 1_555
C1B C2B 1_555 1_555
C1B C3B 1_555 1_555
C8B C9B 1_555 1_555
C16B N2B 1_555 1_555
C19B C20B 1_555 1_555
C23B N1B 1_555 1_555
Mn1B N2B 1_555 1_555
Mn1B O1B 1_555 1_555
Mn1B_2 O1B_2 1_555 1_555
Mn1_2 O1_2 1_555 1_555

#END
