
#######################################################################
#
#                 Cambridge Crystallographic Data Centre
#                                CCDC 
#
#######################################################################
#
# If this CIF has been generated from an entry in the Cambridge 
# Structural Database, then it will include bibliographic, chemical, 
# crystal, experimental, refinement or atomic coordinate data resulting 
# from the CCDC's data processing and validation procedures.
#
#######################################################################

data_LASQED
_symmetry_cell_setting           monoclinic
_symmetry_space_group_name_H-M   'C 2/c'
_symmetry_Int_Tables_number      15
_space_group_name_Hall           '-C 2yn'
loop_
_symmetry_equiv_pos_site_id
_symmetry_equiv_pos_as_xyz
1 x,y,z
2 -x,y,1/2-z
3 1/2+x,1/2+y,z
4 1/2-x,1/2+y,1/2-z
5 -x,-y,-z
6 x,-y,1/2+z
7 1/2-x,1/2-y,-z
8 1/2+x,1/2-y,1/2+z
_cell_length_a                   22.908(3)
_cell_length_b                   14.679(3)
_cell_length_c                   18.591(4)
_cell_angle_alpha                90
_cell_angle_beta                 116.921(3)
_cell_angle_gamma                90
_cell_volume                     5574.06
loop_
_atom_site_label
_atom_site_type_symbol
_atom_site_fract_x
_atom_site_fract_y
_atom_site_fract_z
C1 C 0.2678(3) 0.5328(4) 0.6242(3)
H1 H 0.3010 0.5319 0.6084
C2 C 0.2441(3) 0.6168(4) 0.6340(4)
H2 H 0.2606 0.6704 0.6237
C3 C 0.1965(3) 0.6201(4) 0.6590(4)
H3 H 0.1809 0.6759 0.6667
C4 C 0.1715(3) 0.5391(4) 0.6728(3)
C5 C 0.1968(2) 0.4564(3) 0.6595(3)
C6 C 0.1723(2) 0.3712(3) 0.6714(3)
C7 C 0.1228(2) 0.3698(4) 0.6967(3)
C8 C 0.0987(3) 0.4551(5) 0.7103(3)
H4 H 0.0665 0.4548 0.7278
C9 C 0.1210(3) 0.5348(5) 0.6985(4)
H5 H 0.1036 0.5886 0.7070
C10 C 0.1007(3) 0.2847(5) 0.7070(3)
H6 H 0.0688 0.2808 0.7247
C11 C 0.1256(3) 0.2069(4) 0.6912(3)
H7 H 0.1103 0.1501 0.6970
C12 C 0.1743(3) 0.2144(4) 0.6664(3)
H8 H 0.1912 0.1613 0.6559
C13 C 0.30419(19) 0.1449(3) 0.5633(2)
C14 C 0.3261(2) 0.0474(3) 0.5753(2)
C15 C 0.2836(2) -0.0213(3) 0.5744(3)
H9 H 0.2426 -0.0058 0.5698
C16 C 0.3014(2) -0.1119(3) 0.5802(3)
H10 H 0.2719 -0.1572 0.5772
C17 C 0.3637(2) -0.1350(3) 0.5907(3)
C18 C 0.3836(2) -0.2325(3) 0.6016(3)
C19 C 0.4063(2) -0.0669(3) 0.5918(3)
H11 H 0.4476 -0.0828 0.5982
C20 C 0.3884(2) 0.0239(3) 0.5837(2)
C21 C 0.43448(19) 0.0969(3) 0.5859(2)
C22 C 0.4610(2) 0.0988(3) 0.5318(3)
H12 H 0.4535 0.0504 0.4963
C23 C 0.4985(2) 0.1721(3) 0.5302(3)
H13 H 0.5155 0.1722 0.4933
C24 C 0.5115(2) 0.2458(3) 0.5827(2)
C25 C 0.4876(2) 0.2411(3) 0.6397(2)
H14 H 0.4972 0.2877 0.6772
C26 C 0.4500(2) 0.1680(3) 0.6413(3)
H15 H 0.4348 0.1664 0.6800
C27 C 0.5453(2) 0.3285(3) 0.5738(2)
C28 C 0.5308(2) 0.3575(3) 0.4955(3)
H16 H 0.5020 0.3232 0.4517
C29 C 0.5581(2) 0.4354(3) 0.4811(3)
C30 C 0.6013(2) 0.4867(3) 0.5457(3)
H17 H 0.6200 0.5390 0.5369
C31 C 0.6164(2) 0.4601(3) 0.6230(3)
H18 H 0.6460 0.4944 0.6662
C32 C 0.5883(2) 0.3823(3) 0.6380(3)
C33 C 0.6095(2) 0.3622(3) 0.7258(3)
C34 C 0.5396(2) 0.4654(3) 0.3977(3)
N1 N 0.24524(19) 0.4539(3) 0.6362(2)
N2 N 0.19759(18) 0.2933(3) 0.6570(2)
O1 O 0.28630(16) 0.1779(2) 0.61211(18)
O2 O 0.32853(15) 0.3588(2) 0.56590(19)
O3 O 0.30687(14) 0.18768(19) 0.50551(18)
O4 O 0.3460(2) -0.2957(2) 0.5808(3)
O5 O 0.44762(18) -0.2424(2) 0.6385(2)
O6 O 0.58250(17) 0.4040(3) 0.76172(19)
O7 O 0.65604(17) 0.3083(2) 0.75872(19)
O8 O 0.50925(17) 0.4118(2) 0.3387(2)
O9 O 0.55213(17) 0.5447(2) 0.3844(2)
Zn1 Zn 0.27140(2) 0.31530(3) 0.62042(3)
Zn2 Zn 0.5000 0.47739(5) 0.7500
H19 H 0.329(3) 0.318(3) 0.536(3)
H20 H 0.3649(11) 0.377(4) 0.598(3)
H21 H 0.457(4) -0.2965(13) 0.642(5)
C1D C 0.7322(3) 0.4672(4) 0.3758(3)
H1D H 0.6990 0.4681 0.3916
C2D C 0.7559(3) 0.3832(4) 0.3660(4)
H2D H 0.7394 0.3296 0.3763
C3D C 0.8035(3) 0.3799(4) 0.3410(4)
H3D H 0.8191 0.3241 0.3333
C4D C 0.8285(3) 0.4609(4) 0.3272(3)
C5D C 0.8032(2) 0.5436(3) 0.3405(3)
C6D C 0.8277(2) 0.6288(3) 0.3286(3)
C7D C 0.8772(2) 0.6302(4) 0.3033(3)
C8D C 0.9013(3) 0.5449(5) 0.2897(3)
H4D H 0.9335 0.5452 0.2722
C9D C 0.8790(3) 0.4652(5) 0.3015(4)
H5D H 0.8964 0.4114 0.2930
C10D C 0.8993(3) 0.7153(5) 0.2930(3)
H6D H 0.9312 0.7192 0.2753
C11D C 0.8744(3) 0.7931(4) 0.3088(3)
H7D H 0.8897 0.8499 0.3030
C12D C 0.8257(3) 0.7856(4) 0.3336(3)
H8D H 0.8088 0.8387 0.3441
C13D C 0.69581(19) 0.8551(3) 0.4367(2)
C14D C 0.6739(2) 0.9526(3) 0.4247(2)
C15D C 0.7164(2) 1.0213(3) 0.4256(3)
H9D H 0.7574 1.0058 0.4302
C16D C 0.6986(2) 1.1119(3) 0.4198(3)
H10D H 0.7281 1.1572 0.4228
C17D C 0.6363(2) 1.1350(3) 0.4093(3)
C18D C 0.6164(2) 1.2325(3) 0.3984(3)
C19D C 0.5937(2) 1.0669(3) 0.4082(3)
H11D H 0.5524 1.0828 0.4018
C20D C 0.6116(2) 0.9761(3) 0.4163(2)
C21D C 0.56552(19) 0.9031(3) 0.4141(2)
C22D C 0.5390(2) 0.9012(3) 0.4682(3)
H12D H 0.5465 0.9496 0.5037
C23D C 0.5015(2) 0.8279(3) 0.4698(3)
H13D H 0.4845 0.8278 0.5067
C24D C 0.4885(2) 0.7542(3) 0.4173(2)
C25D C 0.5124(2) 0.7589(3) 0.3603(2)
H14D H 0.5028 0.7123 0.3228
C26D C 0.5500(2) 0.8320(3) 0.3587(3)
H15D H 0.5652 0.8336 0.3200
C27D C 0.4547(2) 0.6715(3) 0.4262(2)
C28D C 0.4692(2) 0.6425(3) 0.5045(3)
H16D H 0.4980 0.6768 0.5483
C29D C 0.4419(2) 0.5646(3) 0.5189(3)
C30D C 0.3987(2) 0.5133(3) 0.4543(3)
H17D H 0.3800 0.4610 0.4631
C31D C 0.3836(2) 0.5399(3) 0.3770(3)
H18D H 0.3540 0.5056 0.3338
C32D C 0.4117(2) 0.6177(3) 0.3620(3)
C33D C 0.3905(2) 0.6378(3) 0.2742(3)
C34D C 0.4604(2) 0.5346(3) 0.6023(3)
N1D N 0.75476(19) 0.5461(3) 0.3638(2)
N2D N 0.80241(18) 0.7067(3) 0.3430(2)
O1D O 0.71370(16) 0.8221(2) 0.38789(18)
O2D O 0.67147(15) 0.6412(2) 0.43410(19)
O3D O 0.69313(14) 0.81232(19) 0.49449(18)
O3F O 0.19313(14) 0.31232(19) 0.49449(18)
O3B O 0.80687(14) 0.68768(19) 0.50551(18)
O4D O 0.6540(2) 1.2957(2) 0.4192(3)
O5D O 0.55238(18) 1.2424(2) 0.3615(2)
O6D O 0.41750(17) 0.5960(3) 0.23828(19)
O6A O 0.41750(17) 0.4040(3) 0.73828(19)
O7D O 0.34396(17) 0.6917(2) 0.24128(19)
O7A O 0.34396(17) 0.3083(2) 0.74128(19)
O7E O 0.65604(17) 0.6917(2) 0.25872(19)
O8D O 0.49075(17) 0.5882(2) 0.6613(2)
O8E O 0.50925(17) 0.5882(2) 0.8387(2)
O9D O 0.44787(17) 0.4553(2) 0.6156(2)
O9E O 0.55213(17) 0.4553(2) 0.8844(2)
Zn1D Zn 0.72860(2) 0.68470(3) 0.37958(3)
Zn1F Zn 0.22860(2) 0.18470(3) 0.37958(3)
Zn1A Zn 0.72860(2) 0.31530(3) 0.87958(3)
Zn1B Zn 0.77140(2) 0.81530(3) 0.62042(3)
Zn1E Zn 0.27140(2) 0.68470(3) 0.12042(3)
Zn2D Zn 0.5000 0.52261(5) 0.2500
H19D H 0.671(3) 0.682(3) 0.464(3)
H20D H 0.6351(11) 0.623(4) 0.402(3)
H21D H 0.543(4) 1.2965(13) 0.358(5)
loop_
_geom_bond_atom_site_label_1
_geom_bond_atom_site_label_2
_geom_bond_site_symmetry_1
_geom_bond_site_symmetry_2
C1 H1 1_555 1_555
C2 C1 1_555 1_555
H2 C2 1_555 1_555
C3 C2 1_555 1_555
H3 C3 1_555 1_555
C4 C3 1_555 1_555
C5 C4 1_555 1_555
C6 C5 1_555 1_555
C7 C6 1_555 1_555
C8 C7 1_555 1_555
H4 C8 1_555 1_555
C9 C4 1_555 1_555
H5 C9 1_555 1_555
C10 C7 1_555 1_555
H6 C10 1_555 1_555
C11 C10 1_555 1_555
H7 C11 1_555 1_555
C12 C11 1_555 1_555
H8 C12 1_555 1_555
C13 C14 1_555 1_555
C14 C15 1_555 1_555
C15 H9 1_555 1_555
C16 C15 1_555 1_555
H10 C16 1_555 1_555
C17 C16 1_555 1_555
C18 C17 1_555 1_555
C19 C17 1_555 1_555
H11 C19 1_555 1_555
C20 C14 1_555 1_555
C21 C20 1_555 1_555
C22 C21 1_555 1_555
H12 C22 1_555 1_555
C23 C22 1_555 1_555
H13 C23 1_555 1_555
C24 C23 1_555 1_555
C25 C24 1_555 1_555
H14 C25 1_555 1_555
C26 C21 1_555 1_555
H15 C26 1_555 1_555
C27 C24 1_555 1_555
C28 C27 1_555 1_555
H16 C28 1_555 1_555
C29 C28 1_555 1_555
C30 C29 1_555 1_555
H17 C30 1_555 1_555
C31 C30 1_555 1_555
H18 C31 1_555 1_555
C32 C27 1_555 1_555
C33 C32 1_555 1_555
C34 C29 1_555 1_555
N1 C1 1_555 1_555
N2 C6 1_555 1_555
O1 C13 1_555 1_555
O2 Zn1 1_555 1_555
O3 C13 1_555 1_555
O4 C18 1_555 1_555
O5 C18 1_555 1_555
O6 C33 1_555 1_555
O7 C33 1_555 1_555
O8 C34 1_555 1_555
O9 C34 1_555 1_555
Zn1 N1 1_555 1_555
Zn2 O6 1_555 1_555
H19 O2 1_555 1_555
H20 O2 1_555 1_555
H21 O5 1_555 1_555
C1D H1D 1_555 1_555
C2D C1D 1_555 1_555
H2D C2D 1_555 1_555
C3D C2D 1_555 1_555
H3D C3D 1_555 1_555
C4D C3D 1_555 1_555
C5D C4D 1_555 1_555
C6D C5D 1_555 1_555
C7D C6D 1_555 1_555
C8D C7D 1_555 1_555
H4D C8D 1_555 1_555
C9D C4D 1_555 1_555
H5D C9D 1_555 1_555
C10D C7D 1_555 1_555
H6D C10D 1_555 1_555
C11D C10D 1_555 1_555
H7D C11D 1_555 1_555
C12D C11D 1_555 1_555
H8D C12D 1_555 1_555
C13D C14D 1_555 1_555
C14D C15D 1_555 1_555
C15D H9D 1_555 1_555
C16D C15D 1_555 1_555
H10D C16D 1_555 1_555
C17D C16D 1_555 1_555
C18D C17D 1_555 1_555
C19D C17D 1_555 1_555
H11D C19D 1_555 1_555
C20D C14D 1_555 1_555
C21D C20D 1_555 1_555
C22D C21D 1_555 1_555
H12D C22D 1_555 1_555
C23D C22D 1_555 1_555
H13D C23D 1_555 1_555
C24D C23D 1_555 1_555
C25D C24D 1_555 1_555
H14D C25D 1_555 1_555
C26D C21D 1_555 1_555
H15D C26D 1_555 1_555
C27D C24D 1_555 1_555
C28D C27D 1_555 1_555
H16D C28D 1_555 1_555
C29D C28D 1_555 1_555
C30D C29D 1_555 1_555
H17D C30D 1_555 1_555
C31D C30D 1_555 1_555
H18D C31D 1_555 1_555
C32D C27D 1_555 1_555
C33D C32D 1_555 1_555
C34D C29D 1_555 1_555
N1D C1D 1_555 1_555
N2D C6D 1_555 1_555
O1D C13D 1_555 1_555
O2D Zn1D 1_555 1_555
O3D C13D 1_555 1_555
O3F Zn1 1_555 1_555
O3B Zn1D 1_555 1_555
O4D C18D 1_555 1_555
O5D C18D 1_555 1_555
O6D C33D 1_555 1_555
O6A Zn2 1_555 1_555
O7D C33D 1_555 1_555
O7A Zn1 1_555 1_555
O7E Zn1D 1_555 1_555
O8D Zn2 1_555 1_555
O8E Zn2 1_555 1_555
O9D Zn2 1_555 1_555
O9E Zn2 1_555 1_555
Zn1D N1D 1_555 1_555
Zn1F O3 1_555 1_555
Zn1A O7 1_555 1_555
Zn1B O3D 1_555 1_555
Zn1E O7D 1_555 1_555
Zn2D O8 1_555 1_555
H19D O2D 1_555 1_555
H20D O2D 1_555 1_555
H21D O5D 1_555 1_555
C5 N1 1_555 1_555
C8 C9 1_555 1_555
C12 N2 1_555 1_555
C19 C20 1_555 1_555
C25 C26 1_555 1_555
C31 C32 1_555 1_555
N2 Zn1 1_555 1_555
O1 Zn1 1_555 1_555
O9 Zn2D 1_555 1_555
C5D N1D 1_555 1_555
C8D C9D 1_555 1_555
C12D N2D 1_555 1_555
C19D C20D 1_555 1_555
C25D C26D 1_555 1_555
C31D C32D 1_555 1_555
C34D O8D 1_555 1_555
C34D O9D 1_555 1_555
N2D Zn1D 1_555 1_555
O1D Zn1D 1_555 1_555
O6D Zn2D 1_555 1_555

#END
