
#######################################################################
#
#                 Cambridge Crystallographic Data Centre
#                                CCDC 
#
#######################################################################
#
# If this CIF has been generated from an entry in the Cambridge 
# Structural Database, then it will include bibliographic, chemical, 
# crystal, experimental, refinement or atomic coordinate data resulting 
# from the CCDC's data processing and validation procedures.
#
#######################################################################

data_LASRUU
_symmetry_cell_setting           monoclinic
_symmetry_space_group_name_H-M   'P 21/c'
_symmetry_Int_Tables_number      14
_space_group_name_Hall           '-P 2ybc'
loop_
_symmetry_equiv_pos_site_id
_symmetry_equiv_pos_as_xyz
1 x,y,z
2 -x,1/2+y,1/2-z
3 -x,-y,-z
4 x,1/2-y,1/2+z
_cell_length_a                   8.8249(1)
_cell_length_b                   21.0395(3)
_cell_length_c                   15.8776(3)
_cell_angle_alpha                90
_cell_angle_beta                 120.844(2)
_cell_angle_gamma                90
_cell_volume                     2531.07
loop_
_atom_site_label
_atom_site_type_symbol
_atom_site_fract_x
_atom_site_fract_y
_atom_site_fract_z
Tb1 Tb 0.51498(5) 0.939088(18) 0.25185(2)
K1 K 0.9573(2) 1.18242(6) 0.21152(15)
O1 O 0.6988(7) 1.0178(2) 0.2519(4)
O2 O 0.8772(7) 1.1015(2) 0.3174(4)
O3 O 0.3117(7) 0.8554(2) 0.2076(4)
O4 O 0.2210(9) 0.7692(3) 0.2524(5)
O5 O 0.7242(7) 0.8598(2) 0.2927(4)
O6 O 0.8307(10) 0.7778(3) 0.2498(5)
O7 O 0.3237(7) 1.0139(2) 0.2533(4)
O8 O 0.1446(8) 1.0977(3) 0.1893(4)
O9 O 0.8293(8) 1.2017(2) -0.0124(4)
H1 H 0.7855 1.1835 -0.0678
N1 N 0.7077(8) 0.9912(3) 0.4145(4)
N2 N 0.5016(8) 0.8946(3) 0.3931(4)
N3 N 0.5219(8) 0.8953(3) 0.1082(4)
N4 N 0.3109(8) 0.9885(3) 0.0881(4)
C1 C 0.8029(10) 1.0417(4) 0.4172(5)
C2 C 0.9019(10) 1.0770(4) 0.5026(6)
H2 H 0.9699 1.1124 0.5035
C3 C 0.8994(12) 1.0597(3) 0.5860(7)
H3 H 0.9651 1.0836 0.6447
C4 C 0.8032(10) 1.0087(3) 0.5839(5)
H4 H 0.8017 0.9963 0.6410
C5 C 0.7063(9) 0.9747(3) 0.4960(5)
C6 C 0.5947(10) 0.9175(3) 0.4845(5)
C7 C 0.5868(11) 0.8902(4) 0.5622(6)
H5 H 0.6538 0.9073 0.6265
C8 C 0.4798(11) 0.8381(4) 0.5436(6)
H6 H 0.4719 0.8185 0.5951
C9 C 0.3836(12) 0.8146(3) 0.4487(7)
H7 H 0.3088 0.7788 0.4347
C10 C 0.3973(9) 0.8435(3) 0.3749(5)
C11 C 0.7940(11) 1.0566(3) 0.3220(6)
C12 C 0.2988(11) 0.8196(4) 0.2700(6)
C13 C 0.6288(9) 0.8460(3) 0.1248(5)
C14 C 0.6426(11) 0.8162(3) 0.0504(7)
H8 H 0.7202 0.7813 0.0643
C15 C 0.5391(11) 0.8393(3) -0.0448(6)
H9 H 0.5437 0.8196 -0.0973
C16 C 0.4295(10) 0.8910(4) -0.0629(5)
H10 H 0.3620 0.9084 -0.1270
C17 C 0.4207(10) 0.9169(3) 0.0150(5)
C18 C 0.3049(9) 0.9722(3) 0.0050(5)
C19 C 0.1967(9) 1.0043(3) -0.0834(5)
H11 H 0.1939 0.9920 -0.1418
C20 C 0.0950(12) 1.0538(4) -0.0842(6)
H12 H 0.0196 1.0757 -0.1437
C21 C 0.1020(11) 1.0718(4) 0.0011(6)
H13 H 0.0334 1.1064 0.0017
C22 C 0.2125(9) 1.0378(3) 0.0865(5)
C23 C 0.7396(11) 0.8251(4) 0.2316(6)
C24 C 0.2278(10) 1.0520(3) 0.1847(6)
C25 C 0.9606(13) 1.2445(4) -0.0044(6)
H14 H 0.9080 1.2740 -0.0599
H15 H 1.0555 1.2205 -0.0047
H16 H 1.0088 1.2685 0.0571
K1A K 0.0427(2) 0.68242(6) 0.28848(15)
K1A_2 K 1.0427(2) 0.68242(6) 0.28848(15)
K1_2 K -0.0427(2) 1.18242(6) 0.21152(15)
O4A O 0.7790(9) 1.2692(3) 0.2476(5)
O6A O 1.1693(10) 1.2778(3) 0.2502(5)
O8_2 O 1.1446(8) 1.0977(3) 0.1893(4)
loop_
_geom_bond_atom_site_label_1
_geom_bond_atom_site_label_2
_geom_bond_site_symmetry_1
_geom_bond_site_symmetry_2
Tb1 O1 1_555 1_555
K1 O2 1_555 1_555
O1 C11 1_555 1_555
O2 C11 1_555 1_555
O3 Tb1 1_555 1_555
O4 C12 1_555 1_555
O5 Tb1 1_555 1_555
O6 C23 1_555 1_555
O7 Tb1 1_555 1_555
O8 C24 1_555 1_555
O9 K1 1_555 1_555
H1 O9 1_555 1_555
N1 Tb1 1_555 1_555
N2 Tb1 1_555 1_555
N3 Tb1 1_555 1_555
N4 Tb1 1_555 1_555
C1 N1 1_555 1_555
C2 C1 1_555 1_555
H2 C2 1_555 1_555
C3 C2 1_555 1_555
H3 C3 1_555 1_555
C4 C3 1_555 1_555
H4 C4 1_555 1_555
C5 N1 1_555 1_555
C6 N2 1_555 1_555
C7 C6 1_555 1_555
H5 C7 1_555 1_555
C8 C7 1_555 1_555
H6 C8 1_555 1_555
C9 C8 1_555 1_555
H7 C9 1_555 1_555
C10 N2 1_555 1_555
C11 C1 1_555 1_555
C12 O3 1_555 1_555
C13 N3 1_555 1_555
C14 C13 1_555 1_555
H8 C14 1_555 1_555
C15 C14 1_555 1_555
H9 C15 1_555 1_555
C16 C15 1_555 1_555
H10 C16 1_555 1_555
C17 N3 1_555 1_555
C18 N4 1_555 1_555
C19 C18 1_555 1_555
H11 C19 1_555 1_555
C20 C19 1_555 1_555
H12 C20 1_555 1_555
C21 C20 1_555 1_555
H13 C21 1_555 1_555
C22 N4 1_555 1_555
C23 O5 1_555 1_555
C24 O7 1_555 1_555
C25 O9 1_555 1_555
H14 C25 1_555 1_555
H15 C25 1_555 1_555
H16 C25 1_555 1_555
K1A O4 1_555 1_555
K1A_2 O6 1_555 1_555
K1_2 O8 1_555 1_555
O4A K1 1_555 1_555
O6A K1 1_555 1_555
O8_2 K1 1_555 1_555
C4 C5 1_555 1_555
C5 C6 1_555 1_555
C9 C10 1_555 1_555
C10 C12 1_555 1_555
C13 C23 1_555 1_555
C16 C17 1_555 1_555
C17 C18 1_555 1_555
C21 C22 1_555 1_555
C22 C24 1_555 1_555

#END
