
#######################################################################
#
#                 Cambridge Crystallographic Data Centre
#                                CCDC 
#
#######################################################################
#
# If this CIF has been generated from an entry in the Cambridge 
# Structural Database, then it will include bibliographic, chemical, 
# crystal, experimental, refinement or atomic coordinate data resulting 
# from the CCDC's data processing and validation procedures.
#
#######################################################################

data_LASSOP
_symmetry_cell_setting           triclinic
_symmetry_space_group_name_H-M   'P -1'
_symmetry_Int_Tables_number      2
_space_group_name_Hall           '-P 1'
loop_
_symmetry_equiv_pos_site_id
_symmetry_equiv_pos_as_xyz
1 x,y,z
2 -x,-y,-z
_cell_length_a                   9.8549(10)
_cell_length_b                   12.9803(13)
_cell_length_c                   13.1435(13)
_cell_angle_alpha                88.025(2)
_cell_angle_beta                 78.041(2)
_cell_angle_gamma                85.364(2)
_cell_volume                     1639.17
loop_
_atom_site_label
_atom_site_type_symbol
_atom_site_fract_x
_atom_site_fract_y
_atom_site_fract_z
C1 C 0.5175(5) 1.1541(3) 0.1760(3)
H1 H 0.5301 1.1800 0.1080
C2 C 0.4836(5) 1.2213(3) 0.2560(4)
H2 H 0.4713 1.2920 0.2431
C3 C 0.4676(5) 1.1832(3) 0.3565(3)
H3 H 0.4462 1.2281 0.4122
C4 C 0.4837(5) 1.0779(3) 0.3742(3)
H4 H 0.4735 1.0508 0.4415
C5 C 0.5149(4) 1.0142(3) 0.2904(3)
C6 C 0.5328(4) 0.8979(3) 0.3015(3)
C7 C 0.6133(4) 0.7358(3) 0.0917(3)
C8 C 0.6399(4) 0.6273(3) 0.0564(3)
C9 C 0.6678(4) 0.6025(3) -0.0468(3)
H5 H 0.6724 0.6539 -0.0981
C10 C 0.6889(5) 0.4999(3) -0.0726(3)
H6 H 0.7070 0.4807 -0.1419
C11 C 0.6828(5) 0.4265(3) 0.0047(4)
H7 H 0.6960 0.3567 -0.0115
C12 C 0.6572(5) 0.4561(3) 0.1059(3)
H8 H 0.6557 0.4056 0.1580
C13 C -0.0297(5) 0.8264(3) -0.1635(3)
H9 H -0.0457 0.8935 -0.1878
C14 C 0.0112(5) 0.7489(3) -0.2339(4)
H10 H 0.0238 0.7631 -0.3050
C15 C 0.0333(5) 0.6487(3) -0.1970(3)
H11 H 0.0610 0.5947 -0.2432
C16 C 0.0141(5) 0.6303(3) -0.0924(3)
H12 H 0.0268 0.5635 -0.0664
C17 C -0.0244(4) 0.7124(3) -0.0258(3)
C18 C -0.0453(4) 0.6988(3) 0.0903(3)
C19 C -0.1320(4) 0.9027(3) 0.2594(3)
C20 C -0.1479(4) 0.9361(3) 0.3679(3)
C21 C -0.1862(4) 1.0372(3) 0.3966(3)
H13 H -0.2038 1.0873 0.3477
C22 C -0.1977(5) 1.0624(3) 0.4979(4)
H14 H -0.2240 1.1300 0.5191
C23 C -0.1703(5) 0.9872(4) 0.5685(4)
H15 H -0.1769 1.0035 0.6378
C24 C -0.1330(5) 0.8874(3) 0.5354(3)
H16 H -0.1164 0.8363 0.5836
Cu1 Cu 0.57559(5) 0.94154(3) 0.08919(3)
Cu2 Cu -0.09520(5) 0.90894(3) 0.05277(3)
Cu3 Cu 0.60640(5) 0.61550(3) 0.27320(3)
Cu4 Cu -0.05250(5) 0.72648(3) 0.37077(4)
N1 N 0.5332(3) 1.0515(2) 0.1922(2)
N2 N 0.5583(3) 0.8548(2) 0.2114(2)
N3 N 0.5829(3) 0.7484(2) 0.1927(2)
O1 O 0.6239(3) 0.80734(19) 0.0227(2)
N4 N 0.6340(3) 0.5562(2) 0.1326(2)
N5 N -0.0472(3) 0.8090(2) -0.0617(2)
N6 N -0.0750(3) 0.7878(2) 0.1356(2)
N7 N -0.0953(3) 0.8025(2) 0.2425(2)
N8 N -0.1199(3) 0.8620(2) 0.4353(2)
O2 O -0.1504(3) 0.97051(18) 0.1904(2)
O3 O 0.5231(4) 0.8591(2) 0.3905(2)
O4 O -0.0328(4) 0.6097(2) 0.1280(2)
O5 O 0.6483(3) 0.47699(19) 0.3348(2)
H17 H 0.7359 0.4659 0.3283
H18 H 0.6099 0.4760 0.3990
O6 O 0.6423(3) 0.6803(2) 0.3933(2)
H19 H 0.5888 0.7351 0.4060
H20 H 0.6268 0.6388 0.4451
O7 O -0.0337(3) 0.58880(19) 0.3173(2)
H21 H -0.0001 0.5906 0.2523
H22 H 0.0210 0.5512 0.3478
O8 O -0.0188(3) 0.6673(2) 0.5084(2)
H23 H -0.0941 0.6468 0.5443
H24 H 0.0421 0.6165 0.4971
O9 O 0.1754(3) 0.7599(2) 0.3253(2)
H25 H 0.1909 0.7880 0.2651
H26 H 0.2261 0.7037 0.3247
O10 O 0.3669(3) 0.97643(19) 0.0377(2)
O11 O 0.1298(3) 0.96558(19) 0.0250(2)
O12 O 0.1972(3) 0.9362(3) 0.1886(2)
O13 O 0.2682(3) 0.8125(2) 0.0548(3)
O14 O 0.2330(3) 0.5672(2) 0.4977(2)
O15 O 0.1854(3) 0.4648(2) 0.3631(2)
O16 O 0.3971(3) 0.4275(2) 0.4264(2)
O17 O 0.3684(3) 0.5810(2) 0.3229(2)
S1 S 0.24009(9) 0.91978(6) 0.07900(7)
S2 S 0.29587(10) 0.51082(7) 0.40203(8)
Cu1A Cu 0.42441(5) 1.05846(3) -0.08919(3)
Cu2A Cu 0.09520(5) 1.09106(3) -0.05277(3)
O10A O 0.6331(3) 1.02357(19) -0.0377(2)
O11A O -0.1298(3) 1.03442(19) -0.0250(2)
loop_
_geom_bond_atom_site_label_1
_geom_bond_atom_site_label_2
_geom_bond_site_symmetry_1
_geom_bond_site_symmetry_2
C1 H1 1_555 1_555
C2 C1 1_555 1_555
H2 C2 1_555 1_555
C3 C2 1_555 1_555
H3 C3 1_555 1_555
C4 C3 1_555 1_555
H4 C4 1_555 1_555
C5 C4 1_555 1_555
C6 C5 1_555 1_555
C7 C8 1_555 1_555
C8 C9 1_555 1_555
C9 H5 1_555 1_555
C10 C9 1_555 1_555
H6 C10 1_555 1_555
C11 C10 1_555 1_555
H7 C11 1_555 1_555
C12 C11 1_555 1_555
H8 C12 1_555 1_555
C13 H9 1_555 1_555
C14 C13 1_555 1_555
H10 C14 1_555 1_555
C15 C14 1_555 1_555
H11 C15 1_555 1_555
C16 C15 1_555 1_555
H12 C16 1_555 1_555
C17 C16 1_555 1_555
C18 C17 1_555 1_555
C19 C20 1_555 1_555
C20 C21 1_555 1_555
C21 H13 1_555 1_555
C22 C21 1_555 1_555
H14 C22 1_555 1_555
C23 C22 1_555 1_555
H15 C23 1_555 1_555
C24 C23 1_555 1_555
H16 C24 1_555 1_555
Cu1 N1 1_555 1_555
Cu2 N5 1_555 1_555
Cu3 N3 1_555 1_555
Cu4 N7 1_555 1_555
N1 C1 1_555 1_555
N2 C6 1_555 1_555
N3 C7 1_555 1_555
O1 C7 1_555 1_555
N4 C8 1_555 1_555
N5 C13 1_555 1_555
N6 C18 1_555 1_555
N7 C19 1_555 1_555
N8 C20 1_555 1_555
O2 C19 1_555 1_555
O3 C6 1_555 1_555
O4 C18 1_555 1_555
O5 Cu3 1_555 1_555
H17 O5 1_555 1_555
H18 O5 1_555 1_555
O6 Cu3 1_555 1_555
H19 O6 1_555 1_555
H20 O6 1_555 1_555
O7 Cu4 1_555 1_555
H21 O7 1_555 1_555
H22 O7 1_555 1_555
O8 Cu4 1_555 1_555
H23 O8 1_555 1_555
H24 O8 1_555 1_555
O9 Cu4 1_555 1_555
H25 O9 1_555 1_555
H26 O9 1_555 1_555
O10 Cu1 1_555 1_555
O11 Cu2 1_555 1_555
O12 S1 1_555 1_555
O13 S1 1_555 1_555
O14 S2 1_555 1_555
O15 S2 1_555 1_555
O16 S2 1_555 1_555
O17 Cu3 1_555 1_555
S1 O10 1_555 1_555
S2 O17 1_555 1_555
Cu1A O10 1_555 1_555
Cu2A O11 1_555 1_555
O10A Cu1 1_555 1_555
O11A Cu2 1_555 1_555
C5 N1 1_555 1_555
C12 N4 1_555 1_555
C17 N5 1_555 1_555
C24 N8 1_555 1_555
Cu1 N2 1_555 1_555
Cu1 O1 1_555 1_555
Cu2 N6 1_555 1_555
Cu2 O2 1_555 1_555
Cu3 N4 1_555 1_555
Cu4 N8 1_555 1_555
N2 N3 1_555 1_555
N6 N7 1_555 1_555
O11 S1 1_555 1_555
Cu1A O10A 1_555 1_555
Cu2A O11A 1_555 1_555

#END
