
#######################################################################
#
#                 Cambridge Crystallographic Data Centre
#                                CCDC 
#
#######################################################################
#
# If this CIF has been generated from an entry in the Cambridge 
# Structural Database, then it will include bibliographic, chemical, 
# crystal, experimental, refinement or atomic coordinate data resulting 
# from the CCDC's data processing and validation procedures.
#
#######################################################################

data_LASSIJ
_symmetry_cell_setting           triclinic
_symmetry_space_group_name_H-M   'P -1'
_symmetry_Int_Tables_number      2
_space_group_name_Hall           '-P 1'
loop_
_symmetry_equiv_pos_site_id
_symmetry_equiv_pos_as_xyz
1 x,y,z
2 -x,-y,-z
_cell_length_a                   8.5441(6)
_cell_length_b                   9.5798(7)
_cell_length_c                   12.6628(9)
_cell_angle_alpha                71.189(6)
_cell_angle_beta                 87.143(6)
_cell_angle_gamma                78.616(6)
_cell_volume                     961.692
loop_
_atom_site_label
_atom_site_type_symbol
_atom_site_fract_x
_atom_site_fract_y
_atom_site_fract_z
Zn1 Zn 1.0000 -0.5000 0.5000
O1 O 0.9127(3) 0.3917(3) 0.1991(2)
O2 O 0.4687(4) 0.1956(3) 0.3195(2)
N1 N 0.6919(4) 0.2897(3) 0.2578(3)
O4 O 1.2347(4) -0.4869(4) 0.5249(3)
O5 O 1.0538(4) -0.4761(3) 0.3278(2)
N2 N 0.9251(4) -0.2626(4) 0.4548(3)
C1 C 0.5389(5) 0.4576(4) 0.0512(3)
C2 C 0.4566(5) 0.3589(4) 0.1331(3)
C3 C 0.6947(5) 0.4725(4) 0.0712(3)
C4 C 0.7587(5) 0.2161(4) 0.3720(3)
H1 H 0.6776 0.2339 0.4251
H2 H 0.8473 0.2613 0.3809
C5 C 0.7773(5) 0.3839(4) 0.1789(3)
C6 C 0.8164(5) 0.0482(4) 0.3984(3)
C7 C 0.7712(5) 0.5696(4) -0.0092(3)
H3 H 0.8738 0.5793 0.0044
C8 C 0.5358(5) 0.2750(4) 0.2434(3)
C9 C 0.7444(5) -0.0517(5) 0.4820(3)
H4 H 0.6591 -0.0163 0.5211
C10 C 0.9954(5) -0.1645(5) 0.3750(3)
H5 H 1.0821 -0.2021 0.3380
C11 C 0.9448(5) -0.0113(5) 0.3456(3)
H6 H 0.9972 0.0522 0.2901
C12 C 0.8006(5) -0.2034(5) 0.5063(3)
H7 H 0.7497 -0.2688 0.5615
C14 C 0.3065(5) 0.3454(4) 0.1124(3)
H8 H 0.2545 0.2797 0.1665
H9 H 1.126(6) -0.455(6) 0.300(4)
H10 H 1.302(6) -0.548(6) 0.586(4)
H11 H 1.004(6) -0.522(5) 0.286(4)
H12 H 1.294(6) -0.431(6) 0.493(4)
Zn1_2 Zn 0.0000 1.5000 -0.5000
O1A O 0.0873(3) 0.6083(3) -0.1991(2)
O2A O 0.5313(4) 0.8044(3) -0.3195(2)
N1A N 0.3081(4) 0.7103(3) -0.2578(3)
O4A O 0.7653(4) -0.5131(4) 0.4751(3)
O5A O 0.9462(4) -0.5239(3) 0.6722(2)
N2A N 0.0749(4) 1.2626(4) -0.4548(3)
N2A_2 N 1.0749(4) -0.7374(4) 0.5452(3)
C1A C 0.4611(5) 0.5424(4) -0.0512(3)
C2A C 0.5434(5) 0.6411(4) -0.1331(3)
C3A C 0.3053(5) 0.5275(4) -0.0712(3)
C4A C 0.2413(5) 0.7839(4) -0.3720(3)
H1A H 0.3224 0.7661 -0.4251
H2A H 0.1527 0.7387 -0.3809
C5A C 0.2227(5) 0.6161(4) -0.1789(3)
C6A C 0.1836(5) 0.9518(4) -0.3984(3)
C7A C 0.2288(5) 0.4304(4) 0.0092(3)
H3A H 0.1262 0.4207 -0.0044
C8A C 0.4642(5) 0.7250(4) -0.2434(3)
C9A C 0.2556(5) 1.0517(5) -0.4820(3)
H4A H 0.3409 1.0163 -0.5211
C10A C 0.0046(5) 1.1645(5) -0.3750(3)
H5A H -0.0821 1.2021 -0.3380
C11A C 0.0552(5) 1.0113(5) -0.3456(3)
H6A H 0.0028 0.9478 -0.2901
C12A C 0.1994(5) 1.2034(5) -0.5063(3)
H7A H 0.2503 1.2688 -0.5615
C14A C 0.6935(5) 0.6546(4) -0.1124(3)
H8A H 0.7455 0.7203 -0.1665
H9A H 0.874(6) -0.545(6) 0.700(4)
H10A H 0.698(6) -0.452(6) 0.414(4)
H11A H 0.996(6) -0.478(5) 0.714(4)
H12A H 0.706(6) -0.569(6) 0.507(4)
S1 S 0.44323(12) -0.31171(11) 0.27866(8)
O3 O 0.4009(4) -0.2843(4) 0.3833(3)
O6 O 0.6020(4) -0.3934(4) 0.2758(3)
O7 O 0.3223(5) -0.3592(5) 0.2322(3)
F1 F 0.4852(7) -0.1396(5) 0.0801(3)
F2 F 0.3076(8) -0.0373(5) 0.1761(5)
F3 F 0.5569(7) -0.0667(5) 0.2115(5)
C13 C 0.4494(9) -0.1283(7) 0.1812(6)
O8 O 0.8705(13) 0.0964(12) 0.0559(7)
O10 O 0.8879(8) 0.8460(8) 0.0939(6)
O9? O 0.9600(12) 0.1375(9) 0.0269(8)
loop_
_geom_bond_atom_site_label_1
_geom_bond_atom_site_label_2
_geom_bond_site_symmetry_1
_geom_bond_site_symmetry_2
Zn1 O4 1_555 1_555
S1 O3 1_555 1_555
O1 C5 1_555 1_555
O2 C8 1_555 1_555
N1 C4 1_555 1_555
O4 H10 1_555 1_555
O5 Zn1 1_555 1_555
O6 S1 1_555 1_555
O7 S1 1_555 1_555
N2 Zn1 1_555 1_555
C1 C2 1_555 1_555
C2 C8 1_555 1_555
F1 C13 1_555 1_555
C3 C1 1_555 1_555
F2 C13 1_555 1_555
C4 H1 1_555 1_555
H2 C4 1_555 1_555
C5 N1 1_555 1_555
C6 C4 1_555 1_555
C7 C3 1_555 1_555
H3 C7 1_555 1_555
F3 C13 1_555 1_555
C8 N1 1_555 1_555
C9 C6 1_555 1_555
H4 C9 1_555 1_555
C10 N2 1_555 1_555
H5 C10 1_555 1_555
C11 C6 1_555 1_555
H6 C11 1_555 1_555
C12 N2 1_555 1_555
H7 C12 1_555 1_555
C13 S1 1_555 1_555
C14 C2 1_555 1_555
H8 C14 1_555 1_555
H9 O5 1_555 1_555
H11 O5 1_555 1_555
H12 O4 1_555 1_555
Zn1_2 N2A 1_555 1_555
O1A C5A 1_555 1_555
O2A C8A 1_555 1_555
N1A C4A 1_555 1_555
O4A Zn1 1_555 1_555
O5A Zn1 1_555 1_555
N2A C10A 1_555 1_555
N2A_2 Zn1 1_555 1_555
C1A C1 1_555 1_555
C2A C1A 1_555 1_555
C3A C1A 1_555 1_555
C4A H1A 1_555 1_555
H2A C4A 1_555 1_555
C5A N1A 1_555 1_555
C6A C4A 1_555 1_555
C7A C14 1_555 1_555
H3A C7A 1_555 1_555
C8A N1A 1_555 1_555
C9A C6A 1_555 1_555
H4A C9A 1_555 1_555
C10A H5A 1_555 1_555
C11A C6A 1_555 1_555
H6A C11A 1_555 1_555
C12A N2A 1_555 1_555
H7A C12A 1_555 1_555
C14A C7 1_555 1_555
H8A C14A 1_555 1_555
H9A O5A 1_555 1_555
H10A O4A 1_555 1_555
H11A O5A 1_555 1_555
H12A O4A 1_555 1_555
C3 C5 1_555 1_555
C9 C12 1_555 1_555
C10 C11 1_555 1_555
C2A C8A 1_555 1_555
C2A C14A 1_555 1_555
C3A C5A 1_555 1_555
C3A C7A 1_555 1_555
C9A C12A 1_555 1_555
C10A C11A 1_555 1_555

#END
