
#######################################################################
#
#                 Cambridge Crystallographic Data Centre
#                                CCDC 
#
#######################################################################
#
# If this CIF has been generated from an entry in the Cambridge 
# Structural Database, then it will include bibliographic, chemical, 
# crystal, experimental, refinement or atomic coordinate data resulting 
# from the CCDC's data processing and validation procedures.
#
#######################################################################

data_LASTEG
_symmetry_cell_setting           triclinic
_symmetry_space_group_name_H-M   'P -1'
_symmetry_Int_Tables_number      2
_space_group_name_Hall           '-P 1'
loop_
_symmetry_equiv_pos_site_id
_symmetry_equiv_pos_as_xyz
1 x,y,z
2 -x,-y,-z
_cell_length_a                   7.2659(14)
_cell_length_b                   9.9624(19)
_cell_length_c                   13.716(3)
_cell_angle_alpha                94.208(4)
_cell_angle_beta                 98.334(3)
_cell_angle_gamma                103.150(4)
_cell_volume                     950.754
loop_
_atom_site_label
_atom_site_type_symbol
_atom_site_fract_x
_atom_site_fract_y
_atom_site_fract_z
C1 C 0.7562(7) 0.5449(5) 0.8969(3)
C2 C 0.8341(6) 0.5982(5) 0.8081(3)
C3 C 0.8385(7) 0.7288(6) 0.7835(4)
H1 H 0.7955 0.7909 0.8232
C4 C 0.9086(7) 0.7678(6) 0.6978(4)
H2 H 0.9154 0.8571 0.6805
C5 C 0.9668(8) 0.6749(7) 0.6399(4)
H3 H 1.0097 0.6984 0.5813
C6 C 0.9615(7) 0.5462(6) 0.6691(4)
H4 H 1.0034 0.4829 0.6298
C7 C 0.7781(6) 0.2286(5) 0.9769(3)
C8 C 0.7263(7) 0.1371(5) 1.0541(3)
C9 C 0.7564(7) 0.0062(5) 1.0533(4)
H5 H 0.8130 -0.0285 1.0036
C10 C 0.7016(8) -0.0736(6) 1.1272(4)
H6 H 0.7244 -0.1616 1.1288
C11 C 0.6128(7) -0.0218(6) 1.1986(4)
H7 H 0.5684 -0.0752 1.2470
C12 C 0.5923(7) 0.1123(6) 1.1955(4)
H8 H 0.5362 0.1495 1.2445
C13 C 0.8455(8) 0.1457(5) 0.6473(4)
C14 C 0.9272(7) 0.0728(5) 0.5701(3)
C15 C 1.1212(7) 0.0929(5) 0.5726(3)
H9 H 1.2046 0.1561 0.6218
C16 C 0.8034(7) -0.0210(5) 0.4967(3)
H10 H 0.6715 -0.0359 0.4935
C17 C 0.5786(6) 0.5172(6) 1.2996(3)
C18 C 0.5395(6) 0.5070(5) 1.4046(3)
C19 C 0.4833(6) 0.6144(5) 1.4511(3)
H11 H 0.4721 0.6918 1.4188
C20 C 0.5567(6) 0.3942(5) 1.4529(3)
H12 H 0.5957 0.3222 1.4213
Cu1 Cu 0.65929(8) 0.39037(6) 1.11988(4)
Cu2 Cu 0.89301(8) 0.32960(7) 0.81323(4)
N1 N 0.8002(5) 0.4270(4) 0.9139(3)
N2 N 0.7394(5) 0.3503(4) 0.9896(3)
N3 N 0.8983(5) 0.5078(4) 0.7518(3)
N4 N 0.6485(5) 0.1907(4) 1.1261(3)
O1 O 0.6624(4) 0.6149(3) 0.9424(2)
O2 O 0.8503(4) 0.1841(3) 0.9053(2)
O3 O 0.9735(5) 0.2323(4) 0.7104(2)
O4 O 0.6762(5) 0.1202(4) 0.6488(3)
O5 O 0.5740(5) 0.6268(3) 1.2627(2)
O6 O 0.6141(4) 0.4123(3) 1.2563(2)
O7 O 0.7586(4) 0.5896(3) 1.1243(2)
H13 H 0.7383 0.6303 1.1770
H14 H 0.7018 0.6179 1.0741
C1A C 0.2438(7) 0.4551(5) 1.1031(3)
C2A C 0.1659(6) 0.4018(5) 1.1919(3)
C3A C 0.1615(7) 0.2712(6) 1.2165(4)
H1A H 0.2045 0.2091 1.1768
C4A C 0.0914(7) 0.2322(6) 1.3022(4)
H2A H 0.0846 0.1429 1.3195
C5A C 0.0332(8) 0.3251(7) 1.3601(4)
H3A H -0.0097 0.3016 1.4187
C6A C 0.0385(7) 0.4538(6) 1.3309(4)
H4A H -0.0034 0.5171 1.3702
C7A C 0.2219(6) 0.7714(5) 1.0231(3)
C8A C 0.2737(7) 0.8629(5) 0.9459(3)
C9A C 0.2436(7) 0.9938(5) 0.9467(4)
H5A H 0.1870 1.0285 0.9964
C10A C 0.2984(8) 1.0736(6) 0.8728(4)
H6A H 0.2756 1.1616 0.8712
C11A C 0.3872(7) 1.0218(6) 0.8014(4)
H7A H 0.4316 1.0752 0.7530
C12A C 0.4077(7) 0.8877(6) 0.8045(4)
H8A H 0.4638 0.8505 0.7555
C13A C 1.1545(8) -0.1457(5) 0.3527(4)
C14A C 1.0728(7) -0.0728(5) 0.4299(3)
C15A C 0.8788(7) -0.0929(5) 0.4274(3)
H9A H 0.7954 -0.1561 0.3782
C16A C 1.1966(7) 0.0210(5) 0.5033(3)
H10A H 1.3285 0.0359 0.5065
C17A C 0.4214(6) 0.4828(6) 1.7004(3)
C18A C 0.4605(6) 0.4930(5) 1.5954(3)
C19A C 0.5167(6) 0.3856(5) 1.5489(3)
H11A H 0.5279 0.3082 1.5812
C20A C 0.4433(6) 0.6058(5) 1.5471(3)
H12A H 0.4043 0.6778 1.5787
Cu1A Cu 0.34071(8) 0.60963(6) 0.88012(4)
Cu1A_2 Cu 0.34071(8) 0.60963(6) 1.88012(4)
Cu2A Cu 0.10699(8) 0.67040(7) 1.18677(4)
Cu2A_2 Cu 1.10699(8) -0.32960(7) 0.18677(4)
N1A N 0.1998(5) 0.5730(4) 1.0861(3)
N2A N 0.2606(5) 0.6497(4) 1.0104(3)
N3A N 0.1017(5) 0.4922(4) 1.2482(3)
N4A N 0.3515(5) 0.8093(4) 0.8739(3)
O1A O 0.3376(4) 0.3851(3) 1.0576(2)
O2A O 0.1497(4) 0.8159(3) 1.0947(2)
O3A O 1.0265(5) -0.2323(4) 0.2896(2)
O3A_2 O 0.0265(5) 0.7677(4) 1.2896(2)
O4A O 1.3238(5) -0.1202(4) 0.3512(3)
O5A O 0.4260(5) 0.3732(3) 1.7373(2)
O6A O 0.3859(4) 0.5877(3) 1.7437(2)
O6A_2 O 0.3859(4) 0.5877(3) 0.7437(2)
O7A O 0.2414(4) 0.4104(3) 0.8757(2)
H13A H 0.2617 0.3697 0.8230
H14A H 0.2982 0.3821 0.9259
loop_
_geom_bond_atom_site_label_1
_geom_bond_atom_site_label_2
_geom_bond_site_symmetry_1
_geom_bond_site_symmetry_2
C1 C2 1_555 1_555
C2 C3 1_555 1_555
C3 H1 1_555 1_555
C4 C3 1_555 1_555
H2 C4 1_555 1_555
C5 C4 1_555 1_555
H3 C5 1_555 1_555
C6 C5 1_555 1_555
H4 C6 1_555 1_555
C7 C8 1_555 1_555
C8 C9 1_555 1_555
C9 H5 1_555 1_555
C10 C9 1_555 1_555
H6 C10 1_555 1_555
C11 C10 1_555 1_555
H7 C11 1_555 1_555
C12 C11 1_555 1_555
H8 C12 1_555 1_555
C13 C14 1_555 1_555
C14 C15 1_555 1_555
C15 H9 1_555 1_555
C16 C14 1_555 1_555
H10 C16 1_555 1_555
C17 C18 1_555 1_555
C18 C19 1_555 1_555
C19 H11 1_555 1_555
C20 C18 1_555 1_555
H12 C20 1_555 1_555
Cu1 N2 1_555 1_555
Cu2 N1 1_555 1_555
N1 C1 1_555 1_555
N2 C7 1_555 1_555
N3 C2 1_555 1_555
N4 C8 1_555 1_555
O1 C1 1_555 1_555
O2 C7 1_555 1_555
O3 C13 1_555 1_555
O4 C13 1_555 1_555
O5 C17 1_555 1_555
O6 C17 1_555 1_555
O7 Cu1 1_555 1_555
H13 O7 1_555 1_555
H14 O7 1_555 1_555
C1A C2A 1_555 1_555
C2A C3A 1_555 1_555
C3A H1A 1_555 1_555
C4A C3A 1_555 1_555
H2A C4A 1_555 1_555
C5A C4A 1_555 1_555
H3A C5A 1_555 1_555
C6A C5A 1_555 1_555
H4A C6A 1_555 1_555
C7A C8A 1_555 1_555
C8A C9A 1_555 1_555
C9A H5A 1_555 1_555
C10A C9A 1_555 1_555
H6A C10A 1_555 1_555
C11A C10A 1_555 1_555
H7A C11A 1_555 1_555
C12A C11A 1_555 1_555
H8A C12A 1_555 1_555
C13A C14A 1_555 1_555
C14A C15A 1_555 1_555
C15A C16 1_555 1_555
H9A C15A 1_555 1_555
C16A C15 1_555 1_555
H10A C16A 1_555 1_555
C17A C18A 1_555 1_555
C18A C19A 1_555 1_555
C19A C20 1_555 1_555
H11A C19A 1_555 1_555
C20A C19 1_555 1_555
H12A C20A 1_555 1_555
Cu1A O1 1_555 1_555
Cu1A_2 O6A 1_555 1_555
Cu2A N1A 1_555 1_555
Cu2A_2 O3A 1_555 1_555
N1A C1A 1_555 1_555
N2A C7A 1_555 1_555
N3A C2A 1_555 1_555
N4A C8A 1_555 1_555
O1A Cu1 1_555 1_555
O2A C7A 1_555 1_555
O3A C13A 1_555 1_555
O3A_2 Cu2A 1_555 1_555
O4A C13A 1_555 1_555
O5A C17A 1_555 1_555
O6A C17A 1_555 1_555
O6A_2 Cu1A 1_555 1_555
O7A Cu1A 1_555 1_555
H13A O7A 1_555 1_555
H14A O7A 1_555 1_555
C6 N3 1_555 1_555
C12 N4 1_555 1_555
Cu1 N4 1_555 1_555
Cu1 O6 1_555 1_555
Cu2 N3 1_555 1_555
Cu2 O2 1_555 1_555
Cu2 O3 1_555 1_555
N1 N2 1_555 1_555
C1A O1A 1_555 1_555
C6A N3A 1_555 1_555
C12A N4A 1_555 1_555
C14A C16A 1_555 1_555
C18A C20A 1_555 1_555
Cu1A N2A 1_555 1_555
Cu1A N4A 1_555 1_555
Cu2A N3A 1_555 1_555
Cu2A O2A 1_555 1_555
N1A N2A 1_555 1_555

#END
