
#######################################################################
#
#                 Cambridge Crystallographic Data Centre
#                                CCDC 
#
#######################################################################
#
# If this CIF has been generated from an entry in the Cambridge 
# Structural Database, then it will include bibliographic, chemical, 
# crystal, experimental, refinement or atomic coordinate data resulting 
# from the CCDC's data processing and validation procedures.
#
#######################################################################

data_LASVOS
_symmetry_cell_setting           orthorhombic
_symmetry_space_group_name_H-M   'P b c a'
_symmetry_Int_Tables_number      61
_space_group_name_Hall           '-P 2ac 2ab'
loop_
_symmetry_equiv_pos_site_id
_symmetry_equiv_pos_as_xyz
1 x,y,z
2 1/2-x,-y,1/2+z
3 1/2+x,1/2-y,-z
4 -x,1/2+y,1/2-z
5 -x,-y,-z
6 1/2+x,y,1/2-z
7 1/2-x,1/2+y,z
8 x,1/2-y,1/2+z
_cell_length_a                   10.151(5)
_cell_length_b                   9.687(5)
_cell_length_c                   29.778(5)
_cell_angle_alpha                90
_cell_angle_beta                 90
_cell_angle_gamma                90
_cell_volume                     2928.15
loop_
_atom_site_label
_atom_site_type_symbol
_atom_site_fract_x
_atom_site_fract_y
_atom_site_fract_z
Cd1 Cd 0.5000 -0.5000 0.0000
Cd2 Cd 0.62188(2) -0.10954(3) -0.025110(9)
P1 P 0.79105(9) -0.30432(9) 0.02195(3)
C1 C 0.7697(4) -0.3349(4) 0.08092(12)
H1 H 0.7288 -0.4247 0.0846
H2 H 0.8563 -0.3397 0.0946
C2 C 0.6891(4) -0.2308(4) 0.10663(12)
C3 C 0.7422(4) -0.1565(4) 0.14195(12)
H3 H 0.8305 -0.1687 0.1493
C4 C 0.6667(4) -0.0643(4) 0.16664(13)
H4 H 0.7056 -0.0144 0.1898
C5 C 0.5342(4) -0.0454(4) 0.15734(12)
C6 C 0.4810(4) -0.1207(4) 0.12191(13)
H5 H 0.3922 -0.1103 0.1150
C7 C 0.5562(4) -0.2098(4) 0.09685(13)
H6 H 0.5179 -0.2570 0.0730
C8 C 0.4516(4) 0.0503(4) 0.18479(13)
C9 C 0.4680(5) 0.0559(5) 0.23129(14)
H7 H 0.5321 0.0013 0.2449
C10 C 0.3907(5) 0.1412(5) 0.25750(15)
H8 H 0.4051 0.1459 0.2883
C11 C 0.2929(5) 0.2189(5) 0.23829(14)
H9 H 0.2395 0.2743 0.2561
C12 C 0.2739(5) 0.2148(5) 0.19257(14)
H10 H 0.2069 0.2669 0.1796
C13 C 0.3542(4) 0.1332(4) 0.16556(13)
C14 C 0.3421(4) 0.1411(4) 0.11554(13)
O1 O 0.6571(2) -0.3316(2) -0.00050(8)
O2 O 0.8992(2) -0.4040(2) 0.00585(8)
O3 O 0.8273(2) -0.1541(2) 0.01174(8)
O4 O 0.4333(3) 0.1983(3) 0.09406(9)
O5 O 0.2483(2) 0.0868(2) 0.09500(7)
O6 O 0.5128(2) -0.4783(2) -0.07681(7)
H11 H 0.5799 -0.5251 -0.0846
H12 H 0.5166 -0.3929 -0.0831
Cd1B Cd 1.0000 0.0000 0.0000
Cd1B_2 Cd 0.0000 -1.0000 0.0000
Cd2D Cd 0.37812(2) -0.89046(3) 0.025110(9)
Cd2F Cd 0.87812(2) -0.60954(3) -0.025110(9)
Cd2B Cd 1.12188(2) -0.39046(3) 0.025110(9)
Cd2D_2 Cd 0.37812(2) 0.10954(3) 0.025110(9)
Cd2B_2 Cd 0.12188(2) -0.39046(3) 0.025110(9)
Cd2F_2 Cd -0.12188(2) -0.60954(3) -0.025110(9)
Cd2_2 Cd 0.62188(2) -1.10954(3) -0.025110(9)
P1D P 0.20895(9) -0.69568(9) -0.02195(3)
C1D C 0.2303(4) -0.6651(4) -0.08092(12)
H1D H 0.2712 -0.5753 -0.0846
H2D H 0.1437 -0.6603 -0.0946
C2D C 0.3109(4) -0.7692(4) -0.10663(12)
C3D C 0.2578(4) -0.8435(4) -0.14195(12)
H3D H 0.1695 -0.8313 -0.1493
C4D C 0.3333(4) -0.9357(4) -0.16664(13)
H4D H 0.2944 -0.9856 -0.1898
C5D C 0.4658(4) -0.9546(4) -0.15734(12)
C6D C 0.5190(4) -0.8793(4) -0.12191(13)
H5D H 0.6078 -0.8897 -0.1150
C7D C 0.4438(4) -0.7902(4) -0.09685(13)
H6D H 0.4821 -0.7430 -0.0730
C8D C 0.5484(4) -1.0503(4) -0.18479(13)
C9D C 0.5320(5) -1.0559(5) -0.23129(14)
H7D H 0.4679 -1.0013 -0.2449
C10D C 0.6093(5) -1.1412(5) -0.25750(15)
H8D H 0.5949 -1.1459 -0.2883
C11D C 0.7071(5) -1.2189(5) -0.23829(14)
H9D H 0.7605 -1.2743 -0.2561
C12D C 0.7261(5) -1.2148(5) -0.19257(14)
H10D H 0.7931 -1.2669 -0.1796
C13D C 0.6458(4) -1.1332(4) -0.16556(13)
C14D C 0.6579(4) -1.1411(4) -0.11554(13)
O1D O 0.3429(2) -0.6684(2) 0.00050(8)
O2D O 0.1008(2) -0.5960(2) -0.00585(8)
O2F O 0.6008(2) 0.0960(2) 0.00585(8)
O2B O 0.3992(2) -0.0960(2) -0.00585(8)
O2B_2 O 0.3992(2) -1.0960(2) -0.00585(8)
O2F_2 O 0.6008(2) -0.9040(2) 0.00585(8)
O3D O 0.1727(2) -0.8459(2) -0.01174(8)
O3B O 0.3273(2) -0.3459(2) -0.01174(8)
O3F O 0.6727(2) -0.6541(2) 0.01174(8)
O4D O 0.5667(3) -1.1983(3) -0.09406(9)
O4D_2 O 0.5667(3) -0.1983(3) -0.09406(9)
O4_2 O 0.4333(3) -0.8017(3) 0.09406(9)
O5D O 0.7517(2) -1.0868(2) -0.09500(7)
O5D_2 O 0.7517(2) -0.0868(2) -0.09500(7)
O5_2 O 0.2483(2) -0.9132(2) 0.09500(7)
O6D O 0.4872(2) -0.5217(2) 0.07681(7)
H11D H 0.4201 -0.4749 0.0846
H12D H 0.4834 -0.6071 0.0831
loop_
_geom_bond_atom_site_label_1
_geom_bond_atom_site_label_2
_geom_bond_site_symmetry_1
_geom_bond_site_symmetry_2
Cd1 O1 1_555 1_555
Cd2 O1 1_555 1_555
P1 C1 1_555 1_555
C1 H1 1_555 1_555
H2 C1 1_555 1_555
C2 C1 1_555 1_555
C3 C2 1_555 1_555
H3 C3 1_555 1_555
C4 C3 1_555 1_555
H4 C4 1_555 1_555
C5 C4 1_555 1_555
C6 C5 1_555 1_555
H5 C6 1_555 1_555
C7 C2 1_555 1_555
H6 C7 1_555 1_555
C8 C5 1_555 1_555
C9 C8 1_555 1_555
H7 C9 1_555 1_555
C10 C9 1_555 1_555
H8 C10 1_555 1_555
C11 C10 1_555 1_555
H9 C11 1_555 1_555
C12 C11 1_555 1_555
H10 C12 1_555 1_555
C13 C8 1_555 1_555
C14 C13 1_555 1_555
O1 P1 1_555 1_555
O2 P1 1_555 1_555
O3 Cd2 1_555 1_555
O4 C14 1_555 1_555
O5 C14 1_555 1_555
O6 Cd1 1_555 1_555
H11 O6 1_555 1_555
H12 O6 1_555 1_555
Cd1B O3 1_555 1_555
Cd1B_2 O3D 1_555 1_555
Cd2D O1D 1_555 1_555
Cd2F O2 1_555 1_555
Cd2B O2 1_555 1_555
Cd2D_2 O4 1_555 1_555
Cd2B_2 O2D 1_555 1_555
Cd2F_2 O2D 1_555 1_555
Cd2_2 O2B_2 1_555 1_555
P1D C1D 1_555 1_555
C1D H1D 1_555 1_555
H2D C1D 1_555 1_555
C2D C1D 1_555 1_555
C3D C2D 1_555 1_555
H3D C3D 1_555 1_555
C4D C3D 1_555 1_555
H4D C4D 1_555 1_555
C5D C4D 1_555 1_555
C6D C5D 1_555 1_555
H5D C6D 1_555 1_555
C7D C2D 1_555 1_555
H6D C7D 1_555 1_555
C8D C5D 1_555 1_555
C9D C8D 1_555 1_555
H7D C9D 1_555 1_555
C10D C9D 1_555 1_555
H8D C10D 1_555 1_555
C11D C10D 1_555 1_555
H9D C11D 1_555 1_555
C12D C11D 1_555 1_555
H10D C12D 1_555 1_555
C13D C8D 1_555 1_555
C14D C13D 1_555 1_555
O1D Cd1 1_555 1_555
O2D P1D 1_555 1_555
O2F Cd2 1_555 1_555
O2B Cd2 1_555 1_555
O2B_2 Cd2D 1_555 1_555
O2F_2 Cd2D 1_555 1_555
O3D Cd2D 1_555 1_555
O3B Cd1 1_555 1_555
O3F Cd1 1_555 1_555
O4D Cd2_2 1_555 1_555
O4D_2 Cd2 1_555 1_555
O4_2 Cd2D 1_555 1_555
O5D Cd2_2 1_555 1_555
O5D_2 Cd2 1_555 1_555
O5_2 Cd2D 1_555 1_555
O6D Cd1 1_555 1_555
H11D O6D 1_555 1_555
H12D O6D 1_555 1_555
P1 O3 1_555 1_555
C6 C7 1_555 1_555
C12 C13 1_555 1_555
O5 Cd2D_2 1_555 1_555
Cd2F O3F 1_555 1_555
Cd2D_2 O2F 1_555 1_555
Cd2D_2 O2B 1_555 1_555
Cd2B_2 O3B 1_555 1_555
Cd2_2 O2F_2 1_555 1_555
P1D O1D 1_555 1_555
P1D O3D 1_555 1_555
C6D C7D 1_555 1_555
C12D C13D 1_555 1_555
C14D O4D 1_555 1_555
C14D O5D 1_555 1_555

#END
