
#######################################################################
#
#                 Cambridge Crystallographic Data Centre
#                                CCDC 
#
#######################################################################
#
# If this CIF has been generated from an entry in the Cambridge 
# Structural Database, then it will include bibliographic, chemical, 
# crystal, experimental, refinement or atomic coordinate data resulting 
# from the CCDC's data processing and validation procedures.
#
#######################################################################

data_LASWEH
_symmetry_cell_setting           monoclinic
_symmetry_space_group_name_H-M   'C 2/m'
_symmetry_Int_Tables_number      12
_space_group_name_Hall           '-C 2y'
loop_
_symmetry_equiv_pos_site_id
_symmetry_equiv_pos_as_xyz
1 x,y,z
2 1/2+x,1/2+y,z
3 -x,y,-z
4 1/2-x,1/2+y,-z
5 -x,-y,-z
6 1/2-x,1/2-y,-z
7 x,-y,z
8 1/2+x,1/2-y,z
_cell_length_a                   11.297(3)
_cell_length_b                   11.961(3)
_cell_length_c                   8.107(2)
_cell_angle_alpha                90
_cell_angle_beta                 124.25(2)
_cell_angle_gamma                90
_cell_volume                     905.484
loop_
_atom_site_label
_atom_site_type_symbol
_atom_site_fract_x
_atom_site_fract_y
_atom_site_fract_z
Ag1 Ag 0.03489(2) 0.0000 0.30140(3)
O1 O 0.0000 0.1369(2) 0.5000
S1 S 0.24649(5) 0.11154(4) 0.16734(7)
N1 N 0.1947(3) 0.0000 0.2212(4)
O2 O 0.1518(2) 0.1413(1) -0.0423(2)
O3 O 0.2727(2) 0.1986(1) 0.3065(2)
C1 C 0.4075(2) 0.0583(2) 0.2094(3)
C2 C 0.5189(2) 0.1188(2) 0.2286(3)
C3 C 0.6322(2) 0.0581(2) 0.2494(3)
H1 H 0.0736 0.1765 0.5775
H2 H 0.5189 0.1993 0.2277
H3 H 0.7116 0.0971 0.2640
H1B H -0.0736 0.1765 0.4225
S1F S 0.24649(5) -0.11154(4) 0.16734(7)
O2F O 0.1518(2) -0.1413(1) -0.0423(2)
O3F O 0.2727(2) -0.1986(1) 0.3065(2)
C1F C 0.4075(2) -0.0583(2) 0.2094(3)
C3F C 0.6322(2) -0.0581(2) 0.2494(3)
C2F C 0.5189(2) -0.1188(2) 0.2286(3)
H2F H 0.5189 -0.1993 0.2277
H3F H 0.7116 -0.0971 0.2640
O1D O 0.0000 -0.1369(2) 0.5000
O2B O -0.1518(2) 0.1413(1) 0.0423(2)
O2D O -0.1518(2) -0.1413(1) 0.0423(2)
Ag1B Ag -0.03489(2) 0.0000 0.69860(3)
Ag1B_2 Ag -0.03489(2) 0.0000 -0.30140(3)
H1D H -0.0736 -0.1765 0.4225
H1F H 0.0736 -0.1765 0.5775
loop_
_geom_bond_atom_site_label_1
_geom_bond_atom_site_label_2
_geom_bond_site_symmetry_1
_geom_bond_site_symmetry_2
Ag1 O1 1_555 1_555
O1 H1 1_555 1_555
S1 N1 1_555 1_555
N1 Ag1 1_555 1_555
O2 S1 1_555 1_555
O3 S1 1_555 1_555
C1 S1 1_555 1_555
C2 C1 1_555 1_555
C3 C2 1_555 1_555
H2 C2 1_555 1_555
H3 C3 1_555 1_555
H1B O1 1_555 1_555
S1F N1 1_555 1_555
O2F S1F 1_555 1_555
O3F S1F 1_555 1_555
C1F C1 1_555 1_555
C3F C3 1_555 1_555
C2F C1F 1_555 1_555
H2F C2F 1_555 1_555
H3F C3F 1_555 1_555
O1D Ag1 1_555 1_555
O2B Ag1 1_555 1_555
O2D Ag1 1_555 1_555
Ag1B O1 1_555 1_555
Ag1B_2 O2 1_555 1_555
H1D O1D 1_555 1_555
H1F O1D 1_555 1_555
S1F C1F 1_555 1_555
O2F Ag1B_2 1_555 1_555
C3F C2F 1_555 1_555
O1D Ag1B 1_555 1_555

#END
