
#######################################################################
#
#                 Cambridge Crystallographic Data Centre
#                                CCDC 
#
#######################################################################
#
# If this CIF has been generated from an entry in the Cambridge 
# Structural Database, then it will include bibliographic, chemical, 
# crystal, experimental, refinement or atomic coordinate data resulting 
# from the CCDC's data processing and validation procedures.
#
#######################################################################

data_LASWOT
_symmetry_cell_setting           monoclinic
_symmetry_space_group_name_H-M   'P 21/c'
_symmetry_Int_Tables_number      14
_space_group_name_Hall           '-P 2ybc'
loop_
_symmetry_equiv_pos_site_id
_symmetry_equiv_pos_as_xyz
1 x,y,z
2 -x,1/2+y,1/2-z
3 -x,-y,-z
4 x,1/2-y,1/2+z
_cell_length_a                   6.7174(13)
_cell_length_b                   22.973(5)
_cell_length_c                   7.2182(14)
_cell_angle_alpha                90
_cell_angle_beta                 100.255(2)
_cell_angle_gamma                90
_cell_volume                     1096.11
loop_
_atom_site_label
_atom_site_type_symbol
_atom_site_fract_x
_atom_site_fract_y
_atom_site_fract_z
Cd1 Cd 0.18372(3) 0.638768(9) 0.84057(3)
C1 C -0.1924(5) 0.55359(12) 0.7748(4)
C2 C -0.1328(4) 0.56191(12) 0.5893(4)
C3 C -0.2251(5) 0.54596(14) 0.4135(4)
H1 H -0.3447 0.5250 0.3817
C4 C 0.0494(5) 0.59433(14) 0.3964(4)
H2 H 0.1518 0.6126 0.3467
C5 C 0.1776(5) 0.76508(12) 0.6723(4)
C6 C 0.3866(4) 0.75497(12) 0.7747(4)
C7 C 0.5404(5) 0.79265(13) 0.8357(4)
H3 H 0.5393 0.8328 0.8197
C8 C 0.6370(4) 0.70394(14) 0.9159(4)
H4 H 0.7175 0.6728 0.9661
N1 N 0.0410(4) 0.59230(10) 0.5757(3)
N2 N -0.1072(4) 0.56691(12) 0.2937(4)
H5 H -0.1297 0.5631 0.1732
N3 N 0.4486(4) 0.69903(10) 0.8259(3)
N4 N 0.6965(4) 0.75944(12) 0.9252(4)
H6 H 0.8133 0.7721 0.9785
O1 O -0.0834(3) 0.57869(9) 0.9140(3)
O2 O 0.4074(3) 0.57288(10) 1.0026(3)
H7 H 0.3517 0.5455 1.0531
H8 H 0.4877 0.5589 0.9352
O3 O -0.3437(3) 0.52302(10) 0.7855(3)
O4 O 0.0584(3) 0.72247(8) 0.6616(3)
O5 O 0.1299(3) 0.81463(8) 0.6048(3)
Cd1C Cd 0.18372(3) 0.861232(9) 0.34057(3)
O5C O 0.1299(3) 0.68537(8) 1.1048(3)
loop_
_geom_bond_atom_site_label_1
_geom_bond_atom_site_label_2
_geom_bond_site_symmetry_1
_geom_bond_site_symmetry_2
Cd1 N1 1_555 1_555
C1 C2 1_555 1_555
C2 C3 1_555 1_555
C3 H1 1_555 1_555
C4 H2 1_555 1_555
C5 C6 1_555 1_555
C6 C7 1_555 1_555
C7 H3 1_555 1_555
C8 H4 1_555 1_555
N1 C2 1_555 1_555
N2 C3 1_555 1_555
H5 N2 1_555 1_555
N3 Cd1 1_555 1_555
N4 C7 1_555 1_555
H6 N4 1_555 1_555
O1 Cd1 1_555 1_555
O2 Cd1 1_555 1_555
H7 O2 1_555 1_555
H8 O2 1_555 1_555
O3 C1 1_555 1_555
O4 Cd1 1_555 1_555
O5 C5 1_555 1_555
Cd1C O5 1_555 1_555
O5C Cd1 1_555 1_555
C1 O1 1_555 1_555
C4 N1 1_555 1_555
C4 N2 1_555 1_555
C5 O4 1_555 1_555
C6 N3 1_555 1_555
C8 N3 1_555 1_555
C8 N4 1_555 1_555

#END
