
#######################################################################
#
#                 Cambridge Crystallographic Data Centre
#                                CCDC 
#
#######################################################################
#
# If this CIF has been generated from an entry in the Cambridge 
# Structural Database, then it will include bibliographic, chemical, 
# crystal, experimental, refinement or atomic coordinate data resulting 
# from the CCDC's data processing and validation procedures.
#
#######################################################################

data_LASXEK
_symmetry_cell_setting           triclinic
_symmetry_space_group_name_H-M   'P -1'
_symmetry_Int_Tables_number      2
_space_group_name_Hall           '-P 1'
loop_
_symmetry_equiv_pos_site_id
_symmetry_equiv_pos_as_xyz
1 x,y,z
2 -x,-y,-z
_cell_length_a                   10.185(5)
_cell_length_b                   10.983(5)
_cell_length_c                   14.243(5)
_cell_angle_alpha                88.775(5)
_cell_angle_beta                 72.634(5)
_cell_angle_gamma                75.770(5)
_cell_volume                     1471.64
loop_
_atom_site_label
_atom_site_type_symbol
_atom_site_fract_x
_atom_site_fract_y
_atom_site_fract_z
Cd1 Cd -0.09498(6) 0.36482(7) 0.74156(5)
O1 O -0.5740(5) 0.6965(5) 0.6440(4)
O2 O -0.1829(5) 0.5934(6) 0.7351(4)
O3 O -0.6707(5) 0.6375(6) 0.2560(4)
C1 C -0.5287(7) 0.6734(7) 0.5441(6)
C2 C -0.5956(6) 0.6528(7) 0.3984(6)
N1 N -0.1557(6) 0.3947(7) 0.9052(5)
C3 C -0.6318(7) 0.6697(7) 0.4981(6)
H1 H -0.7258 0.6790 0.5360
C4 C -0.3528(7) 0.6431(7) 0.3858(6)
N2 N 0.0061(7) -0.1522(8) 1.2635(6)
O4 O -0.0309(7) 0.6225(8) 0.5849(5)
H2 H 0.0154 0.5530 0.5932
C5 C -0.1507(9) 0.6554(10) 0.6596(7)
C6 C -0.3888(7) 0.6585(7) 0.4864(6)
H3 H -0.3191 0.6590 0.5161
C7 C -0.2454(9) 0.7821(10) 0.6532(7)
C8 C -0.4541(7) 0.6409(7) 0.3404(6)
H4 H -0.4292 0.6316 0.2721
O5 O -0.1095(5) 0.6186(6) 0.3711(5)
O6 O -0.1725(5) 0.6425(7) 0.2354(5)
N3 N -0.1174(10) 0.3835(8) 1.0507(6)
C9 C -0.7047(7) 0.6486(7) 0.3467(7)
C10 C -0.3927(9) 0.7987(10) 0.6684(7)
N4 N -0.0455(11) 0.0397(12) 1.2151(11)
C11 C -0.4712(11) 0.9198(11) 0.6591(8)
H5 H -0.5681 0.9332 0.6687
C12 C -0.4618(9) 0.6905(9) 0.6906(7)
H6 H -0.5023 0.6892 0.7614
H7 H -0.3894 0.6124 0.6682
C13 C -0.1020(11) -0.0814(12) 1.3359(9)
H8 H -0.1490 -0.1107 1.3950
C14 C -0.2013(7) 0.6340(8) 0.3245(8)
C15 C -0.1848(11) 0.8836(11) 0.6277(8)
H9 H -0.0873 0.8719 0.6142
C16 C -0.0640(9) 0.3557(9) 0.9564(7)
H10 H 0.0301 0.3124 0.9271
C17 C -0.0624(18) 0.2582(19) 1.1922(12)
H11 H 0.0089 0.2420 1.2264
H12 H -0.1552 0.2837 1.2410
C18 C -0.2805(10) 0.4463(11) 0.9773(9)
H13 H -0.3674 0.4806 0.9665
C19 C -0.1307(12) 0.0355(13) 1.3100(12)
H14 H -0.1968 0.1035 1.3489
C20 C 0.0352(11) -0.0746(14) 1.1952(10)
H15 H 0.1082 -0.0986 1.1364
C21 C -0.0403(18) 0.3620(13) 1.1231(10)
H16 H -0.0651 0.4398 1.1627
H17 H 0.0604 0.3450 1.0878
C22 C -0.4113(13) 1.0180(12) 0.6369(10)
H18 H -0.4667 1.0973 0.6313
C23 C -0.2676(13) 0.9998(12) 0.6225(9)
H19 H -0.2269 1.0678 0.6091
C24 C -0.0535(16) 0.1581(18) 1.1441(10)
H20 H 0.0309 0.1417 1.0873
H21 H -0.1357 0.1688 1.1209
C25 C -0.2584(15) 0.4399(12) 1.0651(9)
H22 H -0.3264 0.4686 1.1253
O7 O -0.8282(5) 0.6526(6) 0.4007(4)
Cd1A Cd -0.90502(6) 0.63518(7) 0.25844(5)
Cd1A_2 Cd 0.09498(6) -0.36482(7) 1.25844(5)
Cd1A_3 Cd 0.09498(6) 0.63518(7) 0.25844(5)
O3A O -0.3293(5) 0.3625(6) 0.7440(4)
N2A N -0.0061(7) 0.1522(8) 0.7365(6)
O5A O 0.1095(5) 0.3814(6) 0.6289(5)
O7A O -0.1718(5) 0.3474(6) 0.5993(4)
O8 O 0.5284(9) 0.2258(10) 0.8892(6)
O9 O 0.4007(10) 0.2499(10) 0.0968(6)
O10 O 0.2864(9) 0.1646(11) 0.8704(9)
O11 O -0.3100(13) 0.0776(14) 1.0671(10)
O12 O 0.3281(12) 0.0257(13) 0.0984(10)
loop_
_geom_bond_atom_site_label_1
_geom_bond_atom_site_label_2
_geom_bond_site_symmetry_1
_geom_bond_site_symmetry_2
Cd1 O2 1_555 1_555
O1 C1 1_555 1_555
O2 C5 1_555 1_555
O3 C9 1_555 1_555
C1 C3 1_555 1_555
C2 C3 1_555 1_555
N1 Cd1 1_555 1_555
C3 H1 1_555 1_555
C4 C6 1_555 1_555
N2 C13 1_555 1_555
O4 H2 1_555 1_555
C5 O4 1_555 1_555
C6 C1 1_555 1_555
H3 C6 1_555 1_555
C7 C5 1_555 1_555
C8 C2 1_555 1_555
H4 C8 1_555 1_555
O5 C14 1_555 1_555
O6 C14 1_555 1_555
N3 C16 1_555 1_555
C9 C2 1_555 1_555
C10 C7 1_555 1_555
N4 C19 1_555 1_555
C11 C10 1_555 1_555
H5 C11 1_555 1_555
C12 O1 1_555 1_555
H6 C12 1_555 1_555
H7 C12 1_555 1_555
C13 H8 1_555 1_555
C14 C4 1_555 1_555
C15 C7 1_555 1_555
H9 C15 1_555 1_555
C16 N1 1_555 1_555
H10 C16 1_555 1_555
C17 H11 1_555 1_555
H12 C17 1_555 1_555
C18 N1 1_555 1_555
H13 C18 1_555 1_555
C19 C13 1_555 1_555
H14 C19 1_555 1_555
C20 N2 1_555 1_555
H15 C20 1_555 1_555
C21 N3 1_555 1_555
H16 C21 1_555 1_555
H17 C21 1_555 1_555
C22 C11 1_555 1_555
H18 C22 1_555 1_555
C23 C15 1_555 1_555
H19 C23 1_555 1_555
C24 N4 1_555 1_555
H20 C24 1_555 1_555
H21 C24 1_555 1_555
C25 N3 1_555 1_555
H22 C25 1_555 1_555
O7 C9 1_555 1_555
Cd1A O3 1_555 1_555
Cd1A_2 N2 1_555 1_555
Cd1A_3 O5 1_555 1_555
O3A Cd1 1_555 1_555
N2A Cd1 1_555 1_555
O5A Cd1 1_555 1_555
O7A Cd1 1_555 1_555
C4 C8 1_555 1_555
C10 C12 1_555 1_555
N4 C20 1_555 1_555
C17 C21 1_555 1_555
C17 C24 1_555 1_555
C18 C25 1_555 1_555
C22 C23 1_555 1_555
O7 Cd1A 1_555 1_555

#END
