
#######################################################################
#
#                 Cambridge Crystallographic Data Centre
#                                CCDC 
#
#######################################################################
#
# If this CIF has been generated from an entry in the Cambridge 
# Structural Database, then it will include bibliographic, chemical, 
# crystal, experimental, refinement or atomic coordinate data resulting 
# from the CCDC's data processing and validation procedures.
#
#######################################################################

data_LATJEW
_symmetry_cell_setting           monoclinic
_symmetry_space_group_name_H-M   'P 2/c'
_symmetry_Int_Tables_number      13
_space_group_name_Hall           '-P 2yc'
loop_
_symmetry_equiv_pos_site_id
_symmetry_equiv_pos_as_xyz
1 x,y,z
2 -x,y,1/2-z
3 -x,-y,-z
4 x,-y,1/2+z
_cell_length_a                   16.012(5)
_cell_length_b                   6.907(5)
_cell_length_c                   7.971(5)
_cell_angle_alpha                90
_cell_angle_beta                 76.101(5)
_cell_angle_gamma                90
_cell_volume                     855.741
loop_
_atom_site_label
_atom_site_type_symbol
_atom_site_fract_x
_atom_site_fract_y
_atom_site_fract_z
Co1 Co 0.0000 0.0000 0.5000
O1 O 0.0924(2) -0.1970(6) 0.5317(5)
O2 O -0.0950(2) -0.1837(6) 0.6275(5)
O3 O -0.1512(3) -0.2741(7) 0.4108(5)
C1 C -0.2255(3) -0.3531(8) 0.7027(7)
H1 H -0.2021 -0.4545 0.7621
H2 H -0.2487 -0.2537 0.7870
O4 O -0.3503(3) -0.1418(6) 0.5984(7)
O5 O 0.0000 -0.1290(7) 0.2500
N1 N -0.2952(3) -0.4334(7) 0.6384(6)
H3 H -0.2985 -0.5568 0.6275
C2 C -0.4282(3) -0.4172(9) 0.5448(7)
C3 C -0.4386(4) -0.6186(9) 0.5408(9)
H4 H -0.3977 -0.6993 0.5698
C4 C -0.3540(3) -0.3211(8) 0.5958(7)
C5 C -0.1525(3) -0.2657(7) 0.5654(6)
C6 C -0.4911(4) -0.3016(8) 0.5057(9)
H5 H -0.4861 -0.1677 0.5108
H6 H 0.0467(19) -0.189(7) 0.231(6)
H7 H 0.096(6) -0.200(13) 0.640(6)
H8 H 0.143(2) -0.194(9) 0.469(7)
Co1C Co 0.0000 0.0000 0.0000
Co1_2 Co -1.0000 -1.0000 0.5000
O1B O -0.0924(2) 0.1970(6) 0.4683(5)
O2B O -0.9050(2) -0.8163(6) 0.3725(5)
O2B_2 O 0.0950(2) 0.1837(6) 0.3725(5)
O3B O -0.8488(3) -0.7259(7) 0.5892(5)
C1B C -0.7745(3) -0.6469(8) 0.2973(7)
H1B H -0.7979 -0.5455 0.2379
H2B H -0.7513 -0.7463 0.2130
O4B O -0.6497(3) -0.8582(6) 0.4016(7)
O5C O 0.0000 0.1290(7) 0.7500
N1B N -0.7048(3) -0.5666(7) 0.3616(6)
H3B H -0.7015 -0.4432 0.3725
C2B C -0.5718(3) -0.5828(9) 0.4552(7)
C3B C -0.5614(4) -0.3814(9) 0.4592(9)
H4B H -0.6023 -0.3007 0.4302
C4B C -0.6460(3) -0.6789(8) 0.4042(7)
C5B C -0.8475(3) -0.7343(7) 0.4346(6)
C6B C -0.5089(4) -0.6984(8) 0.4943(9)
H5B H -0.5139 -0.8323 0.4892
H6A H -0.0467(19) -0.189(7) 0.269(6)
H6C H 0.0467(19) 0.189(7) 0.731(6)
H6B H -0.0467(19) 0.189(7) 0.769(6)
H7B H -0.096(6) 0.200(13) 0.360(6)
H8B H -0.143(2) 0.194(9) 0.531(7)
O6 O 0.2577(3) -0.1614(6) 0.3231(6)
H9 H 0.250(5) -0.187(11) 0.222(6)
H10 H 0.281(5) -0.054(7) 0.315(10)
loop_
_geom_bond_atom_site_label_1
_geom_bond_atom_site_label_2
_geom_bond_site_symmetry_1
_geom_bond_site_symmetry_2
Co1 O1 1_555 1_555
O1 H7 1_555 1_555
O2 Co1 1_555 1_555
O3 C5 1_555 1_555
C1 H1 1_555 1_555
H2 C1 1_555 1_555
O4 C4 1_555 1_555
O5 Co1 1_555 1_555
N1 C1 1_555 1_555
H3 N1 1_555 1_555
C2 C3 1_555 1_555
C3 H4 1_555 1_555
C4 N1 1_555 1_555
C5 O2 1_555 1_555
C6 C2 1_555 1_555
H5 C6 1_555 1_555
O6 H9 1_555 1_555
H6 O5 1_555 1_555
H8 O1 1_555 1_555
H10 O6 1_555 1_555
Co1C O5 1_555 1_555
Co1_2 O2B 1_555 1_555
O1B Co1 1_555 1_555
O2B C5B 1_555 1_555
O2B_2 Co1 1_555 1_555
O3B C5B 1_555 1_555
C1B H1B 1_555 1_555
H2B C1B 1_555 1_555
O4B C4B 1_555 1_555
O5C Co1 1_555 1_555
N1B C1B 1_555 1_555
H3B N1B 1_555 1_555
C2B C3B 1_555 1_555
C3B C6 1_555 1_555
H4B C3B 1_555 1_555
C4B N1B 1_555 1_555
C5B C1B 1_555 1_555
C6B C3 1_555 1_555
H5B C6B 1_555 1_555
H6A O5 1_555 1_555
H6C O5C 1_555 1_555
H6B O5C 1_555 1_555
H7B O1B 1_555 1_555
H8B O1B 1_555 1_555
C1 C5 1_555 1_555
C2 C4 1_555 1_555
C2B C4B 1_555 1_555
C2B C6B 1_555 1_555

#END
