
#######################################################################
#
#                 Cambridge Crystallographic Data Centre
#                                CCDC 
#
#######################################################################
#
# If this CIF has been generated from an entry in the Cambridge 
# Structural Database, then it will include bibliographic, chemical, 
# crystal, experimental, refinement or atomic coordinate data resulting 
# from the CCDC's data processing and validation procedures.
#
#######################################################################

data_LATJIA
_symmetry_cell_setting           monoclinic
_symmetry_space_group_name_H-M   'P 2/c'
_symmetry_Int_Tables_number      13
_space_group_name_Hall           '-P 2yc'
loop_
_symmetry_equiv_pos_site_id
_symmetry_equiv_pos_as_xyz
1 x,y,z
2 -x,y,1/2-z
3 -x,-y,-z
4 x,-y,1/2+z
_cell_length_a                   15.795(2)
_cell_length_b                   6.8256(14)
_cell_length_c                   8.1755(6)
_cell_angle_alpha                90
_cell_angle_beta                 77.004(7)
_cell_angle_gamma                90
_cell_volume                     858.827
loop_
_atom_site_label
_atom_site_type_symbol
_atom_site_fract_x
_atom_site_fract_y
_atom_site_fract_z
Cu1 Cu 0.0000 0.5000 0.0000
O1 O 0.0000 0.3483(5) 0.2500
O2 O 0.09320(13) 0.3282(3) -0.1282(3)
O3 O -0.08763(15) 0.3068(4) -0.0423(3)
O5 O 0.15599(14) 0.2309(4) 0.0765(3)
C1 C 0.3561(2) 0.1874(5) -0.1033(4)
C2 C 0.4288(2) 0.0847(6) -0.0490(4)
O6 O 0.35264(17) 0.3672(4) -0.1071(4)
N1 N 0.29604(16) 0.0743(4) -0.1493(3)
H1 H 0.3003 -0.0510 -0.1432
C3 C 0.15313(18) 0.2442(5) -0.0720(4)
C4 C 0.22457(19) 0.1571(5) -0.2087(4)
H2 H 0.1995 0.0557 -0.2663
H3 H 0.2469 0.2586 -0.2900
C5 C 0.4913(3) 0.1984(5) -0.0034(6)
H4 H 0.4862 0.3341 -0.0055
C6 C 0.4383(2) -0.1158(6) -0.0456(6)
H5 H 0.3970 -0.1963 -0.0765
H7 H -0.091(3) 0.328(6) -0.141(4)
H8 H 0.046(2) 0.285(7) 0.219(7)
H9 H -0.138(2) 0.313(7) 0.018(5)
Cu1C Cu 0.0000 0.5000 0.5000
Cu1_2 Cu 1.0000 -0.5000 0.0000
O1C O 0.0000 0.6517(5) -0.2500
O2B O 0.90680(13) -0.3282(3) 0.1282(3)
O2B_2 O -0.09320(13) 0.6718(3) 0.1282(3)
O3B O 0.08763(15) 0.6932(4) 0.0423(3)
O5B O 0.84401(14) -0.2309(4) -0.0765(3)
C1B C 0.6439(2) -0.1874(5) 0.1033(4)
C2B C 0.5712(2) -0.0847(6) 0.0490(4)
O6B O 0.64736(17) -0.3672(4) 0.1071(4)
N1B N 0.70396(16) -0.0743(4) 0.1493(3)
H1B H 0.6997 0.0510 0.1432
C3B C 0.84687(18) -0.2442(5) 0.0720(4)
C4B C 0.77543(19) -0.1571(5) 0.2087(4)
H2B H 0.8005 -0.0557 0.2663
H3B H 0.7531 -0.2586 0.2900
C5B C 0.5087(3) -0.1984(5) 0.0034(6)
H4B H 0.5138 -0.3341 0.0055
C6B C 0.5617(2) 0.1158(6) 0.0456(6)
H5B H 0.6030 0.1963 0.0765
H7B H 0.091(3) 0.672(6) 0.141(4)
H8A H -0.046(2) 0.285(7) 0.281(7)
H8C H 0.046(2) 0.715(7) -0.281(7)
H8B H -0.046(2) 0.715(7) -0.219(7)
H9B H 0.138(2) 0.687(7) -0.018(5)
O4 O -0.25176(16) 0.3329(4) 0.1725(3)
H6 H -0.242(3) 0.328(7) 0.262(4)
H10 H -0.286(3) 0.418(6) 0.164(6)
loop_
_geom_bond_atom_site_label_1
_geom_bond_atom_site_label_2
_geom_bond_site_symmetry_1
_geom_bond_site_symmetry_2
Cu1 O1 1_555 1_555
O1 H8 1_555 1_555
O2 Cu1 1_555 1_555
O3 Cu1 1_555 1_555
O4 H6 1_555 1_555
O5 C3 1_555 1_555
C1 C2 1_555 1_555
C2 C5 1_555 1_555
O6 C1 1_555 1_555
N1 C1 1_555 1_555
H1 N1 1_555 1_555
C3 O2 1_555 1_555
C4 N1 1_555 1_555
H2 C4 1_555 1_555
H3 C4 1_555 1_555
C5 H4 1_555 1_555
C6 C2 1_555 1_555
H5 C6 1_555 1_555
H7 O3 1_555 1_555
H9 O3 1_555 1_555
H10 O4 1_555 1_555
Cu1C O1 1_555 1_555
Cu1_2 O2B 1_555 1_555
O1C Cu1 1_555 1_555
O2B C3B 1_555 1_555
O2B_2 Cu1 1_555 1_555
O3B Cu1 1_555 1_555
O5B C3B 1_555 1_555
C1B C2B 1_555 1_555
C2B C5B 1_555 1_555
O6B C1B 1_555 1_555
N1B C1B 1_555 1_555
H1B N1B 1_555 1_555
C3B C4B 1_555 1_555
C4B N1B 1_555 1_555
H2B C4B 1_555 1_555
H3B C4B 1_555 1_555
C5B C6 1_555 1_555
H4B C5B 1_555 1_555
C6B C5 1_555 1_555
H5B C6B 1_555 1_555
H7B O3B 1_555 1_555
H8A O1 1_555 1_555
H8C O1C 1_555 1_555
H8B O1C 1_555 1_555
H9B O3B 1_555 1_555
C3 C4 1_555 1_555
C2B C6B 1_555 1_555

#END
