
#######################################################################
#
#                 Cambridge Crystallographic Data Centre
#                                CCDC 
#
#######################################################################
#
# If this CIF has been generated from an entry in the Cambridge 
# Structural Database, then it will include bibliographic, chemical, 
# crystal, experimental, refinement or atomic coordinate data resulting 
# from the CCDC's data processing and validation procedures.
#
#######################################################################

data_LATRAA
_symmetry_cell_setting           orthorhombic
_symmetry_space_group_name_H-M   'P n a 21'
_symmetry_Int_Tables_number      33
_space_group_name_Hall           'P 2c -2n'
loop_
_symmetry_equiv_pos_site_id
_symmetry_equiv_pos_as_xyz
1 x,y,z
2 -x,-y,1/2+z
3 1/2+x,1/2-y,z
4 1/2-x,1/2+y,1/2+z
_cell_length_a                   41.14(3)
_cell_length_b                   10.815(7)
_cell_length_c                   6.771(4)
_cell_angle_alpha                90
_cell_angle_beta                 90
_cell_angle_gamma                90
_cell_volume                     3012.61
loop_
_atom_site_label
_atom_site_type_symbol
_atom_site_fract_x
_atom_site_fract_y
_atom_site_fract_z
Sn1 Sn -0.010801(16) -0.21442(7) 0.35610(13)
Sn2 Sn 0.232411(17) -0.25397(7) 0.23005(14)
Sn3 Sn 0.114764(17) 0.50010(7) -0.19356(15)
O1 O 0.03227(16) -0.1186(8) 0.2571(12)
O2 O 0.06813(19) -0.2417(7) 0.4006(15)
O3 O 0.18447(17) -0.1725(7) 0.2287(17)
O4 O 0.2009(2) -0.0013(8) 0.0806(18)
O5 O 0.1192(2) 0.3255(8) -0.0422(17)
O6 O 0.0666(2) 0.2853(7) -0.0261(16)
O7 O 0.2872(2) -0.3675(11) 0.2437(17)
O8 O 0.1189(3) 0.6962(9) -0.3766(17)
C1 C 0.0881(2) -0.0652(10) 0.2320(18)
C2 C 0.1204(2) -0.1031(10) 0.2309(18)
H1 H 0.1259 -0.1811 0.2781
C3 C 0.1443(2) -0.0258(10) 0.1603(16)
C4 C 0.1363(2) 0.0918(9) 0.0941(16)
H2 H 0.1527 0.1451 0.0534
C5 C 0.1037(2) 0.1319(10) 0.0874(17)
C6 C 0.0797(2) 0.0519(9) 0.1584(15)
H3 H 0.0580 0.0764 0.1569
C7 C 0.0616(2) -0.1498(9) 0.3026(17)
C8 C 0.1793(2) -0.0660(10) 0.1602(17)
C9 C 0.0950(3) 0.2576(10) 0.0004(18)
C10 C -0.0063(3) -0.3863(13) 0.207(3)
H4 H -0.0115 -0.3753 0.0694
H5 H -0.0211 -0.4452 0.2638
H6 H 0.0155 -0.4161 0.2189
C11 C -0.0003(4) -0.2195(14) 0.661(3)
H7 H 0.0133 -0.2896 0.6885
H8 H -0.0202 -0.2262 0.7339
H9 H 0.0109 -0.1451 0.6978
C12 C -0.0399(3) -0.0813(14) 0.205(2)
H10 H -0.0405 -0.1009 0.0666
H11 H -0.0307 -0.0005 0.2224
H12 H -0.0616 -0.0826 0.2574
C13 C 0.2153(3) -0.4177(11) 0.380(2)
H13 H 0.2131 -0.4008 0.5181
H14 H 0.2306 -0.4836 0.3607
H15 H 0.1946 -0.4415 0.3263
C14 C 0.2396(4) -0.2535(12) -0.075(2)
H16 H 0.2275 -0.3200 -0.1332
H17 H 0.2623 -0.2642 -0.1025
H18 H 0.2324 -0.1762 -0.1284
C15 C 0.2554(3) -0.1203(12) 0.408(2)
H19 H 0.2493 -0.1328 0.5437
H20 H 0.2488 -0.0392 0.3669
H21 H 0.2786 -0.1280 0.3953
C16 C 0.1628(3) 0.5344(17) -0.128(4)
H22 H 0.1764 0.4890 -0.2171
H23 H 0.1672 0.5090 0.0053
H24 H 0.1671 0.6213 -0.1411
C17 C 0.1028(5) 0.4250(18) -0.473(2)
H25 H 0.0797 0.4143 -0.4820
H26 H 0.1133 0.3464 -0.4887
H27 H 0.1099 0.4802 -0.5751
C18 C 0.0782(4) 0.5855(14) -0.025(3)
H28 H 0.0573 0.5603 -0.0728
H29 H 0.0802 0.6736 -0.0356
H30 H 0.0805 0.5615 0.1110
C19 C 0.3150(4) -0.364(2) 0.126(3)
H31 H 0.3103 -0.3214 0.0054
H32 H 0.3219 -0.4468 0.0975
H33 H 0.3320 -0.3213 0.1956
C20 C 0.1307(6) 0.8070(17) -0.288(3)
H34 H 0.1406 0.7878 -0.1627
H35 H 0.1130 0.8635 -0.2676
H36 H 0.1466 0.8444 -0.3726
H37 H 0.287(2) -0.425(11) 0.341(16)
H38 H 0.103(3) 0.708(4) -0.468(19)
Sn1A Sn 0.010801(16) 0.21442(7) -0.14390(13)
O6A O -0.0666(2) -0.2853(7) 0.4739(16)
loop_
_geom_bond_atom_site_label_1
_geom_bond_atom_site_label_2
_geom_bond_site_symmetry_1
_geom_bond_site_symmetry_2
Sn1 O1 1_555 1_555
Sn2 O3 1_555 1_555
Sn3 O5 1_555 1_555
O1 C7 1_555 1_555
O2 C7 1_555 1_555
O3 C8 1_555 1_555
O4 C8 1_555 1_555
O5 C9 1_555 1_555
O6 C9 1_555 1_555
O7 Sn2 1_555 1_555
O8 Sn3 1_555 1_555
C1 C2 1_555 1_555
C2 H1 1_555 1_555
C3 C2 1_555 1_555
C4 C3 1_555 1_555
H2 C4 1_555 1_555
C5 C4 1_555 1_555
C6 C1 1_555 1_555
H3 C6 1_555 1_555
C7 C1 1_555 1_555
C8 C3 1_555 1_555
C9 C5 1_555 1_555
C10 Sn1 1_555 1_555
H4 C10 1_555 1_555
H5 C10 1_555 1_555
H6 C10 1_555 1_555
C11 Sn1 1_555 1_555
H7 C11 1_555 1_555
H8 C11 1_555 1_555
H9 C11 1_555 1_555
C12 Sn1 1_555 1_555
H10 C12 1_555 1_555
H11 C12 1_555 1_555
H12 C12 1_555 1_555
C13 Sn2 1_555 1_555
H13 C13 1_555 1_555
H14 C13 1_555 1_555
H15 C13 1_555 1_555
C14 Sn2 1_555 1_555
H16 C14 1_555 1_555
H17 C14 1_555 1_555
H18 C14 1_555 1_555
C15 Sn2 1_555 1_555
H19 C15 1_555 1_555
H20 C15 1_555 1_555
H21 C15 1_555 1_555
C16 Sn3 1_555 1_555
H22 C16 1_555 1_555
H23 C16 1_555 1_555
H24 C16 1_555 1_555
C17 Sn3 1_555 1_555
H25 C17 1_555 1_555
H26 C17 1_555 1_555
H27 C17 1_555 1_555
C18 Sn3 1_555 1_555
H28 C18 1_555 1_555
H29 C18 1_555 1_555
H30 C18 1_555 1_555
C19 O7 1_555 1_555
H31 C19 1_555 1_555
H32 C19 1_555 1_555
H33 C19 1_555 1_555
C20 O8 1_555 1_555
H34 C20 1_555 1_555
H35 C20 1_555 1_555
H36 C20 1_555 1_555
H37 O7 1_555 1_555
H38 O8 1_555 1_555
Sn1A O6 1_555 1_555
O6A Sn1 1_555 1_555
C5 C6 1_555 1_555

#END
