
#######################################################################
#
#                 Cambridge Crystallographic Data Centre
#                                CCDC 
#
#######################################################################
#
# If this CIF has been generated from an entry in the Cambridge 
# Structural Database, then it will include bibliographic, chemical, 
# crystal, experimental, refinement or atomic coordinate data resulting 
# from the CCDC's data processing and validation procedures.
#
#######################################################################

data_LATVUZ
_symmetry_cell_setting           monoclinic
_symmetry_space_group_name_H-M   'P 21/n'
_symmetry_Int_Tables_number      14
_space_group_name_Hall           '-P 2yn'
loop_
_symmetry_equiv_pos_site_id
_symmetry_equiv_pos_as_xyz
1 x,y,z
2 1/2-x,1/2+y,1/2-z
3 -x,-y,-z
4 1/2+x,1/2-y,1/2+z
_cell_length_a                   15.560(6)
_cell_length_b                   8.922(3)
_cell_length_c                   19.291(7)
_cell_angle_alpha                90
_cell_angle_beta                 100.280(4)
_cell_angle_gamma                90
_cell_volume                     2635.11
loop_
_atom_site_label
_atom_site_type_symbol
_atom_site_fract_x
_atom_site_fract_y
_atom_site_fract_z
Pr1 Pr 0.702614(9) 0.798479(16) 0.760472(8)
O1 O 0.78779(14) 0.5454(2) 0.79385(10)
O2 O 0.74434(16) 0.6613(3) 0.88224(12)
O3 O 0.86183(14) 0.8476(3) 0.79335(13)
O4 O 0.88774(14) 1.0885(2) 0.77433(13)
O5 O 0.69943(14) 0.9917(2) 0.84800(11)
O6 O 0.72931(15) 1.2364(3) 0.84162(12)
O7 O 0.55108(17) 0.8288(3) 0.79059(15)
N1 N 0.90240(16) 0.3782(3) 0.88008(12)
N2 N 1.03166(16) 1.0158(3) 0.72205(14)
N3 N 0.54504(16) 1.0728(3) 0.88890(12)
C1 C 0.78929(19) 0.5642(3) 0.85942(15)
C2 C 0.85034(19) 0.4664(3) 0.90908(14)
C3 C 0.8504(2) 0.4735(4) 0.98255(16)
H1 H 0.8118 0.5361 1.0004
C4 C 0.9081(2) 0.3866(4) 1.02613(17)
H2 H 0.9087 0.3877 1.0744
C5 C 0.9670(2) 0.2950(4) 0.99819(19)
C6 C 1.0330(3) 0.2073(4) 1.0406(2)
H3 H 1.0363 0.2057 1.0893
C7 C 1.0910(2) 0.1264(5) 1.0112(2)
H4 H 1.1334 0.0693 1.0396
C8 C 1.0871(2) 0.1290(5) 0.9379(2)
H5 H 1.1277 0.0742 0.9184
C9 C 1.0251(2) 0.2100(4) 0.8948(2)
H6 H 1.0233 0.2094 0.8464
C10 C 0.9634(2) 0.2952(3) 0.92409(18)
C11 C 0.90608(18) 0.9526(4) 0.77504(16)
C12 C 0.99243(19) 0.9103(3) 0.75291(15)
C13 C 1.0244(2) 0.7626(4) 0.76314(19)
H7 H 0.9930 0.6907 0.7831
C14 C 1.1013(3) 0.7265(4) 0.7436(2)
H8 H 1.1242 0.6305 0.7515
C15 C 1.1466(2) 0.8370(4) 0.71081(19)
C16 C 1.2267(3) 0.8090(5) 0.6867(2)
H9 H 1.2537 0.7161 0.6948
C17 C 1.2638(3) 0.9172(6) 0.6519(2)
H10 H 1.3158 0.8975 0.6361
C18 C 1.2244(3) 1.0567(6) 0.6398(2)
H11 H 1.2499 1.1293 0.6154
C19 C 1.1484(2) 1.0888(5) 0.6634(2)
H12 H 1.1231 1.1831 0.6554
C20 C 1.1086(2) 0.9794(4) 0.69994(17)
C21 C 0.68650(19) 1.1275(3) 0.85865(14)
C22 C 0.6122(2) 1.1657(3) 0.89721(15)
C23 C 0.6179(2) 1.2961(3) 0.93975(19)
H13 H 0.6650 1.3612 0.9421
C24 C 0.5531(2) 1.3244(4) 0.97708(18)
H14 H 0.5576 1.4060 1.0075
C25 C 0.4790(2) 1.2295(4) 0.96948(17)
C26 C 0.4073(2) 1.2519(4) 1.00573(19)
H15 H 0.4080 1.3324 1.0365
C27 C 0.3381(2) 1.1561(5) 0.9954(2)
H16 H 0.2920 1.1710 1.0194
C28 C 0.3361(2) 1.0348(4) 0.94875(19)
H17 H 0.2882 0.9707 0.9417
C29 C 0.4038(2) 1.0099(4) 0.91356(18)
H18 H 0.4013 0.9290 0.8829
C30 C 0.4771(2) 1.1050(4) 0.92319(15)
H19 H 0.544(4) 0.897(4) 0.820(2)
H20 H 0.528(3) 0.741(3) 0.792(2)
Pr1A Pr 0.797386(9) 0.298479(16) 0.739528(8)
Pr1A_2 Pr 0.797386(9) 1.298479(16) 0.739528(8)
O1A O 0.71221(14) 1.0454(2) 0.70615(10)
O4A O 0.61226(14) 0.5885(2) 0.72567(13)
O6A O 0.77069(15) 0.7364(3) 0.65838(12)
N1A N 0.59760(16) 0.8782(3) 0.61992(12)
loop_
_geom_bond_atom_site_label_1
_geom_bond_atom_site_label_2
_geom_bond_site_symmetry_1
_geom_bond_site_symmetry_2
Pr1 O1 1_555 1_555
O1 C1 1_555 1_555
O2 Pr1 1_555 1_555
O3 Pr1 1_555 1_555
O4 C11 1_555 1_555
O5 Pr1 1_555 1_555
O6 C21 1_555 1_555
O7 Pr1 1_555 1_555
N1 C2 1_555 1_555
N2 C12 1_555 1_555
N3 C22 1_555 1_555
C1 O2 1_555 1_555
C2 C1 1_555 1_555
C3 C2 1_555 1_555
H1 C3 1_555 1_555
C4 C3 1_555 1_555
H2 C4 1_555 1_555
C5 C4 1_555 1_555
C6 C5 1_555 1_555
H3 C6 1_555 1_555
C7 C6 1_555 1_555
H4 C7 1_555 1_555
C8 C7 1_555 1_555
H5 C8 1_555 1_555
C9 C8 1_555 1_555
H6 C9 1_555 1_555
C10 N1 1_555 1_555
C11 O3 1_555 1_555
C12 C11 1_555 1_555
C13 C12 1_555 1_555
H7 C13 1_555 1_555
C14 C13 1_555 1_555
H8 C14 1_555 1_555
C15 C14 1_555 1_555
C16 C15 1_555 1_555
H9 C16 1_555 1_555
C17 C16 1_555 1_555
H10 C17 1_555 1_555
C18 C17 1_555 1_555
H11 C18 1_555 1_555
C19 C18 1_555 1_555
H12 C19 1_555 1_555
C20 N2 1_555 1_555
C21 O5 1_555 1_555
C22 C21 1_555 1_555
C23 C22 1_555 1_555
H13 C23 1_555 1_555
C24 C23 1_555 1_555
H14 C24 1_555 1_555
C25 C24 1_555 1_555
C26 C25 1_555 1_555
H15 C26 1_555 1_555
C27 C26 1_555 1_555
H16 C27 1_555 1_555
C28 C27 1_555 1_555
H17 C28 1_555 1_555
C29 C28 1_555 1_555
H18 C29 1_555 1_555
C30 N3 1_555 1_555
H19 O7 1_555 1_555
H20 O7 1_555 1_555
Pr1A O1 1_555 1_555
Pr1A_2 O4 1_555 1_555
O1A Pr1 1_555 1_555
O4A Pr1 1_555 1_555
O6A Pr1 1_555 1_555
N1A Pr1 1_555 1_555
O6 Pr1A_2 1_555 1_555
N1 Pr1A 1_555 1_555
C5 C10 1_555 1_555
C9 C10 1_555 1_555
C15 C20 1_555 1_555
C19 C20 1_555 1_555
C25 C30 1_555 1_555
C29 C30 1_555 1_555
Pr1A_2 O1A 1_555 1_555

#END
