
#######################################################################
#
#                 Cambridge Crystallographic Data Centre
#                                CCDC 
#
#######################################################################
#
# If this CIF has been generated from an entry in the Cambridge 
# Structural Database, then it will include bibliographic, chemical, 
# crystal, experimental, refinement or atomic coordinate data resulting 
# from the CCDC's data processing and validation procedures.
#
#######################################################################

data_LATXOU
_symmetry_cell_setting           orthorhombic
_symmetry_space_group_name_H-M   'I m a 2'
_symmetry_Int_Tables_number      46
_space_group_name_Hall           'I 2 -2a'
loop_
_symmetry_equiv_pos_site_id
_symmetry_equiv_pos_as_xyz
1 x,y,z
2 -x,-y,z
3 1/2+x,-y,z
4 1/2-x,y,z
5 1/2+x,1/2+y,1/2+z
6 1/2-x,1/2-y,1/2+z
7 x,1/2-y,1/2+z
8 -x,1/2+y,1/2+z
_cell_length_a                   23.084(3)
_cell_length_b                   9.3783(11)
_cell_length_c                   20.097(3)
_cell_angle_alpha                90
_cell_angle_beta                 90
_cell_angle_gamma                90
_cell_volume                     4350.77
loop_
_atom_site_label
_atom_site_type_symbol
_atom_site_fract_x
_atom_site_fract_y
_atom_site_fract_z
Br1 Br 1.0000 1.0000 0.99993(4)
Br2 Br 0.7500 0.96388(8) 0.99802(4)
Ni1 Ni 0.87579(2) 0.98003(5) 1.00217(3)
N1 N 0.87852(14) 0.8069(4) 1.06268(19)
H1 H 0.8411 0.7833 1.0718
N2 N 0.86792(15) 1.1266(4) 1.0765(2)
H2 H 0.8292 1.1366 1.0835
N3 N 0.88043(17) 1.1467(4) 0.9401(2)
H3 H 0.9187 1.1586 0.9308
N4 N 0.88635(16) 0.8423(4) 0.92758(19)
H4 H 0.9248 0.8432 0.9176
C1 C 0.90792(17) 0.8280(4) 1.1281(2)
H5 H 0.9473 0.8613 1.1184
C2 C 0.9140(2) 0.6911(5) 1.1680(3)
H6 H 0.8769 0.6456 1.1717
H7 H 0.9284 0.7130 1.2117
H8 H 0.9406 0.6283 1.1459
C3 C 0.87850(16) 0.9450(5) 1.1676(2)
H9 H 0.8939 0.9386 1.2130
C4 C 0.8933(2) 1.0965(5) 1.1424(2)
H10 H 0.9353 1.0975 1.1359
C5 C 0.8808(3) 1.2140(6) 1.1919(3)
H11 H 0.8931 1.3037 1.1738
H12 H 0.9014 1.1955 1.2325
H13 H 0.8400 1.2173 1.2008
C6 C 0.8872(2) 1.2619(5) 1.0474(3)
H14 H 0.9292 1.2650 1.0458
H15 H 0.8738 1.3410 1.0745
C7 C 0.8627(2) 1.2741(5) 0.9780(3)
H16 H 0.8208 1.2801 0.9798
H17 H 0.8774 1.3594 0.9565
C8 C 0.8508(3) 1.1373(6) 0.8754(3)
H18 H 0.8580 1.2240 0.8504
H19 H 0.8093 1.1302 0.8828
C9 C 0.8707(3) 1.0099(6) 0.8347(3)
H20 H 0.8539 1.0166 0.7906
H21 H 0.9125 1.0148 0.8297
C10 C 0.8552(3) 0.8686(6) 0.8639(3)
H22 H 0.8138 0.8652 0.8718
H23 H 0.8648 0.7938 0.8324
C11 C 0.8738(2) 0.6992(5) 0.9538(3)
H24 H 0.8892 0.6267 0.9242
H25 H 0.8324 0.6853 0.9580
C12 C 0.9025(2) 0.6893(4) 1.0213(2)
H26 H 0.8943 0.5978 1.0417
H27 H 0.9442 0.6995 1.0170
C13 C 0.81264(16) 0.9184(6) 1.1731(2)
H28 H 0.7943 0.9684 1.1365
H29 H 0.8062 0.8174 1.1659
C14 C 0.78034(15) 0.9596(4) 1.2367(2)
C15 C 0.80911(18) 0.9857(6) 1.2951(2)
H30 H 0.8494 0.9866 1.2957
C16 C 0.77805(19) 1.0109(5) 1.3540(2)
H31 H 0.7980 1.0278 1.3935
Br1B Br 0.5000 1.0000 0.99993(4)
Ni1A Ni 1.12421(2) 1.01997(5) 1.00217(3)
Ni1C Ni 0.62421(2) 0.98003(5) 1.00217(3)
N1C N 0.62148(14) 0.8069(4) 1.06268(19)
H1C H 0.6589 0.7833 1.0718
N2C N 0.63208(15) 1.1266(4) 1.0765(2)
H2C H 0.6708 1.1366 1.0835
N3C N 0.61957(17) 1.1467(4) 0.9401(2)
H3C H 0.5813 1.1586 0.9308
N4C N 0.61365(16) 0.8423(4) 0.92758(19)
H4C H 0.5752 0.8432 0.9176
C1C C 0.59208(17) 0.8280(4) 1.1281(2)
H5C H 0.5527 0.8613 1.1184
C2C C 0.5860(2) 0.6911(5) 1.1680(3)
H6C H 0.6231 0.6456 1.1717
H7C H 0.5716 0.7130 1.2117
H8C H 0.5594 0.6283 1.1459
C3C C 0.62150(16) 0.9450(5) 1.1676(2)
H9C H 0.6061 0.9386 1.2130
C4C C 0.6067(2) 1.0965(5) 1.1424(2)
H10C H 0.5647 1.0975 1.1359
C5C C 0.6192(3) 1.2140(6) 1.1919(3)
H11C H 0.6069 1.3037 1.1738
H12C H 0.5986 1.1955 1.2325
H13C H 0.6600 1.2173 1.2008
C6C C 0.6128(2) 1.2619(5) 1.0474(3)
H14C H 0.5708 1.2650 1.0458
H15C H 0.6262 1.3410 1.0745
C7C C 0.6373(2) 1.2741(5) 0.9780(3)
H16C H 0.6792 1.2801 0.9798
H17C H 0.6226 1.3594 0.9565
C8C C 0.6492(3) 1.1373(6) 0.8754(3)
H18C H 0.6420 1.2240 0.8504
H19C H 0.6907 1.1302 0.8828
C9C C 0.6293(3) 1.0099(6) 0.8347(3)
H20C H 0.6461 1.0166 0.7906
H21C H 0.5875 1.0148 0.8297
C10C C 0.6448(3) 0.8686(6) 0.8639(3)
H22C H 0.6862 0.8652 0.8718
H23C H 0.6352 0.7938 0.8324
C11C C 0.6262(2) 0.6992(5) 0.9538(3)
H24C H 0.6108 0.6267 0.9242
H25C H 0.6676 0.6853 0.9580
C12C C 0.5975(2) 0.6893(4) 1.0213(2)
H26C H 0.6057 0.5978 1.0417
H27C H 0.5558 0.6995 1.0170
C13C C 0.68736(16) 0.9184(6) 1.1731(2)
H28C H 0.7057 0.9684 1.1365
H29C H 0.6938 0.8174 1.1659
C14C C 0.71966(15) 0.9596(4) 1.2367(2)
C15C C 0.69089(18) 0.9857(6) 1.2951(2)
H30C H 0.6506 0.9866 1.2957
C16C C 0.72195(19) 1.0109(5) 1.3540(2)
H31C H 0.7020 1.0278 1.3935
loop_
_geom_bond_atom_site_label_1
_geom_bond_atom_site_label_2
_geom_bond_site_symmetry_1
_geom_bond_site_symmetry_2
Br1 Ni1 1_555 1_555
Br2 Ni1 1_555 1_555
Ni1 N1 1_555 1_555
N1 H1 1_555 1_555
N2 Ni1 1_555 1_555
H2 N2 1_555 1_555
N3 Ni1 1_555 1_555
H3 N3 1_555 1_555
N4 Ni1 1_555 1_555
H4 N4 1_555 1_555
C1 N1 1_555 1_555
H5 C1 1_555 1_555
C2 C1 1_555 1_555
H6 C2 1_555 1_555
H7 C2 1_555 1_555
H8 C2 1_555 1_555
C3 C1 1_555 1_555
H9 C3 1_555 1_555
C4 N2 1_555 1_555
H10 C4 1_555 1_555
C5 C4 1_555 1_555
H11 C5 1_555 1_555
H12 C5 1_555 1_555
H13 C5 1_555 1_555
C6 N2 1_555 1_555
H14 C6 1_555 1_555
H15 C6 1_555 1_555
C7 N3 1_555 1_555
H16 C7 1_555 1_555
H17 C7 1_555 1_555
C8 N3 1_555 1_555
H18 C8 1_555 1_555
H19 C8 1_555 1_555
C9 C8 1_555 1_555
H20 C9 1_555 1_555
H21 C9 1_555 1_555
C10 N4 1_555 1_555
H22 C10 1_555 1_555
H23 C10 1_555 1_555
C11 N4 1_555 1_555
H24 C11 1_555 1_555
H25 C11 1_555 1_555
C12 N1 1_555 1_555
H26 C12 1_555 1_555
H27 C12 1_555 1_555
C13 C3 1_555 1_555
H28 C13 1_555 1_555
H29 C13 1_555 1_555
C14 C13 1_555 1_555
C15 C14 1_555 1_555
H30 C15 1_555 1_555
C16 C15 1_555 1_555
H31 C16 1_555 1_555
Br1B Ni1C 1_555 1_555
Ni1A Br1 1_555 1_555
Ni1C Br2 1_555 1_555
N1C Ni1C 1_555 1_555
H1C N1C 1_555 1_555
N2C Ni1C 1_555 1_555
H2C N2C 1_555 1_555
N3C Ni1C 1_555 1_555
H3C N3C 1_555 1_555
N4C Ni1C 1_555 1_555
H4C N4C 1_555 1_555
C1C N1C 1_555 1_555
H5C C1C 1_555 1_555
C2C C1C 1_555 1_555
H6C C2C 1_555 1_555
H7C C2C 1_555 1_555
H8C C2C 1_555 1_555
C3C C1C 1_555 1_555
H9C C3C 1_555 1_555
C4C N2C 1_555 1_555
H10C C4C 1_555 1_555
C5C C4C 1_555 1_555
H11C C5C 1_555 1_555
H12C C5C 1_555 1_555
H13C C5C 1_555 1_555
C6C N2C 1_555 1_555
H14C C6C 1_555 1_555
H15C C6C 1_555 1_555
C7C N3C 1_555 1_555
H16C C7C 1_555 1_555
H17C C7C 1_555 1_555
C8C N3C 1_555 1_555
H18C C8C 1_555 1_555
H19C C8C 1_555 1_555
C9C C8C 1_555 1_555
H20C C9C 1_555 1_555
H21C C9C 1_555 1_555
C10C N4C 1_555 1_555
H22C C10C 1_555 1_555
H23C C10C 1_555 1_555
C11C N4C 1_555 1_555
H24C C11C 1_555 1_555
H25C C11C 1_555 1_555
C12C N1C 1_555 1_555
H26C C12C 1_555 1_555
H27C C12C 1_555 1_555
C13C C3C 1_555 1_555
H28C C13C 1_555 1_555
H29C C13C 1_555 1_555
C14C C14 1_555 1_555
C15C C14C 1_555 1_555
H30C C15C 1_555 1_555
C16C C16 1_555 1_555
H31C C16C 1_555 1_555
C3 C4 1_555 1_555
C6 C7 1_555 1_555
C9 C10 1_555 1_555
C11 C12 1_555 1_555
C3C C4C 1_555 1_555
C6C C7C 1_555 1_555
C9C C10C 1_555 1_555
C11C C12C 1_555 1_555
C13C C14C 1_555 1_555
C15C C16C 1_555 1_555

#END
