
#######################################################################
#
#                 Cambridge Crystallographic Data Centre
#                                CCDC 
#
#######################################################################
#
# If this CIF has been generated from an entry in the Cambridge 
# Structural Database, then it will include bibliographic, chemical, 
# crystal, experimental, refinement or atomic coordinate data resulting 
# from the CCDC's data processing and validation procedures.
#
#######################################################################

data_LAVJEY
_symmetry_cell_setting           monoclinic
_symmetry_space_group_name_H-M   'C 2/c'
_symmetry_Int_Tables_number      15
_space_group_name_Hall           '-C 2yn'
loop_
_symmetry_equiv_pos_site_id
_symmetry_equiv_pos_as_xyz
1 x,y,z
2 1/2+x,1/2+y,z
3 -x,y,1/2-z
4 1/2-x,1/2+y,1/2-z
5 -x,-y,-z
6 1/2-x,1/2-y,-z
7 x,-y,1/2+z
8 1/2+x,1/2-y,1/2+z
_cell_length_a                   12.820(5)
_cell_length_b                   9.807(4)
_cell_length_c                   29.454(11)
_cell_angle_alpha                90
_cell_angle_beta                 90.503(4)
_cell_angle_gamma                90
_cell_volume                     3702.98
loop_
_atom_site_label
_atom_site_type_symbol
_atom_site_fract_x
_atom_site_fract_y
_atom_site_fract_z
Sn1 Sn 0.20636(3) 0.25991(4) 0.735743(15)
Sn2 Sn -0.17035(4) 0.93587(6) 0.555004(18)
O1 O 0.1372(4) 0.3981(5) 0.68798(16)
O2 O 0.2174(4) 0.5835(5) 0.71224(18)
S1 S -0.02318(17) 0.8160(3) 0.52051(6)
C1 C 0.1577(5) 0.5254(7) 0.6856(2)
C2 C 0.1083(5) 0.5996(6) 0.6464(2)
C3 C 0.1245(7) 0.7380(7) 0.6397(3)
H1 H 0.1627 0.7877 0.6610
C4 C 0.0845(6) 0.8027(8) 0.6018(3)
H2 H 0.0988 0.8946 0.5972
C5 C 0.0235(6) 0.7328(8) 0.5708(2)
C6 C 0.0054(6) 0.5961(8) 0.5776(2)
H3 H -0.0349 0.5479 0.5567
C7 C 0.0467(5) 0.5291(7) 0.6152(2)
H4 H 0.0330 0.4369 0.6195
C8 C 0.3636(6) 0.2868(9) 0.7158(3)
H5 H 0.3936 0.3619 0.7323
H6 H 0.3660 0.3055 0.6839
H7 H 0.4024 0.2053 0.7223
C9 C 0.1360(5) 0.3495(8) 0.7939(2)
H8 H 0.1802 0.4207 0.8055
H9 H 0.1268 0.2811 0.8168
H10 H 0.0694 0.3870 0.7855
C10 C 0.1248(7) 0.0994(8) 0.7036(3)
H11 H 0.0548 0.0958 0.7149
H12 H 0.1594 0.0146 0.7099
H13 H 0.1229 0.1148 0.6714
C11 C -0.2557(9) 0.7757(11) 0.5870(4)
H14 H -0.2815 0.7136 0.5644
H15 H -0.3133 0.8138 0.6034
H16 H -0.2107 0.7277 0.6078
C12 C -0.2568(7) 1.0286(11) 0.5009(3)
H17 H -0.2835 0.9591 0.4810
H18 H -0.2120 1.0885 0.4842
H19 H -0.3138 1.0799 0.5132
C13 C -0.1094(8) 1.0822(12) 0.6014(3)
H20 H -0.0714 1.0364 0.6251
H21 H -0.1657 1.1332 0.6144
H22 H -0.0635 1.1432 0.5857
Sn1C Sn 0.29364(3) 0.75991(4) 0.764257(15)
O2C O 0.2826(4) 0.0835(5) 0.78776(18)
loop_
_geom_bond_atom_site_label_1
_geom_bond_atom_site_label_2
_geom_bond_site_symmetry_1
_geom_bond_site_symmetry_2
Sn1 O1 1_555 1_555
Sn2 S1 1_555 1_555
O1 C1 1_555 1_555
O2 C1 1_555 1_555
S1 C5 1_555 1_555
C1 C2 1_555 1_555
C2 C3 1_555 1_555
C3 H1 1_555 1_555
C4 C3 1_555 1_555
H2 C4 1_555 1_555
C5 C4 1_555 1_555
C6 C5 1_555 1_555
H3 C6 1_555 1_555
C7 C2 1_555 1_555
H4 C7 1_555 1_555
C8 Sn1 1_555 1_555
H5 C8 1_555 1_555
H6 C8 1_555 1_555
H7 C8 1_555 1_555
C9 Sn1 1_555 1_555
H8 C9 1_555 1_555
H9 C9 1_555 1_555
H10 C9 1_555 1_555
C10 Sn1 1_555 1_555
H11 C10 1_555 1_555
H12 C10 1_555 1_555
H13 C10 1_555 1_555
C11 Sn2 1_555 1_555
H14 C11 1_555 1_555
H15 C11 1_555 1_555
H16 C11 1_555 1_555
C12 Sn2 1_555 1_555
H17 C12 1_555 1_555
H18 C12 1_555 1_555
H19 C12 1_555 1_555
C13 Sn2 1_555 1_555
H20 C13 1_555 1_555
H21 C13 1_555 1_555
H22 C13 1_555 1_555
Sn1C O2 1_555 1_555
O2C Sn1 1_555 1_555
C6 C7 1_555 1_555

#END
