
#######################################################################
#
#                 Cambridge Crystallographic Data Centre
#                                CCDC 
#
#######################################################################
#
# If this CIF has been generated from an entry in the Cambridge 
# Structural Database, then it will include bibliographic, chemical, 
# crystal, experimental, refinement or atomic coordinate data resulting 
# from the CCDC's data processing and validation procedures.
#
#######################################################################

data_LAVSOS
_symmetry_cell_setting           monoclinic
_symmetry_space_group_name_H-M   'C 2/c'
_symmetry_Int_Tables_number      15
_space_group_name_Hall           '-C 2yn'
loop_
_symmetry_equiv_pos_site_id
_symmetry_equiv_pos_as_xyz
1 x,y,z
2 -x,y,1/2-z
3 1/2+x,1/2+y,z
4 1/2-x,1/2+y,1/2-z
5 -x,-y,-z
6 x,-y,1/2+z
7 1/2-x,1/2-y,-z
8 1/2+x,1/2-y,1/2+z
_cell_length_a                   17.0833(3)
_cell_length_b                   11.1127(2)
_cell_length_c                   12.1044(2)
_cell_angle_alpha                90
_cell_angle_beta                 104.8570(10)
_cell_angle_gamma                90
_cell_volume                     2221.1
loop_
_atom_site_label
_atom_site_type_symbol
_atom_site_fract_x
_atom_site_fract_y
_atom_site_fract_z
Cu1 Cu 0.0000 0.374348(18) 0.2500
N1 N 0.0000 0.19319(14) 0.2500
N2 N 0.0000 -0.44374(14) 0.2500
C1 C 0.04111(10) 0.13085(12) 0.18875(14)
H1 H 0.0697 0.1731 0.1454
C2 C 0.04307(10) 0.00672(13) 0.18698(14)
H2 H 0.0730 -0.0330 0.1439
C3 C 0.0000 -0.05867(16) 0.2500
C4 C 0.0000 -0.19196(16) 0.2500
C5 C -0.01568(10) -0.25718(13) 0.33995(13)
H3 H -0.0264 -0.2173 0.4020
C6 C -0.01525(10) -0.38144(12) 0.33684(13)
H4 H -0.0260 -0.4236 0.3977
O5 O 0.13333(7) 0.38602(9) 0.20637(10)
O6 O -0.06063(6) 0.37146(8) 0.08751(9)
H5 H 0.1441 0.4010 0.1398
H6 H -0.0981 0.4272 0.0608
H7 H -0.0882 0.3042 0.0639
H8 H 0.1568 0.4467 0.2515
Cu1_2 Cu 0.0000 -0.625652(18) 0.2500
N2_2 N 0.0000 0.55626(14) 0.2500
C1A C -0.04111(10) 0.13085(12) 0.31125(14)
H1A H -0.0697 0.1731 0.3546
C2A C -0.04307(10) 0.00672(13) 0.31302(14)
H2A H -0.0730 -0.0330 0.3561
C5A C 0.01568(10) -0.25718(13) 0.16005(13)
H3A H 0.0264 -0.2173 0.0980
C6A C 0.01525(10) -0.38144(12) 0.16316(13)
H4A H 0.0260 -0.4236 0.1023
O5A O -0.13333(7) 0.38602(9) 0.29363(10)
O6A O 0.06063(6) 0.37146(8) 0.41249(9)
H5A H -0.1441 0.4010 0.3602
H6A H 0.0981 0.4272 0.4392
H7A H 0.0882 0.3042 0.4361
H8A H -0.1568 0.4467 0.2485
C7 C 0.29277(11) 0.08956(15) 0.05915(14)
F1 F 0.20714(7) 0.16030(10) -0.11870(9)
F2 F 0.16486(6) 0.18941(10) 0.03396(10)
O1 O 0.29081(10) 0.06836(13) 0.15794(11)
O2 O 0.33787(8) 0.04583(11) 0.00375(10)
C8 C 0.23239(9) 0.18666(15) -0.00548(13)
C7F C 0.20723(11) 0.41044(15) -0.05915(14)
F1F F 0.29286(7) 0.33970(10) 0.11870(9)
F2F F 0.33514(6) 0.31059(10) -0.03396(10)
O1F O 0.20919(10) 0.43164(13) -0.15794(11)
O2F O 0.16213(8) 0.45417(11) -0.00375(10)
C8F C 0.26761(9) 0.31334(15) 0.00548(13)
O3 O 0.14891(9) 0.17534(14) 0.49402(13)
H10 H 0.1790 0.1641 0.4444
H11 H 0.1887 0.2005 0.5529
O4 O 0.23898(9) 0.20754(14) 0.32588(11)
H9 H 0.2059 0.2617 0.2832
H12 H 0.2618 0.1606 0.2729
loop_
_geom_bond_atom_site_label_1
_geom_bond_atom_site_label_2
_geom_bond_site_symmetry_1
_geom_bond_site_symmetry_2
Cu1 N1 1_555 1_555
N1 C1 1_555 1_555
N2 C6 1_555 1_555
C1 H1 1_555 1_555
C2 C1 1_555 1_555
H2 C2 1_555 1_555
C3 C2 1_555 1_555
C4 C3 1_555 1_555
C5 C4 1_555 1_555
H3 C5 1_555 1_555
C6 C5 1_555 1_555
H4 C6 1_555 1_555
C7 O1 1_555 1_555
F1 C8 1_555 1_555
F2 C8 1_555 1_555
O2 C7 1_555 1_555
C8 C7 1_555 1_555
O3 H10 1_555 1_555
O4 H9 1_555 1_555
O5 Cu1 1_555 1_555
O6 Cu1 1_555 1_555
H5 O5 1_555 1_555
H6 O6 1_555 1_555
H7 O6 1_555 1_555
H8 O5 1_555 1_555
H11 O3 1_555 1_555
H12 O4 1_555 1_555
Cu1_2 N2 1_555 1_555
N2_2 Cu1 1_555 1_555
C1A N1 1_555 1_555
H1A C1A 1_555 1_555
C2A C3 1_555 1_555
H2A C2A 1_555 1_555
C5A C4 1_555 1_555
H3A C5A 1_555 1_555
C6A N2 1_555 1_555
H4A C6A 1_555 1_555
C7F O1F 1_555 1_555
F1F C8F 1_555 1_555
F2F C8F 1_555 1_555
O2F C7F 1_555 1_555
C8F C8 1_555 1_555
O5A Cu1 1_555 1_555
O6A Cu1 1_555 1_555
H5A O5A 1_555 1_555
H6A O6A 1_555 1_555
H7A O6A 1_555 1_555
H8A O5A 1_555 1_555
C1A C2A 1_555 1_555
C5A C6A 1_555 1_555
C7F C8F 1_555 1_555

#END
