
#######################################################################
#
#                 Cambridge Crystallographic Data Centre
#                                CCDC 
#
#######################################################################
#
# If this CIF has been generated from an entry in the Cambridge 
# Structural Database, then it will include bibliographic, chemical, 
# crystal, experimental, refinement or atomic coordinate data resulting 
# from the CCDC's data processing and validation procedures.
#
#######################################################################

data_LAVYOX
_symmetry_cell_setting           orthorhombic
_symmetry_space_group_name_H-M   'P n a b'
_symmetry_Int_Tables_number      60
_space_group_name_Hall           '-P 2bc 2n'
loop_
_symmetry_equiv_pos_site_id
_symmetry_equiv_pos_as_xyz
1 x,y,z
2 1/2+x,1/2-y,1/2-z
3 1/2-x,y,-z
4 -x,1/2-y,1/2+z
5 -x,-y,-z
6 1/2-x,1/2+y,1/2+z
7 1/2+x,-y,z
8 x,1/2+y,1/2-z
_cell_length_a                   13.6671(8)
_cell_length_b                   7.0632(4)
_cell_length_c                   23.5991(17)
_cell_angle_alpha                90
_cell_angle_beta                 90
_cell_angle_gamma                90
_cell_volume                     2278.1
loop_
_atom_site_label
_atom_site_type_symbol
_atom_site_fract_x
_atom_site_fract_y
_atom_site_fract_z
Cs1 Cs 0.039034(13) 0.16344(2) 0.162529(7)
O1 O 0.27214(15) 0.0371(3) 0.13963(9)
O2 O 0.40390(15) 0.0331(3) -0.03639(8)
O3 O 0.45309(15) 0.5577(3) 0.06914(8)
O4 O 0.42089(15) 0.4654(3) 0.23028(8)
O5 O 0.13690(15) 0.8022(3) 0.23249(8)
O6 O 0.19927(14) 0.4358(3) 0.07812(8)
O7 O 0.46294(14) 0.2385(3) 0.14908(8)
H1 H 0.454(2) 0.306(5) 0.1827(15)
N1 N 0.34024(18) 0.0346(3) 0.05267(10)
H3 H 0.320(2) -0.060(5) 0.0459(14)
N2 N 0.42811(18) 0.2934(3) 0.01760(10)
H4 H 0.456(2) 0.336(5) -0.0055(14)
N3 N 0.27789(18) 0.6291(4) 0.22977(11)
H5 H 0.290(2) 0.664(5) 0.2590(15)
N4 N 0.16987(18) 0.6193(3) 0.15560(10)
H6 H 0.121(2) 0.658(4) 0.1398(14)
C1 C 0.3226(2) 0.1149(4) 0.10423(11)
C2 C 0.3914(2) 0.1144(4) 0.00827(11)
C3 C 0.42043(19) 0.3970(4) 0.06569(11)
C4 C 0.37791(19) 0.2995(4) 0.11806(11)
C5 C 0.31484(19) 0.4330(4) 0.15152(11)
C6 C 0.34233(19) 0.5046(4) 0.20429(11)
C7 C 0.1912(2) 0.6910(4) 0.20785(12)
C8 C 0.22785(19) 0.4917(4) 0.12570(11)
Cs1B Cs 0.460966(13) 0.16344(2) -0.162529(7)
Cs1F Cs 0.539034(13) 0.83656(2) 0.162529(7)
Cs1A Cs 0.539034(13) 0.33656(2) 0.337471(7)
Cs1_2 Cs 0.039034(13) 1.16344(2) 0.162529(7)
Cs1G Cs 0.039034(13) 0.66344(2) 0.337471(7)
Cs1F_2 Cs 0.539034(13) -0.16344(2) 0.162529(7)
Cs1D Cs -0.039034(13) 0.83656(2) -0.162529(7)
Cs1C Cs -0.039034(13) 0.33656(2) -0.337471(7)
Cs1E Cs 0.460966(13) 0.66344(2) -0.337471(7)
Cs1B_2 Cs 0.460966(13) 1.16344(2) -0.162529(7)
Cs1D_2 Cs -0.039034(13) -0.16344(2) -0.162529(7)
O1B O 0.22786(15) 0.0371(3) -0.13963(9)
O2B O 0.09610(15) 0.0331(3) 0.03639(8)
O3B O 0.04691(15) 0.5577(3) -0.06914(8)
O3F O -0.04691(15) 0.4423(3) 0.06914(8)
O3D O 0.54691(15) 0.4423(3) -0.06914(8)
O4B O 0.07911(15) 0.4654(3) -0.23028(8)
O4F O -0.07911(15) 0.5346(3) 0.23028(8)
O4A O -0.07911(15) 0.0346(3) 0.26972(8)
O4D O 0.57911(15) 0.5346(3) -0.23028(8)
O4C O 0.57911(15) 0.0346(3) -0.26972(8)
O5B O 0.36310(15) 0.8022(3) -0.23249(8)
O5_2 O 0.13690(15) -0.1978(3) 0.23249(8)
O5G O 0.13690(15) 0.3022(3) 0.26751(8)
O5E O 0.36310(15) 0.3022(3) -0.26751(8)
O5B_2 O 0.36310(15) -0.1978(3) -0.23249(8)
O6B O 0.30073(14) 0.4358(3) -0.07812(8)
O7B O 0.03706(14) 0.2385(3) -0.14908(8)
O7F O -0.03706(14) -0.2385(3) 0.14908(8)
O7D O 0.53706(14) -0.2385(3) -0.14908(8)
H1B H 0.046(2) 0.306(5) -0.1827(15)
H1F H -0.046(2) -0.306(5) 0.1827(15)
H1D H 0.546(2) -0.306(5) -0.1827(15)
N1B N 0.15976(18) 0.0346(3) -0.05267(10)
H3B H 0.180(2) -0.060(5) -0.0459(14)
N2B N 0.07189(18) 0.2934(3) -0.01760(10)
H4B H 0.044(2) 0.336(5) 0.0055(14)
N3B N 0.22211(18) 0.6291(4) -0.22977(11)
H5B H 0.210(2) 0.664(5) -0.2590(15)
N4B N 0.33013(18) 0.6193(3) -0.15560(10)
H6B H 0.379(2) 0.658(4) -0.1398(14)
C1B C 0.1774(2) 0.1149(4) -0.10423(11)
C2B C 0.1086(2) 0.1144(4) -0.00827(11)
C3B C 0.07957(19) 0.3970(4) -0.06569(11)
C4B C 0.12209(19) 0.2995(4) -0.11806(11)
C5B C 0.18516(19) 0.4330(4) -0.15152(11)
C6B C 0.15767(19) 0.5046(4) -0.20429(11)
C7B C 0.3088(2) 0.6910(4) -0.20785(12)
C8B C 0.27215(19) 0.4917(4) -0.12570(11)
O8 O 0.2500 0.7135(4) 0.0000
H2 H 0.226(3) 0.647(5) 0.0188(15)
H2B H 0.274(3) 0.647(5) -0.0188(15)
loop_
_geom_bond_atom_site_label_1
_geom_bond_atom_site_label_2
_geom_bond_site_symmetry_1
_geom_bond_site_symmetry_2
Cs1 O1 1_555 1_555
O1 C1 1_555 1_555
O2 C2 1_555 1_555
O3 C3 1_555 1_555
O4 C6 1_555 1_555
O5 C7 1_555 1_555
O6 Cs1 1_555 1_555
O7 H1 1_555 1_555
O8 H2 1_555 1_555
N1 H3 1_555 1_555
N2 H4 1_555 1_555
N3 H5 1_555 1_555
N4 H6 1_555 1_555
C1 N1 1_555 1_555
C2 N1 1_555 1_555
C3 N2 1_555 1_555
C4 O7 1_555 1_555
C5 C4 1_555 1_555
C6 N3 1_555 1_555
C7 N3 1_555 1_555
C8 O6 1_555 1_555
Cs1B O2 1_555 1_555
Cs1F O3 1_555 1_555
Cs1A O4 1_555 1_555
Cs1_2 O5 1_555 1_555
Cs1G O5 1_555 1_555
Cs1F_2 O7 1_555 1_555
Cs1D O3B 1_555 1_555
Cs1C O4B 1_555 1_555
Cs1E O4D 1_555 1_555
Cs1B_2 O5B 1_555 1_555
Cs1D_2 O7B 1_555 1_555
O1B Cs1B 1_555 1_555
O2B Cs1 1_555 1_555
O3B C3B 1_555 1_555
O3F Cs1 1_555 1_555
O3D Cs1B 1_555 1_555
O4B Cs1D 1_555 1_555
O4F Cs1 1_555 1_555
O4A Cs1 1_555 1_555
O4D Cs1B 1_555 1_555
O4C Cs1B 1_555 1_555
O5B Cs1E 1_555 1_555
O5_2 Cs1 1_555 1_555
O5G Cs1 1_555 1_555
O5E Cs1B 1_555 1_555
O5B_2 Cs1B 1_555 1_555
O6B Cs1B 1_555 1_555
O7B H1B 1_555 1_555
O7F Cs1 1_555 1_555
O7D Cs1B 1_555 1_555
H1F O7F 1_555 1_555
H1D O7D 1_555 1_555
H2B O8 1_555 1_555
N1B H3B 1_555 1_555
N2B H4B 1_555 1_555
N3B H5B 1_555 1_555
N4B H6B 1_555 1_555
C1B O1B 1_555 1_555
C2B O2B 1_555 1_555
C3B N2B 1_555 1_555
C4B O7B 1_555 1_555
C5B C4B 1_555 1_555
C6B O4B 1_555 1_555
C7B O5B 1_555 1_555
C8B O6B 1_555 1_555
O4 Cs1F 1_555 1_555
N2 C2 1_555 1_555
N4 C7 1_555 1_555
N4 C8 1_555 1_555
C1 C4 1_555 1_555
C3 C4 1_555 1_555
C5 C6 1_555 1_555
C5 C8 1_555 1_555
Cs1G O4F 1_555 1_555
Cs1G O5G 1_555 1_555
Cs1E O5E 1_555 1_555
N1B C1B 1_555 1_555
N1B C2B 1_555 1_555
N2B C2B 1_555 1_555
N3B C6B 1_555 1_555
N3B C7B 1_555 1_555
N4B C7B 1_555 1_555
N4B C8B 1_555 1_555
C1B C4B 1_555 1_555
C3B C4B 1_555 1_555
C5B C6B 1_555 1_555
C5B C8B 1_555 1_555

#END
