
#######################################################################
#
#                 Cambridge Crystallographic Data Centre
#                                CCDC 
#
#######################################################################
#
# If this CIF has been generated from an entry in the Cambridge 
# Structural Database, then it will include bibliographic, chemical, 
# crystal, experimental, refinement or atomic coordinate data resulting 
# from the CCDC's data processing and validation procedures.
#
#######################################################################

data_LAWBEQ
_symmetry_cell_setting           orthorhombic
_symmetry_space_group_name_H-M   'P b c a'
_symmetry_Int_Tables_number      61
_space_group_name_Hall           '-P 2ac 2ab'
loop_
_symmetry_equiv_pos_site_id
_symmetry_equiv_pos_as_xyz
1 x,y,z
2 1/2-x,1/2+y,z
3 x,1/2-y,1/2+z
4 1/2+x,y,1/2-z
5 -x,-y,-z
6 1/2+x,1/2-y,-z
7 -x,1/2+y,1/2-z
8 1/2-x,-y,1/2+z
_cell_length_a                   15.153(3)
_cell_length_b                   16.4660(5)
_cell_length_c                   19.698(1)
_cell_angle_alpha                90
_cell_angle_beta                 90
_cell_angle_gamma                90
_cell_volume                     4914.83
loop_
_atom_site_label
_atom_site_type_symbol
_atom_site_fract_x
_atom_site_fract_y
_atom_site_fract_z
Rh1 Rh 0.18300(5) 0.61725(3) 0.37209(3)
N1 N 0.7252(6) 0.2021(3) 0.1642(3)
N2 N 0.2620(6) 0.5257(3) 0.3283(3)
C1 C 0.6681(8) 0.2811(5) 0.2555(4)
C2 C 0.7302(8) 0.2296(5) 0.2279(4)
C3 C 0.6552(7) 0.2261(6) 0.1264(4)
C4 C 0.5910(9) 0.2753(6) 0.1515(4)
C5 C 0.5961(8) 0.3041(5) 0.2179(4)
C6 C 0.5280(8) 0.3565(5) 0.2503(4)
C7 C 0.4491(8) 0.3728(5) 0.2284(4)
C8 C 0.3860(7) 0.4245(4) 0.2639(4)
C9 C 0.3111(8) 0.4527(5) 0.2319(4)
C10 C 0.2527(7) 0.5025(5) 0.2648(4)
C11 C 0.3320(8) 0.4980(5) 0.3610(4)
C12 C 0.3954(8) 0.4465(5) 0.3319(4)
C13 C 0.1232(8) 0.7059(5) 0.4374(5)
C14 C 0.0841(8) 0.7076(5) 0.3750(6)
C15 C -0.005(1) 0.6720(7) 0.3551(6)
C16 C -0.0140(8) 0.5866(7) 0.3718(6)
C17 C 0.0712(7) 0.5381(5) 0.3806(5)
C18 C 0.1213(8) 0.5360(5) 0.4402(5)
C19 C 0.094(1) 0.5792(7) 0.5041(5)
C20 C 0.086(1) 0.6680(7) 0.4990(5)
H1 H 0.6757 0.3013 0.3004
H2 H 0.7772 0.2124 0.2554
H3 H 0.6512 0.2084 0.0803
H4 H 0.5424 0.2901 0.1241
H5 H 0.5445 0.3809 0.2922
H6 H 0.4321 0.3491 0.1864
H7 H 0.3000 0.4378 0.1860
H8 H 0.2025 0.5218 0.2406
H9 H 0.3394 0.5135 0.4071
H10 H 0.4437 0.4271 0.3579
H11 H 0.1829 0.7276 0.4396
H12 H 0.1157 0.7368 0.3436
H13 H -0.0111 0.6782 0.3073
H14 H -0.0496 0.7011 0.3777
H15 H -0.0466 0.5617 0.3355
H16 H -0.0469 0.5827 0.4122
H17 H 0.0955 0.5078 0.3420
H18 H 0.1743 0.5046 0.4380
H19 H 0.0382 0.5584 0.5177
H20 H 0.1367 0.5664 0.5382
H21 H 0.0267 0.6826 0.5018
H22 H 0.1177 0.6912 0.5371
Rh1F Rh 0.81700(5) 0.11725(3) 0.12791(3)
N1F N 0.2748(6) 0.7021(3) 0.3358(3)
F1 F 0.168(1) 0.0857(7) 0.6130(4)
F2 F 0.182(1) 0.1952(6) 0.5595(7)
F3 F 0.1648(6) 0.0862(4) 0.5030(3)
F4 F 0.0648(9) 0.1394(8) 0.5734(6)
B1 B 0.153(1) 0.1286(8) 0.5604(6)
O1 O 1.379(1) 0.1569(10) 0.1610(7)
C21 C 1.275(1) 0.1190(8) 0.0812(9)
C22 C 1.365(1) 0.1274(8) 0.1074(7)
C23 C 1.437(1) 0.1058(8) 0.0625(9)
H23 H 1.2410 0.0835 0.1105
H24 H 1.2463 0.1685 0.0769
H25 H 1.2751 0.0921 0.0366
H26 H 1.4159 0.0814 0.0199
H27 H 1.4744 0.0661 0.0832
H28 H 1.4711 0.1518 0.0506
loop_
_geom_bond_atom_site_label_1
_geom_bond_atom_site_label_2
_geom_bond_site_symmetry_1
_geom_bond_site_symmetry_2
Rh1 N2 1_555 1_555
F1 B1 1_555 1_555
F2 B1 1_555 1_555
F3 B1 1_555 1_555
F4 B1 1_555 1_555
O1 C22 1_555 1_555
N1 C2 1_555 1_555
N2 C10 1_555 1_555
C1 C2 1_555 1_555
C2 H2 1_555 1_555
C3 N1 1_555 1_555
C4 C3 1_555 1_555
C5 C1 1_555 1_555
C6 C5 1_555 1_555
C7 C6 1_555 1_555
C8 C7 1_555 1_555
C9 C8 1_555 1_555
C10 C9 1_555 1_555
C11 N2 1_555 1_555
C12 C8 1_555 1_555
C13 Rh1 1_555 1_555
C14 Rh1 1_555 1_555
C15 C14 1_555 1_555
C16 C15 1_555 1_555
C17 Rh1 1_555 1_555
C18 Rh1 1_555 1_555
C19 C18 1_555 1_555
C20 C13 1_555 1_555
C21 C22 1_555 1_555
C22 C23 1_555 1_555
C23 H26 1_555 1_555
H1 C1 1_555 1_555
H3 C3 1_555 1_555
H4 C4 1_555 1_555
H5 C6 1_555 1_555
H6 C7 1_555 1_555
H7 C9 1_555 1_555
H8 C10 1_555 1_555
H9 C11 1_555 1_555
H10 C12 1_555 1_555
H11 C13 1_555 1_555
H12 C14 1_555 1_555
H13 C15 1_555 1_555
H14 C15 1_555 1_555
H15 C16 1_555 1_555
H16 C16 1_555 1_555
H17 C17 1_555 1_555
H18 C18 1_555 1_555
H19 C19 1_555 1_555
H20 C19 1_555 1_555
H21 C20 1_555 1_555
H22 C20 1_555 1_555
H23 C21 1_555 1_555
H24 C21 1_555 1_555
H25 C21 1_555 1_555
H27 C23 1_555 1_555
H28 C23 1_555 1_555
Rh1F N1 1_555 1_555
N1F Rh1 1_555 1_555
C4 C5 1_555 1_555
C11 C12 1_555 1_555
C13 C14 1_555 1_555
C16 C17 1_555 1_555
C17 C18 1_555 1_555
C19 C20 1_555 1_555

#END
