
#######################################################################
#
#                 Cambridge Crystallographic Data Centre
#                                CCDC 
#
#######################################################################
#
# If this CIF has been generated from an entry in the Cambridge 
# Structural Database, then it will include bibliographic, chemical, 
# crystal, experimental, refinement or atomic coordinate data resulting 
# from the CCDC's data processing and validation procedures.
#
#######################################################################

data_LAWDUJ
_symmetry_cell_setting           monoclinic
_symmetry_space_group_name_H-M   'P 21/n'
_symmetry_Int_Tables_number      14
_space_group_name_Hall           '-P 2yn'
loop_
_symmetry_equiv_pos_site_id
_symmetry_equiv_pos_as_xyz
1 x,y,z
2 1/2-x,1/2+y,1/2-z
3 -x,-y,-z
4 1/2+x,1/2-y,1/2+z
_cell_length_a                   10.986(4)
_cell_length_b                   13.054(5)
_cell_length_c                   12.184(3)
_cell_angle_alpha                90
_cell_angle_beta                 94.26(2)
_cell_angle_gamma                90
_cell_volume                     1742.5
loop_
_atom_site_label
_atom_site_type_symbol
_atom_site_fract_x
_atom_site_fract_y
_atom_site_fract_z
K1 K 0.15388(9) 0.48434(7) 0.39467(7)
N1 N 0.3979(3) 0.3260(3) -0.2816(2)
C1 C 0.3812(3) 0.2911(3) -0.3813(3)
C2 C 0.2890(3) 0.2205(3) -0.4243(3)
C3 C 0.4661(3) 0.3181(3) -0.4609(3)
N2 N 0.1954(3) 0.1801(3) -0.3573(3)
C4 C 0.3289(3) 0.3130(3) 0.0059(3)
C5 C 0.4631(4) 0.2799(3) -0.5664(3)
O1 O 0.2363(3) 0.3718(3) 0.1965(2)
O2 O 0.5432(3) 0.4642(2) -0.3728(2)
O3 O 0.6590(3) 0.3835(3) -0.4778(3)
N3 N 0.5626(3) 0.3934(3) -0.4335(3)
C6 C 0.3700(4) 0.2134(3) -0.6000(3)
O4 O 0.0935(3) 0.4589(3) 0.1111(3)
C7 C 0.2831(4) 0.1847(3) -0.5312(3)
C8 C 0.2339(3) 0.3814(3) 0.0078(3)
O5 O 0.2158(3) 0.1761(3) -0.2572(3)
C9 C 0.1840(4) 0.4264(3) -0.0882(3)
N4 N 0.1833(3) 0.4045(3) 0.1117(3)
O6 O 0.1018(3) 0.1473(4) -0.4029(3)
O7 O 0.0929(3) 0.5161(3) -0.2700(3)
N5 N 0.1724(3) 0.4533(3) -0.2837(3)
C10 C 0.3364(3) 0.3388(3) -0.1949(3)
C11 C 0.2332(3) 0.4043(3) -0.1856(3)
C12 C 0.3779(3) 0.2929(3) -0.0907(3)
O8 O 0.1998(3) 0.4286(3) -0.3736(2)
O9 O 0.4683(3) 0.1458(2) -0.0190(2)
O10 O 0.2715(3) 0.1234(3) -0.7419(3)
O11 O 0.5526(3) 0.2186(2) -0.1512(2)
N6 N 0.4730(3) 0.2147(3) -0.0877(2)
O12 O 0.4499(3) 0.1863(3) -0.7660(2)
N7 N 0.3643(4) 0.1724(3) -0.7103(3)
H1 H 0.524(4) 0.302(3) -0.617(3)
H2 H 0.117(4) 0.466(3) -0.089(3)
H3 H 0.224(3) 0.140(3) -0.553(3)
H4 H 0.358(3) 0.285(3) 0.064(3)
K1C K 0.65388(9) 0.01566(7) -0.10533(7)
K1A K 0.34612(9) -0.01566(7) 0.10533(7)
K1B K -0.15388(9) 0.51566(7) -0.39467(7)
K1_2 K 0.15388(9) 0.48434(7) -0.60533(7)
K1B_2 K 0.84612(9) 0.51566(7) -0.39467(7)
K1A_2 K 0.34612(9) -0.01566(7) -0.89467(7)
O3B O 0.3410(3) 0.6165(3) 0.4778(3)
O7B O -0.0929(3) 0.4839(3) 0.2700(3)
O8_2 O 0.1998(3) 0.4286(3) 0.6264(2)
O9A O 0.0317(3) 0.6458(2) 0.5190(2)
O9C O -0.0317(3) 0.3542(2) 0.4810(2)
O10A O 0.2285(3) 0.6234(3) 0.2419(3)
O11C O 0.0526(3) 0.2814(2) 0.3488(2)
O13 O 0.9357(8) 0.9796(7) 0.6188(7)
loop_
_geom_bond_atom_site_label_1
_geom_bond_atom_site_label_2
_geom_bond_site_symmetry_1
_geom_bond_site_symmetry_2
K1 O1 1_555 1_555
N1 C1 1_555 1_555
C1 C2 1_555 1_555
C2 N2 1_555 1_555
C3 C1 1_555 1_555
N2 O5 1_555 1_555
C4 C8 1_555 1_555
C5 C3 1_555 1_555
O1 N4 1_555 1_555
O2 N3 1_555 1_555
O3 N3 1_555 1_555
N3 C3 1_555 1_555
C6 C5 1_555 1_555
O4 N4 1_555 1_555
C7 C2 1_555 1_555
C8 C9 1_555 1_555
C9 C11 1_555 1_555
N4 C8 1_555 1_555
O6 N2 1_555 1_555
O7 N5 1_555 1_555
N5 C11 1_555 1_555
C10 N1 1_555 1_555
C11 C10 1_555 1_555
C12 C4 1_555 1_555
O8 N5 1_555 1_555
O9 N6 1_555 1_555
O10 N7 1_555 1_555
O11 N6 1_555 1_555
N6 C12 1_555 1_555
O12 N7 1_555 1_555
N7 C6 1_555 1_555
H1 C5 1_555 1_555
H2 C9 1_555 1_555
H3 C7 1_555 1_555
H4 C4 1_555 1_555
K1C O9 1_555 1_555
K1A O9 1_555 1_555
K1B O7 1_555 1_555
K1_2 O8 1_555 1_555
K1B_2 O3 1_555 1_555
K1A_2 O10 1_555 1_555
O3B K1 1_555 1_555
O7B K1 1_555 1_555
O8_2 K1 1_555 1_555
O9A K1 1_555 1_555
O9C K1 1_555 1_555
O10A K1 1_555 1_555
O11C K1 1_555 1_555
C6 C7 1_555 1_555
C10 C12 1_555 1_555
O11 K1C 1_555 1_555

#END
