
#######################################################################
#
#                 Cambridge Crystallographic Data Centre
#                                CCDC 
#
#######################################################################
#
# If this CIF has been generated from an entry in the Cambridge 
# Structural Database, then it will include bibliographic, chemical, 
# crystal, experimental, refinement or atomic coordinate data resulting 
# from the CCDC's data processing and validation procedures.
#
#######################################################################

data_LAWFEV
_symmetry_cell_setting           monoclinic
_symmetry_space_group_name_H-M   'P 21/c'
_symmetry_Int_Tables_number      14
_space_group_name_Hall           '-P 2ybc'
loop_
_symmetry_equiv_pos_site_id
_symmetry_equiv_pos_as_xyz
1 x,y,z
2 -x,1/2+y,1/2-z
3 -x,-y,-z
4 x,1/2-y,1/2+z
_cell_length_a                   12.6890(8)
_cell_length_b                   10.2007(6)
_cell_length_c                   13.6742(8)
_cell_angle_alpha                90
_cell_angle_beta                 107.0140(10)
_cell_angle_gamma                90
_cell_volume                     1692.48
loop_
_atom_site_label
_atom_site_type_symbol
_atom_site_fract_x
_atom_site_fract_y
_atom_site_fract_z
Zn1 Zn 0.23160(4) 0.52315(5) 0.24812(4)
O1 O 0.2580(3) 0.5389(3) 0.1072(3)
O2 O -0.1389(3) 0.0398(4) 0.1298(3)
O3 O -0.1302(3) 0.1870(4) 0.2483(3)
O4 O 0.1978(4) 0.4729(4) -0.0548(3)
C1 C 0.1957(4) 0.4733(5) 0.0343(4)
C2 C 0.1117(4) 0.3849(5) 0.0631(4)
C3 C 0.0463(5) 0.2960(6) -0.0040(4)
H1 H 0.0485 0.2910 -0.0713
C4 C -0.0230(4) 0.2137(6) 0.0306(4)
H2 H -0.0648 0.1501 -0.0124
C5 C -0.0289(4) 0.2278(5) 0.1294(4)
C6 C 0.0374(4) 0.3217(5) 0.1913(4)
H3 H 0.0326 0.3334 0.2573
N1 N 0.1079(3) 0.3959(4) 0.1598(3)
C7 C -0.1044(4) 0.1461(6) 0.1719(5)
N2 N 0.3843(3) 0.6228(4) 0.3188(3)
N3 N 0.3384(3) 0.3647(4) 0.3226(3)
C8 C 0.4053(4) 0.7502(5) 0.3173(4)
H4 H 0.3472 0.8079 0.2907
C9 C 0.5123(4) 0.8003(5) 0.3546(4)
H5 H 0.5241 0.8902 0.3538
C10 C 0.5986(4) 0.7187(5) 0.3918(4)
H6 H 0.6699 0.7519 0.4152
C11 C 0.5796(4) 0.5824(5) 0.3950(4)
C12 C 0.6647(4) 0.4886(6) 0.4339(4)
H7 H 0.7373 0.5173 0.4580
C13 C 0.6431(4) 0.3592(5) 0.4368(4)
H8 H 0.7007 0.3005 0.4624
C14 C 0.5318(4) 0.3118(5) 0.4006(3)
C15 C 0.5039(4) 0.1802(5) 0.4022(4)
H9 H 0.5586 0.1179 0.4276
C16 C 0.3961(4) 0.1425(5) 0.3662(4)
H10 H 0.3764 0.0549 0.3682
C17 C 0.3157(4) 0.2383(5) 0.3263(4)
H11 H 0.2426 0.2117 0.3011
C18 C 0.4454(4) 0.4026(5) 0.3609(3)
C19 C 0.4699(4) 0.5401(5) 0.3578(3)
Zn1A Zn -0.23160(4) 0.02315(5) 0.25188(4)
O2A O 0.1389(3) 0.5398(4) 0.3702(3)
O3A O 0.1302(3) 0.6870(4) 0.2517(3)
O5 O -0.1707(5) 0.0355(6) 0.7624(5)
loop_
_geom_bond_atom_site_label_1
_geom_bond_atom_site_label_2
_geom_bond_site_symmetry_1
_geom_bond_site_symmetry_2
Zn1 O1 1_555 1_555
O1 C1 1_555 1_555
O2 C7 1_555 1_555
O3 C7 1_555 1_555
O4 C1 1_555 1_555
C1 C2 1_555 1_555
C2 C3 1_555 1_555
C3 H1 1_555 1_555
C4 C3 1_555 1_555
H2 C4 1_555 1_555
C5 C4 1_555 1_555
C6 C5 1_555 1_555
H3 C6 1_555 1_555
N1 Zn1 1_555 1_555
C7 C5 1_555 1_555
N2 Zn1 1_555 1_555
N3 Zn1 1_555 1_555
C8 N2 1_555 1_555
H4 C8 1_555 1_555
C9 C8 1_555 1_555
H5 C9 1_555 1_555
C10 C9 1_555 1_555
H6 C10 1_555 1_555
C11 C10 1_555 1_555
C12 C11 1_555 1_555
H7 C12 1_555 1_555
C13 C12 1_555 1_555
H8 C13 1_555 1_555
C14 C13 1_555 1_555
C15 C14 1_555 1_555
H9 C15 1_555 1_555
C16 C15 1_555 1_555
H10 C16 1_555 1_555
C17 N3 1_555 1_555
H11 C17 1_555 1_555
C18 N3 1_555 1_555
C19 N2 1_555 1_555
Zn1A O2 1_555 1_555
O2A Zn1 1_555 1_555
O3A Zn1 1_555 1_555
O3 Zn1A 1_555 1_555
C2 N1 1_555 1_555
C6 N1 1_555 1_555
C11 C19 1_555 1_555
C14 C18 1_555 1_555
C16 C17 1_555 1_555
C18 C19 1_555 1_555

#END
