
#######################################################################
#
#                 Cambridge Crystallographic Data Centre
#                                CCDC 
#
#######################################################################
#
# If this CIF has been generated from an entry in the Cambridge 
# Structural Database, then it will include bibliographic, chemical, 
# crystal, experimental, refinement or atomic coordinate data resulting 
# from the CCDC's data processing and validation procedures.
#
#######################################################################

data_LAWLUS
_symmetry_cell_setting           monoclinic
_symmetry_space_group_name_H-M   'P 21/n'
_symmetry_Int_Tables_number      14
_space_group_name_Hall           '-P 2yn'
loop_
_symmetry_equiv_pos_site_id
_symmetry_equiv_pos_as_xyz
1 x,y,z
2 1/2-x,1/2+y,1/2-z
3 -x,-y,-z
4 1/2+x,1/2-y,1/2+z
_cell_length_a                   9.9377(11)
_cell_length_b                   9.1742(10)
_cell_length_c                   15.9819(18)
_cell_angle_alpha                90
_cell_angle_beta                 96.705(2)
_cell_angle_gamma                90
_cell_volume                     1447.11
loop_
_atom_site_label
_atom_site_type_symbol
_atom_site_fract_x
_atom_site_fract_y
_atom_site_fract_z
Mn1 Mn 0.96845(4) 0.17867(4) 0.74217(2)
O1 O 0.8564(3) 0.1931(3) 0.8420(2)
O2 O 0.8577(3) -0.0061(3) 0.69903(18)
N1 N 1.1021(3) 0.1492(3) 0.65473(17)
O3 O 0.8435(3) 0.3064(3) 0.6629(2)
C1 C 1.2434(3) 0.0838(3) 0.77960(18)
N2 N 1.1261(3) 0.0663(3) 0.81329(16)
C2 C 1.0717(4) 0.1667(4) 0.5725(2)
H1 H 0.9874 0.2050 0.5525
C3 C 1.2243(3) 0.0934(3) 0.68603(18)
C4 C 1.3666(4) 0.0678(4) 0.9166(2)
H2 H 1.4475 0.0710 0.9523
C5 C 1.3666(3) 0.0952(3) 0.83095(19)
C6 C 1.1282(4) 0.0433(4) 0.8965(2)
H3 H 1.0466 0.0322 0.9189
C7 C 1.2463(4) 0.0359(4) 0.9490(2)
H4 H 1.2463 0.0099 1.0053
O4 O 1.6059(3) 0.0975(3) 0.83691(19)
O5 O 1.4873(3) 0.2567(3) 0.75376(17)
C8 C 1.4968(4) 0.1532(3) 0.8032(2)
C9 C 1.3151(4) 0.0438(3) 0.6316(2)
C10 C 1.2829(5) 0.0678(4) 0.5461(2)
H5 H 1.3444 0.0416 0.5091
C11 C 1.1604(5) 0.1302(4) 0.5149(2)
H6 H 1.1383 0.1471 0.4575
C12 C 1.4375(4) -0.0511(3) 0.6593(2)
O7 O 1.4244(2) -0.1382(2) 0.71767(14)
O8 O 1.5413(3) -0.0392(3) 0.6214(2)
H9 H 0.911(3) -0.073(3) 0.719(3)
H10 H 0.878(4) 0.256(4) 0.880(2)
H11 H 0.841(4) 0.392(2) 0.680(3)
H12 H 0.7721(13) 0.178(4) 0.839(3)
H13 H 0.7785(17) -0.023(4) 0.710(3)
H14 H 0.767(2) 0.285(4) 0.636(3)
Mn1A Mn 1.53155(4) -0.32133(4) 0.75783(2)
O7A O 1.0756(2) 0.3618(2) 0.78233(14)
O6 O 0.5903(3) 0.2630(4) 0.5951(2)
H7 H 0.551(4) 0.287(5) 0.6369(19)
H8 H 0.537(4) 0.213(4) 0.561(2)
loop_
_geom_bond_atom_site_label_1
_geom_bond_atom_site_label_2
_geom_bond_site_symmetry_1
_geom_bond_site_symmetry_2
Mn1 O1 1_555 1_555
O1 H10 1_555 1_555
O2 Mn1 1_555 1_555
N1 Mn1 1_555 1_555
O3 Mn1 1_555 1_555
C1 N2 1_555 1_555
N2 Mn1 1_555 1_555
C2 N1 1_555 1_555
H1 C2 1_555 1_555
C3 N1 1_555 1_555
C4 H2 1_555 1_555
C5 C1 1_555 1_555
C6 N2 1_555 1_555
H3 C6 1_555 1_555
C7 C4 1_555 1_555
H4 C7 1_555 1_555
O4 C8 1_555 1_555
O5 C8 1_555 1_555
C8 C5 1_555 1_555
C9 C3 1_555 1_555
O6 H7 1_555 1_555
C10 C9 1_555 1_555
H5 C10 1_555 1_555
C11 C2 1_555 1_555
H6 C11 1_555 1_555
C12 C9 1_555 1_555
O7 C12 1_555 1_555
O8 C12 1_555 1_555
H8 O6 1_555 1_555
H9 O2 1_555 1_555
H11 O3 1_555 1_555
H12 O1 1_555 1_555
H13 O2 1_555 1_555
H14 O3 1_555 1_555
Mn1A O7 1_555 1_555
O7A Mn1 1_555 1_555
C1 C3 1_555 1_555
C4 C5 1_555 1_555
C6 C7 1_555 1_555
C10 C11 1_555 1_555

#END
