
#######################################################################
#
#                 Cambridge Crystallographic Data Centre
#                                CCDC 
#
#######################################################################
#
# If this CIF has been generated from an entry in the Cambridge 
# Structural Database, then it will include bibliographic, chemical, 
# crystal, experimental, refinement or atomic coordinate data resulting 
# from the CCDC's data processing and validation procedures.
#
#######################################################################

data_LAWLAY
_symmetry_cell_setting           monoclinic
_symmetry_space_group_name_H-M   'P 21/n'
_symmetry_Int_Tables_number      14
_space_group_name_Hall           '-P 2yn'
loop_
_symmetry_equiv_pos_site_id
_symmetry_equiv_pos_as_xyz
1 x,y,z
2 1/2-x,1/2+y,1/2-z
3 -x,-y,-z
4 1/2+x,1/2-y,1/2+z
_cell_length_a                   10.1189(3)
_cell_length_b                   8.9923(2)
_cell_length_c                   21.2452(6)
_cell_angle_alpha                90
_cell_angle_beta                 90.163(2)
_cell_angle_gamma                90
_cell_volume                     1933.14
loop_
_atom_site_label
_atom_site_type_symbol
_atom_site_fract_x
_atom_site_fract_y
_atom_site_fract_z
Zn1 Zn 0.19061(3) 0.12805(3) 0.660726(13)
C1 C 0.4029(2) 0.0974(3) 0.72633(11)
C2 C 0.5282(2) 0.0988(2) 0.76483(11)
C3 C 0.5444(2) 0.0076(2) 0.81388(11)
C4 C 0.7952(3) 0.1443(4) 0.76031(16)
H1 H 0.8098 0.0493 0.7398
H2 H 0.8674 0.2096 0.7487
C5 C 0.7980(3) 0.1218(3) 0.82980(15)
H3 H 0.7770 0.2157 0.8499
H4 H 0.8872 0.0952 0.8421
C6 C 0.4309(2) -0.0906(2) 0.83362(11)
C7 C 0.4056(3) 0.2904(3) 0.57925(13)
H5 H 0.4183 0.3523 0.6138
C8 C 0.4850(3) 0.3100(3) 0.52614(15)
H6 H 0.5512 0.3818 0.5260
C9 C 0.4644(3) 0.2231(3) 0.47458(14)
H7 H 0.5154 0.2367 0.4387
C10 C 0.3665(3) 0.1133(3) 0.47546(12)
C11 C 0.3364(3) 0.0165(3) 0.42364(13)
H8 H 0.3837 0.0257 0.3864
C12 C 0.2418(3) -0.0866(3) 0.42787(13)
H9 H 0.2226 -0.1453 0.3930
C13 C 0.1691(3) -0.1089(3) 0.48496(12)
C14 C 0.0723(3) -0.2183(3) 0.49283(14)
H10 H 0.0503 -0.2807 0.4595
C15 C 0.0103(3) -0.2338(3) 0.54912(14)
H11 H -0.0536 -0.3069 0.5547
C16 C 0.0438(3) -0.1385(3) 0.59823(13)
H12 H 0.0015 -0.1501 0.6367
C17 C 0.1967(2) -0.0174(2) 0.53658(11)
C18 C 0.2942(2) 0.0979(2) 0.53144(11)
N1 N 0.3131(2) 0.1868(2) 0.58206(10)
N2 N 0.13376(19) -0.0315(2) 0.59247(9)
S1 S 0.64371(6) 0.22196(7) 0.73171(3)
S2 S 0.68737(6) -0.01715(7) 0.85923(3)
O1 O 0.33239(16) 0.21298(17) 0.72512(8)
O2 O 0.37564(17) -0.01500(17) 0.69447(8)
O3 O 0.32135(17) -0.03473(18) 0.84136(9)
O4 O 0.45891(16) -0.22796(16) 0.84035(8)
O5 O 0.09412(16) 0.00473(17) 0.73271(8)
H13 H 0.1273 -0.0805 0.7398
H14 H 0.0906 0.0531 0.7670
Zn1A Zn 0.30939(3) -0.37195(3) 0.839274(13)
O4A O 0.04109(16) 0.27204(16) 0.65965(8)
O6 O 0.12554(18) 0.18005(17) 0.84044(9)
H15 H 0.2021 0.1414 0.8426
H16 H 0.1308 0.2714 0.8305
loop_
_geom_bond_atom_site_label_1
_geom_bond_atom_site_label_2
_geom_bond_site_symmetry_1
_geom_bond_site_symmetry_2
Zn1 N1 1_555 1_555
C1 C2 1_555 1_555
C2 C3 1_555 1_555
C3 C6 1_555 1_555
C4 H1 1_555 1_555
H2 C4 1_555 1_555
C5 C4 1_555 1_555
H3 C5 1_555 1_555
H4 C5 1_555 1_555
C6 O3 1_555 1_555
C7 H5 1_555 1_555
C8 C7 1_555 1_555
H6 C8 1_555 1_555
C9 C8 1_555 1_555
H7 C9 1_555 1_555
C10 C9 1_555 1_555
C11 C10 1_555 1_555
H8 C11 1_555 1_555
C12 C11 1_555 1_555
H9 C12 1_555 1_555
C13 C12 1_555 1_555
C14 C13 1_555 1_555
H10 C14 1_555 1_555
C15 C14 1_555 1_555
H11 C15 1_555 1_555
C16 C15 1_555 1_555
H12 C16 1_555 1_555
C17 C13 1_555 1_555
C18 C10 1_555 1_555
N1 C7 1_555 1_555
N2 Zn1 1_555 1_555
S1 C2 1_555 1_555
S2 C3 1_555 1_555
O1 Zn1 1_555 1_555
O2 Zn1 1_555 1_555
O4 C6 1_555 1_555
O5 Zn1 1_555 1_555
H13 O5 1_555 1_555
H14 O5 1_555 1_555
O6 H15 1_555 1_555
H16 O6 1_555 1_555
Zn1A O4 1_555 1_555
O4A Zn1 1_555 1_555
C1 O1 1_555 1_555
C1 O2 1_555 1_555
C4 S1 1_555 1_555
C5 S2 1_555 1_555
C16 N2 1_555 1_555
C17 C18 1_555 1_555
C17 N2 1_555 1_555
C18 N1 1_555 1_555

#END
