
#######################################################################
#
#                 Cambridge Crystallographic Data Centre
#                                CCDC 
#
#######################################################################
#
# If this CIF has been generated from an entry in the Cambridge 
# Structural Database, then it will include bibliographic, chemical, 
# crystal, experimental, refinement or atomic coordinate data resulting 
# from the CCDC's data processing and validation procedures.
#
#######################################################################

data_LAWMAZ
_symmetry_cell_setting           monoclinic
_symmetry_space_group_name_H-M   'C 2/c'
_symmetry_Int_Tables_number      15
_space_group_name_Hall           '-C 2yn'
loop_
_symmetry_equiv_pos_site_id
_symmetry_equiv_pos_as_xyz
1 x,y,z
2 -x,y,1/2-z
3 1/2+x,1/2+y,z
4 1/2-x,1/2+y,1/2-z
5 -x,-y,-z
6 x,-y,1/2+z
7 1/2-x,1/2-y,-z
8 1/2+x,1/2-y,1/2+z
_cell_length_a                   11.618(3)
_cell_length_b                   8.0409(19)
_cell_length_c                   12.965(3)
_cell_angle_alpha                90
_cell_angle_beta                 100.191(3)
_cell_angle_gamma                90
_cell_volume                     1192.07
loop_
_atom_site_label
_atom_site_type_symbol
_atom_site_fract_x
_atom_site_fract_y
_atom_site_fract_z
Fe1 Fe 0.0000 0.29753(4) 0.7500
O1 O 0.18134(15) 0.31545(19) 0.72097(15)
N1 N -0.07082(15) 0.0721(2) 0.65846(13)
C1 C -0.13202(19) 0.0872(3) 0.56092(17)
H1 H -0.1593 0.1918 0.5377
C2 C -0.02858(16) -0.0776(2) 0.69356(14)
C3 C -0.15590(19) -0.0460(3) 0.49402(16)
H2 H -0.2038 -0.0341 0.4289
C4 C -0.1070(2) -0.1975(2) 0.52598(17)
H3 H -0.1192 -0.2884 0.4811
C5 C -0.03919(19) -0.2148(2) 0.62558(17)
C6 C 0.02759(18) -0.3752(2) 0.64726(14)
O2 O -0.03013(13) -0.50842(16) 0.63326(11)
O3 O 0.13561(14) -0.36387(19) 0.67390(12)
H4 H 0.186(2) 0.406(2) 0.705(2)
H5 H 0.240(2) 0.270(3) 0.754(3)
Fe1_2 Fe 0.0000 -0.70247(4) 0.7500
O1A O -0.18134(15) 0.31545(19) 0.77903(15)
N1A N 0.07082(15) 0.0721(2) 0.84154(13)
C1A C 0.13202(19) 0.0872(3) 0.93908(17)
H1A H 0.1593 0.1918 0.9623
C2A C 0.02858(16) -0.0776(2) 0.80644(14)
C3A C 0.15590(19) -0.0460(3) 1.00598(16)
H2A H 0.2038 -0.0341 1.0711
C4A C 0.1070(2) -0.1975(2) 0.97402(17)
H3A H 0.1192 -0.2884 1.0189
C5A C 0.03919(19) -0.2148(2) 0.87442(17)
C6A C -0.02759(18) -0.3752(2) 0.85274(14)
O2A O 0.03013(13) -0.50842(16) 0.86674(11)
O2_2 O -0.03013(13) 0.49158(16) 0.63326(11)
O2A_2 O 0.03013(13) 0.49158(16) 0.86674(11)
O3A O -0.13561(14) -0.36387(19) 0.82610(12)
H4A H -0.186(2) 0.406(2) 0.795(2)
H5A H -0.240(2) 0.270(3) 0.746(3)
loop_
_geom_bond_atom_site_label_1
_geom_bond_atom_site_label_2
_geom_bond_site_symmetry_1
_geom_bond_site_symmetry_2
Fe1 O1 1_555 1_555
O1 H4 1_555 1_555
N1 Fe1 1_555 1_555
C1 N1 1_555 1_555
H1 C1 1_555 1_555
C2 N1 1_555 1_555
C3 C1 1_555 1_555
H2 C3 1_555 1_555
C4 C3 1_555 1_555
H3 C4 1_555 1_555
C5 C2 1_555 1_555
C6 C5 1_555 1_555
O2 C6 1_555 1_555
O3 C6 1_555 1_555
H5 O1 1_555 1_555
Fe1_2 O2 1_555 1_555
O1A Fe1 1_555 1_555
N1A Fe1 1_555 1_555
C1A N1A 1_555 1_555
H1A C1A 1_555 1_555
C2A C2 1_555 1_555
C3A C1A 1_555 1_555
H2A C3A 1_555 1_555
C4A C3A 1_555 1_555
H3A C4A 1_555 1_555
C5A C2A 1_555 1_555
C6A C5A 1_555 1_555
O2A Fe1_2 1_555 1_555
O2_2 Fe1 1_555 1_555
O2A_2 Fe1 1_555 1_555
O3A C6A 1_555 1_555
H4A O1A 1_555 1_555
H5A O1A 1_555 1_555
C4 C5 1_555 1_555
N1A C2A 1_555 1_555
C4A C5A 1_555 1_555
C6A O2A 1_555 1_555

#END
