
#######################################################################
#
#                 Cambridge Crystallographic Data Centre
#                                CCDC 
#
#######################################################################
#
# If this CIF has been generated from an entry in the Cambridge 
# Structural Database, then it will include bibliographic, chemical, 
# crystal, experimental, refinement or atomic coordinate data resulting 
# from the CCDC's data processing and validation procedures.
#
#######################################################################

data_LAWPOQ
_symmetry_cell_setting           triclinic
_symmetry_space_group_name_H-M   'P -1'
_symmetry_Int_Tables_number      2
_space_group_name_Hall           '-P 1'
loop_
_symmetry_equiv_pos_site_id
_symmetry_equiv_pos_as_xyz
1 x,y,z
2 -x,-y,-z
_cell_length_a                   11.4899(18)
_cell_length_b                   11.503(3)
_cell_length_c                   13.4310(15)
_cell_angle_alpha                88.48(3)
_cell_angle_beta                 72.706(19)
_cell_angle_gamma                87.93(3)
_cell_volume                     1693.56
loop_
_atom_site_label
_atom_site_type_symbol
_atom_site_fract_x
_atom_site_fract_y
_atom_site_fract_z
Tb1 Tb 0.93727(2) 0.74229(2) 0.33666(2)
C1 C 0.6102(5) 1.4276(5) 0.3327(5)
C2 C 0.5431(5) 1.3199(5) 0.3648(4)
C3 C 0.4247(5) 1.2953(5) 0.4244(4)
C4 C 0.3272(5) 1.3777(5) 0.4820(4)
C5 C 0.5140(5) 1.1320(5) 0.3725(4)
C6 C 0.5382(5) 1.0071(5) 0.3567(4)
C7 C 0.4450(5) 0.9275(5) 0.3892(5)
H1 H 0.3649 0.9532 0.4198
C8 C 0.4728(5) 0.8101(5) 0.3755(5)
H2 H 0.4116 0.7563 0.3981
C9 C 0.5906(5) 0.7732(5) 0.3286(5)
H3 H 0.6088 0.6944 0.3171
C10 C 0.6565(5) 0.9651(5) 0.3114(4)
H4 H 0.7197 1.0170 0.2895
C11 C 1.4717(5) 0.7802(5) 0.1318(5)
C12 C 1.3584(5) 0.7227(5) 0.1895(4)
C13 C 1.2415(5) 0.7613(5) 0.2444(4)
C14 C 1.1888(5) 0.8813(5) 0.2624(5)
C15 C 1.2431(5) 0.5735(5) 0.2572(4)
C16 C 1.2079(5) 0.4525(4) 0.2860(4)
C17 C 1.2633(5) 0.3591(5) 0.2265(5)
H5 H 1.3260 0.3700 0.1649
C18 C 1.2232(6) 0.2469(5) 0.2607(5)
H6 H 1.2571 0.1828 0.2203
C19 C 1.1346(5) 0.2322(5) 0.3532(5)
H7 H 1.1076 0.1579 0.3752
C20 C 1.1201(5) 0.4334(5) 0.3805(5)
H8 H 1.0845 0.4963 0.4218
C21 C 1.3693(5) 0.6221(5) -0.0870(5)
C22 C 1.2540(5) 0.5654(5) -0.0252(4)
C23 C 1.1471(5) 0.6064(5) 0.0430(4)
C24 C 1.1096(5) 0.7288(5) 0.0751(4)
C25 C 1.1352(5) 0.4201(5) 0.0420(4)
C26 C 1.0927(5) 0.3000(5) 0.0651(4)
C27 C 1.1568(6) 0.2047(6) 0.0118(5)
H9 H 1.2263 0.2148 -0.0444
C28 C 1.1156(6) 0.0940(5) 0.0438(6)
H10 H 1.1585 0.0294 0.0094
C29 C 1.0121(6) 0.0791(5) 0.1255(5)
H11 H 0.9856 0.0044 0.1465
C30 C 0.9868(5) 0.2815(5) 0.1463(5)
H12 H 0.9417 0.3449 0.1810
N1 N 0.5986(4) 1.2139(4) 0.3336(4)
H13 H 0.6729 1.2016 0.2964
N2 N 0.4085(4) 1.1781(4) 0.4285(4)
N3 N 0.6808(4) 0.8509(4) 0.2989(4)
N4 N 1.1702(4) 0.6676(4) 0.2852(4)
N5 N 1.3567(4) 0.6042(4) 0.2000(4)
H14 H 1.4175 0.5570 0.1747
N6 N 1.0857(4) 0.3242(4) 0.4133(4)
N7 N 1.0742(4) 0.5142(4) 0.0857(4)
N8 N 1.2450(4) 0.4465(4) -0.0251(4)
H15 H 1.2990 0.3980 -0.0609
N9 N 0.9481(4) 0.1720(4) 0.1756(4)
O1 O 0.7188(4) 1.4225(4) 0.2847(4)
O2 O 0.8311(4) 0.8953(3) 0.4493(3)
O3 O 0.5473(4) 1.5234(4) 0.3556(4)
H16 H 0.4789 1.5093 0.3938
O4 O 0.3395(4) 1.4856(3) 0.4634(4)
O5 O 0.2355(4) 1.3352(4) 0.5465(3)
O6 O 0.9201(4) 0.5493(3) 0.2853(3)
O7 O 0.7955(4) 0.8133(4) 0.2537(3)
O8 O 1.5640(4) 0.7240(4) 0.0921(4)
O9 O 1.4682(4) 0.8938(4) 0.1261(4)
H17 H 1.4014 0.9185 0.1619
O10 O 1.2573(4) 0.9655(4) 0.2295(4)
O11 O 1.0763(4) 0.8912(3) 0.3127(3)
O12 O 1.0043(4) 0.3086(4) 0.5073(3)
O13 O 1.4577(4) 0.5610(4) -0.1315(4)
O14 O 1.3688(4) 0.7328(4) -0.0921(4)
H18 H 1.3005 0.7587 -0.0611
O15 O 1.1720(4) 0.8088(4) 0.0200(3)
O16 O 1.0204(4) 0.7458(3) 0.1535(3)
O17 O 0.8480(4) 0.1578(4) 0.2537(4)
Tb1A Tb 0.06273(2) 1.25771(2) 0.66334(2)
Tb1_2 Tb -0.06273(2) 1.74229(2) 0.33666(2)
Tb1A_2 Tb 1.06273(2) 0.25771(2) 0.66334(2)
C1A C 0.3898(5) 0.5724(5) 0.6673(5)
C2A C 0.4569(5) 0.6801(5) 0.6352(4)
C3A C 0.5753(5) 0.7047(5) 0.5756(4)
C4A C 0.6728(5) 0.6223(5) 0.5180(4)
C5A C 0.4860(5) 0.8680(5) 0.6275(4)
C6A C 0.4618(5) 0.9929(5) 0.6433(4)
C7A C 0.5550(5) 1.0725(5) 0.6108(5)
H1A H 0.6351 1.0468 0.5802
C8A C 0.5272(5) 1.1899(5) 0.6245(5)
H2A H 0.5884 1.2437 0.6019
C9A C 0.4094(5) 1.2268(5) 0.6714(5)
H3A H 0.3912 1.3056 0.6829
C10A C 0.3435(5) 1.0349(5) 0.6886(4)
H4A H 0.2803 0.9830 0.7105
C11A C -0.4717(5) 1.2198(5) 0.8682(5)
C12A C -0.3584(5) 1.2773(5) 0.8105(4)
C13A C -0.2415(5) 1.2387(5) 0.7556(4)
C14A C -0.1888(5) 1.1187(5) 0.7376(5)
C15A C -0.2431(5) 1.4265(5) 0.7428(4)
C16A C -0.2079(5) 1.5475(4) 0.7140(4)
C17A C -0.2633(5) 1.6409(5) 0.7735(5)
H5A H -0.3260 1.6300 0.8351
C18A C -0.2232(6) 1.7531(5) 0.7393(5)
H6A H -0.2571 1.8172 0.7797
C19A C -0.1346(5) 1.7678(5) 0.6468(5)
H7A H -0.1076 1.8421 0.6248
C20A C -0.1201(5) 1.5666(5) 0.6195(5)
H8A H -0.0845 1.5037 0.5782
C21A C -0.3693(5) 1.3779(5) 1.0870(5)
C22A C -0.2540(5) 1.4346(5) 1.0252(4)
C23A C -0.1471(5) 1.3936(5) 0.9570(4)
C24A C -0.1096(5) 1.2712(5) 0.9249(4)
C25A C -0.1352(5) 1.5799(5) 0.9580(4)
C26A C -0.0927(5) 1.7000(5) 0.9349(4)
C27A C -0.1568(6) 1.7953(6) 0.9882(5)
H9A H -0.2263 1.7852 1.0444
C28A C -0.1156(6) 1.9060(5) 0.9562(6)
H10A H -0.1585 1.9706 0.9906
C29A C -0.0121(6) 1.9209(5) 0.8745(5)
H11A H 0.0144 1.9956 0.8535
C30A C 0.0132(5) 1.7185(5) 0.8537(5)
H12A H 0.0583 1.6551 0.8190
N1A N 0.4014(4) 0.7861(4) 0.6664(4)
H13A H 0.3271 0.7984 0.7036
N2A N 0.5915(4) 0.8219(4) 0.5715(4)
N3A N 0.3192(4) 1.1491(4) 0.7011(4)
N4A N -0.1702(4) 1.3324(4) 0.7148(4)
N5A N -0.3567(4) 1.3958(4) 0.8000(4)
H14A H -0.4175 1.4430 0.8253
N6A N -0.0857(4) 1.6758(4) 0.5867(4)
N7A N -0.0742(4) 1.4858(4) 0.9143(4)
N8A N -0.2450(4) 1.5535(4) 1.0251(4)
H15A H -0.2990 1.6020 1.0609
N9A N 0.0519(4) 1.8280(4) 0.8244(4)
O1A O 0.2812(4) 0.5775(4) 0.7153(4)
O2A O 0.1689(4) 1.1047(3) 0.5507(3)
O3A O 0.4527(4) 0.4766(4) 0.6444(4)
H16A H 0.5211 0.4907 0.6062
O4A O 0.6605(4) 0.5144(3) 0.5366(4)
O5A O 0.7645(4) 0.6648(4) 0.4535(3)
O6A O 0.0799(4) 1.4507(3) 0.7147(3)
O7A O 0.2045(4) 1.1867(4) 0.7463(3)
O8A O -0.5640(4) 1.2760(4) 0.9079(4)
O9A O -0.4682(4) 1.1062(4) 0.8739(4)
H17A H -0.4014 1.0815 0.8381
O10A O -0.2573(4) 1.0345(4) 0.7705(4)
O11A O -0.0763(4) 1.1088(3) 0.6873(3)
O12A O -0.0043(4) 1.6914(4) 0.4927(3)
O12_2 O 0.0043(4) 1.3086(4) 0.5073(3)
O12A_2 O 0.9957(4) 0.6914(4) 0.4927(3)
O13A O -0.4577(4) 1.4390(4) 1.1315(4)
O14A O -0.3688(4) 1.2672(4) 1.0921(4)
H18A H -0.3005 1.2413 1.0611
O15A O -0.1720(4) 1.1912(4) 0.9800(3)
O16A O -0.0204(4) 1.2542(3) 0.8465(3)
O17A O 0.1520(4) 1.8422(4) 0.7463(4)
O18 O 0.8422(5) 0.1331(5) 0.4606(5)
H19 H 0.9066 0.0833 0.4511
H20 H 0.7659 0.1069 0.4856
loop_
_geom_bond_atom_site_label_1
_geom_bond_atom_site_label_2
_geom_bond_site_symmetry_1
_geom_bond_site_symmetry_2
Tb1 N4 1_555 1_555
C1 C2 1_555 1_555
C2 C3 1_555 1_555
C3 C4 1_555 1_555
C4 O4 1_555 1_555
C5 C6 1_555 1_555
C6 C7 1_555 1_555
C7 H1 1_555 1_555
C8 C7 1_555 1_555
H2 C8 1_555 1_555
C9 C8 1_555 1_555
H3 C9 1_555 1_555
C10 C6 1_555 1_555
H4 C10 1_555 1_555
C11 C12 1_555 1_555
C12 C13 1_555 1_555
C13 C14 1_555 1_555
C14 O10 1_555 1_555
C15 C16 1_555 1_555
C16 C17 1_555 1_555
C17 H5 1_555 1_555
C18 C17 1_555 1_555
H6 C18 1_555 1_555
C19 C18 1_555 1_555
H7 C19 1_555 1_555
C20 C16 1_555 1_555
H8 C20 1_555 1_555
C21 C22 1_555 1_555
C22 C23 1_555 1_555
C23 C24 1_555 1_555
C24 O15 1_555 1_555
C25 C26 1_555 1_555
C26 C27 1_555 1_555
C27 H9 1_555 1_555
C28 C27 1_555 1_555
H10 C28 1_555 1_555
C29 C28 1_555 1_555
H11 C29 1_555 1_555
C30 C26 1_555 1_555
H12 C30 1_555 1_555
N1 C2 1_555 1_555
H13 N1 1_555 1_555
N2 C3 1_555 1_555
N3 C9 1_555 1_555
N4 C13 1_555 1_555
N5 C12 1_555 1_555
H14 N5 1_555 1_555
N6 C19 1_555 1_555
N7 C23 1_555 1_555
N8 C22 1_555 1_555
H15 N8 1_555 1_555
N9 C29 1_555 1_555
O1 C1 1_555 1_555
O2 Tb1 1_555 1_555
O3 C1 1_555 1_555
H16 O3 1_555 1_555
O5 C4 1_555 1_555
O6 Tb1 1_555 1_555
O7 Tb1 1_555 1_555
O8 C11 1_555 1_555
O9 C11 1_555 1_555
H17 O9 1_555 1_555
O11 Tb1 1_555 1_555
O12 N6 1_555 1_555
O13 C21 1_555 1_555
O14 C21 1_555 1_555
H18 O14 1_555 1_555
O16 Tb1 1_555 1_555
O17 N9 1_555 1_555
O18 H19 1_555 1_555
H20 O18 1_555 1_555
Tb1A O5 1_555 1_555
Tb1_2 O12A 1_555 1_555
Tb1A_2 O12 1_555 1_555
C1A C2A 1_555 1_555
C2A C3A 1_555 1_555
C3A C4A 1_555 1_555
C4A O4A 1_555 1_555
C5A C6A 1_555 1_555
C6A C7A 1_555 1_555
C7A H1A 1_555 1_555
C8A C7A 1_555 1_555
H2A C8A 1_555 1_555
C9A C8A 1_555 1_555
H3A C9A 1_555 1_555
C10A C6A 1_555 1_555
H4A C10A 1_555 1_555
C11A C12A 1_555 1_555
C12A C13A 1_555 1_555
C13A C14A 1_555 1_555
C14A O10A 1_555 1_555
C15A C16A 1_555 1_555
C16A C17A 1_555 1_555
C17A H5A 1_555 1_555
C18A C17A 1_555 1_555
H6A C18A 1_555 1_555
C19A C18A 1_555 1_555
H7A C19A 1_555 1_555
C20A C16A 1_555 1_555
H8A C20A 1_555 1_555
C21A C22A 1_555 1_555
C22A C23A 1_555 1_555
C23A C24A 1_555 1_555
C24A O15A 1_555 1_555
C25A C26A 1_555 1_555
C26A C27A 1_555 1_555
C27A H9A 1_555 1_555
C28A C27A 1_555 1_555
H10A C28A 1_555 1_555
C29A C28A 1_555 1_555
H11A C29A 1_555 1_555
C30A C26A 1_555 1_555
H12A C30A 1_555 1_555
N1A C2A 1_555 1_555
H13A N1A 1_555 1_555
N2A C3A 1_555 1_555
N3A C9A 1_555 1_555
N4A Tb1A 1_555 1_555
N5A C12A 1_555 1_555
H14A N5A 1_555 1_555
N6A C19A 1_555 1_555
N7A C23A 1_555 1_555
N8A C22A 1_555 1_555
H15A N8A 1_555 1_555
N9A C29A 1_555 1_555
O1A C1A 1_555 1_555
O2A Tb1A 1_555 1_555
O3A C1A 1_555 1_555
H16A O3A 1_555 1_555
O5A Tb1 1_555 1_555
O6A Tb1A 1_555 1_555
O7A Tb1A 1_555 1_555
O8A C11A 1_555 1_555
O9A C11A 1_555 1_555
H17A O9A 1_555 1_555
O11A Tb1A 1_555 1_555
O12A N6A 1_555 1_555
O12_2 Tb1A 1_555 1_555
O12A_2 Tb1 1_555 1_555
O13A C21A 1_555 1_555
O14A C21A 1_555 1_555
H18A O14A 1_555 1_555
O16A Tb1A 1_555 1_555
O17A N9A 1_555 1_555
C5 N1 1_555 1_555
C5 N2 1_555 1_555
C10 N3 1_555 1_555
C14 O11 1_555 1_555
C15 N4 1_555 1_555
C15 N5 1_555 1_555
C20 N6 1_555 1_555
C24 O16 1_555 1_555
C25 N7 1_555 1_555
C25 N8 1_555 1_555
C30 N9 1_555 1_555
N3 O7 1_555 1_555
C4A O5A 1_555 1_555
C5A N1A 1_555 1_555
C5A N2A 1_555 1_555
C10A N3A 1_555 1_555
C13A N4A 1_555 1_555
C14A O11A 1_555 1_555
C15A N4A 1_555 1_555
C15A N5A 1_555 1_555
C20A N6A 1_555 1_555
C24A O16A 1_555 1_555
C25A N7A 1_555 1_555
C25A N8A 1_555 1_555
C30A N9A 1_555 1_555
N3A O7A 1_555 1_555

#END
