
#######################################################################
#
#                 Cambridge Crystallographic Data Centre
#                                CCDC 
#
#######################################################################
#
# If this CIF has been generated from an entry in the Cambridge 
# Structural Database, then it will include bibliographic, chemical, 
# crystal, experimental, refinement or atomic coordinate data resulting 
# from the CCDC's data processing and validation procedures.
#
#######################################################################

data_LAWPUV
_symmetry_cell_setting           monoclinic
_symmetry_space_group_name_H-M   'C 2/c'
_symmetry_Int_Tables_number      15
_space_group_name_Hall           '-C 2yn'
loop_
_symmetry_equiv_pos_site_id
_symmetry_equiv_pos_as_xyz
1 x,y,z
2 1/2+x,1/2+y,z
3 -x,y,1/2-z
4 1/2-x,1/2+y,1/2-z
5 -x,-y,-z
6 1/2-x,1/2-y,-z
7 x,-y,1/2+z
8 1/2+x,1/2-y,1/2+z
_cell_length_a                   12.3034(3)
_cell_length_b                   10.1981(3)
_cell_length_c                   19.2165(6)
_cell_angle_alpha                90
_cell_angle_beta                 105.0770(10)
_cell_angle_gamma                90
_cell_volume                     2328.12
loop_
_atom_site_label
_atom_site_type_symbol
_atom_site_fract_x
_atom_site_fract_y
_atom_site_fract_z
Ag1 Ag 0.276157(15) 0.891985(17) 0.634805(9)
N1 N 0.34751(16) 1.0062(2) 0.72846(10)
C1 C 0.3738(2) 0.9430(2) 0.79216(13)
H1 H 0.3737 0.8498 0.7923
C2 C 0.4009(2) 1.0082(2) 0.85736(12)
H2 H 0.4194 0.9602 0.9012
C3 C 0.40108(18) 1.1442(2) 0.85861(11)
C4 C 0.3779(2) 1.2098(2) 0.79293(12)
H3 H 0.3805 1.3029 0.7916
C5 C 0.3510(2) 1.1378(2) 0.72921(13)
H4 H 0.3344 1.1834 0.6846
N2 N 0.31848(15) 1.25827(17) 0.94807(9)
C6 C 0.25093(18) 1.1399(2) 0.95485(11)
H5 H 0.2982 1.0779 0.9895
H6 H 0.2267 1.0954 0.9075
C7 C 0.35160(18) 1.3236(2) 1.01970(11)
H7 H 0.4001 1.2639 1.0552
H8 H 0.3956 1.4036 1.0164
C8 C 0.42414(18) 1.2179(2) 0.92897(12)
H9 H 0.4694 1.1617 0.9679
H10 H 0.4691 1.2971 0.9257
Ag1E Ag 0.223843(15) 1.608015(17) 1.365195(9)
Ag1C Ag 0.223843(15) 1.391985(17) 0.865195(9)
Ag1F Ag 0.276157(15) 1.108015(17) 1.134805(9)
N1E N 0.15249(16) 1.4938(2) 1.27154(10)
C1E C 0.1262(2) 1.5570(2) 1.20784(13)
H1E H 0.1263 1.6502 1.2077
C2E C 0.0991(2) 1.4918(2) 1.14264(12)
H2E H 0.0806 1.5398 1.0988
C3E C 0.09892(18) 1.3558(2) 1.14139(11)
C4E C 0.1221(2) 1.2902(2) 1.20707(12)
H3E H 0.1195 1.1971 1.2084
C5E C 0.1490(2) 1.3622(2) 1.27079(13)
H4E H 0.1656 1.3166 1.3154
N2E N 0.18152(15) 1.24173(17) 1.05193(9)
N2C N 0.18152(15) 0.75827(17) 0.55193(9)
N2F N 0.31848(15) 1.74173(17) 1.44807(9)
C6E C 0.24907(18) 1.3601(2) 1.04515(11)
H5E H 0.2018 1.4221 1.0105
H6E H 0.2733 1.4046 1.0925
C7E C 0.14840(18) 1.1764(2) 0.98030(11)
H7E H 0.0999 1.2361 0.9448
H8E H 0.1044 1.0964 0.9836
C8E C 0.07586(18) 1.2821(2) 1.07103(12)
H9E H 0.0306 1.3383 1.0321
H10E H 0.0309 1.2029 1.0743
P1 P 0.7500 0.2500 1.0000
F1 F 0.67096(18) 0.35781(19) 0.95329(14)
F2 F 0.67359(14) 0.13818(16) 0.95152(10)
F3 F 0.67087(18) 0.2445(3) 1.05298(12)
F1E F 0.82904(18) 0.14219(19) 1.04671(14)
F2E F 0.82641(14) 0.36182(16) 1.04848(10)
F3E F 0.82913(18) 0.2555(3) 0.94702(12)
P2 P 0.0000 0.92294(8) 0.2500
F4 F 0.0974(13) 0.8256(13) 0.2905(8)
F5 F 0.1006(13) 1.0188(14) 0.2906(6)
F6 F 0.0704(11) 0.8932(14) 0.1973(5)
F4B F -0.0974(13) 0.8256(13) 0.2095(8)
F5B F -0.1006(13) 1.0188(14) 0.2094(6)
F6B F -0.0704(11) 0.8932(14) 0.3027(5)
F7? F 0.0653(10) 0.9510(13) 0.1883(5)
F8? F 0.0602(7) 1.0379(6) 0.2982(4)
F9? F 0.0591(7) 0.8045(8) 0.2995(4)
loop_
_geom_bond_atom_site_label_1
_geom_bond_atom_site_label_2
_geom_bond_site_symmetry_1
_geom_bond_site_symmetry_2
Ag1 N1 1_555 1_555
N1 C1 1_555 1_555
C1 H1 1_555 1_555
C2 C1 1_555 1_555
H2 C2 1_555 1_555
C3 C2 1_555 1_555
C4 C3 1_555 1_555
H3 C4 1_555 1_555
C5 N1 1_555 1_555
H4 C5 1_555 1_555
N2 C6 1_555 1_555
C6 H5 1_555 1_555
H6 C6 1_555 1_555
C7 N2 1_555 1_555
H7 C7 1_555 1_555
H8 C7 1_555 1_555
C8 C3 1_555 1_555
H9 C8 1_555 1_555
H10 C8 1_555 1_555
P1 F1 1_555 1_555
F2 P1 1_555 1_555
F3 P1 1_555 1_555
P2 F4 1_555 1_555
F5 P2 1_555 1_555
F6 P2 1_555 1_555
Ag1E N1E 1_555 1_555
Ag1C N2 1_555 1_555
Ag1F N2E 1_555 1_555
N1E C1E 1_555 1_555
C1E H1E 1_555 1_555
C2E C1E 1_555 1_555
H2E C2E 1_555 1_555
C3E C2E 1_555 1_555
C4E C3E 1_555 1_555
H3E C4E 1_555 1_555
C5E N1E 1_555 1_555
H4E C5E 1_555 1_555
N2E C6E 1_555 1_555
N2C Ag1 1_555 1_555
N2F Ag1E 1_555 1_555
C6E C7 1_555 1_555
H5E C6E 1_555 1_555
H6E C6E 1_555 1_555
C7E C6 1_555 1_555
H7E C7E 1_555 1_555
H8E C7E 1_555 1_555
C8E C3E 1_555 1_555
H9E C8E 1_555 1_555
H10E C8E 1_555 1_555
F1E P1 1_555 1_555
F2E P1 1_555 1_555
F3E P1 1_555 1_555
F4B P2 1_555 1_555
F5B P2 1_555 1_555
F6B P2 1_555 1_555
C4 C5 1_555 1_555
N2 C8 1_555 1_555
C4E C5E 1_555 1_555
N2E C7E 1_555 1_555
N2E C8E 1_555 1_555

#END
