
#######################################################################
#
#                 Cambridge Crystallographic Data Centre
#                                CCDC 
#
#######################################################################
#
# If this CIF has been generated from an entry in the Cambridge 
# Structural Database, then it will include bibliographic, chemical, 
# crystal, experimental, refinement or atomic coordinate data resulting 
# from the CCDC's data processing and validation procedures.
#
#######################################################################

data_LAWQAD
_symmetry_cell_setting           orthorhombic
_symmetry_space_group_name_H-M   'P b c a'
_symmetry_Int_Tables_number      61
_space_group_name_Hall           '-P 2ac 2ab'
loop_
_symmetry_equiv_pos_site_id
_symmetry_equiv_pos_as_xyz
1 x,y,z
2 1/2-x,-y,1/2+z
3 -x,1/2+y,1/2-z
4 1/2+x,1/2-y,-z
5 -x,-y,-z
6 1/2+x,y,1/2-z
7 x,1/2-y,1/2+z
8 1/2-x,1/2+y,z
_cell_length_a                   10.3370(17)
_cell_length_b                   7.8166(13)
_cell_length_c                   19.933(3)
_cell_angle_alpha                90
_cell_angle_beta                 90
_cell_angle_gamma                90
_cell_volume                     1610.59
loop_
_atom_site_label
_atom_site_type_symbol
_atom_site_fract_x
_atom_site_fract_y
_atom_site_fract_z
Ag1 Ag 0.42810(4) 0.07797(7) 0.29426(3)
Ag2 Ag -0.20031(5) 0.38735(7) 0.32617(3)
I1 I 0.60453(3) 0.18143(5) 0.395583(19)
S1 S 0.23266(12) -0.12708(17) 0.29953(7)
N1 N -0.0340(4) 0.1940(6) 0.3564(2)
N2 N 0.0253(4) 0.0941(6) 0.3075(2)
N3 N 0.1268(4) 0.0556(6) 0.4026(2)
C1 C 0.1227(5) 0.0122(7) 0.3361(3)
C2 C 0.0288(5) 0.1661(8) 0.4119(3)
H1 H 0.0085 0.2164 0.4528
C3 C 0.2167(6) -0.0103(9) 0.4519(3)
H2 H 0.1993 0.0410 0.4947
H3 H 0.3036 0.0164 0.4384
H4 H 0.2070 -0.1322 0.4552
Ag1E Ag -0.07190(4) 0.07797(7) 0.20574(3)
Ag1G Ag 0.07190(4) -0.42203(7) 0.29426(3)
Ag2_2 Ag 0.79969(5) 0.38735(7) 0.32617(3)
Ag2B Ag 0.20031(5) -0.11265(7) 0.17383(3)
Ag2G Ag 0.70031(5) -0.11265(7) 0.32617(3)
I1_2 I -0.39547(3) 0.18143(5) 0.395583(19)
I1G I -0.10453(3) 0.68143(5) 0.395583(19)
S1B S -0.23266(12) 0.37292(17) 0.20047(7)
S1G S 0.26734(12) 0.37292(17) 0.29953(7)
N2E N 0.5253(4) 0.0941(6) 0.1925(2)
loop_
_geom_bond_atom_site_label_1
_geom_bond_atom_site_label_2
_geom_bond_site_symmetry_1
_geom_bond_site_symmetry_2
Ag1 I1 1_555 1_555
Ag2 N1 1_555 1_555
I1 Ag2_2 1_555 1_555
S1 Ag1 1_555 1_555
N1 N2 1_555 1_555
N2 C1 1_555 1_555
N3 C1 1_555 1_555
C1 S1 1_555 1_555
C2 N1 1_555 1_555
H1 C2 1_555 1_555
C3 N3 1_555 1_555
H2 C3 1_555 1_555
H3 C3 1_555 1_555
H4 C3 1_555 1_555
Ag1E N2 1_555 1_555
Ag1G S1 1_555 1_555
Ag2B S1 1_555 1_555
Ag2G I1 1_555 1_555
I1_2 Ag2 1_555 1_555
I1G Ag2 1_555 1_555
S1B Ag2 1_555 1_555
S1G Ag1 1_555 1_555
N2E Ag1 1_555 1_555
N3 C2 1_555 1_555
Ag1E S1B 1_555 1_555

#END
