
#######################################################################
#
#                 Cambridge Crystallographic Data Centre
#                                CCDC 
#
#######################################################################
#
# If this CIF has been generated from an entry in the Cambridge 
# Structural Database, then it will include bibliographic, chemical, 
# crystal, experimental, refinement or atomic coordinate data resulting 
# from the CCDC's data processing and validation procedures.
#
#######################################################################

data_LAWQAC
_symmetry_cell_setting           orthorhombic
_symmetry_space_group_name_H-M   'P b c a'
_symmetry_Int_Tables_number      61
_space_group_name_Hall           '-P 2ac 2ab'
loop_
_symmetry_equiv_pos_site_id
_symmetry_equiv_pos_as_xyz
1 x,y,z
2 1/2-x,-y,1/2+z
3 -x,1/2+y,1/2-z
4 1/2+x,1/2-y,-z
5 -x,-y,-z
6 1/2+x,y,1/2-z
7 x,1/2-y,1/2+z
8 1/2-x,1/2+y,z
_cell_length_a                   11.830(2)
_cell_length_b                   10.034(2)
_cell_length_c                   17.741(4)
_cell_angle_alpha                90
_cell_angle_beta                 90
_cell_angle_gamma                90
_cell_volume                     2105.9
loop_
_atom_site_label
_atom_site_type_symbol
_atom_site_fract_x
_atom_site_fract_y
_atom_site_fract_z
Ag1 Ag 0.075461(12) 0.135314(14) 0.636462(8)
N1 N 0.17180(13) 0.16022(16) 0.73868(9)
C1 C 0.13158(16) 0.11226(18) 0.80378(11)
H1 H 0.0608 0.0675 0.8034
C2 C 0.18853(17) 0.12490(18) 0.87159(10)
H2 H 0.1571 0.0892 0.9165
C3 C 0.29213(15) 0.19040(17) 0.87332(9)
C4 C 0.33261(15) 0.24232(19) 0.80574(11)
H3 H 0.4021 0.2898 0.8047
C5 C 0.27160(16) 0.22458(19) 0.74028(10)
H4 H 0.3012 0.2592 0.6945
C6 C 0.35621(15) 0.20634(17) 0.94629(10)
H5 H 0.3883 0.2974 0.9486
H6 H 0.3030 0.1963 0.9890
C7 C 0.50278(15) 0.13082(16) 1.02967(9)
H7 H 0.5345 0.2221 1.0311
H8 H 0.4442 0.1241 1.0694
N2 N 0.44998(12) 0.10680(14) 0.95461(8)
C8 C 0.40411(14) -0.03099(16) 0.95444(9)
H9 H 0.3445 -0.0390 0.9933
H10 H 0.3697 -0.0504 0.9048
Ag1D Ag 0.924539(12) -0.135314(14) 1.363538(8)
Ag1E Ag 0.575461(12) 0.135314(14) 0.863538(8)
Ag1A Ag 0.424539(12) -0.135314(14) 1.136462(8)
N1D N 0.82820(13) -0.16022(16) 1.26132(9)
C1D C 0.86842(16) -0.11226(18) 1.19622(11)
H1D H 0.9392 -0.0675 1.1966
C2D C 0.81147(17) -0.12490(18) 1.12841(10)
H2D H 0.8429 -0.0892 1.0835
C3D C 0.70787(15) -0.19040(17) 1.12668(9)
C4D C 0.66739(15) -0.24232(19) 1.19426(11)
H3D H 0.5979 -0.2898 1.1953
C5D C 0.72840(16) -0.22458(19) 1.25972(10)
H4D H 0.6988 -0.2592 1.3055
C6D C 0.64379(15) -0.20634(17) 1.05371(10)
H5D H 0.6117 -0.2974 1.0514
H6D H 0.6970 -0.1963 1.0110
C7D C 0.49722(15) -0.13082(16) 0.97033(9)
H7D H 0.4655 -0.2221 0.9689
H8D H 0.5558 -0.1241 0.9306
N2D N 0.55002(12) -0.10680(14) 1.04539(8)
N2E N -0.05002(12) 0.10680(14) 0.54539(8)
N2A N 1.05002(12) -0.10680(14) 1.45461(8)
C8D C 0.59589(14) 0.03099(16) 1.04556(9)
H9D H 0.6555 0.0390 1.0067
H10D H 0.6303 0.0504 1.0952
B1 B 0.1369(2) 0.4686(2) 0.60807(15)
F1 F 0.09808(15) 0.44545(17) 0.68047(10)
F2 F 0.25483(17) 0.4522(3) 0.61323(12)
F3 F 0.0976(3) 0.3790(3) 0.55893(18)
F4 F 0.1133(4) 0.5972(2) 0.59166(15)
F5? F 0.1941(9) 0.3592(7) 0.5805(4)
F6? F 0.0317(7) 0.4634(13) 0.5683(6)
F7? F 0.1890(7) 0.5783(6) 0.5829(3)
loop_
_geom_bond_atom_site_label_1
_geom_bond_atom_site_label_2
_geom_bond_site_symmetry_1
_geom_bond_site_symmetry_2
Ag1 N1 1_555 1_555
N1 C1 1_555 1_555
C1 H1 1_555 1_555
C2 C1 1_555 1_555
H2 C2 1_555 1_555
C3 C2 1_555 1_555
C4 C3 1_555 1_555
H3 C4 1_555 1_555
C5 N1 1_555 1_555
H4 C5 1_555 1_555
C6 C3 1_555 1_555
H5 C6 1_555 1_555
H6 C6 1_555 1_555
C7 H7 1_555 1_555
H8 C7 1_555 1_555
N2 C6 1_555 1_555
C8 N2 1_555 1_555
H9 C8 1_555 1_555
H10 C8 1_555 1_555
B1 F1 1_555 1_555
F2 B1 1_555 1_555
F3 B1 1_555 1_555
F4 B1 1_555 1_555
Ag1D N1D 1_555 1_555
Ag1E N2 1_555 1_555
Ag1A N2D 1_555 1_555
N1D C1D 1_555 1_555
C1D H1D 1_555 1_555
C2D C1D 1_555 1_555
H2D C2D 1_555 1_555
C3D C2D 1_555 1_555
C4D C3D 1_555 1_555
H3D C4D 1_555 1_555
C5D N1D 1_555 1_555
H4D C5D 1_555 1_555
C6D C3D 1_555 1_555
H5D C6D 1_555 1_555
H6D C6D 1_555 1_555
C7D C8 1_555 1_555
H7D C7D 1_555 1_555
H8D C7D 1_555 1_555
N2D C6D 1_555 1_555
N2E Ag1 1_555 1_555
N2A Ag1D 1_555 1_555
C8D C7 1_555 1_555
H9D C8D 1_555 1_555
H10D C8D 1_555 1_555
C4 C5 1_555 1_555
C7 N2 1_555 1_555
C4D C5D 1_555 1_555
C7D N2D 1_555 1_555
N2D C8D 1_555 1_555

#END
