
#######################################################################
#
#                 Cambridge Crystallographic Data Centre
#                                CCDC 
#
#######################################################################
#
# If this CIF has been generated from an entry in the Cambridge 
# Structural Database, then it will include bibliographic, chemical, 
# crystal, experimental, refinement or atomic coordinate data resulting 
# from the CCDC's data processing and validation procedures.
#
#######################################################################

data_LAWRIL
_symmetry_cell_setting           triclinic
_symmetry_space_group_name_H-M   'P -1'
_symmetry_Int_Tables_number      2
_space_group_name_Hall           '-P 1'
loop_
_symmetry_equiv_pos_site_id
_symmetry_equiv_pos_as_xyz
1 x,y,z
2 -x,-y,-z
_cell_length_a                   12.043(2)
_cell_length_b                   14.010(3)
_cell_length_c                   17.876(4)
_cell_angle_alpha                71.79(3)
_cell_angle_beta                 87.39(3)
_cell_angle_gamma                86.65(3)
_cell_volume                     2858.95
loop_
_atom_site_label
_atom_site_type_symbol
_atom_site_fract_x
_atom_site_fract_y
_atom_site_fract_z
Mn1 Mn 0.38681(4) 0.06147(3) 0.03293(3)
Mn2 Mn -0.07857(5) 0.92400(4) -0.42536(3)
F1 F 0.28880(19) 0.52594(15) 0.07827(13)
F2 F -0.2292(2) 0.43119(17) -0.2823(2)
O1 O 0.4151(2) 0.04503(18) 0.15703(16)
O2 O 0.5975(3) 0.15860(19) -0.17039(18)
O3 O -0.2286(3) 0.9478(3) -0.4945(3)
O4 O 0.54678(19) 0.08894(15) -0.04447(15)
O5 O 0.4123(2) 0.21356(15) 0.02058(15)
O6 O 0.2145(3) 0.8608(2) -0.5385(3)
O7 O 0.0438(2) 0.91583(17) -0.52164(16)
O8 O -0.0885(2) 0.76858(17) -0.41765(17)
O9 O -0.2561(2) 0.8263(2) -0.20658(18)
O10 O -0.1572(3) 0.91010(19) -0.31206(17)
O11 O 0.0717(2) 0.9046(2) -0.36149(17)
O12 O 0.1424(2) 0.8901(2) -0.24759(17)
O13 O 0.21264(19) 0.05534(16) 0.07010(17)
O14 O 0.0553(2) 0.11178(18) 0.11512(17)
O15 O 0.3150(2) 0.08932(18) -0.08334(17)
O16 O 0.1446(2) 0.0786(2) -0.1185(2)
O17 O 0.2089(2) 0.49577(19) -0.24929(18)
N1 N 0.2148(3) 0.8837(2) -0.10389(19)
H1 H 0.2002 0.9454 -0.0994
H2 H 0.1755 0.8785 -0.1439
N2 N 0.3220(2) 0.68702(18) -0.05793(18)
N3 N 0.4985(2) 0.44304(18) -0.17624(17)
N4 N -0.0434(3) 0.0809(2) -0.2063(2)
H3 H 0.0195 0.0830 -0.1817
H4 H -0.0649 0.0170 -0.1902
N5 N -0.0687(2) 0.2874(2) -0.2970(2)
N6 N 0.1524(3) 0.5656(2) -0.4511(2)
C1 C 0.2323(4) 0.4940(4) -0.4725(4)
H5 H 0.2048 0.4625 -0.5095
C2 C 0.3026(5) 0.4300(5) -0.4135(4)
H6 H 0.3178 0.3614 -0.4137
H7 H 0.2986 0.4389 -0.3617
C3 C 0.3487(4) 0.5144(4) -0.4820(3)
H8 H 0.3721 0.5738 -0.4713
H9 H 0.3913 0.4962 -0.5233
C4 C 0.5538(3) 0.1645(2) -0.1081(2)
C5 C 0.5074(3) 0.2658(2) -0.1047(2)
C6 C 0.4439(3) 0.2808(2) -0.0402(2)
C7 C 0.4142(3) 0.3856(2) -0.0463(2)
C8 C 0.3597(3) 0.4083(2) 0.0181(2)
H10 H 0.3419 0.3571 0.0638
C9 C 0.3335(3) 0.5059(2) 0.0125(2)
C10 C 0.3530(3) 0.5878(2) -0.0566(2)
C11 C 0.4079(3) 0.5648(2) -0.1191(2)
H11 H 0.4236 0.6163 -0.1652
C12 C 0.4403(3) 0.4651(2) -0.11408(19)
C13 C 0.5309(3) 0.3470(2) -0.1693(2)
H12 H 0.5719 0.3347 -0.2110
C14 C 0.5333(3) 0.5255(2) -0.2450(2)
H13 H 0.5920 0.5659 -0.2359
C15 C 0.4488(3) 0.5817(3) -0.3023(2)
H14 H 0.4557 0.6537 -0.3256
H15 H 0.3730 0.5600 -0.2932
C16 C 0.5353(4) 0.5134(3) -0.3247(2)
H16 H 0.5116 0.4503 -0.3291
H17 H 0.5944 0.5440 -0.3616
C17 C 0.2026(3) 0.7034(2) -0.0395(2)
H18 H 0.1808 0.6524 0.0088
H19 H 0.1581 0.6974 -0.0816
C18 C 0.1813(3) 0.8068(3) -0.0302(2)
H20 H 0.1030 0.8172 -0.0185
H21 H 0.2236 0.8123 0.0130
C19 C 0.3352(3) 0.8700(2) -0.1208(3)
H22 H 0.3778 0.8781 -0.0786
H23 H 0.3568 0.9206 -0.1694
C20 C 0.3600(3) 0.7654(2) -0.1283(2)
H24 H 0.3232 0.7601 -0.1740
H25 H 0.4395 0.7554 -0.1364
C21 C 0.1191(4) 0.8454(3) -0.5144(3)
C22 C 0.0874(3) 0.7387(3) -0.4737(2)
C23 C -0.0128(3) 0.7092(2) -0.4302(2)
C24 C -0.0261(3) 0.6009(2) -0.3979(2)
C25 C -0.1221(3) 0.5641(2) -0.3539(2)
H26 H -0.1782 0.6087 -0.3459
C26 C -0.1335(3) 0.4632(3) -0.3227(3)
C27 C -0.0516(3) 0.3902(2) -0.3305(2)
C28 C 0.0419(3) 0.4270(2) -0.3744(3)
H27 H 0.0977 0.3820 -0.3823
C29 C 0.0557(3) 0.5308(2) -0.4078(2)
C30 C 0.1646(4) 0.6661(3) -0.4823(3)
H28 H 0.2296 0.6874 -0.5114
C31 C 0.0153(4) 0.2196(3) -0.3188(3)
H29 H 0.0854 0.2228 -0.2952
H30 H 0.0269 0.2410 -0.3755
C32 C -0.0219(4) 0.1125(3) -0.2910(3)
H31 H -0.0889 0.1081 -0.3176
H32 H 0.0355 0.0683 -0.3039
C33 C -0.1307(4) 0.1465(3) -0.1851(3)
H33 H -0.1432 0.1251 -0.1284
H34 H -0.1997 0.1416 -0.2093
C34 C -0.0958(4) 0.2546(3) -0.2130(3)
H35 H -0.1558 0.2979 -0.2019
H36 H -0.0315 0.2605 -0.1843
C35 C -0.0852(3) 0.7489(2) -0.2322(2)
C36 C 0.0287(3) 0.7612(2) -0.25196(19)
C37 C 0.1003(3) 0.6755(2) -0.2368(2)
H37 H 0.1754 0.6827 -0.2508
C38 C 0.0616(3) 0.5788(2) -0.2009(2)
C39 C -0.0502(3) 0.5687(2) -0.1780(2)
H38 H -0.0765 0.5054 -0.1519
C40 C -0.1224(3) 0.6532(2) -0.1942(2)
H39 H -0.1972 0.6455 -0.1792
C41 C 0.1365(3) 0.2171(2) -0.0026(2)
C42 C 0.1766(2) 0.2175(2) -0.0768(2)
C43 C 0.1773(3) 0.3070(2) -0.1389(2)
H40 H 0.2060 0.3073 -0.1881
C44 C 0.1349(3) 0.3969(2) -0.1274(2)
C45 C 0.0934(3) 0.3963(2) -0.0535(2)
H41 H 0.0654 0.4557 -0.0455
C46 C 0.0936(3) 0.3069(2) 0.0086(2)
H42 H 0.0652 0.3067 0.0579
C47 C -0.1724(3) 0.8354(2) -0.2510(2)
C48 C 0.0830(3) 0.8604(2) -0.2893(2)
C49 C 0.1347(3) 0.1209(2) 0.0662(2)
C50 C 0.2153(3) 0.1207(2) -0.0935(2)
C51 C 0.1408(3) 0.4901(2) -0.1958(2)
Mn1A Mn 0.61319(4) -0.06147(3) -0.03293(3)
Mn2A Mn 0.07857(5) 1.07600(4) -0.57464(3)
O4A O 0.45322(19) -0.08894(15) 0.04447(15)
O7A O -0.0438(2) 1.08417(17) -0.47836(16)
O18 O 0.3286(4) 0.9414(3) -0.6793(3)
O19 O 0.2628(5) 1.0511(4) -0.3452(4)
O20 O 0.5285(5) 0.2607(4) -0.3373(4)
O21 O -0.4359(5) 0.7774(5) -0.2764(4)
O22 O -0.3491(5) 0.7431(5) -0.4141(5)
O23 O 0.4575(6) 0.7572(5) -0.5120(4)
O24 O 0.3334(6) 0.1793(5) -0.2661(4)
O25 O 0.5232(5) 0.0287(6) 0.3513(5)
O26 O -0.4326(14) 1.0410(14) -0.5040(12)
O27 O 0.229(2) 1.223(2) -0.4504(19)
loop_
_geom_bond_atom_site_label_1
_geom_bond_atom_site_label_2
_geom_bond_site_symmetry_1
_geom_bond_site_symmetry_2
Mn1 O1 1_555 1_555
Mn2 O3 1_555 1_555
F1 C9 1_555 1_555
F2 C26 1_555 1_555
O2 C4 1_555 1_555
O4 Mn1 1_555 1_555
O5 Mn1 1_555 1_555
O6 C21 1_555 1_555
O7 Mn2 1_555 1_555
O8 Mn2 1_555 1_555
O9 C47 1_555 1_555
O10 Mn2 1_555 1_555
O11 Mn2 1_555 1_555
O12 C48 1_555 1_555
O13 Mn1 1_555 1_555
O14 C49 1_555 1_555
O15 Mn1 1_555 1_555
O16 C50 1_555 1_555
O17 C51 1_555 1_555
N1 H1 1_555 1_555
H2 N1 1_555 1_555
N2 C10 1_555 1_555
N3 C12 1_555 1_555
N4 H3 1_555 1_555
H4 N4 1_555 1_555
N5 C27 1_555 1_555
N6 C1 1_555 1_555
C1 H5 1_555 1_555
C2 C1 1_555 1_555
H6 C2 1_555 1_555
H7 C2 1_555 1_555
C3 C1 1_555 1_555
H8 C3 1_555 1_555
H9 C3 1_555 1_555
C4 O4 1_555 1_555
C5 C4 1_555 1_555
C6 O5 1_555 1_555
C7 C6 1_555 1_555
C8 C7 1_555 1_555
H10 C8 1_555 1_555
C9 C8 1_555 1_555
C10 C9 1_555 1_555
C11 C10 1_555 1_555
H11 C11 1_555 1_555
C12 C7 1_555 1_555
C13 N3 1_555 1_555
H12 C13 1_555 1_555
C14 N3 1_555 1_555
H13 C14 1_555 1_555
C15 C14 1_555 1_555
H14 C15 1_555 1_555
H15 C15 1_555 1_555
C16 C14 1_555 1_555
H16 C16 1_555 1_555
H17 C16 1_555 1_555
C17 N2 1_555 1_555
H18 C17 1_555 1_555
H19 C17 1_555 1_555
C18 N1 1_555 1_555
H20 C18 1_555 1_555
H21 C18 1_555 1_555
C19 N1 1_555 1_555
H22 C19 1_555 1_555
H23 C19 1_555 1_555
C20 N2 1_555 1_555
H24 C20 1_555 1_555
H25 C20 1_555 1_555
C21 O7 1_555 1_555
C22 C21 1_555 1_555
C23 O8 1_555 1_555
C24 C23 1_555 1_555
C25 C24 1_555 1_555
H26 C25 1_555 1_555
C26 C25 1_555 1_555
C27 C26 1_555 1_555
C28 C27 1_555 1_555
H27 C28 1_555 1_555
C29 N6 1_555 1_555
C30 N6 1_555 1_555
H28 C30 1_555 1_555
C31 N5 1_555 1_555
H29 C31 1_555 1_555
H30 C31 1_555 1_555
C32 N4 1_555 1_555
H31 C32 1_555 1_555
H32 C32 1_555 1_555
C33 N4 1_555 1_555
H33 C33 1_555 1_555
H34 C33 1_555 1_555
C34 N5 1_555 1_555
H35 C34 1_555 1_555
H36 C34 1_555 1_555
C35 C36 1_555 1_555
C36 C37 1_555 1_555
C37 H37 1_555 1_555
C38 C37 1_555 1_555
C39 C38 1_555 1_555
H38 C39 1_555 1_555
C40 C35 1_555 1_555
H39 C40 1_555 1_555
C41 C42 1_555 1_555
C42 C43 1_555 1_555
C43 H40 1_555 1_555
C44 C43 1_555 1_555
C45 C44 1_555 1_555
H41 C45 1_555 1_555
C46 C41 1_555 1_555
H42 C46 1_555 1_555
C47 O10 1_555 1_555
C48 O11 1_555 1_555
C49 O13 1_555 1_555
C50 O15 1_555 1_555
C51 C38 1_555 1_555
Mn1A O4 1_555 1_555
Mn2A O7 1_555 1_555
O4A Mn1 1_555 1_555
O7A Mn2 1_555 1_555
C2 C3 1_555 1_555
C5 C6 1_555 1_555
C5 C13 1_555 1_555
C11 C12 1_555 1_555
C15 C16 1_555 1_555
C17 C18 1_555 1_555
C19 C20 1_555 1_555
C22 C23 1_555 1_555
C22 C30 1_555 1_555
C24 C29 1_555 1_555
C28 C29 1_555 1_555
C31 C32 1_555 1_555
C33 C34 1_555 1_555
C35 C47 1_555 1_555
C36 C48 1_555 1_555
C39 C40 1_555 1_555
C41 C49 1_555 1_555
C42 C50 1_555 1_555
C44 C51 1_555 1_555
C45 C46 1_555 1_555
Mn1A O4A 1_555 1_555
Mn2A O7A 1_555 1_555

#END
