
#######################################################################
#
#                 Cambridge Crystallographic Data Centre
#                                CCDC 
#
#######################################################################
#
# If this CIF has been generated from an entry in the Cambridge 
# Structural Database, then it will include bibliographic, chemical, 
# crystal, experimental, refinement or atomic coordinate data resulting 
# from the CCDC's data processing and validation procedures.
#
#######################################################################

data_LAWROR
_symmetry_cell_setting           triclinic
_symmetry_space_group_name_H-M   'P -1'
_symmetry_Int_Tables_number      2
_space_group_name_Hall           '-P 1'
loop_
_symmetry_equiv_pos_site_id
_symmetry_equiv_pos_as_xyz
1 x,y,z
2 -x,-y,-z
_cell_length_a                   12.070(2)
_cell_length_b                   14.005(3)
_cell_length_c                   17.908(4)
_cell_angle_alpha                72.04(3)
_cell_angle_beta                 87.44(3)
_cell_angle_gamma                87.12(3)
_cell_volume                     2874.67
loop_
_atom_site_label
_atom_site_type_symbol
_atom_site_fract_x
_atom_site_fract_y
_atom_site_fract_z
Cd1 Cd 0.58470(3) -0.42649(2) 0.92248(2)
Cd2 Cd 0.11599(3) 0.44070(2) 0.462033(19)
F1 F 0.7287(3) 0.0747(2) 0.7810(2)
F2 F 0.2109(3) -0.03097(18) 0.42445(16)
O1 O 0.2953(5) -0.3601(3) 1.0436(3)
O2 O 0.7421(6) -0.4472(4) 0.9917(4)
O3 O 0.4659(4) -0.4124(2) 1.02503(19)
O4 O 0.0907(3) 0.4507(2) 0.33404(19)
O5 O 0.5949(3) -0.2631(2) 0.9172(2)
O6 O -0.1004(4) 0.3415(2) 0.6660(2)
O7 O -0.0516(3) 0.40710(19) 0.54118(18)
O8 O 0.0842(3) 0.2813(2) 0.47618(18)
O9 O 0.4510(3) 0.3831(2) 0.3867(2)
O10 O 0.2990(3) 0.4454(2) 0.4310(2)
O11 O 0.1856(3) 0.4070(2) 0.5870(2)
O12 O 0.3581(3) 0.4218(3) 0.6171(3)
O13 O 0.6503(3) -0.4116(2) 0.8000(2)
O14 O 0.7534(3) -0.3186(3) 0.7014(2)
O15 O 0.4203(3) -0.3977(2) 0.86128(19)
O16 O 0.3597(3) -0.3910(2) 0.74629(19)
O17 O 0.2892(3) 0.0054(2) 0.7494(2)
N1 N 0.5407(4) 0.4216(3) 0.7045(3)
H1 H 0.5623 0.4855 0.6891
H2 H 0.4787 0.4191 0.6792
N2 N 0.5662(3) 0.2157(2) 0.7955(2)
N3 N 0.3508(4) -0.0655(3) 0.9508(3)
C1 C 0.2716(5) 0.0049(4) 0.9732(4)
H3 H 0.2984 0.0389 1.0089
C2 C 0.1979(6) 0.0645(6) 0.9120(4)
H4 H 0.2034 0.0525 0.8614
H5 H 0.1800 0.1335 0.9100
C3 C 0.1528(5) -0.0176(5) 0.9812(4)
H6 H 0.1081 0.0021 1.0207
H7 H 0.1315 -0.0790 0.9722
N4 N 0.2829(3) -0.3854(3) 0.6046(2)
H8 H 0.2959 -0.4470 0.5995
H9 H 0.3236 -0.3808 0.6442
N5 N 0.1787(3) -0.1894(2) 0.5607(2)
N6 N 0.0012(3) 0.0566(2) 0.6756(2)
C4 C 0.3909(5) -0.3433(4) 1.0164(3)
C5 C 0.4180(5) -0.2363(3) 0.9752(3)
C6 C 0.5186(4) -0.2064(3) 0.9300(3)
C7 C 0.5274(4) -0.0974(3) 0.8967(3)
C8 C 0.6245(4) -0.0594(3) 0.8528(3)
H10 H 0.6819 -0.1029 0.8457
C9 C 0.6329(4) 0.0416(3) 0.8210(3)
C10 C 0.5500(4) 0.1124(3) 0.8291(3)
C11 C 0.4580(4) 0.0753(3) 0.8737(3)
H11 H 0.4022 0.1195 0.8822
C12 C 0.4466(4) -0.0293(3) 0.9073(3)
C13 C 0.3427(5) -0.1668(4) 0.9826(3)
H12 H 0.2786 -0.1895 1.0122
C14 C 0.5924(5) 0.2488(3) 0.7114(3)
H13 H 0.5275 0.2434 0.6831
H14 H 0.6514 0.2056 0.6996
C15 C 0.6284(5) 0.3565(3) 0.6846(3)
H15 H 0.6962 0.3613 0.7101
H16 H 0.6430 0.3779 0.6283
C16 C 0.5180(5) 0.3890(3) 0.7886(3)
H17 H 0.4595 0.4320 0.8014
H18 H 0.5840 0.3950 0.8155
C17 C 0.4832(5) 0.2821(3) 0.8163(3)
H19 H 0.4715 0.2612 0.8729
H20 H 0.4135 0.2773 0.7930
C18 C -0.0571(4) 0.3330(3) 0.6049(3)
C19 C -0.0091(4) 0.2322(3) 0.6026(3)
C20 C 0.0538(4) 0.2149(3) 0.5378(3)
C21 C 0.0847(3) 0.1103(3) 0.5459(2)
C22 C 0.1388(4) 0.0878(3) 0.4832(3)
H21 H 0.1563 0.1388 0.4375
C23 C 0.1662(4) -0.0101(3) 0.4892(3)
C24 C 0.1475(4) -0.0900(3) 0.5586(3)
C25 C 0.0930(4) -0.0660(3) 0.6202(3)
H22 H 0.0782 -0.1168 0.6666
C26 C 0.0594(4) 0.0334(3) 0.6142(2)
C27 C -0.0311(4) 0.1521(3) 0.6676(3)
H23 H -0.0714 0.1651 0.7091
C28 C -0.0346(4) -0.0241(3) 0.7448(3)
H24 H -0.0938 -0.0647 0.7364
C29 C 0.0491(5) -0.0792(4) 0.8020(3)
H25 H 0.1250 -0.0578 0.7926
H26 H 0.0412 -0.1508 0.8262
C30 C -0.0360(5) -0.0098(4) 0.8230(3)
H27 H -0.0953 -0.0394 0.8600
H28 H -0.0116 0.0537 0.8263
C31 C 0.2955(4) -0.2061(3) 0.5414(3)
H29 H 0.3407 -0.2005 0.5832
H30 H 0.3170 -0.1546 0.4935
C32 C 0.3168(4) -0.3082(3) 0.5306(3)
H31 H 0.2743 -0.3136 0.4874
H32 H 0.3949 -0.3180 0.5187
C33 C 0.1665(4) -0.3720(3) 0.6229(3)
H33 H 0.1461 -0.4232 0.6713
H34 H 0.1227 -0.3803 0.5814
C34 C 0.1402(4) -0.2680(3) 0.6320(3)
H35 H 0.0608 -0.2590 0.6401
H36 H 0.1768 -0.2623 0.6775
C35 C 0.3666(4) 0.2810(3) 0.5034(3)
C36 C 0.3238(4) 0.2819(3) 0.5766(3)
C37 C 0.3203(4) 0.1927(3) 0.6386(3)
H37 H 0.2895 0.1927 0.6872
C38 C 0.3632(4) 0.1031(3) 0.6276(2)
C39 C 0.4052(4) 0.1022(3) 0.5543(3)
H38 H 0.4317 0.0425 0.5463
C40 C 0.4069(4) 0.1922(3) 0.4932(3)
H39 H 0.4360 0.1922 0.4442
C41 C 0.5824(4) -0.2470(3) 0.7294(2)
C42 C 0.4691(4) -0.2587(3) 0.7512(2)
C43 C 0.3997(4) -0.1743(3) 0.7381(2)
H40 H 0.3255 -0.1824 0.7545
C44 C 0.4358(4) -0.0773(3) 0.7015(2)
C45 C 0.5476(4) -0.0661(3) 0.6775(3)
H41 H 0.5738 -0.0027 0.6516
C46 C 0.6177(4) -0.1486(3) 0.6923(3)
H42 H 0.6922 -0.1397 0.6773
C47 C 0.3720(4) 0.3772(3) 0.4348(3)
C48 C 0.2861(4) 0.3780(3) 0.5940(3)
C49 C 0.6687(4) -0.3307(3) 0.7440(3)
C50 C 0.4154(4) -0.3577(3) 0.7887(3)
C51 C 0.3574(4) 0.0096(3) 0.6959(3)
Cd1A Cd 0.41530(3) -0.57351(2) 1.07752(2)
Cd2A Cd -0.11599(3) 0.55930(2) 0.537967(19)
O3A O 0.5341(4) -0.5876(2) 0.97497(19)
O7A O 0.0516(3) 0.59290(19) 0.45882(18)
O18 O 0.8234(5) -0.5574(4) 0.8204(3)
O19 O -0.0351(7) 0.2412(4) 0.8338(4)
O20 O 0.2311(6) -0.5476(5) 0.8393(5)
O21 O 0.9278(7) -0.2782(6) 0.7822(5)
O22 O 0.1629(8) 0.3229(7) 0.7647(4)
O23 O 0.8502(7) -0.2367(6) 0.9190(7)
O24 O 0.0397(9) -0.2589(6) 1.0134(5)
O25 O 1.0191(8) -0.4653(8) 0.8495(6)
O26 O 0.275(2) -0.7218(18) 0.9439(14)
O27 O 0.9325(19) -0.5396(16) 0.9963(13)
loop_
_geom_bond_atom_site_label_1
_geom_bond_atom_site_label_2
_geom_bond_site_symmetry_1
_geom_bond_site_symmetry_2
Cd1 O2 1_555 1_555
Cd2 O4 1_555 1_555
F1 C9 1_555 1_555
F2 C23 1_555 1_555
O1 C4 1_555 1_555
O3 Cd1 1_555 1_555
O5 Cd1 1_555 1_555
O6 C18 1_555 1_555
O7 Cd2 1_555 1_555
O8 Cd2 1_555 1_555
O9 C47 1_555 1_555
O10 Cd2 1_555 1_555
O11 Cd2 1_555 1_555
O12 C48 1_555 1_555
O13 Cd1 1_555 1_555
O14 C49 1_555 1_555
O15 Cd1 1_555 1_555
O16 C50 1_555 1_555
O17 C51 1_555 1_555
N1 H1 1_555 1_555
H2 N1 1_555 1_555
N2 C10 1_555 1_555
N3 C1 1_555 1_555
C1 H3 1_555 1_555
C2 C1 1_555 1_555
H4 C2 1_555 1_555
H5 C2 1_555 1_555
C3 C1 1_555 1_555
H6 C3 1_555 1_555
H7 C3 1_555 1_555
N4 H8 1_555 1_555
H9 N4 1_555 1_555
N5 C24 1_555 1_555
N6 C26 1_555 1_555
C4 O3 1_555 1_555
C5 C4 1_555 1_555
C6 O5 1_555 1_555
C7 C6 1_555 1_555
C8 C7 1_555 1_555
H10 C8 1_555 1_555
C9 C8 1_555 1_555
C10 C9 1_555 1_555
C11 C10 1_555 1_555
H11 C11 1_555 1_555
C12 N3 1_555 1_555
C13 N3 1_555 1_555
H12 C13 1_555 1_555
C14 N2 1_555 1_555
H13 C14 1_555 1_555
H14 C14 1_555 1_555
C15 N1 1_555 1_555
H15 C15 1_555 1_555
H16 C15 1_555 1_555
C16 N1 1_555 1_555
H17 C16 1_555 1_555
H18 C16 1_555 1_555
C17 N2 1_555 1_555
H19 C17 1_555 1_555
H20 C17 1_555 1_555
C18 O7 1_555 1_555
C19 C18 1_555 1_555
C20 O8 1_555 1_555
C21 C20 1_555 1_555
C22 C21 1_555 1_555
H21 C22 1_555 1_555
C23 C22 1_555 1_555
C24 C23 1_555 1_555
C25 C24 1_555 1_555
H22 C25 1_555 1_555
C26 C21 1_555 1_555
C27 N6 1_555 1_555
H23 C27 1_555 1_555
C28 N6 1_555 1_555
H24 C28 1_555 1_555
C29 C28 1_555 1_555
H25 C29 1_555 1_555
H26 C29 1_555 1_555
C30 C28 1_555 1_555
H27 C30 1_555 1_555
H28 C30 1_555 1_555
C31 N5 1_555 1_555
H29 C31 1_555 1_555
H30 C31 1_555 1_555
C32 N4 1_555 1_555
H31 C32 1_555 1_555
H32 C32 1_555 1_555
C33 N4 1_555 1_555
H33 C33 1_555 1_555
H34 C33 1_555 1_555
C34 N5 1_555 1_555
H35 C34 1_555 1_555
H36 C34 1_555 1_555
C35 C36 1_555 1_555
C36 C37 1_555 1_555
C37 H37 1_555 1_555
C38 C37 1_555 1_555
C39 C38 1_555 1_555
H38 C39 1_555 1_555
C40 C35 1_555 1_555
H39 C40 1_555 1_555
C41 C42 1_555 1_555
C42 C43 1_555 1_555
C43 H40 1_555 1_555
C44 C43 1_555 1_555
C45 C44 1_555 1_555
H41 C45 1_555 1_555
C46 C41 1_555 1_555
H42 C46 1_555 1_555
C47 O10 1_555 1_555
C48 O11 1_555 1_555
C49 O13 1_555 1_555
C50 O15 1_555 1_555
C51 C38 1_555 1_555
Cd1A O3 1_555 1_555
Cd2A O7 1_555 1_555
O3A Cd1 1_555 1_555
O7A Cd2 1_555 1_555
C2 C3 1_555 1_555
C5 C6 1_555 1_555
C5 C13 1_555 1_555
C7 C12 1_555 1_555
C11 C12 1_555 1_555
C14 C15 1_555 1_555
C16 C17 1_555 1_555
C19 C20 1_555 1_555
C19 C27 1_555 1_555
C25 C26 1_555 1_555
C29 C30 1_555 1_555
C31 C32 1_555 1_555
C33 C34 1_555 1_555
C35 C47 1_555 1_555
C36 C48 1_555 1_555
C39 C40 1_555 1_555
C41 C49 1_555 1_555
C42 C50 1_555 1_555
C44 C51 1_555 1_555
C45 C46 1_555 1_555
Cd1A O3A 1_555 1_555
Cd2A O7A 1_555 1_555

#END
