
#######################################################################
#
#                 Cambridge Crystallographic Data Centre
#                                CCDC 
#
#######################################################################
#
# If this CIF has been generated from an entry in the Cambridge 
# Structural Database, then it will include bibliographic, chemical, 
# crystal, experimental, refinement or atomic coordinate data resulting 
# from the CCDC's data processing and validation procedures.
#
#######################################################################

data_LAWSEJ
_symmetry_cell_setting           monoclinic
_symmetry_space_group_name_H-M   'C 2/c'
_symmetry_Int_Tables_number      15
_space_group_name_Hall           '-C 2yn'
loop_
_symmetry_equiv_pos_site_id
_symmetry_equiv_pos_as_xyz
1 x,y,z
2 -x,y,1/2-z
3 1/2+x,1/2+y,z
4 1/2-x,1/2+y,1/2-z
5 -x,-y,-z
6 x,-y,1/2+z
7 1/2-x,1/2-y,-z
8 1/2+x,1/2-y,1/2+z
_cell_length_a                   16.7649(16)
_cell_length_b                   9.0953(9)
_cell_length_c                   10.0008(10)
_cell_angle_alpha                90
_cell_angle_beta                 105.991(2)
_cell_angle_gamma                90
_cell_volume                     1465.93
loop_
_atom_site_label
_atom_site_type_symbol
_atom_site_fract_x
_atom_site_fract_y
_atom_site_fract_z
Ba1 Ba 1.113543(13) 0.18975(2) 0.49758(2)
O1 O 1.0000 0.0943(4) 0.2500
O2 O 0.96230(16) 0.3404(3) 0.4330(3)
O3 O 0.95183(16) 0.1344(3) 0.5431(3)
O4 O 0.87510(18) 0.5518(3) 0.6212(3)
O5 O 0.90288(16) 0.4249(3) 0.8181(3)
H1 H 0.9218 0.5037 0.8523
O6 O 0.84149(18) 0.0080(3) 0.2669(3)
O7 O 0.76489(18) 0.1941(3) 0.1589(3)
C1 C 0.8299(2) 0.2823(4) 0.4702(3)
H2 H 0.8138 0.3706 0.4129
C2 C 0.8174(2) 0.3112(4) 0.6151(4)
H3 H 0.8333 0.2234 0.6733
C3 C 0.7739(2) 0.1529(4) 0.3999(4)
H4 H 0.7885 0.0674 0.4615
C4 C 0.9208(2) 0.2490(4) 0.4837(4)
C5 C 0.8694(2) 0.4415(4) 0.6849(4)
C6 C 0.7938(2) 0.1149(4) 0.2639(4)
H5 H 1.0325(19) 0.027(3) 0.244(4)
Ba1F Ba 0.386457(13) 0.31025(2) 0.50242(2)
Ba1A Ba 0.886457(13) 0.18975(2) 0.00242(2)
Ba1D Ba 0.886457(13) -0.18975(2) 0.50242(2)
Ba1D_2 Ba 0.886457(13) 0.81025(2) 0.50242(2)
Ba1A_2 Ba 0.886457(13) 0.18975(2) 1.00242(2)
Ba1G Ba 0.613543(13) 0.31025(2) -0.00242(2)
Ba1B Ba 0.613543(13) 0.68975(2) 0.49758(2)
Ba1B_2 Ba 0.613543(13) -0.31025(2) 0.49758(2)
Ba1G_2 Ba 0.613543(13) 0.31025(2) 0.99758(2)
O1F O 0.5000 0.4057(4) 0.7500
O2F O 0.53770(16) 0.1596(3) 0.5670(3)
O3F O 0.54817(16) 0.3656(3) 0.4569(3)
O3D O 1.04817(16) -0.1344(3) 0.4569(3)
O3B O 0.45183(16) 0.6344(3) 0.5431(3)
O4F O 0.62490(18) -0.0518(3) 0.3788(3)
O4D O 1.12490(18) 0.4482(3) 0.3788(3)
O4B O 0.37510(18) 0.0518(3) 0.6212(3)
O5F O 0.59712(16) 0.0751(3) 0.1819(3)
O5A O 1.09712(16) 0.4249(3) 0.6819(3)
O5G O 0.40288(16) 0.0751(3) 0.3181(3)
H1F H 0.5782 -0.0037 0.1477
H1A H 1.0782 0.5037 0.6477
H1G H 0.4218 -0.0037 0.3523
O6F O 0.65851(18) 0.4920(3) 0.7331(3)
O6D O 1.15851(18) -0.0080(3) 0.7331(3)
O6B O 0.34149(18) 0.5080(3) 0.2669(3)
O7F O 0.73511(18) 0.3059(3) 0.8411(3)
O7A O 1.23511(18) 0.1941(3) 0.3411(3)
O7G O 1.26489(18) 0.3059(3) 0.6589(3)
O7G_2 O 0.26489(18) 0.3059(3) 0.6589(3)
O7A_2 O 0.23511(18) 0.1941(3) 0.3411(3)
C1F C 0.6701(2) 0.2177(4) 0.5298(3)
H2F H 0.6862 0.1294 0.5871
C2F C 0.6826(2) 0.1888(4) 0.3849(4)
H3F H 0.6667 0.2766 0.3267
C3F C 0.7261(2) 0.3471(4) 0.6001(4)
H4F H 0.7115 0.4326 0.5385
C4F C 0.5792(2) 0.2510(4) 0.5163(4)
C5F C 0.6306(2) 0.0585(4) 0.3151(4)
C6F C 0.7062(2) 0.3851(4) 0.7361(4)
H5A H 0.9675(19) 0.027(3) 0.256(4)
H5F H 0.4675(19) 0.473(3) 0.756(4)
H5G H 0.5325(19) 0.473(3) 0.744(4)
loop_
_geom_bond_atom_site_label_1
_geom_bond_atom_site_label_2
_geom_bond_site_symmetry_1
_geom_bond_site_symmetry_2
Ba1 O1 1_555 1_555
O1 H5 1_555 1_555
O2 Ba1 1_555 1_555
O3 Ba1 1_555 1_555
O4 C5 1_555 1_555
O5 H1 1_555 1_555
O6 C6 1_555 1_555
O7 C6 1_555 1_555
C1 H2 1_555 1_555
C2 C1 1_555 1_555
H3 C2 1_555 1_555
C3 C1 1_555 1_555
H4 C3 1_555 1_555
C4 O2 1_555 1_555
C5 O5 1_555 1_555
C6 C3 1_555 1_555
Ba1F O1F 1_555 1_555
Ba1A O1 1_555 1_555
Ba1D O3 1_555 1_555
Ba1D_2 O4 1_555 1_555
Ba1A_2 O5 1_555 1_555
Ba1G O7 1_555 1_555
Ba1B O3F 1_555 1_555
Ba1B_2 O4F 1_555 1_555
Ba1G_2 O1F 1_555 1_555
O1F H5F 1_555 1_555
O2F Ba1F 1_555 1_555
O3F Ba1F 1_555 1_555
O3D Ba1 1_555 1_555
O3B Ba1F 1_555 1_555
O4F C5F 1_555 1_555
O4D Ba1 1_555 1_555
O4B Ba1F 1_555 1_555
O5F Ba1G 1_555 1_555
O5A Ba1 1_555 1_555
O5G Ba1F 1_555 1_555
H1F O5F 1_555 1_555
H1A O5A 1_555 1_555
H1G O5G 1_555 1_555
O6F Ba1B 1_555 1_555
O6D Ba1 1_555 1_555
O6B Ba1F 1_555 1_555
O7F Ba1A_2 1_555 1_555
O7A Ba1 1_555 1_555
O7G Ba1 1_555 1_555
O7G_2 Ba1F 1_555 1_555
O7A_2 Ba1F 1_555 1_555
C1F H2F 1_555 1_555
C2F C3 1_555 1_555
H3F C2F 1_555 1_555
C3F C2 1_555 1_555
H4F C3F 1_555 1_555
C4F O2F 1_555 1_555
C5F O5F 1_555 1_555
C6F O6F 1_555 1_555
H5A O1 1_555 1_555
H5G O1F 1_555 1_555
O3 C4 1_555 1_555
O6 Ba1D 1_555 1_555
O7 Ba1A 1_555 1_555
C1 C4 1_555 1_555
C2 C5 1_555 1_555
Ba1D O3D 1_555 1_555
Ba1B O3B 1_555 1_555
Ba1G_2 O7F 1_555 1_555
O3F C4F 1_555 1_555
O7F C6F 1_555 1_555
C1F C2F 1_555 1_555
C1F C3F 1_555 1_555
C1F C4F 1_555 1_555
C2F C5F 1_555 1_555
C3F C6F 1_555 1_555

#END
