
#######################################################################
#
#                 Cambridge Crystallographic Data Centre
#                                CCDC 
#
#######################################################################
#
# If this CIF has been generated from an entry in the Cambridge 
# Structural Database, then it will include bibliographic, chemical, 
# crystal, experimental, refinement or atomic coordinate data resulting 
# from the CCDC's data processing and validation procedures.
#
#######################################################################

data_LAWTAF
_symmetry_cell_setting           monoclinic
_symmetry_space_group_name_H-M   'P 21/c'
_symmetry_Int_Tables_number      14
_space_group_name_Hall           '-P 2ybc'
loop_
_symmetry_equiv_pos_site_id
_symmetry_equiv_pos_as_xyz
1 x,y,z
2 -x,1/2+y,1/2-z
3 -x,-y,-z
4 x,1/2-y,1/2+z
_cell_length_a                   5.9395(12)
_cell_length_b                   21.623(4)
_cell_length_c                   13.302(3)
_cell_angle_alpha                90
_cell_angle_beta                 101.57(3)
_cell_angle_gamma                90
_cell_volume                     1673.66
loop_
_atom_site_label
_atom_site_type_symbol
_atom_site_fract_x
_atom_site_fract_y
_atom_site_fract_z
Co1 Co 0.5000 -0.5000 0.5000
F1 F -0.1992(2) -0.25649(6) 0.32272(12)
O1 O 0.8391(4) -0.50584(9) 0.25189(17)
O4 O 0.7154(3) -0.50989(6) 0.39756(13)
O6 O 0.3306(2) -0.43262(6) 0.40260(12)
N1 N -0.2484(3) -0.06739(8) 0.08787(15)
H1 H -0.132(4) -0.0476(11) 0.1007(19)
N2 N -0.0715(3) -0.18827(8) 0.16505(14)
N3 N 0.5030(3) -0.34741(8) 0.15283(14)
C1 C 0.7160(4) -0.48679(9) 0.31037(18)
C2 C 0.5648(3) -0.43135(9) 0.27510(16)
C3 C 0.3870(3) -0.40936(9) 0.32454(16)
C4 C 0.2680(3) -0.35369(9) 0.27963(16)
C5 C 0.0892(4) -0.32914(9) 0.32118(17)
H2 H 0.0418 -0.3496 0.3748
C6 C -0.0162(4) -0.27575(10) 0.28434(17)
C7 C 0.0504(4) -0.24120(9) 0.20414(16)
C8 C 0.2240(4) -0.26629(9) 0.16191(17)
H3 H 0.2724 -0.2454 0.1089
C9 C 0.3296(3) -0.32264(9) 0.19694(16)
C10 C 0.6117(4) -0.39917(9) 0.19261(17)
H4 H 0.7278 -0.4144 0.1618
C11 C 0.5752(4) -0.31479(11) 0.06941(18)
H5 H 0.6443 -0.2741 0.0876
C12 C 0.4380(6) -0.31971(15) -0.0371(2)
H6 H 0.4222 -0.2829 -0.0796
H7 H 0.3050 -0.3468 -0.0487
C13 C 0.6693(6) -0.34873(15) -0.0094(2)
H8 H 0.6769 -0.3935 -0.0045
H9 H 0.7940 -0.3296 -0.0354
C14 C -0.1056(5) -0.13813(10) 0.23628(18)
H10 H 0.0374 -0.1158 0.2584
H11 H -0.1496 -0.1558 0.2965
C15 C -0.2917(4) -0.09368(10) 0.18392(18)
H12 H -0.4376 -0.1154 0.1696
H13 H -0.3050 -0.0602 0.2309
C16 C -0.2036(5) -0.11799(11) 0.02209(18)
H14 H -0.1617 -0.1006 -0.0388
H15 H -0.3445 -0.1413 0.0002
C17 C -0.0156(5) -0.16231(12) 0.0717(2)
H16 H -0.0007 -0.1954 0.0241
H17 H 0.1300 -0.1406 0.0882
Co1C Co -0.5000 0.0000 0.0000
Co1C_2 Co 1.5000 -1.0000 1.0000
F1B F 1.1992(2) -0.74351(6) 0.67728(12)
O1B O 0.1609(4) -0.49416(9) 0.74811(17)
O4B O 0.2846(3) -0.49011(6) 0.60244(13)
O6B O 0.6694(2) -0.56738(6) 0.59740(12)
N1A N 0.2484(3) -0.56739(8) 0.41213(15)
N1C N 0.7516(3) -0.43261(8) 0.58787(15)
N1B N 1.2484(3) -0.93261(8) 0.91213(15)
H1A H 0.132(4) -0.5476(11) 0.3993(19)
H1C H 0.868(4) -0.4524(11) 0.6007(19)
H1B H 1.132(4) -0.9524(11) 0.8993(19)
N2B N 1.0715(3) -0.81173(8) 0.83495(14)
N3B N 0.4970(3) -0.65259(8) 0.84717(14)
C1B C 0.2840(4) -0.51321(9) 0.68963(18)
C2B C 0.4352(3) -0.56865(9) 0.72490(16)
C3B C 0.6130(3) -0.59064(9) 0.67546(16)
C4B C 0.7320(3) -0.64631(9) 0.72037(16)
C5B C 0.9108(4) -0.67086(9) 0.67882(17)
H2B H 0.9582 -0.6504 0.6252
C6B C 1.0162(4) -0.72425(10) 0.71566(17)
C7B C 0.9496(4) -0.75880(9) 0.79586(16)
C8B C 0.7760(4) -0.73371(9) 0.83809(17)
H3B H 0.7276 -0.7546 0.8911
C9B C 0.6704(3) -0.67736(9) 0.80306(16)
C10B C 0.3883(4) -0.60083(9) 0.80739(17)
H4B H 0.2722 -0.5856 0.8382
C11B C 0.4248(4) -0.68521(11) 0.93059(18)
H5B H 0.3557 -0.7259 0.9124
C12B C 0.5620(6) -0.68029(15) 1.0371(2)
H6B H 0.5778 -0.7171 1.0796
H7B H 0.6950 -0.6532 1.0487
C13B C 0.3307(6) -0.65127(15) 1.0094(2)
H8B H 0.3231 -0.6065 1.0045
H9B H 0.2060 -0.6704 1.0354
C14B C 1.1056(5) -0.86187(10) 0.76372(18)
H10B H 0.9626 -0.8842 0.7416
H11B H 1.1496 -0.8442 0.7035
C15B C 1.2917(4) -0.90632(10) 0.81608(18)
H12B H 1.4376 -0.8846 0.8304
H13B H 1.3050 -0.9398 0.7691
C16B C 1.2036(5) -0.88201(11) 0.97791(18)
H14B H 1.1617 -0.8994 1.0388
H15B H 1.3445 -0.8587 0.9998
C17B C 1.0156(5) -0.83769(12) 0.9283(2)
H16B H 1.0007 -0.8046 0.9759
H17B H 0.8700 -0.8594 0.9118
O3 O 0.634(3) -0.5182(5) 0.0356(8)
O5 O 1.067(4) -0.4755(12) 0.0822(19)
O2? O 0.829(2) -0.5191(5) 0.0429(8)
loop_
_geom_bond_atom_site_label_1
_geom_bond_atom_site_label_2
_geom_bond_site_symmetry_1
_geom_bond_site_symmetry_2
Co1 O4 1_555 1_555
F1 C6 1_555 1_555
O1 C1 1_555 1_555
O4 C1 1_555 1_555
O6 Co1 1_555 1_555
N1 H1 1_555 1_555
N2 C7 1_555 1_555
N3 C9 1_555 1_555
C1 C2 1_555 1_555
C2 C3 1_555 1_555
C3 O6 1_555 1_555
C4 C3 1_555 1_555
C5 C4 1_555 1_555
H2 C5 1_555 1_555
C6 C5 1_555 1_555
C7 C6 1_555 1_555
C8 C7 1_555 1_555
H3 C8 1_555 1_555
C9 C4 1_555 1_555
C10 N3 1_555 1_555
H4 C10 1_555 1_555
C11 N3 1_555 1_555
H5 C11 1_555 1_555
C12 C11 1_555 1_555
H6 C12 1_555 1_555
H7 C12 1_555 1_555
C13 C11 1_555 1_555
H8 C13 1_555 1_555
H9 C13 1_555 1_555
C14 N2 1_555 1_555
H10 C14 1_555 1_555
H11 C14 1_555 1_555
C15 N1 1_555 1_555
H12 C15 1_555 1_555
H13 C15 1_555 1_555
C16 N1 1_555 1_555
H14 C16 1_555 1_555
H15 C16 1_555 1_555
C17 N2 1_555 1_555
H16 C17 1_555 1_555
H17 C17 1_555 1_555
Co1C N1 1_555 1_555
Co1C_2 N1B 1_555 1_555
F1B C6B 1_555 1_555
O1B C1B 1_555 1_555
O4B Co1 1_555 1_555
O6B Co1 1_555 1_555
N1A Co1 1_555 1_555
N1C Co1 1_555 1_555
N1B H1B 1_555 1_555
H1A N1A 1_555 1_555
H1C N1C 1_555 1_555
N2B C7B 1_555 1_555
N3B C9B 1_555 1_555
C1B O4B 1_555 1_555
C2B C1B 1_555 1_555
C3B O6B 1_555 1_555
C4B C3B 1_555 1_555
C5B C4B 1_555 1_555
H2B C5B 1_555 1_555
C6B C5B 1_555 1_555
C7B C6B 1_555 1_555
C8B C7B 1_555 1_555
H3B C8B 1_555 1_555
C9B C4B 1_555 1_555
C10B N3B 1_555 1_555
H4B C10B 1_555 1_555
C11B N3B 1_555 1_555
H5B C11B 1_555 1_555
C12B C11B 1_555 1_555
H6B C12B 1_555 1_555
H7B C12B 1_555 1_555
C13B C11B 1_555 1_555
H8B C13B 1_555 1_555
H9B C13B 1_555 1_555
C14B N2B 1_555 1_555
H10B C14B 1_555 1_555
H11B C14B 1_555 1_555
C15B N1B 1_555 1_555
H12B C15B 1_555 1_555
H13B C15B 1_555 1_555
C16B N1B 1_555 1_555
H14B C16B 1_555 1_555
H15B C16B 1_555 1_555
C17B N2B 1_555 1_555
H16B C17B 1_555 1_555
H17B C17B 1_555 1_555
C2 C10 1_555 1_555
C8 C9 1_555 1_555
C12 C13 1_555 1_555
C14 C15 1_555 1_555
C16 C17 1_555 1_555
C2B C3B 1_555 1_555
C2B C10B 1_555 1_555
C8B C9B 1_555 1_555
C12B C13B 1_555 1_555
C14B C15B 1_555 1_555
C16B C17B 1_555 1_555

#END
