
#######################################################################
#
#                 Cambridge Crystallographic Data Centre
#                                CCDC 
#
#######################################################################
#
# If this CIF has been generated from an entry in the Cambridge 
# Structural Database, then it will include bibliographic, chemical, 
# crystal, experimental, refinement or atomic coordinate data resulting 
# from the CCDC's data processing and validation procedures.
#
#######################################################################

data_LAXGOH02
_symmetry_cell_setting           monoclinic
_symmetry_space_group_name_H-M   'P 21/n'
_symmetry_Int_Tables_number      14
_space_group_name_Hall           '-P 2yn'
loop_
_symmetry_equiv_pos_site_id
_symmetry_equiv_pos_as_xyz
1 x,y,z
2 1/2-x,1/2+y,1/2-z
3 -x,-y,-z
4 1/2+x,1/2-y,1/2+z
_cell_length_a                   8.4612(9)
_cell_length_b                   13.1272(16)
_cell_length_c                   9.4855(11)
_cell_angle_alpha                90
_cell_angle_beta                 94.652(7)
_cell_angle_gamma                90
_cell_volume                     1050.1
loop_
_atom_site_label
_atom_site_type_symbol
_atom_site_fract_x
_atom_site_fract_y
_atom_site_fract_z
Gd1 Gd -0.03892(2) 0.268661(14) 0.508060(18)
O1 O 0.1587(3) 0.1382(2) 0.6109(3)
O2 O 0.2172(3) 0.2125(2) 0.4162(3)
O3 O 0.3503(3) 0.1139(2) 0.1579(3)
O4 O 0.1680(3) 0.0108(2) 0.2320(3)
O5 O -0.3075(4) 0.2737(3) 0.4033(4)
O6 O 0.4632(3) 0.2057(2) 0.7489(3)
O7 O -0.1484(4) 0.1851(3) 0.6962(4)
O8 O 0.1699(4) 0.3760(3) 0.6154(4)
C1 C 0.2466(4) 0.1475(3) 0.5113(4)
C2 C 0.3819(4) 0.0743(3) 0.5022(4)
C3 C 0.4760(4) 0.0491(3) 0.6263(4)
C4 C 0.4609(4) 0.1111(3) 0.7566(4)
C5 C 0.4078(4) 0.0262(3) 0.3758(4)
C6 C 0.3008(4) 0.0522(3) 0.2433(4)
O9 O 0.4505(4) 0.0677(2) 0.8732(3)
O10 O -0.1099(4) 0.1018(3) 0.3992(4)
H1 H -0.160(6) 0.123(5) 0.710(5)
H2 H -0.184(6) 0.214(5) 0.746(6)
H3 H -0.375(7) 0.299(5) 0.442(6)
H4 H -0.321(7) 0.294(5) 0.326(7)
H5 H 0.251(7) 0.377(4) 0.593(6)
H6 H 0.146(7) 0.440(6) 0.609(7)
O1B O 0.8413(3) -0.1382(2) 0.3891(3)
O2B O 0.7828(3) -0.2125(2) 0.5838(3)
C1B C 0.7534(4) -0.1475(3) 0.4887(4)
C2B C 0.6181(4) -0.0743(3) 0.4978(4)
C3B C 0.5240(4) -0.0491(3) 0.3737(4)
O3B O 0.6497(3) -0.1139(2) 0.8421(3)
O4B O 0.8320(3) -0.0108(2) 0.7680(3)
C5B C 0.5922(4) -0.0262(3) 0.6242(4)
C6B C 0.6992(4) -0.0522(3) 0.7567(4)
O6B O 0.5368(3) -0.2057(2) 0.2511(3)
C4B C 0.5391(4) -0.1111(3) 0.2434(4)
O9B O 0.5495(4) -0.0677(2) 0.1268(3)
Gd1B Gd 1.03892(2) -0.268661(14) 0.491940(18)
O5B O 1.3075(4) -0.2737(3) 0.5967(4)
O7B O 1.1484(4) -0.1851(3) 0.3038(4)
O8B O 0.8301(4) -0.3760(3) 0.3846(4)
O10B O 1.1099(4) -0.1018(3) 0.6008(4)
H1B H 1.160(6) -0.123(5) 0.290(5)
H2B H 1.184(6) -0.214(5) 0.254(6)
H3B H 1.375(7) -0.299(5) 0.558(6)
H4B H 1.321(7) -0.294(5) 0.674(7)
H5B H 0.749(7) -0.377(4) 0.407(6)
H6B H 0.854(7) -0.440(6) 0.391(7)
Gd1A Gd 0.53892(2) -0.231339(14) -0.008060(18)
Gd1A_2 Gd 0.53892(2) -0.231339(14) 0.991940(18)
Gd1C Gd 0.46108(2) 0.231339(14) 0.008060(18)
Gd1C_2 Gd 0.46108(2) 0.231339(14) 1.008060(18)
O3A O 1.1497(3) -0.3861(2) 0.3421(3)
O3C O -0.1497(3) 0.3861(2) 0.6579(3)
O6A O 1.0368(3) -0.2943(2) 0.7511(3)
O6C O -0.0368(3) 0.2943(2) 0.2489(3)
O9A O 1.0495(4) -0.4323(2) 0.6268(3)
O9C O -0.0495(4) 0.4323(2) 0.3732(3)
O11 O 0.5195(4) 0.6362(3) 0.4406(4)
loop_
_geom_bond_atom_site_label_1
_geom_bond_atom_site_label_2
_geom_bond_site_symmetry_1
_geom_bond_site_symmetry_2
Gd1 O1 1_555 1_555
O1 C1 1_555 1_555
O2 Gd1 1_555 1_555
O3 C6 1_555 1_555
O4 C6 1_555 1_555
O5 Gd1 1_555 1_555
O6 C4 1_555 1_555
O7 Gd1 1_555 1_555
O8 Gd1 1_555 1_555
C1 O2 1_555 1_555
C2 C1 1_555 1_555
C3 C2 1_555 1_555
C4 C3 1_555 1_555
C5 C2 1_555 1_555
C6 C5 1_555 1_555
O9 C4 1_555 1_555
O10 Gd1 1_555 1_555
H1 O7 1_555 1_555
H2 O7 1_555 1_555
H3 O5 1_555 1_555
H4 O5 1_555 1_555
H5 O8 1_555 1_555
H6 O8 1_555 1_555
O1B C1B 1_555 1_555
O2B C1B 1_555 1_555
C1B C2B 1_555 1_555
C2B C3B 1_555 1_555
C3B C5 1_555 1_555
O3B C6B 1_555 1_555
O4B C6B 1_555 1_555
C5B C3 1_555 1_555
C6B C5B 1_555 1_555
O6B C4B 1_555 1_555
C4B C3B 1_555 1_555
O9B C4B 1_555 1_555
Gd1B O1B 1_555 1_555
O5B Gd1B 1_555 1_555
O7B Gd1B 1_555 1_555
O8B Gd1B 1_555 1_555
O10B Gd1B 1_555 1_555
H1B O7B 1_555 1_555
H2B O7B 1_555 1_555
H3B O5B 1_555 1_555
H4B O5B 1_555 1_555
H5B O8B 1_555 1_555
H6B O8B 1_555 1_555
Gd1A O6B 1_555 1_555
Gd1A_2 O3B 1_555 1_555
Gd1C O3 1_555 1_555
Gd1C_2 O6 1_555 1_555
O3A Gd1B 1_555 1_555
O3C Gd1 1_555 1_555
O6A Gd1B 1_555 1_555
O6C Gd1 1_555 1_555
O9A Gd1B 1_555 1_555
O9C Gd1 1_555 1_555
O9 Gd1C_2 1_555 1_555
O2B Gd1B 1_555 1_555
C2B C5B 1_555 1_555
O9B Gd1A 1_555 1_555

#END
