
#######################################################################
#
#                 Cambridge Crystallographic Data Centre
#                                CCDC 
#
#######################################################################
#
# If this CIF has been generated from an entry in the Cambridge 
# Structural Database, then it will include bibliographic, chemical, 
# crystal, experimental, refinement or atomic coordinate data resulting 
# from the CCDC's data processing and validation procedures.
#
#######################################################################

data_LAXSIO01
_symmetry_cell_setting           triclinic
_symmetry_space_group_name_H-M   'P -1'
_symmetry_Int_Tables_number      2
_space_group_name_Hall           '-P 1'
loop_
_symmetry_equiv_pos_site_id
_symmetry_equiv_pos_as_xyz
1 x,y,z
2 -x,-y,-z
_cell_length_a                   15.294(4)
_cell_length_b                   17.195(4)
_cell_length_c                   22.068(6)
_cell_angle_alpha                68.124(4)
_cell_angle_beta                 89.466(4)
_cell_angle_gamma                88.942(4)
_cell_volume                     5384.62
loop_
_atom_site_label
_atom_site_type_symbol
_atom_site_fract_x
_atom_site_fract_y
_atom_site_fract_z
Co1 Co -0.74117(8) 0.10553(8) 0.25234(6)
Co2 Co -0.77848(8) -0.38321(8) 0.23613(6)
N1 N -0.8580(5) 0.0620(5) 0.3071(4)
C1 C -0.9323(6) 0.0749(6) 0.2690(5)
C2 C -0.8669(6) 0.0220(7) 0.3711(5)
H1 H -0.8170 0.0112 0.3968
C3 C -1.0133(6) 0.0491(6) 0.2960(5)
H2 H -1.0621 0.0578 0.2693
C4 C -0.9470(7) -0.0050(7) 0.4021(5)
H3 H -0.9503 -0.0322 0.4472
C5 C -1.0218(7) 0.0097(7) 0.3637(5)
H4 H -1.0764 -0.0063 0.3827
C6 C -0.9168(6) 0.1187(6) 0.1978(5)
C7 C -0.9936(6) 0.1372(6) 0.1522(5)
C8 C -1.0748(7) 0.1095(7) 0.0698(5)
H5 H -1.0819 0.0785 0.0436
C9 C -1.1365(7) 0.1711(7) 0.0679(5)
H6 H -1.1839 0.1823 0.0397
C10 C -1.0551(7) 0.1995(6) 0.1504(5)
H7 H -1.0484 0.2300 0.1770
C11 C -1.0026(7) 0.0941(7) 0.1109(5)
H8 H -0.9604 0.0547 0.1105
C12 C -1.1265(7) 0.2152(7) 0.1081(6)
H9 H -1.1679 0.2560 0.1072
N2 N -0.8383(5) 0.1369(5) 0.1809(4)
C13 C -0.8103(6) 0.1870(7) 0.1138(5)
H10 H -0.8209 0.2461 0.1046
H11 H -0.8432 0.1714 0.0828
C14 C -0.7127(7) 0.1704(7) 0.1076(5)
H12 H -0.7041 0.1182 0.1008
H13 H -0.6882 0.2153 0.0705
N3 N -0.6681(5) 0.1654(5) 0.1687(4)
C15 C -0.5929(6) 0.1934(6) 0.1728(5)
C16 C -0.5402(6) 0.2484(6) 0.1168(5)
C17 C -0.5779(7) 0.3220(7) 0.0737(5)
H14 H -0.6356 0.3358 0.0797
C18 C -0.4532(7) 0.2286(7) 0.1068(5)
H15 H -0.4271 0.1793 0.1350
C19 C -0.4061(8) 0.2831(9) 0.0546(6)
H16 H -0.3483 0.2703 0.0480
C20 C -0.5301(8) 0.3745(8) 0.0223(6)
H17 H -0.5561 0.4235 -0.0065
C21 C -0.4445(8) 0.3562(9) 0.0124(6)
H18 H -0.4128 0.3928 -0.0224
N4 N -0.6146(5) 0.1195(5) 0.2870(4)
C22 C -0.5599(6) 0.1674(6) 0.2412(5)
C23 C -0.4819(7) 0.1958(7) 0.2567(5)
H19 H -0.4477 0.2332 0.2241
C24 C -0.5090(7) 0.1151(8) 0.3686(5)
H20 H -0.4922 0.0954 0.4122
C25 C -0.5889(7) 0.0923(7) 0.3497(5)
H21 H -0.6254 0.0569 0.3817
C26 C -0.4563(7) 0.1679(7) 0.3202(5)
H22 H -0.4030 0.1845 0.3310
N5 N -0.7139(5) -0.0143(5) 0.2552(4)
C27 C -0.7052(6) -0.0779(6) 0.2503(5)
N6 N -0.7628(6) -0.5112(5) 0.2405(5)
C28 C -0.7427(6) -0.5802(6) 0.2597(5)
N7 N -0.7101(6) -0.6567(6) 0.2851(5)
C29 C -0.7409(6) -0.7191(6) 0.2745(5)
N8 N -0.7641(6) -0.7796(5) 0.2672(5)
N9 N -0.8835(5) -0.4191(5) 0.2919(4)
C30 C -1.0365(7) -0.4474(7) 0.2835(5)
H23 H -1.0843 -0.4455 0.2571
C31 C -0.9574(6) -0.4146(6) 0.2549(5)
C32 C -0.8937(7) -0.4541(6) 0.3564(5)
H24 H -0.8447 -0.4572 0.3819
C33 C -1.0449(7) -0.4826(7) 0.3500(5)
H25 H -1.0982 -0.5035 0.3693
C34 C -0.9702(7) -0.4863(8) 0.3887(6)
H26 H -0.9729 -0.5094 0.4341
C35 C -0.9427(6) -0.3730(6) 0.1833(5)
C36 C -1.0160(6) -0.3557(6) 0.1371(5)
C37 C -1.0114(7) -0.3772(7) 0.0819(5)
H27 H -0.9602 -0.4014 0.0733
C38 C -1.0926(6) -0.3149(6) 0.1471(5)
H28 H -1.0967 -0.2979 0.1824
C39 C -1.1623(7) -0.3002(7) 0.1035(5)
H29 H -1.2131 -0.2745 0.1109
C40 C -1.0815(7) -0.3632(8) 0.0401(6)
H30 H -1.0783 -0.3806 0.0049
C41 C -1.1580(7) -0.3226(7) 0.0503(5)
H31 H -1.2046 -0.3113 0.0214
N10 N -0.8617(5) -0.3572(5) 0.1685(4)
C42 C -0.8245(6) -0.3244(6) 0.1027(5)
H32 H -0.8646 -0.2838 0.0731
H33 H -0.8148 -0.3696 0.0871
C43 C -0.7380(6) -0.2828(6) 0.1054(5)
H34 H -0.6996 -0.2838 0.0704
H35 H -0.7482 -0.2249 0.1004
N11 N -0.6976(5) -0.3308(5) 0.1700(4)
C44 C -0.6173(6) -0.3242(6) 0.1836(5)
C45 C -0.4094(7) -0.2779(8) 0.0838(6)
H36 H -0.3620 -0.3062 0.0743
C46 C -0.5485(6) -0.2791(6) 0.1379(5)
C47 C -0.4894(8) -0.1481(8) 0.0660(5)
H37 H -0.4940 -0.0901 0.0455
C48 C -0.5550(7) -0.1920(7) 0.1076(5)
H38 H -0.6034 -0.1635 0.1153
C49 C -0.4160(8) -0.1909(9) 0.0548(6)
H39 H -0.3713 -0.1609 0.0277
C50 C -0.4739(6) -0.3224(7) 0.1271(5)
H40 H -0.4681 -0.3801 0.1488
C51 C -0.5994(6) -0.3717(6) 0.2538(5)
C52 C -0.5166(6) -0.3776(6) 0.2819(5)
H41 H -0.4688 -0.3519 0.2564
C53 C -0.6596(7) -0.4522(7) 0.3537(5)
H42 H -0.7079 -0.4782 0.3784
C54 C -0.5797(7) -0.4626(8) 0.3845(6)
H43 H -0.5745 -0.4959 0.4286
C55 C -0.5071(7) -0.4226(8) 0.3487(6)
H44 H -0.4533 -0.4259 0.3689
N12 N -0.6714(5) -0.4065(5) 0.2899(4)
N26 N -0.6838(6) -0.1489(6) 0.2447(6)
C110 C -0.7407(6) -0.2041(6) 0.2460(5)
N28 N -0.7837(5) -0.2607(5) 0.2473(4)
Co1_2 Co -0.74117(8) -0.89447(8) 0.25234(6)
N8_2 N -0.7641(6) 0.2204(5) 0.2672(5)
Co3 Co -0.22473(8) -0.12408(8) 0.24144(6)
Co4 Co -0.23660(8) 0.36447(8) 0.26231(6)
N13 N -0.2490(6) 0.2551(5) 0.2449(5)
C56 C -0.2626(6) 0.1939(7) 0.2354(5)
N14 N -0.2881(6) 0.1322(6) 0.2195(5)
C57 C -0.2372(6) 0.0660(6) 0.2305(5)
N15 N -0.1978(5) 0.0047(5) 0.2376(4)
N16 N -0.1234(5) -0.1217(5) 0.1837(4)
C58 C -0.0593(6) -0.1750(6) 0.2901(5)
C59 C -0.1195(7) -0.1023(6) 0.1196(5)
H45 H -0.1704 -0.0834 0.0955
C60 C -0.0479(6) -0.1503(6) 0.2189(5)
C61 C 0.0805(7) -0.3126(7) 0.4302(5)
H46 H 0.0790 -0.3658 0.4629
C62 C 0.0147(6) -0.2043(6) 0.3364(5)
C63 C 0.0878(6) -0.1559(7) 0.3312(5)
H47 H 0.0914 -0.1040 0.2972
C64 C 0.1563(7) -0.1836(7) 0.3762(5)
H48 H 0.2040 -0.1496 0.3732
C65 C 0.0299(6) -0.1588(7) 0.1890(5)
H49 H 0.0800 -0.1794 0.2138
C66 C 0.1520(7) -0.2620(7) 0.4248(5)
H50 H 0.1977 -0.2812 0.4545
C67 C 0.0113(7) -0.2842(7) 0.3870(6)
H51 H -0.0372 -0.3176 0.3913
C68 C -0.0439(7) -0.1087(7) 0.0863(5)
H52 H -0.0446 -0.0948 0.0413
C69 C 0.0323(7) -0.1361(7) 0.1214(5)
H53 H 0.0844 -0.1393 0.1003
N17 N -0.1390(5) -0.1685(5) 0.3069(4)
C70 C -0.1715(6) -0.1790(7) 0.3723(5)
H54 H -0.1610 -0.1287 0.3810
H55 H -0.1411 -0.2256 0.4050
C71 C -0.2681(6) -0.1956(7) 0.3752(5)
H56 H -0.2783 -0.2545 0.3846
H57 H -0.2959 -0.1802 0.4089
N18 N -0.3037(5) -0.1428(5) 0.3094(4)
N19 N -0.3301(5) -0.0668(5) 0.1895(4)
C72 C -0.4011(6) -0.0707(6) 0.2280(5)
C73 C -0.3849(6) -0.1155(6) 0.2984(5)
C74 C -0.5275(7) -0.1737(7) 0.3477(6)
H58 H -0.5328 -0.1974 0.3163
C75 C -0.4860(7) 0.0156(7) 0.1364(6)
H59 H -0.5385 0.0414 0.1181
C76 C -0.4796(7) -0.0297(7) 0.2038(5)
H60 H -0.5267 -0.0322 0.2315
C77 C -0.4540(6) -0.1285(6) 0.3476(5)
C78 C -0.3368(7) -0.0204(6) 0.1256(5)
H61 H -0.2881 -0.0159 0.0990
C79 C -0.4138(7) 0.0213(7) 0.0978(5)
H62 H -0.4164 0.0529 0.0533
C80 C -0.4469(9) -0.0925(8) 0.3952(6)
H63 H -0.3975 -0.0625 0.3968
C81 C -0.5930(8) -0.1846(9) 0.3929(7)
H64 H -0.6411 -0.2169 0.3928
C82 C -0.5152(10) -0.1026(9) 0.4400(7)
H65 H -0.5114 -0.0782 0.4711
N20 N -0.1159(6) 0.3848(5) 0.2103(4)
C83 C -0.0437(7) 0.3494(6) 0.2490(5)
C84 C 0.0388(7) 0.3498(7) 0.2225(5)
H66 H 0.0866 0.3268 0.2495
C85 C -0.1035(7) 0.4159(6) 0.1468(5)
H67 H -0.1523 0.4363 0.1204
C86 C 0.0494(7) 0.3851(7) 0.1546(6)
H68 H 0.1039 0.3849 0.1356
C87 C -0.0231(7) 0.4205(7) 0.1161(6)
H69 H -0.0178 0.4465 0.0710
C88 C -0.0630(6) 0.3109(6) 0.3196(5)
C89 C 0.1483(7) 0.2971(8) 0.4126(6)
H70 H 0.1923 0.3327 0.4146
C90 C 0.0796(7) 0.3267(7) 0.3687(6)
H71 H 0.0796 0.3820 0.3395
C91 C 0.0118(7) 0.1906(7) 0.4097(5)
H72 H -0.0334 0.1555 0.4091
C92 C 0.0827(7) 0.1606(7) 0.4527(5)
H73 H 0.0846 0.1047 0.4809
C93 C 0.0112(6) 0.2757(6) 0.3675(5)
C94 C 0.1495(7) 0.2127(8) 0.4535(6)
H74 H 0.1962 0.1913 0.4818
N21 N -0.1429(5) 0.3080(5) 0.3359(4)
C95 C -0.2606(6) 0.3167(6) 0.4078(5)
H75 H -0.2962 0.2819 0.4440
H76 H -0.2431 0.3654 0.4167
C96 C -0.1795(7) 0.2674(7) 0.4007(5)
H77 H -0.1366 0.2652 0.4334
H78 H -0.1954 0.2104 0.4073
N22 N -0.3109(5) 0.3434(5) 0.3471(4)
C97 C -0.3929(6) 0.3590(6) 0.3431(4)
C98 C -0.4541(6) 0.3476(6) 0.3981(5)
C99 C -0.5320(7) 0.3059(7) 0.4038(5)
H79 H -0.5470 0.2859 0.3716
C100 C -0.4329(7) 0.3775(7) 0.4469(5)
H80 H -0.3808 0.4056 0.4446
C101 C -0.5882(7) 0.2931(8) 0.4560(6)
H81 H -0.6398 0.2640 0.4592
C102 C -0.5664(9) 0.3244(8) 0.5041(6)
H82 H -0.6039 0.3173 0.5391
C103 C -0.4901(9) 0.3651(9) 0.4988(6)
H83 H -0.4755 0.3854 0.5309
C104 C -0.4271(6) 0.3906(6) 0.2744(5)
C105 C -0.4784(7) 0.4467(7) 0.1468(5)
H84 H -0.4947 0.4643 0.1031
C106 C -0.3944(7) 0.4189(7) 0.1649(5)
H85 H -0.3541 0.4184 0.1332
C107 C -0.5133(6) 0.4219(7) 0.2582(5)
H86 H -0.5520 0.4248 0.2901
C108 C -0.5387(7) 0.4485(7) 0.1930(5)
H87 H -0.5957 0.4673 0.1809
N23 N -0.3691(5) 0.3923(5) 0.2278(4)
N24 N -0.2570(6) 0.7576(5) 0.2371(4)
N25 N -0.3121(6) 0.6189(6) 0.2518(6)
C109 C -0.2778(6) 0.6903(6) 0.2443(5)
N27 N -0.2378(6) 0.4919(5) 0.2512(5)
C111 C -0.2677(6) 0.5547(6) 0.2511(6)
C112 C -0.5874(9) -0.1476(9) 0.4388(7)
H88 H -0.6325 -0.1534 0.4686
Co3_2 Co -0.22473(8) 0.87592(8) 0.24144(6)
N24_2 N -0.2570(6) -0.2424(5) 0.2371(4)
Cl1 Cl -0.76506(16) 0.49088(16) 0.02971(12)
O1 O -0.7788(5) 0.4015(5) 0.0600(4)
O2 O -0.8496(6) 0.5340(5) 0.0179(5)
O3 O -0.7197(6) 0.5074(6) -0.0312(4)
O4 O -0.7144(6) 0.5177(6) 0.0719(4)
Cl2 Cl -0.25654(16) 0.02627(17) 0.45544(13)
O9 O -0.1722(5) 0.0499(6) 0.4705(4)
O10 O -0.2972(7) -0.0288(7) 0.5126(5)
O11 O -0.3121(6) 0.0998(7) 0.4320(6)
O12 O -0.2451(8) -0.0133(10) 0.4099(7)
Cl3 Cl -0.75363(17) 0.98925(18) 0.05121(12)
O5 O -0.7758(6) 0.9322(6) 0.0189(4)
O6 O -0.6611(5) 0.9958(6) 0.0541(6)
O7 O -0.7898(7) 1.0709(7) 0.0140(5)
O8 O -0.779(2) 0.946(2) 0.1166(10)
Cl4 Cl -0.23263(17) 0.54820(17) 0.45971(13)
O13 O -0.3239(8) 0.5493(11) 0.4452(8)
O14 O -0.1951(9) 0.4685(6) 0.4699(6)
O15 O -0.2276(10) 0.5724(9) 0.5137(6)
O16 O -0.1955(10) 0.6084(7) 0.4023(6)
O17? O -0.804(3) 0.975(2) 0.1114(19)
loop_
_geom_bond_atom_site_label_1
_geom_bond_atom_site_label_2
_geom_bond_site_symmetry_1
_geom_bond_site_symmetry_2
Co1 N1 1_555 1_555
Co2 N6 1_555 1_555
Co3 N15 1_555 1_555
Co4 N13 1_555 1_555
Cl1 O1 1_555 1_555
Cl2 O9 1_555 1_555
Cl3 O5 1_555 1_555
N1 C1 1_555 1_555
C1 C3 1_555 1_555
C2 N1 1_555 1_555
H1 C2 1_555 1_555
C3 H2 1_555 1_555
C4 C2 1_555 1_555
H3 C4 1_555 1_555
C5 C3 1_555 1_555
H4 C5 1_555 1_555
C6 C1 1_555 1_555
C7 C6 1_555 1_555
C8 H5 1_555 1_555
C9 C8 1_555 1_555
H6 C9 1_555 1_555
C10 C7 1_555 1_555
H7 C10 1_555 1_555
C11 C7 1_555 1_555
H8 C11 1_555 1_555
C12 C9 1_555 1_555
H9 C12 1_555 1_555
N2 Co1 1_555 1_555
C13 N2 1_555 1_555
H10 C13 1_555 1_555
H11 C13 1_555 1_555
C14 C13 1_555 1_555
H12 C14 1_555 1_555
H13 C14 1_555 1_555
N3 Co1 1_555 1_555
C15 N3 1_555 1_555
C16 C15 1_555 1_555
C17 C16 1_555 1_555
H14 C17 1_555 1_555
C18 C16 1_555 1_555
H15 C18 1_555 1_555
C19 C18 1_555 1_555
H16 C19 1_555 1_555
C20 C17 1_555 1_555
H17 C20 1_555 1_555
C21 C19 1_555 1_555
H18 C21 1_555 1_555
N4 Co1 1_555 1_555
C22 C15 1_555 1_555
C23 C22 1_555 1_555
H19 C23 1_555 1_555
C24 H20 1_555 1_555
C25 N4 1_555 1_555
H21 C25 1_555 1_555
C26 C23 1_555 1_555
H22 C26 1_555 1_555
N5 Co1 1_555 1_555
C27 N5 1_555 1_555
N6 C28 1_555 1_555
C28 N7 1_555 1_555
N7 C29 1_555 1_555
C29 N8 1_555 1_555
N8 Co1_2 1_555 1_555
O2 Cl1 1_555 1_555
O3 Cl1 1_555 1_555
O4 Cl1 1_555 1_555
N9 Co2 1_555 1_555
C30 H23 1_555 1_555
C31 N9 1_555 1_555
C32 N9 1_555 1_555
H24 C32 1_555 1_555
C33 C30 1_555 1_555
H25 C33 1_555 1_555
C34 C32 1_555 1_555
H26 C34 1_555 1_555
C35 C31 1_555 1_555
C36 C35 1_555 1_555
C37 C36 1_555 1_555
H27 C37 1_555 1_555
C38 C36 1_555 1_555
H28 C38 1_555 1_555
C39 C38 1_555 1_555
H29 C39 1_555 1_555
C40 C37 1_555 1_555
H30 C40 1_555 1_555
C41 C39 1_555 1_555
H31 C41 1_555 1_555
N10 Co2 1_555 1_555
C42 N10 1_555 1_555
H32 C42 1_555 1_555
H33 C42 1_555 1_555
C43 C42 1_555 1_555
H34 C43 1_555 1_555
H35 C43 1_555 1_555
N11 Co2 1_555 1_555
C44 N11 1_555 1_555
C45 H36 1_555 1_555
C46 C44 1_555 1_555
C47 H37 1_555 1_555
C48 C46 1_555 1_555
H38 C48 1_555 1_555
C49 C45 1_555 1_555
H39 C49 1_555 1_555
C50 C45 1_555 1_555
H40 C50 1_555 1_555
C51 C44 1_555 1_555
C52 C51 1_555 1_555
H41 C52 1_555 1_555
C53 H42 1_555 1_555
C54 C53 1_555 1_555
H43 C54 1_555 1_555
C55 C52 1_555 1_555
H44 C55 1_555 1_555
N12 Co2 1_555 1_555
O6 Cl3 1_555 1_555
O7 Cl3 1_555 1_555
O8 Cl3 1_555 1_555
O10 Cl2 1_555 1_555
O11 Cl2 1_555 1_555
O12 Cl2 1_555 1_555
N13 C56 1_555 1_555
C56 N14 1_555 1_555
N14 C57 1_555 1_555
C57 N15 1_555 1_555
N16 Co3 1_555 1_555
C58 C60 1_555 1_555
C59 N16 1_555 1_555
H45 C59 1_555 1_555
C60 N16 1_555 1_555
C61 H46 1_555 1_555
C62 C58 1_555 1_555
C63 C62 1_555 1_555
H47 C63 1_555 1_555
C64 C63 1_555 1_555
H48 C64 1_555 1_555
C65 C60 1_555 1_555
H49 C65 1_555 1_555
C66 C61 1_555 1_555
H50 C66 1_555 1_555
C67 C61 1_555 1_555
H51 C67 1_555 1_555
C68 C59 1_555 1_555
H52 C68 1_555 1_555
C69 C65 1_555 1_555
H53 C69 1_555 1_555
N17 Co3 1_555 1_555
C70 N17 1_555 1_555
H54 C70 1_555 1_555
H55 C70 1_555 1_555
C71 C70 1_555 1_555
H56 C71 1_555 1_555
H57 C71 1_555 1_555
N18 Co3 1_555 1_555
N19 Co3 1_555 1_555
C72 N19 1_555 1_555
C73 N18 1_555 1_555
C74 H58 1_555 1_555
C75 H59 1_555 1_555
C76 C72 1_555 1_555
H60 C76 1_555 1_555
C77 C73 1_555 1_555
C78 N19 1_555 1_555
H61 C78 1_555 1_555
C79 C75 1_555 1_555
H62 C79 1_555 1_555
C80 C77 1_555 1_555
H63 C80 1_555 1_555
C81 C74 1_555 1_555
H64 C81 1_555 1_555
C82 C80 1_555 1_555
H65 C82 1_555 1_555
N20 Co4 1_555 1_555
C83 N20 1_555 1_555
C84 C83 1_555 1_555
H66 C84 1_555 1_555
C85 N20 1_555 1_555
H67 C85 1_555 1_555
C86 C84 1_555 1_555
H68 C86 1_555 1_555
C87 C85 1_555 1_555
H69 C87 1_555 1_555
C88 C83 1_555 1_555
C89 H70 1_555 1_555
C90 C89 1_555 1_555
H71 C90 1_555 1_555
C91 H72 1_555 1_555
C92 C91 1_555 1_555
H73 C92 1_555 1_555
C93 C88 1_555 1_555
C94 C89 1_555 1_555
H74 C94 1_555 1_555
N21 Co4 1_555 1_555
C95 H75 1_555 1_555
H76 C95 1_555 1_555
C96 N21 1_555 1_555
H77 C96 1_555 1_555
H78 C96 1_555 1_555
N22 Co4 1_555 1_555
C97 N22 1_555 1_555
C98 C97 1_555 1_555
C99 C98 1_555 1_555
H79 C99 1_555 1_555
C100 C98 1_555 1_555
H80 C100 1_555 1_555
C101 C99 1_555 1_555
H81 C101 1_555 1_555
C102 C101 1_555 1_555
H82 C102 1_555 1_555
C103 C100 1_555 1_555
H83 C103 1_555 1_555
C104 C97 1_555 1_555
C105 H84 1_555 1_555
C106 C105 1_555 1_555
H85 C106 1_555 1_555
C107 C104 1_555 1_555
H86 C107 1_555 1_555
C108 C105 1_555 1_555
H87 C108 1_555 1_555
N23 Co4 1_555 1_555
N24 C109 1_555 1_555
N25 C109 1_555 1_555
Cl4 O13 1_555 1_555
O14 Cl4 1_555 1_555
O15 Cl4 1_555 1_555
O16 Cl4 1_555 1_555
N26 C27 1_555 1_555
C110 N26 1_555 1_555
N27 Co4 1_555 1_555
C111 N25 1_555 1_555
C112 C81 1_555 1_555
H88 C112 1_555 1_555
N28 Co2 1_555 1_555
Co3_2 N24 1_555 1_555
N8_2 Co1 1_555 1_555
N24_2 Co3 1_555 1_555
C4 C5 1_555 1_555
C6 N2 1_555 1_555
C8 C11 1_555 1_555
C10 C12 1_555 1_555
C14 N3 1_555 1_555
C20 C21 1_555 1_555
N4 C22 1_555 1_555
C24 C25 1_555 1_555
C24 C26 1_555 1_555
C30 C31 1_555 1_555
C33 C34 1_555 1_555
C35 N10 1_555 1_555
C40 C41 1_555 1_555
C43 N11 1_555 1_555
C46 C50 1_555 1_555
C47 C48 1_555 1_555
C47 C49 1_555 1_555
C51 N12 1_555 1_555
C53 N12 1_555 1_555
C54 C55 1_555 1_555
C58 N17 1_555 1_555
C62 C67 1_555 1_555
C64 C66 1_555 1_555
C68 C69 1_555 1_555
C71 N18 1_555 1_555
C72 C73 1_555 1_555
C74 C77 1_555 1_555
C75 C76 1_555 1_555
C78 C79 1_555 1_555
C82 C112 1_555 1_555
C86 C87 1_555 1_555
C88 N21 1_555 1_555
C90 C93 1_555 1_555
C91 C93 1_555 1_555
C92 C94 1_555 1_555
C95 C96 1_555 1_555
C95 N22 1_555 1_555
C102 C103 1_555 1_555
C104 N23 1_555 1_555
C106 N23 1_555 1_555
C107 C108 1_555 1_555
C110 N28 1_555 1_555
N27 C111 1_555 1_555

#END
