
#######################################################################
#
#                 Cambridge Crystallographic Data Centre
#                                CCDC 
#
#######################################################################
#
# If this CIF has been generated from an entry in the Cambridge 
# Structural Database, then it will include bibliographic, chemical, 
# crystal, experimental, refinement or atomic coordinate data resulting 
# from the CCDC's data processing and validation procedures.
#
#######################################################################

data_LAXTEJ
_symmetry_cell_setting           monoclinic
_symmetry_space_group_name_H-M   'P 21/c'
_symmetry_Int_Tables_number      14
_space_group_name_Hall           '-P 2ybc'
loop_
_symmetry_equiv_pos_site_id
_symmetry_equiv_pos_as_xyz
1 x,y,z
2 -x,1/2+y,1/2-z
3 -x,-y,-z
4 x,1/2-y,1/2+z
_cell_length_a                   10.480(2)
_cell_length_b                   10.720(2)
_cell_length_c                   25.027(1)
_cell_angle_alpha                90
_cell_angle_beta                 93.849(9)
_cell_angle_gamma                90
_cell_volume                     2805.33
loop_
_atom_site_label
_atom_site_type_symbol
_atom_site_fract_x
_atom_site_fract_y
_atom_site_fract_z
Cu1 Cu 0.01986(7) 0.17501(6) 0.14276(3)
O1 O 0.1038(4) 0.1120(4) -0.0147(1)
O2 O -0.0172(5) 0.1444(6) 0.3085(2)
N1 N -0.1053(4) 0.3257(3) 0.1406(1)
N2 N -0.2794(4) 0.5227(4) 0.1364(2)
N3 N 0.1364(3) 0.0193(3) 0.1463(1)
N4 N 0.3030(4) -0.1824(4) 0.1460(2)
N5 N 0.0249(4) 0.1820(4) 0.0660(2)
N6 N 0.0313(4) 0.1825(4) 0.2204(2)
C1 C -0.1048(4) 0.4137(4) 0.1029(2)
C2 C -0.1922(4) 0.5119(4) 0.1006(2)
C3 C -0.2797(5) 0.4319(5) 0.1731(2)
C4 C -0.1947(5) 0.3355(5) 0.1766(2)
C5 C -0.1886(5) 0.6090(6) 0.0574(2)
C6 C 0.1145(4) -0.0775(4) 0.1138(2)
C7 C 0.1955(4) -0.1802(4) 0.1136(2)
C8 C 0.3238(5) -0.0866(5) 0.1789(2)
C9 C 0.2411(5) 0.0133(4) 0.1800(2)
C10 C 0.1626(5) -0.2883(5) 0.0773(2)
C11 C 0.0645(5) 0.1460(4) 0.0263(2)
C12 C 0.0055(5) 0.1619(5) 0.2633(2)
Cu2 Cu -0.47874(7) 0.67233(6) 0.14248(3)
O3 O -0.6080(4) 0.6140(4) -0.0159(1)
O4 O -0.5491(5) 0.6674(6) 0.3035(2)
N7 N -0.3567(4) -0.1740(3) 0.1423(1)
N8 N -0.1811(4) 0.0211(4) 0.1392(2)
N9 N 0.4027(3) 0.5184(4) 0.1444(1)
N10 N 0.2389(4) 0.3138(4) 0.1441(2)
N11 N -0.5072(4) 0.6831(4) 0.0656(2)
N12 N -0.4600(4) 0.6710(4) 0.2202(2)
C13 C -0.3658(4) -0.0884(4) 0.1040(2)
C14 C -0.2785(4) 0.0105(4) 0.1018(2)
C15 C -0.1729(5) -0.0676(5) 0.1766(2)
C16 C -0.2586(5) -0.1636(5) 0.1792(2)
C17 C -0.2936(5) 0.1054(5) 0.0583(2)
C18 C 0.4173(4) 0.4198(4) 0.1132(2)
C19 C 0.3380(4) 0.3159(4) 0.1128(2)
C20 C 0.2239(5) 0.4132(5) 0.1754(2)
C21 C 0.3046(4) 0.5134(4) 0.1760(2)
C22 C 0.3630(5) 0.2062(5) 0.0781(2)
C23 C -0.5560(5) 0.6476(4) 0.0258(2)
C24 C -0.5058(5) 0.6703(6) 0.2605(2)
H1 H -0.0410 0.4093 0.0761
H2 H -0.3453 0.4351 0.1992
H3 H -0.1987 0.2734 0.2052
H4 H -0.1731 0.6912 0.0737
H5 H -0.1196 0.5893 0.0342
H6 H -0.2705 0.6097 0.0361
H7 H 0.0382 -0.0764 0.0890
H8 H 0.4009 -0.0867 0.2033
H9 H 0.2592 0.0808 0.2058
H10 H 0.0825 -0.2708 0.0561
H11 H 0.2314 -0.3011 0.0532
H12 H 0.1525 -0.3636 0.0988
H13 H -0.4360 -0.0943 0.0763
H14 H -0.1015 -0.0638 0.2039
H15 H -0.2480 -0.2251 0.2081
H16 H -0.2164 0.1068 0.0383
H17 H -0.3676 0.0840 0.0341
H18 H -0.3067 0.1878 0.0740
H19 H 0.4876 0.4204 0.0893
H20 H 0.1524 0.4142 0.1988
H21 H 0.2905 0.5833 0.2002
H22 H 0.3783 0.1321 0.1006
H23 H 0.2886 0.1919 0.0530
H24 H 0.4384 0.2228 0.0581
Cu2_2 Cu 0.52126(7) -0.32767(6) 0.14248(3)
N4_2 N -0.6970(4) 0.8176(4) 0.1460(2)
N7_2 N -0.3567(4) 0.8260(3) 0.1423(1)
N9_2 N -0.5973(3) 0.5184(4) 0.1444(1)
Cu2_3 Cu -0.47874(7) -0.32767(6) 0.14248(3)
Cu2_4 Cu 0.52126(7) 0.67233(6) 0.14248(3)
loop_
_geom_bond_atom_site_label_1
_geom_bond_atom_site_label_2
_geom_bond_site_symmetry_1
_geom_bond_site_symmetry_2
Cu1 N1 1_555 1_555
O1 C11 1_555 1_555
O2 C12 1_555 1_555
N1 C1 1_555 1_555
N2 C2 1_555 1_555
N3 Cu1 1_555 1_555
N4 C7 1_555 1_555
N5 Cu1 1_555 1_555
N6 Cu1 1_555 1_555
C1 C2 1_555 1_555
C2 C5 1_555 1_555
C3 N2 1_555 1_555
C4 N1 1_555 1_555
C5 H4 1_555 1_555
C6 N3 1_555 1_555
C7 C6 1_555 1_555
C8 N4 1_555 1_555
C9 N3 1_555 1_555
C10 C7 1_555 1_555
C11 N5 1_555 1_555
C12 N6 1_555 1_555
Cu2 N2 1_555 1_555
O3 C23 1_555 1_555
O4 C24 1_555 1_555
N7 C13 1_555 1_555
N8 Cu1 1_555 1_555
N9 C18 1_555 1_555
N10 Cu1 1_555 1_555
N11 Cu2 1_555 1_555
N12 Cu2 1_555 1_555
C13 C14 1_555 1_555
C14 N8 1_555 1_555
C15 N8 1_555 1_555
C16 N7 1_555 1_555
C17 C14 1_555 1_555
C18 C19 1_555 1_555
C19 N10 1_555 1_555
C20 N10 1_555 1_555
C21 N9 1_555 1_555
C22 C19 1_555 1_555
C23 N11 1_555 1_555
C24 N12 1_555 1_555
H1 C1 1_555 1_555
H2 C3 1_555 1_555
H3 C4 1_555 1_555
H5 C5 1_555 1_555
H6 C5 1_555 1_555
H7 C6 1_555 1_555
H8 C8 1_555 1_555
H9 C9 1_555 1_555
H10 C10 1_555 1_555
H11 C10 1_555 1_555
H12 C10 1_555 1_555
H13 C13 1_555 1_555
H14 C15 1_555 1_555
H15 C16 1_555 1_555
H16 C17 1_555 1_555
H17 C17 1_555 1_555
H18 C17 1_555 1_555
H19 C18 1_555 1_555
H20 C20 1_555 1_555
H21 C21 1_555 1_555
H22 C22 1_555 1_555
H23 C22 1_555 1_555
H24 C22 1_555 1_555
Cu2_2 N4 1_555 1_555
N4_2 Cu2 1_555 1_555
N7_2 Cu2 1_555 1_555
N9_2 Cu2 1_555 1_555
Cu2_3 N7 1_555 1_555
Cu2_4 N9 1_555 1_555
C3 C4 1_555 1_555
C8 C9 1_555 1_555
C15 C16 1_555 1_555
C20 C21 1_555 1_555

#END
