
#######################################################################
#
#                 Cambridge Crystallographic Data Centre
#                                CCDC 
#
#######################################################################
#
# If this CIF has been generated from an entry in the Cambridge 
# Structural Database, then it will include bibliographic, chemical, 
# crystal, experimental, refinement or atomic coordinate data resulting 
# from the CCDC's data processing and validation procedures.
#
#######################################################################

data_LAXWIR
_symmetry_cell_setting           triclinic
_symmetry_space_group_name_H-M   'P -1'
_symmetry_Int_Tables_number      2
_space_group_name_Hall           '-P 1'
loop_
_symmetry_equiv_pos_site_id
_symmetry_equiv_pos_as_xyz
1 x,y,z
2 -x,-y,-z
_cell_length_a                   12.8146(2)
_cell_length_b                   13.1192(2)
_cell_length_c                   17.5359(2)
_cell_angle_alpha                89.11
_cell_angle_beta                 79.8090(10)
_cell_angle_gamma                65.9370(10)
_cell_volume                     2644.16
loop_
_atom_site_label
_atom_site_type_symbol
_atom_site_fract_x
_atom_site_fract_y
_atom_site_fract_z
La1 La 0.34005(3) 0.28882(3) 0.244825(17)
La2 La 0.10862(3) 0.33482(3) 0.449909(17)
La3 La 0.33053(3) 0.09451(3) 0.070153(17)
O1 O 0.2828(3) 0.3761(3) 0.39205(19)
O2 O 0.3684(4) 0.4508(4) 0.3026(2)
O3 O 0.4172(3) 0.2362(3) 0.09468(19)
O4 O 0.1248(3) 0.4076(3) 0.2973(2)
O5 O 0.1965(3) 0.2541(3) 0.17319(19)
O6 O 0.4195(3) 0.0840(3) 0.19725(19)
O7 O 0.2577(3) 0.1786(3) 0.34237(19)
O8 O 0.3261(3) 0.4163(3) 0.1310(2)
O9 O 0.5070(4) 0.1909(4) 0.3223(2)
O10 O 0.5637(4) 0.2424(4) 0.2107(3)
O11 O 0.2683(3) 0.1469(3) 0.4657(2)
O12 O 0.0933(3) 0.5199(3) 0.5063(2)
O13 O -0.0140(3) 0.3550(3) 0.3448(2)
O14 O 0.2203(4) 0.3862(4) 0.5614(2)
O15 O 0.6476(3) 0.1061(3) -0.0380(2)
O16 O 0.1879(3) 0.2934(3) 0.0510(2)
O17 O 0.3174(3) -0.0170(3) 0.1996(2)
O18 O 0.4778(3) 0.1040(3) -0.04388(19)
N1 N 0.0164(4) 0.2868(4) 0.5923(3)
N2 N 0.0062(4) 0.1900(5) 0.4589(3)
C1 C 0.0220(7) 0.3314(6) 0.6580(4)
H1 H 0.0775 0.3604 0.6567
C2 C -0.0505(8) 0.3374(6) 0.7289(4)
H2 H -0.0441 0.3710 0.7731
C3 C -0.1286(7) 0.2946(7) 0.7324(5)
H3 H -0.1794 0.3005 0.7788
C4 C -0.1345(6) 0.2403(7) 0.6660(5)
C5 C -0.2105(8) 0.1882(9) 0.6668(6)
H4 H -0.2594 0.1890 0.7130
C6 C -0.2147(8) 0.1376(9) 0.6032(7)
H5 H -0.2658 0.1032 0.6059
C7 C -0.1411(7) 0.1349(7) 0.5296(6)
C8 C -0.1410(8) 0.0818(8) 0.4619(7)
H6 H -0.1916 0.0473 0.4624
C9 C -0.0675(8) 0.0794(7) 0.3944(6)
H7 H -0.0649 0.0413 0.3493
C10 C 0.0045(7) 0.1373(6) 0.3957(5)
H8 H 0.0531 0.1382 0.3498
C11 C -0.0655(5) 0.1883(6) 0.5265(4)
C12 C -0.0611(5) 0.2403(5) 0.5959(4)
N3 N 0.1087(4) 0.1131(4) 0.0948(3)
N4 N 0.2309(4) 0.0899(4) -0.0529(3)
C13 C 0.0469(5) 0.1274(6) 0.1659(3)
H9 H 0.0861 0.1168 0.2073
C14 C -0.0722(6) 0.1573(6) 0.1831(4)
H10 H -0.1112 0.1681 0.2344
C15 C -0.1303(6) 0.1702(6) 0.1240(4)
H11 H -0.2101 0.1902 0.1343
C16 C -0.0697(5) 0.1533(5) 0.0463(4)
C17 C -0.1229(6) 0.1596(6) -0.0188(5)
H12 H -0.2022 0.1774 -0.0114
C18 C -0.0601(6) 0.1402(6) -0.0916(5)
H13 H -0.0965 0.1415 -0.1333
C19 C 0.0608(6) 0.1176(6) -0.1063(4)
C20 C 0.1290(7) 0.0961(6) -0.1815(4)
H14 H 0.0954 0.0975 -0.2246
C21 C 0.2443(6) 0.0734(6) -0.1908(4)
H15 H 0.2904 0.0595 -0.2401
C22 C 0.2912(6) 0.0715(6) -0.1251(4)
H16 H 0.3698 0.0563 -0.1319
C23 C 0.1157(5) 0.1120(5) -0.0434(3)
C24 C 0.0512(5) 0.1263(5) 0.0345(4)
C25 C 0.3283(5) 0.4461(5) 0.3720(3)
C26 C 0.3346(5) 0.5194(5) 0.4338(3)
C27 C 0.4090(5) 0.5741(5) 0.4160(4)
H17 H 0.4500 0.5673 0.3656
C28 C 0.4219(6) 0.6373(6) 0.4719(4)
H18 H 0.4732 0.6713 0.4596
C29 C 0.3589(6) 0.6511(6) 0.5468(4)
H19 H 0.3670 0.6953 0.5844
C30 C 0.2841(5) 0.5989(5) 0.5654(3)
H20 H 0.2414 0.6086 0.6156
C31 C 0.2722(4) 0.5320(5) 0.5097(3)
C32 C 0.1917(5) 0.4753(5) 0.5297(3)
C33 C 0.3041(4) 0.1157(4) 0.3954(3)
C34 C 0.4009(4) 0.0022(4) 0.3727(3)
C35 C 0.4564(5) -0.0579(5) 0.4309(3)
H21 H 0.4328 -0.0267 0.4816
C36 C 0.5461(5) -0.1633(5) 0.4142(4)
H22 H 0.5839 -0.2022 0.4531
C37 C 0.5787(5) -0.2098(5) 0.3390(4)
H23 H 0.6391 -0.2804 0.3273
C38 C 0.5227(5) -0.1529(5) 0.2810(3)
H24 H 0.5439 -0.1866 0.2311
C39 C 0.4344(4) -0.0452(4) 0.2966(3)
C40 C 0.3840(5) 0.0116(5) 0.2290(3)
C41 C 0.0331(5) 0.3951(4) 0.2917(3)
C42 C -0.0276(5) 0.4378(5) 0.2244(3)
C43 C -0.1424(5) 0.5150(5) 0.2413(3)
H25 H -0.1785 0.5365 0.2929
C44 C -0.2042(6) 0.5606(6) 0.1833(4)
H26 H -0.2815 0.6117 0.1961
C45 C -0.1522(6) 0.5308(7) 0.1064(4)
H27 H -0.1925 0.5643 0.0672
C46 C -0.0390(5) 0.4504(6) 0.0885(4)
H28 H -0.0054 0.4265 0.0369
C47 C 0.0252(4) 0.4049(5) 0.1458(3)
C48 C 0.1446(5) 0.3142(5) 0.1217(3)
C49 C 0.3850(5) 0.3391(5) 0.0782(3)
C50 C 0.4220(5) 0.3658(5) -0.0016(3)
C51 C 0.3871(5) 0.4765(5) -0.0207(3)
H29 H 0.3365 0.5336 0.0159
C52 C 0.4271(6) 0.5023(6) -0.0938(4)
H30 H 0.4016 0.5765 -0.1066
C53 C 0.5041(6) 0.4188(6) -0.1473(4)
H31 H 0.5325 0.4368 -0.1958
C54 C 0.5398(6) 0.3083(6) -0.1296(3)
H32 H 0.5920 0.2522 -0.1664
C55 C 0.4982(5) 0.2801(5) -0.0569(3)
N5 N 0.5880(5) 0.2013(5) 0.2739(3)
O19 O 0.6855(4) 0.1706(5) 0.2896(3)
C56 C 0.5433(5) 0.1573(5) -0.0432(3)
La2A La -0.10862(3) 0.66518(3) 0.550091(17)
La3A La 0.66947(3) -0.09451(3) -0.070153(17)
O12A O -0.0933(3) 0.4801(3) 0.4937(2)
O15A O 0.3524(3) -0.1061(3) 0.0380(2)
O18A O 0.5222(3) -0.1040(3) 0.04388(19)
O20 O -0.2437(16) -0.0492(16) 0.3723(8)
loop_
_geom_bond_atom_site_label_1
_geom_bond_atom_site_label_2
_geom_bond_site_symmetry_1
_geom_bond_site_symmetry_2
La1 O1 1_555 1_555
La2 O1 1_555 1_555
La3 O3 1_555 1_555
O1 C25 1_555 1_555
O2 La1 1_555 1_555
O3 La1 1_555 1_555
O4 La1 1_555 1_555
O5 La1 1_555 1_555
O6 La1 1_555 1_555
O7 La1 1_555 1_555
O8 La1 1_555 1_555
O9 La1 1_555 1_555
O10 La1 1_555 1_555
O11 La2 1_555 1_555
O12 La2 1_555 1_555
O13 La2 1_555 1_555
O14 C32 1_555 1_555
O15 C56 1_555 1_555
O16 La3 1_555 1_555
O17 La3 1_555 1_555
O18 La3 1_555 1_555
N1 La2 1_555 1_555
N2 La2 1_555 1_555
C1 N1 1_555 1_555
H1 C1 1_555 1_555
C2 C1 1_555 1_555
H2 C2 1_555 1_555
C3 C2 1_555 1_555
H3 C3 1_555 1_555
C4 C3 1_555 1_555
C5 C4 1_555 1_555
H4 C5 1_555 1_555
C6 C5 1_555 1_555
H5 C6 1_555 1_555
C7 C6 1_555 1_555
C8 C7 1_555 1_555
H6 C8 1_555 1_555
C9 C8 1_555 1_555
H7 C9 1_555 1_555
C10 N2 1_555 1_555
H8 C10 1_555 1_555
C11 N2 1_555 1_555
C12 N1 1_555 1_555
N3 La3 1_555 1_555
N4 La3 1_555 1_555
C13 N3 1_555 1_555
H9 C13 1_555 1_555
C14 C13 1_555 1_555
H10 C14 1_555 1_555
C15 C14 1_555 1_555
H11 C15 1_555 1_555
C16 C15 1_555 1_555
C17 C16 1_555 1_555
H12 C17 1_555 1_555
C18 C17 1_555 1_555
H13 C18 1_555 1_555
C19 C18 1_555 1_555
C20 C19 1_555 1_555
H14 C20 1_555 1_555
C21 C20 1_555 1_555
H15 C21 1_555 1_555
C22 N4 1_555 1_555
H16 C22 1_555 1_555
C23 N4 1_555 1_555
C24 N3 1_555 1_555
C25 O2 1_555 1_555
C26 C25 1_555 1_555
C27 C26 1_555 1_555
H17 C27 1_555 1_555
C28 C27 1_555 1_555
H18 C28 1_555 1_555
C29 C28 1_555 1_555
H19 C29 1_555 1_555
C30 C29 1_555 1_555
H20 C30 1_555 1_555
C31 C26 1_555 1_555
C32 O12 1_555 1_555
C33 O7 1_555 1_555
C34 C33 1_555 1_555
C35 C34 1_555 1_555
H21 C35 1_555 1_555
C36 C35 1_555 1_555
H22 C36 1_555 1_555
C37 C36 1_555 1_555
H23 C37 1_555 1_555
C38 C37 1_555 1_555
H24 C38 1_555 1_555
C39 C34 1_555 1_555
C40 O6 1_555 1_555
C41 O4 1_555 1_555
C42 C41 1_555 1_555
C43 C42 1_555 1_555
H25 C43 1_555 1_555
C44 C43 1_555 1_555
H26 C44 1_555 1_555
C45 C44 1_555 1_555
H27 C45 1_555 1_555
C46 C45 1_555 1_555
H28 C46 1_555 1_555
C47 C42 1_555 1_555
C48 O5 1_555 1_555
C49 O3 1_555 1_555
C50 C49 1_555 1_555
C51 C50 1_555 1_555
H29 C51 1_555 1_555
C52 C51 1_555 1_555
H30 C52 1_555 1_555
C53 C52 1_555 1_555
H31 C53 1_555 1_555
C54 C53 1_555 1_555
H32 C54 1_555 1_555
C55 C50 1_555 1_555
N5 O9 1_555 1_555
O19 N5 1_555 1_555
C56 O18 1_555 1_555
La2A O12 1_555 1_555
La3A O15 1_555 1_555
O12A La2 1_555 1_555
O15A La3 1_555 1_555
O18A La3 1_555 1_555
La2 O7 1_555 1_555
La3 O5 1_555 1_555
La3 O6 1_555 1_555
O8 C49 1_555 1_555
O10 N5 1_555 1_555
O11 C33 1_555 1_555
O13 C41 1_555 1_555
O16 C48 1_555 1_555
O17 C40 1_555 1_555
O18 La3A 1_555 1_555
C4 C12 1_555 1_555
C7 C11 1_555 1_555
C9 C10 1_555 1_555
C11 C12 1_555 1_555
C16 C24 1_555 1_555
C19 C23 1_555 1_555
C21 C22 1_555 1_555
C23 C24 1_555 1_555
C30 C31 1_555 1_555
C31 C32 1_555 1_555
C38 C39 1_555 1_555
C39 C40 1_555 1_555
C46 C47 1_555 1_555
C47 C48 1_555 1_555
C54 C55 1_555 1_555
C55 C56 1_555 1_555
La2A O12A 1_555 1_555
La3A O18A 1_555 1_555

#END
