
#######################################################################
#
#                 Cambridge Crystallographic Data Centre
#                                CCDC 
#
#######################################################################
#
# If this CIF has been generated from an entry in the Cambridge 
# Structural Database, then it will include bibliographic, chemical, 
# crystal, experimental, refinement or atomic coordinate data resulting 
# from the CCDC's data processing and validation procedures.
#
#######################################################################

data_LAYFIC
_symmetry_cell_setting           triclinic
_symmetry_space_group_name_H-M   'P -1'
_symmetry_Int_Tables_number      2
_space_group_name_Hall           '-P 1'
loop_
_symmetry_equiv_pos_site_id
_symmetry_equiv_pos_as_xyz
1 x,y,z
2 -x,-y,-z
_cell_length_a                   8.9989(3)
_cell_length_b                   9.8166(4)
_cell_length_c                   10.5995(7)
_cell_angle_alpha                102.359(3)
_cell_angle_beta                 100.875(3)
_cell_angle_gamma                107.415(2)
_cell_volume                     840.026
loop_
_atom_site_label
_atom_site_type_symbol
_atom_site_fract_x
_atom_site_fract_y
_atom_site_fract_z
Co1 Co 0.0000 0.5000 0.0000
N1 N -0.2118(2) 0.1769(2) -0.19884(18)
N2 N 0.0891(2) 0.3645(2) 0.10350(16)
N3 N 0.2079(2) 0.29374(19) 0.26607(16)
N4 N 0.1800(2) 0.5102(2) 0.89545(16)
N5 N 0.3142(2) 0.4534(2) 0.75110(16)
O1 O -0.17292(19) 0.31765(17) -0.17000(15)
O2 O -0.1333(2) 0.1153(2) -0.25676(19)
O3 O -0.3257(3) 0.1045(2) -0.1663(3)
C1 C 0.1496(2) 0.3975(2) 0.2341(2)
H1 H 0.1518 0.4814 0.2963
C2 C 0.2945(2) 0.2997(2) 0.39663(19)
C3 C 0.2596(2) 0.3717(2) 0.5090(2)
H2 H 0.1787 0.4126 0.5005
C4 C 0.4138(3) 0.2387(3) 0.4087(2)
H3 H 0.4355 0.1905 0.3326
C5 C 0.5011(3) 0.2494(3) 0.5346(2)
H4 H 0.5816 0.2080 0.5431
C6 C 0.4698(3) 0.3212(3) 0.6483(2)
H5 H 0.5293 0.3294 0.7332
C7 C 0.1827(3) 0.1880(2) 0.1478(2)
H6 H 0.2101 0.1029 0.1376
C8 C 0.1101(3) 0.2332(2) 0.0496(2)
H7 H 0.0787 0.1828 -0.0415
C9 C 0.1681(3) 0.4244(2) 0.7769(2)
H8 H 0.0722 0.3535 0.7188
C10 C 0.3487(2) 0.3806(2) 0.6336(2)
C11 C 0.4248(3) 0.5644(3) 0.8597(2)
H9 H 0.5354 0.6071 0.8708
C12 C 0.3411(3) 0.5991(3) 0.9469(2)
H10 H 0.3855 0.6721 1.0294
Co1_2 Co 0.0000 0.5000 1.0000
Co1_3 Co 0.0000 0.5000 -1.0000
N1A N 0.2118(2) 0.8231(2) 0.19884(18)
N2A N -0.0891(2) 0.6355(2) -0.10350(16)
N3A N -0.2079(2) 0.70626(19) -0.26607(16)
N4A N -0.1800(2) 0.4898(2) -0.89545(16)
N4_2 N 0.1800(2) 0.5102(2) -0.10455(16)
N4A_2 N -0.1800(2) 0.4898(2) 0.10455(16)
N5A N -0.3142(2) 0.5466(2) -0.75110(16)
O1A O 0.17292(19) 0.68235(17) 0.17000(15)
O2A O 0.1333(2) 0.8847(2) 0.25676(19)
O3A O 0.3257(3) 0.8955(2) 0.1663(3)
C1A C -0.1496(2) 0.6025(2) -0.2341(2)
H1A H -0.1518 0.5186 -0.2963
C2A C -0.2945(2) 0.7003(2) -0.39663(19)
C3A C -0.2596(2) 0.6283(2) -0.5090(2)
H2A H -0.1787 0.5874 -0.5005
C4A C -0.4138(3) 0.7613(3) -0.4087(2)
H3A H -0.4355 0.8095 -0.3326
C5A C -0.5011(3) 0.7506(3) -0.5346(2)
H4A H -0.5816 0.7920 -0.5431
C6A C -0.4698(3) 0.6788(3) -0.6483(2)
H5A H -0.5293 0.6706 -0.7332
C7A C -0.1827(3) 0.8120(2) -0.1478(2)
H6A H -0.2101 0.8971 -0.1376
C8A C -0.1101(3) 0.7668(2) -0.0496(2)
H7A H -0.0787 0.8172 0.0415
C9A C -0.1681(3) 0.5756(2) -0.7769(2)
H8A H -0.0722 0.6465 -0.7188
C10A C -0.3487(2) 0.6194(2) -0.6336(2)
C11A C -0.4248(3) 0.4356(3) -0.8597(2)
H9A H -0.5354 0.3929 -0.8708
C12A C -0.3411(3) 0.4009(3) -0.9469(2)
H10A H -0.3855 0.3279 -1.0294
N6 N 0.8011(3) 0.1281(3) 0.3129(3)
O4 O 0.8699(3) 0.3327(3) 0.4909(3)
C13 C 0.8172(4) 0.2681(4) 0.3723(4)
H11 H 0.7844 0.3213 0.3168
C14 C 0.8594(6) 0.0444(5) 0.3914(4)
H12 H 0.9393 0.0139 0.3569
H13 H 0.7711 -0.0421 0.3872
H14 H 0.9070 0.1050 0.4828
C15 C 0.7339(5) 0.0631(6) 0.1705(4)
H15 H 0.6966 0.1313 0.1326
H16 H 0.6447 -0.0281 0.1529
H17 H 0.8153 0.0426 0.1310
loop_
_geom_bond_atom_site_label_1
_geom_bond_atom_site_label_2
_geom_bond_site_symmetry_1
_geom_bond_site_symmetry_2
Co1 N2 1_555 1_555
N1 O1 1_555 1_555
N2 C1 1_555 1_555
N3 C1 1_555 1_555
N4 C9 1_555 1_555
N5 C9 1_555 1_555
O1 Co1 1_555 1_555
O2 N1 1_555 1_555
O3 N1 1_555 1_555
C1 H1 1_555 1_555
C2 N3 1_555 1_555
C3 C2 1_555 1_555
H2 C3 1_555 1_555
C4 C2 1_555 1_555
H3 C4 1_555 1_555
C5 C4 1_555 1_555
H4 C5 1_555 1_555
C6 C5 1_555 1_555
H5 C6 1_555 1_555
C7 N3 1_555 1_555
H6 C7 1_555 1_555
C8 N2 1_555 1_555
H7 C8 1_555 1_555
C9 H8 1_555 1_555
C10 N5 1_555 1_555
C11 N5 1_555 1_555
H9 C11 1_555 1_555
C12 N4 1_555 1_555
H10 C12 1_555 1_555
N6 C13 1_555 1_555
O4 C13 1_555 1_555
C13 H11 1_555 1_555
C14 N6 1_555 1_555
H12 C14 1_555 1_555
H13 C14 1_555 1_555
H14 C14 1_555 1_555
C15 N6 1_555 1_555
H15 C15 1_555 1_555
H16 C15 1_555 1_555
H17 C15 1_555 1_555
Co1_2 N4 1_555 1_555
Co1_3 N4A 1_555 1_555
N1A O1A 1_555 1_555
N2A Co1 1_555 1_555
N3A C1A 1_555 1_555
N4A C9A 1_555 1_555
N4_2 Co1 1_555 1_555
N4A_2 Co1 1_555 1_555
N5A C9A 1_555 1_555
O1A Co1 1_555 1_555
O2A N1A 1_555 1_555
O3A N1A 1_555 1_555
C1A N2A 1_555 1_555
H1A C1A 1_555 1_555
C2A N3A 1_555 1_555
C3A C2A 1_555 1_555
H2A C3A 1_555 1_555
C4A C2A 1_555 1_555
H3A C4A 1_555 1_555
C5A C4A 1_555 1_555
H4A C5A 1_555 1_555
C6A C5A 1_555 1_555
H5A C6A 1_555 1_555
C7A N3A 1_555 1_555
H6A C7A 1_555 1_555
C8A N2A 1_555 1_555
H7A C8A 1_555 1_555
C9A H8A 1_555 1_555
C10A N5A 1_555 1_555
C11A N5A 1_555 1_555
H9A C11A 1_555 1_555
C12A N4A 1_555 1_555
H10A C12A 1_555 1_555
C3 C10 1_555 1_555
C6 C10 1_555 1_555
C7 C8 1_555 1_555
C11 C12 1_555 1_555
C3A C10A 1_555 1_555
C6A C10A 1_555 1_555
C7A C8A 1_555 1_555
C11A C12A 1_555 1_555

#END
