
#######################################################################
#
#                 Cambridge Crystallographic Data Centre
#                                CCDC 
#
#######################################################################
#
# If this CIF has been generated from an entry in the Cambridge 
# Structural Database, then it will include bibliographic, chemical, 
# crystal, experimental, refinement or atomic coordinate data resulting 
# from the CCDC's data processing and validation procedures.
#
#######################################################################

data_LAYXEQ
_symmetry_cell_setting           monoclinic
_symmetry_space_group_name_H-M   'P 21/c'
_symmetry_Int_Tables_number      14
_space_group_name_Hall           '-P 2ybc'
loop_
_symmetry_equiv_pos_site_id
_symmetry_equiv_pos_as_xyz
1 x,y,z
2 -x,1/2+y,1/2-z
3 -x,-y,-z
4 x,1/2-y,1/2+z
_cell_length_a                   6.7730(13)
_cell_length_b                   28.525(5)
_cell_length_c                   17.297(3)
_cell_angle_alpha                90
_cell_angle_beta                 110.967(7)
_cell_angle_gamma                90
_cell_volume                     3120.51
loop_
_atom_site_label
_atom_site_type_symbol
_atom_site_fract_x
_atom_site_fract_y
_atom_site_fract_z
N1 N 0.1363(11) -0.2187(2) 0.3874(4)
C1 C 0.1956(15) -0.2528(3) 0.4435(6)
H1 H 0.1760 -0.2837 0.4253
C2 C 0.1667(13) -0.1740(3) 0.4144(5)
H2 H 0.1272 -0.1500 0.3755
C3 C 0.2843(15) -0.2445(3) 0.5268(6)
H3 H 0.3242 -0.2691 0.5644
C4 C 0.3132(14) -0.1981(3) 0.5539(6)
H4 H 0.3724 -0.1914 0.6102
C5 C 0.2540(13) -0.1623(3) 0.4973(5)
C6 C 0.2809(15) -0.1120(3) 0.5260(5)
H5 H 0.1968 -0.1058 0.5600
H6 H 0.4280 -0.1057 0.5586
O1 O 0.2126(12) -0.0831(2) 0.4542(4)
C7 C 0.2185(14) -0.0351(3) 0.4631(6)
C8 C 0.2857(14) -0.0113(3) 0.5378(6)
H7 H 0.3329 -0.0279 0.5874
C9 C 0.2826(14) 0.0367(3) 0.5387(6)
H8 H 0.3281 0.0526 0.5890
Cd1 Cd -0.03870(10) -0.236070(19) 0.24684(4)
O2 O 0.3114(10) -0.2356(2) 0.2365(4)
O3 O -0.3160(10) -0.2879(2) 0.2596(4)
O4 O -0.0039(11) -0.3182(2) 0.2820(4)
O5 O 0.1995(11) 0.1098(2) 0.4569(4)
O6 O -0.9418(11) -0.6543(2) 0.2855(4)
O7 O -0.6709(13) -0.6828(2) 0.2605(5)
C10 C -0.4207(16) -0.5470(3) 0.2651(6)
H9 H -0.3028 -0.5420 0.2505
N2 N 0.1525(11) 0.2457(2) 0.3938(4)
C11 C -0.4990(16) -0.5919(3) 0.2626(6)
H10 H -0.4316 -0.6168 0.2474
C12 C -0.4899(15) -0.3773(3) 0.2658(6)
H11 H -0.5823 -0.3520 0.2529
C13 C -0.5666(16) -0.4224(3) 0.2674(7)
H12 H -0.7112 -0.4270 0.2532
C14 C -0.5141(14) -0.5094(3) 0.2886(6)
C15 C 0.2788(17) 0.2700(3) 0.5345(6)
H13 H 0.3136 0.2944 0.5727
C16 C -0.4309(15) -0.4605(3) 0.2898(6)
C17 C 0.1722(13) 0.2009(3) 0.4194(5)
H14 H 0.1349 0.1772 0.3799
C18 C -0.2767(14) -0.3702(3) 0.2835(5)
C19 C -0.7695(15) -0.5630(3) 0.3065(6)
H15 H -0.8880 -0.5681 0.3206
C20 C -0.1408(15) -0.4079(3) 0.3069(6)
H16 H 0.0036 -0.4033 0.3204
C21 C 0.2069(15) 0.2792(3) 0.4513(6)
H17 H 0.1956 0.3104 0.4341
C22 C -0.6758(15) -0.6004(3) 0.2823(5)
C23 C -0.7675(15) -0.6491(3) 0.2765(5)
C24 C -0.6906(15) -0.5181(3) 0.3100(6)
H18 H -0.7556 -0.4935 0.3269
C25 C 0.1414(14) 0.0373(3) 0.3904(6)
H19 H 0.0913 0.0538 0.3407
C26 C -0.1921(15) -0.3223(3) 0.2760(5)
C27 C 0.2120(14) 0.0615(3) 0.4653(6)
C28 C 0.2463(13) 0.1885(3) 0.5029(5)
C29 C 0.2990(15) 0.2238(3) 0.5612(6)
H20 H 0.3473 0.2167 0.6174
C30 C 0.1456(15) -0.0103(3) 0.3896(6)
H21 H 0.0992 -0.0263 0.3395
C31 C 0.2711(15) 0.1377(3) 0.5294(6)
H22 H 0.4182 0.1309 0.5611
H23 H 0.1883 0.1312 0.5637
C32 C -0.2174(15) -0.4525(3) 0.3105(6)
H24 H -0.1234 -0.4774 0.3272
Cd1A Cd -0.96130(10) -0.736070(19) 0.25316(4)
Cd1A_2 Cd 0.03870(10) 0.263930(19) 0.25316(4)
O6A O -0.0582(11) -0.1543(2) 0.2145(4)
O7A O -0.3291(13) -0.1828(2) 0.2395(5)
N2A N -0.1525(11) -0.2543(2) 0.1062(4)
N3 N 0.744(4) 0.0880(6) 0.9892(9)
C33 C 0.884(7) 0.1198(13) 0.967(2)
H25 H 0.8200 0.1284 0.9102
H26 H 1.0164 0.1046 0.9766
H27 H 0.9065 0.1474 1.0012
C34 C 0.565(5) 0.1055(15) 1.0092(15)
H28 H 0.6165 0.1234 1.0594
H29 H 0.4830 0.0796 1.0162
H30 H 0.4784 0.1251 0.9649
O8 O 0.727(5) 0.0191(10) 1.0084(19)
C35 C 0.845(8) 0.0427(12) 0.983(3)
H31 H 0.9562 0.0348 0.9659
loop_
_geom_bond_atom_site_label_1
_geom_bond_atom_site_label_2
_geom_bond_site_symmetry_1
_geom_bond_site_symmetry_2
N1 C1 1_555 1_555
C1 H1 1_555 1_555
C2 N1 1_555 1_555
H2 C2 1_555 1_555
C3 C1 1_555 1_555
H3 C3 1_555 1_555
C4 C3 1_555 1_555
H4 C4 1_555 1_555
C5 C2 1_555 1_555
C6 C5 1_555 1_555
H5 C6 1_555 1_555
H6 C6 1_555 1_555
O1 C6 1_555 1_555
C7 O1 1_555 1_555
C8 C7 1_555 1_555
H7 C8 1_555 1_555
C9 C8 1_555 1_555
H8 C9 1_555 1_555
Cd1 N1 1_555 1_555
O2 Cd1 1_555 1_555
O3 Cd1 1_555 1_555
O4 Cd1 1_555 1_555
O5 C27 1_555 1_555
O6 C23 1_555 1_555
O7 C23 1_555 1_555
C10 H9 1_555 1_555
N2 C17 1_555 1_555
C11 C10 1_555 1_555
H10 C11 1_555 1_555
C12 H11 1_555 1_555
C13 C12 1_555 1_555
H12 C13 1_555 1_555
C14 C10 1_555 1_555
C15 H13 1_555 1_555
C16 C13 1_555 1_555
C17 H14 1_555 1_555
C18 C12 1_555 1_555
C19 H15 1_555 1_555
C20 C18 1_555 1_555
H16 C20 1_555 1_555
C21 N2 1_555 1_555
H17 C21 1_555 1_555
C22 C11 1_555 1_555
C23 C22 1_555 1_555
C24 C14 1_555 1_555
H18 C24 1_555 1_555
C25 H19 1_555 1_555
C26 O3 1_555 1_555
C27 C9 1_555 1_555
C28 C17 1_555 1_555
C29 C15 1_555 1_555
H20 C29 1_555 1_555
C30 C7 1_555 1_555
H21 C30 1_555 1_555
C31 O5 1_555 1_555
H22 C31 1_555 1_555
H23 C31 1_555 1_555
C32 C16 1_555 1_555
H24 C32 1_555 1_555
N3 C33 1_555 1_555
C33 H25 1_555 1_555
H26 C33 1_555 1_555
H27 C33 1_555 1_555
C34 N3 1_555 1_555
H28 C34 1_555 1_555
H29 C34 1_555 1_555
H30 C34 1_555 1_555
O8 C35 1_555 1_555
C35 N3 1_555 1_555
H31 C35 1_555 1_555
Cd1A O6 1_555 1_555
Cd1A_2 N2 1_555 1_555
O6A Cd1 1_555 1_555
O7A Cd1 1_555 1_555
N2A Cd1 1_555 1_555
C4 C5 1_555 1_555
O4 C26 1_555 1_555
O7 Cd1A 1_555 1_555
C14 C16 1_555 1_555
C15 C21 1_555 1_555
C18 C26 1_555 1_555
C19 C22 1_555 1_555
C19 C24 1_555 1_555
C20 C32 1_555 1_555
C25 C27 1_555 1_555
C25 C30 1_555 1_555
C28 C29 1_555 1_555
C28 C31 1_555 1_555

#END
