
#######################################################################
#
#                 Cambridge Crystallographic Data Centre
#                                CCDC 
#
#######################################################################
#
# If this CIF has been generated from an entry in the Cambridge 
# Structural Database, then it will include bibliographic, chemical, 
# crystal, experimental, refinement or atomic coordinate data resulting 
# from the CCDC's data processing and validation procedures.
#
#######################################################################

data_LAZCEW
_symmetry_cell_setting           monoclinic
_symmetry_space_group_name_H-M   'C 2/c'
_symmetry_Int_Tables_number      15
_space_group_name_Hall           '-C 2yn'
loop_
_symmetry_equiv_pos_site_id
_symmetry_equiv_pos_as_xyz
1 x,y,z
2 -x,y,1/2-z
3 1/2+x,1/2+y,z
4 1/2-x,1/2+y,1/2-z
5 -x,-y,-z
6 x,-y,1/2+z
7 1/2-x,1/2-y,-z
8 1/2+x,1/2-y,1/2+z
_cell_length_a                   20.177(4)
_cell_length_b                   9.831(2)
_cell_length_c                   25.359(5)
_cell_angle_alpha                90
_cell_angle_beta                 97.52(3)
_cell_angle_gamma                90
_cell_volume                     4986.95
loop_
_atom_site_label
_atom_site_type_symbol
_atom_site_fract_x
_atom_site_fract_y
_atom_site_fract_z
C1 C -0.09648(13) 0.2946(2) 0.10933(11)
H1 H -0.0764 0.3307 0.0814
O1 O 0.24445(8) 0.09371(14) 0.05664(6)
C2 C 0.22663(10) -0.0255(2) 0.07003(8)
C3 C -0.12524(14) 0.1064(2) 0.15954(11)
H2 H -0.1247 0.0132 0.1660
Co1 Co 0.194416(13) 0.25117(2) 0.076671(10)
N1 N 0.09501(8) 0.19701(18) 0.05888(7)
O2 O 0.31617(8) 0.06958(15) -0.04280(6)
O3 O 0.20666(8) 0.08759(16) -0.06044(7)
N2 N -0.22004(9) 0.30311(17) 0.34536(6)
N3 N -0.21793(9) 0.37215(18) 0.26221(7)
C4 C -0.28337(10) 0.28419(19) 0.31707(8)
C5 C 0.23685(10) -0.27335(19) 0.05108(8)
H3 H 0.2278 -0.2890 0.0856
N4 N -0.00799(9) 0.11744(18) 0.05958(8)
C6 C 0.25296(9) -0.11629(18) -0.01886(8)
C7 C 0.25703(11) 0.02436(19) -0.04186(8)
C8 C -0.18318(11) 0.3581(2) 0.31151(8)
O4 O 0.19955(9) -0.05010(16) 0.10981(6)
C9 C -0.28209(11) 0.3251(2) 0.26449(8)
C10 C 0.23980(9) -0.13990(18) 0.03302(7)
C11 C 0.05429(10) 0.1292(2) 0.08644(9)
C12 C -0.00858(11) 0.1830(2) 0.01135(9)
C13 C -0.34267(11) 0.2417(2) 0.33420(9)
H4 H -0.3445 0.2169 0.3694
C14 C -0.06609(11) 0.0596(2) 0.08047(11)
H5 H -0.0530 -0.0241 0.0993
H6 H -0.1000 0.0373 0.0510
C15 C -0.09545(11) 0.1559(2) 0.11776(9)
C16 C -0.19333(12) 0.4304(2) 0.21553(8)
H7 H -0.1631 0.5046 0.2270
H8 H -0.2309 0.4682 0.1924
C17 C 0.05608(11) 0.2333(2) 0.01080(9)
C18 C -0.33779(12) 0.3182(2) 0.22632(9)
H9 H -0.3360 0.3418 0.1910
C19 C -0.15726(11) 0.3305(2) 0.18385(8)
C20 C -0.12704(13) 0.3802(2) 0.14191(10)
H10 H -0.1273 0.4733 0.1355
C21 C -0.39597(13) 0.2743(3) 0.24367(11)
H11 H -0.4347 0.2687 0.2194
C22 C 0.07218(13) 0.3074(3) -0.03242(9)
H12 H 0.1152 0.3400 -0.0336
C23 C -0.15597(14) 0.1919(2) 0.19229(10)
H13 H -0.1759 0.1556 0.2202
C24 C -0.39863(12) 0.2381(2) 0.29665(10)
H14 H -0.4392 0.2108 0.3068
C25 C -0.05915(13) 0.2056(3) -0.03039(12)
H15 H -0.1020 0.1714 -0.0298
C26 C -0.11352(12) 0.4075(3) 0.32494(11)
H16 H -0.0986 0.3905 0.3619
H17 H -0.1119 0.5034 0.3181
H18 H -0.0850 0.3605 0.3035
C27 C 0.07184(13) 0.0720(3) 0.14046(10)
H19 H 0.1172 0.0952 0.1536
H20 H 0.0672 -0.0252 0.1390
H21 H 0.0425 0.1088 0.1637
C28 C 0.02143(15) 0.3305(3) -0.07343(10)
H22 H 0.0305 0.3810 -0.1027
C29 C -0.04307(15) 0.2803(3) -0.07237(12)
H23 H -0.0758 0.2980 -0.1009
C1A C 0.09648(13) 0.2946(2) 0.39067(11)
H1A H 0.0764 0.3307 0.4186
O1F O 0.25555(8) -0.59371(14) -0.05664(6)
O1A O -0.24445(8) 0.09371(14) 0.44336(6)
C2F C 0.27337(10) -0.4745(2) -0.07003(8)
C3A C 0.12524(14) 0.1064(2) 0.34046(11)
H2A H 0.1247 0.0132 0.3340
Co1F Co 0.305584(13) -0.75117(2) -0.076671(10)
Co1F_2 Co 0.305584(13) 0.24883(2) -0.076671(10)
Co1A Co -0.194416(13) 0.25117(2) 0.423329(10)
Co1_2 Co 0.194416(13) -0.74883(2) 0.076671(10)
N1A N -0.09501(8) 0.19701(18) 0.44112(7)
O2F O 0.18383(8) -0.56958(15) 0.04280(6)
O2F_2 O 0.18383(8) 0.43042(15) 0.04280(6)
O2G O -0.18383(8) 0.43042(15) 0.45720(6)
O3F O 0.29334(8) -0.58759(16) 0.06044(7)
N2A N 0.22004(9) 0.30311(17) 0.15464(6)
N3A N 0.21793(9) 0.37215(18) 0.23779(7)
C4A C 0.28337(10) 0.28419(19) 0.18293(8)
C5F C 0.26315(10) -0.22665(19) -0.05108(8)
H3F H 0.2722 -0.2110 -0.0856
N4A N 0.00799(9) 0.11744(18) 0.44042(8)
C6F C 0.24704(9) -0.38371(18) 0.01886(8)
C7F C 0.24297(11) -0.52436(19) 0.04186(8)
C8A C 0.18318(11) 0.3581(2) 0.18849(8)
O4F O 0.30045(9) -0.44990(16) -0.10981(6)
C9A C 0.28209(11) 0.3251(2) 0.23551(8)
C10F C 0.26020(9) -0.36010(18) -0.03302(7)
C11A C -0.05429(10) 0.1292(2) 0.41356(9)
C12A C 0.00858(11) 0.1830(2) 0.48865(9)
C13A C 0.34267(11) 0.2417(2) 0.16580(9)
H4A H 0.3445 0.2169 0.1306
C14A C 0.06609(11) 0.0596(2) 0.41953(11)
H5A H 0.0530 -0.0241 0.4007
H6A H 0.1000 0.0373 0.4490
C15A C 0.09545(11) 0.1559(2) 0.38224(9)
C16A C 0.19333(12) 0.4304(2) 0.28447(8)
H7A H 0.1631 0.5046 0.2730
H8A H 0.2309 0.4682 0.3076
C17A C -0.05608(11) 0.2333(2) 0.48920(9)
C18A C 0.33779(12) 0.3182(2) 0.27368(9)
H9A H 0.3360 0.3418 0.3090
C19A C 0.15726(11) 0.3305(2) 0.31615(8)
C20A C 0.12704(13) 0.3802(2) 0.35809(10)
H10A H 0.1273 0.4733 0.3645
C21A C 0.39597(13) 0.2743(3) 0.25633(11)
H11A H 0.4347 0.2687 0.2806
C22A C -0.07218(13) 0.3074(3) 0.53242(9)
H12A H -0.1152 0.3400 0.5336
C23A C 0.15597(14) 0.1919(2) 0.30771(10)
H13A H 0.1759 0.1556 0.2798
C24A C 0.39863(12) 0.2381(2) 0.20335(10)
H14A H 0.4392 0.2108 0.1932
C25A C 0.05915(13) 0.2056(3) 0.53039(12)
H15A H 0.1020 0.1714 0.5298
C26A C 0.11352(12) 0.4075(3) 0.17506(11)
H16A H 0.0986 0.3905 0.1381
H17A H 0.1119 0.5034 0.1819
H18A H 0.0850 0.3605 0.1965
C27A C -0.07184(13) 0.0720(3) 0.35954(10)
H19A H -0.1172 0.0952 0.3464
H20A H -0.0672 -0.0252 0.3610
H21A H -0.0425 0.1088 0.3363
C28A C -0.02143(15) 0.3305(3) 0.57343(10)
H22A H -0.0305 0.3810 0.6027
C29A C 0.04307(15) 0.2803(3) 0.57237(12)
H23A H 0.0758 0.2980 0.6009
loop_
_geom_bond_atom_site_label_1
_geom_bond_atom_site_label_2
_geom_bond_site_symmetry_1
_geom_bond_site_symmetry_2
C1 H1 1_555 1_555
O1 C2 1_555 1_555
C2 O4 1_555 1_555
C3 H2 1_555 1_555
Co1 O1 1_555 1_555
N1 Co1 1_555 1_555
O2 C7 1_555 1_555
O3 C7 1_555 1_555
N2 C4 1_555 1_555
N3 C8 1_555 1_555
C4 C9 1_555 1_555
C5 H3 1_555 1_555
N4 C11 1_555 1_555
C6 C7 1_555 1_555
C8 N2 1_555 1_555
C9 N3 1_555 1_555
C10 C2 1_555 1_555
C11 N1 1_555 1_555
C12 N4 1_555 1_555
C13 C4 1_555 1_555
H4 C13 1_555 1_555
C14 N4 1_555 1_555
H5 C14 1_555 1_555
H6 C14 1_555 1_555
C15 C1 1_555 1_555
C16 N3 1_555 1_555
H7 C16 1_555 1_555
H8 C16 1_555 1_555
C17 N1 1_555 1_555
C18 C9 1_555 1_555
H9 C18 1_555 1_555
C19 C16 1_555 1_555
C20 C1 1_555 1_555
H10 C20 1_555 1_555
C21 C18 1_555 1_555
H11 C21 1_555 1_555
C22 C17 1_555 1_555
H12 C22 1_555 1_555
C23 C3 1_555 1_555
H13 C23 1_555 1_555
C24 C13 1_555 1_555
H14 C24 1_555 1_555
C25 C12 1_555 1_555
H15 C25 1_555 1_555
C26 C8 1_555 1_555
H16 C26 1_555 1_555
H17 C26 1_555 1_555
H18 C26 1_555 1_555
C27 C11 1_555 1_555
H19 C27 1_555 1_555
H20 C27 1_555 1_555
H21 C27 1_555 1_555
C28 C22 1_555 1_555
H22 C28 1_555 1_555
C29 C25 1_555 1_555
H23 C29 1_555 1_555
C1A H1A 1_555 1_555
O1F C2F 1_555 1_555
O1A Co1A 1_555 1_555
C2F O4F 1_555 1_555
C3A H2A 1_555 1_555
Co1F O1F 1_555 1_555
Co1F_2 O2 1_555 1_555
Co1A N2 1_555 1_555
Co1_2 O2F 1_555 1_555
N1A Co1A 1_555 1_555
O2F C7F 1_555 1_555
O2F_2 Co1 1_555 1_555
O2G Co1A 1_555 1_555
O3F C7F 1_555 1_555
N2A Co1 1_555 1_555
N3A C8A 1_555 1_555
C4A N2A 1_555 1_555
C5F C6 1_555 1_555
H3F C5F 1_555 1_555
N4A C11A 1_555 1_555
C6F C5 1_555 1_555
C7F C6F 1_555 1_555
C8A N2A 1_555 1_555
C9A N3A 1_555 1_555
C10F C2F 1_555 1_555
C11A N1A 1_555 1_555
C12A N4A 1_555 1_555
C13A C4A 1_555 1_555
H4A C13A 1_555 1_555
C14A N4A 1_555 1_555
H5A C14A 1_555 1_555
H6A C14A 1_555 1_555
C15A C1A 1_555 1_555
C16A N3A 1_555 1_555
H7A C16A 1_555 1_555
H8A C16A 1_555 1_555
C17A N1A 1_555 1_555
C18A C9A 1_555 1_555
H9A C18A 1_555 1_555
C19A C16A 1_555 1_555
C20A C1A 1_555 1_555
H10A C20A 1_555 1_555
C21A C18A 1_555 1_555
H11A C21A 1_555 1_555
C22A C17A 1_555 1_555
H12A C22A 1_555 1_555
C23A C3A 1_555 1_555
H13A C23A 1_555 1_555
C24A C13A 1_555 1_555
H14A C24A 1_555 1_555
C25A C12A 1_555 1_555
H15A C25A 1_555 1_555
C26A C8A 1_555 1_555
H16A C26A 1_555 1_555
H17A C26A 1_555 1_555
H18A C26A 1_555 1_555
C27A C11A 1_555 1_555
H19A C27A 1_555 1_555
H20A C27A 1_555 1_555
H21A C27A 1_555 1_555
C28A C22A 1_555 1_555
H22A C28A 1_555 1_555
C29A C25A 1_555 1_555
H23A C29A 1_555 1_555
C3 C15 1_555 1_555
C5 C10 1_555 1_555
C6 C10 1_555 1_555
C12 C17 1_555 1_555
C14 C15 1_555 1_555
C19 C20 1_555 1_555
C19 C23 1_555 1_555
C21 C24 1_555 1_555
C28 C29 1_555 1_555
C3A C15A 1_555 1_555
C4A C9A 1_555 1_555
C5F C10F 1_555 1_555
C6F C10F 1_555 1_555
C12A C17A 1_555 1_555
C14A C15A 1_555 1_555
C19A C20A 1_555 1_555
C19A C23A 1_555 1_555
C21A C24A 1_555 1_555
C28A C29A 1_555 1_555

#END
