
#######################################################################
#
#                 Cambridge Crystallographic Data Centre
#                                CCDC 
#
#######################################################################
#
# If this CIF has been generated from an entry in the Cambridge 
# Structural Database, then it will include bibliographic, chemical, 
# crystal, experimental, refinement or atomic coordinate data resulting 
# from the CCDC's data processing and validation procedures.
#
#######################################################################

data_LAZCOF
_symmetry_cell_setting           monoclinic
_symmetry_space_group_name_H-M   'C 2/c'
_symmetry_Int_Tables_number      15
_space_group_name_Hall           '-C 2yn'
loop_
_symmetry_equiv_pos_site_id
_symmetry_equiv_pos_as_xyz
1 x,y,z
2 1/2+x,1/2+y,z
3 -x,y,1/2-z
4 1/2-x,1/2+y,1/2-z
5 -x,-y,-z
6 1/2-x,1/2-y,-z
7 x,-y,1/2+z
8 1/2+x,1/2-y,1/2+z
_cell_length_a                   16.883(7)
_cell_length_b                   15.579(6)
_cell_length_c                   18.317(8)
_cell_angle_alpha                90
_cell_angle_beta                 123.778(3)
_cell_angle_gamma                90
_cell_volume                     4004.5
loop_
_atom_site_label
_atom_site_type_symbol
_atom_site_fract_x
_atom_site_fract_y
_atom_site_fract_z
Co1 Co 0.19881(2) 0.066541(17) 0.671812(19)
O1 O 0.07977(12) 0.13776(11) 0.57139(11)
H1 H 0.0333(16) 0.1081(16) 0.5632(17)
H2 H 0.074(2) 0.1468(18) 0.5240(14)
O2 O 0.21016(12) -0.01207(10) 0.58450(11)
H3 H 0.2502(14) 0.0140(16) 0.5800(17)
H4 H 0.1605(13) -0.0174(17) 0.5332(12)
O3 O 0.28073(11) 0.16154(9) 0.65887(11)
O4 O 0.34221(12) 0.09092(10) 0.59573(12)
O5 O 0.60376(10) 0.47280(9) 0.66588(10)
O6 O 0.46054(10) 0.53206(9) 0.57617(11)
N1 N 0.18738(12) 0.14564(11) 0.76078(12)
N2 N -0.18321(12) 0.50004(11) 0.77999(12)
C1 C 0.21652(19) 0.22685(15) 0.77393(18)
H5 H 0.2487 0.2459 0.7491
C2 C 0.2016(2) 0.28398(15) 0.82206(19)
H6 H 0.2241 0.3399 0.8295
C3 C 0.15335(17) 0.25884(14) 0.85951(16)
C4 C 0.1255(2) 0.17412(16) 0.84799(19)
H7 H 0.0946 0.1530 0.8733
C5 C 0.14353(19) 0.12081(16) 0.79890(17)
H8 H 0.1238 0.0640 0.7920
C6 C 0.1326(2) 0.32349(17) 0.9078(2)
H9 H 0.1924 0.3502 0.9524
H10 H 0.0927 0.3680 0.8665
C7 C 0.08507(17) 0.29144(16) 0.95157(17)
H11 H 0.1273 0.2514 0.9976
H12 H 0.0276 0.2606 0.9088
C8 C 0.05897(16) 0.36404(17) 0.99152(16)
H13 H 0.0438 0.3397 1.0311
H14 H 0.1133 0.4019 1.0253
C9 C -0.09423(16) 0.52024(15) 0.80799(17)
H15 H -0.0849 0.5634 0.7784
C10 C -0.01515(16) 0.48154(16) 0.87774(17)
H16 H 0.0453 0.5006 0.8957
C11 C -0.02494(16) 0.41483(15) 0.92114(15)
C12 C -0.11686(17) 0.39444(18) 0.89338(17)
H17 H -0.1279 0.3509 0.9214
C13 C -0.19258(16) 0.43797(17) 0.82457(17)
H18 H -0.2537 0.4232 0.8083
C14 C 0.32966(14) 0.15706(13) 0.62571(14)
C15 C 0.37689(14) 0.23894(13) 0.62470(13)
C16 C 0.46699(15) 0.23661(14) 0.63964(16)
H19 H 0.4969 0.1840 0.6478
C17 C 0.51277(15) 0.31139(14) 0.64256(15)
H20 H 0.5745 0.3089 0.6558
C18 C 0.46737(14) 0.39025(13) 0.62588(13)
C19 C 0.37572(15) 0.39184(14) 0.60798(15)
H21 H 0.3432 0.4437 0.5949
C20 C 0.33277(15) 0.31742(13) 0.60951(15)
H22 H 0.2727 0.3202 0.6001
C21 C 0.51420(15) 0.47155(13) 0.62287(14)
Co1A Co 0.69881(2) 0.566541(17) 0.671812(19)
Co1A_2 Co -0.30119(2) 0.566541(17) 0.671812(19)
O5A O 0.10376(10) -0.02720(9) 0.66588(10)
N2A N 0.31679(12) 0.00004(11) 0.77999(12)
loop_
_geom_bond_atom_site_label_1
_geom_bond_atom_site_label_2
_geom_bond_site_symmetry_1
_geom_bond_site_symmetry_2
Co1 O1 1_555 1_555
O1 H1 1_555 1_555
H2 O1 1_555 1_555
O2 Co1 1_555 1_555
H3 O2 1_555 1_555
H4 O2 1_555 1_555
O3 Co1 1_555 1_555
O4 C14 1_555 1_555
O5 C21 1_555 1_555
O6 C21 1_555 1_555
N1 Co1 1_555 1_555
N2 C9 1_555 1_555
C1 N1 1_555 1_555
H5 C1 1_555 1_555
C2 C1 1_555 1_555
H6 C2 1_555 1_555
C3 C2 1_555 1_555
C4 C3 1_555 1_555
H7 C4 1_555 1_555
C5 N1 1_555 1_555
H8 C5 1_555 1_555
C6 C3 1_555 1_555
H9 C6 1_555 1_555
H10 C6 1_555 1_555
C7 C6 1_555 1_555
H11 C7 1_555 1_555
H12 C7 1_555 1_555
C8 C7 1_555 1_555
H13 C8 1_555 1_555
H14 C8 1_555 1_555
C9 H15 1_555 1_555
C10 C9 1_555 1_555
H16 C10 1_555 1_555
C11 C8 1_555 1_555
C12 C11 1_555 1_555
H17 C12 1_555 1_555
C13 N2 1_555 1_555
H18 C13 1_555 1_555
C14 O3 1_555 1_555
C15 C14 1_555 1_555
C16 C15 1_555 1_555
H19 C16 1_555 1_555
C17 C16 1_555 1_555
H20 C17 1_555 1_555
C18 C17 1_555 1_555
C19 C18 1_555 1_555
H21 C19 1_555 1_555
C20 C15 1_555 1_555
H22 C20 1_555 1_555
C21 C18 1_555 1_555
Co1A O5 1_555 1_555
Co1A_2 N2 1_555 1_555
O5A Co1 1_555 1_555
N2A Co1 1_555 1_555
C4 C5 1_555 1_555
C10 C11 1_555 1_555
C12 C13 1_555 1_555
C19 C20 1_555 1_555

#END
