
#######################################################################
#
#                 Cambridge Crystallographic Data Centre
#                                CCDC 
#
#######################################################################
#
# If this CIF has been generated from an entry in the Cambridge 
# Structural Database, then it will include bibliographic, chemical, 
# crystal, experimental, refinement or atomic coordinate data resulting 
# from the CCDC's data processing and validation procedures.
#
#######################################################################

data_LAZDAS
_symmetry_cell_setting           triclinic
_symmetry_space_group_name_H-M   'P -1'
_symmetry_Int_Tables_number      2
_space_group_name_Hall           '-P 1'
loop_
_symmetry_equiv_pos_site_id
_symmetry_equiv_pos_as_xyz
1 x,y,z
2 -x,-y,-z
_cell_length_a                   7.6986(1)
_cell_length_b                   10.9472(2)
_cell_length_c                   11.7535(2)
_cell_angle_alpha                116.357(1)
_cell_angle_beta                 94.948(1)
_cell_angle_gamma                90.752(1)
_cell_volume                     882.813
loop_
_atom_site_label
_atom_site_type_symbol
_atom_site_fract_x
_atom_site_fract_y
_atom_site_fract_z
Mn1 Mn 0.77571(2) 0.507724(18) 0.721060(16)
O1 O 0.60998(13) 0.46197(11) 0.84007(9)
N1 N 0.77773(14) 0.73683(11) 0.86441(10)
C1 C 0.85877(17) 0.78403(13) 0.98697(12)
H1 H 0.9142 0.7182 1.0074
N2 N 0.86775(15) 0.90957(12) 1.07828(10)
C2 C 0.78869(16) 1.00583(13) 1.04914(11)
C3 C 0.79378(18) 1.14381(13) 1.14299(12)
H2 H 0.8513 1.1701 1.2259
C4 C 0.71491(18) 1.23922(13) 1.11310(13)
H3 H 0.7187 1.3316 1.1760
C5 C 0.62781(19) 1.20217(14) 0.98984(14)
H4 H 0.5743 1.2699 0.9713
C6 C 0.62033(18) 1.06907(14) 0.89699(13)
H5 H 0.5616 1.0444 0.8147
C7 C 0.70177(15) 0.96872(12) 0.92576(11)
C8 C 0.70060(16) 0.82941(13) 0.83672(11)
H6 H 0.6422 0.8010 0.7537
N3 N 0.75682(14) 0.27375(11) 0.59333(10)
C9 C 0.68141(18) 0.21049(14) 0.46942(12)
H7 H 0.6430 0.2688 0.4331
N4 N 0.65621(16) 0.07891(12) 0.39542(11)
C10 C 0.71470(16) -0.00634(13) 0.44631(12)
C11 C 0.69364(19) -0.15004(14) 0.37177(13)
H8 H 0.6380 -0.1879 0.2870
C12 C 0.75457(19) -0.23408(14) 0.42351(14)
H9 H 0.7398 -0.3303 0.3739
C13 C 0.83910(19) -0.17948(14) 0.54965(13)
H10 H 0.8808 -0.2395 0.5831
C14 C 0.86134(18) -0.04068(13) 0.62402(12)
H11 H 0.9185 -0.0045 0.7083
C15 C 0.79759(16) 0.04790(12) 0.57301(11)
C16 C 0.81258(16) 0.19149(13) 0.64268(12)
H12 H 0.8647 0.2309 0.7284
N5 N 0.9636(2) 0.54079(14) 0.60470(13)
N6 N 1.0000 0.5000 0.5000
N7 N 0.98005(14) 0.47921(13) 0.84708(11)
N8 N 1.12624(13) 0.46410(10) 0.87189(9)
N9 N 1.27138(14) 0.44786(13) 0.89925(11)
N10 N 0.54611(19) 0.53343(14) 0.60816(12)
N11 N 0.5000 0.5000 0.5000
H13 H 0.651(3) 0.487(2) 0.916(2)
H14 H 0.506(3) 0.457(2) 0.839(2)
Mn1A Mn 1.22429(2) 0.492276(18) 0.278940(16)
Mn1A_2 Mn 0.22429(2) 0.492276(18) 0.278940(16)
O1A O 1.39002(13) 0.53803(11) 0.15993(9)
N1A N 1.22227(14) 0.26317(11) 0.13559(10)
C1A C 1.14123(17) 0.21597(13) 0.01303(12)
H1A H 1.0858 0.2818 -0.0074
N2A N 1.13225(15) 0.09043(12) -0.07828(10)
C2A C 1.21131(16) -0.00583(13) -0.04914(11)
C3A C 1.20622(18) -0.14381(13) -0.14299(12)
H2A H 1.1487 -0.1701 -0.2259
C4A C 1.28509(18) -0.23922(13) -0.11310(13)
H3A H 1.2813 -0.3316 -0.1760
C5A C 1.37219(19) -0.20217(14) 0.01016(14)
H4A H 1.4257 -0.2699 0.0287
C6A C 1.37967(18) -0.06907(14) 0.10301(13)
H5A H 1.4384 -0.0444 0.1853
C7A C 1.29823(15) 0.03128(12) 0.07424(11)
C8A C 1.29940(16) 0.17059(13) 0.16328(11)
H6A H 1.3578 0.1990 0.2463
N3A N 1.24318(14) 0.72625(11) 0.40667(10)
C9A C 1.31859(18) 0.78951(14) 0.53058(12)
H7A H 1.3570 0.7312 0.5669
N4A N 1.34379(16) 0.92109(12) 0.60458(11)
C10A C 1.28530(16) 1.00634(13) 0.55369(12)
C11A C 1.30636(19) 1.15004(14) 0.62823(13)
H8A H 1.3620 1.1879 0.7130
C12A C 1.24543(19) 1.23408(14) 0.57649(14)
H9A H 1.2602 1.3303 0.6261
C13A C 1.16090(19) 1.17948(14) 0.45035(13)
H10A H 1.1192 1.2395 0.4169
C14A C 1.13866(18) 1.04068(13) 0.37598(12)
H11A H 1.0815 1.0045 0.2917
C15A C 1.20241(16) 0.95210(12) 0.42699(11)
C16A C 1.18742(16) 0.80851(13) 0.35732(12)
H12A H 1.1353 0.7691 0.2716
N5A N 1.0364(2) 0.45921(14) 0.39530(13)
N7A N 1.01995(14) 0.52079(13) 0.15292(11)
N8A N 0.87376(13) 0.53590(10) 0.12811(9)
N9A N 0.72862(14) 0.55214(13) 0.10075(11)
N10A N 0.45389(19) 0.46657(14) 0.39184(12)
N10A_2 N 1.45389(19) 0.46657(14) 0.39184(12)
H13A H 1.349(3) 0.513(2) 0.084(2)
H14A H 1.494(3) 0.543(2) 0.161(2)
loop_
_geom_bond_atom_site_label_1
_geom_bond_atom_site_label_2
_geom_bond_site_symmetry_1
_geom_bond_site_symmetry_2
Mn1 O1 1_555 1_555
O1 H13 1_555 1_555
N1 Mn1 1_555 1_555
C1 N1 1_555 1_555
H1 C1 1_555 1_555
N2 C1 1_555 1_555
C2 N2 1_555 1_555
C3 C2 1_555 1_555
H2 C3 1_555 1_555
C4 C3 1_555 1_555
H3 C4 1_555 1_555
C5 C4 1_555 1_555
H4 C5 1_555 1_555
C6 C5 1_555 1_555
H5 C6 1_555 1_555
C7 C2 1_555 1_555
C8 N1 1_555 1_555
H6 C8 1_555 1_555
N3 Mn1 1_555 1_555
C9 N3 1_555 1_555
H7 C9 1_555 1_555
N4 C9 1_555 1_555
C10 N4 1_555 1_555
C11 C10 1_555 1_555
H8 C11 1_555 1_555
C12 C11 1_555 1_555
H9 C12 1_555 1_555
C13 C12 1_555 1_555
H10 C13 1_555 1_555
C14 C13 1_555 1_555
H11 C14 1_555 1_555
C15 C10 1_555 1_555
C16 N3 1_555 1_555
H12 C16 1_555 1_555
N5 Mn1 1_555 1_555
N6 N5 1_555 1_555
N7 Mn1 1_555 1_555
N8 N7 1_555 1_555
N9 N8 1_555 1_555
N10 Mn1 1_555 1_555
N11 N10 1_555 1_555
H14 O1 1_555 1_555
Mn1A O1A 1_555 1_555
Mn1A_2 N10A 1_555 1_555
O1A H13A 1_555 1_555
N1A Mn1A 1_555 1_555
C1A N1A 1_555 1_555
H1A C1A 1_555 1_555
N2A C1A 1_555 1_555
C2A N2A 1_555 1_555
C3A C2A 1_555 1_555
H2A C3A 1_555 1_555
C4A C3A 1_555 1_555
H3A C4A 1_555 1_555
C5A C4A 1_555 1_555
H4A C5A 1_555 1_555
C6A C5A 1_555 1_555
H5A C6A 1_555 1_555
C7A C2A 1_555 1_555
C8A N1A 1_555 1_555
H6A C8A 1_555 1_555
N3A Mn1A 1_555 1_555
C9A N3A 1_555 1_555
H7A C9A 1_555 1_555
N4A C9A 1_555 1_555
C10A N4A 1_555 1_555
C11A C10A 1_555 1_555
H8A C11A 1_555 1_555
C12A C11A 1_555 1_555
H9A C12A 1_555 1_555
C13A C12A 1_555 1_555
H10A C13A 1_555 1_555
C14A C13A 1_555 1_555
H11A C14A 1_555 1_555
C15A C10A 1_555 1_555
C16A N3A 1_555 1_555
H12A C16A 1_555 1_555
N5A N6 1_555 1_555
N7A Mn1A 1_555 1_555
N8A N7A 1_555 1_555
N9A N8A 1_555 1_555
N10A N11 1_555 1_555
N10A_2 Mn1A 1_555 1_555
H14A O1A 1_555 1_555
C6 C7 1_555 1_555
C7 C8 1_555 1_555
C14 C15 1_555 1_555
C15 C16 1_555 1_555
Mn1A N5A 1_555 1_555
C6A C7A 1_555 1_555
C7A C8A 1_555 1_555
C14A C15A 1_555 1_555
C15A C16A 1_555 1_555

#END
