
#######################################################################
#
#                 Cambridge Crystallographic Data Centre
#                                CCDC 
#
#######################################################################
#
# If this CIF has been generated from an entry in the Cambridge 
# Structural Database, then it will include bibliographic, chemical, 
# crystal, experimental, refinement or atomic coordinate data resulting 
# from the CCDC's data processing and validation procedures.
#
#######################################################################

data_LAZLAB
_symmetry_cell_setting           monoclinic
_symmetry_space_group_name_H-M   'P 2/n'
_symmetry_Int_Tables_number      13
_space_group_name_Hall           '-P 2yac'
loop_
_symmetry_equiv_pos_site_id
_symmetry_equiv_pos_as_xyz
1 x,y,z
2 1/2-x,y,1/2-z
3 -x,-y,-z
4 1/2+x,-y,1/2+z
_cell_length_a                   7.7348(7)
_cell_length_b                   10.3163(11)
_cell_length_c                   24.542(2)
_cell_angle_alpha                90
_cell_angle_beta                 90.3530(10)
_cell_angle_gamma                90
_cell_volume                     1958.28
loop_
_atom_site_label
_atom_site_type_symbol
_atom_site_fract_x
_atom_site_fract_y
_atom_site_fract_z
Cd1 Cd 1.2500 0.44986(12) 0.2500
Br1 Br 1.49045(16) 0.44744(14) 0.33284(5)
N1 N 0.8462(10) -0.0545(9) 0.3524(3)
N2 N 1.0845(11) 0.2806(8) 0.2919(4)
N3 N 1.0937(12) -0.3908(8) 0.2997(4)
C1 C 0.0782(16) -0.0083(11) 0.4882(5)
C2 C 0.2136(16) -0.0183(11) 0.4655(5)
C3 C 0.3791(14) -0.0302(13) 0.4384(5)
C4 C 0.4345(13) 0.0732(11) 0.4062(5)
H1 H 0.3675 0.1479 0.4038
C5 C 0.5861(12) 0.0659(11) 0.3781(4)
H2 H 0.6212 0.1341 0.3560
C6 C 0.6880(12) -0.0459(10) 0.3830(4)
C7 C 0.6389(15) -0.1451(11) 0.4154(5)
H3 H 0.7088 -0.2180 0.4191
C8 C 0.4825(14) -0.1373(12) 0.4432(5)
H4 H 0.4480 -0.2058 0.4653
C9 C 1.0456(15) 0.2753(11) 0.3433(5)
H5 H 1.0742 0.3449 0.3657
C10 C 0.9614(13) 0.1671(10) 0.3660(4)
H6 H 0.9326 0.1655 0.4028
C11 C 0.9225(13) 0.0635(11) 0.3325(5)
C12 C 0.9650(14) 0.0716(11) 0.2783(4)
H7 H 0.9405 0.0024 0.2552
C13 C 1.0418(14) 0.1787(11) 0.2581(5)
H8 H 1.0661 0.1837 0.2211
C14 C 1.1789(14) -0.2890(11) 0.3184(5)
H9 H 1.2990 -0.2940 0.3189
C15 C 1.1055(15) -0.1758(11) 0.3371(5)
H10 H 1.1722 -0.1069 0.3497
C16 C 0.9231(14) -0.1704(10) 0.3360(4)
C17 C 0.8320(13) -0.2801(10) 0.3198(4)
H11 H 0.7118 -0.2815 0.3212
C18 C 0.9213(13) -0.3860(9) 0.3019(4)
H12 H 0.8590 -0.4584 0.2907
Cd1_2 Cd 1.2500 -0.55014(12) 0.2500
Cd1B Cd -1.2500 -0.44986(12) 0.7500
Cd1B_2 Cd -1.2500 0.55014(12) 0.7500
Br1A Br 1.00955(16) 0.44744(14) 0.16716(5)
N1B N -0.8462(10) 0.0545(9) 0.6476(3)
N2B N -1.0845(11) -0.2806(8) 0.7081(4)
N2A N 1.4155(11) 0.2806(8) 0.2081(4)
N3B N -1.0937(12) 0.3908(8) 0.7003(4)
N3_2 N 1.0937(12) 0.6092(8) 0.2997(4)
N3A N 1.4063(12) 0.6092(8) 0.2003(4)
C1B C -0.0782(16) 0.0083(11) 0.5118(5)
C2B C -0.2136(16) 0.0183(11) 0.5345(5)
C3B C -0.3791(14) 0.0302(13) 0.5616(5)
C4B C -0.4345(13) -0.0732(11) 0.5938(5)
H1B H -0.3675 -0.1479 0.5962
C5B C -0.5861(12) -0.0659(11) 0.6219(4)
H2B H -0.6212 -0.1341 0.6440
C6B C -0.6880(12) 0.0459(10) 0.6170(4)
C7B C -0.6389(15) 0.1451(11) 0.5846(5)
H3B H -0.7088 0.2180 0.5809
C8B C -0.4825(14) 0.1373(12) 0.5568(5)
H4B H -0.4480 0.2058 0.5347
C9B C -1.0456(15) -0.2753(11) 0.6567(5)
H5B H -1.0742 -0.3449 0.6343
C10B C -0.9614(13) -0.1671(10) 0.6340(4)
H6B H -0.9326 -0.1655 0.5972
C11B C -0.9225(13) -0.0635(11) 0.6675(5)
C12B C -0.9650(14) -0.0716(11) 0.7217(4)
H7B H -0.9405 -0.0024 0.7448
C13B C -1.0418(14) -0.1787(11) 0.7419(5)
H8B H -1.0661 -0.1837 0.7789
C14B C -1.1789(14) 0.2890(11) 0.6816(5)
H9B H -1.2990 0.2940 0.6811
C15B C -1.1055(15) 0.1758(11) 0.6629(5)
H10B H -1.1722 0.1069 0.6503
C16B C -0.9231(14) 0.1704(10) 0.6640(4)
C17B C -0.8320(13) 0.2801(10) 0.6802(4)
H11B H -0.7118 0.2815 0.6788
C18B C -0.9213(13) 0.3860(9) 0.6981(4)
H12B H -0.8590 0.4584 0.7093
loop_
_geom_bond_atom_site_label_1
_geom_bond_atom_site_label_2
_geom_bond_site_symmetry_1
_geom_bond_site_symmetry_2
Cd1 Br1 1_555 1_555
N1 C6 1_555 1_555
N2 Cd1 1_555 1_555
N3 C14 1_555 1_555
C1 C2 1_555 1_555
C2 C3 1_555 1_555
C3 C4 1_555 1_555
C4 H1 1_555 1_555
C5 C4 1_555 1_555
H2 C5 1_555 1_555
C6 C5 1_555 1_555
C7 C6 1_555 1_555
H3 C7 1_555 1_555
C8 C3 1_555 1_555
H4 C8 1_555 1_555
C9 N2 1_555 1_555
H5 C9 1_555 1_555
C10 C9 1_555 1_555
H6 C10 1_555 1_555
C11 N1 1_555 1_555
C12 C11 1_555 1_555
H7 C12 1_555 1_555
C13 N2 1_555 1_555
H8 C13 1_555 1_555
C14 H9 1_555 1_555
C15 C14 1_555 1_555
H10 C15 1_555 1_555
C16 N1 1_555 1_555
C17 C16 1_555 1_555
H11 C17 1_555 1_555
C18 N3 1_555 1_555
H12 C18 1_555 1_555
Cd1_2 N3 1_555 1_555
Cd1B N2B 1_555 1_555
Cd1B_2 N3B 1_555 1_555
Br1A Cd1 1_555 1_555
N1B C6B 1_555 1_555
N2B C9B 1_555 1_555
N2A Cd1 1_555 1_555
N3B C14B 1_555 1_555
N3_2 Cd1 1_555 1_555
N3A Cd1 1_555 1_555
C1B C1 1_555 1_555
C2B C1B 1_555 1_555
C3B C2B 1_555 1_555
C4B C3B 1_555 1_555
H1B C4B 1_555 1_555
C5B C4B 1_555 1_555
H2B C5B 1_555 1_555
C6B C5B 1_555 1_555
C7B C6B 1_555 1_555
H3B C7B 1_555 1_555
C8B C3B 1_555 1_555
H4B C8B 1_555 1_555
C9B H5B 1_555 1_555
C10B C9B 1_555 1_555
H6B C10B 1_555 1_555
C11B N1B 1_555 1_555
C12B C11B 1_555 1_555
H7B C12B 1_555 1_555
C13B N2B 1_555 1_555
H8B C13B 1_555 1_555
C14B H9B 1_555 1_555
C15B C14B 1_555 1_555
H10B C15B 1_555 1_555
C16B N1B 1_555 1_555
C17B C16B 1_555 1_555
H11B C17B 1_555 1_555
C18B N3B 1_555 1_555
H12B C18B 1_555 1_555
C7 C8 1_555 1_555
C10 C11 1_555 1_555
C12 C13 1_555 1_555
C15 C16 1_555 1_555
C17 C18 1_555 1_555
C7B C8B 1_555 1_555
C10B C11B 1_555 1_555
C12B C13B 1_555 1_555
C15B C16B 1_555 1_555
C17B C18B 1_555 1_555

#END
