
#######################################################################
#
#                 Cambridge Crystallographic Data Centre
#                                CCDC 
#
#######################################################################
#
# If this CIF has been generated from an entry in the Cambridge 
# Structural Database, then it will include bibliographic, chemical, 
# crystal, experimental, refinement or atomic coordinate data resulting 
# from the CCDC's data processing and validation procedures.
#
#######################################################################

data_LAZMAC
_symmetry_cell_setting           monoclinic
_symmetry_space_group_name_H-M   'C 2/c'
_symmetry_Int_Tables_number      15
_space_group_name_Hall           '-C 2yn'
loop_
_symmetry_equiv_pos_site_id
_symmetry_equiv_pos_as_xyz
1 x,y,z
2 -x,y,1/2-z
3 1/2+x,1/2+y,z
4 1/2-x,1/2+y,1/2-z
5 -x,-y,-z
6 x,-y,1/2+z
7 1/2-x,1/2-y,-z
8 1/2+x,1/2-y,1/2+z
_cell_length_a                   19.6356(9)
_cell_length_b                   16.0764(8)
_cell_length_c                   30.783(3)
_cell_angle_alpha                90
_cell_angle_beta                 101.453(6)
_cell_angle_gamma                90
_cell_volume                     9523.77
loop_
_atom_site_label
_atom_site_type_symbol
_atom_site_fract_x
_atom_site_fract_y
_atom_site_fract_z
Hg1 Hg 0.71977(3) 0.55448(4) 0.42816(2)
Hg2 Hg 1.18160(3) 0.75183(4) 0.26021(2)
Br1 Br 0.68851(11) 0.46840(12) 0.35978(7)
Br2 Br 0.74891(11) 0.56467(13) 0.51080(6)
Br3 Br 1.18355(11) 0.59694(12) 0.25030(7)
Br4 Br 1.16598(9) 0.88381(12) 0.21533(6)
N1 N 0.8025(6) 0.6497(8) 0.4093(4)
N2 N 0.9517(7) 0.8202(8) 0.3845(4)
N3 N 1.0935(6) 0.7699(9) 0.3011(4)
N4 N 1.2173(8) 1.7123(9) 0.6891(5)
N5 N 1.0237(7) 1.6564(9) 0.6097(5)
N6 N 0.8686(7) 1.8391(9) 0.5872(5)
C1 C 0.8288(9) 0.6441(10) 0.3728(5)
H3 H 0.8114 0.6021 0.3518
C2 C 0.8803(9) 0.6965(10) 0.3637(6)
H4 H 0.8994 0.6881 0.3380
C3 C 0.9040(8) 0.7619(10) 0.3928(5)
C4 C 0.8765(8) 0.7664(10) 0.4324(6)
H5 H 0.8922 0.8073 0.4544
C5 C 0.8260(8) 0.7090(10) 0.4376(6)
H6 H 0.8069 0.7129 0.4636
C6 C 1.0765(10) 0.7135(11) 0.3293(7)
H7 H 1.0979 0.6604 0.3301
C7 C 1.0311(10) 0.7257(11) 0.3570(6)
H8 H 1.0212 0.6824 0.3758
C8 C 0.9998(8) 0.8028(11) 0.3569(5)
C9 C 1.0160(8) 0.8651(10) 0.3282(5)
H9 H 0.9966 0.9193 0.3278
C10 C 1.0607(9) 0.8444(11) 0.3012(5)
H10 H 1.0696 0.8854 0.2807
C11 C 0.9526(8) 0.9036(9) 0.4043(5)
C12 C 0.8905(10) 0.9458(10) 0.4022(6)
H11 H 0.8478 0.9230 0.3869
C13 C 0.8925(9) 1.0233(12) 0.4235(6)
H12 H 0.8504 1.0528 0.4232
C14 C 0.9544(9) 1.0569(10) 0.4447(5)
C15 C 1.0140(10) 1.0137(11) 0.4438(6)
H13 H 1.0571 1.0382 0.4572
C16 C 1.0150(9) 0.9370(11) 0.4246(6)
H14 H 1.0574 0.9081 0.4254
C17 C 0.9541(10) 1.1352(11) 0.4667(6)
C18 C 0.9560(9) 1.2005(10) 0.4860(6)
C19 C 0.9629(9) 1.2756(12) 0.5074(6)
C20 C 0.9708(9) 1.3436(11) 0.5252(6)
C21 C 0.9852(9) 1.4223(11) 0.5461(6)
C22 C 0.9333(10) 1.4621(12) 0.5649(7)
H15 H 0.8893 1.4361 0.5630
C23 C 0.9456(9) 1.5367(11) 0.5857(6)
H16 H 0.9102 1.5627 0.5978
C24 C 1.0117(8) 1.5760(9) 0.5892(5)
C25 C 1.0613(9) 1.5381(10) 0.5697(6)
H17 H 1.1048 1.5648 0.5707
C26 C 1.0484(9) 1.4611(11) 0.5487(6)
H18 H 1.0835 1.4353 0.5362
C27 C 1.1821(10) 1.7694(13) 0.6615(6)
H19 H 1.2016 1.8233 0.6608
C28 C 1.1177(9) 1.7529(11) 0.6338(6)
H20 H 1.0947 1.7947 0.6144
C29 C 1.0883(8) 1.6754(11) 0.6350(5)
C30 C 1.1268(8) 1.6134(11) 0.6636(6)
H21 H 1.1102 1.5581 0.6647
C31 C 1.1895(10) 1.6390(12) 0.6895(6)
H22 H 1.2143 1.5991 0.7093
C32 C 0.8719(8) 1.7812(10) 0.5571(5)
H23 H 0.8383 1.7828 0.5302
C33 C 0.9200(8) 1.7200(12) 0.5621(5)
H24 H 0.9201 1.6800 0.5394
C34 C 0.9703(8) 1.7169(10) 0.6023(6)
C35 C 0.9650(9) 1.7749(11) 0.6341(5)
H25 H 0.9952 1.7727 0.6623
C36 C 0.9157(9) 1.8358(10) 0.6250(5)
H26 H 0.9150 1.8780 0.6465
Hg1F Hg 0.78023(3) 1.94552(4) 0.57184(2)
Hg2F Hg 1.31840(3) 1.74817(4) 0.73979(2)
N4F N 1.2827(8) 0.7877(9) 0.3109(5)
N6F N 0.6314(7) 0.6609(9) 0.4128(5)
Cl1 Cl 0.7954(4) 1.4842(5) 0.6329(3)
Cl2 Cl 0.7986(4) 1.6634(5) 0.6381(3)
C37 C 0.8161(14) 1.573(2) 0.6695(8)
H27 H 0.7877 1.5713 0.6927
H28 H 0.8657 1.5710 0.6842
Cl3 Cl 0.8778(6) 1.8030(4) 0.7357(3)
Cl4 Cl 0.9415(7) 1.9261(5) 0.7990(5)
C38 C 0.8765(14) 1.9082(15) 0.7518(9)
H29 H 0.8843 1.9444 0.7273
H30 H 0.8304 1.9219 0.7584
Cl5 Cl 0.7755(5) 1.3223(6) 0.5768(4)
Cl6 Cl 0.7062(5) 1.1725(6) 0.5395(3)
C39 C 0.794(2) 1.210(4) 0.558(2)
H31 H 0.8196 1.2109 0.5330
H32 H 0.8200 1.1763 0.5823
O1 O 0.9922(6) 0.5127(9) 0.1948(5)
H1 H 1.0154 0.5134 0.2208
H2 H 1.0166 0.4996 0.1763
loop_
_geom_bond_atom_site_label_1
_geom_bond_atom_site_label_2
_geom_bond_site_symmetry_1
_geom_bond_site_symmetry_2
Hg1 Br1 1_555 1_555
Hg2 Br3 1_555 1_555
Br2 Hg1 1_555 1_555
Br4 Hg2 1_555 1_555
Cl1 C37 1_555 1_555
Cl2 C37 1_555 1_555
Cl3 C38 1_555 1_555
Cl4 C38 1_555 1_555
Cl5 C39 1_555 1_555
Cl6 C39 1_555 1_555
O1 H1 1_555 1_555
H2 O1 1_555 1_555
N1 Hg1 1_555 1_555
N2 C3 1_555 1_555
N3 Hg2 1_555 1_555
N4 C27 1_555 1_555
N5 C24 1_555 1_555
N6 C32 1_555 1_555
C1 N1 1_555 1_555
H3 C1 1_555 1_555
C2 C1 1_555 1_555
H4 C2 1_555 1_555
C3 C2 1_555 1_555
C4 C3 1_555 1_555
H5 C4 1_555 1_555
C5 N1 1_555 1_555
H6 C5 1_555 1_555
C6 N3 1_555 1_555
H7 C6 1_555 1_555
C7 C6 1_555 1_555
H8 C7 1_555 1_555
C8 N2 1_555 1_555
C9 C8 1_555 1_555
H9 C9 1_555 1_555
C10 N3 1_555 1_555
H10 C10 1_555 1_555
C11 N2 1_555 1_555
C12 C11 1_555 1_555
H11 C12 1_555 1_555
C13 C12 1_555 1_555
H12 C13 1_555 1_555
C14 C13 1_555 1_555
C15 C14 1_555 1_555
H13 C15 1_555 1_555
C16 C11 1_555 1_555
H14 C16 1_555 1_555
C17 C14 1_555 1_555
C18 C17 1_555 1_555
C19 C18 1_555 1_555
C20 C19 1_555 1_555
C21 C20 1_555 1_555
C22 C21 1_555 1_555
H15 C22 1_555 1_555
C23 C22 1_555 1_555
H16 C23 1_555 1_555
C24 C23 1_555 1_555
C25 C24 1_555 1_555
H17 C25 1_555 1_555
C26 C21 1_555 1_555
H18 C26 1_555 1_555
C27 H19 1_555 1_555
C28 C27 1_555 1_555
H20 C28 1_555 1_555
C29 N5 1_555 1_555
C30 C29 1_555 1_555
H21 C30 1_555 1_555
C31 N4 1_555 1_555
H22 C31 1_555 1_555
C32 H23 1_555 1_555
C33 C32 1_555 1_555
H24 C33 1_555 1_555
C34 N5 1_555 1_555
C35 C34 1_555 1_555
H25 C35 1_555 1_555
C36 N6 1_555 1_555
H26 C36 1_555 1_555
C37 H27 1_555 1_555
H28 C37 1_555 1_555
C38 H29 1_555 1_555
H30 C38 1_555 1_555
C39 H31 1_555 1_555
H32 C39 1_555 1_555
Hg1F N6 1_555 1_555
Hg2F N4 1_555 1_555
N4F Hg2 1_555 1_555
N6F Hg1 1_555 1_555
C4 C5 1_555 1_555
C7 C8 1_555 1_555
C9 C10 1_555 1_555
C15 C16 1_555 1_555
C25 C26 1_555 1_555
C28 C29 1_555 1_555
C30 C31 1_555 1_555
C33 C34 1_555 1_555
C35 C36 1_555 1_555

#END
