
#######################################################################
#
#                 Cambridge Crystallographic Data Centre
#                                CCDC 
#
#######################################################################
#
# If this CIF has been generated from an entry in the Cambridge 
# Structural Database, then it will include bibliographic, chemical, 
# crystal, experimental, refinement or atomic coordinate data resulting 
# from the CCDC's data processing and validation procedures.
#
#######################################################################

data_LAZMOQ
_symmetry_cell_setting           triclinic
_symmetry_space_group_name_H-M   'P -1'
_symmetry_Int_Tables_number      2
_space_group_name_Hall           '-P 1'
loop_
_symmetry_equiv_pos_site_id
_symmetry_equiv_pos_as_xyz
1 x,y,z
2 -x,-y,-z
_cell_length_a                   11.023(2)
_cell_length_b                   11.495(2)
_cell_length_c                   13.324(3)
_cell_angle_alpha                104.17(3)
_cell_angle_beta                 96.75(3)
_cell_angle_gamma                108.01(3)
_cell_volume                     1522.14
loop_
_atom_site_label
_atom_site_type_symbol
_atom_site_fract_x
_atom_site_fract_y
_atom_site_fract_z
Mn1 Mn 0.16989(6) 1.40231(5) 1.07598(5)
Mn2 Mn -0.32699(6) 0.74414(5) 1.57948(5)
N1 N 0.2262(3) 1.2268(3) 1.0151(3)
N2 N -0.2723(4) 0.9185(3) 1.5162(3)
O1 O 0.3481(4) 1.4745(3) 1.1926(3)
O2 O -0.0062(4) 1.3175(4) 0.9485(3)
O3 O -0.1504(3) 0.8409(3) 1.7015(3)
O4 O -0.5043(3) 0.6577(3) 1.4561(3)
O5 O 0.2820(3) 0.4689(3) 0.9363(3)
O6 O 0.2127(3) 0.5932(3) 1.0489(3)
O7 O 0.0430(3) 1.4834(3) 1.1856(3)
O8 O 0.0591(3) 1.2979(3) 1.1842(2)
O9 O 0.5550(3) 0.6639(3) 0.6954(2)
O10 O 0.5625(3) 0.8534(3) 0.6849(3)
O11 O -0.2872(3) 1.5625(3) 1.5493(2)
O12 O -0.1993(3) 1.6731(3) 1.4464(3)
C1 C 0.1595(5) 1.1138(4) 1.0281(4)
H1 H 0.0887 1.1088 1.0608
C2 C 0.1905(5) 1.0049(4) 0.9956(4)
H2 H 0.1410 0.9293 1.0069
C3 C 0.2951(4) 1.0072(4) 0.9462(3)
C4 C 0.3657(4) 1.1240(4) 0.9341(3)
H3 H 0.4375 1.1317 0.9024
C5 C 0.3283(4) 1.2302(4) 0.9697(3)
H4 H 0.3776 1.3077 0.9613
C6 C 0.3314(4) 0.8915(3) 0.9116(3)
C7 C 0.2883(4) 0.7902(4) 0.9554(3)
H5 H 0.2398 0.7976 1.0077
C8 C 0.3170(4) 0.6795(3) 0.9221(3)
C9 C 0.3915(4) 0.6686(3) 0.8454(3)
H6 H 0.4103 0.5941 0.8226
C10 C 0.4382(4) 0.7690(4) 0.8026(3)
C11 C 0.4059(4) 0.8786(3) 0.8352(3)
H7 H 0.4348 0.9445 0.8051
C12 C 0.2675(4) 0.5741(4) 0.9710(3)
C13 C 0.5244(4) 0.7617(4) 0.7232(3)
C14 C -0.2231(4) 1.5750(4) 1.4774(3)
C15 C -0.1755(4) 1.4695(3) 1.4276(3)
C16 C -0.2077(4) 1.3584(4) 1.4590(3)
H8 H -0.2549 1.3526 1.5121
C17 C -0.1707(4) 1.2568(4) 1.4127(3)
C18 C -0.0976(4) 1.2683(4) 1.3341(3)
H9 H -0.0728 1.2003 1.3018
C19 C -0.0616(4) 1.3788(3) 1.3037(3)
C20 C -0.1016(4) 1.4801(3) 1.3505(3)
H10 H -0.0786 1.5544 1.3299
C21 C 0.0181(4) 1.3879(4) 1.2200(3)
C22 C -0.2078(5) 1.1371(4) 1.4452(4)
C23 C -0.1385(7) 1.0580(5) 1.4360(5)
H11 H -0.0655 1.0757 1.4058
C24 C -0.1752(7) 0.9507(5) 1.4711(5)
H12 H -0.1257 0.8978 1.4614
C25 C -0.3475(7) 0.9894(6) 1.5174(6)
H13 H -0.4236 0.9652 1.5428
C26 C -0.3186(7) 1.0977(6) 1.4829(6)
H14 H -0.3750 1.1434 1.4854
H15 H 0.373(5) 1.433(3) 1.230(5)
H16 H 0.402(4) 1.551(3) 1.210(5)
H17 H 0.005(4) 1.323(8) 0.888(2)
H18 H -0.071(4) 1.339(7) 0.962(3)
H19 H -0.123(5) 0.806(3) 1.745(4)
H20 H -0.109(5) 0.9206(15) 1.721(4)
H21 H -0.554(5) 0.582(3) 1.449(4)
H22 H -0.501(5) 0.668(6) 1.3953(19)
Mn1_2 Mn 0.16989(6) 0.40231(5) 1.07598(5)
Mn2_2 Mn 0.67301(6) 0.74414(5) 0.57948(5)
Mn2_3 Mn -0.32699(6) 1.74414(5) 1.57948(5)
O6_2 O 0.2127(3) 1.5932(3) 1.0489(3)
O9_2 O -0.4450(3) 0.6639(3) 1.6954(2)
O10_2 O -0.4375(3) 0.8534(3) 1.6849(3)
O11_2 O -0.2872(3) 0.5625(3) 1.5493(2)
O13 O 0.8506(10) 0.2630(6) 0.7117(5)
H23 H 0.884(8) 0.337(3) 0.705(5)
H24 H 0.818(8) 0.208(5) 0.651(3)
O14 O 0.6122(5) 0.1242(5) 0.7683(5)
H25 H 0.675(4) 0.195(3) 0.784(7)
H26 H 0.643(6) 0.064(4) 0.764(7)
O15 O 0.4778(4) 0.2818(4) 0.7324(4)
H27 H 0.513(6) 0.226(5) 0.735(7)
H28 H 0.3955(11) 0.248(6) 0.723(7)
O16 O 0.2243(5) 0.2804(4) 0.7467(3)
H29 H 0.237(8) 0.346(4) 0.798(4)
H30 H 0.233(9) 0.302(6) 0.691(3)
O17 O -0.0116(6) 0.1056(5) 0.7688(5)
H31 H 0.068(2) 0.140(7) 0.766(7)
H32 H -0.058(6) 0.141(8) 0.741(7)
loop_
_geom_bond_atom_site_label_1
_geom_bond_atom_site_label_2
_geom_bond_site_symmetry_1
_geom_bond_site_symmetry_2
Mn1 N1 1_555 1_555
Mn2 N2 1_555 1_555
N1 C1 1_555 1_555
N2 C24 1_555 1_555
O1 Mn1 1_555 1_555
O2 Mn1 1_555 1_555
O3 Mn2 1_555 1_555
O4 Mn2 1_555 1_555
O5 C12 1_555 1_555
O6 C12 1_555 1_555
O7 Mn1 1_555 1_555
O8 Mn1 1_555 1_555
O9 C13 1_555 1_555
O10 C13 1_555 1_555
O11 C14 1_555 1_555
O12 C14 1_555 1_555
C1 H1 1_555 1_555
C2 C1 1_555 1_555
H2 C2 1_555 1_555
C3 C2 1_555 1_555
C4 C3 1_555 1_555
H3 C4 1_555 1_555
C5 N1 1_555 1_555
H4 C5 1_555 1_555
C6 C3 1_555 1_555
C7 C6 1_555 1_555
H5 C7 1_555 1_555
C8 C7 1_555 1_555
C9 C8 1_555 1_555
H6 C9 1_555 1_555
C10 C9 1_555 1_555
C11 C6 1_555 1_555
H7 C11 1_555 1_555
C12 C8 1_555 1_555
C13 C10 1_555 1_555
C14 C15 1_555 1_555
C15 C16 1_555 1_555
C16 H8 1_555 1_555
C17 C16 1_555 1_555
C18 C17 1_555 1_555
H9 C18 1_555 1_555
C19 C18 1_555 1_555
C20 C15 1_555 1_555
H10 C20 1_555 1_555
C21 O7 1_555 1_555
C22 C17 1_555 1_555
C23 C22 1_555 1_555
H11 C23 1_555 1_555
C24 C23 1_555 1_555
H12 C24 1_555 1_555
C25 N2 1_555 1_555
H13 C25 1_555 1_555
C26 C22 1_555 1_555
H14 C26 1_555 1_555
H15 O1 1_555 1_555
H16 O1 1_555 1_555
H17 O2 1_555 1_555
H18 O2 1_555 1_555
H19 O3 1_555 1_555
H20 O3 1_555 1_555
H21 O4 1_555 1_555
H22 O4 1_555 1_555
O13 H23 1_555 1_555
H24 O13 1_555 1_555
O14 H25 1_555 1_555
H26 O14 1_555 1_555
O15 H27 1_555 1_555
H28 O15 1_555 1_555
O16 H29 1_555 1_555
H30 O16 1_555 1_555
O17 H31 1_555 1_555
H32 O17 1_555 1_555
Mn1_2 O6 1_555 1_555
Mn2_2 O9 1_555 1_555
Mn2_3 O11 1_555 1_555
O6_2 Mn1 1_555 1_555
O9_2 Mn2 1_555 1_555
O10_2 Mn2 1_555 1_555
O11_2 Mn2 1_555 1_555
O8 C21 1_555 1_555
O10 Mn2_2 1_555 1_555
C4 C5 1_555 1_555
C10 C11 1_555 1_555
C19 C20 1_555 1_555
C19 C21 1_555 1_555
C25 C26 1_555 1_555

#END
