
#######################################################################
#
#                 Cambridge Crystallographic Data Centre
#                                CCDC 
#
#######################################################################
#
# If this CIF has been generated from an entry in the Cambridge 
# Structural Database, then it will include bibliographic, chemical, 
# crystal, experimental, refinement or atomic coordinate data resulting 
# from the CCDC's data processing and validation procedures.
#
#######################################################################

data_LAZMEG
_symmetry_cell_setting           monoclinic
_symmetry_space_group_name_H-M   'P 21/c'
_symmetry_Int_Tables_number      14
_space_group_name_Hall           '-P 2ybc'
loop_
_symmetry_equiv_pos_site_id
_symmetry_equiv_pos_as_xyz
1 x,y,z
2 -x,1/2+y,1/2-z
3 -x,-y,-z
4 x,1/2-y,1/2+z
_cell_length_a                   11.140(2)
_cell_length_b                   17.579(4)
_cell_length_c                   7.8365(16)
_cell_angle_alpha                90
_cell_angle_beta                 106.23(3)
_cell_angle_gamma                90
_cell_volume                     1473.46
loop_
_atom_site_label
_atom_site_type_symbol
_atom_site_fract_x
_atom_site_fract_y
_atom_site_fract_z
Mn1 Mn 1.20436(6) 0.07377(4) 0.89354(8)
Mn2 Mn 1.0000 0.0000 0.5000
O1 O 1.0071(3) 0.08956(17) 0.6958(4)
O2 O 1.1036(3) 0.18705(19) 0.8449(5)
O3 O 1.2971(3) 0.0945(2) 0.6944(4)
O4 O 1.1725(3) 0.0418(2) 0.4499(4)
O5 O 0.7274(3) 0.45823(18) 0.5530(5)
O6 O 0.8975(3) 0.43908(19) 0.7705(5)
O7 O 1.0996(4) 0.0503(3) 1.0861(5)
N1 N 0.3590(3) 0.1229(2) 0.1086(5)
C1 C 1.0089(4) 0.1595(3) 0.7385(6)
C2 C 0.8968(4) 0.2077(2) 0.6599(6)
C3 C 0.7862(4) 0.1758(2) 0.5566(6)
H1 H 0.7810 0.1233 0.5413
C4 C 0.6829(4) 0.2207(2) 0.4752(5)
C5 C 0.6925(4) 0.2992(2) 0.5025(5)
H2 H 0.6258 0.3304 0.4462
C6 C 0.8014(4) 0.3315(2) 0.6134(5)
C7 C 0.9033(4) 0.2858(2) 0.6913(5)
H3 H 0.9759 0.3072 0.7643
C8 C 0.8086(4) 0.4152(3) 0.6451(6)
C9 C 0.5681(4) 0.1866(2) 0.3558(5)
C10 C 0.4629(4) 0.2293(3) 0.2738(6)
H4 H 0.4604 0.2807 0.3004
C11 C 0.3619(5) 0.1961(3) 0.1531(6)
H5 H 0.2928 0.2262 0.1005
C12 C 0.4573(5) 0.0809(3) 0.1906(7)
H6 H 0.4568 0.0294 0.1629
C13 C 0.5601(4) 0.1100(3) 0.3149(6)
H7 H 0.6249 0.0777 0.3720
C14 C 1.2654(5) 0.0794(3) 0.5353(7)
H8 H 1.3167 0.0983 0.4697
H9 H 1.134(4) 0.019(2) 1.168(4)
H10 H 1.077(5) 0.0891(14) 1.133(5)
Mn1A Mn 0.79564(6) -0.42623(4) 0.60646(8)
Mn1A_2 Mn 0.79564(6) 0.57377(4) 0.60646(8)
Mn1_2 Mn 0.20436(6) 0.07377(4) -0.10646(8)
Mn1A_3 Mn 1.79564(6) -0.42623(4) 1.60646(8)
Mn1B Mn 0.79564(6) -0.07377(4) 0.10646(8)
Mn2A Mn 1.0000 0.5000 1.0000
Mn2A_2 Mn 1.0000 -0.5000 1.0000
O1A O 0.9929(3) -0.41044(17) 0.8042(4)
O1B O 0.9929(3) -0.08956(17) 0.3042(4)
O2A O 0.8964(3) -0.31295(19) 0.6551(5)
O3B O 0.7029(3) -0.0945(2) 0.3056(4)
O3A O 0.7029(3) -0.4055(2) 0.8056(4)
O4B O 0.8275(3) -0.0418(2) 0.5501(4)
O5A O 1.2726(3) -0.04177(18) 0.9470(5)
O5_2 O 0.7274(3) -0.54177(18) 0.5530(5)
O6A O 1.1025(3) -0.06092(19) 0.7295(5)
O6C O 0.8975(3) 0.06092(19) 0.2705(5)
O7A O 0.9004(4) -0.4497(3) 0.4139(5)
N1A N 1.6410(3) -0.3771(2) 1.3914(5)
N1_2 N 1.3590(3) 0.1229(2) 1.1086(5)
N1A_2 N 0.6410(3) -0.3771(2) 0.3914(5)
C1A C 0.9911(4) -0.3405(3) 0.7615(6)
C2A C 1.1032(4) -0.2923(2) 0.8401(6)
C3A C 1.2138(4) -0.3242(2) 0.9434(6)
H1A H 1.2190 -0.3767 0.9587
C4A C 1.3171(4) -0.2793(2) 1.0248(5)
C5A C 1.3075(4) -0.2008(2) 0.9975(5)
H2A H 1.3742 -0.1696 1.0538
C6A C 1.1986(4) -0.1685(2) 0.8866(5)
C7A C 1.0967(4) -0.2142(2) 0.8087(5)
H3A H 1.0241 -0.1928 0.7357
C8A C 1.1914(4) -0.0848(3) 0.8549(6)
C9A C 1.4319(4) -0.3134(2) 1.1442(5)
C10A C 1.5371(4) -0.2707(3) 1.2262(6)
H4A H 1.5396 -0.2193 1.1996
C11A C 1.6381(5) -0.3039(3) 1.3469(6)
H5A H 1.7072 -0.2738 1.3995
C12A C 1.5427(5) -0.4191(3) 1.3094(7)
H6A H 1.5432 -0.4706 1.3371
C13A C 1.4399(4) -0.3900(3) 1.1851(6)
H7A H 1.3751 -0.4223 1.1280
C14B C 0.7346(5) -0.0794(3) 0.4647(7)
H8B H 0.6833 -0.0983 0.5303
H9A H 0.866(4) -0.481(2) 0.332(4)
H10A H 0.923(5) -0.4109(14) 0.367(5)
loop_
_geom_bond_atom_site_label_1
_geom_bond_atom_site_label_2
_geom_bond_site_symmetry_1
_geom_bond_site_symmetry_2
Mn1 O1 1_555 1_555
Mn2 O1 1_555 1_555
O1 C1 1_555 1_555
O2 Mn1 1_555 1_555
O3 Mn1 1_555 1_555
O4 Mn2 1_555 1_555
O5 C8 1_555 1_555
O6 C8 1_555 1_555
O7 Mn1 1_555 1_555
N1 C11 1_555 1_555
C1 O2 1_555 1_555
C2 C1 1_555 1_555
C3 C2 1_555 1_555
H1 C3 1_555 1_555
C4 C3 1_555 1_555
C5 C4 1_555 1_555
H2 C5 1_555 1_555
C6 C5 1_555 1_555
C7 C2 1_555 1_555
H3 C7 1_555 1_555
C8 C6 1_555 1_555
C9 C4 1_555 1_555
C10 C9 1_555 1_555
H4 C10 1_555 1_555
C11 C10 1_555 1_555
H5 C11 1_555 1_555
C12 N1 1_555 1_555
H6 C12 1_555 1_555
C13 C9 1_555 1_555
H7 C13 1_555 1_555
C14 O3 1_555 1_555
H8 C14 1_555 1_555
H9 O7 1_555 1_555
H10 O7 1_555 1_555
Mn1A O1A 1_555 1_555
Mn1A_2 O5 1_555 1_555
Mn1_2 N1 1_555 1_555
Mn1A_3 N1A 1_555 1_555
Mn1B O1B 1_555 1_555
Mn2A O6 1_555 1_555
Mn2A_2 O1A 1_555 1_555
O1A C1A 1_555 1_555
O1B Mn2 1_555 1_555
O2A Mn1A 1_555 1_555
O3B Mn1B 1_555 1_555
O3A Mn1A 1_555 1_555
O4B Mn2 1_555 1_555
O5A Mn1 1_555 1_555
O5_2 Mn1A 1_555 1_555
O6A Mn2 1_555 1_555
O6C Mn2 1_555 1_555
O7A Mn1A 1_555 1_555
N1A C11A 1_555 1_555
N1_2 Mn1 1_555 1_555
N1A_2 Mn1A 1_555 1_555
C1A O2A 1_555 1_555
C2A C1A 1_555 1_555
C3A C2A 1_555 1_555
H1A C3A 1_555 1_555
C4A C3A 1_555 1_555
C5A C4A 1_555 1_555
H2A C5A 1_555 1_555
C6A C5A 1_555 1_555
C7A C2A 1_555 1_555
H3A C7A 1_555 1_555
C8A O5A 1_555 1_555
C9A C4A 1_555 1_555
C10A C9A 1_555 1_555
H4A C10A 1_555 1_555
C11A C10A 1_555 1_555
H5A C11A 1_555 1_555
C12A N1A 1_555 1_555
H6A C12A 1_555 1_555
C13A C9A 1_555 1_555
H7A C13A 1_555 1_555
C14B O3B 1_555 1_555
H8B C14B 1_555 1_555
H9A O7A 1_555 1_555
H10A O7A 1_555 1_555
O4 C14 1_555 1_555
C6 C7 1_555 1_555
C12 C13 1_555 1_555
O4B C14B 1_555 1_555
O6A C8A 1_555 1_555
C6A C7A 1_555 1_555
C6A C8A 1_555 1_555
C12A C13A 1_555 1_555

#END
