
#######################################################################
#
#                 Cambridge Crystallographic Data Centre
#                                CCDC 
#
#######################################################################
#
# If this CIF has been generated from an entry in the Cambridge 
# Structural Database, then it will include bibliographic, chemical, 
# crystal, experimental, refinement or atomic coordinate data resulting 
# from the CCDC's data processing and validation procedures.
#
#######################################################################

data_LAZMUW
_symmetry_cell_setting           triclinic
_symmetry_space_group_name_H-M   'P -1'
_symmetry_Int_Tables_number      2
_space_group_name_Hall           '-P 1'
loop_
_symmetry_equiv_pos_site_id
_symmetry_equiv_pos_as_xyz
1 x,y,z
2 -x,-y,-z
_cell_length_a                   10.096(2)
_cell_length_b                   10.992(2)
_cell_length_c                   15.649(3)
_cell_angle_alpha                86.29(3)
_cell_angle_beta                 73.19(3)
_cell_angle_gamma                65.78(3)
_cell_volume                     1513.21
loop_
_atom_site_label
_atom_site_type_symbol
_atom_site_fract_x
_atom_site_fract_y
_atom_site_fract_z
Co1 Co 0.78462(5) 0.09610(4) -0.13781(4)
N1 N -0.1006(4) 0.8873(3) -0.1432(2)
O1 O 0.5786(3) 0.0804(3) -0.1363(2)
O2 O 0.5807(3) 0.2783(3) -0.1413(2)
O3 O 0.0919(3) 0.0366(3) -0.1000(2)
O4 O -0.0845(3) 0.1998(3) -0.1459(2)
O9 O 0.8574(3) 0.0872(3) -0.2823(2)
O11 O 0.7232(3) 0.1056(3) 0.0022(2)
H1 H 0.7857 0.0338 0.0270
C1 C 0.5114(4) 0.2049(4) -0.1384(3)
C2 C 0.3477(4) 0.2657(3) -0.1346(2)
C3 C 0.2707(4) 0.1846(3) -0.1299(2)
H3 H 0.3212 0.0925 -0.1286
C4 C 0.1182(4) 0.2407(3) -0.1272(2)
C5 C 0.0443(4) 0.3787(3) -0.1292(3)
H4 H -0.0579 0.4166 -0.1266
C6 C 0.1205(4) 0.4614(3) -0.1351(2)
C7 C 0.2726(4) 0.4038(3) -0.1375(3)
H5 H 0.3247 0.4576 -0.1411
C8 C 0.0415(4) 0.6086(3) -0.1394(3)
C9 C 0.1191(4) 0.6813(4) -0.1887(3)
H6 H 0.2203 0.6380 -0.2218
C10 C 0.0446(4) 0.8188(4) -0.1879(3)
H7 H 0.0988 0.8660 -0.2204
C11 C -0.1766(4) 0.8161(4) -0.0987(3)
H8 H -0.2789 0.8614 -0.0685
C12 C -0.1101(4) 0.6787(4) -0.0957(3)
H9 H -0.1676 0.6336 -0.0642
C13 C 0.0376(4) 0.1513(4) -0.1236(3)
C27 C 0.6039(13) 0.2024(9) 0.0635(6)
H17 H 0.5135 0.2218 0.0454
H18 H 0.5903 0.1618 0.1205
C28 C 0.6060(17) 0.3152(13) 0.0781(13)
H19 H 0.7072 0.3098 0.0534
H20 H 0.5738 0.3358 0.1415
H21 H 0.5388 0.3842 0.0508
H27 H 0.937(17) 0.10(3) -0.300(10)
H28 H 0.788(12) 0.15(2) -0.301(10)
Co1_2 Co -0.21538(5) 0.09610(4) -0.13781(4)
Co1_3 Co -0.21538(5) 1.09610(4) -0.13781(4)
N1_2 N 0.8994(4) -0.1127(3) -0.1432(2)
O4_2 O 0.9155(3) 0.1998(3) -0.1459(2)
Co2 Co -0.18786(5) 0.41398(5) -0.36853(4)
N2 N 0.6980(4) -0.3781(3) -0.3645(2)
O5 O 0.0248(3) 0.4342(3) -0.3760(2)
O6 O 0.0168(3) 0.2377(3) -0.3653(2)
O7 O 0.4732(4) 0.4790(3) -0.3359(3)
O8 O 0.6915(3) 0.3030(3) -0.36194(19)
O10 O -0.2487(3) 0.4225(3) -0.22419(19)
O12 O -0.1299(4) 0.4008(3) -0.5099(2)
H2 H -0.1106 0.4716 -0.5377
C14 C 0.0886(4) 0.3091(4) -0.3691(2)
C15 C 0.2480(4) 0.2469(3) -0.3647(2)
C16 C 0.3223(4) 0.1081(3) -0.3653(2)
H10 H 0.2713 0.0552 -0.3677
C17 C 0.4716(4) 0.0483(3) -0.3623(2)
C18 C 0.5464(4) 0.1298(3) -0.3596(2)
H11 H 0.6473 0.0906 -0.3593
C19 C 0.4730(4) 0.2683(3) -0.3573(2)
C20 C 0.3233(4) 0.3260(3) -0.3598(2)
H12 H 0.2732 0.4186 -0.3583
C21 C 0.5493(4) -0.0985(3) -0.3620(3)
C22 C 0.5226(4) -0.1823(4) -0.4104(3)
H13 H 0.4527 -0.1462 -0.4429
C23 C 0.5991(4) -0.3197(4) -0.4110(3)
H14 H 0.5806 -0.3735 -0.4454
C24 C 0.7226(5) -0.2977(4) -0.3161(3)
H15 H 0.7907 -0.3366 -0.2827
C25 C 0.6518(5) -0.1594(4) -0.3132(3)
H16 H 0.6729 -0.1077 -0.2787
C26 C 0.5498(4) 0.3582(4) -0.3516(3)
C29 C -0.1161(15) 0.3013(9) -0.5681(5)
H22 H -0.2123 0.3349 -0.5817
H23 H -0.0419 0.3036 -0.6230
C30 C -0.081(3) 0.1715(14) -0.5562(8)
H24 H 0.0113 0.1191 -0.6005
H25 H -0.1616 0.1501 -0.5620
H26 H -0.0688 0.1520 -0.4976
H29 H -0.335(13) 0.42(3) -0.208(10)
H30 H -0.184(18) 0.350(14) -0.211(10)
Co2_2 Co 0.81214(5) 0.41398(5) -0.36853(4)
Co2_3 Co 0.81214(5) -0.58602(5) -0.36853(4)
N2_2 N -0.3020(4) 0.6219(3) -0.3645(2)
O8_2 O -0.3085(3) 0.3030(3) -0.36194(19)
loop_
_geom_bond_atom_site_label_1
_geom_bond_atom_site_label_2
_geom_bond_site_symmetry_1
_geom_bond_site_symmetry_2
Co1 O1 1_555 1_555
Co2 O5 1_555 1_555
N1 C10 1_555 1_555
N2 C23 1_555 1_555
O1 C1 1_555 1_555
O2 Co1 1_555 1_555
O3 C13 1_555 1_555
O4 C13 1_555 1_555
O5 C14 1_555 1_555
O6 Co2 1_555 1_555
O7 C26 1_555 1_555
O8 C26 1_555 1_555
O9 Co1 1_555 1_555
O10 Co2 1_555 1_555
O11 Co1 1_555 1_555
H1 O11 1_555 1_555
O12 Co2 1_555 1_555
H2 O12 1_555 1_555
C1 O2 1_555 1_555
C2 C1 1_555 1_555
C3 C2 1_555 1_555
H3 C3 1_555 1_555
C4 C3 1_555 1_555
C5 C4 1_555 1_555
H4 C5 1_555 1_555
C6 C5 1_555 1_555
C7 C2 1_555 1_555
H5 C7 1_555 1_555
C8 C6 1_555 1_555
C9 C8 1_555 1_555
H6 C9 1_555 1_555
C10 C9 1_555 1_555
H7 C10 1_555 1_555
C11 N1 1_555 1_555
H8 C11 1_555 1_555
C12 C8 1_555 1_555
H9 C12 1_555 1_555
C13 C4 1_555 1_555
C14 O6 1_555 1_555
C15 C14 1_555 1_555
C16 C15 1_555 1_555
H10 C16 1_555 1_555
C17 C16 1_555 1_555
C18 C17 1_555 1_555
H11 C18 1_555 1_555
C19 C18 1_555 1_555
C20 C15 1_555 1_555
H12 C20 1_555 1_555
C21 C17 1_555 1_555
C22 C21 1_555 1_555
H13 C22 1_555 1_555
C23 C22 1_555 1_555
H14 C23 1_555 1_555
C24 N2 1_555 1_555
H15 C24 1_555 1_555
C25 C21 1_555 1_555
H16 C25 1_555 1_555
C26 C19 1_555 1_555
C27 O11 1_555 1_555
H17 C27 1_555 1_555
H18 C27 1_555 1_555
C28 C27 1_555 1_555
H19 C28 1_555 1_555
H20 C28 1_555 1_555
H21 C28 1_555 1_555
C29 O12 1_555 1_555
H22 C29 1_555 1_555
H23 C29 1_555 1_555
C30 C29 1_555 1_555
H24 C30 1_555 1_555
H25 C30 1_555 1_555
H26 C30 1_555 1_555
H27 O9 1_555 1_555
H28 O9 1_555 1_555
H29 O10 1_555 1_555
H30 O10 1_555 1_555
Co1_2 O4 1_555 1_555
Co1_3 N1 1_555 1_555
Co2_2 O8 1_555 1_555
Co2_3 N2 1_555 1_555
N1_2 Co1 1_555 1_555
N2_2 Co2 1_555 1_555
O4_2 Co1 1_555 1_555
O8_2 Co2 1_555 1_555
C6 C7 1_555 1_555
C11 C12 1_555 1_555
C19 C20 1_555 1_555
C24 C25 1_555 1_555

#END
