
#######################################################################
#
#                 Cambridge Crystallographic Data Centre
#                                CCDC 
#
#######################################################################
#
# If this CIF has been generated from an entry in the Cambridge 
# Structural Database, then it will include bibliographic, chemical, 
# crystal, experimental, refinement or atomic coordinate data resulting 
# from the CCDC's data processing and validation procedures.
#
#######################################################################

data_LAZNOQ
_symmetry_cell_setting           monoclinic
_symmetry_space_group_name_H-M   'C 2/m'
_symmetry_Int_Tables_number      12
_space_group_name_Hall           '-C 2y'
loop_
_symmetry_equiv_pos_site_id
_symmetry_equiv_pos_as_xyz
1 x,y,z
2 1/2+x,1/2+y,z
3 -x,y,-z
4 1/2-x,1/2+y,-z
5 -x,-y,-z
6 1/2-x,1/2-y,-z
7 x,-y,z
8 1/2+x,1/2-y,z
_cell_length_a                   20.046(3)
_cell_length_b                   4.0553(6)
_cell_length_c                   11.243(2)
_cell_angle_alpha                90
_cell_angle_beta                 119.822(2)
_cell_angle_gamma                90
_cell_volume                     792.939
loop_
_atom_site_label
_atom_site_type_symbol
_atom_site_fract_x
_atom_site_fract_y
_atom_site_fract_z
Cd1 Cd -0.15073(4) -1.0000 -0.36518(7)
Br1 Br -0.11267(6) -1.5000 -0.18313(10)
Br2 Br -0.30424(5) -1.0000 -0.43179(10)
O1 O -0.0407(4) -1.0000 -0.3798(6)
N1 N 0.0851(5) -1.0000 -0.3158(9)
H1 H 0.0785(5) -1.0000 -0.3974(9)
C1 C 0.0280(5) -1.0000 -0.2899(10)
C2 C 0.1613(6) -1.0000 -0.1917(11)
H2 H 0.1903(6) -0.8055 -0.1889(11)
H3 H 0.1903(6) -1.1945 -0.1889(11)
C3 C 0.1461(6) -1.0000 -0.0765(11)
H4 H 0.1681(6) -0.8057 -0.0200(11)
H5 H 0.1681(6) -1.1943 -0.0200(11)
C4 C 0.0604(6) -1.0000 -0.1391(10)
H6 H 0.0437(6) -1.1943 -0.1107(10)
H7 H 0.0437(6) -0.8057 -0.1107(10)
Cd1_2 Cd -0.15073(4) -2.0000 -0.36518(7)
Cd1E Cd -0.34927(4) -1.5000 -0.63482(7)
Cd1E_2 Cd -0.34927(4) -0.5000 -0.63482(7)
Br1_2 Br -0.11267(6) -0.5000 -0.18313(10)
Br2E Br -0.19576(5) -1.5000 -0.56821(10)
Br2E_2 Br -0.19576(5) -0.5000 -0.56821(10)
loop_
_geom_bond_atom_site_label_1
_geom_bond_atom_site_label_2
_geom_bond_site_symmetry_1
_geom_bond_site_symmetry_2
Cd1 Br1 1_555 1_555
Br1 Cd1_2 1_555 1_555
Br2 Cd1 1_555 1_555
O1 Cd1 1_555 1_555
N1 H1 1_555 1_555
C1 O1 1_555 1_555
C2 N1 1_555 1_555
H2 C2 1_555 1_555
H3 C2 1_555 1_555
C3 C2 1_555 1_555
H4 C3 1_555 1_555
H5 C3 1_555 1_555
C4 C1 1_555 1_555
H6 C4 1_555 1_555
H7 C4 1_555 1_555
Cd1_2 Br2E 1_555 1_555
Cd1E Br2 1_555 1_555
Cd1E_2 Br2 1_555 1_555
Br1_2 Cd1 1_555 1_555
Br2E Cd1 1_555 1_555
Br2E_2 Cd1 1_555 1_555
N1 C1 1_555 1_555
C3 C4 1_555 1_555
Cd1E Br2E 1_555 1_555
Cd1E_2 Br2E_2 1_555 1_555

#END
