
#######################################################################
#
#                 Cambridge Crystallographic Data Centre
#                                CCDC 
#
#######################################################################
#
# If this CIF has been generated from an entry in the Cambridge 
# Structural Database, then it will include bibliographic, chemical, 
# crystal, experimental, refinement or atomic coordinate data resulting 
# from the CCDC's data processing and validation procedures.
#
#######################################################################

data_LAZNUW
_symmetry_cell_setting           monoclinic
_symmetry_space_group_name_H-M   'P 21'
_symmetry_Int_Tables_number      4
_space_group_name_Hall           'P 2yb'
loop_
_symmetry_equiv_pos_site_id
_symmetry_equiv_pos_as_xyz
1 x,y,z
2 -x,1/2+y,-z
_cell_length_a                   11.993(4)
_cell_length_b                   4.7227(8)
_cell_length_c                   14.804(4)
_cell_angle_alpha                90
_cell_angle_beta                 93.973(13)
_cell_angle_gamma                90
_cell_volume                     836.474
loop_
_atom_site_label
_atom_site_type_symbol
_atom_site_fract_x
_atom_site_fract_y
_atom_site_fract_z
Cd1 Cd 0.73919(3) 1.4035(5) 0.24310(3)
C1 C 0.4490(5) 1.3971(56) 0.7630(5)
C2 C 0.5714(5) 1.3278(15) 0.7794(5)
H1 H 0.5822(5) 1.2180(15) 0.8347(5)
H2 H 0.6130(5) 1.5029(15) 0.7884(5)
C3 C 0.9295(5) 0.8886(52) 0.2562(5)
C4 C 0.6260(6) 1.3359(18) 0.6169(5)
H3 H 0.6688(6) 1.5064(18) 0.6311(5)
H4 H 0.5513(6) 1.3927(18) 0.5948(5)
O1 O 0.8701(4) 1.0551(12) 0.2033(4)
C5 C 1.1967(6) 0.9600(21) -0.0337(5)
H5 H 1.2391(6) 0.7941(21) -0.0136(5)
H6 H 1.1255(6) 0.8949(21) -0.0612(5)
C6 C 0.6857(6) 1.3514(30) 0.4561(6)
H7 H 0.6102(6) 1.3933(30) 0.4322(6)
H8 H 0.7224(6) 1.5299(30) 0.4713(6)
N1 N 0.7465(6) 1.2081(16) 0.3847(5)
N2 N 1.2578(5) 1.1063(15) -0.1040(5)
C7 C 0.6802(6) 1.1751(18) 0.5426(5)
H9 H 0.6380(6) 1.0036(18) 0.5287(5)
H10 H 0.7553(6) 1.1204(18) 0.5643(5)
C8 C 0.6187(6) 1.1630(18) 0.7025(5)
H11 H 0.6928(6) 1.0955(18) 0.7223(5)
H12 H 0.5719(6) 0.9987(18) 0.6890(5)
O2 O 0.8952(4) 0.6770(14) 0.2925(4)
C9 C 1.1197(6) 0.9730(15) 0.1210(5)
H13 H 1.0474(6) 0.9054(15) 0.0965(5)
H14 H 1.1650(6) 0.8089(15) 0.1380(5)
C10 C 1.0506(6) 0.9832(18) 0.2792(5)
H15 H 1.0526(6) 1.0998(18) 0.3333(5)
H16 H 1.0958(6) 0.8166(18) 0.2934(5)
O3 O 0.3861(4) 1.2567(13) 0.7127(4)
C11 C 1.1035(5) 1.1483(18) 0.2050(5)
H17 H 1.0566(5) 1.3099(18) 0.1882(5)
H18 H 1.1756(5) 1.2198(18) 0.2285(5)
C12 C 1.1751(6) 1.1357(19) 0.0477(5)
H19 H 1.1278(6) 1.2943(19) 0.0286(5)
H20 H 1.2456(6) 1.2116(19) 0.0732(5)
O6 O 0.4172(4) 1.6271(12) 0.8030(4)
H21 H 1.3299(37) 1.183(19) -0.0766(51)
H22 H 1.2266(45) 1.259(15) -0.1109(43)
H25 H 0.7149(62) 1.058(20) 0.3657(58)
H27 H 0.8092(69) 1.227(21) 0.4078(61)
Cd1A Cd 1.26081(3) 0.9035(5) -0.24310(3)
Cd1_2 Cd 0.73919(3) 0.4035(5) 0.24310(3)
Cd1A_2 Cd 0.26081(3) 0.9035(5) 0.75690(3)
Cd1A_3 Cd 0.26081(3) 1.9035(5) 0.75690(3)
N2A N 0.7422(5) 1.6063(15) 0.1040(5)
O2_2 O 0.8952(4) 1.6770(14) 0.2925(4)
O3A O 0.6139(4) 1.7567(13) 0.2873(4)
O6A O 0.5828(4) 1.1271(12) 0.1970(4)
H21A H 0.6701(37) 1.683(19) 0.0766(51)
H22A H 0.7734(45) 1.759(15) 0.1109(43)
O4 O 0.4649(8) 1.2718(18) 0.0369(7)
H23 H 0.5049(65) 1.253(20) 0.0981(26)
H24 H 0.5046(96) 1.259(30) 0.0232(98)
O5 O 0.9886(8) 0.4925(19) 0.4534(6)
H26 H 1.0143(78) 0.623(24) 0.4814(74)
loop_
_geom_bond_atom_site_label_1
_geom_bond_atom_site_label_2
_geom_bond_site_symmetry_1
_geom_bond_site_symmetry_2
Cd1 O1 1_555 1_555
C1 C2 1_555 1_555
C2 H1 1_555 1_555
H2 C2 1_555 1_555
C3 O1 1_555 1_555
C4 H3 1_555 1_555
H4 C4 1_555 1_555
C5 H5 1_555 1_555
H6 C5 1_555 1_555
C6 H7 1_555 1_555
H8 C6 1_555 1_555
N1 Cd1 1_555 1_555
N2 C5 1_555 1_555
C7 C4 1_555 1_555
H9 C7 1_555 1_555
H10 C7 1_555 1_555
C8 C2 1_555 1_555
H11 C8 1_555 1_555
H12 C8 1_555 1_555
O2 C3 1_555 1_555
C9 H13 1_555 1_555
H14 C9 1_555 1_555
C10 C3 1_555 1_555
H15 C10 1_555 1_555
H16 C10 1_555 1_555
O3 C1 1_555 1_555
C11 C9 1_555 1_555
H17 C11 1_555 1_555
H18 C11 1_555 1_555
C12 C5 1_555 1_555
H19 C12 1_555 1_555
H20 C12 1_555 1_555
O4 H23 1_555 1_555
O5 H26 1_555 1_555
O6 C1 1_555 1_555
H21 N2 1_555 1_555
H22 N2 1_555 1_555
H24 O4 1_555 1_555
H25 N1 1_555 1_555
H27 N1 1_555 1_555
Cd1A N2 1_555 1_555
Cd1_2 O2 1_555 1_555
Cd1A_2 O3 1_555 1_555
Cd1A_3 O6 1_555 1_555
N2A Cd1 1_555 1_555
O2_2 Cd1 1_555 1_555
O3A Cd1 1_555 1_555
O6A Cd1 1_555 1_555
H21A N2A 1_555 1_555
H22A N2A 1_555 1_555
C4 C8 1_555 1_555
C6 N1 1_555 1_555
C6 C7 1_555 1_555
C9 C12 1_555 1_555
C10 C11 1_555 1_555

#END
