
#######################################################################
#
#                 Cambridge Crystallographic Data Centre
#                                CCDC 
#
#######################################################################
#
# If this CIF has been generated from an entry in the Cambridge 
# Structural Database, then it will include bibliographic, chemical, 
# crystal, experimental, refinement or atomic coordinate data resulting 
# from the CCDC's data processing and validation procedures.
#
#######################################################################

data_LAZQEK
_symmetry_cell_setting           triclinic
_symmetry_space_group_name_H-M   'P -1'
_symmetry_Int_Tables_number      2
_space_group_name_Hall           '-P 1'
loop_
_symmetry_equiv_pos_site_id
_symmetry_equiv_pos_as_xyz
1 x,y,z
2 -x,-y,-z
_cell_length_a                   7.429(2)
_cell_length_b                   12.191(4)
_cell_length_c                   16.531(5)
_cell_angle_alpha                71.659(6)
_cell_angle_beta                 89.296(6)
_cell_angle_gamma                78.190(6)
_cell_volume                     1388.83
loop_
_atom_site_label
_atom_site_type_symbol
_atom_site_fract_x
_atom_site_fract_y
_atom_site_fract_z
C1 C 0.0795(4) 0.5056(2) -0.25187(18)
C2 C 0.1430(4) 0.3807(3) -0.25026(18)
C3 C 0.3099(4) 0.3157(3) -0.20779(19)
H1 H 0.3853 0.3511 -0.1810
C4 C 0.3660(4) 0.1995(3) -0.20461(18)
C5 C 0.2608(4) 0.1469(3) -0.24288(19)
H2 H 0.3007 0.0655 -0.2397
C6 C 0.0974(4) 0.2135(3) -0.28596(19)
C7 C 0.0340(4) 0.3302(3) -0.28931(19)
H3 H -0.0821 0.3745 -0.3183
C8 C 0.5912(4) 0.1470(3) -0.09099(19)
C9 C 0.4771(4) 0.1404(3) -0.0251(2)
H4 H 0.3536 0.1311 -0.0320
C10 C 0.5403(4) 0.1468(3) 0.0506(2)
H5 H 0.4610 0.1410 0.0974
C11 C 0.7166(4) 0.1644(3) 0.06039(18)
C12 C 0.8296(5) 0.1711(4) -0.0074(2)
H6 H 0.9516 0.1835 -0.0013
C13 C 0.7672(5) 0.1616(4) -0.0831(2)
H7 H 0.8470 0.1645 -0.1295
C14 C 0.7750(4) 0.1778(2) 0.14201(19)
C15 C -0.1426(5) 0.2216(3) -0.3831(2)
C16 C -0.1029(5) 0.2993(4) -0.4584(2)
H8 H 0.0199 0.3128 -0.4663
C17 C -0.2394(5) 0.3547(4) -0.5212(2)
H9 H -0.2124 0.4090 -0.5738
C18 C -0.4157(4) 0.3352(3) -0.51035(19)
C19 C -0.4534(5) 0.2597(3) -0.4339(2)
H10 H -0.5764 0.2470 -0.4252
C20 C -0.3179(5) 0.2021(3) -0.3700(2)
H11 H -0.3443 0.1492 -0.3166
C21 C -0.5543(5) 0.3898(3) -0.5834(2)
C22 C 1.1277(5) 0.1368(4) 0.4079(2)
H12 H 1.0026 0.1659 0.4186
C23 C 1.2497(5) 0.0741(4) 0.4758(2)
H13 H 1.2080 0.0571 0.5328
C24 C 1.4312(4) 0.0325(3) 0.46419(18)
C25 C 1.4782(4) 0.0553(3) 0.38024(19)
H14 H 1.6025 0.0273 0.3679
C26 C 1.3481(4) 0.1185(3) 0.31480(19)
H15 H 1.3848 0.1319 0.2572
C27 C 1.3394(4) 0.3921(3) 0.17108(19)
H16 H 1.3584 0.3773 0.2312
C28 C 1.4583(4) 0.4482(3) 0.11745(18)
H17 H 1.5543 0.4743 0.1400
C29 C 1.4370(4) 0.4705(2) 0.03034(17)
C30 C 1.2887(4) 0.4345(3) 0.00286(19)
H18 H 1.2649 0.4503 -0.0571
C31 C 1.1783(4) 0.3767(3) 0.06130(19)
H19 H 1.0802 0.3505 0.0405
Co1 Co 0.99849(5) 0.28945(3) 0.22895(2)
N1 N 1.2004(3) 0.3546(2) 0.14533(14)
N2 N 1.1748(3) 0.1613(2) 0.32704(14)
O1 O -0.0449(3) 0.57564(17) -0.30403(13)
O2 O 0.1542(3) 0.53861(17) -0.19811(13)
O3 O 0.5353(3) 0.1325(2) -0.16638(14)
O4 O 0.6833(3) 0.14458(19) 0.20562(13)
O5 O 0.9137(3) 0.22420(19) 0.14189(12)
O6 O -0.0055(4) 0.1549(2) -0.32057(16)
O7 O -0.7249(3) 0.3845(3) -0.56348(14)
H20 H -0.7932 0.4130 -0.6069
O8 O -0.5119(4) 0.4302(3) -0.65585(15)
O9 O 0.7747(3) 0.2454(2) 0.30975(14)
H21 H 0.701(5) 0.306(3) 0.314(2)
H22 H 0.745(5) 0.211(3) 0.276(2)
C1A C 0.9205(4) 0.4944(2) 0.25187(18)
C2A C 0.8570(4) 0.6193(3) 0.25026(18)
C3A C 0.6901(4) 0.6843(3) 0.20779(19)
H1A H 0.6147 0.6489 0.1810
C4A C 0.6340(4) 0.8005(3) 0.20461(18)
C5A C 0.7392(4) 0.8531(3) 0.24288(19)
H2A H 0.6993 0.9345 0.2397
C6A C 0.9026(4) 0.7865(3) 0.28596(19)
C7A C 0.9660(4) 0.6698(3) 0.28931(19)
H3A H 1.0821 0.6255 0.3183
C8A C 0.4088(4) 0.8530(3) 0.09099(19)
C9A C 0.5229(4) 0.8596(3) 0.0251(2)
H4A H 0.6464 0.8689 0.0320
C10A C 0.4597(4) 0.8532(3) -0.0506(2)
H5A H 0.5390 0.8590 -0.0974
C11A C 0.2834(4) 0.8356(3) -0.06039(18)
C12A C 0.1704(5) 0.8289(4) 0.0074(2)
H6A H 0.0484 0.8165 0.0013
C13A C 0.2328(5) 0.8384(4) 0.0831(2)
H7A H 0.1530 0.8355 0.1295
C14A C 0.2250(4) 0.8222(2) -0.14201(19)
C15A C 1.1426(5) 0.7784(3) 0.3831(2)
C16A C 1.1029(5) 0.7007(4) 0.4584(2)
H8A H 0.9801 0.6872 0.4663
C17A C 1.2394(5) 0.6453(4) 0.5212(2)
H9A H 1.2124 0.5910 0.5738
C18A C 1.4157(4) 0.6648(3) 0.51035(19)
C19A C 1.4534(5) 0.7403(3) 0.4339(2)
H10A H 1.5764 0.7530 0.4252
C20A C 1.3179(5) 0.7979(3) 0.3700(2)
H11A H 1.3443 0.8508 0.3166
C21A C 1.5543(5) 0.6102(3) 0.5834(2)
C22A C 1.8723(5) -0.1368(4) 0.5921(2)
H12A H 1.9974 -0.1659 0.5814
C23A C 1.7503(5) -0.0741(4) 0.5242(2)
H13A H 1.7920 -0.0571 0.4672
C24A C 1.5688(4) -0.0325(3) 0.53581(18)
C25A C 1.5218(4) -0.0553(3) 0.61976(19)
H14A H 1.3975 -0.0273 0.6321
C26A C 1.6519(4) -0.1185(3) 0.68520(19)
H15A H 1.6152 -0.1319 0.7428
C27A C 1.6606(4) 0.6079(3) -0.17108(19)
H16A H 1.6416 0.6227 -0.2312
C28A C 1.5417(4) 0.5518(3) -0.11745(18)
H17A H 1.4457 0.5257 -0.1400
C29A C 1.5630(4) 0.5295(2) -0.03034(17)
C30A C 1.7113(4) 0.5655(3) -0.00286(19)
H18A H 1.7351 0.5497 0.0571
C31A C 1.8217(4) 0.6233(3) -0.06130(19)
H19A H 1.9198 0.6495 -0.0405
Co1A Co 2.00151(5) 0.71055(3) -0.22895(2)
Co1A_2 Co 0.00151(5) 0.71055(3) -0.22895(2)
Co1A_3 Co 2.00151(5) -0.28945(3) 0.77105(2)
N1A N 1.7996(3) 0.6454(2) -0.14533(14)
N2A N 1.8252(3) -0.1613(2) 0.67296(14)
N2A_2 N 1.8252(3) 0.8387(2) -0.32704(14)
O1A O 1.0449(3) 0.42436(17) 0.30403(13)
O2A O 0.8458(3) 0.46139(17) 0.19811(13)
O2_2 O 2.1542(3) 0.53861(17) -0.19811(13)
O3A O 0.4647(3) 0.8675(2) 0.16638(14)
O4A O 0.3167(3) 0.85542(19) -0.20562(13)
O5A O 0.0863(3) 0.77580(19) -0.14189(12)
O5A_2 O 2.0863(3) 0.77580(19) -0.14189(12)
O6A O 1.0055(4) 0.8451(2) 0.32057(16)
O7A O 1.7249(3) 0.6155(3) 0.56348(14)
H20A H 1.7932 0.5870 0.6069
O8A O 1.5119(4) 0.5698(3) 0.65585(15)
O9A O 2.2253(3) 0.7546(2) -0.30975(14)
H21A H 2.299(5) 0.694(3) -0.314(2)
H22A H 2.255(5) 0.789(3) -0.276(2)
loop_
_geom_bond_atom_site_label_1
_geom_bond_atom_site_label_2
_geom_bond_site_symmetry_1
_geom_bond_site_symmetry_2
C1 C2 1_555 1_555
C2 C3 1_555 1_555
C3 H1 1_555 1_555
C4 C3 1_555 1_555
C5 C4 1_555 1_555
H2 C5 1_555 1_555
C6 C5 1_555 1_555
C7 C2 1_555 1_555
H3 C7 1_555 1_555
C8 C9 1_555 1_555
C9 H4 1_555 1_555
C10 C9 1_555 1_555
H5 C10 1_555 1_555
C11 C10 1_555 1_555
C12 C11 1_555 1_555
H6 C12 1_555 1_555
C13 C8 1_555 1_555
H7 C13 1_555 1_555
C14 C11 1_555 1_555
C15 C16 1_555 1_555
C16 H8 1_555 1_555
C17 C16 1_555 1_555
H9 C17 1_555 1_555
C18 C17 1_555 1_555
C19 C18 1_555 1_555
H10 C19 1_555 1_555
C20 C15 1_555 1_555
H11 C20 1_555 1_555
C21 C18 1_555 1_555
C22 H12 1_555 1_555
C23 C22 1_555 1_555
H13 C23 1_555 1_555
C24 C23 1_555 1_555
C25 C24 1_555 1_555
H14 C25 1_555 1_555
C26 C25 1_555 1_555
H15 C26 1_555 1_555
C27 H16 1_555 1_555
C28 C27 1_555 1_555
H17 C28 1_555 1_555
C29 C28 1_555 1_555
C30 C29 1_555 1_555
H18 C30 1_555 1_555
C31 C30 1_555 1_555
H19 C31 1_555 1_555
Co1 N1 1_555 1_555
N1 C27 1_555 1_555
N2 C22 1_555 1_555
O1 C1 1_555 1_555
O2 C1 1_555 1_555
O3 C4 1_555 1_555
O4 C14 1_555 1_555
O5 C14 1_555 1_555
O6 C6 1_555 1_555
O7 C21 1_555 1_555
H20 O7 1_555 1_555
O8 C21 1_555 1_555
O9 Co1 1_555 1_555
H21 O9 1_555 1_555
H22 O9 1_555 1_555
C1A C2A 1_555 1_555
C2A C3A 1_555 1_555
C3A H1A 1_555 1_555
C4A C3A 1_555 1_555
C5A C4A 1_555 1_555
H2A C5A 1_555 1_555
C6A C5A 1_555 1_555
C7A C2A 1_555 1_555
H3A C7A 1_555 1_555
C8A C9A 1_555 1_555
C9A H4A 1_555 1_555
C10A C9A 1_555 1_555
H5A C10A 1_555 1_555
C11A C10A 1_555 1_555
C12A C11A 1_555 1_555
H6A C12A 1_555 1_555
C13A C8A 1_555 1_555
H7A C13A 1_555 1_555
C14A C11A 1_555 1_555
C15A C16A 1_555 1_555
C16A H8A 1_555 1_555
C17A C16A 1_555 1_555
H9A C17A 1_555 1_555
C18A C17A 1_555 1_555
C19A C18A 1_555 1_555
H10A C19A 1_555 1_555
C20A C15A 1_555 1_555
H11A C20A 1_555 1_555
C21A C18A 1_555 1_555
C22A H12A 1_555 1_555
C23A C22A 1_555 1_555
H13A C23A 1_555 1_555
C24A C24 1_555 1_555
C25A C24A 1_555 1_555
H14A C25A 1_555 1_555
C26A C25A 1_555 1_555
H15A C26A 1_555 1_555
C27A H16A 1_555 1_555
C28A C27A 1_555 1_555
H17A C28A 1_555 1_555
C29A C29 1_555 1_555
C30A C29A 1_555 1_555
H18A C30A 1_555 1_555
C31A C30A 1_555 1_555
H19A C31A 1_555 1_555
Co1A N1A 1_555 1_555
Co1A_2 O2 1_555 1_555
Co1A_3 N2A 1_555 1_555
N1A C27A 1_555 1_555
N2A C22A 1_555 1_555
N2A_2 Co1A 1_555 1_555
O1A C1A 1_555 1_555
O2A Co1 1_555 1_555
O2_2 Co1A 1_555 1_555
O3A C4A 1_555 1_555
O4A C14A 1_555 1_555
O5A C14A 1_555 1_555
O5A_2 Co1A 1_555 1_555
O6A C6A 1_555 1_555
O7A C21A 1_555 1_555
H20A O7A 1_555 1_555
O8A C21A 1_555 1_555
O9A Co1A 1_555 1_555
H21A O9A 1_555 1_555
H22A O9A 1_555 1_555
C6 C7 1_555 1_555
C8 O3 1_555 1_555
C12 C13 1_555 1_555
C15 O6 1_555 1_555
C19 C20 1_555 1_555
C26 N2 1_555 1_555
C31 N1 1_555 1_555
Co1 N2 1_555 1_555
Co1 O5 1_555 1_555
C1A O2A 1_555 1_555
C6A C7A 1_555 1_555
C8A O3A 1_555 1_555
C12A C13A 1_555 1_555
C15A O6A 1_555 1_555
C19A C20A 1_555 1_555
C23A C24A 1_555 1_555
C26A N2A 1_555 1_555
C28A C29A 1_555 1_555
C31A N1A 1_555 1_555
Co1A_2 O5A 1_555 1_555

#END
