
#######################################################################
#
#                 Cambridge Crystallographic Data Centre
#                                CCDC 
#
#######################################################################
#
# If this CIF has been generated from an entry in the Cambridge 
# Structural Database, then it will include bibliographic, chemical, 
# crystal, experimental, refinement or atomic coordinate data resulting 
# from the CCDC's data processing and validation procedures.
#
#######################################################################

data_LAZRUB
_symmetry_cell_setting           monoclinic
_symmetry_space_group_name_H-M   'P 21/n'
_symmetry_Int_Tables_number      14
_space_group_name_Hall           '-P 2yn'
loop_
_symmetry_equiv_pos_site_id
_symmetry_equiv_pos_as_xyz
1 x,y,z
2 1/2-x,1/2+y,1/2-z
3 -x,-y,-z
4 1/2+x,1/2-y,1/2+z
_cell_length_a                   8.291
_cell_length_b                   13.461
_cell_length_c                   18.549
_cell_angle_alpha                90
_cell_angle_beta                 98.22
_cell_angle_gamma                90
_cell_volume                     2048.9
loop_
_atom_site_label
_atom_site_type_symbol
_atom_site_fract_x
_atom_site_fract_y
_atom_site_fract_z
C1 C 1.0682(3) 0.5543(2) 0.14501(16)
C2 C 1.2043(4) 0.5987(2) 0.19762(16)
C3 C 1.0287(4) 0.4544(2) 0.14962(17)
H1 H 1.0862 0.4152 0.1858
C4 C 0.9051(4) 0.4124(2) 0.10114(18)
H2 H 0.8806 0.3452 0.1041
C5 C 0.8186(4) 0.4716(2) 0.04837(16)
C6 C 0.8553(4) 0.5702(2) 0.04263(16)
H3 H 0.7960 0.6092 0.0068
C7 C 0.9816(4) 0.6117(2) 0.09051(16)
H4 H 1.0081 0.6784 0.0860
C8 C 0.6000(3) 0.3584(2) 0.01275(16)
C9 C 0.5360(4) 0.3584(2) 0.07733(17)
H5 H 0.5627 0.4090 0.1111
C10 C 0.4326(4) 0.2835(2) 0.09180(17)
H6 H 0.3918 0.2827 0.1360
C11 C 0.3886(3) 0.2090(2) 0.04097(16)
C12 C 0.4512(4) 0.2120(2) -0.02410(16)
H7 H 0.4206 0.1633 -0.0589
C13 C 0.5581(4) 0.2856(2) -0.03871(16)
H8 H 0.6009 0.2859 -0.0824
C14 C 0.2748(4) 0.1292(2) 0.05835(17)
C15 C -0.2665(4) 0.0305(2) 0.14799(18)
H9 H -0.3588 0.0577 0.1681
H10 H -0.2973 -0.0345 0.1279
C16 C -0.2245(4) 0.0978(3) 0.08810(18)
H11 H -0.2995 0.0859 0.0438
H12 H -0.2357 0.1666 0.1021
C17 C -0.0548(4) -0.1521(2) 0.1710(2)
H13 H -0.0361 -0.2187 0.1905
H14 H -0.1450 -0.1550 0.1315
C18 C -0.0994(4) -0.0846(2) 0.22992(18)
H15 H -0.1985 -0.1092 0.2458
H16 H -0.0136 -0.0875 0.2713
C19 C -0.1438(4) 0.0808(2) 0.27236(18)
H17 H -0.0536 0.0673 0.3105
H18 H -0.2436 0.0614 0.2902
C20 C -0.1495(4) 0.1905(3) 0.2564(2)
H19 H -0.2516 0.2058 0.2260
H20 H -0.1475 0.2265 0.3018
N1 N -0.1244(3) 0.02013(17) 0.20717(13)
O1 O 1.2775(2) 0.53850(16) 0.24373(11)
O2 O 1.2392(3) 0.68808(16) 0.19240(12)
O3 O 0.6999(3) 0.43347(17) -0.00530(12)
O4 O 0.2043(3) 0.07754(17) 0.00654(12)
O5 O 0.2601(3) 0.1196(2) 0.12439(12)
O6 O 0.0860(3) -0.11890(19) 0.14371(15)
O7 O -0.0199(3) 0.22397(17) 0.22126(14)
O8 O -0.0633(3) 0.08025(16) 0.07505(11)
Cu1 Cu 0.0000 0.0000 0.0000
Cu2 Cu 0.07820(4) 0.06626(3) 0.165884(19)
H21 H 0.065(3) 0.216(3) 0.2517(16)
H22 H 0.162(3) -0.160(2) 0.1578(18)
C1B C -1.0682(3) -0.5543(2) -0.14501(16)
C2B C -1.2043(4) -0.5987(2) -0.19762(16)
C3B C -1.0287(4) -0.4544(2) -0.14962(17)
H1B H -1.0862 -0.4152 -0.1858
C4B C -0.9051(4) -0.4124(2) -0.10114(18)
H2B H -0.8806 -0.3452 -0.1041
C5B C -0.8186(4) -0.4716(2) -0.04837(16)
C6B C -0.8553(4) -0.5702(2) -0.04263(16)
H3B H -0.7960 -0.6092 -0.0068
C7B C -0.9816(4) -0.6117(2) -0.09051(16)
H4B H -1.0081 -0.6784 -0.0860
C8B C -0.6000(3) -0.3584(2) -0.01275(16)
C9B C -0.5360(4) -0.3584(2) -0.07733(17)
H5B H -0.5627 -0.4090 -0.1111
C10B C -0.4326(4) -0.2835(2) -0.09180(17)
H6B H -0.3918 -0.2827 -0.1360
C11B C -0.3886(3) -0.2090(2) -0.04097(16)
C12B C -0.4512(4) -0.2120(2) 0.02410(16)
H7B H -0.4206 -0.1633 0.0589
C13B C -0.5581(4) -0.2856(2) 0.03871(16)
H8B H -0.6009 -0.2859 0.0824
C14B C -0.2748(4) -0.1292(2) -0.05835(17)
C15B C 0.2665(4) -0.0305(2) -0.14799(18)
H9B H 0.3588 -0.0577 -0.1681
H10B H 0.2973 0.0345 -0.1279
C16B C 0.2245(4) -0.0978(3) -0.08810(18)
H11B H 0.2995 -0.0859 -0.0438
H12B H 0.2357 -0.1666 -0.1021
C17B C 0.0548(4) 0.1521(2) -0.1710(2)
H13B H 0.0361 0.2187 -0.1905
H14B H 0.1450 0.1550 -0.1315
C18B C 0.0994(4) 0.0846(2) -0.22992(18)
H15B H 0.1985 0.1092 -0.2458
H16B H 0.0136 0.0875 -0.2713
C19B C 0.1438(4) -0.0808(2) -0.27236(18)
H17B H 0.0536 -0.0673 -0.3105
H18B H 0.2436 -0.0614 -0.2902
C20B C 0.1495(4) -0.1905(3) -0.2564(2)
H19B H 0.2516 -0.2058 -0.2260
H20B H 0.1475 -0.2265 -0.3018
N1B N 0.1244(3) -0.02013(17) -0.20717(13)
O1B O -1.2775(2) -0.53850(16) -0.24373(11)
O1A O 0.2225(2) 0.03850(16) 0.25627(11)
O1C O -0.2225(2) -0.03850(16) -0.25627(11)
O2B O -1.2392(3) -0.68808(16) -0.19240(12)
O3B O -0.6999(3) -0.43347(17) 0.00530(12)
O4B O -0.2043(3) -0.07754(17) -0.00654(12)
O5B O -0.2601(3) -0.1196(2) -0.12439(12)
O6B O -0.0860(3) 0.11890(19) -0.14371(15)
O7B O 0.0199(3) -0.22397(17) -0.22126(14)
O8B O 0.0633(3) -0.08025(16) -0.07505(11)
Cu2B Cu -0.07820(4) -0.06626(3) -0.165884(19)
Cu2A Cu 1.42180(4) 0.56626(3) 0.334116(19)
Cu2C Cu -1.42180(4) -0.56626(3) -0.334116(19)
H21B H -0.065(3) -0.216(3) -0.2517(16)
H22B H -0.162(3) 0.160(2) -0.1578(18)
loop_
_geom_bond_atom_site_label_1
_geom_bond_atom_site_label_2
_geom_bond_site_symmetry_1
_geom_bond_site_symmetry_2
C1 C2 1_555 1_555
C2 O1 1_555 1_555
C3 C1 1_555 1_555
H1 C3 1_555 1_555
C4 C3 1_555 1_555
H2 C4 1_555 1_555
C5 C4 1_555 1_555
C6 C5 1_555 1_555
H3 C6 1_555 1_555
C7 C1 1_555 1_555
H4 C7 1_555 1_555
C8 C9 1_555 1_555
C9 H5 1_555 1_555
C10 C9 1_555 1_555
H6 C10 1_555 1_555
C11 C10 1_555 1_555
C12 C11 1_555 1_555
H7 C12 1_555 1_555
C13 C8 1_555 1_555
H8 C13 1_555 1_555
C14 C11 1_555 1_555
C15 H9 1_555 1_555
H10 C15 1_555 1_555
C16 C15 1_555 1_555
H11 C16 1_555 1_555
H12 C16 1_555 1_555
C17 H13 1_555 1_555
H14 C17 1_555 1_555
C18 C17 1_555 1_555
H15 C18 1_555 1_555
H16 C18 1_555 1_555
C19 H17 1_555 1_555
H18 C19 1_555 1_555
C20 C19 1_555 1_555
H19 C20 1_555 1_555
H20 C20 1_555 1_555
N1 C15 1_555 1_555
O1 Cu2A 1_555 1_555
O2 C2 1_555 1_555
O3 C5 1_555 1_555
O4 C14 1_555 1_555
O5 C14 1_555 1_555
O6 C17 1_555 1_555
O7 C20 1_555 1_555
O8 C16 1_555 1_555
Cu1 O4 1_555 1_555
Cu2 N1 1_555 1_555
H21 O7 1_555 1_555
H22 O6 1_555 1_555
C1B C2B 1_555 1_555
C2B O1B 1_555 1_555
C3B C1B 1_555 1_555
H1B C3B 1_555 1_555
C4B C3B 1_555 1_555
H2B C4B 1_555 1_555
C5B C4B 1_555 1_555
C6B C5B 1_555 1_555
H3B C6B 1_555 1_555
C7B C1B 1_555 1_555
H4B C7B 1_555 1_555
C8B C9B 1_555 1_555
C9B H5B 1_555 1_555
C10B C9B 1_555 1_555
H6B C10B 1_555 1_555
C11B C10B 1_555 1_555
C12B C11B 1_555 1_555
H7B C12B 1_555 1_555
C13B C8B 1_555 1_555
H8B C13B 1_555 1_555
C14B C11B 1_555 1_555
C15B H9B 1_555 1_555
H10B C15B 1_555 1_555
C16B C15B 1_555 1_555
H11B C16B 1_555 1_555
H12B C16B 1_555 1_555
C17B H13B 1_555 1_555
H14B C17B 1_555 1_555
C18B C17B 1_555 1_555
H15B C18B 1_555 1_555
H16B C18B 1_555 1_555
C19B H17B 1_555 1_555
H18B C19B 1_555 1_555
C20B C19B 1_555 1_555
H19B C20B 1_555 1_555
H20B C20B 1_555 1_555
N1B C15B 1_555 1_555
O1B Cu2C 1_555 1_555
O1A Cu2 1_555 1_555
O1C Cu2B 1_555 1_555
O2B C2B 1_555 1_555
O3B C5B 1_555 1_555
O4B Cu1 1_555 1_555
O5B C14B 1_555 1_555
O6B C17B 1_555 1_555
O7B C20B 1_555 1_555
O8B Cu1 1_555 1_555
Cu2B N1B 1_555 1_555
H21B O7B 1_555 1_555
H22B O6B 1_555 1_555
C6 C7 1_555 1_555
C8 O3 1_555 1_555
C12 C13 1_555 1_555
C18 N1 1_555 1_555
C19 N1 1_555 1_555
O5 Cu2 1_555 1_555
O6 Cu2 1_555 1_555
O7 Cu2 1_555 1_555
O8 Cu1 1_555 1_555
O8 Cu2 1_555 1_555
C6B C7B 1_555 1_555
C8B O3B 1_555 1_555
C12B C13B 1_555 1_555
C14B O4B 1_555 1_555
C16B O8B 1_555 1_555
C18B N1B 1_555 1_555
C19B N1B 1_555 1_555
O5B Cu2B 1_555 1_555
O6B Cu2B 1_555 1_555
O7B Cu2B 1_555 1_555
O8B Cu2B 1_555 1_555

#END
