
#######################################################################
#
#                 Cambridge Crystallographic Data Centre
#                                CCDC 
#
#######################################################################
#
# If this CIF has been generated from an entry in the Cambridge 
# Structural Database, then it will include bibliographic, chemical, 
# crystal, experimental, refinement or atomic coordinate data resulting 
# from the CCDC's data processing and validation procedures.
#
#######################################################################

data_LEBROZ
_symmetry_cell_setting           triclinic
_symmetry_space_group_name_H-M   'P -1'
_symmetry_Int_Tables_number      2
_space_group_name_Hall           '-P 1'
loop_
_symmetry_equiv_pos_site_id
_symmetry_equiv_pos_as_xyz
1 x,y,z
2 -x,-y,-z
_cell_length_a                   8.526(2)
_cell_length_b                   11.394(3)
_cell_length_c                   13.739(4)
_cell_angle_alpha                104.17(3)
_cell_angle_beta                 95.94(2)
_cell_angle_gamma                110.74(2)
_cell_volume                     1183.29
loop_
_atom_site_label
_atom_site_type_symbol
_atom_site_fract_x
_atom_site_fract_y
_atom_site_fract_z
Cs1 Cs 0.26405(6) 0.49223(5) -0.01089(5)
O1 O 0.4470(7) 0.3433(6) 0.1259(5)
O2 O 0.5330(8) 0.6113(6) 0.2045(5)
O3 O 0.3591(8) 0.2267(6) -0.0845(5)
N1 N 0.1435(9) 0.6562(7) -0.1714(6)
N2 N 0.1596(8) 0.7540(7) -0.0961(6)
N3 N 0.1045(9) 0.7146(7) -0.0174(6)
N4 N 0.1199(8) 0.8229(7) 0.0549(6)
N5 N -0.0839(9) 0.2039(7) -0.1381(6)
C1 C 0.418(1) 0.397(1) 0.2226(8)
C2 C 0.549(1) 0.535(1) 0.2687(8)
C3 C 0.640(1) 0.746(1) 0.2491(8)
C4 C 0.395(1) 0.177(1) -0.1815(9)
C5 C 0.331(1) 0.2095(9) 0.0804(8)
C6 C 0.378(1) 0.1537(9) -0.0158(8)
C7 C 0.211(1) 0.6919(8) -0.2550(7)
C8 C 0.334(1) 0.8175(9) -0.2455(8)
C9 C 0.396(1) 0.8427(9) -0.3306(8)
C10 C 0.342(1) 0.7463(9) -0.4256(7)
C11 C 0.223(1) 0.623(1) -0.4327(8)
C12 C 0.159(1) 0.5959(9) -0.3486(8)
C13 C 0.410(1) 0.776(1) -0.5180(9)
C14 C -0.090(1) 0.0938(9) -0.2154(7)
C15 C -0.126(1) 0.0917(9) -0.3171(8)
C16 C -0.132(1) -0.012(1) -0.3962(8)
C17 C -0.099(1) -0.117(1) -0.3773(8)
C18 C -0.060(1) -0.1129(9) -0.2757(8)
C19 C -0.054(1) -0.0111(9) -0.1957(7)
C20 C -0.108(1) -0.231(1) -0.463(1)
Cs1A Cs -0.26405(6) 0.50777(5) 0.01089(5)
Cs1A_2 Cs 0.73595(6) 0.50777(5) 0.01089(5)
O1A O 0.5530(7) 0.6567(6) -0.1259(5)
O2A O 0.4670(8) 0.3887(6) -0.2045(5)
O3A O 0.6409(8) 0.7733(6) 0.0845(5)
N3A N -0.1045(9) 0.2854(7) 0.0174(6)
N5A N 0.0839(9) 0.7961(7) 0.1381(6)
N4A N -0.1199(8) 0.1771(7) -0.0549(6)
C4A C 0.605(1) 0.823(1) 0.1815(9)
C3A C 0.360(1) 0.254(1) -0.2491(8)
C1A C 0.582(1) 0.603(1) -0.2226(8)
C5A C 0.669(1) 0.7905(9) -0.0804(8)
C2A C 0.451(1) 0.465(1) -0.2687(8)
C6A C 0.622(1) 0.8463(9) 0.0158(8)
N2A N -0.1596(8) 0.2460(7) 0.0961(6)
C14A C 0.090(1) 0.9062(9) 0.2154(7)
N1A N -0.1435(9) 0.3438(7) 0.1714(6)
C15A C 0.126(1) 0.9083(9) 0.3171(8)
C19A C 0.054(1) 1.0111(9) 0.1957(7)
C7A C -0.211(1) 0.3081(8) 0.2550(7)
C16A C 0.132(1) 1.012(1) 0.3962(8)
C18A C 0.060(1) 1.1129(9) 0.2757(8)
C8A C -0.334(1) 0.1825(9) 0.2455(8)
C12A C -0.159(1) 0.4041(9) 0.3486(8)
C17A C 0.099(1) 1.117(1) 0.3773(8)
C9A C -0.396(1) 0.1573(9) 0.3306(8)
C11A C -0.223(1) 0.377(1) 0.4327(8)
C20A C 0.108(1) 1.231(1) 0.463(1)
C10A C -0.342(1) 0.2537(9) 0.4256(7)
C13A C -0.410(1) 0.224(1) 0.5180(9)
O1_2 O -0.5530(7) 0.3433(6) 0.1259(5)
O1A_2 O -0.4470(7) 0.6567(6) -0.1259(5)
O2_2 O -0.4670(8) 0.6113(6) 0.2045(5)
O2A_2 O -0.5330(8) 0.3887(6) -0.2045(5)
O3_2 O -0.6409(8) 0.2267(6) -0.0845(5)
O3A_2 O -0.3591(8) 0.7733(6) 0.0845(5)
loop_
_geom_bond_atom_site_label_1
_geom_bond_atom_site_label_2
_geom_bond_site_symmetry_1
_geom_bond_site_symmetry_2
Cs1 O1 1_555 1_555
O1 C1 1_555 1_555
O2 Cs1 1_555 1_555
O3 Cs1 1_555 1_555
N1 Cs1 1_555 1_555
N2 N1 1_555 1_555
N3 Cs1 1_555 1_555
N4 N3 1_555 1_555
N5 Cs1 1_555 1_555
C1 C2 1_555 1_555
C2 O2 1_555 1_555
C3 O2 1_555 1_555
C4 O3 1_555 1_555
C5 O1 1_555 1_555
C6 O3 1_555 1_555
C7 N1 1_555 1_555
C8 C7 1_555 1_555
C9 C8 1_555 1_555
C10 C9 1_555 1_555
C11 C10 1_555 1_555
C12 C7 1_555 1_555
C13 C10 1_555 1_555
C14 N5 1_555 1_555
C15 C14 1_555 1_555
C16 C15 1_555 1_555
C17 C16 1_555 1_555
C18 C17 1_555 1_555
C19 C14 1_555 1_555
C20 C17 1_555 1_555
Cs1A N3 1_555 1_555
Cs1A_2 O1 1_555 1_555
O1A Cs1 1_555 1_555
O2A Cs1 1_555 1_555
O3A Cs1 1_555 1_555
N3A Cs1 1_555 1_555
N5A N4 1_555 1_555
N4A N5 1_555 1_555
C4A C3 1_555 1_555
C3A C4 1_555 1_555
C1A O1A 1_555 1_555
C5A O1A 1_555 1_555
C2A O2A 1_555 1_555
C6A O3A 1_555 1_555
N2A N3A 1_555 1_555
C14A N5A 1_555 1_555
N1A Cs1A 1_555 1_555
C15A C14A 1_555 1_555
C19A C14A 1_555 1_555
C7A N1A 1_555 1_555
C16A C15A 1_555 1_555
C18A C19A 1_555 1_555
C8A C7A 1_555 1_555
C12A C7A 1_555 1_555
C17A C16A 1_555 1_555
C9A C8A 1_555 1_555
C11A C12A 1_555 1_555
C20A C17A 1_555 1_555
C10A C9A 1_555 1_555
C13A C10A 1_555 1_555
O1_2 Cs1A 1_555 1_555
O1A_2 Cs1A 1_555 1_555
O2_2 Cs1A 1_555 1_555
O2A_2 Cs1A 1_555 1_555
O3_2 Cs1A 1_555 1_555
O3A_2 Cs1A 1_555 1_555
O2 Cs1A_2 1_555 1_555
O3 Cs1A_2 1_555 1_555
N2 N3 1_555 1_555
C5 C6 1_555 1_555
C11 C12 1_555 1_555
C18 C19 1_555 1_555
Cs1A N3A 1_555 1_555
Cs1A N5A 1_555 1_555
Cs1A_2 O1A 1_555 1_555
Cs1A_2 O2A 1_555 1_555
Cs1A_2 O3A 1_555 1_555
O2A C3A 1_555 1_555
O3A C4A 1_555 1_555
N3A N4A 1_555 1_555
C1A C2A 1_555 1_555
C5A C6A 1_555 1_555
N2A N1A 1_555 1_555
C18A C17A 1_555 1_555
C11A C10A 1_555 1_555

#END
