
#######################################################################
#
#                 Cambridge Crystallographic Data Centre
#                                CCDC 
#
#######################################################################
#
# If this CIF has been generated from an entry in the Cambridge 
# Structural Database, then it will include bibliographic, chemical, 
# crystal, experimental, refinement or atomic coordinate data resulting 
# from the CCDC's data processing and validation procedures.
#
#######################################################################

data_LEBYAU
_symmetry_cell_setting           triclinic
_symmetry_space_group_name_H-M   'P -1'
_symmetry_Int_Tables_number      2
_space_group_name_Hall           '-P 1'
loop_
_symmetry_equiv_pos_site_id
_symmetry_equiv_pos_as_xyz
1 x,y,z
2 -x,-y,-z
_cell_length_a                   7.5413(4)
_cell_length_b                   10.0880(4)
_cell_length_c                   16.3665(8)
_cell_angle_alpha                83.817(4)
_cell_angle_beta                 80.406(4)
_cell_angle_gamma                81.673(4)
_cell_volume                     1210.29
loop_
_atom_site_label
_atom_site_type_symbol
_atom_site_fract_x
_atom_site_fract_y
_atom_site_fract_z
Zn1 Zn 0.64384(3) 0.44065(2) 0.245582(14)
C1 C -0.0980(3) 0.5662(2) 0.31570(12)
C2 C 0.2650(3) 0.43256(19) 0.22379(12)
C3 C 0.2478(3) 0.50208(17) 0.30316(11)
C4 C 0.0833(3) 0.55321(17) 0.34762(11)
C5 C 0.0868(3) 0.60473(19) 0.42271(12)
H1 H -0.0209 0.6377 0.4548
C6 C 0.2504(3) 0.6068(2) 0.44950(13)
H2 H 0.2537 0.6384 0.5005
C7 C 0.4084(3) 0.5616(2) 0.39970(12)
H3 H 0.5188 0.5677 0.4163
C8 C 0.7080(3) 0.14520(19) 0.20200(13)
H4 H 0.6254 0.1587 0.1647
C9 C 0.8767(3) 0.18294(18) 0.28771(12)
H5 H 0.9348 0.2263 0.3209
C10 C 0.7971(3) 0.0255(2) 0.22591(13)
H6 H 0.7881 -0.0575 0.2083
C11 C 1.0237(3) -0.05035(19) 0.32521(12)
H7 H 1.1479 -0.0491 0.2978
H8 H 0.9910 -0.1392 0.3227
C12 C 1.0106(3) -0.02283(17) 0.41543(12)
C13 C 1.1421(3) 0.04409(18) 0.43951(12)
C14 C 1.2845(3) 0.0955(2) 0.38182(14)
H9 H 1.2913 0.0856 0.3255
C15 C 1.4097(3) 0.1582(2) 0.40694(16)
H10 H 1.5001 0.1919 0.3678
C16 C 1.4048(3) 0.1731(2) 0.49144(16)
H11 H 1.4943 0.2139 0.5080
C17 C 1.2721(3) 0.1290(2) 0.54894(14)
H12 H 1.2712 0.1404 0.6047
C18 C 1.1318(3) 0.06480(17) 0.52600(12)
C19 C 0.7631(3) 1.2022(2) -0.07670(16)
H13 H 0.7648 1.2925 -0.0702
C20 C 0.8822(3) 1.1037(2) -0.03664(13)
C21 C 0.8784(3) 0.9650(2) -0.04880(13)
C22 C 0.7536(3) 0.9360(2) -0.09949(15)
H14 H 0.7487 0.8470 -0.1078
C23 C 0.6437(4) 1.0334(3) -0.13542(17)
H15 H 0.5644 1.0114 -0.1681
C24 C 0.6484(4) 1.1698(3) -0.12352(17)
H16 H 0.5716 1.2371 -0.1483
C25 C 0.9968(3) 0.86382(19) -0.01245(13)
C26 C 0.9985(3) 0.7194(2) -0.03008(13)
H17 H 0.9808 0.7177 -0.0873
H18 H 1.1167 0.6702 -0.0241
C27 C 0.8467(3) 0.6169(2) 0.10684(13)
H19 H 0.9252 0.6400 0.1396
C28 C 0.6326(3) 0.5367(2) 0.06684(14)
H20 H 0.5327 0.4921 0.0673
C29 C 0.7224(3) 0.6003(2) -0.00145(13)
H21 H 0.6958 0.6081 -0.0554
N1 N 0.4080(2) 0.50916(15) 0.32830(9)
N2 N 0.7583(2) 0.24406(15) 0.24139(10)
N3 N 0.9035(2) 0.05006(15) 0.28114(10)
N4 N 0.7120(2) 0.54798(15) 0.13564(10)
N5 N 0.8589(2) 0.65045(15) 0.02477(10)
O1 O -0.1501(2) 0.67776(13) 0.28408(9)
O2 O -0.18370(18) 0.46548(13) 0.32783(8)
O3 O 0.1265(2) 0.43033(18) 0.19427(9)
O4 O 0.42183(19) 0.37989(14) 0.19580(8)
Zn1A Zn 1.35616(3) -0.44065(2) 0.754418(14)
Zn1_2 Zn -0.35616(3) 0.44065(2) 0.245582(14)
Zn1A_2 Zn 1.35616(3) 1.55935(2) -0.245582(14)
Zn1A_3 Zn 2.35616(3) -0.44065(2) 0.754418(14)
C1A C 2.0980(3) -0.5662(2) 0.68430(12)
C2A C 1.7350(3) -0.43256(19) 0.77621(12)
C3A C 1.7522(3) -0.50208(17) 0.69684(11)
C4A C 1.9167(3) -0.55321(17) 0.65238(11)
C5A C 1.9132(3) -0.60473(19) 0.57729(12)
H1A H 2.0209 -0.6377 0.5452
C6A C 1.7496(3) -0.6068(2) 0.55050(13)
H2A H 1.7463 -0.6384 0.4995
C7A C 1.5916(3) -0.5616(2) 0.60030(12)
H3A H 1.4812 -0.5677 0.5837
C8A C 1.2920(3) -0.14520(19) 0.79800(13)
H4A H 1.3746 -0.1587 0.8353
C9A C 1.1233(3) -0.18294(18) 0.71229(12)
H5A H 1.0652 -0.2263 0.6791
C10A C 1.2029(3) -0.0255(2) 0.77409(13)
H6A H 1.2119 0.0575 0.7917
C11A C 0.9763(3) 0.05035(19) 0.67479(12)
H7A H 0.8521 0.0491 0.7022
H8A H 1.0090 0.1392 0.6773
C12A C 0.9894(3) 0.02283(17) 0.58457(12)
C13A C 0.8579(3) -0.04409(18) 0.56049(12)
C14A C 0.7155(3) -0.0955(2) 0.61818(14)
H9A H 0.7087 -0.0856 0.6745
C15A C 0.5903(3) -0.1582(2) 0.59306(16)
H10A H 0.4999 -0.1919 0.6322
C16A C 0.5952(3) -0.1731(2) 0.50856(16)
H11A H 0.5057 -0.2139 0.4920
C17A C 0.7279(3) -0.1290(2) 0.45106(14)
H12A H 0.7288 -0.1404 0.3953
C18A C 0.8682(3) -0.06480(17) 0.47400(12)
C19A C 1.2369(3) 0.7978(2) 0.07670(16)
H13A H 1.2352 0.7075 0.0702
C20A C 1.1178(3) 0.8963(2) 0.03664(13)
C21A C 1.1216(3) 1.0350(2) 0.04880(13)
C22A C 1.2464(3) 1.0640(2) 0.09949(15)
H14A H 1.2513 1.1530 0.1078
C23A C 1.3563(4) 0.9666(3) 0.13542(17)
H15A H 1.4356 0.9886 0.1681
C24A C 1.3516(4) 0.8302(3) 0.12352(17)
H16A H 1.4284 0.7629 0.1483
C25A C 1.0032(3) 1.13618(19) 0.01245(13)
C26A C 1.0015(3) 1.2806(2) 0.03008(13)
H17A H 1.0192 1.2823 0.0873
H18A H 0.8833 1.3298 0.0241
C27A C 1.1533(3) 1.3831(2) -0.10684(13)
H19A H 1.0748 1.3600 -0.1396
C28A C 1.3674(3) 1.4633(2) -0.06684(14)
H20A H 1.4673 1.5079 -0.0673
C29A C 1.2776(3) 1.3997(2) 0.00145(13)
H21A H 1.3042 1.3919 0.0554
N1A N 1.5920(2) -0.50916(15) 0.67170(9)
N2A N 1.2417(2) -0.24406(15) 0.75861(10)
N3A N 1.0965(2) -0.05006(15) 0.71886(10)
N4A N 1.2880(2) 1.45202(15) -0.13564(10)
N4A_2 N 1.2880(2) -0.54798(15) 0.86436(10)
N5A N 1.1411(2) 1.34955(15) -0.02477(10)
O1A O 2.1501(2) -0.67776(13) 0.71592(9)
O2A O 2.18370(18) -0.46548(13) 0.67217(8)
O2_2 O 0.81630(18) 0.46548(13) 0.32783(8)
O2A_2 O 1.18370(18) -0.46548(13) 0.67217(8)
O3A O 1.8735(2) -0.43033(18) 0.80573(9)
O4A O 1.57817(19) -0.37989(14) 0.80420(8)
loop_
_geom_bond_atom_site_label_1
_geom_bond_atom_site_label_2
_geom_bond_site_symmetry_1
_geom_bond_site_symmetry_2
Zn1 N1 1_555 1_555
C1 C4 1_555 1_555
C2 C3 1_555 1_555
C3 C4 1_555 1_555
C4 C5 1_555 1_555
C5 H1 1_555 1_555
C6 C5 1_555 1_555
H2 C6 1_555 1_555
C7 C6 1_555 1_555
H3 C7 1_555 1_555
C8 H4 1_555 1_555
C9 H5 1_555 1_555
C10 C8 1_555 1_555
H6 C10 1_555 1_555
C11 H7 1_555 1_555
H8 C11 1_555 1_555
C12 C11 1_555 1_555
C13 C12 1_555 1_555
C14 C13 1_555 1_555
H9 C14 1_555 1_555
C15 C14 1_555 1_555
H10 C15 1_555 1_555
C16 C15 1_555 1_555
H11 C16 1_555 1_555
C17 C16 1_555 1_555
H12 C17 1_555 1_555
C18 C13 1_555 1_555
C19 H13 1_555 1_555
C20 C19 1_555 1_555
C21 C20 1_555 1_555
C22 C21 1_555 1_555
H14 C22 1_555 1_555
C23 C22 1_555 1_555
H15 C23 1_555 1_555
C24 C19 1_555 1_555
H16 C24 1_555 1_555
C25 C21 1_555 1_555
C26 C25 1_555 1_555
H17 C26 1_555 1_555
H18 C26 1_555 1_555
C27 H19 1_555 1_555
C28 H20 1_555 1_555
C29 C28 1_555 1_555
H21 C29 1_555 1_555
N1 C3 1_555 1_555
N2 Zn1 1_555 1_555
N3 C9 1_555 1_555
N4 Zn1 1_555 1_555
N5 C26 1_555 1_555
O1 C1 1_555 1_555
O2 C1 1_555 1_555
O3 C2 1_555 1_555
O4 Zn1 1_555 1_555
Zn1A N1A 1_555 1_555
Zn1_2 O2 1_555 1_555
Zn1A_2 N4A 1_555 1_555
Zn1A_3 O2A 1_555 1_555
C1A C4A 1_555 1_555
C2A C3A 1_555 1_555
C3A C4A 1_555 1_555
C4A C5A 1_555 1_555
C5A H1A 1_555 1_555
C6A C5A 1_555 1_555
H2A C6A 1_555 1_555
C7A C6A 1_555 1_555
H3A C7A 1_555 1_555
C8A H4A 1_555 1_555
C9A H5A 1_555 1_555
C10A C8A 1_555 1_555
H6A C10A 1_555 1_555
C11A H7A 1_555 1_555
H8A C11A 1_555 1_555
C12A C18 1_555 1_555
C13A C12A 1_555 1_555
C14A C13A 1_555 1_555
H9A C14A 1_555 1_555
C15A C14A 1_555 1_555
H10A C15A 1_555 1_555
C16A C15A 1_555 1_555
H11A C16A 1_555 1_555
C17A C16A 1_555 1_555
H12A C17A 1_555 1_555
C18A C12 1_555 1_555
C19A H13A 1_555 1_555
C20A C25 1_555 1_555
C21A C20A 1_555 1_555
C22A C21A 1_555 1_555
H14A C22A 1_555 1_555
C23A C22A 1_555 1_555
H15A C23A 1_555 1_555
C24A C19A 1_555 1_555
H16A C24A 1_555 1_555
C25A C20 1_555 1_555
C26A C25A 1_555 1_555
H17A C26A 1_555 1_555
H18A C26A 1_555 1_555
C27A H19A 1_555 1_555
C28A H20A 1_555 1_555
C29A C28A 1_555 1_555
H21A C29A 1_555 1_555
N1A C3A 1_555 1_555
N2A Zn1A 1_555 1_555
N3A C9A 1_555 1_555
N4A C27A 1_555 1_555
N4A_2 Zn1A 1_555 1_555
N5A C26A 1_555 1_555
O1A C1A 1_555 1_555
O2A C1A 1_555 1_555
O2_2 Zn1 1_555 1_555
O2A_2 Zn1A 1_555 1_555
O3A C2A 1_555 1_555
O4A Zn1A 1_555 1_555
C2 O4 1_555 1_555
C7 N1 1_555 1_555
C8 N2 1_555 1_555
C9 N2 1_555 1_555
C10 N3 1_555 1_555
C11 N3 1_555 1_555
C17 C18 1_555 1_555
C23 C24 1_555 1_555
C27 N4 1_555 1_555
C27 N5 1_555 1_555
C28 N4 1_555 1_555
C29 N5 1_555 1_555
C2A O4A 1_555 1_555
C7A N1A 1_555 1_555
C8A N2A 1_555 1_555
C9A N2A 1_555 1_555
C10A N3A 1_555 1_555
C11A C12A 1_555 1_555
C11A N3A 1_555 1_555
C13A C18A 1_555 1_555
C17A C18A 1_555 1_555
C19A C20A 1_555 1_555
C21A C25A 1_555 1_555
C23A C24A 1_555 1_555
C27A N5A 1_555 1_555
C28A N4A 1_555 1_555
C29A N5A 1_555 1_555

#END
