
#######################################################################
#
#                 Cambridge Crystallographic Data Centre
#                                CCDC 
#
#######################################################################
#
# If this CIF has been generated from an entry in the Cambridge 
# Structural Database, then it will include bibliographic, chemical, 
# crystal, experimental, refinement or atomic coordinate data resulting 
# from the CCDC's data processing and validation procedures.
#
#######################################################################

data_LECJAF
_symmetry_cell_setting           orthorhombic
_symmetry_space_group_name_H-M   'P 21 21 21'
_symmetry_Int_Tables_number      19
_space_group_name_Hall           'P 2ac 2ab'
loop_
_symmetry_equiv_pos_site_id
_symmetry_equiv_pos_as_xyz
1 x,y,z
2 1/2-x,-y,1/2+z
3 -x,1/2+y,1/2-z
4 1/2+x,1/2-y,-z
_cell_length_a                   7.8259(6)
_cell_length_b                   10.0351(5)
_cell_length_c                   16.9494(14)
_cell_angle_alpha                90
_cell_angle_beta                 90
_cell_angle_gamma                90
_cell_volume                     1331.1
loop_
_atom_site_label
_atom_site_type_symbol
_atom_site_fract_x
_atom_site_fract_y
_atom_site_fract_z
U1 U 0.44593(5) 1.01769(4) 0.57038(2)
Na1 Na -0.0514(7) 0.9551(5) 0.6788(3)
O1 O 0.2810(9) 1.0027(8) 0.6425(4)
O2 O 0.6064(9) 1.0353(9) 0.4980(5)
O3 O 0.2369(11) 1.1098(9) 0.4747(5)
O4 O 0.2750(12) 0.8924(8) 0.4730(5)
O5 O 0.1483(11) 0.6180(8) 0.3489(5)
O6 O -0.0346(12) 0.7243(7) 0.4224(5)
O7 O -0.0803(12) 1.2366(8) 0.4165(5)
O8 O 0.1059(10) 1.3388(8) 0.3416(5)
O9 O 0.0396(14) 0.7724(9) 0.6006(5)
O10 O -0.0268(16) 0.8460(11) 0.8033(7)
O11 O -0.1708(13) 1.0933(11) 0.7795(6)
O12 O -0.0463(13) 1.1376(9) 0.5874(5)
C1 C 0.0803(13) 0.9794(10) 0.3752(6)
H1 H -0.0345 0.9681 0.3973
C2 C 0.2053(12) 0.9950(11) 0.4443(6)
C3 C 0.1239(16) 0.8537(13) 0.3290(7)
H2 H 0.0620 0.8556 0.2794
H3 H 0.2449 0.8551 0.3166
C4 C 0.0840(16) 0.7262(12) 0.3701(7)
C5 C 0.0778(19) 1.1017(11) 0.3233(7)
H4 H -0.0036 1.0871 0.2811
H5 H 0.1897 1.1117 0.2994
C6 C 0.0322(17) 1.2311(11) 0.3647(7)
U1C U -0.05407(5) 0.48231(4) 0.42962(2)
U1C_2 U -0.05407(5) 1.48231(4) 0.42962(2)
Na1C Na 0.4486(7) 0.5449(5) 0.3212(3)
O5C O 0.6483(11) 0.8820(8) 0.6511(5)
O5C_2 O -0.3517(11) 0.8820(8) 0.6511(5)
O6C O 0.4654(12) 0.7757(7) 0.5776(5)
O7C O 0.4197(12) 1.2634(8) 0.5835(5)
O8C O 0.6059(10) 1.1612(8) 0.6584(5)
loop_
_geom_bond_atom_site_label_1
_geom_bond_atom_site_label_2
_geom_bond_site_symmetry_1
_geom_bond_site_symmetry_2
U1 O1 1_555 1_555
Na1 O1 1_555 1_555
O2 U1 1_555 1_555
O3 U1 1_555 1_555
O4 U1 1_555 1_555
O5 C4 1_555 1_555
O6 C4 1_555 1_555
O7 C6 1_555 1_555
O8 C6 1_555 1_555
O9 Na1 1_555 1_555
O10 Na1 1_555 1_555
O11 Na1 1_555 1_555
O12 Na1 1_555 1_555
C1 H1 1_555 1_555
C2 O3 1_555 1_555
C3 C1 1_555 1_555
H2 C3 1_555 1_555
H3 C3 1_555 1_555
C4 C3 1_555 1_555
C5 C1 1_555 1_555
H4 C5 1_555 1_555
H5 C5 1_555 1_555
C6 C5 1_555 1_555
U1C O5 1_555 1_555
U1C_2 O7 1_555 1_555
Na1C O5 1_555 1_555
O5C U1 1_555 1_555
O5C_2 Na1 1_555 1_555
O6C U1 1_555 1_555
O7C U1 1_555 1_555
O8C U1 1_555 1_555
O4 C2 1_555 1_555
O6 U1C 1_555 1_555
O8 U1C_2 1_555 1_555
C1 C2 1_555 1_555

#END
