
#######################################################################
#
#                 Cambridge Crystallographic Data Centre
#                                CCDC 
#
#######################################################################
#
# If this CIF has been generated from an entry in the Cambridge 
# Structural Database, then it will include bibliographic, chemical, 
# crystal, experimental, refinement or atomic coordinate data resulting 
# from the CCDC's data processing and validation procedures.
#
#######################################################################

data_LEDDEF
_symmetry_cell_setting           triclinic
_symmetry_space_group_name_H-M   'P -1'
_symmetry_Int_Tables_number      2
_space_group_name_Hall           '-P 1'
loop_
_symmetry_equiv_pos_site_id
_symmetry_equiv_pos_as_xyz
1 x,y,z
2 -x,-y,-z
_cell_length_a                   9.437(3)
_cell_length_b                   10.261(3)
_cell_length_c                   10.473(3)
_cell_angle_alpha                108.002(3)
_cell_angle_beta                 102.802(2)
_cell_angle_gamma                111.524(3)
_cell_volume                     830.432
loop_
_atom_site_label
_atom_site_type_symbol
_atom_site_fract_x
_atom_site_fract_y
_atom_site_fract_z
Co1 Co 0.39407(5) 0.20551(4) 0.07476(4)
O1 O 0.5955(3) 0.4097(2) 0.2568(2)
O2 O 0.6139(3) 0.1936(2) 0.1924(2)
O3 O 0.2447(3) 0.2942(3) 0.0120(2)
O4 O 0.0527(3) 0.2031(3) 0.0988(3)
O5 O 0.2507(3) -0.0242(3) -0.0684(3)
H1 H 0.291(6) -0.080(5) -0.109(5)
H2 H 0.168(5) -0.076(4) -0.071(4)
O6 O 0.2869(4) 0.1445(3) 0.2194(3)
H3 H 0.209(6) 0.141(6) 0.189(5)
H4 H 0.337(7) 0.212(6) 0.310(7)
N1 N 0.6138(3) 0.2100(3) -0.2355(3)
N2 N 0.5567(4) 0.3105(3) -0.2500(3)
N3 N 0.4989(3) 0.2403(3) -0.0776(3)
C1 C 0.5793(4) 0.0687(4) -0.4870(4)
H7 H 0.6356 0.0309 -0.5457
H8 H 0.5516 0.1397 -0.5187
C2 C 0.6948(4) 0.1567(4) -0.3288(4)
H9 H 0.7318 0.0890 -0.2993
H10 H 0.7920 0.2463 -0.3167
C3 C 0.4886(4) 0.3255(4) -0.1522(3)
H11 H 0.4378 0.3893 -0.1361
C4 C 0.5789(4) 0.1694(4) -0.1337(3)
H12 H 0.6065 0.1008 -0.1051
C5 C 0.8420(4) 0.4206(4) 0.3928(3)
C6 C 0.9203(4) 0.5817(4) 0.4665(4)
H13 H 0.8664 0.6375 0.4443
C7 C 0.9222(4) 0.3398(4) 0.4274(3)
H14 H 0.8697 0.2309 0.3787
C8 C 0.6748(4) 0.3373(4) 0.2748(3)
C9 C 0.0580(3) 0.3977(3) 0.0195(3)
C10 C -0.0402(4) 0.4327(4) 0.0906(3)
H15 H -0.0679 0.3866 0.1523
C11 C 0.0980(4) 0.4661(4) -0.0724(3)
H16 H 0.1639 0.4434 -0.1218
C12 C 0.1223(4) 0.2902(3) 0.0449(3)
Co1A Co 1.60593(5) 0.79449(4) 0.92524(4)
Co1A_2 Co -0.39407(5) 0.79449(4) -0.07476(4)
Co1A_3 Co 0.60593(5) -0.20551(4) -1.07476(4)
O1A O 1.4045(3) 0.5903(2) 0.7432(2)
O2A O 1.3861(3) 0.8064(2) 0.8076(2)
O3A O -0.2447(3) 0.7058(3) -0.0120(2)
O3A_2 O 1.7553(3) 0.7058(3) 0.9880(2)
O4A O -0.0527(3) 0.7969(3) -0.0988(3)
O5A O 1.7493(3) 1.0242(3) 1.0684(3)
H1A H 1.709(6) 1.080(5) 1.109(5)
H2A H 1.832(5) 1.076(4) 1.071(4)
O6A O 1.7131(4) 0.8555(3) 0.7806(3)
H3A H 1.791(6) 0.859(6) 0.811(5)
H4A H 1.663(7) 0.788(6) 0.690(7)
N1A N 0.3862(3) -0.2100(3) -0.7645(3)
N2A N 0.4433(4) -0.3105(3) -0.7500(3)
N3A N 0.5011(3) -0.2403(3) -0.9224(3)
N3A_2 N 1.5011(3) 0.7597(3) 1.0776(3)
C1A C 0.4207(4) -0.0687(4) -0.5130(4)
H7A H 0.3644 -0.0309 -0.4543
H8A H 0.4484 -0.1397 -0.4813
C2A C 0.3052(4) -0.1567(4) -0.6712(4)
H9A H 0.2682 -0.0890 -0.7007
H10A H 0.2080 -0.2463 -0.6833
C3A C 0.5114(4) -0.3255(4) -0.8478(3)
H11A H 0.5622 -0.3893 -0.8639
C4A C 0.4211(4) -0.1694(4) -0.8663(3)
H12A H 0.3935 -0.1008 -0.8949
C5A C 1.1580(4) 0.5794(4) 0.6072(3)
C6A C 1.0797(4) 0.4183(4) 0.5335(4)
H13A H 1.1336 0.3625 0.5557
C7A C 1.0778(4) 0.6602(4) 0.5726(3)
H14A H 1.1303 0.7691 0.6213
C8A C 1.3252(4) 0.6627(4) 0.7252(3)
C9A C -0.0580(3) 0.6023(3) -0.0195(3)
C10A C 0.0402(4) 0.5673(4) -0.0906(3)
H15A H 0.0679 0.6134 -0.1523
C11A C -0.0980(4) 0.5339(4) 0.0724(3)
H16A H -0.1639 0.5566 0.1218
C12A C -0.1223(4) 0.7098(3) -0.0449(3)
O7 O 0.4281(6) 0.3522(6) 0.5038(4)
H5 H 0.480(8) 0.341(8) 0.571(7)
H6 H 0.428(7) 0.427(6) 0.539(6)
O8 O -0.0116(10) -0.0256(9) 0.4231(8)
O9? O -0.1237(18) -0.0295(15) 0.3567(13)
loop_
_geom_bond_atom_site_label_1
_geom_bond_atom_site_label_2
_geom_bond_site_symmetry_1
_geom_bond_site_symmetry_2
Co1 O1 1_555 1_555
O1 C8 1_555 1_555
O2 Co1 1_555 1_555
O3 Co1 1_555 1_555
O4 C12 1_555 1_555
O5 Co1 1_555 1_555
H1 O5 1_555 1_555
H2 O5 1_555 1_555
O6 Co1 1_555 1_555
H3 O6 1_555 1_555
H4 O6 1_555 1_555
O7 H5 1_555 1_555
H6 O7 1_555 1_555
N1 N2 1_555 1_555
N2 C3 1_555 1_555
N3 Co1 1_555 1_555
C1 H7 1_555 1_555
H8 C1 1_555 1_555
C2 N1 1_555 1_555
H9 C2 1_555 1_555
H10 C2 1_555 1_555
C3 N3 1_555 1_555
H11 C3 1_555 1_555
C4 N1 1_555 1_555
H12 C4 1_555 1_555
C5 C6 1_555 1_555
C6 H13 1_555 1_555
C7 C5 1_555 1_555
H14 C7 1_555 1_555
C8 O2 1_555 1_555
C9 C10 1_555 1_555
C10 H15 1_555 1_555
C11 C9 1_555 1_555
H16 C11 1_555 1_555
C12 O3 1_555 1_555
Co1A O1A 1_555 1_555
Co1A_2 O3A 1_555 1_555
Co1A_3 N3A 1_555 1_555
O1A C8A 1_555 1_555
O2A Co1A 1_555 1_555
O3A C12A 1_555 1_555
O3A_2 Co1A 1_555 1_555
O4A C12A 1_555 1_555
O5A Co1A 1_555 1_555
H1A O5A 1_555 1_555
H2A O5A 1_555 1_555
O6A Co1A 1_555 1_555
H3A O6A 1_555 1_555
H4A O6A 1_555 1_555
N1A N2A 1_555 1_555
N2A C3A 1_555 1_555
N3A C3A 1_555 1_555
N3A_2 Co1A 1_555 1_555
C1A C1 1_555 1_555
H7A C1A 1_555 1_555
H8A C1A 1_555 1_555
C2A N1A 1_555 1_555
H9A C2A 1_555 1_555
H10A C2A 1_555 1_555
C3A H11A 1_555 1_555
C4A N1A 1_555 1_555
H12A C4A 1_555 1_555
C5A C6A 1_555 1_555
C6A C7 1_555 1_555
H13A C6A 1_555 1_555
C7A C6 1_555 1_555
H14A C7A 1_555 1_555
C8A O2A 1_555 1_555
C9A C10A 1_555 1_555
C10A C11 1_555 1_555
H15A C10A 1_555 1_555
C11A C10 1_555 1_555
H16A C11A 1_555 1_555
C12A C9A 1_555 1_555
N3 C4 1_555 1_555
C1 C2 1_555 1_555
C5 C8 1_555 1_555
C9 C12 1_555 1_555
N3A C4A 1_555 1_555
C1A C2A 1_555 1_555
C5A C7A 1_555 1_555
C5A C8A 1_555 1_555
C9A C11A 1_555 1_555

#END
