
#######################################################################
#
#                 Cambridge Crystallographic Data Centre
#                                CCDC 
#
#######################################################################
#
# If this CIF has been generated from an entry in the Cambridge 
# Structural Database, then it will include bibliographic, chemical, 
# crystal, experimental, refinement or atomic coordinate data resulting 
# from the CCDC's data processing and validation procedures.
#
#######################################################################

data_LEDHAF
_symmetry_cell_setting           tetragonal
_symmetry_space_group_name_H-M   'P 43 21 2'
_symmetry_Int_Tables_number      96
_space_group_name_Hall           'P 4nw 2abw'
loop_
_symmetry_equiv_pos_site_id
_symmetry_equiv_pos_as_xyz
1 x,y,z
2 1/2-y,1/2+x,3/4+z
3 -x,-y,1/2+z
4 1/2+y,1/2-x,1/4+z
5 1/2+x,1/2-y,1/4-z
6 y,x,-z
7 1/2-x,1/2+y,3/4-z
8 -y,-x,1/2-z
_cell_length_a                   14.296(2)
_cell_length_b                   14.296(2)
_cell_length_c                   33.755(7)
_cell_angle_alpha                90
_cell_angle_beta                 90
_cell_angle_gamma                90
_cell_volume                     6898.7
loop_
_atom_site_label
_atom_site_type_symbol
_atom_site_fract_x
_atom_site_fract_y
_atom_site_fract_z
Zn1 Zn 0.13368(3) 0.86632(3) 0.7500
Zn2 Zn -0.71220(3) 1.12483(3) 0.611820(12)
O1 O 0.0805(2) 1.15938(19) 0.62977(12)
O2 O 0.1265(2) 0.9912(2) 0.68884(9)
O3 O -0.6292(2) 0.9890(2) 0.54474(8)
O4 O -0.61537(18) 1.0332(2) 0.60792(8)
O5 O -0.21972(18) 0.75556(19) 0.62070(9)
N1 N 0.2714(2) 0.8594(3) 0.73205(9)
N2 N 0.4161(3) 0.7994(4) 0.73575(11)
N3 N 0.4051(2) 0.8495(2) 0.70246(9)
N4 N 0.7889(2) 1.2591(2) 0.67153(8)
N5 N 0.8264(2) 1.1150(2) 0.69173(9)
N6 N 0.7447(2) 1.14394(19) 0.70855(8)
O6 O 0.04378(17) 0.86847(18) 0.70650(7)
C1 C -0.1388(2) 0.8976(2) 0.61223(10)
C2 C -0.0005(2) 0.9464(2) 0.64753(10)
O7 O 0.17529(18) 1.0527(2) 0.60645(10)
C3 C 0.7235(2) 1.2285(2) 0.69639(10)
H1 H 0.6706 1.2620 0.7040
C4 C -0.4741(3) 0.8634(3) 0.57856(11)
H2 H -0.5223 0.8245 0.5701
C5 C 0.0979(2) 1.0811(3) 0.61927(11)
C6 C 0.0185(2) 1.0114(2) 0.61733(10)
C7 C -0.5855(2) 0.9971(3) 0.57551(11)
O8 O -0.3656(2) 1.16554(17) 0.61276(10)
H3 H -0.3846 1.2185 0.6175
C8 C -0.4263(2) 1.1216(3) 0.59062(11)
C9 C -0.3283(2) 0.9778(2) 0.60082(10)
H4 H -0.2786 1.0166 0.6076
C10 C -0.4136(2) 1.0170(2) 0.59122(10)
C11 C -0.4883(2) 0.9585(3) 0.58030(10)
O9 O -0.4864(2) 1.1597(2) 0.57208(11)
C12 C -0.0385(2) 1.0146(3) 0.58437(11)
H5 H -0.0233 1.0541 0.5634
C13 C -0.1181(3) 0.9597(3) 0.58212(10)
H6 H -0.1577 0.9646 0.5603
C14 C -0.0786(2) 0.8903(2) 0.64385(10)
H7 H -0.0910 0.8461 0.6634
C15 C 0.0609(2) 0.9365(2) 0.68348(10)
C16 C 0.3192(3) 0.8835(3) 0.70025(12)
H8 H 0.2960 0.9190 0.6794
C17 C -0.2245(2) 0.8382(2) 0.61152(10)
C18 C -0.3155(2) 0.8819(2) 0.60045(10)
C19 C -0.3888(3) 0.8249(3) 0.58931(12)
H9 H -0.3809 0.7603 0.5890
C20 C 0.3343(3) 0.8078(5) 0.75263(14)
H10 H 0.3203 0.7803 0.7769
C21 C 0.8505(3) 1.1879(3) 0.67006(11)
H11 H 0.9052 1.1900 0.6551
C22 C 0.6967(3) 1.0856(2) 0.73828(10)
H12 H 0.6375 1.1146 0.7451
H13 H 0.7345 1.0829 0.7621
C23 C 0.6784(2) 0.9861(2) 0.72366(9)
C24 C 0.7431(2) 0.9161(2) 0.73116(9)
C25 C 0.8341(2) 0.9396(3) 0.75206(11)
H14 H 0.8528 1.0021 0.7453
H15 H 0.8818 0.8964 0.7439
H16 H 0.8254 0.9351 0.7802
C26 C 0.4812(2) 0.8538(3) 0.67338(11)
H17 H 0.4680 0.9024 0.6541
H18 H 0.4855 0.7946 0.6594
C27 C 0.5740(2) 0.8745(3) 0.69393(10)
C28 C 0.5937(2) 0.9672(2) 0.70485(10)
C29 C 0.6369(3) 0.8023(2) 0.70216(10)
C30 C 0.6129(3) 0.7014(3) 0.69208(14)
H19 H 0.5470 0.6963 0.6870
H20 H 0.6293 0.6617 0.7139
H21 H 0.6472 0.6825 0.6690
C31 C 0.7228(2) 0.8240(2) 0.72069(10)
N7 N 0.8228(2) 0.6932(2) 0.83274(9)
C32 C 0.8466(2) 0.7380(2) 0.80001(11)
H22 H 0.8957 0.7805 0.7982
C33 C 0.7514(4) 0.6388(4) 0.82020(14)
H23 H 0.7207 0.5967 0.8367
C34 C 0.5239(3) 1.0449(3) 0.69738(12)
H24 H 0.4866 1.0545 0.7207
H25 H 0.4841 1.0281 0.6756
H26 H 0.5568 1.1016 0.6911
N8 N 0.7292(3) 0.6506(3) 0.78275(11)
C35 C 0.7930(3) 0.7479(3) 0.72924(10)
H27 H 0.7806 0.6954 0.7118
H28 H 0.8551 0.7711 0.7232
N9 N 0.7918(2) 0.71474(19) 0.77034(8)
Zn2G Zn -0.12483(3) 1.71220(3) 0.888180(12)
Zn2D Zn 0.78780(3) 1.37517(3) 0.638180(12)
Zn2_2 Zn 0.28780(3) 1.12483(3) 0.611820(12)
Zn2G_2 Zn 0.87517(3) 0.71220(3) 0.888180(12)
Zn2C Zn -0.37517(3) 0.21220(3) 0.861820(12)
Zn2_3 Zn 0.28780(3) 0.12483(3) 0.611820(12)
Zn2G_3 Zn -0.12483(3) 0.71220(3) 0.888180(12)
O1G O -0.15938(19) 0.9195(2) 0.87023(12)
O2G O 0.0088(2) 0.8735(2) 0.81116(9)
O3G O 0.0110(2) 1.6292(2) 0.95526(8)
O4G O -0.0332(2) 1.61537(18) 0.89208(8)
O5G O 0.24444(19) 1.21972(18) 0.87930(9)
N1G N 0.1406(3) 0.7286(2) 0.76795(9)
N2G N 0.2006(4) 0.5839(3) 0.76425(11)
N3G N 0.1505(2) 0.5949(2) 0.79754(9)
N4G N -0.2591(2) 0.2111(2) 0.82847(8)
N4D N -0.7111(2) 1.2409(2) 0.57847(8)
N4C N -0.2409(2) 1.7111(2) 0.92153(8)
N5G N -0.1150(2) 0.1736(2) 0.80827(9)
N6G N -0.14394(19) 0.2553(2) 0.79145(8)
O6G O 0.13153(18) 0.95622(17) 0.79350(7)
C1G C 0.1024(2) 1.1388(2) 0.88777(10)
C2G C 0.0536(2) 1.0005(2) 0.85247(10)
O7G O -0.0527(2) 0.82471(18) 0.89355(10)
O7_2 O -0.82471(18) 1.0527(2) 0.60645(10)
O7G_2 O -0.0527(2) 1.82471(18) 0.89355(10)
C3G C -0.2285(2) 0.2765(2) 0.80361(10)
H1G H -0.2620 0.3294 0.7960
C4G C 0.1366(3) 1.4741(3) 0.92144(11)
H2G H 0.1755 1.5223 0.9299
C5G C -0.0811(3) 0.9021(2) 0.88073(11)
C6G C -0.0114(2) 0.9815(2) 0.88267(10)
C7G C 0.0029(3) 1.5855(2) 0.92449(11)
O8G O -0.16554(17) 1.3656(2) 0.88724(10)
H3G H -0.2185 1.3846 0.8825
C8G C -0.1216(3) 1.4263(2) 0.90938(11)
C9G C 0.0222(2) 1.3283(2) 0.89918(10)
H4G H -0.0166 1.2786 0.8924
C10G C -0.0170(2) 1.4136(2) 0.90878(10)
C11G C 0.0415(3) 1.4883(2) 0.91970(10)
O9G O -0.1597(2) 1.4864(2) 0.92792(11)
C12G C -0.0146(3) 1.0385(2) 0.91563(11)
H5G H -0.0541 1.0233 0.9366
C13G C 0.0403(3) 1.1181(3) 0.91788(10)
H6G H 0.0354 1.1577 0.9397
C14G C 0.1097(2) 1.0786(2) 0.85615(10)
H7G H 0.1539 1.0910 0.8366
C15G C 0.0635(2) 0.9391(2) 0.81652(10)
C16G C 0.1165(3) 0.6808(3) 0.79975(12)
H8G H 0.0810 0.7040 0.8206
C17G C 0.1618(2) 1.2245(2) 0.88848(10)
C18G C 0.1181(2) 1.3155(2) 0.89955(10)
C19G C 0.1751(3) 1.3888(3) 0.91069(12)
H9G H 0.2397 1.3809 0.9110
C20G C 0.1922(5) 0.6657(3) 0.74737(14)
H10G H 0.2197 0.6797 0.7231
C21G C -0.1879(3) 0.1495(3) 0.82994(11)
H11G H -0.1900 0.0948 0.8449
C22G C -0.0856(2) 0.3033(3) 0.76172(10)
H12G H -0.1146 0.3625 0.7549
H13G H -0.0829 0.2655 0.7379
C23G C 0.0139(2) 0.3216(2) 0.77634(9)
C24G C 0.0839(2) 0.2569(2) 0.76884(9)
C25G C 0.0604(3) 0.1659(2) 0.74794(11)
H14G H -0.0021 0.1472 0.7547
H15G H 0.1036 0.1182 0.7561
H16G H 0.0649 0.1746 0.7198
C26G C 0.1462(3) 0.5188(2) 0.82662(11)
H17G H 0.0976 0.5320 0.8459
H18G H 0.2054 0.5145 0.8406
C27G C 0.1255(3) 0.4260(2) 0.80607(10)
C28G C 0.0328(2) 0.4063(2) 0.79515(10)
C29G C 0.1977(2) 0.3631(3) 0.79784(10)
C30G C 0.2986(3) 0.3871(3) 0.80792(14)
H19G H 0.3037 0.4530 0.8130
H20G H 0.3383 0.3707 0.7861
H21G H 0.3175 0.3528 0.8310
C31G C 0.1760(2) 0.2772(2) 0.77931(10)
N7G N 0.3068(2) 0.1772(2) 0.66726(9)
N7G_2 N -0.6932(2) 1.1772(2) 0.66726(9)
N7_2 N -0.1772(2) 1.6932(2) 0.83274(9)
C32G C 0.2620(2) 0.1534(2) 0.69999(11)
H22G H 0.2195 0.1043 0.7018
C33G C 0.3612(4) 0.2486(4) 0.67980(14)
H23G H 0.4033 0.2793 0.6633
C34G C -0.0449(3) 0.4761(3) 0.80262(12)
H24G H -0.0545 0.5134 0.7793
H25G H -0.0281 0.5159 0.8244
H26G H -0.1016 0.4432 0.8089
N8G N 0.3494(3) 0.2708(3) 0.71725(11)
C35G C 0.2521(3) 0.2070(3) 0.77076(10)
H27G H 0.3046 0.2194 0.7882
H28G H 0.2289 0.1449 0.7768
N9G N 0.28526(19) 0.2082(2) 0.72966(8)
O10 O 0.2042(4) 0.0521(4) 0.5046(2)
H29 H 0.152(3) 0.028(6) 0.511(3)
H30 H 0.240(5) 0.031(7) 0.523(2)
loop_
_geom_bond_atom_site_label_1
_geom_bond_atom_site_label_2
_geom_bond_site_symmetry_1
_geom_bond_site_symmetry_2
Zn1 N1 1_555 1_555
Zn2 O4 1_555 1_555
O1 C5 1_555 1_555
O2 C15 1_555 1_555
O3 C7 1_555 1_555
O4 C7 1_555 1_555
O5 C17 1_555 1_555
N1 C16 1_555 1_555
N2 N3 1_555 1_555
N3 C16 1_555 1_555
N4 C3 1_555 1_555
N5 N6 1_555 1_555
N6 C3 1_555 1_555
O6 Zn1 1_555 1_555
C1 C13 1_555 1_555
C2 C6 1_555 1_555
O7 C5 1_555 1_555
C3 H1 1_555 1_555
C4 H2 1_555 1_555
C5 C6 1_555 1_555
C6 C12 1_555 1_555
C7 C11 1_555 1_555
O8 H3 1_555 1_555
C8 O8 1_555 1_555
C9 H4 1_555 1_555
C10 C8 1_555 1_555
C11 C4 1_555 1_555
O9 C8 1_555 1_555
C12 H5 1_555 1_555
C13 C12 1_555 1_555
H6 C13 1_555 1_555
C14 C1 1_555 1_555
H7 C14 1_555 1_555
C15 O6 1_555 1_555
C16 H8 1_555 1_555
C17 C1 1_555 1_555
C18 C9 1_555 1_555
C19 C4 1_555 1_555
H9 C19 1_555 1_555
C20 N1 1_555 1_555
H10 C20 1_555 1_555
C21 N4 1_555 1_555
H11 C21 1_555 1_555
C22 N6 1_555 1_555
H12 C22 1_555 1_555
H13 C22 1_555 1_555
C23 C22 1_555 1_555
C24 C23 1_555 1_555
C25 C24 1_555 1_555
H14 C25 1_555 1_555
H15 C25 1_555 1_555
H16 C25 1_555 1_555
C26 N3 1_555 1_555
H17 C26 1_555 1_555
H18 C26 1_555 1_555
C27 C26 1_555 1_555
C28 C23 1_555 1_555
C29 C27 1_555 1_555
C30 C29 1_555 1_555
H19 C30 1_555 1_555
H20 C30 1_555 1_555
H21 C30 1_555 1_555
C31 C24 1_555 1_555
N7 C32 1_555 1_555
C32 H22 1_555 1_555
C33 N7 1_555 1_555
H23 C33 1_555 1_555
C34 C28 1_555 1_555
H24 C34 1_555 1_555
H25 C34 1_555 1_555
H26 C34 1_555 1_555
N8 C33 1_555 1_555
C35 C31 1_555 1_555
H27 C35 1_555 1_555
H28 C35 1_555 1_555
N9 C32 1_555 1_555
O10 H29 1_555 1_555
H30 O10 1_555 1_555
Zn2G O4G 1_555 1_555
Zn2D N4 1_555 1_555
Zn2_2 O7 1_555 1_555
Zn2G_2 N7 1_555 1_555
Zn2C N4G 1_555 1_555
Zn2_3 N7G 1_555 1_555
Zn2G_3 O7G 1_555 1_555
O1G C5G 1_555 1_555
O2G C15G 1_555 1_555
O3G C7G 1_555 1_555
O4G C7G 1_555 1_555
O5G C17G 1_555 1_555
N1G Zn1 1_555 1_555
N2G N3G 1_555 1_555
N3G C16G 1_555 1_555
N4G C3G 1_555 1_555
N4D Zn2 1_555 1_555
N4C Zn2G 1_555 1_555
N5G N6G 1_555 1_555
N6G C3G 1_555 1_555
O6G Zn1 1_555 1_555
C1G C13G 1_555 1_555
C2G C6G 1_555 1_555
O7G C5G 1_555 1_555
O7_2 Zn2 1_555 1_555
O7G_2 Zn2G 1_555 1_555
C3G H1G 1_555 1_555
C4G H2G 1_555 1_555
C5G C6G 1_555 1_555
C6G C12G 1_555 1_555
C7G C11G 1_555 1_555
O8G H3G 1_555 1_555
C8G O8G 1_555 1_555
C9G H4G 1_555 1_555
C10G C8G 1_555 1_555
C11G C4G 1_555 1_555
O9G C8G 1_555 1_555
C12G H5G 1_555 1_555
C13G C12G 1_555 1_555
H6G C13G 1_555 1_555
C14G C1G 1_555 1_555
H7G C14G 1_555 1_555
C15G O6G 1_555 1_555
C16G N1G 1_555 1_555
H8G C16G 1_555 1_555
C17G C1G 1_555 1_555
C18G C9G 1_555 1_555
C19G C4G 1_555 1_555
H9G C19G 1_555 1_555
C20G N1G 1_555 1_555
H10G C20G 1_555 1_555
C21G N4G 1_555 1_555
H11G C21G 1_555 1_555
C22G N6G 1_555 1_555
H12G C22G 1_555 1_555
H13G C22G 1_555 1_555
C23G C22G 1_555 1_555
C24G C23G 1_555 1_555
C25G C24G 1_555 1_555
H14G C25G 1_555 1_555
H15G C25G 1_555 1_555
H16G C25G 1_555 1_555
C26G N3G 1_555 1_555
H17G C26G 1_555 1_555
H18G C26G 1_555 1_555
C27G C26G 1_555 1_555
C28G C23G 1_555 1_555
C29G C27G 1_555 1_555
C30G C29G 1_555 1_555
H19G C30G 1_555 1_555
H20G C30G 1_555 1_555
H21G C30G 1_555 1_555
C31G C24G 1_555 1_555
N7G C32G 1_555 1_555
N7G_2 Zn2 1_555 1_555
N7_2 Zn2G 1_555 1_555
C32G H22G 1_555 1_555
C33G N7G 1_555 1_555
H23G C33G 1_555 1_555
C34G C28G 1_555 1_555
H24G C34G 1_555 1_555
H25G C34G 1_555 1_555
H26G C34G 1_555 1_555
N8G C33G 1_555 1_555
C35G C31G 1_555 1_555
H27G C35G 1_555 1_555
H28G C35G 1_555 1_555
N9G C32G 1_555 1_555
N2 C20 1_555 1_555
N5 C21 1_555 1_555
C2 C14 1_555 1_555
C2 C15 1_555 1_555
C9 C10 1_555 1_555
C10 C11 1_555 1_555
C17 C18 1_555 1_555
C18 C19 1_555 1_555
C27 C28 1_555 1_555
C29 C31 1_555 1_555
N8 N9 1_555 1_555
C35 N9 1_555 1_555
N2G C20G 1_555 1_555
N5G C21G 1_555 1_555
C2G C14G 1_555 1_555
C2G C15G 1_555 1_555
C9G C10G 1_555 1_555
C10G C11G 1_555 1_555
C17G C18G 1_555 1_555
C18G C19G 1_555 1_555
C27G C28G 1_555 1_555
C29G C31G 1_555 1_555
N8G N9G 1_555 1_555
C35G N9G 1_555 1_555

#END
