
#######################################################################
#
#                 Cambridge Crystallographic Data Centre
#                                CCDC 
#
#######################################################################
#
# If this CIF has been generated from an entry in the Cambridge 
# Structural Database, then it will include bibliographic, chemical, 
# crystal, experimental, refinement or atomic coordinate data resulting 
# from the CCDC's data processing and validation procedures.
#
#######################################################################

data_LEDKAH
_symmetry_cell_setting           triclinic
_symmetry_space_group_name_H-M   'P -1'
_symmetry_Int_Tables_number      2
_space_group_name_Hall           '-P 1'
loop_
_symmetry_equiv_pos_site_id
_symmetry_equiv_pos_as_xyz
1 x,y,z
2 -x,-y,-z
_cell_length_a                   7.4853(8)
_cell_length_b                   8.4363(9)
_cell_length_c                   8.5159(9)
_cell_angle_alpha                68.7570(10)
_cell_angle_beta                 75.8410(10)
_cell_angle_gamma                72.1690(10)
_cell_volume                     471.702
loop_
_atom_site_label
_atom_site_type_symbol
_atom_site_fract_x
_atom_site_fract_y
_atom_site_fract_z
Hg1 Hg 0.07327(5) 0.22903(5) 0.02064(4)
Cl1 Cl -0.1375(4) 0.2139(4) -0.1304(3)
S1 S -0.1897(3) 0.1170(3) 0.3871(3)
O1 O -0.1155(9) 0.4698(8) 0.1550(8)
O2 O -0.3190(13) 0.6193(11) 0.3135(12)
N1 N -0.6957(10) 0.1819(10) 0.1508(10)
C1 C -0.4169(12) 0.0081(12) 0.2683(11)
H1 H -0.3299 -0.0998 0.2970
C2 C -0.5694(13) 0.0279(13) 0.1948(11)
H2 H -0.5855 -0.0680 0.1751
C3 C -0.6759(14) 0.3170(11) 0.1859(13)
H3 H -0.7660 0.4230 0.1583
C4 C -0.5282(14) 0.3057(13) 0.2610(14)
H4 H -0.5196 0.4018 0.2854
C5 C -0.3935(13) 0.1512(13) 0.2997(11)
C6 C -0.2325(15) 0.3156(13) 0.4400(11)
H5 H -0.3578 0.3344 0.5066
H6 H -0.1413 0.2979 0.5121
C7 C -0.2206(13) 0.4832(13) 0.2889(12)
Hg1A Hg -0.07327(5) 0.77097(5) -0.02064(4)
Hg1_2 Hg -0.92673(5) 0.22903(5) 0.02064(4)
O1A O 0.1155(9) 0.5302(8) -0.1550(8)
N1_2 N 0.3043(10) 0.1819(10) 0.1508(10)
loop_
_geom_bond_atom_site_label_1
_geom_bond_atom_site_label_2
_geom_bond_site_symmetry_1
_geom_bond_site_symmetry_2
Hg1 Cl1 1_555 1_555
S1 C5 1_555 1_555
O1 Hg1 1_555 1_555
O2 C7 1_555 1_555
N1 C2 1_555 1_555
C1 H1 1_555 1_555
C2 C1 1_555 1_555
H2 C2 1_555 1_555
C3 N1 1_555 1_555
H3 C3 1_555 1_555
C4 C3 1_555 1_555
H4 C4 1_555 1_555
C5 C1 1_555 1_555
C6 S1 1_555 1_555
H5 C6 1_555 1_555
H6 C6 1_555 1_555
C7 O1 1_555 1_555
Hg1A O1 1_555 1_555
Hg1_2 N1 1_555 1_555
O1A Hg1 1_555 1_555
N1_2 Hg1 1_555 1_555
C4 C5 1_555 1_555
C6 C7 1_555 1_555
Hg1A O1A 1_555 1_555

#END
