
#######################################################################
#
#                 Cambridge Crystallographic Data Centre
#                                CCDC 
#
#######################################################################
#
# If this CIF has been generated from an entry in the Cambridge 
# Structural Database, then it will include bibliographic, chemical, 
# crystal, experimental, refinement or atomic coordinate data resulting 
# from the CCDC's data processing and validation procedures.
#
#######################################################################

data_LEDMOY01
_symmetry_cell_setting           triclinic
_symmetry_space_group_name_H-M   'P -1'
_symmetry_Int_Tables_number      2
_space_group_name_Hall           '-P 1'
loop_
_symmetry_equiv_pos_site_id
_symmetry_equiv_pos_as_xyz
1 x,y,z
2 -x,-y,-z
_cell_length_a                   7.8099(5)
_cell_length_b                   9.5604(6)
_cell_length_c                   10.9524(5)
_cell_angle_alpha                112.191(5)
_cell_angle_beta                 92.059(4)
_cell_angle_gamma                107.433(5)
_cell_volume                     712.056
loop_
_atom_site_label
_atom_site_type_symbol
_atom_site_fract_x
_atom_site_fract_y
_atom_site_fract_z
Cd1 Cd 0.17911(3) 0.45849(2) 0.321520(18)
P1 P 0.01694(10) 0.75420(9) 0.50982(7)
H1 H 0.151(4) 0.885(4) 0.521(3)
P2 P 0.54804(10) 0.34741(9) 0.35778(7)
H2 H 0.625(3) 0.472(3) 0.327(2)
O1 O 0.0050(3) 0.6195(3) 0.3804(2)
O2 O -0.1558(3) 0.8059(3) 0.5075(2)
H3 H -0.222(5) 0.775(4) 0.553(4)
O3 O 0.0438(3) 0.7273(2) 0.63577(19)
O4 O 0.3442(2) 0.2831(2) 0.31621(19)
O5 O 0.6158(3) 0.3706(3) 0.49527(18)
O6 O 0.6300(3) 0.2338(3) 0.2522(2)
H4 H 0.736(6) 0.235(5) 0.288(4)
N1 N 0.0649(3) 0.3153(3) 0.0926(2)
N2 N 0.3423(3) 0.5978(3) 0.2026(2)
C1 C -0.0634(5) 0.1702(4) 0.0414(3)
H5 H -0.112(5) 0.122(4) 0.097(3)
C2 C -0.1288(5) 0.0854(4) -0.0940(4)
H6 H -0.228(5) -0.013(5) -0.124(4)
C3 C -0.0599(6) 0.1534(5) -0.1783(3)
H7 H -0.096(5) 0.100(5) -0.273(4)
C4 C 0.0726(5) 0.3026(5) -0.1277(3)
H8 H 0.119(6) 0.353(5) -0.179(4)
C5 C 0.1338(4) 0.3817(4) 0.0098(3)
C6 C 0.2814(4) 0.5413(4) 0.0704(3)
C7 C 0.3550(5) 0.6273(5) -0.0034(4)
H9 H 0.317(5) 0.595(4) -0.091(4)
C8 C 0.4914(6) 0.7726(5) 0.0587(4)
H10 H 0.539(6) 0.839(5) 0.018(4)
C9 C 0.5553(5) 0.8294(5) 0.1927(4)
H11 H 0.635(6) 0.927(5) 0.242(4)
C10 C 0.4764(5) 0.7399(4) 0.2608(4)
H12 H 0.521(5) 0.778(5) 0.353(4)
Cd1A Cd -0.17911(3) 0.54151(2) 0.678480(18)
Cd1A_2 Cd 0.82089(3) 0.54151(2) 0.678480(18)
O3A O -0.0438(3) 0.2727(2) 0.36423(19)
O5A O 0.3842(3) 0.6294(3) 0.50473(18)
loop_
_geom_bond_atom_site_label_1
_geom_bond_atom_site_label_2
_geom_bond_site_symmetry_1
_geom_bond_site_symmetry_2
Cd1 O1 1_555 1_555
P1 H1 1_555 1_555
P2 H2 1_555 1_555
O1 P1 1_555 1_555
O2 P1 1_555 1_555
H3 O2 1_555 1_555
O3 P1 1_555 1_555
O4 Cd1 1_555 1_555
O5 P2 1_555 1_555
O6 P2 1_555 1_555
H4 O6 1_555 1_555
N1 Cd1 1_555 1_555
N2 Cd1 1_555 1_555
C1 N1 1_555 1_555
H5 C1 1_555 1_555
C2 C1 1_555 1_555
H6 C2 1_555 1_555
C3 C2 1_555 1_555
H7 C3 1_555 1_555
C4 C3 1_555 1_555
H8 C4 1_555 1_555
C5 N1 1_555 1_555
C6 N2 1_555 1_555
C7 C6 1_555 1_555
H9 C7 1_555 1_555
C8 C7 1_555 1_555
H10 C8 1_555 1_555
C9 C8 1_555 1_555
H11 C9 1_555 1_555
C10 N2 1_555 1_555
H12 C10 1_555 1_555
Cd1A O3 1_555 1_555
Cd1A_2 O5 1_555 1_555
O3A Cd1 1_555 1_555
O5A Cd1 1_555 1_555
P2 O4 1_555 1_555
C4 C5 1_555 1_555
C5 C6 1_555 1_555
C9 C10 1_555 1_555

#END
