
#######################################################################
#
#                 Cambridge Crystallographic Data Centre
#                                CCDC 
#
#######################################################################
#
# If this CIF has been generated from an entry in the Cambridge 
# Structural Database, then it will include bibliographic, chemical, 
# crystal, experimental, refinement or atomic coordinate data resulting 
# from the CCDC's data processing and validation procedures.
#
#######################################################################

data_LEDPAN
_symmetry_cell_setting           orthorhombic
_symmetry_space_group_name_H-M   'F d d 2'
_symmetry_Int_Tables_number      43
_space_group_name_Hall           'F 2 -2d'
loop_
_symmetry_equiv_pos_site_id
_symmetry_equiv_pos_as_xyz
1 x,y,z
2 -x,-y,z
3 1/4+x,1/4-y,1/4+z
4 1/4-x,1/4+y,1/4+z
5 x,1/2+y,1/2+z
6 -x,1/2-y,1/2+z
7 1/4+x,3/4-y,3/4+z
8 1/4-x,3/4+y,3/4+z
9 1/2+x,y,1/2+z
10 1/2-x,-y,1/2+z
11 3/4+x,1/4-y,3/4+z
12 3/4-x,1/4+y,3/4+z
13 1/2+x,1/2+y,z
14 1/2-x,1/2-y,z
15 3/4+x,3/4-y,1/4+z
16 3/4-x,3/4+y,1/4+z
_cell_length_a                   12.6487(7)
_cell_length_b                   36.099(2)
_cell_length_c                   7.0161(4)
_cell_angle_alpha                90
_cell_angle_beta                 90
_cell_angle_gamma                90
_cell_volume                     3203.59
loop_
_atom_site_label
_atom_site_type_symbol
_atom_site_fract_x
_atom_site_fract_y
_atom_site_fract_z
Cd1 Cd 0.04661(2) 0.249713(6) 0.62618(3)
Cd2 Cd 0.2500 0.2500 0.02122(6)
C1 C 0.1636(3) 0.20439(9) 0.3195(5)
C2 C 0.1121(3) 0.17396(10) 0.4357(5)
C3 C 0.1333(3) 0.13713(9) 0.3996(6)
H1 H 0.1849 0.1304 0.3117
C4 C 0.0757(3) 0.11005(10) 0.4979(5)
C5 C 0.0964(3) 0.06951(10) 0.4617(5)
C6 C 0.0019(3) 0.12133(11) 0.6301(5)
H2 H -0.0381 0.1040 0.6967
C7 C -0.0119(3) 0.15938(10) 0.6629(6)
H3 H -0.0600 0.1670 0.7552
N1 N 0.0416(3) 0.18497(8) 0.5664(5)
O1 O 0.1336(2) 0.23703(6) 0.3452(4)
O2 O 0.2298(2) 0.19483(8) 0.1964(4)
O3 O 0.1814(2) 0.06158(7) 0.3791(5)
O4 O 0.0287(2) 0.04660(8) 0.5152(5)
O5 O 0.0860(2) 0.23653(8) -0.0752(4)
H4 H 0.090(4) 0.2182(12) -0.093(8)
Cd1M Cd 0.45339(2) 0.250287(6) 0.62618(3)
Cd1E Cd -0.04661(2) 0.250287(6) 0.12618(3)
Cd1G Cd 0.20339(2) -0.000287(6) 0.37618(3)
Cd1_2 Cd 0.04661(2) 0.249713(6) -0.37382(3)
Cd1H Cd 0.54661(2) 0.249713(6) 0.12618(3)
Cd1F Cd 0.29661(2) 0.500287(6) 0.37618(3)
Cd1M_2 Cd 0.45339(2) 0.250287(6) -0.37382(3)
Cd2G Cd 0.0000 0.0000 0.77122(6)
Cd2F Cd 0.5000 0.5000 0.77122(6)
C1M C 0.3364(3) 0.29561(9) 0.3195(5)
C2M C 0.3879(3) 0.32604(10) 0.4357(5)
C3M C 0.3667(3) 0.36287(9) 0.3996(6)
H1M H 0.3151 0.3696 0.3117
C4M C 0.4243(3) 0.38995(10) 0.4979(5)
C5M C 0.4036(3) 0.43049(10) 0.4617(5)
C6M C 0.4981(3) 0.37867(11) 0.6301(5)
H2M H 0.5381 0.3960 0.6967
C7M C 0.5119(3) 0.34062(10) 0.6629(6)
H3M H 0.5600 0.3330 0.7552
N1M N 0.4584(3) 0.31503(8) 0.5664(5)
O1M O 0.3664(2) 0.26297(6) 0.3452(4)
O1E O -0.1336(2) 0.26297(6) 0.8452(4)
O1H O 0.6336(2) 0.23703(6) 0.8452(4)
O2M O 0.2702(2) 0.30517(8) 0.1964(4)
O3M O 0.3186(2) 0.43842(7) 0.3791(5)
O3C O 0.0686(2) 0.31158(7) 0.6291(5)
O3B O 0.4314(2) 0.18842(7) 0.6291(5)
O4M O 0.4713(2) 0.45340(8) 0.5152(5)
O4B O 0.2787(2) 0.20340(8) -0.2348(5)
O4C O 0.2213(2) 0.29660(8) -0.2348(5)
O5M O 0.4140(2) 0.26347(8) -0.0752(4)
O5_2 O 0.0860(2) 0.23653(8) 0.9248(4)
O5E O -0.0860(2) 0.26347(8) 0.4248(4)
O5M_2 O 0.4140(2) 0.26347(8) 0.9248(4)
O5H O 0.5860(2) 0.23653(8) 0.4248(4)
H4M H 0.410(4) 0.2818(12) -0.093(8)
H4_2 H 0.090(4) 0.2182(12) 0.907(8)
H4E H -0.090(4) 0.2818(12) 0.407(8)
H4M_2 H 0.410(4) 0.2818(12) 0.907(8)
H4H H 0.590(4) 0.2182(12) 0.407(8)
loop_
_geom_bond_atom_site_label_1
_geom_bond_atom_site_label_2
_geom_bond_site_symmetry_1
_geom_bond_site_symmetry_2
Cd1 N1 1_555 1_555
Cd2 O1 1_555 1_555
C1 C2 1_555 1_555
C2 C3 1_555 1_555
C3 H1 1_555 1_555
C4 C3 1_555 1_555
C5 C4 1_555 1_555
C6 C4 1_555 1_555
H2 C6 1_555 1_555
C7 C6 1_555 1_555
H3 C7 1_555 1_555
N1 C2 1_555 1_555
O1 Cd1 1_555 1_555
O2 Cd2 1_555 1_555
O3 C5 1_555 1_555
O4 C5 1_555 1_555
O5 Cd2 1_555 1_555
H4 O5 1_555 1_555
Cd1M N1M 1_555 1_555
Cd1E O1 1_555 1_555
Cd1G O3 1_555 1_555
Cd1_2 O5 1_555 1_555
Cd1H O1M 1_555 1_555
Cd1F O3M 1_555 1_555
Cd1M_2 O5M 1_555 1_555
Cd2G O4 1_555 1_555
Cd2F O4M 1_555 1_555
C1M C2M 1_555 1_555
C2M C3M 1_555 1_555
C3M H1M 1_555 1_555
C4M C3M 1_555 1_555
C5M C4M 1_555 1_555
C6M C4M 1_555 1_555
H2M C6M 1_555 1_555
C7M C6M 1_555 1_555
H3M C7M 1_555 1_555
N1M C2M 1_555 1_555
O1M Cd2 1_555 1_555
O1E Cd1 1_555 1_555
O1H Cd1M 1_555 1_555
O2M Cd2 1_555 1_555
O3M C5M 1_555 1_555
O3C Cd1 1_555 1_555
O3B Cd1M 1_555 1_555
O4M C5M 1_555 1_555
O4B Cd2 1_555 1_555
O4C Cd2 1_555 1_555
O5M Cd2 1_555 1_555
O5_2 Cd1 1_555 1_555
O5E Cd1 1_555 1_555
O5M_2 Cd1M 1_555 1_555
O5H Cd1M 1_555 1_555
H4M O5M 1_555 1_555
H4_2 O5_2 1_555 1_555
H4E O5E 1_555 1_555
H4M_2 O5M_2 1_555 1_555
H4H O5H 1_555 1_555
C1 O1 1_555 1_555
C1 O2 1_555 1_555
C7 N1 1_555 1_555
O5 Cd1E 1_555 1_555
Cd1M O1M 1_555 1_555
Cd1E O5E 1_555 1_555
Cd1H O5M 1_555 1_555
Cd1H O5H 1_555 1_555
C1M O1M 1_555 1_555
C1M O2M 1_555 1_555
C7M N1M 1_555 1_555

#END
