
#######################################################################
#
#                 Cambridge Crystallographic Data Centre
#                                CCDC 
#
#######################################################################
#
# If this CIF has been generated from an entry in the Cambridge 
# Structural Database, then it will include bibliographic, chemical, 
# crystal, experimental, refinement or atomic coordinate data resulting 
# from the CCDC's data processing and validation procedures.
#
#######################################################################

data_LEDPEQ
_symmetry_cell_setting           triclinic
_symmetry_space_group_name_H-M   'P -1'
_symmetry_Int_Tables_number      2
_space_group_name_Hall           '-P 1'
loop_
_symmetry_equiv_pos_site_id
_symmetry_equiv_pos_as_xyz
1 x,y,z
2 -x,-y,-z
_cell_length_a                   13.049(3)
_cell_length_b                   13.334(3)
_cell_length_c                   21.562(4)
_cell_angle_alpha                91.46(3)
_cell_angle_beta                 101.60(3)
_cell_angle_gamma                99.41(3)
_cell_volume                     3618.99
loop_
_atom_site_label
_atom_site_type_symbol
_atom_site_fract_x
_atom_site_fract_y
_atom_site_fract_z
C1 C 0.2644(3) 0.3014(3) -0.41069(15)
H1 H 0.3360 0.3283 -0.4063
C2 C 0.1076(3) 0.2217(2) -0.44789(15)
H2 H 0.0494 0.1824 -0.4748
C3 C 0.1073(3) 0.2638(2) -0.38977(15)
H3 H 0.0501 0.2590 -0.3697
C4 C 0.2474(3) 0.3739(3) -0.30569(16)
H4 H 0.2051 0.4267 -0.3034
H5 H 0.3201 0.4069 -0.3036
C5 C 0.2437(3) 0.3102(3) -0.25026(17)
H6 H 0.2655 0.3543 -0.2118
H7 H 0.1708 0.2776 -0.2525
C6 C 0.3113(4) 0.2309(3) -0.24587(16)
H8 H 0.3850 0.2640 -0.2380
H9 H 0.2960 0.1928 -0.2865
C7 C 0.2981(4) 0.1567(3) -0.19513(17)
H10 H 0.2255 0.1204 -0.2041
H11 H 0.3444 0.1072 -0.1967
C8 C 0.2542(3) 0.2059(3) -0.09190(15)
H12 H 0.1836 0.1738 -0.1024
C9 C 0.4016(3) 0.2899(3) -0.04144(16)
H13 H 0.4531 0.3276 -0.0095
C10 C 0.4178(3) 0.2603(3) -0.09847(16)
H14 H 0.4807 0.2738 -0.1131
C11 C 0.2803(3) 0.1031(2) -0.65790(14)
H15 H 0.2426 0.0429 -0.6473
C12 C 0.3547(3) 0.2577(3) -0.65648(17)
H16 H 0.3788 0.3262 -0.6441
C13 C 0.3712(3) 0.2104(3) -0.70829(17)
H17 H 0.4079 0.2395 -0.7380
C14 C 0.3241(3) 0.0285(3) -0.75519(16)
H18 H 0.3073 0.0522 -0.7976
H19 H 0.2685 -0.0277 -0.7516
C15 C 0.4274(3) -0.0100(3) -0.74699(16)
H20 H 0.4836 0.0474 -0.7471
H21 H 0.4245 -0.0556 -0.7833
C16 C 0.4569(3) -0.0663(3) -0.68658(17)
H22 H 0.3921 -0.1029 -0.6768
H23 H 0.4992 -0.1164 -0.6952
C17 C 0.5170(3) -0.0007(3) -0.62928(16)
H24 H 0.5822 0.0364 -0.6383
H25 H 0.4747 0.0484 -0.6191
C18 C 0.6355(3) -0.0899(3) -0.55206(16)
H26 H 0.6967 -0.0686 -0.5674
C19 C 0.5276(3) -0.1638(3) -0.49873(16)
H27 H 0.4997 -0.2036 -0.4693
C20 C 0.4725(3) -0.1100(3) -0.54139(17)
H28 H 0.4007 -0.1061 -0.5469
C21 C 0.1382(3) 0.3866(2) -0.57449(14)
H29 H 0.1949 0.4320 -0.5505
C22 C 0.0422(3) 0.2517(2) -0.62349(16)
H30 H 0.0202 0.1848 -0.6401
C23 C -0.0181(3) 0.3253(3) -0.63132(16)
H31 H -0.0880 0.3189 -0.6535
C24 C 0.0114(3) 0.5092(2) -0.58813(16)
H32 H -0.0414 0.5219 -0.6243
H33 H 0.0721 0.5636 -0.5834
C25 C -0.0344(4) 0.5096(3) -0.52949(17)
H34 H -0.0552 0.5753 -0.5241
H35 H -0.0984 0.4586 -0.5365
C26 C 0.2039(3) 0.3794(3) 0.15804(15)
H36 H 0.2409 0.4415 0.1495
C27 C 0.1326(3) 0.2222(3) 0.15222(17)
H37 H 0.1105 0.1541 0.1382
C28 C 0.1148(3) 0.2651(3) 0.20546(17)
H38 H 0.0786 0.2327 0.2345
C29 C 0.1567(3) 0.4429(3) 0.25733(17)
H39 H 0.2165 0.4975 0.2592
H40 H 0.1652 0.4131 0.2983
C30 C 0.0572(4) 0.4868(3) 0.24611(18)
H41 H 0.0577 0.5291 0.2835
H42 H -0.0023 0.4312 0.2420
C31 C 0.0364(5) 0.5533(4) 0.1856(2)
H43 H -0.0002 0.6075 0.1952
H44 H 0.1042 0.5844 0.1768
C32 C -0.0241(4) 0.4955(3) 0.1311(2)
H45 H -0.0912 0.4616 0.1395
H46 H 0.0139 0.4440 0.1189
C33 C -0.1360(3) 0.5975(3) 0.05450(19)
H47 H -0.1984 0.5789 0.0691
C34 C -0.0213(3) 0.6667(3) 0.0027(2)
H48 H 0.0085 0.7040 -0.0270
C35 C 0.0307(3) 0.6147(4) 0.0470(2)
H49 H 0.1027 0.6111 0.0550
C36 C 0.3467(3) 0.0995(3) 0.07096(15)
H50 H 0.2919 0.0561 0.0440
C37 C 0.4379(3) 0.2311(3) 0.12638(16)
H51 H 0.4580 0.2965 0.1455
C38 C 0.4971(3) 0.1566(3) 0.13407(17)
H52 H 0.5653 0.1614 0.1586
C39 C 0.4732(3) -0.0230(3) 0.08479(18)
H53 H 0.4121 -0.0772 0.0737
H54 H 0.5196 -0.0410 0.1224
C40 C 0.5318(3) -0.0137(3) 0.03068(18)
H55 H 0.5951 0.0377 0.0433
H56 H 0.5546 -0.0780 0.0236
N1 N 0.2070(2) 0.2463(2) -0.46059(12)
N2 N 0.2078(2) 0.3143(2) -0.36694(12)
N3 N 0.3224(2) 0.2059(2) -0.13055(12)
N4 N 0.2982(2) 0.2563(2) -0.03723(12)
N5 N 0.2971(2) 0.18984(19) -0.62469(12)
N6 N 0.3239(2) 0.1116(2) -0.70895(12)
N7 N 0.5424(2) -0.0624(2) -0.57471(13)
N8 N 0.6307(2) -0.1509(2) -0.50527(12)
N9 N 0.1406(2) 0.28991(18) -0.58746(11)
N10 N 0.0446(2) 0.41125(19) -0.59998(12)
N11 N 0.3433(2) 0.1947(2) 0.08586(12)
N12 N 0.4376(2) 0.0725(2) 0.09880(13)
N13 N 0.1884(2) 0.2948(2) 0.12181(12)
N14 N 0.1598(2) 0.3643(2) 0.20845(12)
N15 N -0.0436(3) 0.5677(3) 0.07834(19)
N16 N -0.1262(2) 0.6565(2) 0.00785(13)
O9 O 0.1418(2) 0.05135(19) -0.55722(13)
O10 O 0.1104(2) 0.11006(18) 0.01356(12)
Cu1 Cu 0.25204(3) 0.21456(3) -0.542684(17)
Cu2 Cu 0.23571(3) 0.27191(3) 0.040518(18)
H74 H 0.052(2) 0.105(3) -0.0154(14)
H85 H 0.079(2) 0.030(4) -0.581(2)
H86 H 0.129(3) 0.030(3) -0.5245(19)
H93 H 0.092(4) 0.063(3) 0.038(2)
C1A C 0.7356(3) -0.3014(3) -0.58931(15)
H1A H 0.6640 -0.3283 -0.5937
C2A C 0.8924(3) -0.2217(2) -0.55211(15)
H2A H 0.9506 -0.1824 -0.5252
C3A C 0.8927(3) -0.2638(2) -0.61023(15)
H3A H 0.9499 -0.2590 -0.6303
C4A C 0.7526(3) -0.3739(3) -0.69431(16)
H4A H 0.7949 -0.4267 -0.6966
H5A H 0.6799 -0.4069 -0.6964
C5A C 0.7563(3) -0.3102(3) -0.74974(17)
H6A H 0.7345 -0.3543 -0.7882
H7A H 0.8292 -0.2776 -0.7475
C6A C 0.6887(4) -0.2309(3) -0.75413(16)
H8A H 0.6150 -0.2640 -0.7620
H9A H 0.7040 -0.1928 -0.7135
C7A C 0.7019(4) -0.1567(3) -0.80487(17)
H10A H 0.7745 -0.1204 -0.7959
H11A H 0.6556 -0.1072 -0.8033
C8A C 0.7458(3) -0.2059(3) -0.90810(15)
H12A H 0.8164 -0.1738 -0.8976
C9A C 0.5984(3) -0.2899(3) -0.95856(16)
H13A H 0.5469 -0.3276 -0.9905
C10A C 0.5822(3) -0.2603(3) -0.90153(16)
H14A H 0.5193 -0.2738 -0.8869
C11A C 0.7197(3) -0.1031(2) -0.34210(14)
H15A H 0.7574 -0.0429 -0.3527
C12A C 0.6453(3) -0.2577(3) -0.34352(17)
H16A H 0.6212 -0.3262 -0.3559
C13A C 0.6288(3) -0.2104(3) -0.29171(17)
H17A H 0.5921 -0.2395 -0.2620
C14A C 0.6759(3) -0.0285(3) -0.24481(16)
H18A H 0.6927 -0.0522 -0.2024
H19A H 0.7315 0.0277 -0.2484
C15A C 0.5726(3) 0.0100(3) -0.25301(16)
H20A H 0.5164 -0.0474 -0.2529
H21A H 0.5755 0.0556 -0.2167
C16A C 0.5431(3) 0.0663(3) -0.31342(17)
H22A H 0.6079 0.1029 -0.3232
H23A H 0.5008 0.1164 -0.3048
C17A C 0.4830(3) 0.0007(3) -0.37072(16)
H24A H 0.4178 -0.0364 -0.3617
H25A H 0.5253 -0.0484 -0.3809
C18A C 0.3645(3) 0.0899(3) -0.44794(16)
H26A H 0.3033 0.0686 -0.4326
C19A C 0.4724(3) 0.1638(3) -0.50127(16)
H27A H 0.5003 0.2036 -0.5307
C20A C 0.5275(3) 0.1100(3) -0.45861(17)
H28A H 0.5993 0.1061 -0.4531
C21A C -0.1382(3) 0.6134(2) -0.42551(14)
H29A H -0.1949 0.5680 -0.4495
C22A C -0.0422(3) 0.7483(2) -0.37651(16)
H30A H -0.0202 0.8152 -0.3599
C23A C 0.0181(3) 0.6747(3) -0.36868(16)
H31A H 0.0880 0.6811 -0.3465
C24A C -0.0114(3) 0.4908(2) -0.41187(16)
H32A H 0.0414 0.4781 -0.3757
H33A H -0.0721 0.4364 -0.4166
C25A C 0.0344(4) 0.4904(3) -0.47051(17)
H34A H 0.0552 0.4247 -0.4759
H35A H 0.0984 0.5414 -0.4635
C26A C -0.2039(3) 0.6206(3) -0.15804(15)
H36A H -0.2409 0.5585 -0.1495
C27A C -0.1326(3) 0.7778(3) -0.15222(17)
H37A H -0.1105 0.8459 -0.1382
C28A C -0.1148(3) 0.7349(3) -0.20546(17)
H38A H -0.0786 0.7673 -0.2345
C29A C -0.1567(3) 0.5571(3) -0.25733(17)
H39A H -0.2165 0.5025 -0.2592
H40A H -0.1652 0.5869 -0.2983
C30A C -0.0572(4) 0.5132(3) -0.24611(18)
H41A H -0.0577 0.4709 -0.2835
H42A H 0.0023 0.5688 -0.2420
C31A C -0.0364(5) 0.4467(4) -0.1856(2)
H43A H 0.0002 0.3925 -0.1952
H44A H -0.1042 0.4156 -0.1768
C32A C 0.0241(4) 0.5045(3) -0.1311(2)
H45A H 0.0912 0.5384 -0.1395
H46A H -0.0139 0.5560 -0.1189
C33A C 0.1360(3) 0.4025(3) -0.05450(19)
H47A H 0.1984 0.4211 -0.0691
C34A C 0.0213(3) 0.3333(3) -0.0027(2)
H48A H -0.0085 0.2960 0.0270
C35A C -0.0307(3) 0.3853(4) -0.0470(2)
H49A H -0.1027 0.3889 -0.0550
C36A C 0.6533(3) -0.0995(3) -0.07096(15)
H50A H 0.7081 -0.0561 -0.0440
C37A C 0.5621(3) -0.2311(3) -0.12638(16)
H51A H 0.5420 -0.2965 -0.1455
C38A C 0.5029(3) -0.1566(3) -0.13407(17)
H52A H 0.4347 -0.1614 -0.1586
C39A C 0.5268(3) 0.0230(3) -0.08479(18)
H53A H 0.5879 0.0772 -0.0737
H54A H 0.4804 0.0410 -0.1224
C40A C 0.4682(3) 0.0137(3) -0.03068(18)
H55A H 0.4049 -0.0377 -0.0433
H56A H 0.4454 0.0780 -0.0236
N1A N 0.7930(2) -0.2463(2) -0.53941(12)
N2A N 0.7922(2) -0.3143(2) -0.63306(12)
N3A N 0.6776(2) -0.2059(2) -0.86945(12)
N4A N 0.7018(2) -0.2563(2) -0.96277(12)
N5A N 0.7029(2) -0.18984(19) -0.37531(12)
N6A N 0.6761(2) -0.1116(2) -0.29105(12)
N7A N 0.4576(2) 0.0624(2) -0.42529(13)
N8A N 0.3693(2) 0.1509(2) -0.49473(12)
N9A N -0.1406(2) 0.71009(18) -0.41254(11)
N9A_2 N 0.8594(2) -0.28991(18) -0.41254(11)
N10A N -0.0446(2) 0.58875(19) -0.40002(12)
N11A N 0.6567(2) -0.1947(2) -0.08586(12)
N11A_2 N 0.6567(2) -0.1947(2) -1.08586(12)
N12A N 0.5624(2) -0.0725(2) -0.09880(13)
N13A N -0.1884(2) 0.7052(2) -0.12181(12)
N13A_2 N 0.8116(2) -0.2948(2) -1.12181(12)
N14A N -0.1598(2) 0.6357(2) -0.20845(12)
N15A N 0.0436(3) 0.4323(3) -0.07834(19)
N16A N 0.1262(2) 0.3435(2) -0.00785(13)
N16_2 N 0.8738(2) -0.3435(2) -0.99215(13)
O9A O 0.8582(2) -0.05135(19) -0.44278(13)
O10A O 0.8896(2) -0.11006(18) -1.01356(12)
Cu1A Cu 0.74796(3) -0.21456(3) -0.457316(17)
Cu1A_2 Cu -0.25204(3) 0.78544(3) -0.457316(17)
Cu2A Cu 0.76429(3) -0.27191(3) -1.040518(18)
Cu2A_2 Cu -0.23571(3) 0.72809(3) -0.040518(18)
Cu2A_3 Cu 0.76429(3) -0.27191(3) -0.040518(18)
H74A H 0.948(2) -0.105(3) -0.9846(14)
H85A H 0.921(2) -0.030(4) -0.419(2)
H86A H 0.871(3) -0.030(3) -0.4755(19)
H93A H 0.908(4) -0.063(3) -1.038(2)
C41 C 0.7447(3) 0.2815(2) -0.28971(15)
C42 C 0.7500(3) 0.2851(2) -0.35899(14)
C43 C 0.8016(3) 0.2176(2) -0.38705(15)
H57 H 0.8385 0.1740 -0.3620
C44 C 0.7980(3) 0.2152(2) -0.45136(15)
H58 H 0.8319 0.1691 -0.4691
C45 C 0.7453(2) 0.2794(2) -0.49003(14)
C46 C 0.7341(3) 0.2720(3) -0.56162(16)
C47 C 0.6980(3) 0.3494(2) -0.46165(15)
H59 H 0.6648 0.3958 -0.4863
C48 C 0.7000(3) 0.3508(2) -0.39760(15)
H60 H 0.6666 0.3974 -0.3799
O1 O 0.6829(2) 0.33148(19) -0.27057(11)
O2 O 0.8001(2) 0.22769(18) -0.25593(10)
O3 O 0.6983(2) 0.3415(2) -0.59193(11)
O4 O 0.7609(2) 0.19740(19) -0.58551(11)
C49 C 0.0971(3) -0.0620(2) -0.19351(15)
C50 C 0.1470(2) -0.1244(2) -0.14243(14)
C51 C 0.1886(3) -0.2092(3) -0.15798(15)
H61 H 0.1856 -0.2271 -0.2004
C52 C 0.2341(3) -0.2670(2) -0.11174(16)
H62 H 0.2611 -0.3234 -0.1234
C53 C 0.2403(2) -0.2427(2) -0.04809(15)
C54 C 0.2900(3) -0.3062(3) 0.00263(16)
C55 C 0.1984(2) -0.1579(2) -0.03236(15)
H63 H 0.2014 -0.1403 0.0100
C56 C 0.1529(3) -0.0998(2) -0.07864(15)
H64 H 0.1258 -0.0434 -0.0670
O5 O 0.2987(2) -0.2750(2) 0.05907(12)
O6 O 0.3194(2) -0.38474(19) -0.01401(12)
O7 O 0.0518(2) 0.00768(19) -0.17800(11)
O8 O 0.1054(2) -0.08265(19) -0.24870(11)
O11 O 0.2916(2) -0.1248(3) -0.28689(14)
H68 H 0.283(3) -0.151(2) -0.3282(10)
H96 H 0.230(2) -0.121(4) -0.2778(19)
O12 O -0.0612(2) 0.0515(2) -0.08957(12)
H76 H -0.102(3) 0.088(3) -0.109(2)
H88 H -0.037(3) 0.038(3) -0.1233(15)
O13 O 0.0319(3) 0.0198(2) -0.34550(12)
H71 H 0.017(3) 0.0778(18) -0.3302(17)
H72 H 0.045(3) -0.015(3) -0.3094(14)
O14 O 0.2169(3) -0.1572(2) 0.13903(13)
H69 H 0.239(3) -0.199(2) 0.1151(15)
H70 H 0.198(3) -0.196(2) 0.1698(13)
O15 O 0.5278(3) 0.4555(4) -0.30497(16)
H83 H 0.568(3) 0.407(2) -0.298(2)
H84 H 0.549(2) 0.502(2) -0.2758(14)
O16 O 0.8748(3) 0.0415(2) -0.55431(13)
H82 H 0.843(3) 0.094(2) -0.563(2)
H89 H 0.880(3) 0.012(4) -0.5915(16)
O17 O 0.7049(5) 0.3391(4) -0.71639(18)
H77 H 0.640(2) 0.293(2) -0.7221(16)
H78 H 0.721(3) 0.364(3) -0.6796(12)
O18 O 0.9913(3) 0.1633(2) -0.25873(15)
H66 H 0.925(3) 0.177(3) -0.2602(17)
H67 H 1.015(3) 0.125(2) -0.2276(13)
O19 O 0.6462(4) 0.3906(3) -0.15680(16)
H65 H 0.610(2) 0.3305(18) -0.1769(14)
H87 H 0.667(3) 0.353(3) -0.1228(16)
O20 O 0.6216(3) 0.5379(2) -0.06610(15)
H81 H 0.626(4) 0.491(4) -0.042(2)
H92 H 0.587(4) 0.493(3) -0.0983(19)
O21 O 0.3786(3) 0.5109(3) -0.10671(16)
H75 H 0.3519(19) 0.539(3) -0.1482(9)
H94 H 0.374(4) 0.552(3) -0.0759(12)
O22 O 0.4447(3) 0.5585(3) -0.21936(15)
H90 H 0.4005(19) 0.5501(18) -0.2518(11)
H91 H 0.480(2) 0.515(3) -0.1931(11)
O23 O 0.6162(2) 0.6058(2) -0.47720(13)
H79 H 0.561(2) 0.591(3) -0.4613(16)
H80 H 0.595(3) 0.567(3) -0.5123(13)
O24 O 0.5534(2) 0.4700(2) -0.58556(12)
H73 H 0.524(3) 0.482(3) -0.6246(11)
H95 H 0.597(3) 0.427(3) -0.590(2)
loop_
_geom_bond_atom_site_label_1
_geom_bond_atom_site_label_2
_geom_bond_site_symmetry_1
_geom_bond_site_symmetry_2
C1 H1 1_555 1_555
C2 H2 1_555 1_555
C3 C2 1_555 1_555
H3 C3 1_555 1_555
C4 H4 1_555 1_555
H5 C4 1_555 1_555
C5 C4 1_555 1_555
H6 C5 1_555 1_555
H7 C5 1_555 1_555
C6 C5 1_555 1_555
H8 C6 1_555 1_555
H9 C6 1_555 1_555
C7 C6 1_555 1_555
H10 C7 1_555 1_555
H11 C7 1_555 1_555
C8 H12 1_555 1_555
C9 H13 1_555 1_555
C10 C9 1_555 1_555
H14 C10 1_555 1_555
C11 H15 1_555 1_555
C12 H16 1_555 1_555
C13 C12 1_555 1_555
H17 C13 1_555 1_555
C14 H18 1_555 1_555
H19 C14 1_555 1_555
C15 C14 1_555 1_555
H20 C15 1_555 1_555
H21 C15 1_555 1_555
C16 C15 1_555 1_555
H22 C16 1_555 1_555
H23 C16 1_555 1_555
C17 C16 1_555 1_555
H24 C17 1_555 1_555
H25 C17 1_555 1_555
C18 H26 1_555 1_555
C19 H27 1_555 1_555
C20 C19 1_555 1_555
H28 C20 1_555 1_555
C21 H29 1_555 1_555
C22 H30 1_555 1_555
C23 C22 1_555 1_555
H31 C23 1_555 1_555
C24 H32 1_555 1_555
H33 C24 1_555 1_555
C25 C24 1_555 1_555
H34 C25 1_555 1_555
H35 C25 1_555 1_555
C26 H36 1_555 1_555
C27 H37 1_555 1_555
C28 C27 1_555 1_555
H38 C28 1_555 1_555
C29 H39 1_555 1_555
H40 C29 1_555 1_555
C30 C29 1_555 1_555
H41 C30 1_555 1_555
H42 C30 1_555 1_555
C31 C30 1_555 1_555
H43 C31 1_555 1_555
H44 C31 1_555 1_555
C32 C31 1_555 1_555
H45 C32 1_555 1_555
H46 C32 1_555 1_555
C33 H47 1_555 1_555
C34 H48 1_555 1_555
C35 C34 1_555 1_555
H49 C35 1_555 1_555
C36 H50 1_555 1_555
C37 H51 1_555 1_555
C38 C37 1_555 1_555
H52 C38 1_555 1_555
C39 H53 1_555 1_555
H54 C39 1_555 1_555
C40 C39 1_555 1_555
H55 C40 1_555 1_555
H56 C40 1_555 1_555
C41 C42 1_555 1_555
C42 C43 1_555 1_555
C43 H57 1_555 1_555
C44 C43 1_555 1_555
H58 C44 1_555 1_555
C45 C44 1_555 1_555
C46 C45 1_555 1_555
C47 C45 1_555 1_555
H59 C47 1_555 1_555
C48 C42 1_555 1_555
H60 C48 1_555 1_555
C49 C50 1_555 1_555
C50 C51 1_555 1_555
C51 H61 1_555 1_555
C52 C51 1_555 1_555
H62 C52 1_555 1_555
C53 C52 1_555 1_555
C54 C53 1_555 1_555
C55 C53 1_555 1_555
H63 C55 1_555 1_555
C56 C50 1_555 1_555
H64 C56 1_555 1_555
N1 C1 1_555 1_555
N2 C1 1_555 1_555
N3 C7 1_555 1_555
N4 C8 1_555 1_555
N5 C11 1_555 1_555
N6 C11 1_555 1_555
N7 C17 1_555 1_555
N8 C18 1_555 1_555
N9 C21 1_555 1_555
N10 C21 1_555 1_555
N11 C36 1_555 1_555
N12 C36 1_555 1_555
N13 C26 1_555 1_555
N14 C26 1_555 1_555
N15 C32 1_555 1_555
N16 C33 1_555 1_555
O1 C41 1_555 1_555
O2 C41 1_555 1_555
O3 C46 1_555 1_555
O4 C46 1_555 1_555
O5 C54 1_555 1_555
O6 C54 1_555 1_555
O7 C49 1_555 1_555
O8 C49 1_555 1_555
O9 Cu1 1_555 1_555
O10 Cu2 1_555 1_555
O11 H68 1_555 1_555
O12 H76 1_555 1_555
O13 H71 1_555 1_555
O14 H69 1_555 1_555
O15 H83 1_555 1_555
O16 H82 1_555 1_555
O17 H77 1_555 1_555
O18 H66 1_555 1_555
O19 H65 1_555 1_555
O20 H81 1_555 1_555
O21 H75 1_555 1_555
O22 H90 1_555 1_555
O23 H79 1_555 1_555
O24 H73 1_555 1_555
Cu1 N1 1_555 1_555
Cu2 N4 1_555 1_555
H67 O18 1_555 1_555
H70 O14 1_555 1_555
H72 O13 1_555 1_555
H74 O10 1_555 1_555
H78 O17 1_555 1_555
H80 O23 1_555 1_555
H84 O15 1_555 1_555
H85 O9 1_555 1_555
H86 O9 1_555 1_555
H87 O19 1_555 1_555
H88 O12 1_555 1_555
H89 O16 1_555 1_555
H91 O22 1_555 1_555
H92 O20 1_555 1_555
H93 O10 1_555 1_555
H94 O21 1_555 1_555
H95 O24 1_555 1_555
H96 O11 1_555 1_555
C1A H1A 1_555 1_555
C2A H2A 1_555 1_555
C3A C2A 1_555 1_555
H3A C3A 1_555 1_555
C4A H4A 1_555 1_555
H5A C4A 1_555 1_555
C5A C4A 1_555 1_555
H6A C5A 1_555 1_555
H7A C5A 1_555 1_555
C6A C5A 1_555 1_555
H8A C6A 1_555 1_555
H9A C6A 1_555 1_555
C7A C6A 1_555 1_555
H10A C7A 1_555 1_555
H11A C7A 1_555 1_555
C8A H12A 1_555 1_555
C9A H13A 1_555 1_555
C10A C9A 1_555 1_555
H14A C10A 1_555 1_555
C11A H15A 1_555 1_555
C12A H16A 1_555 1_555
C13A C12A 1_555 1_555
H17A C13A 1_555 1_555
C14A H18A 1_555 1_555
H19A C14A 1_555 1_555
C15A C14A 1_555 1_555
H20A C15A 1_555 1_555
H21A C15A 1_555 1_555
C16A C15A 1_555 1_555
H22A C16A 1_555 1_555
H23A C16A 1_555 1_555
C17A C16A 1_555 1_555
H24A C17A 1_555 1_555
H25A C17A 1_555 1_555
C18A H26A 1_555 1_555
C19A H27A 1_555 1_555
C20A C19A 1_555 1_555
H28A C20A 1_555 1_555
C21A H29A 1_555 1_555
C22A H30A 1_555 1_555
C23A C22A 1_555 1_555
H31A C23A 1_555 1_555
C24A H32A 1_555 1_555
H33A C24A 1_555 1_555
C25A C25 1_555 1_555
H34A C25A 1_555 1_555
H35A C25A 1_555 1_555
C26A H36A 1_555 1_555
C27A H37A 1_555 1_555
C28A C27A 1_555 1_555
H38A C28A 1_555 1_555
C29A H39A 1_555 1_555
H40A C29A 1_555 1_555
C30A C29A 1_555 1_555
H41A C30A 1_555 1_555
H42A C30A 1_555 1_555
C31A C30A 1_555 1_555
H43A C31A 1_555 1_555
H44A C31A 1_555 1_555
C32A C31A 1_555 1_555
H45A C32A 1_555 1_555
H46A C32A 1_555 1_555
C33A H47A 1_555 1_555
C34A H48A 1_555 1_555
C35A C34A 1_555 1_555
H49A C35A 1_555 1_555
C36A H50A 1_555 1_555
C37A H51A 1_555 1_555
C38A C37A 1_555 1_555
H52A C38A 1_555 1_555
C39A H53A 1_555 1_555
H54A C39A 1_555 1_555
C40A C40 1_555 1_555
H55A C40A 1_555 1_555
H56A C40A 1_555 1_555
N1A C1A 1_555 1_555
N2A C1A 1_555 1_555
N3A C7A 1_555 1_555
N4A C8A 1_555 1_555
N5A C11A 1_555 1_555
N6A C11A 1_555 1_555
N7A C17A 1_555 1_555
N8A Cu1 1_555 1_555
N9A C21A 1_555 1_555
N9A_2 Cu1A 1_555 1_555
N10A C21A 1_555 1_555
N11A C36A 1_555 1_555
N11A_2 Cu2A 1_555 1_555
N12A C36A 1_555 1_555
N13A C26A 1_555 1_555
N13A_2 Cu2A 1_555 1_555
N14A C26A 1_555 1_555
N15A C32A 1_555 1_555
N16A Cu2 1_555 1_555
N16_2 Cu2A 1_555 1_555
O9A Cu1A 1_555 1_555
O10A Cu2A 1_555 1_555
Cu1A N8 1_555 1_555
Cu1A_2 N9A 1_555 1_555
Cu2A N4A 1_555 1_555
Cu2A_2 N16 1_555 1_555
Cu2A_3 N11A 1_555 1_555
H74A O10A 1_555 1_555
H85A O9A 1_555 1_555
H86A O9A 1_555 1_555
H93A O10A 1_555 1_555
C2 N1 1_555 1_555
C3 N2 1_555 1_555
C4 N2 1_555 1_555
C8 N3 1_555 1_555
C9 N4 1_555 1_555
C10 N3 1_555 1_555
C12 N5 1_555 1_555
C13 N6 1_555 1_555
C14 N6 1_555 1_555
C18 N7 1_555 1_555
C19 N8 1_555 1_555
C20 N7 1_555 1_555
C22 N9 1_555 1_555
C23 N10 1_555 1_555
C24 N10 1_555 1_555
C27 N13 1_555 1_555
C28 N14 1_555 1_555
C29 N14 1_555 1_555
C33 N15 1_555 1_555
C34 N16 1_555 1_555
C35 N15 1_555 1_555
C37 N11 1_555 1_555
C38 N12 1_555 1_555
C39 N12 1_555 1_555
C47 C48 1_555 1_555
C55 C56 1_555 1_555
N5 Cu1 1_555 1_555
N9 Cu1 1_555 1_555
N11 Cu2 1_555 1_555
N13 Cu2 1_555 1_555
C2A N1A 1_555 1_555
C3A N2A 1_555 1_555
C4A N2A 1_555 1_555
C8A N3A 1_555 1_555
C9A N4A 1_555 1_555
C10A N3A 1_555 1_555
C12A N5A 1_555 1_555
C13A N6A 1_555 1_555
C14A N6A 1_555 1_555
C18A N7A 1_555 1_555
C18A N8A 1_555 1_555
C19A N8A 1_555 1_555
C20A N7A 1_555 1_555
C22A N9A 1_555 1_555
C23A N10A 1_555 1_555
C24A C25A 1_555 1_555
C24A N10A 1_555 1_555
C27A N13A 1_555 1_555
C28A N14A 1_555 1_555
C29A N14A 1_555 1_555
C33A N15A 1_555 1_555
C33A N16A 1_555 1_555
C34A N16A 1_555 1_555
C35A N15A 1_555 1_555
C37A N11A 1_555 1_555
C38A N12A 1_555 1_555
C39A C40A 1_555 1_555
C39A N12A 1_555 1_555
N1A Cu1A 1_555 1_555
N5A Cu1A 1_555 1_555
N13A Cu2A_2 1_555 1_555

#END
