
#######################################################################
#
#                 Cambridge Crystallographic Data Centre
#                                CCDC 
#
#######################################################################
#
# If this CIF has been generated from an entry in the Cambridge 
# Structural Database, then it will include bibliographic, chemical, 
# crystal, experimental, refinement or atomic coordinate data resulting 
# from the CCDC's data processing and validation procedures.
#
#######################################################################

data_LEDWOH
_symmetry_cell_setting           monoclinic
_symmetry_space_group_name_H-M   'P 21/n'
_symmetry_Int_Tables_number      14
_space_group_name_Hall           '-P 2yn'
loop_
_symmetry_equiv_pos_site_id
_symmetry_equiv_pos_as_xyz
1 x,y,z
2 1/2-x,1/2+y,1/2-z
3 -x,-y,-z
4 1/2+x,1/2-y,1/2+z
_cell_length_a                   12.5447(9)
_cell_length_b                   10.5573(7)
_cell_length_c                   12.9994(9)
_cell_angle_alpha                90
_cell_angle_beta                 108.001(2)
_cell_angle_gamma                90
_cell_volume                     1637.35
loop_
_atom_site_label
_atom_site_type_symbol
_atom_site_fract_x
_atom_site_fract_y
_atom_site_fract_z
Ag1 Ag 0.462147(7) 0.636399(9) 0.198434(7)
N1 N 0.58412(10) 0.78265(11) 0.32843(9)
N2 N 0.91828(8) 1.03389(10) 0.37512(8)
H1 H 0.9499 0.9576 0.4026
H2 H 0.9112 1.0813 0.4320
N3 N 0.35783(9) 0.80119(10) 0.08769(9)
N4 N 0.17144(9) 1.05915(10) 0.22999(8)
H3 H 0.2264 1.1196 0.2392
H4 H 0.2041 0.9893 0.2696
C1 C 0.66238(11) 0.84204(12) 0.29542(11)
H5 H 0.6758 0.8119 0.2317
C2 C 0.72507(10) 0.94455(12) 0.34814(10)
C3 C 0.70627(11) 0.98695(12) 0.44291(10)
H6 H 0.7478 1.0561 0.4823
C4 C 0.62625(11) 0.92652(13) 0.47832(11)
H7 H 0.6120 0.9537 0.5425
C5 C 0.56708(12) 0.82597(14) 0.41913(11)
H8 H 0.5118 0.7857 0.4439
C6 C 0.80582(10) 1.00985(13) 0.29991(10)
H9 H 0.8135 0.9573 0.2395
H10 H 0.7727 1.0918 0.2690
C7 C 0.27442(12) 0.85506(12) 0.11630(11)
H11 H 0.2483 0.8128 0.1684
C8 C 0.22380(10) 0.96899(12) 0.07431(10)
C9 C 0.26268(11) 1.03002(12) -0.00139(10)
H12 H 0.2309 1.1084 -0.0318
C10 C 0.34863(11) 0.97526(13) -0.03226(10)
H13 H 0.3764 1.0157 -0.0841
C11 C 0.39329(11) 0.86119(12) 0.01331(10)
H14 H 0.4515 0.8238 -0.0089
C12 C 0.13246(11) 1.02299(13) 0.11470(10)
H15 H 0.1003 1.0985 0.0710
H16 H 0.0719 0.9594 0.1035
Ag1A Ag 1.037853(7) 1.136399(9) 0.301566(7)
Ag1A_2 Ag 0.037853(7) 1.136399(9) 0.301566(7)
N2A N 0.58172(8) 0.53389(10) 0.12488(8)
H1A H 0.5501 0.4576 0.0974
H2A H 0.5888 0.5813 0.0680
N4A N 0.32856(9) 0.55915(10) 0.27001(8)
H3A H 0.2736 0.6196 0.2608
H4A H 0.2959 0.4893 0.2304
O1 O 0.29895(8) 0.28745(9) 0.16433(8)
O2 O 0.42160(8) 0.30653(9) 0.06965(7)
C13 C 0.39072(11) 0.27461(11) 0.14783(10)
C14 C 0.48156(11) 0.20596(13) 0.24009(11)
F1 F 0.4551(8) 0.0892(8) 0.2576(12)
F2 F 0.5000(11) 0.2662(15) 0.3365(7)
F3 F 0.5810(7) 0.2030(16) 0.2260(10)
C15? C 0.48156(11) 0.20596(13) 0.24009(11)
F4? F 0.4641(17) 0.209(2) 0.3330(9)
F5? F 0.5834(8) 0.2489(17) 0.2544(15)
F6? F 0.4864(14) 0.0843(6) 0.2139(12)
C16? C 0.48156(11) 0.20596(13) 0.24009(11)
F7? F 0.4400(16) 0.156(3) 0.312(2)
F8? F 0.563(3) 0.282(3) 0.292(2)
F9? F 0.526(3) 0.110(3) 0.2032(11)
loop_
_geom_bond_atom_site_label_1
_geom_bond_atom_site_label_2
_geom_bond_site_symmetry_1
_geom_bond_site_symmetry_2
Ag1 N1 1_555 1_555
O1 C13 1_555 1_555
O2 C13 1_555 1_555
N1 C1 1_555 1_555
N2 H1 1_555 1_555
H2 N2 1_555 1_555
N3 Ag1 1_555 1_555
N4 H3 1_555 1_555
H4 N4 1_555 1_555
C1 H5 1_555 1_555
C2 C1 1_555 1_555
C3 C2 1_555 1_555
H6 C3 1_555 1_555
C4 C3 1_555 1_555
H7 C4 1_555 1_555
C5 N1 1_555 1_555
H8 C5 1_555 1_555
C6 N2 1_555 1_555
H9 C6 1_555 1_555
H10 C6 1_555 1_555
C7 N3 1_555 1_555
H11 C7 1_555 1_555
C8 C7 1_555 1_555
C9 C8 1_555 1_555
H12 C9 1_555 1_555
C10 C9 1_555 1_555
H13 C10 1_555 1_555
C11 N3 1_555 1_555
H14 C11 1_555 1_555
C12 N4 1_555 1_555
H15 C12 1_555 1_555
H16 C12 1_555 1_555
C13 C14 1_555 1_555
C14 F1 1_555 1_555
F2 C14 1_555 1_555
F3 C14 1_555 1_555
Ag1A N2 1_555 1_555
Ag1A_2 N4 1_555 1_555
N2A Ag1 1_555 1_555
H1A N2A 1_555 1_555
H2A N2A 1_555 1_555
N4A Ag1 1_555 1_555
H3A N4A 1_555 1_555
H4A N4A 1_555 1_555
C2 C6 1_555 1_555
C4 C5 1_555 1_555
C8 C12 1_555 1_555
C10 C11 1_555 1_555

#END
