
#######################################################################
#
#                 Cambridge Crystallographic Data Centre
#                                CCDC 
#
#######################################################################
#
# If this CIF has been generated from an entry in the Cambridge 
# Structural Database, then it will include bibliographic, chemical, 
# crystal, experimental, refinement or atomic coordinate data resulting 
# from the CCDC's data processing and validation procedures.
#
#######################################################################

data_LEGGOU
_symmetry_cell_setting           monoclinic
_symmetry_space_group_name_H-M   'P 21/n'
_symmetry_Int_Tables_number      14
_space_group_name_Hall           '-P 2yn'
loop_
_symmetry_equiv_pos_site_id
_symmetry_equiv_pos_as_xyz
1 x,y,z
2 1/2-x,1/2+y,1/2-z
3 -x,-y,-z
4 1/2+x,1/2-y,1/2+z
_cell_length_a                   10.192(2)
_cell_length_b                   17.764(4)
_cell_length_c                   24.437(5)
_cell_angle_alpha                90
_cell_angle_beta                 91.19(3)
_cell_angle_gamma                90
_cell_volume                     4423.38
loop_
_atom_site_label
_atom_site_type_symbol
_atom_site_fract_x
_atom_site_fract_y
_atom_site_fract_z
Zn1 Zn -0.38811(5) 0.39737(3) 0.03810(2)
Zn2 Zn 0.11253(5) 0.43746(3) 0.16669(2)
Zn3 Zn 0.13066(4) 0.24458(3) 0.12818(2)
Zn4 Zn -0.35137(5) 0.10195(3) 0.22525(2)
Zn5 Zn 0.14532(5) 0.04929(3) 0.09530(2)
N1 N -0.0353(4) 0.3930(2) 0.12225(16)
N2 N -0.0303(3) 0.3205(2) 0.10308(16)
N3 N -0.2151(3) 0.3732(2) 0.07278(16)
N4 N -0.0131(4) 0.1662(2) 0.14801(17)
N5 N -0.0122(4) 0.0915(2) 0.13282(17)
N6 N -0.1904(4) 0.1129(2) 0.18088(17)
N7 N -0.7284(4) 0.3990(2) 0.12960(16)
N8 N -0.7250(3) 0.3255(2) 0.11264(16)
N9 N -0.5508(3) 0.3833(2) 0.08061(16)
N10 N 0.2909(4) 0.1700(2) 0.15601(16)
N11 N 0.2919(4) 0.0955(2) 0.14194(18)
N12 N 0.4738(4) 0.1190(2) 0.18961(17)
C1 C -0.1455(4) 0.4222(3) 0.1037(2)
H1 H -0.1725 0.4711 0.1111
C2 C -0.1390(4) 0.3110(3) 0.0738(2)
H2 H -0.1609 0.2665 0.0558
C3 C -0.1212(4) 0.1767(3) 0.1760(2)
H3 H -0.1462 0.2228 0.1906
C4 C -0.1185(5) 0.0620(3) 0.1533(2)
H4 H -0.1418 0.0117 0.1494
C5 C -0.6184(4) 0.3188(2) 0.08405(19)
H5 H -0.5924 0.2741 0.0678
C6 C -0.6236(4) 0.4314(3) 0.1099(2)
H6 H -0.6021 0.4817 0.1155
C7 C 0.4010(4) 0.1816(2) 0.18344(19)
H7 H 0.4262 0.2283 0.1972
C8 C 0.4019(5) 0.0673(3) 0.1627(3)
H8 H 0.4267 0.0172 0.1590
C9 C -0.4226(4) 0.1644(3) -0.25292(18)
C10 C -0.4493(4) 0.2013(3) -0.19909(18)
C11 C -0.4605(5) 0.1593(3) -0.15194(19)
H9 H -0.4680 0.1072 -0.1540
C12 C -0.4481(5) 0.2793(3) -0.1961(2)
H10 H -0.4458 0.3078 -0.2280
C13 C -0.4504(5) 0.3145(3) -0.1457(2)
H11 H -0.4518 0.3668 -0.1438
C14 C -0.4606(5) 0.1950(3) -0.1012(2)
H12 H -0.4673 0.1668 -0.0693
C15 C -0.4506(4) 0.2730(3) -0.0984(2)
C16 C -0.4318(4) 0.3105(3) -0.0436(2)
C17 C 0.1775(4) 0.1557(3) 0.01442(19)
C18 C 0.2016(4) 0.1882(3) -0.04147(19)
C19 C 0.2107(5) 0.2658(3) -0.0467(2)
H13 H 0.2150 0.2959 -0.0155
C20 C 0.2024(5) 0.1431(3) -0.0879(2)
H14 H 0.2010 0.0909 -0.0848
C21 C 0.2052(6) 0.1768(3) -0.1389(2)
H15 H 0.2065 0.1466 -0.1699
C22 C 0.2134(5) 0.2986(3) -0.0981(2)
H16 H 0.2201 0.3506 -0.1013
C23 C 0.2061(5) 0.2540(3) -0.1449(2)
C24 C 0.1893(5) 0.2912(4) -0.2003(2)
C25 C 0.1009(4) 0.5804(3) 0.1226(2)
C26 C 0.1120(4) 0.6640(3) 0.12404(18)
C27 C 0.1269(5) 0.7019(3) 0.1738(2)
H17 H 0.1330 0.6746 0.2062
C28 C 0.1076(5) 0.7056(3) 0.0759(2)
H18 H 0.0993 0.6811 0.0424
C29 C 0.1326(5) 0.7793(3) 0.1753(2)
H19 H 0.1392 0.8040 0.2088
C30 C 0.1284(4) 0.8205(3) 0.1271(2)
C31 C 0.1156(5) 0.7831(3) 0.0775(2)
H20 H 0.1124 0.8105 0.0450
C32 C 0.1360(5) 0.9051(3) 0.1302(3)
O1 O -0.4312(3) 0.09279(18) -0.25701(13)
O2 O -0.3868(3) 0.20404(19) -0.29157(14)
O3 O -0.4113(4) 0.2728(2) -0.00174(15)
O4 O -0.4313(3) 0.3835(2) -0.04197(14)
O5 O 0.1490(4) 0.1998(2) 0.05103(15)
O6 O 0.1826(4) 0.0849(2) 0.02050(15)
O7 O 0.1886(4) 0.3631(3) -0.20033(16)
O8 O 0.1719(4) 0.2532(3) -0.24210(17)
O9 O 0.1244(4) 0.54650(17) 0.16856(15)
O10 O 0.0710(4) 0.54774(19) 0.07962(16)
O11 O 0.1465(4) 0.94038(19) 0.08543(19)
O12 O 0.1278(6) 0.9368(2) 0.1745(2)
O13 O -0.3642(3) 0.51132(19) 0.03970(16)
O14 O -0.3510(4) -0.0112(2) 0.23270(18)
Zn2_2 Zn -0.88747(5) 0.43746(3) 0.16669(2)
Zn2C Zn -0.38747(5) 0.06254(3) -0.33331(2)
Zn3_2 Zn -0.86934(4) 0.24458(3) 0.12818(2)
Zn3C Zn -0.36934(4) 0.25542(3) -0.37182(2)
Zn4_2 Zn 0.64863(5) 0.10195(3) 0.22525(2)
Zn4C Zn 0.14863(5) 0.39805(3) -0.27475(2)
Zn5_2 Zn 0.14532(5) 1.04929(3) 0.09530(2)
N7_2 N 0.2716(4) 0.3990(2) 0.12960(16)
N8_2 N 0.2750(3) 0.3255(2) 0.11264(16)
N12_2 N -0.5262(4) 0.1190(2) 0.18961(17)
O1C O 0.0688(3) 0.40721(18) 0.24299(13)
O2C O 0.1132(3) 0.29596(19) 0.20843(14)
O7C O -0.3114(4) 0.1369(3) 0.29967(16)
O11_2 O 0.1465(4) -0.05962(19) 0.08543(19)
O15 O 0.8603(4) 0.5605(2) 0.99941(17)
O16 O 0.1259(7) 0.0348(4) 0.2648(3)
O17 O 0.8876(12) 1.0123(7) 0.3199(6)
O18 O 0.8419(16) 0.9025(7) 0.2757(6)
O19 O 0.688(3) 0.1159(11) 0.0288(8)
O20 O 0.588(2) 0.0009(9) 0.0391(10)
loop_
_geom_bond_atom_site_label_1
_geom_bond_atom_site_label_2
_geom_bond_site_symmetry_1
_geom_bond_site_symmetry_2
Zn1 N3 1_555 1_555
Zn2 N1 1_555 1_555
Zn3 N2 1_555 1_555
Zn4 N6 1_555 1_555
Zn5 N5 1_555 1_555
N1 N2 1_555 1_555
N2 C2 1_555 1_555
N3 C1 1_555 1_555
N4 Zn3 1_555 1_555
N5 N4 1_555 1_555
N6 C3 1_555 1_555
N7 N8 1_555 1_555
N8 C5 1_555 1_555
N9 Zn1 1_555 1_555
N10 Zn3 1_555 1_555
N11 Zn5 1_555 1_555
N12 C7 1_555 1_555
C1 N1 1_555 1_555
H1 C1 1_555 1_555
C2 N3 1_555 1_555
H2 C2 1_555 1_555
C3 N4 1_555 1_555
H3 C3 1_555 1_555
C4 N5 1_555 1_555
H4 C4 1_555 1_555
C5 N9 1_555 1_555
H5 C5 1_555 1_555
C6 N7 1_555 1_555
H6 C6 1_555 1_555
C7 N10 1_555 1_555
H7 C7 1_555 1_555
C8 N11 1_555 1_555
H8 C8 1_555 1_555
C9 C10 1_555 1_555
C10 C11 1_555 1_555
C11 H9 1_555 1_555
C12 C10 1_555 1_555
H10 C12 1_555 1_555
C13 C12 1_555 1_555
H11 C13 1_555 1_555
C14 C11 1_555 1_555
H12 C14 1_555 1_555
C15 C13 1_555 1_555
C16 C15 1_555 1_555
C17 C18 1_555 1_555
C18 C19 1_555 1_555
C19 H13 1_555 1_555
C20 C18 1_555 1_555
H14 C20 1_555 1_555
C21 C20 1_555 1_555
H15 C21 1_555 1_555
C22 C19 1_555 1_555
H16 C22 1_555 1_555
C23 C21 1_555 1_555
C24 C23 1_555 1_555
C25 C26 1_555 1_555
C26 C27 1_555 1_555
C27 H17 1_555 1_555
C28 C26 1_555 1_555
H18 C28 1_555 1_555
C29 C27 1_555 1_555
H19 C29 1_555 1_555
C30 C29 1_555 1_555
C31 C28 1_555 1_555
H20 C31 1_555 1_555
C32 C30 1_555 1_555
O1 C9 1_555 1_555
O2 C9 1_555 1_555
O3 C16 1_555 1_555
O4 Zn1 1_555 1_555
O5 Zn3 1_555 1_555
O6 Zn5 1_555 1_555
O7 C24 1_555 1_555
O8 C24 1_555 1_555
O9 Zn2 1_555 1_555
O10 C25 1_555 1_555
O11 C32 1_555 1_555
O12 C32 1_555 1_555
O13 Zn1 1_555 1_555
O14 Zn4 1_555 1_555
Zn2_2 N7 1_555 1_555
Zn2C O1 1_555 1_555
Zn3_2 N8 1_555 1_555
Zn3C O2 1_555 1_555
Zn4_2 N12 1_555 1_555
Zn4C O7 1_555 1_555
Zn5_2 O11 1_555 1_555
N7_2 Zn2 1_555 1_555
N8_2 Zn3 1_555 1_555
N12_2 Zn4 1_555 1_555
O1C Zn2 1_555 1_555
O2C Zn3 1_555 1_555
O7C Zn4 1_555 1_555
O11_2 Zn5 1_555 1_555
N6 C4 1_555 1_555
N9 C6 1_555 1_555
N10 N11 1_555 1_555
N12 C8 1_555 1_555
C14 C15 1_555 1_555
C16 O4 1_555 1_555
C17 O5 1_555 1_555
C17 O6 1_555 1_555
C22 C23 1_555 1_555
C25 O9 1_555 1_555
C30 C31 1_555 1_555
N7_2 N8_2 1_555 1_555

#END
