
#######################################################################
#
#                 Cambridge Crystallographic Data Centre
#                                CCDC 
#
#######################################################################
#
# If this CIF has been generated from an entry in the Cambridge 
# Structural Database, then it will include bibliographic, chemical, 
# crystal, experimental, refinement or atomic coordinate data resulting 
# from the CCDC's data processing and validation procedures.
#
#######################################################################

data_LEGNUH
_symmetry_cell_setting           monoclinic
_symmetry_space_group_name_H-M   'P 21/n'
_symmetry_Int_Tables_number      14
_space_group_name_Hall           '-P 2yn'
loop_
_symmetry_equiv_pos_site_id
_symmetry_equiv_pos_as_xyz
1 x,y,z
2 1/2-x,1/2+y,1/2-z
3 -x,-y,-z
4 1/2+x,1/2-y,1/2+z
_cell_length_a                   13.7830(3)
_cell_length_b                   9.9060(2)
_cell_length_c                   17.7972(4)
_cell_angle_alpha                90
_cell_angle_beta                 109.6155(11)
_cell_angle_gamma                90
_cell_volume                     2288.91
loop_
_atom_site_label
_atom_site_type_symbol
_atom_site_fract_x
_atom_site_fract_y
_atom_site_fract_z
Sn1 Sn 0.743980(11) 0.610155(15) 0.294225(9)
O1 O 0.76795(13) 0.41675(17) 0.21553(10)
O2 O 0.76806(13) 0.26698(15) 0.12334(10)
O3 O 1.09234(18) 0.5906(2) 0.16119(15)
H1 H 1.033(3) 0.580(3) 0.136(2)
N1 N 0.91846(15) 0.4800(2) 0.07095(13)
C1 C 0.76378(16) 0.3889(2) 0.14635(14)
C2 C 0.74746(19) 0.4985(2) 0.08429(15)
H2 H 0.7682 0.5861 0.1118
H3 H 0.6731 0.5039 0.0530
C3 C 0.80748(18) 0.4770(3) 0.02684(15)
H4 H 0.7885 0.3889 -0.0004
H5 H 0.7896 0.5488 -0.0142
C4 C 0.97042(19) 0.3761(3) 0.06696(15)
H6 H 0.9358 0.3023 0.0351
C5 C 1.08084(19) 0.3651(2) 0.10911(15)
C6 C 1.1375(2) 0.4725(3) 0.15441(16)
C7 C 1.2434(2) 0.4589(3) 0.19331(16)
H7 H 1.2821 0.5322 0.2230
C8 C 1.2919(2) 0.3384(3) 0.18851(17)
H8 H 1.3638 0.3291 0.2157
C9 C 1.2366(2) 0.2310(3) 0.14444(17)
H9 H 1.2704 0.1487 0.1413
C10 C 1.1326(2) 0.2450(3) 0.10546(17)
H10 H 1.0949 0.1714 0.0753
C11 C 0.89034(18) 0.6726(3) 0.28816(15)
H11 H 0.8932 0.6502 0.2347
H12 H 0.8964 0.7719 0.2946
C12 C 0.9814(2) 0.6066(3) 0.35135(19)
H13 H 0.9711 0.5076 0.3487
H14 H 1.0448 0.6259 0.3389
C13 C 0.9967(2) 0.6539(3) 0.43594(18)
H15 H 0.9316 0.6412 0.4470
H16 H 1.0498 0.5967 0.4738
C14 C 1.0292(3) 0.8003(4) 0.45058(19)
H17 H 1.0936 0.8139 0.4396
H18 H 1.0396 0.8235 0.5063
H19 H 0.9754 0.8581 0.4153
C15 C 0.75199(19) 0.4477(2) 0.37627(14)
H20 H 0.7087 0.3730 0.3458
H21 H 0.8239 0.4146 0.3958
C16 C 0.7199(2) 0.4749(3) 0.44878(15)
H22 H 0.7364 0.3946 0.4839
H23 H 0.7609 0.5514 0.4791
C17 C 0.6060(2) 0.5076(3) 0.42838(17)
H24 H 0.5926 0.5298 0.4782
H25 H 0.5897 0.5887 0.3939
C18 C 0.5346(2) 0.3941(3) 0.3864(2)
H26 H 0.5406 0.3793 0.3337
H27 H 0.4634 0.4184 0.3803
H28 H 0.5535 0.3113 0.4180
C19 C 0.60276(18) 0.6423(3) 0.19814(15)
H29 H 0.6189 0.6958 0.1568
H30 H 0.5776 0.5532 0.1744
C20 C 0.51378(18) 0.7125(3) 0.21554(15)
H31 H 0.5368 0.8024 0.2390
H32 H 0.4942 0.6589 0.2552
C21 C 0.41967(19) 0.7294(3) 0.14022(16)
H33 H 0.4408 0.7769 0.0993
H34 H 0.3940 0.6390 0.1190
C22 C 0.3326(2) 0.8077(3) 0.15459(18)
H35 H 0.3120 0.7621 0.1957
H36 H 0.2737 0.8122 0.1050
H37 H 0.3561 0.8994 0.1724
Sn1A Sn 0.756020(11) 0.110155(15) 0.205775(9)
O2A O 0.73194(13) 0.76698(15) 0.37666(10)
loop_
_geom_bond_atom_site_label_1
_geom_bond_atom_site_label_2
_geom_bond_site_symmetry_1
_geom_bond_site_symmetry_2
Sn1 O1 1_555 1_555
O1 C1 1_555 1_555
O2 C1 1_555 1_555
O3 H1 1_555 1_555
N1 C3 1_555 1_555
C1 C2 1_555 1_555
C2 H2 1_555 1_555
H3 C2 1_555 1_555
C3 C2 1_555 1_555
H4 C3 1_555 1_555
H5 C3 1_555 1_555
C4 N1 1_555 1_555
H6 C4 1_555 1_555
C5 C4 1_555 1_555
C6 O3 1_555 1_555
C7 C6 1_555 1_555
H7 C7 1_555 1_555
C8 C7 1_555 1_555
H8 C8 1_555 1_555
C9 C8 1_555 1_555
H9 C9 1_555 1_555
C10 C5 1_555 1_555
H10 C10 1_555 1_555
C11 Sn1 1_555 1_555
H11 C11 1_555 1_555
H12 C11 1_555 1_555
C12 C11 1_555 1_555
H13 C12 1_555 1_555
H14 C12 1_555 1_555
C13 C12 1_555 1_555
H15 C13 1_555 1_555
H16 C13 1_555 1_555
C14 C13 1_555 1_555
H17 C14 1_555 1_555
H18 C14 1_555 1_555
H19 C14 1_555 1_555
C15 Sn1 1_555 1_555
H20 C15 1_555 1_555
H21 C15 1_555 1_555
C16 C15 1_555 1_555
H22 C16 1_555 1_555
H23 C16 1_555 1_555
C17 C16 1_555 1_555
H24 C17 1_555 1_555
H25 C17 1_555 1_555
C18 C17 1_555 1_555
H26 C18 1_555 1_555
H27 C18 1_555 1_555
H28 C18 1_555 1_555
C19 Sn1 1_555 1_555
H29 C19 1_555 1_555
H30 C19 1_555 1_555
C20 C19 1_555 1_555
H31 C20 1_555 1_555
H32 C20 1_555 1_555
C21 C20 1_555 1_555
H33 C21 1_555 1_555
H34 C21 1_555 1_555
C22 C21 1_555 1_555
H35 C22 1_555 1_555
H36 C22 1_555 1_555
H37 C22 1_555 1_555
Sn1A O2 1_555 1_555
O2A Sn1 1_555 1_555
C5 C6 1_555 1_555
C9 C10 1_555 1_555

#END
