
#######################################################################
#
#                 Cambridge Crystallographic Data Centre
#                                CCDC 
#
#######################################################################
#
# If this CIF has been generated from an entry in the Cambridge 
# Structural Database, then it will include bibliographic, chemical, 
# crystal, experimental, refinement or atomic coordinate data resulting 
# from the CCDC's data processing and validation procedures.
#
#######################################################################

data_LEGNOB
_symmetry_cell_setting           monoclinic
_symmetry_space_group_name_H-M   'P c'
_symmetry_Int_Tables_number      7
_space_group_name_Hall           'P -2yc'
loop_
_symmetry_equiv_pos_site_id
_symmetry_equiv_pos_as_xyz
1 x,y,z
2 x,-y,1/2+z
_cell_length_a                   9.8671(1)
_cell_length_b                   10.0853(1)
_cell_length_c                   24.7096(3)
_cell_angle_alpha                90
_cell_angle_beta                 102.4277(6)
_cell_angle_gamma                90
_cell_volume                     2401.3
loop_
_atom_site_label
_atom_site_type_symbol
_atom_site_fract_x
_atom_site_fract_y
_atom_site_fract_z
Sn1 Sn 0.553411(16) 0.45452(2) 0.435761(10)
O1 O 0.5504(2) 0.2463(2) 0.46257(10)
O2 O 0.4214(3) 0.2937(2) 0.52357(11)
O3 O 0.1324(3) -0.0055(3) 0.34773(13)
H1 H 0.209(6) -0.014(6) 0.379(3)
N1 N 0.3826(3) 0.0036(3) 0.40753(13)
C1 C 0.4774(3) 0.2114(3) 0.49719(14)
C2 C 0.4632(4) 0.0643(3) 0.50587(15)
H2 H 0.3689 0.0463 0.5120
H3 H 0.5305 0.0377 0.5399
C3 C 0.4867(4) -0.0208(4) 0.45806(16)
H4 H 0.5799 -0.0019 0.4511
H5 H 0.4840 -0.1155 0.4683
C4 C 0.4220(4) 0.0549(3) 0.36652(16)
H6 H 0.5178 0.0737 0.3697
C5 C 0.3250(4) 0.0859(4) 0.31476(15)
C6 C 0.1833(4) 0.0545(4) 0.30764(17)
C7 C 0.0927(4) 0.0849(5) 0.25750(19)
H7 H -0.0022 0.0600 0.2515
C8 C 0.1415(5) 0.1516(5) 0.21644(18)
H8 H 0.0786 0.1743 0.1829
C9 C 0.2803(5) 0.1860(5) 0.22325(18)
H9 H 0.3124 0.2322 0.1949
C10 C 0.3712(4) 0.1514(4) 0.27228(16)
H10 H 0.4668 0.1727 0.2771
C11 C 0.3337(3) 0.4697(3) 0.41676(14)
C12 C 0.2607(4) 0.5645(4) 0.43975(15)
H11 H 0.3099 0.6261 0.4658
C13 C 0.1168(4) 0.5704(4) 0.42519(17)
H12 H 0.0688 0.6356 0.4415
C14 C 0.0427(4) 0.4824(4) 0.38721(18)
H13 H -0.0557 0.4868 0.3771
C15 C 0.1139(4) 0.3881(4) 0.36422(19)
H14 H 0.0642 0.3267 0.3382
C16 C 0.2578(4) 0.3819(4) 0.37863(16)
H15 H 0.3052 0.3164 0.3621
C17 C 0.6376(3) 0.3840(3) 0.36838(14)
C18 C 0.7332(4) 0.2804(3) 0.37537(16)
H16 H 0.7625 0.2406 0.4108
C19 C 0.7867(4) 0.2341(4) 0.33083(18)
H17 H 0.8506 0.1624 0.3361
C20 C 0.7470(4) 0.2922(4) 0.27906(18)
H18 H 0.7860 0.2627 0.2492
C21 C 0.6498(4) 0.3940(4) 0.27095(16)
H19 H 0.6204 0.4330 0.2353
C22 C 0.5956(4) 0.4387(4) 0.31539(15)
H20 H 0.5287 0.5079 0.3095
C23 C 0.6858(3) 0.5134(4) 0.51210(14)
C24 C 0.6902(4) 0.6456(4) 0.52991(15)
H21 H 0.6401 0.7114 0.5062
C25 C 0.7676(4) 0.6817(4) 0.58215(17)
H22 H 0.7676 0.7711 0.5943
C26 C 0.8437(4) 0.5874(5) 0.61586(17)
H23 H 0.8969 0.6118 0.6512
C27 C 0.8430(4) 0.4572(4) 0.59842(17)
H24 H 0.8963 0.3926 0.6217
C28 C 0.7647(4) 0.4201(4) 0.54690(16)
H25 H 0.7650 0.3303 0.5353
Sn2 Sn 0.305757(17) 0.29934(2) 0.599445(10)
O4 O 0.1980(3) 0.6884(2) 0.16612(11)
O5 O 0.3747(3) 0.5642(3) 0.20918(12)
O6 O 0.5388(2) 0.6621(2) 0.40234(10)
N2 N 0.3311(3) 0.7221(3) 0.31899(13)
H26 H 0.358(5) 0.692(5) 0.348(2)
C29 C 0.2590(4) 0.6100(4) 0.20552(14)
C30 C 0.1764(4) 0.5844(4) 0.25003(16)
H27 H 0.2126 0.5043 0.2715
H28 H 0.0777 0.5687 0.2324
C31 C 0.1881(4) 0.7033(4) 0.28874(15)
H29 H 0.1275 0.6896 0.3154
H30 H 0.1560 0.7840 0.2669
C32 C 0.4249(4) 0.7830(3) 0.29927(15)
H31 H 0.3962 0.8253 0.2643
C33 C 0.5671(4) 0.7917(3) 0.32542(14)
C34 C 0.6226(3) 0.7276(3) 0.37687(14)
C35 C 0.7667(4) 0.7368(4) 0.39865(16)
H32 H 0.8063 0.6951 0.4329
C36 C 0.8501(4) 0.8062(4) 0.37044(18)
H33 H 0.9468 0.8121 0.3857
C37 C 0.7953(4) 0.8682(4) 0.31963(18)
H34 H 0.8545 0.9147 0.3005
C38 C 0.6568(4) 0.8609(4) 0.29812(16)
H35 H 0.6195 0.9035 0.2638
C39 C 0.1378(3) 0.1828(3) 0.55412(16)
C40 C 0.1122(4) 0.1715(4) 0.49668(16)
H36 H 0.1674 0.2199 0.4764
C41 C 0.0064(4) 0.0896(5) 0.46869(17)
H37 H -0.0096 0.0817 0.4295
C42 C -0.0747(4) 0.0205(5) 0.4976(2)
H38 H -0.1464 -0.0357 0.4783
C43 C -0.0530(4) 0.0319(4) 0.5541(2)
H39 H -0.1107 -0.0150 0.5738
C44 C 0.0534(4) 0.1121(4) 0.58276(17)
H40 H 0.0689 0.1188 0.6220
C45 C 0.4797(4) 0.1824(4) 0.63842(15)
C46 C 0.6149(4) 0.2280(4) 0.64422(18)
H41 H 0.6310 0.3186 0.6370
C47 C 0.7274(4) 0.1422(5) 0.66057(18)
H42 H 0.8194 0.1742 0.6641
C48 C 0.7045(4) 0.0112(4) 0.67163(17)
H43 H 0.7811 -0.0473 0.6822
C49 C 0.5720(4) -0.0356(4) 0.66747(15)
H44 H 0.5567 -0.1257 0.6757
C50 C 0.4595(4) 0.0506(4) 0.65095(15)
H45 H 0.3678 0.0185 0.6483
C51 C 0.2939(4) 0.5059(3) 0.58346(14)
C52 C 0.4082(4) 0.5892(4) 0.58700(15)
H46 H 0.4995 0.5537 0.5962
C53 C 0.3885(4) 0.7244(4) 0.57703(18)
H47 H 0.4668 0.7804 0.5791
C54 C 0.2570(5) 0.7783(4) 0.56413(18)
H48 H 0.2450 0.8707 0.5573
C55 C 0.1436(5) 0.6976(4) 0.56119(19)
H49 H 0.0528 0.7343 0.5530
C56 C 0.1622(4) 0.5606(4) 0.57032(18)
H50 H 0.0834 0.5049 0.5674
Sn2A Sn 0.305757(17) 0.70066(2) 0.099445(10)
O4A O 0.1980(3) 0.3116(2) 0.66612(11)
loop_
_geom_bond_atom_site_label_1
_geom_bond_atom_site_label_2
_geom_bond_site_symmetry_1
_geom_bond_site_symmetry_2
Sn1 O1 1_555 1_555
O1 C1 1_555 1_555
O2 C1 1_555 1_555
O3 H1 1_555 1_555
N1 C3 1_555 1_555
C1 C2 1_555 1_555
C2 H2 1_555 1_555
H3 C2 1_555 1_555
C3 C2 1_555 1_555
H4 C3 1_555 1_555
H5 C3 1_555 1_555
C4 N1 1_555 1_555
H6 C4 1_555 1_555
C5 C4 1_555 1_555
C6 O3 1_555 1_555
C7 C6 1_555 1_555
H7 C7 1_555 1_555
C8 C7 1_555 1_555
H8 C8 1_555 1_555
C9 C8 1_555 1_555
H9 C9 1_555 1_555
C10 C5 1_555 1_555
H10 C10 1_555 1_555
C11 Sn1 1_555 1_555
C12 C11 1_555 1_555
H11 C12 1_555 1_555
C13 C12 1_555 1_555
H12 C13 1_555 1_555
C14 C13 1_555 1_555
H13 C14 1_555 1_555
C15 C14 1_555 1_555
H14 C15 1_555 1_555
C16 C11 1_555 1_555
H15 C16 1_555 1_555
C17 Sn1 1_555 1_555
C18 C17 1_555 1_555
H16 C18 1_555 1_555
C19 C18 1_555 1_555
H17 C19 1_555 1_555
C20 C19 1_555 1_555
H18 C20 1_555 1_555
C21 C20 1_555 1_555
H19 C21 1_555 1_555
C22 C17 1_555 1_555
H20 C22 1_555 1_555
C23 Sn1 1_555 1_555
C24 C23 1_555 1_555
H21 C24 1_555 1_555
C25 C24 1_555 1_555
H22 C25 1_555 1_555
C26 C25 1_555 1_555
H23 C26 1_555 1_555
C27 C26 1_555 1_555
H24 C27 1_555 1_555
C28 C23 1_555 1_555
H25 C28 1_555 1_555
Sn2 O2 1_555 1_555
O4 C29 1_555 1_555
O5 C29 1_555 1_555
O6 Sn1 1_555 1_555
N2 H26 1_555 1_555
C29 C30 1_555 1_555
C30 H27 1_555 1_555
H28 C30 1_555 1_555
C31 N2 1_555 1_555
H29 C31 1_555 1_555
H30 C31 1_555 1_555
C32 N2 1_555 1_555
H31 C32 1_555 1_555
C33 C32 1_555 1_555
C34 O6 1_555 1_555
C35 C34 1_555 1_555
H32 C35 1_555 1_555
C36 C35 1_555 1_555
H33 C36 1_555 1_555
C37 C36 1_555 1_555
H34 C37 1_555 1_555
C38 C33 1_555 1_555
H35 C38 1_555 1_555
C39 Sn2 1_555 1_555
C40 C39 1_555 1_555
H36 C40 1_555 1_555
C41 C40 1_555 1_555
H37 C41 1_555 1_555
C42 C41 1_555 1_555
H38 C42 1_555 1_555
C43 C42 1_555 1_555
H39 C43 1_555 1_555
C44 C39 1_555 1_555
H40 C44 1_555 1_555
C45 Sn2 1_555 1_555
C46 C45 1_555 1_555
H41 C46 1_555 1_555
C47 C46 1_555 1_555
H42 C47 1_555 1_555
C48 C47 1_555 1_555
H43 C48 1_555 1_555
C49 C48 1_555 1_555
H44 C49 1_555 1_555
C50 C45 1_555 1_555
H45 C50 1_555 1_555
C51 Sn2 1_555 1_555
C52 C51 1_555 1_555
H46 C52 1_555 1_555
C53 C52 1_555 1_555
H47 C53 1_555 1_555
C54 C53 1_555 1_555
H48 C54 1_555 1_555
C55 C54 1_555 1_555
H49 C55 1_555 1_555
C56 C51 1_555 1_555
H50 C56 1_555 1_555
Sn2A O4 1_555 1_555
O4A Sn2 1_555 1_555
C5 C6 1_555 1_555
C9 C10 1_555 1_555
C15 C16 1_555 1_555
C21 C22 1_555 1_555
C27 C28 1_555 1_555
C30 C31 1_555 1_555
C33 C34 1_555 1_555
C37 C38 1_555 1_555
C43 C44 1_555 1_555
C49 C50 1_555 1_555
C55 C56 1_555 1_555

#END
