
#######################################################################
#
#                 Cambridge Crystallographic Data Centre
#                                CCDC 
#
#######################################################################
#
# If this CIF has been generated from an entry in the Cambridge 
# Structural Database, then it will include bibliographic, chemical, 
# crystal, experimental, refinement or atomic coordinate data resulting 
# from the CCDC's data processing and validation procedures.
#
#######################################################################

data_LEGREU
_symmetry_cell_setting           triclinic
_symmetry_space_group_name_H-M   'P -1'
_symmetry_Int_Tables_number      2
_space_group_name_Hall           '-P 1'
loop_
_symmetry_equiv_pos_site_id
_symmetry_equiv_pos_as_xyz
1 x,y,z
2 -x,-y,-z
_cell_length_a                   5.8990(3)
_cell_length_b                   6.7985(5)
_cell_length_c                   10.8212(6)
_cell_angle_alpha                78.999(5)
_cell_angle_beta                 81.831(5)
_cell_angle_gamma                82.971(5)
_cell_volume                     419.649
loop_
_atom_site_label
_atom_site_type_symbol
_atom_site_fract_x
_atom_site_fract_y
_atom_site_fract_z
O1 O 0.9326(3) 0.2656(3) 0.2684(2)
O2 O 1.2407(3) 0.3253(3) 0.3474(2)
O3 O 1.3947(3) 0.3852(2) -0.3815(2)
O4 O 1.4117(3) 0.0639(2) -0.3841(2)
O5 O 0.8955(4) 0.2667(6) 0.5516(3)
C1 C 1.1400(4) 0.2968(3) 0.2576(2)
C2 C 1.2778(5) 0.3118(5) 0.1280(3)
C3 C 1.1804(5) 0.2283(4) 0.0294(2)
C4 C 1.3172(4) 0.2655(4) -0.1006(2)
C5 C 1.2187(5) 0.1777(4) -0.1980(3)
C6 C 1.3495(4) 0.2105(3) -0.3283(2)
Ca1 Ca 0.60354(6) 0.26438(6) 0.42025(4)
H1 H 1.294(6) 0.459(5) 0.102(3)
H2 H 1.415(6) 0.256(5) 0.140(3)
H3 H 1.169(5) 0.081(5) 0.056(3)
H4 H 1.027(5) 0.297(5) 0.025(3)
H5 H 1.337(5) 0.415(5) -0.136(3)
H6 H 1.475(8) 0.214(6) -0.101(4)
H7 H 1.220(6) 0.041(6) -0.168(3)
H8 H 1.089(6) 0.234(5) -0.209(4)
H9 H 0.911(2) 0.139(2) 0.538(1)
H10 H 1.05(1) 0.303(8) 0.485(5)
Ca1_2 Ca 1.60354(6) 0.26438(6) 0.42025(4)
Ca1_3 Ca 1.60354(6) 0.26438(6) -0.57975(4)
Ca1A Ca 1.39646(6) 0.73562(6) -0.42025(4)
Ca1A_2 Ca 1.39646(6) -0.26438(6) -0.42025(4)
O2_2 O 0.2407(3) 0.3253(3) 0.3474(2)
O3_2 O 0.3947(3) 0.3852(2) 0.6185(2)
O3A O 0.6053(3) 0.6148(2) 0.3815(2)
O4_2 O 0.4117(3) 0.0639(2) 0.6159(2)
O4A O 0.5883(3) -0.0639(2) 0.3841(2)
loop_
_geom_bond_atom_site_label_1
_geom_bond_atom_site_label_2
_geom_bond_site_symmetry_1
_geom_bond_site_symmetry_2
O1 C1 1_555 1_555
O2 C1 1_555 1_555
O3 C6 1_555 1_555
O4 C6 1_555 1_555
O5 Ca1 1_555 1_555
C1 C2 1_555 1_555
C2 C3 1_555 1_555
C3 C4 1_555 1_555
C4 C5 1_555 1_555
C5 C6 1_555 1_555
Ca1 O1 1_555 1_555
H1 C2 1_555 1_555
H2 C2 1_555 1_555
H3 C3 1_555 1_555
H4 C3 1_555 1_555
H5 C4 1_555 1_555
H6 C4 1_555 1_555
H7 C5 1_555 1_555
H8 C5 1_555 1_555
H9 O5 1_555 1_555
H10 O5 1_555 1_555
Ca1_2 O2 1_555 1_555
Ca1_3 O3 1_555 1_555
Ca1A O3 1_555 1_555
Ca1A_2 O4 1_555 1_555
O2_2 Ca1 1_555 1_555
O3_2 Ca1 1_555 1_555
O3A Ca1 1_555 1_555
O4_2 Ca1 1_555 1_555
O4A Ca1 1_555 1_555
O4 Ca1_3 1_555 1_555

#END
