
#######################################################################
#
#                 Cambridge Crystallographic Data Centre
#                                CCDC 
#
#######################################################################
#
# If this CIF has been generated from an entry in the Cambridge 
# Structural Database, then it will include bibliographic, chemical, 
# crystal, experimental, refinement or atomic coordinate data resulting 
# from the CCDC's data processing and validation procedures.
#
#######################################################################

data_LEHCIL
_symmetry_cell_setting           triclinic
_symmetry_space_group_name_H-M   'P -1'
_symmetry_Int_Tables_number      2
_space_group_name_Hall           '-P 1'
loop_
_symmetry_equiv_pos_site_id
_symmetry_equiv_pos_as_xyz
1 x,y,z
2 -x,-y,-z
_cell_length_a                   11.762(4)
_cell_length_b                   12.687(4)
_cell_length_c                   13.226(4)
_cell_angle_alpha                75.635(6)
_cell_angle_beta                 88.918(6)
_cell_angle_gamma                71.647(5)
_cell_volume                     1810.92
loop_
_atom_site_label
_atom_site_type_symbol
_atom_site_fract_x
_atom_site_fract_y
_atom_site_fract_z
Eu1 Eu 0.87333(5) 0.18590(4) 0.70545(4)
Eu2 Eu 0.92966(5) 0.16886(4) 0.20847(4)
N1 N 0.6894(9) 0.3787(7) 0.6581(6)
N2 N 0.9215(10) 0.3815(8) 0.6558(7)
N3 N 0.9372(8) 0.3753(7) 0.1582(6)
N4 N 0.7243(8) 0.3330(8) 0.1695(6)
O1 O 0.8777(6) 0.2415(5) 0.5192(5)
O2 O 0.8496(6) 0.2095(6) 0.3640(5)
O3 O 0.7190(6) 0.1520(5) 0.6068(5)
H1 H 0.6442 0.1538 0.6321
O4 O 0.9521(6) 0.0008(5) 0.6474(5)
O5 O 0.8956(7) -0.1538(6) 0.6743(5)
O6 O 0.8749(6) 0.2473(6) 0.8603(5)
O7 O 0.8558(6) 0.2063(6) 1.0344(5)
O8 O 0.7142(6) 0.1584(5) 0.8246(5)
H2 H 0.6386 0.1625 0.8009
O9 O 0.9498(6) 0.0028(5) 0.8537(5)
O10 O 0.8908(6) -0.1515(5) 0.9033(5)
O11 O 1.0826(7) 0.1331(6) 0.7143(6)
O12 O 1.1969(6) -0.0543(6) 0.7627(5)
O13 O 1.5431(11) 0.0820(13) 0.8124(10)
O14 O 1.5398(12) 0.0893(14) 0.6532(8)
C1 C 0.5759(13) 0.3812(10) 0.6600(9)
H3 H 0.5618 0.3112 0.6827
C2 C 0.4771(12) 0.4781(10) 0.6313(9)
H4 H 0.4001 0.4724 0.6333
C3 C 0.4936(15) 0.5806(11) 0.6004(10)
H5 H 0.4277 0.6471 0.5820
C4 C 0.6105(15) 0.5878(12) 0.5955(9)
C5 C 0.6413(17) 0.6927(12) 0.5706(13)
H6 H 0.5794 0.7624 0.5541
C6 C 0.7525(19) 0.6945(13) 0.5700(12)
H7 H 0.7667 0.7645 0.5499
C7 C 0.8512(15) 0.5914(10) 0.5995(9)
C8 C 0.9722(15) 0.5901(12) 0.6008(9)
H8 H 0.9903 0.6584 0.5832
C9 C 1.0599(13) 0.4890(13) 0.6277(9)
H9 H 1.1397 0.4865 0.6287
C10 C 1.0310(11) 0.3858(10) 0.6549(8)
H10 H 1.0939 0.3168 0.6731
C11 C 0.8313(13) 0.4822(11) 0.6291(8)
C12 C 0.7094(13) 0.4817(10) 0.6302(8)
C13 C 1.0408(11) 0.3954(9) 0.1520(8)
H11 H 1.1102 0.3321 0.1673
C14 C 1.0545(12) 0.5061(11) 0.1236(8)
H12 H 1.1301 0.5150 0.1207
C15 C 0.9513(13) 0.6001(11) 0.1005(8)
H13 H 0.9554 0.6745 0.0817
C16 C 0.8393(13) 0.5800(10) 0.1062(8)
C17 C 0.7278(16) 0.6714(11) 0.0793(10)
H14 H 0.7294 0.7463 0.0559
C18 C 0.6187(15) 0.6534(12) 0.0864(11)
H15 H 0.5483 0.7155 0.0728
C19 C 0.6135(12) 0.5381(11) 0.1150(9)
C20 C 0.5063(13) 0.5138(11) 0.1220(9)
H16 H 0.4332 0.5728 0.1082
C21 C 0.5098(12) 0.4018(12) 0.1495(9)
H17 H 0.4388 0.3840 0.1525
C22 C 0.6182(11) 0.3150(10) 0.1729(8)
H18 H 0.6175 0.2396 0.1922
C23 C 0.7216(11) 0.4460(10) 0.1404(8)
C24 C 0.8360(10) 0.4657(8) 0.1335(7)
C25 C 0.8345(9) 0.1976(7) 0.4594(8)
C26 C 0.7523(9) 0.1294(8) 0.5077(7)
H19 H 0.6793 0.1558 0.4615
C27 C 0.8087(9) -0.0031(8) 0.5240(7)
H20 H 0.7453 -0.0375 0.5284
H21 H 0.8542 -0.0187 0.4645
C28 C 0.8892(9) -0.0556(8) 0.6213(7)
C29 C 0.8353(8) 0.2000(7) 0.9445(7)
C30 C 0.7483(9) 0.1359(8) 0.9323(7)
H22 H 0.6762 0.1653 0.9684
C31 C 0.8018(10) 0.0055(8) 0.9805(7)
H23 H 0.8451 -0.0083 1.0466
H24 H 0.7373 -0.0276 0.9940
C32 C 0.8847(9) -0.0513(9) 0.9090(8)
C33 C 1.1799(11) 0.0532(10) 0.7359(8)
C34 C 1.2924(13) 0.0868(11) 0.7267(12)
H25 H 1.2817 0.1649 0.7025
C35 C 1.3965(14) 0.0232(13) 0.7475(12)
H26 H 1.4089 -0.0553 0.7697
C36 C 1.5073(12) 0.0622(13) 0.7399(12)
Eu1A Eu 1.12667(5) -0.18590(4) 0.29455(4)
Eu2A Eu 1.07034(5) -0.16886(4) 0.79153(4)
Eu2_2 Eu 0.92966(5) 0.16886(4) 1.20847(4)
O4A O 1.0479(6) -0.0008(5) 0.3526(5)
O5A O 1.1044(7) 0.1538(6) 0.3257(5)
O7_2 O 0.8558(6) 0.2063(6) 0.0344(5)
O9A O 1.0502(6) -0.0028(5) 0.1463(5)
O10A O 1.1092(6) 0.1515(5) 0.0967(5)
O12A O 0.8031(6) 0.0543(6) 0.2373(5)
C28A C 1.1108(9) 0.0556(8) 0.3787(7)
C32A C 1.1153(9) 0.0513(9) 0.0910(8)
O15 O 0.6589(15) -0.2018(15) 0.8007(15)
O16? O 1.479(2) -0.9316(15) 1.0073(18)
O17? O 0.495(6) 0.982(6) 0.528(3)
loop_
_geom_bond_atom_site_label_1
_geom_bond_atom_site_label_2
_geom_bond_site_symmetry_1
_geom_bond_site_symmetry_2
Eu1 N1 1_555 1_555
Eu2 N3 1_555 1_555
N1 C1 1_555 1_555
N2 Eu1 1_555 1_555
N3 C13 1_555 1_555
N4 Eu2 1_555 1_555
O1 Eu1 1_555 1_555
O2 Eu2 1_555 1_555
O3 Eu1 1_555 1_555
H1 O3 1_555 1_555
O4 Eu1 1_555 1_555
O5 C28 1_555 1_555
O6 Eu1 1_555 1_555
O7 C29 1_555 1_555
O8 Eu1 1_555 1_555
H2 O8 1_555 1_555
O9 Eu1 1_555 1_555
O10 C32 1_555 1_555
O11 Eu1 1_555 1_555
O12 C33 1_555 1_555
O13 C36 1_555 1_555
O14 C36 1_555 1_555
C1 H3 1_555 1_555
C2 C1 1_555 1_555
H4 C2 1_555 1_555
C3 C2 1_555 1_555
H5 C3 1_555 1_555
C4 C3 1_555 1_555
C5 C4 1_555 1_555
H6 C5 1_555 1_555
C6 C5 1_555 1_555
H7 C6 1_555 1_555
C7 C6 1_555 1_555
C8 C7 1_555 1_555
H8 C8 1_555 1_555
C9 C8 1_555 1_555
H9 C9 1_555 1_555
C10 N2 1_555 1_555
H10 C10 1_555 1_555
C11 N2 1_555 1_555
C12 N1 1_555 1_555
C13 H11 1_555 1_555
C14 C13 1_555 1_555
H12 C14 1_555 1_555
C15 C14 1_555 1_555
H13 C15 1_555 1_555
C16 C15 1_555 1_555
C17 C16 1_555 1_555
H14 C17 1_555 1_555
C18 C17 1_555 1_555
H15 C18 1_555 1_555
C19 C18 1_555 1_555
C20 C19 1_555 1_555
H16 C20 1_555 1_555
C21 C20 1_555 1_555
H17 C21 1_555 1_555
C22 N4 1_555 1_555
H18 C22 1_555 1_555
C23 N4 1_555 1_555
C24 N3 1_555 1_555
C25 O1 1_555 1_555
C26 O3 1_555 1_555
H19 C26 1_555 1_555
C27 C26 1_555 1_555
H20 C27 1_555 1_555
H21 C27 1_555 1_555
C28 O4 1_555 1_555
C29 O6 1_555 1_555
C30 O8 1_555 1_555
H22 C30 1_555 1_555
C31 C30 1_555 1_555
H23 C31 1_555 1_555
H24 C31 1_555 1_555
C32 O9 1_555 1_555
C33 O11 1_555 1_555
C34 C33 1_555 1_555
H25 C34 1_555 1_555
C35 C34 1_555 1_555
H26 C35 1_555 1_555
C36 C35 1_555 1_555
Eu1A Eu2 1_555 1_555
Eu2A Eu1 1_555 1_555
Eu2_2 O7 1_555 1_555
O4A Eu2 1_555 1_555
O5A Eu2 1_555 1_555
O7_2 Eu2 1_555 1_555
O9A Eu2 1_555 1_555
O10A Eu2 1_555 1_555
O12A Eu2 1_555 1_555
C28A O4A 1_555 1_555
C32A O9A 1_555 1_555
O2 C25 1_555 1_555
O4 Eu2A 1_555 1_555
O5 Eu2A 1_555 1_555
O9 Eu2A 1_555 1_555
O10 Eu2A 1_555 1_555
O12 Eu2A 1_555 1_555
C4 C12 1_555 1_555
C7 C11 1_555 1_555
C9 C10 1_555 1_555
C11 C12 1_555 1_555
C16 C24 1_555 1_555
C19 C23 1_555 1_555
C21 C22 1_555 1_555
C23 C24 1_555 1_555
C25 C26 1_555 1_555
C27 C28 1_555 1_555
C29 C30 1_555 1_555
C31 C32 1_555 1_555
Eu1A O4A 1_555 1_555
Eu1A O9A 1_555 1_555
O5A C28A 1_555 1_555
O10A C32A 1_555 1_555

#END
