
#######################################################################
#
#                 Cambridge Crystallographic Data Centre
#                                CCDC 
#
#######################################################################
#
# If this CIF has been generated from an entry in the Cambridge 
# Structural Database, then it will include bibliographic, chemical, 
# crystal, experimental, refinement or atomic coordinate data resulting 
# from the CCDC's data processing and validation procedures.
#
#######################################################################

data_LEHHIR
_symmetry_cell_setting           monoclinic
_symmetry_space_group_name_H-M   'P 21'
_symmetry_Int_Tables_number      4
_space_group_name_Hall           'P 2yb'
loop_
_symmetry_equiv_pos_site_id
_symmetry_equiv_pos_as_xyz
1 x,y,z
2 -x,1/2+y,-z
_cell_length_a                   9.3257(19)
_cell_length_b                   9.1312(18)
_cell_length_c                   11.652(2)
_cell_angle_alpha                90
_cell_angle_beta                 101.344(4)
_cell_angle_gamma                90
_cell_volume                     972.84
loop_
_atom_site_label
_atom_site_type_symbol
_atom_site_fract_x
_atom_site_fract_y
_atom_site_fract_z
Br1 Br 0.78647(11) 0.15671(12) 1.36696(9)
C1 C 0.9844(6) 0.3672(6) 1.1234(3)
C2 C 0.9014(6) 0.2688(5) 1.1738(4)
C3 C 0.8909(6) 0.2844(6) 1.2905(4)
C4 C 0.9634(6) 0.3984(7) 1.3568(3)
H1 H 0.9595 0.4095 1.4322
C5 C 1.0464(6) 0.4968(6) 1.3064(4)
H2 H 1.0956 0.5725 1.3513
C6 C 1.0569(6) 0.4812(6) 1.1896(4)
H3 H 1.1103 0.5453 1.1582
C7 C 0.9925(10) 0.3554(11) 0.9975(8)
C8 C 0.8249(10) 0.1429(14) 1.0972(8)
H4 H 0.8339 0.0584 1.1486
H5 H 0.8795 0.1215 1.0365
C9 C 0.6697(10) 0.1577(12) 1.0473(8)
C10 C 1.4900(9) 0.3415(11) 0.7781(7)
H6 H 1.5714 0.3723 0.8322
C11 C 1.4933(11) 0.3408(11) 0.6554(8)
H7 H 1.5784 0.3712 0.6321
C12 C 1.3785(8) 0.2859(10) 0.5800(7)
C13 C 1.2515(10) 0.2495(11) 0.6235(8)
H8 H 1.1689 0.2156 0.5723
C14 C 1.2516(11) 0.2538(12) 0.7434(7)
H9 H 1.1700 0.2206 0.7705
C15 C 1.3746(8) 0.2923(14) 0.4498(6)
C16 C 1.4478(10) 0.4038(11) 0.4039(8)
H10 H 1.5014 0.4746 0.4514
C17 C 1.4438(11) 0.4024(11) 0.2825(8)
H11 H 1.4953 0.4739 0.2506
C18 C 1.2976(10) 0.2033(13) 0.2613(9)
H12 H 1.2452 0.1331 0.2123
C19 C 1.3039(11) 0.1901(11) 0.3853(9)
H13 H 1.2529 0.1157 0.4142
Cd1 Cd 1.35516(6) 0.30525(7) 1.01349(5)
N1 N 1.3714(7) 0.3032(12) 0.8186(5)
N2 N 1.3662(8) 0.3106(13) 0.2123(6)
O1 O 1.1007(6) 0.3167(10) 0.9680(5)
O2 O 0.8816(8) 0.3873(8) 0.9228(6)
O3 O 0.6015(7) 0.2669(7) 1.0621(5)
O4 O 0.6104(7) 0.0555(8) 0.9904(5)
O5 O 1.3078(7) 0.0660(7) 0.9920(6)
H14 H 1.2159 0.0524 0.9757
H15 H 1.3462 0.0320 0.9372
Cd1_2 Cd 1.35516(6) 0.30525(7) 0.01349(5)
Cd1_3 Cd 0.35516(6) 0.30525(7) 1.01349(5)
Cd1A Cd 0.64484(6) -0.19475(7) 0.98651(5)
N2_2 N 1.3662(8) 0.3106(13) 1.2123(6)
O3_2 O 1.6015(7) 0.2669(7) 1.0621(5)
O4A O 1.3896(7) 0.5555(8) 1.0096(5)
O6 O 0.9272(8) 0.3735(8) 0.7062(5)
H16 H 0.9963 0.3969 0.7624
H17 H 0.8510 0.3716 0.7360
loop_
_geom_bond_atom_site_label_1
_geom_bond_atom_site_label_2
_geom_bond_site_symmetry_1
_geom_bond_site_symmetry_2
Br1 C3 1_555 1_555
C1 C2 1_555 1_555
C2 C3 1_555 1_555
C3 C4 1_555 1_555
C4 H1 1_555 1_555
C5 C4 1_555 1_555
H2 C5 1_555 1_555
C6 C1 1_555 1_555
H3 C6 1_555 1_555
C7 C1 1_555 1_555
C8 C2 1_555 1_555
H4 C8 1_555 1_555
H5 C8 1_555 1_555
C9 C8 1_555 1_555
C10 H6 1_555 1_555
C11 C10 1_555 1_555
H7 C11 1_555 1_555
C12 C11 1_555 1_555
C13 C12 1_555 1_555
H8 C13 1_555 1_555
C14 C13 1_555 1_555
H9 C14 1_555 1_555
C15 C12 1_555 1_555
C16 C15 1_555 1_555
H10 C16 1_555 1_555
C17 C16 1_555 1_555
H11 C17 1_555 1_555
C18 H12 1_555 1_555
C19 C15 1_555 1_555
H13 C19 1_555 1_555
Cd1 N1 1_555 1_555
N1 C10 1_555 1_555
N2 C17 1_555 1_555
O1 C7 1_555 1_555
O2 C7 1_555 1_555
O3 C9 1_555 1_555
O4 C9 1_555 1_555
O5 Cd1 1_555 1_555
H14 O5 1_555 1_555
H15 O5 1_555 1_555
O6 H16 1_555 1_555
H17 O6 1_555 1_555
Cd1_2 N2 1_555 1_555
Cd1_3 O3 1_555 1_555
Cd1A O4 1_555 1_555
N2_2 Cd1 1_555 1_555
O3_2 Cd1 1_555 1_555
O4A Cd1 1_555 1_555
C5 C6 1_555 1_555
C14 N1 1_555 1_555
C18 C19 1_555 1_555
C18 N2 1_555 1_555
Cd1 O1 1_555 1_555

#END
