
#######################################################################
#
#                 Cambridge Crystallographic Data Centre
#                                CCDC 
#
#######################################################################
#
# If this CIF has been generated from an entry in the Cambridge 
# Structural Database, then it will include bibliographic, chemical, 
# crystal, experimental, refinement or atomic coordinate data resulting 
# from the CCDC's data processing and validation procedures.
#
#######################################################################

data_LEHHUD
_symmetry_cell_setting           monoclinic
_symmetry_space_group_name_H-M   'C 2/c'
_symmetry_Int_Tables_number      15
_space_group_name_Hall           '-C 2yn'
loop_
_symmetry_equiv_pos_site_id
_symmetry_equiv_pos_as_xyz
1 x,y,z
2 -x,y,1/2-z
3 1/2+x,1/2+y,z
4 1/2-x,1/2+y,1/2-z
5 -x,-y,-z
6 x,-y,1/2+z
7 1/2-x,1/2-y,-z
8 1/2+x,1/2-y,1/2+z
_cell_length_a                   12.6850(7)
_cell_length_b                   8.6643(5)
_cell_length_c                   28.4015(16)
_cell_angle_alpha                90
_cell_angle_beta                 97.686(1)
_cell_angle_gamma                90
_cell_volume                     3093.47
loop_
_atom_site_label
_atom_site_type_symbol
_atom_site_fract_x
_atom_site_fract_y
_atom_site_fract_z
Yb1 Yb 0.062585(17) 0.17662(3) 0.534835(7)
Ag1 Ag -0.08531(4) 0.52086(5) 0.638040(16)
Ag2 Ag 0.18074(4) -0.21372(5) 0.663980(15)
Ag3 Ag 0.12303(3) 0.14446(5) 0.760030(13)
C1 C 0.1656(4) 0.4861(6) 0.59111(17)
C2 C 0.1594(4) 0.4326(6) 0.64091(16)
C3 C 0.1486(4) 0.4663(6) 0.71522(17)
H1 H 0.1434 0.5143 0.7441
C4 C 0.1601(4) 0.2898(6) 0.66262(17)
C5 C 0.1733(4) 0.1266(6) 0.64641(17)
C6 C -0.0760(4) 0.1879(6) 0.62733(17)
C7 C -0.0744(4) 0.0214(6) 0.64145(16)
C8 C -0.0872(4) -0.1680(6) 0.68906(18)
H2 H -0.0933 -0.2230 0.7167
C9 C -0.0685(4) -0.1163(6) 0.61662(17)
C10 C -0.0598(4) -0.1506(6) 0.56693(17)
O1 O 0.1765(3) 0.6248(4) 0.58442(12)
O2 O 0.1559(3) 0.3874(4) 0.55739(12)
O3 O 0.1588(3) 0.0949(4) 0.60304(12)
O4 O 0.1991(3) 0.0300(4) 0.67886(12)
O5 O -0.1075(3) 0.2825(4) 0.65620(13)
O6 O -0.0463(3) 0.2298(4) 0.58910(12)
O7 O -0.0256(3) -0.0485(4) 0.54003(11)
O8 O -0.0893(3) -0.2776(4) 0.54873(12)
N1 N 0.1517(3) 0.5441(5) 0.67471(14)
N2 N 0.1537(4) 0.3137(5) 0.71038(14)
N3 N -0.0869(3) -0.0151(5) 0.68748(14)
N4 N -0.0780(3) -0.2366(5) 0.64767(14)
O9 O 0.2245(3) 0.0680(5) 0.51848(13)
H3 H 0.275(4) 0.079(8) 0.5390(17)
H4 H 0.249(5) 0.075(8) 0.4936(13)
O10 O -0.0917(4) 0.2942(6) 0.50178(14)
H5 H -0.130(5) 0.298(9) 0.4768(15)
H6 H -0.138(5) 0.331(8) 0.515(3)
Yb1D Yb -0.062585(17) -0.17662(3) 0.465165(7)
Ag1_2 Ag -0.08531(4) -0.47914(5) 0.638040(16)
Ag2_2 Ag 0.18074(4) 0.78628(5) 0.663980(15)
Ag3A Ag -0.12303(3) 0.14446(5) 0.739970(13)
O7D O 0.0256(3) 0.0485(4) 0.45997(11)
O8D O 0.0893(3) 0.2776(4) 0.45127(12)
N1_2 N 0.1517(3) -0.4559(5) 0.67471(14)
N3A N 0.0869(3) -0.0151(5) 0.81252(14)
N4_2 N -0.0780(3) 0.7634(5) 0.64767(14)
loop_
_geom_bond_atom_site_label_1
_geom_bond_atom_site_label_2
_geom_bond_site_symmetry_1
_geom_bond_site_symmetry_2
Yb1 O2 1_555 1_555
Ag1 O5 1_555 1_555
Ag2 O4 1_555 1_555
Ag3 N2 1_555 1_555
C1 C2 1_555 1_555
C2 C4 1_555 1_555
C3 H1 1_555 1_555
C4 C5 1_555 1_555
C5 O3 1_555 1_555
C6 C7 1_555 1_555
C7 C9 1_555 1_555
C8 H2 1_555 1_555
C9 C10 1_555 1_555
C10 O7 1_555 1_555
O1 C1 1_555 1_555
O2 C1 1_555 1_555
O3 Yb1 1_555 1_555
O4 C5 1_555 1_555
O5 C6 1_555 1_555
O6 Yb1 1_555 1_555
O7 Yb1 1_555 1_555
O8 C10 1_555 1_555
N1 C2 1_555 1_555
N2 C3 1_555 1_555
N3 C7 1_555 1_555
N4 C8 1_555 1_555
O9 Yb1 1_555 1_555
H3 O9 1_555 1_555
H4 O9 1_555 1_555
O10 Yb1 1_555 1_555
H5 O10 1_555 1_555
H6 O10 1_555 1_555
Yb1D O7 1_555 1_555
Ag1_2 N4 1_555 1_555
Ag2_2 N1 1_555 1_555
Ag3A N3 1_555 1_555
O7D Yb1 1_555 1_555
O8D Yb1 1_555 1_555
N1_2 Ag2 1_555 1_555
N3A Ag3 1_555 1_555
N4_2 Ag1 1_555 1_555
C3 N1 1_555 1_555
C4 N2 1_555 1_555
C6 O6 1_555 1_555
C8 N3 1_555 1_555
C9 N4 1_555 1_555
O8 Yb1D 1_555 1_555
Yb1D O7D 1_555 1_555

#END
