
#######################################################################
#
#                 Cambridge Crystallographic Data Centre
#                                CCDC 
#
#######################################################################
#
# If this CIF has been generated from an entry in the Cambridge 
# Structural Database, then it will include bibliographic, chemical, 
# crystal, experimental, refinement or atomic coordinate data resulting 
# from the CCDC's data processing and validation procedures.
#
#######################################################################

data_LEHKAM
_symmetry_cell_setting           monoclinic
_symmetry_space_group_name_H-M   'P 21/c'
_symmetry_Int_Tables_number      14
_space_group_name_Hall           '-P 2ybc'
loop_
_symmetry_equiv_pos_site_id
_symmetry_equiv_pos_as_xyz
1 x,y,z
2 -x,1/2+y,1/2-z
3 -x,-y,-z
4 x,1/2-y,1/2+z
_cell_length_a                   11.2699(12)
_cell_length_b                   7.3799(7)
_cell_length_c                   11.8669(15)
_cell_angle_alpha                90
_cell_angle_beta                 95.267(9)
_cell_angle_gamma                90
_cell_volume                     982.812
loop_
_atom_site_label
_atom_site_type_symbol
_atom_site_fract_x
_atom_site_fract_y
_atom_site_fract_z
C1 C 0.2270(3) 0.3902(5) 0.4101(3)
H1 H 0.2189 0.4879 0.3605
C2 C 0.3319(3) 0.2877(5) 0.4182(3)
H2 H 0.3936 0.3209 0.3756
C3 C 0.2541(3) 0.1005(5) 0.5473(3)
H3 H 0.2609 0.0001 0.5948
C4 C 0.1517(3) 0.2024(5) 0.5411(3)
C5 C 0.0473(3) 0.1773(5) 0.6079(3)
N1 N 0.1397(2) 0.3496(4) 0.4721(2)
N2 N 0.3451(2) 0.1431(4) 0.4860(2)
N3 N 0.0314(3) 0.0226(4) 0.6589(3)
H4 H -0.0296 0.0077 0.6965
H5 H 0.0820 -0.0639 0.6547
O1 O -0.0233(2) 0.3090(4) 0.6107(2)
O2 O 0.5178(3) 0.0396(4) 0.3047(2)
H6 H 0.465(3) 0.007(6) 0.255(3)
H7 H 0.562(3) 0.107(5) 0.272(3)
O3 O 0.5887(2) 0.2275(4) 0.5292(2)
H8 H 0.627(4) 0.248(7) 0.5901(17)
H9 H 0.620(3) 0.286(5) 0.481(2)
O4 O 0.3372(2) 0.5564(4) 0.6316(2)
O5 O 0.2000(3) 0.4720(4) 0.7649(2)
O6 O 0.1397(2) 0.6869(4) 0.6196(2)
O7 O 0.2862(2) 0.7724(4) 0.7689(2)
Cu1 Cu 0.0000 0.5000 0.5000
Cu2 Cu 0.5000 0.0000 0.5000
S1 S 0.23960(7) 0.61972(11) 0.69724(6)
C1B C -0.2270(3) 0.6098(5) 0.5899(3)
H1B H -0.2189 0.5121 0.6395
C2B C -0.3319(3) 0.7123(5) 0.5818(3)
H2B H -0.3936 0.6791 0.6244
C3B C -0.2541(3) 0.8995(5) 0.4527(3)
H3B H -0.2609 0.9999 0.4052
C4B C -0.1517(3) 0.7976(5) 0.4589(3)
C5B C -0.0473(3) 0.8227(5) 0.3921(3)
N1B N -0.1397(2) 0.6504(4) 0.5279(2)
N2B N -0.3451(2) 0.8569(4) 0.5140(2)
N2B_2 N 0.6549(2) -0.1431(4) 0.5140(2)
N3B N -0.0314(3) 0.9774(4) 0.3411(3)
H4B H 0.0296 0.9923 0.3035
H5B H -0.0820 1.0639 0.3453
O1B O 0.0233(2) 0.6910(4) 0.3893(2)
O2B O 0.4822(3) -0.0396(4) 0.6953(2)
H6B H 0.535(3) -0.007(6) 0.745(3)
H7B H 0.438(3) -0.107(5) 0.728(3)
O3B O 0.4113(2) -0.2275(4) 0.4708(2)
H8B H 0.373(4) -0.248(7) 0.4099(17)
H9B H 0.380(3) -0.286(5) 0.519(2)
O4B O -0.3372(2) 0.4436(4) 0.3684(2)
O5B O -0.2000(3) 0.5280(4) 0.2351(2)
O6B O -0.1397(2) 0.3131(4) 0.3804(2)
O7B O -0.2862(2) 0.2276(4) 0.2311(2)
Cu2_2 Cu -0.5000 1.0000 0.5000
S1B S -0.23960(7) 0.38028(11) 0.30276(6)
loop_
_geom_bond_atom_site_label_1
_geom_bond_atom_site_label_2
_geom_bond_site_symmetry_1
_geom_bond_site_symmetry_2
C1 H1 1_555 1_555
C2 C1 1_555 1_555
H2 C2 1_555 1_555
C3 H3 1_555 1_555
C4 C3 1_555 1_555
C5 C4 1_555 1_555
N1 C1 1_555 1_555
N2 C2 1_555 1_555
N3 C5 1_555 1_555
H4 N3 1_555 1_555
H5 N3 1_555 1_555
O1 C5 1_555 1_555
O2 H6 1_555 1_555
H7 O2 1_555 1_555
O3 H8 1_555 1_555
H9 O3 1_555 1_555
O4 S1 1_555 1_555
O5 S1 1_555 1_555
O6 Cu1 1_555 1_555
O7 S1 1_555 1_555
Cu1 N1 1_555 1_555
Cu2 N2 1_555 1_555
S1 O6 1_555 1_555
C1B H1B 1_555 1_555
C2B C1B 1_555 1_555
H2B C2B 1_555 1_555
C3B H3B 1_555 1_555
C4B C3B 1_555 1_555
C5B C4B 1_555 1_555
N1B Cu1 1_555 1_555
N2B C2B 1_555 1_555
N2B_2 Cu2 1_555 1_555
N3B C5B 1_555 1_555
H4B N3B 1_555 1_555
H5B N3B 1_555 1_555
O1B Cu1 1_555 1_555
O2B Cu2 1_555 1_555
H6B O2B 1_555 1_555
H7B O2B 1_555 1_555
O3B Cu2 1_555 1_555
H8B O3B 1_555 1_555
H9B O3B 1_555 1_555
O4B S1B 1_555 1_555
O5B S1B 1_555 1_555
O6B Cu1 1_555 1_555
O7B S1B 1_555 1_555
Cu2_2 N2B 1_555 1_555
S1B O6B 1_555 1_555
C3 N2 1_555 1_555
C4 N1 1_555 1_555
O1 Cu1 1_555 1_555
O2 Cu2 1_555 1_555
O3 Cu2 1_555 1_555
C1B N1B 1_555 1_555
C3B N2B 1_555 1_555
C4B N1B 1_555 1_555
C5B O1B 1_555 1_555

#END
