
#######################################################################
#
#                 Cambridge Crystallographic Data Centre
#                                CCDC 
#
#######################################################################
#
# If this CIF has been generated from an entry in the Cambridge 
# Structural Database, then it will include bibliographic, chemical, 
# crystal, experimental, refinement or atomic coordinate data resulting 
# from the CCDC's data processing and validation procedures.
#
#######################################################################

data_LEHNES
_symmetry_cell_setting           triclinic
_symmetry_space_group_name_H-M   'P -1'
_symmetry_Int_Tables_number      2
_space_group_name_Hall           '-P 1'
loop_
_symmetry_equiv_pos_site_id
_symmetry_equiv_pos_as_xyz
1 x,y,z
2 -x,-y,-z
_cell_length_a                   9.2569(7)
_cell_length_b                   12.6338(9)
_cell_length_c                   15.3446(11)
_cell_angle_alpha                82.3830(10)
_cell_angle_beta                 82.7790(10)
_cell_angle_gamma                82.8240(10)
_cell_volume                     1753.88
loop_
_atom_site_label
_atom_site_type_symbol
_atom_site_fract_x
_atom_site_fract_y
_atom_site_fract_z
O21 O -0.1294(3) 0.5147(3) 0.09029(19)
H33 H -0.1928 0.5132 0.1432
H34 H -0.1658 0.5357 0.0331
O22 O 0.0121(4) 0.3673(3) 0.5520(2)
H35 H 0.0806 0.3990 0.5665
H36 H -0.0733 0.4156 0.5567
Cu1 Cu 0.01298(4) 0.25583(3) 0.30367(2)
Cu2 Cu -0.71310(5) 0.50620(3) 0.13620(3)
Cu3 Cu -0.58175(4) 0.67191(3) 0.26064(3)
Cl1 Cl -0.72138(11) 0.53820(8) 0.31867(6)
Cl2 Cl 0.37478(9) 0.12005(7) 0.24899(5)
Cl3 Cl -0.23333(10) 0.49732(7) 0.31085(6)
Cl4 Cl -0.92464(11) 0.86811(8) 0.21656(7)
O1 O 0.1168(2) 0.34406(18) 0.20973(14)
O2 O -0.7903(3) 0.40104(19) 0.07644(15)
O3 O -0.6136(3) 0.63512(19) 0.14574(15)
O4 O -0.5923(3) 0.6307(2) 0.00336(16)
O5 O 0.4656(3) 0.0235(2) 0.2764(2)
O6 O 0.3726(4) 0.1346(3) 0.15626(19)
O7 O 0.4325(3) 0.2125(3) 0.2735(2)
O8 O 0.2301(3) 0.1156(2) 0.29352(19)
O9 O -0.2907(4) 0.5127(3) 0.3993(2)
O10 O -0.0971(3) 0.5411(3) 0.2912(2)
O11 O -0.2125(3) 0.3854(2) 0.2997(2)
O12 O -0.3342(3) 0.5502(2) 0.24989(19)
O13 O -0.7970(4) 0.8240(3) 0.2558(3)
O15 O -0.9873(16) 0.7968(12) 0.1721(6)
O16 O -0.8790(7) 0.9443(5) 0.1427(4)
O17 O -1.0238(4) 0.9254(3) 0.2757(3)
N1 N -0.0976(3) 0.1651(2) 0.39768(18)
N2 N -0.0742(3) 0.1762(2) 0.22308(17)
H1 H -0.0143 0.1130 0.2181
N3 N -0.4651(3) 0.7939(2) 0.20661(19)
H2 H -0.5301 0.8547 0.2117
N4 N -0.5238(3) 0.7073(2) 0.37173(18)
C1 C -0.0831(4) 0.1465(3) 0.4845(2)
H3 H -0.0089 0.1768 0.5060
C2 C -0.1720(5) 0.0853(3) 0.5432(2)
H4 H -0.1591 0.0738 0.6036
C3 C -0.2817(4) 0.0405(3) 0.5115(3)
H5 H -0.3443 -0.0020 0.5502
C4 C -0.2975(4) 0.0591(3) 0.4227(3)
H6 H -0.3715 0.0297 0.4001
C5 C -0.2034(3) 0.1217(3) 0.3666(2)
C6 C -0.2156(4) 0.1467(3) 0.2698(2)
H7 H -0.2424 0.0839 0.2469
H8 H -0.2924 0.2063 0.2595
C7 C -0.0862(4) 0.2297(3) 0.1312(2)
H9 H -0.1516 0.2976 0.1348
C8 C -0.1514(5) 0.1611(3) 0.0749(2)
H10 H -0.2471 0.1446 0.1030
H11 H -0.0875 0.0948 0.0692
H12 H -0.1609 0.2002 0.0168
C9 C 0.0635(4) 0.2573(3) 0.0877(2)
H13 H 0.1307 0.1909 0.0887
H14 H 0.0547 0.2846 0.0256
C10 C 0.1312(3) 0.3379(2) 0.1283(2)
C11 C -0.5744(4) 0.6776(3) 0.0656(2)
C12 C -0.5220(5) 0.7874(4) 0.0546(3)
H15 H -0.4822 0.8039 -0.0073
H16 H -0.6070 0.8401 0.0662
C13 C -0.4086(5) 0.8023(3) 0.1118(2)
H17 H -0.3296 0.7425 0.1049
C14 C -0.3394(5) 0.9063(3) 0.0802(3)
H18 H -0.2645 0.9128 0.1174
H19 H -0.4143 0.9670 0.0836
H20 H -0.2957 0.9049 0.0194
C15 C -0.3560(4) 0.8024(3) 0.2651(2)
H21 H -0.3345 0.8771 0.2600
H22 H -0.2652 0.7580 0.2474
C16 C -0.4102(4) 0.7661(3) 0.3588(2)
C17 C -0.3420(4) 0.7878(3) 0.4288(3)
H23 H -0.2619 0.8286 0.4186
C18 C -0.3931(5) 0.7487(3) 0.5135(3)
H24 H -0.3482 0.7626 0.5617
C19 C -0.5093(5) 0.6897(3) 0.5272(3)
H25 H -0.5457 0.6631 0.5848
C20 C -0.5731(4) 0.6693(3) 0.4545(2)
H26 H -0.6525 0.6280 0.4636
O18 O 0.0964(3) 0.3344(2) 0.38428(16)
H27 H 0.0690 0.3420 0.4372
H28 H 0.1519 0.3817 0.3649
O19 O -0.5362(3) 0.4089(2) 0.15559(16)
H29 H -0.4881 0.3824 0.1134
H30 H -0.5552 0.3475 0.2005
O20 O -0.8927(3) 0.5997(2) 0.12169(17)
H31 H -0.9042 0.6594 0.1454
H32 H -0.9733 0.5646 0.1232
O2_2 O 0.2097(3) 0.40104(19) 0.07644(15)
C10_2 C -0.8688(3) 0.3379(2) 0.1283(2)
O14? O 0.005(3) 0.774(2) 0.2154(13)
loop_
_geom_bond_atom_site_label_1
_geom_bond_atom_site_label_2
_geom_bond_site_symmetry_1
_geom_bond_site_symmetry_2
Cu1 O1 1_555 1_555
Cu2 O2 1_555 1_555
Cu3 Cl1 1_555 1_555
Cl2 O5 1_555 1_555
Cl3 O9 1_555 1_555
Cl4 O13 1_555 1_555
O1 C10 1_555 1_555
O2 C10_2 1_555 1_555
O3 Cu2 1_555 1_555
O4 C11 1_555 1_555
O6 Cl2 1_555 1_555
O7 Cl2 1_555 1_555
O8 Cu1 1_555 1_555
O10 Cl3 1_555 1_555
O11 Cu1 1_555 1_555
O12 Cu3 1_555 1_555
O13 Cu3 1_555 1_555
O15 Cl4 1_555 1_555
O16 Cl4 1_555 1_555
O17 Cl4 1_555 1_555
N1 Cu1 1_555 1_555
N2 Cu1 1_555 1_555
H1 N2 1_555 1_555
N3 Cu3 1_555 1_555
H2 N3 1_555 1_555
N4 Cu3 1_555 1_555
C1 N1 1_555 1_555
H3 C1 1_555 1_555
C2 C1 1_555 1_555
H4 C2 1_555 1_555
C3 C2 1_555 1_555
H5 C3 1_555 1_555
C4 C3 1_555 1_555
H6 C4 1_555 1_555
C5 N1 1_555 1_555
C6 N2 1_555 1_555
H7 C6 1_555 1_555
H8 C6 1_555 1_555
C7 N2 1_555 1_555
H9 C7 1_555 1_555
C8 C7 1_555 1_555
H10 C8 1_555 1_555
H11 C8 1_555 1_555
H12 C8 1_555 1_555
C9 C7 1_555 1_555
H13 C9 1_555 1_555
H14 C9 1_555 1_555
C10 C9 1_555 1_555
C11 O3 1_555 1_555
C12 C11 1_555 1_555
H15 C12 1_555 1_555
H16 C12 1_555 1_555
C13 N3 1_555 1_555
H17 C13 1_555 1_555
C14 C13 1_555 1_555
H18 C14 1_555 1_555
H19 C14 1_555 1_555
H20 C14 1_555 1_555
C15 N3 1_555 1_555
H21 C15 1_555 1_555
H22 C15 1_555 1_555
C16 N4 1_555 1_555
C17 C16 1_555 1_555
H23 C17 1_555 1_555
C18 C17 1_555 1_555
H24 C18 1_555 1_555
C19 C18 1_555 1_555
H25 C19 1_555 1_555
C20 N4 1_555 1_555
H26 C20 1_555 1_555
O18 Cu1 1_555 1_555
H27 O18 1_555 1_555
H28 O18 1_555 1_555
O19 Cu2 1_555 1_555
H29 O19 1_555 1_555
H30 O19 1_555 1_555
O20 Cu2 1_555 1_555
H31 O20 1_555 1_555
H32 O20 1_555 1_555
O21 H33 1_555 1_555
H34 O21 1_555 1_555
O22 H35 1_555 1_555
H36 O22 1_555 1_555
O2_2 C10 1_555 1_555
Cu3 O3 1_555 1_555
Cl2 O8 1_555 1_555
Cl3 O11 1_555 1_555
Cl3 O12 1_555 1_555
C4 C5 1_555 1_555
C5 C6 1_555 1_555
C12 C13 1_555 1_555
C15 C16 1_555 1_555
C19 C20 1_555 1_555

#END
