
#######################################################################
#
#                 Cambridge Crystallographic Data Centre
#                                CCDC 
#
#######################################################################
#
# If this CIF has been generated from an entry in the Cambridge 
# Structural Database, then it will include bibliographic, chemical, 
# crystal, experimental, refinement or atomic coordinate data resulting 
# from the CCDC's data processing and validation procedures.
#
#######################################################################

data_LEHTUO
_symmetry_cell_setting           monoclinic
_symmetry_space_group_name_H-M   'C 2/c'
_symmetry_Int_Tables_number      15
_space_group_name_Hall           '-C 2yn'
loop_
_symmetry_equiv_pos_site_id
_symmetry_equiv_pos_as_xyz
1 x,y,z
2 1/2+x,1/2+y,z
3 -x,y,1/2-z
4 1/2-x,1/2+y,1/2-z
5 -x,-y,-z
6 1/2-x,1/2-y,-z
7 x,-y,1/2+z
8 1/2+x,1/2-y,1/2+z
_cell_length_a                   20.262(4)
_cell_length_b                   7.827(2)
_cell_length_c                   9.711(2)
_cell_angle_alpha                90
_cell_angle_beta                 98.11(3)
_cell_angle_gamma                90
_cell_volume                     1524.67
loop_
_atom_site_label
_atom_site_type_symbol
_atom_site_fract_x
_atom_site_fract_y
_atom_site_fract_z
Co1 Co 0.476086(17) 0.17556(4) 0.06968(3)
O1 O 0.41866(10) 0.3663(2) -0.02921(18)
O2 O 0.39995(10) 0.4613(3) -0.24624(19)
O3 O 0.45631(9) 0.0235(2) -0.11523(16)
O4 O 0.40905(9) -0.0307(2) -0.33395(17)
O5 O 0.5000 0.3297(3) 0.2500
O6 O 0.55669(13) 0.2919(3) -0.0050(3)
C1 C 0.39526(13) 0.3506(3) -0.1581(3)
C2 C 0.35924(13) 0.1833(3) -0.2063(2)
C3 C 0.41169(13) 0.0486(3) -0.2220(2)
C4 C 0.30152(14) 0.2091(4) -0.3276(3)
H1 H 0.2976(15) 0.114(4) -0.387(3)
H2 H 0.3038(15) 0.312(4) -0.391(3)
C5 C 0.25220(15) 0.2145(4) -0.2196(3)
H3 H 0.2430(15) 0.331(4) -0.195(3)
H4 H 0.2120(16) 0.149(4) -0.244(3)
C6 C 0.30626(14) 0.1310(4) -0.1121(3)
H5 H 0.3013(14) 0.010(4) -0.112(3)
H6 H 0.3132(14) 0.173(3) -0.015(3)
H7 H 0.4605(9) 0.399(3) 0.251(4)
H8 H 0.571(2) 0.4100(19) 0.001(5)
H9 H 0.5938(15) 0.246(6) -0.046(4)
Co1D Co 0.523914(17) -0.17556(4) -0.06968(3)
Co1F Co 0.476086(17) -0.17556(4) -0.43032(3)
Co1B Co 0.523914(17) 0.17556(4) 0.43032(3)
O1D O 0.58134(10) -0.3663(2) 0.02921(18)
O2D O 0.60005(10) -0.4613(3) 0.24624(19)
O3D O 0.54369(9) -0.0235(2) 0.11523(16)
O4D O 0.59095(9) 0.0307(2) 0.33395(17)
O4F O 0.40905(9) 0.0307(2) 0.16605(17)
O4B O 0.59095(9) -0.0307(2) -0.16605(17)
O5F O 0.5000 -0.3297(3) -0.2500
O6D O 0.44331(13) -0.2919(3) 0.0050(3)
C1D C 0.60474(13) -0.3506(3) 0.1581(3)
C2D C 0.64076(13) -0.1833(3) 0.2063(2)
C3D C 0.58831(13) -0.0486(3) 0.2220(2)
C4D C 0.69848(14) -0.2091(4) 0.3276(3)
H1D H 0.7024(15) -0.114(4) 0.387(3)
H2D H 0.6962(15) -0.312(4) 0.391(3)
C5D C 0.74780(15) -0.2145(4) 0.2196(3)
H3D H 0.7570(15) -0.331(4) 0.195(3)
H4D H 0.7880(16) -0.149(4) 0.244(3)
C6D C 0.69374(14) -0.1310(4) 0.1121(3)
H5D H 0.6987(14) -0.010(4) 0.112(3)
H6D H 0.6868(14) -0.173(3) 0.015(3)
H7B H 0.5395(9) 0.399(3) 0.249(4)
H7F H 0.4605(9) -0.399(3) -0.249(4)
H7D H 0.5395(9) -0.399(3) -0.251(4)
H8D H 0.429(2) -0.4100(19) -0.001(5)
H9D H 0.4062(15) -0.246(6) 0.046(4)
loop_
_geom_bond_atom_site_label_1
_geom_bond_atom_site_label_2
_geom_bond_site_symmetry_1
_geom_bond_site_symmetry_2
Co1 O1 1_555 1_555
O1 C1 1_555 1_555
O2 C1 1_555 1_555
O3 Co1 1_555 1_555
O4 C3 1_555 1_555
O5 Co1 1_555 1_555
O6 Co1 1_555 1_555
C1 C2 1_555 1_555
C2 C3 1_555 1_555
C3 O3 1_555 1_555
C4 C2 1_555 1_555
H1 C4 1_555 1_555
H2 C4 1_555 1_555
C5 C4 1_555 1_555
H3 C5 1_555 1_555
H4 C5 1_555 1_555
C6 C2 1_555 1_555
H5 C6 1_555 1_555
H6 C6 1_555 1_555
H7 O5 1_555 1_555
H8 O6 1_555 1_555
H9 O6 1_555 1_555
Co1D O3 1_555 1_555
Co1F O4 1_555 1_555
Co1B O5 1_555 1_555
O1D Co1D 1_555 1_555
O2D C1D 1_555 1_555
O3D Co1 1_555 1_555
O4D Co1B 1_555 1_555
O4F Co1 1_555 1_555
O4B Co1D 1_555 1_555
O5F Co1D 1_555 1_555
O6D Co1D 1_555 1_555
C1D O1D 1_555 1_555
C2D C1D 1_555 1_555
C3D O3D 1_555 1_555
C4D C2D 1_555 1_555
H1D C4D 1_555 1_555
H2D C4D 1_555 1_555
C5D C4D 1_555 1_555
H3D C5D 1_555 1_555
H4D C5D 1_555 1_555
C6D C2D 1_555 1_555
H5D C6D 1_555 1_555
H6D C6D 1_555 1_555
H7B O5 1_555 1_555
H7F O5F 1_555 1_555
H7D O5F 1_555 1_555
H8D O6D 1_555 1_555
H9D O6D 1_555 1_555
C5 C6 1_555 1_555
Co1D O3D 1_555 1_555
Co1F O5F 1_555 1_555
O4D C3D 1_555 1_555
C2D C3D 1_555 1_555
C5D C6D 1_555 1_555

#END
