
#######################################################################
#
#                 Cambridge Crystallographic Data Centre
#                                CCDC 
#
#######################################################################
#
# If this CIF has been generated from an entry in the Cambridge 
# Structural Database, then it will include bibliographic, chemical, 
# crystal, experimental, refinement or atomic coordinate data resulting 
# from the CCDC's data processing and validation procedures.
#
#######################################################################

data_LEHTEZ
_symmetry_cell_setting           orthorhombic
_symmetry_space_group_name_H-M   'P b c a'
_symmetry_Int_Tables_number      61
_space_group_name_Hall           '-P 2ac 2ab'
loop_
_symmetry_equiv_pos_site_id
_symmetry_equiv_pos_as_xyz
1 x,y,z
2 1/2-x,-y,1/2+z
3 -x,1/2+y,1/2-z
4 1/2+x,1/2-y,-z
5 -x,-y,-z
6 1/2+x,y,1/2-z
7 x,1/2-y,1/2+z
8 1/2-x,1/2+y,z
_cell_length_a                   8.5603(12)
_cell_length_b                   11.0699(15)
_cell_length_c                   37.346(5)
_cell_angle_alpha                90
_cell_angle_beta                 90
_cell_angle_gamma                90
_cell_volume                     3538.97
loop_
_atom_site_label
_atom_site_type_symbol
_atom_site_fract_x
_atom_site_fract_y
_atom_site_fract_z
C1 C 0.8026(4) 1.0515(3) 0.29186(7)
H1 H 0.8775 1.1075 0.2848
C2 C 0.6523(4) 1.0652(3) 0.27924(8)
H2 H 0.6263 1.1293 0.2643
C3 C 0.5419(4) 0.9820(3) 0.28924(8)
H3 H 0.4396 0.9885 0.2811
C4 C 0.5847(4) 0.8885(3) 0.31150(8)
H4 H 0.5115 0.8311 0.3185
C5 C 0.7368(4) 0.8806(3) 0.32342(7)
C6 C 0.7882(4) 0.7845(3) 0.34732(8)
H5 H 0.7188 0.7237 0.3539
C7 C 0.9714(4) 0.6847(3) 0.38312(8)
H6 H 1.0726 0.6528 0.3762
H7 H 0.8954 0.6198 0.3818
C8 C 0.9784(4) 0.7345(3) 0.42070(8)
H8 H 1.0409 0.8076 0.4207
H9 H 0.8736 0.7561 0.4283
C9 C 1.2174(4) 0.6312(3) 0.44276(10)
H10 H 1.2693 0.7068 0.4469
H11 H 1.2399 0.6036 0.4189
H12 H 1.2538 0.5726 0.4598
C10 C 1.0076(5) 0.6853(4) 0.48428(8)
H13 H 1.0542 0.6297 0.5009
H14 H 0.8963 0.6854 0.4874
H15 H 1.0477 0.7650 0.4885
C11 C 1.3790(4) 0.8798(3) 0.39279(8)
C12 C 0.9167(4) 1.0407(3) 0.41865(10)
C13 C 1.2401(4) 1.1848(3) 0.30617(8)
Mn1 Mn 1.07355(5) 0.94723(4) 0.344285(12)
N1 N 0.8468(3) 0.9621(2) 0.31373(6)
N2 N 0.9266(3) 0.7830(2) 0.35923(6)
N3 N 1.0459(3) 0.6475(2) 0.44693(7)
N4 N 1.2709(3) 0.8875(2) 0.37436(7)
N5 N 0.9625(4) 1.0375(2) 0.38952(8)
N6 N 1.1752(3) 1.1042(2) 0.31952(7)
H16 H 0.9996 0.5806 0.4412
S1 S 1.53139(11) 0.87179(8) 0.41894(2)
S2 S 0.85784(14) 1.04061(10) 0.46007(2)
S3 S 1.32720(10) 1.29615(7) 0.28601(2)
Mn1G Mn 1.42645(5) 1.44723(4) 0.344285(12)
S3G S 1.17280(10) 0.79615(7) 0.28601(2)
loop_
_geom_bond_atom_site_label_1
_geom_bond_atom_site_label_2
_geom_bond_site_symmetry_1
_geom_bond_site_symmetry_2
C1 H1 1_555 1_555
C2 C1 1_555 1_555
H2 C2 1_555 1_555
C3 C2 1_555 1_555
H3 C3 1_555 1_555
C4 C3 1_555 1_555
H4 C4 1_555 1_555
C5 C4 1_555 1_555
C6 C5 1_555 1_555
H5 C6 1_555 1_555
C7 H6 1_555 1_555
H7 C7 1_555 1_555
C8 C7 1_555 1_555
H8 C8 1_555 1_555
H9 C8 1_555 1_555
C9 H10 1_555 1_555
H11 C9 1_555 1_555
H12 C9 1_555 1_555
C10 H13 1_555 1_555
H14 C10 1_555 1_555
H15 C10 1_555 1_555
C11 N4 1_555 1_555
C12 N5 1_555 1_555
C13 N6 1_555 1_555
Mn1 N1 1_555 1_555
N1 C1 1_555 1_555
N2 C6 1_555 1_555
N3 C8 1_555 1_555
N4 Mn1 1_555 1_555
N5 Mn1 1_555 1_555
N6 Mn1 1_555 1_555
H16 N3 1_555 1_555
S1 C11 1_555 1_555
S2 C12 1_555 1_555
S3 C13 1_555 1_555
Mn1G S3 1_555 1_555
S3G Mn1 1_555 1_555
C5 N1 1_555 1_555
C7 N2 1_555 1_555
C9 N3 1_555 1_555
C10 N3 1_555 1_555
Mn1 N2 1_555 1_555

#END
