
#######################################################################
#
#                 Cambridge Crystallographic Data Centre
#                                CCDC 
#
#######################################################################
#
# If this CIF has been generated from an entry in the Cambridge 
# Structural Database, then it will include bibliographic, chemical, 
# crystal, experimental, refinement or atomic coordinate data resulting 
# from the CCDC's data processing and validation procedures.
#
#######################################################################

data_LEHVUR
_symmetry_cell_setting           monoclinic
_symmetry_space_group_name_H-M   'C 2/c'
_symmetry_Int_Tables_number      15
_space_group_name_Hall           '-C 2yn'
loop_
_symmetry_equiv_pos_site_id
_symmetry_equiv_pos_as_xyz
1 x,y,z
2 -x,y,1/2-z
3 1/2+x,1/2+y,z
4 1/2-x,1/2+y,1/2-z
5 -x,-y,-z
6 x,-y,1/2+z
7 1/2-x,1/2-y,-z
8 1/2+x,1/2-y,1/2+z
_cell_length_a                   15.063(4)
_cell_length_b                   17.355(4)
_cell_length_c                   18.178(4)
_cell_angle_alpha                90
_cell_angle_beta                 95.911(6)
_cell_angle_gamma                90
_cell_volume                     4726.8
loop_
_atom_site_label
_atom_site_type_symbol
_atom_site_fract_x
_atom_site_fract_y
_atom_site_fract_z
Cl1 Cl 0.0512(7) 0.4038(5) 0.2251(10)
O5 O 0.125(7) 0.3918(15) 0.288(2)
O6 O 0.0000 0.4683(12) 0.2500
O7 O 0.100(3) 0.431(4) 0.163(3)
O8 O 0.002(3) 0.337(3) 0.211(2)
Cl1A Cl -0.0512(7) 0.4038(5) 0.2749(10)
O5A O -0.125(7) 0.3918(15) 0.212(2)
O7A O -0.100(3) 0.431(4) 0.337(3)
O8A O -0.002(3) 0.337(3) 0.289(2)
Co1 Co 1.57695(4) 0.53819(4) 0.13896(4)
C1 C 1.1024(4) 0.9055(3) 0.0890(3)
C2 C 1.1081(3) 0.8198(3) 0.0769(3)
C3 C 1.1900(3) 0.7835(3) 0.0873(3)
H1 H 1.2415 0.8129 0.0970
C4 C 1.1969(4) 0.7042(3) 0.0836(3)
C5 C 1.2850(3) 0.6657(3) 0.0994(3)
C6 C 1.3572(4) 0.7038(4) 0.1339(4)
H2 H 1.3514 0.7547 0.1489
C7 C 1.4385(4) 0.6671(4) 0.1464(4)
H3 H 1.4866 0.6954 0.1684
C8 C 1.3798(4) 0.5563(3) 0.0996(4)
H4 H 1.3854 0.5042 0.0894
C9 C 1.2982(4) 0.5894(3) 0.0834(4)
H5 H 1.2510 0.5601 0.0614
C10 C 1.1176(4) 0.6608(3) 0.0673(3)
H6 H 1.1208 0.6074 0.0645
C11 C 1.0348(3) 0.6974(3) 0.0554(3)
C12 C 1.0318(3) 0.7771(3) 0.0612(3)
H7 H 0.9769 0.8020 0.0543
C13 C 0.9500(4) 0.6538(3) 0.0400(3)
C14 C 0.8790(4) 0.6875(4) -0.0014(4)
H8 H 0.8851 0.7356 -0.0229
C15 C 0.7975(5) 0.6485(5) -0.0109(5)
H9 H 0.7507 0.6720 -0.0398
C16 C 0.8521(5) 0.5495(4) 0.0570(4)
H10 H 0.8438 0.5010 0.0771
C17 C 0.9355(4) 0.5819(3) 0.0701(4)
H11 H 0.9812 0.5563 0.0984
C18 C 2.0000 0.9448(4) 0.2500
C19 C 2.0000 0.8581(4) 0.2500
C20 C 1.9202(3) 0.8183(3) 0.2416(3)
H12 H 1.8667 0.8454 0.2373
C21 C 1.9191(4) 0.7380(3) 0.2395(3)
C22 C 2.0000 0.6990(4) 0.2500
H13 H 2.0000 0.6455 0.2500
C23 C 1.8339(3) 0.6951(3) 0.2254(3)
C24 C 1.7576(4) 0.7292(3) 0.1902(4)
H14 H 1.7578 0.7814 0.1786
C25 C 1.6819(4) 0.6860(3) 0.1726(4)
H15 H 1.6319 0.7103 0.1488
C26 C 1.8254(4) 0.6171(3) 0.2439(4)
H16 H 1.8734 0.5911 0.2689
C27 C 1.7466(4) 0.5793(3) 0.2250(3)
H17 H 1.7424 0.5281 0.2396
N1 N 1.4527(3) 0.5939(2) 0.1292(3)
N2 N 0.7823(3) 0.5820(3) 0.0178(4)
N3 N 1.6764(3) 0.6107(3) 0.1877(3)
O1 O 1.0260(2) 0.9372(2) 0.0795(2)
O2 O 1.1701(2) 0.9432(2) 0.1124(2)
O3 O 2.0699(2) 0.9781(2) 0.2346(2)
O4 O 1.6017(3) 0.5911(2) 0.0376(2)
H18 H 1.5641 0.5807 0.0007
H19 H 1.6505 0.5798 0.0290
Co1B Co 2.07695(4) 0.03819(4) 0.13896(4)
Co1B_2 Co 1.07695(4) 1.03819(4) 0.13896(4)
Co1B_3 Co 2.07695(4) 1.03819(4) 0.13896(4)
Co1A Co 2.42305(4) 0.53819(4) 0.36104(4)
Co1C Co 1.92305(4) 1.03819(4) 0.36104(4)
C1B C 1.6024(4) 0.4055(3) 0.0890(3)
C2B C 1.6081(3) 0.3198(3) 0.0769(3)
C3B C 1.6900(3) 0.2835(3) 0.0873(3)
H1B H 1.7415 0.3129 0.0970
C4B C 1.6969(4) 0.2042(3) 0.0836(3)
C5B C 1.7850(3) 0.1657(3) 0.0994(3)
C6B C 1.8572(4) 0.2038(4) 0.1339(4)
H2B H 1.8514 0.2547 0.1489
C7B C 1.9385(4) 0.1671(4) 0.1464(4)
H3B H 1.9866 0.1954 0.1684
C8B C 1.8798(4) 0.0563(3) 0.0996(4)
H4B H 1.8854 0.0042 0.0894
C9B C 1.7982(4) 0.0894(3) 0.0834(4)
H5B H 1.7510 0.0601 0.0614
C10B C 1.6176(4) 0.1608(3) 0.0673(3)
H6B H 1.6208 0.1074 0.0645
C11B C 1.5348(3) 0.1974(3) 0.0554(3)
C12B C 1.5318(3) 0.2771(3) 0.0612(3)
H7B H 1.4769 0.3020 0.0543
C13B C 1.4500(4) 0.1538(3) 0.0400(3)
C14B C 1.3790(4) 0.1875(4) -0.0014(4)
H8B H 1.3851 0.2356 -0.0229
C15B C 1.2975(5) 0.1485(5) -0.0109(5)
H9B H 1.2507 0.1720 -0.0398
C16B C 1.3521(5) 0.0495(4) 0.0570(4)
H10B H 1.3438 0.0010 0.0771
C17B C 1.4355(4) 0.0819(3) 0.0701(4)
H11B H 1.4812 0.0563 0.0984
C20A C 2.0798(3) 0.8183(3) 0.2584(3)
H12A H 2.1333 0.8454 0.2627
C21A C 2.0809(4) 0.7380(3) 0.2605(3)
C23A C 2.1661(3) 0.6951(3) 0.2746(3)
C24A C 2.2424(4) 0.7292(3) 0.3098(4)
H14A H 2.2422 0.7814 0.3214
C25A C 2.3181(4) 0.6860(3) 0.3274(4)
H15A H 2.3681 0.7103 0.3512
C26A C 2.1746(4) 0.6171(3) 0.2561(4)
H16A H 2.1266 0.5911 0.2311
C27A C 2.2534(4) 0.5793(3) 0.2750(3)
H17A H 2.2576 0.5281 0.2604
N1B N 1.9527(3) 0.0939(2) 0.1292(3)
N2B N 1.2823(3) 0.0820(3) 0.0178(4)
N3A N 2.3236(3) 0.6107(3) 0.3123(3)
N3B N 2.1764(3) 0.1107(3) 0.1877(3)
O1B O 1.5260(2) 0.4372(2) 0.0795(2)
O1_2 O 2.0260(2) -0.0628(2) 0.0795(2)
O2B O 1.6701(2) 0.4432(2) 0.1124(2)
O2_2 O 2.1701(2) -0.0568(2) 0.1124(2)
O3A O 1.9301(2) 0.9781(2) 0.2654(2)
O3B O 1.5699(2) 0.4781(2) 0.2346(2)
O3_2 O 2.0699(2) -0.0219(2) 0.2346(2)
O4B O 2.1017(3) 0.0911(2) 0.0376(2)
H18B H 2.0641 0.0807 0.0007
H19B H 2.1505 0.0798 0.0290
loop_
_geom_bond_atom_site_label_1
_geom_bond_atom_site_label_2
_geom_bond_site_symmetry_1
_geom_bond_site_symmetry_2
Co1 N1 1_555 1_555
C1 C2 1_555 1_555
C2 C3 1_555 1_555
C3 H1 1_555 1_555
C4 C3 1_555 1_555
C5 C4 1_555 1_555
C6 C5 1_555 1_555
H2 C6 1_555 1_555
C7 C6 1_555 1_555
H3 C7 1_555 1_555
C8 H4 1_555 1_555
C9 C5 1_555 1_555
H5 C9 1_555 1_555
C10 C4 1_555 1_555
H6 C10 1_555 1_555
C11 C10 1_555 1_555
C12 C2 1_555 1_555
H7 C12 1_555 1_555
C13 C11 1_555 1_555
C14 C13 1_555 1_555
H8 C14 1_555 1_555
C15 C14 1_555 1_555
H9 C15 1_555 1_555
C16 H10 1_555 1_555
C17 C13 1_555 1_555
H11 C17 1_555 1_555
C18 C19 1_555 1_555
C19 C20 1_555 1_555
C20 H12 1_555 1_555
C21 C20 1_555 1_555
C22 C21 1_555 1_555
H13 C22 1_555 1_555
C23 C21 1_555 1_555
C24 C23 1_555 1_555
H14 C24 1_555 1_555
C25 C24 1_555 1_555
H15 C25 1_555 1_555
C26 C23 1_555 1_555
H16 C26 1_555 1_555
C27 C26 1_555 1_555
H17 C27 1_555 1_555
Cl1 O5 1_555 1_555
N1 C7 1_555 1_555
N2 C15 1_555 1_555
N3 Co1 1_555 1_555
O1 C1 1_555 1_555
O2 C1 1_555 1_555
O3 C18 1_555 1_555
O4 Co1 1_555 1_555
H18 O4 1_555 1_555
H19 O4 1_555 1_555
O6 Cl1 1_555 1_555
O7 Cl1 1_555 1_555
O8 Cl1 1_555 1_555
Co1B N1B 1_555 1_555
Co1B_2 O1 1_555 1_555
Co1B_3 O3 1_555 1_555
Co1A N3A 1_555 1_555
Co1C O3A 1_555 1_555
C1B C2B 1_555 1_555
C2B C3B 1_555 1_555
C3B H1B 1_555 1_555
C4B C3B 1_555 1_555
C5B C4B 1_555 1_555
C6B C5B 1_555 1_555
H2B C6B 1_555 1_555
C7B C6B 1_555 1_555
H3B C7B 1_555 1_555
C8B H4B 1_555 1_555
C9B C5B 1_555 1_555
H5B C9B 1_555 1_555
C10B C4B 1_555 1_555
H6B C10B 1_555 1_555
C11B C10B 1_555 1_555
C12B C2B 1_555 1_555
H7B C12B 1_555 1_555
C13B C11B 1_555 1_555
C14B C13B 1_555 1_555
H8B C14B 1_555 1_555
C15B C14B 1_555 1_555
H9B C15B 1_555 1_555
C16B H10B 1_555 1_555
C17B C13B 1_555 1_555
H11B C17B 1_555 1_555
C20A C19 1_555 1_555
H12A C20A 1_555 1_555
C21A C22 1_555 1_555
C23A C21A 1_555 1_555
C24A C23A 1_555 1_555
H14A C24A 1_555 1_555
C25A C24A 1_555 1_555
H15A C25A 1_555 1_555
C26A C23A 1_555 1_555
H16A C26A 1_555 1_555
C27A C26A 1_555 1_555
H17A C27A 1_555 1_555
Cl1A O6 1_555 1_555
N1B C7B 1_555 1_555
N2B C15B 1_555 1_555
N3A C25A 1_555 1_555
N3B Co1B 1_555 1_555
O1B Co1 1_555 1_555
O1_2 Co1B 1_555 1_555
O2B Co1 1_555 1_555
O2_2 Co1B 1_555 1_555
O3A C18 1_555 1_555
O3B Co1 1_555 1_555
O3_2 Co1B 1_555 1_555
O4B Co1B 1_555 1_555
H18B O4B 1_555 1_555
H19B O4B 1_555 1_555
O5A Cl1A 1_555 1_555
O7A Cl1A 1_555 1_555
O8A O8 1_555 1_555
C8 C9 1_555 1_555
C8 N1 1_555 1_555
C11 C12 1_555 1_555
C16 C17 1_555 1_555
C16 N2 1_555 1_555
C25 N3 1_555 1_555
C27 N3 1_555 1_555
O2 Co1B_2 1_555 1_555
C1B O1B 1_555 1_555
C1B O2B 1_555 1_555
C8B C9B 1_555 1_555
C8B N1B 1_555 1_555
C11B C12B 1_555 1_555
C16B C17B 1_555 1_555
C16B N2B 1_555 1_555
C20A C21A 1_555 1_555
C27A N3A 1_555 1_555
Cl1A O8A 1_555 1_555

#END
