
#######################################################################
#
#                 Cambridge Crystallographic Data Centre
#                                CCDC 
#
#######################################################################
#
# If this CIF has been generated from an entry in the Cambridge 
# Structural Database, then it will include bibliographic, chemical, 
# crystal, experimental, refinement or atomic coordinate data resulting 
# from the CCDC's data processing and validation procedures.
#
#######################################################################

data_LEHVAW01
_symmetry_cell_setting           orthorhombic
_symmetry_space_group_name_H-M   'P c m n'
_symmetry_Int_Tables_number      62
_space_group_name_Hall           '-P 2n 2ac'
loop_
_symmetry_equiv_pos_site_id
_symmetry_equiv_pos_as_xyz
1 x,y,z
2 1/2-x,1/2-y,1/2+z
3 1/2+x,-y,1/2-z
4 -x,1/2+y,-z
5 -x,-y,-z
6 1/2+x,1/2+y,1/2-z
7 1/2-x,y,1/2+z
8 x,1/2-y,z
_cell_length_a                   5.524(6)
_cell_length_b                   7.069(2)
_cell_length_c                   18.501(8)
_cell_angle_alpha                90
_cell_angle_beta                 90
_cell_angle_gamma                90
_cell_volume                     722.448
loop_
_atom_site_label
_atom_site_type_symbol
_atom_site_fract_x
_atom_site_fract_y
_atom_site_fract_z
Cu1 Cu 0.68679(12) 0.2500 0.20074(3)
O1 O 0.8490(4) 0.0536(3) 0.14455(11)
O2 O 1.0214(4) -0.0560(3) 0.24357(11)
O3 O 0.3552(7) 0.2500 0.1149(2)
C1 C 0.9633(6) -0.0750(4) 0.17835(16)
C2 C 1.0393(9) -0.2500 0.1367(2)
C3 C 0.9911(11) -0.2500 0.0549(3)
H1 H 0.921(7) -0.356(5) 0.0398(17)
C4 C 1.2643(12) -0.2500 0.0395(3)
H2 H 1.323(7) -0.359(6) 0.011(2)
C5 C 1.3198(11) -0.2500 0.1197(3)
H3 H 1.392(6) -0.138(5) 0.1345(18)
Cu1E Cu 1.18679(12) -0.2500 0.29926(3)
Cu1_2 Cu 0.68679(12) -0.7500 0.20074(3)
O1G O 0.8490(4) -0.5536(3) 0.14455(11)
O1G_2 O 0.8490(4) 0.4464(3) 0.14455(11)
O2G O 1.0214(4) -0.4440(3) 0.24357(11)
O2E O 0.5214(4) 0.4440(3) 0.25643(11)
O2B O 0.5214(4) 0.0560(3) 0.25643(11)
C1G C 0.9633(6) -0.4250(4) 0.17835(16)
H1G H 0.921(7) -0.144(5) 0.0398(17)
H2G H 1.323(7) -0.141(6) 0.011(2)
H3G H 1.392(6) -0.362(5) 0.1345(18)
loop_
_geom_bond_atom_site_label_1
_geom_bond_atom_site_label_2
_geom_bond_site_symmetry_1
_geom_bond_site_symmetry_2
Cu1 O1 1_555 1_555
O1 C1 1_555 1_555
O2 C1 1_555 1_555
O3 Cu1 1_555 1_555
C1 C2 1_555 1_555
C2 C3 1_555 1_555
C3 H1 1_555 1_555
C4 C3 1_555 1_555
H2 C4 1_555 1_555
C5 C2 1_555 1_555
H3 C5 1_555 1_555
Cu1E O2 1_555 1_555
Cu1_2 O1G 1_555 1_555
O1G C1G 1_555 1_555
O1G_2 Cu1 1_555 1_555
O2G Cu1E 1_555 1_555
O2E Cu1 1_555 1_555
O2B Cu1 1_555 1_555
C1G C2 1_555 1_555
H1G C3 1_555 1_555
H2G C4 1_555 1_555
H3G C5 1_555 1_555
C4 C5 1_555 1_555
O2G C1G 1_555 1_555

#END
