
#######################################################################
#
#                 Cambridge Crystallographic Data Centre
#                                CCDC 
#
#######################################################################
#
# If this CIF has been generated from an entry in the Cambridge 
# Structural Database, then it will include bibliographic, chemical, 
# crystal, experimental, refinement or atomic coordinate data resulting 
# from the CCDC's data processing and validation procedures.
#
#######################################################################

data_LEHVAW
_symmetry_cell_setting           orthorhombic
_symmetry_space_group_name_H-M   'P n m a'
_symmetry_Int_Tables_number      62
_space_group_name_Hall           '-P 2ac 2n'
loop_
_symmetry_equiv_pos_site_id
_symmetry_equiv_pos_as_xyz
1 x,y,z
2 1/2-x,-y,1/2+z
3 -x,1/2+y,-z
4 1/2+x,1/2-y,1/2-z
5 -x,-y,-z
6 1/2+x,y,1/2-z
7 x,1/2-y,z
8 1/2-x,1/2+y,1/2+z
_cell_length_a                   18.252(4)
_cell_length_b                   7.063(1)
_cell_length_c                   5.488(1)
_cell_angle_alpha                90
_cell_angle_beta                 90
_cell_angle_gamma                90
_cell_volume                     707.479
loop_
_atom_site_label
_atom_site_type_symbol
_atom_site_fract_x
_atom_site_fract_y
_atom_site_fract_z
Cu1 Cu 0.19938(3) 0.2500 0.17867(10)
O1 O 0.14216(11) 0.4462(3) 0.3440(4)
O2 O 0.24335(12) 0.5566(3) 0.5150(4)
O3 O 0.11500(19) 0.2500 -0.1511(6)
H1 H 0.1302 0.2500 -0.3482
H2 H 0.0685 0.2500 -0.1057
C1 C 0.1347(2) 0.7500 0.5378(8)
C2 C 0.1197(2) 0.7500 0.8225(8)
H3 H 0.1368 0.8632 0.9048
H4 H 0.1368 0.6368 0.9048
C3 C 0.0368(3) 0.7500 0.7710(8)
H5 H 0.0120 0.6370 0.8284
H6 H 0.0120 0.8630 0.8284
C4 C 0.0512(2) 0.7500 0.4928(8)
H7 H 0.0336 0.8631 0.4111
H8 H 0.0336 0.6369 0.4111
C5 C 0.17709(16) 0.5735(4) 0.4591(5)
Cu1G Cu 0.30062(3) 0.7500 0.67867(10)
Cu1_2 Cu 0.19938(3) 1.2500 0.17867(10)
O1F O 0.14216(11) 1.0538(3) 0.3440(4)
O1F_2 O 0.14216(11) 0.0538(3) 0.3440(4)
O2F O 0.24335(12) 0.9434(3) 0.5150(4)
O2G O 0.25665(12) 0.0566(3) 0.0150(4)
O2A O 0.25665(12) 0.4434(3) 0.0150(4)
C5F C 0.17709(16) 0.9265(4) 0.4591(5)
loop_
_geom_bond_atom_site_label_1
_geom_bond_atom_site_label_2
_geom_bond_site_symmetry_1
_geom_bond_site_symmetry_2
Cu1 O1 1_555 1_555
O1 C5 1_555 1_555
O2 C5 1_555 1_555
O3 Cu1 1_555 1_555
H1 O3 1_555 1_555
H2 O3 1_555 1_555
C1 C2 1_555 1_555
C2 H3 1_555 1_555
H4 C2 1_555 1_555
C3 C2 1_555 1_555
H5 C3 1_555 1_555
H6 C3 1_555 1_555
C4 C1 1_555 1_555
H7 C4 1_555 1_555
H8 C4 1_555 1_555
C5 C1 1_555 1_555
Cu1G O2 1_555 1_555
Cu1_2 O1F 1_555 1_555
O1F C5F 1_555 1_555
O1F_2 Cu1 1_555 1_555
O2F Cu1G 1_555 1_555
O2G Cu1 1_555 1_555
O2A Cu1 1_555 1_555
C5F C1 1_555 1_555
C3 C4 1_555 1_555
O2F C5F 1_555 1_555

#END
