
#######################################################################
#
#                 Cambridge Crystallographic Data Centre
#                                CCDC 
#
#######################################################################
#
# If this CIF has been generated from an entry in the Cambridge 
# Structural Database, then it will include bibliographic, chemical, 
# crystal, experimental, refinement or atomic coordinate data resulting 
# from the CCDC's data processing and validation procedures.
#
#######################################################################

data_LEHWOM
_symmetry_cell_setting           triclinic
_symmetry_space_group_name_H-M   'P -1'
_symmetry_Int_Tables_number      2
_space_group_name_Hall           '-P 1'
loop_
_symmetry_equiv_pos_site_id
_symmetry_equiv_pos_as_xyz
1 x,y,z
2 -x,-y,-z
_cell_length_a                   9.850(10)
_cell_length_b                   10.826(11)
_cell_length_c                   16.788(18)
_cell_angle_alpha                71.949(12)
_cell_angle_beta                 79.499(12)
_cell_angle_gamma                70.442(12)
_cell_volume                     1597.72
loop_
_atom_site_label
_atom_site_type_symbol
_atom_site_fract_x
_atom_site_fract_y
_atom_site_fract_z
Mn1 Mn 0.91802(6) 0.35216(5) 0.91632(4)
Mn2 Mn 1.0000 0.0000 1.0000
Br1 Br 0.54211(5) -0.13665(5) 1.21097(3)
Br2 Br 1.21595(7) 0.36538(6) 0.49050(3)
O1 O 0.8137(2) 0.1936(2) 0.98321(16)
O2 O 0.6557(3) 0.3739(3) 0.91316(17)
O3 O 0.1348(3) 0.3395(3) 0.94073(18)
O4 O 0.1146(3) 0.1347(3) 1.0041(2)
O5 O 1.4103(5) -0.1847(4) 0.5645(3)
O6 O 1.3668(4) -0.2697(3) 0.7003(2)
O7 O 1.0514(3) 0.0385(3) 0.86801(16)
O8 O 0.9967(3) 0.2643(3) 0.81268(17)
N1 N 0.8973(4) 0.5512(3) 0.8211(2)
N2 N 0.5096(5) 1.4987(4) 0.6710(2)
H1 H 0.4496 1.5663 0.6877
C1 C 0.5678(4) 0.1954(3) 1.0089(2)
C2 C 0.4313(4) 0.2424(4) 0.9799(2)
H2 H 0.4088 0.3185 0.9342
C3 C 0.3279(4) 0.1758(4) 1.0192(2)
C4 C 0.3614(4) 0.0624(4) 1.0875(2)
H3 H 0.2940 0.0158 1.1127
C5 C 0.4954(4) 0.0194(4) 1.1178(2)
C6 C 0.5995(4) 0.0834(4) 1.0789(2)
H4 H 0.6902 0.0520 1.0992
C7 C 0.6834(4) 0.2602(4) 0.9649(2)
C8 C 0.1830(4) 0.2199(4) 0.9856(3)
C9 C 1.2841(5) -0.0294(5) 0.6441(3)
C10 C 1.2068(4) -0.0099(4) 0.7195(3)
H5 H 1.2036 -0.0845 0.7651
C11 C 1.1342(4) 0.1209(4) 0.7268(2)
C12 C 1.1388(4) 0.2326(4) 0.6590(3)
H6 H 1.0903 0.3203 0.6637
C13 C 1.2163(5) 0.2124(5) 0.5844(3)
C14 C 1.2897(5) 0.0824(5) 0.5766(3)
H7 H 1.3425 0.0701 0.5262
C15 C 1.3620(5) -0.1690(5) 0.6328(3)
C16 C 1.0536(4) 0.1431(4) 0.8095(2)
C17 C 1.0149(6) 0.5713(5) 0.7715(4)
H8 H 1.1020 0.5027 0.7814
C18 C 1.0163(7) 0.6846(6) 0.7077(4)
H9 H 1.1024 0.6924 0.6761
C19 C 0.8925(7) 0.7851(5) 0.6907(3)
C20 C 0.7657(6) 0.7691(5) 0.7408(4)
H10 H 0.6778 0.8369 0.7311
C21 C 0.7740(5) 0.6492(4) 0.8056(3)
H11 H 0.6901 0.6382 0.8388
C22 C 0.8890(8) 0.9161(5) 0.6207(4)
H12 H 0.9876 0.9179 0.6017
H13 H 0.8461 0.9146 0.5735
C23 C 0.8100(7) 1.0384(5) 0.6450(4)
H14 H 0.8477 1.0346 0.6955
H15 H 0.7101 1.0387 0.6599
C24 C 0.8116(5) 1.1750(4) 0.5805(3)
H16 H 0.9078 1.1850 0.5723
H17 H 0.7862 1.1769 0.5269
C25 C 0.6406(6) 1.4421(5) 0.6983(3)
H18 H 0.6658 1.4739 0.7373
C26 C 0.7386(5) 1.3382(5) 0.6703(3)
H19 H 0.8294 1.2995 0.6907
C27 C 0.7047(5) 1.2901(4) 0.6122(3)
C28 C 0.5662(5) 1.3463(5) 0.5874(3)
H20 H 0.5368 1.3138 0.5503
C29 C 0.4723(5) 1.4502(5) 0.6179(3)
H21 H 0.3792 1.4880 0.6006
O9 O 0.8363(3) 0.4393(3) 1.02095(19)
H22 H 0.7610 0.4218 1.0427
H23 H 0.8450 0.5046 1.0334
Mn1_2 Mn 1.91802(6) 0.35216(5) 0.91632(4)
Mn1_3 Mn -0.08198(6) 0.35216(5) 0.91632(4)
Mn1A Mn 1.08198(6) -0.35216(5) 1.08368(4)
Mn2_2 Mn 0.0000 0.0000 1.0000
Mn2_3 Mn 2.0000 0.0000 1.0000
Br1_2 Br 1.54211(5) -0.13665(5) 1.21097(3)
Br2A Br 0.78405(7) -0.36538(6) 1.50950(3)
O1_2 O 1.8137(2) 0.1936(2) 0.98321(16)
O1A O 1.1863(2) -0.1936(2) 1.01679(16)
O2_2 O 1.6557(3) 0.3739(3) 0.91316(17)
O3_2 O 1.1348(3) 0.3395(3) 0.94073(18)
O3_3 O 2.1348(3) 0.3395(3) 0.94073(18)
O4_2 O 1.1146(3) 0.1347(3) 1.0041(2)
O4A O 0.8854(3) -0.1347(3) 0.9959(2)
O5A O 0.5897(5) 0.1847(4) 1.4355(3)
O6A O 0.6332(4) 0.2697(3) 1.2997(2)
O7A O 0.9486(3) -0.0385(3) 1.13199(16)
O8A O 1.0033(3) -0.2643(3) 1.18732(17)
O8_2 O 1.9967(3) 0.2643(3) 0.81268(17)
N1_2 N 1.8973(4) 0.5512(3) 0.8211(2)
N2_2 N 1.5096(5) 1.4987(4) 0.6710(2)
H1_2 H 1.4496 1.5663 0.6877
C1_2 C 1.5678(4) 0.1954(3) 1.0089(2)
C2_2 C 1.4313(4) 0.2424(4) 0.9799(2)
H2_2 H 1.4088 0.3185 0.9342
C3_2 C 1.3279(4) 0.1758(4) 1.0192(2)
C4_2 C 1.3614(4) 0.0624(4) 1.0875(2)
H3_2 H 1.2940 0.0158 1.1127
C5_2 C 1.4954(4) 0.0194(4) 1.1178(2)
C6_2 C 1.5995(4) 0.0834(4) 1.0789(2)
H4_2 H 1.6902 0.0520 1.0992
C7_2 C 1.6834(4) 0.2602(4) 0.9649(2)
C8_2 C 1.1830(4) 0.2199(4) 0.9856(3)
C9A C 0.7159(5) 0.0294(5) 1.3559(3)
C10A C 0.7932(4) 0.0099(4) 1.2805(3)
H5A H 0.7964 0.0845 1.2349
C11A C 0.8658(4) -0.1209(4) 1.2732(2)
C12A C 0.8612(4) -0.2326(4) 1.3410(3)
H6A H 0.9097 -0.3203 1.3363
C13A C 0.7837(5) -0.2124(5) 1.4156(3)
C14A C 0.7103(5) -0.0824(5) 1.4234(3)
H7A H 0.6575 -0.0701 1.4738
C15A C 0.6380(5) 0.1690(5) 1.3672(3)
C16A C 0.9464(4) -0.1431(4) 1.1905(2)
C17_2 C 2.0149(6) 0.5713(5) 0.7715(4)
H8_2 H 2.1020 0.5027 0.7814
C18_2 C 2.0163(7) 0.6846(6) 0.7077(4)
H9_2 H 2.1024 0.6924 0.6761
C19_2 C 1.8925(7) 0.7851(5) 0.6907(3)
C20_2 C 1.7657(6) 0.7691(5) 0.7408(4)
H10_2 H 1.6778 0.8369 0.7311
C21_2 C 1.7740(5) 0.6492(4) 0.8056(3)
H11_2 H 1.6901 0.6382 0.8388
C22_2 C 1.8890(8) 0.9161(5) 0.6207(4)
H12_2 H 1.9876 0.9179 0.6017
H13_2 H 1.8461 0.9146 0.5735
C23_2 C 1.8100(7) 1.0384(5) 0.6450(4)
H14_2 H 1.8477 1.0346 0.6955
H15_2 H 1.7101 1.0387 0.6599
C24_2 C 1.8116(5) 1.1750(4) 0.5805(3)
H16_2 H 1.9078 1.1850 0.5723
H17_2 H 1.7862 1.1769 0.5269
C25_2 C 1.6406(6) 1.4421(5) 0.6983(3)
H18_2 H 1.6658 1.4739 0.7373
C26_2 C 1.7386(5) 1.3382(5) 0.6703(3)
H19_2 H 1.8294 1.2995 0.6907
C27_2 C 1.7047(5) 1.2901(4) 0.6122(3)
C28_2 C 1.5662(5) 1.3463(5) 0.5874(3)
H20_2 H 1.5368 1.3138 0.5503
C29_2 C 1.4723(5) 1.4502(5) 0.6179(3)
H21_2 H 1.3792 1.4880 0.6006
O9_2 O 1.8363(3) 0.4393(3) 1.02095(19)
H22_2 H 1.7610 0.4218 1.0427
H23_2 H 1.8450 0.5046 1.0334
O10 O 0.5960(3) 0.3998(3) 1.1185(2)
H24 H 0.5249 0.4687 1.1126
H25 H 0.5992 0.3553 1.1689
loop_
_geom_bond_atom_site_label_1
_geom_bond_atom_site_label_2
_geom_bond_site_symmetry_1
_geom_bond_site_symmetry_2
Mn1 O1 1_555 1_555
Mn2 O1 1_555 1_555
Br1 C5 1_555 1_555
Br2 C13 1_555 1_555
O1 C7 1_555 1_555
O2 Mn1 1_555 1_555
O3 C8 1_555 1_555
O4 C8 1_555 1_555
O5 C15 1_555 1_555
O6 C15 1_555 1_555
O7 Mn2 1_555 1_555
O8 Mn1 1_555 1_555
N1 Mn1 1_555 1_555
N2 H1 1_555 1_555
C1 C2 1_555 1_555
C2 H2 1_555 1_555
C3 C2 1_555 1_555
C4 C3 1_555 1_555
H3 C4 1_555 1_555
C5 C4 1_555 1_555
C6 C1 1_555 1_555
H4 C6 1_555 1_555
C7 O2 1_555 1_555
C8 C3 1_555 1_555
C9 C10 1_555 1_555
C10 H5 1_555 1_555
C11 C10 1_555 1_555
C12 C11 1_555 1_555
H6 C12 1_555 1_555
C13 C12 1_555 1_555
C14 C9 1_555 1_555
H7 C14 1_555 1_555
C15 C9 1_555 1_555
C16 O7 1_555 1_555
C17 N1 1_555 1_555
H8 C17 1_555 1_555
C18 C17 1_555 1_555
H9 C18 1_555 1_555
C19 C18 1_555 1_555
C20 C19 1_555 1_555
H10 C20 1_555 1_555
C21 N1 1_555 1_555
H11 C21 1_555 1_555
C22 C19 1_555 1_555
H12 C22 1_555 1_555
H13 C22 1_555 1_555
C23 C22 1_555 1_555
H14 C23 1_555 1_555
H15 C23 1_555 1_555
C24 C23 1_555 1_555
H16 C24 1_555 1_555
H17 C24 1_555 1_555
C25 N2 1_555 1_555
H18 C25 1_555 1_555
C26 C25 1_555 1_555
H19 C26 1_555 1_555
C27 C24 1_555 1_555
C28 C27 1_555 1_555
H20 C28 1_555 1_555
C29 N2 1_555 1_555
H21 C29 1_555 1_555
O9 Mn1 1_555 1_555
H22 O9 1_555 1_555
H23 O9 1_555 1_555
O10 H24 1_555 1_555
H25 O10 1_555 1_555
Mn1_2 O1_2 1_555 1_555
Mn1_3 O3 1_555 1_555
Mn1A O1A 1_555 1_555
Mn2_2 O4 1_555 1_555
Mn2_3 O1_2 1_555 1_555
Br1_2 C5_2 1_555 1_555
Br2A C13A 1_555 1_555
O1_2 C7_2 1_555 1_555
O1A Mn2 1_555 1_555
O2_2 Mn1_2 1_555 1_555
O3_2 Mn1 1_555 1_555
O3_3 Mn1_2 1_555 1_555
O4_2 Mn2 1_555 1_555
O4A Mn2 1_555 1_555
O5A C15A 1_555 1_555
O6A C15A 1_555 1_555
O7A Mn2 1_555 1_555
O8A Mn1A 1_555 1_555
O8_2 Mn1_2 1_555 1_555
N1_2 Mn1_2 1_555 1_555
N2_2 H1_2 1_555 1_555
C1_2 C2_2 1_555 1_555
C2_2 H2_2 1_555 1_555
C3_2 C2_2 1_555 1_555
C4_2 C3_2 1_555 1_555
H3_2 C4_2 1_555 1_555
C5_2 C4_2 1_555 1_555
C6_2 C1_2 1_555 1_555
H4_2 C6_2 1_555 1_555
C7_2 O2_2 1_555 1_555
C8_2 O3_2 1_555 1_555
C9A C10A 1_555 1_555
C10A H5A 1_555 1_555
C11A C10A 1_555 1_555
C12A C11A 1_555 1_555
H6A C12A 1_555 1_555
C13A C12A 1_555 1_555
C14A C9A 1_555 1_555
H7A C14A 1_555 1_555
C15A C9A 1_555 1_555
C16A O7A 1_555 1_555
C17_2 N1_2 1_555 1_555
H8_2 C17_2 1_555 1_555
C18_2 C17_2 1_555 1_555
H9_2 C18_2 1_555 1_555
C19_2 C18_2 1_555 1_555
C20_2 C19_2 1_555 1_555
H10_2 C20_2 1_555 1_555
C21_2 N1_2 1_555 1_555
H11_2 C21_2 1_555 1_555
C22_2 C19_2 1_555 1_555
H12_2 C22_2 1_555 1_555
H13_2 C22_2 1_555 1_555
C23_2 C22_2 1_555 1_555
H14_2 C23_2 1_555 1_555
H15_2 C23_2 1_555 1_555
C24_2 C23_2 1_555 1_555
H16_2 C24_2 1_555 1_555
H17_2 C24_2 1_555 1_555
C25_2 N2_2 1_555 1_555
H18_2 C25_2 1_555 1_555
C26_2 C25_2 1_555 1_555
H19_2 C26_2 1_555 1_555
C27_2 C24_2 1_555 1_555
C28_2 C27_2 1_555 1_555
H20_2 C28_2 1_555 1_555
C29_2 N2_2 1_555 1_555
H21_2 C29_2 1_555 1_555
O9_2 Mn1_2 1_555 1_555
H22_2 O9_2 1_555 1_555
H23_2 O9_2 1_555 1_555
O8 C16 1_555 1_555
C1 C7 1_555 1_555
C5 C6 1_555 1_555
C11 C16 1_555 1_555
C13 C14 1_555 1_555
C20 C21 1_555 1_555
C26 C27 1_555 1_555
C28 C29 1_555 1_555
O4_2 C8_2 1_555 1_555
O8A C16A 1_555 1_555
C1_2 C7_2 1_555 1_555
C3_2 C8_2 1_555 1_555
C5_2 C6_2 1_555 1_555
C11A C16A 1_555 1_555
C13A C14A 1_555 1_555
C20_2 C21_2 1_555 1_555
C26_2 C27_2 1_555 1_555
C28_2 C29_2 1_555 1_555

#END
