
#######################################################################
#
#                 Cambridge Crystallographic Data Centre
#                                CCDC 
#
#######################################################################
#
# If this CIF has been generated from an entry in the Cambridge 
# Structural Database, then it will include bibliographic, chemical, 
# crystal, experimental, refinement or atomic coordinate data resulting 
# from the CCDC's data processing and validation procedures.
#
#######################################################################

data_LEJPIA
_symmetry_cell_setting           monoclinic
_symmetry_space_group_name_H-M   'P 21/c'
_symmetry_Int_Tables_number      14
_space_group_name_Hall           '-P 2ybc'
loop_
_symmetry_equiv_pos_site_id
_symmetry_equiv_pos_as_xyz
1 x,y,z
2 -x,1/2+y,1/2-z
3 -x,-y,-z
4 x,1/2-y,1/2+z
_cell_length_a                   7.9786(5)
_cell_length_b                   26.4255(15)
_cell_length_c                   11.6508(8)
_cell_angle_alpha                90
_cell_angle_beta                 107.048(3)
_cell_angle_gamma                90
_cell_volume                     2348.5
loop_
_atom_site_label
_atom_site_type_symbol
_atom_site_fract_x
_atom_site_fract_y
_atom_site_fract_z
Gd1 Gd 0.08447(3) 0.725781(11) 0.16147(2)
Gd2 Gd -0.59676(4) 0.695020(11) -0.01144(2)
O1 O -0.0827(6) 0.65425(18) 0.1484(4)
O2 O -0.3697(5) 0.64166(18) 0.0742(4)
O3 O 0.0659(5) 0.67768(16) -0.0287(4)
O4 O 0.2408(5) 0.61594(17) -0.0493(4)
O5 O 0.2605(5) 0.76746(15) 0.0456(4)
O6 O 0.1940(6) 0.79896(18) -0.1368(4)
O7 O 0.2379(5) 0.79779(17) 0.2683(4)
O8 O 0.4840(6) 0.84035(18) 0.3174(4)
O9 O 0.3389(5) 0.67518(16) 0.1753(3)
O10 O 0.5797(6) 0.71996(18) 0.2356(4)
O11 O 0.8887(6) 0.72640(17) 0.5174(4)
O12 O 0.6120(6) 0.74871(18) 0.4843(4)
O13 O -0.1103(6) 0.7644(2) 0.2597(4)
H1 H -0.049(7) 0.779(3) 0.322(4)
H2 H -0.208(5) 0.753(3) 0.259(6)
C1 C -0.2143(7) 0.6330(2) 0.0771(5)
C2 C -0.1857(8) 0.5927(2) -0.0063(6)
C3 C -0.3072(9) 0.5533(3) -0.0315(6)
H3 H -0.4014 0.5546 0.0002
C4 C -0.2925(10) 0.5124(3) -0.1020(7)
H4 H -0.3740 0.4863 -0.1162
C5 C -0.1549(10) 0.5111(3) -0.1510(7)
H5 H -0.1435 0.4841 -0.1991
C6 C -0.0347(9) 0.5498(3) -0.1286(6)
H6 H 0.0571 0.5485 -0.1627
C7 C -0.0457(8) 0.5909(2) -0.0567(5)
C8 C 0.0938(8) 0.6310(2) -0.0420(5)
C9 C 0.2163(8) 0.8043(2) -0.0273(6)
C10 C 0.2006(8) 0.8556(2) 0.0206(5)
C11 C 0.1312(10) 0.8939(3) -0.0622(6)
H7 H 0.0861 0.8860 -0.1432
C12 C 0.1290(12) 0.9432(3) -0.0247(8)
H8 H 0.0791 0.9684 -0.0799
C13 C 0.2015(12) 0.9553(3) 0.0957(7)
H9 H 0.2033 0.9888 0.1206
C14 C 0.2701(10) 0.9182(3) 0.1775(6)
H10 H 0.3190 0.9266 0.2579
C15 C 0.2675(8) 0.8679(2) 0.1417(6)
C16 C 0.3397(8) 0.8317(2) 0.2452(5)
C17 C 0.4906(8) 0.6840(2) 0.2523(5)
C18 C 0.5523(8) 0.6483(2) 0.3545(5)
C19 C 0.4945(9) 0.5985(3) 0.3373(7)
H11 H 0.4156 0.5888 0.2647
C20 C 0.5541(11) 0.5634(3) 0.4280(7)
H12 H 0.5147 0.5301 0.4169
C21 C 0.6716(11) 0.5778(3) 0.5345(7)
H13 H 0.7098 0.5541 0.5957
C22 C 0.7341(10) 0.6265(3) 0.5526(7)
H14 H 0.8160 0.6354 0.6247
C23 C 0.6737(8) 0.6626(2) 0.4618(5)
C24 C 0.7293(8) 0.7169(2) 0.4888(5)
Gd1C Gd 0.08447(3) 0.774219(11) -0.33853(2)
Gd1C_2 Gd 1.08447(3) 0.774219(11) 0.66147(2)
Gd2_2 Gd 0.40324(4) 0.695020(11) -0.01144(2)
Gd2C Gd 0.40324(4) 0.804980(11) 0.48856(2)
O3_2 O -0.9341(5) 0.67768(16) -0.0287(4)
O4_2 O -0.7592(5) 0.61594(17) -0.0493(4)
O5_2 O -0.7395(5) 0.76746(15) 0.0456(4)
O6C O 0.1940(6) 0.70104(18) 0.3632(4)
O7C O -0.7621(5) 0.70221(17) -0.2317(4)
O8C O -0.5160(6) 0.65965(18) -0.1826(4)
O9_2 O -0.6611(5) 0.67518(16) 0.1753(3)
O10_2 O -0.4203(6) 0.71996(18) 0.2356(4)
O11C O -0.1113(6) 0.77360(17) 0.0174(4)
O12C O -0.3880(6) 0.75129(18) -0.0157(4)
loop_
_geom_bond_atom_site_label_1
_geom_bond_atom_site_label_2
_geom_bond_site_symmetry_1
_geom_bond_site_symmetry_2
Gd1 O1 1_555 1_555
Gd2 O2 1_555 1_555
O1 C1 1_555 1_555
O2 C1 1_555 1_555
O3 Gd1 1_555 1_555
O4 C8 1_555 1_555
O5 Gd1 1_555 1_555
O6 C9 1_555 1_555
O7 Gd1 1_555 1_555
O8 C16 1_555 1_555
O9 Gd1 1_555 1_555
O10 C17 1_555 1_555
O11 C24 1_555 1_555
O12 C24 1_555 1_555
O13 Gd1 1_555 1_555
H1 O13 1_555 1_555
H2 O13 1_555 1_555
C1 C2 1_555 1_555
C2 C3 1_555 1_555
C3 H3 1_555 1_555
C4 C3 1_555 1_555
H4 C4 1_555 1_555
C5 C4 1_555 1_555
H5 C5 1_555 1_555
C6 C5 1_555 1_555
H6 C6 1_555 1_555
C7 C2 1_555 1_555
C8 O3 1_555 1_555
C9 O5 1_555 1_555
C10 C9 1_555 1_555
C11 C10 1_555 1_555
H7 C11 1_555 1_555
C12 C11 1_555 1_555
H8 C12 1_555 1_555
C13 C12 1_555 1_555
H9 C13 1_555 1_555
C14 C13 1_555 1_555
H10 C14 1_555 1_555
C15 C10 1_555 1_555
C16 O7 1_555 1_555
C17 O9 1_555 1_555
C18 C17 1_555 1_555
C19 C18 1_555 1_555
H11 C19 1_555 1_555
C20 C19 1_555 1_555
H12 C20 1_555 1_555
C21 C20 1_555 1_555
H13 C21 1_555 1_555
C22 C21 1_555 1_555
H14 C22 1_555 1_555
C23 C18 1_555 1_555
C24 C23 1_555 1_555
Gd1C O6 1_555 1_555
Gd1C_2 O11 1_555 1_555
Gd2_2 O3 1_555 1_555
Gd2C O7 1_555 1_555
O3_2 Gd2 1_555 1_555
O4_2 Gd2 1_555 1_555
O5_2 Gd2 1_555 1_555
O6C Gd1 1_555 1_555
O7C Gd2 1_555 1_555
O8C Gd2 1_555 1_555
O9_2 Gd2 1_555 1_555
O10_2 Gd2 1_555 1_555
O11C Gd1 1_555 1_555
O12C Gd2 1_555 1_555
O4 Gd2_2 1_555 1_555
O5 Gd2_2 1_555 1_555
O8 Gd2C 1_555 1_555
O9 Gd2_2 1_555 1_555
O10 Gd2_2 1_555 1_555
O12 Gd2C 1_555 1_555
C6 C7 1_555 1_555
C7 C8 1_555 1_555
C14 C15 1_555 1_555
C15 C16 1_555 1_555
C22 C23 1_555 1_555

#END
