
#######################################################################
#
#                 Cambridge Crystallographic Data Centre
#                                CCDC 
#
#######################################################################
#
# If this CIF has been generated from an entry in the Cambridge 
# Structural Database, then it will include bibliographic, chemical, 
# crystal, experimental, refinement or atomic coordinate data resulting 
# from the CCDC's data processing and validation procedures.
#
#######################################################################

data_LEJQOH
_symmetry_cell_setting           orthorhombic
_symmetry_space_group_name_H-M   'P b c n'
_symmetry_Int_Tables_number      60
_space_group_name_Hall           '-P 2n 2ab'
loop_
_symmetry_equiv_pos_site_id
_symmetry_equiv_pos_as_xyz
1 x,y,z
2 1/2-x,1/2-y,1/2+z
3 1/2+x,1/2-y,-z
4 -x,y,1/2-z
5 -x,-y,-z
6 1/2+x,1/2+y,1/2-z
7 1/2-x,1/2+y,z
8 x,-y,1/2+z
_cell_length_a                   13.927(9)
_cell_length_b                   11.700(10)
_cell_length_c                   31.83(2)
_cell_angle_alpha                90
_cell_angle_beta                 90
_cell_angle_gamma                90
_cell_volume                     5186.57
loop_
_atom_site_label
_atom_site_type_symbol
_atom_site_fract_x
_atom_site_fract_y
_atom_site_fract_z
Hg1 Hg 0.5000 0.58834(3) 0.2500
Hg2 Hg 0.096847(13) 0.052004(18) 0.084252(7)
Br1 Br -0.00569(4) -0.09637(5) 0.118535(15)
Br2 Br 0.05663(4) 0.25107(5) 0.055797(15)
Br3 Br 0.53463(4) 0.70527(5) 0.315939(16)
N1 N 0.7157(3) 0.3159(4) 0.22833(13)
N2 N 0.6243(2) 0.4594(3) 0.24697(12)
N3 N 0.3989(3) 0.0489(4) 0.13163(11)
N4 N 0.2468(3) 0.0723(4) 0.11479(12)
N5 N 0.7793(3) 0.1359(4) 0.02759(12)
N6 N 0.8501(3) 0.0334(4) -0.02100(12)
C1 C 0.7012(3) 0.1870(4) 0.16584(15)
C2 C 0.6244(3) 0.1123(4) 0.16870(14)
C3 C 0.5766(3) 0.0762(4) 0.13261(14)
C4 C 0.6061(3) 0.1138(4) 0.09298(14)
C5 C 0.6837(3) 0.1889(4) 0.08985(15)
C6 C 0.7310(3) 0.2286(4) 0.12641(16)
C7 C 0.7582(3) 0.2202(4) 0.20445(14)
H1 H 0.7634 0.1528 0.2232
H2 H 0.8240 0.2417 0.1957
C8 C 0.6443(3) 0.3853(4) 0.21759(15)
H3 H 0.6116 0.3815 0.1915
C9 C 0.6858(4) 0.4376(5) 0.27883(15)
H4 H 0.6881 0.4781 0.3047
C10 C 0.7436(4) 0.3493(5) 0.26823(15)
H5 H 0.7933 0.3167 0.2848
C11 C 0.5906(3) 0.0731(4) 0.21175(12)
H6 H 0.5207 0.0627 0.2113
H7 H 0.6075 0.1309 0.2328
H8 H 0.6216 0.0005 0.2189
C12 C 0.4930(3) -0.0069(4) 0.13637(14)
H9 H 0.4996 -0.0668 0.1146
H10 H 0.4958 -0.0447 0.1642
C13 C 0.3214(4) 0.0041(4) 0.11250(15)
H11 H 0.3208 -0.0682 0.0990
C14 C 0.2772(4) 0.1667(5) 0.13554(17)
H12 H 0.2395 0.2327 0.1411
C15 C 0.3704(4) 0.1515(5) 0.14713(16)
H13 H 0.4085 0.2031 0.1631
C16 C 0.5557(3) 0.0736(4) 0.05374(13)
H14 H 0.5316 0.1399 0.0381
H15 H 0.5019 0.0239 0.0615
H16 H 0.6010 0.0310 0.0361
C17 C 0.7190(3) 0.2251(4) 0.04690(14)
H17 H 0.6632 0.2408 0.0285
H18 H 0.7566 0.2965 0.0495
C18 C 0.7918(3) 0.1186(5) -0.01331(16)
H19 H 0.7619 0.1630 -0.0346
C19 C 0.8774(3) -0.0062(4) 0.01750(15)
H20 H 0.9201 -0.0681 0.0224
C20 C 0.8336(3) 0.0571(5) 0.04756(15)
H21 H 0.8399 0.0478 0.0771
C21 C 0.8095(3) 0.3166(4) 0.12276(15)
H22 H 0.8663 0.2817 0.1099
H23 H 0.8261 0.3451 0.1508
H24 H 0.7872 0.3802 0.1053
Hg2C Hg 0.903153(13) 0.052004(18) 0.415748(7)
Hg2D Hg 0.903153(13) -0.052004(18) -0.084252(7)
Hg2G Hg 0.096847(13) -0.052004(18) 0.584252(7)
Br1C Br 1.00569(4) -0.09637(5) 0.381465(15)
Br2C Br 0.94337(4) 0.25107(5) 0.444203(15)
Br3C Br 0.46537(4) 0.70527(5) 0.184061(16)
N1C N 0.2843(3) 0.3159(4) 0.27167(13)
N2C N 0.3757(2) 0.4594(3) 0.25303(12)
N3C N 0.6011(3) 0.0489(4) 0.36837(11)
N4C N 0.7532(3) 0.0723(4) 0.38521(12)
N5C N 0.2207(3) 0.1359(4) 0.47241(12)
N6C N 0.1499(3) 0.0334(4) 0.52100(12)
N6D N 0.1499(3) -0.0334(4) 0.02100(12)
N6G N 0.8501(3) -0.0334(4) 0.47900(12)
C1C C 0.2988(3) 0.1870(4) 0.33416(15)
C2C C 0.3756(3) 0.1123(4) 0.33130(14)
C3C C 0.4234(3) 0.0762(4) 0.36739(14)
C4C C 0.3939(3) 0.1138(4) 0.40702(14)
C5C C 0.3163(3) 0.1889(4) 0.41015(15)
C6C C 0.2690(3) 0.2286(4) 0.37359(16)
C7C C 0.2418(3) 0.2202(4) 0.29555(14)
H1C H 0.2366 0.1528 0.2768
H2C H 0.1760 0.2417 0.3043
C8C C 0.3557(3) 0.3853(4) 0.28241(15)
H3C H 0.3884 0.3815 0.3085
C9C C 0.3142(4) 0.4376(5) 0.22117(15)
H4C H 0.3119 0.4781 0.1953
C10C C 0.2564(4) 0.3493(5) 0.23177(15)
H5C H 0.2067 0.3167 0.2152
C11C C 0.4094(3) 0.0731(4) 0.28825(12)
H6C H 0.4793 0.0627 0.2887
H7C H 0.3925 0.1309 0.2672
H8C H 0.3784 0.0005 0.2811
C12C C 0.5070(3) -0.0069(4) 0.36363(14)
H9C H 0.5004 -0.0668 0.3854
H10C H 0.5042 -0.0447 0.3358
C13C C 0.6786(4) 0.0041(4) 0.38750(15)
H11C H 0.6792 -0.0682 0.4010
C14C C 0.7228(4) 0.1667(5) 0.36446(17)
H12C H 0.7605 0.2327 0.3589
C15C C 0.6296(4) 0.1515(5) 0.35287(16)
H13C H 0.5915 0.2031 0.3369
C16C C 0.4443(3) 0.0736(4) 0.44626(13)
H14C H 0.4684 0.1399 0.4619
H15C H 0.4981 0.0239 0.4385
H16C H 0.3990 0.0310 0.4639
C17C C 0.2810(3) 0.2251(4) 0.45310(14)
H17C H 0.3368 0.2408 0.4715
H18C H 0.2434 0.2965 0.4505
C18C C 0.2082(3) 0.1186(5) 0.51331(16)
H19C H 0.2381 0.1630 0.5346
C19C C 0.1226(3) -0.0062(4) 0.48250(15)
H20C H 0.0799 -0.0681 0.4776
C20C C 0.1664(3) 0.0571(5) 0.45244(15)
H21C H 0.1601 0.0478 0.4229
C21C C 0.1905(3) 0.3166(4) 0.37724(15)
H22C H 0.1337 0.2817 0.3901
H23C H 0.1739 0.3451 0.3492
H24C H 0.2128 0.3802 0.3947
loop_
_geom_bond_atom_site_label_1
_geom_bond_atom_site_label_2
_geom_bond_site_symmetry_1
_geom_bond_site_symmetry_2
Hg1 Br3 1_555 1_555
Hg2 Br1 1_555 1_555
Br2 Hg2 1_555 1_555
N1 C7 1_555 1_555
N2 Hg1 1_555 1_555
N3 C12 1_555 1_555
N4 Hg2 1_555 1_555
N5 C17 1_555 1_555
N6 C18 1_555 1_555
C1 C2 1_555 1_555
C2 C3 1_555 1_555
C3 C4 1_555 1_555
C4 C5 1_555 1_555
C5 C6 1_555 1_555
C6 C1 1_555 1_555
C7 C1 1_555 1_555
H1 C7 1_555 1_555
H2 C7 1_555 1_555
C8 N1 1_555 1_555
H3 C8 1_555 1_555
C9 N2 1_555 1_555
H4 C9 1_555 1_555
C10 N1 1_555 1_555
H5 C10 1_555 1_555
C11 C2 1_555 1_555
H6 C11 1_555 1_555
H7 C11 1_555 1_555
H8 C11 1_555 1_555
C12 C3 1_555 1_555
H9 C12 1_555 1_555
H10 C12 1_555 1_555
C13 N3 1_555 1_555
H11 C13 1_555 1_555
C14 N4 1_555 1_555
H12 C14 1_555 1_555
C15 N3 1_555 1_555
H13 C15 1_555 1_555
C16 C4 1_555 1_555
H14 C16 1_555 1_555
H15 C16 1_555 1_555
H16 C16 1_555 1_555
C17 C5 1_555 1_555
H17 C17 1_555 1_555
H18 C17 1_555 1_555
C18 N5 1_555 1_555
H19 C18 1_555 1_555
C19 N6 1_555 1_555
H20 C19 1_555 1_555
C20 N5 1_555 1_555
H21 C20 1_555 1_555
C21 C6 1_555 1_555
H22 C21 1_555 1_555
H23 C21 1_555 1_555
H24 C21 1_555 1_555
Hg2C Br1C 1_555 1_555
Hg2D N6 1_555 1_555
Hg2G N6C 1_555 1_555
Br2C Hg2C 1_555 1_555
Br3C Hg1 1_555 1_555
N1C C7C 1_555 1_555
N2C Hg1 1_555 1_555
N3C C12C 1_555 1_555
N4C Hg2C 1_555 1_555
N5C C17C 1_555 1_555
N6C C18C 1_555 1_555
N6D Hg2 1_555 1_555
N6G Hg2C 1_555 1_555
C1C C2C 1_555 1_555
C2C C3C 1_555 1_555
C3C C4C 1_555 1_555
C4C C5C 1_555 1_555
C5C C6C 1_555 1_555
C6C C1C 1_555 1_555
C7C C1C 1_555 1_555
H1C C7C 1_555 1_555
H2C C7C 1_555 1_555
C8C N1C 1_555 1_555
H3C C8C 1_555 1_555
C9C N2C 1_555 1_555
H4C C9C 1_555 1_555
C10C N1C 1_555 1_555
H5C C10C 1_555 1_555
C11C C2C 1_555 1_555
H6C C11C 1_555 1_555
H7C C11C 1_555 1_555
H8C C11C 1_555 1_555
C12C C3C 1_555 1_555
H9C C12C 1_555 1_555
H10C C12C 1_555 1_555
C13C N3C 1_555 1_555
H11C C13C 1_555 1_555
C14C N4C 1_555 1_555
H12C C14C 1_555 1_555
C15C N3C 1_555 1_555
H13C C15C 1_555 1_555
C16C C4C 1_555 1_555
H14C C16C 1_555 1_555
H15C C16C 1_555 1_555
H16C C16C 1_555 1_555
C17C C5C 1_555 1_555
H17C C17C 1_555 1_555
H18C C17C 1_555 1_555
C18C N5C 1_555 1_555
H19C C18C 1_555 1_555
C19C N6C 1_555 1_555
H20C C19C 1_555 1_555
C20C N5C 1_555 1_555
H21C C20C 1_555 1_555
C21C C6C 1_555 1_555
H22C C21C 1_555 1_555
H23C C21C 1_555 1_555
H24C C21C 1_555 1_555
N2 C8 1_555 1_555
N4 C13 1_555 1_555
C9 C10 1_555 1_555
C14 C15 1_555 1_555
C19 C20 1_555 1_555
N2C C8C 1_555 1_555
N4C C13C 1_555 1_555
C9C C10C 1_555 1_555
C14C C15C 1_555 1_555
C19C C20C 1_555 1_555

#END
