
#######################################################################
#
#                 Cambridge Crystallographic Data Centre
#                                CCDC 
#
#######################################################################
#
# If this CIF has been generated from an entry in the Cambridge 
# Structural Database, then it will include bibliographic, chemical, 
# crystal, experimental, refinement or atomic coordinate data resulting 
# from the CCDC's data processing and validation procedures.
#
#######################################################################

data_LEKBAE
_symmetry_cell_setting           monoclinic
_symmetry_space_group_name_H-M   'C 2/c'
_symmetry_Int_Tables_number      15
_space_group_name_Hall           '-C 2yn'
loop_
_symmetry_equiv_pos_site_id
_symmetry_equiv_pos_as_xyz
1 x,y,z
2 1/2+x,1/2+y,z
3 -x,y,1/2-z
4 1/2-x,1/2+y,1/2-z
5 -x,-y,-z
6 1/2-x,1/2-y,-z
7 x,-y,1/2+z
8 1/2+x,1/2-y,1/2+z
_cell_length_a                   6.790(1)
_cell_length_b                   17.238(1)
_cell_length_c                   12.464(1)
_cell_angle_alpha                90
_cell_angle_beta                 91.14(1)
_cell_angle_gamma                90
_cell_volume                     1458.57
loop_
_atom_site_label
_atom_site_type_symbol
_atom_site_fract_x
_atom_site_fract_y
_atom_site_fract_z
Cd1 Cd 0.5000 0.13139(2) 0.2500
Ni1 Ni 0.0000 0.00000 0.0000
N1 N 0.2739(5) 0.1167(2) 0.1018(3)
N2 N -0.3055(4) 0.0499(2) 0.1556(3)
C1 C 0.1704(4) 0.0738(2) 0.0606(3)
C2 C -0.1904(4) 0.0292(2) 0.0969(3)
N3 N 0.3341(4) 0.2421(2) 0.3075(2)
C3 C 0.4069(5) 0.3114(2) 0.2807(3)
C4 C 0.3125(7) 0.3790(2) 0.3096(4)
C5 C 0.1407(7) 0.3750(3) 0.3673(4)
C6 C 0.0679(6) 0.3043(3) 0.3939(4)
C7 C 0.1663(5) 0.2389(2) 0.3626(3)
H1 H 0.355(6) 0.425(3) 0.286(4)
H2 H 0.070(6) 0.421(3) 0.381(4)
H3 H -0.044(7) 0.299(3) 0.425(4)
H4 H 0.105(7) 0.188(3) 0.371(4)
N1B N 0.7261(5) 0.1167(2) 0.3982(3)
N2_2 N 0.6945(4) 0.0499(2) 0.1556(3)
N3B N 0.6659(4) 0.2421(2) 0.1925(2)
C1D C -0.1704(4) -0.0738(2) -0.0606(3)
C2D C 0.1904(4) -0.0292(2) -0.0969(3)
C3B C 0.5931(5) 0.3114(2) 0.2193(3)
C7B C 0.8337(5) 0.2389(2) 0.1374(3)
N1D N -0.2739(5) -0.1167(2) -0.1018(3)
N2B N 0.3055(4) 0.0499(2) 0.3444(3)
N2D N 0.3055(4) -0.0499(2) -0.1556(3)
C4B C 0.6875(7) 0.3790(2) 0.1904(4)
C6B C 0.9321(6) 0.3043(3) 0.1061(4)
H4B H 0.895(7) 0.188(3) 0.129(4)
Cd1D Cd -0.5000 -0.13139(2) -0.2500
Cd1_2 Cd -0.5000 0.13139(2) 0.2500
Cd1D_2 Cd 0.5000 -0.13139(2) -0.2500
C5B C 0.8593(7) 0.3750(3) 0.1327(4)
H1B H 0.645(6) 0.425(3) 0.214(4)
H3B H 1.044(7) 0.299(3) 0.075(4)
H2B H 0.930(6) 0.421(3) 0.119(4)
loop_
_geom_bond_atom_site_label_1
_geom_bond_atom_site_label_2
_geom_bond_site_symmetry_1
_geom_bond_site_symmetry_2
Cd1 N1 1_555 1_555
Ni1 C1 1_555 1_555
N1 C1 1_555 1_555
N2 C2 1_555 1_555
C2 Ni1 1_555 1_555
N3 Cd1 1_555 1_555
C3 N3 1_555 1_555
C4 C3 1_555 1_555
C5 C4 1_555 1_555
C6 C5 1_555 1_555
C7 N3 1_555 1_555
H1 C4 1_555 1_555
H2 C5 1_555 1_555
H3 C6 1_555 1_555
H4 C7 1_555 1_555
N1B Cd1 1_555 1_555
N2_2 Cd1 1_555 1_555
N3B Cd1 1_555 1_555
C1D Ni1 1_555 1_555
C2D Ni1 1_555 1_555
C3B C3 1_555 1_555
C7B N3B 1_555 1_555
N1D C1D 1_555 1_555
N2B Cd1 1_555 1_555
N2D C2D 1_555 1_555
C4B C3B 1_555 1_555
C6B C7B 1_555 1_555
H4B C7B 1_555 1_555
Cd1D N1D 1_555 1_555
Cd1_2 N2 1_555 1_555
Cd1D_2 N2D 1_555 1_555
C5B C4B 1_555 1_555
H1B C4B 1_555 1_555
H3B C6B 1_555 1_555
H2B C5B 1_555 1_555
C6 C7 1_555 1_555
N3B C3B 1_555 1_555
C6B C5B 1_555 1_555

#END
