
#######################################################################
#
#                 Cambridge Crystallographic Data Centre
#                                CCDC 
#
#######################################################################
#
# If this CIF has been generated from an entry in the Cambridge 
# Structural Database, then it will include bibliographic, chemical, 
# crystal, experimental, refinement or atomic coordinate data resulting 
# from the CCDC's data processing and validation procedures.
#
#######################################################################

data_LEKKOD
_symmetry_cell_setting           monoclinic
_symmetry_space_group_name_H-M   'P 21/n'
_symmetry_Int_Tables_number      14
_space_group_name_Hall           '-P 2yn'
loop_
_symmetry_equiv_pos_site_id
_symmetry_equiv_pos_as_xyz
1 x,y,z
2 1/2-x,1/2+y,1/2-z
3 -x,-y,-z
4 1/2+x,1/2-y,1/2+z
_cell_length_a                   8.6355(2)
_cell_length_b                   29.6451(9)
_cell_length_c                   8.8144(3)
_cell_angle_alpha                90
_cell_angle_beta                 107.402(3)
_cell_angle_gamma                90
_cell_volume                     2153.21
loop_
_atom_site_label
_atom_site_type_symbol
_atom_site_fract_x
_atom_site_fract_y
_atom_site_fract_z
Mo1 Mo 1.44298(4) 0.151377(11) 0.63468(4)
Mo2 Mo 1.21632(4) 0.167584(11) 0.37931(4)
N1 N 1.7075(4) 0.14894(11) 0.6936(4)
N2 N 1.9499(4) 0.14486(12) 0.6677(4)
H1 H 2.0280 0.1466 0.6261
N3 N 1.2015(4) 0.19403(11) 0.1439(4)
N4 N 1.2603(6) 0.21853(13) -0.0640(4)
H2 H 1.3122 0.2226 -0.1323
C1 C 1.7948(5) 0.15507(14) 0.5956(5)
H3 H 1.7542 0.1651 0.4912
C2 C 1.9628(6) 0.13129(17) 0.8176(5)
H4 H 2.0567 0.1219 0.8944
C3 C 1.8137(5) 0.13407(17) 0.8336(5)
H5 H 1.7864 0.1270 0.9252
C4 C 1.0794(6) 0.22219(15) 0.0589(5)
H6 H 0.9866 0.2295 0.0864
C5 C 1.3094(6) 0.19253(16) 0.0651(5)
H7 H 1.4050 0.1759 0.0950
C6 C 1.1158(7) 0.23738(16) -0.0702(5)
H8 H 1.0543 0.2568 -0.1478
C7 C 0.9419(5) 0.10531(14) 0.2371(4)
C8 C 1.0881(5) 0.08124(13) 0.2016(4)
C9 C 1.5249(5) 0.05421(13) 0.7213(4)
C10 C 1.4877(5) 0.07613(13) 0.8667(4)
O1 O 1.2189(3) 0.13109(9) 0.5640(3)
O2 O 1.4484(3) 0.16421(8) 0.4206(3)
O3 O 1.4468(3) 0.20103(9) 0.7279(3)
O4 O 1.1640(3) 0.21944(9) 0.4240(3)
O5 O 1.4591(3) 0.11818(9) 0.8516(3)
O6 O 1.4943(3) 0.07955(9) 0.5997(3)
O7 O 1.5818(4) 0.01568(9) 0.7319(3)
O8 O 1.4901(3) 0.05330(9) 0.9836(3)
O9 O 0.9717(3) 0.14569(9) 0.2917(3)
O10 O 1.2205(3) 0.10309(9) 0.2524(3)
O11 O 0.8107(3) 0.08635(10) 0.2084(3)
O12 O 1.0660(4) 0.04591(10) 0.1283(3)
K1 K 1.53689(11) 0.07273(3) 0.30177(10)
K2 K 1.77640(11) 0.00031(3) 1.05163(11)
O13 O 1.8666(4) -0.04356(10) 1.3511(3)
O14 O 1.7906(4) 0.02519(11) 0.5275(3)
H9 H 1.830(7) -0.0690(7) 1.364(6)
H10 H 1.836(7) -0.0235(11) 1.403(6)
H11 H 1.887(3) 0.0334(19) 0.575(5)
H12 H 1.741(5) 0.0186(19) 0.595(4)
O7B O 1.4182(4) -0.01568(9) 0.2681(3)
O8_2 O 1.4901(3) 0.05330(9) -0.0164(3)
O8B O 1.5099(3) -0.05330(9) 1.0164(3)
O11_2 O 1.8107(3) 0.08635(10) 0.2084(3)
O12_2 O 2.0660(4) 0.04591(10) 1.1283(3)
O12B O 1.9340(4) -0.04591(10) 0.8717(3)
K1B K 1.46311(11) -0.07273(3) 0.69823(10)
K1_2 K 1.53689(11) 0.07273(3) 1.30177(10)
K1_3 K 0.53689(11) 0.07273(3) 0.30177(10)
K2B K 1.22360(11) -0.00031(3) 0.94837(11)
K2_2 K 0.77640(11) 0.00031(3) 0.05163(11)
K2B_2 K 1.22360(11) -0.00031(3) -0.05163(11)
O15 O 0.6939(5) 0.20611(15) 0.1626(5)
H13 H 0.701(7) 0.2209(16) 0.081(4)
H14 H 0.770(5) 0.1862(15) 0.186(6)
loop_
_geom_bond_atom_site_label_1
_geom_bond_atom_site_label_2
_geom_bond_site_symmetry_1
_geom_bond_site_symmetry_2
Mo1 Mo2 1_555 1_555
Mo2 N3 1_555 1_555
N1 Mo1 1_555 1_555
N2 H1 1_555 1_555
N3 C4 1_555 1_555
N4 H2 1_555 1_555
C1 N1 1_555 1_555
H3 C1 1_555 1_555
C2 N2 1_555 1_555
H4 C2 1_555 1_555
C3 N1 1_555 1_555
H5 C3 1_555 1_555
C4 H6 1_555 1_555
C5 N3 1_555 1_555
H7 C5 1_555 1_555
C6 N4 1_555 1_555
H8 C6 1_555 1_555
C7 C8 1_555 1_555
C8 O10 1_555 1_555
C9 C10 1_555 1_555
C10 O5 1_555 1_555
O1 Mo1 1_555 1_555
O2 Mo1 1_555 1_555
O3 Mo1 1_555 1_555
O4 Mo2 1_555 1_555
O5 Mo1 1_555 1_555
O6 Mo1 1_555 1_555
O7 C9 1_555 1_555
O8 C10 1_555 1_555
O9 Mo2 1_555 1_555
O10 Mo2 1_555 1_555
O11 C7 1_555 1_555
O12 C8 1_555 1_555
K1 O6 1_555 1_555
K2 O7 1_555 1_555
O13 K2 1_555 1_555
O14 K1 1_555 1_555
H9 O13 1_555 1_555
H10 O13 1_555 1_555
H11 O14 1_555 1_555
H12 O14 1_555 1_555
O15 H13 1_555 1_555
H14 O15 1_555 1_555
O7B K1 1_555 1_555
O8_2 K1 1_555 1_555
O8B K2 1_555 1_555
O11_2 K1 1_555 1_555
O12_2 K2 1_555 1_555
O12B K2 1_555 1_555
K1B O7 1_555 1_555
K1_2 O8 1_555 1_555
K1_3 O11 1_555 1_555
K2B O8 1_555 1_555
K2_2 O12 1_555 1_555
K2B_2 O12 1_555 1_555
Mo2 O1 1_555 1_555
Mo2 O2 1_555 1_555
N2 C1 1_555 1_555
N4 C5 1_555 1_555
C2 C3 1_555 1_555
C4 C6 1_555 1_555
C7 O9 1_555 1_555
C9 O6 1_555 1_555
O8 K2 1_555 1_555
O10 K1 1_555 1_555
O7B K2B_2 1_555 1_555
O8_2 K2B_2 1_555 1_555
O8B K1B 1_555 1_555
O8B K2B 1_555 1_555

#END
