
#######################################################################
#
#                 Cambridge Crystallographic Data Centre
#                                CCDC 
#
#######################################################################
#
# If this CIF has been generated from an entry in the Cambridge 
# Structural Database, then it will include bibliographic, chemical, 
# crystal, experimental, refinement or atomic coordinate data resulting 
# from the CCDC's data processing and validation procedures.
#
#######################################################################

data_LELMOG
_symmetry_cell_setting           triclinic
_symmetry_space_group_name_H-M   'P -1'
_symmetry_Int_Tables_number      2
_space_group_name_Hall           '-P 1'
loop_
_symmetry_equiv_pos_site_id
_symmetry_equiv_pos_as_xyz
1 x,y,z
2 -x,-y,-z
_cell_length_a                   8.7258(11)
_cell_length_b                   10.6743(6)
_cell_length_c                   11.7457(11)
_cell_angle_alpha                65.623(12)
_cell_angle_beta                 78.885(14)
_cell_angle_gamma                76.553(14)
_cell_volume                     963.362
loop_
_atom_site_label
_atom_site_type_symbol
_atom_site_fract_x
_atom_site_fract_y
_atom_site_fract_z
Cd1 Cd 0.29033(4) 0.49218(4) -0.15435(3)
S1 S 0.34677(13) 0.13042(13) 0.34985(10)
S2 S 0.69416(14) 0.04820(13) 0.34687(11)
N1 N 0.5259(4) 0.5296(4) -0.2905(3)
N2 N 0.2307(4) 0.6474(4) -0.3580(3)
C1 C 0.4643(5) 0.2087(4) 0.2094(4)
C2 C 0.6213(5) 0.1717(5) 0.2082(4)
C3 C 0.5082(5) 0.0368(5) 0.4378(4)
C4 C 0.3728(6) 0.3069(5) 0.1018(4)
C5 C 0.7473(5) 0.2235(5) 0.0985(4)
C6 C 0.6706(6) 0.4692(5) -0.2533(4)
H1 H 0.6791 0.4159 -0.1674
C7 C 0.8072(6) 0.4820(5) -0.3359(5)
H2 H 0.9069 0.4380 -0.3071
C8 C 0.7941(6) 0.5601(6) -0.4601(5)
H3 H 0.8853 0.5710 -0.5186
C9 C 0.6459(6) 0.6231(6) -0.4998(4)
H4 H 0.6356 0.6766 -0.5855
C10 C 0.5131(5) 0.6072(5) -0.4130(4)
C11 C 0.0845(6) 0.7104(5) -0.3871(5)
H5 H 0.0001 0.6928 -0.3227
C12 C 0.0507(6) 0.8004(6) -0.5072(5)
H6 H -0.0540 0.8429 -0.5242
C13 C 0.1744(6) 0.8257(6) -0.6006(5)
H7 H 0.1557 0.8855 -0.6836
C14 C 0.3268(6) 0.7625(5) -0.5717(4)
H8 H 0.4129 0.7796 -0.6347
C15 C 0.3516(5) 0.6740(5) -0.4497(4)
O1 O 0.2247(4) 0.3223(4) 0.1214(3)
O2 O 0.4509(4) 0.3640(4) -0.0024(3)
O3 O 0.7966(4) 0.1493(4) 0.0358(3)
O4 O 0.7998(4) 0.3298(3) 0.0822(3)
O5 O 0.0242(4) 0.4635(4) -0.1179(3)
O6 O 0.3176(4) 0.2883(4) -0.1900(3)
H10 H -0.009(8) 0.395(5) -0.057(4)
H12 H 0.387(5) 0.222(4) -0.151(5)
H13 H -0.045(4) 0.535(3) -0.122(4)
H16 H 0.239(6) 0.245(7) -0.164(6)
Cd1A Cd 0.70967(4) -0.49218(4) 1.15435(3)
Cd1_2 Cd 0.29033(4) -0.50782(4) 0.84565(3)
Cd1A_2 Cd 0.70967(4) 0.50782(4) 0.15435(3)
S1A S 0.65323(13) -0.13042(13) 0.65015(10)
S2A S 0.30584(14) -0.04820(13) 0.65313(11)
N1A N 0.4741(4) -0.5296(4) 1.2905(3)
N2A N 0.7693(4) -0.6474(4) 1.3580(3)
C1A C 0.5357(5) -0.2087(4) 0.7906(4)
C2A C 0.3787(5) -0.1717(5) 0.7918(4)
C3A C 0.4918(5) -0.0368(5) 0.5622(4)
C4A C 0.6272(6) -0.3069(5) 0.8982(4)
C5A C 0.2527(5) -0.2235(5) 0.9015(4)
C6A C 0.3294(6) -0.4692(5) 1.2533(4)
H1A H 0.3209 -0.4159 1.1674
C7A C 0.1928(6) -0.4820(5) 1.3359(5)
H2A H 0.0931 -0.4380 1.3071
C8A C 0.2059(6) -0.5601(6) 1.4601(5)
H3A H 0.1147 -0.5710 1.5186
C9A C 0.3541(6) -0.6231(6) 1.4998(4)
H4A H 0.3644 -0.6766 1.5855
C10A C 0.4869(5) -0.6072(5) 1.4130(4)
C11A C 0.9155(6) -0.7104(5) 1.3871(5)
H5A H 0.9999 -0.6928 1.3227
C12A C 0.9493(6) -0.8004(6) 1.5072(5)
H6A H 1.0540 -0.8429 1.5242
C13A C 0.8256(6) -0.8257(6) 1.6006(5)
H7A H 0.8443 -0.8855 1.6836
C14A C 0.6732(6) -0.7625(5) 1.5717(4)
H8A H 0.5871 -0.7796 1.6347
C15A C 0.6484(5) -0.6740(5) 1.4497(4)
O1A O 0.7753(4) -0.3223(4) 0.8786(3)
O2A O 0.5491(4) -0.3640(4) 1.0024(3)
O3A O 0.2034(4) -0.1493(4) 0.9642(3)
O4A O 0.2002(4) -0.3298(3) 0.9178(3)
O4_2 O 0.7998(4) -0.6702(3) 1.0822(3)
O4A_2 O 0.2002(4) 0.6702(3) -0.0822(3)
O5A O 0.9758(4) -0.4635(4) 1.1179(3)
O6A O 0.6824(4) -0.2883(4) 1.1900(3)
H10A H 1.009(8) -0.395(5) 1.057(4)
H12A H 0.613(5) -0.222(4) 1.151(5)
H13A H 1.045(4) -0.535(3) 1.122(4)
H16A H 0.761(6) -0.245(7) 1.164(6)
O7 O 0.0659(6) 0.1541(5) -0.1418(5)
H9 H 0.111(7) 0.069(3) -0.112(6)
H15 H -0.016(7) 0.153(11) -0.089(7)
O8 O 0.5825(5) 0.1012(5) -0.0948(4)
H11 H 0.633(6) 0.135(5) -0.064(5)
H14 H 0.591(15) 0.018(5) -0.087(11)
O9 O 0.1447(11) 0.0801(9) 0.1245(8)
loop_
_geom_bond_atom_site_label_1
_geom_bond_atom_site_label_2
_geom_bond_site_symmetry_1
_geom_bond_site_symmetry_2
Cd1 N1 1_555 1_555
S1 C1 1_555 1_555
S2 C2 1_555 1_555
N1 C6 1_555 1_555
N2 Cd1 1_555 1_555
C1 C2 1_555 1_555
C2 C5 1_555 1_555
C3 S1 1_555 1_555
C4 C1 1_555 1_555
C5 O3 1_555 1_555
C6 H1 1_555 1_555
C7 C6 1_555 1_555
H2 C7 1_555 1_555
C8 C7 1_555 1_555
H3 C8 1_555 1_555
C9 C8 1_555 1_555
H4 C9 1_555 1_555
C10 N1 1_555 1_555
C11 N2 1_555 1_555
H5 C11 1_555 1_555
C12 C11 1_555 1_555
H6 C12 1_555 1_555
C13 C12 1_555 1_555
H7 C13 1_555 1_555
C14 C13 1_555 1_555
H8 C14 1_555 1_555
C15 N2 1_555 1_555
O1 C4 1_555 1_555
O2 Cd1 1_555 1_555
O4 C5 1_555 1_555
O5 Cd1 1_555 1_555
O6 Cd1 1_555 1_555
O7 H9 1_555 1_555
O8 H11 1_555 1_555
H10 O5 1_555 1_555
H12 O6 1_555 1_555
H13 O5 1_555 1_555
H14 O8 1_555 1_555
H15 O7 1_555 1_555
H16 O6 1_555 1_555
Cd1A N1A 1_555 1_555
Cd1_2 O4A 1_555 1_555
Cd1A_2 O4 1_555 1_555
S1A C1A 1_555 1_555
S2A C2A 1_555 1_555
N1A C6A 1_555 1_555
N2A Cd1A 1_555 1_555
C1A C2A 1_555 1_555
C2A C5A 1_555 1_555
C3A C3 1_555 1_555
C4A C1A 1_555 1_555
C5A O3A 1_555 1_555
C6A H1A 1_555 1_555
C7A C6A 1_555 1_555
H2A C7A 1_555 1_555
C8A C7A 1_555 1_555
H3A C8A 1_555 1_555
C9A C8A 1_555 1_555
H4A C9A 1_555 1_555
C10A N1A 1_555 1_555
C11A N2A 1_555 1_555
H5A C11A 1_555 1_555
C12A C11A 1_555 1_555
H6A C12A 1_555 1_555
C13A C12A 1_555 1_555
H7A C13A 1_555 1_555
C14A C13A 1_555 1_555
H8A C14A 1_555 1_555
C15A N2A 1_555 1_555
O1A C4A 1_555 1_555
O2A Cd1A 1_555 1_555
O4A C5A 1_555 1_555
O4_2 Cd1A 1_555 1_555
O4A_2 Cd1 1_555 1_555
O5A Cd1A 1_555 1_555
O6A Cd1A 1_555 1_555
H10A O5A 1_555 1_555
H12A O6A 1_555 1_555
H13A O5A 1_555 1_555
H16A O6A 1_555 1_555
S2 C3 1_555 1_555
C4 O2 1_555 1_555
C9 C10 1_555 1_555
C10 C15 1_555 1_555
C14 C15 1_555 1_555
S1A C3A 1_555 1_555
S2A C3A 1_555 1_555
C4A O2A 1_555 1_555
C9A C10A 1_555 1_555
C10A C15A 1_555 1_555
C14A C15A 1_555 1_555

#END
