
#######################################################################
#
#                 Cambridge Crystallographic Data Centre
#                                CCDC 
#
#######################################################################
#
# If this CIF has been generated from an entry in the Cambridge 
# Structural Database, then it will include bibliographic, chemical, 
# crystal, experimental, refinement or atomic coordinate data resulting 
# from the CCDC's data processing and validation procedures.
#
#######################################################################

data_LELMUM
_symmetry_cell_setting           monoclinic
_symmetry_space_group_name_H-M   'C 2/c'
_symmetry_Int_Tables_number      15
_space_group_name_Hall           '-C 2yn'
loop_
_symmetry_equiv_pos_site_id
_symmetry_equiv_pos_as_xyz
1 x,y,z
2 -x,y,1/2-z
3 1/2+x,1/2+y,z
4 1/2-x,1/2+y,1/2-z
5 -x,-y,-z
6 x,-y,1/2+z
7 1/2-x,1/2-y,-z
8 1/2+x,1/2-y,1/2+z
_cell_length_a                   10.7360(13)
_cell_length_b                   23.426(3)
_cell_length_c                   16.561(2)
_cell_angle_alpha                90
_cell_angle_beta                 95.698(4)
_cell_angle_gamma                90
_cell_volume                     4144.54
loop_
_atom_site_label
_atom_site_type_symbol
_atom_site_fract_x
_atom_site_fract_y
_atom_site_fract_z
O7 O 1.0000 0.2997(4) -0.2500
H16 H 1.059(7) 0.323(3) -0.244(4)
H16A H 0.941(7) 0.323(3) -0.256(4)
Cd1 Cd 1.12306(5) 0.05718(2) 0.03029(3)
S1 S 0.77212(19) 0.16197(7) -0.04133(10)
S2 S 0.73101(19) 0.21073(7) 0.11858(10)
N1 N 1.0946(6) 0.1566(3) 0.0446(4)
N2 N 1.1463(6) 0.1011(2) -0.0916(3)
C1 C 0.7773(6) 0.1149(3) 0.0403(4)
C2 C 0.7583(6) 0.1372(3) 0.1130(4)
C3 C 0.7505(7) 0.2239(3) 0.0157(4)
C4 C 0.7945(7) 0.0524(3) 0.0218(4)
C5 C 0.7621(6) 0.1051(3) 0.1919(3)
C6 C 1.0752(8) 0.1820(4) 0.1143(5)
H1 H 1.0705 0.1594 0.1600
C7 C 1.0621(9) 0.2395(4) 0.1218(6)
H2 H 1.0504 0.2559 0.1716
C8 C 1.0667(9) 0.2734(4) 0.0527(7)
H3 H 1.0573 0.3128 0.0555
C9 C 1.0855(8) 0.2473(3) -0.0196(6)
H4 H 1.0868 0.2688 -0.0666
C10 C 1.1025(7) 0.1884(3) -0.0217(5)
C11 C 1.1717(8) 0.0732(3) -0.1575(5)
H5 H 1.1852 0.0341 -0.1534
C12 C 1.1795(9) 0.0989(4) -0.2327(5)
H6 H 1.1963 0.0776 -0.2778
C13 C 1.1618(11) 0.1563(4) -0.2377(5)
H7 H 1.1687 0.1752 -0.2864
C14 C 1.1330(9) 0.1868(4) -0.1691(5)
H8 H 1.1172 0.2258 -0.1725
C15 C 1.1285(7) 0.1582(3) -0.0965(4)
C16 C 1.4225(13) 0.0887(6) 0.0775(8)
H9 H 1.4163 0.1299 0.0728
H10 H 1.4898 0.0814 0.1198
C17 C 1.4729(17) 0.0694(8) 0.0000(11)
H11 H 1.4734 0.1010 -0.0368
H12 H 1.5567 0.0553 0.0120
H13 H 1.4207 0.0395 -0.0245
O1 O 0.8978(5) 0.0390(2) -0.0017(3)
O2 O 0.7074(5) 0.0193(2) 0.0272(3)
O3 O 0.8260(5) 0.0599(2) 0.1985(3)
O4 O 0.7054(5) 0.1272(2) 0.2465(3)
O5 O 1.3094(5) 0.0712(3) 0.1119(3)
O6 O 1.0599(6) 0.0362(3) 0.1537(3)
H14 H 1.079(12) 0.017(5) 0.197(5)
H15 H 0.984(4) 0.044(5) 0.160(7)
H17 H 1.260(7) 0.099(3) 0.116(6)
Cd1F Cd 0.37694(5) 0.44282(2) -0.03029(3)
Cd1D Cd 0.87694(5) -0.05718(2) -0.03029(3)
Cd1B Cd 0.62306(5) 0.55718(2) 0.03029(3)
S1F S 0.72788(19) 0.33803(7) 0.04133(10)
S2F S 0.76899(19) 0.28927(7) -0.11858(10)
N1F N 0.4054(6) 0.3434(3) -0.0446(4)
N2F N 0.3537(6) 0.3989(2) 0.0916(3)
C1F C 0.7227(6) 0.3851(3) -0.0403(4)
C2F C 0.7417(6) 0.3628(3) -0.1130(4)
C3F C 0.7495(7) 0.2761(3) -0.0157(4)
C4F C 0.7055(7) 0.4476(3) -0.0218(4)
C5F C 0.7379(6) 0.3949(3) -0.1919(3)
C6F C 0.4248(8) 0.3180(4) -0.1143(5)
H1F H 0.4295 0.3406 -0.1600
C7F C 0.4379(9) 0.2605(4) -0.1218(6)
H2F H 0.4496 0.2441 -0.1716
C8F C 0.4333(9) 0.2266(4) -0.0527(7)
H3F H 0.4427 0.1872 -0.0555
C9F C 0.4145(8) 0.2527(3) 0.0196(6)
H4F H 0.4132 0.2312 0.0666
C10F C 0.3975(7) 0.3116(3) 0.0217(5)
C11F C 0.3283(8) 0.4268(3) 0.1575(5)
H5F H 0.3148 0.4659 0.1534
C12F C 0.3205(9) 0.4011(4) 0.2327(5)
H6F H 0.3037 0.4224 0.2778
C13F C 0.3382(11) 0.3437(4) 0.2377(5)
H7F H 0.3313 0.3248 0.2864
C14F C 0.3670(9) 0.3132(4) 0.1691(5)
H8F H 0.3828 0.2742 0.1725
C15F C 0.3715(7) 0.3418(3) 0.0965(4)
C16F C 0.0775(13) 0.4113(6) -0.0775(8)
H9F H 0.0837 0.3701 -0.0728
H10F H 0.0102 0.4186 -0.1198
C17F C 0.0271(17) 0.4306(8) 0.0000(11)
H11F H 0.0266 0.3990 0.0368
H12F H -0.0567 0.4447 -0.0120
H13F H 0.0793 0.4605 0.0245
O1F O 0.6022(5) 0.4610(2) 0.0017(3)
O1D O 1.1022(5) -0.0390(2) 0.0017(3)
O1B O 0.3978(5) 0.5390(2) -0.0017(3)
O2F O 0.7926(5) 0.4807(2) -0.0272(3)
O3F O 0.6740(5) 0.4401(2) -0.1985(3)
O4F O 0.7946(5) 0.3728(2) -0.2465(3)
O5F O 0.1906(5) 0.4288(3) -0.1119(3)
O6F O 0.4401(6) 0.4638(3) -0.1537(3)
H14F H 0.421(12) 0.483(5) -0.197(5)
H15F H 0.516(4) 0.456(5) -0.160(7)
H17F H 0.240(7) 0.401(3) -0.116(6)
O8? O -0.012(3) 0.3407(5) 0.2403(17)
C18? C -0.015(3) 0.4877(14) 0.2192(18)
O9? O -0.001(3) 0.4310(6) 0.2641(13)
loop_
_geom_bond_atom_site_label_1
_geom_bond_atom_site_label_2
_geom_bond_site_symmetry_1
_geom_bond_site_symmetry_2
Cd1 N1 1_555 1_555
S1 C1 1_555 1_555
S2 C2 1_555 1_555
N1 C6 1_555 1_555
N2 Cd1 1_555 1_555
C1 C2 1_555 1_555
C2 C5 1_555 1_555
C3 S1 1_555 1_555
C4 C1 1_555 1_555
C5 O3 1_555 1_555
C6 H1 1_555 1_555
C7 C6 1_555 1_555
H2 C7 1_555 1_555
C8 C7 1_555 1_555
H3 C8 1_555 1_555
C9 C8 1_555 1_555
H4 C9 1_555 1_555
C10 N1 1_555 1_555
C11 N2 1_555 1_555
H5 C11 1_555 1_555
C12 C11 1_555 1_555
H6 C12 1_555 1_555
C13 C12 1_555 1_555
H7 C13 1_555 1_555
C14 C13 1_555 1_555
H8 C14 1_555 1_555
C15 N2 1_555 1_555
C16 H9 1_555 1_555
H10 C16 1_555 1_555
C17 C16 1_555 1_555
H11 C17 1_555 1_555
H12 C17 1_555 1_555
H13 C17 1_555 1_555
O1 Cd1 1_555 1_555
O2 C4 1_555 1_555
O4 C5 1_555 1_555
O5 Cd1 1_555 1_555
O6 Cd1 1_555 1_555
O7 H16 1_555 1_555
H14 O6 1_555 1_555
H15 O6 1_555 1_555
H17 O5 1_555 1_555
Cd1F N1F 1_555 1_555
Cd1D O1 1_555 1_555
Cd1B O1F 1_555 1_555
S1F C1F 1_555 1_555
S2F C2F 1_555 1_555
N1F C6F 1_555 1_555
N2F Cd1F 1_555 1_555
C1F C2F 1_555 1_555
C2F C5F 1_555 1_555
C3F C3 1_555 1_555
C4F C1F 1_555 1_555
C5F O3F 1_555 1_555
C6F H1F 1_555 1_555
C7F C6F 1_555 1_555
H2F C7F 1_555 1_555
C8F C7F 1_555 1_555
H3F C8F 1_555 1_555
C9F C8F 1_555 1_555
H4F C9F 1_555 1_555
C10F N1F 1_555 1_555
C11F N2F 1_555 1_555
H5F C11F 1_555 1_555
C12F C11F 1_555 1_555
H6F C12F 1_555 1_555
C13F C12F 1_555 1_555
H7F C13F 1_555 1_555
C14F C13F 1_555 1_555
H8F C14F 1_555 1_555
C15F N2F 1_555 1_555
C16F H9F 1_555 1_555
H10F C16F 1_555 1_555
C17F C16F 1_555 1_555
H11F C17F 1_555 1_555
H12F C17F 1_555 1_555
H13F C17F 1_555 1_555
O1F Cd1F 1_555 1_555
O1D Cd1 1_555 1_555
O1B Cd1F 1_555 1_555
O2F C4F 1_555 1_555
O4F C5F 1_555 1_555
O5F Cd1F 1_555 1_555
O6F Cd1F 1_555 1_555
H14F O6F 1_555 1_555
H15F O6F 1_555 1_555
H16A O7 1_555 1_555
H17F O5F 1_555 1_555
S2 C3 1_555 1_555
C4 O1 1_555 1_555
C9 C10 1_555 1_555
C10 C15 1_555 1_555
C14 C15 1_555 1_555
C16 O5 1_555 1_555
Cd1D O1D 1_555 1_555
Cd1B O1B 1_555 1_555
S1F C3F 1_555 1_555
S2F C3F 1_555 1_555
C4F O1F 1_555 1_555
C9F C10F 1_555 1_555
C10F C15F 1_555 1_555
C14F C15F 1_555 1_555
C16F O5F 1_555 1_555

#END
