
#######################################################################
#
#                 Cambridge Crystallographic Data Centre
#                                CCDC 
#
#######################################################################
#
# If this CIF has been generated from an entry in the Cambridge 
# Structural Database, then it will include bibliographic, chemical, 
# crystal, experimental, refinement or atomic coordinate data resulting 
# from the CCDC's data processing and validation procedures.
#
#######################################################################

data_LELNAT
_symmetry_cell_setting           monoclinic
_symmetry_space_group_name_H-M   'C 2/c'
_symmetry_Int_Tables_number      15
_space_group_name_Hall           '-C 2yn'
loop_
_symmetry_equiv_pos_site_id
_symmetry_equiv_pos_as_xyz
1 x,y,z
2 -x,y,1/2-z
3 1/2+x,1/2+y,z
4 1/2-x,1/2+y,1/2-z
5 -x,-y,-z
6 x,-y,1/2+z
7 1/2-x,1/2-y,-z
8 1/2+x,1/2-y,1/2+z
_cell_length_a                   10.8173(18)
_cell_length_b                   23.278(4)
_cell_length_c                   16.465(3)
_cell_angle_alpha                90
_cell_angle_beta                 97.660(5)
_cell_angle_gamma                90
_cell_volume                     4108.97
loop_
_atom_site_label
_atom_site_type_symbol
_atom_site_fract_x
_atom_site_fract_y
_atom_site_fract_z
Cd1 Cd 0.62119(6) 0.44196(3) 0.53396(4)
S1 S 0.7257(2) 0.66200(10) 0.54326(13)
S2 S 0.7677(2) 0.70928(10) 0.38194(13)
N1 N 0.5894(7) 0.3430(3) 0.5522(4)
N2 N 0.6397(7) 0.3949(3) 0.4120(4)
C1 C 0.7246(7) 0.6138(3) 0.4613(4)
C2 C 0.7417(8) 0.6353(4) 0.3886(5)
C3 C 0.7488(8) 0.7238(4) 0.4849(5)
C4 C 0.7379(9) 0.6032(4) 0.3090(5)
C5 C 0.7038(8) 0.5520(4) 0.4818(5)
C6 C 0.5695(8) 0.3171(4) 0.6206(6)
H1 H 0.5642 0.3398 0.6673
C7 C 0.5559(9) 0.2573(5) 0.6270(6)
H2 H 0.5428 0.2404 0.6770
C8 C 0.5623(9) 0.2247(4) 0.5595(7)
H3 H 0.5503 0.1847 0.5622
C9 C 0.5858(8) 0.2491(4) 0.4873(6)
C10 C 0.6008(8) 0.3090(4) 0.4865(5)
C11 C 0.6648(9) 0.4209(4) 0.3431(6)
H4 H 0.6762 0.4610 0.3433
C12 C 0.6746(10) 0.3902(5) 0.2713(5)
H5 H 0.6914 0.4095 0.2238
C13 C 0.6594(9) 0.3318(5) 0.2705(6)
H6 H 0.6652 0.3107 0.2224
C14 C 0.6355(8) 0.3039(4) 0.3414(6)
C15 C 0.6254(8) 0.3368(4) 0.4116(5)
C16 C 0.5971(9) 0.2168(4) 0.4151(6)
H7 H 0.5887 0.1766 0.4159
C17 C 0.6197(9) 0.2431(4) 0.3458(6)
H8 H 0.6252 0.2208 0.2989
O1 O 0.6030(6) 0.5394(3) 0.5075(4)
O2 O 0.7860(7) 0.5168(3) 0.4745(4)
O3 O 0.6790(6) 0.5567(3) 0.3025(3)
O4 O 0.7914(6) 0.6266(3) 0.2557(4)
O5 O 0.8103(6) 0.4303(3) 0.6155(4)
O6 O 0.5537(6) 0.4640(3) 0.6560(3)
Cd1F Cd 0.87881(6) 1.05804(3) 0.46604(4)
Cd1D Cd 0.37881(6) 0.55804(3) 0.46604(4)
Cd1B Cd 1.12119(6) 0.94196(3) 0.53396(4)
S1F S 0.7743(2) 0.83800(10) 0.45674(13)
S2F S 0.7323(2) 0.79072(10) 0.61806(13)
N1F N 0.9106(7) 1.1570(3) 0.4478(4)
N2F N 0.8603(7) 1.1051(3) 0.5880(4)
C1F C 0.7754(7) 0.8862(3) 0.5387(4)
C2F C 0.7583(8) 0.8647(4) 0.6114(5)
C3F C 0.7512(8) 0.7762(4) 0.5151(5)
C4F C 0.7621(9) 0.8968(4) 0.6910(5)
C5F C 0.7962(8) 0.9480(4) 0.5182(5)
C6F C 0.9305(8) 1.1829(4) 0.3794(6)
H1F H 0.9358 1.1602 0.3327
C7F C 0.9441(9) 1.2427(5) 0.3730(6)
H2F H 0.9572 1.2596 0.3230
C8F C 0.9377(9) 1.2753(4) 0.4405(7)
H3F H 0.9497 1.3153 0.4378
C9F C 0.9142(8) 1.2509(4) 0.5127(6)
C10F C 0.8992(8) 1.1910(4) 0.5135(5)
C11F C 0.8352(9) 1.0791(4) 0.6569(6)
H4F H 0.8238 1.0390 0.6567
C12F C 0.8254(10) 1.1098(5) 0.7287(5)
H5F H 0.8086 1.0905 0.7762
C13F C 0.8406(9) 1.1682(5) 0.7295(6)
H6F H 0.8348 1.1893 0.7776
C14F C 0.8645(8) 1.1961(4) 0.6586(6)
C15F C 0.8746(8) 1.1632(4) 0.5884(5)
C16F C 0.9029(9) 1.2832(4) 0.5849(6)
H7F H 0.9113 1.3234 0.5841
C17F C 0.8803(9) 1.2569(4) 0.6542(6)
H8F H 0.8748 1.2792 0.7011
O1F O 0.8970(6) 0.9606(3) 0.4925(4)
O1D O 0.3970(6) 0.4606(3) 0.4925(4)
O1B O 1.1030(6) 1.0394(3) 0.5075(4)
O2F O 0.7140(7) 0.9832(3) 0.5255(4)
O3F O 0.8210(6) 0.9433(3) 0.6975(3)
O4F O 0.7086(6) 0.8734(3) 0.7443(4)
O5F O 0.6897(6) 1.0697(3) 0.3845(4)
O6F O 0.9463(6) 1.0360(3) 0.3440(3)
O7 O 0.0259(15) 0.4237(8) 0.0169(19)
O8 O 0.0281(17) 0.4912(14) 0.1336(15)
C18 C -0.083(3) 0.4596(18) 0.189(2)
loop_
_geom_bond_atom_site_label_1
_geom_bond_atom_site_label_2
_geom_bond_site_symmetry_1
_geom_bond_site_symmetry_2
Cd1 N1 1_555 1_555
S1 C1 1_555 1_555
S2 C2 1_555 1_555
N1 C6 1_555 1_555
N2 Cd1 1_555 1_555
C1 C2 1_555 1_555
C2 C4 1_555 1_555
C3 S1 1_555 1_555
C4 O3 1_555 1_555
C5 C1 1_555 1_555
C6 H1 1_555 1_555
C7 C6 1_555 1_555
H2 C7 1_555 1_555
C8 C7 1_555 1_555
H3 C8 1_555 1_555
C9 C8 1_555 1_555
C10 N1 1_555 1_555
C11 N2 1_555 1_555
H4 C11 1_555 1_555
C12 C11 1_555 1_555
H5 C12 1_555 1_555
C13 C12 1_555 1_555
H6 C13 1_555 1_555
C14 C13 1_555 1_555
C15 N2 1_555 1_555
C16 C9 1_555 1_555
H7 C16 1_555 1_555
C17 C14 1_555 1_555
H8 C17 1_555 1_555
O1 Cd1 1_555 1_555
O2 Cd1 1_555 1_555
O4 C4 1_555 1_555
O5 Cd1 1_555 1_555
O6 Cd1 1_555 1_555
O8 C18 1_555 1_555
Cd1F N1F 1_555 1_555
Cd1D O1 1_555 1_555
Cd1B O1F 1_555 1_555
S1F C1F 1_555 1_555
S2F C2F 1_555 1_555
N1F C6F 1_555 1_555
N2F Cd1F 1_555 1_555
C1F C2F 1_555 1_555
C2F C4F 1_555 1_555
C3F C3 1_555 1_555
C4F O3F 1_555 1_555
C5F C1F 1_555 1_555
C6F H1F 1_555 1_555
C7F C6F 1_555 1_555
H2F C7F 1_555 1_555
C8F C7F 1_555 1_555
H3F C8F 1_555 1_555
C9F C8F 1_555 1_555
C10F N1F 1_555 1_555
C11F N2F 1_555 1_555
H4F C11F 1_555 1_555
C12F C11F 1_555 1_555
H5F C12F 1_555 1_555
C13F C12F 1_555 1_555
H6F C13F 1_555 1_555
C14F C13F 1_555 1_555
C15F N2F 1_555 1_555
C16F C9F 1_555 1_555
H7F C16F 1_555 1_555
C17F C14F 1_555 1_555
H8F C17F 1_555 1_555
O1F Cd1F 1_555 1_555
O1D Cd1 1_555 1_555
O1B Cd1F 1_555 1_555
O2F Cd1F 1_555 1_555
O4F C4F 1_555 1_555
O5F Cd1F 1_555 1_555
O6F Cd1F 1_555 1_555
S2 C3 1_555 1_555
C5 O1 1_555 1_555
C5 O2 1_555 1_555
C9 C10 1_555 1_555
C10 C15 1_555 1_555
C14 C15 1_555 1_555
C16 C17 1_555 1_555
Cd1D O1D 1_555 1_555
Cd1B O1B 1_555 1_555
S1F C3F 1_555 1_555
S2F C3F 1_555 1_555
C5F O1F 1_555 1_555
C5F O2F 1_555 1_555
C9F C10F 1_555 1_555
C10F C15F 1_555 1_555
C14F C15F 1_555 1_555
C16F C17F 1_555 1_555

#END
