
#######################################################################
#
#                 Cambridge Crystallographic Data Centre
#                                CCDC 
#
#######################################################################
#
# If this CIF has been generated from an entry in the Cambridge 
# Structural Database, then it will include bibliographic, chemical, 
# crystal, experimental, refinement or atomic coordinate data resulting 
# from the CCDC's data processing and validation procedures.
#
#######################################################################

data_LELTUT
_symmetry_cell_setting           orthorhombic
_symmetry_space_group_name_H-M   'P 21 21 21'
_symmetry_Int_Tables_number      19
_space_group_name_Hall           'P 2ac 2ab'
loop_
_symmetry_equiv_pos_site_id
_symmetry_equiv_pos_as_xyz
1 x,y,z
2 1/2-x,-y,1/2+z
3 1/2+x,1/2-y,-z
4 -x,1/2+y,1/2-z
_cell_length_a                   13.536
_cell_length_b                   9.938
_cell_length_c                   16.885
_cell_angle_alpha                90
_cell_angle_beta                 90
_cell_angle_gamma                90
_cell_volume                     2271.38
loop_
_atom_site_label
_atom_site_type_symbol
_atom_site_fract_x
_atom_site_fract_y
_atom_site_fract_z
Cd1 Cd 0.79461(3) 0.51728(4) 0.53507(3)
O1 O 0.9530(3) 0.5130(4) 0.4867(3)
N1 N 0.7635(4) 0.3102(5) 0.4857(4)
N2 N 0.8612(4) 0.7331(5) 0.5486(4)
O2 O 1.0970(4) 0.6150(5) 0.4977(4)
N3 N 0.7029(5) 0.1102(5) 0.4655(4)
H1 H 0.6646 0.0416 0.4698
C1 C 0.9567(5) 0.7421(6) 0.5269(4)
C2 C 1.0058(5) 0.6114(6) 0.5010(4)
N4 N 0.8399(4) 0.4337(6) 0.6552(4)
C3 C 0.6936(6) 0.2253(6) 0.5058(5)
N5 N 0.8547(5) 0.3631(7) 0.7774(4)
H2 H 0.8462 0.3563 0.8277
C4 C 0.8151(5) 0.8410(7) 0.5767(5)
H3 H 0.7487 0.8342 0.5902
C5 C 0.8062(6) 0.4497(7) 0.7280(5)
C6 C 0.8197(6) 0.2434(7) 0.4299(5)
H4 H 0.8752 0.2790 0.4050
C7 C 0.6160(6) 0.2487(8) 0.5664(6)
H5 H 0.5523 0.2257 0.5437
H6 H 0.6148 0.3438 0.5793
C8 C 0.9088(6) 0.3326(8) 0.6583(5)
H7 H 0.9433 0.2990 0.6150
C9 C 0.7829(7) 0.1192(7) 0.4165(5)
C10 C 0.9189(6) 0.2893(9) 0.7331(6)
C11 C 0.7311(7) 0.5473(10) 0.7542(6)
H8 H 0.7206 0.6125 0.7123
H9 H 0.7562 0.5953 0.8000
C12 C 0.6301(7) 0.1691(9) 0.6419(6)
H10 H 0.6302 0.0747 0.6299
H11 H 0.5771 0.1887 0.6779
H12 H 0.6919 0.1934 0.6658
C13 C 0.8161(8) 0.0064(11) 0.3647(6)
H13 H 0.8099 -0.0771 0.3929
H14 H 0.8839 0.0201 0.3501
H15 H 0.7759 0.0036 0.3179
C14 C 0.6344(7) 0.4850(16) 0.7752(7)
H16 H 0.6123 0.4293 0.7322
H17 H 0.5866 0.5545 0.7848
H18 H 0.6420 0.4312 0.8220
C15 C 0.9838(9) 0.1853(12) 0.7683(6)
H19 H 1.0389 0.2279 0.7939
H20 H 1.0076 0.1266 0.7273
H21 H 0.9472 0.1339 0.8064
C16 C 1.0089(4) 0.8617(6) 0.5341(5)
C17 C 0.9610(5) 0.9719(7) 0.5644(5)
H22 H 0.9945 1.0530 0.5701
C18 C 0.8622(5) 0.9623(7) 0.5865(5)
H23 H 0.8290 1.0361 0.6074
O3 O 1.1328(4) 0.9023(5) 0.4376(3)
C19 C 1.1142(5) 0.8821(7) 0.5084(5)
O4 O 1.1780(3) 0.8900(5) 0.5626(3)
Cd1B Cd 1.29461(3) 0.98272(4) 0.46493(3)
O3B O 0.6328(4) 0.5977(5) 0.5624(3)
O4B O 0.6780(3) 0.6100(5) 0.4374(3)
loop_
_geom_bond_atom_site_label_1
_geom_bond_atom_site_label_2
_geom_bond_site_symmetry_1
_geom_bond_site_symmetry_2
Cd1 O1 1_555 1_555
O1 C2 1_555 1_555
N1 Cd1 1_555 1_555
N2 Cd1 1_555 1_555
O2 C2 1_555 1_555
N3 H1 1_555 1_555
C1 N2 1_555 1_555
C2 C1 1_555 1_555
N4 Cd1 1_555 1_555
C3 N1 1_555 1_555
N5 H2 1_555 1_555
C4 N2 1_555 1_555
H3 C4 1_555 1_555
C5 N4 1_555 1_555
C6 N1 1_555 1_555
H4 C6 1_555 1_555
C7 C3 1_555 1_555
H5 C7 1_555 1_555
H6 C7 1_555 1_555
C8 N4 1_555 1_555
H7 C8 1_555 1_555
C9 N3 1_555 1_555
C10 N5 1_555 1_555
C11 C5 1_555 1_555
H8 C11 1_555 1_555
H9 C11 1_555 1_555
C12 C7 1_555 1_555
H10 C12 1_555 1_555
H11 C12 1_555 1_555
H12 C12 1_555 1_555
C13 C9 1_555 1_555
H13 C13 1_555 1_555
H14 C13 1_555 1_555
H15 C13 1_555 1_555
C14 C11 1_555 1_555
H16 C14 1_555 1_555
H17 C14 1_555 1_555
H18 C14 1_555 1_555
C15 C10 1_555 1_555
H19 C15 1_555 1_555
H20 C15 1_555 1_555
H21 C15 1_555 1_555
C16 C1 1_555 1_555
C17 C16 1_555 1_555
H22 C17 1_555 1_555
C18 C4 1_555 1_555
H23 C18 1_555 1_555
O3 C19 1_555 1_555
C19 C16 1_555 1_555
O4 C19 1_555 1_555
Cd1B O3 1_555 1_555
O3B Cd1 1_555 1_555
O4B Cd1 1_555 1_555
N3 C3 1_555 1_555
N5 C5 1_555 1_555
C6 C9 1_555 1_555
C8 C10 1_555 1_555
C17 C18 1_555 1_555
O4 Cd1B 1_555 1_555

#END
