
#######################################################################
#
#                 Cambridge Crystallographic Data Centre
#                                CCDC 
#
#######################################################################
#
# If this CIF has been generated from an entry in the Cambridge 
# Structural Database, then it will include bibliographic, chemical, 
# crystal, experimental, refinement or atomic coordinate data resulting 
# from the CCDC's data processing and validation procedures.
#
#######################################################################

data_LELXIK
_symmetry_cell_setting           orthorhombic
_symmetry_space_group_name_H-M   'F d d 2'
_symmetry_Int_Tables_number      43
_space_group_name_Hall           'F 2 -2d'
loop_
_symmetry_equiv_pos_site_id
_symmetry_equiv_pos_as_xyz
1 x,y,z
2 -x,-y,z
3 1/4+x,1/4-y,1/4+z
4 1/4-x,1/4+y,1/4+z
5 x,1/2+y,1/2+z
6 -x,1/2-y,1/2+z
7 1/4+x,3/4-y,3/4+z
8 1/4-x,3/4+y,3/4+z
9 1/2+x,y,1/2+z
10 1/2-x,-y,1/2+z
11 3/4+x,1/4-y,3/4+z
12 3/4-x,1/4+y,3/4+z
13 1/2+x,1/2+y,z
14 1/2-x,1/2-y,z
15 3/4+x,3/4-y,1/4+z
16 3/4-x,3/4+y,1/4+z
_cell_length_a                   23.243(5)
_cell_length_b                   27.437(6)
_cell_length_c                   11.451(2)
_cell_angle_alpha                90
_cell_angle_beta                 90
_cell_angle_gamma                90
_cell_volume                     7302.51
loop_
_atom_site_label
_atom_site_type_symbol
_atom_site_fract_x
_atom_site_fract_y
_atom_site_fract_z
Cu1 Cu 0.17171(3) -0.00457(2) 0.51034(10)
O1 O 0.1808(2) -0.06120(16) 0.4076(5)
O2 O 0.2729(2) -0.03984(16) 0.4004(5)
O3 O 0.2382(2) -0.04164(19) 0.1130(6)
O4 O 0.3339(3) -0.05306(18) 0.1117(5)
O5 O 0.2500 -0.2500 0.4872(8)
N1 N 0.1583(3) -0.0511(2) 0.6486(6)
N2 N 0.0950(3) -0.2093(2) 1.1239(6)
C1 C 0.1431(4) -0.0977(2) 0.6311(7)
H1 H 0.1403 -0.1089 0.5546
C2 C 0.1317(3) -0.1298(3) 0.7201(7)
H2 H 0.1212 -0.1618 0.7035
C3 C 0.1358(3) -0.1142(3) 0.8350(7)
C4 C 0.1509(4) -0.0661(3) 0.8530(8)
H3 H 0.1547 -0.0540 0.9285
C5 C 0.1602(4) -0.0363(3) 0.7585(8)
H4 H 0.1683 -0.0037 0.7726
C6 C 0.0783(4) -0.2184(3) 1.0157(8)
H5 H 0.0563 -0.2462 1.0036
C7 C 0.0907(4) -0.1902(3) 0.9191(8)
H6 H 0.0777 -0.1992 0.8453
C8 C 0.1235(4) -0.1475(3) 0.9349(7)
C9 C 0.1412(4) -0.1369(3) 1.0478(8)
H7 H 0.1628 -0.1091 1.0631
C10 C 0.1265(4) -0.1682(3) 1.1368(6)
H8 H 0.1392 -0.1605 1.2116
C11 C 0.2385(3) -0.1596(2) 0.3663(7)
H9 H 0.2197 -0.1610 0.4380
C12 C 0.2479(3) -0.1148(2) 0.3143(7)
C13 C 0.2746(3) -0.1134(2) 0.2049(6)
C14 C 0.2921(3) -0.1565(2) 0.1531(7)
H10 H 0.3098 -0.1552 0.0803
C15 C 0.2845(3) -0.2009(2) 0.2050(7)
H11 H 0.2976 -0.2292 0.1686
C16 C 0.2569(3) -0.2035(2) 0.3125(6)
C17 C 0.2500 -0.2500 0.3804(8)
C18 C 0.2336(3) -0.0681(2) 0.3781(6)
C19 C 0.2830(3) -0.0659(2) 0.1384(6)
Cu1M Cu 0.32829(3) -0.49543(2) 0.51034(10)
Cu1I Cu 0.32829(3) 0.00457(2) 0.01034(10)
Cu1G Cu 0.07829(3) -0.25457(2) 1.26034(10)
Cu1D Cu 0.17171(3) -0.50457(2) 0.01034(10)
Cu1C Cu 0.07829(3) 0.24543(2) -0.23966(10)
O1M O 0.3192(2) -0.43880(16) 0.4076(5)
O2M O 0.2271(2) -0.46016(16) 0.4004(5)
O3M O 0.2618(2) -0.45836(19) 0.1130(6)
O4M O 0.1661(3) -0.44694(18) 0.1117(5)
O4I O 0.1661(3) 0.05306(18) 0.6117(5)
O4D O 0.3339(3) -0.55306(18) 0.6117(5)
N1C N 0.0917(3) 0.1989(2) -0.1014(6)
N1M N 0.3417(3) -0.4489(2) 0.6486(6)
N2C N 0.1550(3) 0.0407(2) 0.3739(6)
N2B N 0.3450(3) -0.5407(2) 0.3739(6)
C1C C 0.1069(4) 0.1523(2) -0.1189(7)
H1C H 0.1097 0.1411 -0.1954
C2C C 0.1183(3) 0.1202(3) -0.0299(7)
H2C H 0.1288 0.0882 -0.0465
C3C C 0.1142(3) 0.1358(3) 0.0850(7)
C4C C 0.0991(4) 0.1839(3) 0.1030(8)
H3C H 0.0953 0.1960 0.1785
C5C C 0.0898(4) 0.2137(3) 0.0085(8)
H4C H 0.0817 0.2463 0.0226
C6C C 0.1717(4) 0.0316(3) 0.2657(8)
H5C H 0.1937 0.0038 0.2536
C7C C 0.1593(4) 0.0598(3) 0.1691(8)
H6C H 0.1723 0.0508 0.0953
C8C C 0.1265(4) 0.1025(3) 0.1849(7)
C9C C 0.1088(4) 0.1131(3) 0.2978(8)
H7C H 0.0872 0.1409 0.3131
C10C C 0.1235(4) 0.0818(3) 0.3868(6)
H8C H 0.1108 0.0895 0.4616
C11M C 0.2615(3) -0.3404(2) 0.3663(7)
H9M H 0.2803 -0.3390 0.4380
C12M C 0.2521(3) -0.3852(2) 0.3143(7)
C13M C 0.2254(3) -0.3866(2) 0.2049(6)
C14M C 0.2079(3) -0.3435(2) 0.1531(7)
H10M H 0.1902 -0.3448 0.0803
C15M C 0.2155(3) -0.2991(2) 0.2050(7)
H11M H 0.2024 -0.2708 0.1686
C16M C 0.2431(3) -0.2965(2) 0.3125(6)
C18M C 0.2664(3) -0.4319(2) 0.3781(6)
C19M C 0.2170(3) -0.4341(2) 0.1384(6)
loop_
_geom_bond_atom_site_label_1
_geom_bond_atom_site_label_2
_geom_bond_site_symmetry_1
_geom_bond_site_symmetry_2
Cu1 O1 1_555 1_555
O1 C18 1_555 1_555
O2 C18 1_555 1_555
O3 C19 1_555 1_555
O4 C19 1_555 1_555
O5 C17 1_555 1_555
N1 Cu1 1_555 1_555
N2 C6 1_555 1_555
C1 N1 1_555 1_555
H1 C1 1_555 1_555
C2 C1 1_555 1_555
H2 C2 1_555 1_555
C3 C2 1_555 1_555
C4 C3 1_555 1_555
H3 C4 1_555 1_555
C5 N1 1_555 1_555
H4 C5 1_555 1_555
C6 H5 1_555 1_555
C7 C6 1_555 1_555
H6 C7 1_555 1_555
C8 C3 1_555 1_555
C9 C8 1_555 1_555
H7 C9 1_555 1_555
C10 N2 1_555 1_555
H8 C10 1_555 1_555
C11 H9 1_555 1_555
C12 C11 1_555 1_555
C13 C12 1_555 1_555
C14 C13 1_555 1_555
H10 C14 1_555 1_555
C15 C14 1_555 1_555
H11 C15 1_555 1_555
C16 C11 1_555 1_555
C17 C16 1_555 1_555
C18 C12 1_555 1_555
C19 C13 1_555 1_555
Cu1M O1M 1_555 1_555
Cu1I O4 1_555 1_555
Cu1G N2 1_555 1_555
Cu1D O4M 1_555 1_555
Cu1C N1C 1_555 1_555
O1M C18M 1_555 1_555
O2M C18M 1_555 1_555
O3M C19M 1_555 1_555
O4M C19M 1_555 1_555
O4I Cu1 1_555 1_555
O4D Cu1M 1_555 1_555
N1C C1C 1_555 1_555
N1M Cu1M 1_555 1_555
N2C Cu1 1_555 1_555
N2B Cu1M 1_555 1_555
C1C H1C 1_555 1_555
C2C C1C 1_555 1_555
H2C C2C 1_555 1_555
C3C C2C 1_555 1_555
C4C C3C 1_555 1_555
H3C C4C 1_555 1_555
C5C N1C 1_555 1_555
H4C C5C 1_555 1_555
C6C N2C 1_555 1_555
H5C C6C 1_555 1_555
C7C C6C 1_555 1_555
H6C C7C 1_555 1_555
C8C C3C 1_555 1_555
C9C C8C 1_555 1_555
H7C C9C 1_555 1_555
C10C N2C 1_555 1_555
H8C C10C 1_555 1_555
C11M H9M 1_555 1_555
C12M C11M 1_555 1_555
C13M C12M 1_555 1_555
C14M C13M 1_555 1_555
H10M C14M 1_555 1_555
C15M C14M 1_555 1_555
H11M C15M 1_555 1_555
C16M C17 1_555 1_555
C18M C12M 1_555 1_555
C19M C13M 1_555 1_555
C4 C5 1_555 1_555
C7 C8 1_555 1_555
C9 C10 1_555 1_555
C15 C16 1_555 1_555
C4C C5C 1_555 1_555
C7C C8C 1_555 1_555
C9C C10C 1_555 1_555
C11M C16M 1_555 1_555
C15M C16M 1_555 1_555

#END
