
#######################################################################
#
#                 Cambridge Crystallographic Data Centre
#                                CCDC 
#
#######################################################################
#
# If this CIF has been generated from an entry in the Cambridge 
# Structural Database, then it will include bibliographic, chemical, 
# crystal, experimental, refinement or atomic coordinate data resulting 
# from the CCDC's data processing and validation procedures.
#
#######################################################################

data_LELYOR
_symmetry_cell_setting           triclinic
_symmetry_space_group_name_H-M   'P -1'
_symmetry_Int_Tables_number      2
_space_group_name_Hall           '-P 1'
loop_
_symmetry_equiv_pos_site_id
_symmetry_equiv_pos_as_xyz
1 x,y,z
2 -x,-y,-z
_cell_length_a                   9.788(2)
_cell_length_b                   10.661(2)
_cell_length_c                   15.452(3)
_cell_angle_alpha                109.26(3)
_cell_angle_beta                 98.00(3)
_cell_angle_gamma                105.84(3)
_cell_volume                     1416.97
loop_
_atom_site_label
_atom_site_type_symbol
_atom_site_fract_x
_atom_site_fract_y
_atom_site_fract_z
Co1 Co 0.77504(4) 1.09850(4) 0.61902(2)
Co2 Co 0.81770(4) 0.60571(4) 0.52269(2)
O1 O 0.5594(2) 1.0423(2) 0.63374(15)
O2 O 0.4051(3) 0.8319(2) 0.61133(17)
O3 O 0.8022(3) 0.9183(2) 0.63226(14)
O4 O 0.7668(3) 0.7128(2) 0.64819(14)
O5 O 0.8468(2) 1.0083(2) 1.35477(14)
O6 O 0.9810(2) 1.2322(2) 1.44436(13)
O7 O 1.0706(2) 1.4965(2) 1.41632(14)
O8 O 0.8330(2) 1.4748(2) 1.39115(14)
O9 O 0.8478(4) 0.8619(3) 1.01675(16)
O10 O 0.9843(3) 1.1473(3) 0.59731(16)
H1 H 1.039(3) 1.104(4) 0.609(2)
H2 H 1.012(4) 1.186(4) 0.561(2)
O11 O 0.7388(3) 1.2538(2) 0.57599(16)
H3 H 0.673(4) 1.229(5) 0.527(3)
H4 H 0.806(3) 1.328(3) 0.583(3)
O12 O 0.6849(2) 0.9559(2) 0.47317(14)
H5 H 0.745(3) 0.976(4) 0.442(2)
H6 H 0.6001(17) 0.940(5) 0.443(3)
O13 O 0.7009(4) 0.6859(3) 0.44578(17)
H7 H 0.692(5) 0.764(2) 0.470(2)
H8 H 0.670(6) 0.653(4) 0.3871(8)
O14 O 0.6169(3) 0.4414(2) 0.4918(2)
H9 H 0.614(5) 0.367(3) 0.449(2)
H10 H 0.541(4) 0.425(5) 0.512(4)
N1 N 0.8576(3) 1.2454(3) 0.76372(17)
C1 C 0.7986(5) 1.3421(5) 0.7989(3)
H11 H 0.7169 1.3419 0.7601
C2 C 0.8506(5) 1.4434(5) 0.8897(3)
H12 H 0.8049 1.5098 0.9100
C3 C 0.9699(4) 1.4469(3) 0.9506(2)
C4 C 1.0289(6) 1.3446(5) 0.9134(3)
H13 H 1.1088 1.3398 0.9510
C5 C 0.9712(5) 1.2485(4) 0.8208(3)
H14 H 1.0159 1.1821 0.7978
C11 C 0.6227(4) 1.0191(4) 0.9196(2)
H19 H 0.5976 1.0655 0.9742
C12 C 0.5512(4) 1.0095(4) 0.8332(2)
H20 H 0.4745 1.0449 0.8292
C13 C 0.5933(3) 0.9471(3) 0.75172(18)
C14 C 0.7040(3) 0.8893(3) 0.75744(18)
C15 C 0.7697(3) 0.8914(3) 0.84395(19)
H21 H 0.8387 0.8468 0.8470
C16 C 0.7324(3) 0.9599(3) 0.92604(19)
C17 C 0.8079(4) 0.9608(3) 1.01705(19)
C18 C 0.8358(4) 1.0826(3) 1.10700(19)
C19 C 0.8538(3) 1.0606(3) 1.19200(18)
H22 H 0.8427 0.9700 1.1896
C20 C 0.8873(3) 1.1693(3) 1.27859(18)
C21 C 0.9017(3) 1.3064(3) 1.28258(19)
C22 C 0.8833(4) 1.3279(3) 1.1986(2)
H23 H 0.8922 1.4182 1.2009
C23 C 0.8522(4) 1.2194(3) 1.1116(2)
H24 H 0.8421 1.2370 1.0564
C24 C 0.5133(3) 0.9384(3) 0.65748(19)
C25 C 0.7616(3) 0.8359(3) 0.67251(18)
C26 C 0.9073(3) 1.1353(3) 1.36642(17)
C27 C 0.9363(3) 1.4348(3) 1.37172(18)
Co1A Co 1.22496(4) 1.90150(4) 1.38098(2)
Co1A_2 Co 1.22496(4) 0.90150(4) 1.38098(2)
Co2A Co 1.18230(4) 1.39429(4) 1.47731(2)
Co2_2 Co 0.81770(4) 1.60571(4) 1.52269(2)
Co2A_2 Co 1.18230(4) 0.39429(4) 0.47731(2)
O1A O 1.4406(2) 0.9577(2) 1.36626(15)
O1A_2 O 1.4406(2) 1.9577(2) 1.36626(15)
O2A O 1.5949(3) 1.1681(2) 1.38867(17)
O3A O 1.1978(3) 1.0817(2) 1.36774(14)
O3A_2 O 1.1978(3) 2.0817(2) 1.36774(14)
O4A O 1.2332(3) 1.2872(2) 1.35181(14)
O5A O 1.1532(2) 0.9917(2) 0.64523(14)
O6A O 1.0190(2) 0.7678(2) 0.55564(13)
O7A O 0.9294(2) 0.5035(2) 0.58368(14)
O8A O 1.1670(2) 0.5252(2) 0.60885(14)
O8_2 O 0.8330(2) 0.4748(2) 0.39115(14)
O8A_2 O 1.1670(2) 1.5252(2) 1.60885(14)
O9A O 1.1522(4) 1.1381(3) 0.98325(16)
O10A O 1.0157(3) 1.8527(3) 1.40269(16)
H1A H 0.961(3) 1.896(4) 1.391(2)
H2A H 0.988(4) 1.814(4) 1.439(2)
O11A O 1.2612(3) 1.7462(2) 1.42401(16)
H3A H 1.327(4) 1.771(5) 1.473(3)
H4A H 1.194(3) 1.672(3) 1.417(3)
O12A O 1.3151(2) 2.0441(2) 1.52683(14)
H5A H 1.255(3) 2.024(4) 1.558(2)
H6A H 1.3999(17) 2.060(5) 1.557(3)
O13A O 1.2991(4) 1.3141(3) 1.55422(17)
H7A H 1.308(5) 1.236(2) 1.530(2)
H8A H 1.330(6) 1.347(4) 1.6129(8)
O14A O 1.3831(3) 1.5586(2) 1.5082(2)
H9A H 1.386(5) 1.633(3) 1.551(2)
H10A H 1.459(4) 1.575(5) 1.488(4)
N1A N 1.1424(3) 1.7546(3) 1.23628(17)
C1A C 1.2014(5) 1.6579(5) 1.2011(3)
H11A H 1.2831 1.6581 1.2399
C2A C 1.1494(5) 1.5566(5) 1.1103(3)
H12A H 1.1951 1.4902 1.0900
C3A C 1.0301(4) 1.5531(3) 1.0494(2)
C4A C 0.9711(6) 1.6554(5) 1.0866(3)
H13A H 0.8912 1.6602 1.0490
C5A C 1.0288(5) 1.7515(4) 1.1792(3)
H14A H 0.9841 1.8179 1.2022
C11A C 1.3773(4) 0.9809(4) 1.0804(2)
H19A H 1.4024 0.9345 1.0258
C12A C 1.4488(4) 0.9905(4) 1.1668(2)
H20A H 1.5255 0.9551 1.1708
C13A C 1.4067(3) 1.0529(3) 1.24828(18)
C14A C 1.2960(3) 1.1107(3) 1.24256(18)
C15A C 1.2303(3) 1.1086(3) 1.15605(19)
H21A H 1.1613 1.1532 1.1530
C16A C 1.2676(3) 1.0401(3) 1.07396(19)
C17A C 1.1921(4) 1.0392(3) 0.98295(19)
C18A C 1.1642(4) 0.9174(3) 0.89300(19)
C19A C 1.1462(3) 0.9394(3) 0.80800(18)
H22A H 1.1573 1.0300 0.8104
C20A C 1.1127(3) 0.8307(3) 0.72141(18)
C21A C 1.0983(3) 0.6936(3) 0.71742(19)
C22A C 1.1167(4) 0.6721(3) 0.8014(2)
H23A H 1.1078 0.5818 0.7991
C23A C 1.1478(4) 0.7806(3) 0.8884(2)
H24A H 1.1579 0.7630 0.9436
C24A C 1.4867(3) 1.0616(3) 1.34252(19)
C25A C 1.2384(3) 1.1641(3) 1.32749(18)
C26A C 1.0927(3) 0.8647(3) 0.63358(17)
C27A C 1.0637(3) 0.5652(3) 0.62828(18)
N2 N 0.6097(6) 0.5906(5) 0.2483(3)
C6 C 0.6243(8) 0.6884(6) 0.2107(3)
H15 H 0.6640 0.7832 0.2513
C7 C 0.5835(8) 0.6556(5) 0.1147(3)
H16 H 0.5976 0.7280 0.0924
C8 C 0.5224(5) 0.5179(4) 0.0516(3)
C9 C 0.5069(10) 0.4195(6) 0.0901(4)
H17 H 0.4663 0.3241 0.0509
C10 C 0.5508(10) 0.4590(6) 0.1875(4)
H18 H 0.5377 0.3878 0.2110
N2A N 0.3903(6) 0.4094(5) -0.2483(3)
C6A C 0.3757(8) 0.3116(6) -0.2107(3)
H15A H 0.3360 0.2168 -0.2513
C7A C 0.4165(8) 0.3444(5) -0.1147(3)
H16A H 0.4024 0.2720 -0.0924
C8A C 0.4776(5) 0.4821(4) -0.0516(3)
C9A C 0.4931(10) 0.5805(6) -0.0901(4)
H17A H 0.5337 0.6759 -0.0509
C10A C 0.4492(10) 0.5410(6) -0.1875(4)
H18A H 0.4623 0.6122 -0.2110
loop_
_geom_bond_atom_site_label_1
_geom_bond_atom_site_label_2
_geom_bond_site_symmetry_1
_geom_bond_site_symmetry_2
Co1 O1 1_555 1_555
Co2 O4 1_555 1_555
O1 C24 1_555 1_555
O2 C24 1_555 1_555
O3 Co1 1_555 1_555
O4 C25 1_555 1_555
O5 C26 1_555 1_555
O6 C26 1_555 1_555
O7 C27 1_555 1_555
O8 C27 1_555 1_555
O9 C17 1_555 1_555
O10 Co1 1_555 1_555
H1 O10 1_555 1_555
H2 O10 1_555 1_555
O11 Co1 1_555 1_555
H3 O11 1_555 1_555
H4 O11 1_555 1_555
O12 Co1 1_555 1_555
H5 O12 1_555 1_555
H6 O12 1_555 1_555
O13 Co2 1_555 1_555
H7 O13 1_555 1_555
H8 O13 1_555 1_555
O14 Co2 1_555 1_555
H9 O14 1_555 1_555
H10 O14 1_555 1_555
N1 Co1 1_555 1_555
C1 N1 1_555 1_555
H11 C1 1_555 1_555
C2 C1 1_555 1_555
H12 C2 1_555 1_555
C3 C2 1_555 1_555
C4 C3 1_555 1_555
H13 C4 1_555 1_555
C5 N1 1_555 1_555
H14 C5 1_555 1_555
N2 C6 1_555 1_555
C6 H15 1_555 1_555
C7 C6 1_555 1_555
H16 C7 1_555 1_555
C8 C7 1_555 1_555
C9 C8 1_555 1_555
H17 C9 1_555 1_555
C10 N2 1_555 1_555
H18 C10 1_555 1_555
C11 H19 1_555 1_555
C12 C11 1_555 1_555
H20 C12 1_555 1_555
C13 C12 1_555 1_555
C14 C13 1_555 1_555
C15 C14 1_555 1_555
H21 C15 1_555 1_555
C16 C11 1_555 1_555
C17 C16 1_555 1_555
C18 C17 1_555 1_555
C19 C18 1_555 1_555
H22 C19 1_555 1_555
C20 C19 1_555 1_555
C21 C20 1_555 1_555
C22 C21 1_555 1_555
H23 C22 1_555 1_555
C23 C18 1_555 1_555
H24 C23 1_555 1_555
C24 C13 1_555 1_555
C25 O3 1_555 1_555
C26 C20 1_555 1_555
C27 C21 1_555 1_555
Co1A O1A_2 1_555 1_555
Co1A_2 O1A 1_555 1_555
Co2A O6 1_555 1_555
Co2_2 O8 1_555 1_555
Co2A_2 O8A 1_555 1_555
O1A C24A 1_555 1_555
O2A C24A 1_555 1_555
O3A Co1A_2 1_555 1_555
O3A_2 Co1A 1_555 1_555
O4A Co2A 1_555 1_555
O5A C26A 1_555 1_555
O6A Co2 1_555 1_555
O7A Co2 1_555 1_555
O8A C27A 1_555 1_555
O8_2 Co2 1_555 1_555
O8A_2 Co2A 1_555 1_555
O9A C17A 1_555 1_555
O10A Co1A 1_555 1_555
H1A O10A 1_555 1_555
H2A O10A 1_555 1_555
O11A Co1A 1_555 1_555
H3A O11A 1_555 1_555
H4A O11A 1_555 1_555
O12A Co1A 1_555 1_555
H5A O12A 1_555 1_555
H6A O12A 1_555 1_555
O13A Co2A 1_555 1_555
H7A O13A 1_555 1_555
H8A O13A 1_555 1_555
O14A Co2A 1_555 1_555
H9A O14A 1_555 1_555
H10A O14A 1_555 1_555
N1A Co1A 1_555 1_555
C1A N1A 1_555 1_555
H11A C1A 1_555 1_555
C2A C1A 1_555 1_555
H12A C2A 1_555 1_555
C3A C3 1_555 1_555
C4A C3A 1_555 1_555
H13A C4A 1_555 1_555
C5A N1A 1_555 1_555
H14A C5A 1_555 1_555
N2A C6A 1_555 1_555
C6A H15A 1_555 1_555
C7A C6A 1_555 1_555
H16A C7A 1_555 1_555
C8A C8 1_555 1_555
C9A C8A 1_555 1_555
H17A C9A 1_555 1_555
C10A N2A 1_555 1_555
H18A C10A 1_555 1_555
C11A H19A 1_555 1_555
C12A C11A 1_555 1_555
H20A C12A 1_555 1_555
C13A C12A 1_555 1_555
C14A C13A 1_555 1_555
C15A C14A 1_555 1_555
H21A C15A 1_555 1_555
C16A C11A 1_555 1_555
C17A C16A 1_555 1_555
C18A C17A 1_555 1_555
C19A C18A 1_555 1_555
H22A C19A 1_555 1_555
C20A C19A 1_555 1_555
C21A C20A 1_555 1_555
C22A C21A 1_555 1_555
H23A C22A 1_555 1_555
C23A C18A 1_555 1_555
H24A C23A 1_555 1_555
C24A C13A 1_555 1_555
C25A O3A 1_555 1_555
C26A O6A 1_555 1_555
C27A O7A 1_555 1_555
O7 Co2A 1_555 1_555
C4 C5 1_555 1_555
C9 C10 1_555 1_555
C14 C25 1_555 1_555
C15 C16 1_555 1_555
C22 C23 1_555 1_555
O4A C25A 1_555 1_555
C2A C3A 1_555 1_555
C4A C5A 1_555 1_555
C7A C8A 1_555 1_555
C9A C10A 1_555 1_555
C14A C25A 1_555 1_555
C15A C16A 1_555 1_555
C20A C26A 1_555 1_555
C21A C27A 1_555 1_555
C22A C23A 1_555 1_555

#END
