
#######################################################################
#
#                 Cambridge Crystallographic Data Centre
#                                CCDC 
#
#######################################################################
#
# If this CIF has been generated from an entry in the Cambridge 
# Structural Database, then it will include bibliographic, chemical, 
# crystal, experimental, refinement or atomic coordinate data resulting 
# from the CCDC's data processing and validation procedures.
#
#######################################################################

data_LELYIL
_symmetry_cell_setting           triclinic
_symmetry_space_group_name_H-M   'P -1'
_symmetry_Int_Tables_number      2
_space_group_name_Hall           '-P 1'
loop_
_symmetry_equiv_pos_site_id
_symmetry_equiv_pos_as_xyz
1 x,y,z
2 -x,-y,-z
_cell_length_a                   9.777(2)
_cell_length_b                   10.669(2)
_cell_length_c                   15.434(3)
_cell_angle_alpha                109.52(3)
_cell_angle_beta                 97.14(3)
_cell_angle_gamma                106.21(3)
_cell_volume                     1414.35
loop_
_atom_site_label
_atom_site_type_symbol
_atom_site_fract_x
_atom_site_fract_y
_atom_site_fract_z
Mg1 Mg 0.27021(7) 0.59267(6) 0.11310(4)
Mg2 Mg 0.31543(8) 0.10390(7) 0.02143(4)
O1 O 0.06209(17) 0.54345(16) 0.13688(10)
O2 O 0.2403(2) 0.74881(16) 0.07207(11)
H1 H 0.309(2) 0.8248(19) 0.0807(18)
H2 H 0.189(3) 0.721(3) 0.0155(12)
O3 O 0.47646(19) 0.63619(18) 0.09131(12)
H3 H 0.497(3) 0.666(3) 0.0497(15)
H4 H 0.529(3) 0.592(3) 0.1023(18)
O4 O 0.18001(17) 0.45391(15) -0.03029(10)
H5 H 0.238(2) 0.472(3) -0.0640(18)
H6 H 0.0979(16) 0.456(3) -0.0539(18)
O5 O 0.2039(3) 0.18499(18) -0.05533(12)
H7 H 0.191(4) 0.157(3) -0.1153(8)
H8 H 0.209(4) 0.2703(15) -0.0341(17)
O6 O 0.11771(19) -0.06044(16) -0.00862(13)
O7 O -0.0962(2) 0.33270(16) 0.11360(11)
O8 O 0.29228(18) 0.41764(15) 0.13084(10)
O9 O 0.25970(18) 0.21051(14) 0.14407(10)
O10 O 0.35097(17) 0.50846(14) 0.85411(10)
O11 O 0.48607(17) 0.73271(14) 0.94235(9)
O12 O 0.57529(17) 0.99322(14) 0.91390(10)
O13 O 0.34142(18) 0.98036(16) 0.89357(10)
O14 O 0.3474(3) 0.36132(19) 0.51522(11)
N1 N 0.3577(2) 0.74819(19) 0.26282(12)
C1 C 0.3017(4) 0.8489(4) 0.29863(19)
H9 H 0.2230 0.8523 0.2599
C2 C 0.3543(4) 0.9491(4) 0.3906(2)
H10 H 0.3118 1.0180 0.4119
C3 C 0.4694(3) 0.9465(2) 0.45018(14)
C4 C 0.5261(4) 0.8429(3) 0.41318(19)
H11 H 0.6042 0.8362 0.4503
C5 C 0.4673(4) 0.7471(3) 0.31980(19)
H12 H 0.5087 0.6779 0.2965
C11 C 0.1232(3) 0.5193(2) 0.42162(14)
H17 H 0.1005 0.5673 0.4772
C12 C 0.0498(3) 0.5100(2) 0.33645(15)
H18 H -0.0267 0.5455 0.3341
C13 C 0.0903(2) 0.4471(2) 0.25369(13)
C14 C 0.1999(2) 0.38729(19) 0.25763(13)
C15 C 0.2660(2) 0.3887(2) 0.34290(13)
H19 H 0.3339 0.3430 0.3445
C16 C 0.2308(2) 0.4584(2) 0.42602(13)
C17 C 0.3079(3) 0.4603(2) 0.51634(14)
C18 C 0.3362(2) 0.5823(2) 0.60695(13)
C19 C 0.3545(2) 0.5601(2) 0.69043(13)
H20 H 0.3436 0.4693 0.6876
C20 C 0.3887(2) 0.6695(2) 0.77805(13)
C21 C 0.4026(2) 0.8063(2) 0.78173(13)
C22 C 0.3823(3) 0.8281(2) 0.69791(14)
H21 H 0.3900 0.9182 0.7004
C23 C 0.3509(3) 0.7189(2) 0.61102(14)
H22 H 0.3397 0.7358 0.5556
C24 C 0.0125(2) 0.4390(2) 0.16035(13)
C25 C 0.2544(2) 0.33311(19) 0.17022(13)
C26 C 0.4104(2) 0.63514(19) 0.86520(13)
C27 C 0.4418(2) 0.93581(19) 0.87199(13)
Mg1A Mg 0.72979(7) 1.40733(6) 0.88690(4)
Mg1A_2 Mg 0.72979(7) 0.40733(6) 0.88690(4)
Mg2A Mg 0.68457(8) 0.89610(7) 0.97857(4)
Mg2_2 Mg 0.31543(8) 1.10390(7) 1.02143(4)
Mg2A_2 Mg 0.68457(8) -0.10390(7) -0.02143(4)
O1A O 0.93791(17) 0.45655(16) 0.86312(10)
O1A_2 O 0.93791(17) 1.45655(16) 0.86312(10)
O2A O 0.7597(2) 1.25119(16) 0.92793(11)
H1A H 0.691(2) 1.1752(19) 0.9193(18)
H2A H 0.811(3) 1.279(3) 0.9845(12)
O3A O 0.52354(19) 1.36381(18) 0.90869(12)
H3A H 0.503(3) 1.334(3) 0.9503(15)
H4A H 0.471(3) 1.408(3) 0.8977(18)
O4A O 0.81999(17) 1.54609(15) 1.03029(10)
H5A H 0.762(2) 1.528(3) 1.0640(18)
H6A H 0.9021(16) 1.544(3) 1.0539(18)
O5A O 0.7961(3) 0.81501(18) 1.05533(12)
H7A H 0.809(4) 0.843(3) 1.1153(8)
H8A H 0.791(4) 0.7297(15) 1.0341(17)
O6A O 0.88229(19) 1.06044(16) 1.00862(13)
O7A O 1.0962(2) 0.66730(16) 0.88640(11)
O8A O 0.70772(18) 0.58236(15) 0.86916(10)
O8A_2 O 0.70772(18) 1.58236(15) 0.86916(10)
O9A O 0.74030(18) 0.78949(14) 0.85593(10)
O10A O 0.64903(17) 0.49154(14) 0.14589(10)
O11A O 0.51393(17) 0.26729(14) 0.05765(9)
O12A O 0.42471(17) 0.00678(14) 0.08610(10)
O13A O 0.65858(18) 0.01964(16) 0.10643(10)
O13_2 O 0.34142(18) -0.01964(16) -0.10643(10)
O13A_2 O 0.65858(18) 1.01964(16) 1.10643(10)
O14A O 0.6526(3) 0.63868(19) 0.48478(11)
N1A N 0.6423(2) 1.25181(19) 0.73718(12)
C1A C 0.6983(4) 1.1511(4) 0.70137(19)
H9A H 0.7770 1.1477 0.7401
C2A C 0.6457(4) 1.0509(4) 0.6094(2)
H10A H 0.6882 0.9820 0.5881
C3A C 0.5306(3) 1.0535(2) 0.54982(14)
C4A C 0.4739(4) 1.1571(3) 0.58682(19)
H11A H 0.3958 1.1638 0.5497
C5A C 0.5327(4) 1.2529(3) 0.68020(19)
H12A H 0.4913 1.3221 0.7035
C11A C 0.8768(3) 0.4807(2) 0.57838(14)
H17A H 0.8995 0.4327 0.5228
C12A C 0.9502(3) 0.4900(2) 0.66355(15)
H18A H 1.0267 0.4545 0.6659
C13A C 0.9097(2) 0.5529(2) 0.74631(13)
C14A C 0.8001(2) 0.61271(19) 0.74237(13)
C15A C 0.7340(2) 0.6113(2) 0.65710(13)
H19A H 0.6661 0.6570 0.6555
C16A C 0.7692(2) 0.5416(2) 0.57398(13)
C17A C 0.6921(3) 0.5397(2) 0.48366(14)
C18A C 0.6638(2) 0.4177(2) 0.39305(13)
C19A C 0.6455(2) 0.4399(2) 0.30957(13)
H20A H 0.6564 0.5307 0.3124
C20A C 0.6113(2) 0.3305(2) 0.22195(13)
C21A C 0.5974(2) 0.1937(2) 0.21827(13)
C22A C 0.6177(3) 0.1719(2) 0.30209(14)
H21A H 0.6100 0.0818 0.2996
C23A C 0.6491(3) 0.2811(2) 0.38898(14)
H22A H 0.6603 0.2642 0.4444
C24A C 0.9875(2) 0.5610(2) 0.83965(13)
C25A C 0.7456(2) 0.66689(19) 0.82978(13)
C26A C 0.5896(2) 0.36486(19) 0.13480(13)
C27A C 0.5582(2) 0.06419(19) 0.12801(13)
N2 N 0.8887(4) 0.9092(3) 0.25262(17)
C6 C 0.8701(5) 0.8143(4) 0.2909(2)
H13 H 0.8256 0.7195 0.2506
C7 C 0.9115(5) 0.8448(3) 0.3862(2)
H14 H 0.8948 0.7720 0.4082
C8 C 0.9770(3) 0.9819(3) 0.44831(17)
C9 C 0.9956(7) 1.0803(4) 0.4097(3)
H15 H 1.0378 1.1758 0.4489
C10 C 0.9529(8) 1.0410(4) 0.3130(3)
H16 H 0.9706 1.1119 0.2892
N2A N 1.1113(4) 1.0908(3) 0.74738(17)
C6A C 1.1299(5) 1.1857(4) 0.7091(2)
H13A H 1.1744 1.2805 0.7494
C7A C 1.0885(5) 1.1552(3) 0.6138(2)
H14A H 1.1052 1.2280 0.5918
C8A C 1.0230(3) 1.0181(3) 0.55169(17)
C9A C 1.0044(7) 0.9197(4) 0.5903(3)
H15A H 0.9622 0.8242 0.5511
C10A C 1.0471(8) 0.9590(4) 0.6870(3)
H16A H 1.0294 0.8881 0.7108
loop_
_geom_bond_atom_site_label_1
_geom_bond_atom_site_label_2
_geom_bond_site_symmetry_1
_geom_bond_site_symmetry_2
Mg1 O1 1_555 1_555
Mg2 O5 1_555 1_555
O1 C24 1_555 1_555
O2 Mg1 1_555 1_555
H1 O2 1_555 1_555
H2 O2 1_555 1_555
O3 Mg1 1_555 1_555
H3 O3 1_555 1_555
H4 O3 1_555 1_555
O4 Mg1 1_555 1_555
H5 O4 1_555 1_555
H6 O4 1_555 1_555
O5 H7 1_555 1_555
H8 O5 1_555 1_555
O6 Mg2 1_555 1_555
O7 C24 1_555 1_555
O8 Mg1 1_555 1_555
O9 Mg2 1_555 1_555
O10 C26 1_555 1_555
O11 C26 1_555 1_555
O12 C27 1_555 1_555
O13 C27 1_555 1_555
O14 C17 1_555 1_555
N1 Mg1 1_555 1_555
C1 N1 1_555 1_555
H9 C1 1_555 1_555
C2 C1 1_555 1_555
H10 C2 1_555 1_555
C3 C2 1_555 1_555
C4 C3 1_555 1_555
H11 C4 1_555 1_555
C5 N1 1_555 1_555
H12 C5 1_555 1_555
N2 C6 1_555 1_555
C6 H13 1_555 1_555
C7 C6 1_555 1_555
H14 C7 1_555 1_555
C8 C7 1_555 1_555
C9 C8 1_555 1_555
H15 C9 1_555 1_555
C10 N2 1_555 1_555
H16 C10 1_555 1_555
C11 H17 1_555 1_555
C12 C11 1_555 1_555
H18 C12 1_555 1_555
C13 C12 1_555 1_555
C14 C13 1_555 1_555
C15 C14 1_555 1_555
H19 C15 1_555 1_555
C16 C11 1_555 1_555
C17 C16 1_555 1_555
C18 C17 1_555 1_555
C19 C18 1_555 1_555
H20 C19 1_555 1_555
C20 C19 1_555 1_555
C21 C20 1_555 1_555
C22 C21 1_555 1_555
H21 C22 1_555 1_555
C23 C18 1_555 1_555
H22 C23 1_555 1_555
C24 C13 1_555 1_555
C25 O8 1_555 1_555
C26 C20 1_555 1_555
C27 C21 1_555 1_555
Mg1A O1A_2 1_555 1_555
Mg1A_2 O1A 1_555 1_555
Mg2A O11 1_555 1_555
Mg2_2 O13 1_555 1_555
Mg2A_2 O13A 1_555 1_555
O1A C24A 1_555 1_555
O2A Mg1A 1_555 1_555
H1A O2A 1_555 1_555
H2A O2A 1_555 1_555
O3A Mg1A 1_555 1_555
H3A O3A 1_555 1_555
H4A O3A 1_555 1_555
O4A Mg1A 1_555 1_555
H5A O4A 1_555 1_555
H6A O4A 1_555 1_555
O5A Mg2A 1_555 1_555
H7A O5A 1_555 1_555
H8A O5A 1_555 1_555
O6A Mg2A 1_555 1_555
O7A C24A 1_555 1_555
O8A Mg1A_2 1_555 1_555
O8A_2 Mg1A 1_555 1_555
O9A Mg2A 1_555 1_555
O10A C26A 1_555 1_555
O11A Mg2 1_555 1_555
O12A Mg2 1_555 1_555
O13A C27A 1_555 1_555
O13_2 Mg2 1_555 1_555
O13A_2 Mg2A 1_555 1_555
O14A C17A 1_555 1_555
N1A Mg1A 1_555 1_555
C1A N1A 1_555 1_555
H9A C1A 1_555 1_555
C2A C1A 1_555 1_555
H10A C2A 1_555 1_555
C3A C3 1_555 1_555
C4A C3A 1_555 1_555
H11A C4A 1_555 1_555
C5A N1A 1_555 1_555
H12A C5A 1_555 1_555
N2A C6A 1_555 1_555
C6A H13A 1_555 1_555
C7A C6A 1_555 1_555
H14A C7A 1_555 1_555
C8A C8 1_555 1_555
C9A C8A 1_555 1_555
H15A C9A 1_555 1_555
C10A N2A 1_555 1_555
H16A C10A 1_555 1_555
C11A H17A 1_555 1_555
C12A C11A 1_555 1_555
H18A C12A 1_555 1_555
C13A C12A 1_555 1_555
C14A C13A 1_555 1_555
C15A C14A 1_555 1_555
H19A C15A 1_555 1_555
C16A C11A 1_555 1_555
C17A C16A 1_555 1_555
C18A C17A 1_555 1_555
C19A C18A 1_555 1_555
H20A C19A 1_555 1_555
C20A C19A 1_555 1_555
C21A C20A 1_555 1_555
C22A C21A 1_555 1_555
H21A C22A 1_555 1_555
C23A C18A 1_555 1_555
H22A C23A 1_555 1_555
C24A C13A 1_555 1_555
C25A O8A 1_555 1_555
C26A O11A 1_555 1_555
C27A O12A 1_555 1_555
O9 C25 1_555 1_555
O12 Mg2A 1_555 1_555
C4 C5 1_555 1_555
C9 C10 1_555 1_555
C14 C25 1_555 1_555
C15 C16 1_555 1_555
C22 C23 1_555 1_555
O9A C25A 1_555 1_555
C2A C3A 1_555 1_555
C4A C5A 1_555 1_555
C7A C8A 1_555 1_555
C9A C10A 1_555 1_555
C14A C25A 1_555 1_555
C15A C16A 1_555 1_555
C20A C26A 1_555 1_555
C21A C27A 1_555 1_555
C22A C23A 1_555 1_555

#END
