
#######################################################################
#
#                 Cambridge Crystallographic Data Centre
#                                CCDC 
#
#######################################################################
#
# If this CIF has been generated from an entry in the Cambridge 
# Structural Database, then it will include bibliographic, chemical, 
# crystal, experimental, refinement or atomic coordinate data resulting 
# from the CCDC's data processing and validation procedures.
#
#######################################################################

data_LENRIG
_symmetry_cell_setting           orthorhombic
_symmetry_space_group_name_H-M   'F d d 2'
_symmetry_Int_Tables_number      43
_space_group_name_Hall           'F 2 -2d'
loop_
_symmetry_equiv_pos_site_id
_symmetry_equiv_pos_as_xyz
1 x,y,z
2 -x,-y,z
3 1/4+x,1/4-y,1/4+z
4 1/4-x,1/4+y,1/4+z
5 x,1/2+y,1/2+z
6 -x,1/2-y,1/2+z
7 1/4+x,3/4-y,3/4+z
8 1/4-x,3/4+y,3/4+z
9 1/2+x,y,1/2+z
10 1/2-x,-y,1/2+z
11 3/4+x,1/4-y,3/4+z
12 3/4-x,1/4+y,3/4+z
13 1/2+x,1/2+y,z
14 1/2-x,1/2-y,z
15 3/4+x,3/4-y,1/4+z
16 3/4-x,3/4+y,1/4+z
_cell_length_a                   14.7252(12)
_cell_length_b                   45.925(4)
_cell_length_c                   6.1678(5)
_cell_angle_alpha                90
_cell_angle_beta                 90
_cell_angle_gamma                90
_cell_volume                     4171
loop_
_atom_site_label
_atom_site_type_symbol
_atom_site_fract_x
_atom_site_fract_y
_atom_site_fract_z
Zn1 Zn 0.18862(3) 0.125078(7) 0.18410(6)
S1 S 0.13252(6) -0.023520(18) 0.64725(14)
F1 F 0.31496(14) 0.12082(4) 0.2977(4)
C1 C 0.08981(19) -0.08071(7) 0.1761(6)
C2 C 0.1062(2) -0.05541(7) 0.3212(5)
C3 C 0.1190(2) -0.05718(7) 0.5385(6)
H1 H 0.1202 -0.0748 0.6188
C4 C 0.1238(2) -0.00873(6) 0.3887(5)
C5 C 0.1350(2) 0.02261(7) 0.3477(5)
C6 C 0.1702(2) 0.04139(7) 0.5034(6)
H2 H 0.1850 0.0343 0.6439
C7 C 0.1835(2) 0.07033(7) 0.4523(6)
H3 H 0.2085 0.0828 0.5594
C8 C 0.1270(2) 0.06361(7) 0.1086(5)
H4 H 0.1113 0.0714 -0.0291
C9 C 0.11239(19) 0.03429(7) 0.1468(6)
H5 H 0.0872 0.0223 0.0369
N1 N 0.10943(17) -0.02768(6) 0.2347(4)
N2 N 0.16264(18) 0.08150(6) 0.2583(5)
O1 O 0.06659(14) -0.07746(5) -0.0157(3)
O2 O 0.09830(14) -0.10632(4) 0.2591(4)
O3 O 0.23554(18) 0.12345(6) -0.1231(4)
H6 H 0.212(3) 0.1315(8) -0.233(6)
H7 H 0.290(2) 0.1204(8) -0.159(7)
Zn1B Zn 0.43862(3) 0.124922(7) 0.43410(6)
Zn1G Zn 0.06138(3) -0.124922(7) -0.06590(6)
F1J F 0.06496(14) 0.12918(4) 0.0477(4)
O1C O 0.18341(14) 0.17254(5) 0.2343(3)
O2C O 0.15170(14) 0.14368(4) 0.5091(4)
loop_
_geom_bond_atom_site_label_1
_geom_bond_atom_site_label_2
_geom_bond_site_symmetry_1
_geom_bond_site_symmetry_2
Zn1 F1 1_555 1_555
S1 C3 1_555 1_555
F1 Zn1B 1_555 1_555
C1 C2 1_555 1_555
C2 C3 1_555 1_555
C3 H1 1_555 1_555
C4 S1 1_555 1_555
C5 C4 1_555 1_555
C6 C5 1_555 1_555
H2 C6 1_555 1_555
C7 C6 1_555 1_555
H3 C7 1_555 1_555
C8 H4 1_555 1_555
C9 C5 1_555 1_555
H5 C9 1_555 1_555
N1 C2 1_555 1_555
N2 Zn1 1_555 1_555
O1 C1 1_555 1_555
O2 C1 1_555 1_555
O3 Zn1 1_555 1_555
H6 O3 1_555 1_555
H7 O3 1_555 1_555
Zn1G O1 1_555 1_555
F1J Zn1 1_555 1_555
O1C Zn1 1_555 1_555
O2C Zn1 1_555 1_555
C4 N1 1_555 1_555
C7 N2 1_555 1_555
C8 C9 1_555 1_555
C8 N2 1_555 1_555
O2 Zn1G 1_555 1_555

#END
