
#######################################################################
#
#                 Cambridge Crystallographic Data Centre
#                                CCDC 
#
#######################################################################
#
# If this CIF has been generated from an entry in the Cambridge 
# Structural Database, then it will include bibliographic, chemical, 
# crystal, experimental, refinement or atomic coordinate data resulting 
# from the CCDC's data processing and validation procedures.
#
#######################################################################

data_LENSED
_symmetry_cell_setting           monoclinic
_symmetry_space_group_name_H-M   'C 2'
_symmetry_Int_Tables_number      5
_space_group_name_Hall           'C 2y'
loop_
_symmetry_equiv_pos_site_id
_symmetry_equiv_pos_as_xyz
1 x,y,z
2 -x,y,-z
3 1/2+x,1/2+y,z
4 1/2-x,1/2+y,-z
_cell_length_a                   35.4345(4)
_cell_length_b                   8.7228(2)
_cell_length_c                   7.5556(2)
_cell_angle_alpha                90
_cell_angle_beta                 95.5730(10)
_cell_angle_gamma                90
_cell_volume                     2324.31
loop_
_atom_site_label
_atom_site_type_symbol
_atom_site_fract_x
_atom_site_fract_y
_atom_site_fract_z
Cu1 Cu 0.35230(3) 0.35987(13) 0.34429(17)
Cu2 Cu 0.35137(3) 0.18031(14) 0.77639(17)
Cl1 Cl 0.30610(7) 0.2509(3) 0.4870(4)
Cl2 Cl 0.32246(7) 0.3149(3) -0.0190(4)
O1 O 0.38139(17) 0.1712(9) 0.3243(8)
O2 O 0.4237(2) 0.0766(11) 0.1585(11)
N1 N 0.3330(2) 0.5714(10) 0.3257(11)
N2 N 0.4001(2) 0.4567(10) 0.2829(12)
H1 H 0.4156 0.4659 0.3856
C1 C 0.2987(3) 0.6276(15) 0.3696(16)
H2 H 0.2818 0.5593 0.4139
C2 C 0.2884(4) 0.7754(14) 0.3517(17)
H3 H 0.2645 0.8067 0.3782
C3 C 0.3140(4) 0.8825(14) 0.2924(16)
H4 H 0.3081 0.9862 0.2834
C4 C 0.3493(3) 0.8258(15) 0.2469(16)
H5 H 0.3669 0.8920 0.2045
C5 C 0.3572(3) 0.6737(16) 0.2659(13)
C6 C 0.3935(3) 0.6101(15) 0.2116(18)
H6 H 0.3925 0.6069 0.0829
H7 H 0.4144 0.6764 0.2550
C7 C 0.4183(3) 0.3470(16) 0.1676(13)
H8 H 0.4070 0.3637 0.0455
C8 C 0.4077(3) 0.1882(15) 0.2198(12)
C9 C 0.4614(3) 0.3692(19) 0.1684(17)
H9 H 0.4665 0.4709 0.1282
H10 H 0.4712 0.2956 0.0905
H11 H 0.4733 0.3552 0.2869
O3 O 0.38622(19) 0.3459(10) 0.7198(10)
O4 O 0.4439(2) 0.3804(11) 0.6344(11)
N3 N 0.3265(3) -0.0211(11) 0.8118(11)
N4 N 0.3904(2) 0.0443(11) 0.6817(12)
H12 H 0.3853 0.0390 0.5615
C10 C 0.2894(3) -0.0406(15) 0.8449(16)
H13 H 0.2745 0.0453 0.8597
C11 C 0.2740(4) -0.1812(17) 0.8565(17)
H14 H 0.2491 -0.1926 0.8830
C12 C 0.2959(4) -0.3074(18) 0.8284(16)
H15 H 0.2857 -0.4053 0.8349
C13 C 0.3330(3) -0.2892(13) 0.7906(15)
H16 H 0.3478 -0.3734 0.7673
C14 C 0.3475(3) -0.1397(16) 0.7885(12)
C15 C 0.3881(3) -0.1097(13) 0.7531(15)
H17 H 0.4046 -0.1191 0.8625
H18 H 0.3960 -0.1839 0.6685
C16 C 0.4276(3) 0.1305(14) 0.7224(16)
H19 H 0.4355 0.1182 0.8495
C17 C 0.4199(3) 0.2937(15) 0.6889(14)
C18 C 0.4592(3) 0.0631(17) 0.6176(17)
H20 H 0.4632 -0.0425 0.6495
H21 H 0.4822 0.1195 0.6461
H22 H 0.4517 0.0707 0.4924
Cu2_2 Cu 0.35137(3) 0.18031(14) -0.22361(17)
Cl2_2 Cl 0.32246(7) 0.3149(3) 0.9810(4)
O5 O 0.4734(3) -0.1827(14) 0.128(2)
O6 O 0.4734(5) 0.6731(18) 0.631(3)
loop_
_geom_bond_atom_site_label_1
_geom_bond_atom_site_label_2
_geom_bond_site_symmetry_1
_geom_bond_site_symmetry_2
Cu1 Cl1 1_555 1_555
Cu2 Cl1 1_555 1_555
Cl2 Cu1 1_555 1_555
O1 Cu1 1_555 1_555
O2 C8 1_555 1_555
N1 Cu1 1_555 1_555
N2 Cu1 1_555 1_555
H1 N2 1_555 1_555
C1 N1 1_555 1_555
H2 C1 1_555 1_555
C2 C1 1_555 1_555
H3 C2 1_555 1_555
C3 C2 1_555 1_555
H4 C3 1_555 1_555
C4 C3 1_555 1_555
H5 C4 1_555 1_555
C5 N1 1_555 1_555
C6 N2 1_555 1_555
H6 C6 1_555 1_555
H7 C6 1_555 1_555
C7 N2 1_555 1_555
H8 C7 1_555 1_555
C8 O1 1_555 1_555
C9 C7 1_555 1_555
H9 C9 1_555 1_555
H10 C9 1_555 1_555
H11 C9 1_555 1_555
O3 Cu2 1_555 1_555
O4 C17 1_555 1_555
N3 Cu2 1_555 1_555
N4 Cu2 1_555 1_555
H12 N4 1_555 1_555
C10 N3 1_555 1_555
H13 C10 1_555 1_555
C11 C10 1_555 1_555
H14 C11 1_555 1_555
C12 C11 1_555 1_555
H15 C12 1_555 1_555
C13 C12 1_555 1_555
H16 C13 1_555 1_555
C14 N3 1_555 1_555
C15 N4 1_555 1_555
H17 C15 1_555 1_555
H18 C15 1_555 1_555
C16 N4 1_555 1_555
H19 C16 1_555 1_555
C17 O3 1_555 1_555
C18 C16 1_555 1_555
H20 C18 1_555 1_555
H21 C18 1_555 1_555
H22 C18 1_555 1_555
Cu2_2 Cl2 1_555 1_555
Cl2_2 Cu2 1_555 1_555
C4 C5 1_555 1_555
C5 C6 1_555 1_555
C7 C8 1_555 1_555
C13 C14 1_555 1_555
C14 C15 1_555 1_555
C16 C17 1_555 1_555

#END
