
#######################################################################
#
#                 Cambridge Crystallographic Data Centre
#                                CCDC 
#
#######################################################################
#
# If this CIF has been generated from an entry in the Cambridge 
# Structural Database, then it will include bibliographic, chemical, 
# crystal, experimental, refinement or atomic coordinate data resulting 
# from the CCDC's data processing and validation procedures.
#
#######################################################################

data_LEPCIT
_symmetry_cell_setting           monoclinic
_symmetry_space_group_name_H-M   'P 21/c'
_symmetry_Int_Tables_number      14
_space_group_name_Hall           '-P 2ybc'
loop_
_symmetry_equiv_pos_site_id
_symmetry_equiv_pos_as_xyz
1 x,y,z
2 -x,1/2+y,1/2-z
3 -x,-y,-z
4 x,1/2-y,1/2+z
_cell_length_a                   7.3244(1)
_cell_length_b                   18.4489(3)
_cell_length_c                   13.0270(2)
_cell_angle_alpha                90
_cell_angle_beta                 92.882(1)
_cell_angle_gamma                90
_cell_volume                     1758.07
loop_
_atom_site_label
_atom_site_type_symbol
_atom_site_fract_x
_atom_site_fract_y
_atom_site_fract_z
Co1 Co 0.37168(5) 0.297491(19) 0.45894(3)
O1 O 0.3913(3) 0.40860(11) 0.50178(16)
H1 H 0.483(4) 0.423(2) 0.537(3)
H2 H 0.389(7) 0.437(2) 0.453(3)
N1 N 0.1679(3) 0.28186(13) 0.56483(18)
C2 C 0.0333(4) 0.27548(15) 0.6061(2)
N2 N -0.1129(3) 0.26738(14) 0.65906(17)
C3 C -0.2715(4) 0.27569(15) 0.6102(2)
N3 N -0.4172(3) 0.28155(12) 0.57246(18)
N4 N 0.1610(3) 0.32836(13) 0.35108(18)
C4 C 0.0145(4) 0.34867(14) 0.3291(2)
N5 N -0.1457(3) 0.37672(13) 0.30101(19)
C5 C -0.2915(4) 0.34202(15) 0.3282(2)
N6 N -0.4286(3) 0.31609(13) 0.34897(19)
N7 N 0.3465(3) 0.18298(12) 0.41060(17)
C6 C 0.3277(3) 0.17409(15) 0.3093(2)
H7 H 0.3446 0.2150 0.2666
C7 C 0.2845(4) 0.10779(15) 0.2624(2)
H8 H 0.2749 0.1041 0.1896
C8 C 0.2563(3) 0.04830(14) 0.3221(2)
H9 H 0.2237 0.0031 0.2913
C9 C 0.2762(3) 0.05472(14) 0.4302(2)
C10 C 0.3267(3) 0.12328(14) 0.47146(19)
C11 C 0.2491(3) -0.00555(13) 0.49905(19)
C12 C 0.1900(3) -0.07506(14) 0.4661(2)
H10 H 0.1671 -0.0847 0.3950
C13 C 0.1660(4) -0.12831(15) 0.5372(2)
H11 H 0.1239 -0.1749 0.5161
C14 C 0.2040(4) -0.11338(14) 0.6415(2)
H12 H 0.1890 -0.1511 0.6900
N8 N 0.2598(3) -0.04921(12) 0.67569(17)
C15 C 0.2806(3) 0.00491(14) 0.60619(19)
C16 C 0.3356(3) 0.07452(14) 0.6446(2)
H13 H 0.3579 0.0810 0.7165
C17 C 0.3565(3) 0.13117(14) 0.5809(2)
H14 H 0.3915 0.1770 0.6087
Co1_2 Co -0.62832(5) 0.297491(19) 0.45894(3)
N3_2 N 0.5828(3) 0.28155(12) 0.57246(18)
N6_2 N 0.5714(3) 0.31609(13) 0.34897(19)
C1 C 0.1440(5) 0.54338(18) 0.4151(3)
H3 H 0.1502 0.5526 0.4893
H4 H 0.0678 0.5006 0.4002
H5 H 0.0907 0.5855 0.3790
O2 O 0.3198(3) 0.53109(11) 0.38229(16)
H6 H 0.314(5) 0.535(2) 0.3200(14)
loop_
_geom_bond_atom_site_label_1
_geom_bond_atom_site_label_2
_geom_bond_site_symmetry_1
_geom_bond_site_symmetry_2
Co1 O1 1_555 1_555
O1 H1 1_555 1_555
H2 O1 1_555 1_555
C1 H3 1_555 1_555
H4 C1 1_555 1_555
H5 C1 1_555 1_555
O2 C1 1_555 1_555
H6 O2 1_555 1_555
N1 Co1 1_555 1_555
C2 N1 1_555 1_555
N2 C2 1_555 1_555
C3 N2 1_555 1_555
N3 C3 1_555 1_555
N4 Co1 1_555 1_555
C4 N4 1_555 1_555
N5 C4 1_555 1_555
C5 N5 1_555 1_555
N6 C5 1_555 1_555
N7 Co1 1_555 1_555
C6 N7 1_555 1_555
H7 C6 1_555 1_555
C7 C6 1_555 1_555
H8 C7 1_555 1_555
C8 C7 1_555 1_555
H9 C8 1_555 1_555
C9 C8 1_555 1_555
C10 N7 1_555 1_555
C11 C9 1_555 1_555
C12 C11 1_555 1_555
H10 C12 1_555 1_555
C13 C12 1_555 1_555
H11 C13 1_555 1_555
C14 C13 1_555 1_555
H12 C14 1_555 1_555
N8 C14 1_555 1_555
C15 C11 1_555 1_555
C16 C15 1_555 1_555
H13 C16 1_555 1_555
C17 C10 1_555 1_555
H14 C17 1_555 1_555
Co1_2 N3 1_555 1_555
N3_2 Co1 1_555 1_555
N6_2 Co1 1_555 1_555
N6 Co1_2 1_555 1_555
C9 C10 1_555 1_555
N8 C15 1_555 1_555
C16 C17 1_555 1_555

#END
