
#######################################################################
#
#                 Cambridge Crystallographic Data Centre
#                                CCDC 
#
#######################################################################
#
# If this CIF has been generated from an entry in the Cambridge 
# Structural Database, then it will include bibliographic, chemical, 
# crystal, experimental, refinement or atomic coordinate data resulting 
# from the CCDC's data processing and validation procedures.
#
#######################################################################

data_LEPCAL
_symmetry_cell_setting           monoclinic
_symmetry_space_group_name_H-M   'P 21/c'
_symmetry_Int_Tables_number      14
_space_group_name_Hall           '-P 2ybc'
loop_
_symmetry_equiv_pos_site_id
_symmetry_equiv_pos_as_xyz
1 x,y,z
2 -x,1/2+y,1/2-z
3 -x,-y,-z
4 x,1/2-y,1/2+z
_cell_length_a                   7.4702(1)
_cell_length_b                   18.6763(3)
_cell_length_c                   13.0026(3)
_cell_angle_alpha                90
_cell_angle_beta                 92.640(1)
_cell_angle_gamma                90
_cell_volume                     1812.14
loop_
_atom_site_label
_atom_site_type_symbol
_atom_site_fract_x
_atom_site_fract_y
_atom_site_fract_z
Mn1 Mn 0.38008(3) 0.296176(14) 0.45534(2)
O1 O 0.40294(19) 0.41027(7) 0.49848(11)
H1 H 0.491(3) 0.4235(15) 0.5356(19)
H2 H 0.390(3) 0.4438(12) 0.4562(17)
N1 N 0.1680(2) 0.27939(9) 0.56619(12)
C2 C 0.0353(2) 0.27343(10) 0.60753(13)
N2 N -0.1083(2) 0.26574(10) 0.66049(12)
C3 C -0.2642(2) 0.27481(10) 0.61278(13)
N3 N -0.4077(2) 0.28175(9) 0.57672(12)
N4 N 0.1655(2) 0.32970(9) 0.34325(12)
C4 C 0.0209(2) 0.34931(10) 0.32552(13)
N5 N -0.13697(19) 0.37753(8) 0.30271(13)
C5 C -0.2796(2) 0.34065(10) 0.32332(13)
N6 N -0.4144(2) 0.31283(9) 0.33906(13)
N7 N 0.35467(19) 0.17716(8) 0.40606(11)
C6 C 0.3320(2) 0.16834(10) 0.30480(14)
H7 H 0.3495 0.2085 0.2616
C7 C 0.2839(2) 0.10313(10) 0.25850(14)
H8 H 0.2725 0.0992 0.1856
C8 C 0.2533(2) 0.04497(10) 0.31934(13)
H9 H 0.2168 0.0007 0.2892
C9 C 0.2765(2) 0.05156(9) 0.42746(13)
C10 C 0.3313(2) 0.11886(9) 0.46779(13)
C11 C 0.2478(2) -0.00727(9) 0.49751(13)
C12 C 0.1846(2) -0.07539(10) 0.46582(14)
H10 H 0.1588 -0.0850 0.3949
C13 C 0.1606(3) -0.12757(10) 0.53816(14)
H11 H 0.1163 -0.1734 0.5179
C14 C 0.2020(3) -0.11273(10) 0.64174(14)
H12 H 0.1869 -0.1497 0.6908
N8 N 0.2614(2) -0.04967(8) 0.67509(11)
C15 C 0.2826(2) 0.00330(9) 0.60428(13)
C16 C 0.3422(2) 0.07170(9) 0.64180(13)
H13 H 0.3669 0.0782 0.7135
C17 C 0.3640(2) 0.12721(9) 0.57680(13)
H14 H 0.4014 0.1724 0.6036
Mn1_2 Mn -0.61992(3) 0.296176(14) 0.45534(2)
N3_2 N 0.5923(2) 0.28175(9) 0.57672(12)
N6_2 N 0.5856(2) 0.31283(9) 0.33906(13)
C1 C 0.1441(3) 0.54391(12) 0.41566(18)
H3 H 0.1505 0.5541 0.4897
H4 H 0.0696 0.5014 0.4023
H5 H 0.0913 0.5849 0.3784
O2 O 0.31833(18) 0.53124(7) 0.38197(10)
H6 H 0.318(3) 0.5352(15) 0.3190(13)
loop_
_geom_bond_atom_site_label_1
_geom_bond_atom_site_label_2
_geom_bond_site_symmetry_1
_geom_bond_site_symmetry_2
Mn1 O1 1_555 1_555
O1 H1 1_555 1_555
H2 O1 1_555 1_555
C1 H3 1_555 1_555
H4 C1 1_555 1_555
H5 C1 1_555 1_555
O2 C1 1_555 1_555
H6 O2 1_555 1_555
N1 Mn1 1_555 1_555
C2 N1 1_555 1_555
N2 C2 1_555 1_555
C3 N2 1_555 1_555
N3 C3 1_555 1_555
N4 Mn1 1_555 1_555
C4 N4 1_555 1_555
N5 C4 1_555 1_555
C5 N5 1_555 1_555
N6 C5 1_555 1_555
N7 Mn1 1_555 1_555
C6 N7 1_555 1_555
H7 C6 1_555 1_555
C7 C6 1_555 1_555
H8 C7 1_555 1_555
C8 C7 1_555 1_555
H9 C8 1_555 1_555
C9 C8 1_555 1_555
C10 N7 1_555 1_555
C11 C9 1_555 1_555
C12 C11 1_555 1_555
H10 C12 1_555 1_555
C13 C12 1_555 1_555
H11 C13 1_555 1_555
C14 C13 1_555 1_555
H12 C14 1_555 1_555
N8 C14 1_555 1_555
C15 C11 1_555 1_555
C16 C15 1_555 1_555
H13 C16 1_555 1_555
C17 C10 1_555 1_555
H14 C17 1_555 1_555
Mn1_2 N3 1_555 1_555
N3_2 Mn1 1_555 1_555
N6_2 Mn1 1_555 1_555
N6 Mn1_2 1_555 1_555
C9 C10 1_555 1_555
N8 C15 1_555 1_555
C16 C17 1_555 1_555

#END
