
#######################################################################
#
#                 Cambridge Crystallographic Data Centre
#                                CCDC 
#
#######################################################################
#
# If this CIF has been generated from an entry in the Cambridge 
# Structural Database, then it will include bibliographic, chemical, 
# crystal, experimental, refinement or atomic coordinate data resulting 
# from the CCDC's data processing and validation procedures.
#
#######################################################################

data_LEPFOC
_symmetry_cell_setting           monoclinic
_symmetry_space_group_name_H-M   'P 2/c'
_symmetry_Int_Tables_number      13
_space_group_name_Hall           '-P 2yc'
loop_
_symmetry_equiv_pos_site_id
_symmetry_equiv_pos_as_xyz
1 x,y,z
2 -x,y,1/2-z
3 -x,-y,-z
4 x,-y,1/2+z
_cell_length_a                   13.1306(9)
_cell_length_b                   7.8049(5)
_cell_length_c                   21.5601(12)
_cell_angle_alpha                90
_cell_angle_beta                 111.481(3)
_cell_angle_gamma                90
_cell_volume                     2056.07
loop_
_atom_site_label
_atom_site_type_symbol
_atom_site_fract_x
_atom_site_fract_y
_atom_site_fract_z
Yb1 Yb 0.134064(13) 1.118871(19) 0.542273(8)
Yb2 Yb 0.128074(13) 0.636757(19) 0.511687(8)
O1 O 0.1506(3) 0.9927(4) 0.63811(14)
O2 O 0.1030(3) 0.7272(4) 0.60458(14)
O3 O 0.1231(3) 0.5272(4) 0.92532(15)
O4 O 0.1618(3) 0.7995(4) 0.95182(14)
O5 O 0.2789(2) 1.2646(4) 0.60565(15)
O6 O 0.2856(2) 1.5443(4) 0.58955(16)
O7 O 0.2672(2) 0.9163(3) 0.55098(14)
O8 O 0.2512(2) 0.7434(4) 0.46800(16)
O9 O -0.0487(2) 1.0999(3) 0.53002(13)
H1 H -0.0531(11) 1.088(5) 0.5678(7)
O10 O 0.0636(2) 1.3887(3) 0.54470(13)
H2 H 0.072(3) 1.415(2) 0.5843(7)
N1 N 0.2223(11) 1.0754(11) 0.7648(4)
H3 H 0.2509 1.1376 0.7999
H4 H 0.2234 1.1099 0.7272
N2 N 0.1630(13) 0.4140(12) 0.8197(5)
H5 H 0.1844 0.3887 0.8613
H6 H 0.1544 0.3343 0.7906
N3 N 0.4265(9) 1.7319(11) 0.6900(5)
H7 H 0.3764 1.7399 0.6509
H8 H 0.4572 1.8230 0.7111
N4 N 0.3967(7) 0.7423(11) 0.4078(5)
H9 H 0.4257 0.7143 0.3794
H10 H 0.3372 0.6937 0.4066
C1 C 0.1348(4) 0.8386(6) 0.6499(2)
C2 C 0.1504(4) 0.7934(5) 0.7195(2)
C3 C 0.1375(6) 0.6278(6) 0.7357(3)
H11 H 0.1252 0.5431 0.7034
C4 C 0.1425(6) 0.5820(6) 0.7994(3)
C5 C 0.1564(4) 0.7091(5) 0.8463(2)
C6 C 0.1757(6) 0.8725(6) 0.8316(3)
H12 H 0.1905 0.9560 0.8645
C7 C 0.1741(6) 0.9186(7) 0.7690(3)
C8 C 0.1470(4) 0.6757(6) 0.9123(2)
C9 C 0.3201(4) 1.4110(5) 0.6235(2)
C10 C 0.4131(4) 1.4195(5) 0.6885(2)
C11 C 0.4576(5) 1.5742(6) 0.7186(3)
C12 C 0.4586(4) 1.2659(5) 0.7205(2)
H13 H 0.4308 1.1621 0.7002
C13 C 0.3008(4) 0.8607(5) 0.5065(2)
C14 C 0.4038(4) 0.9318(5) 0.5025(2)
C15 C 0.4462(4) 0.8663(6) 0.4560(3)
C16 C 0.4578(4) 1.0612(6) 0.5453(3)
H14 H 0.4291 1.1015 0.5761
Yb1C Yb 0.134064(13) 0.881129(19) 0.042273(8)
Yb1B Yb -0.134064(13) 0.881129(19) 0.457727(8)
Yb1C_2 Yb 0.134064(13) 0.881129(19) 1.042273(8)
Yb1A Yb 0.865936(13) 1.118871(19) 0.957727(8)
Yb1B_2 Yb 0.865936(13) 0.881129(19) 0.457727(8)
Yb1A_2 Yb -0.134064(13) 1.118871(19) -0.042273(8)
Yb1_2 Yb 0.134064(13) 0.118871(19) 0.542273(8)
Yb2C Yb 0.128074(13) 1.363243(19) 0.011687(8)
Yb2B Yb -0.128074(13) 1.363243(19) 0.488313(8)
Yb2C_2 Yb 0.128074(13) 0.363243(19) 1.011687(8)
Yb2_2 Yb 0.128074(13) 1.636757(19) 0.511687(8)
Yb2A Yb 0.871926(13) 1.636757(19) 0.988313(8)
Yb2B_2 Yb 0.871926(13) 1.363243(19) 0.488313(8)
Yb2A_2 Yb -0.128074(13) 0.636757(19) -0.011687(8)
Yb2B_3 Yb -0.128074(13) 0.363243(19) 0.488313(8)
O1C O 0.1506(3) 1.0073(4) 0.13811(14)
O2C O 0.1030(3) 1.2728(4) 0.10458(14)
O3C O 0.1231(3) 1.4728(4) 0.42532(15)
O3C_2 O 0.1231(3) 0.4728(4) 0.42532(15)
O3_2 O 0.1231(3) 1.5272(4) -0.07468(15)
O4C O 0.1618(3) 1.2005(4) 0.45182(14)
O4_2 O 0.1618(3) 0.7995(4) -0.04818(14)
O5A O 0.7211(2) 1.2646(4) 0.89435(15)
O5C O 0.2789(2) 0.7354(4) 0.10565(15)
O6A O 0.7144(2) 1.5443(4) 0.91045(16)
O6_2 O 0.2856(2) 0.5443(4) 0.58955(16)
O6C O 0.2856(2) 1.4557(4) 0.08955(16)
O7B O 0.7328(2) 1.0837(3) 0.44902(14)
O7C O 0.2672(2) 1.0837(3) 0.05098(14)
O8B O 0.7488(2) 1.2566(4) 0.53200(16)
O8C O 0.2512(2) 1.2566(4) -0.03200(16)
O9B O 0.0487(2) 0.9001(3) 0.46998(13)
O9C O -0.0487(2) 0.9001(3) 0.03002(13)
O9A O 0.0487(2) 1.0999(3) -0.03002(13)
H1B H 0.0531(11) 0.912(5) 0.4322(7)
H1C H -0.0531(11) 0.912(5) 0.0678(7)
H1A H 0.0531(11) 1.088(5) -0.0678(7)
O10_2 O 0.0636(2) 0.3887(3) 0.54470(13)
O10B O -0.0636(2) 0.6113(3) 0.45530(13)
O10C O 0.0636(2) 0.6113(3) 0.04470(13)
O10C_2 O 0.0636(2) 1.6113(3) 0.04470(13)
O10A O -0.0636(2) 1.3887(3) -0.04470(13)
H2_2 H 0.072(3) 0.415(2) 0.5843(7)
H2B H -0.072(3) 0.585(2) 0.4157(7)
H2C H 0.072(3) 0.585(2) 0.0843(7)
H2C_2 H 0.072(3) 1.585(2) 0.0843(7)
H2A H -0.072(3) 1.415(2) -0.0843(7)
N1C N 0.2223(11) 0.9246(11) 0.2648(4)
H3C H 0.2509 0.8624 0.2999
H4C H 0.2234 0.8901 0.2272
N2C N 0.1630(13) 1.5860(12) 0.3197(5)
H5C H 0.1844 1.6113 0.3613
H6C H 0.1544 1.6657 0.2906
N3A N 0.5735(9) 1.7319(11) 0.8100(5)
H7A H 0.6236 1.7399 0.8491
H8A H 0.5428 1.8230 0.7889
N4B N 0.6033(7) 1.2577(11) 0.5922(5)
H9B H 0.5743 1.2857 0.6206
H10B H 0.6628 1.3063 0.5934
C1C C 0.1348(4) 1.1614(6) 0.1499(2)
C2C C 0.1504(4) 1.2066(5) 0.2195(2)
C3C C 0.1375(6) 1.3722(6) 0.2357(3)
H11C H 0.1252 1.4569 0.2034
C4C C 0.1425(6) 1.4180(6) 0.2994(3)
C5C C 0.1564(4) 1.2909(5) 0.3463(2)
C6C C 0.1757(6) 1.1275(6) 0.3316(3)
H12C H 0.1905 1.0440 0.3645
C7C C 0.1741(6) 1.0814(7) 0.2690(3)
C8C C 0.1470(4) 1.3243(6) 0.4123(2)
C9A C 0.6799(4) 1.4110(5) 0.8765(2)
C10A C 0.5869(4) 1.4195(5) 0.8115(2)
C11A C 0.5424(5) 1.5742(6) 0.7814(3)
C12A C 0.5414(4) 1.2659(5) 0.7795(2)
H13A H 0.5692 1.1621 0.7998
C13B C 0.6992(4) 1.1393(5) 0.4935(2)
C14B C 0.5962(4) 1.0682(5) 0.4975(2)
C15B C 0.5538(4) 1.1337(6) 0.5440(3)
C16B C 0.5422(4) 0.9388(6) 0.4547(3)
H14B H 0.5709 0.8985 0.4239
O11 O 1.0082(11) 0.2373(14) 0.6619(5)
H15 H 1.005(15) 0.174(14) 0.693(6)
H16 H 0.978(13) 0.336(10) 0.658(8)
loop_
_geom_bond_atom_site_label_1
_geom_bond_atom_site_label_2
_geom_bond_site_symmetry_1
_geom_bond_site_symmetry_2
Yb1 O1 1_555 1_555
Yb2 O2 1_555 1_555
O1 C1 1_555 1_555
O2 C1 1_555 1_555
O3 C8 1_555 1_555
O4 C8 1_555 1_555
O5 Yb1 1_555 1_555
O6 C9 1_555 1_555
O7 Yb1 1_555 1_555
O8 Yb2 1_555 1_555
O9 Yb1 1_555 1_555
H1 O9 1_555 1_555
O10 Yb1 1_555 1_555
H2 O10 1_555 1_555
N1 H3 1_555 1_555
H4 N1 1_555 1_555
N2 H5 1_555 1_555
H6 N2 1_555 1_555
N3 H7 1_555 1_555
H8 N3 1_555 1_555
N4 H9 1_555 1_555
H10 N4 1_555 1_555
C1 C2 1_555 1_555
C2 C3 1_555 1_555
C3 H11 1_555 1_555
C4 N2 1_555 1_555
C5 C4 1_555 1_555
C6 C5 1_555 1_555
H12 C6 1_555 1_555
C7 N1 1_555 1_555
C8 C5 1_555 1_555
C9 O5 1_555 1_555
C10 C9 1_555 1_555
C11 N3 1_555 1_555
C12 C10 1_555 1_555
H13 C12 1_555 1_555
C13 O7 1_555 1_555
C14 C13 1_555 1_555
C15 N4 1_555 1_555
C16 C14 1_555 1_555
H14 C16 1_555 1_555
O11 H15 1_555 1_555
H16 O11 1_555 1_555
Yb1C O1C 1_555 1_555
Yb1B O9 1_555 1_555
Yb1C_2 O4 1_555 1_555
Yb1A O5A 1_555 1_555
Yb1B_2 O7B 1_555 1_555
Yb1A_2 O9C 1_555 1_555
Yb1_2 O10_2 1_555 1_555
Yb2C O2C 1_555 1_555
Yb2B O9 1_555 1_555
Yb2C_2 O3 1_555 1_555
Yb2_2 O6 1_555 1_555
Yb2A O6A 1_555 1_555
Yb2B_2 O7B 1_555 1_555
Yb2A_2 O9C 1_555 1_555
Yb2B_3 O10_2 1_555 1_555
O1C C1C 1_555 1_555
O2C C1C 1_555 1_555
O3C Yb2_2 1_555 1_555
O3C_2 Yb2 1_555 1_555
O3_2 Yb2C 1_555 1_555
O4C Yb1 1_555 1_555
O4_2 Yb1C 1_555 1_555
O5A C9A 1_555 1_555
O5C Yb1C 1_555 1_555
O6A C9A 1_555 1_555
O6_2 Yb2 1_555 1_555
O6C Yb2C 1_555 1_555
O7B C13B 1_555 1_555
O7C Yb1C 1_555 1_555
O8B Yb2B_2 1_555 1_555
O8C Yb2C 1_555 1_555
O9B Yb1 1_555 1_555
O9C Yb1C 1_555 1_555
O9A Yb1C 1_555 1_555
H1B O9B 1_555 1_555
H1C O9C 1_555 1_555
H1A O9A 1_555 1_555
O10_2 Yb2 1_555 1_555
O10B Yb2 1_555 1_555
O10C Yb1C 1_555 1_555
O10C_2 Yb2C 1_555 1_555
O10A Yb1A_2 1_555 1_555
H2_2 O10_2 1_555 1_555
H2B O10B 1_555 1_555
H2C O10C 1_555 1_555
H2C_2 O10C_2 1_555 1_555
H2A O10A 1_555 1_555
N1C H3C 1_555 1_555
H4C N1C 1_555 1_555
N2C H5C 1_555 1_555
H6C N2C 1_555 1_555
N3A H7A 1_555 1_555
H8A N3A 1_555 1_555
N4B H9B 1_555 1_555
H10B N4B 1_555 1_555
C1C C2C 1_555 1_555
C2C C3C 1_555 1_555
C3C H11C 1_555 1_555
C4C N2C 1_555 1_555
C5C C4C 1_555 1_555
C6C C5C 1_555 1_555
H12C C6C 1_555 1_555
C7C N1C 1_555 1_555
C8C O3C 1_555 1_555
C9A C10A 1_555 1_555
C10A C11A 1_555 1_555
C11A C11 1_555 1_555
C12A C12 1_555 1_555
H13A C12A 1_555 1_555
C13B O8B 1_555 1_555
C14B C13B 1_555 1_555
C15B C16 1_555 1_555
C16B C15 1_555 1_555
H14B C16B 1_555 1_555
Yb2 O7 1_555 1_555
Yb2 O9B 1_555 1_555
O8 C13 1_555 1_555
O10 Yb2B 1_555 1_555
O10 Yb2_2 1_555 1_555
C2 C7 1_555 1_555
C3 C4 1_555 1_555
C6 C7 1_555 1_555
C10 C11 1_555 1_555
C14 C15 1_555 1_555
Yb1B O9B 1_555 1_555
Yb1B O10B 1_555 1_555
Yb1A_2 O9A 1_555 1_555
Yb2C O7C 1_555 1_555
Yb2C O9A 1_555 1_555
Yb2C O10A 1_555 1_555
Yb2A_2 O10C 1_555 1_555
Yb2B_3 O10B 1_555 1_555
O4C C8C 1_555 1_555
N3A C11A 1_555 1_555
N4B C15B 1_555 1_555
C2C C7C 1_555 1_555
C3C C4C 1_555 1_555
C5C C8C 1_555 1_555
C6C C7C 1_555 1_555
C10A C12A 1_555 1_555
C14B C15B 1_555 1_555
C14B C16B 1_555 1_555

#END
