
#######################################################################
#
#                 Cambridge Crystallographic Data Centre
#                                CCDC 
#
#######################################################################
#
# If this CIF has been generated from an entry in the Cambridge 
# Structural Database, then it will include bibliographic, chemical, 
# crystal, experimental, refinement or atomic coordinate data resulting 
# from the CCDC's data processing and validation procedures.
#
#######################################################################

data_LEPGAP
_symmetry_cell_setting           monoclinic
_symmetry_space_group_name_H-M   'C 2/c'
_symmetry_Int_Tables_number      15
_space_group_name_Hall           '-C 2yn'
loop_
_symmetry_equiv_pos_site_id
_symmetry_equiv_pos_as_xyz
1 x,y,z
2 1/2+x,1/2+y,z
3 -x,y,1/2-z
4 1/2-x,1/2+y,1/2-z
5 -x,-y,-z
6 1/2-x,1/2-y,-z
7 x,-y,1/2+z
8 1/2+x,1/2-y,1/2+z
_cell_length_a                   20.316(7)
_cell_length_b                   12.401(4)
_cell_length_c                   18.039(6)
_cell_angle_alpha                90
_cell_angle_beta                 108.404(6)
_cell_angle_gamma                90
_cell_volume                     4312.28
loop_
_atom_site_label
_atom_site_type_symbol
_atom_site_fract_x
_atom_site_fract_y
_atom_site_fract_z
Ag1 Ag 0.427850(15) 0.09697(2) 0.453411(19)
S1 S 0.34561(8) 0.31168(10) 0.63367(8)
S2 S 0.31811(6) 0.37657(8) 0.46897(7)
S3 S 0.47454(5) 0.64807(6) 0.40935(6)
S4 S 0.34300(5) 0.74275(7) 0.43722(6)
N1 N 0.44845(14) 0.2426(2) 0.38382(16)
N2 N 0.50703(15) 0.4438(2) 0.37309(18)
N3 N 0.37701(16) 0.1883(2) 0.53758(19)
N4 N 0.39633(19) 0.1322(3) 0.6080(2)
N5 N 0.45186(14) 0.8490(2) 0.44342(17)
N6 N 0.40478(14) 0.9225(2) 0.45571(17)
C1 C 0.41516(17) 0.3323(2) 0.3886(2)
C2 C 0.51022(17) 0.2494(3) 0.36801(19)
C3 C 0.54533(19) 0.1554(3) 0.3581(2)
H1 H 0.5284 0.0878 0.3653
C4 C 0.6044(2) 0.1642(3) 0.3379(2)
H2 H 0.6276 0.1020 0.3313
C5 C 0.6310(2) 0.2651(3) 0.3268(2)
H3 H 0.6709 0.2692 0.3121
C6 C 0.59858(19) 0.3572(3) 0.3377(2)
H4 H 0.6167 0.4240 0.3310
C7 C 0.53803(17) 0.3514(3) 0.3589(2)
C8 C 0.44769(17) 0.4349(3) 0.3872(2)
C9 C 0.34110(17) 0.3215(3) 0.3879(2)
H5 H 0.3296 0.2453 0.3843
H6 H 0.3117 0.3554 0.3405
C10 C 0.35082(19) 0.2821(3) 0.5428(2)
C11 C 0.3832(2) 0.1859(4) 0.6631(3)
C12 C 0.3987(3) 0.1457(5) 0.7445(3)
H7 H 0.4191 0.0753 0.7487
H8 H 0.3564 0.1418 0.7576
H9 H 0.4304 0.1941 0.7798
C13 C 0.41605(19) 0.5366(3) 0.4059(3)
H10 H 0.4080 0.5294 0.4559
H11 H 0.3718 0.5500 0.3662
C14 C 0.42617(17) 0.7520(2) 0.4320(2)
C15 C 0.34649(18) 0.8791(2) 0.4552(2)
C16 C 0.2883(2) 0.9406(3) 0.4688(3)
H12 H 0.3010 1.0152 0.4776
H13 H 0.2786 0.9120 0.5138
H14 H 0.2477 0.9343 0.4239
Ag1D Ag 0.572150(15) 0.90303(2) 0.546589(19)
Ag1_2 Ag 0.427850(15) 1.09697(2) 0.453411(19)
N5D N 0.54814(14) 0.1510(2) 0.55658(17)
N6_2 N 0.40478(14) -0.0775(2) 0.45571(17)
B1 B 0.7536(3) 0.4427(4) 0.7491(3)
F1 F 0.76019(13) 0.4717(2) 0.67838(15)
F2 F 0.7124(2) 0.5143(3) 0.76978(19)
F3 F 0.7232(2) 0.3421(3) 0.7403(2)
F4 F 0.81645(17) 0.4336(3) 0.8051(2)
loop_
_geom_bond_atom_site_label_1
_geom_bond_atom_site_label_2
_geom_bond_site_symmetry_1
_geom_bond_site_symmetry_2
Ag1 N1 1_555 1_555
S1 C10 1_555 1_555
S2 C9 1_555 1_555
S3 C13 1_555 1_555
S4 C14 1_555 1_555
N1 C1 1_555 1_555
N2 C7 1_555 1_555
N3 Ag1 1_555 1_555
N4 N3 1_555 1_555
N5 N6 1_555 1_555
N6 C15 1_555 1_555
C1 C8 1_555 1_555
C2 N1 1_555 1_555
C3 C2 1_555 1_555
H1 C3 1_555 1_555
C4 C3 1_555 1_555
H2 C4 1_555 1_555
C5 C4 1_555 1_555
H3 C5 1_555 1_555
C6 C5 1_555 1_555
H4 C6 1_555 1_555
C7 C2 1_555 1_555
C8 N2 1_555 1_555
C9 C1 1_555 1_555
H5 C9 1_555 1_555
H6 C9 1_555 1_555
C10 S2 1_555 1_555
C11 S1 1_555 1_555
C12 C11 1_555 1_555
H7 C12 1_555 1_555
H8 C12 1_555 1_555
H9 C12 1_555 1_555
C13 C8 1_555 1_555
H10 C13 1_555 1_555
H11 C13 1_555 1_555
C14 S3 1_555 1_555
C15 S4 1_555 1_555
C16 C15 1_555 1_555
H12 C16 1_555 1_555
H13 C16 1_555 1_555
H14 C16 1_555 1_555
B1 F1 1_555 1_555
F2 B1 1_555 1_555
F3 B1 1_555 1_555
F4 B1 1_555 1_555
Ag1D N5 1_555 1_555
Ag1_2 N6 1_555 1_555
N5D Ag1 1_555 1_555
N6_2 Ag1 1_555 1_555
N3 C10 1_555 1_555
N4 C11 1_555 1_555
N5 C14 1_555 1_555
C6 C7 1_555 1_555

#END
