
#######################################################################
#
#                 Cambridge Crystallographic Data Centre
#                                CCDC 
#
#######################################################################
#
# If this CIF has been generated from an entry in the Cambridge 
# Structural Database, then it will include bibliographic, chemical, 
# crystal, experimental, refinement or atomic coordinate data resulting 
# from the CCDC's data processing and validation procedures.
#
#######################################################################

data_LEPKOH
_symmetry_cell_setting           monoclinic
_symmetry_space_group_name_H-M   'I 2/a'
_symmetry_Int_Tables_number      15
_space_group_name_Hall           '-I 2ya'
loop_
_symmetry_equiv_pos_site_id
_symmetry_equiv_pos_as_xyz
1 x,y,z
2 1/2+x,1/2+y,1/2+z
3 1/2-x,y,-z
4 -x,1/2+y,1/2-z
5 -x,-y,-z
6 1/2-x,1/2-y,1/2-z
7 1/2+x,-y,z
8 x,1/2-y,1/2+z
_cell_length_a                   12.824(2)
_cell_length_b                   16.332(3)
_cell_length_c                   23.713(4)
_cell_angle_alpha                90
_cell_angle_beta                 97.514(3)
_cell_angle_gamma                90
_cell_volume                     4923.84
loop_
_atom_site_label
_atom_site_type_symbol
_atom_site_fract_x
_atom_site_fract_y
_atom_site_fract_z
K1 K 0.1743(8) 0.7470(9) 0.3123(2)
K2 K -0.0311(7) 1.2504(7) 0.4233(2)
K3 K 0.2131(8) 1.2466(8) 0.0754(2)
O1 O 0.1437(14) 0.8506(3) 0.2088(4)
O2 O 0.1201(12) 1.0890(4) 0.3025(4)
O3 O 0.1383(12) 1.0958(4) 0.1142(4)
N1 N 0.1295(8) 0.9712(3) 0.2550(2)
N2 N 0.1261(9) 1.0981(2) 0.2095(3)
N3 N 0.1363(8) 0.9725(3) 0.1588(3)
C1 C 0.1364(10) 0.9262(3) 0.2083(3)
C2 C 0.1253(11) 1.0557(3) 0.2557(3)
C3 C 0.1330(11) 1.0566(4) 0.1573(3)
D1 D 0.1261(15) 0.9408(4) 0.2921(4)
D2 D 0.1396(12) 0.9431(4) 0.1198(4)
O4 O 0.3570(12) 0.8549(3) 0.2929(3)
O5 O 0.3696(15) 1.0946(5) 0.3893(4)
O6 O 0.4002(13) 1.0961(4) 0.1998(4)
N4 N 0.3665(8) 0.9744(2) 0.3406(2)
N5 N 0.3803(9) 1.0979(2) 0.2954(3)
N6 N 0.3777(8) 0.9741(3) 0.2442(2)
C4 C 0.3656(11) 0.9289(3) 0.2937(3)
C5 C 0.3702(11) 1.0588(4) 0.3424(3)
C6 C 0.3869(10) 1.0582(3) 0.2435(3)
D3 D 0.3677(14) 0.9442(5) 0.3791(3)
D4 D 0.4018(6) 1.1606(2) 0.29823(15)
D5 D 0.3738(15) 0.9450(4) 0.2042(4)
O7 O 0.1401(15) 1.1412(5) 0.4578(4)
O8 O 0.1110(13) 0.9006(4) 0.5516(4)
O9 O 0.1248(12) 0.8988(4) 0.3623(3)
N7 N 0.1267(10) 1.0211(2) 0.5062(3)
N8 N 0.1208(9) 0.8942(3) 0.4569(2)
N9 N 0.1307(10) 1.0193(2) 0.4092(2)
C7 C 0.1324(12) 1.0654(4) 0.4561(3)
C8 C 0.1193(12) 0.9365(3) 0.5076(3)
C9 C 0.1254(13) 0.9354(3) 0.4082(3)
D6 D 0.1254(10) 1.0522(3) 0.5444(3)
D7 D 0.1340(14) 1.0495(4) 0.3710(4)
O10 O 0.1122(14) 0.5968(4) 0.5526(4)
O11 O 0.1393(13) 0.3577(4) 0.4610(3)
O12 O 0.1250(13) 0.5945(4) 0.3611(4)
N10 N 0.1257(9) 0.4789(2) 0.5060(3)
N11 N 0.1274(12) 0.4753(2) 0.4101(3)
N12 N 0.1219(8) 0.6043(3) 0.4575(2)
C10 C 0.1197(11) 0.5637(3) 0.5048(3)
C11 C 0.1322(11) 0.4319(4) 0.4609(3)
C12 C 0.1233(13) 0.5618(3) 0.4086(3)
D8 D 0.1287(12) 0.4507(4) 0.5451(3)
D9 D 0.1233(13) 0.4455(4) 0.3719(4)
O13 O 0.0004(5) 1.2486(6) 0.06070(15)
D10 D -0.0456(11) 1.2965(3) 0.0531(3)
D11 D -0.0423(13) 1.1998(5) 0.0544(3)
O14 O 0.1125(6) 1.2459(6) 0.34356(14)
D12 D 0.1116(13) 1.1980(5) 0.3207(4)
D13 D 0.1053(13) 1.2927(5) 0.3187(3)
O15 O 0.2550(5) 0.7476(6) 0.42625(14)
D14 D 0.2261(10) 0.7002(4) 0.4417(3)
D15 D 0.2266(12) 0.7941(4) 0.4419(3)
O16 O -0.0452(5) 0.7505(5) 0.31794(12)
D16 D -0.0771(6) 0.6982(2) 0.30659(17)
D17 D -0.0310(5) 0.7485(5) 0.35901(12)
K1E K 0.3257(8) 0.7530(9) 0.1877(2)
K2D K 0.0311(7) 0.7496(7) 0.5767(2)
K2_2 K -0.0311(7) 0.2504(7) 0.4233(2)
K2F K 0.4689(7) 0.7496(7) 0.4233(2)
K3E K 0.2869(8) 1.2534(8) 0.4246(2)
K3E_2 K 0.2869(8) 0.2534(8) 0.4246(2)
O1E O 0.3563(14) 0.6494(3) 0.2912(4)
O4E O 0.1430(12) 0.6451(3) 0.2071(3)
O5E O 0.1304(15) 1.4054(5) 0.1107(4)
O7E O 0.3599(15) 1.3588(5) 0.0422(4)
O8D O -0.1110(13) 1.0994(4) 0.4484(4)
O10D O -0.1122(14) 1.4032(4) 0.4474(4)
O11_2 O 0.1393(13) 1.3577(4) 0.4610(3)
O11E O 0.3607(13) 1.1423(4) 0.0390(3)
O14E O 0.3875(6) 1.2541(6) 0.15644(14)
D12E D 0.3884(13) 1.3020(5) 0.1793(4)
D13E D 0.3947(13) 1.2073(5) 0.1813(3)
O15F O -0.2450(5) 1.2524(6) 0.42625(14)
D14F D -0.2739(10) 1.2998(4) 0.4417(3)
D15F D -0.2734(12) 1.2059(4) 0.4419(3)
loop_
_geom_bond_atom_site_label_1
_geom_bond_atom_site_label_2
_geom_bond_site_symmetry_1
_geom_bond_site_symmetry_2
K1 O1 1_555 1_555
K2 O7 1_555 1_555
K3 O3 1_555 1_555
O1 C1 1_555 1_555
O2 C2 1_555 1_555
O3 C3 1_555 1_555
N1 C1 1_555 1_555
N2 C2 1_555 1_555
N3 C1 1_555 1_555
C2 N1 1_555 1_555
C3 N2 1_555 1_555
D1 N1 1_555 1_555
D2 N3 1_555 1_555
O4 K1 1_555 1_555
O5 C5 1_555 1_555
O6 C6 1_555 1_555
N4 C4 1_555 1_555
N5 C5 1_555 1_555
N6 C4 1_555 1_555
C4 O4 1_555 1_555
C5 N4 1_555 1_555
C6 N5 1_555 1_555
D3 N4 1_555 1_555
D4 N5 1_555 1_555
D5 N6 1_555 1_555
O7 C7 1_555 1_555
O8 C8 1_555 1_555
O9 K1 1_555 1_555
N7 C7 1_555 1_555
N8 C8 1_555 1_555
N9 C7 1_555 1_555
C8 N7 1_555 1_555
C9 O9 1_555 1_555
D6 N7 1_555 1_555
D7 N9 1_555 1_555
O10 C10 1_555 1_555
O11 C11 1_555 1_555
O12 K1 1_555 1_555
N10 C10 1_555 1_555
N11 C11 1_555 1_555
N12 C10 1_555 1_555
C11 N10 1_555 1_555
C12 O12 1_555 1_555
D8 N10 1_555 1_555
D9 N11 1_555 1_555
O13 K3 1_555 1_555
D10 O13 1_555 1_555
D11 O13 1_555 1_555
O14 K2 1_555 1_555
D12 O14 1_555 1_555
D13 O14 1_555 1_555
O15 K1 1_555 1_555
D14 O15 1_555 1_555
D15 O15 1_555 1_555
O16 K1 1_555 1_555
D16 O16 1_555 1_555
D17 O16 1_555 1_555
K1E O1 1_555 1_555
K2D O8 1_555 1_555
K2_2 O11 1_555 1_555
K2F O15 1_555 1_555
K3E O5 1_555 1_555
K3E_2 O11 1_555 1_555
O1E K1 1_555 1_555
O4E K1 1_555 1_555
O5E K3 1_555 1_555
O7E K3 1_555 1_555
O8D K2 1_555 1_555
O10D K2 1_555 1_555
O11_2 K2 1_555 1_555
O11E K3 1_555 1_555
O14E K3 1_555 1_555
D12E O14E 1_555 1_555
D13E O14E 1_555 1_555
O15F K2 1_555 1_555
D14F O15F 1_555 1_555
D15F O15F 1_555 1_555
N3 C3 1_555 1_555
O4 K1E 1_555 1_555
N6 C6 1_555 1_555
O7 K3E 1_555 1_555
N8 C9 1_555 1_555
N9 C9 1_555 1_555
O10 K2D 1_555 1_555
N11 C12 1_555 1_555
N12 C12 1_555 1_555
O14 K3E 1_555 1_555
K1E O1E 1_555 1_555
K1E O4E 1_555 1_555
K3E O11_2 1_555 1_555

#END
