
#######################################################################
#
#                 Cambridge Crystallographic Data Centre
#                                CCDC 
#
#######################################################################
#
# If this CIF has been generated from an entry in the Cambridge 
# Structural Database, then it will include bibliographic, chemical, 
# crystal, experimental, refinement or atomic coordinate data resulting 
# from the CCDC's data processing and validation procedures.
#
#######################################################################

data_LEPKUO
_symmetry_cell_setting           monoclinic
_symmetry_space_group_name_H-M   'P 21/c'
_symmetry_Int_Tables_number      14
_space_group_name_Hall           '-P 2ybc'
loop_
_symmetry_equiv_pos_site_id
_symmetry_equiv_pos_as_xyz
1 x,y,z
2 -x,1/2+y,1/2-z
3 -x,-y,-z
4 x,1/2-y,1/2+z
_cell_length_a                   13.3713(12)
_cell_length_b                   17.9197(16)
_cell_length_c                   18.7864(12)
_cell_angle_alpha                90
_cell_angle_beta                 133.543(4)
_cell_angle_gamma                90
_cell_volume                     3262.88
loop_
_atom_site_label
_atom_site_type_symbol
_atom_site_fract_x
_atom_site_fract_y
_atom_site_fract_z
Sm1 Sm 0.45147(2) 0.030275(11) 0.357392(17)
Sm2 Sm 0.45060(2) -0.012449(12) 0.097811(17)
C1 C 0.3318(4) 0.1216(2) 0.1656(3)
C2 C 0.3170(4) 0.1952(2) 0.1204(3)
C3 C 0.3569(4) 0.2609(2) 0.1736(3)
H1 H 0.3834 0.2597 0.2342
C4 C 0.3574(4) 0.3279(2) 0.1372(3)
C5 C 0.3133(5) 0.3289(2) 0.0444(3)
H2 H 0.3129 0.3737 0.0191
C6 C 0.2706(5) 0.2644(3) -0.0095(4)
H3 H 0.2390 0.2659 -0.0717
C7 C 0.2746(5) 0.1971(2) 0.0290(3)
H4 H 0.2488 0.1533 -0.0064
C8 C 0.4142(5) 0.3976(2) 0.1985(4)
C9 C 0.3033(5) -0.1097(2) 0.2718(3)
C10 C 0.2461(4) -0.1855(2) 0.2309(3)
C11 C 0.3242(4) -0.2481(2) 0.2865(3)
H5 H 0.4086 -0.2424 0.3508
C12 C 0.2767(5) -0.3192(2) 0.2462(3)
C13 C 0.1484(5) -0.3279(3) 0.1530(4)
H6 H 0.1161 -0.3753 0.1260
C14 C 0.0674(5) -0.2659(3) 0.0994(4)
H7 H -0.0212 -0.2721 0.0378
C15 C 0.1176(5) -0.1946(3) 0.1370(4)
H8 H 0.0650 -0.1531 0.0991
C16 C 0.3684(4) -0.3851(2) 0.3020(3)
C17 C -0.2557(5) -0.0288(2) 0.1274(4)
C18 C -0.1269(5) -0.0284(2) 0.2331(3)
C19 C -0.0031(5) -0.0062(2) 0.2624(3)
H9 H -0.0018 0.0068 0.2152
C20 C 0.1180(5) -0.0033(3) 0.3610(3)
C21 C 0.1151(5) -0.0218(3) 0.4316(4)
H10 H 0.1953 -0.0190 0.4980
C22 C -0.0076(5) -0.0445(3) 0.4025(4)
H11 H -0.0092 -0.0570 0.4498
C23 C -0.1274(5) -0.0486(3) 0.3044(4)
H12 H -0.2087 -0.0650 0.2858
C24 C 0.2502(5) 0.0171(2) 0.3900(4)
O1 O 0.3235(3) 0.12095(17) 0.2284(2)
O2 O 0.3540(3) 0.06418(17) 0.1401(3)
O3 O 0.4323(4) 0.45424(17) 0.1690(3)
O4 O 0.4413(4) 0.39564(17) 0.2767(2)
O5 O 0.3543(3) -0.43987(16) 0.2535(2)
O6 O 0.4594(3) -0.38505(16) 0.3945(2)
O7 O 0.3915(3) -0.10000(16) 0.3641(2)
O8 O 0.2678(3) -0.05619(16) 0.2146(2)
O9 O -0.2462(4) -0.0233(2) 0.0652(3)
O10 O -0.3709(3) -0.0336(2) 0.1016(3)
O11 O 0.2449(3) 0.04362(18) 0.3253(3)
O12 O 0.3631(3) 0.00614(18) 0.4772(3)
O13 O 0.2585(3) -0.08142(19) 0.0630(3)
O14 O 0.3998(5) -0.1276(2) 0.0071(3)
H20 H 0.427(6) -0.143(3) -0.021(4)
O15 O 0.6212(4) 0.10555(19) 0.3741(3)
H21 H 0.630(7) 0.104(4) 0.332(4)
H22 H 0.649(6) 0.1525(15) 0.394(4)
O16 O 0.5037(4) 0.14363(18) 0.4543(3)
H23 H 0.528(5) 0.133(3) 0.510(2)
H24 H 0.176(3) -0.065(4) 0.021(4)
Sm1A Sm 0.54853(2) 0.530275(11) 0.142608(17)
Sm1B Sm 0.54853(2) -0.030275(11) 0.642608(17)
Sm2A Sm 0.54940(2) 0.487551(12) 0.402189(17)
Sm2A_2 Sm 0.54940(2) -0.512449(12) 0.402189(17)
Sm2B Sm -0.45060(2) 0.012449(12) -0.097811(17)
Sm2_2 Sm -0.54940(2) -0.012449(12) 0.097811(17)
O3A O 0.5677(4) -0.04576(17) 0.3310(3)
O4A O 0.5587(4) -0.10436(17) 0.2233(2)
O5A O 0.6457(3) 0.06013(16) 0.2465(2)
O6A O 0.5406(3) 0.11495(16) 0.1055(2)
O9B O 0.2462(4) 0.0233(2) -0.0652(3)
O10_2 O 0.6291(3) -0.0336(2) 0.1016(3)
O12B O 0.6369(3) -0.00614(18) 0.5228(3)
C25 C 0.8393(13) 0.2515(5) 0.0416(10)
H13 H 0.8614 0.2479 0.0044
C26 C 1.0846(12) 0.2272(9) 0.1854(10)
H14 H 1.1407 0.2237 0.2548
H15 H 1.1181 0.2669 0.1721
H16 H 1.0887 0.1810 0.1617
C27 C 0.9266(14) 0.2542(14) 0.1939(10)
H17 H 0.8310 0.2655 0.1548
H18 H 0.9823 0.2955 0.2364
H19 H 0.9512 0.2105 0.2328
O18 O 0.7130(7) 0.2643(3) -0.0089(6)
N1 N 0.9471(9) 0.2420(4) 0.1376(7)
O17 O 0.9806(6) 0.9627(5) 0.9208(4)
loop_
_geom_bond_atom_site_label_1
_geom_bond_atom_site_label_2
_geom_bond_site_symmetry_1
_geom_bond_site_symmetry_2
Sm1 O1 1_555 1_555
Sm2 O2 1_555 1_555
C1 C2 1_555 1_555
C2 C3 1_555 1_555
C3 H1 1_555 1_555
C4 C3 1_555 1_555
C5 C4 1_555 1_555
H2 C5 1_555 1_555
C6 C5 1_555 1_555
H3 C6 1_555 1_555
C7 C2 1_555 1_555
H4 C7 1_555 1_555
C8 C4 1_555 1_555
C9 C10 1_555 1_555
C10 C11 1_555 1_555
C11 H5 1_555 1_555
C12 C11 1_555 1_555
C13 C12 1_555 1_555
H6 C13 1_555 1_555
C14 C13 1_555 1_555
H7 C14 1_555 1_555
C15 C10 1_555 1_555
H8 C15 1_555 1_555
C16 C12 1_555 1_555
C17 C18 1_555 1_555
C18 C19 1_555 1_555
C19 H9 1_555 1_555
C20 C19 1_555 1_555
C21 C20 1_555 1_555
H10 C21 1_555 1_555
C22 C21 1_555 1_555
H11 C22 1_555 1_555
C23 C18 1_555 1_555
H12 C23 1_555 1_555
C24 C20 1_555 1_555
C25 H13 1_555 1_555
C26 H14 1_555 1_555
H15 C26 1_555 1_555
H16 C26 1_555 1_555
C27 H17 1_555 1_555
H18 C27 1_555 1_555
H19 C27 1_555 1_555
O1 C1 1_555 1_555
O2 C1 1_555 1_555
O3 C8 1_555 1_555
O4 C8 1_555 1_555
O5 C16 1_555 1_555
O6 C16 1_555 1_555
O7 Sm1 1_555 1_555
O8 Sm1 1_555 1_555
O9 C17 1_555 1_555
O10 C17 1_555 1_555
O11 Sm1 1_555 1_555
O12 C24 1_555 1_555
O13 Sm2 1_555 1_555
O14 Sm2 1_555 1_555
H20 O14 1_555 1_555
O15 Sm1 1_555 1_555
H21 O15 1_555 1_555
H22 O15 1_555 1_555
O16 Sm1 1_555 1_555
H23 O16 1_555 1_555
O18 C25 1_555 1_555
N1 C25 1_555 1_555
H24 O13 1_555 1_555
Sm1A O3 1_555 1_555
Sm1B O12 1_555 1_555
Sm2A O4 1_555 1_555
Sm2A_2 O5 1_555 1_555
Sm2B O9 1_555 1_555
Sm2_2 O10 1_555 1_555
O3A Sm1 1_555 1_555
O4A Sm2 1_555 1_555
O5A Sm2 1_555 1_555
O6A Sm2 1_555 1_555
O9B Sm2 1_555 1_555
O10_2 Sm2 1_555 1_555
O12B Sm1 1_555 1_555
C6 C7 1_555 1_555
C9 O7 1_555 1_555
C9 O8 1_555 1_555
C14 C15 1_555 1_555
C22 C23 1_555 1_555
C24 O11 1_555 1_555
C26 N1 1_555 1_555
C27 N1 1_555 1_555
O6 Sm2A_2 1_555 1_555

#END
