
#######################################################################
#
#                 Cambridge Crystallographic Data Centre
#                                CCDC 
#
#######################################################################
#
# If this CIF has been generated from an entry in the Cambridge 
# Structural Database, then it will include bibliographic, chemical, 
# crystal, experimental, refinement or atomic coordinate data resulting 
# from the CCDC's data processing and validation procedures.
#
#######################################################################

data_LEPKIB
_symmetry_cell_setting           orthorhombic
_symmetry_space_group_name_H-M   'C m c m'
_symmetry_Int_Tables_number      63
_space_group_name_Hall           '-C 2n 2'
loop_
_symmetry_equiv_pos_site_id
_symmetry_equiv_pos_as_xyz
1 x,y,z
2 1/2+x,1/2+y,z
3 -x,-y,1/2+z
4 -x,y,1/2-z
5 x,-y,-z
6 1/2-x,1/2-y,1/2+z
7 1/2-x,1/2+y,1/2-z
8 1/2+x,1/2-y,-z
9 -x,-y,-z
10 1/2-x,1/2-y,-z
11 x,y,1/2-z
12 x,-y,1/2+z
13 -x,y,z
14 1/2+x,1/2+y,1/2-z
15 1/2+x,1/2-y,1/2+z
16 1/2-x,1/2+y,z
_cell_length_a                   13.062(4)
_cell_length_b                   6.620(2)
_cell_length_c                   6.817(2)
_cell_angle_alpha                90
_cell_angle_beta                 90
_cell_angle_gamma                90
_cell_volume                     589.469
loop_
_atom_site_label
_atom_site_type_symbol
_atom_site_fract_x
_atom_site_fract_y
_atom_site_fract_z
K1 K 0.32199(3) 0.5000 0.5000
O1 O 0.17320(10) 0.6499(2) 0.2500
N1 N 0.0000 0.6430(4) 0.2500
N2 N 0.09318(13) 0.3413(2) 0.2500
O2 O 0.0000 0.0552(3) 0.2500
C1 C 0.09272(15) 0.5441(3) 0.2500
C2 C 0.0000 0.2483(4) 0.2500
H1 H 0.0000 0.766(8) 0.2500
K1L K -0.32199(3) 0.5000 0.5000
K1J K 0.32199(3) 0.5000 0.0000
K1J_2 K 0.32199(3) 0.5000 1.0000
K1O K 0.17801(3) 0.0000 0.5000
K1O_2 K 0.17801(3) 1.0000 0.5000
K1E K 0.17801(3) 1.0000 0.0000
K1E_2 K 0.17801(3) 0.0000 0.0000
K1A K -0.17801(3) 1.0000 0.5000
K1M K -0.17801(3) 1.0000 0.0000
K1B K -0.32199(3) 0.5000 0.0000
K1A_2 K -0.17801(3) 0.0000 0.5000
K1M_2 K -0.17801(3) 0.0000 0.0000
K1B_2 K -0.32199(3) 0.5000 1.0000
O1L O -0.17320(10) 0.6499(2) 0.2500
O1K O 0.17320(10) 0.3501(2) 0.7500
O1O O 0.32680(10) 0.1499(2) 0.2500
O1I O 0.32680(10) 0.8501(2) 0.7500
O1A O -0.32680(10) 0.1499(2) 0.2500
O1N O -0.32680(10) 0.8501(2) 0.7500
O1H O -0.17320(10) 0.3501(2) 0.7500
N2L N -0.09318(13) 0.3413(2) 0.2500
N2O N 0.40682(13) 0.8413(2) 0.2500
N2I N 0.40682(13) 0.1587(2) 0.7500
N2A N -0.40682(13) 0.8413(2) 0.2500
N2N N -0.40682(13) 0.1587(2) 0.7500
C1L C -0.09272(15) 0.5441(3) 0.2500
loop_
_geom_bond_atom_site_label_1
_geom_bond_atom_site_label_2
_geom_bond_site_symmetry_1
_geom_bond_site_symmetry_2
K1 O1 1_555 1_555
O1 C1 1_555 1_555
N1 C1 1_555 1_555
N2 C1 1_555 1_555
O2 C2 1_555 1_555
C2 N2 1_555 1_555
H1 N1 1_555 1_555
K1L O1L 1_555 1_555
K1J O1 1_555 1_555
K1J_2 O1K 1_555 1_555
K1O N2 1_555 1_555
K1O_2 O1 1_555 1_555
K1E O1 1_555 1_555
K1E_2 N2 1_555 1_555
K1A O1L 1_555 1_555
K1M O1L 1_555 1_555
K1B O1L 1_555 1_555
K1A_2 O1A 1_555 1_555
K1M_2 O1A 1_555 1_555
K1B_2 O1N 1_555 1_555
O1L C1L 1_555 1_555
O1K K1 1_555 1_555
O1O K1 1_555 1_555
O1I K1 1_555 1_555
O1A K1L 1_555 1_555
O1N K1L 1_555 1_555
O1H K1L 1_555 1_555
N2L C2 1_555 1_555
N2O K1 1_555 1_555
N2I K1 1_555 1_555
N2A K1L 1_555 1_555
N2N K1L 1_555 1_555
C1L N1 1_555 1_555
K1J O1O 1_555 1_555
K1J N2O 1_555 1_555
K1J_2 O1I 1_555 1_555
K1J_2 N2I 1_555 1_555
K1O O1K 1_555 1_555
K1O O1O 1_555 1_555
K1O_2 O1I 1_555 1_555
K1E_2 O1O 1_555 1_555
K1A O1N 1_555 1_555
K1B O1A 1_555 1_555
K1B N2A 1_555 1_555
K1A_2 O1H 1_555 1_555
K1A_2 N2L 1_555 1_555
K1M_2 N2L 1_555 1_555
K1B_2 O1H 1_555 1_555
K1B_2 N2N 1_555 1_555
N2L C1L 1_555 1_555

#END
