
#######################################################################
#
#                 Cambridge Crystallographic Data Centre
#                                CCDC 
#
#######################################################################
#
# If this CIF has been generated from an entry in the Cambridge 
# Structural Database, then it will include bibliographic, chemical, 
# crystal, experimental, refinement or atomic coordinate data resulting 
# from the CCDC's data processing and validation procedures.
#
#######################################################################

data_LEPVIN
_symmetry_cell_setting           triclinic
_symmetry_space_group_name_H-M   'P -1'
_symmetry_Int_Tables_number      2
_space_group_name_Hall           '-P 1'
loop_
_symmetry_equiv_pos_site_id
_symmetry_equiv_pos_as_xyz
1 x,y,z
2 -x,-y,-z
_cell_length_a                   8.6854(3)
_cell_length_b                   11.9378(5)
_cell_length_c                   13.6375(6)
_cell_angle_alpha                104.455(4)
_cell_angle_beta                 97.817(3)
_cell_angle_gamma                98.652(3)
_cell_volume                     1331.22
loop_
_atom_site_label
_atom_site_type_symbol
_atom_site_fract_x
_atom_site_fract_y
_atom_site_fract_z
La1 La 0.95586(3) 0.11995(2) 0.401254(19)
La2 La 0.68320(3) 0.38512(2) 0.388603(19)
Ag1 Ag 0.44801(5) 0.04740(4) 0.31659(3)
O1 O 0.8794(4) 0.0563(3) 0.5554(2)
O2 O 0.9578(4) 0.0557(3) 0.7150(3)
O3 O 0.7233(4) 0.2054(3) 0.4534(2)
O4 O 0.5062(4) 0.1117(3) 0.4907(2)
O5 O 0.5139(4) 0.3628(3) 0.5173(2)
O6 O 0.4730(4) 0.4776(3) 0.6622(3)
O7 O 1.2015(4) 0.1952(3) 0.3465(3)
O8 O 1.4236(4) 0.2565(3) 0.2960(3)
O9 O 0.9609(4) 0.3370(3) 0.4041(2)
O10 O 1.1795(4) 0.4753(3) 0.4445(2)
O11 O 0.8639(4) 0.5277(3) 0.3310(3)
O12 O 0.8378(6) 0.5705(4) 0.1807(3)
O13 O 0.8307(5) 0.1098(3) 0.2265(3)
O14 O 0.7027(4) 0.2560(3) 0.2202(3)
O15 O 1.1678(5) 0.2485(3) 0.5553(3)
H1 H 1.2541 0.2581 0.5329
H2 H 1.1580 0.3162 0.5898
O16 O 0.7111(4) -0.0548(3) 0.3537(3)
H3 H 0.7052 -0.0860 0.4030
H4 H 0.7179 -0.1073 0.3002
C1 C 0.8838(5) 0.0966(4) 0.6520(4)
C2 C 0.6353(5) 0.1797(4) 0.5167(4)
C3 C 0.5309(5) 0.3958(4) 0.6138(4)
C4 C 0.7969(5) 0.1937(4) 0.6925(4)
C5 C 0.6922(5) 0.2376(4) 0.6301(3)
C6 C 0.6272(5) 0.3338(4) 0.6769(3)
C7 C 0.6544(6) 0.3773(4) 0.7829(4)
H5 H 0.6073 0.4389 0.8132
C8 C 0.7509(6) 0.3301(4) 0.8440(4)
H6 H 0.7660 0.3581 0.9153
C9 C 0.8248(6) 0.2413(4) 0.7990(4)
H7 H 0.8943 0.2127 0.8404
C10 C 1.2793(5) 0.2528(4) 0.2975(4)
C11 C 1.0736(5) 0.4026(4) 0.3815(3)
C12 C 0.8920(6) 0.5171(5) 0.2398(4)
C13 C 1.1911(6) 0.3144(4) 0.2310(4)
C14 C 1.0839(5) 0.3825(4) 0.2689(3)
C15 C 1.0000(5) 0.4351(4) 0.2032(4)
C16 C 1.0190(6) 0.4130(5) 0.1010(4)
H8 H 0.9587 0.4440 0.0565
C17 C 1.1252(7) 0.3462(5) 0.0648(4)
H9 H 1.1374 0.3333 -0.0036
C18 C 1.2147(7) 0.2977(5) 0.1297(4)
H10 H 1.2894 0.2545 0.1059
C19 C 0.7532(6) 0.1669(4) 0.1794(4)
C20 C 0.7130(6) 0.1202(4) 0.0637(4)
C21 C 0.7944(6) 0.0433(5) 0.0091(4)
H11 H 0.8781 0.0188 0.0428
C22 C 0.7496(6) 0.0034(5) -0.0958(4)
H12 H 0.8094 -0.0448 -0.1322
N1 N 0.6268(5) 0.0290(4) -0.1488(3)
C23 C 0.5464(6) 0.1034(5) -0.0961(4)
H13 H 0.4592 0.1225 -0.1314
C24 C 0.5894(6) 0.1529(4) 0.0098(4)
H14 H 0.5353 0.2076 0.0439
La1A La 1.04414(3) -0.11995(2) 0.598746(19)
La2A La 0.31680(3) 0.61488(2) 0.611397(19)
La2_2 La 1.68320(3) 0.38512(2) 0.388603(19)
La2A_2 La 1.31680(3) 0.61488(2) 0.611397(19)
Ag1_2 Ag 1.44801(5) 0.04740(4) 0.31659(3)
Ag1A Ag 0.55199(5) -0.04740(4) -0.31659(3)
O1A O 1.1206(4) -0.0563(3) 0.4446(2)
O2A O 1.0422(4) -0.0557(3) 0.2850(3)
O6A O 0.5270(4) 0.5224(3) 0.3378(3)
O8_2 O 0.4236(4) 0.2565(3) 0.2960(3)
O10A O 0.8205(4) 0.5247(3) 0.5555(2)
N1A N 0.3732(5) -0.0290(4) 0.1488(3)
O17 O 0.7300(7) -0.2276(5) 0.1906(4)
H15 H 0.7917 -0.1941 0.1587
H16 H 0.7558 -0.2945 0.1852
loop_
_geom_bond_atom_site_label_1
_geom_bond_atom_site_label_2
_geom_bond_site_symmetry_1
_geom_bond_site_symmetry_2
La1 O1 1_555 1_555
La2 O3 1_555 1_555
Ag1 O4 1_555 1_555
O1 C1 1_555 1_555
O2 C1 1_555 1_555
O3 La1 1_555 1_555
O4 C2 1_555 1_555
O5 La2 1_555 1_555
O6 C3 1_555 1_555
O7 La1 1_555 1_555
O8 C10 1_555 1_555
O9 La1 1_555 1_555
O10 C11 1_555 1_555
O11 La2 1_555 1_555
O12 C12 1_555 1_555
O13 La1 1_555 1_555
O14 La2 1_555 1_555
O15 La1 1_555 1_555
H1 O15 1_555 1_555
H2 O15 1_555 1_555
O16 La1 1_555 1_555
H3 O16 1_555 1_555
H4 O16 1_555 1_555
C1 C4 1_555 1_555
C2 O3 1_555 1_555
C3 O5 1_555 1_555
C4 C5 1_555 1_555
C5 C2 1_555 1_555
C6 C3 1_555 1_555
C7 C6 1_555 1_555
H5 C7 1_555 1_555
C8 C7 1_555 1_555
H6 C8 1_555 1_555
C9 C4 1_555 1_555
H7 C9 1_555 1_555
C10 O7 1_555 1_555
C11 O9 1_555 1_555
C12 O11 1_555 1_555
C13 C10 1_555 1_555
C14 C11 1_555 1_555
C15 C12 1_555 1_555
C16 C15 1_555 1_555
H8 C16 1_555 1_555
C17 C16 1_555 1_555
H9 C17 1_555 1_555
C18 C13 1_555 1_555
H10 C18 1_555 1_555
C19 O13 1_555 1_555
C20 C19 1_555 1_555
C21 C20 1_555 1_555
H11 C21 1_555 1_555
C22 C21 1_555 1_555
H12 C22 1_555 1_555
N1 C22 1_555 1_555
C23 N1 1_555 1_555
H13 C23 1_555 1_555
C24 C20 1_555 1_555
H14 C24 1_555 1_555
O17 H15 1_555 1_555
H16 O17 1_555 1_555
La1A O1 1_555 1_555
La2A O6 1_555 1_555
La2_2 O8 1_555 1_555
La2A_2 O10 1_555 1_555
Ag1_2 O8 1_555 1_555
Ag1A N1 1_555 1_555
O1A La1 1_555 1_555
O2A La1 1_555 1_555
O6A La2 1_555 1_555
O8_2 La2 1_555 1_555
O10A La2 1_555 1_555
N1A Ag1 1_555 1_555
La2 O9 1_555 1_555
Ag1 O8_2 1_555 1_555
O2 La1A 1_555 1_555
O14 C19 1_555 1_555
C5 C6 1_555 1_555
C8 C9 1_555 1_555
C13 C14 1_555 1_555
C14 C15 1_555 1_555
C17 C18 1_555 1_555
C23 C24 1_555 1_555
La1A O1A 1_555 1_555

#END
