
#######################################################################
#
#                 Cambridge Crystallographic Data Centre
#                                CCDC 
#
#######################################################################
#
# If this CIF has been generated from an entry in the Cambridge 
# Structural Database, then it will include bibliographic, chemical, 
# crystal, experimental, refinement or atomic coordinate data resulting 
# from the CCDC's data processing and validation procedures.
#
#######################################################################

data_LEPXEL
_symmetry_cell_setting           monoclinic
_symmetry_space_group_name_H-M   'P 21/c'
_symmetry_Int_Tables_number      14
_space_group_name_Hall           '-P 2ybc'
loop_
_symmetry_equiv_pos_site_id
_symmetry_equiv_pos_as_xyz
1 x,y,z
2 -x,1/2+y,1/2-z
3 -x,-y,-z
4 x,1/2-y,1/2+z
_cell_length_a                   13.6247(3)
_cell_length_b                   10.5447(2)
_cell_length_c                   20.8365(5)
_cell_angle_alpha                90
_cell_angle_beta                 96.106(2)
_cell_angle_gamma                90
_cell_volume                     2976.56
loop_
_atom_site_label
_atom_site_type_symbol
_atom_site_fract_x
_atom_site_fract_y
_atom_site_fract_z
Zn1 Zn 0.79160(3) 0.51569(3) 0.537010(17)
N1 N 0.80213(19) 0.3272(2) 0.55820(11)
O1 O 0.68923(19) 0.5670(2) 0.58896(12)
O2 O 1.0035(2) 0.7030(3) 0.74191(10)
H1 H 0.9669 0.6472 0.7259
O3 O 0.90837(16) 0.6232(2) 0.55091(10)
C1 C 0.8410(3) -0.0164(4) 0.90449(16)
H2 H 0.9042 -0.0179 0.9263
O4 O 0.91175(19) 0.5682(2) 0.65340(11)
C2 C 0.6604(2) -0.0149(3) 0.83973(15)
H3 H 0.5965 -0.0157 0.8189
C3 C 0.6747(2) -0.0183(3) 0.90604(15)
H4 H 0.6197 -0.0216 0.9289
C4 C 1.1258(3) 1.0143(3) 0.54947(17)
H5 H 1.1073 0.9964 0.5062
C5 C 0.7236(3) -0.0029(3) 0.73120(14)
H6 H 0.6577 -0.0334 0.7169
H7 H 0.7265 0.0855 0.7187
C6 C 1.0042(2) 0.7479(3) 0.62847(14)
C7 C 1.0950(2) 0.9332(3) 0.59735(15)
C8 C 0.8318(3) -0.0138(4) 0.83800(15)
H8 H 0.8878 -0.0142 0.8161
C9 C 1.0363(2) 0.8252(3) 0.58184(14)
H9 H 1.0186 0.8056 0.5386
C10 C 0.9377(2) 0.6391(3) 0.61009(16)
C11 C 0.7171(2) 0.1293(3) 0.55556(15)
H10 H 0.6627 0.0820 0.5389
C12 C 0.7872(2) 0.0759(3) 0.60000(13)
C13 C 0.7276(2) 0.2519(3) 0.53594(15)
H11 H 0.6798 0.2848 0.5052
C14 C 0.8664(3) 0.1518(3) 0.62112(15)
H12 H 0.9171 0.1193 0.6499
C15 C 0.5313(3) 0.6800(4) 0.79229(18)
H13 H 0.5809 0.6227 0.8064
C16 C 0.5789(2) 0.6704(3) 0.68107(16)
H14 H 0.6284 0.6123 0.6941
C17 C 0.4425(3) 0.8021(3) 0.70610(19)
C18 C 0.4934(3) 0.7994(4) 0.59863(18)
C19 C 1.1227(2) 0.9617(3) 0.66319(15)
C20 C 0.7956(3) -0.0756(3) 0.69596(15)
H15 H 0.7910 -0.1650 0.7063
H16 H 0.8620 -0.0476 0.7106
C21 C 0.5187(2) 0.7161(3) 0.72739(17)
C22 C 1.0339(2) 0.7769(3) 0.69435(15)
O5 O 0.4840(2) 0.8447(3) 0.53724(13)
H17 H 0.5258 0.8119 0.5171
C23 C 1.0907(2) 0.8814(3) 0.71053(15)
H18 H 1.1084 0.8997 0.7539
O6 O 0.6309(2) 0.7079(3) 0.51625(13)
C24 C 0.5676(2) 0.7079(3) 0.61835(16)
C25 C 1.1802(3) 1.0713(3) 0.67828(19)
H19 H 1.1986 1.0924 0.7212
C26 C 0.8713(2) 0.2750(3) 0.60015(15)
H20 H 0.9252 0.3242 0.6159
C27 C 0.7388(2) -0.0104(3) 0.80404(14)
C28 C 1.1821(3) 1.1182(4) 0.5658(2)
H21 H 1.2027 1.1704 0.5338
C29 C 1.2090(3) 1.1461(4) 0.6306(2)
H22 H 1.2474 1.2174 0.6415
C30 C 0.3808(3) 0.8469(4) 0.7524(2)
H23 H 0.3290 0.9017 0.7395
C31 C 0.7771(3) -0.0588(3) 0.62271(15)
H24 H 0.8234 -0.1117 0.6025
H25 H 0.7111 -0.0886 0.6083
C32 C 0.4721(3) 0.7274(4) 0.8352(2)
H26 H 0.4824 0.7038 0.8784
C33 C 0.6332(3) 0.6574(4) 0.57059(19)
C34 C 0.4316(3) 0.8418(4) 0.6415(2)
H27 H 0.3813 0.8981 0.6275
C35 C 0.3965(3) 0.8109(4) 0.8145(2)
H28 H 0.3561 0.8423 0.8441
N2 N 0.76474(19) -0.0169(2) 0.93915(11)
Zn1C Zn 0.79160(3) -0.01569(3) 1.037010(17)
N2C N 0.76474(19) 0.5169(2) 0.43915(11)
loop_
_geom_bond_atom_site_label_1
_geom_bond_atom_site_label_2
_geom_bond_site_symmetry_1
_geom_bond_site_symmetry_2
Zn1 N1 1_555 1_555
N1 C13 1_555 1_555
O1 Zn1 1_555 1_555
O2 H1 1_555 1_555
O3 Zn1 1_555 1_555
C1 H2 1_555 1_555
O4 C10 1_555 1_555
C2 H3 1_555 1_555
C3 C2 1_555 1_555
H4 C3 1_555 1_555
C4 H5 1_555 1_555
C5 H6 1_555 1_555
H7 C5 1_555 1_555
C6 C9 1_555 1_555
C7 C4 1_555 1_555
C8 C1 1_555 1_555
H8 C8 1_555 1_555
C9 C7 1_555 1_555
H9 C9 1_555 1_555
C10 O3 1_555 1_555
C11 H10 1_555 1_555
C12 C11 1_555 1_555
C13 C11 1_555 1_555
H11 C13 1_555 1_555
C14 C12 1_555 1_555
H12 C14 1_555 1_555
C15 H13 1_555 1_555
C16 H14 1_555 1_555
C17 C21 1_555 1_555
C18 O5 1_555 1_555
C19 C7 1_555 1_555
C20 C5 1_555 1_555
H15 C20 1_555 1_555
H16 C20 1_555 1_555
C21 C15 1_555 1_555
C22 O2 1_555 1_555
O5 H17 1_555 1_555
C23 C19 1_555 1_555
H18 C23 1_555 1_555
O6 C33 1_555 1_555
C24 C16 1_555 1_555
C25 C19 1_555 1_555
H19 C25 1_555 1_555
C26 N1 1_555 1_555
H20 C26 1_555 1_555
C27 C2 1_555 1_555
C28 C4 1_555 1_555
H21 C28 1_555 1_555
C29 C25 1_555 1_555
H22 C29 1_555 1_555
C30 C17 1_555 1_555
H23 C30 1_555 1_555
C31 C12 1_555 1_555
H24 C31 1_555 1_555
H25 C31 1_555 1_555
C32 C15 1_555 1_555
H26 C32 1_555 1_555
C33 O1 1_555 1_555
C34 C17 1_555 1_555
H27 C34 1_555 1_555
C35 C30 1_555 1_555
H28 C35 1_555 1_555
N2 C1 1_555 1_555
Zn1C N2 1_555 1_555
N2C Zn1 1_555 1_555
C3 N2 1_555 1_555
C5 C27 1_555 1_555
C6 C10 1_555 1_555
C6 C22 1_555 1_555
C8 C27 1_555 1_555
C14 C26 1_555 1_555
C16 C21 1_555 1_555
C18 C24 1_555 1_555
C18 C34 1_555 1_555
C20 C31 1_555 1_555
C22 C23 1_555 1_555
C24 C33 1_555 1_555
C28 C29 1_555 1_555
C32 C35 1_555 1_555

#END
