
#######################################################################
#
#                 Cambridge Crystallographic Data Centre
#                                CCDC 
#
#######################################################################
#
# If this CIF has been generated from an entry in the Cambridge 
# Structural Database, then it will include bibliographic, chemical, 
# crystal, experimental, refinement or atomic coordinate data resulting 
# from the CCDC's data processing and validation procedures.
#
#######################################################################

data_LEQQUU
_symmetry_cell_setting           orthorhombic
_symmetry_space_group_name_H-M   'P 21 21 2'
_symmetry_Int_Tables_number      18
_space_group_name_Hall           'P 2 2ab'
loop_
_symmetry_equiv_pos_site_id
_symmetry_equiv_pos_as_xyz
1 x,y,z
2 -x,-y,z
3 1/2-x,1/2+y,-z
4 1/2+x,1/2-y,-z
_cell_length_a                   13.343(2)
_cell_length_b                   17.950(3)
_cell_length_c                   3.9550(5)
_cell_angle_alpha                90
_cell_angle_beta                 90
_cell_angle_gamma                90
_cell_volume                     947.25
loop_
_atom_site_label
_atom_site_type_symbol
_atom_site_fract_x
_atom_site_fract_y
_atom_site_fract_z
Cd1 Cd -0.5000 0.5000 0.91387(10)
Cd2 Cd -0.608650(16) 0.683690(12) 1.42621(7)
Br1 Br -0.46181(2) 0.651721(16) 0.92046(9)
Br2 Br -0.74478(2) 0.697940(19) 0.92798(10)
Br3 Br -0.35817(2) 0.476557(16) 0.41361(9)
N1 N -0.56553(16) 0.80967(14) 1.4240(7)
C1 C -0.4743(2) 0.83188(17) 1.5129(8)
H1 H -0.4275 0.7961 1.5760
C2 C -0.4462(2) 0.90514(17) 1.5156(8)
H2 H -0.3820 0.9183 1.5852
C3 C -0.5133(2) 0.95965(16) 1.4148(8)
C4 C -0.60761(15) 0.93700(13) 1.3262(6)
H3 H -0.6551 0.9721 1.2617
C5 C -0.63321(15) 0.86152(13) 1.3318(6)
H4 H -0.6977 0.8470 1.2718
Cd1_2 Cd -0.5000 0.5000 -0.08613(10)
Cd1_3 Cd -0.5000 0.5000 1.91387(10)
Cd2A Cd -0.391350(16) 0.316310(12) 1.42621(7)
Cd2_2 Cd -0.608650(16) 0.683690(12) 0.42621(7)
Cd2A_2 Cd -0.391350(16) 0.316310(12) 0.42621(7)
Cd2A_3 Cd -0.391350(16) 1.316310(12) 1.42621(7)
Cd2_3 Cd -0.608650(16) 0.683690(12) 2.42621(7)
Br1A Br -0.53819(2) 0.348279(16) 0.92046(9)
Br1_2 Br -0.46181(2) 0.651721(16) 1.92046(9)
Br1A_2 Br -0.53819(2) 0.348279(16) 1.92046(9)
Br2_2 Br -0.74478(2) 0.697940(19) 1.92798(10)
Br2A Br -0.25522(2) 0.302060(19) 0.92798(10)
Br2A_2 Br -0.25522(2) 0.302060(19) 1.92798(10)
Br3_2 Br -0.35817(2) 0.476557(16) 1.41361(9)
Br3A Br -0.64183(2) 0.523443(16) 0.41361(9)
Br3A_2 Br -0.64183(2) 0.523443(16) 1.41361(9)
N1A N -0.43447(16) 1.19033(14) 1.4240(7)
N1A_2 N -0.43447(16) 0.19033(14) 1.4240(7)
C1A C -0.5257(2) 1.16812(17) 1.5129(8)
H1A H -0.5725 1.2039 1.5760
C2A C -0.5538(2) 1.09486(17) 1.5156(8)
H2A H -0.6180 1.0817 1.5852
C3A C -0.4867(2) 1.04035(16) 1.4148(8)
C4A C -0.39239(15) 1.06300(13) 1.3262(6)
H3A H -0.3449 1.0279 1.2617
C5A C -0.36679(15) 1.13848(13) 1.3318(6)
H4A H -0.3023 1.1530 1.2718
loop_
_geom_bond_atom_site_label_1
_geom_bond_atom_site_label_2
_geom_bond_site_symmetry_1
_geom_bond_site_symmetry_2
Cd1 Br1 1_555 1_555
Cd2 Br1 1_555 1_555
Br1 Cd2_2 1_555 1_555
Br2 Cd2 1_555 1_555
Br3 Cd1 1_555 1_555
N1 Cd2 1_555 1_555
C1 N1 1_555 1_555
H1 C1 1_555 1_555
C2 C1 1_555 1_555
H2 C2 1_555 1_555
C3 C2 1_555 1_555
C4 C3 1_555 1_555
H3 C4 1_555 1_555
C5 N1 1_555 1_555
H4 C5 1_555 1_555
Cd1_2 Br3 1_555 1_555
Cd1_3 Br1_2 1_555 1_555
Cd2A Br1A 1_555 1_555
Cd2_2 Br2 1_555 1_555
Cd2A_2 Br3 1_555 1_555
Cd2A_3 N1A 1_555 1_555
Cd2_3 Br1_2 1_555 1_555
Br1A Cd1 1_555 1_555
Br1_2 Cd2 1_555 1_555
Br1A_2 Cd1_3 1_555 1_555
Br2_2 Cd2 1_555 1_555
Br2A Cd2A 1_555 1_555
Br2A_2 Cd2A 1_555 1_555
Br3_2 Cd1 1_555 1_555
Br3A Cd1 1_555 1_555
Br3A_2 Cd1 1_555 1_555
N1A C1A 1_555 1_555
N1A_2 Cd2A 1_555 1_555
C1A H1A 1_555 1_555
C2A C1A 1_555 1_555
H2A C2A 1_555 1_555
C3A C3 1_555 1_555
C4A C3A 1_555 1_555
H3A C4A 1_555 1_555
C5A N1A 1_555 1_555
H4A C5A 1_555 1_555
Cd2 Br3A_2 1_555 1_555
C4 C5 1_555 1_555
Cd1_2 Br3A 1_555 1_555
Cd1_3 Br3_2 1_555 1_555
Cd1_3 Br3A_2 1_555 1_555
Cd2A Br1A_2 1_555 1_555
Cd2A Br3_2 1_555 1_555
Cd2_2 Br3A 1_555 1_555
Cd2A_2 Br1A 1_555 1_555
Cd2A_2 Br2A 1_555 1_555
Cd2_3 Br2_2 1_555 1_555
C2A C3A 1_555 1_555
C4A C5A 1_555 1_555

#END
