
#######################################################################
#
#                 Cambridge Crystallographic Data Centre
#                                CCDC 
#
#######################################################################
#
# If this CIF has been generated from an entry in the Cambridge 
# Structural Database, then it will include bibliographic, chemical, 
# crystal, experimental, refinement or atomic coordinate data resulting 
# from the CCDC's data processing and validation procedures.
#
#######################################################################

data_LEQRUV
_symmetry_cell_setting           monoclinic
_symmetry_space_group_name_H-M   'P 21'
_symmetry_Int_Tables_number      4
_space_group_name_Hall           'P 2yb'
loop_
_symmetry_equiv_pos_site_id
_symmetry_equiv_pos_as_xyz
1 x,y,z
2 -x,1/2+y,-z
_cell_length_a                   4.1325(6)
_cell_length_b                   12.926(2)
_cell_length_c                   22.610(5)
_cell_angle_alpha                90
_cell_angle_beta                 93.138(8)
_cell_angle_gamma                90
_cell_volume                     1205.94
loop_
_atom_site_label
_atom_site_type_symbol
_atom_site_fract_x
_atom_site_fract_y
_atom_site_fract_z
Hg1 Hg 0.24931(4) 0.974946(16) 0.476910(12)
Br1 Br 0.62609(11) 1.10734(4) 0.51489(3)
Br2 Br -0.12688(11) 0.84238(4) 0.44000(3)
Hg2 Hg -0.49657(6) 0.23882(2) 0.364639(15)
Hg4 Hg -0.68095(5) 0.120553(19) 0.140146(13)
Hg5 Hg -0.19697(10) -0.14551(3) 0.12044(3)
Br3 Br -0.13352(13) 0.38311(5) 0.38937(3)
Br4 Br -0.85655(13) 0.09008(5) 0.35381(3)
Br5 Br -0.62655(14) 0.31245(4) 0.23951(3)
Br6 Br -0.28127(12) 0.03608(4) 0.20868(3)
Br7 Br -1.03226(13) 0.23222(4) 0.07803(3)
Br8 Br -0.75788(13) -0.07305(4) 0.06758(3)
C1 C -0.4664(13) -0.5216(4) 0.1033(3)
C2 C -0.5809(11) -0.4508(4) 0.0607(3)
H1 H -0.7098 -0.4749 0.0286
C3 C -0.5121(14) -0.3474(5) 0.0640(3)
C4 C -0.2236(9) -0.3822(4) 0.1564(2)
C5 C -0.0418(10) -0.3384(3) 0.2106(2)
C6 C 0.2104(14) -0.2000(5) 0.2650(4)
C7 C 0.2921(13) -0.27508(18) 0.3054(4)
H2 H 0.4139 -0.2536 0.3390
C8 C 0.2154(14) -0.38061(19) 0.3026(4)
C9 C -0.2912(9) -0.4873(3) 0.1507(2)
C10 C 0.0427(10) -0.4159(3) 0.2514(2)
N3 N -0.3290(10) -0.3142(3) 0.1125(2)
N4 N 0.0444(12) -0.2393(3) 0.2131(3)
Hg5_2 Hg -1.19697(10) -0.14551(3) 0.12044(3)
Br8_2 Br 0.24212(13) -0.07305(4) 0.06758(3)
Hg3? Hg -1.11444(11) 0.41181(3) 0.22724(3)
N1? N -1.2912(9) 0.5127(3) 0.1507(2)
N2? N -0.9573(10) 0.5841(3) 0.2514(2)
C11? C -1.3290(10) 0.6858(3) 0.1125(2)
C12? C -0.9556(12) 0.7607(3) 0.2131(3)
loop_
_geom_bond_atom_site_label_1
_geom_bond_atom_site_label_2
_geom_bond_site_symmetry_1
_geom_bond_site_symmetry_2
Hg1 Br1 1_555 1_555
Hg2 Br3 1_555 1_555
Hg4 Br5 1_555 1_555
Hg5 Br6 1_555 1_555
Br2 Hg1 1_555 1_555
Br4 Hg2 1_555 1_555
Br5 Hg2 1_555 1_555
Br6 Hg4 1_555 1_555
Br7 Hg4 1_555 1_555
Br8 Hg4 1_555 1_555
C1 C2 1_555 1_555
C2 H1 1_555 1_555
C3 C2 1_555 1_555
C4 C5 1_555 1_555
C5 C10 1_555 1_555
C6 C7 1_555 1_555
C7 H2 1_555 1_555
C8 C7 1_555 1_555
C9 C1 1_555 1_555
C10 C8 1_555 1_555
N3 Hg5 1_555 1_555
N4 Hg5 1_555 1_555
Hg5_2 Br8 1_555 1_555
Br8_2 Hg5 1_555 1_555
Hg5 Br8 1_555 1_555
C3 N3 1_555 1_555
C4 C9 1_555 1_555
C4 N3 1_555 1_555
C5 N4 1_555 1_555
C6 N4 1_555 1_555

#END
