
#######################################################################
#
#                 Cambridge Crystallographic Data Centre
#                                CCDC 
#
#######################################################################
#
# If this CIF has been generated from an entry in the Cambridge 
# Structural Database, then it will include bibliographic, chemical, 
# crystal, experimental, refinement or atomic coordinate data resulting 
# from the CCDC's data processing and validation procedures.
#
#######################################################################

data_LEQVEK
_symmetry_cell_setting           monoclinic
_symmetry_space_group_name_H-M   'C 2/c'
_symmetry_Int_Tables_number      15
_space_group_name_Hall           '-C 2yn'
loop_
_symmetry_equiv_pos_site_id
_symmetry_equiv_pos_as_xyz
1 x,y,z
2 -x,y,1/2-z
3 1/2+x,1/2+y,z
4 1/2-x,1/2+y,1/2-z
5 -x,-y,-z
6 x,-y,1/2+z
7 1/2-x,1/2-y,-z
8 1/2+x,1/2-y,1/2+z
_cell_length_a                   13.7140(10)
_cell_length_b                   22.799(2)
_cell_length_c                   8.0786(5)
_cell_angle_alpha                90
_cell_angle_beta                 111.940(4)
_cell_angle_gamma                90
_cell_volume                     2342.96
loop_
_atom_site_label
_atom_site_type_symbol
_atom_site_fract_x
_atom_site_fract_y
_atom_site_fract_z
K1 K 0.0000 0.005247(19) 0.7500
O1 O 0.09405(11) 0.17168(5) 0.99381(19)
O2 O 0.06104(8) 0.08076(5) 1.06001(15)
C1 C 0.12116(13) 0.12139(6) 1.0611(2)
C2 C 0.23862(12) 0.11119(6) 1.1478(2)
H1 H 0.2705 0.1177 1.0605
H2 H 0.2688 0.1391 1.2440
N1 N 0.26259(10) 0.05119(6) 1.21911(17)
H3 H 0.2283(14) 0.0260(7) 1.137(2)
H4 H 0.2386(14) 0.0477(8) 1.304(2)
C3 C 0.37537(14) 0.03614(9) 1.2851(3)
H5 H 0.4016 0.0421 1.1916
H6 H 0.3846 -0.0042 1.3218
H7 H 0.4133 0.0607 1.3849
O3 O 0.19050(9) 0.04452(5) 0.49915(14)
O4 O 0.17396(9) 0.07178(5) 0.75227(14)
C4 C 0.17711(11) 0.08184(6) 0.60416(18)
C5 C 0.16609(13) 0.14499(6) 0.5392(2)
H8 H 0.2346 0.1600 0.5511
H9 H 0.1210 0.1463 0.4139
N2 N 0.12123(12) 0.18248(5) 0.64197(19)
H10 H 0.0537(13) 0.1733(9) 0.613(3)
H11 H 0.1529(16) 0.1766(9) 0.757(2)
C6 C 0.12226(18) 0.24562(8) 0.6033(3)
H12 H 0.1936 0.2586 0.6358
H13 H 0.0894 0.2671 0.6707
H14 H 0.0845 0.2523 0.4782
K1D K 0.0000 -0.005247(19) 1.2500
K1D_2 K 0.0000 -0.005247(19) 0.2500
O1D O -0.09405(11) -0.17168(5) 1.00619(19)
O2D O -0.06104(8) -0.08076(5) 0.93999(15)
O2A O -0.06104(8) 0.08076(5) 0.43999(15)
O2E O 0.06104(8) -0.08076(5) 0.56001(15)
C1D C -0.12116(13) -0.12139(6) 0.9389(2)
C2D C -0.23862(12) -0.11119(6) 0.8522(2)
H1D H -0.2705 -0.1177 0.9395
H2D H -0.2688 -0.1391 0.7560
N1D N -0.26259(10) -0.05119(6) 0.78089(17)
H3D H -0.2283(14) -0.0260(7) 0.863(2)
H4D H -0.2386(14) -0.0477(8) 0.696(2)
C3D C -0.37537(14) -0.03614(9) 0.7149(3)
H5D H -0.4016 -0.0421 0.8084
H6D H -0.3846 0.0042 0.6782
H7D H -0.4133 -0.0607 0.6151
O3D O -0.19050(9) -0.04452(5) 0.50085(14)
O3E O 0.19050(9) -0.04452(5) 0.99915(14)
O4D O -0.17396(9) -0.07178(5) 0.24773(14)
O4A O -0.17396(9) 0.07178(5) 0.74773(14)
C4D C -0.17711(11) -0.08184(6) 0.39584(18)
C5D C -0.16609(13) -0.14499(6) 0.4608(2)
H8D H -0.2346 -0.1600 0.4489
H9D H -0.1210 -0.1463 0.5861
N2D N -0.12123(12) -0.18248(5) 0.35803(19)
H10D H -0.0537(13) -0.1733(9) 0.387(3)
H11D H -0.1529(16) -0.1766(9) 0.243(2)
C6D C -0.12226(18) -0.24562(8) 0.3967(3)
H12D H -0.1936 -0.2586 0.3642
H13D H -0.0894 -0.2671 0.3293
H14D H -0.0845 -0.2523 0.5218
I1 I 0.0000 0.369835(8) 0.2500
O5 O 0.33341(15) 0.20953(8) 0.9319(3)
H15 H 0.354(3) 0.2445(9) 0.939(5)
H16 H 0.383(2) 0.1932(14) 0.913(5)
loop_
_geom_bond_atom_site_label_1
_geom_bond_atom_site_label_2
_geom_bond_site_symmetry_1
_geom_bond_site_symmetry_2
K1 O2 1_555 1_555
O1 C1 1_555 1_555
O2 C1 1_555 1_555
C1 C2 1_555 1_555
C2 H1 1_555 1_555
H2 C2 1_555 1_555
N1 C2 1_555 1_555
H3 N1 1_555 1_555
H4 N1 1_555 1_555
C3 N1 1_555 1_555
H5 C3 1_555 1_555
H6 C3 1_555 1_555
H7 C3 1_555 1_555
O3 C4 1_555 1_555
O4 K1 1_555 1_555
C4 O4 1_555 1_555
C5 C4 1_555 1_555
H8 C5 1_555 1_555
H9 C5 1_555 1_555
N2 C5 1_555 1_555
H10 N2 1_555 1_555
H11 N2 1_555 1_555
C6 N2 1_555 1_555
H12 C6 1_555 1_555
H13 C6 1_555 1_555
H14 C6 1_555 1_555
O5 H15 1_555 1_555
H16 O5 1_555 1_555
K1D O2 1_555 1_555
K1D_2 O3 1_555 1_555
O1D C1D 1_555 1_555
O2D K1 1_555 1_555
O2A K1 1_555 1_555
O2E K1 1_555 1_555
C1D O2D 1_555 1_555
C2D C1D 1_555 1_555
H1D C2D 1_555 1_555
H2D C2D 1_555 1_555
N1D C2D 1_555 1_555
H3D N1D 1_555 1_555
H4D N1D 1_555 1_555
C3D N1D 1_555 1_555
H5D C3D 1_555 1_555
H6D C3D 1_555 1_555
H7D C3D 1_555 1_555
O3D K1 1_555 1_555
O3E K1 1_555 1_555
O4D K1D_2 1_555 1_555
O4A K1 1_555 1_555
C4D O3D 1_555 1_555
C5D C4D 1_555 1_555
H8D C5D 1_555 1_555
H9D C5D 1_555 1_555
N2D C5D 1_555 1_555
H10D N2D 1_555 1_555
H11D N2D 1_555 1_555
C6D N2D 1_555 1_555
H12D C6D 1_555 1_555
H13D C6D 1_555 1_555
H14D C6D 1_555 1_555
K1D O2D 1_555 1_555
K1D_2 O2A 1_555 1_555
K1D_2 O2E 1_555 1_555
O4D C4D 1_555 1_555

#END
