
#######################################################################
#
#                 Cambridge Crystallographic Data Centre
#                                CCDC 
#
#######################################################################
#
# If this CIF has been generated from an entry in the Cambridge 
# Structural Database, then it will include bibliographic, chemical, 
# crystal, experimental, refinement or atomic coordinate data resulting 
# from the CCDC's data processing and validation procedures.
#
#######################################################################

data_LEQWOV
_symmetry_cell_setting           triclinic
_symmetry_space_group_name_H-M   'P -1'
_symmetry_Int_Tables_number      2
_space_group_name_Hall           '-P 1'
loop_
_symmetry_equiv_pos_site_id
_symmetry_equiv_pos_as_xyz
1 x,y,z
2 -x,-y,-z
_cell_length_a                   8.8956(18)
_cell_length_b                   10.161(2)
_cell_length_c                   11.233(2)
_cell_angle_alpha                77.14(3)
_cell_angle_beta                 86.51(3)
_cell_angle_gamma                84.80(3)
_cell_volume                     984.922
loop_
_atom_site_label
_atom_site_type_symbol
_atom_site_fract_x
_atom_site_fract_y
_atom_site_fract_z
Zn1 Zn 0.0000 0.5000 0.5000
O1 O 0.5417(3) 0.1385(2) 0.72284(19)
O2 O 0.0601(3) -0.1740(2) 1.2035(2)
O3 O 0.0799(2) 0.56867(19) 0.31878(17)
N1 N 0.2843(2) 0.0198(2) 0.96892(19)
N2 N 0.4102(3) 0.2471(2) 0.8568(2)
N3 N 0.2140(2) 0.5325(2) 0.56442(19)
N4 N 0.0914(3) 0.0479(2) 1.1531(2)
N5 N 0.0844(2) 0.2841(2) 1.47590(19)
C1 C 0.4518(3) 0.1386(3) 0.8109(2)
C2 C 0.3812(3) 0.0105(3) 0.8749(2)
C3 C 0.4196(4) -0.1103(3) 0.8389(3)
H1 H 0.4911 -0.1144 0.7732
C4 C 0.3521(4) -0.2247(3) 0.9002(3)
H2 H 0.3758 -0.3087 0.8768
C5 C 0.2497(4) -0.2155(3) 0.9961(3)
H3 H 0.2004 -0.2924 1.0389
C6 C 0.2205(3) -0.0916(3) 1.0283(2)
C7 C 0.1175(3) -0.0768(3) 1.1366(2)
C8 C 0.4807(3) 0.3738(3) 0.8171(3)
H4 H 0.5889 0.3531 0.7969
H5 H 0.4751 0.4202 0.8861
C9 C 0.4118(3) 0.4702(3) 0.7078(2)
C10 C 0.4902(3) 0.5778(3) 0.6442(3)
H6 H 0.5848 0.5940 0.6709
C11 C 0.4286(3) 0.6613(3) 0.5411(3)
H7 H 0.4789 0.7372 0.4975
C12 C 0.2941(3) 0.6333(3) 0.5025(2)
H8 H 0.2562 0.6877 0.4287
C13 C 0.2720(3) 0.4551(3) 0.6672(2)
H9 H 0.2137 0.3865 0.7144
C14 C -0.0078(3) 0.0826(3) 1.2505(3)
H10 H -0.0663 0.0042 1.2876
H11 H -0.0806 0.1588 1.2150
C15 C 0.0740(3) 0.1220(3) 1.3493(2)
C16 C 0.1964(3) 0.0453(3) 1.4066(3)
H12 H 0.2361 -0.0354 1.3828
C17 C 0.2595(3) 0.0885(3) 1.4987(3)
H13 H 0.3434 0.0376 1.5397
C18 C 0.2002(3) 0.2061(3) 1.5309(3)
H14 H 0.2439 0.2333 1.5958
C19 C 0.0246(3) 0.2396(3) 1.3869(2)
H15 H -0.0582 0.2932 1.3466
H16 H 0.0762 0.6514 0.2756
H17 H 0.0937 0.5160 0.2567
H18 H 0.3341 0.2398 0.9234
H19 H 0.1354 0.1142 1.1004
Zn1_2 Zn 0.0000 0.5000 1.5000
Zn1_3 Zn 0.0000 0.5000 -0.5000
O1A O -0.5417(3) 0.8615(2) 0.27716(19)
O2A O -0.0601(3) 1.1740(2) -0.2035(2)
O3A O -0.0799(2) 0.43133(19) 0.68122(17)
N1A N -0.2843(2) 0.9802(2) 0.03108(19)
N2A N -0.4102(3) 0.7529(2) 0.1432(2)
N3A N -0.2140(2) 0.4675(2) 0.43558(19)
N4A N -0.0914(3) 0.9521(2) -0.1531(2)
N5A N -0.0844(2) 0.7159(2) -0.47590(19)
N5_2 N 0.0844(2) 0.2841(2) 0.47590(19)
N5A_2 N -0.0844(2) 0.7159(2) 0.52410(19)
C1A C -0.4518(3) 0.8614(3) 0.1891(2)
C2A C -0.3812(3) 0.9895(3) 0.1251(2)
C3A C -0.4196(4) 1.1103(3) 0.1611(3)
H1A H -0.4911 1.1144 0.2268
C4A C -0.3521(4) 1.2247(3) 0.0998(3)
H2A H -0.3758 1.3087 0.1232
C5A C -0.2497(4) 1.2155(3) 0.0039(3)
H3A H -0.2004 1.2924 -0.0389
C6A C -0.2205(3) 1.0916(3) -0.0283(2)
C7A C -0.1175(3) 1.0768(3) -0.1366(2)
C8A C -0.4807(3) 0.6262(3) 0.1829(3)
H4A H -0.5889 0.6469 0.2031
H5A H -0.4751 0.5798 0.1139
C9A C -0.4118(3) 0.5298(3) 0.2922(2)
C10A C -0.4902(3) 0.4222(3) 0.3558(3)
H6A H -0.5848 0.4060 0.3291
C11A C -0.4286(3) 0.3387(3) 0.4589(3)
H7A H -0.4789 0.2628 0.5025
C12A C -0.2941(3) 0.3667(3) 0.4975(2)
H8A H -0.2562 0.3123 0.5713
C13A C -0.2720(3) 0.5449(3) 0.3328(2)
H9A H -0.2137 0.6135 0.2856
C14A C 0.0078(3) 0.9174(3) -0.2505(3)
H10A H 0.0663 0.9958 -0.2876
H11A H 0.0806 0.8412 -0.2150
C15A C -0.0740(3) 0.8780(3) -0.3493(2)
C16A C -0.1964(3) 0.9547(3) -0.4066(3)
H12A H -0.2361 1.0354 -0.3828
C17A C -0.2595(3) 0.9115(3) -0.4987(3)
H13A H -0.3434 0.9624 -0.5397
C18A C -0.2002(3) 0.7939(3) -0.5309(3)
H14A H -0.2439 0.7667 -0.5958
C19A C -0.0246(3) 0.7604(3) -0.3869(2)
H15A H 0.0582 0.7068 -0.3466
H16A H -0.0762 0.3486 0.7244
H17A H -0.0937 0.4840 0.7433
H18A H -0.3341 0.7602 0.0766
H19A H -0.1354 0.8858 -0.1004
O4 O 0.0545(4) 0.4225(3) 0.1427(3)
O5 O 0.2861(5) 0.4455(5) 0.0915(5)
O6 O 0.1656(4) 0.3118(3) 0.0191(3)
N6 N 0.1717(4) 0.3910(3) 0.0864(3)
loop_
_geom_bond_atom_site_label_1
_geom_bond_atom_site_label_2
_geom_bond_site_symmetry_1
_geom_bond_site_symmetry_2
Zn1 O3 1_555 1_555
O1 C1 1_555 1_555
O2 C7 1_555 1_555
O3 H16 1_555 1_555
N1 C2 1_555 1_555
N2 C1 1_555 1_555
N3 Zn1 1_555 1_555
N4 C7 1_555 1_555
N5 C18 1_555 1_555
C1 C2 1_555 1_555
C2 C3 1_555 1_555
C3 H1 1_555 1_555
C4 C3 1_555 1_555
H2 C4 1_555 1_555
C5 C4 1_555 1_555
H3 C5 1_555 1_555
C6 N1 1_555 1_555
C7 C6 1_555 1_555
C8 N2 1_555 1_555
H4 C8 1_555 1_555
H5 C8 1_555 1_555
C9 C8 1_555 1_555
C10 C9 1_555 1_555
H6 C10 1_555 1_555
C11 C10 1_555 1_555
H7 C11 1_555 1_555
C12 N3 1_555 1_555
H8 C12 1_555 1_555
C13 N3 1_555 1_555
H9 C13 1_555 1_555
C14 N4 1_555 1_555
H10 C14 1_555 1_555
H11 C14 1_555 1_555
C15 C14 1_555 1_555
C16 C15 1_555 1_555
H12 C16 1_555 1_555
C17 C16 1_555 1_555
H13 C17 1_555 1_555
C18 C17 1_555 1_555
H14 C18 1_555 1_555
C19 N5 1_555 1_555
H15 C19 1_555 1_555
H17 O3 1_555 1_555
H18 N2 1_555 1_555
H19 N4 1_555 1_555
O4 N6 1_555 1_555
O5 N6 1_555 1_555
O6 N6 1_555 1_555
Zn1_2 N5 1_555 1_555
Zn1_3 N5A 1_555 1_555
O1A C1A 1_555 1_555
O2A C7A 1_555 1_555
O3A Zn1 1_555 1_555
N1A C2A 1_555 1_555
N2A C1A 1_555 1_555
N3A Zn1 1_555 1_555
N4A C7A 1_555 1_555
N5A C18A 1_555 1_555
N5_2 Zn1 1_555 1_555
N5A_2 Zn1 1_555 1_555
C1A C2A 1_555 1_555
C2A C3A 1_555 1_555
C3A H1A 1_555 1_555
C4A C3A 1_555 1_555
H2A C4A 1_555 1_555
C5A C4A 1_555 1_555
H3A C5A 1_555 1_555
C6A N1A 1_555 1_555
C7A C6A 1_555 1_555
C8A N2A 1_555 1_555
H4A C8A 1_555 1_555
H5A C8A 1_555 1_555
C9A C8A 1_555 1_555
C10A C9A 1_555 1_555
H6A C10A 1_555 1_555
C11A C10A 1_555 1_555
H7A C11A 1_555 1_555
C12A N3A 1_555 1_555
H8A C12A 1_555 1_555
C13A N3A 1_555 1_555
H9A C13A 1_555 1_555
C14A N4A 1_555 1_555
H10A C14A 1_555 1_555
H11A C14A 1_555 1_555
C15A C14A 1_555 1_555
C16A C15A 1_555 1_555
H12A C16A 1_555 1_555
C17A C16A 1_555 1_555
H13A C17A 1_555 1_555
C18A C17A 1_555 1_555
H14A C18A 1_555 1_555
C19A N5A 1_555 1_555
H15A C19A 1_555 1_555
H16A O3A 1_555 1_555
H17A O3A 1_555 1_555
H18A N2A 1_555 1_555
H19A N4A 1_555 1_555
C5 C6 1_555 1_555
C9 C13 1_555 1_555
C11 C12 1_555 1_555
C15 C19 1_555 1_555
C5A C6A 1_555 1_555
C9A C13A 1_555 1_555
C11A C12A 1_555 1_555
C15A C19A 1_555 1_555

#END
