
#######################################################################
#
#                 Cambridge Crystallographic Data Centre
#                                CCDC 
#
#######################################################################
#
# If this CIF has been generated from an entry in the Cambridge 
# Structural Database, then it will include bibliographic, chemical, 
# crystal, experimental, refinement or atomic coordinate data resulting 
# from the CCDC's data processing and validation procedures.
#
#######################################################################

data_LEQWIP
_symmetry_cell_setting           monoclinic
_symmetry_space_group_name_H-M   'P 2/c'
_symmetry_Int_Tables_number      13
_space_group_name_Hall           '-P 2yc'
loop_
_symmetry_equiv_pos_site_id
_symmetry_equiv_pos_as_xyz
1 x,y,z
2 -x,y,1/2-z
3 -x,-y,-z
4 x,-y,1/2+z
_cell_length_a                   14.424(4)
_cell_length_b                   6.3401(16)
_cell_length_c                   7.234(2)
_cell_angle_alpha                90
_cell_angle_beta                 92.51(3)
_cell_angle_gamma                90
_cell_volume                     660.912
loop_
_atom_site_label
_atom_site_type_symbol
_atom_site_fract_x
_atom_site_fract_y
_atom_site_fract_z
Zn1 Zn 0.5000 -0.18449(7) 0.2500
C1 C 0.62679(17) 0.0934(5) 0.4312(4)
C2 C 0.72252(18) 0.1732(5) 0.4768(4)
C3 C 0.7360(2) 0.3753(5) 0.5473(4)
H1 H 0.6852 0.4621 0.5653
C4 C 0.8251(2) 0.4480(5) 0.5908(4)
H2 H 0.8338 0.5844 0.6357
C5 C 0.9005(2) 0.3197(5) 0.5680(4)
H3 H 0.9600 0.3690 0.5979
C6 C 0.88782(19) 0.1155(5) 0.4999(4)
C7 C 0.79900(18) 0.0438(5) 0.4523(4)
H4 H 0.7906 -0.0911 0.4038
N1 N 0.96059(16) -0.0347(4) 0.4789(4)
O1 O 0.61964(12) -0.0788(3) 0.3460(3)
O2 O 0.55768(12) 0.2011(3) 0.4762(3)
O3 O 0.5000 -0.4950(5) 0.2500
H5 H 0.521(3) -0.565(5) 0.338(4)
Zn1B Zn 0.5000 0.18449(7) 0.7500
Zn1B_2 Zn 1.5000 0.18449(7) 0.7500
Zn1_2 Zn 1.5000 -0.18449(7) 0.2500
C1B C 1.37321(17) -0.0934(5) 0.5688(4)
C2B C 1.27748(18) -0.1732(5) 0.5232(4)
C3B C 1.2640(2) -0.3753(5) 0.4527(4)
H1B H 1.3148 -0.4621 0.4347
C4B C 1.1749(2) -0.4480(5) 0.4092(4)
H2B H 1.1662 -0.5844 0.3643
C5B C 1.0995(2) -0.3197(5) 0.4320(4)
H3B H 1.0400 -0.3690 0.4021
C6B C 1.11218(19) -0.1155(5) 0.5001(4)
C7B C 1.20100(18) -0.0438(5) 0.5477(4)
H4B H 1.2094 0.0911 0.5962
N1B N 1.03941(16) 0.0347(4) 0.5211(4)
O1B O 1.38036(12) 0.0788(3) 0.6540(3)
O1A O 0.38036(12) -0.0788(3) 0.1540(3)
O2B O 1.44232(12) -0.2011(3) 0.5238(3)
O2B_2 O 0.44232(12) -0.2011(3) 0.5238(3)
O2C O 0.55768(12) -0.2011(3) -0.0238(3)
H5A H 0.479(3) -0.565(5) 0.162(4)
loop_
_geom_bond_atom_site_label_1
_geom_bond_atom_site_label_2
_geom_bond_site_symmetry_1
_geom_bond_site_symmetry_2
Zn1 O1 1_555 1_555
C1 C2 1_555 1_555
C2 C3 1_555 1_555
C3 H1 1_555 1_555
C4 C3 1_555 1_555
H2 C4 1_555 1_555
C5 C4 1_555 1_555
H3 C5 1_555 1_555
C6 C5 1_555 1_555
C7 C2 1_555 1_555
H4 C7 1_555 1_555
N1 C6 1_555 1_555
O1 C1 1_555 1_555
O2 C1 1_555 1_555
O3 Zn1 1_555 1_555
H5 O3 1_555 1_555
Zn1B O2 1_555 1_555
Zn1B_2 O1B 1_555 1_555
Zn1_2 O2B 1_555 1_555
C1B C2B 1_555 1_555
C2B C3B 1_555 1_555
C3B H1B 1_555 1_555
C4B C3B 1_555 1_555
H2B C4B 1_555 1_555
C5B C4B 1_555 1_555
H3B C5B 1_555 1_555
C6B C5B 1_555 1_555
C7B C2B 1_555 1_555
H4B C7B 1_555 1_555
N1B N1 1_555 1_555
O1B C1B 1_555 1_555
O1A Zn1 1_555 1_555
O2B C1B 1_555 1_555
O2B_2 Zn1 1_555 1_555
O2C Zn1 1_555 1_555
H5A O3 1_555 1_555
C6 C7 1_555 1_555
C6B C7B 1_555 1_555
C6B N1B 1_555 1_555

#END
