
#######################################################################
#
#                 Cambridge Crystallographic Data Centre
#                                CCDC 
#
#######################################################################
#
# If this CIF has been generated from an entry in the Cambridge 
# Structural Database, then it will include bibliographic, chemical, 
# crystal, experimental, refinement or atomic coordinate data resulting 
# from the CCDC's data processing and validation procedures.
#
#######################################################################

data_LERDUJ
_symmetry_cell_setting           monoclinic
_symmetry_space_group_name_H-M   'P 21'
_symmetry_Int_Tables_number      4
_space_group_name_Hall           'P 2yb'
loop_
_symmetry_equiv_pos_site_id
_symmetry_equiv_pos_as_xyz
1 x,y,z
2 -x,1/2+y,-z
_cell_length_a                   15.1130(7)
_cell_length_b                   9.6028(3)
_cell_length_c                   28.6670(13)
_cell_angle_alpha                90
_cell_angle_beta                 90.946(4)
_cell_angle_gamma                90
_cell_volume                     4159.79
loop_
_atom_site_label
_atom_site_type_symbol
_atom_site_fract_x
_atom_site_fract_y
_atom_site_fract_z
Ag1 Ag 0.74254(3) 0.04295(5) 0.53499(2)
Ag2 Ag 0.74467(3) -0.01916(4) 0.20739(2)
Ag3 Ag 0.76187(3) -0.03889(4) 0.87207(2)
S1 S 0.89717(10) 0.09861(17) 0.52393(5)
S2 S 0.59194(10) 0.00347(17) 0.50466(6)
S3 S 0.90071(9) 0.04039(17) 0.19347(5)
S4 S 0.59740(11) -0.06943(17) 0.17364(6)
S5 S 0.91685(10) 0.02224(16) 0.85439(6)
S6 S 0.60741(10) -0.09365(16) 0.85650(5)
O1 O 0.8150(3) -0.1144(5) 0.28093(15)
O2 O 0.9272(3) -0.2639(5) 0.27644(17)
O3 O 0.6383(3) 0.3785(5) 0.53016(15)
O4 O 0.6419(4) 0.0353(6) 0.27792(19)
O5 O 0.5509(3) 0.2158(6) 0.2754(2)
O6 O 0.8433(3) -0.2954(5) 0.51144(16)
O7 O 0.8274(3) -0.1289(5) -0.05355(15)
O8 O 0.9405(3) -0.2736(5) -0.06018(16)
O9 O 0.6371(3) 0.3109(5) 0.20200(17)
O10 O 0.6535(3) 0.0566(6) -0.04810(17)
O11 O 0.5633(3) 0.2270(6) -0.06839(18)
O12 O 0.8550(3) -0.3552(5) 0.19640(15)
O13 O 0.9269(3) -0.2415(6) 0.58958(17)
O14 O 0.8116(4) -0.1125(6) 0.60760(18)
O15 O 0.6519(3) 0.2917(5) 0.85867(17)
O16 O 0.6562(4) 0.1006(6) 0.60682(17)
O17 O 0.5784(3) 0.2957(6) 0.61117(17)
O18 O 0.8659(3) -0.3683(5) 0.86200(15)
N1 N 0.7653(4) 0.3686(6) 0.48719(18)
N2 N 0.7770(4) 0.3591(7) 0.56336(19)
N3 N 0.7210(4) -0.2707(7) 0.4632(2)
N4 N 0.7010(4) -0.2714(7) 0.5391(2)
N5 N 0.7675(3) 0.3137(5) 0.16132(18)
N6 N 0.7756(4) 0.2819(6) 0.23654(18)
N7 N 0.7433(4) -0.3306(5) 0.14290(18)
N8 N 0.7077(4) -0.3371(7) 0.2159(2)
N9 N 0.7852(4) 0.3106(5) 0.82275(19)
N10 N 0.7852(4) 0.2507(6) 0.89572(19)
N11 N 0.7410(4) -0.3408(5) 0.81676(17)
N12 N 0.7256(4) -0.3764(6) 0.89140(18)
C1 C 0.8795(4) -0.1671(6) 0.2981(2)
C2 C 0.9172(4) -0.1309(7) 0.3451(2)
C3 C 0.8775(4) 0.0027(6) 0.3652(2)
C4 C 0.9068(4) 0.0377(7) 0.4138(2)
C5 C 0.8665(4) 0.1735(6) 0.4313(2)
C6 C 0.9031(4) 0.2251(7) 0.4758(2)
C7 C 0.8597(4) 0.3599(7) 0.4953(2)
C8 C 0.8685(4) 0.3638(8) 0.5485(2)
C9 C 0.9203(4) 0.2367(8) 0.5659(2)
C10 C 0.7188(4) 0.3699(6) 0.5270(2)
C11 C 0.5766(4) 0.0926(7) 0.2908(2)
C12 C 0.5168(4) 0.0347(8) 0.3279(2)
C13 C 0.5234(5) 0.1128(8) 0.3737(2)
C14 C 0.6146(5) 0.1078(7) 0.3968(2)
C15 C 0.6457(4) -0.0402(8) 0.4131(2)
C16 C 0.5934(4) -0.1034(7) 0.4509(2)
C17 C 0.6255(5) -0.2509(7) 0.4672(2)
C18 C 0.6114(4) -0.2661(8) 0.5203(3)
C19 C 0.5575(4) -0.1468(7) 0.5380(3)
C20 C 0.7621(5) -0.2808(7) 0.5051(2)
C21 C 0.8941(4) -0.1808(6) -0.0373(2)
C22 C 0.9296(4) -0.1500(7) 0.0106(2)
C23 C 0.8899(4) -0.0205(8) 0.0317(2)
C24 C 0.9143(4) 0.0010(6) 0.0824(2)
C25 C 0.8732(4) 0.1321(6) 0.1022(2)
C26 C 0.9071(4) 0.1774(6) 0.1489(2)
C27 C 0.8618(4) 0.3064(6) 0.1695(2)
C28 C 0.8677(4) 0.2973(7) 0.2240(2)
C29 C 0.9227(4) 0.1717(7) 0.2378(2)
C30 C 0.7178(5) 0.3043(6) 0.1997(2)
C31 C 0.5896(4) 0.1262(8) -0.0405(2)
C32 C 0.5332(5) 0.1182(9) 0.0012(2)
C33 C 0.5548(5) -0.0017(8) 0.0339(3)
C34 C 0.6367(4) 0.0227(7) 0.0636(2)
C35 C 0.6731(5) -0.1076(8) 0.0858(2)
C36 C 0.6146(5) -0.1778(8) 0.1212(3)
C37 C 0.6478(5) -0.3197(7) 0.1396(3)
C38 C 0.6208(5) -0.3384(8) 0.1913(3)
C39 C 0.5629(5) -0.2203(8) 0.2052(3)
C40 C 0.7753(4) -0.3409(6) 0.1859(2)
C41 C 0.8835(4) -0.1578(7) 0.6174(2)
C42 C 0.9311(5) -0.1299(7) 0.6628(2)
C43 C 0.8810(5) -0.0284(9) 0.6925(2)
C44 C 0.9204(4) -0.0047(7) 0.7412(2)
C45 C 0.8767(4) 0.1175(7) 0.7649(2)
C46 C 0.9187(4) 0.1600(7) 0.8099(2)
C47 C 0.8776(4) 0.2922(6) 0.8334(2)
C48 C 0.8784(4) 0.2751(7) 0.8866(2)
C49 C 0.9365(4) 0.1503(7) 0.9003(2)
C50 C 0.7335(4) 0.2855(6) 0.8588(2)
C51 C 0.6085(4) 0.1757(8) 0.6277(2)
C52 C 0.5738(5) 0.1462(8) 0.6755(2)
C53 C 0.6161(5) 0.0164(8) 0.6962(2)
C54 C 0.5883(4) -0.0151(8) 0.7449(2)
C55 C 0.6343(4) -0.1494(7) 0.7618(2)
C56 C 0.5989(4) -0.2097(6) 0.8068(2)
C57 C 0.6455(4) -0.3466(6) 0.8218(2)
C58 C 0.6329(4) -0.3655(7) 0.8746(2)
C59 C 0.5846(5) -0.2396(7) 0.8948(2)
C60 C 0.7850(4) -0.3623(6) 0.8575(2)
H1 H 0.749(4) 0.400(8) 0.4597(13)
H2 H 0.90620 -0.20890 0.36680
H3 H 0.98200 -0.11920 0.34270
H4 H 0.755(5) 0.367(9) 0.5921(13)
H5 H 0.90030 -0.28950 0.25200
H6 H 0.89280 0.08140 0.34450
H7 H 0.81220 -0.00640 0.36460
H8 H 0.748(4) -0.288(9) 0.4369(15)
H9 H 0.97210 0.04570 0.41480
H10 H 0.88990 -0.03910 0.43490
H11 H 0.714(5) -0.270(9) 0.5689(9)
H12 H 0.87480 0.24610 0.40730
H13 H 0.80210 0.15960 0.43470
H14 H 0.740(4) 0.333(7) 0.1348(13)
H15 H 0.58730 0.24530 0.25580
H16 H 0.96710 0.24600 0.47090
H17 H 0.762(5) 0.273(8) 0.2663(10)
H18 H 0.88910 0.44360 0.48180
H19 H 0.765(4) -0.346(8) 0.1156(12)
H20 H 0.89780 0.45190 0.55910
H21 H 0.706(5) -0.370(8) 0.2445(13)
H22 H 0.90870 -0.30900 -0.08140
H23 H 0.90080 0.20920 0.59730
H24 H 0.98450 0.25720 0.56730
H25 H 0.760(4) 0.307(8) 0.7948(13)
H26 H 0.776(5) 0.253(8) 0.9259(9)
H27 H 0.776(4) -0.345(7) 0.7934(16)
H28 H 0.59710 0.23170 -0.09130
H29 H 0.45480 0.03820 0.31620
H30 H 0.53210 -0.06420 0.33340
H31 H 0.726(4) -0.448(5) 0.910(2)
H32 H 0.47990 0.07330 0.39550
H33 H 0.50720 0.21140 0.36810
H34 H 0.89420 -0.26380 0.56680
H35 H 0.61480 0.17040 0.42430
H36 H 0.65820 0.14480 0.37460
H37 H 0.64360 -0.10350 0.38580
H38 H 0.70820 -0.03390 0.42380
H39 H 0.53100 -0.11270 0.43930
H40 H 0.59260 -0.32540 0.44970
H41 H 0.59900 0.30950 0.58450
H42 H 0.58040 -0.35590 0.52680
H43 H 0.56910 -0.13200 0.57170
H44 H 0.49350 -0.16480 0.53310
H45 H 0.99460 -0.13850 0.00910
H46 H 0.91760 -0.23050 0.03110
H47 H 0.82470 -0.02590 0.02860
H48 H 0.90970 0.06160 0.01380
H49 H 0.89420 -0.08040 0.10060
H50 H 0.97940 0.00700 0.08580
H51 H 0.88260 0.20900 0.07980
H52 H 0.80850 0.11720 0.10420
H53 H 0.97110 0.20100 0.14540
H54 H 0.89100 0.39340 0.15840
H55 H 0.89340 0.38450 0.23760
H56 H 0.90560 0.13720 0.26890
H57 H 0.98640 0.19590 0.23880
H58 H 0.47070 0.10960 -0.00930
H59 H 0.53890 0.20650 0.01880
H60 H 0.50390 -0.01730 0.05460
H61 H 0.56310 -0.08730 0.01530
H62 H 0.68290 0.06490 0.04410
H63 H 0.62250 0.09020 0.08850
H64 H 0.73030 -0.08450 0.10120
H65 H 0.68550 -0.17540 0.06070
H66 H 0.55540 -0.19330 0.10600
H67 H 0.62300 -0.39710 0.12000
H68 H 0.59010 -0.42950 0.19580
H69 H 0.56860 -0.20350 0.23920
H70 H 0.50030 -0.24200 0.19760
H71 H 0.99060 -0.09190 0.65650
H72 H 0.93890 -0.21860 0.68010
H73 H 0.81960 -0.06250 0.69570
H74 H 0.87810 0.06220 0.67610
H75 H 0.91240 -0.08960 0.76030
H76 H 0.98470 0.01310 0.73890
H77 H 0.87730 0.19810 0.74340
H78 H 0.81410 0.09350 0.77060
H79 H 0.98210 0.18150 0.80360
H80 H 0.91150 0.37740 0.82450
H81 H 0.89970 0.36200 0.90240
H82 H 0.91920 0.11270 0.93100
H83 H 0.99970 0.17730 0.90180
H84 H 0.50880 0.13360 0.67360
H85 H 0.58640 0.22670 0.69620
H86 H 0.60080 -0.06410 0.67610
H87 H 0.68120 0.02760 0.69600
H88 H 0.52330 -0.02700 0.74570
H89 H 0.60470 0.06330 0.76580
H90 H 0.62830 -0.22060 0.73700
H91 H 0.69820 -0.13000 0.76630
H92 H 0.53480 -0.23120 0.80140
H93 H 0.62020 -0.42760 0.80420
H94 H 0.59980 -0.45340 0.88110
H95 H 0.60650 -0.21980 0.92690
H96 H 0.52010 -0.25760 0.89590
Ag3_2 Ag 0.76187(3) -0.03889(4) -0.12793(2)
O7_2 O 0.8274(3) -0.1289(5) 0.94645(15)
O10_2 O 0.6535(3) 0.0566(6) 0.95190(17)
P1 P 0.21129(14) 0.9947(2) 0.30814(6)
F1 F 0.2866(4) 0.9512(8) 0.27213(18)
F2 F 0.1402(4) 0.9519(6) 0.26921(17)
F3 F 0.2087(4) 1.1455(5) 0.28668(19)
F4 F 0.2816(4) 1.0320(9) 0.34590(18)
F5 F 0.1356(4) 1.0324(5) 0.34279(17)
F6 F 0.2128(5) 0.8401(5) 0.32875(18)
P2 P 0.76099(15) 0.4588(2) 0.02081(6)
F7 F 0.7278(8) 0.6043(8) 0.0358(2)
F8 F 0.6842(4) 0.4388(9) -0.01645(19)
F9 F 0.8188(4) 0.5277(7) -0.01773(19)
F10 F 0.7968(6) 0.3138(7) 0.0045(2)
F11 F 0.8378(5) 0.4728(9) 0.05782(18)
F12 F 0.7069(5) 0.3853(9) 0.0596(2)
P3 P 0.72542(17) 0.50489(17) 0.35078(6)
F13 F 0.7082(7) 0.6615(5) 0.36258(19)
F14 F 0.6493(4) 0.4982(9) 0.31409(19)
F15 F 0.7904(5) 0.5487(6) 0.31071(17)
F16 F 0.7490(5) 0.3478(5) 0.33947(16)
F17 F 0.8043(5) 0.5076(8) 0.38776(19)
F18 F 0.6638(5) 0.4581(8) 0.39175(19)
loop_
_geom_bond_atom_site_label_1
_geom_bond_atom_site_label_2
_geom_bond_site_symmetry_1
_geom_bond_site_symmetry_2
Ag1 S1 1_555 1_555
Ag2 S3 1_555 1_555
Ag3 S5 1_555 1_555
S1 C6 1_555 1_555
S2 Ag1 1_555 1_555
S3 C26 1_555 1_555
S4 Ag2 1_555 1_555
S5 C46 1_555 1_555
S6 Ag3 1_555 1_555
O1 Ag2 1_555 1_555
O2 C1 1_555 1_555
O3 C10 1_555 1_555
O4 Ag2 1_555 1_555
O5 C11 1_555 1_555
O6 C20 1_555 1_555
O7 C21 1_555 1_555
O8 C21 1_555 1_555
O9 C30 1_555 1_555
O10 C31 1_555 1_555
O11 C31 1_555 1_555
O12 C40 1_555 1_555
O13 C41 1_555 1_555
O14 Ag1 1_555 1_555
O15 C50 1_555 1_555
O16 Ag1 1_555 1_555
O17 C51 1_555 1_555
O18 C60 1_555 1_555
N1 C7 1_555 1_555
N2 C8 1_555 1_555
N3 C17 1_555 1_555
N4 C18 1_555 1_555
N5 C27 1_555 1_555
N6 C28 1_555 1_555
N7 C37 1_555 1_555
N8 C38 1_555 1_555
N9 C47 1_555 1_555
N10 C48 1_555 1_555
N11 C57 1_555 1_555
N12 C58 1_555 1_555
C1 O1 1_555 1_555
C2 C1 1_555 1_555
C3 C2 1_555 1_555
C4 C3 1_555 1_555
C5 C4 1_555 1_555
C6 C5 1_555 1_555
C7 C6 1_555 1_555
C8 C7 1_555 1_555
C9 S1 1_555 1_555
C10 N1 1_555 1_555
C11 O4 1_555 1_555
C12 C11 1_555 1_555
C13 C12 1_555 1_555
C14 C13 1_555 1_555
C15 C14 1_555 1_555
C16 S2 1_555 1_555
C17 C16 1_555 1_555
C18 C17 1_555 1_555
C19 S2 1_555 1_555
C20 N3 1_555 1_555
C21 C22 1_555 1_555
C22 C23 1_555 1_555
C23 C24 1_555 1_555
C24 C25 1_555 1_555
C25 C26 1_555 1_555
C26 C27 1_555 1_555
C27 C28 1_555 1_555
C28 C29 1_555 1_555
C29 S3 1_555 1_555
C30 N5 1_555 1_555
C31 C32 1_555 1_555
C32 C33 1_555 1_555
C33 C34 1_555 1_555
C34 C35 1_555 1_555
C35 C36 1_555 1_555
C36 S4 1_555 1_555
C37 C36 1_555 1_555
C38 C37 1_555 1_555
C39 S4 1_555 1_555
C40 N7 1_555 1_555
C41 O14 1_555 1_555
C42 C41 1_555 1_555
C43 C42 1_555 1_555
C44 C43 1_555 1_555
C45 C44 1_555 1_555
C46 C45 1_555 1_555
C47 C46 1_555 1_555
C48 C47 1_555 1_555
C49 S5 1_555 1_555
C50 N9 1_555 1_555
C51 O16 1_555 1_555
C52 C51 1_555 1_555
C53 C52 1_555 1_555
C54 C53 1_555 1_555
C55 C54 1_555 1_555
C56 S6 1_555 1_555
C57 C56 1_555 1_555
C58 C57 1_555 1_555
C59 S6 1_555 1_555
C60 N11 1_555 1_555
H1 N1 1_555 1_555
H2 C2 1_555 1_555
H3 C2 1_555 1_555
H4 N2 1_555 1_555
H5 O2 1_555 1_555
H6 C3 1_555 1_555
H7 C3 1_555 1_555
H8 N3 1_555 1_555
H9 C4 1_555 1_555
H10 C4 1_555 1_555
H11 N4 1_555 1_555
H12 C5 1_555 1_555
H13 C5 1_555 1_555
H14 N5 1_555 1_555
H15 O5 1_555 1_555
H16 C6 1_555 1_555
H17 N6 1_555 1_555
H18 C7 1_555 1_555
H19 N7 1_555 1_555
H20 C8 1_555 1_555
H21 N8 1_555 1_555
H22 O8 1_555 1_555
H23 C9 1_555 1_555
H24 C9 1_555 1_555
H25 N9 1_555 1_555
H26 N10 1_555 1_555
H27 N11 1_555 1_555
H28 O11 1_555 1_555
H29 C12 1_555 1_555
H30 C12 1_555 1_555
H31 N12 1_555 1_555
H32 C13 1_555 1_555
H33 C13 1_555 1_555
H34 O13 1_555 1_555
H35 C14 1_555 1_555
H36 C14 1_555 1_555
H37 C15 1_555 1_555
H38 C15 1_555 1_555
H39 C16 1_555 1_555
H40 C17 1_555 1_555
H41 O17 1_555 1_555
H42 C18 1_555 1_555
H43 C19 1_555 1_555
H44 C19 1_555 1_555
H45 C22 1_555 1_555
H46 C22 1_555 1_555
H47 C23 1_555 1_555
H48 C23 1_555 1_555
H49 C24 1_555 1_555
H50 C24 1_555 1_555
H51 C25 1_555 1_555
H52 C25 1_555 1_555
H53 C26 1_555 1_555
H54 C27 1_555 1_555
H55 C28 1_555 1_555
H56 C29 1_555 1_555
H57 C29 1_555 1_555
H58 C32 1_555 1_555
H59 C32 1_555 1_555
H60 C33 1_555 1_555
H61 C33 1_555 1_555
H62 C34 1_555 1_555
H63 C34 1_555 1_555
H64 C35 1_555 1_555
H65 C35 1_555 1_555
H66 C36 1_555 1_555
H67 C37 1_555 1_555
H68 C38 1_555 1_555
H69 C39 1_555 1_555
H70 C39 1_555 1_555
H71 C42 1_555 1_555
H72 C42 1_555 1_555
H73 C43 1_555 1_555
H74 C43 1_555 1_555
H75 C44 1_555 1_555
H76 C44 1_555 1_555
H77 C45 1_555 1_555
H78 C45 1_555 1_555
H79 C46 1_555 1_555
H80 C47 1_555 1_555
H81 C48 1_555 1_555
H82 C49 1_555 1_555
H83 C49 1_555 1_555
H84 C52 1_555 1_555
H85 C52 1_555 1_555
H86 C53 1_555 1_555
H87 C53 1_555 1_555
H88 C54 1_555 1_555
H89 C54 1_555 1_555
H90 C55 1_555 1_555
H91 C55 1_555 1_555
H92 C56 1_555 1_555
H93 C57 1_555 1_555
H94 C58 1_555 1_555
H95 C59 1_555 1_555
H96 C59 1_555 1_555
P1 F1 1_555 1_555
F2 P1 1_555 1_555
F3 P1 1_555 1_555
F4 P1 1_555 1_555
F5 P1 1_555 1_555
F6 P1 1_555 1_555
P2 F7 1_555 1_555
F8 P2 1_555 1_555
F9 P2 1_555 1_555
F10 P2 1_555 1_555
F11 P2 1_555 1_555
F12 P2 1_555 1_555
P3 F13 1_555 1_555
F14 P3 1_555 1_555
F15 P3 1_555 1_555
F16 P3 1_555 1_555
F17 P3 1_555 1_555
F18 P3 1_555 1_555
Ag3_2 O7 1_555 1_555
O7_2 Ag3 1_555 1_555
O10_2 Ag3 1_555 1_555
O10 Ag3_2 1_555 1_555
N2 C10 1_555 1_555
N4 C20 1_555 1_555
N6 C30 1_555 1_555
N8 C40 1_555 1_555
N10 C50 1_555 1_555
N12 C60 1_555 1_555
C8 C9 1_555 1_555
C15 C16 1_555 1_555
C18 C19 1_555 1_555
C38 C39 1_555 1_555
C48 C49 1_555 1_555
C55 C56 1_555 1_555
C58 C59 1_555 1_555

#END
