
#######################################################################
#
#                 Cambridge Crystallographic Data Centre
#                                CCDC 
#
#######################################################################
#
# If this CIF has been generated from an entry in the Cambridge 
# Structural Database, then it will include bibliographic, chemical, 
# crystal, experimental, refinement or atomic coordinate data resulting 
# from the CCDC's data processing and validation procedures.
#
#######################################################################

data_LERNIF
_symmetry_cell_setting           monoclinic
_symmetry_space_group_name_H-M   'P 21/m'
_symmetry_Int_Tables_number      11
_space_group_name_Hall           '-P 2yb'
loop_
_symmetry_equiv_pos_site_id
_symmetry_equiv_pos_as_xyz
1 x,y,z
2 -x,1/2+y,-z
3 -x,-y,-z
4 x,1/2-y,z
_cell_length_a                   8.7714(7)
_cell_length_b                   6.4172(2)
_cell_length_c                   10.6524(10)
_cell_angle_alpha                90
_cell_angle_beta                 100.702(5)
_cell_angle_gamma                90
_cell_volume                     589.171
loop_
_atom_site_label
_atom_site_type_symbol
_atom_site_fract_x
_atom_site_fract_y
_atom_site_fract_z
Mo1 Mo -0.49707(2) -0.2500 -0.17387(2)
Zn1 Zn -0.29617(3) -0.2500 0.17236(3)
O1 O -0.61441(15) -0.4769(2) -0.20968(13)
O2 O -0.3554(3) -0.2500 -0.2659(2)
O3 O -0.4066(2) -0.2500 -0.0123(2)
N1 N -0.0738(3) -0.2500 0.1239(2)
N2 N -0.1487(2) -0.2500 0.3578(2)
C1 C -0.0398(3) -0.2500 0.0073(3)
C2 C 0.1136(3) -0.2500 -0.0134(3)
C3 C 0.2343(3) -0.2500 0.0900(3)
C4 C 0.2026(3) -0.2500 0.2149(3)
C5 C 0.0449(3) -0.2500 0.2267(2)
C6 C 0.3198(3) -0.2500 0.3282(3)
C7 C 0.2815(3) -0.2500 0.4448(3)
C8 C 0.1229(3) -0.2500 0.4613(3)
C9 C 0.0051(3) -0.2500 0.3522(2)
C10 C 0.0764(3) -0.2500 0.5808(3)
C11 C -0.0787(3) -0.2500 0.5860(2)
C12 C -0.1879(3) -0.2500 0.4722(3)
H1 H -0.2851(37) -0.2500 0.4718(27)
H2 H -0.1111(38) -0.2500 -0.0501(32)
H3 H 0.1310(42) -0.2500 -0.1040(35)
H4 H -0.1160(44) -0.2500 0.6753(36)
H5 H 0.3323(47) -0.2500 0.0852(36)
H6 H 0.4250(41) -0.2500 0.3170(31)
H7 H 0.1439(41) -0.2500 0.6422(34)
H8 H 0.3555(46) -0.2500 0.5141(35)
O1B O -0.38559(15) -0.5231(2) 0.20968(13)
Zn1B Zn -0.70383(3) -0.7500 -0.17236(3)
O1A O -0.38559(15) 0.0231(2) 0.20968(13)
O1C O -0.61441(15) -0.0231(2) -0.20968(13)
Zn1B_2 Zn -0.70383(3) 0.2500 -0.17236(3)
loop_
_geom_bond_atom_site_label_1
_geom_bond_atom_site_label_2
_geom_bond_site_symmetry_1
_geom_bond_site_symmetry_2
Mo1 O1 1_555 1_555
Zn1 O3 1_555 1_555
O1 Zn1B 1_555 1_555
O2 Mo1 1_555 1_555
O3 Mo1 1_555 1_555
N1 Zn1 1_555 1_555
N2 Zn1 1_555 1_555
C1 N1 1_555 1_555
C2 C1 1_555 1_555
C3 C2 1_555 1_555
C4 C3 1_555 1_555
C5 N1 1_555 1_555
C6 C4 1_555 1_555
C7 C6 1_555 1_555
C8 C7 1_555 1_555
C9 N2 1_555 1_555
C10 C8 1_555 1_555
C11 C10 1_555 1_555
C12 N2 1_555 1_555
H1 C12 1_555 1_555
H2 C1 1_555 1_555
H3 C2 1_555 1_555
H4 C11 1_555 1_555
H5 C3 1_555 1_555
H6 C6 1_555 1_555
H7 C10 1_555 1_555
H8 C7 1_555 1_555
O1B Zn1 1_555 1_555
O1A Zn1 1_555 1_555
O1C Mo1 1_555 1_555
Zn1B_2 O1C 1_555 1_555
C4 C5 1_555 1_555
C5 C9 1_555 1_555
C8 C9 1_555 1_555
C11 C12 1_555 1_555

#END
