
#######################################################################
#
#                 Cambridge Crystallographic Data Centre
#                                CCDC 
#
#######################################################################
#
# If this CIF has been generated from an entry in the Cambridge 
# Structural Database, then it will include bibliographic, chemical, 
# crystal, experimental, refinement or atomic coordinate data resulting 
# from the CCDC's data processing and validation procedures.
#
#######################################################################

data_LERQAC
_symmetry_cell_setting           monoclinic
_symmetry_space_group_name_H-M   'P 21/c'
_symmetry_Int_Tables_number      14
_space_group_name_Hall           '-P 2ybc'
loop_
_symmetry_equiv_pos_site_id
_symmetry_equiv_pos_as_xyz
1 x,y,z
2 -x,1/2+y,1/2-z
3 -x,-y,-z
4 x,1/2-y,1/2+z
_cell_length_a                   9.3686(19)
_cell_length_b                   13.080(3)
_cell_length_c                   7.3048(15)
_cell_angle_alpha                90
_cell_angle_beta                 106.86(3)
_cell_angle_gamma                90
_cell_volume                     856.663
loop_
_atom_site_label
_atom_site_type_symbol
_atom_site_fract_x
_atom_site_fract_y
_atom_site_fract_z
Co1 Co 1.0000 0.0000 0.5000
N1 N 0.86523(19) -0.07208(14) 0.6510(3)
N2 N 0.87457(19) -0.07142(14) 1.2428(2)
N3 N 0.76592(19) -0.12944(15) 0.9113(2)
N4 N 0.85008(18) 0.12713(13) 0.4394(2)
C1 C 0.8228(2) -0.09665(15) 0.7775(3)
C2 C 0.8276(2) -0.09642(15) 1.0853(3)
C3 C 0.7023(2) 0.11338(17) 0.3732(3)
H1 H 0.6656 0.0469 0.3562
C4 C 0.6022(2) 0.19299(18) 0.3293(3)
H2 H 0.5006 0.1796 0.2828
C5 C 0.6525(2) 0.29340(17) 0.3544(3)
C6 C 0.5461(3) 0.3821(2) 0.3074(4)
H3 H 0.4458 0.3570 0.2615
H4 H 0.5682 0.4235 0.2105
H5 H 0.5566 0.4225 0.4203
C7 C 0.8053(2) 0.30713(17) 0.4229(3)
H6 H 0.8448 0.3728 0.4420
C8 C 0.8989(2) 0.22389(16) 0.4628(3)
H7 H 1.0010 0.2353 0.5083
Co1_2 Co 1.0000 0.0000 -0.5000
Co1_3 Co 1.0000 0.0000 1.5000
N1B N 1.13477(19) 0.07208(14) 0.3490(3)
N2B N 1.12543(19) 0.07142(14) -0.2428(2)
N2_2 N 0.87457(19) -0.07142(14) 0.2428(2)
N2B_2 N 1.12543(19) 0.07142(14) 0.7572(2)
N3B N 1.23408(19) 0.12944(15) 0.0887(2)
N4B N 1.14992(18) -0.12713(13) 0.5606(2)
C1B C 1.1772(2) 0.09665(15) 0.2225(3)
C2B C 1.1724(2) 0.09642(15) -0.0853(3)
C3B C 1.2977(2) -0.11338(17) 0.6268(3)
H1B H 1.3344 -0.0469 0.6438
C4B C 1.3978(2) -0.19299(18) 0.6707(3)
H2B H 1.4994 -0.1796 0.7172
C5B C 1.3475(2) -0.29340(17) 0.6456(3)
C6B C 1.4539(3) -0.3821(2) 0.6926(4)
H3B H 1.5542 -0.3570 0.7385
H4B H 1.4318 -0.4235 0.7895
H5B H 1.4434 -0.4225 0.5797
C7B C 1.1947(2) -0.30713(17) 0.5771(3)
H6B H 1.1552 -0.3728 0.5580
C8B C 1.1011(2) -0.22389(16) 0.5372(3)
H7B H 0.9990 -0.2353 0.4917
loop_
_geom_bond_atom_site_label_1
_geom_bond_atom_site_label_2
_geom_bond_site_symmetry_1
_geom_bond_site_symmetry_2
Co1 N1 1_555 1_555
N1 C1 1_555 1_555
N2 C2 1_555 1_555
N3 C1 1_555 1_555
N4 Co1 1_555 1_555
C2 N3 1_555 1_555
C3 N4 1_555 1_555
H1 C3 1_555 1_555
C4 C3 1_555 1_555
H2 C4 1_555 1_555
C5 C4 1_555 1_555
C6 C5 1_555 1_555
H3 C6 1_555 1_555
H4 C6 1_555 1_555
H5 C6 1_555 1_555
C7 C5 1_555 1_555
H6 C7 1_555 1_555
C8 N4 1_555 1_555
H7 C8 1_555 1_555
Co1_2 N2B 1_555 1_555
Co1_3 N2 1_555 1_555
N1B Co1 1_555 1_555
N2B C2B 1_555 1_555
N2_2 Co1 1_555 1_555
N2B_2 Co1 1_555 1_555
N3B C1B 1_555 1_555
N4B Co1 1_555 1_555
C1B N1B 1_555 1_555
C2B N3B 1_555 1_555
C3B N4B 1_555 1_555
H1B C3B 1_555 1_555
C4B C3B 1_555 1_555
H2B C4B 1_555 1_555
C5B C4B 1_555 1_555
C6B C5B 1_555 1_555
H3B C6B 1_555 1_555
H4B C6B 1_555 1_555
H5B C6B 1_555 1_555
C7B C5B 1_555 1_555
H6B C7B 1_555 1_555
C8B N4B 1_555 1_555
H7B C8B 1_555 1_555
C7 C8 1_555 1_555
C7B C8B 1_555 1_555

#END
