
#######################################################################
#
#                 Cambridge Crystallographic Data Centre
#                                CCDC 
#
#######################################################################
#
# If this CIF has been generated from an entry in the Cambridge 
# Structural Database, then it will include bibliographic, chemical, 
# crystal, experimental, refinement or atomic coordinate data resulting 
# from the CCDC's data processing and validation procedures.
#
#######################################################################

data_LERRUV
_symmetry_cell_setting           monoclinic
_symmetry_space_group_name_H-M   'P 21/n'
_symmetry_Int_Tables_number      14
_space_group_name_Hall           '-P 2yn'
loop_
_symmetry_equiv_pos_site_id
_symmetry_equiv_pos_as_xyz
1 x,y,z
2 1/2-x,1/2+y,1/2-z
3 -x,-y,-z
4 1/2+x,1/2-y,1/2+z
_cell_length_a                   14.9872(9)
_cell_length_b                   8.4575(5)
_cell_length_c                   15.3551(9)
_cell_angle_alpha                90
_cell_angle_beta                 112.1020(10)
_cell_angle_gamma                90
_cell_volume                     1803.3
loop_
_atom_site_label
_atom_site_type_symbol
_atom_site_fract_x
_atom_site_fract_y
_atom_site_fract_z
Zn1 Zn 0.97085(5) 0.99013(7) 0.23658(5)
Cl1 Cl 0.82471(13) 1.0271(2) 0.12637(12)
Cl2 Cl 1.05328(12) 1.2159(2) 0.27546(12)
N1 N 1.0469(3) 0.8293(5) 0.4274(3)
N2 N 0.9664(3) 0.8844(5) 0.3550(3)
N3 N 1.3955(4) 0.3361(5) 0.3517(4)
N4 N 1.4673(3) 0.3211(5) 0.3184(3)
C1 C 1.0233(4) 0.7628(7) 0.4955(4)
C2 C 0.9248(4) 0.7762(7) 0.4674(4)
H1 H 0.8869(4) 0.7419(7) 0.5006(4)
C3 C 0.8927(4) 0.8501(6) 0.3807(4)
C4 C 1.0966(5) 0.6922(9) 0.5825(4)
H2 H 1.1601(5) 0.7023(9) 0.5802(4)
H3 H 1.0820(5) 0.5813(9) 0.5863(4)
H4 H 1.0950(5) 0.7474(9) 0.6373(4)
C5 C 0.7917(4) 0.8879(8) 0.3216(5)
H5 H 0.7894(4) 0.9396(8) 0.2644(5)
H6 H 0.7652(4) 0.9578(8) 0.3558(5)
H7 H 0.7543(4) 0.7912(8) 0.3058(5)
C6 C 1.3856(4) 0.2032(6) 0.3938(4)
C7 C 1.4519(4) 0.0978(7) 0.3862(5)
H8 H 1.4619(4) -0.0065(7) 0.4090(5)
C8 C 1.5009(4) 0.1748(7) 0.3386(4)
C9 C 1.3143(6) 0.1850(8) 0.4396(6)
H9 H 1.2778(6) 0.2821(8) 0.4325(6)
H10 H 1.3479(6) 0.1623(8) 0.5058(6)
H11 H 1.2707(6) 0.0987(8) 0.4101(6)
C10 C 1.5814(5) 0.1135(8) 0.3143(6)
H12 H 1.6016(5) 0.1942(8) 0.2807(6)
H13 H 1.5602(5) 0.0205(8) 0.2749(6)
H14 H 1.6351(5) 0.0857(8) 0.3714(6)
C11 C 1.1849(4) 0.7028(7) 0.4029(5)
H15 H 1.1390(4) 0.6547(7) 0.3454(5)
H16 H 1.2008(4) 0.6257(7) 0.4541(5)
C12 C 1.1432(4) 0.8521(6) 0.4273(4)
H17 H 1.1859(4) 0.8887(6) 0.4896(4)
H18 H 1.1408(4) 0.9348(6) 0.3818(4)
C13 C 1.3690(5) 0.5942(7) 0.4127(5)
H19 H 1.4353(5) 0.6237(7) 0.4222(5)
H20 H 1.3693(5) 0.5450(7) 0.4705(5)
C14 C 1.3304(5) 0.4801(7) 0.3322(5)
H21 H 1.3274(5) 0.5312(7) 0.2739(5)
H22 H 1.2650(5) 0.4477(7) 0.3245(5)
S1 S 1.29344(13) 0.7668(2) 0.38553(15)
N4A N 1.0327(3) 0.8211(5) 0.1816(3)
Zn1A Zn 1.52915(5) 0.49013(7) 0.26342(5)
loop_
_geom_bond_atom_site_label_1
_geom_bond_atom_site_label_2
_geom_bond_site_symmetry_1
_geom_bond_site_symmetry_2
Zn1 Cl1 1_555 1_555
Cl2 Zn1 1_555 1_555
N1 N2 1_555 1_555
N2 Zn1 1_555 1_555
N3 N4 1_555 1_555
N4 C8 1_555 1_555
C1 N1 1_555 1_555
C2 C1 1_555 1_555
H1 C2 1_555 1_555
C3 N2 1_555 1_555
C4 C1 1_555 1_555
H2 C4 1_555 1_555
H3 C4 1_555 1_555
H4 C4 1_555 1_555
C5 C3 1_555 1_555
H5 C5 1_555 1_555
H6 C5 1_555 1_555
H7 C5 1_555 1_555
C6 N3 1_555 1_555
C7 C6 1_555 1_555
H8 C7 1_555 1_555
C8 C7 1_555 1_555
C9 C6 1_555 1_555
H9 C9 1_555 1_555
H10 C9 1_555 1_555
H11 C9 1_555 1_555
C10 C8 1_555 1_555
H12 C10 1_555 1_555
H13 C10 1_555 1_555
H14 C10 1_555 1_555
C11 H15 1_555 1_555
H16 C11 1_555 1_555
C12 N1 1_555 1_555
H17 C12 1_555 1_555
H18 C12 1_555 1_555
C13 H19 1_555 1_555
H20 C13 1_555 1_555
C14 N3 1_555 1_555
H21 C14 1_555 1_555
H22 C14 1_555 1_555
S1 C11 1_555 1_555
N4A Zn1 1_555 1_555
Zn1A N4 1_555 1_555
C2 C3 1_555 1_555
C11 C12 1_555 1_555
C13 C14 1_555 1_555
C13 S1 1_555 1_555

#END
