
#######################################################################
#
#                 Cambridge Crystallographic Data Centre
#                                CCDC 
#
#######################################################################
#
# If this CIF has been generated from an entry in the Cambridge 
# Structural Database, then it will include bibliographic, chemical, 
# crystal, experimental, refinement or atomic coordinate data resulting 
# from the CCDC's data processing and validation procedures.
#
#######################################################################

data_LERSAE
_symmetry_cell_setting           monoclinic
_symmetry_space_group_name_H-M   'P 21/m'
_symmetry_Int_Tables_number      11
_space_group_name_Hall           '-P 2yb'
loop_
_symmetry_equiv_pos_site_id
_symmetry_equiv_pos_as_xyz
1 x,y,z
2 -x,1/2+y,-z
3 -x,-y,-z
4 x,1/2-y,z
_cell_length_a                   7.4510(5)
_cell_length_b                   14.1636(8)
_cell_length_c                   8.1977(5)
_cell_angle_alpha                90
_cell_angle_beta                 90.459(6)
_cell_angle_gamma                90
_cell_volume                     865.1
loop_
_atom_site_label
_atom_site_type_symbol
_atom_site_fract_x
_atom_site_fract_y
_atom_site_fract_z
C1 C 1.1006(5) 0.1143(2) 0.9055(4)
H1 H 1.1791 0.1472 0.9735
C2 C 0.8642(5) 0.0711(2) 0.7765(5)
H2 H 0.7465 0.0693 0.7379
C3 C 0.9946(6) 0.0095(2) 0.7356(5)
H3 H 0.9840 -0.0419 0.6657
C4 C 1.3238(5) -0.0061(3) 0.8149(5)
H4 H 1.3126 -0.0715 0.8485
H5 H 1.4013 0.0255 0.8934
C5 C 1.4064(6) 0.0774(2) 0.5539(5)
H6 H 1.3423 0.1299 0.5888
C6 C 1.4113(5) -0.0027(2) 0.6486(4)
C7 C 1.5034(5) -0.0802(3) 0.5934(5)
H7 H 1.5053 -0.1351 0.6554
C8 C 0.9449(11) 0.2500 1.2806(8)
C9 C 0.9467(13) 0.2500 1.4712(9)
H8 H 1.0686 0.2500 1.5101
H9 H 0.8864 0.1947 1.5103
O1 O 0.8030(8) 0.2500 1.2164(5)
O2 O 1.0927(8) 0.2500 1.2147(6)
Zn1 Zn 0.80781(9) 0.2500 0.97775(7)
N1 N 0.9317(4) 0.13638(19) 0.8831(4)
N2 N 1.1458(4) 0.03823(19) 0.8181(3)
Cl1 Cl 0.5193(2) 0.2500 0.8976(3)
C1B C 1.8994(5) -0.1143(2) 0.0945(4)
H1B H 1.8209 -0.1472 0.0265
C2B C 2.1358(5) -0.0711(2) 0.2235(5)
H2B H 2.2535 -0.0693 0.2621
C3B C 2.0054(6) -0.0095(2) 0.2644(5)
H3B H 2.0160 0.0419 0.3343
C4B C 1.6762(5) 0.0061(3) 0.1851(5)
H4B H 1.6874 0.0715 0.1515
H5B H 1.5987 -0.0255 0.1066
C5B C 1.5936(6) -0.0774(2) 0.4461(5)
H6B H 1.6577 -0.1299 0.4112
C6B C 1.5887(5) 0.0027(2) 0.3514(4)
C7B C 1.4966(5) 0.0802(3) 0.4066(5)
H7B H 1.4947 0.1351 0.3446
H9C H 0.8864 0.3053 1.5103
Zn1A Zn 2.19219(9) -0.2500 0.02225(7)
N1B N 2.0683(4) -0.13638(19) 0.1169(4)
N1C N 0.9317(4) 0.36362(19) 0.8831(4)
N2B N 1.8542(4) -0.03823(19) 0.1819(3)
loop_
_geom_bond_atom_site_label_1
_geom_bond_atom_site_label_2
_geom_bond_site_symmetry_1
_geom_bond_site_symmetry_2
C1 H1 1_555 1_555
C2 H2 1_555 1_555
C3 C2 1_555 1_555
H3 C3 1_555 1_555
C4 H4 1_555 1_555
H5 C4 1_555 1_555
C5 H6 1_555 1_555
C6 C4 1_555 1_555
C7 C6 1_555 1_555
H7 C7 1_555 1_555
C8 C9 1_555 1_555
C9 H8 1_555 1_555
H9 C9 1_555 1_555
O1 C8 1_555 1_555
O2 C8 1_555 1_555
Zn1 O1 1_555 1_555
N1 C1 1_555 1_555
N2 C1 1_555 1_555
Cl1 Zn1 1_555 1_555
C1B H1B 1_555 1_555
C2B H2B 1_555 1_555
C3B C2B 1_555 1_555
H3B C3B 1_555 1_555
C4B H4B 1_555 1_555
H5B C4B 1_555 1_555
C5B C7 1_555 1_555
H6B C5B 1_555 1_555
C6B C4B 1_555 1_555
C7B C5 1_555 1_555
H7B C7B 1_555 1_555
H9C C9 1_555 1_555
Zn1A N1B 1_555 1_555
N1B C1B 1_555 1_555
N1C Zn1 1_555 1_555
N2B C1B 1_555 1_555
C2 N1 1_555 1_555
C3 N2 1_555 1_555
C4 N2 1_555 1_555
C5 C6 1_555 1_555
Zn1 N1 1_555 1_555
C2B N1B 1_555 1_555
C3B N2B 1_555 1_555
C4B N2B 1_555 1_555
C5B C6B 1_555 1_555
C6B C7B 1_555 1_555

#END
