
#######################################################################
#
#                 Cambridge Crystallographic Data Centre
#                                CCDC 
#
#######################################################################
#
# If this CIF has been generated from an entry in the Cambridge 
# Structural Database, then it will include bibliographic, chemical, 
# crystal, experimental, refinement or atomic coordinate data resulting 
# from the CCDC's data processing and validation procedures.
#
#######################################################################

data_LERTOT
_symmetry_cell_setting           monoclinic
_symmetry_space_group_name_H-M   'P 21/n'
_symmetry_Int_Tables_number      14
_space_group_name_Hall           '-P 2yn'
loop_
_symmetry_equiv_pos_site_id
_symmetry_equiv_pos_as_xyz
1 x,y,z
2 1/2-x,1/2+y,1/2-z
3 -x,-y,-z
4 1/2+x,1/2-y,1/2+z
_cell_length_a                   8.3130(15)
_cell_length_b                   20.866(4)
_cell_length_c                   12.513(2)
_cell_angle_alpha                90
_cell_angle_beta                 97.665(2)
_cell_angle_gamma                90
_cell_volume                     2151.1
loop_
_atom_site_label
_atom_site_type_symbol
_atom_site_fract_x
_atom_site_fract_y
_atom_site_fract_z
Mn1 Mn 0.26466(3) 0.152282(13) 0.52153(2)
Cl1 Cl 0.34709(5) 0.29498(2) 0.19487(4)
Cl2 Cl -0.31626(5) 0.22151(2) 0.36711(4)
O1 O 0.29779(16) 0.21863(6) 0.39171(11)
O2 O 0.02350(16) 0.18152(6) 0.45478(10)
O3 O 0.00620(16) 0.32640(6) 0.09766(10)
O4 O -0.26694(16) 0.29681(7) 0.16927(11)
N1 N 0.32635(19) 0.07145(8) 0.41547(13)
N2 N 0.19315(19) 0.06124(8) 0.59751(13)
C1 C 0.1713(2) 0.23827(9) 0.33539(14)
C2 C 0.1669(2) 0.27578(9) 0.24228(15)
C3 C 0.0202(2) 0.29465(8) 0.18379(14)
C4 C -0.1402(2) 0.27663(8) 0.22528(15)
C5 C -0.1360(2) 0.23993(9) 0.31882(15)
C6 C 0.0100(2) 0.21788(8) 0.37393(14)
C7 C 0.3914(3) 0.07952(10) 0.32347(16)
H1 H 0.4180 0.1217 0.3031
C8 C 0.4214(3) 0.02880(11) 0.25711(17)
H2 H 0.4677 0.0361 0.1927
C9 C 0.3826(3) -0.03242(11) 0.28672(18)
H3 H 0.4012 -0.0680 0.2425
C10 C 0.3160(3) -0.04169(10) 0.38176(17)
H4 H 0.2891 -0.0835 0.4036
C11 C 0.2895(2) 0.01144(9) 0.44437(15)
C12 C 0.2186(2) 0.00567(9) 0.54702(15)
C13 C 0.1817(3) -0.05325(10) 0.58966(17)
H5 H 0.1999 -0.0919 0.5530
C14 C 0.1180(3) -0.05466(11) 0.68661(18)
H6 H 0.0931 -0.0944 0.7175
C15 C 0.0909(3) 0.00214(11) 0.73776(18)
H7 H 0.0468 0.0022 0.8040
C16 C 0.1296(3) 0.05905(10) 0.69034(16)
H8 H 0.1102 0.0982 0.7251
Mn1C Mn -0.23534(3) 0.347718(13) 0.02153(2)
O3C O 0.50620(16) 0.17360(6) 0.59766(10)
O4C O 0.23306(16) 0.20319(7) 0.66927(11)
O5 O 0.4059(3) 0.44845(11) 0.46828(18)
H9 H 0.3160 0.4420 0.4900
C17 C 0.4877(4) 0.38834(13) 0.4599(2)
H10 H 0.5837 0.3952 0.4222
H11 H 0.4138 0.3584 0.4158
C18 C 0.5409(5) 0.35873(16) 0.5669(3)
H12 H 0.5981 0.3185 0.5571
H13 H 0.4458 0.3499 0.6032
H14 H 0.6138 0.3882 0.6110
O6 O 0.0886(3) 0.44697(10) 0.49882(18)
H15 H 0.0270 0.4791 0.4920
C19 C -0.0048(5) 0.39086(16) 0.4859(3)
H16 H -0.0062 0.3750 0.4113
H17 H -0.1180 0.4012 0.4963
C20 C 0.0558(6) 0.33965(17) 0.5616(3)
H18 H -0.0281 0.3067 0.5625
H19 H 0.0828 0.3577 0.6341
H20 H 0.1531 0.3204 0.5385
H21? H 0.1820 0.4395 0.4833
H22? H 0.4601 0.4714 0.5151
loop_
_geom_bond_atom_site_label_1
_geom_bond_atom_site_label_2
_geom_bond_site_symmetry_1
_geom_bond_site_symmetry_2
Mn1 O1 1_555 1_555
Cl1 C2 1_555 1_555
Cl2 C5 1_555 1_555
O1 C1 1_555 1_555
O2 Mn1 1_555 1_555
O3 C3 1_555 1_555
O4 C4 1_555 1_555
N1 Mn1 1_555 1_555
N2 Mn1 1_555 1_555
C1 C2 1_555 1_555
C2 C3 1_555 1_555
C3 C4 1_555 1_555
C4 C5 1_555 1_555
C5 C6 1_555 1_555
C6 O2 1_555 1_555
C7 N1 1_555 1_555
H1 C7 1_555 1_555
C8 C7 1_555 1_555
H2 C8 1_555 1_555
C9 C8 1_555 1_555
H3 C9 1_555 1_555
C10 C9 1_555 1_555
H4 C10 1_555 1_555
C11 N1 1_555 1_555
C12 N2 1_555 1_555
C13 C12 1_555 1_555
H5 C13 1_555 1_555
C14 C13 1_555 1_555
H6 C14 1_555 1_555
C15 C14 1_555 1_555
H7 C15 1_555 1_555
C16 N2 1_555 1_555
H8 C16 1_555 1_555
O5 H9 1_555 1_555
C17 O5 1_555 1_555
H10 C17 1_555 1_555
H11 C17 1_555 1_555
C18 C17 1_555 1_555
H12 C18 1_555 1_555
H13 C18 1_555 1_555
H14 C18 1_555 1_555
O6 H15 1_555 1_555
C19 O6 1_555 1_555
H16 C19 1_555 1_555
H17 C19 1_555 1_555
C20 C19 1_555 1_555
H18 C20 1_555 1_555
H19 C20 1_555 1_555
H20 C20 1_555 1_555
Mn1C O3 1_555 1_555
O3C Mn1 1_555 1_555
O4C Mn1 1_555 1_555
O4 Mn1C 1_555 1_555
C1 C6 1_555 1_555
C10 C11 1_555 1_555
C11 C12 1_555 1_555
C15 C16 1_555 1_555

#END
