
#######################################################################
#
#                 Cambridge Crystallographic Data Centre
#                                CCDC 
#
#######################################################################
#
# If this CIF has been generated from an entry in the Cambridge 
# Structural Database, then it will include bibliographic, chemical, 
# crystal, experimental, refinement or atomic coordinate data resulting 
# from the CCDC's data processing and validation procedures.
#
#######################################################################

data_LESMOL02
_symmetry_cell_setting           triclinic
_symmetry_space_group_name_H-M   'P -1'
_symmetry_Int_Tables_number      2
_space_group_name_Hall           '-P 1'
loop_
_symmetry_equiv_pos_site_id
_symmetry_equiv_pos_as_xyz
1 x,y,z
2 -x,-y,-z
_cell_length_a                   9.3952(12)
_cell_length_b                   15.4447(19)
_cell_length_c                   18.693(2)
_cell_angle_alpha                75.310(2)
_cell_angle_beta                 80.536(2)
_cell_angle_gamma                77.648(2)
_cell_volume                     2545.58
loop_
_atom_site_label
_atom_site_type_symbol
_atom_site_fract_x
_atom_site_fract_y
_atom_site_fract_z
Tb1 Tb 1.23938(2) 0.714445(14) 0.281637(13)
Tb2 Tb 0.78304(2) 0.693585(14) 0.309523(13)
C1 C 1.4859(5) 0.8565(3) 0.2701(3)
C2 C 1.4400(5) 0.9569(3) 0.2384(3)
C3 C 1.5433(6) 1.0125(3) 0.2129(3)
H1 H 1.6420 0.9881 0.2165
C4 C 1.5019(7) 1.1033(4) 0.1824(4)
H2 H 1.5713 1.1409 0.1653
C5 C 1.3575(8) 1.1369(4) 0.1779(4)
C6 C 1.2519(7) 1.0835(4) 0.2024(5)
H3 H 1.1534 1.1081 0.1982
C7 C 1.2950(6) 0.9928(4) 0.2333(4)
H4 H 1.2251 0.9555 0.2508
C8 C 1.0136(5) 0.8325(3) 0.1830(3)
C9 C 0.9272(5) 0.9051(3) 0.1293(3)
C10 C 0.9536(6) 0.9930(3) 0.1115(3)
H5 H 1.0274 1.0068 0.1321
C11 C 0.8707(7) 1.0609(4) 0.0632(3)
H6 H 0.8862 1.1206 0.0519
C12 C 0.7666(6) 1.0382(4) 0.0329(3)
C13 C 0.7386(6) 0.9518(4) 0.0471(3)
H7 H 0.6682 0.9386 0.0239
C14 C 0.8193(6) 0.8834(4) 0.0977(3)
H8 H 0.8007 0.8243 0.1100
C15 C 1.0169(5) 0.5484(3) 0.3764(3)
C16 C 1.0933(5) 0.4510(3) 0.3837(3)
C17 C 1.0466(7) 0.3810(4) 0.4374(3)
H9 H 0.9701 0.3942 0.4737
C18 C 1.1102(8) 0.2920(4) 0.4391(3)
H10 H 1.0786 0.2451 0.4763
C19 C 1.2201(7) 0.2739(4) 0.3850(4)
C20 C 1.2712(8) 0.3410(4) 0.3300(5)
H11 H 1.3463 0.3271 0.2933
C21 C 1.2067(7) 0.4311(4) 0.3309(4)
H12 H 1.2413 0.4782 0.2952
C22 C 0.8197(5) 0.6131(3) 0.1834(3)
C23 C 0.9238(5) 0.4795(3) 0.1266(3)
H13 H 0.9942 0.4614 0.1597
C24 C 0.8226(5) 0.5593(3) 0.1264(3)
C25 C 0.7193(6) 0.5857(4) 0.0759(3)
H14 H 0.6530 0.6400 0.0748
C26 C 0.7131(7) 0.5332(4) 0.0279(3)
H15 H 0.6435 0.5509 -0.0056
C27 C 0.9198(6) 0.4267(4) 0.0775(3)
H16 H 0.9886 0.3738 0.0762
C28 C 0.8127(7) 0.4539(4) 0.0307(3)
C29 C 0.5453(5) 0.5527(3) 0.3077(3)
C30 C 0.7376(6) 0.4117(3) 0.3208(3)
H17 H 0.7751 0.4307 0.3561
C31 C 0.8033(7) 0.3304(4) 0.2999(4)
H18 H 0.8822 0.2930 0.3229
C32 C 0.7509(9) 0.3069(4) 0.2459(4)
C33 C 0.6333(7) 0.3567(4) 0.2114(4)
H19 H 0.6002 0.3382 0.1745
C34 C 0.5645(6) 0.4362(4) 0.2335(3)
H20 H 0.4833 0.4717 0.2113
C35 C 0.6157(5) 0.4633(3) 0.2882(3)
C36 C 0.9434(5) 0.8345(3) 0.3675(3)
C37 C 0.8800(6) 0.9245(3) 0.3892(3)
C38 C 0.7288(6) 0.9506(4) 0.3991(3)
H21 H 0.6686 0.9153 0.3895
C39 C 0.9700(6) 0.9775(3) 0.3999(3)
H22 H 1.0712 0.9611 0.3902
C40 C 0.9100(8) 1.0562(4) 0.4254(4)
H23 H 0.9699 1.0923 0.4341
C41 C 0.7602(9) 1.0791(4) 0.4372(4)
C42 C 0.6680(8) 1.0297(4) 0.4235(4)
H24 H 0.5668 1.0486 0.4304
N1 N 0.8276(10) 0.2229(5) 0.2220(6)
N2 N 0.8064(7) 0.3954(4) -0.0199(3)
N3 N 1.2881(7) 0.1783(4) 0.3831(4)
N4 N 0.6766(7) 1.1108(5) -0.0177(3)
N5 N 1.3126(10) 1.2363(4) 0.1451(6)
N6 N 0.6991(11) 1.1604(4) 0.4687(4)
O1 O 1.4236(3) 0.7268(2) 0.17116(19)
H25 H 1.3985 0.7575 0.1291
H26 H 1.5120 0.7003 0.1750
O2 O 0.4146(4) 0.5812(2) 0.2968(2)
O3 O 1.1962(4) 0.6314(2) 0.19526(19)
H27 H 1.1350 0.6564 0.1640
H28 H 1.2424 0.5775 0.1963
O4 O 1.2918(4) 0.6759(2) 0.41256(19)
H29 H 1.2337 0.7005 0.4447
H30 H 1.3683 0.6380 0.4254
O5 O 1.3886(4) 0.8094(2) 0.2935(2)
O6 O 1.0760(3) 0.8193(2) 0.3455(2)
O7 O 0.8533(4) 0.7817(2) 0.3746(2)
O8 O 1.1453(4) 0.8388(2) 0.1854(2)
O9 O 0.9533(4) 0.7702(2) 0.22550(19)
O10 O 1.0814(4) 0.6118(2) 0.3412(2)
O11 O 0.8836(3) 0.5622(2) 0.40108(18)
O12 O 0.9135(3) 0.5874(2) 0.22902(18)
O13 O 0.7197(4) 0.6816(2) 0.18643(19)
O14 O 0.6214(4) 0.5921(2) 0.3331(2)
O15 O 0.6072(4) 0.7017(2) 0.4229(2)
H31 H 0.6276 0.6669 0.4645
H32 H 0.5265 0.7392 0.4203
O16 O 1.6221(4) 0.8270(2) 0.2720(2)
O17 O 0.6888(8) 1.1883(4) -0.0235(3)
O18 O 0.5988(6) 1.0886(5) -0.0530(3)
O19 O 1.1849(10) 1.2651(4) 0.1482(8)
O20 O 1.4003(9) 1.2834(4) 0.1271(4)
O21 O 1.3955(7) 0.1642(3) 0.3387(4)
O22 O 1.2305(8) 0.1178(3) 0.4245(3)
O23 O 0.9105(11) 0.1711(4) 0.2584(5)
O24 O 0.8026(9) 0.2127(5) 0.1633(5)
O25 O 0.9084(6) 0.3338(3) -0.0269(3)
O26 O 0.6972(6) 0.4128(4) -0.0528(3)
O27 O 0.7800(9) 1.2033(4) 0.4812(3)
O28 O 0.5624(9) 1.1776(5) 0.4804(5)
Tb1_2 Tb 0.23938(2) 0.714445(14) 0.281637(13)
Tb2_2 Tb 1.78304(2) 0.693585(14) 0.309523(13)
O2_2 O 1.4146(4) 0.5812(2) 0.2968(2)
O16_2 O 0.6221(4) 0.8270(2) 0.2720(2)
O29 O 0.3492(5) 0.5033(3) 0.4895(3)
H33 H 0.2708 0.5279 0.4697
H34 H 0.3479 0.4598 0.5279
loop_
_geom_bond_atom_site_label_1
_geom_bond_atom_site_label_2
_geom_bond_site_symmetry_1
_geom_bond_site_symmetry_2
Tb1 O1 1_555 1_555
Tb2 O7 1_555 1_555
C1 C2 1_555 1_555
C2 C3 1_555 1_555
C3 H1 1_555 1_555
C4 C3 1_555 1_555
H2 C4 1_555 1_555
C5 C4 1_555 1_555
C6 C5 1_555 1_555
H3 C6 1_555 1_555
C7 C2 1_555 1_555
H4 C7 1_555 1_555
C8 C9 1_555 1_555
C9 C10 1_555 1_555
C10 H5 1_555 1_555
C11 C10 1_555 1_555
H6 C11 1_555 1_555
C12 C11 1_555 1_555
C13 C12 1_555 1_555
H7 C13 1_555 1_555
C14 C9 1_555 1_555
H8 C14 1_555 1_555
C15 C16 1_555 1_555
C16 C17 1_555 1_555
C17 H9 1_555 1_555
C18 C17 1_555 1_555
H10 C18 1_555 1_555
C19 C18 1_555 1_555
C20 C19 1_555 1_555
H11 C20 1_555 1_555
C21 C16 1_555 1_555
H12 C21 1_555 1_555
C22 C24 1_555 1_555
C23 H13 1_555 1_555
C24 C23 1_555 1_555
C25 C24 1_555 1_555
H14 C25 1_555 1_555
C26 C25 1_555 1_555
H15 C26 1_555 1_555
C27 C23 1_555 1_555
H16 C27 1_555 1_555
C28 C26 1_555 1_555
C29 C35 1_555 1_555
C30 H17 1_555 1_555
C31 C30 1_555 1_555
H18 C31 1_555 1_555
C32 C31 1_555 1_555
C33 C32 1_555 1_555
H19 C33 1_555 1_555
C34 C33 1_555 1_555
H20 C34 1_555 1_555
C35 C30 1_555 1_555
C36 C37 1_555 1_555
C37 C38 1_555 1_555
C38 H21 1_555 1_555
C39 C37 1_555 1_555
H22 C39 1_555 1_555
C40 C39 1_555 1_555
H23 C40 1_555 1_555
C41 C40 1_555 1_555
C42 C38 1_555 1_555
H24 C42 1_555 1_555
N1 C32 1_555 1_555
N2 C28 1_555 1_555
N3 C19 1_555 1_555
N4 C12 1_555 1_555
N5 C5 1_555 1_555
N6 C41 1_555 1_555
O1 H25 1_555 1_555
H26 O1 1_555 1_555
O2 C29 1_555 1_555
O3 Tb1 1_555 1_555
H27 O3 1_555 1_555
H28 O3 1_555 1_555
O4 Tb1 1_555 1_555
H29 O4 1_555 1_555
H30 O4 1_555 1_555
O5 Tb1 1_555 1_555
O6 Tb1 1_555 1_555
O7 C36 1_555 1_555
O8 Tb1 1_555 1_555
O9 Tb2 1_555 1_555
O10 Tb1 1_555 1_555
O11 Tb2 1_555 1_555
O12 Tb2 1_555 1_555
O13 Tb2 1_555 1_555
O14 Tb2 1_555 1_555
O15 Tb2 1_555 1_555
H31 O15 1_555 1_555
H32 O15 1_555 1_555
O16 C1 1_555 1_555
O17 N4 1_555 1_555
O18 N4 1_555 1_555
O19 N5 1_555 1_555
O20 N5 1_555 1_555
O21 N3 1_555 1_555
O22 N3 1_555 1_555
O23 N1 1_555 1_555
O24 N1 1_555 1_555
O25 N2 1_555 1_555
O26 N2 1_555 1_555
O27 N6 1_555 1_555
O28 N6 1_555 1_555
O29 H33 1_555 1_555
H34 O29 1_555 1_555
Tb1_2 O2 1_555 1_555
Tb2_2 O16 1_555 1_555
O2_2 Tb1 1_555 1_555
O16_2 Tb2 1_555 1_555
C1 O5 1_555 1_555
C6 C7 1_555 1_555
C8 O8 1_555 1_555
C8 O9 1_555 1_555
C13 C14 1_555 1_555
C15 O10 1_555 1_555
C15 O11 1_555 1_555
C20 C21 1_555 1_555
C22 O12 1_555 1_555
C22 O13 1_555 1_555
C27 C28 1_555 1_555
C29 O14 1_555 1_555
C34 C35 1_555 1_555
C36 O6 1_555 1_555
C41 C42 1_555 1_555

#END
