
#######################################################################
#
#                 Cambridge Crystallographic Data Centre
#                                CCDC 
#
#######################################################################
#
# If this CIF has been generated from an entry in the Cambridge 
# Structural Database, then it will include bibliographic, chemical, 
# crystal, experimental, refinement or atomic coordinate data resulting 
# from the CCDC's data processing and validation procedures.
#
#######################################################################

data_LESMOL
_symmetry_cell_setting           triclinic
_symmetry_space_group_name_H-M   'P -1'
_symmetry_Int_Tables_number      2
_space_group_name_Hall           '-P 1'
loop_
_symmetry_equiv_pos_site_id
_symmetry_equiv_pos_as_xyz
1 x,y,z
2 -x,-y,-z
_cell_length_a                   9.405(1)
_cell_length_b                   18.715(6)
_cell_length_c                   15.437(3)
_cell_angle_alpha                104.52(3)
_cell_angle_beta                 102.29(3)
_cell_angle_gamma                80.72(2)
_cell_volume                     2553.3
loop_
_atom_site_label
_atom_site_type_symbol
_atom_site_fract_x
_atom_site_fract_y
_atom_site_fract_z
Tb1 Tb 0.2172(1) 0.1904(1) 0.1940(1)
Tb2 Tb 0.7606(1) 0.2182(1) 0.2147(1)
N1 N 0.687(1) 0.3549(7) 0.7362(5)
N2 N 0.3219(7) 0.5177(4) 0.6107(5)
N3 N -0.2861(7) 0.1167(4) -0.3216(4)
N4 N 0.1748(9) 0.2793(5) -0.2780(4)
N5 N 0.1935(7) 0.5201(3) -0.1046(4)
N6 N 0.3027(9) 0.0327(4) 0.6613(4)
O1 O 0.3947(4) 0.0766(2) 0.2021(3)
O2 O 0.5757(4) 0.3296(2) 0.2283(3)
O3 O 0.8050(4) 0.3057(2) 0.1315(3)
O4 O 0.7064(5) 0.0872(2) 0.1760(3)
O5 O 0.3792(4) 0.2285(2) 0.3274(2)
O6 O 0.6115(4) 0.2061(3) 0.3094(3)
O7 O 0.600(1) 0.3733(6) 0.7832(4)
O8 O 0.819(1) 0.3531(9) 0.7652(5)
O9 O -0.1442(4) 0.3136(2) 0.3393(3)
O10 O 0.0466(4) 0.2740(2) 0.2701(2)
O11 O 0.4011(6) 0.5530(4) 0.5888(5)
O12 O 0.3085(9) 0.5250(4) 0.6884(4)
O13 O -0.0816(4) 0.1588(2) 0.1120(2)
O14 O 0.1164(4) 0.0996(2) 0.0630(2)
O15 O -0.2323(8) 0.0758(4) -0.3813(3)
O16 O -0.3942(7) 0.1615(4) -0.3355(4)
O17 O 0.5852(4) 0.2031(2) 0.0816(2)
O18 O 0.3790(4) 0.1668(2) 0.0921(3)
O19 O 0.1986(9) 0.3373(5) -0.2875(5)
O20 O 0.089(1) 0.2421(5) -0.3286(4)
O21 O 0.0870(4) 0.2714(2) 0.0878(2)
O22 O 0.2819(4) 0.3131(2) 0.1823(2)
O23 O 0.3013(7) 0.5528(3) -0.0872(4)
O24 O 0.0924(7) 0.5277(4) -0.1653(4)
O25 O 0.1455(4) 0.1259(2) 0.2823(3)
O26 O -0.0762(4) 0.1545(2) 0.3195(3)
O27 O 0.2187(9) 0.0192(4) 0.7038(4)
O28 O 0.4375(9) 0.0206(5) 0.6790(5)
C1 C 0.5134(6) 0.2297(3) 0.3570(3)
C2 C 0.5594(6) 0.2618(4) 0.4571(4)
C3 C 0.4557(7) 0.2865(4) 0.5129(4)
C4 C 0.4979(8) 0.3178(4) 0.6040(4)
C5 C 0.644(1) 0.3218(5) 0.6371(4)
C6 C 0.7485(9) 0.2974(6) 0.5844(5)
C7 C 0.7044(7) 0.2671(5) 0.4934(4)
C8 C -0.0124(6) 0.3164(3) 0.3337(4)
C9 C 0.0741(6) 0.3705(3) 0.4056(4)
C10 C 0.0459(7) 0.3883(4) 0.4928(4)
C11 C 0.1281(7) 0.4364(4) 0.5613(4)
C12 C 0.2321(7) 0.4675(4) 0.5382(5)
C13 C 0.2612(7) 0.4520(4) 0.4514(5)
C14 C 0.1807(7) 0.4019(4) 0.3843(4)
C15 C -0.0179(6) 0.1241(3) 0.0474(3)
C16 C -0.0946(6) 0.1171(3) -0.0485(4)
C17 C -0.2069(8) 0.1698(5) -0.0690(4)
C18 C -0.2693(7) 0.1694(5) -0.1587(4)
C19 C -0.2206(7) 0.1151(4) -0.2249(4)
C20 C -0.1110(9) 0.0618(4) -0.2080(4)
C21 C -0.0474(8) 0.0634(4) -0.1179(4)
C22 C 0.4554(6) 0.1926(3) 0.0529(3)
C23 C 0.3842(6) 0.2127(3) -0.0364(4)
C24 C 0.4372(7) 0.2671(4) -0.0639(4)
C25 C 0.3672(8) 0.2891(4) -0.1418(5)
C26 C 0.2511(9) 0.2553(5) -0.1923(4)
C27 C 0.1959(8) 0.2008(5) -0.1688(5)
C28 C 0.2614(7) 0.1796(4) -0.0877(4)
C29 C 0.1809(6) 0.3170(3) 0.1137(4)
C30 C 0.1790(6) 0.3732(3) 0.0593(4)
C31 C 0.2815(7) 0.4235(4) 0.0862(4)
C32 C 0.2858(8) 0.4725(4) 0.0328(5)
C33 C 0.1859(8) 0.4688(4) -0.0468(4)
C34 C 0.0809(7) 0.4217(4) -0.0737(4)
C35 C 0.0786(6) 0.3734(4) -0.0203(4)
C36 C 0.0581(6) 0.1328(3) 0.3358(4)
C37 C 0.1195(6) 0.1121(3) 0.4253(4)
C38 C 0.0285(7) 0.0997(4) 0.4781(4)
C39 C 0.0875(9) 0.0746(4) 0.5562(4)
C40 C 0.2382(9) 0.0635(4) 0.5794(4)
C41 C 0.3320(8) 0.0765(5) 0.5294(5)
C42 C 0.2703(7) 0.1014(4) 0.4515(4)
H1 H 0.3541 0.2818 0.4881
H2 H 0.4267 0.3362 0.6429
H3 H 0.8501 0.3012 0.6099
H4 H 0.7764 0.2493 0.4549
H5 H -0.0311 0.3673 0.5063
H6 H 0.1123 0.4474 0.6229
H7 H 0.3350 0.4751 0.4375
H8 H 0.1996 0.3893 0.3232
H9 H -0.2427 0.2071 -0.0209
H10 H -0.3460 0.2073 -0.1735
H11 H -0.0782 0.0239 -0.2565
H12 H 0.0313 0.0262 -0.1040
H13 H 0.5225 0.2892 -0.0283
H14 H 0.4004 0.3280 -0.1602
H15 H 0.1137 0.1777 -0.2074
H16 H 0.2230 0.1432 -0.0678
H17 H 0.3502 0.4244 0.1421
H18 H 0.3560 0.5078 0.0510
H19 H 0.0102 0.4222 -0.1285
H20 H 0.0062 0.3392 -0.0385
H21 H -0.0759 0.1084 0.4602
H22 H 0.0258 0.0653 0.5934
H23 H 0.4363 0.0585 0.5479
H24 H 0.3324 0.1114 0.4150
O9_2 O 0.8558(4) 0.3136(2) 0.3393(3)
O10_2 O 1.0466(4) 0.2740(2) 0.2701(2)
O13_2 O 0.9184(4) 0.1588(2) 0.1120(2)
O26_2 O 0.9238(4) 0.1545(2) 0.3195(3)
Tb2_2 Tb -0.2394(1) 0.2182(1) 0.2147(1)
O29 O 0.6534(6) 0.0104(3) 0.0027(3)
loop_
_geom_bond_atom_site_label_1
_geom_bond_atom_site_label_2
_geom_bond_site_symmetry_1
_geom_bond_site_symmetry_2
Tb1 O1 1_555 1_555
Tb2 O2 1_555 1_555
N1 O7 1_555 1_555
N2 O11 1_555 1_555
N3 O15 1_555 1_555
N4 O19 1_555 1_555
N5 O23 1_555 1_555
N6 O27 1_555 1_555
O3 Tb2 1_555 1_555
O4 Tb2 1_555 1_555
O5 Tb1 1_555 1_555
O6 Tb2 1_555 1_555
O8 N1 1_555 1_555
O9 C8 1_555 1_555
O10 Tb1 1_555 1_555
O12 N2 1_555 1_555
O13 Tb1 1_555 1_555
O14 Tb1 1_555 1_555
O16 N3 1_555 1_555
O17 Tb2 1_555 1_555
O18 Tb1 1_555 1_555
O20 N4 1_555 1_555
O21 Tb1 1_555 1_555
O22 Tb1 1_555 1_555
O24 N5 1_555 1_555
O25 Tb1 1_555 1_555
O26 C36 1_555 1_555
O28 N6 1_555 1_555
C1 O5 1_555 1_555
C2 C1 1_555 1_555
C3 C2 1_555 1_555
C4 C3 1_555 1_555
C5 N1 1_555 1_555
C6 C5 1_555 1_555
C7 C2 1_555 1_555
C8 O10 1_555 1_555
C9 C8 1_555 1_555
C10 C9 1_555 1_555
C11 C10 1_555 1_555
C12 N2 1_555 1_555
C13 C12 1_555 1_555
C14 C9 1_555 1_555
C15 O13 1_555 1_555
C16 C15 1_555 1_555
C17 C16 1_555 1_555
C18 C17 1_555 1_555
C19 N3 1_555 1_555
C20 C19 1_555 1_555
C21 C16 1_555 1_555
C22 O17 1_555 1_555
C23 C22 1_555 1_555
C24 C23 1_555 1_555
C25 C24 1_555 1_555
C26 N4 1_555 1_555
C27 C26 1_555 1_555
C28 C23 1_555 1_555
C29 O21 1_555 1_555
C30 C29 1_555 1_555
C31 C30 1_555 1_555
C32 C31 1_555 1_555
C33 N5 1_555 1_555
C34 C33 1_555 1_555
C35 C30 1_555 1_555
C36 O25 1_555 1_555
C37 C36 1_555 1_555
C38 C37 1_555 1_555
C39 C38 1_555 1_555
C40 N6 1_555 1_555
C41 C40 1_555 1_555
C42 C37 1_555 1_555
H1 C3 1_555 1_555
H2 C4 1_555 1_555
H3 C6 1_555 1_555
H4 C7 1_555 1_555
H5 C10 1_555 1_555
H6 C11 1_555 1_555
H7 C13 1_555 1_555
H8 C14 1_555 1_555
H9 C17 1_555 1_555
H10 C18 1_555 1_555
H11 C20 1_555 1_555
H12 C21 1_555 1_555
H13 C24 1_555 1_555
H14 C25 1_555 1_555
H15 C27 1_555 1_555
H16 C28 1_555 1_555
H17 C31 1_555 1_555
H18 C32 1_555 1_555
H19 C34 1_555 1_555
H20 C35 1_555 1_555
H21 C38 1_555 1_555
H22 C39 1_555 1_555
H23 C41 1_555 1_555
H24 C42 1_555 1_555
O9_2 Tb2 1_555 1_555
O10_2 Tb2 1_555 1_555
O13_2 Tb2 1_555 1_555
O26_2 Tb2 1_555 1_555
Tb2_2 O9 1_555 1_555
O6 C1 1_555 1_555
O10 Tb2_2 1_555 1_555
O13 Tb2_2 1_555 1_555
O14 C15 1_555 1_555
O18 C22 1_555 1_555
O22 C29 1_555 1_555
O26 Tb2_2 1_555 1_555
C4 C5 1_555 1_555
C6 C7 1_555 1_555
C11 C12 1_555 1_555
C13 C14 1_555 1_555
C18 C19 1_555 1_555
C20 C21 1_555 1_555
C25 C26 1_555 1_555
C27 C28 1_555 1_555
C32 C33 1_555 1_555
C34 C35 1_555 1_555
C39 C40 1_555 1_555
C41 C42 1_555 1_555

#END
