
#######################################################################
#
#                 Cambridge Crystallographic Data Centre
#                                CCDC 
#
#######################################################################
#
# If this CIF has been generated from an entry in the Cambridge 
# Structural Database, then it will include bibliographic, chemical, 
# crystal, experimental, refinement or atomic coordinate data resulting 
# from the CCDC's data processing and validation procedures.
#
#######################################################################

data_LESWIQ
_symmetry_cell_setting           hexagonal
_symmetry_space_group_name_H-M   'P 61 2 2'
_symmetry_Int_Tables_number      178
_space_group_name_Hall           "P 61 2' (0,0,5)"
loop_
_symmetry_equiv_pos_site_id
_symmetry_equiv_pos_as_xyz
1 x,y,z
2 -y,x-y,1/3+z
3 -x+y,-x,2/3+z
4 -x,-y,1/2+z
5 y,-x+y,5/6+z
6 x-y,x,1/6+z
7 y,x,1/3-z
8 x-y,-y,-z
9 -x,-x+y,2/3-z
10 -y,-x,5/6-z
11 -x+y,y,1/2-z
12 x,x-y,1/6-z
_cell_length_a                   16.7576(7)
_cell_length_b                   16.7576(7)
_cell_length_c                   20.4912(12)
_cell_angle_alpha                90
_cell_angle_beta                 90
_cell_angle_gamma                120
_cell_volume                     4983.35
loop_
_atom_site_label
_atom_site_type_symbol
_atom_site_fract_x
_atom_site_fract_y
_atom_site_fract_z
Zn1 Zn 0.25627(5) 1.0000 1.0000
Zn2 Zn 0.93844(4) 1.32520(4) 0.98139(3)
C1 C 0.6937(3) 1.3604(3) 0.9986(2)
C2 C 0.6674(3) 1.4259(3) 1.0039(2)
H1 H 0.7120 1.4880 1.0062
C3 C 0.5743(3) 1.3998(3) 1.0057(2)
C4 C 0.5076(3) 1.3077(3) 1.0026(2)
H2 H 0.4455 1.2904 1.0030
C5 C 0.5337(3) 1.2400(3) 0.9988(2)
C6 C 0.6268(3) 1.2669(3) 0.9968(2)
H3 H 0.6446 1.2226 0.9943
C7 C 0.7935(3) 1.3868(4) 0.9931(2)
C8 C 0.5484(3) 1.4734(3) 1.0120(2)
C9 C 0.4626(3) 1.1406(3) 0.9963(2)
C10 C -0.2403(3) 0.8282(3) 1.0136(2)
C11 C -0.1507(4) 1.0000 1.0000
H4 H -0.2062 1.0000 1.0000
C12 C -0.1505(3) 0.9174(3) 1.0056(2)
C13 C -0.0678(3) 0.9172(3) 1.0055(2)
H5 H -0.0681 0.8618 1.0092
C14 C 0.0161(4) 1.0000 1.0000
C15 C 0.1059(4) 1.0000 1.0000
O1 O 0.8176(3) 1.3293(2) 0.9943(2)
O2 O 0.8475(2) 1.4732(2) 0.9838(2)
H6 H 0.9009 1.4860 0.9908
O3 O 0.6094(2) 1.5537(2) 1.0256(2)
O4 O 0.4646(2) 1.4489(3) 1.0023(2)
O5 O 0.3810(2) 1.1173(2) 0.98523(19)
O6 O 0.4921(2) 1.0843(2) 1.0046(2)
O7 O -0.3161(2) 0.8260(2) 1.00688(18)
O8 O -0.2390(2) 0.7554(2) 1.02640(18)
O9 O 0.1054(2) 0.9244(2) 1.00113(17)
O10 O 0.2684(2) 1.0225(2) 1.10226(17)
O11 O 0.9576(3) 1.3236(3) 1.08213(19)
O12 O 0.9182(3) 1.3223(3) 0.87767(18)
Zn2G Zn 0.61324(6) 0.67480(4) 1.01861(3)
Zn2G_2 Zn 0.61324(6) 1.67480(4) 1.01861(3)
Zn2G_3 Zn -0.38676(6) 0.67480(4) 1.01861(3)
Zn2_2 Zn -0.06156(4) 1.32520(4) 0.98139(3)
Zn2_3 Zn -0.06156(4) 0.32520(4) 0.98139(3)
C1G C 0.3333(4) 0.6396(3) 1.0014(2)
C2G C 0.2415(4) 0.5741(3) 0.9961(2)
H1G H 0.2240 0.5120 0.9938
C3G C 0.1745(4) 0.6002(3) 0.9943(2)
C4G C 0.1999(4) 0.6923(3) 0.9974(2)
H2G H 0.1551 0.7096 0.9970
C5G C 0.2937(4) 0.7600(3) 1.0012(2)
C6G C 0.3599(4) 0.7331(3) 1.0032(2)
H3G H 0.4220 0.7774 1.0057
C7G C 0.4067(5) 0.6132(4) 1.0069(2)
C8G C 0.0750(4) 0.5266(3) 0.9880(2)
C9G C 0.3220(4) 0.8594(3) 1.0037(2)
C10G C -0.0685(4) 1.1718(3) 0.9864(2)
C12G C -0.0679(4) 1.0826(3) 0.9944(2)
C13G C 0.0150(4) 1.0828(3) 0.9945(2)
H5G H 0.0701 1.1382 0.9908
O1G O 0.4883(4) 0.6707(2) 1.0057(2)
O2G O 0.3743(3) 0.5268(2) 1.0162(2)
H6G H 0.4149 0.5140 1.0092
O3G O 0.0557(3) 0.4463(2) 0.9744(2)
O3G_2 O 1.0557(3) 1.4463(2) 0.9744(2)
O3_2 O 0.6094(2) 0.5537(2) 1.0256(2)
O4G O 0.0157(4) 0.5511(3) 0.9977(2)
O5G O 0.2637(3) 0.8827(2) 1.01477(19)
O6G O 0.4078(3) 0.9157(2) 0.9954(2)
O7G O -0.1421(3) 1.1740(2) 0.99312(18)
O7G_2 O 0.8579(3) 1.1740(2) 0.99312(18)
O7_2 O 0.6839(2) 0.8260(2) 1.00688(18)
O8G O 0.0056(3) 1.2446(2) 0.97360(18)
O8G_2 O 1.0056(3) 1.2446(2) 0.97360(18)
O8_2 O 0.7610(2) 0.7554(2) 1.02640(18)
O9G O 0.1810(3) 1.0756(2) 0.99887(17)
O10G O 0.2459(3) 0.9775(2) 0.89774(17)
O11G O 0.6340(4) 0.6764(3) 0.91787(19)
O12G O 0.5959(4) 0.6777(3) 1.12233(18)
O13 O 0.1869(3) 0.8488(3) 1.1571(2)
loop_
_geom_bond_atom_site_label_1
_geom_bond_atom_site_label_2
_geom_bond_site_symmetry_1
_geom_bond_site_symmetry_2
Zn1 O5 1_555 1_555
Zn2 O1 1_555 1_555
C1 C2 1_555 1_555
C2 H1 1_555 1_555
C3 C2 1_555 1_555
C4 C3 1_555 1_555
H2 C4 1_555 1_555
C5 C4 1_555 1_555
C6 C1 1_555 1_555
H3 C6 1_555 1_555
C7 C1 1_555 1_555
C8 C3 1_555 1_555
C9 C5 1_555 1_555
C10 C12 1_555 1_555
C11 H4 1_555 1_555
C12 C11 1_555 1_555
C13 C12 1_555 1_555
H5 C13 1_555 1_555
C14 C13 1_555 1_555
C15 C14 1_555 1_555
O1 C7 1_555 1_555
O2 C7 1_555 1_555
H6 O2 1_555 1_555
O3 C8 1_555 1_555
O4 C8 1_555 1_555
O5 C9 1_555 1_555
O6 C9 1_555 1_555
O7 C10 1_555 1_555
O8 C10 1_555 1_555
O9 Zn1 1_555 1_555
O10 Zn1 1_555 1_555
O11 Zn2 1_555 1_555
O12 Zn2 1_555 1_555
Zn2G O1G 1_555 1_555
Zn2G_2 O3 1_555 1_555
Zn2G_3 O7 1_555 1_555
Zn2_2 O7G 1_555 1_555
Zn2_3 O3G 1_555 1_555
C1G C2G 1_555 1_555
C2G H1G 1_555 1_555
C3G C2G 1_555 1_555
C4G C3G 1_555 1_555
H2G C4G 1_555 1_555
C5G C4G 1_555 1_555
C6G C1G 1_555 1_555
H3G C6G 1_555 1_555
C7G C1G 1_555 1_555
C8G C3G 1_555 1_555
C9G C5G 1_555 1_555
C10G C12G 1_555 1_555
C12G C11 1_555 1_555
C13G C14 1_555 1_555
H5G C13G 1_555 1_555
O1G C7G 1_555 1_555
O2G C7G 1_555 1_555
H6G O2G 1_555 1_555
O3G C8G 1_555 1_555
O3G_2 Zn2 1_555 1_555
O3_2 Zn2G 1_555 1_555
O4G C8G 1_555 1_555
O5G Zn1 1_555 1_555
O6G C9G 1_555 1_555
O7G C10G 1_555 1_555
O7G_2 Zn2 1_555 1_555
O7_2 Zn2G 1_555 1_555
O8G Zn2_2 1_555 1_555
O8G_2 Zn2 1_555 1_555
O8_2 Zn2G 1_555 1_555
O9G Zn1 1_555 1_555
O10G Zn1 1_555 1_555
O11G Zn2G 1_555 1_555
O12G Zn2G 1_555 1_555
C5 C6 1_555 1_555
C15 O9 1_555 1_555
C15 O9G 1_555 1_555
O8 Zn2G_3 1_555 1_555
C5G C6G 1_555 1_555
C9G O5G 1_555 1_555
C10G O8G 1_555 1_555
C12G C13G 1_555 1_555

#END
