
#######################################################################
#
#                 Cambridge Crystallographic Data Centre
#                                CCDC 
#
#######################################################################
#
# If this CIF has been generated from an entry in the Cambridge 
# Structural Database, then it will include bibliographic, chemical, 
# crystal, experimental, refinement or atomic coordinate data resulting 
# from the CCDC's data processing and validation procedures.
#
#######################################################################

data_LETDIY
_symmetry_cell_setting           monoclinic
_symmetry_space_group_name_H-M   'C 2/c'
_symmetry_Int_Tables_number      15
_space_group_name_Hall           '-C 2yn'
loop_
_symmetry_equiv_pos_site_id
_symmetry_equiv_pos_as_xyz
1 x,y,z
2 1/2+x,1/2+y,z
3 -x,y,1/2-z
4 1/2-x,1/2+y,1/2-z
5 -x,-y,-z
6 1/2-x,1/2-y,-z
7 x,-y,1/2+z
8 1/2+x,1/2-y,1/2+z
_cell_length_a                   9.5004(13)
_cell_length_b                   12.6315(18)
_cell_length_c                   6.9678(10)
_cell_angle_alpha                90
_cell_angle_beta                 131.617(2)
_cell_angle_gamma                90
_cell_volume                     625.119
loop_
_atom_site_label
_atom_site_type_symbol
_atom_site_fract_x
_atom_site_fract_y
_atom_site_fract_z
Br1 Br 0.24177(4) 0.42478(2) 0.55448(5)
Cu1 Cu 0.5000 0.5000 1.0000
Cu2 Cu 0.0000 0.55079(4) 0.2500
N1 N 0.5015(3) 0.62927(18) 0.8496(4)
N2 N 0.5000 0.7958(2) 0.7500
C1 C 0.5025(4) 0.7295(2) 0.9038(5)
H1 H 0.5048 0.7523 1.0358
Br1D Br 0.75823(4) 0.57522(2) 1.44552(5)
Br1B Br -0.24177(4) 0.42478(2) -0.05448(5)
Cu1F Cu 0.5000 0.5000 0.5000
Cu2G Cu 0.5000 0.94921(4) 0.7500
Cu2F Cu 1.0000 0.44921(4) 1.7500
N1B N 0.4985(3) 0.62927(18) 0.6504(4)
N1D N 0.4985(3) 0.37073(18) 1.1504(4)
N2G N 0.0000 0.7042(2) 0.2500
C1B C 0.4975(4) 0.7295(2) 0.5962(5)
H1B H 0.4952 0.7523 0.4642
loop_
_geom_bond_atom_site_label_1
_geom_bond_atom_site_label_2
_geom_bond_site_symmetry_1
_geom_bond_site_symmetry_2
Br1 Cu1 1_555 1_555
Cu1 N1 1_555 1_555
Cu2 Br1 1_555 1_555
N1 C1 1_555 1_555
N2 C1 1_555 1_555
C1 H1 1_555 1_555
Br1D Cu1 1_555 1_555
Br1B Cu2 1_555 1_555
Cu1F N1B 1_555 1_555
Cu2G N2 1_555 1_555
Cu2F Br1D 1_555 1_555
N1B N1 1_555 1_555
N1D Cu1 1_555 1_555
N2G Cu2 1_555 1_555
C1B N2 1_555 1_555
H1B C1B 1_555 1_555
N1B C1B 1_555 1_555

#END
