
#######################################################################
#
#                 Cambridge Crystallographic Data Centre
#                                CCDC 
#
#######################################################################
#
# If this CIF has been generated from an entry in the Cambridge 
# Structural Database, then it will include bibliographic, chemical, 
# crystal, experimental, refinement or atomic coordinate data resulting 
# from the CCDC's data processing and validation procedures.
#
#######################################################################

data_LETFIB
_symmetry_cell_setting           monoclinic
_symmetry_space_group_name_H-M   'P 21/c'
_symmetry_Int_Tables_number      14
_space_group_name_Hall           '-P 2ybc'
loop_
_symmetry_equiv_pos_site_id
_symmetry_equiv_pos_as_xyz
1 x,y,z
2 -x,1/2+y,1/2-z
3 -x,-y,-z
4 x,1/2-y,1/2+z
_cell_length_a                   10.9501(7)
_cell_length_b                   17.4746(11)
_cell_length_c                   13.2811(8)
_cell_angle_alpha                90
_cell_angle_beta                 101.4440(10)
_cell_angle_gamma                90
_cell_volume                     2490.8
loop_
_atom_site_label
_atom_site_type_symbol
_atom_site_fract_x
_atom_site_fract_y
_atom_site_fract_z
Sm1 Sm 0.17164(2) 0.042905(12) 0.589098(16)
Sm2 Sm 0.34221(2) -0.256360(12) 0.405140(16)
C1 C 0.2915(4) 0.0440(2) 0.8396(4)
C2 C 0.1921(4) 0.1043(3) 0.8360(3)
C3 C 0.1637(5) 0.1384(3) 0.9222(4)
H1 H 0.2103 0.1276 0.9871
C4 C 0.0644(5) 0.1892(3) 0.9104(4)
H2 H 0.0442 0.2132 0.9674
C5 C -0.0039(5) 0.2035(3) 0.8138(4)
H3 H -0.0719 0.2364 0.8043
C6 C 0.0312(4) 0.1679(2) 0.7309(3)
C7 C -0.0355(4) 0.1775(2) 0.6213(4)
C8 C 0.0559(4) 0.0414(3) 0.3275(3)
C9 C 0.1520(4) 0.1042(2) 0.3362(3)
C10 C 0.1785(5) 0.1415(3) 0.2509(4)
H4 H 0.1339 0.1305 0.1853
C11 C 0.2722(5) 0.1950(3) 0.2657(4)
H5 H 0.2930 0.2204 0.2098
C12 C 0.3351(5) 0.2108(3) 0.3639(4)
H6 H 0.3996 0.2464 0.3754
C13 C 0.3003(4) 0.1727(3) 0.4451(3)
C14 C 0.3612(4) 0.1859(2) 0.5566(4)
C15 C 0.3344(4) -0.2052(3) 0.1637(3)
C16 C 0.3566(4) -0.1283(3) 0.2147(3)
C17 C 0.3759(5) -0.0618(3) 0.1630(4)
H7 H 0.3727 -0.0621 0.0925
C18 C 0.3999(5) 0.0050(3) 0.2193(4)
H8 H 0.4176 0.0499 0.1876
C19 C 0.3973(4) 0.0045(3) 0.3229(4)
H9 H 0.4116 0.0491 0.3617
C20 C 0.3730(4) -0.0633(2) 0.3671(3)
C21 C 0.3626(4) -0.0716(3) 0.4778(3)
N1 N 0.1269(3) 0.11931(19) 0.7424(3)
N2 N 0.2103(3) 0.12035(19) 0.4319(3)
N3 N 0.3547(3) -0.1291(2) 0.3150(3)
O1 O 0.3603(3) 0.0294(2) 0.9242(2)
O2 O 0.2949(3) 0.01084(17) 0.7556(2)
O3 O 0.0153(3) 0.14959(17) 0.5526(2)
O4 O -0.1375(3) 0.2122(2) 0.6044(3)
O5 O -0.0070(4) 0.0258(2) 0.2431(3)
O6 O 0.0449(3) 0.00914(16) 0.4127(2)
O7 O 0.3238(3) 0.14706(17) 0.6224(2)
O8 O 0.4443(3) 0.23725(17) 0.5741(2)
O9 O 0.3277(4) -0.20687(19) 0.0688(2)
O10 O 0.3260(3) -0.26138(17) 0.2202(2)
O11 O 0.3710(3) -0.13813(17) 0.5142(2)
O12 O 0.3450(3) -0.01189(16) 0.5259(2)
O13 O 0.1682(3) -0.10163(17) 0.6104(2)
H10 H 0.2368 -0.1188 0.5990
H11 H 0.1139 -0.1169 0.5595
O14 O 0.4562(3) -0.38160(17) 0.4245(2)
H12 H 0.4210 -0.4251 0.4155
H13 H 0.5278 -0.3909 0.4606
O15 O 0.2018(3) -0.3617(2) 0.3376(3)
H14 H 0.1977 -0.3853 0.2811
H15 H 0.1479 -0.3836 0.3658
Sm1B Sm -0.17164(2) -0.042905(12) 0.410902(16)
Sm2B Sm -0.34221(2) 0.256360(12) 0.594860(16)
Sm2B_2 Sm 0.65779(2) 0.256360(12) 0.594860(16)
Sm2C Sm 0.34221(2) -0.243640(12) -0.094860(16)
O4B O 0.1375(3) -0.2122(2) 0.3956(3)
O6B O -0.0449(3) -0.00914(16) 0.5873(2)
O8B O 0.5557(3) -0.23725(17) 0.4259(2)
O9C O 0.3277(4) -0.29313(19) 0.5688(2)
O16 O 0.9270(16) 0.0571(9) 0.0301(12)
H16 H 0.9347 0.0179 -0.0060
H17 H 1.0013 0.0690 0.0581
loop_
_geom_bond_atom_site_label_1
_geom_bond_atom_site_label_2
_geom_bond_site_symmetry_1
_geom_bond_site_symmetry_2
Sm1 N1 1_555 1_555
Sm2 N3 1_555 1_555
C1 C2 1_555 1_555
C2 C3 1_555 1_555
C3 H1 1_555 1_555
C4 C3 1_555 1_555
H2 C4 1_555 1_555
C5 C4 1_555 1_555
H3 C5 1_555 1_555
C6 C5 1_555 1_555
C7 C6 1_555 1_555
C8 C9 1_555 1_555
C9 C10 1_555 1_555
C10 H4 1_555 1_555
C11 C10 1_555 1_555
H5 C11 1_555 1_555
C12 C11 1_555 1_555
H6 C12 1_555 1_555
C13 C12 1_555 1_555
C14 C13 1_555 1_555
C15 C16 1_555 1_555
C16 C17 1_555 1_555
C17 H7 1_555 1_555
C18 C17 1_555 1_555
H8 C18 1_555 1_555
C19 C18 1_555 1_555
H9 C19 1_555 1_555
C20 C19 1_555 1_555
C21 C20 1_555 1_555
N1 C2 1_555 1_555
N2 Sm1 1_555 1_555
N3 C16 1_555 1_555
O1 C1 1_555 1_555
O2 Sm1 1_555 1_555
O3 Sm1 1_555 1_555
O4 C7 1_555 1_555
O5 C8 1_555 1_555
O6 Sm1 1_555 1_555
O7 Sm1 1_555 1_555
O8 C14 1_555 1_555
O9 C15 1_555 1_555
O10 Sm2 1_555 1_555
O11 Sm2 1_555 1_555
O12 Sm1 1_555 1_555
O13 Sm1 1_555 1_555
H10 O13 1_555 1_555
H11 O13 1_555 1_555
O14 Sm2 1_555 1_555
H12 O14 1_555 1_555
H13 O14 1_555 1_555
O15 Sm2 1_555 1_555
H14 O15 1_555 1_555
H15 O15 1_555 1_555
O16 H16 1_555 1_555
H17 O16 1_555 1_555
Sm1B O6 1_555 1_555
Sm2B O4 1_555 1_555
Sm2B_2 O8 1_555 1_555
Sm2C O9 1_555 1_555
O4B Sm2 1_555 1_555
O6B Sm1 1_555 1_555
O8B Sm2 1_555 1_555
O9C Sm2 1_555 1_555
C1 O2 1_555 1_555
C6 N1 1_555 1_555
C7 O3 1_555 1_555
C8 O6 1_555 1_555
C9 N2 1_555 1_555
C13 N2 1_555 1_555
C14 O7 1_555 1_555
C15 O10 1_555 1_555
C20 N3 1_555 1_555
C21 O11 1_555 1_555
C21 O12 1_555 1_555
Sm1B O6B 1_555 1_555

#END
