
#######################################################################
#
#                 Cambridge Crystallographic Data Centre
#                                CCDC 
#
#######################################################################
#
# If this CIF has been generated from an entry in the Cambridge 
# Structural Database, then it will include bibliographic, chemical, 
# crystal, experimental, refinement or atomic coordinate data resulting 
# from the CCDC's data processing and validation procedures.
#
#######################################################################

data_LETFIA
_symmetry_cell_setting           orthorhombic
_symmetry_space_group_name_H-M   'P m n 21'
_symmetry_Int_Tables_number      31
_space_group_name_Hall           'P 2ac -2'
loop_
_symmetry_equiv_pos_site_id
_symmetry_equiv_pos_as_xyz
1 x,y,z
2 1/2-x,-y,1/2+z
3 1/2+x,-y,1/2+z
4 -x,y,z
_cell_length_a                   8.9307(6)
_cell_length_b                   12.8226(9)
_cell_length_c                   7.9821(6)
_cell_angle_alpha                90
_cell_angle_beta                 90
_cell_angle_gamma                90
_cell_volume                     914.069
loop_
_atom_site_label
_atom_site_type_symbol
_atom_site_fract_x
_atom_site_fract_y
_atom_site_fract_z
Cu1 Cu 0.0000 0.01547(4) 1.00222(6)
Cu2 Cu 0.0000 0.50764(4) 0.59137(7)
Cu3 Cu 0.0000 0.25217(4) 0.77156(8)
O1 O 0.0000 0.1815(3) 1.0961(5)
O2 O 0.0000 0.3071(3) 0.4881(5)
O3 O 0.0000 0.6782(3) 0.7188(5)
N1 N 0.1550(3) 0.0494(2) 0.8312(4)
N2 N 0.1574(3) 0.1429(2) 0.7478(4)
N3 N 0.1572(3) 0.3575(2) 0.8159(4)
N4 N 0.1548(3) 0.4560(2) 0.7501(4)
N5 N 0.3405(3) 0.4479(2) 0.9321(4)
N6 N 0.3400(3) 0.0442(2) 0.6475(4)
C1 C 0.2668(6) 0.5075(3) 0.8218(6)
H1 H 0.2915 0.5780 0.7978
C2 C 0.2699(4) 0.3551(3) 0.9239(4)
H2 H 0.2974 0.2955 0.9875
C3 C 0.2640(6) -0.0074(3) 0.7677(6)
H3 H 0.2864 -0.0765 0.8025
C4 C 0.2702(4) 0.1373(2) 0.6408(4)
H4 H 0.2986 0.1924 0.5679
Cu1A Cu 0.5000 -0.01547(4) 0.50222(6)
Cu1A_2 Cu -0.5000 -0.01547(4) 0.50222(6)
Cu2A Cu 0.5000 0.49236(4) 1.09137(7)
Cu2A_2 Cu -0.5000 0.49236(4) 1.09137(7)
N1C N -0.1550(3) 0.0494(2) 0.8312(4)
N2C N -0.1574(3) 0.1429(2) 0.7478(4)
N3C N -0.1572(3) 0.3575(2) 0.8159(4)
N4C N -0.1548(3) 0.4560(2) 0.7501(4)
N5C N -0.3405(3) 0.4479(2) 0.9321(4)
N5A N 0.1595(3) 0.5521(2) 0.4321(4)
N5B N -0.1595(3) 0.5521(2) 0.4321(4)
N6C N -0.3400(3) 0.0442(2) 0.6475(4)
N6A N 0.1600(3) -0.0442(2) 1.1475(4)
N6B N -0.1600(3) -0.0442(2) 1.1475(4)
C1C C -0.2668(6) 0.5075(3) 0.8218(6)
H1C H -0.2915 0.5780 0.7978
C2C C -0.2699(4) 0.3551(3) 0.9239(4)
H2C H -0.2974 0.2955 0.9875
C3C C -0.2640(6) -0.0074(3) 0.7677(6)
H3C H -0.2864 -0.0765 0.8025
C4C C -0.2702(4) 0.1373(2) 0.6408(4)
H4C H -0.2986 0.1924 0.5679
F1 F 0.2783(2) 0.75253(15) 0.7884(3)
loop_
_geom_bond_atom_site_label_1
_geom_bond_atom_site_label_2
_geom_bond_site_symmetry_1
_geom_bond_site_symmetry_2
Cu1 O1 1_555 1_555
Cu2 O3 1_555 1_555
Cu3 O2 1_555 1_555
N1 Cu1 1_555 1_555
N2 Cu3 1_555 1_555
N3 Cu3 1_555 1_555
N4 Cu2 1_555 1_555
N5 C1 1_555 1_555
N6 C3 1_555 1_555
C1 N4 1_555 1_555
H1 C1 1_555 1_555
C2 N3 1_555 1_555
H2 C2 1_555 1_555
C3 N1 1_555 1_555
H3 C3 1_555 1_555
C4 N2 1_555 1_555
H4 C4 1_555 1_555
Cu1A N6 1_555 1_555
Cu1A_2 N6C 1_555 1_555
Cu2A N5 1_555 1_555
Cu2A_2 N5C 1_555 1_555
N1C Cu1 1_555 1_555
N2C Cu3 1_555 1_555
N3C Cu3 1_555 1_555
N4C Cu2 1_555 1_555
N5C C1C 1_555 1_555
N5A Cu2 1_555 1_555
N5B Cu2 1_555 1_555
N6C C3C 1_555 1_555
N6A Cu1 1_555 1_555
N6B Cu1 1_555 1_555
C1C N4C 1_555 1_555
H1C C1C 1_555 1_555
C2C N3C 1_555 1_555
H2C C2C 1_555 1_555
C3C N1C 1_555 1_555
H3C C3C 1_555 1_555
C4C N2C 1_555 1_555
H4C C4C 1_555 1_555
N1 N2 1_555 1_555
N3 N4 1_555 1_555
N5 C2 1_555 1_555
N6 C4 1_555 1_555
N1C N2C 1_555 1_555
N3C N4C 1_555 1_555
N5C C2C 1_555 1_555
N6C C4C 1_555 1_555

#END
