
#######################################################################
#
#                 Cambridge Crystallographic Data Centre
#                                CCDC 
#
#######################################################################
#
# If this CIF has been generated from an entry in the Cambridge 
# Structural Database, then it will include bibliographic, chemical, 
# crystal, experimental, refinement or atomic coordinate data resulting 
# from the CCDC's data processing and validation procedures.
#
#######################################################################

data_LETKUR
_symmetry_cell_setting           monoclinic
_symmetry_space_group_name_H-M   'P 21/n'
_symmetry_Int_Tables_number      14
_space_group_name_Hall           '-P 2yn'
loop_
_symmetry_equiv_pos_site_id
_symmetry_equiv_pos_as_xyz
1 x,y,z
2 1/2-x,1/2+y,1/2-z
3 -x,-y,-z
4 1/2+x,1/2-y,1/2+z
_cell_length_a                   6.87280(10)
_cell_length_b                   14.9500(2)
_cell_length_c                   10.4520(2)
_cell_angle_alpha                90
_cell_angle_beta                 104.7520(10)
_cell_angle_gamma                90
_cell_volume                     1038.53
loop_
_atom_site_label
_atom_site_type_symbol
_atom_site_fract_x
_atom_site_fract_y
_atom_site_fract_z
Cu1 Cu 0.22648(4) -0.048524(17) 0.94512(2)
Cl1 Cl 0.22823(9) -0.19970(4) 0.95029(5)
Cl2 Cl 0.17695(8) -0.03046(4) 1.14741(5)
O1 O 0.3432(2) 0.07399(11) 0.94877(14)
N1 N 0.2366(3) -0.03891(11) 0.75648(17)
C1 C 0.2854(3) 0.04188(14) 0.7193(2)
C2 C 0.2591(4) -0.00965(18) 0.4996(2)
H1 H 0.2682 0.0001 0.4135
C3 C 0.1964(4) -0.10511(16) 0.6660(2)
H2 H 0.1615 -0.1612 0.6916
C4 C 0.3197(3) 0.11427(14) 0.8215(2)
H3 H 0.4396 0.1479 0.8197
H4 H 0.2062 0.1551 0.8033
C5 C 0.2052(4) -0.09265(18) 0.5370(2)
H5 H 0.1753 -0.1393 0.4762
C7 C 0.2997(4) 0.05889(16) 0.5915(2)
H9 H 0.3359 0.1153 0.5681
H11 H 0.312(5) 0.107(2) 0.985(3)
Cu1B Cu -0.22648(4) 0.048524(17) 1.05488(2)
Cu1B_2 Cu 0.77352(4) 0.048524(17) 1.05488(2)
Cl2B Cl -0.17695(8) 0.03046(4) 0.85259(5)
O1B O 0.6568(2) -0.07399(11) 1.05123(14)
H11B H 0.688(5) -0.107(2) 1.015(3)
O2 O 0.7692(3) -0.20203(11) 0.92033(17)
C6 C 0.6895(4) -0.21152(19) 0.7806(3)
H6 H 0.5451 -0.2112 0.7600
H7 H 0.7347 -0.2670 0.7520
H8 H 0.7350 -0.1627 0.7359
H10 H 0.881(4) -0.2040(19) 0.935(3)
loop_
_geom_bond_atom_site_label_1
_geom_bond_atom_site_label_2
_geom_bond_site_symmetry_1
_geom_bond_site_symmetry_2
Cu1 Cl1 1_555 1_555
Cl2 Cu1 1_555 1_555
O1 Cu1 1_555 1_555
O2 C6 1_555 1_555
N1 Cu1 1_555 1_555
C1 N1 1_555 1_555
C2 H1 1_555 1_555
C3 N1 1_555 1_555
H2 C3 1_555 1_555
C4 O1 1_555 1_555
H3 C4 1_555 1_555
H4 C4 1_555 1_555
C5 C2 1_555 1_555
H5 C5 1_555 1_555
C6 H6 1_555 1_555
H7 C6 1_555 1_555
H8 C6 1_555 1_555
C7 C1 1_555 1_555
H9 C7 1_555 1_555
H10 O2 1_555 1_555
H11 O1 1_555 1_555
Cu1B Cl2 1_555 1_555
Cu1B_2 O1 1_555 1_555
Cl2B Cu1 1_555 1_555
O1B Cu1 1_555 1_555
H11B O1B 1_555 1_555
C1 C4 1_555 1_555
C2 C7 1_555 1_555
C3 C5 1_555 1_555
Cu1B Cl2B 1_555 1_555
Cu1B_2 O1B 1_555 1_555

#END
