
#######################################################################
#
#                 Cambridge Crystallographic Data Centre
#                                CCDC 
#
#######################################################################
#
# If this CIF has been generated from an entry in the Cambridge 
# Structural Database, then it will include bibliographic, chemical, 
# crystal, experimental, refinement or atomic coordinate data resulting 
# from the CCDC's data processing and validation procedures.
#
#######################################################################

data_LETKEA
_symmetry_cell_setting           monoclinic
_symmetry_space_group_name_H-M   'C 2/c'
_symmetry_Int_Tables_number      15
_space_group_name_Hall           '-C 2yn'
loop_
_symmetry_equiv_pos_site_id
_symmetry_equiv_pos_as_xyz
1 x,y,z
2 1/2+x,1/2+y,z
3 -x,y,1/2-z
4 1/2-x,1/2+y,1/2-z
5 -x,-y,-z
6 1/2-x,1/2-y,-z
7 x,-y,1/2+z
8 1/2+x,1/2-y,1/2+z
_cell_length_a                   17.380(1)
_cell_length_b                   12.693(5)
_cell_length_c                   15.196(6)
_cell_angle_alpha                90
_cell_angle_beta                 100.47(6)
_cell_angle_gamma                90
_cell_volume                     3296.49
loop_
_atom_site_label
_atom_site_type_symbol
_atom_site_fract_x
_atom_site_fract_y
_atom_site_fract_z
Fe1 Fe -0.1914(2) 0.3649(3) 0.2676(3)
Na1 Na -0.5000 0.2289(1) 0.2500
Na2 Na -0.5000 0.4966(1) 0.2500
Na3 Na -0.3783(1) 0.3686(1) 0.5166(1)
Na4 Na -0.54260(8) -0.1123(1) 0.4998(1)
O1 O -0.33560(2) 0.1936(2) 0.4838(2)
O2 O -0.5032(2) 0.2957(2) 0.5039(2)
O3 O -0.5837(2) -0.0650(2) 0.0363(2)
O4 O -0.2952(3) 0.5003(4) 0.5264(2)
O5 O -0.2680(1) 0.3958(2) 0.3482(1)
O6 O -0.2921(1) 0.3275(2) 0.1839(1)
O7 O -0.3960(1) 0.3912(2) 0.3515(2)
O8 O -0.4219(1) 0.3393(2) 0.1730(2)
O9 O -0.6030(1) -0.0586(2) 0.3466(1)
O10 O -0.6938(1) 0.0018(2) 0.2008(1)
O11 O -0.5316(1) 0.0889(2) 0.3513(1)
O12 O -0.6289(1) 0.1515(2) 0.1958(2)
O13 O -0.1637(1) 0.2278(2) 0.3291(1)
O14 O -0.1291(1) 0.3002(2) 0.1819(1)
O15 O -0.1028(1) 0.0764(2) 0.3170(2)
O16 O -0.0674(2) 0.1511(2) 0.1573(2)
C1 C -0.3405(2) 0.3815(2) 0.3136(2)
C2 C -0.3545(2) 0.3470(2) 0.2141(2)
C3 C -0.5856(2) 0.0316(2) 0.3172(2)
C4 C -0.6404(2) 0.0671(2) 0.2300(2)
C5 C -0.1246(2) 0.1635(2) 0.2897(2)
C6 C -0.1044(2) 0.2062(2) 0.2010(2)
O5B O -0.7320(1) 0.3958(2) 0.1518(1)
O6B O -0.7079(1) 0.3275(2) 0.3161(1)
O7B O -0.6040(1) 0.3912(2) 0.1485(2)
O8B O -0.5781(1) 0.3393(2) 0.3270(2)
C1B C -0.6595(2) 0.3815(2) 0.1864(2)
C2B C -0.6455(2) 0.3470(2) 0.2859(2)
O9B O -0.3970(1) -0.0586(2) 0.1534(1)
O10B O -0.3062(1) 0.0018(2) 0.2992(1)
O11B O -0.4684(1) 0.0889(2) 0.1487(1)
O12B O -0.3711(1) 0.1515(2) 0.3042(2)
C3B C -0.4144(2) 0.0316(2) 0.1828(2)
C4B C -0.3596(2) 0.0671(2) 0.2700(2)
Fe1B Fe -0.8086(2) 0.3649(3) 0.2324(3)
Na3B Na -0.6217(1) 0.3686(1) -0.0166(1)
Na4B Na -0.45740(8) -0.1123(1) 0.0002(1)
O13A O -0.6637(1) 0.7278(2) 0.3291(1)
O14A O -0.6291(1) 0.8002(2) 0.1819(1)
O15A O -0.6028(1) 0.5764(2) 0.3170(2)
O16A O -0.5674(2) 0.6511(2) 0.1573(2)
C5A C -0.6246(2) 0.6635(2) 0.2897(2)
C6A C -0.6044(2) 0.7062(2) 0.2010(2)
O1D O -0.66440(2) -0.1936(2) 0.5162(2)
O2D O -0.4968(2) -0.2957(2) 0.4961(2)
O3F O -0.5837(2) 0.0650(2) 0.5363(2)
O4B O -0.7048(3) 0.5003(4) -0.0264(2)
O9A O -0.1030(1) 0.4414(2) 0.3466(1)
O10A O -0.1938(1) 0.5018(2) 0.2008(1)
O15C O -0.3972(1) 0.5764(2) 0.1830(2)
O16C O -0.4326(2) 0.6511(2) 0.3427(2)
O13E O -0.3363(1) 0.2722(2) 0.6709(1)
O15E O -0.3972(1) 0.4236(2) 0.6830(2)
Na4D Na -0.45740(8) 0.1123(1) 0.5002(1)
O11D O -0.4684(1) -0.0889(2) 0.6487(1)
Fe1A Fe -0.6914(2) -0.1351(3) 0.2676(3)
Na3E Na -0.1217(1) 0.1314(1) 0.4834(1)
Na2A Na 0.0000 -0.0034(1) 0.2500
Fe1C Fe -0.3086(2) -0.1351(3) 0.2324(3)
Na4F Na -0.54260(8) 0.1123(1) -0.0002(1)
O9C O -0.8970(1) 0.4414(2) 0.1534(1)
O10C O -0.8062(1) 0.5018(2) 0.2992(1)
O13B O -0.8363(1) 0.2278(2) 0.1709(1)
O14B O -0.8709(1) 0.3002(2) 0.3181(1)
O1B O -0.66440(2) 0.1936(2) 0.0162(2)
O2B O -0.4968(2) 0.2957(2) -0.0039(2)
O13G O -0.6637(1) 0.2722(2) -0.1709(1)
O15G O -0.6028(1) 0.4236(2) -0.1830(2)
O1F O -0.33560(2) -0.1936(2) -0.0162(2)
O2F O -0.5032(2) -0.2957(2) 0.0039(2)
O3B O -0.4163(2) -0.0650(2) 0.4637(2)
O3D O -0.4163(2) 0.0650(2) -0.0363(2)
O11F O -0.5316(1) -0.0889(2) -0.1487(1)
Fe1A_2 Fe -0.6914(2) 0.8649(3) 0.2676(3)
Na3D Na -0.6217(1) 0.6314(1) 0.4834(1)
Na3D_2 Na -0.6217(1) -0.3686(1) 0.4834(1)
O17 O -0.2144(3) 0.6517(6) 0.4265(6)
loop_
_geom_bond_atom_site_label_1
_geom_bond_atom_site_label_2
_geom_bond_site_symmetry_1
_geom_bond_site_symmetry_2
Fe1 O5 1_555 1_555
Na1 O8 1_555 1_555
Na2 O7 1_555 1_555
Na3 O1 1_555 1_555
Na4 O9 1_555 1_555
O1 Na4D 1_555 1_555
O2 Na3 1_555 1_555
O3 Na4B 1_555 1_555
O4 Na3 1_555 1_555
O5 C1 1_555 1_555
O6 Fe1 1_555 1_555
O7 Na3 1_555 1_555
O8 C2 1_555 1_555
O9 C3 1_555 1_555
O10 C4 1_555 1_555
O11 Na1 1_555 1_555
O12 Na1 1_555 1_555
O13 Fe1 1_555 1_555
O14 Fe1 1_555 1_555
O15 C5 1_555 1_555
O16 C6 1_555 1_555
C1 O7 1_555 1_555
C2 O6 1_555 1_555
C3 O11 1_555 1_555
C4 O12 1_555 1_555
C5 O13 1_555 1_555
C6 O14 1_555 1_555
O5B C1B 1_555 1_555
O6B C2B 1_555 1_555
O7B Na2 1_555 1_555
O8B Na1 1_555 1_555
C1B O7B 1_555 1_555
C2B O8B 1_555 1_555
O9B C3B 1_555 1_555
O10B C4B 1_555 1_555
O11B Na1 1_555 1_555
O12B Na1 1_555 1_555
C3B O11B 1_555 1_555
C4B O12B 1_555 1_555
Fe1B O5B 1_555 1_555
Na3B O7B 1_555 1_555
Na4B O9B 1_555 1_555
O13A C5A 1_555 1_555
O14A C6A 1_555 1_555
O15A Na2 1_555 1_555
O16A Na2 1_555 1_555
C5A O15A 1_555 1_555
C6A O16A 1_555 1_555
O1D Na4 1_555 1_555
O2D Na4 1_555 1_555
O3F Na4 1_555 1_555
O4B Na3B 1_555 1_555
O9A Fe1 1_555 1_555
O10A Fe1 1_555 1_555
O15C Na2 1_555 1_555
O16C Na2 1_555 1_555
O13E Na3 1_555 1_555
O15E Na3 1_555 1_555
Na4D O2 1_555 1_555
O11D Na4 1_555 1_555
Fe1A O9 1_555 1_555
Na3E O13 1_555 1_555
Na2A O15 1_555 1_555
Fe1C O9B 1_555 1_555
Na4F O3 1_555 1_555
O9C Fe1B 1_555 1_555
O10C Fe1B 1_555 1_555
O13B Fe1B 1_555 1_555
O14B Fe1B 1_555 1_555
O1B Na3B 1_555 1_555
O2B Na3B 1_555 1_555
O13G Na3B 1_555 1_555
O15G Na3B 1_555 1_555
O1F Na4B 1_555 1_555
O2F Na4B 1_555 1_555
O3B Na4 1_555 1_555
O3D Na4B 1_555 1_555
O11F Na4B 1_555 1_555
Fe1A_2 O13A 1_555 1_555
Na3D O13A 1_555 1_555
Na3D_2 O1D 1_555 1_555
O10 Fe1A 1_555 1_555
O11 Na4D 1_555 1_555
O15 Na3E 1_555 1_555
O16 Na2A 1_555 1_555
C1 C2 1_555 1_555
C3 C4 1_555 1_555
C5 C6 1_555 1_555
O6B Fe1B 1_555 1_555
C1B C2B 1_555 1_555
O10B Fe1C 1_555 1_555
O11B Na4F 1_555 1_555
C3B C4B 1_555 1_555
O14A Fe1A_2 1_555 1_555
O15A Na3D 1_555 1_555
C5A C6A 1_555 1_555
O2D Na3D_2 1_555 1_555
O3F Na4D 1_555 1_555
Na4D O3B 1_555 1_555
Na4F O1B 1_555 1_555
Na4F O2B 1_555 1_555
Na4F O3D 1_555 1_555

#END
