
#######################################################################
#
#                 Cambridge Crystallographic Data Centre
#                                CCDC 
#
#######################################################################
#
# If this CIF has been generated from an entry in the Cambridge 
# Structural Database, then it will include bibliographic, chemical, 
# crystal, experimental, refinement or atomic coordinate data resulting 
# from the CCDC's data processing and validation procedures.
#
#######################################################################

data_LETNOP
_symmetry_cell_setting           monoclinic
_symmetry_space_group_name_H-M   'P 21/c'
_symmetry_Int_Tables_number      14
_space_group_name_Hall           '-P 2ybc'
loop_
_symmetry_equiv_pos_site_id
_symmetry_equiv_pos_as_xyz
1 x,y,z
2 -x,1/2+y,1/2-z
3 -x,-y,-z
4 x,1/2-y,1/2+z
_cell_length_a                   12.207(2)
_cell_length_b                   14.668(3)
_cell_length_c                   29.351(5)
_cell_angle_alpha                90
_cell_angle_beta                 106.735(6)
_cell_angle_gamma                90
_cell_volume                     5032.78
loop_
_atom_site_label
_atom_site_type_symbol
_atom_site_fract_x
_atom_site_fract_y
_atom_site_fract_z
B1 B 0.5477(5) 0.0942(4) 0.6150(2)
H1 H 0.4872 0.0661 0.5854
C1 C 0.5803(5) 0.4087(4) 0.6811(2)
H2 H 0.6099 0.3879 0.7133
H3 H 0.5205 0.4524 0.6793
H4 H 0.6405 0.4368 0.6711
C2 C 0.5336(4) 0.3301(4) 0.64967(18)
C3 C 0.4398(5) 0.3311(4) 0.6099(2)
H5 H 0.3914 0.3800 0.5985
C4 C 0.4324(4) 0.2452(4) 0.59067(19)
C5 C 0.3483(5) 0.2091(4) 0.5467(2)
H6 H 0.3886 0.1809 0.5268
H7 H 0.3025 0.2584 0.5297
H8 H 0.2997 0.1649 0.5553
C6 C 0.6700(5) 0.0381(4) 0.78878(19)
H9 H 0.7474 0.0569 0.7926
H10 H 0.6698 -0.0178 0.8058
H11 H 0.6308 0.0844 0.8011
C7 C 0.6111(4) 0.0239(4) 0.73755(19)
C8 C 0.5307(5) -0.0416(4) 0.7178(2)
H12 H 0.5069 -0.0885 0.7341
C9 C 0.4924(4) -0.0251(4) 0.67029(19)
C10 C 0.4002(5) -0.0703(4) 0.6319(2)
H13 H 0.3394 -0.0276 0.6192
H14 H 0.3710 -0.1218 0.6449
H15 H 0.4311 -0.0904 0.6070
C11 C 0.9593(4) 0.1726(4) 0.6535(2)
H16 H 0.9494 0.2371 0.6487
H17 H 1.0178 0.1515 0.6401
H18 H 0.9813 0.1596 0.6870
C12 C 0.8504(4) 0.1255(4) 0.63004(17)
C13 C 0.8277(5) 0.0690(4) 0.59063(19)
H19 H 0.8795 0.0500 0.5748
C14 C 0.7145(4) 0.0467(4) 0.57960(18)
C15 C 0.6462(5) -0.0116(4) 0.5401(2)
H20 H 0.5936 -0.0479 0.5512
H21 H 0.6966 -0.0509 0.5293
H22 H 0.6044 0.0263 0.5142
C16 C 0.6915(4) 0.2406(4) 0.75470(19)
C17 C 0.8498(4) 0.1312(3) 0.73962(16)
C18 C 0.8033(4) 0.2959(4) 0.69605(17)
C19 C 1.0092(4) -0.0605(4) 0.88270(19)
C20 C 1.0579(5) -0.0612(4) 0.93235(19)
C21 C 1.0178(6) -0.1190(5) 0.9614(2)
H23 H 1.0508 -0.1183 0.9941
C22 C 0.9280(6) -0.1777(5) 0.9411(2)
H24 H 0.9005 -0.2167 0.9603
C23 C 0.8802(5) -0.1785(4) 0.8933(2)
H25 H 0.8192 -0.2176 0.8802
C24 C 0.9201(5) -0.1218(4) 0.8629(2)
C25 C 0.8714(5) -0.1361(4) 0.8121(2)
H26 H 0.8067 -0.1728 0.8031
C26 C 0.8464(5) -0.1411(4) 0.7305(2)
H27 H 0.7647 -0.1397 0.7264
H28 H 0.8682 -0.2045 0.7293
C27 C 0.8692(5) -0.0921(5) 0.6893(2)
H29 H 0.8222 -0.1192 0.6601
H30 H 0.8454 -0.0291 0.6899
C28 C 0.9907(6) -0.0934(4) 0.6885(2)
H31 H 1.0208 -0.1547 0.6956
H32 H 0.9936 -0.0782 0.6567
C29 C 1.1408(5) 0.0116(4) 0.70876(19)
H33 H 1.1434 -0.0015 0.6781
C30 C 1.2239(4) 0.0759(4) 0.7351(2)
C31 C 1.2977(5) 0.1140(4) 0.7112(2)
H34 H 1.2880 0.0984 0.6796
C32 C 1.3822(5) 0.1727(4) 0.7326(2)
H35 H 1.4304 0.1962 0.7161
C33 C 1.3963(5) 0.1976(4) 0.7797(2)
H36 H 1.4542 0.2378 0.7949
C34 C 1.3247(4) 0.1627(4) 0.80318(19)
C35 C 1.2377(4) 0.1007(4) 0.78226(18)
C36 C 1.2038(6) 0.0024(5) 0.99839(19)
H37 H 1.1508 0.0212 1.0152
H38 H 1.2658 0.0451 1.0043
H39 H 1.2331 -0.0570 1.0092
C37 C 1.4159(5) 0.2507(5) 0.8734(2)
H40 H 1.4900 0.2280 0.8740
H41 H 1.4127 0.2595 0.9054
H42 H 1.4022 0.3077 0.8567
Fe1 Fe 0.71697(6) 0.18882(5) 0.69849(2)
N1 N 0.5808(3) 0.2464(3) 0.65507(14)
N2 N 0.5166(3) 0.1942(3) 0.61819(14)
N3 N 0.6235(3) 0.0791(3) 0.70300(14)
N4 N 0.5492(3) 0.0481(3) 0.66146(15)
N5 N 0.7534(3) 0.1365(3) 0.64254(14)
N6 N 0.6701(3) 0.0890(3) 0.61029(14)
N7 N 0.6801(4) 0.2713(4) 0.78877(17)
N8 N 0.9258(3) 0.0908(3) 0.76343(14)
N9 N 0.8524(4) 0.3626(3) 0.69509(16)
N10 N 0.9060(4) -0.1050(3) 0.77877(16)
N11 N 1.0634(4) -0.0298(3) 0.72247(15)
N12 N 1.4241(4) 0.0576(4) 0.94087(19)
N13 N 1.1514(4) 0.2727(4) 0.94119(17)
Nd1 Nd 1.19178(2) 0.11021(2) 0.888797(9)
Ni1 Ni 1.04416(5) -0.02206(4) 0.78816(2)
O1 O 1.0520(3) -0.0036(2) 0.85791(12)
O2 O 1.1749(3) 0.0697(2) 0.80897(12)
O3 O 1.1460(3) -0.0009(3) 0.94796(13)
O4 O 1.3301(3) 0.1861(3) 0.84978(13)
O5 O 1.3618(3) 0.0071(3) 0.90841(14)
O6 O 1.3749(4) 0.1225(3) 0.95467(14)
O7 O 1.5267(4) 0.0435(4) 0.9571(2)
O8 O 1.1163(4) 0.1934(3) 0.94854(14)
O9 O 1.2140(4) 0.2757(3) 0.91454(15)
O10 O 1.1232(4) 0.3391(3) 0.95921(18)
O12 O 1.0216(4) 0.1949(3) 0.84631(13)
H53 H 0.9754 0.1653 0.8242
H54 H 0.9720 0.2181 0.8575
N9A N 1.1476(4) -0.1374(3) 0.80491(16)
Ni1A Ni 0.95584(5) 0.47794(4) 0.71184(2)
C38 C 0.3323(7) 0.8027(5) 0.9502(3)
H43 H 0.2580 0.8287 0.9465
H44 H 0.3312 0.7679 0.9224
H45 H 0.3878 0.8507 0.9543
C39 C 0.3617(7) 0.7448(5) 0.9908(3)
N14 N 0.3859(8) 0.6995(6) 1.0229(3)
C40 C 0.8748(8) 0.4015(9) 0.9677(4)
H46 H 0.7970 0.3900 0.9671
H47 H 0.9211 0.4079 1.0001
H48 H 0.9027 0.3515 0.9532
C41 C 0.8802(7) 0.4832(10) 0.9423(3)
N15 N 0.8846(8) 0.5441(9) 0.9212(4)
C42 C 0.8060(10) 0.1767(8) 0.9002(3)
H49 H 0.7730 0.1295 0.8778
H50 H 0.7492 0.1997 0.9141
H51 H 0.8690 0.1522 0.9248
O11 O 0.8454(4) 0.2487(5) 0.87650(17)
H52 H 0.7947 0.2630 0.8525
loop_
_geom_bond_atom_site_label_1
_geom_bond_atom_site_label_2
_geom_bond_site_symmetry_1
_geom_bond_site_symmetry_2
B1 H1 1_555 1_555
C1 H2 1_555 1_555
H3 C1 1_555 1_555
H4 C1 1_555 1_555
C2 C1 1_555 1_555
C3 C2 1_555 1_555
H5 C3 1_555 1_555
C4 C3 1_555 1_555
C5 C4 1_555 1_555
H6 C5 1_555 1_555
H7 C5 1_555 1_555
H8 C5 1_555 1_555
C6 H9 1_555 1_555
H10 C6 1_555 1_555
H11 C6 1_555 1_555
C7 C6 1_555 1_555
C8 C7 1_555 1_555
H12 C8 1_555 1_555
C9 C8 1_555 1_555
C10 C9 1_555 1_555
H13 C10 1_555 1_555
H14 C10 1_555 1_555
H15 C10 1_555 1_555
C11 H16 1_555 1_555
H17 C11 1_555 1_555
H18 C11 1_555 1_555
C12 C11 1_555 1_555
C13 C12 1_555 1_555
H19 C13 1_555 1_555
C14 C13 1_555 1_555
C15 C14 1_555 1_555
H20 C15 1_555 1_555
H21 C15 1_555 1_555
H22 C15 1_555 1_555
C16 Fe1 1_555 1_555
C17 Fe1 1_555 1_555
C18 Fe1 1_555 1_555
C19 C20 1_555 1_555
C20 C21 1_555 1_555
C21 H23 1_555 1_555
C22 C21 1_555 1_555
H24 C22 1_555 1_555
C23 C22 1_555 1_555
H25 C23 1_555 1_555
C24 C19 1_555 1_555
C25 C24 1_555 1_555
H26 C25 1_555 1_555
C26 H27 1_555 1_555
H28 C26 1_555 1_555
C27 C26 1_555 1_555
H29 C27 1_555 1_555
H30 C27 1_555 1_555
C28 C27 1_555 1_555
H31 C28 1_555 1_555
H32 C28 1_555 1_555
C29 H33 1_555 1_555
C30 C29 1_555 1_555
C31 C30 1_555 1_555
H34 C31 1_555 1_555
C32 C31 1_555 1_555
H35 C32 1_555 1_555
C33 C32 1_555 1_555
H36 C33 1_555 1_555
C34 C33 1_555 1_555
C35 C30 1_555 1_555
C36 H37 1_555 1_555
H38 C36 1_555 1_555
H39 C36 1_555 1_555
C37 H40 1_555 1_555
H41 C37 1_555 1_555
H42 C37 1_555 1_555
C38 H43 1_555 1_555
H44 C38 1_555 1_555
H45 C38 1_555 1_555
C39 C38 1_555 1_555
C40 H46 1_555 1_555
H47 C40 1_555 1_555
H48 C40 1_555 1_555
C41 C40 1_555 1_555
C42 H49 1_555 1_555
H50 C42 1_555 1_555
H51 C42 1_555 1_555
Fe1 N1 1_555 1_555
N1 C2 1_555 1_555
N2 B1 1_555 1_555
N3 C7 1_555 1_555
N4 B1 1_555 1_555
N5 C12 1_555 1_555
N6 B1 1_555 1_555
N7 C16 1_555 1_555
N8 C17 1_555 1_555
N9 C18 1_555 1_555
N10 C25 1_555 1_555
N11 C28 1_555 1_555
N12 O5 1_555 1_555
N13 O8 1_555 1_555
N14 C39 1_555 1_555
N15 C41 1_555 1_555
Nd1 O1 1_555 1_555
Ni1 N8 1_555 1_555
O1 C19 1_555 1_555
O2 C35 1_555 1_555
O3 C20 1_555 1_555
O4 C34 1_555 1_555
O5 Nd1 1_555 1_555
O6 N12 1_555 1_555
O7 N12 1_555 1_555
O8 Nd1 1_555 1_555
O9 N13 1_555 1_555
O10 N13 1_555 1_555
O11 C42 1_555 1_555
H52 O11 1_555 1_555
O12 Nd1 1_555 1_555
H53 O12 1_555 1_555
H54 O12 1_555 1_555
N9A Ni1 1_555 1_555
Ni1A N9 1_555 1_555
C4 N2 1_555 1_555
C9 N4 1_555 1_555
C14 N6 1_555 1_555
C23 C24 1_555 1_555
C26 N10 1_555 1_555
C29 N11 1_555 1_555
C34 C35 1_555 1_555
C36 O3 1_555 1_555
C37 O4 1_555 1_555
Fe1 N3 1_555 1_555
Fe1 N5 1_555 1_555
N1 N2 1_555 1_555
N3 N4 1_555 1_555
N5 N6 1_555 1_555
N10 Ni1 1_555 1_555
N11 Ni1 1_555 1_555
Nd1 O2 1_555 1_555
Nd1 O3 1_555 1_555
Nd1 O4 1_555 1_555
Nd1 O6 1_555 1_555
Nd1 O9 1_555 1_555
Ni1 O1 1_555 1_555
Ni1 O2 1_555 1_555

#END
