
#######################################################################
#
#                 Cambridge Crystallographic Data Centre
#                                CCDC 
#
#######################################################################
#
# If this CIF has been generated from an entry in the Cambridge 
# Structural Database, then it will include bibliographic, chemical, 
# crystal, experimental, refinement or atomic coordinate data resulting 
# from the CCDC's data processing and validation procedures.
#
#######################################################################

data_LEVDIB
_symmetry_cell_setting           rhombohedral
_symmetry_space_group_name_H-M   'R 3 2'
_symmetry_Int_Tables_number      155
_space_group_name_Hall           'R 3 2"'
loop_
_symmetry_equiv_pos_site_id
_symmetry_equiv_pos_as_xyz
1 x,y,z
2 -y,x-y,z
3 -x+y,-x,z
4 y,x,-z
5 x-y,-y,-z
6 -x,-x+y,-z
7 2/3+x,1/3+y,1/3+z
8 2/3-y,1/3+x-y,1/3+z
9 2/3-x+y,1/3-x,1/3+z
10 2/3+y,1/3+x,1/3-z
11 2/3+x-y,1/3-y,1/3-z
12 2/3-x,1/3-x+y,1/3-z
13 1/3+x,2/3+y,2/3+z
14 1/3-y,2/3+x-y,2/3+z
15 1/3-x+y,2/3-x,2/3+z
16 1/3+y,2/3+x,2/3-z
17 1/3+x-y,2/3-y,2/3-z
18 1/3-x,2/3-x+y,2/3-z
_cell_length_a                   18.5676(7)
_cell_length_b                   18.5676(7)
_cell_length_c                   52.205(3)
_cell_angle_alpha                90
_cell_angle_beta                 90
_cell_angle_gamma                120
_cell_volume                     15586.7
loop_
_atom_site_label
_atom_site_type_symbol
_atom_site_fract_x
_atom_site_fract_y
_atom_site_fract_z
Cu1 Cu 0.47580(11) -0.47649(12) 0.020736(10)
O1 O 0.4442(6) -0.9702(4) 0.03348(11)
O2 O 0.4830(5) -0.8886(5) -0.00178(10)
O3 O 0.4826(5) -0.6291(4) -0.00154(10)
O4 O 0.4405(4) -0.5901(4) 0.03280(10)
O5 O 0.4415(8) -0.4351(7) 0.05460(9)
C1 C 0.4531(7) -0.9107(5) 0.02069(15)
C2 C 0.4299(8) -0.8508(7) 0.03331(16)
C3 C 0.4445(3) -0.7772(7) 0.02014(9)
H1 H 0.4617 -0.7694 0.0031
C4 C 0.4339(6) -0.7194(6) 0.03198(17)
C5 C 0.4559(8) -0.6415(7) 0.01935(15)
C6 C 0.4042(8) -0.7356(8) 0.05909(18)
H2 H 0.3940 -0.6974 0.0675
C7 C 0.3917(5) -0.8050(8) 0.07183(11)
C8 C 0.4027(6) -0.8641(5) 0.05812(17)
H3 H 0.3911 -0.9134 0.0661
C9 C 0.3651(5) -0.8243(6) 0.09914(8)
C10 C 0.4209(5) -0.8286(6) 0.11592(10)
H4 H 0.4678 -0.8286 0.1096
C11 C 0.4068(5) -0.8329(6) 0.14217(9)
C12 C 0.3369(5) -0.8329(5) 0.15164(8)
C13 C 0.2810(4) -0.8287(4) 0.13486(12)
C14 C 0.2951(4) -0.8244(5) 0.10861(11)
C15 C 0.2392(6) -0.8201(8) 0.09182(16)
H5 H 0.2486 -0.8172 0.0743
C16 C 0.1692(6) -0.8202(9) 0.1013(2)
C17 C 0.1551(6) -0.8244(9) 0.1275(2)
H6 H 0.1083 -0.8245 0.1339
C18 C 0.2110(5) -0.8287(7) 0.14432(18)
H7 H 0.2015 -0.8316 0.1619
Cl1 Cl 0.0688(13) -0.8429(12) 0.0834(2)
O6 O 0.4505(8) -0.8615(8) 0.1601(2)
Cu1K Cu 0.19087(11) -0.61896(16) 0.312597(10)
Cu1C Cu 0.52351(12) -0.52420(11) -0.020736(10)
Cu1A Cu 0.47649(12) -1.04771(16) 0.020736(10)
Cu1E Cu 0.52420(11) -0.95229(16) -0.020736(10)
Cu1I Cu 0.19018(12) -1.19087(11) 0.312597(10)
Cu1F Cu 0.14247(11) -1.14316(12) 0.354069(10)
Cu1G Cu 0.14316(12) -0.71438(16) 0.354069(10)
O1K O 0.2225(6) -1.0811(7) 0.29985(11)
O1B O 0.5856(7) -0.4442(6) 0.03348(11)
O1E O 0.5558(6) -0.4144(7) -0.03348(11)
O2K O 0.1837(5) -1.0383(7) 0.33511(10)
O2E O 0.5170(5) -0.3716(7) 0.00178(10)
O2B O 0.6284(7) -0.4830(5) -0.00178(10)
O2D O 0.3716(7) -1.1114(5) 0.00178(10)
O3K O 0.1841(5) -0.7784(6) 0.33487(10)
O3C O 0.3709(4) -0.5174(5) 0.00154(10)
O3E O 0.5174(5) -1.1117(6) 0.00154(10)
O4K O 0.2262(4) -0.6973(6) 0.30053(10)
O4C O 0.4099(4) -0.5595(4) -0.03280(10)
O4A O 0.5901(4) -0.9694(6) 0.03280(10)
O5A O 0.4351(7) -1.1234(11) 0.05460(9)
C1K C 0.2136(7) -1.0305(9) 0.31264(15)
C2K C 0.2368(8) -0.9474(11) 0.30002(16)
C3K C 0.2222(3) -0.8884(8) 0.31319(9)
H1K H 0.2050 -0.8978 0.3302
C4K C 0.2328(6) -0.8200(8) 0.30135(17)
C5K C 0.2108(8) -0.7641(11) 0.31398(15)
C6K C 0.2625(8) -0.8065(11) 0.27424(18)
H2K H 0.2727 -0.7581 0.2658
C7K C 0.2750(5) -0.8634(9) 0.26150(11)
C8K C 0.2640(6) -0.9335(8) 0.27521(17)
H3K H 0.2756 -0.9712 0.2672
C9K C 0.3016(5) -0.8561(8) 0.23419(8)
C10K C 0.2458(5) -0.9162(8) 0.21741(10)
H4K H 0.1989 -0.9631 0.2237
C11K C 0.2599(5) -0.9064(8) 0.19116(9)
C12K C 0.3298(5) -0.8365(7) 0.18169(8)
C13K C 0.3857(4) -0.7764(6) 0.19847(12)
C14K C 0.3716(4) -0.7862(6) 0.22472(11)
C15K C 0.4275(6) -0.7260(10) 0.24151(16)
H5K H 0.4181 -0.7325 0.2590
C16K C 0.4975(6) -0.6561(11) 0.2320(2)
C17K C 0.5116(6) -0.6462(11) 0.2058(2)
H6K H 0.5584 -0.5995 0.1994
C18K C 0.4557(5) -0.7064(9) 0.18901(18)
H7K H 0.4652 -0.6998 0.1714
Cl1K Cl 0.5979(13) -0.5784(18) 0.2499(2)
O6K O 0.2162(8) -0.9787(11) 0.1732(2)
loop_
_geom_bond_atom_site_label_1
_geom_bond_atom_site_label_2
_geom_bond_site_symmetry_1
_geom_bond_site_symmetry_2
Cu1 O4 1_555 1_555
O1 C1 1_555 1_555
O2 C1 1_555 1_555
O3 C5 1_555 1_555
O4 C5 1_555 1_555
O5 Cu1 1_555 1_555
C1 C2 1_555 1_555
C2 C3 1_555 1_555
C3 H1 1_555 1_555
C4 C3 1_555 1_555
C5 C4 1_555 1_555
C6 C4 1_555 1_555
H2 C6 1_555 1_555
C7 C6 1_555 1_555
C8 C2 1_555 1_555
H3 C8 1_555 1_555
C9 C7 1_555 1_555
C10 C9 1_555 1_555
H4 C10 1_555 1_555
C11 C10 1_555 1_555
C12 C11 1_555 1_555
C13 C12 1_555 1_555
C14 C9 1_555 1_555
C15 C14 1_555 1_555
H5 C15 1_555 1_555
C16 C15 1_555 1_555
C17 C16 1_555 1_555
H6 C17 1_555 1_555
C18 C13 1_555 1_555
H7 C18 1_555 1_555
Cl1 C16 1_555 1_555
O6 C11 1_555 1_555
Cu1K Cu1G 1_555 1_555
Cu1C Cu1 1_555 1_555
Cu1A O1 1_555 1_555
Cu1E O2 1_555 1_555
Cu1I Cu1F 1_555 1_555
Cu1F O2K 1_555 1_555
Cu1G O3K 1_555 1_555
O1K Cu1I 1_555 1_555
O1B Cu1 1_555 1_555
O1E Cu1C 1_555 1_555
O2K C1K 1_555 1_555
O2E Cu1 1_555 1_555
O2B Cu1C 1_555 1_555
O2D Cu1A 1_555 1_555
O3K C5K 1_555 1_555
O3C Cu1 1_555 1_555
O3E Cu1A 1_555 1_555
O4K Cu1K 1_555 1_555
O4C Cu1C 1_555 1_555
O4A Cu1A 1_555 1_555
O5A Cu1A 1_555 1_555
C1K O1K 1_555 1_555
C2K C1K 1_555 1_555
C3K C2K 1_555 1_555
H1K C3K 1_555 1_555
C4K C3K 1_555 1_555
C5K O4K 1_555 1_555
C6K C4K 1_555 1_555
H2K C6K 1_555 1_555
C7K C6K 1_555 1_555
C8K C2K 1_555 1_555
H3K C8K 1_555 1_555
C9K C7K 1_555 1_555
C10K C9K 1_555 1_555
H4K C10K 1_555 1_555
C11K C10K 1_555 1_555
C12K C12 1_555 1_555
C13K C12K 1_555 1_555
C14K C9K 1_555 1_555
C15K C14K 1_555 1_555
H5K C15K 1_555 1_555
C16K C15K 1_555 1_555
C17K C16K 1_555 1_555
H6K C17K 1_555 1_555
C18K C13K 1_555 1_555
H7K C18K 1_555 1_555
Cl1K C16K 1_555 1_555
O6K C11K 1_555 1_555
O3 Cu1C 1_555 1_555
C7 C8 1_555 1_555
C13 C14 1_555 1_555
C17 C18 1_555 1_555
Cu1A Cu1E 1_555 1_555
C4K C5K 1_555 1_555
C7K C8K 1_555 1_555
C11K C12K 1_555 1_555
C13K C14K 1_555 1_555
C17K C18K 1_555 1_555

#END
