
#######################################################################
#
#                 Cambridge Crystallographic Data Centre
#                                CCDC 
#
#######################################################################
#
# If this CIF has been generated from an entry in the Cambridge 
# Structural Database, then it will include bibliographic, chemical, 
# crystal, experimental, refinement or atomic coordinate data resulting 
# from the CCDC's data processing and validation procedures.
#
#######################################################################

data_LEVROV
_symmetry_cell_setting           monoclinic
_symmetry_space_group_name_H-M   'C 2/c'
_symmetry_Int_Tables_number      15
_space_group_name_Hall           '-C 2yn'
loop_
_symmetry_equiv_pos_site_id
_symmetry_equiv_pos_as_xyz
1 x,y,z
2 -x,y,1/2-z
3 1/2+x,1/2+y,z
4 1/2-x,1/2+y,1/2-z
5 -x,-y,-z
6 x,-y,1/2+z
7 1/2-x,1/2-y,-z
8 1/2+x,1/2-y,1/2+z
_cell_length_a                   25.540(5)
_cell_length_b                   5.1400(10)
_cell_length_c                   22.306(5)
_cell_angle_alpha                90
_cell_angle_beta                 117.73(3)
_cell_angle_gamma                90
_cell_volume                     2591.93
loop_
_atom_site_label
_atom_site_type_symbol
_atom_site_fract_x
_atom_site_fract_y
_atom_site_fract_z
H1 H 0.1102(15) 0.706(7) 0.2387(18)
H2 H -0.0288(13) 0.242(6) 0.1205(16)
H3 H 0.0921(14) 0.966(6) 0.1470(17)
H4 H -0.0446(14) 0.513(5) 0.0341(18)
C1 C 0.24158(10) 1.4996(4) 0.14492(13)
C2 C 0.11969(10) 1.0330(4) 0.03407(12)
C3 C 0.33216(9) 1.1224(4) 0.08135(12)
C4 C 0.24810(9) 1.7107(4) 0.19317(12)
C5 C 0.28061(9) 1.2097(4) 0.09108(12)
C6 C 0.28804(9) 1.4226(4) 0.13298(11)
C7 C 0.22641(9) 1.0792(4) 0.05994(11)
C8 C 0.18691(9) 1.3727(4) 0.11274(12)
C9 C 0.17887(9) 1.1643(4) 0.06948(12)
Cu1 Cu 0.0000 1.0000 0.0000
O1 O 0.07884(6) 1.1429(3) 0.04366(8)
O2 O 0.11201(7) 0.8345(3) -0.00033(9)
O3 O 0.32115(7) 0.8984(3) 0.04825(10)
O4 O 0.29814(7) 1.8437(3) 0.21539(9)
O5 O 0.21114(7) 1.7554(3) 0.21205(9)
O6 O 0.37796(7) 1.2434(3) 0.10188(10)
N1 N 0.02130(8) 0.7598(3) 0.08073(10)
C10 C -0.01229(10) 0.5517(5) 0.07559(12)
C11 C -0.00206(9) 0.3901(4) 0.12949(12)
C12 C 0.06791(9) 0.8089(4) 0.14214(12)
C13 C 0.08060(9) 0.6591(4) 0.19833(12)
S1 S 0.06517(2) 0.26413(11) 0.26731(3)
C14 C 0.04521(9) 0.4449(5) 0.19310(12)
C15 C 0.0000 0.0755(6) 0.2500
H5 H 0.0088 -0.0361 0.2886
H6 H 0.2206(12) 0.949(6) 0.0294(15)
H7 H 0.3218(13) 1.515(5) 0.1534(15)
H8 H 0.1546(14) 1.440(6) 0.1190(17)
H9 H 0.2971(18) 1.973(8) 0.243(2)
H10 H 0.350(2) 0.853(9) 0.040(2)
H1A H -0.1102(15) 0.706(7) 0.2613(18)
H2A H 0.0288(13) 0.242(6) 0.3795(16)
H3A H -0.0921(14) 0.966(6) 0.3530(17)
H4A H 0.0446(14) 0.513(5) 0.4659(18)
C1D C -0.24158(10) 0.5004(4) -0.14492(13)
C2D C -0.11969(10) 0.9670(4) -0.03407(12)
C3D C -0.33216(9) 0.8776(4) -0.08135(12)
C4D C -0.24810(9) 0.2893(4) -0.19317(12)
C5D C -0.28061(9) 0.7903(4) -0.09108(12)
C6D C -0.28804(9) 0.5774(4) -0.13298(11)
C7D C -0.22641(9) 0.9208(4) -0.05994(11)
C8D C -0.18691(9) 0.6273(4) -0.11274(12)
C9D C -0.17887(9) 0.8357(4) -0.06948(12)
Cu1A Cu 0.0000 1.0000 0.5000
O1D O -0.07884(6) 0.8571(3) -0.04366(8)
O2D O -0.11201(7) 1.1655(3) 0.00033(9)
O3D O -0.32115(7) 1.1016(3) -0.04825(10)
O4D O -0.29814(7) 0.1563(3) -0.21539(9)
O5D O -0.21114(7) 0.2446(3) -0.21205(9)
O6D O -0.37796(7) 0.7566(3) -0.10188(10)
N1A N -0.02130(8) 0.7598(3) 0.41927(10)
N1D N -0.02130(8) 1.2402(3) -0.08073(10)
C10A C 0.01229(10) 0.5517(5) 0.42441(12)
C11A C 0.00206(9) 0.3901(4) 0.37051(12)
C12A C -0.06791(9) 0.8089(4) 0.35786(12)
C13A C -0.08060(9) 0.6591(4) 0.30167(12)
S1A S -0.06517(2) 0.26413(11) 0.23269(3)
C14A C -0.04521(9) 0.4449(5) 0.30690(12)
H5A H -0.0088 -0.0361 0.2114
H6D H -0.2206(12) 1.051(6) -0.0294(15)
H7D H -0.3218(13) 0.485(5) -0.1534(15)
H8D H -0.1546(14) 0.560(6) -0.1190(17)
H9D H -0.2971(18) 0.027(8) -0.243(2)
H10D H -0.350(2) 1.147(9) -0.040(2)
loop_
_geom_bond_atom_site_label_1
_geom_bond_atom_site_label_2
_geom_bond_site_symmetry_1
_geom_bond_site_symmetry_2
H1 C13 1_555 1_555
H2 C11 1_555 1_555
H3 C12 1_555 1_555
H4 C10 1_555 1_555
C1 C4 1_555 1_555
C2 C9 1_555 1_555
C3 C5 1_555 1_555
C4 O4 1_555 1_555
C5 C6 1_555 1_555
C6 C1 1_555 1_555
C7 C5 1_555 1_555
C8 C1 1_555 1_555
C9 C7 1_555 1_555
Cu1 O1 1_555 1_555
O1 C2 1_555 1_555
O2 C2 1_555 1_555
O3 C3 1_555 1_555
O4 H9 1_555 1_555
O5 C4 1_555 1_555
O6 C3 1_555 1_555
N1 Cu1 1_555 1_555
C10 N1 1_555 1_555
C11 C10 1_555 1_555
C12 N1 1_555 1_555
C13 C12 1_555 1_555
S1 C14 1_555 1_555
C14 C11 1_555 1_555
C15 S1 1_555 1_555
H5 C15 1_555 1_555
H6 C7 1_555 1_555
H7 C6 1_555 1_555
H8 C8 1_555 1_555
H10 O3 1_555 1_555
H1A C13A 1_555 1_555
H2A C11A 1_555 1_555
H3A C12A 1_555 1_555
H4A C10A 1_555 1_555
C1D C4D 1_555 1_555
C2D C9D 1_555 1_555
C3D C5D 1_555 1_555
C4D O4D 1_555 1_555
C5D C6D 1_555 1_555
C6D C1D 1_555 1_555
C7D C5D 1_555 1_555
C8D C1D 1_555 1_555
C9D C7D 1_555 1_555
Cu1A N1A 1_555 1_555
O1D Cu1 1_555 1_555
O2D C2D 1_555 1_555
O3D C3D 1_555 1_555
O4D H9D 1_555 1_555
O5D C4D 1_555 1_555
O6D C3D 1_555 1_555
N1A C10A 1_555 1_555
N1D Cu1 1_555 1_555
C10A C11A 1_555 1_555
C11A C14A 1_555 1_555
C12A N1A 1_555 1_555
C13A C12A 1_555 1_555
S1A C15 1_555 1_555
C14A C13A 1_555 1_555
H5A C15 1_555 1_555
H6D C7D 1_555 1_555
H7D C6D 1_555 1_555
H8D C8D 1_555 1_555
H10D O3D 1_555 1_555
C8 C9 1_555 1_555
C13 C14 1_555 1_555
C2D O1D 1_555 1_555
C8D C9D 1_555 1_555
S1A C14A 1_555 1_555

#END
