
#######################################################################
#
#                 Cambridge Crystallographic Data Centre
#                                CCDC 
#
#######################################################################
#
# If this CIF has been generated from an entry in the Cambridge 
# Structural Database, then it will include bibliographic, chemical, 
# crystal, experimental, refinement or atomic coordinate data resulting 
# from the CCDC's data processing and validation procedures.
#
#######################################################################

data_LEVWOA
_symmetry_cell_setting           triclinic
_symmetry_space_group_name_H-M   'P -1'
_symmetry_Int_Tables_number      2
_space_group_name_Hall           '-P 1'
loop_
_symmetry_equiv_pos_site_id
_symmetry_equiv_pos_as_xyz
1 x,y,z
2 -x,-y,-z
_cell_length_a                   8.0269(10)
_cell_length_b                   9.3913(10)
_cell_length_c                   10.3821(10)
_cell_angle_alpha                88.641(10)
_cell_angle_beta                 86.175(10)
_cell_angle_gamma                73.634(10)
_cell_volume                     749.24
loop_
_atom_site_label
_atom_site_type_symbol
_atom_site_fract_x
_atom_site_fract_y
_atom_site_fract_z
I1 I 0.24740(5) -0.29166(4) -0.05987(3)
I2 I -0.23849(5) -0.35143(4) -0.22251(4)
I3 I 0.24426(7) -0.31195(6) -0.49168(4)
Cd1 Cd 0.0000 0.0000 0.0000
Cd2 Cd 0.11143(5) -0.39980(4) -0.26939(4)
N1 N 0.2277(6) -0.6562(5) -0.2561(4)
N2 N 0.1790(5) -0.8835(5) -0.1555(4)
N3 N 0.2947(7) -0.8841(5) -0.3798(4)
N4 N 0.4756(6) -0.8658(5) -0.2062(5)
C1 C 0.1148(6) -0.7194(5) -0.1627(5)
H1 H 0.1132 -0.6782 -0.0777
H2 H -0.0034 -0.6909 -0.1899
C2 C 0.2312(8) -0.7239(6) -0.3855(5)
H3 H 0.1147 -0.6955 -0.4161
H4 H 0.3055 -0.6861 -0.4464
C3 C 0.4086(7) -0.7028(6) -0.2127(5)
H5 H 0.4837 -0.6642 -0.2723
H6 H 0.4101 -0.6614 -0.1282
C4 C 0.3596(7) -0.9221(6) -0.1154(5)
H7 H 0.3598 -0.8812 -0.0305
H8 H 0.4041 -1.0292 -0.1089
C5 C 0.1832(8) -0.9428(6) -0.2887(5)
H9 H 0.2259 -1.0503 -0.2865
H10 H 0.0661 -0.9163 -0.3179
C6 C 0.4706(7) -0.9282(6) -0.3363(6)
H11 H 0.5470 -0.8932 -0.3976
H12 H 0.5123 -1.0356 -0.3325
O1 O 0.1754(5) 0.0026(5) 0.1645(4)
H13 H 0.2905 -0.0577 0.1816
H14 H 0.1828 0.1014 0.1869
I1A I -0.24740(5) -0.70834(4) 0.05987(3)
I2A I 0.23849(5) -0.64857(4) 0.22251(4)
I3A I -0.24426(7) -0.68805(6) 0.49168(4)
Cd2A Cd -0.11143(5) -0.60020(4) 0.26939(4)
N1A N -0.2277(6) -0.3438(5) 0.2561(4)
N2A N -0.1790(5) -0.1165(5) 0.1555(4)
N3A N -0.2947(7) -0.1159(5) 0.3798(4)
N4A N -0.4756(6) -0.1342(5) 0.2062(5)
C1A C -0.1148(6) -0.2806(5) 0.1627(5)
H1A H -0.1132 -0.3218 0.0777
H2A H 0.0034 -0.3091 0.1899
C2A C -0.2312(8) -0.2761(6) 0.3855(5)
H3A H -0.1147 -0.3045 0.4161
H4A H -0.3055 -0.3139 0.4464
C3A C -0.4086(7) -0.2972(6) 0.2127(5)
H5A H -0.4837 -0.3358 0.2723
H6A H -0.4101 -0.3386 0.1282
C4A C -0.3596(7) -0.0779(6) 0.1154(5)
H7A H -0.3598 -0.1188 0.0305
H8A H -0.4041 0.0292 0.1089
C5A C -0.1832(8) -0.0572(6) 0.2887(5)
H9A H -0.2259 0.0503 0.2865
H10A H -0.0661 -0.0837 0.3179
C6A C -0.4706(7) -0.0718(6) 0.3363(6)
H11A H -0.5470 -0.1068 0.3976
H12A H -0.5123 0.0356 0.3325
O1A O -0.1754(5) -0.0026(5) -0.1645(4)
H13A H -0.2905 0.0577 -0.1816
H14A H -0.1828 -0.1014 -0.1869
I1A_2 I -0.24740(5) 0.29166(4) 0.05987(3)
Cd1_2 Cd 0.0000 -1.0000 0.0000
N2_2 N 0.1790(5) 0.1165(5) -0.1555(4)
loop_
_geom_bond_atom_site_label_1
_geom_bond_atom_site_label_2
_geom_bond_site_symmetry_1
_geom_bond_site_symmetry_2
I1 Cd1 1_555 1_555
I2 Cd2 1_555 1_555
I3 Cd2 1_555 1_555
Cd1 O1 1_555 1_555
Cd2 I1 1_555 1_555
N1 Cd2 1_555 1_555
N2 C1 1_555 1_555
N3 C2 1_555 1_555
N4 C3 1_555 1_555
C1 N1 1_555 1_555
H1 C1 1_555 1_555
H2 C1 1_555 1_555
C2 N1 1_555 1_555
H3 C2 1_555 1_555
H4 C2 1_555 1_555
C3 N1 1_555 1_555
H5 C3 1_555 1_555
H6 C3 1_555 1_555
C4 N2 1_555 1_555
H7 C4 1_555 1_555
H8 C4 1_555 1_555
C5 N2 1_555 1_555
H9 C5 1_555 1_555
H10 C5 1_555 1_555
C6 N3 1_555 1_555
H11 C6 1_555 1_555
H12 C6 1_555 1_555
O1 H13 1_555 1_555
H14 O1 1_555 1_555
I1A Cd2A 1_555 1_555
I2A Cd2A 1_555 1_555
I3A Cd2A 1_555 1_555
Cd2A N1A 1_555 1_555
N1A C1A 1_555 1_555
N2A Cd1 1_555 1_555
N3A C2A 1_555 1_555
N4A C3A 1_555 1_555
C1A N2A 1_555 1_555
H1A C1A 1_555 1_555
H2A C1A 1_555 1_555
C2A N1A 1_555 1_555
H3A C2A 1_555 1_555
H4A C2A 1_555 1_555
C3A N1A 1_555 1_555
H5A C3A 1_555 1_555
H6A C3A 1_555 1_555
C4A N2A 1_555 1_555
H7A C4A 1_555 1_555
H8A C4A 1_555 1_555
C5A N2A 1_555 1_555
H9A C5A 1_555 1_555
H10A C5A 1_555 1_555
C6A N3A 1_555 1_555
H11A C6A 1_555 1_555
H12A C6A 1_555 1_555
O1A Cd1 1_555 1_555
H13A O1A 1_555 1_555
H14A O1A 1_555 1_555
I1A_2 Cd1 1_555 1_555
Cd1_2 N2 1_555 1_555
N2_2 Cd1 1_555 1_555
N3 C5 1_555 1_555
N4 C4 1_555 1_555
N4 C6 1_555 1_555
I1A Cd1_2 1_555 1_555
N3A C5A 1_555 1_555
N4A C4A 1_555 1_555
N4A C6A 1_555 1_555

#END
