
#######################################################################
#
#                 Cambridge Crystallographic Data Centre
#                                CCDC 
#
#######################################################################
#
# If this CIF has been generated from an entry in the Cambridge 
# Structural Database, then it will include bibliographic, chemical, 
# crystal, experimental, refinement or atomic coordinate data resulting 
# from the CCDC's data processing and validation procedures.
#
#######################################################################

data_LEVZES
_symmetry_cell_setting           triclinic
_symmetry_space_group_name_H-M   'P -1'
_symmetry_Int_Tables_number      2
_space_group_name_Hall           '-P 1'
loop_
_symmetry_equiv_pos_site_id
_symmetry_equiv_pos_as_xyz
1 x,y,z
2 -x,-y,-z
_cell_length_a                   7.0457(3)
_cell_length_b                   7.9225(4)
_cell_length_c                   16.31250(10)
_cell_angle_alpha                78.445(2)
_cell_angle_beta                 77.782(3)
_cell_angle_gamma                75.833(3)
_cell_volume                     852.204
loop_
_atom_site_label
_atom_site_type_symbol
_atom_site_fract_x
_atom_site_fract_y
_atom_site_fract_z
Ni1 Ni 0.70301(14) -0.66006(12) 0.85032(6)
O1 O 0.9334(7) -0.8911(6) 0.8563(3)
O2 O 0.8400(7) -1.0401(7) 0.7733(3)
O3 O 0.7758(7) -1.3008(7) 0.9391(3)
O4 O 0.9031(7) -1.5328(7) 0.8723(3)
O5 O 0.5239(7) -0.8055(7) 0.8198(4)
H1 H 0.5939 -0.8941 0.8019
H2 H 0.440(12) -0.859(11) 0.859(5)
O6 O 0.6143(8) -0.7314(7) 0.9787(3)
H3 H 0.4926 -0.7093 0.9900
H4 H 0.655(14) -0.816(12) 1.004(6)
N1 N 1.4647(8) -1.4439(7) 0.8447(4)
N2 N 0.8108(10) -0.5984(9) 0.7198(4)
C1 C 1.4824(10) -1.2765(9) 0.8103(5)
H5 H 1.6088 -1.2534 0.7906
C2 C 1.3212(11) -1.1408(10) 0.8035(5)
H6 H 1.3400 -1.0278 0.7799
C3 C 1.1305(11) -1.1692(9) 0.8311(5)
C4 C 1.1081(10) -1.3410(9) 0.8657(5)
C5 C 1.2790(10) -1.4712(10) 0.8705(5)
H7 H 1.2641 -1.5855 0.8932
C6 C 0.9503(10) -1.0217(9) 0.8196(5)
C7 C 0.9103(10) -1.3953(9) 0.8950(5)
C8 C 1.0020(13) -0.5990(14) 0.6901(6)
H8 H 1.0886 -0.6278 0.7290
C9 C 1.0782(14) -0.5604(15) 0.6069(6)
H9 H 1.2130 -0.5609 0.5908
C10 C 0.9608(14) -0.5209(15) 0.5464(6)
C11 C 0.7652(17) -0.526(2) 0.5766(7)
H10 H 0.6761 -0.4977 0.5388
C12 C 0.6994(12) -0.5704(12) 0.6603(5)
H11 H 0.5681 -0.5822 0.6772
Ni1_2 Ni 0.70301(14) 0.33994(12) 0.85032(6)
Ni1_3 Ni 0.70301(14) -1.66006(12) 0.85032(6)
Ni1_4 Ni 1.70301(14) -1.66006(12) 0.85032(6)
Ni1A Ni 1.29699(14) -0.33994(12) 0.14968(6)
Ni1_5 Ni 1.70301(14) -0.66006(12) 0.85032(6)
O1_2 O 0.9334(7) 0.1089(6) 0.8563(3)
O2_2 O 0.8400(7) -0.0401(7) 0.7733(3)
O3_2 O 0.7758(7) -0.3008(7) 0.9391(3)
O4_2 O 0.9031(7) -0.5328(7) 0.8723(3)
O4_3 O 0.9031(7) 0.4672(7) 0.8723(3)
O5_2 O 0.5239(7) 0.1945(7) 0.8198(4)
H1_2 H 0.5939 0.1059 0.8019
H2_2 H 0.440(12) 0.141(11) 0.859(5)
O6_2 O 0.6143(8) 0.2686(7) 0.9787(3)
H3_2 H 0.4926 0.2907 0.9900
H4_2 H 0.655(14) 0.184(12) 1.004(6)
N1_2 N 1.4647(8) -0.4439(7) 0.8447(4)
N1_3 N 0.4647(8) -0.4439(7) 0.8447(4)
N1_4 N 0.4647(8) 0.5561(7) 0.8447(4)
N2A N 1.1892(10) -0.4016(9) 0.2802(4)
N2_2 N 0.8108(10) 0.4016(9) 0.7198(4)
C1_2 C 1.4824(10) -0.2765(9) 0.8103(5)
H5_2 H 1.6088 -0.2534 0.7906
C2_2 C 1.3212(11) -0.1408(10) 0.8035(5)
H6_2 H 1.3400 -0.0278 0.7799
C3_2 C 1.1305(11) -0.1692(9) 0.8311(5)
C4_2 C 1.1081(10) -0.3410(9) 0.8657(5)
C5_2 C 1.2790(10) -0.4712(10) 0.8705(5)
H7_2 H 1.2641 -0.5855 0.8932
C6_2 C 0.9503(10) -0.0217(9) 0.8196(5)
C7_2 C 0.9103(10) -0.3953(9) 0.8950(5)
C8A C 0.9980(13) -0.4010(14) 0.3099(6)
H8A H 0.9114 -0.3722 0.2710
C9A C 0.9218(14) -0.4396(15) 0.3931(6)
H9A H 0.7870 -0.4391 0.4092
C10A C 1.0392(14) -0.4791(15) 0.4536(6)
C11A C 1.2348(17) -0.474(2) 0.4234(7)
H10A H 1.3239 -0.5023 0.4612
C12A C 1.3006(12) -0.4296(12) 0.3397(5)
H11A H 1.4319 -0.4178 0.3228
N3 N 0.5068(12) 0.2099(12) 0.5032(5)
C13 C 0.5758(12) 0.1469(12) 0.5797(5)
H12 H 0.4911 0.1653 0.6307
C14 C 0.7715(12) 0.0564(12) 0.5800(5)
H13 H 0.8177 0.0142 0.6312
C15 C 0.8980(12) 0.0288(12) 0.5038(5)
C16 C 0.8290(12) 0.0918(12) 0.4273(5)
H14 H 0.9137 0.0734 0.3763
C17 C 0.6334(12) 0.1823(12) 0.4270(5)
H15 H 0.5871 0.2245 0.3758
N3A N 1.4932(12) -0.2099(12) 0.4968(5)
C13A C 1.4242(12) -0.1469(12) 0.4203(5)
H12A H 1.5089 -0.1653 0.3693
C14A C 1.2285(12) -0.0564(12) 0.4200(5)
H13A H 1.1823 -0.0142 0.3688
C15A C 1.1020(12) -0.0288(12) 0.4962(5)
C16A C 1.1710(12) -0.0918(12) 0.5727(5)
H14A H 1.0863 -0.0734 0.6237
C17A C 1.3666(12) -0.1823(12) 0.5730(5)
H15A H 1.4129 -0.2245 0.6242
O7 O 0.2341(8) 0.0810(8) 0.9515(4)
H16 H 0.210(12) 0.153(11) 0.994(6)
H17 H 0.145(13) 0.092(12) 0.935(6)
loop_
_geom_bond_atom_site_label_1
_geom_bond_atom_site_label_2
_geom_bond_site_symmetry_1
_geom_bond_site_symmetry_2
Ni1 O1 1_555 1_555
O1 C6 1_555 1_555
O2 C6 1_555 1_555
O3 C7 1_555 1_555
O4 C7 1_555 1_555
O5 Ni1 1_555 1_555
H1 O5 1_555 1_555
H2 O5 1_555 1_555
O6 Ni1 1_555 1_555
H3 O6 1_555 1_555
H4 O6 1_555 1_555
N1 C1 1_555 1_555
N2 Ni1 1_555 1_555
C1 H5 1_555 1_555
C2 C1 1_555 1_555
H6 C2 1_555 1_555
C3 C2 1_555 1_555
C4 C3 1_555 1_555
C5 N1 1_555 1_555
H7 C5 1_555 1_555
C6 C3 1_555 1_555
C7 C4 1_555 1_555
C8 N2 1_555 1_555
H8 C8 1_555 1_555
C9 C8 1_555 1_555
H9 C9 1_555 1_555
C10 C9 1_555 1_555
C11 C10 1_555 1_555
H10 C11 1_555 1_555
C12 N2 1_555 1_555
H11 C12 1_555 1_555
N3 C13 1_555 1_555
C13 H12 1_555 1_555
C14 C13 1_555 1_555
H13 C14 1_555 1_555
C15 C14 1_555 1_555
C16 C15 1_555 1_555
H14 C16 1_555 1_555
C17 N3 1_555 1_555
H15 C17 1_555 1_555
O7 H16 1_555 1_555
H17 O7 1_555 1_555
Ni1_2 O1_2 1_555 1_555
Ni1_3 O4 1_555 1_555
Ni1_4 N1 1_555 1_555
Ni1A N2A 1_555 1_555
Ni1_5 N1_2 1_555 1_555
O1_2 C6_2 1_555 1_555
O2_2 C6_2 1_555 1_555
O3_2 C7_2 1_555 1_555
O4_2 Ni1 1_555 1_555
O4_3 Ni1_2 1_555 1_555
O5_2 Ni1_2 1_555 1_555
H1_2 O5_2 1_555 1_555
H2_2 O5_2 1_555 1_555
O6_2 Ni1_2 1_555 1_555
H3_2 O6_2 1_555 1_555
H4_2 O6_2 1_555 1_555
N1_2 C1_2 1_555 1_555
N1_3 Ni1 1_555 1_555
N1_4 Ni1_2 1_555 1_555
N2A C8A 1_555 1_555
N2_2 Ni1_2 1_555 1_555
C1_2 H5_2 1_555 1_555
C2_2 C1_2 1_555 1_555
H6_2 C2_2 1_555 1_555
C3_2 C2_2 1_555 1_555
C4_2 C3_2 1_555 1_555
C5_2 N1_2 1_555 1_555
H7_2 C5_2 1_555 1_555
C6_2 C3_2 1_555 1_555
C7_2 O4_2 1_555 1_555
C8A H8A 1_555 1_555
C9A C8A 1_555 1_555
H9A C9A 1_555 1_555
C10A C10 1_555 1_555
C11A C10A 1_555 1_555
H10A C11A 1_555 1_555
C12A N2A 1_555 1_555
H11A C12A 1_555 1_555
N3A C13A 1_555 1_555
C13A H12A 1_555 1_555
C14A C13A 1_555 1_555
H13A C14A 1_555 1_555
C15A C15 1_555 1_555
C16A C15A 1_555 1_555
H14A C16A 1_555 1_555
C17A N3A 1_555 1_555
H15A C17A 1_555 1_555
C4 C5 1_555 1_555
C11 C12 1_555 1_555
C16 C17 1_555 1_555
C4_2 C5_2 1_555 1_555
C4_2 C7_2 1_555 1_555
C9A C10A 1_555 1_555
C11A C12A 1_555 1_555
C14A C15A 1_555 1_555
C16A C17A 1_555 1_555

#END
