
#######################################################################
#
#                 Cambridge Crystallographic Data Centre
#                                CCDC 
#
#######################################################################
#
# If this CIF has been generated from an entry in the Cambridge 
# Structural Database, then it will include bibliographic, chemical, 
# crystal, experimental, refinement or atomic coordinate data resulting 
# from the CCDC's data processing and validation procedures.
#
#######################################################################

data_LEWCUN
_symmetry_cell_setting           monoclinic
_symmetry_space_group_name_H-M   'C 2/c'
_symmetry_Int_Tables_number      15
_space_group_name_Hall           '-C 2yn'
loop_
_symmetry_equiv_pos_site_id
_symmetry_equiv_pos_as_xyz
1 x,y,z
2 -x,y,1/2-z
3 1/2+x,1/2+y,z
4 1/2-x,1/2+y,1/2-z
5 -x,-y,-z
6 x,-y,1/2+z
7 1/2-x,1/2-y,-z
8 1/2+x,1/2-y,1/2+z
_cell_length_a                   25.166(3)
_cell_length_b                   9.1469(9)
_cell_length_c                   22.458(2)
_cell_angle_alpha                90
_cell_angle_beta                 91.318(3)
_cell_angle_gamma                90
_cell_volume                     5168.26
loop_
_atom_site_label
_atom_site_type_symbol
_atom_site_fract_x
_atom_site_fract_y
_atom_site_fract_z
Cd1 Cd 0.5000 1.07008(9) 0.2500
O1 O 0.5000 0.8162(10) 0.2500
O2 O 0.5000 1.3284(11) 0.2500
N1 N 0.3486(2) 0.9962(6) 0.3442(2)
N2 N 0.3610(4) 1.1304(10) 0.3660(4)
N3 N 0.4238(2) 1.0586(7) 0.3044(3)
N4 N 0.3737(2) 0.8980(7) 0.6083(2)
N5 N 0.4105(3) 0.9626(8) 0.5741(3)
N6 N 0.4451(2) 0.9195(8) 0.6653(3)
N7 N 0.4000(3) 0.3883(7) 0.4611(3)
N8 N 0.4364(3) 0.4502(9) 0.4258(4)
N9 N 0.4750(4) 0.2852(9) 0.4859(5)
C1 C 0.3107(2) 0.8226(8) 0.4176(3)
C2 C 0.3094(2) 0.8860(7) 0.4742(3)
C3 C 0.3207(2) 0.8016(8) 0.5250(3)
C4 C 0.3331(3) 0.6520(8) 0.5184(3)
C5 C 0.3320(3) 0.5879(8) 0.4626(3)
C6 C 0.3226(3) 0.6724(8) 0.4110(3)
C7 C 0.3018(3) 0.9183(8) 0.3619(3)
H1 H 0.2896 0.8560 0.3289
H2 H 0.2736 0.9892 0.3697
C8 C 0.2965(3) 1.0468(8) 0.4813(4)
H3 H 0.2897 1.0900 0.4425
H4 H 0.3263 1.0961 0.5008
H5 H 0.2652 1.0570 0.5054
C9 C 0.3194(3) 0.8684(9) 0.5863(3)
H6 H 0.2990 0.9596 0.5848
H7 H 0.3018 0.8012 0.6135
C10 C 0.3472(3) 0.5640(9) 0.5733(3)
H8 H 0.3544 0.4637 0.5621
H9 H 0.3179 0.5663 0.6005
H10 H 0.3786 0.6055 0.5927
C11 C 0.3431(3) 0.4248(8) 0.4575(4)
H11 H 0.3248 0.3736 0.4894
H12 H 0.3283 0.3894 0.4194
C12 C 0.3233(3) 0.6027(9) 0.3493(3)
H13 H 0.3322 0.4999 0.3531
H14 H 0.3497 0.6513 0.3255
H15 H 0.2886 0.6126 0.3302
C13 C 0.4050(4) 1.1633(12) 0.3395(5)
H16 H 0.4222 1.2539 0.3448
C14 C 0.3872(3) 0.9568(9) 0.3090(4)
H17 H 0.3885 0.8662 0.2894
C15 C 0.4528(3) 0.9718(10) 0.6089(4)
H18 H 0.4853 1.0106 0.5965
C16 C 0.3946(3) 0.8736(10) 0.6632(3)
H19 H 0.3766 0.8311 0.6951
C17 C 0.4810(4) 0.3835(13) 0.4428(5)
H20 H 0.5140 0.4039 0.4259
C18 C 0.4246(4) 0.2897(9) 0.4952(4)
H21 H 0.4074 0.2303 0.5230
H22 H 0.4834 0.7570 0.2723
H23 H 0.4762 1.3216 0.2229
H22A H 0.5166 0.7570 0.2277
H23A H 0.5238 1.3216 0.2771
N1A N 0.6514(2) 0.9962(6) 0.1558(2)
N2A N 0.6390(4) 1.1304(10) 0.1340(4)
N3A N 0.5762(2) 1.0586(7) 0.1956(3)
N4A N 0.6263(2) 0.8980(7) -0.1083(2)
N5A N 0.5895(3) 0.9626(8) -0.0741(3)
N6A N 0.5549(2) 0.9195(8) -0.1653(3)
N7A N 0.6000(3) 0.3883(7) 0.0389(3)
N8A N 0.5636(3) 0.4502(9) 0.0742(4)
N9A N 0.5250(4) 0.2852(9) 0.0141(5)
C1A C 0.6893(2) 0.8226(8) 0.0824(3)
C2A C 0.6906(2) 0.8860(7) 0.0258(3)
C3A C 0.6793(2) 0.8016(8) -0.0250(3)
C4A C 0.6669(3) 0.6520(8) -0.0184(3)
C5A C 0.6680(3) 0.5879(8) 0.0374(3)
C6A C 0.6774(3) 0.6724(8) 0.0890(3)
C7A C 0.6982(3) 0.9183(8) 0.1381(3)
H1A H 0.7104 0.8560 0.1711
H2A H 0.7264 0.9892 0.1303
C8A C 0.7035(3) 1.0468(8) 0.0187(4)
H3A H 0.7103 1.0900 0.0575
H4A H 0.6737 1.0961 -0.0008
H5A H 0.7348 1.0570 -0.0054
C9A C 0.6806(3) 0.8684(9) -0.0863(3)
H6A H 0.7010 0.9596 -0.0848
H7A H 0.6982 0.8012 -0.1135
C10A C 0.6528(3) 0.5640(9) -0.0733(3)
H8A H 0.6456 0.4637 -0.0621
H9A H 0.6821 0.5663 -0.1005
H10A H 0.6214 0.6055 -0.0927
C11A C 0.6569(3) 0.4248(8) 0.0425(4)
H11A H 0.6752 0.3736 0.0106
H12A H 0.6717 0.3894 0.0806
C12A C 0.6767(3) 0.6027(9) 0.1507(3)
H13A H 0.6678 0.4999 0.1469
H14A H 0.6503 0.6513 0.1745
H15A H 0.7114 0.6126 0.1698
C13A C 0.5950(4) 1.1633(12) 0.1605(5)
H16A H 0.5778 1.2539 0.1552
C14A C 0.6128(3) 0.9568(9) 0.1910(4)
H17A H 0.6115 0.8662 0.2106
C15A C 0.5472(3) 0.9718(10) -0.1089(4)
H18A H 0.5147 1.0106 -0.0965
C16A C 0.6054(3) 0.8736(10) -0.1632(3)
H19A H 0.6234 0.8311 -0.1951
C17A C 0.5190(4) 0.3835(13) 0.0572(5)
H20A H 0.4860 0.4039 0.0741
C18A C 0.5754(4) 0.2897(9) 0.0048(4)
H21A H 0.5926 0.2303 -0.0230
Cd1D Cd 0.5000 0.92992(9) -0.2500
Cd1D_2 Cd 0.5000 0.92992(9) 0.7500
N6D N 0.5549(2) 1.0805(8) 0.3347(3)
N6E N 0.4451(2) 1.0805(8) 0.1653(3)
Cl1 Cl 0.30598(9) 0.7693(2) 0.17559(9)
O3 O 0.2903(5) 0.7710(8) 0.1150(3)
O4 O 0.3601(4) 0.7354(13) 0.1850(6)
O5 O 0.2756(5) 0.6594(11) 0.2049(4)
O6 O 0.2969(3) 0.9058(7) 0.2041(3)
O8 O 0.4604(3) 0.6915(9) 0.3521(4)
O9 O 0.4476(2) 0.8662(9) 0.4480(3)
O10 O 0.1891(3) 0.8420(10) 0.2731(3)
O11 O 0.5541(5) 0.5270(14) 0.3260(6)
O7? O 0.346(4) 0.789(9) 0.122(4)
loop_
_geom_bond_atom_site_label_1
_geom_bond_atom_site_label_2
_geom_bond_site_symmetry_1
_geom_bond_site_symmetry_2
Cd1 O1 1_555 1_555
O1 H22 1_555 1_555
O2 Cd1 1_555 1_555
N1 N2 1_555 1_555
N2 C13 1_555 1_555
N3 Cd1 1_555 1_555
N4 N5 1_555 1_555
N5 C15 1_555 1_555
N6 C15 1_555 1_555
N7 N8 1_555 1_555
N8 C17 1_555 1_555
N9 C17 1_555 1_555
C1 C2 1_555 1_555
C2 C3 1_555 1_555
C3 C4 1_555 1_555
C4 C5 1_555 1_555
C5 C6 1_555 1_555
C6 C1 1_555 1_555
C7 N1 1_555 1_555
H1 C7 1_555 1_555
H2 C7 1_555 1_555
C8 C2 1_555 1_555
H3 C8 1_555 1_555
H4 C8 1_555 1_555
H5 C8 1_555 1_555
C9 N4 1_555 1_555
H6 C9 1_555 1_555
H7 C9 1_555 1_555
C10 C4 1_555 1_555
H8 C10 1_555 1_555
H9 C10 1_555 1_555
H10 C10 1_555 1_555
C11 N7 1_555 1_555
H11 C11 1_555 1_555
H12 C11 1_555 1_555
C12 C6 1_555 1_555
H13 C12 1_555 1_555
H14 C12 1_555 1_555
H15 C12 1_555 1_555
C13 N3 1_555 1_555
H16 C13 1_555 1_555
C14 N1 1_555 1_555
H17 C14 1_555 1_555
C15 H18 1_555 1_555
C16 N4 1_555 1_555
H19 C16 1_555 1_555
C17 H20 1_555 1_555
C18 N7 1_555 1_555
H21 C18 1_555 1_555
H23 O2 1_555 1_555
Cl1 O3 1_555 1_555
O4 Cl1 1_555 1_555
O5 Cl1 1_555 1_555
O6 Cl1 1_555 1_555
H22A O1 1_555 1_555
H23A O2 1_555 1_555
N1A N2A 1_555 1_555
N2A C13A 1_555 1_555
N3A Cd1 1_555 1_555
N4A N5A 1_555 1_555
N5A C15A 1_555 1_555
N6A C15A 1_555 1_555
N7A N8A 1_555 1_555
N8A C17A 1_555 1_555
N9A C17A 1_555 1_555
C1A C2A 1_555 1_555
C2A C3A 1_555 1_555
C3A C4A 1_555 1_555
C4A C5A 1_555 1_555
C5A C6A 1_555 1_555
C6A C1A 1_555 1_555
C7A N1A 1_555 1_555
H1A C7A 1_555 1_555
H2A C7A 1_555 1_555
C8A C2A 1_555 1_555
H3A C8A 1_555 1_555
H4A C8A 1_555 1_555
H5A C8A 1_555 1_555
C9A N4A 1_555 1_555
H6A C9A 1_555 1_555
H7A C9A 1_555 1_555
C10A C4A 1_555 1_555
H8A C10A 1_555 1_555
H9A C10A 1_555 1_555
H10A C10A 1_555 1_555
C11A N7A 1_555 1_555
H11A C11A 1_555 1_555
H12A C11A 1_555 1_555
C12A C6A 1_555 1_555
H13A C12A 1_555 1_555
H14A C12A 1_555 1_555
H15A C12A 1_555 1_555
C13A N3A 1_555 1_555
H16A C13A 1_555 1_555
C14A N1A 1_555 1_555
H17A C14A 1_555 1_555
C15A H18A 1_555 1_555
C16A N4A 1_555 1_555
H19A C16A 1_555 1_555
C17A H20A 1_555 1_555
C18A N7A 1_555 1_555
H21A C18A 1_555 1_555
Cd1D N6A 1_555 1_555
Cd1D_2 N6 1_555 1_555
N6D Cd1 1_555 1_555
N6E Cd1 1_555 1_555
N3 C14 1_555 1_555
N6 C16 1_555 1_555
N9 C18 1_555 1_555
C1 C7 1_555 1_555
C3 C9 1_555 1_555
C5 C11 1_555 1_555
N3A C14A 1_555 1_555
N6A C16A 1_555 1_555
N9A C18A 1_555 1_555
C1A C7A 1_555 1_555
C3A C9A 1_555 1_555
C5A C11A 1_555 1_555

#END
