
#######################################################################
#
#                 Cambridge Crystallographic Data Centre
#                                CCDC 
#
#######################################################################
#
# If this CIF has been generated from an entry in the Cambridge 
# Structural Database, then it will include bibliographic, chemical, 
# crystal, experimental, refinement or atomic coordinate data resulting 
# from the CCDC's data processing and validation procedures.
#
#######################################################################

data_LEWDAU
_symmetry_cell_setting           monoclinic
_symmetry_space_group_name_H-M   'P 21/n'
_symmetry_Int_Tables_number      14
_space_group_name_Hall           '-P 2yn'
loop_
_symmetry_equiv_pos_site_id
_symmetry_equiv_pos_as_xyz
1 x,y,z
2 1/2-x,1/2+y,1/2-z
3 -x,-y,-z
4 1/2+x,1/2-y,1/2+z
_cell_length_a                   8.4563(11)
_cell_length_b                   16.602(2)
_cell_length_c                   17.648(3)
_cell_angle_alpha                90
_cell_angle_beta                 100.205(2)
_cell_angle_gamma                90
_cell_volume                     2438.43
loop_
_atom_site_label
_atom_site_type_symbol
_atom_site_fract_x
_atom_site_fract_y
_atom_site_fract_z
Cd1 Cd 0.0000 0.5000 0.0000
O1 O -0.1070(3) 0.54887(15) 0.10300(13)
H1 H -0.078(4) 0.528(2) 0.146(2)
H2 H -0.079(7) 0.595(4) 0.116(3)
N1 N 0.4299(2) 0.44221(11) 0.17511(12)
N2 N 0.4982(3) 0.43834(15) 0.11163(14)
N3 N 0.2339(2) 0.46057(11) 0.07953(12)
N4 N 0.2735(2) 0.23899(10) 0.46173(12)
N5 N 0.3641(3) 0.25875(12) 0.53048(13)
N6 N 0.3882(3) 0.12724(11) 0.50579(12)
N7 N 0.1951(3) 0.63838(11) 0.43120(12)
N8 N 0.1708(3) 0.71050(12) 0.46490(14)
N9 N -0.0247(3) 0.68725(13) 0.36269(13)
C1 C 0.4309(3) 0.43727(15) 0.31540(14)
C2 C 0.3517(3) 0.36840(13) 0.33445(14)
C3 C 0.2677(3) 0.37171(12) 0.39562(14)
C4 C 0.2651(3) 0.44254(13) 0.43935(13)
C5 C 0.3409(3) 0.51196(13) 0.41740(15)
C6 C 0.4189(3) 0.50994(14) 0.35378(16)
C7 C 0.5297(3) 0.43351(17) 0.25136(15)
H3 H 0.6104 0.4765 0.2590
H4 H 0.5865 0.3818 0.2541
C8 C 0.3496(4) 0.29148(16) 0.28793(17)
H5 H 0.2889 0.2505 0.3096
H6 H 0.4588 0.2728 0.2895
H7 H 0.2996 0.3018 0.2350
C9 C 0.1723(3) 0.29931(13) 0.41380(15)
H8 H 0.0871 0.3173 0.4410
H9 H 0.1211 0.2739 0.3655
C10 C 0.1791(3) 0.44209(15) 0.50715(16)
H10 H 0.1882 0.4948 0.5313
H11 H 0.2271 0.4019 0.5441
H12 H 0.0666 0.4293 0.4897
C11 C 0.3371(3) 0.58968(14) 0.46219(16)
H13 H 0.3359 0.5771 0.5163
H14 H 0.4345 0.6208 0.4598
C12 C 0.4861(4) 0.58714(17) 0.32413(19)
H15 H 0.5347 0.5746 0.2797
H16 H 0.5665 0.6101 0.3644
H17 H 0.3997 0.6256 0.3095
C13 C 0.3761(3) 0.45043(16) 0.05608(16)
H18 H 0.3865 0.4519 0.0039
C14 C 0.2724(3) 0.45490(14) 0.15474(14)
H19 H 0.1997 0.4591 0.1891
C15 C 0.4296(3) 0.18959(14) 0.55422(15)
H20 H 0.5002 0.1839 0.6015
C16 C 0.2883(3) 0.16137(14) 0.44780(15)
H21 H 0.2361 0.1343 0.4036
C17 C 0.0377(4) 0.73615(15) 0.42138(18)
H22 H -0.0107 0.7853 0.4306
C18 C 0.0793(3) 0.62638(15) 0.37174(15)
H23 H 0.0712 0.5807 0.3398
O1B O 0.1070(3) 0.45113(15) -0.10300(13)
H1B H 0.078(4) 0.472(2) -0.146(2)
H2B H 0.079(7) 0.405(4) -0.116(3)
N1B N -0.4299(2) 0.55779(11) -0.17511(12)
N2B N -0.4982(3) 0.56166(15) -0.11163(14)
N3B N -0.2339(2) 0.53943(11) -0.07953(12)
N4B N -0.2735(2) 0.76101(10) -0.46173(12)
N5B N -0.3641(3) 0.74125(12) -0.53048(13)
N6B N -0.3882(3) 0.87276(11) -0.50579(12)
N7B N -0.1951(3) 0.36162(11) -0.43120(12)
N8B N -0.1708(3) 0.28950(12) -0.46490(14)
N9B N 0.0247(3) 0.31275(13) -0.36269(13)
C1B C -0.4309(3) 0.56273(15) -0.31540(14)
C2B C -0.3517(3) 0.63160(13) -0.33445(14)
C3B C -0.2677(3) 0.62829(12) -0.39562(14)
C4B C -0.2651(3) 0.55746(13) -0.43935(13)
C5B C -0.3409(3) 0.48804(13) -0.41740(15)
C6B C -0.4189(3) 0.49006(14) -0.35378(16)
C7B C -0.5297(3) 0.56649(17) -0.25136(15)
H3B H -0.6104 0.5235 -0.2590
H4B H -0.5865 0.6182 -0.2541
C8B C -0.3496(4) 0.70852(16) -0.28793(17)
H5B H -0.2889 0.7495 -0.3096
H6B H -0.4588 0.7272 -0.2895
H7B H -0.2996 0.6982 -0.2350
C9B C -0.1723(3) 0.70069(13) -0.41380(15)
H8B H -0.0871 0.6827 -0.4410
H9B H -0.1211 0.7261 -0.3655
C10B C -0.1791(3) 0.55791(15) -0.50715(16)
H10B H -0.1882 0.5052 -0.5313
H11B H -0.2271 0.5981 -0.5441
H12B H -0.0666 0.5707 -0.4897
C11B C -0.3371(3) 0.41032(14) -0.46219(16)
H13B H -0.3359 0.4229 -0.5163
H14B H -0.4345 0.3792 -0.4598
C12B C -0.4861(4) 0.41286(17) -0.32413(19)
H15B H -0.5347 0.4254 -0.2797
H16B H -0.5665 0.3899 -0.3644
H17B H -0.3997 0.3744 -0.3095
C13B C -0.3761(3) 0.54957(16) -0.05608(16)
H18B H -0.3865 0.5481 -0.0039
C14B C -0.2724(3) 0.54510(14) -0.15474(14)
H19B H -0.1997 0.5409 -0.1891
C15B C -0.4296(3) 0.81041(14) -0.55422(15)
H20B H -0.5002 0.8161 -0.6015
C16B C -0.2883(3) 0.83863(14) -0.44780(15)
H21B H -0.2361 0.8657 -0.4036
C17B C -0.0377(4) 0.26385(15) -0.42138(18)
H22B H 0.0107 0.2147 -0.4306
C18B C -0.0793(3) 0.37362(15) -0.37174(15)
H23B H -0.0712 0.4193 -0.3398
Cd1A Cd -0.5000 1.0000 -0.5000
Cd1A_2 Cd 0.5000 0.0000 0.5000
N6A N 0.1118(3) 0.62724(11) -0.00579(12)
N6C N -0.1118(3) 0.37276(11) 0.00579(12)
O2 O -0.0319(4) 0.49132(12) 0.25175(14)
O3 O -0.0396(3) 0.36365(12) 0.23443(13)
O4 O -0.1087(2) 0.41334(13) 0.33585(11)
N10 N -0.0624(3) 0.42207(14) 0.27435(13)
O5 O -0.2777(4) 0.72786(16) 0.23694(16)
H24 H -0.318(4) 0.770(2) 0.248(2)
H25 H -0.216(4) 0.719(2) 0.274(2)
O6 O -0.4527(5) 0.6158(2) 0.1438(3)
O7 O -0.1452(5) 0.7109(2) 0.09928(19)
O8? O -0.2841(11) 0.6780(4) 0.0974(4)
loop_
_geom_bond_atom_site_label_1
_geom_bond_atom_site_label_2
_geom_bond_site_symmetry_1
_geom_bond_site_symmetry_2
Cd1 O1 1_555 1_555
O1 H1 1_555 1_555
H2 O1 1_555 1_555
N1 N2 1_555 1_555
N2 C13 1_555 1_555
N3 Cd1 1_555 1_555
N4 N5 1_555 1_555
N5 C15 1_555 1_555
N6 C15 1_555 1_555
N7 N8 1_555 1_555
N8 C17 1_555 1_555
N9 C17 1_555 1_555
C1 C2 1_555 1_555
C2 C3 1_555 1_555
C3 C4 1_555 1_555
C4 C5 1_555 1_555
C5 C6 1_555 1_555
C6 C1 1_555 1_555
C7 N1 1_555 1_555
H3 C7 1_555 1_555
H4 C7 1_555 1_555
C8 C2 1_555 1_555
H5 C8 1_555 1_555
H6 C8 1_555 1_555
H7 C8 1_555 1_555
C9 N4 1_555 1_555
H8 C9 1_555 1_555
H9 C9 1_555 1_555
C10 C4 1_555 1_555
H10 C10 1_555 1_555
H11 C10 1_555 1_555
H12 C10 1_555 1_555
C11 N7 1_555 1_555
H13 C11 1_555 1_555
H14 C11 1_555 1_555
C12 C6 1_555 1_555
H15 C12 1_555 1_555
H16 C12 1_555 1_555
H17 C12 1_555 1_555
C13 N3 1_555 1_555
H18 C13 1_555 1_555
C14 N1 1_555 1_555
H19 C14 1_555 1_555
C15 H20 1_555 1_555
C16 N4 1_555 1_555
H21 C16 1_555 1_555
C17 H22 1_555 1_555
C18 N7 1_555 1_555
H23 C18 1_555 1_555
O2 N10 1_555 1_555
O3 N10 1_555 1_555
O4 N10 1_555 1_555
O5 H24 1_555 1_555
H25 O5 1_555 1_555
O1B Cd1 1_555 1_555
H1B O1B 1_555 1_555
H2B O1B 1_555 1_555
N1B N2B 1_555 1_555
N2B C13B 1_555 1_555
N3B Cd1 1_555 1_555
N4B N5B 1_555 1_555
N5B C15B 1_555 1_555
N6B C15B 1_555 1_555
N7B N8B 1_555 1_555
N8B C17B 1_555 1_555
N9B C17B 1_555 1_555
C1B C2B 1_555 1_555
C2B C3B 1_555 1_555
C3B C4B 1_555 1_555
C4B C5B 1_555 1_555
C5B C6B 1_555 1_555
C6B C1B 1_555 1_555
C7B N1B 1_555 1_555
H3B C7B 1_555 1_555
H4B C7B 1_555 1_555
C8B C2B 1_555 1_555
H5B C8B 1_555 1_555
H6B C8B 1_555 1_555
H7B C8B 1_555 1_555
C9B N4B 1_555 1_555
H8B C9B 1_555 1_555
H9B C9B 1_555 1_555
C10B C4B 1_555 1_555
H10B C10B 1_555 1_555
H11B C10B 1_555 1_555
H12B C10B 1_555 1_555
C11B N7B 1_555 1_555
H13B C11B 1_555 1_555
H14B C11B 1_555 1_555
C12B C6B 1_555 1_555
H15B C12B 1_555 1_555
H16B C12B 1_555 1_555
H17B C12B 1_555 1_555
C13B N3B 1_555 1_555
H18B C13B 1_555 1_555
C14B N1B 1_555 1_555
H19B C14B 1_555 1_555
C15B H20B 1_555 1_555
C16B N4B 1_555 1_555
H21B C16B 1_555 1_555
C17B H22B 1_555 1_555
C18B N7B 1_555 1_555
H23B C18B 1_555 1_555
Cd1A N6B 1_555 1_555
Cd1A_2 N6 1_555 1_555
N6A Cd1 1_555 1_555
N6C Cd1 1_555 1_555
N3 C14 1_555 1_555
N6 C16 1_555 1_555
N9 C18 1_555 1_555
C1 C7 1_555 1_555
C3 C9 1_555 1_555
C5 C11 1_555 1_555
N3B C14B 1_555 1_555
N6B C16B 1_555 1_555
N9B C18B 1_555 1_555
C1B C7B 1_555 1_555
C3B C9B 1_555 1_555
C5B C11B 1_555 1_555

#END
