
#######################################################################
#
#                 Cambridge Crystallographic Data Centre
#                                CCDC 
#
#######################################################################
#
# If this CIF has been generated from an entry in the Cambridge 
# Structural Database, then it will include bibliographic, chemical, 
# crystal, experimental, refinement or atomic coordinate data resulting 
# from the CCDC's data processing and validation procedures.
#
#######################################################################

data_LEWDEY
_symmetry_cell_setting           monoclinic
_symmetry_space_group_name_H-M   'C 2/c'
_symmetry_Int_Tables_number      15
_space_group_name_Hall           '-C 2yn'
loop_
_symmetry_equiv_pos_site_id
_symmetry_equiv_pos_as_xyz
1 x,y,z
2 -x,y,1/2-z
3 1/2+x,1/2+y,z
4 1/2-x,1/2+y,1/2-z
5 -x,-y,-z
6 x,-y,1/2+z
7 1/2-x,1/2-y,-z
8 1/2+x,1/2-y,1/2+z
_cell_length_a                   12.050(3)
_cell_length_b                   20.441(5)
_cell_length_c                   24.029(6)
_cell_angle_alpha                90
_cell_angle_beta                 97.796(4)
_cell_angle_gamma                90
_cell_volume                     5863.98
loop_
_atom_site_label
_atom_site_type_symbol
_atom_site_fract_x
_atom_site_fract_y
_atom_site_fract_z
Cd1 Cd 0.5000 0.5000 0.5000
N1 N 0.4384(3) 0.33383(16) 0.37709(15)
N2 N 0.4192(4) 0.30164(19) 0.42410(18)
N3 N 0.4717(3) 0.40517(16) 0.44490(15)
N4 N 0.2343(3) 0.06338(17) 0.38027(15)
N5 N 0.3084(3) 0.0664(2) 0.42816(18)
N6 N 0.1387(3) 0.03807(18) 0.44814(16)
N7 N 0.7384(3) 0.09609(17) 0.37540(15)
N8 N 0.7232(4) 0.1305(2) 0.42153(19)
N9 N 0.8575(3) 0.05538(18) 0.44283(15)
C1 C 0.4377(3) 0.22977(18) 0.32312(16)
C2 C 0.3461(3) 0.1874(2) 0.32471(17)
C3 C 0.3646(3) 0.1199(2) 0.32505(16)
C4 C 0.4733(3) 0.09517(19) 0.32517(17)
C5 C 0.5622(3) 0.1381(2) 0.32287(16)
C6 C 0.5453(3) 0.20611(19) 0.32332(16)
C7 C 0.4160(4) 0.3041(2) 0.32183(18)
H1 H 0.4635 0.3248 0.2969
H2 H 0.3377 0.3122 0.3063
C8 C 0.2296(4) 0.2134(2) 0.3278(2)
H3 H 0.1780 0.1771 0.3287
H4 H 0.2059 0.2405 0.2952
H5 H 0.2301 0.2394 0.3617
C9 C 0.2673(4) 0.0728(2) 0.32390(18)
H6 H 0.2032 0.0897 0.2985
H7 H 0.2883 0.0305 0.3092
C10 C 0.4947(5) 0.0216(2) 0.3310(2)
H8 H 0.5736 0.0129 0.3301
H9 H 0.4505 -0.0011 0.3003
H10 H 0.4738 0.0065 0.3664
C11 C 0.6791(3) 0.1117(2) 0.31977(18)
H11 H 0.6735 0.0722 0.2964
H12 H 0.7221 0.1444 0.3018
C12 C 0.6430(4) 0.2537(2) 0.3261(2)
H13 H 0.6150 0.2982 0.3258
H14 H 0.6823 0.2469 0.2939
H15 H 0.6939 0.2462 0.3604
C13 C 0.4400(5) 0.3468(2) 0.4634(2)
H16 H 0.4333 0.3388 0.5013
C14 C 0.4676(4) 0.3947(2) 0.39040(19)
H17 H 0.4834 0.4266 0.3644
C15 C 0.2466(4) 0.0509(3) 0.4671(2)
H18 H 0.2755 0.0490 0.5054
C16 C 0.1351(3) 0.0464(2) 0.39304(19)
H19 H 0.0705 0.0410 0.3667
C17 C 0.7951(5) 0.1044(3) 0.4610(2)
H20 H 0.8030 0.1183 0.4987
C18 C 0.8180(3) 0.0525(2) 0.38842(18)
H21 H 0.8435 0.0233 0.3628
N1D N 0.5616(3) 0.66617(16) 0.62291(15)
N2D N 0.5808(4) 0.69836(19) 0.57590(18)
N3D N 0.5283(3) 0.59483(16) 0.55510(15)
N4D N 0.7657(3) 0.93662(17) 0.61973(15)
N5D N 0.6916(3) 0.9336(2) 0.57184(18)
N6D N 0.8613(3) 0.96193(18) 0.55186(16)
N7D N 0.2616(3) 0.90391(17) 0.62460(15)
N8D N 0.2768(4) 0.8695(2) 0.57847(19)
N9D N 0.1425(3) 0.94462(18) 0.55717(15)
C1D C 0.5623(3) 0.77023(18) 0.67688(16)
C2D C 0.6539(3) 0.8126(2) 0.67529(17)
C3D C 0.6354(3) 0.8801(2) 0.67495(16)
C4D C 0.5267(3) 0.90483(19) 0.67483(17)
C5D C 0.4378(3) 0.8619(2) 0.67713(16)
C6D C 0.4547(3) 0.79389(19) 0.67668(16)
C7D C 0.5840(4) 0.6959(2) 0.67817(18)
H1D H 0.5365 0.6752 0.7031
H2D H 0.6623 0.6878 0.6937
C8D C 0.7704(4) 0.7866(2) 0.6722(2)
H3D H 0.8220 0.8229 0.6713
H4D H 0.7941 0.7595 0.7048
H5D H 0.7699 0.7606 0.6383
C9D C 0.7327(4) 0.9272(2) 0.67610(18)
H6D H 0.7968 0.9103 0.7015
H7D H 0.7117 0.9695 0.6908
C10D C 0.5053(5) 0.9784(2) 0.6690(2)
H8D H 0.4264 0.9871 0.6699
H9D H 0.5495 1.0011 0.6997
H10D H 0.5262 0.9935 0.6336
C11D C 0.3209(3) 0.8883(2) 0.68023(18)
H11D H 0.3265 0.9278 0.7036
H12D H 0.2779 0.8556 0.6982
C12D C 0.3570(4) 0.7463(2) 0.6739(2)
H13D H 0.3850 0.7018 0.6742
H14D H 0.3177 0.7531 0.7061
H15D H 0.3061 0.7538 0.6396
C13D C 0.5600(5) 0.6532(2) 0.5366(2)
H16D H 0.5667 0.6612 0.4987
C14D C 0.5324(4) 0.6053(2) 0.60960(19)
H17D H 0.5166 0.5734 0.6356
C15D C 0.7534(4) 0.9491(3) 0.5329(2)
H18D H 0.7245 0.9510 0.4946
C16D C 0.8649(3) 0.9536(2) 0.60696(19)
H19D H 0.9295 0.9590 0.6333
C17D C 0.2049(5) 0.8956(3) 0.5390(2)
H20D H 0.1970 0.8817 0.5013
C18D C 0.1820(3) 0.9475(2) 0.61158(18)
H21D H 0.1565 0.9767 0.6372
Cd1B Cd 0.0000 0.0000 0.5000
Cd1B_2 Cd 0.0000 1.0000 0.5000
Cd1B_3 Cd 1.0000 0.0000 0.5000
Cd1B_4 Cd 1.0000 1.0000 0.5000
N6B N 0.6387(3) 0.53807(18) 0.44814(16)
N6F N 0.3613(3) 0.46193(18) 0.55186(16)
N9B N 0.3575(3) 0.55538(18) 0.44283(15)
N9F N 0.6425(3) 0.44462(18) 0.55717(15)
S1 S 0.5000 0.47219(8) 0.2500
O1 O 0.5495(3) 0.51336(17) 0.20948(15)
O2 O 0.4106(4) 0.43112(19) 0.21949(18)
O1A O 0.4505(3) 0.51336(17) 0.29052(15)
O2A O 0.5894(4) 0.43112(19) 0.28051(18)
O3 O 0.4409(3) 0.6500(2) 0.2948(2)
O4 O 0.1591(4) 0.2786(2) 0.4613(2)
O5 O 0.4832(4) 0.1653(2) 0.46822(19)
O6 O 0.7814(4) 0.4293(3) 0.2205(3)
O7 O 0.1704(5) 0.3888(3) 0.3876(3)
O8 O 0.5327(4) 0.2766(3) 0.6062(3)
O9 O 0.6801(4) 0.2146(3) 0.5364(3)
O10 O 0.7335(7) 0.0957(4) 0.6210(5)
O11 O 0.5556(11) 0.1555(6) 0.6898(11)
O12 O 0.5058(15) 0.0591(9) 0.5414(7)
loop_
_geom_bond_atom_site_label_1
_geom_bond_atom_site_label_2
_geom_bond_site_symmetry_1
_geom_bond_site_symmetry_2
Cd1 N3 1_555 1_555
N1 N2 1_555 1_555
N2 C13 1_555 1_555
N3 C13 1_555 1_555
N4 N5 1_555 1_555
N5 C15 1_555 1_555
N6 C15 1_555 1_555
N7 N8 1_555 1_555
N8 C17 1_555 1_555
N9 C17 1_555 1_555
C1 C2 1_555 1_555
C2 C3 1_555 1_555
C3 C4 1_555 1_555
C4 C5 1_555 1_555
C5 C6 1_555 1_555
C6 C1 1_555 1_555
C7 N1 1_555 1_555
H1 C7 1_555 1_555
H2 C7 1_555 1_555
C8 C2 1_555 1_555
H3 C8 1_555 1_555
H4 C8 1_555 1_555
H5 C8 1_555 1_555
C9 N4 1_555 1_555
H6 C9 1_555 1_555
H7 C9 1_555 1_555
C10 C4 1_555 1_555
H8 C10 1_555 1_555
H9 C10 1_555 1_555
H10 C10 1_555 1_555
C11 N7 1_555 1_555
H11 C11 1_555 1_555
H12 C11 1_555 1_555
C12 C6 1_555 1_555
H13 C12 1_555 1_555
H14 C12 1_555 1_555
H15 C12 1_555 1_555
C13 H16 1_555 1_555
C14 N1 1_555 1_555
H17 C14 1_555 1_555
C15 H18 1_555 1_555
C16 N4 1_555 1_555
H19 C16 1_555 1_555
C17 H20 1_555 1_555
C18 N7 1_555 1_555
H21 C18 1_555 1_555
S1 O1 1_555 1_555
O2 S1 1_555 1_555
N1D N2D 1_555 1_555
N2D C13D 1_555 1_555
N3D Cd1 1_555 1_555
N4D N5D 1_555 1_555
N5D C15D 1_555 1_555
N6D C15D 1_555 1_555
N7D N8D 1_555 1_555
N8D C17D 1_555 1_555
N9D C17D 1_555 1_555
C1D C2D 1_555 1_555
C2D C3D 1_555 1_555
C3D C4D 1_555 1_555
C4D C5D 1_555 1_555
C5D C6D 1_555 1_555
C6D C1D 1_555 1_555
C7D N1D 1_555 1_555
H1D C7D 1_555 1_555
H2D C7D 1_555 1_555
C8D C2D 1_555 1_555
H3D C8D 1_555 1_555
H4D C8D 1_555 1_555
H5D C8D 1_555 1_555
C9D N4D 1_555 1_555
H6D C9D 1_555 1_555
H7D C9D 1_555 1_555
C10D C4D 1_555 1_555
H8D C10D 1_555 1_555
H9D C10D 1_555 1_555
H10D C10D 1_555 1_555
C11D N7D 1_555 1_555
H11D C11D 1_555 1_555
H12D C11D 1_555 1_555
C12D C6D 1_555 1_555
H13D C12D 1_555 1_555
H14D C12D 1_555 1_555
H15D C12D 1_555 1_555
C13D N3D 1_555 1_555
H16D C13D 1_555 1_555
C14D N1D 1_555 1_555
H17D C14D 1_555 1_555
C15D H18D 1_555 1_555
C16D N4D 1_555 1_555
H19D C16D 1_555 1_555
C17D H20D 1_555 1_555
C18D N7D 1_555 1_555
H21D C18D 1_555 1_555
Cd1B N6 1_555 1_555
Cd1B_2 N9D 1_555 1_555
Cd1B_3 N9 1_555 1_555
Cd1B_4 N6D 1_555 1_555
N6B Cd1 1_555 1_555
N6F Cd1 1_555 1_555
N9B Cd1 1_555 1_555
N9F Cd1 1_555 1_555
O1A S1 1_555 1_555
O2A S1 1_555 1_555
N3 C14 1_555 1_555
N6 C16 1_555 1_555
N9 C18 1_555 1_555
C1 C7 1_555 1_555
C3 C9 1_555 1_555
C5 C11 1_555 1_555
N3D C14D 1_555 1_555
N6D C16D 1_555 1_555
N9D C18D 1_555 1_555
C1D C7D 1_555 1_555
C3D C9D 1_555 1_555
C5D C11D 1_555 1_555

#END
