
#######################################################################
#
#                 Cambridge Crystallographic Data Centre
#                                CCDC 
#
#######################################################################
#
# If this CIF has been generated from an entry in the Cambridge 
# Structural Database, then it will include bibliographic, chemical, 
# crystal, experimental, refinement or atomic coordinate data resulting 
# from the CCDC's data processing and validation procedures.
#
#######################################################################

data_LEWFEZ
_symmetry_cell_setting           monoclinic
_symmetry_space_group_name_H-M   'P 21/c'
_symmetry_Int_Tables_number      14
_space_group_name_Hall           '-P 2ybc'
loop_
_symmetry_equiv_pos_site_id
_symmetry_equiv_pos_as_xyz
1 x,y,z
2 -x,1/2+y,1/2-z
3 -x,-y,-z
4 x,1/2-y,1/2+z
_cell_length_a                   13.9915(15)
_cell_length_b                   11.2079(12)
_cell_length_c                   12.8282(14)
_cell_angle_alpha                90
_cell_angle_beta                 102.439(2)
_cell_angle_gamma                90
_cell_volume                     1964.44
loop_
_atom_site_label
_atom_site_type_symbol
_atom_site_fract_x
_atom_site_fract_y
_atom_site_fract_z
Er1 Er 0.729855(12) 0.795913(15) 0.351028(13)
O1 O 0.5161(3) 1.1015(3) 0.3732(3)
H1 H 0.5671 1.1465 0.3986
O2 O 0.6468(2) 0.9921(3) 0.3635(2)
O3 O 0.6582(2) 0.6005(2) 0.3673(2)
O4 O 0.5340(2) 0.4797(3) 0.3754(3)
O5 O 0.7796(2) 0.6709(3) 0.2166(2)
O6 O 0.7254(2) 0.7216(2) 0.0448(2)
O7 O 0.8420(2) 0.5736(2) -0.2203(2)
O8 O 0.9178(3) 0.3977(3) -0.2173(2)
O9 O 0.8726(2) 0.6884(3) 0.4350(2)
H2 H 0.8958 0.6913 0.4997
H3 H 0.8972 0.6348 0.4065
O10 O 0.6327(2) 0.8453(3) 0.1758(2)
H4 H 0.5912 0.8966 0.1690
H5 H 0.6542 0.8327 0.1228
N1 N 0.5506(2) 0.7909(3) 0.3668(3)
N2 N 0.8306(2) 0.5545(3) -0.0194(2)
C1 C 0.4993(3) 0.8924(4) 0.3654(3)
C2 C 0.4000(4) 0.8926(5) 0.3628(4)
H6 H 0.3656 0.9639 0.3607
C3 C 0.3537(4) 0.7848(5) 0.3635(6)
H7 H 0.2868 0.7825 0.3611
C4 C 0.4062(4) 0.6792(5) 0.3678(5)
H8 H 0.3762 0.6055 0.3699
C5 C 0.5056(3) 0.6879(4) 0.3686(3)
C6 C 0.5607(3) 1.0018(4) 0.3672(3)
C7 C 0.5706(3) 0.5804(4) 0.3715(3)
C8 C 0.8254(3) 0.5514(3) 0.0838(3)
C9 C 0.8613(3) 0.4564(4) 0.1500(3)
H9 H 0.8586 0.4573 0.2218
C10 C 0.9009(3) 0.3612(4) 0.1072(3)
H10 H 0.9238 0.2954 0.1494
C11 C 0.9065(3) 0.3636(3) 0.0002(3)
H11 H 0.9329 0.2996 -0.0302
C12 C 0.8720(3) 0.4631(3) -0.0596(3)
C13 C 0.7732(3) 0.6562(3) 0.1192(3)
C14 C 0.8780(3) 0.4778(4) -0.1758(3)
Er1C Er 0.729855(12) 0.704087(15) -0.148972(13)
O6C O 0.7254(2) 0.7784(2) 0.5448(2)
O7C O 0.8420(2) 0.9264(2) 0.2797(2)
N2C N 0.8306(2) 0.9455(3) 0.4806(2)
O11 O 0.9587(2) 0.6931(3) 0.6480(2)
H12 H 0.9840 0.7592 0.6572
H13 H 0.9409 0.6684 0.7004
O12 O 0.6283(3) 0.2745(3) 0.3879(4)
H14 H 0.5977 0.3367 0.3759
H15 H 0.6741 0.2960 0.3473
O13 O 0.8019(3) 0.4040(4) 0.4112(4)
H16 H 0.7932 0.4205 0.4925
H17 H 0.7815 0.4690 0.3874
O14 O 0.9713(2) 0.4420(3) 0.5975(3)
H18 H 0.9889 0.5117 0.6032
H19 H 0.9516 0.4184 0.6492
loop_
_geom_bond_atom_site_label_1
_geom_bond_atom_site_label_2
_geom_bond_site_symmetry_1
_geom_bond_site_symmetry_2
Er1 O2 1_555 1_555
O1 H1 1_555 1_555
O2 C6 1_555 1_555
O3 Er1 1_555 1_555
O4 C7 1_555 1_555
O5 Er1 1_555 1_555
O6 C13 1_555 1_555
O7 C14 1_555 1_555
O8 C14 1_555 1_555
O9 Er1 1_555 1_555
H2 O9 1_555 1_555
H3 O9 1_555 1_555
O10 Er1 1_555 1_555
H4 O10 1_555 1_555
H5 O10 1_555 1_555
N1 Er1 1_555 1_555
N2 C8 1_555 1_555
C1 N1 1_555 1_555
C2 C1 1_555 1_555
H6 C2 1_555 1_555
C3 C2 1_555 1_555
H7 C3 1_555 1_555
C4 C3 1_555 1_555
H8 C4 1_555 1_555
C5 N1 1_555 1_555
C6 O1 1_555 1_555
C7 O3 1_555 1_555
C8 C9 1_555 1_555
C9 H9 1_555 1_555
C10 C9 1_555 1_555
H10 C10 1_555 1_555
C11 C10 1_555 1_555
H11 C11 1_555 1_555
C12 N2 1_555 1_555
C13 O5 1_555 1_555
C14 C12 1_555 1_555
O11 H12 1_555 1_555
H13 O11 1_555 1_555
O12 H14 1_555 1_555
H15 O12 1_555 1_555
O13 H16 1_555 1_555
H17 O13 1_555 1_555
O14 H18 1_555 1_555
H19 O14 1_555 1_555
Er1C O6 1_555 1_555
O6C Er1 1_555 1_555
O7C Er1 1_555 1_555
N2C Er1 1_555 1_555
O7 Er1C 1_555 1_555
N2 Er1C 1_555 1_555
C1 C6 1_555 1_555
C4 C5 1_555 1_555
C5 C7 1_555 1_555
C8 C13 1_555 1_555
C11 C12 1_555 1_555

#END
