
#######################################################################
#
#                 Cambridge Crystallographic Data Centre
#                                CCDC 
#
#######################################################################
#
# If this CIF has been generated from an entry in the Cambridge 
# Structural Database, then it will include bibliographic, chemical, 
# crystal, experimental, refinement or atomic coordinate data resulting 
# from the CCDC's data processing and validation procedures.
#
#######################################################################

data_LEWKAB
_symmetry_cell_setting           triclinic
_symmetry_space_group_name_H-M   'P -1'
_symmetry_Int_Tables_number      2
_space_group_name_Hall           '-P 1'
loop_
_symmetry_equiv_pos_site_id
_symmetry_equiv_pos_as_xyz
1 x,y,z
2 -x,-y,-z
_cell_length_a                   10.508(3)
_cell_length_b                   12.740(4)
_cell_length_c                   16.380(5)
_cell_angle_alpha                79.472(3)
_cell_angle_beta                 85.951(4)
_cell_angle_gamma                87.536(4)
_cell_volume                     2149.51
loop_
_atom_site_label
_atom_site_type_symbol
_atom_site_fract_x
_atom_site_fract_y
_atom_site_fract_z
Co1 Co 0.0000 0.5000 0.5000
Co2 Co 0.29274(5) 1.24709(4) -0.13016(3)
O1 O -0.1359(2) 0.5995(2) 0.42531(16)
O2 O -0.0625(3) 0.3706(2) 0.45602(17)
N1 N 0.3972(3) 1.2397(2) -0.23951(18)
N2 N 0.1357(3) 0.9459(2) -0.04476(19)
O3 O 0.0252(3) 0.2310(2) 0.53859(19)
N3 N 0.2013(3) 1.1047(2) -0.10988(19)
N4 N 0.2401(3) 0.6268(3) 0.28415(19)
O4 O 0.3950(3) 1.2055(2) -0.02873(19)
O5 O 0.1546(3) 1.3543(2) -0.11916(19)
O6 O 0.4437(3) 1.3641(2) -0.09411(19)
C1 C 0.5271(4) 1.1852(3) -0.3415(2)
C2 C 0.4709(4) 1.1538(3) -0.2616(2)
C3 C -0.2930(5) 0.0608(4) 0.3964(3)
H1 H -0.3461 0.0138 0.3763
N5 N 0.1415(3) 0.5315(2) 0.39696(19)
C4 C 0.2688(4) 0.7206(3) 0.2198(2)
H2 H 0.3588 0.7147 0.1984
H3 H 0.2592 0.7855 0.2453
C5 C -0.0505(4) 0.2718(3) 0.4851(2)
C6 C 0.2975(3) 0.5264(3) 0.2944(2)
C7 C 0.2031(4) 0.8401(3) 0.0896(2)
H4 H 0.1787 0.8993 0.1197
H5 H 0.2943 0.8467 0.0701
C8 C 0.1835(4) 0.7329(3) 0.1480(2)
H6 H 0.0932 0.7283 0.1697
H7 H 0.2027 0.6740 0.1167
C9 C 0.2350(3) 0.4674(3) 0.3651(2)
C10 C 0.4116(4) 1.3176(3) -0.3046(2)
H8 H 0.3722 1.3865 -0.3069
N6 N 0.4871(3) 1.2899(3) -0.36716(19)
C11 C 0.4729(4) 1.4680(3) -0.4588(2)
H9 H 0.4930 1.5031 -0.4123
H10 H 0.3789 1.4656 -0.4593
C12 C 0.4580(4) 1.2890(3) -0.0353(3)
C13 C -0.1366(4) 0.1989(3) 0.4532(2)
C14 C 0.1214(4) 1.0656(3) -0.1608(2)
C15 C 0.0790(4) 0.9656(3) -0.1200(2)
C16 C 0.5514(4) 1.2938(3) 0.0287(2)
C17 C 0.2714(4) 0.3612(3) 0.3929(3)
H11 H 0.2308 0.3204 0.4413
C18 C 0.2065(4) 1.0306(3) -0.0424(2)
H12 H 0.2553 1.0364 0.0031
C19 C 0.1229(4) 0.8466(3) 0.0166(2)
H13 H 0.1465 0.7854 -0.0115
H14 H 0.0322 0.8398 0.0372
C20 C 0.3948(4) 0.4824(4) 0.2477(3)
H15 H 0.4351 0.5226 0.1989
C21 C -0.0447(4) 1.5031(3) -0.1016(3)
H16 H -0.0302 1.4495 -0.0544
C22 C 0.0216(4) 1.4976(3) -0.1769(2)
O7 O 0.1491(3) 1.3880(3) -0.2544(2)
C23 C 0.5751(4) 1.2060(3) 0.0888(3)
H17 H 0.5306 1.1422 0.0903
C24 C 0.0818(4) 1.1104(3) -0.2397(2)
H18 H 0.1094 1.1785 -0.2677
C25 C 0.1490(4) 0.6244(3) 0.3469(2)
H19 H 0.0954 0.6843 0.3541
C26 C 0.1148(4) 1.4080(3) -0.1853(3)
C27 C 0.6162(4) 1.3872(3) 0.0275(3)
H20 H 0.6009 1.4483 -0.0138
C28 C -0.0388(5) 0.9522(4) -0.2337(3)
H21 H -0.0943 0.9142 -0.2604
C29 C 0.6079(4) 1.1178(3) -0.3800(3)
H22 H 0.6446 1.1394 -0.4349
C30 C 0.5300(4) 1.3564(3) -0.4466(2)
H23 H 0.5074 1.3217 -0.4927
H24 H 0.6242 1.3602 -0.4493
C31 C -0.1250(4) 0.0897(3) 0.4800(3)
H25 H -0.0631 0.0619 0.5186
C32 C 0.0003(4) 1.5766(3) -0.2450(3)
H26 H 0.0446 1.5732 -0.2971
C33 C 0.4292(4) 0.3773(4) 0.2763(3)
H27 H 0.4961 0.3444 0.2469
C34 C -0.2285(4) 0.2392(4) 0.3981(3)
H28 H -0.2380 0.3141 0.3795
C35 C -0.0016(4) 0.9068(3) -0.1563(3)
H29 H -0.0295 0.8386 -0.1290
C36 C 0.3683(4) 0.3176(4) 0.3476(3)
H30 H 0.3947 0.2451 0.3651
C37 C 0.0019(5) 1.0524(4) -0.2750(3)
H31 H -0.0267 1.0805 -0.3286
C38 C -0.0847(5) 1.6603(4) -0.2377(3)
H32 H -0.0967 1.7154 -0.2843
C39 C 0.7026(4) 1.3908(4) 0.0862(3)
H33 H 0.7457 1.4550 0.0856
C40 C 0.6326(5) 1.0176(4) -0.3345(3)
H34 H 0.6880 0.9690 -0.3585
C41 C -0.3067(5) 0.1696(4) 0.3704(3)
H35 H -0.3703 0.1973 0.3331
C42 C 0.6631(4) 1.2097(4) 0.1470(3)
H36 H 0.6795 1.1483 0.1878
C43 C 0.7271(4) 1.3024(4) 0.1459(3)
H37 H 0.7875 1.3052 0.1859
C44 C -0.1320(5) 1.5863(4) -0.0947(3)
H38 H -0.1778 1.5895 -0.0431
C45 C -0.2017(5) 0.0200(4) 0.4518(3)
H39 H -0.1918 -0.0549 0.4701
C46 C -0.1518(5) 1.6643(4) -0.1635(4)
H40 H -0.2123 1.7210 -0.1593
C47 C 0.5780(5) 0.9860(4) -0.2542(3)
H41 H 0.5971 0.9163 -0.2248
C48 C 0.4974(4) 1.0530(3) -0.2166(3)
H42 H 0.4611 1.0312 -0.1616
H43 H -0.1045 0.6607 0.4224
H44 H -0.1266 0.5970 0.3756
N1A N 0.6028(3) 1.7603(2) -0.76049(18)
C1A C 0.4729(4) 1.8148(3) -0.6585(2)
C2A C 0.5291(4) 1.8462(3) -0.7384(2)
C10A C 0.5884(4) 1.6824(3) -0.6954(2)
H8A H 0.6278 1.6135 -0.6931
N6A N 0.5129(3) 1.7101(3) -0.63284(19)
C11A C 0.5271(4) 1.5320(3) -0.5412(2)
H9A H 0.5070 1.4969 -0.5877
H10A H 0.6211 1.5344 -0.5407
C29A C 0.3921(4) 1.8822(3) -0.6200(3)
H22A H 0.3554 1.8606 -0.5651
C30A C 0.4700(4) 1.6436(3) -0.5534(2)
H23A H 0.4926 1.6783 -0.5073
H24A H 0.3758 1.6398 -0.5507
C40A C 0.3674(5) 1.9824(4) -0.6655(3)
H34A H 0.3120 2.0310 -0.6415
C47A C 0.4220(5) 2.0140(4) -0.7458(3)
H41A H 0.4029 2.0837 -0.7752
C48A C 0.5026(4) 1.9470(3) -0.7834(3)
H42A H 0.5389 1.9688 -0.8384
Co2A Co -0.29274(5) -0.24709(4) 1.13016(3)
O1A O 0.1359(2) 0.4005(2) 0.57469(16)
O2A O 0.0625(3) 0.6294(2) 0.54398(17)
N2A N -0.1357(3) 0.0541(2) 1.04476(19)
O3A O -0.0252(3) 0.7690(2) 0.46141(19)
N3A N -0.2013(3) -0.1047(2) 1.10988(19)
N4A N -0.2401(3) 0.3732(3) 0.71585(19)
O4A O -0.3950(3) -0.2055(2) 1.02873(19)
O5A O -0.1546(3) -0.3543(2) 1.11916(19)
O6A O -0.4437(3) -0.3641(2) 1.09411(19)
C3A C 0.2930(5) 0.9392(4) 0.6036(3)
H1A H 0.3461 0.9862 0.6237
N5A N -0.1415(3) 0.4685(2) 0.60304(19)
C4A C -0.2688(4) 0.2794(3) 0.7802(2)
H2A H -0.3588 0.2853 0.8016
H3A H -0.2592 0.2145 0.7547
C5A C 0.0505(4) 0.7282(3) 0.5149(2)
C6A C -0.2975(3) 0.4736(3) 0.7056(2)
C7A C -0.2031(4) 0.1599(3) 0.9104(2)
H4A H -0.1787 0.1007 0.8803
H5A H -0.2943 0.1533 0.9299
C8A C -0.1835(4) 0.2671(3) 0.8520(2)
H6A H -0.0932 0.2717 0.8303
H7A H -0.2027 0.3260 0.8833
C9A C -0.2350(3) 0.5326(3) 0.6349(2)
C12A C -0.4580(4) -0.2890(3) 1.0353(3)
C13A C 0.1366(4) 0.8011(3) 0.5468(2)
C14A C -0.1214(4) -0.0656(3) 1.1608(2)
C15A C -0.0790(4) 0.0344(3) 1.1200(2)
C16A C -0.5514(4) -0.2938(3) 0.9713(2)
C17A C -0.2714(4) 0.6388(3) 0.6071(3)
H11A H -0.2308 0.6796 0.5587
C18A C -0.2065(4) -0.0306(3) 1.0424(2)
H12A H -0.2553 -0.0364 0.9969
C19A C -0.1229(4) 0.1534(3) 0.9834(2)
H13A H -0.1465 0.2146 1.0115
H14A H -0.0322 0.1602 0.9628
C20A C -0.3948(4) 0.5176(4) 0.7523(3)
H15A H -0.4351 0.4774 0.8011
C21A C 0.0447(4) -0.5031(3) 1.1016(3)
H16A H 0.0302 -0.4495 1.0544
C22A C -0.0216(4) -0.4976(3) 1.1769(2)
O7A O -0.1491(3) -0.3880(3) 1.2544(2)
C23A C -0.5751(4) -0.2060(3) 0.9112(3)
H17A H -0.5306 -0.1422 0.9097
C24A C -0.0818(4) -0.1104(3) 1.2397(2)
H18A H -0.1094 -0.1785 1.2677
C25A C -0.1490(4) 0.3756(3) 0.6531(2)
H19A H -0.0954 0.3157 0.6459
C26A C -0.1148(4) -0.4080(3) 1.1853(3)
C27A C -0.6162(4) -0.3872(3) 0.9725(3)
H20A H -0.6009 -0.4483 1.0138
C28A C 0.0388(5) 0.0478(4) 1.2337(3)
H21A H 0.0943 0.0858 1.2604
C31A C 0.1250(4) 0.9103(3) 0.5200(3)
H25A H 0.0631 0.9381 0.4814
C32A C -0.0003(4) -0.5766(3) 1.2450(3)
H26A H -0.0446 -0.5732 1.2971
C33A C -0.4292(4) 0.6227(4) 0.7237(3)
H27A H -0.4961 0.6556 0.7531
C34A C 0.2285(4) 0.7608(4) 0.6019(3)
H28A H 0.2380 0.6859 0.6205
C35A C 0.0016(4) 0.0932(3) 1.1563(3)
H29A H 0.0295 0.1614 1.1290
C36A C -0.3683(4) 0.6824(4) 0.6524(3)
H30A H -0.3947 0.7549 0.6349
C37A C -0.0019(5) -0.0524(4) 1.2750(3)
H31A H 0.0267 -0.0805 1.3286
C38A C 0.0847(5) -0.6603(4) 1.2377(3)
H32A H 0.0967 -0.7154 1.2843
C39A C -0.7026(4) -0.3908(4) 0.9138(3)
H33A H -0.7457 -0.4550 0.9144
C41A C 0.3067(5) 0.8304(4) 0.6296(3)
H35A H 0.3703 0.8027 0.6669
C42A C -0.6631(4) -0.2097(4) 0.8530(3)
H36A H -0.6795 -0.1483 0.8122
C43A C -0.7271(4) -0.3024(4) 0.8541(3)
H37A H -0.7875 -0.3052 0.8141
C44A C 0.1320(5) -0.5863(4) 1.0947(3)
H38A H 0.1778 -0.5895 1.0431
C45A C 0.2017(5) 0.9800(4) 0.5482(3)
H39A H 0.1918 1.0549 0.5299
C46A C 0.1518(5) -0.6643(4) 1.1635(4)
H40A H 0.2123 -0.7210 1.1593
H43A H 0.1045 0.3393 0.5776
H44A H 0.1266 0.4030 0.6244
Co2A_2 Co 0.70726(5) 1.75291(4) -0.86984(3)
N1A_2 N -0.3972(3) -0.2397(2) 1.23951(18)
loop_
_geom_bond_atom_site_label_1
_geom_bond_atom_site_label_2
_geom_bond_site_symmetry_1
_geom_bond_site_symmetry_2
Co1 O1 1_555 1_555
Co2 N1 1_555 1_555
O1 H43 1_555 1_555
O2 Co1 1_555 1_555
N1 C2 1_555 1_555
N2 C15 1_555 1_555
O3 C5 1_555 1_555
N3 Co2 1_555 1_555
N4 C4 1_555 1_555
O4 Co2 1_555 1_555
O5 Co2 1_555 1_555
O6 Co2 1_555 1_555
C1 C2 1_555 1_555
C2 C48 1_555 1_555
C3 H1 1_555 1_555
N5 Co1 1_555 1_555
C4 H2 1_555 1_555
H3 C4 1_555 1_555
C5 O2 1_555 1_555
C6 N4 1_555 1_555
C7 H4 1_555 1_555
H5 C7 1_555 1_555
C8 C4 1_555 1_555
H6 C8 1_555 1_555
H7 C8 1_555 1_555
C9 N5 1_555 1_555
C10 N1 1_555 1_555
H8 C10 1_555 1_555
N6 C1 1_555 1_555
C11 H9 1_555 1_555
H10 C11 1_555 1_555
C12 O4 1_555 1_555
C13 C5 1_555 1_555
C14 N3 1_555 1_555
C15 C14 1_555 1_555
C16 C12 1_555 1_555
C17 C9 1_555 1_555
H11 C17 1_555 1_555
C18 N2 1_555 1_555
H12 C18 1_555 1_555
C19 N2 1_555 1_555
H13 C19 1_555 1_555
H14 C19 1_555 1_555
C20 C6 1_555 1_555
H15 C20 1_555 1_555
C21 H16 1_555 1_555
C22 C21 1_555 1_555
O7 C26 1_555 1_555
C23 C16 1_555 1_555
H17 C23 1_555 1_555
C24 C14 1_555 1_555
H18 C24 1_555 1_555
C25 N4 1_555 1_555
H19 C25 1_555 1_555
C26 O5 1_555 1_555
C27 C16 1_555 1_555
H20 C27 1_555 1_555
C28 H21 1_555 1_555
C29 C1 1_555 1_555
H22 C29 1_555 1_555
C30 N6 1_555 1_555
H23 C30 1_555 1_555
H24 C30 1_555 1_555
C31 C13 1_555 1_555
H25 C31 1_555 1_555
C32 C22 1_555 1_555
H26 C32 1_555 1_555
C33 C20 1_555 1_555
H27 C33 1_555 1_555
C34 C13 1_555 1_555
H28 C34 1_555 1_555
C35 C15 1_555 1_555
H29 C35 1_555 1_555
C36 C17 1_555 1_555
H30 C36 1_555 1_555
C37 C24 1_555 1_555
H31 C37 1_555 1_555
C38 C32 1_555 1_555
H32 C38 1_555 1_555
C39 C27 1_555 1_555
H33 C39 1_555 1_555
C40 C29 1_555 1_555
H34 C40 1_555 1_555
C41 C3 1_555 1_555
H35 C41 1_555 1_555
C42 C23 1_555 1_555
H36 C42 1_555 1_555
C43 C39 1_555 1_555
H37 C43 1_555 1_555
C44 C21 1_555 1_555
H38 C44 1_555 1_555
C45 C3 1_555 1_555
H39 C45 1_555 1_555
C46 C38 1_555 1_555
H40 C46 1_555 1_555
C47 C40 1_555 1_555
H41 C47 1_555 1_555
C48 C47 1_555 1_555
H42 C48 1_555 1_555
H44 O1 1_555 1_555
N1A C2A 1_555 1_555
C1A C2A 1_555 1_555
C2A C48A 1_555 1_555
C10A N1A 1_555 1_555
H8A C10A 1_555 1_555
N6A C1A 1_555 1_555
C11A C11 1_555 1_555
H9A C11A 1_555 1_555
H10A C11A 1_555 1_555
C29A C1A 1_555 1_555
H22A C29A 1_555 1_555
C30A N6A 1_555 1_555
H23A C30A 1_555 1_555
H24A C30A 1_555 1_555
C40A C29A 1_555 1_555
H34A C40A 1_555 1_555
C47A C40A 1_555 1_555
H41A C47A 1_555 1_555
C48A C47A 1_555 1_555
H42A C48A 1_555 1_555
Co2A N3A 1_555 1_555
O1A Co1 1_555 1_555
O2A Co1 1_555 1_555
N2A C15A 1_555 1_555
O3A C5A 1_555 1_555
N3A C14A 1_555 1_555
N4A C4A 1_555 1_555
O4A Co2A 1_555 1_555
O5A Co2A 1_555 1_555
O6A Co2A 1_555 1_555
C3A H1A 1_555 1_555
N5A Co1 1_555 1_555
C4A H2A 1_555 1_555
H3A C4A 1_555 1_555
C5A O2A 1_555 1_555
C6A N4A 1_555 1_555
C7A H4A 1_555 1_555
H5A C7A 1_555 1_555
C8A C4A 1_555 1_555
H6A C8A 1_555 1_555
H7A C8A 1_555 1_555
C9A N5A 1_555 1_555
C12A O4A 1_555 1_555
C13A C5A 1_555 1_555
C14A C15A 1_555 1_555
C15A C35A 1_555 1_555
C16A C12A 1_555 1_555
C17A C9A 1_555 1_555
H11A C17A 1_555 1_555
C18A N2A 1_555 1_555
H12A C18A 1_555 1_555
C19A N2A 1_555 1_555
H13A C19A 1_555 1_555
H14A C19A 1_555 1_555
C20A C6A 1_555 1_555
H15A C20A 1_555 1_555
C21A H16A 1_555 1_555
C22A C21A 1_555 1_555
O7A C26A 1_555 1_555
C23A C16A 1_555 1_555
H17A C23A 1_555 1_555
C24A C14A 1_555 1_555
H18A C24A 1_555 1_555
C25A N4A 1_555 1_555
H19A C25A 1_555 1_555
C26A O5A 1_555 1_555
C27A C16A 1_555 1_555
H20A C27A 1_555 1_555
C28A H21A 1_555 1_555
C31A C13A 1_555 1_555
H25A C31A 1_555 1_555
C32A C22A 1_555 1_555
H26A C32A 1_555 1_555
C33A C20A 1_555 1_555
H27A C33A 1_555 1_555
C34A C13A 1_555 1_555
H28A C34A 1_555 1_555
C35A C28A 1_555 1_555
H29A C35A 1_555 1_555
C36A C17A 1_555 1_555
H30A C36A 1_555 1_555
C37A C24A 1_555 1_555
H31A C37A 1_555 1_555
C38A C32A 1_555 1_555
H32A C38A 1_555 1_555
C39A C27A 1_555 1_555
H33A C39A 1_555 1_555
C41A C3A 1_555 1_555
H35A C41A 1_555 1_555
C42A C23A 1_555 1_555
H36A C42A 1_555 1_555
C43A C39A 1_555 1_555
H37A C43A 1_555 1_555
C44A C21A 1_555 1_555
H38A C44A 1_555 1_555
C45A C3A 1_555 1_555
H39A C45A 1_555 1_555
C46A C38A 1_555 1_555
H40A C46A 1_555 1_555
H43A O1A 1_555 1_555
H44A O1A 1_555 1_555
Co2A_2 N1A 1_555 1_555
N1A_2 Co2A 1_555 1_555
N3 C18 1_555 1_555
O6 C12 1_555 1_555
N5 C25 1_555 1_555
C6 C9 1_555 1_555
C7 C8 1_555 1_555
C7 C19 1_555 1_555
C10 N6 1_555 1_555
C11 C30 1_555 1_555
C22 C26 1_555 1_555
C28 C35 1_555 1_555
C28 C37 1_555 1_555
C31 C45 1_555 1_555
C33 C36 1_555 1_555
C34 C41 1_555 1_555
C42 C43 1_555 1_555
C44 C46 1_555 1_555
C10A N6A 1_555 1_555
C11A C30A 1_555 1_555
N3A C18A 1_555 1_555
O6A C12A 1_555 1_555
N5A C25A 1_555 1_555
C6A C9A 1_555 1_555
C7A C8A 1_555 1_555
C7A C19A 1_555 1_555
C22A C26A 1_555 1_555
C28A C37A 1_555 1_555
C31A C45A 1_555 1_555
C33A C36A 1_555 1_555
C34A C41A 1_555 1_555
C42A C43A 1_555 1_555
C44A C46A 1_555 1_555

#END
