
#######################################################################
#
#                 Cambridge Crystallographic Data Centre
#                                CCDC 
#
#######################################################################
#
# If this CIF has been generated from an entry in the Cambridge 
# Structural Database, then it will include bibliographic, chemical, 
# crystal, experimental, refinement or atomic coordinate data resulting 
# from the CCDC's data processing and validation procedures.
#
#######################################################################

data_LEWLEG01
_symmetry_cell_setting           orthorhombic
_symmetry_space_group_name_H-M   'C m c 21'
_symmetry_Int_Tables_number      36
_space_group_name_Hall           'C 2n -2'
loop_
_symmetry_equiv_pos_site_id
_symmetry_equiv_pos_as_xyz
1 x,y,z
2 -x,-y,1/2+z
3 -x,y,z
4 x,-y,1/2+z
5 1/2+x,1/2+y,z
6 1/2-x,1/2-y,1/2+z
7 1/2-x,1/2+y,z
8 1/2+x,1/2-y,1/2+z
_cell_length_a                   15.835(2)
_cell_length_b                   15.794(2)
_cell_length_c                   6.3968(9)
_cell_angle_alpha                90
_cell_angle_beta                 90
_cell_angle_gamma                90
_cell_volume                     1599.83
loop_
_atom_site_label
_atom_site_type_symbol
_atom_site_fract_x
_atom_site_fract_y
_atom_site_fract_z
Cu1 Cu 0.5000 0.85773(2) 0.43385(10)
S1 S 0.5000 1.15504(7) 0.3828(2)
N1 N 0.5000 0.9810(2) 0.4336(10)
N2 N 0.5000 0.7344(2) 0.4142(11)
N3 N 0.62762(17) 0.85973(12) 0.4100(7)
N4 N 0.8884(3) 0.8704(3) 0.3434(9)
H1 H 0.9226 0.9058 0.4439
H2 H 0.9186 0.8412 0.2246
C1 C 0.5000 1.0526(2) 0.4139(8)
C2 C 0.6753(2) 0.9084(2) 0.5330(7)
H3 H 0.6487 0.9401 0.6363
C3 C 0.7615(2) 0.9142(2) 0.5156(8)
H4 H 0.7919 0.9488 0.6060
C4 C 0.8030(3) 0.8683(2) 0.3627(7)
C5 C 0.7532(3) 0.8186(3) 0.2313(7)
H5 H 0.7780 0.7875 0.1242
C6 C 0.6686(2) 0.8161(2) 0.2608(6)
H6 H 0.6368 0.7820 0.1722
S2 S 0.5196(2) 0.56672(11) 0.3027(4)
C7 C 0.4893(15) 0.6647(4) 0.3669(9)
S2B S 0.4804(2) 0.56672(11) 0.3027(4)
C7B C 0.5107(15) 0.6647(4) 0.3669(9)
N3B N 0.37238(17) 0.85973(12) 0.4100(7)
N4B N 0.1116(3) 0.8704(3) 0.3434(9)
H1B H 0.0774 0.9058 0.4439
H2B H 0.0814 0.8412 0.2246
C2B C 0.3247(2) 0.9084(2) 0.5330(7)
H3B H 0.3513 0.9401 0.6363
C3B C 0.2385(2) 0.9142(2) 0.5156(8)
H4B H 0.2081 0.9488 0.6060
C4B C 0.1970(3) 0.8683(2) 0.3627(7)
C5B C 0.2468(3) 0.8186(3) 0.2313(7)
H5B H 0.2220 0.7875 0.1242
C6B C 0.3314(2) 0.8161(2) 0.2608(6)
H6B H 0.3632 0.7820 0.1722
Cu1A Cu 0.5000 1.14227(2) -0.06615(10)
S1A S 0.5000 0.84496(7) 0.8828(2)
loop_
_geom_bond_atom_site_label_1
_geom_bond_atom_site_label_2
_geom_bond_site_symmetry_1
_geom_bond_site_symmetry_2
Cu1 N1 1_555 1_555
S1 C1 1_555 1_555
N1 C1 1_555 1_555
N2 Cu1 1_555 1_555
N3 Cu1 1_555 1_555
N4 H1 1_555 1_555
H2 N4 1_555 1_555
C2 N3 1_555 1_555
H3 C2 1_555 1_555
C3 C2 1_555 1_555
H4 C3 1_555 1_555
C4 N4 1_555 1_555
C5 C4 1_555 1_555
H5 C5 1_555 1_555
C6 N3 1_555 1_555
H6 C6 1_555 1_555
S2 C7 1_555 1_555
C7 N2 1_555 1_555
S2B S2 1_555 1_555
C7B N2 1_555 1_555
N3B Cu1 1_555 1_555
N4B H1B 1_555 1_555
H2B N4B 1_555 1_555
C2B N3B 1_555 1_555
H3B C2B 1_555 1_555
C3B C2B 1_555 1_555
H4B C3B 1_555 1_555
C4B N4B 1_555 1_555
C5B C4B 1_555 1_555
H5B C5B 1_555 1_555
C6B N3B 1_555 1_555
H6B C6B 1_555 1_555
Cu1A S1 1_555 1_555
S1A Cu1 1_555 1_555
C3 C4 1_555 1_555
C5 C6 1_555 1_555
S2 C7B 1_555 1_555
C7 S2B 1_555 1_555
S2B C7B 1_555 1_555
C3B C4B 1_555 1_555
C5B C6B 1_555 1_555

#END
