
#######################################################################
#
#                 Cambridge Crystallographic Data Centre
#                                CCDC 
#
#######################################################################
#
# If this CIF has been generated from an entry in the Cambridge 
# Structural Database, then it will include bibliographic, chemical, 
# crystal, experimental, refinement or atomic coordinate data resulting 
# from the CCDC's data processing and validation procedures.
#
#######################################################################

data_LEWREL
_symmetry_cell_setting           monoclinic
_symmetry_space_group_name_H-M   'C 2/c'
_symmetry_Int_Tables_number      15
_space_group_name_Hall           '-C 2yn'
loop_
_symmetry_equiv_pos_site_id
_symmetry_equiv_pos_as_xyz
1 x,y,z
2 1/2+x,1/2+y,z
3 -x,y,1/2-z
4 1/2-x,1/2+y,1/2-z
5 -x,-y,-z
6 1/2-x,1/2-y,-z
7 x,-y,1/2+z
8 1/2+x,1/2-y,1/2+z
_cell_length_a                   27.197(5)
_cell_length_b                   27.682(6)
_cell_length_c                   15.316(3)
_cell_angle_alpha                90
_cell_angle_beta                 104.23(3)
_cell_angle_gamma                90
_cell_volume                     11177.1
loop_
_atom_site_label
_atom_site_type_symbol
_atom_site_fract_x
_atom_site_fract_y
_atom_site_fract_z
Er1 Er 0.320889(15) 0.190967(14) 0.75218(3)
Pt1 Pt 0.029378(12) 0.003771(12) 0.85933(2)
N1 N -0.0311(3) -0.0327(2) 0.8872(4)
N2 N -0.0148(3) 0.0611(2) 0.8806(5)
N3 N 0.2449(3) 0.1456(3) 0.7791(5)
N4 N 0.3536(3) 0.2725(3) 0.7222(4)
O1 O 0.2798(2) 0.2432(2) 0.8303(4)
O2 O 0.3778(2) 0.2119(2) 0.8856(4)
O3 O 0.3888(2) 0.1769(2) 0.6935(4)
O4 O 0.3564(2) 0.1193(2) 0.8197(4)
O5 O 0.2955(2) 0.1329(2) 0.6383(4)
O6 O 0.2559(2) 0.2241(2) 0.6449(4)
C1 C -0.0370(3) -0.0812(3) 0.8907(5)
H1 H -0.0108 -0.1010 0.8831
C2 C -0.0802(4) -0.1024(4) 0.9051(6)
H2 H -0.0828 -0.1359 0.9070
C3 C -0.1195(4) -0.0735(4) 0.9168(6)
H3 H -0.1490 -0.0870 0.9267
C4 C -0.1139(4) -0.0242(4) 0.9136(6)
H4 H -0.1402 -0.0042 0.9205
C5 C -0.0697(3) -0.0037(3) 0.9001(5)
C6 C -0.0601(3) 0.0484(3) 0.8993(6)
C7 C -0.0916(4) 0.0837(3) 0.9190(6)
H5 H -0.1214 0.0748 0.9342
C8 C -0.0794(4) 0.1315(4) 0.9163(6)
H6 H -0.1008 0.1552 0.9291
C9 C -0.0345(3) 0.1440(3) 0.8941(6)
H7 H -0.0257 0.1763 0.8908
C10 C -0.0030(4) 0.1079(3) 0.8770(6)
H8 H 0.0272 0.1164 0.8627
C11 C 0.0836(3) 0.0428(3) 0.8341(5)
C12 C 0.1166(3) 0.0674(3) 0.8181(6)
C13 C 0.1591(3) 0.0942(3) 0.8022(5)
C14 C 0.2039(3) 0.0704(3) 0.7943(6)
H9 H 0.2056 0.0368 0.7955
C15 C 0.2442(3) 0.0967(3) 0.7849(6)
H10 H 0.2735 0.0801 0.7822
C16 C 0.2015(3) 0.1680(3) 0.7821(6)
H11 H 0.2002 0.2015 0.7760
C17 C 0.1585(3) 0.1447(3) 0.7936(5)
H12 H 0.1296 0.1623 0.7955
C18 C 0.4331(3) 0.4466(3) 0.6567(6)
C19 C 0.4119(3) 0.4089(3) 0.6697(6)
C20 C 0.3236(3) 0.3117(3) 0.7053(6)
H13 H 0.2895 0.3081 0.7046
C21 C 0.3405(3) 0.3564(3) 0.6889(5)
H14 H 0.3181 0.3824 0.6780
C22 C 0.3914(3) 0.3635(3) 0.6884(6)
C23 C 0.4224(3) 0.3233(3) 0.7070(6)
H15 H 0.4567 0.3259 0.7078
C24 C 0.4027(4) 0.2793(3) 0.7242(6)
H16 H 0.4246 0.2531 0.7380
C25 C 0.4309(5) 0.2496(4) 1.0121(7)
C26 C 0.3784(4) 0.2453(4) 0.9442(6)
C27 C 0.3400(4) 0.2750(3) 0.9539(6)
H17 H 0.3464 0.2981 0.9996
C28 C 0.2912(4) 0.2716(3) 0.8963(6)
C29 C 0.2500(4) 0.3012(3) 0.9154(6)
C30 C 0.2484(4) 0.3321(3) 0.9889(6)
H18 H 0.2764 0.3384 1.0363
C31 C 0.2013(5) 0.3517(4) 0.9826(7)
H19 H 0.1939 0.3724 1.0255
C32 C 0.1669(5) 0.3376(4) 0.9071(8)
H20 H 0.1334 0.3481 0.8920
C33 C 0.4459(4) 0.1437(4) 0.6183(8)
C34 C 0.4143(4) 0.1387(4) 0.6888(7)
C35 C 0.4169(4) 0.0972(4) 0.7366(7)
H21 H 0.4369 0.0721 0.7242
C36 C 0.3902(4) 0.0903(3) 0.8057(7)
C37 C 0.4017(4) 0.0478(4) 0.8635(8)
C38 C 0.4370(5) 0.0126(4) 0.8680(11)
H22 H 0.4589 0.0106 0.8302
C39 C 0.4360(6) -0.0212(5) 0.9381(13)
H23 H 0.4580 -0.0474 0.9513
C40 C 0.4007(6) -0.0119(5) 0.9833(11)
H24 H 0.3947 -0.0306 1.0301
C41 C 0.1771(3) 0.2411(3) 0.5485(6)
C42 C 0.2200(3) 0.2053(3) 0.5843(5)
C43 C 0.2158(3) 0.1599(3) 0.5508(6)
H25 H 0.1868 0.1515 0.5069
C44 C 0.2541(3) 0.1246(3) 0.5805(6)
C45 C 0.2463(3) 0.0748(3) 0.5484(6)
C46 C 0.2061(4) 0.0530(3) 0.4888(6)
H26 H 0.1778 0.0700 0.4569
C47 C 0.2116(4) 0.0032(4) 0.4807(7)
H27 H 0.1870 -0.0166 0.4451
C48 C 0.2570(5) -0.0131(4) 0.5309(8)
H28 H 0.2675 -0.0451 0.5321
F1 F 0.4322(3) 0.2815(3) 1.0765(4)
F2 F 0.4656(2) 0.2647(3) 0.9681(5)
F3 F 0.4478(3) 0.2080(3) 1.0482(5)
F4 F 0.4789(3) 0.1788(3) 0.6390(5)
F5 F 0.4722(3) 0.1040(3) 0.6088(5)
F6 F 0.4165(3) 0.1533(3) 0.5369(5)
F7 F 0.1553(2) 0.2536(2) 0.6158(4)
F8 F 0.1930(2) 0.2819(2) 0.5186(4)
F9 F 0.1399(2) 0.2239(2) 0.4823(4)
S1 S 0.19117(11) 0.29889(11) 0.84261(19)
S2 S 0.36839(17) 0.03885(15) 0.9430(3)
S3 S 0.29270(11) 0.03243(10) 0.5917(2)
Pt1C Pt 0.470622(12) 0.503771(12) 0.64067(2)
C18C C 0.0669(3) -0.0534(3) 0.8433(6)
Cl1 Cl 0.81041(19) -0.37995(18) 1.3739(3)
Cl2 Cl 0.7502(2) -0.4422(2) 1.2435(4)
C50 C 0.8085(7) -0.4202(9) 1.2888(17)
H31 H 0.8210 -0.4045 1.2419
H32 H 0.8311 -0.4469 1.3117
Cl3 Cl 1.0609(3) -0.2703(3) 1.2239(5)
Cl4 Cl 1.0594(5) -0.3753(4) 1.2073(8)
C51 C 1.0657(10) -0.3183(11) 1.1604(17)
H33 H 1.0984 -0.3170 1.1459
H34 H 1.0399 -0.3155 1.1042
C49? C 0.7969(11) -0.4368(7) 1.3376(17)
H29? H 0.8274 -0.4513 1.3269
H30? H 0.7877 -0.4551 1.3851
loop_
_geom_bond_atom_site_label_1
_geom_bond_atom_site_label_2
_geom_bond_site_symmetry_1
_geom_bond_site_symmetry_2
Er1 N3 1_555 1_555
Pt1 N1 1_555 1_555
N1 C1 1_555 1_555
N2 Pt1 1_555 1_555
N3 C15 1_555 1_555
N4 Er1 1_555 1_555
O1 Er1 1_555 1_555
O2 Er1 1_555 1_555
O3 Er1 1_555 1_555
O4 Er1 1_555 1_555
O5 Er1 1_555 1_555
O6 Er1 1_555 1_555
C1 H1 1_555 1_555
C2 C1 1_555 1_555
H2 C2 1_555 1_555
C3 C2 1_555 1_555
H3 C3 1_555 1_555
C4 C3 1_555 1_555
H4 C4 1_555 1_555
C5 N1 1_555 1_555
C6 N2 1_555 1_555
C7 C6 1_555 1_555
H5 C7 1_555 1_555
C8 C7 1_555 1_555
H6 C8 1_555 1_555
C9 C8 1_555 1_555
H7 C9 1_555 1_555
C10 N2 1_555 1_555
H8 C10 1_555 1_555
C11 Pt1 1_555 1_555
C12 C11 1_555 1_555
C13 C12 1_555 1_555
C14 C13 1_555 1_555
H9 C14 1_555 1_555
C15 C14 1_555 1_555
H10 C15 1_555 1_555
C16 N3 1_555 1_555
H11 C16 1_555 1_555
C17 C13 1_555 1_555
H12 C17 1_555 1_555
C18 C19 1_555 1_555
C19 C22 1_555 1_555
C20 N4 1_555 1_555
H13 C20 1_555 1_555
C21 C20 1_555 1_555
H14 C21 1_555 1_555
C22 C21 1_555 1_555
C23 C22 1_555 1_555
H15 C23 1_555 1_555
C24 N4 1_555 1_555
H16 C24 1_555 1_555
C25 C26 1_555 1_555
C26 O2 1_555 1_555
C27 C26 1_555 1_555
H17 C27 1_555 1_555
C28 O1 1_555 1_555
C29 C28 1_555 1_555
C30 C29 1_555 1_555
H18 C30 1_555 1_555
C31 C30 1_555 1_555
H19 C31 1_555 1_555
C32 C31 1_555 1_555
H20 C32 1_555 1_555
C33 C34 1_555 1_555
C34 O3 1_555 1_555
C35 C34 1_555 1_555
H21 C35 1_555 1_555
C36 O4 1_555 1_555
C37 C36 1_555 1_555
C38 C37 1_555 1_555
H22 C38 1_555 1_555
C39 C38 1_555 1_555
H23 C39 1_555 1_555
C40 C39 1_555 1_555
H24 C40 1_555 1_555
C41 C42 1_555 1_555
C42 O6 1_555 1_555
C43 C42 1_555 1_555
H25 C43 1_555 1_555
C44 O5 1_555 1_555
C45 C44 1_555 1_555
C46 C45 1_555 1_555
H26 C46 1_555 1_555
C47 C46 1_555 1_555
H27 C47 1_555 1_555
C48 C47 1_555 1_555
H28 C48 1_555 1_555
F1 C25 1_555 1_555
F2 C25 1_555 1_555
F3 C25 1_555 1_555
F4 C33 1_555 1_555
F5 C33 1_555 1_555
F6 C33 1_555 1_555
F7 C41 1_555 1_555
F8 C41 1_555 1_555
F9 C41 1_555 1_555
S1 C29 1_555 1_555
S2 C37 1_555 1_555
S3 C45 1_555 1_555
Cl1 C50 1_555 1_555
Cl2 C50 1_555 1_555
C50 H31 1_555 1_555
H32 C50 1_555 1_555
Cl3 C51 1_555 1_555
Cl4 C51 1_555 1_555
C51 H33 1_555 1_555
H34 C51 1_555 1_555
Pt1C C18 1_555 1_555
C18C Pt1 1_555 1_555
C4 C5 1_555 1_555
C5 C6 1_555 1_555
C9 C10 1_555 1_555
C16 C17 1_555 1_555
C23 C24 1_555 1_555
C27 C28 1_555 1_555
C32 S1 1_555 1_555
C35 C36 1_555 1_555
C40 S2 1_555 1_555
C43 C44 1_555 1_555
C48 S3 1_555 1_555

#END
