
#######################################################################
#
#                 Cambridge Crystallographic Data Centre
#                                CCDC 
#
#######################################################################
#
# If this CIF has been generated from an entry in the Cambridge 
# Structural Database, then it will include bibliographic, chemical, 
# crystal, experimental, refinement or atomic coordinate data resulting 
# from the CCDC's data processing and validation procedures.
#
#######################################################################

data_LEWVIU
_symmetry_cell_setting           monoclinic
_symmetry_space_group_name_H-M   'P 21/c'
_symmetry_Int_Tables_number      14
_space_group_name_Hall           '-P 2ybc'
loop_
_symmetry_equiv_pos_site_id
_symmetry_equiv_pos_as_xyz
1 x,y,z
2 -x,1/2+y,1/2-z
3 -x,-y,-z
4 x,1/2-y,1/2+z
_cell_length_a                   15.0898(10)
_cell_length_b                   12.3402(8)
_cell_length_c                   12.2249(8)
_cell_angle_alpha                90
_cell_angle_beta                 107.505(1)
_cell_angle_gamma                90
_cell_volume                     2170.99
loop_
_atom_site_label
_atom_site_type_symbol
_atom_site_fract_x
_atom_site_fract_y
_atom_site_fract_z
Cu1 Cu 0.36822(2) 0.42376(3) 0.57976(3)
O1 O 0.36807(14) 0.53386(15) 0.45656(18)
O2 O 0.51403(14) 0.45223(16) 0.68200(19)
H1 H 0.5187 0.5136 0.7130
H2 H 0.5494 0.4571 0.6461
O3 O 0.21908(15) 0.49726(17) 0.42682(19)
O4 O 0.32646(14) 0.97186(16) 0.17048(18)
O5 O 0.44808(14) 0.86943(16) 0.26250(18)
N1 N 0.30009(16) 0.30689(18) 0.6389(2)
N2 N 0.40415(17) 0.29595(18) 0.5014(2)
C1 C 0.2558(2) 0.6459(2) 0.3262(3)
C2 C 0.3217(2) 0.7195(2) 0.3148(3)
H3 H 0.3847 0.7125 0.3603
C3 C 0.2949(2) 0.8037(2) 0.2360(3)
C4 C 0.2034(2) 0.8120(2) 0.1690(3)
H4 H 0.1860 0.8697 0.1154
C5 C 0.1360(2) 0.7384(3) 0.1777(3)
C6 C 0.1643(2) 0.6565(2) 0.2593(3)
H5 H 0.1195 0.6065 0.2693
C7 C 0.2809(2) 0.5522(2) 0.4091(3)
C8 C 0.3637(2) 0.8863(2) 0.2225(2)
C9 C 0.0365(2) 0.7508(3) 0.1003(3)
C10 C -0.0257(3) 0.6579(4) 0.1154(4)
H6 H -0.0005 0.5890 0.0983
H7 H -0.0885 0.6681 0.0630
H8 H -0.0279 0.6570 0.1947
C11 C 0.0366(3) 0.7540(6) -0.0241(4)
H9 H 0.0627 0.6862 -0.0429
H10 H 0.0743 0.8152 -0.0352
H11 H -0.0273 0.7624 -0.0743
C12 C -0.0035(3) 0.8569(4) 0.1314(5)
H12 H -0.0018 0.8549 0.2121
H13 H -0.0679 0.8654 0.0829
H14 H 0.0336 0.9182 0.1189
C13 C 0.2488(2) 0.3165(2) 0.7089(3)
H15 H 0.2412 0.3860 0.7383
C14 C 0.2058(2) 0.2276(3) 0.7406(3)
H16 H 0.1702 0.2367 0.7922
C15 C 0.2143(2) 0.1276(3) 0.6981(3)
H17 H 0.1841 0.0669 0.7190
C16 C 0.2679(2) 0.1148(2) 0.6234(3)
C17 C 0.2829(2) 0.0138(2) 0.5739(3)
H18 H 0.2544 -0.0501 0.5907
C18 C 0.3367(2) 0.0080(2) 0.5042(3)
H19 H 0.3449 -0.0598 0.4717
C19 C 0.3820(2) 0.1025(2) 0.4780(3)
C20 C 0.4414(2) 0.1023(2) 0.4088(3)
H20 H 0.4547 0.0365 0.3767
C21 C 0.4797(2) 0.1971(2) 0.3880(3)
H21 H 0.5199 0.1979 0.3412
C22 C 0.4596(2) 0.2929(2) 0.4361(3)
H22 H 0.4868 0.3585 0.4213
C23 C 0.3666(2) 0.2018(2) 0.5232(2)
C24 C 0.3099(2) 0.2074(2) 0.5972(2)
Cu1C Cu 0.36822(2) 1.07624(3) 0.07976(3)
O4C O 0.32646(14) 0.52814(16) 0.67048(18)
loop_
_geom_bond_atom_site_label_1
_geom_bond_atom_site_label_2
_geom_bond_site_symmetry_1
_geom_bond_site_symmetry_2
Cu1 O1 1_555 1_555
O1 C7 1_555 1_555
O2 Cu1 1_555 1_555
H1 O2 1_555 1_555
H2 O2 1_555 1_555
O3 Cu1 1_555 1_555
O4 C8 1_555 1_555
O5 C8 1_555 1_555
N1 Cu1 1_555 1_555
N2 Cu1 1_555 1_555
C1 C2 1_555 1_555
C2 H3 1_555 1_555
C3 C2 1_555 1_555
C4 C3 1_555 1_555
H4 C4 1_555 1_555
C5 C4 1_555 1_555
C6 C1 1_555 1_555
H5 C6 1_555 1_555
C7 O3 1_555 1_555
C8 C3 1_555 1_555
C9 C5 1_555 1_555
C10 C9 1_555 1_555
H6 C10 1_555 1_555
H7 C10 1_555 1_555
H8 C10 1_555 1_555
C11 C9 1_555 1_555
H9 C11 1_555 1_555
H10 C11 1_555 1_555
H11 C11 1_555 1_555
C12 C9 1_555 1_555
H12 C12 1_555 1_555
H13 C12 1_555 1_555
H14 C12 1_555 1_555
C13 N1 1_555 1_555
H15 C13 1_555 1_555
C14 C13 1_555 1_555
H16 C14 1_555 1_555
C15 C14 1_555 1_555
H17 C15 1_555 1_555
C16 C15 1_555 1_555
C17 C16 1_555 1_555
H18 C17 1_555 1_555
C18 C17 1_555 1_555
H19 C18 1_555 1_555
C19 C18 1_555 1_555
C20 C19 1_555 1_555
H20 C20 1_555 1_555
C21 C20 1_555 1_555
H21 C21 1_555 1_555
C22 N2 1_555 1_555
H22 C22 1_555 1_555
C23 N2 1_555 1_555
C24 N1 1_555 1_555
Cu1C O4 1_555 1_555
O4C Cu1 1_555 1_555
C1 C7 1_555 1_555
C5 C6 1_555 1_555
C16 C24 1_555 1_555
C19 C23 1_555 1_555
C21 C22 1_555 1_555
C23 C24 1_555 1_555

#END
