
#######################################################################
#
#                 Cambridge Crystallographic Data Centre
#                                CCDC 
#
#######################################################################
#
# If this CIF has been generated from an entry in the Cambridge 
# Structural Database, then it will include bibliographic, chemical, 
# crystal, experimental, refinement or atomic coordinate data resulting 
# from the CCDC's data processing and validation procedures.
#
#######################################################################

data_LEXMUX
_symmetry_cell_setting           monoclinic
_symmetry_space_group_name_H-M   'P 21/n'
_symmetry_Int_Tables_number      14
_space_group_name_Hall           '-P 2yn'
loop_
_symmetry_equiv_pos_site_id
_symmetry_equiv_pos_as_xyz
1 x,y,z
2 1/2-x,1/2+y,1/2-z
3 -x,-y,-z
4 1/2+x,1/2-y,1/2+z
_cell_length_a                   11.9236(15)
_cell_length_b                   11.8939(15)
_cell_length_c                   25.680(3)
_cell_angle_alpha                90
_cell_angle_beta                 100.805(3)
_cell_angle_gamma                90
_cell_volume                     3577.32
loop_
_atom_site_label
_atom_site_type_symbol
_atom_site_fract_x
_atom_site_fract_y
_atom_site_fract_z
Mn1 Mn 0.83991(4) 0.10400(3) 0.279887(16)
Fe1 Fe 0.89710(4) -0.24088(3) 0.405801(16)
O1 O 0.94137(17) 0.21867(16) 0.30771(7)
O2 O 0.73440(17) 0.14898(16) 0.32083(8)
O3 O 1.36811(18) 0.33920(18) 0.27321(8)
O4 O 0.30428(18) -0.01389(19) 0.32950(9)
N1 N 0.9402(2) 0.05247(19) 0.23102(9)
N2 N 0.7424(2) -0.02219(19) 0.24796(9)
C1 C 1.0465(2) 0.2380(2) 0.29914(11)
C2 C 1.1099(2) 0.3244(2) 0.32804(11)
H1 H 1.0788 0.3630 0.3545
C3 C 1.2161(3) 0.3545(3) 0.31891(11)
H2 H 1.2567 0.4140 0.3388
C4 C 1.2647(2) 0.2987(3) 0.28087(11)
C5 C 1.4074(3) 0.2941(3) 0.22827(12)
H3 H 1.4297 0.2154 0.2351
H4 H 1.4733 0.3375 0.2218
H5 H 1.3460 0.2984 0.1971
C6 C 1.2068(3) 0.2106(3) 0.25272(12)
H6 H 1.2403 0.1712 0.2273
C7 C 1.0975(2) 0.1791(2) 0.26170(11)
C8 C 1.0394(2) 0.0902(2) 0.22858(11)
H7 H 1.0780 0.0574 0.2032
C9 C 0.8832(3) -0.0289(2) 0.19062(11)
H8 H 0.9408 -0.0786 0.1793
H9 H 0.8423 0.0119 0.1591
C10 C 0.7998(2) -0.0978(2) 0.21499(11)
H10 H 0.7424 -0.1327 0.1868
H11 H 0.8408 -0.1585 0.2372
C11 C 0.6406(2) -0.0440(2) 0.25484(11)
H12 H 0.6021 -0.1057 0.2359
C12 C 0.5805(2) 0.0186(2) 0.28935(11)
C13 C 0.4710(3) -0.0196(2) 0.29412(12)
H13 H 0.4387 -0.0820 0.2735
C14 C 0.4097(3) 0.0316(3) 0.32801(12)
C15 C 0.2445(3) 0.0287(3) 0.36833(13)
H14 H 0.2877 0.0119 0.4038
H15 H 0.1690 -0.0067 0.3638
H16 H 0.2354 0.1103 0.3641
C16 C 0.4566(3) 0.1249(3) 0.35760(12)
H17 H 0.4143 0.1622 0.3803
C17 C 0.5642(3) 0.1625(2) 0.35375(11)
H18 H 0.5947 0.2257 0.3742
C18 C 0.6301(2) 0.1105(2) 0.32065(11)
N3 N 0.9230(2) -0.0248(2) 0.34341(9)
C19 C 0.9179(2) -0.1044(2) 0.36887(11)
N4 N 0.7462(2) 0.2000(2) 0.20339(10)
C20 C 0.6932(3) 0.2179(2) 0.16180(11)
N5 N 1.1127(3) -0.3471(2) 0.37741(11)
C21 C 1.0313(3) -0.3054(3) 0.38542(12)
N6 N 0.9907(2) -0.1895(2) 0.47287(9)
N7 N 0.9547(2) -0.2099(2) 0.51960(9)
N8 N 0.7615(2) -0.1819(2) 0.43102(9)
N9 N 0.7481(2) -0.2055(2) 0.48152(10)
N10 N 0.8727(2) -0.3858(2) 0.44005(10)
N11 N 0.8515(2) -0.3862(2) 0.49033(10)
B1 B 0.8422(3) -0.2735(3) 0.51789(14)
C22 C 1.0886(3) -0.1321(3) 0.48468(12)
H19 H 1.1322 -0.1067 0.4596
C23 C 1.1171(3) -0.1150(3) 0.53951(13)
H20 H 1.1822 -0.0772 0.5586
C24 C 1.0305(3) -0.1649(3) 0.55972(12)
H21 H 1.0249 -0.1672 0.5961
C25 C 0.6703(3) -0.1220(3) 0.40881(13)
H22 H 0.6570 -0.0945 0.3735
C26 C 0.5979(3) -0.1057(3) 0.44449(14)
H23 H 0.5277 -0.0656 0.4389
C27 C 0.6505(3) -0.1608(3) 0.49009(13)
H24 H 0.6219 -0.1659 0.5221
C28 C 0.8754(3) -0.4933(3) 0.42472(13)
H25 H 0.8892 -0.5177 0.3913
C29 C 0.8551(3) -0.5639(3) 0.46511(15)
H26 H 0.8520 -0.6437 0.4648
C30 C 0.8405(3) -0.4929(3) 0.50566(14)
H27 H 0.8251 -0.5157 0.5391
H36 H 0.814(3) -0.281(3) 0.5547(13)
Fe1A Fe 0.60290(4) 0.25912(3) 0.094199(16)
C20A C 0.8068(3) -0.2821(2) 0.33820(11)
O5 O 0.4092(5) -0.3126(4) 0.39749(19)
H28 H 0.3842 -0.2775 0.4213
C31 C 0.3426(2) -0.4127(2) 0.38393(11)
H29 H 0.3325 -0.4514 0.4164
H30 H 0.3821 -0.4625 0.3629
H31 H 0.2677 -0.3924 0.3632
O6 O 0.5538(5) -0.5999(5) 0.4518(2)
H32 H 0.5599 -0.5650 0.4807
C32 C 0.4405(3) -0.6218(3) 0.43230(16)
H33 H 0.4019 -0.6406 0.4617
H34 H 0.4343 -0.6852 0.4075
H35 H 0.4047 -0.5552 0.4138
loop_
_geom_bond_atom_site_label_1
_geom_bond_atom_site_label_2
_geom_bond_site_symmetry_1
_geom_bond_site_symmetry_2
Mn1 O1 1_555 1_555
Fe1 C19 1_555 1_555
O1 C1 1_555 1_555
O2 Mn1 1_555 1_555
O3 C4 1_555 1_555
O4 C14 1_555 1_555
N1 Mn1 1_555 1_555
N2 Mn1 1_555 1_555
C1 C2 1_555 1_555
C2 H1 1_555 1_555
C3 C2 1_555 1_555
H2 C3 1_555 1_555
C4 C3 1_555 1_555
C5 O3 1_555 1_555
H3 C5 1_555 1_555
H4 C5 1_555 1_555
H5 C5 1_555 1_555
C6 C4 1_555 1_555
H6 C6 1_555 1_555
C7 C1 1_555 1_555
C8 N1 1_555 1_555
H7 C8 1_555 1_555
C9 N1 1_555 1_555
H8 C9 1_555 1_555
H9 C9 1_555 1_555
C10 N2 1_555 1_555
H10 C10 1_555 1_555
H11 C10 1_555 1_555
C11 N2 1_555 1_555
H12 C11 1_555 1_555
C12 C11 1_555 1_555
C13 C12 1_555 1_555
H13 C13 1_555 1_555
C14 C13 1_555 1_555
C15 O4 1_555 1_555
H14 C15 1_555 1_555
H15 C15 1_555 1_555
H16 C15 1_555 1_555
C16 C14 1_555 1_555
H17 C16 1_555 1_555
C17 C16 1_555 1_555
H18 C17 1_555 1_555
C18 O2 1_555 1_555
N3 Mn1 1_555 1_555
C19 N3 1_555 1_555
N4 Mn1 1_555 1_555
C20 N4 1_555 1_555
N5 C21 1_555 1_555
C21 Fe1 1_555 1_555
N6 Fe1 1_555 1_555
N7 N6 1_555 1_555
N8 Fe1 1_555 1_555
N9 N8 1_555 1_555
N10 Fe1 1_555 1_555
N11 N10 1_555 1_555
B1 N7 1_555 1_555
C22 N6 1_555 1_555
H19 C22 1_555 1_555
C23 C22 1_555 1_555
H20 C23 1_555 1_555
C24 N7 1_555 1_555
H21 C24 1_555 1_555
C25 N8 1_555 1_555
H22 C25 1_555 1_555
C26 C25 1_555 1_555
H23 C26 1_555 1_555
C27 N9 1_555 1_555
H24 C27 1_555 1_555
C28 N10 1_555 1_555
H25 C28 1_555 1_555
C29 C28 1_555 1_555
H26 C29 1_555 1_555
C30 N11 1_555 1_555
H27 C30 1_555 1_555
O5 H28 1_555 1_555
C31 O5 1_555 1_555
H29 C31 1_555 1_555
H30 C31 1_555 1_555
H31 C31 1_555 1_555
O6 H32 1_555 1_555
C32 O6 1_555 1_555
H33 C32 1_555 1_555
H34 C32 1_555 1_555
H35 C32 1_555 1_555
H36 B1 1_555 1_555
Fe1A C20 1_555 1_555
C20A Fe1 1_555 1_555
C6 C7 1_555 1_555
C7 C8 1_555 1_555
C9 C10 1_555 1_555
C12 C18 1_555 1_555
C17 C18 1_555 1_555
N9 B1 1_555 1_555
N11 B1 1_555 1_555
C23 C24 1_555 1_555
C26 C27 1_555 1_555
C29 C30 1_555 1_555

#END
