
#######################################################################
#
#                 Cambridge Crystallographic Data Centre
#                                CCDC 
#
#######################################################################
#
# If this CIF has been generated from an entry in the Cambridge 
# Structural Database, then it will include bibliographic, chemical, 
# crystal, experimental, refinement or atomic coordinate data resulting 
# from the CCDC's data processing and validation procedures.
#
#######################################################################

data_LEXWUI
_symmetry_cell_setting           monoclinic
_symmetry_space_group_name_H-M   'P 2/c'
_symmetry_Int_Tables_number      13
_space_group_name_Hall           '-P 2yc'
loop_
_symmetry_equiv_pos_site_id
_symmetry_equiv_pos_as_xyz
1 x,y,z
2 -x,y,1/2-z
3 -x,-y,-z
4 x,-y,1/2+z
_cell_length_a                   16.592(5)
_cell_length_b                   10.452(3)
_cell_length_c                   16.770(5)
_cell_angle_alpha                90
_cell_angle_beta                 90.420(7)
_cell_angle_gamma                90
_cell_volume                     2908.17
loop_
_atom_site_label
_atom_site_type_symbol
_atom_site_fract_x
_atom_site_fract_y
_atom_site_fract_z
Cd1 Cd 0.5000 -0.29892(5) -0.2500
Cd2 Cd 0.5000 0.08240(4) -0.2500
Cd3 Cd 0.0000 0.42031(4) 0.2500
Cd4 Cd 0.0000 0.80205(4) 0.2500
Br1 Br 0.53070(3) -0.41317(5) -0.11781(4)
Br2 Br 0.61837(3) -0.14233(5) -0.28304(3)
Br3 Br 0.06025(3) 0.63804(4) 0.35373(3)
Br4 Br 0.11056(3) 0.93067(5) 0.18036(3)
N1 N 0.39529(19) 0.2216(3) -0.2273(2)
N2 N 0.3158(2) 0.3772(3) -0.1870(2)
N3 N 0.2204(2) 0.5218(4) 0.1141(2)
N4 N 0.1192(2) 0.4414(3) 0.1829(2)
N5 N 0.5475(2) 0.0624(4) -0.1240(2)
N6 N 0.6108(2) -0.0110(4) -0.0182(2)
N7 N 0.9161(2) 0.1196(3) 0.0793(2)
N8 N 0.9598(2) 0.2828(3) 0.1504(2)
C1 C 0.3927(3) 0.3342(4) -0.1928(3)
H1 H 0.4387 0.3798 -0.1742
C2 C 0.3166(2) 0.1907(4) -0.2448(3)
H2 H 0.2994 0.1146 -0.2708
C3 C 0.2676(3) 0.2855(4) -0.2194(3)
H3 H 0.2105 0.2875 -0.2234
C4 C 0.2894(3) 0.4960(4) -0.1494(3)
H4 H 0.2350 0.5183 -0.1695
H5 H 0.3265 0.5659 -0.1645
C5 C 0.2871(3) 0.4855(4) -0.0577(3)
H6 H 0.2518 0.4134 -0.0423
H7 H 0.3420 0.4677 -0.0370
C6 C 0.2562(3) 0.6067(4) -0.0213(3)
H8 H 0.1980 0.6147 -0.0338
H9 H 0.2841 0.6801 -0.0462
C7 C 0.2678(3) 0.6143(5) 0.0686(3)
H10 H 0.3256 0.6009 0.0812
H11 H 0.2534 0.7016 0.0865
C8 C 0.1461(3) 0.5410(4) 0.1434(3)
H12 H 0.1164 0.6180 0.1363
C9 C 0.2418(3) 0.4000(5) 0.1357(3)
H13 H 0.2907 0.3574 0.1234
C10 C 0.1798(3) 0.3524(5) 0.1779(3)
H14 H 0.1783 0.2693 0.2009
C11 C 0.5822(3) -0.0386(4) -0.0911(3)
H15 H 0.5864 -0.1200 -0.1160
C12 C 0.5544(3) 0.1587(5) -0.0689(3)
H16 H 0.5351 0.2435 -0.0758
C13 C 0.5929(3) 0.1144(5) -0.0033(3)
H17 H 0.6052 0.1612 0.0438
C14 C 0.6531(3) -0.1038(5) 0.0342(3)
H18 H 0.6315 -0.1904 0.0234
H19 H 0.6411 -0.0827 0.0904
C15 C 0.7436(3) -0.1065(4) 0.0239(3)
H20 H 0.7662 -0.1779 0.0557
H21 H 0.7558 -0.1232 -0.0329
C16 C 0.7840(3) 0.0158(4) 0.0489(3)
H22 H 0.7607 0.0451 0.1000
H23 H 0.7732 0.0825 0.0083
C17 C 0.8753(3) -0.0009(4) 0.0591(3)
H24 H 0.8860 -0.0643 0.1018
H25 H 0.8980 -0.0350 0.0090
C18 C 0.9239(3) 0.1696(4) 0.1522(3)
H26 H 0.9058 0.1290 0.1995
C19 C 0.9493(3) 0.2036(5) 0.0275(3)
H27 H 0.9527 0.1942 -0.0287
C20 C 0.9767(3) 0.3031(5) 0.0713(3)
H28 H 1.0035 0.3761 0.0506
Br3A Br -0.06025(3) 0.63804(4) 0.14627(3)
Br4A Br -0.11056(3) 0.93067(5) 0.31964(3)
N1A N -0.39529(19) 0.2216(3) 0.7273(2)
N2A N -0.3158(2) 0.3772(3) 0.6870(2)
N3A N -0.2204(2) 0.5218(4) 0.3859(2)
N4A N -0.1192(2) 0.4414(3) 0.3171(2)
C1A C -0.3927(3) 0.3342(4) 0.6928(3)
H1A H -0.4387 0.3798 0.6742
C2A C -0.3166(2) 0.1907(4) 0.7448(3)
H2A H -0.2994 0.1146 0.7708
C3A C -0.2676(3) 0.2855(4) 0.7194(3)
H3A H -0.2105 0.2875 0.7234
C4A C -0.2894(3) 0.4960(4) 0.6494(3)
H4A H -0.2350 0.5183 0.6695
H5A H -0.3265 0.5659 0.6645
C5A C -0.2871(3) 0.4855(4) 0.5577(3)
H6A H -0.2518 0.4134 0.5423
H7A H -0.3420 0.4677 0.5370
C6A C -0.2562(3) 0.6067(4) 0.5213(3)
H8A H -0.1980 0.6147 0.5338
H9A H -0.2841 0.6801 0.5462
C7A C -0.2678(3) 0.6143(5) 0.4314(3)
H10A H -0.3256 0.6009 0.4188
H11A H -0.2534 0.7016 0.4135
C8A C -0.1461(3) 0.5410(4) 0.3566(3)
H12A H -0.1164 0.6180 0.3637
C9A C -0.2418(3) 0.4000(5) 0.3643(3)
H13A H -0.2907 0.3574 0.3766
C10A C -0.1798(3) 0.3524(5) 0.3221(3)
H14A H -0.1783 0.2693 0.2991
N5A N 0.4525(2) 0.0624(4) -0.3760(2)
N6A N 0.3892(2) -0.0110(4) -0.4818(2)
N7A N 0.0839(2) 0.1196(3) -0.5793(2)
N8A N 0.0402(2) 0.2828(3) -0.6504(2)
C11A C 0.4178(3) -0.0386(4) -0.4089(3)
H15A H 0.4136 -0.1200 -0.3840
C12A C 0.4456(3) 0.1587(5) -0.4311(3)
H16A H 0.4649 0.2435 -0.4242
C13A C 0.4071(3) 0.1144(5) -0.4967(3)
H17A H 0.3948 0.1612 -0.5438
C14A C 0.3469(3) -0.1038(5) -0.5342(3)
H18A H 0.3685 -0.1904 -0.5234
H19A H 0.3589 -0.0827 -0.5904
C15A C 0.2564(3) -0.1065(4) -0.5239(3)
H20A H 0.2338 -0.1779 -0.5557
H21A H 0.2442 -0.1232 -0.4671
C16A C 0.2160(3) 0.0158(4) -0.5489(3)
H22A H 0.2393 0.0451 -0.6000
H23A H 0.2268 0.0825 -0.5083
C17A C 0.1247(3) -0.0009(4) -0.5591(3)
H24A H 0.1140 -0.0643 -0.6018
H25A H 0.1020 -0.0350 -0.5090
C18A C 0.0761(3) 0.1696(4) -0.6522(3)
H26A H 0.0942 0.1290 -0.6995
C19A C 0.0507(3) 0.2036(5) -0.5275(3)
H27A H 0.0473 0.1942 -0.4713
C20A C 0.0233(3) 0.3031(5) -0.5713(3)
H28A H -0.0035 0.3761 -0.5506
Br1A Br 0.46930(3) -0.41317(5) -0.38219(4)
Br2A Br 0.38163(3) -0.14233(5) -0.21696(3)
Cd2_2 Cd -0.5000 0.08240(4) 0.7500
Cd3_2 Cd 0.0000 0.42031(4) -0.7500
Cd3_3 Cd 1.0000 0.42031(4) 0.2500
N1A_2 N 0.60471(19) 0.2216(3) -0.2727(2)
N8_2 N -0.0402(2) 0.2828(3) 0.1504(2)
N8A_2 N 0.0402(2) 0.2828(3) 0.3496(2)
loop_
_geom_bond_atom_site_label_1
_geom_bond_atom_site_label_2
_geom_bond_site_symmetry_1
_geom_bond_site_symmetry_2
Cd1 Br1 1_555 1_555
Cd2 Br2 1_555 1_555
Cd3 Br3 1_555 1_555
Cd4 Br3 1_555 1_555
Br2 Cd1 1_555 1_555
Br4 Cd4 1_555 1_555
N1 Cd2 1_555 1_555
N2 C1 1_555 1_555
N3 C7 1_555 1_555
N4 Cd3 1_555 1_555
N5 Cd2 1_555 1_555
N6 C11 1_555 1_555
N7 C17 1_555 1_555
N8 C18 1_555 1_555
C1 N1 1_555 1_555
H1 C1 1_555 1_555
C2 N1 1_555 1_555
H2 C2 1_555 1_555
C3 N2 1_555 1_555
H3 C3 1_555 1_555
C4 N2 1_555 1_555
H4 C4 1_555 1_555
H5 C4 1_555 1_555
C5 C4 1_555 1_555
H6 C5 1_555 1_555
H7 C5 1_555 1_555
C6 C5 1_555 1_555
H8 C6 1_555 1_555
H9 C6 1_555 1_555
C7 C6 1_555 1_555
H10 C7 1_555 1_555
H11 C7 1_555 1_555
C8 N3 1_555 1_555
H12 C8 1_555 1_555
C9 N3 1_555 1_555
H13 C9 1_555 1_555
C10 N4 1_555 1_555
H14 C10 1_555 1_555
C11 N5 1_555 1_555
H15 C11 1_555 1_555
C12 N5 1_555 1_555
H16 C12 1_555 1_555
C13 N6 1_555 1_555
H17 C13 1_555 1_555
C14 N6 1_555 1_555
H18 C14 1_555 1_555
H19 C14 1_555 1_555
C15 C14 1_555 1_555
H20 C15 1_555 1_555
H21 C15 1_555 1_555
C16 C15 1_555 1_555
H22 C16 1_555 1_555
H23 C16 1_555 1_555
C17 C16 1_555 1_555
H24 C17 1_555 1_555
H25 C17 1_555 1_555
C18 N7 1_555 1_555
H26 C18 1_555 1_555
C19 N7 1_555 1_555
H27 C19 1_555 1_555
C20 N8 1_555 1_555
H28 C20 1_555 1_555
Br3A Cd3 1_555 1_555
Br4A Cd4 1_555 1_555
N1A C1A 1_555 1_555
N2A C1A 1_555 1_555
N3A C7A 1_555 1_555
N4A Cd3 1_555 1_555
C1A H1A 1_555 1_555
C2A N1A 1_555 1_555
H2A C2A 1_555 1_555
C3A N2A 1_555 1_555
H3A C3A 1_555 1_555
C4A N2A 1_555 1_555
H4A C4A 1_555 1_555
H5A C4A 1_555 1_555
C5A C4A 1_555 1_555
H6A C5A 1_555 1_555
H7A C5A 1_555 1_555
C6A C5A 1_555 1_555
H8A C6A 1_555 1_555
H9A C6A 1_555 1_555
C7A C6A 1_555 1_555
H10A C7A 1_555 1_555
H11A C7A 1_555 1_555
C8A N3A 1_555 1_555
H12A C8A 1_555 1_555
C9A N3A 1_555 1_555
H13A C9A 1_555 1_555
C10A N4A 1_555 1_555
H14A C10A 1_555 1_555
N5A Cd2 1_555 1_555
N6A C11A 1_555 1_555
N7A C17A 1_555 1_555
N8A C18A 1_555 1_555
C11A N5A 1_555 1_555
H15A C11A 1_555 1_555
C12A N5A 1_555 1_555
H16A C12A 1_555 1_555
C13A N6A 1_555 1_555
H17A C13A 1_555 1_555
C14A N6A 1_555 1_555
H18A C14A 1_555 1_555
H19A C14A 1_555 1_555
C15A C14A 1_555 1_555
H20A C15A 1_555 1_555
H21A C15A 1_555 1_555
C16A C15A 1_555 1_555
H22A C16A 1_555 1_555
H23A C16A 1_555 1_555
C17A C16A 1_555 1_555
H24A C17A 1_555 1_555
H25A C17A 1_555 1_555
C18A N7A 1_555 1_555
H26A C18A 1_555 1_555
C19A N7A 1_555 1_555
H27A C19A 1_555 1_555
C20A N8A 1_555 1_555
H28A C20A 1_555 1_555
Br1A Cd1 1_555 1_555
Br2A Cd1 1_555 1_555
Cd2_2 N1A 1_555 1_555
Cd3_2 N8A 1_555 1_555
Cd3_3 N8 1_555 1_555
N1A_2 Cd2 1_555 1_555
N8_2 Cd3 1_555 1_555
N8A_2 Cd3 1_555 1_555
Cd2 Br2A 1_555 1_555
Cd4 Br3A 1_555 1_555
N4 C8 1_555 1_555
C2 C3 1_555 1_555
C9 C10 1_555 1_555
C12 C13 1_555 1_555
C19 C20 1_555 1_555
N4A C8A 1_555 1_555
C2A C3A 1_555 1_555
C9A C10A 1_555 1_555
C12A C13A 1_555 1_555
C19A C20A 1_555 1_555

#END
