
#######################################################################
#
#                 Cambridge Crystallographic Data Centre
#                                CCDC 
#
#######################################################################
#
# If this CIF has been generated from an entry in the Cambridge 
# Structural Database, then it will include bibliographic, chemical, 
# crystal, experimental, refinement or atomic coordinate data resulting 
# from the CCDC's data processing and validation procedures.
#
#######################################################################

data_LEXXAP
_symmetry_cell_setting           triclinic
_symmetry_space_group_name_H-M   'P -1'
_symmetry_Int_Tables_number      2
_space_group_name_Hall           '-P 1'
loop_
_symmetry_equiv_pos_site_id
_symmetry_equiv_pos_as_xyz
1 x,y,z
2 -x,-y,-z
_cell_length_a                   8.031(2)
_cell_length_b                   8.682(2)
_cell_length_c                   19.335(5)
_cell_angle_alpha                98.961(6)
_cell_angle_beta                 93.476(11)
_cell_angle_gamma                99.983(7)
_cell_volume                     1306.19
loop_
_atom_site_label
_atom_site_type_symbol
_atom_site_fract_x
_atom_site_fract_y
_atom_site_fract_z
Cd1 Cd 0.5000 0.5000 0.5000
Cd2 Cd 0.58420(3) 0.59703(3) 0.276858(11)
Br1 Br 0.71042(4) 0.47850(4) 0.379574(16)
Br2 Br 0.59574(5) 0.89822(4) 0.318864(18)
Br3 Br 0.74566(5) 0.58842(5) 0.16587(2)
O1 O 0.3097(3) 0.4906(3) 0.25711(11)
O2 O 0.4142(3) 0.2762(3) 0.21565(13)
N1 N 0.3584(3) -0.3137(3) 0.46543(12)
N2 N 0.1809(3) -0.2071(3) 0.40515(12)
N3 N 0.2873(3) 0.3102(3) 0.43074(13)
N4 N 0.1500(3) 0.1004(3) 0.35796(12)
N5 N -0.2076(3) 0.0932(3) 0.16414(12)
C1 C 0.2605(4) -0.3297(3) 0.40687(15)
H1 H 0.2477 -0.4182 0.3700
C2 C 0.3400(4) -0.1707(3) 0.50372(15)
H2 H 0.3953 -0.1261 0.5490
C3 C 0.2321(4) -0.1037(3) 0.46745(15)
H3 H 0.1980 -0.0051 0.4819
C4 C 0.0603(4) -0.1902(3) 0.34809(16)
H4 H -0.0481 -0.1753 0.3676
H5 H 0.0373 -0.2897 0.3134
C5 C 0.3021(4) 0.1927(3) 0.38108(15)
H6 H 0.4065 0.1750 0.3637
C6 C 0.1165(4) 0.2927(4) 0.44045(17)
H7 H 0.0669 0.3604 0.4733
C7 C 0.0308(4) 0.1634(4) 0.39551(16)
H8 H -0.0881 0.1243 0.3910
C8 C 0.1216(4) -0.0526(3) 0.31051(15)
H9 H 0.2289 -0.0678 0.2900
H10 H 0.0363 -0.0517 0.2715
C9 C 0.2964(4) 0.3473(4) 0.22699(14)
C10 C 0.1163(4) 0.2591(3) 0.20423(14)
C11 C 0.0844(4) 0.1341(4) 0.14776(15)
H11 H 0.1756 0.1046 0.1229
C12 C -0.0767(4) 0.0538(4) 0.12804(15)
H12 H -0.0978 -0.0302 0.0889
C13 C -0.3811(4) -0.0024(4) 0.14420(15)
H13 H -0.4608 0.0404 0.1758
H14 H -0.3808 -0.1132 0.1506
C14 C -0.4423(4) -0.0007(3) 0.06905(15)
C15 C -0.4426(4) -0.1312(4) 0.01771(15)
H15 H -0.4027 -0.2212 0.0298
C16 C -0.5009(4) -0.1309(4) -0.05131(15)
H16 H -0.5019 -0.2209 -0.0863
C17 C -0.1801(4) 0.2140(4) 0.21855(15)
H17 H -0.2729 0.2407 0.2431
C18 C -0.0205(4) 0.2988(4) 0.23890(15)
H18 H -0.0031 0.3852 0.2769
O1A O -1.3097(3) -0.4906(3) -0.25711(11)
O2A O -1.4142(3) -0.2762(3) -0.21565(13)
N5A N -0.7924(3) -0.0932(3) -0.16414(12)
C9A C -1.2964(4) -0.3473(4) -0.22699(14)
C10A C -1.1163(4) -0.2591(3) -0.20423(14)
C11A C -1.0844(4) -0.1341(4) -0.14776(15)
H11A H -1.1756 -0.1046 -0.1229
C12A C -0.9233(4) -0.0538(4) -0.12804(15)
H12A H -0.9022 0.0302 -0.0889
C13A C -0.6189(4) 0.0024(4) -0.14420(15)
H13A H -0.5392 -0.0404 -0.1758
H14A H -0.6192 0.1132 -0.1506
C14A C -0.5577(4) 0.0007(3) -0.06905(15)
C15A C -0.5574(4) 0.1312(4) -0.01771(15)
H15A H -0.5973 0.2212 -0.0298
C16A C -0.4991(4) 0.1309(4) 0.05131(15)
H16A H -0.4981 0.2209 0.0863
C17A C -0.8199(4) -0.2140(4) -0.21855(15)
H17A H -0.7271 -0.2407 -0.2431
C18A C -0.9795(4) -0.2988(4) -0.23890(15)
H18A H -0.9969 -0.3852 -0.2769
Cd2A Cd -1.58420(3) -0.59703(3) -0.276858(11)
Br1A Br -1.71042(4) -0.47850(4) -0.379574(16)
Br2A Br -1.59574(5) -0.89822(4) -0.318864(18)
Br3A Br -1.74566(5) -0.58842(5) -0.16587(2)
N1A N 0.6416(3) 0.3137(3) 0.53457(12)
N2A N 0.8191(3) 0.2071(3) 0.59485(12)
N3A N 0.7127(3) -0.3102(3) 0.56926(13)
N4A N 0.8500(3) -0.1004(3) 0.64204(12)
C1A C 0.7395(4) 0.3297(3) 0.59313(15)
H1A H 0.7523 0.4182 0.6300
C2A C 0.6600(4) 0.1707(3) 0.49628(15)
H2A H 0.6047 0.1261 0.4510
C3A C 0.7679(4) 0.1037(3) 0.53255(15)
H3A H 0.8020 0.0051 0.5181
C4A C 0.9397(4) 0.1902(3) 0.65191(16)
H4A H 1.0481 0.1753 0.6324
H5A H 0.9627 0.2897 0.6866
C5A C 0.6979(4) -0.1927(3) 0.61892(15)
H6A H 0.5935 -0.1750 0.6363
C6A C 0.8835(4) -0.2927(4) 0.55955(17)
H7A H 0.9331 -0.3604 0.5267
C7A C 0.9692(4) -0.1634(4) 0.60449(16)
H8A H 1.0881 -0.1243 0.6090
C8A C 0.8784(4) 0.0526(3) 0.68949(15)
H9A H 0.7711 0.0678 0.7100
H10A H 0.9637 0.0517 0.7285
Cd1_2 Cd -1.5000 -0.5000 -0.5000
Cd1_3 Cd 0.5000 -0.5000 0.5000
Br1A_2 Br 0.28958(4) 0.52150(4) 0.620426(16)
N1_2 N 0.3584(3) 0.6863(3) 0.46543(12)
N3A_2 N 0.7127(3) 0.6898(3) 0.56926(13)
O3 O 0.0719(4) 0.8217(4) 0.02050(15)
N6 N 0.2017(4) 0.6401(3) 0.06351(15)
C19 C 0.2765(6) 0.5001(5) 0.0487(3)
H19 H 0.2593 0.4589 -0.0019
H20 H 0.2225 0.4190 0.0744
H21 H 0.3984 0.5273 0.0635
C20 C 0.2088(6) 0.7167(5) 0.1364(2)
H22 H 0.1483 0.8060 0.1391
H23 H 0.3276 0.7557 0.1549
H24 H 0.1554 0.6401 0.1644
C21 C 0.1350(5) 0.7030(5) 0.0124(2)
H25 H 0.139(5) 0.645(5) -0.034(2)
loop_
_geom_bond_atom_site_label_1
_geom_bond_atom_site_label_2
_geom_bond_site_symmetry_1
_geom_bond_site_symmetry_2
Cd1 Br1 1_555 1_555
Cd2 Br1 1_555 1_555
Br2 Cd2 1_555 1_555
Br3 Cd2 1_555 1_555
O1 Cd2 1_555 1_555
O2 C9 1_555 1_555
N1 C1 1_555 1_555
N2 C1 1_555 1_555
N3 Cd1 1_555 1_555
N4 C5 1_555 1_555
N5 C12 1_555 1_555
C1 H1 1_555 1_555
C2 N1 1_555 1_555
H2 C2 1_555 1_555
C3 N2 1_555 1_555
H3 C3 1_555 1_555
C4 N2 1_555 1_555
H4 C4 1_555 1_555
H5 C4 1_555 1_555
C5 N3 1_555 1_555
H6 C5 1_555 1_555
C6 N3 1_555 1_555
H7 C6 1_555 1_555
C7 N4 1_555 1_555
H8 C7 1_555 1_555
C8 N4 1_555 1_555
H9 C8 1_555 1_555
H10 C8 1_555 1_555
C9 O1 1_555 1_555
C10 C9 1_555 1_555
C11 C10 1_555 1_555
H11 C11 1_555 1_555
C12 C11 1_555 1_555
H12 C12 1_555 1_555
C13 N5 1_555 1_555
H13 C13 1_555 1_555
H14 C13 1_555 1_555
C14 C13 1_555 1_555
C15 C14 1_555 1_555
H15 C15 1_555 1_555
C16 C15 1_555 1_555
H16 C16 1_555 1_555
C17 N5 1_555 1_555
H17 C17 1_555 1_555
C18 C10 1_555 1_555
H18 C18 1_555 1_555
O3 C21 1_555 1_555
N6 C19 1_555 1_555
C19 H19 1_555 1_555
H20 C19 1_555 1_555
H21 C19 1_555 1_555
C20 N6 1_555 1_555
H22 C20 1_555 1_555
H23 C20 1_555 1_555
H24 C20 1_555 1_555
C21 N6 1_555 1_555
H25 C21 1_555 1_555
O1A C9A 1_555 1_555
O2A C9A 1_555 1_555
N5A C12A 1_555 1_555
C9A C10A 1_555 1_555
C10A C11A 1_555 1_555
C11A H11A 1_555 1_555
C12A C11A 1_555 1_555
H12A C12A 1_555 1_555
C13A N5A 1_555 1_555
H13A C13A 1_555 1_555
H14A C13A 1_555 1_555
C14A C16 1_555 1_555
C15A C14A 1_555 1_555
H15A C15A 1_555 1_555
C16A C14 1_555 1_555
H16A C16A 1_555 1_555
C17A N5A 1_555 1_555
H17A C17A 1_555 1_555
C18A C10A 1_555 1_555
H18A C18A 1_555 1_555
Cd2A O1A 1_555 1_555
Br1A Cd2A 1_555 1_555
Br2A Cd2A 1_555 1_555
Br3A Cd2A 1_555 1_555
N1A Cd1 1_555 1_555
N2A C1A 1_555 1_555
N3A C5A 1_555 1_555
N4A C5A 1_555 1_555
C1A N1A 1_555 1_555
H1A C1A 1_555 1_555
C2A N1A 1_555 1_555
H2A C2A 1_555 1_555
C3A N2A 1_555 1_555
H3A C3A 1_555 1_555
C4A N2A 1_555 1_555
H4A C4A 1_555 1_555
H5A C4A 1_555 1_555
C5A H6A 1_555 1_555
C6A N3A 1_555 1_555
H7A C6A 1_555 1_555
C7A N4A 1_555 1_555
H8A C7A 1_555 1_555
C8A N4A 1_555 1_555
H9A C8A 1_555 1_555
H10A C8A 1_555 1_555
Cd1_2 Br1A 1_555 1_555
Cd1_3 N1 1_555 1_555
Br1A_2 Cd1 1_555 1_555
N1_2 Cd1 1_555 1_555
N3A_2 Cd1 1_555 1_555
C2 C3 1_555 1_555
C4 C8 1_555 1_555
C6 C7 1_555 1_555
C17 C18 1_555 1_555
C13A C14A 1_555 1_555
C15A C16A 1_555 1_555
C17A C18A 1_555 1_555
N3A Cd1_3 1_555 1_555
C2A C3A 1_555 1_555
C4A C8A 1_555 1_555
C6A C7A 1_555 1_555

#END
