
#######################################################################
#
#                 Cambridge Crystallographic Data Centre
#                                CCDC 
#
#######################################################################
#
# If this CIF has been generated from an entry in the Cambridge 
# Structural Database, then it will include bibliographic, chemical, 
# crystal, experimental, refinement or atomic coordinate data resulting 
# from the CCDC's data processing and validation procedures.
#
#######################################################################

data_LEYKEH
_symmetry_cell_setting           triclinic
_symmetry_space_group_name_H-M   'P -1'
_symmetry_Int_Tables_number      2
_space_group_name_Hall           '-P 1'
loop_
_symmetry_equiv_pos_site_id
_symmetry_equiv_pos_as_xyz
1 x,y,z
2 -x,-y,-z
_cell_length_a                   9.5013(11)
_cell_length_b                   10.4553(12)
_cell_length_c                   10.7742(12)
_cell_angle_alpha                82.9560(10)
_cell_angle_beta                 89.5460(10)
_cell_angle_gamma                63.3100(10)
_cell_volume                     947.697
loop_
_atom_site_label
_atom_site_type_symbol
_atom_site_fract_x
_atom_site_fract_y
_atom_site_fract_z
Cd1 Cd 0.896332(17) 0.434524(16) 0.364932(13)
N1 N 0.9163(2) 0.58623(19) 0.19310(16)
N2 N 0.8989(2) 1.25651(19) -0.47773(16)
O1 O 0.6018(2) 0.5377(2) 0.33206(18)
O2 O 0.76083(19) 0.36024(19) 0.23438(18)
O3 O 0.16455(19) 0.2935(2) 0.33656(15)
O4 O 0.1550(3) 0.4011(3) 0.4974(2)
C1 C 0.6250(3) 0.4467(2) 0.2606(2)
C2 C 0.4852(3) 0.4358(3) 0.2016(2)
H1 H 0.3922 0.4855 0.2477
H2 H 0.4642 0.4843 0.1162
C3 C 0.5141(2) 0.2820(3) 0.2008(2)
C4 C 0.5776(3) 0.2122(3) 0.0969(3)
H3 H 0.5966 0.2630 0.0272
C5 C 0.6129(3) 0.0686(4) 0.0954(3)
H4 H 0.6548 0.0239 0.0252
C6 C 0.5856(4) -0.0074(3) 0.1982(4)
H5 H 0.6101 -0.1041 0.1984
C7 C 0.5224(3) 0.0603(3) 0.2998(3)
H6 H 0.5039 0.0082 0.3687
C8 C 0.4847(2) 0.2045(3) 0.3041(2)
C9 C 0.4083(3) 0.2735(3) 0.4178(2)
H7 H 0.4302 0.3547 0.4240
H8 H 0.4565 0.2039 0.4919
C10 C 0.2319(3) 0.3259(2) 0.4169(2)
C11 C 0.7603(3) 1.2709(2) -0.4352(2)
H9 H 0.6691 1.3521 -0.4675
C12 C 0.7460(3) 1.1716(2) -0.3463(2)
H10 H 0.6468 1.1861 -0.3206
C13 C 0.8808(2) 1.0488(2) -0.29467(19)
C14 C 1.0256(3) 1.0340(2) -0.3388(2)
H11 H 1.1189 0.9543 -0.3077
C15 C 1.0288(3) 1.1382(2) -0.4286(2)
H12 H 1.1262 1.1262 -0.4569
C16 C 1.0252(3) 0.6335(2) 0.1986(2)
H13 H 1.0879 0.6076 0.2721
C17 C 1.0496(3) 0.7187(2) 0.1011(2)
H14 H 1.1283 0.7473 0.1094
C18 C 0.9568(2) 0.7619(2) -0.00972(19)
C19 C 0.8459(3) 0.7092(2) -0.0171(2)
H15 H 0.7831 0.7317 -0.0900
C20 C 0.8304(3) 0.6235(2) 0.0846(2)
H16 H 0.7560 0.5895 0.0776
C21 C 0.9757(2) 0.8609(2) -0.10935(19)
H17 H 1.0716 0.8649 -0.1106
C22 C 0.8655(2) 0.9454(2) -0.1982(2)
H18 H 0.7715 0.9380 -0.1988
Cd1_2 Cd -0.103668(17) 0.434524(16) 0.364932(13)
Cd1_3 Cd 0.896332(17) 1.434524(16) -0.635068(13)
Cd1A Cd 0.103668(17) 0.565476(16) 0.635068(13)
N2_2 N 0.8989(2) 0.25651(19) 0.52227(16)
O3_2 O 1.16455(19) 0.2935(2) 0.33656(15)
O4_2 O 1.1550(3) 0.4011(3) 0.4974(2)
O4A O 0.8450(3) 0.5989(3) 0.5026(2)
loop_
_geom_bond_atom_site_label_1
_geom_bond_atom_site_label_2
_geom_bond_site_symmetry_1
_geom_bond_site_symmetry_2
Cd1 N1 1_555 1_555
N1 C16 1_555 1_555
N2 C11 1_555 1_555
O1 Cd1 1_555 1_555
O2 Cd1 1_555 1_555
O3 C10 1_555 1_555
O4 C10 1_555 1_555
C1 O1 1_555 1_555
C2 C1 1_555 1_555
H1 C2 1_555 1_555
H2 C2 1_555 1_555
C3 C2 1_555 1_555
C4 C3 1_555 1_555
H3 C4 1_555 1_555
C5 C4 1_555 1_555
H4 C5 1_555 1_555
C6 C5 1_555 1_555
H5 C6 1_555 1_555
C7 C6 1_555 1_555
H6 C7 1_555 1_555
C8 C3 1_555 1_555
C9 C8 1_555 1_555
H7 C9 1_555 1_555
H8 C9 1_555 1_555
C10 C9 1_555 1_555
C11 H9 1_555 1_555
C12 C11 1_555 1_555
H10 C12 1_555 1_555
C13 C12 1_555 1_555
C14 C13 1_555 1_555
H11 C14 1_555 1_555
C15 N2 1_555 1_555
H12 C15 1_555 1_555
C16 H13 1_555 1_555
C17 C16 1_555 1_555
H14 C17 1_555 1_555
C18 C17 1_555 1_555
C19 C18 1_555 1_555
H15 C19 1_555 1_555
C20 N1 1_555 1_555
H16 C20 1_555 1_555
C21 C18 1_555 1_555
H17 C21 1_555 1_555
C22 C13 1_555 1_555
H18 C22 1_555 1_555
Cd1_2 O3 1_555 1_555
Cd1_3 N2 1_555 1_555
Cd1A O4 1_555 1_555
N2_2 Cd1 1_555 1_555
O3_2 Cd1 1_555 1_555
O4_2 Cd1 1_555 1_555
O4A Cd1 1_555 1_555
O2 C1 1_555 1_555
O4 Cd1_2 1_555 1_555
C7 C8 1_555 1_555
C14 C15 1_555 1_555
C19 C20 1_555 1_555
C21 C22 1_555 1_555

#END
