
#######################################################################
#
#                 Cambridge Crystallographic Data Centre
#                                CCDC 
#
#######################################################################
#
# If this CIF has been generated from an entry in the Cambridge 
# Structural Database, then it will include bibliographic, chemical, 
# crystal, experimental, refinement or atomic coordinate data resulting 
# from the CCDC's data processing and validation procedures.
#
#######################################################################

data_LEYWIW
_symmetry_cell_setting           monoclinic
_symmetry_space_group_name_H-M   'C 2/c'
_symmetry_Int_Tables_number      15
_space_group_name_Hall           '-C 2yn'
loop_
_symmetry_equiv_pos_site_id
_symmetry_equiv_pos_as_xyz
1 x,y,z
2 1/2+x,1/2+y,z
3 -x,y,1/2-z
4 1/2-x,1/2+y,1/2-z
5 -x,-y,-z
6 1/2-x,1/2-y,-z
7 x,-y,1/2+z
8 1/2+x,1/2-y,1/2+z
_cell_length_a                   15.4567(4)
_cell_length_b                   13.0732(4)
_cell_length_c                   22.4156(6)
_cell_angle_alpha                90
_cell_angle_beta                 106.5800(10)
_cell_angle_gamma                90
_cell_volume                     4341.16
loop_
_atom_site_label
_atom_site_type_symbol
_atom_site_fract_x
_atom_site_fract_y
_atom_site_fract_z
Ni1 Ni 0.0000 0.0000 0.0000
Na1 Na -0.43494(9) -0.08935(11) 0.20655(7)
S1 S -0.10533(6) 0.08654(7) 0.02589(4)
S2 S -0.01690(6) -0.09172(7) 0.07869(4)
N1 N -0.36284(18) 0.0484(2) 0.16357(13)
N2 N -0.26936(19) -0.1467(2) 0.22075(13)
C1 C -0.1047(2) -0.0092(2) 0.08002(15)
C2 C -0.1639(2) -0.0183(2) 0.11548(15)
C3 C -0.2401(2) 0.0491(3) 0.11440(15)
C4 C -0.2748(2) 0.1376(3) 0.08187(17)
H1 H -0.2465 0.1682 0.0550
C5 C -0.3531(3) 0.1789(3) 0.09063(17)
H2 H -0.3780 0.2379 0.0694
C6 C -0.3944(2) 0.1323(3) 0.13103(16)
H3 H -0.4470 0.1614 0.1356
C7 C -0.2875(2) 0.0089(2) 0.15457(15)
C8 C -0.1671(2) -0.1006(3) 0.15890(15)
C9 C -0.1145(2) -0.1878(3) 0.17994(16)
H4 H -0.0640 -0.2022 0.1668
C10 C -0.1407(2) -0.2520(3) 0.22119(17)
H5 H -0.1065 -0.3097 0.2367
C11 C -0.2177(2) -0.2304(3) 0.23937(17)
H6 H -0.2343 -0.2762 0.2658
C12 C -0.2425(2) -0.0848(3) 0.18208(14)
S3 S -0.45181(8) -0.20084(10) 0.04352(6)
O1 O -0.4591(3) -0.1518(4) 0.10138(19)
C13 C -0.3984(6) -0.1143(7) 0.0058(3)
H7 H -0.4348 -0.0538 -0.0052
H8 H -0.3910 -0.1454 -0.0313
H9 H -0.3404 -0.0963 0.0330
C14 C -0.3604(5) -0.2852(7) 0.0685(4)
H10 H -0.3091 -0.2489 0.0940
H11 H -0.3460 -0.3134 0.0330
H12 H -0.3762 -0.3395 0.0923
S4 S -0.34661(8) -0.00776(9) 0.36840(5)
O2 O -0.42062(18) -0.0136(2) 0.30783(13)
C15 C -0.2440(3) 0.0010(5) 0.3497(3)
H13 H -0.2410 -0.0522 0.3209
H14 H -0.1947 -0.0063 0.3869
H15 H -0.2402 0.0664 0.3311
C16 C -0.3299(4) -0.1335(6) 0.3968(4)
H16 H -0.3820 -0.1557 0.4084
H17 H -0.2778 -0.1358 0.4325
H18 H -0.3206 -0.1778 0.3650
S5 S -0.46639(12) -0.32613(14) 0.27865(9)
O3 O -0.5000 -0.2260(3) 0.2500
C17 C -0.4391(3) -0.3981(4) 0.2171(3)
Na1B Na -0.56506(9) -0.08935(11) 0.29345(7)
S1D S 0.10533(6) -0.08654(7) -0.02589(4)
S2D S 0.01690(6) 0.09172(7) -0.07869(4)
O2B O -0.57938(18) -0.0136(2) 0.19217(13)
S5B S -0.53361(12) -0.32613(14) 0.22135(9)
C17B C -0.5609(3) -0.3981(4) 0.2829(3)
loop_
_geom_bond_atom_site_label_1
_geom_bond_atom_site_label_2
_geom_bond_site_symmetry_1
_geom_bond_site_symmetry_2
Ni1 S1 1_555 1_555
Na1 N1 1_555 1_555
S1 C1 1_555 1_555
S2 Ni1 1_555 1_555
N1 C6 1_555 1_555
N2 Na1 1_555 1_555
C1 S2 1_555 1_555
C2 C1 1_555 1_555
C3 C2 1_555 1_555
C4 C3 1_555 1_555
H1 C4 1_555 1_555
C5 C4 1_555 1_555
H2 C5 1_555 1_555
C6 C5 1_555 1_555
H3 C6 1_555 1_555
C7 N1 1_555 1_555
C8 C2 1_555 1_555
C9 C8 1_555 1_555
H4 C9 1_555 1_555
C10 C9 1_555 1_555
H5 C10 1_555 1_555
C11 N2 1_555 1_555
H6 C11 1_555 1_555
C12 N2 1_555 1_555
S3 O1 1_555 1_555
O1 Na1 1_555 1_555
C13 S3 1_555 1_555
H7 C13 1_555 1_555
H8 C13 1_555 1_555
H9 C13 1_555 1_555
C14 S3 1_555 1_555
H10 C14 1_555 1_555
H11 C14 1_555 1_555
H12 C14 1_555 1_555
S4 O2 1_555 1_555
O2 Na1 1_555 1_555
C15 S4 1_555 1_555
H13 C15 1_555 1_555
H14 C15 1_555 1_555
H15 C15 1_555 1_555
C16 S4 1_555 1_555
H16 C16 1_555 1_555
H17 C16 1_555 1_555
H18 C16 1_555 1_555
S5 O3 1_555 1_555
O3 Na1 1_555 1_555
C17 S5 1_555 1_555
Na1B O2 1_555 1_555
S1D Ni1 1_555 1_555
S2D Ni1 1_555 1_555
O2B Na1 1_555 1_555
S5B S5 1_555 1_555
C17B S5 1_555 1_555
C3 C7 1_555 1_555
C7 C12 1_555 1_555
C8 C12 1_555 1_555
C10 C11 1_555 1_555
O3 Na1B 1_555 1_555
O3 S5B 1_555 1_555
C17 S5B 1_555 1_555
Na1B O2B 1_555 1_555
S5B C17B 1_555 1_555

#END
