
#######################################################################
#
#                 Cambridge Crystallographic Data Centre
#                                CCDC 
#
#######################################################################
#
# If this CIF has been generated from an entry in the Cambridge 
# Structural Database, then it will include bibliographic, chemical, 
# crystal, experimental, refinement or atomic coordinate data resulting 
# from the CCDC's data processing and validation procedures.
#
#######################################################################

data_LEYYIZ
_symmetry_cell_setting           tetragonal
_symmetry_space_group_name_H-M   'P 42/n b c'
_symmetry_Int_Tables_number      133
_space_group_name_Hall           '-P 4ac 2b'
loop_
_symmetry_equiv_pos_site_id
_symmetry_equiv_pos_as_xyz
1 x,y,z
2 1/2-x,1/2-y,z
3 x,1/2-y,-z
4 1/2-x,y,-z
5 1/2-y,1/2-x,1/2-z
6 y,x,1/2-z
7 y,1/2-x,1/2+z
8 1/2-y,x,1/2+z
9 -x,-y,-z
10 1/2+x,1/2+y,-z
11 -x,1/2+y,z
12 1/2+x,-y,z
13 1/2+y,1/2+x,1/2+z
14 -y,-x,1/2+z
15 -y,1/2+x,1/2-z
16 1/2+y,-x,1/2-z
_cell_length_a                   16.3292(4)
_cell_length_b                   16.3292(4)
_cell_length_c                   19.9708(6)
_cell_angle_alpha                90
_cell_angle_beta                 90
_cell_angle_gamma                90
_cell_volume                     5325.07
loop_
_atom_site_label
_atom_site_type_symbol
_atom_site_fract_x
_atom_site_fract_y
_atom_site_fract_z
Cd1 Cd 0.10449(3) -0.2500 0.5000
Cd2 Cd 0.2500 -0.2500 0.2500
C1 C 0.0863(3) -0.4241(4) 0.5670(2)
C2 C 0.0531(3) -0.3931(3) 0.6262(2)
H1 H 0.0538 -0.3370 0.6343
C3 C 0.0201(4) -0.4440(4) 0.6716(3)
H2 H -0.0027 -0.4233 0.7108
C4 C 0.0202(4) -0.5273(4) 0.6598(3)
H3 H -0.0028 -0.5622 0.6914
C5 C 0.0529(3) -0.5590(3) 0.6037(3)
H4 H 0.0528 -0.6152 0.5963
C6 C 0.1195(3) -0.5219(3) 0.4968(4)
H5 H 0.1269 -0.5728 0.4769
C7 C 0.1402(3) -0.4470(3) 0.4702(2)
C8 C 0.1751(3) -0.4245(3) 0.4060(2)
C9 C 0.2156(3) -0.5613(4) 0.3589(2)
H6 H 0.2008 -0.5913 0.3965
C10 C 0.2469(6) -0.6009(3) 0.3048(2)
H7 H 0.2543 -0.6574 0.3056
C11 C 0.2678(5) -0.5561(3) 0.2484(2)
H8 H 0.2867 -0.5829 0.2104
C12 C 0.2609(5) -0.4739(3) 0.2482(2)
H9 H 0.2778 -0.4441 0.2110
C13 C 0.2286(3) -0.4339(3) 0.3032(2)
C14 C 0.1793(3) -0.3469(3) 0.3757(3)
C15 C -0.0676(5) -0.2500 0.5000
C16 C -0.1627(4) -0.2500 0.5000
C17 C -0.2082(3) -0.2493(7) 0.5596(2)
H10 H -0.170(2) -0.255(5) 0.5990(14)
N1 N 0.1179(2) -0.3854(2) 0.5144(2)
N2 N 0.0861(3) -0.5070(3) 0.55797(19)
N3 N 0.2148(2) -0.3546(3) 0.31221(17)
N4 N 0.2057(2) -0.4793(3) 0.35900(19)
O1 O 0.1557(2) -0.27737(18) 0.39718(13)
O2 O -0.0350(2) -0.2459(5) 0.55384(14)
C15A C -0.4324(5) -0.2500 0.5000
C16A C -0.3373(4) -0.2500 0.5000
C17A C -0.2918(3) -0.2507(7) 0.5596(2)
H10A H -0.330(2) -0.245(5) 0.5990(14)
O2A O -0.4650(2) -0.2541(5) 0.55384(14)
C17B C -0.2082(3) -0.2507(7) 0.4404(2)
H10B H -0.170(2) -0.245(5) 0.4010(14)
O2B O -0.0350(2) -0.2541(5) 0.44616(14)
C17C C -0.2918(3) -0.2493(7) 0.4404(2)
H10C H -0.330(2) -0.255(5) 0.4010(14)
O2C O -0.4650(2) -0.2459(5) 0.44616(14)
Cd1A Cd -0.60449(3) -0.2500 0.5000
C1A C -0.5863(3) -0.0759(4) 0.5670(2)
C2A C -0.5531(3) -0.1069(3) 0.6262(2)
H1A H -0.5538 -0.1630 0.6343
C3A C -0.5201(4) -0.0560(4) 0.6716(3)
H2A H -0.4973 -0.0767 0.7108
C4A C -0.5202(4) 0.0273(4) 0.6598(3)
H3A H -0.4972 0.0622 0.6914
C5A C -0.5529(3) 0.0590(3) 0.6037(3)
H4A H -0.5528 0.1152 0.5963
C6A C -0.6195(3) 0.0219(3) 0.4968(4)
H5A H -0.6269 0.0728 0.4769
C7A C -0.6402(3) -0.0530(3) 0.4702(2)
C8A C -0.6751(3) -0.0755(3) 0.4060(2)
C9A C -0.7156(3) 0.0613(4) 0.3589(2)
H6A H -0.7008 0.0913 0.3965
C10A C -0.7469(6) 0.1009(3) 0.3048(2)
H7A H -0.7543 0.1574 0.3056
C11A C -0.7678(5) 0.0561(3) 0.2484(2)
H8A H -0.7867 0.0829 0.2104
C12A C -0.7609(5) -0.0261(3) 0.2482(2)
H9A H -0.7778 -0.0559 0.2110
C13A C -0.7286(3) -0.0661(3) 0.3032(2)
C14A C -0.6793(3) -0.1531(3) 0.3757(3)
N1A N -0.6179(2) -0.1146(2) 0.5144(2)
N2A N -0.5861(3) 0.0070(3) 0.55797(19)
N3A N -0.7148(2) -0.1454(3) 0.31221(17)
N4A N -0.7057(2) -0.0207(3) 0.35900(19)
O1A O -0.6557(2) -0.22263(18) 0.39718(13)
C1B C 0.0863(3) -0.0759(4) 0.4330(2)
C2B C 0.0531(3) -0.1069(3) 0.3738(2)
H1B H 0.0538 -0.1630 0.3657
C3B C 0.0201(4) -0.0560(4) 0.3284(3)
H2B H -0.0027 -0.0767 0.2892
C4B C 0.0202(4) 0.0273(4) 0.3402(3)
H3B H -0.0028 0.0622 0.3086
C5B C 0.0529(3) 0.0590(3) 0.3963(3)
H4B H 0.0528 0.1152 0.4037
C6B C 0.1195(3) 0.0219(3) 0.5032(4)
H5B H 0.1269 0.0728 0.5231
C7B C 0.1402(3) -0.0530(3) 0.5298(2)
C8B C 0.1751(3) -0.0755(3) 0.5940(2)
C9B C 0.2156(3) 0.0613(4) 0.6411(2)
H6B H 0.2008 0.0913 0.6035
C10B C 0.2469(6) 0.1009(3) 0.6952(2)
H7B H 0.2543 0.1574 0.6944
C11B C 0.2678(5) 0.0561(3) 0.7516(2)
H8B H 0.2867 0.0829 0.7896
C12B C 0.2609(5) -0.0261(3) 0.7518(2)
H9B H 0.2778 -0.0559 0.7890
C13B C 0.2286(3) -0.0661(3) 0.6968(2)
C14B C 0.1793(3) -0.1531(3) 0.6243(3)
N1B N 0.1179(2) -0.1146(2) 0.4856(2)
N2B N 0.0861(3) 0.0070(3) 0.44203(19)
N3B N 0.2148(2) -0.1454(3) 0.68779(17)
N4B N 0.2057(2) -0.0207(3) 0.64100(19)
O1B O 0.1557(2) -0.22263(18) 0.60282(13)
C1C C -0.5863(3) -0.4241(4) 0.4330(2)
C2C C -0.5531(3) -0.3931(3) 0.3738(2)
H1C H -0.5538 -0.3370 0.3657
C3C C -0.5201(4) -0.4440(4) 0.3284(3)
H2C H -0.4973 -0.4233 0.2892
C4C C -0.5202(4) -0.5273(4) 0.3402(3)
H3C H -0.4972 -0.5622 0.3086
C5C C -0.5529(3) -0.5590(3) 0.3963(3)
H4C H -0.5528 -0.6152 0.4037
C6C C -0.6195(3) -0.5219(3) 0.5032(4)
H5C H -0.6269 -0.5728 0.5231
C7C C -0.6402(3) -0.4470(3) 0.5298(2)
C8C C -0.6751(3) -0.4245(3) 0.5940(2)
C9C C -0.7156(3) -0.5613(4) 0.6411(2)
H6C H -0.7008 -0.5913 0.6035
C10C C -0.7469(6) -0.6009(3) 0.6952(2)
H7C H -0.7543 -0.6574 0.6944
C11C C -0.7678(5) -0.5561(3) 0.7516(2)
H8C H -0.7867 -0.5829 0.7896
C12C C -0.7609(5) -0.4739(3) 0.7518(2)
H9C H -0.7778 -0.4441 0.7890
C13C C -0.7286(3) -0.4339(3) 0.6968(2)
C14C C -0.6793(3) -0.3469(3) 0.6243(3)
N1C N -0.6179(2) -0.3854(2) 0.4856(2)
N2C N -0.5861(3) -0.5070(3) 0.44203(19)
N3C N -0.7148(2) -0.3546(3) 0.68779(17)
N4C N -0.7057(2) -0.4793(3) 0.64100(19)
O1C O -0.6557(2) -0.27737(18) 0.60282(13)
Cd2_2 Cd -0.7500 -0.2500 0.2500
Cd2B Cd -0.7500 -0.2500 0.7500
Cd2B_2 Cd 0.2500 -0.2500 0.7500
N3A_2 N 0.2852(2) -0.1454(3) 0.31221(17)
N3N N 0.3546(3) -0.2852(2) 0.18779(17)
N3O N 0.1454(3) -0.2148(2) 0.18779(17)
loop_
_geom_bond_atom_site_label_1
_geom_bond_atom_site_label_2
_geom_bond_site_symmetry_1
_geom_bond_site_symmetry_2
Cd1 N1 1_555 1_555
Cd2 N3 1_555 1_555
C1 C2 1_555 1_555
C2 H1 1_555 1_555
C3 C2 1_555 1_555
H2 C3 1_555 1_555
C4 C3 1_555 1_555
H3 C4 1_555 1_555
C5 C4 1_555 1_555
H4 C5 1_555 1_555
C6 H5 1_555 1_555
C7 C6 1_555 1_555
C8 C7 1_555 1_555
C9 H6 1_555 1_555
C10 C9 1_555 1_555
H7 C10 1_555 1_555
C11 C10 1_555 1_555
H8 C11 1_555 1_555
C12 C11 1_555 1_555
H9 C12 1_555 1_555
C13 C12 1_555 1_555
C14 C8 1_555 1_555
C15 C16 1_555 1_555
C16 C17 1_555 1_555
C17 H10 1_555 1_555
N1 C1 1_555 1_555
N2 C1 1_555 1_555
N3 C13 1_555 1_555
N4 C8 1_555 1_555
O1 Cd1 1_555 1_555
O2 Cd1 1_555 1_555
C15A C16A 1_555 1_555
C16A C17A 1_555 1_555
C17A C17 1_555 1_555
H10A C17A 1_555 1_555
O2A C15A 1_555 1_555
C17B C16 1_555 1_555
H10B C17B 1_555 1_555
O2B Cd1 1_555 1_555
C17C C16A 1_555 1_555
H10C C17C 1_555 1_555
O2C C15A 1_555 1_555
Cd1A O2A 1_555 1_555
C1A C2A 1_555 1_555
C2A H1A 1_555 1_555
C3A C2A 1_555 1_555
H2A C3A 1_555 1_555
C4A C3A 1_555 1_555
H3A C4A 1_555 1_555
C5A C4A 1_555 1_555
H4A C5A 1_555 1_555
C6A H5A 1_555 1_555
C7A C6A 1_555 1_555
C8A C7A 1_555 1_555
C9A H6A 1_555 1_555
C10A C9A 1_555 1_555
H7A C10A 1_555 1_555
C11A C10A 1_555 1_555
H8A C11A 1_555 1_555
C12A C11A 1_555 1_555
H9A C12A 1_555 1_555
C13A C12A 1_555 1_555
C14A C8A 1_555 1_555
N1A Cd1A 1_555 1_555
N2A C1A 1_555 1_555
N3A C13A 1_555 1_555
N4A C8A 1_555 1_555
O1A Cd1A 1_555 1_555
C1B C2B 1_555 1_555
C2B H1B 1_555 1_555
C3B C2B 1_555 1_555
H2B C3B 1_555 1_555
C4B C3B 1_555 1_555
H3B C4B 1_555 1_555
C5B C4B 1_555 1_555
H4B C5B 1_555 1_555
C6B H5B 1_555 1_555
C7B C6B 1_555 1_555
C8B C7B 1_555 1_555
C9B H6B 1_555 1_555
C10B C9B 1_555 1_555
H7B C10B 1_555 1_555
C11B C10B 1_555 1_555
H8B C11B 1_555 1_555
C12B C11B 1_555 1_555
H9B C12B 1_555 1_555
C13B C12B 1_555 1_555
C14B C8B 1_555 1_555
N1B Cd1 1_555 1_555
N2B C1B 1_555 1_555
N3B C13B 1_555 1_555
N4B C8B 1_555 1_555
O1B Cd1 1_555 1_555
C1C C2C 1_555 1_555
C2C H1C 1_555 1_555
C3C C2C 1_555 1_555
H2C C3C 1_555 1_555
C4C C3C 1_555 1_555
H3C C4C 1_555 1_555
C5C C4C 1_555 1_555
H4C C5C 1_555 1_555
C6C H5C 1_555 1_555
C7C C6C 1_555 1_555
C8C C7C 1_555 1_555
C9C H6C 1_555 1_555
C10C C9C 1_555 1_555
H7C C10C 1_555 1_555
C11C C10C 1_555 1_555
H8C C11C 1_555 1_555
C12C C11C 1_555 1_555
H9C C12C 1_555 1_555
C13C C12C 1_555 1_555
C14C C8C 1_555 1_555
N1C Cd1A 1_555 1_555
N2C C1C 1_555 1_555
N3C C13C 1_555 1_555
N4C C8C 1_555 1_555
O1C Cd1A 1_555 1_555
Cd2_2 N3A 1_555 1_555
Cd2B N3C 1_555 1_555
Cd2B_2 N3B 1_555 1_555
N3A_2 Cd2 1_555 1_555
N3N Cd2 1_555 1_555
N3O Cd2 1_555 1_555
C5 N2 1_555 1_555
C6 N2 1_555 1_555
C7 N1 1_555 1_555
C9 N4 1_555 1_555
C13 N4 1_555 1_555
C14 N3 1_555 1_555
C14 O1 1_555 1_555
C15 O2 1_555 1_555
C15 O2B 1_555 1_555
C17B C17C 1_555 1_555
O2C Cd1A 1_555 1_555
C1A N1A 1_555 1_555
C5A N2A 1_555 1_555
C6A N2A 1_555 1_555
C7A N1A 1_555 1_555
C9A N4A 1_555 1_555
C13A N4A 1_555 1_555
C14A N3A 1_555 1_555
C14A O1A 1_555 1_555
C1B N1B 1_555 1_555
C5B N2B 1_555 1_555
C6B N2B 1_555 1_555
C7B N1B 1_555 1_555
C9B N4B 1_555 1_555
C13B N4B 1_555 1_555
C14B N3B 1_555 1_555
C14B O1B 1_555 1_555
C1C N1C 1_555 1_555
C5C N2C 1_555 1_555
C6C N2C 1_555 1_555
C7C N1C 1_555 1_555
C9C N4C 1_555 1_555
C13C N4C 1_555 1_555
C14C N3C 1_555 1_555
C14C O1C 1_555 1_555

#END
