
#######################################################################
#
#                 Cambridge Crystallographic Data Centre
#                                CCDC 
#
#######################################################################
#
# If this CIF has been generated from an entry in the Cambridge 
# Structural Database, then it will include bibliographic, chemical, 
# crystal, experimental, refinement or atomic coordinate data resulting 
# from the CCDC's data processing and validation procedures.
#
#######################################################################

data_LEZBOI
_symmetry_cell_setting           monoclinic
_symmetry_space_group_name_H-M   'P 21/c'
_symmetry_Int_Tables_number      14
_space_group_name_Hall           '-P 2ybc'
loop_
_symmetry_equiv_pos_site_id
_symmetry_equiv_pos_as_xyz
1 x,y,z
2 -x,1/2+y,1/2-z
3 -x,-y,-z
4 x,1/2-y,1/2+z
_cell_length_a                   9.3401(3)
_cell_length_b                   18.4189(7)
_cell_length_c                   6.7130(3)
_cell_angle_alpha                90
_cell_angle_beta                 104.779(3)
_cell_angle_gamma                90
_cell_volume                     1116.66
loop_
_atom_site_label
_atom_site_type_symbol
_atom_site_fract_x
_atom_site_fract_y
_atom_site_fract_z
Ca1 Ca 0.80981(5) 0.48216(2) 0.59399(8)
O1 O 0.65368(19) 0.58524(9) 0.6237(3)
O2 O 0.88955(19) 0.60335(9) 0.7667(3)
O3 O 1.08253(18) 0.85796(9) 0.8998(3)
O4 O 0.92307(18) 0.94925(9) 0.8406(3)
O5 O 0.43660(19) 0.83929(9) 0.4923(3)
H1 H 0.3808 0.8076 0.4314
O6 O 0.6292(2) 0.46463(12) 0.2616(3)
H2 H 0.5615 0.4960 0.2187
H3 H 0.6342 0.4273 0.1892
C1 C 0.7334(3) 0.70781(12) 0.6930(3)
C2 C 0.8507(3) 0.75494(12) 0.7713(4)
H4 H 0.9443 0.7367 0.8333
C3 C 0.8268(3) 0.82941(12) 0.7560(4)
C4 C 0.6874(3) 0.85706(12) 0.6609(4)
H5 H 0.6722 0.9069 0.6496
C5 C 0.5716(3) 0.80953(13) 0.5831(4)
C6 C 0.5937(3) 0.73472(12) 0.6013(4)
H6 H 0.5150 0.7031 0.5521
C7 C 0.7609(3) 0.62728(12) 0.6984(4)
C8 C 0.9517(3) 0.88198(13) 0.8382(4)
O7 O 0.6054(2) 0.41947(12) 0.6617(3)
H7 H 0.5206 0.4395 0.6346
H8 H 0.6168 0.3770 0.7129
O8 O 0.8567(2) 0.45263(11) 0.9680(3)
H9 H 0.8074 0.4738 1.0413
H10 H 0.9219 0.4213 1.0220
Ca1A Ca 1.19019(5) 0.98216(2) 0.90601(8)
Ca1C Ca 0.80981(5) 1.01784(2) 1.09399(8)
O3A O 0.91747(18) 0.35796(9) 0.6002(3)
O4C O 0.92307(18) 0.55075(9) 0.3406(3)
O4A O 1.07693(18) 0.44925(9) 0.6594(3)
O9 O 0.2306(2) 0.75778(13) 0.2417(4)
H11 H 0.2396 0.7995 0.2979
H12 H 0.1547 0.7480 0.1449
loop_
_geom_bond_atom_site_label_1
_geom_bond_atom_site_label_2
_geom_bond_site_symmetry_1
_geom_bond_site_symmetry_2
Ca1 O1 1_555 1_555
O1 C7 1_555 1_555
O2 Ca1 1_555 1_555
O3 C8 1_555 1_555
O4 C8 1_555 1_555
O5 H1 1_555 1_555
O6 Ca1 1_555 1_555
H2 O6 1_555 1_555
H3 O6 1_555 1_555
C1 C2 1_555 1_555
C2 H4 1_555 1_555
C3 C2 1_555 1_555
C4 C3 1_555 1_555
H5 C4 1_555 1_555
C5 O5 1_555 1_555
C6 C1 1_555 1_555
H6 C6 1_555 1_555
C7 O2 1_555 1_555
C8 C3 1_555 1_555
O7 Ca1 1_555 1_555
H7 O7 1_555 1_555
H8 O7 1_555 1_555
O8 Ca1 1_555 1_555
H9 O8 1_555 1_555
H10 O8 1_555 1_555
O9 H11 1_555 1_555
H12 O9 1_555 1_555
Ca1A O3 1_555 1_555
Ca1C O4 1_555 1_555
O3A Ca1 1_555 1_555
O4C Ca1 1_555 1_555
O4A Ca1 1_555 1_555
O4 Ca1A 1_555 1_555
C1 C7 1_555 1_555
C4 C5 1_555 1_555
C5 C6 1_555 1_555

#END
