
#######################################################################
#
#                 Cambridge Crystallographic Data Centre
#                                CCDC 
#
#######################################################################
#
# If this CIF has been generated from an entry in the Cambridge 
# Structural Database, then it will include bibliographic, chemical, 
# crystal, experimental, refinement or atomic coordinate data resulting 
# from the CCDC's data processing and validation procedures.
#
#######################################################################

data_LEZBIC
_symmetry_cell_setting           monoclinic
_symmetry_space_group_name_H-M   'P 21/c'
_symmetry_Int_Tables_number      14
_space_group_name_Hall           '-P 2ybc'
loop_
_symmetry_equiv_pos_site_id
_symmetry_equiv_pos_as_xyz
1 x,y,z
2 -x,1/2+y,1/2-z
3 -x,-y,-z
4 x,1/2-y,1/2+z
_cell_length_a                   11.1069(4)
_cell_length_b                   14.8192(6)
_cell_length_c                   6.5005(2)
_cell_angle_alpha                90.00
_cell_angle_beta                 103.465(3)
_cell_angle_gamma                90.00
_cell_volume                     1040.54
loop_
_atom_site_label
_atom_site_type_symbol
_atom_site_fract_x
_atom_site_fract_y
_atom_site_fract_z
Ba1 Ba 1.114355(15) 0.869985(11) 1.22503(3)
O1 O 0.88963(19) 0.83607(14) 0.9685(4)
O2 O 0.98822(18) 0.70572(14) 1.0113(3)
O3 O 0.53935(19) 0.42917(14) 0.7717(4)
O4 O 0.74531(19) 0.42177(14) 0.8813(3)
O5 O 0.43917(18) 0.75602(14) 0.6945(4)
H1 H 0.4523 0.8104 0.7093
O6 O 0.9660(3) 1.03605(19) 1.2198(4)
O7 O 1.2287(2) 0.79203(18) 0.9178(5)
O8 O 1.2641(3) 1.01035(17) 1.1417(4)
C1 C 0.7683(2) 0.70409(18) 0.8913(4)
C2 C 0.6605(3) 0.75373(19) 0.8261(5)
H2 H 0.6640 0.8164 0.8264
C3 C 0.5473(2) 0.71021(19) 0.7601(4)
C4 C 0.5423(3) 0.61642(18) 0.7581(5)
H3 H 0.4668 0.5870 0.7119
C5 C 0.6504(3) 0.56688(18) 0.8255(4)
C6 C 0.7624(3) 0.6108(2) 0.8907(4)
H4 H 0.8346 0.5774 0.9348
C7 C 0.8901(2) 0.75203(19) 0.9614(4)
C8 C 0.6434(3) 0.46567(19) 0.8266(5)
H5 H 0.904(5) 1.043(4) 1.261(7)
H6 H 1.292(3) 0.778(2) 0.982(6)
H7 H 1.227(3) 1.057(3) 1.103(6)
H8 H 1.237(4) 0.820(3) 0.840(7)
H9 H 0.991(4) 1.077(3) 1.271(6)
H10 H 1.335(5) 1.030(4) 1.157(9)
Ba1C Ba 1.114355(15) 0.630015(11) 0.72503(3)
Ba1A Ba 0.885645(15) 0.369985(11) 1.27497(3)
Ba1B Ba 0.885645(15) 1.130015(11) 0.77497(3)
O2C O 0.98822(18) 0.79428(14) 1.5113(3)
O4A O 1.25469(19) 0.92177(14) 1.6187(3)
O6B O 1.0340(3) 0.96395(19) 0.7802(4)
O7C O 1.2287(2) 0.70797(18) 1.4178(5)
H5B H 1.096(5) 0.957(4) 0.739(7)
H6C H 1.292(3) 0.722(2) 1.482(6)
H8C H 1.237(4) 0.680(3) 1.340(7)
H9B H 1.009(4) 0.923(3) 0.729(6)
loop_
_geom_bond_atom_site_label_1
_geom_bond_atom_site_label_2
_geom_bond_site_symmetry_1
_geom_bond_site_symmetry_2
Ba1 O1 1_555 1_555
O1 C7 1_555 1_555
O2 Ba1 1_555 1_555
O3 C8 1_555 1_555
O4 C8 1_555 1_555
O5 H1 1_555 1_555
O6 Ba1 1_555 1_555
O7 Ba1 1_555 1_555
O8 Ba1 1_555 1_555
C1 C2 1_555 1_555
C2 H2 1_555 1_555
C3 O5 1_555 1_555
C4 C3 1_555 1_555
H3 C4 1_555 1_555
C5 C4 1_555 1_555
C6 C1 1_555 1_555
H4 C6 1_555 1_555
C7 O2 1_555 1_555
C8 C5 1_555 1_555
H5 O6 1_555 1_555
H6 O7 1_555 1_555
H7 O8 1_555 1_555
H8 O7 1_555 1_555
H9 O6 1_555 1_555
H10 O8 1_555 1_555
Ba1C O2 1_555 1_555
Ba1A O4 1_555 1_555
Ba1B O6 1_555 1_555
O2C Ba1 1_555 1_555
O4A Ba1 1_555 1_555
O6B Ba1 1_555 1_555
O7C Ba1 1_555 1_555
H5B O6B 1_555 1_555
H6C O7C 1_555 1_555
H8C O7C 1_555 1_555
H9B O6B 1_555 1_555
O7 Ba1C 1_555 1_555
C1 C7 1_555 1_555
C2 C3 1_555 1_555
C5 C6 1_555 1_555
Ba1B O6B 1_555 1_555

#END
