
#######################################################################
#
#                 Cambridge Crystallographic Data Centre
#                                CCDC 
#
#######################################################################
#
# If this CIF has been generated from an entry in the Cambridge 
# Structural Database, then it will include bibliographic, chemical, 
# crystal, experimental, refinement or atomic coordinate data resulting 
# from the CCDC's data processing and validation procedures.
#
#######################################################################

data_LEZGED
_symmetry_cell_setting           rhombohedral
_symmetry_space_group_name_H-M   'R 3 c'
_symmetry_Int_Tables_number      161
_space_group_name_Hall           'R 3 -2"c'
loop_
_symmetry_equiv_pos_site_id
_symmetry_equiv_pos_as_xyz
1 x,y,z
2 -y,x-y,z
3 -x+y,-x,z
4 -y,-x,1/2+z
5 -x+y,y,1/2+z
6 x,x-y,1/2+z
7 2/3+x,1/3+y,1/3+z
8 2/3-y,1/3+x-y,1/3+z
9 2/3-x+y,1/3-x,1/3+z
10 2/3-y,1/3-x,5/6+z
11 2/3-x+y,1/3+y,5/6+z
12 2/3+x,1/3+x-y,5/6+z
13 1/3+x,2/3+y,2/3+z
14 1/3-y,2/3+x-y,2/3+z
15 1/3-x+y,2/3-x,2/3+z
16 1/3-y,2/3-x,1/6+z
17 1/3-x+y,2/3+y,1/6+z
18 1/3+x,2/3+x-y,1/6+z
_cell_length_a                   10.0996(2)
_cell_length_b                   10.0996(2)
_cell_length_c                   37.2991(12)
_cell_angle_alpha                90
_cell_angle_beta                 90
_cell_angle_gamma                120.00
_cell_volume                     3294.86
loop_
_atom_site_label
_atom_site_type_symbol
_atom_site_fract_x
_atom_site_fract_y
_atom_site_fract_z
Mn1 Mn 0.0000 0.0000 0.003402(17)
Na1 Na 0.0000 0.0000 -0.08505(4)
C1 C 0.2860(3) 0.2710(3) -0.03286(7)
C2 C 0.5164(4) 0.4573(4) -0.06278(10)
H1 H 0.5795 0.4829 -0.0828
C3 C 0.5554(4) 0.5547(4) -0.03527(11)
H2 H 0.6455 0.6486 -0.0360
C4 C 0.4593(3) 0.5139(3) -0.00550(10)
H3 H 0.4855 0.5828 0.0134
C5 C 0.3277(3) 0.3756(3) -0.00327(7)
C6 C 0.2276(3) 0.3369(3) 0.02951(7)
N1 N 0.3854(3) 0.3218(3) -0.06143(6)
H4 H 0.3622 0.2627 -0.0798
O1 O 0.1714(2) 0.1403(2) -0.03547(5)
O2 O 0.1121(2) 0.2051(2) 0.03325(5)
O3 O 0.2653(3) 0.4393(2) 0.05260(5)
Na1O Na 0.3333 0.6667 0.08162(4)
Na1O_2 Na -0.6667 -0.3333 0.08162(4)
Na1O_3 Na 0.3333 -0.3333 0.08162(4)
C1A C -0.2710(3) 0.0150(4) -0.03286(7)
C1B C -0.0150(4) -0.2860(3) -0.03286(7)
C2A C -0.4573(4) 0.0591(6) -0.06278(10)
C2B C -0.0591(6) -0.5164(4) -0.06278(10)
H1A H -0.4829 0.0966 -0.0828
H1B H -0.0966 -0.5795 -0.0828
C3A C -0.5547(4) 0.0007(6) -0.03527(11)
C3B C -0.0007(6) -0.5554(4) -0.03527(11)
H2A H -0.6486 -0.0031 -0.0360
H2B H 0.0031 -0.6455 -0.0360
C4A C -0.5139(3) -0.0546(4) -0.00550(10)
C4B C 0.0546(4) -0.4593(3) -0.00550(10)
H3A H -0.5828 -0.0973 0.0134
H3B H 0.0973 -0.4855 0.0134
C5A C -0.3756(3) -0.0479(4) -0.00327(7)
C5B C 0.0479(4) -0.3277(3) -0.00327(7)
C6A C -0.3369(3) -0.1093(4) 0.02951(7)
C6B C 0.1093(4) -0.2276(3) 0.02951(7)
N1A N -0.3218(3) 0.0636(4) -0.06143(6)
N1B N -0.0636(4) -0.3854(3) -0.06143(6)
H4A H -0.2627 0.0995 -0.0798
H4B H -0.0995 -0.3622 -0.0798
O1A O -0.1403(2) 0.0311(3) -0.03547(5)
O1B O -0.0311(3) -0.1714(2) -0.03547(5)
O2A O -0.2051(2) -0.0930(3) 0.03325(5)
O2B O 0.0930(3) -0.1121(2) 0.03325(5)
O3A O -0.4393(2) -0.1740(4) 0.05260(5)
O3B O 0.1740(4) -0.2653(3) 0.05260(5)
O3I O 0.2274(2) 0.0680(3) -0.11407(5)
O3J O -0.1593(4) -0.2274(2) -0.11407(5)
O3K O -0.0680(3) 0.1593(4) -0.11407(5)
loop_
_geom_bond_atom_site_label_1
_geom_bond_atom_site_label_2
_geom_bond_site_symmetry_1
_geom_bond_site_symmetry_2
Mn1 O1 1_555 1_555
Na1 O1 1_555 1_555
C1 C5 1_555 1_555
C2 H1 1_555 1_555
C3 C2 1_555 1_555
H2 C3 1_555 1_555
C4 C3 1_555 1_555
H3 C4 1_555 1_555
C5 C4 1_555 1_555
C6 C5 1_555 1_555
N1 C1 1_555 1_555
H4 N1 1_555 1_555
O1 C1 1_555 1_555
O2 Mn1 1_555 1_555
O3 C6 1_555 1_555
Na1O O3 1_555 1_555
Na1O_2 O3A 1_555 1_555
Na1O_3 O3B 1_555 1_555
C1A C5A 1_555 1_555
C1B C5B 1_555 1_555
C2A H1A 1_555 1_555
C2B H1B 1_555 1_555
C3A C2A 1_555 1_555
C3B C2B 1_555 1_555
H2A C3A 1_555 1_555
H2B C3B 1_555 1_555
C4A C3A 1_555 1_555
C4B C3B 1_555 1_555
H3A C4A 1_555 1_555
H3B C4B 1_555 1_555
C5A C4A 1_555 1_555
C5B C4B 1_555 1_555
C6A C5A 1_555 1_555
C6B C5B 1_555 1_555
N1A C1A 1_555 1_555
N1B C1B 1_555 1_555
H4A N1A 1_555 1_555
H4B N1B 1_555 1_555
O1A Mn1 1_555 1_555
O1B Mn1 1_555 1_555
O2A Mn1 1_555 1_555
O2B Mn1 1_555 1_555
O3A C6A 1_555 1_555
O3B C6B 1_555 1_555
O3I Na1 1_555 1_555
O3J Na1 1_555 1_555
O3K Na1 1_555 1_555
Na1 O1A 1_555 1_555
Na1 O1B 1_555 1_555
C2 N1 1_555 1_555
C6 O2 1_555 1_555
C1A O1A 1_555 1_555
C1B O1B 1_555 1_555
C2A N1A 1_555 1_555
C2B N1B 1_555 1_555
C6A O2A 1_555 1_555
C6B O2B 1_555 1_555

#END
