
#######################################################################
#
#                 Cambridge Crystallographic Data Centre
#                                CCDC 
#
#######################################################################
#
# If this CIF has been generated from an entry in the Cambridge 
# Structural Database, then it will include bibliographic, chemical, 
# crystal, experimental, refinement or atomic coordinate data resulting 
# from the CCDC's data processing and validation procedures.
#
#######################################################################

data_LEZGAZ
_symmetry_cell_setting           triclinic
_symmetry_space_group_name_H-M   'P -1'
_symmetry_Int_Tables_number      2
_space_group_name_Hall           '-P 1'
loop_
_symmetry_equiv_pos_site_id
_symmetry_equiv_pos_as_xyz
1 x,y,z
2 -x,-y,-z
_cell_length_a                   6.38850(10)
_cell_length_b                   10.9899(3)
_cell_length_c                   13.0130(5)
_cell_angle_alpha                72.1270(10)
_cell_angle_beta                 77.6500(10)
_cell_angle_gamma                74.074(2)
_cell_volume                     827.726
loop_
_atom_site_label
_atom_site_type_symbol
_atom_site_fract_x
_atom_site_fract_y
_atom_site_fract_z
Mn1 Mn 0.15318(7) 0.59480(5) 0.02915(4)
Mn2 Mn 0.14985(7) 1.06449(5) -0.43744(4)
S1 S 0.20953(12) 0.78578(7) -0.22804(7)
O1 O -0.0236(3) 0.7237(2) 0.1314(2)
O2 O -0.1836(3) 0.5668(2) 0.04673(19)
O3 O -0.5400(3) 0.6161(2) 0.0481(2)
O4 O -0.0343(3) 1.2092(2) -0.3520(2)
O5 O -0.1848(3) 1.0812(2) -0.47295(19)
O6 O -0.5388(3) 1.0912(2) -0.4245(2)
O7 O 0.1853(3) 0.4409(2) 0.1832(2)
H1 H 0.0838 0.4034 0.1978
H2 H 0.3175 0.3780 0.1881
O8 O 0.1856(4) 1.2165(2) -0.5882(2)
H3 H 0.3057 1.1956 -0.6237
H4 H 0.1037 1.2293 -0.6301
O9 O 0.1344(3) 0.9279(2) -0.27777(19)
O10 O 0.1277(4) 0.7604(2) -0.1104(2)
O11 O 0.1214(4) 0.7093(2) -0.2764(2)
O12 O 0.4513(3) 0.7498(2) -0.2455(2)
N1 N -0.2703(4) 0.9023(3) 0.1655(2)
H5 H -0.1682 0.9201 0.1883
N2 N -0.2777(4) 1.3910(3) -0.3229(2)
H6 H -0.1775 1.4068 -0.2972
C1 C -0.2178(5) 0.7906(3) 0.1300(3)
C2 C -0.3953(5) 0.7631(3) 0.0953(3)
C3 C -0.5979(5) 0.8494(3) 0.0979(3)
H7 H -0.7120 0.8317 0.0750
C4 C -0.6380(5) 0.9627(3) 0.1340(3)
H8 H -0.7758 1.0197 0.1350
C5 C -0.4693(5) 0.9864(3) 0.1675(3)
H9 H -0.4908 1.0606 0.1919
C6 C -0.3722(5) 0.6416(3) 0.0612(3)
C7 C -0.2259(5) 1.2790(3) -0.3578(3)
C8 C -0.4020(5) 1.2544(3) -0.3959(3)
C9 C -0.6014(5) 1.3417(3) -0.3963(3)
H10 H -0.7152 1.3243 -0.4198
C10 C -0.6400(5) 1.4561(3) -0.3626(3)
H11 H -0.7756 1.5153 -0.3654
C11 C -0.4744(5) 1.4786(3) -0.3256(3)
H12 H -0.4957 1.5537 -0.3023
C12 C -0.3749(5) 1.1344(3) -0.4327(3)
Mn1A Mn -0.15318(7) 0.40520(5) -0.02915(4)
Mn1_2 Mn -0.84682(7) 0.59480(5) 0.02915(4)
Mn2A Mn -0.14985(7) 0.93551(5) -0.56256(4)
Mn2_2 Mn -0.85015(7) 1.06449(5) -0.43744(4)
O2A O 0.1836(3) 0.4332(2) -0.04673(19)
O3_2 O 0.4600(3) 0.6161(2) 0.0481(2)
O5A O 0.1848(3) 0.9188(2) -0.52705(19)
O6_2 O 0.4612(3) 1.0912(2) -0.4245(2)
loop_
_geom_bond_atom_site_label_1
_geom_bond_atom_site_label_2
_geom_bond_site_symmetry_1
_geom_bond_site_symmetry_2
Mn1 O1 1_555 1_555
Mn2 O4 1_555 1_555
S1 O9 1_555 1_555
O1 C1 1_555 1_555
O2 Mn1 1_555 1_555
O3 C6 1_555 1_555
O4 C7 1_555 1_555
O5 Mn2 1_555 1_555
O6 C12 1_555 1_555
O7 Mn1 1_555 1_555
H1 O7 1_555 1_555
H2 O7 1_555 1_555
O8 Mn2 1_555 1_555
H3 O8 1_555 1_555
H4 O8 1_555 1_555
O9 Mn2 1_555 1_555
O10 Mn1 1_555 1_555
O11 S1 1_555 1_555
O12 S1 1_555 1_555
N1 H5 1_555 1_555
N2 H6 1_555 1_555
C1 N1 1_555 1_555
C2 C1 1_555 1_555
C3 C2 1_555 1_555
H7 C3 1_555 1_555
C4 C3 1_555 1_555
H8 C4 1_555 1_555
C5 N1 1_555 1_555
H9 C5 1_555 1_555
C6 O2 1_555 1_555
C7 N2 1_555 1_555
C8 C7 1_555 1_555
C9 C8 1_555 1_555
H10 C9 1_555 1_555
C10 C9 1_555 1_555
H11 C10 1_555 1_555
C11 N2 1_555 1_555
H12 C11 1_555 1_555
C12 O5 1_555 1_555
Mn1A O2 1_555 1_555
Mn1_2 O3 1_555 1_555
Mn2A O5 1_555 1_555
Mn2_2 O6 1_555 1_555
O2A Mn1 1_555 1_555
O3_2 Mn1 1_555 1_555
O5A Mn2 1_555 1_555
O6_2 Mn2 1_555 1_555
S1 O10 1_555 1_555
C2 C6 1_555 1_555
C4 C5 1_555 1_555
C8 C12 1_555 1_555
C10 C11 1_555 1_555
Mn1A O2A 1_555 1_555
Mn2A O5A 1_555 1_555

#END
