
#######################################################################
#
#                 Cambridge Crystallographic Data Centre
#                                CCDC 
#
#######################################################################
#
# If this CIF has been generated from an entry in the Cambridge 
# Structural Database, then it will include bibliographic, chemical, 
# crystal, experimental, refinement or atomic coordinate data resulting 
# from the CCDC's data processing and validation procedures.
#
#######################################################################

data_LEZNUB
_symmetry_cell_setting           rhombohedral
_symmetry_space_group_name_H-M   'R 3 2'
_symmetry_Int_Tables_number      155
_space_group_name_Hall           'R 3 2"'
loop_
_symmetry_equiv_pos_site_id
_symmetry_equiv_pos_as_xyz
1 x,y,z
2 -y,x-y,z
3 -x+y,-x,z
4 y,x,-z
5 x-y,-y,-z
6 -x,-x+y,-z
7 2/3+x,1/3+y,1/3+z
8 2/3-y,1/3+x-y,1/3+z
9 2/3-x+y,1/3-x,1/3+z
10 2/3+y,1/3+x,1/3-z
11 2/3+x-y,1/3-y,1/3-z
12 2/3-x,1/3-x+y,1/3-z
13 1/3+x,2/3+y,2/3+z
14 1/3-y,2/3+x-y,2/3+z
15 1/3-x+y,2/3-x,2/3+z
16 1/3+y,2/3+x,2/3-z
17 1/3+x-y,2/3-y,2/3-z
18 1/3-x,2/3-x+y,2/3-z
_cell_length_a                   12.2943(8)
_cell_length_b                   12.2943(8)
_cell_length_c                   19.556(3)
_cell_angle_alpha                90
_cell_angle_beta                 90
_cell_angle_gamma                120
_cell_volume                     2559.87
loop_
_atom_site_label
_atom_site_type_symbol
_atom_site_fract_x
_atom_site_fract_y
_atom_site_fract_z
C1 C 0.8900(5) 0.7766(4) 0.77955(17)
C2 C 0.9189(4) 0.7194(4) 0.7191(2)
C3 C 0.8331(6) 0.6667 0.6667
H1 H 0.7575 0.6667 0.6667
C4 C 1.0558(6) 0.6667 0.6667
Er1 Er 0.6667 0.84335(2) 0.8333
N1 N 1.0276(3) 0.7204(3) 0.72090(16)
O1 O 0.7972(3) 0.7911(4) 0.77455(15)
O2 O 0.9605(3) 0.8029(3) 0.83111(14)
O3 O 1.1572(4) 0.6667 0.6667
O4 O 0.7920(3) 0.8223(3) 0.91523(14)
H2 H 0.8644 0.8363 0.9099
H3 H 0.7964 0.8556 0.9523
C1J C 0.7801(6) 0.5567(4) 0.55378(17)
C2J C 0.8662(6) 0.6139(4) 0.6142(2)
N1J N 0.9739(4) 0.6129(3) 0.61243(16)
O1J O 0.6728(5) 0.5422(4) 0.55878(15)
O2J O 0.8243(4) 0.5304(3) 0.50222(14)
O4Q O 0.5413(3) 0.6970(4) 0.75144(14)
H2Q H 0.4689 0.6386 0.7568
H3Q H 0.5369 0.7259 0.7144
Er1A Er 1.15665(2) 0.82335(2) 0.8333
Er1J Er 0.49002(2) 0.48998(2) 0.5000
Er1K Er 1.0000 0.50998(2) 0.5000
N1B N 0.6928(4) 0.9724(3) 0.72090(16)
N1P N 0.6405(4) 0.9463(3) 0.94577(16)
O1Q O 0.5361(3) 0.6606(5) 0.89212(15)
O2B O 0.8424(4) 1.0395(3) 0.83111(14)
O2P O 0.4909(4) 0.8638(3) 0.83556(14)
O5 O 0.7361(12) 0.5382(10) 0.8968(7)
H4 H 0.7775 0.6152 0.8868
H5 H 0.7386 0.4976 0.8646
O6 O 0.6667 0.3333 0.9811(9)
H6? H 0.6491 0.3845 0.9604
H7? H 0.6061 0.2605 0.9876
loop_
_geom_bond_atom_site_label_1
_geom_bond_atom_site_label_2
_geom_bond_site_symmetry_1
_geom_bond_site_symmetry_2
C1 C2 1_555 1_555
C2 C3 1_555 1_555
C3 H1 1_555 1_555
C4 N1 1_555 1_555
Er1 O1 1_555 1_555
N1 C2 1_555 1_555
O1 C1 1_555 1_555
O2 C1 1_555 1_555
O3 C4 1_555 1_555
O4 Er1 1_555 1_555
H2 O4 1_555 1_555
H3 O4 1_555 1_555
O5 H4 1_555 1_555
H5 O5 1_555 1_555
C1J C2J 1_555 1_555
C2J C3 1_555 1_555
N1J C4 1_555 1_555
O1J C1J 1_555 1_555
O2J C1J 1_555 1_555
O4Q Er1 1_555 1_555
H2Q O4Q 1_555 1_555
H3Q O4Q 1_555 1_555
Er1A N1 1_555 1_555
Er1J O1J 1_555 1_555
Er1K N1J 1_555 1_555
N1B Er1 1_555 1_555
N1P Er1 1_555 1_555
O1Q Er1 1_555 1_555
O2B Er1 1_555 1_555
O2P Er1 1_555 1_555
O2 Er1A 1_555 1_555
C2J N1J 1_555 1_555
O2J Er1K 1_555 1_555

#END
