
#######################################################################
#
#                 Cambridge Crystallographic Data Centre
#                                CCDC 
#
#######################################################################
#
# If this CIF has been generated from an entry in the Cambridge 
# Structural Database, then it will include bibliographic, chemical, 
# crystal, experimental, refinement or atomic coordinate data resulting 
# from the CCDC's data processing and validation procedures.
#
#######################################################################

data_LEZQEN
_symmetry_cell_setting           monoclinic
_symmetry_space_group_name_H-M   'P 21/c'
_symmetry_Int_Tables_number      14
_space_group_name_Hall           '-P 2ybc'
loop_
_symmetry_equiv_pos_site_id
_symmetry_equiv_pos_as_xyz
1 x,y,z
2 -x,1/2+y,1/2-z
3 -x,-y,-z
4 x,1/2-y,1/2+z
_cell_length_a                   18.459(13)
_cell_length_b                   10.458(7)
_cell_length_c                   13.063(10)
_cell_angle_alpha                90
_cell_angle_beta                 102.552(11)
_cell_angle_gamma                90
_cell_volume                     2461.47
loop_
_atom_site_label
_atom_site_type_symbol
_atom_site_fract_x
_atom_site_fract_y
_atom_site_fract_z
Co1 Co 0.5000 -0.5000 0.5000
Co2 Co 0.0000 0.0000 0.0000
O1 O 0.4978(2) -0.6272(4) 0.3739(3)
H1 H 0.485(3) -0.705(2) 0.366(5)
H2 H 0.467(3) -0.590(5) 0.324(4)
O2 O 0.0237(3) 0.1464(4) 0.1138(3)
H3 H 0.053(3) 0.126(6) 0.170(3)
H4 H 0.004(4) 0.217(4) 0.128(5)
O3 O 0.4235(2) -0.3793(4) 0.4077(3)
O4 O 0.4121(2) -0.4585(4) 0.2475(3)
O5 O 0.08368(19) -0.1156(4) 0.0863(3)
O6 O 0.1020(3) -0.0243(5) 0.2443(4)
N1 N 0.5892(2) -0.4024(5) 0.4518(4)
N2 N 0.9192(2) -0.0745(5) 0.0785(4)
C1 C 0.3920(3) -0.3874(6) 0.3118(5)
C2 C 0.3242(3) -0.3067(6) 0.2769(5)
C3 C 0.2857(3) -0.3103(6) 0.1731(5)
H5 H 0.3040 -0.3583 0.1244
C4 C 0.2196(3) -0.2424(6) 0.1414(5)
H6 H 0.1944 -0.2446 0.0716
C5 C 0.1913(3) -0.1715(6) 0.2134(4)
C6 C 0.2295(3) -0.1672(6) 0.3168(5)
H7 H 0.2111 -0.1195 0.3656
C7 C 0.2951(3) -0.2340(6) 0.3472(5)
H8 H 0.3205 -0.2302 0.4169
C8 C 0.1195(3) -0.0992(6) 0.1776(5)
C9 C 0.5886(3) -0.2778(6) 0.4334(5)
H9 H 0.5485 -0.2307 0.4453
C10 C 0.6434(3) -0.2134(7) 0.3980(5)
H10 H 0.6400 -0.1256 0.3867
C11 C 0.7038(3) -0.2817(7) 0.3793(5)
C12 C 0.7055(3) -0.4101(7) 0.4001(5)
H11 H 0.7455 -0.4592 0.3904
C13 C 0.6479(3) -0.4666(7) 0.4355(5)
H12 H 0.6502 -0.5541 0.4486
C14 C 0.7637(3) -0.2189(8) 0.3333(5)
H13 H 0.7689 -0.1301 0.3550
H14 H 0.8108 -0.2613 0.3600
C15 C 0.7454(4) -0.2257(9) 0.2150(6)
H15 H 0.7360 -0.3141 0.1937
H16 H 0.7002 -0.1778 0.1885
C16 C 0.8719(4) 0.0017(7) 0.1124(6)
H17 H 0.8768 0.0896 0.1054
C17 C 0.8153(4) -0.0435(8) 0.1577(7)
H18 H 0.7842 0.0134 0.1821
C18 C 0.8057(3) -0.1742(8) 0.1665(5)
C19 C 0.8542(4) -0.2523(7) 0.1317(5)
H19 H 0.8501 -0.3406 0.1367
C20 C 0.9101(3) -0.1997(7) 0.0886(5)
H20 H 0.9427 -0.2549 0.0657
Co2_2 Co 1.0000 0.0000 0.0000
Co2_3 Co 1.0000 -1.0000 1.0000
Co2_4 Co 0.0000 -1.0000 1.0000
O1B O 0.5022(2) -0.3728(4) 0.6261(3)
H1B H 0.515(3) -0.295(2) 0.634(5)
H2B H 0.533(3) -0.410(5) 0.676(4)
O2B O -0.0237(3) -0.1464(4) -0.1138(3)
H3B H -0.053(3) -0.126(6) -0.170(3)
H4B H -0.004(4) -0.217(4) -0.128(5)
O3B O 0.5765(2) -0.6207(4) 0.5923(3)
O4B O 0.5879(2) -0.5415(4) 0.7525(3)
O5B O 0.91632(19) -0.8844(4) 0.9137(3)
O5B_2 O -0.08368(19) 0.1156(4) -0.0863(3)
O6B O 0.8980(3) -0.9757(5) 0.7557(4)
N1B N 0.4108(2) -0.5976(5) 0.5482(4)
N2B N 0.0808(2) -0.9255(5) 0.9215(4)
N2_2 N -0.0808(2) -0.0745(5) 0.0785(4)
N2B_2 N 0.0808(2) 0.0745(5) -0.0785(4)
C1B C 0.6080(3) -0.6126(6) 0.6882(5)
C2B C 0.6758(3) -0.6933(6) 0.7231(5)
C3B C 0.7143(3) -0.6897(6) 0.8269(5)
H5B H 0.6960 -0.6417 0.8756
C4B C 0.7804(3) -0.7576(6) 0.8586(5)
H6B H 0.8056 -0.7554 0.9284
C5B C 0.8087(3) -0.8285(6) 0.7866(4)
C6B C 0.7705(3) -0.8328(6) 0.6832(5)
H7B H 0.7889 -0.8805 0.6344
C7B C 0.7049(3) -0.7660(6) 0.6528(5)
H8B H 0.6795 -0.7698 0.5831
C8B C 0.8805(3) -0.9008(6) 0.8224(5)
C9B C 0.4114(3) -0.7222(6) 0.5666(5)
H9B H 0.4515 -0.7693 0.5547
C10B C 0.3566(3) -0.7866(7) 0.6020(5)
H10B H 0.3600 -0.8744 0.6133
C11B C 0.2962(3) -0.7183(7) 0.6207(5)
C12B C 0.2945(3) -0.5899(7) 0.5999(5)
H11B H 0.2545 -0.5408 0.6096
C13B C 0.3521(3) -0.5334(7) 0.5645(5)
H12B H 0.3498 -0.4459 0.5514
C14B C 0.2363(3) -0.7811(8) 0.6667(5)
H13B H 0.2311 -0.8699 0.6450
H14B H 0.1892 -0.7387 0.6400
C15B C 0.2546(4) -0.7743(9) 0.7850(6)
H15B H 0.2640 -0.6859 0.8063
H16B H 0.2998 -0.8222 0.8115
C16B C 0.1281(4) -1.0017(7) 0.8876(6)
H17B H 0.1232 -1.0896 0.8946
C17B C 0.1847(4) -0.9565(8) 0.8423(7)
H18B H 0.2158 -1.0134 0.8179
C18B C 0.1943(3) -0.8258(8) 0.8335(5)
C19B C 0.1458(4) -0.7477(7) 0.8683(5)
H19B H 0.1499 -0.6594 0.8633
C20B C 0.0899(3) -0.8003(7) 0.9114(5)
H20B H 0.0573 -0.7451 0.9343
O7 O 0.5103(4) -0.3888(5) 0.1289(5)
O8 O -0.0159(5) 0.3938(7) 0.1239(6)
O9 O -0.0832(7) 0.4241(14) -0.0701(11)
O10? O 0.5661(6) -0.4769(10) 0.1400(8)
loop_
_geom_bond_atom_site_label_1
_geom_bond_atom_site_label_2
_geom_bond_site_symmetry_1
_geom_bond_site_symmetry_2
Co1 O1 1_555 1_555
Co2 O2 1_555 1_555
O1 H1 1_555 1_555
H2 O1 1_555 1_555
O2 H3 1_555 1_555
H4 O2 1_555 1_555
O3 Co1 1_555 1_555
O4 C1 1_555 1_555
O5 Co2 1_555 1_555
O6 C8 1_555 1_555
N1 Co1 1_555 1_555
N2 C16 1_555 1_555
C1 O3 1_555 1_555
C2 C1 1_555 1_555
C3 C2 1_555 1_555
H5 C3 1_555 1_555
C4 C3 1_555 1_555
H6 C4 1_555 1_555
C5 C4 1_555 1_555
C6 C5 1_555 1_555
H7 C6 1_555 1_555
C7 C2 1_555 1_555
H8 C7 1_555 1_555
C8 O5 1_555 1_555
C9 N1 1_555 1_555
H9 C9 1_555 1_555
C10 C9 1_555 1_555
H10 C10 1_555 1_555
C11 C10 1_555 1_555
C12 C11 1_555 1_555
H11 C12 1_555 1_555
C13 N1 1_555 1_555
H12 C13 1_555 1_555
C14 C11 1_555 1_555
H13 C14 1_555 1_555
H14 C14 1_555 1_555
C15 C14 1_555 1_555
H15 C15 1_555 1_555
H16 C15 1_555 1_555
C16 H17 1_555 1_555
C17 C16 1_555 1_555
H18 C17 1_555 1_555
C18 C15 1_555 1_555
C19 C18 1_555 1_555
H19 C19 1_555 1_555
C20 N2 1_555 1_555
H20 C20 1_555 1_555
Co2_2 N2 1_555 1_555
Co2_3 O5B 1_555 1_555
Co2_4 N2B 1_555 1_555
O1B Co1 1_555 1_555
H1B O1B 1_555 1_555
H2B O1B 1_555 1_555
O2B Co2 1_555 1_555
H3B O2B 1_555 1_555
H4B O2B 1_555 1_555
O3B Co1 1_555 1_555
O4B C1B 1_555 1_555
O5B C8B 1_555 1_555
O5B_2 Co2 1_555 1_555
O6B C8B 1_555 1_555
N1B Co1 1_555 1_555
N2B C16B 1_555 1_555
N2_2 Co2 1_555 1_555
N2B_2 Co2 1_555 1_555
C1B O3B 1_555 1_555
C2B C1B 1_555 1_555
C3B C2B 1_555 1_555
H5B C3B 1_555 1_555
C4B C3B 1_555 1_555
H6B C4B 1_555 1_555
C5B C4B 1_555 1_555
C6B C5B 1_555 1_555
H7B C6B 1_555 1_555
C7B C2B 1_555 1_555
H8B C7B 1_555 1_555
C8B C5B 1_555 1_555
C9B N1B 1_555 1_555
H9B C9B 1_555 1_555
C10B C9B 1_555 1_555
H10B C10B 1_555 1_555
C11B C10B 1_555 1_555
C12B C11B 1_555 1_555
H11B C12B 1_555 1_555
C13B N1B 1_555 1_555
H12B C13B 1_555 1_555
C14B C11B 1_555 1_555
H13B C14B 1_555 1_555
H14B C14B 1_555 1_555
C15B C14B 1_555 1_555
H15B C15B 1_555 1_555
H16B C15B 1_555 1_555
C16B H17B 1_555 1_555
C17B C16B 1_555 1_555
H18B C17B 1_555 1_555
C18B C15B 1_555 1_555
C19B C18B 1_555 1_555
H19B C19B 1_555 1_555
C20B N2B 1_555 1_555
H20B C20B 1_555 1_555
C5 C8 1_555 1_555
C6 C7 1_555 1_555
C12 C13 1_555 1_555
C17 C18 1_555 1_555
C19 C20 1_555 1_555
C6B C7B 1_555 1_555
C12B C13B 1_555 1_555
C17B C18B 1_555 1_555
C19B C20B 1_555 1_555

#END
