
#######################################################################
#
#                 Cambridge Crystallographic Data Centre
#                                CCDC 
#
#######################################################################
#
# If this CIF has been generated from an entry in the Cambridge 
# Structural Database, then it will include bibliographic, chemical, 
# crystal, experimental, refinement or atomic coordinate data resulting 
# from the CCDC's data processing and validation procedures.
#
#######################################################################

data_LIBCUU
_symmetry_cell_setting           triclinic
_symmetry_space_group_name_H-M   'P -1'
_symmetry_Int_Tables_number      2
_space_group_name_Hall           '-P 1'
loop_
_symmetry_equiv_pos_site_id
_symmetry_equiv_pos_as_xyz
1 x,y,z
2 -x,-y,-z
_cell_length_a                   9.800(3)
_cell_length_b                   13.453(8)
_cell_length_c                   14.019(4)
_cell_angle_alpha                104.81(4)
_cell_angle_beta                 103.50(2)
_cell_angle_gamma                100.50(2)
_cell_volume                     1678.97
loop_
_atom_site_label
_atom_site_type_symbol
_atom_site_fract_x
_atom_site_fract_y
_atom_site_fract_z
Eu1 Eu 0.0781(1) 0.6289(1) 0.8736(1)
Na1 Na -0.3207(7) 0.5468(5) 0.9577(5)
Te1 Te -0.1359(1) 0.7651(1) 0.9703(1)
Te2 Te -0.1219(1) 0.4035(1) 0.8923(1)
Te3 Te 0.3500(1) 0.5092(1) 0.8368(1)
O1 O 0.3112(11) 0.7753(8) 0.9810(8)
O2 O -0.1059(12) 0.5351(8) 0.6950(9)
O3 O 0.1252(12) 0.7422(8) 0.7568(8)
C1 C -0.2262(16) 0.8247(11) 0.8520(11)
C2 C -0.3579(17) 0.7703(12) 0.7714(12)
C3 C -0.4030(19) 0.8079(13) 0.6901(14)
C4 C -0.3272(19) 0.9032(13) 0.6870(14)
C5 C -0.2068(19) 0.9602(13) 0.7655(13)
C6 C -0.1539(18) 0.9229(12) 0.8455(13)
C7 C -0.2090(17) 0.2788(11) 0.7516(12)
C8 C -0.3577(18) 0.2444(12) 0.7018(13)
C9 C -0.4067(21) 0.1630(14) 0.6080(14)
C10 C -0.3164(18) 0.1190(13) 0.5618(13)
C11 C -0.1730(18) 0.1503(13) 0.6107(13)
C12 C -0.1194(19) 0.2285(12) 0.7030(13)
C13 C 0.2937(16) 0.3561(11) 0.7284(11)
C14 C 0.2628(18) 0.2654(12) 0.7566(13)
C15 C 0.2223(22) 0.1647(16) 0.6829(16)
C16 C 0.2140(22) 0.1568(16) 0.5798(16)
C17 C 0.2454(21) 0.2456(14) 0.5526(16)
C18 C 0.2827(21) 0.3442(15) 0.6244(15)
C19 C 0.2931(18) 0.8705(12) 1.0483(13)
C20 C 0.4438(19) 0.9292(14) 1.1236(14)
C21 C 0.5453(20) 0.8888(13) 1.0680(14)
C22 C 0.4632(19) 0.7759(14) 1.0120(14)
C23 C -0.2619(21) 0.5176(15) 0.6695(15)
C24 C -0.3189(26) 0.4592(18) 0.5591(19)
C25 C -0.2102(26) 0.4074(19) 0.5330(20)
C26 C -0.0716(19) 0.4730(13) 0.6113(14)
C27 C 0.0157(18) 0.7680(12) 0.6882(13)
C28 C 0.0865(19) 0.8712(13) 0.6785(14)
C29 C 0.2407(18) 0.8610(13) 0.6852(13)
C30 C 0.2658(22) 0.8044(15) 0.7610(16)
H1 H -0.4146(17) 0.7080(12) 0.7738(12)
H2 H -0.4861(19) 0.7683(13) 0.6364(14)
H3 H -0.3584(19) 0.9279(13) 0.6316(14)
H4 H -0.1585(19) 1.0265(13) 0.7655(13)
H5 H -0.0684(18) 0.9631(12) 0.8967(13)
H6 H -0.4225(18) 0.2751(12) 0.7304(13)
H7 H -0.5061(21) 0.1378(14) 0.5759(14)
H8 H -0.3527(18) 0.0677(13) 0.4971(13)
H9 H -0.1101(18) 0.1182(13) 0.5811(13)
H10 H -0.0197(19) 0.2493(12) 0.7350(13)
H11 H 0.2690(18) 0.2713(12) 0.8251(13)
H12 H 0.2010(22) 0.1037(16) 0.7020(16)
H13 H 0.1868(22) 0.0902(16) 0.5302(16)
H14 H 0.2416(21) 0.2398(14) 0.4845(16)
H15 H 0.3011(21) 0.4044(15) 0.6037(15)
H16 H 0.2253(18) 0.8519(12) 1.0854(13)
H17 H 0.2568(18) 0.9145(12) 1.0087(13)
H18 H 0.4597(19) 1.0055(14) 1.1382(14)
H19 H 0.4559(19) 0.9126(14) 1.1879(14)
H20 H 0.6373(20) 0.8937(13) 1.1159(14)
H21 H 0.5628(20) 0.9273(13) 1.0204(14)
H22 H 0.4944(19) 0.7483(14) 0.9520(14)
H23 H 0.4791(19) 0.7322(14) 1.0569(14)
H24 H -0.2880(21) 0.5849(15) 0.6842(15)
H25 H -0.3006(21) 0.4764(15) 0.7092(15)
H26 H -0.4097(26) 0.4071(18) 0.5446(19)
H27 H -0.3357(26) 0.5076(18) 0.5195(19)
H28 H -0.2063(26) 0.4051(19) 0.4640(20)
H29 H -0.2309(26) 0.3352(19) 0.5364(20)
H30 H -0.0133(19) 0.4276(13) 0.6339(14)
H31 H -0.0167(19) 0.5184(13) 0.5820(14)
H32 H -0.0652(18) 0.7748(12) 0.7158(13)
H33 H -0.0198(18) 0.7132(12) 0.6214(13)
H34 H 0.0856(19) 0.9308(13) 0.7343(14)
H35 H 0.0396(19) 0.8794(13) 0.6130(14)
H36 H 0.2469(18) 0.8204(13) 0.6191(13)
H37 H 0.3094(18) 0.9302(13) 0.7088(13)
H38 H 0.3279(22) 0.7580(15) 0.7451(16)
H39 H 0.3129(22) 0.8546(15) 0.8296(16)
Te2A Te 0.1219(1) 0.5965(1) 1.1077(1)
Te3_2 Te -0.6500(1) 0.5092(1) 0.8368(1)
Te3A Te -0.3500(1) 0.4908(1) 1.1632(1)
Eu1A Eu -0.0781(1) 0.3711(1) 1.1264(1)
Na1_2 Na 0.6793(7) 0.5468(5) 0.9577(5)
Na1A Na 0.3207(7) 0.4532(5) 1.0423(5)
loop_
_geom_bond_atom_site_label_1
_geom_bond_atom_site_label_2
_geom_bond_site_symmetry_1
_geom_bond_site_symmetry_2
Eu1 Te1 1_555 1_555
Na1 Te1 1_555 1_555
Te1 C1 1_555 1_555
Te2 Eu1 1_555 1_555
Te3 Eu1 1_555 1_555
O1 Eu1 1_555 1_555
O2 Eu1 1_555 1_555
O3 Eu1 1_555 1_555
C1 C2 1_555 1_555
C2 C3 1_555 1_555
C3 C4 1_555 1_555
C4 C5 1_555 1_555
C5 C6 1_555 1_555
C6 C1 1_555 1_555
C7 Te2 1_555 1_555
C8 C7 1_555 1_555
C9 C8 1_555 1_555
C10 C9 1_555 1_555
C11 C10 1_555 1_555
C12 C7 1_555 1_555
C13 Te3 1_555 1_555
C14 C13 1_555 1_555
C15 C14 1_555 1_555
C16 C15 1_555 1_555
C17 C16 1_555 1_555
C18 C13 1_555 1_555
C19 O1 1_555 1_555
C20 C19 1_555 1_555
C21 C20 1_555 1_555
C22 O1 1_555 1_555
C23 O2 1_555 1_555
C24 C23 1_555 1_555
C25 C24 1_555 1_555
C26 O2 1_555 1_555
C27 O3 1_555 1_555
C28 C27 1_555 1_555
C29 C28 1_555 1_555
C30 O3 1_555 1_555
H1 C2 1_555 1_555
H2 C3 1_555 1_555
H3 C4 1_555 1_555
H4 C5 1_555 1_555
H5 C6 1_555 1_555
H6 C8 1_555 1_555
H7 C9 1_555 1_555
H8 C10 1_555 1_555
H9 C11 1_555 1_555
H10 C12 1_555 1_555
H11 C14 1_555 1_555
H12 C15 1_555 1_555
H13 C16 1_555 1_555
H14 C17 1_555 1_555
H15 C18 1_555 1_555
H16 C19 1_555 1_555
H17 C19 1_555 1_555
H18 C20 1_555 1_555
H19 C20 1_555 1_555
H20 C21 1_555 1_555
H21 C21 1_555 1_555
H22 C22 1_555 1_555
H23 C22 1_555 1_555
H24 C23 1_555 1_555
H25 C23 1_555 1_555
H26 C24 1_555 1_555
H27 C24 1_555 1_555
H28 C25 1_555 1_555
H29 C25 1_555 1_555
H30 C26 1_555 1_555
H31 C26 1_555 1_555
H32 C27 1_555 1_555
H33 C27 1_555 1_555
H34 C28 1_555 1_555
H35 C28 1_555 1_555
H36 C29 1_555 1_555
H37 C29 1_555 1_555
H38 C30 1_555 1_555
H39 C30 1_555 1_555
Te2A Eu1 1_555 1_555
Te3_2 Na1 1_555 1_555
Te3A Na1 1_555 1_555
Eu1A Te2 1_555 1_555
Na1_2 Te3 1_555 1_555
Na1A Te3 1_555 1_555
Na1 Te2 1_555 1_555
C11 C12 1_555 1_555
C17 C18 1_555 1_555
C21 C22 1_555 1_555
C25 C26 1_555 1_555
C29 C30 1_555 1_555
Te2A Eu1A 1_555 1_555
Te2A Na1A 1_555 1_555
Te3A Eu1A 1_555 1_555

#END
