
#######################################################################
#
#                 Cambridge Crystallographic Data Centre
#                                CCDC 
#
#######################################################################
#
# If this CIF has been generated from an entry in the Cambridge 
# Structural Database, then it will include bibliographic, chemical, 
# crystal, experimental, refinement or atomic coordinate data resulting 
# from the CCDC's data processing and validation procedures.
#
#######################################################################

data_LIBDAB
_symmetry_cell_setting           triclinic
_symmetry_space_group_name_H-M   'P -1'
_symmetry_Int_Tables_number      2
_space_group_name_Hall           '-P 1'
loop_
_symmetry_equiv_pos_site_id
_symmetry_equiv_pos_as_xyz
1 x,y,z
2 -x,-y,-z
_cell_length_a                   8.533(4)
_cell_length_b                   10.285(2)
_cell_length_c                   13.490(4)
_cell_angle_alpha                71.57(2)
_cell_angle_beta                 88.69(3)
_cell_angle_gamma                85.32(3)
_cell_volume                     1119.44
loop_
_atom_site_label
_atom_site_type_symbol
_atom_site_fract_x
_atom_site_fract_y
_atom_site_fract_z
Eu1 Eu 0.2385(1) 0.6244(1) 0.4751(1)
Te1 Te 0.1234(1) 0.3455(1) 0.4290(1)
Te2 Te 0.4087(1) 0.3297(1) 0.6363(1)
O1 O 0.2965(4) 0.8019(3) 0.5584(3)
O2 O 0.1424(4) 0.7835(3) 0.3030(3)
C1 C 0.0482(5) 0.3600(4) 0.2767(4)
C2 C -0.0981(5) 0.4249(5) 0.2359(4)
C3 C -0.1481(6) 0.4231(6) 0.1398(4)
C4 C -0.0544(7) 0.3590(6) 0.0812(4)
C5 C 0.0921(7) 0.2992(6) 0.1189(4)
C6 C 0.1421(5) 0.2992(5) 0.2152(4)
C7 C 0.4692(5) 0.3224(4) 0.7898(3)
C8 C 0.5597(5) 0.4189(5) 0.8096(4)
C9 C 0.5982(6) 0.4086(6) 0.9107(4)
C10 C 0.5488(6) 0.3028(6) 0.9941(4)
C11 C 0.4603(6) 0.2054(6) 0.9761(4)
C12 C 0.4209(6) 0.2153(5) 0.8745(4)
C13 C 0.1937(7) 0.9219(5) 0.5580(5)
C14 C 0.2311(7) 0.9488(6) 0.6558(5)
C15 C 0.4055(8) 0.9066(8) 0.6691(6)
C16 C 0.4239(7) 0.7875(7) 0.6298(6)
C17 C 0.1977(7) 0.9142(5) 0.2411(5)
C18 C 0.1571(8) 0.9283(6) 0.1307(5)
C19 C 0.0101(8) 0.8584(7) 0.1423(5)
C20 C 0.0355(6) 0.7394(6) 0.2396(4)
H1 H -0.1619(5) 0.4695(5) 0.2739(4)
H2 H -0.2459(6) 0.4654(6) 0.1142(4)
H3 H -0.0896(7) 0.3562(6) 0.0172(4)
H4 H 0.1575(7) 0.2587(6) 0.0790(4)
H5 H 0.2407(5) 0.2576(5) 0.2397(4)
H6 H 0.5941(5) 0.4905(5) 0.7542(4)
H7 H 0.6581(6) 0.4737(6) 0.9229(4)
H8 H 0.5749(6) 0.2970(6) 1.0620(4)
H9 H 0.4274(6) 0.1335(6) 1.0319(4)
H10 H 0.3615(6) 0.1497(5) 0.8627(4)
H11 H 0.0842(7) 0.9035(5) 0.5567(5)
H12 H 0.2142(7) 1.0000(5) 0.4977(5)
H13 H 0.1719(7) 0.8939(6) 0.7142(5)
H14 H 0.2094(7) 1.0452(6) 0.6492(5)
H15 H 0.4672(8) 0.9801(8) 0.6283(6)
H16 H 0.4367(8) 0.8806(8) 0.7419(6)
H17 H 0.5240(7) 0.7860(7) 0.5944(6)
H18 H 0.4204(7) 0.7025(7) 0.6873(6)
H19 H 0.3103(7) 0.9144(5) 0.2492(5)
H20 H 0.1456(7) 0.9890(5) 0.2618(5)
H21 H 0.1404(8) 1.0242(6) 0.0887(5)
H22 H 0.2391(8) 0.8836(6) 0.0990(5)
H23 H -0.0067(8) 0.8274(7) 0.0827(5)
H24 H -0.0797(8) 0.9190(7) 0.1493(5)
H25 H -0.0632(6) 0.7173(6) 0.2758(4)
H26 H 0.0816(6) 0.6590(6) 0.2236(4)
Te1A Te -0.1234(1) 0.6545(1) 0.5710(1)
Te2A Te 0.5913(1) 0.6703(1) 0.3637(1)
Eu1A Eu -0.2385(1) 0.3756(1) 0.5249(1)
Eu1A_2 Eu 0.7615(1) 0.3756(1) 0.5249(1)
C1A C -0.0482(5) 0.6400(4) 0.7233(4)
C7A C 0.5308(5) 0.6776(4) 0.2102(3)
Te2_2 Te -0.5913(1) 0.3297(1) 0.6363(1)
Te2A_2 Te -0.4087(1) 0.6703(1) 0.3637(1)
O1A O -0.2965(4) 0.1981(3) 0.4416(3)
O2A O -0.1424(4) 0.2165(3) 0.6970(3)
C2A C 0.0981(5) 0.5751(5) 0.7641(4)
C6A C -0.1421(5) 0.7008(5) 0.7848(4)
C8A C 0.4403(5) 0.5811(5) 0.1904(4)
C12A C 0.5791(6) 0.7847(5) 0.1255(4)
C13A C -0.1937(7) 0.0781(5) 0.4420(5)
C16A C -0.4239(7) 0.2125(7) 0.3702(6)
C17A C -0.1977(7) 0.0858(5) 0.7589(5)
C20A C -0.0355(6) 0.2606(6) 0.7604(4)
C3A C 0.1481(6) 0.5769(6) 0.8602(4)
H1A H 0.1619(5) 0.5305(5) 0.7261(4)
C5A C -0.0921(7) 0.7008(6) 0.8811(4)
H5A H -0.2407(5) 0.7424(5) 0.7603(4)
C9A C 0.4018(6) 0.5914(6) 0.0893(4)
H6A H 0.4059(5) 0.5095(5) 0.2458(4)
C11A C 0.5397(6) 0.7946(6) 0.0239(4)
H10A H 0.6385(6) 0.8503(5) 0.1373(4)
C14A C -0.2311(7) 0.0512(6) 0.3442(5)
H11A H -0.0842(7) 0.0965(5) 0.4433(5)
H12A H -0.2142(7) 0.0000(5) 0.5023(5)
C15A C -0.4055(8) 0.0934(8) 0.3309(6)
H17A H -0.5240(7) 0.2140(7) 0.4056(6)
H18A H -0.4204(7) 0.2975(7) 0.3127(6)
C18A C -0.1571(8) 0.0717(6) 0.8693(5)
H19A H -0.3103(7) 0.0856(5) 0.7508(5)
H20A H -0.1456(7) 0.0110(5) 0.7382(5)
C19A C -0.0101(8) 0.1416(7) 0.8577(5)
H25A H 0.0632(6) 0.2827(6) 0.7242(4)
H26A H -0.0816(6) 0.3410(6) 0.7764(4)
C4A C 0.0544(7) 0.6410(6) 0.9188(4)
H2A H 0.2459(6) 0.5346(6) 0.8858(4)
H4A H -0.1575(7) 0.7413(6) 0.9210(4)
C10A C 0.4512(6) 0.6972(6) 0.0059(4)
H7A H 0.3419(6) 0.5263(6) 0.0771(4)
H9A H 0.5726(6) 0.8665(6) -0.0319(4)
H13A H -0.1719(7) 0.1061(6) 0.2858(5)
H14A H -0.2094(7) -0.0452(6) 0.3508(5)
H15A H -0.4672(8) 0.0199(8) 0.3717(6)
H16A H -0.4367(8) 0.1194(8) 0.2581(6)
H21A H -0.1404(8) -0.0242(6) 0.9113(5)
H22A H -0.2391(8) 0.1164(6) 0.9010(5)
H23A H 0.0067(8) 0.1726(7) 0.9173(5)
H24A H 0.0797(8) 0.0810(7) 0.8507(5)
H3A H 0.0896(7) 0.6438(6) 0.9828(4)
H8A H 0.4251(6) 0.7030(6) -0.0620(4)
loop_
_geom_bond_atom_site_label_1
_geom_bond_atom_site_label_2
_geom_bond_site_symmetry_1
_geom_bond_site_symmetry_2
Eu1 Te1 1_555 1_555
Te1 C1 1_555 1_555
Te2 Eu1 1_555 1_555
O1 Eu1 1_555 1_555
O2 Eu1 1_555 1_555
C1 C2 1_555 1_555
C2 C3 1_555 1_555
C3 C4 1_555 1_555
C4 C5 1_555 1_555
C5 C6 1_555 1_555
C6 C1 1_555 1_555
C7 Te2 1_555 1_555
C8 C7 1_555 1_555
C9 C8 1_555 1_555
C10 C9 1_555 1_555
C11 C10 1_555 1_555
C12 C7 1_555 1_555
C13 O1 1_555 1_555
C14 C13 1_555 1_555
C15 C14 1_555 1_555
C16 O1 1_555 1_555
C17 O2 1_555 1_555
C18 C17 1_555 1_555
C19 C18 1_555 1_555
C20 O2 1_555 1_555
H1 C2 1_555 1_555
H2 C3 1_555 1_555
H3 C4 1_555 1_555
H4 C5 1_555 1_555
H5 C6 1_555 1_555
H6 C8 1_555 1_555
H7 C9 1_555 1_555
H8 C10 1_555 1_555
H9 C11 1_555 1_555
H10 C12 1_555 1_555
H11 C13 1_555 1_555
H12 C13 1_555 1_555
H13 C14 1_555 1_555
H14 C14 1_555 1_555
H15 C15 1_555 1_555
H16 C15 1_555 1_555
H17 C16 1_555 1_555
H18 C16 1_555 1_555
H19 C17 1_555 1_555
H20 C17 1_555 1_555
H21 C18 1_555 1_555
H22 C18 1_555 1_555
H23 C19 1_555 1_555
H24 C19 1_555 1_555
H25 C20 1_555 1_555
H26 C20 1_555 1_555
Te1A Eu1 1_555 1_555
Te2A Eu1 1_555 1_555
Eu1A Te1 1_555 1_555
Eu1A_2 Te2 1_555 1_555
C1A Te1A 1_555 1_555
C7A Te2A 1_555 1_555
Te2_2 Eu1A 1_555 1_555
Te2A_2 Eu1A 1_555 1_555
O1A Eu1A 1_555 1_555
O2A Eu1A 1_555 1_555
C2A C1A 1_555 1_555
C6A C1A 1_555 1_555
C8A C7A 1_555 1_555
C12A C7A 1_555 1_555
C13A O1A 1_555 1_555
C16A O1A 1_555 1_555
C17A O2A 1_555 1_555
C20A O2A 1_555 1_555
C3A C2A 1_555 1_555
H1A C2A 1_555 1_555
C5A C6A 1_555 1_555
H5A C6A 1_555 1_555
C9A C8A 1_555 1_555
H6A C8A 1_555 1_555
C11A C12A 1_555 1_555
H10A C12A 1_555 1_555
C14A C13A 1_555 1_555
H11A C13A 1_555 1_555
H12A C13A 1_555 1_555
C15A C16A 1_555 1_555
H17A C16A 1_555 1_555
H18A C16A 1_555 1_555
C18A C17A 1_555 1_555
H19A C17A 1_555 1_555
H20A C17A 1_555 1_555
C19A C20A 1_555 1_555
H25A C20A 1_555 1_555
H26A C20A 1_555 1_555
C4A C3A 1_555 1_555
H2A C3A 1_555 1_555
H4A C5A 1_555 1_555
C10A C9A 1_555 1_555
H7A C9A 1_555 1_555
H9A C11A 1_555 1_555
H13A C14A 1_555 1_555
H14A C14A 1_555 1_555
H15A C15A 1_555 1_555
H16A C15A 1_555 1_555
H21A C18A 1_555 1_555
H22A C18A 1_555 1_555
H23A C19A 1_555 1_555
H24A C19A 1_555 1_555
H3A C4A 1_555 1_555
H8A C10A 1_555 1_555
C11 C12 1_555 1_555
C15 C16 1_555 1_555
C19 C20 1_555 1_555
Te1A Eu1A 1_555 1_555
Te2A Eu1A_2 1_555 1_555
C5A C4A 1_555 1_555
C11A C10A 1_555 1_555
C14A C15A 1_555 1_555
C18A C19A 1_555 1_555

#END
