
#######################################################################
#
#                 Cambridge Crystallographic Data Centre
#                                CCDC 
#
#######################################################################
#
# If this CIF has been generated from an entry in the Cambridge 
# Structural Database, then it will include bibliographic, chemical, 
# crystal, experimental, refinement or atomic coordinate data resulting 
# from the CCDC's data processing and validation procedures.
#
#######################################################################

data_LIBHIP
_symmetry_cell_setting           monoclinic
_symmetry_space_group_name_H-M   'P 21'
_symmetry_Int_Tables_number      4
_space_group_name_Hall           'P 2yb'
loop_
_symmetry_equiv_pos_site_id
_symmetry_equiv_pos_as_xyz
1 x,y,z
2 -x,1/2+y,-z
_cell_length_a                   10.118(2)
_cell_length_b                   7.1196(17)
_cell_length_c                   19.441(4)
_cell_angle_alpha                90
_cell_angle_beta                 91.883(14)
_cell_angle_gamma                90
_cell_volume                     1399.7
loop_
_atom_site_label
_atom_site_type_symbol
_atom_site_fract_x
_atom_site_fract_y
_atom_site_fract_z
Pb1 Pb 0.48797(4) 0.5383(6) 1.062005(17)
O1 O 0.586(2) 0.677(2) 0.9619(8)
O2 O 0.568(2) 0.3799(16) 0.9488(8)
C1 C 0.5957(11) 0.533(3) 0.9259(5)
C2 C 0.6439(15) 0.537(3) 0.8518(6)
H1 H 0.5904 0.4372 0.8301
C3 C 0.7776(19) 0.457(4) 0.8495(13)
H2 H 0.7812 0.3419 0.8754
H3 H 0.8404 0.5445 0.8690
H4 H 0.7985 0.4317 0.8026
C4 C 0.6033(11) 0.6992(13) 0.8117(5)
C5 C 0.4697(11) 0.7110(15) 0.7930(6)
H5 H 0.4121 0.6163 0.8057
C6 C 0.4223(8) 0.8644(19) 0.7555(6)
H6 H 0.3329 0.8722 0.7430
C7 C 0.5085(11) 1.0059(16) 0.7365(5)
C8 C 0.6420(10) 0.9941(16) 0.7552(6)
H7 H 0.6997 1.0888 0.7425
C9 C 0.6894(8) 0.8408(17) 0.7927(6)
H8 H 0.7788 0.8329 0.8052
C10 C 0.467(3) 1.193(2) 0.7014(11)
H9 H 0.3979 1.2514 0.7274
H10 H 0.5422 1.2777 0.7020
C11 C 0.419(3) 1.166(4) 0.6294(11)
H11 H 0.3393 1.0932 0.6391
C12 C 0.352(5) 1.328(5) 0.5939(18)
H12 H 0.3227 1.2911 0.5484
H13 H 0.4128 1.4310 0.5909
H14 H 0.2769 1.3666 0.6195
C13 C 0.489(5) 1.019(6) 0.5902(15)
H15 H 0.4487 1.0082 0.5449
H16 H 0.4827 0.9010 0.6137
H17 H 0.5801 1.0534 0.5867
O3 O 0.694(2) 0.383(4) 1.0978(18)
O4 O 0.719(2) 0.683(4) 1.1023(12)
C14 C 0.7635(14) 0.527(4) 1.1034(9)
C15 C 0.9116(12) 0.497(3) 1.1286(8)
H18 H 0.9162 0.3667 1.1449
C16 C 0.9932(14) 0.502(5) 1.0676(8)
H19 H 1.0814 0.4622 1.0800
H20 H 0.9956 0.6282 1.0500
H21 H 0.9561 0.4201 1.0329
C17 C 0.9344(11) 0.6142(15) 1.1905(5)
C18 C 0.9678(11) 0.5254(15) 1.2523(6)
H22 H 0.9787 0.3958 1.2536
C19 C 0.9849(13) 0.630(2) 1.3123(4)
H23 H 1.0072 0.5711 1.3536
C20 C 0.9685(12) 0.824(2) 1.3103(5)
C21 C 0.9351(12) 0.9130(14) 1.2485(7)
H24 H 0.9242 1.0427 1.2472
C22 C 0.9180(12) 0.8080(15) 1.1886(5)
H25 H 0.8957 0.8674 1.1472
C23 C 0.970(2) 0.976(4) 1.3713(10)
H26 H 0.9345 1.0948 1.3552
H27 H 0.9189 0.9319 1.4093
C24 C 1.110(2) 0.996(4) 1.3924(11)
H28 H 1.1451 0.8910 1.3658
C25 C 1.213(3) 1.137(6) 1.3776(18)
H29 H 1.1758 1.2334 1.3485
H30 H 1.2845 1.0768 1.3547
H31 H 1.2460 1.1913 1.4200
C26 C 1.120(4) 0.906(7) 1.4627(18)
H32 H 1.0416 0.8357 1.4706
H33 H 1.1308 1.0026 1.4970
H34 H 1.1956 0.8242 1.4651
O5 O 0.2738(10) 0.539(4) 0.9726(5)
H35 H 0.26(2) 0.45(2) 0.943(8)
H36 H 0.322(18) 0.62(2) 0.952(9)
Pb1A Pb 0.51203(4) 0.0383(6) 0.937995(17)
Pb1A_2 Pb 0.51203(4) 1.0383(6) 0.937995(17)
O1A O 0.414(2) 0.177(2) 1.0381(8)
O2A O 0.432(2) 0.8799(16) 1.0512(8)
loop_
_geom_bond_atom_site_label_1
_geom_bond_atom_site_label_2
_geom_bond_site_symmetry_1
_geom_bond_site_symmetry_2
Pb1 O1 1_555 1_555
O1 C1 1_555 1_555
O2 Pb1 1_555 1_555
C1 O2 1_555 1_555
C2 C1 1_555 1_555
H1 C2 1_555 1_555
C3 C2 1_555 1_555
H2 C3 1_555 1_555
H3 C3 1_555 1_555
H4 C3 1_555 1_555
C4 C2 1_555 1_555
C5 C4 1_555 1_555
H5 C5 1_555 1_555
C6 C5 1_555 1_555
H6 C6 1_555 1_555
C7 C6 1_555 1_555
C8 C7 1_555 1_555
H7 C8 1_555 1_555
C9 C4 1_555 1_555
H8 C9 1_555 1_555
C10 C7 1_555 1_555
H9 C10 1_555 1_555
H10 C10 1_555 1_555
C11 C10 1_555 1_555
H11 C11 1_555 1_555
C12 C11 1_555 1_555
H12 C12 1_555 1_555
H13 C12 1_555 1_555
H14 C12 1_555 1_555
C13 C11 1_555 1_555
H15 C13 1_555 1_555
H16 C13 1_555 1_555
H17 C13 1_555 1_555
O3 Pb1 1_555 1_555
O4 Pb1 1_555 1_555
C14 O3 1_555 1_555
C15 C14 1_555 1_555
H18 C15 1_555 1_555
C16 C15 1_555 1_555
H19 C16 1_555 1_555
H20 C16 1_555 1_555
H21 C16 1_555 1_555
C17 C15 1_555 1_555
C18 C17 1_555 1_555
H22 C18 1_555 1_555
C19 C18 1_555 1_555
H23 C19 1_555 1_555
C20 C19 1_555 1_555
C21 C20 1_555 1_555
H24 C21 1_555 1_555
C22 C17 1_555 1_555
H25 C22 1_555 1_555
C23 C20 1_555 1_555
H26 C23 1_555 1_555
H27 C23 1_555 1_555
C24 C23 1_555 1_555
H28 C24 1_555 1_555
C25 C24 1_555 1_555
H29 C25 1_555 1_555
H30 C25 1_555 1_555
H31 C25 1_555 1_555
C26 C24 1_555 1_555
H32 C26 1_555 1_555
H33 C26 1_555 1_555
H34 C26 1_555 1_555
O5 Pb1 1_555 1_555
H35 O5 1_555 1_555
H36 O5 1_555 1_555
Pb1A O2 1_555 1_555
Pb1A_2 O1 1_555 1_555
O1A Pb1 1_555 1_555
O2A Pb1 1_555 1_555
C8 C9 1_555 1_555
O4 C14 1_555 1_555
C21 C22 1_555 1_555
Pb1A O1A 1_555 1_555
Pb1A_2 O2A 1_555 1_555

#END
