
#######################################################################
#
#                 Cambridge Crystallographic Data Centre
#                                CCDC 
#
#######################################################################
#
# If this CIF has been generated from an entry in the Cambridge 
# Structural Database, then it will include bibliographic, chemical, 
# crystal, experimental, refinement or atomic coordinate data resulting 
# from the CCDC's data processing and validation procedures.
#
#######################################################################

data_LIBKEO
_symmetry_cell_setting           rhombohedral
_symmetry_space_group_name_H-M   'R 3 c'
_symmetry_Int_Tables_number      161
_space_group_name_Hall           'R 3 -2"c'
loop_
_symmetry_equiv_pos_site_id
_symmetry_equiv_pos_as_xyz
1 x,y,z
2 -y,x-y,z
3 -x+y,-x,z
4 -y,-x,1/2+z
5 x,x-y,1/2+z
6 -x+y,y,1/2+z
7 2/3+x,1/3+y,1/3+z
8 2/3-y,1/3+x-y,1/3+z
9 2/3-x+y,1/3-x,1/3+z
10 2/3-y,1/3-x,5/6+z
11 2/3+x,1/3+x-y,5/6+z
12 2/3-x+y,1/3+y,5/6+z
13 1/3+x,2/3+y,2/3+z
14 1/3-y,2/3+x-y,2/3+z
15 1/3-x+y,2/3-x,2/3+z
16 1/3-y,2/3-x,1/6+z
17 1/3+x,2/3+x-y,1/6+z
18 1/3-x+y,2/3+y,1/6+z
_cell_length_a                   22.597(3)
_cell_length_b                   22.597(3)
_cell_length_c                   35.804(7)
_cell_angle_alpha                90
_cell_angle_beta                 90
_cell_angle_gamma                120
_cell_volume                     15833
loop_
_atom_site_label
_atom_site_type_symbol
_atom_site_fract_x
_atom_site_fract_y
_atom_site_fract_z
W1 W 0.56673(5) 0.27996(5) 0.51077(3)
W2 W 0.64433(5) 0.47679(5) 0.32252(3)
W3 W 0.50474(5) 0.31945(5) 0.31851(3)
W4 W 0.64352(5) 0.47591(5) 0.42761(3)
W5 W 0.50311(5) 0.31804(5) 0.42307(3)
W6 W 0.70373(6) 0.43245(6) 0.23620(3)
P1 P 0.6667 0.3333 0.3179(4)
P2 P 0.6667 0.3333 0.4293(3)
Cu1 Cu 0.31331(17) 0.20948(16) 0.29141(9)
Cu2 Cu 0.33005(18) 0.16333(19) 0.20425(10)
Cu3 Cu 0.35753(16) 0.12745(16) 0.11670(9)
O1 O 0.7281(9) 0.4896(10) 0.2037(6)
O2 O 0.5469(7) 0.4159(8) 0.4330(4)
O3 O 0.6583(8) 0.4584(8) 0.2721(4)
O4 O 0.5492(8) 0.4164(8) 0.3153(5)
O5 O 0.6160(10) 0.3703(9) 0.5152(10)
O6 O 0.6144(8) 0.3747(8) 0.2252(5)
O7 O 0.5289(9) 0.3106(8) 0.2690(6)
O8 O 0.5069(10) 0.2455(11) 0.5439(6)
O9 O 0.4968(8) 0.2331(9) 0.4185(5)
O10 O 0.5280(8) 0.3086(8) 0.4760(5)
O11 O 0.6461(9) 0.5500(9) 0.3128(5)
O12 O 0.6305(9) 0.4733(9) 0.3748(5)
O13 O 0.4207(9) 0.2982(8) 0.4306(5)
O14 O 0.6351(8) 0.2580(8) 0.4171(4)
O15 O 0.6599(8) 0.4576(8) 0.4765(5)
O16 O 0.6667 0.3333 0.2758(8)
O17 O 0.7381(8) 0.5079(8) 0.3305(5)
O18 O 0.6667 0.3333 0.4748(9)
O19 O 0.6456(8) 0.5529(8) 0.4372(5)
O20 O 0.6229(8) 0.3643(8) 0.3308(4)
O21 O 0.5049(8) 0.3335(8) 0.3736(5)
O22 O 0.4230(9) 0.2991(8) 0.3105(6)
O23 O 0.3488(10) 0.1697(11) 0.2566(5)
O24 O 0.3234(10) 0.1660(10) 0.1516(5)
N1 N 0.3908(10) 0.0828(10) 0.0817(6)
N2 N 0.3504(11) 0.1707(10) 0.0698(6)
N3 N 0.3763(11) 0.1049(10) 0.1963(6)
N4 N 0.4115(10) 0.0880(10) 0.2174(6)
N5 N 0.3791(10) 0.0876(10) 0.1616(6)
C1 C 0.3689(14) 0.1505(13) 0.0372(8)
C2 C 0.3911(14) 0.1021(13) 0.0448(8)
C3 C 0.3655(14) 0.1738(13) 0.0019(8)
H1 H 0.3679 0.1530 -0.0201
C4 C 0.3368(14) 0.2224(13) 0.0670(8)
H2 H 0.3236 0.2364 0.0882
C5 C 0.3581(14) 0.2312(13) 0.0026(7)
H3 H 0.3644 0.2552 -0.0196
O25 O 0.2298(13) 0.0768(13) 0.2155(12)
H4 H 0.2242 0.0367 0.2150
H5 H 0.1961 0.0825 0.2201
O26 O 0.195(2) 0.114(2) 0.2776(13)
H6 H 0.1713 0.0869 0.2953
H7 H 0.1781 0.1069 0.2557
O27 O 0.4801(14) 0.2196(14) 0.1221(8)
H8 H 0.5043 0.2175 0.1396
H9 H 0.4973 0.2528 0.1068
N6 N 0.4205(11) 0.0460(10) 0.0797(6)
N7 N 0.4189(13) 0.0736(15) 0.0210(7)
N8 N 0.4398(11) 0.0414(10) 0.0477(6)
C6 C 0.4369(14) 0.0616(13) 0.1964(8)
C7 C 0.4893(14) 0.0392(13) 0.2023(8)
C8 C 0.5805(13) -0.0011(13) 0.2084(8)
H10 H 0.6104 -0.0182 0.2091
C9 C 0.5218(12) 0.0476(13) 0.2361(8)
H11 H 0.5135 0.0693 0.2558
N9 N 0.4222(10) 0.0634(10) 0.1626(6)
N10 N 0.5044(11) 0.0179(12) 0.1717(7)
C10 C 0.5490(16) 0.0000(15) 0.1749(10)
H12 H 0.5618 -0.0135 0.1533
C11 C 0.3419(13) 0.2543(13) 0.0343(7)
H13 H 0.3345 0.2912 0.0332
C12 C 0.5663(13) 0.0237(13) 0.2405(8)
H14 H 0.5857 0.0241 0.2635
O20A O 0.6357(8) 0.2586(11) 0.3308(4)
O20B O 0.7414(11) 0.3771(8) 0.3308(4)
O14A O 0.7420(8) 0.3771(11) 0.4171(4)
O14B O 0.6229(11) 0.3649(8) 0.4171(4)
W1A W 0.72004(5) 0.28677(7) 0.51077(3)
W2A W 0.52321(5) 0.16754(7) 0.32252(3)
W3A W 0.68055(5) 0.18529(7) 0.31851(3)
W4A W 0.52409(5) 0.16761(7) 0.42761(3)
W5A W 0.68196(5) 0.18507(7) 0.42307(3)
W6A W 0.56755(6) 0.27128(8) 0.23620(3)
Cu1A Cu 0.79052(16) 0.10383(23) 0.29141(9)
Cu2A Cu 0.83667(19) 0.16672(26) 0.20425(10)
Cu3A Cu 0.87255(16) 0.23008(23) 0.11670(9)
O1A O 0.5104(10) 0.2385(13) 0.2037(6)
O2A O 0.5841(8) 0.1310(11) 0.4330(4)
O3A O 0.5416(8) 0.1999(11) 0.2721(4)
O4A O 0.5836(8) 0.1328(11) 0.3153(5)
O5A O 0.6297(9) 0.2457(13) 0.5152(10)
O6A O 0.6253(8) 0.2397(11) 0.2252(5)
O7A O 0.6894(8) 0.2183(12) 0.2690(6)
O8A O 0.7545(11) 0.2614(15) 0.5439(6)
O9A O 0.7669(9) 0.2637(12) 0.4185(5)
O10A O 0.6914(8) 0.2194(11) 0.4760(5)
O11A O 0.4500(9) 0.0961(13) 0.3128(5)
O12A O 0.5267(9) 0.1572(13) 0.3748(5)
O13A O 0.7018(8) 0.1225(12) 0.4306(5)
O15A O 0.5424(8) 0.2023(11) 0.4765(5)
O17A O 0.4921(8) 0.2302(11) 0.3305(5)
O19A O 0.4471(8) 0.0927(11) 0.4372(5)
O21A O 0.6665(8) 0.1714(11) 0.3736(5)
O22A O 0.7009(8) 0.1239(12) 0.3105(6)
O23A O 0.8303(11) 0.1791(15) 0.2566(5)
O24A O 0.8340(10) 0.1574(14) 0.1516(5)
N1A N 0.9172(10) 0.3080(14) 0.0817(6)
N2A N 0.8293(10) 0.1797(15) 0.0698(6)
N3A N 0.8951(10) 0.2714(15) 0.1963(6)
N4A N 0.9120(10) 0.3235(14) 0.2174(6)
N5A N 0.9124(10) 0.2915(14) 0.1616(6)
C1A C 0.8495(13) 0.2184(19) 0.0372(8)
C2A C 0.8979(13) 0.2890(19) 0.0448(8)
C3A C 0.8262(13) 0.1917(19) 0.0019(8)
H1A H 0.8470 0.2149 -0.0201
C4A C 0.7776(13) 0.1144(19) 0.0670(8)
H2A H 0.7636 0.0872 0.0882
C5A C 0.7688(13) 0.1269(19) 0.0026(7)
H3A H 0.7448 0.1092 -0.0196
O25A O 0.9232(13) 0.1530(18) 0.2155(12)
H4A H 0.9633 0.1875 0.2150
H5A H 0.9175 0.1136 0.2201
O26A O 0.886(2) 0.081(3) 0.2776(13)
H6A H 0.9131 0.0844 0.2953
H7A H 0.8931 0.0712 0.2557
O27A O 0.7804(14) 0.2605(20) 0.1221(8)
H8A H 0.7825 0.2868 0.1396
H9A H 0.7472 0.2445 0.1068
N6A N 0.9540(10) 0.3745(15) 0.0797(6)
N7A N 0.9264(15) 0.3453(20) 0.0210(7)
N8A N 0.9586(10) 0.3984(15) 0.0477(6)
C6A C 0.9384(13) 0.3753(19) 0.1964(8)
C7A C 0.9608(13) 0.4501(19) 0.2023(8)
C8A C 1.0011(13) 0.5816(18) 0.2084(8)
H10A H 1.0182 0.6286 0.2091
C9A C 0.9524(13) 0.4742(18) 0.2361(8)
H11A H 0.9307 0.4442 0.2558
N9A N 0.9366(10) 0.3588(14) 0.1626(6)
N10A N 0.9821(12) 0.4865(16) 0.1717(7)
C10A C 1.0000(15) 0.5490(22) 0.1749(10)
H12A H 1.0135 0.5753 0.1533
C11A C 0.7457(13) 0.0876(18) 0.0343(7)
H13A H 0.7088 0.0433 0.0332
C12A C 0.9763(13) 0.5426(18) 0.2405(8)
H14A H 0.9759 0.5616 0.2635
W1B W 0.71323(7) 0.43327(5) 0.51077(3)
W2B W 0.83246(7) 0.35567(5) 0.32252(3)
W3B W 0.81471(7) 0.49526(5) 0.31851(3)
W4B W 0.83239(7) 0.35648(5) 0.42761(3)
W5B W 0.81493(7) 0.49689(5) 0.42307(3)
W6B W 0.72872(8) 0.29627(6) 0.23620(3)
Cu1B Cu 0.89617(23) 0.68669(17) 0.29141(9)
Cu2B Cu 0.83328(26) 0.66995(18) 0.20425(10)
Cu3B Cu 0.76992(23) 0.64247(16) 0.11670(9)
O1B O 0.7615(13) 0.2719(9) 0.2037(6)
O2B O 0.8690(11) 0.4531(7) 0.4330(4)
O3B O 0.8001(11) 0.3417(8) 0.2721(4)
O4B O 0.8672(11) 0.4508(8) 0.3153(5)
O5B O 0.7543(13) 0.3840(10) 0.5152(10)
O6B O 0.7603(11) 0.3856(8) 0.2252(5)
O7B O 0.7817(12) 0.4711(9) 0.2690(6)
O8B O 0.7386(15) 0.4931(10) 0.5439(6)
O9B O 0.7363(12) 0.5032(8) 0.4185(5)
O10B O 0.7806(11) 0.4720(8) 0.4760(5)
O11B O 0.9039(13) 0.3539(9) 0.3128(5)
O12B O 0.8428(13) 0.3695(9) 0.3748(5)
O13B O 0.8775(12) 0.5793(9) 0.4306(5)
O15B O 0.7977(11) 0.3401(8) 0.4765(5)
O17B O 0.7698(11) 0.2619(8) 0.3305(5)
O19B O 0.9073(11) 0.3544(8) 0.4372(5)
O21B O 0.8286(11) 0.4951(8) 0.3736(5)
O22B O 0.8761(12) 0.5770(9) 0.3105(6)
O23B O 0.8209(15) 0.6512(10) 0.2566(5)
O24B O 0.8426(14) 0.6766(10) 0.1516(5)
N1B N 0.6920(14) 0.6092(10) 0.0817(6)
N2B N 0.8203(15) 0.6496(11) 0.0698(6)
N3B N 0.7286(15) 0.6237(11) 0.1963(6)
N4B N 0.6765(14) 0.5885(10) 0.2174(6)
N5B N 0.7085(14) 0.6209(10) 0.1616(6)
C1B C 0.7816(19) 0.6311(14) 0.0372(8)
C2B C 0.7110(19) 0.6089(14) 0.0448(8)
C3B C 0.8083(19) 0.6345(14) 0.0019(8)
H1B H 0.7851 0.6321 -0.0201
C4B C 0.8856(19) 0.6632(14) 0.0670(8)
H2B H 0.9128 0.6764 0.0882
C5B C 0.8731(19) 0.6419(14) 0.0026(7)
H3B H 0.8908 0.6356 -0.0196
O25B O 0.8470(18) 0.7702(13) 0.2155(12)
H4B H 0.8125 0.7758 0.2150
H5B H 0.8864 0.8039 0.2201
O26B O 0.919(3) 0.805(2) 0.2776(13)
H6B H 0.9156 0.8287 0.2953
H7B H 0.9288 0.8219 0.2557
O27B O 0.7395(20) 0.5199(14) 0.1221(8)
H8B H 0.7132 0.4957 0.1396
H9B H 0.7555 0.5027 0.1068
N6B N 0.6255(15) 0.5795(11) 0.0797(6)
N7B N 0.6547(20) 0.5811(13) 0.0210(7)
N8B N 0.6016(15) 0.5602(11) 0.0477(6)
C6B C 0.6247(19) 0.5631(14) 0.1964(8)
C7B C 0.5499(19) 0.5107(14) 0.2023(8)
C8B C 0.4184(18) 0.4195(13) 0.2084(8)
H10B H 0.3714 0.3896 0.2091
C9B C 0.5258(18) 0.4782(12) 0.2361(8)
H11B H 0.5558 0.4865 0.2558
N9B N 0.6412(14) 0.5778(10) 0.1626(6)
N10B N 0.5135(16) 0.4956(11) 0.1717(7)
C10B C 0.4510(22) 0.4510(16) 0.1749(10)
H12B H 0.4247 0.4382 0.1533
C11B C 0.9124(18) 0.6581(13) 0.0343(7)
H13B H 0.9567 0.6655 0.0332
C12B C 0.4574(18) 0.4337(13) 0.2405(8)
H14B H 0.4384 0.4143 0.2635
Cu1I Cu 0.45719(16) 0.02002(17) 0.12474(9)
Cu1J Cu 0.97998(17) 0.43716(23) 0.12474(9)
Cu1K Cu 0.56284(23) 0.54281(16) 0.12474(9)
Cu2I Cu 0.50334(19) 0.00328(18) 0.03758(10)
Cu2J Cu 0.99672(18) 0.50005(26) 0.03758(10)
Cu2K Cu 0.49995(26) 0.49666(19) 0.03758(10)
Cu3F Cu 1.02420(16) 0.46078(16) 0.45003(9)
Cu3G Cu 0.53922(16) 0.56341(23) 0.45003(9)
Cu3H Cu 0.43659(23) -0.02420(16) 0.45003(9)
O19L O 0.9789(8) 0.2196(8) 0.1039(5)
O19M O 0.7804(8) 0.7594(11) 0.1039(5)
O19N O 0.2406(11) 0.0211(8) 0.1039(5)
N6O N 0.2873(10) 0.2462(11) 0.2464(6)
N6P N 0.7538(11) 0.0412(15) 0.2464(6)
N6Q N 0.9588(15) 0.7127(10) 0.2464(6)
N8O N 0.2919(10) 0.2269(11) 0.2144(6)
N8P N 0.7731(11) 0.0651(15) 0.2144(6)
N8Q N 0.9349(15) 0.7081(10) 0.2144(6)
N9O N 0.2699(10) 0.2445(10) 0.3293(6)
N9P N 0.7555(10) 0.0255(14) 0.3293(6)
N9Q N 0.9745(14) 0.7301(10) 0.3293(6)
N10O N 0.3154(12) 0.1623(11) 0.3384(7)
N10P N 0.8377(11) 0.1532(16) 0.3384(7)
N10Q N 0.8468(16) 0.6846(12) 0.3384(7)
O28 O 0.681(3) 0.690(3) 0.289(2)
H15 H 0.7164 0.7032 0.3027
H16 H 0.6769 0.7192 0.2759
loop_
_geom_bond_atom_site_label_1
_geom_bond_atom_site_label_2
_geom_bond_site_symmetry_1
_geom_bond_site_symmetry_2
W1 O5 1_555 1_555
W2 O3 1_555 1_555
W3 O4 1_555 1_555
W4 O2 1_555 1_555
W5 O2 1_555 1_555
W6 O1 1_555 1_555
P1 O16 1_555 1_555
P2 O14 1_555 1_555
Cu1 O22 1_555 1_555
Cu2 O23 1_555 1_555
Cu3 O24 1_555 1_555
O3 W6 1_555 1_555
O4 W2 1_555 1_555
O5 W1B 1_555 1_555
O6 W6 1_555 1_555
O7 W3 1_555 1_555
O8 W1 1_555 1_555
O9 W5 1_555 1_555
O10 W1 1_555 1_555
O11 W2 1_555 1_555
O12 W2 1_555 1_555
O13 W5 1_555 1_555
O14 W4A 1_555 1_555
O15 W4 1_555 1_555
O16 W6 1_555 1_555
O17 W2 1_555 1_555
O18 W1 1_555 1_555
O19 W4 1_555 1_555
O20 W2 1_555 1_555
O21 W3 1_555 1_555
O22 W3 1_555 1_555
O23 Cu1 1_555 1_555
O24 Cu2 1_555 1_555
N1 Cu3 1_555 1_555
N2 Cu3 1_555 1_555
N3 Cu2 1_555 1_555
N4 N3 1_555 1_555
N5 Cu3 1_555 1_555
C1 N2 1_555 1_555
C2 N1 1_555 1_555
C3 C1 1_555 1_555
H1 C3 1_555 1_555
C4 N2 1_555 1_555
H2 C4 1_555 1_555
C5 C3 1_555 1_555
H3 C5 1_555 1_555
O25 Cu2 1_555 1_555
H4 O25 1_555 1_555
H5 O25 1_555 1_555
O26 Cu1 1_555 1_555
H6 O26 1_555 1_555
H7 O26 1_555 1_555
O27 Cu3 1_555 1_555
H8 O27 1_555 1_555
H9 O27 1_555 1_555
N6 N1 1_555 1_555
N7 C2 1_555 1_555
N8 N6 1_555 1_555
C6 N4 1_555 1_555
C7 C6 1_555 1_555
C8 H10 1_555 1_555
C9 C7 1_555 1_555
H11 C9 1_555 1_555
N9 N5 1_555 1_555
N10 C7 1_555 1_555
C10 C8 1_555 1_555
H12 C10 1_555 1_555
C11 C4 1_555 1_555
H13 C11 1_555 1_555
C12 C8 1_555 1_555
H14 C12 1_555 1_555
O28 H15 1_555 1_555
H16 O28 1_555 1_555
O20A P1 1_555 1_555
O20B P1 1_555 1_555
O14A P2 1_555 1_555
O14B W4 1_555 1_555
W1A O18 1_555 1_555
W2A O20A 1_555 1_555
W3A O20A 1_555 1_555
W4A O9 1_555 1_555
W5A O14 1_555 1_555
W6A O6 1_555 1_555
Cu1A O22A 1_555 1_555
Cu2A O23A 1_555 1_555
Cu3A O24A 1_555 1_555
O1A W6A 1_555 1_555
O2A W4A 1_555 1_555
O3A W2A 1_555 1_555
O4A W2A 1_555 1_555
O5A W1 1_555 1_555
O6A W6A 1_555 1_555
O7A W3A 1_555 1_555
O8A W1A 1_555 1_555
O9A W5A 1_555 1_555
O10A W1A 1_555 1_555
O11A W2A 1_555 1_555
O12A W2A 1_555 1_555
O13A W5A 1_555 1_555
O15A W1 1_555 1_555
O17A W3 1_555 1_555
O19A W4A 1_555 1_555
O21A W3A 1_555 1_555
O22A W3A 1_555 1_555
O23A Cu1A 1_555 1_555
O24A Cu2A 1_555 1_555
N1A Cu3A 1_555 1_555
N2A Cu3A 1_555 1_555
N3A Cu2A 1_555 1_555
N4A N3A 1_555 1_555
N5A Cu3A 1_555 1_555
C1A N2A 1_555 1_555
C2A N1A 1_555 1_555
C3A C1A 1_555 1_555
H1A C3A 1_555 1_555
C4A N2A 1_555 1_555
H2A C4A 1_555 1_555
C5A C3A 1_555 1_555
H3A C5A 1_555 1_555
O25A Cu2A 1_555 1_555
H4A O25A 1_555 1_555
H5A O25A 1_555 1_555
O26A Cu1A 1_555 1_555
H6A O26A 1_555 1_555
H7A O26A 1_555 1_555
O27A Cu3A 1_555 1_555
H8A O27A 1_555 1_555
H9A O27A 1_555 1_555
N6A N1A 1_555 1_555
N7A C2A 1_555 1_555
N8A N6A 1_555 1_555
C6A N4A 1_555 1_555
C7A C6A 1_555 1_555
C8A H10A 1_555 1_555
C9A C7A 1_555 1_555
H11A C9A 1_555 1_555
N9A N5A 1_555 1_555
N10A C7A 1_555 1_555
C10A C8A 1_555 1_555
H12A C10A 1_555 1_555
C11A C4A 1_555 1_555
H13A C11A 1_555 1_555
C12A C8A 1_555 1_555
H14A C12A 1_555 1_555
W1B O15 1_555 1_555
W2B O20B 1_555 1_555
W3B O17 1_555 1_555
W4B O14A 1_555 1_555
W5B O14A 1_555 1_555
W6B O16 1_555 1_555
Cu1B O22B 1_555 1_555
Cu2B O23B 1_555 1_555
Cu3B O24B 1_555 1_555
O1B W6B 1_555 1_555
O2B W4B 1_555 1_555
O3B W2B 1_555 1_555
O4B W2B 1_555 1_555
O5B W1A 1_555 1_555
O6B W6 1_555 1_555
O7B W6 1_555 1_555
O8B W1B 1_555 1_555
O9B W4 1_555 1_555
O10B W1B 1_555 1_555
O11B W2B 1_555 1_555
O12B W2B 1_555 1_555
O13B W5B 1_555 1_555
O15B W1A 1_555 1_555
O17B W3A 1_555 1_555
O19B W4B 1_555 1_555
O21B W3B 1_555 1_555
O22B W3B 1_555 1_555
O23B Cu1B 1_555 1_555
O24B Cu2B 1_555 1_555
N1B Cu3B 1_555 1_555
N2B Cu3B 1_555 1_555
N3B Cu2B 1_555 1_555
N4B N3B 1_555 1_555
N5B Cu3B 1_555 1_555
C1B N2B 1_555 1_555
C2B N1B 1_555 1_555
C3B C1B 1_555 1_555
H1B C3B 1_555 1_555
C4B N2B 1_555 1_555
H2B C4B 1_555 1_555
C5B C3B 1_555 1_555
H3B C5B 1_555 1_555
O25B Cu2B 1_555 1_555
H4B O25B 1_555 1_555
H5B O25B 1_555 1_555
O26B Cu1B 1_555 1_555
H6B O26B 1_555 1_555
H7B O26B 1_555 1_555
O27B Cu3B 1_555 1_555
H8B O27B 1_555 1_555
H9B O27B 1_555 1_555
N6B N1B 1_555 1_555
N7B C2B 1_555 1_555
N8B N6B 1_555 1_555
C6B N4B 1_555 1_555
C7B C6B 1_555 1_555
C8B H10B 1_555 1_555
C9B C7B 1_555 1_555
H11B C9B 1_555 1_555
N9B N5B 1_555 1_555
N10B C7B 1_555 1_555
C10B C8B 1_555 1_555
H12B C10B 1_555 1_555
C11B C4B 1_555 1_555
H13B C11B 1_555 1_555
C12B C8B 1_555 1_555
H14B C12B 1_555 1_555
Cu1I N6 1_555 1_555
Cu1J N6A 1_555 1_555
Cu1K N6B 1_555 1_555
Cu2I N8 1_555 1_555
Cu2J N8A 1_555 1_555
Cu2K N8B 1_555 1_555
Cu3F O19B 1_555 1_555
Cu3G O19 1_555 1_555
Cu3H O19A 1_555 1_555
O19L Cu3A 1_555 1_555
O19M Cu3B 1_555 1_555
O19N Cu3 1_555 1_555
N6O Cu1 1_555 1_555
N6P Cu1A 1_555 1_555
N6Q Cu1B 1_555 1_555
N8O Cu2 1_555 1_555
N8P Cu2A 1_555 1_555
N8Q Cu2B 1_555 1_555
N9O Cu1 1_555 1_555
N9P Cu1A 1_555 1_555
N9Q Cu1B 1_555 1_555
N10O Cu1 1_555 1_555
N10P Cu1A 1_555 1_555
N10Q Cu1B 1_555 1_555
W3 O20 1_555 1_555
W4 O12 1_555 1_555
W5 O10 1_555 1_555
W5 O21 1_555 1_555
W5 O14B 1_555 1_555
P1 O20 1_555 1_555
P2 O18 1_555 1_555
P2 O14B 1_555 1_555
O7 W6A 1_555 1_555
O16 W6A 1_555 1_555
O18 W1B 1_555 1_555
N3 N5 1_555 1_555
C1 C2 1_555 1_555
C5 C11 1_555 1_555
N7 N8 1_555 1_555
C6 N9 1_555 1_555
C9 C12 1_555 1_555
N9 Cu1I 1_555 1_555
N10 C10 1_555 1_555
N10 Cu1I 1_555 1_555
O20B W3B 1_555 1_555
W1A O5A 1_555 1_555
W2A O17A 1_555 1_555
W3A O4A 1_555 1_555
W4A O12A 1_555 1_555
W4A O15A 1_555 1_555
W5A O2A 1_555 1_555
W5A O10A 1_555 1_555
W5A O21A 1_555 1_555
W6A O3A 1_555 1_555
O6A W6B 1_555 1_555
O7A W6B 1_555 1_555
O9A W4B 1_555 1_555
N3A N5A 1_555 1_555
C1A C2A 1_555 1_555
C5A C11A 1_555 1_555
N7A N8A 1_555 1_555
C6A N9A 1_555 1_555
C9A C12A 1_555 1_555
N9A Cu1J 1_555 1_555
N10A C10A 1_555 1_555
N10A Cu1J 1_555 1_555
W1B O5B 1_555 1_555
W2B O17B 1_555 1_555
W3B O4B 1_555 1_555
W3B O7B 1_555 1_555
W4B O12B 1_555 1_555
W4B O15B 1_555 1_555
W5B O2B 1_555 1_555
W5B O9B 1_555 1_555
W5B O10B 1_555 1_555
W5B O21B 1_555 1_555
W6B O3B 1_555 1_555
W6B O6B 1_555 1_555
N3B N5B 1_555 1_555
C1B C2B 1_555 1_555
C5B C11B 1_555 1_555
N7B N8B 1_555 1_555
C6B N9B 1_555 1_555
C9B C12B 1_555 1_555
N9B Cu1K 1_555 1_555
N10B C10B 1_555 1_555
N10B Cu1K 1_555 1_555
N6O N8O 1_555 1_555
N6P N8P 1_555 1_555
N6Q N8Q 1_555 1_555

#END
