
#######################################################################
#
#                 Cambridge Crystallographic Data Centre
#                                CCDC 
#
#######################################################################
#
# If this CIF has been generated from an entry in the Cambridge 
# Structural Database, then it will include bibliographic, chemical, 
# crystal, experimental, refinement or atomic coordinate data resulting 
# from the CCDC's data processing and validation procedures.
#
#######################################################################

data_LIBNIU
_symmetry_cell_setting           monoclinic
_symmetry_space_group_name_H-M   'C 2/c'
_symmetry_Int_Tables_number      15
_space_group_name_Hall           '-C 2yn'
loop_
_symmetry_equiv_pos_site_id
_symmetry_equiv_pos_as_xyz
1 x,y,z
2 1/2+x,1/2+y,z
3 -x,y,1/2-z
4 1/2-x,1/2+y,1/2-z
5 -x,-y,-z
6 1/2-x,1/2-y,-z
7 x,-y,1/2+z
8 1/2+x,1/2-y,1/2+z
_cell_length_a                   19.74(3)
_cell_length_b                   7.506(11)
_cell_length_c                   10.750(16)
_cell_angle_alpha                90
_cell_angle_beta                 103.65(2)
_cell_angle_gamma                90
_cell_volume                     1547.82
loop_
_atom_site_label
_atom_site_type_symbol
_atom_site_fract_x
_atom_site_fract_y
_atom_site_fract_z
Co1 Co 0.49487(4) 0.17678(14) 0.41408(7)
O1 O 0.5697(2) 0.3532(7) 0.3836(4)
O2 O 0.5918(2) 0.2912(7) 0.1932(4)
O3 O 0.92814(19) 0.4813(7) 0.4654(4)
O4 O 0.8904(2) 0.3397(8) 0.2784(4)
O5 O 0.4875(3) 0.3249(7) 0.5754(4)
H1 H 0.4587 0.4064 0.5820
H2 H 0.5184 0.3275 0.6455
O6 O 0.5000 0.0203(9) 0.2500
H3 H 0.5354 -0.0477 0.2682
S1 S 0.74323(7) 0.3326(3) 0.27590(13)
C1 C 0.6086(3) 0.3422(9) 0.3072(5)
C2 C 0.6823(3) 0.3978(10) 0.3559(5)
C3 C 0.7115(3) 0.4911(11) 0.4654(5)
H4 H 0.6862 0.5393 0.5200
C4 C 0.7837(3) 0.5051(10) 0.4850(5)
H5 H 0.8119 0.5623 0.5551
C5 C 0.8086(3) 0.4267(10) 0.3911(5)
C6 C 0.8798(3) 0.4092(11) 0.3763(5)
Co1B Co 0.50513(4) 0.17678(14) 0.08592(7)
Co1A Co 0.99487(4) 0.67678(14) 0.41408(7)
Co1E Co 1.00513(4) 0.32322(14) 0.58592(7)
Co1G Co -0.00513(4) 0.32322(14) -0.08592(7)
Co1C Co 0.00513(4) 0.67678(14) 0.08592(7)
O1B O 0.4303(2) 0.3532(7) 0.1164(4)
O2B O 0.4082(2) 0.2912(7) 0.3068(4)
O3B O 0.07186(19) 0.4813(7) 0.0346(4)
O3A O 0.42814(19) -0.0187(7) 0.4654(4)
O3E O 0.57186(19) 0.0187(7) 0.5346(4)
O3G O 0.42814(19) 0.0187(7) -0.0346(4)
O3C O 0.57186(19) -0.0187(7) 0.0346(4)
O4B O 0.1096(2) 0.3397(8) 0.2216(4)
O5B O 0.5125(3) 0.3249(7) -0.0754(4)
H1B H 0.5413 0.4064 -0.0820
H2B H 0.4816 0.3275 -0.1455
H3B H 0.4646 -0.0477 0.2318
S1B S 0.25677(7) 0.3326(3) 0.22410(13)
C1B C 0.3914(3) 0.3422(9) 0.1928(5)
C2B C 0.3177(3) 0.3978(10) 0.1441(5)
C3B C 0.2885(3) 0.4911(11) 0.0346(5)
H4B H 0.3138 0.5393 -0.0200
C4B C 0.2163(3) 0.5051(10) 0.0150(5)
H5B H 0.1881 0.5623 -0.0551
C5B C 0.1914(3) 0.4267(10) 0.1089(5)
C6B C 0.1202(3) 0.4092(11) 0.1237(5)
loop_
_geom_bond_atom_site_label_1
_geom_bond_atom_site_label_2
_geom_bond_site_symmetry_1
_geom_bond_site_symmetry_2
Co1 O1 1_555 1_555
O1 C1 1_555 1_555
O2 C1 1_555 1_555
O3 C6 1_555 1_555
O4 C6 1_555 1_555
O5 Co1 1_555 1_555
H1 O5 1_555 1_555
H2 O5 1_555 1_555
O6 Co1 1_555 1_555
H3 O6 1_555 1_555
S1 C2 1_555 1_555
C1 C2 1_555 1_555
C2 C3 1_555 1_555
C3 H4 1_555 1_555
C4 C3 1_555 1_555
H5 C4 1_555 1_555
C5 S1 1_555 1_555
C6 C5 1_555 1_555
Co1B O2 1_555 1_555
Co1A O3 1_555 1_555
Co1E O3 1_555 1_555
Co1G O3B 1_555 1_555
Co1C O3B 1_555 1_555
O1B Co1B 1_555 1_555
O2B Co1 1_555 1_555
O3B C6B 1_555 1_555
O3A Co1 1_555 1_555
O3E Co1 1_555 1_555
O3G Co1B 1_555 1_555
O3C Co1B 1_555 1_555
O4B C6B 1_555 1_555
O5B Co1B 1_555 1_555
H1B O5B 1_555 1_555
H2B O5B 1_555 1_555
H3B O6 1_555 1_555
S1B C2B 1_555 1_555
C1B O1B 1_555 1_555
C2B C1B 1_555 1_555
C3B C2B 1_555 1_555
H4B C3B 1_555 1_555
C4B C3B 1_555 1_555
H5B C4B 1_555 1_555
C5B S1B 1_555 1_555
C6B C5B 1_555 1_555
O6 Co1B 1_555 1_555
C4 C5 1_555 1_555
O2B C1B 1_555 1_555
C4B C5B 1_555 1_555

#END
