
#######################################################################
#
#                 Cambridge Crystallographic Data Centre
#                                CCDC 
#
#######################################################################
#
# If this CIF has been generated from an entry in the Cambridge 
# Structural Database, then it will include bibliographic, chemical, 
# crystal, experimental, refinement or atomic coordinate data resulting 
# from the CCDC's data processing and validation procedures.
#
#######################################################################

data_LIBRIZ
_symmetry_cell_setting           monoclinic
_symmetry_space_group_name_H-M   'P 21/c'
_symmetry_Int_Tables_number      14
_space_group_name_Hall           '-P 2ybc'
loop_
_symmetry_equiv_pos_site_id
_symmetry_equiv_pos_as_xyz
1 x,y,z
2 -x,1/2+y,1/2-z
3 -x,-y,-z
4 x,1/2-y,1/2+z
_cell_length_a                   13.735(4)
_cell_length_b                   19.214(5)
_cell_length_c                   10.834(3)
_cell_angle_alpha                90
_cell_angle_beta                 108.590(11)
_cell_angle_gamma                90
_cell_volume                     2709.96
loop_
_atom_site_label
_atom_site_type_symbol
_atom_site_fract_x
_atom_site_fract_y
_atom_site_fract_z
Cd1 Cd 0.221745(11) 0.676317(7) 0.409134(13)
F1 F 0.72885(9) 0.66010(7) 0.43008(12)
O1 O 0.26346(13) 0.52367(12) 0.71094(18)
O2 O 0.21336(12) 0.58896(9) 0.53848(19)
O3 O 0.37621(10) 0.63032(7) 0.43850(13)
O4 O 0.22706(11) 0.74317(8) 0.75888(14)
O5 O 0.26680(11) 0.75339(9) 0.57630(13)
O6 O 1.09334(11) 0.62803(8) 1.21007(14)
O7 O 1.04919(13) 0.69380(9) 1.35045(15)
N1 N 1.08114(14) 0.59048(11) 0.71978(19)
H1 H 1.1399 0.5842 0.7013
H2 H 1.0974 0.6057 0.8024
N2 N 0.86131(12) 0.58358(9) 0.63249(17)
N3 N 0.55703(12) 0.50339(8) 0.72836(15)
C1 C 0.28124(15) 0.55519(11) 0.6219(2)
C2 C 0.38979(14) 0.55329(10) 0.61837(18)
C3 C 0.42865(14) 0.59210(9) 0.53196(17)
C4 C 0.53887(14) 0.58713(9) 0.55776(17)
C5 C 0.58547(15) 0.62698(10) 0.48435(18)
H3 H 0.5455 0.6558 0.4186
C6 C 0.68740(15) 0.62401(10) 0.50803(19)
C7 C 0.75569(14) 0.58376(10) 0.61106(19)
C8 C 0.70914(14) 0.54334(10) 0.68197(18)
H4 H 0.7495 0.5152 0.7484
C9 C 0.60291(14) 0.54399(9) 0.65584(17)
C10 C 0.45689(15) 0.51113(10) 0.70968(18)
H5 H 0.4295 0.4855 0.7636
C11 C 0.61692(17) 0.45367(11) 0.8299(2)
H6 H 0.6732 0.4351 0.8040
H7 H 0.5729 0.4151 0.8352
C12 C 0.6595(2) 0.48655(14) 0.9619(2)
H8 H 0.6969 0.4523 1.0235
H9 H 0.6042 0.5044 0.9888
H10 H 0.7048 0.5240 0.9579
C13 C 0.91501(16) 0.65125(11) 0.6510(2)
H11 H 0.9248 0.6682 0.7385
H12 H 0.8735 0.6849 0.5900
C14 C 1.01704(18) 0.64394(14) 0.6299(2)
H13 H 1.0525 0.6883 0.6452
H14 H 1.0069 0.6304 0.5404
C15 C 1.02577(17) 0.52333(13) 0.7072(3)
H15 H 1.0665 0.4909 0.7718
H16 H 1.0167 0.5038 0.6217
C16 C 0.92257(16) 0.53243(11) 0.7255(2)
H17 H 0.8868 0.4882 0.7126
H18 H 0.9316 0.5480 0.8136
C17 C 0.52140(18) 0.66742(11) 0.9607(2)
H19 H 0.5349 0.6450 1.0405
C18 C 0.42090(18) 0.68461(11) 0.8905(2)
H20 H 0.3685 0.6746 0.9249
C19 C 0.39741(15) 0.71655(10) 0.76984(18)
C20 C 0.47580(16) 0.72855(11) 0.71875(19)
H21 H 0.4611 0.7476 0.6359
C21 C 0.57603(16) 0.71254(11) 0.78964(19)
H22 H 0.6277 0.7217 0.7536
C22 C 0.60243(17) 0.68291(9) 0.9145(2)
C23 C 0.71098(17) 0.67282(9) 0.9962(2)
C24 C 0.78987(19) 0.66942(11) 0.9441(2)
H23 H 0.7748 0.6715 0.8542
C25 C 0.89154(18) 0.66296(12) 1.0224(2)
H24 H 0.9429 0.6592 0.9839
C26 C 0.91757(16) 0.66210(11) 1.1566(2)
C27 C 0.83897(19) 0.66585(13) 1.2107(2)
H25 H 0.8544 0.6657 1.3007
C28 C 0.73860(19) 0.66980(12) 1.1324(2)
H26 H 0.6870 0.6705 1.1710
C29 C 0.28954(15) 0.73914(10) 0.69678(19)
C30 C 1.02697(17) 0.66058(12) 1.2446(2)
Cd1_2 Cd 1.221745(11) 0.676317(7) 1.409134(13)
Cd1C Cd 0.221745(11) 0.823683(7) 0.909134(13)
O4C O 0.22706(11) 0.75683(8) 0.25888(14)
O6_2 O 0.09334(11) 0.62803(8) 0.21007(14)
O7_2 O 0.04919(13) 0.69380(9) 0.35045(15)
O8 O 0.13869(16) 0.63213(10) 0.97921(18)
H27 H 0.117(2) 0.6206(11) 1.0399(19)
H28 H 0.171(2) 0.6701(9) 0.996(2)
loop_
_geom_bond_atom_site_label_1
_geom_bond_atom_site_label_2
_geom_bond_site_symmetry_1
_geom_bond_site_symmetry_2
Cd1 O2 1_555 1_555
F1 C6 1_555 1_555
O1 C1 1_555 1_555
O2 C1 1_555 1_555
O3 Cd1 1_555 1_555
O4 C29 1_555 1_555
O5 Cd1 1_555 1_555
O6 C30 1_555 1_555
O7 C30 1_555 1_555
N1 H1 1_555 1_555
H2 N1 1_555 1_555
N2 C7 1_555 1_555
N3 C9 1_555 1_555
C1 C2 1_555 1_555
C2 C3 1_555 1_555
C3 O3 1_555 1_555
C4 C3 1_555 1_555
C5 C4 1_555 1_555
H3 C5 1_555 1_555
C6 C5 1_555 1_555
C7 C6 1_555 1_555
C8 C7 1_555 1_555
H4 C8 1_555 1_555
C9 C4 1_555 1_555
C10 N3 1_555 1_555
H5 C10 1_555 1_555
C11 N3 1_555 1_555
H6 C11 1_555 1_555
H7 C11 1_555 1_555
C12 C11 1_555 1_555
H8 C12 1_555 1_555
H9 C12 1_555 1_555
H10 C12 1_555 1_555
C13 N2 1_555 1_555
H11 C13 1_555 1_555
H12 C13 1_555 1_555
C14 N1 1_555 1_555
H13 C14 1_555 1_555
H14 C14 1_555 1_555
C15 N1 1_555 1_555
H15 C15 1_555 1_555
H16 C15 1_555 1_555
C16 N2 1_555 1_555
H17 C16 1_555 1_555
H18 C16 1_555 1_555
C17 H19 1_555 1_555
C18 C17 1_555 1_555
H20 C18 1_555 1_555
C19 C18 1_555 1_555
C20 C19 1_555 1_555
H21 C20 1_555 1_555
C21 C20 1_555 1_555
H22 C21 1_555 1_555
C22 C17 1_555 1_555
C23 C22 1_555 1_555
C24 C23 1_555 1_555
H23 C24 1_555 1_555
C25 C24 1_555 1_555
H24 C25 1_555 1_555
C26 C25 1_555 1_555
C27 C26 1_555 1_555
H25 C27 1_555 1_555
C28 C23 1_555 1_555
H26 C28 1_555 1_555
C29 O5 1_555 1_555
C30 C26 1_555 1_555
O8 H27 1_555 1_555
H28 O8 1_555 1_555
Cd1_2 O6 1_555 1_555
Cd1C O4 1_555 1_555
O4C Cd1 1_555 1_555
O6_2 Cd1 1_555 1_555
O7_2 Cd1 1_555 1_555
O7 Cd1_2 1_555 1_555
C2 C10 1_555 1_555
C8 C9 1_555 1_555
C13 C14 1_555 1_555
C15 C16 1_555 1_555
C19 C29 1_555 1_555
C21 C22 1_555 1_555
C27 C28 1_555 1_555

#END
