
#######################################################################
#
#                 Cambridge Crystallographic Data Centre
#                                CCDC 
#
#######################################################################
#
# If this CIF has been generated from an entry in the Cambridge 
# Structural Database, then it will include bibliographic, chemical, 
# crystal, experimental, refinement or atomic coordinate data resulting 
# from the CCDC's data processing and validation procedures.
#
#######################################################################

data_LIBRAR
_symmetry_cell_setting           triclinic
_symmetry_space_group_name_H-M   'P -1'
_symmetry_Int_Tables_number      2
_space_group_name_Hall           '-P 1'
loop_
_symmetry_equiv_pos_site_id
_symmetry_equiv_pos_as_xyz
1 x,y,z
2 -x,-y,-z
_cell_length_a                   10.710(2)
_cell_length_b                   11.222(2)
_cell_length_c                   14.017(3)
_cell_angle_alpha                78.47(3)
_cell_angle_beta                 84.43(3)
_cell_angle_gamma                86.55(3)
_cell_volume                     1641.44
loop_
_atom_site_label
_atom_site_type_symbol
_atom_site_fract_x
_atom_site_fract_y
_atom_site_fract_z
Mn1 Mn 0.32901(5) 0.12218(5) 0.57383(4)
Mn2 Mn 0.62792(5) 0.39966(5) 0.48334(4)
F1 F 0.2273(2) 0.0029(2) 1.08331(16)
O1 O -0.0505(3) 0.2168(5) 0.5367(2)
O2 O 0.2869(3) -0.0422(3) 0.5211(2)
H1 H 0.330(4) -0.101(4) 0.550(4)
H2 H 0.300(7) -0.037(6) 0.4607(10)
O3 O 0.7310(4) 0.5338(3) 0.5554(3)
O4 O 0.1515(3) 0.1928(5) 0.5319(2)
O5 O 0.2291(3) 0.0799(3) 0.72007(19)
O6 O 0.7123(2) 0.2637(2) 0.5849(2)
H3 H 0.672(4) 0.205(3) 0.617(5)
H4 H 0.7867(17) 0.242(4) 0.571(4)
O7 O 0.3577(4) -0.0619(4) 0.2890(3)
O8 O 0.5058(3) -0.0347(3) 0.3775(2)
O9 O 0.3916(3) 0.1931(3) 0.4200(2)
O10 O 0.5800(3) 0.2707(4) 0.4012(3)
O11 O 0.4878(3) 0.4496(4) -0.4022(2)
O12 O 0.3843(7) 0.2881(4) -0.3973(3)
O13 O 0.2239(2) 0.5409(3) -0.3739(2)
O14 O 0.0765(3) 0.5320(3) -0.2503(2)
O15 O 0.5122(3) 0.2097(3) -0.03187(19)
N1 N -0.0071(3) 0.2313(3) 1.3364(2)
H5 H -0.0189 0.2188 1.4021
H6 H -0.0069 0.3121 1.3133
N2 N 0.0314(3) 0.1421(3) 1.1562(2)
N3 N -0.0827(3) 0.2654(3) 0.8204(2)
C1 C 0.0483(4) 0.2023(4) 0.5785(3)
C2 C 0.0410(3) 0.1995(4) 0.6862(3)
C3 C 0.1313(3) 0.1368(3) 0.7484(3)
C4 C 0.1040(3) 0.1377(3) 0.8526(2)
C5 C 0.1832(3) 0.0731(3) 0.9213(3)
H7 H 0.2543 0.0302 0.9006
C6 C 0.1555(3) 0.0734(3) 1.0184(2)
C7 C 0.0521(3) 0.1426(3) 1.0549(2)
C8 C -0.0255(3) 0.2048(3) 0.9872(2)
H8 H -0.0953 0.2493 1.0081
C9 C -0.0015(3) 0.2024(3) 0.8874(2)
C10 C -0.0609(3) 0.2602(4) 0.7259(3)
H9 H -0.1185 0.3004 0.6837
C11 C -0.1966(3) 0.3285(4) 0.8544(3)
H10 H -0.2644 0.2768 0.8877
C12 C -0.1822(4) 0.4425(4) 0.8914(3)
H11 H -0.0980 0.4706 0.8898
H12 H -0.2391 0.4580 0.9462
C13 C -0.2359(4) 0.4479(4) 0.7956(3)
H13 H -0.3252 0.4669 0.7926
H14 H -0.1841 0.4796 0.7363
C14 C 0.1352(4) 0.1906(4) 1.1966(3)
H15 H 0.1415 0.2766 1.1687
H16 H 0.2136 0.1494 1.1786
C15 C 0.1156(4) 0.1737(5) 1.3066(3)
H17 H 0.1173 0.0875 1.3351
H18 H 0.1831 0.2101 1.3306
C16 C -0.1108(4) 0.1783(4) 1.2975(3)
H19 H -0.1904 0.2168 1.3163
H20 H -0.1137 0.0919 1.3250
C17 C -0.0905(3) 0.1974(4) 1.1870(3)
H21 H -0.1576 0.1612 1.1623
H22 H -0.0930 0.2839 1.1595
C18 C 0.4787(3) 0.1100(3) 0.1346(3)
H23 H 0.4620 0.0393 0.1140
C19 C 0.4754(3) 0.1122(3) 0.2340(2)
C20 C 0.5023(3) 0.2180(3) 0.2648(3)
C21 C 0.5350(4) 0.3216(4) 0.1947(3)
H24 H 0.5556 0.3916 0.2146
C22 C 0.5366(4) 0.3200(4) 0.0962(3)
H25 H 0.5573 0.3891 0.0498
C23 C 0.5073(4) 0.2149(4) 0.0671(3)
C24 C 0.4287(4) 0.2831(3) -0.0888(3)
C25 C 0.4550(3) 0.2918(3) -0.1887(3)
H26 H 0.5250 0.2500 -0.2126
C26 C 0.3776(3) 0.3624(3) -0.2528(3)
C27 C 0.2697(3) 0.4238(3) -0.2186(3)
C28 C 0.2443(3) 0.4108(3) -0.1175(3)
H27 H 0.1723 0.4493 -0.0931
C29 C 0.3227(4) 0.3425(3) -0.0523(3)
H28 H 0.3047 0.3366 0.0147
C30 C 0.4427(3) -0.0039(3) 0.3057(3)
C31 C 0.4886(3) 0.2283(3) 0.3703(3)
C32 C 0.4162(5) 0.3669(4) -0.3581(3)
C33 C 0.1828(3) 0.5047(3) -0.2861(3)
Mn1_2 Mn 0.32901(5) 0.12218(5) -0.42617(4)
Mn1A Mn 0.67099(5) -0.12218(5) 0.42617(4)
Mn2_2 Mn 0.62792(5) 0.39966(5) -0.51666(4)
Mn2A Mn 0.37208(5) 0.60034(5) -0.48334(4)
O8A O 0.4942(3) 0.0347(3) 0.6225(2)
O11_2 O 0.4878(3) 0.4496(4) 0.5978(2)
O11A O 0.5122(3) 0.5504(4) 0.4022(2)
O12_2 O 0.3843(7) 0.2881(4) 0.6027(3)
O13A O 0.7761(2) 0.4591(3) 0.3739(2)
O16 O 1.0000 0.5000 0.5000
loop_
_geom_bond_atom_site_label_1
_geom_bond_atom_site_label_2
_geom_bond_site_symmetry_1
_geom_bond_site_symmetry_2
Mn1 O2 1_555 1_555
Mn2 O3 1_555 1_555
F1 C6 1_555 1_555
O1 C1 1_555 1_555
O2 H1 1_555 1_555
H2 O2 1_555 1_555
O4 Mn1 1_555 1_555
O5 Mn1 1_555 1_555
O6 Mn2 1_555 1_555
H3 O6 1_555 1_555
H4 O6 1_555 1_555
O7 C30 1_555 1_555
O8 C30 1_555 1_555
O9 Mn1 1_555 1_555
O10 Mn2 1_555 1_555
O11 C32 1_555 1_555
O12 C32 1_555 1_555
O13 C33 1_555 1_555
O14 C33 1_555 1_555
O15 C23 1_555 1_555
N1 H5 1_555 1_555
H6 N1 1_555 1_555
N2 C7 1_555 1_555
N3 C9 1_555 1_555
C1 O4 1_555 1_555
C2 C1 1_555 1_555
C3 O5 1_555 1_555
C4 C3 1_555 1_555
C5 C4 1_555 1_555
H7 C5 1_555 1_555
C6 C5 1_555 1_555
C7 C6 1_555 1_555
C8 C7 1_555 1_555
H8 C8 1_555 1_555
C9 C4 1_555 1_555
C10 N3 1_555 1_555
H9 C10 1_555 1_555
C11 N3 1_555 1_555
H10 C11 1_555 1_555
C12 C11 1_555 1_555
H11 C12 1_555 1_555
H12 C12 1_555 1_555
C13 C11 1_555 1_555
H13 C13 1_555 1_555
H14 C13 1_555 1_555
C14 N2 1_555 1_555
H15 C14 1_555 1_555
H16 C14 1_555 1_555
C15 N1 1_555 1_555
H17 C15 1_555 1_555
H18 C15 1_555 1_555
C16 N1 1_555 1_555
H19 C16 1_555 1_555
H20 C16 1_555 1_555
C17 N2 1_555 1_555
H21 C17 1_555 1_555
H22 C17 1_555 1_555
C18 H23 1_555 1_555
C19 C18 1_555 1_555
C20 C19 1_555 1_555
C21 C20 1_555 1_555
H24 C21 1_555 1_555
C22 C21 1_555 1_555
H25 C22 1_555 1_555
C23 C18 1_555 1_555
C24 O15 1_555 1_555
C25 C24 1_555 1_555
H26 C25 1_555 1_555
C26 C25 1_555 1_555
C27 C26 1_555 1_555
C28 C27 1_555 1_555
H27 C28 1_555 1_555
C29 C24 1_555 1_555
H28 C29 1_555 1_555
C30 C19 1_555 1_555
C31 O9 1_555 1_555
C32 C26 1_555 1_555
C33 C27 1_555 1_555
Mn1_2 O12 1_555 1_555
Mn1A O8 1_555 1_555
Mn2_2 O11 1_555 1_555
Mn2A O11 1_555 1_555
O8A Mn1 1_555 1_555
O11_2 Mn2 1_555 1_555
O11A Mn2 1_555 1_555
O12_2 Mn1 1_555 1_555
O13A Mn2 1_555 1_555
O10 C31 1_555 1_555
O13 Mn2A 1_555 1_555
C2 C3 1_555 1_555
C2 C10 1_555 1_555
C8 C9 1_555 1_555
C12 C13 1_555 1_555
C14 C15 1_555 1_555
C16 C17 1_555 1_555
C20 C31 1_555 1_555
C22 C23 1_555 1_555
C28 C29 1_555 1_555

#END
