
#######################################################################
#
#                 Cambridge Crystallographic Data Centre
#                                CCDC 
#
#######################################################################
#
# If this CIF has been generated from an entry in the Cambridge 
# Structural Database, then it will include bibliographic, chemical, 
# crystal, experimental, refinement or atomic coordinate data resulting 
# from the CCDC's data processing and validation procedures.
#
#######################################################################

data_LIBZAZ
_symmetry_cell_setting           monoclinic
_symmetry_space_group_name_H-M   'P 21/c'
_symmetry_Int_Tables_number      14
_space_group_name_Hall           '-P 2ybc'
loop_
_symmetry_equiv_pos_site_id
_symmetry_equiv_pos_as_xyz
1 x,y,z
2 -x,1/2+y,1/2-z
3 -x,-y,-z
4 x,1/2-y,1/2+z
_cell_length_a                   6.5661(4)
_cell_length_b                   21.5954(13)
_cell_length_c                   7.8310(4)
_cell_angle_alpha                90
_cell_angle_beta                 115.854(4)
_cell_angle_gamma                90
_cell_volume                     999.273
loop_
_atom_site_label
_atom_site_type_symbol
_atom_site_fract_x
_atom_site_fract_y
_atom_site_fract_z
C1 C 0.4955(3) 0.85871(8) 0.3403(3)
C2 C 0.3155(3) 0.82221(8) 0.2199(3)
C3 C 0.4982(4) 0.73650(9) 0.3855(3)
H1 H 0.5055 0.6938 0.4029
C4 C 0.6743(4) 0.77243(9) 0.5100(3)
H2 H 0.7945 0.7539 0.6111
C5 C 0.5104(3) 0.92821(8) 0.3165(3)
C6 C 0.1002(3) 0.84765(8) 0.0616(3)
N1 N 0.6729(3) 0.83362(7) 0.4860(2)
N2 N 0.3189(3) 0.76045(7) 0.2420(2)
N3 N 1.1389(3) 0.87269(10) 0.5474(3)
H3 H 1.0718 0.8773 0.4219
H4 H 1.1727 0.8329 0.5757
H5 H 1.2653 0.8951 0.5962
N4 N 1.0802(3) 0.98338(8) 0.7877(3)
H6 H 1.1801 0.9756 0.9066
H7 H 0.9785 1.0106 0.7880
H8 H 1.1515 0.9989 0.7233
O1 O 0.6906(2) 0.95401(6) 0.4268(2)
O2 O 0.3448(3) 0.95419(6) 0.1904(2)
O3 O -0.0503(2) 0.86424(8) 0.1073(2)
O4 O 0.0923(2) 0.84674(7) -0.1012(2)
Zn1 Zn 0.91959(4) 0.902646(10) 0.66154(3)
O5 O 0.6493(3) 0.91757(7) 0.7765(2)
H9 H 0.723(5) 0.9037(12) 0.886(3)
H10 H 0.625(5) 0.9550(8) 0.787(4)
O4_2 O 1.0923(2) 0.84674(7) 0.8988(2)
Zn1_2 Zn -0.08041(4) 0.902646(10) -0.33846(3)
loop_
_geom_bond_atom_site_label_1
_geom_bond_atom_site_label_2
_geom_bond_site_symmetry_1
_geom_bond_site_symmetry_2
C1 C2 1_555 1_555
C2 C6 1_555 1_555
C3 H1 1_555 1_555
C4 C3 1_555 1_555
H2 C4 1_555 1_555
C5 C1 1_555 1_555
C6 O3 1_555 1_555
N1 C1 1_555 1_555
N2 C2 1_555 1_555
N3 H3 1_555 1_555
H4 N3 1_555 1_555
H5 N3 1_555 1_555
N4 H6 1_555 1_555
H7 N4 1_555 1_555
H8 N4 1_555 1_555
O1 C5 1_555 1_555
O2 C5 1_555 1_555
O4 C6 1_555 1_555
Zn1 N1 1_555 1_555
O5 Zn1 1_555 1_555
H9 O5 1_555 1_555
H10 O5 1_555 1_555
O4_2 Zn1 1_555 1_555
Zn1_2 O4 1_555 1_555
C3 N2 1_555 1_555
C4 N1 1_555 1_555
N3 Zn1 1_555 1_555
N4 Zn1 1_555 1_555
O1 Zn1 1_555 1_555

#END
