
#######################################################################
#
#                 Cambridge Crystallographic Data Centre
#                                CCDC 
#
#######################################################################
#
# If this CIF has been generated from an entry in the Cambridge 
# Structural Database, then it will include bibliographic, chemical, 
# crystal, experimental, refinement or atomic coordinate data resulting 
# from the CCDC's data processing and validation procedures.
#
#######################################################################

data_LICCUW01
_symmetry_cell_setting           monoclinic
_symmetry_space_group_name_H-M   'C 2/c'
_symmetry_Int_Tables_number      15
_space_group_name_Hall           '-C 2yn'
loop_
_symmetry_equiv_pos_site_id
_symmetry_equiv_pos_as_xyz
1 x,y,z
2 1/2+x,1/2+y,z
3 -x,y,1/2-z
4 1/2-x,1/2+y,1/2-z
5 -x,-y,-z
6 1/2-x,1/2-y,-z
7 x,-y,1/2+z
8 1/2+x,1/2-y,1/2+z
_cell_length_a                   16.60620(10)
_cell_length_b                   4.79350(10)
_cell_length_c                   19.2721(5)
_cell_angle_alpha                90
_cell_angle_beta                 100.674(2)
_cell_angle_gamma                90
_cell_volume                     1507.55
loop_
_atom_site_label
_atom_site_type_symbol
_atom_site_fract_x
_atom_site_fract_y
_atom_site_fract_z
C1 C 0.8574(2) 0.2238(6) 0.05466(16)
H1 H 0.8162 0.0915 0.0425
C2 C 0.9082(2) 0.2785(6) 0.00738(16)
H2 H 0.9001 0.1879 -0.0360
C3 C 0.97137(16) 0.4683(5) 0.02468(13)
C4 C 0.97886(17) 0.5971(6) 0.09001(14)
H3 H 1.0206 0.7256 0.1042
C5 C 0.92483(17) 0.5356(6) 0.13368(14)
H4 H 0.9306 0.6263 0.1770
N1 N 0.86415(13) 0.3501(5) 0.11650(11)
O1 O 0.75744(12) -0.1217(4) 0.16498(11)
O2 O 0.68041(11) -0.5418(4) 0.14923(10)
O3 O 0.64401(12) -0.1790(4) 0.22586(10)
S1 S 0.66927(4) -0.22865(13) 0.15485(4)
Zn1 Zn 0.784719(19) 0.27306(6) 0.183086(15)
C1D C 1.1426(2) 0.7762(6) -0.05466(16)
H1D H 1.1838 0.9085 -0.0425
C2D C 1.0918(2) 0.7215(6) -0.00738(16)
H2D H 1.0999 0.8121 0.0360
C3D C 1.02863(16) 0.5317(5) -0.02468(13)
C4D C 1.02114(17) 0.4029(6) -0.09001(14)
H3D H 0.9794 0.2744 -0.1042
C5D C 1.07517(17) 0.4644(6) -0.13368(14)
H4D H 1.0694 0.3737 -0.1770
N1D N 1.13585(13) 0.6499(5) -0.11650(11)
O1_2 O 0.75744(12) 0.8783(4) 0.16498(11)
O1D O 1.24256(12) 1.1217(4) -0.16498(11)
O2_2 O 0.68041(11) 0.4582(4) 0.14923(10)
O2D O 1.31959(11) 0.5418(4) -0.14923(10)
O3_2 O 0.64401(12) 0.8210(4) 0.22586(10)
O3C O 0.85599(12) 0.3210(4) 0.27414(10)
O3G O 1.14401(12) 0.6790(4) -0.27414(10)
S1_2 S 0.66927(4) 0.77135(13) 0.15485(4)
Zn1D Zn 1.215281(19) 0.72694(6) -0.183086(15)
Zn1_2 Zn 0.784719(19) -0.72694(6) 0.183086(15)
Zn1C Zn 0.715281(19) -0.22694(6) 0.316914(15)
Zn1_3 Zn 0.784719(19) 1.27306(6) 0.183086(15)
Zn1C_2 Zn 0.715281(19) 0.77306(6) 0.316914(15)
O4 O 1.0000 -0.0014(8) 0.2500
H5 H 0.961(4) 0.137(13) 0.255(6)
H5B H 1.039(4) 0.137(13) 0.245(6)
loop_
_geom_bond_atom_site_label_1
_geom_bond_atom_site_label_2
_geom_bond_site_symmetry_1
_geom_bond_site_symmetry_2
C1 H1 1_555 1_555
C2 C1 1_555 1_555
H2 C2 1_555 1_555
C3 C2 1_555 1_555
C4 C3 1_555 1_555
H3 C4 1_555 1_555
C5 C4 1_555 1_555
H4 C5 1_555 1_555
N1 C1 1_555 1_555
O1 S1 1_555 1_555
O2 S1 1_555 1_555
O3 S1 1_555 1_555
O4 H5 1_555 1_555
Zn1 N1 1_555 1_555
C1D H1D 1_555 1_555
C2D C1D 1_555 1_555
H2D C2D 1_555 1_555
C3D C3 1_555 1_555
C4D C3D 1_555 1_555
H3D C4D 1_555 1_555
C5D C4D 1_555 1_555
H4D C5D 1_555 1_555
N1D C1D 1_555 1_555
O1_2 S1_2 1_555 1_555
O1D Zn1D 1_555 1_555
O2_2 Zn1 1_555 1_555
O2D Zn1D 1_555 1_555
O3_2 S1_2 1_555 1_555
O3C Zn1 1_555 1_555
O3G Zn1D 1_555 1_555
S1_2 O2_2 1_555 1_555
Zn1D N1D 1_555 1_555
Zn1_2 O2 1_555 1_555
Zn1C O3 1_555 1_555
Zn1_3 O1_2 1_555 1_555
Zn1C_2 O3_2 1_555 1_555
H5B O4 1_555 1_555
C5 N1 1_555 1_555
O1 Zn1 1_555 1_555
C2D C3D 1_555 1_555
C5D N1D 1_555 1_555

#END
