
#######################################################################
#
#                 Cambridge Crystallographic Data Centre
#                                CCDC 
#
#######################################################################
#
# If this CIF has been generated from an entry in the Cambridge 
# Structural Database, then it will include bibliographic, chemical, 
# crystal, experimental, refinement or atomic coordinate data resulting 
# from the CCDC's data processing and validation procedures.
#
#######################################################################

data_LICDIL
_symmetry_cell_setting           triclinic
_symmetry_space_group_name_H-M   'P -1'
_symmetry_Int_Tables_number      2
_space_group_name_Hall           '-P 1'
loop_
_symmetry_equiv_pos_site_id
_symmetry_equiv_pos_as_xyz
1 x,y,z
2 -x,-y,-z
_cell_length_a                   9.2994(13)
_cell_length_b                   10.9817(16)
_cell_length_c                   11.6053(17)
_cell_angle_alpha                85.816(7)
_cell_angle_beta                 88.349(6)
_cell_angle_gamma                71.349(7)
_cell_volume                     1119.92
loop_
_atom_site_label
_atom_site_type_symbol
_atom_site_fract_x
_atom_site_fract_y
_atom_site_fract_z
Co1 Co 0.5000 0.5000 0.5000
P1 P 0.82725(7) 0.52995(6) 0.63897(5)
O1 O 0.44835(17) 0.41252(14) 0.64826(13)
O2 O 0.37298(17) 0.67215(14) 0.55574(13)
O3 O 0.70143(19) 0.51250(16) 0.57770(15)
C1 C 0.3873(2) 0.4670(2) 0.73829(18)
C2 C 0.3903(2) 0.37899(19) 0.84355(19)
C3 C 0.4118(2) 0.2488(2) 0.82934(19)
H1 H 0.4186 0.2193 0.7538
C4 C 0.4231(3) 0.1629(2) 0.9247(2)
H2 H 0.4361 0.0750 0.9143
C5 C 0.4156(2) 0.2046(2) 1.0352(2)
H3 H 0.4249 0.1451 1.1004
C6 C 0.3947(2) 0.3334(2) 1.0505(2)
H4 H 0.3901 0.3621 1.1262
C7 C 0.3805(2) 0.4199(2) 0.95525(19)
H5 H 0.3639 0.5083 0.9662
C8 C 0.3217(2) 0.6008(2) 0.74601(19)
H6 H 0.2747 0.6300 0.8171
C9 C 0.3206(2) 0.6944(2) 0.65677(18)
C10 C 0.2531(2) 0.8343(2) 0.68035(19)
C11 C 0.2469(2) 0.8775(2) 0.7906(2)
H7 H 0.2853 0.8174 0.8542
C12 C 0.1848(3) 1.0081(2) 0.8087(2)
H8 H 0.1803 1.0366 0.8845
C13 C 0.1297(3) 1.0964(2) 0.7158(2)
H9 H 0.0872 1.1855 0.7279
C14 C 0.1367(3) 1.0545(2) 0.6056(2)
H10 H 0.0993 1.1149 0.5419
C15 C 0.1985(2) 0.9241(2) 0.5879(2)
H11 H 0.2035 0.8959 0.5119
C16 C 0.8628(2) 0.4338(2) 0.7738(2)
C17 C 0.9805(3) 0.4298(2) 0.8479(2)
H12 H 1.0401 0.4849 0.8311
C18 C 1.0103(3) 0.3460(2) 0.9453(2)
H13 H 1.0904 0.3435 0.9954
C19 C 0.9237(3) 0.2654(2) 0.9701(2)
H14 H 0.9448 0.2077 1.0372
C20 C 0.8060(3) 0.2686(2) 0.8975(2)
H15 H 0.7462 0.2139 0.9152
C21 C 0.7763(2) 0.3521(2) 0.7991(2)
H16 H 0.6969 0.3537 0.7488
C22 C 0.7916(2) 0.6984(2) 0.66172(19)
C23 C 0.6501(3) 0.7835(2) 0.6286(2)
H17 H 0.5785 0.7525 0.5939
C24 C 0.6133(3) 0.9148(2) 0.6465(2)
H18 H 0.5161 0.9724 0.6253
C25 C 0.7182(3) 0.9602(2) 0.6950(2)
H19 H 0.6930 1.0492 0.7073
C26 C 0.8603(3) 0.8764(2) 0.7258(2)
H20 H 0.9325 0.9085 0.7584
C27 C 0.8976(3) 0.7463(2) 0.7094(2)
H21 H 0.9953 0.6894 0.7305
C28 C 1.0067(3) 0.4722(2) 0.5627(2)
H22 H 1.0849 0.4970 0.6024
H23 H 1.0394 0.3770 0.5642
Co1_2 Co 1.5000 0.5000 0.5000
P1A P 1.17275(7) 0.47005(6) 0.36103(5)
O1A O 0.55165(17) 0.58748(14) 0.35174(13)
O2A O 0.62702(17) 0.32785(14) 0.44426(13)
O3A O 1.29857(19) 0.48750(16) 0.42230(15)
O3A_2 O 0.29857(19) 0.48750(16) 0.42230(15)
C1A C 0.6127(2) 0.5330(2) 0.26171(18)
C2A C 0.6097(2) 0.62101(19) 0.15645(19)
C3A C 0.5882(2) 0.7512(2) 0.17066(19)
H1A H 0.5814 0.7807 0.2462
C4A C 0.5769(3) 0.8371(2) 0.0753(2)
H2A H 0.5639 0.9250 0.0857
C5A C 0.5844(2) 0.7954(2) -0.0352(2)
H3A H 0.5751 0.8549 -0.1004
C6A C 0.6053(2) 0.6666(2) -0.0505(2)
H4A H 0.6099 0.6379 -0.1262
C7A C 0.6195(2) 0.5801(2) 0.04475(19)
H5A H 0.6361 0.4917 0.0338
C8A C 0.6783(2) 0.3992(2) 0.25399(19)
H6A H 0.7253 0.3700 0.1829
C9A C 0.6794(2) 0.3056(2) 0.34323(18)
C10A C 0.7469(2) 0.1657(2) 0.31965(19)
C11A C 0.7531(2) 0.1225(2) 0.2094(2)
H7A H 0.7147 0.1826 0.1458
C12A C 0.8152(3) -0.0081(2) 0.1913(2)
H8A H 0.8197 -0.0366 0.1155
C13A C 0.8703(3) -0.0964(2) 0.2842(2)
H9A H 0.9128 -0.1855 0.2721
C14A C 0.8633(3) -0.0545(2) 0.3944(2)
H10A H 0.9007 -0.1149 0.4581
C15A C 0.8015(2) 0.0759(2) 0.4121(2)
H11A H 0.7965 0.1041 0.4881
C16A C 1.1372(2) 0.5662(2) 0.2262(2)
C17A C 1.0195(3) 0.5702(2) 0.1521(2)
H12A H 0.9599 0.5151 0.1689
C18A C 0.9897(3) 0.6540(2) 0.0547(2)
H13A H 0.9096 0.6565 0.0046
C19A C 1.0763(3) 0.7346(2) 0.0299(2)
H14A H 1.0552 0.7923 -0.0372
C20A C 1.1940(3) 0.7314(2) 0.1025(2)
H15A H 1.2538 0.7861 0.0848
C21A C 1.2237(2) 0.6479(2) 0.2009(2)
H16A H 1.3031 0.6463 0.2512
C22A C 1.2084(2) 0.3016(2) 0.33828(19)
C23A C 1.3499(3) 0.2165(2) 0.3714(2)
H17A H 1.4215 0.2475 0.4061
C24A C 1.3867(3) 0.0852(2) 0.3535(2)
H18A H 1.4839 0.0276 0.3747
C25A C 1.2818(3) 0.0398(2) 0.3050(2)
H19A H 1.3070 -0.0492 0.2927
C26A C 1.1397(3) 0.1236(2) 0.2742(2)
H20A H 1.0675 0.0915 0.2416
C27A C 1.1024(3) 0.2537(2) 0.2906(2)
H21A H 1.0047 0.3106 0.2695
C28A C 0.9933(3) 0.5278(2) 0.4373(2)
H22A H 0.9151 0.5030 0.3976
H23A H 0.9606 0.6230 0.4358
loop_
_geom_bond_atom_site_label_1
_geom_bond_atom_site_label_2
_geom_bond_site_symmetry_1
_geom_bond_site_symmetry_2
Co1 O1 1_555 1_555
P1 O3 1_555 1_555
O1 C1 1_555 1_555
O2 Co1 1_555 1_555
O3 Co1 1_555 1_555
C1 C2 1_555 1_555
C2 C3 1_555 1_555
C3 H1 1_555 1_555
C4 C3 1_555 1_555
H2 C4 1_555 1_555
C5 C4 1_555 1_555
H3 C5 1_555 1_555
C6 C5 1_555 1_555
H4 C6 1_555 1_555
C7 C2 1_555 1_555
H5 C7 1_555 1_555
C8 C1 1_555 1_555
H6 C8 1_555 1_555
C9 O2 1_555 1_555
C10 C9 1_555 1_555
C11 C10 1_555 1_555
H7 C11 1_555 1_555
C12 C11 1_555 1_555
H8 C12 1_555 1_555
C13 C12 1_555 1_555
H9 C13 1_555 1_555
C14 C13 1_555 1_555
H10 C14 1_555 1_555
C15 C10 1_555 1_555
H11 C15 1_555 1_555
C16 P1 1_555 1_555
C17 C16 1_555 1_555
H12 C17 1_555 1_555
C18 C17 1_555 1_555
H13 C18 1_555 1_555
C19 C18 1_555 1_555
H14 C19 1_555 1_555
C20 C19 1_555 1_555
H15 C20 1_555 1_555
C21 C16 1_555 1_555
H16 C21 1_555 1_555
C22 P1 1_555 1_555
C23 C22 1_555 1_555
H17 C23 1_555 1_555
C24 C23 1_555 1_555
H18 C24 1_555 1_555
C25 C24 1_555 1_555
H19 C25 1_555 1_555
C26 C25 1_555 1_555
H20 C26 1_555 1_555
C27 C22 1_555 1_555
H21 C27 1_555 1_555
C28 P1 1_555 1_555
H22 C28 1_555 1_555
H23 C28 1_555 1_555
Co1_2 O3A 1_555 1_555
P1A O3A 1_555 1_555
O1A Co1 1_555 1_555
O2A Co1 1_555 1_555
O3A_2 Co1 1_555 1_555
C1A O1A 1_555 1_555
C2A C1A 1_555 1_555
C3A C2A 1_555 1_555
H1A C3A 1_555 1_555
C4A C3A 1_555 1_555
H2A C4A 1_555 1_555
C5A C4A 1_555 1_555
H3A C5A 1_555 1_555
C6A C5A 1_555 1_555
H4A C6A 1_555 1_555
C7A C2A 1_555 1_555
H5A C7A 1_555 1_555
C8A C1A 1_555 1_555
H6A C8A 1_555 1_555
C9A O2A 1_555 1_555
C10A C9A 1_555 1_555
C11A C10A 1_555 1_555
H7A C11A 1_555 1_555
C12A C11A 1_555 1_555
H8A C12A 1_555 1_555
C13A C12A 1_555 1_555
H9A C13A 1_555 1_555
C14A C13A 1_555 1_555
H10A C14A 1_555 1_555
C15A C10A 1_555 1_555
H11A C15A 1_555 1_555
C16A P1A 1_555 1_555
C17A C16A 1_555 1_555
H12A C17A 1_555 1_555
C18A C17A 1_555 1_555
H13A C18A 1_555 1_555
C19A C18A 1_555 1_555
H14A C19A 1_555 1_555
C20A C19A 1_555 1_555
H15A C20A 1_555 1_555
C21A C16A 1_555 1_555
H16A C21A 1_555 1_555
C22A P1A 1_555 1_555
C23A C22A 1_555 1_555
H17A C23A 1_555 1_555
C24A C23A 1_555 1_555
H18A C24A 1_555 1_555
C25A C24A 1_555 1_555
H19A C25A 1_555 1_555
C26A C25A 1_555 1_555
H20A C26A 1_555 1_555
C27A C22A 1_555 1_555
H21A C27A 1_555 1_555
C28A C28 1_555 1_555
H22A C28A 1_555 1_555
H23A C28A 1_555 1_555
C6 C7 1_555 1_555
C8 C9 1_555 1_555
C14 C15 1_555 1_555
C20 C21 1_555 1_555
C26 C27 1_555 1_555
P1A C28A 1_555 1_555
C6A C7A 1_555 1_555
C8A C9A 1_555 1_555
C14A C15A 1_555 1_555
C20A C21A 1_555 1_555
C26A C27A 1_555 1_555

#END
