
#######################################################################
#
#                 Cambridge Crystallographic Data Centre
#                                CCDC 
#
#######################################################################
#
# If this CIF has been generated from an entry in the Cambridge 
# Structural Database, then it will include bibliographic, chemical, 
# crystal, experimental, refinement or atomic coordinate data resulting 
# from the CCDC's data processing and validation procedures.
#
#######################################################################

data_LICXUS
_symmetry_cell_setting           monoclinic
_symmetry_space_group_name_H-M   'P 21/n'
_symmetry_Int_Tables_number      14
_space_group_name_Hall           '-P 2yn'
loop_
_symmetry_equiv_pos_site_id
_symmetry_equiv_pos_as_xyz
1 x,y,z
2 1/2-x,1/2+y,1/2-z
3 -x,-y,-z
4 1/2+x,1/2-y,1/2+z
_cell_length_a                   12.6977(19)
_cell_length_b                   12.4160(19)
_cell_length_c                   15.290(2)
_cell_angle_alpha                90
_cell_angle_beta                 105.127(3)
_cell_angle_gamma                90
_cell_volume                     2327.01
loop_
_atom_site_label
_atom_site_type_symbol
_atom_site_fract_x
_atom_site_fract_y
_atom_site_fract_z
O1 O 0.8739(4) 0.5878(4) 1.3687(3)
O2 O 1.0391(4) 0.7128(4) 1.4047(3)
O3 O 0.9528(4) 0.8378(4) 1.3070(3)
O4 O 0.7697(4) 0.7091(4) 1.2773(4)
C1 C 0.8561(5) 0.6785(5) 1.3264(5)
C2 C 0.9577(5) 0.7527(5) 1.3466(4)
O5 O 1.1739(4) 1.0189(6) 1.0795(4)
O6 O 1.3138(4) 1.0100(5) 1.2529(3)
O7 O 1.3208(4) 1.0484(4) 1.0285(3)
O8 O 1.4507(4) 1.0294(4) 1.1865(3)
C3 C 1.3515(6) 1.0224(5) 1.1865(5)
C4 C 1.2715(6) 1.0301(6) 1.0909(5)
Al1 Al 0.54708(17) 0.90295(19) 1.47852(14)
O9 O 0.5301(4) 0.8213(4) 1.3688(3)
O10 O 0.6615(4) 0.9719(4) 1.4393(3)
O11 O 0.5810(4) 0.8251(4) 1.2391(3)
O12 O 0.7356(5) 0.9801(5) 1.3226(4)
C5 C 0.9927(6) 0.7630(6) 1.0753(5)
C6 C 1.1187(6) 0.7531(6) 1.1006(5)
O13 O 1.1553(4) 0.6903(4) 1.0502(4)
O14 O 0.9470(5) 0.6947(5) 1.0147(4)
O15 O 1.1741(5) 0.8031(5) 1.1654(4)
O16 O 0.9489(4) 0.8287(4) 1.1136(4)
C7 C 0.5875(6) 0.8564(6) 1.3161(5)
C8 C 0.6703(6) 0.9440(6) 1.3612(5)
O17 O 0.4400(4) 0.9998(4) 1.4278(3)
H1 H 0.396(7) 1.016(9) 1.381(4)
Ba1 Ba 0.75256(3) 0.89294(4) 1.16152(3)
Ba2 Ba 1.09675(3) 0.97286(3) 1.24101(3)
O18 O 1.1295(5) 1.1906(5) 1.2344(5)
O19 O 0.9117(7) 1.0571(6) 1.0962(6)
O20 O 0.9170(6) 1.0696(7) 1.2809(7)
O21 O 0.7127(11) 0.7006(7) 1.0718(6)
O22 O 1.2274(6) 0.8167(8) 1.3699(6)
Al2 Al 1.02317(15) 0.56137(16) 1.42832(13)
O23 O 1.1407(7) 1.0252(12) 1.4233(6)
O24 O 0.9864(4) 0.4207(4) 1.4535(3)
H2 H 1.025(6) 0.373(5) 1.443(6)
O1A O 0.6261(4) 1.0878(4) 1.1313(3)
O7A O 1.1792(4) 0.5484(4) 1.4715(3)
O7B O 0.6792(4) 0.9516(4) 0.9715(3)
O8A O 1.0493(4) 0.5294(4) 1.3135(3)
Al1B Al 0.45292(17) 1.09705(19) 1.52148(14)
Al1C Al 1.04708(17) 0.59705(19) 0.97852(14)
O13C O 0.6553(4) 0.8097(4) 1.5502(4)
O14C O 0.4470(5) 0.8053(5) 1.5147(4)
O17B O 0.5600(4) 1.0002(4) 1.5722(3)
Ba1A Ba 0.74744(3) 0.39294(4) 1.33848(3)
Ba1B Ba 1.24744(3) 1.10706(4) 0.83848(3)
Al2A Al 1.47683(15) 1.06137(16) 1.07168(13)
Al2B Al 0.97683(15) 0.43863(16) 1.57168(13)
O24A O 0.5136(4) 0.9207(4) 1.0465(3)
O24B O 1.0136(4) 0.5793(4) 1.5465(3)
O25 O 0.3888(6) 0.7587(6) 1.0880(6)
loop_
_geom_bond_atom_site_label_1
_geom_bond_atom_site_label_2
_geom_bond_site_symmetry_1
_geom_bond_site_symmetry_2
O1 C1 1_555 1_555
O2 C2 1_555 1_555
O3 C2 1_555 1_555
O4 C1 1_555 1_555
C1 C2 1_555 1_555
O5 C4 1_555 1_555
O6 C3 1_555 1_555
O7 C4 1_555 1_555
O8 C3 1_555 1_555
C3 C4 1_555 1_555
Al1 O9 1_555 1_555
O9 C7 1_555 1_555
O10 Al1 1_555 1_555
O11 C7 1_555 1_555
O12 C8 1_555 1_555
C5 C6 1_555 1_555
C6 O13 1_555 1_555
O13 Al1C 1_555 1_555
O14 C5 1_555 1_555
O15 C6 1_555 1_555
O16 C5 1_555 1_555
C7 C8 1_555 1_555
C8 O10 1_555 1_555
O17 Al1 1_555 1_555
H1 O17 1_555 1_555
Ba1 O3 1_555 1_555
Ba2 O3 1_555 1_555
O18 Ba2 1_555 1_555
O19 Ba1 1_555 1_555
O20 Ba2 1_555 1_555
O21 Ba1 1_555 1_555
O22 Ba2 1_555 1_555
Al2 O1 1_555 1_555
O23 Ba2 1_555 1_555
O24 Al2 1_555 1_555
H2 O24 1_555 1_555
O1A Ba1 1_555 1_555
O7A Al2 1_555 1_555
O7B Ba1 1_555 1_555
O8A Al2 1_555 1_555
Al1B O17 1_555 1_555
Al1C O14 1_555 1_555
O13C Al1 1_555 1_555
O14C Al1 1_555 1_555
O17B Al1 1_555 1_555
Ba1A O1 1_555 1_555
Ba1B O7 1_555 1_555
Al2A O7 1_555 1_555
Al2B O24 1_555 1_555
O24A Ba1 1_555 1_555
O24B Al2 1_555 1_555
O2 Al2 1_555 1_555
O4 Ba1 1_555 1_555
O5 Ba2 1_555 1_555
O6 Ba2 1_555 1_555
O8 Al2A 1_555 1_555
O11 Ba1 1_555 1_555
O12 Ba1 1_555 1_555
O15 Ba2 1_555 1_555
O16 Ba1 1_555 1_555
O16 Ba2 1_555 1_555
Ba2 O19 1_555 1_555
O24 Ba1A 1_555 1_555
Al1B O17B 1_555 1_555
Al2B O24B 1_555 1_555

#END
