
#######################################################################
#
#                 Cambridge Crystallographic Data Centre
#                                CCDC 
#
#######################################################################
#
# If this CIF has been generated from an entry in the Cambridge 
# Structural Database, then it will include bibliographic, chemical, 
# crystal, experimental, refinement or atomic coordinate data resulting 
# from the CCDC's data processing and validation procedures.
#
#######################################################################

data_LICXEB
_symmetry_cell_setting           triclinic
_symmetry_space_group_name_H-M   'P -1'
_symmetry_Int_Tables_number      2
_space_group_name_Hall           '-P 1'
loop_
_symmetry_equiv_pos_site_id
_symmetry_equiv_pos_as_xyz
1 x,y,z
2 -x,-y,-z
_cell_length_a                   8.1940(5)
_cell_length_b                   12.3523(8)
_cell_length_c                   12.3523(8)
_cell_angle_alpha                108.909(2)
_cell_angle_beta                 109.258(3)
_cell_angle_gamma                89.216(3)
_cell_volume                     1110.48
loop_
_atom_site_label
_atom_site_type_symbol
_atom_site_fract_x
_atom_site_fract_y
_atom_site_fract_z
Ni1 Ni 0.0000 0.0000 0.0000
Ni2 Ni 0.0000 0.5000 0.5000
N1 N 0.2457(6) 0.0408(4) -0.0380(4)
S1 S 0.27129(19) -0.07634(13) -0.14396(14)
S2 S 0.46159(19) 0.00806(13) -0.17369(14)
N2 N 0.4715(6) 0.1307(4) -0.0665(4)
C1 C 0.3557(7) 0.1325(5) -0.0124(5)
C2 C 0.3624(7) 0.2406(5) 0.0840(5)
O1 O 0.2476(4) 0.2459(3) 0.1433(3)
C3 C 0.2822(7) 0.3542(5) 0.2285(5)
C4 C 0.4144(8) 0.4144(6) 0.2250(6)
H1 H 0.4623 0.4911 0.2747
C5 C 0.4676(8) 0.3394(5) 0.1313(6)
H2 H 0.5600 0.3558 0.1066
C6 C 0.1749(8) 0.3822(5) 0.3015(6)
N3 N 0.0932(6) 0.4109(4) 0.3625(4)
O2 O 0.0863(5) -0.1533(3) -0.0042(3)
C7 C 0.1456(7) -0.1843(5) 0.0883(6)
C8 C 0.1903(7) -0.1175(5) 0.2106(5)
H3 H 0.2430 -0.1513 0.2711
C9 C 0.1594(7) -0.0023(5) 0.2466(5)
O3 O 0.1039(5) 0.0595(3) 0.1814(3)
C10 C 0.1590(8) -0.3147(5) 0.0564(6)
C11 C 0.1813(8) 0.0578(6) 0.3809(6)
F1 F 0.2758(6) -0.3417(3) 0.1429(4)
F2 F 0.0069(5) -0.3662(3) 0.0405(4)
F3 F 0.1891(5) -0.3617(3) -0.0459(4)
F4 F 0.0368(5) 0.0320(4) 0.4001(3)
F5 F 0.3113(5) 0.0235(3) 0.4551(3)
F6 F 0.2056(5) 0.1719(3) 0.4148(3)
O4 O 0.1560(5) 0.4221(3) 0.6112(4)
C12 C 0.0993(8) 0.3477(5) 0.6413(5)
C13 C -0.0708(7) 0.2969(5) 0.6027(5)
H4 H -0.0958 0.2467 0.6407
C14 C -0.2044(7) 0.3182(5) 0.5100(5)
O5 O -0.1979(5) 0.3803(3) 0.4481(4)
C15 C 0.2383(8) 0.3095(6) 0.7374(6)
C16 C -0.3871(8) 0.2687(6) 0.4803(6)
F7 F 0.3170(6) 0.3989(4) 0.8364(4)
F8 F 0.1768(5) 0.2347(4) 0.7736(4)
F9 F 0.3605(5) 0.2637(4) 0.6949(4)
F10 F -0.3978(5) 0.1958(4) 0.5391(4)
F11 F -0.4877(4) 0.3511(3) 0.5080(3)
F12 F -0.4617(4) 0.2084(3) 0.3606(3)
Ni2_2 Ni 0.0000 -0.5000 -0.5000
N1A N -0.2457(6) -0.0408(4) 0.0380(4)
S1A S -0.27129(19) 0.07634(13) 0.14396(14)
S2A S -0.46159(19) -0.00806(13) 0.17369(14)
N2A N -0.4715(6) -0.1307(4) 0.0665(4)
C1A C -0.3557(7) -0.1325(5) 0.0124(5)
C2A C -0.3624(7) -0.2406(5) -0.0840(5)
O1A O -0.2476(4) -0.2459(3) -0.1433(3)
C3A C -0.2822(7) -0.3542(5) -0.2285(5)
C4A C -0.4144(8) -0.4144(6) -0.2250(6)
H1A H -0.4623 -0.4911 -0.2747
C5A C -0.4676(8) -0.3394(5) -0.1313(6)
H2A H -0.5600 -0.3558 -0.1066
C6A C -0.1749(8) -0.3822(5) -0.3015(6)
N3A N -0.0932(6) -0.4109(4) -0.3625(4)
N3A_2 N -0.0932(6) 0.5891(4) 0.6375(4)
O2A O -0.0863(5) 0.1533(3) 0.0042(3)
C7A C -0.1456(7) 0.1843(5) -0.0883(6)
C8A C -0.1903(7) 0.1175(5) -0.2106(5)
H3A H -0.2430 0.1513 -0.2711
C9A C -0.1594(7) 0.0023(5) -0.2466(5)
O3A O -0.1039(5) -0.0595(3) -0.1814(3)
C10A C -0.1590(8) 0.3147(5) -0.0564(6)
C11A C -0.1813(8) -0.0578(6) -0.3809(6)
F1A F -0.2758(6) 0.3417(3) -0.1429(4)
F2A F -0.0069(5) 0.3662(3) -0.0405(4)
F3A F -0.1891(5) 0.3617(3) 0.0459(4)
F4A F -0.0368(5) -0.0320(4) -0.4001(3)
F5A F -0.3113(5) -0.0235(3) -0.4551(3)
F6A F -0.2056(5) -0.1719(3) -0.4148(3)
O4A O -0.1560(5) 0.5779(3) 0.3888(4)
C12A C -0.0993(8) 0.6523(5) 0.3587(5)
C13A C 0.0708(7) 0.7031(5) 0.3973(5)
H4A H 0.0958 0.7533 0.3593
C14A C 0.2044(7) 0.6818(5) 0.4900(5)
O5A O 0.1979(5) 0.6197(3) 0.5519(4)
C15A C -0.2383(8) 0.6905(6) 0.2626(6)
C16A C 0.3871(8) 0.7313(6) 0.5197(6)
F7A F -0.3170(6) 0.6011(4) 0.1636(4)
F8A F -0.1768(5) 0.7653(4) 0.2264(4)
F9A F -0.3605(5) 0.7363(4) 0.3051(4)
F10A F 0.3978(5) 0.8042(4) 0.4609(4)
F11A F 0.4877(4) 0.6489(3) 0.4920(3)
F12A F 0.4617(4) 0.7916(3) 0.6394(3)
loop_
_geom_bond_atom_site_label_1
_geom_bond_atom_site_label_2
_geom_bond_site_symmetry_1
_geom_bond_site_symmetry_2
Ni1 N1 1_555 1_555
Ni2 N3 1_555 1_555
N1 S1 1_555 1_555
S1 S2 1_555 1_555
S2 N2 1_555 1_555
N2 C1 1_555 1_555
C1 N1 1_555 1_555
C2 C1 1_555 1_555
O1 C2 1_555 1_555
C3 O1 1_555 1_555
C4 C3 1_555 1_555
H1 C4 1_555 1_555
C5 C2 1_555 1_555
H2 C5 1_555 1_555
C6 C3 1_555 1_555
N3 C6 1_555 1_555
O2 Ni1 1_555 1_555
C7 O2 1_555 1_555
C8 C7 1_555 1_555
H3 C8 1_555 1_555
C9 C8 1_555 1_555
O3 Ni1 1_555 1_555
C10 C7 1_555 1_555
C11 C9 1_555 1_555
F1 C10 1_555 1_555
F2 C10 1_555 1_555
F3 C10 1_555 1_555
F4 C11 1_555 1_555
F5 C11 1_555 1_555
F6 C11 1_555 1_555
O4 Ni2 1_555 1_555
C12 O4 1_555 1_555
C13 C12 1_555 1_555
H4 C13 1_555 1_555
C14 C13 1_555 1_555
O5 Ni2 1_555 1_555
C15 C12 1_555 1_555
C16 C14 1_555 1_555
F7 C15 1_555 1_555
F8 C15 1_555 1_555
F9 C15 1_555 1_555
F10 C16 1_555 1_555
F11 C16 1_555 1_555
F12 C16 1_555 1_555
Ni2_2 N3A 1_555 1_555
N1A Ni1 1_555 1_555
S1A N1A 1_555 1_555
S2A S1A 1_555 1_555
N2A S2A 1_555 1_555
C1A N1A 1_555 1_555
C2A C1A 1_555 1_555
O1A C2A 1_555 1_555
C3A O1A 1_555 1_555
C4A C3A 1_555 1_555
H1A C4A 1_555 1_555
C5A C2A 1_555 1_555
H2A C5A 1_555 1_555
C6A C3A 1_555 1_555
N3A C6A 1_555 1_555
N3A_2 Ni2 1_555 1_555
O2A Ni1 1_555 1_555
C7A O2A 1_555 1_555
C8A C7A 1_555 1_555
H3A C8A 1_555 1_555
C9A C8A 1_555 1_555
O3A Ni1 1_555 1_555
C10A C7A 1_555 1_555
C11A C9A 1_555 1_555
F1A C10A 1_555 1_555
F2A C10A 1_555 1_555
F3A C10A 1_555 1_555
F4A C11A 1_555 1_555
F5A C11A 1_555 1_555
F6A C11A 1_555 1_555
O4A Ni2 1_555 1_555
C12A O4A 1_555 1_555
C13A C12A 1_555 1_555
H4A C13A 1_555 1_555
C14A C13A 1_555 1_555
O5A Ni2 1_555 1_555
C15A C12A 1_555 1_555
C16A C14A 1_555 1_555
F7A C15A 1_555 1_555
F8A C15A 1_555 1_555
F9A C15A 1_555 1_555
F10A C16A 1_555 1_555
F11A C16A 1_555 1_555
F12A C16A 1_555 1_555
C4 C5 1_555 1_555
C9 O3 1_555 1_555
C14 O5 1_555 1_555
N2A C1A 1_555 1_555
C4A C5A 1_555 1_555
C9A O3A 1_555 1_555
C14A O5A 1_555 1_555

#END
