
#######################################################################
#
#                 Cambridge Crystallographic Data Centre
#                                CCDC 
#
#######################################################################
#
# If this CIF has been generated from an entry in the Cambridge 
# Structural Database, then it will include bibliographic, chemical, 
# crystal, experimental, refinement or atomic coordinate data resulting 
# from the CCDC's data processing and validation procedures.
#
#######################################################################

data_LIDDOS
_symmetry_cell_setting           monoclinic
_symmetry_space_group_name_H-M   'P 21/c'
_symmetry_Int_Tables_number      14
_space_group_name_Hall           '-P 2ybc'
loop_
_symmetry_equiv_pos_site_id
_symmetry_equiv_pos_as_xyz
1 x,y,z
2 -x,1/2+y,1/2-z
3 -x,-y,-z
4 x,1/2-y,1/2+z
_cell_length_a                   9.599(3)
_cell_length_b                   18.699(5)
_cell_length_c                   7.557(2)
_cell_angle_alpha                90
_cell_angle_beta                 108.198(4)
_cell_angle_gamma                90
_cell_volume                     1288.57
loop_
_atom_site_label
_atom_site_type_symbol
_atom_site_fract_x
_atom_site_fract_y
_atom_site_fract_z
C1 C 0.2847(8) 0.3881(3) 0.2344(9)
C2 C 0.2634(7) 0.3102(3) 0.2283(8)
C3 C 0.1249(7) 0.2826(3) 0.1972(9)
H1 H 0.0466 0.3138 0.1828
C4 C 0.1007(7) 0.2098(3) 0.1853(10)
C5 C 0.2166(6) 0.1631(3) 0.2089(9)
H2 H 0.2001 0.1140 0.2006
C6 C 0.3562(7) 0.1896(3) 0.2428(8)
C7 C 0.3816(7) 0.2634(3) 0.2523(8)
H3 H 0.4761 0.2810 0.2745
C8 C 0.4800(6) 0.1383(3) 0.2640(8)
Cd1 Cd 0.69239(5) 0.03475(2) 0.30199(7)
O3 O 0.6086(4) 0.1614(2) 0.3064(5)
O4 O 0.4528(5) 0.0717(2) 0.2445(5)
O5 O -0.0375(5) 0.1815(2) 0.1489(5)
H8 H -0.0955 0.2129 0.1548
O6 O 0.1771(4) 0.4294(2) 0.2048(5)
O7 O 0.4119(4) 0.41298(19) 0.2579(5)
O8 O 0.6843(5) 0.0596(2) 0.0059(6)
H9 H 0.7448 0.0326 -0.0239
H10 H 0.5982 0.0517 -0.0668
O9 O 0.7115(4) 0.0170(2) 0.6018(5)
H11 H 0.7376 0.0559 0.6613
H12 H 0.6293 0.0038 0.6109
O10 O 0.9234(5) 0.0824(2) 0.3963(5)
H13 H 0.9501 0.0815 0.5146
H14 H 0.9500 0.1240 0.3672
Cd1A Cd 0.30761(5) 0.53475(2) 0.19801(7)
O6A O 0.8229(4) -0.0706(2) 0.2952(5)
O7A O 0.5881(4) -0.08702(19) 0.2421(5)
O1 O 0.9558(5) 0.0583(2) 0.8743(5)
H4 H 1.0341 0.0794 0.9372
H5 H 0.9750 0.0295 0.7982
O2 O 0.7511(5) 0.23183(19) 0.6496(5)
H6 H 0.8094 0.2671 0.6805
H7 H 0.6777 0.2388 0.6876
loop_
_geom_bond_atom_site_label_1
_geom_bond_atom_site_label_2
_geom_bond_site_symmetry_1
_geom_bond_site_symmetry_2
C1 C2 1_555 1_555
C2 C3 1_555 1_555
C3 H1 1_555 1_555
C4 C3 1_555 1_555
C5 C4 1_555 1_555
H2 C5 1_555 1_555
C6 C5 1_555 1_555
C7 C2 1_555 1_555
H3 C7 1_555 1_555
C8 C6 1_555 1_555
Cd1 O3 1_555 1_555
O1 H4 1_555 1_555
H5 O1 1_555 1_555
O2 H6 1_555 1_555
H7 O2 1_555 1_555
O3 C8 1_555 1_555
O4 C8 1_555 1_555
O5 C4 1_555 1_555
H8 O5 1_555 1_555
O6 C1 1_555 1_555
O7 C1 1_555 1_555
O8 Cd1 1_555 1_555
H9 O8 1_555 1_555
H10 O8 1_555 1_555
O9 Cd1 1_555 1_555
H11 O9 1_555 1_555
H12 O9 1_555 1_555
O10 Cd1 1_555 1_555
H13 O10 1_555 1_555
H14 O10 1_555 1_555
Cd1A O6 1_555 1_555
O6A Cd1 1_555 1_555
O7A Cd1 1_555 1_555
C6 C7 1_555 1_555
Cd1 O4 1_555 1_555
O7 Cd1A 1_555 1_555

#END
