
#######################################################################
#
#                 Cambridge Crystallographic Data Centre
#                                CCDC 
#
#######################################################################
#
# If this CIF has been generated from an entry in the Cambridge 
# Structural Database, then it will include bibliographic, chemical, 
# crystal, experimental, refinement or atomic coordinate data resulting 
# from the CCDC's data processing and validation procedures.
#
#######################################################################

data_LIDHOX
_symmetry_cell_setting           monoclinic
_symmetry_space_group_name_H-M   'C 2'
_symmetry_Int_Tables_number      5
_space_group_name_Hall           'C 2y'
loop_
_symmetry_equiv_pos_site_id
_symmetry_equiv_pos_as_xyz
1 x,y,z
2 -x,y,-z
3 1/2+x,1/2+y,z
4 1/2-x,1/2+y,-z
_cell_length_a                   19.028(3)
_cell_length_b                   12.8531(17)
_cell_length_c                   13.5044(18)
_cell_angle_alpha                90
_cell_angle_beta                 105.871(2)
_cell_angle_gamma                90
_cell_volume                     3176.85
loop_
_atom_site_label
_atom_site_type_symbol
_atom_site_fract_x
_atom_site_fract_y
_atom_site_fract_z
Co1 Co 0.17490(6) 0.52834(7) 0.72164(9)
Co2 Co 0.32669(7) 0.47533(8) 0.77924(11)
O1 O 0.1320(3) 0.4909(7) 0.5692(5)
O2 O 0.2497(4) 0.4561(6) 0.6171(5)
O3 O 0.2167(4) 0.8420(7) 1.1927(5)
O4 O 0.3342(4) 0.8808(6) 1.2338(5)
O5 O 0.3660(3) 0.5111(7) 0.9290(5)
O6 O 0.2503(3) 0.5480(6) 0.8812(4)
O7 O 0.2793(4) 0.1654(6) 0.2998(5)
O8 O 0.1614(4) 0.1180(6) 0.2689(5)
N1 N 0.4049(5) 0.4090(9) 0.7162(7)
N2 N 0.5000 0.2878(10) 0.5000
H1 H 0.5000 0.2185(19) 0.5000
N3 N 0.0944(4) 0.5933(7) 0.7799(5)
N4 N 0.0000 0.7199(12) 1.0000
H2 H 0.0000 0.789(2) 1.0000
C1 C 0.1929(5) 0.4627(8) 0.5501(6)
C2 C 0.2139(6) 0.1878(9) 0.2957(7)
C3 C 0.2830(8) 0.8230(10) 1.2065(7)
C4 C 0.2266(12) 0.6338(9) 1.144(2)
H3 H 0.2185 0.5979 1.2044
H4 H 0.1847 0.6815 1.1175
C5 C 0.3043(10) 0.6831(8) 1.0784(7)
C6 C 0.3969(7) 0.3074(10) 0.6911(9)
H5 H 0.3676 0.2633 0.7199
C7 C 0.4325(5) 0.2692(11) 0.6224(8)
H6 H 0.4289 0.1965 0.6091
C8 C 0.4726(5) 0.3259(9) 0.5716(8)
C9 C 0.4867(5) 0.4353(9) 0.6083(9)
H7 H 0.5197 0.4802 0.5876
C10 C 0.4472(5) 0.4650(10) 0.6752(8)
H8 H 0.4513 0.5363 0.6944
C11 C 0.3118(6) 0.5504(9) 0.9516(9)
C12 C 0.3140(7) 0.5774(9) 1.0581(7)
C13 C 0.3521(6) 0.4978(8) 1.1379(8)
H9 H 0.3464 0.4284 1.1067
H10 H 0.3303 0.4988 1.1958
H11 H 0.4042 0.5148 1.1627
C14 C 0.2235(5) 0.5623(8) 1.0717(7)
H12 H 0.1857 0.5785 1.0070
H13 H 0.2152 0.4917 1.0955
C15 C 0.2731(7) 0.7604(9) 0.9954(9)
H14 H 0.2777 0.8305 1.0249
H15 H 0.2214 0.7446 0.9640
H16 H 0.2997 0.7567 0.9428
C16 C 0.1887(6) 0.4306(9) 0.4417(8)
H17 H 0.1471 0.4701 0.3956
C17 C 0.1738(5) 0.3110(9) 0.4156(8)
C18 C 0.2223(5) 0.2435(8) 0.5008(6)
H18 H 0.2737 0.2597 0.5079
H19 H 0.2132 0.1698 0.4829
H20 H 0.2109 0.2576 0.5660
C19 C 0.0985(5) 0.6913(9) 0.8086(7)
H21 H 0.1252 0.7357 0.7759
C20 C 0.0692(5) 0.7379(8) 0.8799(7)
H22 H 0.0749 0.8097 0.8970
C21 C 0.0290(5) 0.6670(10) 0.9257(7)
C22 C 0.0206(5) 0.5712(10) 0.8927(7)
H23 H -0.0100 0.5268 0.9189
C23 C 0.0532(5) 0.5309(11) 0.8226(6)
H24 H 0.0471 0.4596 0.8040
C24 C 0.3036(8) 0.7096(8) 1.1862(7)
H25 H 0.3439 0.6779 1.2417
C25 C 0.1397(7) 0.3439(11) 0.2255(10)
H26 H 0.0949 0.3025 0.2143
H27 H 0.1584 0.3386 0.1649
H28 H 0.1289 0.4168 0.2366
C26 C 0.0954(5) 0.2835(8) 0.4098(7)
H29 H 0.0625 0.3223 0.3534
H30 H 0.0852 0.3016 0.4749
H31 H 0.0879 0.2087 0.3972
C27 C 0.2743(6) 0.3691(10) 0.3370(8)
H32 H 0.3182 0.3289 0.3731
H33 H 0.2802 0.3978 0.2717
C28 C 0.2534(7) 0.4514(14) 0.4050(12)
H34 H 0.2957 0.4618 0.4659
H35 H 0.2453 0.5177 0.3663
C29 C 0.1978(5) 0.3023(10) 0.3211(8)
C30 C 0.4057(6) 0.6903(17) 1.1268(15)
H36 H 0.4202 0.7614 1.1495
H37 H 0.4275 0.6709 1.0715
H38 H 0.4227 0.6424 1.1848
N1A N 0.5951(5) 0.4090(9) 0.2838(7)
C6A C 0.6031(7) 0.3074(10) 0.3089(9)
H5A H 0.6324 0.2633 0.2801
C7A C 0.5675(5) 0.2692(11) 0.3776(8)
H6A H 0.5711 0.1965 0.3909
C8A C 0.5274(5) 0.3259(9) 0.4284(8)
C9A C 0.5133(5) 0.4353(9) 0.3917(9)
H7A H 0.4803 0.4802 0.4124
C10A C 0.5528(5) 0.4650(10) 0.3248(8)
H8A H 0.5487 0.5363 0.3056
N3A N -0.0944(4) 0.5933(7) 1.2201(5)
C19A C -0.0985(5) 0.6913(9) 1.1914(7)
H21A H -0.1252 0.7357 1.2241
C20A C -0.0692(5) 0.7379(8) 1.1201(7)
H22A H -0.0749 0.8097 1.1030
C21A C -0.0290(5) 0.6670(10) 1.0743(7)
C22A C -0.0206(5) 0.5712(10) 1.1073(7)
H23A H 0.0100 0.5268 1.0811
C23A C -0.0532(5) 0.5309(11) 1.1774(6)
H24A H -0.0471 0.4596 1.1960
Co1A Co -0.17490(6) 0.52834(7) 1.27836(9)
Co2A Co -0.32669(7) 0.47533(8) 1.22076(11)
O1A O -0.1320(3) 0.4909(7) 1.4308(5)
O2A O -0.2497(4) 0.4561(6) 1.3829(5)
O3A O -0.2167(4) 0.8420(7) 0.8073(5)
O4A O -0.3342(4) 0.8808(6) 0.7662(5)
O5A O -0.3660(3) 0.5111(7) 1.0710(5)
O6A O -0.2503(3) 0.5480(6) 1.1188(4)
O7A O -0.2793(4) 0.1654(6) 1.7002(5)
O8A O -0.1614(4) 0.1180(6) 1.7311(5)
C1A C -0.1929(5) 0.4627(8) 1.4499(6)
C2A C -0.2139(6) 0.1878(9) 1.7043(7)
C3A C -0.2830(8) 0.8230(10) 0.7935(7)
C4A C -0.2266(12) 0.6338(9) 0.856(2)
H3A H -0.2185 0.5979 0.7956
H4A H -0.1847 0.6815 0.8825
C5A C -0.3043(10) 0.6831(8) 0.9216(7)
C11A C -0.3118(6) 0.5504(9) 1.0484(9)
C12A C -0.3140(7) 0.5774(9) 0.9419(7)
C13A C -0.3521(6) 0.4978(8) 0.8621(8)
H9A H -0.3464 0.4284 0.8933
H10A H -0.3303 0.4988 0.8042
H11A H -0.4042 0.5148 0.8373
C14A C -0.2235(5) 0.5623(8) 0.9283(7)
H12A H -0.1857 0.5785 0.9930
H13A H -0.2152 0.4917 0.9045
C15A C -0.2731(7) 0.7604(9) 1.0046(9)
H14A H -0.2777 0.8305 0.9751
H15A H -0.2214 0.7446 1.0360
H16A H -0.2997 0.7567 1.0572
C16A C -0.1887(6) 0.4306(9) 1.5583(8)
H17A H -0.1471 0.4701 1.6044
C17A C -0.1738(5) 0.3110(9) 1.5844(8)
C18A C -0.2223(5) 0.2435(8) 1.4992(6)
H18A H -0.2737 0.2597 1.4921
H19A H -0.2132 0.1698 1.5171
H20A H -0.2109 0.2576 1.4340
C24A C -0.3036(8) 0.7096(8) 0.8138(7)
H25A H -0.3439 0.6779 0.7583
C25A C -0.1397(7) 0.3439(11) 1.7745(10)
H26A H -0.0949 0.3025 1.7857
H27A H -0.1584 0.3386 1.8351
H28A H -0.1289 0.4168 1.7634
C26A C -0.0954(5) 0.2835(8) 1.5902(7)
H29A H -0.0625 0.3223 1.6466
H30A H -0.0852 0.3016 1.5251
H31A H -0.0879 0.2087 1.6028
C27A C -0.2743(6) 0.3691(10) 1.6630(8)
H32A H -0.3182 0.3289 1.6269
H33A H -0.2802 0.3978 1.7283
C28A C -0.2534(7) 0.4514(14) 1.5950(12)
H34A H -0.2957 0.4618 1.5341
H35A H -0.2453 0.5177 1.6337
C29A C -0.1978(5) 0.3023(10) 1.6789(8)
C30A C -0.4057(6) 0.6903(17) 0.8732(15)
H36A H -0.4202 0.7614 0.8505
H37A H -0.4275 0.6709 0.9285
H38A H -0.4227 0.6424 0.8152
Co1B Co -0.32510(6) 0.02834(7) 1.72164(9)
Co1B_2 Co -0.32510(6) 1.02834(7) 0.72164(9)
Co1C Co 0.32510(6) 0.02834(7) 0.27836(9)
Co1C_2 Co 0.32510(6) 1.02834(7) 1.27836(9)
Co2A_2 Co 0.67331(7) 0.47533(8) 0.22076(11)
Co2B Co -0.17331(7) -0.02467(8) 1.77924(11)
Co2B_2 Co -0.17331(7) 0.97533(8) 0.77924(11)
Co2C Co 0.17331(7) -0.02467(8) 0.22076(11)
Co2C_2 Co 0.17331(7) 0.97533(8) 1.22076(11)
O3B O -0.2833(4) 0.3420(7) 1.1927(5)
O3C O 0.2833(4) 0.3420(7) 0.8073(5)
O4B O -0.1658(4) 0.3808(6) 1.2338(5)
O4C O 0.1658(4) 0.3808(6) 0.7662(5)
O7B O -0.2207(4) 0.6654(6) 1.2998(5)
O7C O 0.2207(4) 0.6654(6) 0.7002(5)
O8B O -0.3386(4) 0.6180(6) 1.2689(5)
O8C O 0.3386(4) 0.6180(6) 0.7311(5)
N1A_2 N -0.4049(5) 0.4090(9) 1.2838(7)
O9 O 0.0000 0.5818(11) 0.5000
H39 H -0.026(5) 0.545(3) 0.528(8)
H39A H 0.026(5) 0.545(3) 0.472(8)
O10 O 0.5000 0.4350(10) 1.0000
H40 H 0.4574 0.4606 0.9776
H40A H 0.5426 0.4606 1.0224
loop_
_geom_bond_atom_site_label_1
_geom_bond_atom_site_label_2
_geom_bond_site_symmetry_1
_geom_bond_site_symmetry_2
Co1 O1 1_555 1_555
Co2 O2 1_555 1_555
O1 C1 1_555 1_555
O2 Co1 1_555 1_555
O3 C3 1_555 1_555
O4 C3 1_555 1_555
O5 Co2 1_555 1_555
O6 Co1 1_555 1_555
O7 C2 1_555 1_555
O8 C2 1_555 1_555
N1 Co2 1_555 1_555
N2 H1 1_555 1_555
N3 Co1 1_555 1_555
N4 H2 1_555 1_555
C1 O2 1_555 1_555
C2 C29 1_555 1_555
C3 C24 1_555 1_555
C4 H3 1_555 1_555
H4 C4 1_555 1_555
C5 C12 1_555 1_555
C6 N1 1_555 1_555
H5 C6 1_555 1_555
C7 C6 1_555 1_555
H6 C7 1_555 1_555
C8 N2 1_555 1_555
C9 C8 1_555 1_555
H7 C9 1_555 1_555
C10 N1 1_555 1_555
H8 C10 1_555 1_555
C11 O5 1_555 1_555
C12 C11 1_555 1_555
C13 C12 1_555 1_555
H9 C13 1_555 1_555
H10 C13 1_555 1_555
H11 C13 1_555 1_555
C14 C4 1_555 1_555
H12 C14 1_555 1_555
H13 C14 1_555 1_555
C15 C5 1_555 1_555
H14 C15 1_555 1_555
H15 C15 1_555 1_555
H16 C15 1_555 1_555
C16 C1 1_555 1_555
H17 C16 1_555 1_555
C17 C16 1_555 1_555
C18 C17 1_555 1_555
H18 C18 1_555 1_555
H19 C18 1_555 1_555
H20 C18 1_555 1_555
C19 N3 1_555 1_555
H21 C19 1_555 1_555
C20 C19 1_555 1_555
H22 C20 1_555 1_555
C21 N4 1_555 1_555
C22 C21 1_555 1_555
H23 C22 1_555 1_555
C23 N3 1_555 1_555
H24 C23 1_555 1_555
C24 C4 1_555 1_555
H25 C24 1_555 1_555
C25 H26 1_555 1_555
H27 C25 1_555 1_555
H28 C25 1_555 1_555
C26 C17 1_555 1_555
H29 C26 1_555 1_555
H30 C26 1_555 1_555
H31 C26 1_555 1_555
C27 H32 1_555 1_555
H33 C27 1_555 1_555
C28 C16 1_555 1_555
H34 C28 1_555 1_555
H35 C28 1_555 1_555
C29 C17 1_555 1_555
C30 C5 1_555 1_555
H36 C30 1_555 1_555
H37 C30 1_555 1_555
H38 C30 1_555 1_555
O9 H39 1_555 1_555
O10 H40 1_555 1_555
N1A C6A 1_555 1_555
C6A H5A 1_555 1_555
C7A C6A 1_555 1_555
H6A C7A 1_555 1_555
C8A N2 1_555 1_555
C9A C8A 1_555 1_555
H7A C9A 1_555 1_555
C10A N1A 1_555 1_555
H8A C10A 1_555 1_555
N3A C19A 1_555 1_555
C19A H21A 1_555 1_555
C20A C19A 1_555 1_555
H22A C20A 1_555 1_555
C21A N4 1_555 1_555
C22A C21A 1_555 1_555
H23A C22A 1_555 1_555
C23A N3A 1_555 1_555
H24A C23A 1_555 1_555
Co1A N3A 1_555 1_555
Co2A O2A 1_555 1_555
O1A Co1A 1_555 1_555
O2A Co1A 1_555 1_555
O3A C3A 1_555 1_555
O4A C3A 1_555 1_555
O5A Co2A 1_555 1_555
O6A Co1A 1_555 1_555
O7A C2A 1_555 1_555
O8A C2A 1_555 1_555
C1A O1A 1_555 1_555
C2A C29A 1_555 1_555
C3A C24A 1_555 1_555
C4A H3A 1_555 1_555
H4A C4A 1_555 1_555
C5A C12A 1_555 1_555
C11A O5A 1_555 1_555
C12A C11A 1_555 1_555
C13A C12A 1_555 1_555
H9A C13A 1_555 1_555
H10A C13A 1_555 1_555
H11A C13A 1_555 1_555
C14A C4A 1_555 1_555
H12A C14A 1_555 1_555
H13A C14A 1_555 1_555
C15A C5A 1_555 1_555
H14A C15A 1_555 1_555
H15A C15A 1_555 1_555
H16A C15A 1_555 1_555
C16A C1A 1_555 1_555
H17A C16A 1_555 1_555
C17A C16A 1_555 1_555
C18A C17A 1_555 1_555
H18A C18A 1_555 1_555
H19A C18A 1_555 1_555
H20A C18A 1_555 1_555
C24A C4A 1_555 1_555
H25A C24A 1_555 1_555
C25A H26A 1_555 1_555
H27A C25A 1_555 1_555
H28A C25A 1_555 1_555
C26A C17A 1_555 1_555
H29A C26A 1_555 1_555
H30A C26A 1_555 1_555
H31A C26A 1_555 1_555
C27A H32A 1_555 1_555
H33A C27A 1_555 1_555
C28A C16A 1_555 1_555
H34A C28A 1_555 1_555
H35A C28A 1_555 1_555
C29A C17A 1_555 1_555
C30A C5A 1_555 1_555
H36A C30A 1_555 1_555
H37A C30A 1_555 1_555
H38A C30A 1_555 1_555
Co1B O7A 1_555 1_555
Co1B_2 O4A 1_555 1_555
Co1C O7 1_555 1_555
Co1C_2 O4 1_555 1_555
Co2A_2 N1A 1_555 1_555
Co2B O8A 1_555 1_555
Co2B_2 O3A 1_555 1_555
Co2C O8 1_555 1_555
Co2C_2 O3 1_555 1_555
O3B Co2A 1_555 1_555
O3C Co2 1_555 1_555
O4B Co1A 1_555 1_555
O4C Co1 1_555 1_555
O7B Co1A 1_555 1_555
O7C Co1 1_555 1_555
O8B Co2A 1_555 1_555
O8C Co2 1_555 1_555
N1A_2 Co2A 1_555 1_555
H39A O9 1_555 1_555
H40A O10 1_555 1_555
Co2 O6 1_555 1_555
O6 C11 1_555 1_555
C5 C24 1_555 1_555
C7 C8 1_555 1_555
C9 C10 1_555 1_555
C12 C14 1_555 1_555
C20 C21 1_555 1_555
C22 C23 1_555 1_555
C25 C29 1_555 1_555
C27 C28 1_555 1_555
C27 C29 1_555 1_555
C7A C8A 1_555 1_555
C9A C10A 1_555 1_555
C20A C21A 1_555 1_555
C22A C23A 1_555 1_555
Co2A O6A 1_555 1_555
O2A C1A 1_555 1_555
O6A C11A 1_555 1_555
C5A C24A 1_555 1_555
C12A C14A 1_555 1_555
C25A C29A 1_555 1_555
C27A C28A 1_555 1_555
C27A C29A 1_555 1_555

#END
