
#######################################################################
#
#                 Cambridge Crystallographic Data Centre
#                                CCDC 
#
#######################################################################
#
# If this CIF has been generated from an entry in the Cambridge 
# Structural Database, then it will include bibliographic, chemical, 
# crystal, experimental, refinement or atomic coordinate data resulting 
# from the CCDC's data processing and validation procedures.
#
#######################################################################

data_LIDLIU
_symmetry_cell_setting           orthorhombic
_symmetry_space_group_name_H-M   'P b c a'
_symmetry_Int_Tables_number      61
_space_group_name_Hall           '-P 2ac 2ab'
loop_
_symmetry_equiv_pos_site_id
_symmetry_equiv_pos_as_xyz
1 x,y,z
2 1/2+x,1/2-y,-z
3 -x,1/2+y,1/2-z
4 1/2-x,-y,1/2+z
5 -x,-y,-z
6 1/2-x,1/2+y,z
7 x,1/2-y,1/2+z
8 1/2+x,y,1/2-z
_cell_length_a                   12.2251(7)
_cell_length_b                   15.406(9)
_cell_length_c                   19.7291(10)
_cell_angle_alpha                90
_cell_angle_beta                 90
_cell_angle_gamma                90
_cell_volume                     3715.78
loop_
_atom_site_label
_atom_site_type_symbol
_atom_site_fract_x
_atom_site_fract_y
_atom_site_fract_z
Ag1 Ag -0.29475(8) 0.22397(7) 0.27030(5)
N1 N -0.4523(8) 0.3098(7) 0.2983(5)
N2 N -0.4387(7) 0.1918(6) 0.1990(5)
N3 N -0.6269(9) 0.1936(6) 0.1853(5)
N4 N -0.6494(9) 0.3112(6) 0.2868(4)
N5 N -0.6561(9) 0.3534(8) 0.3508(5)
N6 N -0.4681(8) 0.3518(7) 0.3620(5)
O1 O -0.5743(9) 0.4233(6) 0.4386(5)
C1 C -0.5648(10) 0.3806(7) 0.3866(5)
C2 C -0.3635(11) 0.3835(10) 0.3937(8)
C3 C -0.7659(12) 0.3807(11) 0.3676(7)
C4 C -0.5507(9) 0.2581(7) 0.2840(5)
C5 C -0.5375(9) 0.2109(7) 0.2178(5)
C6 C -0.5166(11) 0.1228(8) 0.1034(6)
C7 C -0.4273(10) 0.1427(8) 0.1409(6)
C8 C -0.6178(11) 0.1463(7) 0.1264(6)
C9 C -0.3130(11) 0.1214(11) 0.1204(9)
C10 C -0.7204(13) 0.1262(12) 0.0885(8)
H1 H -0.4538 0.3578 0.2640
H2 H -0.6362 0.3534 0.2583
H3 H -0.3803 0.4117 0.4382
H4 H -0.3273 0.4260 0.3631
H5 H -0.3135 0.3328 0.4016
H6 H -0.7658 0.4097 0.4130
H7 H -0.7928 0.4225 0.3326
H8 H -0.8152 0.3290 0.3690
H9 H -0.5568 0.2135 0.3206
H10 H -0.5085 0.0911 0.0594
H11 H -0.3141 0.0856 0.0781
H12 H -0.2713 0.1760 0.1123
H13 H -0.2769 0.0874 0.1576
H14 H -0.7020 0.0916 0.0471
H15 H -0.7568 0.1815 0.0749
H16 H -0.7706 0.0918 0.1181
Ag1G Ag -0.79475(8) 0.22397(7) 0.22970(5)
N3G N -0.1269(9) 0.1936(6) 0.3147(5)
N4G N -0.1494(9) 0.3112(6) 0.2132(4)
H2G H -0.1362 0.3534 0.2417
Cl1 Cl 0.0364(3) 0.0010(2) 0.19529(19)
O2 O -0.0454(15) 0.0050(12) 0.2451(9)
O3 O 0.1390(16) 0.0100(13) 0.2233(9)
O4 O 0.0187(12) 0.0694(10) 0.1504(7)
O5 O 0.0324(10) -0.0839(8) 0.1653(6)
N7 N 0.111(3) 0.232(3) -0.005(3)
C11 C 0.025(3) 0.202(2) -0.0028(19)
C12 C -0.091(3) 0.168(3) 0.004(2)
H17 H -0.1036 0.1214 -0.0299
H18 H -0.1438 0.2160 -0.0020
H19 H -0.1001 0.1426 0.0512
loop_
_geom_bond_atom_site_label_1
_geom_bond_atom_site_label_2
_geom_bond_site_symmetry_1
_geom_bond_site_symmetry_2
Ag1 N1 1_555 1_555
N1 N6 1_555 1_555
N2 Ag1 1_555 1_555
N3 C5 1_555 1_555
N4 N5 1_555 1_555
N5 C1 1_555 1_555
N6 C1 1_555 1_555
O1 C1 1_555 1_555
C2 N6 1_555 1_555
C3 N5 1_555 1_555
C4 N1 1_555 1_555
C5 N2 1_555 1_555
C6 C7 1_555 1_555
C7 N2 1_555 1_555
C8 N3 1_555 1_555
C9 C7 1_555 1_555
C10 C8 1_555 1_555
Cl1 O2 1_555 1_555
N7 C11 1_555 1_555
O3 Cl1 1_555 1_555
O4 Cl1 1_555 1_555
O5 Cl1 1_555 1_555
C11 C12 1_555 1_555
C12 H17 1_555 1_555
H1 N1 1_555 1_555
H2 N4 1_555 1_555
H3 C2 1_555 1_555
H4 C2 1_555 1_555
H5 C2 1_555 1_555
H6 C3 1_555 1_555
H7 C3 1_555 1_555
H8 C3 1_555 1_555
H9 C4 1_555 1_555
H10 C6 1_555 1_555
H11 C9 1_555 1_555
H12 C9 1_555 1_555
H13 C9 1_555 1_555
H14 C10 1_555 1_555
H15 C10 1_555 1_555
H16 C10 1_555 1_555
H18 C12 1_555 1_555
H19 C12 1_555 1_555
Ag1G N3 1_555 1_555
N3G Ag1 1_555 1_555
N4G Ag1 1_555 1_555
H2G N4G 1_555 1_555
N4 C4 1_555 1_555
N4 Ag1G 1_555 1_555
C4 C5 1_555 1_555
C6 C8 1_555 1_555

#END
