
#######################################################################
#
#                 Cambridge Crystallographic Data Centre
#                                CCDC 
#
#######################################################################
#
# If this CIF has been generated from an entry in the Cambridge 
# Structural Database, then it will include bibliographic, chemical, 
# crystal, experimental, refinement or atomic coordinate data resulting 
# from the CCDC's data processing and validation procedures.
#
#######################################################################

data_LIDTEY
_symmetry_cell_setting           monoclinic
_symmetry_space_group_name_H-M   'P 21/c'
_symmetry_Int_Tables_number      14
_space_group_name_Hall           '-P 2ybc'
loop_
_symmetry_equiv_pos_site_id
_symmetry_equiv_pos_as_xyz
1 x,y,z
2 -x,1/2+y,1/2-z
3 -x,-y,-z
4 x,1/2-y,1/2+z
_cell_length_a                   5.964(5)
_cell_length_b                   21.313(5)
_cell_length_c                   13.093(5)
_cell_angle_alpha                90
_cell_angle_beta                 100.770(5)
_cell_angle_gamma                90
_cell_volume                     1634.95
loop_
_atom_site_label
_atom_site_type_symbol
_atom_site_fract_x
_atom_site_fract_y
_atom_site_fract_z
Ni1 Ni 0.0000 0.0000 0.5000
O1 O 0.2147(4) -0.00284(9) 0.39689(19)
O2 O -0.1531(4) 0.07668(10) 0.42358(17)
F1 F -0.7065(4) 0.25222(12) 0.3503(2)
N1 N -0.0146(5) 0.17048(13) 0.1684(2)
N2 N -0.5464(5) 0.32509(13) 0.1955(2)
N3 N -0.2865(5) 0.24648(13) 0.1857(2)
N4 N -0.7496(4) 0.44202(12) 0.1035(2)
C1 C -0.2347(6) 0.15779(14) 0.3027(3)
O3 O 0.3587(5) 0.01478(14) 0.2566(2)
C2 C -0.4510(6) 0.26965(15) 0.2313(3)
C3 C 0.0668(6) 0.08321(15) 0.2869(2)
C4 C -0.1854(6) 0.19181(15) 0.2190(3)
C5 C -0.4548(7) 0.35788(18) 0.1141(3)
H1 H -0.3931 0.3276 0.0715
H2 H -0.3317 0.3854 0.1457
C6 C 0.0986(6) 0.11751(16) 0.2028(3)
H3 H 0.2076 0.1031 0.1661
C7 C -0.5217(6) 0.23369(16) 0.3106(3)
C8 C -0.1082(5) 0.10183(14) 0.3433(2)
C9 C -0.4149(6) 0.18028(16) 0.3461(3)
H4 H -0.4615 0.1583 0.3998
C10 C 0.2228(5) 0.02723(15) 0.3150(3)
C11 C -0.8286(7) 0.40929(18) 0.1884(3)
H5 H -0.9527 0.3815 0.1589
H6 H -0.8891 0.4400 0.2307
C12 C -0.6384(7) 0.39593(17) 0.0467(3)
H7 H -0.5717 0.4177 -0.0054
H8 H -0.7536 0.3675 0.0106
C13 C -0.6443(7) 0.37067(18) 0.2589(3)
H9 H -0.5254 0.3983 0.2942
H10 H -0.7108 0.3489 0.3110
C14 C 0.0330(8) 0.2020(2) 0.0741(3)
H11 H 0.0047 0.2466 0.0789
H12 H 0.1927 0.1964 0.0705
C15 C -0.1085(11) 0.1771(3) -0.0211(4)
H13 H -0.0652 0.1345 -0.0314
H14 H -0.0867 0.2022 -0.0794
H15 H -0.2663 0.1784 -0.0148
Ni1A Ni -1.0000 0.5000 0.0000
Ni1A_2 Ni 1.0000 -0.5000 1.0000
O1B O -0.2147(4) 0.00284(9) 0.60311(19)
O2B O 0.1531(4) -0.07668(10) 0.57642(17)
F1B F 0.7065(4) -0.25222(12) 0.6497(2)
N1B N 0.0146(5) -0.17048(13) 0.8316(2)
N2B N 0.5464(5) -0.32509(13) 0.8045(2)
N3B N 0.2865(5) -0.24648(13) 0.8143(2)
N4B N 0.7496(4) -0.44202(12) 0.8965(2)
N4C N 0.2504(4) 0.05798(12) 0.6035(2)
N4A N -0.2504(4) -0.05798(12) 0.3965(2)
C1B C 0.2347(6) -0.15779(14) 0.6973(3)
O3B O -0.3587(5) -0.01478(14) 0.7434(2)
C2B C 0.4510(6) -0.26965(15) 0.7687(3)
C3B C -0.0668(6) -0.08321(15) 0.7131(2)
C4B C 0.1854(6) -0.19181(15) 0.7810(3)
C5B C 0.4548(7) -0.35788(18) 0.8859(3)
H1B H 0.3931 -0.3276 0.9285
H2B H 0.3317 -0.3854 0.8543
C6B C -0.0986(6) -0.11751(16) 0.7972(3)
H3B H -0.2076 -0.1031 0.8339
C7B C 0.5217(6) -0.23369(16) 0.6894(3)
C8B C 0.1082(5) -0.10183(14) 0.6567(2)
C9B C 0.4149(6) -0.18028(16) 0.6539(3)
H4B H 0.4615 -0.1583 0.6002
C10B C -0.2228(5) -0.02723(15) 0.6850(3)
C11B C 0.8286(7) -0.40929(18) 0.8116(3)
H5B H 0.9527 -0.3815 0.8411
H6B H 0.8891 -0.4400 0.7693
C12B C 0.6384(7) -0.39593(17) 0.9533(3)
H7B H 0.5717 -0.4177 1.0054
H8B H 0.7536 -0.3675 0.9894
C13B C 0.6443(7) -0.37067(18) 0.7411(3)
H9B H 0.5254 -0.3983 0.7058
H10B H 0.7108 -0.3489 0.6890
C14B C -0.0330(8) -0.2020(2) 0.9259(3)
H11B H -0.0047 -0.2466 0.9211
H12B H -0.1927 -0.1964 0.9295
C15B C 0.1085(11) -0.1771(3) 1.0211(4)
H13B H 0.0652 -0.1345 1.0314
H14B H 0.0867 -0.2022 1.0794
H15B H 0.2663 -0.1784 1.0148
O4 O 0.245(3) 0.0007(6) 0.0425(13)
H16 H 0.3545 0.0245 0.0502
H17 H 0.1132 -0.0124 0.0350
O5? O 0.481(3) 0.0464(9) 0.0695(15)
H18? H 0.3624 0.0270 0.0493
H19? H 0.5828 0.0698 0.0982
loop_
_geom_bond_atom_site_label_1
_geom_bond_atom_site_label_2
_geom_bond_site_symmetry_1
_geom_bond_site_symmetry_2
Ni1 O1 1_555 1_555
O1 C10 1_555 1_555
O2 Ni1 1_555 1_555
F1 C7 1_555 1_555
N1 C4 1_555 1_555
N2 C2 1_555 1_555
N3 C2 1_555 1_555
N4 C11 1_555 1_555
C1 C4 1_555 1_555
O3 C10 1_555 1_555
C2 C7 1_555 1_555
C3 C6 1_555 1_555
C4 N3 1_555 1_555
C5 N2 1_555 1_555
H1 C5 1_555 1_555
H2 C5 1_555 1_555
C6 N1 1_555 1_555
H3 C6 1_555 1_555
C7 C9 1_555 1_555
C8 O2 1_555 1_555
C9 C1 1_555 1_555
H4 C9 1_555 1_555
C10 C3 1_555 1_555
C11 H5 1_555 1_555
H6 C11 1_555 1_555
C12 N4 1_555 1_555
H7 C12 1_555 1_555
H8 C12 1_555 1_555
C13 N2 1_555 1_555
H9 C13 1_555 1_555
H10 C13 1_555 1_555
C14 N1 1_555 1_555
H11 C14 1_555 1_555
H12 C14 1_555 1_555
C15 C14 1_555 1_555
H13 C15 1_555 1_555
H14 C15 1_555 1_555
H15 C15 1_555 1_555
O4 H16 1_555 1_555
H17 O4 1_555 1_555
Ni1A N4 1_555 1_555
Ni1A_2 N4B 1_555 1_555
O1B Ni1 1_555 1_555
O2B Ni1 1_555 1_555
F1B C7B 1_555 1_555
N1B C4B 1_555 1_555
N2B C2B 1_555 1_555
N3B C2B 1_555 1_555
N4B C11B 1_555 1_555
N4C Ni1 1_555 1_555
N4A Ni1 1_555 1_555
C1B C4B 1_555 1_555
O3B C10B 1_555 1_555
C2B C7B 1_555 1_555
C3B C6B 1_555 1_555
C4B N3B 1_555 1_555
C5B N2B 1_555 1_555
H1B C5B 1_555 1_555
H2B C5B 1_555 1_555
C6B N1B 1_555 1_555
H3B C6B 1_555 1_555
C7B C9B 1_555 1_555
C8B O2B 1_555 1_555
C9B C1B 1_555 1_555
H4B C9B 1_555 1_555
C10B O1B 1_555 1_555
C11B H5B 1_555 1_555
H6B C11B 1_555 1_555
C12B N4B 1_555 1_555
H7B C12B 1_555 1_555
H8B C12B 1_555 1_555
C13B N2B 1_555 1_555
H9B C13B 1_555 1_555
H10B C13B 1_555 1_555
C14B N1B 1_555 1_555
H11B C14B 1_555 1_555
H12B C14B 1_555 1_555
C15B C14B 1_555 1_555
H13B C15B 1_555 1_555
H14B C15B 1_555 1_555
H15B C15B 1_555 1_555
C1 C8 1_555 1_555
C3 C8 1_555 1_555
C5 C12 1_555 1_555
C11 C13 1_555 1_555
C1B C8B 1_555 1_555
C3B C8B 1_555 1_555
C3B C10B 1_555 1_555
C5B C12B 1_555 1_555
C11B C13B 1_555 1_555

#END
