
#######################################################################
#
#                 Cambridge Crystallographic Data Centre
#                                CCDC 
#
#######################################################################
#
# If this CIF has been generated from an entry in the Cambridge 
# Structural Database, then it will include bibliographic, chemical, 
# crystal, experimental, refinement or atomic coordinate data resulting 
# from the CCDC's data processing and validation procedures.
#
#######################################################################

data_LIDZAZ
_symmetry_cell_setting           monoclinic
_symmetry_space_group_name_H-M   'P 21/c'
_symmetry_Int_Tables_number      14
_space_group_name_Hall           '-P 2ybc'
loop_
_symmetry_equiv_pos_site_id
_symmetry_equiv_pos_as_xyz
1 x,y,z
2 -x,1/2+y,1/2-z
3 -x,-y,-z
4 x,1/2-y,1/2+z
_cell_length_a                   9.627(2)
_cell_length_b                   13.367(3)
_cell_length_c                   18.976(3)
_cell_angle_alpha                90
_cell_angle_beta                 103.36(2)
_cell_angle_gamma                90
_cell_volume                     2375.83
loop_
_atom_site_label
_atom_site_type_symbol
_atom_site_fract_x
_atom_site_fract_y
_atom_site_fract_z
Zn1 Zn 0.40178(11) 0.67893(8) 0.66753(6)
Zn2 Zn 0.54173(14) 0.50325(8) 0.77861(6)
O1 O 0.6044(7) 0.6754(5) 0.6723(4)
O2 O 0.6929(8) 0.5421(6) 0.7341(4)
C1 C 0.7047(11) 0.6174(8) 0.6993(6)
C2 C 0.8535(11) 0.6458(9) 0.6896(7)
C3 C 0.8708(15) 0.7328(12) 0.6611(11)
C4 C 1.0163(17) 0.7757(18) 0.6553(16)
C5 C 0.9708(14) 0.5682(13) 0.7151(9)
O3 O 0.3104(8) 0.5543(5) 0.6271(4)
O4 O 0.3713(9) 0.4494(6) 0.7191(4)
C6 C 0.3004(12) 0.4702(8) 0.6573(7)
C7 C 0.1996(12) 0.3960(7) 0.6148(6)
C8 C 0.1833(18) 0.3095(11) 0.6525(10)
C9 C 0.0834(33) 0.2318(19) 0.6120(19)
C10 C 0.1340(19) 0.4167(13) 0.5417(9)
O5 O 0.3651(9) 0.7072(5) 0.7628(4)
O6 O 0.5169(10) 0.6120(6) 0.8407(4)
C11 C 0.4395(12) 0.6869(9) 0.8261(6)
C12 C 0.4378(15) 0.7573(9) 0.8870(7)
C13 C 0.3482(19) 0.8330(10) 0.8739(8)
C14 C 0.3386(25) 0.9114(12) 0.9340(9)
C15 C 0.5376(19) 0.7298(14) 0.9606(8)
O7 O 0.3132(7) 0.7684(5) 0.5890(3)
O8 O 0.3958(9) 0.8848(6) 0.6651(4)
C16 C 0.3308(10) 0.8578(7) 0.6037(5)
C17 C 0.2801(15) 0.9347(9) 0.5488(7)
C18 C 0.2296(20) 0.9139(13) 0.4818(9)
C19 C 0.2006(27) 0.9956(16) 0.4222(10)
O8A O 0.6042(9) 0.3848(6) 0.8349(4)
Zn2A Zn 0.45827(14) 1.00325(8) 0.72139(6)
loop_
_geom_bond_atom_site_label_1
_geom_bond_atom_site_label_2
_geom_bond_site_symmetry_1
_geom_bond_site_symmetry_2
Zn1 O1 1_555 1_555
Zn2 O2 1_555 1_555
O1 C1 1_555 1_555
O2 C1 1_555 1_555
C1 C2 1_555 1_555
C2 C3 1_555 1_555
C3 C4 1_555 1_555
C5 C2 1_555 1_555
O3 Zn1 1_555 1_555
O4 Zn2 1_555 1_555
C6 O3 1_555 1_555
C7 C6 1_555 1_555
C8 C7 1_555 1_555
C9 C8 1_555 1_555
C10 C7 1_555 1_555
O5 Zn1 1_555 1_555
O6 Zn2 1_555 1_555
C11 O5 1_555 1_555
C12 C11 1_555 1_555
C13 C12 1_555 1_555
C14 C13 1_555 1_555
C15 C12 1_555 1_555
O7 Zn1 1_555 1_555
O8 C16 1_555 1_555
C16 O7 1_555 1_555
C17 C16 1_555 1_555
C18 C17 1_555 1_555
C19 C18 1_555 1_555
O8A Zn2 1_555 1_555
Zn2A O8 1_555 1_555
O4 C6 1_555 1_555
O6 C11 1_555 1_555

#END
