
#######################################################################
#
#                 Cambridge Crystallographic Data Centre
#                                CCDC 
#
#######################################################################
#
# If this CIF has been generated from an entry in the Cambridge 
# Structural Database, then it will include bibliographic, chemical, 
# crystal, experimental, refinement or atomic coordinate data resulting 
# from the CCDC's data processing and validation procedures.
#
#######################################################################

data_LIDZAB
_symmetry_cell_setting           monoclinic
_symmetry_space_group_name_H-M   'P 21'
_symmetry_Int_Tables_number      4
_space_group_name_Hall           'P 2yb'
loop_
_symmetry_equiv_pos_site_id
_symmetry_equiv_pos_as_xyz
1 x,y,z
2 -x,1/2+y,-z
_cell_length_a                   8.6332(6)
_cell_length_b                   12.5764(6)
_cell_length_c                   9.8642(7)
_cell_angle_alpha                90
_cell_angle_beta                 94.866(6)
_cell_angle_gamma                90
_cell_volume                     1067.14
loop_
_atom_site_label
_atom_site_type_symbol
_atom_site_fract_x
_atom_site_fract_y
_atom_site_fract_z
C1 C 0.4490(4) 0.5153(2) 0.4129(3)
H1 H 0.4930 0.5826 0.4246
C2 C 0.3809(4) 0.4859(4) 0.2869(3)
H2 H 0.3757 0.5352 0.2164
C3 C 0.3297(3) 0.32178(19) 0.3674(3)
C4 C 0.3914(3) 0.35186(18) 0.4975(3)
C5 C 0.2764(3) 0.2100(2) 0.3299(3)
C6 C 0.3898(3) 0.28140(19) 0.6233(3)
C7 C 0.2785(4) 0.4694(6) 0.9186(3)
H3 H 0.3316 0.4203 0.9756
C8 C 0.1300(4) 0.5007(3) 0.9274(4)
H4 H 0.0626 0.4776 0.9900
C9 C 0.2254(4) 0.5845(3) 0.7590(3)
C10 C 0.2329(5) 0.6578(4) 0.6433(5)
H5 H 0.3250 0.7005 0.6567
H6 H 0.1430 0.7030 0.6369
H7 H 0.2355 0.6176 0.5607
C11 C 0.7250(5) 0.4096(3) 1.0550(4)
H8 H 0.7357 0.3385 1.0314
C12 C 0.7554(6) 0.4499(3) 1.1799(4)
H9 H 0.7925 0.4132 1.2579
C13 C 0.6731(4) 0.5761(3) 1.0411(3)
C14 C 0.6271(8) 0.6842(3) 0.9937(4)
H10 H 0.5930 0.7244 1.0684
H11 H 0.5440 0.6792 0.9229
H12 H 0.7146 0.7191 0.9592
C15 C 0.8644(3) 0.4713(6) 0.5444(3)
H13 H 0.8228 0.5339 0.5068
C16 C 0.9883(4) 0.4208(3) 0.5010(4)
H14 H 1.0484 0.4414 0.4316
C17 C 0.8970(3) 0.3337(3) 0.6697(4)
C18 C 0.8806(7) 0.2500(4) 0.7727(6)
H15 H 0.9501 0.2646 0.8517
H16 H 0.9055 0.1822 0.7357
H17 H 0.7755 0.2491 0.7976
N1 N 0.4526(3) 0.44852(17) 0.5183(2)
N2 N 0.3224(3) 0.38926(19) 0.2629(2)
N3 N 0.3391(3) 0.5214(2) 0.8119(3)
N4 N 0.0991(3) 0.5732(3) 0.8259(3)
H18 H 0.0124 0.6061 0.8082
N5 N 0.6754(3) 0.4900(3) 0.9666(2)
N6 N 0.7208(4) 0.5562(3) 1.1697(3)
H19 H 0.7287 0.6017 1.2350
N7 N 0.8078(3) 0.4192(2) 0.6498(3)
N8 N 1.0064(3) 0.3327(2) 0.5816(3)
H20 H 1.0765 0.2846 0.5766
O1 O 0.4891(2) 0.29898(16) 0.7196(2)
O2 O 0.2854(2) 0.21136(14) 0.6190(2)
O3 O 0.3839(3) 0.14273(15) 0.3423(2)
O4 O 0.1405(3) 0.1980(2) 0.2871(4)
Cd1 Cd 0.584832(15) 0.47736(2) 0.742278(13)
O3A O 0.6161(3) 0.64273(15) 0.6577(2)
Cd1A Cd 0.415168(15) -0.02264(2) 0.257722(13)
loop_
_geom_bond_atom_site_label_1
_geom_bond_atom_site_label_2
_geom_bond_site_symmetry_1
_geom_bond_site_symmetry_2
C1 H1 1_555 1_555
C2 C1 1_555 1_555
H2 C2 1_555 1_555
C3 C4 1_555 1_555
C4 C6 1_555 1_555
C5 C3 1_555 1_555
C6 O1 1_555 1_555
C7 H3 1_555 1_555
C8 C7 1_555 1_555
H4 C8 1_555 1_555
C9 C10 1_555 1_555
C10 H5 1_555 1_555
H6 C10 1_555 1_555
H7 C10 1_555 1_555
C11 H8 1_555 1_555
C12 C11 1_555 1_555
H9 C12 1_555 1_555
C13 C14 1_555 1_555
C14 H10 1_555 1_555
H11 C14 1_555 1_555
H12 C14 1_555 1_555
C15 H13 1_555 1_555
C16 C15 1_555 1_555
H14 C16 1_555 1_555
C17 C18 1_555 1_555
C18 H15 1_555 1_555
H16 C18 1_555 1_555
H17 C18 1_555 1_555
N1 C1 1_555 1_555
N2 C2 1_555 1_555
N3 C7 1_555 1_555
N4 C8 1_555 1_555
H18 N4 1_555 1_555
N5 C11 1_555 1_555
N6 C12 1_555 1_555
H19 N6 1_555 1_555
N7 C15 1_555 1_555
N8 C16 1_555 1_555
H20 N8 1_555 1_555
O1 Cd1 1_555 1_555
O2 C6 1_555 1_555
O3 C5 1_555 1_555
O4 C5 1_555 1_555
Cd1 N1 1_555 1_555
O3A Cd1 1_555 1_555
Cd1A O3 1_555 1_555
C3 N2 1_555 1_555
C4 N1 1_555 1_555
C9 N3 1_555 1_555
C9 N4 1_555 1_555
C13 N5 1_555 1_555
C13 N6 1_555 1_555
C17 N7 1_555 1_555
C17 N8 1_555 1_555
N3 Cd1 1_555 1_555
N5 Cd1 1_555 1_555
N7 Cd1 1_555 1_555

#END
