
#######################################################################
#
#                 Cambridge Crystallographic Data Centre
#                                CCDC 
#
#######################################################################
#
# If this CIF has been generated from an entry in the Cambridge 
# Structural Database, then it will include bibliographic, chemical, 
# crystal, experimental, refinement or atomic coordinate data resulting 
# from the CCDC's data processing and validation procedures.
#
#######################################################################

data_LIFJIU
_symmetry_cell_setting           monoclinic
_symmetry_space_group_name_H-M   'C 2/c'
_symmetry_Int_Tables_number      15
_space_group_name_Hall           '-C 2yn'
loop_
_symmetry_equiv_pos_site_id
_symmetry_equiv_pos_as_xyz
1 x,y,z
2 1/2+x,1/2+y,z
3 -x,y,1/2-z
4 1/2-x,1/2+y,1/2-z
5 -x,-y,-z
6 1/2-x,1/2-y,-z
7 x,-y,1/2+z
8 1/2+x,1/2-y,1/2+z
_cell_length_a                   18.887(4)
_cell_length_b                   10.761(2)
_cell_length_c                   14.488(3)
_cell_angle_alpha                90
_cell_angle_beta                 126.100(3)
_cell_angle_gamma                90
_cell_volume                     2379.19
loop_
_atom_site_label
_atom_site_type_symbol
_atom_site_fract_x
_atom_site_fract_y
_atom_site_fract_z
Cu1 Cu 0.006739(17) 0.01783(3) 0.10958(2)
Cu2 Cu 0.155280(17) -0.16480(3) 0.10315(2)
N1 N 0.22921(15) -0.3160(2) 0.1562(2)
H1 H 0.277(2) -0.291(3) 0.198(3)
H2 H 0.219(3) -0.357(4) 0.190(4)
N2 N 0.09993(15) 0.0087(2) 0.2775(2)
H3 H 0.091(2) -0.048(3) 0.307(3)
H4 H 0.144(2) -0.008(3) 0.285(3)
O1 O 0.25635(12) -0.13409(18) 0.32237(16)
H5 H 0.3050 -0.0987 0.3486
H6 H 0.2621 -0.1971 0.3616
C1 C -0.03562(15) -0.3728(2) 0.10960(18)
C2 C -0.11354(15) -0.3735(2) 0.09965(19)
H7 H -0.1412 -0.2975 0.0946
C3 C -0.15052(15) -0.4856(2) 0.0971(2)
C4 C -0.10991(15) -0.5960(2) 0.10437(19)
H8 H -0.1360 -0.6729 0.1013
C5 C -0.03149(15) -0.5955(2) 0.11602(19)
C6 C 0.00527(15) -0.4837(2) 0.11852(19)
H9 H 0.0589 -0.4827 0.1264
C7 C 0.00672(14) -0.2530(2) 0.11572(19)
C8 C -0.23149(16) -0.4908(2) 0.0935(2)
C9 C 0.01408(15) -0.7160(2) 0.12986(19)
O2 O 0.07616(11) -0.26086(16) 0.12297(15)
O3 O -0.02950(11) -0.15492(15) 0.11461(15)
O4 O -0.25780(11) -0.39704(16) 0.11494(16)
O5 O -0.26770(11) -0.59733(16) 0.06767(15)
O6 O -0.03145(11) -0.81303(15) 0.11128(15)
O7 O 0.09002(11) -0.71607(16) 0.15797(15)
O8 O 0.08771(11) -0.01502(15) 0.05567(14)
H10 H 0.1217 0.0468 0.0744
H11 H 0.107(2) 0.072(4) 0.315(3)
H12 H 0.219(3) -0.357(4) 0.106(4)
Cu1_2 Cu 0.006739(17) -0.98217(3) 0.10958(2)
Cu1D Cu -0.006739(17) -0.01783(3) -0.10958(2)
Cu2D Cu -0.155280(17) -0.83520(3) -0.10315(2)
Cu2A Cu -0.344720(17) -0.66480(3) 0.10315(2)
O5A O 0.23230(11) -0.09733(16) 0.06767(15)
O6_2 O -0.03145(11) 0.18697(15) 0.11128(15)
O6D O 0.03145(11) -0.18697(15) -0.11128(15)
O8D O -0.08771(11) 0.01502(15) -0.05567(14)
H10D H -0.1217 -0.0468 -0.0744
loop_
_geom_bond_atom_site_label_1
_geom_bond_atom_site_label_2
_geom_bond_site_symmetry_1
_geom_bond_site_symmetry_2
Cu1 N2 1_555 1_555
Cu2 N1 1_555 1_555
N1 H1 1_555 1_555
H2 N1 1_555 1_555
N2 H3 1_555 1_555
H4 N2 1_555 1_555
O1 Cu2 1_555 1_555
H5 O1 1_555 1_555
H6 O1 1_555 1_555
C1 C2 1_555 1_555
C2 H7 1_555 1_555
C3 C2 1_555 1_555
C4 C3 1_555 1_555
H8 C4 1_555 1_555
C5 C4 1_555 1_555
C6 C1 1_555 1_555
H9 C6 1_555 1_555
C7 C1 1_555 1_555
C8 C3 1_555 1_555
C9 C5 1_555 1_555
O2 Cu2 1_555 1_555
O3 Cu1 1_555 1_555
O4 C8 1_555 1_555
O5 C8 1_555 1_555
O6 C9 1_555 1_555
O7 C9 1_555 1_555
O8 Cu1 1_555 1_555
H10 O8 1_555 1_555
H11 N2 1_555 1_555
H12 N1 1_555 1_555
Cu1_2 O6 1_555 1_555
Cu1D O8 1_555 1_555
Cu2D O6 1_555 1_555
Cu2A O5 1_555 1_555
O5A Cu2 1_555 1_555
O6_2 Cu1 1_555 1_555
O6D Cu2 1_555 1_555
O8D Cu1 1_555 1_555
H10D O8D 1_555 1_555
Cu2 O8 1_555 1_555
C5 C6 1_555 1_555
C7 O2 1_555 1_555
C7 O3 1_555 1_555
Cu1D O6D 1_555 1_555
Cu1D O8D 1_555 1_555

#END
