
#######################################################################
#
#                 Cambridge Crystallographic Data Centre
#                                CCDC 
#
#######################################################################
#
# If this CIF has been generated from an entry in the Cambridge 
# Structural Database, then it will include bibliographic, chemical, 
# crystal, experimental, refinement or atomic coordinate data resulting 
# from the CCDC's data processing and validation procedures.
#
#######################################################################

data_LIFJUG
_symmetry_cell_setting           monoclinic
_symmetry_space_group_name_H-M   'C 2/c'
_symmetry_Int_Tables_number      15
_space_group_name_Hall           '-C 2yn'
loop_
_symmetry_equiv_pos_site_id
_symmetry_equiv_pos_as_xyz
1 x,y,z
2 1/2+x,1/2+y,z
3 -x,y,1/2-z
4 1/2-x,1/2+y,1/2-z
5 -x,-y,-z
6 1/2-x,1/2-y,-z
7 x,-y,1/2+z
8 1/2+x,1/2-y,1/2+z
_cell_length_a                   16.3869(6)
_cell_length_b                   12.7873(5)
_cell_length_c                   43.2225(17)
_cell_angle_alpha                90
_cell_angle_beta                 91.9010(10)
_cell_angle_gamma                90
_cell_volume                     9052.04
loop_
_atom_site_label
_atom_site_type_symbol
_atom_site_fract_x
_atom_site_fract_y
_atom_site_fract_z
Zn1 Zn 0.77351(3) 0.62374(3) 0.116540(10)
Zn2 Zn 0.94723(3) 0.81864(4) 0.124390(10)
F1 F 0.87749(13) 0.69510(17) 0.12622(5)
C1 C 0.6766(2) 0.6281(3) 0.18424(8)
H1 H 0.6671 0.6341 0.2069
C2 C 0.5947(2) 0.6062(3) 0.16802(8)
H2 H 0.6018 0.6040 0.1454
H3 H 0.5564 0.6638 0.1724
C3 C 0.5583(2) 0.5030(3) 0.17850(9)
H4 H 0.5812 0.4851 0.1993
H5 H 0.5738 0.4468 0.1641
C4 C 0.4653(2) 0.5085(3) 0.17962(9)
H6 H 0.4516 0.5632 0.1951
C5 C 0.5738(2) 0.2682(3) 0.06587(8)
H7 H 0.6039 0.2277 0.0501
C6 C 0.5999(2) 0.3817(3) 0.06334(9)
H8 H 0.5687 0.4244 0.0779
H9 H 0.5868 0.4072 0.0421
C7 C 0.6909(2) 0.3959(3) 0.07047(9)
H10 H 0.6994 0.4114 0.0928
H11 H 0.7195 0.3295 0.0661
C8 C 0.7286(2) 0.4828(3) 0.05181(8)
H12 H 0.7231 0.4621 0.0295
C9 C 0.7161(2) 0.8169(3) 0.19040(9)
H13 H 0.7101 0.8242 0.2121
C10 C 0.7338(2) 0.8947(3) 0.17016(9)
H14 H 0.7429 0.9664 0.1748
C11 C 0.7359(2) 0.8476(3) 0.14151(9)
H15 H 0.7471 0.8833 0.1228
C12 C 0.7596(2) 0.4721(3) 0.20118(9)
H16 H 0.7477 0.4729 0.2225
C13 C 0.8035(3) 0.3985(3) 0.18676(10)
H17 H 0.8284 0.3380 0.1957
C14 C 0.8043(3) 0.4306(3) 0.15590(10)
H18 H 0.8314 0.3943 0.1401
C15 C 0.4025(2) 0.6366(4) 0.14230(10)
H19 H 0.3961 0.6933 0.1562
C16 C 0.3880(3) 0.6392(4) 0.11122(10)
H20 H 0.3692 0.6970 0.0991
C17 C 0.4061(3) 0.5403(4) 0.10091(9)
H21 H 0.4007 0.5190 0.0799
C18 C 0.4118(3) 0.3876(4) 0.21970(9)
H22 H 0.4053 0.4363 0.2360
C19 C 0.4016(3) 0.2815(4) 0.22136(10)
H23 H 0.3868 0.2418 0.2389
C20 C 0.4175(2) 0.2442(4) 0.19213(9)
H24 H 0.4140 0.1727 0.1862
C21 C 0.4526(3) 0.2103(3) 0.03338(9)
H25 H 0.4800 0.1708 0.0183
C22 C 0.3719(3) 0.2317(4) 0.03320(10)
H26 H 0.3315 0.2104 0.0182
C23 C 0.3601(3) 0.2917(4) 0.05962(10)
H27 H 0.3088 0.3179 0.0657
C24 C 0.6602(3) 0.1628(3) 0.10304(10)
H28 H 0.6932 0.1281 0.0886
C25 C 0.6693(3) 0.1591(4) 0.13454(10)
H29 H 0.7095 0.1214 0.1463
C26 C 0.6085(3) 0.2211(3) 0.14565(9)
H30 H 0.5997 0.2326 0.1670
C27 C 0.6288(3) 0.6192(3) 0.03505(10)
H31 H 0.6187 0.5959 0.0144
C28 C 0.5883(3) 0.6970(4) 0.04961(10)
H32 H 0.5449 0.7388 0.0413
C29 C 0.6237(3) 0.7025(3) 0.07925(10)
H33 H 0.6083 0.7508 0.0947
C30 C 0.8776(3) 0.4541(3) 0.04314(10)
H34 H 0.8742 0.4246 0.0230
C31 C 0.9466(3) 0.4646(3) 0.06135(10)
H35 H 1.0004 0.4436 0.0566
C32 C 0.9217(3) 0.5124(3) 0.08819(10)
H36 H 0.9573 0.5316 0.1050
N1 N 0.72016(19) 0.7456(2) 0.14334(7)
N2 N 0.70874(17) 0.7281(2) 0.17394(7)
N3 N 0.76221(18) 0.5184(2) 0.15157(7)
N4 N 0.73553(18) 0.5438(2) 0.18011(7)
N5 N 0.43232(19) 0.4779(3) 0.12394(7)
N6 N 0.42760(18) 0.5394(3) 0.14991(7)
N7 N 0.43830(19) 0.3223(3) 0.17328(7)
N8 N 0.4329(2) 0.4103(3) 0.19032(7)
N9 N 0.4310(2) 0.3076(3) 0.07530(7)
N10 N 0.4874(2) 0.2552(3) 0.05892(7)
N11 N 0.56341(18) 0.2630(3) 0.12260(7)
N12 N 0.5961(2) 0.2242(2) 0.09634(7)
N13 N 0.68190(19) 0.6311(2) 0.08305(7)
N14 N 0.6855(2) 0.5816(2) 0.05503(7)
N15 N 0.8415(2) 0.5280(3) 0.08739(7)
N16 N 0.8148(2) 0.4935(2) 0.05914(7)
Zn2A Zn 0.44723(3) 0.31864(4) 0.124390(10)
N5A N 0.93232(19) 0.9779(3) 0.12394(7)
N7A N 0.93830(19) 0.8223(3) 0.17328(7)
N9A N 0.9310(2) 0.8076(3) 0.07530(7)
N11A N 1.06341(18) 0.7630(3) 0.12260(7)
B1 B 0.7382(3) 0.1324(4) 0.22144(13)
F2 F 0.7927(4) 0.1376(6) 0.19789(12)
F3 F 0.6630(2) 0.1683(4) 0.21140(7)
F4 F 0.7647(2) 0.1911(4) 0.24640(8)
F5 F 0.7283(4) 0.0303(3) 0.23085(9)
B4 B 0.6737(5) -0.0299(6) 0.03544(18)
F14 F 0.6001(3) -0.0755(5) 0.02588(13)
F15 F 0.7331(7) -0.0631(9) 0.01521(19)
F17 F 0.6926(8) -0.0540(7) 0.06572(16)
F19 F 0.6862(10) 0.0804(13) 0.0323(6)
O1 O 0.8505(6) 0.2017(7) 0.0040(2)
N17 N 1.0254(6) 0.4601(7) 0.2091(2)
C33 C 1.0162(9) 0.4180(12) 0.1814(2)
C34 C 1.0126(9) 0.3788(11) 0.1554(3)
H37 H 1.0678 0.3722 0.1475
H38 H 0.9797 0.4236 0.1414
H39 H 0.9873 0.3095 0.1564
B2? B 0.7509(12) 0.1442(12) 0.2244(4)
F6? F 0.782(2) 0.139(3) 0.1954(7)
F7? F 0.7579(13) 0.2444(12) 0.2356(5)
F8? F 0.7987(11) 0.0761(13) 0.2416(4)
F9? F 0.6730(10) 0.1046(16) 0.2234(5)
B3? B 1.0000 0.1857(8) 0.2500
F10? F 1.0325(4) 0.2262(4) 0.27827(11)
F11? F 1.0366(8) 0.2161(9) 0.2269(2)
F12? F 0.9467(3) 0.1026(4) 0.25610(10)
F13? F 0.9315(7) 0.2623(9) 0.2523(3)
F16? F 0.6615(4) 0.0754(4) 0.03233(19)
B5? B 0.7303(9) -0.0088(12) 0.0388(4)
F18? F 0.8110(6) 0.0135(9) 0.0326(3)
F20? F 0.7043(10) -0.0894(12) 0.0201(3)
F21? F 0.7312(9) -0.0412(15) 0.0692(3)
B6? B 0.7147(10) -0.0081(12) 0.0398(5)
F22? F 0.7687(6) 0.0725(9) 0.0465(3)
F23? F 0.6392(8) 0.0363(13) 0.0347(4)
F24? F 0.7320(17) -0.077(2) 0.0163(6)
F25? F 0.7046(18) -0.0645(18) 0.0665(5)
B7? B 0.8620(7) 0.1792(10) 0.0195(3)
F26? F 0.8882(3) 0.0814(4) 0.01926(11)
F27? F 0.7978(3) 0.1898(4) -0.00535(10)
F28? F 0.8285(3) 0.2130(4) 0.04581(10)
F29? F 0.9210(3) 0.2483(4) 0.00987(11)
N18? N 1.0169(7) 0.3582(8) 0.1443(2)
C35? C 1.0212(9) 0.4092(12) 0.1690(3)
C36? C 1.0290(8) 0.4660(9) 0.1943(2)
H40? H 1.0697 0.5209 0.1912
H41? H 1.0467 0.4214 0.2117
H42? H 0.9764 0.4981 0.1987
loop_
_geom_bond_atom_site_label_1
_geom_bond_atom_site_label_2
_geom_bond_site_symmetry_1
_geom_bond_site_symmetry_2
Zn1 F1 1_555 1_555
Zn2 F1 1_555 1_555
C1 H1 1_555 1_555
C2 C1 1_555 1_555
H2 C2 1_555 1_555
H3 C2 1_555 1_555
C3 C2 1_555 1_555
H4 C3 1_555 1_555
H5 C3 1_555 1_555
C4 C3 1_555 1_555
H6 C4 1_555 1_555
C5 H7 1_555 1_555
C6 C5 1_555 1_555
H8 C6 1_555 1_555
H9 C6 1_555 1_555
C7 C6 1_555 1_555
H10 C7 1_555 1_555
H11 C7 1_555 1_555
C8 C7 1_555 1_555
H12 C8 1_555 1_555
C9 H13 1_555 1_555
C10 C9 1_555 1_555
H14 C10 1_555 1_555
C11 C10 1_555 1_555
H15 C11 1_555 1_555
C12 H16 1_555 1_555
C13 C12 1_555 1_555
H17 C13 1_555 1_555
C14 C13 1_555 1_555
H18 C14 1_555 1_555
C15 H19 1_555 1_555
C16 C15 1_555 1_555
H20 C16 1_555 1_555
C17 C16 1_555 1_555
H21 C17 1_555 1_555
C18 H22 1_555 1_555
C19 C18 1_555 1_555
H23 C19 1_555 1_555
C20 C19 1_555 1_555
H24 C20 1_555 1_555
C21 H25 1_555 1_555
C22 C21 1_555 1_555
H26 C22 1_555 1_555
C23 C22 1_555 1_555
H27 C23 1_555 1_555
C24 H28 1_555 1_555
C25 C24 1_555 1_555
H29 C25 1_555 1_555
C26 C25 1_555 1_555
H30 C26 1_555 1_555
C27 H31 1_555 1_555
C28 C27 1_555 1_555
H32 C28 1_555 1_555
C29 C28 1_555 1_555
H33 C29 1_555 1_555
C30 H34 1_555 1_555
C31 C30 1_555 1_555
H35 C31 1_555 1_555
C32 C31 1_555 1_555
H36 C32 1_555 1_555
N1 Zn1 1_555 1_555
N2 C1 1_555 1_555
N3 Zn1 1_555 1_555
N4 C1 1_555 1_555
N5 C17 1_555 1_555
N6 C4 1_555 1_555
N7 C20 1_555 1_555
N8 C4 1_555 1_555
N9 C23 1_555 1_555
N10 C5 1_555 1_555
N11 C26 1_555 1_555
N12 C5 1_555 1_555
N13 Zn1 1_555 1_555
N14 C8 1_555 1_555
N15 Zn1 1_555 1_555
N16 C8 1_555 1_555
B1 F2 1_555 1_555
F3 B1 1_555 1_555
F4 B1 1_555 1_555
F5 B1 1_555 1_555
B4 F14 1_555 1_555
F15 B4 1_555 1_555
F17 B4 1_555 1_555
F19 B4 1_555 1_555
N17 C33 1_555 1_555
C33 C34 1_555 1_555
C34 H37 1_555 1_555
H38 C34 1_555 1_555
H39 C34 1_555 1_555
Zn2A N5 1_555 1_555
N5A Zn2 1_555 1_555
N7A Zn2 1_555 1_555
N9A Zn2 1_555 1_555
N11A Zn2 1_555 1_555
C9 N2 1_555 1_555
C11 N1 1_555 1_555
C12 N4 1_555 1_555
C14 N3 1_555 1_555
C15 N6 1_555 1_555
C18 N8 1_555 1_555
C21 N10 1_555 1_555
C24 N12 1_555 1_555
C27 N14 1_555 1_555
C29 N13 1_555 1_555
C30 N16 1_555 1_555
C32 N15 1_555 1_555
N1 N2 1_555 1_555
N3 N4 1_555 1_555
N5 N6 1_555 1_555
N7 N8 1_555 1_555
N7 Zn2A 1_555 1_555
N9 N10 1_555 1_555
N9 Zn2A 1_555 1_555
N11 N12 1_555 1_555
N11 Zn2A 1_555 1_555
N13 N14 1_555 1_555
N15 N16 1_555 1_555

#END
