
#######################################################################
#
#                 Cambridge Crystallographic Data Centre
#                                CCDC 
#
#######################################################################
#
# If this CIF has been generated from an entry in the Cambridge 
# Structural Database, then it will include bibliographic, chemical, 
# crystal, experimental, refinement or atomic coordinate data resulting 
# from the CCDC's data processing and validation procedures.
#
#######################################################################

data_LIFMIX
_symmetry_cell_setting           monoclinic
_symmetry_space_group_name_H-M   'P 2/n'
_symmetry_Int_Tables_number      13
_space_group_name_Hall           '-P 2yac'
loop_
_symmetry_equiv_pos_site_id
_symmetry_equiv_pos_as_xyz
1 x,y,z
2 1/2-x,y,1/2-z
3 -x,-y,-z
4 1/2+x,-y,1/2+z
_cell_length_a                   14.8793(19)
_cell_length_b                   13.3752(17)
_cell_length_c                   24.586(3)
_cell_angle_alpha                90
_cell_angle_beta                 99.691(2)
_cell_angle_gamma                90
_cell_volume                     4823.13
loop_
_atom_site_label
_atom_site_type_symbol
_atom_site_fract_x
_atom_site_fract_y
_atom_site_fract_z
Cd1 Cd -0.23912(2) -0.31398(2) 0.574288(12)
Cd2 Cd -0.01652(2) -0.15328(2) 0.542943(13)
O1 O -0.1216(2) -0.2081(3) 0.47555(13)
O2 O -0.0982(2) -0.4173(2) 0.61083(13)
O3 O -0.2211(2) -0.3272(2) 0.48610(12)
O4 O -0.2850(2) -0.3633(2) 0.65657(12)
O5 O -0.3005(2) -0.4796(2) 0.59199(13)
O6 O -0.09121(18) -0.2520(2) 0.60907(12)
O9 O -0.4358(2) -0.9129(2) 0.97637(14)
O10 O -0.4259(2) -1.0336(2) 0.91557(13)
N1 N -0.3019(2) -0.1553(3) 0.59355(15)
N2 N -0.3964(2) -0.2957(3) 0.52710(14)
N3 N -0.5698(3) 0.0543(3) 0.57414(18)
N4 N -0.6687(3) -0.0927(3) 0.50670(16)
N5 N 0.0817(2) -0.2865(3) 0.53984(15)
N6 N 0.1270(2) -0.1153(3) 0.59869(14)
N7 N 0.3853(3) -0.4126(3) 0.59401(19)
N8 N 0.4342(3) -0.2352(3) 0.65417(16)
C1 C -0.3061(3) -0.4514(4) 0.63994(19)
C2 C -0.1361(3) -0.2576(4) 0.36421(19)
H1 H -0.0797 -0.2333 0.3812
C3 C 0.0610(3) -0.3676(3) 0.5090(2)
H2 H 0.0014 -0.3747 0.4906
C4 C 0.2341(3) -0.3495(3) 0.5645(2)
C5 C 0.1503(3) -0.2575(3) 0.72646(17)
H3 H 0.1707 -0.2005 0.7465
C6 C 0.0664(3) -0.2557(3) 0.69191(17)
H4 H 0.0325 -0.1970 0.6881
C7 C 0.2040(3) -0.3419(3) 0.73169(17)
C8 C -0.4416(3) -0.3649(4) 0.49466(19)
H5 H -0.4107 -0.4226 0.4875
C9 C -0.1783(3) -0.2731(3) 0.45780(18)
C10 C -0.3619(3) -0.6921(4) 0.70797(19)
H6 H -0.3623 -0.7603 0.7004
C11 C 0.3245(3) -0.3377(4) 0.5962(2)
C12 C -0.3397(3) -0.6248(4) 0.66890(19)
H7 H -0.3260 -0.6481 0.6356
C13 C 0.1682(3) -0.2764(3) 0.56715(18)
C14 C -0.2396(3) -0.2973(3) 0.28066(16)
C15 C -0.3910(3) -0.1363(3) 0.57334(18)
C16 C -0.3021(3) -0.3272(3) 0.31289(18)
H8 H -0.3588 -0.3508 0.2960
C17 C 0.1486(3) -0.0316(3) 0.6270(2)
H9 H 0.1037 0.0168 0.6268
C18 C -0.4417(3) -0.2123(3) 0.53776(17)
C19 C 0.1925(3) -0.1860(3) 0.59902(17)
C20 C 0.2812(3) -0.1719(3) 0.62818(18)
C21 C -0.1990(3) -0.2861(3) 0.39610(17)
C22 C -0.3383(3) -0.5226(3) 0.67992(18)
C23 C -0.5342(3) -0.1965(3) 0.51536(18)
C24 C -0.0575(3) -0.3378(3) 0.62503(17)
C25 C -0.5793(3) -0.1056(4) 0.52881(19)
C26 C 0.0323(3) -0.3405(3) 0.66299(16)
C27 C -0.2818(3) -0.3228(3) 0.37030(18)
H10 H -0.3244 -0.3446 0.3913
C28 C 0.4676(4) -0.3972(5) 0.6224(3)
H11 H 0.5112 -0.4472 0.6230
C29 C -0.2946(3) 0.0009(4) 0.6405(2)
H12 H -0.2600 0.0464 0.6639
C30 C -0.6565(4) 0.0652(4) 0.5517(2)
H13 H -0.6858 0.1244 0.5579
C31 C 0.4922(4) -0.3088(5) 0.6516(2)
H14 H 0.5519 -0.3017 0.6699
C32 C 0.2087(4) -0.4333(4) 0.5314(2)
H15 H 0.2511 -0.4836 0.5291
C33 C 0.3484(3) -0.2510(4) 0.62600(19)
C34 C 0.3011(3) -0.0833(4) 0.65719(19)
H16 H 0.3594 -0.0722 0.6767
C35 C 0.1226(4) -0.4419(4) 0.5025(2)
H17 H 0.1059 -0.4959 0.4792
C36 C 0.2352(3) -0.0126(4) 0.6570(2)
H18 H 0.2475 0.0469 0.6764
C37 C 0.1699(3) -0.4275(3) 0.70319(19)
H19 H 0.2041 -0.4861 0.7070
C38 C 0.0855(3) -0.4263(3) 0.66912(19)
H20 H 0.0642 -0.4839 0.6501
C39 C -0.3631(3) -0.4903(3) 0.72833(19)
H21 H -0.3637 -0.4221 0.7357
C40 C -0.1549(3) -0.2643(4) 0.30773(18)
H22 H -0.1104 -0.2465 0.2871
C41 C -0.3747(3) -0.7052(3) 0.8574(2)
H23 H -0.3536 -0.6410 0.8671
C42 C -0.7057(3) -0.0080(4) 0.5192(2)
H24 H -0.7672 0.0033 0.5059
C43 C -0.3872(3) -0.5569(3) 0.76626(18)
H25 H -0.4064 -0.5330 0.7980
C44 C -0.5790(3) -0.2716(4) 0.48125(19)
H26 H -0.6401 -0.2641 0.4658
C45 C -0.4255(3) -0.8289(3) 0.78897(19)
H27 H -0.4395 -0.8486 0.7522
C46 C -0.5328(3) -0.3553(4) 0.4709(2)
H28 H -0.5618 -0.4054 0.4482
C47 C -0.3967(3) -0.7316(3) 0.80165(19)
C48 C -0.2559(3) -0.0877(4) 0.6261(2)
H29 H -0.1948 -0.1000 0.6400
C49 C -0.3837(3) 0.0203(4) 0.6201(2)
H30 H -0.4099 0.0800 0.6288
C50 C -0.5305(3) -0.0333(3) 0.56228(19)
C51 C -0.4354(3) -0.0491(3) 0.58621(19)
C52 C -0.3832(3) -0.6597(3) 0.75752(18)
C53 C -0.3839(3) -0.7731(3) 0.89789(19)
H31 H -0.3702 -0.7537 0.9347
C54 C -0.4261(3) -0.9433(3) 0.92981(19)
C55 C -0.4339(3) -0.8971(3) 0.83037(19)
H32 H -0.4535 -0.9619 0.8211
C56 C -0.4133(3) -0.8700(3) 0.88521(19)
Cd1A Cd 0.73912(2) -0.31398(2) 0.925712(12)
Cd1A_2 Cd -0.26088(2) -0.31398(2) -0.074288(12)
Cd1C Cd 0.26088(2) -0.68602(2) 0.074288(12)
Cd2A Cd -0.48348(2) -0.15328(2) -0.042943(13)
Cd2C Cd -0.51652(2) -0.84672(2) 1.042943(13)
Cd2A_2 Cd -0.48348(2) -1.15328(2) 0.957057(13)
Cd2A_3 Cd 0.51652(2) -0.15328(2) 0.957057(13)
Cd2B Cd 0.01652(2) 0.15328(2) 0.457057(13)
O1A O -0.3784(2) -0.2081(3) 0.02445(13)
O2A O 0.5982(2) -0.4173(2) 0.88917(13)
O3A O -0.2789(2) -0.3272(2) 0.01390(12)
O3A_2 O 0.7211(2) -0.3272(2) 1.01390(12)
O4C O 0.2150(2) -0.6367(2) 0.15657(12)
O4A O 0.7850(2) -0.3633(2) 0.84343(12)
O5C O 0.1995(2) -0.5204(2) 0.09199(13)
O5A O 0.8005(2) -0.4796(2) 0.90801(13)
O6A O 0.59121(18) -0.2520(2) 0.89093(12)
O6A_2 O -0.40879(18) -0.2520(2) -0.10907(12)
O9C O 0.0642(2) -0.0871(2) 0.47637(14)
O9B O -0.5642(2) -0.0871(2) 0.02363(14)
O10C O 0.0741(2) 0.0336(2) 0.41557(13)
O10A O -0.0741(2) -0.0336(2) 0.58443(13)
O10_2 O -0.4259(2) -0.0336(2) -0.08443(13)
N1A N 0.8019(2) -0.1553(3) 0.90645(15)
N2A N 0.8964(2) -0.2957(3) 0.97290(14)
N3A N 1.0698(3) 0.0543(3) 0.92586(18)
N4A N 1.1687(3) -0.0927(3) 0.99330(16)
N5A N -0.5817(2) -0.2865(3) -0.03984(15)
N6A N -0.6270(2) -0.1153(3) -0.09869(14)
N7A N -0.8853(3) -0.4126(3) -0.09401(19)
N8A N -0.9342(3) -0.2352(3) -0.15417(16)
C1C C 0.1939(3) -0.5486(4) 0.13994(19)
C2A C -0.3639(3) -0.2576(4) 0.13579(19)
H1A H -0.4203 -0.2333 0.1188
C3A C -0.5610(3) -0.3676(3) -0.0090(2)
H2A H -0.5014 -0.3747 0.0094
C4A C -0.7341(3) -0.3495(3) -0.0645(2)
C5A C 0.3497(3) -0.2575(3) 0.77354(17)
H3A H 0.3293 -0.2005 0.7535
C6A C 0.4336(3) -0.2557(3) 0.80809(17)
H4A H 0.4675 -0.1970 0.8119
C7A C 0.2960(3) -0.3419(3) 0.76831(17)
C8A C 0.9416(3) -0.3649(4) 1.00534(19)
H5A H 0.9107 -0.4226 1.0125
C9A C -0.3217(3) -0.2731(3) 0.04220(18)
C10C C 0.1381(3) -0.3079(4) 0.20797(19)
H6C H 0.1377 -0.2397 0.2004
C11A C -0.8245(3) -0.3377(4) -0.0962(2)
C12C C 0.1603(3) -0.3752(4) 0.16890(19)
H7C H 0.1740 -0.3519 0.1356
C13A C -0.6682(3) -0.2764(3) -0.06715(18)
C14A C -0.2604(3) -0.2973(3) 0.21934(16)
C15A C 0.8910(3) -0.1363(3) 0.92666(18)
C16A C -0.1979(3) -0.3272(3) 0.18711(18)
H8A H -0.1412 -0.3508 0.2040
C17A C -0.6486(3) -0.0316(3) -0.1270(2)
H9A H -0.6037 0.0168 -0.1268
C18A C 0.9417(3) -0.2123(3) 0.96224(17)
C19A C -0.6925(3) -0.1860(3) -0.09902(17)
C20A C -0.7812(3) -0.1719(3) -0.12818(18)
C21A C -0.3010(3) -0.2861(3) 0.10390(17)
C22C C 0.1617(3) -0.4774(3) 0.17992(18)
C23A C 1.0342(3) -0.1965(3) 0.98464(18)
C24A C 0.5575(3) -0.3378(3) 0.87497(17)
C25A C 1.0793(3) -0.1056(4) 0.97119(19)
C26A C 0.4677(3) -0.3405(3) 0.83701(16)
C27A C -0.2182(3) -0.3228(3) 0.12970(18)
H10A H -0.1756 -0.3446 0.1087
C28A C -0.9676(4) -0.3972(5) -0.1224(3)
H11A H -1.0112 -0.4472 -0.1230
C29A C 0.7946(3) 0.0009(4) 0.8595(2)
H12A H 0.7600 0.0464 0.8361
C30A C 1.1565(4) 0.0652(4) 0.9483(2)
H13A H 1.1858 0.1244 0.9421
C31A C -0.9922(4) -0.3088(5) -0.1516(2)
H14A H -1.0519 -0.3017 -0.1699
C32A C -0.7087(4) -0.4333(4) -0.0314(2)
H15A H -0.7511 -0.4836 -0.0291
C33A C -0.8484(3) -0.2510(4) -0.12600(19)
C34A C -0.8011(3) -0.0833(4) -0.15719(19)
H16A H -0.8594 -0.0722 -0.1767
C35A C -0.6226(4) -0.4419(4) -0.0025(2)
H17A H -0.6059 -0.4959 0.0208
C36A C -0.7352(3) -0.0126(4) -0.1570(2)
H18A H -0.7475 0.0469 -0.1764
C37A C 0.3301(3) -0.4275(3) 0.79681(19)
H19A H 0.2959 -0.4861 0.7930
C38A C 0.4145(3) -0.4263(3) 0.83088(19)
H20A H 0.4358 -0.4839 0.8499
C39C C 0.1369(3) -0.5097(3) 0.22833(19)
H21C H 0.1363 -0.5779 0.2357
C40A C -0.3451(3) -0.2643(4) 0.19227(18)
H22A H -0.3896 -0.2465 0.2129
C41C C 0.1253(3) -0.2948(3) 0.3574(2)
H23C H 0.1464 -0.3590 0.3671
C42A C 1.2057(3) -0.0080(4) 0.9808(2)
H24A H 1.2672 0.0033 0.9941
C43C C 0.1128(3) -0.4431(3) 0.26626(18)
H25C H 0.0936 -0.4670 0.2980
C44A C 1.0790(3) -0.2716(4) 1.01875(19)
H26A H 1.1401 -0.2641 1.0342
C45C C 0.0745(3) -0.1711(3) 0.28897(19)
H27C H 0.0605 -0.1514 0.2522
C46A C 1.0328(3) -0.3553(4) 1.0291(2)
H28A H 1.0618 -0.4054 1.0518
C47C C 0.1033(3) -0.2684(3) 0.30165(19)
C48A C 0.7559(3) -0.0877(4) 0.8739(2)
H29A H 0.6948 -0.1000 0.8600
C49A C 0.8837(3) 0.0203(4) 0.8799(2)
H30A H 0.9099 0.0800 0.8712
C50A C 1.0305(3) -0.0333(3) 0.93772(19)
C51A C 0.9354(3) -0.0491(3) 0.91379(19)
C52C C 0.1168(3) -0.3403(3) 0.25752(18)
C53C C 0.1161(3) -0.2269(3) 0.39789(19)
H31C H 0.1298 -0.2463 0.4347
C54C C 0.0739(3) -0.0567(3) 0.42981(19)
C55C C 0.0661(3) -0.1029(3) 0.33037(19)
H32C H 0.0465 -0.0381 0.3211
C56C C 0.0867(3) -0.1300(3) 0.38521(19)
O7 O -0.2500 -0.2366(4) 0.7500
O8 O -0.4242(5) -0.1039(4) 0.7383(3)
loop_
_geom_bond_atom_site_label_1
_geom_bond_atom_site_label_2
_geom_bond_site_symmetry_1
_geom_bond_site_symmetry_2
Cd1 O2 1_555 1_555
Cd2 O1 1_555 1_555
O1 C9 1_555 1_555
O2 C24 1_555 1_555
O3 Cd1 1_555 1_555
O4 Cd1 1_555 1_555
O5 Cd1 1_555 1_555
O6 Cd1 1_555 1_555
O9 C54 1_555 1_555
O10 C54 1_555 1_555
N1 Cd1 1_555 1_555
N2 Cd1 1_555 1_555
N3 C30 1_555 1_555
N4 C25 1_555 1_555
N5 Cd2 1_555 1_555
N6 Cd2 1_555 1_555
N7 C11 1_555 1_555
N8 C31 1_555 1_555
C1 O4 1_555 1_555
C2 H1 1_555 1_555
C3 N5 1_555 1_555
H2 C3 1_555 1_555
C4 C11 1_555 1_555
C5 H3 1_555 1_555
C6 C5 1_555 1_555
H4 C6 1_555 1_555
C7 C5 1_555 1_555
C8 N2 1_555 1_555
H5 C8 1_555 1_555
C9 O3 1_555 1_555
C10 H6 1_555 1_555
C11 C33 1_555 1_555
C12 C10 1_555 1_555
H7 C12 1_555 1_555
C13 N5 1_555 1_555
C14 C16 1_555 1_555
C15 N1 1_555 1_555
C16 H8 1_555 1_555
C17 N6 1_555 1_555
H9 C17 1_555 1_555
C18 N2 1_555 1_555
C19 N6 1_555 1_555
C20 C19 1_555 1_555
C21 C2 1_555 1_555
C22 C1 1_555 1_555
C23 C18 1_555 1_555
C24 O6 1_555 1_555
C25 C23 1_555 1_555
C26 C6 1_555 1_555
C27 C16 1_555 1_555
H10 C27 1_555 1_555
C28 N7 1_555 1_555
H11 C28 1_555 1_555
C29 H12 1_555 1_555
C30 H13 1_555 1_555
C31 C28 1_555 1_555
H14 C31 1_555 1_555
C32 C4 1_555 1_555
H15 C32 1_555 1_555
C33 N8 1_555 1_555
C34 C20 1_555 1_555
H16 C34 1_555 1_555
C35 C3 1_555 1_555
H17 C35 1_555 1_555
C36 C17 1_555 1_555
H18 C36 1_555 1_555
C37 C7 1_555 1_555
H19 C37 1_555 1_555
C38 C26 1_555 1_555
H20 C38 1_555 1_555
C39 C22 1_555 1_555
H21 C39 1_555 1_555
C40 C2 1_555 1_555
H22 C40 1_555 1_555
C41 H23 1_555 1_555
C42 N4 1_555 1_555
H24 C42 1_555 1_555
C43 C39 1_555 1_555
H25 C43 1_555 1_555
C44 C23 1_555 1_555
H26 C44 1_555 1_555
C45 H27 1_555 1_555
C46 C8 1_555 1_555
H28 C46 1_555 1_555
C47 C41 1_555 1_555
C48 N1 1_555 1_555
H29 C48 1_555 1_555
C49 C29 1_555 1_555
H30 C49 1_555 1_555
C50 N3 1_555 1_555
C51 C15 1_555 1_555
C52 C10 1_555 1_555
C53 C41 1_555 1_555
H31 C53 1_555 1_555
C54 C56 1_555 1_555
C55 C45 1_555 1_555
H32 C55 1_555 1_555
C56 C53 1_555 1_555
Cd1A O2A 1_555 1_555
Cd1A_2 O3A 1_555 1_555
Cd1C O4C 1_555 1_555
Cd2A O1A 1_555 1_555
Cd2C O9 1_555 1_555
Cd2A_2 O10 1_555 1_555
Cd2A_3 O6A 1_555 1_555
Cd2B O10C 1_555 1_555
O1A C9A 1_555 1_555
O2A C24A 1_555 1_555
O3A C9A 1_555 1_555
O3A_2 Cd1A 1_555 1_555
O4C C1C 1_555 1_555
O4A Cd1A 1_555 1_555
O5C Cd1C 1_555 1_555
O5A Cd1A 1_555 1_555
O6A Cd1A 1_555 1_555
O6A_2 Cd1A_2 1_555 1_555
O9C Cd2 1_555 1_555
O9B Cd2A 1_555 1_555
O10C C54C 1_555 1_555
O10A Cd2 1_555 1_555
O10_2 Cd2A 1_555 1_555
N1A Cd1A 1_555 1_555
N2A Cd1A 1_555 1_555
N3A C30A 1_555 1_555
N4A C25A 1_555 1_555
N5A Cd2A 1_555 1_555
N6A Cd2A 1_555 1_555
N7A C11A 1_555 1_555
N8A C31A 1_555 1_555
C1C O5C 1_555 1_555
C2A H1A 1_555 1_555
C3A N5A 1_555 1_555
H2A C3A 1_555 1_555
C4A C11A 1_555 1_555
C5A H3A 1_555 1_555
C6A C5A 1_555 1_555
H4A C6A 1_555 1_555
C7A C7 1_555 1_555
C8A N2A 1_555 1_555
H5A C8A 1_555 1_555
C9A C21A 1_555 1_555
C10C H6C 1_555 1_555
C11A C33A 1_555 1_555
C12C C10C 1_555 1_555
H7C C12C 1_555 1_555
C13A N5A 1_555 1_555
C14A C14 1_555 1_555
C15A N1A 1_555 1_555
C16A C14A 1_555 1_555
H8A C16A 1_555 1_555
C17A N6A 1_555 1_555
H9A C17A 1_555 1_555
C18A N2A 1_555 1_555
C19A N6A 1_555 1_555
C20A C19A 1_555 1_555
C21A C2A 1_555 1_555
C22C C1C 1_555 1_555
C23A C18A 1_555 1_555
C24A O6A 1_555 1_555
C25A C23A 1_555 1_555
C26A C6A 1_555 1_555
C27A C16A 1_555 1_555
H10A C27A 1_555 1_555
C28A N7A 1_555 1_555
H11A C28A 1_555 1_555
C29A H12A 1_555 1_555
C30A H13A 1_555 1_555
C31A C28A 1_555 1_555
H14A C31A 1_555 1_555
C32A C4A 1_555 1_555
H15A C32A 1_555 1_555
C33A N8A 1_555 1_555
C34A C20A 1_555 1_555
H16A C34A 1_555 1_555
C35A C3A 1_555 1_555
H17A C35A 1_555 1_555
C36A C17A 1_555 1_555
H18A C36A 1_555 1_555
C37A C7A 1_555 1_555
H19A C37A 1_555 1_555
C38A C26A 1_555 1_555
H20A C38A 1_555 1_555
C39C C22C 1_555 1_555
H21C C39C 1_555 1_555
C40A C2A 1_555 1_555
H22A C40A 1_555 1_555
C41C H23C 1_555 1_555
C42A N4A 1_555 1_555
H24A C42A 1_555 1_555
C43C C39C 1_555 1_555
H25C C43C 1_555 1_555
C44A C23A 1_555 1_555
H26A C44A 1_555 1_555
C45C H27C 1_555 1_555
C46A C8A 1_555 1_555
H28A C46A 1_555 1_555
C47C C41C 1_555 1_555
C48A N1A 1_555 1_555
H29A C48A 1_555 1_555
C49A C29A 1_555 1_555
H30A C49A 1_555 1_555
C50A N3A 1_555 1_555
C51A C15A 1_555 1_555
C52C C10C 1_555 1_555
C53C C41C 1_555 1_555
H31C C53C 1_555 1_555
C54C O9C 1_555 1_555
C55C C45C 1_555 1_555
H32C C55C 1_555 1_555
C56C C53C 1_555 1_555
Cd2 O6 1_555 1_555
O5 C1 1_555 1_555
C4 C13 1_555 1_555
C9 C21 1_555 1_555
C12 C22 1_555 1_555
C13 C19 1_555 1_555
C14 C40 1_555 1_555
C15 C18 1_555 1_555
C20 C33 1_555 1_555
C21 C27 1_555 1_555
C24 C26 1_555 1_555
C25 C50 1_555 1_555
C29 C48 1_555 1_555
C30 C42 1_555 1_555
C32 C35 1_555 1_555
C34 C36 1_555 1_555
C37 C38 1_555 1_555
C43 C52 1_555 1_555
C44 C46 1_555 1_555
C45 C47 1_555 1_555
C47 C52 1_555 1_555
C49 C51 1_555 1_555
C50 C51 1_555 1_555
C55 C56 1_555 1_555
Cd2A O6A_2 1_555 1_555
C4A C13A 1_555 1_555
C5A C7A 1_555 1_555
C12C C22C 1_555 1_555
C13A C19A 1_555 1_555
C14A C40A 1_555 1_555
C15A C18A 1_555 1_555
C20A C33A 1_555 1_555
C21A C27A 1_555 1_555
C24A C26A 1_555 1_555
C25A C50A 1_555 1_555
C29A C48A 1_555 1_555
C30A C42A 1_555 1_555
C32A C35A 1_555 1_555
C34A C36A 1_555 1_555
C37A C38A 1_555 1_555
C43C C52C 1_555 1_555
C44A C46A 1_555 1_555
C45C C47C 1_555 1_555
C47C C52C 1_555 1_555
C49A C51A 1_555 1_555
C50A C51A 1_555 1_555
C54C C56C 1_555 1_555
C55C C56C 1_555 1_555

#END
