
#######################################################################
#
#                 Cambridge Crystallographic Data Centre
#                                CCDC 
#
#######################################################################
#
# If this CIF has been generated from an entry in the Cambridge 
# Structural Database, then it will include bibliographic, chemical, 
# crystal, experimental, refinement or atomic coordinate data resulting 
# from the CCDC's data processing and validation procedures.
#
#######################################################################

data_LIFMET
_symmetry_cell_setting           monoclinic
_symmetry_space_group_name_H-M   'P 21/c'
_symmetry_Int_Tables_number      14
_space_group_name_Hall           '-P 2ybc'
loop_
_symmetry_equiv_pos_site_id
_symmetry_equiv_pos_as_xyz
1 x,y,z
2 -x,1/2+y,1/2-z
3 -x,-y,-z
4 x,1/2-y,1/2+z
_cell_length_a                   12.617(6)
_cell_length_b                   13.153(6)
_cell_length_c                   11.107(5)
_cell_angle_alpha                90
_cell_angle_beta                 91.425(5)
_cell_angle_gamma                90
_cell_volume                     1842.65
loop_
_atom_site_label
_atom_site_type_symbol
_atom_site_fract_x
_atom_site_fract_y
_atom_site_fract_z
Cd1 Cd -0.083150(14) -0.364910(15) -0.573710(17)
O1 O -0.01101(15) -0.32568(17) -0.38943(17)
N1 N -0.59863(18) -0.4100(2) -0.8002(2)
C1 C 0.2484(2) -0.3358(2) -0.0520(3)
H1 H 0.2888 -0.3219 0.0172
O2 O -0.07988(15) -0.46355(15) -0.16796(19)
N2 N -0.22064(17) -0.38026(16) -0.7293(2)
C2 C -0.4087(2) -0.3946(2) -0.7685(2)
O3 O -0.09580(14) -0.30713(15) -0.10056(17)
N3 N -0.25089(18) -0.36156(16) -0.4876(2)
C3 C -0.2059(2) -0.3898(2) -0.8470(2)
H2 H -0.1369 -0.3881 -0.8743
O4 O 0.09120(16) -0.45323(16) -0.44768(16)
C4 C 0.1393(2) -0.3456(2) -0.0450(2)
H3 H 0.1073 -0.3389 0.0291
O5 O 0.03246(18) -0.3666(2) -0.7260(2)
C5 C 0.0653(2) -0.3876(2) -0.3725(2)
C6 C -0.5158(2) -0.3960(2) -0.7220(2)
C7 C -0.3214(2) -0.38243(19) -0.6902(2)
C8 C -0.3637(2) -0.3518(2) -0.3189(3)
H4 H -0.3702 -0.3448 -0.2361
C9 C -0.2641(2) -0.3528(2) -0.3694(3)
H5 H -0.2045 -0.3471 -0.3189
C10 C -0.3906(2) -0.4049(2) -0.8920(2)
H6 H -0.4470 -0.4134 -0.9466
C11 C 0.1279(2) -0.37545(19) -0.2576(2)
C12 C -0.0415(2) -0.3799(2) -0.1388(2)
C13 C -0.4521(2) -0.3611(2) -0.3919(3)
H7 H -0.5193 -0.3606 -0.3592
C14 C -0.3371(2) -0.37132(18) -0.5606(2)
C15 C 0.0774(2) -0.36521(18) -0.1474(2)
C16 C -0.5308(2) -0.38488(19) -0.5982(2)
C17 C -0.4402(2) -0.37135(19) -0.5166(2)
C18 C 0.2380(2) -0.3666(2) -0.2636(3)
H8 H 0.2710 -0.3742 -0.3369
N4 N -0.62868(18) -0.38974(18) -0.5512(2)
C19 C 0.2973(2) -0.3465(2) -0.1607(3)
H9 H 0.3706 -0.3402 -0.1646
C20 C -0.7080(2) -0.4042(2) -0.6287(3)
H10 H -0.7765 -0.4077 -0.6002
C21 C -0.2879(2) -0.4022(2) -0.9310(3)
H11 H -0.2738 -0.4087 -1.0124
C22 C -0.6928(2) -0.4143(3) -0.7520(3)
H12 H -0.7518 -0.4246 -0.8024
H13 H 0.042(3) -0.423(3) -0.768(4)
H14 H 0.026(3) -0.325(3) -0.768(3)
Cd1C Cd -0.083150(14) -0.135090(15) -0.073710(17)
Cd1B Cd 0.083150(14) -0.635090(15) -0.426290(17)
O3C O -0.09580(14) -0.19287(15) -0.60056(17)
O4B O -0.09120(16) -0.54677(16) -0.55232(16)
loop_
_geom_bond_atom_site_label_1
_geom_bond_atom_site_label_2
_geom_bond_site_symmetry_1
_geom_bond_site_symmetry_2
Cd1 O1 1_555 1_555
O1 C5 1_555 1_555
N1 C6 1_555 1_555
C1 H1 1_555 1_555
O2 C12 1_555 1_555
N2 Cd1 1_555 1_555
C2 C6 1_555 1_555
O3 C12 1_555 1_555
N3 Cd1 1_555 1_555
C3 N2 1_555 1_555
H2 C3 1_555 1_555
O4 C5 1_555 1_555
C4 C1 1_555 1_555
H3 C4 1_555 1_555
O5 Cd1 1_555 1_555
C5 C11 1_555 1_555
C6 C16 1_555 1_555
C7 N2 1_555 1_555
C8 H4 1_555 1_555
C9 N3 1_555 1_555
H5 C9 1_555 1_555
C10 C2 1_555 1_555
H6 C10 1_555 1_555
C11 C15 1_555 1_555
C12 C15 1_555 1_555
C13 C8 1_555 1_555
H7 C13 1_555 1_555
C14 N3 1_555 1_555
C15 C4 1_555 1_555
C16 C17 1_555 1_555
C17 C13 1_555 1_555
C18 C11 1_555 1_555
H8 C18 1_555 1_555
N4 C16 1_555 1_555
C19 C1 1_555 1_555
H9 C19 1_555 1_555
C20 N4 1_555 1_555
H10 C20 1_555 1_555
C21 C3 1_555 1_555
H11 C21 1_555 1_555
C22 N1 1_555 1_555
H12 C22 1_555 1_555
H13 O5 1_555 1_555
H14 O5 1_555 1_555
Cd1C O3 1_555 1_555
Cd1B O4 1_555 1_555
O3C Cd1 1_555 1_555
O4B Cd1 1_555 1_555
C2 C7 1_555 1_555
C7 C14 1_555 1_555
C8 C9 1_555 1_555
C10 C21 1_555 1_555
C14 C17 1_555 1_555
C18 C19 1_555 1_555
C20 C22 1_555 1_555

#END
