
#######################################################################
#
#                 Cambridge Crystallographic Data Centre
#                                CCDC 
#
#######################################################################
#
# If this CIF has been generated from an entry in the Cambridge 
# Structural Database, then it will include bibliographic, chemical, 
# crystal, experimental, refinement or atomic coordinate data resulting 
# from the CCDC's data processing and validation procedures.
#
#######################################################################

data_LIFMEU
_symmetry_cell_setting           orthorhombic
_symmetry_space_group_name_H-M   'P 21 21 21'
_symmetry_Int_Tables_number      19
_space_group_name_Hall           'P 2ac 2ab'
loop_
_symmetry_equiv_pos_site_id
_symmetry_equiv_pos_as_xyz
1 x,y,z
2 1/2-x,-y,1/2+z
3 -x,1/2+y,1/2-z
4 1/2+x,1/2-y,-z
_cell_length_a                   7.1082(7)
_cell_length_b                   16.2091(15)
_cell_length_c                   22.357(2)
_cell_angle_alpha                90
_cell_angle_beta                 90
_cell_angle_gamma                90
_cell_volume                     2575.92
loop_
_atom_site_label
_atom_site_type_symbol
_atom_site_fract_x
_atom_site_fract_y
_atom_site_fract_z
Co1 Co 0.15230(7) 0.58734(3) 0.86250(2)
N1 N 0.0035(4) 0.6891(2) 0.88950(14)
N2 N -0.2080(5) 0.7755(2) 0.92594(15)
N3 N -0.9623(5) 1.0026(2) 0.67110(15)
N4 N -0.7282(5) 0.9465(2) 0.72233(15)
O1 O 0.2412(4) 0.6277(2) 0.78138(14)
O2 O 0.4547(4) 0.6670(2) 0.84540(14)
O3 O 1.1240(4) 0.51862(17) 0.37261(12)
O4 O 1.2665(4) 0.45314(18) 0.44522(12)
C1 C 0.3970(6) 0.6591(3) 0.7937(2)
C2 C 0.5203(5) 0.6849(2) 0.74164(18)
C3 C 0.4458(6) 0.6908(3) 0.6847(2)
H1 H 0.3188 0.6799 0.6786
C4 C 0.5565(7) 0.7126(3) 0.6370(2)
H2 H 0.5026 0.7164 0.5992
C5 C 0.7439(6) 0.7289(2) 0.6435(2)
C6 C 0.8211(6) 0.7212(3) 0.7004(2)
H3 H 0.9491 0.7304 0.7059
C7 C 0.7098(6) 0.7002(2) 0.74869(19)
H4 H 0.7634 0.6963 0.7865
C8 C 0.8666(8) 0.7556(3) 0.59119(19)
H5 H 0.9776 0.7830 0.6068
H6 H 0.7975 0.7955 0.5675
C9 C 0.9289(6) 0.6853(3) 0.55061(19)
C10 C 0.8476(7) 0.6742(3) 0.49441(19)
H7 H 0.7460 0.7067 0.4829
C11 C 0.9169(6) 0.6153(3) 0.4558(2)
H8 H 0.8627 0.6093 0.4182
C12 C 1.0657(6) 0.5648(2) 0.47188(17)
C13 C 1.1381(6) 0.5726(3) 0.52908(17)
H9 H 1.2334 0.5374 0.5417
C14 C 1.0703(6) 0.6318(3) 0.5672(2)
H10 H 1.1213 0.6360 0.6054
C15 C 1.1531(6) 0.5087(3) 0.42708(18)
C16 C 0.0757(6) 0.7679(3) 0.89170(19)
H11 H 0.1962 0.7825 0.8794
C17 C -0.0513(7) 0.8206(3) 0.9140(2)
H12 H -0.0353 0.8769 0.9202
C18 C -0.1692(6) 0.6972(2) 0.91073(16)
H13 H -0.2539 0.6538 0.9147
C19 C -0.3863(6) 0.8059(3) 0.94998(18)
H14 H -0.3651 0.8264 0.9902
H15 H -0.4738 0.7601 0.9527
C20 C -0.4752(5) 0.8734(2) 0.91315(18)
C21 C -0.5774(6) 0.9335(3) 0.94213(19)
H16 H -0.5815 0.9344 0.9837
C22 C -0.6737(7) 0.9924(3) 0.9098(2)
H17 H -0.7455 1.0318 0.9296
C23 C -0.6635(7) 0.9928(3) 0.8479(2)
H18 H -0.7273 1.0331 0.8264
C24 C -0.5593(5) 0.9339(2) 0.81807(18)
C25 C -0.4677(5) 0.8744(2) 0.85134(17)
H19 H -0.3990 0.8339 0.8316
C26 C -0.5446(6) 0.9353(3) 0.75094(18)
H20 H -0.4616 0.9798 0.7390
H21 H -0.4895 0.8838 0.7373
C27 C -0.8808(7) 0.8961(3) 0.7291(2)
H22 H -0.8863 0.8475 0.7512
C28 C -1.0209(6) 0.9304(3) 0.6978(2)
H23 H -1.1413 0.9084 0.6944
C29 C -0.7831(6) 1.0091(3) 0.68720(18)
H24 H -0.7047 1.0520 0.6755
Co1A Co 1.34770(7) 0.41266(3) 0.36250(2)
Co1B Co -1.15230(7) 1.08734(3) 0.63750(2)
N3B N -0.0377(5) 0.5026(2) 0.82890(15)
O3A O 0.3760(4) 0.48138(17) 0.87261(12)
O4A O 0.2335(4) 0.54686(18) 0.94522(12)
loop_
_geom_bond_atom_site_label_1
_geom_bond_atom_site_label_2
_geom_bond_site_symmetry_1
_geom_bond_site_symmetry_2
Co1 N1 1_555 1_555
N1 C16 1_555 1_555
N2 C17 1_555 1_555
N3 C28 1_555 1_555
N4 C26 1_555 1_555
O1 Co1 1_555 1_555
O2 C1 1_555 1_555
O3 C15 1_555 1_555
O4 C15 1_555 1_555
C1 O1 1_555 1_555
C2 C1 1_555 1_555
C3 C2 1_555 1_555
H1 C3 1_555 1_555
C4 C3 1_555 1_555
H2 C4 1_555 1_555
C5 C4 1_555 1_555
C6 C5 1_555 1_555
H3 C6 1_555 1_555
C7 C2 1_555 1_555
H4 C7 1_555 1_555
C8 C5 1_555 1_555
H5 C8 1_555 1_555
H6 C8 1_555 1_555
C9 C8 1_555 1_555
C10 C9 1_555 1_555
H7 C10 1_555 1_555
C11 C10 1_555 1_555
H8 C11 1_555 1_555
C12 C11 1_555 1_555
C13 C12 1_555 1_555
H9 C13 1_555 1_555
C14 C9 1_555 1_555
H10 C14 1_555 1_555
C15 C12 1_555 1_555
C16 H11 1_555 1_555
C17 C16 1_555 1_555
H12 C17 1_555 1_555
C18 N1 1_555 1_555
H13 C18 1_555 1_555
C19 N2 1_555 1_555
H14 C19 1_555 1_555
H15 C19 1_555 1_555
C20 C19 1_555 1_555
C21 C20 1_555 1_555
H16 C21 1_555 1_555
C22 C21 1_555 1_555
H17 C22 1_555 1_555
C23 C22 1_555 1_555
H18 C23 1_555 1_555
C24 C23 1_555 1_555
C25 C20 1_555 1_555
H19 C25 1_555 1_555
C26 C24 1_555 1_555
H20 C26 1_555 1_555
H21 C26 1_555 1_555
C27 N4 1_555 1_555
H22 C27 1_555 1_555
C28 C27 1_555 1_555
H23 C28 1_555 1_555
C29 N3 1_555 1_555
H24 C29 1_555 1_555
Co1A O3 1_555 1_555
Co1B N3 1_555 1_555
N3B Co1 1_555 1_555
O3A Co1 1_555 1_555
O4A Co1 1_555 1_555
N2 C18 1_555 1_555
N4 C29 1_555 1_555
O4 Co1A 1_555 1_555
C6 C7 1_555 1_555
C13 C14 1_555 1_555
C24 C25 1_555 1_555

#END
