
#######################################################################
#
#                 Cambridge Crystallographic Data Centre
#                                CCDC 
#
#######################################################################
#
# If this CIF has been generated from an entry in the Cambridge 
# Structural Database, then it will include bibliographic, chemical, 
# crystal, experimental, refinement or atomic coordinate data resulting 
# from the CCDC's data processing and validation procedures.
#
#######################################################################

data_LIFMIY
_symmetry_cell_setting           triclinic
_symmetry_space_group_name_H-M   'P -1'
_symmetry_Int_Tables_number      2
_space_group_name_Hall           '-P 1'
loop_
_symmetry_equiv_pos_site_id
_symmetry_equiv_pos_as_xyz
1 x,y,z
2 -x,-y,-z
_cell_length_a                   10.1710(14)
_cell_length_b                   11.0300(15)
_cell_length_c                   13.002(3)
_cell_angle_alpha                97.268(2)
_cell_angle_beta                 104.277(2)
_cell_angle_gamma                112.853(2)
_cell_volume                     1261.63
loop_
_atom_site_label
_atom_site_type_symbol
_atom_site_fract_x
_atom_site_fract_y
_atom_site_fract_z
Co1 Co 0.78652(4) 0.52880(3) 0.61884(3)
N1 N 0.8145(2) 0.6551(2) 0.51461(16)
N2 N 0.9172(3) 0.7674(2) 0.40554(17)
N3 N 0.6326(3) 0.7302(2) -0.17490(18)
N4 N 0.6750(3) 0.5996(2) -0.29191(16)
O1 O 0.8184(2) 0.39067(19) 0.49549(16)
O2 O 0.6091(2) 0.33889(18) 0.53532(14)
O3 O 0.0070(2) -0.2972(2) -0.25635(16)
O4 O -0.0707(3) -0.5136(2) -0.25976(17)
C1 C 0.6866(3) 0.3079(3) 0.4828(2)
C2 C 0.6212(3) 0.1696(3) 0.40719(19)
C3 C 0.7072(3) 0.1369(3) 0.3513(2)
H1 H 0.8013 0.2028 0.3563
C4 C 0.6534(3) 0.0061(3) 0.2877(2)
H2 H 0.7121 -0.0145 0.2505
C5 C 0.5136(3) -0.0944(3) 0.27866(19)
C6 C 0.4267(3) -0.0586(3) 0.3316(2)
H3 H 0.3308 -0.1232 0.3242
C7 C 0.4798(3) 0.0714(3) 0.3955(2)
H4 H 0.4197 0.0928 0.4309
C8 C 0.4602(3) -0.2379(3) 0.2164(2)
H5 H 0.4113 -0.2985 0.2574
H6 H 0.5476 -0.2518 0.2126
C9 C 0.0205(3) -0.3910(4) -0.2158(2)
C10 C 0.1439(3) -0.3531(3) -0.1096(2)
C11 C 0.1441(4) -0.4479(3) -0.0487(2)
H7 H 0.0739 -0.5382 -0.0780
C12 C 0.2467(4) -0.4100(3) 0.0543(2)
H8 H 0.2447 -0.4755 0.0933
C13 C 0.3521(3) -0.2780(3) 0.1011(2)
C14 C 0.3562(3) -0.1840(3) 0.0385(2)
H9 H 0.4297 -0.0948 0.0666
C15 C 0.2528(3) -0.2213(3) -0.0647(2)
H10 H 0.2568 -0.1564 -0.1046
C16 C 0.8972(3) 0.6622(3) 0.4501(2)
H11 H 0.9368 0.6009 0.4371
C17 C 0.7784(3) 0.7628(3) 0.5092(2)
H12 H 0.7199 0.7842 0.5463
C18 C 0.8400(3) 0.8321(3) 0.4423(2)
H13 H 0.8321 0.9086 0.4244
C19 C 1.0073(4) 0.8085(4) 0.3326(3)
H14 H 1.0469 0.7434 0.3182
H15 H 1.0922 0.8963 0.3692
C20 C 0.9172(3) 0.8175(3) 0.2253(2)
C21 C 0.7882(4) 0.7074(3) 0.1570(3)
H16 H 0.7554 0.6264 0.1785
C22 C 0.7068(4) 0.7139(3) 0.0585(3)
H17 H 0.6201 0.6377 0.0145
C23 C 0.7526(4) 0.8332(3) 0.0238(2)
C24 C 0.8801(4) 0.9434(3) 0.0922(3)
H18 H 0.9129 1.0245 0.0709
C25 C 0.9607(4) 0.9367(3) 0.1918(3)
H19 H 1.0456 1.0136 0.2369
C26 C 0.6641(4) 0.8422(3) -0.0843(2)
H20 H 0.5696 0.8402 -0.0796
H21 H 0.7206 0.9279 -0.0991
C27 C 0.7361(3) 0.7083(3) -0.2106(2)
H22 H 0.8392 0.7638 -0.1813
C28 C 0.4961(4) 0.6292(3) -0.2378(3)
H23 H 0.4026 0.6173 -0.2325
C29 C 0.5230(3) 0.5493(3) -0.3094(2)
H24 H 0.4496 0.4720 -0.3626
Co1_2 Co -0.21348(4) -0.47120(3) -0.38116(3)
Co1_3 Co 0.78652(4) 0.52880(3) -0.38116(3)
N4_2 N 0.6750(3) 0.5996(2) 0.70809(16)
O3_2 O 1.0070(2) 0.7028(2) 0.74365(16)
O4_2 O 0.9293(3) 0.4864(2) 0.74024(17)
loop_
_geom_bond_atom_site_label_1
_geom_bond_atom_site_label_2
_geom_bond_site_symmetry_1
_geom_bond_site_symmetry_2
Co1 N1 1_555 1_555
N1 C16 1_555 1_555
N2 C16 1_555 1_555
N3 C26 1_555 1_555
N4 C27 1_555 1_555
O1 Co1 1_555 1_555
O2 Co1 1_555 1_555
O3 C9 1_555 1_555
O4 C9 1_555 1_555
C1 O1 1_555 1_555
C2 C1 1_555 1_555
C3 C2 1_555 1_555
H1 C3 1_555 1_555
C4 C3 1_555 1_555
H2 C4 1_555 1_555
C5 C4 1_555 1_555
C6 C5 1_555 1_555
H3 C6 1_555 1_555
C7 C2 1_555 1_555
H4 C7 1_555 1_555
C8 C5 1_555 1_555
H5 C8 1_555 1_555
H6 C8 1_555 1_555
C9 C10 1_555 1_555
C10 C11 1_555 1_555
C11 H7 1_555 1_555
C12 C11 1_555 1_555
H8 C12 1_555 1_555
C13 C8 1_555 1_555
C14 C13 1_555 1_555
H9 C14 1_555 1_555
C15 C10 1_555 1_555
H10 C15 1_555 1_555
C16 H11 1_555 1_555
C17 N1 1_555 1_555
H12 C17 1_555 1_555
C18 N2 1_555 1_555
H13 C18 1_555 1_555
C19 N2 1_555 1_555
H14 C19 1_555 1_555
H15 C19 1_555 1_555
C20 C19 1_555 1_555
C21 C20 1_555 1_555
H16 C21 1_555 1_555
C22 C21 1_555 1_555
H17 C22 1_555 1_555
C23 C22 1_555 1_555
C24 C23 1_555 1_555
H18 C24 1_555 1_555
C25 C20 1_555 1_555
H19 C25 1_555 1_555
C26 C23 1_555 1_555
H20 C26 1_555 1_555
H21 C26 1_555 1_555
C27 N3 1_555 1_555
H22 C27 1_555 1_555
C28 N3 1_555 1_555
H23 C28 1_555 1_555
C29 N4 1_555 1_555
H24 C29 1_555 1_555
Co1_2 O3 1_555 1_555
Co1_3 N4 1_555 1_555
N4_2 Co1 1_555 1_555
O3_2 Co1 1_555 1_555
O4_2 Co1 1_555 1_555
O2 C1 1_555 1_555
O4 Co1_2 1_555 1_555
C6 C7 1_555 1_555
C12 C13 1_555 1_555
C14 C15 1_555 1_555
C17 C18 1_555 1_555
C24 C25 1_555 1_555
C28 C29 1_555 1_555

#END
