
#######################################################################
#
#                 Cambridge Crystallographic Data Centre
#                                CCDC 
#
#######################################################################
#
# If this CIF has been generated from an entry in the Cambridge 
# Structural Database, then it will include bibliographic, chemical, 
# crystal, experimental, refinement or atomic coordinate data resulting 
# from the CCDC's data processing and validation procedures.
#
#######################################################################

data_LIFNIY
_symmetry_cell_setting           orthorhombic
_symmetry_space_group_name_H-M   'C m c a'
_symmetry_Int_Tables_number      64
_space_group_name_Hall           '-C 2ac 2'
loop_
_symmetry_equiv_pos_site_id
_symmetry_equiv_pos_as_xyz
1 x,y,z
2 1/2+x,1/2+y,z
3 -x,1/2-y,1/2+z
4 -x,1/2+y,1/2-z
5 x,-y,-z
6 1/2-x,-y,1/2+z
7 1/2-x,y,1/2-z
8 1/2+x,1/2-y,-z
9 -x,-y,-z
10 1/2-x,1/2-y,-z
11 x,1/2+y,1/2-z
12 x,1/2-y,1/2+z
13 -x,y,z
14 1/2+x,y,1/2-z
15 1/2+x,-y,1/2+z
16 1/2-x,1/2+y,z
_cell_length_a                   12.500(3)
_cell_length_b                   16.550(4)
_cell_length_c                   14.409(4)
_cell_angle_alpha                90
_cell_angle_beta                 90
_cell_angle_gamma                90
_cell_volume                     2980.86
loop_
_atom_site_label
_atom_site_type_symbol
_atom_site_fract_x
_atom_site_fract_y
_atom_site_fract_z
Cd1 Cd -0.5000 0.071660(19) -0.39505(2)
O1 O -0.5000 0.1677(2) -0.2682(3)
O3 O -0.5000 0.2189(2) -0.4095(2)
O4 O -0.5000 0.4660(2) -0.2124(2)
O5 O -0.5000 0.4268(2) -0.0669(2)
N1 N -0.3187(2) 0.07895(17) -0.4201(2)
N2 N 0.0000 0.1404(2) -0.4748(3)
H2 H 0.0000 0.185(2) -0.508(3)
C1 C -0.2398(3) 0.0395(2) -0.3768(2)
H3 H -0.2595 -0.0020 -0.3346
C2 C -0.1318(3) 0.0545(2) -0.3887(2)
H4 H -0.0796 0.0249 -0.3550
C3 C -0.1018(3) 0.1147(2) -0.4522(2)
C4 C 0.1844(3) 0.1547(2) -0.4995(2)
H5 H 0.1677 0.1953 -0.5438
C5 C 0.2888(3) 0.1354(2) -0.4818(3)
H6 H 0.3431 0.1635 -0.5150
C6 C -0.5000 0.2271(3) -0.3224(3)
C7 C -0.5000 0.3132(3) -0.2858(4)
H7 H -0.570(2) 0.330(3) -0.304(3)
C8 C -0.5000 0.3232(3) -0.1828(4)
H8 H -0.438(2) 0.298(2) -0.158(3)
C9 C -0.5000 0.4108(3) -0.1520(3)
Cd1J Cd -0.5000 0.571660(19) -0.10495(2)
Cd1K Cd -0.5000 0.428340(19) 0.10495(2)
Cd1_2 Cd 0.5000 0.071660(19) -0.39505(2)
O4J O -0.5000 -0.0340(2) -0.2876(2)
O5J O -0.5000 -0.0732(2) -0.4331(2)
O5K O -0.5000 0.0732(2) -0.5669(2)
N1L N 0.3187(2) 0.07895(17) -0.4201(2)
N1L_2 N -0.6813(2) 0.07895(17) -0.4201(2)
C1L C 0.2398(3) 0.0395(2) -0.3768(2)
H3L H 0.2595 -0.0020 -0.3346
C2L C 0.1318(3) 0.0545(2) -0.3887(2)
H4L H 0.0796 0.0249 -0.3550
C3L C 0.1018(3) 0.1147(2) -0.4522(2)
C4L C -0.1844(3) 0.1547(2) -0.4995(2)
H5L H -0.1677 0.1953 -0.5438
C5L C -0.2888(3) 0.1354(2) -0.4818(3)
H6L H -0.3431 0.1635 -0.5150
H7L H -0.430(2) 0.330(3) -0.304(3)
H8L H -0.562(2) 0.298(2) -0.158(3)
O2 O -0.2500 0.7764(5) 0.2500
H1 H -0.312(4) 0.806(4) 0.240(7)
H1F H -0.188(4) 0.806(4) 0.260(7)
loop_
_geom_bond_atom_site_label_1
_geom_bond_atom_site_label_2
_geom_bond_site_symmetry_1
_geom_bond_site_symmetry_2
Cd1 O1 1_555 1_555
O1 C6 1_555 1_555
O2 H1 1_555 1_555
O3 Cd1 1_555 1_555
O4 C9 1_555 1_555
O5 C9 1_555 1_555
N1 Cd1 1_555 1_555
N2 H2 1_555 1_555
C1 N1 1_555 1_555
H3 C1 1_555 1_555
C2 C1 1_555 1_555
H4 C2 1_555 1_555
C3 N2 1_555 1_555
C4 H5 1_555 1_555
C5 C4 1_555 1_555
H6 C5 1_555 1_555
C6 O3 1_555 1_555
C7 C6 1_555 1_555
H7 C7 1_555 1_555
C8 C7 1_555 1_555
H8 C8 1_555 1_555
C9 C8 1_555 1_555
Cd1J O4 1_555 1_555
Cd1K O5 1_555 1_555
Cd1_2 N1L 1_555 1_555
H1F O2 1_555 1_555
O4J Cd1 1_555 1_555
O5J Cd1 1_555 1_555
O5K Cd1 1_555 1_555
N1L C5 1_555 1_555
N1L_2 Cd1 1_555 1_555
C1L N1L 1_555 1_555
H3L C1L 1_555 1_555
C2L C1L 1_555 1_555
H4L C2L 1_555 1_555
C3L N2 1_555 1_555
C4L C3 1_555 1_555
H5L C4L 1_555 1_555
C5L N1 1_555 1_555
H6L C5L 1_555 1_555
H7L C7 1_555 1_555
H8L C8 1_555 1_555
O5 Cd1J 1_555 1_555
C2 C3 1_555 1_555
C4 C3L 1_555 1_555
C2L C3L 1_555 1_555
C4L C5L 1_555 1_555

#END
