
#######################################################################
#
#                 Cambridge Crystallographic Data Centre
#                                CCDC 
#
#######################################################################
#
# If this CIF has been generated from an entry in the Cambridge 
# Structural Database, then it will include bibliographic, chemical, 
# crystal, experimental, refinement or atomic coordinate data resulting 
# from the CCDC's data processing and validation procedures.
#
#######################################################################

data_LIFNEU
_symmetry_cell_setting           monoclinic
_symmetry_space_group_name_H-M   'C 2/c'
_symmetry_Int_Tables_number      15
_space_group_name_Hall           '-C 2yn'
loop_
_symmetry_equiv_pos_site_id
_symmetry_equiv_pos_as_xyz
1 x,y,z
2 1/2+x,1/2+y,z
3 -x,y,1/2-z
4 1/2-x,1/2+y,1/2-z
5 -x,-y,-z
6 1/2-x,1/2-y,-z
7 x,-y,1/2+z
8 1/2+x,1/2-y,1/2+z
_cell_length_a                   16.9319(17)
_cell_length_b                   10.7847(11)
_cell_length_c                   18.3104(18)
_cell_angle_alpha                90
_cell_angle_beta                 113.265(2)
_cell_angle_gamma                90
_cell_volume                     3071.71
loop_
_atom_site_label
_atom_site_type_symbol
_atom_site_fract_x
_atom_site_fract_y
_atom_site_fract_z
Zn1 Zn 0.20630(4) 0.52672(6) 0.18153(4)
O3 O 0.2180(3) 0.6456(4) 0.1054(2)
O4 O 0.3124(3) 0.5150(4) 0.0917(2)
N1 N 0.3189(3) 0.4972(4) 0.2728(3)
N2 N 0.5591(3) 0.4088(5) 0.4478(3)
H1 H 0.599(3) 0.448(5) 0.437(3)
N3 N 0.1580(3) 0.3696(4) 0.1199(3)
C1 C 0.3906(4) 0.5594(6) 0.2824(4)
H2 H 0.3867 0.6246 0.2479
C2 C 0.4697(4) 0.5323(7) 0.3402(4)
H3 H 0.5176 0.5786 0.3442
C3 C 0.4780(3) 0.4349(5) 0.3931(3)
C4 C 0.4028(4) 0.3744(6) 0.3858(3)
H4 H 0.4043 0.3118 0.4212
C5 C 0.3269(4) 0.4076(6) 0.3263(3)
H5 H 0.2775 0.3655 0.3225
C6 C 0.2049(4) 0.2830(6) 0.1063(4)
H6 H 0.2638 0.2844 0.1365
C7 C 0.1739(4) 0.1917(6) 0.0513(4)
H7 H 0.2116 0.1339 0.0453
C8 C 0.5882(4) 0.3169(6) 0.5047(3)
C9 C 0.5400(5) 0.2290(11) 0.5214(7)
H8 H 0.4806 0.2300 0.4936
C10 C 0.0761(5) 0.3615(11) 0.0780(7)
H9 H 0.0400 0.4194 0.0866
C11 C 0.2696(4) 0.6116(6) 0.0734(3)
C12 C 0.2771(5) 0.6941(6) 0.0099(5)
H10 H 0.3366 0.7197 0.0268
H11 H 0.2629 0.6454 -0.0382
C13 C 0.1025(6) 0.5877(10) 0.2621(6)
C14 C 0.0471(9) 0.6839(11) 0.2808(8)
H12 H 0.0717 0.7655 0.2821
H13 H 0.0479 0.6673 0.3331
O5 O 0.1154(6) 0.6094(8) 0.2000(5)
O6 O 0.1332(6) 0.5007(9) 0.3067(5)
Zn1E Zn 0.29370(4) 0.97328(6) -0.18153(4)
Zn1G Zn 0.70630(4) -0.02672(6) 0.68153(4)
Zn1B Zn -0.20630(4) 0.52672(6) 0.31847(4)
Zn1G_2 Zn -0.29370(4) -0.02672(6) -0.31847(4)
O3E O 0.2820(3) 0.8544(4) -0.1054(2)
O4E O 0.1876(3) 0.9850(4) -0.0917(2)
N1E N 0.1811(3) 1.0028(4) -0.2728(3)
N1G N -0.1811(3) 0.0028(4) -0.2272(3)
N2G N 0.0591(3) 0.0912(5) -0.0522(3)
H1G H 0.099(3) 0.052(5) -0.063(3)
N3E N 0.3420(3) 1.1304(4) -0.1199(3)
N3G N 0.6580(3) 0.1304(4) 0.6199(3)
C1G C -0.1094(4) -0.0594(6) -0.2176(4)
H2G H -0.1133 -0.1246 -0.2521
C2G C -0.0303(4) -0.0323(7) -0.1598(4)
H3G H 0.0176 -0.0786 -0.1558
C3G C -0.0220(3) 0.0651(5) -0.1069(3)
C4G C -0.0972(4) 0.1256(6) -0.1142(3)
H4G H -0.0957 0.1882 -0.0788
C5G C -0.1731(4) 0.0924(6) -0.1737(3)
H5G H -0.2225 0.1345 -0.1775
C6G C 0.7049(4) 0.2170(6) 0.6063(4)
H6G H 0.7638 0.2156 0.6365
C7G C 0.6739(4) 0.3083(6) 0.5513(4)
H7G H 0.7116 0.3661 0.5453
C8G C 0.0882(4) 0.1831(6) 0.0047(3)
C9G C 0.0400(5) 0.2710(11) 0.0214(7)
H8G H -0.0194 0.2700 -0.0064
C10G C 0.5761(5) 0.1385(11) 0.5780(7)
H9G H 0.5400 0.0806 0.5866
C11E C 0.2304(4) 0.8884(6) -0.0734(3)
C12E C 0.2229(5) 0.8059(6) -0.0099(5)
H10E H 0.1634 0.7803 -0.0268
H11E H 0.2371 0.8546 0.0382
C13B C -0.1025(6) 0.5877(10) 0.2379(6)
C14B C -0.0471(9) 0.6839(11) 0.2192(8)
H12B H -0.0717 0.7655 0.2179
H13B H -0.0479 0.6673 0.1669
O5E O 0.3846(6) 0.8906(8) -0.2000(5)
O5B O -0.1154(6) 0.6094(8) 0.3000(5)
O6B O -0.1332(6) 0.5007(9) 0.1933(5)
O2 O 0.580(2) 0.828(3) 0.333(2)
O1? O 0.4752(11) 0.7990(14) 0.2230(9)
C15? C 0.0790(16) 0.640(2) 0.2153(19)
C16? C 0.047(2) 0.735(3) 0.2601(18)
H14? H 0.0759 0.7202 0.3167
H15? H 0.0631 0.8176 0.2497
O7? O 0.1550(10) 0.6126(15) 0.2466(11)
O8? O 0.0304(11) 0.6008(17) 0.1517(11)
loop_
_geom_bond_atom_site_label_1
_geom_bond_atom_site_label_2
_geom_bond_site_symmetry_1
_geom_bond_site_symmetry_2
Zn1 O3 1_555 1_555
O3 C11 1_555 1_555
O4 C11 1_555 1_555
N1 Zn1 1_555 1_555
N2 H1 1_555 1_555
N3 Zn1 1_555 1_555
C1 N1 1_555 1_555
H2 C1 1_555 1_555
C2 C1 1_555 1_555
H3 C2 1_555 1_555
C3 N2 1_555 1_555
C4 C3 1_555 1_555
H4 C4 1_555 1_555
C5 N1 1_555 1_555
H5 C5 1_555 1_555
C6 N3 1_555 1_555
H6 C6 1_555 1_555
C7 C6 1_555 1_555
H7 C7 1_555 1_555
C8 N2 1_555 1_555
C9 C8 1_555 1_555
H8 C9 1_555 1_555
C10 N3 1_555 1_555
H9 C10 1_555 1_555
C11 C12 1_555 1_555
C12 H10 1_555 1_555
H11 C12 1_555 1_555
C13 C14 1_555 1_555
C14 H12 1_555 1_555
H13 C14 1_555 1_555
O5 Zn1 1_555 1_555
O6 C13 1_555 1_555
Zn1E O3E 1_555 1_555
Zn1G N3G 1_555 1_555
Zn1B O5B 1_555 1_555
Zn1G_2 N1G 1_555 1_555
O3E C11E 1_555 1_555
O4E C11E 1_555 1_555
N1E Zn1E 1_555 1_555
N1G C1G 1_555 1_555
N2G H1G 1_555 1_555
N3E Zn1E 1_555 1_555
N3G C6G 1_555 1_555
C1G H2G 1_555 1_555
C2G C1G 1_555 1_555
H3G C2G 1_555 1_555
C3G N2G 1_555 1_555
C4G C3G 1_555 1_555
H4G C4G 1_555 1_555
C5G N1G 1_555 1_555
H5G C5G 1_555 1_555
C6G H6G 1_555 1_555
C7G C8 1_555 1_555
H7G C7G 1_555 1_555
C8G C7 1_555 1_555
C9G C10 1_555 1_555
H8G C9G 1_555 1_555
C10G C9 1_555 1_555
H9G C10G 1_555 1_555
C11E C12E 1_555 1_555
C12E C12 1_555 1_555
H10E C12E 1_555 1_555
H11E C12E 1_555 1_555
C13B C14B 1_555 1_555
C14B C14 1_555 1_555
H12B C14B 1_555 1_555
H13B C14B 1_555 1_555
O5E Zn1E 1_555 1_555
O5B C13B 1_555 1_555
O6B C13B 1_555 1_555
C2 C3 1_555 1_555
C4 C5 1_555 1_555
C13 O5 1_555 1_555
N2G C8G 1_555 1_555
N3G C10G 1_555 1_555
C2G C3G 1_555 1_555
C4G C5G 1_555 1_555
C6G C7G 1_555 1_555
C8G C9G 1_555 1_555

#END
