
#######################################################################
#
#                 Cambridge Crystallographic Data Centre
#                                CCDC 
#
#######################################################################
#
# If this CIF has been generated from an entry in the Cambridge 
# Structural Database, then it will include bibliographic, chemical, 
# crystal, experimental, refinement or atomic coordinate data resulting 
# from the CCDC's data processing and validation procedures.
#
#######################################################################

data_LIFNUK
_symmetry_cell_setting           orthorhombic
_symmetry_space_group_name_H-M   'P n m a'
_symmetry_Int_Tables_number      62
_space_group_name_Hall           '-P 2ac 2n'
loop_
_symmetry_equiv_pos_site_id
_symmetry_equiv_pos_as_xyz
1 x,y,z
2 1/2-x,-y,1/2+z
3 -x,1/2+y,-z
4 1/2+x,1/2-y,1/2-z
5 -x,-y,-z
6 1/2+x,y,1/2-z
7 x,1/2-y,z
8 1/2-x,1/2+y,1/2+z
_cell_length_a                   11.5579(5)
_cell_length_b                   18.6002(6)
_cell_length_c                   6.7094(3)
_cell_angle_alpha                90
_cell_angle_beta                 90
_cell_angle_gamma                90
_cell_volume                     1442.38
loop_
_atom_site_label
_atom_site_type_symbol
_atom_site_fract_x
_atom_site_fract_y
_atom_site_fract_z
Mg1 Mg 0.19608(6) 0.7500 -0.00489(10)
O1 O 0.36573(12) 0.7500 -0.1089(2)
O2 O 0.59863(12) 0.7500 -0.2379(2)
C1 C 0.18177(13) 0.64866(7) 0.1426(2)
C2 C 0.27016(14) 0.63157(8) 0.2790(2)
H1 H 0.3412(17) 0.6608(10) 0.286(3)
C3 C 0.26657(14) 0.57255(9) 0.4055(2)
H2 H 0.3283(16) 0.5638(9) 0.500(3)
C4 C 0.17160(15) 0.52728(8) 0.4030(3)
H3 H 0.1689(17) 0.4899(11) 0.495(3)
C5 C 0.08164(14) 0.54110(8) 0.2726(3)
H4 H 0.0123(15) 0.5087(9) 0.268(3)
C6 C 0.08792(13) 0.60032(8) 0.1458(2)
H5 H 0.0220(15) 0.6071(8) 0.051(3)
C7 C 0.41942(14) 0.81391(8) -0.1907(3)
H6 H 0.3835(14) 0.8548(9) -0.123(3)
H7 H 0.4041(15) 0.8140(8) -0.336(3)
C8 C 0.54694(14) 0.81373(8) -0.1505(3)
H8 H 0.5614(16) 0.8126(9) -0.008(3)
H9 H 0.5865(15) 0.8556(9) -0.216(3)
Mg1E Mg 0.69608(6) 0.7500 -0.49511(10)
O2E O 0.09863(12) 0.7500 -0.2621(2)
C1F C 0.18177(13) 0.85134(7) 0.1426(2)
C2F C 0.27016(14) 0.86843(8) 0.2790(2)
H1F H 0.3412(17) 0.8392(10) 0.286(3)
C3F C 0.26657(14) 0.92745(9) 0.4055(2)
H2F H 0.3283(16) 0.9362(9) 0.500(3)
C4F C 0.17160(15) 0.97272(8) 0.4030(3)
H3F H 0.1689(17) 1.0101(11) 0.495(3)
C5F C 0.08164(14) 0.95890(8) 0.2726(3)
H4F H 0.0123(15) 0.9913(9) 0.268(3)
C6F C 0.08792(13) 0.89968(8) 0.1458(2)
H5F H 0.0220(15) 0.8929(8) 0.051(3)
C7F C 0.41942(14) 0.68609(8) -0.1907(3)
H6F H 0.3835(14) 0.6452(9) -0.123(3)
H7F H 0.4041(15) 0.6860(8) -0.336(3)
C8F C 0.54694(14) 0.68627(8) -0.1505(3)
H8F H 0.5614(16) 0.6874(9) -0.008(3)
H9F H 0.5865(15) 0.6444(9) -0.216(3)
loop_
_geom_bond_atom_site_label_1
_geom_bond_atom_site_label_2
_geom_bond_site_symmetry_1
_geom_bond_site_symmetry_2
Mg1 O1 1_555 1_555
O1 C7 1_555 1_555
O2 C8 1_555 1_555
C1 Mg1 1_555 1_555
C2 C1 1_555 1_555
H1 C2 1_555 1_555
C3 C2 1_555 1_555
H2 C3 1_555 1_555
C4 C3 1_555 1_555
H3 C4 1_555 1_555
C5 C4 1_555 1_555
H4 C5 1_555 1_555
C6 C1 1_555 1_555
H5 C6 1_555 1_555
C7 H6 1_555 1_555
H7 C7 1_555 1_555
C8 C7 1_555 1_555
H8 C8 1_555 1_555
H9 C8 1_555 1_555
Mg1E O2 1_555 1_555
O2E Mg1 1_555 1_555
C1F Mg1 1_555 1_555
C2F C1F 1_555 1_555
H1F C2F 1_555 1_555
C3F C2F 1_555 1_555
H2F C3F 1_555 1_555
C4F C3F 1_555 1_555
H3F C4F 1_555 1_555
C5F C4F 1_555 1_555
H4F C5F 1_555 1_555
C6F C1F 1_555 1_555
H5F C6F 1_555 1_555
C7F O1 1_555 1_555
H6F C7F 1_555 1_555
H7F C7F 1_555 1_555
C8F O2 1_555 1_555
H8F C8F 1_555 1_555
H9F C8F 1_555 1_555
C5 C6 1_555 1_555
C5F C6F 1_555 1_555
C7F C8F 1_555 1_555

#END
