
#######################################################################
#
#                 Cambridge Crystallographic Data Centre
#                                CCDC 
#
#######################################################################
#
# If this CIF has been generated from an entry in the Cambridge 
# Structural Database, then it will include bibliographic, chemical, 
# crystal, experimental, refinement or atomic coordinate data resulting 
# from the CCDC's data processing and validation procedures.
#
#######################################################################

data_LIFQEY
_symmetry_cell_setting           rhombohedral
_symmetry_space_group_name_H-M   'R 3 2'
_symmetry_Int_Tables_number      155
_space_group_name_Hall           'R 3 2"'
loop_
_symmetry_equiv_pos_site_id
_symmetry_equiv_pos_as_xyz
1 x,y,z
2 -y,x-y,z
3 -x+y,-x,z
4 y,x,-z
5 x-y,-y,-z
6 -x,-x+y,-z
7 2/3+x,1/3+y,1/3+z
8 2/3-y,1/3+x-y,1/3+z
9 2/3-x+y,1/3-x,1/3+z
10 2/3+y,1/3+x,1/3-z
11 2/3+x-y,1/3-y,1/3-z
12 2/3-x,1/3-x+y,1/3-z
13 1/3+x,2/3+y,2/3+z
14 1/3-y,2/3+x-y,2/3+z
15 1/3-x+y,2/3-x,2/3+z
16 1/3+y,2/3+x,2/3-z
17 1/3+x-y,2/3-y,2/3-z
18 1/3-x,2/3-x+y,2/3-z
_cell_length_a                   12.4390(9)
_cell_length_b                   12.4390(9)
_cell_length_c                   19.6700(15)
_cell_angle_alpha                90
_cell_angle_beta                 90
_cell_angle_gamma                120
_cell_volume                     2635.76
loop_
_atom_site_label
_atom_site_type_symbol
_atom_site_fract_x
_atom_site_fract_y
_atom_site_fract_z
C1 C 0.1111(4) 0.2241(3) 0.22108(15)
C2 C 0.0826(3) 0.2813(3) 0.2807(2)
C3 C 0.1679(5) 0.3333 0.3333
H1 H 0.2426 0.3333 0.3333
C4 C -0.0522(5) 0.3333 0.3333
Gd1 Gd 0.3333 0.15533(2) 0.1667
N1 N -0.0250(3) 0.2801(3) 0.27935(14)
O1 O 0.2027(3) 0.2098(3) 0.22605(14)
O2 O 0.0424(3) 0.1986(3) 0.16980(13)
O3 O -0.1532(3) 0.3333 0.3333
O4 O 0.2058(2) 0.1747(2) 0.08410(13)
H2 H 0.1334 0.1607 0.0894
H3 H 0.2014 0.1415 0.0470
C1P C 0.2203(5) 0.4426(3) 0.44559(15)
C2P C 0.1346(4) 0.3854(3) 0.3860(2)
N1P N 0.0282(4) 0.3866(3) 0.38732(14)
O1P O 0.3262(4) 0.4569(3) 0.44062(14)
O2P O 0.1771(4) 0.4681(3) 0.49687(13)
O4K O 0.4609(2) 0.3022(3) 0.24923(13)
H2K H 0.5333 0.3606 0.2439
H3K H 0.4653 0.2734 0.2863
Gd1A Gd -0.15533(2) 0.17797(2) 0.1667
Gd1F Gd -0.0000 0.48866(2) 0.5000
Gd1G Gd 0.51134(2) 0.51130(2) 0.5000
N1B N 0.3051(4) 0.0250(3) 0.27935(14)
N1J N 0.3616(4) 0.0532(3) 0.05398(14)
O1K O 0.4640(3) 0.3404(4) 0.10728(14)
O2B O 0.1562(4) -0.0424(3) 0.16980(13)
O2J O 0.5105(4) 0.1347(3) 0.16353(13)
O5 O 0.2558(13) 0.4573(12) 0.1019(7)
H4 H 0.2144 0.3803 0.1118
H5 H 0.2533 0.4979 0.1341
O6 O 0.3333 0.6667 0.0195(8)
H6? H 0.3509 0.6155 0.0397
H7? H 0.3939 0.7395 0.0126
loop_
_geom_bond_atom_site_label_1
_geom_bond_atom_site_label_2
_geom_bond_site_symmetry_1
_geom_bond_site_symmetry_2
C1 C2 1_555 1_555
C2 C3 1_555 1_555
C3 H1 1_555 1_555
C4 N1 1_555 1_555
Gd1 O1 1_555 1_555
N1 C2 1_555 1_555
O1 C1 1_555 1_555
O2 C1 1_555 1_555
O3 C4 1_555 1_555
O4 Gd1 1_555 1_555
H2 O4 1_555 1_555
H3 O4 1_555 1_555
O5 H4 1_555 1_555
H5 O5 1_555 1_555
C1P C2P 1_555 1_555
C2P C3 1_555 1_555
N1P C4 1_555 1_555
O1P C1P 1_555 1_555
O2P C1P 1_555 1_555
O4K Gd1 1_555 1_555
H2K O4K 1_555 1_555
H3K O4K 1_555 1_555
Gd1A N1 1_555 1_555
Gd1F N1P 1_555 1_555
Gd1G O1P 1_555 1_555
N1B Gd1 1_555 1_555
N1J Gd1 1_555 1_555
O1K Gd1 1_555 1_555
O2B Gd1 1_555 1_555
O2J Gd1 1_555 1_555
O2 Gd1A 1_555 1_555
C2P N1P 1_555 1_555
O2P Gd1F 1_555 1_555

#END
