
#######################################################################
#
#                 Cambridge Crystallographic Data Centre
#                                CCDC 
#
#######################################################################
#
# If this CIF has been generated from an entry in the Cambridge 
# Structural Database, then it will include bibliographic, chemical, 
# crystal, experimental, refinement or atomic coordinate data resulting 
# from the CCDC's data processing and validation procedures.
#
#######################################################################

data_LIFTOK
_symmetry_cell_setting           monoclinic
_symmetry_space_group_name_H-M   'C 2/c'
_symmetry_Int_Tables_number      15
_space_group_name_Hall           '-C 2yn'
loop_
_symmetry_equiv_pos_site_id
_symmetry_equiv_pos_as_xyz
1 x,y,z
2 1/2+x,1/2+y,z
3 -x,y,1/2-z
4 1/2-x,1/2+y,1/2-z
5 -x,-y,-z
6 1/2-x,1/2-y,-z
7 x,-y,1/2+z
8 1/2+x,1/2-y,1/2+z
_cell_length_a                   19.057(14)
_cell_length_b                   11.417(5)
_cell_length_c                   14.578(10)
_cell_angle_alpha                90
_cell_angle_beta                 108.87(2)
_cell_angle_gamma                90
_cell_volume                     3001.32
loop_
_atom_site_label
_atom_site_type_symbol
_atom_site_fract_x
_atom_site_fract_y
_atom_site_fract_z
Ag1 Ag 0.02123(2) -0.82843(3) 0.14542(3)
N1 N 0.0189(2) -0.6378(3) 0.1368(3)
N2 N 0.0160(2) 0.9835(3) 0.1228(3)
C1 C 0.0817(3) -0.5751(4) 0.1668(4)
H1 H 0.1278 -0.6162 0.1939
C2 C 0.0832(3) -0.4546(4) 0.1609(4)
H2 H 0.1295 -0.4131 0.1821
C3 C 0.0170(3) -0.3934(4) 0.1232(3)
C4 C -0.0483(3) -0.4586(4) 0.0911(4)
H3 H -0.0950 -0.4197 0.0624
C5 C -0.0451(3) -0.5795(4) 0.1000(4)
H4 H -0.0906 -0.6232 0.0798
C6 C 0.0731(3) 0.9228(4) 0.1129(4)
H5 H 0.1147 0.9659 0.1070
C7 C 0.0754(3) 0.8019(4) 0.1102(4)
H6 H 0.1173 0.7622 0.1019
C8 C 0.0160(3) -0.2619(4) 0.1186(3)
C9 C -0.0442(3) -0.1997(4) 0.1257(4)
H7 H -0.0871 -0.2412 0.1292
C10 C -0.0427(3) 0.9218(4) 0.1274(4)
H8 H -0.0850 0.9636 0.1324
Ag1B Ag -0.02123(2) -0.82843(3) 0.35458(3)
Ag1B_2 Ag -0.02123(2) 0.17157(3) 0.35458(3)
Ag1_2 Ag 0.02123(2) 0.17157(3) 0.14542(3)
Ag1_3 Ag 0.02123(2) 1.17157(3) 0.14542(3)
N1_2 N 0.0189(2) 0.3622(3) 0.1368(3)
N2_2 N 0.0160(2) -1.0165(3) 0.1228(3)
N2_3 N 0.0160(2) -0.0165(3) 0.1228(3)
C1_2 C 0.0817(3) 0.4249(4) 0.1668(4)
H1_2 H 0.1278 0.3838 0.1939
C2_2 C 0.0832(3) 0.5454(4) 0.1609(4)
H2_2 H 0.1295 0.5869 0.1821
C3_2 C 0.0170(3) 0.6066(4) 0.1232(3)
C4_2 C -0.0483(3) 0.5414(4) 0.0911(4)
H3_2 H -0.0950 0.5803 0.0624
C5_2 C -0.0451(3) 0.4205(4) 0.1000(4)
H4_2 H -0.0906 0.3768 0.0798
C6_2 C 0.0731(3) -0.0772(4) 0.1129(4)
H5_2 H 0.1147 -0.0341 0.1070
C7_2 C 0.0754(3) -0.1981(4) 0.1102(4)
H6_2 H 0.1173 -0.2378 0.1019
C8_2 C 0.0160(3) 0.7381(4) 0.1186(3)
C9_2 C -0.0442(3) 0.8003(4) 0.1257(4)
H7_2 H -0.0871 0.7588 0.1292
C10_2 C -0.0427(3) -0.0782(4) 0.1274(4)
H8_2 H -0.0850 -0.0364 0.1324
S1 S 0.19276(6) -0.83433(10) 0.32443(9)
O1 O 0.1768(2) -0.8593(3) 0.2220(3)
O2 O 0.1253(2) -0.8034(3) 0.3448(3)
O3 O 0.2530(2) -0.7525(3) 0.3621(3)
C11 C 0.2216(2) -0.9701(4) 0.3864(3)
C12 C 0.2313(3) -0.9795(4) 0.4844(4)
H9 H 0.2301 -0.9102 0.5212
C13 C 0.2426(3) -1.0885(4) 0.5292(4)
H10 H 0.2485 -1.0945 0.5970
C14 C 0.2454(2) -1.1909(3) 0.4768(3)
C15 C 0.2399(3) -1.1780(4) 0.3794(4)
H11 H 0.2446 -1.2462 0.3433
C16 C 0.2279(3) -1.0695(4) 0.3340(4)
H12 H 0.2237 -1.0626 0.2668
S1E S 0.30724(6) -1.66567(10) 0.67557(9)
O1E O 0.3232(2) -1.6407(3) 0.7780(3)
O2E O 0.3747(2) -1.6966(3) 0.6552(3)
O3E O 0.2470(2) -1.7475(3) 0.6379(3)
C11E C 0.2784(2) -1.5299(4) 0.6136(3)
C12E C 0.2687(3) -1.5205(4) 0.5156(4)
H9E H 0.2699 -1.5898 0.4788
C13E C 0.2574(3) -1.4115(4) 0.4708(4)
H10E H 0.2515 -1.4055 0.4030
C14E C 0.2546(2) -1.3091(3) 0.5232(3)
C15E C 0.2601(3) -1.3220(4) 0.6206(4)
H11E H 0.2554 -1.2538 0.6567
C16E C 0.2721(3) -1.4305(4) 0.6660(4)
H12E H 0.2763 -1.4374 0.7332
loop_
_geom_bond_atom_site_label_1
_geom_bond_atom_site_label_2
_geom_bond_site_symmetry_1
_geom_bond_site_symmetry_2
Ag1 N1 1_555 1_555
S1 O1 1_555 1_555
O2 S1 1_555 1_555
O3 S1 1_555 1_555
N1 C1 1_555 1_555
N2 C6 1_555 1_555
C1 H1 1_555 1_555
C2 C1 1_555 1_555
H2 C2 1_555 1_555
C3 C2 1_555 1_555
C4 C3 1_555 1_555
H3 C4 1_555 1_555
C5 N1 1_555 1_555
H4 C5 1_555 1_555
C6 H5 1_555 1_555
C7 C6 1_555 1_555
H6 C7 1_555 1_555
C8 C3 1_555 1_555
C9 C8 1_555 1_555
H7 C9 1_555 1_555
C10 N2 1_555 1_555
H8 C10 1_555 1_555
C11 S1 1_555 1_555
C12 C11 1_555 1_555
H9 C12 1_555 1_555
C13 C12 1_555 1_555
H10 C13 1_555 1_555
C14 C13 1_555 1_555
C15 C14 1_555 1_555
H11 C15 1_555 1_555
C16 C11 1_555 1_555
H12 C16 1_555 1_555
Ag1B Ag1 1_555 1_555
Ag1B_2 Ag1_2 1_555 1_555
Ag1_2 N1_2 1_555 1_555
Ag1_3 N2 1_555 1_555
S1E O1E 1_555 1_555
O2E S1E 1_555 1_555
O3E S1E 1_555 1_555
N1_2 C1_2 1_555 1_555
N2_2 Ag1 1_555 1_555
N2_3 Ag1_2 1_555 1_555
C1_2 H1_2 1_555 1_555
C2_2 C1_2 1_555 1_555
H2_2 C2_2 1_555 1_555
C3_2 C2_2 1_555 1_555
C4_2 C3_2 1_555 1_555
H3_2 C4_2 1_555 1_555
C5_2 N1_2 1_555 1_555
H4_2 C5_2 1_555 1_555
C6_2 N2_3 1_555 1_555
H5_2 C6_2 1_555 1_555
C7_2 C8 1_555 1_555
H6_2 C7_2 1_555 1_555
C8_2 C7 1_555 1_555
C9_2 C10 1_555 1_555
H7_2 C9_2 1_555 1_555
C10_2 C9 1_555 1_555
H8_2 C10_2 1_555 1_555
C11E S1E 1_555 1_555
C12E C11E 1_555 1_555
H9E C12E 1_555 1_555
C13E C12E 1_555 1_555
H10E C13E 1_555 1_555
C14E C14 1_555 1_555
C15E C14E 1_555 1_555
H11E C15E 1_555 1_555
C16E C11E 1_555 1_555
H12E C16E 1_555 1_555
C4 C5 1_555 1_555
C15 C16 1_555 1_555
N2_3 C10_2 1_555 1_555
C3_2 C8_2 1_555 1_555
C4_2 C5_2 1_555 1_555
C6_2 C7_2 1_555 1_555
C8_2 C9_2 1_555 1_555
C13E C14E 1_555 1_555
C15E C16E 1_555 1_555

#END
