
#######################################################################
#
#                 Cambridge Crystallographic Data Centre
#                                CCDC 
#
#######################################################################
#
# If this CIF has been generated from an entry in the Cambridge 
# Structural Database, then it will include bibliographic, chemical, 
# crystal, experimental, refinement or atomic coordinate data resulting 
# from the CCDC's data processing and validation procedures.
#
#######################################################################

data_LIFVEC
_symmetry_cell_setting           monoclinic
_symmetry_space_group_name_H-M   'C 2/c'
_symmetry_Int_Tables_number      15
_space_group_name_Hall           '-C 2yn'
loop_
_symmetry_equiv_pos_site_id
_symmetry_equiv_pos_as_xyz
1 x,y,z
2 1/2+x,1/2+y,z
3 -x,y,1/2-z
4 1/2-x,1/2+y,1/2-z
5 -x,-y,-z
6 1/2-x,1/2-y,-z
7 x,-y,1/2+z
8 1/2+x,1/2-y,1/2+z
_cell_length_a                   17.586(9)
_cell_length_b                   11.487(6)
_cell_length_c                   22.752(11)
_cell_angle_alpha                90
_cell_angle_beta                 106.878(9)
_cell_angle_gamma                90
_cell_volume                     4398.16
loop_
_atom_site_label
_atom_site_type_symbol
_atom_site_fract_x
_atom_site_fract_y
_atom_site_fract_z
Zn1 Zn 0.5000 0.48289(3) 0.2500
N1 N 0.49647(11) 0.48492(15) 0.34353(7)
N2 N 0.5000 0.29203(19) 0.2500
N3 N 0.5000 -0.3247(2) 0.2500
O4 O 0.62663(9) 0.47749(13) 0.28144(7)
H1 H 0.6583 0.4650 0.2587
H2 H 0.6598 0.5059 0.3166
C7 C 0.44904(15) 0.5567(2) 0.36239(10)
H12 H 0.4143 0.6035 0.3333
C8 C 0.44863(16) 0.5655(2) 0.42284(10)
H13 H 0.4146 0.6177 0.4337
C9 C 0.49888(13) 0.49648(18) 0.46712(9)
C10 C 0.54698(15) 0.4207(2) 0.44694(10)
H14 H 0.5814 0.3716 0.4748
C11 C 0.54429(15) 0.4174(2) 0.38596(10)
H15 H 0.5775 0.3656 0.3738
C12 C 0.56024(14) 0.23113(18) 0.24057(11)
H16 H 0.6022 0.2718 0.2330
C13 C 0.56340(14) 0.11069(19) 0.24151(11)
H17 H 0.6076 0.0722 0.2365
C14 C 0.5000 0.0481(2) 0.2500
C15 C 0.56526(14) -0.2630(2) 0.27685(12)
H18 H 0.6116 -0.3033 0.2963
C16 C 0.56780(14) -0.1431(2) 0.27745(13)
H19 H 0.6151 -0.1046 0.2963
C17 C 0.5000 -0.0806(2) 0.2500
Zn1_2 Zn 0.5000 -0.51711(3) 0.2500
Zn1F Zn 0.5000 0.51711(3) 0.7500
N1D N 0.50353(11) 0.51508(15) 0.65647(7)
N1B N 0.50353(11) 0.48492(15) 0.15647(7)
N3_2 N 0.5000 0.6753(2) 0.2500
O4B O 0.37337(9) 0.47749(13) 0.21856(7)
H1B H 0.3417 0.4650 0.2413
H2B H 0.3402 0.5059 0.1834
C7D C 0.55096(15) 0.4433(2) 0.63761(10)
H12D H 0.5857 0.3965 0.6667
C8D C 0.55137(16) 0.4345(2) 0.57716(10)
H13D H 0.5854 0.3823 0.5663
C9D C 0.50112(13) 0.50352(18) 0.53288(9)
C10D C 0.45302(15) 0.5793(2) 0.55306(10)
H14D H 0.4186 0.6284 0.5252
C11D C 0.45571(15) 0.5826(2) 0.61404(10)
H15D H 0.4225 0.6344 0.6262
C12B C 0.43976(14) 0.23113(18) 0.25943(11)
H16B H 0.3978 0.2718 0.2670
C13B C 0.43660(14) 0.11069(19) 0.25849(11)
H17B H 0.3924 0.0722 0.2635
C15B C 0.43474(14) -0.2630(2) 0.22315(12)
H18B H 0.3884 -0.3033 0.2037
C16B C 0.43220(14) -0.1431(2) 0.22255(13)
H19B H 0.3849 -0.1046 0.2037
S1 S 0.21108(4) 0.64808(6) 0.12481(3)
O1 O 0.20304(15) 0.7482(2) 0.08594(14)
O2 O 0.22773(13) 0.67808(19) 0.18910(10)
O3 O 0.26723(11) 0.56341(19) 0.11481(9)
C1 C 0.11778(16) 0.5771(2) 0.10478(12)
C2 C 0.1119(2) 0.4633(3) 0.12254(16)
H7 H 0.1570 0.4224 0.1441
C3 C 0.0375(3) 0.4108(3) 0.10781(19)
H8 H 0.0330 0.3335 0.1185
C4 C -0.0294(3) 0.4727(4) 0.0775(2)
H9 H -0.0792 0.4377 0.0682
C5 C -0.0225(2) 0.5852(5) 0.0612(2)
H10 H -0.0679 0.6269 0.0412
C6 C 0.05097(18) 0.6385(3) 0.07387(17)
H11 H 0.0552 0.7149 0.0617
N4 N 0.76010(15) 0.5720(2) 0.13049(13)
C18 C 0.75879(19) 0.6871(3) 0.13340(15)
H20 H 0.7608 0.7212 0.1709
C19 C 0.75468(17) 0.7599(3) 0.08394(14)
H21 H 0.7534 0.8402 0.0887
C20 C 0.75252(14) 0.7126(2) 0.02738(12)
C21 C 0.75513(18) 0.5918(2) 0.02469(14)
H22 H 0.7549 0.5551 -0.0118
C22 C 0.75813(19) 0.5267(3) 0.07607(16)
H23 H 0.7588 0.4461 0.0726
N4E N 0.73990(15) 0.9280(2) -0.13049(13)
C18E C 0.74121(19) 0.8129(3) -0.13340(15)
H20E H 0.7392 0.7788 -0.1709
C19E C 0.74532(17) 0.7401(3) -0.08394(14)
H21E H 0.7466 0.6598 -0.0887
C20E C 0.74748(14) 0.7874(2) -0.02738(12)
C21E C 0.74487(18) 0.9082(2) -0.02469(14)
H22E H 0.7451 0.9449 0.0118
C22E C 0.74187(19) 0.9733(3) -0.07607(16)
H23E H 0.7412 1.0539 -0.0726
O5 O 0.72865(13) 0.41569(19) 0.22026(11)
H3 H 0.7355 0.4677 0.1925
H4 H 0.7291 0.3352 0.2065
O6 O 0.1330(2) 0.7856(4) -0.0464(2)
H5 H 0.1538 0.7727 -0.0075
H6 H 0.1759 0.8144 -0.0613
loop_
_geom_bond_atom_site_label_1
_geom_bond_atom_site_label_2
_geom_bond_site_symmetry_1
_geom_bond_site_symmetry_2
Zn1 N1 1_555 1_555
S1 O1 1_555 1_555
N1 C7 1_555 1_555
N2 Zn1 1_555 1_555
N3 C15 1_555 1_555
N4 C18 1_555 1_555
O2 S1 1_555 1_555
O3 S1 1_555 1_555
O4 Zn1 1_555 1_555
H1 O4 1_555 1_555
H2 O4 1_555 1_555
O5 H3 1_555 1_555
H4 O5 1_555 1_555
O6 H5 1_555 1_555
H6 O6 1_555 1_555
C1 S1 1_555 1_555
C2 C1 1_555 1_555
H7 C2 1_555 1_555
C3 C2 1_555 1_555
H8 C3 1_555 1_555
C4 C3 1_555 1_555
H9 C4 1_555 1_555
C5 C4 1_555 1_555
H10 C5 1_555 1_555
C6 C1 1_555 1_555
H11 C6 1_555 1_555
C7 H12 1_555 1_555
C8 C7 1_555 1_555
H13 C8 1_555 1_555
C9 C8 1_555 1_555
C10 C9 1_555 1_555
H14 C10 1_555 1_555
C11 N1 1_555 1_555
H15 C11 1_555 1_555
C12 N2 1_555 1_555
H16 C12 1_555 1_555
C13 C12 1_555 1_555
H17 C13 1_555 1_555
C14 C13 1_555 1_555
C15 H18 1_555 1_555
C16 C15 1_555 1_555
H19 C16 1_555 1_555
C17 C14 1_555 1_555
C18 H20 1_555 1_555
C19 C18 1_555 1_555
H21 C19 1_555 1_555
C20 C19 1_555 1_555
C21 C20 1_555 1_555
H22 C21 1_555 1_555
C22 N4 1_555 1_555
H23 C22 1_555 1_555
Zn1_2 N3 1_555 1_555
Zn1F N1D 1_555 1_555
N1D C7D 1_555 1_555
N1B Zn1 1_555 1_555
N3_2 Zn1 1_555 1_555
N4E C18E 1_555 1_555
O4B Zn1 1_555 1_555
H1B O4B 1_555 1_555
H2B O4B 1_555 1_555
C7D H12D 1_555 1_555
C8D C7D 1_555 1_555
H13D C8D 1_555 1_555
C9D C9 1_555 1_555
C10D C9D 1_555 1_555
H14D C10D 1_555 1_555
C11D N1D 1_555 1_555
H15D C11D 1_555 1_555
C12B N2 1_555 1_555
H16B C12B 1_555 1_555
C13B C14 1_555 1_555
H17B C13B 1_555 1_555
C15B N3 1_555 1_555
H18B C15B 1_555 1_555
C16B C17 1_555 1_555
H19B C16B 1_555 1_555
C18E H20E 1_555 1_555
C19E C18E 1_555 1_555
H21E C19E 1_555 1_555
C20E C20 1_555 1_555
C21E C20E 1_555 1_555
H22E C21E 1_555 1_555
C22E N4E 1_555 1_555
H23E C22E 1_555 1_555
C5 C6 1_555 1_555
C10 C11 1_555 1_555
C16 C17 1_555 1_555
C21 C22 1_555 1_555
C8D C9D 1_555 1_555
C10D C11D 1_555 1_555
C12B C13B 1_555 1_555
C15B C16B 1_555 1_555
C19E C20E 1_555 1_555
C21E C22E 1_555 1_555

#END
