
#######################################################################
#
#                 Cambridge Crystallographic Data Centre
#                                CCDC 
#
#######################################################################
#
# If this CIF has been generated from an entry in the Cambridge 
# Structural Database, then it will include bibliographic, chemical, 
# crystal, experimental, refinement or atomic coordinate data resulting 
# from the CCDC's data processing and validation procedures.
#
#######################################################################

data_LIFWON
_symmetry_cell_setting           monoclinic
_symmetry_space_group_name_H-M   'C 2/m'
_symmetry_Int_Tables_number      12
_space_group_name_Hall           '-C 2y'
loop_
_symmetry_equiv_pos_site_id
_symmetry_equiv_pos_as_xyz
1 x,y,z
2 1/2+x,1/2+y,z
3 -x,y,-z
4 1/2-x,1/2+y,-z
5 -x,-y,-z
6 1/2-x,1/2-y,-z
7 x,-y,z
8 1/2+x,1/2-y,z
_cell_length_a                   16.127(4)
_cell_length_b                   7.067(2)
_cell_length_c                   15.078(6)
_cell_angle_alpha                90
_cell_angle_beta                 105.08(3)
_cell_angle_gamma                90
_cell_volume                     1659.26
loop_
_atom_site_label
_atom_site_type_symbol
_atom_site_fract_x
_atom_site_fract_y
_atom_site_fract_z
Zn1 Zn 0.2500 0.2500 0.5000
N1 N 0.1574(2) 0.0957(4) 0.5575(2)
C1 C 0.1031(2) 0.1874(5) 0.5944(2)
H1 H 0.1050 0.3190 0.5955
C2 C 0.0430(2) 0.0960(5) 0.6318(2)
H2 H 0.0045 0.1643 0.6557
N2 N 0.3222(2) 0.0000 0.5158(3)
N3 N 0.3953(3) 0.0000 0.5643(3)
N4 N 0.4650(3) 0.0000 0.6086(3)
S1 S 0.17939(7) 0.0000 0.30814(8)
O1 O 0.1804(2) 0.1722(4) 0.3654(2)
O2 O 0.2541(2) 0.0000 0.2696(3)
O3 O 0.0987(2) 0.0000 0.2342(2)
Zn1F Zn 0.2500 -0.2500 0.5000
N1F N 0.1574(2) -0.0957(4) 0.5575(2)
N1E N 0.3426(2) 0.4043(4) 0.4425(2)
C1F C 0.1031(2) -0.1874(5) 0.5944(2)
H1F H 0.1050 -0.3190 0.5955
C2F C 0.0430(2) -0.0960(5) 0.6318(2)
H2F H 0.0045 -0.1643 0.6557
N2E N 0.1778(2) 0.5000 0.4842(3)
O1F O 0.1804(2) -0.1722(4) 0.3654(2)
O1E O 0.3196(2) 0.3278(4) 0.6346(2)
Na1 Na 0.0000 0.2577(3) 0.0000
O4 O -0.0186(2) 0.2980(4) 0.1549(2)
O5 O 0.0994(2) 0.0000 0.0485(3)
O6 O 0.1051(2) 0.5000 0.0534(3)
H3 H 0.0240 0.2348 0.1790
H4 H -0.0586 0.2506 0.1709
H5 H 0.1465 0.0000 0.0369
H6 H 0.1064 0.0000 0.1044
H7 H 0.1274 0.5000 0.1091
H8 H 0.1431 0.5000 0.0262
Na1F Na 0.0000 -0.2577(3) 0.0000
Na1F_2 Na 0.0000 0.7423(3) 0.0000
O4B O 0.0186(2) 0.2980(4) -0.1549(2)
O5D O -0.0994(2) 0.0000 -0.0485(3)
O6D O -0.1051(2) 0.5000 -0.0534(3)
H3B H -0.0240 0.2348 -0.1790
H4B H 0.0586 0.2506 -0.1709
H5D H -0.1465 0.0000 -0.0369
H6D H -0.1064 0.0000 -0.1044
H7D H -0.1274 0.5000 -0.1091
H8D H -0.1431 0.5000 -0.0262
O7 O 0.3168(2) 0.2939(4) 0.1716(2)
H9 H 0.2936 0.2287 0.2033
H10 H 0.3590 0.2370 0.1652
O8 O 0.1741(3) 0.5000 0.2472(3)
H11 H 0.1795 0.4132 0.2842
H11F H 0.1795 0.5868 0.2842
O9? O 0.2478(4) 0.3929(8) -0.0075(4)
H12? H 0.2667 0.3330 0.0400
H13? H 0.2360 0.3241 -0.0528
loop_
_geom_bond_atom_site_label_1
_geom_bond_atom_site_label_2
_geom_bond_site_symmetry_1
_geom_bond_site_symmetry_2
Zn1 N1 1_555 1_555
N1 C1 1_555 1_555
C1 H1 1_555 1_555
C2 C1 1_555 1_555
H2 C2 1_555 1_555
N2 Zn1 1_555 1_555
N3 N2 1_555 1_555
N4 N3 1_555 1_555
S1 O1 1_555 1_555
O1 Zn1 1_555 1_555
O2 S1 1_555 1_555
O3 S1 1_555 1_555
Na1 O4 1_555 1_555
O4 H3 1_555 1_555
O5 Na1 1_555 1_555
O6 Na1 1_555 1_555
H4 O4 1_555 1_555
H5 O5 1_555 1_555
H6 O5 1_555 1_555
H7 O6 1_555 1_555
H8 O6 1_555 1_555
O7 H9 1_555 1_555
H10 O7 1_555 1_555
O8 H11 1_555 1_555
Zn1F N2 1_555 1_555
N1F N1 1_555 1_555
N1E Zn1 1_555 1_555
C1F N1F 1_555 1_555
H1F C1F 1_555 1_555
C2F C2 1_555 1_555
H2F C2F 1_555 1_555
N2E Zn1 1_555 1_555
O1F S1 1_555 1_555
O1E Zn1 1_555 1_555
Na1F O5 1_555 1_555
Na1F_2 O6 1_555 1_555
O4B Na1 1_555 1_555
O5D Na1 1_555 1_555
O6D Na1 1_555 1_555
H3B O4B 1_555 1_555
H4B O4B 1_555 1_555
H5D O5D 1_555 1_555
H6D O5D 1_555 1_555
H7D O6D 1_555 1_555
H8D O6D 1_555 1_555
H11F O8 1_555 1_555
Zn1F N1F 1_555 1_555
Zn1F O1F 1_555 1_555
C1F C2F 1_555 1_555
Na1F O5D 1_555 1_555
Na1F_2 O6D 1_555 1_555

#END
