
#######################################################################
#
#                 Cambridge Crystallographic Data Centre
#                                CCDC 
#
#######################################################################
#
# If this CIF has been generated from an entry in the Cambridge 
# Structural Database, then it will include bibliographic, chemical, 
# crystal, experimental, refinement or atomic coordinate data resulting 
# from the CCDC's data processing and validation procedures.
#
#######################################################################

data_LIFWUT
_symmetry_cell_setting           monoclinic
_symmetry_space_group_name_H-M   'P 21/n'
_symmetry_Int_Tables_number      14
_space_group_name_Hall           '-P 2yn'
loop_
_symmetry_equiv_pos_site_id
_symmetry_equiv_pos_as_xyz
1 x,y,z
2 1/2-x,1/2+y,1/2-z
3 -x,-y,-z
4 1/2+x,1/2-y,1/2+z
_cell_length_a                   6.511(2)
_cell_length_b                   10.197(3)
_cell_length_c                   12.367(4)
_cell_angle_alpha                90
_cell_angle_beta                 97.53(3)
_cell_angle_gamma                90
_cell_volume                     813.997
loop_
_atom_site_label
_atom_site_type_symbol
_atom_site_fract_x
_atom_site_fract_y
_atom_site_fract_z
Cd1 Cd 0.51838(7) -0.55816(4) 0.14470(3)
Cl1 Cl 0.3616(2) -0.35033(15) 0.03209(12)
N1 N 0.6107(9) -0.7498(6) 0.2435(5)
N2 N 0.6313(8) -0.8559(6) 0.2783(4)
N3 N 0.6524(8) -0.9627(6) 0.3158(5)
N4 N 0.3978(8) -0.4710(5) 0.2969(4)
C1 C 0.4036(9) -0.3430(6) 0.3164(5)
H1 H 0.4592 -0.2882 0.2676
C2 C 0.3291(9) -0.2863(6) 0.4077(5)
C3 C 0.2506(9) -0.3698(6) 0.4803(5)
H2 H 0.2011 -0.3366 0.5419
C4 C 0.2466(9) -0.5036(7) 0.4600(5)
H3 H 0.1948 -0.5607 0.5085
C5 C 0.3192(9) -0.5521(6) 0.3681(5)
H4 H 0.3142 -0.6418 0.3546
N5 N 0.3230(8) -0.1489(6) 0.4185(4)
H5 H 0.3997 -0.1061 0.3744
H6 H 0.3281 -0.1266 0.4890
Cd1B Cd 0.48162(7) -0.44184(4) -0.14470(3)
Cd1A Cd 0.98162(7) -1.05816(4) 0.35530(3)
Cd1A_2 Cd -0.01838(7) -0.05816(4) 0.35530(3)
Cl1B Cl 0.6384(2) -0.64967(15) -0.03209(12)
N3A N 0.8476(8) -0.4627(6) 0.1842(5)
N5A N 0.1770(8) -0.6489(6) 0.0815(4)
H5A H 0.1003 -0.6061 0.1256
H6A H 0.1719 -0.6266 0.0110
loop_
_geom_bond_atom_site_label_1
_geom_bond_atom_site_label_2
_geom_bond_site_symmetry_1
_geom_bond_site_symmetry_2
Cd1 Cl1 1_555 1_555
Cl1 Cd1B 1_555 1_555
N1 Cd1 1_555 1_555
N2 N1 1_555 1_555
N3 N2 1_555 1_555
N4 Cd1 1_555 1_555
C1 N4 1_555 1_555
H1 C1 1_555 1_555
C2 C1 1_555 1_555
C3 C2 1_555 1_555
H2 C3 1_555 1_555
C4 C3 1_555 1_555
H3 C4 1_555 1_555
C5 N4 1_555 1_555
H4 C5 1_555 1_555
N5 C2 1_555 1_555
H5 N5 1_555 1_555
H6 N5 1_555 1_555
Cd1B Cl1B 1_555 1_555
Cd1A N3 1_555 1_555
Cd1A_2 N5 1_555 1_555
Cl1B Cd1 1_555 1_555
N3A Cd1 1_555 1_555
N5A Cd1 1_555 1_555
H5A N5A 1_555 1_555
H6A N5A 1_555 1_555
C4 C5 1_555 1_555

#END
