
#######################################################################
#
#                 Cambridge Crystallographic Data Centre
#                                CCDC 
#
#######################################################################
#
# If this CIF has been generated from an entry in the Cambridge 
# Structural Database, then it will include bibliographic, chemical, 
# crystal, experimental, refinement or atomic coordinate data resulting 
# from the CCDC's data processing and validation procedures.
#
#######################################################################

data_LIFZUX
_symmetry_cell_setting           monoclinic
_symmetry_space_group_name_H-M   'P 21/c'
_symmetry_Int_Tables_number      14
_space_group_name_Hall           '-P 2ybc'
loop_
_symmetry_equiv_pos_site_id
_symmetry_equiv_pos_as_xyz
1 x,y,z
2 -x,1/2+y,1/2-z
3 -x,-y,-z
4 x,1/2-y,1/2+z
_cell_length_a                   10.733(2)
_cell_length_b                   9.0690(18)
_cell_length_c                   16.580(3)
_cell_angle_alpha                90
_cell_angle_beta                 129.773(9)
_cell_angle_gamma                90
_cell_volume                     1240.39
loop_
_atom_site_label
_atom_site_type_symbol
_atom_site_fract_x
_atom_site_fract_y
_atom_site_fract_z
Cu1 Cu -0.00095(4) -0.24823(4) -0.07727(2)
N1 N -0.1760(3) -0.1197(3) -0.19409(17)
N2 N -0.0509(3) 0.1618(3) -0.33586(17)
H1 H -0.0212 0.0664 -0.3253
H2 H 0.0124 0.2062 -0.2727
C1 C -0.1416(3) -0.0233(3) -0.2390(2)
H3 H -0.0348 -0.0153 -0.2121
C2 C -0.2577(3) 0.0644(3) -0.3233(2)
C3 C -0.4147(4) 0.0517(4) -0.3604(3)
H4 H -0.4964 0.1084 -0.4173
C4 C -0.4513(4) -0.0439(5) -0.3140(3)
H5 H -0.5566 -0.0514 -0.3380
C5 C -0.3282(4) -0.1288(4) -0.2309(2)
H6 H -0.3525 -0.1946 -0.1997
C6 C -0.2176(4) 0.1679(4) -0.3757(3)
H7 H -0.2895 0.1458 -0.4502
H8 H -0.2403 0.2680 -0.3679
C7 C -0.0171(3) -0.3047(3) 0.0781(2)
C8 C 0.1237(3) -0.4002(3) 0.1022(2)
O1 O -0.0840(3) -0.2195(2) -0.00120(16)
O2 O 0.1465(2) -0.3870(2) 0.03635(15)
O3 O -0.0565(3) -0.3156(3) 0.13291(17)
O4 O 0.1989(3) -0.4813(3) 0.17918(17)
O5 O 0.1804(3) -0.0658(2) -0.00134(19)
H9 H 0.2711 -0.0999 0.0441
H10 H 0.1587 0.0143 0.0038
Cu1A Cu 0.00095(4) 0.25177(4) -0.42273(2)
N2A N 0.0509(3) -0.3382(3) -0.16414(17)
O6 O -0.5109(3) -0.5414(4) -0.6223(2)
H11 H -0.5771 -0.5097 -0.6791
H12 H -0.5493 -0.5886 -0.6026
O7 O -0.3639(4) -0.3150(3) -0.4571(2)
H13 H -0.2742 -0.2827 -0.4273
H14 H -0.3940 -0.3731 -0.5043
loop_
_geom_bond_atom_site_label_1
_geom_bond_atom_site_label_2
_geom_bond_site_symmetry_1
_geom_bond_site_symmetry_2
Cu1 N1 1_555 1_555
N1 C1 1_555 1_555
N2 H1 1_555 1_555
H2 N2 1_555 1_555
C1 H3 1_555 1_555
C2 C1 1_555 1_555
C3 C2 1_555 1_555
H4 C3 1_555 1_555
C4 C3 1_555 1_555
H5 C4 1_555 1_555
C5 N1 1_555 1_555
H6 C5 1_555 1_555
C6 N2 1_555 1_555
H7 C6 1_555 1_555
H8 C6 1_555 1_555
C7 C8 1_555 1_555
C8 O2 1_555 1_555
O1 Cu1 1_555 1_555
O2 Cu1 1_555 1_555
O3 C7 1_555 1_555
O4 C8 1_555 1_555
O5 Cu1 1_555 1_555
H9 O5 1_555 1_555
H10 O5 1_555 1_555
O6 H11 1_555 1_555
H12 O6 1_555 1_555
O7 H13 1_555 1_555
H14 O7 1_555 1_555
Cu1A N2 1_555 1_555
N2A Cu1 1_555 1_555
C2 C6 1_555 1_555
C4 C5 1_555 1_555
C7 O1 1_555 1_555

#END
