
#######################################################################
#
#                 Cambridge Crystallographic Data Centre
#                                CCDC 
#
#######################################################################
#
# If this CIF has been generated from an entry in the Cambridge 
# Structural Database, then it will include bibliographic, chemical, 
# crystal, experimental, refinement or atomic coordinate data resulting 
# from the CCDC's data processing and validation procedures.
#
#######################################################################

data_LIGGUF
_symmetry_cell_setting           orthorhombic
_symmetry_space_group_name_H-M   'P n n a'
_symmetry_Int_Tables_number      52
_space_group_name_Hall           '-P 2a 2bc'
loop_
_symmetry_equiv_pos_site_id
_symmetry_equiv_pos_as_xyz
1 x,y,z
2 1/2-x,-y,z
3 x,1/2-y,1/2-z
4 1/2-x,1/2+y,1/2-z
5 -x,-y,-z
6 1/2+x,y,-z
7 -x,1/2+y,1/2+z
8 1/2+x,1/2-y,1/2+z
_cell_length_a                   9.2908(6)
_cell_length_b                   26.5674(18)
_cell_length_c                   9.4838(6)
_cell_angle_alpha                90
_cell_angle_beta                 90
_cell_angle_gamma                90
_cell_volume                     2340.91
loop_
_atom_site_label
_atom_site_type_symbol
_atom_site_fract_x
_atom_site_fract_y
_atom_site_fract_z
Mn1 Mn 0.2500 0.5000 0.06937(5)
O1 O 0.1304(2) 0.54325(7) -0.0796(2)
O2 O -0.1032(2) 0.56223(7) -0.0810(2)
N1 N 0.1386(3) 0.53183(9) 0.2717(2)
C1 C 0.0263(3) 0.57279(8) -0.0950(2)
C2 C -0.0528(3) 0.65955(9) -0.1650(3)
H1 H -0.1476 0.6492 -0.1530
C3 C 0.1923(3) 0.51944(11) 0.3987(3)
C4 C -0.0227(3) 0.70807(8) -0.2110(3)
C5 C 0.0601(3) 0.62658(8) -0.1368(2)
C6 C 0.1208(3) 0.72358(8) -0.2262(3)
C7 C -0.1268(4) 0.7500 -0.2500
C8 C 0.2019(3) 0.64251(9) -0.1500(3)
H2 H 0.2766 0.6205 -0.1289
C9 C 0.2331(3) 0.69139(10) -0.1946(3)
H3 H 0.3280 0.7021 -0.2030
C10 C 0.0310(3) 0.56463(13) 0.2677(3)
H4 H -0.0089 0.5723 0.1804
C11 C 0.0321(4) 0.57578(15) 0.5144(3)
H5 H -0.0034 0.5908 0.5959
C12 C -0.0251(4) 0.58798(14) 0.3845(4)
H6 H -0.0993 0.6113 0.3764
C13 C 0.1415(3) 0.54132(14) 0.5220(3)
H7 H 0.1813 0.5327 0.6087
C14 C -0.2164(5) 0.73616(15) -0.3846(6)
H8 H -0.2710 0.7658 -0.4110
H9 H -0.1485 0.7299 -0.4602
C15 C -0.3180(7) 0.6934(3) -0.3819(7)
H10 H -0.2654 0.6626 -0.3699
H11 H -0.3705 0.6922 -0.4690
H12 H -0.3841 0.6975 -0.3049
O1B O 0.1304(2) 0.95675(7) -0.4204(2)
C1B C 0.0263(3) 0.92721(8) -0.4050(2)
C2B C -0.0528(3) 0.84045(9) -0.3350(3)
H1B H -0.1476 0.8508 -0.3470
C4B C -0.0227(3) 0.79193(8) -0.2890(3)
C5B C 0.0601(3) 0.87342(8) -0.3632(2)
C6B C 0.1208(3) 0.77642(8) -0.2738(3)
C8B C 0.2019(3) 0.85749(9) -0.3500(3)
H2B H 0.2766 0.8795 -0.3711
C9B C 0.2331(3) 0.80861(10) -0.3054(3)
H3B H 0.3280 0.7979 -0.2970
C14B C -0.2164(5) 0.76384(15) -0.1154(6)
H8B H -0.2710 0.7342 -0.0890
H9B H -0.1485 0.7701 -0.0398
C15B C -0.3180(7) 0.8066(3) -0.1181(7)
H10B H -0.2654 0.8374 -0.1301
H11B H -0.3705 0.8078 -0.0310
H12B H -0.3841 0.8025 -0.1951
O2B O -0.1032(2) 0.93777(7) -0.4190(2)
N1A N 0.3614(3) 0.46817(9) 0.2717(2)
C3A C 0.3077(3) 0.48056(11) 0.3987(3)
C10A C 0.4690(3) 0.43537(13) 0.2677(3)
H4A H 0.5089 0.4277 0.1804
C11A C 0.4679(4) 0.42422(15) 0.5144(3)
H5A H 0.5034 0.4092 0.5959
C12A C 0.5251(4) 0.41202(14) 0.3845(4)
H6A H 0.5993 0.3887 0.3764
C13A C 0.3585(3) 0.45868(14) 0.5220(3)
H7A H 0.3187 0.4673 0.6087
Mn1B Mn 0.2500 1.0000 -0.56937(5)
Mn1D Mn -0.2500 0.5000 -0.06937(5)
Mn1F Mn -0.2500 1.0000 -0.43063(5)
O1A O 0.3696(2) 0.45675(7) -0.0796(2)
O2D O 0.1032(2) 0.43777(7) 0.0810(2)
O2E O 0.3968(2) 0.56223(7) 0.0810(2)
loop_
_geom_bond_atom_site_label_1
_geom_bond_atom_site_label_2
_geom_bond_site_symmetry_1
_geom_bond_site_symmetry_2
Mn1 O1 1_555 1_555
O1 C1 1_555 1_555
O2 C1 1_555 1_555
N1 Mn1 1_555 1_555
C1 C5 1_555 1_555
C2 H1 1_555 1_555
C3 N1 1_555 1_555
C4 C2 1_555 1_555
C5 C2 1_555 1_555
C6 C4 1_555 1_555
C7 C4 1_555 1_555
C8 C5 1_555 1_555
H2 C8 1_555 1_555
C9 C6 1_555 1_555
H3 C9 1_555 1_555
C10 N1 1_555 1_555
H4 C10 1_555 1_555
C11 H5 1_555 1_555
C12 C10 1_555 1_555
H6 C12 1_555 1_555
C13 C3 1_555 1_555
H7 C13 1_555 1_555
C14 C7 1_555 1_555
H8 C14 1_555 1_555
H9 C14 1_555 1_555
C15 C14 1_555 1_555
H10 C15 1_555 1_555
H11 C15 1_555 1_555
H12 C15 1_555 1_555
O1B C1B 1_555 1_555
C1B C5B 1_555 1_555
C2B H1B 1_555 1_555
C4B C7 1_555 1_555
C5B C2B 1_555 1_555
C6B C6 1_555 1_555
C8B C5B 1_555 1_555
H2B C8B 1_555 1_555
C9B C6B 1_555 1_555
H3B C9B 1_555 1_555
C14B C7 1_555 1_555
H8B C14B 1_555 1_555
H9B C14B 1_555 1_555
C15B C14B 1_555 1_555
H10B C15B 1_555 1_555
H11B C15B 1_555 1_555
H12B C15B 1_555 1_555
O2B C1B 1_555 1_555
N1A Mn1 1_555 1_555
C3A C3 1_555 1_555
C10A N1A 1_555 1_555
H4A C10A 1_555 1_555
C11A H5A 1_555 1_555
C12A C10A 1_555 1_555
H6A C12A 1_555 1_555
C13A C3A 1_555 1_555
H7A C13A 1_555 1_555
Mn1B O1B 1_555 1_555
Mn1D O2 1_555 1_555
Mn1F O2B 1_555 1_555
O1A Mn1 1_555 1_555
O2D Mn1 1_555 1_555
O2E Mn1 1_555 1_555
C8 C9 1_555 1_555
C11 C12 1_555 1_555
C11 C13 1_555 1_555
C2B C4B 1_555 1_555
C4B C6B 1_555 1_555
C8B C9B 1_555 1_555
N1A C3A 1_555 1_555
C11A C12A 1_555 1_555
C11A C13A 1_555 1_555

#END
