
#######################################################################
#
#                 Cambridge Crystallographic Data Centre
#                                CCDC 
#
#######################################################################
#
# If this CIF has been generated from an entry in the Cambridge 
# Structural Database, then it will include bibliographic, chemical, 
# crystal, experimental, refinement or atomic coordinate data resulting 
# from the CCDC's data processing and validation procedures.
#
#######################################################################

data_LIGMOE
_symmetry_cell_setting           monoclinic
_symmetry_space_group_name_H-M   'C c'
_symmetry_Int_Tables_number      9
_space_group_name_Hall           'C -2yc'
loop_
_symmetry_equiv_pos_site_id
_symmetry_equiv_pos_as_xyz
1 x,y,z
2 x,-y,1/2+z
3 1/2+x,1/2+y,z
4 1/2+x,1/2-y,1/2+z
_cell_length_a                   21.489(13)
_cell_length_b                   12.675(7)
_cell_length_c                   14.589(9)
_cell_angle_alpha                90
_cell_angle_beta                 90.855(10)
_cell_angle_gamma                90
_cell_volume                     3973.21
loop_
_atom_site_label
_atom_site_type_symbol
_atom_site_fract_x
_atom_site_fract_y
_atom_site_fract_z
Cd1 Cd -0.19564(4) -0.47046(7) 0.40039(5)
S1 S -0.10849(17) -0.4966(3) 0.0324(2)
S2 S -0.14266(16) -0.3841(3) 0.2569(2)
N1 N -0.3005(6) -0.4387(10) 0.0432(9)
N2 N -0.2386(5) -0.4297(11) 0.0219(7)
N3 N -0.1996(6) -0.7043(9) 0.2958(8)
N4 N -0.1681(5) -0.6115(9) 0.3104(7)
N5 N -0.2915(6) -0.4196(10) 0.3282(7)
N6 N -0.2059(6) -0.3029(11) 0.4737(8)
C1 C -0.3014(6) -0.6272(12) 0.1823(8)
H1 H -0.2607 -0.6321 0.1581
C2 C -0.3140(8) -0.6680(13) 0.2714(9)
C3 C -0.3713(6) -0.6592(12) 0.3057(11)
H2 H -0.3791 -0.6858 0.3653
C4 C -0.4195(7) -0.6117(13) 0.2557(9)
H3 H -0.4594 -0.6044 0.2822
C5 C -0.4095(7) -0.5751(13) 0.1672(11)
H4 H -0.4429 -0.5469 0.1314
C6 C -0.3486(7) -0.5808(13) 0.1315(11)
C7 C -0.3366(8) -0.5390(14) 0.0362(13)
H5 H -0.3766 -0.5260 0.0037
H6 H -0.3128 -0.5916 0.0008
C8 C -0.3165(7) -0.3463(13) 0.0878(10)
H7 H -0.3556 -0.3313 0.1141
C9 C -0.2691(6) -0.2844(13) 0.0875(10)
H8 H -0.2681 -0.2144 0.1108
C10 C -0.2190(6) -0.3376(11) 0.0467(8)
C11 C -0.1567(6) -0.2955(10) 0.0279(8)
C12 C -0.1505(7) -0.1871(12) 0.0199(9)
H9 H -0.1870 -0.1450 0.0224
C13 C -0.0955(8) -0.1386(14) 0.0090(14)
H10 H -0.0934 -0.0639 0.0044
C14 C -0.0416(7) -0.1992(13) 0.0045(10)
H11 H -0.0026 -0.1655 -0.0043
C15 C -0.0440(6) -0.3073(12) 0.0126(9)
H12 H -0.0068 -0.3477 0.0112
C16 C -0.1017(6) -0.3576(11) 0.0231(8)
C17 C -0.0314(8) -0.5435(12) 0.0123(10)
H13 H -0.0040 -0.5229 0.0635
H14 H -0.0320 -0.6206 0.0070
H15 H -0.0159 -0.5129 -0.0447
C18 C -0.2642(5) -0.7206(12) 0.3296(9)
H16 H -0.2666 -0.6929 0.3929
H17 H -0.2728 -0.7973 0.3319
C19 C -0.1657(7) -0.7732(11) 0.2506(9)
H18 H -0.1784 -0.8426 0.2346
C20 C -0.1086(8) -0.7284(13) 0.2300(11)
H19 H -0.0753 -0.7594 0.1977
C21 C -0.1115(6) -0.6267(11) 0.2680(9)
C22 C -0.0619(6) -0.5504(10) 0.2697(10)
C23 C -0.0003(7) -0.5945(15) 0.2762(10)
H20 H 0.0049 -0.6683 0.2847
C24 C 0.0501(7) -0.5318(14) 0.2705(11)
H21 H 0.0903 -0.5629 0.2722
C25 C 0.0451(7) -0.4250(14) 0.2623(11)
H22 H 0.0817 -0.3833 0.2583
C26 C -0.0145(7) -0.3750(14) 0.2597(10)
H23 H -0.0180 -0.3004 0.2556
C27 C -0.0672(6) -0.4385(12) 0.2634(9)
C28 C -0.1310(7) -0.2508(11) 0.2713(10)
H24 H -0.1364 -0.2324 0.3360
H25 H -0.1613 -0.2117 0.2335
H26 H -0.0888 -0.2324 0.2527
C29 C -0.3373(7) -0.3779(13) 0.3208(9)
C30 C -0.3973(8) -0.3229(16) 0.3061(14)
H27 H -0.4314 -0.3685 0.3257
H28 H -0.4027 -0.3062 0.2409
H29 H -0.3975 -0.2574 0.3419
C31 C -0.2046(6) -0.2183(11) 0.4979(9)
C32 C -0.2027(9) -0.1120(14) 0.5296(13)
H30 H -0.1768 -0.1078 0.5853
H31 H -0.2449 -0.0881 0.5430
H32 H -0.1849 -0.0668 0.4821
Cd1A Cd -0.19564(4) -0.52954(7) -0.09961(5)
S1A S -0.10849(17) -0.5034(3) 0.5324(2)
N2A N -0.2386(5) -0.5703(11) 0.5219(7)
C33 C -0.3715(8) -0.072(2) 0.5005(13)
N7 N -0.3761(7) -0.165(2) 0.4928(12)
C34 C -0.3608(13) 0.038(2) 0.511(2)
H33 H -0.3362 0.0507 0.5665
H34 H -0.4007 0.0748 0.5145
H35 H -0.3380 0.0641 0.4574
Cl2 Cl -0.49871(18) -0.6548(3) 0.5171(3)
O5 O -0.4809(9) -0.6706(16) 0.6121(14)
O6 O -0.5626(6) -0.6792(13) 0.5030(12)
O7 O -0.4807(7) -0.5539(11) 0.4808(11)
O8 O -0.4598(9) -0.7354(16) 0.4738(15)
Cl3 Cl -0.26430(17) -0.9689(3) 0.7616(2)
O9 O -0.289(4) -1.041(6) 0.824(5)
O10 O -0.291(4) -0.984(7) 0.670(3)
O11 O -0.270(4) -0.864(3) 0.795(6)
O12 O -0.1985(13) -0.984(7) 0.756(7)
Cl1? Cl -0.49871(18) -0.6548(3) 0.5171(3)
O1? O -0.533(2) -0.608(4) 0.594(3)
O2? O -0.5448(16) -0.706(3) 0.461(2)
O3? O -0.4610(19) -0.578(3) 0.472(3)
O4? O -0.4590(19) -0.729(3) 0.567(3)
Cl4? Cl -0.26430(17) -0.9689(3) 0.7616(2)
O13? O -0.2356(8) -1.0055(14) 0.8433(13)
O14? O -0.3056(7) -1.0529(12) 0.7276(11)
O15? O -0.2936(7) -0.8705(12) 0.7753(11)
O16? O -0.2165(7) -0.9525(12) 0.6967(11)
loop_
_geom_bond_atom_site_label_1
_geom_bond_atom_site_label_2
_geom_bond_site_symmetry_1
_geom_bond_site_symmetry_2
Cd1 S2 1_555 1_555
S1 C16 1_555 1_555
S2 C27 1_555 1_555
N1 N2 1_555 1_555
N2 C10 1_555 1_555
N3 N4 1_555 1_555
N4 Cd1 1_555 1_555
N5 Cd1 1_555 1_555
N6 Cd1 1_555 1_555
C1 H1 1_555 1_555
C2 C1 1_555 1_555
C3 C2 1_555 1_555
H2 C3 1_555 1_555
C4 C3 1_555 1_555
H3 C4 1_555 1_555
C5 C4 1_555 1_555
H4 C5 1_555 1_555
C6 C1 1_555 1_555
C7 N1 1_555 1_555
H5 C7 1_555 1_555
H6 C7 1_555 1_555
C8 N1 1_555 1_555
H7 C8 1_555 1_555
C9 C8 1_555 1_555
H8 C9 1_555 1_555
C10 C9 1_555 1_555
C11 C10 1_555 1_555
C12 C11 1_555 1_555
H9 C12 1_555 1_555
C13 C12 1_555 1_555
H10 C13 1_555 1_555
C14 C13 1_555 1_555
H11 C14 1_555 1_555
C15 C14 1_555 1_555
H12 C15 1_555 1_555
C16 C11 1_555 1_555
C17 S1 1_555 1_555
H13 C17 1_555 1_555
H14 C17 1_555 1_555
H15 C17 1_555 1_555
C18 N3 1_555 1_555
H16 C18 1_555 1_555
H17 C18 1_555 1_555
C19 N3 1_555 1_555
H18 C19 1_555 1_555
C20 C19 1_555 1_555
H19 C20 1_555 1_555
C21 N4 1_555 1_555
C22 C21 1_555 1_555
C23 C22 1_555 1_555
H20 C23 1_555 1_555
C24 C23 1_555 1_555
H21 C24 1_555 1_555
C25 C24 1_555 1_555
H22 C25 1_555 1_555
C26 C25 1_555 1_555
H23 C26 1_555 1_555
C27 C22 1_555 1_555
C28 S2 1_555 1_555
H24 C28 1_555 1_555
H25 C28 1_555 1_555
H26 C28 1_555 1_555
C29 N5 1_555 1_555
C30 C29 1_555 1_555
H27 C30 1_555 1_555
H28 C30 1_555 1_555
H29 C30 1_555 1_555
C31 N6 1_555 1_555
C32 C31 1_555 1_555
H30 C32 1_555 1_555
H31 C32 1_555 1_555
H32 C32 1_555 1_555
C33 N7 1_555 1_555
C34 C33 1_555 1_555
H33 C34 1_555 1_555
H34 C34 1_555 1_555
H35 C34 1_555 1_555
Cl2 O5 1_555 1_555
O6 Cl2 1_555 1_555
O7 Cl2 1_555 1_555
O8 Cl2 1_555 1_555
Cl3 O9 1_555 1_555
O10 Cl3 1_555 1_555
O11 Cl3 1_555 1_555
O12 Cl3 1_555 1_555
Cd1A S1 1_555 1_555
S1A Cd1 1_555 1_555
N2A Cd1 1_555 1_555
N2 Cd1A 1_555 1_555
C2 C18 1_555 1_555
C5 C6 1_555 1_555
C6 C7 1_555 1_555
C15 C16 1_555 1_555
C20 C21 1_555 1_555
C26 C27 1_555 1_555

#END
