
#######################################################################
#
#                 Cambridge Crystallographic Data Centre
#                                CCDC 
#
#######################################################################
#
# If this CIF has been generated from an entry in the Cambridge 
# Structural Database, then it will include bibliographic, chemical, 
# crystal, experimental, refinement or atomic coordinate data resulting 
# from the CCDC's data processing and validation procedures.
#
#######################################################################

data_LIGPUO
_symmetry_cell_setting           triclinic
_symmetry_space_group_name_H-M   'P -1'
_symmetry_Int_Tables_number      2
_space_group_name_Hall           '-P 1'
loop_
_symmetry_equiv_pos_site_id
_symmetry_equiv_pos_as_xyz
1 x,y,z
2 -x,-y,-z
_cell_length_a                   10.3270(12)
_cell_length_b                   10.5425(13)
_cell_length_c                   18.902(2)
_cell_angle_alpha                75.5390(10)
_cell_angle_beta                 82.8530(10)
_cell_angle_gamma                83.3280(10)
_cell_volume                     1969.45
loop_
_atom_site_label
_atom_site_type_symbol
_atom_site_fract_x
_atom_site_fract_y
_atom_site_fract_z
Gd1 Gd 0.332849(15) 0.733044(15) 0.262317(8)
S1 S 0.00610(9) 0.71993(9) 0.37195(5)
S2 S 0.55270(8) 0.43887(8) 0.22566(4)
S3 S 0.18733(10) 1.06899(9) 0.17336(5)
O1 O 0.4859(3) 0.3241(3) 0.25871(14)
O2 O 0.6902(2) 0.4256(3) 0.23682(14)
O3 O 0.4870(2) 0.5566(2) 0.24735(12)
O4 O 0.0119(4) 0.5855(3) 0.41165(18)
O5 O -0.1090(3) 0.7636(4) 0.33315(19)
O6 O 0.1237(2) 0.7515(3) 0.32178(15)
O7 O 0.2577(3) 0.9462(2) 0.20865(14)
O8 O 0.5332(2) 0.8276(3) 0.22652(15)
H1 H 0.6023 0.7820 0.2351
H2 H 0.5505 0.9019 0.2260
O9 O 0.2749(4) 1.1626(3) 0.13343(18)
O10 O 0.0911(3) 1.1150(3) 0.22531(18)
N1 N 0.1919(3) 0.5853(3) 0.21920(17)
N2 N 0.3461(3) 0.7545(3) 0.12223(16)
N3 N 0.3508(3) 0.5851(3) 0.39141(15)
N4 N 0.3542(3) 0.8515(3) 0.36301(16)
C1 C 0.3498(4) 0.4558(4) 0.4064(2)
H3 H 0.3598 0.4157 0.3672
C2 C 0.3391(3) 0.6422(4) 0.44935(18)
C3 C 0.3246(4) 0.5698(4) 0.52225(19)
C4 C 0.3213(4) 0.4332(4) 0.5351(2)
H4 H 0.3100 0.3821 0.5829
C5 C 0.3346(4) 0.3760(4) 0.4770(2)
H5 H 0.3337 0.2855 0.4846
C6 C 0.3161(4) 0.6362(5) 0.5805(2)
H6 H 0.3054 0.5879 0.6290
C7 C 0.3233(4) 0.7658(5) 0.5667(2)
H7 H 0.3187 0.8061 0.6055
C8 C 0.3380(4) 0.8432(4) 0.4932(2)
C9 C 0.3441(3) 0.7823(4) 0.43426(19)
C10 C 0.3617(4) 0.9803(4) 0.3495(2)
H8 H 0.3685 1.0281 0.3009
C11 C 0.3599(4) 1.0479(4) 0.4045(2)
H9 H 0.3674 1.1380 0.3926
C12 C 0.3470(4) 0.9794(4) 0.4757(2)
H10 H 0.3441 1.0231 0.5131
C13 C 0.0013(3) 0.8181(4) 0.4363(2)
C14 C 0.0154(4) 0.9488(4) 0.4115(2)
H11 H 0.0287 0.9856 0.3613
C15 C 0.0098(3) 1.0295(4) 0.46199(19)
C16 C 0.0244(4) 1.1657(4) 0.4392(2)
H12 H 0.0387 1.2046 0.3893
C17 C -0.0180(4) 0.7591(4) 0.5118(2)
H13 H -0.0264 0.6693 0.5278
C18 C 0.6427(4) 0.5855(4) 0.0097(2)
H14 H 0.7046 0.6376 -0.0201
C19 C 0.5478(3) 0.5394(3) -0.0207(2)
C20 C 0.6437(4) 0.5530(4) 0.0838(2)
H15 H 0.7065 0.5835 0.1051
C21 C 0.5484(4) 0.4719(3) 0.12937(18)
C22 C 0.4563(4) 0.4259(4) 0.1008(2)
H16 H 0.3958 0.3728 0.1312
C23 C 0.4283(4) 0.8259(4) 0.0736(2)
H17 H 0.4952 0.8584 0.0906
C24 C 0.4201(5) 0.8553(4) -0.0021(2)
H18 H 0.4820 0.9034 -0.0346
C25 C 0.3193(5) 0.8117(5) -0.0274(2)
H19 H 0.3102 0.8330 -0.0774
C26 C 0.2315(5) 0.7367(4) 0.0210(2)
C27 C 0.1239(5) 0.6856(5) -0.0015(3)
H20 H 0.1087 0.7081 -0.0507
C28 C 0.0462(5) 0.6073(5) 0.0468(3)
H21 H -0.0251 0.5795 0.0310
C29 C 0.0683(4) 0.5643(4) 0.1220(3)
C30 C 0.2498(4) 0.7062(4) 0.0963(2)
C31 C 0.1684(4) 0.6179(4) 0.1474(2)
C32 C 0.0244(4) 0.4353(5) 0.2443(3)
H22 H -0.0206 0.3713 0.2783
C33 C 0.1215(4) 0.4963(4) 0.2652(3)
H23 H 0.1378 0.4731 0.3143
C34 C -0.0029(5) 0.4718(5) 0.1728(3)
H24 H -0.0692 0.4347 0.1580
C35 C -0.0060(4) 0.9450(4) 0.1378(2)
H25 H -0.0244 0.9140 0.1882
C36 C 0.0976(4) 1.0268(4) 0.1096(2)
C37 C 0.1264(4) 1.0724(4) 0.0367(2)
H26 H 0.1951 1.1253 0.0194
C38 C -0.0785(4) 0.9122(4) 0.0903(2)
H27 H -0.1460 0.8579 0.1084
C39 C 0.0512(4) 1.0396(3) -0.0144(2)
S1A S -0.00610(9) 1.28007(9) 0.62805(5)
O4A O -0.0119(4) 1.4145(3) 0.58835(18)
O5A O 0.1090(3) 1.2364(4) 0.66685(19)
O6A O -0.1237(2) 1.2485(3) 0.67822(15)
C13A C -0.0013(3) 1.1819(4) 0.5637(2)
C14A C -0.0154(4) 1.0512(4) 0.5885(2)
H11A H -0.0287 1.0144 0.6387
C15A C -0.0098(3) 0.9705(4) 0.53801(19)
C16A C -0.0244(4) 0.8343(4) 0.5608(2)
H12A H -0.0387 0.7954 0.6107
C17A C 0.0180(4) 1.2409(4) 0.4882(2)
H13A H 0.0264 1.3307 0.4722
S2A S 0.44730(8) 0.56113(8) -0.22566(4)
O1A O 0.5141(3) 0.6759(3) -0.25871(14)
O2A O 0.3098(2) 0.5744(3) -0.23682(14)
O3A O 0.5130(2) 0.4434(2) -0.24735(12)
C18A C 0.3573(4) 0.4145(4) -0.0097(2)
H14A H 0.2954 0.3624 0.0201
C19A C 0.4522(3) 0.4606(3) 0.0207(2)
C20A C 0.3563(4) 0.4470(4) -0.0838(2)
H15A H 0.2935 0.4165 -0.1051
C21A C 0.4516(4) 0.5281(3) -0.12937(18)
C22A C 0.5437(4) 0.5741(4) -0.1008(2)
H16A H 0.6042 0.6272 -0.1312
S3A S -0.18733(10) 0.93101(9) -0.17336(5)
O7A O -0.2577(3) 1.0538(2) -0.20865(14)
O9A O -0.2749(4) 0.8374(3) -0.13343(18)
O10A O -0.0911(3) 0.8850(3) -0.22531(18)
C35A C 0.0060(4) 1.0550(4) -0.1378(2)
H25A H 0.0244 1.0860 -0.1882
C36A C -0.0976(4) 0.9732(4) -0.1096(2)
C37A C -0.1264(4) 0.9276(4) -0.0367(2)
H26A H -0.1951 0.8747 -0.0194
C38A C 0.0785(4) 1.0878(4) -0.0903(2)
H27A H 0.1460 1.1421 -0.1084
C39A C -0.0512(4) 0.9604(3) 0.0144(2)
Gd1A Gd -0.332849(15) 1.266956(15) -0.262317(8)
O8A O -0.5332(2) 1.1724(3) -0.22652(15)
H1A H -0.6023 1.2180 -0.2351
H2A H -0.5505 1.0981 -0.2260
N1A N -0.1919(3) 1.4147(3) -0.21920(17)
N2A N -0.3461(3) 1.2455(3) -0.12223(16)
N3A N -0.3508(3) 1.4149(3) -0.39141(15)
N4A N -0.3542(3) 1.1485(3) -0.36301(16)
C1A C -0.3498(4) 1.5442(4) -0.4064(2)
H3A H -0.3598 1.5843 -0.3672
C2A C -0.3391(3) 1.3578(4) -0.44935(18)
C3A C -0.3246(4) 1.4302(4) -0.52225(19)
C4A C -0.3213(4) 1.5668(4) -0.5351(2)
H4A H -0.3100 1.6179 -0.5829
C5A C -0.3346(4) 1.6240(4) -0.4770(2)
H5A H -0.3337 1.7145 -0.4846
C6A C -0.3161(4) 1.3638(5) -0.5805(2)
H6A H -0.3054 1.4121 -0.6290
C7A C -0.3233(4) 1.2342(5) -0.5667(2)
H7A H -0.3187 1.1939 -0.6055
C8A C -0.3380(4) 1.1568(4) -0.4932(2)
C9A C -0.3441(3) 1.2177(4) -0.43426(19)
C10A C -0.3617(4) 1.0197(4) -0.3495(2)
H8A H -0.3685 0.9719 -0.3009
C11A C -0.3599(4) 0.9521(4) -0.4045(2)
H9A H -0.3674 0.8620 -0.3926
C12A C -0.3470(4) 1.0206(4) -0.4757(2)
H10A H -0.3441 0.9769 -0.5131
C23A C -0.4283(4) 1.1741(4) -0.0736(2)
H17A H -0.4952 1.1416 -0.0906
C24A C -0.4201(5) 1.1447(4) 0.0021(2)
H18A H -0.4820 1.0966 0.0346
C25A C -0.3193(5) 1.1883(5) 0.0274(2)
H19A H -0.3102 1.1670 0.0774
C26A C -0.2315(5) 1.2633(4) -0.0210(2)
C27A C -0.1239(5) 1.3144(5) 0.0015(3)
H20A H -0.1087 1.2919 0.0507
C28A C -0.0462(5) 1.3927(5) -0.0468(3)
H21A H 0.0251 1.4205 -0.0310
C29A C -0.0683(4) 1.4357(4) -0.1220(3)
C30A C -0.2498(4) 1.2938(4) -0.0963(2)
C31A C -0.1684(4) 1.3821(4) -0.1474(2)
C32A C -0.0244(4) 1.5647(5) -0.2443(3)
H22A H 0.0206 1.6287 -0.2783
C33A C -0.1215(4) 1.5037(4) -0.2652(3)
H23A H -0.1378 1.5269 -0.3143
C34A C 0.0029(5) 1.5282(5) -0.1728(3)
H24A H 0.0692 1.5653 -0.1580
Gd1A_2 Gd -0.332849(15) 1.266956(15) 0.737683(8)
Gd1A_3 Gd 0.667151(15) 0.266956(15) -0.262317(8)
O3A_2 O -0.4870(2) 1.4434(2) -0.24735(12)
O6A_2 O -0.1237(2) 1.2485(3) -0.32178(15)
O11 O 0.7648(3) 0.6874(3) 0.23113(19)
H28 H 0.8016 0.7051 0.2648
H29 H 0.7544 0.6070 0.2505
O12 O 0.5858(6) 0.0776(4) 0.2093(4)
H30 H 0.6460 0.0934 0.2320
H31 H 0.5315 0.1457 0.2016
O13 O 0.8185(5) 0.1766(6) 0.2197(5)
H32 H 0.7919 0.2560 0.2201
H33 H 0.9018 0.1691 0.2183
O14 O 0.3255(7) 0.0733(10) 0.6345(6)
H34 H 0.2519 0.1146 0.6381
H35 H 0.3221 0.0095 0.6693
loop_
_geom_bond_atom_site_label_1
_geom_bond_atom_site_label_2
_geom_bond_site_symmetry_1
_geom_bond_site_symmetry_2
Gd1 O3 1_555 1_555
S1 O4 1_555 1_555
S2 O1 1_555 1_555
S3 O7 1_555 1_555
O2 S2 1_555 1_555
O3 S2 1_555 1_555
O5 S1 1_555 1_555
O6 Gd1 1_555 1_555
O7 Gd1 1_555 1_555
O8 Gd1 1_555 1_555
H1 O8 1_555 1_555
H2 O8 1_555 1_555
O9 S3 1_555 1_555
O10 S3 1_555 1_555
N1 Gd1 1_555 1_555
N2 Gd1 1_555 1_555
N3 Gd1 1_555 1_555
N4 Gd1 1_555 1_555
C1 N3 1_555 1_555
H3 C1 1_555 1_555
C2 N3 1_555 1_555
C3 C2 1_555 1_555
C4 C3 1_555 1_555
H4 C4 1_555 1_555
C5 C1 1_555 1_555
H5 C5 1_555 1_555
C6 C3 1_555 1_555
H6 C6 1_555 1_555
C7 C6 1_555 1_555
H7 C7 1_555 1_555
C8 C7 1_555 1_555
C9 N4 1_555 1_555
C10 N4 1_555 1_555
H8 C10 1_555 1_555
C11 C10 1_555 1_555
H9 C11 1_555 1_555
C12 C8 1_555 1_555
H10 C12 1_555 1_555
C13 S1 1_555 1_555
C14 C13 1_555 1_555
H11 C14 1_555 1_555
C15 C14 1_555 1_555
C16 C15 1_555 1_555
H12 C16 1_555 1_555
C17 C13 1_555 1_555
H13 C17 1_555 1_555
C18 H14 1_555 1_555
C19 C18 1_555 1_555
C20 C18 1_555 1_555
H15 C20 1_555 1_555
C21 S2 1_555 1_555
C22 C21 1_555 1_555
H16 C22 1_555 1_555
C23 N2 1_555 1_555
H17 C23 1_555 1_555
C24 C23 1_555 1_555
H18 C24 1_555 1_555
C25 C24 1_555 1_555
H19 C25 1_555 1_555
C26 C25 1_555 1_555
C27 C26 1_555 1_555
H20 C27 1_555 1_555
C28 C27 1_555 1_555
H21 C28 1_555 1_555
C29 C28 1_555 1_555
C30 N2 1_555 1_555
C31 N1 1_555 1_555
C32 H22 1_555 1_555
C33 N1 1_555 1_555
H23 C33 1_555 1_555
C34 C29 1_555 1_555
H24 C34 1_555 1_555
C35 H25 1_555 1_555
C36 S3 1_555 1_555
C37 C36 1_555 1_555
H26 C37 1_555 1_555
C38 C35 1_555 1_555
H27 C38 1_555 1_555
C39 C37 1_555 1_555
O11 H28 1_555 1_555
H29 O11 1_555 1_555
O12 H30 1_555 1_555
H31 O12 1_555 1_555
O13 H32 1_555 1_555
H33 O13 1_555 1_555
O14 H34 1_555 1_555
H35 O14 1_555 1_555
S1A O4A 1_555 1_555
O5A S1A 1_555 1_555
O6A S1A 1_555 1_555
C13A S1A 1_555 1_555
C14A C13A 1_555 1_555
H11A C14A 1_555 1_555
C15A C15 1_555 1_555
C16A C17 1_555 1_555
H12A C16A 1_555 1_555
C17A C16 1_555 1_555
H13A C17A 1_555 1_555
S2A O1A 1_555 1_555
O2A S2A 1_555 1_555
O3A S2A 1_555 1_555
C18A H14A 1_555 1_555
C19A C19 1_555 1_555
C20A C18A 1_555 1_555
H15A C20A 1_555 1_555
C21A S2A 1_555 1_555
C22A C19 1_555 1_555
H16A C22A 1_555 1_555
S3A O7A 1_555 1_555
O7A Gd1A 1_555 1_555
O9A S3A 1_555 1_555
O10A S3A 1_555 1_555
C35A H25A 1_555 1_555
C36A S3A 1_555 1_555
C37A C36A 1_555 1_555
H26A C37A 1_555 1_555
C38A C39 1_555 1_555
H27A C38A 1_555 1_555
C39A C38 1_555 1_555
Gd1A O8A 1_555 1_555
O8A H1A 1_555 1_555
H2A O8A 1_555 1_555
N1A Gd1A 1_555 1_555
N2A Gd1A 1_555 1_555
N3A Gd1A 1_555 1_555
N4A Gd1A 1_555 1_555
C1A N3A 1_555 1_555
H3A C1A 1_555 1_555
C2A N3A 1_555 1_555
C3A C2A 1_555 1_555
C4A C3A 1_555 1_555
H4A C4A 1_555 1_555
C5A C1A 1_555 1_555
H5A C5A 1_555 1_555
C6A C3A 1_555 1_555
H6A C6A 1_555 1_555
C7A C6A 1_555 1_555
H7A C7A 1_555 1_555
C8A C7A 1_555 1_555
C9A N4A 1_555 1_555
C10A N4A 1_555 1_555
H8A C10A 1_555 1_555
C11A C10A 1_555 1_555
H9A C11A 1_555 1_555
C12A C8A 1_555 1_555
H10A C12A 1_555 1_555
C23A N2A 1_555 1_555
H17A C23A 1_555 1_555
C24A C23A 1_555 1_555
H18A C24A 1_555 1_555
C25A C24A 1_555 1_555
H19A C25A 1_555 1_555
C26A C25A 1_555 1_555
C27A C26A 1_555 1_555
H20A C27A 1_555 1_555
C28A C27A 1_555 1_555
H21A C28A 1_555 1_555
C29A C28A 1_555 1_555
C30A N2A 1_555 1_555
C31A N1A 1_555 1_555
C32A H22A 1_555 1_555
C33A N1A 1_555 1_555
H23A C33A 1_555 1_555
C34A C29A 1_555 1_555
H24A C34A 1_555 1_555
Gd1A_2 O6A 1_555 1_555
Gd1A_3 O3A 1_555 1_555
O3A_2 Gd1A 1_555 1_555
O6A_2 Gd1A 1_555 1_555
S1 O6 1_555 1_555
C2 C9 1_555 1_555
C4 C5 1_555 1_555
C8 C9 1_555 1_555
C11 C12 1_555 1_555
C20 C21 1_555 1_555
C22 C19A 1_555 1_555
C26 C30 1_555 1_555
C29 C31 1_555 1_555
C30 C31 1_555 1_555
C32 C33 1_555 1_555
C32 C34 1_555 1_555
C35 C36 1_555 1_555
C39 C39A 1_555 1_555
C13A C17A 1_555 1_555
C14A C15A 1_555 1_555
C15A C16A 1_555 1_555
C18A C19A 1_555 1_555
C20A C21A 1_555 1_555
C21A C22A 1_555 1_555
C35A C36A 1_555 1_555
C35A C38A 1_555 1_555
C37A C39A 1_555 1_555
C2A C9A 1_555 1_555
C4A C5A 1_555 1_555
C8A C9A 1_555 1_555
C11A C12A 1_555 1_555
C26A C30A 1_555 1_555
C29A C31A 1_555 1_555
C30A C31A 1_555 1_555
C32A C33A 1_555 1_555
C32A C34A 1_555 1_555

#END
