
#######################################################################
#
#                 Cambridge Crystallographic Data Centre
#                                CCDC 
#
#######################################################################
#
# If this CIF has been generated from an entry in the Cambridge 
# Structural Database, then it will include bibliographic, chemical, 
# crystal, experimental, refinement or atomic coordinate data resulting 
# from the CCDC's data processing and validation procedures.
#
#######################################################################

data_LIGTOK
_symmetry_cell_setting           monoclinic
_symmetry_space_group_name_H-M   'C 2/c'
_symmetry_Int_Tables_number      15
_space_group_name_Hall           '-C 2yn'
loop_
_symmetry_equiv_pos_site_id
_symmetry_equiv_pos_as_xyz
1 x,y,z
2 -x,y,1/2-z
3 1/2+x,1/2+y,z
4 1/2-x,1/2+y,1/2-z
5 -x,-y,-z
6 x,-y,1/2+z
7 1/2-x,1/2-y,-z
8 1/2+x,1/2-y,1/2+z
_cell_length_a                   11.952
_cell_length_b                   9.691
_cell_length_c                   11.606
_cell_angle_alpha                90
_cell_angle_beta                 108.81
_cell_angle_gamma                90
_cell_volume                     1272.49
loop_
_atom_site_label
_atom_site_type_symbol
_atom_site_fract_x
_atom_site_fract_y
_atom_site_fract_z
Ca1 Ca -0.67711(4) 0.26570(6) 0.68028(4)
O1 O -0.4829(1) 0.2790(2) 0.6358(2)
O2 O -0.6421(2) 0.2587(2) 0.4785(2)
O3 O -0.2960(2) 0.2702(2) 0.3097(2)
O4 O -0.2951(2) 0.4985(2) 0.3175(2)
O5 O -0.6312(2) 0.0266(3) 0.6969(3)
C1 C -0.5311(2) 0.2599(3) 0.5233(2)
C2 C -0.4559(2) 0.2441(3) 0.4423(2)
C3 C -0.4052(2) 0.3818(3) 0.4241(2)
C4 C -0.3272(2) 0.3815(3) 0.3439(2)
H1 H -0.498(2) 0.200(3) 0.369(2)
H2 H -0.399(2) 0.180(2) 0.472(2)
H3 H -0.465(3) 0.438(3) 0.391(3)
H4 H -0.363(2) 0.418(3) 0.502(2)
O1A O -0.5171(1) 0.2790(2) 0.8642(2)
O2F O -0.8579(2) 0.2413(2) 0.5215(2)
Ca1A Ca -0.32289(4) 0.26570(6) 0.81972(4)
Ca1F Ca -0.82289(4) 0.23430(6) 0.31972(4)
O3G O -0.7960(2) 0.2298(2) 0.8097(2)
O4D O -0.7049(2) 0.5015(2) 0.6825(2)
Ca1G Ca -0.17711(4) 0.23430(6) 0.18028(4)
Ca1D Ca -0.32289(4) 0.73430(6) 0.31972(4)
loop_
_geom_bond_atom_site_label_1
_geom_bond_atom_site_label_2
_geom_bond_site_symmetry_1
_geom_bond_site_symmetry_2
Ca1 O1 1_555 1_555
O1 C1 1_555 1_555
O2 Ca1 1_555 1_555
O3 C4 1_555 1_555
O4 C4 1_555 1_555
O5 Ca1 1_555 1_555
C1 O2 1_555 1_555
C2 C1 1_555 1_555
C3 C2 1_555 1_555
C4 C3 1_555 1_555
H1 C2 1_555 1_555
H2 C2 1_555 1_555
H3 C3 1_555 1_555
H4 C3 1_555 1_555
O1A Ca1 1_555 1_555
O2F Ca1 1_555 1_555
Ca1A O1 1_555 1_555
Ca1F O2 1_555 1_555
O3G Ca1 1_555 1_555
O4D Ca1 1_555 1_555
Ca1G O3 1_555 1_555
Ca1D O4 1_555 1_555
O1A Ca1A 1_555 1_555
O2F Ca1F 1_555 1_555

#END
