
#######################################################################
#
#                 Cambridge Crystallographic Data Centre
#                                CCDC 
#
#######################################################################
#
# If this CIF has been generated from an entry in the Cambridge 
# Structural Database, then it will include bibliographic, chemical, 
# crystal, experimental, refinement or atomic coordinate data resulting 
# from the CCDC's data processing and validation procedures.
#
#######################################################################

data_LIGWAA
_symmetry_cell_setting           monoclinic
_symmetry_space_group_name_H-M   'P 21/c'
_symmetry_Int_Tables_number      14
_space_group_name_Hall           '-P 2ybc'
loop_
_symmetry_equiv_pos_site_id
_symmetry_equiv_pos_as_xyz
1 x,y,z
2 -x,1/2+y,1/2-z
3 -x,-y,-z
4 x,1/2-y,1/2+z
_cell_length_a                   7.9424(9)
_cell_length_b                   29.076(4)
_cell_length_c                   10.5680(12)
_cell_angle_alpha                90
_cell_angle_beta                 97.188(7)
_cell_angle_gamma                90
_cell_volume                     2421.32
loop_
_atom_site_label
_atom_site_type_symbol
_atom_site_fract_x
_atom_site_fract_y
_atom_site_fract_z
Cd1 Cd 0.25950(3) 0.500326(10) 0.49057(2)
O1 O 0.4813(3) 0.54849(11) 0.4610(3)
O2 O 0.0266(4) 0.55323(11) 0.4863(2)
O3 O 0.2828(4) 0.54509(12) 0.2959(3)
C1 C 0.4183(6) 0.56157(14) 0.3489(4)
C2 C 0.5118(5) 0.59687(13) 0.2820(4)
C3 C 0.6476(5) 0.61884(15) 0.3449(4)
H1 H 0.6787 0.6129 0.4311
C4 C -0.0218(5) 0.57092(14) 0.5844(4)
C5 C 0.0741(5) 0.61056(14) 0.6487(4)
C6 C 0.2053(6) 0.62859(14) 0.5982(4)
H2 H 0.2349 0.6170 0.5221
C7 C 0.6947(7) 0.65929(15) 0.1517(5)
C8 C 0.7438(6) 0.65090(15) 0.2814(5)
C9 C 0.4614(7) 0.60689(16) 0.1529(4)
H3 H 0.3657 0.5928 0.1102
C10 C 0.0287(7) 0.62817(18) 0.7630(5)
H4 H -0.0632 0.6156 0.7972
C11 C 0.5524(8) 0.63734(17) 0.0894(5)
H5 H 0.5185 0.6434 0.0036
C12 C 0.2537(7) 0.68205(16) 0.7757(5)
C13 C 0.9331(9) 0.7109(2) 0.1518(9)
H6 H 0.9981 0.7309 0.1091
C14 C 0.1175(8) 0.6637(2) 0.8254(5)
H7 H 0.0854 0.6752 0.9010
C15 C 0.7970(9) 0.6904(2) 0.0876(7)
H8 H 0.7684 0.6964 0.0012
C16 C 0.3530(9) 0.71978(19) 0.8389(7)
H9 H 0.3237 0.7319 0.9147
C17 C 0.3011(6) 0.66586(17) 0.6610(5)
C18 C 0.9780(9) 0.7028(3) 0.2796(9)
H10 H 1.0734 0.7173 0.3215
C19 C 0.4404(9) 0.6845(2) 0.6130(7)
H11 H 0.4720 0.6735 0.5367
C20 C 0.5326(11) 0.7193(3) 0.6779(11)
H12 H 0.6283 0.7311 0.6471
C21 C 0.8852(8) 0.6737(2) 0.3476(7)
H13 H 0.9151 0.6693 0.4346
C22 C 0.4812(12) 0.7364(3) 0.7898(10)
H14 H 0.5413 0.7608 0.8309
C23 C 0.2932(6) 0.50183(14) 0.9157(4)
H15 H 0.3366 0.5099 0.9985
C24 C 0.1645(5) 0.47124(14) 0.8803(4)
C25 C 0.3460(5) 0.51836(15) 0.8041(4)
C26 C 0.4826(6) 0.55236(16) 0.7878(4)
H16 H 0.4758 0.5611 0.6997
H17 H 0.5914 0.5388 0.8145
H18 H 0.4684 0.5791 0.8387
C27 C 0.0599(6) 0.44130(17) 0.9555(4)
H19 H -0.0581 0.4454 0.9250
H20 H 0.0802 0.4496 1.0440
H21 H 0.0907 0.4097 0.9456
N1 N 0.2538(4) 0.49965(11) 0.7032(3)
N2 N 0.1435(5) 0.47106(13) 0.7525(3)
O4 O -0.1524(4) 0.55755(11) 0.6294(3)
H22 H 0.064(6) 0.4576(16) 0.697(4)
Cd1B Cd 0.74050(3) 0.499674(10) 0.50943(2)
Cd1B_2 Cd -0.25950(3) 0.499674(10) 0.50943(2)
O1B O 0.5187(3) 0.45151(11) 0.5390(3)
O2B O -0.0266(4) 0.44677(11) 0.5137(2)
O4B O 0.1524(4) 0.44245(11) 0.3706(3)
loop_
_geom_bond_atom_site_label_1
_geom_bond_atom_site_label_2
_geom_bond_site_symmetry_1
_geom_bond_site_symmetry_2
Cd1 O1 1_555 1_555
O1 C1 1_555 1_555
O2 Cd1 1_555 1_555
O3 Cd1 1_555 1_555
C1 O3 1_555 1_555
C2 C1 1_555 1_555
C3 C2 1_555 1_555
H1 C3 1_555 1_555
C4 O2 1_555 1_555
C5 C4 1_555 1_555
C6 C5 1_555 1_555
H2 C6 1_555 1_555
C7 C8 1_555 1_555
C8 C3 1_555 1_555
C9 C2 1_555 1_555
H3 C9 1_555 1_555
C10 C5 1_555 1_555
H4 C10 1_555 1_555
C11 C7 1_555 1_555
H5 C11 1_555 1_555
C12 C14 1_555 1_555
C13 H6 1_555 1_555
C14 C10 1_555 1_555
H7 C14 1_555 1_555
C15 C7 1_555 1_555
H8 C15 1_555 1_555
C16 C12 1_555 1_555
H9 C16 1_555 1_555
C17 C6 1_555 1_555
C18 C13 1_555 1_555
H10 C18 1_555 1_555
C19 C17 1_555 1_555
H11 C19 1_555 1_555
C20 C19 1_555 1_555
H12 C20 1_555 1_555
C21 C8 1_555 1_555
H13 C21 1_555 1_555
C22 C16 1_555 1_555
H14 C22 1_555 1_555
C23 H15 1_555 1_555
C24 C23 1_555 1_555
C25 C23 1_555 1_555
C26 C25 1_555 1_555
H16 C26 1_555 1_555
H17 C26 1_555 1_555
H18 C26 1_555 1_555
C27 C24 1_555 1_555
H19 C27 1_555 1_555
H20 C27 1_555 1_555
H21 C27 1_555 1_555
N1 Cd1 1_555 1_555
N2 C24 1_555 1_555
O4 C4 1_555 1_555
H22 N2 1_555 1_555
Cd1B O1 1_555 1_555
Cd1B_2 O2 1_555 1_555
O1B Cd1 1_555 1_555
O2B Cd1 1_555 1_555
O4B Cd1 1_555 1_555
C9 C11 1_555 1_555
C12 C17 1_555 1_555
C13 C15 1_555 1_555
C18 C21 1_555 1_555
C20 C22 1_555 1_555
C25 N1 1_555 1_555
N1 N2 1_555 1_555
O4 Cd1B_2 1_555 1_555
Cd1B O1B 1_555 1_555
Cd1B_2 O2B 1_555 1_555

#END
