
#######################################################################
#
#                 Cambridge Crystallographic Data Centre
#                                CCDC 
#
#######################################################################
#
# If this CIF has been generated from an entry in the Cambridge 
# Structural Database, then it will include bibliographic, chemical, 
# crystal, experimental, refinement or atomic coordinate data resulting 
# from the CCDC's data processing and validation procedures.
#
#######################################################################

data_LIGYIL
_symmetry_cell_setting           monoclinic
_symmetry_space_group_name_H-M   'C 2/c'
_symmetry_Int_Tables_number      15
_space_group_name_Hall           '-C 2yn'
loop_
_symmetry_equiv_pos_site_id
_symmetry_equiv_pos_as_xyz
1 x,y,z
2 -x,y,1/2-z
3 1/2+x,1/2+y,z
4 1/2-x,1/2+y,1/2-z
5 -x,-y,-z
6 x,-y,1/2+z
7 1/2-x,1/2-y,-z
8 1/2+x,1/2-y,1/2+z
_cell_length_a                   11.124(2)
_cell_length_b                   22.792(5)
_cell_length_c                   12.066(2)
_cell_angle_alpha                90
_cell_angle_beta                 95.51(3)
_cell_angle_gamma                90
_cell_volume                     3045.06
loop_
_atom_site_label
_atom_site_type_symbol
_atom_site_fract_x
_atom_site_fract_y
_atom_site_fract_z
Co1 Co 0.0000 0.379656(12) 0.7500
Co2 Co 0.5000 0.378829(12) 0.7500
S1 S 0.26448(3) 0.397753(16) 0.89235(3)
O1 O 0.38920(10) 0.37753(4) 0.88224(9)
O2 O 0.02400(11) 0.37527(4) 0.57750(10)
H1 H 0.0685 0.3970 0.5413
H2 H -0.0438 0.3770 0.5386
O3 O 0.18890(10) 0.37997(5) 0.78736(9)
O4 O 0.21712(11) 0.36754(6) 0.98602(10)
O5 O 0.26137(11) 0.46083(5) 0.90508(12)
O6 O 0.34406(10) 0.37517(5) 0.63828(10)
H3 H 0.2817 0.3772 0.6691
O7 O 0.19241(10) 0.43332(5) 0.47373(10)
H4 H 0.2014 0.4678 0.4567
N1 N 0.0000 0.47277(8) 0.7500
N2 N 0.0000 0.28541(8) 0.7500
N3 N 0.0000 -0.02709(8) 0.7500
N4 N 0.0000 0.78432(8) 0.7500
C1 C 0.07997(14) 0.50339(7) 0.69724(13)
H5 H 0.1369 0.4829 0.6609
C2 C 0.08205(14) 0.56396(7) 0.69408(13)
H6 H 0.1381 0.5833 0.6547
C3 C 0.0000 0.59596(10) 0.7500
C4 C 0.06167(15) 0.25465(7) 0.83143(14)
H7 H 0.1053 0.2751 0.8886
C5 C 0.06372(15) 0.19388(7) 0.83470(14)
H8 H 0.1075 0.1746 0.8933
C6 C 0.0000 0.16175(9) 0.7500
C7 C 0.06963(15) 0.00386(7) 0.82523(14)
H9 H 0.1188 -0.0166 0.8787
C8 C 0.07272(15) 0.06448(7) 0.82805(14)
H10 H 0.1234 0.0837 0.8821
C9 C 0.0000 0.09664(9) 0.7500
C10 C -0.08776(18) 0.75359(8) 0.78999(19)
H11 H -0.1505 0.7740 0.8182
C11 C -0.09074(17) 0.69292(8) 0.79184(18)
H12 H -0.1541 0.6737 0.8214
C12 C 0.0000 0.66078(10) 0.7500
C13 C 0.31776(15) 0.35169(8) 0.52895(14)
H13 H 0.2479 0.3261 0.5275
H14 H 0.3857 0.3285 0.5093
C14 C 0.29304(16) 0.40015(8) 0.44611(14)
H15 H 0.3633 0.4253 0.4464
H16 H 0.2765 0.3838 0.3720
C1A C -0.07997(14) 0.50339(7) 0.80276(13)
H5A H -0.1369 0.4829 0.8391
C2A C -0.08205(14) 0.56396(7) 0.80592(13)
H6A H -0.1381 0.5833 0.8453
C10A C 0.08776(18) 0.75359(8) 0.71001(19)
H11A H 0.1505 0.7740 0.6818
C11A C 0.09074(17) 0.69292(8) 0.70816(18)
H12A H 0.1541 0.6737 0.6786
C4A C -0.06167(15) 0.25465(7) 0.66857(14)
H7A H -0.1053 0.2751 0.6114
C5A C -0.06372(15) 0.19388(7) 0.66530(14)
H8A H -0.1075 0.1746 0.6067
C7A C -0.06963(15) 0.00386(7) 0.67477(14)
H9A H -0.1188 -0.0166 0.6213
C8A C -0.07272(15) 0.06448(7) 0.67195(14)
H10A H -0.1234 0.0837 0.6179
S1A S -0.26448(3) 0.397753(16) 0.60765(3)
O1A O -0.38920(10) 0.37753(4) 0.61776(9)
O2A O -0.02400(11) 0.37527(4) 0.92250(10)
H1A H -0.0685 0.3970 0.9587
H2A H 0.0438 0.3770 0.9614
O3A O -0.18890(10) 0.37997(5) 0.71264(9)
O4A O -0.21712(11) 0.36754(6) 0.51398(10)
O5A O -0.26137(11) 0.46083(5) 0.59492(12)
O6A O 0.65594(10) 0.37517(5) 0.86172(10)
H3A H 0.7183 0.3772 0.8309
O7A O 0.80759(10) 0.43332(5) 1.02627(10)
H4A H 0.7986 0.4678 1.0433
C13A C 0.68224(15) 0.35169(8) 0.97105(14)
H13A H 0.7521 0.3261 0.9725
H14A H 0.6143 0.3285 0.9907
C14A C 0.70696(16) 0.40015(8) 1.05389(14)
H15A H 0.6367 0.4253 1.0536
H16A H 0.7235 0.3838 1.1280
Co2_2 Co -0.5000 0.378829(12) 0.7500
Co2B Co 0.0000 -0.121171(12) 0.7500
Co2B_2 Co 0.0000 0.878829(12) 0.7500
O1A_2 O 0.61080(10) 0.37753(4) 0.61776(9)
N3B N 0.5000 0.47291(8) 0.7500
N4B N 0.5000 0.28432(8) 0.7500
loop_
_geom_bond_atom_site_label_1
_geom_bond_atom_site_label_2
_geom_bond_site_symmetry_1
_geom_bond_site_symmetry_2
Co1 O2 1_555 1_555
Co2 O1 1_555 1_555
S1 O1 1_555 1_555
O2 H1 1_555 1_555
H2 O2 1_555 1_555
O3 Co1 1_555 1_555
O4 S1 1_555 1_555
O5 S1 1_555 1_555
O6 Co2 1_555 1_555
H3 O6 1_555 1_555
O7 H4 1_555 1_555
N1 Co1 1_555 1_555
N2 Co1 1_555 1_555
N3 C7 1_555 1_555
N4 C10 1_555 1_555
C1 N1 1_555 1_555
H5 C1 1_555 1_555
C2 C1 1_555 1_555
H6 C2 1_555 1_555
C3 C2 1_555 1_555
C4 N2 1_555 1_555
H7 C4 1_555 1_555
C5 C4 1_555 1_555
H8 C5 1_555 1_555
C6 C5 1_555 1_555
C7 H9 1_555 1_555
C8 C7 1_555 1_555
H10 C8 1_555 1_555
C9 C6 1_555 1_555
C10 H11 1_555 1_555
C11 C10 1_555 1_555
H12 C11 1_555 1_555
C12 C3 1_555 1_555
C13 O6 1_555 1_555
H13 C13 1_555 1_555
H14 C13 1_555 1_555
C14 O7 1_555 1_555
H15 C14 1_555 1_555
H16 C14 1_555 1_555
C1A N1 1_555 1_555
H5A C1A 1_555 1_555
C2A C3 1_555 1_555
H6A C2A 1_555 1_555
C10A N4 1_555 1_555
H11A C10A 1_555 1_555
C11A C12 1_555 1_555
H12A C11A 1_555 1_555
C4A N2 1_555 1_555
H7A C4A 1_555 1_555
C5A C6 1_555 1_555
H8A C5A 1_555 1_555
C7A N3 1_555 1_555
H9A C7A 1_555 1_555
C8A C9 1_555 1_555
H10A C8A 1_555 1_555
S1A O1A 1_555 1_555
O1A Co2_2 1_555 1_555
O2A Co1 1_555 1_555
H1A O2A 1_555 1_555
H2A O2A 1_555 1_555
O3A Co1 1_555 1_555
O4A S1A 1_555 1_555
O5A S1A 1_555 1_555
O6A Co2 1_555 1_555
H3A O6A 1_555 1_555
O7A H4A 1_555 1_555
C13A O6A 1_555 1_555
H13A C13A 1_555 1_555
H14A C13A 1_555 1_555
C14A O7A 1_555 1_555
H15A C14A 1_555 1_555
H16A C14A 1_555 1_555
Co2B N3 1_555 1_555
Co2B_2 N4 1_555 1_555
O1A_2 Co2 1_555 1_555
N3B Co2 1_555 1_555
N4B Co2 1_555 1_555
S1 O3 1_555 1_555
C8 C9 1_555 1_555
C11 C12 1_555 1_555
C13 C14 1_555 1_555
C1A C2A 1_555 1_555
C10A C11A 1_555 1_555
C4A C5A 1_555 1_555
C7A C8A 1_555 1_555
S1A O3A 1_555 1_555
C13A C14A 1_555 1_555

#END
