
#######################################################################
#
#                 Cambridge Crystallographic Data Centre
#                                CCDC 
#
#######################################################################
#
# If this CIF has been generated from an entry in the Cambridge 
# Structural Database, then it will include bibliographic, chemical, 
# crystal, experimental, refinement or atomic coordinate data resulting 
# from the CCDC's data processing and validation procedures.
#
#######################################################################

data_LIGYUX
_symmetry_cell_setting           monoclinic
_symmetry_space_group_name_H-M   'C 2/c'
_symmetry_Int_Tables_number      15
_space_group_name_Hall           '-C 2yn'
loop_
_symmetry_equiv_pos_site_id
_symmetry_equiv_pos_as_xyz
1 x,y,z
2 -x,y,1/2-z
3 1/2+x,1/2+y,z
4 1/2-x,1/2+y,1/2-z
5 -x,-y,-z
6 x,-y,1/2+z
7 1/2-x,1/2-y,-z
8 1/2+x,1/2-y,1/2+z
_cell_length_a                   20.561(4)
_cell_length_b                   9.2069(18)
_cell_length_c                   14.769(3)
_cell_angle_alpha                90
_cell_angle_beta                 121.92(3)
_cell_angle_gamma                90
_cell_volume                     2373.05
loop_
_atom_site_label
_atom_site_type_symbol
_atom_site_fract_x
_atom_site_fract_y
_atom_site_fract_z
Zn1 Zn 1.0000 1.11962(11) 0.7500
N1 N 0.9082(3) 0.9824(5) 0.6579(3)
O1 O 1.0873(3) 1.3135(5) 0.7632(4)
O2 O 1.0114(3) 1.1782(5) 0.6268(4)
O3 O 0.9910(3) 1.2342(7) 0.4426(4)
C1 C 1.0823(3) 1.3602(6) 0.6012(4)
C2 C 1.0448(4) 1.3359(7) 0.4910(5)
C3 C 1.0635(4) 1.4197(9) 0.4307(5)
H1 H 1.0376 1.4057 0.3573
C4 C 1.1200(4) 1.5240(8) 0.4775(6)
H2 H 1.1322 1.5800 0.4361
C5 C 1.1581(4) 1.5443(7) 0.5861(5)
C6 C 1.1388(3) 1.4654(6) 0.6467(5)
H3 H 1.1640 1.4827 0.7197
C7 C 1.0603(4) 1.2807(7) 0.6698(5)
C8 C 0.8840(4) 0.8897(8) 0.7008(5)
H4 H 0.9095 0.8858 0.7748
C9 C 0.8228(4) 0.7977(7) 0.6426(5)
H5 H 0.8086 0.7334 0.6778
C10 C 0.7823(3) 0.8000(6) 0.5329(4)
C11 C 0.8075(4) 0.8979(9) 0.4889(5)
H6 H 0.7826 0.9051 0.4151
C12 C 0.8695(4) 0.9866(8) 0.5525(5)
H7 H 0.8847 1.0526 0.5195
Br1 Br 1.23771(5) 1.68398(10) 0.65074(8)
H8 H 0.995(6) 1.187(9) 0.495(5)
N1F N 0.5918(3) 0.5176(5) 0.3421(3)
C8F C 0.6160(4) 0.6103(8) 0.2992(5)
H4F H 0.5905 0.6142 0.2252
C9F C 0.6772(4) 0.7023(7) 0.3574(5)
H5F H 0.6914 0.7666 0.3222
C10F C 0.7177(3) 0.7000(6) 0.4671(4)
C11F C 0.6925(4) 0.6021(9) 0.5111(5)
H6F H 0.7174 0.5949 0.5849
C12F C 0.6305(4) 0.5134(8) 0.4475(5)
H7F H 0.6153 0.4474 0.4805
O1A O 0.9127(3) 1.3135(5) 0.7368(4)
O2A O 0.9886(3) 1.1782(5) 0.8732(4)
O3A O 1.0090(3) 1.2342(7) 1.0574(4)
C1A C 0.9177(3) 1.3602(6) 0.8988(4)
C2A C 0.9552(4) 1.3359(7) 1.0090(5)
C3A C 0.9365(4) 1.4197(9) 1.0693(5)
H1A H 0.9624 1.4057 1.1427
C4A C 0.8800(4) 1.5240(8) 1.0225(6)
H2A H 0.8678 1.5800 1.0639
C5A C 0.8419(4) 1.5443(7) 0.9139(5)
C6A C 0.8612(3) 1.4654(6) 0.8533(5)
H3A H 0.8360 1.4827 0.7803
C7A C 0.9397(4) 1.2807(7) 0.8302(5)
Br1A Br 0.76229(5) 1.68398(10) 0.84926(8)
H8A H 1.005(6) 1.187(9) 1.005(5)
Zn1F Zn 0.5000 0.38038(11) 0.2500
N1A N 1.0918(3) 0.9824(5) 0.8421(3)
loop_
_geom_bond_atom_site_label_1
_geom_bond_atom_site_label_2
_geom_bond_site_symmetry_1
_geom_bond_site_symmetry_2
Zn1 N1 1_555 1_555
N1 C8 1_555 1_555
O1 Zn1 1_555 1_555
O2 Zn1 1_555 1_555
O3 C2 1_555 1_555
C1 C2 1_555 1_555
C2 C3 1_555 1_555
C3 H1 1_555 1_555
C4 C3 1_555 1_555
H2 C4 1_555 1_555
C5 C4 1_555 1_555
C6 C1 1_555 1_555
H3 C6 1_555 1_555
C7 O1 1_555 1_555
C8 H4 1_555 1_555
C9 C8 1_555 1_555
H5 C9 1_555 1_555
C10 C9 1_555 1_555
C11 C10 1_555 1_555
H6 C11 1_555 1_555
C12 N1 1_555 1_555
H7 C12 1_555 1_555
Br1 C5 1_555 1_555
H8 O3 1_555 1_555
N1F C8F 1_555 1_555
C8F H4F 1_555 1_555
C9F C8F 1_555 1_555
H5F C9F 1_555 1_555
C10F C10 1_555 1_555
C11F C10F 1_555 1_555
H6F C11F 1_555 1_555
C12F N1F 1_555 1_555
H7F C12F 1_555 1_555
O1A Zn1 1_555 1_555
O2A Zn1 1_555 1_555
O3A C2A 1_555 1_555
C1A C2A 1_555 1_555
C2A C3A 1_555 1_555
C3A H1A 1_555 1_555
C4A C3A 1_555 1_555
H2A C4A 1_555 1_555
C5A C4A 1_555 1_555
C6A C1A 1_555 1_555
H3A C6A 1_555 1_555
C7A O1A 1_555 1_555
Br1A C5A 1_555 1_555
H8A O3A 1_555 1_555
Zn1F N1F 1_555 1_555
N1A Zn1 1_555 1_555
O2 C7 1_555 1_555
C1 C7 1_555 1_555
C5 C6 1_555 1_555
C11 C12 1_555 1_555
C9F C10F 1_555 1_555
C11F C12F 1_555 1_555
O2A C7A 1_555 1_555
C1A C7A 1_555 1_555
C5A C6A 1_555 1_555

#END
