
#######################################################################
#
#                 Cambridge Crystallographic Data Centre
#                                CCDC 
#
#######################################################################
#
# If this CIF has been generated from an entry in the Cambridge 
# Structural Database, then it will include bibliographic, chemical, 
# crystal, experimental, refinement or atomic coordinate data resulting 
# from the CCDC's data processing and validation procedures.
#
#######################################################################

data_LIHCAI
_symmetry_cell_setting           monoclinic
_symmetry_space_group_name_H-M   'P 21/n'
_symmetry_Int_Tables_number      14
_space_group_name_Hall           '-P 2yn'
loop_
_symmetry_equiv_pos_site_id
_symmetry_equiv_pos_as_xyz
1 x,y,z
2 1/2-x,1/2+y,1/2-z
3 -x,-y,-z
4 1/2+x,1/2-y,1/2+z
_cell_length_a                   6.5770(13)
_cell_length_b                   8.4190(17)
_cell_length_c                   20.661(4)
_cell_angle_alpha                90
_cell_angle_beta                 95.75(3)
_cell_angle_gamma                90
_cell_volume                     1138.28
loop_
_atom_site_label
_atom_site_type_symbol
_atom_site_fract_x
_atom_site_fract_y
_atom_site_fract_z
Zn1 Zn 0.49792(10) 0.28344(8) 0.20414(3)
Zn2 Zn 0.5000 0.0000 0.5000
C1 C -0.0869(9) 0.5026(7) 0.3820(3)
H1 H -0.1970 0.5686 0.3878
C2 C -0.0693(9) 0.3633(7) 0.4155(3)
H2 H -0.1646 0.3359 0.4439
C3 C 0.0926(9) 0.2627(7) 0.4067(3)
H3 H 0.1056 0.1659 0.4284
C4 C 0.2359(8) 0.3088(7) 0.3649(3)
C5 C 0.2063(8) 0.4527(7) 0.3337(3)
H4 H 0.3015 0.4850 0.3060
C6 C 0.4142(9) 0.2046(7) 0.3558(3)
C7 C 0.6773(8) 0.1108(7) 0.3139(3)
C8 C 0.6670(8) 0.0417(6) 0.3742(3)
C9 C 0.8378(8) 0.1150(7) 0.2677(3)
C10 C 0.7988(9) -0.0736(7) 0.4133(3)
N1 N 0.0474(7) 0.5490(6) 0.3411(2)
N2 N 0.5152(7) 0.2121(6) 0.3017(2)
N3 N 0.4988(7) 0.1046(5) 0.4010(2)
O1 O 0.7511(6) -0.1032(5) 0.4691(2)
O2 O 0.9488(6) -0.1376(5) 0.39021(19)
O3 O 0.8161(6) 0.2209(5) 0.22429(19)
O4 O 0.1774(6) 0.3196(5) 0.1848(2)
O5 O 0.3194(7) -0.2000(6) 0.4579(2)
O6 O 0.9870(6) 0.0217(5) 0.27309(19)
H5 H 0.120(5) 0.335(16) 0.1466(14)
H6 H 0.091(5) 0.282(15) 0.208(3)
H7 H 0.343(13) -0.296(3) 0.469(6)
H8 H 0.199(8) -0.191(4) 0.439(6)
Zn1B Zn 0.50208(10) -0.28344(8) 0.79586(3)
C1B C 1.0869(9) -0.5026(7) 0.6180(3)
H1B H 1.1970 -0.5686 0.6122
C2B C 1.0693(9) -0.3633(7) 0.5845(3)
H2B H 1.1646 -0.3359 0.5561
C3B C 0.9074(9) -0.2627(7) 0.5933(3)
H3B H 0.8944 -0.1659 0.5716
C4B C 0.7641(8) -0.3088(7) 0.6351(3)
C5B C 0.7937(8) -0.4527(7) 0.6663(3)
H4B H 0.6985 -0.4850 0.6940
C6B C 0.5858(9) -0.2046(7) 0.6442(3)
C7B C 0.3227(8) -0.1108(7) 0.6861(3)
C8B C 0.3330(8) -0.0417(6) 0.6258(3)
C9B C 0.1622(8) -0.1150(7) 0.7323(3)
C10B C 0.2012(9) 0.0736(7) 0.5867(3)
N1B N 0.9526(7) -0.5490(6) 0.6589(2)
N2B N 0.4848(7) -0.2121(6) 0.6983(2)
N3B N 0.5012(7) -0.1046(5) 0.5990(2)
O1B O 0.2489(6) 0.1032(5) 0.5309(2)
O2B O 0.0512(6) 0.1376(5) 0.60979(19)
O3B O 0.1839(6) -0.2209(5) 0.77571(19)
O4B O 0.8226(6) -0.3196(5) 0.8152(2)
O5B O 0.6806(7) 0.2000(6) 0.5421(2)
O6B O 0.0130(6) -0.0217(5) 0.72691(19)
H5B H 0.880(5) -0.335(16) 0.8534(14)
H6B H 0.909(5) -0.282(15) 0.792(3)
H7B H 0.657(13) 0.296(3) 0.531(6)
H8B H 0.801(8) 0.191(4) 0.561(6)
Zn1A Zn 0.00208(10) 0.78344(8) 0.29586(3)
Zn1A_2 Zn 1.00208(10) -0.21656(8) 0.29586(3)
Zn1C Zn -0.00208(10) 0.21656(8) 0.70414(3)
Zn1C_2 Zn 0.99792(10) -0.78344(8) 0.70414(3)
N1A N 0.4526(7) 0.0490(6) 0.1589(2)
N1C N 0.5474(7) -0.0490(6) 0.8411(2)
O2A O 0.5512(6) 0.3624(5) 0.10979(19)
O2C O 0.4488(6) -0.3624(5) 0.89021(19)
O6A O 0.5130(6) 0.5217(5) 0.22691(19)
O6C O 0.4870(6) -0.5217(5) 0.77309(19)
O7 O 0.5000 0.5000 0.5000
loop_
_geom_bond_atom_site_label_1
_geom_bond_atom_site_label_2
_geom_bond_site_symmetry_1
_geom_bond_site_symmetry_2
Zn1 N2 1_555 1_555
Zn2 N3 1_555 1_555
C1 H1 1_555 1_555
C2 C1 1_555 1_555
H2 C2 1_555 1_555
C3 C2 1_555 1_555
H3 C3 1_555 1_555
C4 C3 1_555 1_555
C5 C4 1_555 1_555
H4 C5 1_555 1_555
C6 C4 1_555 1_555
C7 C8 1_555 1_555
C8 C10 1_555 1_555
C9 C7 1_555 1_555
C10 O1 1_555 1_555
N1 C1 1_555 1_555
N2 C6 1_555 1_555
N3 C6 1_555 1_555
O1 Zn2 1_555 1_555
O2 C10 1_555 1_555
O3 Zn1 1_555 1_555
O4 Zn1 1_555 1_555
O5 Zn2 1_555 1_555
O6 C9 1_555 1_555
H5 O4 1_555 1_555
H6 O4 1_555 1_555
H7 O5 1_555 1_555
H8 O5 1_555 1_555
Zn1B N2B 1_555 1_555
C1B H1B 1_555 1_555
C2B C1B 1_555 1_555
H2B C2B 1_555 1_555
C3B C2B 1_555 1_555
H3B C3B 1_555 1_555
C4B C3B 1_555 1_555
C5B C4B 1_555 1_555
H4B C5B 1_555 1_555
C6B C4B 1_555 1_555
C7B C8B 1_555 1_555
C8B C10B 1_555 1_555
C9B C7B 1_555 1_555
C10B O1B 1_555 1_555
N1B C1B 1_555 1_555
N2B C6B 1_555 1_555
N3B Zn2 1_555 1_555
O1B Zn2 1_555 1_555
O2B C10B 1_555 1_555
O3B Zn1B 1_555 1_555
O4B Zn1B 1_555 1_555
O5B Zn2 1_555 1_555
O6B C9B 1_555 1_555
H5B O4B 1_555 1_555
H6B O4B 1_555 1_555
H7B O5B 1_555 1_555
H8B O5B 1_555 1_555
Zn1A N1 1_555 1_555
Zn1A_2 O2 1_555 1_555
Zn1C O2B 1_555 1_555
Zn1C_2 N1B 1_555 1_555
N1A Zn1 1_555 1_555
N1C Zn1B 1_555 1_555
O2A Zn1 1_555 1_555
O2C Zn1B 1_555 1_555
O6A Zn1 1_555 1_555
O6C Zn1B 1_555 1_555
C5 N1 1_555 1_555
C7 N2 1_555 1_555
C8 N3 1_555 1_555
C9 O3 1_555 1_555
O6 Zn1A_2 1_555 1_555
C5B N1B 1_555 1_555
C6B N3B 1_555 1_555
C7B N2B 1_555 1_555
C8B N3B 1_555 1_555
C9B O3B 1_555 1_555
O6B Zn1C 1_555 1_555

#END
