
#######################################################################
#
#                 Cambridge Crystallographic Data Centre
#                                CCDC 
#
#######################################################################
#
# If this CIF has been generated from an entry in the Cambridge 
# Structural Database, then it will include bibliographic, chemical, 
# crystal, experimental, refinement or atomic coordinate data resulting 
# from the CCDC's data processing and validation procedures.
#
#######################################################################

data_LIHJUJ
_symmetry_cell_setting           monoclinic
_symmetry_space_group_name_H-M   'P 21/c'
_symmetry_Int_Tables_number      14
_space_group_name_Hall           '-P 2ybc'
loop_
_symmetry_equiv_pos_site_id
_symmetry_equiv_pos_as_xyz
1 x,y,z
2 -x,1/2+y,1/2-z
3 -x,-y,-z
4 x,1/2-y,1/2+z
_cell_length_a                   11.4692(2)
_cell_length_b                   11.9788(2)
_cell_length_c                   18.2487(3)
_cell_angle_alpha                90
_cell_angle_beta                 123.0490(10)
_cell_angle_gamma                90
_cell_volume                     2101.49
loop_
_atom_site_label
_atom_site_type_symbol
_atom_site_fract_x
_atom_site_fract_y
_atom_site_fract_z
Mo1 Mo -0.13971(3) 0.341629(19) 0.561276(14)
Zn1 Zn 0.01449(3) 0.56545(3) 0.764083(18)
F1 F -0.30012(16) 0.34231(13) 0.57074(10)
F2 F 0.04883(19) 0.32725(13) 0.59385(11)
F3 F -0.04604(15) 0.42577(12) 0.68213(9)
F4 F -0.08384(15) 0.20793(12) 0.64895(9)
O1 O -0.1745(2) 0.46567(16) 0.50943(13)
O2 O -0.2099(2) 0.24971(16) 0.47646(12)
N1 N -0.1745(2) 0.63612(19) 0.69630(14)
N2 N -0.3346(2) 0.7668(2) 0.64631(16)
N3 N 0.1641(2) 0.60585(18) 0.74200(14)
N4 N 0.3519(3) 0.6819(2) 0.76008(18)
N5 N 0.0612(2) 0.46653(18) 0.86556(14)
N6 N 0.1259(2) 0.41249(19) 0.99754(14)
C1 C -0.2027(3) 0.7397(2) 0.70610(18)
H1 H -0.1386 0.7879 0.7494
C2 C -0.3961(3) 0.6738(3) 0.5963(2)
H2 H -0.4883 0.6669 0.5498
C3 C -0.2971(3) 0.5940(3) 0.6275(2)
H3 H -0.3100 0.5217 0.6058
C4 C -0.3922(4) 0.8747(3) 0.6364(3)
H4 H -0.3376 0.9271 0.6794
C5 C -0.5128(4) 0.9067(4) 0.5735(3)
H5 H -0.5709 0.8571 0.5290
H6 H -0.5421 0.9794 0.5723
C6 C 0.2679(3) 0.6750(2) 0.7897(2)
H7 H 0.2812 0.7141 0.8377
C7 C 0.1830(3) 0.5679(3) 0.67799(18)
H8 H 0.1246 0.5181 0.6338
C8 C 0.2981(4) 0.6134(3) 0.6888(2)
H9 H 0.3342 0.6009 0.6546
C9 C 0.4736(5) 0.7488(4) 0.7927(3)
H10 H 0.5185 0.7434 0.7631
C10 C 0.5236(6) 0.8103(5) 0.8531(4)
H11 H 0.4830 0.8190 0.8851
H12 H 0.6036 0.8501 0.8687
C11 C 0.1237(3) 0.4968(2) 0.94795(16)
H13 H 0.1614 0.5671 0.9692
C12 C 0.0203(3) 0.3575(2) 0.86206(19)
H14 H -0.0276 0.3142 0.8117
C13 C 0.0608(3) 0.3231(2) 0.9433(2)
H15 H 0.0471 0.2529 0.9592
C14 C 0.1818(3) 0.4142(3) 1.08905(18)
H16 H 0.1712 0.3503 1.1138
C15 C 0.2459(4) 0.4980(3) 1.1400(2)
H17 H 0.2584 0.5633 1.1175
H18 H 0.2796 0.4931 1.1992
Zn1A Zn -0.01449(3) 0.06545(3) 0.735917(18)
F4A F 0.08384(15) 0.70793(12) 0.85105(9)
loop_
_geom_bond_atom_site_label_1
_geom_bond_atom_site_label_2
_geom_bond_site_symmetry_1
_geom_bond_site_symmetry_2
Mo1 F1 1_555 1_555
Zn1 F3 1_555 1_555
F2 Mo1 1_555 1_555
F3 Mo1 1_555 1_555
F4 Mo1 1_555 1_555
O1 Mo1 1_555 1_555
O2 Mo1 1_555 1_555
N1 Zn1 1_555 1_555
N2 C1 1_555 1_555
N3 Zn1 1_555 1_555
N4 C6 1_555 1_555
N5 Zn1 1_555 1_555
N6 C11 1_555 1_555
C1 N1 1_555 1_555
H1 C1 1_555 1_555
C2 N2 1_555 1_555
H2 C2 1_555 1_555
C3 N1 1_555 1_555
H3 C3 1_555 1_555
C4 N2 1_555 1_555
H4 C4 1_555 1_555
C5 C4 1_555 1_555
H5 C5 1_555 1_555
H6 C5 1_555 1_555
C6 N3 1_555 1_555
H7 C6 1_555 1_555
C7 N3 1_555 1_555
H8 C7 1_555 1_555
C8 N4 1_555 1_555
H9 C8 1_555 1_555
C9 N4 1_555 1_555
H10 C9 1_555 1_555
C10 C9 1_555 1_555
H11 C10 1_555 1_555
H12 C10 1_555 1_555
C11 N5 1_555 1_555
H13 C11 1_555 1_555
C12 N5 1_555 1_555
H14 C12 1_555 1_555
C13 N6 1_555 1_555
H15 C13 1_555 1_555
C14 N6 1_555 1_555
H16 C14 1_555 1_555
C15 C14 1_555 1_555
H17 C15 1_555 1_555
H18 C15 1_555 1_555
Zn1A F4 1_555 1_555
F4A Zn1 1_555 1_555
C2 C3 1_555 1_555
C7 C8 1_555 1_555
C12 C13 1_555 1_555

#END
