
#######################################################################
#
#                 Cambridge Crystallographic Data Centre
#                                CCDC 
#
#######################################################################
#
# If this CIF has been generated from an entry in the Cambridge 
# Structural Database, then it will include bibliographic, chemical, 
# crystal, experimental, refinement or atomic coordinate data resulting 
# from the CCDC's data processing and validation procedures.
#
#######################################################################

data_LIHLAQ
_symmetry_cell_setting           monoclinic
_symmetry_space_group_name_H-M   'C 2/c'
_symmetry_Int_Tables_number      15
_space_group_name_Hall           '-C 2yn'
loop_
_symmetry_equiv_pos_site_id
_symmetry_equiv_pos_as_xyz
1 x,y,z
2 1/2+x,1/2+y,z
3 -x,y,1/2-z
4 1/2-x,1/2+y,1/2-z
5 -x,-y,-z
6 1/2-x,1/2-y,-z
7 x,-y,1/2+z
8 1/2+x,1/2-y,1/2+z
_cell_length_a                   22.593(9)
_cell_length_b                   6.1250(19)
_cell_length_c                   17.960(7)
_cell_angle_alpha                90
_cell_angle_beta                 138.199(5)
_cell_angle_gamma                90
_cell_volume                     1656.59
loop_
_atom_site_label
_atom_site_type_symbol
_atom_site_fract_x
_atom_site_fract_y
_atom_site_fract_z
Y1 Y 0.083430(17) -0.12539(4) 0.13762(2)
O1 O 0.01986(14) -0.3953(3) 0.14608(17)
O2 O -0.06831(14) -0.6425(3) 0.11681(18)
O3 O -0.14024(14) -0.6195(4) -0.10940(17)
O4 O -0.28638(14) -0.5739(3) -0.25518(17)
O5 O -0.03384(14) -0.1825(3) -0.04472(17)
H1 H -0.049(2) -0.288(6) -0.071(3)
O6 O 0.06746(16) 0.0631(4) 0.23508(19)
H2 H 0.072(2) 0.009(6) 0.279(3)
H3 H 0.033(2) 0.161(5) 0.205(3)
N1 N -0.13300(17) -0.1395(4) 0.0643(2)
N2 N -0.28217(15) -0.2333(4) -0.16082(19)
C1 C -0.13434(18) -0.3129(5) 0.0181(2)
C2 C -0.20847(19) -0.3559(5) -0.0964(2)
C3 C -0.2804(2) -0.0597(5) -0.1141(3)
H4 H -0.3301 0.0295 -0.1568
C4 C -0.2052(2) -0.0121(5) -0.0030(2)
H5 H -0.2045 0.1139 0.0265
C5 C -0.05415(19) -0.4654(5) 0.0996(2)
C6 C -0.21192(19) -0.5319(5) -0.1583(2)
Y1D Y -0.083430(17) -0.87461(4) -0.13762(2)
Y1G Y -0.416570(17) -0.37461(4) -0.36238(2)
Y1D_2 Y -0.083430(17) 0.12539(4) -0.13762(2)
O3D O 0.14024(14) -0.3805(4) 0.10940(17)
O4G O 0.21362(14) 0.0739(3) 0.24482(17)
O5D O 0.03384(14) 0.1825(3) 0.04472(17)
H1D H 0.049(2) 0.288(6) 0.071(3)
N2G N 0.21783(15) -0.2667(4) 0.33918(19)
loop_
_geom_bond_atom_site_label_1
_geom_bond_atom_site_label_2
_geom_bond_site_symmetry_1
_geom_bond_site_symmetry_2
Y1 O1 1_555 1_555
O1 C5 1_555 1_555
O2 C5 1_555 1_555
O3 C6 1_555 1_555
O4 C6 1_555 1_555
O5 Y1 1_555 1_555
H1 O5 1_555 1_555
O6 Y1 1_555 1_555
H2 O6 1_555 1_555
H3 O6 1_555 1_555
N1 C1 1_555 1_555
N2 C2 1_555 1_555
C1 C2 1_555 1_555
C2 C6 1_555 1_555
C3 N2 1_555 1_555
H4 C3 1_555 1_555
C4 N1 1_555 1_555
H5 C4 1_555 1_555
C5 C1 1_555 1_555
Y1D O3 1_555 1_555
Y1G O4 1_555 1_555
Y1D_2 O5 1_555 1_555
O3D Y1 1_555 1_555
O4G Y1 1_555 1_555
O5D Y1 1_555 1_555
H1D O5D 1_555 1_555
N2G Y1 1_555 1_555
N2 Y1G 1_555 1_555
C3 C4 1_555 1_555
Y1D_2 O5D 1_555 1_555

#END
