
#######################################################################
#
#                 Cambridge Crystallographic Data Centre
#                                CCDC 
#
#######################################################################
#
# If this CIF has been generated from an entry in the Cambridge 
# Structural Database, then it will include bibliographic, chemical, 
# crystal, experimental, refinement or atomic coordinate data resulting 
# from the CCDC's data processing and validation procedures.
#
#######################################################################

data_LIHPOI
_symmetry_cell_setting           monoclinic
_symmetry_space_group_name_H-M   'P 21/n'
_symmetry_Int_Tables_number      14
_space_group_name_Hall           '-P 2yn'
loop_
_symmetry_equiv_pos_site_id
_symmetry_equiv_pos_as_xyz
1 x,y,z
2 1/2-x,1/2+y,1/2-z
3 -x,-y,-z
4 1/2+x,1/2-y,1/2+z
_cell_length_a                   13.9490(19)
_cell_length_b                   27.592(4)
_cell_length_c                   16.714(2)
_cell_angle_alpha                90
_cell_angle_beta                 107.134(2)
_cell_angle_gamma                90
_cell_volume                     6147.4
loop_
_atom_site_label
_atom_site_type_symbol
_atom_site_fract_x
_atom_site_fract_y
_atom_site_fract_z
Bi1 Bi 0.631757(9) 0.138839(4) 1.024211(7)
Bi2 Bi 0.690619(9) 0.184842(4) 0.749328(8)
Br1 Br 0.79303(3) 0.081550(13) 1.07518(2)
Br2 Br 0.54468(3) 0.100879(13) 1.13105(2)
Br3 Br 0.71937(3) 0.209711(13) 1.12614(2)
Br4 Br 0.76872(3) 0.264072(13) 0.70833(2)
Br5 Br 0.72632(3) 0.214628(12) 0.90792(2)
Br6 Br 0.86071(3) 0.135386(13) 0.78645(2)
C1 C 0.2982(2) 0.47710(11) 0.87443(19)
C2 C 0.2445(3) 0.43896(11) 0.8210(2)
H1 H 0.1775 0.4404 0.7851
C3 C 0.3072(2) 0.40090(11) 0.8314(2)
H2 H 0.2930 0.3704 0.8041
C4 C 0.4001(2) 0.41504(11) 0.89193(19)
C5 C 0.4820(2) 0.38463(10) 0.92267(19)
C6 C 0.5711(2) 0.39780(10) 0.98161(19)
C7 C 0.6548(2) 0.36579(11) 1.0130(2)
H3 H 0.6583 0.3327 0.9982
C8 C 0.7275(2) 0.39137(11) 1.0675(2)
H4 H 0.7918 0.3797 1.0985
C9 C 0.6896(2) 0.43973(10) 1.06999(19)
C10 C 0.2578(2) 0.52318(11) 0.87939(19)
C11 C 0.4740(2) 0.33311(10) 0.89375(19)
C12 C 0.4636(2) 0.29732(11) 0.9492(2)
H5 H 0.4593 0.3060 1.0030
C13 C 0.4597(2) 0.24879(11) 0.92603(19)
C14 C 0.4678(2) 0.23627(10) 0.8475(2)
C15 C 0.4781(2) 0.27215(11) 0.79155(19)
C16 C 0.4795(2) 0.32072(11) 0.8147(2)
H6 H 0.4842 0.3454 0.7764
C17 C 0.4452(3) 0.23185(13) 1.0872(2)
H7 H 0.5086 0.2496 1.1074
H8 H 0.4406 0.2079 1.1292
H9 H 0.3889 0.2546 1.0773
C18 C 0.3368(3) 0.16432(13) 0.7719(3)
H10 H 0.3009 0.1703 0.8132
H11 H 0.3257 0.1308 0.7522
H12 H 0.3121 0.1865 0.7244
C19 C 0.5056(4) 0.30780(13) 0.6435(2)
H13 H 0.4456 0.3280 0.6352
H14 H 0.5154 0.3004 0.5890
H15 H 0.5643 0.3253 0.6783
C20 C 0.1547(2) 0.53422(10) 0.82512(19)
C21 C 0.1354(2) 0.53356(10) 0.7382(2)
H16 H 0.1862 0.5233 0.7147
C22 C 0.0417(2) 0.54786(10) 0.68547(19)
C23 C -0.0332(2) 0.56198(10) 0.7206(2)
C24 C -0.0153(2) 0.56167(10) 0.80793(19)
C25 C 0.0787(2) 0.54755(11) 0.8595(2)
H17 H 0.0910 0.5470 0.9185
C26 C 0.1357(3) 0.54337(14) 0.5595(2)
H18 H 0.1619 0.5106 0.5750
H19 H 0.1300 0.5493 0.5005
H20 H 0.1815 0.5672 0.5944
C27 C -0.2317(3) 0.53280(13) 0.6440(2)
H21 H -0.2409 0.5249 0.6985
H22 H -0.2968 0.5404 0.6040
H23 H -0.2019 0.5050 0.6237
C28 C -0.0646(3) 0.57457(13) 0.9577(2)
H24 H -0.0065 0.5961 0.9771
H25 H -0.1159 0.5839 0.9841
H26 H -0.0437 0.5410 0.9726
C41 C 0.6390(3) 0.21789(12) 0.4554(2)
C42 C 0.7105(3) 0.20305(12) 0.4186(2)
H37 H 0.7595 0.1795 0.4446
C43 C 0.7085(3) 0.22353(13) 0.3426(2)
H38 H 0.7570 0.2142 0.3158
C44 C 0.6361(3) 0.25760(13) 0.3054(2)
H39 H 0.6351 0.2714 0.2530
C45 C 0.5659(3) 0.27164(14) 0.3435(3)
H40 H 0.5164 0.2949 0.3172
C46 C 0.5665(3) 0.25224(14) 0.4199(3)
H41 H 0.5187 0.2621 0.4471
N3 N 0.6396(3) 0.19619(12) 0.53525(19)
O5 O 0.5689(2) 0.20412(10) 0.56312(18)
O6 O 0.7114(2) 0.17045(10) 0.57242(17)
N4 N 0.39357(19) 0.46236(9) 0.91760(16)
N5 N 0.59299(19) 0.44287(9) 1.01742(15)
S1 S 0.44062(6) 0.20130(3) 0.99066(5)
S2 S 0.46968(6) 0.17431(3) 0.81975(5)
S3 S 0.48997(7) 0.25234(3) 0.69459(5)
S4 S 0.01395(6) 0.54888(3) 0.57542(5)
S5 S -0.14896(6) 0.58478(3) 0.65521(5)
S6 S -0.11544(6) 0.57951(3) 0.84555(5)
Cu1 Cu 0.5000 0.5000 1.0000
Bi1B Bi 0.368243(9) 0.861161(4) 0.975789(7)
Bi1A Bi -0.131757(9) 0.638839(4) 0.475789(7)
Bi1C Bi 1.131757(9) 0.361161(4) 1.524211(7)
Bi2B Bi 0.309381(9) 0.815158(4) 1.250672(8)
Bi2A Bi -0.190619(9) 0.684842(4) 0.750672(8)
Bi2C Bi 1.190619(9) 0.315158(4) 1.249328(8)
Br1B Br 0.20697(3) 0.918450(13) 0.92482(2)
Br2B Br 0.45532(3) 0.899121(13) 0.86895(2)
Br3B Br 0.28063(3) 0.790289(13) 0.87386(2)
Br4B Br 0.23128(3) 0.735928(13) 1.29167(2)
Br5B Br 0.27368(3) 0.785372(12) 1.09208(2)
Br6B Br 0.13929(3) 0.864614(13) 1.21355(2)
C1B C 0.7018(2) 0.52290(11) 1.12557(19)
C2B C 0.7555(3) 0.56104(11) 1.1790(2)
H1B H 0.8225 0.5596 1.2149
C3B C 0.6928(2) 0.59910(11) 1.1686(2)
H2B H 0.7070 0.6296 1.1959
C4B C 0.5999(2) 0.58496(11) 1.10807(19)
C5B C 0.5180(2) 0.61537(10) 1.07733(19)
C6B C 0.4289(2) 0.60220(10) 1.01839(19)
C7B C 0.3452(2) 0.63421(11) 0.9870(2)
H3B H 0.3417 0.6673 1.0018
C8B C 0.2725(2) 0.60863(11) 0.9325(2)
H4B H 0.2082 0.6203 0.9015
C9B C 0.3104(2) 0.56027(10) 0.93001(19)
C10B C 0.7422(2) 0.47682(11) 1.12061(19)
C11B C 0.5260(2) 0.66689(10) 1.10625(19)
C12B C 0.5364(2) 0.70268(11) 1.0508(2)
H5B H 0.5407 0.6940 0.9970
C13B C 0.5403(2) 0.75121(11) 1.07397(19)
C14B C 0.5322(2) 0.76373(10) 1.1525(2)
C15B C 0.5219(2) 0.72785(11) 1.20845(19)
C16B C 0.5205(2) 0.67928(11) 1.1853(2)
H6B H 0.5158 0.6546 1.2236
C17B C 0.5548(3) 0.76815(13) 0.9128(2)
H7B H 0.4914 0.7504 0.8926
H8B H 0.5594 0.7921 0.8708
H9B H 0.6111 0.7454 0.9227
C18B C 0.6632(3) 0.83568(13) 1.2281(3)
H10B H 0.6991 0.8297 1.1868
H11B H 0.6743 0.8692 1.2478
H12B H 0.6879 0.8135 1.2756
C19B C 0.4944(4) 0.69220(13) 1.3565(2)
H13B H 0.5544 0.6720 1.3648
H14B H 0.4846 0.6996 1.4110
H15B H 0.4357 0.6747 1.3217
C20B C 0.8453(2) 0.46578(10) 1.17488(19)
C21B C 0.8646(2) 0.46644(10) 1.2618(2)
H16B H 0.8138 0.4767 1.2853
C22B C 0.9583(2) 0.45214(10) 1.31453(19)
C23B C 1.0332(2) 0.43802(10) 1.2794(2)
C24B C 1.0153(2) 0.43833(10) 1.19207(19)
C25B C 0.9213(2) 0.45245(11) 1.1405(2)
H17B H 0.9090 0.4530 1.0815
C26B C 0.8643(3) 0.45663(14) 1.4405(2)
H18B H 0.8381 0.4894 1.4250
H19B H 0.8700 0.4507 1.4995
H20B H 0.8185 0.4328 1.4056
C27B C 1.2317(3) 0.46720(13) 1.3560(2)
H21B H 1.2409 0.4751 1.3015
H22B H 1.2968 0.4596 1.3960
H23B H 1.2019 0.4950 1.3763
C28B C 1.0646(3) 0.42543(13) 1.0423(2)
H24B H 1.0065 0.4039 1.0229
H25B H 1.1159 0.4161 1.0159
H26B H 1.0437 0.4590 1.0274
C41B C 0.3610(3) 0.78211(12) 1.5446(2)
C42B C 0.2895(3) 0.79695(12) 1.5814(2)
H37B H 0.2405 0.8205 1.5554
C43B C 0.2915(3) 0.77647(13) 1.6574(2)
H38B H 0.2430 0.7858 1.6842
C44B C 0.3639(3) 0.74240(13) 1.6946(2)
H39B H 0.3649 0.7286 1.7470
C45B C 0.4341(3) 0.72836(14) 1.6565(3)
H40B H 0.4836 0.7051 1.6828
C46B C 0.4335(3) 0.74776(14) 1.5801(3)
H41B H 0.4813 0.7379 1.5529
N3B N 0.3604(3) 0.80381(12) 1.46475(19)
O5B O 0.4311(2) 0.79588(10) 1.43688(18)
O6B O 0.2886(2) 0.82955(10) 1.42758(17)
N4B N 0.60643(19) 0.53764(9) 1.08240(16)
N5B N 0.40701(19) 0.55713(9) 0.98258(15)
S1B S 0.55938(6) 0.79870(3) 1.00934(5)
S2B S 0.53032(6) 0.82569(3) 1.18025(5)
S3B S 0.51003(7) 0.74766(3) 1.30541(5)
S4B S 0.98605(6) 0.45112(3) 1.42458(5)
S4A S 0.48605(6) 0.04888(3) 0.92458(5)
S4C S 0.51395(6) 0.95112(3) 1.07542(5)
S5B S 1.14896(6) 0.41522(3) 1.34479(5)
S5A S 0.64896(6) 0.08478(3) 0.84479(5)
S5C S 0.35104(6) 0.91522(3) 1.15521(5)
S6B S 1.11544(6) 0.42049(3) 1.15445(5)
S6A S 0.61544(6) 0.07951(3) 0.65445(5)
S6C S 0.38456(6) 0.92049(3) 1.34555(5)
N1 N 0.4455(4) 0.61638(19) 0.8056(3)
O1 O 0.4903(10) 0.6469(3) 0.8556(7)
O2 O 0.3664(4) 0.62372(17) 0.7514(3)
C29 C 0.4899(4) 0.56899(13) 0.8081(3)
C30 C 0.5830(4) 0.55952(14) 0.8650(3)
H27 H 0.6160 0.5838 0.9035
C31 C 0.6278(3) 0.51448(16) 0.8655(3)
H28 H 0.6914 0.5080 0.9043
C32 C 0.5795(4) 0.47891(14) 0.8090(4)
H29 H 0.6101 0.4481 0.8094
C33 C 0.4864(4) 0.48838(17) 0.7521(4)
H30 H 0.4534 0.4641 0.7136
C34 C 0.4416(3) 0.53342(18) 0.7516(3)
H31 H 0.3779 0.5399 0.7127
C47 C 0.6158(4) 0.38789(19) 0.4675(3)
H42 H 0.5953 0.3780 0.4105
C48 C 0.5577(4) 0.4190(2) 0.4963(4)
H43 H 0.4964 0.4306 0.4594
C49 C 0.5872(5) 0.4334(2) 0.5770(5)
H44 H 0.5470 0.4556 0.5964
C50 C 0.6715(7) 0.4171(3) 0.6292(4)
H45 H 0.6905 0.4273 0.6860
C51 C 0.7317(5) 0.3858(2) 0.6033(5)
H46 H 0.7923 0.3743 0.6413
C52 C 0.7029(4) 0.37098(19) 0.5202(4)
H47 H 0.7437 0.3492 0.5006
C53 C 0.5919(3) 0.84739(14) 0.6425(3)
H48 H 0.5773 0.8137 0.6412
C54 C 0.6654(3) 0.86396(13) 0.6097(3)
H49 H 0.7016 0.8418 0.5860
C55 C 0.6864(3) 0.91309(14) 0.6113(2)
H50 H 0.7366 0.9248 0.5883
C56 C 0.6339(3) 0.94500(13) 0.6466(2)
H51 H 0.6483 0.9787 0.6480
C57 C 0.5610(3) 0.92809(16) 0.6796(2)
H52 H 0.5254 0.9501 0.7042
C58 C 0.5393(3) 0.87914(16) 0.6770(2)
H53 H 0.4883 0.8675 0.6991
N2? N 0.5255(11) 0.6178(4) 0.8656(8)
O3? O 0.6023(9) 0.6236(4) 0.9231(7)
O4? O 0.460(2) 0.6485(7) 0.845(2)
C35? C 0.5155(10) 0.5706(3) 0.8270(7)
C36? C 0.5864(8) 0.5340(3) 0.8522(6)
H32? H 0.6464 0.5396 0.8962
C37? C 0.5695(9) 0.4890(3) 0.8131(9)
H33? H 0.6179 0.4639 0.8303
C38? C 0.4818(10) 0.4807(3) 0.7487(10)
H34? H 0.4702 0.4500 0.7219
C39? C 0.4109(7) 0.5173(4) 0.7235(7)
H35? H 0.3509 0.5117 0.6795
C40? C 0.4278(8) 0.5623(3) 0.7627(7)
H36? H 0.3794 0.5874 0.7454
loop_
_geom_bond_atom_site_label_1
_geom_bond_atom_site_label_2
_geom_bond_site_symmetry_1
_geom_bond_site_symmetry_2
Bi1 Br1 1_555 1_555
Bi2 Br4 1_555 1_555
Br2 Bi1 1_555 1_555
Br3 Bi1 1_555 1_555
Br5 Bi1 1_555 1_555
Br6 Bi2 1_555 1_555
C1 C2 1_555 1_555
C2 H1 1_555 1_555
C3 C2 1_555 1_555
H2 C3 1_555 1_555
C4 C3 1_555 1_555
C5 C4 1_555 1_555
C6 C5 1_555 1_555
C7 C6 1_555 1_555
H3 C7 1_555 1_555
C8 C7 1_555 1_555
H4 C8 1_555 1_555
C9 C8 1_555 1_555
C10 C1 1_555 1_555
C11 C5 1_555 1_555
C12 C11 1_555 1_555
H5 C12 1_555 1_555
C13 C12 1_555 1_555
C14 C13 1_555 1_555
C15 C14 1_555 1_555
C16 C11 1_555 1_555
H6 C16 1_555 1_555
C17 H7 1_555 1_555
H8 C17 1_555 1_555
H9 C17 1_555 1_555
C18 H10 1_555 1_555
H11 C18 1_555 1_555
H12 C18 1_555 1_555
C19 H13 1_555 1_555
H14 C19 1_555 1_555
H15 C19 1_555 1_555
C20 C10 1_555 1_555
C21 C20 1_555 1_555
H16 C21 1_555 1_555
C22 C21 1_555 1_555
C23 C22 1_555 1_555
C24 C23 1_555 1_555
C25 C20 1_555 1_555
H17 C25 1_555 1_555
C26 H18 1_555 1_555
H19 C26 1_555 1_555
H20 C26 1_555 1_555
C27 H21 1_555 1_555
H22 C27 1_555 1_555
H23 C27 1_555 1_555
C28 H24 1_555 1_555
H25 C28 1_555 1_555
H26 C28 1_555 1_555
N1 O1 1_555 1_555
O2 N1 1_555 1_555
C29 N1 1_555 1_555
C30 C29 1_555 1_555
H27 C30 1_555 1_555
C31 C30 1_555 1_555
H28 C31 1_555 1_555
C32 C31 1_555 1_555
H29 C32 1_555 1_555
C33 C32 1_555 1_555
H30 C33 1_555 1_555
C34 C29 1_555 1_555
H31 C34 1_555 1_555
C41 C42 1_555 1_555
C42 H37 1_555 1_555
C43 C42 1_555 1_555
H38 C43 1_555 1_555
C44 C43 1_555 1_555
H39 C44 1_555 1_555
C45 C44 1_555 1_555
H40 C45 1_555 1_555
C46 C41 1_555 1_555
H41 C46 1_555 1_555
N3 C41 1_555 1_555
O5 Bi2 1_555 1_555
O6 Bi2 1_555 1_555
C47 H42 1_555 1_555
C48 C47 1_555 1_555
H43 C48 1_555 1_555
C49 C48 1_555 1_555
H44 C49 1_555 1_555
C50 C49 1_555 1_555
H45 C50 1_555 1_555
C51 C50 1_555 1_555
H46 C51 1_555 1_555
C52 C47 1_555 1_555
H47 C52 1_555 1_555
C53 H48 1_555 1_555
C54 C53 1_555 1_555
H49 C54 1_555 1_555
C55 C54 1_555 1_555
H50 C55 1_555 1_555
C56 C55 1_555 1_555
H51 C56 1_555 1_555
C57 C56 1_555 1_555
H52 C57 1_555 1_555
C58 C53 1_555 1_555
H53 C58 1_555 1_555
N4 C1 1_555 1_555
N5 C6 1_555 1_555
S1 Bi1 1_555 1_555
S2 Bi1 1_555 1_555
S3 Bi2 1_555 1_555
S4 C22 1_555 1_555
S5 C23 1_555 1_555
S6 C24 1_555 1_555
Cu1 N4 1_555 1_555
Bi1B Br1B 1_555 1_555
Bi1A S4 1_555 1_555
Bi1C S4B 1_555 1_555
Bi2B Br4B 1_555 1_555
Bi2A S5 1_555 1_555
Bi2C S5B 1_555 1_555
Br2B Bi1B 1_555 1_555
Br3B Bi1B 1_555 1_555
Br5B Bi1B 1_555 1_555
Br6B Bi2B 1_555 1_555
C1B C2B 1_555 1_555
C2B H1B 1_555 1_555
C3B C2B 1_555 1_555
H2B C3B 1_555 1_555
C4B C3B 1_555 1_555
C5B C4B 1_555 1_555
C6B C5B 1_555 1_555
C7B C6B 1_555 1_555
H3B C7B 1_555 1_555
C8B C7B 1_555 1_555
H4B C8B 1_555 1_555
C9B C10 1_555 1_555
C10B C9 1_555 1_555
C11B C5B 1_555 1_555
C12B C11B 1_555 1_555
H5B C12B 1_555 1_555
C13B C12B 1_555 1_555
C14B C13B 1_555 1_555
C15B C14B 1_555 1_555
C16B C11B 1_555 1_555
H6B C16B 1_555 1_555
C17B H7B 1_555 1_555
H8B C17B 1_555 1_555
H9B C17B 1_555 1_555
C18B H10B 1_555 1_555
H11B C18B 1_555 1_555
H12B C18B 1_555 1_555
C19B H13B 1_555 1_555
H14B C19B 1_555 1_555
H15B C19B 1_555 1_555
C20B C10B 1_555 1_555
C21B C20B 1_555 1_555
H16B C21B 1_555 1_555
C22B C21B 1_555 1_555
C23B C22B 1_555 1_555
C24B C23B 1_555 1_555
C25B C20B 1_555 1_555
H17B C25B 1_555 1_555
C26B H18B 1_555 1_555
H19B C26B 1_555 1_555
H20B C26B 1_555 1_555
C27B H21B 1_555 1_555
H22B C27B 1_555 1_555
H23B C27B 1_555 1_555
C28B H24B 1_555 1_555
H25B C28B 1_555 1_555
H26B C28B 1_555 1_555
C41B C42B 1_555 1_555
C42B H37B 1_555 1_555
C43B C42B 1_555 1_555
H38B C43B 1_555 1_555
C44B C43B 1_555 1_555
H39B C44B 1_555 1_555
C45B C44B 1_555 1_555
H40B C45B 1_555 1_555
C46B C41B 1_555 1_555
H41B C46B 1_555 1_555
N3B C41B 1_555 1_555
O5B Bi2B 1_555 1_555
O6B Bi2B 1_555 1_555
N4B Cu1 1_555 1_555
N5B Cu1 1_555 1_555
S1B Bi1B 1_555 1_555
S2B Bi1B 1_555 1_555
S3B Bi2B 1_555 1_555
S4B C22B 1_555 1_555
S4A Bi1 1_555 1_555
S4C Bi1B 1_555 1_555
S5B Bi1C 1_555 1_555
S5A Bi1 1_555 1_555
S5C Bi1B 1_555 1_555
S6B Bi2C 1_555 1_555
S6A Bi2 1_555 1_555
S6C Bi2B 1_555 1_555
Bi2 Br5 1_555 1_555
Bi2 S2 1_555 1_555
Bi2 S5A 1_555 1_555
C4 N4 1_555 1_555
C9 N5 1_555 1_555
C13 S1 1_555 1_555
C14 S2 1_555 1_555
C15 C16 1_555 1_555
C15 S3 1_555 1_555
C17 S1 1_555 1_555
C18 S2 1_555 1_555
C19 S3 1_555 1_555
C24 C25 1_555 1_555
C26 S4 1_555 1_555
C27 S5 1_555 1_555
C28 S6 1_555 1_555
C33 C34 1_555 1_555
C45 C46 1_555 1_555
N3 O5 1_555 1_555
N3 O6 1_555 1_555
C51 C52 1_555 1_555
C57 C58 1_555 1_555
N5 Cu1 1_555 1_555
S5 Bi1A 1_555 1_555
S6 Bi2A 1_555 1_555
Bi2B Br5B 1_555 1_555
Bi2B S2B 1_555 1_555
Bi2B S5C 1_555 1_555
C1B C10B 1_555 1_555
C1B N4B 1_555 1_555
C4B N4B 1_555 1_555
C6B N5B 1_555 1_555
C8B C9B 1_555 1_555
C9B N5B 1_555 1_555
C13B S1B 1_555 1_555
C14B S2B 1_555 1_555
C15B C16B 1_555 1_555
C15B S3B 1_555 1_555
C17B S1B 1_555 1_555
C18B S2B 1_555 1_555
C19B S3B 1_555 1_555
C23B S5B 1_555 1_555
C24B C25B 1_555 1_555
C24B S6B 1_555 1_555
C26B S4B 1_555 1_555
C27B S5B 1_555 1_555
C28B S6B 1_555 1_555
C45B C46B 1_555 1_555
N3B O5B 1_555 1_555
N3B O6B 1_555 1_555

#END
