
#######################################################################
#
#                 Cambridge Crystallographic Data Centre
#                                CCDC 
#
#######################################################################
#
# If this CIF has been generated from an entry in the Cambridge 
# Structural Database, then it will include bibliographic, chemical, 
# crystal, experimental, refinement or atomic coordinate data resulting 
# from the CCDC's data processing and validation procedures.
#
#######################################################################

data_LIHRAW01
_symmetry_cell_setting           monoclinic
_symmetry_space_group_name_H-M   'P 21/n'
_symmetry_Int_Tables_number      14
_space_group_name_Hall           '-P 2yn'
loop_
_symmetry_equiv_pos_site_id
_symmetry_equiv_pos_as_xyz
1 x,y,z
2 1/2-x,1/2+y,1/2-z
3 -x,-y,-z
4 1/2+x,1/2-y,1/2+z
_cell_length_a                   6.3995(7)
_cell_length_b                   9.6669(10)
_cell_length_c                   9.1216(9)
_cell_angle_alpha                90
_cell_angle_beta                 103.4350(10)
_cell_angle_gamma                90
_cell_volume                     548.85
loop_
_atom_site_label
_atom_site_type_symbol
_atom_site_fract_x
_atom_site_fract_y
_atom_site_fract_z
N1 N 0.3762(4) 0.0954(2) 0.8360(2)
N2 N 0.3366(4) 0.1440(2) 0.9681(2)
C1 C 0.2662(4) 0.1756(3) 0.7284(3)
H1 H 0.2640 0.1650 0.6268
Zn1 Zn -0.04463(5) 0.42317(3) 0.67957(3)
Br1 Br -0.31124(5) 0.44781(4) 0.81596(4)
N3 N 0.1575(3) 0.2745(2) 0.7831(2)
C2 C 0.2060(5) 0.2500(3) 0.9304(3)
H2 H 0.1534 0.3021 0.9996
N1A N 0.1238(4) 0.5954(2) 0.6640(2)
N2C N -0.1634(4) 0.3560(2) 0.4681(2)
Zn1A Zn 0.54463(5) -0.07683(3) 0.82043(3)
Zn1C Zn 0.45537(5) 0.07683(3) 1.17957(3)
loop_
_geom_bond_atom_site_label_1
_geom_bond_atom_site_label_2
_geom_bond_site_symmetry_1
_geom_bond_site_symmetry_2
N1 N2 1_555 1_555
N2 C2 1_555 1_555
C1 N1 1_555 1_555
H1 C1 1_555 1_555
Zn1 Br1 1_555 1_555
N3 C1 1_555 1_555
C2 N3 1_555 1_555
H2 C2 1_555 1_555
N1A Zn1 1_555 1_555
N2C Zn1 1_555 1_555
Zn1A N1 1_555 1_555
Zn1C N2 1_555 1_555
Zn1 N3 1_555 1_555

#END
