
#######################################################################
#
#                 Cambridge Crystallographic Data Centre
#                                CCDC 
#
#######################################################################
#
# If this CIF has been generated from an entry in the Cambridge 
# Structural Database, then it will include bibliographic, chemical, 
# crystal, experimental, refinement or atomic coordinate data resulting 
# from the CCDC's data processing and validation procedures.
#
#######################################################################

data_LIHROK
_symmetry_cell_setting           orthorhombic
_symmetry_space_group_name_H-M   'C c c a'
_symmetry_Int_Tables_number      68
_space_group_name_Hall           '-C 2b 2bc'
loop_
_symmetry_equiv_pos_site_id
_symmetry_equiv_pos_as_xyz
1 x,y,z
2 1/2+x,1/2+y,z
3 1/2-x,-y,z
4 -x,y,1/2-z
5 1/2+x,-y,1/2-z
6 -x,1/2-y,z
7 1/2-x,1/2+y,1/2-z
8 x,1/2-y,1/2-z
9 -x,-y,-z
10 1/2-x,1/2-y,-z
11 1/2+x,y,-z
12 x,-y,1/2+z
13 1/2-x,y,1/2+z
14 x,1/2+y,-z
15 1/2+x,1/2-y,1/2+z
16 -x,1/2+y,1/2+z
_cell_length_a                   18.0700(6)
_cell_length_b                   18.0766(6)
_cell_length_c                   17.9952(6)
_cell_angle_alpha                90
_cell_angle_beta                 90
_cell_angle_gamma                90
_cell_volume                     5878.03
loop_
_atom_site_label
_atom_site_type_symbol
_atom_site_fract_x
_atom_site_fract_y
_atom_site_fract_z
Cd1 Cd 0.318508(19) 0.071261(19) -0.07736(2)
Cd2 Cd 0.177526(19) 0.069795(19) 0.06188(2)
Cd3 Cd 0.38045(2) 0.13306(2) 0.13038(2)
F1 F 0.30436(16) 0.05659(16) 0.05059(16)
F2 F 0.19386(17) 0.05474(17) -0.06206(16)
O1 O 0.4266(5) 0.1777(5) 0.2367(5)
H1 H 0.4415 0.2213 0.2300
N1 N 0.3420(3) 0.0374(3) -0.1955(3)
N2 N 0.3607(4) -0.0336(3) -0.2950(3)
N3 N 0.3412(3) 0.0359(3) -0.3190(3)
N4 N 0.2873(3) 0.3126(3) -0.0868(3)
N5 N 0.2182(3) 0.2917(3) -0.1115(4)
N6 N 0.2857(3) 0.1901(3) -0.0957(4)
N7 N 0.4361(3) 0.0906(4) -0.0371(3)
N8 N 0.4568(3) 0.1086(5) 0.0341(3)
N9 N 0.5585(3) 0.0905(4) -0.0327(3)
C1 C 0.3605(5) -0.0301(4) -0.2216(3)
H4 H 0.3723 -0.0709 -0.1905
C2 C 0.3306(4) 0.0759(3) -0.2581(3)
H5 H 0.3165 0.1265 -0.2588
C3 C 0.3253(3) 0.2507(3) -0.0782(4)
H6 H 0.3752 0.2491 -0.0616
C4 C 0.2201(3) 0.2192(3) -0.1164(5)
H7 H 0.1794 0.1902 -0.1328
C5 C 0.4981(3) 0.0800(4) -0.0741(3)
H8 H 0.4997 0.0663 -0.1250
C6 C 0.5295(4) 0.1069(6) 0.0337(4)
H9 H 0.5586 0.1165 0.0766
Cd1B Cd 0.181492(19) -0.071261(19) -0.07736(2)
Cd1L Cd 0.181492(19) 0.071261(19) 0.42264(2)
Cd1I Cd 0.181492(19) 0.428739(19) 0.07736(2)
Cd1J Cd -0.181492(19) 0.071261(19) 0.07736(2)
Cd2B Cd 0.322474(19) -0.069795(19) 0.06188(2)
Cd2L Cd 0.322474(19) 0.069795(19) -0.43812(2)
Cd2I Cd 0.322474(19) 0.430205(19) -0.06188(2)
Cd2J Cd 0.677526(19) 0.069795(19) -0.06188(2)
Cd3K Cd 0.38045(2) -0.13306(2) -0.36962(2)
Cd3I Cd 0.11955(2) 0.36694(2) -0.13038(2)
Cd3B Cd 0.11955(2) -0.13306(2) 0.13038(2)
Cd3J Cd -0.11955(2) 0.13306(2) -0.13038(2)
F1B F 0.19564(16) -0.05659(16) 0.05059(16)
F1K F 0.30436(16) -0.05659(16) -0.44941(16)
F2B F 0.30614(17) -0.05474(17) -0.06206(16)
O1K O 0.4266(5) -0.1777(5) -0.2633(5)
H1K H 0.4415 -0.2213 -0.2700
N1L N 0.1580(3) 0.0374(3) 0.3045(3)
N1B N 0.1580(3) -0.0374(3) -0.1955(3)
N2L N 0.1393(4) -0.0336(3) 0.2050(3)
N2K N 0.3607(4) 0.0336(3) 0.2050(3)
N3L N 0.1588(3) 0.0359(3) 0.1810(3)
N3K N 0.3412(3) -0.0359(3) 0.1810(3)
N4I N 0.2127(3) 0.1874(3) 0.0868(3)
N4M N 0.2873(3) -0.1874(3) 0.0868(3)
N5I N 0.2818(3) 0.2083(3) 0.1115(4)
N5F N 0.2818(3) -0.2083(3) -0.3885(4)
N6I N 0.2143(3) 0.3099(3) 0.0957(4)
N6B N 0.2143(3) -0.1901(3) -0.0957(4)
N7J N -0.0639(3) 0.0906(4) 0.0371(3)
N7B N 0.0639(3) -0.0906(4) -0.0371(3)
N8J N -0.0432(3) 0.1086(5) -0.0341(3)
N8K N 0.4568(3) -0.1086(5) -0.4659(3)
N9J N 0.0585(3) 0.0905(4) 0.0327(3)
N9H N 0.4415(3) -0.0905(4) 0.0327(3)
C1L C 0.1395(5) -0.0301(4) 0.2784(3)
H4L H 0.1277 -0.0709 0.3095
C2L C 0.1694(4) 0.0759(3) 0.2419(3)
H5L H 0.1835 0.1265 0.2412
C3I C 0.1747(3) 0.2493(3) 0.0782(4)
H6I H 0.1248 0.2509 0.0616
C4I C 0.2799(3) 0.2808(3) 0.1164(5)
H7I H 0.3206 0.3098 0.1328
C5J C -0.0019(3) 0.0800(4) 0.0741(3)
H8J H -0.0003 0.0663 0.1250
C6J C 0.0295(4) 0.1069(6) -0.0337(4)
H9J H 0.0586 0.1165 -0.0766
O5 O 0.4991(7) 0.0867(10) 0.1894(8)
O7 O 0.5000 -0.018(2) 0.2500
O8 O 0.1175(4) 0.1310(4) 0.8673(4)
O9 O 0.4382(6) 0.2488(5) 0.0843(7)
O11 O 0.5000 0.2500 -0.0237(13)
O2? O 0.4271(7) 0.2380(8) 0.1771(8)
H2? H 0.4734 0.2346 0.1794
O3? O 0.4870(11) 0.1776(10) 0.1785(9)
H3? H 0.4879 0.1696 0.2245
O4? O 0.3343(12) 0.1884(9) 0.2469(9)
O6? O 0.5000 0.050(2) 0.2500
O10? O 0.5000 0.2500 0.050(2)
loop_
_geom_bond_atom_site_label_1
_geom_bond_atom_site_label_2
_geom_bond_site_symmetry_1
_geom_bond_site_symmetry_2
Cd1 F1 1_555 1_555
Cd2 F1 1_555 1_555
Cd3 F1 1_555 1_555
F1 Cd2B 1_555 1_555
F2 Cd1 1_555 1_555
O1 Cd3 1_555 1_555
H1 O1 1_555 1_555
N1 Cd1 1_555 1_555
N2 N3 1_555 1_555
N3 C2 1_555 1_555
N4 N5 1_555 1_555
N5 C4 1_555 1_555
N6 Cd1 1_555 1_555
N7 Cd1 1_555 1_555
N8 Cd3 1_555 1_555
N9 C5 1_555 1_555
C1 N1 1_555 1_555
H4 C1 1_555 1_555
C2 N1 1_555 1_555
H5 C2 1_555 1_555
C3 N4 1_555 1_555
H6 C3 1_555 1_555
C4 N6 1_555 1_555
H7 C4 1_555 1_555
C5 N7 1_555 1_555
H8 C5 1_555 1_555
C6 N8 1_555 1_555
H9 C6 1_555 1_555
Cd1B F2 1_555 1_555
Cd1L N1L 1_555 1_555
Cd1I N6I 1_555 1_555
Cd1J N7J 1_555 1_555
Cd2B F1B 1_555 1_555
Cd2L N3 1_555 1_555
Cd2I N4 1_555 1_555
Cd2J N9 1_555 1_555
Cd3K N2 1_555 1_555
Cd3I N5 1_555 1_555
Cd3B F1B 1_555 1_555
Cd3J N8J 1_555 1_555
F1B Cd2 1_555 1_555
F1K Cd2L 1_555 1_555
F2B Cd1 1_555 1_555
O1K Cd3K 1_555 1_555
H1K O1K 1_555 1_555
N1L C1L 1_555 1_555
N1B Cd1B 1_555 1_555
N2L Cd3B 1_555 1_555
N2K Cd3 1_555 1_555
N3L Cd2 1_555 1_555
N3K Cd2B 1_555 1_555
N4I Cd2 1_555 1_555
N4M Cd2B 1_555 1_555
N5I Cd3 1_555 1_555
N5F Cd3K 1_555 1_555
N6I C3I 1_555 1_555
N6B Cd1B 1_555 1_555
N7J N8J 1_555 1_555
N7B Cd1B 1_555 1_555
N8J C6J 1_555 1_555
N8K Cd3K 1_555 1_555
N9J Cd2 1_555 1_555
N9H Cd2B 1_555 1_555
C1L N2L 1_555 1_555
H4L C1L 1_555 1_555
C2L N1L 1_555 1_555
H5L C2L 1_555 1_555
C3I N4I 1_555 1_555
H6I C3I 1_555 1_555
C4I N5I 1_555 1_555
H7I C4I 1_555 1_555
C5J N7J 1_555 1_555
H8J C5J 1_555 1_555
C6J N9J 1_555 1_555
H9J C6J 1_555 1_555
Cd2 F2 1_555 1_555
N2 C1 1_555 1_555
N6 C3 1_555 1_555
N7 N8 1_555 1_555
N9 C6 1_555 1_555
Cd1B F1B 1_555 1_555
Cd1B F2B 1_555 1_555
Cd2B F2B 1_555 1_555
Cd3K F1K 1_555 1_555
N2L N3L 1_555 1_555
N2K N3K 1_555 1_555
N3L C2L 1_555 1_555
N4I N5I 1_555 1_555
N6I C4I 1_555 1_555
N9J C5J 1_555 1_555

#END
