
#######################################################################
#
#                 Cambridge Crystallographic Data Centre
#                                CCDC 
#
#######################################################################
#
# If this CIF has been generated from an entry in the Cambridge 
# Structural Database, then it will include bibliographic, chemical, 
# crystal, experimental, refinement or atomic coordinate data resulting 
# from the CCDC's data processing and validation procedures.
#
#######################################################################

data_LIJREC
_symmetry_cell_setting           monoclinic
_symmetry_space_group_name_H-M   'P 21/c'
_symmetry_Int_Tables_number      14
_space_group_name_Hall           '-P 2ybc'
loop_
_symmetry_equiv_pos_site_id
_symmetry_equiv_pos_as_xyz
1 x,y,z
2 -x,1/2+y,1/2-z
3 -x,-y,-z
4 x,1/2-y,1/2+z
_cell_length_a                   12.6723(8)
_cell_length_b                   7.6557(4)
_cell_length_c                   16.1812(11)
_cell_angle_alpha                90
_cell_angle_beta                 109.187(2)
_cell_angle_gamma                90
_cell_volume                     1482.62
loop_
_atom_site_label
_atom_site_type_symbol
_atom_site_fract_x
_atom_site_fract_y
_atom_site_fract_z
Zn1 Zn 0.81360(9) 0.00720(13) 0.68318(6)
O1 O 0.8892(6) 0.3174(8) 0.8340(4)
O2 O 0.6590(17) -0.155(2) 0.7054(12)
H1 H 0.615(9) -0.159(16) 0.739(8)
H2 H 0.686(10) -0.049(9) 0.726(8)
O3 O 0.8321(6) 0.0415(8) 0.8062(4)
O4 O 0.7978(7) -0.3494(8) 1.0379(4)
O5 O 0.8532(6) -0.2576(7) 1.1735(4)
N1 N 0.9630(6) 0.3712(8) 1.1649(4)
H3 H 0.9795 0.4737 1.1511
H4 H 0.9691 0.3479 1.2183
N2 N 0.6872(6) 0.1690(10) 0.6149(4)
C1 C 0.6359(11) 0.1619(16) 0.5284(7)
H5 H 0.6521 0.0694 0.4973
C2 C 0.6677(10) 0.3098(16) 0.6534(6)
H6 H 0.7056 0.3219 0.7130
C3 C 0.5607(11) 0.2849(16) 0.4839(7)
H7 H 0.5235 0.2694 0.4244
C4 C 0.8333(8) -0.2331(11) 1.0930(5)
C5 C 0.8494(7) -0.0245(11) 0.9771(5)
H8 H 0.8231 -0.1125 0.9358
C6 C 0.8765(7) 0.1408(10) 0.9509(5)
C7 C 0.9147(7) 0.2711(10) 1.0132(5)
H9 H 0.9330 0.3804 0.9968
C8 C 0.8995(7) 0.0741(10) 1.1255(5)
H10 H 0.9077 0.0529 1.1839
C9 C 0.8661(8) 0.1711(12) 0.8567(5)
C10 C 0.9254(7) 0.2389(10) 1.0989(5)
C11 C 0.8616(7) -0.0556(11) 1.0637(5)
C12 C 0.5948(10) 0.4424(16) 0.6123(7)
H11 H 0.5842 0.5385 0.6438
C13 C 0.5386(8) 0.4292(13) 0.5241(6)
Zn1C Zn 0.81360(9) -0.50720(13) 0.18318(6)
Zn1C_2 Zn 0.81360(9) -0.50720(13) 1.18318(6)
Zn1C_3 Zn 0.81360(9) 0.49280(13) 1.18318(6)
Zn1B Zn 0.18640(9) 0.99280(13) 0.31682(6)
Zn1_2 Zn 0.81360(9) -0.99280(13) 0.68318(6)
O1C O 0.8892(6) -0.8174(8) 0.3340(4)
O2C O 0.6590(17) -0.345(2) 0.2054(12)
H1C H 0.615(9) -0.341(16) 0.239(8)
H2C H 0.686(10) -0.451(9) 0.226(8)
O3C O 0.8321(6) -0.5415(8) 0.3062(4)
O4C O 0.7978(7) -0.1506(8) 0.5379(4)
O5C O 0.8532(6) -0.2424(7) 0.6735(4)
O5_2 O 0.8532(6) -0.2576(7) 0.1735(4)
N1C N 0.9630(6) -0.8712(8) 0.6649(4)
N1C_2 N 0.9630(6) 0.1288(8) 0.6649(4)
N1_2 N 0.9630(6) -0.6288(8) 0.1649(4)
H3C H 0.9795 -0.9737 0.6511
H3C_2 H 0.9795 0.0263 0.6511
H3_2 H 0.9795 -0.5263 0.1511
H4C H 0.9691 -0.8479 0.7183
H4C_2 H 0.9691 0.1521 0.7183
H4_2 H 0.9691 -0.6521 0.2183
N2B N 0.3128(6) 0.8310(10) 0.3851(4)
N2C N 0.6872(6) -0.6690(10) 0.1149(4)
C1B C 0.3641(11) 0.8381(16) 0.4716(7)
H5B H 0.3479 0.9306 0.5027
C2B C 0.3323(10) 0.6902(16) 0.3466(6)
H6B H 0.2944 0.6781 0.2870
C3B C 0.4393(11) 0.7151(16) 0.5161(7)
H7B H 0.4765 0.7306 0.5756
C4C C 0.8333(8) -0.2669(11) 0.5930(5)
C5C C 0.8494(7) -0.4755(11) 0.4771(5)
H8C H 0.8231 -0.3875 0.4358
C6C C 0.8765(7) -0.6408(10) 0.4509(5)
C7C C 0.9147(7) -0.7711(10) 0.5132(5)
H9C H 0.9330 -0.8804 0.4968
C8C C 0.8995(7) -0.5741(10) 0.6255(5)
H10C H 0.9077 -0.5529 0.6839
C9C C 0.8661(8) -0.6711(12) 0.3567(5)
C10C C 0.9254(7) -0.7389(10) 0.5989(5)
C11C C 0.8616(7) -0.4444(11) 0.5637(5)
C12B C 0.4052(10) 0.5576(16) 0.3877(7)
H11B H 0.4158 0.4615 0.3562
C13B C 0.4614(8) 0.5708(13) 0.4759(6)
O6 O 0.7366(10) 0.9194(16) 0.3581(7)
H12 H 0.663(3) 0.91(2) 0.330(9)
H13 H 0.744(11) 1.001(16) 0.321(8)
O7 O 0.489(2) 0.078(6) 0.718(2)
loop_
_geom_bond_atom_site_label_1
_geom_bond_atom_site_label_2
_geom_bond_site_symmetry_1
_geom_bond_site_symmetry_2
Zn1 O2 1_555 1_555
O1 C9 1_555 1_555
O2 H1 1_555 1_555
H2 O2 1_555 1_555
O3 Zn1 1_555 1_555
O4 C4 1_555 1_555
O5 C4 1_555 1_555
N1 H3 1_555 1_555
H4 N1 1_555 1_555
N2 Zn1 1_555 1_555
C1 N2 1_555 1_555
H5 C1 1_555 1_555
C2 N2 1_555 1_555
H6 C2 1_555 1_555
C3 C1 1_555 1_555
H7 C3 1_555 1_555
C4 C11 1_555 1_555
C5 H8 1_555 1_555
C6 C5 1_555 1_555
C7 C6 1_555 1_555
H9 C7 1_555 1_555
C8 H10 1_555 1_555
C9 O3 1_555 1_555
C10 N1 1_555 1_555
C11 C5 1_555 1_555
C12 C2 1_555 1_555
H11 C12 1_555 1_555
C13 C3 1_555 1_555
O6 H12 1_555 1_555
H13 O6 1_555 1_555
Zn1C O2C 1_555 1_555
Zn1C_2 O5 1_555 1_555
Zn1C_3 N1 1_555 1_555
Zn1B N2B 1_555 1_555
Zn1_2 N1C 1_555 1_555
O1C C9C 1_555 1_555
O2C H1C 1_555 1_555
H2C O2C 1_555 1_555
O3C Zn1C 1_555 1_555
O4C C4C 1_555 1_555
O5C Zn1 1_555 1_555
O5_2 Zn1C 1_555 1_555
N1C H3C 1_555 1_555
N1C_2 Zn1 1_555 1_555
N1_2 Zn1C 1_555 1_555
H3C_2 N1C_2 1_555 1_555
H3_2 N1_2 1_555 1_555
H4C N1C 1_555 1_555
H4C_2 N1C_2 1_555 1_555
H4_2 N1_2 1_555 1_555
N2B C1B 1_555 1_555
N2C Zn1C 1_555 1_555
C1B H5B 1_555 1_555
C2B N2B 1_555 1_555
H6B C2B 1_555 1_555
C3B C1B 1_555 1_555
H7B C3B 1_555 1_555
C4C O5C 1_555 1_555
C5C H8C 1_555 1_555
C6C C5C 1_555 1_555
C7C C6C 1_555 1_555
H9C C7C 1_555 1_555
C8C H10C 1_555 1_555
C9C O3C 1_555 1_555
C10C N1C 1_555 1_555
C11C C4C 1_555 1_555
C12B C2B 1_555 1_555
H11B C12B 1_555 1_555
C13B C13 1_555 1_555
C6 C9 1_555 1_555
C7 C10 1_555 1_555
C8 C10 1_555 1_555
C8 C11 1_555 1_555
C12 C13 1_555 1_555
C3B C13B 1_555 1_555
C5C C11C 1_555 1_555
C6C C9C 1_555 1_555
C7C C10C 1_555 1_555
C8C C10C 1_555 1_555
C8C C11C 1_555 1_555
C12B C13B 1_555 1_555

#END
