
#######################################################################
#
#                 Cambridge Crystallographic Data Centre
#                                CCDC 
#
#######################################################################
#
# If this CIF has been generated from an entry in the Cambridge 
# Structural Database, then it will include bibliographic, chemical, 
# crystal, experimental, refinement or atomic coordinate data resulting 
# from the CCDC's data processing and validation procedures.
#
#######################################################################

data_LIKBOX
_symmetry_cell_setting           monoclinic
_symmetry_space_group_name_H-M   'P 21/c'
_symmetry_Int_Tables_number      14
_space_group_name_Hall           '-P 2ybc'
loop_
_symmetry_equiv_pos_site_id
_symmetry_equiv_pos_as_xyz
1 x,y,z
2 -x,1/2+y,1/2-z
3 -x,-y,-z
4 x,1/2-y,1/2+z
_cell_length_a                   11.5288(11)
_cell_length_b                   13.3162(13)
_cell_length_c                   10.3187(10)
_cell_angle_alpha                90.00
_cell_angle_beta                 100.7830(10)
_cell_angle_gamma                90.00
_cell_volume                     1556.15
loop_
_atom_site_label
_atom_site_type_symbol
_atom_site_fract_x
_atom_site_fract_y
_atom_site_fract_z
Zn1 Zn 1.0000 0.0000 0.5000
C1 C 1.16793(19) 0.18943(17) 0.5172(2)
H1 H 1.1630 0.2009 0.6049
C2 C 1.1543(2) 0.12723(18) 0.3282(2)
H2 H 1.1366 0.0826 0.2580
C3 C 1.2668(2) 0.35215(16) 0.4741(2)
H3 H 1.2687 0.3662 0.5668
H4 H 1.2148 0.4008 0.4228
C4 C 1.7479(2) 0.40747(17) 0.9000(2)
H5 H 1.7252 0.4285 0.9774
C5 C 1.8502(2) 0.38632(18) 0.7538(2)
H6 H 1.9107 0.3875 0.7055
C6 C 1.7019(2) 0.28364(18) 0.5967(2)
H7 H 1.7654 0.2740 0.5481
H8 H 1.6773 0.2179 0.6218
C7 C 1.5992(2) 0.33372(17) 0.5078(2)
C8 C 1.4851(2) 0.32759(16) 0.5362(2)
C9 C 1.3888(2) 0.36393(16) 0.4450(2)
C10 C 1.4076(2) 0.40964(16) 0.3306(2)
H9 H 1.3439 0.4338 0.2697
C11 C 1.5213(2) 0.41958(16) 0.3066(2)
C12 C 1.6168(2) 0.38130(16) 0.3937(2)
H10 H 1.6926 0.3875 0.3759
C13 C 0.9580(2) 0.11401(17) 0.7653(2)
Cl1 Cl 1.54553(6) 0.47705(5) 0.16215(6)
N1 N 1.12462(16) 0.10915(14) 0.44748(18)
N2 N 1.21907(16) 0.25056(14) 0.44330(18)
N3 N 1.20987(18) 0.21227(15) 0.31940(19)
N4 N 1.85453(17) 0.42899(14) 0.87092(18)
N5 N 1.67868(17) 0.35405(14) 0.80916(19)
N6 N 1.74652(16) 0.34182(14) 0.71633(18)
N7 N 0.97037(19) 0.09054(16) 0.6612(2)
O1 O 1.46159(14) 0.28425(13) 0.64787(15)
H11 H 1.5163 0.2952 0.7094
S1 S 0.94045(6) 0.14804(7) 0.91210(7)
Zn1C Zn 2.0000 0.5000 1.0000
Zn1C_2 Zn 0.0000 -0.5000 0.0000
C1B C 0.83207(19) -0.18943(17) 0.4828(2)
H1B H 0.8370 -0.2009 0.3951
C2B C 0.8457(2) -0.12723(18) 0.6718(2)
H2B H 0.8634 -0.0826 0.7420
C3B C 0.7332(2) -0.35215(16) 0.5259(2)
H3B H 0.7313 -0.3662 0.4332
H4B H 0.7852 -0.4008 0.5772
C4B C 0.2521(2) -0.40747(17) 0.1000(2)
H5B H 0.2748 -0.4285 0.0226
C5B C 0.1498(2) -0.38632(18) 0.2462(2)
H6B H 0.0893 -0.3875 0.2945
C6B C 0.2981(2) -0.28364(18) 0.4033(2)
H7B H 0.2346 -0.2740 0.4519
H8B H 0.3227 -0.2179 0.3782
C7B C 0.4008(2) -0.33372(17) 0.4922(2)
C8B C 0.5149(2) -0.32759(16) 0.4638(2)
C9B C 0.6112(2) -0.36393(16) 0.5550(2)
C10B C 0.5924(2) -0.40964(16) 0.6694(2)
H9B H 0.6561 -0.4338 0.7303
C11B C 0.4787(2) -0.41958(16) 0.6934(2)
C12B C 0.3832(2) -0.38130(16) 0.6063(2)
H10B H 0.3074 -0.3875 0.6241
C13B C 1.0420(2) -0.11401(17) 0.2347(2)
Cl1B Cl 0.45447(6) -0.47705(5) 0.83785(6)
N1B N 0.87538(16) -0.10915(14) 0.55252(18)
N2B N 0.78093(16) -0.25056(14) 0.55670(18)
N3B N 0.79013(18) -0.21227(15) 0.68060(19)
N4B N 0.14547(17) -0.42899(14) 0.12908(18)
N4C N 0.85453(17) 0.07101(14) 0.37092(18)
N4A N 1.14547(17) -0.07101(14) 0.62908(18)
N5B N 0.32132(17) -0.35405(14) 0.19084(19)
N6B N 0.25348(16) -0.34182(14) 0.28367(18)
N7B N 1.02963(19) -0.09054(16) 0.3388(2)
O1B O 0.53841(14) -0.28425(13) 0.35213(15)
H11B H 0.4837 -0.2952 0.2906
S1B S 1.05955(6) -0.14804(7) 0.08790(7)
loop_
_geom_bond_atom_site_label_1
_geom_bond_atom_site_label_2
_geom_bond_site_symmetry_1
_geom_bond_site_symmetry_2
Zn1 N1 1_555 1_555
C1 H1 1_555 1_555
C2 H2 1_555 1_555
C3 H3 1_555 1_555
H4 C3 1_555 1_555
C4 H5 1_555 1_555
C5 H6 1_555 1_555
C6 H7 1_555 1_555
H8 C6 1_555 1_555
C7 C6 1_555 1_555
C8 C7 1_555 1_555
C9 C3 1_555 1_555
C10 C9 1_555 1_555
H9 C10 1_555 1_555
C11 C10 1_555 1_555
C12 C7 1_555 1_555
H10 C12 1_555 1_555
C13 N7 1_555 1_555
Cl1 C11 1_555 1_555
N1 C1 1_555 1_555
N2 C1 1_555 1_555
N3 C2 1_555 1_555
N4 C4 1_555 1_555
N5 C4 1_555 1_555
N6 C5 1_555 1_555
N7 Zn1 1_555 1_555
O1 C8 1_555 1_555
H11 O1 1_555 1_555
S1 C13 1_555 1_555
Zn1C N4 1_555 1_555
Zn1C_2 N4B 1_555 1_555
C1B H1B 1_555 1_555
C2B H2B 1_555 1_555
C3B H3B 1_555 1_555
H4B C3B 1_555 1_555
C4B H5B 1_555 1_555
C5B H6B 1_555 1_555
C6B H7B 1_555 1_555
H8B C6B 1_555 1_555
C7B C6B 1_555 1_555
C8B C7B 1_555 1_555
C9B C3B 1_555 1_555
C10B C9B 1_555 1_555
H9B C10B 1_555 1_555
C11B C10B 1_555 1_555
C12B C7B 1_555 1_555
H10B C12B 1_555 1_555
C13B N7B 1_555 1_555
Cl1B C11B 1_555 1_555
N1B Zn1 1_555 1_555
N2B C1B 1_555 1_555
N3B C2B 1_555 1_555
N4B C4B 1_555 1_555
N4C Zn1 1_555 1_555
N4A Zn1 1_555 1_555
N5B C4B 1_555 1_555
N6B C5B 1_555 1_555
N7B Zn1 1_555 1_555
O1B C8B 1_555 1_555
H11B O1B 1_555 1_555
S1B C13B 1_555 1_555
C2 N1 1_555 1_555
C3 N2 1_555 1_555
C5 N4 1_555 1_555
C6 N6 1_555 1_555
C8 C9 1_555 1_555
C11 C12 1_555 1_555
N2 N3 1_555 1_555
N5 N6 1_555 1_555
C1B N1B 1_555 1_555
C2B N1B 1_555 1_555
C3B N2B 1_555 1_555
C5B N4B 1_555 1_555
C6B N6B 1_555 1_555
C8B C9B 1_555 1_555
C11B C12B 1_555 1_555
N2B N3B 1_555 1_555
N5B N6B 1_555 1_555

#END
