
#######################################################################
#
#                 Cambridge Crystallographic Data Centre
#                                CCDC 
#
#######################################################################
#
# If this CIF has been generated from an entry in the Cambridge 
# Structural Database, then it will include bibliographic, chemical, 
# crystal, experimental, refinement or atomic coordinate data resulting 
# from the CCDC's data processing and validation procedures.
#
#######################################################################

data_LIKGUJ
_symmetry_cell_setting           cubic
_symmetry_space_group_name_H-M   'F m -3 m'
_symmetry_Int_Tables_number      225
_space_group_name_Hall           '-F 4 2 3'
loop_
_symmetry_equiv_pos_site_id
_symmetry_equiv_pos_as_xyz
1 x,y,z
2 -x,-y,z
3 -x,y,-z
4 x,-y,-z
5 z,x,y
6 z,-x,-y
7 -z,-x,y
8 -z,x,-y
9 y,z,x
10 -y,z,-x
11 y,-z,-x
12 -y,-z,x
13 y,x,-z
14 -y,-x,-z
15 y,-x,z
16 -y,x,z
17 x,z,-y
18 -x,z,y
19 -x,-z,-y
20 x,-z,y
21 z,y,-x
22 z,-y,x
23 -z,y,x
24 -z,-y,-x
25 x,1/2+y,1/2+z
26 -x,1/2-y,1/2+z
27 -x,1/2+y,1/2-z
28 x,1/2-y,1/2-z
29 z,1/2+x,1/2+y
30 z,1/2-x,1/2-y
31 -z,1/2-x,1/2+y
32 -z,1/2+x,1/2-y
33 y,1/2+z,1/2+x
34 -y,1/2+z,1/2-x
35 y,1/2-z,1/2-x
36 -y,1/2-z,1/2+x
37 y,1/2+x,1/2-z
38 -y,1/2-x,1/2-z
39 y,1/2-x,1/2+z
40 -y,1/2+x,1/2+z
41 x,1/2+z,1/2-y
42 -x,1/2+z,1/2+y
43 -x,1/2-z,1/2-y
44 x,1/2-z,1/2+y
45 z,1/2+y,1/2-x
46 z,1/2-y,1/2+x
47 -z,1/2+y,1/2+x
48 -z,1/2-y,1/2-x
49 1/2+x,y,1/2+z
50 1/2-x,-y,1/2+z
51 1/2-x,y,1/2-z
52 1/2+x,-y,1/2-z
53 1/2+z,x,1/2+y
54 1/2+z,-x,1/2-y
55 1/2-z,-x,1/2+y
56 1/2-z,x,1/2-y
57 1/2+y,z,1/2+x
58 1/2-y,z,1/2-x
59 1/2+y,-z,1/2-x
60 1/2-y,-z,1/2+x
61 1/2+y,x,1/2-z
62 1/2-y,-x,1/2-z
63 1/2+y,-x,1/2+z
64 1/2-y,x,1/2+z
65 1/2+x,z,1/2-y
66 1/2-x,z,1/2+y
67 1/2-x,-z,1/2-y
68 1/2+x,-z,1/2+y
69 1/2+z,y,1/2-x
70 1/2+z,-y,1/2+x
71 1/2-z,y,1/2+x
72 1/2-z,-y,1/2-x
73 1/2+x,1/2+y,z
74 1/2-x,1/2-y,z
75 1/2-x,1/2+y,-z
76 1/2+x,1/2-y,-z
77 1/2+z,1/2+x,y
78 1/2+z,1/2-x,-y
79 1/2-z,1/2-x,y
80 1/2-z,1/2+x,-y
81 1/2+y,1/2+z,x
82 1/2-y,1/2+z,-x
83 1/2+y,1/2-z,-x
84 1/2-y,1/2-z,x
85 1/2+y,1/2+x,-z
86 1/2-y,1/2-x,-z
87 1/2+y,1/2-x,z
88 1/2-y,1/2+x,z
89 1/2+x,1/2+z,-y
90 1/2-x,1/2+z,y
91 1/2-x,1/2-z,-y
92 1/2+x,1/2-z,y
93 1/2+z,1/2+y,-x
94 1/2+z,1/2-y,x
95 1/2-z,1/2+y,x
96 1/2-z,1/2-y,-x
97 -x,-y,-z
98 x,y,-z
99 x,-y,z
100 -x,y,z
101 -z,-x,-y
102 -z,x,y
103 z,x,-y
104 z,-x,y
105 -y,-z,-x
106 y,-z,x
107 -y,z,x
108 y,z,-x
109 -y,-x,z
110 y,x,z
111 -y,x,-z
112 y,-x,-z
113 -x,-z,y
114 x,-z,-y
115 x,z,y
116 -x,z,-y
117 -z,-y,x
118 -z,y,-x
119 z,-y,-x
120 z,y,x
121 -x,1/2-y,1/2-z
122 x,1/2+y,1/2-z
123 x,1/2-y,1/2+z
124 -x,1/2+y,1/2+z
125 -z,1/2-x,1/2-y
126 -z,1/2+x,1/2+y
127 z,1/2+x,1/2-y
128 z,1/2-x,1/2+y
129 -y,1/2-z,1/2-x
130 y,1/2-z,1/2+x
131 -y,1/2+z,1/2+x
132 y,1/2+z,1/2-x
133 -y,1/2-x,1/2+z
134 y,1/2+x,1/2+z
135 -y,1/2+x,1/2-z
136 y,1/2-x,1/2-z
137 -x,1/2-z,1/2+y
138 x,1/2-z,1/2-y
139 x,1/2+z,1/2+y
140 -x,1/2+z,1/2-y
141 -z,1/2-y,1/2+x
142 -z,1/2+y,1/2-x
143 z,1/2-y,1/2-x
144 z,1/2+y,1/2+x
145 1/2-x,-y,1/2-z
146 1/2+x,y,1/2-z
147 1/2+x,-y,1/2+z
148 1/2-x,y,1/2+z
149 1/2-z,-x,1/2-y
150 1/2-z,x,1/2+y
151 1/2+z,x,1/2-y
152 1/2+z,-x,1/2+y
153 1/2-y,-z,1/2-x
154 1/2+y,-z,1/2+x
155 1/2-y,z,1/2+x
156 1/2+y,z,1/2-x
157 1/2-y,-x,1/2+z
158 1/2+y,x,1/2+z
159 1/2-y,x,1/2-z
160 1/2+y,-x,1/2-z
161 1/2-x,-z,1/2+y
162 1/2+x,-z,1/2-y
163 1/2+x,z,1/2+y
164 1/2-x,z,1/2-y
165 1/2-z,-y,1/2+x
166 1/2-z,y,1/2-x
167 1/2+z,-y,1/2-x
168 1/2+z,y,1/2+x
169 1/2-x,1/2-y,-z
170 1/2+x,1/2+y,-z
171 1/2+x,1/2-y,z
172 1/2-x,1/2+y,z
173 1/2-z,1/2-x,-y
174 1/2-z,1/2+x,y
175 1/2+z,1/2+x,-y
176 1/2+z,1/2-x,y
177 1/2-y,1/2-z,-x
178 1/2+y,1/2-z,x
179 1/2-y,1/2+z,x
180 1/2+y,1/2+z,-x
181 1/2-y,1/2-x,z
182 1/2+y,1/2+x,z
183 1/2-y,1/2+x,-z
184 1/2+y,1/2-x,-z
185 1/2-x,1/2-z,y
186 1/2+x,1/2-z,-y
187 1/2+x,1/2+z,y
188 1/2-x,1/2+z,-y
189 1/2-z,1/2-y,x
190 1/2-z,1/2+y,-x
191 1/2+z,1/2-y,-x
192 1/2+z,1/2+y,x
_cell_length_a                   29.8307(6)
_cell_length_b                   29.8307(6)
_cell_length_c                   29.8307(6)
_cell_angle_alpha                90
_cell_angle_beta                 90
_cell_angle_gamma                90
_cell_volume                     26545.5
loop_
_atom_site_label
_atom_site_type_symbol
_atom_site_fract_x
_atom_site_fract_y
_atom_site_fract_z
Cu1 Cu 0.2500 0.2500 0.5000
Cu2 Cu 0.19385(11) 0.30615(11) 0.5000
O1 O 0.1688(7) 0.2720(4) 0.4596(6)
O2 O 0.2193(3) 0.2193(3) 0.4563(4)
O3 O 0.1376(2) 0.3624(2) 0.5000
C1 C 0.1813(11) 0.2315(10) 0.4374(6)
C2 C 0.1235(6) 0.2360(10) 0.3765(6)
C3 C 0.1584(5) 0.2121(4) 0.3987(5)
C4 C 0.1752(4) 0.1752(4) 0.3832(8)
C5 C 0.1578(6) 0.1578(6) 0.3422(6)
O1HA O 0.2720(4) 0.0404(6) 0.3312(7)
O2HA O 0.2193(3) 0.0437(4) 0.2807(3)
C1HA C 0.2315(10) 0.0626(6) 0.3187(11)
C2HA C 0.2360(10) 0.1235(6) 0.3765(6)
C3HA C 0.2121(4) 0.1013(5) 0.3416(5)
C4HA C 0.1752(4) 0.1168(8) 0.3248(4)
O1CB O 0.0404(6) 0.1688(7) 0.2280(4)
O2CB O 0.0437(4) 0.2193(3) 0.2807(3)
C1CB C 0.0626(6) 0.1813(11) 0.2685(10)
C2CB C 0.1235(6) 0.1235(6) 0.2640(10)
C3CB C 0.1013(5) 0.1584(5) 0.2879(4)
C4CB C 0.1168(8) 0.1752(4) 0.3248(4)
O1ED O 0.2720(4) 0.1688(7) 0.4596(6)
C1ED C 0.2315(10) 0.1813(11) 0.4374(6)
C3ED C 0.2121(4) 0.1584(5) 0.3987(5)
O1GE O 0.1688(7) 0.0404(6) 0.2280(4)
C1GE C 0.1813(11) 0.0626(6) 0.2685(10)
C3GE C 0.1584(5) 0.1013(5) 0.2879(4)
O1IF O 0.0404(6) 0.2720(4) 0.3312(7)
C1IF C 0.0626(6) 0.2315(10) 0.3187(11)
C3IF C 0.1013(5) 0.2121(4) 0.3416(5)
Cu2L Cu 0.30615(11) 0.19385(11) 0.5000
O1L O 0.2720(4) 0.1688(7) 0.5404(6)
O2L O 0.2193(3) 0.2193(3) 0.5437(4)
O3L O 0.3624(2) 0.1376(2) 0.5000
C1L C 0.2315(10) 0.1813(11) 0.5626(6)
C2L C 0.2360(10) 0.1235(6) 0.6235(6)
C3L C 0.2121(4) 0.1584(5) 0.6013(5)
C4L C 0.1752(4) 0.1752(4) 0.6168(8)
C5L C 0.1578(6) 0.1578(6) 0.6578(6)
O1RB O 0.0404(6) 0.2720(4) 0.6688(7)
O2RB O 0.0437(4) 0.2193(3) 0.7193(3)
C1RB C 0.0626(6) 0.2315(10) 0.6813(11)
C2RB C 0.1235(6) 0.2360(10) 0.6235(6)
C3RB C 0.1013(5) 0.2121(4) 0.6584(5)
C4RB C 0.1168(8) 0.1752(4) 0.6752(4)
O1QA O 0.1688(7) 0.0404(6) 0.7720(4)
O2QA O 0.2193(3) 0.0437(4) 0.7193(3)
C1QA C 0.1813(11) 0.0626(6) 0.7315(10)
C2QA C 0.1235(6) 0.1235(6) 0.7360(10)
C3QA C 0.1584(5) 0.1013(5) 0.7121(4)
C4QA C 0.1752(4) 0.1168(8) 0.6752(4)
O1SC O 0.1688(7) 0.2720(4) 0.5404(6)
C1SC C 0.1813(11) 0.2315(10) 0.5626(6)
C3SC C 0.1584(5) 0.2121(4) 0.6013(5)
O1SE O 0.0404(6) 0.1688(7) 0.7720(4)
C1SE C 0.0626(6) 0.1813(11) 0.7315(10)
C3SE C 0.1013(5) 0.1584(5) 0.7121(4)
O1YD O 0.2720(4) 0.0404(6) 0.6688(7)
C1YD C 0.2315(10) 0.0626(6) 0.6813(11)
C3YD C 0.2121(4) 0.1013(5) 0.6584(5)
Cu1HA Cu 0.2500 0.0000 0.2500
Cu2NA Cu 0.19385(11) 0.0000 0.19385(11)
O1NA O 0.1688(7) -0.0404(6) 0.2280(4)
O2NA O 0.2193(3) -0.0437(4) 0.2807(3)
O3NA O 0.1376(2) 0.0000 0.1376(2)
C1NA C 0.1813(11) -0.0626(6) 0.2685(10)
C2NA C 0.1235(6) -0.1235(6) 0.2640(10)
C3NA C 0.1584(5) -0.1013(5) 0.2879(4)
C4NA C 0.1752(4) -0.1168(8) 0.3248(4)
C5N C 0.1578(6) -0.1578(6) 0.3422(6)
O1N O 0.2720(4) -0.1688(7) 0.4596(6)
O2N O 0.2193(3) -0.2193(3) 0.4563(4)
C1N C 0.2315(10) -0.1813(11) 0.4374(6)
C2N C 0.2360(10) -0.1235(6) 0.3765(6)
C3N C 0.2121(4) -0.1584(5) 0.3987(5)
C4N C 0.1752(4) -0.1752(4) 0.3832(8)
O1SB O 0.0404(6) -0.2720(4) 0.3312(7)
O2SB O 0.0437(4) -0.2193(3) 0.2807(3)
C1SB C 0.0626(6) -0.2315(10) 0.3187(11)
C2SB C 0.1235(6) -0.2360(10) 0.3765(6)
C3SB C 0.1013(5) -0.2121(4) 0.3416(5)
C4SB C 0.1168(8) -0.1752(4) 0.3248(4)
O1AE O 0.2720(4) -0.0404(6) 0.3312(7)
C1AE C 0.2315(10) -0.0626(6) 0.3187(11)
C3AE C 0.2121(4) -0.1013(5) 0.3416(5)
O1TC O 0.1688(7) -0.2720(4) 0.4596(6)
C1TC C 0.1813(11) -0.2315(10) 0.4374(6)
C3TC C 0.1584(5) -0.2121(4) 0.3987(5)
O1RE O 0.0404(6) -0.1688(7) 0.2280(4)
C1RE C 0.0626(6) -0.1813(11) 0.2685(10)
C3RE C 0.1013(5) -0.1584(5) 0.2879(4)
Cu1FA Cu 0.2500 0.0000 0.7500
Cu2QA Cu 0.19385(11) 0.0000 0.80615(11)
O3QA O 0.1376(2) 0.0000 0.8624(2)
Cu2PB Cu 0.0000 0.30615(11) 0.30615(11)
O1PB O -0.0404(6) 0.2720(4) 0.3312(7)
O2PB O -0.0437(4) 0.2193(3) 0.2807(3)
O3PB O 0.0000 0.3624(2) 0.3624(2)
C1PB C -0.0626(6) 0.2315(10) 0.3187(11)
C2PB C -0.1235(6) 0.2360(10) 0.3765(6)
C3PB C -0.1013(5) 0.2121(4) 0.3416(5)
C4PB C -0.1168(8) 0.1752(4) 0.3248(4)
C5O C -0.1578(6) 0.1578(6) 0.3422(6)
O1PA O -0.1688(7) 0.0404(6) 0.2280(4)
O2PA O -0.2193(3) 0.0437(4) 0.2807(3)
C1PA C -0.1813(11) 0.0626(6) 0.2685(10)
C2PA C -0.1235(6) 0.1235(6) 0.2640(10)
C3PA C -0.1584(5) 0.1013(5) 0.2879(4)
C4PA C -0.1752(4) 0.1168(8) 0.3248(4)
O1O O -0.2720(4) 0.1688(7) 0.4596(6)
O2O O -0.2193(3) 0.2193(3) 0.4563(4)
C1O C -0.2315(10) 0.1813(11) 0.4374(6)
C2O C -0.2360(10) 0.1235(6) 0.3765(6)
C3O C -0.2121(4) 0.1584(5) 0.3987(5)
C4O C -0.1752(4) 0.1752(4) 0.3832(8)
O1TE O -0.0404(6) 0.1688(7) 0.2280(4)
C1TE C -0.0626(6) 0.1813(11) 0.2685(10)
C3TE C -0.1013(5) 0.1584(5) 0.2879(4)
O1XD O -0.2720(4) 0.0404(6) 0.3312(7)
C1XD C -0.2315(10) 0.0626(6) 0.3187(11)
C3XD C -0.2121(4) 0.1013(5) 0.3416(5)
O1UC O -0.1688(7) 0.2720(4) 0.4596(6)
C1UC C -0.1813(11) 0.2315(10) 0.4374(6)
C3UC C -0.1584(5) 0.2121(4) 0.3987(5)
Cu2RB Cu 0.0000 0.30615(11) 0.69385(11)
O3RB O 0.0000 0.3624(2) 0.6376(2)
Cu1B Cu -0.2500 0.2500 0.5000
Cu1C Cu 0.2500 -0.2500 0.5000
Cu1GA Cu -0.2500 0.0000 0.2500
Cu1ZA Cu 0.0000 0.2500 0.7500
Cu1AB Cu 0.0000 -0.2500 0.2500
Cu1CB Cu 0.0000 0.2500 0.2500
Cu2B Cu -0.19385(11) 0.30615(11) 0.5000
Cu2C Cu 0.19385(11) -0.30615(11) 0.5000
Cu2N Cu 0.30615(11) -0.19385(11) 0.5000
Cu2O Cu -0.30615(11) 0.19385(11) 0.5000
Cu2FA Cu 0.30615(11) 0.0000 0.69385(11)
Cu2GA Cu -0.30615(11) 0.0000 0.30615(11)
Cu2HA Cu 0.30615(11) 0.0000 0.30615(11)
Cu2PA Cu -0.19385(11) 0.0000 0.19385(11)
Cu2ZA Cu 0.0000 0.19385(11) 0.80615(11)
Cu2AB Cu 0.0000 -0.19385(11) 0.19385(11)
Cu2CB Cu 0.0000 0.19385(11) 0.19385(11)
Cu2SB Cu 0.0000 -0.30615(11) 0.30615(11)
O1FA O 0.2720(4) -0.0404(6) 0.6688(7)
O1UB O 0.3312(7) 0.2280(4) 0.4596(6)
O1YB O -0.0404(6) 0.3312(7) 0.7280(4)
O1ZB O 0.0404(6) 0.3312(7) 0.2720(4)
O1CC O 0.2280(4) -0.0404(6) 0.8312(7)
O1EC O 0.2280(4) 0.0404(6) 0.1688(7)
O1GC O 0.2280(4) 0.3312(7) 0.5404(6)
O1KC O 0.3312(7) -0.0404(6) 0.2720(4)
O1LC O 0.3312(7) 0.0404(6) 0.7280(4)
O1HE O 0.1688(7) -0.0404(6) 0.7720(4)
O1KF O -0.0404(6) 0.2720(4) 0.6688(7)
O1LF O 0.3312(7) 0.2280(4) 0.5404(6)
O1PF O 0.0404(6) 0.3312(7) 0.7280(4)
O1SF O -0.0404(6) 0.3312(7) 0.2720(4)
O1TF O 0.2280(4) 0.0404(6) 0.8312(7)
O1VF O 0.2280(4) -0.0404(6) 0.1688(7)
O1XF O 0.2280(4) 0.3312(7) 0.4596(6)
O1BG O 0.3312(7) 0.0404(6) 0.2720(4)
O1EG O 0.3312(7) -0.0404(6) 0.7280(4)
O2FA O 0.2193(3) -0.0437(4) 0.7193(3)
O2UB O 0.2807(3) 0.2807(3) 0.4563(4)
O2CC O 0.2807(3) -0.0437(4) 0.7807(3)
O2EC O 0.2807(3) 0.0437(4) 0.2193(3)
O2GC O 0.2807(3) 0.2807(3) 0.5437(4)
O2KC O 0.2807(3) -0.0437(4) 0.2193(3)
O2LC O 0.2807(3) 0.0437(4) 0.7807(3)
loop_
_geom_bond_atom_site_label_1
_geom_bond_atom_site_label_2
_geom_bond_site_symmetry_1
_geom_bond_site_symmetry_2
Cu1 Cu2 1_555 1_555
Cu2 O1 1_555 1_555
O1 Cu1 1_555 1_555
O2 Cu1 1_555 1_555
O3 Cu2 1_555 1_555
C1 O1 1_555 1_555
C2 C3 1_555 1_555
C3 C1 1_555 1_555
C4 C3 1_555 1_555
C5 C4 1_555 1_555
O1HA C1HA 1_555 1_555
O2HA C1HA 1_555 1_555
C1HA C3HA 1_555 1_555
C2HA C3HA 1_555 1_555
C3HA C4HA 1_555 1_555
C4HA C5 1_555 1_555
O1CB C1CB 1_555 1_555
O2CB C1CB 1_555 1_555
C1CB C3CB 1_555 1_555
C2CB C3CB 1_555 1_555
C3CB C4CB 1_555 1_555
C4CB C5 1_555 1_555
O1ED Cu1 1_555 1_555
C1ED O2 1_555 1_555
C3ED C4 1_555 1_555
O1GE C1GE 1_555 1_555
C1GE O2HA 1_555 1_555
C3GE C4HA 1_555 1_555
O1IF C1IF 1_555 1_555
C1IF O2CB 1_555 1_555
C3IF C2 1_555 1_555
Cu2L Cu1 1_555 1_555
O1L Cu1 1_555 1_555
O2L Cu1 1_555 1_555
O3L Cu2L 1_555 1_555
C1L O1L 1_555 1_555
C2L C3L 1_555 1_555
C3L C1L 1_555 1_555
C4L C3L 1_555 1_555
C5L C4L 1_555 1_555
O1RB C1RB 1_555 1_555
O2RB C1RB 1_555 1_555
C1RB C3RB 1_555 1_555
C2RB C3RB 1_555 1_555
C3RB C4RB 1_555 1_555
C4RB C5L 1_555 1_555
O1QA C1QA 1_555 1_555
O2QA C1QA 1_555 1_555
C1QA C3QA 1_555 1_555
C2QA C3QA 1_555 1_555
C3QA C4QA 1_555 1_555
C4QA C5L 1_555 1_555
O1SC Cu1 1_555 1_555
C1SC O2L 1_555 1_555
C3SC C4L 1_555 1_555
O1SE C1SE 1_555 1_555
C1SE O2RB 1_555 1_555
C3SE C4RB 1_555 1_555
O1YD C1YD 1_555 1_555
C1YD O2QA 1_555 1_555
C3YD C2L 1_555 1_555
Cu1HA O1HA 1_555 1_555
Cu2NA O1GE 1_555 1_555
O1NA Cu1HA 1_555 1_555
O2NA Cu1HA 1_555 1_555
O3NA Cu2NA 1_555 1_555
C1NA O1NA 1_555 1_555
C2NA C3NA 1_555 1_555
C3NA C1NA 1_555 1_555
C4NA C3NA 1_555 1_555
C5N C4NA 1_555 1_555
O1N C1N 1_555 1_555
O2N C1N 1_555 1_555
C1N C3N 1_555 1_555
C2N C3N 1_555 1_555
C3N C4N 1_555 1_555
C4N C5N 1_555 1_555
O1SB C1SB 1_555 1_555
O2SB C1SB 1_555 1_555
C1SB C3SB 1_555 1_555
C2SB C3SB 1_555 1_555
C3SB C4SB 1_555 1_555
C4SB C5N 1_555 1_555
O1AE Cu1HA 1_555 1_555
C1AE O2NA 1_555 1_555
C3AE C4NA 1_555 1_555
O1TC C1TC 1_555 1_555
C1TC O2N 1_555 1_555
C3TC C4N 1_555 1_555
O1RE C1RE 1_555 1_555
C1RE O2SB 1_555 1_555
C3RE C2NA 1_555 1_555
Cu1FA O1QA 1_555 1_555
Cu2QA O1QA 1_555 1_555
O3QA Cu2QA 1_555 1_555
Cu2PB O1IF 1_555 1_555
O1PB Cu2PB 1_555 1_555
O2PB C1PB 1_555 1_555
O3PB Cu2PB 1_555 1_555
C1PB O1PB 1_555 1_555
C2PB C3PB 1_555 1_555
C3PB C1PB 1_555 1_555
C4PB C3PB 1_555 1_555
C5O C4PB 1_555 1_555
O1PA C1PA 1_555 1_555
O2PA C1PA 1_555 1_555
C1PA C3PA 1_555 1_555
C2PA C3PA 1_555 1_555
C3PA C4PA 1_555 1_555
C4PA C5O 1_555 1_555
O1O C1O 1_555 1_555
O2O C1O 1_555 1_555
C1O C3O 1_555 1_555
C2O C3O 1_555 1_555
C3O C4O 1_555 1_555
C4O C5O 1_555 1_555
O1TE C1TE 1_555 1_555
C1TE O2PB 1_555 1_555
C3TE C4PB 1_555 1_555
O1XD C1XD 1_555 1_555
C1XD O2PA 1_555 1_555
C3XD C4PA 1_555 1_555
O1UC C1UC 1_555 1_555
C1UC O2O 1_555 1_555
C3UC C2PB 1_555 1_555
Cu2RB O1RB 1_555 1_555
O3RB Cu2RB 1_555 1_555
Cu1B O1O 1_555 1_555
Cu1C O1N 1_555 1_555
Cu1GA O1PA 1_555 1_555
Cu1ZA O1RB 1_555 1_555
Cu1AB O1SB 1_555 1_555
Cu1CB O1CB 1_555 1_555
Cu2B O1UC 1_555 1_555
Cu2C O1TC 1_555 1_555
Cu2N O1N 1_555 1_555
Cu2O O1O 1_555 1_555
Cu2FA O1YD 1_555 1_555
Cu2GA O1XD 1_555 1_555
Cu2HA O1HA 1_555 1_555
Cu2PA O1PA 1_555 1_555
Cu2ZA O1SE 1_555 1_555
Cu2AB O1RE 1_555 1_555
Cu2CB O1CB 1_555 1_555
Cu2SB O1SB 1_555 1_555
O1FA Cu1FA 1_555 1_555
O1UB Cu1 1_555 1_555
O1YB Cu2RB 1_555 1_555
O1ZB Cu2PB 1_555 1_555
O1CC Cu1FA 1_555 1_555
O1EC Cu1HA 1_555 1_555
O1GC Cu1 1_555 1_555
O1KC Cu1HA 1_555 1_555
O1LC Cu1FA 1_555 1_555
O1HE Cu1FA 1_555 1_555
O1KF Cu2RB 1_555 1_555
O1LF Cu1 1_555 1_555
O1PF Cu2RB 1_555 1_555
O1SF Cu2PB 1_555 1_555
O1TF Cu1FA 1_555 1_555
O1VF Cu1HA 1_555 1_555
O1XF Cu1 1_555 1_555
O1BG Cu1HA 1_555 1_555
O1EG Cu1FA 1_555 1_555
O2FA Cu1FA 1_555 1_555
O2UB Cu1 1_555 1_555
O2CC Cu1FA 1_555 1_555
O2EC Cu1HA 1_555 1_555
O2GC Cu1 1_555 1_555
O2KC Cu1HA 1_555 1_555
O2LC Cu1FA 1_555 1_555
Cu2 O1SC 1_555 1_555
Cu2 O1GC 1_555 1_555
Cu2 O1XF 1_555 1_555
O2 C1 1_555 1_555
O2HA Cu1HA 1_555 1_555
C2HA C3ED 1_555 1_555
O2CB Cu1CB 1_555 1_555
C2CB C3GE 1_555 1_555
C4CB C3IF 1_555 1_555
O1ED C1ED 1_555 1_555
O1ED Cu2L 1_555 1_555
C1ED C3ED 1_555 1_555
O1GE Cu1HA 1_555 1_555
C1GE C3GE 1_555 1_555
O1IF Cu1CB 1_555 1_555
C1IF C3IF 1_555 1_555
Cu2L O1L 1_555 1_555
Cu2L O1UB 1_555 1_555
Cu2L O1LF 1_555 1_555
O2L C1L 1_555 1_555
O2RB Cu1ZA 1_555 1_555
C2RB C3SC 1_555 1_555
O2QA Cu1FA 1_555 1_555
C2QA C3SE 1_555 1_555
C4QA C3YD 1_555 1_555
O1SC C1SC 1_555 1_555
C1SC C3SC 1_555 1_555
O1SE Cu1ZA 1_555 1_555
C1SE C3SE 1_555 1_555
O1YD Cu1FA 1_555 1_555
C1YD C3YD 1_555 1_555
Cu1HA Cu2NA 1_555 1_555
Cu1HA Cu2HA 1_555 1_555
Cu2NA O1NA 1_555 1_555
Cu2NA O1EC 1_555 1_555
Cu2NA O1VF 1_555 1_555
O2NA C1NA 1_555 1_555
O2N Cu1C 1_555 1_555
C2N C3AE 1_555 1_555
O2SB Cu1AB 1_555 1_555
C2SB C3TC 1_555 1_555
C4SB C3RE 1_555 1_555
O1AE C1AE 1_555 1_555
O1AE Cu2HA 1_555 1_555
C1AE C3AE 1_555 1_555
O1TC Cu1C 1_555 1_555
C1TC C3TC 1_555 1_555
O1RE Cu1AB 1_555 1_555
C1RE C3RE 1_555 1_555
Cu1FA Cu2QA 1_555 1_555
Cu1FA Cu2FA 1_555 1_555
Cu2QA O1CC 1_555 1_555
Cu2QA O1HE 1_555 1_555
Cu2QA O1TF 1_555 1_555
Cu2PB Cu1CB 1_555 1_555
O1PB Cu1CB 1_555 1_555
O2PB Cu1CB 1_555 1_555
O2PA Cu1GA 1_555 1_555
C2PA C3TE 1_555 1_555
O2O Cu1B 1_555 1_555
C2O C3XD 1_555 1_555
C4O C3UC 1_555 1_555
O1TE Cu1CB 1_555 1_555
O1TE Cu2CB 1_555 1_555
C1TE C3TE 1_555 1_555
O1XD Cu1GA 1_555 1_555
C1XD C3XD 1_555 1_555
O1UC Cu1B 1_555 1_555
C1UC C3UC 1_555 1_555
Cu2RB Cu1ZA 1_555 1_555
Cu1B Cu2B 1_555 1_555
Cu1B Cu2O 1_555 1_555
Cu1C Cu2C 1_555 1_555
Cu1C Cu2N 1_555 1_555
Cu1GA Cu2GA 1_555 1_555
Cu1GA Cu2PA 1_555 1_555
Cu1ZA Cu2ZA 1_555 1_555
Cu1ZA O1YB 1_555 1_555
Cu1ZA O1KF 1_555 1_555
Cu1ZA O1PF 1_555 1_555
Cu1AB Cu2AB 1_555 1_555
Cu1AB Cu2SB 1_555 1_555
Cu1CB Cu2CB 1_555 1_555
Cu1CB O1ZB 1_555 1_555
Cu1CB O1SF 1_555 1_555
Cu2FA O1FA 1_555 1_555
Cu2FA O1LC 1_555 1_555
Cu2FA O1EG 1_555 1_555
Cu2HA O1KC 1_555 1_555
Cu2HA O1BG 1_555 1_555

#END
