
#######################################################################
#
#                 Cambridge Crystallographic Data Centre
#                                CCDC 
#
#######################################################################
#
# If this CIF has been generated from an entry in the Cambridge 
# Structural Database, then it will include bibliographic, chemical, 
# crystal, experimental, refinement or atomic coordinate data resulting 
# from the CCDC's data processing and validation procedures.
#
#######################################################################

data_LIKNUQ
_symmetry_cell_setting           monoclinic
_symmetry_space_group_name_H-M   'P 21/c'
_symmetry_Int_Tables_number      14
_space_group_name_Hall           '-P 2ybc'
loop_
_symmetry_equiv_pos_site_id
_symmetry_equiv_pos_as_xyz
1 x,y,z
2 -x,1/2+y,1/2-z
3 -x,-y,-z
4 x,1/2-y,1/2+z
_cell_length_a                   5.7235(11)
_cell_length_b                   27.444(6)
_cell_length_c                   21.287(4)
_cell_angle_alpha                90
_cell_angle_beta                 95.60(3)
_cell_angle_gamma                90
_cell_volume                     3327.71
loop_
_atom_site_label
_atom_site_type_symbol
_atom_site_fract_x
_atom_site_fract_y
_atom_site_fract_z
Na1 Na 0.7534(2) 0.16149(5) 0.27052(6)
Na2 Na 0.2584(2) 0.10088(5) 0.25645(6)
O1 O 0.4974(4) 0.54170(7) 0.33626(9)
O2 O 0.0560(4) 0.61016(8) 0.39823(10)
H1 H -0.0530 0.6270 0.3826
O3 O 0.1029(4) 0.59378(7) 0.29769(10)
O4 O 0.4950(4) 0.22201(7) 0.35655(9)
O5 O 0.0675(4) 0.15193(8) 0.42416(10)
O6 O 0.1114(4) 0.16682(7) 0.32322(10)
O7 O 0.7728(3) 0.54103(6) 0.14552(9)
O8 O 0.2455(4) 0.59224(7) 0.07347(9)
H2 H 0.1539 0.6124 0.0854
O9 O 0.4259(4) 0.60281(7) 0.17024(9)
O10 O 0.7926(3) 0.21912(6) 0.16937(8)
O11 O 0.2603(4) 0.16739(7) 0.10204(9)
O12 O 0.4411(4) 0.15966(7) 0.19884(9)
C1 C 0.6534(5) 0.50526(9) 0.35541(13)
C2 C 0.7171(5) 0.49190(10) 0.41716(13)
H3 H 0.6559 0.5085 0.4499
C3 C 0.8721(5) 0.45372(10) 0.43026(13)
H4 H 0.9124 0.4451 0.4722
C4 C 0.9696(4) 0.42792(9) 0.38342(12)
C5 C 0.9055(5) 0.44327(9) 0.32203(12)
H5 H 0.9690 0.4273 0.2891
C6 C 0.7520(5) 0.48106(10) 0.30793(13)
H6 H 0.7146 0.4903 0.2661
C7 C 0.3564(5) 0.55866(11) 0.38245(13)
H7 H 0.4527 0.5775 0.4136
H8 H 0.2946 0.5310 0.4038
C8 C 0.1558(5) 0.58966(10) 0.35480(15)
C9 C 1.1272(5) 0.38315(9) 0.39732(12)
C10 C 1.3185(5) 0.38095(10) 0.35137(14)
H9 H 1.2461 0.3790 0.3088
H10 H 1.4149 0.3527 0.3605
H11 H 1.4139 0.4097 0.3561
C11 C 1.2567(5) 0.38593(10) 0.46382(13)
H12 H 1.3562 0.4142 0.4669
H13 H 1.3505 0.3572 0.4718
H14 H 1.1444 0.3882 0.4944
C12 C 0.9671(5) 0.33809(9) 0.38969(12)
C13 C 0.8718(6) 0.31581(10) 0.43944(13)
H15 H 0.9134 0.3271 0.4802
C14 C 0.7161(6) 0.27710(11) 0.43076(13)
H16 H 0.6554 0.2629 0.4654
C15 C 0.6515(5) 0.25971(9) 0.37110(13)
C16 C 0.7439(5) 0.28086(10) 0.32079(13)
H17 H 0.7027 0.2692 0.2802
C17 C 0.8970(5) 0.31915(10) 0.33005(13)
H18 H 0.9566 0.3331 0.2951
C18 C 0.3624(6) 0.20592(11) 0.40515(14)
H19 H 0.2968 0.2339 0.4250
H20 H 0.4648 0.1890 0.4370
C19 C 0.1645(5) 0.17203(10) 0.38017(15)
C20 C 0.9297(5) 0.50422(9) 0.13568(12)
C21 C 1.0952(5) 0.49365(9) 0.18540(12)
H21 H 1.1058 0.5129 0.2215
C22 C 1.2450(5) 0.45447(9) 0.18162(12)
H22 H 1.3521 0.4474 0.2161
C23 C 1.2417(4) 0.42514(9) 0.12797(12)
C24 C 1.0817(5) 0.43878(9) 0.07749(12)
H23 H 1.0780 0.4213 0.0400
C25 C 0.9280(5) 0.47735(9) 0.08101(12)
H24 H 0.8232 0.4852 0.0463
C26 C 0.5820(5) 0.54711(10) 0.09799(12)
H25 H 0.5031 0.5161 0.0900
H26 H 0.6414 0.5577 0.0591
C27 C 0.4095(5) 0.58401(10) 0.11796(14)
C28 C 1.3977(5) 0.37964(9) 0.12499(12)
C29 C 1.6137(5) 0.38251(10) 0.17442(13)
H27 H 1.7021 0.4114 0.1673
H28 H 1.7107 0.3543 0.1707
H29 H 1.5624 0.3836 0.2160
C30 C 1.4936(5) 0.37693(10) 0.05984(12)
H30 H 1.3652 0.3737 0.0276
H31 H 1.5957 0.3493 0.0586
H32 H 1.5796 0.4061 0.0528
C31 C 1.2490(4) 0.33411(9) 0.13538(12)
C32 C 1.2610(5) 0.30880(9) 0.19219(12)
H33 H 1.3712 0.3184 0.2248
C33 C 1.1154(5) 0.26990(9) 0.20197(12)
H34 H 1.1307 0.2534 0.2403
C34 C 0.9477(5) 0.25559(9) 0.15480(12)
C35 C 0.9410(5) 0.27808(10) 0.09702(12)
H35 H 0.8355 0.2673 0.0639
C36 C 1.0893(5) 0.31652(10) 0.08754(12)
H36 H 1.0818 0.3310 0.0479
C37 C 0.6031(5) 0.21057(10) 0.12218(13)
H37 H 0.6636 0.1969 0.0850
H38 H 0.5276 0.2413 0.1102
C38 C 0.4249(5) 0.17622(9) 0.14528(14)
Na1_2 Na -0.2466(2) 0.16149(5) 0.27052(6)
Na1A Na 0.2466(2) 0.66149(5) 0.22948(6)
Na2A Na -0.2584(2) 0.60088(5) 0.24355(6)
Na2A_2 Na 0.7416(2) 0.60088(5) 0.24355(6)
O1A O 0.5026(4) 0.04170(7) 0.16374(9)
O3A O -0.1029(4) 0.09378(7) 0.20231(10)
O3A_2 O 0.8971(4) 0.09378(7) 0.20231(10)
O6_2 O 1.1114(4) 0.16682(7) 0.32322(10)
O7A O 0.2272(3) 0.04103(6) 0.35448(9)
O9A O 0.5741(4) 0.10281(7) 0.32976(9)
loop_
_geom_bond_atom_site_label_1
_geom_bond_atom_site_label_2
_geom_bond_site_symmetry_1
_geom_bond_site_symmetry_2
Na1 O4 1_555 1_555
Na2 O6 1_555 1_555
O1 C1 1_555 1_555
O2 H1 1_555 1_555
O3 C8 1_555 1_555
O4 C15 1_555 1_555
O5 C19 1_555 1_555
O6 C19 1_555 1_555
O7 C20 1_555 1_555
O8 H2 1_555 1_555
O9 C27 1_555 1_555
O10 Na1 1_555 1_555
O11 C38 1_555 1_555
O12 Na1 1_555 1_555
C1 C2 1_555 1_555
C2 H3 1_555 1_555
C3 C2 1_555 1_555
H4 C3 1_555 1_555
C4 C3 1_555 1_555
C5 C4 1_555 1_555
H5 C5 1_555 1_555
C6 C1 1_555 1_555
H6 C6 1_555 1_555
C7 O1 1_555 1_555
H7 C7 1_555 1_555
H8 C7 1_555 1_555
C8 O2 1_555 1_555
C9 C4 1_555 1_555
C10 C9 1_555 1_555
H9 C10 1_555 1_555
H10 C10 1_555 1_555
H11 C10 1_555 1_555
C11 C9 1_555 1_555
H12 C11 1_555 1_555
H13 C11 1_555 1_555
H14 C11 1_555 1_555
C12 C9 1_555 1_555
C13 C12 1_555 1_555
H15 C13 1_555 1_555
C14 C13 1_555 1_555
H16 C14 1_555 1_555
C15 C14 1_555 1_555
C16 C15 1_555 1_555
H17 C16 1_555 1_555
C17 C12 1_555 1_555
H18 C17 1_555 1_555
C18 O4 1_555 1_555
H19 C18 1_555 1_555
H20 C18 1_555 1_555
C19 C18 1_555 1_555
C20 C21 1_555 1_555
C21 H21 1_555 1_555
C22 C21 1_555 1_555
H22 C22 1_555 1_555
C23 C22 1_555 1_555
C24 C23 1_555 1_555
H23 C24 1_555 1_555
C25 C20 1_555 1_555
H24 C25 1_555 1_555
C26 O7 1_555 1_555
H25 C26 1_555 1_555
H26 C26 1_555 1_555
C27 O8 1_555 1_555
C28 C23 1_555 1_555
C29 C28 1_555 1_555
H27 C29 1_555 1_555
H28 C29 1_555 1_555
H29 C29 1_555 1_555
C30 C28 1_555 1_555
H30 C30 1_555 1_555
H31 C30 1_555 1_555
H32 C30 1_555 1_555
C31 C28 1_555 1_555
C32 C31 1_555 1_555
H33 C32 1_555 1_555
C33 C32 1_555 1_555
H34 C33 1_555 1_555
C34 O10 1_555 1_555
C35 C34 1_555 1_555
H35 C35 1_555 1_555
C36 C31 1_555 1_555
H36 C36 1_555 1_555
C37 O10 1_555 1_555
H37 C37 1_555 1_555
H38 C37 1_555 1_555
C38 O12 1_555 1_555
Na1_2 O6 1_555 1_555
Na1A O3 1_555 1_555
Na2A O3 1_555 1_555
Na2A_2 O1 1_555 1_555
O1A Na2 1_555 1_555
O3A Na2 1_555 1_555
O3A_2 Na1 1_555 1_555
O6_2 Na1 1_555 1_555
O7A Na2 1_555 1_555
O9A Na1 1_555 1_555
Na2 O12 1_555 1_555
Na2 O9A 1_555 1_555
O7 Na2A_2 1_555 1_555
O9 Na1A 1_555 1_555
O9 Na2A_2 1_555 1_555
C5 C6 1_555 1_555
C7 C8 1_555 1_555
C16 C17 1_555 1_555
C24 C25 1_555 1_555
C26 C27 1_555 1_555
C33 C34 1_555 1_555
C35 C36 1_555 1_555
C37 C38 1_555 1_555
Na1_2 O3A 1_555 1_555

#END
