
#######################################################################
#
#                 Cambridge Crystallographic Data Centre
#                                CCDC 
#
#######################################################################
#
# If this CIF has been generated from an entry in the Cambridge 
# Structural Database, then it will include bibliographic, chemical, 
# crystal, experimental, refinement or atomic coordinate data resulting 
# from the CCDC's data processing and validation procedures.
#
#######################################################################

data_LIKPUS
_symmetry_cell_setting           monoclinic
_symmetry_space_group_name_H-M   'C 2/c'
_symmetry_Int_Tables_number      15
_space_group_name_Hall           '-C 2yn'
loop_
_symmetry_equiv_pos_site_id
_symmetry_equiv_pos_as_xyz
1 x,y,z
2 -x,y,1/2-z
3 1/2+x,1/2+y,z
4 1/2-x,1/2+y,1/2-z
5 -x,-y,-z
6 x,-y,1/2+z
7 1/2-x,1/2-y,-z
8 1/2+x,1/2-y,1/2+z
_cell_length_a                   18.537(4)
_cell_length_b                   16.886(3)
_cell_length_c                   8.3534(17)
_cell_angle_alpha                90
_cell_angle_beta                 101.26(3)
_cell_angle_gamma                90
_cell_volume                     2564.42
loop_
_atom_site_label
_atom_site_type_symbol
_atom_site_fract_x
_atom_site_fract_y
_atom_site_fract_z
Cd1 Cd 0.0000 0.371789(12) -0.2500
N1 N 0.12006(11) 0.38606(11) -0.0941(2)
O1 O -0.04623(11) 0.26880(10) -0.1026(2)
O2 O -0.04436(11) 0.38739(10) 0.0024(2)
O3 O 0.0000 0.51095(14) -0.2500
H1 H -0.0151 0.5424 -0.3289
C1 C 0.17741(14) 0.34306(15) -0.1179(3)
H2 H 0.1698 0.3046 -0.2010
C2 C 0.24752(14) 0.35233(15) -0.0264(3)
H3 H 0.2861 0.3205 -0.0482
C3 C 0.26146(13) 0.40866(14) 0.0984(3)
C4 C 0.20107(14) 0.45446(14) 0.1198(3)
H4 H 0.2071 0.4942 0.2002
C5 C 0.13303(14) 0.44152(14) 0.0238(3)
H5 H 0.0935 0.4730 0.0413
C6 C 0.33442(14) 0.41656(15) 0.2006(3)
H6 H 0.3665 0.3731 0.2057
C7 C 0.35898(14) 0.48043(15) 0.2871(3)
H7 H 0.3269 0.5240 0.2788
C8 C 0.43147(13) 0.48958(14) 0.3944(3)
C9 C 0.45649(14) 0.56443(14) 0.4483(3)
H8 H 0.4267 0.6087 0.4141
C10 C 0.47621(14) 0.42438(14) 0.4496(3)
H9 H 0.4604 0.3729 0.4170
C11 C -0.20096(14) 0.18840(15) 0.0389(3)
H10 H -0.1679 0.1459 0.0644
C12 C -0.17611(13) 0.26537(15) 0.0695(3)
C13 C -0.22592(15) 0.32652(15) 0.0292(3)
H11 H -0.2099 0.3791 0.0483
C14 C -0.09549(14) 0.28267(17) 0.1395(3)
H12 H -0.0707 0.2340 0.1845
H13 H -0.0917 0.3215 0.2279
C15 C -0.05847(12) 0.31506(14) 0.0051(3)
N1D N 0.87994(11) 0.61394(11) 1.0941(2)
C1D C 0.82259(14) 0.65694(15) 1.1179(3)
H2D H 0.8302 0.6954 1.2010
C2D C 0.75248(14) 0.64767(15) 1.0264(3)
H3D H 0.7139 0.6795 1.0482
C3D C 0.73854(13) 0.59134(14) 0.9016(3)
C4D C 0.79893(14) 0.54554(14) 0.8802(3)
H4D H 0.7929 0.5058 0.7998
C5D C 0.86697(14) 0.55848(14) 0.9762(3)
H5D H 0.9065 0.5270 0.9587
C6D C 0.66558(14) 0.58344(15) 0.7994(3)
H6D H 0.6335 0.6269 0.7943
C7D C 0.64102(14) 0.51957(15) 0.7129(3)
H7D H 0.6731 0.4760 0.7212
C8D C 0.56853(13) 0.51042(14) 0.6056(3)
C9D C 0.54351(14) 0.43557(14) 0.5517(3)
H8D H 0.5733 0.3913 0.5859
C10D C 0.52379(14) 0.57562(14) 0.5504(3)
H9D H 0.5396 0.6271 0.5830
O1F O -0.45377(11) 0.23120(10) 0.1026(2)
O2F O -0.45564(11) 0.11261(10) -0.0024(2)
C11F C -0.29904(14) 0.31160(15) -0.0389(3)
H10F H -0.3321 0.3541 -0.0644
C12F C -0.32389(13) 0.23463(15) -0.0695(3)
C13F C -0.27408(15) 0.17348(15) -0.0292(3)
H11F H -0.2901 0.1209 -0.0483
C14F C -0.40451(14) 0.21733(17) -0.1395(3)
H12F H -0.4293 0.2660 -0.1845
H13F H -0.4083 0.1785 -0.2279
C15F C -0.44153(12) 0.18494(14) -0.0051(3)
H1A H 0.0151 0.5424 -0.1711
Cd1D Cd 1.0000 0.628211(12) 1.2500
Cd1F Cd -0.5000 0.128211(12) 0.2500
N1A N -0.12006(11) 0.38606(11) -0.4059(2)
O1A O 0.04623(11) 0.26880(10) -0.3974(2)
O2A O 0.04436(11) 0.38739(10) -0.5024(2)
loop_
_geom_bond_atom_site_label_1
_geom_bond_atom_site_label_2
_geom_bond_site_symmetry_1
_geom_bond_site_symmetry_2
Cd1 N1 1_555 1_555
N1 C1 1_555 1_555
O1 Cd1 1_555 1_555
O2 Cd1 1_555 1_555
O3 Cd1 1_555 1_555
H1 O3 1_555 1_555
C1 H2 1_555 1_555
C2 C1 1_555 1_555
H3 C2 1_555 1_555
C3 C2 1_555 1_555
C4 C3 1_555 1_555
H4 C4 1_555 1_555
C5 N1 1_555 1_555
H5 C5 1_555 1_555
C6 C3 1_555 1_555
H6 C6 1_555 1_555
C7 C6 1_555 1_555
H7 C7 1_555 1_555
C8 C7 1_555 1_555
C9 C8 1_555 1_555
H8 C9 1_555 1_555
C10 C8 1_555 1_555
H9 C10 1_555 1_555
C11 H10 1_555 1_555
C12 C11 1_555 1_555
C13 C12 1_555 1_555
H11 C13 1_555 1_555
C14 C12 1_555 1_555
H12 C14 1_555 1_555
H13 C14 1_555 1_555
C15 O1 1_555 1_555
N1D C1D 1_555 1_555
C1D H2D 1_555 1_555
C2D C1D 1_555 1_555
H3D C2D 1_555 1_555
C3D C2D 1_555 1_555
C4D C3D 1_555 1_555
H4D C4D 1_555 1_555
C5D N1D 1_555 1_555
H5D C5D 1_555 1_555
C6D C3D 1_555 1_555
H6D C6D 1_555 1_555
C7D C6D 1_555 1_555
H7D C7D 1_555 1_555
C8D C7D 1_555 1_555
C9D C10 1_555 1_555
H8D C9D 1_555 1_555
C10D C9 1_555 1_555
H9D C10D 1_555 1_555
O1F C15F 1_555 1_555
O2F C15F 1_555 1_555
C11F C13 1_555 1_555
H10F C11F 1_555 1_555
C12F C11F 1_555 1_555
C13F C11 1_555 1_555
H11F C13F 1_555 1_555
C14F C12F 1_555 1_555
H12F C14F 1_555 1_555
H13F C14F 1_555 1_555
C15F C14F 1_555 1_555
H1A O3 1_555 1_555
Cd1D N1D 1_555 1_555
Cd1F O1F 1_555 1_555
N1A Cd1 1_555 1_555
O1A Cd1 1_555 1_555
O2A Cd1 1_555 1_555
O2 C15 1_555 1_555
C4 C5 1_555 1_555
C14 C15 1_555 1_555
C4D C5D 1_555 1_555
C8D C9D 1_555 1_555
C8D C10D 1_555 1_555
O2F Cd1F 1_555 1_555
C12F C13F 1_555 1_555

#END
