
#######################################################################
#
#                 Cambridge Crystallographic Data Centre
#                                CCDC 
#
#######################################################################
#
# If this CIF has been generated from an entry in the Cambridge 
# Structural Database, then it will include bibliographic, chemical, 
# crystal, experimental, refinement or atomic coordinate data resulting 
# from the CCDC's data processing and validation procedures.
#
#######################################################################

data_LILLEX
_symmetry_cell_setting           monoclinic
_symmetry_space_group_name_H-M   'P 21/n'
_symmetry_Int_Tables_number      14
_space_group_name_Hall           '-P 2yn'
loop_
_symmetry_equiv_pos_site_id
_symmetry_equiv_pos_as_xyz
1 x,y,z
2 1/2-x,1/2+y,1/2-z
3 -x,-y,-z
4 1/2+x,1/2-y,1/2+z
_cell_length_a                   10.305
_cell_length_b                   13.375
_cell_length_c                   12.447
_cell_angle_alpha                90
_cell_angle_beta                 107.49
_cell_angle_gamma                90
_cell_volume                     1636.25
loop_
_atom_site_label
_atom_site_type_symbol
_atom_site_fract_x
_atom_site_fract_y
_atom_site_fract_z
Cu1 Cu 0.51394(5) 0.17546(4) 0.27105(4)
O1 O 0.6619(3) 0.1007(2) 0.3796(2)
O2 O 0.4518(3) 0.2346(2) 0.3933(2)
O3 O 0.3489(3) 0.3542(2) 0.4676(2)
O4 O 0.8055(3) -0.0302(2) 0.4327(2)
N1 N 0.5711(3) 0.1305(2) 0.1438(2)
N2 N 0.3558(3) 0.2250(2) 0.1563(3)
N3 N 0.1133(4) 0.4867(3) 0.2646(4)
N4 N 0.8700(4) -0.1509(3) 0.2194(3)
C1 C 0.4910(4) 0.1781(3) 0.0386(3)
C2 C 0.3479(4) 0.1866(3) 0.0443(3)
C3 C 0.2710(4) 0.2922(3) 0.1708(3)
C4 C 0.2741(4) 0.3353(3) 0.2746(3)
C5 C 0.3646(4) 0.3036(3) 0.3791(3)
C6 C 0.7266(4) 0.0291(3) 0.3515(3)
C7 C 0.7297(4) 0.0039(3) 0.2427(3)
C8 C 0.6543(4) 0.0566(3) 0.1445(3)
C9 C 0.1844(4) 0.4189(4) 0.2725(4)
C10 C 0.8086(4) -0.0814(3) 0.2304(3)
C11 C 0.4457(5) 0.3356(4) 0.5776(4)
C12 C 0.4080(5) 0.2471(5) 0.6334(5)
C13 C 0.8074(6) -0.0119(4) 0.5473(4)
C14 C 0.8823(6) -0.0959(4) 0.6178(4)
H1 H 0.504(4) 0.149(3) -0.030(3)
H2 H 0.529(4) 0.241(3) 0.031(3)
H3 H 0.296(4) 0.220(3) -0.012(3)
H4 H 0.313(4) 0.123(3) 0.038(3)
H5 H 0.208(4) 0.315(3) 0.108(3)
H6 H 0.669(4) 0.037(3) 0.075(3)
H7 H 0.543(4) 0.337(3) 0.564(3)
H8 H 0.449(4) 0.400(3) 0.616(3)
H9 H 0.481(4) 0.222(3) 0.715(3)
H10 H 0.318(4) 0.263(3) 0.639(3)
H11 H 0.423(4) 0.179(3) 0.591(3)
H12 H 0.850(4) 0.043(3) 0.568(3)
H13 H 0.717(4) -0.016(3) 0.542(3)
H14 H 0.882(4) -0.085(3) 0.682(3)
H15 H 0.830(4) -0.159(3) 0.590(3)
H16 H 0.978(4) -0.082(3) 0.623(3)
N4A N 0.6300(4) 0.3491(3) 0.2806(3)
Cu1A Cu 0.98606(5) -0.32454(4) 0.22895(4)
loop_
_geom_bond_atom_site_label_1
_geom_bond_atom_site_label_2
_geom_bond_site_symmetry_1
_geom_bond_site_symmetry_2
Cu1 O1 1_555 1_555
O1 C6 1_555 1_555
O2 Cu1 1_555 1_555
O3 C5 1_555 1_555
O4 C6 1_555 1_555
N1 Cu1 1_555 1_555
N2 Cu1 1_555 1_555
N3 C9 1_555 1_555
N4 C10 1_555 1_555
C1 N1 1_555 1_555
C2 N2 1_555 1_555
C3 N2 1_555 1_555
C4 C3 1_555 1_555
C5 O2 1_555 1_555
C6 C7 1_555 1_555
C7 C8 1_555 1_555
C8 N1 1_555 1_555
C9 C4 1_555 1_555
C10 C7 1_555 1_555
C11 O3 1_555 1_555
C12 C11 1_555 1_555
C13 O4 1_555 1_555
C14 C13 1_555 1_555
H1 C1 1_555 1_555
H2 C1 1_555 1_555
H3 C2 1_555 1_555
H4 C2 1_555 1_555
H5 C3 1_555 1_555
H6 C8 1_555 1_555
H7 C11 1_555 1_555
H8 C11 1_555 1_555
H9 C12 1_555 1_555
H10 C12 1_555 1_555
H11 C12 1_555 1_555
H12 C13 1_555 1_555
H13 C13 1_555 1_555
H14 C14 1_555 1_555
H15 C14 1_555 1_555
H16 C14 1_555 1_555
N4A Cu1 1_555 1_555
Cu1A N4 1_555 1_555
C1 C2 1_555 1_555
C4 C5 1_555 1_555

#END
