
#######################################################################
#
#                 Cambridge Crystallographic Data Centre
#                                CCDC 
#
#######################################################################
#
# If this CIF has been generated from an entry in the Cambridge 
# Structural Database, then it will include bibliographic, chemical, 
# crystal, experimental, refinement or atomic coordinate data resulting 
# from the CCDC's data processing and validation procedures.
#
#######################################################################

data_LIMNOL
_symmetry_cell_setting           orthorhombic
_symmetry_space_group_name_H-M   'P b c a'
_symmetry_Int_Tables_number      61
_space_group_name_Hall           '-P 2ac 2ab'
loop_
_symmetry_equiv_pos_site_id
_symmetry_equiv_pos_as_xyz
1 x,y,z
2 1/2-x,-y,1/2+z
3 -x,1/2+y,1/2-z
4 1/2+x,1/2-y,-z
5 -x,-y,-z
6 1/2+x,y,1/2-z
7 x,1/2-y,1/2+z
8 1/2-x,1/2+y,z
_cell_length_a                   9.4123(8)
_cell_length_b                   9.5250(8)
_cell_length_c                   20.2034(16)
_cell_angle_alpha                90
_cell_angle_beta                 90
_cell_angle_gamma                90
_cell_volume                     1811.28
loop_
_atom_site_label
_atom_site_type_symbol
_atom_site_fract_x
_atom_site_fract_y
_atom_site_fract_z
Zn1 Zn 0.07587(4) 0.69223(4) 0.335227(18)
O1 O 0.2225(3) 0.8151(3) 0.39449(13)
O2 O 0.0381(3) 0.7173(3) 0.43844(13)
N1 N 0.3339(3) 1.1605(3) 0.70741(13)
N2 N 0.3046(3) 1.2591(3) 0.75306(13)
N3 N 0.1743(3) 1.3053(3) 0.74670(13)
N4 N 0.1161(3) 1.2365(3) 0.69552(13)
C1 C 0.1416(4) 0.7984(4) 0.44341(17)
C2 C 0.1648(4) 0.8804(3) 0.50571(16)
C3 C 0.2855(4) 0.9609(4) 0.51308(17)
H1 H 0.3557 0.9587 0.4807
C4 C 0.3026(4) 1.0449(4) 0.56839(17)
H2 H 0.3849 1.0979 0.5734
C5 C 0.1974(3) 1.0502(3) 0.61618(16)
C6 C 0.0773(4) 0.9663(4) 0.61023(17)
H3 H 0.0084 0.9667 0.6432
C7 C 0.0608(3) 0.8819(4) 0.55479(17)
H4 H -0.0198 0.8262 0.5504
C8 C 0.2155(3) 1.1478(3) 0.67267(15)
O3 O 0.0863(3) 0.4834(3) 0.32775(13)
Zn1A Zn 0.42413(4) 1.30777(4) 0.835227(18)
Zn1D Zn -0.07587(4) 1.30777(4) 0.664773(18)
N2A N 0.1954(3) 0.7409(3) 0.25306(13)
N4D N -0.1161(3) 0.7635(3) 0.30448(13)
loop_
_geom_bond_atom_site_label_1
_geom_bond_atom_site_label_2
_geom_bond_site_symmetry_1
_geom_bond_site_symmetry_2
Zn1 O1 1_555 1_555
O1 C1 1_555 1_555
O2 Zn1 1_555 1_555
N1 N2 1_555 1_555
N2 N3 1_555 1_555
N3 N4 1_555 1_555
N4 C8 1_555 1_555
C1 O2 1_555 1_555
C2 C1 1_555 1_555
C3 C2 1_555 1_555
H1 C3 1_555 1_555
C4 C3 1_555 1_555
H2 C4 1_555 1_555
C5 C4 1_555 1_555
C6 C5 1_555 1_555
H3 C6 1_555 1_555
C7 C2 1_555 1_555
H4 C7 1_555 1_555
C8 N1 1_555 1_555
O3 Zn1 1_555 1_555
Zn1A N2 1_555 1_555
Zn1D N4 1_555 1_555
N2A Zn1 1_555 1_555
N4D Zn1 1_555 1_555
C5 C8 1_555 1_555
C6 C7 1_555 1_555

#END
