
#######################################################################
#
#                 Cambridge Crystallographic Data Centre
#                                CCDC 
#
#######################################################################
#
# If this CIF has been generated from an entry in the Cambridge 
# Structural Database, then it will include bibliographic, chemical, 
# crystal, experimental, refinement or atomic coordinate data resulting 
# from the CCDC's data processing and validation procedures.
#
#######################################################################

data_LIMRUV
_symmetry_cell_setting           triclinic
_symmetry_space_group_name_H-M   'P -1'
_symmetry_Int_Tables_number      2
_space_group_name_Hall           '-P 1'
loop_
_symmetry_equiv_pos_site_id
_symmetry_equiv_pos_as_xyz
1 x,y,z
2 -x,-y,-z
_cell_length_a                   12.1547(5)
_cell_length_b                   13.4488(5)
_cell_length_c                   15.7972(7)
_cell_angle_alpha                71.850(2)
_cell_angle_beta                 71.099(2)
_cell_angle_gamma                70.895(2)
_cell_volume                     2246.7
loop_
_atom_site_label
_atom_site_type_symbol
_atom_site_fract_x
_atom_site_fract_y
_atom_site_fract_z
Co1 Co 0.0000 0.5000 0.5000
Co2 Co 1.0000 0.0000 0.0000
N1 N 0.16952(15) 0.53004(14) 0.40184(11)
C1 C 0.27341(18) 0.45271(17) 0.40002(14)
H1 H 0.2802 0.3960 0.4534
C2 C 0.37078(18) 0.45160(17) 0.32439(14)
H2 H 0.4418 0.3945 0.3254
C3 C 0.36278(18) 0.53578(16) 0.24666(14)
N2 N 0.45286(15) 0.62295(13) 0.09293(11)
C4 C 0.25818(19) 0.61935(17) 0.24984(14)
H3 H 0.2513 0.6801 0.1994
C5 C 0.16415(19) 0.61208(17) 0.32823(14)
H4 H 0.0923 0.6685 0.3294
C6 C 0.46179(18) 0.53500(16) 0.16165(14)
N3 N 0.55169(15) 0.44451(13) 0.15951(11)
C7 C 0.63432(18) 0.44668(16) 0.07929(14)
C8 C 0.72881(18) 0.34479(16) 0.06724(14)
C9 C 0.73900(19) 0.25393(16) 0.13950(14)
H5 H 0.6905 0.2569 0.1999
C10 C 0.82156(19) 0.15879(17) 0.12144(14)
H6 H 0.8290 0.0969 0.1709
N4 N 0.89146(15) 0.15048(13) 0.03698(12)
C11 C 0.88265(19) 0.23930(17) -0.03142(15)
H7 H 0.9329 0.2345 -0.0910
C12 C 0.80388(19) 0.33773(17) -0.01957(14)
H8 H 0.8011 0.3992 -0.0696
N5 N 0.63661(15) 0.53120(13) 0.00699(12)
C13 C 0.54451(18) 0.61800(16) 0.01784(14)
C14 C 0.54224(18) 0.71401(16) -0.05966(14)
C15 C 0.6316(2) 0.7127(2) -0.14078(17)
H9 H 0.6976 0.6512 -0.1469
C16 C 0.6223(2) 0.8031(2) -0.21255(18)
H10 H 0.6840 0.8013 -0.2678
N6 N 0.53264(18) 0.89279(16) -0.20975(14)
C17 C 0.4485(2) 0.89293(17) -0.13128(16)
H11 H 0.3838 0.9558 -0.1272
C18 C 0.44913(19) 0.80713(17) -0.05488(15)
H12 H 0.3869 0.8119 -0.0001
O1 O -0.08671(12) 0.65519(11) 0.45179(9)
C19 C -0.12799(17) 0.73188(16) 0.49359(13)
C20 C -0.10471(18) 0.72677(16) 0.57631(13)
H13 H -0.1394 0.7893 0.6010
C21 C -0.03409(17) 0.63664(16) 0.62585(13)
O2 O 0.02031(12) 0.54775(11) 0.60250(9)
C22 C -0.21018(18) 0.83131(16) 0.45031(14)
C23 C -0.2453(3) 0.8308(2) 0.3766(2)
H14 H -0.2155 0.7677 0.3528
C24 C -0.3232(4) 0.9199(3) 0.3355(2)
H15 H -0.3476 0.9163 0.2854
C25 C -0.3646(3) 1.0120(2) 0.3665(2)
H16 H -0.4152 1.0743 0.3370
C26 C -0.3326(4) 1.0134(3) 0.4401(3)
H17 H -0.3627 1.0768 0.4636
C27 C -0.2564(4) 0.9239(3) 0.4821(3)
H18 H -0.2357 0.9269 0.5342
C28 C -0.02445(18) 0.64348(17) 0.71620(14)
C29 C -0.0039(3) 0.5488(2) 0.78217(18)
H19 H 0.0050 0.4818 0.7693
C30 C 0.0037(4) 0.5511(3) 0.8676(2)
H20 H 0.0167 0.4857 0.9130
C31 C -0.0076(3) 0.6477(3) 0.88648(19)
H21 H -0.0026 0.6490 0.9449
C32 C -0.0258(2) 0.7414(2) 0.82118(19)
H22 H -0.0325 0.8080 0.8339
C33 C -0.0345(2) 0.74010(19) 0.73624(16)
H23 H -0.0476 0.8059 0.6913
O3 O 1.07028(13) -0.04543(11) 0.11111(10)
C34 C 1.14792(18) -0.00810(16) 0.12035(14)
C35 C 1.21275(19) 0.06021(17) 0.04962(15)
H24 H 1.2694 0.0821 0.0648
C36 C 1.20156(18) 0.09895(16) -0.04113(14)
O4 O 1.13278(12) 0.07623(11) -0.07433(10)
C37 C 1.1643(2) -0.03647(16) 0.21602(15)
C38 C 1.0735(3) -0.0687(2) 0.28961(17)
H25 H 1.0041 -0.0752 0.2786
C39 C 1.0833(3) -0.0915(3) 0.37919(19)
H26 H 1.0203 -0.1128 0.4291
C40 C 1.1846(3) -0.0835(2) 0.39616(18)
H27 H 1.1913 -0.0998 0.4576
C41 C 1.2749(3) -0.0520(2) 0.32439(18)
H28 H 1.3441 -0.0460 0.3361
C42 C 1.2659(2) -0.02860(19) 0.23419(17)
H29 H 1.3292 -0.0072 0.1847
C43 C 1.27396(19) 0.17571(18) -0.10731(15)
C44 C 1.2235(2) 0.2569(2) -0.17312(17)
H30 H 1.1441 0.2634 -0.1751
C45 C 1.2875(3) 0.3289(3) -0.23617(19)
H31 H 1.2512 0.3861 -0.2796
C46 C 1.4049(3) 0.3169(3) -0.23531(19)
H32 H 1.4495 0.3653 -0.2789
C47 C 1.4569(2) 0.2350(2) -0.1714(2)
H33 H 1.5379 0.2262 -0.1720
C48 C 1.3915(2) 0.1654(2) -0.10626(18)
H34 H 1.4268 0.1107 -0.0609
Co2_2 Co -1.0000 1.0000 1.0000
N1A N -0.16952(15) 0.46996(14) 0.59816(11)
C1A C -0.27341(18) 0.54729(17) 0.59998(14)
H1A H -0.2802 0.6040 0.5466
C2A C -0.37078(18) 0.54840(17) 0.67561(14)
H2A H -0.4418 0.6055 0.6746
C3A C -0.36278(18) 0.46422(16) 0.75334(14)
N2A N -0.45286(15) 0.37705(13) 0.90707(11)
C4A C -0.25818(19) 0.38065(17) 0.75016(14)
H3A H -0.2513 0.3199 0.8006
C5A C -0.16415(19) 0.38792(17) 0.67177(14)
H4A H -0.0923 0.3315 0.6706
C6A C -0.46179(18) 0.46500(16) 0.83835(14)
N3A N -0.55169(15) 0.55549(13) 0.84049(11)
C7A C -0.63432(18) 0.55332(16) 0.92071(14)
C8A C -0.72881(18) 0.65521(16) 0.93276(14)
C9A C -0.73900(19) 0.74607(16) 0.86050(14)
H5A H -0.6905 0.7431 0.8001
C10A C -0.82156(19) 0.84121(17) 0.87856(14)
H6A H -0.8290 0.9031 0.8291
N4A N -0.89146(15) 0.84952(13) 0.96302(12)
N4A_2 N 1.10854(15) -0.15048(13) -0.03698(12)
C11A C -0.88265(19) 0.76070(17) 1.03142(15)
H7A H -0.9329 0.7655 1.0910
C12A C -0.80388(19) 0.66227(17) 1.01957(14)
H8A H -0.8011 0.6008 1.0696
N5A N -0.63661(15) 0.46880(13) 0.99301(12)
C13A C -0.54451(18) 0.38200(16) 0.98216(14)
C14A C -0.54224(18) 0.28599(16) 1.05966(14)
C15A C -0.6316(2) 0.2873(2) 1.14078(17)
H9A H -0.6976 0.3488 1.1469
C16A C -0.6223(2) 0.1969(2) 1.21255(18)
H10A H -0.6840 0.1987 1.2678
N6A N -0.53264(18) 0.10721(16) 1.20975(14)
C17A C -0.4485(2) 0.10707(17) 1.13128(16)
H11A H -0.3838 0.0442 1.1272
C18A C -0.44913(19) 0.19287(17) 1.05488(15)
H12A H -0.3869 0.1881 1.0001
O1A O 0.08671(12) 0.34481(11) 0.54821(9)
C19A C 0.12799(17) 0.26812(16) 0.50641(13)
C20A C 0.10471(18) 0.27323(16) 0.42369(13)
H13A H 0.1394 0.2107 0.3990
C21A C 0.03409(17) 0.36336(16) 0.37415(13)
O2A O -0.02031(12) 0.45225(11) 0.39750(9)
C22A C 0.21018(18) 0.16869(16) 0.54969(14)
C23A C 0.2453(3) 0.1692(2) 0.6234(2)
H14A H 0.2155 0.2323 0.6472
C24A C 0.3232(4) 0.0801(3) 0.6645(2)
H15A H 0.3476 0.0837 0.7146
C25A C 0.3646(3) -0.0120(2) 0.6335(2)
H16A H 0.4152 -0.0743 0.6630
C26A C 0.3326(4) -0.0134(3) 0.5599(3)
H17A H 0.3627 -0.0768 0.5364
C27A C 0.2564(4) 0.0761(3) 0.5179(3)
H18A H 0.2357 0.0731 0.4658
C28A C 0.02445(18) 0.35652(17) 0.28380(14)
C29A C 0.0039(3) 0.4512(2) 0.21783(18)
H19A H -0.0050 0.5182 0.2307
C30A C -0.0037(4) 0.4489(3) 0.1324(2)
H20A H -0.0167 0.5143 0.0870
C31A C 0.0076(3) 0.3523(3) 0.11352(19)
H21A H 0.0026 0.3510 0.0551
C32A C 0.0258(2) 0.2586(2) 0.17882(19)
H22A H 0.0325 0.1920 0.1661
C33A C 0.0345(2) 0.25990(19) 0.26376(16)
H23A H 0.0476 0.1941 0.3087
O3A O 0.92972(13) 0.04543(11) -0.11111(10)
C34A C 0.85208(18) 0.00810(16) -0.12035(14)
C35A C 0.78725(19) -0.06021(17) -0.04962(15)
H24A H 0.7306 -0.0821 -0.0648
C36A C 0.79844(18) -0.09895(16) 0.04113(14)
O4A O 0.86722(12) -0.07623(11) 0.07433(10)
C37A C 0.8357(2) 0.03647(16) -0.21602(15)
C38A C 0.9265(3) 0.0687(2) -0.28961(17)
H25A H 0.9959 0.0752 -0.2786
C39A C 0.9167(3) 0.0915(3) -0.37919(19)
H26A H 0.9797 0.1128 -0.4291
C40A C 0.8154(3) 0.0835(2) -0.39616(18)
H27A H 0.8087 0.0998 -0.4576
C41A C 0.7251(3) 0.0520(2) -0.32439(18)
H28A H 0.6559 0.0460 -0.3361
C42A C 0.7341(2) 0.02860(19) -0.23419(17)
H29A H 0.6708 0.0072 -0.1847
C43A C 0.72604(19) -0.17571(18) 0.10731(15)
C44A C 0.7765(2) -0.2569(2) 0.17312(17)
H30A H 0.8559 -0.2634 0.1751
C45A C 0.7125(3) -0.3289(3) 0.23617(19)
H31A H 0.7488 -0.3861 0.2796
C46A C 0.5951(3) -0.3169(3) 0.23531(19)
H32A H 0.5505 -0.3653 0.2789
C47A C 0.5431(2) -0.2350(2) 0.1714(2)
H33A H 0.4621 -0.2262 0.1720
C48A C 0.6085(2) -0.1654(2) 0.10626(18)
H34A H 0.5732 -0.1107 0.0609
O5 O 0.5995(2) 0.2955(2) 0.41844(18)
C49 C 0.6955(4) 0.3438(4) 0.3771(3)
H35 H 0.6786 0.4017 0.3227
H36 H 0.7694 0.2894 0.3563
C50 C 0.7127(5) 0.3879(5) 0.4407(3)
H37 H 0.6989 0.4674 0.4185
H38 H 0.7962 0.3576 0.4475
C51 C 0.6272(3) 0.3612(3) 0.5305(2)
H39 H 0.5773 0.4275 0.5522
H40 H 0.6701 0.3122 0.5775
C52 C 0.5517(3) 0.3065(3) 0.5109(2)
H41 H 0.5534 0.2345 0.5534
H42 H 0.4674 0.3502 0.5196
loop_
_geom_bond_atom_site_label_1
_geom_bond_atom_site_label_2
_geom_bond_site_symmetry_1
_geom_bond_site_symmetry_2
Co1 N1 1_555 1_555
Co2 N4 1_555 1_555
N1 C1 1_555 1_555
C1 H1 1_555 1_555
C2 C1 1_555 1_555
H2 C2 1_555 1_555
C3 C2 1_555 1_555
N2 C6 1_555 1_555
C4 C3 1_555 1_555
H3 C4 1_555 1_555
C5 N1 1_555 1_555
H4 C5 1_555 1_555
C6 C3 1_555 1_555
N3 C6 1_555 1_555
C7 N3 1_555 1_555
C8 C7 1_555 1_555
C9 C8 1_555 1_555
H5 C9 1_555 1_555
C10 C9 1_555 1_555
H6 C10 1_555 1_555
N4 C10 1_555 1_555
C11 N4 1_555 1_555
H7 C11 1_555 1_555
C12 C8 1_555 1_555
H8 C12 1_555 1_555
N5 C7 1_555 1_555
C13 N2 1_555 1_555
C14 C13 1_555 1_555
C15 C14 1_555 1_555
H9 C15 1_555 1_555
C16 C15 1_555 1_555
H10 C16 1_555 1_555
N6 C16 1_555 1_555
C17 N6 1_555 1_555
H11 C17 1_555 1_555
C18 C14 1_555 1_555
H12 C18 1_555 1_555
O1 Co1 1_555 1_555
C19 O1 1_555 1_555
C20 C19 1_555 1_555
H13 C20 1_555 1_555
C21 C20 1_555 1_555
O2 Co1 1_555 1_555
C22 C19 1_555 1_555
C23 C22 1_555 1_555
H14 C23 1_555 1_555
C24 C23 1_555 1_555
H15 C24 1_555 1_555
C25 C24 1_555 1_555
H16 C25 1_555 1_555
C26 C25 1_555 1_555
H17 C26 1_555 1_555
C27 C22 1_555 1_555
H18 C27 1_555 1_555
C28 C21 1_555 1_555
C29 C28 1_555 1_555
H19 C29 1_555 1_555
C30 C29 1_555 1_555
H20 C30 1_555 1_555
C31 C30 1_555 1_555
H21 C31 1_555 1_555
C32 C31 1_555 1_555
H22 C32 1_555 1_555
C33 C28 1_555 1_555
H23 C33 1_555 1_555
O3 Co2 1_555 1_555
C34 O3 1_555 1_555
C35 C34 1_555 1_555
H24 C35 1_555 1_555
C36 C35 1_555 1_555
O4 Co2 1_555 1_555
C37 C34 1_555 1_555
C38 C37 1_555 1_555
H25 C38 1_555 1_555
C39 C38 1_555 1_555
H26 C39 1_555 1_555
C40 C39 1_555 1_555
H27 C40 1_555 1_555
C41 C40 1_555 1_555
H28 C41 1_555 1_555
C42 C37 1_555 1_555
H29 C42 1_555 1_555
C43 C36 1_555 1_555
C44 C43 1_555 1_555
H30 C44 1_555 1_555
C45 C44 1_555 1_555
H31 C45 1_555 1_555
C46 C45 1_555 1_555
H32 C46 1_555 1_555
C47 C46 1_555 1_555
H33 C47 1_555 1_555
C48 C43 1_555 1_555
H34 C48 1_555 1_555
O5 C49 1_555 1_555
C49 H35 1_555 1_555
H36 C49 1_555 1_555
C50 C49 1_555 1_555
H37 C50 1_555 1_555
H38 C50 1_555 1_555
C51 C50 1_555 1_555
H39 C51 1_555 1_555
H40 C51 1_555 1_555
C52 O5 1_555 1_555
H41 C52 1_555 1_555
H42 C52 1_555 1_555
Co2_2 N4A 1_555 1_555
N1A Co1 1_555 1_555
C1A N1A 1_555 1_555
H1A C1A 1_555 1_555
C2A C1A 1_555 1_555
H2A C2A 1_555 1_555
C3A C2A 1_555 1_555
N2A C6A 1_555 1_555
C4A C3A 1_555 1_555
H3A C4A 1_555 1_555
C5A N1A 1_555 1_555
H4A C5A 1_555 1_555
C6A C3A 1_555 1_555
N3A C6A 1_555 1_555
C7A N3A 1_555 1_555
C8A C7A 1_555 1_555
C9A C8A 1_555 1_555
H5A C9A 1_555 1_555
C10A C9A 1_555 1_555
H6A C10A 1_555 1_555
N4A C10A 1_555 1_555
N4A_2 Co2 1_555 1_555
C11A N4A 1_555 1_555
H7A C11A 1_555 1_555
C12A C8A 1_555 1_555
H8A C12A 1_555 1_555
N5A C7A 1_555 1_555
C13A N2A 1_555 1_555
C14A C13A 1_555 1_555
C15A C14A 1_555 1_555
H9A C15A 1_555 1_555
C16A C15A 1_555 1_555
H10A C16A 1_555 1_555
N6A C16A 1_555 1_555
C17A N6A 1_555 1_555
H11A C17A 1_555 1_555
C18A C14A 1_555 1_555
H12A C18A 1_555 1_555
O1A Co1 1_555 1_555
C19A O1A 1_555 1_555
C20A C19A 1_555 1_555
H13A C20A 1_555 1_555
C21A C20A 1_555 1_555
O2A Co1 1_555 1_555
C22A C19A 1_555 1_555
C23A C22A 1_555 1_555
H14A C23A 1_555 1_555
C24A C23A 1_555 1_555
H15A C24A 1_555 1_555
C25A C24A 1_555 1_555
H16A C25A 1_555 1_555
C26A C25A 1_555 1_555
H17A C26A 1_555 1_555
C27A C22A 1_555 1_555
H18A C27A 1_555 1_555
C28A C21A 1_555 1_555
C29A C28A 1_555 1_555
H19A C29A 1_555 1_555
C30A C29A 1_555 1_555
H20A C30A 1_555 1_555
C31A C30A 1_555 1_555
H21A C31A 1_555 1_555
C32A C31A 1_555 1_555
H22A C32A 1_555 1_555
C33A C28A 1_555 1_555
H23A C33A 1_555 1_555
O3A Co2 1_555 1_555
C34A O3A 1_555 1_555
C35A C34A 1_555 1_555
H24A C35A 1_555 1_555
C36A C35A 1_555 1_555
O4A Co2 1_555 1_555
C37A C34A 1_555 1_555
C38A C37A 1_555 1_555
H25A C38A 1_555 1_555
C39A C38A 1_555 1_555
H26A C39A 1_555 1_555
C40A C39A 1_555 1_555
H27A C40A 1_555 1_555
C41A C40A 1_555 1_555
H28A C41A 1_555 1_555
C42A C37A 1_555 1_555
H29A C42A 1_555 1_555
C43A C36A 1_555 1_555
C44A C43A 1_555 1_555
H30A C44A 1_555 1_555
C45A C44A 1_555 1_555
H31A C45A 1_555 1_555
C46A C45A 1_555 1_555
H32A C46A 1_555 1_555
C47A C46A 1_555 1_555
H33A C47A 1_555 1_555
C48A C43A 1_555 1_555
H34A C48A 1_555 1_555
C4 C5 1_555 1_555
C11 C12 1_555 1_555
N5 C13 1_555 1_555
C17 C18 1_555 1_555
C21 O2 1_555 1_555
C26 C27 1_555 1_555
C32 C33 1_555 1_555
C36 O4 1_555 1_555
C41 C42 1_555 1_555
C47 C48 1_555 1_555
C51 C52 1_555 1_555
C4A C5A 1_555 1_555
C11A C12A 1_555 1_555
N5A C13A 1_555 1_555
C17A C18A 1_555 1_555
C21A O2A 1_555 1_555
C26A C27A 1_555 1_555
C32A C33A 1_555 1_555
C36A O4A 1_555 1_555
C41A C42A 1_555 1_555
C47A C48A 1_555 1_555

#END
