
#######################################################################
#
#                 Cambridge Crystallographic Data Centre
#                                CCDC 
#
#######################################################################
#
# If this CIF has been generated from an entry in the Cambridge 
# Structural Database, then it will include bibliographic, chemical, 
# crystal, experimental, refinement or atomic coordinate data resulting 
# from the CCDC's data processing and validation procedures.
#
#######################################################################

data_LINGEU
_symmetry_cell_setting           rhombohedral
_symmetry_space_group_name_H-M   'R 3'
_symmetry_Int_Tables_number      146
_space_group_name_Hall           'R 3'
loop_
_symmetry_equiv_pos_site_id
_symmetry_equiv_pos_as_xyz
1 x,y,z
2 -y,x-y,z
3 -x+y,-x,z
4 1/3+x,2/3+y,2/3+z
5 1/3-y,2/3+x-y,2/3+z
6 1/3-x+y,2/3-x,2/3+z
7 2/3+x,1/3+y,1/3+z
8 2/3-y,1/3+x-y,1/3+z
9 2/3-x+y,1/3-x,1/3+z
_cell_length_a                   13.9832(13)
_cell_length_b                   13.9832(13)
_cell_length_c                   17.715(2)
_cell_angle_alpha                90
_cell_angle_beta                 90
_cell_angle_gamma                120
_cell_volume                     2999.75
loop_
_atom_site_label
_atom_site_type_symbol
_atom_site_fract_x
_atom_site_fract_y
_atom_site_fract_z
Mn1 Mn 0.6667 0.3333 1.3334(2)
N1 N 0.6194(6) 0.4362(6) 1.2606(3)
C1 C 0.6492(9) 0.4674(8) 1.1896(5)
N2 N 0.5978(7) 0.5220(8) 1.1618(4)
C2 C 0.5300(11) 0.5242(10) 1.2202(6)
C3 C 0.5465(10) 0.4699(9) 1.2792(5)
C4 C 0.5984(11) 0.5611(10) 1.0872(6)
C5 C 0.4967(10) 0.4805(11) 1.0408(6)
C6 C 0.5033(11) 0.5170(11) 0.9591(6)
C7 C 0.3964(12) 0.4453(10) 0.9202(6)
N3 N 0.4051(9) 0.4804(8) 0.8388(5)
C8 C 0.3520(9) 0.5275(8) 0.8121(4)
N4 N 0.7106(9) 0.2261(8) 1.4084(5)
C9 C 0.7860(8) 0.1925(9) 1.3900(6)
C10 C 0.4662(10) 0.4768(10) 0.7837(6)
H1 H 0.6982(9) 0.4541(8) 1.1624(5)
H2 H 0.4846(11) 0.5551(10) 1.2191(6)
H3 H 0.5121(10) 0.4578(9) 1.3260(5)
H4 H 0.6646(11) 0.5729(10) 1.0614(6)
H5 H 0.6010(11) 0.6316(10) 1.0903(6)
H6 H 0.4900(10) 0.4080(11) 1.0419(6)
H7 H 0.4310(10) 0.4743(11) 1.0639(6)
H8 H 0.5201(11) 0.5932(11) 0.9575(6)
H9 H 0.5621(11) 0.5124(11) 0.9333(6)
H10 H 0.3379(12) 0.4515(10) 0.9450(6)
H11 H 0.3786(12) 0.3689(10) 0.9228(6)
H12 H 0.3014(9) 0.5374(8) 0.8401(4)
H13 H 0.8210(8) 0.2024(9) 1.3437(6)
H14 H 0.5112(10) 0.4455(10) 0.7864(6)
N1A N 0.5638(6) 0.1832(8) 1.2606(3)
N1B N 0.8168(8) 0.3806(6) 1.2606(3)
N4A N 0.7739(8) 0.4845(12) 1.4084(5)
N4B N 0.5155(12) 0.2894(9) 1.4084(5)
N4F N 0.3773(9) 0.5594(8) 0.7417(5)
C8C C 0.6853(9) 0.1942(8) 1.4788(4)
C10C C 0.7995(10) 0.1435(10) 1.4504(6)
C9F C 0.4527(8) 0.5258(9) 0.7233(6)
C1A C 0.5326(8) 0.1818(12) 1.1896(5)
C3A C 0.5301(9) 0.0766(13) 1.2792(5)
Mn1F Mn 0.3334 0.6666 0.6667(2)
N3C N 0.7384(9) 0.1471(8) 1.5055(5)
H12C H 0.6347(9) 0.2041(8) 1.5068(4)
H14C H 0.8445(10) 0.1122(10) 1.4531(6)
H13F H 0.4877(8) 0.5357(9) 0.6770(6)
N2A N 0.4780(8) 0.0758(11) 1.1618(4)
H1A H 0.5459(8) 0.2441(12) 1.1624(5)
C2A C 0.4758(10) 0.0058(15) 1.2202(6)
H3A H 0.5422(9) 0.0543(13) 1.3260(5)
C7C C 0.7297(12) 0.1120(10) 1.5869(6)
C4A C 0.4389(10) 0.0373(15) 1.0872(6)
H2A H 0.4449(10) -0.0705(15) 1.2191(6)
C6C C 0.8366(11) 0.1837(11) 1.6258(6)
H10C H 0.6712(12) 0.1182(10) 1.6117(6)
H11C H 0.7119(12) 0.0356(10) 1.5895(6)
C5A C 0.5195(11) 0.0162(15) 1.0408(6)
H4A H 0.4271(10) 0.0917(15) 1.0614(6)
H5A H 0.3684(10) -0.0306(15) 1.0903(6)
C5C C 0.8300(10) 0.1472(11) 1.7075(6)
H8C H 0.8534(11) 0.2599(11) 1.6242(6)
H9C H 0.8954(11) 0.1791(11) 1.6000(6)
C6A C 0.4830(11) -0.0137(16) 0.9591(6)
H6A H 0.5920(11) 0.0820(15) 1.0419(6)
H7A H 0.5257(11) -0.0433(15) 1.0639(6)
C4C C 0.9317(11) 0.2278(10) 1.7539(6)
H6C H 0.8233(10) 0.0747(11) 1.7086(6)
H7C H 0.7643(10) 0.1410(11) 1.7306(6)
C7A C 0.5547(10) -0.0489(16) 0.9202(6)
H8A H 0.4068(11) -0.0731(16) 0.9575(6)
H9A H 0.4876(11) 0.0497(16) 0.9333(6)
N2C N 0.9311(7) 0.1887(8) 1.8285(4)
H4C H 0.9979(11) 0.2396(10) 1.7281(6)
H5C H 0.9343(11) 0.2983(10) 1.7570(6)
N3A N 0.5196(8) -0.0753(12) 0.8388(5)
H10A H 0.5485(10) -0.1136(16) 0.9450(6)
H11A H 0.6311(10) 0.0097(16) 0.9228(6)
C1C C 0.9825(9) 0.1341(8) 1.8563(5)
C2C C 0.8633(11) 0.1909(10) 1.8869(6)
C8A C 0.4725(8) -0.1755(12) 0.8121(4)
C10A C 0.5232(10) -0.0106(14) 0.7837(6)
N1C N 0.9527(6) 0.1029(6) 1.9273(3)
H1C H 1.0315(9) 0.1208(8) 1.8291(5)
C3C C 0.8798(10) 0.1366(9) 1.9459(5)
H2C H 0.8179(11) 0.2218(10) 1.8858(6)
N4G N 0.4406(8) -0.1822(12) 0.7417(5)
H12A H 0.4626(8) -0.2360(12) 0.8401(4)
C9G C 0.4742(9) -0.0732(12) 0.7233(6)
H14A H 0.5545(10) 0.0657(14) 0.7864(6)
Mn1C Mn 1.0000 -0.0000 2.0001(2)
H3C H 0.8454(10) 0.1245(9) 1.9927(5)
Mn1F_2 Mn 0.3334 -0.3334 0.6667(2)
H13G H 0.4643(9) -0.0481(12) 0.6770(6)
P1 P 0.6667 0.3333 0.9629(7)
F1 F 0.7183(8) 0.4373(6) 1.0159(5)
F2 F 0.7708(7) 0.3862(11) 0.9143(6)
F1A F 0.5627(6) 0.2810(10) 1.0159(5)
F1B F 0.7190(10) 0.2817(8) 1.0159(5)
F2A F 0.6138(11) 0.3846(13) 0.9143(6)
F2B F 0.6154(13) 0.2292(7) 0.9143(6)
Cl2 Cl 0.3333 0.6667 1.0321(3)
O3 O 0.3333 0.6667 0.9561(7)
O4 O 0.4359(7) 0.6975(16) 1.0560(8)
O4A O 0.3025(16) 0.7384(17) 1.0560(8)
O4B O 0.2616(17) 0.5641(7) 1.0560(8)
Cl1? Cl 0.6667 0.3333 0.9738(8)
O1? O 0.6667 0.3333 1.0477(7)
O2? O 0.7267(12) 0.4384(6) 0.9456(7)
loop_
_geom_bond_atom_site_label_1
_geom_bond_atom_site_label_2
_geom_bond_site_symmetry_1
_geom_bond_site_symmetry_2
Mn1 N1 1_555 1_555
N1 C1 1_555 1_555
C1 N2 1_555 1_555
N2 C2 1_555 1_555
C2 C3 1_555 1_555
C3 N1 1_555 1_555
C4 N2 1_555 1_555
C5 C4 1_555 1_555
C6 C5 1_555 1_555
C7 C6 1_555 1_555
N3 C7 1_555 1_555
C8 N3 1_555 1_555
N4 Mn1 1_555 1_555
C9 N4 1_555 1_555
C10 N3 1_555 1_555
P1 F1 1_555 1_555
F2 P1 1_555 1_555
Cl2 O3 1_555 1_555
O4 Cl2 1_555 1_555
H1 C1 1_555 1_555
H2 C2 1_555 1_555
H3 C3 1_555 1_555
H4 C4 1_555 1_555
H5 C4 1_555 1_555
H6 C5 1_555 1_555
H7 C5 1_555 1_555
H8 C6 1_555 1_555
H9 C6 1_555 1_555
H10 C7 1_555 1_555
H11 C7 1_555 1_555
H12 C8 1_555 1_555
H13 C9 1_555 1_555
H14 C10 1_555 1_555
N1A Mn1 1_555 1_555
N1B Mn1 1_555 1_555
N4A Mn1 1_555 1_555
N4B Mn1 1_555 1_555
N4F C8 1_555 1_555
C8C N4 1_555 1_555
C10C C9 1_555 1_555
C9F C10 1_555 1_555
F1A P1 1_555 1_555
F1B P1 1_555 1_555
F2A P1 1_555 1_555
F2B P1 1_555 1_555
O4A Cl2 1_555 1_555
O4B Cl2 1_555 1_555
C1A N1A 1_555 1_555
C3A N1A 1_555 1_555
Mn1F N4F 1_555 1_555
N3C C8C 1_555 1_555
H12C C8C 1_555 1_555
H14C C10C 1_555 1_555
H13F C9F 1_555 1_555
N2A C1A 1_555 1_555
H1A C1A 1_555 1_555
C2A C3A 1_555 1_555
H3A C3A 1_555 1_555
C7C N3C 1_555 1_555
C4A N2A 1_555 1_555
H2A C2A 1_555 1_555
C6C C7C 1_555 1_555
H10C C7C 1_555 1_555
H11C C7C 1_555 1_555
C5A C4A 1_555 1_555
H4A C4A 1_555 1_555
H5A C4A 1_555 1_555
C5C C6C 1_555 1_555
H8C C6C 1_555 1_555
H9C C6C 1_555 1_555
C6A C5A 1_555 1_555
H6A C5A 1_555 1_555
H7A C5A 1_555 1_555
C4C C5C 1_555 1_555
H6C C5C 1_555 1_555
H7C C5C 1_555 1_555
C7A C6A 1_555 1_555
H8A C6A 1_555 1_555
H9A C6A 1_555 1_555
N2C C4C 1_555 1_555
H4C C4C 1_555 1_555
H5C C4C 1_555 1_555
N3A C7A 1_555 1_555
H10A C7A 1_555 1_555
H11A C7A 1_555 1_555
C1C N2C 1_555 1_555
C2C N2C 1_555 1_555
C8A N3A 1_555 1_555
C10A N3A 1_555 1_555
N1C C1C 1_555 1_555
H1C C1C 1_555 1_555
C3C C2C 1_555 1_555
H2C C2C 1_555 1_555
N4G C8A 1_555 1_555
H12A C8A 1_555 1_555
C9G C10A 1_555 1_555
H14A C10A 1_555 1_555
Mn1C N1C 1_555 1_555
H3C C3C 1_555 1_555
Mn1F_2 N4G 1_555 1_555
H13G C9G 1_555 1_555
N4F C9F 1_555 1_555
C10C N3C 1_555 1_555
N2A C2A 1_555 1_555
N1C C3C 1_555 1_555
N4G C9G 1_555 1_555

#END
