
#######################################################################
#
#                 Cambridge Crystallographic Data Centre
#                                CCDC 
#
#######################################################################
#
# If this CIF has been generated from an entry in the Cambridge 
# Structural Database, then it will include bibliographic, chemical, 
# crystal, experimental, refinement or atomic coordinate data resulting 
# from the CCDC's data processing and validation procedures.
#
#######################################################################

data_LINJEY
_symmetry_cell_setting           orthorhombic
_symmetry_space_group_name_H-M   'I b a 2'
_symmetry_Int_Tables_number      45
_space_group_name_Hall           'I 2 -2c'
loop_
_symmetry_equiv_pos_site_id
_symmetry_equiv_pos_as_xyz
1 x,y,z
2 -x,-y,z
3 1/2+x,1/2-y,z
4 1/2-x,1/2+y,z
5 1/2+x,1/2+y,1/2+z
6 1/2-x,1/2-y,1/2+z
7 x,-y,1/2+z
8 -x,y,1/2+z
_cell_length_a                   14.652(3)
_cell_length_b                   15.095(3)
_cell_length_c                   6.9642(14)
_cell_angle_alpha                90
_cell_angle_beta                 90
_cell_angle_gamma                90
_cell_volume                     1540.29
loop_
_atom_site_label
_atom_site_type_symbol
_atom_site_fract_x
_atom_site_fract_y
_atom_site_fract_z
Tl1 Tl 0.890037(19) -0.09019(2) 0.5373(2)
O1 O 0.8162(5) 0.0700(5) 0.4136(13)
O2 O 0.9269(5) 0.0748(4) 0.6325(12)
N1 N 0.8724(6) 0.4892(6) 0.4794(19)
H1 H 0.8380 0.5161 0.3981
H2 H 0.9072 0.5192 0.5546
C1 C 0.8705(6) 0.1122(7) 0.520(5)
C2 C 0.8712(4) 0.2128(3) 0.5064(9)
C3 C 0.9276(4) 0.2611(4) 0.6280(8)
H3 H 0.9651 0.2319 0.7150
C4 C 0.9278(4) 0.3531(4) 0.6195(9)
H4 H 0.9655 0.3855 0.7009
C5 C 0.8716(4) 0.3968(3) 0.4894(10)
C6 C 0.8153(4) 0.3485(4) 0.3678(9)
H5 H 0.7777 0.3777 0.2808
C7 C 0.8150(4) 0.2565(4) 0.3763(8)
H6 H 0.7773 0.2242 0.2949
Tl1F Tl 0.890037(19) 0.09019(2) 0.0373(2)
Tl1A Tl 1.109963(19) 0.09019(2) 0.5373(2)
Tl1F_2 Tl 0.890037(19) 0.09019(2) 1.0373(2)
O1F O 0.8162(5) -0.0700(5) 0.9136(13)
O2A O 1.0731(5) -0.0748(4) 0.6325(12)
O2F O 0.9269(5) -0.0748(4) 0.1325(12)
loop_
_geom_bond_atom_site_label_1
_geom_bond_atom_site_label_2
_geom_bond_site_symmetry_1
_geom_bond_site_symmetry_2
Tl1 O1 1_555 1_555
O1 C1 1_555 1_555
O2 Tl1 1_555 1_555
N1 H1 1_555 1_555
H2 N1 1_555 1_555
C1 O2 1_555 1_555
C2 C1 1_555 1_555
C3 C2 1_555 1_555
H3 C3 1_555 1_555
C4 C3 1_555 1_555
H4 C4 1_555 1_555
C5 N1 1_555 1_555
C6 C5 1_555 1_555
H5 C6 1_555 1_555
C7 C2 1_555 1_555
H6 C7 1_555 1_555
Tl1F O1 1_555 1_555
Tl1A O2 1_555 1_555
Tl1F_2 O2 1_555 1_555
O1F Tl1 1_555 1_555
O2A Tl1 1_555 1_555
O2F Tl1 1_555 1_555
C4 C5 1_555 1_555
C6 C7 1_555 1_555
Tl1F O2F 1_555 1_555
Tl1A O2A 1_555 1_555
Tl1F_2 O1F 1_555 1_555

#END
