
#######################################################################
#
#                 Cambridge Crystallographic Data Centre
#                                CCDC 
#
#######################################################################
#
# If this CIF has been generated from an entry in the Cambridge 
# Structural Database, then it will include bibliographic, chemical, 
# crystal, experimental, refinement or atomic coordinate data resulting 
# from the CCDC's data processing and validation procedures.
#
#######################################################################

data_LINJIC
_symmetry_cell_setting           orthorhombic
_symmetry_space_group_name_H-M   'P b c a'
_symmetry_Int_Tables_number      61
_space_group_name_Hall           '-P 2ac 2ab'
loop_
_symmetry_equiv_pos_site_id
_symmetry_equiv_pos_as_xyz
1 x,y,z
2 1/2-x,-y,1/2+z
3 -x,1/2+y,1/2-z
4 1/2+x,1/2-y,-z
5 -x,-y,-z
6 1/2+x,y,1/2-z
7 x,1/2-y,1/2+z
8 1/2-x,1/2+y,z
_cell_length_a                   10.7085(13)
_cell_length_b                   10.3621(13)
_cell_length_c                   12.7184(16)
_cell_angle_alpha                90
_cell_angle_beta                 90
_cell_angle_gamma                90
_cell_volume                     1411.27
loop_
_atom_site_label
_atom_site_type_symbol
_atom_site_fract_x
_atom_site_fract_y
_atom_site_fract_z
Tl1 Tl 0.37670(2) 0.09982(2) 0.600037(17)
O1 O 0.5254(4) 0.1432(4) 0.4468(3)
O2 O 0.4223(3) 0.3235(4) 0.4812(3)
O3 O 0.7560(4) 0.4948(4) 0.0898(3)
H1 H 0.8050 0.4434 0.0633
C1 C 0.4992(5) 0.2598(5) 0.4276(4)
C2 C 0.5626(5) 0.3216(5) 0.3363(4)
C3 C 0.5679(4) 0.4568(5) 0.3262(4)
H2 H 0.5278 0.5088 0.3753
C4 C 0.6324(4) 0.5128(6) 0.2436(4)
H3 H 0.6364 0.6022 0.2382
C5 C 0.6916(5) 0.4357(5) 0.1679(4)
C6 C 0.6818(5) 0.3018(5) 0.1747(4)
H4 H 0.7170 0.2499 0.1229
C7 C 0.6196(4) 0.2463(6) 0.2587(4)
H5 H 0.6156 0.1568 0.2637
Tl1D Tl 0.62330(2) -0.09982(2) 0.399963(17)
Tl1B Tl 0.62330(2) 0.59982(2) -0.100037(17)
O1D O 0.4746(4) -0.1432(4) 0.5532(3)
O3B O 0.2440(4) -0.0052(4) 0.4102(3)
H1B H 0.1950 -0.0566 0.4367
loop_
_geom_bond_atom_site_label_1
_geom_bond_atom_site_label_2
_geom_bond_site_symmetry_1
_geom_bond_site_symmetry_2
Tl1 O1 1_555 1_555
O1 C1 1_555 1_555
O2 Tl1 1_555 1_555
O3 H1 1_555 1_555
C1 O2 1_555 1_555
C2 C1 1_555 1_555
C3 C2 1_555 1_555
H2 C3 1_555 1_555
C4 C3 1_555 1_555
H3 C4 1_555 1_555
C5 O3 1_555 1_555
C6 C5 1_555 1_555
H4 C6 1_555 1_555
C7 C2 1_555 1_555
H5 C7 1_555 1_555
Tl1D O1 1_555 1_555
Tl1B O3 1_555 1_555
O1D Tl1 1_555 1_555
O3B Tl1 1_555 1_555
H1B O3B 1_555 1_555
C4 C5 1_555 1_555
C6 C7 1_555 1_555
Tl1D O1D 1_555 1_555

#END
