
#######################################################################
#
#                 Cambridge Crystallographic Data Centre
#                                CCDC 
#
#######################################################################
#
# If this CIF has been generated from an entry in the Cambridge 
# Structural Database, then it will include bibliographic, chemical, 
# crystal, experimental, refinement or atomic coordinate data resulting 
# from the CCDC's data processing and validation procedures.
#
#######################################################################

data_LINJEX
_symmetry_cell_setting           rhombohedral
_symmetry_space_group_name_H-M   'R 3'
_symmetry_Int_Tables_number      146
_space_group_name_Hall           'R 3'
loop_
_symmetry_equiv_pos_site_id
_symmetry_equiv_pos_as_xyz
1 x,y,z
2 -y,x-y,z
3 -x+y,-x,z
4 1/3+x,2/3+y,2/3+z
5 1/3-y,2/3+x-y,2/3+z
6 1/3-x+y,2/3-x,2/3+z
7 2/3+x,1/3+y,1/3+z
8 2/3-y,1/3+x-y,1/3+z
9 2/3-x+y,1/3-x,1/3+z
_cell_length_a                   14.010(3)
_cell_length_b                   14.010(3)
_cell_length_c                   17.711(2)
_cell_angle_alpha                90
_cell_angle_beta                 90
_cell_angle_gamma                120
_cell_volume                     3010.58
loop_
_atom_site_label
_atom_site_type_symbol
_atom_site_fract_x
_atom_site_fract_y
_atom_site_fract_z
Mn1 Mn 1.0000 0.0000 0.6332(4)
N1 N 0.8508(10) -0.0485(10) 0.7051(6)
C1 C 0.8460(9) -0.0205(11) 0.7772(7)
N2 N 0.7429(12) -0.0694(11) 0.8018(7)
C2 C 0.6736(12) -0.1359(14) 0.7511(8)
C3 C 0.7457(12) -0.1192(13) 0.6898(7)
C4 C 0.7115(12) -0.0661(10) 0.8824(8)
C5 C 0.6807(15) -0.1709(15) 0.9245(8)
C6 C 0.6509(14) -0.1632(11) 1.0065(9)
C7 C 0.6269(16) -0.2653(16) 1.0490(9)
N3 N 0.5906(7) -0.2620(7) 1.1262(6)
C8 C 0.4870(12) -0.3167(11) 1.1551(7)
N4 N 1.1513(9) 0.0431(11) 0.5579(7)
C9 C 1.2607(9) 0.1195(11) 0.5791(8)
C10 C 0.6565(12) -0.1983(11) 1.1880(9)
H1 H 0.9071(9) 0.0270(11) 0.8060(7)
H2 H 0.5976(12) -0.1817(14) 0.7543(8)
H3 H 0.7217(12) -0.1543(13) 0.6434(7)
H4 H 0.6496(12) -0.0532(10) 0.8834(8)
H5 H 0.7728(12) -0.0049(10) 0.9079(8)
H6 H 0.7421(15) -0.1846(15) 0.9235(8)
H7 H 0.6184(15) -0.2323(15) 0.8999(8)
H8 H 0.7115(14) -0.0994(11) 1.0304(9)
H9 H 0.5867(14) -0.1540(11) 1.0077(9)
H10 H 0.5698(16) -0.3295(16) 1.0230(9)
H11 H 0.6927(16) -0.2717(16) 1.0507(9)
H12 H 0.4252(12) -0.3670(11) 1.1281(7)
H13 H 1.2836(9) 0.1526(11) 0.6262(8)
H14 H 0.7326(12) -0.1527(11) 1.1871(9)
N1A N 1.0485(10) -0.1007(14) 0.7051(6)
N1B N 1.1007(14) 0.1492(10) 0.7051(6)
N4A N 0.9569(11) 0.1082(14) 0.5579(7)
N4B N 0.8918(14) -0.1513(9) 0.5579(7)
N4C N 0.4846(9) -0.2902(11) 1.2246(7)
C8F C 1.1537(12) 0.0166(11) 0.4884(7)
C10F C 1.3232(12) 0.1350(11) 0.5213(9)
C9C C 0.5940(9) -0.2138(11) 1.2458(8)
C1A C 1.0205(11) -0.1335(14) 0.7772(7)
C3A C 1.1192(13) -0.1351(18) 0.6898(7)
Mn1C Mn 0.3333 -0.3333 1.2999(4)
N3F N 1.2573(7) 0.0713(7) 0.4595(6)
H12F H 1.0919(12) -0.0337(11) 0.4614(7)
H14F H 1.3993(12) 0.1806(11) 0.5204(9)
H13C H 0.6169(9) -0.1807(11) 1.2929(8)
N2A N 1.0694(11) -0.1877(16) 0.8018(7)
H1A H 0.9730(11) -0.1199(14) 0.8060(7)
C2A C 1.1359(14) -0.1905(18) 0.7511(8)
H3A H 1.1543(13) -0.1240(18) 0.6434(7)
C7F C 1.2936(16) 0.0680(16) 0.3823(9)
C4A C 1.0661(10) -0.2224(16) 0.8824(8)
H2A H 1.1817(14) -0.2207(18) 0.7543(8)
C6F C 1.3176(14) 0.1701(11) 0.3398(9)
H10F H 1.2365(16) 0.0038(16) 0.3563(9)
H11F H 1.3594(16) 0.0616(16) 0.3840(9)
C5A C 1.1709(15) -0.1484(21) 0.9245(8)
H4A H 1.0532(10) -0.2972(16) 0.8834(8)
H5A H 1.0049(10) -0.2223(16) 0.9079(8)
C5F C 1.3474(15) 0.1624(15) 0.2578(8)
H8F H 1.3782(14) 0.2339(11) 0.3637(9)
H9F H 1.2534(14) 0.1793(11) 0.3410(9)
C6A C 1.1632(11) -0.1859(18) 1.0065(9)
H6A H 1.1846(15) -0.0733(21) 0.9235(8)
H7A H 1.2323(15) -0.1493(21) 0.8999(8)
C4F C 1.3782(12) 0.2672(10) 0.2157(8)
H6F H 1.4088(15) 0.1487(15) 0.2568(8)
H7F H 1.2851(15) 0.1010(15) 0.2332(8)
C7A C 1.2653(16) -0.1078(23) 1.0490(9)
H8A H 1.0994(11) -0.1891(18) 1.0304(9)
H9A H 1.1540(11) -0.2593(18) 1.0077(9)
N2F N 1.4096(12) 0.2639(11) 0.1351(7)
H4F H 1.3163(12) 0.2801(10) 0.2167(8)
H5F H 1.4395(12) 0.3284(10) 0.2412(8)
N3A N 1.2620(7) -0.1474(10) 1.1262(6)
H10A H 1.3295(16) -0.1007(23) 1.0230(9)
H11A H 1.2717(16) -0.0356(23) 1.0507(9)
C1F C 1.5127(9) 0.3128(11) 0.1105(7)
C2F C 1.3403(12) 0.1974(14) 0.0844(8)
C8A C 1.3167(11) -0.1963(16) 1.1551(7)
C10A C 1.1983(11) -0.1452(16) 1.1880(9)
N1F N 1.5175(10) 0.2848(10) 0.0384(6)
H1F H 1.5738(9) 0.3603(11) 0.1393(7)
C3F C 1.4124(12) 0.2141(13) 0.0231(7)
H2F H 1.2643(12) 0.1516(14) 0.0876(8)
N4D N 1.2902(11) -0.2251(14) 1.2246(7)
H12A H 1.3670(11) -0.2078(16) 1.1281(7)
C9D C 1.2138(11) -0.1921(14) 1.2458(8)
H14A H 1.1527(11) -0.1147(16) 1.1871(9)
Mn1F Mn 1.6667 0.3333 -0.0335(4)
H3F H 1.3884(12) 0.1790(13) -0.0233(7)
Mn1C_2 Mn 1.3333 -0.3333 1.2999(4)
H13D H 1.1807(11) -0.2023(14) 1.2929(8)
Cl1 Cl 1.0000 0.0000 0.9935(5)
O1 O 1.0000 0.0000 0.9152(6)
O2 O 0.9556(22) 0.0628(21) 1.0195(8)
O2A O 0.9372(21) -0.1072(30) 1.0195(8)
O2B O 1.1072(30) 0.0444(22) 1.0195(8)
As2 As 0.3333 -0.3333 0.9371(4)
F3 F 0.2214(4) -0.3868(10) 0.9914(5)
F4 F 0.2799(10) -0.2748(11) 0.8829(5)
F3A F 0.3868(10) -0.3918(11) 0.9914(5)
F3B F 0.3918(11) -0.2214(4) 0.9914(5)
F4A F 0.2748(11) -0.4453(15) 0.8829(5)
F4B F 0.4453(15) -0.2799(10) 0.8829(5)
As1? As 1.0000 0.0000 1.0126(3)
F1? F 0.9386(6) 0.0505(7) 0.9584(4)
F2? F 1.0505(7) 0.1118(4) 1.0669(4)
Cl2? Cl 0.3333 -0.3333 0.9341(4)
O3? O 0.3333 -0.3333 1.0124(5)
O4? O 0.4011(13) -0.2266(6) 0.9088(7)
loop_
_geom_bond_atom_site_label_1
_geom_bond_atom_site_label_2
_geom_bond_site_symmetry_1
_geom_bond_site_symmetry_2
Mn1 N1 1_555 1_555
N1 C1 1_555 1_555
C1 N2 1_555 1_555
N2 C2 1_555 1_555
C2 C3 1_555 1_555
C3 N1 1_555 1_555
C4 N2 1_555 1_555
C5 C4 1_555 1_555
C6 C5 1_555 1_555
C7 C6 1_555 1_555
N3 C7 1_555 1_555
C8 N3 1_555 1_555
N4 Mn1 1_555 1_555
C9 N4 1_555 1_555
C10 N3 1_555 1_555
Cl1 O1 1_555 1_555
O2 Cl1 1_555 1_555
As2 F3 1_555 1_555
F4 As2 1_555 1_555
H1 C1 1_555 1_555
H2 C2 1_555 1_555
H3 C3 1_555 1_555
H4 C4 1_555 1_555
H5 C4 1_555 1_555
H6 C5 1_555 1_555
H7 C5 1_555 1_555
H8 C6 1_555 1_555
H9 C6 1_555 1_555
H10 C7 1_555 1_555
H11 C7 1_555 1_555
H12 C8 1_555 1_555
H13 C9 1_555 1_555
H14 C10 1_555 1_555
N1A Mn1 1_555 1_555
N1B Mn1 1_555 1_555
N4A Mn1 1_555 1_555
N4B Mn1 1_555 1_555
N4C C8 1_555 1_555
C8F N4 1_555 1_555
C10F C9 1_555 1_555
C9C C10 1_555 1_555
O2A Cl1 1_555 1_555
O2B Cl1 1_555 1_555
F3A As2 1_555 1_555
F3B As2 1_555 1_555
F4A As2 1_555 1_555
F4B As2 1_555 1_555
C1A N1A 1_555 1_555
C3A N1A 1_555 1_555
Mn1C N4C 1_555 1_555
N3F C8F 1_555 1_555
H12F C8F 1_555 1_555
H14F C10F 1_555 1_555
H13C C9C 1_555 1_555
N2A C1A 1_555 1_555
H1A C1A 1_555 1_555
C2A C3A 1_555 1_555
H3A C3A 1_555 1_555
C7F N3F 1_555 1_555
C4A N2A 1_555 1_555
H2A C2A 1_555 1_555
C6F C7F 1_555 1_555
H10F C7F 1_555 1_555
H11F C7F 1_555 1_555
C5A C4A 1_555 1_555
H4A C4A 1_555 1_555
H5A C4A 1_555 1_555
C5F C6F 1_555 1_555
H8F C6F 1_555 1_555
H9F C6F 1_555 1_555
C6A C5A 1_555 1_555
H6A C5A 1_555 1_555
H7A C5A 1_555 1_555
C4F C5F 1_555 1_555
H6F C5F 1_555 1_555
H7F C5F 1_555 1_555
C7A C6A 1_555 1_555
H8A C6A 1_555 1_555
H9A C6A 1_555 1_555
N2F C4F 1_555 1_555
H4F C4F 1_555 1_555
H5F C4F 1_555 1_555
N3A C7A 1_555 1_555
H10A C7A 1_555 1_555
H11A C7A 1_555 1_555
C1F N2F 1_555 1_555
C2F N2F 1_555 1_555
C8A N3A 1_555 1_555
C10A N3A 1_555 1_555
N1F C1F 1_555 1_555
H1F C1F 1_555 1_555
C3F C2F 1_555 1_555
H2F C2F 1_555 1_555
N4D C8A 1_555 1_555
H12A C8A 1_555 1_555
C9D C10A 1_555 1_555
H14A C10A 1_555 1_555
Mn1F N1F 1_555 1_555
H3F C3F 1_555 1_555
Mn1C_2 N4D 1_555 1_555
H13D C9D 1_555 1_555
N4C C9C 1_555 1_555
C10F N3F 1_555 1_555
N2A C2A 1_555 1_555
N1F C3F 1_555 1_555
N4D C9D 1_555 1_555

#END
