
#######################################################################
#
#                 Cambridge Crystallographic Data Centre
#                                CCDC 
#
#######################################################################
#
# If this CIF has been generated from an entry in the Cambridge 
# Structural Database, then it will include bibliographic, chemical, 
# crystal, experimental, refinement or atomic coordinate data resulting 
# from the CCDC's data processing and validation procedures.
#
#######################################################################

data_LINPAA
_symmetry_cell_setting           monoclinic
_symmetry_space_group_name_H-M   'P 21/n'
_symmetry_Int_Tables_number      14
_space_group_name_Hall           '-P 2yn'
loop_
_symmetry_equiv_pos_site_id
_symmetry_equiv_pos_as_xyz
1 x,y,z
2 1/2-x,1/2+y,1/2-z
3 -x,-y,-z
4 1/2+x,1/2-y,1/2+z
_cell_length_a                   7.0778(14)
_cell_length_b                   14.533(3)
_cell_length_c                   12.958(3)
_cell_angle_alpha                90
_cell_angle_beta                 93.24(3)
_cell_angle_gamma                90
_cell_volume                     1330.75
loop_
_atom_site_label
_atom_site_type_symbol
_atom_site_fract_x
_atom_site_fract_y
_atom_site_fract_z
Ag1 Ag 1.17757(2) 0.203550(13) -0.052179(16)
C1 C 0.5790(3) 0.29437(13) -0.04450(15)
C2 C 0.5844(3) 0.13612(14) -0.05389(17)
H1 H 0.5213 0.0800 -0.0549
C3 C 0.7765(3) 0.13756(15) -0.06059(16)
H2 H 0.8424 0.0823 -0.0632
C4 C 0.7747(3) 0.29615(13) -0.05592(15)
C5 C 0.8814(4) 0.38426(16) -0.0612(2)
H3 H 1.0129 0.3713 -0.0690
H4 H 0.8681 0.4185 0.0013
H5 H 0.8321 0.4197 -0.1191
C6 C 0.4695(4) 0.38017(16) -0.0279(2)
H6 H 0.3385 0.3651 -0.0219
H7 H 0.4817 0.4209 -0.0855
H8 H 0.5178 0.4098 0.0343
C7 C 1.0740(3) -0.11456(14) -0.19192(15)
C8 C 0.8818(3) -0.12900(15) -0.18198(17)
H9 H 0.8009 -0.0790 -0.1768
C9 C 0.8098(3) -0.21799(16) -0.17976(17)
H10 H 0.6809 -0.2269 -0.1731
C10 C 0.9292(3) -0.29429(14) -0.18740(15)
C11 C 1.1231(3) -0.27837(15) -0.19552(16)
H11 H 1.2052 -0.3280 -0.1992
C12 C 1.1937(3) -0.18998(14) -0.19810(16)
H12 H 1.3226 -0.1807 -0.2040
N1 N 0.8616(3) -0.38262(15) -0.18433(18)
H13 H 0.757(5) -0.389(2) -0.196(3)
H14 H 0.941(5) -0.426(2) -0.206(2)
N2 N 0.8717(3) 0.21734(12) -0.06346(14)
N3 N 0.4856(3) 0.21407(12) -0.04593(14)
O1 O 1.1781(3) 0.03290(11) -0.09164(14)
O2 O 1.0364(3) 0.05078(12) -0.26323(15)
O3 O 1.3527(3) -0.01216(13) -0.23778(18)
S1 S 1.16781(8) -0.00214(3) -0.19704(4)
Ag1_2 Ag 0.17757(2) 0.203550(13) -0.052179(16)
N3_2 N 1.4856(3) 0.21407(12) -0.04593(14)
loop_
_geom_bond_atom_site_label_1
_geom_bond_atom_site_label_2
_geom_bond_site_symmetry_1
_geom_bond_site_symmetry_2
Ag1 N2 1_555 1_555
C1 C4 1_555 1_555
C2 H1 1_555 1_555
C3 C2 1_555 1_555
H2 C3 1_555 1_555
C4 C5 1_555 1_555
C5 H3 1_555 1_555
H4 C5 1_555 1_555
H5 C5 1_555 1_555
C6 C1 1_555 1_555
H6 C6 1_555 1_555
H7 C6 1_555 1_555
H8 C6 1_555 1_555
C7 C8 1_555 1_555
C8 H9 1_555 1_555
C9 C8 1_555 1_555
H10 C9 1_555 1_555
C10 C9 1_555 1_555
C11 C10 1_555 1_555
H11 C11 1_555 1_555
C12 C7 1_555 1_555
H12 C12 1_555 1_555
N1 C10 1_555 1_555
H13 N1 1_555 1_555
H14 N1 1_555 1_555
N2 C3 1_555 1_555
N3 C1 1_555 1_555
O1 Ag1 1_555 1_555
O2 S1 1_555 1_555
O3 S1 1_555 1_555
S1 C7 1_555 1_555
Ag1_2 N3 1_555 1_555
N3_2 Ag1 1_555 1_555
C2 N3 1_555 1_555
C4 N2 1_555 1_555
C11 C12 1_555 1_555
O1 S1 1_555 1_555

#END
