
#######################################################################
#
#                 Cambridge Crystallographic Data Centre
#                                CCDC 
#
#######################################################################
#
# If this CIF has been generated from an entry in the Cambridge 
# Structural Database, then it will include bibliographic, chemical, 
# crystal, experimental, refinement or atomic coordinate data resulting 
# from the CCDC's data processing and validation procedures.
#
#######################################################################

data_LINPUU
_symmetry_cell_setting           monoclinic
_symmetry_space_group_name_H-M   'P 21/c'
_symmetry_Int_Tables_number      14
_space_group_name_Hall           '-P 2ybc'
loop_
_symmetry_equiv_pos_site_id
_symmetry_equiv_pos_as_xyz
1 x,y,z
2 -x,1/2+y,1/2-z
3 -x,-y,-z
4 x,1/2-y,1/2+z
_cell_length_a                   9.1193(18)
_cell_length_b                   6.8496(14)
_cell_length_c                   24.826(5)
_cell_angle_alpha                90
_cell_angle_beta                 90.40(3)
_cell_angle_gamma                90
_cell_volume                     1550.68
loop_
_atom_site_label
_atom_site_type_symbol
_atom_site_fract_x
_atom_site_fract_y
_atom_site_fract_z
Ag1 Ag 0.06899(3) 0.10954(4) 0.336396(8)
C1 C 0.6270(3) 0.0163(3) 0.14537(9)
C2 C 0.6295(3) -0.1620(4) 0.12079(10)
H1 H 0.7133 -0.2019 0.1027
C3 C 0.5061(3) -0.2866(4) 0.12255(12)
H2 H 0.5091 -0.4077 0.1056
C4 C 0.3838(3) -0.2300(4) 0.14878(12)
H3 H 0.3038 -0.3140 0.1502
C5 C 0.3753(3) -0.0443(4) 0.17426(9)
C6 C 0.2477(3) 0.0124(4) 0.20223(10)
H4 H 0.1676 -0.0715 0.2033
C7 C 0.2404(3) 0.1871(4) 0.22755(9)
C8 C 0.3612(3) 0.3155(4) 0.22526(10)
H5 H 0.3553 0.4366 0.2421
C9 C 0.4860(3) 0.2656(4) 0.19898(10)
H6 H 0.5642 0.3526 0.1982
C10 C 0.4983(3) 0.0828(3) 0.17275(9)
C11 C -0.1507(4) -0.0968(4) 0.41421(11)
H7 H -0.1467 -0.1932 0.3879
C12 C -0.2412(4) -0.1284(4) 0.45813(12)
C13 C -0.1565(4) 0.1799(5) 0.49106(12)
H8 H -0.1548 0.2759 0.5175
C14 C -0.0732(4) 0.2006(5) 0.44558(12)
H9 H -0.0180 0.3135 0.4412
C15 C -0.3335(5) -0.3072(6) 0.46275(15)
H10 H -0.3874 -0.3030 0.4958
H11 H -0.2717 -0.4207 0.4625
H12 H -0.4008 -0.3131 0.4329
N1 N 0.1125(3) 0.2446(3) 0.25726(9)
H13 H 0.120(4) 0.364(2) 0.2665(13)
H14 H 0.038(2) 0.219(5) 0.2376(10)
N2 N -0.0693(3) 0.0626(4) 0.40730(9)
N3 N -0.2426(4) 0.0164(5) 0.49739(12)
O1 O 0.7565(2) 0.3483(3) 0.12627(9)
O2 O 0.8372(2) 0.1609(3) 0.20287(8)
O3 O 0.8950(2) 0.0498(3) 0.11308(10)
S1 S 0.79214(7) 0.15487(9) 0.14633(3)
Ag1A Ag 0.93101(3) 0.60954(4) 0.163604(8)
O1A O 0.2435(2) -0.1517(3) 0.37373(9)
loop_
_geom_bond_atom_site_label_1
_geom_bond_atom_site_label_2
_geom_bond_site_symmetry_1
_geom_bond_site_symmetry_2
Ag1 N1 1_555 1_555
C1 C2 1_555 1_555
C2 H1 1_555 1_555
C3 C2 1_555 1_555
H2 C3 1_555 1_555
C4 C3 1_555 1_555
H3 C4 1_555 1_555
C5 C4 1_555 1_555
C6 C5 1_555 1_555
H4 C6 1_555 1_555
C7 C6 1_555 1_555
C8 C7 1_555 1_555
H5 C8 1_555 1_555
C9 C8 1_555 1_555
H6 C9 1_555 1_555
C10 C1 1_555 1_555
C11 H7 1_555 1_555
C12 C11 1_555 1_555
C13 H8 1_555 1_555
C14 C13 1_555 1_555
H9 C14 1_555 1_555
C15 C12 1_555 1_555
H10 C15 1_555 1_555
H11 C15 1_555 1_555
H12 C15 1_555 1_555
N1 C7 1_555 1_555
H13 N1 1_555 1_555
H14 N1 1_555 1_555
N2 Ag1 1_555 1_555
N3 C12 1_555 1_555
O1 S1 1_555 1_555
O2 S1 1_555 1_555
O3 S1 1_555 1_555
S1 C1 1_555 1_555
Ag1A O1 1_555 1_555
O1A Ag1 1_555 1_555
C5 C10 1_555 1_555
C9 C10 1_555 1_555
C11 N2 1_555 1_555
C13 N3 1_555 1_555
C14 N2 1_555 1_555

#END
