
#######################################################################
#
#                 Cambridge Crystallographic Data Centre
#                                CCDC 
#
#######################################################################
#
# If this CIF has been generated from an entry in the Cambridge 
# Structural Database, then it will include bibliographic, chemical, 
# crystal, experimental, refinement or atomic coordinate data resulting 
# from the CCDC's data processing and validation procedures.
#
#######################################################################

data_LINPEE
_symmetry_cell_setting           orthorhombic
_symmetry_space_group_name_H-M   'P 21 21 2'
_symmetry_Int_Tables_number      18
_space_group_name_Hall           'P 2 2ab'
loop_
_symmetry_equiv_pos_site_id
_symmetry_equiv_pos_as_xyz
1 x,y,z
2 -x,-y,z
3 1/2+x,1/2-y,-z
4 1/2-x,1/2+y,-z
_cell_length_a                   13.518(3)
_cell_length_b                   14.308(3)
_cell_length_c                   7.7796(16)
_cell_angle_alpha                90
_cell_angle_beta                 90
_cell_angle_gamma                90
_cell_volume                     1504.7
loop_
_atom_site_label
_atom_site_type_symbol
_atom_site_fract_x
_atom_site_fract_y
_atom_site_fract_z
Ag1 Ag 0.0000 0.0000 -0.67247(7)
Ag2 Ag 0.0000 -0.5000 -0.66777(7)
S1 S -0.23383(8) -0.04487(7) -0.81260(15)
N1 N 0.0260(2) -0.1527(2) -0.6325(4)
N2 N 0.0363(3) -0.3451(3) -0.6275(5)
C1 C 0.0718(3) -0.2956(3) -0.7603(6)
H1 H 0.0994 -0.3270 -0.8534
C2 C -0.2263(3) -0.1656(3) -0.7781(5)
O1 O -0.1426(2) -0.0163(2) -0.8930(5)
C3 C -0.0004(4) -0.2990(3) -0.4951(5)
C4 C -0.2483(3) -0.2058(3) -0.6210(5)
H2 H -0.2677 -0.1678 -0.5300
C5 C -0.0077(3) -0.2008(3) -0.4985(5)
C6 C -0.1983(4) -0.2238(3) -0.9120(6)
H3 H -0.1839 -0.1982 -1.0189
O2 O -0.3155(3) -0.0324(3) -0.9320(8)
N3 N -0.1984(4) -0.4540(3) -0.7079(7)
H4 H -0.209(4) -0.489(4) -0.788(7)
H5 H -0.244(5) -0.466(4) -0.610(9)
C7 C -0.2420(3) -0.3005(3) -0.5969(6)
H6 H -0.2576 -0.3259 -0.4903
C8 C -0.0313(4) -0.3560(4) -0.3402(8)
H7 H -0.0210 -0.4212 -0.3635
H8 H -0.1000 -0.3451 -0.3163
H9 H 0.0077 -0.3378 -0.2425
C9 C -0.2125(3) -0.3589(3) -0.7305(6)
C10 C 0.0685(3) -0.1999(3) -0.7622(6)
H10 H 0.0959 -0.1674 -0.8541
C11 C 0.0205(4) -0.1255(4) -0.2139(8)
H11 H -0.0114 -0.0902 -0.1248
H12 H 0.0745 -0.0899 -0.2601
H13 H 0.0452 -0.1830 -0.1670
C12 C -0.0528(3) -0.1465(4) -0.3547(6)
H14 H -0.1076 -0.1817 -0.3070
H15 H -0.0788 -0.0882 -0.3993
O3 O -0.2471(5) -0.0031(3) -0.6498(5)
C13 C -0.1914(4) -0.3181(3) -0.8894(7)
H16 H -0.1726 -0.3558 -0.9811
O4 O 0.0000 -0.5000 -0.9774(6)
Ag2_2 Ag 0.0000 0.5000 -0.66777(7)
S1A S 0.23383(8) 0.04487(7) -0.81260(15)
N1A N -0.0260(2) 0.1527(2) -0.6325(4)
N2A N -0.0363(3) 0.3451(3) -0.6275(5)
N2A_2 N -0.0363(3) -0.6549(3) -0.6275(5)
C1A C -0.0718(3) 0.2956(3) -0.7603(6)
H1A H -0.0994 0.3270 -0.8534
C2A C 0.2263(3) 0.1656(3) -0.7781(5)
O1A O 0.1426(2) 0.0163(2) -0.8930(5)
C3A C 0.0004(4) 0.2990(3) -0.4951(5)
C4A C 0.2483(3) 0.2058(3) -0.6210(5)
H2A H 0.2677 0.1678 -0.5300
C5A C 0.0077(3) 0.2008(3) -0.4985(5)
C6A C 0.1983(4) 0.2238(3) -0.9120(6)
H3A H 0.1839 0.1982 -1.0189
O2A O 0.3155(3) 0.0324(3) -0.9320(8)
N3A N 0.1984(4) 0.4540(3) -0.7079(7)
H4A H 0.209(4) 0.489(4) -0.788(7)
H5A H 0.244(5) 0.466(4) -0.610(9)
C7A C 0.2420(3) 0.3005(3) -0.5969(6)
H6A H 0.2576 0.3259 -0.4903
C8A C 0.0313(4) 0.3560(4) -0.3402(8)
H7A H 0.0210 0.4212 -0.3635
H8A H 0.1000 0.3451 -0.3163
H9A H -0.0077 0.3378 -0.2425
C9A C 0.2125(3) 0.3589(3) -0.7305(6)
C10A C -0.0685(3) 0.1999(3) -0.7622(6)
H10A H -0.0959 0.1674 -0.8541
C11A C -0.0205(4) 0.1255(4) -0.2139(8)
H11A H 0.0114 0.0902 -0.1248
H12A H -0.0745 0.0899 -0.2601
H13A H -0.0452 0.1830 -0.1670
C12A C 0.0528(3) 0.1465(4) -0.3547(6)
H14A H 0.1076 0.1817 -0.3070
H15A H 0.0788 0.0882 -0.3993
O3A O 0.2471(5) 0.0031(3) -0.6498(5)
C13A C 0.1914(4) 0.3181(3) -0.8894(7)
H16A H 0.1726 0.3558 -0.9811
loop_
_geom_bond_atom_site_label_1
_geom_bond_atom_site_label_2
_geom_bond_site_symmetry_1
_geom_bond_site_symmetry_2
Ag1 N1 1_555 1_555
Ag2 N2 1_555 1_555
S1 C2 1_555 1_555
N1 C5 1_555 1_555
N2 C1 1_555 1_555
C1 H1 1_555 1_555
C2 C4 1_555 1_555
O1 Ag1 1_555 1_555
C3 N2 1_555 1_555
C4 H2 1_555 1_555
C5 C3 1_555 1_555
C6 C2 1_555 1_555
H3 C6 1_555 1_555
O2 S1 1_555 1_555
N3 H4 1_555 1_555
H5 N3 1_555 1_555
C7 C4 1_555 1_555
H6 C7 1_555 1_555
C8 C3 1_555 1_555
H7 C8 1_555 1_555
H8 C8 1_555 1_555
H9 C8 1_555 1_555
C9 N3 1_555 1_555
C10 N1 1_555 1_555
H10 C10 1_555 1_555
C11 H11 1_555 1_555
H12 C11 1_555 1_555
H13 C11 1_555 1_555
C12 C5 1_555 1_555
H14 C12 1_555 1_555
H15 C12 1_555 1_555
O3 S1 1_555 1_555
C13 C6 1_555 1_555
H16 C13 1_555 1_555
O4 Ag2 1_555 1_555
Ag2_2 N2A 1_555 1_555
S1A C2A 1_555 1_555
N1A Ag1 1_555 1_555
N2A C1A 1_555 1_555
N2A_2 Ag2 1_555 1_555
C1A H1A 1_555 1_555
C2A C4A 1_555 1_555
O1A Ag1 1_555 1_555
C3A N2A 1_555 1_555
C4A H2A 1_555 1_555
C5A N1A 1_555 1_555
C6A C2A 1_555 1_555
H3A C6A 1_555 1_555
O2A S1A 1_555 1_555
N3A H4A 1_555 1_555
H5A N3A 1_555 1_555
C7A C4A 1_555 1_555
H6A C7A 1_555 1_555
C8A C3A 1_555 1_555
H7A C8A 1_555 1_555
H8A C8A 1_555 1_555
H9A C8A 1_555 1_555
C9A N3A 1_555 1_555
C10A N1A 1_555 1_555
H10A C10A 1_555 1_555
C11A H11A 1_555 1_555
H12A C11A 1_555 1_555
H13A C11A 1_555 1_555
C12A C5A 1_555 1_555
H14A C12A 1_555 1_555
H15A C12A 1_555 1_555
O3A S1A 1_555 1_555
C13A C6A 1_555 1_555
H16A C13A 1_555 1_555
S1 O1 1_555 1_555
C1 C10 1_555 1_555
C7 C9 1_555 1_555
C9 C13 1_555 1_555
C11 C12 1_555 1_555
S1A O1A 1_555 1_555
C1A C10A 1_555 1_555
C3A C5A 1_555 1_555
C7A C9A 1_555 1_555
C9A C13A 1_555 1_555
C11A C12A 1_555 1_555

#END
