
#######################################################################
#
#                 Cambridge Crystallographic Data Centre
#                                CCDC 
#
#######################################################################
#
# If this CIF has been generated from an entry in the Cambridge 
# Structural Database, then it will include bibliographic, chemical, 
# crystal, experimental, refinement or atomic coordinate data resulting 
# from the CCDC's data processing and validation procedures.
#
#######################################################################

data_LINQEF
_symmetry_cell_setting           rhombohedral
_symmetry_space_group_name_H-M   'R 3 c'
_symmetry_Int_Tables_number      161
_space_group_name_Hall           'R 3 -2"c'
loop_
_symmetry_equiv_pos_site_id
_symmetry_equiv_pos_as_xyz
1 x,y,z
2 -y,x-y,z
3 -x+y,-x,z
4 -x+y,y,1/2+z
5 x,x-y,1/2+z
6 -y,-x,1/2+z
7 2/3+x,1/3+y,1/3+z
8 2/3-y,1/3+x-y,1/3+z
9 2/3-x+y,1/3-x,1/3+z
10 2/3-x+y,1/3+y,5/6+z
11 2/3+x,1/3+x-y,5/6+z
12 2/3-y,1/3-x,5/6+z
13 1/3+x,2/3+y,2/3+z
14 1/3-y,2/3+x-y,2/3+z
15 1/3-x+y,2/3-x,2/3+z
16 1/3-x+y,2/3+y,1/6+z
17 1/3+x,2/3+x-y,1/6+z
18 1/3-y,2/3-x,1/6+z
_cell_length_a                   21.902(3)
_cell_length_b                   21.902(3)
_cell_length_c                   20.776(4)
_cell_angle_alpha                90
_cell_angle_beta                 90
_cell_angle_gamma                120.00
_cell_volume                     8630.98
loop_
_atom_site_label
_atom_site_type_symbol
_atom_site_fract_x
_atom_site_fract_y
_atom_site_fract_z
Ag1 Ag 0.691378(18) 1.08931(2) 0.499137(10)
S1 S 0.77829(6) 1.24287(7) 0.37482(6)
N1 N 0.78597(19) 1.1348(2) 0.56358(18)
N2 N 0.91424(18) 1.19895(19) 0.62853(18)
O1 O 0.7566(3) 1.1759(3) 0.4028(2)
N3 N 1.0457(2) 1.3680(2) 0.5942(2)
H1 H 1.060(2) 1.407(2) 0.618(2)
H2 H 1.085(2) 1.379(2) 0.5739(19)
C1 C 0.8584(2) 1.2039(2) 0.6508(2)
C2 C 0.8691(2) 1.3191(2) 0.4765(2)
C3 C 0.8080(2) 1.3039(2) 0.4400(2)
C4 C 0.9449(2) 1.3817(2) 0.5686(2)
H3 H 0.9550 1.4112 0.6040
C5 C 0.9716(2) 1.3096(2) 0.5019(2)
H4 H 1.0008 1.2913 0.4924
C6 C 0.9137(2) 1.2920(2) 0.4635(2)
H5 H 0.9042 1.2618 0.4287
O2 O 0.8349(2) 1.2639(4) 0.3321(2)
C7 C 0.8861(2) 1.3656(2) 0.5301(2)
C8 C 0.9874(2) 1.3543(2) 0.5545(2)
C9 C 0.8423(2) 1.3949(2) 0.5439(2)
H6 H 0.8527 1.4242 0.5795
C10 C 0.7943(2) 1.1711(3) 0.6184(2)
C11 C 0.7303(3) 1.1744(3) 0.6431(3)
H7 H 0.7278 1.1689 0.6895
H8 H 0.6879 1.1353 0.6250
O3 O 0.7201(3) 1.2455(3) 0.3467(3)
C12 C 0.8408(2) 1.1285(2) 0.5436(2)
H9 H 0.8359 1.1020 0.5070
C13 C 0.9046(2) 1.1606(2) 0.5761(2)
H10 H 0.9416 1.1553 0.5608
C14 C 0.7687(3) 1.3351(3) 0.4538(3)
H11 H 0.7303 1.3259 0.4281
C15 C 0.7862(3) 1.3814(3) 0.5070(3)
H12 H 0.7593 1.4024 0.5164
C16 C 0.7321(4) 1.2390(4) 0.6273(5)
H13 H 0.6907 1.2379 0.6440
H14 H 0.7733 1.2779 0.6458
H15 H 0.7334 1.2444 0.5813
C17 C 0.8707(3) 1.2457(3) 0.7107(3)
H16 H 0.9183 1.2635 0.7250
H17 H 0.8629 1.2844 0.7023
H18 H 0.8387 1.2161 0.7436
Ag1P Ag 1.024711(18) 1.268735(27) 0.665804(10)
N2J N 0.58091(18) 1.04862(26) 0.46186(18)
N3J N 0.7124(2) 1.0110(3) 0.4275(2)
H1J H 0.727(2) 0.986(3) 0.451(2)
H2J H 0.752(2) 1.039(3) 0.4072(19)
O4 O 0.8447(3) 1.1124(3) 0.3570(2)
H19 H 0.858(5) 1.161(5) 0.363(4)
H20 H 0.871(3) 1.102(3) 0.383(2)
O5 O 0.9255(5) 1.0720(6) 0.4392(4)
H21 H 0.946(6) 1.051(4) 0.423(6)
H22 H 0.949(3) 1.1121(18) 0.420(3)
loop_
_geom_bond_atom_site_label_1
_geom_bond_atom_site_label_2
_geom_bond_site_symmetry_1
_geom_bond_site_symmetry_2
Ag1 N1 1_555 1_555
S1 O1 1_555 1_555
N1 C10 1_555 1_555
N2 C1 1_555 1_555
O1 Ag1 1_555 1_555
N3 H1 1_555 1_555
H2 N3 1_555 1_555
C1 C10 1_555 1_555
C2 C3 1_555 1_555
C3 S1 1_555 1_555
C4 H3 1_555 1_555
C5 H4 1_555 1_555
C6 C2 1_555 1_555
H5 C6 1_555 1_555
O2 S1 1_555 1_555
C7 C2 1_555 1_555
C8 N3 1_555 1_555
C9 C7 1_555 1_555
H6 C9 1_555 1_555
C10 C11 1_555 1_555
C11 H7 1_555 1_555
H8 C11 1_555 1_555
O3 S1 1_555 1_555
C12 N1 1_555 1_555
H9 C12 1_555 1_555
C13 N2 1_555 1_555
H10 C13 1_555 1_555
C14 C3 1_555 1_555
H11 C14 1_555 1_555
C15 C9 1_555 1_555
H12 C15 1_555 1_555
C16 C11 1_555 1_555
H13 C16 1_555 1_555
H14 C16 1_555 1_555
H15 C16 1_555 1_555
C17 C1 1_555 1_555
H16 C17 1_555 1_555
H17 C17 1_555 1_555
H18 C17 1_555 1_555
O4 H19 1_555 1_555
H20 O4 1_555 1_555
O5 H21 1_555 1_555
H22 O5 1_555 1_555
Ag1P N2 1_555 1_555
N2J Ag1 1_555 1_555
N3J Ag1 1_555 1_555
H1J N3J 1_555 1_555
H2J N3J 1_555 1_555
N3 Ag1P 1_555 1_555
C4 C7 1_555 1_555
C4 C8 1_555 1_555
C5 C6 1_555 1_555
C5 C8 1_555 1_555
C12 C13 1_555 1_555
C14 C15 1_555 1_555

#END
