
#######################################################################
#
#                 Cambridge Crystallographic Data Centre
#                                CCDC 
#
#######################################################################
#
# If this CIF has been generated from an entry in the Cambridge 
# Structural Database, then it will include bibliographic, chemical, 
# crystal, experimental, refinement or atomic coordinate data resulting 
# from the CCDC's data processing and validation procedures.
#
#######################################################################

data_LINQOP
_symmetry_cell_setting           monoclinic
_symmetry_space_group_name_H-M   'C c'
_symmetry_Int_Tables_number      9
_space_group_name_Hall           'C -2yc'
loop_
_symmetry_equiv_pos_site_id
_symmetry_equiv_pos_as_xyz
1 x,y,z
2 x,-y,1/2+z
3 1/2+x,1/2+y,z
4 1/2+x,1/2-y,1/2+z
_cell_length_a                   10.018(2)
_cell_length_b                   17.175(3)
_cell_length_c                   10.438(2)
_cell_angle_alpha                90
_cell_angle_beta                 91.28(3)
_cell_angle_gamma                90
_cell_volume                     1795.51
loop_
_atom_site_label
_atom_site_type_symbol
_atom_site_fract_x
_atom_site_fract_y
_atom_site_fract_z
Ag1 Ag 0.41584(3) 0.264124(17) 1.00563(3)
S1 S 1.20306(9) 0.36645(6) 1.17974(9)
N1 N 0.5536(5) 0.2466(3) 1.1737(5)
O1 O 1.2865(3) 0.3977(3) 1.2817(4)
C1 C 0.9347(3) 0.3900(2) 1.1150(3)
O2 O 1.1832(4) 0.2838(2) 1.1927(4)
N2 N 0.7614(5) 0.2494(3) 1.3516(5)
C2 C 0.7490(5) 0.1938(3) 1.2620(4)
H1 H 0.8128 0.1545 1.2610
C3 C 0.9331(3) 0.3262(2) 1.0295(3)
H2 H 1.0089 0.2953 1.0235
N3 N 0.5950(3) 0.3360(2) 0.8844(4)
H3 H 0.563(5) 0.382(2) 0.857(4)
H4 H 0.635(8) 0.310(3) 0.831(6)
C4 C 1.0460(3) 0.4131(2) 1.1937(3)
C5 C 0.6664(4) 0.3042(3) 1.3540(4)
C6 C 0.7068(3) 0.3547(2) 0.9619(4)
C7 C 0.8153(3) 0.4349(2) 1.1239(3)
C8 C 0.8243(4) 0.3091(2) 0.9563(4)
H5 H 0.8265 0.2666 0.9011
O3 O 1.2485(3) 0.3855(2) 1.0521(3)
C9 C 0.5627(4) 0.3012(3) 1.2620(4)
H6 H 0.4971 0.3396 1.2633
C10 C 0.6756(6) 0.3658(4) 1.4522(5)
H7 H 0.7534 0.3574 1.5057
H8 H 0.6819 0.4157 1.4111
H9 H 0.5974 0.3645 1.5036
C11 C 0.7046(3) 0.4158(2) 1.0455(4)
H10 H 0.6274 0.4455 1.0506
C12 C 0.6479(5) 0.1917(3) 1.1719(4)
C13 C 0.9192(5) 0.5152(3) 1.2876(5)
H11 H 0.9137 0.5550 1.3476
C14 C 1.0372(4) 0.4736(3) 1.2770(4)
H12 H 1.1112 0.4873 1.3275
C15 C 0.8110(5) 0.4981(3) 1.2106(5)
H13 H 0.7341 0.5281 1.2153
C16 C 0.6381(7) 0.1306(4) 1.0704(6)
H14 H 0.5604 0.1399 1.0171
H15 H 0.7164 0.1322 1.0191
H16 H 0.6311 0.0802 1.1097
Ag1C Ag 0.91584(3) 0.235876(17) 1.50563(3)
Ag1_2 Ag 1.41584(3) 0.264124(17) 1.00563(3)
N2C N 0.2614(5) 0.2506(3) 0.8516(5)
O3_2 O 0.2485(3) 0.3855(2) 1.0521(3)
O4 O 0.9126(5) -0.0264(3) 0.8940(7)
H17 H 0.876(11) 0.014(5) 0.837(4)
H18 H 0.901(4) 0.010(2) 0.972(3)
loop_
_geom_bond_atom_site_label_1
_geom_bond_atom_site_label_2
_geom_bond_site_symmetry_1
_geom_bond_site_symmetry_2
Ag1 N1 1_555 1_555
S1 O1 1_555 1_555
N1 C9 1_555 1_555
C1 C3 1_555 1_555
O2 S1 1_555 1_555
N2 C2 1_555 1_555
C2 H1 1_555 1_555
C3 H2 1_555 1_555
N3 Ag1 1_555 1_555
H3 N3 1_555 1_555
H4 N3 1_555 1_555
C4 S1 1_555 1_555
C5 N2 1_555 1_555
C6 N3 1_555 1_555
C7 C1 1_555 1_555
C8 C3 1_555 1_555
H5 C8 1_555 1_555
O3 S1 1_555 1_555
C9 C5 1_555 1_555
H6 C9 1_555 1_555
C10 C5 1_555 1_555
H7 C10 1_555 1_555
H8 C10 1_555 1_555
H9 C10 1_555 1_555
C11 C6 1_555 1_555
H10 C11 1_555 1_555
C12 N1 1_555 1_555
C13 H11 1_555 1_555
C14 C4 1_555 1_555
H12 C14 1_555 1_555
C15 C7 1_555 1_555
H13 C15 1_555 1_555
C16 C12 1_555 1_555
H14 C16 1_555 1_555
H15 C16 1_555 1_555
H16 C16 1_555 1_555
O4 H17 1_555 1_555
H18 O4 1_555 1_555
Ag1C N2 1_555 1_555
Ag1_2 O3 1_555 1_555
N2C Ag1 1_555 1_555
O3_2 Ag1 1_555 1_555
C1 C4 1_555 1_555
C2 C12 1_555 1_555
C6 C8 1_555 1_555
C7 C11 1_555 1_555
C13 C14 1_555 1_555
C13 C15 1_555 1_555

#END
