
#######################################################################
#
#                 Cambridge Crystallographic Data Centre
#                                CCDC 
#
#######################################################################
#
# If this CIF has been generated from an entry in the Cambridge 
# Structural Database, then it will include bibliographic, chemical, 
# crystal, experimental, refinement or atomic coordinate data resulting 
# from the CCDC's data processing and validation procedures.
#
#######################################################################

data_LINXOX
_symmetry_cell_setting           monoclinic
_symmetry_space_group_name_H-M   'P 21/n'
_symmetry_Int_Tables_number      14
_space_group_name_Hall           '-P 2yn'
loop_
_symmetry_equiv_pos_site_id
_symmetry_equiv_pos_as_xyz
1 x,y,z
2 1/2-x,1/2+y,1/2-z
3 -x,-y,-z
4 1/2+x,1/2-y,1/2+z
_cell_length_a                   14.7153(13)
_cell_length_b                   9.0139(8)
_cell_length_c                   16.3787(14)
_cell_angle_alpha                90
_cell_angle_beta                 107.313(3)
_cell_angle_gamma                90
_cell_volume                     2074.08
loop_
_atom_site_label
_atom_site_type_symbol
_atom_site_fract_x
_atom_site_fract_y
_atom_site_fract_z
Cd1 Cd 0.26452(2) 0.05011(4) 0.12935(2)
Br1 Br 0.37602(4) -0.07003(6) 0.25956(3)
Br2 Br 0.29660(4) -0.00710(6) -0.01149(3)
N1 N 0.3162(3) 0.2966(4) 0.1450(2)
C1 C 0.3524(3) 0.3589(5) 0.2219(3)
H1 H 0.3504 0.3068 0.2704
C2 C 0.3932(3) 0.5007(5) 0.2313(3)
C3 C 0.3957(3) 0.5763(5) 0.1580(3)
H2 H 0.4209 0.6716 0.1625
C4 C 0.3611(3) 0.5109(5) 0.0786(3)
C5 C 0.3212(3) 0.3696(5) 0.0757(3)
H3 H 0.2969 0.3241 0.0227
N2 N 0.3004(3) 0.5450(4) -0.0762(2)
N3 N 0.4317(3) 0.6763(4) -0.0109(2)
C6 C 0.3631(3) 0.5782(5) -0.0031(3)
C7 C 0.3268(3) 0.6295(5) -0.1366(3)
C8 C 0.4078(3) 0.7120(5) -0.0968(3)
C9 C 0.4481(4) 0.8093(6) -0.1418(3)
H4 H 0.5023 0.8640 -0.1147
C10 C 0.4038(4) 0.8211(7) -0.2290(3)
H5 H 0.4286 0.8854 -0.2613
C11 C 0.3230(4) 0.7386(7) -0.2691(3)
H6 H 0.2947 0.7498 -0.3276
C12 C 0.2840(4) 0.6414(6) -0.2248(3)
H7 H 0.2307 0.5852 -0.2525
C13 C 0.5136(4) 0.7376(6) 0.0539(3)
H8 H 0.5475 0.8036 0.0272
H9 H 0.5550 0.6584 0.0816
H10 H 0.4924 0.7912 0.0954
N4 N 0.3867(3) 0.5779(4) 0.3758(2)
N5 N 0.5177(2) 0.6345(4) 0.3425(2)
C14 C 0.4311(3) 0.5670(5) 0.3158(3)
C15 C 0.4461(3) 0.6586(5) 0.4424(3)
C16 C 0.5285(3) 0.6959(5) 0.4212(3)
C17 C 0.5997(3) 0.7840(6) 0.4738(3)
H11 H 0.6542 0.8081 0.4590
C18 C 0.5860(4) 0.8339(7) 0.5483(3)
H12 H 0.6318 0.8942 0.5846
C19 C 0.5042(4) 0.7955(6) 0.5708(3)
H13 H 0.4975 0.8303 0.6221
C20 C 0.4338(3) 0.7081(6) 0.5193(3)
H14 H 0.3800 0.6830 0.5349
C21 C 0.5894(3) 0.6454(7) 0.2970(3)
H15 H 0.6436 0.6994 0.3314
H16 H 0.5628 0.6963 0.2438
H17 H 0.6089 0.5476 0.2861
Cd1A Cd 0.23548(2) 0.55011(4) 0.37065(2)
N4A N 0.1133(3) 0.0779(4) 0.1242(2)
loop_
_geom_bond_atom_site_label_1
_geom_bond_atom_site_label_2
_geom_bond_site_symmetry_1
_geom_bond_site_symmetry_2
Cd1 Br1 1_555 1_555
Br2 Cd1 1_555 1_555
N1 Cd1 1_555 1_555
C1 N1 1_555 1_555
H1 C1 1_555 1_555
C2 C1 1_555 1_555
C3 C2 1_555 1_555
H2 C3 1_555 1_555
C4 C3 1_555 1_555
C5 N1 1_555 1_555
H3 C5 1_555 1_555
N2 C6 1_555 1_555
N3 C6 1_555 1_555
C6 C4 1_555 1_555
C7 N2 1_555 1_555
C8 N3 1_555 1_555
C9 C8 1_555 1_555
H4 C9 1_555 1_555
C10 C9 1_555 1_555
H5 C10 1_555 1_555
C11 C10 1_555 1_555
H6 C11 1_555 1_555
C12 C7 1_555 1_555
H7 C12 1_555 1_555
C13 N3 1_555 1_555
H8 C13 1_555 1_555
H9 C13 1_555 1_555
H10 C13 1_555 1_555
N4 C14 1_555 1_555
N5 C14 1_555 1_555
C14 C2 1_555 1_555
C15 N4 1_555 1_555
C16 N5 1_555 1_555
C17 C16 1_555 1_555
H11 C17 1_555 1_555
C18 C17 1_555 1_555
H12 C18 1_555 1_555
C19 C18 1_555 1_555
H13 C19 1_555 1_555
C20 C15 1_555 1_555
H14 C20 1_555 1_555
C21 N5 1_555 1_555
H15 C21 1_555 1_555
H16 C21 1_555 1_555
H17 C21 1_555 1_555
Cd1A N4 1_555 1_555
N4A Cd1 1_555 1_555
C4 C5 1_555 1_555
C7 C8 1_555 1_555
C11 C12 1_555 1_555
C15 C16 1_555 1_555
C19 C20 1_555 1_555

#END
