
#######################################################################
#
#                 Cambridge Crystallographic Data Centre
#                                CCDC 
#
#######################################################################
#
# If this CIF has been generated from an entry in the Cambridge 
# Structural Database, then it will include bibliographic, chemical, 
# crystal, experimental, refinement or atomic coordinate data resulting 
# from the CCDC's data processing and validation procedures.
#
#######################################################################

data_LINYEO
_symmetry_cell_setting           monoclinic
_symmetry_space_group_name_H-M   'P 21/n'
_symmetry_Int_Tables_number      14
_space_group_name_Hall           '-P 2yn'
loop_
_symmetry_equiv_pos_site_id
_symmetry_equiv_pos_as_xyz
1 x,y,z
2 1/2-x,1/2+y,1/2-z
3 -x,-y,-z
4 1/2+x,1/2-y,1/2+z
_cell_length_a                   14.586(5)
_cell_length_b                   9.650(3)
_cell_length_c                   16.442(6)
_cell_angle_alpha                90
_cell_angle_beta                 105.081(11)
_cell_angle_gamma                90
_cell_volume                     2234.59
loop_
_atom_site_label
_atom_site_type_symbol
_atom_site_fract_x
_atom_site_fract_y
_atom_site_fract_z
Hg1 Hg 0.27875(3) 0.03225(4) 0.13254(2)
I1 I 0.39641(6) -0.06470(8) 0.27319(4)
I2 I 0.31726(6) -0.00344(8) -0.01774(4)
N1 N 0.3152(6) 0.2882(8) 0.1480(5)
C1 C 0.3136(7) 0.3595(9) 0.0783(6)
H1 H 0.2880 0.3176 0.0264
C2 C 0.3489(7) 0.4952(10) 0.0795(6)
C3 C 0.3819(8) 0.5599(10) 0.1567(6)
H2 H 0.4021 0.6517 0.1600
C4 C 0.3842(8) 0.4837(10) 0.2299(6)
C5 C 0.3496(8) 0.3509(10) 0.2228(6)
H3 H 0.3498 0.3022 0.2717
N2 N 0.2825(6) 0.5337(9) -0.0716(5)
N3 N 0.4172(6) 0.6459(8) -0.0144(5)
C6 C 0.3501(8) 0.5614(10) -0.0024(6)
C7 C 0.3921(8) 0.6812(11) -0.0980(6)
C8 C 0.3082(8) 0.6107(11) -0.1331(6)
C9 C 0.2636(9) 0.6279(12) -0.2188(7)
H4 H 0.2078 0.5805 -0.2434
C10 C 0.3030(12) 0.7155(15) -0.2660(7)
H5 H 0.2730 0.7293 -0.3227
C11 C 0.3869(11) 0.7831(14) -0.2299(7)
H6 H 0.4132 0.8402 -0.2634
C12 C 0.4326(9) 0.7694(12) -0.1468(7)
H7 H 0.4886 0.8170 -0.1232
C13 C 0.5014(8) 0.6966(12) 0.0471(7)
H8 H 0.5362 0.7574 0.0198
H9 H 0.5408 0.6196 0.0712
H10 H 0.4826 0.7461 0.0907
N4 N 0.3771(6) 0.5641(8) 0.3736(4)
N5 N 0.5104(6) 0.6086(9) 0.3359(4)
C14 C 0.4220(8) 0.5487(10) 0.3132(5)
C15 C 0.4386(7) 0.6411(11) 0.4371(5)
C16 C 0.5207(7) 0.6676(11) 0.4141(6)
C17 C 0.5929(8) 0.7496(12) 0.4632(6)
H11 H 0.6474 0.7705 0.4464
C18 C 0.5792(9) 0.7974(13) 0.5370(7)
H12 H 0.6264 0.8510 0.5719
C19 C 0.4976(9) 0.7692(14) 0.5619(7)
H13 H 0.4917 0.8041 0.6130
C20 C 0.4251(8) 0.6913(11) 0.5134(6)
H14 H 0.3701 0.6728 0.5301
C21 C 0.5823(8) 0.6105(14) 0.2897(6)
H15 H 0.6369 0.6604 0.3214
H16 H 0.5575 0.6552 0.2364
H17 H 0.6003 0.5172 0.2807
Hg1A Hg 0.22125(3) 0.53225(4) 0.36746(2)
N4A N 0.1229(6) 0.0641(8) 0.1264(4)
loop_
_geom_bond_atom_site_label_1
_geom_bond_atom_site_label_2
_geom_bond_site_symmetry_1
_geom_bond_site_symmetry_2
Hg1 I1 1_555 1_555
I2 Hg1 1_555 1_555
N1 Hg1 1_555 1_555
C1 N1 1_555 1_555
H1 C1 1_555 1_555
C2 C1 1_555 1_555
C3 C2 1_555 1_555
H2 C3 1_555 1_555
C4 C3 1_555 1_555
C5 N1 1_555 1_555
H3 C5 1_555 1_555
N2 C6 1_555 1_555
N3 C6 1_555 1_555
C6 C2 1_555 1_555
C7 N3 1_555 1_555
C8 N2 1_555 1_555
C9 C8 1_555 1_555
H4 C9 1_555 1_555
C10 C9 1_555 1_555
H5 C10 1_555 1_555
C11 C10 1_555 1_555
H6 C11 1_555 1_555
C12 C7 1_555 1_555
H7 C12 1_555 1_555
C13 N3 1_555 1_555
H8 C13 1_555 1_555
H9 C13 1_555 1_555
H10 C13 1_555 1_555
N4 C14 1_555 1_555
N5 C14 1_555 1_555
C14 C4 1_555 1_555
C15 N4 1_555 1_555
C16 N5 1_555 1_555
C17 C16 1_555 1_555
H11 C17 1_555 1_555
C18 C17 1_555 1_555
H12 C18 1_555 1_555
C19 C18 1_555 1_555
H13 C19 1_555 1_555
C20 C15 1_555 1_555
H14 C20 1_555 1_555
C21 N5 1_555 1_555
H15 C21 1_555 1_555
H16 C21 1_555 1_555
H17 C21 1_555 1_555
Hg1A N4 1_555 1_555
N4A Hg1 1_555 1_555
C4 C5 1_555 1_555
C7 C8 1_555 1_555
C11 C12 1_555 1_555
C15 C16 1_555 1_555
C19 C20 1_555 1_555

#END
