
#######################################################################
#
#                 Cambridge Crystallographic Data Centre
#                                CCDC 
#
#######################################################################
#
# If this CIF has been generated from an entry in the Cambridge 
# Structural Database, then it will include bibliographic, chemical, 
# crystal, experimental, refinement or atomic coordinate data resulting 
# from the CCDC's data processing and validation procedures.
#
#######################################################################

data_LIPJUQ
_symmetry_cell_setting           orthorhombic
_symmetry_space_group_name_H-M   'P b c n'
_symmetry_Int_Tables_number      60
_space_group_name_Hall           '-P 2n 2ab'
loop_
_symmetry_equiv_pos_site_id
_symmetry_equiv_pos_as_xyz
1 x,y,z
2 1/2-x,1/2-y,1/2+z
3 -x,y,1/2-z
4 1/2+x,1/2-y,-z
5 -x,-y,-z
6 1/2+x,1/2+y,1/2-z
7 x,-y,1/2+z
8 1/2-x,1/2+y,z
_cell_length_a                   21.472(5)
_cell_length_b                   8.542(2)
_cell_length_c                   18.807(5)
_cell_angle_alpha                90
_cell_angle_beta                 90
_cell_angle_gamma                90
_cell_volume                     3449.46
loop_
_atom_site_label
_atom_site_type_symbol
_atom_site_fract_x
_atom_site_fract_y
_atom_site_fract_z
Zn1 Zn 0.387484(15) 0.43432(4) 0.086490(17)
O1 O 0.46871(10) 0.3765(3) 0.12479(13)
O3 O 0.59493(11) 0.3427(3) -0.06915(12)
O4 O 0.43139(10) 0.1391(3) 0.14100(13)
O5 O 0.68765(11) 0.3441(3) -0.01780(13)
N1 N 0.31440(11) 0.3998(3) 0.15373(12)
N2 N 0.12564(11) 0.1620(3) 0.48897(12)
N3 N 0.15776(12) 0.3098(4) 0.27984(13)
H3 H 0.1236(11) 0.316(4) 0.2543(17)
C1 C 0.31945(15) 0.3229(5) 0.21506(17)
H4 H 0.3587 0.2871 0.2281
C2 C 0.27098(15) 0.2926(5) 0.26039(17)
H5 H 0.2780 0.2393 0.3028
C3 C 0.21123(14) 0.3420(4) 0.24262(15)
C4 C 0.20613(14) 0.4236(4) 0.17901(16)
H6 H 0.1674 0.4607 0.1647
C5 C 0.25683(14) 0.4502(4) 0.13727(16)
H7 H 0.2514 0.5060 0.0953
C6 C 0.08293(14) 0.1476(4) 0.43703(16)
H8 H 0.0444 0.1046 0.4486
C7 C 0.09307(14) 0.1928(4) 0.36789(16)
H9 H 0.0620 0.1802 0.3339
C8 C 0.15017(13) 0.2578(4) 0.34925(15)
C9 C 0.19416(14) 0.2757(4) 0.40290(15)
H10 H 0.2327 0.3204 0.3931
C10 C 0.17990(13) 0.2264(4) 0.47072(15)
H11 H 0.2099 0.2389 0.5059
C11 C 0.47446(14) 0.2342(4) 0.14301(15)
C12 C 0.53860(14) 0.1850(5) 0.16923(17)
H12 H 0.5504 0.2503 0.2092
H13 H 0.5368 0.0775 0.1857
C13 C 0.58791(14) 0.1985(4) 0.11159(16)
H14 H 0.5925 0.3079 0.0988
H15 H 0.6274 0.1632 0.1308
C14 C 0.57377(16) 0.1060(4) 0.04516(17)
H16 H 0.5660 -0.0022 0.0580
H17 H 0.5362 0.1470 0.0234
C15 C 0.62675(17) 0.1121(4) -0.00863(18)
H18 H 0.6163 0.0474 -0.0493
H19 H 0.6643 0.0701 0.0128
C16 C 0.63879(16) 0.2761(4) -0.03313(16)
Zn1D Zn 0.612516(15) 0.56568(4) -0.086490(17)
Zn1A Zn 0.112516(15) 0.06568(4) 0.586490(17)
O3D O 0.40507(11) 0.6573(3) 0.06915(12)
N2A N 0.37436(11) 0.3380(3) -0.01103(12)
O2 O 0.44593(12) -0.1687(4) 0.18741(14)
H1 H 0.440(2) -0.215(4) 0.1468(12)
H2 H 0.449(2) -0.250(3) 0.2134(17)
loop_
_geom_bond_atom_site_label_1
_geom_bond_atom_site_label_2
_geom_bond_site_symmetry_1
_geom_bond_site_symmetry_2
Zn1 O1 1_555 1_555
O1 C11 1_555 1_555
O2 H1 1_555 1_555
H2 O2 1_555 1_555
O3 C16 1_555 1_555
O4 C11 1_555 1_555
O5 C16 1_555 1_555
N1 Zn1 1_555 1_555
N2 C6 1_555 1_555
N3 H3 1_555 1_555
C1 N1 1_555 1_555
H4 C1 1_555 1_555
C2 C1 1_555 1_555
H5 C2 1_555 1_555
C3 N3 1_555 1_555
C4 C3 1_555 1_555
H6 C4 1_555 1_555
C5 N1 1_555 1_555
H7 C5 1_555 1_555
C6 H8 1_555 1_555
C7 C6 1_555 1_555
H9 C7 1_555 1_555
C8 N3 1_555 1_555
C9 C8 1_555 1_555
H10 C9 1_555 1_555
C10 N2 1_555 1_555
H11 C10 1_555 1_555
C11 C12 1_555 1_555
C12 H12 1_555 1_555
H13 C12 1_555 1_555
C13 C12 1_555 1_555
H14 C13 1_555 1_555
H15 C13 1_555 1_555
C14 C13 1_555 1_555
H16 C14 1_555 1_555
H17 C14 1_555 1_555
C15 C14 1_555 1_555
H18 C15 1_555 1_555
H19 C15 1_555 1_555
C16 C15 1_555 1_555
Zn1D O3 1_555 1_555
Zn1A N2 1_555 1_555
O3D Zn1 1_555 1_555
N2A Zn1 1_555 1_555
C2 C3 1_555 1_555
C4 C5 1_555 1_555
C7 C8 1_555 1_555
C9 C10 1_555 1_555

#END
