
#######################################################################
#
#                 Cambridge Crystallographic Data Centre
#                                CCDC 
#
#######################################################################
#
# If this CIF has been generated from an entry in the Cambridge 
# Structural Database, then it will include bibliographic, chemical, 
# crystal, experimental, refinement or atomic coordinate data resulting 
# from the CCDC's data processing and validation procedures.
#
#######################################################################

data_LIQCAR
_symmetry_cell_setting           triclinic
_symmetry_space_group_name_H-M   'P -1'
_symmetry_Int_Tables_number      2
_space_group_name_Hall           '-P 1'
loop_
_symmetry_equiv_pos_site_id
_symmetry_equiv_pos_as_xyz
1 x,y,z
2 -x,-y,-z
_cell_length_a                   10.8442(2)
_cell_length_b                   10.8853(2)
_cell_length_c                   12.2574(3)
_cell_angle_alpha                75.7330(10)
_cell_angle_beta                 76.4370(10)
_cell_angle_gamma                78.8200(10)
_cell_volume                     1348.86
loop_
_atom_site_label
_atom_site_type_symbol
_atom_site_fract_x
_atom_site_fract_y
_atom_site_fract_z
Au1 Au 0.38637(3) 1.69431(2) 0.18364(2)
Tb1 Tb 0.29578(3) 1.19300(2) 0.25166(2)
O1 O 0.3831(5) 1.2394(5) 0.0436(4)
O2 O 0.1823(5) 1.2985(5) 0.0991(4)
O3 O 0.2672(6) 1.3399(6) -0.0818(5)
O4 O 0.2308(4) 1.0176(4) 0.4141(4)
O5 O 0.0763(6) 0.9117(5) 0.4259(5)
O6 O 0.1130(4) 1.0748(4) 0.2862(4)
N1 N 0.1082(5) 1.3020(5) 0.3722(4)
N2 N 0.0043(5) 1.3436(5) 0.5424(5)
N3 N 0.3373(5) 1.2255(4) 0.4380(4)
N4 N 0.5218(5) 1.1333(4) 0.2758(4)
N5 N 0.6753(5) 1.0926(5) 0.3791(4)
N6 N 0.3676(6) 0.9824(5) 0.1911(5)
N7 N 0.3610(6) 1.4074(5) 0.2073(5)
N8 N 0.2774(7) 1.2933(6) 0.0160(5)
N9 N 0.1367(5) 0.9991(5) 0.3770(5)
C1 C -0.0217(6) 1.3384(5) 0.3701(5)
C2 C -0.0888(7) 1.3509(7) 0.2827(6)
C3 C -0.2200(7) 1.3874(7) 0.3062(6)
C4 C -0.2834(7) 1.4100(6) 0.4145(7)
C5 C -0.2200(7) 1.4002(6) 0.5013(6)
C6 C -0.0880(6) 1.3658(5) 0.4756(5)
C7 C 0.1188(6) 1.3058(5) 0.4767(5)
C8 C 0.2405(6) 1.2682(5) 0.5156(5)
C9 C 0.2569(7) 1.2773(6) 0.6232(5)
C10 C 0.3780(7) 1.2394(6) 0.6485(6)
C11 C 0.4772(7) 1.1923(6) 0.5710(5)
C12 C 0.4532(6) 1.1870(5) 0.4642(5)
C13 C 0.5515(6) 1.1387(5) 0.3745(5)
C14 C 0.7313(6) 1.0567(6) 0.2772(6)
C15 C 0.8548(6) 0.9992(7) 0.2366(6)
C16 C 0.8788(7) 0.9727(7) 0.1295(7)
C17 C 0.7823(7) 0.9981(7) 0.0645(7)
C18 C 0.6606(6) 1.0515(7) 0.1041(6)
C19 C 0.6352(6) 1.0820(5) 0.2115(5)
C20 C 0.3786(6) 0.8780(6) 0.1829(5)
C21 C 0.3779(7) 1.5108(6) 0.1951(6)
H1 H -0.0462 1.3335 0.2119
H2 H -0.2669 1.3974 0.2494
H3 H -0.3718 1.4319 0.4282
H4 H -0.2612 1.4160 0.5725
H5 H 0.1884 1.3075 0.6761
H6 H 0.3921 1.2451 0.7188
H7 H 0.5583 1.1639 0.5872
H8 H 0.9177 0.9806 0.2801
H9 H 0.9610 0.9378 0.0987
H10 H 0.8017 0.9780 -0.0076
H11 H 0.5971 1.0667 0.0617
H12 H -0.0098 1.3534 0.6194
H13 H 0.7162 1.0869 0.4411
Au1_2 Au 0.38637(3) 0.69431(2) 0.18364(2)
C20_2 C 0.3786(6) 1.8780(6) 0.1829(5)
N10 N 0.0493(7) 0.6487(8) 0.2178(6)
C22 C 0.1280(12) 0.6468(11) 0.0035(7)
C23 C 0.0822(8) 0.6476(7) 0.1253(7)
H14 H 0.0864 0.7215 -0.0412
H15 H 0.2187 0.6474 -0.0159
H16 H 0.1086 0.5717 -0.0125
loop_
_geom_bond_atom_site_label_1
_geom_bond_atom_site_label_2
_geom_bond_site_symmetry_1
_geom_bond_site_symmetry_2
Au1 C21 1_555 1_555
Tb1 O1 1_555 1_555
O1 N8 1_555 1_555
O2 Tb1 1_555 1_555
O3 N8 1_555 1_555
O4 Tb1 1_555 1_555
O5 N9 1_555 1_555
O6 Tb1 1_555 1_555
N1 Tb1 1_555 1_555
N2 C6 1_555 1_555
N3 Tb1 1_555 1_555
N4 Tb1 1_555 1_555
N5 C13 1_555 1_555
N6 Tb1 1_555 1_555
N7 Tb1 1_555 1_555
N8 O2 1_555 1_555
N9 O4 1_555 1_555
C1 N1 1_555 1_555
C2 C1 1_555 1_555
C3 C2 1_555 1_555
C4 C3 1_555 1_555
C5 C4 1_555 1_555
C6 C1 1_555 1_555
C7 N1 1_555 1_555
C8 N3 1_555 1_555
C9 C8 1_555 1_555
C10 C9 1_555 1_555
C11 C10 1_555 1_555
C12 N3 1_555 1_555
C13 N4 1_555 1_555
C14 N5 1_555 1_555
C15 C14 1_555 1_555
C16 C15 1_555 1_555
C17 C16 1_555 1_555
C18 C17 1_555 1_555
C19 N4 1_555 1_555
C20 N6 1_555 1_555
C21 N7 1_555 1_555
H1 C2 1_555 1_555
H2 C3 1_555 1_555
H3 C4 1_555 1_555
H4 C5 1_555 1_555
H5 C9 1_555 1_555
H6 C10 1_555 1_555
H7 C11 1_555 1_555
H8 C15 1_555 1_555
H9 C16 1_555 1_555
H10 C17 1_555 1_555
H11 C18 1_555 1_555
H12 N2 1_555 1_555
H13 N5 1_555 1_555
N10 C23 1_555 1_555
C22 C23 1_555 1_555
H14 C22 1_555 1_555
H15 C22 1_555 1_555
H16 C22 1_555 1_555
Au1_2 C20 1_555 1_555
C20_2 Au1 1_555 1_555
O6 N9 1_555 1_555
N2 C7 1_555 1_555
C5 C6 1_555 1_555
C7 C8 1_555 1_555
C11 C12 1_555 1_555
C12 C13 1_555 1_555
C14 C19 1_555 1_555
C18 C19 1_555 1_555

#END
