
#######################################################################
#
#                 Cambridge Crystallographic Data Centre
#                                CCDC 
#
#######################################################################
#
# If this CIF has been generated from an entry in the Cambridge 
# Structural Database, then it will include bibliographic, chemical, 
# crystal, experimental, refinement or atomic coordinate data resulting 
# from the CCDC's data processing and validation procedures.
#
#######################################################################

data_LIQLIH08
_symmetry_cell_setting           monoclinic
_symmetry_space_group_name_H-M   'P 21/c'
_symmetry_Int_Tables_number      14
_space_group_name_Hall           '-P 2ybc'
loop_
_symmetry_equiv_pos_site_id
_symmetry_equiv_pos_as_xyz
1 x,y,z
2 -x,1/2+y,1/2-z
3 -x,-y,-z
4 x,1/2-y,1/2+z
_cell_length_a                   7.6300(6)
_cell_length_b                   7.5027(14)
_cell_length_c                   6.8168(12)
_cell_angle_alpha                90
_cell_angle_beta                 112.657(8)
_cell_angle_gamma                90
_cell_volume                     360.117
loop_
_atom_site_label
_atom_site_type_symbol
_atom_site_fract_x
_atom_site_fract_y
_atom_site_fract_z
Cu1 Cu 1.0000 0.5000 0.5000
F1 F 1.0301(3) 0.7521(4) 0.5171(3)
O1 O 1.1175(5) 0.4888(3) 0.8135(6)
N1 N 0.6827(5) 0.5169(4) 0.5024(8)
C1 C 0.6292(5) 0.6036(5) 0.6390(7)
C2 C 0.5520(5) 0.4130(5) 0.3644(7)
H1 H 0.588(3) 0.3491(19) 0.268(3)
H2 H 0.717(3) 0.6762(18) 0.741(2)
H3 H 1.101(5) 0.571(4) 0.880(2)
H4 H 1.082(5) 0.412(4) 0.873(2)
Cu1_2 Cu 0.0000 0.5000 0.5000
F1B F 0.9699(3) 0.2479(4) 0.4829(3)
O1B O 0.8825(5) 0.5112(3) 0.1865(6)
N1B N 0.3173(5) 0.4831(4) 0.4976(8)
N1B_2 N 1.3173(5) 0.4831(4) 0.4976(8)
C1B C 0.3708(5) 0.3964(5) 0.3610(7)
C2B C 0.4480(5) 0.5870(5) 0.6356(7)
H1B H 0.412(3) 0.6509(19) 0.732(3)
H2B H 0.283(3) 0.3238(18) 0.259(2)
H3B H 0.899(5) 0.429(4) 0.120(2)
H4B H 0.918(5) 0.588(4) 0.127(2)
loop_
_geom_bond_atom_site_label_1
_geom_bond_atom_site_label_2
_geom_bond_site_symmetry_1
_geom_bond_site_symmetry_2
Cu1 F1 1_555 1_555
O1 Cu1 1_555 1_555
N1 Cu1 1_555 1_555
C1 N1 1_555 1_555
C2 N1 1_555 1_555
H1 C2 1_555 1_555
H2 C1 1_555 1_555
H3 O1 1_555 1_555
H4 O1 1_555 1_555
Cu1_2 N1B 1_555 1_555
F1B Cu1 1_555 1_555
O1B Cu1 1_555 1_555
N1B C1B 1_555 1_555
N1B_2 Cu1 1_555 1_555
C1B C2 1_555 1_555
C2B C1 1_555 1_555
H1B C2B 1_555 1_555
H2B C1B 1_555 1_555
H3B O1B 1_555 1_555
H4B O1B 1_555 1_555
N1B C2B 1_555 1_555

#END
