
#######################################################################
#
#                 Cambridge Crystallographic Data Centre
#                                CCDC 
#
#######################################################################
#
# If this CIF has been generated from an entry in the Cambridge 
# Structural Database, then it will include bibliographic, chemical, 
# crystal, experimental, refinement or atomic coordinate data resulting 
# from the CCDC's data processing and validation procedures.
#
#######################################################################

data_LIQRIO
_symmetry_cell_setting           monoclinic
_symmetry_space_group_name_H-M   'C 2/c'
_symmetry_Int_Tables_number      15
_space_group_name_Hall           '-C 2yn'
loop_
_symmetry_equiv_pos_site_id
_symmetry_equiv_pos_as_xyz
1 x,y,z
2 -x,y,1/2-z
3 1/2+x,1/2+y,z
4 1/2-x,1/2+y,1/2-z
5 -x,-y,-z
6 x,-y,1/2+z
7 1/2-x,1/2-y,-z
8 1/2+x,1/2-y,1/2+z
_cell_length_a                   22.799(4)
_cell_length_b                   10.812(2)
_cell_length_c                   10.723(2)
_cell_angle_alpha                90
_cell_angle_beta                 109.793(3)
_cell_angle_gamma                90
_cell_volume                     2487.09
loop_
_atom_site_label
_atom_site_type_symbol
_atom_site_fract_x
_atom_site_fract_y
_atom_site_fract_z
Cu1 Cu 0.70874(2) 0.63231(4) 0.80312(5)
O1 O 0.41610(17) 1.3667(3) 0.6824(4)
O2 O 0.36288(14) 1.1966(3) 0.6713(3)
O3 O 0.31786(14) 0.9918(3) 0.5404(3)
O4 O 0.29464(13) 0.9110(3) 0.3385(3)
O5 O 0.62292(13) 0.6729(3) 0.7780(3)
O6 O 0.64823(16) 0.6117(3) 0.9858(3)
O7 O 0.73529(16) 0.8073(3) 0.8506(4)
O8 O 0.7077(2) 0.6508(5) 0.5885(4)
O9 O 0.6846(2) 0.4555(3) 0.7707(6)
N1 N 0.43194(14) 1.0754(3) 0.5367(3)
N2 N 0.5000 1.0777(4) 0.7500
N3 N 0.46347(15) 0.8867(3) 0.6387(3)
N4 N 0.5000 0.7051(4) 0.7500
C1 C 0.40404(19) 1.2631(4) 0.6393(4)
C2 C 0.43389(18) 1.2085(4) 0.5448(4)
H1 H 0.4130 1.2420 0.4570
H2 H 0.4771 1.2349 0.5725
C3 C 0.32956(18) 0.9684(4) 0.4370(4)
C4 C 0.39047(18) 1.0118(4) 0.4218(4)
H3 H 0.4121 0.9405 0.4034
H4 H 0.3808 1.0667 0.3460
C5 C 0.46673(16) 1.0093(3) 0.6459(4)
C6 C 0.5000 0.8303(5) 0.7500
C7 C 0.54059(19) 0.6397(4) 0.8650(5)
H5 H 0.5274 0.5541 0.8600
H6 H 0.5358 0.6754 0.9440
C8 C 0.60876(19) 0.6435(4) 0.8784(4)
H7 H 0.357(2) 1.128(4) 0.633(4)
O1A O 0.58390(17) 1.3667(3) 0.8176(4)
O2A O 0.63712(14) 1.1966(3) 0.8287(3)
O3A O 0.68214(14) 0.9918(3) 0.9596(3)
O4A O 0.70536(13) 0.9110(3) 1.1615(3)
O5A O 0.37708(13) 0.6729(3) 0.7220(3)
O6A O 0.35177(16) 0.6117(3) 0.5142(3)
N1A N 0.56806(14) 1.0754(3) 0.9633(3)
N3A N 0.53653(15) 0.8867(3) 0.8613(3)
C1A C 0.59596(19) 1.2631(4) 0.8607(4)
C2A C 0.56611(18) 1.2085(4) 0.9552(4)
H1A H 0.5870 1.2420 1.0430
H2A H 0.5229 1.2349 0.9275
C3A C 0.67044(18) 0.9684(4) 1.0630(4)
C4A C 0.60953(18) 1.0118(4) 1.0782(4)
H3A H 0.5879 0.9405 1.0966
H4A H 0.6192 1.0667 1.1540
C5A C 0.53327(16) 1.0093(3) 0.8541(4)
C7A C 0.45941(19) 0.6397(4) 0.6350(5)
H5A H 0.4726 0.5541 0.6400
H6A H 0.4642 0.6754 0.5560
C8A C 0.39124(19) 0.6435(4) 0.6216(4)
H7A H 0.643(2) 1.128(4) 0.867(4)
Cu1A Cu 0.29126(2) 0.63231(4) 0.69688(5)
O7A O 0.26471(16) 0.8073(3) 0.6494(4)
O8A O 0.2923(2) 0.6508(5) 0.9115(4)
O9A O 0.3154(2) 0.4555(3) 0.7293(6)
Cu1F Cu 0.79126(2) 0.86769(4) 1.19688(5)
Cu1G Cu 0.20874(2) 0.86769(4) 0.30312(5)
O4F O 0.20536(13) 0.5890(3) 0.6615(3)
O4G O 0.79464(13) 0.5890(3) 0.8385(3)
loop_
_geom_bond_atom_site_label_1
_geom_bond_atom_site_label_2
_geom_bond_site_symmetry_1
_geom_bond_site_symmetry_2
Cu1 O5 1_555 1_555
O1 C1 1_555 1_555
O2 C1 1_555 1_555
O3 C3 1_555 1_555
O4 C3 1_555 1_555
O5 C8 1_555 1_555
O6 Cu1 1_555 1_555
O7 Cu1 1_555 1_555
O8 Cu1 1_555 1_555
O9 Cu1 1_555 1_555
N1 C2 1_555 1_555
N2 C5 1_555 1_555
N3 C5 1_555 1_555
N4 C6 1_555 1_555
C1 C2 1_555 1_555
C2 H1 1_555 1_555
H2 C2 1_555 1_555
C3 C4 1_555 1_555
C4 N1 1_555 1_555
H3 C4 1_555 1_555
H4 C4 1_555 1_555
C5 N1 1_555 1_555
C6 N3 1_555 1_555
C7 N4 1_555 1_555
H5 C7 1_555 1_555
H6 C7 1_555 1_555
C8 O6 1_555 1_555
H7 O2 1_555 1_555
O1A C1A 1_555 1_555
O2A C1A 1_555 1_555
O3A C3A 1_555 1_555
O4A C3A 1_555 1_555
O5A C8A 1_555 1_555
O6A C8A 1_555 1_555
N1A C2A 1_555 1_555
N3A C6 1_555 1_555
C1A C2A 1_555 1_555
C2A H1A 1_555 1_555
H2A C2A 1_555 1_555
C3A C4A 1_555 1_555
C4A N1A 1_555 1_555
H3A C4A 1_555 1_555
H4A C4A 1_555 1_555
C5A N2 1_555 1_555
C7A N4 1_555 1_555
H5A C7A 1_555 1_555
H6A C7A 1_555 1_555
C8A C7A 1_555 1_555
H7A O2A 1_555 1_555
Cu1A O5A 1_555 1_555
O7A Cu1A 1_555 1_555
O8A Cu1A 1_555 1_555
O9A Cu1A 1_555 1_555
Cu1F O4A 1_555 1_555
Cu1G O4 1_555 1_555
O4F Cu1A 1_555 1_555
O4G Cu1 1_555 1_555
C7 C8 1_555 1_555
O6A Cu1A 1_555 1_555
N1A C5A 1_555 1_555
N3A C5A 1_555 1_555

#END
