
#######################################################################
#
#                 Cambridge Crystallographic Data Centre
#                                CCDC 
#
#######################################################################
#
# If this CIF has been generated from an entry in the Cambridge 
# Structural Database, then it will include bibliographic, chemical, 
# crystal, experimental, refinement or atomic coordinate data resulting 
# from the CCDC's data processing and validation procedures.
#
#######################################################################

data_LIQSOU01
_symmetry_cell_setting           monoclinic
_symmetry_space_group_name_H-M   'P 21/m'
_symmetry_Int_Tables_number      11
_space_group_name_Hall           '-P 2yb'
loop_
_symmetry_equiv_pos_site_id
_symmetry_equiv_pos_as_xyz
1 x,y,z
2 -x,1/2+y,-z
3 -x,-y,-z
4 x,1/2-y,z
_cell_length_a                   8.1404(3)
_cell_length_b                   14.9543(7)
_cell_length_c                   10.7338(5)
_cell_angle_alpha                90
_cell_angle_beta                 98.092(2)
_cell_angle_gamma                90
_cell_volume                     1293.66
loop_
_atom_site_label
_atom_site_type_symbol
_atom_site_fract_x
_atom_site_fract_y
_atom_site_fract_z
Ni1 Ni 0.59081(6) 0.84801(3) 0.83464(5)
N1 N 0.3953(6) 0.7500 0.8462(5)
N2 N 0.7200(6) 0.7500 0.9582(5)
N3 N 0.6440(6) 0.7500 0.7022(5)
N4 N 0.4579(4) 0.9253(2) 0.6997(3)
N5 N 0.7944(4) 0.9264(2) 0.8217(3)
N6 N 0.3220(6) 0.7500 0.9352(6)
C1 C 0.4882(5) 1.0124(3) 0.6840(4)
C2 C 0.7827(5) 1.0131(3) 0.7916(4)
N7 N 0.7645(7) 0.7500 0.6494(5)
N8 N 0.8794(9) 0.7500 0.5985(6)
N9 N 0.2464(7) 0.7500 1.0189(6)
C3 C 0.2467(6) 1.0311(3) 0.5326(5)
H1 H 0.1750 1.0664 0.4781
C4 C 0.3247(5) 0.8917(3) 0.6272(4)
H2 H 0.3030 0.8311 0.6349
N10 N 0.7308(9) 0.7500 1.1791(7)
N11 N 0.7229(6) 0.7500 1.0688(7)
C5 C 0.9495(5) 0.8936(3) 0.8581(4)
H3 H 0.9602 0.8332 0.8780
C6 C 0.3823(6) 1.0679(3) 0.6043(5)
H4 H 0.4036 1.1289 0.6000
N12 N 0.6299(5) 1.0503(2) 0.7486(4)
H5 H 0.6216 1.1063 0.7648
C7 C 0.2182(6) 0.9400(3) 0.5427(5)
H6 H 0.1292 0.9125 0.4934
N13 N 0.5000 1.0000 1.0000
N14 N 0.5249(4) 0.9239(2) 0.9810(3)
C8 C 1.0763(6) 1.0326(3) 0.8385(5)
H7 H 1.1704 1.0685 0.8443
C9 C 0.9245(6) 1.0680(3) 0.8015(4)
H8 H 0.9137 1.1286 0.7827
C10 C 1.0904(6) 0.9441(3) 0.8672(4)
H9 H 1.1939 0.9185 0.8925
Ni1B Ni 0.40919(6) 1.15199(3) 1.16536(5)
Ni1C Ni 0.59081(6) 0.65199(3) 0.83464(5)
N1A N 0.6047(6) 1.2500 1.1538(5)
N2A N 0.2800(6) 1.2500 1.0418(5)
N3A N 0.3560(6) 1.2500 1.2978(5)
N4B N 0.5421(4) 1.0747(2) 1.3003(3)
N5B N 0.2056(4) 1.0736(2) 1.1783(3)
C1B C 0.5118(5) 0.9876(3) 1.3160(4)
C2B C 0.2173(5) 0.9869(3) 1.2084(4)
C3B C 0.7533(6) 0.9689(3) 1.4674(5)
H1B H 0.8250 0.9336 1.5219
C4B C 0.6753(5) 1.1083(3) 1.3728(4)
H2B H 0.6970 1.1689 1.3651
C5B C 0.0505(5) 1.1064(3) 1.1419(4)
H3B H 0.0398 1.1668 1.1220
C6B C 0.6177(6) 0.9321(3) 1.3957(5)
H4B H 0.5964 0.8711 1.4000
N12B N 0.3701(5) 0.9497(2) 1.2514(4)
H5B H 0.3784 0.8937 1.2352
C7B C 0.7818(6) 1.0600(3) 1.4573(5)
H6B H 0.8708 1.0875 1.5066
N14B N 0.4751(4) 1.0761(2) 1.0190(3)
C8B C -0.0763(6) 0.9674(3) 1.1615(5)
H7B H -0.1704 0.9315 1.1557
C9B C 0.0755(6) 0.9320(3) 1.1985(4)
H8B H 0.0863 0.8714 1.2173
C10B C -0.0904(6) 1.0559(3) 1.1328(4)
H9B H -0.1939 1.0815 1.1075
O1 O 0.3510(7) 0.7500 1.2858(6)
O2 O 1.0154(7) 0.7500 0.3736(5)
loop_
_geom_bond_atom_site_label_1
_geom_bond_atom_site_label_2
_geom_bond_site_symmetry_1
_geom_bond_site_symmetry_2
Ni1 N1 1_555 1_555
N1 N6 1_555 1_555
N2 Ni1 1_555 1_555
N3 Ni1 1_555 1_555
N4 Ni1 1_555 1_555
N5 Ni1 1_555 1_555
N6 N9 1_555 1_555
C1 N4 1_555 1_555
C2 N5 1_555 1_555
N7 N3 1_555 1_555
N8 N7 1_555 1_555
C3 H1 1_555 1_555
C4 N4 1_555 1_555
H2 C4 1_555 1_555
N10 N11 1_555 1_555
N11 N2 1_555 1_555
C5 N5 1_555 1_555
H3 C5 1_555 1_555
C6 C1 1_555 1_555
H4 C6 1_555 1_555
N12 C1 1_555 1_555
H5 N12 1_555 1_555
C7 C3 1_555 1_555
H6 C7 1_555 1_555
N13 N14 1_555 1_555
N14 Ni1 1_555 1_555
C8 H7 1_555 1_555
C9 C2 1_555 1_555
H8 C9 1_555 1_555
C10 C5 1_555 1_555
H9 C10 1_555 1_555
Ni1B N1A 1_555 1_555
Ni1C N1 1_555 1_555
N2A Ni1B 1_555 1_555
N3A Ni1B 1_555 1_555
N4B Ni1B 1_555 1_555
N5B Ni1B 1_555 1_555
C1B N4B 1_555 1_555
C2B N5B 1_555 1_555
C3B H1B 1_555 1_555
C4B N4B 1_555 1_555
H2B C4B 1_555 1_555
C5B N5B 1_555 1_555
H3B C5B 1_555 1_555
C6B C1B 1_555 1_555
H4B C6B 1_555 1_555
N12B C1B 1_555 1_555
H5B N12B 1_555 1_555
C7B C3B 1_555 1_555
H6B C7B 1_555 1_555
N14B N13 1_555 1_555
C8B H7B 1_555 1_555
C9B C2B 1_555 1_555
H8B C9B 1_555 1_555
C10B C5B 1_555 1_555
H9B C10B 1_555 1_555
N2 Ni1C 1_555 1_555
N3 Ni1C 1_555 1_555
C2 N12 1_555 1_555
C3 C6 1_555 1_555
C4 C7 1_555 1_555
C8 C9 1_555 1_555
C8 C10 1_555 1_555
Ni1B N14B 1_555 1_555
C2B N12B 1_555 1_555
C3B C6B 1_555 1_555
C4B C7B 1_555 1_555
C8B C9B 1_555 1_555
C8B C10B 1_555 1_555

#END
