
#######################################################################
#
#                 Cambridge Crystallographic Data Centre
#                                CCDC 
#
#######################################################################
#
# If this CIF has been generated from an entry in the Cambridge 
# Structural Database, then it will include bibliographic, chemical, 
# crystal, experimental, refinement or atomic coordinate data resulting 
# from the CCDC's data processing and validation procedures.
#
#######################################################################

data_LIQSOU
_symmetry_cell_setting           monoclinic
_symmetry_space_group_name_H-M   'P 21/m'
_symmetry_Int_Tables_number      11
_space_group_name_Hall           '-P 2yb'
loop_
_symmetry_equiv_pos_site_id
_symmetry_equiv_pos_as_xyz
1 x,y,z
2 -x,1/2+y,-z
3 -x,-y,-z
4 x,1/2-y,z
_cell_length_a                   8.139(2)
_cell_length_b                   14.940(4)
_cell_length_c                   10.722(3)
_cell_angle_alpha                90
_cell_angle_beta                 97.975(4)
_cell_angle_gamma                90
_cell_volume                     1291.15
loop_
_atom_site_label
_atom_site_type_symbol
_atom_site_fract_x
_atom_site_fract_y
_atom_site_fract_z
Ni1 Ni 0.09158(6) 0.15216(3) 0.33389(5)
N1 N 0.2949(4) 0.0732(2) 0.3210(4)
N2 N -0.0427(4) 0.0739(2) 0.1984(3)
N3 N 0.1297(5) -0.0513(3) 0.2491(4)
H1 H 0.1212 -0.1072 0.2661
N4 N 0.2211(6) 0.2500 0.4589(5)
N5 N 0.2237(7) 0.2500 0.5684(6)
N6 N 0.2287(11) 0.2500 0.6773(9)
N7 N -0.1027(6) 0.2500 0.3467(5)
N8 N -0.1770(7) 0.2500 0.4335(6)
N9 N -0.2553(9) 0.2500 0.5158(7)
N10 N 0.1455(7) 0.2500 0.2008(5)
N11 N 0.2622(8) 0.2500 0.1482(6)
N12 N 0.3792(12) 0.2500 0.0968(9)
N13 N 0.0244(5) 0.0759(3) 0.4813(4)
N14 N 0.0000 0.0000 0.5000
C1 C 0.2826(5) -0.0134(3) 0.2911(4)
C2 C 0.4215(6) -0.0692(4) 0.3007(5)
H2 H 0.4094 -0.1298 0.2812
C3 C 0.5754(6) -0.0340(4) 0.3390(5)
H3 H 0.6692 -0.0702 0.3466
C4 C 0.5894(6) 0.0562(3) 0.3662(5)
H4 H 0.6928 0.0823 0.3903
C5 C 0.4482(5) 0.1063(3) 0.3569(5)
H5 H 0.4583 0.1668 0.3765
C6 C -0.0117(5) -0.0130(3) 0.1838(4)
C7 C -0.1185(6) -0.0678(4) 0.1032(5)
H6 H -0.0973 -0.1286 0.0970
C8 C -0.2545(6) -0.0299(4) 0.0338(5)
H7 H -0.3278 -0.0653 -0.0193
C9 C -0.2829(7) 0.0601(4) 0.0423(5)
H8 H -0.3718 0.0873 -0.0073
C10 C -0.1761(6) 0.1090(3) 0.1265(5)
H9 H -0.1970 0.1698 0.1342
Ni1C Ni 0.09158(6) 0.34784(3) 0.33389(5)
Ni1B Ni -0.09158(6) -0.15216(3) 0.66611(5)
N1C N 0.2949(4) 0.4268(2) 0.3210(4)
N2C N -0.0427(4) 0.4261(2) 0.1984(3)
N3C N 0.1297(5) 0.5513(3) 0.2491(4)
H1C H 0.1212 0.6072 0.2661
N13B N -0.0244(5) -0.0759(3) 0.5187(4)
N13C N 0.0244(5) 0.4241(3) 0.4813(4)
C1C C 0.2826(5) 0.5134(3) 0.2911(4)
C2C C 0.4215(6) 0.5692(4) 0.3007(5)
H2C H 0.4094 0.6298 0.2812
C3C C 0.5754(6) 0.5340(4) 0.3390(5)
H3C H 0.6692 0.5702 0.3466
C4C C 0.5894(6) 0.4438(3) 0.3662(5)
H4C H 0.6928 0.4177 0.3903
C5C C 0.4482(5) 0.3937(3) 0.3569(5)
H5C H 0.4583 0.3332 0.3765
C6C C -0.0117(5) 0.5130(3) 0.1838(4)
C7C C -0.1185(6) 0.5678(4) 0.1032(5)
H6C H -0.0973 0.6286 0.0970
C8C C -0.2545(6) 0.5299(4) 0.0338(5)
H7C H -0.3278 0.5653 -0.0193
C9C C -0.2829(7) 0.4399(4) 0.0423(5)
H8C H -0.3718 0.4127 -0.0073
C10C C -0.1761(6) 0.3910(3) 0.1265(5)
H9C H -0.1970 0.3302 0.1342
O1 O 0.8547(11) 0.2500 0.7820(9)
O2 O 0.4847(11) -0.2500 0.1255(9)
loop_
_geom_bond_atom_site_label_1
_geom_bond_atom_site_label_2
_geom_bond_site_symmetry_1
_geom_bond_site_symmetry_2
Ni1 N1 1_555 1_555
N1 C1 1_555 1_555
N2 Ni1 1_555 1_555
N3 H1 1_555 1_555
N4 Ni1 1_555 1_555
N5 N4 1_555 1_555
N6 N5 1_555 1_555
N7 Ni1 1_555 1_555
N8 N7 1_555 1_555
N9 N8 1_555 1_555
N10 Ni1 1_555 1_555
N11 N10 1_555 1_555
N12 N11 1_555 1_555
N13 Ni1 1_555 1_555
N14 N13 1_555 1_555
C1 N3 1_555 1_555
C2 C1 1_555 1_555
H2 C2 1_555 1_555
C3 C2 1_555 1_555
H3 C3 1_555 1_555
C4 C3 1_555 1_555
H4 C4 1_555 1_555
C5 N1 1_555 1_555
H5 C5 1_555 1_555
C6 N2 1_555 1_555
C7 C6 1_555 1_555
H6 C7 1_555 1_555
C8 C7 1_555 1_555
H7 C8 1_555 1_555
C9 C8 1_555 1_555
H8 C9 1_555 1_555
C10 N2 1_555 1_555
H9 C10 1_555 1_555
Ni1C N4 1_555 1_555
Ni1B N13B 1_555 1_555
N1C Ni1C 1_555 1_555
N2C Ni1C 1_555 1_555
N3C H1C 1_555 1_555
N13B N14 1_555 1_555
N13C Ni1C 1_555 1_555
C1C N1C 1_555 1_555
C2C C1C 1_555 1_555
H2C C2C 1_555 1_555
C3C C2C 1_555 1_555
H3C C3C 1_555 1_555
C4C C3C 1_555 1_555
H4C C4C 1_555 1_555
C5C N1C 1_555 1_555
H5C C5C 1_555 1_555
C6C N2C 1_555 1_555
C7C C6C 1_555 1_555
H6C C7C 1_555 1_555
C8C C7C 1_555 1_555
H7C C8C 1_555 1_555
C9C C8C 1_555 1_555
H8C C9C 1_555 1_555
C10C N2C 1_555 1_555
H9C C10C 1_555 1_555
N3 C6 1_555 1_555
N7 Ni1C 1_555 1_555
N10 Ni1C 1_555 1_555
C4 C5 1_555 1_555
C9 C10 1_555 1_555
N3C C1C 1_555 1_555
N3C C6C 1_555 1_555
C4C C5C 1_555 1_555
C9C C10C 1_555 1_555

#END
