
#######################################################################
#
#                 Cambridge Crystallographic Data Centre
#                                CCDC 
#
#######################################################################
#
# If this CIF has been generated from an entry in the Cambridge 
# Structural Database, then it will include bibliographic, chemical, 
# crystal, experimental, refinement or atomic coordinate data resulting 
# from the CCDC's data processing and validation procedures.
#
#######################################################################

data_LIQVEN
_symmetry_cell_setting           tetragonal
_symmetry_space_group_name_H-M   'P 43 2 2'
_symmetry_Int_Tables_number      95
_space_group_name_Hall           'P 4cw 2c'
loop_
_symmetry_equiv_pos_site_id
_symmetry_equiv_pos_as_xyz
1 x,y,z
2 -x,-y,1/2+z
3 -y,x,3/4+z
4 y,-x,1/4+z
5 -x,y,-z
6 x,-y,1/2-z
7 y,x,1/4-z
8 -y,-x,3/4-z
_cell_length_a                   8.0757(3)
_cell_length_b                   8.0757(3)
_cell_length_c                   28.0230(19)
_cell_angle_alpha                90
_cell_angle_beta                 90
_cell_angle_gamma                90
_cell_volume                     1827.57
loop_
_atom_site_label
_atom_site_type_symbol
_atom_site_fract_x
_atom_site_fract_y
_atom_site_fract_z
C1 C 0.7140(6) 0.9079(6) 0.04743(15)
C2 C 0.5924(5) 0.7706(6) 0.05823(13)
C3 C 0.4267(5) 0.8063(5) 0.06431(14)
H1 H 0.3924 0.9161 0.0654
C4 C 0.3107(5) 0.6811(5) 0.06879(13)
H2 H 0.1990 0.7060 0.0725
C5 C 0.3630(5) 0.5204(5) 0.06776(12)
C6 C 0.5288(5) 0.4786(5) 0.06352(13)
H3 H 0.5624 0.3684 0.0643
C7 C 0.6433(5) 0.6049(5) 0.05815(14)
H4 H 0.7548 0.5794 0.0545
C8 C 0.2347(5) 0.2586(5) 0.03977(15)
H5 H 0.3155 0.2318 0.0174
C9 C 0.1002(6) 0.3888(6) 0.09668(16)
H6 H 0.0697 0.4645 0.1201
C10 C 0.0158(6) 0.2539(6) 0.08253(16)
H7 H -0.0854 0.2198 0.0950
Co1 Co 0.0000 0.01308(8) 0.0000
N1 N 0.2413(4) 0.3912(4) 0.06917(11)
N2 N 0.1008(4) 0.1739(4) 0.04696(12)
O1 O 0.6716(5) 1.0533(4) 0.05366(14)
O2 O 0.8540(4) 0.8590(4) 0.03200(11)
C1D C -0.7140(6) 0.9079(6) -0.04743(15)
C2D C -0.5924(5) 0.7706(6) -0.05823(13)
C3D C -0.4267(5) 0.8063(5) -0.06431(14)
H1D H -0.3924 0.9161 -0.0654
C4D C -0.3107(5) 0.6811(5) -0.06879(13)
H2D H -0.1990 0.7060 -0.0725
C5D C -0.3630(5) 0.5204(5) -0.06776(12)
C6D C -0.5288(5) 0.4786(5) -0.06352(13)
H3D H -0.5624 0.3684 -0.0643
C7D C -0.6433(5) 0.6049(5) -0.05815(14)
H4D H -0.7548 0.5794 -0.0545
C8D C -0.2347(5) 0.2586(5) -0.03977(15)
H5D H -0.3155 0.2318 -0.0174
C9D C -0.1002(6) 0.3888(6) -0.09668(16)
H6D H -0.0697 0.4645 -0.1201
C10D C -0.0158(6) 0.2539(6) -0.08253(16)
H7D H 0.0854 0.2198 -0.0950
Co1_2 Co 1.0000 1.01308(8) 0.0000
Co1_3 Co -1.0000 1.01308(8) 0.0000
N1D N -0.2413(4) 0.3912(4) -0.06917(11)
N2D N -0.1008(4) 0.1739(4) -0.04696(12)
O1D O -0.6716(5) 1.0533(4) -0.05366(14)
O2D O -0.8540(4) 0.8590(4) -0.03200(11)
O2_2 O -0.1460(4) -0.1410(4) 0.03200(11)
O2D_2 O 0.1460(4) -0.1410(4) -0.03200(11)
loop_
_geom_bond_atom_site_label_1
_geom_bond_atom_site_label_2
_geom_bond_site_symmetry_1
_geom_bond_site_symmetry_2
C1 C2 1_555 1_555
C2 C3 1_555 1_555
C3 H1 1_555 1_555
C4 C3 1_555 1_555
H2 C4 1_555 1_555
C5 C4 1_555 1_555
C6 C5 1_555 1_555
H3 C6 1_555 1_555
C7 C2 1_555 1_555
H4 C7 1_555 1_555
C8 H5 1_555 1_555
C9 H6 1_555 1_555
C10 C9 1_555 1_555
H7 C10 1_555 1_555
Co1 N2 1_555 1_555
N1 C5 1_555 1_555
N2 C8 1_555 1_555
O1 C1 1_555 1_555
O2 C1 1_555 1_555
C1D C2D 1_555 1_555
C2D C3D 1_555 1_555
C3D H1D 1_555 1_555
C4D C3D 1_555 1_555
H2D C4D 1_555 1_555
C5D C4D 1_555 1_555
C6D C5D 1_555 1_555
H3D C6D 1_555 1_555
C7D C2D 1_555 1_555
H4D C7D 1_555 1_555
C8D H5D 1_555 1_555
C9D H6D 1_555 1_555
C10D C9D 1_555 1_555
H7D C10D 1_555 1_555
Co1_2 O2 1_555 1_555
Co1_3 O2D 1_555 1_555
N1D C5D 1_555 1_555
N2D Co1 1_555 1_555
O1D C1D 1_555 1_555
O2D C1D 1_555 1_555
O2_2 Co1 1_555 1_555
O2D_2 Co1 1_555 1_555
C6 C7 1_555 1_555
C8 N1 1_555 1_555
C9 N1 1_555 1_555
C10 N2 1_555 1_555
C6D C7D 1_555 1_555
C8D N1D 1_555 1_555
C8D N2D 1_555 1_555
C9D N1D 1_555 1_555
C10D N2D 1_555 1_555

#END
