
#######################################################################
#
#                 Cambridge Crystallographic Data Centre
#                                CCDC 
#
#######################################################################
#
# If this CIF has been generated from an entry in the Cambridge 
# Structural Database, then it will include bibliographic, chemical, 
# crystal, experimental, refinement or atomic coordinate data resulting 
# from the CCDC's data processing and validation procedures.
#
#######################################################################

data_LIRJUS
_symmetry_cell_setting           monoclinic
_symmetry_space_group_name_H-M   'P 21'
_symmetry_Int_Tables_number      4
_space_group_name_Hall           'P 2yb'
loop_
_symmetry_equiv_pos_site_id
_symmetry_equiv_pos_as_xyz
1 x,y,z
2 -x,1/2+y,-z
_cell_length_a                   13.7751(4)
_cell_length_b                   15.2061(6)
_cell_length_c                   16.6762(4)
_cell_angle_alpha                90
_cell_angle_beta                 94.453(3)
_cell_angle_gamma                90
_cell_volume                     3482.54
loop_
_atom_site_label
_atom_site_type_symbol
_atom_site_fract_x
_atom_site_fract_y
_atom_site_fract_z
Ag1 Ag 0.19453(4) 0.78795(4) 1.37960(2)
S1 S 0.44452(9) 0.64930(9) 0.87840(8)
C1 C 0.3268(4) 0.6282(3) 0.8331(3)
C2 C 0.3202(4) 0.5957(3) 0.7548(3)
H1 H 0.3772 0.5946 0.7262
C3 C 0.2320(4) 0.5641(4) 0.7163(3)
C4 C 0.1502(4) 0.5707(4) 0.7598(3)
H2 H 0.0890 0.5520 0.7355
C5 C 0.1548(4) 0.6036(3) 0.8374(3)
C6 C 0.2437(4) 0.6332(3) 0.8756(3)
C7 C 0.2298(4) 0.5269(4) 0.6316(3)
C8 C 0.2620(7) 0.5950(6) 0.5743(4)
H3 H 0.2635 0.6528 0.6004
H4 H 0.2163 0.5964 0.5263
H5 H 0.3272 0.5803 0.5587
C9 C 0.2931(7) 0.4437(5) 0.6310(4)
H6 H 0.2905 0.4197 0.5763
H7 H 0.2685 0.3998 0.6674
H8 H 0.3606 0.4585 0.6489
C10 C 0.1260(6) 0.5000(8) 0.5999(5)
H9 H 0.0866 0.5529 0.5886
H10 H 0.0964 0.4644 0.6406
H11 H 0.1288 0.4656 0.5505
O1 O 0.2467(3) 0.6667(2) 0.9520(2)
C11 C 0.2649(5) 0.6038(4) 1.0152(3)
H12 H 0.3313 0.5790 1.0143
H13 H 0.2172 0.5551 1.0095
C12 C 0.2547(4) 0.6534(4) 1.0927(3)
H14 H 0.1903 0.6826 1.0903
H15 H 0.3055 0.6995 1.0990
C13 C 0.2646(5) 0.5910(5) 1.1659(3)
H16 H 0.2171 0.5423 1.1580
H17 H 0.3308 0.5654 1.1713
C14 C 0.2465(5) 0.6402(5) 1.2398(3)
N1 N 0.2301(5) 0.6794(6) 1.2951(3)
S2 S 0.04715(10) 0.59727(9) 0.88965(8)
C15 C 0.0276(3) 0.7012(3) 0.9323(3)
C16 C -0.0062(4) 0.7006(3) 1.0091(3)
H18 H -0.0084 0.6466 1.0376
C17 C -0.0369(3) 0.7779(3) 1.0451(3)
C18 C -0.0331(3) 0.8552(3) 1.0018(3)
H19 H -0.0547 0.9083 1.0246
C19 C 0.0018(3) 0.8573(3) 0.9251(3)
C20 C 0.0322(3) 0.7814(4) 0.8899(3)
C21 C -0.0724(4) 0.7729(4) 1.1301(3)
C22 C 0.0057(4) 0.7312(4) 1.1876(3)
H20 H -0.0151 0.7328 1.2424
H21 H 0.0668 0.7639 1.1856
H22 H 0.0157 0.6700 1.1717
C23 C -0.1652(4) 0.7185(4) 1.1275(3)
H23 H -0.1533 0.6607 1.1040
H24 H -0.2169 0.7487 1.0945
H25 H -0.1852 0.7109 1.1822
C24 C -0.0936(5) 0.8651(4) 1.1627(3)
H26 H -0.1404 0.8953 1.1249
H27 H -0.0330 0.8991 1.1688
H28 H -0.1208 0.8597 1.2150
O2 O 0.0713(3) 0.7821(3) 0.8172(2)
C25 C 0.0020(4) 0.7782(6) 0.7495(3)
H29 H -0.0456 0.8268 0.7512
H30 H -0.0336 0.7217 0.7484
C26 C 0.0609(4) 0.7869(5) 0.6749(3)
H31 H 0.0948 0.8443 0.6759
H32 H 0.1107 0.7398 0.6755
C27 C -0.0061(5) 0.7797(9) 0.6005(4)
H33 H -0.0408 0.7227 0.6008
H34 H -0.0553 0.8272 0.6004
C28 C 0.0454(5) 0.7860(6) 0.5270(3)
N2 N 0.0858(4) 0.7890(5) 0.4721(3)
S3 S -0.01118(9) 0.95945(9) 0.87387(8)
C29 C 0.0967(3) 0.9785(3) 0.8258(3)
C30 C 0.0842(4) 1.0122(3) 0.7485(3)
H35 H 0.0208 1.0146 0.7218
C31 C 0.1641(4) 1.0431(4) 0.7090(3)
C32 C 0.2561(4) 1.0374(3) 0.7489(3)
H36 H 0.3110 1.0580 0.7232
C33 C 0.2694(3) 1.0016(3) 0.8268(3)
C34 C 0.1889(3) 0.9704(3) 0.8650(3)
C35 C 0.1526(5) 1.0800(4) 0.6226(3)
C36 C 0.0473(5) 1.0790(6) 0.5863(4)
H37 H 0.0070 1.1151 0.6193
H38 H 0.0229 1.0185 0.5847
H39 H 0.0445 1.1028 0.5315
C37 C 0.2147(6) 1.0268(7) 0.5681(4)
H40 H 0.2041 1.0484 0.5128
H41 H 0.1963 0.9646 0.5700
H42 H 0.2836 1.0333 0.5867
C38 C 0.1897(6) 1.1750(5) 0.6243(4)
H43 H 0.1458 1.2120 0.6531
H44 H 0.1919 1.1966 0.5691
H45 H 0.2552 1.1771 0.6517
O3 O 0.2004(3) 0.9321(3) 0.9398(2)
C39 C 0.1994(5) 0.9901(4) 1.0055(3)
H46 H 0.1393 1.0261 1.0012
H47 H 0.2563 1.0299 1.0071
C40 C 0.2033(4) 0.9333(4) 1.0807(3)
H48 H 0.2623 0.8960 1.0826
H49 H 0.1459 0.8939 1.0780
C41 C 0.2049(5) 0.9889(5) 1.1579(3)
H50 H 0.2666 1.0223 1.1645
H51 H 0.1506 1.0317 1.1531
C42 C 0.1960(5) 0.9354(5) 1.2269(4)
N3 N 0.1899(6) 0.8957(6) 1.2824(4)
S4 S 0.38801(9) 1.01014(8) 0.87662(8)
C43 C 0.4128(3) 0.9088(3) 0.9273(3)
C44 C 0.4517(3) 0.9127(3) 1.0076(3)
H52 H 0.4561 0.9679 1.0344
C45 C 0.4837(3) 0.8375(3) 1.0483(3)
C46 C 0.4753(3) 0.7565(3) 1.0082(3)
H53 H 0.4953 0.7040 1.0356
C47 C 0.4374(3) 0.7524(3) 0.9272(3)
C48 C 0.4060(3) 0.8280(3) 0.8867(3)
C49 C 0.5308(4) 0.8447(4) 1.1354(3)
C50 C 0.5553(6) 0.7540(5) 1.1712(4)
H54 H 0.5727 0.7598 1.2290
H55 H 0.6104 0.7290 1.1451
H56 H 0.4987 0.7153 1.1622
O4 O 0.3667(3) 0.8239(3) 0.8093(2)
C51 C 0.6261(5) 0.8976(5) 1.1305(4)
H57 H 0.6604 0.9014 1.1841
H58 H 0.6107 0.9569 1.1104
H59 H 0.6677 0.8678 1.0938
C52 C 0.4644(6) 0.8961(7) 1.1879(4)
H60 H 0.3996 0.8692 1.1842
H61 H 0.4593 0.9572 1.1692
H62 H 0.4918 0.8950 1.2439
C53 C 0.4336(5) 0.8327(5) 0.7500(3)
H63 H 0.4828 0.7852 0.7548
H64 H 0.4674 0.8901 0.7549
C54 C 0.3714(5) 0.8262(5) 0.6689(4)
H65 H 0.3381 0.7685 0.6650
H66 H 0.3209 0.8727 0.6660
C55 C 0.4349(6) 0.8365(8) 0.5998(4)
H67 H 0.4666 0.8950 0.6023
H68 H 0.4864 0.7910 0.6031
C56 C 0.3743(6) 0.8276(6) 0.5239(4)
N4 N 0.3270(6) 0.8203(6) 0.4687(4)
Ag1_2 Ag 0.19453(4) 0.78795(4) 0.37960(2)
N2_2 N 0.0858(4) 0.7890(5) 1.4721(3)
N4_2 N 0.3270(6) 0.8203(6) 1.4687(4)
P1 P 0.72987(14) 0.8942(2) 0.63453(11)
F1 F 0.7925(5) 0.8224(6) 0.6827(4)
F2 F 0.6649(5) 0.9628(6) 0.5859(4)
F3 F 0.6757(9) 0.8235(9) 0.5722(7)
F4 F 0.6468(9) 0.8839(12) 0.6952(7)
F5 F 0.7891(9) 0.9590(9) 0.6975(7)
F6 F 0.8120(9) 0.9014(12) 0.5724(7)
C57 C 0.4554(8) 0.6367(15) 0.3972(8)
H69 H 0.4383 0.5922 0.4372
H70 H 0.3961 0.6711 0.3810
Cl1 Cl 0.5491(3) 0.7096(6) 0.4426(4)
Cl2 Cl 0.49518(15) 0.58529(17) 0.31551(14)
C58 C 0.7366(13) 0.7986(10) 0.8658(7)
H71 H 0.8071 0.8087 0.8622
H72 H 0.7047 0.7980 0.8105
Cl3 Cl 0.7189(5) 0.6974(3) 0.9119(3)
Cl4 Cl 0.6893(3) 0.88096(19) 0.9191(2)
C59 C 0.7008(14) 0.6229(13) 0.6349(12)
H73 H 0.6852 0.5814 0.5901
H74 H 0.6938 0.6829 0.6120
Cl5 Cl 0.8166(4) 0.6095(3) 0.6638(3)
Cl6 Cl 0.6067(4) 0.6103(4) 0.7044(3)
F7? F 0.6379(9) 0.8356(11) 0.6585(9)
F8? F 0.7173(12) 0.9531(11) 0.7094(7)
F9? F 0.8194(9) 0.9453(11) 0.6070(10)
F10? F 0.7414(12) 0.8291(11) 0.5566(7)
loop_
_geom_bond_atom_site_label_1
_geom_bond_atom_site_label_2
_geom_bond_site_symmetry_1
_geom_bond_site_symmetry_2
Ag1 N1 1_555 1_555
S1 C1 1_555 1_555
C1 C2 1_555 1_555
C2 H1 1_555 1_555
C3 C2 1_555 1_555
C4 C3 1_555 1_555
H2 C4 1_555 1_555
C5 C4 1_555 1_555
C6 C1 1_555 1_555
C7 C3 1_555 1_555
C8 C7 1_555 1_555
H3 C8 1_555 1_555
H4 C8 1_555 1_555
H5 C8 1_555 1_555
C9 C7 1_555 1_555
H6 C9 1_555 1_555
H7 C9 1_555 1_555
H8 C9 1_555 1_555
C10 C7 1_555 1_555
H9 C10 1_555 1_555
H10 C10 1_555 1_555
H11 C10 1_555 1_555
O1 C6 1_555 1_555
C11 O1 1_555 1_555
H12 C11 1_555 1_555
H13 C11 1_555 1_555
C12 C11 1_555 1_555
H14 C12 1_555 1_555
H15 C12 1_555 1_555
C13 C12 1_555 1_555
H16 C13 1_555 1_555
H17 C13 1_555 1_555
C14 C13 1_555 1_555
N1 C14 1_555 1_555
S2 C5 1_555 1_555
C15 S2 1_555 1_555
C16 C15 1_555 1_555
H18 C16 1_555 1_555
C17 C16 1_555 1_555
C18 C17 1_555 1_555
H19 C18 1_555 1_555
C19 C18 1_555 1_555
C20 C15 1_555 1_555
C21 C17 1_555 1_555
C22 C21 1_555 1_555
H20 C22 1_555 1_555
H21 C22 1_555 1_555
H22 C22 1_555 1_555
C23 C21 1_555 1_555
H23 C23 1_555 1_555
H24 C23 1_555 1_555
H25 C23 1_555 1_555
C24 C21 1_555 1_555
H26 C24 1_555 1_555
H27 C24 1_555 1_555
H28 C24 1_555 1_555
O2 C20 1_555 1_555
C25 O2 1_555 1_555
H29 C25 1_555 1_555
H30 C25 1_555 1_555
C26 C25 1_555 1_555
H31 C26 1_555 1_555
H32 C26 1_555 1_555
C27 C26 1_555 1_555
H33 C27 1_555 1_555
H34 C27 1_555 1_555
C28 C27 1_555 1_555
N2 C28 1_555 1_555
S3 C19 1_555 1_555
C29 S3 1_555 1_555
C30 C29 1_555 1_555
H35 C30 1_555 1_555
C31 C30 1_555 1_555
C32 C31 1_555 1_555
H36 C32 1_555 1_555
C33 C32 1_555 1_555
C34 C29 1_555 1_555
C35 C31 1_555 1_555
C36 C35 1_555 1_555
H37 C36 1_555 1_555
H38 C36 1_555 1_555
H39 C36 1_555 1_555
C37 C35 1_555 1_555
H40 C37 1_555 1_555
H41 C37 1_555 1_555
H42 C37 1_555 1_555
C38 C35 1_555 1_555
H43 C38 1_555 1_555
H44 C38 1_555 1_555
H45 C38 1_555 1_555
O3 C34 1_555 1_555
C39 O3 1_555 1_555
H46 C39 1_555 1_555
H47 C39 1_555 1_555
C40 C39 1_555 1_555
H48 C40 1_555 1_555
H49 C40 1_555 1_555
C41 C40 1_555 1_555
H50 C41 1_555 1_555
H51 C41 1_555 1_555
C42 C41 1_555 1_555
N3 Ag1 1_555 1_555
S4 C33 1_555 1_555
C43 S4 1_555 1_555
C44 C43 1_555 1_555
H52 C44 1_555 1_555
C45 C44 1_555 1_555
C46 C45 1_555 1_555
H53 C46 1_555 1_555
C47 S1 1_555 1_555
C48 C43 1_555 1_555
C49 C45 1_555 1_555
C50 C49 1_555 1_555
H54 C50 1_555 1_555
H55 C50 1_555 1_555
H56 C50 1_555 1_555
O4 C48 1_555 1_555
C51 C49 1_555 1_555
H57 C51 1_555 1_555
H58 C51 1_555 1_555
H59 C51 1_555 1_555
C52 C49 1_555 1_555
H60 C52 1_555 1_555
H61 C52 1_555 1_555
H62 C52 1_555 1_555
C53 O4 1_555 1_555
H63 C53 1_555 1_555
H64 C53 1_555 1_555
C54 C53 1_555 1_555
H65 C54 1_555 1_555
H66 C54 1_555 1_555
C55 C54 1_555 1_555
H67 C55 1_555 1_555
H68 C55 1_555 1_555
C56 C55 1_555 1_555
N4 C56 1_555 1_555
P1 F1 1_555 1_555
F2 P1 1_555 1_555
F3 P1 1_555 1_555
F4 P1 1_555 1_555
F5 P1 1_555 1_555
F6 P1 1_555 1_555
C57 H69 1_555 1_555
H70 C57 1_555 1_555
Cl1 C57 1_555 1_555
Cl2 C57 1_555 1_555
C58 H71 1_555 1_555
H72 C58 1_555 1_555
Cl3 C58 1_555 1_555
Cl4 C58 1_555 1_555
C59 H73 1_555 1_555
H74 C59 1_555 1_555
Cl5 C59 1_555 1_555
Cl6 C59 1_555 1_555
Ag1_2 N2 1_555 1_555
N2_2 Ag1 1_555 1_555
N4_2 Ag1 1_555 1_555
C5 C6 1_555 1_555
C19 C20 1_555 1_555
C33 C34 1_555 1_555
C42 N3 1_555 1_555
C46 C47 1_555 1_555
C47 C48 1_555 1_555
N4 Ag1_2 1_555 1_555

#END
