
#######################################################################
#
#                 Cambridge Crystallographic Data Centre
#                                CCDC 
#
#######################################################################
#
# If this CIF has been generated from an entry in the Cambridge 
# Structural Database, then it will include bibliographic, chemical, 
# crystal, experimental, refinement or atomic coordinate data resulting 
# from the CCDC's data processing and validation procedures.
#
#######################################################################

data_LIRJON
_symmetry_cell_setting           tetragonal
_symmetry_space_group_name_H-M   'I -4 2 d'
_symmetry_Int_Tables_number      122
_space_group_name_Hall           'I -4 2bw'
loop_
_symmetry_equiv_pos_site_id
_symmetry_equiv_pos_as_xyz
1 x,y,z
2 -x,-y,z
3 y,-x,-z
4 -y,x,-z
5 1/2-x,y,3/4-z
6 1/2+x,-y,3/4-z
7 1/2-y,-x,3/4+z
8 1/2+y,x,3/4+z
9 1/2+x,1/2+y,1/2+z
10 1/2-x,1/2-y,1/2+z
11 1/2+y,1/2-x,1/2-z
12 1/2-y,1/2+x,1/2-z
13 -x,1/2+y,1/4-z
14 x,1/2-y,1/4-z
15 -y,1/2-x,1/4+z
16 y,1/2+x,1/4+z
_cell_length_a                   23.8796(7)
_cell_length_b                   23.8796(7)
_cell_length_c                   26.7287(8)
_cell_angle_alpha                90
_cell_angle_beta                 90
_cell_angle_gamma                90
_cell_volume                     15241.6
loop_
_atom_site_label
_atom_site_type_symbol
_atom_site_fract_x
_atom_site_fract_y
_atom_site_fract_z
Cu1 Cu 0.096777(19) 0.290869(19) 1.091760(15)
Cu2 Cu 0.20843(2) 0.384659(18) 0.908166(15)
O1 O 0.24822(11) 0.44470(12) 0.94127(10)
O2 O 0.32427(12) 0.44019(11) 0.89214(9)
C1 C 0.29724(18) 0.45784(15) 0.92949(12)
C2 C 0.32752(17) 0.49643(16) 0.96463(12)
C3 C 0.31257(18) 0.49577(17) 1.01548(12)
H1 H 0.2826 0.4740 1.0262
C4 C 0.34240(19) 0.52750(19) 1.04970(14)
H2 H 0.3323 0.5266 1.0833
C5 C 0.3868(2) 0.5604(2) 1.03482(15)
H3 H 0.4062 0.5817 1.0582
C6 C 0.4027(2) 0.56154(19) 0.98465(14)
H4 H 0.4332 0.5827 0.9742
C7 C 0.37191(17) 0.53057(17) 0.95099(13)
O3 O 0.3525(2) 0.55709(15) 0.87019(12)
O4 O 0.43417(18) 0.5215(2) 0.88552(12)
N1 N 0.3872(2) 0.53653(17) 0.89745(12)
O5 O 0.25941(12) 0.32904(12) 0.94076(9)
O6 O 0.32502(12) 0.32503(11) 0.88064(9)
C8 C 0.30419(16) 0.30997(16) 0.92211(12)
C9 C 0.33760(16) 0.26896(16) 0.95224(13)
C10 C 0.37398(18) 0.23064(18) 0.93078(14)
C11 C 0.40910(19) 0.19666(18) 0.95860(15)
H5 H 0.4333 0.1716 0.9430
C12 C 0.4074(2) 0.2009(2) 1.01043(15)
H6 H 0.4307 0.1788 1.0301
C13 C 0.37081(18) 0.2381(2) 1.03230(15)
H7 H 0.3692 0.2404 1.0670
C14 C 0.33629(19) 0.27207(18) 1.00378(14)
H8 H 0.3121 0.2971 1.0194
O7 O 0.41961(19) 0.2276(2) 0.85483(13)
O8 O 0.33135(19) 0.20791(16) 0.85660(11)
N2 N 0.3743(2) 0.22187(17) 0.87645(13)
C15 C 0.17312(16) 0.30395(17) 1.16978(12)
O9 O 0.15859(11) 0.32470(12) 1.12846(9)
O10 O 0.15108(13) 0.26178(12) 1.18995(9)
C16 C 0.21948(16) 0.33324(16) 1.19739(13)
C17 C 0.22170(18) 0.32736(17) 1.24944(14)
H9 H 0.1967 0.3037 1.2657
C18 C 0.26123(19) 0.35701(19) 1.27659(16)
H10 H 0.2628 0.3528 1.3112
C19 C 0.2984(2) 0.39274(18) 1.25292(16)
H11 H 0.3247 0.4124 1.2716
C20 C 0.29629(19) 0.39915(18) 1.20134(16)
H12 H 0.3208 0.4231 1.1849
C21 C 0.25682(18) 0.36894(17) 1.17528(14)
O11 O 0.27272(17) 0.3381(2) 1.09475(13)
N3 N 0.25793(19) 0.3769(2) 1.11950(14)
O12 O 0.2423(2) 0.42313(19) 1.10367(13)
O13 O 0.03441(12) 0.24824(12) 1.06409(9)
C22 C 0.02277(16) 0.19831(16) 1.07542(12)
O14 O 0.04340(11) 0.17142(11) 1.11148(9)
C23 C -0.01675(16) 0.16862(17) 1.04109(13)
C24 C -0.01301(18) 0.17946(18) 0.98990(14)
H13 H 0.0099 0.2082 0.9785
C25 C -0.04312(19) 0.14774(19) 0.95593(15)
H14 H -0.0406 0.1557 0.9220
C26 C -0.0765(2) 0.1049(2) 0.9718(2)
H15 H -0.0952 0.0828 0.9486
C27 C -0.0826(3) 0.0943(2) 1.0227(2)
H16 H -0.1063 0.0662 1.0340
C28 C -0.0523(2) 0.1266(2) 1.05579(16)
O15 O -0.07105(18) 0.1577(3) 1.13590(14)
O16 O -0.0646(4) 0.0701(3) 1.12407(17)
N4 N -0.0631(3) 0.1174(3) 1.11019(18)
N5 N 0.13744(13) 0.39128(13) 0.95805(10)
C29 C 0.14124(16) 0.34966(16) 0.99916(14)
H17 H 0.1753 0.3561 1.0181
H18 H 0.1431 0.3123 0.9851
N6 N 0.09201(14) 0.35369(13) 1.03313(10)
C30 C 0.04064(16) 0.34389(19) 1.00226(13)
H19 H 0.0422 0.3066 0.9880
H20 H 0.0079 0.3459 1.0236
N7 N 0.03502(14) 0.38472(17) 0.96202(11)
C31 C 0.0338(2) 0.4409(2) 0.98387(17)
H21 H 0.0012 0.4443 1.0052
H22 H 0.0304 0.4683 0.9573
N8 N 0.08461(17) 0.45331(14) 1.01347(12)
C32 C 0.1330(2) 0.44822(17) 0.98079(14)
H23 H 0.1667 0.4560 0.9998
H24 H 0.1303 0.4759 0.9543
C33 C 0.08415(16) 0.38030(19) 0.93014(12)
H25 H 0.0809 0.4069 0.9029
H26 H 0.0856 0.3430 0.9158
C34 C 0.0896(2) 0.41165(17) 1.05309(13)
H27 H 0.0578 0.4150 1.0755
H28 H 0.1233 0.4190 1.0723
Cu1M Cu 0.096777(19) 0.209131(19) 1.158240(15)
Cu2D Cu 0.29157(2) 0.384659(18) 0.841834(15)
O2D O 0.17573(12) 0.44019(11) 0.85786(9)
O6D O 0.17498(12) 0.32503(11) 0.86936(9)
O10M O 0.15108(13) 0.23822(12) 1.06005(9)
O14M O 0.04340(11) 0.32858(11) 1.13852(9)
loop_
_geom_bond_atom_site_label_1
_geom_bond_atom_site_label_2
_geom_bond_site_symmetry_1
_geom_bond_site_symmetry_2
Cu1 O9 1_555 1_555
Cu2 O1 1_555 1_555
O1 C1 1_555 1_555
O2 C1 1_555 1_555
C1 C2 1_555 1_555
C2 C3 1_555 1_555
C3 H1 1_555 1_555
C4 C3 1_555 1_555
H2 C4 1_555 1_555
C5 C4 1_555 1_555
H3 C5 1_555 1_555
C6 C5 1_555 1_555
H4 C6 1_555 1_555
C7 C2 1_555 1_555
O3 N1 1_555 1_555
O4 N1 1_555 1_555
N1 C7 1_555 1_555
O5 Cu2 1_555 1_555
O6 C8 1_555 1_555
C8 O5 1_555 1_555
C9 C8 1_555 1_555
C10 C9 1_555 1_555
C11 C10 1_555 1_555
H5 C11 1_555 1_555
C12 C11 1_555 1_555
H6 C12 1_555 1_555
C13 C12 1_555 1_555
H7 C13 1_555 1_555
C14 C9 1_555 1_555
H8 C14 1_555 1_555
O7 N2 1_555 1_555
O8 N2 1_555 1_555
N2 C10 1_555 1_555
C15 O9 1_555 1_555
O10 C15 1_555 1_555
C16 C15 1_555 1_555
C17 C16 1_555 1_555
H9 C17 1_555 1_555
C18 C17 1_555 1_555
H10 C18 1_555 1_555
C19 C18 1_555 1_555
H11 C19 1_555 1_555
C20 C19 1_555 1_555
H12 C20 1_555 1_555
C21 C16 1_555 1_555
O11 N3 1_555 1_555
N3 C21 1_555 1_555
O12 N3 1_555 1_555
O13 Cu1 1_555 1_555
C22 O13 1_555 1_555
O14 C22 1_555 1_555
C23 C22 1_555 1_555
C24 C23 1_555 1_555
H13 C24 1_555 1_555
C25 C24 1_555 1_555
H14 C25 1_555 1_555
C26 C25 1_555 1_555
H15 C26 1_555 1_555
C27 C26 1_555 1_555
H16 C27 1_555 1_555
C28 C23 1_555 1_555
O15 N4 1_555 1_555
O16 N4 1_555 1_555
N4 C28 1_555 1_555
N5 Cu2 1_555 1_555
C29 N5 1_555 1_555
H17 C29 1_555 1_555
H18 C29 1_555 1_555
N6 Cu1 1_555 1_555
C30 N6 1_555 1_555
H19 C30 1_555 1_555
H20 C30 1_555 1_555
N7 C30 1_555 1_555
C31 N7 1_555 1_555
H21 C31 1_555 1_555
H22 C31 1_555 1_555
N8 C31 1_555 1_555
C32 N5 1_555 1_555
H23 C32 1_555 1_555
H24 C32 1_555 1_555
C33 N5 1_555 1_555
H25 C33 1_555 1_555
H26 C33 1_555 1_555
C34 N6 1_555 1_555
H27 C34 1_555 1_555
H28 C34 1_555 1_555
Cu1M O10 1_555 1_555
Cu2D O2 1_555 1_555
O2D Cu2 1_555 1_555
O6D Cu2 1_555 1_555
O10M Cu1 1_555 1_555
O14M Cu1 1_555 1_555
C6 C7 1_555 1_555
O6 Cu2D 1_555 1_555
C13 C14 1_555 1_555
C20 C21 1_555 1_555
O14 Cu1M 1_555 1_555
C27 C28 1_555 1_555
C29 N6 1_555 1_555
N7 C33 1_555 1_555
N8 C32 1_555 1_555
N8 C34 1_555 1_555

#END
