
#######################################################################
#
#                 Cambridge Crystallographic Data Centre
#                                CCDC 
#
#######################################################################
#
# If this CIF has been generated from an entry in the Cambridge 
# Structural Database, then it will include bibliographic, chemical, 
# crystal, experimental, refinement or atomic coordinate data resulting 
# from the CCDC's data processing and validation procedures.
#
#######################################################################

data_LIRPOS
_symmetry_cell_setting           monoclinic
_symmetry_space_group_name_H-M   'P 21'
_symmetry_Int_Tables_number      4
_space_group_name_Hall           'P 2yb'
loop_
_symmetry_equiv_pos_site_id
_symmetry_equiv_pos_as_xyz
1 x,y,z
2 -x,1/2+y,-z
_cell_length_a                   6.8678(11)
_cell_length_b                   12.566(2)
_cell_length_c                   12.782(2)
_cell_angle_alpha                90
_cell_angle_beta                 103.462(4)
_cell_angle_gamma                90
_cell_volume                     1072.79
loop_
_atom_site_label
_atom_site_type_symbol
_atom_site_fract_x
_atom_site_fract_y
_atom_site_fract_z
Mn1 Mn 0.20943(9) 0.54297(5) 0.26194(6)
Mn2 Mn 0.70181(10) 0.45198(5) 0.25476(6)
O1 O 0.2308(5) 0.4158(3) 0.1653(3)
O2 O 0.5064(5) 0.3236(3) 0.2324(3)
O3 O 0.0898(4) 0.0665(2) -0.1860(3)
O4 O 0.3325(5) -0.0227(3) -0.0833(3)
O5 O -0.0859(5) 0.3987(3) 0.3831(3)
O6 O 0.2030(5) 0.4855(3) 0.4102(3)
O7 O 0.6751(5) 0.2029(3) 0.7252(3)
O8 O 0.4522(5) 0.0764(3) 0.6948(3)
C1 C 0.2128(6) 0.2270(4) 0.1437(4)
C2 C 0.2061(8) 0.2096(4) 0.0208(4)
C3 C 0.1399(7) 0.0905(4) 0.0057(4)
H1 H -0.0060 0.0882 -0.0048
C4 C 0.2321(8) 0.0340(5) 0.1125(4)
H2 H 0.3378 -0.0142 0.1040
H3 H 0.1310 -0.0063 0.1373
C5 C 0.3173(8) 0.1241(5) 0.1930(5)
H4 H 0.2886 0.1103 0.2626
H5 H 0.4612 0.1299 0.2022
C6 C 0.0013(8) 0.2331(5) 0.1640(5)
H6 H 0.0105 0.2444 0.2393
H7 H -0.0684 0.1677 0.1419
H8 H -0.0704 0.2911 0.1236
C7 C 0.0577(9) 0.2826(5) -0.0550(5)
H9 H 0.0605 0.2672 -0.1282
H10 H 0.0945 0.3555 -0.0392
H11 H -0.0749 0.2706 -0.0450
C8 C 0.4097(8) 0.2262(5) -0.0029(5)
H12 H 0.4008 0.2144 -0.0781
H13 H 0.5036 0.1770 0.0387
H14 H 0.4538 0.2977 0.0155
C9 C 0.3275(7) 0.3279(4) 0.1850(4)
C10 C 0.1913(6) 0.0399(4) -0.0911(4)
C11 C 0.1342(6) 0.3842(4) 0.5563(4)
C12 C 0.2294(7) 0.2695(4) 0.5586(4)
C13 C 0.3308(6) 0.2579(4) 0.6802(4)
H15 H 0.2282 0.2349 0.7173
C14 C 0.3990(8) 0.3713(4) 0.7206(4)
H16 H 0.3543 0.3879 0.7853
H17 H 0.5438 0.3769 0.7363
C15 C 0.3039(7) 0.4467(4) 0.6299(4)
H18 H 0.4017 0.4692 0.5906
H19 H 0.2515 0.5093 0.6584
C16 C -0.0513(7) 0.3859(5) 0.6031(5)
H20 H -0.1566 0.3457 0.5574
H21 H -0.0945 0.4580 0.6076
H22 H -0.0194 0.3549 0.6736
C17 C 0.0709(8) 0.1830(4) 0.5213(5)
H23 H 0.1351 0.1148 0.5243
H24 H -0.0007 0.1973 0.4488
H25 H -0.0211 0.1826 0.5676
C18 C 0.3818(8) 0.2646(5) 0.4900(5)
H26 H 0.4371 0.1942 0.4931
H27 H 0.4870 0.3149 0.5166
H28 H 0.3178 0.2817 0.4169
C19 C 0.0817(6) 0.4270(4) 0.4410(4)
C20 C 0.4958(7) 0.1768(4) 0.7021(4)
Mn1A Mn -0.20943(9) 0.04297(5) -0.26194(6)
Mn1A_2 Mn 0.79057(9) 0.04297(5) 0.73806(6)
Mn2A Mn 0.29819(10) -0.04802(5) -0.25476(6)
Mn2_2 Mn -0.29819(10) 0.45198(5) 0.25476(6)
Mn2A_2 Mn 0.29819(10) -0.04802(5) 0.74524(6)
O3A O -0.0898(4) 0.5665(2) 0.1860(3)
O3A_2 O 0.9102(4) 0.5665(2) 0.1860(3)
O4A O 0.6675(5) 0.4773(3) 0.0833(3)
O5_2 O 0.9141(5) 0.3987(3) 0.3831(3)
O7A O 0.3249(5) 0.7029(3) 0.2748(3)
O8A O 0.5478(5) 0.5764(3) 0.3052(3)
loop_
_geom_bond_atom_site_label_1
_geom_bond_atom_site_label_2
_geom_bond_site_symmetry_1
_geom_bond_site_symmetry_2
Mn1 O1 1_555 1_555
Mn2 O2 1_555 1_555
O1 C9 1_555 1_555
O2 C9 1_555 1_555
O3 C10 1_555 1_555
O4 C10 1_555 1_555
O5 C19 1_555 1_555
O6 Mn1 1_555 1_555
O7 C20 1_555 1_555
O8 C20 1_555 1_555
C1 C2 1_555 1_555
C2 C3 1_555 1_555
C3 H1 1_555 1_555
C4 C3 1_555 1_555
H2 C4 1_555 1_555
H3 C4 1_555 1_555
C5 C1 1_555 1_555
H4 C5 1_555 1_555
H5 C5 1_555 1_555
C6 C1 1_555 1_555
H6 C6 1_555 1_555
H7 C6 1_555 1_555
H8 C6 1_555 1_555
C7 C2 1_555 1_555
H9 C7 1_555 1_555
H10 C7 1_555 1_555
H11 C7 1_555 1_555
C8 C2 1_555 1_555
H12 C8 1_555 1_555
H13 C8 1_555 1_555
H14 C8 1_555 1_555
C9 C1 1_555 1_555
C10 C3 1_555 1_555
C11 C12 1_555 1_555
C12 C13 1_555 1_555
C13 H15 1_555 1_555
C14 C13 1_555 1_555
H16 C14 1_555 1_555
H17 C14 1_555 1_555
C15 C11 1_555 1_555
H18 C15 1_555 1_555
H19 C15 1_555 1_555
C16 C11 1_555 1_555
H20 C16 1_555 1_555
H21 C16 1_555 1_555
H22 C16 1_555 1_555
C17 C12 1_555 1_555
H23 C17 1_555 1_555
H24 C17 1_555 1_555
H25 C17 1_555 1_555
C18 C12 1_555 1_555
H26 C18 1_555 1_555
H27 C18 1_555 1_555
H28 C18 1_555 1_555
C19 O6 1_555 1_555
C20 C13 1_555 1_555
Mn1A O3 1_555 1_555
Mn1A_2 O7 1_555 1_555
Mn2A O3 1_555 1_555
Mn2_2 O5 1_555 1_555
Mn2A_2 O8 1_555 1_555
O3A Mn1 1_555 1_555
O3A_2 Mn2 1_555 1_555
O4A Mn2 1_555 1_555
O5_2 Mn2 1_555 1_555
O7A Mn1 1_555 1_555
O8A Mn1 1_555 1_555
Mn2 O8A 1_555 1_555
O4 Mn2A 1_555 1_555
O8 Mn1A_2 1_555 1_555
C4 C5 1_555 1_555
C11 C19 1_555 1_555
C14 C15 1_555 1_555
Mn2_2 O3A 1_555 1_555

#END
