
#######################################################################
#
#                 Cambridge Crystallographic Data Centre
#                                CCDC 
#
#######################################################################
#
# If this CIF has been generated from an entry in the Cambridge 
# Structural Database, then it will include bibliographic, chemical, 
# crystal, experimental, refinement or atomic coordinate data resulting 
# from the CCDC's data processing and validation procedures.
#
#######################################################################

data_LIRPEI
_symmetry_cell_setting           monoclinic
_symmetry_space_group_name_H-M   'P 21'
_symmetry_Int_Tables_number      4
_space_group_name_Hall           'P 2yb'
loop_
_symmetry_equiv_pos_site_id
_symmetry_equiv_pos_as_xyz
1 x,y,z
2 -x,1/2+y,-z
_cell_length_a                   9.6693(2)
_cell_length_b                   13.2688(3)
_cell_length_c                   13.2744(3)
_cell_angle_alpha                90
_cell_angle_beta                 108.6270(10)
_cell_angle_gamma                90
_cell_volume                     1613.89
loop_
_atom_site_label
_atom_site_type_symbol
_atom_site_fract_x
_atom_site_fract_y
_atom_site_fract_z
Mn1 Mn 0.6292(7) 0.6231(4) 0.8055(5)
Mn2 Mn 0.8632(7) 0.6470(4) 0.7000(5)
O1 O 0.823(4) 0.587(3) 0.927(3)
O2 O 0.999(4) 0.614(3) 0.856(3)
O3 O 1.308(5) 0.276(3) 1.171(3)
O4 O 1.143(5) 0.299(3) 1.254(3)
O5 O 0.664(4) 0.670(3) 0.574(3)
O6 O 0.490(5) 0.665(4) 0.653(3)
O7 O 0.378(5) 0.976(3) 0.250(3)
O8 O 0.195(4) 0.991(3) 0.316(4)
O9 O 1.002(4) 0.631(3) 0.608(3)
O10 O 0.486(5) 0.629(4) 0.892(3)
N1 N 1.007(6) 0.526(8) 0.506(7)
N2 N 0.471(9) 0.767(5) 0.990(7)
C1 C 1.075(5) 0.559(4) 1.040(4)
C2 C 1.069(9) 0.432(7) 1.099(8)
C3 C 1.209(5) 0.440(4) 1.168(4)
H1 H 1.2095 0.4825 1.2288
C4 C 1.321(7) 0.475(5) 1.122(10)
H2 H 1.3589 0.4195 1.0907
H3 H 1.4016 0.5082 1.1749
C5 C 1.229(10) 0.550(8) 1.036(11)
H4 H 1.2755 0.6158 1.0483
H5 H 1.2270 0.5270 0.9664
C6 C 1.064(16) 0.619(9) 1.133(10)
H6 H 1.0674 0.6900 1.1173
H7 H 1.1434 0.6028 1.1950
H8 H 0.9730 0.6047 1.1447
C7 C 0.94(3) 0.429(15) 1.15(3)
H9 H 0.9335 0.3629 1.1726
H10 H 0.8521 0.4463 1.0917
H11 H 0.9599 0.4770 1.2032
C8 C 1.013(8) 0.381(6) 1.000(6)
H12 H 0.9974 0.3111 1.0121
H13 H 1.0807 0.3864 0.9609
H14 H 0.9214 0.4110 0.9594
C9 C 0.957(6) 0.594(3) 0.933(4)
C10 C 1.218(6) 0.330(4) 1.199(4)
C11 C 0.426(4) 0.704(3) 0.468(3)
C12 C 0.395(5) 0.820(3) 0.454(3)
C13 C 0.311(5) 0.832(3) 0.334(3)
H15 H 0.2141 0.8013 0.3191
C14 C 0.398(7) 0.770(4) 0.281(3)
C15 C 0.273(7) 0.673(11) 0.457(6)
H16 H 0.2690 0.6007 0.4633
H17 H 0.2084 0.6938 0.3897
H18 H 0.2445 0.7036 0.5131
C16 C 0.293(8) 0.853(6) 0.523(5)
H19 H 0.2740 0.9240 0.5158
H20 H 0.3415 0.8374 0.5968
H21 H 0.2023 0.8168 0.4990
C17 C 0.526(6) 0.886(5) 0.492(5)
H22 H 0.5923 0.8700 0.4534
H23 H 0.5729 0.8748 0.5662
H24 H 0.4967 0.9551 0.4797
C18 C 0.534(6) 0.682(4) 0.575(4)
C19 C 0.293(6) 0.941(4) 0.297(4)
C20 C 1.069(8) 0.413(5) 0.464(6)
H25 H 1.1425 0.3834 0.5232
H26 H 1.1091 0.4277 0.4084
H27 H 0.9885 0.3674 0.4385
C21 C 1.063(8) 0.544(10) 0.589(6)
C22 C 0.893(8) 0.574(7) 0.418(6)
H28 H 0.8603 0.6346 0.4424
H29 H 0.8129 0.5285 0.3910
H30 H 0.9329 0.5905 0.3619
C23 C 1.176(8) 0.494(7) 0.675(6)
H31 H 1.2003 0.5347 0.7376
H32 H 1.2618 0.4847 0.6536
H33 H 1.1414 0.4295 0.6888
C24 C 0.613(9) 0.706(9) 1.084(6)
H34 H 0.6336 0.6442 1.0547
H35 H 0.5852 0.6928 1.1458
H36 H 0.6979 0.7485 1.1028
C25 C 0.425(7) 0.860(7) 1.020(5)
H37 H 0.3465 0.8869 0.9612
H38 H 0.5045 0.9071 1.0385
H39 H 0.3907 0.8504 1.0796
C26 C 0.303(8) 0.766(8) 0.826(5)
H40 H 0.2786 0.8292 0.8508
H41 H 0.2213 0.7211 0.8105
H42 H 0.3289 0.7768 0.7625
C27 C 0.442(10) 0.716(5) 0.917(8)
C28 C 0.476(7) 0.703(5) 0.368(5)
Mn1A Mn 1.3708(7) 0.1231(4) 1.1945(5)
Mn1A_2 Mn 0.3708(7) 1.1231(4) 0.1945(5)
Mn2A Mn 1.1368(7) 0.1470(4) 1.3000(5)
Mn2A_2 Mn 0.1368(7) 1.1470(4) 0.3000(5)
O3A O 0.692(5) 0.776(3) 0.829(3)
O4A O 0.857(5) 0.799(3) 0.746(3)
O7A O 0.622(5) 0.476(3) 0.750(3)
O8A O 0.805(4) 0.491(3) 0.684(4)
loop_
_geom_bond_atom_site_label_1
_geom_bond_atom_site_label_2
_geom_bond_site_symmetry_1
_geom_bond_site_symmetry_2
Mn1 O1 1_555 1_555
Mn2 O2 1_555 1_555
O1 C9 1_555 1_555
O2 C9 1_555 1_555
O3 C10 1_555 1_555
O4 C10 1_555 1_555
O5 Mn2 1_555 1_555
O6 Mn1 1_555 1_555
O7 C19 1_555 1_555
O8 C19 1_555 1_555
O9 Mn2 1_555 1_555
O10 Mn1 1_555 1_555
N1 C20 1_555 1_555
N2 C24 1_555 1_555
C1 C2 1_555 1_555
C2 C3 1_555 1_555
C3 H1 1_555 1_555
C4 C3 1_555 1_555
H2 C4 1_555 1_555
H3 C4 1_555 1_555
C5 C1 1_555 1_555
H4 C5 1_555 1_555
H5 C5 1_555 1_555
C6 C1 1_555 1_555
H6 C6 1_555 1_555
H7 C6 1_555 1_555
H8 C6 1_555 1_555
C7 C2 1_555 1_555
H9 C7 1_555 1_555
H10 C7 1_555 1_555
H11 C7 1_555 1_555
C8 C2 1_555 1_555
H12 C8 1_555 1_555
H13 C8 1_555 1_555
H14 C8 1_555 1_555
C9 C1 1_555 1_555
C10 C3 1_555 1_555
C11 C12 1_555 1_555
C12 C13 1_555 1_555
C13 H15 1_555 1_555
C14 C13 1_555 1_555
C15 C11 1_555 1_555
H16 C15 1_555 1_555
H17 C15 1_555 1_555
H18 C15 1_555 1_555
C16 C12 1_555 1_555
H19 C16 1_555 1_555
H20 C16 1_555 1_555
H21 C16 1_555 1_555
C17 C12 1_555 1_555
H22 C17 1_555 1_555
H23 C17 1_555 1_555
H24 C17 1_555 1_555
C18 O5 1_555 1_555
C19 C13 1_555 1_555
C20 H25 1_555 1_555
H26 C20 1_555 1_555
H27 C20 1_555 1_555
C21 O9 1_555 1_555
C22 N1 1_555 1_555
H28 C22 1_555 1_555
H29 C22 1_555 1_555
H30 C22 1_555 1_555
C23 C21 1_555 1_555
H31 C23 1_555 1_555
H32 C23 1_555 1_555
H33 C23 1_555 1_555
C24 H34 1_555 1_555
H35 C24 1_555 1_555
H36 C24 1_555 1_555
C25 N2 1_555 1_555
H37 C25 1_555 1_555
H38 C25 1_555 1_555
H39 C25 1_555 1_555
C26 H40 1_555 1_555
H41 C26 1_555 1_555
H42 C26 1_555 1_555
C27 O10 1_555 1_555
C28 C11 1_555 1_555
Mn1A O3 1_555 1_555
Mn1A_2 O7 1_555 1_555
Mn2A O4 1_555 1_555
Mn2A_2 O8 1_555 1_555
O3A Mn1 1_555 1_555
O4A Mn2 1_555 1_555
O7A Mn1 1_555 1_555
O8A Mn2 1_555 1_555
O6 C18 1_555 1_555
N1 C21 1_555 1_555
N2 C27 1_555 1_555
C4 C5 1_555 1_555
C11 C18 1_555 1_555
C14 C28 1_555 1_555
C26 C27 1_555 1_555

#END
