
#######################################################################
#
#                 Cambridge Crystallographic Data Centre
#                                CCDC 
#
#######################################################################
#
# If this CIF has been generated from an entry in the Cambridge 
# Structural Database, then it will include bibliographic, chemical, 
# crystal, experimental, refinement or atomic coordinate data resulting 
# from the CCDC's data processing and validation procedures.
#
#######################################################################

data_LISBOF
_symmetry_cell_setting           orthorhombic
_symmetry_space_group_name_H-M   'P b c n'
_symmetry_Int_Tables_number      60
_space_group_name_Hall           '-P 2n 2ab'
loop_
_symmetry_equiv_pos_site_id
_symmetry_equiv_pos_as_xyz
1 x,y,z
2 1/2-x,1/2-y,1/2+z
3 -x,y,1/2-z
4 1/2+x,1/2-y,-z
5 -x,-y,-z
6 1/2+x,1/2+y,1/2-z
7 x,-y,1/2+z
8 1/2-x,1/2+y,z
_cell_length_a                   9.850(2)
_cell_length_b                   8.976(2)
_cell_length_c                   19.990(4)
_cell_angle_alpha                90
_cell_angle_beta                 90
_cell_angle_gamma                90
_cell_volume                     1767.39
loop_
_atom_site_label
_atom_site_type_symbol
_atom_site_fract_x
_atom_site_fract_y
_atom_site_fract_z
Zn1 Zn 0.23473(2) 0.20816(3) 0.576909(11)
O1 O 0.32281(17) 0.29098(16) 0.65838(8)
O2 O 0.29474(16) 0.49307(18) 0.59874(8)
N1 N 0.36625(18) 0.1836(2) 0.50275(9)
N2 N 0.48471(18) 0.2546(2) 0.49952(9)
N3 N 0.54823(18) 0.2169(2) 0.44307(9)
C1 C 0.3524(2) 0.0965(2) 0.44671(11)
C2 C 0.4689(2) 0.1183(2) 0.40852(11)
C3 C 0.4848(2) 0.0477(3) 0.34629(12)
H1 H 0.5606 0.0647 0.3196
C4 C 0.3844(3) -0.0466(3) 0.32683(12)
H2 H 0.3924 -0.0960 0.2861
C5 C 0.2685(3) -0.0716(3) 0.36654(14)
H3 H 0.2035 -0.1393 0.3518
C6 C 0.2483(2) 0.0008(4) 0.42635(12)
H4 H 0.1702 -0.0131 0.4517
C7 C 0.3416(2) 0.4288(2) 0.64951(10)
C8 C 0.4175(2) 0.5170(3) 0.70156(12)
H5 H 0.3527 0.5757 0.7268
H6 H 0.4780 0.5859 0.6789
C9 C 0.5000 0.4249(4) 0.7500
H7 H 0.4391 0.3611 0.7752
H8 H 0.5609 0.3611 0.7248
Zn1B Zn 0.76527(2) 0.20816(3) 0.923091(11)
Zn1G Zn 0.26527(2) 0.70816(3) 0.576909(11)
Zn1C Zn 0.73473(2) 0.29184(3) 0.423091(11)
Zn1E Zn 0.73473(2) 0.70816(3) 0.923091(11)
Zn1C_2 Zn -0.26527(2) 0.29184(3) 0.423091(11)
O1B O 0.67719(17) 0.29098(16) 0.84162(8)
O2B O 0.70526(16) 0.49307(18) 0.90126(8)
O2G O 0.20526(16) -0.00693(18) 0.59874(8)
O2E O 0.79474(16) -0.00693(18) 0.90126(8)
N1C N -0.13375(18) 0.3164(2) 0.49725(9)
N1B N 0.63375(18) 0.1836(2) 0.99725(9)
N2C N -0.01529(18) 0.2454(2) 0.50048(9)
N3C N 0.04823(18) 0.2831(2) 0.55693(9)
N3A N 0.95177(18) 0.2831(2) 0.94307(9)
C1C C -0.1476(2) 0.4035(2) 0.55329(11)
C2C C -0.0311(2) 0.3817(2) 0.59148(11)
C3C C -0.0152(2) 0.4523(3) 0.65371(12)
H1C H 0.0606 0.4353 0.6804
C4C C -0.1156(3) 0.5466(3) 0.67317(12)
H2C H -0.1076 0.5960 0.7139
C5C C -0.2315(3) 0.5716(3) 0.63346(14)
H3C H -0.2965 0.6393 0.6482
C6C C -0.2517(2) 0.4992(4) 0.57365(12)
H4C H -0.3298 0.5131 0.5483
C7B C 0.6584(2) 0.4288(2) 0.85049(10)
C8B C 0.5825(2) 0.5170(3) 0.79844(12)
H5B H 0.6473 0.5757 0.7732
H6B H 0.5220 0.5859 0.8211
loop_
_geom_bond_atom_site_label_1
_geom_bond_atom_site_label_2
_geom_bond_site_symmetry_1
_geom_bond_site_symmetry_2
Zn1 O1 1_555 1_555
O1 C7 1_555 1_555
O2 C7 1_555 1_555
N1 Zn1 1_555 1_555
N2 N1 1_555 1_555
N3 N2 1_555 1_555
C1 N1 1_555 1_555
C2 N3 1_555 1_555
C3 C2 1_555 1_555
H1 C3 1_555 1_555
C4 C3 1_555 1_555
H2 C4 1_555 1_555
C5 C4 1_555 1_555
H3 C5 1_555 1_555
C6 C1 1_555 1_555
H4 C6 1_555 1_555
C7 C8 1_555 1_555
C8 H5 1_555 1_555
H6 C8 1_555 1_555
C9 C8 1_555 1_555
H7 C9 1_555 1_555
H8 C9 1_555 1_555
Zn1B O1B 1_555 1_555
Zn1G O2 1_555 1_555
Zn1C N3 1_555 1_555
Zn1E O2B 1_555 1_555
Zn1C_2 N1C 1_555 1_555
O1B C7B 1_555 1_555
O2B C7B 1_555 1_555
O2G Zn1 1_555 1_555
O2E Zn1B 1_555 1_555
N1C N2C 1_555 1_555
N1B Zn1B 1_555 1_555
N2C N3C 1_555 1_555
N3C Zn1 1_555 1_555
N3A Zn1B 1_555 1_555
C1C N1C 1_555 1_555
C2C N3C 1_555 1_555
C3C C2C 1_555 1_555
H1C C3C 1_555 1_555
C4C C3C 1_555 1_555
H2C C4C 1_555 1_555
C5C C4C 1_555 1_555
H3C C5C 1_555 1_555
C6C C1C 1_555 1_555
H4C C6C 1_555 1_555
C7B C8B 1_555 1_555
C8B C9 1_555 1_555
H5B C8B 1_555 1_555
H6B C8B 1_555 1_555
C1 C2 1_555 1_555
C5 C6 1_555 1_555
C1C C2C 1_555 1_555
C5C C6C 1_555 1_555

#END
