
#######################################################################
#
#                 Cambridge Crystallographic Data Centre
#                                CCDC 
#
#######################################################################
#
# If this CIF has been generated from an entry in the Cambridge 
# Structural Database, then it will include bibliographic, chemical, 
# crystal, experimental, refinement or atomic coordinate data resulting 
# from the CCDC's data processing and validation procedures.
#
#######################################################################

data_LISBUL
_symmetry_cell_setting           monoclinic
_symmetry_space_group_name_H-M   'P 21/c'
_symmetry_Int_Tables_number      14
_space_group_name_Hall           '-P 2ybc'
loop_
_symmetry_equiv_pos_site_id
_symmetry_equiv_pos_as_xyz
1 x,y,z
2 -x,1/2+y,1/2-z
3 -x,-y,-z
4 x,1/2-y,1/2+z
_cell_length_a                   4.8109(3)
_cell_length_b                   22.4828(15)
_cell_length_c                   9.7706(6)
_cell_angle_alpha                90
_cell_angle_beta                 99.7380(10)
_cell_angle_gamma                90
_cell_volume                     1041.59
loop_
_atom_site_label
_atom_site_type_symbol
_atom_site_fract_x
_atom_site_fract_y
_atom_site_fract_z
Zn1 Zn 1.06936(4) 0.685033(9) 0.33400(2)
O1 O 0.8774(3) 0.61645(6) 0.40083(16)
O2 O 0.4713(3) 0.66346(6) 0.37252(15)
N1 N 0.9797(3) 0.75564(7) 0.43970(16)
N2 N 1.0944(3) 0.76069(7) 0.57246(16)
N3 N 0.9728(4) 0.80548(7) 0.62972(17)
C1 C 0.7735(4) 0.79794(9) 0.4092(2)
C2 C 0.7705(4) 0.83024(9) 0.5300(2)
C3 C 0.5820(5) 0.87727(10) 0.5339(2)
H1 H 0.5832 0.8999 0.6137
C4 C 0.3957(5) 0.88832(11) 0.4146(3)
H2 H 0.2660 0.9191 0.4137
C5 C 0.3943(5) 0.85464(11) 0.2935(2)
H3 H 0.2613 0.8632 0.2153
C6 C 0.5822(4) 0.80973(10) 0.2871(2)
H4 H 0.5835 0.7881 0.2061
C7 C 0.6199(4) 0.61905(9) 0.4126(2)
C8 C 0.4980(4) 0.56457(9) 0.4713(2)
H5 H 0.3240 0.5762 0.5038
C9 C 0.4228(4) 0.51875(9) 0.3543(2)
H6 H 0.2860 0.5359 0.2805
H7 H 0.5906 0.5090 0.3161
C10 C 0.6986(4) 0.53779(9) 0.5935(2)
H8 H 0.8775 0.5288 0.5648
H9 H 0.7333 0.5666 0.6683
Zn1B Zn -0.06936(4) 0.314967(9) 0.66600(2)
Zn1_2 Zn 0.06936(4) 0.685033(9) 0.33400(2)
Zn1C Zn 1.06936(4) 0.814967(9) 0.83400(2)
Zn1B_2 Zn 0.93064(4) 0.314967(9) 0.66600(2)
Zn1C_2 Zn 1.06936(4) 0.814967(9) -0.16600(2)
O1B O 0.1226(3) 0.38355(6) 0.59917(16)
O2B O 0.5287(3) 0.33654(6) 0.62748(15)
O2_2 O 1.4713(3) 0.66346(6) 0.37252(15)
O2B_2 O -0.4713(3) 0.33654(6) 0.62748(15)
N1C N 0.9797(3) 0.74436(7) -0.06030(16)
N1B N 0.0203(3) 0.24436(7) 0.56030(16)
N2C N 1.0944(3) 0.73931(7) 0.07246(16)
N3C N 0.9728(4) 0.69452(7) 0.12972(17)
N3A N 0.0272(4) 0.30548(7) 0.87028(17)
C1C C 0.7735(4) 0.70206(9) -0.0908(2)
C2C C 0.7705(4) 0.66976(9) 0.0300(2)
C3C C 0.5820(5) 0.62273(10) 0.0339(2)
H1C H 0.5832 0.6001 0.1137
C4C C 0.3957(5) 0.61168(11) -0.0854(3)
H2C H 0.2660 0.5809 -0.0863
C5C C 0.3943(5) 0.64536(11) -0.2065(2)
H3C H 0.2613 0.6368 -0.2847
C6C C 0.5822(4) 0.69027(10) -0.2129(2)
H4C H 0.5835 0.7119 -0.2939
C7B C 0.3801(4) 0.38095(9) 0.5874(2)
C8B C 0.5020(4) 0.43543(9) 0.5287(2)
H5B H 0.6760 0.4238 0.4962
C9B C 0.5772(4) 0.48125(9) 0.6457(2)
H6B H 0.7140 0.4641 0.7195
H7B H 0.4094 0.4910 0.6839
C10B C 0.3014(4) 0.46221(9) 0.4065(2)
H8B H 0.1225 0.4712 0.4352
H9B H 0.2667 0.4334 0.3317
loop_
_geom_bond_atom_site_label_1
_geom_bond_atom_site_label_2
_geom_bond_site_symmetry_1
_geom_bond_site_symmetry_2
Zn1 O1 1_555 1_555
O1 C7 1_555 1_555
O2 C7 1_555 1_555
N1 Zn1 1_555 1_555
N2 N1 1_555 1_555
N3 N2 1_555 1_555
C1 N1 1_555 1_555
C2 N3 1_555 1_555
C3 C2 1_555 1_555
H1 C3 1_555 1_555
C4 C3 1_555 1_555
H2 C4 1_555 1_555
C5 C4 1_555 1_555
H3 C5 1_555 1_555
C6 C1 1_555 1_555
H4 C6 1_555 1_555
C7 C8 1_555 1_555
C8 H5 1_555 1_555
C9 C8 1_555 1_555
H6 C9 1_555 1_555
H7 C9 1_555 1_555
C10 C8 1_555 1_555
H8 C10 1_555 1_555
H9 C10 1_555 1_555
Zn1B O1B 1_555 1_555
Zn1_2 O2 1_555 1_555
Zn1C N3 1_555 1_555
Zn1B_2 O2B 1_555 1_555
Zn1C_2 N1C 1_555 1_555
O1B C7B 1_555 1_555
O2B C7B 1_555 1_555
O2_2 Zn1 1_555 1_555
O2B_2 Zn1B 1_555 1_555
N1C N2C 1_555 1_555
N1B Zn1B 1_555 1_555
N2C N3C 1_555 1_555
N3C Zn1 1_555 1_555
N3A Zn1B 1_555 1_555
C1C N1C 1_555 1_555
C2C N3C 1_555 1_555
C3C C2C 1_555 1_555
H1C C3C 1_555 1_555
C4C C3C 1_555 1_555
H2C C4C 1_555 1_555
C5C C4C 1_555 1_555
H3C C5C 1_555 1_555
C6C C1C 1_555 1_555
H4C C6C 1_555 1_555
C7B C8B 1_555 1_555
C8B H5B 1_555 1_555
C9B C10 1_555 1_555
H6B C9B 1_555 1_555
H7B C9B 1_555 1_555
C10B C9 1_555 1_555
H8B C10B 1_555 1_555
H9B C10B 1_555 1_555
C1 C2 1_555 1_555
C5 C6 1_555 1_555
C1C C2C 1_555 1_555
C5C C6C 1_555 1_555
C8B C9B 1_555 1_555
C8B C10B 1_555 1_555

#END
