
#######################################################################
#
#                 Cambridge Crystallographic Data Centre
#                                CCDC 
#
#######################################################################
#
# If this CIF has been generated from an entry in the Cambridge 
# Structural Database, then it will include bibliographic, chemical, 
# crystal, experimental, refinement or atomic coordinate data resulting 
# from the CCDC's data processing and validation procedures.
#
#######################################################################

data_LISDAT
_symmetry_cell_setting           monoclinic
_symmetry_space_group_name_H-M   'P 21/n'
_symmetry_Int_Tables_number      14
_space_group_name_Hall           '-P 2yn'
loop_
_symmetry_equiv_pos_site_id
_symmetry_equiv_pos_as_xyz
1 x,y,z
2 1/2-x,1/2+y,1/2-z
3 -x,-y,-z
4 1/2+x,1/2-y,1/2+z
_cell_length_a                   9.6223(10)
_cell_length_b                   10.2423(11)
_cell_length_c                   12.8397(13)
_cell_angle_alpha                90
_cell_angle_beta                 95.364(2)
_cell_angle_gamma                90
_cell_volume                     1259.87
loop_
_atom_site_label
_atom_site_type_symbol
_atom_site_fract_x
_atom_site_fract_y
_atom_site_fract_z
Cd1 Cd 0.5000 0.0000 1.0000
N1 N 0.5841(3) 0.2106(3) 1.0322(2)
C1 C 0.5649(3) 0.2912(3) 0.9501(2)
H1 H 0.4990 0.2679 0.8934
C2 C 0.6379(3) 0.4081(3) 0.9448(2)
C3 C 0.7331(3) 0.4416(3) 1.0289(3)
H2 H 0.7859 0.5197 1.0274
C4 C 0.7495(3) 0.3602(3) 1.1142(2)
H3 H 0.8128 0.3823 1.1727
C5 C 0.6732(3) 0.2457(3) 1.1141(2)
H4 H 0.6841 0.1904 1.1736
N2 N 0.6236(3) 0.4913(2) 0.8579(2)
H5 H 0.6897 0.5497 0.8531
C6 C 0.5161(4) 0.4907(3) 0.7792(3)
O1 O 0.4164(2) 0.4172(2) 0.77552(17)
N3 N 0.5348(3) 0.5855(3) 0.7052(2)
H6 H 0.6090 0.6358 0.7161
C7 C 0.4457(3) 0.6085(3) 0.6143(2)
C8 C 0.3071(3) 0.5672(3) 0.6021(2)
H7 H 0.2704 0.5223 0.6583
N4 N 0.2238(3) 0.5884(2) 0.5144(2)
C9 C 0.2745(4) 0.6544(3) 0.4365(3)
H8 H 0.2156 0.6697 0.3741
C10 C 0.4093(4) 0.7011(3) 0.4436(3)
H9 H 0.4422 0.7484 0.3872
C11 C 0.4960(4) 0.6785(3) 0.5332(3)
H10 H 0.5891 0.7104 0.5395
O2 O 0.5171(3) -0.0096(2) 1.1852(2)
N5 N 0.4250(3) -0.0381(3) 1.2455(2)
O3 O 0.3311(3) -0.1179(3) 1.2151(2)
O4 O 0.4311(3) 0.0074(3) 1.3345(2)
Cd1C Cd 0.0000 0.5000 0.5000
Cd1C_2 Cd 1.0000 -0.5000 1.5000
N1B N 0.4159(3) -0.2106(3) 0.9678(2)
C1B C 0.4351(3) -0.2912(3) 1.0499(2)
H1B H 0.5010 -0.2679 1.1066
C2B C 0.3621(3) -0.4081(3) 1.0552(2)
C3B C 0.2669(3) -0.4416(3) 0.9711(3)
H2B H 0.2141 -0.5197 0.9726
C4B C 0.2505(3) -0.3602(3) 0.8858(2)
H3B H 0.1872 -0.3823 0.8273
C5B C 0.3268(3) -0.2457(3) 0.8859(2)
H4B H 0.3159 -0.1904 0.8264
N2B N 0.3764(3) -0.4913(2) 1.1421(2)
H5B H 0.3103 -0.5497 1.1469
C6B C 0.4839(4) -0.4907(3) 1.2208(3)
O1B O 0.5836(2) -0.4172(2) 1.22448(17)
N3B N 0.4652(3) -0.5855(3) 1.2948(2)
H6B H 0.3910 -0.6358 1.2839
C7B C 0.5543(3) -0.6085(3) 1.3857(2)
C8B C 0.6929(3) -0.5672(3) 1.3979(2)
H7B H 0.7296 -0.5223 1.3417
N4B N 0.7762(3) -0.5884(2) 1.4856(2)
N4C N 0.7238(3) -0.0884(2) 1.0144(2)
N4A N 0.2762(3) 0.0884(2) 0.9856(2)
C9B C 0.7255(4) -0.6544(3) 1.5635(3)
H8B H 0.7844 -0.6697 1.6259
C10B C 0.5907(4) -0.7011(3) 1.5564(3)
H9B H 0.5578 -0.7484 1.6128
C11B C 0.5040(4) -0.6785(3) 1.4668(3)
H10B H 0.4109 -0.7104 1.4605
O2B O 0.4829(3) 0.0096(2) 0.8148(2)
N5B N 0.5750(3) 0.0381(3) 0.7545(2)
O3B O 0.6689(3) 0.1179(3) 0.7849(2)
O4B O 0.5689(3) -0.0074(3) 0.6655(2)
loop_
_geom_bond_atom_site_label_1
_geom_bond_atom_site_label_2
_geom_bond_site_symmetry_1
_geom_bond_site_symmetry_2
Cd1 N1 1_555 1_555
N1 C1 1_555 1_555
C1 H1 1_555 1_555
C2 C1 1_555 1_555
C3 C2 1_555 1_555
H2 C3 1_555 1_555
C4 C3 1_555 1_555
H3 C4 1_555 1_555
C5 N1 1_555 1_555
H4 C5 1_555 1_555
N2 C2 1_555 1_555
H5 N2 1_555 1_555
C6 N2 1_555 1_555
O1 C6 1_555 1_555
N3 C6 1_555 1_555
H6 N3 1_555 1_555
C7 N3 1_555 1_555
C8 C7 1_555 1_555
H7 C8 1_555 1_555
N4 C8 1_555 1_555
C9 N4 1_555 1_555
H8 C9 1_555 1_555
C10 C9 1_555 1_555
H9 C10 1_555 1_555
C11 C7 1_555 1_555
H10 C11 1_555 1_555
O2 Cd1 1_555 1_555
N5 O2 1_555 1_555
O3 N5 1_555 1_555
O4 N5 1_555 1_555
Cd1C N4 1_555 1_555
Cd1C_2 N4B 1_555 1_555
N1B Cd1 1_555 1_555
C1B N1B 1_555 1_555
H1B C1B 1_555 1_555
C2B C1B 1_555 1_555
C3B C2B 1_555 1_555
H2B C3B 1_555 1_555
C4B C3B 1_555 1_555
H3B C4B 1_555 1_555
C5B N1B 1_555 1_555
H4B C5B 1_555 1_555
N2B C2B 1_555 1_555
H5B N2B 1_555 1_555
C6B N2B 1_555 1_555
O1B C6B 1_555 1_555
N3B C6B 1_555 1_555
H6B N3B 1_555 1_555
C7B N3B 1_555 1_555
C8B C7B 1_555 1_555
H7B C8B 1_555 1_555
N4B C8B 1_555 1_555
N4C Cd1 1_555 1_555
N4A Cd1 1_555 1_555
C9B N4B 1_555 1_555
H8B C9B 1_555 1_555
C10B C9B 1_555 1_555
H9B C10B 1_555 1_555
C11B C7B 1_555 1_555
H10B C11B 1_555 1_555
O2B Cd1 1_555 1_555
N5B O2B 1_555 1_555
O3B N5B 1_555 1_555
O4B N5B 1_555 1_555
C4 C5 1_555 1_555
C10 C11 1_555 1_555
C4B C5B 1_555 1_555
C10B C11B 1_555 1_555

#END
