
#######################################################################
#
#                 Cambridge Crystallographic Data Centre
#                                CCDC 
#
#######################################################################
#
# If this CIF has been generated from an entry in the Cambridge 
# Structural Database, then it will include bibliographic, chemical, 
# crystal, experimental, refinement or atomic coordinate data resulting 
# from the CCDC's data processing and validation procedures.
#
#######################################################################

data_LISDEX
_symmetry_cell_setting           orthorhombic
_symmetry_space_group_name_H-M   'F d d 2'
_symmetry_Int_Tables_number      43
_space_group_name_Hall           'F 2 -2d'
loop_
_symmetry_equiv_pos_site_id
_symmetry_equiv_pos_as_xyz
1 x,y,z
2 -x,-y,z
3 1/4+x,1/4-y,1/4+z
4 1/4-x,1/4+y,1/4+z
5 x,1/2+y,1/2+z
6 -x,1/2-y,1/2+z
7 1/4+x,3/4-y,3/4+z
8 1/4-x,3/4+y,3/4+z
9 1/2+x,y,1/2+z
10 1/2-x,-y,1/2+z
11 3/4+x,1/4-y,3/4+z
12 3/4-x,1/4+y,3/4+z
13 1/2+x,1/2+y,z
14 1/2-x,1/2-y,z
15 3/4+x,3/4-y,1/4+z
16 3/4-x,3/4+y,1/4+z
_cell_length_a                   21.1088(12)
_cell_length_b                   34.334(2)
_cell_length_c                   20.1564(12)
_cell_angle_alpha                90
_cell_angle_beta                 90
_cell_angle_gamma                90
_cell_volume                     14608.3
loop_
_atom_site_label
_atom_site_type_symbol
_atom_site_fract_x
_atom_site_fract_y
_atom_site_fract_z
Cd1 Cd -0.126260(15) 0.126570(9) 0.58033(3)
N1 N -0.07277(15) 0.08683(9) 0.50753(18)
C1 C -0.02536(19) 0.06471(12) 0.5306(2)
H1 H -0.0227 0.0609 0.5772
C2 C 0.0198(2) 0.04708(12) 0.4914(2)
H2 H 0.0525 0.0317 0.5105
C3 C 0.01610(19) 0.05243(11) 0.4221(2)
C4 C -0.0340(2) 0.07538(12) 0.3978(2)
H3 H -0.0385 0.0796 0.3514
C5 C -0.07669(18) 0.09179(11) 0.4419(2)
H4 H -0.1102 0.1072 0.4247
N2 N 0.05627(15) 0.03595(10) 0.37627(18)
H5 H 0.0480 0.0403 0.3341
C6 C 0.10878(19) 0.01304(12) 0.3908(2)
O1 O 0.13212(15) 0.01025(11) 0.44541(17)
N3 N 0.13058(15) -0.00639(10) 0.3350(3)
H6 H 0.1119 -0.0022 0.2967
C7 C 0.18122(17) -0.03243(11) 0.3378(2)
C8 C 0.23290(18) -0.02705(12) 0.3794(2)
H7 H 0.2351 -0.0052 0.4082
C9 C 0.28123(19) -0.05444(12) 0.3779(2)
H8 H 0.3167 -0.0505 0.4062
N4 N 0.28113(15) -0.08594(9) 0.33938(18)
C10 C 0.2315(2) -0.09020(13) 0.2983(2)
H9 H 0.2311 -0.1120 0.2694
C11 C 0.1810(2) -0.06454(14) 0.2957(2)
H10 H 0.1469 -0.0688 0.2658
N5 N -0.56601(16) -0.08272(10) 0.39905(18)
C12 C -0.5160(2) -0.06219(12) 0.3784(2)
H11 H -0.5109 -0.0586 0.3319
C13 C -0.4712(2) -0.04586(12) 0.4198(2)
H12 H -0.4361 -0.0320 0.4024
C14 C -0.4791(2) -0.05039(12) 0.4883(2)
C15 C -0.5308(2) -0.07190(13) 0.5105(2)
H13 H -0.5372 -0.0759 0.5567
C16 C -0.57240(19) -0.08724(12) 0.4654(2)
H14 H -0.6075 -0.1018 0.4815
N6 N -0.43896(16) -0.03446(10) 0.53588(18)
H15 H -0.4492 -0.0386 0.5776
C17 C -0.3851(2) -0.01301(12) 0.5249(2)
O2 O -0.35821(15) -0.01044(10) 0.47170(16)
N7 N -0.36545(16) 0.00547(9) 0.5822(3)
H16 H -0.3873 0.0017 0.6188
C18 C -0.31239(17) 0.02998(10) 0.5851(2)
C19 C -0.25789(18) 0.02298(12) 0.5483(2)
H17 H -0.2545 0.0005 0.5211
C20 C -0.20876(19) 0.04937(12) 0.5522(2)
H18 H -0.1718 0.0444 0.5267
N8 N -0.20982(15) 0.08163(9) 0.58964(18)
C21 C -0.2617(2) 0.08696(13) 0.6274(2)
H19 H -0.2627 0.1088 0.6564
C22 C -0.3135(2) 0.06252(13) 0.6263(2)
H20 H -0.3494 0.0678 0.6533
O3 O -0.13093(14) 0.17899(10) 0.49867(17)
N9 N -0.17880(15) 0.17537(10) 0.46208(18)
O4 O -0.20896(15) 0.14410(10) 0.4659(2)
O5 O -0.19540(16) 0.20189(10) 0.42436(18)
O6 O -0.08331(13) 0.09518(9) 0.67394(15)
H31 H -0.0493(19) 0.1012(17) 0.683(3)
H32 H -0.093(3) 0.0734(11) 0.680(3)
Cd1G Cd 0.376260(15) -0.123430(9) 0.33033(3)
Cd1G_2 Cd -0.623740(15) -0.123430(9) 0.33033(3)
N4C N -0.03113(15) 0.16406(9) 0.58938(18)
N5C N -0.18399(16) 0.16728(10) 0.64905(18)
O7 O -0.0982(6) 0.1255(4) 0.0898(11)
O8 O -0.1112(5) 0.1251(2) -0.0176(7)
N10 N -0.1243(6) 0.1208(2) 0.0436(11)
C23 C -0.19003(19) 0.10404(11) 0.0483(2)
C24 C -0.2351(3) 0.10644(13) -0.00190(18)
H21 H -0.2245 0.1183 -0.0430
C25 C -0.2955(3) 0.09152(14) 0.0081(2)
H22 H -0.3263 0.0932 -0.0261
C26 C -0.31095(17) 0.07420(13) 0.0683(3)
H23 H -0.3523 0.0640 0.0752
C27 C -0.26593(19) 0.07179(10) 0.11850(18)
H24 H -0.2765 0.0600 0.1596
C28 C -0.20547(16) 0.08671(11) 0.1085(2)
H25 H -0.1747 0.0851 0.1427
C29 C -0.1947(4) 0.0532(2) 0.7904(4)
H26 H -0.1895 0.0776 0.7659
H27 H -0.1673 0.0535 0.8297
H28 H -0.2389 0.0504 0.8043
C30 C -0.1765(4) 0.01930(19) 0.7464(5)
H29 H -0.1808 -0.0055 0.7710
H30 H -0.2045 0.0183 0.7070
O9 O -0.1131(2) 0.02486(12) 0.7266(3)
H33 H -0.100(4) 0.007(2) 0.706(5)
N11 N -0.0014(3) 0.04507(10) 0.2048(3)
O11 O -0.0608(3) 0.0563(2) 0.1716(4)
O12 O -0.0202(3) 0.03396(18) 0.2606(3)
O13 O 0.0181(3) 0.03056(18) 0.1497(3)
O10? O 0.0395(4) 0.0506(2) 0.1775(4)
O14? O -0.0459(4) 0.0458(2) 0.2282(4)
O15? O 0.0573(3) 0.0529(2) 0.2410(4)
loop_
_geom_bond_atom_site_label_1
_geom_bond_atom_site_label_2
_geom_bond_site_symmetry_1
_geom_bond_site_symmetry_2
Cd1 N1 1_555 1_555
N1 C1 1_555 1_555
C1 H1 1_555 1_555
C2 C1 1_555 1_555
H2 C2 1_555 1_555
C3 C2 1_555 1_555
C4 C3 1_555 1_555
H3 C4 1_555 1_555
C5 N1 1_555 1_555
H4 C5 1_555 1_555
N2 C3 1_555 1_555
H5 N2 1_555 1_555
C6 N2 1_555 1_555
O1 C6 1_555 1_555
N3 C6 1_555 1_555
H6 N3 1_555 1_555
C7 N3 1_555 1_555
C8 C7 1_555 1_555
H7 C8 1_555 1_555
C9 C8 1_555 1_555
H8 C9 1_555 1_555
N4 C9 1_555 1_555
C10 N4 1_555 1_555
H9 C10 1_555 1_555
C11 C7 1_555 1_555
H10 C11 1_555 1_555
N5 C12 1_555 1_555
C12 H11 1_555 1_555
C13 C12 1_555 1_555
H12 C13 1_555 1_555
C14 C13 1_555 1_555
C15 C14 1_555 1_555
H13 C15 1_555 1_555
C16 N5 1_555 1_555
H14 C16 1_555 1_555
N6 C14 1_555 1_555
H15 N6 1_555 1_555
C17 N6 1_555 1_555
O2 C17 1_555 1_555
N7 C17 1_555 1_555
H16 N7 1_555 1_555
C18 N7 1_555 1_555
C19 C18 1_555 1_555
H17 C19 1_555 1_555
C20 C19 1_555 1_555
H18 C20 1_555 1_555
N8 Cd1 1_555 1_555
C21 N8 1_555 1_555
H19 C21 1_555 1_555
C22 C18 1_555 1_555
H20 C22 1_555 1_555
O3 Cd1 1_555 1_555
N9 O3 1_555 1_555
O4 N9 1_555 1_555
O5 N9 1_555 1_555
O6 Cd1 1_555 1_555
O7 N10 1_555 1_555
O8 N10 1_555 1_555
N10 C23 1_555 1_555
C23 C24 1_555 1_555
C24 H21 1_555 1_555
C25 C24 1_555 1_555
H22 C25 1_555 1_555
C26 C25 1_555 1_555
H23 C26 1_555 1_555
C27 C26 1_555 1_555
H24 C27 1_555 1_555
C28 C23 1_555 1_555
H25 C28 1_555 1_555
C29 H26 1_555 1_555
H27 C29 1_555 1_555
H28 C29 1_555 1_555
C30 C29 1_555 1_555
H29 C30 1_555 1_555
H30 C30 1_555 1_555
O9 C30 1_555 1_555
N11 O11 1_555 1_555
O12 N11 1_555 1_555
O13 N11 1_555 1_555
H31 O6 1_555 1_555
H32 O6 1_555 1_555
H33 O9 1_555 1_555
Cd1G N4 1_555 1_555
Cd1G_2 N5 1_555 1_555
N4C Cd1 1_555 1_555
N5C Cd1 1_555 1_555
C4 C5 1_555 1_555
C10 C11 1_555 1_555
C15 C16 1_555 1_555
C20 N8 1_555 1_555
C21 C22 1_555 1_555
C27 C28 1_555 1_555

#END
