
#######################################################################
#
#                 Cambridge Crystallographic Data Centre
#                                CCDC 
#
#######################################################################
#
# If this CIF has been generated from an entry in the Cambridge 
# Structural Database, then it will include bibliographic, chemical, 
# crystal, experimental, refinement or atomic coordinate data resulting 
# from the CCDC's data processing and validation procedures.
#
#######################################################################

data_LISKUT01
_symmetry_cell_setting           orthorhombic
_symmetry_space_group_name_H-M   'C m c a'
_symmetry_Int_Tables_number      64
_space_group_name_Hall           '-C 2ac 2'
loop_
_symmetry_equiv_pos_site_id
_symmetry_equiv_pos_as_xyz
1 x,y,z
2 1/2+x,1/2+y,z
3 x,1/2-y,1/2+z
4 1/2+x,-y,1/2+z
5 x,1/2+y,1/2-z
6 1/2+x,y,1/2-z
7 -x,y,z
8 1/2-x,1/2+y,z
9 -x,-y,-z
10 1/2-x,1/2-y,-z
11 -x,1/2+y,1/2-z
12 1/2-x,y,1/2-z
13 -x,1/2-y,1/2+z
14 1/2-x,-y,1/2+z
15 x,-y,-z
16 1/2+x,1/2-y,-z
_cell_length_a                   6.8759(4)
_cell_length_b                   9.9926(6)
_cell_length_c                   17.875(2)
_cell_angle_alpha                90
_cell_angle_beta                 90
_cell_angle_gamma                90
_cell_volume                     1228.16
loop_
_atom_site_label
_atom_site_type_symbol
_atom_site_fract_x
_atom_site_fract_y
_atom_site_fract_z
Au1 Au 0.5000 0.1899 0.2362
Cu1 Cu 0.5000 0.0000 0.5000
N1 N 0.7978 0.0000 0.5000
N2 N 0.5000 0.0913 0.4017
N3 N 0.5000 0.2065 0.5707
C1 C 0.9003 0.0518 0.5567
C2 C 0.5000 0.1294 0.3416
C3 C 0.5000 0.2489 0.6306
H1 H 0.8329 0.0863 0.5971
C1F C 1.0997 0.0518 0.5567
N1F N 1.2022 0.0000 0.5000
C1H C 1.0997 -0.0518 0.4433
C1N C 0.9003 -0.0518 0.4433
H1N H 0.8329 -0.0863 0.4029
H1H H 1.1671 -0.0863 0.4029
H1F H 1.1671 0.0863 0.5971
N2H N 0.5000 -0.0913 0.5983
C2H C 0.5000 -0.1294 0.6584
N3H N 0.5000 -0.2065 0.4293
C3H C 0.5000 -0.2489 0.3694
Au1H Au 0.5000 -0.1899 0.7638
C3B C 0.5000 0.2511 0.1306
N1F_2 N 0.2022 0.0000 0.5000
Au1B Au 0.5000 0.3101 0.7362
Cu1_2 Cu 1.5000 0.0000 0.5000
Au1D Au 0.5000 -0.3101 0.2638
C3D C 0.5000 -0.2511 0.8694
loop_
_geom_bond_atom_site_label_1
_geom_bond_atom_site_label_2
_geom_bond_site_symmetry_1
_geom_bond_site_symmetry_2
Au1 C2 1_555 1_555
Cu1 N1 1_555 1_555
N1 C1 1_555 1_555
N2 Cu1 1_555 1_555
N3 Cu1 1_555 1_555
C1 H1 1_555 1_555
C2 N2 1_555 1_555
C3 N3 1_555 1_555
C1F C1 1_555 1_555
N1F C1F 1_555 1_555
C1H N1F 1_555 1_555
C1N N1 1_555 1_555
H1N C1N 1_555 1_555
H1H C1H 1_555 1_555
H1F C1F 1_555 1_555
N2H Cu1 1_555 1_555
C2H N2H 1_555 1_555
N3H Cu1 1_555 1_555
C3H N3H 1_555 1_555
Au1H C2H 1_555 1_555
C3B Au1 1_555 1_555
N1F_2 Cu1 1_555 1_555
Au1B C3 1_555 1_555
Cu1_2 N1F 1_555 1_555
Au1D C3H 1_555 1_555
C3D Au1H 1_555 1_555
C1H C1N 1_555 1_555

#END
