
#######################################################################
#
#                 Cambridge Crystallographic Data Centre
#                                CCDC 
#
#######################################################################
#
# If this CIF has been generated from an entry in the Cambridge 
# Structural Database, then it will include bibliographic, chemical, 
# crystal, experimental, refinement or atomic coordinate data resulting 
# from the CCDC's data processing and validation procedures.
#
#######################################################################

data_LISUCC01
_symmetry_cell_setting           rhombohedral
_symmetry_space_group_name_H-M   'R -3'
_symmetry_Int_Tables_number      148
_space_group_name_Hall           '-R 3'
loop_
_symmetry_equiv_pos_site_id
_symmetry_equiv_pos_as_xyz
1 x,y,z
2 -y,x-y,z
3 -x+y,-x,z
4 2/3+x,1/3+y,1/3+z
5 2/3-y,1/3+x-y,1/3+z
6 2/3-x+y,1/3-x,1/3+z
7 1/3+x,2/3+y,2/3+z
8 1/3-y,2/3+x-y,2/3+z
9 1/3-x+y,2/3-x,2/3+z
10 -x,-y,-z
11 y,-x+y,-z
12 x-y,x,-z
13 1/3-x,2/3-y,2/3-z
14 1/3+y,2/3-x+y,2/3-z
15 1/3+x-y,2/3+x,2/3-z
16 2/3-x,1/3-y,1/3-z
17 2/3+y,1/3-x+y,1/3-z
18 2/3+x-y,1/3+x,1/3-z
_cell_length_a                   12.0600(8)
_cell_length_b                   12.0600(8)
_cell_length_c                   10.5752(5)
_cell_angle_alpha                90
_cell_angle_beta                 90
_cell_angle_gamma                120
_cell_volume                     1332.03
loop_
_atom_site_label
_atom_site_type_symbol
_atom_site_fract_x
_atom_site_fract_y
_atom_site_fract_z
H1 H 0.9681(15) 0.2080(15) 0.6782(13)
H2 H 0.8664(13) 0.0746(13) 0.6113(14)
O1 O 0.90360(8) 0.13380(8) 0.90244(7)
O2 O 0.75660(8) -0.04382(8) 0.80813(7)
C1 C 0.84516(11) 0.07135(11) 0.80531(11)
C2 C 0.87823(12) 0.13945(12) 0.67860(11)
Li1 Li 1.08347(19) 0.25584(19) 0.92957(18)
H1O H 0.6986(15) 0.1253(15) 0.6551(13)
H2O H 0.8003(13) 0.2587(13) 0.7220(14)
O1O O 0.76307(8) 0.19953(8) 0.43089(7)
O2O O 0.91007(8) 0.37715(8) 0.52520(7)
C1O C 0.82151(11) 0.26198(11) 0.52802(11)
C2O C 0.78844(12) 0.19388(12) 0.65473(11)
Li1A Li 0.74416(19) -0.17237(27) 0.92957(18)
O1A O 0.86620(8) -0.23020(11) 0.90244(7)
O1J O 1.13380(8) 0.23020(11) 1.09756(7)
O1K O 0.76980(11) -0.09640(8) 1.09756(7)
O2B O 1.19958(11) 0.24340(8) 0.80813(7)
O2L O 0.57673(8) -0.28951(8) 0.85854(7)
O2N O 1.13375(11) 0.42327(8) 0.85854(7)
Li1E Li 0.83904(27) 0.24986(19) 0.26290(18)
Li1G Li 1.07749(19) 0.49430(27) 0.59624(18)
Li1K Li 0.82763(27) 0.08347(19) 1.07043(18)
Li1O Li 0.58320(19) 0.07749(19) 0.40376(18)
Li1P Li 0.92251(19) 0.50570(27) 0.40376(18)
Li1M Li 0.58917(19) -0.16096(27) 0.73710(18)
loop_
_geom_bond_atom_site_label_1
_geom_bond_atom_site_label_2
_geom_bond_site_symmetry_1
_geom_bond_site_symmetry_2
H1 C2 1_555 1_555
H2 C2 1_555 1_555
O1 C1 1_555 1_555
O2 C1 1_555 1_555
C1 C2 1_555 1_555
C2 C2O 1_555 1_555
Li1 O1 1_555 1_555
H1O C2O 1_555 1_555
H2O C2O 1_555 1_555
O1O C1O 1_555 1_555
O2O C1O 1_555 1_555
C1O C2O 1_555 1_555
Li1A O2 1_555 1_555
O1A Li1A 1_555 1_555
O1J Li1 1_555 1_555
O1K Li1A 1_555 1_555
O2B Li1 1_555 1_555
O2L Li1A 1_555 1_555
O2N Li1 1_555 1_555
Li1E O1O 1_555 1_555
Li1G O2O 1_555 1_555
Li1K O1 1_555 1_555
Li1O O1O 1_555 1_555
Li1P O2O 1_555 1_555
Li1M O2 1_555 1_555
O1K Li1K 1_555 1_555
O2L Li1M 1_555 1_555

#END
