
#######################################################################
#
#                 Cambridge Crystallographic Data Centre
#                                CCDC 
#
#######################################################################
#
# If this CIF has been generated from an entry in the Cambridge 
# Structural Database, then it will include bibliographic, chemical, 
# crystal, experimental, refinement or atomic coordinate data resulting 
# from the CCDC's data processing and validation procedures.
#
#######################################################################

data_LISZOE
_symmetry_cell_setting           monoclinic
_symmetry_space_group_name_H-M   'P 21/c'
_symmetry_Int_Tables_number      14
_space_group_name_Hall           '-P 2ybc'
loop_
_symmetry_equiv_pos_site_id
_symmetry_equiv_pos_as_xyz
1 x,y,z
2 -x,1/2+y,1/2-z
3 -x,-y,-z
4 x,1/2-y,1/2+z
_cell_length_a                   11.6415(7)
_cell_length_b                   16.0920(4)
_cell_length_c                   13.2243(8)
_cell_angle_alpha                90
_cell_angle_beta                 132.228(11)
_cell_angle_gamma                90
_cell_volume                     1834.44
loop_
_atom_site_label
_atom_site_type_symbol
_atom_site_fract_x
_atom_site_fract_y
_atom_site_fract_z
Y1 Y 0.24988(3) 0.002983(15) 0.25073(3)
O1 O 0.4248(2) 0.10905(13) 0.3535(2)
O2 O 0.6021(2) 0.08836(13) 0.5774(2)
C1 C 0.8432(3) 0.30785(18) 0.5015(3)
O3 O 0.0619(2) -0.04294(13) 0.2670(2)
O4 O 0.2197(2) 0.05744(14) 0.4031(2)
O5 O 0.2348(2) 0.03113(14) 0.0595(2)
O6 O 1.0620(2) 0.39629(13) 0.6285(2)
O7 O 0.4316(2) -0.04140(14) 0.2303(2)
C2 C 0.5539(3) 0.12429(18) 0.4708(3)
C3 C 0.8681(3) 0.28523(19) 0.6165(3)
H1 H 0.9473 0.3103 0.7001
C4 C 0.4334(3) -0.0027(2) 0.0567(3)
C5 C 0.7758(3) 0.22582(19) 0.6068(3)
H2 H 0.7949 0.2099 0.6846
C6 C 0.0522(3) 0.0041(2) 0.4323(3)
C7 C 0.7216(3) 0.27110(19) 0.3763(3)
H3 H 0.7030 0.2864 0.2986
C8 C 0.9441(3) 0.37150(18) 0.5125(3)
C9 C 0.6291(3) 0.2123(2) 0.3672(3)
H4 H 0.5489 0.1878 0.2834
O8 O 0.9089(2) 0.39648(12) 0.4033(2)
C10 C 0.6542(3) 0.18942(18) 0.4817(3)
C11 C 0.3632(3) -0.00508(19) 0.1188(3)
C12 C 0.3416(3) 0.0084(2) -0.0825(3)
H5 H 0.2347 0.0138 -0.1386
C13 C 0.5925(4) -0.0117(2) 0.1389(3)
H6 H 0.6552 -0.0199 0.2324
C14 C 0.1137(3) 0.00689(18) 0.3630(3)
C15 C 0.0139(3) -0.0722(2) 0.4515(3)
H7 H 0.0225 -0.1204 0.4182
C16 C 0.0375(3) 0.0763(2) 0.4797(3)
H8 H 0.0619 0.1274 0.4654
O9 O -0.1846(3) -0.19692(17) 0.0888(3)
Li1 Li -0.0865(6) -0.1005(3) 0.0949(5)
H9 H -0.248(3) -0.2338(17) 0.016(2)
H10 H -0.210(4) -0.202(2) 0.141(3)
O3B O -0.0619(2) 0.04294(13) 0.7330(2)
O4B O -0.2197(2) -0.05744(14) 0.5969(2)
C6B C -0.0522(3) -0.0041(2) 0.5677(3)
C14B C -0.1137(3) -0.00689(18) 0.6370(3)
C15B C -0.0139(3) 0.0722(2) 0.5485(3)
H7B H -0.0225 0.1204 0.5818
C16B C -0.0375(3) -0.0763(2) 0.5203(3)
H8B H -0.0619 -0.1274 0.5346
O5B O 0.7652(2) -0.03113(14) -0.0595(2)
O7B O 0.5684(2) 0.04140(14) -0.2303(2)
C4B C 0.5666(3) 0.0027(2) -0.0567(3)
C11B C 0.6368(3) 0.00508(19) -0.1188(3)
C12B C 0.6584(3) -0.0084(2) 0.0825(3)
H5B H 0.7653 -0.0138 0.1386
C13B C 0.4075(4) 0.0117(2) -0.1389(3)
H6B H 0.3448 0.0199 -0.2324
O9B O 0.1846(3) 0.19692(17) -0.0888(3)
Li1B Li 0.0865(6) 0.1005(3) -0.0949(5)
H9B H 0.248(3) 0.2338(17) -0.016(2)
H10B H 0.210(4) 0.202(2) -0.141(3)
Y1B Y 0.75012(3) -0.002983(15) 0.74927(3)
O1B O 0.5752(2) -0.10905(13) 0.6465(2)
O2B O 0.3979(2) -0.08836(13) 0.4226(2)
C1B C 0.1568(3) -0.30785(18) 0.4985(3)
O6B O -0.0620(2) -0.39629(13) 0.3715(2)
C2B C 0.4461(3) -0.12429(18) 0.5292(3)
C3B C 0.1319(3) -0.28523(19) 0.3835(3)
H1B H 0.0527 -0.3103 0.2999
C5B C 0.2242(3) -0.22582(19) 0.3932(3)
H2B H 0.2051 -0.2099 0.3154
C7B C 0.2784(3) -0.27110(19) 0.6237(3)
H3B H 0.2970 -0.2864 0.7014
C8B C 0.0559(3) -0.37150(18) 0.4875(3)
C9B C 0.3709(3) -0.2123(2) 0.6328(3)
H4B H 0.4511 -0.1878 0.7166
O8B O 0.0911(2) -0.39648(12) 0.5967(2)
C10B C 0.3458(3) -0.18942(18) 0.5183(3)
Y1C Y 0.24988(3) -0.502983(15) 0.75073(3)
Y1C_2 Y 1.24988(3) 0.497017(15) 0.75073(3)
Y1B_2 Y -0.24988(3) -0.002983(15) 0.74927(3)
Y1B_3 Y 0.75012(3) -0.002983(15) -0.25073(3)
Y1A Y -0.24988(3) -0.497017(15) 0.24927(3)
Y1A_2 Y 0.75012(3) 0.502983(15) 0.24927(3)
O3B_2 O -0.0619(2) 0.04294(13) -0.2670(2)
O3B_3 O 0.9381(2) 0.04294(13) 0.7330(2)
O4B_2 O 0.7803(2) -0.05744(14) 0.5969(2)
O5B_2 O -0.2348(2) -0.03113(14) -0.0595(2)
O5B_3 O 0.7652(2) -0.03113(14) 0.9405(2)
O6C O 0.0620(2) 0.10371(13) 0.1285(2)
O6A O 0.9380(2) -0.10371(13) 0.8715(2)
O7B_2 O 0.5684(2) 0.04140(14) 0.7697(2)
O8C O -0.0911(2) 0.10352(12) -0.0967(2)
O8C_2 O 0.9089(2) 0.10352(12) 0.9033(2)
O8A O 0.0911(2) -0.10352(12) 0.0967(2)
Li1_2 Li 0.9135(6) -0.1005(3) 0.0949(5)
Li1C Li -0.0865(6) -0.3995(3) 0.5949(5)
Li1B_2 Li 0.0865(6) 0.1005(3) 0.9051(5)
Li1A Li 1.0865(6) 0.3995(3) 0.4051(5)
O10 O 0.3580(3) 0.17524(16) 0.6075(3)
H11 H 0.442(3) 0.1483(18) 0.679(2)
H12 H 0.308(3) 0.1372(16) 0.536(2)
O11 O 0.2412(3) 0.22697(19) 0.7402(3)
H13 H 0.285(3) 0.2044(17) 0.710(3)
H14 H 0.273(3) 0.2814(12) 0.751(3)
loop_
_geom_bond_atom_site_label_1
_geom_bond_atom_site_label_2
_geom_bond_site_symmetry_1
_geom_bond_site_symmetry_2
Y1 O1 1_555 1_555
O1 C2 1_555 1_555
O2 C2 1_555 1_555
C1 C3 1_555 1_555
O3 Y1 1_555 1_555
O4 Y1 1_555 1_555
O5 Y1 1_555 1_555
O6 C8 1_555 1_555
O7 Y1 1_555 1_555
C2 C10 1_555 1_555
C3 H1 1_555 1_555
C4 C11 1_555 1_555
C5 C3 1_555 1_555
H2 C5 1_555 1_555
C6 C14 1_555 1_555
C7 C1 1_555 1_555
H3 C7 1_555 1_555
C8 C1 1_555 1_555
C9 C7 1_555 1_555
H4 C9 1_555 1_555
O8 C8 1_555 1_555
C10 C5 1_555 1_555
C11 O5 1_555 1_555
C12 C4 1_555 1_555
H5 C12 1_555 1_555
C13 C4 1_555 1_555
H6 C13 1_555 1_555
C14 O3 1_555 1_555
C15 C6 1_555 1_555
H7 C15 1_555 1_555
C16 C6 1_555 1_555
H8 C16 1_555 1_555
O9 Li1 1_555 1_555
Li1 O3 1_555 1_555
H9 O9 1_555 1_555
H10 O9 1_555 1_555
O10 H11 1_555 1_555
H12 O10 1_555 1_555
O11 H13 1_555 1_555
H14 O11 1_555 1_555
O3B C14B 1_555 1_555
O4B C14B 1_555 1_555
C6B C14B 1_555 1_555
C15B C16 1_555 1_555
H7B C15B 1_555 1_555
C16B C15 1_555 1_555
H8B C16B 1_555 1_555
O5B C11B 1_555 1_555
O7B C11B 1_555 1_555
C4B C11B 1_555 1_555
C12B C13 1_555 1_555
H5B C12B 1_555 1_555
C13B C12 1_555 1_555
H6B C13B 1_555 1_555
O9B Li1B 1_555 1_555
Li1B O5 1_555 1_555
H9B O9B 1_555 1_555
H10B O9B 1_555 1_555
Y1B O2 1_555 1_555
O1B Y1B 1_555 1_555
O2B Y1 1_555 1_555
C1B C3B 1_555 1_555
O6B C8B 1_555 1_555
C2B O1B 1_555 1_555
C3B H1B 1_555 1_555
C5B C3B 1_555 1_555
H2B C5B 1_555 1_555
C7B C1B 1_555 1_555
H3B C7B 1_555 1_555
C8B C1B 1_555 1_555
C9B C7B 1_555 1_555
H4B C9B 1_555 1_555
O8B C8B 1_555 1_555
C10B C2B 1_555 1_555
Y1C O8B 1_555 1_555
Y1C_2 O6 1_555 1_555
Y1B_2 O3B 1_555 1_555
Y1B_3 O5B 1_555 1_555
Y1A O6B 1_555 1_555
Y1A_2 O8 1_555 1_555
O3B_2 Li1B 1_555 1_555
O3B_3 Y1B 1_555 1_555
O4B_2 Y1B 1_555 1_555
O5B_2 Li1 1_555 1_555
O5B_3 Y1B 1_555 1_555
O6C Y1 1_555 1_555
O6A Y1B 1_555 1_555
O7B_2 Y1B 1_555 1_555
O8C Li1B 1_555 1_555
O8C_2 Y1B 1_555 1_555
O8A Y1 1_555 1_555
Li1_2 O5B 1_555 1_555
Li1C O8B 1_555 1_555
Li1B_2 O3B 1_555 1_555
Li1A O8 1_555 1_555
O4 C14 1_555 1_555
O7 C11 1_555 1_555
C9 C10 1_555 1_555
Li1 O8A 1_555 1_555
O4B Y1B_2 1_555 1_555
C6B C15B 1_555 1_555
C6B C16B 1_555 1_555
O7B Y1B_3 1_555 1_555
C4B C12B 1_555 1_555
C4B C13B 1_555 1_555
O2B C2B 1_555 1_555
C5B C10B 1_555 1_555
C9B C10B 1_555 1_555

#END
