
#######################################################################
#
#                 Cambridge Crystallographic Data Centre
#                                CCDC 
#
#######################################################################
#
# If this CIF has been generated from an entry in the Cambridge 
# Structural Database, then it will include bibliographic, chemical, 
# crystal, experimental, refinement or atomic coordinate data resulting 
# from the CCDC's data processing and validation procedures.
#
#######################################################################

data_LIVCIC
_symmetry_cell_setting           monoclinic
_symmetry_space_group_name_H-M   'P 21/n'
_symmetry_Int_Tables_number      14
_space_group_name_Hall           '-P 2yn'
loop_
_symmetry_equiv_pos_site_id
_symmetry_equiv_pos_as_xyz
1 x,y,z
2 1/2-x,1/2+y,1/2-z
3 -x,-y,-z
4 1/2+x,1/2-y,1/2+z
_cell_length_a                   13.315(2)
_cell_length_b                   8.539(2)
_cell_length_c                   13.932(2)
_cell_angle_alpha                90
_cell_angle_beta                 108.728(9)
_cell_angle_gamma                90
_cell_volume                     1500.16
loop_
_atom_site_label
_atom_site_type_symbol
_atom_site_fract_x
_atom_site_fract_y
_atom_site_fract_z
Hg1 Hg 0.27980(3) 0.27033(4) 0.34790(2)
Cl1 Cl 0.4556(3) 0.1977(6) 0.3904(3)
N1 N 0.0298(5) 0.6863(8) 0.4585(5)
C1 C -0.0589(9) 0.7981(13) 0.4397(9)
C2 C 0.0316(6) 0.5724(9) 0.3871(6)
C3 C 0.1141(8) 0.7083(11) 0.5461(7)
O1 O 0.1125(6) 0.8041(9) 0.6082(5)
C4 C 0.2919(9) 0.6287(14) 0.6528(7)
N2 N 0.2017(6) 0.6089(9) 0.5598(5)
C5 C 0.2132(6) 0.5024(10) 0.4926(6)
O2 O 0.2936(5) 0.4233(8) 0.5089(5)
C6 C 0.1218(6) 0.4843(8) 0.4017(6)
N3 N 0.1237(5) 0.3780(8) 0.3281(5)
C7 C 0.0393(7) 0.3577(11) 0.2475(6)
C8 C 0.0423(10) 0.2442(14) 0.1692(9)
C9 C -0.0524(7) 0.4464(11) 0.2391(6)
C10 C -0.1498(8) 0.4282(15) 0.1501(8)
N4 N -0.0563(6) 0.5559(8) 0.3063(6)
N5 N 0.2090(7) -0.0809(11) 0.3576(6)
O3 O 0.2279(7) -0.0096(9) 0.2851(6)
O4 O 0.2106(9) -0.2254(9) 0.3569(8)
O5 O 0.1895(9) -0.0003(13) 0.4232(7)
H1 H -0.1247(9) 0.7442(21) 0.4091(54)
H2 H -0.0509(33) 0.8792(50) 0.3949(46)
H3 H -0.0588(38) 0.8437(68) 0.5027(11)
H4 H 0.3102(41) 0.5292(22) 0.6860(33)
H5 H 0.2731(24) 0.7005(75) 0.6972(27)
H6 H 0.3514(22) 0.6691(90) 0.6360(9)
H7 H 0.0333(63) 0.2981(18) 0.1065(18)
H8 H -0.0137(41) 0.1693(56) 0.1600(43)
H9 H 0.1094(27) 0.1910(68) 0.1900(29)
H10 H -0.1690(35) 0.3195(18) 0.1413(36)
H11 H -0.1366(20) 0.4665(84) 0.0905(13)
H12 H -0.2066(18) 0.4868(74) 0.1611(27)
Hg1A Hg 0.22020(3) -0.22967(4) 0.15210(2)
O3A O 0.2721(7) 0.4904(9) 0.2149(6)
loop_
_geom_bond_atom_site_label_1
_geom_bond_atom_site_label_2
_geom_bond_site_symmetry_1
_geom_bond_site_symmetry_2
Hg1 Cl1 1_555 1_555
N1 C1 1_555 1_555
C1 H1 1_555 1_555
C2 N1 1_555 1_555
C3 N1 1_555 1_555
O1 C3 1_555 1_555
C4 N2 1_555 1_555
N2 C3 1_555 1_555
C5 N2 1_555 1_555
O2 Hg1 1_555 1_555
C6 C2 1_555 1_555
N3 Hg1 1_555 1_555
C7 N3 1_555 1_555
C8 C7 1_555 1_555
C9 C7 1_555 1_555
C10 C9 1_555 1_555
N4 C2 1_555 1_555
N5 O3 1_555 1_555
O3 Hg1 1_555 1_555
O4 N5 1_555 1_555
O5 N5 1_555 1_555
H2 C1 1_555 1_555
H3 C1 1_555 1_555
H4 C4 1_555 1_555
H5 C4 1_555 1_555
H6 C4 1_555 1_555
H7 C8 1_555 1_555
H8 C8 1_555 1_555
H9 C8 1_555 1_555
H10 C10 1_555 1_555
H11 C10 1_555 1_555
H12 C10 1_555 1_555
Hg1A O3 1_555 1_555
O3A Hg1 1_555 1_555
C5 O2 1_555 1_555
C5 C6 1_555 1_555
C6 N3 1_555 1_555
C9 N4 1_555 1_555

#END
