
#######################################################################
#
#                 Cambridge Crystallographic Data Centre
#                                CCDC 
#
#######################################################################
#
# If this CIF has been generated from an entry in the Cambridge 
# Structural Database, then it will include bibliographic, chemical, 
# crystal, experimental, refinement or atomic coordinate data resulting 
# from the CCDC's data processing and validation procedures.
#
#######################################################################

data_LIVGOO
_symmetry_cell_setting           orthorhombic
_symmetry_space_group_name_H-M   'P b c a'
_symmetry_Int_Tables_number      61
_space_group_name_Hall           '-P 2ac 2ab'
loop_
_symmetry_equiv_pos_site_id
_symmetry_equiv_pos_as_xyz
1 x,y,z
2 1/2-x,-y,1/2+z
3 -x,1/2+y,1/2-z
4 1/2+x,1/2-y,-z
5 -x,-y,-z
6 1/2+x,y,1/2-z
7 x,1/2-y,1/2+z
8 1/2-x,1/2+y,z
_cell_length_a                   17.847(2)
_cell_length_b                   9.4180(12)
_cell_length_c                   34.602(4)
_cell_angle_alpha                90
_cell_angle_beta                 90
_cell_angle_gamma                90
_cell_volume                     5816.01
loop_
_atom_site_label
_atom_site_type_symbol
_atom_site_fract_x
_atom_site_fract_y
_atom_site_fract_z
Eu1 Eu 0.760147(13) 0.83510(2) 0.118678(6)
Ag1 Ag 0.65633(4) 0.57125(7) 0.370457(13)
Ag2 Ag 1.03453(3) 1.22755(7) -0.080876(16)
S1 S 0.90529(7) 0.56551(13) 0.14711(3)
O1 O 0.7047(3) 0.2790(4) 0.55742(10)
O2 O 0.8668(2) 0.9646(4) 0.09052(12)
O3 O 0.8765(2) 0.6989(4) 0.13003(11)
O4 O 0.6911(2) 0.4743(4) 0.16855(10)
O5 O 0.7358(2) 0.6954(4) 0.17377(11)
O6 O 0.7113(2) 0.5082(4) 0.57258(10)
O7 O 0.8481(2) 0.4560(4) 0.15024(10)
O8 O 0.9730(2) 0.5226(5) 0.12778(12)
C1 C 0.9300(3) 0.6098(5) 0.19481(14)
C2 C 0.9162(3) 0.5829(5) 0.26419(15)
C3 C 0.9799(3) 0.6729(6) 0.26985(16)
C4 C 0.8928(3) 0.5525(6) 0.22579(14)
H1 H 0.8519 0.4933 0.2216
C5 C 0.8719(3) 1.0969(6) 0.08314(15)
O9 O 0.8446(2) 1.1958(4) 0.10216(12)
C6 C 0.9117(3) 1.1362(6) 0.04674(15)
C7 C 0.9002(3) 1.0533(6) 0.01361(16)
H2 H 0.8707 0.9719 0.0147
C8 C 0.9559(3) 1.2559(7) 0.04347(18)
H3 H 0.9641 1.3149 0.0646
C9 C 0.9083(3) 0.5468(6) 0.33305(16)
C10 C 0.8805(3) 0.5234(6) 0.29692(14)
H4 H 0.8377 0.4681 0.2938
N1 N 0.6673(3) 0.5756(5) 0.30886(13)
C11 C 0.6900(3) 0.5832(5) 0.22967(14)
C12 C 0.7062(3) 0.5843(5) 0.18684(14)
C13 C 0.7198(3) 0.6871(6) 0.25331(16)
H5 H 0.7472 0.7617 0.2428
C14 C 0.6476(3) 0.4760(6) 0.24607(15)
H6 H 0.6266 0.4050 0.2308
C15 C 0.7084(4) 0.6789(7) 0.29270(16)
H7 H 0.7300 0.7474 0.3086
C16 C 0.6371(4) 0.4768(7) 0.28564(17)
H8 H 0.6078 0.4059 0.2967
N2 N 0.6628(3) 0.5188(5) 0.43046(12)
C17 C 0.6604(4) 0.3830(7) 0.44214(16)
H9 H 0.6501 0.3128 0.4240
C18 C 0.6780(4) 0.6177(6) 0.45661(16)
H10 H 0.6805 0.7120 0.4487
S2 S 0.86745(10) 0.45969(17) 0.37400(4)
O10 O 0.8635(4) 0.5636(6) 0.40418(13)
O11 O 0.7956(3) 0.4038(6) 0.36138(14)
C19 C 1.0145(3) 0.7333(6) 0.23704(17)
H11 H 1.0546 0.7951 0.2405
C20 C 0.9330(4) 1.0943(7) -0.02040(17)
H12 H 0.9238 1.0402 -0.0424
C21 C 0.9876(3) 1.2857(7) 0.00798(19)
H13 H 1.0180 1.3656 0.0061
N3 N 0.9778(3) 1.2083(6) -0.02368(15)
C22 C 0.6904(3) 0.5863(5) 0.49519(15)
H14 H 0.7004 0.6587 0.5127
C23 C 0.6724(3) 0.3436(6) 0.47990(15)
H15 H 0.6703 0.2484 0.4869
C24 C 0.6878(3) 0.4467(5) 0.50745(13)
C25 C 0.9910(3) 0.7038(6) 0.20040(16)
H16 H 1.0148 0.7451 0.1793
C26 C 0.9718(4) 0.6335(7) 0.33853(17)
H17 H 0.9903 0.6479 0.3633
C27 C 1.0065(4) 0.6969(7) 0.30763(18)
H18 H 1.0476 0.7558 0.3116
O12 O 0.9190(3) 0.3436(6) 0.38288(14)
C28 C 0.7023(3) 0.4092(5) 0.54924(13)
Eu1A Eu 0.739853(13) 0.16490(2) 0.618678(6)
Eu1F Eu 0.760147(13) 0.66490(2) 0.618678(6)
Eu1G Eu 0.739853(13) 0.33510(2) 0.118678(6)
Eu1G_2 Eu 0.739853(13) 1.33510(2) 0.118678(6)
Ag2D Ag 0.96547(3) 0.77245(7) 0.080876(16)
Ag2F Ag 1.03453(3) 0.27245(7) 0.419124(16)
O1A O 0.7953(3) 0.7210(4) 0.05742(10)
O2D O 1.1332(2) 1.0354(4) -0.09052(12)
O3D O 1.1235(2) 1.3011(4) -0.13003(11)
O4G O 0.8089(2) 0.9743(4) 0.16855(10)
O6F O 0.7113(2) 0.9918(4) 0.07258(10)
O7G O 0.6519(2) 0.9560(4) 0.15024(10)
O9G O 0.6554(2) 0.6958(4) 0.10216(12)
O12F O 0.9190(3) 1.1564(6) -0.11712(14)
loop_
_geom_bond_atom_site_label_1
_geom_bond_atom_site_label_2
_geom_bond_site_symmetry_1
_geom_bond_site_symmetry_2
Eu1 O2 1_555 1_555
Ag1 N1 1_555 1_555
Ag2 N3 1_555 1_555
S1 O3 1_555 1_555
O1 C28 1_555 1_555
O2 C5 1_555 1_555
O3 Eu1 1_555 1_555
O4 C12 1_555 1_555
O5 Eu1 1_555 1_555
O6 C28 1_555 1_555
O7 S1 1_555 1_555
O8 S1 1_555 1_555
C1 S1 1_555 1_555
C2 C3 1_555 1_555
C3 C19 1_555 1_555
C4 C1 1_555 1_555
H1 C4 1_555 1_555
C5 O9 1_555 1_555
O9 Eu1G_2 1_555 1_555
C6 C5 1_555 1_555
C7 C6 1_555 1_555
H2 C7 1_555 1_555
C8 C6 1_555 1_555
H3 C8 1_555 1_555
C9 C10 1_555 1_555
C10 C2 1_555 1_555
H4 C10 1_555 1_555
N1 C15 1_555 1_555
C11 C12 1_555 1_555
C12 O5 1_555 1_555
C13 C11 1_555 1_555
H5 C13 1_555 1_555
C14 C11 1_555 1_555
H6 C14 1_555 1_555
C15 C13 1_555 1_555
H7 C15 1_555 1_555
C16 N1 1_555 1_555
H8 C16 1_555 1_555
N2 Ag1 1_555 1_555
C17 N2 1_555 1_555
H9 C17 1_555 1_555
C18 N2 1_555 1_555
H10 C18 1_555 1_555
S2 C9 1_555 1_555
O10 S2 1_555 1_555
O11 S2 1_555 1_555
C19 H11 1_555 1_555
C20 C7 1_555 1_555
H12 C20 1_555 1_555
C21 C8 1_555 1_555
H13 C21 1_555 1_555
N3 C20 1_555 1_555
C22 C18 1_555 1_555
H14 C22 1_555 1_555
C23 C17 1_555 1_555
H15 C23 1_555 1_555
C24 C22 1_555 1_555
C25 C1 1_555 1_555
H16 C25 1_555 1_555
C26 C9 1_555 1_555
H17 C26 1_555 1_555
C27 C3 1_555 1_555
H18 C27 1_555 1_555
O12 S2 1_555 1_555
C28 C24 1_555 1_555
Eu1A O1 1_555 1_555
Eu1F O6 1_555 1_555
Eu1G O4 1_555 1_555
Ag2D O2 1_555 1_555
Ag2F O12 1_555 1_555
O1A Eu1 1_555 1_555
O2D Ag2 1_555 1_555
O3D Ag2 1_555 1_555
O4G Eu1 1_555 1_555
O6F Eu1 1_555 1_555
O7G Eu1 1_555 1_555
O9G Eu1 1_555 1_555
O12F Ag2 1_555 1_555
O3 Ag2D 1_555 1_555
O7 Eu1G 1_555 1_555
C2 C4 1_555 1_555
C14 C16 1_555 1_555
C19 C25 1_555 1_555
C21 N3 1_555 1_555
C23 C24 1_555 1_555
C26 C27 1_555 1_555

#END
