
#######################################################################
#
#                 Cambridge Crystallographic Data Centre
#                                CCDC 
#
#######################################################################
#
# If this CIF has been generated from an entry in the Cambridge 
# Structural Database, then it will include bibliographic, chemical, 
# crystal, experimental, refinement or atomic coordinate data resulting 
# from the CCDC's data processing and validation procedures.
#
#######################################################################

data_LIVGAA
_symmetry_cell_setting           hexagonal
_symmetry_space_group_name_H-M   'P 65 2 2'
_symmetry_Int_Tables_number      179
_space_group_name_Hall           "P 65 2' (0,0,1)"
loop_
_symmetry_equiv_pos_site_id
_symmetry_equiv_pos_as_xyz
1 x,y,z
2 -y,x-y,2/3+z
3 -x+y,-x,1/3+z
4 -x,-y,1/2+z
5 y,-x+y,1/6+z
6 x-y,x,5/6+z
7 y,x,2/3-z
8 x-y,-y,-z
9 -x,-x+y,1/3-z
10 -y,-x,1/6-z
11 -x+y,y,1/2-z
12 x,x-y,5/6-z
_cell_length_a                   12.2935(7)
_cell_length_b                   12.2935(7)
_cell_length_c                   21.679(2)
_cell_angle_alpha                90
_cell_angle_beta                 90
_cell_angle_gamma                120
_cell_volume                     2837.4
loop_
_atom_site_label
_atom_site_type_symbol
_atom_site_fract_x
_atom_site_fract_y
_atom_site_fract_z
Ag1 Ag 0.94765(8) 1.0000 0.0000
Ag2 Ag 0.52373(5) 0.47627(5) 0.0833
C1 C 0.6257(9) 0.7711(8) 0.0141(4)
H1 H 0.5585 0.6999 -0.0083
C2 C 0.5685(11) 0.7978(11) 0.0699(4)
H2 H 0.6317 0.8715 0.0906
H3 H 0.5360 0.7275 0.0976
H4 H 0.5016 0.8113 0.0568
C3 C 0.7268(9) 0.7387(8) 0.0301(3)
C4 C 0.9009(9) 0.7370(8) 0.0395(4)
C5 C 1.0235(9) 0.7596(10) 0.0373(5)
H5 H 1.0885 0.8352 0.0224
C6 C 1.0455(10) 0.6675(11) 0.0578(5)
H6 H 1.1272 0.6816 0.0569
C7 C 0.9500(11) 0.5533(10) 0.0799(5)
H7 H 0.9683 0.4925 0.0934
C8 C 0.8280(10) 0.5300(10) 0.0818(5)
H8 H 0.7635 0.4543 0.0969
C9 C 0.8040(9) 0.6223(8) 0.0605(4)
N1 N 0.8493(7) 0.8100(6) 0.0212(3)
N2 N 0.6919(7) 0.6254(7) 0.0540(3)
O1 O 0.6775(7) 0.8790(6) -0.0257(3)
H9 H 0.6389 0.9119 -0.0193
C1G C 0.8546(12) 1.2289(8) -0.0141(4)
H1G H 0.8586 1.3001 0.0083
C2G C 0.7707(16) 1.2022(11) -0.0699(4)
H2G H 0.7602 1.1285 -0.0906
H3G H 0.8085 1.2725 -0.0976
H4G H 0.6903 1.1887 -0.0568
C3G C 0.9881(12) 1.2613(8) -0.0301(3)
C4G C 1.1639(12) 1.2630(8) -0.0395(4)
C5G C 1.2639(13) 1.2404(10) -0.0373(5)
H5G H 1.2533 1.1648 -0.0224
C6G C 1.3780(15) 1.3325(11) -0.0578(5)
H6G H 1.4456 1.3184 -0.0569
C7G C 1.3967(15) 1.4467(10) -0.0799(5)
H7G H 1.4758 1.5075 -0.0934
C8G C 1.2980(14) 1.4700(10) -0.0818(5)
H8G H 1.3092 1.5457 -0.0969
C9G C 1.1817(12) 1.3777(8) -0.0605(4)
N1G N 1.0393(9) 1.1900(6) -0.0212(3)
N2G N 1.0665(10) 1.3746(7) -0.0540(3)
O1G O 0.7985(9) 1.1210(6) 0.0257(3)
H9G H 0.7270 1.0881 0.0193
Ag2E Ag 1.04746(7) 1.52373(5) -0.0834
N2I N 0.3746(7) 0.3081(7) 0.1127(3)
loop_
_geom_bond_atom_site_label_1
_geom_bond_atom_site_label_2
_geom_bond_site_symmetry_1
_geom_bond_site_symmetry_2
Ag1 N1 1_555 1_555
Ag2 N2 1_555 1_555
C1 H1 1_555 1_555
C2 C1 1_555 1_555
H2 C2 1_555 1_555
H3 C2 1_555 1_555
H4 C2 1_555 1_555
C3 C1 1_555 1_555
C4 C5 1_555 1_555
C5 H5 1_555 1_555
C6 C5 1_555 1_555
H6 C6 1_555 1_555
C7 C6 1_555 1_555
H7 C7 1_555 1_555
C8 C7 1_555 1_555
H8 C8 1_555 1_555
C9 C4 1_555 1_555
N1 C3 1_555 1_555
N2 C3 1_555 1_555
O1 C1 1_555 1_555
H9 O1 1_555 1_555
C1G H1G 1_555 1_555
C2G C1G 1_555 1_555
H2G C2G 1_555 1_555
H3G C2G 1_555 1_555
H4G C2G 1_555 1_555
C3G C1G 1_555 1_555
C4G C5G 1_555 1_555
C5G H5G 1_555 1_555
C6G C5G 1_555 1_555
H6G C6G 1_555 1_555
C7G C6G 1_555 1_555
H7G C7G 1_555 1_555
C8G C7G 1_555 1_555
H8G C8G 1_555 1_555
C9G C4G 1_555 1_555
N1G Ag1 1_555 1_555
N2G C3G 1_555 1_555
O1G C1G 1_555 1_555
H9G O1G 1_555 1_555
Ag2E N2G 1_555 1_555
N2I Ag2 1_555 1_555
C4 N1 1_555 1_555
C8 C9 1_555 1_555
C9 N2 1_555 1_555
C3G N1G 1_555 1_555
C4G N1G 1_555 1_555
C8G C9G 1_555 1_555
C9G N2G 1_555 1_555

#END
