
#######################################################################
#
#                 Cambridge Crystallographic Data Centre
#                                CCDC 
#
#######################################################################
#
# If this CIF has been generated from an entry in the Cambridge 
# Structural Database, then it will include bibliographic, chemical, 
# crystal, experimental, refinement or atomic coordinate data resulting 
# from the CCDC's data processing and validation procedures.
#
#######################################################################

data_LIVGII
_symmetry_cell_setting           hexagonal
_symmetry_space_group_name_H-M   'P 61 2 2'
_symmetry_Int_Tables_number      178
_space_group_name_Hall           "P 61 2' (0,0,5)"
loop_
_symmetry_equiv_pos_site_id
_symmetry_equiv_pos_as_xyz
1 x,y,z
2 -y,x-y,1/3+z
3 -x+y,-x,2/3+z
4 -x,-y,1/2+z
5 y,-x+y,5/6+z
6 x-y,x,1/6+z
7 y,x,1/3-z
8 x-y,-y,-z
9 -x,-x+y,2/3-z
10 -y,-x,5/6-z
11 -x+y,y,1/2-z
12 x,x-y,1/6-z
_cell_length_a                   12.2979(7)
_cell_length_b                   12.2979(7)
_cell_length_c                   21.653(2)
_cell_angle_alpha                90
_cell_angle_beta                 90
_cell_angle_gamma                120
_cell_volume                     2836.03
loop_
_atom_site_label
_atom_site_type_symbol
_atom_site_fract_x
_atom_site_fract_y
_atom_site_fract_z
Ag1 Ag -0.05261(7) 0.0000 0.0000
Ag2 Ag 0.04709(8) 0.52355(4) 0.0833
C1 C -0.1441(6) 0.2294(7) 0.0145(3)
H1 H -0.1393 0.3012 -0.0076
C2 C -0.2274(7) 0.2037(9) 0.0703(3)
H2 H -0.3071 0.1923 0.0573
H3 H -0.1883 0.2735 0.0982
H4 H -0.2397 0.1291 0.0906
C3 C -0.0117(7) 0.2614(7) 0.0308(3)
C4 C 0.1796(7) 0.3771(6) 0.0604(3)
C5 C 0.2969(7) 0.4692(8) 0.0816(4)
H5 H 0.3087 0.5450 0.0970
C6 C 0.3947(8) 0.4453(8) 0.0793(4)
H6 H 0.4739 0.5060 0.0929
C7 C 0.3771(8) 0.3326(8) 0.0572(4)
H7 H 0.4452 0.3195 0.0559
C8 C 0.2630(8) 0.2397(8) 0.0372(3)
H8 H 0.2522 0.1639 0.0225
C9 C 0.1628(7) 0.2631(6) 0.0396(3)
N1 N 0.0387(5) 0.1900(5) 0.0213(2)
N2 N 0.0667(6) 0.3752(5) 0.0539(2)
O1 O -0.2031(5) 0.1217(5) -0.0258(2)
H9 H -0.1478 0.0971 -0.0191
C1G C -0.3735(9) -0.2294(7) -0.0145(3)
H1G H -0.4405 -0.3012 0.0076
C2G C -0.4311(11) -0.2037(9) -0.0703(3)
H2G H -0.4994 -0.1923 -0.0573
H3G H -0.4618 -0.2735 -0.0982
H4G H -0.3688 -0.1291 -0.0906
C3G C -0.2731(10) -0.2614(7) -0.0308(3)
C4G C -0.1975(9) -0.3771(6) -0.0604(3)
C5G C -0.1723(11) -0.4692(8) -0.0816(4)
H5G H -0.2363 -0.5450 -0.0970
C6G C -0.0506(11) -0.4453(8) -0.0793(4)
H6G H -0.0321 -0.5060 -0.0929
C7G C 0.0445(11) -0.3326(8) -0.0572(4)
H7G H 0.1257 -0.3195 -0.0559
C8G C 0.0233(11) -0.2397(8) -0.0372(3)
H8G H 0.0883 -0.1639 -0.0225
C9G C -0.1003(9) -0.2631(6) -0.0396(3)
N1G N -0.1513(7) -0.1900(5) -0.0213(2)
N2G N -0.3085(8) -0.3752(5) -0.0539(2)
O1G O -0.3248(7) -0.1217(5) 0.0258(2)
H9G H -0.2449 -0.0971 0.0191
Ag2D Ag -0.47645(4) -0.52354(9) -0.0834
N2K N 0.0667(6) 0.6915(8) 0.1128(2)
loop_
_geom_bond_atom_site_label_1
_geom_bond_atom_site_label_2
_geom_bond_site_symmetry_1
_geom_bond_site_symmetry_2
Ag1 N1 1_555 1_555
Ag2 N2 1_555 1_555
C1 H1 1_555 1_555
C2 C1 1_555 1_555
H2 C2 1_555 1_555
H3 C2 1_555 1_555
H4 C2 1_555 1_555
C3 C1 1_555 1_555
C4 C5 1_555 1_555
C5 H5 1_555 1_555
C6 C5 1_555 1_555
H6 C6 1_555 1_555
C7 C6 1_555 1_555
H7 C7 1_555 1_555
C8 C7 1_555 1_555
H8 C8 1_555 1_555
C9 C4 1_555 1_555
N1 C3 1_555 1_555
N2 C3 1_555 1_555
O1 C1 1_555 1_555
H9 O1 1_555 1_555
C1G H1G 1_555 1_555
C2G C1G 1_555 1_555
H2G C2G 1_555 1_555
H3G C2G 1_555 1_555
H4G C2G 1_555 1_555
C3G C1G 1_555 1_555
C4G C5G 1_555 1_555
C5G H5G 1_555 1_555
C6G C5G 1_555 1_555
H6G C6G 1_555 1_555
C7G C6G 1_555 1_555
H7G C7G 1_555 1_555
C8G C7G 1_555 1_555
H8G C8G 1_555 1_555
C9G C4G 1_555 1_555
N1G Ag1 1_555 1_555
N2G C3G 1_555 1_555
O1G C1G 1_555 1_555
H9G O1G 1_555 1_555
Ag2D N2G 1_555 1_555
N2K Ag2 1_555 1_555
C4 N2 1_555 1_555
C8 C9 1_555 1_555
C9 N1 1_555 1_555
C3G N1G 1_555 1_555
C4G N2G 1_555 1_555
C8G C9G 1_555 1_555
C9G N1G 1_555 1_555

#END
