
#######################################################################
#
#                 Cambridge Crystallographic Data Centre
#                                CCDC 
#
#######################################################################
#
# If this CIF has been generated from an entry in the Cambridge 
# Structural Database, then it will include bibliographic, chemical, 
# crystal, experimental, refinement or atomic coordinate data resulting 
# from the CCDC's data processing and validation procedures.
#
#######################################################################

data_LIVHAB
_symmetry_cell_setting           orthorhombic
_symmetry_space_group_name_H-M   'P b c a'
_symmetry_Int_Tables_number      61
_space_group_name_Hall           '-P 2ac 2ab'
loop_
_symmetry_equiv_pos_site_id
_symmetry_equiv_pos_as_xyz
1 x,y,z
2 1/2-x,-y,1/2+z
3 -x,1/2+y,1/2-z
4 1/2+x,1/2-y,-z
5 -x,-y,-z
6 1/2+x,y,1/2-z
7 x,1/2-y,1/2+z
8 1/2-x,1/2+y,z
_cell_length_a                   17.9026(19)
_cell_length_b                   9.4035(10)
_cell_length_c                   34.477(4)
_cell_angle_alpha                90
_cell_angle_beta                 90
_cell_angle_gamma                90
_cell_volume                     5804.1
loop_
_atom_site_label
_atom_site_type_symbol
_atom_site_fract_x
_atom_site_fract_y
_atom_site_fract_z
Tb1 Tb 0.740193(18) 0.16568(3) 0.118652(8)
Ag1 Ag 0.84366(6) 0.43128(10) 0.370534(19)
O1 O 0.7649(3) 0.3040(6) 0.17318(16)
S1 S 0.90323(10) -0.06582(18) 0.14741(5)
O2 O 0.7061(3) 0.2802(6) 0.05832(14)
O3 O 0.7127(3) 0.5100(6) 0.07354(13)
C1 C 0.6877(4) 0.4467(8) 0.00816(18)
C2 C 0.7031(4) 0.4092(7) 0.05002(19)
O4 O 0.8468(3) 0.0445(5) 0.15050(14)
O5 O 0.8740(3) -0.1995(6) 0.13074(16)
N1 N 0.8333(4) 0.4272(7) 0.30860(18)
N2 N 0.6616(4) 0.5168(7) -0.06910(17)
C3 C 0.9905(4) -0.2020(8) 0.2008(2)
H1 H 1.0144 -0.2423 0.1795
O6 O 0.8088(3) 0.5264(6) 0.16731(15)
C4 C 0.7944(4) 0.4156(7) 0.1860(2)
C5 C 0.7801(5) 0.3143(8) 0.2529(2)
H2 H 0.7522 0.2403 0.2425
C6 C 0.8103(4) 0.4181(7) 0.2290(2)
C7 C 0.7923(5) 0.3227(9) 0.2925(2)
H3 H 0.7715 0.2537 0.3085
O7 O 0.9707(3) -0.0230(7) 0.12751(17)
C8 C 0.9154(4) -0.0819(7) 0.2650(2)
C9 C 1.0141(4) -0.2314(9) 0.2374(2)
H4 H 1.0543 -0.2925 0.2409
C10 C 0.9291(4) -0.1097(8) 0.1955(2)
C11 C 0.9789(4) -0.1712(8) 0.2704(2)
C12 C 0.8918(4) -0.0520(8) 0.2264(2)
H5 H 0.8508 0.0069 0.2222
C13 C 0.6738(5) 0.3425(8) -0.0194(2)
H6 H 0.6730 0.2470 -0.0124
C14 C 0.6881(5) 0.5881(8) -0.0043(2)
H7 H 0.6971 0.6615 0.0131
C15 C 0.9072(5) -0.0440(9) 0.3342(2)
C16 C 1.0063(5) -0.1937(10) 0.3089(3)
H8 H 1.0483 -0.2498 0.3130
S2 S 0.86635(14) 0.0426(3) 0.37487(6)
O8 O 0.9178(5) 0.1581(8) 0.3836(2)
O9 O 0.7958(4) 0.1005(9) 0.3622(2)
O10 O 0.8624(5) -0.0612(8) 0.40527(18)
C17 C 0.8798(4) -0.0222(8) 0.2974(2)
H9 H 0.8372 0.0329 0.2940
C18 C 0.6613(5) 0.3822(10) -0.0573(2)
H10 H 0.6523 0.3113 -0.0755
C19 C 0.8524(4) 0.5254(8) 0.2456(2)
H11 H 0.8729 0.5971 0.2303
C20 C 0.8635(5) 0.5242(9) 0.2851(2)
H12 H 0.8936 0.5944 0.2959
C21 C 0.9707(5) -0.1328(10) 0.3395(3)
H13 H 0.9882 -0.1496 0.3645
C22 C 0.6750(5) 0.6171(9) -0.0428(2)
H14 H 0.6757 0.7115 -0.0508
O11 O 0.6342(3) 0.0380(6) 0.08975(18)
O12 O 0.6552(3) -0.1990(6) 0.10213(18)
C23 C 0.6296(5) -0.0972(9) 0.0839(2)
Ag2 Ag 0.46368(5) -0.22807(11) -0.08014(3)
C24 C 0.5885(5) -0.1378(9) 0.0476(3)
N3 N 0.5209(5) -0.2087(9) -0.0223(3)
C25 C 0.5666(6) -0.0933(10) -0.0198(3)
H15 H 0.5752 -0.0399 -0.0421
C26 C 0.5113(5) -0.2828(13) 0.0088(3)
H16 H 0.4792 -0.3602 0.0068
C27 C 0.6000(5) -0.0532(10) 0.0135(3)
H17 H 0.6297 0.0278 0.0144
C28 C 0.5434(5) -0.2594(11) 0.0446(3)
H18 H 0.5356 -0.3205 0.0654
Tb1G Tb 0.759807(18) -0.33432(3) 0.118652(8)
Tb1G_2 Tb 0.759807(18) 0.66568(3) 0.118652(8)
Ag1A Ag 0.65634(6) 0.56872(10) -0.129466(19)
O3G O 0.7873(3) 0.0100(6) 0.07354(13)
O5C O 0.3740(3) -0.3005(6) -0.13074(16)
O5G O 0.6260(3) 0.3005(6) 0.13074(16)
N2A N 0.8384(4) 0.4832(7) 0.43090(17)
O6G O 0.6912(3) 0.0264(6) 0.16731(15)
O8A O 0.5822(5) -0.1581(8) -0.1164(2)
O11D O 0.3658(3) -0.0380(6) -0.08975(18)
O12G O 0.8448(3) 0.3010(6) 0.10213(18)
Ag2A Ag 1.03632(5) 0.22807(11) 0.41986(3)
Ag2C Ag 0.96368(5) -0.27193(11) 0.08014(3)
Ag2D Ag 0.53632(5) 0.22807(11) 0.08014(3)
loop_
_geom_bond_atom_site_label_1
_geom_bond_atom_site_label_2
_geom_bond_site_symmetry_1
_geom_bond_site_symmetry_2
Tb1 O1 1_555 1_555
Ag1 N1 1_555 1_555
O1 C4 1_555 1_555
S1 O4 1_555 1_555
O2 Tb1 1_555 1_555
O3 C2 1_555 1_555
C1 C2 1_555 1_555
C2 O2 1_555 1_555
O4 Tb1 1_555 1_555
O5 S1 1_555 1_555
N1 C7 1_555 1_555
N2 C18 1_555 1_555
C3 H1 1_555 1_555
O6 C4 1_555 1_555
C4 C6 1_555 1_555
C5 H2 1_555 1_555
C6 C5 1_555 1_555
C7 C5 1_555 1_555
H3 C7 1_555 1_555
O7 S1 1_555 1_555
C8 C11 1_555 1_555
C9 C3 1_555 1_555
H4 C9 1_555 1_555
C10 S1 1_555 1_555
C11 C9 1_555 1_555
C12 C8 1_555 1_555
H5 C12 1_555 1_555
C13 C1 1_555 1_555
H6 C13 1_555 1_555
C14 C1 1_555 1_555
H7 C14 1_555 1_555
C15 S2 1_555 1_555
C16 C11 1_555 1_555
H8 C16 1_555 1_555
S2 O8 1_555 1_555
O8 Ag2A 1_555 1_555
O9 S2 1_555 1_555
O10 S2 1_555 1_555
C17 C8 1_555 1_555
H9 C17 1_555 1_555
C18 C13 1_555 1_555
H10 C18 1_555 1_555
C19 C6 1_555 1_555
H11 C19 1_555 1_555
C20 N1 1_555 1_555
H12 C20 1_555 1_555
C21 C15 1_555 1_555
H13 C21 1_555 1_555
C22 N2 1_555 1_555
H14 C22 1_555 1_555
O11 Tb1 1_555 1_555
O12 C23 1_555 1_555
C23 O11 1_555 1_555
Ag2 N3 1_555 1_555
C24 C23 1_555 1_555
N3 C25 1_555 1_555
C25 H15 1_555 1_555
C26 N3 1_555 1_555
H16 C26 1_555 1_555
C27 C24 1_555 1_555
H17 C27 1_555 1_555
C28 C24 1_555 1_555
H18 C28 1_555 1_555
Tb1G O5 1_555 1_555
Tb1G_2 O3 1_555 1_555
Ag1A N2 1_555 1_555
O3G Tb1 1_555 1_555
O5C Ag2 1_555 1_555
O5G Tb1 1_555 1_555
N2A Ag1 1_555 1_555
O6G Tb1 1_555 1_555
O8A Ag2 1_555 1_555
O11D Ag2 1_555 1_555
O12G Tb1 1_555 1_555
Ag2C O5 1_555 1_555
Ag2D O11 1_555 1_555
C3 C10 1_555 1_555
O6 Tb1G_2 1_555 1_555
C10 C12 1_555 1_555
C14 C22 1_555 1_555
C15 C17 1_555 1_555
C16 C21 1_555 1_555
C19 C20 1_555 1_555
O12 Tb1G 1_555 1_555
C25 C27 1_555 1_555
C26 C28 1_555 1_555
O5G Ag2D 1_555 1_555

#END
