
#######################################################################
#
#                 Cambridge Crystallographic Data Centre
#                                CCDC 
#
#######################################################################
#
# If this CIF has been generated from an entry in the Cambridge 
# Structural Database, then it will include bibliographic, chemical, 
# crystal, experimental, refinement or atomic coordinate data resulting 
# from the CCDC's data processing and validation procedures.
#
#######################################################################

data_LIVKEI
_symmetry_cell_setting           triclinic
_symmetry_space_group_name_H-M   'P -1'
_symmetry_Int_Tables_number      2
_space_group_name_Hall           '-P 1'
loop_
_symmetry_equiv_pos_site_id
_symmetry_equiv_pos_as_xyz
1 x,y,z
2 -x,-y,-z
_cell_length_a                   9.0740(6)
_cell_length_b                   13.7710(10)
_cell_length_c                   24.5829(18)
_cell_angle_alpha                89.894(2)
_cell_angle_beta                 79.696(2)
_cell_angle_gamma                75.241(2)
_cell_volume                     2919.49
loop_
_atom_site_label
_atom_site_type_symbol
_atom_site_fract_x
_atom_site_fract_y
_atom_site_fract_z
Ag1 Ag 0.52306(11) 0.69568(7) 0.48544(4)
Ag2 Ag 0.46376(12) 0.64099(7) -0.00838(4)
N1 N 0.5121(11) 0.8053(7) 0.4229(4)
N2 N 0.5349(10) 0.5879(7) 0.5481(4)
N3 N 0.4452(11) 0.7526(7) 0.0555(4)
N4 N 0.4944(10) 0.5330(6) 0.9252(4)
C1 C 0.3759(13) 0.8676(9) 0.4149(6)
H1 H 0.2856 0.8704 0.4419
C2 C 0.3607(14) 0.9266(9) 0.3704(5)
H2 H 0.2623 0.9671 0.3659
C3 C 0.4901(13) 0.9255(8) 0.3330(6)
C4 C 0.6262(14) 0.8671(9) 0.3416(6)
H3 H 0.7176 0.8673 0.3158
C5 C 0.6388(14) 0.8079(9) 0.3855(6)
H4 H 0.7377 0.7679 0.3899
C6 C 0.4753(16) 0.9832(9) 0.2801(6)
H5 H 0.3836 1.0417 0.2875
H6 H 0.5683 1.0085 0.2684
C7 C 0.4586(15) 0.9155(8) 0.2340(5)
H7 H 0.5555 0.8613 0.2242
H8 H 0.3737 0.8837 0.2479
C8 C 0.4249(15) 0.9699(8) 0.1822(6)
H9 H 0.3217 1.0186 0.1903
H10 H 0.5034 1.0077 0.1699
C9 C 0.4278(15) 0.8974(8) 0.1378(6)
C10 C 0.3008(14) 0.8638(9) 0.1330(6)
H11 H 0.2052 0.8896 0.1577
C11 C 0.3124(14) 0.7911(9) 0.0914(5)
H12 H 0.2236 0.7684 0.0885
C12 C 0.5694(15) 0.7840(9) 0.0604(6)
H13 H 0.6644 0.7568 0.0357
C13 C 0.5628(17) 0.8563(10) 0.1012(7)
H14 H 0.6533 0.8774 0.1036
C14 C 0.4118(11) 0.5528(9) 0.5718(5)
H15 H 0.3147 0.5802 0.5610
C15 C 0.4202(12) 0.4819(9) 0.6094(5)
H16 H 0.3306 0.4595 0.6234
C16 C 0.5543(11) 0.4412(7) 0.6281(5)
C17 C 0.6809(12) 0.4737(8) 0.6065(5)
H17 H 0.7763 0.4476 0.6187
C18 C 0.6709(11) 0.5447(8) 0.5666(5)
H18 H 0.7617 0.5648 0.5511
C19 C 0.5595(12) 0.3693(8) 0.6728(5)
H19 H 0.6567 0.3150 0.6640
H20 H 0.4714 0.3384 0.6750
C20 C 0.5514(12) 0.4209(7) 0.7287(5)
H21 H 0.6408 0.4505 0.7263
H22 H 0.4557 0.4765 0.7366
C21 C 0.5525(12) 0.3501(7) 0.7765(5)
H23 H 0.4667 0.3173 0.7782
H24 H 0.6515 0.2971 0.7705
C22 C 0.5340(12) 0.4083(7) 0.8294(5)
C23 C 0.3880(11) 0.4470(8) 0.8630(5)
H25 H 0.2988 0.4315 0.8540
C24 C 0.3749(12) 0.5072(8) 0.9087(5)
H26 H 0.2744 0.5326 0.9304
C25 C 0.6359(13) 0.4908(9) 0.8949(5)
H27 H 0.7235 0.5036 0.9067
C26 C 0.6610(12) 0.4306(8) 0.8481(5)
H28 H 0.7635 0.4038 0.8283
Ag2_2 Ag 0.46376(12) 0.64099(7) 0.99162(4)
N4_2 N 0.4944(10) 0.5330(6) -0.0748(4)
Ag3 Ag 0.5000 1.0000 0.5000
Ag4 Ag 0.5000 1.0000 1.0000
N5 N 0.5041(15) 0.8984(7) 0.5656(4)
N6 N 0.4927(11) 0.8864(6) 0.9416(4)
C27 C 0.3734(18) 0.8952(9) 0.5987(6)
H29 H 0.2787 0.9381 0.5922
C28 C 0.3694(14) 0.8314(9) 0.6424(6)
H30 H 0.2724 0.8308 0.6645
C29 C 0.6369(15) 0.7738(8) 0.6197(5)
H31 H 0.7329 0.7321 0.6258
C30 C 0.6345(15) 0.8376(8) 0.5764(5)
H32 H 0.7299 0.8383 0.5532
C31 C 0.5014(13) 0.7699(7) 0.6543(5)
C32 C 0.5048(13) 0.7030(8) 0.7016(5)
H33 H 0.6017 0.6483 0.6945
H34 H 0.4165 0.6721 0.7052
C33 C 0.4959(13) 0.7590(7) 0.7546(4)
H35 H 0.4014 0.8156 0.7605
H36 H 0.5864 0.7879 0.7511
C34 C 0.4927(14) 0.6938(8) 0.8063(4)
H37 H 0.3991 0.6679 0.8117
H38 H 0.5849 0.6356 0.8005
C35 C 0.4914(11) 0.7542(7) 0.8561(4)
C36 C 0.3545(12) 0.8196(8) 0.8841(5)
H39 H 0.2575 0.8202 0.8744
C37 C 0.3628(12) 0.8821(8) 0.9252(5)
H40 H 0.2686 0.9262 0.9437
C38 C 0.6242(12) 0.8232(8) 0.9158(5)
H41 H 0.7185 0.8240 0.9272
C39 C 0.6283(12) 0.7557(8) 0.8727(5)
H42 H 0.7238 0.7117 0.8552
N5A N 0.4959(15) 1.1016(7) 0.4344(4)
N6A N 0.5073(11) 1.1136(6) 0.0584(4)
C27A C 0.6266(18) 1.1048(9) 0.4013(6)
H29A H 0.7213 1.0619 0.4078
C28A C 0.6306(14) 1.1686(9) 0.3576(6)
H30A H 0.7276 1.1692 0.3355
C29A C 0.3631(15) 1.2262(8) 0.3803(5)
H31A H 0.2671 1.2679 0.3742
C30A C 0.3655(15) 1.1624(8) 0.4236(5)
H32A H 0.2701 1.1617 0.4468
C31A C 0.4986(13) 1.2301(7) 0.3457(5)
C32A C 0.4952(13) 1.2970(8) 0.2984(5)
H33A H 0.3983 1.3517 0.3055
H34A H 0.5835 1.3279 0.2948
C33A C 0.5041(13) 1.2410(7) 0.2454(4)
H35A H 0.5986 1.1844 0.2395
H36A H 0.4136 1.2121 0.2489
C34A C 0.5073(14) 1.3062(8) 0.1937(4)
H37A H 0.6009 1.3321 0.1883
H38A H 0.4151 1.3644 0.1995
C35A C 0.5086(11) 1.2458(7) 0.1439(4)
C36A C 0.6455(12) 1.1804(8) 0.1159(5)
H39A H 0.7425 1.1798 0.1256
C37A C 0.6372(12) 1.1179(8) 0.0748(5)
H40A H 0.7314 1.0738 0.0563
C38A C 0.3758(12) 1.1768(8) 0.0842(5)
H41A H 0.2815 1.1760 0.0728
C39A C 0.3717(12) 1.2443(8) 0.1273(5)
H42A H 0.2762 1.2883 0.1448
Ag4_2 Ag 0.5000 1.0000 0.0000
N6A_2 N 0.5073(11) 1.1136(6) 1.0584(4)
C40 C -0.0144(15) 0.2496(9) 0.3398(5)
C41 C -0.0648(12) 0.3439(10) 0.2990(4)
H43 H -0.1805 0.3685 0.3071
C42 C -0.0029(15) 0.4243(9) 0.3133(6)
H44 H 0.1119 0.4026 0.3059
H45 H -0.0390 0.4441 0.3531
C43 C -0.0572(11) 0.5103(8) 0.2791(4)
H46 H -0.1727 0.5276 0.2901
C44 C -0.0136(14) 0.6096(10) 0.2930(5)
C45 C -0.0289(17) 0.4916(10) 0.2190(5)
H47 H 0.0822 0.4852 0.2042
H48 H -0.0896 0.5507 0.2025
C46 C -0.0718(12) 0.3952(11) 0.2002(4)
H49 H -0.1876 0.4130 0.2097
C47 C -0.0384(14) 0.3677(11) 0.1419(5)
C48 C -0.0181(11) 0.3060(7) 0.2408(4)
H50 H -0.0661 0.2507 0.2351
H51 H 0.0960 0.2790 0.2318
O1 O 0.0305(19) 0.1589(9) 0.3135(5)
O2 O -0.0134(11) 0.2632(7) 0.3830(4)
O3 O -0.0184(11) 0.6271(7) 0.3471(4)
O4 O 0.0188(11) 0.6665(6) 0.2539(3)
O5 O 0.0204(11) 0.4277(7) 0.1086(4)
O6 O -0.0586(11) 0.2927(6) 0.1221(4)
O7 O -0.0340(19) 0.0339(8) 0.2380(5)
O8 O -0.1317(16) 0.7296(12) 0.1742(5)
O9 O 0.0802(14) 0.8450(7) 0.2808(4)
O10 O 0.0473(11) 0.7874(7) 0.3901(4)
O11 O -0.0245(12) 0.1169(8) 0.4521(4)
O12 O 0.1977(11) 0.3998(7) 0.0147(5)
O13 O -0.1262(9) 0.2914(7) 0.0109(4)
O14 O -0.0283(10) 0.3902(7) 0.4693(4)
O15 O -0.0381(9) 0.6192(6) 0.0715(3)
O16 O -0.1374(10) 0.5957(7) 0.4434(5)
O17 O -0.2067(11) 0.2722(8) 0.5212(4)
O18 O -0.1416(10) -0.0562(7) 0.4643(4)
O19 O -0.1360(15) 0.9155(14) 0.1564(7)
O20 O 0.1626(15) 1.0266(9) 1.0403(5)
O21 O 0.0160(12) 0.1077(7) -0.0417(5)
O22 O 0.0444(14) 1.0988(10) 1.1374(5)
loop_
_geom_bond_atom_site_label_1
_geom_bond_atom_site_label_2
_geom_bond_site_symmetry_1
_geom_bond_site_symmetry_2
Ag1 N1 1_555 1_555
Ag2 N3 1_555 1_555
N1 C1 1_555 1_555
N2 Ag1 1_555 1_555
N3 C11 1_555 1_555
N4 C24 1_555 1_555
C1 H1 1_555 1_555
C2 C1 1_555 1_555
H2 C2 1_555 1_555
C3 C2 1_555 1_555
C4 C3 1_555 1_555
H3 C4 1_555 1_555
C5 N1 1_555 1_555
H4 C5 1_555 1_555
C6 C3 1_555 1_555
H5 C6 1_555 1_555
H6 C6 1_555 1_555
C7 C6 1_555 1_555
H7 C7 1_555 1_555
H8 C7 1_555 1_555
C8 C7 1_555 1_555
H9 C8 1_555 1_555
H10 C8 1_555 1_555
C9 C8 1_555 1_555
C10 C9 1_555 1_555
H11 C10 1_555 1_555
C11 C10 1_555 1_555
H12 C11 1_555 1_555
C12 N3 1_555 1_555
H13 C12 1_555 1_555
C13 C9 1_555 1_555
H14 C13 1_555 1_555
C14 N2 1_555 1_555
H15 C14 1_555 1_555
C15 C14 1_555 1_555
H16 C15 1_555 1_555
C16 C15 1_555 1_555
C17 C16 1_555 1_555
H17 C17 1_555 1_555
C18 N2 1_555 1_555
H18 C18 1_555 1_555
C19 C16 1_555 1_555
H19 C19 1_555 1_555
H20 C19 1_555 1_555
C20 C19 1_555 1_555
H21 C20 1_555 1_555
H22 C20 1_555 1_555
C21 C20 1_555 1_555
H23 C21 1_555 1_555
H24 C21 1_555 1_555
C22 C21 1_555 1_555
C23 C22 1_555 1_555
H25 C23 1_555 1_555
C24 C23 1_555 1_555
H26 C24 1_555 1_555
C25 N4 1_555 1_555
H27 C25 1_555 1_555
C26 C22 1_555 1_555
H28 C26 1_555 1_555
Ag3 N5 1_555 1_555
Ag4 N6 1_555 1_555
N5 C27 1_555 1_555
N6 C37 1_555 1_555
C27 H29 1_555 1_555
C28 C27 1_555 1_555
H30 C28 1_555 1_555
C29 H31 1_555 1_555
C30 N5 1_555 1_555
H32 C30 1_555 1_555
C31 C28 1_555 1_555
C32 C31 1_555 1_555
H33 C32 1_555 1_555
H34 C32 1_555 1_555
C33 C32 1_555 1_555
H35 C33 1_555 1_555
H36 C33 1_555 1_555
C34 C33 1_555 1_555
H37 C34 1_555 1_555
H38 C34 1_555 1_555
C35 C34 1_555 1_555
C36 C35 1_555 1_555
H39 C36 1_555 1_555
C37 C36 1_555 1_555
H40 C37 1_555 1_555
C38 N6 1_555 1_555
H41 C38 1_555 1_555
C39 C35 1_555 1_555
H42 C39 1_555 1_555
C40 C41 1_555 1_555
C41 H43 1_555 1_555
C42 C41 1_555 1_555
H44 C42 1_555 1_555
H45 C42 1_555 1_555
C43 C42 1_555 1_555
H46 C43 1_555 1_555
C44 C43 1_555 1_555
C45 C43 1_555 1_555
H47 C45 1_555 1_555
H48 C45 1_555 1_555
C46 C45 1_555 1_555
H49 C46 1_555 1_555
C47 C46 1_555 1_555
C48 C41 1_555 1_555
H50 C48 1_555 1_555
H51 C48 1_555 1_555
O1 C40 1_555 1_555
O2 C40 1_555 1_555
O3 C44 1_555 1_555
O4 C44 1_555 1_555
O5 C47 1_555 1_555
O6 C47 1_555 1_555
Ag2_2 N4 1_555 1_555
N4_2 Ag2 1_555 1_555
N5A Ag3 1_555 1_555
N6A C37A 1_555 1_555
C27A N5A 1_555 1_555
H29A C27A 1_555 1_555
C28A C27A 1_555 1_555
H30A C28A 1_555 1_555
C29A H31A 1_555 1_555
C30A N5A 1_555 1_555
H32A C30A 1_555 1_555
C31A C28A 1_555 1_555
C32A C31A 1_555 1_555
H33A C32A 1_555 1_555
H34A C32A 1_555 1_555
C33A C32A 1_555 1_555
H35A C33A 1_555 1_555
H36A C33A 1_555 1_555
C34A C33A 1_555 1_555
H37A C34A 1_555 1_555
H38A C34A 1_555 1_555
C35A C34A 1_555 1_555
C36A C35A 1_555 1_555
H39A C36A 1_555 1_555
C37A C36A 1_555 1_555
H40A C37A 1_555 1_555
C38A N6A 1_555 1_555
H41A C38A 1_555 1_555
C39A C35A 1_555 1_555
H42A C39A 1_555 1_555
Ag4_2 N6A 1_555 1_555
N6A_2 Ag4 1_555 1_555
C4 C5 1_555 1_555
C12 C13 1_555 1_555
C17 C18 1_555 1_555
C25 C26 1_555 1_555
C29 C30 1_555 1_555
C29 C31 1_555 1_555
C38 C39 1_555 1_555
C46 C48 1_555 1_555
C29A C30A 1_555 1_555
C29A C31A 1_555 1_555
C38A C39A 1_555 1_555

#END
