
#######################################################################
#
#                 Cambridge Crystallographic Data Centre
#                                CCDC 
#
#######################################################################
#
# If this CIF has been generated from an entry in the Cambridge 
# Structural Database, then it will include bibliographic, chemical, 
# crystal, experimental, refinement or atomic coordinate data resulting 
# from the CCDC's data processing and validation procedures.
#
#######################################################################

data_LIVLAF
_symmetry_cell_setting           triclinic
_symmetry_space_group_name_H-M   'P -1'
_symmetry_Int_Tables_number      2
_space_group_name_Hall           '-P 1'
loop_
_symmetry_equiv_pos_site_id
_symmetry_equiv_pos_as_xyz
1 x,y,z
2 -x,-y,-z
_cell_length_a                   4.93190(10)
_cell_length_b                   14.5602(4)
_cell_length_c                   21.2219(6)
_cell_angle_alpha                93.636(2)
_cell_angle_beta                 94.693(2)
_cell_angle_gamma                90.474(2)
_cell_volume                     1515.63
loop_
_atom_site_label
_atom_site_type_symbol
_atom_site_fract_x
_atom_site_fract_y
_atom_site_fract_z
Pb1 Pb 0.60254(18) 0.72977(6) 0.22880(4)
Pb2 Pb 1.02088(14) 1.11015(5) 0.24574(3)
Pb3 Pb 0.01584(14) 0.61289(5) 0.74673(3)
O1 O 0.480(3) 0.9526(13) 0.3536(9)
H1 H 0.4460 1.0057 0.3451
O2 O 0.825(3) 0.8485(12) 0.3106(7)
O3 O 0.928(3) 1.0211(10) 0.3311(7)
O4 O 0.215(3) 0.7644(10) 0.7031(6)
O5 O 0.610(3) 0.6917(11) 0.6516(7)
H2 H 0.5220 0.6463 0.6594
O6 O 0.618(3) 0.8609(9) 0.6767(7)
O7 O 0.268(4) 0.5702(14) 0.3403(10)
H3 H 0.2335 0.6192 0.3247
O8 O 0.629(4) 0.4553(11) 0.3257(9)
O9 O 0.717(3) 0.6217(11) 0.3056(7)
O10 O 0.742(3) 0.9024(10) 0.1667(7)
H4 H 0.7715 0.8876 0.2033
O11 O 0.271(3) 0.8814(11) 0.1960(7)
O12 O 0.429(4) 1.0415(11) 0.1803(8)
O13 O 0.789(3) 0.7411(10) -0.2009(6)
O14 O 0.384(3) 0.8074(10) -0.1481(7)
H5 H 0.4602 0.8528 -0.1598
O15 O 0.393(3) 0.6393(10) -0.1780(7)
O16 O 0.052(3) 0.4803(11) 0.1691(7)
O17 O 0.507(4) 0.5523(13) 0.1497(9)
H6 H 0.5429 0.4990 0.1574
O18 O 0.160(3) 0.6527(11) 0.1943(8)
O19 O 0.298(4) 0.7573(14) 0.3190(9)
H7 H 0.3468 0.7955 0.3499
H8 H 0.1473 0.7283 0.3183
P1 P 0.7922(11) 0.9354(4) 0.3504(2)
P2 P 0.4287(10) 0.7799(4) 0.6575(2)
P3 P 0.5842(12) 0.5554(4) 0.3448(3)
P4 P 0.4601(11) 0.9419(4) 0.1579(3)
P5 P 0.5688(10) 0.7217(4) -0.1563(2)
P6 P 0.1922(12) 0.5674(4) 0.1513(3)
C1 C 0.764(4) 0.8354(14) 0.4566(10)
C2 C 0.581(4) 0.8497(14) 0.5044(9)
H9 H 0.5536 0.9093 0.5209
C3 C 0.445(4) 0.7794(16) 0.5266(9)
C4 C 0.483(5) 0.6893(16) 0.4996(10)
H10 H 0.3844 0.6404 0.5129
C5 C 0.664(5) 0.6726(15) 0.4540(10)
C6 C 0.807(4) 0.7475(15) 0.4344(10)
H11 H 0.9365 0.7370 0.4053
C7 C 0.906(5) 0.9147(16) 0.4328(11)
H12 H 1.1003 0.9034 0.4358
H13 H 0.8755 0.9695 0.4595
C8 C 0.256(4) 0.7930(14) 0.5806(9)
H14 H 0.1072 0.7487 0.5736
H15 H 0.1791 0.8541 0.5798
C9 C 0.709(5) 0.5753(16) 0.4262(11)
H16 H 0.6195 0.5322 0.4510
H17 H 0.9020 0.5628 0.4302
C10 C 0.347(4) 0.8303(15) 0.0481(10)
C11 C 0.197(4) 0.7577(15) 0.0679(10)
H18 H 0.0690 0.7698 0.0971
C12 C 0.234(4) 0.6670(15) 0.0449(10)
C13 C 0.409(4) 0.6497(15) -0.0036(10)
H19 H 0.4255 0.5900 -0.0212
C14 C 0.552(4) 0.7198(15) -0.0251(10)
C15 C 0.527(4) 0.8102(15) 0.0016(10)
H20 H 0.6311 0.8573 -0.0120
C16 C 0.326(5) 0.9261(15) 0.0775(10)
H21 H 0.1356 0.9429 0.0750
H22 H 0.4202 0.9679 0.0528
C17 C 0.737(4) 0.7060(15) -0.0799(10)
H23 H 0.8095 0.6443 -0.0798
H24 H 0.8890 0.7490 -0.0726
C18 C 0.077(5) 0.5911(16) 0.0685(10)
H25 H 0.0958 0.5358 0.0413
H26 H -0.1138 0.6069 0.0662
Pb2_2 Pb 0.02088(14) 1.11015(5) 0.24574(3)
Pb2A Pb -0.02088(14) 0.88985(5) 0.75426(3)
Pb2A_2 Pb 0.97912(14) 0.88985(5) -0.24574(3)
Pb2A_3 Pb 0.97912(14) 0.88985(5) 0.75426(3)
Pb3_2 Pb 0.01584(14) 0.61289(5) -0.25327(3)
Pb3_3 Pb 1.01584(14) 0.61289(5) -0.25327(3)
Pb3A Pb -0.01584(14) 0.38711(5) 0.25327(3)
Pb3A_2 Pb 0.98416(14) 0.38711(5) 0.25327(3)
O4A O 0.785(3) 1.2356(10) 0.2969(6)
O6A O 1.382(3) 1.1391(9) 0.3233(7)
O8A O 0.371(4) 0.5447(11) 0.6743(9)
O12_2 O 1.429(4) 1.0415(11) 0.1803(8)
O13_2 O -0.211(3) 0.7411(10) 0.7991(6)
O13A O 1.211(3) 1.2589(10) 0.2009(6)
O15_2 O 0.393(3) 0.6393(10) 0.8220(7)
O16A O -0.052(3) 0.5197(11) 0.8309(7)
loop_
_geom_bond_atom_site_label_1
_geom_bond_atom_site_label_2
_geom_bond_site_symmetry_1
_geom_bond_site_symmetry_2
Pb1 O2 1_555 1_555
Pb2 O3 1_555 1_555
Pb3 O4 1_555 1_555
O1 H1 1_555 1_555
O2 P1 1_555 1_555
O3 P1 1_555 1_555
O4 P2 1_555 1_555
O5 H2 1_555 1_555
O6 P2 1_555 1_555
O7 H3 1_555 1_555
O8 P3 1_555 1_555
O9 Pb1 1_555 1_555
O10 H4 1_555 1_555
O11 Pb1 1_555 1_555
O12 P4 1_555 1_555
O13 P5 1_555 1_555
O14 H5 1_555 1_555
O15 P5 1_555 1_555
O16 P6 1_555 1_555
O17 H6 1_555 1_555
O18 Pb1 1_555 1_555
O19 Pb1 1_555 1_555
H7 O19 1_555 1_555
H8 O19 1_555 1_555
P1 O1 1_555 1_555
P2 O5 1_555 1_555
P3 O7 1_555 1_555
P4 O10 1_555 1_555
P5 O14 1_555 1_555
P6 O17 1_555 1_555
C1 C2 1_555 1_555
C2 H9 1_555 1_555
C3 C2 1_555 1_555
C4 C3 1_555 1_555
H10 C4 1_555 1_555
C5 C4 1_555 1_555
C6 C1 1_555 1_555
H11 C6 1_555 1_555
C7 P1 1_555 1_555
H12 C7 1_555 1_555
H13 C7 1_555 1_555
C8 P2 1_555 1_555
H14 C8 1_555 1_555
H15 C8 1_555 1_555
C9 P3 1_555 1_555
H16 C9 1_555 1_555
H17 C9 1_555 1_555
C10 C11 1_555 1_555
C11 H18 1_555 1_555
C12 C11 1_555 1_555
C13 C12 1_555 1_555
H19 C13 1_555 1_555
C14 C13 1_555 1_555
C15 C10 1_555 1_555
H20 C15 1_555 1_555
C16 P4 1_555 1_555
H21 C16 1_555 1_555
H22 C16 1_555 1_555
C17 P5 1_555 1_555
H23 C17 1_555 1_555
H24 C17 1_555 1_555
C18 P6 1_555 1_555
H25 C18 1_555 1_555
H26 C18 1_555 1_555
Pb2_2 O12 1_555 1_555
Pb2A O4 1_555 1_555
Pb2A_2 O13 1_555 1_555
Pb2A_3 O6 1_555 1_555
Pb3_2 O15 1_555 1_555
Pb3_3 O13 1_555 1_555
Pb3A O16 1_555 1_555
Pb3A_2 O8 1_555 1_555
O4A Pb2 1_555 1_555
O6A Pb2 1_555 1_555
O8A Pb3 1_555 1_555
O12_2 Pb2 1_555 1_555
O13_2 Pb3 1_555 1_555
O13A Pb2 1_555 1_555
O15_2 Pb3 1_555 1_555
O16A Pb3 1_555 1_555
O9 P3 1_555 1_555
O11 P4 1_555 1_555
O18 P6 1_555 1_555
C1 C7 1_555 1_555
C3 C8 1_555 1_555
C5 C6 1_555 1_555
C5 C9 1_555 1_555
C10 C16 1_555 1_555
C12 C18 1_555 1_555
C14 C15 1_555 1_555
C14 C17 1_555 1_555
Pb2A O13_2 1_555 1_555

#END
