
#######################################################################
#
#                 Cambridge Crystallographic Data Centre
#                                CCDC 
#
#######################################################################
#
# If this CIF has been generated from an entry in the Cambridge 
# Structural Database, then it will include bibliographic, chemical, 
# crystal, experimental, refinement or atomic coordinate data resulting 
# from the CCDC's data processing and validation procedures.
#
#######################################################################

data_LIVMOU
_symmetry_cell_setting           monoclinic
_symmetry_space_group_name_H-M   'P 21/n'
_symmetry_Int_Tables_number      14
_space_group_name_Hall           '-P 2yn'
loop_
_symmetry_equiv_pos_site_id
_symmetry_equiv_pos_as_xyz
1 x,y,z
2 1/2-x,1/2+y,1/2-z
3 -x,-y,-z
4 1/2+x,1/2-y,1/2+z
_cell_length_a                   6.5280(6)
_cell_length_b                   31.885(3)
_cell_length_c                   12.9542(12)
_cell_angle_alpha                90
_cell_angle_beta                 96.9050(10)
_cell_angle_gamma                90
_cell_volume                     2676.8
loop_
_atom_site_label
_atom_site_type_symbol
_atom_site_fract_x
_atom_site_fract_y
_atom_site_fract_z
C1 C 0.2244(9) 0.0148(2) 0.2727(5)
H1 H 0.1610 0.0022 0.2124
C2 C 0.1409(12) 0.0085(3) 0.3670(6)
H2 H 0.0244 -0.0081 0.3687
C3 C 0.2315(13) 0.0269(3) 0.4547(6)
H3 H 0.1779 0.0227 0.5173
C4 C 0.4074(12) 0.0524(2) 0.4517(5)
C5 C 0.4847(9) 0.05683(18) 0.3560(4)
C6 C 0.5102(14) 0.0734(3) 0.5415(5)
H4 H 0.4564 0.0711 0.6045
C7 C 0.6800(14) 0.0961(3) 0.5370(5)
H5 H 0.7412 0.1097 0.5964
C8 C 0.7702(11) 0.0999(2) 0.4410(5)
C9 C 0.6688(9) 0.08096(17) 0.3501(4)
C10 C 0.9574(12) 0.1209(2) 0.4325(6)
H6 H 1.0313 0.1330 0.4907
C11 C 1.0287(12) 0.1232(2) 0.3389(6)
H7 H 1.1511 0.1374 0.3325
C12 C 0.9193(9) 0.10438(19) 0.2519(5)
H8 H 0.9721 0.1059 0.1885
C13 C 0.3940(8) 0.13623(16) 0.0719(4)
C14 C 0.2997(9) 0.17751(17) 0.0328(4)
C15 C 0.1183(10) 0.1925(2) 0.0704(5)
H9 H 0.0691 0.1777 0.1242
C16 C 0.3755(10) 0.19980(19) -0.0429(5)
H10 H 0.4976 0.1915 -0.0672
C17 C 0.2705(10) 0.23559(19) -0.0853(5)
C18 C 0.0864(10) 0.2478(2) -0.0461(5)
C19 C 0.3323(12) 0.2587(2) -0.1712(6)
H11 H 0.4519 0.2513 -0.1991
C20 C 0.2157(14) 0.2916(2) -0.2120(7)
H12 H 0.2552 0.3062 -0.2685
C21 C 0.0373(14) 0.3035(2) -0.1695(7)
H13 H -0.0390 0.3263 -0.1978
C22 C -0.0261(12) 0.2829(2) -0.0887(6)
H14 H -0.1438 0.2916 -0.0609
C23 C 0.3277(7) 0.03325(16) -0.1430(4)
C24 C 0.0265(7) 0.05777(15) 0.0039(4)
C25 C 0.2126(7) 0.07460(16) -0.1538(4)
C26 C 0.0463(8) 0.08262(15) -0.0939(4)
C27 C -0.0814(9) 0.11562(19) -0.1225(4)
H15 H -0.1967 0.1204 -0.0883
C28 C -0.0386(9) 0.14229(17) -0.2034(4)
C29 C 0.1443(9) 0.13448(18) -0.2504(4)
C30 C 0.2032(12) 0.1636(2) -0.3253(5)
H16 H 0.3245 0.1594 -0.3548
C31 C 0.0823(15) 0.1978(2) -0.3537(5)
H17 H 0.1217 0.2166 -0.4025
C32 C -0.1001(15) 0.2044(2) -0.3098(6)
H18 H -0.1821 0.2274 -0.3310
C33 C -0.1607(12) 0.1780(2) -0.2368(5)
H19 H -0.2824 0.1833 -0.2084
N1 N 0.3912(7) 0.03820(15) 0.2676(3)
N2 N 0.7411(7) 0.08428(14) 0.2567(4)
N3 N 0.0142(9) 0.22596(19) 0.0345(5)
N4 N 0.2613(7) 0.09929(15) -0.2295(3)
O1 O 0.5340(7) 0.12056(13) 0.0231(3)
O2 O 0.3324(6) 0.11828(13) 0.1470(3)
O3 O 0.4945(5) 0.02930(12) -0.0816(3)
O4 O 0.2506(6) 0.00372(12) -0.1967(3)
O5 O 0.1853(5) 0.03943(12) 0.0455(3)
O6 O -0.1426(6) 0.05818(12) 0.0397(3)
Tb1 Tb 0.53742(3) 0.051854(7) 0.098159(16)
O3B O 0.5055(5) -0.02930(12) 0.0816(3)
O4B O 0.7494(6) -0.00372(12) 0.1967(3)
O6_2 O 0.8574(6) 0.05818(12) 0.0397(3)
Tb1_2 Tb -0.46258(3) 0.051854(7) 0.098159(16)
Tb1B Tb 0.46258(3) -0.051854(7) -0.098159(16)
loop_
_geom_bond_atom_site_label_1
_geom_bond_atom_site_label_2
_geom_bond_site_symmetry_1
_geom_bond_site_symmetry_2
C1 H1 1_555 1_555
C2 C1 1_555 1_555
H2 C2 1_555 1_555
C3 C2 1_555 1_555
H3 C3 1_555 1_555
C4 C3 1_555 1_555
C5 C4 1_555 1_555
C6 C4 1_555 1_555
H4 C6 1_555 1_555
C7 C6 1_555 1_555
H5 C7 1_555 1_555
C8 C7 1_555 1_555
C9 C5 1_555 1_555
C10 C8 1_555 1_555
H6 C10 1_555 1_555
C11 C10 1_555 1_555
H7 C11 1_555 1_555
C12 C11 1_555 1_555
H8 C12 1_555 1_555
C13 C14 1_555 1_555
C14 C15 1_555 1_555
C15 H9 1_555 1_555
C16 C14 1_555 1_555
H10 C16 1_555 1_555
C17 C16 1_555 1_555
C18 C17 1_555 1_555
C19 C17 1_555 1_555
H11 C19 1_555 1_555
C20 C19 1_555 1_555
H12 C20 1_555 1_555
C21 C20 1_555 1_555
H13 C21 1_555 1_555
C22 C18 1_555 1_555
H14 C22 1_555 1_555
C23 C25 1_555 1_555
C24 C26 1_555 1_555
C25 C26 1_555 1_555
C26 C27 1_555 1_555
C27 H15 1_555 1_555
C28 C27 1_555 1_555
C29 C28 1_555 1_555
C30 C29 1_555 1_555
H16 C30 1_555 1_555
C31 C30 1_555 1_555
H17 C31 1_555 1_555
C32 C31 1_555 1_555
H18 C32 1_555 1_555
C33 C28 1_555 1_555
H19 C33 1_555 1_555
N1 C1 1_555 1_555
N2 C9 1_555 1_555
N3 C15 1_555 1_555
N4 C25 1_555 1_555
O1 C13 1_555 1_555
O2 C13 1_555 1_555
O3 C23 1_555 1_555
O4 C23 1_555 1_555
O5 C24 1_555 1_555
O6 C24 1_555 1_555
Tb1 N1 1_555 1_555
O3B Tb1 1_555 1_555
O4B Tb1 1_555 1_555
O6_2 Tb1 1_555 1_555
Tb1_2 O6 1_555 1_555
Tb1B O3 1_555 1_555
C5 N1 1_555 1_555
C8 C9 1_555 1_555
C12 N2 1_555 1_555
C18 N3 1_555 1_555
C21 C22 1_555 1_555
C29 N4 1_555 1_555
C32 C33 1_555 1_555
N2 Tb1 1_555 1_555
O1 Tb1 1_555 1_555
O2 Tb1 1_555 1_555
O3 Tb1 1_555 1_555
O4 Tb1B 1_555 1_555
O5 Tb1 1_555 1_555
O3B Tb1B 1_555 1_555

#END
