
#######################################################################
#
#                 Cambridge Crystallographic Data Centre
#                                CCDC 
#
#######################################################################
#
# If this CIF has been generated from an entry in the Cambridge 
# Structural Database, then it will include bibliographic, chemical, 
# crystal, experimental, refinement or atomic coordinate data resulting 
# from the CCDC's data processing and validation procedures.
#
#######################################################################

data_LIVWES
_symmetry_cell_setting           monoclinic
_symmetry_space_group_name_H-M   'P 21/c'
_symmetry_Int_Tables_number      14
_space_group_name_Hall           '-P 2ybc'
loop_
_symmetry_equiv_pos_site_id
_symmetry_equiv_pos_as_xyz
1 x,y,z
2 -x,1/2+y,1/2-z
3 -x,-y,-z
4 x,1/2-y,1/2+z
_cell_length_a                   26.201(1)
_cell_length_b                   23.579(1)
_cell_length_c                   19.075(1)
_cell_angle_alpha                90
_cell_angle_beta                 94.479(1)
_cell_angle_gamma                90
_cell_volume                     11748.4
loop_
_atom_site_label
_atom_site_type_symbol
_atom_site_fract_x
_atom_site_fract_y
_atom_site_fract_z
Cl1 Cl -0.0140(3) 0.5133(4) 0.4041(4)
Cl2 Cl 0.0237(3) 0.4736(3) 0.2762(3)
Cl3 Cl 0.0513(3) 0.5806(3) 0.3276(3)
C100 C 0.0374(7) 0.5129(8) 0.3487(9)
F1 F 0.3066(3) 0.6228(3) 1.0435(4)
F2 F 0.2422(2) 0.6841(3) 1.0568(3)
F3 F 0.2319(3) 0.5913(3) 1.0778(4)
F4 F 0.2835(3) 0.6421(3) 1.1520(3)
B1 B 0.2661(5) 0.6342(5) 1.0826(7)
F5 F 0.5868(3) 0.7100(3) 0.7524(4)
F6 F 0.5316(3) 0.7348(3) 0.6615(4)
F7 F 0.5111(3) 0.6660(3) 0.7370(5)
F8 F 0.5716(2) 0.6494(2) 0.6614(4)
B2 B 0.5506(5) 0.6906(5) 0.7031(8)
F9 F 0.1816(3) 0.4229(3) 0.4746(4)
F10 F 0.1015(4) 0.4025(3) 0.4284(4)
F11 F 0.1183(2) 0.4875(2) 0.4762(2)
F12 F 0.1187(3) 0.4087(2) 0.5448(3)
B3 B 0.1287(5) 0.4291(5) 0.4796(7)
C101 C 0.4558(7) 0.2664(14) 0.5376(19)
C102 C 0.4353(9) 0.3046(8) 0.5817(14)
C103 C 0.3879(4) 0.3173(5) 0.5638(6)
C104 C 0.3637(6) 0.2760(7) 0.5160(8)
C105 C 0.4057(7) 0.2324(10) 0.5026(13)
C106 C 0.0451(10) 0.2400(11) 0.7095(14)
C107 C 0.0716(10) 0.1981(11) 0.7542(12)
C108 C 0.0521(11) 0.1869(12) 0.8208(13)
C109 C 0.0165(15) 0.2323(16) 0.8300(20)
C110 C 0.0120(20) 0.2590(30) 0.7610(20)
C111 C 0.1362(12) 0.7498(13) 1.1314(19)
C112 C 0.1353(13) 0.7192(16) 1.2000(16)
C113 C 0.1735(4) 0.7435(5) 1.2484(6)
C114 C 0.2066(7) 0.7716(8) 1.2024(9)
C115 C 0.1745(7) 0.7953(7) 1.1407(9)
C116 C -0.0860(14) 0.0876(15) 0.6401(15)
C117 C -0.0863(7) 0.1212(7) 0.5765(9)
C118 C -0.1390(10) 0.1156(15) 0.5421(18)
C119 C -0.1646(15) 0.1085(19) 0.6070(20)
C120 C -0.1340(16) 0.0546(17) 0.6130(20)
Cu1 Cu 0.4513(1) 0.4868(1) 0.7813(1)
N1 N 0.4600(3) 0.4977(3) 0.6739(3)
P1 P 0.5246(1) 0.4470(1) 0.8200(1)
Cu2 Cu 0.2262(1) 0.8671(1) 0.9301(1)
Cu3 Cu 0.1659(1) 0.1941(1) 0.5075(1)
P2 P 0.2015(1) 0.1734(1) 0.4100(1)
P3 P 0.2789(1) 0.9038(1) 1.0138(1)
N2 N 0.4129(2) 0.5591(3) 0.8050(3)
N3 N 0.3870(2) 0.4308(3) 0.7703(4)
N4 N 0.2054(2) 0.9215(3) 0.8485(4)
N5 N 0.2608(2) 0.7976(3) 0.8850(3)
N6 N 0.1541(2) 0.8369(3) 0.9454(3)
N7 N 0.1603(3) 0.1261(3) 0.5776(4)
N8 N 0.2151(3) 0.2484(3) 0.5686(4)
N9 N 0.0939(3) 0.2270(3) 0.5127(4)
C1 C 0.3850(3) 0.5603(3) 0.8604(5)
C2 C 0.3539(3) 0.6060(3) 0.8762(4)
C3 C 0.3512(3) 0.6533(3) 0.8337(4)
C4 C 0.3807(3) 0.6519(4) 0.7752(4)
C5 C 0.4101(3) 0.6045(3) 0.7630(4)
C6 C 0.3188(3) 0.7029(3) 0.8502(4)
C7 C 0.3205(3) 0.7540(4) 0.8125(5)
C8 C 0.2908(3) 0.7990(4) 0.8316(5)
C9 C 0.2591(4) 0.7483(4) 0.9189(5)
C10 C 0.2866(4) 0.7011(4) 0.9041(5)
C11 C 0.4929(3) 0.5371(3) 0.6531(4)
C12 C 0.5092(3) 0.5400(3) 0.5860(4)
C13 C 0.4917(3) 0.4997(4) 0.5359(4)
C14 C 0.4587(3) 0.4586(4) 0.5573(5)
C15 C 0.4441(4) 0.4595(4) 0.6262(4)
C16 C 0.3432(3) 0.4496(4) 0.7386(4)
C17 C 0.3083(3) 0.4163(4) 0.7014(4)
C18 C 0.3180(3) 0.3581(3) 0.6950(4)
C19 C 0.3634(1) 0.3378(4) 0.7286(5)
C20 C 0.3951(3) 0.3746(4) 0.7663(5)
C21 C 0.2824(3) 0.3203(3) 0.6498(4)
C22 C 0.2526(3) 0.3405(4) 0.5938(5)
C23 C 0.2198(3) 0.3047(4) 0.5534(5)
C24 C 0.2454(3) 0.2296(4) 0.6235(5)
C25 C 0.2790(4) 0.2626(4) 0.6638(5)
C26 C 0.1996(4) 0.9059(4) 0.7812(5)
C27 C 0.1865(4) 0.9428(4) 0.7265(5)
C28 C 0.1784(3) 0.9995(4) 0.7397(4)
C29 C 0.1821(4) 1.0154(4) 0.8104(5)
C30 C 0.1958(4) 0.9760(4) 0.8620(4)
C31 C 0.1233(3) 0.8627(4) 0.9872(5)
C32 C 0.0736(4) 0.8434(4) 0.9968(5)
C33 C 0.0552(3) 0.7950(4) 0.9614(5)
C34 C 0.0879(3) 0.7706(4) 0.9171(5)
C35 C 0.1356(4) 0.7919(4) 0.9103(5)
C36 C 0.1435(4) 0.1341(4) 0.6409(5)
C37 C 0.1463(4) 0.0936(4) 0.6940(5)
C38 C 0.1694(3) 1.0418(4) 0.6839(4)
C39 C 0.1853(3) 1.0324(4) 0.6165(4)
C40 C 0.1803(3) 0.0756(3) 0.5668(4)
C41 C 0.0847(4) 0.2829(4) 0.5157(5)
C42 C 0.0377(3) 0.3067(4) 0.5217(5)
C43 C 0.0038(3) 0.7720(4) 0.9712(5)
C44 C -0.0052(3) 0.7144(4) 0.9731(5)
C45 C 0.0531(4) 0.1949(4) 0.5192(5)
C46 C 0.1624(3) 0.1475(4) 0.3335(5)
C47 C 0.1761(4) 0.1526(4) 0.2655(4)
C48 C 0.1453(4) 0.1310(5) 0.2111(5)
C49 C 0.1015(4) 0.1014(5) 0.2218(6)
C50 C 0.0884(4) 0.0946(5) 0.2869(6)
C51 C 0.1183(4) 0.1173(5) 0.3453(5)
C52 C 0.2370(4) 0.2325(4) 0.3752(4)
C53 C 0.2114(6) 0.2829(5) 0.3681(7)
C54 C 0.2369(10) 0.3314(7) 0.3425(9)
C55 C 0.2887(10) 0.3260(9) 0.3287(8)
C56 C 0.3121(7) 0.2766(9) 0.3389(7)
C57 C 0.2877(4) 0.2295(5) 0.3622(5)
C58 C 0.2490(3) 0.1183(4) 0.4254(4)
C59 C 0.2881(4) 0.1261(5) 0.4792(5)
C60 C 0.3204(4) 0.0813(6) 0.5003(6)
C61 C 0.3131(5) 0.0281(6) 0.4721(6)
C62 C 0.2764(6) 0.0211(6) 0.4196(7)
C63 C 0.2446(4) 0.0642(5) 0.3943(6)
C64 C 0.3316(3) 0.8583(3) 1.0473(4)
C65 C 0.3206(3) 0.8042(4) 1.0683(5)
C66 C 0.3588(4) 0.7664(4) 1.0941(5)
C67 C 0.4087(4) 0.7834(4) 1.0978(5)
C68 C 0.4204(4) 0.8380(4) 1.0764(5)
C69 C 0.3827(3) 0.8755(4) 1.0513(5)
C70 C 0.2522(3) 0.9297(3) 1.0946(4)
C71 C 0.2715(3) 0.9145(4) 1.1614(4)
C72 C 0.2484(4) 0.9351(4) 1.2194(5)
C73 C 0.2061(4) 0.9710(4) 1.2117(5)
C74 C 0.1871(4) 0.9857(4) 1.1446(5)
C75 C 0.2100(3) 0.9647(3) 1.0863(5)
C76 C 0.3099(3) 0.9671(3) 0.9801(4)
C77 C 0.3165(3) 1.0173(4) 1.0195(5)
C78 C 0.3377(4) 1.0647(4) 0.9898(6)
C79 C 0.3529(4) 1.0629(4) 0.9223(6)
C80 C 0.3466(3) 1.0136(5) 0.8829(6)
C81 C 0.3250(3) 0.9661(4) 0.9131(5)
C82 C 0.5825(3) 0.4906(4) 0.8221(5)
C83 C 0.6318(3) 0.4662(5) 0.8273(5)
C84 C 0.6740(4) 0.4990(5) 0.8262(6)
C85 C 0.6702(4) 0.5567(5) 0.8163(6)
C86 C 0.6223(4) 0.5826(4) 0.8114(5)
C87 C 0.5782(4) 0.5492(4) 0.8147(5)
C88 C 0.5409(3) 0.3903(4) 0.7593(5)
C89 C 0.5617(3) 0.4061(4) 0.6973(5)
C90 C 0.5711(3) 0.3648(4) 0.6467(5)
C91 C 0.5596(4) 0.3095(5) 0.6584(6)
C92 C 0.5390(4) 0.2933(4) 0.7187(6)
C93 C 0.5298(3) 0.3342(3) 0.7697(5)
C94 C 0.5254(3) 0.4141(4) 0.9058(4)
C95 C 0.5620(4) 0.3745(4) 0.9315(5)
C96 C 0.5595(5) 0.3511(5) 0.9982(5)
C97 C 0.5223(5) 0.3682(5) 1.0412(6)
C98 C 0.4863(5) 0.4078(5) 1.0169(6)
C99 C 0.4871(4) 0.4300(4) 0.9489(5)
H1 H 0.3864 0.5283 0.8909
H2 H 0.3345 0.6044 0.9163
H3 H 0.3804 0.6834 0.7441
H4 H 0.4292 0.6043 0.7227
H5 H 0.3417 0.7575 0.7745
H6 H 0.2918 0.8330 0.8050
H7 H 0.2372 0.7458 0.9562
H8 H 0.2836 0.6674 0.9307
H9 H 0.5056 0.5645 0.6865
H10 H 0.5321 0.5691 0.5741
H11 H 0.4459 0.4301 0.5254
H12 H 0.4213 0.4308 0.6397
H13 H 0.3358 0.4889 0.7422
H14 H 0.2776 0.4324 0.6800
H15 H 0.3717 0.2988 0.7256
H16 H 0.4250 0.3595 0.7910
H17 H 0.2541 0.3796 0.5820
H18 H 0.2001 0.3199 0.5139
H19 H 0.2434 0.1906 0.6353
H20 H 0.2999 0.2461 0.7013
H21 H 0.2049 0.8672 0.7702
H22 H 0.1830 0.9291 0.6795
H23 H 0.1751 1.0534 0.8231
H24 H 0.1987 0.9882 0.9096
H25 H 0.1353 0.8957 1.0118
H26 H 0.0527 0.8632 1.0272
H27 H 0.0769 0.7382 0.8906
H28 H 0.1566 0.7736 0.8788
H29 H 0.1287 0.1698 0.6504
H30 H 0.1323 0.1015 0.7374
H31 H 0.1993 0.9968 0.6048
H32 H 0.1921 0.0683 0.5218
H33 H 0.1130 0.3078 0.5135
H34 H 0.0337 0.3468 0.5210
H35 H 0.0221 0.6884 0.9690
H36 H 0.0578 0.1549 0.5185
H37 H 0.2071 0.1712 0.2566
H38 H 0.1545 0.1365 0.1643
H39 H 0.0808 0.0862 0.1832
H40 H 0.0583 0.0739 0.2946
H41 H 0.1083 0.1121 0.3917
H42 H 0.1770 0.2857 0.3800
H43 H 0.2193 0.3664 0.3351
H44 H 0.3067 0.3577 0.3122
H45 H 0.3472 0.2737 0.3298
H46 H 0.3059 0.1948 0.3692
H47 H 0.2925 0.1621 0.5012
H48 H 0.3480 0.0878 0.5347
H49 H 0.3335 -0.0030 0.4892
H50 H 0.2722 -0.0154 0.3988
H51 H 0.2199 0.0575 0.3561
H52 H 0.2859 0.7919 1.0651
H53 H 0.3501 0.7294 1.1089
H54 H 0.4351 0.7583 1.1149
H55 H 0.4552 0.8498 1.0790
H56 H 0.3915 0.9126 1.0369
H57 H 0.3003 0.8900 1.1677
H58 H 0.2607 0.9245 1.2653
H59 H 0.1907 0.9851 1.2516
H60 H 0.1583 1.0102 1.1382
H61 H 0.1962 0.9745 1.0404
H62 H 0.3065 1.0188 1.0663
H63 H 0.3418 1.0988 1.0163
H64 H 0.3676 1.0955 0.9027
H65 H 0.3568 1.0121 0.8362
H66 H 0.3206 0.9322 0.8863
H67 H 0.6354 0.4262 0.8317
H68 H 0.7069 0.4820 0.8324
H69 H 0.7002 0.5788 0.8127
H70 H 0.6194 0.6225 0.8060
H71 H 0.5454 0.5666 0.8118
H72 H 0.5696 0.4447 0.6891
H73 H 0.5854 0.3756 0.6044
H74 H 0.5661 0.2818 0.6240
H75 H 0.5309 0.2546 0.7262
H76 H 0.5158 0.3228 0.8120
H77 H 0.5886 0.3636 0.9034
H78 H 0.5837 0.3230 1.0142
H79 H 0.5215 0.3528 1.0871
H80 H 0.4609 0.4200 1.0464
H81 H 0.4614 0.4560 0.9319
C13B C 0.5083(3) 0.5003(4) 0.4641(4)
C38_2 C 0.1694(3) 0.0418(4) 0.6839(4)
C37_2 C 0.1463(4) 1.0936(4) 0.6940(5)
C40_2 C 0.1803(3) 1.0756(3) 0.5668(4)
C39_2 C 0.1853(3) 0.0324(4) 0.6165(4)
C43A C -0.0038(3) 0.2720(4) 0.5288(5)
C42A C -0.0377(3) 0.8067(4) 0.9783(5)
C45A C -0.0531(4) 0.6949(4) 0.9808(5)
C44A C 0.0052(3) 0.2144(4) 0.5269(5)
loop_
_geom_bond_atom_site_label_1
_geom_bond_atom_site_label_2
_geom_bond_site_symmetry_1
_geom_bond_site_symmetry_2
Cu1 N1 1_555 1_555
N1 C11 1_555 1_555
P1 Cu1 1_555 1_555
Cu2 P3 1_555 1_555
Cu3 P2 1_555 1_555
Cl1 C100 1_555 1_555
Cl2 C100 1_555 1_555
Cl3 C100 1_555 1_555
P2 C46 1_555 1_555
P3 C64 1_555 1_555
F1 B1 1_555 1_555
F2 B1 1_555 1_555
F3 B1 1_555 1_555
F4 B1 1_555 1_555
F5 B2 1_555 1_555
F6 B2 1_555 1_555
F7 B2 1_555 1_555
F8 B2 1_555 1_555
F9 B3 1_555 1_555
F10 B3 1_555 1_555
F11 B3 1_555 1_555
F12 B3 1_555 1_555
N2 Cu1 1_555 1_555
N3 Cu1 1_555 1_555
N4 Cu2 1_555 1_555
N5 Cu2 1_555 1_555
N6 Cu2 1_555 1_555
N7 Cu3 1_555 1_555
N8 Cu3 1_555 1_555
N9 Cu3 1_555 1_555
C1 N2 1_555 1_555
C2 C1 1_555 1_555
C3 C2 1_555 1_555
C4 C3 1_555 1_555
C5 N2 1_555 1_555
C6 C3 1_555 1_555
C7 C6 1_555 1_555
C8 N5 1_555 1_555
C9 N5 1_555 1_555
C10 C6 1_555 1_555
C11 C12 1_555 1_555
C12 C13 1_555 1_555
C13 C14 1_555 1_555
C14 C15 1_555 1_555
C15 N1 1_555 1_555
C16 N3 1_555 1_555
C17 C16 1_555 1_555
C18 C17 1_555 1_555
C19 C18 1_555 1_555
C20 N3 1_555 1_555
C21 C18 1_555 1_555
C22 C21 1_555 1_555
C23 N8 1_555 1_555
C24 N8 1_555 1_555
C25 C21 1_555 1_555
C26 N4 1_555 1_555
C27 C26 1_555 1_555
C28 C27 1_555 1_555
C29 C28 1_555 1_555
C30 N4 1_555 1_555
C31 N6 1_555 1_555
C32 C31 1_555 1_555
C33 C32 1_555 1_555
C34 C33 1_555 1_555
C35 N6 1_555 1_555
C36 N7 1_555 1_555
C37 C36 1_555 1_555
C38 C28 1_555 1_555
C39 C38 1_555 1_555
C40 N7 1_555 1_555
C41 N9 1_555 1_555
C42 C41 1_555 1_555
C43 C33 1_555 1_555
C44 C43 1_555 1_555
C45 N9 1_555 1_555
C46 C47 1_555 1_555
C47 C48 1_555 1_555
C48 C49 1_555 1_555
C49 C50 1_555 1_555
C50 C51 1_555 1_555
C51 C46 1_555 1_555
C52 P2 1_555 1_555
C53 C52 1_555 1_555
C54 C53 1_555 1_555
C55 C54 1_555 1_555
C56 C55 1_555 1_555
C57 C52 1_555 1_555
C58 P2 1_555 1_555
C59 C58 1_555 1_555
C60 C59 1_555 1_555
C61 C60 1_555 1_555
C62 C61 1_555 1_555
C63 C58 1_555 1_555
C64 C65 1_555 1_555
C65 C66 1_555 1_555
C66 C67 1_555 1_555
C67 C68 1_555 1_555
C68 C69 1_555 1_555
C69 C64 1_555 1_555
C70 P3 1_555 1_555
C71 C70 1_555 1_555
C72 C71 1_555 1_555
C73 C72 1_555 1_555
C74 C73 1_555 1_555
C75 C70 1_555 1_555
C76 P3 1_555 1_555
C77 C76 1_555 1_555
C78 C77 1_555 1_555
C79 C78 1_555 1_555
C80 C79 1_555 1_555
C81 C76 1_555 1_555
C82 P1 1_555 1_555
C83 C82 1_555 1_555
C84 C83 1_555 1_555
C85 C84 1_555 1_555
C86 C85 1_555 1_555
C87 C82 1_555 1_555
C88 P1 1_555 1_555
C89 C88 1_555 1_555
C90 C89 1_555 1_555
C91 C90 1_555 1_555
C92 C91 1_555 1_555
C93 C88 1_555 1_555
C94 P1 1_555 1_555
C95 C94 1_555 1_555
C96 C95 1_555 1_555
C97 C96 1_555 1_555
C98 C97 1_555 1_555
C99 C94 1_555 1_555
C101 C102 1_555 1_555
C102 C103 1_555 1_555
C103 C104 1_555 1_555
C104 C105 1_555 1_555
C105 C101 1_555 1_555
C106 C107 1_555 1_555
C107 C108 1_555 1_555
C108 C109 1_555 1_555
C109 C110 1_555 1_555
C110 C106 1_555 1_555
C111 C112 1_555 1_555
C112 C113 1_555 1_555
C113 C114 1_555 1_555
C114 C115 1_555 1_555
C115 C111 1_555 1_555
C116 C117 1_555 1_555
C117 C118 1_555 1_555
C118 C119 1_555 1_555
C119 C120 1_555 1_555
C120 C116 1_555 1_555
H1 C1 1_555 1_555
H2 C2 1_555 1_555
H3 C4 1_555 1_555
H4 C5 1_555 1_555
H5 C7 1_555 1_555
H6 C8 1_555 1_555
H7 C9 1_555 1_555
H8 C10 1_555 1_555
H9 C11 1_555 1_555
H10 C12 1_555 1_555
H11 C14 1_555 1_555
H12 C15 1_555 1_555
H13 C16 1_555 1_555
H14 C17 1_555 1_555
H15 C19 1_555 1_555
H16 C20 1_555 1_555
H17 C22 1_555 1_555
H18 C23 1_555 1_555
H19 C24 1_555 1_555
H20 C25 1_555 1_555
H21 C26 1_555 1_555
H22 C27 1_555 1_555
H23 C29 1_555 1_555
H24 C30 1_555 1_555
H25 C31 1_555 1_555
H26 C32 1_555 1_555
H27 C34 1_555 1_555
H28 C35 1_555 1_555
H29 C36 1_555 1_555
H30 C37 1_555 1_555
H31 C39 1_555 1_555
H32 C40 1_555 1_555
H33 C41 1_555 1_555
H34 C42 1_555 1_555
H35 C44 1_555 1_555
H36 C45 1_555 1_555
H37 C47 1_555 1_555
H38 C48 1_555 1_555
H39 C49 1_555 1_555
H40 C50 1_555 1_555
H41 C51 1_555 1_555
H42 C53 1_555 1_555
H43 C54 1_555 1_555
H44 C55 1_555 1_555
H45 C56 1_555 1_555
H46 C57 1_555 1_555
H47 C59 1_555 1_555
H48 C60 1_555 1_555
H49 C61 1_555 1_555
H50 C62 1_555 1_555
H51 C63 1_555 1_555
H52 C65 1_555 1_555
H53 C66 1_555 1_555
H54 C67 1_555 1_555
H55 C68 1_555 1_555
H56 C69 1_555 1_555
H57 C71 1_555 1_555
H58 C72 1_555 1_555
H59 C73 1_555 1_555
H60 C74 1_555 1_555
H61 C75 1_555 1_555
H62 C77 1_555 1_555
H63 C78 1_555 1_555
H64 C79 1_555 1_555
H65 C80 1_555 1_555
H66 C81 1_555 1_555
H67 C83 1_555 1_555
H68 C84 1_555 1_555
H69 C85 1_555 1_555
H70 C86 1_555 1_555
H71 C87 1_555 1_555
H72 C89 1_555 1_555
H73 C90 1_555 1_555
H74 C91 1_555 1_555
H75 C92 1_555 1_555
H76 C93 1_555 1_555
H77 C95 1_555 1_555
H78 C96 1_555 1_555
H79 C97 1_555 1_555
H80 C98 1_555 1_555
H81 C99 1_555 1_555
C13B C13 1_555 1_555
C38_2 C37 1_555 1_555
C37_2 C38 1_555 1_555
C40_2 C39 1_555 1_555
C39_2 C40 1_555 1_555
C43A C42 1_555 1_555
C42A C43 1_555 1_555
C45A C44 1_555 1_555
C44A C45 1_555 1_555
C4 C5 1_555 1_555
C7 C8 1_555 1_555
C9 C10 1_555 1_555
C19 C20 1_555 1_555
C22 C23 1_555 1_555
C24 C25 1_555 1_555
C29 C30 1_555 1_555
C34 C35 1_555 1_555
C56 C57 1_555 1_555
C62 C63 1_555 1_555
C74 C75 1_555 1_555
C80 C81 1_555 1_555
C86 C87 1_555 1_555
C92 C93 1_555 1_555
C98 C99 1_555 1_555
C38_2 C39_2 1_555 1_555
C43A C44A 1_555 1_555

#END
