
#######################################################################
#
#                 Cambridge Crystallographic Data Centre
#                                CCDC 
#
#######################################################################
#
# If this CIF has been generated from an entry in the Cambridge 
# Structural Database, then it will include bibliographic, chemical, 
# crystal, experimental, refinement or atomic coordinate data resulting 
# from the CCDC's data processing and validation procedures.
#
#######################################################################

data_LIWDEB08
_symmetry_cell_setting           hexagonal
_symmetry_space_group_name_H-M   'P 65 2 2'
_symmetry_Int_Tables_number      179
_space_group_name_Hall           "P 65 2' (0,0,1)"
loop_
_symmetry_equiv_pos_site_id
_symmetry_equiv_pos_as_xyz
1 x,y,z
2 -y,x-y,2/3+z
3 -x+y,-x,1/3+z
4 -x,-y,1/2+z
5 y,-x+y,1/6+z
6 x-y,x,5/6+z
7 y,x,2/3-z
8 x-y,-y,-z
9 -x,-x+y,1/3-z
10 -y,-x,1/6-z
11 -x+y,y,1/2-z
12 x,x-y,5/6-z
_cell_length_a                   11.0759(9)
_cell_length_b                   11.0759(9)
_cell_length_c                   24.985(4)
_cell_angle_alpha                90
_cell_angle_beta                 90
_cell_angle_gamma                120
_cell_volume                     2654.41
loop_
_atom_site_label
_atom_site_type_symbol
_atom_site_fract_x
_atom_site_fract_y
_atom_site_fract_z
Cu1 Cu 0.51457(4) 1.0000 0.0000
C1 C 0.8172(3) 1.1161(4) 0.00981(15)
H1 H 0.8158 1.1982 0.0160
N1 N 0.6969(3) 1.0000 0.0000
C2 C 0.9436(3) 1.1203(4) 0.01124(16)
H2 H 1.0246 1.2029 0.0196
O1 O 0.4330(3) 0.8279(3) 0.04212(10)
C3 C 1.2142(4) 0.8831(4) 0.00750(18)
H3 H 1.2155 0.8005 0.0124
C4 C 0.4758(3) 0.8122(4) 0.08710(14)
O2 O 0.4324(3) 0.8446(3) -0.08187(12)
H4 H 0.3550 0.7814 -0.0944
H5 H 0.4761 0.9041 -0.1063
O3 O 0.5416(3) 0.9067(3) 0.11999(12)
C5 C 0.4477(4) 0.6663(4) 0.09975(15)
H6 H 0.5330 0.6636 0.0943
H7 H 0.4232 0.6473 0.1373
N2 N 1.3344(3) 1.0000 0.0000
C6 C 0.9494(3) 1.0000 0.0000
C7 C 1.0813(4) 1.0000 0.0000
C8 C 1.0866(4) 0.8784(4) 0.00838(19)
H10 H 1.0050 0.7944 0.0145
Cu1_2 Cu 1.51457(4) 1.0000 0.0000
Cu1D Cu 0.0000 0.48543(4) 0.1667
C1G C 0.7011(5) 0.8839(4) -0.00981(15)
H1G H 0.6176 0.8018 -0.0160
C2G C 0.8233(5) 0.8797(4) -0.01124(16)
H2G H 0.8217 0.7971 -0.0196
O1I O 0.1721(3) 0.5670(3) 0.12455(10)
O1G O 0.6051(4) 1.1721(3) -0.04212(10)
C3G C 1.3311(6) 1.1169(4) -0.00750(18)
H3G H 1.4150 1.1995 -0.0124
C4I C 0.1878(4) 0.5242(3) 0.07957(14)
O2G O 0.5878(4) 1.1554(3) 0.08187(12)
H4G H 0.5736 1.2186 0.0944
H5G H 0.5720 1.0959 0.1063
O3I O 0.0933(3) 0.4584(3) 0.04668(12)
C5I C 0.3337(4) 0.5523(4) 0.06692(15)
H6I H 0.3364 0.4670 0.0724
H7I H 0.3527 0.5768 0.0294
N2_2 N 0.3344(3) 1.0000 0.0000
C8G C 1.2082(6) 1.1216(4) -0.00838(19)
H10G H 1.2106 1.2056 -0.0145
O4 O 0.5472(5) 0.8576(4) 0.22829(15)
H8 H 0.5155 0.8675 0.1986
H9 H 0.5574 0.7867 0.2260
loop_
_geom_bond_atom_site_label_1
_geom_bond_atom_site_label_2
_geom_bond_site_symmetry_1
_geom_bond_site_symmetry_2
Cu1 N1 1_555 1_555
C1 H1 1_555 1_555
N1 C1 1_555 1_555
C2 C1 1_555 1_555
H2 C2 1_555 1_555
O1 Cu1 1_555 1_555
C3 H3 1_555 1_555
C4 O1 1_555 1_555
O2 Cu1 1_555 1_555
H4 O2 1_555 1_555
H5 O2 1_555 1_555
O3 C4 1_555 1_555
C5 C4 1_555 1_555
H6 C5 1_555 1_555
H7 C5 1_555 1_555
N2 C3 1_555 1_555
C6 C2 1_555 1_555
C7 C6 1_555 1_555
O4 H8 1_555 1_555
H9 O4 1_555 1_555
C8 C3 1_555 1_555
H10 C8 1_555 1_555
Cu1_2 N2 1_555 1_555
Cu1D O1I 1_555 1_555
C1G N1 1_555 1_555
H1G C1G 1_555 1_555
C2G C6 1_555 1_555
H2G C2G 1_555 1_555
O1I C4I 1_555 1_555
O1G Cu1 1_555 1_555
C3G N2 1_555 1_555
H3G C3G 1_555 1_555
C4I O3I 1_555 1_555
O2G Cu1 1_555 1_555
H4G O2G 1_555 1_555
H5G O2G 1_555 1_555
C5I C5 1_555 1_555
H6I C5I 1_555 1_555
H7I C5I 1_555 1_555
N2_2 Cu1 1_555 1_555
C8G C7 1_555 1_555
H10G C8G 1_555 1_555
C7 C8 1_555 1_555
C1G C2G 1_555 1_555
C3G C8G 1_555 1_555
C4I C5I 1_555 1_555

#END
