
#######################################################################
#
#                 Cambridge Crystallographic Data Centre
#                                CCDC 
#
#######################################################################
#
# If this CIF has been generated from an entry in the Cambridge 
# Structural Database, then it will include bibliographic, chemical, 
# crystal, experimental, refinement or atomic coordinate data resulting 
# from the CCDC's data processing and validation procedures.
#
#######################################################################

data_LIWDEB06
_symmetry_cell_setting           hexagonal
_symmetry_space_group_name_H-M   'P 65 2 2'
_symmetry_Int_Tables_number      179
_space_group_name_Hall           "P 65 2' (0,0,1)"
loop_
_symmetry_equiv_pos_site_id
_symmetry_equiv_pos_as_xyz
1 x,y,z
2 -y,x-y,2/3+z
3 -x+y,-x,1/3+z
4 -x,-y,1/2+z
5 y,-x+y,1/6+z
6 x-y,x,5/6+z
7 y,x,2/3-z
8 x-y,-y,-z
9 -x,-x+y,1/3-z
10 -y,-x,1/6-z
11 -x+y,y,1/2-z
12 x,x-y,5/6-z
_cell_length_a                   11.056(2)
_cell_length_b                   11.056(2)
_cell_length_c                   24.871(10)
_cell_angle_alpha                90
_cell_angle_beta                 90
_cell_angle_gamma                120
_cell_volume                     2632.81
loop_
_atom_site_label
_atom_site_type_symbol
_atom_site_fract_x
_atom_site_fract_y
_atom_site_fract_z
Cu1 Cu 1.0000 1.51457(4) 0.1667
C1 C 0.8828(3) 1.7000(3) 0.17713(19)
H1 H 0.8010 1.6166 0.1843
C2 C 1.1201(3) 2.2078(3) 0.1739(2)
H2 H 1.2045 2.2097 0.1784
C3 C 1.3332(3) 1.7816(3) 0.2666(2)
H3 H 1.3512 1.7750 0.3043
H4 H 1.3360 1.8699 0.2612
N1 N 1.0000 1.6964(3) 0.1667
O1 O 1.0931(3) 1.6364(3) 0.28631(15)
C4 C 1.1893(3) 1.6648(3) 0.25297(18)
N2 N 1.0000 2.3335(3) 0.1667
O2 O 1.1718(2) 1.6055(2) 0.20880(13)
C5 C 0.8791(3) 1.8229(3) 0.17772(18)
H5 H 0.7961 1.8213 0.1855
C6 C 1.0000 2.0827(3) 0.1667
O3 O 0.8445(2) 1.4320(2) 0.24903(13)
H6 H 0.9226 1.4931 0.2621
H7 H 0.8219 1.3535 0.2632
C7 C 1.1174(3) 2.3306(3) 0.1746(2)
H8 H 1.1999 2.4139 0.1808
C8 C 1.0000 1.9497(3) 0.1667
Cu1_2 Cu 1.0000 2.51457(4) 0.1667
Cu1D Cu 1.51457(4) 1.51457(4) 0.3334
C1H C 1.1172(3) 1.8172(4) 0.15620(19)
H1H H 1.1990 1.8156 0.1490
C2H C 0.8799(3) 2.0877(4) 0.1594(2)
H2H H 0.7955 2.0052 0.1549
C3J C 1.4484(4) 1.7816(3) 0.2334(2)
H3J H 1.4238 1.7750 0.1957
H4J H 1.5339 1.8699 0.2388
O1J O 1.5433(4) 1.6364(3) 0.21369(15)
C4J C 1.4755(4) 1.6648(3) 0.24703(18)
N2_2 N 1.0000 1.3335(3) 0.1667
O2J O 1.4337(3) 1.6055(2) 0.29120(13)
O2H O 0.8282(2) 1.4337(3) 0.12453(13)
C5H C 1.1209(3) 1.9438(4) 0.15561(18)
H5H H 1.2039 2.0252 0.1478
O3H O 1.1555(2) 1.5875(3) 0.08430(13)
H6H H 1.0774 1.5705 0.0712
H7H H 1.1781 1.5316 0.0701
C7H C 0.8826(3) 2.2132(4) 0.1587(2)
H8H H 0.8001 2.2140 0.1525
O4 O 0.6892(4) 1.1437(3) 0.27153(18)
H9 H 0.6869 1.1253 0.3048
H10 H 0.6297 1.1694 0.2658
loop_
_geom_bond_atom_site_label_1
_geom_bond_atom_site_label_2
_geom_bond_site_symmetry_1
_geom_bond_site_symmetry_2
Cu1 N1 1_555 1_555
C1 H1 1_555 1_555
C2 H2 1_555 1_555
C3 H3 1_555 1_555
H4 C3 1_555 1_555
N1 C1 1_555 1_555
O1 C4 1_555 1_555
C4 C3 1_555 1_555
N2 C7 1_555 1_555
O2 Cu1 1_555 1_555
C5 C1 1_555 1_555
H5 C5 1_555 1_555
C6 C2 1_555 1_555
O3 Cu1 1_555 1_555
H6 O3 1_555 1_555
H7 O3 1_555 1_555
C7 C2 1_555 1_555
H8 C7 1_555 1_555
C8 C5 1_555 1_555
O4 H9 1_555 1_555
H10 O4 1_555 1_555
Cu1_2 N2 1_555 1_555
Cu1D O2J 1_555 1_555
C1H N1 1_555 1_555
H1H C1H 1_555 1_555
C2H C6 1_555 1_555
H2H C2H 1_555 1_555
C3J C3 1_555 1_555
H3J C3J 1_555 1_555
H4J C3J 1_555 1_555
O1J C4J 1_555 1_555
C4J C3J 1_555 1_555
N2_2 Cu1 1_555 1_555
O2J C4J 1_555 1_555
O2H Cu1 1_555 1_555
C5H C8 1_555 1_555
H5H C5H 1_555 1_555
O3H Cu1 1_555 1_555
H6H O3H 1_555 1_555
H7H O3H 1_555 1_555
C7H N2 1_555 1_555
H8H C7H 1_555 1_555
C4 O2 1_555 1_555
C6 C8 1_555 1_555
C1H C5H 1_555 1_555
C2H C7H 1_555 1_555

#END
