
#######################################################################
#
#                 Cambridge Crystallographic Data Centre
#                                CCDC 
#
#######################################################################
#
# If this CIF has been generated from an entry in the Cambridge 
# Structural Database, then it will include bibliographic, chemical, 
# crystal, experimental, refinement or atomic coordinate data resulting 
# from the CCDC's data processing and validation procedures.
#
#######################################################################

data_LIWHIK
_symmetry_cell_setting           triclinic
_symmetry_space_group_name_H-M   'P -1'
_symmetry_Int_Tables_number      2
_space_group_name_Hall           '-P 1'
loop_
_symmetry_equiv_pos_site_id
_symmetry_equiv_pos_as_xyz
1 x,y,z
2 -x,-y,-z
_cell_length_a                   13.891(3)
_cell_length_b                   16.910(3)
_cell_length_c                   17.448(3)
_cell_angle_alpha                114.74(3)
_cell_angle_beta                 100.92(3)
_cell_angle_gamma                97.71(3)
_cell_volume                     3548.67
loop_
_atom_site_label
_atom_site_type_symbol
_atom_site_fract_x
_atom_site_fract_y
_atom_site_fract_z
C1 C 0.7440(10) 0.2827(10) 1.1431(9)
H1 H 0.7460 0.2226 1.1186
C2 C 0.8291(11) 0.3431(13) 1.2047(11)
H2 H 0.8871 0.3248 1.2193
C3 C 0.8259(13) 0.4318(13) 1.2443(12)
H3 H 0.8819 0.4742 1.2875
C4 C 0.7370(15) 0.4594(11) 1.2195(11)
H4 H 0.7328 0.5189 1.2455
C5 C 0.6564(9) 0.3902(8) 1.1531(8)
C6 C 0.5662(10) 0.4105(7) 1.1163(9)
C7 C 0.5514(15) 0.4990(9) 1.1385(12)
H5 H 0.6036 0.5483 1.1781
C8 C 0.4689(18) 0.5116(11) 1.1055(14)
H6 H 0.4634 0.5700 1.1200
C9 C 0.3885(13) 0.4428(10) 1.0498(12)
H7 H 0.3282 0.4530 1.0266
C10 C 0.3997(11) 0.3582(8) 1.0293(9)
H8 H 0.3457 0.3101 0.9907
C11 C 0.5772(8) 0.0604(7) 1.1296(7)
C12 C 0.6061(8) 0.0997(7) 1.2283(7)
C13 C 0.5808(9) 0.0450(7) 1.2674(7)
H9 H 0.5489 -0.0154 1.2331
C14 C 0.6045(9) 0.0836(7) 1.3589(7)
C15 C 0.6530(12) 0.1716(8) 1.4090(8)
H10 H 0.6703 0.1956 1.4698
C16 C 0.6769(10) 0.2256(7) 1.3707(8)
C17 C 0.6524(9) 0.1895(7) 1.2789(8)
H11 H 0.6671 0.2257 1.2526
C18 C 0.7303(14) 0.3227(12) 1.4234(12)
C19 C 0.5742(11) 0.0253(10) 1.4036(9)
C20 C 0.3271(8) 0.2096(7) 1.1224(7)
C21 C 0.3266(7) 0.3051(6) 1.1841(7)
C22 C 0.4126(8) 0.3655(7) 1.2453(7)
H12 H 0.4737 0.3486 1.2468
C23 C 0.4112(9) 0.4486(7) 1.3035(8)
C24 C 0.3188(10) 0.4747(7) 1.3019(9)
H13 H 0.3157 0.5310 1.3422
C25 C 0.2341(9) 0.4150(8) 1.2395(9)
C26 C 0.2352(9) 0.3307(7) 1.1814(8)
H14 H 0.1760 0.2910 1.1406
C27 C 0.5053(13) 0.5136(10) 1.3690(11)
C28 C 0.1344(13) 0.4418(10) 1.2313(16)
C29 C 0.2684(8) 0.0909(8) 0.8736(8)
C30 C 0.2368(8) 0.0798(7) 0.7833(7)
C31 C 0.2794(9) 0.1464(8) 0.7621(8)
H15 H 0.3270 0.1971 0.8058
C32 C 0.2528(10) 0.1381(8) 0.6806(8)
C33 C 0.1830(12) 0.0588(10) 0.6133(10)
H16 H 0.1667 0.0503 0.5557
C34 C 0.1392(9) -0.0059(8) 0.6336(8)
C35 C 0.1677(8) 0.0044(8) 0.7190(8)
H17 H 0.1398 -0.0400 0.7322
C36 C 0.2941(16) 0.2056(13) 0.6551(14)
C37 C 0.0685(14) -0.0887(11) 0.5634(12)
C38 C -0.0292(8) -0.1197(7) 0.8341(8)
C39 C -0.1048(8) -0.1774(7) 0.7507(8)
C40 C -0.0782(9) -0.2452(8) 0.6826(9)
H18 H -0.0126 -0.2527 0.6916
C41 C -0.1493(12) -0.3009(9) 0.6021(10)
C42 C -0.2465(10) -0.2853(9) 0.5899(9)
H19 H -0.2940 -0.3191 0.5358
C43 C -0.2718(9) -0.2213(8) 0.6566(9)
C44 C -0.2009(8) -0.1668(8) 0.7354(8)
H20 H -0.2190 -0.1216 0.7791
C45 C -0.1248(18) -0.3691(16) 0.5314(16)
C46 C -0.3781(10) -0.2030(11) 0.6420(11)
C47 C 0.0255(8) -0.1402(7) 1.0428(8)
C48 C 0.0338(7) -0.2159(7) 1.0648(8)
C49 C 0.0986(8) -0.2707(6) 1.0358(7)
H21 H 0.1385 -0.2608 1.0021
C50 C 0.1032(9) -0.3397(7) 1.0574(8)
C51 C 0.0498(9) -0.3546(7) 1.1104(8)
H22 H 0.0554 -0.4009 1.1254
C52 C -0.0149(10) -0.2964(8) 1.1420(9)
C53 C -0.0249(8) -0.2312(7) 1.1175(8)
H23 H -0.0704 -0.1964 1.1353
C54 C 0.1696(10) -0.4001(7) 1.0215(10)
C55 C -0.0767(16) -0.3120(11) 1.1989(14)
C56 C 0.6118(9) 0.1736(7) 0.8881(7)
C57 C 0.6563(8) 0.1671(7) 0.8161(7)
C58 C 0.6349(9) 0.2196(7) 0.7747(8)
H24 H 0.5897 0.2555 0.7902
C59 C 0.6799(10) 0.2188(8) 0.7112(8)
C60 C 0.7433(10) 0.1608(8) 0.6823(8)
H25 H 0.7706 0.1579 0.6368
C61 C 0.7639(9) 0.1089(7) 0.7227(7)
C62 C 0.7203(7) 0.1102(7) 0.7896(7)
H26 H 0.7341 0.0736 0.8159
C63 C 0.8277(11) 0.0432(10) 0.6897(11)
C64 C 0.6559(17) 0.2781(10) 0.6693(13)
N1 N 0.6602(7) 0.3016(6) 1.1154(6)
N2 N 0.4858(7) 0.3414(6) 1.0627(7)
O1 O 0.5391(6) 0.2096(5) 0.8970(5)
O2 O 0.6437(6) 0.1414(5) 0.9390(5)
O3 O 0.3406(5) 0.1567(5) 0.9293(5)
O4 O 0.2236(6) 0.0348(5) 0.8911(5)
O5 O 0.5873(5) 0.1145(4) 1.0981(5)
O6 O 0.5498(6) -0.0218(4) 1.0855(5)
O7 O 0.4105(5) 0.1912(5) 1.1150(5)
O8 O 0.2416(6) 0.1577(5) 1.0841(5)
O9 O 0.0979(5) -0.1096(5) 1.0204(6)
O10 O -0.0530(6) -0.1105(5) 1.0495(6)
O11 O 0.0649(5) -0.1195(5) 0.8408(5)
O12 O -0.0539(5) -0.0668(5) 0.9012(5)
O13 O 0.2921(6) -0.0072(7) 1.0516(8)
H27 H 0.2847 -0.0616 1.0460
H28 H 0.3382 0.0015 1.0262
F1 F 0.5786(11) 0.2391(10) 0.6026(9)
F2 F 0.6443(12) 0.3528(7) 0.7246(8)
F3 F 0.7276(9) 0.3004(7) 0.6385(7)
F4 F 0.9010(8) 0.0774(7) 0.6644(8)
F5 F 0.7768(8) -0.0315(6) 0.6208(7)
F6 F 0.8728(7) 0.0213(6) 0.7489(7)
F7 F 0.3795(13) 0.2552(10) 0.7077(10)
F8 F 0.3116(13) 0.1779(9) 0.5830(9)
F9 F 0.2443(12) 0.2649(9) 0.6612(12)
F10 F 0.0591(14) -0.1011(11) 0.4885(9)
F11 F 0.0873(12) -0.1595(7) 0.5625(11)
F12 F -0.0168(10) -0.0999(10) 0.5742(11)
F13 F -0.1862(13) -0.4411(10) 0.4967(15)
F14 F -0.0408(13) -0.3907(11) 0.5544(12)
F15 F -0.118(3) -0.3552(19) 0.4705(17)
F16 F -0.4073(8) -0.2048(9) 0.5670(8)
F17 F -0.4435(7) -0.2727(9) 0.6323(10)
F18 F -0.3855(9) -0.1371(11) 0.7015(9)
F19 F -0.1728(9) -0.3445(9) 1.1554(9)
F20 F -0.0541(10) -0.3707(7) 1.2236(8)
F21 F -0.0686(9) -0.2373(6) 1.2665(8)
F22 F 0.1931(11) -0.4434(9) 1.0630(11)
F23 F 0.1251(9) -0.4631(8) 0.9441(10)
F24 F 0.2535(7) -0.3642(6) 1.0153(8)
F25 F 0.5530(8) -0.0611(6) 1.3490(6)
F26 F 0.4912(9) 0.0450(8) 1.4277(9)
F27 F 0.6437(8) 0.0416(6) 1.4720(6)
F28 F 0.7669(15) 0.3591(8) 1.3907(8)
F29 F 0.8098(12) 0.3350(9) 1.4868(12)
F30 F 0.6883(12) 0.3667(8) 1.4808(12)
F31 F 0.5592(11) 0.5488(12) 1.3399(10)
F32 F 0.5577(12) 0.4847(9) 1.4076(13)
F33 F 0.4867(11) 0.5801(9) 1.4309(10)
F34 F 0.1243(11) 0.5008(12) 1.3029(12)
F35 F 0.0573(8) 0.3797(8) 1.2041(13)
F36 F 0.1189(12) 0.4802(15) 1.1846(18)
Sm1 Sm 0.50361(4) 0.17471(3) 1.01224(3)
Sm2 Sm 0.13596(4) 0.01338(3) 0.98593(4)
O6A O 0.4502(6) 0.0218(4) 0.9145(5)
O10A O 0.0530(6) 0.1105(5) 0.9505(6)
O12A O 0.0539(5) 0.0668(5) 1.0988(5)
Sm1A Sm 0.49639(4) -0.17471(3) 0.98776(3)
Sm2A Sm -0.13596(4) -0.01338(3) 1.01407(4)
loop_
_geom_bond_atom_site_label_1
_geom_bond_atom_site_label_2
_geom_bond_site_symmetry_1
_geom_bond_site_symmetry_2
C1 H1 1_555 1_555
C2 C1 1_555 1_555
H2 C2 1_555 1_555
C3 C2 1_555 1_555
H3 C3 1_555 1_555
C4 C3 1_555 1_555
H4 C4 1_555 1_555
C5 C4 1_555 1_555
C6 C5 1_555 1_555
C7 C6 1_555 1_555
H5 C7 1_555 1_555
C8 C7 1_555 1_555
H6 C8 1_555 1_555
C9 C8 1_555 1_555
H7 C9 1_555 1_555
C10 C9 1_555 1_555
H8 C10 1_555 1_555
C11 C12 1_555 1_555
C12 C13 1_555 1_555
C13 H9 1_555 1_555
C14 C13 1_555 1_555
C15 C14 1_555 1_555
H10 C15 1_555 1_555
C16 C15 1_555 1_555
C17 C12 1_555 1_555
H11 C17 1_555 1_555
C18 C16 1_555 1_555
C19 C14 1_555 1_555
C20 C21 1_555 1_555
C21 C22 1_555 1_555
C22 H12 1_555 1_555
C23 C22 1_555 1_555
C24 C23 1_555 1_555
H13 C24 1_555 1_555
C25 C24 1_555 1_555
C26 C21 1_555 1_555
H14 C26 1_555 1_555
C27 C23 1_555 1_555
C28 C25 1_555 1_555
C29 C30 1_555 1_555
C30 C31 1_555 1_555
C31 H15 1_555 1_555
C32 C31 1_555 1_555
C33 C32 1_555 1_555
H16 C33 1_555 1_555
C34 C33 1_555 1_555
C35 C30 1_555 1_555
H17 C35 1_555 1_555
C36 C32 1_555 1_555
C37 C34 1_555 1_555
C38 C39 1_555 1_555
C39 C40 1_555 1_555
C40 H18 1_555 1_555
C41 C40 1_555 1_555
C42 C41 1_555 1_555
H19 C42 1_555 1_555
C43 C42 1_555 1_555
C44 C39 1_555 1_555
H20 C44 1_555 1_555
C45 C41 1_555 1_555
C46 C43 1_555 1_555
C47 C48 1_555 1_555
C48 C49 1_555 1_555
C49 H21 1_555 1_555
C50 C49 1_555 1_555
C51 C50 1_555 1_555
H22 C51 1_555 1_555
C52 C51 1_555 1_555
C53 C48 1_555 1_555
H23 C53 1_555 1_555
C54 C50 1_555 1_555
C55 C52 1_555 1_555
C56 C57 1_555 1_555
C57 C58 1_555 1_555
C58 H24 1_555 1_555
C59 C58 1_555 1_555
C60 C59 1_555 1_555
H25 C60 1_555 1_555
C61 C60 1_555 1_555
C62 C57 1_555 1_555
H26 C62 1_555 1_555
C63 C61 1_555 1_555
C64 C59 1_555 1_555
N1 C1 1_555 1_555
N2 C6 1_555 1_555
O1 C56 1_555 1_555
O2 C56 1_555 1_555
O3 C29 1_555 1_555
O4 C29 1_555 1_555
O5 C11 1_555 1_555
O6 C11 1_555 1_555
O7 C20 1_555 1_555
O8 C20 1_555 1_555
O9 C47 1_555 1_555
O10 C47 1_555 1_555
O11 C38 1_555 1_555
O12 C38 1_555 1_555
O13 H27 1_555 1_555
H28 O13 1_555 1_555
F1 C64 1_555 1_555
F2 C64 1_555 1_555
F3 C64 1_555 1_555
F4 C63 1_555 1_555
F5 C63 1_555 1_555
F6 C63 1_555 1_555
F7 C36 1_555 1_555
F8 C36 1_555 1_555
F9 C36 1_555 1_555
F10 C37 1_555 1_555
F11 C37 1_555 1_555
F12 C37 1_555 1_555
F13 C45 1_555 1_555
F14 C45 1_555 1_555
F15 C45 1_555 1_555
F16 C46 1_555 1_555
F17 C46 1_555 1_555
F18 C46 1_555 1_555
F19 C55 1_555 1_555
F20 C55 1_555 1_555
F21 C55 1_555 1_555
F22 C54 1_555 1_555
F23 C54 1_555 1_555
F24 C54 1_555 1_555
F25 C19 1_555 1_555
F26 C19 1_555 1_555
F27 C19 1_555 1_555
F28 C18 1_555 1_555
F29 C18 1_555 1_555
F30 C18 1_555 1_555
F31 C27 1_555 1_555
F32 C27 1_555 1_555
F33 C27 1_555 1_555
F34 C28 1_555 1_555
F35 C28 1_555 1_555
F36 C28 1_555 1_555
Sm1 N1 1_555 1_555
Sm2 O4 1_555 1_555
O6A Sm1 1_555 1_555
O10A Sm2 1_555 1_555
O12A Sm2 1_555 1_555
Sm1A O6 1_555 1_555
Sm2A O10 1_555 1_555
C5 N1 1_555 1_555
C10 N2 1_555 1_555
C16 C17 1_555 1_555
C25 C26 1_555 1_555
C34 C35 1_555 1_555
C43 C44 1_555 1_555
C52 C53 1_555 1_555
C61 C62 1_555 1_555
N2 Sm1 1_555 1_555
O1 Sm1 1_555 1_555
O2 Sm1 1_555 1_555
O3 Sm1 1_555 1_555
O5 Sm1 1_555 1_555
O7 Sm1 1_555 1_555
O8 Sm2 1_555 1_555
O9 Sm2 1_555 1_555
O11 Sm2 1_555 1_555
O12 Sm2 1_555 1_555
O12 Sm2A 1_555 1_555
O13 Sm2 1_555 1_555
O12A Sm2A 1_555 1_555

#END
