
#######################################################################
#
#                 Cambridge Crystallographic Data Centre
#                                CCDC 
#
#######################################################################
#
# If this CIF has been generated from an entry in the Cambridge 
# Structural Database, then it will include bibliographic, chemical, 
# crystal, experimental, refinement or atomic coordinate data resulting 
# from the CCDC's data processing and validation procedures.
#
#######################################################################

data_LIWKEH
_symmetry_cell_setting           monoclinic
_symmetry_space_group_name_H-M   'C c'
_symmetry_Int_Tables_number      9
_space_group_name_Hall           'C -2yc'
loop_
_symmetry_equiv_pos_site_id
_symmetry_equiv_pos_as_xyz
1 x,y,z
2 x,-y,1/2+z
3 1/2+x,1/2+y,z
4 1/2+x,1/2-y,1/2+z
_cell_length_a                   22.787(5)
_cell_length_b                   6.367(1)
_cell_length_c                   9.906(2)
_cell_angle_alpha                90
_cell_angle_beta                 110.58(3)
_cell_angle_gamma                90
_cell_volume                     1345.49
loop_
_atom_site_label
_atom_site_type_symbol
_atom_site_fract_x
_atom_site_fract_y
_atom_site_fract_z
Ca1 Ca -0.29974(7) -0.2952(1) -0.1908(2)
O1 O -0.3766(3) -0.669(1) 0.0773(8)
O2 O -0.3386(3) -0.576(1) -0.0922(6)
C1 C -0.3755(3) -0.551(1) -0.0172(9)
C2 C -0.4150(3) -0.349(1) -0.057(1)
C3 C -0.4653(4) -0.329(1) -0.001(1)
N1 N -0.4994(3) -0.155(1) -0.043(1)
C4 C -0.4852(4) 0.005(2) -0.123(1)
C5 C -0.4358(4) -0.037(1) -0.174(1)
N2 N -0.3983(4) -0.210(1) -0.1328(9)
N3 N -0.4842(4) -0.463(1) 0.080(1)
O3 O -0.2198(3) -0.676(1) -0.4618(8)
O4 O -0.2588(2) -0.580(1) -0.2932(7)
C6 C -0.2255(3) -0.551(1) -0.363(1)
C7 C -0.1860(4) -0.361(1) -0.3359(7)
C8 C -0.1331(4) -0.316(1) -0.375(1)
N4 N -0.0972(4) -0.138(1) -0.341(1)
C9 C -0.1153(4) -0.017(1) -0.259(1)
N5 N -0.1992(4) -0.214(1) -0.253(1)
N6 N -0.1171(4) -0.456(2) -0.455(1)
C10 C -0.1674(4) -0.042(1) -0.223(1)
O5 O -0.3032(5) 0.0727(6) -0.198(1)
H1 H -0.277(2) 0.071(9) -0.058(7)
H2 H -0.294(3) 0.155(8) -0.237(6)
H3 H -0.503(3) 0.151(9) -0.141(6)
H4 H -0.425(3) 0.091(9) -0.249(6)
H5 H -0.464(3) -0.55(1) 0.114(7)
H6 H -0.524(2) -0.424(7) 0.084(5)
H7 H -0.132(7) -0.63(1) -0.47(1)
H8 H -0.069(5) -0.54(2) -0.38(1)
H9 H -0.087(3) 0.08(1) -0.217(7)
H10 H -0.175(3) 0.04(1) -0.189(7)
O1A O -0.3766(3) -0.331(1) -0.4227(8)
Ca1A Ca -0.29974(7) -0.7048(1) -0.6908(2)
O3A O -0.2198(3) -0.324(1) 0.0382(8)
Ca1A_2 Ca -0.29974(7) -0.7048(1) 0.3092(2)
loop_
_geom_bond_atom_site_label_1
_geom_bond_atom_site_label_2
_geom_bond_site_symmetry_1
_geom_bond_site_symmetry_2
Ca1 O2 1_555 1_555
O1 C1 1_555 1_555
O2 C1 1_555 1_555
C1 C2 1_555 1_555
C2 C3 1_555 1_555
C3 N1 1_555 1_555
N1 C4 1_555 1_555
C4 C5 1_555 1_555
C5 N2 1_555 1_555
N2 Ca1 1_555 1_555
N3 C3 1_555 1_555
O3 C6 1_555 1_555
O4 Ca1 1_555 1_555
C6 O4 1_555 1_555
C7 C6 1_555 1_555
C8 C7 1_555 1_555
N4 C8 1_555 1_555
C9 N4 1_555 1_555
N5 Ca1 1_555 1_555
N6 C8 1_555 1_555
C10 C9 1_555 1_555
O5 Ca1 1_555 1_555
H1 O5 1_555 1_555
H2 O5 1_555 1_555
H3 C4 1_555 1_555
H4 C5 1_555 1_555
H5 N3 1_555 1_555
H6 N3 1_555 1_555
H7 N6 1_555 1_555
H8 N6 1_555 1_555
H9 C9 1_555 1_555
H10 C10 1_555 1_555
O1A Ca1 1_555 1_555
Ca1A O3 1_555 1_555
O3A Ca1 1_555 1_555
Ca1A_2 O1 1_555 1_555
C2 N2 1_555 1_555
C7 N5 1_555 1_555
N5 C10 1_555 1_555

#END
