
#######################################################################
#
#                 Cambridge Crystallographic Data Centre
#                                CCDC 
#
#######################################################################
#
# If this CIF has been generated from an entry in the Cambridge 
# Structural Database, then it will include bibliographic, chemical, 
# crystal, experimental, refinement or atomic coordinate data resulting 
# from the CCDC's data processing and validation procedures.
#
#######################################################################

data_LIWLUZ
_symmetry_cell_setting           triclinic
_symmetry_space_group_name_H-M   'P -1'
_symmetry_Int_Tables_number      2
_space_group_name_Hall           '-P 1'
loop_
_symmetry_equiv_pos_site_id
_symmetry_equiv_pos_as_xyz
1 x,y,z
2 -x,-y,-z
_cell_length_a                   7.6209(10)
_cell_length_b                   9.0409(9)
_cell_length_c                   10.8927(17)
_cell_angle_alpha                71.050(9)
_cell_angle_beta                 88.271(12)
_cell_angle_gamma                65.325(9)
_cell_volume                     640.146
loop_
_atom_site_label
_atom_site_type_symbol
_atom_site_fract_x
_atom_site_fract_y
_atom_site_fract_z
Cd1 Cd 0.15919(3) 0.27723(3) 0.11026(2)
Cl1 Cl 0.20768(12) 0.55361(11) -0.00184(8)
O1 O 0.4674(3) 0.1231(3) 0.2247(2)
O2 O 0.7664(3) 0.0294(3) 0.1651(2)
O3 O 0.2581(4) 0.2142(3) -0.0795(2)
H1 H 0.207(5) 0.300(3) -0.146(2)
H2 H 0.257(6) 0.131(4) -0.093(4)
O4 O 0.1294(4) 0.0255(3) 0.1916(3)
H3 H 0.210(5) -0.046(5) 0.164(4)
H4 H 0.024(4) 0.025(6) 0.181(5)
N1 N 0.1003(4) 0.5170(4) 0.6947(3)
N2 N -0.0474(4) 0.6598(4) 0.7030(3)
N3 N -0.1028(4) 0.7855(4) 0.5897(3)
N4 N 0.0079(4) 0.7300(4) 0.5012(3)
N5 N 0.5626(4) 0.2604(3) 0.3896(3)
C1 C 0.1312(5) 0.5648(4) 0.5689(3)
C2 C 0.2799(4) 0.4548(4) 0.5085(3)
C3 C 0.2976(5) 0.5233(4) 0.3765(3)
H7 H 0.2109 0.6390 0.3262
C4 C 0.4395(5) 0.4242(4) 0.3197(3)
H8 H 0.4513 0.4716 0.2299
C5 C 0.5492(5) 0.1890(4) 0.5173(3)
H9 H 0.6370 0.0727 0.5650
C6 C 0.4089(5) 0.2843(4) 0.5781(3)
H10 H 0.3998 0.2337 0.6679
C7 C 0.7152(4) 0.1612(4) 0.3232(3)
H11 H 0.8154 0.0584 0.3903
H12 H 0.7785 0.2342 0.2737
C8 C 0.6394(5) 0.1007(4) 0.2294(3)
Cd1A Cd -0.15919(3) 0.72277(3) -0.11026(2)
Cd1A_2 Cd -0.15919(3) 0.72277(3) 0.88974(2)
Cl1A Cl -0.20768(12) 0.44639(11) 0.00184(8)
N2A N 0.0474(4) 0.3402(4) 0.2970(3)
O5 O 0.3827(4) 0.7744(3) 0.1138(3)
H5 H 0.487(4) 0.778(6) 0.100(4)
H6 H 0.339(7) 0.781(6) 0.044(3)
loop_
_geom_bond_atom_site_label_1
_geom_bond_atom_site_label_2
_geom_bond_site_symmetry_1
_geom_bond_site_symmetry_2
Cd1 Cl1 1_555 1_555
Cl1 Cd1A 1_555 1_555
O1 Cd1 1_555 1_555
O2 C8 1_555 1_555
O3 Cd1 1_555 1_555
H1 O3 1_555 1_555
H2 O3 1_555 1_555
O4 Cd1 1_555 1_555
H3 O4 1_555 1_555
H4 O4 1_555 1_555
O5 H5 1_555 1_555
H6 O5 1_555 1_555
N1 N2 1_555 1_555
N2 N3 1_555 1_555
N3 N4 1_555 1_555
N4 C1 1_555 1_555
N5 C4 1_555 1_555
C1 N1 1_555 1_555
C2 C1 1_555 1_555
C3 C2 1_555 1_555
H7 C3 1_555 1_555
C4 C3 1_555 1_555
H8 C4 1_555 1_555
C5 N5 1_555 1_555
H9 C5 1_555 1_555
C6 C2 1_555 1_555
H10 C6 1_555 1_555
C7 N5 1_555 1_555
H11 C7 1_555 1_555
H12 C7 1_555 1_555
C8 O1 1_555 1_555
Cd1A Cl1A 1_555 1_555
Cd1A_2 N2 1_555 1_555
Cl1A Cd1 1_555 1_555
N2A Cd1 1_555 1_555
C5 C6 1_555 1_555
C7 C8 1_555 1_555

#END
