
#######################################################################
#
#                 Cambridge Crystallographic Data Centre
#                                CCDC 
#
#######################################################################
#
# If this CIF has been generated from an entry in the Cambridge 
# Structural Database, then it will include bibliographic, chemical, 
# crystal, experimental, refinement or atomic coordinate data resulting 
# from the CCDC's data processing and validation procedures.
#
#######################################################################

data_LIWMOU
_symmetry_cell_setting           orthorhombic
_symmetry_space_group_name_H-M   'P c a 21'
_symmetry_Int_Tables_number      29
_space_group_name_Hall           'P 2c -2ac'
loop_
_symmetry_equiv_pos_site_id
_symmetry_equiv_pos_as_xyz
1 x,y,z
2 -x,-y,1/2+z
3 1/2+x,-y,z
4 1/2-x,y,1/2+z
_cell_length_a                   16.517(3)
_cell_length_b                   6.8559(11)
_cell_length_c                   8.6152(14)
_cell_angle_alpha                90
_cell_angle_beta                 90
_cell_angle_gamma                90
_cell_volume                     975.576
loop_
_atom_site_label
_atom_site_type_symbol
_atom_site_fract_x
_atom_site_fract_y
_atom_site_fract_z
Mn1 Mn 0.40104(3) 0.92602(7) 0.9429
O1 O 0.52343(15) 0.8001(4) 0.8623(3)
O2 O 0.41161(15) 1.0835(4) 0.7257(3)
O3 O 0.45518(17) 1.1893(4) 1.0380(4)
O4 O 0.27904(16) 1.0081(4) 0.9937(4)
O5 O 0.14810(13) 0.9591(3) 0.9458(6)
O6 O 0.06544(15) 0.7863(4) 0.6597(3)
O7 O 0.05477(16) 0.5881(4) 0.8617(4)
N1 N 0.32293(18) 0.7046(4) 0.8176(4)
C1 C 0.3459(2) 0.5527(6) 0.7320(6)
C2 C 0.2925(3) 0.4356(6) 0.6518(6)
C3 C 0.2105(3) 0.4755(6) 0.6634(6)
C4 C 0.1845(2) 0.6335(6) 0.7511(5)
C5 C 0.2428(2) 0.7460(5) 0.8276(5)
C6 C 0.22177(19) 0.9194(5) 0.9283(6)
C7 C 0.0950(2) 0.6756(6) 0.7597(5)
H1 H 0.5357 0.7056 0.9452
H2 H 0.5623 0.8685 0.9216
H3 H 0.4003 0.5142 0.7424
H4 H 0.4659 1.1604 0.7383
H5 H 0.3823 1.0305 0.6344
H6 H 0.3230 0.3645 0.5633
H7 H 0.4682 1.2872 0.9593
H8 H 0.4764 1.1706 1.1331
H9 H 0.1878 0.3954 0.5790
Mn1C Mn 0.09896(3) 0.92602(7) 0.4429
O6C O 0.43456(15) 0.7863(4) 1.1597(3)
loop_
_geom_bond_atom_site_label_1
_geom_bond_atom_site_label_2
_geom_bond_site_symmetry_1
_geom_bond_site_symmetry_2
Mn1 O1 1_555 1_555
O1 H1 1_555 1_555
O2 Mn1 1_555 1_555
O3 Mn1 1_555 1_555
O4 Mn1 1_555 1_555
O5 C6 1_555 1_555
O6 C7 1_555 1_555
O7 C7 1_555 1_555
N1 Mn1 1_555 1_555
C1 N1 1_555 1_555
C2 C1 1_555 1_555
C3 C2 1_555 1_555
C4 C3 1_555 1_555
C5 N1 1_555 1_555
C6 O4 1_555 1_555
C7 C4 1_555 1_555
H2 O1 1_555 1_555
H3 C1 1_555 1_555
H4 O2 1_555 1_555
H5 O2 1_555 1_555
H6 C2 1_555 1_555
H7 O3 1_555 1_555
H8 O3 1_555 1_555
H9 C3 1_555 1_555
Mn1C O6 1_555 1_555
O6C Mn1 1_555 1_555
C4 C5 1_555 1_555
C5 C6 1_555 1_555

#END
