
#######################################################################
#
#                 Cambridge Crystallographic Data Centre
#                                CCDC 
#
#######################################################################
#
# If this CIF has been generated from an entry in the Cambridge 
# Structural Database, then it will include bibliographic, chemical, 
# crystal, experimental, refinement or atomic coordinate data resulting 
# from the CCDC's data processing and validation procedures.
#
#######################################################################

data_LIWNIP
_symmetry_cell_setting           rhombohedral
_symmetry_space_group_name_H-M   'R -3 c'
_symmetry_Int_Tables_number      167
_space_group_name_Hall           '-R 3 2"c'
loop_
_symmetry_equiv_pos_site_id
_symmetry_equiv_pos_as_xyz
1 x,y,z
2 -y,x-y,z
3 -x+y,-x,z
4 y,x,1/2-z
5 2/3+x,1/3+y,1/3+z
6 2/3-y,1/3+x-y,1/3+z
7 2/3-x+y,1/3-x,1/3+z
8 2/3+y,1/3+x,5/6-z
9 1/3+x,2/3+y,2/3+z
10 1/3+y,2/3+x,1/6-z
11 x-y,-y,1/2-z
12 -x,-x+y,1/2-z
13 1/3-y,2/3+x-y,2/3+z
14 1/3-x+y,2/3-x,2/3+z
15 1/3+x-y,2/3-y,1/6-z
16 1/3-x,2/3-x+y,1/6-z
17 2/3+x-y,1/3-y,5/6-z
18 2/3-x,1/3-x+y,5/6-z
19 -x,-y,-z
20 y,-x+y,-z
21 x-y,x,-z
22 -y,-x,1/2+z
23 1/3-x,2/3-y,2/3-z
24 1/3+y,2/3-x+y,2/3-z
25 1/3+x-y,2/3+x,2/3-z
26 1/3-y,2/3-x,1/6+z
27 2/3-x,1/3-y,1/3-z
28 2/3-y,1/3-x,5/6+z
29 -x+y,y,1/2+z
30 x,x-y,1/2+z
31 2/3+y,1/3-x+y,1/3-z
32 2/3+x-y,1/3+x,1/3-z
33 2/3-x+y,1/3+y,5/6+z
34 2/3+x,1/3+x-y,5/6+z
35 1/3-x+y,2/3+y,1/6+z
36 1/3+x,2/3+x-y,1/6+z
_cell_length_a                   25.800(3)
_cell_length_b                   25.800(3)
_cell_length_c                   22.612(5)
_cell_angle_alpha                90
_cell_angle_beta                 90
_cell_angle_gamma                120.00
_cell_volume                     13034.9
loop_
_atom_site_label
_atom_site_type_symbol
_atom_site_fract_x
_atom_site_fract_y
_atom_site_fract_z
P1 P -0.3333 0.3333 -0.1667
F1 F -0.29613(13) 0.39055(12) -0.12703(14)
F1A F -0.39055(12) 0.31332(18) -0.12703(14)
F1B F -0.31332(18) 0.29613(13) -0.12703(14)
F1V F -0.37054(13) 0.27612(12) -0.20630(14)
F1W F -0.27612(12) 0.35335(18) -0.20630(14)
F1X F -0.35335(18) 0.37054(13) -0.20630(14)
P2 P -0.34868(9) 0.0000 -0.2500
F2 F -0.3614(4) 0.0514(4) -0.2519(4)
F3 F -0.3303(3) -0.0468(3) -0.2506(5)
F4 F -0.3476(5) 0.0053(3) -0.1839(3)
F2J F -0.4128(6) -0.0514(4) -0.2481(4)
F3J F -0.2835(4) 0.0468(3) -0.2494(5)
F4J F -0.3529(6) -0.0053(3) -0.3161(3)
Ag1 Ag -0.149900(18) 0.516770(18) 0.0833
Ag2 Ag -0.3334 0.3334 0.5834
O1 O -0.21156(13) 0.58979(11) -0.36140(9)
N1 N -0.16672(13) 0.53055(12) -0.00686(11)
N2 N -0.27991(16) 0.42889(16) -0.35705(14)
N3 N -0.18573(13) 0.62156(12) -0.26671(12)
H1 H -0.1734 0.6583 -0.2789
C1 C -0.17977(15) 0.61419(14) -0.20867(14)
C2 C -0.19924(14) 0.55761(14) -0.18699(13)
C3 C -0.22593(14) 0.50942(14) -0.22629(13)
H2 H -0.2410 0.4699 -0.2117
C4 C -0.23086(14) 0.51806(14) -0.28573(13)
C5 C -0.20921(15) 0.57713(14) -0.30885(13)
C6 C -0.18850(14) 0.54832(13) -0.12384(13)
C7 C -0.13113(15) 0.56673(16) -0.10413(15)
H3 H -0.0982 0.5856 -0.1306
C8 C -0.12202(16) 0.55751(16) -0.04569(15)
H4 H -0.0823 0.5709 -0.0326
C9 C -0.22192(16) 0.51253(15) -0.02556(14)
H5 H -0.2541 0.4931 0.0016
C10 C -0.23450(15) 0.52091(15) -0.08323(14)
H6 H -0.2746 0.5079 -0.0948
C11 C -0.25769(16) 0.46878(15) -0.32580(15)
C12 C -0.1543(2) 0.66930(16) -0.17199(16)
H7 H -0.1375 0.7045 -0.1978
H8 H -0.1228 0.6711 -0.1465
H9 H -0.1860 0.6686 -0.1475
Ag1A Ag -0.516770(18) 0.333330(25) 0.0833
Ag1B Ag -0.333330(25) 0.149900(18) 0.0833
Ag2_2 Ag -0.3334 0.3334 -0.4166
O1A O -0.58979(11) 0.19865(17) -0.36140(9)
O1B O -0.19865(17) 0.21156(13) -0.36140(9)
O1I O -0.07688(11) 0.45511(13) 0.52807(9)
O1O O -0.45511(13) 0.46802(17) 0.52807(9)
O1N O -0.46802(17) 0.07688(11) 0.52807(9)
N1A N -0.53055(12) 0.30273(18) -0.00686(11)
N1B N -0.30273(18) 0.16672(13) -0.00686(11)
N1I N -0.13612(12) 0.49995(13) 0.17353(11)
N1O N -0.49995(13) 0.36394(18) 0.17353(11)
N1N N -0.36394(18) 0.13612(12) 0.17353(11)
N2A N -0.42889(16) 0.29120(23) -0.35705(14)
N2B N -0.29120(23) 0.27991(16) -0.35705(14)
N2I N -0.23778(16) 0.38676(16) 0.52372(14)
N2O N -0.38676(16) 0.37547(23) 0.52372(14)
N2N N -0.37547(23) 0.23778(16) 0.52372(14)
N2_2 N -0.27991(16) 0.42889(16) 0.64295(14)
N2A_2 N -0.42889(16) 0.29120(23) 0.64295(14)
N2B_2 N -0.29120(23) 0.27991(16) 0.64295(14)
N3A N -0.62156(12) 0.19271(18) -0.26671(12)
N3B N -0.19271(18) 0.18573(13) -0.26671(12)
N3I N -0.04511(12) 0.48094(13) 0.43338(12)
N3O N -0.48094(13) 0.47396(18) 0.43338(12)
N3N N -0.47396(18) 0.04511(12) 0.43338(12)
H1A H -0.6583 0.1683 -0.2789
H1B H -0.1683 0.1734 -0.2789
H1I H -0.0084 0.4933 0.4456
H1O H -0.4933 0.4984 0.4456
H1N H -0.4984 0.0084 0.4456
C1A C -0.61419(14) 0.20604(21) -0.20867(14)
C1B C -0.20604(21) 0.17977(15) -0.20867(14)
C1I C -0.05248(14) 0.48690(15) 0.37534(14)
C1O C -0.48690(15) 0.46063(21) 0.37534(14)
C1N C -0.46063(21) 0.05248(14) 0.37534(14)
C2A C -0.55761(14) 0.24315(20) -0.18699(13)
C2B C -0.24315(20) 0.19924(14) -0.18699(13)
C2I C -0.10906(14) 0.46743(14) 0.35366(13)
C2O C -0.46743(14) 0.42352(20) 0.35366(13)
C2N C -0.42352(20) 0.10906(14) 0.35366(13)
C3A C -0.50942(14) 0.26465(20) -0.22629(13)
C3B C -0.26465(20) 0.22593(14) -0.22629(13)
C3I C -0.15725(14) 0.44074(14) 0.39296(13)
C3O C -0.44074(14) 0.40202(20) 0.39296(13)
C3N C -0.40202(20) 0.15725(14) 0.39296(13)
H2A H -0.4699 0.2891 -0.2117
H2B H -0.2891 0.2410 -0.2117
H2I H -0.1968 0.4257 0.3784
H2O H -0.4257 0.3776 0.3784
H2N H -0.3776 0.1968 0.3784
C4A C -0.51806(14) 0.25108(20) -0.28573(13)
C4B C -0.25108(20) 0.23086(14) -0.28573(13)
C4I C -0.14861(14) 0.43581(14) 0.45240(13)
C4O C -0.43581(14) 0.41559(20) 0.45240(13)
C4N C -0.41559(20) 0.14861(14) 0.45240(13)
C5A C -0.57713(14) 0.21366(21) -0.30885(13)
C5B C -0.21366(21) 0.20921(15) -0.30885(13)
C5I C -0.08954(14) 0.45746(15) 0.47552(13)
C5O C -0.45746(15) 0.45301(21) 0.47552(13)
C5N C -0.45301(21) 0.08954(14) 0.47552(13)
C6A C -0.54832(13) 0.26318(19) -0.12384(13)
C6B C -0.26318(19) 0.18850(14) -0.12384(13)
C6I C -0.11835(13) 0.47817(14) 0.29051(13)
C6O C -0.47817(14) 0.40349(19) 0.29051(13)
C6N C -0.40349(19) 0.11835(13) 0.29051(13)
C7A C -0.56673(16) 0.30214(22) -0.10413(15)
C7B C -0.30214(22) 0.13113(15) -0.10413(15)
C7I C -0.09994(16) 0.53554(15) 0.27080(15)
C7O C -0.53554(15) 0.36453(22) 0.27080(15)
C7N C -0.36453(22) 0.09994(16) 0.27080(15)
H3A H -0.5856 0.3162 -0.1306
H3B H -0.3162 0.0982 -0.1306
H3I H -0.0811 0.5685 0.2973
H3O H -0.5685 0.3505 0.2973
H3N H -0.3505 0.0811 0.2973
C8A C -0.55751(16) 0.32047(23) -0.04569(15)
C8B C -0.32047(23) 0.12202(16) -0.04569(15)
C8I C -0.10916(16) 0.54465(16) 0.21236(15)
C8O C -0.54465(16) 0.34620(23) 0.21236(15)
C8N C -0.34620(23) 0.10916(16) 0.21236(15)
H4A H -0.5709 0.3468 -0.0326
H4B H -0.3468 0.0823 -0.0326
H4I H -0.0958 0.5844 0.1993
H4O H -0.5844 0.3199 0.1993
H4N H -0.3199 0.0958 0.1993
C9A C -0.51253(15) 0.26555(22) -0.02556(14)
C9B C -0.26555(22) 0.22192(16) -0.02556(14)
C9I C -0.15414(15) 0.44475(16) 0.19223(14)
C9O C -0.44475(16) 0.40112(22) 0.19223(14)
C9N C -0.40112(22) 0.15414(15) 0.19223(14)
H5A H -0.4931 0.2528 0.0016
H5B H -0.2528 0.2541 0.0016
H5I H -0.1736 0.4126 0.1651
H5O H -0.4126 0.4139 0.1651
H5N H -0.4139 0.1736 0.1651
C10A C -0.52091(15) 0.24459(21) -0.08323(14)
C10B C -0.24459(21) 0.23450(15) -0.08323(14)
C10I C -0.14576(15) 0.43217(15) 0.24990(14)
C10O C -0.43217(15) 0.42208(21) 0.24990(14)
C10N C -0.42208(21) 0.14576(15) 0.24990(14)
H6A H -0.5079 0.2175 -0.0948
H6B H -0.2175 0.2746 -0.0948
H6I H -0.1588 0.3921 0.2615
H6O H -0.3921 0.4492 0.2615
H6N H -0.4492 0.1588 0.2615
C11A C -0.46878(15) 0.27353(22) -0.32580(15)
C11B C -0.27353(22) 0.25769(16) -0.32580(15)
C11I C -0.19789(15) 0.40898(16) 0.49247(15)
C11O C -0.40898(16) 0.39314(22) 0.49247(15)
C11N C -0.39314(22) 0.19789(15) 0.49247(15)
C12A C -0.66930(16) 0.17640(26) -0.17199(16)
C12B C -0.17640(26) 0.1543(2) -0.17199(16)
C12I C 0.00263(16) 0.5124(2) 0.33866(16)
C12O C -0.5124(2) 0.49027(26) 0.33866(16)
C12N C -0.49027(26) -0.00263(16) 0.33866(16)
H7A H -0.7045 0.1580 -0.1978
H7B H -0.1580 0.1375 -0.1978
H7I H 0.0378 0.5292 0.3645
H7O H -0.5292 0.5087 0.3645
H7N H -0.5087 -0.0378 0.3645
H8A H -0.6711 0.2061 -0.1465
H8B H -0.2061 0.1228 -0.1465
H8I H 0.0044 0.5439 0.3132
H8O H -0.5439 0.4606 0.3132
H8N H -0.4606 -0.0044 0.3132
H9A H -0.6686 0.1454 -0.1475
H9B H -0.1454 0.1860 -0.1475
H9I H 0.0019 0.4807 0.3142
H9O H -0.4807 0.5213 0.3142
H9N H -0.5213 -0.0019 0.3142
O2? O -0.3333 0.0961(7) -0.4167
C13? C -0.3507(13) 0.1134(14) -0.3667(10)
H10? H -0.3206 0.1235 -0.3357
H11? H -0.3893 0.0805 -0.3531
H12? H -0.3546 0.1484 -0.3756
loop_
_geom_bond_atom_site_label_1
_geom_bond_atom_site_label_2
_geom_bond_site_symmetry_1
_geom_bond_site_symmetry_2
Ag1 N1 1_555 1_555
Ag2 N2I 1_555 1_555
P1 F1 1_555 1_555
P2 F2 1_555 1_555
F3 P2 1_555 1_555
F4 P2 1_555 1_555
O1 C5 1_555 1_555
N1 C8 1_555 1_555
N2 C11 1_555 1_555
N3 H1 1_555 1_555
C1 N3 1_555 1_555
C2 C1 1_555 1_555
C3 C2 1_555 1_555
H2 C3 1_555 1_555
C4 C3 1_555 1_555
C5 N3 1_555 1_555
C6 C2 1_555 1_555
C7 C6 1_555 1_555
H3 C7 1_555 1_555
C8 C7 1_555 1_555
H4 C8 1_555 1_555
C9 N1 1_555 1_555
H5 C9 1_555 1_555
C10 C6 1_555 1_555
H6 C10 1_555 1_555
C11 C4 1_555 1_555
C12 C1 1_555 1_555
H7 C12 1_555 1_555
H8 C12 1_555 1_555
H9 C12 1_555 1_555
Ag1A N1A 1_555 1_555
Ag1B N1B 1_555 1_555
Ag2_2 N2 1_555 1_555
F1A P1 1_555 1_555
F1B P1 1_555 1_555
F1V P1 1_555 1_555
F1W P1 1_555 1_555
F1X P1 1_555 1_555
F2J P2 1_555 1_555
F3J P2 1_555 1_555
F4J P2 1_555 1_555
O1A C5A 1_555 1_555
O1B C5B 1_555 1_555
O1I C5I 1_555 1_555
O1O C5O 1_555 1_555
O1N C5N 1_555 1_555
N1A C8A 1_555 1_555
N1B C8B 1_555 1_555
N1I Ag1 1_555 1_555
N1O Ag1A 1_555 1_555
N1N Ag1B 1_555 1_555
N2A Ag2_2 1_555 1_555
N2B Ag2_2 1_555 1_555
N2I C11I 1_555 1_555
N2O Ag2 1_555 1_555
N2N Ag2 1_555 1_555
N2_2 Ag2 1_555 1_555
N2A_2 Ag2 1_555 1_555
N2B_2 Ag2 1_555 1_555
N3A H1A 1_555 1_555
N3B H1B 1_555 1_555
N3I H1I 1_555 1_555
N3O H1O 1_555 1_555
N3N H1N 1_555 1_555
C1A N3A 1_555 1_555
C1B N3B 1_555 1_555
C1I N3I 1_555 1_555
C1O N3O 1_555 1_555
C1N N3N 1_555 1_555
C2A C1A 1_555 1_555
C2B C1B 1_555 1_555
C2I C1I 1_555 1_555
C2O C1O 1_555 1_555
C2N C1N 1_555 1_555
C3A C2A 1_555 1_555
C3B C2B 1_555 1_555
C3I C2I 1_555 1_555
C3O C2O 1_555 1_555
C3N C2N 1_555 1_555
H2A C3A 1_555 1_555
H2B C3B 1_555 1_555
H2I C3I 1_555 1_555
H2O C3O 1_555 1_555
H2N C3N 1_555 1_555
C4A C3A 1_555 1_555
C4B C3B 1_555 1_555
C4I C3I 1_555 1_555
C4O C3O 1_555 1_555
C4N C3N 1_555 1_555
C5A N3A 1_555 1_555
C5B N3B 1_555 1_555
C5I N3I 1_555 1_555
C5O N3O 1_555 1_555
C5N N3N 1_555 1_555
C6A C2A 1_555 1_555
C6B C2B 1_555 1_555
C6I C2I 1_555 1_555
C6O C2O 1_555 1_555
C6N C2N 1_555 1_555
C7A C6A 1_555 1_555
C7B C6B 1_555 1_555
C7I C6I 1_555 1_555
C7O C6O 1_555 1_555
C7N C6N 1_555 1_555
H3A C7A 1_555 1_555
H3B C7B 1_555 1_555
H3I C7I 1_555 1_555
H3O C7O 1_555 1_555
H3N C7N 1_555 1_555
C8A C7A 1_555 1_555
C8B C7B 1_555 1_555
C8I N1I 1_555 1_555
C8O N1O 1_555 1_555
C8N N1N 1_555 1_555
H4A C8A 1_555 1_555
H4B C8B 1_555 1_555
H4I C8I 1_555 1_555
H4O C8O 1_555 1_555
H4N C8N 1_555 1_555
C9A N1A 1_555 1_555
C9B N1B 1_555 1_555
C9I N1I 1_555 1_555
C9O N1O 1_555 1_555
C9N N1N 1_555 1_555
H5A C9A 1_555 1_555
H5B C9B 1_555 1_555
H5I C9I 1_555 1_555
H5O C9O 1_555 1_555
H5N C9N 1_555 1_555
C10A C6A 1_555 1_555
C10B C6B 1_555 1_555
C10I C6I 1_555 1_555
C10O C6O 1_555 1_555
C10N C6N 1_555 1_555
H6A C10A 1_555 1_555
H6B C10B 1_555 1_555
H6I C10I 1_555 1_555
H6O C10O 1_555 1_555
H6N C10N 1_555 1_555
C11A N2A 1_555 1_555
C11B N2B 1_555 1_555
C11I C4I 1_555 1_555
C11O N2O 1_555 1_555
C11N N2N 1_555 1_555
C12A C1A 1_555 1_555
C12B C1B 1_555 1_555
C12I C1I 1_555 1_555
C12O C1O 1_555 1_555
C12N C1N 1_555 1_555
H7A C12A 1_555 1_555
H7B C12B 1_555 1_555
H7I C12I 1_555 1_555
H7O C12O 1_555 1_555
H7N C12N 1_555 1_555
H8A C12A 1_555 1_555
H8B C12B 1_555 1_555
H8I C12I 1_555 1_555
H8O C12O 1_555 1_555
H8N C12N 1_555 1_555
H9A C12A 1_555 1_555
H9B C12B 1_555 1_555
H9I C12I 1_555 1_555
H9O C12O 1_555 1_555
H9N C12N 1_555 1_555
C4 C5 1_555 1_555
C9 C10 1_555 1_555
C4A C5A 1_555 1_555
C4A C11A 1_555 1_555
C4B C5B 1_555 1_555
C4B C11B 1_555 1_555
C4I C5I 1_555 1_555
C4O C5O 1_555 1_555
C4O C11O 1_555 1_555
C4N C5N 1_555 1_555
C4N C11N 1_555 1_555
C7I C8I 1_555 1_555
C7O C8O 1_555 1_555
C7N C8N 1_555 1_555
C9A C10A 1_555 1_555
C9B C10B 1_555 1_555
C9I C10I 1_555 1_555
C9O C10O 1_555 1_555
C9N C10N 1_555 1_555

#END
