
#######################################################################
#
#                 Cambridge Crystallographic Data Centre
#                                CCDC 
#
#######################################################################
#
# If this CIF has been generated from an entry in the Cambridge 
# Structural Database, then it will include bibliographic, chemical, 
# crystal, experimental, refinement or atomic coordinate data resulting 
# from the CCDC's data processing and validation procedures.
#
#######################################################################

data_LIWVEU
_symmetry_cell_setting           orthorhombic
_symmetry_space_group_name_H-M   'I m m a'
_symmetry_Int_Tables_number      74
_space_group_name_Hall           '-I 2b 2'
loop_
_symmetry_equiv_pos_site_id
_symmetry_equiv_pos_as_xyz
1 x,y,z
2 -x,1/2-y,z
3 -x,1/2+y,-z
4 x,-y,-z
5 1/2+x,1/2+y,1/2+z
6 1/2-x,-y,1/2+z
7 1/2-x,y,1/2-z
8 1/2+x,1/2-y,1/2-z
9 -x,-y,-z
10 x,1/2+y,-z
11 x,1/2-y,z
12 -x,y,z
13 1/2-x,1/2-y,1/2-z
14 1/2+x,y,1/2-z
15 1/2+x,-y,1/2+z
16 1/2-x,1/2+y,1/2+z
_cell_length_a                   19.181(4)
_cell_length_b                   11.579(3)
_cell_length_c                   12.642(3)
_cell_angle_alpha                90
_cell_angle_beta                 90
_cell_angle_gamma                90
_cell_volume                     2807.75
loop_
_atom_site_label
_atom_site_type_symbol
_atom_site_fract_x
_atom_site_fract_y
_atom_site_fract_z
Cl2 Cl 0.5000 0.2402(17) 0.4062(3)
O4 O 0.5000 0.2500 0.2967(6)
O5 O 0.5624(5) 0.2500 0.4556(8)
O6 O 0.5000 0.1185(14) 0.4264(12)
Cl2A Cl 0.5000 0.2598(17) 0.4062(3)
O5A O 0.4376(5) 0.2500 0.4556(8)
O6A O 0.5000 0.3815(14) 0.4264(12)
Ag1 Ag 0.7500 0.7500 0.7500
N1 N 0.6708(2) 0.5917(4) 0.7209(4)
C1 C 0.6144(3) 0.5749(5) 0.7801(5)
C2 C 0.6833(3) 0.5132(6) 0.6472(5)
C3 C 0.5720(3) 0.4815(5) 0.7653(4)
H1 H 0.6035 0.6280 0.8328
H2 H 0.7231 0.5206 0.6057
C4 C 0.6395(3) 0.4209(6) 0.6301(5)
N2 N 0.5833(2) 0.4030(4) 0.6911(4)
S1 S 0.5000 0.46198(19) 0.85374(15)
H3 H 0.6491 0.3699 0.5752
Ag2 Ag 0.5000 0.2500 0.65739(7)
Ag3 Ag 0.5000 0.2500 0.89404(8)
O1 O 0.3935(4) 0.2500 1.0034(7)
Cl1 Cl 0.32597(12) 0.2500 0.95997(18)
O2 O 0.3220(8) 0.3737(10) 0.9466(13)
O3 O 0.2739(5) 0.2500 1.0326(7)
N1K N 0.3292(2) 0.5917(4) 0.7209(4)
C1K C 0.3856(3) 0.5749(5) 0.7801(5)
C2K C 0.3167(3) 0.5132(6) 0.6472(5)
C3K C 0.4280(3) 0.4815(5) 0.7653(4)
H1K H 0.3965 0.6280 0.8328
H2K H 0.2769 0.5206 0.6057
C4K C 0.3605(3) 0.4209(6) 0.6301(5)
N2K N 0.4167(2) 0.4030(4) 0.6911(4)
H3K H 0.3509 0.3699 0.5752
O2J O 0.3220(8) 0.1263(10) 0.9466(13)
N1A N 0.3292(2) -0.0917(4) 0.7209(4)
C1A C 0.3856(3) -0.0749(5) 0.7801(5)
C2A C 0.3167(3) -0.0132(6) 0.6472(5)
C3A C 0.4280(3) 0.0185(5) 0.7653(4)
H1A H 0.3965 -0.1280 0.8328
H2A H 0.2769 -0.0206 0.6057
C4A C 0.3605(3) 0.0791(6) 0.6301(5)
N2A N 0.4167(2) 0.0970(4) 0.6911(4)
S1A S 0.5000 0.03802(19) 0.85374(15)
H3A H 0.3509 0.1301 0.5752
O1A O 0.6065(4) 0.2500 1.0034(7)
Cl1A Cl 0.67403(12) 0.2500 0.95997(18)
O2A O 0.6780(8) 0.1263(10) 0.9466(13)
O3A O 0.7261(5) 0.2500 1.0326(7)
N1J N 0.6708(2) -0.0917(4) 0.7209(4)
C1J C 0.6144(3) -0.0749(5) 0.7801(5)
C2J C 0.6833(3) -0.0132(6) 0.6472(5)
C3J C 0.5720(3) 0.0185(5) 0.7653(4)
H1J H 0.6035 -0.1280 0.8328
H2J H 0.7231 -0.0206 0.6057
C4J C 0.6395(3) 0.0791(6) 0.6301(5)
N2J N 0.5833(2) 0.0970(4) 0.6911(4)
H3J H 0.6491 0.1301 0.5752
O2K O 0.6780(8) 0.3737(10) 0.9466(13)
Ag1_2 Ag 0.7500 -0.2500 0.7500
Ag1A Ag 0.2500 -0.2500 0.7500
Ag1A_2 Ag 0.2500 0.7500 0.7500
N1F N 0.8292(2) 0.5917(4) 0.7791(4)
N1J_2 N 0.6708(2) 0.9083(4) 0.7209(4)
N1L N 0.8292(2) 0.9083(4) 0.7791(4)
O7? O 0.3160(8) 0.2500 0.8553(7)
loop_
_geom_bond_atom_site_label_1
_geom_bond_atom_site_label_2
_geom_bond_site_symmetry_1
_geom_bond_site_symmetry_2
Ag1 N1 1_555 1_555
N1 C1 1_555 1_555
C1 C3 1_555 1_555
C2 N1 1_555 1_555
C3 N2 1_555 1_555
H1 C1 1_555 1_555
H2 C2 1_555 1_555
C4 C2 1_555 1_555
N2 C4 1_555 1_555
S1 C3 1_555 1_555
H3 C4 1_555 1_555
Ag2 N2 1_555 1_555
Ag3 S1 1_555 1_555
O1 Ag3 1_555 1_555
Cl1 O1 1_555 1_555
O2 Cl1 1_555 1_555
O3 Cl1 1_555 1_555
Cl2 O4 1_555 1_555
O4 Cl2A 1_555 1_555
O5 Cl2 1_555 1_555
O6 Cl2 1_555 1_555
N1K C1K 1_555 1_555
C1K C3K 1_555 1_555
C2K N1K 1_555 1_555
C3K S1 1_555 1_555
H1K C1K 1_555 1_555
H2K C2K 1_555 1_555
C4K C2K 1_555 1_555
N2K Ag2 1_555 1_555
H3K C4K 1_555 1_555
O2J Cl1 1_555 1_555
N1A C1A 1_555 1_555
C1A C3A 1_555 1_555
C2A N1A 1_555 1_555
C3A N2A 1_555 1_555
H1A C1A 1_555 1_555
H2A C2A 1_555 1_555
C4A C2A 1_555 1_555
N2A Ag2 1_555 1_555
S1A Ag3 1_555 1_555
H3A C4A 1_555 1_555
O1A Ag3 1_555 1_555
Cl1A O1A 1_555 1_555
O2A Cl1A 1_555 1_555
O3A Cl1A 1_555 1_555
N1J C1J 1_555 1_555
C1J C3J 1_555 1_555
C2J N1J 1_555 1_555
C3J S1A 1_555 1_555
H1J C1J 1_555 1_555
H2J C2J 1_555 1_555
C4J C2J 1_555 1_555
N2J Ag2 1_555 1_555
H3J C4J 1_555 1_555
O2K Cl1A 1_555 1_555
Ag1_2 N1J 1_555 1_555
Ag1A N1A 1_555 1_555
Ag1A_2 N1K 1_555 1_555
N1F Ag1 1_555 1_555
N1J_2 Ag1 1_555 1_555
N1L Ag1 1_555 1_555
Cl2A O5 1_555 1_555
O5A Cl2 1_555 1_555
O6A Cl2 1_555 1_555
O6 Cl2A 1_555 1_555
C3K N2K 1_555 1_555
C4K N2K 1_555 1_555
C3A S1A 1_555 1_555
C4A N2A 1_555 1_555
C3J N2J 1_555 1_555
C4J N2J 1_555 1_555
Cl2A O5A 1_555 1_555
Cl2A O6A 1_555 1_555

#END
