
#######################################################################
#
#                 Cambridge Crystallographic Data Centre
#                                CCDC 
#
#######################################################################
#
# If this CIF has been generated from an entry in the Cambridge 
# Structural Database, then it will include bibliographic, chemical, 
# crystal, experimental, refinement or atomic coordinate data resulting 
# from the CCDC's data processing and validation procedures.
#
#######################################################################

data_LIWYUM
_symmetry_cell_setting           monoclinic
_symmetry_space_group_name_H-M   'P 21'
_symmetry_Int_Tables_number      4
_space_group_name_Hall           'P 2yb'
loop_
_symmetry_equiv_pos_site_id
_symmetry_equiv_pos_as_xyz
1 x,y,z
2 -x,1/2+y,-z
_cell_length_a                   5.8237(4)
_cell_length_b                   6.9339(5)
_cell_length_c                   14.7231(11)
_cell_angle_alpha                90
_cell_angle_beta                 93.588(3)
_cell_angle_gamma                90
_cell_volume                     593.367
loop_
_atom_site_label
_atom_site_type_symbol
_atom_site_fract_x
_atom_site_fract_y
_atom_site_fract_z
Ca1 Ca 0.09987(15) 0.75793(17) 0.56438(6)
C1 C 0.9098(9) 0.8302(8) 0.9307(3)
H1 H 1.0483 0.8769 0.9568
C2 C 0.8722(9) 0.8324(8) 0.8366(3)
H2 H 0.9851 0.8810 0.8009
C3 C 0.6685(7) 0.7630(11) 0.7955(3)
C4 C 0.5039(9) 0.6905(8) 0.8509(4)
H3 H 0.3660 0.6429 0.8245
C5 C 0.5422(9) 0.6881(8) 0.9441(3)
H4 H 0.4299 0.6373 0.9794
C6 C 0.7456(7) 0.7599(10) 0.9871(3)
C7 C 0.7838(7) 0.7607(11) 1.0879(3)
C8 C 0.6201(9) 0.6843(8) 1.1432(3)
H5 H 0.4855 0.6320 1.1162
C9 C 0.6535(9) 0.6845(8) 1.2378(3)
H6 H 0.5434 0.6297 1.2729
C10 C 0.8499(7) 0.7659(10) 1.2796(3)
C11 C 1.0138(9) 0.8433(8) 1.2255(3)
H7 H 1.1466 0.8983 1.2526
C12 C 0.9813(9) 0.8392(9) 1.1320(4)
H8 H 1.0945 0.8904 1.0972
C13 C 0.6180(8) 0.7728(10) 0.6938(3)
C14 C 0.8884(7) 0.7655(10) 1.3809(3)
O1 O 0.4166(5) 0.7455(8) 0.6636(2)
O2 O 0.7805(6) 0.8209(5) 0.6445(2)
O3 O 0.8496(6) 0.6154(6) 1.4265(2)
O4 O 0.9647(7) 0.9169(6) 1.4195(2)
O5 O 0.3709(6) 0.6385(7) 0.4623(3)
Ca1_2 Ca 1.09987(15) 0.75793(17) 0.56438(6)
Ca1_3 Ca 1.09987(15) 0.75793(17) 1.56438(6)
Ca1A Ca 0.90013(15) 0.25793(17) 1.43562(6)
Ca1A_2 Ca 0.90013(15) 1.25793(17) 1.43562(6)
O2_2 O -0.2195(6) 0.8209(5) 0.6445(2)
O3_2 O -0.1504(6) 0.6154(6) 0.4265(2)
O3A O 0.1504(6) 1.1154(6) 0.5735(2)
O4_2 O -0.0353(7) 0.9169(6) 0.4195(2)
O4A O 0.0353(7) 0.4169(6) 0.5805(2)
loop_
_geom_bond_atom_site_label_1
_geom_bond_atom_site_label_2
_geom_bond_site_symmetry_1
_geom_bond_site_symmetry_2
Ca1 O1 1_555 1_555
C1 H1 1_555 1_555
C2 C1 1_555 1_555
H2 C2 1_555 1_555
C3 C2 1_555 1_555
C4 C3 1_555 1_555
H3 C4 1_555 1_555
C5 C4 1_555 1_555
H4 C5 1_555 1_555
C6 C1 1_555 1_555
C7 C6 1_555 1_555
C8 C7 1_555 1_555
H5 C8 1_555 1_555
C9 C8 1_555 1_555
H6 C9 1_555 1_555
C10 C9 1_555 1_555
C11 C10 1_555 1_555
H7 C11 1_555 1_555
C12 C7 1_555 1_555
H8 C12 1_555 1_555
C13 C3 1_555 1_555
C14 C10 1_555 1_555
O1 C13 1_555 1_555
O2 C13 1_555 1_555
O3 C14 1_555 1_555
O4 C14 1_555 1_555
O5 Ca1 1_555 1_555
Ca1_2 O2 1_555 1_555
Ca1_3 O3 1_555 1_555
Ca1A O3 1_555 1_555
Ca1A_2 O4 1_555 1_555
O2_2 Ca1 1_555 1_555
O3_2 Ca1 1_555 1_555
O3A Ca1 1_555 1_555
O4_2 Ca1 1_555 1_555
O4A Ca1 1_555 1_555
C5 C6 1_555 1_555
C11 C12 1_555 1_555
O4 Ca1_3 1_555 1_555

#END
