
#######################################################################
#
#                 Cambridge Crystallographic Data Centre
#                                CCDC 
#
#######################################################################
#
# If this CIF has been generated from an entry in the Cambridge 
# Structural Database, then it will include bibliographic, chemical, 
# crystal, experimental, refinement or atomic coordinate data resulting 
# from the CCDC's data processing and validation procedures.
#
#######################################################################

data_LIWYEW
_symmetry_cell_setting           triclinic
_symmetry_space_group_name_H-M   'P -1'
_symmetry_Int_Tables_number      2
_space_group_name_Hall           '-P 1'
loop_
_symmetry_equiv_pos_site_id
_symmetry_equiv_pos_as_xyz
1 x,y,z
2 -x,-y,-z
_cell_length_a                   10.6390(4)
_cell_length_b                   11.3020(5)
_cell_length_c                   16.0970(6)
_cell_angle_alpha                95.6190(10)
_cell_angle_beta                 101.7810(10)
_cell_angle_gamma                100.5100(10)
_cell_volume                     1844.52
loop_
_atom_site_label
_atom_site_type_symbol
_atom_site_fract_x
_atom_site_fract_y
_atom_site_fract_z
Cd1 Cd -0.177191(15) -0.752543(14) 0.485981(10)
Cd2 Cd -0.036800(17) -0.422460(15) 0.710890(11)
C1 C -0.4694(3) -0.7228(3) 0.53210(18)
H1 H -0.4534 -0.6524 0.5070
C2 C -0.5888(3) -0.7547(3) 0.55500(18)
H2 H -0.6514 -0.7069 0.5456
C3 C -0.6119(3) -0.8586(3) 0.59177(17)
H3 H -0.6919 -0.8835 0.6063
C4 C -0.5155(3) -0.9266(3) 0.60721(16)
H4 H -0.5292 -0.9963 0.6332
C5 C -0.3975(2) -0.8885(2) 0.58299(14)
C6 C -0.2872(2) -0.9519(2) 0.59334(14)
C7 C -0.0955(3) -0.9849(2) 0.58513(16)
H5 H -0.0126 -0.9761 0.5732
C8 C -0.1498(3) -1.0736(2) 0.62568(16)
H6 H -0.1120 -1.1361 0.6462
C9 C -0.3545(3) -1.1279(2) 0.67711(16)
H7 H -0.4435 -1.1509 0.6426
H8 H -0.3222 -1.2018 0.6856
C10 C -0.3557(3) -1.0623(2) 0.76259(15)
C11 C -0.4593(3) -1.0978(3) 0.80114(19)
H9 H -0.5277 -1.1623 0.7741
C12 C -0.4610(4) -1.0370(3) 0.8804(2)
H10 H -0.5291 -1.0623 0.9069
C13 C -0.3608(4) -0.9384(3) 0.9198(2)
H11 H -0.3626 -0.8974 0.9724
C14 C -0.2586(3) -0.9013(2) 0.88121(16)
C15 C -0.2550(3) -0.9654(2) 0.80395(15)
H12 H -0.1839 -0.9430 0.7794
C16 C -0.1585(3) -0.7848(2) 0.91474(17)
H13 H -0.0708 -0.7991 0.9171
H14 H -0.1640 -0.7547 0.9722
C17 C -0.3074(3) -0.6992(3) 0.80324(18)
H15 H -0.3850 -0.7535 0.8021
C18 C -0.2917(3) -0.6104(3) 0.75366(17)
H16 H -0.3576 -0.5941 0.7114
C19 C -0.1018(2) -0.5999(2) 0.83708(14)
C20 C 0.0366(2) -0.5497(2) 0.87871(15)
C21 C 0.1021(3) -0.5761(2) 0.95681(16)
H17 H 0.0603 -0.6331 0.9855
C22 C 0.2306(3) -0.5159(3) 0.99060(18)
H18 H 0.2762 -0.5326 1.0424
C23 C 0.2906(3) -0.4317(3) 0.94782(19)
H19 H 0.3769 -0.3906 0.9699
C24 C 0.2195(3) -0.4091(2) 0.87080(18)
H20 H 0.2595 -0.3510 0.8420
C25 C 0.0239(3) -0.7955(2) 0.16545(16)
C26 C -0.1486(2) -0.8371(2) 0.30195(15)
C27 C -0.1510(2) -0.9308(2) 0.22623(14)
C28 C -0.0821(3) -0.9073(2) 0.16196(15)
C29 C -0.1047(3) -0.9956(2) 0.09075(16)
H21 H -0.0616 -0.9793 0.0471
C30 C -0.1888(3) -1.1062(2) 0.08309(16)
H22 H -0.2026 -1.1631 0.0346
C31 C -0.2523(2) -1.1322(2) 0.14761(15)
C32 C -0.2330(2) -1.0441(2) 0.21895(14)
H23 H -0.2759 -1.0617 0.2625
C33 C -0.3437(3) -1.2525(2) 0.13828(16)
C34 C -0.2133(2) -1.3107(2) 0.27177(14)
H24 H -0.1483 -1.2418 0.2755
C35 C -0.3272(2) -1.3311(2) 0.20702(15)
C36 C -0.4249(2) -1.4338(2) 0.20304(16)
H25 H -0.5014 -1.4488 0.1601
C37 C -0.4088(2) -1.5129(2) 0.26207(16)
H26 H -0.4756 -1.5799 0.2593
C38 C -0.2940(2) -1.49469(19) 0.32606(14)
C39 C -0.1953(2) -1.39193(19) 0.33114(14)
C40 C -0.2796(2) -1.5904(2) 0.38444(15)
C41 C -0.0644(2) -1.36139(19) 0.39538(14)
N1 N 0.0965(2) -0.46712(19) 0.83641(13)
N2 N -0.1649(2) -0.54865(19) 0.77490(13)
N3 N -0.1862(2) -0.69378(19) 0.85597(13)
N4 N -0.1812(2) -0.91024(18) 0.56458(13)
N5 N -0.2716(2) -1.05322(17) 0.63054(12)
N6 N -0.3760(2) -0.78882(18) 0.54454(13)
O1 O 0.09603(18) -0.74903(15) 0.23800(11)
O2 O 0.0368(3) -0.7602(2) 0.09673(13)
O3 O -0.1362(2) -0.72801(16) 0.29191(14)
O4 O -0.1672(2) -0.87880(17) 0.36920(11)
O5 O 0.02975(16) -1.40177(16) 0.37665(11)
O6 O -0.05257(16) -1.28637(15) 0.46077(10)
O7 O -0.18020(19) -1.56753(15) 0.44685(11)
O8 O -0.36213(19) -1.68646(17) 0.36914(13)
O9 O -0.4280(2) -1.2875(2) 0.07304(14)
O10 O -0.1658(2) -0.39876(18) 0.58327(12)
H27 H -0.137(4) -0.3383(18) 0.5557(18)
H28 H -0.173(4) -0.4628(16) 0.5450(16)
Cd1A Cd 0.177191(15) -1.247457(14) 0.514019(10)
Cd1_2 Cd -0.177191(15) -1.752543(14) 0.485981(10)
Cd2A Cd 0.036800(17) -0.577540(15) 0.289110(11)
Cd2A_2 Cd 0.036800(17) -1.577540(15) 0.289110(11)
O1A O -0.09603(18) -0.25097(15) 0.76200(11)
O3A O 0.1362(2) -0.27199(16) 0.70809(14)
O5A O -0.02975(16) -0.59823(16) 0.62335(11)
O6A O 0.05257(16) -0.71363(15) 0.53923(10)
O7_2 O -0.18020(19) -0.56753(15) 0.44685(11)
O8_2 O -0.36213(19) -0.68646(17) 0.36914(13)
O11 O 0.3230(4) 0.3264(4) 0.1412(4)
H29 H 0.238(2) 0.299(6) 0.143(5)
H30 H 0.351(6) 0.256(3) 0.139(5)
loop_
_geom_bond_atom_site_label_1
_geom_bond_atom_site_label_2
_geom_bond_site_symmetry_1
_geom_bond_site_symmetry_2
Cd1 N4 1_555 1_555
Cd2 N1 1_555 1_555
C1 H1 1_555 1_555
C2 C1 1_555 1_555
H2 C2 1_555 1_555
C3 C2 1_555 1_555
H3 C3 1_555 1_555
C4 C3 1_555 1_555
H4 C4 1_555 1_555
C5 C4 1_555 1_555
C6 C5 1_555 1_555
C7 H5 1_555 1_555
C8 C7 1_555 1_555
H6 C8 1_555 1_555
C9 H7 1_555 1_555
H8 C9 1_555 1_555
C10 C9 1_555 1_555
C11 C10 1_555 1_555
H9 C11 1_555 1_555
C12 C11 1_555 1_555
H10 C12 1_555 1_555
C13 C12 1_555 1_555
H11 C13 1_555 1_555
C14 C13 1_555 1_555
C15 C10 1_555 1_555
H12 C15 1_555 1_555
C16 C14 1_555 1_555
H13 C16 1_555 1_555
H14 C16 1_555 1_555
C17 H15 1_555 1_555
C18 C17 1_555 1_555
H16 C18 1_555 1_555
C19 C20 1_555 1_555
C20 C21 1_555 1_555
C21 H17 1_555 1_555
C22 C21 1_555 1_555
H18 C22 1_555 1_555
C23 C22 1_555 1_555
H19 C23 1_555 1_555
C24 C23 1_555 1_555
H20 C24 1_555 1_555
C25 C28 1_555 1_555
C26 C27 1_555 1_555
C27 C28 1_555 1_555
C28 C29 1_555 1_555
C29 H21 1_555 1_555
C30 C29 1_555 1_555
H22 C30 1_555 1_555
C31 C30 1_555 1_555
C32 C27 1_555 1_555
H23 C32 1_555 1_555
C33 C31 1_555 1_555
C34 H24 1_555 1_555
C35 C33 1_555 1_555
C36 C35 1_555 1_555
H25 C36 1_555 1_555
C37 C36 1_555 1_555
H26 C37 1_555 1_555
C38 C37 1_555 1_555
C39 C34 1_555 1_555
C40 C38 1_555 1_555
C41 C39 1_555 1_555
N1 C20 1_555 1_555
N2 Cd2 1_555 1_555
N3 C16 1_555 1_555
N4 C6 1_555 1_555
N5 C6 1_555 1_555
N6 Cd1 1_555 1_555
O1 C25 1_555 1_555
O2 C25 1_555 1_555
O3 C26 1_555 1_555
O4 Cd1 1_555 1_555
O5 C41 1_555 1_555
O6 C41 1_555 1_555
O7 C40 1_555 1_555
O8 C40 1_555 1_555
O9 C33 1_555 1_555
O10 Cd2 1_555 1_555
H27 O10 1_555 1_555
H28 O10 1_555 1_555
O11 H29 1_555 1_555
H30 O11 1_555 1_555
Cd1A O5 1_555 1_555
Cd1_2 O7 1_555 1_555
Cd2A O1 1_555 1_555
Cd2A_2 O5 1_555 1_555
O1A Cd2 1_555 1_555
O3A Cd2 1_555 1_555
O5A Cd1 1_555 1_555
O6A Cd1 1_555 1_555
O7_2 Cd1 1_555 1_555
O8_2 Cd1 1_555 1_555
Cd2 O5A 1_555 1_555
C1 N6 1_555 1_555
C5 N6 1_555 1_555
C7 N4 1_555 1_555
C8 N5 1_555 1_555
C9 N5 1_555 1_555
C14 C15 1_555 1_555
C17 N3 1_555 1_555
C18 N2 1_555 1_555
C19 N2 1_555 1_555
C19 N3 1_555 1_555
C24 N1 1_555 1_555
C26 O4 1_555 1_555
C31 C32 1_555 1_555
C34 C35 1_555 1_555
C38 C39 1_555 1_555
O3 Cd2A 1_555 1_555
O6 Cd1A 1_555 1_555
O8 Cd1_2 1_555 1_555

#END
