
#######################################################################
#
#                 Cambridge Crystallographic Data Centre
#                                CCDC 
#
#######################################################################
#
# If this CIF has been generated from an entry in the Cambridge 
# Structural Database, then it will include bibliographic, chemical, 
# crystal, experimental, refinement or atomic coordinate data resulting 
# from the CCDC's data processing and validation procedures.
#
#######################################################################

data_LIWYIA
_symmetry_cell_setting           monoclinic
_symmetry_space_group_name_H-M   'C 2/c'
_symmetry_Int_Tables_number      15
_space_group_name_Hall           '-C 2yn'
loop_
_symmetry_equiv_pos_site_id
_symmetry_equiv_pos_as_xyz
1 x,y,z
2 1/2+x,1/2+y,z
3 -x,y,1/2-z
4 1/2-x,1/2+y,1/2-z
5 -x,-y,-z
6 1/2-x,1/2-y,-z
7 x,-y,1/2+z
8 1/2+x,1/2-y,1/2+z
_cell_length_a                   26.0950(14)
_cell_length_b                   10.8960(6)
_cell_length_c                   23.9680(13)
_cell_angle_alpha                90
_cell_angle_beta                 119.2840(10)
_cell_angle_gamma                90
_cell_volume                     5943.95
loop_
_atom_site_label
_atom_site_type_symbol
_atom_site_fract_x
_atom_site_fract_y
_atom_site_fract_z
Cd1 Cd 0.184529(12) 0.22511(2) 0.639857(13)
C1 C 0.1651(2) 0.0153(4) 0.5267(2)
H1 H 0.1623 -0.0380 0.5554
C2 C 0.1688(3) -0.0333(4) 0.4756(2)
H2 H 0.1671 -0.1177 0.4692
C3 C 0.1751(2) 0.0446(4) 0.4344(2)
H3 H 0.1785 0.0136 0.4002
C4 C 0.17627(18) 0.1687(4) 0.44428(18)
H4 H 0.1809 0.2230 0.4171
C5 C 0.17042(16) 0.2123(3) 0.49510(17)
C6 C 0.17250(17) 0.3415(4) 0.51293(17)
C7 C 0.18700(19) 0.4993(4) 0.5732(2)
H5 H 0.1957 0.5471 0.6089
C8 C 0.17418(19) 0.5425(4) 0.5150(2)
H6 H 0.1721 0.6246 0.5034
C9 C 0.14479(17) 0.4465(3) 0.40721(17)
H7 H 0.1152 0.3836 0.3859
H8 H 0.1776 0.4282 0.4003
C10 C 0.11934(18) 0.5698(3) 0.37787(17)
C11 C 0.15305(19) 0.6462(4) 0.36260(19)
H9 H 0.1903 0.6209 0.3714
C12 C 0.1322(2) 0.7597(4) 0.3344(2)
H10 H 0.1549 0.8108 0.3242
C13 C 0.0774(2) 0.7945(4) 0.3221(2)
H11 H 0.0627 0.8702 0.3031
C14 C 0.04348(19) 0.7197(4) 0.33719(19)
H12 H 0.0063 0.7459 0.3282
C15 C 0.06356(17) 0.6062(3) 0.36557(18)
C16 C 0.02709(17) 0.5234(4) 0.3823(2)
H13 H 0.0244 0.4436 0.3630
H14 H 0.0471 0.5122 0.4283
C17 C -0.0792(2) 0.5409(4) 0.3030(2)
H15 H -0.0788 0.4904 0.2719
C18 C -0.12578(19) 0.6009(4) 0.2990(2)
H16 H -0.1636 0.5972 0.2642
C19 C -0.05258(17) 0.6465(4) 0.39082(18)
C20 C -0.01703(19) 0.6994(4) 0.4544(2)
N1 N 0.0320(2) 0.6495(7) 0.4923(3)
C21 C 0.0652(3) 0.6993(9) 0.5504(4)
H17 H 0.1024 0.6660 0.5755
C22 C 0.0509(3) 0.7861(7) 0.5739(3)
H18 H 0.0743 0.8105 0.6162
C23 C 0.0007(4) 0.8414(9) 0.5355(4)
H19 H -0.0112 0.9096 0.5495
C24 C 0.16637(17) 0.0440(3) 0.7129(2)
C25 C 0.20386(16) -0.2006(3) 0.79024(18)
C26 C 0.12584(16) -0.0412(3) 0.72384(17)
C27 C 0.14186(15) -0.1504(3) 0.75845(16)
C28 C 0.10008(15) -0.2161(3) 0.76424(16)
H20 H 0.1107 -0.2904 0.7861
C29 C 0.04268(15) -0.1766(3) 0.73897(17)
C30 C 0.02698(17) -0.0680(3) 0.70404(18)
H21 H -0.0114 -0.0392 0.6862
C31 C 0.06765(16) -0.0035(3) 0.69576(18)
H22 H 0.0561 0.0672 0.6708
C32 C 0.0000 -0.2486(5) 0.7500
N2 N 0.18507(14) 0.3746(3) 0.57114(14)
N3 N 0.16486(13) 0.4430(3) 0.47603(14)
N4 N 0.16543(14) 0.1358(3) 0.53631(15)
N5 N -0.03237(14) 0.5684(3) 0.36157(15)
N6 N -0.10989(14) 0.6683(3) 0.35328(15)
C33 C -0.0344(3) 0.7958(7) 0.4731(3)
H23 H -0.0697 0.8340 0.4454
O1 O 0.19576(13) 0.1189(2) 0.75428(15)
O2 O 0.16087(12) 0.0373(2) 0.65780(13)
O3 O 0.24089(11) -0.1509(2) 0.77893(11)
O4 O 0.21499(11) -0.2896(2) 0.82792(13)
O5 O 0.0000 -0.3607(3) 0.7500
Cd1D Cd -0.184529(12) 0.77489(2) 0.360143(13)
Cd1C Cd 0.315471(12) -0.27489(2) 0.860143(13)
Cd1A Cd -0.315471(12) -0.27489(2) 0.639857(13)
Cd1B Cd -0.184529(12) 0.22511(2) 0.860143(13)
C1D C -0.1651(2) 0.9847(4) 0.4733(2)
H1D H -0.1623 1.0380 0.4446
C2D C -0.1688(3) 1.0333(4) 0.5244(2)
H2D H -0.1671 1.1177 0.5308
C3D C -0.1751(2) 0.9554(4) 0.5656(2)
H3D H -0.1785 0.9864 0.5998
C4D C -0.17627(18) 0.8313(4) 0.55572(18)
H4D H -0.1809 0.7770 0.5829
C5D C -0.17042(16) 0.7877(3) 0.50490(17)
C6D C -0.17250(17) 0.6585(4) 0.48707(17)
C7D C -0.18700(19) 0.5007(4) 0.4268(2)
H5D H -0.1957 0.4529 0.3911
C8D C -0.17418(19) 0.4575(4) 0.4850(2)
H6D H -0.1721 0.3754 0.4966
C9D C -0.14479(17) 0.5535(3) 0.59279(17)
H7D H -0.1152 0.6164 0.6141
H8D H -0.1776 0.5718 0.5997
C10D C -0.11934(18) 0.4302(3) 0.62213(17)
C11D C -0.15305(19) 0.3538(4) 0.63740(19)
H9D H -0.1903 0.3791 0.6286
C12D C -0.1322(2) 0.2403(4) 0.6656(2)
H10D H -0.1549 0.1892 0.6758
C13D C -0.0774(2) 0.2055(4) 0.6779(2)
H11D H -0.0627 0.1298 0.6969
C14D C -0.04348(19) 0.2803(4) 0.66281(19)
H12D H -0.0063 0.2541 0.6718
C15D C -0.06356(17) 0.3938(3) 0.63443(18)
C16D C -0.02709(17) 0.4766(4) 0.6177(2)
H13D H -0.0244 0.5564 0.6370
H14D H -0.0471 0.4878 0.5717
C17D C 0.0792(2) 0.4591(4) 0.6970(2)
H15D H 0.0788 0.5096 0.7281
C18D C 0.12578(19) 0.3991(4) 0.7010(2)
H16D H 0.1636 0.4028 0.7358
C19D C 0.05258(17) 0.3535(4) 0.60918(18)
C20D C 0.01703(19) 0.3006(4) 0.5456(2)
N1D N -0.0320(2) 0.3505(7) 0.5077(3)
C21D C -0.0652(3) 0.3007(9) 0.4496(4)
H17D H -0.1024 0.3340 0.4245
C22D C -0.0509(3) 0.2139(7) 0.4261(3)
H18D H -0.0743 0.1895 0.3838
C23D C -0.0007(4) 0.1586(9) 0.4645(4)
H19D H 0.0112 0.0904 0.4505
C24B C -0.16637(17) 0.0440(3) 0.7871(2)
C25B C -0.20386(16) -0.2006(3) 0.70976(18)
C26B C -0.12584(16) -0.0412(3) 0.77616(17)
C27B C -0.14186(15) -0.1504(3) 0.74155(16)
C28B C -0.10008(15) -0.2161(3) 0.73576(16)
H20B H -0.1107 -0.2904 0.7139
C29B C -0.04268(15) -0.1766(3) 0.76103(17)
C30B C -0.02698(17) -0.0680(3) 0.79596(18)
H21B H 0.0114 -0.0392 0.8138
C31B C -0.06765(16) -0.0035(3) 0.80424(18)
H22B H -0.0561 0.0672 0.8292
N2D N -0.18507(14) 0.6254(3) 0.42886(14)
N3D N -0.16486(13) 0.5570(3) 0.52397(14)
N4D N -0.16543(14) 0.8642(3) 0.46369(15)
N5D N 0.03237(14) 0.4316(3) 0.63843(15)
N6D N 0.10989(14) 0.3317(3) 0.64672(15)
C33D C 0.0344(3) 0.2042(7) 0.5269(3)
H23D H 0.0697 0.1660 0.5546
O1B O -0.19576(13) 0.1189(2) 0.74572(15)
O2B O -0.16087(12) 0.0373(2) 0.84220(13)
O2D O -0.16087(12) 0.9627(2) 0.34220(13)
O3B O -0.24089(11) -0.1509(2) 0.72107(11)
O3C O 0.25911(11) 0.3491(2) 0.72107(11)
O3G O -0.25911(11) 0.6509(2) 0.27893(11)
O4B O -0.21499(11) -0.2896(2) 0.67208(13)
O4C O 0.28501(11) 0.2104(2) 0.67208(13)
O4G O -0.28501(11) 0.7896(2) 0.32792(13)
O6 O 0.28003(19) 0.2875(4) 0.85334(15)
H24 H 0.256(2) 0.240(4) 0.8240(17)
H25 H 0.292(2) 0.342(4) 0.837(2)
loop_
_geom_bond_atom_site_label_1
_geom_bond_atom_site_label_2
_geom_bond_site_symmetry_1
_geom_bond_site_symmetry_2
Cd1 N2 1_555 1_555
C1 H1 1_555 1_555
C2 C1 1_555 1_555
H2 C2 1_555 1_555
C3 C2 1_555 1_555
H3 C3 1_555 1_555
C4 C3 1_555 1_555
H4 C4 1_555 1_555
C5 C4 1_555 1_555
C6 C5 1_555 1_555
C7 H5 1_555 1_555
C8 C7 1_555 1_555
H6 C8 1_555 1_555
C9 H7 1_555 1_555
H8 C9 1_555 1_555
C10 C9 1_555 1_555
C11 C10 1_555 1_555
H9 C11 1_555 1_555
C12 C11 1_555 1_555
H10 C12 1_555 1_555
C13 C12 1_555 1_555
H11 C13 1_555 1_555
C14 C13 1_555 1_555
H12 C14 1_555 1_555
C15 C10 1_555 1_555
C16 C15 1_555 1_555
H13 C16 1_555 1_555
H14 C16 1_555 1_555
C17 H15 1_555 1_555
C18 C17 1_555 1_555
H16 C18 1_555 1_555
C19 C20 1_555 1_555
C20 N1 1_555 1_555
N1 C21 1_555 1_555
C21 H17 1_555 1_555
C22 C21 1_555 1_555
H18 C22 1_555 1_555
C23 C22 1_555 1_555
H19 C23 1_555 1_555
C24 C26 1_555 1_555
C25 C27 1_555 1_555
C26 C27 1_555 1_555
C27 C28 1_555 1_555
C28 H20 1_555 1_555
C29 C28 1_555 1_555
C30 C29 1_555 1_555
H21 C30 1_555 1_555
C31 C26 1_555 1_555
H22 C31 1_555 1_555
C32 C29 1_555 1_555
N2 C6 1_555 1_555
N3 C6 1_555 1_555
N4 Cd1 1_555 1_555
N5 C16 1_555 1_555
N6 C18 1_555 1_555
C33 C20 1_555 1_555
H23 C33 1_555 1_555
O1 C24 1_555 1_555
O2 Cd1 1_555 1_555
O3 C25 1_555 1_555
O4 C25 1_555 1_555
O5 C32 1_555 1_555
O6 H24 1_555 1_555
H25 O6 1_555 1_555
Cd1D N6 1_555 1_555
Cd1C O3 1_555 1_555
Cd1A O3B 1_555 1_555
Cd1B O2B 1_555 1_555
C1D H1D 1_555 1_555
C2D C1D 1_555 1_555
H2D C2D 1_555 1_555
C3D C2D 1_555 1_555
H3D C3D 1_555 1_555
C4D C3D 1_555 1_555
H4D C4D 1_555 1_555
C5D C4D 1_555 1_555
C6D C5D 1_555 1_555
C7D H5D 1_555 1_555
C8D C7D 1_555 1_555
H6D C8D 1_555 1_555
C9D H7D 1_555 1_555
H8D C9D 1_555 1_555
C10D C9D 1_555 1_555
C11D C10D 1_555 1_555
H9D C11D 1_555 1_555
C12D C11D 1_555 1_555
H10D C12D 1_555 1_555
C13D C12D 1_555 1_555
H11D C13D 1_555 1_555
C14D C13D 1_555 1_555
H12D C14D 1_555 1_555
C15D C10D 1_555 1_555
C16D C15D 1_555 1_555
H13D C16D 1_555 1_555
H14D C16D 1_555 1_555
C17D H15D 1_555 1_555
C18D C17D 1_555 1_555
H16D C18D 1_555 1_555
C19D C20D 1_555 1_555
C20D N1D 1_555 1_555
N1D C21D 1_555 1_555
C21D H17D 1_555 1_555
C22D C21D 1_555 1_555
H18D C22D 1_555 1_555
C23D C22D 1_555 1_555
H19D C23D 1_555 1_555
C24B C26B 1_555 1_555
C25B C27B 1_555 1_555
C26B C27B 1_555 1_555
C27B C28B 1_555 1_555
C28B H20B 1_555 1_555
C29B C32 1_555 1_555
C30B C29B 1_555 1_555
H21B C30B 1_555 1_555
C31B C26B 1_555 1_555
H22B C31B 1_555 1_555
N2D Cd1D 1_555 1_555
N3D C6D 1_555 1_555
N4D Cd1D 1_555 1_555
N5D C16D 1_555 1_555
N6D Cd1 1_555 1_555
C33D C20D 1_555 1_555
H23D C33D 1_555 1_555
O1B C24B 1_555 1_555
O2B C24B 1_555 1_555
O2D Cd1D 1_555 1_555
O3B C25B 1_555 1_555
O3C Cd1 1_555 1_555
O3G Cd1D 1_555 1_555
O4B Cd1A 1_555 1_555
O4C Cd1 1_555 1_555
O4G Cd1D 1_555 1_555
C1 N4 1_555 1_555
C5 N4 1_555 1_555
C7 N2 1_555 1_555
C8 N3 1_555 1_555
C9 N3 1_555 1_555
C14 C15 1_555 1_555
C17 N5 1_555 1_555
C19 N5 1_555 1_555
C19 N6 1_555 1_555
C23 C33 1_555 1_555
C24 O2 1_555 1_555
C30 C31 1_555 1_555
O4 Cd1C 1_555 1_555
C1D N4D 1_555 1_555
C5D N4D 1_555 1_555
C6D N2D 1_555 1_555
C7D N2D 1_555 1_555
C8D N3D 1_555 1_555
C9D N3D 1_555 1_555
C14D C15D 1_555 1_555
C17D N5D 1_555 1_555
C18D N6D 1_555 1_555
C19D N5D 1_555 1_555
C19D N6D 1_555 1_555
C23D C33D 1_555 1_555
C25B O4B 1_555 1_555
C28B C29B 1_555 1_555
C30B C31B 1_555 1_555

#END
