
#######################################################################
#
#                 Cambridge Crystallographic Data Centre
#                                CCDC 
#
#######################################################################
#
# If this CIF has been generated from an entry in the Cambridge 
# Structural Database, then it will include bibliographic, chemical, 
# crystal, experimental, refinement or atomic coordinate data resulting 
# from the CCDC's data processing and validation procedures.
#
#######################################################################

data_LIWZAT
_symmetry_cell_setting           orthorhombic
_symmetry_space_group_name_H-M   'I m a 2'
_symmetry_Int_Tables_number      46
_space_group_name_Hall           'I 2 -2a'
loop_
_symmetry_equiv_pos_site_id
_symmetry_equiv_pos_as_xyz
1 x,y,z
2 -x,-y,z
3 1/2+x,-y,z
4 1/2-x,y,z
5 1/2+x,1/2+y,1/2+z
6 1/2-x,1/2-y,1/2+z
7 x,1/2-y,1/2+z
8 -x,1/2+y,1/2+z
_cell_length_a                   6.5444(3)
_cell_length_b                   30.2468(13)
_cell_length_c                   7.2194(3)
_cell_angle_alpha                90
_cell_angle_beta                 90
_cell_angle_gamma                90
_cell_volume                     1429.06
loop_
_atom_site_label
_atom_site_type_symbol
_atom_site_fract_x
_atom_site_fract_y
_atom_site_fract_z
Ca1 Ca 0.7500 -0.02554(2) -0.0021(3)
O1 O 0.5836(3) 0.04753(7) 0.0685(5)
O2 O 0.5805(4) 0.42201(7) 0.0647(5)
O3 O 0.7500 -0.0512(2) 0.3150(9)
O4 O 0.7500 -0.08806(11) -0.2044(7)
O5 O 1.0000 0.0000 -0.2568(6)
C1 C 0.7500 0.06816(13) 0.0729(8)
C2 C 0.7500 0.11763(12) 0.0813(7)
C3 C 0.9286(6) 0.14060(11) 0.0816(11)
H1 H 1.0523 0.1254 0.0810
C4 C 0.9281(7) 0.18685(11) 0.0829(12)
H2 H 1.0520 0.2019 0.0846
C5 C 0.7500 0.21048(12) 0.0818(7)
C6 C 0.7500 0.25946(12) 0.0803(7)
C7 C 0.9260(6) 0.28298(11) 0.0789(11)
H3 H 1.0501 0.2681 0.0817
C8 C 0.9254(6) 0.32915(11) 0.0734(10)
H4 H 1.0494 0.3442 0.0713
C9 C 0.7500 0.35259(12) 0.0710(8)
C10 C 0.7500 0.40243(13) 0.0651(8)
Ca1A Ca 0.2500 0.02554(2) -0.0021(3)
Ca1A_2 Ca 1.2500 0.02554(2) -0.0021(3)
O1C O 0.9164(3) 0.04753(7) 0.0685(5)
O1A O 0.4164(3) -0.04753(7) 0.0685(5)
O1B O 1.0836(3) -0.04753(7) 0.0685(5)
O2C O 0.9195(4) 0.42201(7) 0.0647(5)
O5B O 0.5000 0.0000 -0.2568(6)
C3C C 0.5714(6) 0.14060(11) 0.0816(11)
H1C H 0.4477 0.1254 0.0810
C4C C 0.5719(7) 0.18685(11) 0.0829(12)
H2C H 0.4480 0.2019 0.0846
C7C C 0.5740(6) 0.28298(11) 0.0789(11)
H3C H 0.4499 0.2681 0.0817
C8C C 0.5746(6) 0.32915(11) 0.0734(10)
H4C H 0.4506 0.3442 0.0713
loop_
_geom_bond_atom_site_label_1
_geom_bond_atom_site_label_2
_geom_bond_site_symmetry_1
_geom_bond_site_symmetry_2
Ca1 O1 1_555 1_555
O1 C1 1_555 1_555
O2 C10 1_555 1_555
O3 Ca1 1_555 1_555
O4 Ca1 1_555 1_555
O5 Ca1 1_555 1_555
C1 C2 1_555 1_555
C2 C3 1_555 1_555
C3 H1 1_555 1_555
C4 C3 1_555 1_555
H2 C4 1_555 1_555
C5 C4 1_555 1_555
C6 C5 1_555 1_555
C7 C6 1_555 1_555
H3 C7 1_555 1_555
C8 C7 1_555 1_555
H4 C8 1_555 1_555
C9 C8 1_555 1_555
C10 C9 1_555 1_555
Ca1A O1 1_555 1_555
Ca1A_2 O5 1_555 1_555
O1C Ca1 1_555 1_555
O1A Ca1 1_555 1_555
O1B Ca1 1_555 1_555
O2C C10 1_555 1_555
O5B Ca1 1_555 1_555
C3C C2 1_555 1_555
H1C C3C 1_555 1_555
C4C C5 1_555 1_555
H2C C4C 1_555 1_555
C7C C6 1_555 1_555
H3C C7C 1_555 1_555
C8C C9 1_555 1_555
H4C C8C 1_555 1_555
C1 O1C 1_555 1_555
Ca1A O1A 1_555 1_555
Ca1A O5B 1_555 1_555
Ca1A_2 O1C 1_555 1_555
Ca1A_2 O1B 1_555 1_555
C3C C4C 1_555 1_555
C7C C8C 1_555 1_555

#END
