
#######################################################################
#
#                 Cambridge Crystallographic Data Centre
#                                CCDC 
#
#######################################################################
#
# If this CIF has been generated from an entry in the Cambridge 
# Structural Database, then it will include bibliographic, chemical, 
# crystal, experimental, refinement or atomic coordinate data resulting 
# from the CCDC's data processing and validation procedures.
#
#######################################################################

data_LIXDUS
_symmetry_cell_setting           triclinic
_symmetry_space_group_name_H-M   'P -1'
_symmetry_Int_Tables_number      2
_space_group_name_Hall           '-P 1'
loop_
_symmetry_equiv_pos_site_id
_symmetry_equiv_pos_as_xyz
1 x,y,z
2 -x,-y,-z
_cell_length_a                   9.0089(7)
_cell_length_b                   9.7974(9)
_cell_length_c                   12.5504(9)
_cell_angle_alpha                102.6980(10)
_cell_angle_beta                 103.1190(10)
_cell_angle_gamma                109.4130(10)
_cell_volume                     963.501
loop_
_atom_site_label
_atom_site_type_symbol
_atom_site_fract_x
_atom_site_fract_y
_atom_site_fract_z
Tb1 Tb 0.277851(16) 0.540197(14) -0.025953(11)
C1 C 0.4831(4) 0.7616(4) 0.3479(3)
C2 C 0.6341(4) 0.8875(4) 0.3922(3)
H1 H 0.6874 0.9238 0.3425
C3 C 0.7057(4) 0.9596(4) 0.5109(3)
C4 C 0.6270(5) 0.9056(4) 0.5849(3)
H2 H 0.6754 0.9534 0.6643
C5 C 0.4763(5) 0.7801(5) 0.5405(3)
C6 C 0.4050(5) 0.7069(4) 0.4223(3)
H3 H 0.3049 0.6211 0.3929
C7 C 0.4047(4) 0.6881(3) 0.2202(3)
C8 C 0.8634(5) 1.0998(4) 0.5588(3)
C9 C 0.1206(3) 0.9334(3) 0.0967(2)
C10 C 0.2585(4) 1.0325(3) 0.0804(3)
H4 H 0.3245 0.9945 0.0464
C11 C 0.2978(4) 1.1889(3) 0.1150(3)
C12 C 0.2020(4) 1.2455(3) 0.1689(3)
H5 H 0.2292 1.3501 0.1934
C13 C 0.0659(4) 1.1462(3) 0.1860(3)
C14 C 0.0235(4) 0.9899(3) 0.1493(3)
H6 H -0.0693 0.9235 0.1598
C15 C 0.0797(4) 0.7658(3) 0.0539(2)
C16 C 0.4376(4) 1.2911(3) 0.0878(2)
O1 O 0.4886(3) 0.7307(2) 0.15498(18)
O2 O 0.2604(3) 0.5848(2) 0.17718(18)
O3 O 0.9231(4) 1.1412(4) 0.4788(2)
H7 H 1.0052 1.2224 0.5091
O4 O 0.9288(3) 1.1701(3) 0.6609(2)
O5 O 0.3944(5) 0.7277(4) 0.6117(3)
H8 H 0.4211 0.6612 0.6290
O6 O 0.1807(3) 0.7278(2) 0.0146(2)
O7 O -0.0516(3) 0.6733(2) 0.0589(2)
O8 O 0.5666(3) 1.2644(2) 0.0946(2)
O9 O 0.4279(3) 1.4026(2) 0.05525(18)
O10 O -0.0232(3) 1.2105(3) 0.2393(2)
H9 H -0.1116 1.1433 0.2328
O11 O 0.0614(3) 0.5230(2) -0.2053(2)
O12 O 0.2582(3) 0.3642(3) -0.2009(2)
H10 H -0.0352 0.4658 -0.2088
H12 H 0.3212 0.3163 -0.1925
H14 H 0.0638 0.6120 -0.1998
H15 H 0.1628 0.3003 -0.2463
Tb1A Tb -0.277851(16) 0.459803(14) 0.025953(11)
Tb1A_2 Tb 0.722149(16) 1.459803(14) 0.025953(11)
Tb1_2 Tb 0.277851(16) 1.540197(14) -0.025953(11)
O7A O 0.0516(3) 0.3267(2) -0.0589(2)
O8A O 0.4334(3) 0.7356(2) -0.0946(2)
O9_2 O 0.4279(3) 0.4026(2) 0.05525(18)
O9A O 0.5721(3) 0.5974(2) -0.05525(18)
O13 O 0.1114(5) 0.4519(4) 0.5679(3)
H11 H 0.1841 0.4125 0.5740
H16 H 0.1054 0.4734 0.6361
O14 O 0.6466(3) 0.0566(3) 0.1907(3)
H13 H 0.6119 0.1134 0.1589
H17 H 0.5891 -0.0392 0.1628
loop_
_geom_bond_atom_site_label_1
_geom_bond_atom_site_label_2
_geom_bond_site_symmetry_1
_geom_bond_site_symmetry_2
Tb1 O1 1_555 1_555
C1 C2 1_555 1_555
C2 H1 1_555 1_555
C3 C2 1_555 1_555
C4 C3 1_555 1_555
H2 C4 1_555 1_555
C5 C4 1_555 1_555
C6 C1 1_555 1_555
H3 C6 1_555 1_555
C7 C1 1_555 1_555
C8 C3 1_555 1_555
C9 C10 1_555 1_555
C10 H4 1_555 1_555
C11 C10 1_555 1_555
C12 C11 1_555 1_555
H5 C12 1_555 1_555
C13 C12 1_555 1_555
C14 C9 1_555 1_555
H6 C14 1_555 1_555
C15 C9 1_555 1_555
C16 C11 1_555 1_555
O1 C7 1_555 1_555
O2 Tb1 1_555 1_555
O3 C8 1_555 1_555
H7 O3 1_555 1_555
O4 C8 1_555 1_555
O5 C5 1_555 1_555
H8 O5 1_555 1_555
O6 Tb1 1_555 1_555
O7 C15 1_555 1_555
O8 C16 1_555 1_555
O9 C16 1_555 1_555
O10 C13 1_555 1_555
H9 O10 1_555 1_555
O11 Tb1 1_555 1_555
O12 Tb1 1_555 1_555
O13 H11 1_555 1_555
O14 H13 1_555 1_555
H10 O11 1_555 1_555
H12 O12 1_555 1_555
H14 O11 1_555 1_555
H15 O12 1_555 1_555
H16 O13 1_555 1_555
H17 O14 1_555 1_555
Tb1A O7 1_555 1_555
Tb1A_2 O8 1_555 1_555
Tb1_2 O9 1_555 1_555
O7A Tb1 1_555 1_555
O8A Tb1 1_555 1_555
O9_2 Tb1 1_555 1_555
O9A Tb1 1_555 1_555
C5 C6 1_555 1_555
C7 O2 1_555 1_555
C13 C14 1_555 1_555
C15 O6 1_555 1_555
O9 Tb1A_2 1_555 1_555

#END
