
#######################################################################
#
#                 Cambridge Crystallographic Data Centre
#                                CCDC 
#
#######################################################################
#
# If this CIF has been generated from an entry in the Cambridge 
# Structural Database, then it will include bibliographic, chemical, 
# crystal, experimental, refinement or atomic coordinate data resulting 
# from the CCDC's data processing and validation procedures.
#
#######################################################################

data_LIXFAA
_symmetry_cell_setting           triclinic
_symmetry_space_group_name_H-M   'P -1'
_symmetry_Int_Tables_number      2
_space_group_name_Hall           '-P 1'
loop_
_symmetry_equiv_pos_site_id
_symmetry_equiv_pos_as_xyz
1 x,y,z
2 -x,-y,-z
_cell_length_a                   8.9767(8)
_cell_length_b                   9.7531(11)
_cell_length_c                   12.5276(11)
_cell_angle_alpha                102.7960(10)
_cell_angle_beta                 103.1610(10)
_cell_angle_gamma                109.4070(10)
_cell_volume                     953.134
loop_
_atom_site_label
_atom_site_type_symbol
_atom_site_fract_x
_atom_site_fract_y
_atom_site_fract_z
Er1 Er 0.777554(17) 1.040262(16) -0.025907(12)
C1 C 0.9034(5) 1.1868(4) 0.2179(3)
C2 C 0.9823(5) 1.2604(5) 0.3462(4)
C3 C 1.1345(5) 1.3861(5) 0.3906(4)
H1 H 1.1885 1.4213 0.3407
C4 C 1.2069(5) 1.4595(5) 0.5093(4)
C5 C 1.1279(6) 1.4061(6) 0.5839(4)
H2 H 1.1766 1.4546 0.6635
C6 C 0.9764(7) 1.2801(7) 0.5394(4)
C7 C 0.9040(6) 1.2065(6) 0.4209(4)
H3 H 0.8029 1.1209 0.3915
C8 C 1.3660(6) 1.6004(6) 0.5582(4)
C9 C 0.9363(5) 0.7926(4) 0.0862(3)
C10 C 0.7969(5) 0.6888(4) 0.1142(3)
C11 C 0.7585(5) 0.5322(4) 0.0795(3)
H4 H 0.8247 0.4943 0.0453
C12 C 0.6203(4) 0.4323(4) 0.0963(3)
C13 C 0.5231(4) 0.4890(4) 0.1494(3)
H5 H 0.4299 0.4222 0.1597
C14 C 0.5662(5) 0.6461(5) 0.1869(3)
C15 C 0.7016(5) 0.7456(5) 0.1689(3)
H6 H 0.7288 0.8507 0.1935
C16 C 0.5791(5) 0.2637(4) 0.0535(3)
O1 O 0.9874(3) 1.2291(3) 0.1529(2)
O2 O 0.7590(3) 1.0834(3) 0.1750(2)
O3 O 1.4264(5) 1.6411(5) 0.4777(3)
H7 H 1.5049 1.7255 0.5073
O4 O 1.4311(4) 1.6709(4) 0.6603(3)
O5 O 0.8928(7) 1.2293(6) 0.6109(4)
H8 H 0.9223 1.1656 0.6317
O6 O 0.9251(3) 0.9034(3) 0.0535(2)
O7 O 1.0672(3) 0.7670(3) 0.0932(3)
O8 O 0.6808(4) 0.2259(3) 0.0140(3)
O9 O 0.4473(3) 0.1699(3) 0.0587(3)
O10 O 0.4768(4) 0.7102(3) 0.2403(3)
H9 H 0.3897 0.6422 0.2356
O11 O 0.5636(4) 1.0224(3) -0.2043(3)
O12 O 0.7609(3) 0.8668(3) -0.1978(2)
H10 H 0.6621 0.8022 -0.2419
H12 H 0.5693 1.1132 -0.1988
H14 H 0.4721 0.9726 -0.1944
H16 H 0.8247 0.8209 -0.1900
Er1A Er 1.222446(17) 0.959738(16) 0.025907(12)
Er1_2 Er 0.777554(17) 0.040262(16) -0.025907(12)
Er1A_2 Er 0.222446(17) -0.040262(16) 0.025907(12)
O6A O 1.0749(3) 1.0966(3) -0.0535(2)
O7A O 0.9328(3) 1.2330(3) -0.0932(3)
O8_2 O 0.6808(4) 1.2259(3) 0.0140(3)
O9A O 0.5527(3) 0.8301(3) -0.0587(3)
O13 O 0.1444(4) 0.5575(4) 0.1908(4)
H11 H 0.0877 0.6055 0.1650
H17 H 0.0641 0.4729 0.1804
O14 O 0.6120(7) 0.9524(5) 0.5700(4)
H13 H 0.6987 1.0122 0.5613
H15 H 0.6816 0.9112 0.5679
loop_
_geom_bond_atom_site_label_1
_geom_bond_atom_site_label_2
_geom_bond_site_symmetry_1
_geom_bond_site_symmetry_2
Er1 O1 1_555 1_555
C1 C2 1_555 1_555
C2 C3 1_555 1_555
C3 H1 1_555 1_555
C4 C3 1_555 1_555
C5 C4 1_555 1_555
H2 C5 1_555 1_555
C6 C5 1_555 1_555
C7 C2 1_555 1_555
H3 C7 1_555 1_555
C8 C4 1_555 1_555
C9 C10 1_555 1_555
C10 C11 1_555 1_555
C11 H4 1_555 1_555
C12 C11 1_555 1_555
C13 C12 1_555 1_555
H5 C13 1_555 1_555
C14 C13 1_555 1_555
C15 C10 1_555 1_555
H6 C15 1_555 1_555
C16 C12 1_555 1_555
O1 C1 1_555 1_555
O2 Er1 1_555 1_555
O3 C8 1_555 1_555
H7 O3 1_555 1_555
O4 C8 1_555 1_555
O5 C6 1_555 1_555
H8 O5 1_555 1_555
O6 Er1 1_555 1_555
O7 C9 1_555 1_555
O8 C16 1_555 1_555
O9 C16 1_555 1_555
O10 C14 1_555 1_555
H9 O10 1_555 1_555
O11 Er1 1_555 1_555
O12 Er1 1_555 1_555
O13 H11 1_555 1_555
O14 H13 1_555 1_555
H10 O12 1_555 1_555
H12 O11 1_555 1_555
H14 O11 1_555 1_555
H15 O14 1_555 1_555
H16 O12 1_555 1_555
H17 O13 1_555 1_555
Er1A O6 1_555 1_555
Er1_2 O8 1_555 1_555
Er1A_2 O9 1_555 1_555
O6A Er1 1_555 1_555
O7A Er1 1_555 1_555
O8_2 Er1 1_555 1_555
O9A Er1 1_555 1_555
C1 O2 1_555 1_555
C6 C7 1_555 1_555
C9 O6 1_555 1_555
C14 C15 1_555 1_555
O7 Er1A 1_555 1_555
Er1A O6A 1_555 1_555

#END
