
#######################################################################
#
#                 Cambridge Crystallographic Data Centre
#                                CCDC 
#
#######################################################################
#
# If this CIF has been generated from an entry in the Cambridge 
# Structural Database, then it will include bibliographic, chemical, 
# crystal, experimental, refinement or atomic coordinate data resulting 
# from the CCDC's data processing and validation procedures.
#
#######################################################################

data_LIXFEE
_symmetry_cell_setting           tetragonal
_symmetry_space_group_name_H-M   'P 43 21 2'
_symmetry_Int_Tables_number      96
_space_group_name_Hall           'P 4nw 2abw'
loop_
_symmetry_equiv_pos_site_id
_symmetry_equiv_pos_as_xyz
1 x,y,z
2 -x,-y,1/2+z
3 1/2-y,1/2+x,3/4+z
4 1/2+y,1/2-x,1/4+z
5 1/2-x,1/2+y,3/4-z
6 1/2+x,1/2-y,1/4-z
7 y,x,-z
8 -y,-x,1/2-z
_cell_length_a                   10.585(4)
_cell_length_b                   10.585(4)
_cell_length_c                   20.310(9)
_cell_angle_alpha                90
_cell_angle_beta                 90
_cell_angle_gamma                90
_cell_volume                     2275.58
loop_
_atom_site_label
_atom_site_type_symbol
_atom_site_fract_x
_atom_site_fract_y
_atom_site_fract_z
Ni1 Ni 0.67274(6) 0.67274(6) 0.0000
N1 N 0.6710(5) 0.4815(4) 0.0300(2)
N2 N 0.7905(8) 0.4901(6) 0.2581(3)
N3 N 0.6675(4) -0.1343(4) 0.0156(2)
O1 O 0.6976(4) 0.6346(3) 0.10138(17)
C1 C 0.6970(5) 0.5176(5) 0.0927(3)
C2 C 0.7230(6) 0.4230(5) 0.1410(3)
C3 C 0.7103(6) 0.2961(5) 0.1233(3)
H1 H 0.7238 0.2336 0.1547
C4 C 0.6778(7) 0.2619(5) 0.0594(3)
C5 C 0.6600(5) 0.3596(4) 0.0125(2)
C6 C 0.7583(8) 0.4589(7) 0.2063(4)
C7 C 0.6049(6) -0.0851(6) 0.0659(3)
H2 H 0.5593 -0.1401 0.0926
C8 C 0.6024(6) 0.0422(5) 0.0817(3)
H3 H 0.5557 0.0716 0.1173
C9 C 0.6721(7) 0.1247(5) 0.0425(3)
C10 C 0.7338(6) 0.0755(5) -0.0103(3)
H4 H 0.7780 0.1288 -0.0385
C11 C 0.7314(6) -0.0529(6) -0.0226(3)
H5 H 0.7756 -0.0841 -0.0587
C12 C 0.6222(8) 0.3350(7) -0.0571(3)
H6 H 0.6153 0.4138 -0.0803
H7 H 0.5421 0.2925 -0.0579
H8 H 0.6847 0.2830 -0.0780
Ni1_2 Ni 0.67274(6) -0.32726(6) 0.0000
Ni1_3 Ni -0.32726(6) 0.67274(6) 0.0000
N1F N 0.4815(4) 0.6710(5) -0.0300(2)
N2F N 0.4901(6) 0.7905(8) -0.2581(3)
N3F N -0.1343(4) 0.6675(4) -0.0156(2)
N3_2 N 0.6675(4) 0.8657(4) 0.0156(2)
N3F_2 N 0.8657(4) 0.6675(4) -0.0156(2)
O1F O 0.6346(3) 0.6976(4) -0.10138(17)
C1F C 0.5176(5) 0.6970(5) -0.0927(3)
C2F C 0.4230(5) 0.7230(6) -0.1410(3)
C3F C 0.2961(5) 0.7103(6) -0.1233(3)
H1F H 0.2336 0.7238 -0.1547
C4F C 0.2619(5) 0.6778(7) -0.0594(3)
C5F C 0.3596(4) 0.6600(5) -0.0125(2)
C6F C 0.4589(7) 0.7583(8) -0.2063(4)
C7F C -0.0851(6) 0.6049(6) -0.0659(3)
H2F H -0.1401 0.5593 -0.0926
C8F C 0.0422(5) 0.6024(6) -0.0817(3)
H3F H 0.0716 0.5557 -0.1173
C9F C 0.1247(5) 0.6721(7) -0.0425(3)
C10F C 0.0755(5) 0.7338(6) 0.0103(3)
H4F H 0.1288 0.7780 0.0385
C11F C -0.0529(6) 0.7314(6) 0.0226(3)
H5F H -0.0841 0.7756 0.0587
C12F C 0.3350(7) 0.6222(8) 0.0571(3)
H6F H 0.4138 0.6153 0.0803
H7F H 0.2925 0.5421 0.0579
H8F H 0.2830 0.6847 0.0780
loop_
_geom_bond_atom_site_label_1
_geom_bond_atom_site_label_2
_geom_bond_site_symmetry_1
_geom_bond_site_symmetry_2
Ni1 N1 1_555 1_555
N1 C1 1_555 1_555
N2 C6 1_555 1_555
N3 C7 1_555 1_555
O1 Ni1 1_555 1_555
C1 O1 1_555 1_555
C2 C1 1_555 1_555
C3 C2 1_555 1_555
H1 C3 1_555 1_555
C4 C3 1_555 1_555
C5 N1 1_555 1_555
C6 C2 1_555 1_555
C7 H2 1_555 1_555
C8 C7 1_555 1_555
H3 C8 1_555 1_555
C9 C4 1_555 1_555
C10 C9 1_555 1_555
H4 C10 1_555 1_555
C11 N3 1_555 1_555
H5 C11 1_555 1_555
C12 C5 1_555 1_555
H6 C12 1_555 1_555
H7 C12 1_555 1_555
H8 C12 1_555 1_555
Ni1_2 N3 1_555 1_555
Ni1_3 N3F 1_555 1_555
N1F Ni1 1_555 1_555
N2F C6F 1_555 1_555
N3F C7F 1_555 1_555
N3_2 Ni1 1_555 1_555
N3F_2 Ni1 1_555 1_555
O1F Ni1 1_555 1_555
C1F N1F 1_555 1_555
C2F C1F 1_555 1_555
C3F C2F 1_555 1_555
H1F C3F 1_555 1_555
C4F C3F 1_555 1_555
C5F N1F 1_555 1_555
C6F C2F 1_555 1_555
C7F H2F 1_555 1_555
C8F C7F 1_555 1_555
H3F C8F 1_555 1_555
C9F C4F 1_555 1_555
C10F C9F 1_555 1_555
H4F C10F 1_555 1_555
C11F N3F 1_555 1_555
H5F C11F 1_555 1_555
C12F C5F 1_555 1_555
H6F C12F 1_555 1_555
H7F C12F 1_555 1_555
H8F C12F 1_555 1_555
C4 C5 1_555 1_555
C8 C9 1_555 1_555
C10 C11 1_555 1_555
O1F C1F 1_555 1_555
C4F C5F 1_555 1_555
C8F C9F 1_555 1_555
C10F C11F 1_555 1_555

#END
