
#######################################################################
#
#                 Cambridge Crystallographic Data Centre
#                                CCDC 
#
#######################################################################
#
# If this CIF has been generated from an entry in the Cambridge 
# Structural Database, then it will include bibliographic, chemical, 
# crystal, experimental, refinement or atomic coordinate data resulting 
# from the CCDC's data processing and validation procedures.
#
#######################################################################

data_LIXTUJ
_symmetry_cell_setting           monoclinic
_symmetry_space_group_name_H-M   'P 21/c'
_symmetry_Int_Tables_number      14
_space_group_name_Hall           '-P 2ybc'
loop_
_symmetry_equiv_pos_site_id
_symmetry_equiv_pos_as_xyz
1 x,y,z
2 -x,1/2+y,1/2-z
3 -x,-y,-z
4 x,1/2-y,1/2+z
_cell_length_a                   12.917(5)
_cell_length_b                   9.807(5)
_cell_length_c                   16.233(5)
_cell_angle_alpha                90
_cell_angle_beta                 94.583(5)
_cell_angle_gamma                90
_cell_volume                     2049.77
loop_
_atom_site_label
_atom_site_type_symbol
_atom_site_fract_x
_atom_site_fract_y
_atom_site_fract_z
Zn1 Zn 0.73904(3) 0.49811(4) 0.15477(2)
O1 O 0.6777(2) 0.6199(3) 0.28092(15)
O2 O 0.78484(18) 0.4531(3) 0.27368(14)
O3 O 0.8697(2) 0.7679(3) 0.63537(18)
O4 O 0.71354(18) 0.8375(2) 0.59058(14)
N1 N 0.4506(2) 0.3234(3) 0.18053(16)
H1 H 0.4117 0.2635 0.2013
N2 N 0.5909(2) 0.4264(3) 0.14596(16)
N3 N 0.1675(2) 0.6448(3) -0.10863(16)
N4 N 0.0595(2) 0.8177(3) -0.11613(18)
H2 H 0.0228 0.8848 -0.1362
C1 C 0.3063(2) 0.4767(3) 0.12653(19)
C2 C 0.2715(2) 0.5497(3) 0.05645(19)
H3 H 0.3184 0.5752 0.0187
C3 C 0.1671(2) 0.5853(3) 0.04191(19)
C4 C 0.0983(3) 0.5484(4) 0.0997(2)
H4 H 0.0287 0.5727 0.0915
C5 C 0.1334(3) 0.4755(4) 0.1693(2)
H5 H 0.0869 0.4506 0.2075
C6 C 0.2360(3) 0.4392(4) 0.1829(2)
H6 H 0.2584 0.3896 0.2298
C7 C 0.5540(3) 0.3194(3) 0.1827(2)
H7 H 0.5947 0.2499 0.2070
C8 C 0.5048(2) 0.5021(3) 0.1190(2)
H8 H 0.5069 0.5844 0.0906
C9 C 0.4169(2) 0.4399(3) 0.13946(18)
C10 C 0.1225(3) 0.7399(3) -0.1569(2)
H9 H 0.1335 0.7510 -0.2124
C11 C 0.0637(3) 0.7715(4) -0.0364(2)
H10 H 0.0274 0.8061 0.0062
C12 C 0.1315(2) 0.6648(3) -0.0318(2)
C13 C 0.7372(3) 0.5092(4) 0.4082(2)
H11 H 0.7954 0.4469 0.4219
C14 C 0.7605(3) 0.6391(4) 0.45673(19)
H12 H 0.7079 0.7066 0.4405
H13 H 0.8271 0.6748 0.4432
C15 C 0.7630(3) 0.6160(3) 0.5500(2)
H14 H 0.8201 0.5531 0.5656
C16 C 0.6629(3) 0.5494(4) 0.5720(2)
H15 H 0.6057 0.6121 0.5598
H16 H 0.6675 0.5307 0.6309
C17 C 0.6406(3) 0.4165(4) 0.5247(2)
H17 H 0.6926 0.3490 0.5425
H18 H 0.5732 0.3817 0.5368
C18 C 0.6420(3) 0.4396(4) 0.4323(2)
H19 H 0.6358 0.3522 0.4044
H20 H 0.5820 0.4939 0.4134
C19 C 0.7316(3) 0.5311(4) 0.3158(2)
C20 C 0.7853(3) 0.7487(3) 0.59517(19)
Zn1B Zn 0.26096(3) 0.50189(4) -0.15477(2)
Zn1C Zn 0.73904(3) 1.00189(4) 0.65477(2)
O4C O 0.71354(18) 0.6625(2) 0.09058(14)
N3B N 0.8325(2) 0.3552(3) 0.10863(16)
O5 O 0.01464(18) 0.9296(3) 0.14995(15)
H21 H -0.0297 0.8635 0.1508
H22 H 0.0737 0.9195 0.1749
loop_
_geom_bond_atom_site_label_1
_geom_bond_atom_site_label_2
_geom_bond_site_symmetry_1
_geom_bond_site_symmetry_2
Zn1 O1 1_555 1_555
O1 C19 1_555 1_555
O2 Zn1 1_555 1_555
O3 C20 1_555 1_555
O4 C20 1_555 1_555
N1 H1 1_555 1_555
N2 Zn1 1_555 1_555
N3 C10 1_555 1_555
N4 H2 1_555 1_555
C1 C2 1_555 1_555
C2 H3 1_555 1_555
C3 C2 1_555 1_555
C4 C3 1_555 1_555
H4 C4 1_555 1_555
C5 C4 1_555 1_555
H5 C5 1_555 1_555
C6 C1 1_555 1_555
H6 C6 1_555 1_555
C7 N1 1_555 1_555
H7 C7 1_555 1_555
C8 N2 1_555 1_555
H8 C8 1_555 1_555
C9 N1 1_555 1_555
C10 N4 1_555 1_555
H9 C10 1_555 1_555
C11 N4 1_555 1_555
H10 C11 1_555 1_555
C12 N3 1_555 1_555
C13 H11 1_555 1_555
C14 C13 1_555 1_555
H12 C14 1_555 1_555
H13 C14 1_555 1_555
C15 C14 1_555 1_555
H14 C15 1_555 1_555
C16 C15 1_555 1_555
H15 C16 1_555 1_555
H16 C16 1_555 1_555
C17 C16 1_555 1_555
H17 C17 1_555 1_555
H18 C17 1_555 1_555
C18 C13 1_555 1_555
H19 C18 1_555 1_555
H20 C18 1_555 1_555
C19 O2 1_555 1_555
C20 C15 1_555 1_555
O5 H21 1_555 1_555
H22 O5 1_555 1_555
Zn1B N3 1_555 1_555
Zn1C O4 1_555 1_555
O4C Zn1 1_555 1_555
N3B Zn1 1_555 1_555
N2 C7 1_555 1_555
C1 C9 1_555 1_555
C3 C12 1_555 1_555
C5 C6 1_555 1_555
C8 C9 1_555 1_555
C11 C12 1_555 1_555
C13 C19 1_555 1_555
C17 C18 1_555 1_555

#END
