
#######################################################################
#
#                 Cambridge Crystallographic Data Centre
#                                CCDC 
#
#######################################################################
#
# If this CIF has been generated from an entry in the Cambridge 
# Structural Database, then it will include bibliographic, chemical, 
# crystal, experimental, refinement or atomic coordinate data resulting 
# from the CCDC's data processing and validation procedures.
#
#######################################################################

data_LIXTOD
_symmetry_cell_setting           monoclinic
_symmetry_space_group_name_H-M   'P 2/c'
_symmetry_Int_Tables_number      13
_space_group_name_Hall           '-P 2yc'
loop_
_symmetry_equiv_pos_site_id
_symmetry_equiv_pos_as_xyz
1 x,y,z
2 -x,y,1/2-z
3 -x,-y,-z
4 x,-y,1/2+z
_cell_length_a                   11.009(4)
_cell_length_b                   9.284(4)
_cell_length_c                   23.109(7)
_cell_angle_alpha                90
_cell_angle_beta                 113.683(14)
_cell_angle_gamma                90
_cell_volume                     2163
loop_
_atom_site_label
_atom_site_type_symbol
_atom_site_fract_x
_atom_site_fract_y
_atom_site_fract_z
Zn1 Zn 0.30119(4) 0.13936(5) 0.315378(16)
C1 C 0.0501(3) -0.2332(4) -0.02201(13)
C2 C 0.1163(3) -0.1405(4) 0.02800(14)
H1 H 0.1884 -0.0881 0.0281
C3 C 0.0770(3) -0.1240(4) 0.07797(13)
C4 C -0.0332(3) -0.2020(4) 0.07687(15)
H2 H -0.0631 -0.1895 0.1089
C5 C -0.0965(3) -0.2964(5) 0.02863(16)
H3 H -0.1674 -0.3502 0.0291
C6 C -0.0568(3) -0.3132(4) -0.02120(16)
H4 H -0.1012 -0.3775 -0.0537
C7 C 0.1059(3) -0.3251(4) -0.16088(15)
H5 H 0.0916 -0.3814 -0.1963
C8 C 0.1790(3) -0.1624(4) -0.08905(14)
H6 H 0.2260 -0.0838 -0.0659
C9 C 0.0927(3) -0.2431(4) -0.07430(13)
C10 C 0.3000(4) 0.1269(4) 0.18850(16)
H7 H 0.3695 0.1927 0.2006
C11 C 0.1429(3) -0.0094(4) 0.18848(14)
H8 H 0.0830 -0.0554 0.2014
C12 C 0.1505(3) -0.0298(4) 0.13132(13)
C13 C 0.3938(4) 0.7059(4) 0.36725(17)
H9 H 0.3276 0.6325 0.3643
C14 C 0.4514(4) 0.6690(4) 0.31949(19)
H10 H 0.5147 0.7426 0.3204
H11 H 0.3809 0.6679 0.2774
C15 C 0.5207(4) 0.5218(4) 0.33339(19)
H12 H 0.5683 0.5127 0.3057
C16 C 0.6236(4) 0.5156(5) 0.4006(2)
H13 H 0.6600 0.4190 0.4092
H14 H 0.6955 0.5809 0.4048
C17 C 0.5707(5) 0.5541(6) 0.4482(2)
H15 H 0.6428 0.5554 0.4898
H16 H 0.5077 0.4812 0.4483
C18 C 0.5015(5) 0.7031(5) 0.43460(18)
H17 H 0.4620 0.7216 0.4646
H18 H 0.5663 0.7780 0.4394
C19 C 0.3232(4) 0.8517(4) 0.35047(16)
C20 C 0.4202(4) 0.3944(4) 0.31718(17)
N1 N 0.0471(3) -0.3463(3) -0.12109(12)
H19 H -0.0094 -0.4129 -0.1241
N2 N 0.1868(3) -0.2141(3) -0.14340(12)
N3 N 0.2517(3) 0.0589(3) 0.13318(12)
H20 H 0.2793 0.0690 0.1035
N4 N 0.2367(3) 0.0886(3) 0.22394(12)
O1 O 0.2014(3) 0.8565(3) 0.32327(12)
O2 O 0.3954(2) 0.9662(3) 0.36327(12)
O3 O 0.3067(3) 0.4090(3) 0.27657(13)
O4 O 0.4601(2) 0.2712(3) 0.34290(12)
Zn1_2 Zn 0.30119(4) 1.13936(5) 0.315378(16)
Zn1C Zn 0.30119(4) -0.13936(5) -0.184622(16)
N2C N 0.1868(3) 0.2141(3) 0.35660(12)
O2_2 O 0.3954(2) -0.0338(3) 0.36327(12)
H21 H 0.608(7) 0.173(8) 0.446(3)
H22 H 0.565(5) 0.038(6) 0.436(2)
O5 O 0.6212(3) 0.0915(6) 0.45326(15)
H23 H 0.110(8) 0.608(9) 0.183(4)
H24 H 0.196(5) 0.510(5) 0.200(2)
O6 O 0.1475(4) 0.5512(4) 0.17110(17)
H25 H 0.944(4) 0.711(5) 0.229(2)
O7 O 1.0000 0.6671(6) 0.2500
H25A H 1.056(4) 0.711(5) 0.271(2)
loop_
_geom_bond_atom_site_label_1
_geom_bond_atom_site_label_2
_geom_bond_site_symmetry_1
_geom_bond_site_symmetry_2
Zn1 N4 1_555 1_555
C1 C2 1_555 1_555
C2 H1 1_555 1_555
C3 C2 1_555 1_555
C4 C3 1_555 1_555
H2 C4 1_555 1_555
C5 C4 1_555 1_555
H3 C5 1_555 1_555
C6 C1 1_555 1_555
H4 C6 1_555 1_555
C7 H5 1_555 1_555
C8 H6 1_555 1_555
C9 C1 1_555 1_555
C10 H7 1_555 1_555
C11 H8 1_555 1_555
C12 C3 1_555 1_555
C13 H9 1_555 1_555
C14 C13 1_555 1_555
H10 C14 1_555 1_555
H11 C14 1_555 1_555
C15 C14 1_555 1_555
H12 C15 1_555 1_555
C16 C15 1_555 1_555
H13 C16 1_555 1_555
H14 C16 1_555 1_555
C17 C16 1_555 1_555
H15 C17 1_555 1_555
H16 C17 1_555 1_555
C18 C13 1_555 1_555
H17 C18 1_555 1_555
H18 C18 1_555 1_555
C19 C13 1_555 1_555
C20 C15 1_555 1_555
N1 C7 1_555 1_555
H19 N1 1_555 1_555
N2 C7 1_555 1_555
N3 C10 1_555 1_555
H20 N3 1_555 1_555
N4 C10 1_555 1_555
O1 C19 1_555 1_555
O2 C19 1_555 1_555
O3 C20 1_555 1_555
O4 Zn1 1_555 1_555
H21 O5 1_555 1_555
H22 O5 1_555 1_555
H23 O6 1_555 1_555
H24 O6 1_555 1_555
H25 O7 1_555 1_555
O7 H25A 1_555 1_555
Zn1_2 O2 1_555 1_555
Zn1C N2 1_555 1_555
N2C Zn1 1_555 1_555
O2_2 Zn1 1_555 1_555
C5 C6 1_555 1_555
C8 C9 1_555 1_555
C8 N2 1_555 1_555
C9 N1 1_555 1_555
C11 C12 1_555 1_555
C11 N4 1_555 1_555
C12 N3 1_555 1_555
C17 C18 1_555 1_555
C20 O4 1_555 1_555

#END
