
#######################################################################
#
#                 Cambridge Crystallographic Data Centre
#                                CCDC 
#
#######################################################################
#
# If this CIF has been generated from an entry in the Cambridge 
# Structural Database, then it will include bibliographic, chemical, 
# crystal, experimental, refinement or atomic coordinate data resulting 
# from the CCDC's data processing and validation procedures.
#
#######################################################################

data_LIXTIX
_symmetry_cell_setting           monoclinic
_symmetry_space_group_name_H-M   'P 21/c'
_symmetry_Int_Tables_number      14
_space_group_name_Hall           '-P 2ybc'
loop_
_symmetry_equiv_pos_site_id
_symmetry_equiv_pos_as_xyz
1 x,y,z
2 -x,1/2+y,1/2-z
3 -x,-y,-z
4 x,1/2-y,1/2+z
_cell_length_a                   12.153(2)
_cell_length_b                   7.3694(13)
_cell_length_c                   24.546(4)
_cell_angle_alpha                90
_cell_angle_beta                 111.235(7)
_cell_angle_gamma                90
_cell_volume                     2049.09
loop_
_atom_site_label
_atom_site_type_symbol
_atom_site_fract_x
_atom_site_fract_y
_atom_site_fract_z
C1 C 0.6830(4) 0.5080(6) 0.49564(18)
C2 C 0.5782(4) 0.5864(6) 0.45966(19)
H1 H 0.5634 0.7067 0.4662
C3 C 0.4941(4) 0.4928(6) 0.41423(18)
C4 C 0.5177(4) 0.3132(6) 0.4042(2)
H2 H 0.4628 0.2464 0.3745
C5 C 0.6244(5) 0.2347(6) 0.4392(2)
H3 H 0.6410 0.1163 0.4316
C6 C 0.7060(4) 0.3286(7) 0.4847(2)
H4 H 0.7758 0.2726 0.5080
C7 C 0.9110(4) 0.6636(6) 0.6273(2)
H5 H 0.9802 0.6469 0.6595
C8 C 0.7528(4) 0.7784(6) 0.5665(2)
H6 H 0.6917 0.8595 0.5487
C9 C 0.7624(4) 0.6107(6) 0.54537(19)
C10 C 0.2105(4) 0.6259(6) 0.3101(2)
H7 H 0.1419 0.6042 0.2781
H8 H 0.3810 0.8381 0.4112
C11 C 0.3421(4) 0.7525(6) 0.3831(2)
C12 C 0.3848(4) 0.5826(6) 0.37844(18)
C13 C 0.7884(4) 0.8983(6) 0.8191(2)
H9 H 0.8423 0.9913 0.8427
C14 C 0.6633(5) 0.9530(7) 0.8146(3)
H10 H 0.6663 0.9922 0.8528
H11 H 0.6383 1.0561 0.7884
C15 C 0.5713(5) 0.8049(8) 0.7929(3)
H12 H 0.5582 0.7780 0.7524
H13 H 0.4973 0.8468 0.7951
C16 C 0.6106(5) 0.6330(8) 0.8294(2)
H14 H 0.6169 0.6571 0.8693
H15 H 0.5520 0.5386 0.8137
C17 C 0.7290(4) 0.5686(6) 0.8291(2)
H16 H 0.7217 0.5392 0.7894
H17 H 0.7526 0.4594 0.8525
C18 C 0.8234(4) 0.7148(6) 0.8535(2)
H18 H 0.8294 0.7387 0.8937
C19 C 0.8028(4) 0.8947(5) 0.75974(19)
C20 C 0.9452(4) 0.6560(6) 0.8560(2)
N1 N 0.8658(3) 0.5412(5) 0.58505(17)
H19 H 0.8996 0.4285 0.5866
N2 N 0.8453(3) 0.8116(5) 0.61759(16)
N3 N 0.2987(3) 0.5062(5) 0.33137(16)
H20 H 0.2907 0.3917 0.3209
N4 N 0.2332(3) 0.7780(5) 0.34022(16)
O1 O 0.8983(3) 0.9643(4) 0.75817(14)
O2 O 0.7230(3) 0.8362(4) 0.71544(14)
O3 O 0.9518(3) 0.5682(5) 0.81218(14)
O4 O 1.0339(3) 0.6995(5) 0.89848(15)
Zn1 Zn 0.88046(4) 1.01480(6) 0.67544(2)
N4B N 0.7668(3) 1.2220(5) 0.65978(16)
O3A O 1.0482(3) 1.0682(5) 0.68782(14)
Zn1A Zn 1.11954(4) 0.51480(6) 0.82456(2)
Zn1B Zn 0.11954(4) 0.98520(6) 0.32456(2)
loop_
_geom_bond_atom_site_label_1
_geom_bond_atom_site_label_2
_geom_bond_site_symmetry_1
_geom_bond_site_symmetry_2
C1 C2 1_555 1_555
C2 H1 1_555 1_555
C3 C2 1_555 1_555
C4 C3 1_555 1_555
H2 C4 1_555 1_555
C5 C4 1_555 1_555
H3 C5 1_555 1_555
C6 C1 1_555 1_555
H4 C6 1_555 1_555
C7 H5 1_555 1_555
C8 H6 1_555 1_555
C9 C1 1_555 1_555
C10 H7 1_555 1_555
H8 C11 1_555 1_555
C11 C12 1_555 1_555
C12 C3 1_555 1_555
C13 H9 1_555 1_555
C14 C13 1_555 1_555
H10 C14 1_555 1_555
H11 C14 1_555 1_555
C15 C14 1_555 1_555
H12 C15 1_555 1_555
H13 C15 1_555 1_555
C16 C15 1_555 1_555
H14 C16 1_555 1_555
H15 C16 1_555 1_555
C17 C16 1_555 1_555
H16 C17 1_555 1_555
H17 C17 1_555 1_555
C18 C13 1_555 1_555
H18 C18 1_555 1_555
C19 C13 1_555 1_555
C20 C18 1_555 1_555
N1 C7 1_555 1_555
H19 N1 1_555 1_555
N2 C7 1_555 1_555
N3 C10 1_555 1_555
H20 N3 1_555 1_555
N4 C10 1_555 1_555
O1 C19 1_555 1_555
O2 C19 1_555 1_555
O3 C20 1_555 1_555
O4 C20 1_555 1_555
Zn1 N2 1_555 1_555
N4B Zn1 1_555 1_555
O3A Zn1 1_555 1_555
Zn1A O3 1_555 1_555
Zn1B N4 1_555 1_555
C5 C6 1_555 1_555
C8 C9 1_555 1_555
C8 N2 1_555 1_555
C9 N1 1_555 1_555
C11 N4 1_555 1_555
C12 N3 1_555 1_555
C17 C18 1_555 1_555
O1 Zn1 1_555 1_555

#END
