
#######################################################################
#
#                 Cambridge Crystallographic Data Centre
#                                CCDC 
#
#######################################################################
#
# If this CIF has been generated from an entry in the Cambridge 
# Structural Database, then it will include bibliographic, chemical, 
# crystal, experimental, refinement or atomic coordinate data resulting 
# from the CCDC's data processing and validation procedures.
#
#######################################################################

data_LIXVOF
_symmetry_cell_setting           triclinic
_symmetry_space_group_name_H-M   'P -1'
_symmetry_Int_Tables_number      2
_space_group_name_Hall           '-P 1'
loop_
_symmetry_equiv_pos_site_id
_symmetry_equiv_pos_as_xyz
1 x,y,z
2 -x,-y,-z
_cell_length_a                   9.0312(9)
_cell_length_b                   9.5894(9)
_cell_length_c                   13.9946(13)
_cell_angle_alpha                96.457(2)
_cell_angle_beta                 94.134(2)
_cell_angle_gamma                97.748(2)
_cell_volume                     1188.61
loop_
_atom_site_label
_atom_site_type_symbol
_atom_site_fract_x
_atom_site_fract_y
_atom_site_fract_z
C1 C 1.2149(3) 0.9647(3) 0.48161(19)
C2 C 1.0911(3) 0.8609(3) 0.45685(19)
H1 H 1.0409 0.8532 0.3957
C3 C 1.0399(3) 0.7678(3) 0.52095(18)
C4 C 1.1172(3) 0.7800(3) 0.61184(19)
H2 H 1.0852 0.7193 0.6560
C5 C 1.2415(3) 0.8823(3) 0.6367(2)
H3 H 1.2933 0.8890 0.6973
C6 C 1.2895(3) 0.9741(3) 0.5730(2)
H4 H 1.3725 1.0430 0.5911
C7 C 1.2774(3) 1.1640(3) 0.2816(2)
H5 H 1.2535 1.1835 0.2192
C8 C 1.3832(3) 1.1735(3) 0.4241(2)
H6 H 1.4485 1.2024 0.4794
C9 C 1.2680(3) 1.0636(3) 0.41476(19)
C10 C 0.7298(3) 0.4864(3) 0.50651(19)
H7 H 0.6711 0.4158 0.5330
C11 C 0.8174(3) 0.6273(3) 0.40925(19)
H8 H 0.8291 0.6718 0.3540
C12 C 0.9076(3) 0.6614(3) 0.49284(18)
C13 C 0.5770(3) 0.2009(3) -0.20314(19)
H9 H 0.5998 0.1396 -0.2594
C14 C 0.7208(3) 0.2370(3) -0.1352(2)
H10 H 0.7609 0.1504 -0.1251
H11 H 0.7949 0.2971 -0.1647
C15 C 0.6918(3) 0.3131(3) -0.0380(2)
H12 H 0.6554 0.4016 -0.0476
H13 H 0.7847 0.3348 0.0035
C16 C 0.5757(3) 0.2197(3) 0.01017(18)
H14 H 0.6145 0.1304 0.0174
C17 C 0.4308(3) 0.1848(3) -0.05486(19)
H15 H 0.3883 0.2714 -0.0612
H16 H 0.3595 0.1217 -0.0253
C18 C 0.4541(3) 0.1147(3) -0.1550(2)
H17 H 0.3606 0.1031 -0.1956
H18 H 0.4809 0.0211 -0.1496
C19 C 0.5294(3) 0.3328(3) -0.23968(18)
C20 C 0.5553(3) 0.2890(3) 0.11053(19)
Cd1 Cd 0.53969(2) 0.41736(2) 0.293936(14)
N1 N 1.2030(2) 1.0604(2) 0.32242(16)
H19 H 1.1271 1.0015 0.2957
N2 N 1.3890(2) 1.2355(2) 0.34027(17)
N3 N 0.8493(2) 0.5695(2) 0.55342(15)
H20 H 0.8840 0.5660 0.6118
N4 N 0.7056(2) 0.5170(2) 0.41808(15)
O1 O 0.6206(2) 0.4067(2) -0.28493(14)
O2 O 0.4032(2) 0.3667(2) -0.22504(14)
O3 O 0.4324(2) 0.3287(2) 0.12903(13)
O4 O 0.6645(2) 0.3043(2) 0.17483(13)
Cd1_2 Cd 1.53969(2) 1.41736(2) 0.293936(14)
Cd1A Cd 0.46031(2) 0.58264(2) -0.293936(14)
N2_2 N 0.3890(2) 0.2355(2) 0.34027(17)
O1A O 0.3794(2) 0.5933(2) 0.28493(14)
O2A O 0.5968(2) 0.6333(2) 0.22504(14)
H21 H 0.934(4) 0.964(4) 0.182(3)
H22 H 0.940(5) 0.841(4) 0.191(3)
O5 O 0.9584(3) 0.9118(4) 0.2169(2)
H23 H 0.854(4) 0.213(3) 0.148(4)
H24 H 0.961(4) 0.122(11) 0.089(3)
O6 O 0.9000(3) 0.1424(4) 0.1307(3)
H25 H 0.120(4) 0.338(4) 0.011(3)
H26 H 0.216(4) 0.317(4) 0.068(3)
O7 O 0.1338(3) 0.3222(3) 0.0598(2)
H27 H 0.203(5) 0.376(4) 0.839(3)
H28 H 0.087(4) 0.421(4) 0.840(3)
O8 O 0.1254(3) 0.3735(3) 0.8597(2)
H29 H 0.847(4) 0.492(4) 0.752(3)
H30 H 0.944(7) 0.599(7) 0.807(5)
O9 O 0.9168(3) 0.5265(3) 0.75372(19)
loop_
_geom_bond_atom_site_label_1
_geom_bond_atom_site_label_2
_geom_bond_site_symmetry_1
_geom_bond_site_symmetry_2
C1 C2 1_555 1_555
C2 H1 1_555 1_555
C3 C2 1_555 1_555
C4 C3 1_555 1_555
H2 C4 1_555 1_555
C5 C4 1_555 1_555
H3 C5 1_555 1_555
C6 C1 1_555 1_555
H4 C6 1_555 1_555
C7 H5 1_555 1_555
C8 H6 1_555 1_555
C9 C1 1_555 1_555
C10 H7 1_555 1_555
C11 H8 1_555 1_555
C12 C3 1_555 1_555
C13 H9 1_555 1_555
C14 C13 1_555 1_555
H10 C14 1_555 1_555
H11 C14 1_555 1_555
C15 C14 1_555 1_555
H12 C15 1_555 1_555
H13 C15 1_555 1_555
C16 C15 1_555 1_555
H14 C16 1_555 1_555
C17 C16 1_555 1_555
H15 C17 1_555 1_555
H16 C17 1_555 1_555
C18 C13 1_555 1_555
H17 C18 1_555 1_555
H18 C18 1_555 1_555
C19 C13 1_555 1_555
C20 C16 1_555 1_555
Cd1 N4 1_555 1_555
N1 C7 1_555 1_555
H19 N1 1_555 1_555
N2 C7 1_555 1_555
N3 C10 1_555 1_555
H20 N3 1_555 1_555
N4 C10 1_555 1_555
O1 C19 1_555 1_555
O2 C19 1_555 1_555
O3 C20 1_555 1_555
O4 C20 1_555 1_555
H21 O5 1_555 1_555
H22 O5 1_555 1_555
H23 O6 1_555 1_555
H24 O6 1_555 1_555
H25 O7 1_555 1_555
H26 O7 1_555 1_555
H27 O8 1_555 1_555
H28 O8 1_555 1_555
H29 O9 1_555 1_555
H30 O9 1_555 1_555
Cd1_2 N2 1_555 1_555
Cd1A O1 1_555 1_555
N2_2 Cd1 1_555 1_555
O1A Cd1 1_555 1_555
O2A Cd1 1_555 1_555
C5 C6 1_555 1_555
C8 C9 1_555 1_555
C8 N2 1_555 1_555
C9 N1 1_555 1_555
C11 C12 1_555 1_555
C11 N4 1_555 1_555
C12 N3 1_555 1_555
C17 C18 1_555 1_555
Cd1 O3 1_555 1_555
Cd1 O4 1_555 1_555
O2 Cd1A 1_555 1_555

#END
