
#######################################################################
#
#                 Cambridge Crystallographic Data Centre
#                                CCDC 
#
#######################################################################
#
# If this CIF has been generated from an entry in the Cambridge 
# Structural Database, then it will include bibliographic, chemical, 
# crystal, experimental, refinement or atomic coordinate data resulting 
# from the CCDC's data processing and validation procedures.
#
#######################################################################

data_LIXXIB
_symmetry_cell_setting           monoclinic
_symmetry_space_group_name_H-M   'P 21/n'
_symmetry_Int_Tables_number      14
_space_group_name_Hall           '-P 2yn'
loop_
_symmetry_equiv_pos_site_id
_symmetry_equiv_pos_as_xyz
1 x,y,z
2 1/2-x,1/2+y,1/2-z
3 -x,-y,-z
4 1/2+x,1/2-y,1/2+z
_cell_length_a                   6.6354(13)
_cell_length_b                   8.6178(17)
_cell_length_c                   6.8749(14)
_cell_angle_alpha                90
_cell_angle_beta                 95.16(3)
_cell_angle_gamma                90
_cell_volume                     391.531
loop_
_atom_site_label
_atom_site_type_symbol
_atom_site_fract_x
_atom_site_fract_y
_atom_site_fract_z
Cd1 Cd 0.0000 -0.5000 -0.5000
N1 N 0.7518(5) -0.3551(4) -0.6759(6)
N2 N 0.2629(4) -0.3552(3) -0.5926(4)
H1 H 0.3781 -0.3986 -0.5621
N3 N 0.4601(5) -0.1807(4) -0.7437(5)
C1 C 0.6113(5) -0.2759(5) -0.7025(6)
C2 C 0.2799(5) -0.2271(4) -0.6774(5)
O1 O 0.1250(5) -0.1297(4) -0.7087(6)
H2 H -0.022(9) -0.160(7) -0.670(8)
N1B N -0.7518(5) -0.6449(4) -0.3241(6)
N2B N -0.2629(4) -0.6448(3) -0.4074(4)
H1B H -0.3781 -0.6014 -0.4379
N3B N -0.4601(5) -0.8193(4) -0.2563(5)
C1B C -0.6113(5) -0.7241(5) -0.2975(6)
C2B C -0.2799(5) -0.7729(4) -0.3226(5)
O1B O -0.1250(5) -0.8703(4) -0.2913(6)
H2B H 0.022(9) -0.840(7) -0.330(8)
Cd1_2 Cd -1.0000 -0.5000 -0.5000
Cd1_3 Cd 1.0000 -0.5000 -0.5000
Cd1A Cd -0.5000 -1.0000 0.0000
Cd1A_2 Cd 0.5000 0.0000 -1.0000
N1_2 N -0.2482(5) -0.3551(4) -0.6759(6)
N1B_2 N 0.2482(5) -0.6449(4) -0.3241(6)
N3A N 0.0399(5) -0.6807(4) -0.7563(5)
N3C N -0.0399(5) -0.3193(4) -0.2437(5)
loop_
_geom_bond_atom_site_label_1
_geom_bond_atom_site_label_2
_geom_bond_site_symmetry_1
_geom_bond_site_symmetry_2
Cd1 N2 1_555 1_555
N1 C1 1_555 1_555
N2 H1 1_555 1_555
N3 C1 1_555 1_555
C2 N2 1_555 1_555
O1 C2 1_555 1_555
H2 O1 1_555 1_555
N1B C1B 1_555 1_555
N2B Cd1 1_555 1_555
H1B N2B 1_555 1_555
N3B C1B 1_555 1_555
C2B N2B 1_555 1_555
O1B C2B 1_555 1_555
H2B O1B 1_555 1_555
Cd1_2 N1B 1_555 1_555
Cd1_3 N1 1_555 1_555
Cd1A N3B 1_555 1_555
Cd1A_2 N3 1_555 1_555
N1_2 Cd1 1_555 1_555
N1B_2 Cd1 1_555 1_555
N3A Cd1 1_555 1_555
N3C Cd1 1_555 1_555
N3 C2 1_555 1_555
N3B C2B 1_555 1_555

#END
