
#######################################################################
#
#                 Cambridge Crystallographic Data Centre
#                                CCDC 
#
#######################################################################
#
# If this CIF has been generated from an entry in the Cambridge 
# Structural Database, then it will include bibliographic, chemical, 
# crystal, experimental, refinement or atomic coordinate data resulting 
# from the CCDC's data processing and validation procedures.
#
#######################################################################

data_LIXZIC
_symmetry_cell_setting           triclinic
_symmetry_space_group_name_H-M   'P -1'
_symmetry_Int_Tables_number      2
_space_group_name_Hall           '-P 1'
loop_
_symmetry_equiv_pos_site_id
_symmetry_equiv_pos_as_xyz
1 x,y,z
2 -x,-y,-z
_cell_length_a                   9.9034(11)
_cell_length_b                   12.5021(14)
_cell_length_c                   12.8784(15)
_cell_angle_alpha                112.282(2)
_cell_angle_beta                 109.017(2)
_cell_angle_gamma                92.466(2)
_cell_volume                     1369.4
loop_
_atom_site_label
_atom_site_type_symbol
_atom_site_fract_x
_atom_site_fract_y
_atom_site_fract_z
Cl1 Cl 0.38969(6) -0.05332(8) 0.79808(6)
O3 O 0.3006(2) -0.1331(2) 0.81709(19)
O4 O 0.4068(3) 0.0613(3) 0.8872(2)
O5 O 0.5269(2) -0.0853(3) 0.8107(2)
O6 O 0.3203(3) -0.0593(3) 0.6813(2)
O7 O 0.4868(13) 0.4352(9) 0.4901(11)
O7A O 0.5132(13) 0.5648(9) 0.5099(11)
C25 C 0.8346(7) 0.5423(6) 0.4393(5)
C26 C 0.9368(8) 0.6460(5) 0.5123(6)
C27 C 1.0786(7) 0.6421(7) 0.5758(6)
C28 C 0.8817(7) 0.4656(8) 0.4337(7)
C29 C 0.9840(9) 0.5693(7) 0.5067(7)
C30 C 0.8742(8) 0.4346(5) 0.4298(6)
H21 H 0.9280 0.7221 0.5252
H22 H 0.7475 0.5519 0.3985
H23 H 1.1975 0.6342 0.6218
H24 H 1.1634 0.7061 0.6317
H25 H 0.9621 0.6502 0.5153
H26 H 0.7816 0.4801 0.3885
C25A C 1.1654(7) 0.4577(6) 0.5607(5)
C26A C 1.0632(8) 0.3540(5) 0.4877(6)
C27A C 0.9214(7) 0.3579(7) 0.4242(6)
C28A C 1.1183(7) 0.5344(8) 0.5663(7)
C29A C 1.0160(9) 0.4307(7) 0.4933(7)
C30A C 1.1258(8) 0.5654(5) 0.5702(6)
H21A H 1.0720 0.2779 0.4748
H22A H 1.2525 0.4481 0.6015
H23A H 0.8025 0.3658 0.3782
H24A H 0.8366 0.2939 0.3683
H25A H 1.0379 0.3498 0.4847
H26A H 1.2184 0.5199 0.6115
Co1 Co 0.0000 0.0000 0.0000
N1 N 0.06481(15) 0.02414(13) 0.18865(12)
N2 N 0.46054(17) 0.15041(16) 0.56602(14)
N3 N 1.50544(19) 0.51916(16) 0.83090(18)
N4 N 1.89763(16) 0.81482(13) 0.92121(13)
C1 C 0.20321(19) 0.07230(17) 0.26546(16)
H1 H 0.2662 0.1005 0.2376
C2 C 0.25764(19) 0.08262(17) 0.38257(16)
C3 C 0.1641(2) 0.0430(2) 0.42499(18)
H2 H 0.1965 0.0477 0.5032
C4 C 0.0222(2) -0.0034(2) 0.34889(19)
H3 H -0.0441 -0.0285 0.3760
C5 C -0.0223(2) -0.01296(17) 0.23214(17)
H4 H -0.1184 -0.0473 0.1813
C6 C 0.4129(2) 0.1321(2) 0.45775(17)
H5 H 0.4756 0.1496 0.4237
C7 C 0.6100(2) 0.19617(17) 0.63996(17)
C8 C 0.6530(2) 0.19233(18) 0.75181(17)
H6 H 0.5854 0.1606 0.7734
C9 C 0.7947(2) 0.23494(17) 0.83126(17)
H7 H 0.8232 0.2304 0.9056
C10 C 0.8949(2) 0.28445(17) 0.80083(17)
C11 C 0.8549(2) 0.28937(18) 0.69048(17)
H8 H 0.9228 0.3224 0.6701
C12 C 0.7126(2) 0.24477(18) 0.60985(17)
H9 H 0.6853 0.2473 0.5347
C13 C 1.1436(2) 0.37720(19) 0.86807(18)
C14 C 1.2185(3) 0.3071(2) 0.8065(2)
H10 H 1.1907 0.2256 0.7727
C15 C 1.3037(3) 0.5478(2) 0.9087(3)
H11 H 1.3318 0.6293 0.9438
C16 C 1.3811(2) 0.47852(18) 0.8467(2)
C17 C 1.3363(3) 0.3580(2) 0.7944(2)
H12 H 1.3857 0.3103 0.7505
C18 C 1.1844(2) 0.4967(2) 0.9189(2)
H13 H 1.1324 0.5438 0.9604
C19 C 1.5714(2) 0.62368(18) 0.88708(19)
H14 H 1.5363 0.6790 0.9389
C20 C 1.7042(2) 0.65948(17) 0.87152(17)
C21 C 1.9508(2) 0.73473(18) 0.84969(18)
H15 H 2.0343 0.7599 0.8407
C22 C 1.8882(2) 0.6173(2) 0.7889(2)
H16 H 1.9295 0.5645 0.7408
C23 C 1.7633(2) 0.57888(19) 0.8001(2)
H17 H 1.7194 0.4997 0.7601
C24 C 1.77565(19) 0.77551(16) 0.93014(16)
H18 H 1.7366 0.8299 0.9790
O1 O 1.03240(15) 0.32821(15) 0.88994(13)
O2 O 0.20408(13) -0.04807(12) 0.00144(12)
H19 H 0.2862(11) -0.0135(19) 0.0556(15)
H20 H 0.2328(13) -0.071(2) -0.0567(8)
Co1_2 Co 2.0000 1.0000 1.0000
Co1_3 Co -2.0000 -1.0000 -1.0000
N1A N -0.06481(15) -0.02414(13) -0.18865(12)
N2A N -0.46054(17) -0.15041(16) -0.56602(14)
N3A N -1.50544(19) -0.51916(16) -0.83090(18)
N4A N -1.89763(16) -0.81482(13) -0.92121(13)
N4_2 N -0.10237(16) -0.18518(13) -0.07879(13)
N4A_2 N 0.10237(16) 0.18518(13) 0.07879(13)
C1A C -0.20321(19) -0.07230(17) -0.26546(16)
H1A H -0.2662 -0.1005 -0.2376
C2A C -0.25764(19) -0.08262(17) -0.38257(16)
C3A C -0.1641(2) -0.0430(2) -0.42499(18)
H2A H -0.1965 -0.0477 -0.5032
C4A C -0.0222(2) 0.0034(2) -0.34889(19)
H3A H 0.0441 0.0285 -0.3760
C5A C 0.0223(2) 0.01296(17) -0.23214(17)
H4A H 0.1184 0.0473 -0.1813
C6A C -0.4129(2) -0.1321(2) -0.45775(17)
H5A H -0.4756 -0.1496 -0.4237
C7A C -0.6100(2) -0.19617(17) -0.63996(17)
C8A C -0.6530(2) -0.19233(18) -0.75181(17)
H6A H -0.5854 -0.1606 -0.7734
C9A C -0.7947(2) -0.23494(17) -0.83126(17)
H7A H -0.8232 -0.2304 -0.9056
C10A C -0.8949(2) -0.28445(17) -0.80083(17)
C11A C -0.8549(2) -0.28937(18) -0.69048(17)
H8A H -0.9228 -0.3224 -0.6701
C12A C -0.7126(2) -0.24477(18) -0.60985(17)
H9A H -0.6853 -0.2473 -0.5347
C13A C -1.1436(2) -0.37720(19) -0.86807(18)
C14A C -1.2185(3) -0.3071(2) -0.8065(2)
H10A H -1.1907 -0.2256 -0.7727
C15A C -1.3037(3) -0.5478(2) -0.9087(3)
H11A H -1.3318 -0.6293 -0.9438
C16A C -1.3811(2) -0.47852(18) -0.8467(2)
C17A C -1.3363(3) -0.3580(2) -0.7944(2)
H12A H -1.3857 -0.3103 -0.7505
C18A C -1.1844(2) -0.4967(2) -0.9189(2)
H13A H -1.1324 -0.5438 -0.9604
C19A C -1.5714(2) -0.62368(18) -0.88708(19)
H14A H -1.5363 -0.6790 -0.9389
C20A C -1.7042(2) -0.65948(17) -0.87152(17)
C21A C -1.9508(2) -0.73473(18) -0.84969(18)
H15A H -2.0343 -0.7599 -0.8407
C22A C -1.8882(2) -0.6173(2) -0.7889(2)
H16A H -1.9295 -0.5645 -0.7408
C23A C -1.7633(2) -0.57888(19) -0.8001(2)
H17A H -1.7194 -0.4997 -0.7601
C24A C -1.77565(19) -0.77551(16) -0.93014(16)
H18A H -1.7366 -0.8299 -0.9790
O1A O -1.03240(15) -0.32821(15) -0.88994(13)
O2A O -0.20408(13) 0.04807(12) -0.00144(12)
H19A H -0.2862(11) 0.0135(19) -0.0556(15)
H20A H -0.2328(13) 0.071(2) 0.0567(8)
loop_
_geom_bond_atom_site_label_1
_geom_bond_atom_site_label_2
_geom_bond_site_symmetry_1
_geom_bond_site_symmetry_2
Co1 N1 1_555 1_555
N1 C1 1_555 1_555
N2 C6 1_555 1_555
N3 C16 1_555 1_555
N4 C21 1_555 1_555
C1 H1 1_555 1_555
C2 C1 1_555 1_555
C3 C2 1_555 1_555
H2 C3 1_555 1_555
C4 C3 1_555 1_555
H3 C4 1_555 1_555
C5 N1 1_555 1_555
H4 C5 1_555 1_555
C6 C2 1_555 1_555
H5 C6 1_555 1_555
C7 N2 1_555 1_555
C8 C7 1_555 1_555
H6 C8 1_555 1_555
C9 C8 1_555 1_555
H7 C9 1_555 1_555
C10 C9 1_555 1_555
C11 C10 1_555 1_555
H8 C11 1_555 1_555
C12 C7 1_555 1_555
H9 C12 1_555 1_555
C13 C14 1_555 1_555
C14 H10 1_555 1_555
C15 H11 1_555 1_555
C16 C15 1_555 1_555
C17 C14 1_555 1_555
H12 C17 1_555 1_555
C18 C13 1_555 1_555
H13 C18 1_555 1_555
C19 N3 1_555 1_555
H14 C19 1_555 1_555
C20 C19 1_555 1_555
C21 H15 1_555 1_555
C22 C21 1_555 1_555
H16 C22 1_555 1_555
C23 C20 1_555 1_555
H17 C23 1_555 1_555
C24 N4 1_555 1_555
H18 C24 1_555 1_555
O1 C10 1_555 1_555
O2 Co1 1_555 1_555
H19 O2 1_555 1_555
H20 O2 1_555 1_555
Cl1 O3 1_555 1_555
O4 Cl1 1_555 1_555
O5 Cl1 1_555 1_555
O6 Cl1 1_555 1_555
O7 O7A 1_555 1_555
C25 C26 1_555 1_555
C26 C27 1_555 1_555
C27 C29 1_555 1_555
C28 C25 1_555 1_555
C29 C25 1_555 1_555
C30 C25 1_555 1_555
H21 C26 1_555 1_555
H22 C25 1_555 1_555
H23 C27 1_555 1_555
H24 C27 1_555 1_555
H25 C26 1_555 1_555
H26 C25 1_555 1_555
Co1_2 N4 1_555 1_555
Co1_3 N4A 1_555 1_555
N1A Co1 1_555 1_555
N2A C6A 1_555 1_555
N3A C16A 1_555 1_555
N4A C21A 1_555 1_555
N4_2 Co1 1_555 1_555
N4A_2 Co1 1_555 1_555
C1A N1A 1_555 1_555
H1A C1A 1_555 1_555
C2A C1A 1_555 1_555
C3A C2A 1_555 1_555
H2A C3A 1_555 1_555
C4A C3A 1_555 1_555
H3A C4A 1_555 1_555
C5A N1A 1_555 1_555
H4A C5A 1_555 1_555
C6A C2A 1_555 1_555
H5A C6A 1_555 1_555
C7A N2A 1_555 1_555
C8A C7A 1_555 1_555
H6A C8A 1_555 1_555
C9A C8A 1_555 1_555
H7A C9A 1_555 1_555
C10A C9A 1_555 1_555
C11A C10A 1_555 1_555
H8A C11A 1_555 1_555
C12A C7A 1_555 1_555
H9A C12A 1_555 1_555
C13A C14A 1_555 1_555
C14A H10A 1_555 1_555
C15A H11A 1_555 1_555
C16A C15A 1_555 1_555
C17A C14A 1_555 1_555
H12A C17A 1_555 1_555
C18A C13A 1_555 1_555
H13A C18A 1_555 1_555
C19A N3A 1_555 1_555
H14A C19A 1_555 1_555
C20A C19A 1_555 1_555
C21A H15A 1_555 1_555
C22A C21A 1_555 1_555
H16A C22A 1_555 1_555
C23A C20A 1_555 1_555
H17A C23A 1_555 1_555
C24A N4A 1_555 1_555
H18A C24A 1_555 1_555
O1A C10A 1_555 1_555
O2A Co1 1_555 1_555
H19A O2A 1_555 1_555
H20A O2A 1_555 1_555
C25A C26A 1_555 1_555
C26A C27A 1_555 1_555
C27A C28 1_555 1_555
C28A C27 1_555 1_555
C29A C28 1_555 1_555
C30A C27 1_555 1_555
H21A C26A 1_555 1_555
H22A C25A 1_555 1_555
H23A C28 1_555 1_555
H24A C27A 1_555 1_555
H25A C26A 1_555 1_555
H26A C25A 1_555 1_555
C4 C5 1_555 1_555
C11 C12 1_555 1_555
C13 O1 1_555 1_555
C15 C18 1_555 1_555
C16 C17 1_555 1_555
C20 C24 1_555 1_555
C22 C23 1_555 1_555
C26 C29 1_555 1_555
C27 H25 1_555 1_555
C28 C29 1_555 1_555
C28 C30 1_555 1_555
C28 H26 1_555 1_555
C29 C30 1_555 1_555
C29 H25 1_555 1_555
C29 C28A 1_555 1_555
C29 C29A 1_555 1_555
C29 C30A 1_555 1_555
C30 H26 1_555 1_555
C30 C27A 1_555 1_555
C30 C29A 1_555 1_555
C30 H23A 1_555 1_555
H23 C28A 1_555 1_555
H23 C30A 1_555 1_555
C4A C5A 1_555 1_555
C11A C12A 1_555 1_555
C13A O1A 1_555 1_555
C15A C18A 1_555 1_555
C16A C17A 1_555 1_555
C20A C24A 1_555 1_555
C22A C23A 1_555 1_555
C25A C28A 1_555 1_555
C25A C29A 1_555 1_555
C25A C30A 1_555 1_555
C26A C29A 1_555 1_555
C27A C29A 1_555 1_555
C27A H23A 1_555 1_555
C27A H25A 1_555 1_555
C28A C29A 1_555 1_555
C28A C30A 1_555 1_555
C28A H26A 1_555 1_555
C29A C30A 1_555 1_555
C29A H25A 1_555 1_555
C30A H26A 1_555 1_555

#END
