
#######################################################################
#
#                 Cambridge Crystallographic Data Centre
#                                CCDC 
#
#######################################################################
#
# If this CIF has been generated from an entry in the Cambridge 
# Structural Database, then it will include bibliographic, chemical, 
# crystal, experimental, refinement or atomic coordinate data resulting 
# from the CCDC's data processing and validation procedures.
#
#######################################################################

data_LIXZID
_symmetry_cell_setting           orthorhombic
_symmetry_space_group_name_H-M   'P n a 21'
_symmetry_Int_Tables_number      33
_space_group_name_Hall           'P 2c -2n'
loop_
_symmetry_equiv_pos_site_id
_symmetry_equiv_pos_as_xyz
1 x,y,z
2 -x,-y,1/2+z
3 1/2+x,1/2-y,z
4 1/2-x,1/2+y,1/2+z
_cell_length_a                   29.720(6)
_cell_length_b                   9.4430(19)
_cell_length_c                   20.643(4)
_cell_angle_alpha                90
_cell_angle_beta                 90
_cell_angle_gamma                90
_cell_volume                     5793.37
loop_
_atom_site_label
_atom_site_type_symbol
_atom_site_fract_x
_atom_site_fract_y
_atom_site_fract_z
Zn1 Zn 0.40976(4) 0.84695(11) 0.30947(6)
Zn2 Zn 0.64044(4) 0.64494(11) 0.30638(6)
Zn3 Zn 0.47409(4) 0.60943(10) 0.17366(6)
Zn4 Zn 0.68596(3) 0.51004(11) 0.17272(7)
N1 N 0.6816(3) 0.5726(8) 0.0798(4)
N2 N 0.6508(3) 0.6745(9) -0.0069(4)
N3 N 0.4654(3) 0.6032(9) 0.0775(4)
N4 N 0.4674(3) 0.5388(9) -0.0264(4)
N5 N 0.4049(3) 0.8550(8) 0.4069(4)
N6 N 0.3759(3) 0.8418(8) 0.5061(4)
N7 N 0.1617(3) 0.8972(8) 0.3964(4)
N8 N 0.1895(3) 1.0285(9) 0.4779(4)
O1 O 0.4998(2) 0.7973(6) 0.1938(3)
O2 O 0.4760(2) 0.8419(7) 0.2949(3)
O3 O 0.5804(3) 0.7522(7) 0.2894(4)
O4 O 0.6373(2) 0.8862(6) 0.3164(4)
O5 O 0.4092(2) 0.6198(6) 0.1999(3)
O6 O 0.3855(2) 0.6539(7) 0.2992(3)
O7 O 0.6820(2) 0.6525(7) 0.2367(3)
H1 H 0.6769 0.7297 0.2168
H2 H 0.7080 0.6600 0.2534
O8 O 0.6297(2) 1.3958(6) 0.1864(3)
O9 O 0.6136(2) 1.4495(7) 0.2888(3)
O10 O 0.5319(2) 1.4944(7) 0.1993(4)
O11 O 0.4684(3) 1.3817(8) 0.2021(4)
O12 O 0.3933(4) 0.0146(11) 0.2488(6)
O13 O 0.3401(4) 0.0161(12) 0.3139(7)
O14 O 0.2852(3) -0.0152(7) 0.1984(4)
O15 O 0.2294(2) 0.1384(7) 0.1895(4)
O16 O 0.2473(3) 0.6372(8) 0.2352(5)
O17 O 0.3120(2) 0.7294(8) 0.2082(4)
C1 C 0.5997(3) 0.8708(10) 0.2916(4)
C2 C 0.6092(3) 1.3800(10) 0.2383(5)
C3 C 0.5109(4) 1.3856(11) 0.2090(5)
C4 C 0.4997(3) 0.8649(9) 0.2463(5)
C5 C 0.5752(3) 0.9983(10) 0.2672(5)
C6 C 0.5985(3) 1.1239(9) 0.2623(4)
H3 H 0.6287 1.1244 0.2741
C7 C 0.5797(3) 1.2483(9) 0.2410(4)
C8 C 0.5339(3) 1.2522(9) 0.2266(5)
C9 C 0.5085(3) 1.1257(9) 0.2306(5)
H4 H 0.4779 1.1273 0.2211
C10 C 0.5293(3) 0.9960(9) 0.2490(4)
C11 C 0.3636(6) 0.0577(18) 0.2709(10)
C12 C 0.3856(3) 0.5911(10) 0.2475(5)
C13 C 0.2870(4) 0.6267(12) 0.2253(6)
C14 C 0.2697(4) 0.1045(10) 0.2039(5)
C15 C 0.2994(3) 0.2238(10) 0.2248(5)
C16 C 0.2818(3) 0.3615(10) 0.2208(4)
H5 H 0.2514 0.3734 0.2116
C17 C 0.3085(3) 0.4803(9) 0.2303(4)
C18 C 0.3544(3) 0.4637(9) 0.2421(4)
C19 C 0.3712(3) 0.3280(10) 0.2487(4)
H6 H 0.4016 0.3156 0.2571
C20 C 0.3431(3) 0.2070(10) 0.2429(5)
C21 C 0.6083(3) 0.6962(11) 0.0982(5)
H7 H 0.5865 0.6218 0.1031
H8 H 0.5943 0.7765 0.0779
H9 H 0.6195 0.7232 0.1400
C22 C 0.6466(4) 0.6448(11) 0.0567(6)
C23 C 0.7104(4) 0.5465(11) 0.0257(5)
C24 C 0.7508(3) 0.4759(10) 0.0230(5)
H10 H 0.7643 0.4368 0.0594
C25 C 0.7701(4) 0.4673(12) -0.0389(6)
H11 H 0.7971 0.4190 -0.0439
C26 C 0.7500(4) 0.5286(12) -0.0929(6)
H12 H 0.7636 0.5179 -0.1331
C27 C 0.7111(4) 0.6037(12) -0.0888(6)
H13 H 0.6986 0.6473 -0.1249
C28 C 0.6910(4) 0.6125(11) -0.0285(5)
C29 C 0.6213(5) 0.7526(16) -0.0494(8)
H14 H 0.6025 0.8132 -0.0228
H15 H 0.6398 0.8139 -0.0761
C30 C 0.5598(6) 0.6151(18) -0.0727(9)
H16 H 0.5575 0.5907 -0.0292
C31 C 0.5932(6) 0.6746(18) -0.0904(9)
H17 H 0.6008 0.6686 -0.1340
C32 C 0.5164(5) 0.5726(16) -0.1228(7)
H18 H 0.5011 0.6580 -0.1367
H19 H 0.5278 0.5244 -0.1610
C33 C 0.4842(4) 0.4780(14) -0.0872(6)
H20 H 0.4588 0.4575 -0.1152
H21 H 0.4991 0.3890 -0.0777
C34 C 0.5153(4) 0.3965(11) 0.0492(5)
H22 H 0.4982 0.3171 0.0647
H23 H 0.5360 0.4266 0.0821
H24 H 0.5317 0.3695 0.0111
C35 C 0.4836(4) 0.5173(10) 0.0329(5)
C36 C 0.4378(3) 0.6537(10) -0.0227(5)
C37 C 0.4108(4) 0.7217(13) -0.0677(5)
H25 H 0.4116 0.6947 -0.1110
C38 C 0.3832(4) 0.8275(12) -0.0485(6)
H26 H 0.3656 0.8764 -0.0782
C39 C 0.3821(3) 0.8621(12) 0.0189(6)
H27 H 0.3627 0.9335 0.0326
C40 C 0.4079(3) 0.7955(11) 0.0641(6)
H28 H 0.4064 0.8202 0.1077
C41 C 0.4367(3) 0.6883(11) 0.0424(5)
C42 C 0.3281(3) 0.7552(11) 0.4151(5)
H29 H 0.3326 0.7351 0.3700
H30 H 0.3035 0.8203 0.4199
H31 H 0.3213 0.6690 0.4378
C43 C 0.3695(4) 0.8191(10) 0.4425(6)
C44 C 0.4364(3) 0.9094(10) 0.4517(5)
C45 C 0.4791(3) 0.9658(10) 0.4405(5)
H32 H 0.4915 0.9710 0.3992
C46 C 0.5019(3) 1.0134(11) 0.4949(5)
H33 H 0.5305 1.0520 0.4896
C47 C 0.4840(4) 1.0061(11) 0.5574(6)
H34 H 0.5007 1.0390 0.5924
C48 C 0.4413(4) 0.9500(11) 0.5678(5)
H35 H 0.4288 0.9459 0.6090
C49 C 0.4179(3) 0.9000(10) 0.5134(5)
C50 C 0.3461(3) 0.8079(11) 0.5601(5)
H36 H 0.3643 0.7752 0.5961
H37 H 0.3268 0.7301 0.5472
C51 C 0.3167(4) 0.9283(13) 0.5837(5)
H38 H 0.3357 1.0078 0.5952
H39 H 0.3010 0.8982 0.6225
C52 C 0.2808(4) 0.9791(13) 0.5318(6)
H40 H 0.2963 1.0249 0.4960
H41 H 0.2649 0.8975 0.5147
C53 C 0.2479(4) 1.0798(13) 0.5608(6)
H42 H 0.2643 1.1582 0.5799
H43 H 0.2319 1.0319 0.5954
C54 C 0.2143(4) 1.1375(12) 0.5134(6)
H44 H 0.1929 1.1964 0.5366
H45 H 0.2299 1.1973 0.4825
C55 C 0.2181(4) 1.0791(12) 0.3655(6)
H46 H 0.2124 1.1791 0.3678
H47 H 0.2111 1.0453 0.3229
H48 H 0.2493 1.0612 0.3747
C56 C 0.1895(4) 1.0040(12) 0.4141(5)
C57 C 0.1424(4) 0.8573(10) 0.4544(5)
C58 C 0.1097(3) 0.7525(11) 0.4646(6)
H49 H 0.0986 0.6975 0.4308
C59 C 0.0948(3) 0.7354(12) 0.5279(6)
H50 H 0.0733 0.6667 0.5372
C60 C 0.1116(4) 0.8198(14) 0.5779(6)
H51 H 0.1016 0.8034 0.6200
C61 C 0.1423(4) 0.9261(14) 0.5674(6)
H52 H 0.1518 0.9859 0.6004
C62 C 0.1579(3) 0.9386(11) 0.5057(4)
Zn1_2 Zn 0.40976(4) -0.15305(11) 0.30947(6)
Zn2_2 Zn 0.64044(4) 1.64494(11) 0.30638(6)
Zn2B Zn 0.14044(4) 0.85506(11) 0.30638(6)
Zn3_2 Zn 0.47409(4) 1.60943(10) 0.17366(6)
Zn4_2 Zn 0.68596(3) 1.51004(11) 0.17272(7)
Zn4B Zn 0.18596(3) -0.01004(11) 0.17272(7)
N7B N 0.6617(3) 0.6028(8) 0.3964(4)
O8_2 O 0.6297(2) 0.3958(6) 0.1864(3)
O9_2 O 0.6136(2) 0.4495(7) 0.2888(3)
O10_2 O 0.5319(2) 0.4944(7) 0.1993(4)
O11_2 O 0.4684(3) 0.3817(8) 0.2021(4)
O12_2 O 0.3933(4) 1.0146(11) 0.2488(6)
O15B O 0.7294(2) 0.3616(7) 0.1895(4)
loop_
_geom_bond_atom_site_label_1
_geom_bond_atom_site_label_2
_geom_bond_site_symmetry_1
_geom_bond_site_symmetry_2
Zn1 N5 1_555 1_555
Zn2 O3 1_555 1_555
Zn3 N3 1_555 1_555
Zn4 N1 1_555 1_555
N1 C22 1_555 1_555
N2 C22 1_555 1_555
N3 C35 1_555 1_555
N4 C33 1_555 1_555
N5 C43 1_555 1_555
N6 C43 1_555 1_555
N7 C56 1_555 1_555
N8 C54 1_555 1_555
O1 Zn3 1_555 1_555
O2 Zn1 1_555 1_555
O3 C1 1_555 1_555
O4 Zn2 1_555 1_555
O5 Zn3 1_555 1_555
O6 Zn1 1_555 1_555
O7 Zn2 1_555 1_555
H1 O7 1_555 1_555
H2 O7 1_555 1_555
O8 C2 1_555 1_555
O9 C2 1_555 1_555
O10 C3 1_555 1_555
O11 C3 1_555 1_555
O12 C11 1_555 1_555
O13 C11 1_555 1_555
O14 C14 1_555 1_555
O15 C14 1_555 1_555
O16 C13 1_555 1_555
O17 C13 1_555 1_555
C1 O4 1_555 1_555
C2 C7 1_555 1_555
C3 C8 1_555 1_555
C4 O1 1_555 1_555
C5 C1 1_555 1_555
C6 C5 1_555 1_555
H3 C6 1_555 1_555
C7 C6 1_555 1_555
C8 C7 1_555 1_555
C9 C8 1_555 1_555
H4 C9 1_555 1_555
C10 C4 1_555 1_555
C11 C20 1_555 1_555
C12 O5 1_555 1_555
C13 C17 1_555 1_555
C14 C15 1_555 1_555
C15 C16 1_555 1_555
C16 H5 1_555 1_555
C17 C16 1_555 1_555
C18 C12 1_555 1_555
C19 C18 1_555 1_555
H6 C19 1_555 1_555
C20 C15 1_555 1_555
C21 H7 1_555 1_555
H8 C21 1_555 1_555
H9 C21 1_555 1_555
C22 C21 1_555 1_555
C23 N1 1_555 1_555
C24 C23 1_555 1_555
H10 C24 1_555 1_555
C25 C24 1_555 1_555
H11 C25 1_555 1_555
C26 C25 1_555 1_555
H12 C26 1_555 1_555
C27 C26 1_555 1_555
H13 C27 1_555 1_555
C28 N2 1_555 1_555
C29 N2 1_555 1_555
H14 C29 1_555 1_555
H15 C29 1_555 1_555
C30 H16 1_555 1_555
C31 C29 1_555 1_555
H17 C31 1_555 1_555
C32 C30 1_555 1_555
H18 C32 1_555 1_555
H19 C32 1_555 1_555
C33 C32 1_555 1_555
H20 C33 1_555 1_555
H21 C33 1_555 1_555
C34 H22 1_555 1_555
H23 C34 1_555 1_555
H24 C34 1_555 1_555
C35 N4 1_555 1_555
C36 N4 1_555 1_555
C37 C36 1_555 1_555
H25 C37 1_555 1_555
C38 C37 1_555 1_555
H26 C38 1_555 1_555
C39 C38 1_555 1_555
H27 C39 1_555 1_555
C40 C39 1_555 1_555
H28 C40 1_555 1_555
C41 N3 1_555 1_555
C42 H29 1_555 1_555
H30 C42 1_555 1_555
H31 C42 1_555 1_555
C43 C42 1_555 1_555
C44 N5 1_555 1_555
C45 C44 1_555 1_555
H32 C45 1_555 1_555
C46 C45 1_555 1_555
H33 C46 1_555 1_555
C47 C46 1_555 1_555
H34 C47 1_555 1_555
C48 C47 1_555 1_555
H35 C48 1_555 1_555
C49 N6 1_555 1_555
C50 N6 1_555 1_555
H36 C50 1_555 1_555
H37 C50 1_555 1_555
C51 C50 1_555 1_555
H38 C51 1_555 1_555
H39 C51 1_555 1_555
C52 C51 1_555 1_555
H40 C52 1_555 1_555
H41 C52 1_555 1_555
C53 C52 1_555 1_555
H42 C53 1_555 1_555
H43 C53 1_555 1_555
C54 C53 1_555 1_555
H44 C54 1_555 1_555
H45 C54 1_555 1_555
C55 H46 1_555 1_555
H47 C55 1_555 1_555
H48 C55 1_555 1_555
C56 N8 1_555 1_555
C57 N7 1_555 1_555
C58 C57 1_555 1_555
H49 C58 1_555 1_555
C59 C58 1_555 1_555
H50 C59 1_555 1_555
C60 C59 1_555 1_555
H51 C60 1_555 1_555
C61 C60 1_555 1_555
H52 C61 1_555 1_555
C62 N8 1_555 1_555
Zn1_2 O12 1_555 1_555
Zn2_2 O9 1_555 1_555
Zn2B N7 1_555 1_555
Zn3_2 O10 1_555 1_555
Zn4_2 O8 1_555 1_555
Zn4B O15 1_555 1_555
N7B Zn2 1_555 1_555
O8_2 Zn4 1_555 1_555
O9_2 Zn2 1_555 1_555
O10_2 Zn3 1_555 1_555
O11_2 Zn3 1_555 1_555
O12_2 Zn1 1_555 1_555
O15B Zn4 1_555 1_555
Zn4 O7 1_555 1_555
O2 C4 1_555 1_555
O6 C12 1_555 1_555
O11 Zn3_2 1_555 1_555
C5 C10 1_555 1_555
C9 C10 1_555 1_555
C17 C18 1_555 1_555
C19 C20 1_555 1_555
C23 C28 1_555 1_555
C27 C28 1_555 1_555
C30 C31 1_555 1_555
C34 C35 1_555 1_555
C36 C41 1_555 1_555
C40 C41 1_555 1_555
C44 C49 1_555 1_555
C48 C49 1_555 1_555
C55 C56 1_555 1_555
C57 C62 1_555 1_555
C61 C62 1_555 1_555

#END
