
#######################################################################
#
#                 Cambridge Crystallographic Data Centre
#                                CCDC 
#
#######################################################################
#
# If this CIF has been generated from an entry in the Cambridge 
# Structural Database, then it will include bibliographic, chemical, 
# crystal, experimental, refinement or atomic coordinate data resulting 
# from the CCDC's data processing and validation procedures.
#
#######################################################################

data_LIXZAV
_symmetry_cell_setting           monoclinic
_symmetry_space_group_name_H-M   'P 21/c'
_symmetry_Int_Tables_number      14
_space_group_name_Hall           '-P 2ybc'
loop_
_symmetry_equiv_pos_site_id
_symmetry_equiv_pos_as_xyz
1 x,y,z
2 -x,1/2+y,1/2-z
3 -x,-y,-z
4 x,1/2-y,1/2+z
_cell_length_a                   12.790(3)
_cell_length_b                   22.989(5)
_cell_length_c                   19.630(4)
_cell_angle_alpha                90
_cell_angle_beta                 107.40(3)
_cell_angle_gamma                90
_cell_volume                     5507.68
loop_
_atom_site_label
_atom_site_type_symbol
_atom_site_fract_x
_atom_site_fract_y
_atom_site_fract_z
Zn1 Zn 0.17600(5) 0.34676(2) 0.72622(3)
Zn2 Zn 0.10789(5) 0.32857(2) 0.55457(3)
Zn3 Zn -0.61114(5) 0.33394(2) 0.95045(3)
N1 N 0.0481(4) 0.32658(17) 0.4488(2)
N2 N -0.0215(4) 0.30074(19) 0.3361(2)
N3 N -0.4849(4) 0.3202(2) 0.1745(2)
N4 N -0.5415(4) 0.33811(17) 0.0586(2)
N5 N 0.5318(4) 0.47130(18) 0.6031(3)
N6 N 0.6316(4) 0.55713(18) 0.6375(3)
N7 N 0.7198(4) 0.46756(19) 0.6586(3)
N8 N -0.0327(3) 0.48274(16) 0.9024(2)
N9 N -0.2227(4) 0.48157(17) 0.8557(2)
N10 N -0.1306(4) 0.56964(17) 0.8893(2)
O1 O 0.2400(3) 0.37690(16) 0.5737(2)
O2 O 0.2224(3) 0.41309(15) 0.6754(2)
O3 O 0.6121(7) 0.7349(2) 0.6574(4)
O4 O 0.6671(4) 0.75520(16) 0.5657(2)
O5 O 0.9877(3) 0.36589(17) 0.5805(2)
O6 O 1.0184(3) 0.37602(16) 0.6979(2)
O7 O 0.2191(4) 0.36242(18) 0.8301(2)
O8 O 0.2674(3) 0.39209(15) 0.93998(19)
O9 O -0.1285(4) 0.76365(15) 0.7959(2)
O10 O -0.1367(3) 0.75039(15) 0.9067(2)
O11 O -0.4905(4) 0.36636(19) 0.9226(2)
O12 O -0.5173(4) 0.3889(2) 0.8088(2)
O13 O 0.6200(4) 0.38494(17) 0.6321(3)
O14 O 0.8106(4) 0.5513(2) 0.7013(3)
O15 O 0.4499(4) 0.55875(19) 0.5754(3)
O16 O -0.1248(4) 0.39782(15) 0.8713(2)
O17 O 0.0547(4) 0.56879(17) 0.9360(3)
O18 O -0.3145(4) 0.56813(19) 0.8376(3)
O19 O 0.3338(3) 0.31522(15) 0.7431(2)
H1 H 0.3499 0.2885 0.7743
H2 H 0.3695 0.3321 0.7186
C1 C 0.0633(6) 0.2214(2) 0.4220(3)
H3 H 0.0987 0.2062 0.3891
H4 H -0.0005 0.1985 0.4197
H5 H 0.1130 0.2199 0.4696
C2 C 0.0299(4) 0.2830(2) 0.4030(3)
C3 C 0.0056(5) 0.3762(2) 0.4095(3)
C4 C 0.0011(6) 0.4337(2) 0.4317(3)
H6 H 0.0316 0.4447 0.4790
C5 C -0.0506(6) 0.4731(3) 0.3799(4)
H7 H -0.0570 0.5115 0.3929
C6 C -0.0932(6) 0.4572(3) 0.3093(4)
H8 H -0.1259 0.4854 0.2758
C7 C -0.0889(6) 0.4011(3) 0.2869(3)
H9 H -0.1180 0.3907 0.2391
C8 C -0.0390(4) 0.3606(2) 0.3388(3)
C9 C -0.0605(6) 0.2630(3) 0.2736(3)
H10 H -0.0061 0.2332 0.2756
H11 H -0.0681 0.2859 0.2309
C10 C -0.1687(6) 0.2343(3) 0.2682(3)
H12 H -0.1869 0.2080 0.2277
H13 H -0.1605 0.2111 0.3108
C11 C -0.2622(5) 0.2759(3) 0.2600(3)
H14 H -0.2705 0.2991 0.2174
H15 H -0.2443 0.3021 0.3005
C12 C -0.3696(6) 0.2467(3) 0.2545(4)
H16 H -0.3627 0.2252 0.2982
H17 H -0.3859 0.2190 0.2155
C13 C -0.4639(6) 0.2890(3) 0.2424(3)
H18 H -0.5294 0.2679 0.2428
H19 H -0.4478 0.3169 0.2812
C14 C -0.5863(5) 0.2402(3) 0.0982(3)
H20 H -0.6470 0.2399 0.0553
H21 H -0.6114 0.2294 0.1379
H22 H -0.5318 0.2130 0.0938
C15 C -0.5378(4) 0.2998(2) 0.1102(3)
C16 C -0.4854(4) 0.3870(2) 0.0935(3)
C17 C -0.4630(5) 0.4398(2) 0.0663(3)
H23 H -0.4853 0.4472 0.0175
C18 C -0.4068(5) 0.4806(2) 0.1140(4)
H24 H -0.3908 0.5162 0.0971
C19 C -0.3728(5) 0.4700(3) 0.1877(4)
H25 H -0.3356 0.4990 0.2185
C20 C -0.3932(5) 0.4178(3) 0.2155(3)
H26 H -0.3702 0.4104 0.2643
C21 C -0.4502(4) 0.3764(2) 0.1661(3)
C22 C 0.2700(4) 0.4092(2) 0.6275(3)
C23 C 0.3694(5) 0.4463(3) 0.6375(3)
H27 H 0.4226 0.4359 0.6825
H28 H 0.3489 0.4866 0.6411
C24 C 0.4242(5) 0.4420(3) 0.5794(3)
H29 H 0.4339 0.4015 0.5690
H30 H 0.3786 0.4603 0.5361
C25 C 0.9616(4) 0.3815(2) 0.6342(3)
C26 C 0.8510(5) 0.4104(3) 0.6181(3)
H31 H 0.8485 0.4423 0.5854
H32 H 0.7954 0.3825 0.5937
C27 C 0.8224(5) 0.4332(3) 0.6816(3)
H33 H 0.8132 0.4010 0.7113
H34 H 0.8815 0.4576 0.7098
C28 C 0.6483(5) 0.7202(2) 0.6100(3)
C29 C 0.6653(7) 0.6565(2) 0.5988(4)
H35 H 0.6229 0.6455 0.5508
H36 H 0.7420 0.6495 0.6038
C30 C 0.6314(6) 0.6201(2) 0.6514(3)
H37 H 0.6804 0.6279 0.6988
H38 H 0.5582 0.6316 0.6510
C31 C 0.7271(4) 0.5269(2) 0.6682(3)
C32 C 0.5329(5) 0.5311(2) 0.6026(3)
C33 C 0.6226(5) 0.4373(2) 0.6311(3)
C34 C 0.2056(4) 0.3949(2) 0.8774(3)
C35 C 0.1123(5) 0.4375(2) 0.8605(3)
H39 H 0.0520 0.4219 0.8222
H40 H 0.1356 0.4735 0.8437
C36 C 0.0724(4) 0.4504(2) 0.9240(3)
H41 H 0.0626 0.4142 0.9467
H42 H 0.1271 0.4733 0.9585
C37 C -0.4651(4) 0.3903(2) 0.8715(3)
C38 C -0.3586(5) 0.4240(3) 0.8938(3)
H43 H -0.3655 0.4560 0.9244
H44 H -0.3007 0.3987 0.9213
C39 C -0.3270(5) 0.4480(2) 0.8309(3)
H45 H -0.3183 0.4162 0.8006
H46 H -0.3849 0.4731 0.8030
C40 C -0.1316(4) 0.7326(2) 0.8473(3)
C41 C -0.1325(6) 0.6674(2) 0.8360(3)
H47 H -0.1965 0.6571 0.7969
H48 H -0.0681 0.6566 0.8225
C42 C -0.1338(5) 0.6333(2) 0.9015(3)
H49 H -0.0711 0.6443 0.9412
H50 H -0.1996 0.6428 0.9140
C43 C -0.2286(5) 0.5420(2) 0.8588(3)
C44 C -0.0302(5) 0.5422(2) 0.9102(3)
C45 C -0.1267(4) 0.4506(2) 0.8762(3)
Zn1_2 Zn 1.17600(5) 0.34676(2) 0.72622(3)
Zn1A Zn -0.17600(5) 0.84676(2) 0.77378(3)
Zn2_2 Zn 1.10789(5) 0.32857(2) 0.55457(3)
Zn2A Zn -0.10789(5) 0.82857(2) 0.94543(3)
Zn3_2 Zn -0.61114(5) 0.33394(2) -0.04955(3)
Zn3_3 Zn 0.38886(5) 0.33394(2) 0.95045(3)
Zn3A Zn 0.61114(5) 0.83394(2) 0.54955(3)
N4_2 N -0.5415(4) 0.33811(17) 1.0586(2)
O4A O -0.6671(4) 0.25520(16) 0.9343(2)
O5_2 O -0.0123(3) 0.36589(17) 0.5805(2)
O6_2 O 0.0184(3) 0.37602(16) 0.6979(2)
O8_2 O -0.7326(3) 0.39209(15) 0.93998(19)
O9A O 0.1285(4) 0.26365(15) 0.7041(2)
O10A O 0.1367(3) 0.25039(15) 0.5933(2)
O20 O 0.733(2) 0.2624(11) 0.0162(14)
H51 H 0.6865 0.2425 -0.0153
H52 H 0.6750 0.2832 0.0068
loop_
_geom_bond_atom_site_label_1
_geom_bond_atom_site_label_2
_geom_bond_site_symmetry_1
_geom_bond_site_symmetry_2
Zn1 O2 1_555 1_555
Zn2 N1 1_555 1_555
Zn3 O11 1_555 1_555
N1 C2 1_555 1_555
N2 C2 1_555 1_555
N3 C13 1_555 1_555
N4 C15 1_555 1_555
N5 C24 1_555 1_555
N6 C30 1_555 1_555
N7 C27 1_555 1_555
N8 C36 1_555 1_555
N9 C39 1_555 1_555
N10 C42 1_555 1_555
O1 Zn2 1_555 1_555
O2 C22 1_555 1_555
O3 C28 1_555 1_555
O4 C28 1_555 1_555
O5 C25 1_555 1_555
O6 C25 1_555 1_555
O7 Zn1 1_555 1_555
O8 C34 1_555 1_555
O9 C40 1_555 1_555
O10 C40 1_555 1_555
O11 C37 1_555 1_555
O12 C37 1_555 1_555
O13 C33 1_555 1_555
O14 C31 1_555 1_555
O15 C32 1_555 1_555
O16 C45 1_555 1_555
O17 C44 1_555 1_555
O18 C43 1_555 1_555
O19 Zn1 1_555 1_555
H1 O19 1_555 1_555
H2 O19 1_555 1_555
C1 H3 1_555 1_555
H4 C1 1_555 1_555
H5 C1 1_555 1_555
C2 C1 1_555 1_555
C3 N1 1_555 1_555
C4 C3 1_555 1_555
H6 C4 1_555 1_555
C5 C4 1_555 1_555
H7 C5 1_555 1_555
C6 C5 1_555 1_555
H8 C6 1_555 1_555
C7 C6 1_555 1_555
H9 C7 1_555 1_555
C8 N2 1_555 1_555
C9 N2 1_555 1_555
H10 C9 1_555 1_555
H11 C9 1_555 1_555
C10 C9 1_555 1_555
H12 C10 1_555 1_555
H13 C10 1_555 1_555
C11 C10 1_555 1_555
H14 C11 1_555 1_555
H15 C11 1_555 1_555
C12 C11 1_555 1_555
H16 C12 1_555 1_555
H17 C12 1_555 1_555
C13 C12 1_555 1_555
H18 C13 1_555 1_555
H19 C13 1_555 1_555
C14 H20 1_555 1_555
H21 C14 1_555 1_555
H22 C14 1_555 1_555
C15 N3 1_555 1_555
C16 N4 1_555 1_555
C17 C16 1_555 1_555
H23 C17 1_555 1_555
C18 C17 1_555 1_555
H24 C18 1_555 1_555
C19 C18 1_555 1_555
H25 C19 1_555 1_555
C20 C19 1_555 1_555
H26 C20 1_555 1_555
C21 N3 1_555 1_555
C22 O1 1_555 1_555
C23 C22 1_555 1_555
H27 C23 1_555 1_555
H28 C23 1_555 1_555
C24 C23 1_555 1_555
H29 C24 1_555 1_555
H30 C24 1_555 1_555
C25 C26 1_555 1_555
C26 H31 1_555 1_555
H32 C26 1_555 1_555
C27 C26 1_555 1_555
H33 C27 1_555 1_555
H34 C27 1_555 1_555
C28 C29 1_555 1_555
C29 H35 1_555 1_555
H36 C29 1_555 1_555
C30 C29 1_555 1_555
H37 C30 1_555 1_555
H38 C30 1_555 1_555
C31 N6 1_555 1_555
C32 N5 1_555 1_555
C33 N5 1_555 1_555
C34 O7 1_555 1_555
C35 C34 1_555 1_555
H39 C35 1_555 1_555
H40 C35 1_555 1_555
C36 C35 1_555 1_555
H41 C36 1_555 1_555
H42 C36 1_555 1_555
C37 C38 1_555 1_555
C38 H43 1_555 1_555
H44 C38 1_555 1_555
C39 C38 1_555 1_555
H45 C39 1_555 1_555
H46 C39 1_555 1_555
C40 C41 1_555 1_555
C41 H47 1_555 1_555
H48 C41 1_555 1_555
C42 C41 1_555 1_555
H49 C42 1_555 1_555
H50 C42 1_555 1_555
C43 N9 1_555 1_555
C44 N8 1_555 1_555
C45 N8 1_555 1_555
O20 H51 1_555 1_555
H52 O20 1_555 1_555
Zn1_2 O6 1_555 1_555
Zn1A O9 1_555 1_555
Zn2_2 O5 1_555 1_555
Zn2A O10 1_555 1_555
Zn3_2 N4 1_555 1_555
Zn3_3 O8 1_555 1_555
Zn3A O4 1_555 1_555
N4_2 Zn3 1_555 1_555
O4A Zn3 1_555 1_555
O5_2 Zn2 1_555 1_555
O6_2 Zn1 1_555 1_555
O8_2 Zn3 1_555 1_555
O9A Zn1 1_555 1_555
O10A Zn2 1_555 1_555
N6 C32 1_555 1_555
N7 C31 1_555 1_555
N7 C33 1_555 1_555
N9 C45 1_555 1_555
N10 C43 1_555 1_555
N10 C44 1_555 1_555
C3 C8 1_555 1_555
C7 C8 1_555 1_555
C14 C15 1_555 1_555
C16 C21 1_555 1_555
C20 C21 1_555 1_555

#END
