
#######################################################################
#
#                 Cambridge Crystallographic Data Centre
#                                CCDC 
#
#######################################################################
#
# If this CIF has been generated from an entry in the Cambridge 
# Structural Database, then it will include bibliographic, chemical, 
# crystal, experimental, refinement or atomic coordinate data resulting 
# from the CCDC's data processing and validation procedures.
#
#######################################################################

data_LIXZOJ
_symmetry_cell_setting           monoclinic
_symmetry_space_group_name_H-M   'P 21/c'
_symmetry_Int_Tables_number      14
_space_group_name_Hall           '-P 2ybc'
loop_
_symmetry_equiv_pos_site_id
_symmetry_equiv_pos_as_xyz
1 x,y,z
2 -x,1/2+y,1/2-z
3 -x,-y,-z
4 x,1/2-y,1/2+z
_cell_length_a                   10.179(2)
_cell_length_b                   18.048(4)
_cell_length_c                   18.381(5)
_cell_angle_alpha                90
_cell_angle_beta                 118.96(2)
_cell_angle_gamma                90
_cell_volume                     2954.54
loop_
_atom_site_label
_atom_site_type_symbol
_atom_site_fract_x
_atom_site_fract_y
_atom_site_fract_z
Zn1 Zn 0.05747(5) 0.40696(3) 0.88787(3)
Zn2 Zn -0.27469(5) 0.38513(3) 0.71753(3)
N1 N 0.1859(4) 0.49665(19) 0.9058(2)
N2 N 0.3529(4) 0.5866(2) 0.9630(3)
N3 N 0.7029(4) 1.0244(2) 1.1479(2)
N4 N 0.7349(4) 0.90763(19) 1.1209(3)
O1 O -0.1314(3) 0.32416(16) 0.69418(19)
O2 O 0.0907(3) 0.35387(17) 0.80321(19)
O3 O 0.5168(4) 0.3907(2) 0.7587(3)
O4 O 0.5478(3) 0.32085(16) 0.67036(19)
O5 O 0.1388(3) 0.15574(17) 0.48525(19)
O6 O -0.0606(4) 0.1367(2) 0.5015(2)
O7 O -0.1558(3) 0.41642(17) 0.83108(18)
H1 H -0.1721 0.3954 0.8673
C1 C 0.0093(4) 0.3284(2) 0.7315(3)
C2 C 0.4727(4) 0.3424(3) 0.7057(3)
C3 C 0.0583(5) 0.1677(2) 0.5203(3)
C4 C 0.0932(4) 0.3015(2) 0.6878(2)
C5 C 0.2349(4) 0.3315(2) 0.7130(3)
H2 H 0.2731 0.3673 0.7545
C6 C 0.3196(4) 0.3082(2) 0.6765(3)
C7 C 0.2633(4) 0.2545(2) 0.6153(3)
H3 H 0.3207 0.2382 0.5917
C8 C 0.1206(4) 0.2245(2) 0.5888(3)
C9 C 0.0358(4) 0.2489(2) 0.6254(3)
H4 H -0.0596 0.2296 0.6078
C10 C 0.3222(5) 0.5000(3) 1.0604(3)
H5 H 0.2325 0.4817 1.0591
H6 H 0.3628 0.5398 1.0998
H7 H 0.3946 0.4608 1.0765
C11 C 0.2858(5) 0.5274(2) 0.9766(3)
C12 C 0.1865(4) 0.5386(2) 0.8415(3)
C13 C 0.1057(5) 0.5312(3) 0.7555(3)
H8 H 0.0355 0.4935 0.7307
C14 C 0.1338(6) 0.5820(3) 0.7082(4)
H9 H 0.0822 0.5781 0.6506
C15 C 0.2381(6) 0.6387(3) 0.7456(4)
H10 H 0.2537 0.6720 0.7119
C16 C 0.3189(6) 0.6474(3) 0.8306(4)
H11 H 0.3879 0.6855 0.8551
C17 C 0.2911(5) 0.5954(2) 0.8780(3)
C18 C 0.4678(5) 0.6356(3) 1.0253(3)
H12 H 0.5479 0.6428 1.0118
H13 H 0.5104 0.6123 1.0796
C19 C 0.4019(5) 0.7111(3) 1.0286(3)
H14 H 0.3561 0.7337 0.9739
H15 H 0.3243 0.7042 1.0442
C20 C 0.5229(5) 0.7622(2) 1.0909(3)
H16 H 0.4769 0.8084 1.0938
H17 H 0.5677 0.7394 1.1455
C21 C 0.6458(5) 0.7790(2) 1.0689(3)
H18 H 0.6009 0.8027 1.0147
H19 H 0.6897 0.7326 1.0645
C22 C 0.7705(5) 0.8287(2) 1.1315(3)
H20 H 0.7928 0.8141 1.1871
H21 H 0.8604 0.8205 1.1268
C23 C 0.6986(7) 0.9287(3) 1.2450(4)
H22 H 0.7965 0.9256 1.2929
H23 H 0.6515 0.8809 1.2338
H24 H 0.6386 0.9637 1.2553
C24 C 0.7132(5) 0.9533(3) 1.1719(3)
C25 C 0.7190(5) 1.0231(2) 1.0766(3)
C26 C 0.7203(6) 1.0809(3) 1.0272(3)
H25 H 0.7083 1.1299 1.0384
C27 C 0.7403(7) 1.0615(3) 0.9604(4)
H26 H 0.7397 1.0989 0.9254
C28 C 0.7611(7) 0.9891(3) 0.9434(4)
H27 H 0.7747 0.9789 0.8979
C29 C 0.7619(6) 0.9326(3) 0.9929(4)
H28 H 0.7769 0.8838 0.9824
C30 C 0.7395(5) 0.9505(3) 1.0593(3)
Zn1C Zn 0.05747(5) 0.09304(3) 0.38787(3)
Zn2_2 Zn 0.72531(5) 0.38513(3) 0.71753(3)
Zn2C Zn 0.72531(5) 1.11487(3) 1.21753(3)
N3C N -0.2971(4) 0.4756(2) 0.6479(2)
O3_2 O -0.4832(4) 0.3907(2) 0.7587(3)
O4_2 O -0.4522(3) 0.32085(16) 0.67036(19)
O5C O 0.1388(3) 0.34426(17) 0.98525(19)
loop_
_geom_bond_atom_site_label_1
_geom_bond_atom_site_label_2
_geom_bond_site_symmetry_1
_geom_bond_site_symmetry_2
Zn1 N1 1_555 1_555
Zn2 O1 1_555 1_555
N1 C11 1_555 1_555
N2 C11 1_555 1_555
N3 C24 1_555 1_555
N4 C22 1_555 1_555
O1 C1 1_555 1_555
O2 Zn1 1_555 1_555
O3 C2 1_555 1_555
O4 C2 1_555 1_555
O5 C3 1_555 1_555
O6 C3 1_555 1_555
O7 Zn1 1_555 1_555
H1 O7 1_555 1_555
C1 O2 1_555 1_555
C2 C6 1_555 1_555
C3 C8 1_555 1_555
C4 C1 1_555 1_555
C5 C4 1_555 1_555
H2 C5 1_555 1_555
C6 C5 1_555 1_555
C7 C6 1_555 1_555
H3 C7 1_555 1_555
C8 C7 1_555 1_555
C9 C4 1_555 1_555
H4 C9 1_555 1_555
C10 H5 1_555 1_555
H6 C10 1_555 1_555
H7 C10 1_555 1_555
C11 C10 1_555 1_555
C12 N1 1_555 1_555
C13 C12 1_555 1_555
H8 C13 1_555 1_555
C14 C13 1_555 1_555
H9 C14 1_555 1_555
C15 C14 1_555 1_555
H10 C15 1_555 1_555
C16 C15 1_555 1_555
H11 C16 1_555 1_555
C17 N2 1_555 1_555
C18 N2 1_555 1_555
H12 C18 1_555 1_555
H13 C18 1_555 1_555
C19 C18 1_555 1_555
H14 C19 1_555 1_555
H15 C19 1_555 1_555
C20 C19 1_555 1_555
H16 C20 1_555 1_555
H17 C20 1_555 1_555
C21 C20 1_555 1_555
H18 C21 1_555 1_555
H19 C21 1_555 1_555
C22 C21 1_555 1_555
H20 C22 1_555 1_555
H21 C22 1_555 1_555
C23 H22 1_555 1_555
H23 C23 1_555 1_555
H24 C23 1_555 1_555
C24 N4 1_555 1_555
C25 N3 1_555 1_555
C26 C25 1_555 1_555
H25 C26 1_555 1_555
C27 C26 1_555 1_555
H26 C27 1_555 1_555
C28 C27 1_555 1_555
H27 C28 1_555 1_555
C29 C28 1_555 1_555
H28 C29 1_555 1_555
C30 N4 1_555 1_555
Zn1C O5 1_555 1_555
Zn2_2 O3 1_555 1_555
Zn2C N3 1_555 1_555
N3C Zn2 1_555 1_555
O3_2 Zn2 1_555 1_555
O4_2 Zn2 1_555 1_555
O5C Zn1 1_555 1_555
Zn2 O7 1_555 1_555
O4 Zn2_2 1_555 1_555
C8 C9 1_555 1_555
C12 C17 1_555 1_555
C16 C17 1_555 1_555
C23 C24 1_555 1_555
C25 C30 1_555 1_555
C29 C30 1_555 1_555

#END
