
#######################################################################
#
#                 Cambridge Crystallographic Data Centre
#                                CCDC 
#
#######################################################################
#
# If this CIF has been generated from an entry in the Cambridge 
# Structural Database, then it will include bibliographic, chemical, 
# crystal, experimental, refinement or atomic coordinate data resulting 
# from the CCDC's data processing and validation procedures.
#
#######################################################################

data_LIYFII
_symmetry_cell_setting           triclinic
_symmetry_space_group_name_H-M   'P -1'
_symmetry_Int_Tables_number      2
_space_group_name_Hall           '-P 1'
loop_
_symmetry_equiv_pos_site_id
_symmetry_equiv_pos_as_xyz
1 x,y,z
2 -x,-y,-z
_cell_length_a                   10.933(4)
_cell_length_b                   12.379(3)
_cell_length_c                   26.817(9)
_cell_angle_alpha                80.95(2)
_cell_angle_beta                 79.81(3)
_cell_angle_gamma                89.81(2)
_cell_volume                     3526.56
loop_
_atom_site_label
_atom_site_type_symbol
_atom_site_fract_x
_atom_site_fract_y
_atom_site_fract_z
Co1 Co -0.51217(9) 0.03243(8) 0.24597(4)
N1 N -0.60061(48) 0.12157(39) 0.19660(19)
N2 N -0.62139(46) 0.08162(40) 0.30346(19)
N3 N -0.44927(46) -0.08049(41) 0.29402(20)
N4 N -0.39083(47) -0.00519(41) 0.18784(20)
C1 C -0.57847(60) 0.13170(48) 0.14419(26)
C2 C -0.68671(62) 0.17581(51) 0.12282(26)
C3 C -0.70709(66) 0.19176(55) 0.06824(25)
H1 H -0.63039(66) 0.21738(55) 0.04615(25)
H2 H -0.76769(66) 0.24705(55) 0.06369(25)
C4 C -0.75169(72) 0.08618(61) 0.05267(30)
H3 H -0.76272(72) 0.10034(61) 0.01753(30)
H4 H -0.69056(72) 0.03110(61) 0.05655(30)
H5 H -0.82921(72) 0.06106(61) 0.07426(30)
C5 C -0.76925(61) 0.19978(50) 0.16331(26)
C6 C -0.90217(61) 0.23386(55) 0.16248(27)
H6 H -0.91221(61) 0.25604(55) 0.12752(27)
H7 H -0.91904(61) 0.29542(55) 0.18017(27)
C7 C -0.99609(69) 0.13951(60) 0.18604(31)
H8 H -1.07936(69) 0.16322(60) 0.18485(31)
H9 H -0.97989(69) 0.07836(60) 0.16803(31)
H10 H -0.98677(69) 0.11808(60) 0.22113(31)
C8 C -0.71218(58) 0.17352(49) 0.20911(25)
C9 C -0.74804(58) 0.20139(51) 0.25658(24)
C10 C -0.69882(57) 0.16962(50) 0.30057(25)
C11 C -0.72889(61) 0.21011(51) 0.34862(26)
C12 C -0.78953(63) 0.31542(54) 0.35948(28)
H11 H -0.80615(63) 0.31387(54) 0.39596(28)
H12 H -0.86706(63) 0.32139(54) 0.34726(28)
C13 C -0.70460(63) 0.41566(52) 0.33514(29)
H13 H -0.74319(63) 0.48243(52) 0.34264(29)
H14 H -0.62754(63) 0.40901(52) 0.34771(29)
H15 H -0.68883(63) 0.41657(52) 0.29870(29)
C14 C -0.67762(64) 0.13856(54) 0.38399(26)
C15 C -0.67962(76) 0.15438(59) 0.43832(29)
H16 H -0.67006(76) 0.08470(59) 0.45856(29)
H17 H -0.75918(76) 0.18165(59) 0.45145(29)
C16 C -0.57679(80) 0.23419(72) 0.44380(33)
H18 H -0.58198(80) 0.24170(72) 0.47920(33)
H19 H -0.49707(80) 0.20644(72) 0.43124(33)
H20 H -0.58704(80) 0.30429(72) 0.42406(33)
C17 C -0.61438(60) 0.05819(50) 0.35509(25)
C18 C -0.56185(63) -0.03782(52) 0.37319(24)
C19 C -0.49398(60) -0.11033(50) 0.34542(26)
C20 C -0.45126(61) -0.21758(53) 0.36514(27)
C21 C -0.49584(71) -0.28853(57) 0.41588(27)
H21 H -0.50349(71) -0.24335(57) 0.44222(27)
H22 H -0.43509(71) -0.34264(57) 0.42239(27)
C22 C -0.62066(75) -0.34693(66) 0.41811(30)
H23 H -0.64570(75) -0.39043(66) 0.45131(30)
H24 H -0.68196(75) -0.29296(66) 0.41222(30)
H25 H -0.61290(75) -0.39320(66) 0.39221(30)
C23 C -0.37078(60) -0.24852(53) 0.32490(25)
C24 C -0.31546(65) -0.36007(54) 0.32572(28)
H26 H -0.31965(65) -0.39356(54) 0.36081(28)
H27 H -0.22982(65) -0.35336(54) 0.30923(28)
C25 C -0.39127(71) -0.43384(59) 0.29991(35)
H28 H -0.35723(71) -0.50555(59) 0.30068(35)
H29 H -0.47663(71) -0.43977(59) 0.31678(35)
H30 H -0.38632(71) -0.39935(59) 0.26493(35)
C26 C -0.36710(59) -0.16093(51) 0.28157(25)
C27 C -0.28776(59) -0.14764(49) 0.23534(26)
C28 C -0.28914(56) -0.07285(51) 0.19167(25)
C29 C -0.20030(60) -0.05217(51) 0.14341(26)
C30 C -0.07160(66) -0.09808(57) 0.13194(29)
H31 H -0.04587(66) -0.12475(57) 0.16397(29)
H32 H -0.01437(66) -0.04033(57) 0.11405(29)
C31 C -0.06506(77) -0.19150(62) 0.09995(31)
H33 H 0.01854(77) -0.21700(62) 0.09452(31)
H34 H -0.12036(77) -0.25058(62) 0.11792(31)
H35 H -0.08850(77) -0.16519(62) 0.06743(31)
C32 C -0.25020(61) 0.02113(52) 0.11099(26)
C33 C -0.18216(65) 0.07299(59) 0.05900(27)
H36 H -0.24051(65) 0.08418(59) 0.03591(27)
H37 H -0.12083(65) 0.02356(59) 0.04633(27)
C34 C -0.11874(72) 0.18313(59) 0.06075(30)
H38 H -0.07718(72) 0.21278(59) 0.02675(30)
H39 H -0.18002(72) 0.23324(59) 0.07279(30)
H40 H -0.05917(72) 0.17203(59) 0.08331(30)
C35 C -0.36962(60) 0.04708(52) 0.13807(26)
C36 C -0.46587(64) 0.10466(51) 0.11887(26)
N5 N -0.85942(50) 0.27167(44) 0.26383(22)
O1 O -0.84929(40) 0.36952(34) 0.24610(17)
O2 O -0.95651(43) 0.22533(36) 0.28860(19)
N6 N -0.58245(64) -0.06793(47) 0.42929(25)
O3 O -0.68441(56) -0.10606(44) 0.45132(21)
O4 O -0.49569(56) -0.05196(41) 0.45098(20)
N7 N -0.18162(57) -0.22402(49) 0.23251(25)
O5 O -0.09510(48) -0.20432(43) 0.25386(23)
O6 O -0.18757(50) -0.30233(39) 0.21049(20)
N8 N -0.44070(52) 0.14357(47) 0.06281(22)
O7 O -0.40830(45) 0.23980(39) 0.04801(18)
O8 O -0.45437(45) 0.07761(40) 0.03412(18)
Co2 Co -0.01542(9) 0.49926(8) 0.25075(4)
N9 N -0.10412(49) 0.44387(41) 0.20150(21)
N10 N -0.12300(45) 0.40847(40) 0.30823(19)
N11 N 0.04541(49) 0.57993(41) 0.29899(22)
N12 N 0.10257(47) 0.57958(41) 0.19332(20)
C37 C -0.08424(59) 0.47397(48) 0.14953(25)
C38 C -0.19025(62) 0.44359(50) 0.12728(25)
C39 C -0.21453(63) 0.47217(52) 0.07392(24)
H41 H -0.27192(63) 0.41975(52) 0.06745(24)
H42 H -0.13730(63) 0.46745(52) 0.05100(24)
C40 C -0.26223(70) 0.58858(58) 0.06277(29)
H43 H -0.27358(70) 0.60245(58) 0.02766(29)
H44 H -0.34055(70) 0.59352(58) 0.08495(29)
H45 H -0.20443(70) 0.64176(58) 0.06831(29)
C41 C -0.27309(61) 0.39028(51) 0.16819(25)
C42 C -0.40446(59) 0.35668(54) 0.16701(27)
H46 H -0.42158(59) 0.28428(54) 0.18601(27)
H47 H -0.41379(59) 0.35474(54) 0.13223(27)
C43 C -0.49822(61) 0.43524(57) 0.19060(29)
H48 H -0.58084(61) 0.41109(57) 0.18938(29)
H49 H -0.49036(61) 0.43633(57) 0.22561(29)
H50 H -0.48249(61) 0.50750(57) 0.17130(29)
C44 C -0.21442(57) 0.38283(49) 0.21321(24)
C45 C -0.24815(57) 0.32103(49) 0.26038(24)
C46 C -0.19930(60) 0.32160(51) 0.30440(24)
C47 C -0.22915(59) 0.24818(53) 0.35342(26)
C48 C -0.28862(62) 0.13609(51) 0.36232(27)
H51 H -0.36417(62) 0.13880(51) 0.34862(27)
H52 H -0.30911(62) 0.11168(51) 0.39866(27)
C49 C -0.20260(66) 0.05299(53) 0.33865(30)
H53 H -0.24174(66) -0.01839(53) 0.34534(30)
H54 H -0.18306(66) 0.07716(53) 0.30227(30)
H55 H -0.12756(66) 0.04982(53) 0.35272(30)
C50 C -0.17834(60) 0.29497(53) 0.38719(25)
C51 C -0.18231(67) 0.24340(56) 0.44290(28)
H56 H -0.25780(67) 0.20038(56) 0.45451(28)
H57 H -0.18343(67) 0.29975(56) 0.46380(28)
C52 C -0.07104(74) 0.17009(66) 0.44961(31)
H58 H -0.07733(74) 0.13844(66) 0.48505(31)
H59 H -0.07055(74) 0.11288(66) 0.42921(31)
H60 H 0.00453(74) 0.21320(66) 0.43860(31)
C53 C -0.11740(59) 0.39573(50) 0.35944(25)
C54 C -0.06572(61) 0.48026(52) 0.37854(24)
C55 C 0.00099(60) 0.57222(51) 0.35098(25)
C56 C 0.04502(63) 0.66496(54) 0.37108(27)
C57 C 0.00358(69) 0.69747(58) 0.42292(26)
H61 H 0.06591(69) 0.74407(58) 0.43026(26)
H62 H -0.00470(69) 0.63247(58) 0.44817(26)
C58 C -0.11928(79) 0.75552(66) 0.42714(31)
H63 H -0.14133(79) 0.77294(66) 0.46118(31)
H64 H -0.11139(79) 0.82171(66) 0.40264(31)
H65 H -0.18280(79) 0.70883(66) 0.42075(31)
C59 C 0.12151(61) 0.72572(51) 0.33103(25)
C60 C 0.17621(65) 0.83715(54) 0.33156(27)
H66 H 0.26162(65) 0.84217(54) 0.31475(27)
H67 H 0.17289(65) 0.84762(54) 0.36649(27)
C61 C 0.10203(70) 0.92749(54) 0.30582(34)
H68 H 0.13614(70) 0.99851(54) 0.30648(34)
H69 H 0.10624(70) 0.91682(54) 0.27087(34)
H70 H 0.01690(70) 0.92231(54) 0.32298(34)
C62 C 0.12710(60) 0.66849(49) 0.28750(24)
C63 C 0.20634(61) 0.68935(50) 0.23980(26)
C64 C 0.20377(61) 0.64531(51) 0.19741(25)
C65 C 0.29311(59) 0.65981(51) 0.14880(26)
C66 C 0.41871(65) 0.71900(56) 0.13568(28)
H71 H 0.47658(65) 0.67506(56) 0.11688(28)
H72 H 0.44787(65) 0.72688(56) 0.16668(28)
C67 C 0.41680(81) 0.83309(59) 0.10428(29)
H73 H 0.49802(81) 0.86742(59) 0.09632(29)
H74 H 0.38892(81) 0.82519(59) 0.07302(29)
H75 H 0.35995(81) 0.87748(59) 0.12327(29)
C68 C 0.24383(60) 0.60758(51) 0.11587(26)
C69 C 0.31154(63) 0.59107(56) 0.06431(26)
H76 H 0.37373(63) 0.64822(56) 0.05208(26)
H77 H 0.25480(63) 0.59564(56) 0.04057(26)
C70 C 0.37342(68) 0.47949(60) 0.06681(29)
H78 H 0.41742(68) 0.47029(60) 0.03351(29)
H79 H 0.43063(68) 0.47560(60) 0.09034(29)
H80 H 0.31079(68) 0.42262(60) 0.07874(29)
C71 C 0.12365(59) 0.56272(50) 0.14346(24)
C72 C 0.02944(62) 0.51894(50) 0.12314(25)
N13 N -0.35808(53) 0.24563(43) 0.26662(21)
O9 O -0.34705(41) 0.16112(34) 0.24765(17)
O10 O -0.45504(43) 0.27442(37) 0.29127(19)
N14 N -0.08305(61) 0.46815(46) 0.43465(25)
O11 O -0.18262(53) 0.49605(43) 0.45723(21)
O12 O 0.00377(54) 0.43001(41) 0.45481(20)
N15 N 0.31045(54) 0.76643(48) 0.23934(23)
O13 O 0.39632(45) 0.72961(41) 0.26077(21)
O14 O 0.30795(47) 0.86066(38) 0.21693(20)
N16 N 0.05354(50) 0.52004(48) 0.06797(22)
O15 O 0.03886(44) 0.60585(38) 0.03926(18)
O16 O 0.08892(44) 0.43396(37) 0.05218(18)
Co2_2 Co -1.01542(9) 0.49926(8) 0.25075(4)
O1_2 O 0.15071(40) 0.36952(34) 0.24610(17)
loop_
_geom_bond_atom_site_label_1
_geom_bond_atom_site_label_2
_geom_bond_site_symmetry_1
_geom_bond_site_symmetry_2
Co1 N1 1_555 1_555
N1 C1 1_555 1_555
N2 Co1 1_555 1_555
N3 Co1 1_555 1_555
N4 Co1 1_555 1_555
C1 C2 1_555 1_555
C2 C3 1_555 1_555
C3 H1 1_555 1_555
H2 C3 1_555 1_555
C4 C3 1_555 1_555
H3 C4 1_555 1_555
H4 C4 1_555 1_555
H5 C4 1_555 1_555
C5 C2 1_555 1_555
C6 C5 1_555 1_555
H6 C6 1_555 1_555
H7 C6 1_555 1_555
C7 C6 1_555 1_555
H8 C7 1_555 1_555
H9 C7 1_555 1_555
H10 C7 1_555 1_555
C8 N1 1_555 1_555
C9 C8 1_555 1_555
C10 N2 1_555 1_555
C11 C10 1_555 1_555
C12 C11 1_555 1_555
H11 C12 1_555 1_555
H12 C12 1_555 1_555
C13 C12 1_555 1_555
H13 C13 1_555 1_555
H14 C13 1_555 1_555
H15 C13 1_555 1_555
C14 C11 1_555 1_555
C15 C14 1_555 1_555
H16 C15 1_555 1_555
H17 C15 1_555 1_555
C16 C15 1_555 1_555
H18 C16 1_555 1_555
H19 C16 1_555 1_555
H20 C16 1_555 1_555
C17 N2 1_555 1_555
C18 C17 1_555 1_555
C19 N3 1_555 1_555
C20 C19 1_555 1_555
C21 C20 1_555 1_555
H21 C21 1_555 1_555
H22 C21 1_555 1_555
C22 C21 1_555 1_555
H23 C22 1_555 1_555
H24 C22 1_555 1_555
H25 C22 1_555 1_555
C23 C20 1_555 1_555
C24 C23 1_555 1_555
H26 C24 1_555 1_555
H27 C24 1_555 1_555
C25 C24 1_555 1_555
H28 C25 1_555 1_555
H29 C25 1_555 1_555
H30 C25 1_555 1_555
C26 N3 1_555 1_555
C27 C26 1_555 1_555
C28 N4 1_555 1_555
C29 C28 1_555 1_555
C30 C29 1_555 1_555
H31 C30 1_555 1_555
H32 C30 1_555 1_555
C31 C30 1_555 1_555
H33 C31 1_555 1_555
H34 C31 1_555 1_555
H35 C31 1_555 1_555
C32 C29 1_555 1_555
C33 C32 1_555 1_555
H36 C33 1_555 1_555
H37 C33 1_555 1_555
C34 C33 1_555 1_555
H38 C34 1_555 1_555
H39 C34 1_555 1_555
H40 C34 1_555 1_555
C35 N4 1_555 1_555
C36 C1 1_555 1_555
N5 C9 1_555 1_555
O1 N5 1_555 1_555
O2 N5 1_555 1_555
N6 C18 1_555 1_555
O3 N6 1_555 1_555
O4 N6 1_555 1_555
N7 C27 1_555 1_555
O5 N7 1_555 1_555
O6 N7 1_555 1_555
N8 C36 1_555 1_555
O7 N8 1_555 1_555
O8 N8 1_555 1_555
Co2 N9 1_555 1_555
N9 C37 1_555 1_555
N10 Co2 1_555 1_555
N11 Co2 1_555 1_555
N12 Co2 1_555 1_555
C37 C38 1_555 1_555
C38 C39 1_555 1_555
C39 H41 1_555 1_555
H42 C39 1_555 1_555
C40 C39 1_555 1_555
H43 C40 1_555 1_555
H44 C40 1_555 1_555
H45 C40 1_555 1_555
C41 C38 1_555 1_555
C42 C41 1_555 1_555
H46 C42 1_555 1_555
H47 C42 1_555 1_555
C43 C42 1_555 1_555
H48 C43 1_555 1_555
H49 C43 1_555 1_555
H50 C43 1_555 1_555
C44 N9 1_555 1_555
C45 C44 1_555 1_555
C46 N10 1_555 1_555
C47 C46 1_555 1_555
C48 C47 1_555 1_555
H51 C48 1_555 1_555
H52 C48 1_555 1_555
C49 C48 1_555 1_555
H53 C49 1_555 1_555
H54 C49 1_555 1_555
H55 C49 1_555 1_555
C50 C47 1_555 1_555
C51 C50 1_555 1_555
H56 C51 1_555 1_555
H57 C51 1_555 1_555
C52 C51 1_555 1_555
H58 C52 1_555 1_555
H59 C52 1_555 1_555
H60 C52 1_555 1_555
C53 N10 1_555 1_555
C54 C53 1_555 1_555
C55 N11 1_555 1_555
C56 C55 1_555 1_555
C57 C56 1_555 1_555
H61 C57 1_555 1_555
H62 C57 1_555 1_555
C58 C57 1_555 1_555
H63 C58 1_555 1_555
H64 C58 1_555 1_555
H65 C58 1_555 1_555
C59 C56 1_555 1_555
C60 C59 1_555 1_555
H66 C60 1_555 1_555
H67 C60 1_555 1_555
C61 C60 1_555 1_555
H68 C61 1_555 1_555
H69 C61 1_555 1_555
H70 C61 1_555 1_555
C62 N11 1_555 1_555
C63 C62 1_555 1_555
C64 N12 1_555 1_555
C65 C64 1_555 1_555
C66 C65 1_555 1_555
H71 C66 1_555 1_555
H72 C66 1_555 1_555
C67 C66 1_555 1_555
H73 C67 1_555 1_555
H74 C67 1_555 1_555
H75 C67 1_555 1_555
C68 C65 1_555 1_555
C69 C68 1_555 1_555
H76 C69 1_555 1_555
H77 C69 1_555 1_555
C70 C69 1_555 1_555
H78 C70 1_555 1_555
H79 C70 1_555 1_555
H80 C70 1_555 1_555
C71 N12 1_555 1_555
C72 C37 1_555 1_555
N13 C45 1_555 1_555
O9 Co1 1_555 1_555
O10 N13 1_555 1_555
N14 C54 1_555 1_555
O11 N14 1_555 1_555
O12 N14 1_555 1_555
N15 C63 1_555 1_555
O13 N15 1_555 1_555
O14 N15 1_555 1_555
N16 C72 1_555 1_555
O15 N16 1_555 1_555
O16 N16 1_555 1_555
Co2_2 O1 1_555 1_555
O1_2 Co2 1_555 1_555
C5 C8 1_555 1_555
C9 C10 1_555 1_555
C14 C17 1_555 1_555
C18 C19 1_555 1_555
C23 C26 1_555 1_555
C27 C28 1_555 1_555
C32 C35 1_555 1_555
C35 C36 1_555 1_555
C41 C44 1_555 1_555
C45 C46 1_555 1_555
C50 C53 1_555 1_555
C54 C55 1_555 1_555
C59 C62 1_555 1_555
C63 C64 1_555 1_555
C68 C71 1_555 1_555
C71 C72 1_555 1_555
N13 O9 1_555 1_555

#END
