
#######################################################################
#
#                 Cambridge Crystallographic Data Centre
#                                CCDC 
#
#######################################################################
#
# If this CIF has been generated from an entry in the Cambridge 
# Structural Database, then it will include bibliographic, chemical, 
# crystal, experimental, refinement or atomic coordinate data resulting 
# from the CCDC's data processing and validation procedures.
#
#######################################################################

data_LIYHAE
_symmetry_cell_setting           triclinic
_symmetry_space_group_name_H-M   'P -1'
_symmetry_Int_Tables_number      2
_space_group_name_Hall           '-P 1'
loop_
_symmetry_equiv_pos_site_id
_symmetry_equiv_pos_as_xyz
1 x,y,z
2 -x,-y,-z
_cell_length_a                   9.4910(14)
_cell_length_b                   10.1472(15)
_cell_length_c                   14.520(2)
_cell_angle_alpha                87.802(3)
_cell_angle_beta                 89.295(3)
_cell_angle_gamma                74.722(3)
_cell_volume                     1347.96
loop_
_atom_site_label
_atom_site_type_symbol
_atom_site_fract_x
_atom_site_fract_y
_atom_site_fract_z
Co1 Co 0.14164(7) 0.11868(6) -0.03453(4)
O1 O 0.3387(4) 0.1985(3) -0.0767(3)
N1 N 0.2167(4) 0.0915(4) 0.1050(3)
C1 C 0.3532(6) 0.0156(5) 0.1230(4)
H1 H 0.4094 -0.0271 0.0742
O2 O 0.1292(4) 0.3315(3) -0.0348(3)
N2 N -0.9105(5) 1.1232(4) 0.8211(3)
C2 C 0.4143(6) -0.0025(6) 0.2093(4)
H2 H 0.5089 -0.0568 0.2189
O3 O 0.6654(6) 0.4362(5) -0.2456(4)
N3 N 0.0264(6) 0.3429(5) 0.3212(3)
H3 H 0.0243 0.3719 0.2646
C3 C 0.3321(7) 0.0616(6) 0.2813(4)
H4 H 0.3702 0.0505 0.3407
C4 C 0.1926(6) 0.1428(5) 0.2649(3)
N4 N -0.7456(6) 0.9228(5) 0.5316(3)
H5 H -0.7859 1.0007 0.5053
O4 O 0.6618(9) 0.6354(7) -0.2122(7)
O5 O 0.0731(4) 0.8298(3) -0.0006(3)
C5 C 0.1381(6) 0.1542(5) 0.1762(3)
H6 H 0.0434 0.2073 0.1653
N5 N 0.6143(7) 0.5381(5) -0.2040(6)
O6 O 0.2500(4) 0.9194(3) -0.0494(2)
C6 C 0.1046(6) 0.2184(6) 0.3429(4)
C7 C -0.0568(9) 0.4337(8) 0.3895(5)
H7 H -0.0694 0.3796 0.4440
H8 H -0.0014 0.4964 0.4071
O7 O 0.1104(6) 0.1656(5) 0.4201(3)
C8 C -0.1996(8) 0.5120(8) 0.3570(5)
H9 H -0.2578 0.4502 0.3420
H10 H -0.1885 0.5646 0.3014
O8 O -0.6967(6) 0.8023(5) 0.6660(3)
C9 C -0.2790(9) 0.6099(8) 0.4318(5)
H11 H -0.2718 0.5588 0.4902
H12 H -0.2287 0.6806 0.4384
C10 C -0.4287(9) 0.6732(9) 0.4135(6)
H13 H -0.4810 0.6030 0.4133
H14 H -0.4368 0.7163 0.3523
C11 C -0.5041(8) 0.7822(8) 0.4832(5)
H15 H -0.4737 0.7493 0.5453
H16 H -0.4748 0.8657 0.4706
C12 C -0.6646(8) 0.8107(7) 0.4759(4)
H17 H -0.6922 0.8322 0.4119
H18 H -0.6932 0.7286 0.4945
C13 C -0.7582(7) 0.9062(6) 0.6233(4)
C14 C -0.8294(6) 1.0291(5) 0.7659(3)
H19 H -0.7519 0.9627 0.7920
C15 C -0.8540(6) 1.0249(5) 0.6729(4)
C16 C -0.9688(7) 1.1239(6) 0.6338(4)
H20 H -0.9883 1.1251 0.5711
C17 C -1.0530(7) 1.2201(7) 0.6894(4)
H21 H -1.1313 1.2874 0.6649
C18 C -1.0208(6) 1.2164(6) 0.7819(4)
H22 H -1.0791 1.2823 0.8187
C19 C 0.3137(5) 0.4406(4) -0.0798(3)
C20 C 0.2337(5) 0.5669(4) -0.0495(3)
H23 H 0.1465 0.5739 -0.0177
C21 C 0.2835(5) 0.6832(4) -0.0664(3)
C22 C 0.4095(5) 0.6736(5) -0.1157(4)
H24 H 0.4441 0.7503 -0.1275
C23 C 0.4845(6) 0.5476(5) -0.1475(4)
C24 C 0.4403(5) 0.4304(5) -0.1297(4)
H25 H 0.4943 0.3467 -0.1508
C25 C 0.2582(5) 0.3146(4) -0.0629(3)
C26 C 0.1942(5) 0.8213(4) -0.0357(3)
Co1_2 Co -0.85836(7) 1.11868(6) 0.96547(4)
Co1_3 Co 0.14164(7) 1.11868(6) -0.03453(4)
Co1A Co -0.14164(7) 0.88132(6) 0.03453(4)
N2_2 N 0.0895(5) 0.1232(4) -0.1789(3)
O5A O -0.0731(4) 0.1702(3) 0.0006(3)
O6_2 O 0.2500(4) -0.0806(3) -0.0494(2)
O9 O 0.9327(10) 0.5329(8) -0.1453(5)
H26 H 0.9876 0.4521 -0.1388
H27 H 0.9141 0.5648 -0.0920
loop_
_geom_bond_atom_site_label_1
_geom_bond_atom_site_label_2
_geom_bond_site_symmetry_1
_geom_bond_site_symmetry_2
Co1 O1 1_555 1_555
O1 C25 1_555 1_555
N1 Co1 1_555 1_555
C1 N1 1_555 1_555
H1 C1 1_555 1_555
O2 Co1 1_555 1_555
N2 C14 1_555 1_555
C2 C1 1_555 1_555
H2 C2 1_555 1_555
O3 N5 1_555 1_555
N3 H3 1_555 1_555
C3 C2 1_555 1_555
H4 C3 1_555 1_555
C4 C3 1_555 1_555
N4 H5 1_555 1_555
O4 N5 1_555 1_555
O5 C26 1_555 1_555
C5 N1 1_555 1_555
H6 C5 1_555 1_555
N5 C23 1_555 1_555
O6 C26 1_555 1_555
C6 N3 1_555 1_555
C7 N3 1_555 1_555
H7 C7 1_555 1_555
H8 C7 1_555 1_555
O7 C6 1_555 1_555
C8 C7 1_555 1_555
H9 C8 1_555 1_555
H10 C8 1_555 1_555
O8 C13 1_555 1_555
C9 C8 1_555 1_555
H11 C9 1_555 1_555
H12 C9 1_555 1_555
C10 C9 1_555 1_555
H13 C10 1_555 1_555
H14 C10 1_555 1_555
C11 C10 1_555 1_555
H15 C11 1_555 1_555
H16 C11 1_555 1_555
C12 N4 1_555 1_555
H17 C12 1_555 1_555
H18 C12 1_555 1_555
C13 N4 1_555 1_555
C14 H19 1_555 1_555
C15 C13 1_555 1_555
C16 C15 1_555 1_555
H20 C16 1_555 1_555
C17 C16 1_555 1_555
H21 C17 1_555 1_555
C18 N2 1_555 1_555
H22 C18 1_555 1_555
C19 C20 1_555 1_555
C20 H23 1_555 1_555
C21 C20 1_555 1_555
C22 C21 1_555 1_555
H24 C22 1_555 1_555
C23 C22 1_555 1_555
C24 C19 1_555 1_555
H25 C24 1_555 1_555
C25 O2 1_555 1_555
C26 C21 1_555 1_555
O9 H26 1_555 1_555
H27 O9 1_555 1_555
Co1_2 N2 1_555 1_555
Co1_3 O6 1_555 1_555
Co1A O5 1_555 1_555
N2_2 Co1 1_555 1_555
O5A Co1 1_555 1_555
O6_2 Co1 1_555 1_555
C4 C5 1_555 1_555
C4 C6 1_555 1_555
C11 C12 1_555 1_555
C14 C15 1_555 1_555
C17 C18 1_555 1_555
C19 C25 1_555 1_555
C23 C24 1_555 1_555

#END
