
#######################################################################
#
#                 Cambridge Crystallographic Data Centre
#                                CCDC 
#
#######################################################################
#
# If this CIF has been generated from an entry in the Cambridge 
# Structural Database, then it will include bibliographic, chemical, 
# crystal, experimental, refinement or atomic coordinate data resulting 
# from the CCDC's data processing and validation procedures.
#
#######################################################################

data_LIYKOT
_symmetry_cell_setting           monoclinic
_symmetry_space_group_name_H-M   'C 2/c'
_symmetry_Int_Tables_number      15
_space_group_name_Hall           '-C 2yn'
loop_
_symmetry_equiv_pos_site_id
_symmetry_equiv_pos_as_xyz
1 x,y,z
2 1/2+x,1/2+y,z
3 x,-y,1/2+z
4 1/2+x,1/2-y,1/2+z
5 -x,-y,-z
6 1/2-x,1/2-y,-z
7 -x,y,1/2-z
8 1/2-x,1/2+y,1/2-z
_cell_length_a                   37.605(7)
_cell_length_b                   7.7797(6)
_cell_length_c                   10.347(2)
_cell_angle_alpha                90
_cell_angle_beta                 90.82(2)
_cell_angle_gamma                90
_cell_volume                     3026.76
loop_
_atom_site_label
_atom_site_type_symbol
_atom_site_fract_x
_atom_site_fract_y
_atom_site_fract_z
Zn1 Zn -0.5000 0.25161(6) -0.2500
O1 O -0.46125(6) -0.0710(3) -0.1704(2)
O2 O -0.46150(5) 0.1215(2) -0.3289(2)
O3 O -0.52574(6) 0.4262(3) -0.3516(2)
C1 C -0.53615(7) 0.3958(4) -0.4690(3)
O4 O -0.52449(5) 0.2755(2) -0.5337(2)
C2 C -0.44749(7) -0.0017(4) -0.2642(3)
C3 C -0.56481(7) 0.5132(4) -0.5199(3)
H1 H -0.5669 0.5014 -0.6130
H2 H -0.5587 0.6316 -0.5003
C4 C -0.41184(9) -0.0638(6) -0.3111(4)
H3 H -0.4108 -0.1879 -0.3028
H4 H -0.4097 -0.0359 -0.4020
C5 C -0.60017(9) 0.4678(6) -0.4580(4)
H5 H -0.6036 0.3445 -0.4638
H6 H -0.5989 0.4978 -0.3671
C6 C -0.63178(10) 0.5555(8) -0.5181(6)
H7 H -0.6323 0.5320 -0.6101
H8 H -0.6293 0.6787 -0.5067
C7 C -0.38206(10) 0.0110(8) -0.2405(6)
H9 H -0.3839 -0.0192 -0.1499
H10 H -0.3834 0.1352 -0.2471
C8 C -0.34586(11) -0.0485(9) -0.2897(8)
H11 H -0.3449 -0.1729 -0.2845
H12 H -0.3443 -0.0176 -0.3803
C9 C -0.66664(12) 0.4985(11) -0.4607(9)
H13 H -0.6681 0.3741 -0.4641
H14 H -0.6672 0.5326 -0.3705
C10 C -0.31565(17) 0.0188(15) -0.2237(12)
H15 H -0.3170 -0.0116 -0.1330
H16 H -0.3161 0.1432 -0.2297
C11 C -0.69795(17) 0.5726(17) -0.5292(12)
H17 H -0.6981 0.6950 -0.5178
H18 H -0.7193 0.5246 -0.4947
H19 H -0.6967 0.5462 -0.6197
C12 C -0.28023(14) -0.0467(15) -0.2768(14)
H20 H -0.2817 -0.1685 -0.2908
H21 H -0.2614 -0.0224 -0.2158
H22 H -0.2754 0.0099 -0.3571
Na1 Na -0.5000 0.00000 0.0000
Na2 Na -0.5000 0.6857(2) -0.2500
O2F O -0.53850(5) 0.1215(2) -0.1711(2)
O3F O -0.47426(6) 0.4262(3) -0.1484(2)
Na1B Na -0.5000 0.00000 -0.5000
O1F O -0.53875(6) -0.0710(3) -0.3296(2)
C1F C -0.46385(7) 0.3958(4) -0.0310(3)
O4F O -0.47551(5) 0.2755(2) 0.0337(2)
C2F C -0.55251(7) -0.0017(4) -0.2358(3)
C3F C -0.43519(7) 0.5132(4) 0.0199(3)
H1F H -0.4331 0.5014 0.1130
H2F H -0.4413 0.6316 0.0003
C4F C -0.58816(9) -0.0638(6) -0.1889(4)
H3F H -0.5892 -0.1879 -0.1972
H4F H -0.5903 -0.0359 -0.0980
C5F C -0.39983(9) 0.4678(6) -0.0420(4)
H5F H -0.3964 0.3445 -0.0362
H6F H -0.4011 0.4978 -0.1329
C6F C -0.36822(10) 0.5555(8) 0.0181(6)
H7F H -0.3677 0.5320 0.1101
H8F H -0.3707 0.6787 0.0067
C7F C -0.61794(10) 0.0110(8) -0.2595(6)
H9F H -0.6161 -0.0192 -0.3501
H10F H -0.6166 0.1352 -0.2529
C8F C -0.65414(11) -0.0485(9) -0.2103(8)
H11F H -0.6551 -0.1729 -0.2155
H12F H -0.6557 -0.0176 -0.1197
C9F C -0.33336(12) 0.4985(11) -0.0393(9)
H13F H -0.3319 0.3741 -0.0359
H14F H -0.3328 0.5326 -0.1295
C10F C -0.68435(17) 0.0188(15) -0.2763(12)
H15F H -0.6830 -0.0116 -0.3670
H16F H -0.6839 0.1432 -0.2703
C11F C -0.30205(17) 0.5726(17) 0.0292(12)
H17F H -0.3019 0.6950 0.0178
H18F H -0.2807 0.5246 -0.0053
H19F H -0.3033 0.5462 0.1197
C12F C -0.71977(14) -0.0467(15) -0.2232(14)
H20F H -0.7183 -0.1685 -0.2092
H21F H -0.7386 -0.0224 -0.2842
H22F H -0.7246 0.0099 -0.1429
O1D O -0.53875(6) 0.0710(3) 0.1704(2)
O2B O -0.46150(5) -0.1215(2) 0.1711(2)
O4B O -0.52449(5) -0.2755(2) -0.0337(2)
Na2B Na -0.5000 0.3143(2) -0.7500
Na2B_2 Na -0.5000 0.3143(2) 0.2500
Na2_2 Na -0.5000 -0.3143(2) -0.2500
O1_2 O -0.46125(6) 0.9290(3) -0.1704(2)
O1F_2 O -0.53875(6) 0.9290(3) -0.3296(2)
O4B_2 O -0.52449(5) 0.7245(2) -0.0337(2)
O4D O -0.47551(5) 0.7245(2) -0.4663(2)
loop_
_geom_bond_atom_site_label_1
_geom_bond_atom_site_label_2
_geom_bond_site_symmetry_1
_geom_bond_site_symmetry_2
Zn1 O2 1_555 1_555
O1 C2 1_555 1_555
O2 C2 1_555 1_555
O3 Zn1 1_555 1_555
C1 O3 1_555 1_555
O4 C1 1_555 1_555
C2 C4 1_555 1_555
C3 C1 1_555 1_555
H1 C3 1_555 1_555
H2 C3 1_555 1_555
C4 H3 1_555 1_555
H4 C4 1_555 1_555
C5 C3 1_555 1_555
H5 C5 1_555 1_555
H6 C5 1_555 1_555
C6 C5 1_555 1_555
H7 C6 1_555 1_555
H8 C6 1_555 1_555
C7 C4 1_555 1_555
H9 C7 1_555 1_555
H10 C7 1_555 1_555
C8 C7 1_555 1_555
H11 C8 1_555 1_555
H12 C8 1_555 1_555
C9 C6 1_555 1_555
H13 C9 1_555 1_555
H14 C9 1_555 1_555
C10 C8 1_555 1_555
H15 C10 1_555 1_555
H16 C10 1_555 1_555
C11 C9 1_555 1_555
H17 C11 1_555 1_555
H18 C11 1_555 1_555
H19 C11 1_555 1_555
C12 C10 1_555 1_555
H20 C12 1_555 1_555
H21 C12 1_555 1_555
H22 C12 1_555 1_555
Na1 O1 1_555 1_555
Na2 O3 1_555 1_555
O2F Zn1 1_555 1_555
O3F Zn1 1_555 1_555
Na1B O2 1_555 1_555
O1F Na1B 1_555 1_555
C1F O3F 1_555 1_555
O4F Na1 1_555 1_555
C2F O2F 1_555 1_555
C3F C1F 1_555 1_555
H1F C3F 1_555 1_555
H2F C3F 1_555 1_555
C4F C2F 1_555 1_555
H3F C4F 1_555 1_555
H4F C4F 1_555 1_555
C5F C3F 1_555 1_555
H5F C5F 1_555 1_555
H6F C5F 1_555 1_555
C6F C5F 1_555 1_555
H7F C6F 1_555 1_555
H8F C6F 1_555 1_555
C7F C4F 1_555 1_555
H9F C7F 1_555 1_555
H10F C7F 1_555 1_555
C8F C7F 1_555 1_555
H11F C8F 1_555 1_555
H12F C8F 1_555 1_555
C9F C6F 1_555 1_555
H13F C9F 1_555 1_555
H14F C9F 1_555 1_555
C10F C8F 1_555 1_555
H15F C10F 1_555 1_555
H16F C10F 1_555 1_555
C11F C9F 1_555 1_555
H17F C11F 1_555 1_555
H18F C11F 1_555 1_555
H19F C11F 1_555 1_555
C12F C10F 1_555 1_555
H20F C12F 1_555 1_555
H21F C12F 1_555 1_555
H22F C12F 1_555 1_555
O1D Na1 1_555 1_555
O2B Na1 1_555 1_555
O4B Na1 1_555 1_555
Na2B O4 1_555 1_555
Na2B_2 O4F 1_555 1_555
Na2_2 O1 1_555 1_555
O1_2 Na2 1_555 1_555
O1F_2 Na2 1_555 1_555
O4B_2 Na2 1_555 1_555
O4D Na2 1_555 1_555
O4 Na1B 1_555 1_555
Na1 O2F 1_555 1_555
Na2 O3F 1_555 1_555
O1F C2F 1_555 1_555
O1F Na2_2 1_555 1_555
C1F O4F 1_555 1_555
O1D Na2B_2 1_555 1_555
O4B Na2_2 1_555 1_555

#END
