
#######################################################################
#
#                 Cambridge Crystallographic Data Centre
#                                CCDC 
#
#######################################################################
#
# If this CIF has been generated from an entry in the Cambridge 
# Structural Database, then it will include bibliographic, chemical, 
# crystal, experimental, refinement or atomic coordinate data resulting 
# from the CCDC's data processing and validation procedures.
#
#######################################################################

data_LIYQUH
_symmetry_cell_setting           monoclinic
_symmetry_space_group_name_H-M   'P 21'
_symmetry_Int_Tables_number      4
_space_group_name_Hall           'P 2yb'
loop_
_symmetry_equiv_pos_site_id
_symmetry_equiv_pos_as_xyz
1 x,y,z
2 -x,1/2+y,-z
_cell_length_a                   15.4579(16)
_cell_length_b                   19.1439(17)
_cell_length_c                   17.1090(10)
_cell_angle_alpha                90
_cell_angle_beta                 105.241(6)
_cell_angle_gamma                90
_cell_volume                     4884.9
loop_
_atom_site_label
_atom_site_type_symbol
_atom_site_fract_x
_atom_site_fract_y
_atom_site_fract_z
U1 U 0.34546(6) -0.03718(6) 0.36200(5)
U2 U 0.46000(7) -0.04940(6) 0.16498(6)
U3 U 0.40095(7) 0.45162(6) 0.13385(5)
U4 U 0.32555(7) 0.46379(6) 0.35399(6)
O1 O 0.4051(14) -0.0918(9) 0.4441(12)
O2 O 0.2873(13) 0.0182(9) 0.2892(10)
O3 O 0.5546(14) -0.1028(11) 0.1836(12)
O4 O 0.3601(14) 0.0052(12) 0.1324(9)
O5 O 0.5006(11) 0.5087(9) 0.1426(9)
O6 O 0.3071(17) 0.3913(13) 0.1198(13)
O7 O 0.4022(16) 0.5195(10) 0.4270(13)
O8 O 0.2528(11) 0.4098(10) 0.2833(8)
O9 O 0.4607(10) -0.0473(8) 0.3015(9)
H1 H 0.5176 -0.0379 0.3296
O10 O 0.4141(10) 0.4605(9) 0.2683(8)
H2 H 0.4611 0.4303 0.2870
O11 O 0.2980(13) -0.1346(9) 0.2714(11)
O12 O 0.3703(14) -0.1438(10) 0.1766(10)
O13 O 0.3018(18) -0.4582(12) 0.1435(14)
O14 O 0.2735(15) -0.4435(10) 0.2591(13)
O15 O 0.3321(11) 0.0510(9) 0.4660(9)
O16 O 0.4417(12) 0.0627(9) 0.4124(12)
O17 O 0.3309(15) 0.3805(12) 0.4739(11)
O18 O 0.4303(11) 0.3632(9) 0.4012(8)
O19 O 0.5388(13) 0.0353(10) 0.0967(11)
O20 O 0.5417(12) 0.0541(10) 0.2211(8)
O21 O 0.4746(13) 0.3596(9) 0.0673(10)
O22 O 0.5025(12) 0.3580(10) 0.1970(9)
O23 O 0.2062(12) -0.0626(10) 0.3950(9)
O24 O 0.4288(12) -0.0902(10) 0.0310(8)
H3 H 0.4143 -0.1294 0.0379
H4 H 0.3816 -0.0614 -0.0050
O25 O 0.3573(13) 0.4855(14) -0.0096(11)
H5 H 0.4051 0.4904 -0.0262
H6 H 0.3397 0.4381 -0.0286
O26 O 0.1998(15) 0.4969(13) 0.4047(12)
C1 C 0.252(2) -0.2254(18) 0.179(2)
C2 C 0.3052(19) -0.2951(13) 0.1896(16)
C3 C 0.2315(18) -0.3496(13) 0.170(2)
H7 H 0.2049 -0.3511 0.1101
C4 C 0.161(2) -0.3276(11) 0.2105(18)
H8 H 0.1676 -0.3525 0.2624
H9 H 0.1002 -0.3352 0.1750
C5 C 0.183(2) -0.2502(11) 0.2238(18)
H10 H 0.2065 -0.2412 0.2825
H11 H 0.1268 -0.2228 0.2044
C6 C 0.311(2) -0.1658(19) 0.213(2)
C7 C 0.276(2) -0.4194(15) 0.198(2)
C8 C 0.351(2) -0.3011(16) 0.1210(18)
H12 H 0.3746 -0.2560 0.1109
H13 H 0.3074 -0.3178 0.0716
H14 H 0.4003 -0.3353 0.1363
C9 C 0.381(2) -0.3000(17) 0.2609(18)
H15 H 0.3595 -0.3044 0.3095
H16 H 0.4182 -0.2579 0.2650
H17 H 0.4174 -0.3411 0.2561
C10 C 0.215(2) -0.2104(17) 0.087(2)
H18 H 0.2024 -0.1604 0.0786
H19 H 0.1599 -0.2372 0.0656
H20 H 0.2599 -0.2243 0.0585
C11 C 0.4249(15) 0.1552(10) 0.5061(12)
H21 H 0.4175 0.1488 0.5620
C12 C 0.3694(16) 0.2152(13) 0.4685(12)
C13 C 0.4198(17) 0.2778(13) 0.5025(13)
C14 C 0.5154(17) 0.2571(14) 0.4999(15)
H22 H 0.5602 0.2819 0.5430
H23 H 0.5254 0.2699 0.4469
C15 C 0.526(2) 0.1749(16) 0.513(2)
H24 H 0.5483 0.1520 0.4708
H25 H 0.5650 0.1631 0.5673
C16 C 0.3990(17) 0.0873(10) 0.4597(12)
C17 C 0.3925(19) 0.3449(12) 0.4555(16)
C18 C 0.284(2) 0.216(2) 0.487(2)
H26 H 0.2478 0.1760 0.4616
H27 H 0.2518 0.2595 0.4667
H28 H 0.2927 0.2136 0.5461
C19 C 0.355(3) 0.2123(18) 0.3718(16)
H29 H 0.4100 0.2261 0.3584
H30 H 0.3061 0.2443 0.3457
H31 H 0.3384 0.1646 0.3525
C20 C 0.4195(18) 0.2907(12) 0.5913(12)
H32 H 0.3600 0.3068 0.5934
H33 H 0.4643 0.3264 0.6148
H34 H 0.4342 0.2472 0.6221
C21 C 0.597(2) 0.1452(17) 0.1500(19)
H35 H 0.6551 0.1451 0.1926
C22 C 0.542(2) 0.2069(14) 0.1769(15)
C23 C 0.5794(17) 0.2673(12) 0.1371(13)
C24 C 0.582(2) 0.2411(15) 0.0534(14)
H36 H 0.5191 0.2346 0.0226
H37 H 0.6141 0.2682 0.0201
C25 C 0.623(2) 0.1643(17) 0.0717(17)
H38 H 0.5963 0.1316 0.0271
H39 H 0.6893 0.1644 0.0806
C26 C 0.5577(15) 0.0756(12) 0.1585(13)
C27 C 0.5156(14) 0.3330(12) 0.1307(12)
C28 C 0.561(3) 0.2070(18) 0.269(2)
H40 H 0.5401 0.2509 0.2874
H41 H 0.6259 0.2023 0.2935
H42 H 0.5300 0.1677 0.2867
C29 C 0.443(2) 0.1973(16) 0.1373(17)
H43 H 0.4190 0.1608 0.1656
H44 H 0.4352 0.1837 0.0806
H45 H 0.4114 0.2413 0.1395
C30 C 0.6708(18) 0.2818(17) 0.1950(18)
H46 H 0.6629 0.3063 0.2429
H47 H 0.7062 0.3109 0.1677
H48 H 0.7022 0.2376 0.2115
U3_2 U 0.40095(7) -0.54838(6) 0.13385(5)
U4_2 U 0.32555(7) -0.53621(6) 0.35399(6)
O13_2 O 0.3018(18) 0.5418(12) 0.1435(14)
O14_2 O 0.2735(15) 0.5565(10) 0.2591(13)
U5 U 0.08893(7) 0.47235(9) 0.86721(6)
U6 U 0.17222(6) 0.46985(5) 0.65183(5)
U7 U 0.15933(7) 0.96989(6) 0.63444(6)
U8 U 0.05117(7) 0.97232(7) 0.83542(6)
O27 O 0.0031(18) 0.4219(14) 0.8550(15)
O28 O 0.1884(14) 0.5240(13) 0.8864(12)
O29 O 0.1100(13) 0.4120(10) 0.5849(9)
O30 O 0.2425(14) 0.5296(10) 0.7167(13)
O31 O 0.0945(11) 1.0200(9) 0.5550(8)
O32 O 0.2256(11) 0.9231(10) 0.7144(9)
O33 O -0.0516(13) 1.0230(12) 0.8097(10)
O34 O 0.1404(12) 0.9253(10) 0.8529(10)
O35 O 0.0721(11) 0.4607(8) 0.7302(7)
H49 H 0.0130 0.4741 0.6943
O36 O 0.0458(12) 0.9728(11) 0.7031(10)
H50 H -0.0086 0.9594 0.6756
O37 O 0.1823(16) 0.3759(14) 0.8564(12)
O38 O 0.2246(13) 0.3776(9) 0.7411(10)
O39 O 0.2002(14) 0.0678(11) 0.7187(11)
O40 O 0.1436(13) 0.0658(11) 0.8248(11)
O41 O 0.0203(15) 0.5572(15) 0.9369(11)
O42 O -0.0167(14) 0.5616(12) 0.8024(10)
O43 O -0.0220(14) 0.8914(11) 0.9102(10)
O44 O -0.0344(15) 0.8662(10) 0.7815(13)
O45 O 0.1697(11) 0.5479(8) 0.5399(8)
O46 O 0.0664(13) 0.5657(10) 0.5993(11)
O47 O 0.1745(12) 0.8812(9) 0.5333(10)
O48 O 0.0628(11) 0.8694(10) 0.5909(9)
O49 O 0.1348(15) 0.443(2) 1.0078(13)
O50 O 0.2980(11) 0.4426(10) 0.6013(9)
H51 H 0.3191 0.4168 0.5713
H52 H 0.3435 0.4629 0.6161
O51 O 0.2953(12) 0.9983(11) 0.5956(10)
O52 O 0.0859(13) 1.0106(11) 0.9756(13)
H53 H 0.1359 0.9849 1.0116
H54 H 0.1129 1.0501 0.9936
C31 C 0.2628(17) 0.2807(10) 0.8322(12)
H55 H 0.3261 0.2823 0.8280
C32 C 0.2180(16) 0.2213(17) 0.7784(14)
C33 C 0.2527(18) 0.153(2) 0.821(2)
C34 C 0.254(3) 0.1772(17) 0.9121(18)
H56 H 0.1965 0.1644 0.9237
H57 H 0.3030 0.1531 0.9517
C35 C 0.268(2) 0.2578(14) 0.9200(15)
H58 H 0.2199 0.2802 0.9399
H59 H 0.3268 0.2694 0.9571
C36 C 0.2264(15) 0.3527(13) 0.8144(15)
C37 C 0.1938(19) 0.0906(14) 0.7865(14)
C38 C 0.2410(19) 0.2240(16) 0.6970(14)
H60 H 0.2089 0.1866 0.6619
H61 H 0.3057 0.2176 0.7055
H62 H 0.2231 0.2693 0.6713
C39 C 0.1171(15) 0.2287(19) 0.7602(18)
H63 H 0.0979 0.2703 0.7266
H64 H 0.0997 0.2335 0.8110
H65 H 0.0883 0.1872 0.7310
C40 C 0.3467(18) 0.1430(16) 0.8119(18)
H66 H 0.3766 0.1884 0.8136
H67 H 0.3436 0.1202 0.7599
H68 H 0.3808 0.1136 0.8562
C41 C -0.0739(18) 0.6498(13) 0.8671(15)
H69 H -0.1348 0.6402 0.8306
C42 C -0.0335(12) 0.7182(12) 0.8325(11)
C43 C -0.0875(14) 0.7782(10) 0.8551(13)
C44 C -0.078(2) 0.7552(11) 0.9463(14)
H70 H -0.0186 0.7703 0.9806
H71 H -0.1249 0.7780 0.9668
C45 C -0.086(3) 0.6760(11) 0.9511(18)
H72 H -0.1457 0.6626 0.9578
H73 H -0.0390 0.6566 0.9968
C46 C -0.018(3) 0.5883(15) 0.867(2)
C47 C -0.048(2) 0.8500(11) 0.8502(18)
C48 C 0.0654(13) 0.7270(15) 0.8756(14)
H74 H 0.0877 0.7670 0.8517
H75 H 0.0715 0.7323 0.9296
H76 H 0.0971 0.6859 0.8636
C49 C -0.0419(18) 0.7073(13) 0.7414(12)
H77 H -0.1032 0.7061 0.7063
H78 H -0.0105 0.6643 0.7340
H79 H -0.0102 0.7477 0.7272
C50 C -0.1834(14) 0.7728(15) 0.8091(19)
H80 H -0.2208 0.7688 0.8471
H81 H -0.1919 0.7315 0.7742
H82 H -0.2007 0.8147 0.7757
C51 C 0.0753(15) 0.6501(12) 0.4992(14)
H83 H 0.0861 0.6418 0.4448
C52 C 0.1351(11) 0.7172(11) 0.5379(11)
C53 C 0.0825(14) 0.7799(9) 0.4960(10)
C54 C -0.0159(14) 0.7550(10) 0.4922(15)
H84 H -0.0316 0.7698 0.5422
H85 H -0.0585 0.7775 0.4456
C55 C -0.0247(15) 0.6760(10) 0.4837(16)
H86 H -0.0605 0.6627 0.4288
H87 H -0.0532 0.6561 0.5242
C56 C 0.1027(16) 0.5868(13) 0.5465(13)
C57 C 0.1056(17) 0.8485(9) 0.5408(14)
C58 C 0.2273(11) 0.7132(12) 0.5215(13)
H88 H 0.2433 0.7591 0.5043
H89 H 0.2259 0.6789 0.4787
H90 H 0.2718 0.6989 0.5711
C59 C 0.1501(16) 0.7157(13) 0.6307(11)
H91 H 0.1707 0.6692 0.6513
H92 H 0.0937 0.7265 0.6441
H93 H 0.1955 0.7505 0.6557
C60 C 0.0885(15) 0.7831(12) 0.4100(9)
H94 H 0.1477 0.8006 0.4088
H95 H 0.0420 0.8145 0.3789
H96 H 0.0797 0.7362 0.3862
U7_2 U 0.15933(7) -0.03011(6) 0.63444(6)
U8_2 U 0.05117(7) -0.02768(7) 0.83542(6)
O39_2 O 0.2002(14) 1.0678(11) 0.7187(11)
O40_2 O 0.1436(13) 1.0658(11) 0.8248(11)
O53 O 0.6160(12) 0.0569(10) 0.3878(10)
H97 H 0.5679 0.0579 0.4020
H98 H 0.6058 0.0652 0.3347
O54 O 0.5884(12) 0.3926(13) 0.3627(9)
H99 H 0.5436 0.3750 0.3886
H100 H 0.6421 0.3756 0.3839
O55 O -0.0953(13) 0.5354(13) 0.6400(12)
O56 O -0.1070(13) 0.8772(13) 0.6125(11)
H101 H -0.1648 0.8652 0.5735
H102 H -0.0646 0.8741 0.5994
O57 O 0.1822(13) -0.0415(16) 0.1100(12)
O58 O 0.6661(12) 0.4693(18) 0.1024(11)
loop_
_geom_bond_atom_site_label_1
_geom_bond_atom_site_label_2
_geom_bond_site_symmetry_1
_geom_bond_site_symmetry_2
U1 O1 1_555 1_555
U2 O3 1_555 1_555
U3 O5 1_555 1_555
U4 O7 1_555 1_555
O2 U1 1_555 1_555
O4 U2 1_555 1_555
O6 U3 1_555 1_555
O8 U4 1_555 1_555
O9 U1 1_555 1_555
H1 O9 1_555 1_555
O10 U3 1_555 1_555
H2 O10 1_555 1_555
O11 U1 1_555 1_555
O12 U2 1_555 1_555
O13 C7 1_555 1_555
O14 C7 1_555 1_555
O15 U1 1_555 1_555
O16 U1 1_555 1_555
O17 U4 1_555 1_555
O18 U4 1_555 1_555
O19 U2 1_555 1_555
O20 U2 1_555 1_555
O21 U3 1_555 1_555
O22 U3 1_555 1_555
O23 U1 1_555 1_555
O24 U2 1_555 1_555
H3 O24 1_555 1_555
H4 O24 1_555 1_555
O25 U3 1_555 1_555
H5 O25 1_555 1_555
H6 O25 1_555 1_555
O26 U4 1_555 1_555
C1 C2 1_555 1_555
C2 C3 1_555 1_555
C3 H7 1_555 1_555
C4 C3 1_555 1_555
H8 C4 1_555 1_555
H9 C4 1_555 1_555
C5 C1 1_555 1_555
H10 C5 1_555 1_555
H11 C5 1_555 1_555
C6 O11 1_555 1_555
C7 C3 1_555 1_555
C8 C2 1_555 1_555
H12 C8 1_555 1_555
H13 C8 1_555 1_555
H14 C8 1_555 1_555
C9 C2 1_555 1_555
H15 C9 1_555 1_555
H16 C9 1_555 1_555
H17 C9 1_555 1_555
C10 C1 1_555 1_555
H18 C10 1_555 1_555
H19 C10 1_555 1_555
H20 C10 1_555 1_555
C11 H21 1_555 1_555
C12 C11 1_555 1_555
C13 C12 1_555 1_555
C14 C13 1_555 1_555
H22 C14 1_555 1_555
H23 C14 1_555 1_555
C15 C11 1_555 1_555
H24 C15 1_555 1_555
H25 C15 1_555 1_555
C16 O15 1_555 1_555
C17 O17 1_555 1_555
C18 C12 1_555 1_555
H26 C18 1_555 1_555
H27 C18 1_555 1_555
H28 C18 1_555 1_555
C19 C12 1_555 1_555
H29 C19 1_555 1_555
H30 C19 1_555 1_555
H31 C19 1_555 1_555
C20 C13 1_555 1_555
H32 C20 1_555 1_555
H33 C20 1_555 1_555
H34 C20 1_555 1_555
C21 H35 1_555 1_555
C22 C21 1_555 1_555
C23 C22 1_555 1_555
C24 C23 1_555 1_555
H36 C24 1_555 1_555
H37 C24 1_555 1_555
C25 C21 1_555 1_555
H38 C25 1_555 1_555
H39 C25 1_555 1_555
C26 O19 1_555 1_555
C27 O21 1_555 1_555
C28 C22 1_555 1_555
H40 C28 1_555 1_555
H41 C28 1_555 1_555
H42 C28 1_555 1_555
C29 C22 1_555 1_555
H43 C29 1_555 1_555
H44 C29 1_555 1_555
H45 C29 1_555 1_555
C30 C23 1_555 1_555
H46 C30 1_555 1_555
H47 C30 1_555 1_555
H48 C30 1_555 1_555
U5 O27 1_555 1_555
U6 O29 1_555 1_555
U7 O31 1_555 1_555
U8 O33 1_555 1_555
O28 U5 1_555 1_555
O30 U6 1_555 1_555
O32 U7 1_555 1_555
O34 U8 1_555 1_555
O35 U5 1_555 1_555
H49 O35 1_555 1_555
O36 U7 1_555 1_555
H50 O36 1_555 1_555
O37 U5 1_555 1_555
O38 U6 1_555 1_555
O39 C37 1_555 1_555
O40 C37 1_555 1_555
O41 U5 1_555 1_555
O42 U5 1_555 1_555
O43 U8 1_555 1_555
O44 U8 1_555 1_555
O45 U6 1_555 1_555
O46 U6 1_555 1_555
O47 U7 1_555 1_555
O48 U7 1_555 1_555
O49 U5 1_555 1_555
O50 U6 1_555 1_555
H51 O50 1_555 1_555
H52 O50 1_555 1_555
O51 U7 1_555 1_555
O52 U8 1_555 1_555
H53 O52 1_555 1_555
H54 O52 1_555 1_555
C31 H55 1_555 1_555
C32 C31 1_555 1_555
C33 C32 1_555 1_555
C34 C33 1_555 1_555
H56 C34 1_555 1_555
H57 C34 1_555 1_555
C35 C31 1_555 1_555
H58 C35 1_555 1_555
H59 C35 1_555 1_555
C36 O37 1_555 1_555
C37 C33 1_555 1_555
C38 C32 1_555 1_555
H60 C38 1_555 1_555
H61 C38 1_555 1_555
H62 C38 1_555 1_555
C39 C32 1_555 1_555
H63 C39 1_555 1_555
H64 C39 1_555 1_555
H65 C39 1_555 1_555
C40 C33 1_555 1_555
H66 C40 1_555 1_555
H67 C40 1_555 1_555
H68 C40 1_555 1_555
C41 H69 1_555 1_555
C42 C41 1_555 1_555
C43 C42 1_555 1_555
C44 C43 1_555 1_555
H70 C44 1_555 1_555
H71 C44 1_555 1_555
C45 C41 1_555 1_555
H72 C45 1_555 1_555
H73 C45 1_555 1_555
C46 O41 1_555 1_555
C47 O43 1_555 1_555
C48 C42 1_555 1_555
H74 C48 1_555 1_555
H75 C48 1_555 1_555
H76 C48 1_555 1_555
C49 C42 1_555 1_555
H77 C49 1_555 1_555
H78 C49 1_555 1_555
H79 C49 1_555 1_555
C50 C43 1_555 1_555
H80 C50 1_555 1_555
H81 C50 1_555 1_555
H82 C50 1_555 1_555
C51 H83 1_555 1_555
C52 C51 1_555 1_555
C53 C52 1_555 1_555
C54 C53 1_555 1_555
H84 C54 1_555 1_555
H85 C54 1_555 1_555
C55 C51 1_555 1_555
H86 C55 1_555 1_555
H87 C55 1_555 1_555
C56 O45 1_555 1_555
C57 O47 1_555 1_555
C58 C52 1_555 1_555
H88 C58 1_555 1_555
H89 C58 1_555 1_555
H90 C58 1_555 1_555
C59 C52 1_555 1_555
H91 C59 1_555 1_555
H92 C59 1_555 1_555
H93 C59 1_555 1_555
C60 C53 1_555 1_555
H94 C60 1_555 1_555
H95 C60 1_555 1_555
H96 C60 1_555 1_555
O53 H97 1_555 1_555
H98 O53 1_555 1_555
O54 H99 1_555 1_555
H100 O54 1_555 1_555
O56 H101 1_555 1_555
H102 O56 1_555 1_555
U3_2 O13 1_555 1_555
U4_2 O14 1_555 1_555
O13_2 U3 1_555 1_555
O14_2 U4 1_555 1_555
U7_2 O39 1_555 1_555
U8_2 O40 1_555 1_555
O39_2 U7 1_555 1_555
O40_2 U8 1_555 1_555
U2 O9 1_555 1_555
U4 O10 1_555 1_555
O12 C6 1_555 1_555
O16 C16 1_555 1_555
O18 C17 1_555 1_555
O20 C26 1_555 1_555
O22 C27 1_555 1_555
C1 C6 1_555 1_555
C4 C5 1_555 1_555
C11 C16 1_555 1_555
C13 C17 1_555 1_555
C14 C15 1_555 1_555
C21 C26 1_555 1_555
C23 C27 1_555 1_555
C24 C25 1_555 1_555
U6 O35 1_555 1_555
U8 O36 1_555 1_555
O38 C36 1_555 1_555
O42 C46 1_555 1_555
O44 C47 1_555 1_555
O46 C56 1_555 1_555
O48 C57 1_555 1_555
C31 C36 1_555 1_555
C34 C35 1_555 1_555
C41 C46 1_555 1_555
C43 C47 1_555 1_555
C44 C45 1_555 1_555
C51 C56 1_555 1_555
C53 C57 1_555 1_555
C54 C55 1_555 1_555

#END
