
#######################################################################
#
#                 Cambridge Crystallographic Data Centre
#                                CCDC 
#
#######################################################################
#
# If this CIF has been generated from an entry in the Cambridge 
# Structural Database, then it will include bibliographic, chemical, 
# crystal, experimental, refinement or atomic coordinate data resulting 
# from the CCDC's data processing and validation procedures.
#
#######################################################################

data_LIYVOG01
_symmetry_cell_setting           orthorhombic
_symmetry_space_group_name_H-M   'P n a 21'
_symmetry_Int_Tables_number      33
_space_group_name_Hall           'P 2c -2n'
loop_
_symmetry_equiv_pos_site_id
_symmetry_equiv_pos_as_xyz
1 x,y,z
2 -x,-y,1/2+z
3 1/2-x,1/2+y,1/2+z
4 1/2+x,1/2-y,z
_cell_length_a                   7.6924(14)
_cell_length_b                   17.780(3)
_cell_length_c                   6.6656(12)
_cell_angle_alpha                90
_cell_angle_beta                 90
_cell_angle_gamma                90
_cell_volume                     911.66
loop_
_atom_site_label
_atom_site_type_symbol
_atom_site_fract_x
_atom_site_fract_y
_atom_site_fract_z
Cu1 Cu -1.49284(5) -0.503127(19) 0.1089(2)
C1 C -1.4163(5) -0.36872(16) -0.1367(6)
N1 N -1.5266(4) -0.11278(15) -0.4115(6)
O1 O -1.4059(4) -0.40393(13) 0.0242(4)
N2 N -1.2541(4) -0.14110(16) 0.2485(5)
C2 C -1.4029(4) -0.28419(16) -0.1220(6)
O2 O -1.4385(4) -0.39465(13) -0.3095(4)
O3 O -1.5973(4) -0.14272(16) -0.5551(4)
C3 C -1.4611(4) -0.2388(2) -0.2765(5)
H1 H -1.5029 -0.2599 -0.3947
C4 C -1.4561(4) -0.16139(19) -0.2521(5)
O4 O -1.5103(4) -0.04544(13) -0.3923(7)
O5 O -1.2564(3) -0.07265(13) 0.2658(4)
C5 C -1.3899(4) -0.12752(19) -0.0823(5)
H2 H -1.3871 -0.0755 -0.0687
C6 C -1.3285(4) -0.17422(17) 0.0656(5)
O6 O -1.1964(4) -0.18309(14) 0.3752(5)
O7 O -1.3866(3) -0.48593(11) 0.3608(5)
H3 H -1.3262 -0.4460 0.3679
C7 C -1.3352(4) -0.25212(17) 0.0526(5)
H4 H -1.2956 -0.2821 0.1573
Cu1A Cu -1.50716(5) -0.496873(19) -0.3911(2)
Cu1A_2 Cu -1.50716(5) -0.496873(19) 0.6089(2)
Cu1C Cu -0.99284(5) 0.003127(19) 0.1089(2)
O2A O -1.5615(4) -0.60535(13) 0.1905(4)
O5C O -1.7564(3) -0.42735(13) 0.2658(4)
O7A O -1.6134(3) -0.51407(11) -0.1392(5)
loop_
_geom_bond_atom_site_label_1
_geom_bond_atom_site_label_2
_geom_bond_site_symmetry_1
_geom_bond_site_symmetry_2
Cu1 O1 1_555 1_555
C1 O1 1_555 1_555
N1 O3 1_555 1_555
N2 O5 1_555 1_555
C2 C1 1_555 1_555
O2 C1 1_555 1_555
C3 C2 1_555 1_555
H1 C3 1_555 1_555
C4 N1 1_555 1_555
O4 N1 1_555 1_555
O5 Cu1C 1_555 1_555
C5 C4 1_555 1_555
H2 C5 1_555 1_555
C6 N2 1_555 1_555
O6 N2 1_555 1_555
O7 Cu1 1_555 1_555
H3 O7 1_555 1_555
C7 C2 1_555 1_555
H4 C7 1_555 1_555
Cu1A O2 1_555 1_555
Cu1A_2 O7 1_555 1_555
O2A Cu1 1_555 1_555
O5C Cu1 1_555 1_555
O7A Cu1 1_555 1_555
C3 C4 1_555 1_555
C5 C6 1_555 1_555
C6 C7 1_555 1_555
Cu1A O7A 1_555 1_555

#END
