
#######################################################################
#
#                 Cambridge Crystallographic Data Centre
#                                CCDC 
#
#######################################################################
#
# If this CIF has been generated from an entry in the Cambridge 
# Structural Database, then it will include bibliographic, chemical, 
# crystal, experimental, refinement or atomic coordinate data resulting 
# from the CCDC's data processing and validation procedures.
#
#######################################################################

data_LIZCUU
_symmetry_cell_setting           monoclinic
_symmetry_space_group_name_H-M   'P 2/n'
_symmetry_Int_Tables_number      13
_space_group_name_Hall           '-P 2yac'
loop_
_symmetry_equiv_pos_site_id
_symmetry_equiv_pos_as_xyz
1 x,y,z
2 1/2-x,y,1/2-z
3 -x,-y,-z
4 1/2+x,-y,1/2+z
_cell_length_a                   8.323(3)
_cell_length_b                   10.712(4)
_cell_length_c                   23.333(9)
_cell_angle_alpha                90
_cell_angle_beta                 94.304(4)
_cell_angle_gamma                90
_cell_volume                     2074.41
loop_
_atom_site_label
_atom_site_type_symbol
_atom_site_fract_x
_atom_site_fract_y
_atom_site_fract_z
Cd1 Cd 0.2500 0.42735(2) 0.2500
S1 S -0.03958(8) 0.37945(6) 0.13506(3)
O1 O -0.0026(2) 0.25216(18) 0.11894(8)
O2 O -0.1759(2) 0.3894(2) 0.16907(8)
O3 O 0.1039(2) 0.44272(18) 0.16094(8)
N1 N 0.8423(2) 0.8183(2) 0.12034(9)
H1 H 0.8700 0.7416 0.1167
N2 N 0.8421(2) 1.0244(2) 0.11587(9)
N3 N 0.4006(2) 0.5841(2) 0.20989(9)
N4 N 1.3474(3) 0.8761(3) 0.01410(11)
N5 N 0.4065(2) 1.2680(2) 0.21140(9)
C1 C 0.7090(3) 0.8614(2) 0.14513(11)
C2 C 0.9194(3) 0.9163(2) 0.10331(11)
C3 C 0.7064(3) 0.9898(2) 0.14285(10)
C4 C 0.5607(3) 0.5682(2) 0.20850(11)
H2 H 0.6062 0.4940 0.2226
C5 C 0.6598(3) 0.6564(2) 0.18721(11)
H3 H 0.7692 0.6399 0.1860
C6 C 0.5980(3) 0.7700(2) 0.16751(10)
C7 C 0.4317(3) 0.7862(3) 0.16848(11)
H4 H 0.3835 0.8604 0.1555
C8 C 0.3401(3) 0.6920(3) 0.18862(11)
H5 H 0.2292 0.7036 0.1875
C9 C 1.2578(3) 0.7806(3) 0.02870(13)
H6 H 1.2900 0.7010 0.0184
C10 C 1.1201(3) 0.7903(3) 0.05806(12)
H7 H 1.0635 0.7193 0.0675
C11 C 1.0683(3) 0.9074(2) 0.07304(11)
C12 C 1.1595(3) 1.0091(3) 0.05841(12)
H8 H 1.1295 1.0897 0.0679
C13 C 1.2964(4) 0.9884(3) 0.02933(13)
H9 H 1.3566 1.0575 0.0198
C14 C 0.4522(3) 1.1655(3) 0.24147(11)
H10 H 0.4190 1.1568 0.2784
C15 C 0.5452(3) 1.0727(2) 0.22046(11)
H11 H 0.5720 1.0026 0.2427
C16 C 0.5996(3) 1.0842(2) 0.16534(11)
C17 C 0.5518(3) 1.1896(2) 0.13439(11)
H12 H 0.5838 1.2010 0.0974
C18 C 0.4570(3) 1.2773(2) 0.15832(11)
H13 H 0.4260 1.3471 0.1365
C19 C -0.2346(3) 0.5188(3) 0.06233(11)
H14 H -0.3063 0.5128 0.0909
C20 C -0.0881(3) 0.4614(2) 0.06945(10)
C21 C 0.0232(3) 0.4662(2) 0.02568(10)
C22 C 0.1749(3) 0.4057(3) 0.03053(11)
H15 H 0.2049 0.3600 0.0635
C23 C 0.2779(3) 0.4131(3) -0.01209(12)
H16 H 0.3771 0.3728 -0.0079
S1B S 0.03958(8) 0.62055(6) -0.13506(3)
O1B O 0.0026(2) 0.74784(18) -0.11894(8)
O2B O 0.1759(2) 0.6106(2) -0.16907(8)
O3B O -0.1039(2) 0.55728(18) -0.16094(8)
C19B C 0.2346(3) 0.4812(3) -0.06233(11)
H14B H 0.3063 0.4872 -0.0909
C20B C 0.0881(3) 0.5386(2) -0.06945(10)
C21B C -0.0232(3) 0.5338(2) -0.02568(10)
C22B C -0.1749(3) 0.5943(3) -0.03053(11)
H15B H -0.2049 0.6400 -0.0635
C23B C -0.2779(3) 0.5869(3) 0.01209(12)
H16B H -0.3771 0.6272 0.0079
N1A N -0.3423(2) 0.8183(2) 0.37966(9)
H1A H -0.3700 0.7416 0.3833
N2A N -0.3421(2) 1.0244(2) 0.38413(9)
N3A N 0.0994(2) 0.5841(2) 0.29011(9)
N4A N -0.8474(3) 0.8761(3) 0.48590(11)
N5A N 0.0935(2) 1.2680(2) 0.28860(9)
C1A C -0.2090(3) 0.8614(2) 0.35487(11)
C2A C -0.4194(3) 0.9163(2) 0.39669(11)
C3A C -0.2064(3) 0.9898(2) 0.35715(10)
C4A C -0.0607(3) 0.5682(2) 0.29150(11)
H2A H -0.1062 0.4940 0.2774
C5A C -0.1598(3) 0.6564(2) 0.31279(11)
H3A H -0.2692 0.6399 0.3140
C6A C -0.0980(3) 0.7700(2) 0.33249(10)
C7A C 0.0683(3) 0.7862(3) 0.33152(11)
H4A H 0.1165 0.8604 0.3445
C8A C 0.1599(3) 0.6920(3) 0.31138(11)
H5A H 0.2708 0.7036 0.3125
C9A C -0.7578(3) 0.7806(3) 0.47130(13)
H6A H -0.7900 0.7010 0.4816
C10A C -0.6201(3) 0.7903(3) 0.44194(12)
H7A H -0.5635 0.7193 0.4325
C11A C -0.5683(3) 0.9074(2) 0.42696(11)
C12A C -0.6595(3) 1.0091(3) 0.44159(12)
H8A H -0.6295 1.0897 0.4321
C13A C -0.7964(4) 0.9884(3) 0.47067(13)
H9A H -0.8566 1.0575 0.4802
C14A C 0.0478(3) 1.1655(3) 0.25853(11)
H10A H 0.0810 1.1568 0.2216
C15A C -0.0452(3) 1.0727(2) 0.27954(11)
H11A H -0.0720 1.0026 0.2573
C16A C -0.0996(3) 1.0842(2) 0.33466(11)
C17A C -0.0518(3) 1.1896(2) 0.36561(11)
H12A H -0.0838 1.2010 0.4026
C18A C 0.0430(3) 1.2773(2) 0.34168(11)
H13A H 0.0740 1.3471 0.3635
Cd1_2 Cd 0.2500 1.42735(2) 0.2500
Cd1B Cd -0.2500 0.57265(2) -0.2500
O3A O 0.3961(2) 0.44272(18) 0.33906(8)
N5_2 N 0.4065(2) 0.2680(2) 0.21140(9)
N5A_2 N 0.0935(2) 0.2680(2) 0.28860(9)
loop_
_geom_bond_atom_site_label_1
_geom_bond_atom_site_label_2
_geom_bond_site_symmetry_1
_geom_bond_site_symmetry_2
Cd1 O3 1_555 1_555
S1 O1 1_555 1_555
O2 S1 1_555 1_555
O3 S1 1_555 1_555
N1 H1 1_555 1_555
N2 C2 1_555 1_555
N3 Cd1 1_555 1_555
N4 C9 1_555 1_555
N5 C14 1_555 1_555
C1 N1 1_555 1_555
C2 N1 1_555 1_555
C3 N2 1_555 1_555
C4 N3 1_555 1_555
H2 C4 1_555 1_555
C5 C4 1_555 1_555
H3 C5 1_555 1_555
C6 C1 1_555 1_555
C7 C6 1_555 1_555
H4 C7 1_555 1_555
C8 N3 1_555 1_555
H5 C8 1_555 1_555
C9 H6 1_555 1_555
C10 C9 1_555 1_555
H7 C10 1_555 1_555
C11 C2 1_555 1_555
C12 C11 1_555 1_555
H8 C12 1_555 1_555
C13 N4 1_555 1_555
H9 C13 1_555 1_555
C14 H10 1_555 1_555
C15 C14 1_555 1_555
H11 C15 1_555 1_555
C16 C3 1_555 1_555
C17 C16 1_555 1_555
H12 C17 1_555 1_555
C18 N5 1_555 1_555
H13 C18 1_555 1_555
C19 H14 1_555 1_555
C20 S1 1_555 1_555
C21 C20 1_555 1_555
C22 C21 1_555 1_555
H15 C22 1_555 1_555
C23 C22 1_555 1_555
H16 C23 1_555 1_555
S1B O1B 1_555 1_555
O2B S1B 1_555 1_555
O3B S1B 1_555 1_555
C19B C23 1_555 1_555
H14B C19B 1_555 1_555
C20B S1B 1_555 1_555
C21B C21 1_555 1_555
C22B C21B 1_555 1_555
H15B C22B 1_555 1_555
C23B C19 1_555 1_555
H16B C23B 1_555 1_555
N1A H1A 1_555 1_555
N2A C2A 1_555 1_555
N3A Cd1 1_555 1_555
N4A C9A 1_555 1_555
N5A C14A 1_555 1_555
C1A N1A 1_555 1_555
C2A N1A 1_555 1_555
C3A N2A 1_555 1_555
C4A N3A 1_555 1_555
H2A C4A 1_555 1_555
C5A C4A 1_555 1_555
H3A C5A 1_555 1_555
C6A C1A 1_555 1_555
C7A C6A 1_555 1_555
H4A C7A 1_555 1_555
C8A N3A 1_555 1_555
H5A C8A 1_555 1_555
C9A H6A 1_555 1_555
C10A C9A 1_555 1_555
H7A C10A 1_555 1_555
C11A C2A 1_555 1_555
C12A C11A 1_555 1_555
H8A C12A 1_555 1_555
C13A N4A 1_555 1_555
H9A C13A 1_555 1_555
C14A H10A 1_555 1_555
C15A C14A 1_555 1_555
H11A C15A 1_555 1_555
C16A C3A 1_555 1_555
C17A C16A 1_555 1_555
H12A C17A 1_555 1_555
C18A N5A 1_555 1_555
H13A C18A 1_555 1_555
Cd1_2 N5 1_555 1_555
Cd1B O3B 1_555 1_555
O3A Cd1 1_555 1_555
N5_2 Cd1 1_555 1_555
N5A_2 Cd1 1_555 1_555
C1 C3 1_555 1_555
C5 C6 1_555 1_555
C7 C8 1_555 1_555
C10 C11 1_555 1_555
C12 C13 1_555 1_555
C15 C16 1_555 1_555
C17 C18 1_555 1_555
C19 C20 1_555 1_555
C19B C20B 1_555 1_555
C20B C21B 1_555 1_555
C22B C23B 1_555 1_555
N5A Cd1_2 1_555 1_555
C1A C3A 1_555 1_555
C5A C6A 1_555 1_555
C7A C8A 1_555 1_555
C10A C11A 1_555 1_555
C12A C13A 1_555 1_555
C15A C16A 1_555 1_555
C17A C18A 1_555 1_555

#END
