
#######################################################################
#
#                 Cambridge Crystallographic Data Centre
#                                CCDC 
#
#######################################################################
#
# If this CIF has been generated from an entry in the Cambridge 
# Structural Database, then it will include bibliographic, chemical, 
# crystal, experimental, refinement or atomic coordinate data resulting 
# from the CCDC's data processing and validation procedures.
#
#######################################################################

data_LIZJOT
_symmetry_cell_setting           monoclinic
_symmetry_space_group_name_H-M   'C 2/c'
_symmetry_Int_Tables_number      15
_space_group_name_Hall           '-C 2yn'
loop_
_symmetry_equiv_pos_site_id
_symmetry_equiv_pos_as_xyz
1 x,y,z
2 -x,y,1/2-z
3 1/2+x,1/2+y,z
4 1/2-x,1/2+y,1/2-z
5 -x,-y,-z
6 x,-y,1/2+z
7 1/2-x,1/2-y,-z
8 1/2+x,1/2-y,1/2+z
_cell_length_a                   23.766(4)
_cell_length_b                   5.466(1)
_cell_length_c                   10.128(1)
_cell_angle_alpha                90
_cell_angle_beta                 102.58(1)
_cell_angle_gamma                90
_cell_volume                     1284.09
loop_
_atom_site_label
_atom_site_type_symbol
_atom_site_fract_x
_atom_site_fract_y
_atom_site_fract_z
Ag1 Ag 0.52301(2) 0.20895(7) -0.04614(4)
O1 O 0.5659(1) -0.0249(5) -0.1680(3)
O2 O 0.5352(1) -0.3605(6) -0.0820(3)
O3 O 0.6781(2) -0.014(1) -0.3774(4)
O4 O 0.6139(1) -0.2839(6) -0.3367(3)
C1 C 0.6640(2) -0.156(1) -0.3002(4)
C2 C 0.6947(2) -0.226(1) -0.1626(5)
C3 C 0.6620(2) -0.444(1) -0.1270(5)
C4 C 0.6025(2) -0.4099(7) -0.2198(4)
C5 C 0.5645(2) -0.2515(7) -0.1516(4)
H1 H 0.7338 -0.2633 -0.1615
H2 H 0.6938 -0.0934 -0.1006
H3 H 0.6792 -0.5960 -0.1479
H4 H 0.6601 -0.4481 -0.0345
H5 H 0.5845 -0.5613 -0.2462
O2_2 O 0.5352(1) 0.6395(6) -0.0820(3)
O1D O 0.4341(1) 0.0249(5) 0.1680(3)
O2D O 0.4648(1) 0.3605(6) 0.0820(3)
O3D O 0.3219(2) 0.014(1) 0.3774(4)
O4D O 0.3861(1) 0.2839(6) 0.3367(3)
C1D C 0.3360(2) 0.156(1) 0.3002(4)
C2D C 0.3053(2) 0.226(1) 0.1626(5)
C3D C 0.3380(2) 0.444(1) 0.1270(5)
C4D C 0.3975(2) 0.4099(7) 0.2198(4)
C5D C 0.4355(2) 0.2515(7) 0.1516(4)
H1D H 0.2662 0.2633 0.1615
H2D H 0.3062 0.0934 0.1006
H3D H 0.3208 0.5960 0.1479
H4D H 0.3399 0.4481 0.0345
H5D H 0.4155 0.5613 0.2462
Ag1D Ag 0.47699(2) -0.20895(7) 0.04614(4)
Ag1_2 Ag 0.52301(2) -0.79105(7) -0.04614(4)
Ag1D_2 Ag 0.47699(2) 0.79105(7) 0.04614(4)
O2D_2 O 0.4648(1) -0.6395(6) 0.0820(3)
loop_
_geom_bond_atom_site_label_1
_geom_bond_atom_site_label_2
_geom_bond_site_symmetry_1
_geom_bond_site_symmetry_2
Ag1 O1 1_555 1_555
O1 C5 1_555 1_555
O2 C5 1_555 1_555
O3 C1 1_555 1_555
O4 C1 1_555 1_555
C1 C2 1_555 1_555
C2 C3 1_555 1_555
C3 C4 1_555 1_555
C4 O4 1_555 1_555
C5 C4 1_555 1_555
H1 C2 1_555 1_555
H2 C2 1_555 1_555
H3 C3 1_555 1_555
H4 C3 1_555 1_555
H5 C4 1_555 1_555
O2_2 Ag1 1_555 1_555
O1D C5D 1_555 1_555
O2D Ag1 1_555 1_555
O3D C1D 1_555 1_555
O4D C1D 1_555 1_555
C1D C2D 1_555 1_555
C2D C3D 1_555 1_555
C3D C4D 1_555 1_555
C4D O4D 1_555 1_555
C5D O2D 1_555 1_555
H1D C2D 1_555 1_555
H2D C2D 1_555 1_555
H3D C3D 1_555 1_555
H4D C3D 1_555 1_555
H5D C4D 1_555 1_555
Ag1D Ag1 1_555 1_555
Ag1_2 O2 1_555 1_555
Ag1D_2 O2_2 1_555 1_555
O2D_2 Ag1D 1_555 1_555
O2 Ag1D 1_555 1_555
O1D Ag1D 1_555 1_555
O2D Ag1D_2 1_555 1_555
C4D C5D 1_555 1_555
Ag1_2 O2D_2 1_555 1_555

#END
