
#######################################################################
#
#                 Cambridge Crystallographic Data Centre
#                                CCDC 
#
#######################################################################
#
# If this CIF has been generated from an entry in the Cambridge 
# Structural Database, then it will include bibliographic, chemical, 
# crystal, experimental, refinement or atomic coordinate data resulting 
# from the CCDC's data processing and validation procedures.
#
#######################################################################

data_LIZKUA
_symmetry_cell_setting           triclinic
_symmetry_space_group_name_H-M   'P -1'
_symmetry_Int_Tables_number      2
_space_group_name_Hall           '-P 1'
loop_
_symmetry_equiv_pos_site_id
_symmetry_equiv_pos_as_xyz
1 x,y,z
2 -x,-y,-z
_cell_length_a                   12.730(3)
_cell_length_b                   14.290(3)
_cell_length_c                   14.330(3)
_cell_angle_alpha                64.88(3)
_cell_angle_beta                 86.28(3)
_cell_angle_gamma                81.40(3)
_cell_volume                     2333.71
loop_
_atom_site_label
_atom_site_type_symbol
_atom_site_fract_x
_atom_site_fract_y
_atom_site_fract_z
Cu1 Cu 0.20019(10) 0.25393(8) 0.45260(9)
N1 N 0.1381(7) 0.3050(6) 0.3194(6)
H1 H 0.1809(7) 0.2742(6) 0.2832(6)
H2 H 0.0741(7) 0.2797(6) 0.3288(6)
N2 N 0.2644(7) 0.2072(6) 0.5849(6)
H3 H 0.2267(7) 0.1569(6) 0.6315(6)
H4 H 0.3317(7) 0.1747(6) 0.5816(6)
C1 C 0.0257(12) 0.4640(10) 0.2978(11)
H13 H 0.0503(22) 0.4673(74) 0.3596(45)
H14 H -0.0307(35) 0.4195(44) 0.3167(73)
H15 H -0.0018(53) 0.5343(33) 0.2481(29)
C2 C 0.0825(13) 0.4334(9) 0.1453(10)
H16 H 0.0650(76) 0.5080(10) 0.1012(27)
H17 H 0.0198(45) 0.3985(65) 0.1531(13)
H18 H 0.1403(28) 0.4031(67) 0.1138(32)
C3 C 0.2148(11) 0.4673(10) 0.2411(11)
H19 H 0.2284(41) 0.4694(64) 0.3066(24)
H20 H 0.2055(29) 0.5384(27) 0.1865(48)
H21 H 0.2752(17) 0.4259(40) 0.2241(69)
C4 C 0.1619(9) 0.3371(9) 0.6356(10)
H22 H 0.1322(26) 0.3766(50) 0.5661(11)
H23 H 0.1660(12) 0.3848(46) 0.6677(55)
H24 H 0.1161(19) 0.2848(10) 0.6772(51)
C5 C 0.3238(10) 0.2271(8) 0.7334(9)
H25 H 0.3327(56) 0.2783(10) 0.7600(26)
H26 H 0.3933(25) 0.1893(47) 0.7287(12)
H27 H 0.2778(28) 0.1777(42) 0.7801(16)
C6 C 0.3444(10) 0.3607(8) 0.5564(10)
H28 H 0.3588(54) 0.4069(41) 0.5873(28)
H29 H 0.3078(27) 0.4022(42) 0.4904(23)
H30 H 0.4115(27) 0.3235(9) 0.5450(50)
C21 C 0.1173(8) 0.4192(7) 0.2502(8)
C23 C 0.2742(8) 0.2821(7) 0.6288(8)
Cu2 Cu 0.28670(10) -0.26258(8) 0.58724(9)
N3 N 0.3605(6) -0.3286(5) 0.7165(6)
H5 H 0.4136(6) -0.2897(5) 0.7122(6)
H6 H 0.3135(6) -0.3227(5) 0.7659(6)
N4 N 0.2276(7) -0.2013(6) 0.4529(6)
H7 H 0.1608(7) -0.1685(6) 0.4575(6)
H8 H 0.2675(7) -0.1497(6) 0.4127(6)
C7 C 0.3204(11) -0.5044(8) 0.7825(10)
H31 H 0.3491(11) -0.5782(11) 0.8053(65)
H32 H 0.2762(40) -0.4820(46) 0.7212(19)
H33 H 0.2771(42) -0.4950(53) 0.8377(46)
C8 C 0.4811(11) -0.4529(10) 0.6726(10)
H34 H 0.5168(54) -0.5248(20) 0.6976(25)
H35 H 0.5344(44) -0.4050(49) 0.6535(47)
H36 H 0.4380(14) -0.4370(66) 0.6121(26)
C9 C 0.4770(10) -0.4677(8) 0.8509(9)
H37 H 0.5196(45) -0.5361(27) 0.8690(36)
H38 H 0.4305(10) -0.4699(57) 0.9088(18)
H39 H 0.5243(42) -0.4148(32) 0.8358(20)
C16 C 0.1654(12) -0.1909(10) 0.2892(10)
H58 H 0.2127(33) -0.1394(45) 0.2497(29)
H59 H 0.0972(34) -0.1551(54) 0.3003(10)
H60 H 0.1538(70) -0.2312(13) 0.2508(32)
C17 C 0.3234(9) -0.3135(9) 0.3789(10)
H61 H 0.3699(20) -0.2595(11) 0.3460(56)
H62 H 0.3184(13) -0.3500(52) 0.3352(49)
H63 H 0.3529(27) -0.3635(45) 0.4461(11)
C18 C 0.1427(11) -0.3432(8) 0.4555(11)
H64 H 0.0761(28) -0.3068(10) 0.4690(60)
H65 H 0.1767(30) -0.3918(42) 0.5210(29)
H66 H 0.1278(57) -0.3821(48) 0.4167(29)
C22 C 0.4101(9) -0.4404(7) 0.7568(8)
C24 C 0.2162(8) -0.2646(7) 0.3933(8)
Cu3 Cu -0.34020(11) -0.04760(9) 0.60084(11)
Cu4 Cu -0.04403(11) -0.06634(10) 0.60121(11)
Cu5 Cu -0.48709(12) 0.11252(10) 0.46595(10)
Cu6 Cu 0.15030(11) -0.05055(10) 0.66374(12)
Cu7 Cu 0.28457(14) -0.08294(14) 0.82273(13)
Cu8 Cu 0.11278(13) -0.25066(14) 0.90451(14)
N5 N 0.4167(8) -0.1661(9) 0.8579(8)
H9 H 0.4050(8) -0.2342(9) 0.8793(8)
H10 H 0.4562(8) -0.1494(9) 0.7983(8)
N6 N -0.0167(7) -0.1593(8) 0.8990(7)
H11 H 0.0000(7) -0.0923(8) 0.8715(7)
H12 H -0.0611(7) -0.1629(8) 0.8528(7)
Cl1 Cl 0.0994(2) -0.2086(2) 0.7004(2)
Cl2 Cl 0.1463(2) 0.0185(2) 0.7926(2)
Cl3 Cl -0.0375(2) -0.0962(2) 0.4540(2)
Cl4 Cl -0.1914(2) -0.0735(2) 0.6975(2)
Cl5 Cl -0.3171(2) 0.0363(2) 0.4186(2)
Cl6 Cl -0.4609(2) 0.0902(2) 0.6236(2)
Cl7 Cl -0.4123(2) -0.2045(2) 0.6686(2)
Cl8 Cl 0.2537(3) -0.3546(3) 0.9561(2)
C10 C -0.1251(11) -0.2752(10) 1.0289(12)
H40 H -0.1596(71) -0.2918(42) 1.0961(36)
H41 H -0.0680(16) -0.3315(18) 1.0342(78)
H42 H -0.1775(59) -0.2678(27) 0.9782(40)
C11 C -0.0009(11) -0.1795(11) 1.0738(10)
H43 H -0.0398(13) -0.1786(73) 1.1348(30)
H44 H 0.0380(52) -0.1191(39) 1.0432(25)
H45 H 0.0494(47) -0.2438(36) 1.0939(55)
C12 C -0.1672(11) -0.0846(9) 0.9727(10)
H46 H -0.2050(46) -0.0919(38) 1.0368(15)
H47 H -0.2169(40) -0.0843(42) 0.9232(53)
H48 H -0.1367(13) -0.0189(10) 0.9437(64)
C13 C 0.4177(15) -0.1890(15) 1.0361(11)
H49 H 0.3579(56) -0.1334(50) 1.0242(32)
H50 H 0.4615(29) -0.1947(97) 1.0925(26)
H51 H 0.3907(83) -0.2553(50) 1.0545(55)
C14 C 0.5752(13) -0.2462(12) 0.9560(12)
H52 H 0.5487(14) -0.3136(16) 0.9800(88)
H53 H 0.6220(51) -0.2477(60) 1.0085(66)
H54 H 0.6150(56) -0.2327(50) 0.8917(24)
C15 C 0.5163(16) -0.0585(11) 0.9005(11)
H55 H 0.4539(25) -0.0060(12) 0.8728(95)
H56 H 0.5699(78) -0.0492(39) 0.8461(73)
H57 H 0.546(10) -0.0504(39) 0.9576(25)
C19 C 0.4850(11) -0.1632(10) 0.9379(9)
C20 C -0.0794(9) -0.1747(7) 0.9951(8)
Cu3A Cu -0.65980(11) 0.04760(9) 0.39916(11)
Cu5A Cu -0.51291(12) -0.11252(10) 0.53405(10)
Cu4A Cu 0.04403(11) 0.06634(10) 0.39879(11)
Cu6A Cu -0.15030(11) 0.05055(10) 0.33626(12)
Cl3A Cl 0.0375(2) 0.0962(2) 0.5460(2)
Cl5A Cl 0.3171(2) -0.0363(2) 0.5814(2)
Cl7A Cl -0.5877(2) 0.2045(2) 0.3314(2)
loop_
_geom_bond_atom_site_label_1
_geom_bond_atom_site_label_2
_geom_bond_site_symmetry_1
_geom_bond_site_symmetry_2
Cu1 N1 1_555 1_555
Cu2 N3 1_555 1_555
Cu3 Cu5 1_555 1_555
Cu4 Cu6 1_555 1_555
Cu5 Cl5 1_555 1_555
Cu6 Cu7 1_555 1_555
Cu7 Cu8 1_555 1_555
Cu8 N6 1_555 1_555
N1 H1 1_555 1_555
H2 N1 1_555 1_555
N2 Cu1 1_555 1_555
H3 N2 1_555 1_555
H4 N2 1_555 1_555
N3 H5 1_555 1_555
H6 N3 1_555 1_555
N4 Cu2 1_555 1_555
H7 N4 1_555 1_555
H8 N4 1_555 1_555
N5 Cu7 1_555 1_555
H9 N5 1_555 1_555
H10 N5 1_555 1_555
N6 H11 1_555 1_555
H12 N6 1_555 1_555
Cl1 Cu4 1_555 1_555
Cl2 Cu6 1_555 1_555
Cl3 Cu4 1_555 1_555
Cl4 Cu3 1_555 1_555
Cl5 Cu3 1_555 1_555
Cl6 Cu3 1_555 1_555
Cl7 Cu3 1_555 1_555
Cl8 Cu8 1_555 1_555
C1 H13 1_555 1_555
H14 C1 1_555 1_555
H15 C1 1_555 1_555
C2 H16 1_555 1_555
H17 C2 1_555 1_555
H18 C2 1_555 1_555
C3 H19 1_555 1_555
H20 C3 1_555 1_555
H21 C3 1_555 1_555
C4 H22 1_555 1_555
H23 C4 1_555 1_555
H24 C4 1_555 1_555
C5 H25 1_555 1_555
H26 C5 1_555 1_555
H27 C5 1_555 1_555
C6 H28 1_555 1_555
H29 C6 1_555 1_555
H30 C6 1_555 1_555
C7 H31 1_555 1_555
H32 C7 1_555 1_555
H33 C7 1_555 1_555
C8 H34 1_555 1_555
H35 C8 1_555 1_555
H36 C8 1_555 1_555
C9 H37 1_555 1_555
H38 C9 1_555 1_555
H39 C9 1_555 1_555
C10 H40 1_555 1_555
H41 C10 1_555 1_555
H42 C10 1_555 1_555
C11 H43 1_555 1_555
H44 C11 1_555 1_555
H45 C11 1_555 1_555
C12 H46 1_555 1_555
H47 C12 1_555 1_555
H48 C12 1_555 1_555
C13 H49 1_555 1_555
H50 C13 1_555 1_555
H51 C13 1_555 1_555
C14 H52 1_555 1_555
H53 C14 1_555 1_555
H54 C14 1_555 1_555
C15 H55 1_555 1_555
H56 C15 1_555 1_555
H57 C15 1_555 1_555
C16 H58 1_555 1_555
H59 C16 1_555 1_555
H60 C16 1_555 1_555
C17 H61 1_555 1_555
H62 C17 1_555 1_555
H63 C17 1_555 1_555
C18 H64 1_555 1_555
H65 C18 1_555 1_555
H66 C18 1_555 1_555
C19 N5 1_555 1_555
C20 N6 1_555 1_555
C21 N1 1_555 1_555
C22 N3 1_555 1_555
C23 N2 1_555 1_555
C24 N4 1_555 1_555
Cu3A Cu5 1_555 1_555
Cu5A Cu3 1_555 1_555
Cu4A Cu4 1_555 1_555
Cu6A Cl3 1_555 1_555
Cl3A Cu4 1_555 1_555
Cl5A Cu6 1_555 1_555
Cl7A Cu5 1_555 1_555
Cu4 Cl4 1_555 1_555
Cu5 Cu5A 1_555 1_555
Cu5 Cl6 1_555 1_555
Cu6 Cl1 1_555 1_555
Cu6 Cl3A 1_555 1_555
Cu7 Cl2 1_555 1_555
Cu8 Cl1 1_555 1_555
Cl3 Cu4A 1_555 1_555
Cl5 Cu6A 1_555 1_555
Cl7 Cu5A 1_555 1_555
C1 C21 1_555 1_555
C2 C21 1_555 1_555
C3 C21 1_555 1_555
C4 C23 1_555 1_555
C5 C23 1_555 1_555
C6 C23 1_555 1_555
C7 C22 1_555 1_555
C8 C22 1_555 1_555
C9 C22 1_555 1_555
C10 C20 1_555 1_555
C11 C20 1_555 1_555
C12 C20 1_555 1_555
C13 C19 1_555 1_555
C14 C19 1_555 1_555
C15 C19 1_555 1_555
C16 C24 1_555 1_555
C17 C24 1_555 1_555
C18 C24 1_555 1_555
Cu3A Cu5A 1_555 1_555
Cu3A Cl7A 1_555 1_555
Cu4A Cu6A 1_555 1_555
Cu4A Cl3A 1_555 1_555

#END
