
#######################################################################
#
#                 Cambridge Crystallographic Data Centre
#                                CCDC 
#
#######################################################################
#
# If this CIF has been generated from an entry in the Cambridge 
# Structural Database, then it will include bibliographic, chemical, 
# crystal, experimental, refinement or atomic coordinate data resulting 
# from the CCDC's data processing and validation procedures.
#
#######################################################################

data_LIZVIA
_symmetry_cell_setting           monoclinic
_symmetry_space_group_name_H-M   'P 21/n'
_symmetry_Int_Tables_number      14
_space_group_name_Hall           '-P 2yn'
loop_
_symmetry_equiv_pos_site_id
_symmetry_equiv_pos_as_xyz
1 x,y,z
2 1/2-x,1/2+y,1/2-z
3 -x,-y,-z
4 1/2+x,1/2-y,1/2+z
_cell_length_a                   24.8344(31)
_cell_length_b                   14.0860(17)
_cell_length_c                   4.0298(5)
_cell_angle_alpha                90
_cell_angle_beta                 97.989(10)
_cell_angle_gamma                90
_cell_volume                     1396.01
loop_
_atom_site_label
_atom_site_type_symbol
_atom_site_fract_x
_atom_site_fract_y
_atom_site_fract_z
Cu1 Cu 0.56381(13) 0.46439(24) 0.0428(6)
S1 S 0.50224(8) 0.34629(13) 0.0185(6)
C1 C 0.53877(6) 0.23990(9) 0.0551(6)
C2 C 0.58623(5) 0.23131(8) -0.0893(5)
C3 C 0.61479(5) 0.14622(8) -0.0651(5)
C4 C 0.59583(4) 0.06963(7) 0.1026(5)
C5 C 0.54729(5) 0.07707(7) 0.2356(5)
C6 C 0.51924(5) 0.16268(8) 0.2169(6)
C7 C 0.62786(4) -0.02432(6) 0.13312(27)
H1 H 0.59949(8) 0.28440(14) -0.2036(11)
H2 H 0.64808(12) 0.14082(11) -0.1595(10)
H3 H 0.53400(8) 0.02394(14) 0.3494(11)
H4 H 0.48585(12) 0.16796(11) 0.3102(11)
H5 H 0.60343(7) -0.07606(11) 0.1550(5)
H6 H 0.65501(8) -0.02211(13) 0.3274(5)
H7 H 0.64510(7) -0.03346(9) -0.0634(5)
Cu2 Cu 0.47742(13) 0.40224(24) -0.5030(6)
S2 S 0.59707(8) 0.50481(13) -0.4286(6)
C8 C 0.64863(7) 0.58614(8) -0.3029(6)
C9 C 0.64390(6) 0.67927(7) -0.4175(5)
C10 C 0.68279(6) 0.74620(7) -0.2953(4)
C11 C 0.72601(5) 0.72029(6) -0.0555(4)
C12 C 0.73152(6) 0.62665(7) 0.0524(4)
C13 C 0.69304(6) 0.55942(7) -0.0732(4)
C14 C 0.76621(4) 0.79624(6) 0.10313(24)
H8 H 0.61310(14) 0.69786(11) -0.5749(13)
H9 H 0.67879(9) 0.81101(14) -0.3682(6)
H10 H 0.76131(15) 0.60881(10) 0.2186(13)
H11 H 0.69618(9) 0.49523(14) 0.0072(7)
H12 H 0.79843(7) 0.76589(10) 0.2134(5)
H13 H 0.77567(7) 0.83775(13) -0.0686(4)
H14 H 0.74958(7) 0.83240(12) 0.2635(5)
Cu1_2 Cu 0.56381(13) 0.46439(24) -0.9572(6)
S1_2 S 0.50224(8) 0.34629(13) -0.9815(6)
Cu2_2 Cu 0.47742(13) 0.40224(24) 0.4970(6)
Cu2B Cu 0.52258(13) 0.59776(24) -0.4970(6)
S2_2 S 0.59707(8) 0.50481(13) 0.5714(6)
S2B S 0.40293(8) 0.49519(13) -0.5714(6)
loop_
_geom_bond_atom_site_label_1
_geom_bond_atom_site_label_2
_geom_bond_site_symmetry_1
_geom_bond_site_symmetry_2
Cu1 S1 1_555 1_555
S1 C1 1_555 1_555
C1 C2 1_555 1_555
C2 C3 1_555 1_555
C3 C4 1_555 1_555
C4 C5 1_555 1_555
C5 C6 1_555 1_555
C6 C1 1_555 1_555
C7 C4 1_555 1_555
H1 C2 1_555 1_555
H2 C3 1_555 1_555
H3 C5 1_555 1_555
H4 C6 1_555 1_555
H5 C7 1_555 1_555
H6 C7 1_555 1_555
H7 C7 1_555 1_555
Cu2 S1 1_555 1_555
S2 Cu1 1_555 1_555
C8 S2 1_555 1_555
C9 C8 1_555 1_555
C10 C9 1_555 1_555
C11 C10 1_555 1_555
C12 C11 1_555 1_555
C13 C8 1_555 1_555
C14 C11 1_555 1_555
H8 C9 1_555 1_555
H9 C10 1_555 1_555
H10 C12 1_555 1_555
H11 C13 1_555 1_555
H12 C14 1_555 1_555
H13 C14 1_555 1_555
H14 C14 1_555 1_555
Cu1_2 S2 1_555 1_555
S1_2 Cu2 1_555 1_555
Cu2_2 S1 1_555 1_555
Cu2B S2 1_555 1_555
S2_2 Cu1 1_555 1_555
S2B Cu2 1_555 1_555
C12 C13 1_555 1_555
Cu1_2 S1_2 1_555 1_555

#END
