
#######################################################################
#
#                 Cambridge Crystallographic Data Centre
#                                CCDC 
#
#######################################################################
#
# If this CIF has been generated from an entry in the Cambridge 
# Structural Database, then it will include bibliographic, chemical, 
# crystal, experimental, refinement or atomic coordinate data resulting 
# from the CCDC's data processing and validation procedures.
#
#######################################################################

data_LIZWAS
_symmetry_cell_setting           monoclinic
_symmetry_space_group_name_H-M   'P 21/n'
_symmetry_Int_Tables_number      14
_space_group_name_Hall           '-P 2yn'
loop_
_symmetry_equiv_pos_site_id
_symmetry_equiv_pos_as_xyz
1 x,y,z
2 1/2-x,1/2+y,1/2-z
3 -x,-y,-z
4 1/2+x,1/2-y,1/2+z
_cell_length_a                   7.755(2)
_cell_length_b                   14.680(5)
_cell_length_c                   15.810(5)
_cell_angle_alpha                90
_cell_angle_beta                 102.81(2)
_cell_angle_gamma                90
_cell_volume                     1755.07
loop_
_atom_site_label
_atom_site_type_symbol
_atom_site_fract_x
_atom_site_fract_y
_atom_site_fract_z
Cu1 Cu 0.0000 0.0000 0.0000
N1 N 0.1600(5) -0.0403(3) -0.0751(3)
N2 N 0.1213(5) -0.0906(3) -0.1377(3)
N3 N 0.0895(7) -0.1397(4) -0.1952(3)
N4 N 0.1399(4) 0.1153(2) -0.0006(2)
N5 N 0.0650(5) 0.1879(3) -0.0154(3)
N6 N -0.0011(6) 0.2577(3) -0.0274(3)
O1 O 0.1494(4) 0.1398(3) -0.1992(2)
C1 C 0.0038(7) 0.1236(4) -0.2454(3)
H1 H -0.0262(68) 0.0685(36) -0.2600(35)
N7 N -0.1185(5) 0.1842(3) -0.2756(3)
C2 C -0.2906(9) 0.1582(5) -0.3249(5)
H2 H -0.3179(28) 0.1924(25) -0.3780(15)
H3 H -0.3777(12) 0.1707(30) -0.2918(13)
H4 H -0.2910(20) 0.0943(9) -0.3379(27)
C3 C -0.0918(10) 0.2795(4) -0.2514(4)
H5 H -0.1493(62) 0.2928(10) -0.2049(24)
H6 H -0.1409(66) 0.3171(4) -0.3005(11)
H7 H 0.0325(10) 0.2916(10) -0.2328(34)
N8 N -0.5148(5) 0.0032(3) -0.1201(3)
N9 N -0.3730(5) 0.0306(3) -0.1250(2)
N10 N -0.2339(5) 0.0534(3) -0.1301(3)
Cu2 Cu 0.30990(6) 0.07231(3) -0.07433(4)
N11 N 0.4538(4) 0.1864(2) -0.0482(2)
C4 C 0.4698(6) 0.2471(3) -0.1088(3)
H8 H 0.4210(6) 0.2337(3) -0.1667(3)
C5 C 0.5557(6) 0.3288(3) -0.0887(3)
H9 H 0.5641(6) 0.3698(3) -0.1325(3)
C6 C 0.6295(6) 0.3496(3) -0.0034(3)
C7 C 0.6194(6) 0.2857(3) 0.0587(3)
H10 H 0.6718(6) 0.2964(3) 0.1166(3)
C8 C 0.5308(6) 0.2057(3) 0.0340(3)
H11 H 0.5242(6) 0.1629(3) 0.0766(3)
C9 C 0.7175(7) 0.4405(3) 0.0182(4)
O2 O 0.7198(7) 0.4984(3) -0.0344(3)
O3 O 0.7885(5) 0.4482(2) 0.1018(3)
C10 C 0.8748(9) 0.5344(4) 0.1323(5)
H12 H 0.9793(39) 0.5415(17) 0.1098(28)
H13 H 0.9067(62) 0.5345(15) 0.1946(5)
H14 H 0.7951(26) 0.5839(5) 0.1126(29)
N1B N -0.1600(5) 0.0403(3) 0.0751(3)
N2B N -0.1213(5) 0.0906(3) 0.1377(3)
N3B N -0.0895(7) 0.1397(4) 0.1952(3)
N4B N -0.1399(4) -0.1153(2) 0.0006(2)
N5B N -0.0650(5) -0.1879(3) 0.0154(3)
N6B N 0.0011(6) -0.2577(3) 0.0274(3)
N10B N 0.2339(5) -0.0534(3) 0.1301(3)
Cu2B Cu -0.30990(6) -0.07231(3) 0.07433(4)
Cu2_2 Cu -0.69010(6) 0.07231(3) -0.07433(4)
N8_2 N 0.4852(5) 0.0032(3) -0.1201(3)
O1B O -0.1494(4) -0.1398(3) 0.1992(2)
C1B C -0.0038(7) -0.1236(4) 0.2454(3)
H1B H 0.0262(68) -0.0685(36) 0.2600(35)
N7B N 0.1185(5) -0.1842(3) 0.2756(3)
C2B C 0.2906(9) -0.1582(5) 0.3249(5)
H2B H 0.3179(28) -0.1924(25) 0.3780(15)
H3B H 0.3777(12) -0.1707(30) 0.2918(13)
H4B H 0.2910(20) -0.0943(9) 0.3379(27)
C3B C 0.0918(10) -0.2795(4) 0.2514(4)
H5B H 0.1493(62) -0.2928(10) 0.2049(24)
H6B H 0.1409(66) -0.3171(4) 0.3005(11)
H7B H -0.0325(10) -0.2916(10) 0.2328(34)
N8B N -0.4852(5) -0.0032(3) 0.1201(3)
N9B N -0.6270(5) -0.0306(3) 0.1250(2)
N10B_2 N -0.7661(5) -0.0534(3) 0.1301(3)
N11B N -0.4538(4) -0.1864(2) 0.0482(2)
C4B C -0.4698(6) -0.2471(3) 0.1088(3)
H8B H -0.4210(6) -0.2337(3) 0.1667(3)
C5B C -0.5557(6) -0.3288(3) 0.0887(3)
H9B H -0.5641(6) -0.3698(3) 0.1325(3)
C6B C -0.6295(6) -0.3496(3) 0.0034(3)
C7B C -0.6194(6) -0.2857(3) -0.0587(3)
H10B H -0.6718(6) -0.2964(3) -0.1166(3)
C8B C -0.5308(6) -0.2057(3) -0.0340(3)
H11B H -0.5242(6) -0.1629(3) -0.0766(3)
C9B C -0.7175(7) -0.4405(3) -0.0182(4)
O2B O -0.7198(7) -0.4984(3) 0.0344(3)
O3B O -0.7885(5) -0.4482(2) -0.1018(3)
C10B C -0.8748(9) -0.5344(4) -0.1323(5)
H12B H -0.9793(39) -0.5415(17) -0.1098(28)
H13B H -0.9067(62) -0.5345(15) -0.1946(5)
H14B H -0.7951(26) -0.5839(5) -0.1126(29)
Cu1B Cu -1.0000 0.0000 0.0000
loop_
_geom_bond_atom_site_label_1
_geom_bond_atom_site_label_2
_geom_bond_site_symmetry_1
_geom_bond_site_symmetry_2
Cu1 N1 1_555 1_555
N1 N2 1_555 1_555
N2 N3 1_555 1_555
N4 Cu1 1_555 1_555
N5 N4 1_555 1_555
N6 N5 1_555 1_555
O1 C1 1_555 1_555
C1 H1 1_555 1_555
N7 C1 1_555 1_555
C2 N7 1_555 1_555
H2 C2 1_555 1_555
H3 C2 1_555 1_555
H4 C2 1_555 1_555
C3 N7 1_555 1_555
H5 C3 1_555 1_555
H6 C3 1_555 1_555
H7 C3 1_555 1_555
N8 N9 1_555 1_555
N9 N10 1_555 1_555
N10 Cu1 1_555 1_555
Cu2 N1 1_555 1_555
N11 Cu2 1_555 1_555
C4 N11 1_555 1_555
H8 C4 1_555 1_555
C5 C4 1_555 1_555
H9 C5 1_555 1_555
C6 C5 1_555 1_555
C7 C6 1_555 1_555
H10 C7 1_555 1_555
C8 N11 1_555 1_555
H11 C8 1_555 1_555
C9 C6 1_555 1_555
O2 C9 1_555 1_555
O3 C9 1_555 1_555
C10 O3 1_555 1_555
H12 C10 1_555 1_555
H13 C10 1_555 1_555
H14 C10 1_555 1_555
N1B Cu1 1_555 1_555
N2B N1B 1_555 1_555
N3B N2B 1_555 1_555
N4B Cu1 1_555 1_555
N5B N4B 1_555 1_555
N6B N5B 1_555 1_555
N10B Cu1 1_555 1_555
Cu2B N1B 1_555 1_555
Cu2_2 N8 1_555 1_555
N8_2 Cu2 1_555 1_555
O1B Cu2B 1_555 1_555
C1B O1B 1_555 1_555
H1B C1B 1_555 1_555
N7B C1B 1_555 1_555
C2B N7B 1_555 1_555
H2B C2B 1_555 1_555
H3B C2B 1_555 1_555
H4B C2B 1_555 1_555
C3B N7B 1_555 1_555
H5B C3B 1_555 1_555
H6B C3B 1_555 1_555
H7B C3B 1_555 1_555
N8B Cu2B 1_555 1_555
N9B N8B 1_555 1_555
N10B_2 N9B 1_555 1_555
N11B Cu2B 1_555 1_555
C4B N11B 1_555 1_555
H8B C4B 1_555 1_555
C5B C4B 1_555 1_555
H9B C5B 1_555 1_555
C6B C5B 1_555 1_555
C7B C6B 1_555 1_555
H10B C7B 1_555 1_555
C8B N11B 1_555 1_555
H11B C8B 1_555 1_555
C9B C6B 1_555 1_555
O2B C9B 1_555 1_555
O3B C9B 1_555 1_555
C10B O3B 1_555 1_555
H12B C10B 1_555 1_555
H13B C10B 1_555 1_555
H14B C10B 1_555 1_555
Cu1B N10B_2 1_555 1_555
N4 Cu2 1_555 1_555
O1 Cu2 1_555 1_555
C7 C8 1_555 1_555
N4B Cu2B 1_555 1_555
C7B C8B 1_555 1_555

#END
