
#######################################################################
#
#                 Cambridge Crystallographic Data Centre
#                                CCDC 
#
#######################################################################
#
# If this CIF has been generated from an entry in the Cambridge 
# Structural Database, then it will include bibliographic, chemical, 
# crystal, experimental, refinement or atomic coordinate data resulting 
# from the CCDC's data processing and validation procedures.
#
#######################################################################

data_LIZXOI
_symmetry_cell_setting           monoclinic
_symmetry_space_group_name_H-M   'C 2/c'
_symmetry_Int_Tables_number      15
_space_group_name_Hall           '-C 2yn'
loop_
_symmetry_equiv_pos_site_id
_symmetry_equiv_pos_as_xyz
1 x,y,z
2 1/2+x,1/2+y,z
3 -x,y,1/2-z
4 1/2-x,1/2+y,1/2-z
5 -x,-y,-z
6 1/2-x,1/2-y,-z
7 x,-y,1/2+z
8 1/2+x,1/2-y,1/2+z
_cell_length_a                   23.1760(10)
_cell_length_b                   13.1670(8)
_cell_length_c                   12.9210(8)
_cell_angle_alpha                90
_cell_angle_beta                 90.623(4)
_cell_angle_gamma                90
_cell_volume                     3942.72
loop_
_atom_site_label
_atom_site_type_symbol
_atom_site_fract_x
_atom_site_fract_y
_atom_site_fract_z
O2 O 0.8682(3) 0.0805(6) 0.6902(5)
H19 H 0.8683 0.0763 0.7582
H20 H 0.9034 0.0654 0.6710
Mn1 Mn 1.0000 0.0000 0.5000
O1 O 0.98278(7) 0.04952(10) 0.65560(9)
P1 P 0.97594(4) 0.09565(6) 0.75757(6)
C1 C 1.0000 0.2303(2) 0.7500
C2 C 0.96518(11) 0.28312(18) 0.68125(16)
C3 C 0.96518(14) 0.3875(2) 0.68094(18)
C4 C 1.0000 0.4389(2) 0.7500
N1 N 1.08318(6) 0.04142(11) 0.52066(10)
C5 C 1.10627(7) 0.13560(13) 0.50160(13)
C6 C 1.16688(8) 0.13521(14) 0.52731(15)
C7 C 1.17963(8) 0.04107(16) 0.56278(15)
C8 C 1.12702(7) -0.01674(13) 0.56122(13)
C9 C 1.12238(7) -0.11647(13) 0.59738(13)
C10 C 1.17492(8) -0.16228(16) 0.64690(15)
C11 C 1.19814(10) -0.1192(2) 0.73725(17)
C12 C 1.24828(11) -0.1600(3) 0.7810(2)
C13 C 1.27479(11) -0.2426(3) 0.7368(3)
C14 C 1.25191(11) -0.2865(2) 0.6496(2)
C15 C 1.20178(10) -0.24653(19) 0.60383(19)
N2 N 1.01928(6) -0.14027(10) 0.55344(10)
C16 C 1.07171(7) -0.17340(13) 0.59153(13)
C17 C 1.06665(8) -0.27797(14) 0.62299(15)
C18 C 1.01174(9) -0.30702(14) 0.60182(15)
C19 C 0.98208(7) -0.22071(12) 0.56009(13)
C20 C 1.07648(7) 0.22049(13) 0.46639(13)
C21 C 1.10872(7) 0.31833(13) 0.45898(14)
C22 C 1.13946(9) 0.34320(16) 0.37092(16)
C23 C 1.16817(10) 0.43573(17) 0.36420(19)
C24 C 1.16734(8) 0.50264(17) 0.4452(2)
C25 C 1.13863(11) 0.47732(17) 0.5349(2)
C26 C 1.10891(10) 0.38531(16) 0.54169(18)
H1 H 1.0000 0.5165 0.7500
H2 H 0.9401 0.4255 0.6300
H3 H 0.9370 0.2563 0.6266
H4 H 0.9225 0.0959 0.7840
H5 H 1.1944 0.1945 0.5199
H6 H 1.2191 0.0155 0.5858
H7 H 1.1776 -0.0595 0.7707
H8 H 1.2658 -0.1288 0.8454
H9 H 1.3106 -0.2724 0.7682
H10 H 1.2708 -0.3484 0.6164
H11 H 1.1855 -0.2775 0.5383
H12 H 1.0979 -0.3210 0.6539
H13 H 0.9945 -0.3764 0.6151
H14 H 1.1409 0.2933 0.3103
H15 H 1.1894 0.4548 0.2989
H16 H 1.1883 0.5706 0.4402
H17 H 1.1378 0.5269 0.5953
H18 H 1.0880 0.3666 0.6086
Mn1F Mn 1.0000 0.0000 1.0000
O1B O 1.01722(7) 0.04952(10) 0.84440(9)
O1D O 1.01722(7) -0.04952(10) 0.34440(9)
P1B P 1.02406(4) 0.09565(6) 0.74243(6)
C2B C 1.03482(11) 0.28312(18) 0.81875(16)
C3B C 1.03482(14) 0.3875(2) 0.81906(18)
N1D N 0.91682(6) -0.04142(11) 0.47934(10)
C5D C 0.89373(7) -0.13560(13) 0.49840(13)
C6D C 0.83312(8) -0.13521(14) 0.47269(15)
C7D C 0.82037(8) -0.04107(16) 0.43722(15)
C8D C 0.87298(7) 0.01674(13) 0.43878(13)
C9D C 0.87762(7) 0.11647(13) 0.40262(13)
C10D C 0.82508(8) 0.16228(16) 0.35310(15)
C11D C 0.80186(10) 0.1192(2) 0.26275(17)
C12D C 0.75172(11) 0.1600(3) 0.2190(2)
C13D C 0.72521(11) 0.2426(3) 0.2632(3)
C14D C 0.74809(11) 0.2865(2) 0.3504(2)
C15D C 0.79822(10) 0.24653(19) 0.39617(19)
N2D N 0.98072(6) 0.14027(10) 0.44656(10)
C16D C 0.92829(7) 0.17340(13) 0.40847(13)
C17D C 0.93335(8) 0.27797(14) 0.37701(15)
C18D C 0.98826(9) 0.30702(14) 0.39818(15)
C19D C 1.01792(7) 0.22071(12) 0.43991(13)
C20D C 0.92352(7) -0.22049(13) 0.53361(13)
C21D C 0.89128(7) -0.31833(13) 0.54102(14)
C22D C 0.86054(9) -0.34320(16) 0.62908(16)
C23D C 0.83183(10) -0.43573(17) 0.63580(19)
C24D C 0.83266(8) -0.50264(17) 0.5548(2)
C25D C 0.86137(11) -0.47732(17) 0.4651(2)
C26D C 0.89109(10) -0.38531(16) 0.45831(18)
H2B H 1.0599 0.4255 0.8700
H3B H 1.0630 0.2563 0.8734
H4B H 1.0775 0.0959 0.7160
H5D H 0.8056 -0.1945 0.4801
H6D H 0.7809 -0.0155 0.4142
H7D H 0.8224 0.0595 0.2293
H8D H 0.7342 0.1288 0.1546
H9D H 0.6894 0.2724 0.2318
H10D H 0.7292 0.3484 0.3836
H11D H 0.8145 0.2775 0.4617
H12D H 0.9021 0.3210 0.3461
H13D H 1.0055 0.3764 0.3849
H14D H 0.8591 -0.2933 0.6897
H15D H 0.8106 -0.4548 0.7011
H16D H 0.8117 -0.5706 0.5598
H17D H 0.8622 -0.5269 0.4047
H18D H 0.9120 -0.3666 0.3914
loop_
_geom_bond_atom_site_label_1
_geom_bond_atom_site_label_2
_geom_bond_site_symmetry_1
_geom_bond_site_symmetry_2
Mn1 O1 1_555 1_555
O1 P1 1_555 1_555
P1 C1 1_555 1_555
C1 C2 1_555 1_555
C2 C3 1_555 1_555
C3 C4 1_555 1_555
C4 H1 1_555 1_555
N1 Mn1 1_555 1_555
C5 N1 1_555 1_555
C6 C5 1_555 1_555
C7 C6 1_555 1_555
C8 N1 1_555 1_555
C9 C8 1_555 1_555
C10 C9 1_555 1_555
C11 C10 1_555 1_555
C12 C11 1_555 1_555
C13 C12 1_555 1_555
C14 C13 1_555 1_555
C15 C10 1_555 1_555
N2 Mn1 1_555 1_555
C16 C9 1_555 1_555
C17 C16 1_555 1_555
C18 C17 1_555 1_555
C19 N2 1_555 1_555
C20 C5 1_555 1_555
C21 C20 1_555 1_555
C22 C21 1_555 1_555
C23 C22 1_555 1_555
C24 C23 1_555 1_555
C25 C24 1_555 1_555
C26 C21 1_555 1_555
O2 H19 1_555 1_555
H2 C3 1_555 1_555
H3 C2 1_555 1_555
H4 P1 1_555 1_555
H5 C6 1_555 1_555
H6 C7 1_555 1_555
H7 C11 1_555 1_555
H8 C12 1_555 1_555
H9 C13 1_555 1_555
H10 C14 1_555 1_555
H11 C15 1_555 1_555
H12 C17 1_555 1_555
H13 C18 1_555 1_555
H14 C22 1_555 1_555
H15 C23 1_555 1_555
H16 C24 1_555 1_555
H17 C25 1_555 1_555
H18 C26 1_555 1_555
H20 O2 1_555 1_555
Mn1F O1B 1_555 1_555
O1B P1 1_555 1_555
O1D Mn1 1_555 1_555
P1B O1 1_555 1_555
C2B C1 1_555 1_555
C3B C4 1_555 1_555
N1D Mn1 1_555 1_555
C5D N1D 1_555 1_555
C6D C5D 1_555 1_555
C7D C6D 1_555 1_555
C8D N1D 1_555 1_555
C9D C8D 1_555 1_555
C10D C9D 1_555 1_555
C11D C10D 1_555 1_555
C12D C11D 1_555 1_555
C13D C12D 1_555 1_555
C14D C13D 1_555 1_555
C15D C10D 1_555 1_555
N2D Mn1 1_555 1_555
C16D C9D 1_555 1_555
C17D C16D 1_555 1_555
C18D C17D 1_555 1_555
C19D C20 1_555 1_555
C20D C19 1_555 1_555
C21D C20D 1_555 1_555
C22D C21D 1_555 1_555
C23D C22D 1_555 1_555
C24D C23D 1_555 1_555
C25D C24D 1_555 1_555
C26D C21D 1_555 1_555
H2B C3B 1_555 1_555
H3B C2B 1_555 1_555
H4B P1B 1_555 1_555
H5D C6D 1_555 1_555
H6D C7D 1_555 1_555
H7D C11D 1_555 1_555
H8D C12D 1_555 1_555
H9D C13D 1_555 1_555
H10D C14D 1_555 1_555
H11D C15D 1_555 1_555
H12D C17D 1_555 1_555
H13D C18D 1_555 1_555
H14D C22D 1_555 1_555
H15D C23D 1_555 1_555
H16D C24D 1_555 1_555
H17D C25D 1_555 1_555
H18D C26D 1_555 1_555
P1 P1B 1_555 1_555
C1 P1B 1_555 1_555
C7 C8 1_555 1_555
C14 C15 1_555 1_555
N2 C16 1_555 1_555
C18 C19 1_555 1_555
C25 C26 1_555 1_555
O1B P1B 1_555 1_555
C2B C3B 1_555 1_555
C5D C20D 1_555 1_555
C7D C8D 1_555 1_555
C14D C15D 1_555 1_555
N2D C16D 1_555 1_555
N2D C19D 1_555 1_555
C18D C19D 1_555 1_555
C25D C26D 1_555 1_555

#END
