
#######################################################################
#
#                 Cambridge Crystallographic Data Centre
#                                CCDC 
#
#######################################################################
#
# If this CIF has been generated from an entry in the Cambridge 
# Structural Database, then it will include bibliographic, chemical, 
# crystal, experimental, refinement or atomic coordinate data resulting 
# from the CCDC's data processing and validation procedures.
#
#######################################################################

data_LIZXUP
_symmetry_cell_setting           monoclinic
_symmetry_space_group_name_H-M   'P 2/c'
_symmetry_Int_Tables_number      13
_space_group_name_Hall           '-P 2yc'
loop_
_symmetry_equiv_pos_site_id
_symmetry_equiv_pos_as_xyz
1 x,y,z
2 -x,y,1/2-z
3 -x,-y,-z
4 x,-y,1/2+z
_cell_length_a                   12.856(3)
_cell_length_b                   11.081(3)
_cell_length_c                   27.351(6)
_cell_angle_alpha                90
_cell_angle_beta                 114.913(9)
_cell_angle_gamma                90
_cell_volume                     3533.79
loop_
_atom_site_label
_atom_site_type_symbol
_atom_site_fract_x
_atom_site_fract_y
_atom_site_fract_z
Co1 Co 1.0000 1.01659(10) 0.2500
Co2 Co 0.19783(6) 0.47236(6) 0.01437(3)
C1 C 0.7889(5) 1.0099(5) 0.2122(2)
C2 C 0.6590(5) 1.0089(5) 0.1927(2)
C3 C 0.6023(6) 1.1131(6) 0.1936(3)
H1 H 0.6427 1.1850 0.2046
C4 C 0.4831(7) 1.1112(7) 0.1778(4)
H2 H 0.4437 1.1824 0.1765
C5 C 0.4250(5) 1.0020(6) 0.1642(3)
H3 H 0.3468 0.9994 0.1553
C6 C 0.4831(5) 0.8965(6) 0.1640(2)
C7 C 0.6014(5) 0.9009(5) 0.1785(2)
H4 H 0.6410 0.8306 0.1785
C8 C 0.3182(5) 0.7695(6) 0.1420(2)
C9 C 0.2882(6) 0.7870(6) 0.1851(2)
H5 H 0.3428 0.8122 0.2185
C10 C 0.1765(6) 0.7662(6) 0.1772(3)
H6 H 0.1538 0.7798 0.2049
C11 C 0.1000(6) 0.7254(5) 0.1283(2)
H7 H 0.0250 0.7107 0.1233
C12 C 0.1292(5) 0.7048(5) 0.0855(2)
C13 C 0.2385(5) 0.7294(5) 0.0915(2)
C14 C 0.0386(5) 0.6524(4) 0.0336(2)
C15 C 0.2829(5) 0.7168(5) 0.0478(2)
C16 C 0.3175(5) 0.4568(6) 0.1382(2)
H8 H 0.3798 0.4732 0.1303
C17 C 0.3345(6) 0.4586(6) 0.1911(3)
H9 H 0.4067 0.4760 0.2180
C18 C 0.2437(6) 0.4346(6) 0.2046(2)
C19 C 0.1429(5) 0.4059(6) 0.1626(2)
H10 H 0.0796 0.3862 0.1692
C20 C 0.1333(6) 0.4055(5) 0.1108(2)
H11 H 0.0627 0.3842 0.0836
C21 C 0.2584(7) 0.4485(8) 0.2619(3)
H12 H 0.3105 0.3864 0.2837
H13 H 0.2941 0.5260 0.2754
C22 C 0.1507(8) 0.4408(9) 0.2691(3)
H14 H 0.1166 0.3619 0.2573
H15 H 0.0972 0.5007 0.2463
C23 C 0.1678(6) 0.4606(8) 0.3270(3)
C24 C 0.1696(6) 0.5746(7) 0.3480(3)
H16 H 0.1634 0.6419 0.3267
C25 C 0.1806(5) 0.5904(6) 0.4002(3)
H17 H 0.1831 0.6683 0.4132
C26 C 0.1888(5) 0.3853(6) 0.4138(2)
H18 H 0.1982 0.3198 0.4365
C27 C 0.1767(6) 0.3644(7) 0.3621(3)
H19 H 0.1743 0.2854 0.3502
C28 C 0.4160(5) 0.3530(5) 0.0173(3)
H20 H 0.4337 0.4310 0.0107
C29 C 0.4891(5) 0.2607(5) 0.0182(3)
H21 H 0.5542 0.2763 0.0124
C30 C 0.4627(5) 0.1433(5) 0.0279(3)
C31 C 0.3685(5) 0.1259(5) 0.0385(2)
H22 H 0.3517 0.0494 0.0471
C32 C 0.2976(5) 0.2240(5) 0.0362(2)
H23 H 0.2329 0.2106 0.0425
C33 C 0.5346(5) 0.0369(6) 0.0258(3)
H24 H 0.5535 -0.0134 0.0574
H25 H 0.6056 0.0651 0.0253
C34 C 1.0817(8) 1.0787(7) 0.1606(3)
H26 H 1.1461 1.1079 0.1896
C35 C 1.0751(7) 1.0881(7) 0.1086(3)
H27 H 1.1353 1.1239 0.1036
C36 C 0.9824(6) 1.0460(5) 0.0646(2)
C37 C 0.9032(7) 0.9898(9) 0.0759(3)
H28 H 0.8406 0.9550 0.0479
C38 C 0.9113(6) 0.9819(8) 0.1271(3)
H29 H 0.8532 0.9412 0.1321
C39 C 0.9779(6) 1.0546(6) 0.0091(3)
H30 H 1.0222 1.1243 0.0078
H31 H 0.8990 1.0684 -0.0162
N1 N 0.2155(4) 0.4326(4) 0.09666(17)
N2 N 0.1877(4) 0.4962(4) 0.43259(18)
N3 N 0.3200(4) 0.3365(4) 0.02536(19)
N4 N 0.9948(4) 1.0274(5) 0.16965(19)
O1 O 0.8402(4) 1.1124(4) 0.22012(16)
O2 O 0.8448(3) 0.9134(4) 0.22026(16)
O3 O 0.4335(3) 0.7840(4) 0.15005(17)
O4 O 0.0749(3) 0.6057(3) 0.00117(14)
O5 O -0.0633(3) 0.6566(3) 0.02592(15)
O6 O 0.3175(3) 0.6103(3) 0.04128(15)
O7 O 0.2890(4) 0.8091(4) 0.02399(18)
C28B C 0.5840(5) -0.3530(5) -0.0173(3)
H20B H 0.5663 -0.4310 -0.0107
C29B C 0.5109(5) -0.2607(5) -0.0182(3)
H21B H 0.4458 -0.2763 -0.0124
C30B C 0.5373(5) -0.1433(5) -0.0279(3)
C31B C 0.6315(5) -0.1259(5) -0.0385(2)
H22B H 0.6483 -0.0494 -0.0471
C32B C 0.7024(5) -0.2240(5) -0.0362(2)
H23B H 0.7671 -0.2106 -0.0425
C33B C 0.4654(5) -0.0369(6) -0.0258(3)
H24B H 0.4465 0.0134 -0.0574
H25B H 0.3944 -0.0651 -0.0253
N3B N 0.6800(4) -0.3365(4) -0.02536(19)
C34B C 0.9183(8) 0.9213(7) -0.1606(3)
H26B H 0.8539 0.8921 -0.1896
C35B C 0.9249(7) 0.9119(7) -0.1086(3)
H27B H 0.8647 0.8761 -0.1036
C36B C 1.0176(6) 0.9540(5) -0.0646(2)
C37B C 1.0968(7) 1.0102(9) -0.0759(3)
H28B H 1.1594 1.0450 -0.0479
C38B C 1.0887(6) 1.0181(8) -0.1271(3)
H29B H 1.1468 1.0588 -0.1321
C39B C 1.0221(6) 0.9454(6) -0.0091(3)
H30B H 0.9778 0.8757 -0.0078
H31B H 1.1010 0.9316 0.0162
N4B N 1.0052(4) 0.9726(5) -0.16965(19)
Co2A Co 1.80217(6) 0.47236(6) 0.48563(3)
C1A C 1.2111(5) 1.0099(5) 0.2878(2)
C2A C 1.3410(5) 1.0089(5) 0.3073(2)
C3A C 1.3977(6) 1.1131(6) 0.3064(3)
H1A H 1.3573 1.1850 0.2954
C4A C 1.5169(7) 1.1112(7) 0.3222(4)
H2A H 1.5563 1.1824 0.3235
C5A C 1.5750(5) 1.0020(6) 0.3358(3)
H3A H 1.6532 0.9994 0.3447
C6A C 1.5169(5) 0.8965(6) 0.3360(2)
C7A C 1.3986(5) 0.9009(5) 0.3215(2)
H4A H 1.3590 0.8306 0.3215
C8A C 1.6818(5) 0.7695(6) 0.3580(2)
C9A C 1.7118(6) 0.7870(6) 0.3149(2)
H5A H 1.6572 0.8122 0.2815
C10A C 1.8235(6) 0.7662(6) 0.3228(3)
H6A H 1.8462 0.7798 0.2951
C11A C 1.9000(6) 0.7254(5) 0.3717(2)
H7A H 1.9750 0.7107 0.3767
C12A C 1.8708(5) 0.7048(5) 0.4145(2)
C13A C 1.7615(5) 0.7294(5) 0.4085(2)
C14A C 1.9614(5) 0.6524(4) 0.4664(2)
C15A C 1.7171(5) 0.7168(5) 0.4522(2)
C16A C 1.6825(5) 0.4568(6) 0.3618(2)
H8A H 1.6202 0.4732 0.3697
C17A C 1.6655(6) 0.4586(6) 0.3089(3)
H9A H 1.5933 0.4760 0.2820
C18A C 1.7563(6) 0.4346(6) 0.2954(2)
C19A C 1.8571(5) 0.4059(6) 0.3374(2)
H10A H 1.9204 0.3862 0.3308
C20A C 1.8667(6) 0.4055(5) 0.3892(2)
H11A H 1.9373 0.3842 0.4164
C21A C 1.7416(7) 0.4485(8) 0.2381(3)
H12A H 1.6895 0.3864 0.2163
H13A H 1.7059 0.5260 0.2246
C22A C 1.8493(8) 0.4408(9) 0.2309(3)
H14A H 1.8834 0.3619 0.2427
H15A H 1.9028 0.5007 0.2537
C23A C 1.8322(6) 0.4606(8) 0.1730(3)
C24A C 1.8304(6) 0.5746(7) 0.1520(3)
H16A H 1.8366 0.6419 0.1733
C25A C 1.8194(5) 0.5904(6) 0.0998(3)
H17A H 1.8169 0.6683 0.0868
C26A C 1.8112(5) 0.3853(6) 0.0862(2)
H18A H 1.8018 0.3198 0.0635
C27A C 1.8233(6) 0.3644(7) 0.1379(3)
H19A H 1.8257 0.2854 0.1498
N1A N 1.7845(4) 0.4326(4) 0.40334(17)
N2A N 1.8123(4) 0.4962(4) 0.06741(18)
O1A O 1.1598(4) 1.1124(4) 0.27988(16)
O2A O 1.1552(3) 0.9134(4) 0.27974(16)
O3A O 1.5665(3) 0.7840(4) 0.34995(17)
O4A O 1.9251(3) 0.6057(3) 0.49883(14)
O5A O 2.0633(3) 0.6566(3) 0.47408(15)
O6A O 1.6825(3) 0.6103(3) 0.45872(15)
O7A O 1.7110(4) 0.8091(4) 0.47601(18)
Co1B Co 1.0000 0.98341(10) -0.2500
Co2B Co -0.19783(6) 0.52764(6) -0.01437(3)
Co2B_2 Co 0.80217(6) -0.47236(6) -0.01437(3)
Co2B_3 Co 1.80217(6) 0.52764(6) -0.01437(3)
Co2C Co 0.19783(6) 0.52764(6) 0.51437(3)
Co2C_2 Co 2.19783(6) 0.52764(6) 0.51437(3)
N2B N 1.8123(4) 0.5038(4) 0.56741(18)
N2C N 0.1877(4) 0.5038(4) -0.06741(18)
N3A N 1.6800(4) 0.3365(4) 0.47464(19)
N4A N 1.0052(4) 1.0274(5) 0.33035(19)
O5B O 0.0633(3) 0.3434(3) -0.02592(15)
O5C O 1.9367(3) 0.3434(3) 0.52592(15)
loop_
_geom_bond_atom_site_label_1
_geom_bond_atom_site_label_2
_geom_bond_site_symmetry_1
_geom_bond_site_symmetry_2
Co1 N4 1_555 1_555
Co2 N1 1_555 1_555
C1 C2 1_555 1_555
C2 C3 1_555 1_555
C3 H1 1_555 1_555
C4 C3 1_555 1_555
H2 C4 1_555 1_555
C5 C4 1_555 1_555
H3 C5 1_555 1_555
C6 C5 1_555 1_555
C7 C2 1_555 1_555
H4 C7 1_555 1_555
C8 C9 1_555 1_555
C9 H5 1_555 1_555
C10 C9 1_555 1_555
H6 C10 1_555 1_555
C11 C10 1_555 1_555
H7 C11 1_555 1_555
C12 C11 1_555 1_555
C13 C8 1_555 1_555
C14 C12 1_555 1_555
C15 C13 1_555 1_555
C16 H8 1_555 1_555
C17 C16 1_555 1_555
H9 C17 1_555 1_555
C18 C17 1_555 1_555
C19 C18 1_555 1_555
H10 C19 1_555 1_555
C20 C19 1_555 1_555
H11 C20 1_555 1_555
C21 C18 1_555 1_555
H12 C21 1_555 1_555
H13 C21 1_555 1_555
C22 C21 1_555 1_555
H14 C22 1_555 1_555
H15 C22 1_555 1_555
C23 C22 1_555 1_555
C24 C23 1_555 1_555
H16 C24 1_555 1_555
C25 C24 1_555 1_555
H17 C25 1_555 1_555
C26 H18 1_555 1_555
C27 C23 1_555 1_555
H19 C27 1_555 1_555
C28 H20 1_555 1_555
C29 C28 1_555 1_555
H21 C29 1_555 1_555
C30 C29 1_555 1_555
C31 C30 1_555 1_555
H22 C31 1_555 1_555
C32 C31 1_555 1_555
H23 C32 1_555 1_555
C33 C30 1_555 1_555
H24 C33 1_555 1_555
H25 C33 1_555 1_555
C34 H26 1_555 1_555
C35 C34 1_555 1_555
H27 C35 1_555 1_555
C36 C35 1_555 1_555
C37 C36 1_555 1_555
H28 C37 1_555 1_555
C38 C37 1_555 1_555
H29 C38 1_555 1_555
C39 C36 1_555 1_555
H30 C39 1_555 1_555
H31 C39 1_555 1_555
N1 C16 1_555 1_555
N2 C25 1_555 1_555
N3 Co2 1_555 1_555
N4 C34 1_555 1_555
O1 Co1 1_555 1_555
O2 Co1 1_555 1_555
O3 C6 1_555 1_555
O4 Co2 1_555 1_555
O5 C14 1_555 1_555
O6 Co2 1_555 1_555
O7 C15 1_555 1_555
C28B H20B 1_555 1_555
C29B C28B 1_555 1_555
H21B C29B 1_555 1_555
C30B C29B 1_555 1_555
C31B C30B 1_555 1_555
H22B C31B 1_555 1_555
C32B C31B 1_555 1_555
H23B C32B 1_555 1_555
C33B C33 1_555 1_555
H24B C33B 1_555 1_555
H25B C33B 1_555 1_555
N3B C28B 1_555 1_555
C34B H26B 1_555 1_555
C35B C34B 1_555 1_555
H27B C35B 1_555 1_555
C36B C35B 1_555 1_555
C37B C36B 1_555 1_555
H28B C37B 1_555 1_555
C38B C37B 1_555 1_555
H29B C38B 1_555 1_555
C39B C39 1_555 1_555
H30B C39B 1_555 1_555
H31B C39B 1_555 1_555
N4B C34B 1_555 1_555
Co2A N1A 1_555 1_555
C1A C2A 1_555 1_555
C2A C3A 1_555 1_555
C3A H1A 1_555 1_555
C4A C3A 1_555 1_555
H2A C4A 1_555 1_555
C5A C4A 1_555 1_555
H3A C5A 1_555 1_555
C6A C5A 1_555 1_555
C7A C2A 1_555 1_555
H4A C7A 1_555 1_555
C8A C9A 1_555 1_555
C9A H5A 1_555 1_555
C10A C9A 1_555 1_555
H6A C10A 1_555 1_555
C11A C10A 1_555 1_555
H7A C11A 1_555 1_555
C12A C11A 1_555 1_555
C13A C8A 1_555 1_555
C14A C12A 1_555 1_555
C15A C13A 1_555 1_555
C16A H8A 1_555 1_555
C17A C16A 1_555 1_555
H9A C17A 1_555 1_555
C18A C17A 1_555 1_555
C19A C18A 1_555 1_555
H10A C19A 1_555 1_555
C20A C19A 1_555 1_555
H11A C20A 1_555 1_555
C21A C18A 1_555 1_555
H12A C21A 1_555 1_555
H13A C21A 1_555 1_555
C22A C21A 1_555 1_555
H14A C22A 1_555 1_555
H15A C22A 1_555 1_555
C23A C22A 1_555 1_555
C24A C23A 1_555 1_555
H16A C24A 1_555 1_555
C25A C24A 1_555 1_555
H17A C25A 1_555 1_555
C26A H18A 1_555 1_555
C27A C23A 1_555 1_555
H19A C27A 1_555 1_555
N1A C16A 1_555 1_555
N2A C25A 1_555 1_555
O1A Co1 1_555 1_555
O2A Co1 1_555 1_555
O3A C6A 1_555 1_555
O4A Co2A 1_555 1_555
O5A C14A 1_555 1_555
O6A Co2A 1_555 1_555
O7A C15A 1_555 1_555
Co1B N4B 1_555 1_555
Co2B O5 1_555 1_555
Co2B_2 N3B 1_555 1_555
Co2B_3 N2A 1_555 1_555
Co2C N2 1_555 1_555
Co2C_2 O5A 1_555 1_555
N2B Co2A 1_555 1_555
N2C Co2 1_555 1_555
N3A Co2A 1_555 1_555
N4A Co1 1_555 1_555
O5B Co2 1_555 1_555
O5C Co2A 1_555 1_555
C1 O1 1_555 1_555
C1 O2 1_555 1_555
C6 C7 1_555 1_555
C8 O3 1_555 1_555
C12 C13 1_555 1_555
C14 O4 1_555 1_555
C15 O6 1_555 1_555
C20 N1 1_555 1_555
C26 C27 1_555 1_555
C26 N2 1_555 1_555
C28 N3 1_555 1_555
C32 N3 1_555 1_555
C38 N4 1_555 1_555
C30B C33B 1_555 1_555
C32B N3B 1_555 1_555
C36B C39B 1_555 1_555
C38B N4B 1_555 1_555
C1A O1A 1_555 1_555
C1A O2A 1_555 1_555
C6A C7A 1_555 1_555
C8A O3A 1_555 1_555
C12A C13A 1_555 1_555
C14A O4A 1_555 1_555
C15A O6A 1_555 1_555
C20A N1A 1_555 1_555
C26A C27A 1_555 1_555
C26A N2A 1_555 1_555

#END
