
#######################################################################
#
#                 Cambridge Crystallographic Data Centre
#                                CCDC 
#
#######################################################################
#
# If this CIF has been generated from an entry in the Cambridge 
# Structural Database, then it will include bibliographic, chemical, 
# crystal, experimental, refinement or atomic coordinate data resulting 
# from the CCDC's data processing and validation procedures.
#
#######################################################################

data_LOBQAV01
_symmetry_cell_setting           orthorhombic
_symmetry_space_group_name_H-M   'P b c a'
_symmetry_Int_Tables_number      61
_space_group_name_Hall           '-P 2ac 2ab'
loop_
_symmetry_equiv_pos_site_id
_symmetry_equiv_pos_as_xyz
1 x,y,z
2 1/2-x,-y,1/2+z
3 -x,1/2+y,1/2-z
4 1/2+x,1/2-y,-z
5 -x,-y,-z
6 1/2+x,y,1/2-z
7 x,1/2-y,1/2+z
8 1/2-x,1/2+y,z
_cell_length_a                   13.895(3)
_cell_length_b                   6.8249(14)
_cell_length_c                   21.746(4)
_cell_angle_alpha                90
_cell_angle_beta                 90
_cell_angle_gamma                90
_cell_volume                     2062.22
loop_
_atom_site_label
_atom_site_type_symbol
_atom_site_fract_x
_atom_site_fract_y
_atom_site_fract_z
H1 H -0.013(3) 0.688(6) -0.5351(19)
H2 H -0.047(2) 0.520(4) -0.5251(15)
H3 H 0.267(4) 0.533(6) -0.362(2)
H4 H 0.523(3) 0.314(6) -0.322(2)
H5 H 0.482(3) 0.247(7) -0.222(2)
H6 H 0.216(3) 0.459(5) -0.2577(19)
Tb1 Tb 0.330980(10) 0.51676(2) -0.554680(6)
C1 C 0.3986(2) 0.4267(5) -0.35035(14)
C2 C 0.3057(3) 0.4703(6) -0.32909(17)
C3 C 0.2812(3) 0.4347(6) -0.26897(16)
C4 C 0.3473(3) 0.3515(5) -0.22871(15)
C5 C 0.4395(3) 0.3059(6) -0.24968(16)
C6 C 0.4646(3) 0.3432(6) -0.30990(16)
C7 C 0.4255(2) 0.4678(4) -0.41573(14)
C8 C 0.1256(3) 0.5269(5) -0.53066(19)
C9 C 0.0171(3) 0.5417(6) -0.53061(19)
C10 C 0.3193(3) 0.3030(5) -0.16388(15)
O1 O 0.36288(18) 0.5376(4) -0.45083(10)
O2 O 0.17561(16) 0.6743(3) -0.51643(11)
O3 O 0.16647(16) 0.3703(3) -0.54647(12)
O4 O 0.24009(18) 0.3666(4) -0.14400(10)
O5 O 0.48992(16) 0.5727(4) -0.56774(10)
O6 O 0.62359(19) 0.8005(4) -0.86699(11)
H1D H 0.013(3) 0.312(6) -0.4649(19)
H2D H 0.047(2) 0.480(4) -0.4749(15)
H3D H 0.733(4) 0.467(6) -0.638(2)
H4D H 0.477(3) 0.686(6) -0.678(2)
H5D H 0.518(3) 0.753(7) -0.778(2)
H6D H 0.784(3) 0.541(5) -0.7423(19)
Tb1G Tb 0.169020(10) 1.01676(2) -0.554680(6)
Tb1C Tb -0.169020(10) 0.98324(2) -0.445320(6)
Tb1A Tb 0.169020(10) 0.48324(2) -0.054680(6)
Tb1D Tb 0.669020(10) 0.48324(2) -0.445320(6)
Tb1B Tb 0.669020(10) 1.01676(2) -0.945320(6)
Tb1G_2 Tb 0.169020(10) 0.01676(2) -0.554680(6)
Tb1D_2 Tb -0.330980(10) 0.48324(2) -0.445320(6)
Tb1F Tb 0.330980(10) -0.01676(2) -0.054680(6)
Tb1E Tb 0.830980(10) 0.51676(2) -0.945320(6)
Tb1C_2 Tb -0.169020(10) -0.01676(2) -0.445320(6)
C1D C 0.6014(2) 0.5733(5) -0.64965(14)
C2D C 0.6943(3) 0.5297(6) -0.67091(17)
C3D C 0.7188(3) 0.5653(6) -0.73103(16)
C4D C 0.6527(3) 0.6485(5) -0.77129(15)
C5D C 0.5605(3) 0.6941(6) -0.75032(16)
C6D C 0.5354(3) 0.6568(6) -0.69010(16)
C7D C 0.5745(2) 0.5322(4) -0.58427(14)
C8D C -0.1256(3) 0.4731(5) -0.46934(19)
C9D C -0.0171(3) 0.4583(6) -0.46939(19)
C10D C 0.6807(3) 0.6970(5) -0.83612(15)
O1D O 0.63712(18) 0.4624(4) -0.54917(10)
O2C O 0.67561(16) 0.8257(3) -0.48357(11)
O2G O 0.32439(16) 0.1743(3) -0.51643(11)
O2D O 0.82439(16) 0.3257(3) -0.48357(11)
O2D_2 O -0.17561(16) 0.3257(3) -0.48357(11)
O3G O 0.33353(16) 0.8703(3) -0.54647(12)
O3D O -0.16647(16) 0.6297(3) -0.45353(12)
O3D_2 O 0.83353(16) 0.6297(3) -0.45353(12)
O3C O 0.66647(16) 0.1297(3) -0.45353(12)
O4A O 0.25991(18) 0.6334(4) -0.64400(10)
O4E O 0.74009(18) 0.3666(4) -0.35600(10)
O4D O 0.75991(18) 0.6334(4) -0.85600(10)
O5D O 0.51008(16) 0.4273(4) -0.43226(10)
O6B O 0.37641(19) 0.3005(4) -0.63301(11)
O6F O 0.62359(19) 0.6995(4) -0.36699(11)
O6D O 0.37641(19) 0.1995(4) -0.13301(11)
loop_
_geom_bond_atom_site_label_1
_geom_bond_atom_site_label_2
_geom_bond_site_symmetry_1
_geom_bond_site_symmetry_2
H1 C9 1_555 1_555
H2 C9 1_555 1_555
H3 C2 1_555 1_555
H4 C6 1_555 1_555
H5 C5 1_555 1_555
H6 C3 1_555 1_555
Tb1 O1 1_555 1_555
C1 C2 1_555 1_555
C2 C3 1_555 1_555
C3 C4 1_555 1_555
C4 C5 1_555 1_555
C5 C6 1_555 1_555
C6 C1 1_555 1_555
C7 C1 1_555 1_555
C8 C9 1_555 1_555
C9 C9D 1_555 1_555
C10 C4 1_555 1_555
O1 C7 1_555 1_555
O2 Tb1 1_555 1_555
O3 Tb1 1_555 1_555
O4 C10 1_555 1_555
O5 Tb1 1_555 1_555
O6 Tb1B 1_555 1_555
H1D C9D 1_555 1_555
H2D C9D 1_555 1_555
H3D C2D 1_555 1_555
H4D C6D 1_555 1_555
H5D C5D 1_555 1_555
H6D C3D 1_555 1_555
Tb1G O2 1_555 1_555
Tb1C O3D 1_555 1_555
Tb1A O4 1_555 1_555
Tb1D O1D 1_555 1_555
Tb1G_2 O3 1_555 1_555
Tb1D_2 O2D_2 1_555 1_555
Tb1F O6D 1_555 1_555
Tb1E O4D 1_555 1_555
Tb1C_2 O2D_2 1_555 1_555
C1D C2D 1_555 1_555
C2D C3D 1_555 1_555
C3D C4D 1_555 1_555
C4D C5D 1_555 1_555
C5D C6D 1_555 1_555
C6D C1D 1_555 1_555
C7D O5 1_555 1_555
C8D C9D 1_555 1_555
C10D O6 1_555 1_555
O1D C7D 1_555 1_555
O2C Tb1D 1_555 1_555
O2G Tb1 1_555 1_555
O2D Tb1D 1_555 1_555
O2D_2 C8D 1_555 1_555
O3G Tb1 1_555 1_555
O3D Tb1D_2 1_555 1_555
O3D_2 Tb1D 1_555 1_555
O3C Tb1D 1_555 1_555
O4A Tb1 1_555 1_555
O4E Tb1D 1_555 1_555
O4D C10D 1_555 1_555
O5D C7 1_555 1_555
O6B Tb1 1_555 1_555
O6F Tb1D 1_555 1_555
O6D C10 1_555 1_555
C8 O2 1_555 1_555
C8 O3 1_555 1_555
Tb1G O3G 1_555 1_555
Tb1D O5D 1_555 1_555
Tb1G_2 O2G 1_555 1_555
C1D C7D 1_555 1_555
C4D C10D 1_555 1_555
C8D O3D 1_555 1_555

#END
