
#######################################################################
#
#                 Cambridge Crystallographic Data Centre
#                                CCDC 
#
#######################################################################
#
# If this CIF has been generated from an entry in the Cambridge 
# Structural Database, then it will include bibliographic, chemical, 
# crystal, experimental, refinement or atomic coordinate data resulting 
# from the CCDC's data processing and validation procedures.
#
#######################################################################

data_LOBXUW
_symmetry_cell_setting           triclinic
_symmetry_space_group_name_H-M   'P -1'
_symmetry_Int_Tables_number      2
_space_group_name_Hall           '-P 1'
loop_
_symmetry_equiv_pos_site_id
_symmetry_equiv_pos_as_xyz
1 x,y,z
2 -x,-y,-z
_cell_length_a                   6.2118(7)
_cell_length_b                   12.7222(14)
_cell_length_c                   15.6601(18)
_cell_angle_alpha                111.741(2)
_cell_angle_beta                 90.309(2)
_cell_angle_gamma                95.260(2)
_cell_volume                     1143.67
loop_
_atom_site_label
_atom_site_type_symbol
_atom_site_fract_x
_atom_site_fract_y
_atom_site_fract_z
Gd1 Gd 0.24371(2) 0.472144(12) 0.075317(10)
O1 O 0.0775(4) 0.2748(2) 0.01956(19)
O2 O -0.0886(4) 0.38753(19) -0.03041(16)
O3 O -0.0667(4) 0.5066(2) 0.17142(16)
O4 O 0.1965(4) 0.4402(2) 0.22361(19)
O5 O 0.4079(4) 0.6447(2) 0.19685(17)
O6 O 0.5959(4) 0.59101(19) 0.07279(15)
O7 O 0.5409(4) 0.3842(2) 0.10173(19)
N1 N -0.5448(6) -0.1952(3) -0.1445(3)
N2 N -0.6805(6) 0.6840(3) 0.5098(3)
N3 N 1.2920(6) 0.9676(4) 0.3726(3)
C1 C -0.0758(6) 0.2899(3) -0.0247(2)
C2 C -0.2482(6) 0.1977(3) -0.0705(3)
H1 H -0.3645 0.2140 -0.0995
C3 C -0.2458(6) 0.0938(3) -0.0724(3)
H2 H -0.1240 0.0777 -0.0466
C4 C -0.4190(6) 0.0005(3) -0.1120(3)
C5 C -0.6180(8) 0.0145(4) -0.1449(4)
H3 H -0.6448 0.0852 -0.1450
C6 C -0.7752(7) -0.0755(4) -0.1773(3)
H4 H -0.9080 -0.0669 -0.2003
C7 C -0.7328(7) -0.1786(3) -0.1750(3)
H5 H -0.8405 -0.2391 -0.1959
C8 C -0.3917(7) -0.1075(3) -0.1140(3)
H6 H -0.2593 -0.1194 -0.0930
C9 C 0.0238(6) 0.4859(3) 0.2362(3)
C10 C -0.0715(6) 0.5192(3) 0.3273(3)
H7 H -0.0013 0.5053 0.3741
C11 C -0.2553(6) 0.5686(3) 0.3448(3)
H8 H -0.3250 0.5776 0.2956
C12 C -0.3588(6) 0.6102(3) 0.4332(3)
C13 C -0.2705(7) 0.6138(4) 0.5164(3)
H9 H -0.1330 0.5915 0.5193
C14 C -0.3881(8) 0.6504(4) 0.5937(3)
H10 H -0.3319 0.6534 0.6498
C15 C -0.5910(8) 0.6829(4) 0.5871(3)
H11 H -0.6707 0.7056 0.6399
C16 C -0.5622(7) 0.6482(3) 0.4349(3)
H12 H -0.6203 0.6488 0.3802
C17 C 0.5793(6) 0.6546(3) 0.1569(2)
C18 C 0.7606(6) 0.7385(3) 0.2060(3)
H13 H 0.8965 0.7308 0.1811
C19 C 0.7388(6) 0.8243(3) 0.2838(3)
H14 H 0.6023 0.8298 0.3083
C20 C 0.9125(6) 0.9118(3) 0.3352(3)
C21 C 0.8659(7) 1.0191(3) 0.3920(3)
H15 H 0.7233 1.0366 0.3989
C22 C 1.0313(7) 1.0991(4) 0.4378(3)
H16 H 1.0029 1.1718 0.4760
C23 C 1.2396(8) 1.0707(5) 0.4266(4)
H17 H 1.3508 1.1259 0.4581
C24 C 1.1281(7) 0.8911(4) 0.3285(3)
H18 H 1.1605 0.8189 0.2908
H19 H 0.534(8) 0.319(2) 0.106(4)
H20 H 0.657(4) 0.428(3) 0.122(3)
Gd1A Gd -0.24371(2) 0.527856(12) -0.075317(10)
Gd1A_2 Gd 0.75629(2) 0.527856(12) -0.075317(10)
O2A O 0.0886(4) 0.61247(19) 0.03041(16)
O6A O 0.4041(4) 0.40899(19) -0.07279(15)
loop_
_geom_bond_atom_site_label_1
_geom_bond_atom_site_label_2
_geom_bond_site_symmetry_1
_geom_bond_site_symmetry_2
Gd1 O1 1_555 1_555
O1 C1 1_555 1_555
O2 Gd1 1_555 1_555
O3 Gd1 1_555 1_555
O4 Gd1 1_555 1_555
O5 Gd1 1_555 1_555
O6 Gd1 1_555 1_555
O7 Gd1 1_555 1_555
N1 C7 1_555 1_555
N2 C15 1_555 1_555
N3 C23 1_555 1_555
C1 O2 1_555 1_555
C2 C1 1_555 1_555
H1 C2 1_555 1_555
C3 C2 1_555 1_555
H2 C3 1_555 1_555
C4 C3 1_555 1_555
C5 C4 1_555 1_555
H3 C5 1_555 1_555
C6 C5 1_555 1_555
H4 C6 1_555 1_555
C7 C6 1_555 1_555
H5 C7 1_555 1_555
C8 N1 1_555 1_555
H6 C8 1_555 1_555
C9 O3 1_555 1_555
C10 C9 1_555 1_555
H7 C10 1_555 1_555
C11 C10 1_555 1_555
H8 C11 1_555 1_555
C12 C11 1_555 1_555
C13 C12 1_555 1_555
H9 C13 1_555 1_555
C14 C13 1_555 1_555
H10 C14 1_555 1_555
C15 C14 1_555 1_555
H11 C15 1_555 1_555
C16 N2 1_555 1_555
H12 C16 1_555 1_555
C17 O5 1_555 1_555
C18 C17 1_555 1_555
H13 C18 1_555 1_555
C19 C18 1_555 1_555
H14 C19 1_555 1_555
C20 C19 1_555 1_555
C21 C20 1_555 1_555
H15 C21 1_555 1_555
C22 C21 1_555 1_555
H16 C22 1_555 1_555
C23 C22 1_555 1_555
H17 C23 1_555 1_555
C24 N3 1_555 1_555
H18 C24 1_555 1_555
H19 O7 1_555 1_555
H20 O7 1_555 1_555
Gd1A O2 1_555 1_555
Gd1A_2 O6 1_555 1_555
O2A Gd1 1_555 1_555
O6A Gd1 1_555 1_555
O4 C9 1_555 1_555
O6 C17 1_555 1_555
C4 C8 1_555 1_555
C12 C16 1_555 1_555
C20 C24 1_555 1_555
Gd1A O2A 1_555 1_555
Gd1A_2 O6A 1_555 1_555

#END
