
#######################################################################
#
#                 Cambridge Crystallographic Data Centre
#                                CCDC 
#
#######################################################################
#
# If this CIF has been generated from an entry in the Cambridge 
# Structural Database, then it will include bibliographic, chemical, 
# crystal, experimental, refinement or atomic coordinate data resulting 
# from the CCDC's data processing and validation procedures.
#
#######################################################################

data_LOCCIP
_symmetry_cell_setting           orthorhombic
_symmetry_space_group_name_H-M   'C c c a'
_symmetry_Int_Tables_number      68
_space_group_name_Hall           '-C 2b 2bc'
loop_
_symmetry_equiv_pos_site_id
_symmetry_equiv_pos_as_xyz
1 x,y,z
2 1/2+x,1/2+y,z
3 1/2+x,y,-z
4 x,-y,1/2+z
5 1/2-x,y,1/2+z
6 x,1/2+y,-z
7 1/2+x,1/2-y,1/2+z
8 -x,1/2+y,1/2+z
9 -x,-y,-z
10 1/2-x,1/2-y,-z
11 1/2-x,-y,z
12 -x,y,1/2-z
13 1/2+x,-y,1/2-z
14 -x,1/2-y,z
15 1/2-x,1/2+y,1/2-z
16 x,1/2-y,1/2-z
_cell_length_a                   12.1816(1)
_cell_length_b                   20.0412(4)
_cell_length_c                   17.7458(3)
_cell_angle_alpha                90
_cell_angle_beta                 90
_cell_angle_gamma                90
_cell_volume                     4332.35
loop_
_atom_site_label
_atom_site_type_symbol
_atom_site_fract_x
_atom_site_fract_y
_atom_site_fract_z
Cd1 Cd 0.5000 0.2500 0.08238(3)
N1 N 0.3995(4) 0.1521(2) 0.0852(3)
C1 C 0.3526(5) 0.1303(2) 0.1476(3)
H1 H 0.3596(5) 0.1560(2) 0.1910(3)
C2 C 0.2931(5) 0.0711(3) 0.1521(3)
H2 H 0.2614(5) 0.0579(3) 0.1974(3)
C3 C 0.2818(5) 0.0320(2) 0.0881(3)
C4 C 0.3319(7) 0.0537(3) 0.0222(4)
H3 H 0.3274(7) 0.0286(3) -0.0218(4)
C5 C 0.3891(7) 0.1140(3) 0.0235(4)
H4 H 0.4217(7) 0.1287(3) -0.0209(4)
N2 N 0.5000 0.2500 -0.0511(4)
C6 C 0.5878(5) 0.2303(3) -0.0904(3)
H5 H 0.6494(5) 0.2158(3) -0.0643(3)
C7 C 0.5909(5) 0.2305(3) -0.1669(3)
H6 H 0.6546(5) 0.2175(3) -0.1918(3)
C8 C 0.5000 0.2500 -0.2077(4)
O1 O 0.6686(4) 0.1793(3) 0.0678(3)
O2 O 0.6113(5) 0.2029(2) 0.1794(3)
N3 N 0.6770(5) 0.1725(3) 0.1377(4)
O3 O 0.7506(5) 0.1358(4) 0.1634(4)
N1M N 0.6005(4) 0.3479(2) 0.0852(3)
O1M O 0.3314(4) 0.3207(3) 0.0678(3)
O2M O 0.3887(5) 0.2971(2) 0.1794(3)
C3J C 0.2182(5) -0.0320(2) 0.0881(3)
C6M C 0.4122(5) 0.2697(3) -0.0904(3)
C8K C 0.5000 0.2500 -0.2923(4)
C7M C 0.4091(5) 0.2695(3) -0.1669(3)
N3M N 0.3230(5) 0.3275(3) 0.1377(4)
C7K C 0.4091(5) 0.2305(3) -0.3331(3)
C7O C 0.5909(5) 0.2695(3) -0.3331(3)
C2J C 0.2069(5) -0.0711(3) 0.1521(3)
C4J C 0.1681(7) -0.0537(3) 0.0222(4)
O3M O 0.2494(5) 0.3642(4) 0.1634(4)
C6O C 0.5878(5) 0.2697(3) -0.4096(3)
H6O H 0.6546(5) 0.2825(3) -0.3082(3)
C6K C 0.4122(5) 0.2303(3) -0.4096(3)
H6K H 0.3454(5) 0.2175(3) -0.3082(3)
H3J H 0.1726(7) -0.0286(3) -0.0218(4)
C5J C 0.1109(7) -0.1140(3) 0.0235(4)
C1J C 0.1474(5) -0.1303(2) 0.1476(3)
H2J H 0.2386(5) -0.0579(3) 0.1974(3)
N2K N 0.5000 0.2500 -0.4489(4)
H5O H 0.6494(5) 0.2842(3) -0.4357(3)
H5K H 0.3506(5) 0.2158(3) -0.4357(3)
N1J N 0.1005(4) -0.1521(2) 0.0852(3)
H4J H 0.0783(7) -0.1287(3) -0.0209(4)
Cd1K Cd 0.5000 0.2500 -0.58238(3)
Cd1A Cd 0.0000 -0.2500 0.08238(3)
N1K N 0.6005(4) 0.1521(2) -0.5852(3)
N1O N 0.3995(4) 0.3479(2) -0.5852(3)
O1K O 0.3314(4) 0.1793(3) -0.5678(3)
O1O O 0.6686(4) 0.3207(3) -0.5678(3)
O2K O 0.3887(5) 0.2029(2) -0.6794(3)
O2O O 0.6113(5) 0.2971(2) -0.6794(3)
N3K N 0.3230(5) 0.1725(3) -0.6377(4)
N3O N 0.6770(5) 0.3275(3) -0.6377(4)
C1K C 0.6474(5) 0.1303(2) -0.6476(3)
C5K C 0.6109(7) 0.1140(3) -0.5235(4)
C4K C 0.6681(7) 0.0537(3) -0.5222(4)
H4K H 0.5783(7) 0.1287(3) -0.4791(4)
H1K H 0.6404(5) 0.1560(2) -0.6910(3)
C2K C 0.7069(5) 0.0711(3) -0.6521(3)
H2K H 0.7386(5) 0.0579(3) -0.6974(3)
C3K C 0.7182(5) 0.0320(2) -0.5881(3)
H3K H 0.6726(7) 0.0286(3) -0.4782(4)
C3L C 0.7818(5) -0.0320(2) -0.5881(3)
C2L C 0.7931(5) -0.0711(3) -0.6521(3)
C4L C 0.8319(7) -0.0537(3) -0.5222(4)
C1L C 0.8526(5) -0.1303(2) -0.6476(3)
H2L H 0.7614(5) -0.0579(3) -0.6974(3)
H3L H 0.8274(7) -0.0286(3) -0.4782(4)
C5L C 0.8891(7) -0.1140(3) -0.5235(4)
N1L N 0.8995(4) -0.1521(2) -0.5852(3)
H1L H 0.8596(5) -0.1560(2) -0.6910(3)
H4L H 0.9217(7) -0.1287(3) -0.4791(4)
Cd1L Cd 1.0000 -0.2500 -0.58238(3)
O3O O 0.7506(5) 0.3642(4) -0.6634(4)
O3K O 0.2494(5) 0.1358(4) -0.6634(4)
H5M H 0.3506(5) 0.2842(3) -0.0643(3)
H6M H 0.3454(5) 0.2825(3) -0.1918(3)
H1J H 0.1404(5) -0.1560(2) 0.1910(3)
O5 O -0.1035(28) -0.0158(13) 0.1578(15)
O9 O -0.0229(53) 0.0661(36) 0.1865(44)
O11 O 0.0000 0.0221(24) 0.2500
O4? O -0.0271(17) 0.0612(12) 0.2246(14)
O6? O -0.0774(30) -0.0101(17) 0.1857(15)
O7? O -0.0403(25) 0.0306(21) 0.2028(22)
O8? O -0.0129(37) 0.0441(30) 0.1474(34)
O10? O 0.0000 0.0739(31) 0.2500
loop_
_geom_bond_atom_site_label_1
_geom_bond_atom_site_label_2
_geom_bond_site_symmetry_1
_geom_bond_site_symmetry_2
Cd1 N1 1_555 1_555
N1 C1 1_555 1_555
C1 H1 1_555 1_555
C2 C1 1_555 1_555
H2 C2 1_555 1_555
C3 C2 1_555 1_555
C4 C3 1_555 1_555
H3 C4 1_555 1_555
C5 N1 1_555 1_555
H4 C5 1_555 1_555
N2 Cd1 1_555 1_555
C6 N2 1_555 1_555
H5 C6 1_555 1_555
C7 C6 1_555 1_555
H6 C7 1_555 1_555
C8 C7 1_555 1_555
O1 Cd1 1_555 1_555
O2 Cd1 1_555 1_555
N3 O1 1_555 1_555
O3 N3 1_555 1_555
N1M Cd1 1_555 1_555
O1M Cd1 1_555 1_555
O2M Cd1 1_555 1_555
C3J C3 1_555 1_555
C6M N2 1_555 1_555
C8K C8 1_555 1_555
C7M C8 1_555 1_555
N3M O1M 1_555 1_555
C7K C8K 1_555 1_555
C7O C8K 1_555 1_555
C2J C3J 1_555 1_555
C4J C3J 1_555 1_555
O3M N3M 1_555 1_555
C6O C7O 1_555 1_555
H6O C7O 1_555 1_555
C6K C7K 1_555 1_555
H6K C7K 1_555 1_555
H3J C4J 1_555 1_555
C5J C4J 1_555 1_555
C1J C2J 1_555 1_555
H2J C2J 1_555 1_555
N2K C6O 1_555 1_555
H5O C6O 1_555 1_555
H5K C6K 1_555 1_555
N1J C5J 1_555 1_555
H4J C5J 1_555 1_555
Cd1K N2K 1_555 1_555
Cd1A N1J 1_555 1_555
N1K Cd1K 1_555 1_555
N1O Cd1K 1_555 1_555
O1K Cd1K 1_555 1_555
O1O Cd1K 1_555 1_555
O2K Cd1K 1_555 1_555
O2O Cd1K 1_555 1_555
N3K O1K 1_555 1_555
N3O O1O 1_555 1_555
C1K N1K 1_555 1_555
C5K N1K 1_555 1_555
C4K C5K 1_555 1_555
H4K C5K 1_555 1_555
H1K C1K 1_555 1_555
C2K C1K 1_555 1_555
H2K C2K 1_555 1_555
C3K C4K 1_555 1_555
H3K C4K 1_555 1_555
C3L C3K 1_555 1_555
C2L C3L 1_555 1_555
C4L C3L 1_555 1_555
C1L C2L 1_555 1_555
H2L C2L 1_555 1_555
H3L C4L 1_555 1_555
C5L C4L 1_555 1_555
N1L C1L 1_555 1_555
H1L C1L 1_555 1_555
H4L C5L 1_555 1_555
Cd1L N1L 1_555 1_555
O3O N3O 1_555 1_555
O3K N3K 1_555 1_555
H5M C6M 1_555 1_555
H6M C7M 1_555 1_555
H1J C1J 1_555 1_555
C4 C5 1_555 1_555
O2 N3 1_555 1_555
O2M N3M 1_555 1_555
C6M C7M 1_555 1_555
C6K N2K 1_555 1_555
C1J N1J 1_555 1_555
O2K N3K 1_555 1_555
O2O N3O 1_555 1_555
C2K C3K 1_555 1_555
C5L N1L 1_555 1_555

#END
