
#######################################################################
#
#                 Cambridge Crystallographic Data Centre
#                                CCDC 
#
#######################################################################
#
# If this CIF has been generated from an entry in the Cambridge 
# Structural Database, then it will include bibliographic, chemical, 
# crystal, experimental, refinement or atomic coordinate data resulting 
# from the CCDC's data processing and validation procedures.
#
#######################################################################

data_LOCHIU
_symmetry_cell_setting           monoclinic
_symmetry_space_group_name_H-M   'C 2/c'
_symmetry_Int_Tables_number      15
_space_group_name_Hall           '-C 2yn'
loop_
_symmetry_equiv_pos_site_id
_symmetry_equiv_pos_as_xyz
1 x,y,z
2 1/2+x,1/2+y,z
3 x,-y,1/2+z
4 1/2+x,1/2-y,1/2+z
5 -x,-y,-z
6 1/2-x,1/2-y,-z
7 -x,y,1/2-z
8 1/2-x,1/2+y,1/2-z
_cell_length_a                   12.651(4)
_cell_length_b                   7.7399(15)
_cell_length_c                   15.473(4)
_cell_angle_alpha                90
_cell_angle_beta                 97.047(5)
_cell_angle_gamma                90
_cell_volume                     1503.63
loop_
_atom_site_label
_atom_site_type_symbol
_atom_site_fract_x
_atom_site_fract_y
_atom_site_fract_z
Tl1 Tl -0.16974(8) 0.10005(15) -0.25483(7)
N1 N 0.0272(17) 0.121(3) -0.0984(16)
C1 C 0.015(2) 0.204(3) -0.0416(18)
C2 C -0.0063(18) 0.301(3) 0.0323(17)
C3 C 0.0594(19) 0.289(3) 0.1075(18)
N2 N 0.119(2) 0.267(3) 0.1684(18)
N3 N -0.2303(18) 0.369(3) -0.1071(18)
C4 C -0.179(2) 0.385(4) -0.050(2)
C5 C -0.1036(19) 0.410(3) 0.0259(18)
C6 C -0.128(2) 0.484(4) 0.1051(19)
N4 N -0.1637(19) 0.540(3) 0.1629(17)
Tl1F Tl 0.16974(8) 0.10005(15) -0.24517(7)
Tl1G Tl -0.33026(8) 0.60005(15) -0.24517(7)
N1F N -0.0272(17) 0.121(3) -0.4016(16)
N2D N -0.119(2) -0.267(3) -0.1684(18)
N3G N -0.2697(18) -0.131(3) -0.3929(18)
N4E N -0.3363(19) -0.040(3) -0.1629(17)
N2C N -0.381(2) 0.233(3) -0.3316(18)
N4B N -0.1637(19) 0.460(3) -0.3371(17)
Tl1C Tl 0.33026(8) 0.39995(15) 0.24517(7)
Tl1D Tl 0.16974(8) -0.10005(15) 0.25483(7)
Tl1B Tl -0.16974(8) 0.89995(15) 0.24517(7)
Tl1E Tl -0.33026(8) 0.39995(15) 0.25483(7)
N3C N 0.2697(18) 0.131(3) 0.3929(18)
N2A N -0.381(2) 0.767(3) 0.1684(18)
loop_
_geom_bond_atom_site_label_1
_geom_bond_atom_site_label_2
_geom_bond_site_symmetry_1
_geom_bond_site_symmetry_2
Tl1 N1 1_555 1_555
N1 C1 1_555 1_555
C1 C2 1_555 1_555
C2 C3 1_555 1_555
C3 N2 1_555 1_555
N2 Tl1C 1_555 1_555
N3 Tl1 1_555 1_555
C4 N3 1_555 1_555
C5 C2 1_555 1_555
C6 C5 1_555 1_555
N4 C6 1_555 1_555
Tl1F N1 1_555 1_555
Tl1G N3 1_555 1_555
N1F Tl1 1_555 1_555
N2D Tl1 1_555 1_555
N3G Tl1 1_555 1_555
N4E Tl1 1_555 1_555
N2C Tl1 1_555 1_555
N4B Tl1 1_555 1_555
Tl1C N3C 1_555 1_555
Tl1D N2 1_555 1_555
Tl1B N4 1_555 1_555
Tl1E N4 1_555 1_555
N3C Tl1D 1_555 1_555
N2A Tl1B 1_555 1_555
C4 C5 1_555 1_555
Tl1F N1F 1_555 1_555
Tl1G N2C 1_555 1_555
Tl1G N4B 1_555 1_555
Tl1E N2A 1_555 1_555

#END
