
#######################################################################
#
#                 Cambridge Crystallographic Data Centre
#                                CCDC 
#
#######################################################################
#
# If this CIF has been generated from an entry in the Cambridge 
# Structural Database, then it will include bibliographic, chemical, 
# crystal, experimental, refinement or atomic coordinate data resulting 
# from the CCDC's data processing and validation procedures.
#
#######################################################################

data_LOCMIA01
_symmetry_cell_setting           orthorhombic
_symmetry_space_group_name_H-M   'P b c a'
_symmetry_Int_Tables_number      61
_space_group_name_Hall           '-P 2ac 2ab'
loop_
_symmetry_equiv_pos_site_id
_symmetry_equiv_pos_as_xyz
1 x,y,z
2 1/2-x,-y,1/2+z
3 -x,1/2+y,1/2-z
4 1/2+x,1/2-y,-z
5 -x,-y,-z
6 1/2+x,y,1/2-z
7 x,1/2-y,1/2+z
8 1/2-x,1/2+y,z
_cell_length_a                   14.5722(4)
_cell_length_b                   6.5593(2)
_cell_length_c                   16.4172(5)
_cell_angle_alpha                90
_cell_angle_beta                 90
_cell_angle_gamma                90
_cell_volume                     1569.21
loop_
_atom_site_label
_atom_site_type_symbol
_atom_site_fract_x
_atom_site_fract_y
_atom_site_fract_z
O1 O 0.2282(2) 0.4831(4) 0.76253(18)
Zn1 Zn 0.22161(3) 0.22055(6) 0.70960(3)
C1 C 0.3896(3) 0.2129(6) 0.6085(2)
H1 H 0.4142 0.1709 0.6580
N1 N 0.5613(2) 0.2740(5) 0.3986(2)
N2 N 0.5905(2) 0.3272(5) 0.3240(2)
C2 C 0.4118(3) 0.2945(6) 0.4680(2)
N3 N 0.2988(2) 0.2526(5) 0.6047(2)
C3 C 0.4476(2) 0.2316(6) 0.5425(2)
H2 H 0.5098 0.2027 0.5477
N4 N 0.5222(2) 0.4035(5) 0.2797(2)
C4 C 0.2649(3) 0.3112(6) 0.5322(2)
H3 H 0.2024 0.3379 0.5284
N5 N 0.4464(2) 0.3997(5) 0.3252(2)
C5 C 0.4722(3) 0.3206(6) 0.3977(2)
C6 C 0.3178(3) 0.3337(6) 0.4637(3)
H4 H 0.2914 0.3747 0.4148
H5 H 0.189(4) 0.493(9) 0.778(3)
O1G O 0.2718(2) -0.0169(4) 0.76253(18)
Zn1C Zn 0.72161(3) 0.27945(6) 0.29040(3)
Zn1G Zn 0.27839(3) 0.72055(6) 0.70960(3)
N2C N 0.0905(2) 0.1728(5) 0.6760(2)
loop_
_geom_bond_atom_site_label_1
_geom_bond_atom_site_label_2
_geom_bond_site_symmetry_1
_geom_bond_site_symmetry_2
O1 Zn1 1_555 1_555
Zn1 N3 1_555 1_555
C1 H1 1_555 1_555
N1 N2 1_555 1_555
N2 N4 1_555 1_555
C2 C3 1_555 1_555
N3 C1 1_555 1_555
C3 C1 1_555 1_555
H2 C3 1_555 1_555
N4 N5 1_555 1_555
C4 N3 1_555 1_555
H3 C4 1_555 1_555
N5 C5 1_555 1_555
C5 N1 1_555 1_555
C6 C2 1_555 1_555
H4 C6 1_555 1_555
H5 O1 1_555 1_555
O1G Zn1 1_555 1_555
Zn1C N2 1_555 1_555
Zn1G O1 1_555 1_555
N2C Zn1 1_555 1_555
C2 C5 1_555 1_555
C4 C6 1_555 1_555

#END
