
#######################################################################
#
#                 Cambridge Crystallographic Data Centre
#                                CCDC 
#
#######################################################################
#
# If this CIF has been generated from an entry in the Cambridge 
# Structural Database, then it will include bibliographic, chemical, 
# crystal, experimental, refinement or atomic coordinate data resulting 
# from the CCDC's data processing and validation procedures.
#
#######################################################################

data_LOCTED
_symmetry_cell_setting           monoclinic
_symmetry_space_group_name_H-M   'P 21/n'
_symmetry_Int_Tables_number      14
_space_group_name_Hall           '-P 2yn'
loop_
_symmetry_equiv_pos_site_id
_symmetry_equiv_pos_as_xyz
1 x,y,z
2 1/2-x,1/2+y,1/2-z
3 -x,-y,-z
4 1/2+x,1/2-y,1/2+z
_cell_length_a                   10.4621(11)
_cell_length_b                   16.9501(18)
_cell_length_c                   11.9692(13)
_cell_angle_alpha                90
_cell_angle_beta                 96.401(2)
_cell_angle_gamma                90
_cell_volume                     2109.31
loop_
_atom_site_label
_atom_site_type_symbol
_atom_site_fract_x
_atom_site_fract_y
_atom_site_fract_z
Zn1 Zn 1.20021(4) 0.17099(2) 0.92148(3)
N1 N 1.0835(3) 0.12274(17) 0.7889(2)
N2 N 0.7425(3) -0.01903(16) 0.5388(2)
N3 N 0.4130(3) -0.23385(16) 0.5428(2)
C1 C 0.7070(5) 0.1729(3) -0.1309(4)
H1 H 0.6206 0.1691 -0.1670
H2 H 0.7638 0.1443 -0.1739
H3 H 0.7325 0.2273 -0.1258
C2 C 0.7135(4) 0.1377(3) -0.0128(3)
C3 C 0.6069(4) 0.1058(3) 0.0271(3)
H4 H 0.5290 0.1059 -0.0186
C4 C 0.6128(4) 0.0735(2) 0.1340(3)
H5 H 0.5393 0.0515 0.1583
C5 C 0.7261(3) 0.07375(19) 0.2046(3)
C6 C 0.8336(3) 0.1065(2) 0.1649(3)
H6 H 0.9114 0.1077 0.2108
C7 C 0.8263(4) 0.1373(3) 0.0572(3)
H7 H 0.8999 0.1583 0.0318
C8 C 0.7329(3) 0.04108(19) 0.3195(3)
C9 C 0.6548(3) -0.0203(2) 0.3457(3)
H8 H 0.5983 -0.0433 0.2896
C10 C 0.6600(3) -0.0478(2) 0.4557(3)
C11 C 0.8212(3) 0.03960(19) 0.5145(3)
C12 C 0.8174(3) 0.0710(2) 0.4066(3)
H9 H 0.8720 0.1124 0.3930
C13 C 0.5747(3) -0.11276(19) 0.4858(3)
C14 C 0.4982(4) -0.1545(2) 0.4068(3)
H10 H 0.4989 -0.1421 0.3312
C15 C 0.4206(4) -0.2142(2) 0.4364(3)
H11 H 0.3714 -0.2420 0.3800
C16 C 0.4844(4) -0.1925(2) 0.6195(3)
H12 H 0.4795 -0.2046 0.6947
C17 C 0.5652(4) -0.1327(2) 0.5954(3)
H13 H 0.6135 -0.1058 0.6533
C18 C 0.9117(3) 0.06893(19) 0.6092(3)
C19 C 0.9131(4) 0.0381(2) 0.7161(3)
H14 H 0.8560 -0.0019 0.7297
C20 C 0.9981(4) 0.0660(2) 0.8021(3)
H15 H 0.9963 0.0443 0.8733
C21 C 1.0837(4) 0.1524(2) 0.6854(3)
H16 H 1.1432 0.1915 0.6737
C22 C 1.0006(4) 0.1279(2) 0.5961(3)
H17 H 1.0035 0.1510 0.5259
Cl1 Cl 1.21833(12) 0.09600(6) 1.07238(8)
Cl2 Cl 1.36712(9) 0.21990(6) 0.84651(8)
Zn1A Zn 0.29979(4) -0.32901(2) 0.57852(3)
N3A N 1.0870(3) 0.26615(16) 0.9572(2)
loop_
_geom_bond_atom_site_label_1
_geom_bond_atom_site_label_2
_geom_bond_site_symmetry_1
_geom_bond_site_symmetry_2
Zn1 N1 1_555 1_555
N1 C20 1_555 1_555
N2 C10 1_555 1_555
N3 C15 1_555 1_555
C1 H1 1_555 1_555
H2 C1 1_555 1_555
H3 C1 1_555 1_555
C2 C1 1_555 1_555
C3 C2 1_555 1_555
H4 C3 1_555 1_555
C4 C3 1_555 1_555
H5 C4 1_555 1_555
C5 C4 1_555 1_555
C6 C5 1_555 1_555
H6 C6 1_555 1_555
C7 C2 1_555 1_555
H7 C7 1_555 1_555
C8 C5 1_555 1_555
C9 C8 1_555 1_555
H8 C9 1_555 1_555
C10 C9 1_555 1_555
C11 N2 1_555 1_555
C12 C8 1_555 1_555
H9 C12 1_555 1_555
C13 C10 1_555 1_555
C14 C13 1_555 1_555
H10 C14 1_555 1_555
C15 C14 1_555 1_555
H11 C15 1_555 1_555
C16 N3 1_555 1_555
H12 C16 1_555 1_555
C17 C13 1_555 1_555
H13 C17 1_555 1_555
C18 C11 1_555 1_555
C19 C18 1_555 1_555
H14 C19 1_555 1_555
C20 C19 1_555 1_555
H15 C20 1_555 1_555
C21 N1 1_555 1_555
H16 C21 1_555 1_555
C22 C18 1_555 1_555
H17 C22 1_555 1_555
Cl1 Zn1 1_555 1_555
Cl2 Zn1 1_555 1_555
Zn1A N3 1_555 1_555
N3A Zn1 1_555 1_555
C6 C7 1_555 1_555
C11 C12 1_555 1_555
C16 C17 1_555 1_555
C21 C22 1_555 1_555

#END
