
#######################################################################
#
#                 Cambridge Crystallographic Data Centre
#                                CCDC 
#
#######################################################################
#
# If this CIF has been generated from an entry in the Cambridge 
# Structural Database, then it will include bibliographic, chemical, 
# crystal, experimental, refinement or atomic coordinate data resulting 
# from the CCDC's data processing and validation procedures.
#
#######################################################################

data_LOCZAG
_symmetry_cell_setting           orthorhombic
_symmetry_space_group_name_H-M   'F d d d'
_symmetry_Int_Tables_number      70
_space_group_name_Hall           '-F 2uv 2vw'
loop_
_symmetry_equiv_pos_site_id
_symmetry_equiv_pos_as_xyz
1 x,y,z
2 1/4-x,1/4-y,z
3 x,1/4-y,1/4-z
4 1/4-x,y,1/4-z
5 x,1/2+y,1/2+z
6 1/4-x,3/4-y,1/2+z
7 x,3/4-y,3/4-z
8 1/4-x,1/2+y,3/4-z
9 1/2+x,y,1/2+z
10 3/4-x,1/4-y,1/2+z
11 1/2+x,1/4-y,3/4-z
12 3/4-x,y,3/4-z
13 1/2+x,1/2+y,z
14 3/4-x,3/4-y,z
15 1/2+x,3/4-y,1/4-z
16 3/4-x,1/2+y,1/4-z
17 -x,-y,-z
18 3/4+x,3/4+y,-z
19 -x,3/4+y,3/4+z
20 3/4+x,-y,3/4+z
21 -x,1/2-y,1/2-z
22 3/4+x,1/4+y,1/2-z
23 -x,1/4+y,1/4+z
24 3/4+x,1/2-y,1/4+z
25 1/2-x,-y,1/2-z
26 1/4+x,3/4+y,1/2-z
27 1/2-x,3/4+y,1/4+z
28 1/4+x,-y,1/4+z
29 1/2-x,1/2-y,-z
30 1/4+x,1/4+y,-z
31 1/2-x,1/4+y,3/4+z
32 1/4+x,1/2-y,3/4+z
_cell_length_a                   15.7239(19)
_cell_length_b                   16.158(2)
_cell_length_c                   40.866(10)
_cell_angle_alpha                90
_cell_angle_beta                 90
_cell_angle_gamma                90
_cell_volume                     10382.7
loop_
_atom_site_label
_atom_site_type_symbol
_atom_site_fract_x
_atom_site_fract_y
_atom_site_fract_z
Co1 Co 0.3750 0.3750 0.11128(2)
S1 S 0.11158(9) 0.18630(9) 0.00533(3)
O1 O 0.4608(2) 0.2812(2) 0.11179(8)
O2 O 0.4150(3) 0.1933(3) 0.14940(10)
N1 N 0.2963(2) 0.3130(2) 0.07631(8)
O3 O 0.3039(3) 0.3113(3) 0.14884(11)
H1 H 0.2528 0.3164 0.1453
C1 C 0.6250 0.2137(4) 0.1250
H2 H 0.6250 0.2712 0.1250
C2 C 0.5471(3) 0.1682(2) 0.12531(10)
C3 C 0.2999(3) 0.2303(3) 0.07241(12)
H3 H 0.3406 0.2006 0.0840
C4 C 0.2381(3) 0.3568(3) 0.05840(12)
H4 H 0.2351 0.4140 0.0607
C5 C 0.1847(4) 0.2283(4) 0.03400(14)
C6 C 0.2432(3) 0.1862(3) 0.05101(12)
H5 H 0.2471 0.1290 0.0490
C7 C 0.1828(3) 0.3164(3) 0.03652(12)
H6 H 0.1452 0.3470 0.0238
C8 C 0.4694(3) 0.2168(3) 0.12882(12)
S1A S 0.13842(9) 0.06370(9) 0.00533(3)
N1A N -0.0463(2) -0.0630(2) 0.07631(8)
C3A C -0.0499(3) 0.0197(3) 0.07241(12)
H3A H -0.0906 0.0494 0.0840
C4A C 0.0119(3) -0.1068(3) 0.05840(12)
H4A H 0.0149 -0.1640 0.0607
C5A C 0.0653(4) 0.0217(4) 0.03400(14)
C6A C 0.0068(3) 0.0638(3) 0.05101(12)
H5A H 0.0029 0.1210 0.0490
C7A C 0.0672(3) -0.0664(3) 0.03652(12)
H6A H 0.1048 -0.0970 0.0238
O1B O 0.4608(2) -0.0312(2) 0.13821(8)
O2B O 0.4150(3) 0.0567(3) 0.10060(10)
C1A C 0.6250 0.0363(4) 0.1250
H2A H 0.6250 -0.0212 0.1250
C2B C 0.5471(3) 0.0818(2) 0.12469(10)
C8B C 0.4694(3) 0.0332(3) 0.12118(12)
O1C O 0.7892(2) 0.2812(2) 0.13821(8)
O2C O 0.8350(3) 0.1933(3) 0.10060(10)
C2C C 0.7029(3) 0.1682(2) 0.12469(10)
C8C C 0.7806(3) 0.2168(3) 0.12118(12)
O1A O 0.7892(2) -0.0312(2) 0.11179(8)
O2A O 0.8350(3) 0.0567(3) 0.14940(10)
C2A C 0.7029(3) 0.0818(2) 0.12531(10)
C8A C 0.7806(3) 0.0332(3) 0.12882(12)
Co1A Co -0.1250 -0.1250 0.11128(2)
O3A O -0.0539(3) -0.0613(3) 0.14884(11)
H1A H -0.0028 -0.0664 0.1453
S1M S 0.63842(9) 0.56370(9) 0.00533(3)
N1M N 0.4537(2) 0.4370(2) 0.07631(8)
C3M C 0.4501(3) 0.5197(3) 0.07241(12)
H3M H 0.4094 0.5494 0.0840
C4M C 0.5119(3) 0.3932(3) 0.05840(12)
H4M H 0.5149 0.3360 0.0607
C5M C 0.5653(4) 0.5217(4) 0.03400(14)
C6M C 0.5068(3) 0.5638(3) 0.05101(12)
H5M H 0.5029 0.6210 0.0490
C7M C 0.5672(3) 0.4336(3) 0.03652(12)
H6M H 0.6048 0.4030 0.0238
S1L S 0.61158(9) 0.68630(9) 0.00533(3)
N1L N 0.7963(2) 0.8130(2) 0.07631(8)
C3L C 0.7999(3) 0.7303(3) 0.07241(12)
H3L H 0.8406 0.7006 0.0840
C4L C 0.7381(3) 0.8568(3) 0.05840(12)
H4L H 0.7351 0.9140 0.0607
C5L C 0.6847(4) 0.7283(4) 0.03400(14)
C6L C 0.7432(3) 0.6862(3) 0.05101(12)
H5L H 0.7471 0.6290 0.0490
C7L C 0.6828(3) 0.8164(3) 0.03652(12)
H6L H 0.6452 0.8470 0.0238
O3M O 0.4461(3) 0.4387(3) 0.14884(11)
H1M H 0.4972 0.4336 0.1453
O3L O -0.1961(3) -0.1887(3) 0.14884(11)
H1L H -0.2472 -0.1836 0.1453
Co1A_2 Co 0.8750 -0.1250 0.11128(2)
Co1A_3 Co 0.8750 0.8750 0.11128(2)
Co1B Co 0.3750 -0.1250 0.13872(2)
Co1C Co 0.8750 0.3750 0.13872(2)
O1A_2 O -0.2108(2) -0.0312(2) 0.11179(8)
O1L O -0.0392(2) -0.2188(2) 0.11179(8)
O1M O 0.2892(2) 0.4688(2) 0.11179(8)
N1L_2 N -0.2037(2) -0.1870(2) 0.07631(8)
loop_
_geom_bond_atom_site_label_1
_geom_bond_atom_site_label_2
_geom_bond_site_symmetry_1
_geom_bond_site_symmetry_2
Co1 O1 1_555 1_555
S1 C5 1_555 1_555
O1 C8 1_555 1_555
O2 C8 1_555 1_555
N1 Co1 1_555 1_555
O3 Co1 1_555 1_555
H1 O3 1_555 1_555
C1 H2 1_555 1_555
C2 C1 1_555 1_555
C3 N1 1_555 1_555
H3 C3 1_555 1_555
C4 N1 1_555 1_555
H4 C4 1_555 1_555
C5 C6 1_555 1_555
C6 C3 1_555 1_555
H5 C6 1_555 1_555
C7 C4 1_555 1_555
H6 C7 1_555 1_555
C8 C2 1_555 1_555
S1A S1 1_555 1_555
N1A C3A 1_555 1_555
C3A H3A 1_555 1_555
C4A N1A 1_555 1_555
H4A C4A 1_555 1_555
C5A S1A 1_555 1_555
C6A C3A 1_555 1_555
H5A C6A 1_555 1_555
C7A C4A 1_555 1_555
H6A C7A 1_555 1_555
O1B C8B 1_555 1_555
O2B C8B 1_555 1_555
C1A H2A 1_555 1_555
C2B C2 1_555 1_555
C8B C2B 1_555 1_555
O1C C8C 1_555 1_555
O2C C8C 1_555 1_555
C2C C1 1_555 1_555
C8C C2C 1_555 1_555
O1A C8A 1_555 1_555
O2A C8A 1_555 1_555
C2A C1A 1_555 1_555
C8A C2A 1_555 1_555
Co1A N1A 1_555 1_555
O3A Co1A 1_555 1_555
H1A O3A 1_555 1_555
S1M C5M 1_555 1_555
N1M Co1 1_555 1_555
C3M N1M 1_555 1_555
H3M C3M 1_555 1_555
C4M N1M 1_555 1_555
H4M C4M 1_555 1_555
C5M C6M 1_555 1_555
C6M C3M 1_555 1_555
H5M C6M 1_555 1_555
C7M C4M 1_555 1_555
H6M C7M 1_555 1_555
S1L S1M 1_555 1_555
N1L C3L 1_555 1_555
C3L H3L 1_555 1_555
C4L N1L 1_555 1_555
H4L C4L 1_555 1_555
C5L S1L 1_555 1_555
C6L C3L 1_555 1_555
H5L C6L 1_555 1_555
C7L C4L 1_555 1_555
H6L C7L 1_555 1_555
O3M Co1 1_555 1_555
H1M O3M 1_555 1_555
O3L Co1A 1_555 1_555
H1L O3L 1_555 1_555
Co1A_2 O1A 1_555 1_555
Co1A_3 N1L 1_555 1_555
Co1B O1B 1_555 1_555
Co1C O1C 1_555 1_555
O1A_2 Co1A 1_555 1_555
O1L Co1A 1_555 1_555
O1M Co1 1_555 1_555
N1L_2 Co1A 1_555 1_555
C5 C7 1_555 1_555
C5A C6A 1_555 1_555
C5A C7A 1_555 1_555
C1A C2B 1_555 1_555
C2C C2A 1_555 1_555
C5M C7M 1_555 1_555
C5L C6L 1_555 1_555
C5L C7L 1_555 1_555

#END
