
#######################################################################
#
#                 Cambridge Crystallographic Data Centre
#                                CCDC 
#
#######################################################################
#
# If this CIF has been generated from an entry in the Cambridge 
# Structural Database, then it will include bibliographic, chemical, 
# crystal, experimental, refinement or atomic coordinate data resulting 
# from the CCDC's data processing and validation procedures.
#
#######################################################################

data_LODCOY
_symmetry_cell_setting           triclinic
_symmetry_space_group_name_H-M   'P -1'
_symmetry_Int_Tables_number      2
_space_group_name_Hall           '-P 1'
loop_
_symmetry_equiv_pos_site_id
_symmetry_equiv_pos_as_xyz
1 x,y,z
2 -x,-y,-z
_cell_length_a                   9.6092(9)
_cell_length_b                   10.6950(11)
_cell_length_c                   13.4360(14)
_cell_angle_alpha                70.763(2)
_cell_angle_beta                 87.595(2)
_cell_angle_gamma                72.381(2)
_cell_volume                     1240
loop_
_atom_site_label
_atom_site_type_symbol
_atom_site_fract_x
_atom_site_fract_y
_atom_site_fract_z
Co1 Co 0.30476(5) 0.34025(4) 0.55651(3)
O1 O 0.3972(2) 0.4037(2) 0.65673(17)
O2 O 0.2251(2) 0.6000(2) 0.65043(18)
O3 O 0.7221(2) 0.5874(2) 0.95595(18)
O4 O 0.8494(2) 0.8740(2) 0.96644(17)
O5 O 1.0860(2) 1.3232(2) 0.62626(17)
O6 O 1.2909(3) 1.1555(2) 0.68027(18)
O7 O 0.1985(2) 0.54886(19) 0.47166(16)
H1 H 0.1159 0.5566 0.4477
H2 H 0.1884 0.5965 0.5118
N1 N 0.5137(3) 0.2329(2) 0.52179(19)
N2 N 0.2605(3) 0.2807(2) 0.42808(19)
C1 C 0.3463(3) 0.5127(3) 0.6821(2)
C2 C 0.4434(3) 0.5347(3) 0.7552(2)
C3 C 0.3879(3) 0.6272(3) 0.8093(2)
H3 H 0.2890 0.6775 0.7992
C4 C 0.4762(4) 0.6470(3) 0.8783(2)
H4 H 0.4362 0.7074 0.9157
C5 C 0.6246(4) 0.5756(3) 0.8909(2)
C6 C 0.6807(4) 0.4848(3) 0.8357(3)
H5 H 0.7802 0.4367 0.8436
C7 C 0.5913(4) 0.4649(3) 0.7695(3)
H6 H 0.6312 0.4028 0.7334
C8 C 0.6711(4) 0.6833(3) 1.0121(3)
H7 H 0.5934 0.6612 1.0562
H8 H 0.6330 0.7773 0.9629
C9 C 0.7992(4) 0.6717(4) 1.0795(3)
H9 H 0.7632 0.7218 1.1285
H10 H 0.8439 0.5747 1.1207
C10 C 0.9136(4) 0.7269(3) 1.0181(3)
H11 H 0.9963 0.7094 1.0651
H12 H 0.9477 0.6814 0.9662
C11 C 0.9320(4) 0.9471(3) 0.9024(2)
C12 C 0.8584(4) 1.0866(3) 0.8488(3)
H13 H 0.7608 1.1242 0.8600
C13 C 0.9303(3) 1.1688(3) 0.7791(2)
H14 H 0.8798 1.2613 0.7425
C14 C 1.0766(3) 1.1160(3) 0.7626(2)
C15 C 1.1547(4) 1.2031(3) 0.6865(2)
C16 C 1.1489(4) 0.9774(3) 0.8193(3)
H15 H 1.2477 0.9406 0.8108
C17 C 1.0770(4) 0.8930(3) 0.8883(3)
H16 H 1.1270 0.8002 0.9246
C18 C 0.6404(4) 0.2119(3) 0.5733(3)
H17 H 0.6378 0.2518 0.6255
C19 C 0.7719(4) 0.1348(3) 0.5524(3)
H18 H 0.8572 0.1235 0.5891
C20 C 0.7773(4) 0.0734(3) 0.4761(3)
H19 H 0.8661 0.0199 0.4608
C21 C 0.6494(4) 0.0927(3) 0.4229(2)
H20 H 0.6504 0.0520 0.3714
C22 C 0.5190(3) 0.1735(3) 0.4469(2)
C23 C 0.3762(3) 0.2011(3) 0.3941(2)
C24 C 0.3605(4) 0.1475(3) 0.3153(2)
H21 H 0.4416 0.0909 0.2940
C25 C 0.2235(4) 0.1795(4) 0.2695(3)
H22 H 0.2108 0.1452 0.2164
C26 C 0.1052(4) 0.2627(4) 0.3027(3)
H23 H 0.0115 0.2853 0.2726
C27 C 0.1280(4) 0.3117(3) 0.3811(3)
H24 H 0.0479 0.3691 0.4027
Co1_2 Co 1.30476(5) 1.34025(4) 0.55651(3)
O5_2 O 0.0860(2) 0.3232(2) 0.62626(17)
O6_2 O 0.2909(3) 0.1555(2) 0.68027(18)
O8 O 1.5163(13) 1.1101(12) 0.8276(11)
H25 H 1.4550 1.1348 0.7767
H26 H 1.5010 1.0426 0.8753
O9? O 1.4682(14) 1.0118(12) 0.8945(10)
H27? H 1.4032 1.0293 0.8476
H28? H 1.5155 1.0688 0.8715
loop_
_geom_bond_atom_site_label_1
_geom_bond_atom_site_label_2
_geom_bond_site_symmetry_1
_geom_bond_site_symmetry_2
Co1 O1 1_555 1_555
O1 C1 1_555 1_555
O2 C1 1_555 1_555
O3 C5 1_555 1_555
O4 C10 1_555 1_555
O5 C15 1_555 1_555
O6 C15 1_555 1_555
O7 Co1 1_555 1_555
H1 O7 1_555 1_555
H2 O7 1_555 1_555
N1 Co1 1_555 1_555
N2 Co1 1_555 1_555
C1 C2 1_555 1_555
C2 C3 1_555 1_555
C3 H3 1_555 1_555
C4 C3 1_555 1_555
H4 C4 1_555 1_555
C5 C4 1_555 1_555
C6 C5 1_555 1_555
H5 C6 1_555 1_555
C7 C2 1_555 1_555
H6 C7 1_555 1_555
C8 O3 1_555 1_555
H7 C8 1_555 1_555
H8 C8 1_555 1_555
C9 C8 1_555 1_555
H9 C9 1_555 1_555
H10 C9 1_555 1_555
C10 C9 1_555 1_555
H11 C10 1_555 1_555
H12 C10 1_555 1_555
C11 O4 1_555 1_555
C12 C11 1_555 1_555
H13 C12 1_555 1_555
C13 C12 1_555 1_555
H14 C13 1_555 1_555
C14 C13 1_555 1_555
C15 C14 1_555 1_555
C16 C14 1_555 1_555
H15 C16 1_555 1_555
C17 C11 1_555 1_555
H16 C17 1_555 1_555
C18 N1 1_555 1_555
H17 C18 1_555 1_555
C19 C18 1_555 1_555
H18 C19 1_555 1_555
C20 C19 1_555 1_555
H19 C20 1_555 1_555
C21 C20 1_555 1_555
H20 C21 1_555 1_555
C22 N1 1_555 1_555
C23 N2 1_555 1_555
C24 C23 1_555 1_555
H21 C24 1_555 1_555
C25 C24 1_555 1_555
H22 C25 1_555 1_555
C26 C25 1_555 1_555
H23 C26 1_555 1_555
C27 N2 1_555 1_555
H24 C27 1_555 1_555
O8 H25 1_555 1_555
H26 O8 1_555 1_555
Co1_2 O5 1_555 1_555
O5_2 Co1 1_555 1_555
O6_2 Co1 1_555 1_555
O6 Co1_2 1_555 1_555
C6 C7 1_555 1_555
C16 C17 1_555 1_555
C21 C22 1_555 1_555
C22 C23 1_555 1_555
C26 C27 1_555 1_555

#END
