
#######################################################################
#
#                 Cambridge Crystallographic Data Centre
#                                CCDC 
#
#######################################################################
#
# If this CIF has been generated from an entry in the Cambridge 
# Structural Database, then it will include bibliographic, chemical, 
# crystal, experimental, refinement or atomic coordinate data resulting 
# from the CCDC's data processing and validation procedures.
#
#######################################################################

data_LODCEO
_symmetry_cell_setting           triclinic
_symmetry_space_group_name_H-M   'P -1'
_symmetry_Int_Tables_number      2
_space_group_name_Hall           '-P 1'
loop_
_symmetry_equiv_pos_site_id
_symmetry_equiv_pos_as_xyz
1 x,y,z
2 -x,-y,-z
_cell_length_a                   14.079(5)
_cell_length_b                   14.669(5)
_cell_length_c                   19.559(6)
_cell_angle_alpha                108.878(5)
_cell_angle_beta                 92.031(7)
_cell_angle_gamma                116.314(5)
_cell_volume                     3349.03
loop_
_atom_site_label
_atom_site_type_symbol
_atom_site_fract_x
_atom_site_fract_y
_atom_site_fract_z
Co1 Co 0.20213(7) 0.21866(9) 0.26300(6)
Co2 Co 0.26513(7) 0.32179(8) 0.41667(5)
N1 N 0.2116(6) 0.2206(5) 0.1568(3)
N2 N 0.3608(5) 0.2469(5) -0.0696(4)
N3 N 0.3634(5) 0.2266(5) -0.1428(4)
N4 N 0.2235(9) 0.0776(8) -0.4167(5)
N5 N 0.2817(5) 0.3355(5) 0.5248(3)
N6 N 0.4245(5) 0.4742(5) 0.7990(4)
N7 N 0.4167(4) 0.4977(5) 0.8727(3)
N8 N 0.2396(7) 0.4670(7) 1.0924(4)
O1 O 0.1394(4) 0.0561(4) 0.2480(3)
O2 O 0.1928(4) 0.1505(4) 0.3695(3)
O3 O 0.0719(4) -0.3068(5) 0.3801(3)
O4 O -0.1402(4) -0.5765(4) 0.3218(3)
O5 O -0.6443(3) -0.7561(4) 0.2769(3)
O6 O -0.5950(3) -0.6712(4) 0.4011(3)
O7 O 0.2742(4) 0.3950(4) 0.3038(3)
O8 O 0.3155(4) 0.4767(4) 0.4255(3)
O9 O 0.3904(4) 0.8689(5) 0.3250(3)
O10 O 0.6138(4) 1.1227(4) 0.3769(3)
O11 O 1.0633(3) 1.2170(4) 0.2793(3)
O12 O 1.1117(4) 1.2938(4) 0.4037(3)
S1 S 0.16657(16) 0.11868(18) -0.13873(12)
S2 S 0.22410(15) 0.38951(18) 0.80178(12)
C1 C 0.1551(6) 0.0607(8) 0.3126(6)
C2 C 0.1270(5) -0.0382(7) 0.3282(5)
C3 C 0.1383(5) -0.0331(7) 0.4014(5)
H1 H 0.1611 0.0336 0.4404
C4 C 0.1165(6) -0.1241(8) 0.4156(4)
H2 H 0.1206 -0.1205 0.4640
C5 C 0.0875(5) -0.2242(7) 0.3567(6)
C6 C 0.0742(5) -0.2326(7) 0.2855(5)
H3 H 0.0521 -0.2994 0.2467
C7 C 0.0941(6) -0.1394(8) 0.2720(5)
H4 H 0.0851 -0.1449 0.2232
C8 C 0.0653(6) -0.4032(7) 0.3272(4)
H5 H 0.1313 -0.3854 0.3082
H6 H 0.0047 -0.4360 0.2862
C9 C 0.0500(5) -0.4828(6) 0.3650(4)
H7 H 0.1081 -0.4475 0.4080
H8 H 0.0527 -0.5463 0.3314
C10 C -0.0591(6) -0.5195(6) 0.3886(4)
H9 H -0.0678 -0.5678 0.4148
H10 H -0.0642 -0.4565 0.4208
C11 C -0.2438(7) -0.6062(7) 0.3312(6)
C12 C -0.3186(7) -0.6586(6) 0.2640(5)
H11 H -0.2965 -0.6712 0.2192
C13 C -0.4276(6) -0.6915(5) 0.2664(4)
H12 H -0.4782 -0.7253 0.2223
C14 C -0.4627(7) -0.6752(6) 0.3333(5)
C15 C -0.3838(7) -0.6246(6) 0.3975(4)
H13 H -0.4046 -0.6123 0.4428
C16 C -0.2767(6) -0.5922(6) 0.3968(5)
H14 H -0.2265 -0.5607 0.4408
C17 C -0.5759(6) -0.7047(6) 0.3371(5)
C18 C 0.3087(6) 0.4803(7) 0.3622(5)
C19 C 0.3353(6) 0.5860(7) 0.3550(5)
C20 C 0.3403(5) 0.5920(7) 0.2862(5)
H15 H 0.3282 0.5312 0.2450
C21 C 0.3637(6) 0.6904(9) 0.2802(5)
H16 H 0.3726 0.6976 0.2350
C22 C 0.3741(6) 0.7778(8) 0.3398(6)
C23 C 0.3676(5) 0.7728(7) 0.4088(5)
H17 H 0.3747 0.8320 0.4493
C24 C 0.3499(5) 0.6744(8) 0.4148(5)
H18 H 0.3481 0.6691 0.4609
C25 C 0.4040(6) 0.9642(7) 0.3815(5)
H19 H 0.4649 0.9910 0.4209
H20 H 0.3394 0.9492 0.4019
C26 C 0.4246(5) 1.0479(6) 0.3474(5)
H21 H 0.4319 1.1146 0.3846
H22 H 0.3630 1.0198 0.3082
C27 C 0.5270(6) 1.0746(6) 0.3160(4)
H23 H 0.5225 1.0082 0.2803
H24 H 0.5368 1.1254 0.2918
C28 C 0.7146(7) 1.1510(7) 0.3622(6)
C29 C 0.7963(9) 1.1978(7) 0.4234(5)
H25 H 0.7792 1.2074 0.4699
C30 C 0.9018(7) 1.2306(6) 0.4173(6)
H26 H 0.9559 1.2645 0.4597
C31 C 0.9287(7) 1.2138(6) 0.3492(5)
C32 C 0.8471(8) 1.1652(6) 0.2874(5)
H27 H 0.8640 1.1545 0.2409
C33 C 0.7414(7) 1.1325(6) 0.2938(5)
H28 H 0.6872 1.0974 0.2514
C34 C 1.0418(6) 1.2450(6) 0.3444(5)
C35 C 0.3061(6) 0.2826(6) 0.1450(4)
H29 H 0.3626 0.3327 0.1856
C36 C 0.3258(5) 0.2774(6) 0.0754(4)
H30 H 0.3941 0.3221 0.0694
C37 C 0.2415(7) 0.2042(6) 0.0151(4)
C38 C 0.1429(6) 0.1456(6) 0.0275(4)
H31 H 0.0835 0.1002 -0.0119
C39 C 0.1301(5) 0.1524(6) 0.0970(5)
H32 H 0.0622 0.1082 0.1037
C40 C 0.2626(6) 0.1955(6) -0.0579(4)
C41 C 0.2681(6) 0.1600(6) -0.1850(5)
C42 C 0.2529(9) 0.1300(7) -0.2658(5)
C43 C 0.3388(8) 0.1596(7) -0.2970(6)
H33 H 0.4090 0.2001 -0.2687
C44 C 0.3194(8) 0.1280(8) -0.3727(7)
H34 H 0.3792 0.1436 -0.3946
C45 C 0.1416(8) 0.0487(8) -0.3845(7)
H35 H 0.0726 0.0069 -0.4146
C46 C 0.1489(8) 0.0756(8) -0.3078(6)
H36 H 0.0880 0.0579 -0.2869
C47 C 0.3815(6) 0.3884(6) 0.5685(5)
H37 H 0.4416 0.4079 0.5469
C48 C 0.3973(5) 0.4139(5) 0.6420(4)
H38 H 0.4674 0.4484 0.6696
C49 C 0.3121(7) 0.3900(6) 0.6767(4)
C50 C 0.2094(6) 0.3321(6) 0.6333(5)
H39 H 0.1488 0.3098 0.6541
C51 C 0.1987(5) 0.3081(6) 0.5596(5)
H40 H 0.1288 0.2699 0.5310
C52 C 0.3276(6) 0.4210(6) 0.7568(5)
C53 C 0.3184(6) 0.4533(6) 0.8822(4)
C54 C 0.2892(9) 0.4623(7) 0.9560(5)
C55 C 0.3696(6) 0.5204(7) 1.0186(6)
H41 H 0.4420 0.5573 1.0162
C56 C 0.3404(8) 0.5225(7) 1.0847(5)
H42 H 0.3948 0.5657 1.1273
C57 C 0.1626(8) 0.4096(8) 1.0332(6)
H43 H 0.0916 0.3708 1.0376
C58 C 0.1837(7) 0.4051(7) 0.9641(6)
H44 H 0.1271 0.3635 0.9227
Co1_2 Co -0.79787(7) -0.78134(9) 0.26300(6)
Co1_3 Co 1.20213(7) 1.21866(9) 0.26300(6)
Co2_2 Co -0.73487(7) -0.67821(8) 0.41667(5)
Co2_3 Co 1.26513(7) 1.32179(8) 0.41667(5)
O5_2 O 0.3557(3) 0.2439(4) 0.2769(3)
O6_2 O 0.4050(3) 0.3288(4) 0.4011(3)
O11_2 O 0.0633(3) 0.2170(4) 0.2793(3)
O12_2 O 0.1117(4) 0.2938(4) 0.4037(3)
N9 N 0.8638(11) 0.3394(12) 0.9074(9)
C59 C 0.8588(15) 0.3589(12) 0.9765(9)
H45 H 0.9205 0.4107 1.0132
C60 C 0.7613(14) 0.3024(12) 0.9959(8)
H46 H 0.7577 0.3180 1.0454
C61 C 0.6736(9) 0.2263(11) 0.9435(10)
C62 C 0.6785(10) 0.2061(10) 0.8700(7)
H47 H 0.6182 0.1556 0.8319
C63 C 0.7795(15) 0.2662(15) 0.8566(8)
H48 H 0.7863 0.2525 0.8077
C64 C 0.5751(8) 0.1706(8) 0.9678(5)
S3 S 0.4651(3) 0.0703(3) 0.9292(3)
C65 C 0.4046(8) 0.0592(8) 0.9945(5)
N10 N 0.4810(8) 0.1526(9) 1.0697(6)
N11 N 0.5874(8) 0.2186(9) 1.0519(6)
C66 C 0.3020(8) -0.0081(10) 1.0110(10)
C67 C 0.2829(11) 0.0106(8) 1.0797(7)
H49 H 0.3369 0.0655 1.1206
C68 C 0.1803(15) -0.0548(14) 1.0872(8)
H50 H 0.1673 -0.0411 1.1348
N12 N 0.0983(12) -0.1356(12) 1.0321(10)
C69 C 0.1244(13) -0.1448(13) 0.9671(9)
H51 H 0.0696 -0.1980 0.9261
C70 C 0.2226(14) -0.0853(12) 0.9529(7)
H52 H 0.2336 -0.0979 0.9048
O13 O 0.9741(7) 0.5080(7) 0.1419(5)
O14 O 0.8950(9) 0.3456(11) 0.1755(6)
O15 O 0.0921(4) 0.3820(4) 0.1874(2)
S4? S 0.5116(6) 0.1510(6) 1.0262(4)
N13? N 0.3829(13) -0.0027(13) 0.9044(8)
N14? N 0.4915(14) 0.0762(14) 0.8918(10)
loop_
_geom_bond_atom_site_label_1
_geom_bond_atom_site_label_2
_geom_bond_site_symmetry_1
_geom_bond_site_symmetry_2
Co1 N1 1_555 1_555
Co2 N5 1_555 1_555
N1 C35 1_555 1_555
N2 N3 1_555 1_555
N3 C41 1_555 1_555
N4 C44 1_555 1_555
N5 C47 1_555 1_555
N6 N7 1_555 1_555
N7 C53 1_555 1_555
N8 C56 1_555 1_555
O1 Co1 1_555 1_555
O2 Co2 1_555 1_555
O3 C5 1_555 1_555
O4 C10 1_555 1_555
O5 C17 1_555 1_555
O6 C17 1_555 1_555
O7 Co1 1_555 1_555
O8 Co2 1_555 1_555
O9 C22 1_555 1_555
O10 C27 1_555 1_555
O11 C34 1_555 1_555
O12 C34 1_555 1_555
S1 C40 1_555 1_555
S2 C52 1_555 1_555
C1 O1 1_555 1_555
C2 C1 1_555 1_555
C3 C2 1_555 1_555
H1 C3 1_555 1_555
C4 C3 1_555 1_555
H2 C4 1_555 1_555
C5 C4 1_555 1_555
C6 C5 1_555 1_555
H3 C6 1_555 1_555
C7 C2 1_555 1_555
H4 C7 1_555 1_555
C8 O3 1_555 1_555
H5 C8 1_555 1_555
H6 C8 1_555 1_555
C9 C8 1_555 1_555
H7 C9 1_555 1_555
H8 C9 1_555 1_555
C10 C9 1_555 1_555
H9 C10 1_555 1_555
H10 C10 1_555 1_555
C11 O4 1_555 1_555
C12 C11 1_555 1_555
H11 C12 1_555 1_555
C13 C12 1_555 1_555
H12 C13 1_555 1_555
C14 C13 1_555 1_555
C15 C14 1_555 1_555
H13 C15 1_555 1_555
C16 C11 1_555 1_555
H14 C16 1_555 1_555
C17 C14 1_555 1_555
C18 O7 1_555 1_555
C19 C18 1_555 1_555
C20 C19 1_555 1_555
H15 C20 1_555 1_555
C21 C20 1_555 1_555
H16 C21 1_555 1_555
C22 C21 1_555 1_555
C23 C22 1_555 1_555
H17 C23 1_555 1_555
C24 C19 1_555 1_555
H18 C24 1_555 1_555
C25 O9 1_555 1_555
H19 C25 1_555 1_555
H20 C25 1_555 1_555
C26 C25 1_555 1_555
H21 C26 1_555 1_555
H22 C26 1_555 1_555
C27 C26 1_555 1_555
H23 C27 1_555 1_555
H24 C27 1_555 1_555
C28 O10 1_555 1_555
C29 C28 1_555 1_555
H25 C29 1_555 1_555
C30 C29 1_555 1_555
H26 C30 1_555 1_555
C31 C30 1_555 1_555
C32 C31 1_555 1_555
H27 C32 1_555 1_555
C33 C28 1_555 1_555
H28 C33 1_555 1_555
C34 C31 1_555 1_555
C35 H29 1_555 1_555
C36 C35 1_555 1_555
H30 C36 1_555 1_555
C37 C36 1_555 1_555
C38 C37 1_555 1_555
H31 C38 1_555 1_555
C39 N1 1_555 1_555
H32 C39 1_555 1_555
C40 N2 1_555 1_555
C41 S1 1_555 1_555
C42 C41 1_555 1_555
C43 C42 1_555 1_555
H33 C43 1_555 1_555
C44 C43 1_555 1_555
H34 C44 1_555 1_555
C45 N4 1_555 1_555
H35 C45 1_555 1_555
C46 C42 1_555 1_555
H36 C46 1_555 1_555
C47 H37 1_555 1_555
C48 C47 1_555 1_555
H38 C48 1_555 1_555
C49 C48 1_555 1_555
C50 C49 1_555 1_555
H39 C50 1_555 1_555
C51 N5 1_555 1_555
H40 C51 1_555 1_555
C52 N6 1_555 1_555
C53 S2 1_555 1_555
C54 C53 1_555 1_555
C55 C54 1_555 1_555
H41 C55 1_555 1_555
C56 C55 1_555 1_555
H42 C56 1_555 1_555
C57 N8 1_555 1_555
H43 C57 1_555 1_555
C58 C54 1_555 1_555
H44 C58 1_555 1_555
N9 C59 1_555 1_555
C59 H45 1_555 1_555
C60 C59 1_555 1_555
H46 C60 1_555 1_555
C61 C60 1_555 1_555
C62 C61 1_555 1_555
H47 C62 1_555 1_555
C63 N9 1_555 1_555
H48 C63 1_555 1_555
C64 C61 1_555 1_555
S3 C64 1_555 1_555
C65 S3 1_555 1_555
N10 C65 1_555 1_555
N11 C64 1_555 1_555
C66 C65 1_555 1_555
C67 C66 1_555 1_555
H49 C67 1_555 1_555
C68 C67 1_555 1_555
H50 C68 1_555 1_555
N12 C68 1_555 1_555
C69 N12 1_555 1_555
H51 C69 1_555 1_555
C70 C66 1_555 1_555
H52 C70 1_555 1_555
Co1_2 O5 1_555 1_555
Co1_3 O11 1_555 1_555
Co2_2 O6 1_555 1_555
Co2_3 O12 1_555 1_555
O5_2 Co1 1_555 1_555
O6_2 Co2 1_555 1_555
O11_2 Co1 1_555 1_555
O12_2 Co2 1_555 1_555
O2 C1 1_555 1_555
O8 C18 1_555 1_555
C6 C7 1_555 1_555
C15 C16 1_555 1_555
C23 C24 1_555 1_555
C32 C33 1_555 1_555
C37 C40 1_555 1_555
C38 C39 1_555 1_555
C45 C46 1_555 1_555
C49 C52 1_555 1_555
C50 C51 1_555 1_555
C57 C58 1_555 1_555
C62 C63 1_555 1_555
N10 N11 1_555 1_555
C69 C70 1_555 1_555

#END
