
#######################################################################
#
#                 Cambridge Crystallographic Data Centre
#                                CCDC 
#
#######################################################################
#
# If this CIF has been generated from an entry in the Cambridge 
# Structural Database, then it will include bibliographic, chemical, 
# crystal, experimental, refinement or atomic coordinate data resulting 
# from the CCDC's data processing and validation procedures.
#
#######################################################################

data_LODJOF
_symmetry_cell_setting           monoclinic
_symmetry_space_group_name_H-M   'P 21/c'
_symmetry_Int_Tables_number      14
_space_group_name_Hall           '-P 2ybc'
loop_
_symmetry_equiv_pos_site_id
_symmetry_equiv_pos_as_xyz
1 x,y,z
2 -x,1/2+y,1/2-z
3 -x,-y,-z
4 x,1/2-y,1/2+z
_cell_length_a                   16.3579(15)
_cell_length_b                   10.7877(10)
_cell_length_c                   21.928(2)
_cell_angle_alpha                90
_cell_angle_beta                 107.1320(10)
_cell_angle_gamma                90
_cell_volume                     3697.81
loop_
_atom_site_label
_atom_site_type_symbol
_atom_site_fract_x
_atom_site_fract_y
_atom_site_fract_z
Zn1 Zn 0.74092(3) 0.13723(4) 0.752100(19)
Cu1 Cu 0.81951(3) -0.11601(4) 0.81144(2)
Cu2 Cu 0.63054(3) -0.04519(4) 0.65574(2)
O1 O 0.64179(15) 0.0012(2) 0.74351(11)
O2 O 0.80187(15) -0.0382(2) 0.72881(11)
O3 O 0.80240(15) 0.0525(2) 0.83696(11)
O4 O 0.66662(15) 0.1272(2) 0.65636(11)
N1 N 0.8198(2) -0.2809(3) 0.77264(16)
N2 N 0.6794(2) 0.2799(3) 0.78369(15)
N3 N 0.8370(2) 0.2486(3) 0.74281(16)
N4 N 0.8166(2) -0.1770(3) 0.89604(16)
N5 N 0.6074(2) -0.2194(3) 0.67377(17)
C1 C 0.8647(2) 0.0206(4) 0.94811(17)
C2 C 0.6673(2) 0.1457(4) 0.54845(19)
C3 C 0.8584(2) 0.2250(3) 0.90333(18)
H1 H 0.8432 0.2785 0.8686
C4 C 0.6066(2) -0.0531(3) 0.78350(17)
C5 C 0.8423(2) -0.0741(3) 0.68743(17)
C6 C 0.8412(2) 0.0983(3) 0.89437(17)
C7 C 0.6044(2) 0.0073(4) 0.83944(18)
H2 H 0.6293 0.0852 0.8489
C8 C 0.8596(2) 0.0102(4) 0.64436(18)
H3 H 0.8434 0.0927 0.6452
C9 C 0.8667(2) -0.1985(4) 0.68446(18)
C10 C 0.6733(2) 0.1977(4) 0.60812(19)
C11 C 0.8776(3) 0.3208(4) 0.7269(2)
N6 N 0.6413(2) -0.0726(3) 0.56943(16)
C12 C 0.8979(3) 0.2710(4) 0.96331(19)
H4 H 0.9076 0.3558 0.9683
C13 C 0.9231(3) 0.1959(4) 1.0158(2)
H5 H 0.9516 0.2283 1.0557
C14 C 0.5315(3) -0.2240(4) 0.8144(2)
H6 H 0.5067 -0.3022 0.8059
C15 C 0.5709(2) -0.1724(4) 0.77188(19)
C16 C 0.5781(3) -0.2491(4) 0.7196(2)
H7 H 0.5591 -0.3303 0.7194
C17 C 0.5661(3) -0.0471(4) 0.8807(2)
H8 H 0.5656 -0.0054 0.9177
C18 C 0.8433(3) -0.1082(4) 0.9453(2)
H9 H 0.8497 -0.1468 0.9843
C19 C 0.8475(3) -0.2934(4) 0.7241(2)
H10 H 0.8564 -0.3745 0.7131
C20 C 0.7913(3) -0.3045(4) 0.9051(2)
H11 H 0.7296 -0.3119 0.8883
H12 H 0.8073 -0.3229 0.9504
C21 C 0.6881(3) 0.3245(4) 0.6168(2)
H13 H 0.6900 0.3609 0.6556
C22 C 0.6539(3) 0.0152(5) 0.5342(2)
H14 H 0.6546 -0.0082 0.4935
C23 C 0.6997(3) 0.3962(4) 0.5682(2)
H15 H 0.7102 0.4805 0.5749
C24 C 0.8330(3) -0.3974(4) 0.8722(2)
H16 H 0.8939 -0.3809 0.8841
H17 H 0.8252 -0.4798 0.8873
C25 C 0.6796(3) 0.2221(5) 0.5001(2)
H18 H 0.6763 0.1876 0.4606
C26 C 0.8997(3) -0.0271(4) 0.6012(2)
H19 H 0.9106 0.0306 0.5730
C27 C 0.9055(3) 0.0715(4) 1.00797(19)
H20 H 0.9211 0.0197 1.0434
C28 C 0.7983(3) -0.3953(3) 0.8011(2)
H21 H 0.8209 -0.4657 0.7838
H22 H 0.7366 -0.4039 0.7891
C29 C 0.9247(3) -0.1485(5) 0.5983(2)
H23 H 0.9524 -0.1724 0.5688
C30 C 0.9080(3) -0.2330(4) 0.6394(2)
H24 H 0.9243 -0.3152 0.6375
C31 C 0.5283(3) -0.1627(5) 0.8682(2)
H25 H 0.5014 -0.1980 0.8958
C32 C 0.5804(3) -0.2851(4) 0.5632(2)
H26 H 0.5248 -0.2466 0.5564
H27 H 0.5722 -0.3593 0.5371
C33 C 0.6137(3) -0.3215(4) 0.6309(2)
H28 H 0.5815 -0.3921 0.6388
H29 H 0.6730 -0.3464 0.6400
C34 C 0.6961(3) 0.3455(5) 0.5097(2)
H30 H 0.7048 0.3947 0.4773
C35 C 0.6359(4) -0.1989(5) 0.5412(2)
H31 H 0.6145 -0.1919 0.4951
H32 H 0.6930 -0.2337 0.5516
C36 C 0.9798(3) 0.4016(3) 0.6856(2)
C37 C 0.6534(3) 0.3619(4) 0.8049(2)
N7 N 0.6302(3) 0.4623(3) 0.8268(2)
N8 N 0.9172(3) 0.4136(3) 0.7108(2)
C38 C 0.5717(3) 0.4692(3) 0.8554(2)
N9 N 1.0341(2) 0.4038(3) 0.66374(16)
N10 N 0.5219(2) 0.4869(3) 0.88108(16)
Cu1A Cu 1.18049(3) 0.38399(4) 0.68856(2)
Cu2A Cu 0.36946(3) 0.45481(4) 0.84426(2)
N9A N 0.9659(2) -0.0962(3) 0.83626(16)
N10A N 0.4781(2) -0.0131(3) 0.61892(16)
loop_
_geom_bond_atom_site_label_1
_geom_bond_atom_site_label_2
_geom_bond_site_symmetry_1
_geom_bond_site_symmetry_2
Zn1 O1 1_555 1_555
Cu1 O2 1_555 1_555
Cu2 O1 1_555 1_555
O1 C4 1_555 1_555
O2 Zn1 1_555 1_555
O3 Zn1 1_555 1_555
O4 Zn1 1_555 1_555
N1 Cu1 1_555 1_555
N2 Zn1 1_555 1_555
N3 Zn1 1_555 1_555
N4 Cu1 1_555 1_555
N5 Cu2 1_555 1_555
C1 C6 1_555 1_555
C2 C10 1_555 1_555
C3 H1 1_555 1_555
C4 C7 1_555 1_555
C5 O2 1_555 1_555
C6 O3 1_555 1_555
C7 H2 1_555 1_555
C8 C5 1_555 1_555
H3 C8 1_555 1_555
C9 C5 1_555 1_555
C10 O4 1_555 1_555
C11 N3 1_555 1_555
N6 Cu2 1_555 1_555
C12 C3 1_555 1_555
H4 C12 1_555 1_555
C13 C12 1_555 1_555
H5 C13 1_555 1_555
C14 H6 1_555 1_555
C15 C4 1_555 1_555
C16 N5 1_555 1_555
H7 C16 1_555 1_555
C17 C7 1_555 1_555
H8 C17 1_555 1_555
C18 N4 1_555 1_555
H9 C18 1_555 1_555
C19 N1 1_555 1_555
H10 C19 1_555 1_555
C20 N4 1_555 1_555
H11 C20 1_555 1_555
H12 C20 1_555 1_555
C21 C10 1_555 1_555
H13 C21 1_555 1_555
C22 C2 1_555 1_555
H14 C22 1_555 1_555
C23 C21 1_555 1_555
H15 C23 1_555 1_555
C24 C20 1_555 1_555
H16 C24 1_555 1_555
H17 C24 1_555 1_555
C25 C2 1_555 1_555
H18 C25 1_555 1_555
C26 C8 1_555 1_555
H19 C26 1_555 1_555
C27 C1 1_555 1_555
H20 C27 1_555 1_555
C28 N1 1_555 1_555
H21 C28 1_555 1_555
H22 C28 1_555 1_555
C29 C26 1_555 1_555
H23 C29 1_555 1_555
C30 C9 1_555 1_555
H24 C30 1_555 1_555
C31 C14 1_555 1_555
H25 C31 1_555 1_555
C32 H26 1_555 1_555
H27 C32 1_555 1_555
C33 N5 1_555 1_555
H28 C33 1_555 1_555
H29 C33 1_555 1_555
C34 C23 1_555 1_555
H30 C34 1_555 1_555
C35 N6 1_555 1_555
H31 C35 1_555 1_555
H32 C35 1_555 1_555
C36 N8 1_555 1_555
C37 N2 1_555 1_555
N7 C37 1_555 1_555
N8 C11 1_555 1_555
C38 N7 1_555 1_555
N9 C36 1_555 1_555
N10 C38 1_555 1_555
Cu1A N9 1_555 1_555
Cu2A N10 1_555 1_555
N9A Cu1 1_555 1_555
N10A Cu2 1_555 1_555
Cu1 O3 1_555 1_555
Cu2 O2 1_555 1_555
Cu2 O4 1_555 1_555
C1 C18 1_555 1_555
C3 C6 1_555 1_555
C9 C19 1_555 1_555
N6 C22 1_555 1_555
C13 C27 1_555 1_555
C14 C15 1_555 1_555
C15 C16 1_555 1_555
C17 C31 1_555 1_555
C24 C28 1_555 1_555
C25 C34 1_555 1_555
C29 C30 1_555 1_555
C32 C33 1_555 1_555
C32 C35 1_555 1_555

#END
