
#######################################################################
#
#                 Cambridge Crystallographic Data Centre
#                                CCDC 
#
#######################################################################
#
# If this CIF has been generated from an entry in the Cambridge 
# Structural Database, then it will include bibliographic, chemical, 
# crystal, experimental, refinement or atomic coordinate data resulting 
# from the CCDC's data processing and validation procedures.
#
#######################################################################

data_LODQOK
_symmetry_cell_setting           monoclinic
_symmetry_space_group_name_H-M   'P 21/n'
_symmetry_Int_Tables_number      14
_space_group_name_Hall           '-P 2yn'
loop_
_symmetry_equiv_pos_site_id
_symmetry_equiv_pos_as_xyz
1 x,y,z
2 1/2+x,1/2-y,1/2+z
3 -x,-y,-z
4 1/2-x,1/2+y,1/2-z
_cell_length_a                   17.619(6)
_cell_length_b                   11.473(3)
_cell_length_c                   22.580(10)
_cell_angle_alpha                90
_cell_angle_beta                 96.69(3)
_cell_angle_gamma                90
_cell_volume                     4533.31
loop_
_atom_site_label
_atom_site_type_symbol
_atom_site_fract_x
_atom_site_fract_y
_atom_site_fract_z
Zn1 Zn 0.48791(5) 0.05030(8) 0.11673(4)
N1 N 0.5130(3) -0.0932(5) 0.0684(3)
N2 N 0.3785(3) -0.0075(5) 0.1164(3)
N3 N 0.4580(3) 0.2047(5) 0.1529(2)
N4 N 0.5945(3) 0.1124(5) 0.1114(3)
C1 C 0.5835(4) -0.1216(6) 0.0513(3)
C2 C 0.5770(4) -0.2294(7) 0.0194(3)
H1 H 0.6173(4) -0.2681(7) 0.0028(3)
C3 C 0.5043(4) -0.2671(7) 0.0168(3)
H2 H 0.4832(4) -0.3351(7) -0.0027(3)
C4 C 0.4648(4) -0.1828(6) 0.0500(3)
C5 C 0.3898(4) -0.1965(6) 0.0646(3)
C6 C 0.3511(4) -0.3110(6) 0.0498(3)
C7 C 0.3848(4) -0.4130(5) 0.0738(3)
C8 C 0.3507(4) -0.5220(6) 0.0605(3)
C9 C 0.2822(4) -0.5285(6) 0.0223(3)
C10 C 0.2485(4) -0.4258(6) -0.0015(4)
C11 C 0.2822(4) -0.3169(6) 0.0115(3)
C12 C 0.3503(4) -0.1136(6) 0.0964(3)
C13 C 0.2745(4) -0.1295(6) 0.1124(3)
H3 H 0.2429(4) -0.1960(6) 0.1045(3)
C14 C 0.2569(4) -0.0309(6) 0.1410(3)
H4 H 0.2100(4) -0.0151(6) 0.1564(3)
C15 C 0.3218(4) 0.0453(6) 0.1440(3)
C16 C 0.3264(4) 0.1556(6) 0.1701(3)
C17 C 0.2553(4) 0.2000(6) 0.1946(3)
C18 C 0.2275(4) 0.1386(6) 0.2423(3)
H5 H 0.2538(4) 0.0715(6) 0.2585(3)
C19 C 0.1628(4) 0.1758(6) 0.2650(3)
H6 H 0.1432(4) 0.1318(6) 0.2955(3)
C20 C 0.1251(4) 0.2788(6) 0.2438(3)
C21 C 0.1535(4) 0.3431(6) 0.1977(3)
C22 C 0.2189(4) 0.3002(6) 0.1738(3)
H7 H 0.2382(4) 0.3421(6) 0.1424(3)
C23 C 0.0589(4) 0.3193(6) 0.2687(3)
O1 O 0.0345(3) 0.2457(4) 0.3104(2)
C24 C -0.0477(4) 0.2298(7) 0.3106(4)
H8 H -0.0570(4) 0.1754(7) 0.3423(4)
H9 H -0.0697(4) 0.1983(7) 0.2720(4)
H10 H -0.0715(4) 0.3050(7) 0.3175(4)
C25 C 0.0285(4) 0.4251(6) 0.2539(3)
O2 O -0.0274(3) 0.4721(4) 0.2862(2)
C26 C -0.1042(4) 0.4837(7) 0.2546(4)
H11 H -0.1383(4) 0.5174(7) 0.2814(4)
H12 H -0.1232(4) 0.4067(7) 0.2412(4)
H13 H -0.1026(4) 0.5348(7) 0.2199(4)
C27 C 0.0582(4) 0.4968(6) 0.2096(3)
C28 C 0.0300(4) 0.6106(7) 0.1963(4)
H14 H -0.0081(4) 0.6419(7) 0.2181(4)
C29 C 0.0566(4) 0.6763(7) 0.1527(4)
H15 H 0.0370(4) 0.7525(7) 0.1446(4)
C30 C 0.1126(4) 0.6319(7) 0.1202(4)
H16 H 0.1295(4) 0.6766(7) 0.0888(4)
C31 C 0.1435(4) 0.5235(6) 0.1334(3)
H17 H 0.1825(4) 0.4947(6) 0.1116(3)
C32 C 0.1176(4) 0.4538(6) 0.1794(3)
C33 C 0.3891(4) 0.2310(6) 0.1739(3)
C34 C 0.3953(4) 0.3426(6) 0.2028(3)
H18 H 0.3564(4) 0.3797(6) 0.2218(3)
C35 C 0.4654(4) 0.3858(6) 0.1985(3)
H19 H 0.4846(4) 0.4594(6) 0.2126(3)
C36 C 0.5061(4) 0.2983(6) 0.1682(3)
C37 C 0.5825(4) 0.3061(6) 0.1570(3)
C38 C 0.6267(4) 0.4148(6) 0.1748(3)
C39 C 0.6482(4) 0.4433(6) 0.2342(3)
C40 C 0.6946(4) 0.5407(6) 0.2499(4)
C41 C 0.7190(4) 0.6090(7) 0.2040(4)
C42 C 0.6985(4) 0.5809(7) 0.1441(4)
C43 C 0.6512(4) 0.4844(6) 0.1297(3)
C44 C 0.6238(4) 0.2170(6) 0.1326(3)
C45 C 0.7051(4) 0.2220(6) 0.1276(3)
H20 H 0.7384(4) 0.2854(6) 0.1387(3)
C46 C 0.7244(4) 0.1203(6) 0.1043(3)
H21 H 0.7741(4) 0.0974(6) 0.0965(3)
C47 C 0.6547(4) 0.0513(6) 0.0933(3)
C48 C 0.6507(4) -0.0584(6) 0.0668(3)
C49 C 0.7257(4) -0.1146(6) 0.0554(3)
C50 C 0.7754(4) -0.1524(6) 0.1045(3)
C51 C 0.8451(4) -0.2060(7) 0.0957(4)
C52 C 0.8650(4) -0.2202(7) 0.0387(4)
C53 C 0.8168(4) -0.1790(7) -0.0103(4)
C54 C 0.7465(4) -0.1266(6) -0.0017(3)
O2C O 0.5274(3) -0.0279(4) 0.2138(2)
Zn1C Zn 0.01209(5) 0.55030(8) 0.38327(4)
C55 C -0.0427(12) 0.4147(17) 0.0566(9)
H22 H -0.0779(12) 0.4794(17) 0.0611(9)
H23 H -0.0449(12) 0.3936(17) 0.0144(9)
H24 H 0.0094(12) 0.4384(17) 0.0716(9)
C56 C -0.0649(13) 0.3136(15) 0.0909(11)
H25 H -0.0643(13) 0.3389(15) 0.1328(11)
H26 H -0.1186(13) 0.2947(15) 0.0761(11)
C57 C -0.0215(13) 0.2060(16) 0.0912(11)
H27 H 0.0331(13) 0.2280(16) 0.0977(11)
H28 H -0.0308(13) 0.1734(16) 0.0504(11)
C58 C -0.0318(11) 0.1096(16) 0.1325(10)
H29 H -0.0358(11) 0.1415(16) 0.1728(10)
H30 H -0.0800(11) 0.0681(16) 0.1191(10)
C59 C 0.0314(10) 0.0282(16) 0.1356(9)
H31 H 0.0207(10) -0.0370(16) 0.1622(9)
H32 H 0.0780(10) 0.0681(16) 0.1541(9)
C60 C 0.0467(23) -0.0200(34) 0.0786(13)
H33 H 0.0902(23) -0.0736(34) 0.0849(13)
H34 H 0.0587(23) 0.0434(34) 0.0522(13)
H35 H 0.0015(23) -0.0622(34) 0.0604(13)
loop_
_geom_bond_atom_site_label_1
_geom_bond_atom_site_label_2
_geom_bond_site_symmetry_1
_geom_bond_site_symmetry_2
Zn1 N1 1_555 1_555
N1 C1 1_555 1_555
N2 Zn1 1_555 1_555
N3 Zn1 1_555 1_555
N4 Zn1 1_555 1_555
C1 C2 1_555 1_555
C2 H1 1_555 1_555
C3 C2 1_555 1_555
H2 C3 1_555 1_555
C4 N1 1_555 1_555
C5 C4 1_555 1_555
C6 C5 1_555 1_555
C7 C6 1_555 1_555
C8 C7 1_555 1_555
C9 C8 1_555 1_555
C10 C9 1_555 1_555
C11 C6 1_555 1_555
C12 N2 1_555 1_555
C13 C12 1_555 1_555
H3 C13 1_555 1_555
C14 C13 1_555 1_555
H4 C14 1_555 1_555
C15 N2 1_555 1_555
C16 C15 1_555 1_555
C17 C16 1_555 1_555
C18 C17 1_555 1_555
H5 C18 1_555 1_555
C19 C18 1_555 1_555
H6 C19 1_555 1_555
C20 C19 1_555 1_555
C21 C20 1_555 1_555
C22 C17 1_555 1_555
H7 C22 1_555 1_555
C23 C20 1_555 1_555
O1 C23 1_555 1_555
C24 O1 1_555 1_555
H8 C24 1_555 1_555
H9 C24 1_555 1_555
H10 C24 1_555 1_555
C25 C23 1_555 1_555
O2 C25 1_555 1_555
C26 O2 1_555 1_555
H11 C26 1_555 1_555
H12 C26 1_555 1_555
H13 C26 1_555 1_555
C27 C25 1_555 1_555
C28 C27 1_555 1_555
H14 C28 1_555 1_555
C29 C28 1_555 1_555
H15 C29 1_555 1_555
C30 C29 1_555 1_555
H16 C30 1_555 1_555
C31 C30 1_555 1_555
H17 C31 1_555 1_555
C32 C21 1_555 1_555
C33 N3 1_555 1_555
C34 C33 1_555 1_555
H18 C34 1_555 1_555
C35 C34 1_555 1_555
H19 C35 1_555 1_555
C36 N3 1_555 1_555
C37 C36 1_555 1_555
C38 C37 1_555 1_555
C39 C38 1_555 1_555
C40 C39 1_555 1_555
C41 C40 1_555 1_555
C42 C41 1_555 1_555
C43 C38 1_555 1_555
C44 N4 1_555 1_555
C45 C44 1_555 1_555
H20 C45 1_555 1_555
C46 C45 1_555 1_555
H21 C46 1_555 1_555
C47 N4 1_555 1_555
C48 C1 1_555 1_555
C49 C48 1_555 1_555
C50 C49 1_555 1_555
C51 C50 1_555 1_555
C52 C51 1_555 1_555
C53 C52 1_555 1_555
C54 C49 1_555 1_555
C55 H22 1_555 1_555
H23 C55 1_555 1_555
H24 C55 1_555 1_555
C56 C55 1_555 1_555
H25 C56 1_555 1_555
H26 C56 1_555 1_555
C57 C56 1_555 1_555
H27 C57 1_555 1_555
H28 C57 1_555 1_555
C58 C57 1_555 1_555
H29 C58 1_555 1_555
H30 C58 1_555 1_555
C59 C58 1_555 1_555
H31 C59 1_555 1_555
H32 C59 1_555 1_555
C60 C59 1_555 1_555
H33 C60 1_555 1_555
H34 C60 1_555 1_555
H35 C60 1_555 1_555
O2C Zn1 1_555 1_555
Zn1C O2 1_555 1_555
C3 C4 1_555 1_555
C5 C12 1_555 1_555
C10 C11 1_555 1_555
C14 C15 1_555 1_555
C16 C33 1_555 1_555
C21 C22 1_555 1_555
C27 C32 1_555 1_555
C31 C32 1_555 1_555
C35 C36 1_555 1_555
C37 C44 1_555 1_555
C42 C43 1_555 1_555
C46 C47 1_555 1_555
C47 C48 1_555 1_555
C53 C54 1_555 1_555

#END
