
#######################################################################
#
#                 Cambridge Crystallographic Data Centre
#                                CCDC 
#
#######################################################################
#
# If this CIF has been generated from an entry in the Cambridge 
# Structural Database, then it will include bibliographic, chemical, 
# crystal, experimental, refinement or atomic coordinate data resulting 
# from the CCDC's data processing and validation procedures.
#
#######################################################################

data_LODZIO
_symmetry_cell_setting           triclinic
_symmetry_space_group_name_H-M   'P -1'
_symmetry_Int_Tables_number      2
_space_group_name_Hall           '-P 1'
loop_
_symmetry_equiv_pos_site_id
_symmetry_equiv_pos_as_xyz
1 x,y,z
2 -x,-y,-z
_cell_length_a                   12.6395(4)
_cell_length_b                   14.7442(7)
_cell_length_c                   18.4913(7)
_cell_angle_alpha                86.597(6)
_cell_angle_beta                 82.283(4)
_cell_angle_gamma                82.239(7)
_cell_volume                     3380.55
loop_
_atom_site_label
_atom_site_type_symbol
_atom_site_fract_x
_atom_site_fract_y
_atom_site_fract_z
O19 O -0.0718(7) 0.2974(6) -0.2061(5)
O20 O 0.6032(17) -0.2906(13) 0.4544(10)
N3 N 0.499(2) -0.4069(17) 0.4847(12)
C71 C 0.491(2) -0.309(2) 0.4564(14)
C72 C 0.603(2) -0.471(2) 0.5083(13)
C73 C 0.393(3) -0.432(3) 0.4848(17)
O20A O 0.3968(17) -0.7094(13) 0.5456(10)
N3A N 0.501(2) -0.5931(17) 0.5153(12)
C71A C 0.509(2) -0.691(2) 0.5436(14)
C72A C 0.397(2) -0.529(2) 0.4917(13)
C73A C 0.607(3) -0.568(3) 0.5152(17)
O21 O -0.3383(16) 0.3434(13) -0.0927(10)
O22 O 0.6091(14) -0.1176(12) 0.3843(9)
Cd1 Cd -0.09050(2) 0.28688(2) 0.262680(17)
O1 O -0.2279(2) 0.3329(2) 0.34980(18)
N1 N 0.2155(4) -0.0182(3) 0.2443(3)
Cd2 Cd 0.08836(3) 0.10918(2) 0.25100(2)
O2 O 0.0859(3) 0.2654(2) 0.28397(19)
N2 N 0.5911(4) -0.4153(3) 0.2845(3)
Cd3 Cd -0.27572(3) 0.46188(2) 0.27768(2)
O3 O -0.0786(3) 0.1444(2) 0.32030(18)
C1 C 0.0176(4) 0.1082(3) 0.4234(3)
C2 C -0.2997(3) 0.2767(3) 0.3704(2)
C3 C 0.3649(5) -0.1746(4) 0.2588(4)
C4 C 0.2419(4) 0.2598(4) 0.1968(3)
C5 C 0.4419(5) -0.2582(4) 0.2679(4)
C6 C -0.0676(4) 0.1653(3) 0.1257(3)
C7 C -0.2816(4) 0.1974(4) 0.4106(3)
C8 C -0.1494(4) 0.3107(3) 0.0690(3)
C9 C -0.1764(4) 0.1735(4) 0.5165(3)
C10 C -0.1750(4) 0.5080(3) 0.0364(3)
C11 C -0.0282(4) 0.4742(3) 0.3041(3)
C12 C -0.1128(4) 0.3479(3) -0.0035(3)
C13 C 0.0183(4) 0.1074(3) 0.5027(3)
C14 C -0.1765(4) 0.1683(3) 0.4376(3)
C15 C -0.0850(4) 0.1431(3) 0.3917(3)
C16 C 0.1564(3) 0.3130(3) 0.2478(3)
C17 C -0.0516(4) 0.0613(3) 0.1317(3)
C18 C -0.1210(4) 0.4497(3) -0.0175(3)
C19 C -0.4953(4) 0.2499(4) 0.3709(3)
C20 C 0.0579(5) 0.5632(4) 0.4153(3)
C21 C -0.2117(4) 0.4699(3) 0.1082(3)
C22 C -0.1333(4) 0.2097(3) 0.0788(3)
C23 C 0.1590(4) 0.4049(3) 0.2543(3)
C24 C -0.0737(4) 0.1432(4) 0.5475(3)
C25 C -0.0519(5) 0.5816(4) 0.4115(3)
C26 C 0.0815(4) 0.4615(3) 0.3060(3)
C27 C 0.2408(4) 0.4530(4) 0.2084(3)
C28 C -0.4098(4) 0.3069(4) 0.3486(3)
C29 C -0.1673(4) 0.0564(4) 0.0344(3)
C30 C -0.1840(5) 0.6030(4) 0.0235(3)
H1 H -0.2238 0.6431 0.0587
C31 C -0.1914(4) 0.1584(4) 0.0339(3)
C32 C -0.1928(4) 0.3674(3) 0.1244(3)
C33 C 0.3721(5) -0.0954(5) 0.2930(6)
H2 H 0.4277 -0.0927 0.3224
C34 C -0.4744(4) 0.1671(5) 0.4085(3)
C35 C -0.0988(4) 0.5363(3) 0.3569(3)
C36 C -0.5987(5) 0.2790(5) 0.3528(4)
H3 H -0.6143 0.3364 0.3277
C37 C 0.1292(5) 0.5031(4) 0.3619(3)
C38 C -0.1013(4) 0.0098(3) 0.0826(3)
C39 C 0.3308(5) 0.3060(5) 0.1574(4)
C40 C 0.4980(8) 0.3938(8) 0.0844(7)
H4 H 0.5569 0.4231 0.0612
C41 C 0.4952(8) 0.3016(9) 0.0762(7)
H5 H 0.5512 0.2683 0.0452
C42 C 0.6203(5) -0.3323(5) 0.2791(6)
H6 H 0.6936 -0.3261 0.2812
C43 C -0.5544(5) 0.1114(6) 0.4288(5)
H7 H -0.5397 0.0545 0.4547
C44 C 0.4148(6) 0.4419(6) 0.1265(5)
H8 H 0.4142 0.5059 0.1306
C45 C 0.4123(7) 0.2567(6) 0.1123(5)
H9 H 0.4114 0.1933 0.1061
C46 C 0.5494(6) -0.2544(5) 0.2705(7)
H10 H 0.5753 -0.1965 0.2663
C47 C -0.6567(6) 0.1412(7) 0.4101(5)
H11 H -0.7129 0.1044 0.4240
C48 C -0.1258(7) -0.1316(5) 0.0352(5)
H12 H -0.1127 -0.1966 0.0358
C49 C -0.2127(6) 0.0071(5) -0.0124(4)
H13 H -0.2595 0.0382 -0.0446
C50 C 0.2949(6) -0.0186(4) 0.2835(6)
H14 H 0.3007 0.0360 0.3067
C51 C -0.1897(6) -0.0869(5) -0.0121(4)
H15 H -0.2189 -0.1205 -0.0452
C52 C -0.6780(5) 0.2228(7) 0.3720(4)
H16 H -0.7480 0.2409 0.3586
C53 C 0.4119(5) -0.3445(4) 0.2731(4)
H17 H 0.3391 -0.3523 0.2707
C54 C 0.0220(6) 0.1192(5) 0.6510(4)
H18 H 0.0239 0.1240 0.7018
C55 C -0.0725(8) 0.6709(5) 0.5174(4)
H19 H -0.1166 0.7082 0.5528
C56 C 0.0356(8) 0.6511(5) 0.5217(4)
H20 H 0.0654 0.6742 0.5602
C57 C 0.2814(5) -0.1746(4) 0.2168(4)
H21 H 0.2732 -0.2279 0.1928
C58 C -0.0714(5) 0.1500(5) 0.6219(3)
H22 H -0.1337 0.1755 0.6523
C59 C 0.3309(5) 0.3988(5) 0.1635(3)
C60 C -0.1184(6) 0.6375(4) 0.4622(4)
H23 H -0.1931 0.6521 0.4589
C61 C 0.2101(5) -0.0946(4) 0.2109(3)
H24 H 0.1544 -0.0946 0.1811
C62 C 0.4875(5) -0.4207(4) 0.2820(4)
H25 H 0.4640 -0.4796 0.2865
C63 C -0.0793(6) -0.0853(4) 0.0826(4)
H26 H -0.0331 -0.1177 0.1146
C64 C 0.1139(5) 0.0813(5) 0.6075(4)
H27 H 0.1780 0.0605 0.6283
C65 C 0.1009(6) 0.5986(4) 0.4711(3)
H28 H 0.1760 0.5862 0.4741
C66 C -0.0724(5) 0.4862(4) -0.0822(3)
H29 H -0.0359 0.4468 -0.1189
C67 C 0.1107(4) 0.0742(4) 0.5345(3)
H30 H 0.1724 0.0463 0.5049
C68 C -0.3643(4) 0.1369(4) 0.4299(3)
C69 C -0.1333(6) 0.6381(4) -0.0421(3)
H31 H -0.1379 0.7025 -0.0512
C70 C -0.0770(5) 0.5805(4) -0.0935(3)
H32 H -0.0408 0.6053 -0.1371
O4 O -0.0119(3) 0.2042(2) 0.16716(18)
O5 O -0.2231(3) 0.3411(2) 0.19179(18)
O6 O -0.0781(3) 0.4381(2) 0.25764(18)
O7 O 0.2369(3) 0.1777(3) 0.1895(3)
O8 O 0.0997(3) 0.0838(3) 0.3813(2)
O9 O 0.0041(3) 0.0228(2) 0.1764(2)
O10 O -0.4260(3) 0.3794(3) 0.3132(2)
O11 O -0.2559(4) 0.5198(3) 0.1572(2)
O12 O -0.1973(3) 0.5456(3) 0.3559(2)
O13 O -0.2573(3) 0.2047(4) 0.5556(2)
O14 O -0.3455(4) 0.0630(3) 0.4624(4)
O15 O 0.2260(3) 0.4863(3) 0.3660(3)
O16 O 0.2360(4) 0.5367(3) 0.2067(3)
O17 O -0.0709(4) 0.2976(3) -0.0533(2)
O18 O -0.2584(4) 0.1976(3) -0.0030(3)
N2_2 N -0.4089(4) 0.5847(3) 0.2845(3)
Cd3_2 Cd 0.72428(3) -0.53812(2) 0.27768(2)
loop_
_geom_bond_atom_site_label_1
_geom_bond_atom_site_label_2
_geom_bond_site_symmetry_1
_geom_bond_site_symmetry_2
Cd1 O1 1_555 1_555
O1 Cd3 1_555 1_555
N1 Cd2 1_555 1_555
Cd2 O2 1_555 1_555
O2 Cd1 1_555 1_555
N2 C42 1_555 1_555
Cd3 O5 1_555 1_555
O3 Cd1 1_555 1_555
C1 C13 1_555 1_555
C2 O1 1_555 1_555
C3 C5 1_555 1_555
C4 C16 1_555 1_555
C5 C46 1_555 1_555
C6 C17 1_555 1_555
C7 C2 1_555 1_555
C8 C12 1_555 1_555
C9 C14 1_555 1_555
C10 C18 1_555 1_555
C11 C26 1_555 1_555
C12 C18 1_555 1_555
C13 C24 1_555 1_555
C14 C7 1_555 1_555
C15 O3 1_555 1_555
C16 O2 1_555 1_555
C17 C38 1_555 1_555
C18 C66 1_555 1_555
C19 C28 1_555 1_555
C20 C25 1_555 1_555
C21 C10 1_555 1_555
C22 C6 1_555 1_555
C23 C16 1_555 1_555
C24 C9 1_555 1_555
C25 C35 1_555 1_555
C26 C23 1_555 1_555
C27 C23 1_555 1_555
C28 C2 1_555 1_555
C29 C31 1_555 1_555
C30 C10 1_555 1_555
H1 C30 1_555 1_555
C31 C22 1_555 1_555
C32 C8 1_555 1_555
C33 C3 1_555 1_555
H2 C33 1_555 1_555
C34 C19 1_555 1_555
C35 C11 1_555 1_555
C36 C19 1_555 1_555
H3 C36 1_555 1_555
C37 C20 1_555 1_555
C38 C29 1_555 1_555
C39 C4 1_555 1_555
C40 H4 1_555 1_555
C41 C40 1_555 1_555
H5 C41 1_555 1_555
C42 H6 1_555 1_555
C43 C34 1_555 1_555
H7 C43 1_555 1_555
C44 C40 1_555 1_555
H8 C44 1_555 1_555
C45 C39 1_555 1_555
H9 C45 1_555 1_555
C46 C42 1_555 1_555
H10 C46 1_555 1_555
C47 C43 1_555 1_555
H11 C47 1_555 1_555
C48 H12 1_555 1_555
C49 C29 1_555 1_555
H13 C49 1_555 1_555
C50 N1 1_555 1_555
H14 C50 1_555 1_555
C51 C48 1_555 1_555
H15 C51 1_555 1_555
C52 C36 1_555 1_555
H16 C52 1_555 1_555
C53 C5 1_555 1_555
H17 C53 1_555 1_555
C54 H18 1_555 1_555
C55 H19 1_555 1_555
C56 C55 1_555 1_555
H20 C56 1_555 1_555
C57 C3 1_555 1_555
H21 C57 1_555 1_555
C58 C24 1_555 1_555
H22 C58 1_555 1_555
C59 C27 1_555 1_555
C60 C25 1_555 1_555
H23 C60 1_555 1_555
C61 N1 1_555 1_555
H24 C61 1_555 1_555
C62 N2 1_555 1_555
H25 C62 1_555 1_555
C63 C38 1_555 1_555
H26 C63 1_555 1_555
C64 C54 1_555 1_555
H27 C64 1_555 1_555
C65 C20 1_555 1_555
H28 C65 1_555 1_555
C66 H29 1_555 1_555
C67 C13 1_555 1_555
H30 C67 1_555 1_555
C68 C7 1_555 1_555
C69 C30 1_555 1_555
H31 C69 1_555 1_555
C70 C66 1_555 1_555
H32 C70 1_555 1_555
O4 Cd1 1_555 1_555
O5 Cd1 1_555 1_555
O6 Cd1 1_555 1_555
O7 Cd2 1_555 1_555
O8 Cd2 1_555 1_555
O9 Cd2 1_555 1_555
O10 Cd3 1_555 1_555
O11 Cd3 1_555 1_555
O12 Cd3 1_555 1_555
O13 C9 1_555 1_555
O14 C68 1_555 1_555
O15 C37 1_555 1_555
O16 C27 1_555 1_555
O17 C12 1_555 1_555
O18 C31 1_555 1_555
O20 C71 1_555 1_555
N3 C71 1_555 1_555
C72 N3 1_555 1_555
C73 N3 1_555 1_555
N2_2 Cd3 1_555 1_555
Cd3_2 N2 1_555 1_555
O20A C71A 1_555 1_555
N3A C71A 1_555 1_555
C72A C73 1_555 1_555
C73A C72 1_555 1_555
Cd2 O3 1_555 1_555
Cd2 O4 1_555 1_555
Cd3 O6 1_555 1_555
C1 C15 1_555 1_555
C1 O8 1_555 1_555
C4 O7 1_555 1_555
C6 O4 1_555 1_555
C8 C22 1_555 1_555
C11 O6 1_555 1_555
C14 C15 1_555 1_555
C17 O9 1_555 1_555
C21 C32 1_555 1_555
C21 O11 1_555 1_555
C26 C37 1_555 1_555
C28 O10 1_555 1_555
C32 O5 1_555 1_555
C33 C50 1_555 1_555
C34 C68 1_555 1_555
C35 O12 1_555 1_555
C39 C59 1_555 1_555
C41 C45 1_555 1_555
C44 C59 1_555 1_555
C47 C52 1_555 1_555
C48 C63 1_555 1_555
C49 C51 1_555 1_555
C53 C62 1_555 1_555
C54 C58 1_555 1_555
C55 C60 1_555 1_555
C56 C65 1_555 1_555
C57 C61 1_555 1_555
C64 C67 1_555 1_555
C69 C70 1_555 1_555
N3A C72A 1_555 1_555
N3A C73A 1_555 1_555

#END
