
#######################################################################
#
#                 Cambridge Crystallographic Data Centre
#                                CCDC 
#
#######################################################################
#
# If this CIF has been generated from an entry in the Cambridge 
# Structural Database, then it will include bibliographic, chemical, 
# crystal, experimental, refinement or atomic coordinate data resulting 
# from the CCDC's data processing and validation procedures.
#
#######################################################################

data_LODZOU
_symmetry_cell_setting           triclinic
_symmetry_space_group_name_H-M   'P -1'
_symmetry_Int_Tables_number      2
_space_group_name_Hall           '-P 1'
loop_
_symmetry_equiv_pos_site_id
_symmetry_equiv_pos_as_xyz
1 x,y,z
2 -x,-y,-z
_cell_length_a                   9.1330(3)
_cell_length_b                   10.5120(3)
_cell_length_c                   24.7600(7)
_cell_angle_alpha                96.4920(10)
_cell_angle_beta                 95.5780(10)
_cell_angle_gamma                97.8640(10)
_cell_volume                     2324.28
loop_
_atom_site_label
_atom_site_type_symbol
_atom_site_fract_x
_atom_site_fract_y
_atom_site_fract_z
Cd1 Cd 0.325160(16) -0.016620(14) 0.445890(5)
Cd2 Cd -0.391960(15) -0.322790(13) -0.068890(5)
C1 C 0.3170(2) 0.5580(2) 0.84567(8)
H1 H 0.3900 0.5647 0.8220
C2 C 0.1744(2) 0.50236(19) 0.82409(8)
C3 C 0.0659(2) 0.4949(2) 0.85946(9)
H2 H -0.0320 0.4598 0.8465
C4 C 0.1048(2) 0.5402(2) 0.91415(9)
H3 H 0.0336 0.5355 0.9386
C5 C 0.2501(2) 0.5923(2) 0.93222(8)
H4 H 0.2754 0.6216 0.9693
C6 C 0.1382(2) 0.4506(2) 0.76439(8)
H5 H 0.0661 0.3723 0.7597
H6 H 0.0968 0.5141 0.7444
C7 C 0.2711(2) 0.3584(2) 0.69400(8)
C8 C 0.4064(2) 0.3216(2) 0.68387(8)
H7 H 0.4876 0.3425 0.7107
C9 C 0.4215(2) 0.2543(2) 0.63424(8)
H8 H 0.5129 0.2297 0.6278
C10 C 0.3015(2) 0.22271(18) 0.59361(7)
C11 C 0.1666(2) 0.2602(2) 0.60432(8)
H9 H 0.0854 0.2397 0.5775
C12 C 0.1500(2) 0.3280(2) 0.65453(9)
H10 H 0.0587 0.3523 0.6613
C13 C 0.3187(2) 0.14563(19) 0.54064(8)
C14 C -0.3089(2) -0.4063(2) 0.81645(8)
C15 C -0.2447(2) -0.3896(2) 0.76360(7)
C16 C -0.2349(2) -0.4993(2) 0.72803(8)
H11 H -0.2678 -0.5807 0.7375
C17 C -0.1773(2) -0.4901(2) 0.67889(8)
H12 H -0.1747 -0.5643 0.6549
C18 C -0.1234(2) -0.3698(2) 0.66556(8)
C19 C -0.1328(3) -0.2579(2) 0.70022(9)
H13 H -0.0985 -0.1768 0.6908
C20 C -0.1941(2) -0.2691(2) 0.74908(8)
H14 H -0.2012 -0.1948 0.7723
C21 C 0.0171(3) -0.2520(2) 0.60638(10)
H15 H 0.0861 -0.2129 0.6380
H16 H -0.0516 -0.1921 0.5984
C22 C 0.1007(2) -0.2800(2) 0.55797(8)
C23 C 0.1367(3) -0.3999(2) 0.54138(10)
H17 H 0.1084 -0.4698 0.5599
C24 C 0.2159(3) -0.4151(2) 0.49660(10)
H18 H 0.2385 -0.4960 0.4839
C25 C 0.2602(2) -0.3092(2) 0.47141(9)
H19 H 0.3147 -0.3196 0.4418
C26 C 0.1483(2) -0.1786(2) 0.52982(8)
H20 H 0.1234 -0.0975 0.5408
C27 C 0.4533(3) 0.2671(2) 0.41753(9)
H21 H 0.4241 0.2895 0.4519
C28 C 0.5009(3) 0.3648(2) 0.38757(10)
H22 H 0.5049 0.4512 0.4016
C29 C 0.5425(3) 0.3315(2) 0.33622(9)
H23 H 0.5748 0.3955 0.3152
C30 C 0.5356(2) 0.2029(2) 0.31659(8)
C31 C 0.4894(2) 0.1112(2) 0.34966(8)
H24 H 0.4873 0.0243 0.3369
C32 C 0.5681(3) 0.1672(2) 0.25860(9)
H25 H 0.4903 0.1886 0.2332
H26 H 0.6617 0.2166 0.2528
C33 C 0.5722(2) -0.0194(2) 0.19523(8)
C34 C 0.5866(2) -0.1496(2) 0.18782(8)
H27 H 0.5977 -0.1943 0.2180
C35 C 0.5842(2) -0.2131(2) 0.13564(8)
H28 H 0.5944 -0.3003 0.1309
C36 C 0.5667(2) -0.14774(18) 0.09009(7)
C37 C 0.5520(2) -0.0174(2) 0.09816(8)
H29 H 0.5398 0.0271 0.0680
C38 C 0.5553(3) 0.0476(2) 0.15035(8)
H30 H 0.5464 0.1351 0.1552
C39 C 0.5663(2) -0.21468(19) 0.03363(7)
C40 C -0.0622(2) -0.1666(2) -0.08045(9)
H31 H -0.1067 -0.1625 -0.1155
C41 C 0.0818(3) -0.1058(2) -0.06550(9)
H32 H 0.1335 -0.0623 -0.0902
C42 C 0.1483(2) -0.1104(2) -0.01343(9)
H33 H 0.2449 -0.0689 -0.0023
C43 C 0.0694(2) -0.1774(2) 0.02202(8)
C44 C -0.0747(2) -0.2359(2) 0.00369(8)
H34 H -0.1284 -0.2808 0.0275
C45 C 0.1350(2) -0.1851(3) 0.07947(8)
H35 H 0.1550 -0.2722 0.0831
H36 H 0.2277 -0.1258 0.0886
C46 C 0.0694(2) -0.1409(2) 0.16996(8)
C47 C -0.0310(2) -0.0927(2) 0.20281(9)
H37 H -0.1183 -0.0695 0.1869
C48 C -0.0012(2) -0.0794(2) 0.25876(8)
H38 H -0.0689 -0.0478 0.2806
C49 C 0.1298(2) -0.11299(18) 0.28313(8)
C50 C 0.2276(2) -0.1607(2) 0.24987(8)
H39 H 0.3152 -0.1832 0.2659
C51 C 0.1994(2) -0.1760(2) 0.19331(8)
H40 H 0.2663 -0.2091 0.1715
C52 C 0.1701(2) -0.09115(19) 0.34391(8)
N1 N 0.22833(19) -0.19116(18) 0.48762(7)
N2 N 0.44739(19) 0.14222(17) 0.39937(6)
N3 N -0.14059(18) -0.23098(16) -0.04676(6)
N4 N 0.35668(18) 0.60283(16) 0.89883(6)
O1 O -0.3256(2) -0.51743(17) 0.83033(7)
O2 O -0.34349(16) -0.30681(15) 0.84343(5)
O3 O -0.06195(19) -0.36983(16) 0.61732(6)
O4 O 0.57617(19) 0.03426(15) 0.24868(6)
O5 O 0.56703(18) -0.33587(14) 0.02677(6)
O6 O 0.56873(17) -0.15009(14) -0.00616(5)
O7 O 0.02913(16) -0.15074(18) 0.11464(6)
O8 O 0.27279(17) -0.14852(15) 0.36345(6)
O9 O 0.10947(18) -0.01371(16) 0.37275(6)
O10 O 0.43729(16) 0.09914(15) 0.53501(6)
O11 O 0.21333(17) 0.12725(17) 0.50252(6)
O12 O 0.27271(16) 0.42414(18) 0.74494(6)
O13 O -0.33103(18) -0.52714(15) -0.06455(6)
H41 H -0.408(2) -0.569(2) -0.0541(9)
H42 H -0.337(3) -0.545(3) -0.0991(4)
Cd1A Cd 0.674840(16) 0.016620(14) 0.554110(5)
Cd2_2 Cd 0.608040(15) -0.322790(13) -0.068890(5)
Cd2_3 Cd -0.391960(15) -0.322790(13) 0.931110(5)
Cd2_4 Cd 0.608040(15) 0.677210(13) 0.931110(5)
N4_2 N -0.64332(18) -0.39717(16) -0.10117(6)
O2_2 O -0.34349(16) -0.30681(15) -0.15657(5)
O5_2 O -0.43297(18) -0.33587(14) 0.02677(6)
O6_2 O -0.43127(17) -0.15009(14) -0.00616(5)
O10A O 0.56271(16) -0.09914(15) 0.46499(6)
loop_
_geom_bond_atom_site_label_1
_geom_bond_atom_site_label_2
_geom_bond_site_symmetry_1
_geom_bond_site_symmetry_2
Cd1 N1 1_555 1_555
Cd2 N3 1_555 1_555
C1 H1 1_555 1_555
C2 C1 1_555 1_555
C3 C2 1_555 1_555
H2 C3 1_555 1_555
C4 C3 1_555 1_555
H3 C4 1_555 1_555
C5 C4 1_555 1_555
H4 C5 1_555 1_555
C6 C2 1_555 1_555
H5 C6 1_555 1_555
H6 C6 1_555 1_555
C7 C8 1_555 1_555
C8 H7 1_555 1_555
C9 C8 1_555 1_555
H8 C9 1_555 1_555
C10 C9 1_555 1_555
C11 C10 1_555 1_555
H9 C11 1_555 1_555
C12 C7 1_555 1_555
H10 C12 1_555 1_555
C13 C10 1_555 1_555
C14 C15 1_555 1_555
C15 C16 1_555 1_555
C16 H11 1_555 1_555
C17 C16 1_555 1_555
H12 C17 1_555 1_555
C18 C17 1_555 1_555
C19 C18 1_555 1_555
H13 C19 1_555 1_555
C20 C15 1_555 1_555
H14 C20 1_555 1_555
C21 H15 1_555 1_555
H16 C21 1_555 1_555
C22 C21 1_555 1_555
C23 C22 1_555 1_555
H17 C23 1_555 1_555
C24 C23 1_555 1_555
H18 C24 1_555 1_555
C25 C24 1_555 1_555
H19 C25 1_555 1_555
C26 C22 1_555 1_555
H20 C26 1_555 1_555
C27 H21 1_555 1_555
C28 C27 1_555 1_555
H22 C28 1_555 1_555
C29 C28 1_555 1_555
H23 C29 1_555 1_555
C30 C29 1_555 1_555
C31 C30 1_555 1_555
H24 C31 1_555 1_555
C32 C30 1_555 1_555
H25 C32 1_555 1_555
H26 C32 1_555 1_555
C33 C34 1_555 1_555
C34 H27 1_555 1_555
C35 C34 1_555 1_555
H28 C35 1_555 1_555
C36 C35 1_555 1_555
C37 C36 1_555 1_555
H29 C37 1_555 1_555
C38 C33 1_555 1_555
H30 C38 1_555 1_555
C39 C36 1_555 1_555
C40 H31 1_555 1_555
C41 C40 1_555 1_555
H32 C41 1_555 1_555
C42 C41 1_555 1_555
H33 C42 1_555 1_555
C43 C42 1_555 1_555
C44 C43 1_555 1_555
H34 C44 1_555 1_555
C45 C43 1_555 1_555
H35 C45 1_555 1_555
H36 C45 1_555 1_555
C46 C47 1_555 1_555
C47 H37 1_555 1_555
C48 C47 1_555 1_555
H38 C48 1_555 1_555
C49 C48 1_555 1_555
C50 C49 1_555 1_555
H39 C50 1_555 1_555
C51 C46 1_555 1_555
H40 C51 1_555 1_555
C52 C49 1_555 1_555
N1 C25 1_555 1_555
N2 Cd1 1_555 1_555
N3 C40 1_555 1_555
N4 C1 1_555 1_555
O1 C14 1_555 1_555
O2 C14 1_555 1_555
O3 C18 1_555 1_555
O4 C32 1_555 1_555
O5 C39 1_555 1_555
O6 C39 1_555 1_555
O7 C45 1_555 1_555
O8 Cd1 1_555 1_555
O9 Cd1 1_555 1_555
O10 Cd1 1_555 1_555
O11 Cd1 1_555 1_555
O12 C6 1_555 1_555
O13 Cd2 1_555 1_555
H41 O13 1_555 1_555
H42 O13 1_555 1_555
Cd1A O10 1_555 1_555
Cd2_2 O5 1_555 1_555
Cd2_3 O2 1_555 1_555
Cd2_4 N4 1_555 1_555
N4_2 Cd2 1_555 1_555
O2_2 Cd2 1_555 1_555
O5_2 Cd2 1_555 1_555
O6_2 Cd2 1_555 1_555
O10A Cd1 1_555 1_555
C5 N4 1_555 1_555
C7 O12 1_555 1_555
C11 C12 1_555 1_555
C13 O10 1_555 1_555
C13 O11 1_555 1_555
C19 C20 1_555 1_555
C21 O3 1_555 1_555
C26 N1 1_555 1_555
C27 N2 1_555 1_555
C31 N2 1_555 1_555
C33 O4 1_555 1_555
C37 C38 1_555 1_555
C44 N3 1_555 1_555
C46 O7 1_555 1_555
C50 C51 1_555 1_555
C52 O8 1_555 1_555
C52 O9 1_555 1_555
O6 Cd2_2 1_555 1_555
Cd1A O10A 1_555 1_555

#END
