
#######################################################################
#
#                 Cambridge Crystallographic Data Centre
#                                CCDC 
#
#######################################################################
#
# If this CIF has been generated from an entry in the Cambridge 
# Structural Database, then it will include bibliographic, chemical, 
# crystal, experimental, refinement or atomic coordinate data resulting 
# from the CCDC's data processing and validation procedures.
#
#######################################################################

data_LODZAG
_symmetry_cell_setting           monoclinic
_symmetry_space_group_name_H-M   'C 2/c'
_symmetry_Int_Tables_number      15
_space_group_name_Hall           '-C 2yn'
loop_
_symmetry_equiv_pos_site_id
_symmetry_equiv_pos_as_xyz
1 x,y,z
2 1/2+x,1/2+y,z
3 -x,y,1/2-z
4 1/2-x,1/2+y,1/2-z
5 -x,-y,-z
6 1/2-x,1/2-y,-z
7 x,-y,1/2+z
8 1/2+x,1/2-y,1/2+z
_cell_length_a                   45.999(9)
_cell_length_b                   7.512(2)
_cell_length_c                   23.563(5)
_cell_angle_alpha                90
_cell_angle_beta                 116.35(3)
_cell_angle_gamma                90
_cell_volume                     7296.1
loop_
_atom_site_label
_atom_site_type_symbol
_atom_site_fract_x
_atom_site_fract_y
_atom_site_fract_z
Mn1 Mn 0.077275(11) 0.57313(6) 0.46154(2)
N1 N 0.05476(6) 0.6951(3) 0.50377(13)
N2 N 0.07181(7) 0.7664(4) 0.56267(13)
C1 C 0.05031(8) 0.8248(5) 0.58263(18)
H1 H 0.0557 0.8800 0.6223
C2 C 0.01908(8) 0.7926(5) 0.53671(16)
H2 H -0.0006 0.8211 0.5385
C3 C 0.02263(8) 0.7091(4) 0.48702(16)
C4 C -0.00171(8) 0.6514(4) 0.42486(16)
C5 C -0.03448(8) 0.6990(5) 0.40492(18)
H3 H -0.0403 0.7619 0.4333
C6 C -0.05827(9) 0.6568(5) 0.34531(19)
H4 H -0.0802 0.6885 0.3332
C7 C -0.04977(8) 0.5679(5) 0.30344(18)
H5 H -0.0659 0.5402 0.2620
C8 C -0.01760(8) 0.5188(4) 0.32185(17)
H6 H -0.0121 0.4587 0.2925
C9 C 0.00666(8) 0.5560(4) 0.38258(16)
O1 O 0.03705(5) 0.4929(3) 0.39866(11)
Mn2 Mn 0.156965(11) 0.62845(6) 0.51596(2)
N3 N 0.13300(6) 0.4903(3) 0.43787(12)
N4 N 0.10033(6) 0.4592(3) 0.41582(13)
C10 C 0.09066(8) 0.3669(4) 0.36161(16)
H7 H 0.0691 0.3272 0.3364
C11 C 0.11660(8) 0.3379(4) 0.34772(16)
H8 H 0.1163 0.2763 0.3123
C12 C 0.14324(7) 0.4189(4) 0.39711(15)
C13 C 0.17773(7) 0.4265(4) 0.41007(15)
C14 C 0.18730(8) 0.3420(4) 0.36767(16)
H9 H 0.1715 0.2830 0.3315
C15 C 0.21937(8) 0.3433(5) 0.37773(17)
H10 H 0.2255 0.2877 0.3484
C16 C 0.24242(8) 0.4270(5) 0.43121(18)
H11 H 0.2645 0.4274 0.4386
C17 C 0.23390(8) 0.5098(4) 0.47394(17)
H12 H 0.2501 0.5657 0.5105
C18 C 0.20123(7) 0.5120(4) 0.46368(15)
O2 O 0.19501(5) 0.5953(3) 0.50815(11)
Mn3 Mn 0.119440(12) 0.79872(7) 0.59456(2)
N5 N 0.16669(6) 0.8265(3) 0.63034(12)
N6 N 0.18304(6) 0.7612(3) 0.59794(13)
C19 C 0.21469(8) 0.7926(4) 0.63385(16)
H13 H 0.2315 0.7608 0.6227
C20 C 0.21956(8) 0.8782(4) 0.68962(16)
H14 H 0.2396 0.9146 0.7231
C21 C 0.18827(8) 0.8993(4) 0.68566(16)
C22 C 0.17752(8) 0.9829(4) 0.72987(16)
C23 C 0.20017(9) 1.0687(4) 0.78477(17)
H15 H 0.2222 1.0740 0.7923
C24 C 0.19135(9) 1.1455(5) 0.82809(17)
H16 H 0.2071 1.2032 0.8647
C25 C 0.15924(9) 1.1377(4) 0.81782(17)
H17 H 0.1531 1.1882 0.8478
C26 C 0.13618(9) 1.0562(4) 0.76370(16)
H18 H 0.1142 1.0521 0.7570
C27 C 0.14457(8) 0.9794(4) 0.71850(16)
O3 O 0.12072(5) 0.9051(3) 0.66710(11)
O4 O 0.11795(5) 0.6615(3) 0.52460(10)
N7 N 0.08269(9) 0.3137(5) 0.5203(2)
N8 N 0.11259(9) 0.0567(4) 0.53525(17)
N9 N 0.09720(6) 0.1840(4) 0.52730(13)
O5 O 0.07344(6) 0.8352(3) 0.40239(11)
H19 H 0.0651 0.9292 0.4079
C28 C 0.07016(10) 0.8315(5) 0.33914(18)
H20 H 0.0694 0.9537 0.3239
H21 H 0.0501 0.7694 0.3115
H22 H 0.0887 0.7690 0.3386
O6 O 0.14451(5) 0.8815(3) 0.46007(11)
H23 H 0.1281 0.9267 0.4615
C29 C 0.16797(10) 1.0164(5) 0.4701(2)
H24 H 0.1578 1.1156 0.4410
H25 H 0.1856 0.9675 0.4623
H26 H 0.1767 1.0590 0.5139
O7 O 0.16676(5) 0.3783(3) 0.58120(11)
H27 H 0.1575 0.2914 0.5577
C30 C 0.19909(9) 0.3285(5) 0.6247(2)
H28 H 0.2001 0.1994 0.6312
H29 H 0.2052 0.3889 0.6653
H30 H 0.2141 0.3632 0.6075
O8 O 0.13017(5) 0.5127(3) 0.64224(11)
H31 H 0.1129 0.4532 0.6265
C31 C 0.14475(11) 0.4961(5) 0.70897(19)
H32 H 0.1503 0.3712 0.7207
H33 H 0.1295 0.5368 0.7250
H34 H 0.1645 0.5689 0.7274
Mn3_2 Mn 0.119440(12) -0.20128(7) 0.59456(2)
N8_2 N 0.11259(9) 1.0567(4) 0.53525(17)
O9 O 0.03120(7) 1.1048(4) 0.38492(18)
H35 H 0.0320 1.2153 0.3907
C32 C 0.00061(10) 1.0579(5) 0.3368(2)
H36 H -0.0163 1.1190 0.3439
H37 H -0.0024 0.9289 0.3375
H38 H -0.0008 1.0930 0.2956
loop_
_geom_bond_atom_site_label_1
_geom_bond_atom_site_label_2
_geom_bond_site_symmetry_1
_geom_bond_site_symmetry_2
Mn1 N1 1_555 1_555
N1 N2 1_555 1_555
N2 C1 1_555 1_555
C1 H1 1_555 1_555
C2 C1 1_555 1_555
H2 C2 1_555 1_555
C3 N1 1_555 1_555
C4 C3 1_555 1_555
C5 C4 1_555 1_555
H3 C5 1_555 1_555
C6 C5 1_555 1_555
H4 C6 1_555 1_555
C7 C6 1_555 1_555
H5 C7 1_555 1_555
C8 C7 1_555 1_555
H6 C8 1_555 1_555
C9 C4 1_555 1_555
O1 Mn1 1_555 1_555
Mn2 N3 1_555 1_555
N3 N4 1_555 1_555
N4 Mn1 1_555 1_555
C10 N4 1_555 1_555
H7 C10 1_555 1_555
C11 C10 1_555 1_555
H8 C11 1_555 1_555
C12 N3 1_555 1_555
C13 C12 1_555 1_555
C14 C13 1_555 1_555
H9 C14 1_555 1_555
C15 C14 1_555 1_555
H10 C15 1_555 1_555
C16 C15 1_555 1_555
H11 C16 1_555 1_555
C17 C16 1_555 1_555
H12 C17 1_555 1_555
C18 C13 1_555 1_555
O2 Mn2 1_555 1_555
Mn3 N2 1_555 1_555
N5 Mn3 1_555 1_555
N6 Mn2 1_555 1_555
C19 N6 1_555 1_555
H13 C19 1_555 1_555
C20 C19 1_555 1_555
H14 C20 1_555 1_555
C21 N5 1_555 1_555
C22 C21 1_555 1_555
C23 C22 1_555 1_555
H15 C23 1_555 1_555
C24 C23 1_555 1_555
H16 C24 1_555 1_555
C25 C24 1_555 1_555
H17 C25 1_555 1_555
C26 C25 1_555 1_555
H18 C26 1_555 1_555
C27 C22 1_555 1_555
O3 Mn3 1_555 1_555
O4 Mn1 1_555 1_555
N7 Mn1 1_555 1_555
N8 N9 1_555 1_555
N9 N7 1_555 1_555
O5 Mn1 1_555 1_555
H19 O5 1_555 1_555
C28 O5 1_555 1_555
H20 C28 1_555 1_555
H21 C28 1_555 1_555
H22 C28 1_555 1_555
O6 Mn2 1_555 1_555
H23 O6 1_555 1_555
C29 O6 1_555 1_555
H24 C29 1_555 1_555
H25 C29 1_555 1_555
H26 C29 1_555 1_555
O7 Mn2 1_555 1_555
H27 O7 1_555 1_555
C30 O7 1_555 1_555
H28 C30 1_555 1_555
H29 C30 1_555 1_555
H30 C30 1_555 1_555
O8 Mn3 1_555 1_555
H31 O8 1_555 1_555
C31 O8 1_555 1_555
H32 C31 1_555 1_555
H33 C31 1_555 1_555
H34 C31 1_555 1_555
O9 H35 1_555 1_555
C32 O9 1_555 1_555
H36 C32 1_555 1_555
H37 C32 1_555 1_555
H38 C32 1_555 1_555
Mn3_2 N8 1_555 1_555
N8_2 Mn3 1_555 1_555
C2 C3 1_555 1_555
C8 C9 1_555 1_555
C9 O1 1_555 1_555
Mn2 O4 1_555 1_555
C11 C12 1_555 1_555
C17 C18 1_555 1_555
C18 O2 1_555 1_555
Mn3 O4 1_555 1_555
N5 N6 1_555 1_555
C20 C21 1_555 1_555
C26 C27 1_555 1_555
C27 O3 1_555 1_555

#END
