
#######################################################################
#
#                 Cambridge Crystallographic Data Centre
#                                CCDC 
#
#######################################################################
#
# If this CIF has been generated from an entry in the Cambridge 
# Structural Database, then it will include bibliographic, chemical, 
# crystal, experimental, refinement or atomic coordinate data resulting 
# from the CCDC's data processing and validation procedures.
#
#######################################################################

data_LOFJUM
_symmetry_cell_setting           monoclinic
_symmetry_space_group_name_H-M   'P 21/n'
_symmetry_Int_Tables_number      14
_space_group_name_Hall           '-P 2yn'
loop_
_symmetry_equiv_pos_site_id
_symmetry_equiv_pos_as_xyz
1 x,y,z
2 1/2-x,1/2+y,1/2-z
3 -x,-y,-z
4 1/2+x,1/2-y,1/2+z
_cell_length_a                   7.0693(19)
_cell_length_b                   12.385(3)
_cell_length_c                   13.337(4)
_cell_angle_alpha                90
_cell_angle_beta                 101.550(5)
_cell_angle_gamma                90
_cell_volume                     1144.05
loop_
_atom_site_label
_atom_site_type_symbol
_atom_site_fract_x
_atom_site_fract_y
_atom_site_fract_z
Cd1 Cd 0.21485(5) 0.38585(2) 0.48455(3)
Cd2 Cd 0.37457(5) 0.38715(3) 0.79905(3)
S1 S 0.49233(15) 0.46206(9) 0.63386(9)
S2 S -0.09092(15) 0.36402(9) 0.24608(9)
O1 O -0.1667(5) 0.2622(3) 0.1976(3)
N1 N 0.9753(5) 0.3620(3) 0.5745(3)
O2 O 0.0830(6) 0.3933(3) 0.2084(4)
N2 N 0.8329(5) 0.4392(3) 0.5764(3)
C1 C 0.9185(6) 0.2729(4) 0.6118(3)
H1 H 0.9870 0.2083 0.6195
O3 O -0.0463(6) 0.3447(4) 0.3565(3)
C2 C 0.6943(6) 0.3927(3) 0.6157(3)
N3 N 0.7449(6) 0.2888(3) 0.6376(3)
H2 H 0.6790 0.2415 0.6633
O4 O -0.2345(5) 0.4477(3) 0.2201(3)
S3 S 0.13291(16) 0.08884(10) 0.45407(9)
N4 N 0.5983(5) 0.1638(3) 0.3575(3)
N5 N 0.4565(6) 0.0957(3) 0.3746(3)
H3 H 0.4507 0.0279 0.3602
N6 N 0.3839(5) 0.2534(3) 0.4277(3)
C3 C 0.3281(6) 0.1488(4) 0.4167(3)
C4 C 0.5473(6) 0.2567(4) 0.3908(3)
H4 H 0.6182 0.3197 0.3891
Cd1_2 Cd 1.21485(5) 0.38585(2) 0.48455(3)
Cd1B Cd 0.78515(5) 0.61415(2) 0.51545(3)
Cd2C Cd -0.12543(5) 0.11285(3) 0.29905(3)
Cd2B Cd -0.37457(5) 0.61285(3) 0.20095(3)
Cd2C_2 Cd 0.87457(5) 0.11285(3) 0.29905(3)
O1C O 0.3333(5) 0.2378(3) 0.6976(3)
N1_2 N -0.0247(5) 0.3620(3) 0.5745(3)
N2B N 0.1671(5) 0.5608(3) 0.4236(3)
O4B O 0.2345(5) 0.5523(3) 0.7799(3)
S3C S 0.63291(16) 0.41116(10) 0.95407(9)
N4C N 0.0983(5) 0.3362(3) 0.8575(3)
loop_
_geom_bond_atom_site_label_1
_geom_bond_atom_site_label_2
_geom_bond_site_symmetry_1
_geom_bond_site_symmetry_2
Cd1 S1 1_555 1_555
Cd2 S1 1_555 1_555
S1 C2 1_555 1_555
S2 O1 1_555 1_555
O1 Cd2C 1_555 1_555
N1 N2 1_555 1_555
O2 S2 1_555 1_555
N2 C2 1_555 1_555
C1 N1 1_555 1_555
H1 C1 1_555 1_555
O3 Cd1 1_555 1_555
C2 N3 1_555 1_555
N3 C1 1_555 1_555
H2 N3 1_555 1_555
O4 S2 1_555 1_555
S3 C3 1_555 1_555
N4 N5 1_555 1_555
N5 H3 1_555 1_555
N6 Cd1 1_555 1_555
C3 N5 1_555 1_555
C4 N4 1_555 1_555
H4 C4 1_555 1_555
Cd1_2 N1 1_555 1_555
Cd1B N2 1_555 1_555
Cd2C S3 1_555 1_555
Cd2B O4 1_555 1_555
Cd2C_2 N4 1_555 1_555
O1C Cd2 1_555 1_555
N1_2 Cd1 1_555 1_555
N2B Cd1 1_555 1_555
O4B Cd2 1_555 1_555
S3C Cd2 1_555 1_555
N4C Cd2 1_555 1_555
S2 O3 1_555 1_555
N6 C3 1_555 1_555
N6 C4 1_555 1_555

#END
