
#######################################################################
#
#                 Cambridge Crystallographic Data Centre
#                                CCDC 
#
#######################################################################
#
# If this CIF has been generated from an entry in the Cambridge 
# Structural Database, then it will include bibliographic, chemical, 
# crystal, experimental, refinement or atomic coordinate data resulting 
# from the CCDC's data processing and validation procedures.
#
#######################################################################

data_LOFKIC
_symmetry_cell_setting           triclinic
_symmetry_space_group_name_H-M   'P -1'
_symmetry_Int_Tables_number      2
_space_group_name_Hall           '-P 1'
loop_
_symmetry_equiv_pos_site_id
_symmetry_equiv_pos_as_xyz
1 x,y,z
2 -x,-y,-z
_cell_length_a                   11.948(4)
_cell_length_b                   12.066(4)
_cell_length_c                   12.125(4)
_cell_angle_alpha                65.200(4)
_cell_angle_beta                 72.767(4)
_cell_angle_gamma                69.079(4)
_cell_volume                     1459.9
loop_
_atom_site_label
_atom_site_type_symbol
_atom_site_fract_x
_atom_site_fract_y
_atom_site_fract_z
C25 C 0.0000 0.5000 1.0000
O6 O -0.0392(8) 0.4479(8) 0.9604(13)
O7 O 0.0443(7) 0.5438(14) 0.9028(7)
O6A O 0.0392(8) 0.5521(8) 1.0396(13)
O7A O -0.0443(7) 0.4562(14) 1.0972(7)
Na1 Na 0.66169(16) 0.94155(16) 0.50869(15)
O1 O 1.2210(3) 0.0521(3) 0.9236(2)
O2 O 0.5558(3) 0.3825(3) 1.2196(3)
O3 O 0.8537(3) 0.7501(3) 0.5344(3)
O4 O 0.5038(3) 0.8439(3) 0.5559(4)
O5 O 0.6684(4) 0.9809(3) 0.3035(3)
N1 N 0.8106(3) 0.3184(3) 0.8285(3)
N2 N 0.7227(3) 0.3602(3) 1.0716(3)
H1 H 0.7874 0.3844 1.0310
N3 N 0.8552(3) 0.5712(3) 0.7035(3)
H2 H 0.8864 0.5227 0.7689
N4 N 1.0549(3) 0.2174(3) 0.8837(3)
H3 H 1.0104 0.2855 0.8978
N5 N 0.9762(3) 0.6924(3) 0.6755(3)
H4 H 0.9862 0.6437 0.7498
N6 N 0.7060(3) 0.4760(3) 1.1857(3)
H5 H 0.7788 0.4778 1.1471
N7 N 1.1726(3) 0.2048(3) 1.0073(3)
H6 H 1.1200 0.2743 1.0110
N8 N 0.5671(5) 0.6993(4) 1.4074(4)
N9 N 1.4402(4) 0.0825(4) 1.2218(4)
N10 N 1.2045(3) 0.9345(3) 0.5112(4)
C1 C 0.6900(4) 0.3162(4) 0.9050(4)
H7 H 0.6586 0.2601 0.8912
H8 H 0.6353 0.4007 0.8792
C2 C 0.6540(4) 0.4042(4) 1.1625(4)
C3 C 1.0463(4) 0.7783(4) 0.6158(4)
C4 C 0.8926(4) 0.6757(4) 0.6301(4)
C5 C 1.2663(4) 0.1600(4) 1.0734(4)
C6 C 1.1543(4) 0.1510(4) 0.9365(4)
C7 C 1.0715(4) 0.8376(4) 0.4895(4)
H9 H 1.0367 0.8270 0.4367
C8 C 0.8846(4) 0.1894(4) 0.8378(4)
H10 H 0.8621 0.1631 0.7838
H11 H 0.8671 0.1323 0.9217
C9 C 0.6552(4) 0.5459(4) 1.2638(4)
C10 C 0.8013(4) 0.3968(4) 0.6993(4)
H12 H 0.7421 0.3774 0.6750
H13 H 0.8793 0.3757 0.6479
C11 C 1.3400(4) 0.0380(4) 1.1065(4)
H14 H 1.3333 -0.0211 1.0801
C12 C 1.0199(4) 0.1784(5) 0.8036(4)
H15 H 1.0650 0.0914 0.8120
H16 H 1.0390 0.2316 0.7184
C13 C 0.6905(5) 0.2734(4) 1.0404(4)
H17 H 0.6104 0.2648 1.0859
H18 H 0.7479 0.1906 1.0657
C14 C 0.5350(4) 0.5727(4) 1.3179(4)
H19 H 0.4807 0.5405 1.3069
C15 C 1.0980(4) 0.8021(4) 0.6887(4)
H20 H 1.0804 0.7671 0.7742
C16 C 1.2854(4) 0.2434(4) 1.1135(4)
H21 H 1.2398 0.3277 1.0913
C17 C 0.7311(5) 0.5960(4) 1.2862(4)
H22 H 0.8136 0.5784 1.2534
C18 C 0.6838(6) 0.6710(5) 1.3565(4)
H23 H 0.7360 0.7042 1.3696
C19 C 1.4234(5) 0.0055(5) 1.1792(5)
H24 H 1.4725 -0.0774 1.2005
C20 C 0.4962(5) 0.6481(5) 1.3885(5)
H25 H 0.4148 0.6642 1.4254
C21 C 1.3713(5) 0.2006(5) 1.1855(4)
H26 H 1.3824 0.2583 1.2108
C22 C 1.1500(4) 0.9133(4) 0.4448(4)
H27 H 1.1660 0.9532 0.3597
C23 C 1.1758(4) 0.8786(4) 0.6325(5)
H28 H 1.2109 0.8923 0.6830
C24 C 0.7640(4) 0.5372(4) 0.6766(5)
H29 H 0.7542 0.5847 0.5912
H30 H 0.6866 0.5589 0.7284
H31 H 0.721(5) 0.961(5) 0.231(5)
H32 H 0.609(4) 1.009(4) 0.287(4)
H33 H 0.519(7) 0.802(7) 0.497(7)
H34 H 0.484(5) 0.804(5) 0.610(5)
Na1A Na 0.33831(16) 1.05845(16) 0.49131(15)
Na1A_2 Na 1.33831(16) 1.05845(16) 0.49131(15)
O4A O 0.4962(3) 1.1561(3) 0.4441(4)
N10A N 0.7955(3) 1.0655(3) 0.4888(4)
loop_
_geom_bond_atom_site_label_1
_geom_bond_atom_site_label_2
_geom_bond_site_symmetry_1
_geom_bond_site_symmetry_2
Na1 O3 1_555 1_555
O1 C6 1_555 1_555
O2 C2 1_555 1_555
O3 C4 1_555 1_555
O4 Na1 1_555 1_555
O5 Na1 1_555 1_555
N1 C1 1_555 1_555
N2 H1 1_555 1_555
N3 H2 1_555 1_555
N4 H3 1_555 1_555
N5 H4 1_555 1_555
N6 H5 1_555 1_555
N7 H6 1_555 1_555
N8 C18 1_555 1_555
N9 C19 1_555 1_555
N10 C22 1_555 1_555
C1 H7 1_555 1_555
H8 C1 1_555 1_555
C2 N2 1_555 1_555
C3 N5 1_555 1_555
C4 N3 1_555 1_555
C5 N7 1_555 1_555
C6 N4 1_555 1_555
C7 C3 1_555 1_555
H9 C7 1_555 1_555
C8 N1 1_555 1_555
H10 C8 1_555 1_555
H11 C8 1_555 1_555
C9 N6 1_555 1_555
C10 N1 1_555 1_555
H12 C10 1_555 1_555
H13 C10 1_555 1_555
C11 C5 1_555 1_555
H14 C11 1_555 1_555
C12 N4 1_555 1_555
H15 C12 1_555 1_555
H16 C12 1_555 1_555
C13 N2 1_555 1_555
H17 C13 1_555 1_555
H18 C13 1_555 1_555
C14 C9 1_555 1_555
H19 C14 1_555 1_555
C15 C3 1_555 1_555
H20 C15 1_555 1_555
C16 C5 1_555 1_555
H21 C16 1_555 1_555
C17 C9 1_555 1_555
H22 C17 1_555 1_555
C18 C17 1_555 1_555
H23 C18 1_555 1_555
C19 C11 1_555 1_555
H24 C19 1_555 1_555
C20 N8 1_555 1_555
H25 C20 1_555 1_555
C21 N9 1_555 1_555
H26 C21 1_555 1_555
C22 C7 1_555 1_555
H27 C22 1_555 1_555
C23 N10 1_555 1_555
H28 C23 1_555 1_555
C24 N3 1_555 1_555
H29 C24 1_555 1_555
H30 C24 1_555 1_555
H31 O5 1_555 1_555
H32 O5 1_555 1_555
H33 O4 1_555 1_555
H34 O4 1_555 1_555
C25 O6 1_555 1_555
O6 O7 1_555 1_555
O7 C25 1_555 1_555
Na1A O4 1_555 1_555
Na1A_2 N10 1_555 1_555
O4A Na1 1_555 1_555
N10A Na1 1_555 1_555
O6A C25 1_555 1_555
O7A C25 1_555 1_555
N5 C4 1_555 1_555
N6 C2 1_555 1_555
N7 C6 1_555 1_555
C1 C13 1_555 1_555
C8 C12 1_555 1_555
C10 C24 1_555 1_555
C14 C20 1_555 1_555
C15 C23 1_555 1_555
C16 C21 1_555 1_555
O6 O7A 1_555 1_555
O7 O6A 1_555 1_555
Na1A O4A 1_555 1_555
O6A O7A 1_555 1_555

#END
