
#######################################################################
#
#                 Cambridge Crystallographic Data Centre
#                                CCDC 
#
#######################################################################
#
# If this CIF has been generated from an entry in the Cambridge 
# Structural Database, then it will include bibliographic, chemical, 
# crystal, experimental, refinement or atomic coordinate data resulting 
# from the CCDC's data processing and validation procedures.
#
#######################################################################

data_LOGSEH
_symmetry_cell_setting           monoclinic
_symmetry_space_group_name_H-M   'P 21/c'
_symmetry_Int_Tables_number      14
_space_group_name_Hall           '-P 2ybc'
loop_
_symmetry_equiv_pos_site_id
_symmetry_equiv_pos_as_xyz
1 x,y,z
2 -x,1/2+y,1/2-z
3 -x,-y,-z
4 x,1/2-y,1/2+z
_cell_length_a                   13.392(6)
_cell_length_b                   19.149(9)
_cell_length_c                   11.433(5)
_cell_angle_alpha                90
_cell_angle_beta                 98.441(8)
_cell_angle_gamma                90
_cell_volume                     2900.16
loop_
_atom_site_label
_atom_site_type_symbol
_atom_site_fract_x
_atom_site_fract_y
_atom_site_fract_z
Co1 Co 0.5000 0.0000 0.0000
O1 O 0.63715(19) -0.01828(16) -0.0564(2)
N1 N 0.4751(2) 0.07044(19) -0.1404(3)
C1 C 0.4213(3) 0.1312(2) -0.1464(4)
H1 H 0.3769 0.1437 -0.0946
Co2 Co 0.75919(4) -0.00261(4) 0.05737(5)
O2 O 0.5649(2) 0.07916(16) 0.1156(3)
C2 C 0.4414(4) 0.1709(3) -0.2381(4)
N2 N 0.9808(3) -0.0177(2) -0.1818(3)
Co3 Co 1.0000 0.0000 0.0000
O3 O 0.7208(2) 0.04975(19) 0.1909(3)
N3 N 0.5125(3) 0.1323(2) -0.2907(3)
C3 C 0.4139(5) 0.2375(3) -0.2835(5)
H2 H 0.3662 0.2634 -0.2508
O4 O 0.85522(18) 0.04011(17) -0.0330(2)
C4 C 0.4558(5) 0.2643(4) -0.3738(6)
H3 H 0.4376 0.3085 -0.4032
N4 N 0.9077(4) -0.0104(3) -0.3662(4)
O5 O 1.0550(2) 0.10202(18) -0.0226(3)
C5 C 0.5279(5) 0.2243(4) -0.4234(6)
H4 H 0.5558 0.2426 -0.4867
C6 C 0.5572(4) 0.1610(3) -0.3822(4)
H5 H 0.6068 0.1365 -0.4142
O6 O 1.1847(2) 0.09085(19) -0.1221(3)
C7 C 0.5301(3) 0.0714(2) -0.2295(3)
C8 C 0.5916(3) 0.0133(2) -0.2591(4)
C9 C 0.5961(4) -0.0039(3) -0.3778(4)
H6 H 0.5616 0.0237 -0.4373
C10 C 0.6498(4) -0.0602(3) -0.4087(5)
H7 H 0.6498 -0.0715 -0.4878
C11 C 0.7031(4) -0.0992(3) -0.3219(5)
H8 H 0.7417 -0.1365 -0.3423
C12 C 0.7012(3) -0.0846(3) -0.2032(4)
H9 H 0.7388 -0.1117 -0.1452
C13 C 0.6435(3) -0.0299(2) -0.1711(4)
C14 C 1.0081(4) -0.0742(3) -0.2405(4)
H10 H 1.0508 -0.1094 -0.2070
C15 C 0.9639(4) -0.0723(4) -0.3560(5)
C16 C 0.9625(4) -0.1156(4) -0.4562(4)
H11 H 0.9996 -0.1568 -0.4511
C17 C 0.9073(4) -0.0969(4) -0.5585(5)
H12 H 0.9060 -0.1253 -0.6246
C18 C 0.8522(4) -0.0355(4) -0.5666(5)
H13 H 0.8151 -0.0235 -0.6391
C19 C 0.8497(4) 0.0075(4) -0.4745(5)
H14 H 0.8109 0.0480 -0.4821
C20 C 0.9184(3) 0.0227(3) -0.2572(4)
C21 C 0.8691(4) 0.0845(3) -0.2260(5)
C22 C 0.8548(4) 0.1425(3) -0.3029(5)
H15 H 0.8793 0.1409 -0.3749
C23 C 0.8058(4) 0.2006(3) -0.2731(5)
H16 H 0.7982 0.2387 -0.3242
C24 C 0.7680(4) 0.2035(3) -0.1702(5)
H17 H 0.7318 0.2426 -0.1526
C25 C 0.7826(4) 0.1484(3) -0.0899(5)
H18 H 0.7561 0.1510 -0.0192
C26 C 0.8363(4) 0.0899(3) -0.1150(5)
C27 C 0.6369(3) 0.0790(3) 0.1956(4)
C28 C 0.6271(4) 0.1145(3) 0.3109(5)
H19 H 0.6029 0.1613 0.2958
H20 H 0.6918 0.1157 0.3597
H21 H 0.5804 0.0890 0.3508
C29 C 1.1157(3) 0.1258(3) -0.0838(5)
C30 C 1.1079(5) 0.2007(3) -0.1176(7)
H22 H 1.0383 0.2126 -0.1418
H23 H 1.1452 0.2089 -0.1819
H24 H 1.1351 0.2289 -0.0512
O1B O 0.36285(19) 0.01828(16) 0.0564(2)
N1B N 0.5249(2) -0.07044(19) 0.1404(3)
C1B C 0.5787(3) -0.1312(2) 0.1464(4)
H1B H 0.6231 -0.1437 0.0946
Co2B Co 0.24081(4) 0.00261(4) -0.05737(5)
O2B O 0.4351(2) -0.07916(16) -0.1156(3)
C2B C 0.5586(4) -0.1709(3) 0.2381(4)
N2B N 0.0192(3) 0.0177(2) 0.1818(3)
O3B O 0.2792(2) -0.04975(19) -0.1909(3)
N3B N 0.4875(3) -0.1323(2) 0.2907(3)
C3B C 0.5861(5) -0.2375(3) 0.2835(5)
H2B H 0.6338 -0.2634 0.2508
O4B O 0.14478(18) -0.04011(17) 0.0330(2)
C4B C 0.5442(5) -0.2643(4) 0.3738(6)
H3B H 0.5624 -0.3085 0.4032
N4B N 0.0923(4) 0.0104(3) 0.3662(4)
C5B C 0.4721(5) -0.2243(4) 0.4234(6)
H4B H 0.4442 -0.2426 0.4867
C6B C 0.4428(4) -0.1610(3) 0.3822(4)
H5B H 0.3932 -0.1365 0.4142
C7B C 0.4699(3) -0.0714(2) 0.2295(3)
C8B C 0.4084(3) -0.0133(2) 0.2591(4)
C9B C 0.4039(4) 0.0039(3) 0.3778(4)
H6B H 0.4384 -0.0237 0.4373
C10B C 0.3502(4) 0.0602(3) 0.4087(5)
H7B H 0.3502 0.0715 0.4878
C11B C 0.2969(4) 0.0992(3) 0.3219(5)
H8B H 0.2583 0.1365 0.3423
C12B C 0.2988(3) 0.0846(3) 0.2032(4)
H9B H 0.2612 0.1117 0.1452
C13B C 0.3565(3) 0.0299(2) 0.1711(4)
C14B C -0.0081(4) 0.0742(3) 0.2405(4)
H10B H -0.0508 0.1094 0.2070
C15B C 0.0361(4) 0.0723(4) 0.3560(5)
C16B C 0.0375(4) 0.1156(4) 0.4562(4)
H11B H 0.0004 0.1568 0.4511
C17B C 0.0927(4) 0.0969(4) 0.5585(5)
H12B H 0.0940 0.1253 0.6246
C18B C 0.1478(4) 0.0355(4) 0.5666(5)
H13B H 0.1849 0.0235 0.6391
C19B C 0.1503(4) -0.0075(4) 0.4745(5)
H14B H 0.1891 -0.0480 0.4821
C20B C 0.0816(3) -0.0227(3) 0.2572(4)
C21B C 0.1309(4) -0.0845(3) 0.2260(5)
C22B C 0.1452(4) -0.1425(3) 0.3029(5)
H15B H 0.1207 -0.1409 0.3749
C23B C 0.1942(4) -0.2006(3) 0.2731(5)
H16B H 0.2018 -0.2387 0.3242
C24B C 0.2320(4) -0.2035(3) 0.1702(5)
H17B H 0.2682 -0.2426 0.1526
C25B C 0.2174(4) -0.1484(3) 0.0899(5)
H18B H 0.2439 -0.1510 0.0192
C26B C 0.1637(4) -0.0899(3) 0.1150(5)
C27B C 0.3631(3) -0.0790(3) -0.1956(4)
C28B C 0.3729(4) -0.1145(3) -0.3109(5)
H19B H 0.3971 -0.1613 -0.2958
H20B H 0.3082 -0.1157 -0.3597
H21B H 0.4196 -0.0890 -0.3508
O5B O 0.9450(2) -0.10202(18) 0.0226(3)
O6B O 0.8153(2) -0.09085(19) 0.1221(3)
C29B C 0.8843(3) -0.1258(3) 0.0838(5)
C30B C 0.8921(5) -0.2007(3) 0.1176(7)
H22B H 0.9617 -0.2126 0.1418
H23B H 0.8548 -0.2089 0.1819
H24B H 0.8649 -0.2289 0.0512
Co2B_2 Co 1.24081(4) 0.00261(4) -0.05737(5)
N2B_2 N 1.0192(3) 0.0177(2) 0.1818(3)
Co3_2 Co 0.0000 0.0000 0.0000
O4B_2 O 1.14478(18) -0.04011(17) 0.0330(2)
O6_2 O 0.1847(2) 0.09085(19) -0.1221(3)
loop_
_geom_bond_atom_site_label_1
_geom_bond_atom_site_label_2
_geom_bond_site_symmetry_1
_geom_bond_site_symmetry_2
Co1 O1 1_555 1_555
O1 Co2 1_555 1_555
N1 Co1 1_555 1_555
C1 N1 1_555 1_555
H1 C1 1_555 1_555
Co2 O3 1_555 1_555
O2 Co1 1_555 1_555
C2 C1 1_555 1_555
N2 Co3 1_555 1_555
Co3 O4 1_555 1_555
O3 C27 1_555 1_555
N3 C2 1_555 1_555
C3 C2 1_555 1_555
H2 C3 1_555 1_555
O4 Co2 1_555 1_555
C4 C3 1_555 1_555
H3 C4 1_555 1_555
N4 C15 1_555 1_555
O5 Co3 1_555 1_555
C5 C4 1_555 1_555
H4 C5 1_555 1_555
C6 N3 1_555 1_555
H5 C6 1_555 1_555
O6 C29 1_555 1_555
C7 N1 1_555 1_555
C8 C7 1_555 1_555
C9 C8 1_555 1_555
H6 C9 1_555 1_555
C10 C9 1_555 1_555
H7 C10 1_555 1_555
C11 C10 1_555 1_555
H8 C11 1_555 1_555
C12 C11 1_555 1_555
H9 C12 1_555 1_555
C13 O1 1_555 1_555
C14 N2 1_555 1_555
H10 C14 1_555 1_555
C15 C14 1_555 1_555
C16 C15 1_555 1_555
H11 C16 1_555 1_555
C17 C16 1_555 1_555
H12 C17 1_555 1_555
C18 C17 1_555 1_555
H13 C18 1_555 1_555
C19 N4 1_555 1_555
H14 C19 1_555 1_555
C20 N2 1_555 1_555
C21 C20 1_555 1_555
C22 C21 1_555 1_555
H15 C22 1_555 1_555
C23 C22 1_555 1_555
H16 C23 1_555 1_555
C24 C23 1_555 1_555
H17 C24 1_555 1_555
C25 C24 1_555 1_555
H18 C25 1_555 1_555
C26 O4 1_555 1_555
C27 O2 1_555 1_555
C28 C27 1_555 1_555
H19 C28 1_555 1_555
H20 C28 1_555 1_555
H21 C28 1_555 1_555
C29 O5 1_555 1_555
C30 C29 1_555 1_555
H22 C30 1_555 1_555
H23 C30 1_555 1_555
H24 C30 1_555 1_555
O1B Co1 1_555 1_555
N1B Co1 1_555 1_555
C1B N1B 1_555 1_555
H1B C1B 1_555 1_555
Co2B O1B 1_555 1_555
O2B Co1 1_555 1_555
C2B C1B 1_555 1_555
N2B C14B 1_555 1_555
O3B Co2B 1_555 1_555
N3B C2B 1_555 1_555
C3B C2B 1_555 1_555
H2B C3B 1_555 1_555
O4B Co2B 1_555 1_555
C4B C3B 1_555 1_555
H3B C4B 1_555 1_555
N4B C15B 1_555 1_555
C5B C4B 1_555 1_555
H4B C5B 1_555 1_555
C6B N3B 1_555 1_555
H5B C6B 1_555 1_555
C7B N1B 1_555 1_555
C8B C7B 1_555 1_555
C9B C8B 1_555 1_555
H6B C9B 1_555 1_555
C10B C9B 1_555 1_555
H7B C10B 1_555 1_555
C11B C10B 1_555 1_555
H8B C11B 1_555 1_555
C12B C11B 1_555 1_555
H9B C12B 1_555 1_555
C13B O1B 1_555 1_555
C14B H10B 1_555 1_555
C15B C14B 1_555 1_555
C16B C15B 1_555 1_555
H11B C16B 1_555 1_555
C17B C16B 1_555 1_555
H12B C17B 1_555 1_555
C18B C17B 1_555 1_555
H13B C18B 1_555 1_555
C19B N4B 1_555 1_555
H14B C19B 1_555 1_555
C20B N2B 1_555 1_555
C21B C20B 1_555 1_555
C22B C21B 1_555 1_555
H15B C22B 1_555 1_555
C23B C22B 1_555 1_555
H16B C23B 1_555 1_555
C24B C23B 1_555 1_555
H17B C24B 1_555 1_555
C25B C24B 1_555 1_555
H18B C25B 1_555 1_555
C26B O4B 1_555 1_555
C27B O2B 1_555 1_555
C28B C27B 1_555 1_555
H19B C28B 1_555 1_555
H20B C28B 1_555 1_555
H21B C28B 1_555 1_555
O5B Co3 1_555 1_555
O6B Co2 1_555 1_555
C29B O5B 1_555 1_555
C30B C29B 1_555 1_555
H22B C30B 1_555 1_555
H23B C30B 1_555 1_555
H24B C30B 1_555 1_555
Co2B_2 O6 1_555 1_555
N2B_2 Co3 1_555 1_555
Co3_2 N2B 1_555 1_555
O4B_2 Co3 1_555 1_555
O6_2 Co2B 1_555 1_555
N3 C7 1_555 1_555
N4 C20 1_555 1_555
C5 C6 1_555 1_555
C8 C13 1_555 1_555
C12 C13 1_555 1_555
C18 C19 1_555 1_555
C21 C26 1_555 1_555
C25 C26 1_555 1_555
O3B C27B 1_555 1_555
N3B C7B 1_555 1_555
O4B Co3_2 1_555 1_555
N4B C20B 1_555 1_555
C5B C6B 1_555 1_555
C8B C13B 1_555 1_555
C12B C13B 1_555 1_555
C18B C19B 1_555 1_555
C21B C26B 1_555 1_555
C25B C26B 1_555 1_555
O6B C29B 1_555 1_555
Co2B_2 O4B_2 1_555 1_555

#END
