
#######################################################################
#
#                 Cambridge Crystallographic Data Centre
#                                CCDC 
#
#######################################################################
#
# If this CIF has been generated from an entry in the Cambridge 
# Structural Database, then it will include bibliographic, chemical, 
# crystal, experimental, refinement or atomic coordinate data resulting 
# from the CCDC's data processing and validation procedures.
#
#######################################################################

data_LOGXIQ
_symmetry_cell_setting           monoclinic
_symmetry_space_group_name_H-M   'C c'
_symmetry_Int_Tables_number      9
_space_group_name_Hall           'C -2yc'
loop_
_symmetry_equiv_pos_site_id
_symmetry_equiv_pos_as_xyz
1 x,y,z
2 x,-y,1/2+z
3 1/2+x,1/2+y,z
4 1/2+x,1/2-y,1/2+z
_cell_length_a                   34.148(3)
_cell_length_b                   19.8500(8)
_cell_length_c                   33.1567(18)
_cell_angle_alpha                90
_cell_angle_beta                 110.893(9)
_cell_angle_gamma                90
_cell_volume                     20997.1
loop_
_atom_site_label
_atom_site_type_symbol
_atom_site_fract_x
_atom_site_fract_y
_atom_site_fract_z
Ru1 Ru 0.7138(7) 0.2505(6) 0.1773(9)
N1 N 0.6943(15) 0.168(2) 0.2162(14)
Cd1 Cd 0.3407(2) -0.0575(3) -0.00062(18)
Cd2 Cd 0.46382(18) -0.1112(3) 0.02102(16)
Cd3 Cd 0.36177(19) -0.2563(2) -0.02695(19)
Cd4 Cd 0.37415(19) -0.0911(3) -0.10792(15)
Cd5 Cd 0.5836(2) -0.0583(3) -0.1476(2)
Cd6 Cd 0.5636(2) -0.2492(2) 0.04531(18)
Cd7 Cd 0.55021(19) -0.0925(3) -0.04171(15)
Cd8 Cd 0.46053(17) -0.3931(3) 0.02097(15)
Cd9 Cd 0.4618(3) -0.25287(10) -0.0741(2)
Cd10 Cd 0.46036(19) -0.1127(3) -0.17000(15)
Cd11 Cd 0.37378(19) -0.4110(3) -0.10485(16)
Cd12 Cd 0.3612(2) -0.2490(2) -0.19411(18)
Cd13 Cd 0.5826(2) -0.4473(3) 0.08727(17)
Cd14 Cd 0.5622(2) -0.2578(2) -0.12246(19)
Cd15 Cd 0.54979(18) -0.4118(3) -0.04437(15)
Cd16 Cd 0.46396(18) -0.3932(3) -0.17056(17)
Cd17 Cd 0.3408(2) -0.4461(3) -0.23626(17)
Br1 Br 0.2948(5) 0.0212(7) 0.0251(5)
Br2 Br 0.6279(4) -0.5174(5) 0.1508(3)
Br3 Br 0.6264(3) 0.0192(4) -0.1760(3)
Br4 Br 0.2938(4) -0.5222(5) -0.2984(3)
Se1 Se 0.4138(2) -0.1783(3) -0.04647(19)
Se2 Se 0.5097(2) -0.3284(3) -0.0113(2)
Se3 Se 0.5093(2) -0.1776(3) -0.1021(2)
Se4 Se 0.4151(2) -0.3278(3) -0.1368(2)
S1 S 0.4182(7) -0.0402(9) 0.0514(6)
S2 S 0.3176(8) -0.1769(10) 0.0001(10)
S3 S 0.3287(8) -0.0173(11) -0.0779(6)
S4 S 0.5104(6) -0.1907(10) 0.0746(5)
S5 S 0.5015(6) -0.0273(8) -0.0156(6)
S6 S 0.4117(6) -0.3130(9) 0.0391(6)
S7 S 0.4251(7) -0.0315(9) -0.1339(5)
S8 S 0.3209(7) -0.3312(10) -0.0875(7)
S9 S 0.3220(7) -0.1757(11) -0.1585(6)
S10 S 0.6068(6) -0.3243(10) 0.1045(6)
S11 S 0.6016(7) -0.1757(9) 0.0093(6)
S12 S 0.5950(7) -0.0201(9) -0.0720(6)
S13 S 0.5093(7) -0.4645(10) 0.0835(6)
S14 S 0.5092(8) -0.0440(11) -0.1946(6)
S15 S 0.4241(6) -0.4735(8) -0.0416(5)
S16 S 0.4096(7) -0.1920(9) -0.2237(5)
S17 S 0.3283(6) -0.4836(9) -0.1682(5)
S18 S 0.3125(8) -0.3264(9) -0.2549(5)
S19 S 0.5913(8) -0.4868(12) 0.0180(7)
S20 S 0.6006(7) -0.3354(9) -0.0606(5)
S21 S 0.6073(9) -0.1827(10) -0.1488(8)
S22 S 0.4984(7) -0.4744(9) -0.1072(6)
S23 S 0.5085(6) -0.3103(9) -0.1924(5)
S24 S 0.4169(7) -0.4583(9) -0.2340(6)
C1 C 0.5299(14) -0.5314(17) -0.1284(13)
C2 C 0.5097(10) -0.580(2) -0.1589(13)
C3 C 0.5330(15) -0.6267(18) -0.1721(11)
C4 C 0.5766(15) -0.6246(19) -0.1548(14)
C5 C 0.5968(10) -0.576(2) -0.1243(13)
C6 C 0.5734(15) -0.5294(18) -0.1111(11)
C7 C 0.5712(7) 0.0610(9) -0.0860(7)
C8 C 0.5292(6) 0.0747(10) -0.0938(7)
C9 C 0.5142(6) 0.1401(12) -0.1030(8)
C10 C 0.5412(9) 0.1918(9) -0.1044(8)
C11 C 0.5832(9) 0.1781(11) -0.0966(9)
C12 C 0.5982(6) 0.1126(13) -0.0874(8)
C13 C 0.3931(11) 0.0127(16) -0.1819(8)
C14 C 0.3504(11) 0.0003(13) -0.2015(10)
C15 C 0.3271(7) 0.0348(16) -0.2389(10)
C16 C 0.3466(11) 0.0816(15) -0.2567(8)
C17 C 0.3893(11) 0.0940(14) -0.2371(11)
C18 C 0.4125(7) 0.0595(18) -0.1997(11)
C19 C 0.5295(14) 0.0254(16) 0.0229(10)
C20 C 0.5713(14) 0.035(2) 0.0280(12)
C21 C 0.5931(10) 0.090(3) 0.0513(15)
C22 C 0.5731(17) 0.1353(18) 0.0696(12)
C23 C 0.5313(17) 0.1255(19) 0.0645(13)
C24 C 0.5095(10) 0.071(2) 0.0412(14)
C25 C 0.4009(11) -0.5318(14) -0.0248(11)
C26 C 0.4256(9) -0.5679(19) 0.0112(11)
C27 C 0.4087(13) -0.6227(18) 0.0255(10)
C28 C 0.3673(13) -0.6414(15) 0.0038(13)
C29 C 0.3427(9) -0.6053(18) -0.0322(12)
C30 C 0.3595(11) -0.5505(17) -0.0466(9)
C31 C 0.5698(12) -0.5614(16) 0.0069(11)
C32 C 0.5275(12) -0.5709(18) -0.0003(13)
C33 C 0.5085(9) -0.632(2) -0.0158(12)
C34 C 0.5318(15) -0.6842(16) -0.0241(11)
C35 C 0.5741(14) -0.6748(18) -0.0170(12)
C36 C 0.5931(9) -0.613(2) -0.0015(11)
C37 C 0.5081(9) -0.4209(15) 0.1328(8)
C38 C 0.4963(11) -0.4600(11) 0.1613(11)
C39 C 0.4874(11) -0.4296(17) 0.1948(10)
C40 C 0.4903(11) -0.3600(18) 0.1998(9)
C41 C 0.5021(11) -0.3209(11) 0.1712(11)
C42 C 0.5110(10) -0.3513(14) 0.1377(9)
C43 C 0.6565(13) -0.323(2) 0.0946(18)
C44 C 0.690(2) -0.303(2) 0.1309(12)
C45 C 0.7296(15) -0.296(2) 0.1290(16)
C46 C 0.7361(12) -0.309(2) 0.091(2)
C47 C 0.703(2) -0.329(2) 0.0544(15)
C48 C 0.6630(15) -0.3364(18) 0.0563(12)
C49 C 0.2840(9) -0.1313(14) -0.1976(9)
C50 C 0.2522(12) -0.1037(17) -0.1857(9)
C51 C 0.2197(10) -0.0683(17) -0.2158(13)
C52 C 0.2189(10) -0.0606(17) -0.2578(12)
C53 C 0.2506(12) -0.0882(17) -0.2696(8)
C54 C 0.2831(10) -0.1235(15) -0.2395(10)
C55 C 0.625(5) -0.110(4) 0.063(3)
C56 C 0.666(6) -0.107(5) 0.066(4)
C57 C 0.695(2) -0.069(7) 0.098(6)
C58 C 0.682(5) -0.033(4) 0.128(3)
C59 C 0.640(7) -0.036(5) 0.124(4)
C60 C 0.612(2) -0.075(7) 0.092(6)
C61 C 0.6302(15) -0.3957(19) -0.0813(16)
C62 C 0.6153(11) -0.411(2) -0.1251(15)
C63 C 0.6390(15) -0.451(2) -0.1421(10)
C64 C 0.6777(14) -0.4756(18) -0.1153(16)
C65 C 0.6926(12) -0.460(2) -0.0715(15)
C66 C 0.6688(16) -0.420(2) -0.0545(10)
C67 C 0.2871(12) -0.381(2) -0.0744(15)
C68 C 0.2839(14) -0.376(2) -0.0339(13)
C69 C 0.2558(16) -0.417(2) -0.0234(11)
C70 C 0.2308(13) -0.462(2) -0.0535(16)
C71 C 0.2340(13) -0.467(2) -0.0940(14)
C72 C 0.2621(14) -0.427(2) -0.1045(10)
C73 C 0.3832(10) -0.3585(16) 0.0655(9)
C74 C 0.3583(11) -0.3220(12) 0.0829(11)
C75 C 0.3369(11) -0.3549(18) 0.1058(11)
C76 C 0.3405(11) -0.4243(19) 0.1113(11)
C77 C 0.3654(12) -0.4609(12) 0.0939(12)
C78 C 0.3867(10) -0.4280(16) 0.0710(10)
C79 C 0.3800(16) -0.137(2) -0.2709(13)
C80 C 0.3514(16) -0.1679(16) -0.3069(18)
C81 C 0.3331(13) -0.132(2) -0.3450(14)
C82 C 0.3434(15) -0.065(2) -0.3471(12)
C83 C 0.3720(15) -0.0333(16) -0.3112(17)
C84 C 0.3903(13) -0.069(3) -0.2731(13)
C85 C 0.5378(10) -0.1531(16) 0.1211(8)
C86 C 0.5439(12) -0.0838(16) 0.1220(10)
C87 C 0.5662(13) -0.0519(12) 0.1608(14)
C88 C 0.5822(12) -0.0892(19) 0.1986(10)
C89 C 0.5761(11) -0.1585(18) 0.1977(8)
C90 C 0.5539(10) -0.1905(12) 0.1589(10)
C91 C 0.5478(17) -0.362(4) -0.205(2)
C92 C 0.559(2) -0.344(2) -0.240(2)
C93 C 0.584(2) -0.387(4) -0.2536(15)
C94 C 0.5971(16) -0.448(3) -0.233(2)
C95 C 0.585(2) -0.467(2) -0.198(2)
C96 C 0.561(2) -0.424(4) -0.1844(15)
C97 C 0.4262(16) -0.076(3) 0.1009(12)
C98 C 0.4392(16) -0.0258(17) 0.132(2)
C99 C 0.4514(15) -0.042(2) 0.1755(17)
C100 C 0.4506(15) -0.109(3) 0.1880(11)
C101 C 0.4377(15) -0.1592(17) 0.1569(19)
C102 C 0.4255(15) -0.143(2) 0.1134(15)
C103 C 0.5152(19) -0.103(3) -0.2429(17)
C104 C 0.2555(16) -0.174(2) -0.0593(16)
C105 C 0.264(2) -0.185(3) -0.0185(19)
N2 N 0.5856(12) 0.3053(16) 0.1310(11)
N3 N 0.7379(15) 0.429(2) 0.0928(14)
N4 N 0.7954(13) 0.2105(18) 0.2110(12)
N5 N 0.7184(18) 0.382(2) 0.2846(16)
N6 N 0.6950(18) 0.179(3) 0.1028(17)
C106 C 0.389(2) -0.580(3) -0.145(2)
loop_
_geom_bond_atom_site_label_1
_geom_bond_atom_site_label_2
_geom_bond_site_symmetry_1
_geom_bond_site_symmetry_2
Ru1 N1 1_555 1_555
Cd1 Br1 1_555 1_555
Cd2 Se1 1_555 1_555
Cd3 Se1 1_555 1_555
Cd4 Se1 1_555 1_555
Cd5 Br3 1_555 1_555
Cd6 Se2 1_555 1_555
Cd7 Se3 1_555 1_555
Cd8 Se2 1_555 1_555
Cd9 Se1 1_555 1_555
Cd10 Se3 1_555 1_555
Cd11 Se4 1_555 1_555
Cd12 Se4 1_555 1_555
Cd13 Br2 1_555 1_555
Cd14 Se3 1_555 1_555
Cd15 Se2 1_555 1_555
Cd16 Se4 1_555 1_555
Cd17 Br4 1_555 1_555
Se2 Cd9 1_555 1_555
Se3 Cd9 1_555 1_555
Se4 Cd9 1_555 1_555
S1 Cd1 1_555 1_555
S2 Cd1 1_555 1_555
S3 Cd1 1_555 1_555
S4 Cd2 1_555 1_555
S5 Cd2 1_555 1_555
S6 Cd3 1_555 1_555
S7 Cd4 1_555 1_555
S8 Cd3 1_555 1_555
S9 Cd4 1_555 1_555
S10 Cd6 1_555 1_555
S11 Cd6 1_555 1_555
S12 Cd5 1_555 1_555
S13 Cd8 1_555 1_555
S14 Cd5 1_555 1_555
S15 Cd8 1_555 1_555
S16 Cd10 1_555 1_555
S17 Cd11 1_555 1_555
S18 Cd12 1_555 1_555
S19 Cd13 1_555 1_555
S20 Cd14 1_555 1_555
S21 Cd5 1_555 1_555
S22 Cd15 1_555 1_555
S23 Cd14 1_555 1_555
S24 Cd16 1_555 1_555
C1 S22 1_555 1_555
C2 C1 1_555 1_555
C3 C2 1_555 1_555
C4 C3 1_555 1_555
C5 C4 1_555 1_555
C6 C1 1_555 1_555
C7 S12 1_555 1_555
C8 C7 1_555 1_555
C9 C8 1_555 1_555
C10 C9 1_555 1_555
C11 C10 1_555 1_555
C12 C7 1_555 1_555
C13 S7 1_555 1_555
C14 C13 1_555 1_555
C15 C14 1_555 1_555
C16 C15 1_555 1_555
C17 C16 1_555 1_555
C18 C13 1_555 1_555
C19 S5 1_555 1_555
C20 C19 1_555 1_555
C21 C20 1_555 1_555
C22 C21 1_555 1_555
C23 C22 1_555 1_555
C24 C19 1_555 1_555
C25 S15 1_555 1_555
C26 C25 1_555 1_555
C27 C26 1_555 1_555
C28 C27 1_555 1_555
C29 C28 1_555 1_555
C30 C25 1_555 1_555
C31 S19 1_555 1_555
C32 C31 1_555 1_555
C33 C32 1_555 1_555
C34 C33 1_555 1_555
C35 C34 1_555 1_555
C36 C31 1_555 1_555
C37 S13 1_555 1_555
C38 C37 1_555 1_555
C39 C38 1_555 1_555
C40 C39 1_555 1_555
C41 C40 1_555 1_555
C42 C37 1_555 1_555
C43 S10 1_555 1_555
C44 C43 1_555 1_555
C45 C44 1_555 1_555
C46 C45 1_555 1_555
C47 C46 1_555 1_555
C48 C43 1_555 1_555
C49 S9 1_555 1_555
C50 C49 1_555 1_555
C51 C50 1_555 1_555
C52 C51 1_555 1_555
C53 C52 1_555 1_555
C54 C49 1_555 1_555
C55 S11 1_555 1_555
C56 C55 1_555 1_555
C57 C56 1_555 1_555
C58 C57 1_555 1_555
C59 C58 1_555 1_555
C60 C55 1_555 1_555
C61 S20 1_555 1_555
C62 C61 1_555 1_555
C63 C62 1_555 1_555
C64 C63 1_555 1_555
C65 C64 1_555 1_555
C66 C61 1_555 1_555
C67 S8 1_555 1_555
C68 C67 1_555 1_555
C69 C68 1_555 1_555
C70 C69 1_555 1_555
C71 C70 1_555 1_555
C72 C67 1_555 1_555
C73 S6 1_555 1_555
C74 C73 1_555 1_555
C75 C74 1_555 1_555
C76 C75 1_555 1_555
C77 C76 1_555 1_555
C78 C73 1_555 1_555
C79 S16 1_555 1_555
C80 C79 1_555 1_555
C81 C80 1_555 1_555
C82 C81 1_555 1_555
C83 C82 1_555 1_555
C84 C79 1_555 1_555
C85 S4 1_555 1_555
C86 C85 1_555 1_555
C87 C86 1_555 1_555
C88 C87 1_555 1_555
C89 C88 1_555 1_555
C90 C85 1_555 1_555
C91 S23 1_555 1_555
C92 C91 1_555 1_555
C93 C92 1_555 1_555
C94 C93 1_555 1_555
C95 C94 1_555 1_555
C96 C91 1_555 1_555
C97 S1 1_555 1_555
C98 C97 1_555 1_555
C99 C98 1_555 1_555
C100 C99 1_555 1_555
C101 C100 1_555 1_555
C102 C97 1_555 1_555
C103 S14 1_555 1_555
C104 C105 1_555 1_555
C105 S2 1_555 1_555
Cd2 S1 1_555 1_555
Cd3 S2 1_555 1_555
Cd4 S3 1_555 1_555
Cd6 S4 1_555 1_555
Cd7 S5 1_555 1_555
Cd7 S11 1_555 1_555
Cd7 S12 1_555 1_555
Cd8 S6 1_555 1_555
Cd10 S7 1_555 1_555
Cd10 S14 1_555 1_555
Cd11 S8 1_555 1_555
Cd11 S15 1_555 1_555
Cd12 S9 1_555 1_555
Cd12 S16 1_555 1_555
Cd13 S10 1_555 1_555
Cd13 S13 1_555 1_555
Cd14 S21 1_555 1_555
Cd15 S19 1_555 1_555
Cd15 S20 1_555 1_555
Cd16 S22 1_555 1_555
Cd16 S23 1_555 1_555
Cd17 S17 1_555 1_555
Cd17 S18 1_555 1_555
Cd17 S24 1_555 1_555
C5 C6 1_555 1_555
C11 C12 1_555 1_555
C17 C18 1_555 1_555
C23 C24 1_555 1_555
C29 C30 1_555 1_555
C35 C36 1_555 1_555
C41 C42 1_555 1_555
C47 C48 1_555 1_555
C53 C54 1_555 1_555
C59 C60 1_555 1_555
C65 C66 1_555 1_555
C71 C72 1_555 1_555
C77 C78 1_555 1_555
C83 C84 1_555 1_555
C89 C90 1_555 1_555
C95 C96 1_555 1_555
C101 C102 1_555 1_555

#END
