
#######################################################################
#
#                 Cambridge Crystallographic Data Centre
#                                CCDC 
#
#######################################################################
#
# If this CIF has been generated from an entry in the Cambridge 
# Structural Database, then it will include bibliographic, chemical, 
# crystal, experimental, refinement or atomic coordinate data resulting 
# from the CCDC's data processing and validation procedures.
#
#######################################################################

data_LOGYIR
_symmetry_cell_setting           monoclinic
_symmetry_space_group_name_H-M   'C 2/c'
_symmetry_Int_Tables_number      15
_space_group_name_Hall           '-C 2yn'
loop_
_symmetry_equiv_pos_site_id
_symmetry_equiv_pos_as_xyz
1 x,y,z
2 -x,y,1/2-z
3 1/2+x,1/2+y,z
4 1/2-x,1/2+y,1/2-z
5 -x,-y,-z
6 x,-y,1/2+z
7 1/2-x,1/2-y,-z
8 1/2+x,1/2-y,1/2+z
_cell_length_a                   23.5601(7)
_cell_length_b                   12.1007(4)
_cell_length_c                   16.9032(5)
_cell_angle_alpha                90
_cell_angle_beta                 106.732(3)
_cell_angle_gamma                90
_cell_volume                     4614.97
loop_
_atom_site_label
_atom_site_type_symbol
_atom_site_fract_x
_atom_site_fract_y
_atom_site_fract_z
Co1 Co 0.88882(2) -0.01734(4) 0.51483(3)
C1 C 0.8849(2) 0.1265(4) 0.6188(3)
C2 C 0.88306(18) 0.2154(3) 0.6800(2)
C3 C 0.92578(19) 0.2203(4) 0.7552(2)
H1 H 0.9558 0.1676 0.7688
C4 C 0.9241(2) 0.3036(4) 0.8105(3)
H2 H 0.9538 0.3077 0.8605
C5 C 0.8792(2) 0.3803(4) 0.7930(3)
C6 C 0.8360(2) 0.3745(4) 0.7180(3)
H3 H 0.8053 0.4257 0.7052
C7 C 0.8383(2) 0.2927(4) 0.6619(3)
H4 H 0.8093 0.2899 0.6113
C8 C 0.8753(3) 0.4657(5) 0.8548(4)
C9 C 0.9249(2) 0.5454(4) 0.8854(3)
C10 C 0.9656(2) 0.5612(4) 0.8429(3)
H5 H 0.9659 0.5147 0.7992
C11 C 1.0066(2) 0.6465(4) 0.8648(3)
H6 H 1.0342 0.6570 0.8358
C12 C 1.00643(16) 0.7161(3) 0.9299(2)
C13 C 0.96656(16) 0.6969(3) 0.9743(2)
H7 H 0.9671 0.7415 1.0193
C14 C 0.92593(19) 0.6122(4) 0.9524(3)
H8 H 0.8992 0.5998 0.9827
C15 C 1.04724(16) 0.8126(3) 0.9480(2)
C16 C 0.83925(18) 0.1574(4) 0.3890(2)
H9 H 0.8180 0.1746 0.4260
C17 C 0.82578(18) 0.2131(4) 0.3163(2)
H10 H 0.7970 0.2682 0.3055
C18 C 0.85491(16) 0.1878(3) 0.2582(2)
C19 C 0.89956(17) 0.1082(4) 0.2809(2)
H11 H 0.9214 0.0899 0.2449
C20 C 0.91106(17) 0.0571(3) 0.3561(2)
H12 H 0.9410 0.0044 0.3700
C21 C 0.79231(17) 0.2905(3) 0.1372(2)
C22 C 0.73764(18) 0.2728(4) 0.1496(3)
H13 H 0.7340 0.2241 0.1905
C23 C 0.68905(18) 0.3267(4) 0.1020(3)
H14 H 0.6530 0.3144 0.1127
C24 C 0.74212(17) 0.4093(4) 0.0271(2)
H15 H 0.7440 0.4554 -0.0161
C25 C 0.79339(18) 0.3592(4) 0.0725(2)
H16 H 0.8287 0.3715 0.0597
N1 N 0.88111(13) 0.0794(3) 0.41093(19)
N2 N 0.68986(14) 0.3960(3) 0.0412(2)
N3 N 0.84391(14) 0.2389(3) 0.1821(2)
H17 H 0.8726 0.2386 0.1601
O1 O 0.93259(15) 0.0803(3) 0.62040(19)
O2 O 0.83776(14) 0.1001(3) 0.56581(19)
O3 O 1.08003(13) 0.8330(3) 0.90355(17)
O4 O 1.04782(12) 0.8757(2) 1.00795(17)
O5 O 0.8298(2) 0.4752(5) 0.8743(4)
Co1A Co 1.11118(2) 0.98266(4) 0.98517(3)
Co1C Co 0.61118(2) 0.48266(4) -0.01483(3)
N2C N 0.81014(14) -0.1040(3) 0.4588(2)
O3A O 0.91997(13) -0.1670(3) 0.59645(17)
O4A O 0.95218(12) -0.1243(2) 0.49205(17)
loop_
_geom_bond_atom_site_label_1
_geom_bond_atom_site_label_2
_geom_bond_site_symmetry_1
_geom_bond_site_symmetry_2
Co1 N1 1_555 1_555
C1 C2 1_555 1_555
C2 C3 1_555 1_555
C3 H1 1_555 1_555
C4 C3 1_555 1_555
H2 C4 1_555 1_555
C5 C4 1_555 1_555
C6 C5 1_555 1_555
H3 C6 1_555 1_555
C7 C2 1_555 1_555
H4 C7 1_555 1_555
C8 C5 1_555 1_555
C9 C8 1_555 1_555
C10 C9 1_555 1_555
H5 C10 1_555 1_555
C11 C10 1_555 1_555
H6 C11 1_555 1_555
C12 C11 1_555 1_555
C13 C12 1_555 1_555
H7 C13 1_555 1_555
C14 C9 1_555 1_555
H8 C14 1_555 1_555
C15 C12 1_555 1_555
C16 H9 1_555 1_555
C17 C16 1_555 1_555
H10 C17 1_555 1_555
C18 C17 1_555 1_555
C19 C18 1_555 1_555
H11 C19 1_555 1_555
C20 C19 1_555 1_555
H12 C20 1_555 1_555
C21 C22 1_555 1_555
C22 H13 1_555 1_555
C23 C22 1_555 1_555
H14 C23 1_555 1_555
C24 H15 1_555 1_555
C25 C21 1_555 1_555
H16 C25 1_555 1_555
N1 C16 1_555 1_555
N2 C23 1_555 1_555
N3 C18 1_555 1_555
H17 N3 1_555 1_555
O1 Co1 1_555 1_555
O2 Co1 1_555 1_555
O3 C15 1_555 1_555
O4 C15 1_555 1_555
O5 C8 1_555 1_555
Co1A O3 1_555 1_555
Co1C N2 1_555 1_555
N2C Co1 1_555 1_555
O3A Co1 1_555 1_555
O4A Co1 1_555 1_555
C1 O1 1_555 1_555
C1 O2 1_555 1_555
C6 C7 1_555 1_555
C13 C14 1_555 1_555
C20 N1 1_555 1_555
C21 N3 1_555 1_555
C24 C25 1_555 1_555
C24 N2 1_555 1_555
O4 Co1A 1_555 1_555

#END
