
#######################################################################
#
#                 Cambridge Crystallographic Data Centre
#                                CCDC 
#
#######################################################################
#
# If this CIF has been generated from an entry in the Cambridge 
# Structural Database, then it will include bibliographic, chemical, 
# crystal, experimental, refinement or atomic coordinate data resulting 
# from the CCDC's data processing and validation procedures.
#
#######################################################################

data_LOGZAK
_symmetry_cell_setting           monoclinic
_symmetry_space_group_name_H-M   'P 21/n'
_symmetry_Int_Tables_number      14
_space_group_name_Hall           '-P 2yn'
loop_
_symmetry_equiv_pos_site_id
_symmetry_equiv_pos_as_xyz
1 x,y,z
2 1/2-x,1/2+y,1/2-z
3 -x,-y,-z
4 1/2+x,1/2-y,1/2+z
_cell_length_a                   11.9328(12)
_cell_length_b                   20.975(2)
_cell_length_c                   17.1544(17)
_cell_angle_alpha                90
_cell_angle_beta                 91.406(2)
_cell_angle_gamma                90
_cell_volume                     4292.29
loop_
_atom_site_label
_atom_site_type_symbol
_atom_site_fract_x
_atom_site_fract_y
_atom_site_fract_z
Zn1 Zn 0.23998(3) 1.190858(14) 0.71954(2)
Zn2 Zn 0.25647(3) 0.551646(14) 1.23136(2)
O1 O 0.52287(16) 1.29777(9) 0.78673(14)
O2 O 0.41059(17) 1.21593(9) 0.76245(16)
O3 O 0.07803(16) 1.21543(8) 0.67351(12)
O4 O -0.03302(17) 1.29917(9) 0.65091(15)
O5 O 0.23001(16) 1.47890(8) 0.75148(13)
H1 H 0.1679 1.4928 0.7391
O6 O 0.40858(16) 0.51766(8) 1.18504(13)
O7 O 0.49603(18) 0.42720(10) 1.15542(15)
O8 O 0.08408(16) 0.53837(9) 1.27333(15)
O9 O -0.04218(16) 0.46285(9) 1.29499(14)
O10 O 0.20983(16) 0.26438(8) 1.25302(12)
H2 H 0.1476 0.2539 1.2677
N1 N 0.24280(17) 1.28614(10) 0.72315(12)
N2 N 0.23515(16) 0.45752(10) 1.23470(13)
N3 N 0.29665(19) 1.12805(10) 0.64186(15)
N4 N 0.3141(2) 1.05142(11) 0.55911(14)
N5 N 0.4192(2) 1.07321(14) 0.57262(17)
N6 N 0.3637(3) 0.67059(13) 0.40720(18)
N7 N 0.4585(3) 0.63649(16) 0.4005(2)
N8 N 0.32275(19) 0.59959(10) 0.32125(13)
N9 N 0.1872(2) 1.14315(11) 0.81259(14)
N10 N 0.1749(2) 1.08108(13) 0.91137(16)
N11 N 0.0673(3) 1.0935(2) 0.8887(2)
N12 N 0.1943(2) 0.69206(11) 1.06867(15)
N13 N 0.0905(2) 0.68717(14) 1.0957(2)
N14 N 0.20404(19) 0.61659(10) 1.15318(15)
C1 C 0.1487(2) 1.31754(11) 0.70435(15)
C2 C 0.1396(2) 1.38225(11) 0.71231(16)
H3 H 0.0733 1.4031 0.6985
C3 C 0.2314(2) 1.41601(12) 0.74153(15)
C4 C 0.3297(2) 1.38275(12) 0.76114(16)
H4 H 0.3923 1.4041 0.7812
C5 C 0.3319(2) 1.31838(12) 0.75034(16)
C6 C 0.4305(2) 1.27454(13) 0.76807(17)
C7 C 0.0556(2) 1.27456(13) 0.67360(17)
C8 C 0.3189(2) 0.42017(11) 1.21345(15)
C9 C 0.3119(2) 0.35470(12) 1.21907(16)
H5 H 0.3711 0.3291 1.2039
C10 C 0.2151(2) 0.32779(11) 1.24772(16)
C11 C 0.1271(2) 0.36783(11) 1.26831(15)
H6 H 0.0607 0.3510 1.2867
C12 C 0.1405(2) 0.43205(12) 1.26085(16)
C13 C 0.4182(2) 0.45678(13) 1.18234(18)
C14 C 0.0527(2) 0.48175(12) 1.27842(18)
C15 C 0.2433(2) 1.08378(13) 0.60103(18)
H7 H 0.1665 1.0765 0.6018
C16 C 0.4037(3) 1.11885(15) 0.6216(2)
H8 H 0.4624 1.1436 0.6416
C17 C 0.2947(3) 0.99752(14) 0.50644(19)
H9 H 0.3468 1.0000 0.4640
H10 H 0.2193 1.0003 0.4842
C18 C 0.3087(3) 0.93525(13) 0.54655(19)
H11 H 0.2537 0.9317 0.5871
H12 H 0.3826 0.9333 0.5712
C19 C 0.2943(3) 0.87924(12) 0.48971(19)
H13 H 0.2243 0.8843 0.4605
H14 H 0.3547 0.8802 0.4528
C20 C 0.2944(4) 0.81571(16) 0.5296(3)
H15 H 0.2334 0.8144 0.5659
H16 H 0.3640 0.8108 0.5594
C21 C 0.2818(4) 0.7598(2) 0.4723(3)
H17 H 0.2263 0.7309 0.4926
H18 H 0.2516 0.7766 0.4235
C22 C 0.3710(5) 0.7265(2) 0.4568(4)
H19 H 0.4040 0.7129 0.5063
H20 H 0.4241 0.7554 0.4335
C23 C 0.4288(3) 0.59515(17) 0.3490(2)
H21 H 0.4777 0.5639 0.3318
C24 C 0.2839(3) 0.64883(15) 0.35939(19)
H22 H 0.2120 0.6657 0.3537
C25 C 0.0809(3) 1.1320(2) 0.8303(2)
H23 H 0.0209 1.1504 0.8030
C26 C 0.2440(3) 1.10911(14) 0.86503(18)
H24 H 0.3217 1.1057 0.8683
C27 C 0.1987(4) 1.03716(17) 0.9770(2)
H25 H 0.2649 1.0516 1.0057
H26 H 0.1363 1.0376 1.0121
C28 C 0.2166(3) 0.97255(15) 0.9496(2)
H27 H 0.2865 0.9707 0.9220
H28 H 0.1565 0.9608 0.9133
C29 C 0.2208(3) 0.92528(15) 1.0168(2)
H29 H 0.2834 0.9354 1.0518
H30 H 0.1524 0.9283 1.0460
C30 C 0.2338(3) 0.85840(15) 0.98615(19)
H31 H 0.1802 0.8519 0.9435
H32 H 0.3083 0.8538 0.9655
C31 C 0.2167(3) 0.80770(14) 1.04639(19)
H33 H 0.1449 0.8142 1.0704
H34 H 0.2747 0.8114 1.0868
C32 C 0.2202(3) 0.74193(14) 1.01174(18)
H35 H 0.1667 0.7395 0.9684
H36 H 0.2942 0.7343 0.9916
C33 C 0.2607(3) 0.65047(13) 1.10340(18)
H37 H 0.3367 0.6457 1.0941
C34 C 0.1011(3) 0.64094(17) 1.1462(2)
H38 H 0.0415 0.6261 1.1751
Zn2_2 Zn 0.25647(3) 0.551646(14) 0.23136(2)
N8_2 N 0.32275(19) 0.59959(10) 1.32125(13)
loop_
_geom_bond_atom_site_label_1
_geom_bond_atom_site_label_2
_geom_bond_site_symmetry_1
_geom_bond_site_symmetry_2
Zn1 O2 1_555 1_555
Zn2 O6 1_555 1_555
O1 C6 1_555 1_555
O2 C6 1_555 1_555
O3 Zn1 1_555 1_555
O4 C7 1_555 1_555
O5 H1 1_555 1_555
O6 C13 1_555 1_555
O7 C13 1_555 1_555
O8 Zn2 1_555 1_555
O9 C14 1_555 1_555
O10 H2 1_555 1_555
N1 Zn1 1_555 1_555
N2 Zn2 1_555 1_555
N3 Zn1 1_555 1_555
N4 N5 1_555 1_555
N5 C16 1_555 1_555
N6 N7 1_555 1_555
N7 C23 1_555 1_555
N8 C23 1_555 1_555
N9 Zn1 1_555 1_555
N10 N11 1_555 1_555
N11 C25 1_555 1_555
N12 N13 1_555 1_555
N13 C34 1_555 1_555
N14 Zn2 1_555 1_555
C1 N1 1_555 1_555
C2 C1 1_555 1_555
H3 C2 1_555 1_555
C3 O5 1_555 1_555
C4 C3 1_555 1_555
H4 C4 1_555 1_555
C5 N1 1_555 1_555
C6 C5 1_555 1_555
C7 O3 1_555 1_555
C8 N2 1_555 1_555
C9 C8 1_555 1_555
H5 C9 1_555 1_555
C10 O10 1_555 1_555
C11 C10 1_555 1_555
H6 C11 1_555 1_555
C12 N2 1_555 1_555
C13 C8 1_555 1_555
C14 O8 1_555 1_555
C15 N3 1_555 1_555
H7 C15 1_555 1_555
C16 N3 1_555 1_555
H8 C16 1_555 1_555
C17 N4 1_555 1_555
H9 C17 1_555 1_555
H10 C17 1_555 1_555
C18 C17 1_555 1_555
H11 C18 1_555 1_555
H12 C18 1_555 1_555
C19 C18 1_555 1_555
H13 C19 1_555 1_555
H14 C19 1_555 1_555
C20 C19 1_555 1_555
H15 C20 1_555 1_555
H16 C20 1_555 1_555
C21 C20 1_555 1_555
H17 C21 1_555 1_555
H18 C21 1_555 1_555
C22 N6 1_555 1_555
H19 C22 1_555 1_555
H20 C22 1_555 1_555
C23 H21 1_555 1_555
C24 N6 1_555 1_555
H22 C24 1_555 1_555
C25 N9 1_555 1_555
H23 C25 1_555 1_555
C26 N9 1_555 1_555
H24 C26 1_555 1_555
C27 N10 1_555 1_555
H25 C27 1_555 1_555
H26 C27 1_555 1_555
C28 C27 1_555 1_555
H27 C28 1_555 1_555
H28 C28 1_555 1_555
C29 C28 1_555 1_555
H29 C29 1_555 1_555
H30 C29 1_555 1_555
C30 C29 1_555 1_555
H31 C30 1_555 1_555
H32 C30 1_555 1_555
C31 C30 1_555 1_555
H33 C31 1_555 1_555
H34 C31 1_555 1_555
C32 N12 1_555 1_555
H35 C32 1_555 1_555
H36 C32 1_555 1_555
C33 N12 1_555 1_555
H37 C33 1_555 1_555
C34 N14 1_555 1_555
H38 C34 1_555 1_555
Zn2_2 N8 1_555 1_555
N8_2 Zn2 1_555 1_555
N4 C15 1_555 1_555
N8 C24 1_555 1_555
N10 C26 1_555 1_555
N14 C33 1_555 1_555
C1 C7 1_555 1_555
C2 C3 1_555 1_555
C4 C5 1_555 1_555
C9 C10 1_555 1_555
C11 C12 1_555 1_555
C12 C14 1_555 1_555
C21 C22 1_555 1_555
C31 C32 1_555 1_555

#END
