
#######################################################################
#
#                 Cambridge Crystallographic Data Centre
#                                CCDC 
#
#######################################################################
#
# If this CIF has been generated from an entry in the Cambridge 
# Structural Database, then it will include bibliographic, chemical, 
# crystal, experimental, refinement or atomic coordinate data resulting 
# from the CCDC's data processing and validation procedures.
#
#######################################################################

data_LOHDIX
_symmetry_cell_setting           monoclinic
_symmetry_space_group_name_H-M   'C 2/c'
_symmetry_Int_Tables_number      15
_space_group_name_Hall           '-C 2yn'
loop_
_symmetry_equiv_pos_site_id
_symmetry_equiv_pos_as_xyz
1 x,y,z
2 -x,y,1/2-z
3 1/2+x,1/2+y,z
4 1/2-x,1/2+y,1/2-z
5 -x,-y,-z
6 x,-y,1/2+z
7 1/2-x,1/2-y,-z
8 1/2+x,1/2-y,1/2+z
_cell_length_a                   28.5420(16)
_cell_length_b                   10.1480(6)
_cell_length_c                   28.2810(17)
_cell_angle_alpha                90
_cell_angle_beta                 106.2490(11)
_cell_angle_gamma                90
_cell_volume                     7864.22
loop_
_atom_site_label
_atom_site_type_symbol
_atom_site_fract_x
_atom_site_fract_y
_atom_site_fract_z
La1 La 0.21064(2) 0.57217(3) 0.98623(2)
O1 O 0.21094(13) 0.3681(3) 0.93296(12)
O2 O 0.26075(13) 0.1082(3) 0.94891(13)
O3 O 0.33879(13) 0.0595(4) 0.96894(14)
O4 O 0.17054(16) 0.5513(4) 0.78218(16)
O5 O 0.20200(13) 0.6349(3) 0.89745(12)
O6 O 0.24374(12) 0.7962(3) 0.94246(12)
O7 O 0.45248(14) 0.8028(4) 1.05484(15)
O8 O 0.34142(12) 0.7371(3) 1.00827(13)
O9 O 0.29592(12) 0.5549(3) 0.98815(13)
O10 O 0.12140(13) 0.5325(4) 0.92691(13)
H1 H 0.1278 0.5462 0.8997
H2 H 0.0939 0.5692 0.9235
Cl1 Cl 0.06926(9) 0.0752(3) 0.73264(8)
Cl2 Cl -0.02456(7) 0.7958(3) 0.83415(8)
Cl3 Cl 0.41955(9) 0.9311(3) 0.81725(8)
C1 C 0.1361(2) 0.2629(6) 0.8560(2)
H3 H 0.1270 0.3089 0.8805
C2 C 0.1005(3) 0.2079(7) 0.8170(3)
H4 H 0.0677 0.2167 0.8154
C3 C 0.1141(3) 0.1417(7) 0.7816(2)
C4 C 0.1613(3) 0.1261(7) 0.7831(2)
H5 H 0.1696 0.0799 0.7582
C5 C 0.1974(2) 0.1792(6) 0.8217(2)
H6 H 0.2301 0.1677 0.8231
C6 C 0.1849(2) 0.2495(5) 0.85850(19)
C7 C 0.22216(19) 0.3144(5) 0.89920(18)
C8 C 0.27260(19) 0.3281(5) 0.89350(17)
C9 C 0.2805(2) 0.4315(5) 0.86426(18)
H7 H 0.2552 0.4885 0.8495
C10 C 0.3254(2) 0.4490(6) 0.8573(2)
H8 H 0.3302 0.5180 0.8376
C11 C 0.3631(2) 0.3682(6) 0.8784(2)
H9 H 0.3936 0.3826 0.8734
C12 C 0.3564(2) 0.2631(6) 0.9079(2)
H10 H 0.3822 0.2071 0.9223
C13 C 0.31126(19) 0.2429(5) 0.91535(18)
C14 C 0.3032(2) 0.1297(5) 0.94650(19)
C15 C 0.1134(2) 0.8205(7) 0.8292(2)
H11 H 0.1384 0.8826 0.8361
C16 C 0.0686(3) 0.8501(7) 0.8364(3)
H12 H 0.0629 0.9322 0.8484
C17 C 0.0320(2) 0.7537(9) 0.8253(2)
C18 C 0.0396(3) 0.6298(8) 0.8092(2)
H13 H 0.0152 0.5663 0.8035
C19 C 0.0835(2) 0.6022(7) 0.8018(2)
H14 H 0.0887 0.5194 0.7902
C20 C 0.1207(2) 0.6948(6) 0.81105(18)
C21 C 0.1671(2) 0.6563(6) 0.80103(19)
C22 C 0.20908(19) 0.7531(5) 0.81020(18)
C23 C 0.2220(2) 0.8009(7) 0.7690(2)
H15 H 0.2041 0.7748 0.7376
C24 C 0.2608(3) 0.8856(7) 0.7742(3)
H16 H 0.2681 0.9185 0.7464
C25 C 0.2883(2) 0.9215(6) 0.8198(2)
H17 H 0.3151 0.9764 0.8232
C26 C 0.2767(2) 0.8767(6) 0.8609(2)
H18 H 0.2954 0.9024 0.8920
C27 C 0.23734(18) 0.7938(5) 0.85623(17)
C28 C 0.22680(18) 0.7378(5) 0.90134(17)
C29 C 0.4095(2) 0.7007(7) 0.9284(2)
H19 H 0.3986 0.6160 0.9321
C30 C 0.4067(2) 0.7506(8) 0.8824(3)
H20 H 0.3933 0.6994 0.8546
C31 C 0.4239(2) 0.8767(8) 0.8769(3)
C32 C 0.4427(3) 0.9518(7) 0.9173(3)
H21 H 0.4543 1.0359 0.9139
C33 C 0.4446(2) 0.9058(7) 0.9625(3)
H22 H 0.4569 0.9593 0.9899
C34 C 0.42875(19) 0.7801(6) 0.9686(2)
C35 C 0.43564(18) 0.7288(6) 1.0196(2)
C36 C 0.42710(19) 0.5847(6) 1.02811(19)
C37 C 0.4678(2) 0.5074(7) 1.0453(2)
H23 H 0.4987 0.5443 1.0515
C38 C 0.4627(3) 0.3774(8) 1.0532(3)
H24 H 0.4904 0.3253 1.0647
C39 C 0.4175(3) 0.3215(7) 1.0445(3)
H25 H 0.4145 0.2318 1.0495
C40 C 0.3762(2) 0.3988(6) 1.0281(2)
H26 H 0.3454 0.3614 1.0229
C41 C 0.3806(2) 0.5302(5) 1.01958(19)
C42 C 0.33557(19) 0.6124(5) 1.00383(18)
La1F La 0.28936(2) -0.07217(3) 1.01377(2)
La1F_2 La 0.28936(2) 0.92783(3) 1.01377(2)
O2F O 0.23925(13) 0.3918(3) 1.05109(13)
O3F O 0.16121(13) 0.4405(4) 1.03106(14)
O6F O 0.25626(12) 0.7038(3) 1.05754(12)
O8F O 0.15858(12) 0.7629(3) 0.99173(13)
loop_
_geom_bond_atom_site_label_1
_geom_bond_atom_site_label_2
_geom_bond_site_symmetry_1
_geom_bond_site_symmetry_2
La1 O1 1_555 1_555
O1 C7 1_555 1_555
O2 C14 1_555 1_555
O3 C14 1_555 1_555
O4 C21 1_555 1_555
O5 La1 1_555 1_555
O6 La1 1_555 1_555
O7 C35 1_555 1_555
O8 C42 1_555 1_555
O9 La1 1_555 1_555
O10 La1 1_555 1_555
H1 O10 1_555 1_555
H2 O10 1_555 1_555
Cl1 C3 1_555 1_555
Cl2 C17 1_555 1_555
Cl3 C31 1_555 1_555
C1 H3 1_555 1_555
C2 C1 1_555 1_555
H4 C2 1_555 1_555
C3 C2 1_555 1_555
C4 C3 1_555 1_555
H5 C4 1_555 1_555
C5 C4 1_555 1_555
H6 C5 1_555 1_555
C6 C1 1_555 1_555
C7 C6 1_555 1_555
C8 C7 1_555 1_555
C9 C8 1_555 1_555
H7 C9 1_555 1_555
C10 C9 1_555 1_555
H8 C10 1_555 1_555
C11 C10 1_555 1_555
H9 C11 1_555 1_555
C12 C11 1_555 1_555
H10 C12 1_555 1_555
C13 C8 1_555 1_555
C14 C13 1_555 1_555
C15 H11 1_555 1_555
C16 C15 1_555 1_555
H12 C16 1_555 1_555
C17 C16 1_555 1_555
C18 C17 1_555 1_555
H13 C18 1_555 1_555
C19 C18 1_555 1_555
H14 C19 1_555 1_555
C20 C15 1_555 1_555
C21 C20 1_555 1_555
C22 C21 1_555 1_555
C23 C22 1_555 1_555
H15 C23 1_555 1_555
C24 C23 1_555 1_555
H16 C24 1_555 1_555
C25 C24 1_555 1_555
H17 C25 1_555 1_555
C26 C25 1_555 1_555
H18 C26 1_555 1_555
C27 C22 1_555 1_555
C28 O5 1_555 1_555
C29 H19 1_555 1_555
C30 C29 1_555 1_555
H20 C30 1_555 1_555
C31 C30 1_555 1_555
C32 C31 1_555 1_555
H21 C32 1_555 1_555
C33 C32 1_555 1_555
H22 C33 1_555 1_555
C34 C29 1_555 1_555
C35 C34 1_555 1_555
C36 C35 1_555 1_555
C37 C36 1_555 1_555
H23 C37 1_555 1_555
C38 C37 1_555 1_555
H24 C38 1_555 1_555
C39 C38 1_555 1_555
H25 C39 1_555 1_555
C40 C39 1_555 1_555
H26 C40 1_555 1_555
C41 C36 1_555 1_555
C42 O9 1_555 1_555
La1F O2 1_555 1_555
La1F_2 O6 1_555 1_555
O2F La1 1_555 1_555
O3F La1 1_555 1_555
O6F La1 1_555 1_555
O8F La1 1_555 1_555
O3 La1F 1_555 1_555
O6 C28 1_555 1_555
O8 La1F_2 1_555 1_555
C5 C6 1_555 1_555
C12 C13 1_555 1_555
C19 C20 1_555 1_555
C26 C27 1_555 1_555
C27 C28 1_555 1_555
C33 C34 1_555 1_555
C40 C41 1_555 1_555
C41 C42 1_555 1_555
La1F_2 O6F 1_555 1_555

#END
