
#######################################################################
#
#                 Cambridge Crystallographic Data Centre
#                                CCDC 
#
#######################################################################
#
# If this CIF has been generated from an entry in the Cambridge 
# Structural Database, then it will include bibliographic, chemical, 
# crystal, experimental, refinement or atomic coordinate data resulting 
# from the CCDC's data processing and validation procedures.
#
#######################################################################

data_LOHKIE
_symmetry_cell_setting           monoclinic
_symmetry_space_group_name_H-M   'P 21/c'
_symmetry_Int_Tables_number      14
_space_group_name_Hall           '-P 2ybc'
loop_
_symmetry_equiv_pos_site_id
_symmetry_equiv_pos_as_xyz
1 x,y,z
2 -x,1/2+y,1/2-z
3 -x,-y,-z
4 x,1/2-y,1/2+z
_cell_length_a                   8.3429(4)
_cell_length_b                   22.0562(11)
_cell_length_c                   5.2825(2)
_cell_angle_alpha                90
_cell_angle_beta                 99.893(3)
_cell_angle_gamma                90
_cell_volume                     957.593
loop_
_atom_site_label
_atom_site_type_symbol
_atom_site_fract_x
_atom_site_fract_y
_atom_site_fract_z
Na1 Na 0.03038(15) 0.45610(6) 0.2540(3)
C1 C 0.3934(4) 0.40611(14) 0.5276(7)
N1 N 0.4459(3) 0.43805(12) 0.3510(6)
N2 N 0.6140(3) 0.44395(12) 0.3737(6)
H1 H 0.640(4) 0.4702(14) 0.263(6)
C2 C 0.7272(4) 0.42334(14) 0.5588(7)
C3 C 0.6733(4) 0.38373(14) 0.7465(7)
C4 C 0.7812(4) 0.35237(14) 0.9389(7)
C5 C 0.7195(4) 0.31450(15) 1.1037(8)
H2 H 0.7906 0.2929 1.2263
C6 C 0.5531(4) 0.30768(14) 1.0911(7)
H3 H 0.5133 0.2828 1.2081
C7 C 0.4472(4) 0.33782(15) 0.9049(7)
H4 H 0.3357 0.3326 0.8951
C8 C 0.5046(4) 0.37582(14) 0.7321(7)
O1 O 0.2360(2) 0.40158(9) 0.5198(5)
O2 O 0.8746(2) 0.43929(10) 0.5662(5)
N3 N 0.9487(4) 0.36154(15) 0.9710(7)
H5 H 0.987(4) 0.3714(14) 0.836(4)
H6 H 1.010(3) 0.3342(11) 1.054(5)
O3 O 0.2103(3) 0.47576(11) -0.0548(5)
H7 H 0.274(4) 0.4654(15) 0.073(4)
H8 H 0.213(5) 0.4510(14) -0.170(5)
Na1_2 Na 1.03038(15) 0.45610(6) 0.2540(3)
Na1_3 Na 1.03038(15) 0.45610(6) 1.2540(3)
Na1B Na -0.03038(15) 0.54390(6) -0.2540(3)
Na1B_2 Na 0.96962(15) 0.54390(6) 0.7460(3)
O2_2 O -0.1254(2) 0.43929(10) 0.5662(5)
O2B O 0.1254(2) 0.56071(10) 0.4338(5)
N3_2 N -0.0513(4) 0.36154(15) -0.0290(7)
O3B O -0.2103(3) 0.52424(11) 0.0548(5)
O4 O 0.1443(4) 0.28253(12) 0.4026(6)
H9 H 0.187(4) 0.3159(7) 0.430(6)
H10 H 0.160(5) 0.2627(12) 0.536(3)
loop_
_geom_bond_atom_site_label_1
_geom_bond_atom_site_label_2
_geom_bond_site_symmetry_1
_geom_bond_site_symmetry_2
Na1 O1 1_555 1_555
C1 N1 1_555 1_555
N1 N2 1_555 1_555
N2 H1 1_555 1_555
C2 N2 1_555 1_555
C3 C2 1_555 1_555
C4 C3 1_555 1_555
C5 C4 1_555 1_555
H2 C5 1_555 1_555
C6 C5 1_555 1_555
H3 C6 1_555 1_555
C7 C6 1_555 1_555
H4 C7 1_555 1_555
C8 C1 1_555 1_555
O1 C1 1_555 1_555
O2 C2 1_555 1_555
N3 C4 1_555 1_555
H5 N3 1_555 1_555
H6 N3 1_555 1_555
O3 Na1 1_555 1_555
H7 O3 1_555 1_555
H8 O3 1_555 1_555
O4 H9 1_555 1_555
H10 O4 1_555 1_555
Na1_2 O2 1_555 1_555
Na1_3 N3 1_555 1_555
Na1B O3 1_555 1_555
Na1B_2 O2 1_555 1_555
O2_2 Na1 1_555 1_555
O2B Na1 1_555 1_555
N3_2 Na1 1_555 1_555
O3B Na1 1_555 1_555
C3 C8 1_555 1_555
C7 C8 1_555 1_555
Na1B O3B 1_555 1_555

#END
