
#######################################################################
#
#                 Cambridge Crystallographic Data Centre
#                                CCDC 
#
#######################################################################
#
# If this CIF has been generated from an entry in the Cambridge 
# Structural Database, then it will include bibliographic, chemical, 
# crystal, experimental, refinement or atomic coordinate data resulting 
# from the CCDC's data processing and validation procedures.
#
#######################################################################

data_LOHMEC
_symmetry_cell_setting           monoclinic
_symmetry_space_group_name_H-M   'P 21/c'
_symmetry_Int_Tables_number      14
_space_group_name_Hall           '-P 2ybc'
loop_
_symmetry_equiv_pos_site_id
_symmetry_equiv_pos_as_xyz
1 x,y,z
2 -x,1/2+y,1/2-z
3 -x,-y,-z
4 x,1/2-y,1/2+z
_cell_length_a                   11.5905(16)
_cell_length_b                   9.1210(13)
_cell_length_c                   13.9207(19)
_cell_angle_alpha                90
_cell_angle_beta                 95.148(2)
_cell_angle_gamma                90
_cell_volume                     1465.72
loop_
_atom_site_label
_atom_site_type_symbol
_atom_site_fract_x
_atom_site_fract_y
_atom_site_fract_z
C1 C 0.1845(2) 1.0132(3) 0.7005(2)
H1 H 0.1556 0.9182 0.7021
C2 C 0.1118(3) 1.1276(3) 0.7142(3)
H2 H 0.0352 1.1104 0.7257
C3 C 0.1532(3) 1.2676(4) 0.7107(2)
H3 H 0.1044 1.3468 0.7186
C4 C 0.2683(3) 1.2909(3) 0.69539(19)
H4 H 0.2980 1.3854 0.6929
C5 C 0.3378(2) 1.1699(3) 0.68390(18)
C6 C 0.4638(2) 1.1836(3) 0.66565(18)
C7 C 0.6176(2) 1.0301(3) 0.61395(16)
C8 C 0.7057(3) 1.1281(3) 0.6068(2)
H5 H 0.6950 1.2264 0.6214
C9 C 0.8127(3) 1.0804(4) 0.5775(2)
H6 H 0.8718 1.1483 0.5727
C10 C 0.8317(3) 0.9369(4) 0.5560(2)
H7 H 0.9032 0.9083 0.5371
C11 C 0.7439(2) 0.8322(3) 0.56230(19)
C12 C 0.6361(2) 0.8802(2) 0.59093(18)
C13 C 0.5633(3) 0.6434(3) 0.5855(2)
H8 H 0.5034 0.5781 0.5941
C14 C 0.6678(3) 0.5891(3) 0.5563(2)
H9 H 0.6758 0.4893 0.5450
C15 C 0.7556(3) 0.6793(4) 0.5447(2)
H10 H 0.8246 0.6425 0.5252
C16 C 0.2145(2) 0.6747(3) 0.6147(2)
Cu1 Cu 0.41136(3) 0.88335(3) 0.64970(2)
N1 N 0.29632(18) 1.0325(2) 0.68477(15)
N2 N 0.50657(17) 1.0550(2) 0.64197(15)
N3 N 0.54724(18) 0.7849(2) 0.60107(15)
N4 N 0.3067(2) 0.7191(3) 0.63692(18)
O1 O 0.51178(18) 1.30547(18) 0.67295(14)
S1 S 0.08650(7) 0.61233(8) 0.58260(8)
Cu1A Cu 0.58864(3) 1.38335(3) 0.85030(2)
O1A O 0.48822(18) 0.80547(18) 0.82705(14)
loop_
_geom_bond_atom_site_label_1
_geom_bond_atom_site_label_2
_geom_bond_site_symmetry_1
_geom_bond_site_symmetry_2
C1 H1 1_555 1_555
C2 C1 1_555 1_555
H2 C2 1_555 1_555
C3 C2 1_555 1_555
H3 C3 1_555 1_555
C4 C3 1_555 1_555
H4 C4 1_555 1_555
C5 C4 1_555 1_555
C6 C5 1_555 1_555
C7 C8 1_555 1_555
C8 H5 1_555 1_555
C9 C8 1_555 1_555
H6 C9 1_555 1_555
C10 C9 1_555 1_555
H7 C10 1_555 1_555
C11 C10 1_555 1_555
C12 C7 1_555 1_555
C13 H8 1_555 1_555
C14 C13 1_555 1_555
H9 C14 1_555 1_555
C15 C11 1_555 1_555
H10 C15 1_555 1_555
C16 N4 1_555 1_555
Cu1 N1 1_555 1_555
N1 C1 1_555 1_555
N2 C6 1_555 1_555
N3 C12 1_555 1_555
N4 Cu1 1_555 1_555
O1 C6 1_555 1_555
S1 C16 1_555 1_555
Cu1A O1 1_555 1_555
O1A Cu1 1_555 1_555
C5 N1 1_555 1_555
C7 N2 1_555 1_555
C11 C12 1_555 1_555
C13 N3 1_555 1_555
C14 C15 1_555 1_555
Cu1 N2 1_555 1_555
Cu1 N3 1_555 1_555

#END
