
#######################################################################
#
#                 Cambridge Crystallographic Data Centre
#                                CCDC 
#
#######################################################################
#
# If this CIF has been generated from an entry in the Cambridge 
# Structural Database, then it will include bibliographic, chemical, 
# crystal, experimental, refinement or atomic coordinate data resulting 
# from the CCDC's data processing and validation procedures.
#
#######################################################################

data_LOHSUY
_symmetry_cell_setting           orthorhombic
_symmetry_space_group_name_H-M   'P 21 21 21'
_symmetry_Int_Tables_number      19
_space_group_name_Hall           'P 2ac 2ab'
loop_
_symmetry_equiv_pos_site_id
_symmetry_equiv_pos_as_xyz
1 x,y,z
2 1/2-x,-y,1/2+z
3 1/2+x,1/2-y,-z
4 -x,1/2+y,1/2-z
_cell_length_a                   15.332(2)
_cell_length_b                   8.6055(10)
_cell_length_c                   34.795(4)
_cell_angle_alpha                90
_cell_angle_beta                 90
_cell_angle_gamma                90
_cell_volume                     4590.84
loop_
_atom_site_label
_atom_site_type_symbol
_atom_site_fract_x
_atom_site_fract_y
_atom_site_fract_z
C1 C 0.9382(12) -0.0013(18) 0.9014(5)
H1 H 0.9634 -0.0997 0.8959
C2 C 0.9788(12) 0.1239(18) 0.8853(5)
H2 H 1.0318 0.1102 0.8716
C3 C 0.9429(11) 0.2708(18) 0.8888(5)
C4 C 0.8580(12) 0.267(2) 0.9108(5)
H3 H 0.8237 0.3583 0.9135
C5 C 0.8327(12) 0.1358(19) 0.9261(5)
H4 H 0.7811 0.1407 0.9412
C6 C 1.0470(12) 0.439(2) 0.8546(5)
C7 C 1.0467(12) 0.594(2) 0.8364(5)
C8 C 0.9723(12) 0.6487(19) 0.8187(5)
H5 H 0.9231 0.5819 0.8173
C9 C 0.9656(12) 0.796(2) 0.8027(5)
C10 C 0.8882(12) 0.850(2) 0.7866(6)
H6 H 0.8390 0.7832 0.7851
C11 C 0.8827(14) 0.994(2) 0.7733(6)
H7 H 0.8283 1.0308 0.7639
C12 C 0.9578(14) 1.098(2) 0.7727(6)
H8 H 0.9530 1.1994 0.7624
C13 C 1.0350(13) 1.046(2) 0.7872(5)
H9 H 1.0851 1.1103 0.7865
C14 C 1.0401(12) 0.8957(18) 0.8032(5)
C15 C 1.1196(12) 0.8308(19) 0.8179(5)
C16 C 1.1228(11) 0.6899(19) 0.8359(5)
C17 C 1.2584(12) 0.570(3) 0.8274(6)
H10 H 1.2418 0.4619 0.8230
H11 H 1.3173 0.5742 0.8383
H12 H 1.2574 0.6271 0.8030
C18 C 1.3623(12) 1.467(2) 0.9884(6)
H13 H 1.4112 1.4535 1.0048
C19 C 1.3551(12) 1.374(2) 0.9554(5)
H14 H 1.3989 1.2992 0.9499
C20 C 1.2854(12) 1.3894(19) 0.9310(5)
C21 C 1.2233(11) 1.5039(17) 0.9424(4)
H15 H 1.1737 1.5203 0.9265
C22 C 1.2316(11) 1.5918(19) 0.9752(5)
H16 H 1.1874 1.6639 0.9821
C23 C 1.3321(13) 1.2190(19) 0.8793(5)
C24 C 1.3019(13) 1.1218(19) 0.8466(5)
C25 C 1.3490(12) 1.1341(18) 0.8145(5)
H17 H 1.3996 1.1979 0.8148
C26 C 1.3257(12) 1.052(2) 0.7782(5)
C27 C 1.3678(15) 1.065(2) 0.7438(6)
H18 H 1.4221 1.1177 0.7429
C28 C 1.3348(16) 1.005(2) 0.7107(6)
H19 H 1.3596 1.0291 0.6865
C29 C 1.2638(15) 0.907(2) 0.7137(6)
H20 H 1.2446 0.8532 0.6914
C30 C 1.2209(13) 0.884(2) 0.7466(5)
H21 H 1.1711 0.8185 0.7465
C31 C 1.2463(13) 0.954(2) 0.7815(5)
C32 C 1.2011(11) 0.936(2) 0.8157(5)
C33 C 1.2243(12) 1.0190(19) 0.8485(5)
C34 C 1.2080(12) 0.939(3) 0.9128(6)
H22 H 1.2152 0.8281 0.9077
H23 H 1.1664 0.9536 0.9339
H24 H 1.2644 0.9843 0.9200
C35 C 0.9321(12) -0.293(2) 1.0639(5)
H25 H 0.9784 -0.2223 1.0545
H26 H 0.8751 -0.2421 1.0595
C36 C 0.9438(13) -0.319(3) 1.1044(5)
H27 H 0.9548 -0.2198 1.1173
H28 H 0.9936 -0.3887 1.1085
H29 H 0.8911 -0.3668 1.1151
C37 C 1.0474(12) -0.6492(19) 1.0023(6)
H30 H 1.0840 -0.5560 0.9981
H31 H 1.0493 -0.6754 1.0300
C38 C 1.0800(13) -0.775(2) 0.9804(6)
H32 H 1.0609 -0.7645 0.9537
H33 H 1.0579 -0.8730 0.9910
H34 H 1.1439 -0.7751 0.9814
C39 C 0.6822(19) -0.039(2) 0.8404(6)
H35 H 0.6690 0.0348 0.8613
H36 H 0.7459 -0.0382 0.8357
C40 C 0.636(2) 0.005(4) 0.8059(8)
H37 H 0.6503 0.1126 0.7995
H38 H 0.5734 -0.0054 0.8102
H39 H 0.6540 -0.0634 0.7848
C41 C 0.6224(15) -0.543(2) 0.9127(7)
H40 H 0.6750 -0.5372 0.9291
H41 H 0.5704 -0.5338 0.9295
C42 C 0.6206(13) -0.686(2) 0.8935(7)
H42 H 0.5729 -0.6865 0.8747
H43 H 0.6115 -0.7701 0.9121
H44 H 0.6762 -0.7024 0.8801
N1 N 0.8695(10) -0.0033(17) 0.9233(4)
N2 N 0.9723(9) 0.4034(16) 0.8734(5)
H45 H 0.9363 0.4824 0.8760
N3 N 1.3029(9) 1.5751(15) 0.9976(4)
N4 N 1.2692(10) 1.2981(17) 0.8994(4)
H46 H 1.2149 1.2900 0.8914
O1 O 1.2001(8) 0.6382(13) 0.8528(3)
O2 O 1.1072(8) 0.3448(13) 0.8537(3)
O3 O 1.1765(8) 1.0134(13) 0.8798(3)
O4 O 0.9355(8) -0.4367(13) 1.0425(4)
O5 O 1.4097(9) 1.2355(16) 0.8853(4)
O6 O 0.9553(9) -0.6162(13) 0.9904(4)
O7 O 0.6541(9) -0.1964(15) 0.8514(4)
O8 O 0.6232(9) -0.4144(13) 0.8847(4)
P1 P 0.6858(4) -0.2709(6) 0.88925(15)
P2 P 0.9165(4) -0.4478(6) 0.99913(16)
S1 S 0.8125(4) -0.3287(5) 0.88681(15)
S2 S 0.6663(3) -0.1488(5) 0.93564(14)
S3 S 0.9756(3) -0.2804(6) 0.96840(15)
S4 S 0.7895(4) -0.4508(6) 0.98743(14)
Ni1 Ni 0.82254(17) -0.2008(2) 0.95160(7)
N3B N 0.8029(9) -0.0751(15) 1.0024(4)
Ni1B Ni 1.32254(17) 1.7008(2) 1.04840(7)
loop_
_geom_bond_atom_site_label_1
_geom_bond_atom_site_label_2
_geom_bond_site_symmetry_1
_geom_bond_site_symmetry_2
C1 H1 1_555 1_555
C2 C1 1_555 1_555
H2 C2 1_555 1_555
C3 C2 1_555 1_555
C4 C3 1_555 1_555
H3 C4 1_555 1_555
C5 C4 1_555 1_555
H4 C5 1_555 1_555
C6 C7 1_555 1_555
C7 C8 1_555 1_555
C8 H5 1_555 1_555
C9 C8 1_555 1_555
C10 C9 1_555 1_555
H6 C10 1_555 1_555
C11 C10 1_555 1_555
H7 C11 1_555 1_555
C12 C11 1_555 1_555
H8 C12 1_555 1_555
C13 C12 1_555 1_555
H9 C13 1_555 1_555
C14 C9 1_555 1_555
C15 C14 1_555 1_555
C16 C7 1_555 1_555
C17 H10 1_555 1_555
H11 C17 1_555 1_555
H12 C17 1_555 1_555
C18 H13 1_555 1_555
C19 C18 1_555 1_555
H14 C19 1_555 1_555
C20 C19 1_555 1_555
C21 C20 1_555 1_555
H15 C21 1_555 1_555
C22 C21 1_555 1_555
H16 C22 1_555 1_555
C23 C24 1_555 1_555
C24 C25 1_555 1_555
C25 H17 1_555 1_555
C26 C25 1_555 1_555
C27 C26 1_555 1_555
H18 C27 1_555 1_555
C28 C27 1_555 1_555
H19 C28 1_555 1_555
C29 C28 1_555 1_555
H20 C29 1_555 1_555
C30 C29 1_555 1_555
H21 C30 1_555 1_555
C31 C26 1_555 1_555
C32 C15 1_555 1_555
C33 C24 1_555 1_555
C34 H22 1_555 1_555
H23 C34 1_555 1_555
H24 C34 1_555 1_555
C35 H25 1_555 1_555
H26 C35 1_555 1_555
C36 C35 1_555 1_555
H27 C36 1_555 1_555
H28 C36 1_555 1_555
H29 C36 1_555 1_555
C37 H30 1_555 1_555
H31 C37 1_555 1_555
C38 C37 1_555 1_555
H32 C38 1_555 1_555
H33 C38 1_555 1_555
H34 C38 1_555 1_555
C39 H35 1_555 1_555
H36 C39 1_555 1_555
C40 C39 1_555 1_555
H37 C40 1_555 1_555
H38 C40 1_555 1_555
H39 C40 1_555 1_555
C41 H40 1_555 1_555
H41 C41 1_555 1_555
C42 C41 1_555 1_555
H42 C42 1_555 1_555
H43 C42 1_555 1_555
H44 C42 1_555 1_555
N1 C1 1_555 1_555
N2 C3 1_555 1_555
H45 N2 1_555 1_555
N3 C18 1_555 1_555
N4 C20 1_555 1_555
H46 N4 1_555 1_555
O1 C16 1_555 1_555
O2 C6 1_555 1_555
O3 C33 1_555 1_555
O4 C35 1_555 1_555
O5 C23 1_555 1_555
O6 C37 1_555 1_555
O7 C39 1_555 1_555
O8 C41 1_555 1_555
P1 O7 1_555 1_555
P2 O4 1_555 1_555
S1 P1 1_555 1_555
S2 P1 1_555 1_555
S3 P2 1_555 1_555
S4 P2 1_555 1_555
Ni1 N1 1_555 1_555
N3B Ni1 1_555 1_555
Ni1B N3 1_555 1_555
C5 N1 1_555 1_555
C6 N2 1_555 1_555
C13 C14 1_555 1_555
C15 C16 1_555 1_555
C17 O1 1_555 1_555
C22 N3 1_555 1_555
C23 N4 1_555 1_555
C30 C31 1_555 1_555
C31 C32 1_555 1_555
C32 C33 1_555 1_555
C34 O3 1_555 1_555
O6 P2 1_555 1_555
O8 P1 1_555 1_555
S1 Ni1 1_555 1_555
S2 Ni1 1_555 1_555
S3 Ni1 1_555 1_555
S4 Ni1 1_555 1_555

#END
