
#######################################################################
#
#                 Cambridge Crystallographic Data Centre
#                                CCDC 
#
#######################################################################
#
# If this CIF has been generated from an entry in the Cambridge 
# Structural Database, then it will include bibliographic, chemical, 
# crystal, experimental, refinement or atomic coordinate data resulting 
# from the CCDC's data processing and validation procedures.
#
#######################################################################

data_LOHWAI
_symmetry_cell_setting           monoclinic
_symmetry_space_group_name_H-M   'C 2/c'
_symmetry_Int_Tables_number      15
_space_group_name_Hall           '-C 2yn'
loop_
_symmetry_equiv_pos_site_id
_symmetry_equiv_pos_as_xyz
1 x,y,z
2 -x,y,1/2-z
3 1/2+x,1/2+y,z
4 1/2-x,1/2+y,1/2-z
5 -x,-y,-z
6 x,-y,1/2+z
7 1/2-x,1/2-y,-z
8 1/2+x,1/2-y,1/2+z
_cell_length_a                   37.962(9)
_cell_length_b                   21.391(4)
_cell_length_c                   24.996(4)
_cell_angle_alpha                90
_cell_angle_beta                 119.840(4)
_cell_angle_gamma                90
_cell_volume                     17606.8
loop_
_atom_site_label
_atom_site_type_symbol
_atom_site_fract_x
_atom_site_fract_y
_atom_site_fract_z
W1 W 0.24021(3) 0.00711(5) -0.12241(4)
W2 W 0.21201(3) -0.13788(5) -0.10047(4)
W3 W 0.14287(3) -0.01862(6) -0.15334(4)
W4 W 0.32360(3) 0.00767(5) 0.03987(5)
W5 W 0.29460(3) -0.13717(5) 0.06143(4)
W6 W 0.18872(3) -0.16296(5) 0.02466(4)
W7 W 0.12058(3) -0.04212(6) -0.02711(5)
W8 W 0.15232(4) 0.11367(5) -0.05178(5)
W9 W 0.25023(4) 0.13818(5) -0.01969(5)
W10 W 0.30396(3) -0.01751(6) 0.15766(4)
W11 W 0.19806(3) -0.04280(5) 0.12178(4)
W12 W 0.23023(4) 0.11276(5) 0.09717(5)
P1 P 0.22163(12) -0.01543(19) 0.00270(18)
Cu1 Cu 0.24031(9) 0.23037(13) 0.23290(13)
C1 C 0.3055(9) 0.3234(15) 0.2446(13)
H1 H 0.2918 0.3583 0.2471
C2 C 0.3207(11) 0.2298(19) 0.2366(17)
H2 H 0.3196 0.1865 0.2325
C3 C 0.3673(10) 0.3736(18) 0.2579(16)
H3 H 0.3517 0.4118 0.2492
H4 H 0.3758 0.3706 0.2272
C4 C 0.4048(11) 0.382(2) 0.318(2)
C5 C 0.4040(10) 0.3775(19) 0.373(2)
H5 H 0.3794 0.3709 0.3721
C6 C 0.4395(9) 0.3825(17) 0.4293(17)
H6 H 0.4388 0.3793 0.4659
C7 C 0.4761(9) 0.3925(19) 0.4308(19)
C8 C 0.4770(11) 0.397(2) 0.376(2)
H7 H 0.5015 0.4041 0.3773
C9 C 0.4414(11) 0.392(2) 0.3200(18)
H8 H 0.4421 0.3957 0.2835
C10 C 0.5135(9) 0.4045(18) 0.4932(16)
C11 C 0.5504(9) 0.3978(17) 0.5005(15)
H9 H 0.5531 0.3852 0.4671
C12 C 0.5847(10) 0.4089(17) 0.5562(14)
H10 H 0.6100 0.4036 0.5594
C13 C 0.5828(9) 0.4276(17) 0.6075(14)
C14 C 0.5442(11) 0.4354(19) 0.6017(17)
H11 H 0.5414 0.4480 0.6350
C15 C 0.5084(11) 0.4228(19) 0.5409(18)
H12 H 0.4824 0.4273 0.5353
C16 C 0.6181(9) 0.4413(16) 0.6685(13)
H13 H 0.6343 0.4742 0.6645
H14 H 0.6088 0.4560 0.6961
C17 C 0.6566(9) 0.2904(14) 0.7178(11)
H15 H 0.6545 0.2486 0.7262
C18 C 0.6811(7) 0.3731(12) 0.7041(11)
H16 H 0.6981 0.4017 0.6999
C19 C 0.2984(9) 0.1769(15) 0.3553(13)
H17 H 0.2974 0.2144 0.3733
C20 C 0.2887(9) 0.1046(14) 0.2918(15)
H18 H 0.2786 0.0809 0.2560
C21 C 0.3503(9) 0.1216(18) 0.4467(16)
H19 H 0.3477 0.0792 0.4582
H20 H 0.3460 0.1503 0.4729
C22 C 0.3940(12) 0.131(3) 0.456(2)
C23 C 0.4038(15) 0.188(3) 0.437(2)
H21 H 0.3844 0.2189 0.4195
C24 C 0.4427(15) 0.196(3) 0.446(2)
H22 H 0.4493 0.2338 0.4343
C25 C 0.4719(15) 0.149(3) 0.473(3)
C26 C 0.4620(14) 0.093(3) 0.491(2)
H23 H 0.4814 0.0621 0.5094
C27 C 0.4230(14) 0.085(2) 0.482(2)
H24 H 0.4164 0.0473 0.4943
C28 C 0.5127(16) 0.158(3) 0.480(3)
C29 C 0.5281(17) 0.217(3) 0.478(3)
H25 H 0.5130 0.2528 0.4745
C30 C 0.5658(19) 0.222(3) 0.482(3)
H26 H 0.5760 0.2616 0.4812
C31 C 0.5886(17) 0.169(3) 0.488(3)
C32 C 0.5732(16) 0.110(3) 0.490(3)
H27 H 0.5883 0.0742 0.4942
C33 C 0.5355(14) 0.105(3) 0.486(2)
H28 H 0.5254 0.0655 0.4875
C34 C 0.6340(12) 0.176(2) 0.5081(19)
H29 H 0.6403 0.1457 0.4854
H30 H 0.6374 0.2172 0.4946
C35 C 0.6848(10) 0.2196(18) 0.6052(16)
H31 H 0.6854 0.2577 0.5877
C36 C 0.6965(10) 0.1477(18) 0.6704(18)
H32 H 0.7073 0.1255 0.7072
N1 N 0.2929(7) 0.2653(12) 0.2384(11)
N2 N 0.3403(9) 0.3237(16) 0.2466(13)
N3 N 0.3499(9) 0.2659(18) 0.2417(14)
N4 N 0.2755(7) 0.1649(11) 0.2951(11)
N5 N 0.3168(8) 0.0865(13) 0.3457(14)
N6 N 0.3215(7) 0.1322(14) 0.3852(13)
N7 N 0.6896(6) 0.3131(10) 0.7201(8)
N8 N 0.6434(7) 0.3851(11) 0.6950(9)
N9 N 0.6259(7) 0.3314(13) 0.7024(10)
N10 N 0.7036(7) 0.2069(13) 0.6647(11)
N11 N 0.6716(9) 0.1256(15) 0.6158(18)
N12 N 0.6654(10) 0.1698(19) 0.5750(16)
O1 O 0.2105(4) -0.0311(6) -0.0615(6)
O2 O 0.2645(5) -0.0310(7) 0.0455(6)
O3 O 0.1962(5) -0.0487(7) 0.0227(6)
O4 O 0.2158(5) 0.0539(7) 0.0088(7)
O5 O 0.2360(5) -0.0809(7) -0.1325(6)
O6 O 0.1827(5) 0.0098(7) -0.1737(6)
O7 O 0.2377(5) 0.0862(7) -0.0887(6)
O8 O 0.2884(5) -0.0050(7) -0.0481(7)
O9 O 0.2559(5) 0.0254(7) -0.1736(7)
O10 O 0.1608(5) -0.1020(8) -0.1566(7)
O11 O 0.1889(5) -0.1579(7) -0.0502(6)
O12 O 0.2632(5) -0.1426(7) -0.0238(7)
O13 O 0.2124(6) -0.2060(8) -0.1361(8)
O14 O 0.1242(5) -0.0472(7) -0.1009(6)
O15 O 0.1447(5) 0.0601(8) -0.1176(7)
O16 O 0.1003(6) -0.0125(9) -0.2217(9)
O17 O 0.2948(5) 0.0860(8) 0.0240(7)
O18 O 0.3296(4) -0.0833(8) 0.0498(7)
O19 O 0.3676(6) 0.0248(8) 0.0437(8)
O20 O 0.3140(5) -0.1012(7) 0.1414(6)
O21 O 0.3379(6) 0.0114(8) 0.1257(7)
O22 O 0.2495(6) -0.1588(8) 0.0639(7)
O23 O 0.3217(6) -0.2040(7) 0.0800(8)
O24 O 0.1955(5) -0.1306(7) 0.1010(6)
O25 O 0.1342(5) -0.1313(8) -0.0142(7)
O26 O 0.1801(6) -0.2400(8) 0.0311(8)
O27 O 0.1423(5) -0.0376(7) 0.0595(7)
O28 O 0.1310(5) 0.0448(8) -0.0285(7)
O29 O 0.0727(7) -0.0454(10) -0.0551(8)
O30 O 0.1806(5) 0.1382(8) 0.0355(7)
O31 O 0.1927(6) 0.1584(7) -0.0592(8)
O32 O 0.1116(8) 0.1609(11) -0.0868(10)
O33 O 0.2551(5) 0.1577(7) 0.0589(8)
O34 O 0.2703(6) 0.1996(8) -0.0332(10)
O35 O 0.2040(5) 0.0433(8) 0.1129(7)
O36 O 0.2559(5) -0.0466(7) 0.1541(6)
O37 O 0.1935(5) -0.0458(8) 0.1863(7)
O38 O 0.2778(5) 0.0616(7) 0.1360(8)
O39 O 0.3355(6) -0.0109(9) 0.2340(7)
O40 O 0.2357(6) 0.1622(8) 0.1531(8)
O41 O 0.2343(5) 0.2988(9) 0.3055(7)
H33 H 0.2545 0.3192 0.3328
H34 H 0.2276 0.2714 0.3235
Cu1G Cu 0.74031(9) 0.26963(13) 0.73290(13)
N7G N 0.1896(6) 0.1869(10) 0.2201(8)
N10G N 0.2036(7) 0.2931(13) 0.1647(11)
loop_
_geom_bond_atom_site_label_1
_geom_bond_atom_site_label_2
_geom_bond_site_symmetry_1
_geom_bond_site_symmetry_2
W1 O1 1_555 1_555
W2 O1 1_555 1_555
W3 O1 1_555 1_555
W4 O2 1_555 1_555
W5 O2 1_555 1_555
W6 O3 1_555 1_555
W7 O3 1_555 1_555
W8 O4 1_555 1_555
W9 O4 1_555 1_555
W10 O2 1_555 1_555
W11 O3 1_555 1_555
W12 O4 1_555 1_555
P1 O1 1_555 1_555
Cu1 N1 1_555 1_555
C1 H1 1_555 1_555
C2 H2 1_555 1_555
C3 H3 1_555 1_555
H4 C3 1_555 1_555
C4 C3 1_555 1_555
C5 C4 1_555 1_555
H5 C5 1_555 1_555
C6 C5 1_555 1_555
H6 C6 1_555 1_555
C7 C6 1_555 1_555
C8 C7 1_555 1_555
H7 C8 1_555 1_555
C9 C4 1_555 1_555
H8 C9 1_555 1_555
C10 C7 1_555 1_555
C11 C10 1_555 1_555
H9 C11 1_555 1_555
C12 C11 1_555 1_555
H10 C12 1_555 1_555
C13 C12 1_555 1_555
C14 C13 1_555 1_555
H11 C14 1_555 1_555
C15 C10 1_555 1_555
H12 C15 1_555 1_555
C16 C13 1_555 1_555
H13 C16 1_555 1_555
H14 C16 1_555 1_555
C17 H15 1_555 1_555
C18 H16 1_555 1_555
C19 H17 1_555 1_555
C20 H18 1_555 1_555
C21 H19 1_555 1_555
H20 C21 1_555 1_555
C22 C21 1_555 1_555
C23 C22 1_555 1_555
H21 C23 1_555 1_555
C24 C23 1_555 1_555
H22 C24 1_555 1_555
C25 C24 1_555 1_555
C26 C25 1_555 1_555
H23 C26 1_555 1_555
C27 C22 1_555 1_555
H24 C27 1_555 1_555
C28 C25 1_555 1_555
C29 C28 1_555 1_555
H25 C29 1_555 1_555
C30 C29 1_555 1_555
H26 C30 1_555 1_555
C31 C30 1_555 1_555
C32 C31 1_555 1_555
H27 C32 1_555 1_555
C33 C28 1_555 1_555
H28 C33 1_555 1_555
C34 C31 1_555 1_555
H29 C34 1_555 1_555
H30 C34 1_555 1_555
C35 H31 1_555 1_555
C36 H32 1_555 1_555
N1 C1 1_555 1_555
N2 C1 1_555 1_555
N3 C2 1_555 1_555
N4 Cu1 1_555 1_555
N5 C20 1_555 1_555
N6 C19 1_555 1_555
N7 C17 1_555 1_555
N8 C16 1_555 1_555
N9 C17 1_555 1_555
N10 C35 1_555 1_555
N11 C36 1_555 1_555
N12 C34 1_555 1_555
O2 P1 1_555 1_555
O3 P1 1_555 1_555
O4 P1 1_555 1_555
O5 W1 1_555 1_555
O6 W1 1_555 1_555
O7 W1 1_555 1_555
O8 W1 1_555 1_555
O9 W1 1_555 1_555
O10 W2 1_555 1_555
O11 W2 1_555 1_555
O12 W2 1_555 1_555
O13 W2 1_555 1_555
O14 W3 1_555 1_555
O15 W3 1_555 1_555
O16 W3 1_555 1_555
O17 W4 1_555 1_555
O18 W4 1_555 1_555
O19 W4 1_555 1_555
O20 W5 1_555 1_555
O21 W4 1_555 1_555
O22 W5 1_555 1_555
O23 W5 1_555 1_555
O24 W6 1_555 1_555
O25 W6 1_555 1_555
O26 W6 1_555 1_555
O27 W7 1_555 1_555
O28 W7 1_555 1_555
O29 W7 1_555 1_555
O30 W8 1_555 1_555
O31 W8 1_555 1_555
O32 W8 1_555 1_555
O33 W9 1_555 1_555
O34 W9 1_555 1_555
O35 W11 1_555 1_555
O36 W10 1_555 1_555
O37 W11 1_555 1_555
O38 W10 1_555 1_555
O39 W10 1_555 1_555
O40 W12 1_555 1_555
O41 Cu1 1_555 1_555
H33 O41 1_555 1_555
H34 O41 1_555 1_555
Cu1G N7 1_555 1_555
N7G Cu1 1_555 1_555
N10G Cu1 1_555 1_555
W2 O5 1_555 1_555
W3 O6 1_555 1_555
W3 O10 1_555 1_555
W4 O8 1_555 1_555
W5 O12 1_555 1_555
W5 O18 1_555 1_555
W6 O11 1_555 1_555
W6 O22 1_555 1_555
W7 O14 1_555 1_555
W7 O25 1_555 1_555
W8 O15 1_555 1_555
W8 O28 1_555 1_555
W9 O7 1_555 1_555
W9 O17 1_555 1_555
W9 O31 1_555 1_555
W10 O20 1_555 1_555
W10 O21 1_555 1_555
W11 O24 1_555 1_555
W11 O27 1_555 1_555
W11 O36 1_555 1_555
W12 O30 1_555 1_555
W12 O33 1_555 1_555
W12 O35 1_555 1_555
W12 O38 1_555 1_555
Cu1 O40 1_555 1_555
C2 N1 1_555 1_555
C3 N2 1_555 1_555
C8 C9 1_555 1_555
C14 C15 1_555 1_555
C18 N7 1_555 1_555
C18 N8 1_555 1_555
C19 N4 1_555 1_555
C20 N4 1_555 1_555
C21 N6 1_555 1_555
C26 C27 1_555 1_555
C32 C33 1_555 1_555
C35 N12 1_555 1_555
C36 N10 1_555 1_555
N2 N3 1_555 1_555
N5 N6 1_555 1_555
N8 N9 1_555 1_555
N10 Cu1G 1_555 1_555
N11 N12 1_555 1_555

#END
