
#######################################################################
#
#                 Cambridge Crystallographic Data Centre
#                                CCDC 
#
#######################################################################
#
# If this CIF has been generated from an entry in the Cambridge 
# Structural Database, then it will include bibliographic, chemical, 
# crystal, experimental, refinement or atomic coordinate data resulting 
# from the CCDC's data processing and validation procedures.
#
#######################################################################

data_LOHYOY
_symmetry_cell_setting           monoclinic
_symmetry_space_group_name_H-M   'P 21/c'
_symmetry_Int_Tables_number      14
_space_group_name_Hall           '-P 2ybc'
loop_
_symmetry_equiv_pos_site_id
_symmetry_equiv_pos_as_xyz
1 x,y,z
2 -x,1/2+y,1/2-z
3 -x,-y,-z
4 x,1/2-y,1/2+z
_cell_length_a                   7.277(3)
_cell_length_b                   9.581(4)
_cell_length_c                   18.528(8)
_cell_angle_alpha                90
_cell_angle_beta                 95.204(8)
_cell_angle_gamma                90
_cell_volume                     1286.46
loop_
_atom_site_label
_atom_site_type_symbol
_atom_site_fract_x
_atom_site_fract_y
_atom_site_fract_z
Zn1 Zn 0.21426(7) 0.94078(4) 0.21993(2)
O1 O -0.0535(5) 0.9367(3) 0.17711(18)
O2 O 0.3358(5) 1.7861(3) 0.18017(16)
O3 O 0.2992(4) 1.1290(3) 0.20183(15)
O4 O 0.3687(8) 1.0635(3) 0.0932(2)
N1 N 0.1524(5) 0.9574(3) 0.32501(18)
C1 C 0.3727(5) 1.5479(4) 0.1535(2)
C2 C 0.3518(6) 1.1537(4) 0.1401(2)
O5 O 0.2428(5) 1.6317(3) 0.25850(17)
C3 C 0.0333(5) 0.9912(4) 0.46358(19)
C4 C 0.4470(6) 1.3408(4) 0.0558(2)
H1 H 0.4704 1.2705 0.0232
C5 C 0.4304(5) 1.5833(4) 0.0863(2)
H2 H 0.4433 1.6769 0.0745
C6 C 0.3135(5) 1.6613(4) 0.2025(2)
C7 C 0.3554(5) 1.4083(4) 0.1728(2)
H3 H 0.3210 1.3846 0.2183
C8 C 0.3902(5) 1.3045(4) 0.1233(2)
C9 C 0.0715(6) 1.1059(4) 0.4204(2)
H4 H 0.0577 1.1962 0.4376
C10 C 0.1294(6) 1.0847(4) 0.3528(2)
H5 H 0.1537 1.1622 0.3250
C11 C 0.0596(6) 0.8595(4) 0.4346(2)
H6 H 0.0378 0.7802 0.4615
C12 C 0.1179(6) 0.8465(4) 0.3660(2)
H7 H 0.1338 0.7576 0.3475
C13 C 0.4696(5) 1.4806(4) 0.03587(18)
H8 H -0.0874 0.9362 0.1301
H9 H -0.1233 0.9955 0.2019
O2B O 0.6642(5) 1.2139(3) -0.18017(16)
O3B O 0.7008(4) 1.8710(3) -0.20183(15)
O4B O 0.6313(8) 1.9365(3) -0.0932(2)
C1B C 0.6273(5) 1.4521(4) -0.1535(2)
C2B C 0.6482(6) 1.8463(4) -0.1401(2)
O5B O 0.7572(5) 1.3683(3) -0.25850(17)
C4B C 0.5530(6) 1.6592(4) -0.0558(2)
H1B H 0.5296 1.7295 -0.0232
C5B C 0.5696(5) 1.4167(4) -0.0863(2)
H2B H 0.5567 1.3231 -0.0745
C6B C 0.6865(5) 1.3387(4) -0.2025(2)
C7B C 0.6446(5) 1.5917(4) -0.1728(2)
H3B H 0.6790 1.6154 -0.2183
C8B C 0.6098(5) 1.6955(4) -0.1233(2)
C13B C 0.5304(5) 1.5194(4) -0.03587(18)
N1B N -0.1524(5) 1.0426(3) 0.67499(18)
C3B C -0.0333(5) 1.0088(4) 0.53642(19)
C9B C -0.0715(6) 0.8941(4) 0.5796(2)
H4B H -0.0577 0.8038 0.5624
C10B C -0.1294(6) 0.9153(4) 0.6472(2)
H5B H -0.1537 0.8378 0.6750
C11B C -0.0596(6) 1.1405(4) 0.5654(2)
H6B H -0.0378 1.2198 0.5385
C12B C -0.1179(6) 1.1535(4) 0.6340(2)
H7B H -0.1338 1.2424 0.6525
Zn1B Zn -0.21426(7) 1.05922(4) 0.78007(2)
O1B O 0.0535(5) 1.0633(3) 0.82289(18)
H8B H 0.0874 1.0638 0.8699
H9B H 0.1233 1.0045 0.7981
Zn1_2 Zn 0.21426(7) 1.94078(4) 0.21993(2)
Zn1B_2 Zn 0.78574(7) 1.05922(4) -0.21993(2)
Zn1B_3 Zn 0.78574(7) 2.05922(4) -0.21993(2)
O2_2 O 0.3358(5) 0.7861(3) 0.18017(16)
O2B_2 O -0.3358(5) 1.2139(3) 0.81983(16)
O3B_2 O -0.2992(4) 0.8710(3) 0.79817(15)
O6 O -0.2599(11) 0.9815(9) 0.0520(4)
H10 H -0.2915 0.9594 0.0058
H11 H -0.3655 1.0150 0.0696
loop_
_geom_bond_atom_site_label_1
_geom_bond_atom_site_label_2
_geom_bond_site_symmetry_1
_geom_bond_site_symmetry_2
Zn1 O1 1_555 1_555
O1 H8 1_555 1_555
O2 C6 1_555 1_555
O3 Zn1 1_555 1_555
O4 C2 1_555 1_555
N1 Zn1 1_555 1_555
C1 C5 1_555 1_555
C2 O3 1_555 1_555
O5 C6 1_555 1_555
C3 C9 1_555 1_555
C4 H1 1_555 1_555
C5 H2 1_555 1_555
C6 C1 1_555 1_555
C7 C1 1_555 1_555
H3 C7 1_555 1_555
C8 C2 1_555 1_555
C9 H4 1_555 1_555
C10 N1 1_555 1_555
H5 C10 1_555 1_555
C11 C3 1_555 1_555
H6 C11 1_555 1_555
C12 N1 1_555 1_555
H7 C12 1_555 1_555
C13 C4 1_555 1_555
H9 O1 1_555 1_555
O6 H10 1_555 1_555
H11 O6 1_555 1_555
O2B C6B 1_555 1_555
O3B C2B 1_555 1_555
O4B C2B 1_555 1_555
C1B C5B 1_555 1_555
C2B C8B 1_555 1_555
O5B C6B 1_555 1_555
C4B H1B 1_555 1_555
C5B H2B 1_555 1_555
C6B C1B 1_555 1_555
C7B C1B 1_555 1_555
H3B C7B 1_555 1_555
C8B C4B 1_555 1_555
C13B C13 1_555 1_555
N1B C10B 1_555 1_555
C3B C3 1_555 1_555
C9B C3B 1_555 1_555
H4B C9B 1_555 1_555
C10B C9B 1_555 1_555
H5B C10B 1_555 1_555
C11B C3B 1_555 1_555
H6B C11B 1_555 1_555
C12B N1B 1_555 1_555
H7B C12B 1_555 1_555
Zn1B N1B 1_555 1_555
O1B Zn1B 1_555 1_555
H8B O1B 1_555 1_555
H9B O1B 1_555 1_555
Zn1_2 O2 1_555 1_555
Zn1B_2 O2B 1_555 1_555
Zn1B_3 O3B 1_555 1_555
O2_2 Zn1 1_555 1_555
O2B_2 Zn1B 1_555 1_555
O3B_2 Zn1B 1_555 1_555
C4 C8 1_555 1_555
C5 C13 1_555 1_555
C7 C8 1_555 1_555
C9 C10 1_555 1_555
C11 C12 1_555 1_555
C4B C13B 1_555 1_555
C5B C13B 1_555 1_555
C7B C8B 1_555 1_555
C11B C12B 1_555 1_555

#END
