
#######################################################################
#
#                 Cambridge Crystallographic Data Centre
#                                CCDC 
#
#######################################################################
#
# If this CIF has been generated from an entry in the Cambridge 
# Structural Database, then it will include bibliographic, chemical, 
# crystal, experimental, refinement or atomic coordinate data resulting 
# from the CCDC's data processing and validation procedures.
#
#######################################################################

data_LOJFAT
_symmetry_cell_setting           triclinic
_symmetry_space_group_name_H-M   'P -1'
_symmetry_Int_Tables_number      2
_space_group_name_Hall           '-P 1'
loop_
_symmetry_equiv_pos_site_id
_symmetry_equiv_pos_as_xyz
1 x,y,z
2 -x,-y,-z
_cell_length_a                   11.4682(19)
_cell_length_b                   11.555(2)
_cell_length_c                   12.047(2)
_cell_angle_alpha                67.634(8)
_cell_angle_beta                 70.469(10)
_cell_angle_gamma                65.664(9)
_cell_volume                     1314.95
loop_
_atom_site_label
_atom_site_type_symbol
_atom_site_fract_x
_atom_site_fract_y
_atom_site_fract_z
Zn1 Zn 0.13838(4) 0.84915(4) 0.75943(4)
O1 O 0.1937(3) 0.7064(3) 0.6821(2)
O2 O 0.4148(3) 0.2274(3) 0.7068(3)
O3 O 0.3418(3) 0.8039(3) -0.2200(3)
O4 O 0.8396(3) 0.4941(4) 0.0206(3)
O5 O 0.7947(3) 0.5874(3) -0.1646(3)
O6 O 0.1823(3) 0.7922(4) -0.0637(3)
O7 O 0.4814(4) 0.1681(3) 0.5361(3)
O8 O 0.1825(5) 0.8544(3) 0.5021(3)
N1 N -0.0568(3) 0.8687(3) 0.8345(3)
N2 N 0.1184(3) 1.0467(3) 0.6769(3)
C1 C 0.3926(3) 0.5622(3) 0.3186(3)
C2 C 0.0655(6) 1.1300(5) 0.7457(4)
H1 H 0.0394 1.0959 0.8300
C3 C 0.1549(5) 1.0987(4) 0.5588(4)
H2 H 0.1920 1.0436 0.5077
C4 C 0.2848(3) 0.6294(4) 0.5055(3)
C5 C 0.6159(3) 0.5901(3) 0.0060(3)
C6 C 0.3172(3) 0.6593(4) 0.3788(3)
H3 H 0.2875 0.7469 0.3325
C7 C 0.3497(4) 0.6728(3) 0.1056(3)
H4 H 0.2606 0.7031 0.1386
C8 C 0.3937(4) 0.7034(3) -0.0213(3)
C9 C 0.4379(3) 0.5969(3) 0.1844(3)
C10 C 0.3240(3) 0.4975(4) 0.5754(3)
H5 H 0.3032 0.4762 0.6607
C11 C 0.5271(4) 0.6629(3) -0.0711(3)
H6 H 0.5571 0.6844 -0.1558
C12 C 0.4307(3) 0.4298(3) 0.3906(3)
H7 H 0.4810 0.3628 0.3527
C13 C 0.5715(3) 0.5554(3) 0.1313(3)
H8 H 0.6314 0.5033 0.1818
C14 C 0.7602(4) 0.5518(4) -0.0444(4)
C15 C 0.3942(3) 0.3979(4) 0.5176(3)
C16 C 0.4303(4) 0.2574(4) 0.5974(3)
C17 C 0.2145(4) 0.7396(4) 0.5653(3)
C18 C 0.2984(4) 0.7738(4) -0.1053(4)
C19 C -0.3242(4) 0.9087(4) 0.9293(4)
C20 C -0.2765(4) 0.9609(5) 0.8056(4)
H9 H -0.3335 1.0102 0.7519
C21 C 0.0861(4) 1.3171(4) 0.5751(4)
C22 C 0.0474(6) 1.2628(5) 0.6995(5)
H10 H 0.0091 1.3165 0.7519
C23 C -0.2345(4) 0.8362(5) 1.0020(4)
H11 H -0.2625 0.7993 1.0853
C24 C -0.1448(4) 0.9392(5) 0.7635(4)
H12 H -0.1148 0.9756 0.6804
C25 C 0.0655(4) 1.4639(4) 0.5194(5)
H13 H 0.1354 1.4774 0.4485
H14 H 0.0682 1.4999 0.5789
C26 C -0.4692(4) 0.9362(4) 0.9802(4)
H15 H -0.4838 0.8625 1.0502
H16 H -0.5108 0.9446 0.9181
C27 C 0.1407(6) 1.2319(5) 0.5070(5)
H17 H 0.1698 1.2631 0.4228
C28 C -0.1032(4) 0.8167(4) 0.9538(4)
H18 H -0.0444 0.7658 1.0056
N1A N -0.9432(3) 1.1313(3) 1.1655(3)
C19A C -0.6758(4) 1.0913(4) 1.0707(4)
C20A C -0.7235(4) 1.0391(5) 1.1944(4)
H9A H -0.6665 0.9898 1.2481
C23A C -0.7655(4) 1.1638(5) 0.9980(4)
H11A H -0.7375 1.2007 0.9147
C24A C -0.8552(4) 1.0608(5) 1.2365(4)
H12A H -0.8852 1.0244 1.3196
C26A C -0.5308(4) 1.0638(4) 1.0198(4)
H15A H -0.5162 1.1375 0.9498
H16A H -0.4892 1.0554 1.0819
C28A C -0.8968(4) 1.1833(4) 1.0462(4)
H18A H -0.9556 1.2342 0.9944
N2A N -0.1184(3) 1.9533(3) 0.3231(3)
C2A C -0.0655(6) 1.8700(5) 0.2543(4)
H1A H -0.0394 1.9041 0.1700
C3A C -0.1549(5) 1.9013(4) 0.4412(4)
H2A H -0.1920 1.9564 0.4923
C21A C -0.0861(4) 1.6829(4) 0.4249(4)
C22A C -0.0474(6) 1.7372(5) 0.3005(5)
H10A H -0.0091 1.6835 0.2481
C25A C -0.0655(4) 1.5361(4) 0.4806(5)
H13A H -0.1354 1.5226 0.5515
H14A H -0.0682 1.5001 0.4211
C27A C -0.1407(6) 1.7681(5) 0.4930(5)
H17A H -0.1698 1.7369 0.5772
Zn1A Zn -1.13838(4) 1.15085(4) 1.24057(4)
O1A O -1.1937(3) 1.2936(3) 1.3179(2)
O2A O -1.4148(3) 1.7726(3) 1.2932(3)
O3A O -1.3418(3) 1.1961(3) 2.2200(3)
O4A O -1.8396(3) 1.5059(4) 1.9794(3)
O5A O -1.7947(3) 1.4126(3) 2.1646(3)
O6A O -1.1823(3) 1.2078(4) 2.0637(3)
O7A O -1.4814(4) 1.8319(3) 1.4639(3)
O8A O -1.1825(5) 1.1456(3) 1.4979(3)
C1A C -1.3926(3) 1.4378(3) 1.6814(3)
C4A C -1.2848(3) 1.3706(4) 1.4945(3)
C5A C -1.6159(3) 1.4099(3) 1.9940(3)
C6A C -1.3172(3) 1.3407(4) 1.6212(3)
H3A H -1.2875 1.2531 1.6675
C7A C -1.3497(4) 1.3272(3) 1.8944(3)
H4A H -1.2606 1.2969 1.8614
C8A C -1.3937(4) 1.2966(3) 2.0213(3)
C9A C -1.4379(3) 1.4031(3) 1.8156(3)
C10A C -1.3240(3) 1.5025(4) 1.4246(3)
H5A H -1.3032 1.5238 1.3393
C11A C -1.5271(4) 1.3371(3) 2.0711(3)
H6A H -1.5571 1.3156 2.1558
C12A C -1.4307(3) 1.5702(3) 1.6094(3)
H7A H -1.4810 1.6372 1.6473
C13A C -1.5715(3) 1.4446(3) 1.8687(3)
H8A H -1.6314 1.4967 1.8182
C14A C -1.7602(4) 1.4482(4) 2.0444(4)
C15A C -1.3942(3) 1.6021(4) 1.4824(3)
C16A C -1.4303(4) 1.7426(4) 1.4026(3)
C17A C -1.2145(4) 1.2604(4) 1.4347(3)
C18A C -1.2984(4) 1.2262(4) 2.1053(4)
Zn1_2 Zn 0.13838(4) 0.84915(4) -0.24057(4)
Zn1A_2 Zn -1.13838(4) 1.15085(4) 2.24057(4)
Zn1A_3 Zn -0.13838(4) 2.15085(4) 0.24057(4)
O3_2 O 0.3418(3) 0.8039(3) 0.7800(3)
O3A_2 O -1.3418(3) 1.1961(3) 1.2200(3)
O6_2 O 0.1823(3) 0.7922(4) 0.9363(3)
O6A_2 O -1.1823(3) 1.2078(4) 1.0637(3)
N2A_2 N -1.1184(3) 0.9533(3) 1.3231(3)
O9 O 1.0503(3) 0.5288(4) -0.2050(3)
H19 H 1.0786 0.5966 -0.2321
H20 H 0.9743 0.5622 -0.2243
O10 O 0.5318(4) -0.0804(3) 0.6522(3)
H21 H 0.5119 -0.1304 0.7231
H22 H 0.5903 -0.1292 0.6083
loop_
_geom_bond_atom_site_label_1
_geom_bond_atom_site_label_2
_geom_bond_site_symmetry_1
_geom_bond_site_symmetry_2
Zn1 O1 1_555 1_555
O1 C17 1_555 1_555
O2 C16 1_555 1_555
O3 C18 1_555 1_555
O4 C14 1_555 1_555
O5 C14 1_555 1_555
O6 C18 1_555 1_555
O7 C16 1_555 1_555
O8 C17 1_555 1_555
N1 Zn1 1_555 1_555
N2 Zn1 1_555 1_555
C1 C6 1_555 1_555
C2 N2 1_555 1_555
H1 C2 1_555 1_555
C3 N2 1_555 1_555
H2 C3 1_555 1_555
C4 C6 1_555 1_555
C5 C11 1_555 1_555
C6 H3 1_555 1_555
C7 H4 1_555 1_555
C8 C7 1_555 1_555
C9 C1 1_555 1_555
C10 C4 1_555 1_555
H5 C10 1_555 1_555
C11 C8 1_555 1_555
H6 C11 1_555 1_555
C12 C1 1_555 1_555
H7 C12 1_555 1_555
C13 C5 1_555 1_555
H8 C13 1_555 1_555
C14 C5 1_555 1_555
C15 C10 1_555 1_555
C16 C15 1_555 1_555
C17 C4 1_555 1_555
C18 C8 1_555 1_555
C19 C20 1_555 1_555
C20 H9 1_555 1_555
C21 C22 1_555 1_555
C22 C2 1_555 1_555
H10 C22 1_555 1_555
C23 C19 1_555 1_555
H11 C23 1_555 1_555
C24 N1 1_555 1_555
H12 C24 1_555 1_555
C25 C21 1_555 1_555
H13 C25 1_555 1_555
H14 C25 1_555 1_555
C26 C19 1_555 1_555
H15 C26 1_555 1_555
H16 C26 1_555 1_555
C27 C3 1_555 1_555
H17 C27 1_555 1_555
C28 N1 1_555 1_555
H18 C28 1_555 1_555
O9 H19 1_555 1_555
H20 O9 1_555 1_555
O10 H21 1_555 1_555
H22 O10 1_555 1_555
N1A C24A 1_555 1_555
C19A C20A 1_555 1_555
C20A H9A 1_555 1_555
C23A C19A 1_555 1_555
H11A C23A 1_555 1_555
C24A C20A 1_555 1_555
H12A C24A 1_555 1_555
C26A C26 1_555 1_555
H15A C26A 1_555 1_555
H16A C26A 1_555 1_555
C28A N1A 1_555 1_555
H18A C28A 1_555 1_555
N2A C2A 1_555 1_555
C2A H1A 1_555 1_555
C3A N2A 1_555 1_555
H2A C3A 1_555 1_555
C21A C22A 1_555 1_555
C22A C2A 1_555 1_555
H10A C22A 1_555 1_555
C25A C25 1_555 1_555
H13A C25A 1_555 1_555
H14A C25A 1_555 1_555
C27A C3A 1_555 1_555
H17A C27A 1_555 1_555
Zn1A N1A 1_555 1_555
O1A Zn1A 1_555 1_555
O2A C16A 1_555 1_555
O3A C18A 1_555 1_555
O4A C14A 1_555 1_555
O5A C14A 1_555 1_555
O6A C18A 1_555 1_555
O7A C16A 1_555 1_555
O8A C17A 1_555 1_555
C1A C6A 1_555 1_555
C4A C6A 1_555 1_555
C5A C11A 1_555 1_555
C6A H3A 1_555 1_555
C7A H4A 1_555 1_555
C8A C7A 1_555 1_555
C9A C1A 1_555 1_555
C10A C4A 1_555 1_555
H5A C10A 1_555 1_555
C11A C8A 1_555 1_555
H6A C11A 1_555 1_555
C12A C1A 1_555 1_555
H7A C12A 1_555 1_555
C13A C5A 1_555 1_555
H8A C13A 1_555 1_555
C14A C5A 1_555 1_555
C15A C10A 1_555 1_555
C16A C15A 1_555 1_555
C17A O1A 1_555 1_555
C18A C8A 1_555 1_555
Zn1_2 O3 1_555 1_555
Zn1A_2 O3A 1_555 1_555
Zn1A_3 N2A 1_555 1_555
O3_2 Zn1 1_555 1_555
O3A_2 Zn1A 1_555 1_555
O6_2 Zn1 1_555 1_555
O6A_2 Zn1A 1_555 1_555
N2A_2 Zn1A 1_555 1_555
O6 Zn1_2 1_555 1_555
C7 C9 1_555 1_555
C9 C13 1_555 1_555
C12 C15 1_555 1_555
C20 C24 1_555 1_555
C21 C27 1_555 1_555
C23 C28 1_555 1_555
C19A C26A 1_555 1_555
C23A C28A 1_555 1_555
C21A C25A 1_555 1_555
C21A C27A 1_555 1_555
O6A Zn1A_2 1_555 1_555
C4A C17A 1_555 1_555
C7A C9A 1_555 1_555
C9A C13A 1_555 1_555
C12A C15A 1_555 1_555

#END
