
#######################################################################
#
#                 Cambridge Crystallographic Data Centre
#                                CCDC 
#
#######################################################################
#
# If this CIF has been generated from an entry in the Cambridge 
# Structural Database, then it will include bibliographic, chemical, 
# crystal, experimental, refinement or atomic coordinate data resulting 
# from the CCDC's data processing and validation procedures.
#
#######################################################################

data_LOJQEI
_symmetry_cell_setting           monoclinic
_symmetry_space_group_name_H-M   'P 21/c'
_symmetry_Int_Tables_number      14
_space_group_name_Hall           '-P 2ybc'
loop_
_symmetry_equiv_pos_site_id
_symmetry_equiv_pos_as_xyz
1 x,y,z
2 -x,1/2+y,1/2-z
3 -x,-y,-z
4 x,1/2-y,1/2+z
_cell_length_a                   9.806(2)
_cell_length_b                   15.893(3)
_cell_length_c                   12.212(5)
_cell_angle_alpha                90
_cell_angle_beta                 115.78(2)
_cell_angle_gamma                90
_cell_volume                     1713.78
loop_
_atom_site_label
_atom_site_type_symbol
_atom_site_fract_x
_atom_site_fract_y
_atom_site_fract_z
Zn1 Zn 0.90485(3) 0.113290(13) -0.16460(2)
O1 O 1.10441(16) 0.06663(10) -0.13632(14)
O2 O 1.22054(19) 0.13497(11) 0.03895(15)
O3 O 1.17433(16) -0.06660(10) 0.05534(14)
O4 O 1.37466(18) -0.14227(10) 0.17399(16)
N1 N 0.79071(19) 0.04865(10) -0.32163(16)
N2 N 0.7393(2) -0.05506(12) -0.45524(17)
H1 H 0.7397 -0.1044 -0.4840
N3 N 0.9923(2) -0.14822(11) -0.26709(17)
N4 N 1.0790(2) -0.26466(11) -0.30894(18)
C1 C 1.2182(2) 0.08291(13) -0.03592(19)
C2 C 1.3134(2) -0.08784(13) 0.09538(19)
C3 C 1.3623(2) 0.03665(12) -0.01595(18)
C4 C 1.4060(2) -0.04114(12) 0.04290(18)
C5 C 1.4569(2) 0.07599(13) -0.05808(19)
H2 H 1.4275 0.1274 -0.0978
C6 C 0.6950(2) 0.07939(13) -0.43645(19)
C7 C 0.6303(3) 0.15877(14) -0.4735(2)
H3 H 0.6494 0.2026 -0.4183
C8 C 0.5371(3) 0.16927(16) -0.5952(2)
H4 H 0.4917 0.2213 -0.6225
C9 C 0.5085(3) 0.10416(18) -0.6791(2)
H5 H 0.4454 0.1142 -0.7607
C10 C 0.5713(3) 0.02556(17) -0.6441(2)
H6 H 0.5530 -0.0179 -0.6998
C11 C 0.6636(3) 0.01486(14) -0.5208(2)
C12 C 0.8120(2) -0.03161(13) -0.3379(2)
C13 C 0.8979(3) -0.09122(13) -0.2362(2)
H7 H 0.9613 -0.0594 -0.1642
H8 H 0.8269 -0.1238 -0.2176
C14 C 0.9744(2) -0.23131(13) -0.2821(2)
H9 H 0.8979 -0.2617 -0.2745
C15 C 1.1689(3) -0.19919(15) -0.3096(3)
H10 H 1.2532 -0.2037 -0.3254
C16 C 1.1166(3) -0.12683(15) -0.2839(3)
H11 H 1.1571 -0.0733 -0.2786
O1B O 1.89559(16) -0.06663(10) 0.13632(14)
O2B O 1.77946(19) -0.13497(11) -0.03895(15)
O3B O 1.82567(16) 0.06660(10) -0.05534(14)
O4B O 1.62534(18) 0.14227(10) -0.17399(16)
C1B C 1.7818(2) -0.08291(13) 0.03592(19)
C2B C 1.6866(2) 0.08784(13) -0.09538(19)
C3B C 1.6377(2) -0.03665(12) 0.01595(18)
C4B C 1.5940(2) 0.04114(12) -0.04290(18)
C5B C 1.5431(2) -0.07599(13) 0.05808(19)
H2B H 1.5725 -0.1274 0.0978
Zn1B Zn 1.09515(3) -0.113290(13) 0.16460(2)
N1B N 1.20929(19) -0.04865(10) 0.32163(16)
N2B N 1.2607(2) 0.05506(12) 0.45524(17)
H1B H 1.2603 0.1044 0.4840
N3B N 1.0077(2) 0.14822(11) 0.26709(17)
N4B N 0.9210(2) 0.26466(11) 0.30894(18)
C6B C 1.3050(2) -0.07939(13) 0.43645(19)
C7B C 1.3697(3) -0.15877(14) 0.4735(2)
H3B H 1.3506 -0.2026 0.4183
C8B C 1.4629(3) -0.16927(16) 0.5952(2)
H4B H 1.5083 -0.2213 0.6225
C9B C 1.4915(3) -0.10416(18) 0.6791(2)
H5B H 1.5546 -0.1142 0.7607
C10B C 1.4287(3) -0.02556(17) 0.6441(2)
H6B H 1.4470 0.0179 0.6998
C11B C 1.3364(3) -0.01486(14) 0.5208(2)
C12B C 1.1880(2) 0.03161(13) 0.3379(2)
C13B C 1.1021(3) 0.09122(13) 0.2362(2)
H7B H 1.0387 0.0594 0.1642
H8B H 1.1731 0.1238 0.2176
C14B C 1.0256(2) 0.23131(13) 0.2821(2)
H9B H 1.1021 0.2617 0.2745
C15B C 0.8311(3) 0.19919(15) 0.3096(3)
H10B H 0.7468 0.2037 0.3254
C16B C 0.8834(3) 0.12683(15) 0.2839(3)
H11B H 0.8429 0.0733 0.2786
Zn1_2 Zn 1.90485(3) 0.113290(13) -0.16460(2)
Zn1A Zn 1.09515(3) -0.386710(13) -0.33540(2)
Zn1B_2 Zn 2.09515(3) -0.113290(13) 0.16460(2)
Zn1C Zn 0.90485(3) 0.386710(13) 0.33540(2)
O1B_2 O 0.89559(16) -0.06663(10) 0.13632(14)
O3B_2 O 0.82567(16) 0.06660(10) -0.05534(14)
N4A N 0.9210(2) 0.23534(11) -0.19106(18)
N4C N 1.0790(2) -0.23534(11) 0.19106(18)
O5 O 1.3186(3) 0.19575(14) -0.3874(2)
H12 H 1.2930 0.2470 -0.4030
H13 H 1.4083 0.1949 -0.3308
loop_
_geom_bond_atom_site_label_1
_geom_bond_atom_site_label_2
_geom_bond_site_symmetry_1
_geom_bond_site_symmetry_2
Zn1 O1 1_555 1_555
O1 C1 1_555 1_555
O2 C1 1_555 1_555
O3 C2 1_555 1_555
O4 C2 1_555 1_555
N1 Zn1 1_555 1_555
N2 H1 1_555 1_555
N3 C13 1_555 1_555
N4 C14 1_555 1_555
C1 C3 1_555 1_555
C2 C4 1_555 1_555
C3 C4 1_555 1_555
C4 C5B 1_555 1_555
C5 C3 1_555 1_555
H2 C5 1_555 1_555
C6 N1 1_555 1_555
C7 C6 1_555 1_555
H3 C7 1_555 1_555
C8 C7 1_555 1_555
H4 C8 1_555 1_555
C9 C8 1_555 1_555
H5 C9 1_555 1_555
C10 C9 1_555 1_555
H6 C10 1_555 1_555
C11 N2 1_555 1_555
C12 N1 1_555 1_555
C13 C12 1_555 1_555
H7 C13 1_555 1_555
H8 C13 1_555 1_555
C14 N3 1_555 1_555
H9 C14 1_555 1_555
C15 N4 1_555 1_555
H10 C15 1_555 1_555
C16 N3 1_555 1_555
H11 C16 1_555 1_555
O5 H12 1_555 1_555
H13 O5 1_555 1_555
O1B C1B 1_555 1_555
O2B C1B 1_555 1_555
O3B C2B 1_555 1_555
O4B C2B 1_555 1_555
C1B C3B 1_555 1_555
C2B C4B 1_555 1_555
C3B C4B 1_555 1_555
C4B C5 1_555 1_555
C5B C3B 1_555 1_555
H2B C5B 1_555 1_555
Zn1B O3 1_555 1_555
N1B Zn1B 1_555 1_555
N2B H1B 1_555 1_555
N3B C13B 1_555 1_555
N4B C14B 1_555 1_555
C6B N1B 1_555 1_555
C7B C6B 1_555 1_555
H3B C7B 1_555 1_555
C8B C7B 1_555 1_555
H4B C8B 1_555 1_555
C9B C8B 1_555 1_555
H5B C9B 1_555 1_555
C10B C9B 1_555 1_555
H6B C10B 1_555 1_555
C11B N2B 1_555 1_555
C12B N1B 1_555 1_555
C13B C12B 1_555 1_555
H7B C13B 1_555 1_555
H8B C13B 1_555 1_555
C14B N3B 1_555 1_555
H9B C14B 1_555 1_555
C15B N4B 1_555 1_555
H10B C15B 1_555 1_555
C16B N3B 1_555 1_555
H11B C16B 1_555 1_555
Zn1_2 O3B 1_555 1_555
Zn1A N4 1_555 1_555
Zn1B_2 O1B 1_555 1_555
Zn1C N4B 1_555 1_555
O1B_2 Zn1B 1_555 1_555
O3B_2 Zn1 1_555 1_555
N4A Zn1 1_555 1_555
N4C Zn1B 1_555 1_555
N2 C12 1_555 1_555
C6 C11 1_555 1_555
C10 C11 1_555 1_555
C15 C16 1_555 1_555
N2B C12B 1_555 1_555
C6B C11B 1_555 1_555
C10B C11B 1_555 1_555
C15B C16B 1_555 1_555

#END
