
#######################################################################
#
#                 Cambridge Crystallographic Data Centre
#                                CCDC 
#
#######################################################################
#
# If this CIF has been generated from an entry in the Cambridge 
# Structural Database, then it will include bibliographic, chemical, 
# crystal, experimental, refinement or atomic coordinate data resulting 
# from the CCDC's data processing and validation procedures.
#
#######################################################################

data_LOKCIY
_symmetry_cell_setting           orthorhombic
_symmetry_space_group_name_H-M   'F m m 2'
_symmetry_Int_Tables_number      42
_space_group_name_Hall           'F 2 -2'
loop_
_symmetry_equiv_pos_site_id
_symmetry_equiv_pos_as_xyz
1 x,y,z
2 -x,-y,z
3 -x,y,z
4 x,-y,z
5 x,1/2+y,1/2+z
6 -x,1/2-y,1/2+z
7 -x,1/2+y,1/2+z
8 x,1/2-y,1/2+z
9 1/2+x,y,1/2+z
10 1/2-x,-y,1/2+z
11 1/2-x,y,1/2+z
12 1/2+x,-y,1/2+z
13 1/2+x,1/2+y,z
14 1/2-x,1/2-y,z
15 1/2-x,1/2+y,z
16 1/2+x,1/2-y,z
_cell_length_a                   6.6654(4)
_cell_length_b                   11.2803(6)
_cell_length_c                   14.2135(7)
_cell_angle_alpha                90
_cell_angle_beta                 90
_cell_angle_gamma                90
_cell_volume                     1068.68
loop_
_atom_site_label
_atom_site_type_symbol
_atom_site_fract_x
_atom_site_fract_y
_atom_site_fract_z
Dy1 Dy 1.0000 0.5000 0.44060(4)
N1 N 1.0000 0.5000 0.7224(6)
H1 H 1.0000 0.5000 0.7829
N2 N 1.0000 0.6260(5) 0.5860(4)
C1 C 1.0000 0.6070(6) 0.6773(5)
O1 O 0.6625(7) 0.5000 0.444(2)
C2 C 0.5000 0.5000 0.4056(8)
H2 H 0.5000 0.5000 0.3402
N3 N 1.0000 0.7986(17) 0.6570(10)
N4 N 1.0000 0.7131(15) 0.7218(10)
N5 N 1.0000 0.7467(5) 0.5765(5)
O2 O 1.0000 0.3053(5) 0.3958(4)
O3 O 1.0000 0.5000 0.2757(6)
Dy1_2 Dy 0.0000 0.5000 0.44060(4)
N2A N 1.0000 0.3740(5) 0.5860(4)
C1A C 1.0000 0.3930(6) 0.6773(5)
O1A O 0.3375(7) 0.5000 0.444(2)
O1A_2 O 1.3375(7) 0.5000 0.444(2)
N3A N 1.0000 0.2014(17) 0.6570(10)
N4A N 1.0000 0.2869(15) 0.7218(10)
N5A N 1.0000 0.2533(5) 0.5765(5)
O2A O 1.0000 0.6947(5) 0.3958(4)
loop_
_geom_bond_atom_site_label_1
_geom_bond_atom_site_label_2
_geom_bond_site_symmetry_1
_geom_bond_site_symmetry_2
Dy1 N2 1_555 1_555
N1 H1 1_555 1_555
N2 C1 1_555 1_555
C1 N1 1_555 1_555
O1 Dy1 1_555 1_555
C2 O1 1_555 1_555
H2 C2 1_555 1_555
N3 N4 1_555 1_555
N4 C1 1_555 1_555
N5 N2 1_555 1_555
O2 Dy1 1_555 1_555
O3 Dy1 1_555 1_555
Dy1_2 O1A 1_555 1_555
N2A Dy1 1_555 1_555
C1A N1 1_555 1_555
O1A C2 1_555 1_555
O1A_2 Dy1 1_555 1_555
N3A N4A 1_555 1_555
N4A C1A 1_555 1_555
N5A N2A 1_555 1_555
O2A Dy1 1_555 1_555
N3 N5 1_555 1_555
N2A C1A 1_555 1_555
N3A N5A 1_555 1_555

#END
