
#######################################################################
#
#                 Cambridge Crystallographic Data Centre
#                                CCDC 
#
#######################################################################
#
# If this CIF has been generated from an entry in the Cambridge 
# Structural Database, then it will include bibliographic, chemical, 
# crystal, experimental, refinement or atomic coordinate data resulting 
# from the CCDC's data processing and validation procedures.
#
#######################################################################

data_LOKCOF
_symmetry_cell_setting           orthorhombic
_symmetry_space_group_name_H-M   'P b c a'
_symmetry_Int_Tables_number      61
_space_group_name_Hall           '-P 2ac 2ab'
loop_
_symmetry_equiv_pos_site_id
_symmetry_equiv_pos_as_xyz
1 x,y,z
2 1/2-x,-y,1/2+z
3 -x,1/2+y,1/2-z
4 1/2+x,1/2-y,-z
5 -x,-y,-z
6 1/2+x,y,1/2-z
7 x,1/2-y,1/2+z
8 1/2-x,1/2+y,z
_cell_length_a                   14.9729(6)
_cell_length_b                   14.7878(6)
_cell_length_c                   17.7603(7)
_cell_angle_alpha                90
_cell_angle_beta                 90
_cell_angle_gamma                90
_cell_volume                     3932.42
loop_
_atom_site_label
_atom_site_type_symbol
_atom_site_fract_x
_atom_site_fract_y
_atom_site_fract_z
C1 C 0.88680(19) 0.3916(2) 0.45704(16)
H1 H 0.9451 0.4127 0.4611
C2 C 0.8384(2) 0.3760(2) 0.52069(16)
H2 H 0.8640 0.3858 0.5677
C3 C 0.7514(2) 0.3457(2) 0.51562(16)
H3 H 0.7183 0.3332 0.5587
C4 C 0.7152(2) 0.3344(2) 0.44509(16)
H4 H 0.6562 0.3154 0.4405
C5 C 0.76450(17) 0.35074(18) 0.38110(14)
C6 C 0.71844(18) 0.34391(18) 0.30687(14)
C7 C 0.75446(18) 0.39206(19) 0.11940(15)
H5 H 0.8134 0.4104 0.1260
C8 C 0.71926(18) 0.39293(18) 0.04439(14)
C9 C 0.77755(19) 0.4214(2) -0.01350(16)
H6 H 0.8354 0.4390 -0.0015
C10 C 0.7502(2) 0.4235(2) -0.08704(16)
H7 H 0.7895 0.4415 -0.1247
C11 C 0.6633(2) 0.3986(2) -0.10508(16)
H8 H 0.6445 0.4004 -0.1550
C12 C 0.6049(2) 0.3713(2) -0.05005(15)
H9 H 0.5468 0.3557 -0.0633
C13 C 0.63089(18) 0.36637(18) 0.02573(14)
Dy1 Dy 0.548121(7) 0.319316(8) 0.197211(6)
N1 N 0.85156(14) 0.37696(14) 0.38825(12)
N2 N 0.75903(14) 0.37267(15) 0.24553(12)
H10 H 0.8127 0.3934 0.2467
N3 N 0.71050(14) 0.36776(15) 0.17858(12)
O1 O 0.90268(12) 0.39084(13) 0.32818(10)
O2 O 0.64064(14) 0.31443(14) 0.30589(10)
O3 O 0.57497(13) 0.33697(15) 0.07720(10)
O4 O 0.55357(15) 0.47036(15) 0.23964(16)
O5 O 0.45819(14) 0.28897(18) 0.30626(11)
O6 O 0.44378(13) 0.20692(14) 0.15069(12)
O7 O 0.62111(15) 0.17813(14) 0.19571(13)
H11 H 0.592(2) 0.516(2) 0.224(2)
H12 H 0.421(3) 0.238(2) 0.302(2)
H13 H 0.397(2) 0.192(2) 0.183(2)
H14 H 0.6820(14) 0.175(3) 0.207(2)
H15 H 0.468(2) 0.1559(19) 0.129(2)
H16 H 0.603(2) 0.127(2) 0.171(2)
H17 H 0.472(3) 0.294(3) 0.3573(12)
H18 H 0.528(3) 0.488(3) 0.2855(15)
Dy1E Dy 1.048121(7) 0.319316(8) 0.302789(6)
O1E O 0.40268(12) 0.39084(13) 0.17182(10)
Cl1 Cl 0.31962(5) 0.36398(5) 0.78032(4)
Cl2 Cl 0.97014(6) 0.52627(6) 0.10636(5)
O8 O 0.4870(2) 0.32039(17) 0.45874(15)
H19 H 0.489(3) 0.3818(12) 0.472(2)
H20 H 0.479(3) 0.288(2) 0.5031(16)
loop_
_geom_bond_atom_site_label_1
_geom_bond_atom_site_label_2
_geom_bond_site_symmetry_1
_geom_bond_site_symmetry_2
C1 H1 1_555 1_555
C2 C1 1_555 1_555
H2 C2 1_555 1_555
C3 C2 1_555 1_555
H3 C3 1_555 1_555
C4 C3 1_555 1_555
H4 C4 1_555 1_555
C5 C4 1_555 1_555
C6 C5 1_555 1_555
C7 H5 1_555 1_555
C8 C7 1_555 1_555
C9 C8 1_555 1_555
H6 C9 1_555 1_555
C10 C9 1_555 1_555
H7 C10 1_555 1_555
C11 C10 1_555 1_555
H8 C11 1_555 1_555
C12 C11 1_555 1_555
H9 C12 1_555 1_555
C13 C8 1_555 1_555
Dy1 N3 1_555 1_555
N1 C1 1_555 1_555
N2 C6 1_555 1_555
H10 N2 1_555 1_555
N3 C7 1_555 1_555
O1 N1 1_555 1_555
O2 C6 1_555 1_555
O3 C13 1_555 1_555
O4 Dy1 1_555 1_555
O5 Dy1 1_555 1_555
O6 Dy1 1_555 1_555
O7 Dy1 1_555 1_555
H11 O4 1_555 1_555
H12 O5 1_555 1_555
H13 O6 1_555 1_555
H14 O7 1_555 1_555
H15 O6 1_555 1_555
H16 O7 1_555 1_555
H17 O5 1_555 1_555
H18 O4 1_555 1_555
O8 H19 1_555 1_555
H20 O8 1_555 1_555
Dy1E O1 1_555 1_555
O1E Dy1 1_555 1_555
C5 N1 1_555 1_555
C12 C13 1_555 1_555
Dy1 O2 1_555 1_555
Dy1 O3 1_555 1_555
N2 N3 1_555 1_555

#END
