
#######################################################################
#
#                 Cambridge Crystallographic Data Centre
#                                CCDC 
#
#######################################################################
#
# If this CIF has been generated from an entry in the Cambridge 
# Structural Database, then it will include bibliographic, chemical, 
# crystal, experimental, refinement or atomic coordinate data resulting 
# from the CCDC's data processing and validation procedures.
#
#######################################################################

data_LOKGEY
_symmetry_cell_setting           monoclinic
_symmetry_space_group_name_H-M   'C 2/c'
_symmetry_Int_Tables_number      15
_space_group_name_Hall           '-C 2yn'
loop_
_symmetry_equiv_pos_site_id
_symmetry_equiv_pos_as_xyz
1 x,y,z
2 -x,y,1/2-z
3 1/2+x,1/2+y,z
4 1/2-x,1/2+y,1/2-z
5 -x,-y,-z
6 x,-y,1/2+z
7 1/2-x,1/2-y,-z
8 1/2+x,1/2-y,1/2+z
_cell_length_a                   25.987(3)
_cell_length_b                   19.128(3)
_cell_length_c                   15.500(2)
_cell_angle_alpha                90
_cell_angle_beta                 121.353(9)
_cell_angle_gamma                90
_cell_volume                     6579.67
loop_
_atom_site_label
_atom_site_type_symbol
_atom_site_fract_x
_atom_site_fract_y
_atom_site_fract_z
Cu1 Cu 1.0000 -0.89437(4) 1.7500
Cl1 Cl 1.05849(5) -0.88836(7) 1.63823(9)
N1 N 0.94196(15) -0.82002(17) 1.6554(3)
N2 N 0.82638(17) -0.63273(19) 1.3922(3)
H1 H 0.8467 -0.6615 1.3800
N3 N 0.83033(18) -0.16096(19) 1.4002(3)
H2 H 0.8510 -0.1314 1.3830
N4 N 0.94285(16) 0.02907(18) 1.6598(3)
O1 O 0.77855(17) -0.64521(19) 1.4799(3)
O2 O 0.7927(3) -0.1612(3) 1.5031(4)
C1 C 0.9606(2) -0.7677(2) 1.6214(4)
H3 H 1.0011 -0.7655 1.6418
C2 C 0.9224(2) -0.7166(3) 1.5576(4)
H4 H 0.9373 -0.6810 1.5357
C3 C 0.8621(2) -0.7185(2) 1.5262(3)
C4 C 0.84295(19) -0.7733(2) 1.5605(3)
H5 H 0.8026 -0.7768 1.5407
C5 C 0.88318(19) -0.8223(2) 1.6236(3)
H6 H 0.8692 -0.8589 1.6455
C6 C 0.8180(2) -0.6619(2) 1.4633(3)
C7 C 0.7942(2) -0.5768(2) 1.3281(3)
C8 C 0.7453(2) -0.5452(3) 1.3228(4)
H7 H 0.7302 -0.5623 1.3614
C9 C 0.7182(2) -0.4879(3) 1.2603(4)
H8 H 0.6852 -0.4673 1.2583
C10 C 0.7384(2) -0.4605(2) 1.2016(3)
C11 C 0.7846(3) -0.4946(3) 1.2027(4)
H9 H 0.7979 -0.4790 1.1608
C12 C 0.8124(3) -0.5518(3) 1.2645(4)
H10 H 0.8439 -0.5738 1.2632
C13 C 0.7112(2) -0.3947(2) 1.1403(3)
H11 H 0.7169 -0.3945 1.0833
H12 H 0.6682 -0.3941 1.1142
C14 C 0.7398(2) -0.3301(2) 1.2039(3)
C15 C 0.7890(3) -0.2991(3) 1.2117(4)
H13 H 0.8039 -0.3161 1.1727
C16 C 0.8180(3) -0.2428(3) 1.2757(4)
H14 H 0.8514 -0.2227 1.2784
C17 C 0.7975(2) -0.2170(2) 1.3346(3)
C18 C 0.7465(2) -0.2454(3) 1.3251(5)
H15 H 0.7306 -0.2272 1.3619
C19 C 0.7185(2) -0.3015(3) 1.2605(5)
H16 H 0.6841 -0.3204 1.2554
C20 C 0.8272(3) -0.1376(3) 1.4791(5)
C21 C 0.9280(2) 0.0217(2) 1.5645(4)
H17 H 0.9431 0.0538 1.5382
C22 C 0.8914(2) -0.0311(2) 1.5024(4)
H18 H 0.8826 -0.0344 1.4363
C23 C 0.8679(2) -0.0788(2) 1.5393(4)
C24 C 0.8836(3) -0.0717(3) 1.6385(5)
H19 H 0.8685 -0.1030 1.6658
C25 C 0.9216(3) -0.0185(3) 1.6978(4)
H20 H 0.9327 -0.0154 1.7653
Cu1_2 Cu 1.0000 0.10563(4) 1.7500
Cl1A Cl 0.94151(5) -0.88836(7) 1.86177(9)
N1A N 1.05804(15) -0.82002(17) 1.8446(3)
N2A N 1.17362(17) -0.63273(19) 2.1078(3)
H1A H 1.1533 -0.6615 2.1200
N3A N 1.16967(18) -0.16096(19) 2.0998(3)
H2A H 1.1490 -0.1314 2.1170
N4A N 1.05715(16) 0.02907(18) 1.8402(3)
N4_2 N 0.94285(16) -0.97093(18) 1.6598(3)
N4A_2 N 1.05715(16) -0.97093(18) 1.8402(3)
O1A O 1.22145(17) -0.64521(19) 2.0201(3)
O2A O 1.2073(3) -0.1612(3) 1.9969(4)
C1A C 1.0394(2) -0.7677(2) 1.8786(4)
H3A H 0.9989 -0.7655 1.8582
C2A C 1.0776(2) -0.7166(3) 1.9424(4)
H4A H 1.0627 -0.6810 1.9643
C3A C 1.1379(2) -0.7185(2) 1.9738(3)
C4A C 1.15705(19) -0.7733(2) 1.9395(3)
H5A H 1.1974 -0.7768 1.9593
C5A C 1.11682(19) -0.8223(2) 1.8764(3)
H6A H 1.1308 -0.8589 1.8545
C6A C 1.1820(2) -0.6619(2) 2.0367(3)
C7A C 1.2058(2) -0.5768(2) 2.1719(3)
C8A C 1.2547(2) -0.5452(3) 2.1772(4)
H7A H 1.2698 -0.5623 2.1386
C9A C 1.2818(2) -0.4879(3) 2.2397(4)
H8A H 1.3148 -0.4673 2.2417
C10A C 1.2616(2) -0.4605(2) 2.2984(3)
C11A C 1.2154(3) -0.4946(3) 2.2973(4)
H9A H 1.2021 -0.4790 2.3392
C12A C 1.1876(3) -0.5518(3) 2.2355(4)
H10A H 1.1561 -0.5738 2.2368
C13A C 1.2888(2) -0.3947(2) 2.3597(3)
H11A H 1.2831 -0.3945 2.4167
H12A H 1.3318 -0.3941 2.3858
C14A C 1.2602(2) -0.3301(2) 2.2961(3)
C15A C 1.2110(3) -0.2991(3) 2.2883(4)
H13A H 1.1961 -0.3161 2.3273
C16A C 1.1820(3) -0.2428(3) 2.2243(4)
H14A H 1.1486 -0.2227 2.2216
C17A C 1.2025(2) -0.2170(2) 2.1654(3)
C18A C 1.2535(2) -0.2454(3) 2.1749(5)
H15A H 1.2694 -0.2272 2.1381
C19A C 1.2815(2) -0.3015(3) 2.2395(5)
H16A H 1.3159 -0.3204 2.2446
C20A C 1.1728(3) -0.1376(3) 2.0209(5)
C21A C 1.0720(2) 0.0217(2) 1.9355(4)
H17A H 1.0569 0.0538 1.9618
C22A C 1.1086(2) -0.0311(2) 1.9976(4)
H18A H 1.1174 -0.0344 2.0637
C23A C 1.1321(2) -0.0788(2) 1.9607(4)
C24A C 1.1164(3) -0.0717(3) 1.8615(5)
H19A H 1.1315 -0.1030 1.8342
C25A C 1.0784(3) -0.0185(3) 1.8022(4)
H20A H 1.0673 -0.0154 1.7347
loop_
_geom_bond_atom_site_label_1
_geom_bond_atom_site_label_2
_geom_bond_site_symmetry_1
_geom_bond_site_symmetry_2
Cu1 Cl1 1_555 1_555
N1 Cu1 1_555 1_555
N2 H1 1_555 1_555
N3 H2 1_555 1_555
N4 C21 1_555 1_555
O1 C6 1_555 1_555
O2 C20 1_555 1_555
C1 N1 1_555 1_555
H3 C1 1_555 1_555
C2 C1 1_555 1_555
H4 C2 1_555 1_555
C3 C2 1_555 1_555
C4 C3 1_555 1_555
H5 C4 1_555 1_555
C5 N1 1_555 1_555
H6 C5 1_555 1_555
C6 N2 1_555 1_555
C7 N2 1_555 1_555
C8 C7 1_555 1_555
H7 C8 1_555 1_555
C9 C8 1_555 1_555
H8 C9 1_555 1_555
C10 C9 1_555 1_555
C11 C10 1_555 1_555
H9 C11 1_555 1_555
C12 C7 1_555 1_555
H10 C12 1_555 1_555
C13 C10 1_555 1_555
H11 C13 1_555 1_555
H12 C13 1_555 1_555
C14 C13 1_555 1_555
C15 C14 1_555 1_555
H13 C15 1_555 1_555
C16 C15 1_555 1_555
H14 C16 1_555 1_555
C17 N3 1_555 1_555
C18 C17 1_555 1_555
H15 C18 1_555 1_555
C19 C14 1_555 1_555
H16 C19 1_555 1_555
C20 N3 1_555 1_555
C21 H17 1_555 1_555
C22 C21 1_555 1_555
H18 C22 1_555 1_555
C23 C20 1_555 1_555
C24 C23 1_555 1_555
H19 C24 1_555 1_555
C25 N4 1_555 1_555
H20 C25 1_555 1_555
Cu1_2 N4 1_555 1_555
Cl1A Cu1 1_555 1_555
N1A Cu1 1_555 1_555
N2A H1A 1_555 1_555
N3A H2A 1_555 1_555
N4A Cu1_2 1_555 1_555
N4_2 Cu1 1_555 1_555
N4A_2 Cu1 1_555 1_555
O1A C6A 1_555 1_555
O2A C20A 1_555 1_555
C1A N1A 1_555 1_555
H3A C1A 1_555 1_555
C2A C1A 1_555 1_555
H4A C2A 1_555 1_555
C3A C2A 1_555 1_555
C4A C3A 1_555 1_555
H5A C4A 1_555 1_555
C5A N1A 1_555 1_555
H6A C5A 1_555 1_555
C6A N2A 1_555 1_555
C7A N2A 1_555 1_555
C8A C7A 1_555 1_555
H7A C8A 1_555 1_555
C9A C8A 1_555 1_555
H8A C9A 1_555 1_555
C10A C9A 1_555 1_555
C11A C10A 1_555 1_555
H9A C11A 1_555 1_555
C12A C7A 1_555 1_555
H10A C12A 1_555 1_555
C13A C10A 1_555 1_555
H11A C13A 1_555 1_555
H12A C13A 1_555 1_555
C14A C13A 1_555 1_555
C15A C14A 1_555 1_555
H13A C15A 1_555 1_555
C16A C15A 1_555 1_555
H14A C16A 1_555 1_555
C17A N3A 1_555 1_555
C18A C17A 1_555 1_555
H15A C18A 1_555 1_555
C19A C14A 1_555 1_555
H16A C19A 1_555 1_555
C20A N3A 1_555 1_555
C21A N4A 1_555 1_555
H17A C21A 1_555 1_555
C22A C21A 1_555 1_555
H18A C22A 1_555 1_555
C23A C20A 1_555 1_555
C24A C23A 1_555 1_555
H19A C24A 1_555 1_555
C25A N4A 1_555 1_555
H20A C25A 1_555 1_555
C3 C6 1_555 1_555
C4 C5 1_555 1_555
C11 C12 1_555 1_555
C16 C17 1_555 1_555
C18 C19 1_555 1_555
C22 C23 1_555 1_555
C24 C25 1_555 1_555
C3A C6A 1_555 1_555
C4A C5A 1_555 1_555
C11A C12A 1_555 1_555
C16A C17A 1_555 1_555
C18A C19A 1_555 1_555
C22A C23A 1_555 1_555
C24A C25A 1_555 1_555

#END
