
#######################################################################
#
#                 Cambridge Crystallographic Data Centre
#                                CCDC 
#
#######################################################################
#
# If this CIF has been generated from an entry in the Cambridge 
# Structural Database, then it will include bibliographic, chemical, 
# crystal, experimental, refinement or atomic coordinate data resulting 
# from the CCDC's data processing and validation procedures.
#
#######################################################################

data_LOLJOM
_symmetry_cell_setting           triclinic
_symmetry_space_group_name_H-M   'P -1'
_symmetry_Int_Tables_number      2
_space_group_name_Hall           '-P 1'
loop_
_symmetry_equiv_pos_site_id
_symmetry_equiv_pos_as_xyz
1 x,y,z
2 -x,-y,-z
_cell_length_a                   12.479(5)
_cell_length_b                   13.425(5)
_cell_length_c                   13.518(5)
_cell_angle_alpha                97.970(5)
_cell_angle_beta                 105.575(5)
_cell_angle_gamma                114.903(5)
_cell_volume                     1894.79
loop_
_atom_site_label
_atom_site_type_symbol
_atom_site_fract_x
_atom_site_fract_y
_atom_site_fract_z
Cu1 Cu 0.37413(3) 0.35869(3) 0.97619(3)
Cu2 Cu 0.15320(3) 0.03378(3) 0.58615(3)
Cl1 Cl 0.52142(6) 0.42571(6) 0.89500(5)
Cl2 Cl -0.00245(6) 0.06552(7) 0.62072(5)
N1 N 0.2550(2) 0.3878(2) 0.8729(2)
N2 N 0.1407(2) 0.3513(2) 0.8843(2)
N3 N 0.2033(2) 0.2502(2) 0.9944(2)
N4 N 0.4737(2) 0.3196(2) 1.08875(18)
N5 N 0.0999(2) -0.1176(2) 0.61391(19)
N6 N 0.33812(19) 0.05754(19) 0.60863(17)
N7 N 0.3366(2) 0.2078(2) 0.53818(19)
N8 N 0.2282(2) 0.1821(2) 0.55674(18)
C1 C 0.2445(3) 0.4238(2) 0.7862(3)
H1 H 0.3098 0.4536 0.7580
C2 C 0.1236(3) 0.4115(3) 0.7423(3)
H2 H 0.0919 0.4318 0.6806
C3 C 0.0596(3) 0.3643(3) 0.8059(3)
H3 H -0.0258 0.3445 0.7964
C4 C 0.1283(3) 0.3110(3) 0.9769(3)
H4 H 0.0382 0.2586 0.9633
H5 H 0.1611 0.3765 1.0407
C5 C 0.2179(3) 0.2310(3) 1.1024(3)
H6 H 0.2194 0.1576 1.1003
H7 H 0.1438 0.2248 1.1202
C6 C 0.3380(3) 0.3270(3) 1.1889(3)
H8 H 0.3474 0.4019 1.1801
H9 H 0.3328 0.3237 1.2603
C7 C 0.4510(3) 0.3165(3) 1.1822(2)
C8 C 0.5271(3) 0.2986(3) 1.2655(3)
H10 H 0.5117 0.2984 1.3306
C9 C 0.6242(3) 0.2813(3) 1.2543(3)
H11 H 0.6773 0.2701 1.3117
C10 C 0.6439(3) 0.2802(3) 1.1591(3)
H12 H 0.7090 0.2657 1.1488
C11 C 0.5681(3) 0.3003(2) 1.0787(2)
H13 H 0.5831 0.3006 1.0134
C12 C 0.1344(3) 0.1365(3) 0.9075(2)
H14 H 0.0691 0.0789 0.9275
H15 H 0.0908 0.1457 0.8393
C13 C 0.2242(2) 0.0943(2) 0.8918(2)
C14 C 0.2459(3) 0.0184(3) 0.9434(2)
H16 H 0.2024 -0.0097 0.9896
C15 C 0.3313(3) -0.0160(3) 0.9271(2)
H17 H 0.3478 -0.0661 0.9643
C16 C 0.3935(3) 0.0207(3) 0.8578(2)
H18 H 0.4519 -0.0039 0.8478
C17 C 0.3697(2) 0.0942(2) 0.8029(2)
C18 C 0.2872(2) 0.1319(2) 0.8221(2)
H19 H 0.2732 0.1843 0.7871
C19 C 0.4284(2) 0.1314(2) 0.7213(2)
H20 H 0.5075 0.1256 0.7367
H21 H 0.4507 0.2125 0.7269
C20 C 0.0322(3) -0.1498(3) 0.6769(2)
H22 H 0.0104 -0.0977 0.7099
C21 C -0.0068(3) -0.2558(4) 0.6954(3)
H23 H -0.0527 -0.2752 0.7419
C22 C 0.0214(3) -0.3323(3) 0.6460(4)
H24 H -0.0056 -0.4061 0.6569
C23 C 0.0895(3) -0.3009(3) 0.5803(3)
H25 H 0.1084 -0.3537 0.5443
C24 C 0.1307(3) -0.1914(3) 0.5669(2)
C25 C 0.2171(3) -0.1508(3) 0.5067(2)
H26 H 0.1793 -0.1254 0.4479
H27 H 0.2294 -0.2143 0.4747
C26 C 0.3451(3) -0.0510(2) 0.5835(2)
H28 H 0.3717 -0.0702 0.6508
H29 H 0.4098 -0.0396 0.5506
C27 C 0.3730(3) 0.1188(3) 0.5300(2)
H30 H 0.4655 0.1529 0.5462
H31 H 0.3280 0.0653 0.4565
C28 C 0.3838(3) 0.3109(3) 0.5209(3)
H32 H 0.4586 0.3469 0.5054
C29 C 0.3049(3) 0.3553(3) 0.5295(3)
H33 H 0.3137 0.4273 0.5217
C30 C 0.2088(3) 0.2721(3) 0.5523(2)
H34 H 0.1396 0.2785 0.5631
Cu1A Cu 0.62587(3) 0.64131(3) 1.02381(3)
Cu2A Cu -0.15320(3) -0.03378(3) 0.41385(3)
Cl1A Cl 0.47858(6) 0.57429(6) 1.10500(5)
Cl2A Cl 0.00245(6) -0.06552(7) 0.37928(5)
Cl3 Cl 0.26631(9) 0.59304(8) 0.36639(10)
O1 O 0.1436(9) 0.5926(10) 0.3347(8)
O2 O 0.2540(4) 0.4883(4) 0.3132(4)
O3 O 0.3533(3) 0.6859(3) 0.3402(3)
O7 O 0.3615(7) 0.7065(7) 0.4823(7)
Cl5 Cl 0.27117(7) -0.03106(8) 0.22477(6)
O9 O 0.2942(4) -0.0807(3) 0.3070(3)
O10 O 0.1554(4) -0.0933(5) 0.1397(3)
O11 O 0.2776(5) 0.0778(4) 0.2752(3)
O12 O 0.3740(3) 0.0036(4) 0.1860(3)
N9 N 0.0680(5) 0.6355(5) 0.9235(4)
C31 C 0.2125(5) 0.6449(5) 1.1062(5)
H35 H 0.2524 0.7220 1.1556
H36 H 0.2783 0.6264 1.0982
H37 H 0.1587 0.5889 1.1349
C32 C 0.1358(5) 0.6410(5) 1.0030(5)
Cl4? Cl 0.2533(3) 0.5910(3) 0.4311(3)
O4? O 0.3119(4) 0.6110(4) 0.4801(3)
O5? O 0.154(3) 0.591(3) 0.363(3)
O6? O 0.2918(12) 0.5221(11) 0.3717(10)
O8? O 0.2168(7) 0.5433(7) 0.5113(7)
O13? O 0.1560(14) -0.1431(15) 0.208(2)
O14? O 0.211(2) 0.023(2) 0.198(2)
O15? O 0.3075(13) -0.0887(16) 0.1415(12)
loop_
_geom_bond_atom_site_label_1
_geom_bond_atom_site_label_2
_geom_bond_site_symmetry_1
_geom_bond_site_symmetry_2
Cu1 Cl1 1_555 1_555
Cu2 Cl2 1_555 1_555
Cl1 Cu1A 1_555 1_555
Cl2 Cu2A 1_555 1_555
Cl3 O1 1_555 1_555
Cl5 O9 1_555 1_555
O2 Cl3 1_555 1_555
O3 Cl3 1_555 1_555
O7 Cl3 1_555 1_555
O10 Cl5 1_555 1_555
O11 Cl5 1_555 1_555
O12 Cl5 1_555 1_555
N1 Cu1 1_555 1_555
N2 N1 1_555 1_555
N3 Cu1 1_555 1_555
N4 Cu1 1_555 1_555
N5 Cu2 1_555 1_555
N6 Cu2 1_555 1_555
N7 N8 1_555 1_555
N8 Cu2 1_555 1_555
N9 C32 1_555 1_555
C1 N1 1_555 1_555
H1 C1 1_555 1_555
C2 C1 1_555 1_555
H2 C2 1_555 1_555
C3 N2 1_555 1_555
H3 C3 1_555 1_555
C4 N2 1_555 1_555
H4 C4 1_555 1_555
H5 C4 1_555 1_555
C5 N3 1_555 1_555
H6 C5 1_555 1_555
H7 C5 1_555 1_555
C6 C5 1_555 1_555
H8 C6 1_555 1_555
H9 C6 1_555 1_555
C7 N4 1_555 1_555
C8 C7 1_555 1_555
H10 C8 1_555 1_555
C9 C8 1_555 1_555
H11 C9 1_555 1_555
C10 C9 1_555 1_555
H12 C10 1_555 1_555
C11 N4 1_555 1_555
H13 C11 1_555 1_555
C12 N3 1_555 1_555
H14 C12 1_555 1_555
H15 C12 1_555 1_555
C13 C12 1_555 1_555
C14 C13 1_555 1_555
H16 C14 1_555 1_555
C15 C14 1_555 1_555
H17 C15 1_555 1_555
C16 C15 1_555 1_555
H18 C16 1_555 1_555
C17 C16 1_555 1_555
C18 C13 1_555 1_555
H19 C18 1_555 1_555
C19 N6 1_555 1_555
H20 C19 1_555 1_555
H21 C19 1_555 1_555
C20 N5 1_555 1_555
H22 C20 1_555 1_555
C21 C20 1_555 1_555
H23 C21 1_555 1_555
C22 C21 1_555 1_555
H24 C22 1_555 1_555
C23 C22 1_555 1_555
H25 C23 1_555 1_555
C24 N5 1_555 1_555
C25 C24 1_555 1_555
H26 C25 1_555 1_555
H27 C25 1_555 1_555
C26 N6 1_555 1_555
H28 C26 1_555 1_555
H29 C26 1_555 1_555
C27 N6 1_555 1_555
H30 C27 1_555 1_555
H31 C27 1_555 1_555
C28 N7 1_555 1_555
H32 C28 1_555 1_555
C29 C28 1_555 1_555
H33 C29 1_555 1_555
C30 N8 1_555 1_555
H34 C30 1_555 1_555
C31 H35 1_555 1_555
H36 C31 1_555 1_555
H37 C31 1_555 1_555
C32 C31 1_555 1_555
Cu1A Cl1A 1_555 1_555
Cu2A Cl2A 1_555 1_555
Cl1A Cu1 1_555 1_555
Cl2A Cu2 1_555 1_555
N3 C4 1_555 1_555
N7 C27 1_555 1_555
C2 C3 1_555 1_555
C6 C7 1_555 1_555
C10 C11 1_555 1_555
C17 C18 1_555 1_555
C17 C19 1_555 1_555
C23 C24 1_555 1_555
C25 C26 1_555 1_555
C29 C30 1_555 1_555

#END
