
#######################################################################
#
#                 Cambridge Crystallographic Data Centre
#                                CCDC 
#
#######################################################################
#
# If this CIF has been generated from an entry in the Cambridge 
# Structural Database, then it will include bibliographic, chemical, 
# crystal, experimental, refinement or atomic coordinate data resulting 
# from the CCDC's data processing and validation procedures.
#
#######################################################################

data_LOLJIG
_symmetry_cell_setting           triclinic
_symmetry_space_group_name_H-M   'P -1'
_symmetry_Int_Tables_number      2
_space_group_name_Hall           '-P 1'
loop_
_symmetry_equiv_pos_site_id
_symmetry_equiv_pos_as_xyz
1 x,y,z
2 -x,-y,-z
_cell_length_a                   13.003(5)
_cell_length_b                   13.901(5)
_cell_length_c                   14.677(5)
_cell_angle_alpha                67.336(5)
_cell_angle_beta                 68.221(5)
_cell_angle_gamma                65.221(5)
_cell_volume                     2152.06
loop_
_atom_site_label
_atom_site_type_symbol
_atom_site_fract_x
_atom_site_fract_y
_atom_site_fract_z
Cu1 Cu 0.57281(3) 0.06189(2) 0.53401(2)
Cu2 Cu 0.42357(3) 0.10920(2) 0.90845(2)
Cl1 Cl 0.39125(5) 0.03922(5) 0.60634(4)
Cl2 Cl 0.60264(5) -0.02881(5) 0.88858(4)
N1 N 0.65309(19) -0.08465(18) 0.62024(15)
N2 N 0.72672(18) 0.08660(17) 0.51334(15)
N3 N 0.51370(19) 0.21195(17) 0.44163(16)
N4 N 0.48893(18) 0.21613(17) 0.91012(15)
N5 N 0.27604(18) 0.23786(17) 0.87001(16)
N6 N 0.33507(19) 0.02154(17) 0.90510(16)
C1 C 0.6044(2) -0.1589(2) 0.69581(19)
H1 H 0.5219 -0.1418 0.7145
C2 C 0.6715(3) -0.2582(2) 0.7461(2)
H2 H 0.6351 -0.3085 0.7992
C3 C 0.7914(3) -0.2848(2) 0.7193(2)
H3 H 0.8388 -0.3537 0.7523
C4 C 0.8415(3) -0.2085(2) 0.6430(2)
H4 H 0.9239 -0.2241 0.6236
C5 C 0.7703(2) -0.1098(2) 0.59566(19)
C6 C 0.8164(2) -0.0228(2) 0.5120(2)
H5 H 0.8888 -0.0250 0.5218
H6 H 0.8356 -0.0365 0.4452
C7 C 0.7618(2) 0.1693(2) 0.41692(19)
H7 H 0.8482 0.1463 0.3934
H8 H 0.7343 0.2415 0.4309
C8 C 0.7114(2) 0.1820(2) 0.33236(19)
H9 H 0.7548 0.2183 0.2656
H10 H 0.7203 0.1085 0.3303
C9 C 0.5846(2) 0.2497(2) 0.35177(19)
C10 C 0.5433(3) 0.3503(2) 0.2845(2)
H11 H 0.5938 0.3746 0.2211
C11 C 0.4276(3) 0.4156(2) 0.3103(2)
H12 H 0.3976 0.4840 0.2643
C12 C 0.3569(3) 0.3793(2) 0.4041(2)
H13 H 0.2785 0.4239 0.4251
C13 C 0.4022(2) 0.2771(2) 0.4669(2)
H14 H 0.3527 0.2517 0.5306
C14 C 0.7217(2) 0.1167(2) 0.60335(19)
H15 H 0.7199 0.0527 0.6643
H16 H 0.7934 0.1340 0.5899
C15 C 0.6163(2) 0.2139(2) 0.62490(18)
C16 C 0.6230(3) 0.3196(2) 0.5927(2)
H17 H 0.6966 0.3311 0.5593
C17 C 0.5234(3) 0.4082(2) 0.6089(2)
H18 H 0.5291 0.4801 0.5852
C18 C 0.4155(3) 0.3933(2) 0.6590(2)
H19 H 0.3474 0.4551 0.6681
C19 C 0.4064(2) 0.2875(2) 0.69630(19)
C20 C 0.5071(2) 0.1993(2) 0.67852(18)
H20 H 0.5018 0.1271 0.7035
C21 C 0.2916(2) 0.2680(2) 0.75636(19)
H21 H 0.2870 0.2078 0.7393
H22 H 0.2270 0.3354 0.7365
C22 C 0.6030(2) 0.2074(2) 0.86813(19)
H23 H 0.6521 0.1513 0.8346
C23 C 0.6508(2) 0.2774(2) 0.8722(2)
H24 H 0.7313 0.2698 0.8417
C24 C 0.5794(3) 0.3585(2) 0.9214(2)
H25 H 0.6104 0.4068 0.9259
C25 C 0.4628(2) 0.3686(2) 0.9637(2)
H26 H 0.4127 0.4241 0.9976
C26 C 0.4186(2) 0.2968(2) 0.95640(19)
C27 C 0.2902(2) 0.3123(2) 0.99278(19)
H27 H 0.2490 0.3732 1.0257
H28 H 0.2767 0.2443 1.0437
C28 C 0.2430(2) 0.3389(2) 0.9022(2)
H29 H 0.1567 0.3713 0.9208
H30 H 0.2747 0.3940 0.8444
C29 C 0.1798(2) 0.1890(2) 0.9241(2)
H31 H 0.1110 0.2358 0.8954
H32 H 0.1561 0.1856 0.9974
C30 C 0.2201(2) 0.0759(2) 0.91238(19)
C31 C 0.1455(2) 0.0300(2) 0.9104(2)
H33 H 0.0649 0.0707 0.9152
C32 C 0.1906(3) -0.0770(2) 0.9014(2)
H34 H 0.1412 -0.1109 0.9004
C33 C 0.3082(3) -0.1327(2) 0.8941(2)
H35 H 0.3408 -0.2060 0.8882
C34 C 0.3784(2) -0.0812(2) 0.89542(19)
H36 H 0.4596 -0.1197 0.8893
Cu1A Cu 0.42719(3) -0.06189(2) 0.46599(2)
Cu2A Cu 0.57643(3) -0.10920(2) 1.09155(2)
Cl1A Cl 0.60875(5) -0.03922(5) 0.39366(4)
Cl2A Cl 0.39736(5) 0.02881(5) 1.11142(4)
Cl3 Cl 0.95292(6) 0.99091(6) 0.75960(5)
O1 O 1.05712(17) 1.02118(17) 0.72330(15)
O2 O 0.95215(18) 0.94147(19) 0.68971(16)
O3 O 0.9521(2) 0.9134(2) 0.85805(17)
O4 O 0.85222(19) 1.0878(2) 0.7648(2)
Cl4 Cl 0.16029(6) 0.60274(5) 0.05621(5)
O5 O 0.11264(19) 0.70346(17) 0.08477(18)
O6 O 0.06651(18) 0.56688(18) 0.06565(18)
O7 O 0.23039(19) 0.6184(2) -0.04729(17)
O8 O 0.23314(17) 0.51785(16) 0.12226(16)
O9 O 0.1247(2) 0.3575(2) 0.60012(17)
C35 C 0.0957(4) 0.2661(4) 0.6125(5)
H37 H 0.1101 0.2098 0.6769
H38 H 0.1436 0.2328 0.5552
C36 C -0.0325(4) 0.3068(4) 0.6148(6)
H39 H -0.0432 0.3186 0.5475
H40 H -0.0723 0.2543 0.6670
C37 C -0.0763(4) 0.4105(6) 0.6408(5)
H41 H -0.1379 0.4078 0.7056
H42 H -0.1102 0.4720 0.5865
C38 C 0.0226(4) 0.4268(3) 0.6512(3)
H43 H 0.0196 0.5047 0.6199
H44 H 0.0211 0.4067 0.7240
N7 N 0.8539(3) 0.3881(3) 0.3338(3)
C39 C 0.9778(4) 0.3403(3) 0.1643(3)
H45 H 1.0312 0.2645 0.1792
H46 H 1.0231 0.3907 0.1236
H47 H 0.9264 0.3464 0.1261
C40 C 0.9076(3) 0.3685(3) 0.2590(3)
loop_
_geom_bond_atom_site_label_1
_geom_bond_atom_site_label_2
_geom_bond_site_symmetry_1
_geom_bond_site_symmetry_2
Cu1 Cl1 1_555 1_555
Cu2 Cl2 1_555 1_555
Cl1 Cu1A 1_555 1_555
Cl2 Cu2A 1_555 1_555
Cl3 O1 1_555 1_555
Cl4 O5 1_555 1_555
O2 Cl3 1_555 1_555
O3 Cl3 1_555 1_555
O4 Cl3 1_555 1_555
O6 Cl4 1_555 1_555
O7 Cl4 1_555 1_555
O8 Cl4 1_555 1_555
O9 C35 1_555 1_555
N1 Cu1 1_555 1_555
N2 Cu1 1_555 1_555
N3 Cu1 1_555 1_555
N4 Cu2 1_555 1_555
N5 Cu2 1_555 1_555
N6 Cu2 1_555 1_555
N7 C40 1_555 1_555
C1 N1 1_555 1_555
H1 C1 1_555 1_555
C2 C1 1_555 1_555
H2 C2 1_555 1_555
C3 C2 1_555 1_555
H3 C3 1_555 1_555
C4 C3 1_555 1_555
H4 C4 1_555 1_555
C5 N1 1_555 1_555
C6 N2 1_555 1_555
H5 C6 1_555 1_555
H6 C6 1_555 1_555
C7 N2 1_555 1_555
H7 C7 1_555 1_555
H8 C7 1_555 1_555
C8 C7 1_555 1_555
H9 C8 1_555 1_555
H10 C8 1_555 1_555
C9 N3 1_555 1_555
C10 C9 1_555 1_555
H11 C10 1_555 1_555
C11 C10 1_555 1_555
H12 C11 1_555 1_555
C12 C11 1_555 1_555
H13 C12 1_555 1_555
C13 N3 1_555 1_555
H14 C13 1_555 1_555
C14 N2 1_555 1_555
H15 C14 1_555 1_555
H16 C14 1_555 1_555
C15 C14 1_555 1_555
C16 C15 1_555 1_555
H17 C16 1_555 1_555
C17 C16 1_555 1_555
H18 C17 1_555 1_555
C18 C17 1_555 1_555
H19 C18 1_555 1_555
C19 C18 1_555 1_555
C20 C15 1_555 1_555
H20 C20 1_555 1_555
C21 N5 1_555 1_555
H21 C21 1_555 1_555
H22 C21 1_555 1_555
C22 N4 1_555 1_555
H23 C22 1_555 1_555
C23 C22 1_555 1_555
H24 C23 1_555 1_555
C24 C23 1_555 1_555
H25 C24 1_555 1_555
C25 C24 1_555 1_555
H26 C25 1_555 1_555
C26 N4 1_555 1_555
C27 C26 1_555 1_555
H27 C27 1_555 1_555
H28 C27 1_555 1_555
C28 N5 1_555 1_555
H29 C28 1_555 1_555
H30 C28 1_555 1_555
C29 N5 1_555 1_555
H31 C29 1_555 1_555
H32 C29 1_555 1_555
C30 N6 1_555 1_555
C31 C30 1_555 1_555
H33 C31 1_555 1_555
C32 C31 1_555 1_555
H34 C32 1_555 1_555
C33 C32 1_555 1_555
H35 C33 1_555 1_555
C34 N6 1_555 1_555
H36 C34 1_555 1_555
C35 H37 1_555 1_555
H38 C35 1_555 1_555
C36 C35 1_555 1_555
H39 C36 1_555 1_555
H40 C36 1_555 1_555
C37 C36 1_555 1_555
H41 C37 1_555 1_555
H42 C37 1_555 1_555
C38 O9 1_555 1_555
H43 C38 1_555 1_555
H44 C38 1_555 1_555
C39 H45 1_555 1_555
H46 C39 1_555 1_555
H47 C39 1_555 1_555
C40 C39 1_555 1_555
Cu1A Cl1A 1_555 1_555
Cu2A Cl2A 1_555 1_555
Cl1A Cu1 1_555 1_555
Cl2A Cu2 1_555 1_555
C4 C5 1_555 1_555
C5 C6 1_555 1_555
C8 C9 1_555 1_555
C12 C13 1_555 1_555
C19 C20 1_555 1_555
C19 C21 1_555 1_555
C25 C26 1_555 1_555
C27 C28 1_555 1_555
C29 C30 1_555 1_555
C33 C34 1_555 1_555
C37 C38 1_555 1_555

#END
