
#######################################################################
#
#                 Cambridge Crystallographic Data Centre
#                                CCDC 
#
#######################################################################
#
# If this CIF has been generated from an entry in the Cambridge 
# Structural Database, then it will include bibliographic, chemical, 
# crystal, experimental, refinement or atomic coordinate data resulting 
# from the CCDC's data processing and validation procedures.
#
#######################################################################

data_LOLSIP
_symmetry_cell_setting           monoclinic
_symmetry_space_group_name_H-M   'P 21/n'
_symmetry_Int_Tables_number      14
_space_group_name_Hall           '-P 2yn'
loop_
_symmetry_equiv_pos_site_id
_symmetry_equiv_pos_as_xyz
1 x,y,z
2 1/2-x,1/2+y,1/2-z
3 -x,-y,-z
4 1/2+x,1/2-y,1/2+z
_cell_length_a                   10.0043(10)
_cell_length_b                   20.9189(18)
_cell_length_c                   17.4170(14)
_cell_angle_alpha                90
_cell_angle_beta                 96.856(3)
_cell_angle_gamma                90
_cell_volume                     3618.95
loop_
_atom_site_label
_atom_site_type_symbol
_atom_site_fract_x
_atom_site_fract_y
_atom_site_fract_z
Fe1 Fe -0.09916(13) 0.06263(6) 0.29288(7)
Cl1 Cl 0.2616(3) 0.23312(12) 0.36938(15)
O1 O -0.1169(6) 0.0386(3) 0.1804(3)
N1 N -0.2266(11) -0.0062(5) 0.0764(6)
H1 H -0.1575 -0.0310 0.0708
H2 H -0.3003 -0.0087 0.0434
C1 C -0.3365(12) 0.0753(6) 0.1402(6)
Fe2 Fe 0.08799(13) 0.16309(6) 0.38086(8)
Cl2 Cl -0.2844(2) 0.18666(11) 0.45955(13)
O2 O -0.4628(8) 0.1517(4) 0.1952(4)
N2 N -0.2585(8) 0.1225(4) 0.2657(5)
H3 H -0.2692 0.1536 0.2985
C2 C -0.4503(15) 0.0716(7) 0.0833(8)
Fe3 Fe 0.09070(12) 0.02303(6) 0.44259(7)
O3 O -0.3939(6) 0.3791(3) 0.2549(3)
N3 N -0.5493(14) 0.0635(7) 0.0411(8)
C3 C -0.3452(11) 0.1189(6) 0.2046(7)
Fe4 Fe -0.10328(12) 0.12080(6) 0.50107(7)
O4 O -0.0941(7) 0.2836(4) 0.1465(4)
N4 N -0.3235(9) 0.3274(4) 0.3600(5)
H4 H -0.3853 0.3461 0.3841
H5 H -0.2676 0.2998 0.3847
C4 C -0.4922(11) 0.1891(6) 0.2611(7)
H6 H -0.4656 0.1651 0.3088
H7 H -0.5889 0.1982 0.2566
H8 H -0.4420 0.2294 0.2626
Fe5 Fe -0.08601(13) -0.08265(6) 0.35229(7)
O5 O 0.0541(6) 0.1223(3) 0.2786(3)
N5 N -0.2665(7) 0.3570(3) 0.1211(4)
H9 H -0.2489 0.3572 0.0728
C5 C -0.2195(12) 0.0371(6) 0.1373(6)
O6 O 0.0453(6) -0.0090(3) 0.3267(3)
N6 N -0.0531(8) 0.2350(4) 0.3316(4)
C6 C -0.2101(10) 0.3097(5) 0.2480(6)
O7 O -0.0496(5) 0.0917(3) 0.4004(3)
C7 C -0.1204(10) 0.2692(5) 0.2924(6)
O8 O 0.2176(6) 0.0919(3) 0.4225(3)
C8 C -0.1957(10) 0.3183(5) 0.1680(5)
O9 O 0.0403(6) 0.1864(3) 0.4831(3)
C9 C -0.0546(11) 0.2915(5) 0.0713(6)
H10 H -0.0394 0.3370 0.0619
H11 H 0.0286 0.2677 0.0676
H12 H -0.1259 0.2754 0.0327
O10 O 0.2188(5) -0.0438(3) 0.4794(3)
C10 C -0.3144(10) 0.3410(5) 0.2850(5)
O11 O 0.0413(5) 0.0522(3) 0.5424(3)
C11 C 0.0812(10) 0.1497(5) 0.2070(5)
H13 H 0.1344 0.1887 0.2171
H14 H -0.0040 0.1600 0.1756
H15 H 0.1317 0.1190 0.1791
O12 O -0.0729(6) 0.1393(3) 0.6133(3)
C12 C 0.1485(9) -0.0227(5) 0.2783(5)
H16 H 0.2207 -0.0472 0.3078
H17 H 0.1851 0.0175 0.2608
H18 H 0.1101 -0.0477 0.2334
O13 O -0.2119(6) -0.0104(3) 0.3200(3)
C13 C 0.3399(9) 0.0824(5) 0.3906(6)
H19 H 0.3672 0.0376 0.3967
H20 H 0.4100 0.1098 0.4174
H21 H 0.3270 0.0934 0.3355
C14 C 0.0428(10) 0.2498(4) 0.5145(6)
H22 H 0.1116 0.2751 0.4927
H23 H 0.0641 0.2477 0.5708
H24 H -0.0455 0.2699 0.5014
C15 C 0.3442(10) -0.0330(5) 0.5246(7)
H28 H 0.3565 0.0129 0.5339
H29 H 0.4170 -0.0492 0.4970
H30 H 0.3457 -0.0553 0.5742
C16 C -0.1543(10) 0.1774(5) 0.6548(6)
H31 H -0.1586 0.2208 0.6334
H32 H -0.1160 0.1789 0.7093
H33 H -0.2451 0.1593 0.6507
C17 C -0.3481(10) -0.0226(5) 0.2884(6)
H34 H -0.3495 -0.0424 0.2374
H35 H -0.3903 -0.0514 0.3228
H36 H -0.3980 0.0178 0.2834
Fe3B Fe -0.09070(12) -0.02303(6) 0.55741(7)
O3A O -0.1061(6) -0.1209(3) 0.2451(3)
Fe4B Fe 0.10328(12) -0.12080(6) 0.49893(7)
Fe5A Fe -0.41399(13) 0.41735(6) 0.14771(7)
Fe5B Fe 0.08601(13) 0.08265(6) 0.64771(7)
N5A N -0.2335(7) -0.1430(3) 0.3789(4)
H9A H -0.2511 -0.1428 0.4272
O10B O -0.2188(5) 0.0438(3) 0.5206(3)
O11B O -0.0413(5) -0.0522(3) 0.4576(3)
O12B O 0.0729(6) -0.1393(3) 0.3867(3)
O15 O -0.272(2) 0.0543(12) 0.8884(12)
H26 H -0.3101 0.0239 0.9084
C19 C -0.369(3) 0.097(2) 0.855(4)
H40 H -0.4285 0.1095 0.8933
H41 H -0.4218 0.0771 0.8106
H42 H -0.3242 0.1355 0.8378
O16 O -0.0045(8) 0.0939(5) 0.9344(5)
H27 H -0.0838 0.0874 0.9142
C20 C -0.006(2) 0.1148(10) 1.0092(9)
H43 H -0.0098 0.0779 1.0435
H44 H -0.0846 0.1421 1.0121
H45 H 0.0764 0.1393 1.0251
O14? O -0.261(2) 0.1177(11) 0.8697(16)
H25? H -0.2615 0.1572 0.8610
C18? C -0.393(3) 0.0943(15) 0.859(3)
H37? H -0.3934 0.0500 0.8772
H38? H -0.4270 0.0960 0.8040
H39? H -0.4496 0.1205 0.8885
loop_
_geom_bond_atom_site_label_1
_geom_bond_atom_site_label_2
_geom_bond_site_symmetry_1
_geom_bond_site_symmetry_2
Fe1 O1 1_555 1_555
Cl1 Fe2 1_555 1_555
O1 C5 1_555 1_555
N1 H1 1_555 1_555
H2 N1 1_555 1_555
C1 C2 1_555 1_555
Fe2 O5 1_555 1_555
Cl2 Fe4 1_555 1_555
O2 C3 1_555 1_555
N2 Fe1 1_555 1_555
H3 N2 1_555 1_555
C2 N3 1_555 1_555
Fe3 O6 1_555 1_555
O3 C10 1_555 1_555
C3 C1 1_555 1_555
Fe4 O7 1_555 1_555
O4 C8 1_555 1_555
N4 H4 1_555 1_555
H5 N4 1_555 1_555
C4 O2 1_555 1_555
H6 C4 1_555 1_555
H7 C4 1_555 1_555
H8 C4 1_555 1_555
Fe5 O6 1_555 1_555
O5 Fe1 1_555 1_555
N5 H9 1_555 1_555
C5 N1 1_555 1_555
O6 Fe1 1_555 1_555
N6 Fe2 1_555 1_555
C6 C7 1_555 1_555
O7 Fe1 1_555 1_555
C7 N6 1_555 1_555
O8 Fe2 1_555 1_555
C8 N5 1_555 1_555
O9 Fe2 1_555 1_555
C9 O4 1_555 1_555
H10 C9 1_555 1_555
H11 C9 1_555 1_555
H12 C9 1_555 1_555
O10 Fe3 1_555 1_555
C10 N4 1_555 1_555
O11 Fe3 1_555 1_555
C11 O5 1_555 1_555
H13 C11 1_555 1_555
H14 C11 1_555 1_555
H15 C11 1_555 1_555
O12 Fe4 1_555 1_555
C12 O6 1_555 1_555
H16 C12 1_555 1_555
H17 C12 1_555 1_555
H18 C12 1_555 1_555
O13 Fe1 1_555 1_555
C13 O8 1_555 1_555
H19 C13 1_555 1_555
H20 C13 1_555 1_555
H21 C13 1_555 1_555
C14 O9 1_555 1_555
H22 C14 1_555 1_555
H23 C14 1_555 1_555
H24 C14 1_555 1_555
O15 H26 1_555 1_555
O16 H27 1_555 1_555
C15 O10 1_555 1_555
H28 C15 1_555 1_555
H29 C15 1_555 1_555
H30 C15 1_555 1_555
C16 O12 1_555 1_555
H31 C16 1_555 1_555
H32 C16 1_555 1_555
H33 C16 1_555 1_555
C17 O13 1_555 1_555
H34 C17 1_555 1_555
H35 C17 1_555 1_555
H36 C17 1_555 1_555
C19 O15 1_555 1_555
H40 C19 1_555 1_555
H41 C19 1_555 1_555
H42 C19 1_555 1_555
C20 O16 1_555 1_555
H43 C20 1_555 1_555
H44 C20 1_555 1_555
H45 C20 1_555 1_555
Fe3B O11 1_555 1_555
O3A Fe5 1_555 1_555
Fe4B O10 1_555 1_555
Fe5A O3 1_555 1_555
Fe5B O11 1_555 1_555
N5A Fe5 1_555 1_555
H9A N5A 1_555 1_555
O10B Fe4 1_555 1_555
O11B Fe3 1_555 1_555
O12B Fe5 1_555 1_555
C1 C5 1_555 1_555
Fe2 O7 1_555 1_555
N2 C3 1_555 1_555
Fe3 O7 1_555 1_555
Fe3 O8 1_555 1_555
Fe4 O9 1_555 1_555
Fe4 O11 1_555 1_555
Fe5 O13 1_555 1_555
Fe5 O11B 1_555 1_555
N5 Fe5A 1_555 1_555
C6 C8 1_555 1_555
C6 C10 1_555 1_555
O12 Fe5B 1_555 1_555
Fe3B O10B 1_555 1_555
Fe3B O11B 1_555 1_555
Fe4B O11B 1_555 1_555
Fe4B O12B 1_555 1_555

#END
