
#######################################################################
#
#                 Cambridge Crystallographic Data Centre
#                                CCDC 
#
#######################################################################
#
# If this CIF has been generated from an entry in the Cambridge 
# Structural Database, then it will include bibliographic, chemical, 
# crystal, experimental, refinement or atomic coordinate data resulting 
# from the CCDC's data processing and validation procedures.
#
#######################################################################

data_LOMFOI
_symmetry_cell_setting           monoclinic
_symmetry_space_group_name_H-M   'C 2/c'
_symmetry_Int_Tables_number      15
_space_group_name_Hall           '-C 2yn'
loop_
_symmetry_equiv_pos_site_id
_symmetry_equiv_pos_as_xyz
1 x,y,z
2 1/2+x,1/2+y,z
3 x,-y,1/2+z
4 1/2+x,1/2-y,1/2+z
5 -x,-y,-z
6 1/2-x,1/2-y,-z
7 -x,y,1/2-z
8 1/2-x,1/2+y,1/2-z
_cell_length_a                   25.1399(15)
_cell_length_b                   8.1532(5)
_cell_length_c                   15.6510(10)
_cell_angle_alpha                90
_cell_angle_beta                 127.0030(10)
_cell_angle_gamma                90
_cell_volume                     2561.92
loop_
_atom_site_label
_atom_site_type_symbol
_atom_site_fract_x
_atom_site_fract_y
_atom_site_fract_z
Co1 Co 0.2500 0.2500 -0.5000
V1 V 0.15152(2) 0.18023(6) -0.77792(4)
P1 P 0.26220(4) 0.45987(9) -0.66570(6)
O1 O 0.17541(12) 0.1647(3) -0.65589(18)
O2 O 0.28343(11) 0.4176(3) -0.55628(17)
O3 O 0.21056(12) 0.6046(3) -0.7118(2)
O4 O 0.22892(11) 0.3127(3) -0.74320(17)
O5 O 0.32080(10) 0.5184(2) -0.66394(16)
O6 O 0.09487(12) 0.3194(3) -0.8405(2)
N1 N 0.32091(14) 0.0768(3) -0.4776(2)
N2 N 0.57328(13) -0.5008(3) -0.3338(2)
C1 C 0.3815(2) 0.1229(5) -0.4430(5)
C2 C 0.4312(2) 0.0162(5) -0.4159(5)
C3 C 0.42041(17) -0.1509(4) -0.4230(3)
C4 C 0.35700(19) -0.1984(5) -0.4605(3)
C5 C 0.30948(18) -0.0828(4) -0.4870(3)
C6 C 0.5843(2) -0.3412(5) -0.3230(4)
C7 C 0.5370(2) -0.2250(5) -0.3509(4)
C8 C 0.47289(16) -0.2714(4) -0.3929(3)
C9 C 0.4614(2) -0.4378(5) -0.4049(5)
C10 C 0.51140(19) -0.5455(5) -0.3748(4)
H1 H 0.392(3) 0.233(8) -0.434(5)
H2 H 0.472(3) 0.052(7) -0.383(4)
H3 H 0.345(2) -0.293(5) -0.471(3)
H4 H 0.268(2) -0.115(5) -0.512(3)
H5 H 0.624(3) -0.302(9) -0.297(5)
H6 H 0.550(3) -0.132(6) -0.335(4)
H7 H 0.429(3) -0.470(7) -0.428(4)
H8 H 0.5040(18) -0.642(5) -0.391(3)
H9 H 0.221(2) 0.667(5) -0.731(3)
O1E O 0.32459(12) 0.3353(3) -0.34411(18)
O2E O 0.21657(11) 0.0824(3) -0.44372(17)
N1E N 0.17909(14) 0.4232(3) -0.5224(2)
V1E V 0.34848(2) 0.31977(6) -0.22208(4)
V1G V 0.34848(2) 0.68023(6) -0.72208(4)
V1C V 0.65152(2) -0.68023(6) -0.27792(4)
P1G P 0.23780(4) -0.04013(9) -0.83430(6)
O2G O 0.21657(11) -0.0824(3) -0.94372(17)
O3G O 0.28944(12) 0.1046(3) -0.7882(2)
O4G O 0.27108(11) -0.1873(3) -0.75680(17)
O5G O 0.17920(10) 0.0184(2) -0.83606(16)
H9G H 0.279(2) 0.167(5) -0.769(3)
N1C N -0.17909(14) -0.5768(3) -0.9776(2)
N2C N 0.07328(13) 0.0008(3) -0.8338(2)
C1C C -0.1185(2) -0.6229(5) -0.9430(5)
C2C C -0.0688(2) -0.5162(5) -0.9159(5)
C3C C -0.07959(17) -0.3491(4) -0.9230(3)
C4C C -0.14300(19) -0.3016(5) -0.9605(3)
C5C C -0.19052(18) -0.4172(4) -0.9870(3)
C6C C 0.0843(2) -0.1588(5) -0.8230(4)
C7C C 0.0370(2) -0.2750(5) -0.8509(4)
C8C C -0.02711(16) -0.2286(4) -0.8929(3)
C9C C -0.0386(2) -0.0622(5) -0.9049(5)
C10C C 0.01140(19) 0.0455(5) -0.8748(4)
H1C H -0.108(3) -0.733(8) -0.934(5)
H2C H -0.028(3) -0.552(7) -0.883(4)
H3C H -0.155(2) -0.207(5) -0.971(3)
H4C H -0.232(2) -0.385(5) -1.012(3)
H5C H 0.124(3) -0.198(9) -0.797(5)
H6C H 0.050(3) -0.368(6) -0.835(4)
H7C H -0.071(3) -0.030(7) -0.928(4)
H8C H 0.0040(18) 0.142(5) -0.891(3)
Co1B Co 0.2500 -0.2500 -1.0000
Co1C Co -0.2500 -0.7500 -1.0000
V1G_2 V 0.34848(2) -0.31977(6) -0.72208(4)
O1G O 0.32459(12) 0.6647(3) -0.84411(18)
O4G_2 O 0.27108(11) 0.8127(3) -0.75680(17)
O6G O 0.40513(12) 0.8194(3) -0.6595(2)
N2D N 0.42672(13) 0.5008(3) -0.6662(2)
loop_
_geom_bond_atom_site_label_1
_geom_bond_atom_site_label_2
_geom_bond_site_symmetry_1
_geom_bond_site_symmetry_2
Co1 O1 1_555 1_555
V1 O1 1_555 1_555
P1 O2 1_555 1_555
O2 Co1 1_555 1_555
O3 P1 1_555 1_555
O4 V1 1_555 1_555
O5 P1 1_555 1_555
O6 V1 1_555 1_555
N1 Co1 1_555 1_555
N2 C6 1_555 1_555
C1 N1 1_555 1_555
C2 C1 1_555 1_555
C3 C2 1_555 1_555
C4 C3 1_555 1_555
C5 N1 1_555 1_555
C6 C7 1_555 1_555
C7 C8 1_555 1_555
C8 C3 1_555 1_555
C9 C8 1_555 1_555
C10 N2 1_555 1_555
H1 C1 1_555 1_555
H2 C2 1_555 1_555
H3 C4 1_555 1_555
H4 C5 1_555 1_555
H5 C6 1_555 1_555
H6 C7 1_555 1_555
H7 C9 1_555 1_555
H8 C10 1_555 1_555
H9 O3 1_555 1_555
O1E Co1 1_555 1_555
O2E Co1 1_555 1_555
N1E Co1 1_555 1_555
V1E O1E 1_555 1_555
V1G O5 1_555 1_555
V1C N2 1_555 1_555
P1G O2G 1_555 1_555
O2G Co1B 1_555 1_555
O3G P1G 1_555 1_555
O4G P1G 1_555 1_555
O5G V1 1_555 1_555
H9G O3G 1_555 1_555
N1C C1C 1_555 1_555
N2C V1 1_555 1_555
C1C C2C 1_555 1_555
C2C C3C 1_555 1_555
C3C C4C 1_555 1_555
C4C C5C 1_555 1_555
C5C N1C 1_555 1_555
C6C N2C 1_555 1_555
C7C C6C 1_555 1_555
C8C C3C 1_555 1_555
C9C C8C 1_555 1_555
C10C N2C 1_555 1_555
H1C C1C 1_555 1_555
H2C C2C 1_555 1_555
H3C C4C 1_555 1_555
H4C C5C 1_555 1_555
H5C C6C 1_555 1_555
H6C C7C 1_555 1_555
H7C C9C 1_555 1_555
H8C C10C 1_555 1_555
Co1C N1C 1_555 1_555
V1G_2 O4G 1_555 1_555
O1G V1G 1_555 1_555
O4G_2 V1G 1_555 1_555
O6G V1G 1_555 1_555
N2D V1G 1_555 1_555
P1 O4 1_555 1_555
C4 C5 1_555 1_555
C9 C10 1_555 1_555
P1G O5G 1_555 1_555
C7C C8C 1_555 1_555
C9C C10C 1_555 1_555

#END
