
#######################################################################
#
#                 Cambridge Crystallographic Data Centre
#                                CCDC 
#
#######################################################################
#
# If this CIF has been generated from an entry in the Cambridge 
# Structural Database, then it will include bibliographic, chemical, 
# crystal, experimental, refinement or atomic coordinate data resulting 
# from the CCDC's data processing and validation procedures.
#
#######################################################################

data_LOMFUO
_symmetry_cell_setting           monoclinic
_symmetry_space_group_name_H-M   'C 2/c'
_symmetry_Int_Tables_number      15
_space_group_name_Hall           '-C 2yn'
loop_
_symmetry_equiv_pos_site_id
_symmetry_equiv_pos_as_xyz
1 x,y,z
2 1/2+x,1/2+y,z
3 x,-y,1/2+z
4 1/2+x,1/2-y,1/2+z
5 -x,-y,-z
6 1/2-x,1/2-y,-z
7 -x,y,1/2-z
8 1/2-x,1/2+y,1/2-z
_cell_length_a                   25.025(3)
_cell_length_b                   8.1660(12)
_cell_length_c                   15.610(2)
_cell_angle_alpha                90
_cell_angle_beta                 127.477(3)
_cell_angle_gamma                90
_cell_volume                     2531.55
loop_
_atom_site_label
_atom_site_type_symbol
_atom_site_fract_x
_atom_site_fract_y
_atom_site_fract_z
Ni1 Ni -0.2500 0.2500 0.0000
V1 V -0.15151(3) 0.17789(7) 0.27759(4)
P1 P -0.26247(4) 0.45811(10) 0.16527(6)
O1 O -0.17749(12) 0.1638(3) 0.15386(19)
O2 O -0.28454(11) 0.4166(3) 0.05474(18)
O3 O -0.20999(12) 0.6027(3) 0.2129(2)
O4 O -0.22884(11) 0.3102(3) 0.24377(19)
O5 O -0.17852(11) 0.0171(3) 0.33692(18)
O6 O -0.09432(12) 0.3167(3) 0.3401(2)
N1 N 0.18042(14) -0.5808(3) 0.4763(2)
N2 N -0.07280(13) -0.0017(3) 0.3332(2)
C1 C 0.1182(2) -0.6269(5) 0.4382(4)
C2 C 0.0688(2) -0.5188(5) 0.4119(5)
C3 C 0.08077(17) -0.3529(4) 0.4228(3)
C4 C 0.14488(19) -0.3050(5) 0.4625(3)
C5 C 0.1925(2) -0.4215(4) 0.4887(3)
C6 C -0.0838(2) -0.1601(5) 0.3228(5)
C7 C -0.0363(2) -0.2781(5) 0.3519(4)
C8 C 0.02751(17) -0.2323(4) 0.3923(3)
C9 C 0.0396(2) -0.0656(5) 0.4039(4)
C10 C -0.0106(2) 0.0423(5) 0.3730(4)
H1 H 0.110(2) -0.741(6) 0.435(4)
H2 H 0.027(3) -0.558(6) 0.380(4)
H3 H 0.157(2) -0.193(6) 0.469(4)
H4 H 0.2309(19) -0.384(4) 0.509(3)
H5 H -0.118(3) -0.195(7) 0.303(4)
H6 H -0.052(2) -0.389(6) 0.328(4)
H7 H 0.077(2) -0.029(6) 0.431(4)
H8 H -0.004(2) 0.145(6) 0.386(4)
H9 H -0.214(3) 0.672(8) 0.250(5)
Ni1C Ni 0.2500 -0.7500 0.5000
O1E O -0.32251(12) 0.3362(3) -0.15386(19)
V1E V -0.34849(3) 0.32211(7) -0.27759(4)
O2E O -0.21546(11) 0.0834(3) -0.05474(18)
P1G P -0.23753(4) -0.04189(10) 0.33473(6)
O2G O -0.21546(11) -0.0834(3) 0.44526(18)
O3G O -0.29001(12) 0.1027(3) 0.2871(2)
H9G H -0.286(3) 0.172(8) 0.250(5)
O4G O -0.27116(11) -0.1898(3) 0.25623(19)
O5G O -0.32148(11) 0.5171(3) 0.16308(18)
V1G V -0.34849(3) 0.67789(7) 0.22241(4)
O1G O -0.32251(12) 0.6638(3) 0.34614(19)
O4G_2 O -0.27116(11) 0.8102(3) 0.25623(19)
O6G O -0.40568(12) 0.8167(3) 0.1599(2)
N2G N -0.42720(13) 0.4983(3) 0.1668(2)
N1F N -0.18042(14) 0.4192(3) 0.0237(2)
N1C N -0.31958(14) 0.0808(3) -0.0237(2)
Ni1B Ni -0.2500 -0.2500 0.5000
V1G_2 V -0.34849(3) -0.32211(7) 0.22241(4)
C1F C -0.1182(2) 0.3731(5) 0.0618(4)
C5F C -0.1925(2) 0.5785(4) 0.0113(3)
C2F C -0.0688(2) 0.4812(5) 0.0881(5)
H1F H -0.110(2) 0.259(6) 0.065(4)
C4F C -0.14488(19) 0.6950(5) 0.0375(3)
H4F H -0.2309(19) 0.616(4) -0.009(3)
C3F C -0.08077(17) 0.6471(4) 0.0772(3)
H2F H -0.027(3) 0.442(6) 0.120(4)
H3F H -0.157(2) 0.807(6) 0.031(4)
C8F C -0.02751(17) 0.7677(4) 0.1077(3)
C7F C 0.0363(2) 0.7219(5) 0.1481(4)
C9F C -0.0396(2) 0.9344(5) 0.0961(4)
C6F C 0.0838(2) 0.8399(5) 0.1772(5)
H6F H 0.052(2) 0.611(6) 0.172(4)
C10F C 0.0106(2) 1.0423(5) 0.1270(4)
H7F H -0.077(2) 0.971(6) 0.069(4)
N2F N 0.07280(13) 0.9983(3) 0.1668(2)
H5F H 0.118(3) 0.805(7) 0.197(4)
H8F H 0.004(2) 1.145(6) 0.114(4)
V1F V 0.15151(3) 1.17789(7) 0.22241(4)
loop_
_geom_bond_atom_site_label_1
_geom_bond_atom_site_label_2
_geom_bond_site_symmetry_1
_geom_bond_site_symmetry_2
Ni1 O1 1_555 1_555
V1 O1 1_555 1_555
P1 O2 1_555 1_555
O2 Ni1 1_555 1_555
O3 P1 1_555 1_555
O4 V1 1_555 1_555
O5 V1 1_555 1_555
O6 V1 1_555 1_555
N1 C1 1_555 1_555
N2 V1 1_555 1_555
C1 C2 1_555 1_555
C2 C3 1_555 1_555
C3 C4 1_555 1_555
C4 C5 1_555 1_555
C5 N1 1_555 1_555
C6 N2 1_555 1_555
C7 C6 1_555 1_555
C8 C3 1_555 1_555
C9 C8 1_555 1_555
C10 N2 1_555 1_555
H1 C1 1_555 1_555
H2 C2 1_555 1_555
H3 C4 1_555 1_555
H4 C5 1_555 1_555
H5 C6 1_555 1_555
H6 C7 1_555 1_555
H7 C9 1_555 1_555
H8 C10 1_555 1_555
H9 O3 1_555 1_555
Ni1C N1 1_555 1_555
O1E Ni1 1_555 1_555
V1E O1E 1_555 1_555
O2E Ni1 1_555 1_555
P1G O5 1_555 1_555
O2G P1G 1_555 1_555
O3G P1G 1_555 1_555
H9G O3G 1_555 1_555
O4G P1G 1_555 1_555
O5G P1 1_555 1_555
V1G O5G 1_555 1_555
O1G V1G 1_555 1_555
O4G_2 V1G 1_555 1_555
O6G V1G 1_555 1_555
N2G V1G 1_555 1_555
N1F Ni1 1_555 1_555
N1C Ni1 1_555 1_555
Ni1B O2G 1_555 1_555
V1G_2 O4G 1_555 1_555
C1F N1F 1_555 1_555
C5F N1F 1_555 1_555
C2F C1F 1_555 1_555
H1F C1F 1_555 1_555
C4F C5F 1_555 1_555
H4F C5F 1_555 1_555
C3F C2F 1_555 1_555
H2F C2F 1_555 1_555
H3F C4F 1_555 1_555
C8F C3F 1_555 1_555
C7F C8F 1_555 1_555
C9F C8F 1_555 1_555
C6F C7F 1_555 1_555
H6F C7F 1_555 1_555
C10F C9F 1_555 1_555
H7F C9F 1_555 1_555
N2F C6F 1_555 1_555
H5F C6F 1_555 1_555
H8F C10F 1_555 1_555
V1F N2F 1_555 1_555
P1 O4 1_555 1_555
C7 C8 1_555 1_555
C9 C10 1_555 1_555
C4F C3F 1_555 1_555
C10F N2F 1_555 1_555

#END
