
#######################################################################
#
#                 Cambridge Crystallographic Data Centre
#                                CCDC 
#
#######################################################################
#
# If this CIF has been generated from an entry in the Cambridge 
# Structural Database, then it will include bibliographic, chemical, 
# crystal, experimental, refinement or atomic coordinate data resulting 
# from the CCDC's data processing and validation procedures.
#
#######################################################################

data_LOMFEY
_symmetry_cell_setting           rhombohedral
_symmetry_space_group_name_H-M   'R -3'
_symmetry_Int_Tables_number      148
_space_group_name_Hall           '-R 3'
loop_
_symmetry_equiv_pos_site_id
_symmetry_equiv_pos_as_xyz
1 x,y,z
2 -y,x-y,z
3 -x+y,-x,z
4 2/3+x,1/3+y,1/3+z
5 2/3-y,1/3+x-y,1/3+z
6 2/3-x+y,1/3-x,1/3+z
7 1/3+x,2/3+y,2/3+z
8 2/3+y,1/3-x+y,1/3-z
9 2/3+x-y,1/3+x,1/3-z
10 -x,-y,-z
11 y,-x+y,-z
12 x-y,x,-z
13 1/3-x,2/3-y,2/3-z
14 1/3+y,2/3-x+y,2/3-z
15 1/3+x-y,2/3+x,2/3-z
16 2/3-x,1/3-y,1/3-z
17 1/3-y,2/3+x-y,2/3+z
18 1/3-x+y,2/3-x,2/3+z
_cell_length_a                   36.475(9)
_cell_length_b                   36.475(9)
_cell_length_c                   7.570(3)
_cell_angle_alpha                90
_cell_angle_beta                 90
_cell_angle_gamma                120.00
_cell_volume                     8722.02
loop_
_atom_site_label
_atom_site_type_symbol
_atom_site_fract_x
_atom_site_fract_y
_atom_site_fract_z
Cd1 Cd 0.258080(16) 0.013670(17) 0.49479(8)
N1 N 0.1939(2) 0.0138(2) 0.7035(10)
N2 N 0.2865(2) -0.0444(2) 0.4387(9)
O1 O 0.21804(18) 0.04491(18) 0.6058(8)
O2 O 0.29852(17) -0.01494(17) 0.3291(8)
O3 O 0.20305(16) -0.01536(18) 0.7198(8)
O4 O 0.25949(17) -0.04889(18) 0.5538(8)
C1 C 0.4181(2) 0.2809(2) 0.2482(11)
H1 H 0.4113 0.3025 0.2705
O5 O 0.16373(19) 0.0123(2) 0.7801(10)
O6 O 0.30033(17) -0.06950(19) 0.4400(8)
C2 C 0.4552(2) 0.2909(2) 0.1603(10)
C3 C 0.3906(2) 0.2398(2) 0.3040(10)
H2 H 0.3654 0.2337 0.3648
C4 C 0.3697(2) 0.1636(2) 0.3307(10)
C5 C 0.3995(2) 0.2076(2) 0.2726(10)
C6 C 0.3352(3) 0.1540(3) 0.4373(13)
H3 H 0.3309 0.1760 0.4803
N3 N 0.31037(19) 0.07952(19) 0.4259(9)
C7 C 0.4370(2) 0.2174(2) 0.1870(11)
H4 H 0.4436 0.1957 0.1657
C8 C 0.4651(2) 0.2587(2) 0.1317(13)
H5 H 0.4908 0.2650 0.0749
C9 C 0.3434(2) 0.0884(3) 0.3245(12)
H6 H 0.3467 0.0656 0.2837
C10 C 0.3067(3) 0.1121(3) 0.4820(12)
H7 H 0.2834 0.1065 0.5562
C11 C 0.4851(3) 0.3352(2) 0.1054(11)
N4 N 0.4682(2) 0.35494(19) 0.0114(10)
C12 C 0.5271(3) 0.3552(3) 0.1489(13)
H8 H 0.5377 0.3402 0.2142
C13 C 0.5542(3) 0.3965(3) 0.0993(14)
H9 H 0.5834 0.4106 0.1299
C14 C 0.5373(3) 0.4170(3) 0.0029(14)
H10 H 0.5549 0.4453 -0.0352
C15 C 0.4947(3) 0.3957(3) -0.0370(13)
H11 H 0.4835 0.4103 -0.1010
C16 C 0.3733(3) 0.1292(3) 0.2749(12)
H12 H 0.3964 0.1336 0.2024
Cd1P Cd 0.319663(17) -0.088923(23) 0.16146(8)
O6E O 0.29684(25) 0.03300(17) 0.7733(8)
Cd1O Cd 0.408587(16) 0.319663(17) -0.16146(8)
N4O N 0.1985(2) -0.02161(19) 0.3219(10)
loop_
_geom_bond_atom_site_label_1
_geom_bond_atom_site_label_2
_geom_bond_site_symmetry_1
_geom_bond_site_symmetry_2
Cd1 O1 1_555 1_555
N1 O1 1_555 1_555
N2 O2 1_555 1_555
O2 Cd1 1_555 1_555
O3 Cd1 1_555 1_555
O4 Cd1 1_555 1_555
C1 H1 1_555 1_555
O5 N1 1_555 1_555
O6 N2 1_555 1_555
C2 C1 1_555 1_555
C3 C1 1_555 1_555
H2 C3 1_555 1_555
C4 C5 1_555 1_555
C5 C3 1_555 1_555
C6 C4 1_555 1_555
H3 C6 1_555 1_555
N3 Cd1 1_555 1_555
C7 C5 1_555 1_555
H4 C7 1_555 1_555
C8 C2 1_555 1_555
H5 C8 1_555 1_555
C9 N3 1_555 1_555
H6 C9 1_555 1_555
C10 C6 1_555 1_555
H7 C10 1_555 1_555
C11 C2 1_555 1_555
N4 C11 1_555 1_555
C12 C11 1_555 1_555
H8 C12 1_555 1_555
C13 C12 1_555 1_555
H9 C13 1_555 1_555
C14 C13 1_555 1_555
H10 C14 1_555 1_555
C15 N4 1_555 1_555
H11 C15 1_555 1_555
C16 C4 1_555 1_555
H12 C16 1_555 1_555
Cd1P O6 1_555 1_555
O6E Cd1 1_555 1_555
Cd1O N4 1_555 1_555
N4O Cd1 1_555 1_555
N1 O3 1_555 1_555
N2 O4 1_555 1_555
N3 C10 1_555 1_555
C7 C8 1_555 1_555
C9 C16 1_555 1_555
C14 C15 1_555 1_555

#END
