
#######################################################################
#
#                 Cambridge Crystallographic Data Centre
#                                CCDC 
#
#######################################################################
#
# If this CIF has been generated from an entry in the Cambridge 
# Structural Database, then it will include bibliographic, chemical, 
# crystal, experimental, refinement or atomic coordinate data resulting 
# from the CCDC's data processing and validation procedures.
#
#######################################################################

data_LOMFIC
_symmetry_cell_setting           rhombohedral
_symmetry_space_group_name_H-M   'R -3'
_symmetry_Int_Tables_number      148
_space_group_name_Hall           '-R 3'
loop_
_symmetry_equiv_pos_site_id
_symmetry_equiv_pos_as_xyz
1 x,y,z
2 -y,x-y,z
3 -x+y,-x,z
4 2/3+x,1/3+y,1/3+z
5 2/3-y,1/3+x-y,1/3+z
6 2/3-x+y,1/3-x,1/3+z
7 1/3+x,2/3+y,2/3+z
8 2/3+y,1/3-x+y,1/3-z
9 2/3+x-y,1/3+x,1/3-z
10 -x,-y,-z
11 y,-x+y,-z
12 x-y,x,-z
13 1/3-x,2/3-y,2/3-z
14 1/3+y,2/3-x+y,2/3-z
15 1/3+x-y,2/3+x,2/3-z
16 2/3-x,1/3-y,1/3-z
17 1/3-y,2/3+x-y,2/3+z
18 1/3-x+y,2/3-x,2/3+z
_cell_length_a                   36.42(8)
_cell_length_b                   36.42(8)
_cell_length_c                   7.799(15)
_cell_angle_alpha                90
_cell_angle_beta                 90
_cell_angle_gamma                120.00
_cell_volume                     8958.79
loop_
_atom_site_label
_atom_site_type_symbol
_atom_site_fract_x
_atom_site_fract_y
_atom_site_fract_z
Cd1 Cd 0.40837(6) 0.08918(5) -0.1629(3)
N1 N 0.3805(8) 0.0027(7) -0.104(3)
O1 O 0.4069(5) 0.0242(5) -0.219(2)
O2 O 0.3665(5) -0.0369(5) -0.103(2)
O3 O 0.3688(5) 0.0197(5) -0.001(2)
N2 N 0.4718(6) 0.1518(6) -0.370(3)
O4 O 0.4485(5) 0.1597(5) -0.275(2)
O5 O 0.5013(6) 0.1806(6) -0.451(3)
O6 O 0.4627(5) 0.1148(5) -0.381(2)
N3 N 0.3105(5) 0.2306(4) 0.427(2)
C1 C 0.3427(6) 0.2543(6) 0.327(3)
H1 H 0.3456 0.2798 0.2883
C2 C 0.3729(6) 0.2437(6) 0.275(2)
H2 H 0.3951 0.2618 0.2036
C3 C 0.3696(5) 0.2066(5) 0.329(2)
C4 C 0.3363(6) 0.1818(6) 0.433(3)
H3 H 0.3326 0.1561 0.4741
C5 C 0.3077(6) 0.1950(6) 0.479(3)
H4 H 0.2852 0.1775 0.5507
C6 C 0.3993(5) 0.1918(5) 0.271(2)
C7 C 0.4363(6) 0.2183(6) 0.182(2)
H5 H 0.4429 0.2460 0.1592
C8 C 0.4640(6) 0.2048(6) 0.126(2)
H6 H 0.4886 0.2231 0.0669
C9 C 0.4541(6) 0.1638(5) 0.160(2)
C10 C 0.4179(6) 0.1363(6) 0.248(2)
H7 H 0.4115 0.1087 0.2708
C11 C 0.3908(5) 0.1507(6) 0.302(2)
H8 H 0.3663 0.1322 0.3615
C12 C 0.4837(7) 0.1487(7) 0.098(3)
C13 C 0.5255(7) 0.1712(8) 0.147(3)
H9 H 0.5359 0.1960 0.2109
C14 C 0.5527(8) 0.1552(9) 0.098(3)
H10 H 0.5812 0.1694 0.1283
C15 C 0.5366(8) 0.1202(9) 0.009(3)
H11 H 0.5538 0.1093 -0.0241
C16 C 0.4951(8) 0.0997(8) -0.035(3)
H12 H 0.4845 0.0749 -0.0986
N4 N 0.4684(6) 0.1137(6) 0.009(2)
O2P O 0.3702(5) 0.0701(7) -0.436(2)
Cd1E Cd 0.34748(8) -0.07504(6) 0.1704(3)
Cd1O Cd 0.25830(6) 0.24415(5) 0.4962(3)
N3O N 0.3562(5) 0.1027(4) -0.094(2)
loop_
_geom_bond_atom_site_label_1
_geom_bond_atom_site_label_2
_geom_bond_site_symmetry_1
_geom_bond_site_symmetry_2
Cd1 O1 1_555 1_555
N1 O1 1_555 1_555
O2 N1 1_555 1_555
O3 Cd1 1_555 1_555
N2 O4 1_555 1_555
O4 Cd1 1_555 1_555
O5 N2 1_555 1_555
O6 Cd1 1_555 1_555
N3 C1 1_555 1_555
C1 H1 1_555 1_555
C2 C1 1_555 1_555
H2 C2 1_555 1_555
C3 C2 1_555 1_555
C4 C3 1_555 1_555
H3 C4 1_555 1_555
C5 N3 1_555 1_555
H4 C5 1_555 1_555
C6 C3 1_555 1_555
C7 C6 1_555 1_555
H5 C7 1_555 1_555
C8 C7 1_555 1_555
H6 C8 1_555 1_555
C9 C8 1_555 1_555
C10 C9 1_555 1_555
H7 C10 1_555 1_555
C11 C6 1_555 1_555
H8 C11 1_555 1_555
C12 C9 1_555 1_555
C13 C12 1_555 1_555
H9 C13 1_555 1_555
C14 C13 1_555 1_555
H10 C14 1_555 1_555
C15 C14 1_555 1_555
H11 C15 1_555 1_555
C16 C15 1_555 1_555
H12 C16 1_555 1_555
N4 Cd1 1_555 1_555
O2P Cd1 1_555 1_555
Cd1E O2 1_555 1_555
Cd1O N3 1_555 1_555
N3O Cd1 1_555 1_555
N1 O3 1_555 1_555
N2 O6 1_555 1_555
C4 C5 1_555 1_555
C10 C11 1_555 1_555
C12 N4 1_555 1_555
C16 N4 1_555 1_555

#END
