
#######################################################################
#
#                 Cambridge Crystallographic Data Centre
#                                CCDC 
#
#######################################################################
#
# If this CIF has been generated from an entry in the Cambridge 
# Structural Database, then it will include bibliographic, chemical, 
# crystal, experimental, refinement or atomic coordinate data resulting 
# from the CCDC's data processing and validation procedures.
#
#######################################################################

data_LOMGOL
_symmetry_cell_setting           monoclinic
_symmetry_space_group_name_H-M   'C 2/c'
_symmetry_Int_Tables_number      15
_space_group_name_Hall           '-C 2yn'
loop_
_symmetry_equiv_pos_site_id
_symmetry_equiv_pos_as_xyz
1 x,y,z
2 -x,y,1/2-z
3 1/2+x,1/2+y,z
4 1/2-x,1/2+y,1/2-z
5 -x,-y,-z
6 x,-y,1/2+z
7 1/2-x,1/2-y,-z
8 1/2+x,1/2-y,1/2+z
_cell_length_a                   21.9281(8)
_cell_length_b                   10.8199(5)
_cell_length_c                   16.0730(7)
_cell_angle_alpha                90
_cell_angle_beta                 103.726(4)
_cell_angle_gamma                90
_cell_volume                     3704.57
loop_
_atom_site_label
_atom_site_type_symbol
_atom_site_fract_x
_atom_site_fract_y
_atom_site_fract_z
Cu1 Cu 0.224459(14) 0.14528(3) 0.12778(2)
O1 O 0.23592(8) 0.31274(17) 0.17084(12)
O2 O 0.26328(8) 0.53933(17) 0.24337(12)
O3 O 0.09226(9) 0.48315(18) 0.08125(13)
O4 O 0.31183(8) 0.14219(17) 0.12534(12)
O5 O 0.43742(9) 0.16068(19) 0.15444(14)
O6 O 0.35858(9) -0.18113(19) 0.11868(14)
N1 N 0.12882(10) 0.1598(2) 0.10191(14)
N2 N 0.20911(10) -0.0206(2) 0.06591(14)
C1 C 0.10812(14) 0.5941(3) 0.1175(2)
H1 H 0.0785 0.6595 0.1043
C2 C 0.16354(13) 0.6170(3) 0.17127(18)
H2 H 0.1720 0.6973 0.1951
C3 C 0.21067(12) 0.5224(2) 0.19367(17)
C4 C 0.19328(12) 0.4019(3) 0.15331(17)
C5 C 0.13520(13) 0.3885(3) 0.09955(18)
C6 C 0.10948(12) 0.2741(3) 0.05167(18)
H3 H 0.0631 0.2790 0.0360
H4 H 0.1241 0.2699 -0.0020
C7 C 0.10144(12) 0.0516(3) 0.04882(19)
H5 H 0.0953 0.0719 -0.0127
H6 H 0.0600 0.0311 0.0596
C8 C 0.14488(13) -0.0578(3) 0.0709(2)
H7 H 0.1455 -0.0870 0.1294
H8 H 0.1298 -0.1263 0.0304
C9 C 0.25438(13) -0.1176(3) 0.10723(19)
H9 H 0.2467 -0.1938 0.0723
H10 H 0.2473 -0.1370 0.1644
C10 C 0.32117(13) -0.0775(3) 0.11689(18)
C11 C 0.42117(13) -0.1664(3) 0.1320(2)
H11 H 0.4466 -0.2377 0.1327
C12 C 0.44898(13) -0.0563(3) 0.14421(19)
H12 H 0.4934 -0.0518 0.1539
C13 C 0.41354(13) 0.0564(3) 0.14314(17)
C14 C 0.34552(12) 0.0403(3) 0.12682(17)
C15 C 0.10680(13) 0.1615(3) 0.18255(18)
H13 H 0.1200 0.0853 0.2147
H14 H 0.0609 0.1676 0.1688
H15 H 0.1250 0.2329 0.2172
C16 C 0.21362(15) -0.0032(3) -0.02360(19)
H16 H 0.2565 0.0213 -0.0244
H17 H 0.1842 0.0615 -0.0506
H18 H 0.2031 -0.0808 -0.0552
Cu1C Cu 0.275541(14) 0.64528(3) 0.37222(2)
O2C O 0.23672(8) 0.03933(17) 0.25663(12)
O7 O 0.52942(10) 0.3405(2) 0.15196(14)
H19 H 0.5062(12) 0.283(2) 0.1585(19)
H20 H 0.5582(11) 0.345(3) 0.1945(16)
O8 O 0.44606(10) -0.4564(2) 0.14849(15)
H21 H 0.4183(11) -0.495(3) 0.164(2)
H22 H 0.4757(11) -0.507(3) 0.153(2)
O9 O 0.63341(9) 0.36562(19) 0.29413(14)
H23 H 0.6293(13) 0.300(2) 0.3187(19)
H24 H 0.6706(9) 0.375(3) 0.298(2)
loop_
_geom_bond_atom_site_label_1
_geom_bond_atom_site_label_2
_geom_bond_site_symmetry_1
_geom_bond_site_symmetry_2
Cu1 O1 1_555 1_555
O1 C4 1_555 1_555
O2 C3 1_555 1_555
O3 C1 1_555 1_555
O4 Cu1 1_555 1_555
O5 C13 1_555 1_555
O6 C10 1_555 1_555
N1 Cu1 1_555 1_555
N2 Cu1 1_555 1_555
C1 H1 1_555 1_555
C2 C1 1_555 1_555
H2 C2 1_555 1_555
C3 C2 1_555 1_555
C4 C3 1_555 1_555
C5 O3 1_555 1_555
C6 N1 1_555 1_555
H3 C6 1_555 1_555
H4 C6 1_555 1_555
C7 N1 1_555 1_555
H5 C7 1_555 1_555
H6 C7 1_555 1_555
C8 N2 1_555 1_555
H7 C8 1_555 1_555
H8 C8 1_555 1_555
C9 N2 1_555 1_555
H9 C9 1_555 1_555
H10 C9 1_555 1_555
C10 C9 1_555 1_555
C11 O6 1_555 1_555
H11 C11 1_555 1_555
C12 C11 1_555 1_555
H12 C12 1_555 1_555
C13 C12 1_555 1_555
C14 O4 1_555 1_555
C15 N1 1_555 1_555
H13 C15 1_555 1_555
H14 C15 1_555 1_555
H15 C15 1_555 1_555
C16 N2 1_555 1_555
H16 C16 1_555 1_555
H17 C16 1_555 1_555
H18 C16 1_555 1_555
O7 H19 1_555 1_555
H20 O7 1_555 1_555
O8 H21 1_555 1_555
H22 O8 1_555 1_555
O9 H23 1_555 1_555
H24 O9 1_555 1_555
Cu1C O2 1_555 1_555
O2C Cu1 1_555 1_555
C4 C5 1_555 1_555
C5 C6 1_555 1_555
C7 C8 1_555 1_555
C10 C14 1_555 1_555
C13 C14 1_555 1_555

#END
