
#######################################################################
#
#                 Cambridge Crystallographic Data Centre
#                                CCDC 
#
#######################################################################
#
# If this CIF has been generated from an entry in the Cambridge 
# Structural Database, then it will include bibliographic, chemical, 
# crystal, experimental, refinement or atomic coordinate data resulting 
# from the CCDC's data processing and validation procedures.
#
#######################################################################

data_LOMLAB
_symmetry_cell_setting           monoclinic
_symmetry_space_group_name_H-M   'P 21/c'
_symmetry_Int_Tables_number      14
_space_group_name_Hall           '-P 2ybc'
loop_
_symmetry_equiv_pos_site_id
_symmetry_equiv_pos_as_xyz
1 x,y,z
2 -x,1/2+y,1/2-z
3 -x,-y,-z
4 x,1/2-y,1/2+z
_cell_length_a                   5.5308(6)
_cell_length_b                   22.298(2)
_cell_length_c                   13.5193(14)
_cell_angle_alpha                90
_cell_angle_beta                 98.975(2)
_cell_angle_gamma                90
_cell_volume                     1646.86
loop_
_atom_site_label
_atom_site_type_symbol
_atom_site_fract_x
_atom_site_fract_y
_atom_site_fract_z
Cd1 Cd 0.0000 0.5000 0.5000
F1 F 0.6943(7) 0.24922(17) 0.6718(3)
O1 O -0.2522(9) 0.50353(16) 0.6185(4)
O2 O -0.3453(14) 0.5059(2) 0.7694(5)
O3 O 0.1763(7) 0.42694(17) 0.6095(3)
N1 N -0.0301(9) 0.3468(2) 0.8567(3)
N2 N 0.5650(9) 0.1880(2) 0.8356(3)
N3 N 0.7354(9) 0.0705(2) 0.9102(4)
H1 H 0.5871 0.0520 0.8967
C1 C -0.2387(13) 0.4837(3) 0.7048(5)
C2 C -0.0840(11) 0.4282(2) 0.7353(4)
C3 C 0.1028(10) 0.4046(2) 0.6840(4)
C4 C 0.2158(10) 0.3500(2) 0.7259(4)
C5 C 0.4001(11) 0.3227(2) 0.6807(4)
H2 H 0.4508 0.3411 0.6257
C6 C 0.5062(11) 0.2703(3) 0.7150(5)
C7 C 0.4396(11) 0.2388(3) 0.7983(4)
C8 C 0.2561(11) 0.2653(3) 0.8422(4)
H3 H 0.2025 0.2459 0.8957
C9 C 0.1479(10) 0.3202(2) 0.8095(4)
C10 C -0.1335(11) 0.3989(2) 0.8190(4)
H4 H -0.2490 0.4163 0.8531
C11 C -0.0977(13) 0.3219(3) 0.9505(5)
H5 H -0.1195 0.2789 0.9430
H6 H -0.2528 0.3390 0.9611
C12 C 0.0938(15) 0.3345(4) 1.0419(5)
H7 H 0.2501 0.3199 1.0302
H8 H 0.0483 0.3146 1.0992
H9 H 0.1036 0.3769 1.0540
C13 C 0.5076(13) 0.1654(3) 0.9310(4)
H10 H 0.3483 0.1461 0.9202
H11 H 0.5016 0.1985 0.9770
C14 C 0.7012(11) 0.1206(2) 0.9757(4)
H12 H 0.8560 0.1415 0.9928
H13 H 0.6565 0.1049 1.0373
C15 C 0.7860(11) 0.0938(2) 0.8133(4)
H14 H 0.7966 0.0605 0.7680
H15 H 0.9427 0.1142 0.8234
C16 C 0.5885(12) 0.1369(2) 0.7661(4)
H16 H 0.6298 0.1521 0.7037
H17 H 0.4334 0.1159 0.7514
Cd1A Cd 1.0000 0.0000 1.0000
Cd1A_2 Cd -1.0000 1.0000 0.0000
F1B F -0.6943(7) 0.75078(17) 0.3282(3)
O1B O 0.2522(9) 0.49647(16) 0.3815(4)
O2B O 0.3453(14) 0.4941(2) 0.2306(5)
O3B O -0.1763(7) 0.57306(17) 0.3905(3)
N1B N 0.0301(9) 0.6532(2) 0.1433(3)
N2B N -0.5650(9) 0.8120(2) 0.1644(3)
N3C N -0.2646(9) 0.4295(2) 0.4102(4)
N3A N 0.2646(9) 0.5705(2) 0.5898(4)
N3B N -0.7354(9) 0.9295(2) 0.0898(4)
H1C H -0.4129 0.4480 0.3967
H1A H 0.4129 0.5520 0.6033
H1B H -0.5871 0.9480 0.1033
C1B C 0.2387(13) 0.5163(3) 0.2952(5)
C2B C 0.0840(11) 0.5718(2) 0.2647(4)
C3B C -0.1028(10) 0.5954(2) 0.3160(4)
C4B C -0.2158(10) 0.6500(2) 0.2741(4)
C5B C -0.4001(11) 0.6773(2) 0.3193(4)
H2B H -0.4508 0.6589 0.3743
C6B C -0.5062(11) 0.7297(3) 0.2850(5)
C7B C -0.4396(11) 0.7612(3) 0.2017(4)
C8B C -0.2561(11) 0.7347(3) 0.1578(4)
H3B H -0.2025 0.7541 0.1043
C9B C -0.1479(10) 0.6798(2) 0.1905(4)
C10B C 0.1335(11) 0.6011(2) 0.1810(4)
H4B H 0.2490 0.5837 0.1469
C11B C 0.0977(13) 0.6781(3) 0.0495(5)
H5B H 0.1195 0.7211 0.0570
H6B H 0.2528 0.6610 0.0389
C12B C -0.0938(15) 0.6655(4) -0.0419(5)
H7B H -0.2501 0.6801 -0.0302
H8B H -0.0483 0.6854 -0.0992
H9B H -0.1036 0.6231 -0.0540
C13B C -0.5076(13) 0.8346(3) 0.0690(4)
H10B H -0.3483 0.8539 0.0798
H11B H -0.5016 0.8015 0.0230
C14B C -0.7012(11) 0.8794(2) 0.0243(4)
H12B H -0.8560 0.8585 0.0072
H13B H -0.6565 0.8951 -0.0373
C15B C -0.7860(11) 0.9062(2) 0.1867(4)
H14B H -0.7966 0.9395 0.2320
H15B H -0.9427 0.8858 0.1766
C16B C -0.5885(12) 0.8631(2) 0.2339(4)
H16B H -0.6298 0.8479 0.2963
H17B H -0.4334 0.8841 0.2486
loop_
_geom_bond_atom_site_label_1
_geom_bond_atom_site_label_2
_geom_bond_site_symmetry_1
_geom_bond_site_symmetry_2
Cd1 O1 1_555 1_555
F1 C6 1_555 1_555
O1 C1 1_555 1_555
O2 C1 1_555 1_555
O3 Cd1 1_555 1_555
N1 C9 1_555 1_555
N2 C7 1_555 1_555
N3 H1 1_555 1_555
C1 C2 1_555 1_555
C2 C3 1_555 1_555
C3 O3 1_555 1_555
C4 C3 1_555 1_555
C5 C4 1_555 1_555
H2 C5 1_555 1_555
C6 C5 1_555 1_555
C7 C6 1_555 1_555
C8 C7 1_555 1_555
H3 C8 1_555 1_555
C9 C4 1_555 1_555
C10 N1 1_555 1_555
H4 C10 1_555 1_555
C11 N1 1_555 1_555
H5 C11 1_555 1_555
H6 C11 1_555 1_555
C12 C11 1_555 1_555
H7 C12 1_555 1_555
H8 C12 1_555 1_555
H9 C12 1_555 1_555
C13 N2 1_555 1_555
H10 C13 1_555 1_555
H11 C13 1_555 1_555
C14 N3 1_555 1_555
H12 C14 1_555 1_555
H13 C14 1_555 1_555
C15 N3 1_555 1_555
H14 C15 1_555 1_555
H15 C15 1_555 1_555
C16 N2 1_555 1_555
H16 C16 1_555 1_555
H17 C16 1_555 1_555
Cd1A N3 1_555 1_555
Cd1A_2 N3B 1_555 1_555
F1B C6B 1_555 1_555
O1B Cd1 1_555 1_555
O2B C1B 1_555 1_555
O3B Cd1 1_555 1_555
N1B C9B 1_555 1_555
N2B C7B 1_555 1_555
N3C Cd1 1_555 1_555
N3A Cd1 1_555 1_555
N3B H1B 1_555 1_555
H1C N3C 1_555 1_555
H1A N3A 1_555 1_555
C1B O1B 1_555 1_555
C2B C1B 1_555 1_555
C3B O3B 1_555 1_555
C4B C3B 1_555 1_555
C5B C4B 1_555 1_555
H2B C5B 1_555 1_555
C6B C5B 1_555 1_555
C7B C6B 1_555 1_555
C8B C7B 1_555 1_555
H3B C8B 1_555 1_555
C9B C4B 1_555 1_555
C10B N1B 1_555 1_555
H4B C10B 1_555 1_555
C11B N1B 1_555 1_555
H5B C11B 1_555 1_555
H6B C11B 1_555 1_555
C12B C11B 1_555 1_555
H7B C12B 1_555 1_555
H8B C12B 1_555 1_555
H9B C12B 1_555 1_555
C13B N2B 1_555 1_555
H10B C13B 1_555 1_555
H11B C13B 1_555 1_555
C14B N3B 1_555 1_555
H12B C14B 1_555 1_555
H13B C14B 1_555 1_555
C15B N3B 1_555 1_555
H14B C15B 1_555 1_555
H15B C15B 1_555 1_555
C16B N2B 1_555 1_555
H16B C16B 1_555 1_555
H17B C16B 1_555 1_555
C2 C10 1_555 1_555
C8 C9 1_555 1_555
C13 C14 1_555 1_555
C15 C16 1_555 1_555
C2B C3B 1_555 1_555
C2B C10B 1_555 1_555
C8B C9B 1_555 1_555
C13B C14B 1_555 1_555
C15B C16B 1_555 1_555

#END
