
#######################################################################
#
#                 Cambridge Crystallographic Data Centre
#                                CCDC 
#
#######################################################################
#
# If this CIF has been generated from an entry in the Cambridge 
# Structural Database, then it will include bibliographic, chemical, 
# crystal, experimental, refinement or atomic coordinate data resulting 
# from the CCDC's data processing and validation procedures.
#
#######################################################################

data_LOMLII
_symmetry_cell_setting           orthorhombic
_symmetry_space_group_name_H-M   'P b c n'
_symmetry_Int_Tables_number      60
_space_group_name_Hall           '-P 2n 2ab'
loop_
_symmetry_equiv_pos_site_id
_symmetry_equiv_pos_as_xyz
1 x,y,z
2 1/2-x,1/2-y,1/2+z
3 -x,y,1/2-z
4 1/2+x,1/2-y,-z
5 -x,-y,-z
6 1/2+x,1/2+y,1/2-z
7 x,-y,1/2+z
8 1/2-x,1/2+y,z
_cell_length_a                   16.529(4)
_cell_length_b                   17.616(5)
_cell_length_c                   17.244(5)
_cell_angle_alpha                90
_cell_angle_beta                 90
_cell_angle_gamma                90
_cell_volume                     5021.02
loop_
_atom_site_label
_atom_site_type_symbol
_atom_site_fract_x
_atom_site_fract_y
_atom_site_fract_z
Sm1 Sm 0.254063(12) 0.279345(10) 0.141298(11)
O1 O 0.12550(17) 0.34804(15) 0.11639(17)
O2 O 0.26528(17) 0.37142(16) 0.23810(17)
O3 O 0.15355(19) 0.24587(16) 0.24345(17)
O4 O 0.67994(17) 0.69896(15) 0.44876(16)
O5 O 0.2620(2) 0.13843(17) 0.17795(18)
O6 O 0.3307(2) 0.21295(18) 0.2517(2)
O7 O 0.3411(4) 0.0897(2) 0.2641(3)
O8 O 0.3811(2) 0.21155(17) 0.0885(2)
O9 O 0.40292(18) 0.32231(16) 0.13713(19)
O10 O 0.5019(2) 0.26066(19) 0.0825(2)
O11 O 0.2790(2) 0.31584(16) 0.00195(18)
O12 O 0.28519(19) 0.41261(16) 0.07772(18)
O13 O 0.3183(2) 0.4252(2) -0.0431(2)
N1 N 0.3110(3) 0.1461(2) 0.2329(3)
N2 N 0.4314(2) 0.2644(2) 0.1023(2)
N3 N 0.2950(2) 0.3858(2) 0.0106(2)
N4 N 0.1181(2) 0.40564(19) 0.06738(19)
N5 N 0.3227(2) 0.41477(18) 0.26853(18)
N6 N 0.1400(2) 0.2974(2) 0.2985(2)
N7 N 0.6198(2) 0.65349(18) 0.42646(19)
C1 C 0.1266(3) 0.4770(2) 0.0939(2)
H1 H 0.1336 0.4859 0.1478
C2 C 0.1251(3) 0.5372(2) 0.0431(3)
H2 H 0.1313 0.5874 0.0623
C3 C 0.1146(3) 0.5253(2) -0.0360(2)
C4 C 0.1024(3) 0.4506(2) -0.0604(2)
H3 H 0.0930 0.4406 -0.1137
C5 C 0.1036(3) 0.3916(2) -0.0087(2)
H4 H 0.0944 0.3412 -0.0261
C6 C 0.3790(3) 0.3845(2) 0.3155(3)
H5 H 0.3798 0.3314 0.3247
C7 C 0.4354(3) 0.4308(2) 0.3500(3)
H6 H 0.4750 0.4090 0.3830
C8 C 0.4357(2) 0.5092(2) 0.3375(2)
C9 C 0.3761(3) 0.5374(2) 0.2884(3)
H7 H 0.3736 0.5903 0.2782
C10 C 0.3205(3) 0.4896(2) 0.2544(3)
H8 H 0.2803 0.5097 0.2207
C11 C 0.1782(3) 0.2921(2) 0.3674(2)
H9 H 0.2116 0.2494 0.3779
C12 C 0.1694(3) 0.3476(2) 0.4226(2)
H10 H 0.1963 0.3428 0.4710
C13 C 0.1213(2) 0.5889(2) -0.0920(2)
C14 C 0.0811(3) 0.5866(3) -0.1631(3)
H11 H 0.0461 0.5453 -0.1746
C15 C 0.0917(3) 0.3569(3) 0.2837(2)
H12 H 0.0644 0.3597 0.2353
C16 C 0.6279(3) 0.5777(2) 0.4325(3)
H13 H 0.6754 0.5569 0.4550
C17 C 0.5677(3) 0.5302(2) 0.4063(3)
H14 H 0.5741 0.4768 0.4111
C18 C 0.4975(2) 0.5592(2) 0.3729(2)
C19 C 0.4898(3) 0.6382(2) 0.3710(3)
H15 H 0.4418 0.6604 0.3508
C20 C 0.5506(3) 0.6840(2) 0.3980(3)
H16 H 0.5442 0.7376 0.3968
C13F C 0.1213(2) 0.4111(2) 0.4080(2)
C12F C 0.1694(3) 0.6524(2) -0.0774(2)
C15F C 0.0917(3) 0.6431(3) -0.2163(2)
C14F C 0.0811(3) 0.4134(3) 0.3369(3)
O4E O 0.17994(17) 0.19896(15) 0.05124(16)
Sm1E Sm 0.754063(12) 0.779345(10) 0.358702(11)
C3F C 0.1146(3) 0.4747(2) 0.4640(2)
C2F C 0.1251(3) 0.4628(2) 0.5431(3)
C4F C 0.1024(3) 0.5494(2) 0.4396(2)
H3F H 0.0930 0.5594 0.3863
C5F C 0.1036(3) 0.6084(2) 0.4913(2)
C1F C 0.1266(3) 0.5230(2) 0.5939(2)
H2F H 0.1313 0.4126 0.5623
N4F N 0.1181(2) 0.59436(19) 0.56738(19)
H1F H 0.1336 0.5141 0.6478
H4F H 0.0944 0.6588 0.4739
O1F O 0.12550(17) 0.65196(15) 0.61639(17)
Sm1F Sm 0.254063(12) 0.720655(10) 0.641298(11)
C11F C 0.1782(3) 0.7079(2) -0.1326(2)
H10F H 0.1963 0.6572 -0.0290
N6F N 0.1400(2) 0.7026(2) -0.2015(2)
H12F H 0.0644 0.6403 -0.2647
H9F H 0.2116 0.7506 -0.1221
O3F O 0.15355(19) 0.75413(16) -0.25655(17)
Sm1F_2 Sm 0.254063(12) 0.720655(10) -0.358702(11)
O2F O 0.26528(17) 0.62858(16) 0.73810(17)
O3F_2 O 0.15355(19) 0.75413(16) 0.74345(17)
O4C O 0.17994(17) 0.80104(15) 0.55124(16)
O5F O 0.2620(2) 0.86157(17) 0.67795(18)
O6F O 0.3307(2) 0.78705(18) 0.7517(2)
O8F O 0.3811(2) 0.78845(17) 0.5885(2)
O9F O 0.40292(18) 0.67769(16) 0.63713(19)
O11F O 0.2790(2) 0.68416(16) 0.50195(18)
O12F O 0.28519(19) 0.58739(16) 0.57772(18)
N1F N 0.3110(3) 0.8539(2) 0.7329(3)
N2F N 0.4314(2) 0.7356(2) 0.6023(2)
N3F N 0.2950(2) 0.6142(2) 0.5106(2)
O13F O 0.3183(2) 0.5748(2) 0.4569(2)
O10F O 0.5019(2) 0.73934(19) 0.5825(2)
O7F O 0.3411(4) 0.9103(2) 0.7641(3)
H11F H 0.0461 0.4547 0.3254
N6F_2 N 0.1400(2) 0.7026(2) 0.7985(2)
C11F_2 C 0.1782(3) 0.7079(2) 0.8674(2)
C15F_2 C 0.0917(3) 0.6431(3) 0.7837(2)
H9F_2 H 0.2116 0.7506 0.8779
C12F_2 C 0.1694(3) 0.6524(2) 0.9226(2)
C14_2 C 0.0811(3) 0.5866(3) 0.8369(3)
H12F_2 H 0.0644 0.6403 0.7353
H10F_2 H 0.1963 0.6572 0.9710
C13_2 C 0.1213(2) 0.5889(2) 0.9080(2)
H11_2 H 0.0461 0.5453 0.8254
C3_2 C 0.1146(3) 0.5253(2) 0.9640(2)
C2_2 C 0.1251(3) 0.5372(2) 1.0431(3)
C4_2 C 0.1024(3) 0.4506(2) 0.9396(2)
C1_2 C 0.1266(3) 0.4770(2) 1.0939(2)
H2_2 H 0.1313 0.5874 1.0623
H3_2 H 0.0930 0.4406 0.8863
C5_2 C 0.1036(3) 0.3916(2) 0.9913(2)
N4_2 N 0.1181(2) 0.40564(19) 1.06738(19)
H1_2 H 0.1336 0.4859 1.1478
H4_2 H 0.0944 0.3412 0.9739
O1_2 O 0.12550(17) 0.34804(15) 1.11639(17)
Sm1_2 Sm 0.254063(12) 0.279345(10) 1.141298(11)
O14 O 0.5000 0.0607(13) 0.2500
O15? O 0.5000 0.1365(19) 0.2500
loop_
_geom_bond_atom_site_label_1
_geom_bond_atom_site_label_2
_geom_bond_site_symmetry_1
_geom_bond_site_symmetry_2
Sm1 O1 1_555 1_555
O1 N4 1_555 1_555
O2 Sm1 1_555 1_555
O3 Sm1 1_555 1_555
O4 N7 1_555 1_555
O5 Sm1 1_555 1_555
O6 Sm1 1_555 1_555
O7 N1 1_555 1_555
O8 Sm1 1_555 1_555
O9 Sm1 1_555 1_555
O10 N2 1_555 1_555
O11 Sm1 1_555 1_555
O12 Sm1 1_555 1_555
O13 N3 1_555 1_555
N1 O5 1_555 1_555
N2 O8 1_555 1_555
N3 O11 1_555 1_555
N4 C1 1_555 1_555
N5 O2 1_555 1_555
N6 O3 1_555 1_555
N7 C16 1_555 1_555
C1 H1 1_555 1_555
C2 C1 1_555 1_555
H2 C2 1_555 1_555
C3 C2 1_555 1_555
C4 C3 1_555 1_555
H3 C4 1_555 1_555
C5 N4 1_555 1_555
H4 C5 1_555 1_555
C6 N5 1_555 1_555
H5 C6 1_555 1_555
C7 C6 1_555 1_555
H6 C7 1_555 1_555
C8 C7 1_555 1_555
C9 C8 1_555 1_555
H7 C9 1_555 1_555
C10 N5 1_555 1_555
H8 C10 1_555 1_555
C11 N6 1_555 1_555
H9 C11 1_555 1_555
C12 C11 1_555 1_555
H10 C12 1_555 1_555
C13 C3 1_555 1_555
C14 C13 1_555 1_555
H11 C14 1_555 1_555
C15 N6 1_555 1_555
H12 C15 1_555 1_555
C16 H13 1_555 1_555
C17 C16 1_555 1_555
H14 C17 1_555 1_555
C18 C8 1_555 1_555
C19 C18 1_555 1_555
H15 C19 1_555 1_555
C20 N7 1_555 1_555
H16 C20 1_555 1_555
C13F C12 1_555 1_555
C12F C13 1_555 1_555
C15F C14 1_555 1_555
C14F C15 1_555 1_555
O4E Sm1 1_555 1_555
Sm1E O4 1_555 1_555
C3F C13F 1_555 1_555
C2F C3F 1_555 1_555
C4F C3F 1_555 1_555
H3F C4F 1_555 1_555
C5F C4F 1_555 1_555
C1F C2F 1_555 1_555
H2F C2F 1_555 1_555
N4F C5F 1_555 1_555
H1F C1F 1_555 1_555
H4F C5F 1_555 1_555
O1F N4F 1_555 1_555
Sm1F O1F 1_555 1_555
C11F C12F 1_555 1_555
H10F C12F 1_555 1_555
N6F C15F 1_555 1_555
H12F C15F 1_555 1_555
H9F C11F 1_555 1_555
O3F N6F 1_555 1_555
Sm1F_2 O3F 1_555 1_555
O2F Sm1F 1_555 1_555
O3F_2 Sm1F 1_555 1_555
O4C Sm1F 1_555 1_555
O5F Sm1F 1_555 1_555
O6F Sm1F 1_555 1_555
O8F Sm1F 1_555 1_555
O9F Sm1F 1_555 1_555
O11F Sm1F 1_555 1_555
O12F Sm1F 1_555 1_555
N1F O5F 1_555 1_555
N2F O8F 1_555 1_555
N3F O11F 1_555 1_555
O13F N3F 1_555 1_555
O10F N2F 1_555 1_555
O7F N1F 1_555 1_555
H11F C14F 1_555 1_555
N6F_2 O3F_2 1_555 1_555
C11F_2 N6F_2 1_555 1_555
C15F_2 N6F_2 1_555 1_555
H9F_2 C11F_2 1_555 1_555
C12F_2 C11F_2 1_555 1_555
C14_2 C15F_2 1_555 1_555
H12F_2 C15F_2 1_555 1_555
H10F_2 C12F_2 1_555 1_555
C13_2 C12F_2 1_555 1_555
H11_2 C14_2 1_555 1_555
C3_2 C13_2 1_555 1_555
C2_2 C3_2 1_555 1_555
C4_2 C3_2 1_555 1_555
C1_2 C2_2 1_555 1_555
H2_2 C2_2 1_555 1_555
H3_2 C4_2 1_555 1_555
C5_2 C4_2 1_555 1_555
N4_2 C1_2 1_555 1_555
H1_2 C1_2 1_555 1_555
H4_2 C5_2 1_555 1_555
O1_2 N4_2 1_555 1_555
Sm1_2 O1_2 1_555 1_555
O6 N1 1_555 1_555
O9 N2 1_555 1_555
O12 N3 1_555 1_555
C4 C5 1_555 1_555
C9 C10 1_555 1_555
C17 C18 1_555 1_555
C19 C20 1_555 1_555
C13F C14F 1_555 1_555
C1F N4F 1_555 1_555
C11F N6F 1_555 1_555
O6F N1F 1_555 1_555
O9F N2F 1_555 1_555
O12F N3F 1_555 1_555
C14_2 C13_2 1_555 1_555
C5_2 N4_2 1_555 1_555

#END
