
#######################################################################
#
#                 Cambridge Crystallographic Data Centre
#                                CCDC 
#
#######################################################################
#
# If this CIF has been generated from an entry in the Cambridge 
# Structural Database, then it will include bibliographic, chemical, 
# crystal, experimental, refinement or atomic coordinate data resulting 
# from the CCDC's data processing and validation procedures.
#
#######################################################################

data_LOMMEH
_symmetry_cell_setting           tetragonal
_symmetry_space_group_name_H-M   'I -4 2 d'
_symmetry_Int_Tables_number      122
_space_group_name_Hall           'I -4 2bw'
loop_
_symmetry_equiv_pos_site_id
_symmetry_equiv_pos_as_xyz
1 x,y,z
2 -x,-y,z
3 y,-x,-z
4 -y,x,-z
5 1/2-x,y,3/4-z
6 1/2+x,-y,3/4-z
7 1/2-y,-x,3/4+z
8 1/2+y,x,3/4+z
9 1/2+x,1/2+y,1/2+z
10 1/2-x,1/2-y,1/2+z
11 1/2+y,1/2-x,1/2-z
12 1/2-y,1/2+x,1/2-z
13 -x,1/2+y,1/4-z
14 x,1/2-y,1/4-z
15 -y,1/2-x,1/4+z
16 y,1/2+x,1/4+z
_cell_length_a                   29.1934(14)
_cell_length_b                   29.1934(14)
_cell_length_c                   10.5041(11)
_cell_angle_alpha                90
_cell_angle_beta                 90
_cell_angle_gamma                90
_cell_volume                     8952.17
loop_
_atom_site_label
_atom_site_type_symbol
_atom_site_fract_x
_atom_site_fract_y
_atom_site_fract_z
Eu1 Eu 0.391838(11) 0.683313(11) 0.21445(3)
C1 C 0.3419(3) 0.6015(2) 0.1883(7)
C2 C 0.3078(3) 0.5666(3) 0.1609(8)
C3 C 0.2639(3) 0.5631(3) 0.2012(11)
H1 H 0.2478 0.5847 0.2519
C4 C 0.2467(3) 0.5212(3) 0.1535(9)
H2 H 0.2171 0.5086 0.1675
C5 C 0.2812(2) 0.5028(3) 0.0835(8)
C6 C 0.2826(2) 0.4595(2) 0.0098(6)
C7 C 0.3241(2) 0.7763(2) 0.2680(6)
C8 C 0.2828(3) 0.7968(3) 0.3248(7)
C9 C 0.2705(3) 0.8414(3) 0.3418(8)
H3 H 0.2870 0.8675 0.3135
C10 C 0.4910(3) 0.6216(3) 0.2527(9)
H4 H 0.4881 0.6215 0.1626
C11 C 0.5303(5) 0.6013(5) 0.3070(14)
H5 H 0.5542 0.5893 0.2555
C12 C 0.5327(5) 0.5996(5) 0.4405(14)
H6 H 0.5581 0.5853 0.4804
C13 C 0.4979(3) 0.6189(4) 0.5157(10)
C14 C 0.4975(4) 0.6174(4) 0.6527(11)
H7 H 0.5229 0.6046 0.6967
C15 C 0.4629(4) 0.6332(3) 0.7172(11)
H8 H 0.4635 0.6313 0.8074
C16 C 0.4243(4) 0.6532(3) 0.6575(9)
C17 C 0.3854(5) 0.6700(4) 0.7220(12)
H9 H 0.3848 0.6696 0.8124
C18 C 0.3485(5) 0.6867(5) 0.6576(12)
H10 H 0.3215 0.6962 0.7007
C19 C 0.3521(4) 0.6891(4) 0.5234(10)
H11 H 0.3269 0.7009 0.4768
C20 C 0.4241(3) 0.6571(3) 0.5229(8)
C21 C 0.4616(3) 0.6386(3) 0.4510(9)
N1 N 0.4585(2) 0.6404(2) 0.3199(6)
N2 N 0.3888(3) 0.6760(2) 0.4595(6)
O1 O 0.31741(18) 0.45011(16) -0.0534(4)
O2 O 0.24614(17) 0.43484(16) 0.0169(5)
O3 O 0.31876(17) 0.52981(16) 0.0863(5)
O4 O 0.38152(17) 0.60115(18) 0.1376(5)
O5 O 0.3292(2) 0.6340(2) 0.2635(6)
O6 O 0.33034(17) 0.73427(18) 0.2733(5)
O7 O 0.35179(18) 0.80549(17) 0.2209(5)
O8 O 0.2500 0.7692(2) 0.3750
C7D C 0.1759(2) 0.7763(2) 0.4820(6)
C8D C 0.2172(3) 0.7968(3) 0.4252(7)
C9D C 0.2295(3) 0.8414(3) 0.4082(8)
H3D H 0.2130 0.8675 0.4365
O6D O 0.16966(17) 0.73427(18) 0.4767(5)
O7D O 0.14821(18) 0.80549(17) 0.5291(5)
Eu1B Eu 0.683313(11) 0.608162(11) -0.21445(3)
C1B C 0.6015(2) 0.6581(3) -0.1883(7)
C2B C 0.5666(3) 0.6922(3) -0.1609(8)
C3B C 0.5631(3) 0.7361(3) -0.2012(11)
H1B H 0.5847 0.7522 -0.2519
C4B C 0.5212(3) 0.7533(3) -0.1535(9)
H2B H 0.5086 0.7829 -0.1675
C5B C 0.5028(3) 0.7188(2) -0.0835(8)
C6B C 0.4595(2) 0.7174(2) -0.0098(6)
C10B C 0.6216(3) 0.5090(3) -0.2527(9)
H4B H 0.6215 0.5119 -0.1626
C11B C 0.6013(5) 0.4697(5) -0.3070(14)
H5B H 0.5893 0.4458 -0.2555
C12B C 0.5996(5) 0.4673(5) -0.4405(14)
H6B H 0.5853 0.4419 -0.4804
C13B C 0.6189(4) 0.5021(3) -0.5157(10)
C14B C 0.6174(4) 0.5025(4) -0.6527(11)
H7B H 0.6046 0.4771 -0.6967
C15B C 0.6332(3) 0.5371(4) -0.7172(11)
H8B H 0.6313 0.5365 -0.8074
C16B C 0.6532(3) 0.5757(4) -0.6575(9)
C17B C 0.6700(4) 0.6146(5) -0.7220(12)
H9B H 0.6696 0.6152 -0.8124
C18B C 0.6867(5) 0.6515(5) -0.6576(12)
H10B H 0.6962 0.6785 -0.7007
C19B C 0.6891(4) 0.6479(4) -0.5234(10)
H11B H 0.7009 0.6731 -0.4768
C20B C 0.6571(3) 0.5759(3) -0.5229(8)
C21B C 0.6386(3) 0.5384(3) -0.4510(9)
N1B N 0.6404(2) 0.5415(2) -0.3199(6)
N2B N 0.6760(2) 0.6112(3) -0.4595(6)
O1B O 0.45011(16) 0.68259(18) 0.0534(4)
O2B O 0.43484(16) 0.75386(17) -0.0169(5)
O3B O 0.52981(16) 0.68124(17) -0.0863(5)
O4B O 0.60115(18) 0.61848(17) -0.1376(5)
O5B O 0.6340(2) 0.6708(2) -0.2635(6)
Eu1C Eu 0.316687(11) 0.391838(11) -0.21445(3)
Eu1D Eu 0.108162(11) 0.683313(11) 0.53555(3)
Eu1G Eu 0.183313(11) 0.391838(11) -0.03555(3)
Eu1I Eu 0.108162(11) 0.816687(11) 0.71445(3)
Eu1M Eu 0.391838(11) 0.816687(11) 0.03555(3)
O1A O 0.68259(18) 0.54989(16) -0.0534(4)
O2E O 0.74614(17) 0.56516(16) -0.2669(5)
O2O O 0.43484(16) 0.74614(17) 0.2669(5)
O6B O 0.73427(18) 0.66966(17) -0.2733(5)
O7F O 0.69451(17) 0.64821(18) -0.0291(5)
O7M O 0.35179(18) 0.69451(17) 0.0291(5)
O9 O 0.4412(3) 0.5378(3) -0.0041(10)
H12 H 0.4636 0.5428 0.0450
H13 H 0.4240 0.5562 0.0364
loop_
_geom_bond_atom_site_label_1
_geom_bond_atom_site_label_2
_geom_bond_site_symmetry_1
_geom_bond_site_symmetry_2
Eu1 N1 1_555 1_555
C1 C2 1_555 1_555
C2 C3 1_555 1_555
C3 H1 1_555 1_555
C4 C3 1_555 1_555
H2 C4 1_555 1_555
C5 C4 1_555 1_555
C6 C5 1_555 1_555
C7 C8 1_555 1_555
C8 C9 1_555 1_555
C9 H3 1_555 1_555
C10 H4 1_555 1_555
C11 C10 1_555 1_555
H5 C11 1_555 1_555
C12 C11 1_555 1_555
H6 C12 1_555 1_555
C13 C12 1_555 1_555
C14 C13 1_555 1_555
H7 C14 1_555 1_555
C15 C14 1_555 1_555
H8 C15 1_555 1_555
C16 C15 1_555 1_555
C17 C16 1_555 1_555
H9 C17 1_555 1_555
C18 C17 1_555 1_555
H10 C18 1_555 1_555
C19 C18 1_555 1_555
H11 C19 1_555 1_555
C20 C16 1_555 1_555
C21 C13 1_555 1_555
N1 C10 1_555 1_555
N2 Eu1 1_555 1_555
O1 C6 1_555 1_555
O2 C6 1_555 1_555
O3 C2 1_555 1_555
O4 Eu1 1_555 1_555
O5 Eu1 1_555 1_555
O6 Eu1 1_555 1_555
O7 C7 1_555 1_555
O8 C8 1_555 1_555
O9 H12 1_555 1_555
H13 O9 1_555 1_555
C7D C8D 1_555 1_555
C8D O8 1_555 1_555
C9D C9 1_555 1_555
H3D C9D 1_555 1_555
O6D C7D 1_555 1_555
O7D C7D 1_555 1_555
Eu1B N1B 1_555 1_555
C1B C2B 1_555 1_555
C2B C3B 1_555 1_555
C3B H1B 1_555 1_555
C4B C3B 1_555 1_555
H2B C4B 1_555 1_555
C5B C4B 1_555 1_555
C6B C5B 1_555 1_555
C10B H4B 1_555 1_555
C11B C10B 1_555 1_555
H5B C11B 1_555 1_555
C12B C11B 1_555 1_555
H6B C12B 1_555 1_555
C13B C12B 1_555 1_555
C14B C13B 1_555 1_555
H7B C14B 1_555 1_555
C15B C14B 1_555 1_555
H8B C15B 1_555 1_555
C16B C15B 1_555 1_555
C17B C16B 1_555 1_555
H9B C17B 1_555 1_555
C18B C17B 1_555 1_555
H10B C18B 1_555 1_555
C19B C18B 1_555 1_555
H11B C19B 1_555 1_555
C20B C16B 1_555 1_555
C21B C13B 1_555 1_555
N1B C10B 1_555 1_555
N2B Eu1B 1_555 1_555
O1B Eu1 1_555 1_555
O2B C6B 1_555 1_555
O3B C2B 1_555 1_555
O4B Eu1B 1_555 1_555
O5B Eu1B 1_555 1_555
Eu1C O1 1_555 1_555
Eu1D O6D 1_555 1_555
Eu1G O2 1_555 1_555
Eu1I O7D 1_555 1_555
Eu1M O7 1_555 1_555
O1A Eu1B 1_555 1_555
O2E Eu1B 1_555 1_555
O2O Eu1 1_555 1_555
O6B Eu1B 1_555 1_555
O7F Eu1B 1_555 1_555
O7M Eu1 1_555 1_555
C1 O4 1_555 1_555
C1 O5 1_555 1_555
C5 O3 1_555 1_555
C7 O6 1_555 1_555
C19 N2 1_555 1_555
C20 C21 1_555 1_555
C20 N2 1_555 1_555
C21 N1 1_555 1_555
C8D C9D 1_555 1_555
C1B O4B 1_555 1_555
C1B O5B 1_555 1_555
C5B O3B 1_555 1_555
C6B O1B 1_555 1_555
C19B N2B 1_555 1_555
C20B C21B 1_555 1_555
C20B N2B 1_555 1_555
C21B N1B 1_555 1_555
O2B Eu1M 1_555 1_555

#END
