
#######################################################################
#
#                 Cambridge Crystallographic Data Centre
#                                CCDC 
#
#######################################################################
#
# If this CIF has been generated from an entry in the Cambridge 
# Structural Database, then it will include bibliographic, chemical, 
# crystal, experimental, refinement or atomic coordinate data resulting 
# from the CCDC's data processing and validation procedures.
#
#######################################################################

data_LOMNOS
_symmetry_cell_setting           monoclinic
_symmetry_space_group_name_H-M   'A 2/n'
_symmetry_Int_Tables_number      15
_space_group_name_Hall           '-A 2yab'
loop_
_symmetry_equiv_pos_site_id
_symmetry_equiv_pos_as_xyz
1 x,y,z
2 1/2-x,y,1/2-z
3 x,1/2+y,1/2+z
4 1/2-x,1/2+y,-z
5 -x,-y,-z
6 1/2+x,-y,1/2+z
7 -x,1/2-y,1/2-z
8 1/2+x,1/2-y,z
_cell_length_a                   20.2009
_cell_length_b                   11.0063
_cell_length_c                   15.1038
_cell_angle_alpha                90
_cell_angle_beta                 105.7289
_cell_angle_gamma                90
_cell_volume                     3232.39
loop_
_atom_site_label
_atom_site_type_symbol
_atom_site_fract_x
_atom_site_fract_y
_atom_site_fract_z
C1 C 0.20313 0.86732 0.28321
C2 C 0.20257 0.74056 0.28439
C3 C 0.30469 0.35140 0.30455
C4 C 0.30551 0.47811 0.30579
H1 H 0.16538 0.91652 0.30773
H2 H 0.16514 0.69283 0.31098
H3 H 0.34808 0.30261 0.34724
H4 H 0.35127 0.52861 0.35211
N1 N 0.25000 0.92876 0.25000
C5 C 0.25000 0.67658 0.25000
N2 N 0.25000 0.28988 0.25000
C6 C 0.25000 0.54174 0.25000
Cu1 Cu 0.25000 1.09819 0.25000
N3 N 0.33914 1.08547 0.34972
C7 C 0.33994 1.01681 0.42484
C8 C 0.40167 0.97774 0.48340
C9 C 0.46461 1.00904 0.46577
C10 C 0.46172 1.08853 0.39129
C11 C 0.39863 1.12560 0.33459
H5 H 0.29237 0.98723 0.43762
H6 H 0.39799 0.92209 0.54038
H7 H 0.50661 1.12272 0.37425
H8 H 0.39739 1.18548 0.27761
F1 F 0.29981 1.10759 0.13573
B1 B 0.32973 1.16389 0.07054
F2 F 0.27733 1.22024 0.00052
F3 F 0.37815 1.25306 0.11497
F4 F 0.36336 1.07493 0.03020
C1A C 0.29687 0.86732 0.21679
C2A C 0.29743 0.74056 0.21561
C3A C 0.19531 0.35140 0.19545
C4A C 0.19449 0.47811 0.19421
H1A H 0.33462 0.91652 0.19227
H2A H 0.33486 0.69283 0.18902
H3A H 0.15192 0.30261 0.15276
H4A H 0.14873 0.52861 0.14789
C7D C 0.66006 0.98319 0.57516
C8D C 0.59833 1.02226 0.51660
C9D C 0.53539 0.99096 0.53423
C10D C 0.53828 0.91147 0.60871
C11D C 0.60137 0.87440 0.66541
H5D H 0.70763 1.01277 0.56238
H6D H 0.60201 1.07791 0.45962
H7D H 0.49339 0.87728 0.62575
H8D H 0.60261 0.81452 0.72239
N3D N 0.66086 0.91453 0.65028
F1A F 0.20019 1.10759 0.36427
B1A B 0.17027 1.16389 0.42946
F2A F 0.22267 1.22024 0.49948
F3A F 0.12185 1.25306 0.38503
F4A F 0.13664 1.07493 0.46980
N2_2 N 0.25000 1.28988 0.25000
Cu1_2 Cu 0.25000 0.09819 0.25000
Cu1D Cu 0.75000 0.90181 0.75000
N3A N 0.16086 1.08547 0.15028
C12 C -0.55263 0.00473 -0.23594
C13 C -0.52274 0.04307 -0.13501
C14 C -0.51140 0.18036 -0.11941
C15 C -0.43269 0.19192 -0.07283
H9 H -0.54812 -0.09578 -0.23834
H10 H -0.51899 0.04578 -0.27530
H11 H -0.60699 0.03056 -0.26867
H12 H -0.47258 -0.00562 -0.11770
H13 H -0.55389 0.00768 -0.09009
H14 H -0.54150 0.21693 -0.07358
H15 H -0.52796 0.22831 -0.18666
H16 H -0.42374 0.17588 0.00217
H17 H -0.41985 0.28780 -0.08440
H18 H -0.39812 0.13120 -0.09876
loop_
_geom_bond_atom_site_label_1
_geom_bond_atom_site_label_2
_geom_bond_site_symmetry_1
_geom_bond_site_symmetry_2
C1 C2 1_555 1_555
C2 H2 1_555 1_555
C3 C4 1_555 1_555
C4 H4 1_555 1_555
H1 C1 1_555 1_555
H3 C3 1_555 1_555
N1 C1 1_555 1_555
C5 C2 1_555 1_555
N2 C3 1_555 1_555
C6 C4 1_555 1_555
Cu1 N1 1_555 1_555
N3 Cu1 1_555 1_555
C7 N3 1_555 1_555
C8 C7 1_555 1_555
C9 C8 1_555 1_555
C10 C9 1_555 1_555
C11 N3 1_555 1_555
H5 C7 1_555 1_555
H6 C8 1_555 1_555
H7 C10 1_555 1_555
H8 C11 1_555 1_555
F1 Cu1 1_555 1_555
B1 F1 1_555 1_555
F2 B1 1_555 1_555
F3 B1 1_555 1_555
F4 B1 1_555 1_555
C12 C13 1_555 1_555
C13 C14 1_555 1_555
C14 C15 1_555 1_555
C15 H16 1_555 1_555
H9 C12 1_555 1_555
H10 C12 1_555 1_555
H11 C12 1_555 1_555
H12 C13 1_555 1_555
H13 C13 1_555 1_555
H14 C14 1_555 1_555
H15 C14 1_555 1_555
H17 C15 1_555 1_555
H18 C15 1_555 1_555
C1A N1 1_555 1_555
C2A C5 1_555 1_555
C3A N2 1_555 1_555
C4A C6 1_555 1_555
H1A C1A 1_555 1_555
H2A C2A 1_555 1_555
H3A C3A 1_555 1_555
H4A C4A 1_555 1_555
C7D C8D 1_555 1_555
C8D C9D 1_555 1_555
C9D C9 1_555 1_555
C10D C9D 1_555 1_555
C11D C10D 1_555 1_555
H5D C7D 1_555 1_555
H6D C8D 1_555 1_555
H7D C10D 1_555 1_555
H8D C11D 1_555 1_555
N3D C7D 1_555 1_555
F1A Cu1 1_555 1_555
B1A F1A 1_555 1_555
F2A B1A 1_555 1_555
F3A B1A 1_555 1_555
F4A B1A 1_555 1_555
N2_2 Cu1 1_555 1_555
Cu1_2 N2 1_555 1_555
Cu1D N3D 1_555 1_555
N3A Cu1 1_555 1_555
C5 C6 1_555 1_555
C10 C11 1_555 1_555
C1A C2A 1_555 1_555
C3A C4A 1_555 1_555
C11D N3D 1_555 1_555

#END
