
#######################################################################
#
#                 Cambridge Crystallographic Data Centre
#                                CCDC 
#
#######################################################################
#
# If this CIF has been generated from an entry in the Cambridge 
# Structural Database, then it will include bibliographic, chemical, 
# crystal, experimental, refinement or atomic coordinate data resulting 
# from the CCDC's data processing and validation procedures.
#
#######################################################################

data_LOMQOV
_symmetry_cell_setting           triclinic
_symmetry_space_group_name_H-M   'P -1'
_symmetry_Int_Tables_number      2
_space_group_name_Hall           '-P 1'
loop_
_symmetry_equiv_pos_site_id
_symmetry_equiv_pos_as_xyz
1 x,y,z
2 -x,-y,-z
_cell_length_a                   7.3489(15)
_cell_length_b                   10.969(2)
_cell_length_c                   16.002(3)
_cell_angle_alpha                72.51(3)
_cell_angle_beta                 78.52(3)
_cell_angle_gamma                73.12(3)
_cell_volume                     1168.42
loop_
_atom_site_label
_atom_site_type_symbol
_atom_site_fract_x
_atom_site_fract_y
_atom_site_fract_z
Co1 Co 0.45886(17) 0.25186(11) 0.24126(8)
Co2 Co -0.04505(17) 0.24384(10) 0.25689(8)
O1 O 0.3021(11) 0.3151(8) 0.3475(5)
O2 O 0.0103(11) 0.2766(7) 0.3681(5)
O3 O 0.4100(10) 0.0669(6) 0.2863(5)
O4 O 0.1195(10) 0.0531(6) 0.2783(5)
O5 O 0.7924(11) -0.5645(6) 0.2343(6)
O6 O 0.5163(11) -0.5660(6) 0.1998(5)
O7 O -0.0924(10) 0.2168(7) 0.1430(5)
O8 O -0.3754(11) 0.1839(8) 0.1376(5)
C1 C 0.1303(15) 0.3304(9) 0.3797(6)
C2 C 0.0621(15) 0.4166(9) 0.4428(6)
C3 C 0.1878(16) 0.4660(12) 0.4694(8)
H1 H 0.3168 0.4444 0.4476
C4 C -0.1310(16) 0.4551(11) 0.4738(8)
H2 H -0.2213 0.427 0.4558
C5 C 0.2941(15) 0.0098(9) 0.2764(6)
C6 C 0.3803(13) -0.1276(8) 0.2632(7)
C7 C 0.5748(17) -0.1739(11) 0.2492(10)
H3 H 0.6533 -0.1194 0.2464
C8 C 0.6582(18) -0.3009(11) 0.2392(10)
H4 H 0.7906 -0.3332 0.234
C9 C 0.5391(15) -0.3794(9) 0.2371(7)
C10 C 0.3420(17) -0.3292(10) 0.2487(8)
H5 H 0.2622 -0.3803 0.2471
C11 C 0.2615(17) -0.2056(11) 0.2625(9)
H6 H 0.1291 -0.1747 0.2713
C12 C 0.6245(14) -0.5159(9) 0.2241(6)
C13 C -0.1957(15) 0.1653(9) 0.1181(6)
C14 C -0.0935(17) 0.0786(10) 0.0563(7)
C15 C 0.0992(17) 0.0415(13) 0.0453(9)
H7 H 0.1672 0.0699 0.0759
C16 C -0.200(2) 0.0386(12) 0.0109(9)
H8 H -0.3334 0.0642 0.0178
S1 S 0.6371(4) 0.0873(3) 0.41390(17)
O9 O 0.6940(10) 0.1754(7) 0.3234(4)
C17 C 0.682(4) 0.151(2) 0.4936(10)
H9 H 0.8098 0.1635 0.4801
H10 H 0.6686 0.0911 0.5508
H11 H 0.5919 0.2347 0.4937
C18 C 0.816(3) -0.0634(19) 0.4237(13)
H12 H 0.796 -0.1121 0.387
H13 H 0.8098 -0.1146 0.484
H14 H 0.9404 -0.0451 0.4053
S2 S 0.1395(4) 0.4137(3) 0.08613(18)
O10 O 0.1968(9) 0.3217(7) 0.1747(4)
C19 C 0.184(3) 0.5657(15) 0.0807(12)
H15 H 0.2984 0.5497 0.1072
H16 H 0.0779 0.6155 0.112
H17 H 0.2015 0.6146 0.0202
C20 C 0.319(3) 0.361(2) 0.0091(9)
H18 H 0.4402 0.3584 0.0241
H19 H 0.2995 0.4204 -0.048
H20 H 0.3171 0.2741 0.0081
O1A O -0.3021(11) 0.6849(8) 0.6525(5)
O2A O -0.0103(11) 0.7234(7) 0.6319(5)
C1A C -0.1303(15) 0.6696(9) 0.6203(6)
C2A C -0.0621(15) 0.5834(9) 0.5572(6)
C3A C -0.1878(16) 0.5340(12) 0.5306(8)
H1A H -0.3168 0.5556 0.5524
C4A C 0.1310(16) 0.5449(11) 0.5262(8)
H2A H 0.2213 0.573 0.5442
O7A O 0.0924(10) -0.2168(7) -0.1430(5)
O8A O 0.3754(11) -0.1839(8) -0.1376(5)
C13A C 0.1957(15) -0.1653(9) -0.1181(6)
C14A C 0.0935(17) -0.0786(10) -0.0563(7)
C15A C -0.0992(17) -0.0415(13) -0.0453(9)
H7A H -0.1672 -0.0699 -0.0759
C16A C 0.200(2) -0.0386(12) -0.0109(9)
H8A H 0.3334 -0.0642 -0.0178
Co1A Co -0.45886(17) -0.25186(11) -0.24126(8)
Co2A Co 0.04505(17) -0.24384(10) -0.25689(8)
O3A O -0.4100(10) -0.0669(6) -0.2863(5)
O4A O -0.1195(10) -0.0531(6) -0.2783(5)
O5A O -0.7924(11) 0.5645(6) -0.2343(6)
O6A O -0.5163(11) 0.5660(6) -0.1998(5)
C5A C -0.2941(15) -0.0098(9) -0.2764(6)
C6A C -0.3803(13) 0.1276(8) -0.2632(7)
C7A C -0.5748(17) 0.1739(11) -0.2492(10)
H3A H -0.6533 0.1194 -0.2464
C8A C -0.6582(18) 0.3009(11) -0.2392(10)
H4A H -0.7906 0.3332 -0.234
C9A C -0.5391(15) 0.3794(9) -0.2371(7)
C10A C -0.3420(17) 0.3292(10) -0.2487(8)
H5A H -0.2622 0.3803 -0.2471
C11A C -0.2615(17) 0.2056(11) -0.2625(9)
H6A H -0.1291 0.1747 -0.2713
C12A C -0.6245(14) 0.5159(9) -0.2241(6)
S1A S -0.6371(4) -0.0873(3) -0.41390(17)
O9A O -0.6940(10) -0.1754(7) -0.3234(4)
C17A C -0.682(4) -0.151(2) -0.4936(10)
H9A H -0.8098 -0.1635 -0.4801
H10A H -0.6686 -0.0911 -0.5508
H11A H -0.5919 -0.2347 -0.4937
C18A C -0.816(3) 0.0634(19) -0.4237(13)
H12A H -0.796 0.1121 -0.387
H13A H -0.8098 0.1146 -0.484
H14A H -0.9404 0.0451 -0.4053
S2A S -0.1395(4) -0.4137(3) -0.08613(18)
O10A O -0.1968(9) -0.3217(7) -0.1747(4)
C19A C -0.184(3) -0.5657(15) -0.0807(12)
H15A H -0.2984 -0.5497 -0.1072
H16A H -0.0779 -0.6155 -0.112
H17A H -0.2015 -0.6146 -0.0202
C20A C -0.319(3) -0.361(2) -0.0091(9)
H18A H -0.4402 -0.3584 -0.0241
H19A H -0.2995 -0.4204 0.048
H20A H -0.3171 -0.2741 -0.0081
Co1_2 Co -0.54114(17) 0.25186(11) 0.24126(8)
Co1_3 Co 0.45886(17) -0.74814(11) 0.24126(8)
Co1A_2 Co -0.45886(17) 0.74814(11) -0.24126(8)
Co1A_3 Co -0.45886(17) 0.74814(11) 0.75874(8)
Co1A_4 Co 0.54114(17) -0.25186(11) -0.24126(8)
Co2_2 Co 0.95495(17) -0.75616(10) 0.25689(8)
Co2_3 Co 0.95495(17) 0.24384(10) 0.25689(8)
Co2A_2 Co -0.95495(17) -0.24384(10) -0.25689(8)
Co2A_3 Co -0.95495(17) 0.75616(10) -0.25689(8)
Co2A_4 Co 0.04505(17) 0.75616(10) 0.74311(8)
O1A_2 O -0.3021(11) -0.3151(8) -0.3475(5)
O2A_2 O -0.0103(11) -0.2766(7) -0.3681(5)
O5_2 O -0.2076(11) 0.4355(6) 0.2343(6)
O5A_2 O 0.2076(11) -0.4355(6) -0.2343(6)
O6_2 O 0.5163(11) 0.4340(6) 0.1998(5)
O6A_2 O -0.5163(11) -0.4340(6) -0.1998(5)
O8_2 O 0.6246(11) 0.1839(8) 0.1376(5)
O8A_2 O -0.6246(11) -0.1839(8) -0.1376(5)
O9_2 O -0.3060(10) 0.1754(7) 0.3234(4)
O9A_2 O 0.3060(10) -0.1754(7) -0.3234(4)
loop_
_geom_bond_atom_site_label_1
_geom_bond_atom_site_label_2
_geom_bond_site_symmetry_1
_geom_bond_site_symmetry_2
Co1 O1 1_555 1_555
Co2 O2 1_555 1_555
O1 C1 1_555 1_555
O2 C1 1_555 1_555
O3 Co1 1_555 1_555
O4 Co2 1_555 1_555
O5 C12 1_555 1_555
O6 C12 1_555 1_555
O7 Co2 1_555 1_555
O8 C13 1_555 1_555
C1 C2 1_555 1_555
C2 C3 1_555 1_555
C3 H1 1_555 1_555
C4 C2 1_555 1_555
H2 C4 1_555 1_555
C5 O3 1_555 1_555
C6 C5 1_555 1_555
C7 C6 1_555 1_555
H3 C7 1_555 1_555
C8 C7 1_555 1_555
H4 C8 1_555 1_555
C9 C8 1_555 1_555
C10 C9 1_555 1_555
H5 C10 1_555 1_555
C11 C6 1_555 1_555
H6 C11 1_555 1_555
C12 C9 1_555 1_555
C13 O7 1_555 1_555
C14 C13 1_555 1_555
C15 C14 1_555 1_555
H7 C15 1_555 1_555
C16 C14 1_555 1_555
H8 C16 1_555 1_555
S1 O9 1_555 1_555
O9 Co1 1_555 1_555
C17 S1 1_555 1_555
H9 C17 1_555 1_555
H10 C17 1_555 1_555
H11 C17 1_555 1_555
C18 S1 1_555 1_555
H12 C18 1_555 1_555
H13 C18 1_555 1_555
H14 C18 1_555 1_555
S2 O10 1_555 1_555
O10 Co1 1_555 1_555
C19 S2 1_555 1_555
H15 C19 1_555 1_555
H16 C19 1_555 1_555
H17 C19 1_555 1_555
C20 S2 1_555 1_555
H18 C20 1_555 1_555
H19 C20 1_555 1_555
H20 C20 1_555 1_555
O1A C1A 1_555 1_555
O2A C1A 1_555 1_555
C1A C2A 1_555 1_555
C2A C3A 1_555 1_555
C3A C4 1_555 1_555
H1A C3A 1_555 1_555
C4A C3 1_555 1_555
H2A C4A 1_555 1_555
O7A C13A 1_555 1_555
O8A C13A 1_555 1_555
C13A C14A 1_555 1_555
C14A C15A 1_555 1_555
C15A C16 1_555 1_555
H7A C15A 1_555 1_555
C16A C15 1_555 1_555
H8A C16A 1_555 1_555
Co1A O3A 1_555 1_555
Co2A O7A 1_555 1_555
O3A C5A 1_555 1_555
O4A Co2A 1_555 1_555
O5A C12A 1_555 1_555
O6A C12A 1_555 1_555
C5A O4A 1_555 1_555
C6A C5A 1_555 1_555
C7A C6A 1_555 1_555
H3A C7A 1_555 1_555
C8A C7A 1_555 1_555
H4A C8A 1_555 1_555
C9A C8A 1_555 1_555
C10A C9A 1_555 1_555
H5A C10A 1_555 1_555
C11A C6A 1_555 1_555
H6A C11A 1_555 1_555
C12A C9A 1_555 1_555
S1A O9A 1_555 1_555
O9A Co1A 1_555 1_555
C17A S1A 1_555 1_555
H9A C17A 1_555 1_555
H10A C17A 1_555 1_555
H11A C17A 1_555 1_555
C18A S1A 1_555 1_555
H12A C18A 1_555 1_555
H13A C18A 1_555 1_555
H14A C18A 1_555 1_555
S2A O10A 1_555 1_555
O10A Co1A 1_555 1_555
C19A S2A 1_555 1_555
H15A C19A 1_555 1_555
H16A C19A 1_555 1_555
H17A C19A 1_555 1_555
C20A S2A 1_555 1_555
H18A C20A 1_555 1_555
H19A C20A 1_555 1_555
H20A C20A 1_555 1_555
Co1_2 O8 1_555 1_555
Co1_3 O6 1_555 1_555
Co1A_2 O6A 1_555 1_555
Co1A_3 O1A 1_555 1_555
Co1A_4 O8A 1_555 1_555
Co2_2 O5 1_555 1_555
Co2_3 O9 1_555 1_555
Co2A_2 O9A 1_555 1_555
Co2A_3 O5A 1_555 1_555
Co2A_4 O2A 1_555 1_555
O1A_2 Co1A 1_555 1_555
O2A_2 Co2A 1_555 1_555
O5_2 Co2 1_555 1_555
O5A_2 Co2A 1_555 1_555
O6_2 Co1 1_555 1_555
O6A_2 Co1A 1_555 1_555
O8_2 Co1 1_555 1_555
O8A_2 Co1A 1_555 1_555
O9_2 Co2 1_555 1_555
O9A_2 Co2A 1_555 1_555
Co2 O10 1_555 1_555
O4 C5 1_555 1_555
C10 C11 1_555 1_555
C2A C4A 1_555 1_555
C14A C16A 1_555 1_555
Co2A O10A 1_555 1_555
C10A C11A 1_555 1_555
Co1_2 O9_2 1_555 1_555
Co1A_4 O9A_2 1_555 1_555

#END
