
#######################################################################
#
#                 Cambridge Crystallographic Data Centre
#                                CCDC 
#
#######################################################################
#
# If this CIF has been generated from an entry in the Cambridge 
# Structural Database, then it will include bibliographic, chemical, 
# crystal, experimental, refinement or atomic coordinate data resulting 
# from the CCDC's data processing and validation procedures.
#
#######################################################################

data_LONJII
_symmetry_cell_setting           monoclinic
_symmetry_space_group_name_H-M   'C 2/m'
_symmetry_Int_Tables_number      12
_space_group_name_Hall           '-C 2y'
loop_
_symmetry_equiv_pos_site_id
_symmetry_equiv_pos_as_xyz
1 x,y,z
2 -x,y,-z
3 1/2+x,1/2+y,z
4 1/2-x,1/2+y,-z
5 -x,-y,-z
6 x,-y,z
7 1/2-x,1/2-y,-z
8 1/2+x,1/2-y,z
_cell_length_a                   16.2182(15)
_cell_length_b                   9.1156(9)
_cell_length_c                   7.0356(7)
_cell_angle_alpha                90
_cell_angle_beta                 110.1540(10)
_cell_angle_gamma                90
_cell_volume                     976.446
loop_
_atom_site_label
_atom_site_type_symbol
_atom_site_fract_x
_atom_site_fract_y
_atom_site_fract_z
Zn1 Zn 0.5000 1.0000 1.0000
C1 C 0.59355(16) 0.8071(3) 0.7530(4)
H1 H 0.5714 0.8667 0.6394
C2 C 0.64383(17) 0.6871(3) 0.7651(4)
H2 H 0.6628 0.6493 0.6644
C3 C 0.62134(15) 0.7210(3) 1.0525(4)
H3 H 0.6229 0.7079 1.1848
C4 C 0.7116(2) 0.5000 1.0387(6)
H4 H 0.7648 0.5000 1.0052
H5 H 0.7285 0.5000 1.1851
N1 N 0.57978(12) 0.8286(2) 0.9337(3)
N2 N 0.66138(12) 0.6320(2) 0.9579(3)
N3 N 0.4184(2) 1.0000 0.6821(4)
N4 N 0.3414(2) 1.0000 0.6140(4)
N5 N 0.2654(2) 1.0000 0.5417(6)
Zn1_2 Zn 0.5000 0.0000 1.0000
C1E C 0.59355(16) 0.1929(3) 0.7530(4)
C1D C 0.40645(16) 0.1929(3) 1.2470(4)
C1A C 0.40645(16) 0.8071(3) 1.2470(4)
H1E H 0.5714 0.1333 0.6394
H1D H 0.4286 0.1333 1.3606
H1A H 0.4286 0.8667 1.3606
C2E C 0.64383(17) 0.3129(3) 0.7651(4)
C2D C 0.35617(17) 0.3129(3) 1.2349(4)
C2A C 0.35617(17) 0.6871(3) 1.2349(4)
H2D H 0.3372 0.3507 1.3356
H2A H 0.3372 0.6493 1.3356
H2E H 0.6628 0.3507 0.6644
C3D C 0.37866(15) 0.2790(3) 0.9475(4)
C3A C 0.37866(15) 0.7210(3) 0.9475(4)
C3E C 0.62134(15) 0.2790(3) 1.0525(4)
H3D H 0.3771 0.2921 0.8152
H3A H 0.3771 0.7079 0.8152
H3E H 0.6229 0.2921 1.1848
C4A C 0.2884(2) 0.5000 0.9613(6)
H4A H 0.2352 0.5000 0.9948
H5A H 0.2715 0.5000 0.8149
N1E N 0.57978(12) 0.1714(2) 0.9337(3)
N1D N 0.42022(12) 0.1714(2) 1.0663(3)
N1A N 0.42022(12) 0.8286(2) 1.0663(3)
N1D_2 N 0.42022(12) 1.1714(2) 1.0663(3)
N1E_2 N 0.57978(12) 1.1714(2) 0.9337(3)
N2E N 0.66138(12) 0.3680(2) 0.9579(3)
N2D N 0.33862(12) 0.3680(2) 1.0421(3)
N2A N 0.33862(12) 0.6320(2) 1.0421(3)
N3A N 0.5816(2) 1.0000 1.3179(4)
N4A N 0.6586(2) 1.0000 1.3860(4)
N5A N 0.7346(2) 1.0000 1.4583(6)
loop_
_geom_bond_atom_site_label_1
_geom_bond_atom_site_label_2
_geom_bond_site_symmetry_1
_geom_bond_site_symmetry_2
Zn1 N1 1_555 1_555
C1 H1 1_555 1_555
C2 C1 1_555 1_555
H2 C2 1_555 1_555
C3 H3 1_555 1_555
C4 H4 1_555 1_555
H5 C4 1_555 1_555
N1 C1 1_555 1_555
N2 C2 1_555 1_555
N3 Zn1 1_555 1_555
N4 N3 1_555 1_555
N5 N4 1_555 1_555
Zn1_2 N1E 1_555 1_555
C1E H1E 1_555 1_555
C1D H1D 1_555 1_555
C1A H1A 1_555 1_555
C2E C1E 1_555 1_555
C2D C1D 1_555 1_555
C2A C1A 1_555 1_555
H2D C2D 1_555 1_555
H2A C2A 1_555 1_555
H2E C2E 1_555 1_555
C3D H3D 1_555 1_555
C3A H3A 1_555 1_555
C3E H3E 1_555 1_555
C4A H4A 1_555 1_555
H5A C4A 1_555 1_555
N1E C1E 1_555 1_555
N1D Zn1_2 1_555 1_555
N1A Zn1 1_555 1_555
N1D_2 Zn1 1_555 1_555
N1E_2 Zn1 1_555 1_555
N2E C4 1_555 1_555
N2D C2D 1_555 1_555
N2A C2A 1_555 1_555
N3A Zn1 1_555 1_555
N4A N3A 1_555 1_555
N5A N4A 1_555 1_555
C3 N1 1_555 1_555
C3 N2 1_555 1_555
C4 N2 1_555 1_555
C1D N1D 1_555 1_555
C1A N1A 1_555 1_555
C2E N2E 1_555 1_555
C3D N1D 1_555 1_555
C3D N2D 1_555 1_555
C3A N1A 1_555 1_555
C3A N2A 1_555 1_555
C3E N1E 1_555 1_555
C3E N2E 1_555 1_555
C4A N2D 1_555 1_555
C4A N2A 1_555 1_555

#END
