
#######################################################################
#
#                 Cambridge Crystallographic Data Centre
#                                CCDC 
#
#######################################################################
#
# If this CIF has been generated from an entry in the Cambridge 
# Structural Database, then it will include bibliographic, chemical, 
# crystal, experimental, refinement or atomic coordinate data resulting 
# from the CCDC's data processing and validation procedures.
#
#######################################################################

data_LONLEF01
_symmetry_cell_setting           monoclinic
_symmetry_space_group_name_H-M   'P 21/c'
_symmetry_Int_Tables_number      14
_space_group_name_Hall           '-P 2ybc'
loop_
_symmetry_equiv_pos_site_id
_symmetry_equiv_pos_as_xyz
1 x,y,z
2 x,1/2-y,1/2+z
3 -x,-y,-z
4 -x,1/2+y,1/2-z
_cell_length_a                   11.4477(5)
_cell_length_b                   18.3575(16)
_cell_length_c                   14.1917(8)
_cell_angle_alpha                90
_cell_angle_beta                 102.085(4)
_cell_angle_gamma                90
_cell_volume                     2916.31
loop_
_atom_site_label
_atom_site_type_symbol
_atom_site_fract_x
_atom_site_fract_y
_atom_site_fract_z
Ag1 Ag 0.40424(3) 0.00310(3) 0.36631(4)
Ag2 Ag 0.28248(4) 0.01313(3) 0.14873(4)
N1 N 0.2144(4) 0.0038(3) 0.3728(3)
N2 N -0.4017(4) 0.0049(3) 0.3818(4)
N3 N 0.0857(3) 0.0093(3) 0.1252(3)
N4 N -0.5309(4) 0.0120(3) 0.1317(4)
C1 C 0.1517(5) 0.0661(3) 0.3672(5)
H1 H 0.1909 0.1097 0.3614
C2 C 0.0323(5) 0.0681(3) 0.3683(5)
H2 H -0.0095 0.1118 0.3633
C3 C -0.0294(4) 0.0048(3) 0.3758(4)
C4 C 0.0368(5) -0.0583(3) 0.3830(5)
H3 H -0.0024 -0.1019 0.3888
C5 C 0.1563(5) -0.0568(3) 0.3833(5)
H4 H 0.1982 -0.1006 0.3883
C6 C -0.3416(5) 0.0654(4) 0.3786(6)
H5 H -0.3826 0.1092 0.3777
C7 C -0.2220(5) 0.0680(3) 0.3774(6)
H6 H -0.1822 0.1119 0.3749
C8 C -0.1575(4) 0.0050(3) 0.3778(4)
C9 C -0.2196(5) -0.0588(4) 0.3819(5)
H7 H -0.1786 -0.1027 0.3828
C10 C -0.3393(5) -0.0561(4) 0.3842(6)
H8 H -0.3791 -0.1000 0.3867
C11 C 0.0221(5) 0.0700(3) 0.1117(5)
H9 H 0.0614 0.1135 0.1058
C12 C -0.1001(5) 0.0721(3) 0.1055(5)
H10 H -0.1413 0.1160 0.0950
C13 C -0.1604(4) 0.0095(3) 0.1161(4)
C14 C -0.0948(5) -0.0540(3) 0.1278(5)
H11 H -0.1324 -0.0983 0.1331
C15 C 0.0265(5) -0.0522(4) 0.1325(5)
H12 H 0.0686 -0.0959 0.1401
C16 C -0.4731(6) 0.0720(4) 0.1189(6)
H13 H -0.5137 0.1160 0.1163
C17 C -0.3546(6) 0.0722(3) 0.1115(7)
H14 H -0.3154 0.1156 0.1043
C18 C -0.2910(4) 0.0098(3) 0.1171(4)
C19 C -0.3528(6) -0.0515(4) 0.1258(6)
H15 H -0.3121 -0.0956 0.1284
C20 C -0.4713(6) -0.0487(4) 0.1318(6)
H16 H -0.5104 -0.0920 0.1389
O1 O 0.3995(4) -0.1384(2) 0.3497(4)
O2 O 0.3057(4) -0.1282(2) 0.1978(4)
O3 O 0.4014(4) 0.1447(2) 0.3276(4)
O4 O 0.2812(4) 0.1579(2) 0.1847(3)
C21 C 0.3344(5) -0.1621(4) 0.2745(6)
C22 C 0.2860(8) -0.2386(4) 0.2783(6)
H17 H 0.2373 -0.2509 0.2168
H18 H 0.3506 -0.2728 0.2943
H19 H 0.2385 -0.2403 0.3266
C23 C 0.3544(5) 0.1811(3) 0.2571(6)
C24 C 0.3829(7) 0.2613(4) 0.2594(6)
H20 H 0.4393 0.2727 0.3177
H21 H 0.4165 0.2734 0.2048
H22 H 0.3110 0.2888 0.2569
N2_2 N 0.5983(4) 0.0049(3) 0.3818(4)
N4_2 N 0.4691(4) 0.0120(3) 0.1317(4)
Ag1_2 Ag -0.59576(3) 0.00310(3) 0.36631(4)
Ag2_2 Ag -0.71752(4) 0.01313(3) 0.14873(4)
O5 O 0.4947(4) -0.2192(3) 0.5072(4)
H23 H 0.4897 -0.1953 0.4569
H24 H 0.5272 -0.1846 0.5549
O6 O 0.2864(4) -0.2058(3) 0.0304(4)
H25 H 0.3552 -0.2329 0.0338
H26 H 0.2974 -0.1601 0.0829
O7 O 0.0771(4) 0.2593(3) 0.1729(4)
H27 H 0.0623 0.2264 0.2147
H28 H 0.1713 0.2508 0.1652
O8 O 0.2917(5) 0.2076(3) 0.0001(4)
H29 H 0.2860 0.2527 0.0257
H30 H 0.2853 0.1803 0.0614
O9 O -0.0737(4) 0.2760(3) -0.0067(4)
H31 H -0.0174 0.2724 0.0580
H32 H -0.1174 0.2271 -0.0144
O10 O 0.0788(5) 0.2411(3) -0.1271(4)
H33 H 0.1821 0.2321 -0.0818
H34 H 0.0570 0.2346 -0.1927
loop_
_geom_bond_atom_site_label_1
_geom_bond_atom_site_label_2
_geom_bond_site_symmetry_1
_geom_bond_site_symmetry_2
Ag1 N1 1_555 1_555
Ag2 N3 1_555 1_555
N1 C1 1_555 1_555
N2 C6 1_555 1_555
N3 C11 1_555 1_555
N4 C16 1_555 1_555
C1 H1 1_555 1_555
C2 C1 1_555 1_555
H2 C2 1_555 1_555
C3 C2 1_555 1_555
C4 C3 1_555 1_555
H3 C4 1_555 1_555
C5 N1 1_555 1_555
H4 C5 1_555 1_555
C6 H5 1_555 1_555
C7 C6 1_555 1_555
H6 C7 1_555 1_555
C8 C3 1_555 1_555
C9 C8 1_555 1_555
H7 C9 1_555 1_555
C10 N2 1_555 1_555
H8 C10 1_555 1_555
C11 H9 1_555 1_555
C12 C11 1_555 1_555
H10 C12 1_555 1_555
C13 C12 1_555 1_555
C14 C13 1_555 1_555
H11 C14 1_555 1_555
C15 N3 1_555 1_555
H12 C15 1_555 1_555
C16 H13 1_555 1_555
C17 C16 1_555 1_555
H14 C17 1_555 1_555
C18 C13 1_555 1_555
C19 C18 1_555 1_555
H15 C19 1_555 1_555
C20 N4 1_555 1_555
H16 C20 1_555 1_555
O1 Ag1 1_555 1_555
O2 Ag2 1_555 1_555
O3 Ag1 1_555 1_555
O4 Ag2 1_555 1_555
C21 O1 1_555 1_555
C22 C21 1_555 1_555
H17 C22 1_555 1_555
H18 C22 1_555 1_555
H19 C22 1_555 1_555
C23 O3 1_555 1_555
C24 C23 1_555 1_555
H20 C24 1_555 1_555
H21 C24 1_555 1_555
H22 C24 1_555 1_555
O5 H23 1_555 1_555
H24 O5 1_555 1_555
O6 H25 1_555 1_555
H26 O6 1_555 1_555
O7 H27 1_555 1_555
H28 O7 1_555 1_555
O8 H29 1_555 1_555
H30 O8 1_555 1_555
O9 H31 1_555 1_555
H32 O9 1_555 1_555
O10 H33 1_555 1_555
H34 O10 1_555 1_555
N2_2 Ag1 1_555 1_555
N4_2 Ag2 1_555 1_555
Ag1_2 N2 1_555 1_555
Ag2_2 N4 1_555 1_555
C4 C5 1_555 1_555
C7 C8 1_555 1_555
C9 C10 1_555 1_555
C14 C15 1_555 1_555
C17 C18 1_555 1_555
C19 C20 1_555 1_555
O2 C21 1_555 1_555
O4 C23 1_555 1_555

#END
