
#######################################################################
#
#                 Cambridge Crystallographic Data Centre
#                                CCDC 
#
#######################################################################
#
# If this CIF has been generated from an entry in the Cambridge 
# Structural Database, then it will include bibliographic, chemical, 
# crystal, experimental, refinement or atomic coordinate data resulting 
# from the CCDC's data processing and validation procedures.
#
#######################################################################

data_LONSIQ
_symmetry_cell_setting           monoclinic
_symmetry_space_group_name_H-M   'C c'
_symmetry_Int_Tables_number      9
_space_group_name_Hall           'C -2yc'
loop_
_symmetry_equiv_pos_site_id
_symmetry_equiv_pos_as_xyz
1 x,y,z
2 x,-y,1/2+z
3 1/2+x,1/2+y,z
4 1/2+x,1/2-y,1/2+z
_cell_length_a                   14.323(3)
_cell_length_b                   9.608(2)
_cell_length_c                   7.2922(15)
_cell_angle_alpha                90
_cell_angle_beta                 101.980(16)
_cell_angle_gamma                90
_cell_volume                     981.662
loop_
_atom_site_label
_atom_site_type_symbol
_atom_site_fract_x
_atom_site_fract_y
_atom_site_fract_z
W1 W 0.78919(3) -0.02461(4) 1.46263(3)
O1 O 0.8193(6) -0.0336(10) 1.2214(10)
O2 O 0.7697(7) -0.2011(9) 1.4937(14)
O3 O 0.6793(6) 0.0520(12) 1.3966(12)
N1 N 0.8757(8) 0.1869(11) 1.4619(14)
N2 N 0.9545(7) -0.0633(11) 1.5452(12)
C1 C 0.8318(9) 0.3053(14) 1.4203(17)
H1 H 0.7658 0.3048 1.3802
C2 C 0.8782(13) 0.4286(17) 1.433(2)
H2 H 0.8443 0.5111 1.4052
C3 C 0.9797(12) 0.431(2) 1.489(2)
H3 H 1.0144 0.5128 1.4954
C4 C 1.0225(11) 0.3059(16) 1.532(2)
H4 H 1.0885 0.3022 1.5721
C5 C 0.9697(10) 0.1826(14) 1.5182(16)
C6 C 1.0156(9) 0.0472(14) 1.5574(15)
C7 C 1.1137(9) 0.0291(18) 1.6065(16)
H5 H 1.1547 0.1050 1.6142
C8 C 1.1499(10) -0.1062(18) 1.644(2)
H6 H 1.2153 -0.1212 1.6802
C9 C 1.0871(11) -0.2163(17) 1.628(2)
H7 H 1.1091 -0.3071 1.6493
C10 C 0.9909(12) -0.1883(16) 1.5784(18)
H8 H 0.9488 -0.2631 1.5678
O1A O 0.8193(6) 0.0336(10) 1.7214(10)
W1A W 0.78919(3) 0.02461(4) 0.96263(3)
loop_
_geom_bond_atom_site_label_1
_geom_bond_atom_site_label_2
_geom_bond_site_symmetry_1
_geom_bond_site_symmetry_2
W1 O1 1_555 1_555
O1 W1A 1_555 1_555
O2 W1 1_555 1_555
O3 W1 1_555 1_555
N1 W1 1_555 1_555
N2 W1 1_555 1_555
C1 N1 1_555 1_555
H1 C1 1_555 1_555
C2 C1 1_555 1_555
H2 C2 1_555 1_555
C3 C2 1_555 1_555
H3 C3 1_555 1_555
C4 C3 1_555 1_555
H4 C4 1_555 1_555
C5 N1 1_555 1_555
C6 N2 1_555 1_555
C7 C6 1_555 1_555
H5 C7 1_555 1_555
C8 C7 1_555 1_555
H6 C8 1_555 1_555
C9 C8 1_555 1_555
H7 C9 1_555 1_555
C10 N2 1_555 1_555
H8 C10 1_555 1_555
O1A W1 1_555 1_555
C4 C5 1_555 1_555
C5 C6 1_555 1_555
C9 C10 1_555 1_555

#END
