
#######################################################################
#
#                 Cambridge Crystallographic Data Centre
#                                CCDC 
#
#######################################################################
#
# If this CIF has been generated from an entry in the Cambridge 
# Structural Database, then it will include bibliographic, chemical, 
# crystal, experimental, refinement or atomic coordinate data resulting 
# from the CCDC's data processing and validation procedures.
#
#######################################################################

data_LOPQIS
_symmetry_cell_setting           triclinic
_symmetry_space_group_name_H-M   'P -1'
_symmetry_Int_Tables_number      2
_space_group_name_Hall           '-P 1'
loop_
_symmetry_equiv_pos_site_id
_symmetry_equiv_pos_as_xyz
1 x,y,z
2 -x,-y,-z
_cell_length_a                   7.4515(5)
_cell_length_b                   10.4152(7)
_cell_length_c                   10.8658(7)
_cell_angle_alpha                78.5498(9)
_cell_angle_beta                 75.9184(9)
_cell_angle_gamma                86.9683(9)
_cell_volume                     801.654
loop_
_atom_site_label
_atom_site_type_symbol
_atom_site_fract_x
_atom_site_fract_y
_atom_site_fract_z
Pb1 Pb 0.5000 0.5000 0.5000
Pb2 Pb 0.04249(2) 0.672754(18) 0.329702(17)
Cl1 Cl 0.7703(2) 0.53001(18) 0.25833(14)
Cl2 Cl 0.2205(2) 0.40705(14) 0.39438(14)
Cl3 Cl 0.3501(2) 0.75393(15) 0.40305(15)
N1 N 0.1993(6) 0.7647(4) 0.0938(4)
N2 N 0.0058(5) 0.9224(4) 0.2579(4)
C1 C 0.2563(9) 0.5436(5) 0.0545(6)
H1 H 0.3244 0.5104 0.1187
H2 H 0.2989 0.5015 -0.0184
H3 H 0.1269 0.5263 0.0906
C2 C 0.2854(7) 0.6881(5) 0.0119(5)
C3 C 0.3937(7) 0.7407(6) -0.1109(5)
H4 H 0.4516 0.6858 -0.1667
C4 C 0.4135(7) 0.8746(6) -0.1482(5)
H5 H 0.4879 0.9104 -0.2285
C5 C 0.3216(7) 0.9562(5) -0.0652(5)
C6 C 0.3344(8) 1.0946(6) -0.1010(6)
H6 H 0.4068 1.1327 -0.1812
C7 C 0.2418(8) 1.1719(6) -0.0188(5)
H7 H 0.2517 1.2625 -0.0437
C8 C 0.1306(7) 1.1169(5) 0.1036(5)
C9 C 0.0349(8) 1.1930(5) 0.1907(6)
H8 H 0.0473 1.2836 0.1706
C10 C -0.0770(8) 1.1348(5) 0.3052(6)
H9 H -0.1438 1.1858 0.3621
C11 C -0.0910(7) 0.9990(5) 0.3367(5)
C12 C -0.2205(9) 0.9342(6) 0.4585(5)
H10 H -0.3190 0.8936 0.4377
H11 H -0.2710 0.9986 0.5099
H12 H -0.1547 0.8689 0.5063
C13 C 0.1156(6) 0.9798(5) 0.1428(5)
C14 C 0.2151(7) 0.8975(5) 0.0562(5)
Pb2A Pb -0.04249(2) 0.327246(18) 0.670298(17)
Cl2A Cl -0.2205(2) 0.59295(14) 0.60562(14)
Cl3A Cl -0.3501(2) 0.24607(15) 0.59695(15)
N1A N -0.1993(6) 0.2353(4) 0.9062(4)
N2A N -0.0058(5) 0.0776(4) 0.7421(4)
C1A C -0.2563(9) 0.4564(5) 0.9455(6)
H1A H -0.3244 0.4896 0.8813
H2A H -0.2989 0.4985 1.0184
H3A H -0.1269 0.4737 0.9094
C2A C -0.2854(7) 0.3119(5) 0.9881(5)
C3A C -0.3937(7) 0.2593(6) 1.1109(5)
H4A H -0.4516 0.3142 1.1667
C4A C -0.4135(7) 0.1254(6) 1.1482(5)
H5A H -0.4879 0.0896 1.2285
C5A C -0.3216(7) 0.0438(5) 1.0652(5)
C6A C -0.3344(8) -0.0946(6) 1.1010(6)
H6A H -0.4068 -0.1327 1.1812
C7A C -0.2418(8) -0.1719(6) 1.0188(5)
H7A H -0.2517 -0.2625 1.0437
C8A C -0.1306(7) -0.1169(5) 0.8964(5)
C9A C -0.0349(8) -0.1930(5) 0.8093(6)
H8A H -0.0473 -0.2836 0.8294
C10A C 0.0770(8) -0.1348(5) 0.6948(6)
H9A H 0.1438 -0.1858 0.6379
C11A C 0.0910(7) 0.0010(5) 0.6633(5)
C12A C 0.2205(9) 0.0658(6) 0.5415(5)
H10A H 0.3190 0.1064 0.5623
H11A H 0.2710 0.0014 0.4901
H12A H 0.1547 0.1311 0.4937
C13A C -0.1156(6) 0.0202(5) 0.8572(5)
C14A C -0.2151(7) 0.1025(5) 0.9438(5)
Cl1A Cl 0.2297(2) 0.46999(18) 0.74167(14)
Pb1_2 Pb -0.5000 0.5000 0.5000
Pb2_2 Pb 1.04249(2) 0.672754(18) 0.329702(17)
Cl1_2 Cl -0.2297(2) 0.53001(18) 0.25833(14)
Cl2A_2 Cl 0.7795(2) 0.59295(14) 0.60562(14)
Cl3A_2 Cl 0.6499(2) 0.24607(15) 0.59695(15)
loop_
_geom_bond_atom_site_label_1
_geom_bond_atom_site_label_2
_geom_bond_site_symmetry_1
_geom_bond_site_symmetry_2
Pb1 Cl1 1_555 1_555
Pb2 Cl2 1_555 1_555
Cl1 Pb2_2 1_555 1_555
Cl2 Pb1 1_555 1_555
Cl3 Pb1 1_555 1_555
N1 Pb2 1_555 1_555
N2 Pb2 1_555 1_555
C1 H1 1_555 1_555
H2 C1 1_555 1_555
H3 C1 1_555 1_555
C2 N1 1_555 1_555
C3 C2 1_555 1_555
H4 C3 1_555 1_555
C4 C3 1_555 1_555
H5 C4 1_555 1_555
C5 C4 1_555 1_555
C6 C5 1_555 1_555
H6 C6 1_555 1_555
C7 C6 1_555 1_555
H7 C7 1_555 1_555
C8 C7 1_555 1_555
C9 C8 1_555 1_555
H8 C9 1_555 1_555
C10 C9 1_555 1_555
H9 C10 1_555 1_555
C11 N2 1_555 1_555
C12 C11 1_555 1_555
H10 C12 1_555 1_555
H11 C12 1_555 1_555
H12 C12 1_555 1_555
C13 N2 1_555 1_555
C14 N1 1_555 1_555
Pb2A Cl2 1_555 1_555
Cl2A Pb2 1_555 1_555
Cl3A Pb2A 1_555 1_555
N1A Pb2A 1_555 1_555
N2A Pb2A 1_555 1_555
C1A H1A 1_555 1_555
H2A C1A 1_555 1_555
H3A C1A 1_555 1_555
C2A N1A 1_555 1_555
C3A C2A 1_555 1_555
H4A C3A 1_555 1_555
C4A C3A 1_555 1_555
H5A C4A 1_555 1_555
C5A C4A 1_555 1_555
C6A C5A 1_555 1_555
H6A C6A 1_555 1_555
C7A C6A 1_555 1_555
H7A C7A 1_555 1_555
C8A C7A 1_555 1_555
C9A C8A 1_555 1_555
H8A C9A 1_555 1_555
C10A C9A 1_555 1_555
H9A C10A 1_555 1_555
C11A N2A 1_555 1_555
C12A C11A 1_555 1_555
H10A C12A 1_555 1_555
H11A C12A 1_555 1_555
H12A C12A 1_555 1_555
C13A N2A 1_555 1_555
C14A N1A 1_555 1_555
Cl1A Pb1 1_555 1_555
Pb1_2 Cl2A 1_555 1_555
Pb2_2 Cl2A_2 1_555 1_555
Cl1_2 Pb2 1_555 1_555
Cl2A_2 Pb1 1_555 1_555
Cl3A_2 Pb1 1_555 1_555
Pb2 Cl3 1_555 1_555
C1 C2 1_555 1_555
C5 C14 1_555 1_555
C8 C13 1_555 1_555
C10 C11 1_555 1_555
C13 C14 1_555 1_555
Pb2A Cl2A 1_555 1_555
Pb2A Cl1A 1_555 1_555
Cl3A Pb1_2 1_555 1_555
C1A C2A 1_555 1_555
C5A C14A 1_555 1_555
C8A C13A 1_555 1_555
C10A C11A 1_555 1_555
C13A C14A 1_555 1_555
Pb1_2 Cl1_2 1_555 1_555

#END
