
#######################################################################
#
#                 Cambridge Crystallographic Data Centre
#                                CCDC 
#
#######################################################################
#
# If this CIF has been generated from an entry in the Cambridge 
# Structural Database, then it will include bibliographic, chemical, 
# crystal, experimental, refinement or atomic coordinate data resulting 
# from the CCDC's data processing and validation procedures.
#
#######################################################################

data_LOPTIV
_symmetry_cell_setting           triclinic
_symmetry_space_group_name_H-M   'P -1'
_symmetry_Int_Tables_number      2
_space_group_name_Hall           '-P 1'
loop_
_symmetry_equiv_pos_site_id
_symmetry_equiv_pos_as_xyz
1 x,y,z
2 -x,-y,-z
_cell_length_a                   8.1289(12)
_cell_length_b                   9.1127(14)
_cell_length_c                   9.9644(15)
_cell_angle_alpha                93.873(2)
_cell_angle_beta                 93.539(2)
_cell_angle_gamma                104.631(2)
_cell_volume                     710.181
loop_
_atom_site_label
_atom_site_type_symbol
_atom_site_fract_x
_atom_site_fract_y
_atom_site_fract_z
Cd1 Cd 1.0000 0.5000 0.5000
S1 S 0.68698(11) 0.34191(10) 0.25236(9)
O1 O 0.5982(3) 0.3994(3) 0.3575(3)
O2 O 0.6121(4) 0.1852(3) 0.2037(3)
O3 O 0.8700(3) 0.3723(3) 0.2898(2)
N1 N 0.8210(4) 0.3356(3) 0.6341(3)
N2 N 1.1114(4) 0.2924(3) 0.5295(3)
C1 C 0.6743(5) 0.3478(4) 0.6801(4)
H1 H 0.6225 0.4187 0.6453
C2 C 0.5949(5) 0.2595(4) 0.7776(4)
H2 H 0.4915 0.2709 0.8057
C3 C 0.6684(5) 0.1566(4) 0.8319(4)
H3 H 0.6182 0.1001 0.8998
C4 C 0.8214(5) 0.1363(4) 0.7845(4)
C5 C 0.9008(6) 0.0235(4) 0.8293(4)
H4 H 0.8569 -0.0328 0.8994
C6 C 1.0370(6) -0.0035(4) 0.7730(4)
H5 H 1.0847 -0.0791 0.8032
C7 C 1.1095(5) 0.0832(4) 0.6670(4)
C8 C 1.2450(5) 0.0532(4) 0.5991(4)
H6 H 1.2910 -0.0260 0.6226
C9 C 1.3096(5) 0.1397(4) 0.4988(4)
H7 H 1.3974 0.1187 0.4517
C10 C 1.2411(5) 0.2600(4) 0.4686(4)
H8 H 1.2884 0.3212 0.4024
C11 C 1.0416(4) 0.2031(4) 0.6254(3)
C12 C 0.8919(5) 0.2276(4) 0.6837(3)
C13 C 0.6692(5) 0.4524(4) 0.1135(3)
C14 C 0.8135(5) 0.5414(4) 0.0705(4)
H9 H 0.9195 0.5404 0.1108
C15 C 0.8035(4) 0.6354(4) -0.0352(4)
H10 H 0.9031 0.6940 -0.0654
C16 C 0.6504(4) 0.6410(4) -0.0928(4)
H11 H 0.6458 0.7068 -0.1595
C17 C 0.5026(4) 0.4520(4) 0.0529(3)
S1A S 0.31302(11) 0.65809(10) -0.25236(9)
O1A O 0.4018(3) 0.6006(3) -0.3575(3)
O2A O 0.3879(4) 0.8148(3) -0.2037(3)
O3A O 0.1300(3) 0.6277(3) -0.2898(2)
C13A C 0.3308(5) 0.5476(4) -0.1135(3)
C14A C 0.1865(5) 0.4586(4) -0.0705(4)
H9A H 0.0805 0.4596 -0.1108
C15A C 0.1965(4) 0.3646(4) 0.0352(4)
H10A H 0.0969 0.3060 0.0654
C16A C 0.3496(4) 0.3590(4) 0.0928(4)
H11A H 0.3542 0.2932 0.1595
C17A C 0.4974(4) 0.5480(4) -0.0529(3)
N1A N 1.1790(4) 0.6644(3) 0.3659(3)
N2A N 0.8886(4) 0.7076(3) 0.4705(3)
C1A C 1.3257(5) 0.6522(4) 0.3199(4)
H1A H 1.3775 0.5813 0.3547
C2A C 1.4051(5) 0.7405(4) 0.2224(4)
H2A H 1.5085 0.7291 0.1943
C3A C 1.3316(5) 0.8434(4) 0.1681(4)
H3A H 1.3818 0.8999 0.1002
C4A C 1.1786(5) 0.8637(4) 0.2155(4)
C5A C 1.0992(6) 0.9765(4) 0.1707(4)
H4A H 1.1431 1.0328 0.1006
C6A C 0.9630(6) 1.0035(4) 0.2270(4)
H5A H 0.9153 1.0791 0.1968
C7A C 0.8905(5) 0.9168(4) 0.3330(4)
C8A C 0.7550(5) 0.9468(4) 0.4009(4)
H6A H 0.7090 1.0260 0.3774
C9A C 0.6904(5) 0.8603(4) 0.5012(4)
H7A H 0.6026 0.8813 0.5483
C10A C 0.7589(5) 0.7400(4) 0.5314(4)
H8A H 0.7116 0.6788 0.5976
C11A C 0.9584(4) 0.7969(4) 0.3746(3)
C12A C 1.1081(5) 0.7724(4) 0.3163(3)
Cd1_2 Cd 0.0000 0.5000 -0.5000
O3A_2 O 1.1300(3) 0.6277(3) 0.7102(2)
loop_
_geom_bond_atom_site_label_1
_geom_bond_atom_site_label_2
_geom_bond_site_symmetry_1
_geom_bond_site_symmetry_2
Cd1 O3 1_555 1_555
S1 O1 1_555 1_555
O2 S1 1_555 1_555
O3 S1 1_555 1_555
N1 Cd1 1_555 1_555
N2 Cd1 1_555 1_555
C1 N1 1_555 1_555
H1 C1 1_555 1_555
C2 C1 1_555 1_555
H2 C2 1_555 1_555
C3 C2 1_555 1_555
H3 C3 1_555 1_555
C4 C3 1_555 1_555
C5 C4 1_555 1_555
H4 C5 1_555 1_555
C6 C5 1_555 1_555
H5 C6 1_555 1_555
C7 C6 1_555 1_555
C8 C7 1_555 1_555
H6 C8 1_555 1_555
C9 C8 1_555 1_555
H7 C9 1_555 1_555
C10 N2 1_555 1_555
H8 C10 1_555 1_555
C11 N2 1_555 1_555
C12 N1 1_555 1_555
C13 S1 1_555 1_555
C14 C13 1_555 1_555
H9 C14 1_555 1_555
C15 C14 1_555 1_555
H10 C15 1_555 1_555
C16 C15 1_555 1_555
H11 C16 1_555 1_555
C17 C13 1_555 1_555
S1A O1A 1_555 1_555
O2A S1A 1_555 1_555
O3A S1A 1_555 1_555
C13A S1A 1_555 1_555
C14A C13A 1_555 1_555
H9A C14A 1_555 1_555
C15A C14A 1_555 1_555
H10A C15A 1_555 1_555
C16A C17 1_555 1_555
H11A C16A 1_555 1_555
C17A C16 1_555 1_555
N1A Cd1 1_555 1_555
N2A Cd1 1_555 1_555
C1A N1A 1_555 1_555
H1A C1A 1_555 1_555
C2A C1A 1_555 1_555
H2A C2A 1_555 1_555
C3A C2A 1_555 1_555
H3A C3A 1_555 1_555
C4A C3A 1_555 1_555
C5A C4A 1_555 1_555
H4A C5A 1_555 1_555
C6A C5A 1_555 1_555
H5A C6A 1_555 1_555
C7A C6A 1_555 1_555
C8A C7A 1_555 1_555
H6A C8A 1_555 1_555
C9A C8A 1_555 1_555
H7A C9A 1_555 1_555
C10A N2A 1_555 1_555
H8A C10A 1_555 1_555
C11A N2A 1_555 1_555
C12A N1A 1_555 1_555
Cd1_2 O3A 1_555 1_555
O3A_2 Cd1 1_555 1_555
C4 C12 1_555 1_555
C7 C11 1_555 1_555
C9 C10 1_555 1_555
C11 C12 1_555 1_555
C17 C17A 1_555 1_555
C13A C17A 1_555 1_555
C15A C16A 1_555 1_555
C4A C12A 1_555 1_555
C7A C11A 1_555 1_555
C9A C10A 1_555 1_555
C11A C12A 1_555 1_555

#END
