
#######################################################################
#
#                 Cambridge Crystallographic Data Centre
#                                CCDC 
#
#######################################################################
#
# If this CIF has been generated from an entry in the Cambridge 
# Structural Database, then it will include bibliographic, chemical, 
# crystal, experimental, refinement or atomic coordinate data resulting 
# from the CCDC's data processing and validation procedures.
#
#######################################################################

data_LOQGOP
_symmetry_cell_setting           orthorhombic
_symmetry_space_group_name_H-M   'P b c a'
_symmetry_Int_Tables_number      61
_space_group_name_Hall           '-P 2ac 2ab'
loop_
_symmetry_equiv_pos_site_id
_symmetry_equiv_pos_as_xyz
1 x,y,z
2 1/2-x,-y,1/2+z
3 -x,1/2+y,1/2-z
4 1/2+x,1/2-y,-z
5 -x,-y,-z
6 1/2+x,y,1/2-z
7 x,1/2-y,1/2+z
8 1/2-x,1/2+y,z
_cell_length_a                   7.1002(9)
_cell_length_b                   14.3490(18)
_cell_length_c                   27.540(4)
_cell_angle_alpha                90
_cell_angle_beta                 90
_cell_angle_gamma                90
_cell_volume                     2805.8
loop_
_atom_site_label
_atom_site_type_symbol
_atom_site_fract_x
_atom_site_fract_y
_atom_site_fract_z
Cd1 Cd 0.69629(3) 0.49466(2) 0.21095(2)
I1 I 0.57192(2) 0.44443(2) 0.30413(2)
I2 I 0.55761(3) 0.66218(2) 0.18766(2)
O1 O -0.0032(3) 0.14714(17) 0.02937(8)
O2 O 0.2705(4) 0.04421(15) 0.03192(8)
H1 H 0.1606 0.0785 0.0273
N1 N 0.5538(3) 0.38827(16) 0.16261(9)
C1 C -0.0167(5) 0.2973(2) 0.06472(12)
H2 H -0.0018 0.3130 0.0991
H3 H -0.1508 0.2896 0.0573
H4 H 0.0357 0.3475 0.0447
C2 C 0.0851(4) 0.2083(2) 0.05408(11)
C3 C 0.2730(4) 0.1909(2) 0.07071(10)
C4 C 0.3580(5) 0.1074(2) 0.05812(10)
C5 C 0.5572(5) 0.0814(2) 0.07039(12)
H5 H 0.6217 0.1353 0.0845
H6 H 0.6230 0.0618 0.0408
H7 H 0.5569 0.0300 0.0938
C6 C 0.3708(4) 0.25965(19) 0.10214(10)
C7 C 0.4242(4) 0.23656(19) 0.14947(10)
H8 H 0.3983 0.1762 0.1620
C8 C 0.5147(4) 0.30172(19) 0.17803(10)
H9 H 0.5509 0.2845 0.2100
C9 C 0.5022(4) 0.4111(2) 0.11701(10)
H10 H 0.5287 0.4723 0.1057
C10 C 0.4126(4) 0.3497(2) 0.08606(10)
H11 H 0.3796 0.3686 0.0541
Cd1E Cd 0.19629(3) 0.49466(2) 0.28905(2)
I1E I 1.07192(2) 0.44443(2) 0.19587(2)
loop_
_geom_bond_atom_site_label_1
_geom_bond_atom_site_label_2
_geom_bond_site_symmetry_1
_geom_bond_site_symmetry_2
Cd1 I1 1_555 1_555
I1 Cd1E 1_555 1_555
I2 Cd1 1_555 1_555
O1 C2 1_555 1_555
O2 H1 1_555 1_555
N1 Cd1 1_555 1_555
C1 H2 1_555 1_555
H3 C1 1_555 1_555
H4 C1 1_555 1_555
C2 C1 1_555 1_555
C3 C2 1_555 1_555
C4 O2 1_555 1_555
C5 C4 1_555 1_555
H5 C5 1_555 1_555
H6 C5 1_555 1_555
H7 C5 1_555 1_555
C6 C3 1_555 1_555
C7 C6 1_555 1_555
H8 C7 1_555 1_555
C8 N1 1_555 1_555
H9 C8 1_555 1_555
C9 N1 1_555 1_555
H10 C9 1_555 1_555
C10 C6 1_555 1_555
H11 C10 1_555 1_555
I1E Cd1 1_555 1_555
C3 C4 1_555 1_555
C7 C8 1_555 1_555
C9 C10 1_555 1_555

#END
