
#######################################################################
#
#                 Cambridge Crystallographic Data Centre
#                                CCDC 
#
#######################################################################
#
# If this CIF has been generated from an entry in the Cambridge 
# Structural Database, then it will include bibliographic, chemical, 
# crystal, experimental, refinement or atomic coordinate data resulting 
# from the CCDC's data processing and validation procedures.
#
#######################################################################

data_LOQNUC
_symmetry_cell_setting           monoclinic
_symmetry_space_group_name_H-M   'P 21/n'
_symmetry_Int_Tables_number      14
_space_group_name_Hall           '-P 2yn'
loop_
_symmetry_equiv_pos_site_id
_symmetry_equiv_pos_as_xyz
1 x,y,z
2 1/2-x,1/2+y,1/2-z
3 -x,-y,-z
4 1/2+x,1/2-y,1/2+z
_cell_length_a                   10.3660(4)
_cell_length_b                   11.5626(8)
_cell_length_c                   12.9848(7)
_cell_angle_alpha                90
_cell_angle_beta                 106.952(6)
_cell_angle_gamma                90
_cell_volume                     1488.71
loop_
_atom_site_label
_atom_site_type_symbol
_atom_site_fract_x
_atom_site_fract_y
_atom_site_fract_z
C1 C 0.4563(3) 0.3398(2) 0.7166(2)
C2 C 0.5491(3) 0.3747(3) 0.8279(2)
H1 H 0.5146 0.4488 0.8455
C3 C 0.5380(3) 0.2887(3) 0.9163(2)
H2 H 0.5916 0.3186 0.9853
H3 H 0.4449 0.2873 0.9173
C4 C 0.6941(3) 0.3983(3) 0.8247(2)
H4 H 0.732 0.3275 0.8057
H5 H 0.6921 0.4553 0.7695
C5 C 0.7823(3) 0.4411(2) 0.9303(2)
C6 C 0.9202(3) 0.4438(3) 1.0929(2)
H6 H 0.9803 0.4195 1.1575
C7 C 0.8784(3) 0.5537(3) 1.0690(2)
H7 H 0.9035 0.618 1.1132
C8 C 0.7276(3) 0.6536(3) 0.9042(3)
H8 H 0.7096 0.6384 0.8286
H9 H 0.7871 0.7187 0.9238
H10 H 0.6445 0.6702 0.9197
C9 C 0.5815(3) 0.1660(3) 0.9064(2)
C10 C 0.7024(3) 0.0101(3) 0.9093(2)
H11 H 0.7759 -0.0389 0.9179
C11 C 0.5713(3) -0.0219(3) 0.8739(2)
H12 H 0.5385 -0.0961 0.8544
C12 C 0.3481(3) 0.0776(3) 0.8414(3)
H13 H 0.3188 0.1147 0.8968
H14 H 0.3147 -0.0003 0.8321
H15 H 0.314 0.1193 0.7751
Cl1 Cl 0.51151(7) 0.35260(7) 0.38687(6)
N1 N 0.8597(2) 0.3728(2) 1.00653(18)
N2 N 0.7911(2) 0.5517(2) 0.96578(19)
N3 N 0.7092(2) 0.1275(2) 0.93065(18)
N4 N 0.4960(2) 0.0762(2) 0.87237(19)
O1 O 0.5103(2) 0.33249(19) 0.64032(16)
O2 O 0.3364(2) 0.3216(2) 0.70697(19)
Zn1 Zn 0.38779(3) 0.29696(3) 0.49730(2)
N1C N 0.3597(2) 0.1272(2) 0.50653(18)
N3C N 0.2092(2) 0.3725(2) 0.43065(18)
Zn1C Zn 0.88779(3) 0.20304(3) 0.99730(2)
O3 O 0.0834(2) 0.2292(3) 0.6734(2)
H16 H 0.180(3) 0.274(3) 0.695(3)
H17 H 0.079(3) 0.200(3) 0.751(2)
loop_
_geom_bond_atom_site_label_1
_geom_bond_atom_site_label_2
_geom_bond_site_symmetry_1
_geom_bond_site_symmetry_2
C1 C2 1_555 1_555
C2 H1 1_555 1_555
C3 C2 1_555 1_555
H2 C3 1_555 1_555
H3 C3 1_555 1_555
C4 C2 1_555 1_555
H4 C4 1_555 1_555
H5 C4 1_555 1_555
C5 C4 1_555 1_555
C6 H6 1_555 1_555
C7 C6 1_555 1_555
H7 C7 1_555 1_555
C8 H8 1_555 1_555
H9 C8 1_555 1_555
H10 C8 1_555 1_555
C9 C3 1_555 1_555
C10 H11 1_555 1_555
C11 C10 1_555 1_555
H12 C11 1_555 1_555
C12 H13 1_555 1_555
H14 C12 1_555 1_555
H15 C12 1_555 1_555
Cl1 Zn1 1_555 1_555
N1 C5 1_555 1_555
N2 C5 1_555 1_555
N3 C9 1_555 1_555
N4 C9 1_555 1_555
O1 C1 1_555 1_555
O2 C1 1_555 1_555
Zn1 O1 1_555 1_555
O3 H16 1_555 1_555
H17 O3 1_555 1_555
N1C Zn1 1_555 1_555
N3C Zn1 1_555 1_555
Zn1C N1 1_555 1_555
C6 N1 1_555 1_555
C7 N2 1_555 1_555
C8 N2 1_555 1_555
C10 N3 1_555 1_555
C11 N4 1_555 1_555
C12 N4 1_555 1_555
N3 Zn1C 1_555 1_555

#END
