
#######################################################################
#
#                 Cambridge Crystallographic Data Centre
#                                CCDC 
#
#######################################################################
#
# If this CIF has been generated from an entry in the Cambridge 
# Structural Database, then it will include bibliographic, chemical, 
# crystal, experimental, refinement or atomic coordinate data resulting 
# from the CCDC's data processing and validation procedures.
#
#######################################################################

data_LOQVOC
_symmetry_cell_setting           monoclinic
_symmetry_space_group_name_H-M   'C 2/c'
_symmetry_Int_Tables_number      15
_space_group_name_Hall           '-C 2yn'
loop_
_symmetry_equiv_pos_site_id
_symmetry_equiv_pos_as_xyz
1 x,y,z
2 -x,y,1/2-z
3 1/2+x,1/2+y,z
4 1/2-x,1/2+y,1/2-z
5 -x,-y,-z
6 x,-y,1/2+z
7 1/2-x,1/2-y,-z
8 1/2+x,1/2-y,1/2+z
_cell_length_a                   20.5853(4)
_cell_length_b                   5.0472(1)
_cell_length_c                   18.0140(4)
_cell_angle_alpha                90
_cell_angle_beta                 97.226(1)
_cell_angle_gamma                90
_cell_volume                     1856.76
loop_
_atom_site_label
_atom_site_type_symbol
_atom_site_fract_x
_atom_site_fract_y
_atom_site_fract_z
Zn1 Zn -0.3217(1) -0.0837(4) 0.3030(1)
Zn2 Zn -0.5000 0.4748(7) -0.2500
P1 P -0.3195(2) 0.1372(9) 0.1386(2)
P2 P -0.3925(2) 0.5937(9) -0.1379(2)
O1 O -0.2860(3) -0.0640(14) 0.0899(4)
O2 O -0.2687(2) 0.3194(12) 0.1776(4)
O3 O -0.3542(3) -0.0176(15) 0.1960(3)
O4 O -0.3893(4) 0.3264(12) -0.1762(4)
O5 O -0.4508(3) 0.7502(13) -0.1789(4)
O6 O -0.3292(3) 0.7570(14) -0.1381(4)
O7 O -0.5239(4) 0.2071(12) -0.1774(4)
C1 C -0.3821(4) 0.3120(15) 0.0775(4)
C2 C -0.3588(4) 0.3759(21) 0.0031(4)
C3 C -0.4105(4) 0.5460(18) -0.0424(8)
P1A P -0.6805(2) 0.1372(9) -0.6386(2)
P2A P -0.6075(2) 0.5937(9) -0.3621(2)
O1A O -0.7140(3) -0.0640(14) -0.5899(4)
O2A O -0.7313(2) 0.3194(12) -0.6776(4)
O3A O -0.6458(3) -0.0176(15) -0.6960(3)
O4A O -0.6107(4) 0.3264(12) -0.3238(4)
O5A O -0.5492(3) 0.7502(13) -0.3211(4)
O6A O -0.6708(3) 0.7570(14) -0.3619(4)
C1A C -0.6179(4) 0.3120(15) -0.5775(4)
C2A C -0.6412(4) 0.3759(21) -0.5031(4)
C3A C -0.5895(4) 0.5460(18) -0.4576(8)
O7A O -0.4761(4) 0.2071(12) -0.3226(4)
Zn1B Zn -0.8217(1) 0.4163(4) -0.6970(1)
Zn1C Zn -0.1783(1) 0.4163(4) 0.1970(1)
Zn1E Zn -0.3217(1) 0.0837(4) -0.1970(1)
Zn1E_2 Zn -0.3217(1) 1.0837(4) -0.1970(1)
Zn1A Zn -0.6783(1) -0.0837(4) -0.8030(1)
Zn1D Zn -0.6783(1) 0.0837(4) -0.3030(1)
Zn1D_2 Zn -0.6783(1) 1.0837(4) -0.3030(1)
O2C O -0.2313(2) -0.1806(12) 0.3224(4)
O4E O -0.3893(4) -0.3264(12) 0.3238(4)
O6E O -0.3292(3) 0.2430(14) 0.3619(4)
O2B O -0.7687(2) -0.1806(12) -0.8224(4)
O4D O -0.6107(4) -0.3264(12) -0.8238(4)
O6D O -0.6708(3) 0.2430(14) -0.8619(4)
loop_
_geom_bond_atom_site_label_1
_geom_bond_atom_site_label_2
_geom_bond_site_symmetry_1
_geom_bond_site_symmetry_2
Zn1 O3 1_555 1_555
Zn2 O5 1_555 1_555
P1 O1 1_555 1_555
P2 O4 1_555 1_555
O2 P1 1_555 1_555
O3 P1 1_555 1_555
O4 Zn1E 1_555 1_555
O5 P2 1_555 1_555
O6 P2 1_555 1_555
O7 Zn2 1_555 1_555
C1 P1 1_555 1_555
C2 C1 1_555 1_555
C3 P2 1_555 1_555
P1A O1A 1_555 1_555
P2A O4A 1_555 1_555
O2A P1A 1_555 1_555
O3A P1A 1_555 1_555
O4A Zn1D 1_555 1_555
O5A Zn2 1_555 1_555
O6A P2A 1_555 1_555
C1A P1A 1_555 1_555
C2A C1A 1_555 1_555
C3A P2A 1_555 1_555
O7A Zn2 1_555 1_555
Zn1B O2A 1_555 1_555
Zn1C O2 1_555 1_555
Zn1E_2 O6 1_555 1_555
Zn1A O3A 1_555 1_555
Zn1D_2 O6A 1_555 1_555
O2C Zn1 1_555 1_555
O4E Zn1 1_555 1_555
O6E Zn1 1_555 1_555
O2B Zn1A 1_555 1_555
O4D Zn1A 1_555 1_555
O6D Zn1A 1_555 1_555
C2 C3 1_555 1_555
P2A O5A 1_555 1_555
C2A C3A 1_555 1_555

#END
