
#######################################################################
#
#                 Cambridge Crystallographic Data Centre
#                                CCDC 
#
#######################################################################
#
# If this CIF has been generated from an entry in the Cambridge 
# Structural Database, then it will include bibliographic, chemical, 
# crystal, experimental, refinement or atomic coordinate data resulting 
# from the CCDC's data processing and validation procedures.
#
#######################################################################

data_LOQYIB
_symmetry_cell_setting           monoclinic
_symmetry_space_group_name_H-M   'P 21/c'
_symmetry_Int_Tables_number      14
_space_group_name_Hall           '-P 2ybc'
loop_
_symmetry_equiv_pos_site_id
_symmetry_equiv_pos_as_xyz
1 x,y,z
2 -x,1/2+y,1/2-z
3 -x,-y,-z
4 x,1/2-y,1/2+z
_cell_length_a                   12.0682(2)
_cell_length_b                   14.7387(3)
_cell_length_c                   13.6096(3)
_cell_angle_alpha                90
_cell_angle_beta                 100.931(2)
_cell_angle_gamma                90
_cell_volume                     2376.81
loop_
_atom_site_label
_atom_site_type_symbol
_atom_site_fract_x
_atom_site_fract_y
_atom_site_fract_z
Zn1 Zn 0.75159(3) 0.49180(2) 0.47822(3)
O1 O 0.32035(17) 0.58728(14) 0.43655(16)
O2 O 0.20042(19) 0.70191(18) 0.39318(19)
O3 O 0.6430(2) 0.73663(16) 0.53236(15)
O4 O 0.8525(2) 0.89027(16) 0.88898(16)
O5 O 1.16496(17) 0.91525(14) 1.09673(16)
O6 O 1.28263(18) 0.79818(17) 1.13453(18)
N1 N 0.60948(19) 0.54961(17) 0.39860(18)
N2 N 0.47907(19) 0.65561(16) 0.35366(17)
N3 N 0.98975(19) 0.83149(17) 1.14129(19)
N4 N 0.8538(2) 0.93018(17) 1.08208(18)
C1 C 0.4761(2) 0.6013(2) 0.2702(2)
C2 C 0.4085(3) 0.6042(2) 0.1751(2)
H1 H 0.3558 0.6500 0.1560
C3 C 0.4244(3) 0.5354(3) 0.1111(2)
H2 H 0.3805 0.5343 0.0471
C4 C 0.5042(3) 0.4674(3) 0.1391(3)
H3 H 0.5108 0.4213 0.0939
C5 C 0.5740(3) 0.4665(3) 0.2326(2)
H4 H 0.6288 0.4221 0.2505
C6 C 0.5579(2) 0.5350(2) 0.2980(2)
C7 C 0.3879(2) 0.7171(2) 0.3666(2)
H5 H 0.3587 0.7472 0.3036
H6 H 0.4172 0.7633 0.4154
C8 C 0.2918(2) 0.6655(2) 0.4017(2)
C9 C 0.5571(2) 0.6202(2) 0.4275(2)
C10 C 0.5795(3) 0.6552(2) 0.5322(2)
H7 H 0.5091 0.6672 0.5542
H8 H 0.6219 0.6109 0.5770
C11 C 0.6931(3) 0.7701(2) 0.6246(2)
C12 C 0.7622(3) 0.8452(2) 0.6229(2)
H9 H 0.7713 0.8696 0.5619
C13 C 0.8176(3) 0.8839(3) 0.7112(2)
H10 H 0.8637 0.9343 0.7103
C14 C 0.8032(3) 0.8464(2) 0.8005(2)
C15 C 0.7355(3) 0.7728(2) 0.8035(2)
H11 H 0.7268 0.7488 0.8647
C16 C 0.6796(3) 0.7335(2) 0.7149(2)
H12 H 0.6335 0.6832 0.7166
C17 C 0.9311(3) 0.8386(3) 0.9563(2)
H13 H 1.0067 0.8484 0.9438
H14 H 0.9135 0.7745 0.9479
C18 C 0.9243(2) 0.8679(2) 1.0597(2)
C19 C 0.8775(2) 0.9361(2) 1.1870(2)
C20 C 0.8292(3) 0.9879(2) 1.2526(2)
H15 H 0.7701 1.0275 1.2294
C21 C 0.8719(3) 0.9786(3) 1.3538(3)
H16 H 0.8407 1.0125 1.3994
C22 C 0.9609(3) 0.9194(3) 1.3890(3)
H17 H 0.9885 0.9158 1.4575
C23 C 1.0090(3) 0.8665(2) 1.3259(2)
H18 H 1.0681 0.8269 1.3495
C24 C 0.9641(2) 0.8754(2) 1.2241(2)
C25 C 1.0905(2) 0.7765(2) 1.1415(3)
H19 H 1.0739 0.7303 1.0901
H20 H 1.1110 0.7461 1.2056
C26 C 1.1907(2) 0.8340(2) 1.1228(2)
Zn1A Zn 1.24841(3) 0.99180(2) 1.02178(3)
Zn1B Zn 0.24841(3) 0.50820(2) 0.52178(3)
Zn1C Zn 0.75159(3) 1.00820(2) 0.97822(3)
O1B O 0.67965(17) 0.41272(14) 0.56345(16)
O4C O 0.8525(2) 0.60973(16) 0.38898(16)
O5A O 0.83504(17) 0.41525(14) 0.40327(16)
N4C N 0.8538(2) 0.56982(17) 0.58208(18)
loop_
_geom_bond_atom_site_label_1
_geom_bond_atom_site_label_2
_geom_bond_site_symmetry_1
_geom_bond_site_symmetry_2
Zn1 N1 1_555 1_555
O1 C8 1_555 1_555
O2 C8 1_555 1_555
O3 C10 1_555 1_555
O4 C14 1_555 1_555
O5 C26 1_555 1_555
O6 C26 1_555 1_555
N1 C6 1_555 1_555
N2 C1 1_555 1_555
N3 C18 1_555 1_555
N4 C18 1_555 1_555
C1 C2 1_555 1_555
C2 H1 1_555 1_555
C3 C2 1_555 1_555
H2 C3 1_555 1_555
C4 C3 1_555 1_555
H3 C4 1_555 1_555
C5 C4 1_555 1_555
H4 C5 1_555 1_555
C6 C1 1_555 1_555
C7 N2 1_555 1_555
H5 C7 1_555 1_555
H6 C7 1_555 1_555
C8 C7 1_555 1_555
C9 N1 1_555 1_555
C10 C9 1_555 1_555
H7 C10 1_555 1_555
H8 C10 1_555 1_555
C11 O3 1_555 1_555
C12 C11 1_555 1_555
H9 C12 1_555 1_555
C13 C12 1_555 1_555
H10 C13 1_555 1_555
C14 C13 1_555 1_555
C15 C14 1_555 1_555
H11 C15 1_555 1_555
C16 C11 1_555 1_555
H12 C16 1_555 1_555
C17 O4 1_555 1_555
H13 C17 1_555 1_555
H14 C17 1_555 1_555
C18 C17 1_555 1_555
C19 N4 1_555 1_555
C20 C19 1_555 1_555
H15 C20 1_555 1_555
C21 C20 1_555 1_555
H16 C21 1_555 1_555
C22 C21 1_555 1_555
H17 C22 1_555 1_555
C23 C22 1_555 1_555
H18 C23 1_555 1_555
C24 N3 1_555 1_555
C25 N3 1_555 1_555
H19 C25 1_555 1_555
H20 C25 1_555 1_555
C26 C25 1_555 1_555
Zn1A O5 1_555 1_555
Zn1B O1 1_555 1_555
Zn1C O4 1_555 1_555
O1B Zn1 1_555 1_555
O4C Zn1 1_555 1_555
O5A Zn1 1_555 1_555
N4C Zn1 1_555 1_555
N2 C9 1_555 1_555
N4 Zn1C 1_555 1_555
C5 C6 1_555 1_555
C15 C16 1_555 1_555
C19 C24 1_555 1_555
C23 C24 1_555 1_555

#END
