
#######################################################################
#
#                 Cambridge Crystallographic Data Centre
#                                CCDC 
#
#######################################################################
#
# If this CIF has been generated from an entry in the Cambridge 
# Structural Database, then it will include bibliographic, chemical, 
# crystal, experimental, refinement or atomic coordinate data resulting 
# from the CCDC's data processing and validation procedures.
#
#######################################################################

data_LORGAA
_symmetry_cell_setting           orthorhombic
_symmetry_space_group_name_H-M   'P m n a'
_symmetry_Int_Tables_number      53
_space_group_name_Hall           '-P 2ac 2'
loop_
_symmetry_equiv_pos_site_id
_symmetry_equiv_pos_as_xyz
1 x,y,z
2 1/2-x,-y,1/2+z
3 x,-y,-z
4 1/2-x,y,1/2-z
5 -x,-y,-z
6 1/2+x,y,1/2-z
7 -x,y,z
8 1/2+x,-y,1/2+z
_cell_length_a                   7.363(1)
_cell_length_b                   5.302(1)
_cell_length_c                   10.492(2)
_cell_angle_alpha                90
_cell_angle_beta                 90
_cell_angle_gamma                90
_cell_volume                     409.593
loop_
_atom_site_label
_atom_site_type_symbol
_atom_site_fract_x
_atom_site_fract_y
_atom_site_fract_z
Co1 Co 0.0000 0.0000 0.0000
C1 C 0.3379(6) -0.3084(6) 0.1137(3)
N1 N 0.2075(5) -0.2156(6) 0.0750(3)
C2 C 0.0000 -0.3860(11) -0.2543(5)
N2 N 0.0000 -0.2283(9) -0.1791(5)
C3 C 0.5000 -0.4163(10) 0.1566(5)
N1B N 0.2075(5) 0.2156(6) -0.0750(3)
N1D N -0.2075(5) 0.2156(6) -0.0750(3)
N1F N -0.2075(5) -0.2156(6) 0.0750(3)
N2B N 0.0000 0.2283(9) 0.1791(5)
C3A C 0.0000 -0.5837(10) -0.3434(5)
C1F C 0.6621(6) -0.3084(6) 0.1137(3)
C2A C 0.5000 -0.6140(11) 0.2457(5)
N1F_2 N 0.7925(5) -0.2156(6) 0.0750(3)
N2A N 0.5000 -0.7717(9) 0.3209(5)
C1A C 0.1621(6) -0.6916(6) -0.3863(3)
C1G C -0.1621(6) -0.6916(6) -0.3863(3)
Co1_2 Co 1.0000 0.0000 0.0000
Co1A Co 0.5000 -1.0000 0.5000
N1A N 0.2925(5) -0.7844(6) -0.4250(3)
N1G N -0.2925(5) -0.7844(6) -0.4250(3)
Co1A_2 Co 0.5000 -1.0000 -0.5000
Co1A_3 Co -0.5000 -1.0000 -0.5000
loop_
_geom_bond_atom_site_label_1
_geom_bond_atom_site_label_2
_geom_bond_site_symmetry_1
_geom_bond_site_symmetry_2
Co1 N1 1_555 1_555
C1 N1 1_555 1_555
C2 N2 1_555 1_555
N2 Co1 1_555 1_555
C3 C1 1_555 1_555
N1B Co1 1_555 1_555
N1D Co1 1_555 1_555
N1F Co1 1_555 1_555
N2B Co1 1_555 1_555
C3A C2 1_555 1_555
C1F C3 1_555 1_555
C2A C3 1_555 1_555
N1F_2 C1F 1_555 1_555
N2A C2A 1_555 1_555
C1A C3A 1_555 1_555
C1G C3A 1_555 1_555
Co1_2 N1F_2 1_555 1_555
Co1A N2A 1_555 1_555
N1A C1A 1_555 1_555
N1G C1G 1_555 1_555
Co1A_2 N1A 1_555 1_555
Co1A_3 N1G 1_555 1_555

#END
