
#######################################################################
#
#                 Cambridge Crystallographic Data Centre
#                                CCDC 
#
#######################################################################
#
# If this CIF has been generated from an entry in the Cambridge 
# Structural Database, then it will include bibliographic, chemical, 
# crystal, experimental, refinement or atomic coordinate data resulting 
# from the CCDC's data processing and validation procedures.
#
#######################################################################

data_LORJAF
_symmetry_cell_setting           triclinic
_symmetry_space_group_name_H-M   'P -1'
_symmetry_Int_Tables_number      2
_space_group_name_Hall           '-P 1'
loop_
_symmetry_equiv_pos_site_id
_symmetry_equiv_pos_as_xyz
1 x,y,z
2 -x,-y,-z
_cell_length_a                   13.5345(4)
_cell_length_b                   16.5229(3)
_cell_length_c                   17.1523(4)
_cell_angle_alpha                78.526(3)
_cell_angle_beta                 66.816(5)
_cell_angle_gamma                65.874(4)
_cell_volume                     3214.7
loop_
_atom_site_label
_atom_site_type_symbol
_atom_site_fract_x
_atom_site_fract_y
_atom_site_fract_z
C1 C 0.8711(15) -0.0132(12) 0.4329(14)
C2 C 1.0387(17) 0.1973(15) 0.2441(12)
C3 C 0.290(2) 0.5138(13) 0.0694(15)
C4 C 0.4864(16) 0.3788(13) 0.0433(11)
C5 C 1.0078(18) 0.2854(15) 0.2315(14)
H1 H 0.9596 0.3217 0.2773
C6 C 1.114(3) 0.274(3) 0.085(2)
C7 C 1.1513(19) 0.1852(19) 0.0983(16)
H2 H 1.2059 0.1499 0.0531
C8 C 0.7397(18) 0.4046(14) 0.1913(12)
H3 H 0.7391 0.4556 0.1566
C9 C 0.5290(15) 0.2135(13) 0.2676(12)
H4 H 0.5649 0.1777 0.2213
C10 C 0.5221(15) 0.1768(13) 0.3464(12)
H5 H 0.5521 0.1152 0.3528
C11 C 0.8225(15) 0.0814(12) 0.0764(13)
C12 C 0.9064(17) 0.0637(12) 0.4097(13)
C13 C 0.3851(16) 0.4356(12) 0.0907(13)
C14 C 0.9918(15) 0.1538(12) 0.3245(13)
C15 C 0.8126(17) 0.1654(14) 0.1654(12)
C16 C 1.396(3) 0.091(2) 0.215(3)
C17 C 0.433(2) 0.3175(17) 0.4038(15)
H6 H 0.4030 0.3532 0.4495
C18 C 0.7766(16) 0.2483(12) 0.2062(13)
C19 C 0.475(3) 0.224(3) 0.4162(19)
C20 C 0.7961(17) 0.0621(14) 0.0090(15)
C21 C 0.9792(17) 0.4195(13) 0.4223(12)
C22 C 1.336(2) 0.0991(16) 0.3061(18)
H7 H 1.3514 0.0481 0.3410
C23 C 0.9098(18) 0.1209(14) 0.4578(14)
C24 C 0.548(2) 0.3755(14) -0.0469(13)
C25 C 0.473(3) 0.183(3) 0.500(2)
C26 C 1.0448(18) 0.3218(14) 0.1548(17)
H8 H 1.0224 0.3833 0.1487
C27 C 0.7091(18) 0.3282(16) 0.3255(14)
H9 H 0.6867 0.3287 0.3842
C28 C 1.156(4) 0.316(3) 0.001(2)
C29 C 0.704(3) 0.406(2) 0.279(3)
C30 C 1.3612(17) 0.1722(16) 0.1751(14)
H10 H 1.3918 0.1733 0.1161
C31 C 0.7455(15) 0.2497(13) 0.2901(13)
H11 H 0.7486 0.1978 0.3239
C32 C 1.0393(16) 0.4718(12) 0.3689(13)
C33 C 1.2320(17) 0.2505(14) 0.2928(14)
C34 C 0.8799(18) 0.0281(13) 0.1308(12)
C35 C 0.4834(17) 0.3030(16) 0.2564(12)
C36 C 0.4362(18) 0.3562(12) 0.3235(13)
H12 H 0.4067 0.4176 0.3154
C37 C 1.010(2) 0.5655(14) 0.3708(14)
C38 C 1.2898(16) 0.2484(13) 0.2092(14)
H13 H 1.2794 0.3006 0.1754
C39 C 1.1412(17) 0.3363(14) 0.3355(13)
C40 C 0.468(2) 0.3447(13) 0.1752(13)
C41 C 0.7754(18) 0.3243(13) 0.1586(14)
H14 H 0.8005 0.3217 0.1000
C42 C 1.1126(17) 0.1448(14) 0.1762(13)
H15 H 1.1358 0.0833 0.1828
C43 C 0.8742(17) 0.1256(13) 0.5450(14)
C44 C 0.9421(18) -0.0648(14) 0.1323(14)
C45 C 0.873(2) 0.4360(15) 0.4921(15)
C46 C 1.2582(18) 0.1776(14) 0.3434(15)
H16 H 1.2243 0.1804 0.4021
N1 N 1.1374(13) 0.4163(10) 0.3165(11)
N2 N 0.3667(13) 0.4164(9) 0.1766(11)
N3 N 0.5422(13) 0.3249(10) 0.0975(9)
N4 N 0.7753(13) 0.1681(10) 0.1010(9)
N5 N 0.8696(14) 0.0842(10) 0.1843(9)
N6 N 0.9608(14) 0.0836(10) 0.3252(11)
N7 N 0.9624(12) 0.1777(10) 0.4020(10)
N8 N 1.0428(13) 0.3306(10) 0.4016(9)
O1 O 0.9211(13) 0.6157(9) 0.4172(9)
O2 O 1.0951(13) 0.5916(8) 0.3132(8)
O3 O 0.2049(14) 0.5535(10) 0.1245(9)
O4 O 0.3102(12) 0.5347(9) -0.0111(9)
H17 H 0.3740 0.5008 -0.0387
O5 O 0.5064(12) 0.4244(9) -0.0979(8)
O6 O 0.6505(13) 0.3183(11) -0.0680(9)
O7 O 0.7451(14) 0.1267(9) -0.0291(9)
O8 O 0.8450(14) -0.0165(9) -0.0167(10)
H18 H 0.8887 -0.0473 0.0090
O9 O 0.9547(12) -0.1149(9) 0.0825(9)
O10 O 0.9993(14) -0.0927(8) 0.1865(9)
O11 O 0.8837(13) -0.0520(9) 0.3747(9)
O12 O 0.8333(11) -0.0361(9) 0.5116(9)
H19 H 0.8339 -0.0023 0.5404
O13 O 0.8310(12) 0.0766(9) 0.5962(8)
O14 O 0.8994(13) 0.1824(9) 0.5680(8)
O15 O 0.8440(12) 0.3710(10) 0.5284(9)
O16 O 0.8114(13) 0.5181(10) 0.5180(10)
H20 H 0.8444 0.5514 0.4882
O17 O 1.0748(12) 0.2315(11) 0.5498(9)
O18 O 1.1321(11) -0.0712(9) 0.2523(9)
O19 O 0.8535(12) 0.2702(9) -0.0489(9)
O20 O 0.3145(12) 0.5706(9) 0.2509(9)
Ni1 Ni 0.9792(2) 0.00444(15) 0.24633(16)
Ni2 Ni 0.2299(2) 0.49550(16) 0.25419(16)
Ni3 Ni 0.7034(2) 0.25388(17) 0.02423(16)
Ni4 Ni 0.9819(2) 0.24618(17) 0.47568(15)
C47 C 1.476(4) 0.006(2) 0.174(3)
C48 C 0.661(4) 0.493(2) 0.321(3)
C49 C 1.196(3) 0.389(2) -0.0080(19)
H21 H 1.2014 0.3948 0.0447
H22 H 1.1422 0.4436 -0.0226
H23 H 1.2707 0.3769 -0.0519
C50 C 0.389(2) 0.136(2) 0.5332(17)
H24 H 0.4284 0.0750 0.5175
H25 H 0.3286 0.1642 0.5093
H26 H 0.3550 0.1378 0.5940
C51 C 0.572(3) 0.117(2) 0.5093(17)
H27 H 0.6097 0.0781 0.4633
H28 H 0.5525 0.0845 0.5621
H29 H 0.6239 0.1440 0.5088
C52 C 1.555(3) 0.0151(19) 0.093(2)
H30 H 1.6284 -0.0322 0.0864
H31 H 1.5634 0.0711 0.0879
H32 H 1.5271 0.0128 0.0506
C53 C 1.233(3) 0.252(2) -0.069(2)
H33 H 1.1867 0.2465 -0.0971
H34 H 1.2699 0.1952 -0.0460
H35 H 1.2902 0.2740 -0.1098
C54 C 0.416(2) 0.247(2) 0.5747(18)
H36 H 0.4293 0.2141 0.6247
H37 H 0.3346 0.2752 0.5858
H38 H 0.4498 0.2919 0.5595
C55 C 1.567(3) -0.032(2) 0.216(2)
H39 H 1.6317 -0.0800 0.1831
H40 H 1.5350 -0.0544 0.2722
H41 H 1.5927 0.0133 0.2177
C56 C 1.059(3) 0.369(2) -0.034(2)
H42 H 1.0016 0.4159 0.0030
H43 H 1.0235 0.3302 -0.0374
H44 H 1.0892 0.3938 -0.0896
C57 C 0.660(3) 0.484(2) 0.410(2)
H45 H 0.6343 0.5424 0.4302
H46 H 0.7371 0.4506 0.4105
H47 H 0.6093 0.4547 0.4463
C58 C 0.754(3) 0.533(2) 0.285(2)
H48 H 0.7574 0.5579 0.2290
H49 H 0.8268 0.4883 0.2834
H50 H 0.7348 0.5795 0.3208
C59 C 1.435(3) -0.0667(19) 0.213(2)
H51 H 1.4050 -0.0797 0.1763
H52 H 1.3748 -0.0497 0.2667
H53 H 1.4976 -0.1184 0.2206
C60 C 0.580(3) 0.5672(18) 0.283(2)
H54 H 0.5507 0.6203 0.3130
H55 H 0.5174 0.5513 0.2878
H56 H 0.6216 0.5773 0.2244
H57 H 1.1021 0.2642 0.5581
H58 H 1.0993 0.1803 0.5732
H59 H 1.0850 -0.0490 0.3004
H60 H 1.1842 -0.0488 0.2346
H61 H 0.8134 0.2609 -0.0729
H62 H 0.9082 0.2216 -0.0482
H63 H 0.3197 0.5334 0.2909
H64 H 0.3672 0.5468 0.2048
N1_2 N 0.1374(13) 0.4163(10) 0.3165(11)
O2_2 O 0.0951(13) 0.5916(8) 0.3132(8)
Ni2_2 Ni 1.2299(2) 0.49550(16) 0.25419(16)
O21 O 0.1760(19) 0.7516(14) 0.2476(17)
H65 H 0.1461 0.7104 0.2559
H66 H 0.1625 0.7636 0.2982
loop_
_geom_bond_atom_site_label_1
_geom_bond_atom_site_label_2
_geom_bond_site_symmetry_1
_geom_bond_site_symmetry_2
C1 C12 1_555 1_555
C2 C5 1_555 1_555
C3 C13 1_555 1_555
C4 C13 1_555 1_555
C5 H1 1_555 1_555
C6 C7 1_555 1_555
C7 H2 1_555 1_555
C8 H3 1_555 1_555
C9 H4 1_555 1_555
C10 C9 1_555 1_555
H5 C10 1_555 1_555
C11 C20 1_555 1_555
C12 C23 1_555 1_555
C13 N2 1_555 1_555
C14 C2 1_555 1_555
C15 C18 1_555 1_555
C16 C22 1_555 1_555
C17 H6 1_555 1_555
C18 C31 1_555 1_555
C19 C10 1_555 1_555
C20 O7 1_555 1_555
C21 C32 1_555 1_555
C22 H7 1_555 1_555
C23 C43 1_555 1_555
C24 C4 1_555 1_555
C25 C19 1_555 1_555
C26 C5 1_555 1_555
H8 C26 1_555 1_555
C27 H9 1_555 1_555
C28 C6 1_555 1_555
C29 C8 1_555 1_555
C30 C16 1_555 1_555
H10 C30 1_555 1_555
C31 C27 1_555 1_555
H11 C31 1_555 1_555
C32 C37 1_555 1_555
C33 C38 1_555 1_555
C34 C11 1_555 1_555
C35 C9 1_555 1_555
C36 C17 1_555 1_555
H12 C36 1_555 1_555
C37 O1 1_555 1_555
C38 C30 1_555 1_555
H13 C38 1_555 1_555
C39 C33 1_555 1_555
C40 C35 1_555 1_555
C41 C8 1_555 1_555
H14 C41 1_555 1_555
C42 C2 1_555 1_555
H15 C42 1_555 1_555
C43 O13 1_555 1_555
C44 C34 1_555 1_555
C45 C21 1_555 1_555
C46 C22 1_555 1_555
H16 C46 1_555 1_555
N1 C32 1_555 1_555
N2 C40 1_555 1_555
N3 C4 1_555 1_555
N4 C11 1_555 1_555
N5 C15 1_555 1_555
N6 C12 1_555 1_555
N7 C14 1_555 1_555
N8 C21 1_555 1_555
O2 C37 1_555 1_555
O3 C3 1_555 1_555
O4 C3 1_555 1_555
H17 O4 1_555 1_555
O5 C24 1_555 1_555
O6 C24 1_555 1_555
O7 Ni3 1_555 1_555
O8 C20 1_555 1_555
H18 O8 1_555 1_555
O9 C44 1_555 1_555
O10 C44 1_555 1_555
O11 C1 1_555 1_555
O12 C1 1_555 1_555
H19 O12 1_555 1_555
O14 C43 1_555 1_555
O15 C45 1_555 1_555
O16 C45 1_555 1_555
H20 O16 1_555 1_555
O17 Ni4 1_555 1_555
O18 Ni1 1_555 1_555
O19 Ni3 1_555 1_555
O20 Ni2 1_555 1_555
Ni1 N5 1_555 1_555
Ni2 N2 1_555 1_555
Ni3 N3 1_555 1_555
Ni4 N7 1_555 1_555
C47 C16 1_555 1_555
C48 C29 1_555 1_555
C49 C28 1_555 1_555
H21 C49 1_555 1_555
H22 C49 1_555 1_555
H23 C49 1_555 1_555
C50 C25 1_555 1_555
H24 C50 1_555 1_555
H25 C50 1_555 1_555
H26 C50 1_555 1_555
C51 C25 1_555 1_555
H27 C51 1_555 1_555
H28 C51 1_555 1_555
H29 C51 1_555 1_555
C52 C47 1_555 1_555
H30 C52 1_555 1_555
H31 C52 1_555 1_555
H32 C52 1_555 1_555
C53 C28 1_555 1_555
H33 C53 1_555 1_555
H34 C53 1_555 1_555
H35 C53 1_555 1_555
C54 C25 1_555 1_555
H36 C54 1_555 1_555
H37 C54 1_555 1_555
H38 C54 1_555 1_555
C55 C47 1_555 1_555
H39 C55 1_555 1_555
H40 C55 1_555 1_555
H41 C55 1_555 1_555
C56 C28 1_555 1_555
H42 C56 1_555 1_555
H43 C56 1_555 1_555
H44 C56 1_555 1_555
C57 C48 1_555 1_555
H45 C57 1_555 1_555
H46 C57 1_555 1_555
H47 C57 1_555 1_555
C58 C48 1_555 1_555
H48 C58 1_555 1_555
H49 C58 1_555 1_555
H50 C58 1_555 1_555
C59 C47 1_555 1_555
H51 C59 1_555 1_555
H52 C59 1_555 1_555
H53 C59 1_555 1_555
C60 C48 1_555 1_555
H54 C60 1_555 1_555
H55 C60 1_555 1_555
H56 C60 1_555 1_555
H57 O17 1_555 1_555
H58 O17 1_555 1_555
H59 O18 1_555 1_555
H60 O18 1_555 1_555
H61 O19 1_555 1_555
H62 O19 1_555 1_555
H63 O20 1_555 1_555
H64 O20 1_555 1_555
O21 H65 1_555 1_555
H66 O21 1_555 1_555
N1_2 Ni2 1_555 1_555
O2_2 Ni2 1_555 1_555
Ni2_2 N1 1_555 1_555
C6 C26 1_555 1_555
C7 C42 1_555 1_555
C14 N6 1_555 1_555
C15 N4 1_555 1_555
C17 C19 1_555 1_555
C18 C41 1_555 1_555
C23 N7 1_555 1_555
C27 C29 1_555 1_555
C33 C46 1_555 1_555
C34 N5 1_555 1_555
C35 C36 1_555 1_555
C39 N1 1_555 1_555
C39 N8 1_555 1_555
C40 N3 1_555 1_555
N4 Ni3 1_555 1_555
N6 Ni1 1_555 1_555
N8 Ni4 1_555 1_555
O2 Ni2_2 1_555 1_555
O3 Ni2 1_555 1_555
O6 Ni3 1_555 1_555
O10 Ni1 1_555 1_555
O11 Ni1 1_555 1_555
O14 Ni4 1_555 1_555
O15 Ni4 1_555 1_555

#END
