
#######################################################################
#
#                 Cambridge Crystallographic Data Centre
#                                CCDC 
#
#######################################################################
#
# If this CIF has been generated from an entry in the Cambridge 
# Structural Database, then it will include bibliographic, chemical, 
# crystal, experimental, refinement or atomic coordinate data resulting 
# from the CCDC's data processing and validation procedures.
#
#######################################################################

data_LORJEJ
_symmetry_cell_setting           monoclinic
_symmetry_space_group_name_H-M   'P 21/c'
_symmetry_Int_Tables_number      14
_space_group_name_Hall           '-P 2ybc'
loop_
_symmetry_equiv_pos_site_id
_symmetry_equiv_pos_as_xyz
1 x,y,z
2 -x,1/2+y,1/2-z
3 -x,-y,-z
4 x,1/2-y,1/2+z
_cell_length_a                   11.408(2)
_cell_length_b                   17.209(3)
_cell_length_c                   17.479(6)
_cell_angle_alpha                90
_cell_angle_beta                 121.05(2)
_cell_angle_gamma                90
_cell_volume                     2939.81
loop_
_atom_site_label
_atom_site_type_symbol
_atom_site_fract_x
_atom_site_fract_y
_atom_site_fract_z
Cd1 Cd 0.84711(3) 0.495602(13) 0.212486(15)
N1 N 0.7582(3) 0.61618(16) 0.20742(18)
N2 N 0.6768(3) 0.73565(18) 0.15902(19)
N3 N 0.7722(3) 0.73660(16) 0.24761(18)
N4 N 1.2626(3) 0.59777(16) 0.75461(18)
N5 N 1.3955(4) 0.7031(2) 0.7918(2)
N6 N 1.2824(3) 0.71089(17) 0.70921(19)
C1 C 0.7557(4) 0.48669(19) 0.0367(2)
C2 C 0.7143(4) 0.48358(18) -0.0600(2)
C3 C 0.5819(4) 0.4682(2) -0.1249(2)
H1 H 0.5167 0.4609 -0.1088
C4 C 0.5426(3) 0.4634(2) -0.2142(2)
H2 H 0.4522 0.4531 -0.2577
C5 C 0.6397(3) 0.4742(2) -0.2375(2)
C6 C 0.7732(4) 0.49135(19) -0.1743(2)
H3 H 0.8376 0.4996 -0.1909
C7 C 0.8096(4) 0.49604(19) -0.0865(2)
H4 H 0.8997 0.5078 -0.0435
O1 O 0.6155(3) 0.4632(2) -0.32265(16)
C8 C 0.4843(4) 0.4684(3) -0.3963(2)
C9 C 0.4060(4) 0.5329(3) -0.4130(3)
H5 H 0.4375 0.5738 -0.3724
C10 C 0.2791(4) 0.5376(2) -0.4905(2)
H6 H 0.2244 0.5811 -0.5011
C11 C 0.2332(4) 0.4779(2) -0.5524(2)
C12 C 0.0969(4) 0.4829(2) -0.6367(2)
C13 C 0.3156(4) 0.4135(2) -0.5344(2)
H7 H 0.2866 0.3733 -0.5758
C14 C 0.4404(4) 0.4081(2) -0.4559(2)
H8 H 0.4942 0.3639 -0.4435
C15 C 0.6726(4) 0.6624(2) 0.1390(2)
H9 H 0.6145 0.6434 0.0817
C16 C 0.8192(4) 0.6658(2) 0.2747(2)
H10 H 0.8858 0.6526 0.3328
C17 C 0.8162(4) 0.8104(2) 0.2974(2)
H11 H 0.7390 0.8344 0.2970
H12 H 0.8472 0.8455 0.2680
C18 C 0.9310(4) 0.79789(18) 0.3934(2)
C19 C 0.9009(4) 0.79761(19) 0.4615(3)
C20 C 0.7557(5) 0.8004(3) 0.4413(4)
H13 H 0.7301 0.8534 0.4421
H14 H 0.7487 0.7712 0.4856
H15 H 0.6958 0.7784 0.3834
C21 C 1.0072(5) 0.79429(19) 0.5498(2)
C22 C 0.9759(6) 0.8006(3) 0.6237(3)
H16 H 1.0598 0.8055 0.6801
H17 H 0.9282 0.7548 0.6242
H18 H 0.9197 0.8455 0.6138
C23 C 1.1408(4) 0.78520(19) 0.5685(2)
C24 C 1.1689(4) 0.77816(19) 0.4997(2)
C25 C 1.3125(5) 0.7620(3) 0.5191(3)
H19 H 1.3542 0.8098 0.5171
H20 H 1.3082 0.7268 0.4752
H21 H 1.3659 0.7392 0.5774
C26 C 1.0630(4) 0.78700(18) 0.4116(2)
C27 C 1.0957(5) 0.7827(3) 0.3382(3)
H22 H 1.1054 0.7293 0.3265
H23 H 1.1797 0.8099 0.3565
H24 H 1.0230 0.8062 0.2850
C28 C 1.2575(5) 0.7868(2) 0.6643(2)
H25 H 1.3401 0.8032 0.6659
H26 H 1.2377 0.8249 0.6970
C29 C 1.2049(4) 0.64886(19) 0.6885(2)
H27 H 1.1219 0.6418 0.6355
C30 C 1.3783(4) 0.6344(2) 0.8157(3)
H28 H 1.4407 0.6123 0.8705
O2 O 0.8780(3) 0.50453(15) 0.09361(17)
O3 O 0.6710(3) 0.47066(19) 0.05893(17)
O4 O 0.0597(3) 0.43160(16) -0.69443(17)
O5 O 0.0220(3) 0.53981(19) -0.64743(19)
Cd1_2 Cd -0.15289(3) 0.495602(13) -0.787514(15)
Cd1B Cd 1.15289(3) 0.504398(13) 0.787514(15)
N4B N 0.7374(3) 0.40223(16) 0.24539(18)
O4_2 O 1.0597(3) 0.43160(16) 0.30557(17)
O5_2 O 1.0220(3) 0.53981(19) 0.35257(19)
O6 O 0.9666(7) 0.5930(4) 0.4870(3)
H29 H 0.9826 0.5775 0.4475
H30 H 0.8986 0.6009 0.4934
loop_
_geom_bond_atom_site_label_1
_geom_bond_atom_site_label_2
_geom_bond_site_symmetry_1
_geom_bond_site_symmetry_2
Cd1 N1 1_555 1_555
N1 C15 1_555 1_555
N2 N3 1_555 1_555
N3 C16 1_555 1_555
N4 C29 1_555 1_555
N5 N6 1_555 1_555
N6 C28 1_555 1_555
C1 C2 1_555 1_555
C2 C3 1_555 1_555
C3 H1 1_555 1_555
C4 C3 1_555 1_555
H2 C4 1_555 1_555
C5 C4 1_555 1_555
C6 C5 1_555 1_555
H3 C6 1_555 1_555
C7 C2 1_555 1_555
H4 C7 1_555 1_555
O1 C5 1_555 1_555
C8 O1 1_555 1_555
C9 C8 1_555 1_555
H5 C9 1_555 1_555
C10 C9 1_555 1_555
H6 C10 1_555 1_555
C11 C10 1_555 1_555
C12 C11 1_555 1_555
C13 C11 1_555 1_555
H7 C13 1_555 1_555
C14 C8 1_555 1_555
H8 C14 1_555 1_555
C15 N2 1_555 1_555
H9 C15 1_555 1_555
C16 N1 1_555 1_555
H10 C16 1_555 1_555
C17 N3 1_555 1_555
H11 C17 1_555 1_555
H12 C17 1_555 1_555
C18 C17 1_555 1_555
C19 C18 1_555 1_555
C20 C19 1_555 1_555
H13 C20 1_555 1_555
H14 C20 1_555 1_555
H15 C20 1_555 1_555
C21 C19 1_555 1_555
C22 C21 1_555 1_555
H16 C22 1_555 1_555
H17 C22 1_555 1_555
H18 C22 1_555 1_555
C23 C21 1_555 1_555
C24 C23 1_555 1_555
C25 C24 1_555 1_555
H19 C25 1_555 1_555
H20 C25 1_555 1_555
H21 C25 1_555 1_555
C26 C18 1_555 1_555
C27 C26 1_555 1_555
H22 C27 1_555 1_555
H23 C27 1_555 1_555
H24 C27 1_555 1_555
C28 C23 1_555 1_555
H25 C28 1_555 1_555
H26 C28 1_555 1_555
C29 N6 1_555 1_555
H27 C29 1_555 1_555
C30 N4 1_555 1_555
H28 C30 1_555 1_555
O2 Cd1 1_555 1_555
O3 Cd1 1_555 1_555
O4 C12 1_555 1_555
O5 C12 1_555 1_555
O6 H29 1_555 1_555
H30 O6 1_555 1_555
Cd1_2 O4 1_555 1_555
Cd1B N4 1_555 1_555
N4B Cd1 1_555 1_555
O4_2 Cd1 1_555 1_555
O5_2 Cd1 1_555 1_555
N5 C30 1_555 1_555
C1 O2 1_555 1_555
C1 O3 1_555 1_555
C6 C7 1_555 1_555
C13 C14 1_555 1_555
C24 C26 1_555 1_555
O5 Cd1_2 1_555 1_555

#END
