
#######################################################################
#
#                 Cambridge Crystallographic Data Centre
#                                CCDC 
#
#######################################################################
#
# If this CIF has been generated from an entry in the Cambridge 
# Structural Database, then it will include bibliographic, chemical, 
# crystal, experimental, refinement or atomic coordinate data resulting 
# from the CCDC's data processing and validation procedures.
#
#######################################################################

data_LORMOU01
_symmetry_cell_setting           monoclinic
_symmetry_space_group_name_H-M   'P 21'
_symmetry_Int_Tables_number      4
_space_group_name_Hall           'P 2yb'
loop_
_symmetry_equiv_pos_site_id
_symmetry_equiv_pos_as_xyz
1 x,y,z
2 -x,1/2+y,-z
_cell_length_a                   5.40160(10)
_cell_length_b                   11.6781(2)
_cell_length_c                   9.4451(2)
_cell_angle_alpha                90
_cell_angle_beta                 105.0590(10)
_cell_angle_gamma                90
_cell_volume                     575.34
loop_
_atom_site_label
_atom_site_type_symbol
_atom_site_fract_x
_atom_site_fract_y
_atom_site_fract_z
Na1 Na -0.23394(10) 0.44792(5) 0.32876(7)
B1 B -0.7593(3) 0.28988(12) 0.2821(2)
O1 O -0.50368(18) 0.47758(9) 0.10090(12)
O2 O -0.6814(2) 0.64833(9) 0.03307(14)
C1 C -0.7423(3) 0.43905(13) 0.62198(18)
C2 C -0.5023(3) 0.36721(14) 0.65054(18)
C3 C -0.5084(3) 0.28143(14) 0.52817(17)
C4 C -0.7281(3) 0.19612(14) 0.50447(19)
O3 O -0.94711(17) 0.37472(8) 0.21445(12)
O4 O -0.68239(18) 0.23386(8) 0.15806(12)
O5 O -0.76185(18) 0.25868(9) -0.08444(13)
O6 O -0.7004(2) 0.54272(9) 0.68165(15)
O7 O -0.95286(18) 0.40509(9) 0.55386(12)
C5 C -0.6921(3) 0.53676(13) 0.04968(17)
C6 C -0.9584(3) 0.48957(13) -0.0025(2)
C7 C -0.9893(2) 0.37199(12) 0.05957(16)
C8 C -0.7995(2) 0.28374(12) 0.03365(18)
O8 O -0.54221(18) 0.33715(9) 0.39086(12)
O9 O -0.7697(2) 0.13188(10) 0.59560(14)
O10 O -0.86560(18) 0.19971(8) 0.36575(12)
H1 H -0.506(3) 0.673(3) 0.055(3)
H2 H -1.088(3) 0.5443(15) 0.018(2)
H3 H -0.984(4) 0.486(2) -0.1109(16)
H4 H -1.173(3) 0.3472(16) 0.012(2)
H5 H -0.352(3) 0.2337(16) 0.555(2)
H6 H -0.484(4) 0.328(2) 0.7486(19)
H7 H -0.343(3) 0.4112(16) 0.666(2)
H8 H -0.864(4) 0.587(2) 0.655(3)
Na1_2 Na -1.23394(10) 0.44792(5) 0.32876(7)
Na1A Na -0.76606(10) -0.05208(5) 0.67124(7)
O3_2 O 0.05289(17) 0.37472(8) 0.21445(12)
O7_2 O 0.04714(18) 0.40509(9) 0.55386(12)
O9A O -0.2303(2) 0.63188(10) 0.40440(14)
loop_
_geom_bond_atom_site_label_1
_geom_bond_atom_site_label_2
_geom_bond_site_symmetry_1
_geom_bond_site_symmetry_2
Na1 O1 1_555 1_555
B1 O3 1_555 1_555
O1 C5 1_555 1_555
O2 C5 1_555 1_555
C1 C2 1_555 1_555
C2 C3 1_555 1_555
C3 C4 1_555 1_555
C4 O9 1_555 1_555
O3 C7 1_555 1_555
O4 B1 1_555 1_555
O5 C8 1_555 1_555
O6 C1 1_555 1_555
O7 C1 1_555 1_555
C5 C6 1_555 1_555
C6 C7 1_555 1_555
C7 C8 1_555 1_555
C8 O4 1_555 1_555
O8 Na1 1_555 1_555
O9 Na1A 1_555 1_555
O10 B1 1_555 1_555
H1 O2 1_555 1_555
H2 C6 1_555 1_555
H3 C6 1_555 1_555
H4 C7 1_555 1_555
H5 C3 1_555 1_555
H6 C2 1_555 1_555
H7 C2 1_555 1_555
H8 O6 1_555 1_555
Na1_2 O3 1_555 1_555
O3_2 Na1 1_555 1_555
O7_2 Na1 1_555 1_555
O9A Na1 1_555 1_555
B1 O8 1_555 1_555
C3 O8 1_555 1_555
C4 O10 1_555 1_555
O7 Na1_2 1_555 1_555

#END
