
#######################################################################
#
#                 Cambridge Crystallographic Data Centre
#                                CCDC 
#
#######################################################################
#
# If this CIF has been generated from an entry in the Cambridge 
# Structural Database, then it will include bibliographic, chemical, 
# crystal, experimental, refinement or atomic coordinate data resulting 
# from the CCDC's data processing and validation procedures.
#
#######################################################################

data_LORRUG
_symmetry_cell_setting           monoclinic
_symmetry_space_group_name_H-M   'C 2/c'
_symmetry_Int_Tables_number      15
_space_group_name_Hall           '-C 2yn'
loop_
_symmetry_equiv_pos_site_id
_symmetry_equiv_pos_as_xyz
1 x,y,z
2 1/2+x,1/2+y,z
3 -x,y,1/2-z
4 1/2-x,1/2+y,1/2-z
5 -x,-y,-z
6 1/2-x,1/2-y,-z
7 x,-y,1/2+z
8 1/2+x,1/2-y,1/2+z
_cell_length_a                   21.7002(11)
_cell_length_b                   7.7859(5)
_cell_length_c                   19.6450(9)
_cell_angle_alpha                90
_cell_angle_beta                 97.770(4)
_cell_angle_gamma                90
_cell_volume                     3288.66
loop_
_atom_site_label
_atom_site_type_symbol
_atom_site_fract_x
_atom_site_fract_y
_atom_site_fract_z
Cd1 Cd 0.00000 0.69895(2) 0.25000
Cd2 Cd 0.137020(10) 0.303430(10) 0.074150(10)
Co1 Co -0.102340(10) 1.20198(2) 0.113210(10)
N1 N 0.16491(7) 0.1545(2) 0.18039(8)
N2 N 0.24830(7) 0.2708(2) 0.08771(8)
N3 N 0.13543(6) 0.55055(17) 0.14276(7)
N4 N 0.00292(6) 0.64335(18) 0.13543(7)
N5 N 0.13508(7) 0.48927(19) -0.01949(7)
N6 N -0.07124(7) 0.91044(19) 0.21489(8)
N7 N -0.23419(7) 1.1660(2) 0.14653(9)
N8 N -0.07666(7) 0.46368(19) 0.22806(7)
N9 N 0.12958(7) 0.06613(18) 0.00020(8)
N10 N 0.03215(7) 0.24470(19) 0.08608(8)
C1 C 0.22682(9) 0.0784(2) 0.18002(10)
C2 C 0.27078(9) 0.2101(2) 0.15773(10)
C3 C 0.11100(8) 0.7238(2) 0.12329(9)
C4 C 0.04423(8) 0.7229(2) 0.09015(9)
C5 C 0.12428(7) 0.6094(2) -0.05328(8)
C6 C -0.08181(7) 1.02065(19) 0.17606(8)
C7 C -0.18510(7) 1.18283(19) 0.13199(8)
C8 C -0.08643(7) 0.36133(19) 0.18587(8)
C9 C 0.11920(7) -0.03782(19) -0.04133(8)
C10 C -0.01827(7) 0.22246(19) 0.09605(8)
H1 H 0.16550 0.22970 0.21660
H2 H 0.13630 0.06980 0.18520
H3 H 0.22390 -0.02070 0.14820
H4 H 0.24290 0.03640 0.22660
H5 H 0.26660 0.37440 0.08010
H6 H 0.25910 0.19310 0.05610
H7 H 0.27410 0.30840 0.19000
H8 H 0.31260 0.15880 0.15870
H9 H 0.17620 0.56800 0.16130
H10 H 0.11510 0.51770 0.17880
H11 H 0.13700 0.77600 0.09110
H12 H 0.11460 0.79670 0.16490
H13 H 0.00950 0.52690 0.13270
H14 H -0.03690 0.66250 0.11410
H15 H 0.03050 0.84230 0.07950
H16 H 0.04090 0.65840 0.04640
Cd2B Cd -0.137020(10) 0.303430(10) 0.425850(10)
Cd2D Cd -0.137020(10) 1.696570(10) -0.074150(10)
Cd2D_2 Cd -0.137020(10) 0.696570(10) -0.074150(10)
Cd2_2 Cd 0.137020(10) 1.303430(10) 0.074150(10)
Co1B Co 0.102340(10) 1.20198(2) 0.386790(10)
Co1D Co 0.102340(10) 0.79802(2) -0.113210(10)
Co1_2 Co -0.102340(10) 0.20198(2) 0.113210(10)
Co1D_2 Co 0.102340(10) -0.20198(2) -0.113210(10)
Co1B_2 Co 0.102340(10) 0.20198(2) 0.386790(10)
N1B N -0.16491(7) 0.1545(2) 0.31961(8)
N2B N -0.24830(7) 0.2708(2) 0.41229(8)
N3B N -0.13543(6) 0.55055(17) 0.35724(7)
N4B N -0.00292(6) 0.64335(18) 0.36457(7)
N5D N -0.13508(7) 1.51073(19) 0.01949(7)
N5B N -0.13508(7) 0.48927(19) 0.51949(7)
N6B N 0.07124(7) 0.91044(19) 0.28511(8)
N7B N 0.23419(7) 1.1660(2) 0.35347(9)
N8B N 0.07666(7) 0.46368(19) 0.27194(7)
N9D N -0.12958(7) 0.93387(18) -0.00020(8)
N9B N -0.12958(7) 0.06613(18) 0.49980(8)
N10_2 N 0.03215(7) 1.24470(19) 0.08608(8)
N10B N -0.03215(7) 0.24470(19) 0.41392(8)
C1B C -0.22682(9) 0.0784(2) 0.31998(10)
C2B C -0.27078(9) 0.2101(2) 0.34227(10)
C3B C -0.11100(8) 0.7238(2) 0.37671(9)
C4B C -0.04423(8) 0.7229(2) 0.40985(9)
C5D C -0.12428(7) 1.3906(2) 0.05328(8)
C5F C 0.12428(7) 1.3906(2) 0.44672(8)
C6B C 0.08181(7) 1.02065(19) 0.32394(8)
C7B C 0.18510(7) 1.18283(19) 0.36801(8)
C8B C 0.08643(7) 0.36133(19) 0.31413(8)
C8_2 C -0.08643(7) 1.36133(19) 0.18587(8)
C8B_2 C 0.08643(7) 1.36133(19) 0.31413(8)
C9D C -0.11920(7) 1.03782(19) 0.04133(8)
C9F C 0.11920(7) 1.03782(19) 0.45867(8)
C10_2 C -0.01827(7) 1.22246(19) 0.09605(8)
C10B C 0.01827(7) 1.22246(19) 0.40395(8)
H1B H -0.16550 0.22970 0.28340
H2B H -0.13630 0.06980 0.31480
H3B H -0.22390 -0.02070 0.35180
H4B H -0.24290 0.03640 0.27340
H5B H -0.26660 0.37440 0.41990
H6B H -0.25910 0.19310 0.44390
H7B H -0.27410 0.30840 0.31000
H8B H -0.31260 0.15880 0.34130
H9B H -0.17620 0.56800 0.33870
H10B H -0.11510 0.51770 0.32120
H11B H -0.13700 0.77600 0.40890
H12B H -0.11460 0.79670 0.33510
H13B H -0.00950 0.52690 0.36730
H14B H 0.03690 0.66250 0.38590
H15B H -0.03050 0.84230 0.42050
H16B H -0.04090 0.65840 0.45360
loop_
_geom_bond_atom_site_label_1
_geom_bond_atom_site_label_2
_geom_bond_site_symmetry_1
_geom_bond_site_symmetry_2
Cd1 N4 1_555 1_555
Cd2 N1 1_555 1_555
Co1 C6 1_555 1_555
N1 C1 1_555 1_555
N2 Cd2 1_555 1_555
N3 Cd2 1_555 1_555
N4 C4 1_555 1_555
N5 Cd2 1_555 1_555
N6 Cd1 1_555 1_555
N7 C7 1_555 1_555
N8 Cd1 1_555 1_555
N9 Cd2 1_555 1_555
N10 Cd2 1_555 1_555
C1 C2 1_555 1_555
C2 N2 1_555 1_555
C3 N3 1_555 1_555
C4 C3 1_555 1_555
C5 N5 1_555 1_555
C6 N6 1_555 1_555
C7 Co1 1_555 1_555
C8 N8 1_555 1_555
C9 N9 1_555 1_555
C10 N10 1_555 1_555
H1 N1 1_555 1_555
H2 N1 1_555 1_555
H3 C1 1_555 1_555
H4 C1 1_555 1_555
H5 N2 1_555 1_555
H6 N2 1_555 1_555
H7 C2 1_555 1_555
H8 C2 1_555 1_555
H9 N3 1_555 1_555
H10 N3 1_555 1_555
H11 C3 1_555 1_555
H12 C3 1_555 1_555
H13 N4 1_555 1_555
H14 N4 1_555 1_555
H15 C4 1_555 1_555
H16 C4 1_555 1_555
Cd2B N1B 1_555 1_555
Cd2D N5D 1_555 1_555
Cd2D_2 N9D 1_555 1_555
Cd2_2 N10_2 1_555 1_555
Co1B C5F 1_555 1_555
Co1D C5 1_555 1_555
Co1_2 C8 1_555 1_555
Co1D_2 C9 1_555 1_555
Co1B_2 C8B 1_555 1_555
N1B C1B 1_555 1_555
N2B Cd2B 1_555 1_555
N3B Cd2B 1_555 1_555
N4B Cd1 1_555 1_555
N5D C5D 1_555 1_555
N5B Cd2B 1_555 1_555
N6B Cd1 1_555 1_555
N7B C7B 1_555 1_555
N8B Cd1 1_555 1_555
N9D C9D 1_555 1_555
N9B Cd2B 1_555 1_555
N10_2 C10_2 1_555 1_555
N10B Cd2B 1_555 1_555
C1B C2B 1_555 1_555
C2B N2B 1_555 1_555
C3B N3B 1_555 1_555
C4B N4B 1_555 1_555
C5D Co1 1_555 1_555
C6B Co1B 1_555 1_555
C7B Co1B 1_555 1_555
C8B N8B 1_555 1_555
C8_2 Co1 1_555 1_555
C8B_2 Co1B 1_555 1_555
C9D Co1 1_555 1_555
C9F Co1B 1_555 1_555
C10_2 Co1 1_555 1_555
C10B Co1B 1_555 1_555
H1B N1B 1_555 1_555
H2B N1B 1_555 1_555
H3B C1B 1_555 1_555
H4B C1B 1_555 1_555
H5B N2B 1_555 1_555
H6B N2B 1_555 1_555
H7B C2B 1_555 1_555
H8B C2B 1_555 1_555
H9B N3B 1_555 1_555
H10B N3B 1_555 1_555
H11B C3B 1_555 1_555
H12B C3B 1_555 1_555
H13B N4B 1_555 1_555
H14B N4B 1_555 1_555
H15B C4B 1_555 1_555
H16B C4B 1_555 1_555
C10 Co1_2 1_555 1_555
N6B C6B 1_555 1_555
C3B C4B 1_555 1_555

#END
