
#######################################################################
#
#                 Cambridge Crystallographic Data Centre
#                                CCDC 
#
#######################################################################
#
# If this CIF has been generated from an entry in the Cambridge 
# Structural Database, then it will include bibliographic, chemical, 
# crystal, experimental, refinement or atomic coordinate data resulting 
# from the CCDC's data processing and validation procedures.
#
#######################################################################

data_LORSER
_symmetry_cell_setting           monoclinic
_symmetry_space_group_name_H-M   'C 2/c'
_symmetry_Int_Tables_number      15
_space_group_name_Hall           '-C 2yn'
loop_
_symmetry_equiv_pos_site_id
_symmetry_equiv_pos_as_xyz
1 x,y,z
2 1/2+x,1/2+y,z
3 -x,y,1/2-z
4 1/2-x,1/2+y,1/2-z
5 -x,-y,-z
6 1/2-x,1/2-y,-z
7 x,-y,1/2+z
8 1/2+x,1/2-y,1/2+z
_cell_length_a                   16.427(5)
_cell_length_b                   18.645(5)
_cell_length_c                   9.300(3)
_cell_angle_alpha                90
_cell_angle_beta                 94.949(6)
_cell_angle_gamma                90
_cell_volume                     2837.8
loop_
_atom_site_label
_atom_site_type_symbol
_atom_site_fract_x
_atom_site_fract_y
_atom_site_fract_z
Gd1 Gd 0.5000 0.21882(4) 0.2500
Gd2 Gd 0.5000 0.56054(3) 0.7500
N1 N 0.5779(8) 0.1029(6) 0.3113(13)
C1 C 0.6484(11) 0.1063(8) 0.3928(17)
H1 H 0.6760 0.1498 0.4030
C2 C 0.6816(13) 0.0458(11) 0.463(2)
H2 H 0.7330 0.0470 0.5135
C3 C 0.6368(13) -0.0141(11) 0.455(2)
H3 H 0.6532 -0.0528 0.5140
C4 C 0.5691(13) -0.0201(10) 0.366(2)
H4 H 0.5432 -0.0642 0.3529
C5 C 0.5372(8) 0.0409(7) 0.2915(15)
O1 O 0.4251(5) 0.4617(4) 0.6544(8)
O2 O 0.4090(5) 0.4710(4) 0.4173(7)
O3 O 0.4356(5) 0.3314(4) 0.3204(9)
O4 O 0.3492(6) 0.2446(5) 0.2916(11)
C6 C 0.3912(6) 0.4432(5) 0.5358(11)
C7 C 0.3288(7) 0.3861(6) 0.5265(13)
C8 C 0.3011(8) 0.3539(7) 0.3846(14)
H5 H 0.2873 0.3921 0.3158
H6 H 0.2520 0.3261 0.3944
C9 C 0.3645(7) 0.3063(6) 0.3265(12)
C10 C 0.2976(10) 0.3670(8) 0.6438(17)
H7 H 0.3146 0.3892 0.7308
H8 H 0.2581 0.3312 0.6410
O5 O 0.4691(7) 0.1816(5) 0.4928(10)
O6 O 0.5712(6) 0.2548(4) 0.4801(9)
C11 C 0.5253(8) 0.2186(6) 0.5533(12)
C12 C 0.5326(8) 0.2241(6) 0.7172(14)
C13 C 0.5978(18) 0.2275(15) 0.769(3)
H9 H 0.6075 0.2307 0.8688
H10 H 0.6414 0.2271 0.7115
O7 O 0.4144(5) 0.6031(4) 0.5445(8)
Gd1_2 Gd 0.5000 0.21882(4) 1.2500
Gd2F Gd 0.5000 0.43946(3) 0.2500
Gd2_2 Gd 0.5000 0.56054(3) -0.2500
N1B N 0.4221(8) 0.1029(6) 0.1887(13)
C1B C 0.3516(11) 0.1063(8) 0.1072(17)
H1B H 0.3240 0.1498 0.0970
C2B C 0.3184(13) 0.0458(11) 0.037(2)
H2B H 0.2670 0.0470 -0.0135
C3B C 0.3632(13) -0.0141(11) 0.045(2)
H3B H 0.3468 -0.0528 -0.0140
C4B C 0.4309(13) -0.0201(10) 0.134(2)
H4B H 0.4568 -0.0642 0.1471
C5B C 0.4628(8) 0.0409(7) 0.2085(15)
O1B O 0.5749(5) 0.4617(4) -0.1544(8)
O1B_2 O 0.5749(5) 0.4617(4) 0.8456(8)
O2B O 0.5910(5) 0.4710(4) 0.0827(7)
O2F O 0.4090(5) 0.5290(4) 0.9173(7)
O2D O 0.5910(5) 0.5290(4) 0.5827(7)
O3B O 0.5644(5) 0.3314(4) 0.1796(9)
O3F O 0.4356(5) 0.6686(4) 0.8204(9)
O3D O 0.5644(5) 0.6686(4) 0.6796(9)
O4B O 0.6508(6) 0.2446(5) 0.2084(11)
C6B C 0.6088(6) 0.4432(5) -0.0358(11)
C7B C 0.6712(7) 0.3861(6) -0.0265(13)
C8B C 0.6989(8) 0.3539(7) 0.1154(14)
H5B H 0.7127 0.3921 0.1842
H6B H 0.7480 0.3261 0.1056
C9B C 0.6355(7) 0.3063(6) 0.1735(12)
C10B C 0.7024(10) 0.3670(8) -0.1438(17)
H7B H 0.6854 0.3892 -0.2308
H8B H 0.7419 0.3312 -0.1410
O5B O 0.5309(7) 0.1816(5) 1.0072(10)
O5B_2 O 0.5309(7) 0.1816(5) 0.0072(10)
O6B O 0.4288(6) 0.2548(4) 1.0199(9)
O6B_2 O 0.4288(6) 0.2548(4) 0.0199(9)
C11B C 0.4747(8) 0.2186(6) 0.9467(12)
C12B C 0.4674(8) 0.2241(6) 0.7828(14)
C13B C 0.4022(18) 0.2275(15) 0.731(3)
H9B H 0.3925 0.2307 0.6312
H10B H 0.3586 0.2271 0.7885
O7B O 0.5856(5) 0.6031(4) 0.9555(8)
loop_
_geom_bond_atom_site_label_1
_geom_bond_atom_site_label_2
_geom_bond_site_symmetry_1
_geom_bond_site_symmetry_2
Gd1 N1 1_555 1_555
Gd2 O1 1_555 1_555
N1 C1 1_555 1_555
C1 H1 1_555 1_555
C2 C1 1_555 1_555
H2 C2 1_555 1_555
C3 C2 1_555 1_555
H3 C3 1_555 1_555
C4 C3 1_555 1_555
H4 C4 1_555 1_555
C5 N1 1_555 1_555
O1 C6 1_555 1_555
O2 C6 1_555 1_555
O3 Gd1 1_555 1_555
O4 Gd1 1_555 1_555
C6 C7 1_555 1_555
C7 C8 1_555 1_555
C8 H5 1_555 1_555
H6 C8 1_555 1_555
C9 O3 1_555 1_555
C10 C7 1_555 1_555
H7 C10 1_555 1_555
H8 C10 1_555 1_555
O5 Gd1 1_555 1_555
O6 Gd1 1_555 1_555
C11 O5 1_555 1_555
C12 C11 1_555 1_555
C13 C12 1_555 1_555
H9 C13 1_555 1_555
H10 C13 1_555 1_555
O7 Gd2 1_555 1_555
Gd1_2 O5B 1_555 1_555
Gd2F O2 1_555 1_555
Gd2_2 O1B 1_555 1_555
N1B Gd1 1_555 1_555
C1B N1B 1_555 1_555
H1B C1B 1_555 1_555
C2B C1B 1_555 1_555
H2B C2B 1_555 1_555
C3B C2B 1_555 1_555
H3B C3B 1_555 1_555
C4B C3B 1_555 1_555
H4B C4B 1_555 1_555
C5B C5 1_555 1_555
O1B C6B 1_555 1_555
O1B_2 Gd2 1_555 1_555
O2B Gd2F 1_555 1_555
O2F Gd2 1_555 1_555
O2D Gd2 1_555 1_555
O3B Gd1 1_555 1_555
O3F Gd2 1_555 1_555
O3D Gd2 1_555 1_555
O4B Gd1 1_555 1_555
C6B O2B 1_555 1_555
C7B C6B 1_555 1_555
C8B C7B 1_555 1_555
H5B C8B 1_555 1_555
H6B C8B 1_555 1_555
C9B O3B 1_555 1_555
C10B C7B 1_555 1_555
H7B C10B 1_555 1_555
H8B C10B 1_555 1_555
O5B C11B 1_555 1_555
O5B_2 Gd1 1_555 1_555
O6B Gd1_2 1_555 1_555
O6B_2 Gd1 1_555 1_555
C11B O6B 1_555 1_555
C12B C12 1_555 1_555
C13B C12B 1_555 1_555
H9B C13B 1_555 1_555
H10B C13B 1_555 1_555
O7B Gd2 1_555 1_555
C4 C5 1_555 1_555
O3 Gd2F 1_555 1_555
O4 C9 1_555 1_555
C8 C9 1_555 1_555
O6 C11 1_555 1_555
Gd2F O3B 1_555 1_555
N1B C5B 1_555 1_555
C4B C5B 1_555 1_555
O4B C9B 1_555 1_555
C8B C9B 1_555 1_555
C11B C12B 1_555 1_555

#END
