
#######################################################################
#
#                 Cambridge Crystallographic Data Centre
#                                CCDC 
#
#######################################################################
#
# If this CIF has been generated from an entry in the Cambridge 
# Structural Database, then it will include bibliographic, chemical, 
# crystal, experimental, refinement or atomic coordinate data resulting 
# from the CCDC's data processing and validation procedures.
#
#######################################################################

data_LORSAN
_symmetry_cell_setting           triclinic
_symmetry_space_group_name_H-M   'P -1'
_symmetry_Int_Tables_number      2
_space_group_name_Hall           '-P 1'
loop_
_symmetry_equiv_pos_site_id
_symmetry_equiv_pos_as_xyz
1 x,y,z
2 -x,-y,-z
_cell_length_a                   9.5507(19)
_cell_length_b                   12.598(3)
_cell_length_c                   17.582(4)
_cell_angle_alpha                71.60(3)
_cell_angle_beta                 82.32(3)
_cell_angle_gamma                68.39(3)
_cell_volume                     1865.86
loop_
_atom_site_label
_atom_site_type_symbol
_atom_site_fract_x
_atom_site_fract_y
_atom_site_fract_z
Gd1 Gd 0.54142(6) 0.08123(5) 0.07013(3)
Gd2 Gd 0.66903(6) -0.64895(4) 0.49861(3)
N1 N 0.5043(12) 0.1010(10) 0.2137(7)
N2 N 0.4343(13) 0.2964(11) 0.0841(6)
C1 C 0.5467(16) -0.0002(14) 0.2747(7)
H1 H 0.5899 -0.0731 0.2635
C2 C 0.5271(18) 0.0021(15) 0.3536(8)
H2 H 0.5518 -0.0683 0.3954
C3 C 0.4702(19) 0.1114(13) 0.3687(10)
H3 H 0.4511 0.1160 0.4211
C4 C 0.4420(19) 0.2142(16) 0.3049(8)
H4 H 0.4193 0.2876 0.3140
C5 C 0.4477(17) 0.2077(12) 0.2275(8)
C6 C 0.4101(17) 0.3160(12) 0.1558(8)
C7 C 0.341(2) 0.4301(12) 0.1616(11)
H5 H 0.3272 0.4423 0.2120
C8 C 0.292(2) 0.5270(17) 0.0952(9)
H6 H 0.2412 0.6032 0.1004
C9 C 0.322(2) 0.5074(14) 0.0205(12)
H7 H 0.2907 0.5693 -0.0263
C10 C 0.4005(19) 0.3915(11) 0.0189(10)
H8 H 0.4321 0.3786 -0.0308
N3 N 0.7610(14) -0.7852(9) 0.4029(6)
N4 N 0.7684(12) -0.8729(9) 0.5647(6)
C11 C 0.7606(18) -0.7356(13) 0.3233(8)
H9 H 0.7339 -0.6533 0.3022
C12 C 0.800(2) -0.8069(12) 0.2728(10)
H10 H 0.8027 -0.7743 0.2175
C13 C 0.835(2) -0.9282(12) 0.3072(9)
H11 H 0.8563 -0.9766 0.2736
C14 C 0.8412(18) -0.9812(13) 0.3890(8)
H12 H 0.8666 -1.0631 0.4115
C15 C 0.8068(16) -0.9038(10) 0.4355(8)
C16 C 0.8083(16) -0.9551(9) 0.5252(8)
C17 C 0.8522(19) -1.0763(11) 0.5631(9)
H13 H 0.8791 -1.1307 0.5336
C18 C 0.8552(19) -1.1143(12) 0.6455(8)
H14 H 0.8832 -1.1953 0.6725
C19 C 0.8166(18) -1.0320(10) 0.6881(9)
H15 H 0.8182 -1.0560 0.7439
C20 C 0.7754(16) -0.9128(10) 0.6451(7)
H16 H 0.7511 -0.8570 0.6734
O1 O 0.8799(9) -0.6941(8) 0.5862(5)
O2 O 0.9238(9) -0.6483(8) 0.4540(4)
O3 O 1.3706(9) -0.5375(6) 0.4844(5)
O4 O 1.4711(8) -0.7276(6) 0.4863(6)
C21 C 0.9695(9) -0.6616(11) 0.5252(5)
C22 C 1.1234(8) -0.6718(6) 0.5386(5)
C23 C 1.1988(8) -0.6296(9) 0.4617(5)
H17 H 1.2071 -0.6806 0.4287
H18 H 1.1346 -0.5498 0.4340
C24 C 1.3522(9) -0.6268(7) 0.4678(7)
C25 C 1.1760(14) -0.7136(12) 0.6109(6)
H19 H 1.1162 -0.7373 0.6544
H20 H 1.2733 -0.7198 0.6189
O5 O 0.5250(12) -0.1058(8) 0.1445(5)
O6 O 0.5017(12) -0.2025(8) 0.0628(4)
O7 O 0.6075(9) -0.5320(6) 0.3922(4)
O8 O 0.4443(10) -0.3423(7) 0.3765(5)
C26 C 0.5085(19) -0.2033(10) 0.1380(5)
C27 C 0.4528(16) -0.2844(12) 0.2068(6)
H21 H 0.3854 -0.2388 0.2407
H22 H 0.3969 -0.3202 0.1868
C28 C 0.5837(19) -0.3810(14) 0.2552(6)
C29 C 0.5567(15) -0.4161(9) 0.3437(5)
C30 C 0.712(2) -0.428(2) 0.2179(12)
H23 H 0.7934 -0.4868 0.2475
H24 H 0.7205 -0.4011 0.1624
O9 O 0.7881(9) -0.0298(8) 0.1379(5)
O10 O 0.7551(8) 0.1484(7) 0.0479(5)
O11 O 1.3230(8) 0.0445(7) 0.0087(5)
O12 O 1.2615(9) 0.1472(8) 0.0960(5)
C31 C 0.8501(8) 0.0477(7) 0.0917(5)
C32 C 1.0092(8) 0.0311(7) 0.0992(5)
C33 C 1.0502(8) 0.1281(8) 0.0410(6)
H25 H 1.0250 0.1323 -0.0118
H26 H 0.9862 0.2021 0.0518
C34 C 1.2035(9) 0.1239(8) 0.0370(6)
C35 C 1.0973(14) -0.0594(11) 0.1516(8)
H27 H 1.1972 -0.0669 0.1545
H28 H 1.0603 -0.1165 0.1861
Gd1A Gd 0.45858(6) -0.08123(5) -0.07013(3)
Gd1_2 Gd 1.54142(6) 0.08123(5) 0.07013(3)
Gd1A_2 Gd 1.45858(6) -0.08123(5) -0.07013(3)
Gd2_2 Gd 1.66903(6) -0.64895(4) 0.49861(3)
Gd2A Gd 1.33097(6) -0.35105(4) 0.50139(3)
Gd2A_2 Gd 0.33097(6) -0.35105(4) 0.50139(3)
O3_2 O 0.3706(9) -0.5375(6) 0.4844(5)
O3A O 0.6294(9) -0.4625(6) 0.5156(5)
O4_2 O 0.4711(8) -0.7276(6) 0.4863(6)
O6A O 0.4983(12) 0.2025(8) -0.0628(4)
O8A O 0.5557(10) -0.6577(7) 0.6235(5)
O11_2 O 0.3230(8) 0.0445(7) 0.0087(5)
O11A O 0.6770(8) -0.0445(7) -0.0087(5)
O12_2 O 0.2615(9) 0.1472(8) 0.0960(5)
O13 O 0.066(2) 0.2802(13) -0.1664(11)
O14 O -0.034(2) 0.5836(17) -0.2922(11)
O15 O -0.157(2) 0.3996(15) -0.2784(10)
O16 O -0.024(2) 0.648(2) -0.1446(18)
loop_
_geom_bond_atom_site_label_1
_geom_bond_atom_site_label_2
_geom_bond_site_symmetry_1
_geom_bond_site_symmetry_2
Gd1 N1 1_555 1_555
Gd2 N3 1_555 1_555
N1 C1 1_555 1_555
N2 Gd1 1_555 1_555
C1 H1 1_555 1_555
C2 C1 1_555 1_555
H2 C2 1_555 1_555
C3 C2 1_555 1_555
H3 C3 1_555 1_555
C4 C3 1_555 1_555
H4 C4 1_555 1_555
C5 N1 1_555 1_555
C6 N2 1_555 1_555
C7 C6 1_555 1_555
H5 C7 1_555 1_555
C8 C7 1_555 1_555
H6 C8 1_555 1_555
C9 C8 1_555 1_555
H7 C9 1_555 1_555
C10 N2 1_555 1_555
H8 C10 1_555 1_555
N3 C11 1_555 1_555
N4 Gd2 1_555 1_555
C11 H9 1_555 1_555
C12 C11 1_555 1_555
H10 C12 1_555 1_555
C13 C12 1_555 1_555
H11 C13 1_555 1_555
C14 C13 1_555 1_555
H12 C14 1_555 1_555
C15 N3 1_555 1_555
C16 N4 1_555 1_555
C17 C16 1_555 1_555
H13 C17 1_555 1_555
C18 C17 1_555 1_555
H14 C18 1_555 1_555
C19 C18 1_555 1_555
H15 C19 1_555 1_555
C20 N4 1_555 1_555
H16 C20 1_555 1_555
O1 Gd2 1_555 1_555
O2 Gd2 1_555 1_555
O3 C24 1_555 1_555
O4 C24 1_555 1_555
C21 O1 1_555 1_555
C22 C21 1_555 1_555
C23 C22 1_555 1_555
H17 C23 1_555 1_555
H18 C23 1_555 1_555
C24 C23 1_555 1_555
C25 C22 1_555 1_555
H19 C25 1_555 1_555
H20 C25 1_555 1_555
O5 Gd1 1_555 1_555
O6 C26 1_555 1_555
O7 Gd2 1_555 1_555
O8 C29 1_555 1_555
C26 O5 1_555 1_555
C27 C26 1_555 1_555
H21 C27 1_555 1_555
H22 C27 1_555 1_555
C28 C27 1_555 1_555
C29 O7 1_555 1_555
C30 C28 1_555 1_555
H23 C30 1_555 1_555
H24 C30 1_555 1_555
O9 Gd1 1_555 1_555
O10 Gd1 1_555 1_555
O11 C34 1_555 1_555
O12 C34 1_555 1_555
C31 O9 1_555 1_555
C32 C31 1_555 1_555
C33 C32 1_555 1_555
H25 C33 1_555 1_555
H26 C33 1_555 1_555
C34 C33 1_555 1_555
C35 C32 1_555 1_555
H27 C35 1_555 1_555
H28 C35 1_555 1_555
Gd1A O6 1_555 1_555
Gd1_2 O11 1_555 1_555
Gd1A_2 O11 1_555 1_555
Gd2_2 O3 1_555 1_555
Gd2A O3 1_555 1_555
Gd2A_2 O8 1_555 1_555
O3_2 Gd2 1_555 1_555
O3A Gd2 1_555 1_555
O4_2 Gd2 1_555 1_555
O6A Gd1 1_555 1_555
O8A Gd2 1_555 1_555
O11_2 Gd1 1_555 1_555
O11A Gd1 1_555 1_555
O12_2 Gd1 1_555 1_555
C4 C5 1_555 1_555
C5 C6 1_555 1_555
C9 C10 1_555 1_555
C14 C15 1_555 1_555
C15 C16 1_555 1_555
C19 C20 1_555 1_555
O2 C21 1_555 1_555
O4 Gd2_2 1_555 1_555
C28 C29 1_555 1_555
O10 C31 1_555 1_555
O12 Gd1_2 1_555 1_555
Gd1A O11_2 1_555 1_555
Gd1A O11A 1_555 1_555
Gd2A_2 O3_2 1_555 1_555
Gd2A_2 O3A 1_555 1_555

#END
