
#######################################################################
#
#                 Cambridge Crystallographic Data Centre
#                                CCDC 
#
#######################################################################
#
# If this CIF has been generated from an entry in the Cambridge 
# Structural Database, then it will include bibliographic, chemical, 
# crystal, experimental, refinement or atomic coordinate data resulting 
# from the CCDC's data processing and validation procedures.
#
#######################################################################

data_LORTET
_symmetry_cell_setting           monoclinic
_symmetry_space_group_name_H-M   'P 21/c'
_symmetry_Int_Tables_number      14
_space_group_name_Hall           '-P 2ybc'
loop_
_symmetry_equiv_pos_site_id
_symmetry_equiv_pos_as_xyz
1 x,y,z
2 -x,1/2+y,1/2-z
3 -x,-y,-z
4 x,1/2-y,1/2+z
_cell_length_a                   7.545(5)
_cell_length_b                   19.699(5)
_cell_length_c                   16.739(5)
_cell_angle_alpha                90
_cell_angle_beta                 90.339(5)
_cell_angle_gamma                90
_cell_volume                     2487.86
loop_
_atom_site_label
_atom_site_type_symbol
_atom_site_fract_x
_atom_site_fract_y
_atom_site_fract_z
Zn1 Zn 0.45652(4) -0.086281(14) 0.248775(17)
O1 O -0.2938(2) -0.38055(9) -0.22336(11)
O2 O -0.5076(2) -0.32992(10) -0.15664(12)
O3 O 0.4223(3) -0.14814(11) 0.13229(13)
O4 O 0.2075(2) -0.11163(10) 0.20982(11)
N1 N 0.3922(3) -0.01535(11) 0.33789(13)
C1 C -0.3451(3) -0.33920(12) -0.17016(15)
N2 N 0.5216(3) 0.00466(11) 0.19003(13)
C2 C 0.5105(4) 0.18229(15) 0.2654(2)
H1 H 0.5397 0.2260 0.2491
C3 C 0.4270(4) 0.04930(13) 0.31578(17)
C4 C 0.5394(4) 0.12616(14) 0.21235(19)
C5 C 0.3254(5) -0.02645(16) 0.40959(18)
H2 H 0.3014 -0.0709 0.4250
C6 C 0.4972(4) 0.05984(13) 0.23670(16)
C7 C 0.6294(4) 0.07777(16) 0.0871(2)
H3 H 0.6724 0.0824 0.0354
C8 C 0.5864(4) 0.01368(15) 0.11732(17)
H4 H 0.6039 -0.0242 0.0851
C9 C 0.2895(6) 0.0264(2) 0.4631(2)
H5 H 0.2417 0.0171 0.5130
C10 C 0.3255(6) 0.09180(18) 0.4411(2)
H6 H 0.3022 0.1273 0.4761
C11 C 0.6075(4) 0.13353(16) 0.1346(2)
H7 H 0.6375 0.1764 0.1156
C12 C 0.3974(4) 0.10536(15) 0.3659(2)
C13 C 0.4417(5) 0.17237(16) 0.3384(2)
H8 H 0.4225 0.2094 0.3716
C14 C -0.0599(3) -0.16046(12) 0.10652(15)
H9 H -0.0948 -0.1342 0.1498
C15 C 0.2601(3) -0.14312(12) 0.14777(15)
C16 C 0.1235(3) -0.17306(12) 0.09300(15)
C17 C 0.0500(3) -0.24278(12) -0.02214(15)
C18 C -0.1844(3) -0.18706(13) 0.05580(15)
H10 H -0.3038 -0.1777 0.0640
C19 C -0.1335(3) -0.22894(12) -0.00956(14)
C20 C 0.1756(3) -0.21307(12) 0.03029(15)
H11 H 0.2957 -0.2208 0.0221
C21 C -0.2600(3) -0.25939(12) -0.06104(14)
H12 H -0.3798 -0.2499 -0.0543
C22 C -0.0248(3) -0.31625(12) -0.13381(15)
H13 H 0.0099 -0.3451 -0.1749
C23 C 0.0999(3) -0.28667(12) -0.08578(15)
H14 H 0.2193 -0.2953 -0.0947
C24 C -0.2078(3) -0.30300(12) -0.12111(14)
Zn1C Zn -0.54348(4) -0.413719(14) -0.251225(17)
O1C O 0.7062(2) -0.11945(9) 0.27664(11)
O2C O 0.4924(2) -0.17008(10) 0.34336(12)
C25 C -0.0568(5) 0.03384(18) 0.2852(3)
H15 H -0.0725 -0.0130 0.2870
C26 C 0.0107(5) 0.0651(2) 0.2140(2)
N3 N 0.0420(5) 0.0219(2) 0.1494(2)
C27 C 0.0303(5) 0.1347(2) 0.2129(3)
H16 H 0.0730 0.1560 0.1674
C28 C 0.1218(6) 0.0472(3) 0.0778(3)
H17 H 0.1339 0.0109 0.0400
H18 H 0.2366 0.0656 0.0902
H19 H 0.0483 0.0822 0.0553
C29 C -0.0701(8) 0.1446(3) 0.3431(3)
H20 H -0.0943 0.1726 0.3865
C30 C -0.0973(7) 0.0719(3) 0.3493(3)
H21 H -0.1411 0.0524 0.3957
C31 C -0.0109(6) 0.1711(2) 0.2759(3)
H22 H 0.0023 0.2180 0.2730
loop_
_geom_bond_atom_site_label_1
_geom_bond_atom_site_label_2
_geom_bond_site_symmetry_1
_geom_bond_site_symmetry_2
Zn1 O3 1_555 1_555
O1 C1 1_555 1_555
O2 C1 1_555 1_555
O3 C15 1_555 1_555
O4 Zn1 1_555 1_555
N1 Zn1 1_555 1_555
C1 C24 1_555 1_555
N2 Zn1 1_555 1_555
C2 H1 1_555 1_555
C3 N1 1_555 1_555
C4 C2 1_555 1_555
C5 N1 1_555 1_555
H2 C5 1_555 1_555
C6 N2 1_555 1_555
C7 H3 1_555 1_555
C8 N2 1_555 1_555
H4 C8 1_555 1_555
C9 C5 1_555 1_555
H5 C9 1_555 1_555
C10 C9 1_555 1_555
H6 C10 1_555 1_555
C11 C4 1_555 1_555
H7 C11 1_555 1_555
C12 C3 1_555 1_555
C13 C2 1_555 1_555
H8 C13 1_555 1_555
C14 H9 1_555 1_555
C15 O4 1_555 1_555
C16 C14 1_555 1_555
C17 C19 1_555 1_555
C18 C14 1_555 1_555
H10 C18 1_555 1_555
C19 C18 1_555 1_555
C20 C16 1_555 1_555
H11 C20 1_555 1_555
C21 C19 1_555 1_555
H12 C21 1_555 1_555
C22 H13 1_555 1_555
C23 C17 1_555 1_555
H14 C23 1_555 1_555
C24 C21 1_555 1_555
C25 H15 1_555 1_555
C26 C25 1_555 1_555
N3 C26 1_555 1_555
C27 C26 1_555 1_555
H16 C27 1_555 1_555
C28 N3 1_555 1_555
H17 C28 1_555 1_555
H18 C28 1_555 1_555
H19 C28 1_555 1_555
C29 H20 1_555 1_555
C30 C25 1_555 1_555
H21 C30 1_555 1_555
C31 C27 1_555 1_555
H22 C31 1_555 1_555
Zn1C O1 1_555 1_555
O1C Zn1 1_555 1_555
O2C Zn1 1_555 1_555
O2 Zn1C 1_555 1_555
C3 C6 1_555 1_555
C4 C6 1_555 1_555
C7 C8 1_555 1_555
C7 C11 1_555 1_555
C10 C12 1_555 1_555
C12 C13 1_555 1_555
C15 C16 1_555 1_555
C17 C20 1_555 1_555
C22 C23 1_555 1_555
C22 C24 1_555 1_555
C29 C30 1_555 1_555
C29 C31 1_555 1_555

#END
