
#######################################################################
#
#                 Cambridge Crystallographic Data Centre
#                                CCDC 
#
#######################################################################
#
# If this CIF has been generated from an entry in the Cambridge 
# Structural Database, then it will include bibliographic, chemical, 
# crystal, experimental, refinement or atomic coordinate data resulting 
# from the CCDC's data processing and validation procedures.
#
#######################################################################

data_LORTOD
_symmetry_cell_setting           orthorhombic
_symmetry_space_group_name_H-M   'P c 21 b'
_symmetry_Int_Tables_number      29
_space_group_name_Hall           'P -2bc -2c'
loop_
_symmetry_equiv_pos_site_id
_symmetry_equiv_pos_as_xyz
1 x,y,z
2 -x,1/2+y,-z
3 -x,y,1/2+z
4 x,1/2+y,1/2-z
_cell_length_a                   7.991(5)
_cell_length_b                   17.376(5)
_cell_length_c                   19.323(4)
_cell_angle_alpha                90
_cell_angle_beta                 90
_cell_angle_gamma                90
_cell_volume                     2683.03
loop_
_atom_site_label
_atom_site_type_symbol
_atom_site_fract_x
_atom_site_fract_y
_atom_site_fract_z
C1 C 0.5474(4) 0.14456(18) 0.15956(14)
C2 C 0.5328(4) 0.39963(17) 0.03314(15)
H1 H 0.5511 0.4188 0.0786
C3 C 0.5887(4) 0.44292(19) -0.02332(18)
H2 H 0.6427 0.4909 -0.0159
C4 C 0.5657(4) 0.4164(2) -0.08888(18)
H3 H 0.6052 0.4451 -0.1274
C5 C 0.4828(4) 0.34577(19) -0.09901(14)
C6 C 0.4480(4) 0.3134(2) -0.16588(16)
H4 H 0.4888 0.3385 -0.2062
C7 C 0.3591(4) 0.2484(3) -0.17253(14)
H5 H 0.3347 0.2295 -0.2175
C8 C 0.2999(4) 0.20685(19) -0.11325(16)
C9 C 0.2062(4) 0.1391(2) -0.11660(18)
H6 H 0.1766 0.1182 -0.1603
C10 C 0.1569(4) 0.10288(19) -0.05739(18)
H7 H 0.0921 0.0571 -0.0597
C11 C 0.2028(4) 0.13382(17) 0.00706(17)
H8 H 0.1695 0.1080 0.0482
C12 C 0.3387(3) 0.23518(16) -0.04649(14)
C13 C 0.4285(3) 0.30620(16) -0.03952(14)
C14 C 0.8593(4) 0.12629(19) 0.17802(17)
H9 H 0.8782 0.1732 0.1540
C15 C 0.9921(4) 0.08506(17) 0.20261(14)
H10 H 1.1028 0.1032 0.1954
C16 C 0.9653(3) 0.01517(17) 0.23895(14)
C17 C 1.1012(3) -0.03002(17) 0.26352(14)
H11 H 1.2129 -0.0127 0.2571
C18 C 1.0714(3) -0.09878(16) 0.29662(14)
C19 C 0.6926(4) 0.09936(16) 0.18811(14)
C20 C 0.9056(4) -0.12440(18) 0.30863(15)
H12 H 0.8862 -0.1716 0.3321
C21 C 0.7736(3) -0.08084(16) 0.28636(14)
H13 H 0.6626 -0.0977 0.2954
C22 C 0.7997(3) -0.01121(15) 0.25009(15)
C23 C 0.6646(3) 0.03297(17) 0.22342(14)
H14 H 0.5530 0.0158 0.2304
C24 C 1.2182(3) -0.14526(17) 0.32203(14)
N1 N 0.2916(3) 0.19818(14) 0.01198(12)
N2 N 0.4551(3) 0.33268(13) 0.02533(11)
O1 O 1.3629(3) -0.12045(14) 0.31827(12)
O2 O 1.1804(3) -0.21117(12) 0.34893(11)
O3 O 0.5812(3) 0.21310(12) 0.13954(11)
O4 O 0.4047(3) 0.11560(15) 0.15590(12)
Zn1 Zn 0.37614(4) 0.25467(3) 0.100479(13)
O2C O 0.1804(3) 0.28883(12) 0.15107(11)
Zn1C Zn 1.37614(4) -0.24533(3) 0.399521(13)
C25 C 0.8522(4) 0.2567(3) -0.01039(15)
H15 H 0.8137 0.2265 0.0274
C26 C 0.8279(7) 0.2372(4) -0.0756(3)
C27 C 0.8920(4) 0.2721(2) -0.13250(16)
H16 H 0.8746 0.2518 -0.1776
C28 C 0.9910(8) 0.3436(4) -0.1209(3)
H17 H 1.0333 0.3737 -0.1580
C29 C 1.0170(4) 0.3628(2) -0.05300(15)
C30 C 0.9509(8) 0.3345(4) -0.0010(3)
H18 H 0.9593 0.3587 0.0430
C31 C 1.1108(8) 0.4500(4) -0.0460(4)
H19 H 1.1566 0.4651 -0.0911
H20 H 1.2017 0.4470 -0.0120
H21 H 1.0286 0.4883 -0.0309
C32 C 0.6959(9) 0.1224(5) -0.0262(4)
H22 H 0.7030 0.1574 0.0135
H23 H 0.7790 0.0814 -0.0210
H24 H 0.5836 0.0999 -0.0283
C33 C 0.7269(10) 0.1343(5) -0.1515(4)
H25 H 0.7510 0.1742 -0.1860
H26 H 0.6164 0.1121 -0.1607
H27 H 0.8121 0.0938 -0.1544
N3 N 0.7287(4) 0.1648(2) -0.08942(19)
H28? H 0.8628 0.2772 0.0349
C34? C 0.9157(7) 0.2891(4) -0.0654(3)
H29? H 0.9356 0.3033 -0.1686
C35? C 0.7934(8) 0.2012(4) -0.1467(3)
H30? H 0.7763 0.1823 -0.1923
C36? C 0.7287(4) 0.1648(2) -0.08942(19)
C37? C 0.7556(8) 0.1794(4) -0.0272(3)
H31? H 0.7198 0.1456 0.0085
C38? C 0.6338(9) 0.0813(4) -0.1106(5)
H32? H 0.6208 0.0783 -0.1610
H33? H 0.5234 0.0790 -0.0886
H34? H 0.7021 0.0380 -0.0946
C39? C 1.0390(9) 0.4119(4) -0.1032(3)
H35? H 1.0280 0.3854 -0.1477
H36? H 1.1510 0.4346 -0.0996
H37? H 0.9546 0.4527 -0.1000
C40? C 1.0238(8) 0.3823(4) 0.0198(3)
H38? H 1.0035 0.3361 0.0475
H39? H 0.9380 0.4209 0.0302
H40? H 1.1345 0.4032 0.0309
N4? N 1.0170(4) 0.3628(2) -0.05300(15)
loop_
_geom_bond_atom_site_label_1
_geom_bond_atom_site_label_2
_geom_bond_site_symmetry_1
_geom_bond_site_symmetry_2
C1 C19 1_555 1_555
C2 H1 1_555 1_555
C3 C2 1_555 1_555
H2 C3 1_555 1_555
C4 C3 1_555 1_555
H3 C4 1_555 1_555
C5 C4 1_555 1_555
C6 C5 1_555 1_555
H4 C6 1_555 1_555
C7 C6 1_555 1_555
H5 C7 1_555 1_555
C8 C7 1_555 1_555
C9 C8 1_555 1_555
H6 C9 1_555 1_555
C10 C9 1_555 1_555
H7 C10 1_555 1_555
C11 C10 1_555 1_555
H8 C11 1_555 1_555
C12 C8 1_555 1_555
C13 C5 1_555 1_555
C14 H9 1_555 1_555
C15 C14 1_555 1_555
H10 C15 1_555 1_555
C16 C15 1_555 1_555
C17 C16 1_555 1_555
H11 C17 1_555 1_555
C18 C17 1_555 1_555
C19 C14 1_555 1_555
C20 C18 1_555 1_555
H12 C20 1_555 1_555
C21 C20 1_555 1_555
H13 C21 1_555 1_555
C22 C16 1_555 1_555
C23 C19 1_555 1_555
H14 C23 1_555 1_555
C24 C18 1_555 1_555
N1 C11 1_555 1_555
N2 C2 1_555 1_555
O1 C24 1_555 1_555
O2 C24 1_555 1_555
O3 C1 1_555 1_555
O4 C1 1_555 1_555
Zn1 N1 1_555 1_555
C25 H15 1_555 1_555
C26 C25 1_555 1_555
C27 C26 1_555 1_555
H16 C27 1_555 1_555
C28 C27 1_555 1_555
H17 C28 1_555 1_555
C29 C28 1_555 1_555
C30 C25 1_555 1_555
H18 C30 1_555 1_555
C31 C29 1_555 1_555
H19 C31 1_555 1_555
H20 C31 1_555 1_555
H21 C31 1_555 1_555
C32 H22 1_555 1_555
H23 C32 1_555 1_555
H24 C32 1_555 1_555
C33 H25 1_555 1_555
H26 C33 1_555 1_555
H27 C33 1_555 1_555
N3 C26 1_555 1_555
O2C Zn1 1_555 1_555
Zn1C O2 1_555 1_555
C12 C13 1_555 1_555
C12 N1 1_555 1_555
C13 N2 1_555 1_555
C21 C22 1_555 1_555
C22 C23 1_555 1_555
N2 Zn1 1_555 1_555
O3 Zn1 1_555 1_555
C29 C30 1_555 1_555
C32 N3 1_555 1_555
C33 N3 1_555 1_555

#END
