
#######################################################################
#
#                 Cambridge Crystallographic Data Centre
#                                CCDC 
#
#######################################################################
#
# If this CIF has been generated from an entry in the Cambridge 
# Structural Database, then it will include bibliographic, chemical, 
# crystal, experimental, refinement or atomic coordinate data resulting 
# from the CCDC's data processing and validation procedures.
#
#######################################################################

data_LOSCOM
_symmetry_cell_setting           monoclinic
_symmetry_space_group_name_H-M   'P 21/c'
_symmetry_Int_Tables_number      14
_space_group_name_Hall           '-P 2ybc'
loop_
_symmetry_equiv_pos_site_id
_symmetry_equiv_pos_as_xyz
1 x,y,z
2 -x,1/2+y,1/2-z
3 -x,-y,-z
4 x,1/2-y,1/2+z
_cell_length_a                   14.866(3)
_cell_length_b                   6.6043(13)
_cell_length_c                   7.3081(15)
_cell_angle_alpha                90
_cell_angle_beta                 100.94(3)
_cell_angle_gamma                90
_cell_volume                     704.466
loop_
_atom_site_label
_atom_site_type_symbol
_atom_site_fract_x
_atom_site_fract_y
_atom_site_fract_z
Co1 Co 0.5000 0.0000 0.5000
O1 O 0.60194(11) 0.0944(2) 0.7171(2)
O2 O 0.56707(11) -0.2799(2) 0.5136(2)
H1 H 0.5729 -0.3586 0.6071
H2 H 0.5482 -0.3444 0.4130
O3 O 0.57083(10) 0.4125(2) 0.7851(2)
F1 F 0.98672(12) 0.3394(4) 1.1685(3)
C1 C 0.62472(14) 0.2606(3) 0.7934(3)
C2 C 0.72091(14) 0.2833(4) 0.8984(3)
C3 C 0.75685(19) 0.4727(4) 0.9486(4)
H3 H 0.7203 0.5873 0.9217
C4 C 0.8473(2) 0.4922(5) 1.0391(5)
H4 H 0.8725 0.6190 1.0720
C5 C 0.89849(18) 0.3206(5) 1.0786(4)
C6 C 0.86542(18) 0.1311(5) 1.0332(4)
H5 H 0.9021 0.0173 1.0633
C7 C 0.77507(17) 0.1134(4) 0.9404(4)
H6 H 0.7509 -0.0139 0.9063
Co1A Co 0.5000 0.5000 1.0000
Co1A_2 Co 0.5000 -0.5000 1.0000
O1A O 0.39806(11) -0.4056(2) 0.7829(2)
O1B O 0.39806(11) -0.0944(2) 0.2829(2)
O2B O 0.43293(11) 0.2799(2) 0.4864(2)
H1B H 0.4271 0.3586 0.3929
H2B H 0.4518 0.3444 0.5870
O3A O 0.42917(10) -0.0875(2) 0.7149(2)
O3C O 0.57083(10) 0.0875(2) 0.2851(2)
F1A F 0.01328(12) -0.1606(4) 0.3315(3)
C1A C 0.37528(14) -0.2394(3) 0.7066(3)
C2A C 0.27909(14) -0.2167(4) 0.6016(3)
C3A C 0.24315(19) -0.0273(4) 0.5514(4)
H3A H 0.2797 0.0873 0.5783
C4A C 0.1527(2) -0.0078(5) 0.4609(5)
H4A H 0.1275 0.1190 0.4280
C5A C 0.10151(18) -0.1794(5) 0.4214(4)
C6A C 0.13458(18) -0.3689(5) 0.4668(4)
H5A H 0.0979 -0.4827 0.4367
C7A C 0.22493(17) -0.3866(4) 0.5596(4)
H6A H 0.2491 -0.5139 0.5937
loop_
_geom_bond_atom_site_label_1
_geom_bond_atom_site_label_2
_geom_bond_site_symmetry_1
_geom_bond_site_symmetry_2
Co1 O1 1_555 1_555
O1 C1 1_555 1_555
O2 Co1 1_555 1_555
H1 O2 1_555 1_555
H2 O2 1_555 1_555
O3 C1 1_555 1_555
F1 C5 1_555 1_555
C1 C2 1_555 1_555
C2 C3 1_555 1_555
C3 H3 1_555 1_555
C4 C3 1_555 1_555
H4 C4 1_555 1_555
C5 C4 1_555 1_555
C6 C5 1_555 1_555
H5 C6 1_555 1_555
C7 C2 1_555 1_555
H6 C7 1_555 1_555
Co1A O3 1_555 1_555
Co1A_2 O1A 1_555 1_555
O1A C1A 1_555 1_555
O1B Co1 1_555 1_555
O2B Co1 1_555 1_555
H1B O2B 1_555 1_555
H2B O2B 1_555 1_555
O3A Co1 1_555 1_555
O3C Co1 1_555 1_555
F1A C5A 1_555 1_555
C1A O3A 1_555 1_555
C2A C1A 1_555 1_555
C3A C2A 1_555 1_555
H3A C3A 1_555 1_555
C4A C3A 1_555 1_555
H4A C4A 1_555 1_555
C5A C4A 1_555 1_555
C6A C5A 1_555 1_555
H5A C6A 1_555 1_555
C7A C2A 1_555 1_555
H6A C7A 1_555 1_555
C6 C7 1_555 1_555
C6A C7A 1_555 1_555

#END
