
#######################################################################
#
#                 Cambridge Crystallographic Data Centre
#                                CCDC 
#
#######################################################################
#
# If this CIF has been generated from an entry in the Cambridge 
# Structural Database, then it will include bibliographic, chemical, 
# crystal, experimental, refinement or atomic coordinate data resulting 
# from the CCDC's data processing and validation procedures.
#
#######################################################################

data_LOSGOR01
_symmetry_cell_setting           monoclinic
_symmetry_space_group_name_H-M   'P 21'
_symmetry_Int_Tables_number      4
_space_group_name_Hall           'P 2yb'
loop_
_symmetry_equiv_pos_site_id
_symmetry_equiv_pos_as_xyz
1 x,y,z
2 -x,1/2+y,-z
_cell_length_a                   8.3819(11)
_cell_length_b                   5.7198(7)
_cell_length_c                   9.3376(12)
_cell_angle_alpha                90
_cell_angle_beta                 115.150(3)
_cell_angle_gamma                90
_cell_volume                     405.231
loop_
_atom_site_label
_atom_site_type_symbol
_atom_site_fract_x
_atom_site_fract_y
_atom_site_fract_z
N1 N 0.0684(3) 0.1960(3) -0.2886(3)
C1 C 0.1376(3) 0.2812(5) -0.1414(3)
N2 N 0.1328(3) 0.5136(4) -0.1416(3)
N3 N 0.02058(17) 0.3858(5) -0.38330(14)
N4 N 0.0606(3) 0.5737(4) -0.2950(3)
C2 C 0.2086(3) 0.1324(4) 0.0045(2)
H1 H 0.2694 -0.0016 -0.0124
H2 H 0.1117 0.0751 0.0256
C3 C 0.2724(3) 0.4114(7) 0.2296(2)
H3 H 0.1527 0.4159 0.2053
C4 C 0.3333(3) 0.2688(4) 0.1445(2)
C5 C 0.3899(3) 0.5480(6) 0.3512(3)
H4 H 0.3507 0.6457 0.4092
C6 C 0.5669(3) 0.5357(5) 0.3843(3)
H5 H 0.6453 0.6313 0.4635
N5 N 0.62974(19) 0.3939(6) 0.30861(18)
C7 C 0.5134(3) 0.2620(4) 0.1912(2)
H6 H 0.5568 0.1604 0.1385
Cu1 Cu 0.90701(3) 0.38503(10) 0.37623(2)
N1A N 0.9316(3) 0.6960(3) 0.2886(3)
N3_2 N 1.02058(17) 0.3858(5) 0.61670(14)
N4A N 0.9394(3) 0.0737(4) 0.2950(3)
Cu1_2 Cu -0.09299(3) 0.38503(10) -0.62377(2)
Cu1A Cu 0.09299(3) -0.11497(10) -0.37623(2)
Cu1A_2 Cu 0.09299(3) 0.88503(10) -0.37623(2)
loop_
_geom_bond_atom_site_label_1
_geom_bond_atom_site_label_2
_geom_bond_site_symmetry_1
_geom_bond_site_symmetry_2
N1 C1 1_555 1_555
C1 N2 1_555 1_555
N2 N4 1_555 1_555
N3 N1 1_555 1_555
N4 N3 1_555 1_555
C2 C1 1_555 1_555
H1 C2 1_555 1_555
H2 C2 1_555 1_555
C3 H3 1_555 1_555
C4 C2 1_555 1_555
C5 C3 1_555 1_555
H4 C5 1_555 1_555
C6 C5 1_555 1_555
H5 C6 1_555 1_555
N5 C6 1_555 1_555
C7 C4 1_555 1_555
H6 C7 1_555 1_555
Cu1 N5 1_555 1_555
N1A Cu1 1_555 1_555
N3_2 Cu1 1_555 1_555
N4A Cu1 1_555 1_555
Cu1_2 N3 1_555 1_555
Cu1A N1 1_555 1_555
Cu1A_2 N4 1_555 1_555
C3 C4 1_555 1_555
N5 C7 1_555 1_555

#END
