
#######################################################################
#
#                 Cambridge Crystallographic Data Centre
#                                CCDC 
#
#######################################################################
#
# If this CIF has been generated from an entry in the Cambridge 
# Structural Database, then it will include bibliographic, chemical, 
# crystal, experimental, refinement or atomic coordinate data resulting 
# from the CCDC's data processing and validation procedures.
#
#######################################################################

data_LOSGEH
_symmetry_cell_setting           triclinic
_symmetry_space_group_name_H-M   'P -1'
_symmetry_Int_Tables_number      2
_space_group_name_Hall           '-P 1'
loop_
_symmetry_equiv_pos_site_id
_symmetry_equiv_pos_as_xyz
1 x,y,z
2 -x,-y,-z
_cell_length_a                   9.4625(3)
_cell_length_b                   10.8617(4)
_cell_length_c                   10.8624(4)
_cell_angle_alpha                61.068(2)
_cell_angle_beta                 79.796(2)
_cell_angle_gamma                71.950(2)
_cell_volume                     928.504
loop_
_atom_site_label
_atom_site_type_symbol
_atom_site_fract_x
_atom_site_fract_y
_atom_site_fract_z
Cd1 Cd 1.0000 0.0000 0.0000
Cd2 Cd 0.69887(4) 0.81586(4) -0.89661(4)
N1 N 0.7714(6) 0.5742(5) -0.7272(5)
N2 N 0.7444(6) -0.0970(5) 0.2456(5)
N3 N 0.8511(5) -0.0283(5) 0.2068(5)
N4 N 0.8669(6) 0.0030(5) 0.3076(5)
N5 N 0.6868(6) -0.1104(6) 0.3718(5)
C1 C 0.5219(9) -0.2939(8) 0.8087(8)
H1 H 0.4572 -0.3465 0.8156
N6 N 0.5943(6) 0.2832(5) -0.2637(5)
N7 N 0.7831(5) 0.1305(5) -0.1314(5)
N8 N 0.6652(5) 0.0747(5) -0.0807(4)
N9 N 0.5513(5) 0.1661(5) -0.1604(5)
N10 N 0.9466(5) -0.2015(5) 0.0234(5)
N11 N 1.0453(6) -0.3069(6) 0.0344(6)
N12 N 1.1410(9) -0.4060(8) 0.0442(9)
N13 N 0.6545(6) -0.2249(5) 0.9212(5)
C2 C 0.7342(6) 0.2590(6) -0.2432(5)
C3 C 0.7665(7) -0.0492(6) 0.4068(6)
C4 C 0.7456(9) -0.0313(8) 0.5369(7)
H2 H 0.6813 0.0653 0.5146
H3 H 0.8416 -0.0331 0.5585
C5 C 0.6826(7) -0.1380(7) 0.6701(6)
C6 C 0.7167(7) -0.1527(6) 0.7956(6)
H4 H 0.7885 -0.1090 0.7927
C7 C 0.5861(8) -0.2115(8) 0.6780(7)
H5 H 0.5621 -0.2075 0.5966
C8 C 0.5584(8) -0.2937(7) 0.9257(7)
H6 H 0.5135 -0.3441 1.0120
C9 C 0.7751(7) 0.5365(6) -0.5892(6)
H7 H 0.7408 0.6098 -0.5617
C10 C 0.8269(7) 0.3955(6) -0.4875(6)
C11 C 0.8753(8) 0.2877(6) -0.5318(7)
H8 H 0.9096 0.1907 -0.4667
C12 C 0.8201(8) 0.4700(7) -0.7662(7)
H9 H 0.8193 0.4953 -0.8611
C13 C 0.8287(7) 0.3600(7) -0.3368(6)
H10 H 0.7934 0.4495 -0.3282
H11 H 0.9303 0.3153 -0.3057
C14 C 0.8720(9) 0.3252(7) -0.6721(8)
H12 H 0.9042 0.2543 -0.7028
Cd2A Cd 0.30113(4) 0.18414(4) -0.10339(4)
N1A N 0.2286(6) 0.4258(5) -0.2728(5)
N6A N 0.4057(6) 0.7168(5) -0.7363(5)
N7A N 0.2169(5) 0.8695(5) -0.8686(5)
N8A N 0.3348(5) 0.9253(5) -0.9193(4)
N9A N 0.4487(5) 0.8339(5) -0.8396(5)
C2A C 0.2658(6) 0.7410(6) -0.7568(5)
C9A C 0.2249(7) 0.4635(6) -0.4108(6)
H7A H 0.2592 0.3902 -0.4383
C10A C 0.1731(7) 0.6045(6) -0.5125(6)
C11A C 0.1247(8) 0.7123(6) -0.4682(7)
H8A H 0.0904 0.8093 -0.5333
C12A C 0.1799(8) 0.5300(7) -0.2338(7)
H9A H 0.1807 0.5047 -0.1389
C13A C 0.1713(7) 0.6400(7) -0.6632(6)
H10A H 0.2066 0.5505 -0.6718
H11A H 0.0697 0.6847 -0.6943
C14A C 0.1280(9) 0.6748(7) -0.3279(8)
H12A H 0.0958 0.7457 -0.2972
N2A N 1.2556(6) 0.0970(5) -0.2456(5)
N3A N 1.1489(5) 0.0283(5) -0.2068(5)
N4A N 1.1331(6) -0.0030(5) -0.3076(5)
N5A N 1.3132(6) 0.1104(6) -0.3718(5)
C1A C 1.4781(9) 0.2939(8) -0.8087(8)
H1A H 1.5428 0.3465 -0.8156
N13A N 1.3455(6) 0.2249(5) -0.9212(5)
C3A C 1.2335(7) 0.0492(6) -0.4068(6)
C4A C 1.2544(9) 0.0313(8) -0.5369(7)
H2A H 1.3187 -0.0653 -0.5146
H3A H 1.1584 0.0331 -0.5585
C5A C 1.3174(7) 0.1380(7) -0.6701(6)
C6A C 1.2833(7) 0.1527(6) -0.7956(6)
H4A H 1.2115 0.1090 -0.7927
C7A C 1.4139(8) 0.2115(8) -0.6780(7)
H5A H 1.4379 0.2075 -0.5966
C8A C 1.4416(8) 0.2937(7) -0.9257(7)
H6A H 1.4865 0.3441 -1.0120
N10A N 1.0534(5) 0.2015(5) -0.0234(5)
N11A N 0.9547(6) 0.3069(6) -0.0344(6)
N12A N 0.8590(9) 0.4060(8) -0.0442(9)
Cd1_2 Cd 0.0000 1.0000 -1.0000
Cd2_2 Cd 0.69887(4) -0.18414(4) 0.10339(4)
Cd2_3 Cd 0.69887(4) -0.18414(4) 1.10339(4)
Cd2A_2 Cd 0.30113(4) 1.18414(4) -1.10339(4)
Cd2A_3 Cd 1.30113(4) 0.18414(4) -1.10339(4)
Cd2A_4 Cd 1.30113(4) 0.18414(4) -0.10339(4)
N2_2 N 0.7444(6) 0.9030(5) -0.7544(5)
N2A_2 N 0.2556(6) 0.0970(5) -0.2456(5)
N7A_2 N 1.2169(5) -0.1305(5) 0.1314(5)
N8_2 N 0.6652(5) 1.0747(5) -1.0807(4)
N8A_2 N 0.3348(5) -0.0747(5) 0.0807(4)
N10_2 N 0.9466(5) 0.7985(5) -0.9766(5)
N10A_2 N 0.0534(5) 0.2015(5) -0.0234(5)
N13_2 N 0.6545(6) 0.7751(5) -1.0788(5)
N13A_2 N 0.3455(6) 0.2249(5) 0.0788(5)
loop_
_geom_bond_atom_site_label_1
_geom_bond_atom_site_label_2
_geom_bond_site_symmetry_1
_geom_bond_site_symmetry_2
Cd1 N3 1_555 1_555
Cd2 N1 1_555 1_555
N1 C9 1_555 1_555
N2 N3 1_555 1_555
N3 N4 1_555 1_555
N4 C3 1_555 1_555
N5 N2 1_555 1_555
C1 H1 1_555 1_555
N6 N9 1_555 1_555
N7 Cd1 1_555 1_555
N8 N7 1_555 1_555
N9 N8 1_555 1_555
N10 Cd1 1_555 1_555
N11 N10 1_555 1_555
N12 N11 1_555 1_555
N13 C6 1_555 1_555
C2 N6 1_555 1_555
C3 N5 1_555 1_555
C4 C3 1_555 1_555
H2 C4 1_555 1_555
H3 C4 1_555 1_555
C5 C4 1_555 1_555
C6 C5 1_555 1_555
H4 C6 1_555 1_555
C7 C1 1_555 1_555
H5 C7 1_555 1_555
C8 C1 1_555 1_555
H6 C8 1_555 1_555
C9 H7 1_555 1_555
C10 C9 1_555 1_555
C11 C10 1_555 1_555
H8 C11 1_555 1_555
C12 N1 1_555 1_555
H9 C12 1_555 1_555
C13 C2 1_555 1_555
H10 C13 1_555 1_555
H11 C13 1_555 1_555
C14 C11 1_555 1_555
H12 C14 1_555 1_555
Cd2A N9 1_555 1_555
N1A Cd2A 1_555 1_555
N6A N9A 1_555 1_555
N7A N8A 1_555 1_555
N8A N9A 1_555 1_555
N9A Cd2 1_555 1_555
C2A N6A 1_555 1_555
C9A N1A 1_555 1_555
H7A C9A 1_555 1_555
C10A C9A 1_555 1_555
C11A C10A 1_555 1_555
H8A C11A 1_555 1_555
C12A N1A 1_555 1_555
H9A C12A 1_555 1_555
C13A C2A 1_555 1_555
H10A C13A 1_555 1_555
H11A C13A 1_555 1_555
C14A C11A 1_555 1_555
H12A C14A 1_555 1_555
N2A N3A 1_555 1_555
N3A Cd1 1_555 1_555
N4A N3A 1_555 1_555
N5A N2A 1_555 1_555
C1A H1A 1_555 1_555
N13A C6A 1_555 1_555
C3A N4A 1_555 1_555
C4A C3A 1_555 1_555
H2A C4A 1_555 1_555
H3A C4A 1_555 1_555
C5A C4A 1_555 1_555
C6A C5A 1_555 1_555
H4A C6A 1_555 1_555
C7A C1A 1_555 1_555
H5A C7A 1_555 1_555
C8A C1A 1_555 1_555
H6A C8A 1_555 1_555
N10A Cd1 1_555 1_555
N11A N10A 1_555 1_555
N12A N11A 1_555 1_555
Cd1_2 N7A 1_555 1_555
Cd2_2 N2 1_555 1_555
Cd2_3 N13 1_555 1_555
Cd2A_2 N8A 1_555 1_555
Cd2A_3 N13A 1_555 1_555
Cd2A_4 N2A 1_555 1_555
N2_2 Cd2 1_555 1_555
N2A_2 Cd2A 1_555 1_555
N7A_2 Cd1 1_555 1_555
N8_2 Cd2 1_555 1_555
N8A_2 Cd2A 1_555 1_555
N10_2 Cd2 1_555 1_555
N10A_2 Cd2A 1_555 1_555
N13_2 Cd2 1_555 1_555
N13A_2 Cd2A 1_555 1_555
N7 C2 1_555 1_555
N8 Cd2_2 1_555 1_555
N10 Cd2_2 1_555 1_555
N13 C8 1_555 1_555
C5 C7 1_555 1_555
C10 C13 1_555 1_555
C12 C14 1_555 1_555
N7A C2A 1_555 1_555
C10A C13A 1_555 1_555
C12A C14A 1_555 1_555
N5A C3A 1_555 1_555
N13A C8A 1_555 1_555
C5A C7A 1_555 1_555
N10A Cd2A_4 1_555 1_555

#END
