
#######################################################################
#
#                 Cambridge Crystallographic Data Centre
#                                CCDC 
#
#######################################################################
#
# If this CIF has been generated from an entry in the Cambridge 
# Structural Database, then it will include bibliographic, chemical, 
# crystal, experimental, refinement or atomic coordinate data resulting 
# from the CCDC's data processing and validation procedures.
#
#######################################################################

data_LOTDIJ
_symmetry_cell_setting           orthorhombic
_symmetry_space_group_name_H-M   'P n a 21'
_symmetry_Int_Tables_number      33
_space_group_name_Hall           'P 2c -2n'
loop_
_symmetry_equiv_pos_site_id
_symmetry_equiv_pos_as_xyz
1 x,y,z
2 1/2-x,1/2+y,1/2+z
3 1/2+x,1/2-y,z
4 -x,-y,1/2+z
_cell_length_a                   17.8916(15)
_cell_length_b                   19.6745(17)
_cell_length_c                   19.088(2)
_cell_angle_alpha                90
_cell_angle_beta                 90
_cell_angle_gamma                90
_cell_volume                     6719.13
loop_
_atom_site_label
_atom_site_type_symbol
_atom_site_fract_x
_atom_site_fract_y
_atom_site_fract_z
Co1 Co 0.18159(8) 0.50004(7) -0.76535(11)
S1 S 0.14759(17) 0.61424(14) -0.98611(15)
S2 S 0.27142(18) 0.40611(18) -0.55495(17)
N1 N 0.1122(4) 0.4245(4) -0.8184(5)
N2 N -0.0393(4) 0.2234(4) -0.7979(5)
N3 N -0.2160(4) 0.0450(4) -0.8108(4)
N4 N -0.0799(4) 0.4566(4) -0.2179(5)
N5 N 0.2558(4) 0.0776(4) -0.2086(5)
N6 N 0.0861(4) 0.2632(4) -0.2210(5)
N7 N 0.1728(4) 0.5657(4) -0.8514(4)
N8 N 0.1916(4) 0.4393(4) -0.6767(4)
O1 O 0.1222(5) 0.2069(5) -0.6020(4)
O2 O -0.1025(3) 0.2268(3) -0.4065(3)
C1 C 0.0937(7) 0.4321(6) -0.8836(6)
C2 C 0.0347(9) 0.3910(7) -0.9146(7)
C3 C 0.0052(7) 0.3365(6) -0.8724(7)
C4 C 0.0285(6) 0.3282(5) -0.8072(6)
C5 C 0.0828(6) 0.3732(5) -0.7825(6)
C6 C 0.0007(5) 0.2722(4) -0.7611(6)
C7 C 0.0101(5) 0.2676(5) -0.6918(6)
C8 C -0.0177(5) 0.2171(5) -0.6528(5)
C9 C -0.0654(5) 0.1687(5) -0.6889(5)
C10 C -0.0704(5) 0.1741(5) -0.7589(6)
C11 C -0.1102(5) 0.1238(4) -0.8034(5)
C12 C -0.0933(6) 0.1121(6) -0.8706(6)
C13 C -0.1339(6) 0.0640(5) -0.9081(6)
C14 C -0.1948(6) 0.0322(6) -0.8781(6)
C15 C -0.1713(5) 0.0880(4) -0.7746(5)
C16 C 0.0711(6) 0.2101(6) -0.5522(6)
C17 C -0.0057(6) 0.2145(4) -0.5745(6)
C18 C -0.0635(5) 0.2154(4) -0.5260(5)
C19 C 0.1965(8) 0.2209(8) -0.5844(7)
C20 C 0.2404(9) 0.2392(8) -0.6488(7)
C21 C 0.2475(10) 0.1733(9) -0.6929(7)
C22 C 0.2832(10) 0.1823(9) -0.7637(7)
C23 C 0.2395(10) 0.2276(10) -0.8154(9)
C24 C 0.2718(11) 0.2278(10) -0.8887(10)
C25 C 0.2360(11) 0.2745(11) -0.9432(10)
C26 C 0.1606(11) 0.2449(11) -0.9545(10)
C27 C -0.0395(6) 0.4854(6) -0.1636(6)
C28 C 0.0267(7) 0.4564(6) -0.1374(6)
C29 C 0.0508(5) 0.3953(5) -0.1644(6)
C30 C 0.0117(5) 0.3679(4) -0.2221(5)
C31 C -0.0560(4) 0.4003(4) -0.2448(5)
C32 C 0.0386(4) 0.3054(4) -0.2569(5)
C33 C 0.0178(5) 0.2913(5) -0.3256(5)
C34 C 0.0422(5) 0.2337(5) -0.3594(5)
C35 C 0.0257(5) 0.2222(4) -0.4328(5)
C36 C 0.0843(5) 0.2139(5) -0.4812(5)
C37 C -0.0489(5) 0.2192(4) -0.4573(6)
C38 C -0.1776(5) 0.2106(6) -0.4250(6)
C39 C -0.2297(7) 0.2279(7) -0.3674(6)
C40 C -0.2206(7) 0.1870(7) -0.2968(7)
C41 C -0.1610(6) 0.2114(7) -0.2495(7)
C42 C -0.1569(6) 0.1709(7) -0.1839(7)
C43 C -0.0915(8) 0.1863(8) -0.1316(8)
C44 C -0.0989(8) 0.2550(8) -0.1058(8)
C45 C -0.0348(12) 0.2656(14) -0.0502(12)
C46 C 0.2646(5) 0.0866(5) -0.1428(6)
C47 C 0.2247(5) 0.1385(5) -0.1054(5)
C48 C 0.1768(6) 0.1782(6) -0.1410(6)
C49 C 0.1641(4) 0.1652(5) -0.2127(5)
C50 C 0.2074(5) 0.1166(4) -0.2451(5)
C51 C 0.1100(5) 0.2107(5) -0.2544(5)
C52 C 0.0913(5) 0.1911(5) -0.3205(5)
C53 C 0.1645(6) 0.5840(5) -0.9053(5)
C54 C 0.2204(6) 0.4251(5) -0.6273(6)
H1 H 0.1152 0.4679 -0.9103
H2 H 0.0195 0.3970 -0.9618
H3 H -0.0329 0.3078 -0.8905
H4 H 0.0991 0.3677 -0.7355
H5 H 0.0391 0.3014 -0.6688
H6 H -0.0906 0.1335 -0.6643
H7 H -0.0549 0.1379 -0.8923
H8 H -0.1185 0.0527 -0.9543
H9 H -0.2240 0.0017 -0.9054
H10 H -0.1825 0.0951 -0.7266
H11 H -0.1140 0.2133 -0.5412
H12 H 0.1997 0.2574 -0.5519
H13 H 0.2168 0.1810 -0.5640
H14 H 0.2144 0.2730 -0.6747
H15 H 0.2885 0.2558 -0.6364
H16 H 0.1989 0.1548 -0.6990
H17 H 0.2775 0.1422 -0.6671
H18 H 0.3313 0.2018 -0.7579
H19 H 0.2880 0.1380 -0.7830
H20 H 0.2375 0.2727 -0.7977
H21 H 0.1903 0.2099 -0.8190
H22 H 0.3229 0.2399 -0.8834
H23 H 0.2684 0.1831 -0.9073
H24 H 0.2641 0.2714 -0.9853
H25 H 0.2364 0.3202 -0.9270
H26 H 0.1373 0.2726 -0.9889
H27 H 0.1612 0.1990 -0.9702
H28 H 0.1334 0.2478 -0.9118
H29 H -0.0566 0.5271 -0.1444
H30 H 0.0533 0.4780 -0.1006
H31 H 0.0936 0.3732 -0.1458
H32 H -0.0835 0.3802 -0.2819
H33 H -0.0147 0.3215 -0.3499
H34 H 0.1343 0.2107 -0.4647
H35 H -0.1909 0.2353 -0.4659
H36 H -0.1811 0.1633 -0.4343
H37 H -0.2793 0.2206 -0.3832
H38 H -0.2229 0.2747 -0.3568
H39 H -0.2665 0.1882 -0.2717
H40 H -0.2096 0.1415 -0.3097
H41 H -0.1700 0.2576 -0.2376
H42 H -0.1143 0.2077 -0.2727
H43 H -0.2027 0.1777 -0.1598
H44 H -0.1525 0.1245 -0.1969
H45 H -0.0451 0.1815 -0.1553
H46 H -0.0937 0.1550 -0.0938
H47 H -0.0910 0.2864 -0.1429
H48 H -0.1474 0.2615 -0.0868
H49 H -0.0402 0.3108 -0.0336
H50 H 0.0141 0.2596 -0.0687
H51 H -0.0423 0.2347 -0.0126
H52 H 0.2985 0.0587 -0.1176
H53 H 0.2336 0.1460 -0.0570
H54 H 0.1493 0.2126 -0.1175
H55 H 0.2023 0.1099 -0.2941
H56 H 0.1112 0.1511 -0.3412
Co1A Co 0.31841(8) 0.00004(7) -0.26535(11)
Co1B Co -0.31841(8) -0.00004(7) -0.76535(11)
Co1C Co -0.18159(8) 0.49996(7) -0.26535(11)
N3B N 0.2840(4) 0.4550(4) -0.8108(4)
N4C N 0.0799(4) 0.5434(4) -0.7179(5)
N5A N 0.2442(4) 0.5776(4) -0.7086(5)
C55 C 0.1251(9) 0.4643(8) -0.4396(9)
Cl1 Cl 0.1238(3) 0.4630(4) -0.3479(3)
Cl2 Cl 0.0398(3) 0.4317(2) -0.4715(2)
Cl3 Cl 0.1423(3) 0.5464(2) -0.4707(3)
H57 H 0.1640 0.4352 -0.4554
C56 C 0.5761(12) 0.4917(10) -0.8494(11)
Cl4 Cl 0.5858(3) 0.4279(3) -0.7766(3)
Cl5 Cl 0.6715(3) 0.4944(3) -0.8843(3)
Cl6 Cl 0.5461(3) 0.5627(3) -0.8222(3)
H58 H 0.5441 0.4744 -0.8849
C57 C 0.5717(10) 0.4778(8) -1.0595(9)
Cl7 Cl 0.5498(2) 0.40120(17) -1.0180(2)
Cl8 Cl 0.5167(2) 0.54521(18) -1.0194(3)
Cl9 Cl 0.5496(3) 0.4757(2) -1.1483(2)
H59 H 0.6234 0.4874 -1.0535
C58 C -0.2473(7) 0.5001(6) -0.6011(7)
Cl10 Cl -0.33890(19) 0.4859(2) -0.5909(2)
Cl11 Cl -0.21748(19) 0.57387(17) -0.55248(18)
Cl12 Cl -0.2195(2) 0.51089(17) -0.68888(17)
H60 H -0.2210 0.4620 -0.5830
loop_
_geom_bond_atom_site_label_1
_geom_bond_atom_site_label_2
_geom_bond_site_symmetry_1
_geom_bond_site_symmetry_2
Co1 N1 1_555 1_555
S1 C53 1_555 1_555
S2 C54 1_555 1_555
N1 C1 1_555 1_555
N2 C6 1_555 1_555
N3 C14 1_555 1_555
N4 C27 1_555 1_555
N5 C46 1_555 1_555
N6 C32 1_555 1_555
N7 Co1 1_555 1_555
N8 Co1 1_555 1_555
O1 C16 1_555 1_555
O2 C37 1_555 1_555
C1 C2 1_555 1_555
C2 C3 1_555 1_555
C3 C4 1_555 1_555
C4 C5 1_555 1_555
C5 N1 1_555 1_555
C6 C4 1_555 1_555
C7 C6 1_555 1_555
C8 C7 1_555 1_555
C9 C8 1_555 1_555
C10 N2 1_555 1_555
C11 C10 1_555 1_555
C12 C11 1_555 1_555
C13 C12 1_555 1_555
C14 C13 1_555 1_555
C15 N3 1_555 1_555
C16 C17 1_555 1_555
C17 C8 1_555 1_555
C18 C17 1_555 1_555
C19 O1 1_555 1_555
C20 C19 1_555 1_555
C21 C20 1_555 1_555
C22 C21 1_555 1_555
C23 C22 1_555 1_555
C24 C23 1_555 1_555
C25 C24 1_555 1_555
C26 C25 1_555 1_555
C27 C28 1_555 1_555
C28 C29 1_555 1_555
C29 C30 1_555 1_555
C30 C31 1_555 1_555
C31 N4 1_555 1_555
C32 C30 1_555 1_555
C33 C32 1_555 1_555
C34 C33 1_555 1_555
C35 C34 1_555 1_555
C36 C16 1_555 1_555
C37 C18 1_555 1_555
C38 O2 1_555 1_555
C39 C38 1_555 1_555
C40 C39 1_555 1_555
C41 C40 1_555 1_555
C42 C41 1_555 1_555
C43 C42 1_555 1_555
C44 C43 1_555 1_555
C45 C44 1_555 1_555
C46 C47 1_555 1_555
C47 C48 1_555 1_555
C48 C49 1_555 1_555
C49 C50 1_555 1_555
C50 N5 1_555 1_555
C51 N6 1_555 1_555
C52 C34 1_555 1_555
C53 N7 1_555 1_555
C54 N8 1_555 1_555
H1 C1 1_555 1_555
H2 C2 1_555 1_555
H3 C3 1_555 1_555
H4 C5 1_555 1_555
H5 C7 1_555 1_555
H6 C9 1_555 1_555
H7 C12 1_555 1_555
H8 C13 1_555 1_555
H9 C14 1_555 1_555
H10 C15 1_555 1_555
H11 C18 1_555 1_555
H12 C19 1_555 1_555
H13 C19 1_555 1_555
H14 C20 1_555 1_555
H15 C20 1_555 1_555
H16 C21 1_555 1_555
H17 C21 1_555 1_555
H18 C22 1_555 1_555
H19 C22 1_555 1_555
H20 C23 1_555 1_555
H21 C23 1_555 1_555
H22 C24 1_555 1_555
H23 C24 1_555 1_555
H24 C25 1_555 1_555
H25 C25 1_555 1_555
H26 C26 1_555 1_555
H27 C26 1_555 1_555
H28 C26 1_555 1_555
H29 C27 1_555 1_555
H30 C28 1_555 1_555
H31 C29 1_555 1_555
H32 C31 1_555 1_555
H33 C33 1_555 1_555
H34 C36 1_555 1_555
H35 C38 1_555 1_555
H36 C38 1_555 1_555
H37 C39 1_555 1_555
H38 C39 1_555 1_555
H39 C40 1_555 1_555
H40 C40 1_555 1_555
H41 C41 1_555 1_555
H42 C41 1_555 1_555
H43 C42 1_555 1_555
H44 C42 1_555 1_555
H45 C43 1_555 1_555
H46 C43 1_555 1_555
H47 C44 1_555 1_555
H48 C44 1_555 1_555
H49 C45 1_555 1_555
H50 C45 1_555 1_555
H51 C45 1_555 1_555
H52 C46 1_555 1_555
H53 C47 1_555 1_555
H54 C48 1_555 1_555
H55 C50 1_555 1_555
H56 C52 1_555 1_555
C55 Cl1 1_555 1_555
Cl2 C55 1_555 1_555
Cl3 C55 1_555 1_555
H57 C55 1_555 1_555
C56 Cl4 1_555 1_555
Cl5 C56 1_555 1_555
Cl6 C56 1_555 1_555
H58 C56 1_555 1_555
C57 Cl7 1_555 1_555
Cl8 C57 1_555 1_555
Cl9 C57 1_555 1_555
H59 C57 1_555 1_555
C58 Cl10 1_555 1_555
Cl11 C58 1_555 1_555
Cl12 C58 1_555 1_555
H60 C58 1_555 1_555
Co1A N5 1_555 1_555
Co1B N3 1_555 1_555
Co1C N4 1_555 1_555
N3B Co1 1_555 1_555
N4C Co1 1_555 1_555
N5A Co1 1_555 1_555
C9 C10 1_555 1_555
C11 C15 1_555 1_555
C35 C36 1_555 1_555
C35 C37 1_555 1_555
C49 C51 1_555 1_555
C51 C52 1_555 1_555

#END
