
#######################################################################
#
#                 Cambridge Crystallographic Data Centre
#                                CCDC 
#
#######################################################################
#
# If this CIF has been generated from an entry in the Cambridge 
# Structural Database, then it will include bibliographic, chemical, 
# crystal, experimental, refinement or atomic coordinate data resulting 
# from the CCDC's data processing and validation procedures.
#
#######################################################################

data_LOTJIP
_symmetry_cell_setting           monoclinic
_symmetry_space_group_name_H-M   'P 21/c'
_symmetry_Int_Tables_number      14
_space_group_name_Hall           '-P 2ybc'
loop_
_symmetry_equiv_pos_site_id
_symmetry_equiv_pos_as_xyz
1 x,y,z
2 -x,1/2+y,1/2-z
3 -x,-y,-z
4 x,1/2-y,1/2+z
_cell_length_a                   6.3606(8)
_cell_length_b                   8.0160(10)
_cell_length_c                   20.077(3)
_cell_angle_alpha                90
_cell_angle_beta                 93.498(2)
_cell_angle_gamma                90
_cell_volume                     1021.75
loop_
_atom_site_label
_atom_site_type_symbol
_atom_site_fract_x
_atom_site_fract_y
_atom_site_fract_z
Ag1 Ag 0.43079(4) 0.72117(4) 0.031306(13)
C1 C 0.4107(6) 0.9134(4) 0.39265(16)
C2 C 0.3491(6) 0.9652(4) 0.32152(17)
C3 C 0.1460(7) 0.9389(6) 0.29501(19)
H1 H 0.0443 0.8971 0.3219
C4 C 0.0931(7) 0.9746(7) 0.22832(19)
H2 H -0.0437 0.9556 0.2110
C5 C 0.2403(6) 1.0378(4) 0.18744(16)
C6 C 0.4405(6) 1.0682(5) 0.21508(18)
H3 H 0.5412 1.1134 0.1886
C7 C 0.4945(6) 1.0329(5) 0.28137(19)
H4 H 0.6303 1.0552 0.2989
C8 C 0.1859(6) 1.0774(4) 0.11474(16)
H5 H 0.1223 1.1873 0.1112
H6 H 0.3139 1.0793 0.0908
C9 C -0.0708(6) 0.7236(5) 0.0485(2)
H7 H -0.0755 0.6139 0.0335
C10 C -0.1676(6) 0.9622(4) 0.07573(15)
H8 H -0.2479 1.0558 0.0844
N1 N 0.0402(4) 0.9545(3) 0.08402(13)
N2 N 0.1060(5) 0.8002(4) 0.06702(17)
N3 N -0.2450(5) 0.8180(4) 0.05332(14)
O1 O 0.5928(4) 0.9477(3) 0.41631(12)
O2 O 0.2748(5) 0.8344(4) 0.42323(12)
Ag1_2 Ag -0.56921(4) 0.72117(4) 0.031306(13)
Ag1A Ag 0.56921(4) 1.22117(4) 0.468694(13)
Ag1C Ag 0.43079(4) 0.77883(4) 0.531306(13)
N3_2 N 0.7550(5) 0.8180(4) 0.05332(14)
O1A O 0.4072(4) 0.4477(3) 0.08369(12)
O2C O 0.2748(5) 0.6656(4) -0.07677(12)
loop_
_geom_bond_atom_site_label_1
_geom_bond_atom_site_label_2
_geom_bond_site_symmetry_1
_geom_bond_site_symmetry_2
Ag1 N2 1_555 1_555
C1 C2 1_555 1_555
C2 C3 1_555 1_555
C3 H1 1_555 1_555
C4 C3 1_555 1_555
H2 C4 1_555 1_555
C5 C4 1_555 1_555
C6 C5 1_555 1_555
H3 C6 1_555 1_555
C7 C2 1_555 1_555
H4 C7 1_555 1_555
C8 C5 1_555 1_555
H5 C8 1_555 1_555
H6 C8 1_555 1_555
C9 H7 1_555 1_555
C10 H8 1_555 1_555
N1 C8 1_555 1_555
N2 C9 1_555 1_555
N3 C9 1_555 1_555
O1 C1 1_555 1_555
O2 C1 1_555 1_555
Ag1_2 N3 1_555 1_555
Ag1A O1 1_555 1_555
Ag1C O2 1_555 1_555
N3_2 Ag1 1_555 1_555
O1A Ag1 1_555 1_555
O2C Ag1 1_555 1_555
C6 C7 1_555 1_555
C10 N1 1_555 1_555
C10 N3 1_555 1_555
N1 N2 1_555 1_555

#END
