
#######################################################################
#
#                 Cambridge Crystallographic Data Centre
#                                CCDC 
#
#######################################################################
#
# If this CIF has been generated from an entry in the Cambridge 
# Structural Database, then it will include bibliographic, chemical, 
# crystal, experimental, refinement or atomic coordinate data resulting 
# from the CCDC's data processing and validation procedures.
#
#######################################################################

data_LOTMOY03
_symmetry_cell_setting           monoclinic
_symmetry_space_group_name_H-M   'P 21/n'
_symmetry_Int_Tables_number      14
_space_group_name_Hall           '-P 2yn'
loop_
_symmetry_equiv_pos_site_id
_symmetry_equiv_pos_as_xyz
1 x,y,z
2 1/2-x,1/2+y,1/2-z
3 -x,-y,-z
4 1/2+x,1/2-y,1/2+z
_cell_length_a                   9.39090(10)
_cell_length_b                   15.8784(2)
_cell_length_c                   22.3876(4)
_cell_angle_alpha                90
_cell_angle_beta                 93.2243(5)
_cell_angle_gamma                90
_cell_volume                     3332.99
loop_
_atom_site_label
_atom_site_type_symbol
_atom_site_fract_x
_atom_site_fract_y
_atom_site_fract_z
Cu1 Cu 0.55265(4) 0.66240(2) 0.245157(17)
Cu2 Cu 0.05499(4) 0.50336(2) 0.248306(18)
O1 O 0.4296(2) 0.56060(14) 0.19090(10)
O2 O 0.3840(2) 0.64678(13) 0.29410(10)
O3 O 0.2198(2) 0.49777(13) 0.19808(10)
O4 O 0.1708(2) 0.58607(13) 0.29489(10)
O5 O 0.4533(2) 0.75194(13) 0.19795(10)
O6 O 0.6132(2) 0.78115(13) 0.30094(10)
O7 O 0.3909(2) 0.88688(13) 0.19512(10)
O8 O 0.5459(2) 0.91465(13) 0.29913(11)
O9 O 0.7205(2) 0.66777(14) 0.19623(11)
O10 O 0.6682(2) 0.58000(13) 0.29269(10)
O11 O 0.9313(2) 0.60526(14) 0.19011(11)
O12 O 0.8822(2) 0.52145(14) 0.29434(10)
C1 C 0.3176(3) 0.54841(18) 0.21540(14)
C2 C 0.2892(3) 0.59864(17) 0.27284(13)
C3 C 0.4559(3) 0.82607(18) 0.21826(14)
C4 C 0.5460(3) 0.84145(19) 0.27757(15)
C5 C 0.8172(3) 0.61743(18) 0.21382(15)
C6 C 0.7880(3) 0.56855(18) 0.27163(14)
Cu2_2 Cu 1.05499(4) 0.50336(2) 0.248306(18)
Cu2A Cu 0.44501(4) 1.00336(2) 0.251694(18)
O7A O 0.1091(2) 0.38688(13) 0.30488(10)
O8A O -0.0459(2) 0.41465(13) 0.20087(11)
O11_2 O -0.0687(2) 0.60526(14) 0.19011(11)
O12_2 O -0.1178(2) 0.52145(14) 0.29434(10)
N1 N 0.9546(5) 0.8741(3) 0.1447(2)
H1 H 0.9829 0.8228 0.1291
C7 C 0.8140(6) 0.8987(4) 0.1125(3)
H2 H 0.7680 0.9425 0.1362
H3 H 0.8341 0.9238 0.0734
C8 C 0.7130(8) 0.8283(5) 0.1022(4)
H4 H 0.6889 0.8046 0.1413
H5 H 0.7595 0.7834 0.0796
C9 C 0.5793(8) 0.8548(6) 0.0685(4)
H6 H 0.5152 0.8064 0.0632
H7 H 0.6022 0.8765 0.0291
H8 H 0.5325 0.8991 0.0908
C10 C 1.0700(8) 0.9370(5) 0.1352(3)
H9 H 1.0305 0.9943 0.1393
H10 H 1.1467 0.9296 0.1669
C11 C 1.1335(14) 0.9303(7) 0.0758(6)
H11 H 1.0557 0.9292 0.0441
H12 H 1.1863 0.8765 0.0740
C12 C 1.2328(10) 1.0016(7) 0.0639(4)
H13 H 1.2592 0.9992 0.0222
H14 H 1.3189 0.9969 0.0905
H15 H 1.1853 1.0553 0.0711
C13 C 0.9340(7) 0.8617(5) 0.2108(3)
H16 H 0.9265 0.9176 0.2299
H17 H 0.8429 0.8316 0.2154
C14 C 1.0487(13) 0.8146(8) 0.2418(4)
H18 H 1.1407 0.8413 0.2333
H19 H 1.0493 0.7568 0.2253
C15 C 1.039(3) 0.8091(10) 0.3075(5)
H20 H 1.1186 0.7749 0.3246
H21 H 0.9487 0.7829 0.3167
H22 H 1.0448 0.8658 0.3248
O13 O 0.0237(4) 0.7132(2) 0.10333(17)
O14 O 0.2268(6) 0.7398(4) 0.1104(2)
O15 O 0.1041(6) 0.5792(5) 0.0903(3)
N2 N 0.6642(10) 0.8133(6) 0.4227(10)
H23 H 0.6540 0.8120 0.3811
C16 C 0.6897(12) 0.9037(6) 0.4411(5)
H24 H 0.6017 0.9365 0.4315
H25 H 0.7094 0.9059 0.4850
C17 C 0.811(2) 0.9440(11) 0.4114(12)
H26 H 0.7925 0.9411 0.3674
H27 H 0.8996 0.9127 0.4219
C18 C 0.829(2) 1.0351(10) 0.4301(11)
H28 H 0.9126 1.0588 0.4116
H29 H 0.8436 1.0383 0.4737
H30 H 0.7440 1.0671 0.4171
C19 C 0.5292(8) 0.7800(6) 0.4462(4)
H31 H 0.5186 0.7205 0.4335
H32 H 0.5399 0.7803 0.4904
C20 C 0.3958(11) 0.8245(13) 0.4281(9)
H33 H 0.3876 0.8288 0.3840
H34 H 0.4005 0.8824 0.4445
C21 C 0.2650(11) 0.7819(11) 0.4490(8)
H35 H 0.1807 0.8157 0.4374
H36 H 0.2732 0.7761 0.4927
H37 H 0.2557 0.7260 0.4307
C22 C 0.7891(10) 0.7579(6) 0.4415(5)
H38 H 0.8770 0.7844 0.4278
H39 H 0.7976 0.7560 0.4857
C23 C 0.7820(16) 0.6707(8) 0.4187(8)
H40 H 0.7598 0.6728 0.3750
H41 H 0.7014 0.6420 0.4369
C24 C 0.9117(15) 0.6185(10) 0.4300(9)
H42 H 0.8932 0.5612 0.4152
H43 H 0.9368 0.6167 0.4730
H44 H 0.9907 0.6431 0.4091
N3? N 1.0167(10) 0.8517(5) 0.1501(3)
H45? H 1.0943 0.8173 0.1434
C25? C 0.8932(8) 0.8203(5) 0.1121(4)
H46? H 0.8781 0.7601 0.1213
H47? H 0.9166 0.8241 0.0696
C26? C 0.7576(11) 0.8670(8) 0.1200(7)
H48? H 0.7714 0.9275 0.1115
H49? H 0.7303 0.8614 0.1619
C27? C 0.6393(13) 0.8315(13) 0.0777(8)
H50? H 0.5517 0.8641 0.0817
H51? H 0.6220 0.7725 0.0878
H52? H 0.6681 0.8352 0.0364
C28? C 1.056(2) 0.9406(10) 0.1336(7)
H53? H 0.9722 0.9773 0.1374
H54? H 1.1322 0.9607 0.1627
C29? C 1.107(2) 0.9501(10) 0.0726(7)
H55? H 1.0252 0.9437 0.0431
H56? H 1.1766 0.9051 0.0652
C30? C 1.1757(12) 1.0349(7) 0.0645(7)
H57? H 1.2242 1.0353 0.0268
H58? H 1.2453 1.0455 0.0979
H59? H 1.1024 1.0788 0.0634
C31? C 0.9907(15) 0.8477(10) 0.2155(4)
H60? H 0.9920 0.9060 0.2312
H61? H 0.8932 0.8255 0.2195
C32? C 1.085(2) 0.7995(15) 0.2529(6)
H62? H 1.1787 0.8278 0.2546
H63? H 1.0969 0.7442 0.2333
C33? C 1.047(3) 0.7835(13) 0.3147(6)
H64? H 1.1315 0.7643 0.3385
H65? H 0.9727 0.7401 0.3149
H66? H 1.0111 0.8356 0.3320
N4? N 0.6713(10) 0.8194(6) 0.4273(10)
H67? H 0.6627 0.8164 0.3858
C34? C 0.7930(9) 0.8780(5) 0.4439(4)
H68? H 0.8009 0.8832 0.4881
H69? H 0.8822 0.8516 0.4316
C35? C 0.784(2) 0.9633(9) 0.4183(12)
H70? H 0.6978 0.9917 0.4319
H71? H 0.7746 0.9593 0.3741
C36? C 0.9145(12) 1.0158(7) 0.4365(6)
C37? C 0.5315(8) 0.8519(6) 0.4483(4)
H72? H 0.5410 0.8594 0.4923
H73? H 0.5126 0.9080 0.4303
C38? C 0.4053(11) 0.7959(12) 0.4333(15)
H74? H 0.3970 0.7859 0.3895
H75? H 0.4198 0.7408 0.4534
C39? C 0.2704(15) 0.835(2) 0.4528(15)
C40? C 0.7025(10) 0.7318(6) 0.4504(5)
H76? H 0.7155 0.7342 0.4945
H77? H 0.6183 0.6959 0.4404
C41? C 0.8305(12) 0.6907(7) 0.4266(7)
H78? H 0.9178 0.7178 0.4444
H79? H 0.8290 0.6987 0.3827
C42? C 0.8342(19) 0.5970(7) 0.4408(9)
N5? N 0.631(2) 0.8380(16) 0.4063(12)
H80? H 0.6571 0.8351 0.3668
C43? C 0.658(3) 0.9277(16) 0.4254(15)
H81? H 0.5838 0.9638 0.4052
H82? H 0.6464 0.9318 0.4691
C44? C 0.801(4) 0.961(2) 0.412(3)
H83? H 0.8159 0.9520 0.3693
H84? H 0.8745 0.9285 0.4357
C45? C 0.818(6) 1.052(2) 0.427(2)
H85? H 0.9112 1.0715 0.4142
H86? H 0.8126 1.0607 0.4697
H87? H 0.7424 1.0844 0.4051
C46? C 0.476(2) 0.816(2) 0.4049(12)
H88? H 0.4257 0.8508 0.3737
H89? H 0.4654 0.7565 0.3926
C47? C 0.405(3) 0.828(4) 0.4618(15)
H90? H 0.4513 0.8744 0.4847
H91? H 0.4161 0.7759 0.4861
C48? C 0.249(4) 0.847(5) 0.452(3)
H92? H 0.2023 0.8405 0.4894
H93? H 0.2066 0.8076 0.4220
H94? H 0.2374 0.9047 0.4371
C49? C 0.725(3) 0.7765(18) 0.4400(17)
H95? H 0.8254 0.7941 0.4368
H96? H 0.7040 0.7795 0.4828
C50? C 0.711(3) 0.6876(16) 0.4203(17)
H97? H 0.6993 0.6864 0.3761
H98? H 0.6236 0.6637 0.4362
C51? C 0.834(6) 0.633(3) 0.439(3)
H99? H 0.8136 0.5747 0.4266
H100? H 0.8485 0.6345 0.4830
H101? H 0.9199 0.6528 0.4211
O16? O 0.3137(5) 0.6847(3) 0.09480(19)
O17? O 0.153(5) 0.5232(15) 0.0861(14)
loop_
_geom_bond_atom_site_label_1
_geom_bond_atom_site_label_2
_geom_bond_site_symmetry_1
_geom_bond_site_symmetry_2
Cu1 O1 1_555 1_555
Cu2 O3 1_555 1_555
O1 C1 1_555 1_555
O2 Cu1 1_555 1_555
O3 C1 1_555 1_555
O4 Cu2 1_555 1_555
O5 Cu1 1_555 1_555
O6 Cu1 1_555 1_555
O7 C3 1_555 1_555
O8 C4 1_555 1_555
O9 Cu1 1_555 1_555
O10 Cu1 1_555 1_555
O11 C5 1_555 1_555
O12 C6 1_555 1_555
C1 C2 1_555 1_555
C2 O2 1_555 1_555
C3 O5 1_555 1_555
C4 O6 1_555 1_555
C5 O9 1_555 1_555
C6 O10 1_555 1_555
N1 H1 1_555 1_555
C7 N1 1_555 1_555
H2 C7 1_555 1_555
H3 C7 1_555 1_555
C8 C7 1_555 1_555
H4 C8 1_555 1_555
H5 C8 1_555 1_555
C9 C8 1_555 1_555
H6 C9 1_555 1_555
H7 C9 1_555 1_555
H8 C9 1_555 1_555
C10 N1 1_555 1_555
H9 C10 1_555 1_555
H10 C10 1_555 1_555
C11 C10 1_555 1_555
H11 C11 1_555 1_555
H12 C11 1_555 1_555
C12 C11 1_555 1_555
H13 C12 1_555 1_555
H14 C12 1_555 1_555
H15 C12 1_555 1_555
C13 N1 1_555 1_555
H16 C13 1_555 1_555
H17 C13 1_555 1_555
C14 C13 1_555 1_555
H18 C14 1_555 1_555
H19 C14 1_555 1_555
C15 C14 1_555 1_555
H20 C15 1_555 1_555
H21 C15 1_555 1_555
H22 C15 1_555 1_555
N2 H23 1_555 1_555
C16 N2 1_555 1_555
H24 C16 1_555 1_555
H25 C16 1_555 1_555
C17 C16 1_555 1_555
H26 C17 1_555 1_555
H27 C17 1_555 1_555
C18 C17 1_555 1_555
H28 C18 1_555 1_555
H29 C18 1_555 1_555
H30 C18 1_555 1_555
C19 N2 1_555 1_555
H31 C19 1_555 1_555
H32 C19 1_555 1_555
C20 C19 1_555 1_555
H33 C20 1_555 1_555
H34 C20 1_555 1_555
C21 C20 1_555 1_555
H35 C21 1_555 1_555
H36 C21 1_555 1_555
H37 C21 1_555 1_555
C22 N2 1_555 1_555
H38 C22 1_555 1_555
H39 C22 1_555 1_555
C23 C22 1_555 1_555
H40 C23 1_555 1_555
H41 C23 1_555 1_555
C24 C23 1_555 1_555
H42 C24 1_555 1_555
H43 C24 1_555 1_555
H44 C24 1_555 1_555
Cu2_2 O11 1_555 1_555
Cu2A O7 1_555 1_555
O7A Cu2 1_555 1_555
O8A Cu2 1_555 1_555
O11_2 Cu2 1_555 1_555
O12_2 Cu2 1_555 1_555
O4 C2 1_555 1_555
O8 Cu2A 1_555 1_555
O12 Cu2_2 1_555 1_555
C3 C4 1_555 1_555
C5 C6 1_555 1_555

#END
