
#######################################################################
#
#                 Cambridge Crystallographic Data Centre
#                                CCDC 
#
#######################################################################
#
# If this CIF has been generated from an entry in the Cambridge 
# Structural Database, then it will include bibliographic, chemical, 
# crystal, experimental, refinement or atomic coordinate data resulting 
# from the CCDC's data processing and validation procedures.
#
#######################################################################

data_LOTNOX
_symmetry_cell_setting           monoclinic
_symmetry_space_group_name_H-M   'C c'
_symmetry_Int_Tables_number      9
_space_group_name_Hall           'C -2yc'
loop_
_symmetry_equiv_pos_site_id
_symmetry_equiv_pos_as_xyz
1 x,y,z
2 x,-y,1/2+z
3 1/2+x,1/2+y,z
4 1/2+x,1/2-y,1/2+z
_cell_length_a                   16.854(2)
_cell_length_b                   15.6263(19)
_cell_length_c                   19.144(2)
_cell_angle_alpha                90
_cell_angle_beta                 114.785(2)
_cell_angle_gamma                90
_cell_volume                     4577.45
loop_
_atom_site_label
_atom_site_type_symbol
_atom_site_fract_x
_atom_site_fract_y
_atom_site_fract_z
Ni1 Ni 0.12751(8) 0.54143(2) 0.46501(8)
O1 O 0.0980(4) 0.5422(3) 0.5618(4)
O2 O 0.1556(4) 0.5418(2) 0.3675(4)
N1 N -0.0058(4) 0.5385(3) 0.3897(4)
C1 C -0.0624(4) 0.5858(4) 0.4025(4)
H1 H -0.0409 0.6261 0.4433
C2 C -0.1535(4) 0.5803(5) 0.3590(4)
H2 H -0.1913 0.6170 0.3704
C3 C -0.1873(4) 0.5227(4) 0.3008(4)
C4 C -0.1255(5) 0.4705(5) 0.2877(5)
H3 H -0.1441 0.4274 0.2491
C5 C -0.0368(4) 0.4845(5) 0.3332(4)
H4 H 0.0040 0.4519 0.3218
C6 C -0.2822(4) 0.5115(5) 0.2537(4)
C7 C -0.3376(5) 0.5838(5) 0.2328(5)
H5 H -0.3140 0.6398 0.2457
C8 C -0.4240(5) 0.5720(5) 0.1945(5)
H6 H -0.4606 0.6211 0.1818
C9 C -0.4635(4) 0.4913(5) 0.1719(4)
C10 C -0.4089(5) 0.4209(5) 0.1954(4)
H7 H -0.4337 0.3652 0.1837
C11 C -0.3168(5) 0.4291(5) 0.2367(5)
H8 H -0.2800 0.3802 0.2522
N2 N -0.7386(4) 0.4634(4) 0.0383(4)
C12 C -0.7061(5) 0.5238(4) 0.0961(5)
H9 H -0.7457 0.5611 0.1046
C13 C -0.6192(6) 0.5313(5) 0.1413(5)
H10 H -0.5993 0.5716 0.1822
C14 C -0.5597(5) 0.4813(5) 0.1284(4)
C15 C -0.5918(5) 0.4166(5) 0.0708(4)
H11 H -0.5528 0.3784 0.0626
C16 C -0.6789(5) 0.4107(5) 0.0280(4)
H12 H -0.6999 0.3682 -0.0109
N3 N 0.1276(6) 0.40571(17) 0.4647(5)
C17 C 0.1777(5) 0.3601(5) 0.4405(5)
H13 H 0.2162 0.3902 0.4245
C18 C 0.1777(5) 0.2728(4) 0.4370(5)
H14 H 0.2123 0.2438 0.4161
C19 C 0.1248(7) 0.2258(2) 0.4655(6)
C20 C 0.0739(5) 0.2722(5) 0.4907(4)
H15 H 0.0359 0.2435 0.5081
C21 C 0.0765(5) 0.3620(4) 0.4916(4)
H16 H 0.0418 0.3928 0.5113
C22 C 0.1255(7) 0.1315(2) 0.4636(6)
C23 C 0.1265(5) 0.0861(4) 0.4014(4)
H17 H 0.1318 0.1169 0.3608
C24 C 0.1202(4) -0.0026(5) 0.3966(4)
H18 H 0.1123 -0.0321 0.3508
C25 C 0.1263(7) -0.0484(2) 0.4652(7)
C26 C 0.1173(4) -0.0029(4) 0.5210(3)
H19 H 0.1074 -0.0329 0.5598
C27 C 0.1217(6) 0.0861(5) 0.5247(5)
H20 H 0.1221 0.1154 0.5684
N4 N 0.1268(5) -0.32344(17) 0.4639(5)
C28 C 0.1661(5) -0.2798(4) 0.5293(4)
H21 H 0.1949 -0.3115 0.5755
C29 C 0.1679(6) -0.1912(5) 0.5343(5)
H22 H 0.1948 -0.1633 0.5828
C30 C 0.1285(7) -0.1433(2) 0.4655(7)
C31 C 0.0877(5) -0.1892(4) 0.3980(5)
H23 H 0.0583 -0.1596 0.3508
C32 C 0.0890(6) -0.2772(5) 0.3983(5)
H24 H 0.0624 -0.3067 0.3506
N2A N 0.2614(4) 0.5366(4) 0.5383(4)
N4_2 N 0.1268(5) 0.67656(17) 0.4639(5)
Ni1A Ni -0.87249(8) 0.45857(2) -0.03499(8)
Ni1_2 Ni 0.12751(8) -0.45857(2) 0.46501(8)
C33 C 0.4290(5) 0.7854(5) 0.1751(4)
H25 H 0.4626 0.8084 0.1502
C34 C 0.3389(5) 0.7776(4) 0.1350(4)
H26 H 0.3110 0.7952 0.0828
C35 C 0.2897(4) 0.7439(4) 0.1713(4)
H27 H 0.2281 0.7386 0.1440
C36 C 0.3306(4) 0.7182(4) 0.2478(4)
H28 H 0.2969 0.6952 0.2726
C37 C 0.4207(4) 0.7260(4) 0.2878(4)
H29 H 0.4486 0.7084 0.3401
C38 C 0.4699(4) 0.7596(4) 0.2515(4)
H30 H 0.5314 0.7650 0.2789
N5 N 0.1735(8) 0.3259(7) 0.2201(6)
O3 O 0.2125(10) 0.2979(6) 0.2898(6)
O4 O 0.1211(8) 0.2895(7) 0.1736(6)
O5 O 0.2085(6) 0.3986(5) 0.2080(4)
N6 N 0.0718(7) 0.6720(6) 0.2043(5)
O6 O 0.1383(6) 0.7137(5) 0.2573(6)
O7 O 0.0499(5) 0.6058(4) 0.2255(5)
O8 O 0.0401(8) 0.7021(6) 0.1427(5)
O9 O 0.4600(4) 0.0194(5) 0.0802(5)
C39 C 0.3760(7) -0.0031(7) 0.0719(8)
H31 H 0.3804 -0.0464 0.1104
H32 H 0.3427 -0.0265 0.0202
H33 H 0.3462 0.0477 0.0791
C40 C 0.3172(12) 0.798(2) 0.4260(10)
H34 H 0.2575 0.7943 0.4221
H35 H 0.3241 0.7585 0.3892
H36 H 0.3286 0.8567 0.4144
O10 O 0.3728(6) 0.7779(5) 0.4960(5)
O11 O 0.3000(6) 0.4639(5) 0.3544(6)
C41 C 0.3684(11) 0.5137(13) 0.3551(9)
H37 H 0.3806 0.5596 0.3930
H38 H 0.3523 0.5386 0.3040
H39 H 0.4206 0.4780 0.3687
O12 O 0.3784(7) 0.2784(9) 0.4273(9)
C42 C 0.4228(5) 0.3243(4) 0.4972(4)
H40 H 0.4731 0.3544 0.4956
H41 H 0.4431 0.2842 0.5406
H42 H 0.3829 0.3660 0.5036
C43 C 0.3777(14) 0.2447(17) 0.2096(12)
H43 H 0.3757 0.2772 0.1651
H44 H 0.3232 0.2124 0.1951
H45 H 0.4272 0.2050 0.2267
O13 O 0.3875(11) 0.3003(15) 0.2686(14)
loop_
_geom_bond_atom_site_label_1
_geom_bond_atom_site_label_2
_geom_bond_site_symmetry_1
_geom_bond_site_symmetry_2
Ni1 O1 1_555 1_555
O2 Ni1 1_555 1_555
N1 Ni1 1_555 1_555
C1 N1 1_555 1_555
H1 C1 1_555 1_555
C2 C1 1_555 1_555
H2 C2 1_555 1_555
C3 C2 1_555 1_555
C4 C3 1_555 1_555
H3 C4 1_555 1_555
C5 N1 1_555 1_555
H4 C5 1_555 1_555
C6 C3 1_555 1_555
C7 C6 1_555 1_555
H5 C7 1_555 1_555
C8 C7 1_555 1_555
H6 C8 1_555 1_555
C9 C8 1_555 1_555
C10 C9 1_555 1_555
H7 C10 1_555 1_555
C11 C6 1_555 1_555
H8 C11 1_555 1_555
N2 C12 1_555 1_555
C12 H9 1_555 1_555
C13 C12 1_555 1_555
H10 C13 1_555 1_555
C14 C9 1_555 1_555
C15 C14 1_555 1_555
H11 C15 1_555 1_555
C16 N2 1_555 1_555
H12 C16 1_555 1_555
N3 Ni1 1_555 1_555
C17 N3 1_555 1_555
H13 C17 1_555 1_555
C18 C17 1_555 1_555
H14 C18 1_555 1_555
C19 C18 1_555 1_555
C20 C19 1_555 1_555
H15 C20 1_555 1_555
C21 N3 1_555 1_555
H16 C21 1_555 1_555
C22 C19 1_555 1_555
C23 C22 1_555 1_555
H17 C23 1_555 1_555
C24 C23 1_555 1_555
H18 C24 1_555 1_555
C25 C24 1_555 1_555
C26 C25 1_555 1_555
H19 C26 1_555 1_555
C27 C22 1_555 1_555
H20 C27 1_555 1_555
N4 C28 1_555 1_555
C28 H21 1_555 1_555
C29 C28 1_555 1_555
H22 C29 1_555 1_555
C30 C25 1_555 1_555
C31 C30 1_555 1_555
H23 C31 1_555 1_555
C32 N4 1_555 1_555
H24 C32 1_555 1_555
C33 H25 1_555 1_555
C34 C33 1_555 1_555
H26 C34 1_555 1_555
C35 C34 1_555 1_555
H27 C35 1_555 1_555
C36 C35 1_555 1_555
H28 C36 1_555 1_555
C37 C36 1_555 1_555
H29 C37 1_555 1_555
C38 C33 1_555 1_555
H30 C38 1_555 1_555
N5 O3 1_555 1_555
O4 N5 1_555 1_555
O5 N5 1_555 1_555
N6 O6 1_555 1_555
O7 N6 1_555 1_555
O8 N6 1_555 1_555
O9 C39 1_555 1_555
C39 H31 1_555 1_555
H32 C39 1_555 1_555
H33 C39 1_555 1_555
C40 H34 1_555 1_555
H35 C40 1_555 1_555
H36 C40 1_555 1_555
O10 C40 1_555 1_555
O11 C41 1_555 1_555
C41 H37 1_555 1_555
H38 C41 1_555 1_555
H39 C41 1_555 1_555
O12 C42 1_555 1_555
C42 H40 1_555 1_555
H41 C42 1_555 1_555
H42 C42 1_555 1_555
C43 H43 1_555 1_555
H44 C43 1_555 1_555
H45 C43 1_555 1_555
O13 C43 1_555 1_555
N2A Ni1 1_555 1_555
N4_2 Ni1 1_555 1_555
Ni1A N2 1_555 1_555
Ni1_2 N4 1_555 1_555
C4 C5 1_555 1_555
C10 C11 1_555 1_555
C13 C14 1_555 1_555
C15 C16 1_555 1_555
C20 C21 1_555 1_555
C26 C27 1_555 1_555
C29 C30 1_555 1_555
C31 C32 1_555 1_555
C37 C38 1_555 1_555

#END
