
#######################################################################
#
#                 Cambridge Crystallographic Data Centre
#                                CCDC 
#
#######################################################################
#
# If this CIF has been generated from an entry in the Cambridge 
# Structural Database, then it will include bibliographic, chemical, 
# crystal, experimental, refinement or atomic coordinate data resulting 
# from the CCDC's data processing and validation procedures.
#
#######################################################################

data_LOTPAL
_symmetry_cell_setting           monoclinic
_symmetry_space_group_name_H-M   'C c'
_symmetry_Int_Tables_number      9
_space_group_name_Hall           'C -2yc'
loop_
_symmetry_equiv_pos_site_id
_symmetry_equiv_pos_as_xyz
1 x,y,z
2 x,-y,1/2+z
3 1/2+x,1/2+y,z
4 1/2+x,1/2-y,1/2+z
_cell_length_a                   13.8097(18)
_cell_length_b                   24.700(3)
_cell_length_c                   15.2856(19)
_cell_angle_alpha                90
_cell_angle_beta                 101.982(3)
_cell_angle_gamma                90
_cell_volume                     5100.32
loop_
_atom_site_label
_atom_site_type_symbol
_atom_site_fract_x
_atom_site_fract_y
_atom_site_fract_z
Cu1 Cu -0.61700(19) 0.50018(3) 0.37962(16)
O1 O -0.5145(9) 0.5051(5) 0.2692(8)
O2 O -0.7221(8) 0.5002(3) 0.4868(7)
N1 N -0.5301(8) 0.5572(4) 0.4514(7)
C1 C -0.4996(10) 0.6021(5) 0.4068(9)
H1 H -0.5106 0.6006 0.3434
C2 C -0.4552(10) 0.6480(4) 0.4479(8)
H2 H -0.4319 0.6758 0.4145
C3 C -0.4457(10) 0.6524(5) 0.5387(9)
C4 C -0.4790(11) 0.6074(5) 0.5848(10)
H3 H -0.4721 0.6077 0.6479
C5 C -0.5205(12) 0.5647(5) 0.5353(10)
H4 H -0.5458 0.5369 0.5672
C6 C -0.4091(10) 0.7016(6) 0.5855(9)
C7 C -0.4690(11) 0.7426(5) 0.5995(10)
C8 C -0.4340(9) 0.7935(5) 0.6421(8)
C9 C -0.3346(10) 0.7991(5) 0.6676(9)
C10 C -0.2619(10) 0.7587(5) 0.6546(7)
C11 C -0.3044(10) 0.7102(5) 0.6117(9)
C12 C -0.5696(11) 0.7372(5) 0.5769(9)
H5 H -0.5973 0.7038 0.5527
C13 C -0.6302(10) 0.7780(5) 0.5881(9)
H6 H -0.6993 0.7737 0.5660
C14 C -0.5973(9) 0.8256(5) 0.6299(9)
H7 H -0.6438 0.8519 0.6401
C15 C -0.5007(10) 0.8354(6) 0.6563(9)
H8 H -0.4771 0.8689 0.6834
C16 C -0.2330(10) 0.6685(5) 0.6018(9)
H9 H -0.2584 0.6353 0.5749
C17 C -0.1313(12) 0.6732(6) 0.6284(12)
H10 H -0.0894 0.6439 0.6203
C18 C -0.0886(10) 0.7246(5) 0.6698(9)
H11 H -0.0191 0.7303 0.6851
C19 C -0.1545(10) 0.7639(5) 0.6850(9)
H12 H -0.1290 0.7957 0.7166
N2 N -0.1990(8) 0.9398(4) 0.8101(7)
C20 C -0.2131(8) 0.9402(5) 0.7170(8)
H13 H -0.1933 0.9703 0.6862
C21 C -0.2589(10) 0.8934(5) 0.6694(9)
H14 H -0.2689 0.8919 0.6061
C22 C -0.2875(10) 0.8515(5) 0.7152(9)
C23 C -0.2775(10) 0.8578(5) 0.8076(9)
H15 H -0.3009 0.8300 0.8409
C24 C -0.2347(11) 0.9033(6) 0.8512(9)
H16 H -0.2321 0.9071 0.9135
C25 C -0.1796(10) 0.1420(5) 0.7272(9)
H17 H -0.1381 0.1694 0.7113
C26 C -0.1382(11) 0.0948(5) 0.7650(9)
H18 H -0.0702 0.0879 0.7669
N3 N -0.5435(8) 0.4411(4) 0.4542(7)
C27 C -0.4432(11) 0.4323(5) 0.4710(10)
H19 H -0.4032 0.4599 0.4535
C28 C -0.3981(11) 0.3893(5) 0.5087(9)
H20 H -0.3286 0.3854 0.5148
C29 C -0.4534(11) 0.3492(5) 0.5398(9)
C30 C -0.5536(12) 0.3567(5) 0.5329(9)
H21 H -0.5920 0.3321 0.5593
C31 C -0.5950(11) 0.4007(5) 0.4868(9)
H22 H -0.6650 0.4039 0.4761
C32 C -0.4085(10) 0.2992(5) 0.5912(8)
C33 C -0.4239(10) 0.2487(5) 0.5450(8)
C34 C -0.3809(10) 0.1993(5) 0.5836(8)
C35 C -0.3284(9) 0.2020(5) 0.6750(8)
C36 C -0.3143(10) 0.2509(5) 0.7236(8)
C37 C -0.3533(10) 0.2993(5) 0.6773(9)
C38 C -0.4776(11) 0.2450(6) 0.4476(9)
H23 H -0.5026 0.2771 0.4169
C39 C -0.4909(11) 0.1954(6) 0.4022(10)
H24 H -0.5249 0.1940 0.3415
C40 C -0.4524(11) 0.1465(6) 0.4485(10)
H25 H -0.4662 0.1124 0.4201
C41 C -0.3980(10) 0.1493(5) 0.5304(10)
H26 H -0.3681 0.1170 0.5566
C42 C -0.3383(11) 0.3478(5) 0.7255(8)
H27 H -0.3648 0.3807 0.6985
C43 C -0.2853(11) 0.3477(5) 0.8118(9)
H28 H -0.2752 0.3805 0.8449
C44 C -0.2466(11) 0.2999(6) 0.8505(9)
H29 H -0.2079 0.3008 0.9097
C45 C -0.2609(11) 0.2536(6) 0.8093(9)
H30 H -0.2341 0.2215 0.8391
N4 N -0.1902(9) 0.0596(4) 0.7983(7)
C46 C -0.2872(10) 0.0654(5) 0.7895(8)
H31 H -0.3241 0.0390 0.8138
C47 C -0.3358(11) 0.1110(5) 0.7437(9)
H32 H -0.4056 0.1142 0.7355
C48 C -0.2835(10) 0.1506(5) 0.7114(8)
N5 N -0.4353(7) 0.5063(5) 0.2532(5)
O3 O -0.3569(7) 0.5174(4) 0.3224(8)
O4 O -0.4162(13) 0.5268(6) 0.1882(9)
N6 N -0.816(2) 0.5120(5) 0.4863(17)
O5 O -0.8197(8) 0.5204(4) 0.5664(9)
O10 O -0.8250(10) 0.4536(5) 0.4770(8)
N2C N -0.6990(8) 0.5602(4) 0.3101(7)
N4C N -0.6902(9) 0.4404(4) 0.2983(7)
Cu1C Cu -0.11700(19) 0.99982(3) 0.87962(16)
Cu1C_2 Cu -0.11700(19) -0.00018(3) 0.87962(16)
N7 N -0.3158(16) 0.3501(11) 0.3220(11)
O6 O -0.371(2) 0.3852(13) 0.2939(13)
O7 O -0.3372(13) 0.3008(9) 0.3263(10)
C49 C -0.2038(8) 0.3593(5) 0.3549(7)
C50 C -0.1414(11) 0.3145(3) 0.3692(9)
H33 H -0.1680 0.2791 0.3585
C51 C -0.0401(10) 0.3216(5) 0.3991(9)
H34 H 0.0025 0.2911 0.4089
C52 C -0.0012(8) 0.3735(7) 0.4148(8)
H35 H 0.0681 0.3783 0.4353
C53 C -0.0635(13) 0.4182(5) 0.4006(10)
H36 H -0.0369 0.4536 0.4113
C54 C -0.1648(12) 0.4111(3) 0.3706(9)
H37 H -0.2075 0.4417 0.3609
N8 N 1.3113(8) -0.0355(5) 0.0023(8)
O8 O 1.3590(8) -0.0554(5) -0.0572(7)
O9 O 1.2143(7) -0.0379(4) -0.0243(7)
C55 C 1.3561(6) -0.0110(3) 0.0796(6)
C56 C 1.3019(6) 0.0068(4) 0.1412(7)
H38 H 1.2317 0.0040 0.1278
C57 C 1.3503(9) 0.0287(3) 0.2223(6)
H39 H 1.3133 0.0408 0.2644
C58 C 1.4530(9) 0.0327(3) 0.2419(5)
H40 H 1.4861 0.0476 0.2973
C59 C 1.5071(6) 0.0149(3) 0.1803(7)
H41 H 1.5773 0.0177 0.1937
C60 C 1.4587(6) -0.0069(3) 0.0992(6)
H42 H 1.4958 -0.0191 0.0571
loop_
_geom_bond_atom_site_label_1
_geom_bond_atom_site_label_2
_geom_bond_site_symmetry_1
_geom_bond_site_symmetry_2
Cu1 O1 1_555 1_555
O1 N5 1_555 1_555
O2 Cu1 1_555 1_555
N1 Cu1 1_555 1_555
C1 N1 1_555 1_555
H1 C1 1_555 1_555
C2 C1 1_555 1_555
H2 C2 1_555 1_555
C3 C2 1_555 1_555
C4 C3 1_555 1_555
H3 C4 1_555 1_555
C5 N1 1_555 1_555
H4 C5 1_555 1_555
C6 C3 1_555 1_555
C7 C6 1_555 1_555
C8 C7 1_555 1_555
C9 C8 1_555 1_555
C10 C9 1_555 1_555
C11 C6 1_555 1_555
C12 C7 1_555 1_555
H5 C12 1_555 1_555
C13 C12 1_555 1_555
H6 C13 1_555 1_555
C14 C13 1_555 1_555
H7 C14 1_555 1_555
C15 C8 1_555 1_555
H8 C15 1_555 1_555
C16 C11 1_555 1_555
H9 C16 1_555 1_555
C17 C16 1_555 1_555
H10 C17 1_555 1_555
C18 C17 1_555 1_555
H11 C18 1_555 1_555
C19 C10 1_555 1_555
H12 C19 1_555 1_555
N2 C20 1_555 1_555
C20 H13 1_555 1_555
C21 C20 1_555 1_555
H14 C21 1_555 1_555
C22 C9 1_555 1_555
C23 C22 1_555 1_555
H15 C23 1_555 1_555
C24 N2 1_555 1_555
H16 C24 1_555 1_555
C25 H17 1_555 1_555
C26 C25 1_555 1_555
H18 C26 1_555 1_555
N3 Cu1 1_555 1_555
C27 N3 1_555 1_555
H19 C27 1_555 1_555
C28 C27 1_555 1_555
H20 C28 1_555 1_555
C29 C28 1_555 1_555
C30 C29 1_555 1_555
H21 C30 1_555 1_555
C31 N3 1_555 1_555
H22 C31 1_555 1_555
C32 C29 1_555 1_555
C33 C32 1_555 1_555
C34 C33 1_555 1_555
C35 C34 1_555 1_555
C36 C35 1_555 1_555
C37 C32 1_555 1_555
C38 C33 1_555 1_555
H23 C38 1_555 1_555
C39 C38 1_555 1_555
H24 C39 1_555 1_555
C40 C39 1_555 1_555
H25 C40 1_555 1_555
C41 C34 1_555 1_555
H26 C41 1_555 1_555
C42 C37 1_555 1_555
H27 C42 1_555 1_555
C43 C42 1_555 1_555
H28 C43 1_555 1_555
C44 C43 1_555 1_555
H29 C44 1_555 1_555
C45 C36 1_555 1_555
H30 C45 1_555 1_555
N4 C26 1_555 1_555
C46 N4 1_555 1_555
H31 C46 1_555 1_555
C47 C46 1_555 1_555
H32 C47 1_555 1_555
C48 C25 1_555 1_555
N5 O3 1_555 1_555
O4 N5 1_555 1_555
N6 O2 1_555 1_555
O5 N6 1_555 1_555
N7 O6 1_555 1_555
O7 N7 1_555 1_555
C49 N7 1_555 1_555
C50 C49 1_555 1_555
H33 C50 1_555 1_555
C51 C50 1_555 1_555
H34 C51 1_555 1_555
C52 C51 1_555 1_555
H35 C52 1_555 1_555
C53 C52 1_555 1_555
H36 C53 1_555 1_555
C54 C49 1_555 1_555
H37 C54 1_555 1_555
N8 O8 1_555 1_555
O9 N8 1_555 1_555
C55 N8 1_555 1_555
C56 C55 1_555 1_555
H38 C56 1_555 1_555
C57 C56 1_555 1_555
H39 C57 1_555 1_555
C58 C57 1_555 1_555
H40 C58 1_555 1_555
C59 C58 1_555 1_555
H41 C59 1_555 1_555
C60 C55 1_555 1_555
H42 C60 1_555 1_555
O10 N6 1_555 1_555
N2C Cu1 1_555 1_555
N4C Cu1 1_555 1_555
Cu1C N2 1_555 1_555
Cu1C_2 N4 1_555 1_555
C4 C5 1_555 1_555
C10 C11 1_555 1_555
C14 C15 1_555 1_555
C18 C19 1_555 1_555
C21 C22 1_555 1_555
C23 C24 1_555 1_555
C30 C31 1_555 1_555
C35 C48 1_555 1_555
C36 C37 1_555 1_555
C40 C41 1_555 1_555
C44 C45 1_555 1_555
C47 C48 1_555 1_555
C53 C54 1_555 1_555
C59 C60 1_555 1_555

#END
