
#######################################################################
#
#                 Cambridge Crystallographic Data Centre
#                                CCDC 
#
#######################################################################
#
# If this CIF has been generated from an entry in the Cambridge 
# Structural Database, then it will include bibliographic, chemical, 
# crystal, experimental, refinement or atomic coordinate data resulting 
# from the CCDC's data processing and validation procedures.
#
#######################################################################

data_LOTPER
_symmetry_cell_setting           monoclinic
_symmetry_space_group_name_H-M   'C 2/c'
_symmetry_Int_Tables_number      15
_space_group_name_Hall           '-C 2yn'
loop_
_symmetry_equiv_pos_site_id
_symmetry_equiv_pos_as_xyz
1 x,y,z
2 -x,y,1/2-z
3 1/2+x,1/2+y,z
4 1/2-x,1/2+y,1/2-z
5 -x,-y,-z
6 x,-y,1/2+z
7 1/2-x,1/2-y,-z
8 1/2+x,1/2-y,1/2+z
_cell_length_a                   23.402(2)
_cell_length_b                   21.760(2)
_cell_length_c                   26.461(3)
_cell_angle_alpha                90
_cell_angle_beta                 116.239(2)
_cell_angle_gamma                90
_cell_volume                     12086.2
loop_
_atom_site_label
_atom_site_type_symbol
_atom_site_fract_x
_atom_site_fract_y
_atom_site_fract_z
Mo1 Mo -0.38265(3) -0.12861(3) 0.06260(3)
O1 O -0.3261(3) -0.1888(2) 0.1072(2)
O2 O -0.4339(2) -0.1313(2) 0.0984(2)
O3 O -0.3533(3) -0.1490(2) 0.0039(2)
O4 O -0.4571(2) -0.0992(2) -0.0040(2)
O5 O -0.4265(2) -0.2290(2) 0.0223(2)
O6 O -0.3386(2) -0.0657(2) 0.0877(2)
Mo2 Mo -0.33657(3) -0.27793(3) 0.09611(3)
Mo3 Mo -0.51869(4) -0.14369(3) 0.09545(3)
Mo4 Mo -0.37006(3) -0.22431(3) -0.03554(3)
Mo5 Mo -0.54475(3) -0.09642(3) -0.04690(3)
P1 P -0.49653(8) -0.24871(7) 0.00200(7)
O7 O -0.3160(3) -0.2656(2) 0.0346(2)
O8 O -0.3857(2) -0.2746(2) 0.1383(2)
O9 O -0.2653(3) -0.2983(2) 0.1457(2)
O10 O -0.3756(3) -0.3512(2) 0.0677(2)
O11 O -0.5924(3) -0.1862(2) 0.0815(2)
O12 O -0.5212(3) -0.0860(3) 0.1364(3)
O13 O -0.5144(2) -0.2411(2) 0.0506(2)
O14 O -0.5503(3) -0.1093(3) 0.0249(2)
O15 O -0.4725(3) -0.2058(2) 0.1550(2)
O16 O -0.4462(2) -0.1961(2) -0.0925(2)
O17 O -0.4070(3) -0.3058(2) -0.0604(2)
O18 O -0.3203(3) -0.2171(3) -0.0649(2)
O19 O -0.5594(3) -0.0215(3) -0.0579(3)
O20 O -0.6319(2) -0.1292(2) -0.0809(2)
O21 O -0.5405(3) -0.1191(2) -0.1138(2)
O22 O -0.5391(2) -0.2086(2) -0.0472(2)
O23 O -0.5033(2) -0.3155(2) -0.0162(2)
Mo6 Mo -0.46275(4) -0.28859(3) 0.14307(3)
Cu1 Cu -0.24673(7) -0.28953(5) 0.25236(5)
Mo7 Mo -0.45218(3) -0.40322(3) 0.04442(3)
Mo8 Mo -0.61787(4) -0.26861(3) 0.04641(3)
Mo9 Mo -0.53720(3) -0.20419(3) -0.13908(3)
Mo10 Mo -0.47675(3) -0.35853(3) -0.08848(3)
Mo11 Mo -0.65382(3) -0.21232(3) -0.09435(3)
Mo12 Mo -0.60365(3) -0.37287(3) -0.05749(3)
O24 O -0.4666(3) -0.3628(3) 0.0991(2)
O25 O -0.5535(3) -0.3000(3) 0.1159(2)
O26 O -0.4367(3) -0.3167(3) 0.2080(2)
N1 N -0.2479(4) -0.2018(3) 0.2535(3)
O27 O -0.2314(2) -0.2926(2) 0.3632(2)
N2 N -0.2487(4) -0.3772(3) 0.2500(3)
O28 O -0.4201(3) -0.4689(3) 0.0764(3)
O29 O -0.4431(3) -0.4116(3) -0.0263(2)
O30 O -0.5382(2) -0.4236(2) 0.0030(2)
O31 O -0.6128(3) -0.3370(2) 0.0074(2)
O32 O -0.6508(3) -0.2246(2) -0.0236(2)
O33 O -0.6826(3) -0.2821(3) 0.0559(3)
O34 O -0.5441(3) -0.1901(3) -0.2035(2)
O35 O -0.5255(2) -0.2879(2) -0.1321(2)
O36 O -0.6233(2) -0.2107(2) -0.1525(2)
O37 O -0.4670(3) -0.3996(3) -0.1372(2)
O38 O -0.5620(3) -0.3892(2) -0.1018(2)
O39 O -0.6388(3) -0.3002(2) -0.0931(2)
O40 O -0.6639(2) -0.4224(2) -0.0828(2)
C1 C -0.1945(4) -0.1702(4) 0.2799(3)
C2 C -0.3021(4) -0.1707(4) 0.2268(3)
Cu2 Cu -0.64716(6) -0.29952(4) 0.16891(5)
H1 H -0.1564 -0.1916 0.2984
C3 C -0.1931(4) -0.1064(3) 0.2810(3)
C4 C -0.3051(4) -0.1078(3) 0.2259(3)
H2 H -0.3396 -0.1927 0.2077
N3 N -0.6432(3) -0.2122(3) 0.1730(3)
N4 N -0.6436(4) -0.3868(3) 0.1687(3)
H3 H -0.1546 -0.0857 0.3002
C5 C -0.2497(3) -0.0735(3) 0.2531(3)
H4 H -0.3442 -0.0881 0.2072
C6 C -0.6898(4) -0.1784(3) 0.1345(3)
C7 C -0.5931(4) -0.1819(3) 0.2126(4)
C8 C -0.6971(4) -0.4211(3) 0.1521(3)
C9 C -0.5893(5) -0.4172(4) 0.1863(4)
C10 C -0.2502(3) -0.0056(3) 0.2528(3)
C11 C -0.6883(4) -0.1152(3) 0.1344(4)
H5 H -0.7247 -0.1984 0.1068
H6 H -0.5598 -0.2048 0.2392
C12 C -0.5890(4) -0.1189(4) 0.2157(4)
H7 H -0.7360 -0.4007 0.1387
C13 C -0.6972(4) -0.4842(3) 0.1538(3)
C14 C -0.5843(4) -0.4804(4) 0.1899(4)
H8 H -0.5520 -0.3945 0.1970
C15 C -0.1985(4) 0.0292(3) 0.2904(3)
C16 C -0.3026(4) 0.0278(3) 0.2135(3)
C17 C -0.6378(4) -0.0830(3) 0.1756(4)
H9 H -0.7214 -0.0937 0.1063
H10 H -0.5539 -0.1001 0.2443
H11 H -0.7354 -0.5058 0.1413
C18 C -0.6388(4) -0.5157(3) 0.1748(3)
H12 H -0.5447 -0.4992 0.2024
C19 C -0.2007(5) 0.0916(4) 0.2878(4)
H13 H -0.1626 0.0095 0.3172
H14 H -0.3379 0.0071 0.1871
C20 C -0.3018(5) 0.0900(4) 0.2141(4)
C21 C -0.6363(4) -0.0153(3) 0.1754(4)
C22 C -0.6366(4) -0.5832(3) 0.1793(3)
H15 H -0.1658 0.1137 0.3132
H16 H -0.3375 0.1110 0.1886
C23 C -0.6902(5) 0.0189(4) 0.1501(4)
C24 C -0.5812(6) 0.0175(5) 0.1974(10)
C25 C -0.6829(4) -0.6186(3) 0.1385(3)
C26 C -0.5872(4) -0.6138(3) 0.2231(3)
C27 C -0.6870(5) 0.0825(4) 0.1536(4)
H17 H -0.7294 -0.0004 0.1303
H18 H -0.5423 -0.0028 0.2120
C28 C -0.5826(7) 0.0809(6) 0.1981(11)
H19 H -0.7165 -0.6000 0.1083
C29 C -0.6791(4) -0.6824(4) 0.1430(4)
C30 C -0.5861(4) -0.6774(4) 0.2256(4)
H20 H -0.5547 -0.5914 0.2510
N5 N -0.6345(5) 0.1138(4) 0.1768(5)
H21 H -0.7252 0.1042 0.1383
H22 H -0.5439 0.1015 0.2149
N6 N -0.6319(4) -0.7117(3) 0.1841(3)
H23 H -0.7115 -0.7056 0.1158
H24 H -0.5538 -0.6971 0.2560
Cu3 Cu -0.63297(8) 0.20093(5) 0.18293(8)
O27G O -0.7314(2) -0.2074(2) -0.1368(2)
Cu1G Cu -0.74673(7) -0.21047(5) -0.24764(5)
Cu2F Cu -0.85284(6) -0.20048(4) -0.16891(5)
O27A O -0.7686(2) -0.2926(2) 0.1368(2)
N2C N -0.2513(4) 0.1228(3) 0.2500(3)
Cu1C Cu -0.25327(7) 0.21047(5) 0.24764(5)
Cu3_2 Cu -0.63297(8) -0.79907(5) 0.18293(8)
N5_2 N -0.6345(5) -0.8862(4) 0.1768(5)
N7 N -0.7839(7) 0.1042(7) 0.0079(5)
H25 H -0.7582 0.1350 0.0164
H26 H -0.8225 0.1096 0.0029
N8 N -0.7078(6) 0.0335(8) 0.0091(5)
C31 C -0.7639(9) 0.0484(5) 0.0027(5)
C32 C -0.8124(10) -0.0005(7) -0.0135(6)
H27 H -0.8547 0.0065 -0.0212
C33 C -0.7881(12) -0.0580(7) -0.0160(7)
H28 H -0.8169 -0.0902 -0.0242
C34 C -0.7227(17) -0.0762(15) -0.0074(9)
H29 H -0.7087 -0.1154 -0.0104
C35 C -0.6879(17) -0.0227(14) 0.0056(9)
H30 H -0.6453 -0.0263 0.0129
O41 O -0.4563(13) -0.4806(12) 0.1726(11)
loop_
_geom_bond_atom_site_label_1
_geom_bond_atom_site_label_2
_geom_bond_site_symmetry_1
_geom_bond_site_symmetry_2
Mo1 O1 1_555 1_555
O1 Mo2 1_555 1_555
O2 Mo1 1_555 1_555
O3 Mo1 1_555 1_555
O4 Mo1 1_555 1_555
O5 Mo1 1_555 1_555
O6 Mo1 1_555 1_555
Mo2 O5 1_555 1_555
Mo3 O2 1_555 1_555
Mo4 O3 1_555 1_555
Mo5 O4 1_555 1_555
P1 O5 1_555 1_555
O7 Mo2 1_555 1_555
O8 Mo2 1_555 1_555
O9 Mo2 1_555 1_555
O10 Mo2 1_555 1_555
O11 Mo3 1_555 1_555
O12 Mo3 1_555 1_555
O13 Mo3 1_555 1_555
O14 Mo3 1_555 1_555
O15 Mo3 1_555 1_555
O16 Mo4 1_555 1_555
O17 Mo4 1_555 1_555
O18 Mo4 1_555 1_555
O19 Mo5 1_555 1_555
O20 Mo5 1_555 1_555
O21 Mo5 1_555 1_555
O22 Mo5 1_555 1_555
O23 P1 1_555 1_555
Mo6 O8 1_555 1_555
Cu1 O9 1_555 1_555
Mo7 O10 1_555 1_555
Mo8 O11 1_555 1_555
Mo9 O16 1_555 1_555
Mo10 O17 1_555 1_555
Mo11 O20 1_555 1_555
Mo12 O23 1_555 1_555
O24 Mo6 1_555 1_555
O25 Mo6 1_555 1_555
O26 Mo6 1_555 1_555
N1 Cu1 1_555 1_555
O27 Cu1 1_555 1_555
N2 Cu1 1_555 1_555
O28 Mo7 1_555 1_555
O29 Mo7 1_555 1_555
O30 Mo7 1_555 1_555
O31 Mo8 1_555 1_555
O32 Mo8 1_555 1_555
O33 Mo8 1_555 1_555
O34 Mo9 1_555 1_555
O35 Mo9 1_555 1_555
O36 Mo9 1_555 1_555
O37 Mo10 1_555 1_555
O38 Mo10 1_555 1_555
O39 Mo11 1_555 1_555
O40 Mo12 1_555 1_555
C1 N1 1_555 1_555
C2 N1 1_555 1_555
Cu2 O33 1_555 1_555
H1 C1 1_555 1_555
C3 C1 1_555 1_555
C4 C2 1_555 1_555
H2 C2 1_555 1_555
N3 Cu2 1_555 1_555
N4 Cu2 1_555 1_555
H3 C3 1_555 1_555
C5 C3 1_555 1_555
H4 C4 1_555 1_555
C6 N3 1_555 1_555
C7 N3 1_555 1_555
C8 N4 1_555 1_555
C9 N4 1_555 1_555
C10 C5 1_555 1_555
C11 C6 1_555 1_555
H5 C6 1_555 1_555
H6 C7 1_555 1_555
C12 C7 1_555 1_555
H7 C8 1_555 1_555
C13 C8 1_555 1_555
C14 C9 1_555 1_555
H8 C9 1_555 1_555
C15 C10 1_555 1_555
C16 C10 1_555 1_555
C17 C11 1_555 1_555
H9 C11 1_555 1_555
H10 C12 1_555 1_555
H11 C13 1_555 1_555
C18 C13 1_555 1_555
H12 C14 1_555 1_555
C19 C15 1_555 1_555
H13 C15 1_555 1_555
H14 C16 1_555 1_555
C20 C16 1_555 1_555
C21 C17 1_555 1_555
C22 C18 1_555 1_555
H15 C19 1_555 1_555
H16 C20 1_555 1_555
C23 C21 1_555 1_555
C24 C21 1_555 1_555
C25 C22 1_555 1_555
C26 C22 1_555 1_555
C27 C23 1_555 1_555
H17 C23 1_555 1_555
H18 C24 1_555 1_555
C28 C24 1_555 1_555
H19 C25 1_555 1_555
C29 C25 1_555 1_555
C30 C26 1_555 1_555
H20 C26 1_555 1_555
N5 C27 1_555 1_555
H21 C27 1_555 1_555
H22 C28 1_555 1_555
N6 C29 1_555 1_555
H23 C29 1_555 1_555
H24 C30 1_555 1_555
Cu3 N5 1_555 1_555
N7 H25 1_555 1_555
H26 N7 1_555 1_555
N8 C31 1_555 1_555
C31 N7 1_555 1_555
C32 C31 1_555 1_555
H27 C32 1_555 1_555
C33 C32 1_555 1_555
H28 C33 1_555 1_555
C34 C33 1_555 1_555
H29 C34 1_555 1_555
C35 N8 1_555 1_555
H30 C35 1_555 1_555
O27G Mo11 1_555 1_555
Cu1G O27G 1_555 1_555
Cu2F O27G 1_555 1_555
O27A Cu2 1_555 1_555
N2C C19 1_555 1_555
Cu1C N2C 1_555 1_555
Cu3_2 N6 1_555 1_555
N5_2 Cu3_2 1_555 1_555
O5 Mo4 1_555 1_555
Mo4 O7 1_555 1_555
Mo5 O14 1_555 1_555
P1 O13 1_555 1_555
P1 O22 1_555 1_555
O13 Mo6 1_555 1_555
O13 Mo8 1_555 1_555
O15 Mo6 1_555 1_555
O21 Mo9 1_555 1_555
O22 Mo9 1_555 1_555
O22 Mo11 1_555 1_555
O23 Mo7 1_555 1_555
O23 Mo10 1_555 1_555
Mo7 O24 1_555 1_555
Mo8 O25 1_555 1_555
Mo10 O29 1_555 1_555
Mo10 O35 1_555 1_555
Mo11 O32 1_555 1_555
Mo11 O36 1_555 1_555
Mo12 O30 1_555 1_555
Mo12 O31 1_555 1_555
Mo12 O38 1_555 1_555
Mo12 O39 1_555 1_555
C4 C5 1_555 1_555
C12 C17 1_555 1_555
C14 C18 1_555 1_555
C20 N2C 1_555 1_555
C28 N5 1_555 1_555
C30 N6 1_555 1_555
C34 C35 1_555 1_555

#END
