
#######################################################################
#
#                 Cambridge Crystallographic Data Centre
#                                CCDC 
#
#######################################################################
#
# If this CIF has been generated from an entry in the Cambridge 
# Structural Database, then it will include bibliographic, chemical, 
# crystal, experimental, refinement or atomic coordinate data resulting 
# from the CCDC's data processing and validation procedures.
#
#######################################################################

data_LOTPEP
_symmetry_cell_setting           monoclinic
_symmetry_space_group_name_H-M   'C 2/c'
_symmetry_Int_Tables_number      15
_space_group_name_Hall           '-C 2yn'
loop_
_symmetry_equiv_pos_site_id
_symmetry_equiv_pos_as_xyz
1 x,y,z
2 1/2+x,1/2+y,z
3 x,-y,1/2+z
4 1/2+x,1/2-y,1/2+z
5 -x,-y,-z
6 1/2-x,1/2-y,-z
7 -x,y,1/2-z
8 1/2-x,1/2+y,1/2-z
_cell_length_a                   13.645(3)
_cell_length_b                   24.777(5)
_cell_length_c                   15.457(3)
_cell_angle_alpha                90
_cell_angle_beta                 99.560(5)
_cell_angle_gamma                90
_cell_volume                     5153.16
loop_
_atom_site_label
_atom_site_type_symbol
_atom_site_fract_x
_atom_site_fract_y
_atom_site_fract_z
N4 N 0.2848(19) -0.3444(10) 0.8320(12)
C25 C 0.1041(13) -0.3659(6) 0.7813(8)
C26 C 0.0519(10) -0.4142(5) 0.7663(12)
H17 H 0.0859 -0.4476 0.7779
C27 C 0.0511(8) -0.3214(5) 0.7633(8)
H18 H 0.0848 -0.2877 0.7689
C28 C 0.200(2) -0.3527(14) 0.8082(16)
C26F C -0.0519(10) -0.4142(5) 0.7337(12)
C27F C -0.0511(8) -0.3214(5) 0.7367(8)
C25F C -0.1041(13) -0.3659(6) 0.7187(8)
H17F H -0.0859 -0.4476 0.7221
H18F H -0.0848 -0.2877 0.7311
C28F C -0.200(2) -0.3527(14) 0.6918(16)
N4F N -0.2848(19) -0.3444(10) 0.6680(12)
Ni1 Ni 0.0000 -0.00030(6) 0.7500
O1 O -0.0913(4) -0.0018(3) 0.8474(3)
O2 O -0.2395(7) -0.0159(3) 0.8042(7)
O3 O -0.1950(6) -0.0198(3) 0.9313(5)
N1 N -0.1681(7) -0.0011(5) 0.8685(6)
N2 N 0.0856(4) -0.0610(2) 0.8213(4)
N3 N 0.0754(5) 0.0613(2) 0.8272(4)
C1 C 0.1156(5) -0.1035(2) 0.7781(5)
H1 H 0.1073 -0.1020 0.7159
C2 C 0.1745(5) 0.0671(2) 0.8431(4)
H2 H 0.2144 0.0394 0.8244
C3 C 0.1575(5) -0.1489(3) 0.8197(5)
H3 H 0.1764 -0.1782 0.7864
C4 C 0.2211(5) 0.1115(3) 0.8853(4)
H4 H 0.2914 0.1146 0.8939
C5 C 0.1723(6) -0.1517(3) 0.9101(5)
C6 C 0.1632(6) 0.1520(3) 0.9155(5)
C7 C 0.1457(5) -0.1069(3) 0.9554(5)
H5 H 0.1570 -0.1066 1.0177
C8 C 0.0626(6) 0.1453(3) 0.9012(5)
H6 H 0.0210 0.1716 0.9212
C9 C 0.1026(5) -0.0625(3) 0.9089(5)
H7 H 0.0846 -0.0322 0.9405
C10 C 0.0208(5) 0.0993(3) 0.8570(5)
H8 H -0.0494 0.0952 0.8479
C11 C 0.2114(6) -0.2024(3) 0.9566(5)
C12 C 0.2102(6) 0.2024(3) 0.9597(5)
C13 C 0.1461(5) -0.2431(3) 0.9721(4)
C14 C 0.1981(5) 0.2518(3) 0.9137(5)
C15 C 0.3152(5) -0.2083(3) 0.9849(4)
C16 C 0.2617(5) 0.1997(3) 1.0442(5)
C17 C 0.0423(5) -0.2390(3) 0.9452(4)
H9 H 0.0160 -0.2069 0.9166
C18 C 0.1469(6) 0.2551(3) 0.8246(5)
H10 H 0.1209 0.2231 0.7954
C19 C -0.0214(6) -0.2790(3) 0.9588(5)
H11 H -0.0907 -0.2752 0.9392
C20 C 0.1350(6) 0.3032(3) 0.7813(5)
H12 H 0.1005 0.3045 0.7227
C21 C 0.0168(7) -0.3265(3) 1.0024(6)
H13 H -0.0272 -0.3546 1.0126
C22 C 0.1734(6) 0.3507(3) 0.8228(5)
H14 H 0.1631 0.3843 0.7930
C23 C 0.3840(6) -0.1678(3) 0.9701(5)
H15 H 0.3600 -0.1358 0.9400
C24 C 0.2742(5) 0.1510(3) 1.0937(5)
H16 H 0.2453 0.1188 1.0679
O1F O 0.0913(4) -0.0018(3) 0.6526(3)
N2F N -0.0856(4) -0.0610(2) 0.6787(4)
N3F N -0.0754(5) 0.0613(2) 0.6728(4)
C15E C 0.1848(5) -0.2917(3) 1.0151(4)
C16E C 0.2383(5) 0.3003(3) 0.9558(5)
C13E C 0.3539(5) -0.2569(3) 1.0279(4)
C14E C 0.3019(5) 0.2482(3) 1.0863(5)
C23E C 0.1160(6) -0.3322(3) 1.0299(5)
C24E C 0.2258(5) 0.3490(3) 0.9063(5)
C21E C 0.4832(7) -0.1735(3) 0.9976(6)
C22E C 0.3266(6) 0.1493(3) 1.1772(5)
N1F N 0.1681(7) -0.0011(5) 0.6315(6)
C11E C 0.2886(6) -0.2976(3) 1.0434(5)
C12E C 0.2898(6) 0.2976(3) 1.0403(5)
C17E C 0.4577(5) -0.2610(3) 1.0548(4)
C18E C 0.3531(6) 0.2449(3) 1.1754(5)
H15E H 0.1400 -0.3642 1.0600
H16E H 0.2547 0.3812 0.9321
C19E C 0.5214(6) -0.2210(3) 1.0412(5)
H13E H 0.5272 -0.1454 0.9874
C20E C 0.3650(6) 0.1968(3) 1.2187(5)
H14E H 0.3369 0.1157 1.2070
O2F O 0.2395(7) -0.0159(3) 0.6958(7)
O3F O 0.1950(6) -0.0198(3) 0.5687(5)
C5E C 0.3277(6) -0.3483(3) 1.0899(5)
C6E C 0.3368(6) 0.3480(3) 1.0845(5)
H9E H 0.4840 -0.2931 1.0834
H10E H 0.3791 0.2769 1.2046
H11E H 0.5907 -0.2248 1.0608
H12E H 0.3995 0.1955 1.2773
C3E C 0.3425(5) -0.3511(3) 1.1803(5)
C7E C 0.3543(5) -0.3931(3) 1.0446(5)
C4E C 0.2789(5) 0.3885(3) 1.1147(4)
C8E C 0.4374(6) 0.3547(3) 1.0988(5)
C1E C 0.3844(5) -0.3965(2) 1.2219(5)
H3E H 0.3236 -0.3218 1.2136
H5E H 0.3430 -0.3934 0.9823
C9E C 0.3974(5) -0.4375(3) 1.0911(5)
C2E C 0.3255(5) 0.4329(2) 1.1569(4)
H4E H 0.2086 0.3854 1.1061
H6E H 0.4790 0.3284 1.0788
C10E C 0.4792(5) 0.4007(3) 1.1430(5)
N2E N 0.4144(4) -0.4390(2) 1.1787(4)
H1E H 0.3927 -0.3980 1.2841
H7E H 0.4154 -0.4678 1.0595
N3E N 0.4246(5) 0.4387(2) 1.1728(4)
H2E H 0.2856 0.4606 1.1756
H8E H 0.5494 0.4048 1.1521
Ni1C Ni 0.5000 -0.49970(6) 1.2500
Ni1C_2 Ni 0.5000 0.50030(6) 1.2500
N5? N -0.402(4) -0.0482(9) 0.6776(15)
C29? C -0.425(3) -0.0306(6) 0.6142(11)
C30? C -0.532(4) -0.0325(12) 0.608(2)
C31? C -0.483(2) -0.0098(6) 0.5339(12)
C32? C -0.5790(9) -0.0055(6) 0.5218(13)
C33? C -0.6256(18) 0.0157(10) 0.450(4)
loop_
_geom_bond_atom_site_label_1
_geom_bond_atom_site_label_2
_geom_bond_site_symmetry_1
_geom_bond_site_symmetry_2
Ni1 O1 1_555 1_555
O1 N1 1_555 1_555
O2 N1 1_555 1_555
O3 N1 1_555 1_555
N2 Ni1 1_555 1_555
N3 Ni1 1_555 1_555
C1 N2 1_555 1_555
H1 C1 1_555 1_555
C2 N3 1_555 1_555
H2 C2 1_555 1_555
C3 C1 1_555 1_555
H3 C3 1_555 1_555
C4 C2 1_555 1_555
H4 C4 1_555 1_555
C5 C3 1_555 1_555
C6 C4 1_555 1_555
C7 C5 1_555 1_555
H5 C7 1_555 1_555
C8 C6 1_555 1_555
H6 C8 1_555 1_555
C9 N2 1_555 1_555
H7 C9 1_555 1_555
C10 N3 1_555 1_555
H8 C10 1_555 1_555
C11 C5 1_555 1_555
C12 C6 1_555 1_555
C13 C11 1_555 1_555
C14 C12 1_555 1_555
C15 C11 1_555 1_555
C16 C12 1_555 1_555
C17 C13 1_555 1_555
H9 C17 1_555 1_555
C18 C14 1_555 1_555
H10 C18 1_555 1_555
C19 C17 1_555 1_555
H11 C19 1_555 1_555
C20 C18 1_555 1_555
H12 C20 1_555 1_555
C21 C19 1_555 1_555
H13 C21 1_555 1_555
C22 C20 1_555 1_555
H14 C22 1_555 1_555
C23 C15 1_555 1_555
H15 C23 1_555 1_555
C24 C16 1_555 1_555
H16 C24 1_555 1_555
N4 C28 1_555 1_555
C25 C26 1_555 1_555
C26 H17 1_555 1_555
C27 C25 1_555 1_555
H18 C27 1_555 1_555
C28 C25 1_555 1_555
O1F Ni1 1_555 1_555
N2F Ni1 1_555 1_555
N3F Ni1 1_555 1_555
C15E C13 1_555 1_555
C16E C14 1_555 1_555
C13E C15 1_555 1_555
C14E C16 1_555 1_555
C23E C21 1_555 1_555
C24E C22 1_555 1_555
C21E C23 1_555 1_555
C22E C24 1_555 1_555
C26F C26 1_555 1_555
C27F C27 1_555 1_555
N1F O1F 1_555 1_555
C11E C15E 1_555 1_555
C12E C16E 1_555 1_555
C17E C13E 1_555 1_555
C18E C14E 1_555 1_555
H15E C23E 1_555 1_555
H16E C24E 1_555 1_555
C19E C21E 1_555 1_555
H13E C21E 1_555 1_555
C20E C22E 1_555 1_555
H14E C22E 1_555 1_555
C25F C26F 1_555 1_555
H17F C26F 1_555 1_555
H18F C27F 1_555 1_555
O2F N1F 1_555 1_555
O3F N1F 1_555 1_555
C5E C11E 1_555 1_555
C6E C12E 1_555 1_555
H9E C17E 1_555 1_555
H10E C18E 1_555 1_555
H11E C19E 1_555 1_555
H12E C20E 1_555 1_555
C28F C25F 1_555 1_555
C3E C5E 1_555 1_555
C7E C5E 1_555 1_555
C4E C6E 1_555 1_555
C8E C6E 1_555 1_555
N4F C28F 1_555 1_555
C1E C3E 1_555 1_555
H3E C3E 1_555 1_555
H5E C7E 1_555 1_555
C9E C7E 1_555 1_555
C2E C4E 1_555 1_555
H4E C4E 1_555 1_555
H6E C8E 1_555 1_555
C10E C8E 1_555 1_555
N2E C1E 1_555 1_555
H1E C1E 1_555 1_555
H7E C9E 1_555 1_555
N3E C2E 1_555 1_555
H2E C2E 1_555 1_555
H8E C10E 1_555 1_555
Ni1C N2E 1_555 1_555
Ni1C_2 N3E 1_555 1_555
C7 C9 1_555 1_555
C8 C10 1_555 1_555
C15E C23E 1_555 1_555
C16E C24E 1_555 1_555
C13E C11E 1_555 1_555
C14E C12E 1_555 1_555
C27F C25F 1_555 1_555
C17E C19E 1_555 1_555
C18E C20E 1_555 1_555
C9E N2E 1_555 1_555
C10E N3E 1_555 1_555

#END
