
#######################################################################
#
#                 Cambridge Crystallographic Data Centre
#                                CCDC 
#
#######################################################################
#
# If this CIF has been generated from an entry in the Cambridge 
# Structural Database, then it will include bibliographic, chemical, 
# crystal, experimental, refinement or atomic coordinate data resulting 
# from the CCDC's data processing and validation procedures.
#
#######################################################################

data_LOTQOA
_symmetry_cell_setting           monoclinic
_symmetry_space_group_name_H-M   'C 2/m'
_symmetry_Int_Tables_number      12
_space_group_name_Hall           '-C 2y'
loop_
_symmetry_equiv_pos_site_id
_symmetry_equiv_pos_as_xyz
1 x,y,z
2 1/2+x,1/2+y,z
3 x,-y,z
4 1/2+x,1/2-y,z
5 -x,-y,-z
6 1/2-x,1/2-y,-z
7 -x,y,-z
8 1/2-x,1/2+y,-z
_cell_length_a                   29.5142(7)
_cell_length_b                   7.5761(3)
_cell_length_c                   11.3905(4)
_cell_angle_alpha                90
_cell_angle_beta                 106.141(2)
_cell_angle_gamma                90
_cell_volume                     2446.55
loop_
_atom_site_label
_atom_site_type_symbol
_atom_site_fract_x
_atom_site_fract_y
_atom_site_fract_z
Cu1 Cu 0.33661(2) 0.0000 0.59917(6)
N1 N 0.34019(13) 0.2170(4) 0.5068(3)
C1 C 0.34776(14) 0.3527(5) 0.4709(3)
N2 N 0.3575(2) 0.5000 0.4234(5)
N3 N 0.28521(16) 0.0000 0.6830(4)
C2 C 0.26200(18) 0.0000 0.7472(5)
C3 C 0.2326(2) 0.0000 0.8318(6)
H1 H 0.2529 0.0000 0.9161
H2 H 0.2127 -0.1056 0.8179
H3 H 0.2127 0.1056 0.8179
N4 N 0.39651(16) 0.0000 0.7493(4)
C4 C 0.4395(2) 0.0000 0.7347(6)
H4 H 0.4421 0.0000 0.6535
C5 C 0.4804(2) 0.0000 0.8279(6)
H5 H 0.5100 0.0000 0.8105
C6 C 0.47819(18) 0.0000 0.9475(5)
C7 C 0.4341(2) 0.0000 0.9635(5)
H6 H 0.4305 0.0000 1.0438
C8 C 0.39473(19) 0.0000 0.8642(5)
H7 H 0.3646 0.0000 0.8790
C1B C 0.34776(14) 0.6473(5) 0.4709(3)
N1B N 0.34019(13) 0.7830(4) 0.5068(3)
C6D C 0.52181(18) 0.0000 1.0525(5)
C5D C 0.5196(2) 0.0000 1.1721(6)
C4D C 0.5605(2) 0.0000 1.2653(6)
N4D N 0.60349(16) 0.0000 1.2507(4)
C8D C 0.60527(19) 0.0000 1.1358(5)
C7D C 0.5659(2) 0.0000 1.0365(5)
H6D H 0.5695 0.0000 0.9562
H7D H 0.6354 0.0000 1.1210
H4D H 0.5579 0.0000 1.3465
H5D H 0.4900 0.0000 1.1895
N1B_2 N 0.34019(13) -0.2170(4) 0.5068(3)
Cu1B Cu 0.33661(2) 1.0000 0.59917(6)
Cu1D Cu 0.66339(2) 0.0000 1.40083(6)
N1D N 0.65981(13) -0.2170(4) 1.4932(3)
C1D C 0.65224(14) -0.3527(5) 1.5291(3)
N2D N 0.6425(2) -0.5000 1.5766(5)
C1F C 0.65224(14) -0.6473(5) 1.5291(3)
N1F N 0.65981(13) -0.7830(4) 1.4932(3)
N1F_2 N 0.65981(13) 0.2170(4) 1.4932(3)
N3D N 0.71479(16) 0.0000 1.3170(4)
C2D C 0.73800(18) 0.0000 1.2528(5)
C3D C 0.7674(2) 0.0000 1.1682(6)
H1D H 0.7471 0.0000 1.0839
H2D H 0.7873 0.1056 1.1821
H3D H 0.7873 -0.1056 1.1821
Cu1F Cu 0.66339(2) -1.0000 1.40083(6)
Cu2 Cu 0.32968(2) 0.0000 0.12128(6)
N5 N 0.33168(12) 0.2169(5) 0.0265(3)
C9 C 0.33722(13) 0.3520(6) -0.0122(3)
N6 N 0.34448(17) 0.5000 -0.0640(4)
N7 N 0.28024(17) 0.0000 0.2080(4)
C10 C 0.25664(19) 0.0000 0.2708(5)
C11 C 0.2264(2) 0.0000 0.3531(5)
H8 H 0.2460 0.0000 0.4380
H9 H 0.2064 -0.1056 0.3382
H10 H 0.2064 0.1056 0.3382
N8 N 0.39294(16) 0.0000 0.2607(4)
C12 C 0.41381(18) 0.1478(7) 0.3087(5)
H11 H 0.3996 0.2565 0.2767
C13 C 0.45532(18) 0.1535(7) 0.4033(5)
H12 H 0.4684 0.2640 0.4348
C14 C 0.47735(13) 0.0000 0.4511(3)
C9B C 0.33722(13) 0.6480(6) -0.0122(3)
N5B N 0.33168(12) 0.7831(5) 0.0265(3)
C13B C 0.45532(18) -0.1535(7) 0.4033(5)
C12B C 0.41381(18) -0.1478(7) 0.3087(5)
H11B H 0.3996 -0.2565 0.2767
H12B H 0.4684 -0.2640 0.4348
C14D C 0.52265(13) 0.0000 0.5489(3)
C13D C 0.54468(18) -0.1535(7) 0.5967(5)
C12D C 0.58619(18) -0.1478(7) 0.6913(5)
N8D N 0.60706(16) 0.0000 0.7393(4)
C12F C 0.58619(18) 0.1478(7) 0.6913(5)
H11F H 0.6004 0.2565 0.7233
C13F C 0.54468(18) 0.1535(7) 0.5967(5)
H12F H 0.5316 0.2640 0.5652
H11D H 0.6004 -0.2565 0.7233
H12D H 0.5316 -0.2640 0.5652
N5B_2 N 0.33168(12) -0.2169(5) 0.0265(3)
Cu2B Cu 0.32968(2) 1.0000 0.12128(6)
Cu2D Cu 0.67032(2) 0.0000 0.87872(6)
N5D N 0.66832(12) -0.2169(5) 0.9735(3)
C9D C 0.66278(13) -0.3520(6) 1.0122(3)
N6D N 0.65552(17) -0.5000 1.0640(4)
C9F C 0.66278(13) -0.6480(6) 1.0122(3)
N5F N 0.66832(12) -0.7831(5) 0.9735(3)
N5F_2 N 0.66832(12) 0.2169(5) 0.9735(3)
N7D N 0.71976(17) 0.0000 0.7920(4)
C10D C 0.74336(19) 0.0000 0.7292(5)
C11D C 0.7736(2) 0.0000 0.6469(5)
H8D H 0.7540 0.0000 0.5620
H9D H 0.7936 0.1056 0.6618
H10D H 0.7936 -0.1056 0.6618
Cu2F Cu 0.67032(2) -1.0000 0.87872(6)
N9 N 0.51868(13) 0.5000 0.3261(3)
C15 C 0.47345(13) 0.5000 0.2464(3)
C16 C 0.46722(13) 0.5000 0.1209(3)
C17 C 0.50622(13) 0.5000 0.0750(3)
C18 C 0.55145(13) 0.5000 0.1547(3)
C19 C 0.55768(13) 0.5000 0.2802(3)
C17D C 0.49378(13) 0.5000 -0.0750(3)
C16D C 0.53278(13) 0.5000 -0.1209(3)
C15D C 0.52655(13) 0.5000 -0.2464(3)
N9D N 0.48132(13) 0.5000 -0.3261(3)
C19D C 0.44232(13) 0.5000 -0.2802(3)
C18D C 0.44855(13) 0.5000 -0.1547(3)
loop_
_geom_bond_atom_site_label_1
_geom_bond_atom_site_label_2
_geom_bond_site_symmetry_1
_geom_bond_site_symmetry_2
Cu1 N1 1_555 1_555
Cu2 N5 1_555 1_555
N1 C1 1_555 1_555
C1 N2 1_555 1_555
N2 C1B 1_555 1_555
N3 Cu1 1_555 1_555
C2 N3 1_555 1_555
C3 C2 1_555 1_555
H1 C3 1_555 1_555
H2 C3 1_555 1_555
H3 C3 1_555 1_555
N4 Cu1 1_555 1_555
C4 N4 1_555 1_555
H4 C4 1_555 1_555
C5 C4 1_555 1_555
H5 C5 1_555 1_555
C6 C5 1_555 1_555
C7 C6 1_555 1_555
H6 C7 1_555 1_555
C8 N4 1_555 1_555
H7 C8 1_555 1_555
N5 C9 1_555 1_555
C9 N6 1_555 1_555
N6 C9B 1_555 1_555
N7 Cu2 1_555 1_555
C10 N7 1_555 1_555
C11 C10 1_555 1_555
H8 C11 1_555 1_555
H9 C11 1_555 1_555
H10 C11 1_555 1_555
N8 Cu2 1_555 1_555
C12 N8 1_555 1_555
H11 C12 1_555 1_555
C13 C12 1_555 1_555
H12 C13 1_555 1_555
C14 C13 1_555 1_555
N9 C15 1_555 1_555
C15 C16 1_555 1_555
C16 C17 1_555 1_555
C17 C18 1_555 1_555
C18 C19 1_555 1_555
C19 N9 1_555 1_555
C1B N1B 1_555 1_555
N1B Cu1B 1_555 1_555
C6D C6 1_555 1_555
C5D C6D 1_555 1_555
C4D C5D 1_555 1_555
N4D C4D 1_555 1_555
C8D N4D 1_555 1_555
C7D C6D 1_555 1_555
H6D C7D 1_555 1_555
H7D C8D 1_555 1_555
H4D C4D 1_555 1_555
H5D C5D 1_555 1_555
C9B N5B 1_555 1_555
N5B Cu2B 1_555 1_555
C13B C14 1_555 1_555
C12B N8 1_555 1_555
H11B C12B 1_555 1_555
H12B C13B 1_555 1_555
C14D C14 1_555 1_555
C13D C14D 1_555 1_555
C12D C13D 1_555 1_555
N8D C12D 1_555 1_555
C12F N8D 1_555 1_555
H11F C12F 1_555 1_555
C13F C14D 1_555 1_555
H12F C13F 1_555 1_555
H11D C12D 1_555 1_555
H12D C13D 1_555 1_555
C17D C17 1_555 1_555
C16D C17D 1_555 1_555
C15D C16D 1_555 1_555
N9D C15D 1_555 1_555
C19D N9D 1_555 1_555
C18D C17D 1_555 1_555
N1B_2 Cu1 1_555 1_555
Cu1D N4D 1_555 1_555
N1D Cu1D 1_555 1_555
C1D N1D 1_555 1_555
N2D C1D 1_555 1_555
C1F N2D 1_555 1_555
N1F C1F 1_555 1_555
N1F_2 Cu1D 1_555 1_555
N3D Cu1D 1_555 1_555
C2D N3D 1_555 1_555
C3D C2D 1_555 1_555
H1D C3D 1_555 1_555
H2D C3D 1_555 1_555
H3D C3D 1_555 1_555
Cu1F N1F 1_555 1_555
N5B_2 Cu2 1_555 1_555
Cu2D N8D 1_555 1_555
N5D Cu2D 1_555 1_555
C9D N5D 1_555 1_555
N6D C9D 1_555 1_555
C9F N6D 1_555 1_555
N5F C9F 1_555 1_555
N5F_2 Cu2D 1_555 1_555
N7D Cu2D 1_555 1_555
C10D N7D 1_555 1_555
C11D C10D 1_555 1_555
H8D C11D 1_555 1_555
H9D C11D 1_555 1_555
H10D C11D 1_555 1_555
Cu2F N5F 1_555 1_555
C7 C8 1_555 1_555
C8D C7D 1_555 1_555
C13B C12B 1_555 1_555
C12F C13F 1_555 1_555
C19D C18D 1_555 1_555

#END
