
#######################################################################
#
#                 Cambridge Crystallographic Data Centre
#                                CCDC 
#
#######################################################################
#
# If this CIF has been generated from an entry in the Cambridge 
# Structural Database, then it will include bibliographic, chemical, 
# crystal, experimental, refinement or atomic coordinate data resulting 
# from the CCDC's data processing and validation procedures.
#
#######################################################################

data_LOTQAM
_symmetry_cell_setting           monoclinic
_symmetry_space_group_name_H-M   'C 2/c'
_symmetry_Int_Tables_number      15
_space_group_name_Hall           '-C 2yn'
loop_
_symmetry_equiv_pos_site_id
_symmetry_equiv_pos_as_xyz
1 x,y,z
2 1/2+x,1/2+y,z
3 x,-y,1/2+z
4 1/2+x,1/2-y,1/2+z
5 -x,-y,-z
6 1/2-x,1/2-y,-z
7 -x,y,1/2-z
8 1/2-x,1/2+y,1/2-z
_cell_length_a                   25.142(3)
_cell_length_b                   7.3605(10)
_cell_length_c                   11.8715(15)
_cell_angle_alpha                90
_cell_angle_beta                 109.488(2)
_cell_angle_gamma                90
_cell_volume                     2071.05
loop_
_atom_site_label
_atom_site_type_symbol
_atom_site_fract_x
_atom_site_fract_y
_atom_site_fract_z
Cu1 Cu -0.5000 0.90757(6) -0.2500
N1 N -0.49416(9) 1.1673(3) -0.09409(19)
O1 O -0.48369(9) 1.3068(3) -0.03481(18)
O2 O -0.53875(8) 1.0801(3) -0.11435(17)
O3 O -0.45804(7) 1.1060(2) -0.14046(15)
N2 N -0.06138(8) -0.2272(3) 0.18181(17)
C1 C -0.10124(11) -0.2549(3) 0.0755(2)
H1 H -0.0977 -0.3559 0.0288
C2 C -0.14756(11) -0.1413(3) 0.0314(2)
H2 H -0.1751 -0.1661 -0.0440
C3 C -0.15386(10) 0.0089(3) 0.0971(2)
C4 C -0.11178(10) 0.0373(3) 0.2072(2)
H3 H -0.1140 0.1382 0.2554
C5 C -0.06705(10) -0.0816(3) 0.2459(2)
H4 H -0.0389 -0.0600 0.3211
C6 C -0.20312(10) 0.1332(3) 0.0486(2)
C7 C -0.20245(10) 0.2623(3) -0.0387(2)
C8 C -0.24989(10) 0.1194(3) 0.0886(2)
C9 C -0.25121(11) -0.0048(3) 0.1796(2)
H5 H -0.2204 -0.0852 0.2128
C10 C -0.29576(11) -0.0101(3) 0.2195(2)
H6 H -0.2952 -0.0910 0.2823
C11 C -0.34290(10) 0.1029(4) 0.1691(2)
H7 H -0.3741 0.0956 0.1971
C12 C -0.15572(10) 0.2782(3) -0.0811(2)
H8 H -0.1233 0.2046 -0.0471
C8E C -0.25011(10) 0.3806(3) -0.0886(2)
C6E C -0.29688(10) 0.3668(3) -0.0486(2)
C3E C -0.34614(10) 0.4911(3) -0.0971(2)
C2E C -0.35244(11) 0.6413(3) -0.0314(2)
C1E C -0.39876(11) 0.7549(3) -0.0755(2)
N2E N -0.43862(8) 0.7272(3) -0.18181(17)
Cu1C Cu 0.0000 -0.40757(6) 0.2500
O2F O -0.46125(8) 1.0801(3) -0.38565(17)
N1F N -0.50584(9) 1.1673(3) -0.40591(19)
O1F O -0.51631(9) 1.3068(3) -0.46519(18)
O3F O -0.54196(7) 1.1060(2) -0.35954(15)
N2C N -0.56138(8) 0.7272(3) -0.31819(17)
C5E C -0.43295(10) 0.5816(3) -0.2459(2)
C4E C -0.38822(10) 0.4627(3) -0.2072(2)
H3E H -0.3860 0.3618 -0.2554
H4E H -0.4611 0.5600 -0.3211
H1E H -0.4023 0.8559 -0.0288
H2E H -0.3249 0.6661 0.0440
C7E C -0.29755(10) 0.2377(3) 0.0387(2)
C12E C -0.34428(10) 0.2218(3) 0.0811(2)
H8E H -0.3767 0.2954 0.0471
C9E C -0.24879(11) 0.5048(3) -0.1796(2)
H5E H -0.2796 0.5852 -0.2128
C10E C -0.20424(11) 0.5101(3) -0.2195(2)
H6E H -0.2048 0.5910 -0.2823
C11E C -0.15710(10) 0.3971(4) -0.1691(2)
H7E H -0.1259 0.4044 -0.1971
loop_
_geom_bond_atom_site_label_1
_geom_bond_atom_site_label_2
_geom_bond_site_symmetry_1
_geom_bond_site_symmetry_2
Cu1 O2 1_555 1_555
N1 O1 1_555 1_555
O2 N1 1_555 1_555
O3 Cu1 1_555 1_555
N2 C1 1_555 1_555
C1 H1 1_555 1_555
C2 C1 1_555 1_555
H2 C2 1_555 1_555
C3 C2 1_555 1_555
C4 C3 1_555 1_555
H3 C4 1_555 1_555
C5 N2 1_555 1_555
H4 C5 1_555 1_555
C6 C3 1_555 1_555
C7 C6 1_555 1_555
C8 C6 1_555 1_555
C9 C8 1_555 1_555
H5 C9 1_555 1_555
C10 C9 1_555 1_555
H6 C10 1_555 1_555
C11 C10 1_555 1_555
H7 C11 1_555 1_555
C12 C7 1_555 1_555
H8 C12 1_555 1_555
C8E C7 1_555 1_555
C6E C8E 1_555 1_555
C3E C6E 1_555 1_555
C2E C3E 1_555 1_555
C1E C2E 1_555 1_555
N2E Cu1 1_555 1_555
Cu1C N2 1_555 1_555
O2F Cu1 1_555 1_555
N1F O2F 1_555 1_555
O1F N1F 1_555 1_555
O3F Cu1 1_555 1_555
N2C Cu1 1_555 1_555
C5E N2E 1_555 1_555
C4E C3E 1_555 1_555
H3E C4E 1_555 1_555
H4E C5E 1_555 1_555
H1E C1E 1_555 1_555
H2E C2E 1_555 1_555
C7E C8 1_555 1_555
C12E C11 1_555 1_555
H8E C12E 1_555 1_555
C9E C8E 1_555 1_555
H5E C9E 1_555 1_555
C10E C9E 1_555 1_555
H6E C10E 1_555 1_555
C11E C12 1_555 1_555
H7E C11E 1_555 1_555
N1 O3 1_555 1_555
C4 C5 1_555 1_555
C6E C7E 1_555 1_555
C1E N2E 1_555 1_555
N1F O3F 1_555 1_555
C5E C4E 1_555 1_555
C7E C12E 1_555 1_555
C10E C11E 1_555 1_555

#END
