
#######################################################################
#
#                 Cambridge Crystallographic Data Centre
#                                CCDC 
#
#######################################################################
#
# If this CIF has been generated from an entry in the Cambridge 
# Structural Database, then it will include bibliographic, chemical, 
# crystal, experimental, refinement or atomic coordinate data resulting 
# from the CCDC's data processing and validation procedures.
#
#######################################################################

data_LOTRIV
_symmetry_cell_setting           monoclinic
_symmetry_space_group_name_H-M   'P 21/c'
_symmetry_Int_Tables_number      14
_space_group_name_Hall           '-P 2ybc'
loop_
_symmetry_equiv_pos_site_id
_symmetry_equiv_pos_as_xyz
1 x,y,z
2 x,1/2-y,1/2+z
3 -x,-y,-z
4 -x,1/2+y,1/2-z
_cell_length_a                   3.8105(16)
_cell_length_b                   15.819(7)
_cell_length_c                   13.311(6)
_cell_angle_alpha                90
_cell_angle_beta                 96.045(7)
_cell_angle_gamma                90
_cell_volume                     797.903
loop_
_atom_site_label
_atom_site_type_symbol
_atom_site_fract_x
_atom_site_fract_y
_atom_site_fract_z
Cu1 Cu 0.7413(3) 0.06249(6) 0.02847(7)
Cl1 Cl 0.8061(5) -0.07699(10) 0.08557(13)
N1 N 0.7320(15) 0.1677(3) 0.1130(4)
C1 C 0.8235(18) 0.2411(4) 0.0701(5)
H1 H 0.8801 0.2373 0.0037
C2 C 0.7891(17) 0.3188(4) 0.1143(5)
C3 C 0.6658(18) 0.3223(4) 0.2089(5)
H2 H 0.6689 0.3740 0.2351
C4 C 0.5775(19) 0.2481(4) 0.2541(5)
H3 H 0.5015 0.2503 0.3222
C5 C 0.6103(18) 0.1716(4) 0.2041(5)
C6 C 0.8817(19) 0.3976(4) 0.0629(5)
O1 O 0.8214(16) 0.4669(3) 0.1006(4)
O2 O 1.0215(15) 0.3881(3) -0.0196(4)
H4 H 1.0477 0.4298 -0.0429
C7 C 0.504(2) 0.0894(4) 0.2487(6)
H5 H 0.7239 0.0688 0.2540
H6 H 0.4701 0.1084 0.3147
H7 H 0.3140 0.0592 0.2149
Cl1B Cl 0.1939(5) 0.07699(10) -0.08557(13)
Cl1B_2 Cl 1.1939(5) 0.07699(10) -0.08557(13)
Cu1B Cu 0.2587(3) -0.06249(6) -0.02847(7)
Cu1B_2 Cu 1.2587(3) -0.06249(6) -0.02847(7)
loop_
_geom_bond_atom_site_label_1
_geom_bond_atom_site_label_2
_geom_bond_site_symmetry_1
_geom_bond_site_symmetry_2
Cu1 Cl1 1_555 1_555
Cl1 Cu1B 1_555 1_555
N1 Cu1 1_555 1_555
C1 N1 1_555 1_555
H1 C1 1_555 1_555
C2 C1 1_555 1_555
C3 C2 1_555 1_555
H2 C3 1_555 1_555
C4 C3 1_555 1_555
H3 C4 1_555 1_555
C5 N1 1_555 1_555
C6 C2 1_555 1_555
O1 C6 1_555 1_555
O2 C6 1_555 1_555
H4 O2 1_555 1_555
C7 C5 1_555 1_555
H5 C7 1_555 1_555
H6 C7 1_555 1_555
H7 C7 1_555 1_555
Cl1B Cu1 1_555 1_555
Cl1B_2 Cu1 1_555 1_555
Cu1B Cl1B 1_555 1_555
Cu1B_2 Cl1 1_555 1_555
C4 C5 1_555 1_555
Cl1B_2 Cu1B_2 1_555 1_555

#END
