
#######################################################################
#
#                 Cambridge Crystallographic Data Centre
#                                CCDC 
#
#######################################################################
#
# If this CIF has been generated from an entry in the Cambridge 
# Structural Database, then it will include bibliographic, chemical, 
# crystal, experimental, refinement or atomic coordinate data resulting 
# from the CCDC's data processing and validation procedures.
#
#######################################################################

data_LOTRER01
_symmetry_cell_setting           orthorhombic
_symmetry_space_group_name_H-M   'P n a 21'
_symmetry_Int_Tables_number      33
_space_group_name_Hall           'P 2c -2n'
loop_
_symmetry_equiv_pos_site_id
_symmetry_equiv_pos_as_xyz
1 x,y,z
2 -x,-y,1/2+z
3 1/2+x,1/2-y,z
4 1/2-x,1/2+y,1/2+z
_cell_length_a                   7.38350(10)
_cell_length_b                   15.2140(5)
_cell_length_c                   12.1963(4)
_cell_angle_alpha                90
_cell_angle_beta                 90
_cell_angle_gamma                90
_cell_volume                     1370.04
loop_
_atom_site_label
_atom_site_type_symbol
_atom_site_fract_x
_atom_site_fract_y
_atom_site_fract_z
Cu1 Cu -0.07212(3) -0.882371(15) -0.16698(3)
N1 N -0.1679(3) -0.82334(12) -0.30257(14)
C1 C -0.2106(3) -0.87475(15) -0.38827(19)
H1 H -0.2044 -0.9367 -0.3788
C2 C -0.2631(3) -0.84286(16) -0.48934(18)
H2 H -0.2914 -0.8824 -0.5472
C3 C -0.2743(3) -0.75231(15) -0.50623(17)
C4 C -0.2319(3) -0.69911(16) -0.41772(17)
H3 H -0.2381 -0.6370 -0.4247
C5 C -0.1802(3) -0.73666(15) -0.31876(19)
H4 H -0.1520 -0.6987 -0.2593
C6 C -0.3287(3) -0.71378(17) -0.61197(18)
H5 H -0.3373 -0.6516 -0.6167
C7 C -0.3663(3) -0.76021(16) -0.70093(17)
H6 H -0.3570 -0.8223 -0.6942
C8 C -0.4869(3) -0.75391(16) -0.99849(18)
H7 H -0.4961 -0.7948 -1.0571
C9 C -0.4395(3) -0.78519(15) -0.89614(18)
H8 H -0.4196 -0.8463 -0.8852
C10 C -0.4209(3) -0.72652(15) -0.80894(17)
C11 C -0.4561(3) -0.63838(15) -0.83012(19)
H9 H -0.4454 -0.5960 -0.7733
C12 C -0.5066(3) -0.61301(16) -0.93399(19)
H10 H -0.5329 -0.5527 -0.9462
N2 N -0.5207(3) -0.66872(12) -1.01954(15)
N3 N 0.4472(3) -1.01807(14) -0.2356(2)
C13 C 0.2903(3) -0.98163(14) -0.21548(19)
N4 N 0.1465(3) -0.95433(13) -0.20516(16)
C14 C 0.5891(3) -0.99418(13) -0.1790(3)
N5 N 0.7241(3) -0.97791(14) -0.13556(18)
N2B N -0.0207(3) -0.83128(12) -0.01954(15)
N5_2 N -0.2759(3) -0.97791(14) -0.13556(18)
Cu1B Cu -0.57212(3) -0.617629(15) -1.16698(3)
Cu1_2 Cu 0.92788(3) -0.882371(15) -0.16698(3)
loop_
_geom_bond_atom_site_label_1
_geom_bond_atom_site_label_2
_geom_bond_site_symmetry_1
_geom_bond_site_symmetry_2
Cu1 N1 1_555 1_555
N1 C1 1_555 1_555
C1 H1 1_555 1_555
C2 C1 1_555 1_555
H2 C2 1_555 1_555
C3 C2 1_555 1_555
C4 C3 1_555 1_555
H3 C4 1_555 1_555
C5 N1 1_555 1_555
H4 C5 1_555 1_555
C6 C3 1_555 1_555
H5 C6 1_555 1_555
C7 C6 1_555 1_555
H6 C7 1_555 1_555
C8 H7 1_555 1_555
C9 C8 1_555 1_555
H8 C9 1_555 1_555
C10 C7 1_555 1_555
C11 C10 1_555 1_555
H9 C11 1_555 1_555
C12 C11 1_555 1_555
H10 C12 1_555 1_555
N2 C8 1_555 1_555
N3 C13 1_555 1_555
C13 N4 1_555 1_555
N4 Cu1 1_555 1_555
C14 N3 1_555 1_555
N5 C14 1_555 1_555
N2B Cu1 1_555 1_555
N5_2 Cu1 1_555 1_555
Cu1B N2 1_555 1_555
Cu1_2 N5 1_555 1_555
C4 C5 1_555 1_555
C9 C10 1_555 1_555
C12 N2 1_555 1_555

#END
