
#######################################################################
#
#                 Cambridge Crystallographic Data Centre
#                                CCDC 
#
#######################################################################
#
# If this CIF has been generated from an entry in the Cambridge 
# Structural Database, then it will include bibliographic, chemical, 
# crystal, experimental, refinement or atomic coordinate data resulting 
# from the CCDC's data processing and validation procedures.
#
#######################################################################

data_LOTXIB
_symmetry_cell_setting           monoclinic
_symmetry_space_group_name_H-M   'C 2/c'
_symmetry_Int_Tables_number      15
_space_group_name_Hall           '-C 2yn'
loop_
_symmetry_equiv_pos_site_id
_symmetry_equiv_pos_as_xyz
1 x,y,z
2 1/2+x,1/2+y,z
3 -x,y,1/2-z
4 1/2-x,1/2+y,1/2-z
5 -x,-y,-z
6 1/2-x,1/2-y,-z
7 x,-y,1/2+z
8 1/2+x,1/2-y,1/2+z
_cell_length_a                   16.108(3)
_cell_length_b                   11.675(2)
_cell_length_c                   20.171(4)
_cell_angle_alpha                90
_cell_angle_beta                 111.99(3)
_cell_angle_gamma                90
_cell_volume                     3517.41
loop_
_atom_site_label
_atom_site_type_symbol
_atom_site_fract_x
_atom_site_fract_y
_atom_site_fract_z
Cd1 Cd 0.079178(9) 0.294646(12) 0.196553(7)
N1 N 0.07459(12) 0.49096(16) 0.19131(9)
N2 N 0.06357(13) 0.09506(17) 0.19068(11)
O1 O 0.06798(13) 0.31191(18) 0.06458(11)
O2 O 0.18894(12) 0.26367(19) 0.15411(9)
O3 O 0.19536(12) 0.28333(15) 0.30819(8)
C1 C 0.02672(18) 0.6654(2) 0.12549(14)
H1 H -0.0056 0.7023 0.0807
C2 C 0.06944(14) 0.7304(2) 0.18634(13)
C3 C 0.11496(17) 0.6716(2) 0.24958(14)
H2 H 0.1460 0.7133 0.2928
C4 C 0.11548(17) 0.5541(2) 0.24980(13)
H3 H 0.1468 0.5152 0.2941
C5 C 0.06758(15) 0.85718(19) 0.18569(12)
C6 C -0.00840(17) 0.9184(2) 0.14593(15)
H4 H -0.0610 0.8787 0.1155
C7 C -0.00791(17) 0.0363(2) 0.15020(15)
H5 H -0.0614 0.0778 0.1233
C8 C 0.13771(16) 0.0370(2) 0.22800(15)
H6 H 0.1901 0.0793 0.2565
C9 C 0.14207(16) 0.9193(2) 0.22723(15)
H7 H 0.1963 0.8803 0.2554
C10 C 0.14727(16) 0.2819(2) 0.08946(13)
C11 C 0.19910(17) 0.2651(2) 0.04172(12)
C12 C 0.2469(2) 0.1648(3) 0.04671(16)
C13 C 0.2028(2) 0.3511(3) -0.00419(15)
C14 C 0.15346(14) 0.28676(17) 0.34891(11)
C15 C 0.03163(18) 0.54813(19) 0.13008(13)
H8 H 0.0026 0.5043 0.0873
C16 C 0.20288(13) 0.26848(18) 0.42731(10)
C17 C 0.15898(15) 0.2757(2) 0.47492(12)
C18 C 0.29357(15) 0.2433(2) 0.45260(12)
O4 O 0.07059(11) 0.30383(15) 0.32525(9)
O4B O -0.07059(11) 0.30383(15) 0.17475(9)
C7_2 C -0.00791(17) 1.0363(2) 0.15020(15)
C6_2 C -0.00840(17) -0.0816(2) 0.14593(15)
C9_2 C 0.14207(16) -0.0807(2) 0.22723(15)
C8_2 C 0.13771(16) 1.0370(2) 0.22800(15)
C13E C 0.2972(2) 0.1489(3) 0.00419(15)
C12E C 0.2531(2) 0.3352(3) -0.04671(16)
C18E C 0.20643(15) 0.2567(2) 0.54740(12)
C17E C 0.34102(15) 0.2243(2) 0.52508(12)
Cd1B Cd -0.079178(9) 0.294646(12) 0.303447(7)
N2_2 N 0.06357(13) 1.09506(17) 0.19068(11)
H5_2 H -0.0614 1.0778 0.1233
C5_2 C 0.06758(15) -0.14282(19) 0.18569(12)
H4_2 H -0.0610 -0.1213 0.1155
H7_2 H 0.1963 -0.1197 0.2554
H6_2 H 0.1901 1.0793 0.2565
C11E C 0.30090(17) 0.2349(2) -0.04172(12)
C16E C 0.29712(13) 0.23152(18) 0.57269(10)
Cd1_2 Cd 0.079178(9) 1.294646(12) 0.196553(7)
C2_2 C 0.06944(14) -0.2696(2) 0.18634(13)
C10E C 0.35273(16) 0.2181(2) -0.08946(13)
C14E C 0.34654(14) 0.21324(17) 0.65109(11)
N1_2 N 0.07459(12) 1.49096(16) 0.19131(9)
O1_2 O 0.06798(13) 1.31191(18) 0.06458(11)
O2_2 O 0.18894(12) 1.26367(19) 0.15411(9)
O3_2 O 0.19536(12) 1.28333(15) 0.30819(8)
O4_2 O 0.07059(11) 1.30383(15) 0.32525(9)
O4B_2 O -0.07059(11) 1.30383(15) 0.17475(9)
C1_2 C 0.02672(18) -0.3346(2) 0.12549(14)
C3_2 C 0.11496(17) -0.3284(2) 0.24958(14)
O1E O 0.43202(13) 0.18809(18) -0.06458(11)
O2E O 0.31106(12) 0.23633(19) -0.15411(9)
O3E O 0.30464(12) 0.21667(15) 0.69181(8)
O4E O 0.42941(11) 0.19617(15) 0.67475(9)
H1_2 H -0.0056 -0.2977 0.0807
C15_2 C 0.03163(18) -0.45187(19) 0.13008(13)
H2_2 H 0.1460 -0.2867 0.2928
C4_2 C 0.11548(17) -0.4459(2) 0.24980(13)
Cd1E Cd 0.420822(9) 0.205354(12) -0.196553(7)
Cd1E_2 Cd 0.420822(9) 0.205354(12) 0.803447(7)
Cd1G Cd 0.579178(9) 0.205354(12) 0.696553(7)
N1_3 N 0.07459(12) -0.50904(16) 0.19131(9)
H8_2 H 0.0026 -0.4957 0.0873
H3_2 H 0.1468 -0.4848 0.2941
Cd1_3 Cd 0.079178(9) -0.705354(12) 0.196553(7)
loop_
_geom_bond_atom_site_label_1
_geom_bond_atom_site_label_2
_geom_bond_site_symmetry_1
_geom_bond_site_symmetry_2
Cd1 N1 1_555 1_555
N1 C4 1_555 1_555
N2 Cd1 1_555 1_555
O1 Cd1 1_555 1_555
O2 Cd1 1_555 1_555
O3 Cd1 1_555 1_555
C1 H1 1_555 1_555
C2 C1 1_555 1_555
C3 C2 1_555 1_555
H2 C3 1_555 1_555
C4 C3 1_555 1_555
H3 C4 1_555 1_555
C5 C2 1_555 1_555
C6 C5 1_555 1_555
H4 C6 1_555 1_555
C7 N2 1_555 1_555
H5 C7 1_555 1_555
C8 N2 1_555 1_555
H6 C8 1_555 1_555
C9 C5 1_555 1_555
H7 C9 1_555 1_555
C10 O1 1_555 1_555
C11 C10 1_555 1_555
C12 C11 1_555 1_555
C13 C11 1_555 1_555
C14 O3 1_555 1_555
C15 N1 1_555 1_555
H8 C15 1_555 1_555
C16 C14 1_555 1_555
C17 C16 1_555 1_555
C18 C16 1_555 1_555
O4 Cd1 1_555 1_555
O4B Cd1 1_555 1_555
C7_2 C6 1_555 1_555
C6_2 C7 1_555 1_555
C9_2 C8 1_555 1_555
C8_2 C9 1_555 1_555
C13E C12 1_555 1_555
C12E C13 1_555 1_555
C18E C17 1_555 1_555
C17E C18 1_555 1_555
Cd1B O4 1_555 1_555
N2_2 C7_2 1_555 1_555
H5_2 C7_2 1_555 1_555
C5_2 C6_2 1_555 1_555
H4_2 C6_2 1_555 1_555
H7_2 C9_2 1_555 1_555
H6_2 C8_2 1_555 1_555
C11E C13E 1_555 1_555
C16E C18E 1_555 1_555
Cd1_2 N2_2 1_555 1_555
C2_2 C5_2 1_555 1_555
C10E C11E 1_555 1_555
C14E C16E 1_555 1_555
N1_2 Cd1_2 1_555 1_555
O1_2 Cd1_2 1_555 1_555
O2_2 Cd1_2 1_555 1_555
O3_2 Cd1_2 1_555 1_555
O4_2 Cd1_2 1_555 1_555
O4B_2 Cd1_2 1_555 1_555
C1_2 C2_2 1_555 1_555
C3_2 C2_2 1_555 1_555
O1E C10E 1_555 1_555
O2E C10E 1_555 1_555
O3E C14E 1_555 1_555
O4E C14E 1_555 1_555
H1_2 C1_2 1_555 1_555
C15_2 C1_2 1_555 1_555
H2_2 C3_2 1_555 1_555
C4_2 C3_2 1_555 1_555
Cd1E O1E 1_555 1_555
Cd1E_2 O3E 1_555 1_555
Cd1G O4E 1_555 1_555
N1_3 C15_2 1_555 1_555
H8_2 C15_2 1_555 1_555
H3_2 C4_2 1_555 1_555
Cd1_3 N1_3 1_555 1_555
O2 C10 1_555 1_555
C1 C15 1_555 1_555
C14 O4 1_555 1_555
O4B Cd1B 1_555 1_555
C9_2 C5_2 1_555 1_555
C8_2 N2_2 1_555 1_555
C12E C11E 1_555 1_555
C17E C16E 1_555 1_555
O2E Cd1E 1_555 1_555
O4E Cd1E_2 1_555 1_555
C4_2 N1_3 1_555 1_555

#END
