
#######################################################################
#
#                 Cambridge Crystallographic Data Centre
#                                CCDC 
#
#######################################################################
#
# If this CIF has been generated from an entry in the Cambridge 
# Structural Database, then it will include bibliographic, chemical, 
# crystal, experimental, refinement or atomic coordinate data resulting 
# from the CCDC's data processing and validation procedures.
#
#######################################################################

data_LOVFUZ
_symmetry_cell_setting           monoclinic
_symmetry_space_group_name_H-M   'P 21/c'
_symmetry_Int_Tables_number      14
_space_group_name_Hall           '-P 2ybc'
loop_
_symmetry_equiv_pos_site_id
_symmetry_equiv_pos_as_xyz
1 x,y,z
2 -x,1/2+y,1/2-z
3 -x,-y,-z
4 x,1/2-y,1/2+z
_cell_length_a                   7.1802(14)
_cell_length_b                   14.241(3)
_cell_length_c                   8.8785(17)
_cell_angle_alpha                90
_cell_angle_beta                 103.428(4)
_cell_angle_gamma                90
_cell_volume                     883.037
loop_
_atom_site_label
_atom_site_type_symbol
_atom_site_fract_x
_atom_site_fract_y
_atom_site_fract_z
Br1 Br 0.78673(5) 0.15171(3) 0.00620(4)
Cu1 Cu 0.5000 0.0000 0.0000
N1 N 0.3156(4) 0.0640(2) 0.8246(3)
N2 N 0.1526(4) 0.1069(2) 0.8372(4)
N3 N 0.3983(4) 0.0732(2) 0.1561(3)
N4 N 0.4887(5) 0.1492(2) 0.2302(4)
C1 C 0.3133(5) 0.0693(3) 0.6737(4)
H1 H 0.4107 0.0446 0.6287
C2 C 0.1498(5) 0.1159(3) 0.5900(4)
C3 C 0.0513(6) 0.1388(3) 0.7008(4)
H2 H -0.0673 0.1713 0.6836
C4 C 0.2488(5) 0.0589(3) 0.2185(4)
H3 H 0.1588 0.0094 0.1898
C5 C 0.2418(5) 0.1264(2) 0.3321(4)
C6 C 0.3989(6) 0.1821(3) 0.3366(4)
H4 H 0.4373 0.2345 0.4029
C7 C 0.0862(5) 0.1345(3) 0.4193(4)
H5 H 0.0315 0.1985 0.4041
H6 H -0.0172 0.0897 0.3742
H7 H 0.133(6) 0.110(3) 0.922(5)
H8 H 0.589(8) 0.175(4) 0.214(6)
Br1B Br 0.21327(5) -0.15171(3) -0.00620(4)
N1B N 0.6844(4) -0.0640(2) -0.8246(3)
N2B N 0.8474(4) -0.1069(2) -0.8372(4)
N3B N 0.6017(4) -0.0732(2) -0.1561(3)
N4B N 0.5113(5) -0.1492(2) -0.2302(4)
C1B C 0.6867(5) -0.0693(3) -0.6737(4)
H1B H 0.5893 -0.0446 -0.6287
C2B C 0.8502(5) -0.1159(3) -0.5900(4)
C3B C 0.9487(6) -0.1388(3) -0.7008(4)
H2B H 1.0673 -0.1713 -0.6836
C4B C 0.7512(5) -0.0589(3) -0.2185(4)
H3B H 0.8412 -0.0094 -0.1898
C5B C 0.7582(5) -0.1264(2) -0.3321(4)
C6B C 0.6011(6) -0.1821(3) -0.3366(4)
H4B H 0.5627 -0.2345 -0.4029
C7B C 0.9138(5) -0.1345(3) -0.4193(4)
H5B H 0.9685 -0.1985 -0.4041
H6B H 1.0172 -0.0897 -0.3742
H7B H 0.867(6) -0.110(3) -0.922(5)
H8B H 0.411(8) -0.175(4) -0.214(6)
Cu1_2 Cu 0.5000 0.0000 -1.0000
Cu1_3 Cu 0.5000 0.0000 1.0000
N1_2 N 0.3156(4) 0.0640(2) -0.1754(3)
N1B_2 N 0.6844(4) -0.0640(2) 0.1754(3)
loop_
_geom_bond_atom_site_label_1
_geom_bond_atom_site_label_2
_geom_bond_site_symmetry_1
_geom_bond_site_symmetry_2
Br1 Cu1 1_555 1_555
Cu1 N3 1_555 1_555
N1 N2 1_555 1_555
N2 C3 1_555 1_555
N3 N4 1_555 1_555
N4 C6 1_555 1_555
C1 N1 1_555 1_555
H1 C1 1_555 1_555
C2 C1 1_555 1_555
C3 C2 1_555 1_555
H2 C3 1_555 1_555
C4 N3 1_555 1_555
H3 C4 1_555 1_555
C5 C4 1_555 1_555
C6 C5 1_555 1_555
H4 C6 1_555 1_555
C7 C2 1_555 1_555
H5 C7 1_555 1_555
H6 C7 1_555 1_555
H7 N2 1_555 1_555
H8 N4 1_555 1_555
Br1B Cu1 1_555 1_555
N1B N2B 1_555 1_555
N2B C3B 1_555 1_555
N3B Cu1 1_555 1_555
N4B N3B 1_555 1_555
C1B N1B 1_555 1_555
H1B C1B 1_555 1_555
C2B C1B 1_555 1_555
C3B C2B 1_555 1_555
H2B C3B 1_555 1_555
C4B N3B 1_555 1_555
H3B C4B 1_555 1_555
C5B C4B 1_555 1_555
C6B N4B 1_555 1_555
H4B C6B 1_555 1_555
C7B C2B 1_555 1_555
H5B C7B 1_555 1_555
H6B C7B 1_555 1_555
H7B N2B 1_555 1_555
H8B N4B 1_555 1_555
Cu1_2 N1B 1_555 1_555
Cu1_3 N1 1_555 1_555
N1_2 Cu1 1_555 1_555
N1B_2 Cu1 1_555 1_555
C5 C7 1_555 1_555
C5B C6B 1_555 1_555
C5B C7B 1_555 1_555

#END
