
#######################################################################
#
#                 Cambridge Crystallographic Data Centre
#                                CCDC 
#
#######################################################################
#
# If this CIF has been generated from an entry in the Cambridge 
# Structural Database, then it will include bibliographic, chemical, 
# crystal, experimental, refinement or atomic coordinate data resulting 
# from the CCDC's data processing and validation procedures.
#
#######################################################################

data_LOVGOU
_symmetry_cell_setting           triclinic
_symmetry_space_group_name_H-M   'P -1'
_symmetry_Int_Tables_number      2
_space_group_name_Hall           '-P 1'
loop_
_symmetry_equiv_pos_site_id
_symmetry_equiv_pos_as_xyz
1 x,y,z
2 -x,-y,-z
_cell_length_a                   8.6874(7)
_cell_length_b                   8.7747(7)
_cell_length_c                   9.3138(7)
_cell_angle_alpha                87.5850(10)
_cell_angle_beta                 82.4710(10)
_cell_angle_gamma                73.5970(10)
_cell_volume                     675.206
loop_
_atom_site_label
_atom_site_type_symbol
_atom_site_fract_x
_atom_site_fract_y
_atom_site_fract_z
Cu1 Cu 0.0000 1.0000 0.0000
Cl1 Cl 0.25930(5) 0.95241(5) -0.10996(4)
N1 N 0.07760(17) 0.93492(16) 0.18892(15)
N2 N 0.15628(17) 1.02395(17) 0.24926(15)
C1 C -0.0078(2) 0.6914(2) 0.2516(2)
H1 H -0.0670 0.7243 0.1678
H2 H -0.0832 0.6786 0.3362
H3 H 0.0749 0.5901 0.2308
C2 C 0.07155(19) 0.81510(19) 0.28250(18)
C3 C 0.14735(19) 0.82971(19) 0.40331(17)
C4 C 0.19834(19) 0.9650(2) 0.37858(17)
C5 C 0.2880(2) 1.0425(2) 0.4637(2)
H4 H 0.4043 1.0012 0.4331
H5 H 0.2646 1.0200 0.5669
H6 H 0.2542 1.1576 0.4471
C6 C 0.1735(2) 0.7199(2) 0.53300(18)
H7 H 0.0920 0.6595 0.5440
H8 H 0.1573 0.7841 0.6215
C7 C 0.3417(2) 0.6041(2) 0.51853(17)
C8 C 0.4673(2) 0.6394(2) 0.57669(18)
H9 H 0.4461 0.7348 0.6297
C9 C 0.6233(2) 0.5372(2) 0.55835(18)
H10 H 0.7071 0.5640 0.5987
H11 H 0.168(3) 1.110(3) 0.206(3)
N1A N 0.92240(17) 0.06508(16) 0.81108(15)
N2A N 0.84372(17) -0.02395(17) 0.75074(15)
C1A C 1.0078(2) 0.3086(2) 0.7484(2)
H1A H 1.0670 0.2757 0.8322
H2A H 1.0832 0.3214 0.6638
H3A H 0.9251 0.4099 0.7692
C2A C 0.92845(19) 0.18490(19) 0.71750(18)
C3A C 0.85265(19) 0.17029(19) 0.59669(17)
C4A C 0.80166(19) 0.0350(2) 0.62142(17)
C5A C 0.7120(2) -0.0425(2) 0.5363(2)
H4A H 0.5957 -0.0012 0.5669
H5A H 0.7354 -0.0200 0.4331
H6A H 0.7458 -0.1576 0.5529
C6A C 0.8265(2) 0.2801(2) 0.46700(18)
H7A H 0.9080 0.3405 0.4560
H8A H 0.8427 0.2159 0.3785
C7A C 0.6583(2) 0.3959(2) 0.48147(17)
C8A C 0.5327(2) 0.3606(2) 0.42331(18)
H9A H 0.5539 0.2652 0.3703
C9A C 0.3767(2) 0.4628(2) 0.44165(18)
H10A H 0.2929 0.4360 0.4013
H11A H 0.832(3) -0.110(3) 0.794(3)
Cl1A Cl -0.25930(5) 1.04759(5) 0.10996(4)
Cu1_2 Cu 1.0000 0.0000 1.0000
N1A_2 N -0.07760(17) 1.06508(16) -0.18892(15)
O1 O 0.18651(16) 0.30365(15) 1.12795(14)
N3 N 0.35255(18) 0.36987(17) 0.94045(16)
C10 C 0.2388(2) 0.5191(2) 0.9066(2)
H12 H 0.1371 0.5331 0.9710
H13 H 0.2181 0.5181 0.8058
H14 H 0.2843 0.6070 0.9203
C11 C 0.5053(2) 0.3218(3) 0.8460(2)
H15 H 0.5743 0.2235 0.8832
H16 H 0.5599 0.4057 0.8431
H17 H 0.4845 0.3038 0.7481
C12 C 0.3161(2) 0.2748(2) 1.04586(19)
H18 H 0.3950 0.1772 1.0597
loop_
_geom_bond_atom_site_label_1
_geom_bond_atom_site_label_2
_geom_bond_site_symmetry_1
_geom_bond_site_symmetry_2
Cu1 Cl1 1_555 1_555
N1 Cu1 1_555 1_555
N2 N1 1_555 1_555
C1 H1 1_555 1_555
H2 C1 1_555 1_555
H3 C1 1_555 1_555
C2 N1 1_555 1_555
C3 C2 1_555 1_555
C4 N2 1_555 1_555
C5 C4 1_555 1_555
H4 C5 1_555 1_555
H5 C5 1_555 1_555
H6 C5 1_555 1_555
C6 C3 1_555 1_555
H7 C6 1_555 1_555
H8 C6 1_555 1_555
C7 C6 1_555 1_555
C8 C7 1_555 1_555
H9 C8 1_555 1_555
C9 C8 1_555 1_555
H10 C9 1_555 1_555
H11 N2 1_555 1_555
O1 C12 1_555 1_555
N3 C10 1_555 1_555
C10 H12 1_555 1_555
H13 C10 1_555 1_555
H14 C10 1_555 1_555
C11 N3 1_555 1_555
H15 C11 1_555 1_555
H16 C11 1_555 1_555
H17 C11 1_555 1_555
C12 N3 1_555 1_555
H18 C12 1_555 1_555
N1A N2A 1_555 1_555
N2A C4A 1_555 1_555
C1A H1A 1_555 1_555
H2A C1A 1_555 1_555
H3A C1A 1_555 1_555
C2A N1A 1_555 1_555
C3A C2A 1_555 1_555
C4A C3A 1_555 1_555
C5A C4A 1_555 1_555
H4A C5A 1_555 1_555
H5A C5A 1_555 1_555
H6A C5A 1_555 1_555
C6A C3A 1_555 1_555
H7A C6A 1_555 1_555
H8A C6A 1_555 1_555
C7A C9 1_555 1_555
C8A C7A 1_555 1_555
H9A C8A 1_555 1_555
C9A C7 1_555 1_555
H10A C9A 1_555 1_555
H11A N2A 1_555 1_555
Cl1A Cu1 1_555 1_555
Cu1_2 N1A 1_555 1_555
N1A_2 Cu1 1_555 1_555
C1 C2 1_555 1_555
C3 C4 1_555 1_555
C1A C2A 1_555 1_555
C6A C7A 1_555 1_555
C8A C9A 1_555 1_555

#END
