
#######################################################################
#
#                 Cambridge Crystallographic Data Centre
#                                CCDC 
#
#######################################################################
#
# If this CIF has been generated from an entry in the Cambridge 
# Structural Database, then it will include bibliographic, chemical, 
# crystal, experimental, refinement or atomic coordinate data resulting 
# from the CCDC's data processing and validation procedures.
#
#######################################################################

data_LOVJAJ
_symmetry_cell_setting           monoclinic
_symmetry_space_group_name_H-M   'P 21'
_symmetry_Int_Tables_number      4
_space_group_name_Hall           'P 2yb'
loop_
_symmetry_equiv_pos_site_id
_symmetry_equiv_pos_as_xyz
1 x,y,z
2 -x,1/2+y,-z
_cell_length_a                   9.4691(9)
_cell_length_b                   11.2247(11)
_cell_length_c                   13.3695(13)
_cell_angle_alpha                90
_cell_angle_beta                 100.7430(10)
_cell_angle_gamma                90
_cell_volume                     1396.11
loop_
_atom_site_label
_atom_site_type_symbol
_atom_site_fract_x
_atom_site_fract_y
_atom_site_fract_z
Ag1 Ag 0.99592(2) 0.08869(2) 0.766212(16)
C1 C 0.2737(3) 0.9187(3) 0.8166(2)
C2 C 0.2222(4) 1.0780(4) 0.5844(2)
H1 H 0.1356 1.1192 0.5709
C3 C 0.4743(3) 0.4510(3) 0.7016(2)
N1 N 0.5687(3) 0.2447(2) 0.7106(2)
C4 C 0.3720(4) 0.6467(3) 0.7093(3)
H2 H 0.2970 0.6996 0.6876
C5 C 0.3636(4) 0.5314(3) 0.6722(3)
H3 H 0.2820 0.5075 0.6266
C6 C 0.5937(4) 0.4883(3) 0.7701(3)
H4 H 0.6694 0.4358 0.7911
N2 N 0.7746(3) 0.1467(2) 0.7573(2)
C7 C 0.3184(4) 1.0824(5) 0.5191(2)
H5 H 0.2946 1.1262 0.4593
C8 C 0.6013(3) 0.6035(3) 0.8077(2)
H6 H 0.6826 0.6272 0.8537
C9 C 0.6974(4) 0.2144(3) 0.6861(2)
C10 C 0.6911(3) 0.1303(2) 0.8310(2)
C11 C 0.4544(4) 0.1906(3) 0.8610(3)
H7 H 0.3685 0.2318 0.8412
C12 C 0.7167(4) 0.0644(3) 0.9211(2)
H8 H 0.8023 0.0230 0.9414
C13 C 0.2606(3) 1.0090(3) 0.6714(2)
C14 C 0.5617(4) 0.1919(3) 0.8030(2)
C15 C 0.4609(4) 0.3267(3) 0.6572(3)
H9 H 0.3660 0.2959 0.6598
H10 H 0.4702 0.3307 0.5862
C16 C 0.4884(4) 0.9535(3) 0.6247(3)
H11 H 0.5754 0.9128 0.6378
C17 C 0.4501(5) 1.0237(3) 0.5394(3)
H12 H 0.5135 1.0320 0.4944
C18 C 0.7433(4) 0.2515(3) 0.5911(3)
H13 H 0.8316 0.2121 0.5858
H14 H 0.7578 0.3362 0.5919
H15 H 0.6705 0.2303 0.5338
C19 C 0.2452(4) 0.8750(3) 0.9152(3)
H16 H 0.1539 0.9045 0.9255
H17 H 0.3195 0.9025 0.9691
H18 H 0.2437 0.7894 0.9148
N3 N 0.3944(3) 0.8898(2) 0.7811(2)
C20 C 0.4822(4) 0.1251(3) 0.9491(3)
H19 H 0.4130 0.1224 0.9902
C21 C 0.4914(3) 0.6839(3) 0.7788(2)
C22 C 0.6097(4) 0.0627(3) 0.9793(3)
H20 H 0.6237 0.0192 1.0396
C23 C 0.5077(4) 0.8069(3) 0.8268(3)
H21 H 0.5064 0.7996 0.8989
H22 H 0.6002 0.8394 0.8198
C24 C 0.3904(3) 0.9467(3) 0.6900(2)
N4 N 0.1895(3) 0.9899(2) 0.75251(19)
C25 C 0.9988(3) 0.1041(3) 1.3190(2)
H23 H 0.9825 0.0837 1.3833
C26 C 1.0036(3) 0.0520(2) 1.1466(2)
H24 H 0.9939 -0.0044 1.0949
O1 O 0.9044(3) -0.17768(19) 1.18973(16)
O2 O 0.9995(3) 0.2850(2) 1.45930(16)
H25 H 1.0327 0.3235 1.5104
O3 O 0.9243(3) -0.13249(19) 1.35253(16)
C27 C 0.9324(4) -0.1067(3) 1.2636(2)
C28 C 1.0728(4) 0.3088(3) 1.3866(2)
O4 O 1.0774(3) 0.11278(19) 0.96324(15)
C29 C 1.0653(3) 0.2509(3) 1.2052(2)
H26 H 1.0947 0.3277 1.1931
C30 C 0.9779(3) 0.0189(3) 1.2423(2)
C31 C 1.0433(3) 0.2190(3) 1.3019(2)
C32 C 1.0434(3) 0.1681(3) 1.1272(2)
O5 O 1.0790(3) 0.30483(19) 0.99935(16)
H27 H 1.0961 0.3106 0.9416
C33 C 1.0678(3) 0.1925(3) 1.0220(2)
O6 O 1.1549(3) 0.3903(2) 1.38859(19)
Ag1_2 Ag -0.00408(2) 1.08869(2) 0.766212(16)
N4_2 N 1.1895(3) -0.0101(2) 0.75251(19)
loop_
_geom_bond_atom_site_label_1
_geom_bond_atom_site_label_2
_geom_bond_site_symmetry_1
_geom_bond_site_symmetry_2
Ag1 N2 1_555 1_555
C1 C19 1_555 1_555
C2 H1 1_555 1_555
C3 C5 1_555 1_555
N1 C9 1_555 1_555
C4 H2 1_555 1_555
C5 C4 1_555 1_555
H3 C5 1_555 1_555
C6 C3 1_555 1_555
H4 C6 1_555 1_555
N2 C9 1_555 1_555
C7 C2 1_555 1_555
H5 C7 1_555 1_555
C8 C6 1_555 1_555
H6 C8 1_555 1_555
C9 C18 1_555 1_555
C10 N2 1_555 1_555
C11 H7 1_555 1_555
C12 C10 1_555 1_555
H8 C12 1_555 1_555
C13 C2 1_555 1_555
C14 N1 1_555 1_555
C15 C3 1_555 1_555
H9 C15 1_555 1_555
H10 C15 1_555 1_555
C16 H11 1_555 1_555
C17 C7 1_555 1_555
H12 C17 1_555 1_555
C18 H13 1_555 1_555
H14 C18 1_555 1_555
H15 C18 1_555 1_555
C19 H16 1_555 1_555
H17 C19 1_555 1_555
H18 C19 1_555 1_555
N3 C1 1_555 1_555
C20 C11 1_555 1_555
H19 C20 1_555 1_555
C21 C4 1_555 1_555
C22 C12 1_555 1_555
H20 C22 1_555 1_555
C23 N3 1_555 1_555
H21 C23 1_555 1_555
H22 C23 1_555 1_555
C24 C13 1_555 1_555
N4 C1 1_555 1_555
C25 H23 1_555 1_555
C26 H24 1_555 1_555
O1 C27 1_555 1_555
O2 H25 1_555 1_555
O3 C27 1_555 1_555
C27 C30 1_555 1_555
C28 O2 1_555 1_555
O4 Ag1 1_555 1_555
C29 H26 1_555 1_555
C30 C25 1_555 1_555
C31 C25 1_555 1_555
C32 C26 1_555 1_555
O5 H27 1_555 1_555
C33 O4 1_555 1_555
O6 C28 1_555 1_555
Ag1_2 N4 1_555 1_555
N4_2 Ag1 1_555 1_555
N1 C15 1_555 1_555
C8 C21 1_555 1_555
C10 C14 1_555 1_555
C11 C14 1_555 1_555
C13 N4 1_555 1_555
C16 C17 1_555 1_555
C16 C24 1_555 1_555
N3 C24 1_555 1_555
C20 C22 1_555 1_555
C21 C23 1_555 1_555
C26 C30 1_555 1_555
C28 C31 1_555 1_555
C29 C31 1_555 1_555
C29 C32 1_555 1_555
C32 C33 1_555 1_555
O5 C33 1_555 1_555

#END
