
#######################################################################
#
#                 Cambridge Crystallographic Data Centre
#                                CCDC 
#
#######################################################################
#
# If this CIF has been generated from an entry in the Cambridge 
# Structural Database, then it will include bibliographic, chemical, 
# crystal, experimental, refinement or atomic coordinate data resulting 
# from the CCDC's data processing and validation procedures.
#
#######################################################################

data_LOVNER
_symmetry_cell_setting           monoclinic
_symmetry_space_group_name_H-M   'P 21/c'
_symmetry_Int_Tables_number      14
_space_group_name_Hall           '-P 2ybc'
loop_
_symmetry_equiv_pos_site_id
_symmetry_equiv_pos_as_xyz
1 x,y,z
2 -x,1/2+y,1/2-z
3 -x,-y,-z
4 x,1/2-y,1/2+z
_cell_length_a                   15.1167(7)
_cell_length_b                   12.4857(3)
_cell_length_c                   15.1647(7)
_cell_angle_alpha                90
_cell_angle_beta                 103.907(2)
_cell_angle_gamma                90
_cell_volume                     2778.32
loop_
_atom_site_label
_atom_site_type_symbol
_atom_site_fract_x
_atom_site_fract_y
_atom_site_fract_z
U1 U 0.099975(14) 0.291789(17) 0.246085(15)
U2 U 0.107298(14) 0.593450(17) 0.305359(15)
U3 U -0.121226(14) 0.442708(16) 0.236672(15)
O1 O 0.0823(3) 0.2585(3) 0.3547(3)
O2 O 0.1202(3) 0.3206(3) 0.1371(3)
O3 O 0.1158(3) 0.5601(3) 0.4216(3)
O4 O 0.1089(3) 0.6304(3) 0.1927(3)
O5 O -0.1034(3) 0.3908(3) 0.3487(3)
O6 O -0.1431(3) 0.4958(3) 0.1248(3)
O7 O 0.0304(3) 0.4475(3) 0.2522(3)
O8 O 0.0582(2) 0.1130(3) 0.2002(3)
H1 H 0.0519 0.1054 0.1406
O9 O 0.0673(2) 0.7772(3) 0.3238(3)
H2 H 0.0916 0.7909 0.3836
O10 O 0.2134(2) 0.4410(3) 0.3036(3)
H3 H 0.2474 0.4522 0.2605
O11 O 0.2472(3) 0.2120(3) 0.2948(3)
O12 O 0.2477(3) 0.0456(3) 0.2412(3)
O13 O 0.2562(3) 0.6640(3) 0.3592(3)
O14 O 0.2534(3) 0.8314(3) 0.3054(3)
N1 N 0.6841(3) -0.0090(4) 0.3149(4)
N2 N 0.6845(3) 0.6212(4) 0.5387(4)
H4 H 0.7147 0.5942 0.5944
C1 C 0.2872(4) 0.1244(5) 0.2858(4)
C2 C 0.3846(4) 0.1180(5) 0.3289(4)
H5 H 0.4088 0.1646 0.3764
C3 C 0.4402(4) 0.0488(5) 0.3034(4)
H6 H 0.4142 0.0018 0.2568
C4 C 0.5381(4) 0.0392(5) 0.3413(4)
C5 C 0.5945(4) 0.0018(5) 0.2867(4)
H7 H 0.5673 -0.0167 0.2270
C6 C 0.7237(5) 0.0162(6) 0.4022(5)
H8 H 0.7865 0.0091 0.4229
C7 C 0.6741(5) 0.0521(6) 0.4615(5)
H9 H 0.7030 0.0678 0.5215
C8 C 0.5807(5) 0.0645(5) 0.4311(4)
H10 H 0.5465 0.0895 0.4702
C9 C 0.2942(4) 0.7491(5) 0.3397(4)
C10 C 0.3943(4) 0.7509(5) 0.3611(4)
H11 H 0.4226 0.8062 0.3373
C11 C 0.4463(4) 0.6787(5) 0.4121(4)
H12 H 0.4171 0.6233 0.4347
C12 C 0.5458(4) 0.6782(5) 0.4363(4)
C13 C 0.5944(4) 0.6229(5) 0.5122(4)
H13 H 0.5616 0.5848 0.5464
C14 C 0.7320(4) 0.6760(5) 0.4889(5)
H14 H 0.7953 0.6755 0.5072
C15 C 0.6910(4) 0.7329(5) 0.4119(4)
H15 H 0.7254 0.7703 0.3789
C16 C 0.5966(4) 0.7323(5) 0.3853(4)
H16 H 0.5671 0.7685 0.3329
U1A U -0.099975(14) 0.791789(17) 0.253915(15)
U2A U -0.107298(14) 0.093450(17) 0.194641(15)
U3A U 0.121226(14) -0.057292(16) 0.263328(15)
U3A_2 U 0.121226(14) 0.942708(16) 0.263328(15)
O8A O -0.0582(2) 0.6130(3) 0.2998(3)
O9A O -0.0673(2) 0.2772(3) 0.1762(3)
O12A O -0.2477(3) 0.5456(3) 0.2588(3)
O14A O -0.2534(3) 0.3314(3) 0.1946(3)
O15 O 0.0667(3) 0.1092(3) 0.0281(3)
H17 H 0.0621 0.0416 -0.0047
H18 H 0.0403 0.1583 -0.0016
O16 O 0.0695(5) 0.7959(4) 0.5056(4)
O17 O 0.0000 1.0000 0.5000
N3 N 0.5437(5) 0.3294(5) 0.3466(5)
C17 C 0.6195(6) 0.3345(6) 0.3774(5)
C18 C 0.7165(5) 0.3427(9) 0.4141(6)
H19 H 0.7463 0.2832 0.3934
H20 H 0.7294 0.3420 0.4792
H21 H 0.7382 0.4084 0.3940
loop_
_geom_bond_atom_site_label_1
_geom_bond_atom_site_label_2
_geom_bond_site_symmetry_1
_geom_bond_site_symmetry_2
U1 O1 1_555 1_555
U2 O3 1_555 1_555
U3 O5 1_555 1_555
O2 U1 1_555 1_555
O4 U2 1_555 1_555
O6 U3 1_555 1_555
O7 U1 1_555 1_555
O8 U1 1_555 1_555
H1 O8 1_555 1_555
O9 U2 1_555 1_555
H2 O9 1_555 1_555
O10 U1 1_555 1_555
H3 O10 1_555 1_555
O11 U1 1_555 1_555
O12 C1 1_555 1_555
O13 U2 1_555 1_555
O14 C9 1_555 1_555
N1 C5 1_555 1_555
N2 H4 1_555 1_555
C1 O11 1_555 1_555
C2 C1 1_555 1_555
H5 C2 1_555 1_555
C3 C2 1_555 1_555
H6 C3 1_555 1_555
C4 C3 1_555 1_555
C5 C4 1_555 1_555
H7 C5 1_555 1_555
C6 N1 1_555 1_555
H8 C6 1_555 1_555
C7 C6 1_555 1_555
H9 C7 1_555 1_555
C8 C4 1_555 1_555
H10 C8 1_555 1_555
C9 O13 1_555 1_555
C10 C9 1_555 1_555
H11 C10 1_555 1_555
C11 C10 1_555 1_555
H12 C11 1_555 1_555
C12 C11 1_555 1_555
C13 N2 1_555 1_555
H13 C13 1_555 1_555
C14 N2 1_555 1_555
H14 C14 1_555 1_555
C15 C14 1_555 1_555
H15 C15 1_555 1_555
C16 C12 1_555 1_555
H16 C16 1_555 1_555
O15 H17 1_555 1_555
H18 O15 1_555 1_555
N3 C17 1_555 1_555
C17 C18 1_555 1_555
C18 H19 1_555 1_555
H20 C18 1_555 1_555
H21 C18 1_555 1_555
U1A O9 1_555 1_555
U2A O8 1_555 1_555
U3A O8 1_555 1_555
U3A_2 O9 1_555 1_555
O8A U2 1_555 1_555
O9A U1 1_555 1_555
O12A U3 1_555 1_555
O14A U3 1_555 1_555
U2 O7 1_555 1_555
U2 O10 1_555 1_555
U3 O7 1_555 1_555
U3 O8A 1_555 1_555
U3 O9A 1_555 1_555
O12 U3A 1_555 1_555
O14 U3A_2 1_555 1_555
C7 C8 1_555 1_555
C12 C13 1_555 1_555
C15 C16 1_555 1_555
U1A O8A 1_555 1_555
U2A O9A 1_555 1_555

#END
