
#######################################################################
#
#                 Cambridge Crystallographic Data Centre
#                                CCDC 
#
#######################################################################
#
# If this CIF has been generated from an entry in the Cambridge 
# Structural Database, then it will include bibliographic, chemical, 
# crystal, experimental, refinement or atomic coordinate data resulting 
# from the CCDC's data processing and validation procedures.
#
#######################################################################

data_LOVSAS
_symmetry_cell_setting           orthorhombic
_symmetry_space_group_name_H-M   'P n a 21'
_symmetry_Int_Tables_number      33
_space_group_name_Hall           'P 2c -2n'
loop_
_symmetry_equiv_pos_site_id
_symmetry_equiv_pos_as_xyz
1 x,y,z
2 -x,-y,1/2+z
3 1/2-x,1/2+y,1/2+z
4 1/2+x,1/2-y,z
_cell_length_a                   17.409(5)
_cell_length_b                   18.998(5)
_cell_length_c                   24.863(5)
_cell_angle_alpha                90
_cell_angle_beta                 90
_cell_angle_gamma                90
_cell_volume                     8223.09
loop_
_atom_site_label
_atom_site_type_symbol
_atom_site_fract_x
_atom_site_fract_y
_atom_site_fract_z
Zn1 Zn 0.13689(3) 0.48404(3) 0.11238(3)
Zn2 Zn 1.30137(4) 0.99085(3) 0.02502(3)
Zn3 Zn 0.56142(4) 0.55490(4) 0.61051(3)
C1 C 0.5099(4) 0.4445(4) 0.5472(3)
C2 C 0.4720(3) 0.4112(3) 0.5009(2)
C3 C 0.4450(4) 0.4502(3) 0.4573(3)
H1 H 0.4519 0.4988 0.4575
C4 C 0.4086(4) 0.4200(3) 0.4138(3)
H2 H 0.3926 0.4472 0.3848
C5 C 0.3966(4) 0.3482(3) 0.4148(2)
C6 C 0.4207(4) 0.3080(3) 0.4574(2)
H3 H 0.4116 0.2597 0.4580
C7 C 0.4584(4) 0.3400(3) 0.4992(3)
H4 H 0.4755 0.3123 0.5277
C8 C 0.3210(4) 0.3488(3) 0.3338(3)
C9 C 0.3520(4) 0.3543(3) 0.2828(3)
H5 H 0.4016 0.3385 0.2760
C10 C 0.3093(4) 0.3830(3) 0.2429(3)
H6 H 0.3293 0.3852 0.2083
C11 C 0.2340(3) 0.4101(3) 0.2531(2)
C12 C 0.1870(3) 0.4412(3) 0.2095(2)
C13 C 0.2054(4) 0.4049(3) 0.3050(2)
H7 H 0.1564 0.4216 0.3127
C14 C 0.2488(4) 0.3753(3) 0.3448(2)
H8 H 0.2295 0.3731 0.3796
C15 C 0.1089(3) 0.3265(3) 0.1102(3)
H9 H 0.1402 0.3187 0.1399
C16 C 0.0697(4) 0.2763(3) 0.0829(3)
H10 H 0.0683 0.2284 0.0907
C17 C 0.0491(3) 0.3784(3) 0.0457(2)
H11 H 0.0305 0.4127 0.0224
C18 C -0.0107(3) 0.2765(3) -0.0007(2)
C19 C -0.0011(4) 0.2065(3) -0.0098(3)
H12 H 0.0318 0.1805 0.0120
C20 C -0.0393(4) 0.1745(3) -0.0505(3)
H13 H -0.0319 0.1266 -0.0562
C21 C -0.0886(3) 0.2108(3) -0.0837(2)
C22 C -0.0987(4) 0.2826(3) -0.0741(3)
H14 H -0.1312 0.3090 -0.0958
C23 C -0.0601(4) 0.3142(3) -0.0320(3)
H15 H -0.0678 0.3617 -0.0250
C24 C -0.1278(3) 0.1706(3) -0.1259(3)
C25 C -0.2020(4) 0.1318(3) -0.1906(3)
C26 C -0.2624(3) 0.1255(3) -0.2321(2)
C27 C -0.2952(3) 0.0608(3) -0.2372(3)
H16 H -0.2779 0.0239 -0.2158
C28 C -0.3533(3) 0.0489(3) -0.2735(3)
H17 H -0.3761 0.0047 -0.2756
C29 C -0.3775(3) 0.1020(3) -0.3065(2)
C30 C -0.3436(3) 0.1670(3) -0.3037(3)
H18 H -0.3594 0.2030 -0.3265
C31 C -0.2856(4) 0.1785(3) -0.2666(3)
H19 H -0.2621 0.2224 -0.2648
C32 C -0.4477(4) 0.1170(3) -0.3932(3)
H20 H -0.4142 0.1476 -0.4105
C33 C -0.5138(4) 0.0911(4) -0.4135(3)
H21 H -0.5340 0.1012 -0.4473
C34 C -0.4999(3) 0.0490(3) -0.3343(2)
H22 H -0.5081 0.0244 -0.3025
C35 C 0.4719(4) 0.5876(4) 0.6854(3)
C36 C 0.4258(3) 0.6185(3) 0.7308(2)
C37 C 0.4133(4) 0.6906(3) 0.7335(2)
H23 H 0.4325 0.7195 0.7065
C38 C 0.3734(4) 0.7195(3) 0.7748(2)
H24 H 0.3646 0.7677 0.7761
C39 C 0.3461(4) 0.6759(3) 0.8151(2)
C40 C 0.3572(4) 0.6043(3) 0.8143(3)
H25 H 0.3387 0.5760 0.8419
C41 C 0.3966(4) 0.5756(3) 0.7712(3)
H26 H 0.4036 0.5272 0.7693
C42 C 0.2855(4) 0.6747(3) 0.9020(3)
C43 C 0.3335(5) 0.6770(4) 0.9456(3)
H27 H 0.3811 0.6989 0.9430
C44 C 0.3108(4) 0.6467(4) 0.9934(3)
H28 H 0.3426 0.6495 1.0234
C45 C 0.2412(3) 0.6122(3) 0.9970(2)
C46 C 0.2178(3) 0.5788(3) 1.0490(3)
C47 C 0.1949(4) 0.6075(4) 0.9523(3)
H29 H 0.1492 0.5822 0.9539
C48 C 0.2165(4) 0.6406(4) 0.9046(3)
H30 H 0.1843 0.6395 0.8748
C49 C 0.6786(4) 0.6157(4) 0.5356(3)
H31 H 0.6802 0.5734 0.5168
C50 C 0.6524(4) 0.6938(4) 0.5927(3)
H32 H 0.6304 0.7164 0.6221
C51 C 0.7029(4) 0.7226(4) 0.5615(3)
H33 H 0.7235 0.7676 0.5643
C52 C 0.8000(4) 0.6174(3) 0.4551(3)
H34 H 0.7848 0.5734 0.4677
C53 C 0.7728(3) 0.6774(3) 0.4794(2)
C54 C 0.7964(4) 0.7429(4) 0.4605(3)
H35 H 0.7781 0.7838 0.4767
C55 C 0.8471(4) 0.7473(4) 0.4175(3)
H36 H 0.8641 0.7912 0.4059
C56 C 0.8730(3) 0.6866(3) 0.3914(3)
C57 C 0.8501(4) 0.6224(4) 0.4119(3)
H37 H 0.8687 0.5814 0.3963
C58 C 0.9298(3) 0.6875(3) 0.3478(3)
C59 C 1.0031(4) 0.7176(3) 0.2809(2)
C60 C 1.0422(3) 0.7527(3) 0.2352(2)
C61 C 1.0422(4) 0.8242(3) 0.2266(3)
H38 H 1.0141 0.8538 0.2490
C62 C 1.0852(4) 0.8526(3) 0.1836(3)
H39 H 1.0849 0.9009 0.1777
C63 C 1.1262(3) 0.8110(3) 0.1513(2)
C64 C 1.1264(4) 0.7385(3) 0.1597(3)
H40 H 1.1545 0.7091 0.1373
C65 C 1.0843(4) 0.7109(3) 0.2020(3)
H41 H 1.0849 0.6625 0.2078
C66 C 1.1941(4) 0.9055(3) 0.0999(2)
H42 H 1.1777 0.9434 0.1206
C67 C 1.2089(4) 0.7982(4) 0.0691(3)
H43 H 1.2054 0.7497 0.0646
C68 C 1.2493(4) 0.8435(3) 0.0385(3)
H44 H 1.2786 0.8314 0.0086
C69 C 1.5848(4) 1.0396(3) 0.4523(3)
C70 C 1.5457(3) 1.0799(3) 0.4113(2)
C71 C 1.5522(3) 1.1518(3) 0.4096(2)
H45 H 1.5814 1.1747 0.4356
C72 C 1.5162(3) 1.1911(3) 0.3702(2)
H46 H 1.5207 1.2399 0.3702
C73 C 1.4744(3) 1.1588(3) 0.3316(2)
C74 C 1.4661(3) 1.0860(3) 0.3318(2)
H47 H 1.4374 1.0638 0.3052
C75 C 1.5011(3) 1.0470(3) 0.3721(2)
H48 H 1.4947 0.9984 0.3729
C76 C 1.3052(4) 1.0781(3) 0.1115(3)
C77 C 1.3408(3) 1.1153(3) 0.1578(2)
C78 C 1.4202(3) 1.1177(3) 0.1640(2)
H49 H 1.4509 1.0999 0.1366
C79 C 1.4548(3) 1.1449(3) 0.2084(3)
H50 H 1.5080 1.1452 0.2117
C80 C 1.4091(4) 1.1717(3) 0.2483(2)
C81 C 1.3293(4) 1.1742(4) 0.2433(2)
H51 H 1.2990 1.1949 0.2697
C82 C 1.2967(4) 1.1448(3) 0.1979(3)
H52 H 1.2435 1.1450 0.1944
N1 N 0.0952(3) 0.3912(2) 0.08668(17)
N2 N 0.0325(3) 0.3100(2) 0.04173(18)
N3 N -0.1180(3) 0.1024(3) -0.1312(3)
N4 N -0.1637(4) 0.0780(3) -0.1727(3)
N5 N -0.1803(3) 0.1924(2) -0.1636(2)
N6 N -0.2051(3) 0.2605(3) -0.1738(2)
H53 H -0.1664 0.2918 -0.1768
H54 H -0.2407 0.2757 -0.1503
N7 N -0.4390(3) 0.0909(2) -0.34380(19)
N8 N -0.5461(3) 0.0474(2) -0.37584(17)
N9 N 0.6349(3) 0.6268(3) 0.5777(2)
N10 N 0.7201(3) 0.6717(2) 0.5228(2)
N11 N 0.9765(4) 0.6368(3) 0.3391(2)
N12 N 1.0233(3) 0.6553(3) 0.2971(2)
N13 N 0.9438(3) 0.7411(3) 0.3114(2)
N14 N 0.8970(4) 0.7993(3) 0.3054(3)
H55 H 0.8566 0.7926 0.2833
H56 H 0.9229 0.8386 0.2966
N15 N 1.1734(3) 0.8379(2) 0.1088(2)
N16 N 1.2401(3) 0.9107(3) 0.05857(19)
O1 O 0.5404(4) 0.4077(3) 0.5815(2)
O2 O 0.5108(3) 0.5122(3) 0.54927(19)
O3 O 0.3605(3) 0.3119(2) 0.37353(19)
O4 O 0.2176(2) 0.4536(2) 0.16366(16)
O5 O 0.1186(3) 0.4532(3) 0.21813(18)
O6 O 1.2347(3) 1.0747(3) 0.1097(3)
O7 O 1.3505(3) 1.0482(2) 0.07910(19)
O8 O 1.6368(4) 1.0689(3) 0.4792(2)
O9 O 1.5661(4) 0.9775(3) 0.4619(2)
O10 O 0.3058(3) 0.7106(2) 0.85520(17)
O11 O 0.1793(3) 0.5227(2) 1.04576(17)
O12 O 0.2353(3) 0.6067(3) 1.09295(17)
O13 O 1.4405(3) 1.2023(2) 0.29379(18)
O14 O 0.5006(3) 0.6269(3) 0.6516(2)
O15 O 0.4798(3) 0.5245(3) 0.6822(2)
O16 O 0.6417(3) 0.4936(2) 0.6449(2)
H57 H 0.6266 0.4663 0.6200
H58 H 0.6893 0.5019 0.6408
O17 O 1.2378(3) 1.0523(3) -0.0195(2)
H59 H 1.1996 1.0204 -0.0200
H60 H 1.2315 1.0621 -0.0526
Zn1_2 Zn 0.13689(3) 0.48404(3) 1.11238(3)
Zn1B Zn -0.63689(3) -0.01596(3) -0.38762(3)
Zn2A Zn 1.69863(4) 1.00915(3) 0.52502(3)
N8B N 0.0461(3) 0.5474(2) 0.12416(17)
O8A O 1.3632(4) 0.9311(3) -0.0208(2)
O11_2 O 0.1793(3) 0.5227(2) 0.04576(17)
O18 O 0.1557(5) 0.5746(4) 0.2909(3)
H61 H 0.1120 0.5936 0.2954
H62 H 0.1490 0.5318 0.2821
O19 O 0.7823(8) 0.8724(6) 0.2267(6)
H63 H 0.7355 0.8822 0.2330
H64 H 0.7863 0.8560 0.1951
O20 O 0.1209(3) 0.0944(2) 0.0381(2)
H65 H 0.0824 0.0678 0.0438
H66 H 0.1546 0.0859 0.0620
O21 O 0.3657(7) 0.6833(7) 0.1358(5)
H67 H 0.4013 0.6593 0.1212
H68 H 0.3229 0.6658 0.1262
O22 O 0.2233(6) 0.0767(5) 0.8750(3)
H69 H 0.2637 0.0774 0.8558
O23 O 0.4522(6) 0.5726(5) 0.3521(4)
H70 H 0.4237 0.5760 0.3850
H71 H 0.4999 0.5791 0.3574
O24? O 0.4149(6) 0.5369(5) 0.2591(5)
H72? H 0.4420 0.5209 0.2335
H73? H 0.3780 0.5605 0.2460
loop_
_geom_bond_atom_site_label_1
_geom_bond_atom_site_label_2
_geom_bond_site_symmetry_1
_geom_bond_site_symmetry_2
Zn1 N1 1_555 1_555
Zn2 N16 1_555 1_555
Zn3 N9 1_555 1_555
C1 C2 1_555 1_555
C2 C3 1_555 1_555
C3 H1 1_555 1_555
C4 C3 1_555 1_555
H2 C4 1_555 1_555
C5 C4 1_555 1_555
C6 C5 1_555 1_555
H3 C6 1_555 1_555
C7 C2 1_555 1_555
H4 C7 1_555 1_555
C8 C9 1_555 1_555
C9 H5 1_555 1_555
C10 C9 1_555 1_555
H6 C10 1_555 1_555
C11 C10 1_555 1_555
C12 C11 1_555 1_555
C13 C11 1_555 1_555
H7 C13 1_555 1_555
C14 C8 1_555 1_555
H8 C14 1_555 1_555
C15 H9 1_555 1_555
C16 C15 1_555 1_555
H10 C16 1_555 1_555
C17 H11 1_555 1_555
C18 C19 1_555 1_555
C19 H12 1_555 1_555
C20 C19 1_555 1_555
H13 C20 1_555 1_555
C21 C20 1_555 1_555
C22 C21 1_555 1_555
H14 C22 1_555 1_555
C23 C18 1_555 1_555
H15 C23 1_555 1_555
C24 C21 1_555 1_555
C25 C26 1_555 1_555
C26 C27 1_555 1_555
C27 H16 1_555 1_555
C28 C27 1_555 1_555
H17 C28 1_555 1_555
C29 C28 1_555 1_555
C30 C29 1_555 1_555
H18 C30 1_555 1_555
C31 C26 1_555 1_555
H19 C31 1_555 1_555
C32 H20 1_555 1_555
C33 C32 1_555 1_555
H21 C33 1_555 1_555
C34 H22 1_555 1_555
C35 C36 1_555 1_555
C36 C37 1_555 1_555
C37 H23 1_555 1_555
C38 C37 1_555 1_555
H24 C38 1_555 1_555
C39 C38 1_555 1_555
C40 C39 1_555 1_555
H25 C40 1_555 1_555
C41 C36 1_555 1_555
H26 C41 1_555 1_555
C42 C43 1_555 1_555
C43 H27 1_555 1_555
C44 C43 1_555 1_555
H28 C44 1_555 1_555
C45 C44 1_555 1_555
C46 C45 1_555 1_555
C47 C45 1_555 1_555
H29 C47 1_555 1_555
C48 C42 1_555 1_555
H30 C48 1_555 1_555
C49 H31 1_555 1_555
C50 H32 1_555 1_555
C51 C50 1_555 1_555
H33 C51 1_555 1_555
C52 H34 1_555 1_555
C53 C52 1_555 1_555
C54 C53 1_555 1_555
H35 C54 1_555 1_555
C55 C54 1_555 1_555
H36 C55 1_555 1_555
C56 C55 1_555 1_555
C57 C52 1_555 1_555
H37 C57 1_555 1_555
C58 C56 1_555 1_555
C59 C60 1_555 1_555
C60 C61 1_555 1_555
C61 H38 1_555 1_555
C62 C61 1_555 1_555
H39 C62 1_555 1_555
C63 C62 1_555 1_555
C64 C63 1_555 1_555
H40 C64 1_555 1_555
C65 C60 1_555 1_555
H41 C65 1_555 1_555
C66 H42 1_555 1_555
C67 H43 1_555 1_555
C68 C67 1_555 1_555
H44 C68 1_555 1_555
C69 C70 1_555 1_555
C70 C71 1_555 1_555
C71 H45 1_555 1_555
C72 C71 1_555 1_555
H46 C72 1_555 1_555
C73 C72 1_555 1_555
C74 C73 1_555 1_555
H47 C74 1_555 1_555
C75 C70 1_555 1_555
H48 C75 1_555 1_555
C76 C77 1_555 1_555
C77 C78 1_555 1_555
C78 H49 1_555 1_555
C79 C78 1_555 1_555
H50 C79 1_555 1_555
C80 C79 1_555 1_555
C81 C80 1_555 1_555
H51 C81 1_555 1_555
C82 C77 1_555 1_555
H52 C82 1_555 1_555
N1 C15 1_555 1_555
N2 C16 1_555 1_555
N3 C24 1_555 1_555
N4 C25 1_555 1_555
N5 C24 1_555 1_555
N6 N5 1_555 1_555
H53 N6 1_555 1_555
H54 N6 1_555 1_555
N7 C29 1_555 1_555
N8 C33 1_555 1_555
N9 C49 1_555 1_555
N10 C49 1_555 1_555
N11 C58 1_555 1_555
N12 C59 1_555 1_555
N13 C58 1_555 1_555
N14 N13 1_555 1_555
H55 N14 1_555 1_555
H56 N14 1_555 1_555
N15 C63 1_555 1_555
N16 C66 1_555 1_555
O1 C1 1_555 1_555
O2 Zn3 1_555 1_555
O3 C5 1_555 1_555
O4 Zn1 1_555 1_555
O5 C12 1_555 1_555
O6 C76 1_555 1_555
O7 Zn2 1_555 1_555
O8 C69 1_555 1_555
O9 C69 1_555 1_555
O10 C39 1_555 1_555
O11 C46 1_555 1_555
O12 C46 1_555 1_555
O13 C73 1_555 1_555
O14 Zn3 1_555 1_555
O15 Zn3 1_555 1_555
O16 Zn3 1_555 1_555
H57 O16 1_555 1_555
H58 O16 1_555 1_555
O17 Zn2 1_555 1_555
H59 O17 1_555 1_555
H60 O17 1_555 1_555
O18 H61 1_555 1_555
H62 O18 1_555 1_555
O19 H63 1_555 1_555
H64 O19 1_555 1_555
O20 H65 1_555 1_555
H66 O20 1_555 1_555
O21 H67 1_555 1_555
H68 O21 1_555 1_555
O22 H69 1_555 1_555
O23 H70 1_555 1_555
H71 O23 1_555 1_555
Zn1_2 O11 1_555 1_555
Zn1B N8 1_555 1_555
Zn2A O8 1_555 1_555
N8B Zn1 1_555 1_555
O8A Zn2 1_555 1_555
O11_2 Zn1 1_555 1_555
C1 O2 1_555 1_555
C6 C7 1_555 1_555
C8 O3 1_555 1_555
C12 O4 1_555 1_555
C13 C14 1_555 1_555
C17 N1 1_555 1_555
C17 N2 1_555 1_555
C18 N2 1_555 1_555
C22 C23 1_555 1_555
C25 N5 1_555 1_555
C30 C31 1_555 1_555
C32 N7 1_555 1_555
C34 N7 1_555 1_555
C34 N8 1_555 1_555
C35 O14 1_555 1_555
C35 O15 1_555 1_555
C40 C41 1_555 1_555
C42 O10 1_555 1_555
C47 C48 1_555 1_555
C50 N9 1_555 1_555
C51 N10 1_555 1_555
C53 N10 1_555 1_555
C56 C57 1_555 1_555
C59 N13 1_555 1_555
C64 C65 1_555 1_555
C66 N15 1_555 1_555
C67 N15 1_555 1_555
C68 N16 1_555 1_555
C74 C75 1_555 1_555
C76 O7 1_555 1_555
C80 O13 1_555 1_555
C81 C82 1_555 1_555
N3 N4 1_555 1_555
N11 N12 1_555 1_555

#END
