
#######################################################################
#
#                 Cambridge Crystallographic Data Centre
#                                CCDC 
#
#######################################################################
#
# If this CIF has been generated from an entry in the Cambridge 
# Structural Database, then it will include bibliographic, chemical, 
# crystal, experimental, refinement or atomic coordinate data resulting 
# from the CCDC's data processing and validation procedures.
#
#######################################################################

data_LOVTEV
_symmetry_cell_setting           monoclinic
_symmetry_space_group_name_H-M   'P 21'
_symmetry_Int_Tables_number      4
_space_group_name_Hall           'P 2yb'
loop_
_symmetry_equiv_pos_site_id
_symmetry_equiv_pos_as_xyz
1 x,y,z
2 -x,1/2+y,-z
_cell_length_a                   3.853(5)
_cell_length_b                   18.353(6)
_cell_length_c                   5.797(4)
_cell_angle_alpha                90
_cell_angle_beta                 107.44(8)
_cell_angle_gamma                90
_cell_volume                     391.086
loop_
_atom_site_label
_atom_site_type_symbol
_atom_site_fract_x
_atom_site_fract_y
_atom_site_fract_z
Cu1 Cu 0.4369(11) 0.3401(2) 0.2205(6)
S1 S 0.0098(23) 0.2814(4) 0.3886(12)
N1 N 0.2596(64) 0.3251(13) 0.8731(37)
C1 C 0.1772(84) 0.3081(14) 0.6749(49)
N2 N 0.4773(70) 0.4462(13) 0.3455(51)
N3 N 0.6140(84) 0.5270(15) 0.6875(40)
C2 C 0.614(10) 0.4606(17) 0.5725(70)
H1 H 0.726(10) 0.4220(17) 0.6707(70)
C3 C 0.3466(99) 0.5047(18) 0.1947(55)
H2 H 0.2350(99) 0.4965(18) 0.0309(55)
C4 C 0.484(12) 0.5824(18) 0.5322(96)
H3 H 0.463(12) 0.6284(18) 0.5943(96)
C5 C 0.377(11) 0.5729(17) 0.2789(59)
Br1 Br 0.2111(12) 0.65462(15) 0.0907(7)
S1_2 S 1.0098(23) 0.2814(4) 0.3886(12)
Cu1_2 Cu -0.5631(11) 0.3401(2) 0.2205(6)
N1_2 N 0.2596(64) 0.3251(13) -0.1269(37)
Cu1_3 Cu 0.4369(11) 0.3401(2) 1.2205(6)
loop_
_geom_bond_atom_site_label_1
_geom_bond_atom_site_label_2
_geom_bond_site_symmetry_1
_geom_bond_site_symmetry_2
Cu1 S1 1_555 1_555
S1 C1 1_555 1_555
N1 C1 1_555 1_555
N2 Cu1 1_555 1_555
N3 C2 1_555 1_555
C2 N2 1_555 1_555
H1 C2 1_555 1_555
C3 N2 1_555 1_555
H2 C3 1_555 1_555
C4 N3 1_555 1_555
H3 C4 1_555 1_555
C5 C3 1_555 1_555
Br1 C5 1_555 1_555
S1_2 Cu1 1_555 1_555
Cu1_2 S1 1_555 1_555
N1_2 Cu1 1_555 1_555
Cu1_3 N1 1_555 1_555
C4 C5 1_555 1_555

#END
