
#######################################################################
#
#                 Cambridge Crystallographic Data Centre
#                                CCDC 
#
#######################################################################
#
# If this CIF has been generated from an entry in the Cambridge 
# Structural Database, then it will include bibliographic, chemical, 
# crystal, experimental, refinement or atomic coordinate data resulting 
# from the CCDC's data processing and validation procedures.
#
#######################################################################

data_LOVTOH
_symmetry_cell_setting           monoclinic
_symmetry_space_group_name_H-M   'P 21/c'
_symmetry_Int_Tables_number      14
_space_group_name_Hall           '-P 2ybc'
loop_
_symmetry_equiv_pos_site_id
_symmetry_equiv_pos_as_xyz
1 x,y,z
2 -x,1/2+y,1/2-z
3 -x,-y,-z
4 x,1/2-y,1/2+z
_cell_length_a                   9.3186(3)
_cell_length_b                   13.9878(4)
_cell_length_c                   12.2722(3)
_cell_angle_alpha                90
_cell_angle_beta                 102.371(3)
_cell_angle_gamma                90
_cell_volume                     1562.5
loop_
_atom_site_label
_atom_site_type_symbol
_atom_site_fract_x
_atom_site_fract_y
_atom_site_fract_z
Zn1 Zn 0.46173(4) 0.73891(3) 0.33986(3)
Zn2 Zn 0.29165(4) 0.78458(3) 0.06976(3)
O1 O 0.3102(3) 0.64183(15) 0.28320(19)
C1 C 0.1918(4) 0.6395(2) 0.2108(3)
O2 O 0.1598(3) 0.69106(16) 0.12461(19)
C2 C -0.0151(4) 0.5299(2) 0.1337(3)
H1 H -0.0237 0.5608 0.0656
O3 O 0.6305(3) 0.63360(16) 0.3594(2)
H2 H 0.6585 0.5932 0.4075
C3 C 0.1880(4) 0.5584(2) 0.4366(3)
O4 O 0.4211(3) 0.82277(15) 0.20673(18)
O5 O 0.1533(3) 0.64282(16) 0.46115(19)
O6 O 0.4140(3) 0.78107(16) 0.48194(19)
C4 C 0.0929(4) 0.5198(2) 0.3311(3)
C5 C 0.0073(4) 0.4397(2) 0.3367(3)
H3 H 0.0139 0.4089 0.4047
N1 N 0.6520(3) 0.82824(19) 0.3877(2)
C6 C 0.0834(4) 0.5641(2) 0.2266(3)
C7 C 0.5347(4) 0.8309(3) 0.5492(3)
H4 H 0.6025 0.7854 0.5924
H5 H 0.4994 0.8728 0.6007
C8 C -0.1009(4) 0.4504(2) 0.1410(3)
H6 H -0.1666 0.4277 0.0784
O7 O 0.2852(3) 0.50900(17) 0.4925(2)
C9 C 0.5093(4) 0.9061(2) 0.2181(3)
H7 H 0.4638 0.9560 0.2540
H8 H 0.5174 0.9288 0.1450
C10 C 0.6129(4) 0.8890(3) 0.4757(3)
H9 H 0.5497 0.9407 0.4415
H10 H 0.7013 0.9168 0.5208
C11 C -0.0870(4) 0.4050(2) 0.2437(3)
H11 H -0.1423 0.3506 0.2493
C12 C 0.6615(4) 0.8840(2) 0.2876(3)
H12 H 0.7169 0.8481 0.2428
H13 H 0.7134 0.9433 0.3099
C13 C 0.7839(4) 0.7689(3) 0.4278(3)
H14 H 0.8625 0.7858 0.4850
C14 C 0.7721(4) 0.6769(3) 0.3623(3)
H15 H 0.7832 0.6899 0.2869
H16 H 0.8497 0.6335 0.3969
Zn2C Zn 0.29165(4) 0.71542(3) 0.56976(3)
O5C O 0.1533(3) 0.85718(16) -0.03885(19)
O6C O 0.4140(3) 0.71893(16) -0.01806(19)
loop_
_geom_bond_atom_site_label_1
_geom_bond_atom_site_label_2
_geom_bond_site_symmetry_1
_geom_bond_site_symmetry_2
Zn1 O1 1_555 1_555
Zn2 O2 1_555 1_555
O1 C1 1_555 1_555
C1 O2 1_555 1_555
C2 H1 1_555 1_555
O3 Zn1 1_555 1_555
H2 O3 1_555 1_555
C3 O5 1_555 1_555
O4 Zn1 1_555 1_555
O5 Zn2C 1_555 1_555
O6 Zn1 1_555 1_555
C4 C3 1_555 1_555
C5 C4 1_555 1_555
H3 C5 1_555 1_555
N1 Zn1 1_555 1_555
C6 C1 1_555 1_555
C7 O6 1_555 1_555
H4 C7 1_555 1_555
H5 C7 1_555 1_555
C8 C2 1_555 1_555
H6 C8 1_555 1_555
O7 C3 1_555 1_555
C9 O4 1_555 1_555
H7 C9 1_555 1_555
H8 C9 1_555 1_555
C10 N1 1_555 1_555
H9 C10 1_555 1_555
H10 C10 1_555 1_555
C11 C5 1_555 1_555
H11 C11 1_555 1_555
C12 N1 1_555 1_555
H12 C12 1_555 1_555
H13 C12 1_555 1_555
C13 N1 1_555 1_555
H14 C13 1_555 1_555
C14 O3 1_555 1_555
H15 C14 1_555 1_555
H16 C14 1_555 1_555
Zn2C O6 1_555 1_555
O5C Zn2 1_555 1_555
O6C Zn2 1_555 1_555
Zn2 O4 1_555 1_555
C2 C6 1_555 1_555
C4 C6 1_555 1_555
C7 C10 1_555 1_555
C8 C11 1_555 1_555
C9 C12 1_555 1_555
C13 C14 1_555 1_555

#END
