
#######################################################################
#
#                 Cambridge Crystallographic Data Centre
#                                CCDC 
#
#######################################################################
#
# If this CIF has been generated from an entry in the Cambridge 
# Structural Database, then it will include bibliographic, chemical, 
# crystal, experimental, refinement or atomic coordinate data resulting 
# from the CCDC's data processing and validation procedures.
#
#######################################################################

data_LOWQAP
_symmetry_cell_setting           monoclinic
_symmetry_space_group_name_H-M   'P 21/c'
_symmetry_Int_Tables_number      14
_space_group_name_Hall           '-P 2ybc'
loop_
_symmetry_equiv_pos_site_id
_symmetry_equiv_pos_as_xyz
1 x,y,z
2 x,1/2-y,1/2+z
3 -x,-y,-z
4 -x,1/2+y,1/2-z
_cell_length_a                   11.3033(7)
_cell_length_b                   16.0291(10)
_cell_length_c                   17.5346(11)
_cell_angle_alpha                90
_cell_angle_beta                 92.5460(10)
_cell_angle_gamma                90
_cell_volume                     3173.81
loop_
_atom_site_label
_atom_site_type_symbol
_atom_site_fract_x
_atom_site_fract_y
_atom_site_fract_z
O11 O -0.0041(18) -0.2952(19) -0.5329(11)
N2 N -0.0152(8) -0.3423(8) -0.6422(8)
C27 C -0.0068(10) -0.2658(7) -0.6015(11)
H25 H -0.0041 -0.2111 -0.6190
C28 C -0.0056(11) -0.4247(8) -0.6004(9)
H26 H 0.0057 -0.4146 -0.5466
H27 H 0.0606 -0.4555 -0.6181
H28 H -0.0769 -0.4562 -0.6100
C29 C -0.0326(7) -0.3287(9) -0.7335(6)
H29 H -0.0351 -0.2700 -0.7446
H30 H -0.1053 -0.3543 -0.7516
H31 H 0.0325 -0.3537 -0.7584
O12 O -0.0533(7) -0.3235(9) -0.4114(6)
Zn1 Zn -0.48558(5) -0.44517(3) -0.24338(3)
Zn2 Zn -0.18723(5) -0.42392(3) -0.23306(4)
O1 O -0.2639(3) -0.3712(3) -0.3268(2)
O2 O -0.4575(3) -0.3881(2) -0.3383(2)
O3 O -0.2538(4) -0.1424(3) -0.6527(2)
O4 O -0.4464(3) -0.1230(2) -0.6546(2)
C1 C -0.3609(5) -0.3592(3) -0.3601(3)
C2 C -0.3532(5) -0.1537(3) -0.6271(3)
C3 C -0.3653(4) -0.3074(3) -0.4307(3)
C4 C -0.3579(4) -0.3450(3) -0.5011(3)
C5 C -0.3564(4) -0.2945(3) -0.5665(3)
C6 C -0.3597(4) -0.2089(3) -0.5579(3)
C7 C -0.3680(5) -0.1708(3) -0.4872(3)
C8 C -0.3696(5) -0.2206(3) -0.4223(3)
C9 C -0.3518(6) -0.4389(3) -0.5080(3)
H1 H -0.3543 -0.4635 -0.4581
H2 H -0.2794 -0.4544 -0.5308
H3 H -0.4179 -0.4584 -0.5393
C10 C -0.3509(6) -0.3327(4) -0.6448(3)
H4 H -0.3504 -0.2892 -0.6825
H5 H -0.4188 -0.3677 -0.6545
H6 H -0.2801 -0.3654 -0.6474
C11 C -0.3736(7) -0.0769(3) -0.4795(4)
H7 H -0.3786 -0.0624 -0.4266
H8 H -0.4421 -0.0562 -0.5077
H9 H -0.3036 -0.0526 -0.4991
C12 C -0.3774(7) -0.1830(4) -0.3439(3)
H10 H -0.3799 -0.1233 -0.3480
H11 H -0.3094 -0.1992 -0.3127
H12 H -0.4480 -0.2024 -0.3211
O5 O -0.6458(3) -0.48326(19) -0.2379(2)
O6 O -0.8382(3) -0.4705(2) -0.2341(3)
C13 C -0.7396(4) -0.4394(3) -0.2376(3)
C14 C -0.7273(4) -0.3456(3) -0.2417(3)
C15 C -0.7282(4) -0.3078(3) -0.3130(3)
C16 C -0.7160(4) -0.2211(3) -0.3166(3)
C17 C -0.7026(4) -0.1764(3) -0.2485(3)
C18 C -0.7020(4) -0.2137(3) -0.1787(3)
C19 C -0.7149(4) -0.3003(3) -0.1744(3)
C20 C -0.7413(5) -0.3595(3) -0.3853(3)
H13 H -0.7481 -0.4174 -0.3721
H14 H -0.6731 -0.3516 -0.4152
H15 H -0.8111 -0.3423 -0.4143
C21 C -0.7148(6) -0.1784(4) -0.3941(3)
H16 H -0.7061 -0.1193 -0.3870
H17 H -0.7878 -0.1896 -0.4223
H18 H -0.6498 -0.1992 -0.4219
C22 C -0.6853(6) -0.1630(4) -0.1061(3)
H19 H -0.6783 -0.1050 -0.1187
H20 H -0.6147 -0.1811 -0.0784
H21 H -0.7523 -0.1709 -0.0751
C23 C -0.7150(6) -0.3450(4) -0.0984(3)
H22 H -0.7239 -0.4039 -0.1069
H23 H -0.7795 -0.3249 -0.0697
H24 H -0.6415 -0.3346 -0.0705
O7 O -0.7843(4) -0.0409(2) -0.2523(3)
O8 O -0.5909(3) -0.0545(2) -0.2601(3)
C24 C -0.6911(5) -0.0829(3) -0.2537(3)
O9 O -0.0314(4) -0.3865(3) -0.2563(4)
O10 O -0.0858(8) -0.4764(8) -0.1272(7)
N1 N -0.024(2) -0.444(4) 0.014(3)
C25 C -0.025(7) -0.473(6) -0.025(3)
C26 C -0.038(2) -0.418(2) 0.0831(14)
C25B C 0.025(7) -0.527(6) 0.025(3)
O10B O 0.0858(8) -0.5236(8) 0.1272(7)
N1B N 0.024(2) -0.556(4) -0.014(3)
C26B C 0.038(2) -0.582(2) -0.0831(14)
O1A O -0.2639(3) -0.1288(3) 0.1732(2)
O2A O -0.4575(3) -0.1119(2) 0.1617(2)
O3A O -0.2538(4) -0.3576(3) -0.1527(2)
O4A O -0.4464(3) -0.3770(2) -0.1546(2)
C1A C -0.3609(5) -0.1408(3) 0.1399(3)
C2A C -0.3532(5) -0.3463(3) -0.1271(3)
C3A C -0.3653(4) -0.1926(3) 0.0693(3)
C4A C -0.3579(4) -0.1550(3) -0.0011(3)
C5A C -0.3564(4) -0.2055(3) -0.0665(3)
C6A C -0.3597(4) -0.2911(3) -0.0579(3)
C7A C -0.3680(5) -0.3292(3) 0.0128(3)
C8A C -0.3696(5) -0.2794(3) 0.0777(3)
C9A C -0.3518(6) -0.0611(3) -0.0080(3)
H1A H -0.3543 -0.0365 0.0419
H2A H -0.2794 -0.0456 -0.0308
H3A H -0.4179 -0.0416 -0.0393
C10A C -0.3509(6) -0.1673(4) -0.1448(3)
H4A H -0.3504 -0.2108 -0.1825
H5A H -0.4188 -0.1323 -0.1545
H6A H -0.2801 -0.1346 -0.1474
C11A C -0.3736(7) -0.4231(3) 0.0205(4)
H7A H -0.3786 -0.4376 0.0734
H8A H -0.4421 -0.4438 -0.0077
H9A H -0.3036 -0.4474 0.0009
C12A C -0.3774(7) -0.3170(4) 0.1561(3)
H10A H -0.3799 -0.3767 0.1520
H11A H -0.3094 -0.3008 0.1873
H12A H -0.4480 -0.2976 0.1789
O5C O -0.3542(3) -0.98326(19) -0.2621(2)
O6C O -0.1618(3) -0.9705(2) -0.2659(3)
C13C C -0.2604(4) -0.9394(3) -0.2624(3)
C14C C -0.2727(4) -0.8456(3) -0.2583(3)
C15C C -0.2718(4) -0.8078(3) -0.1870(3)
C16C C -0.2840(4) -0.7211(3) -0.1834(3)
C17C C -0.2974(4) -0.6764(3) -0.2515(3)
C18C C -0.2980(4) -0.7137(3) -0.3213(3)
C19C C -0.2851(4) -0.8003(3) -0.3256(3)
C20C C -0.2587(5) -0.8595(3) -0.1147(3)
H13C H -0.2519 -0.9174 -0.1279
H14C H -0.3269 -0.8516 -0.0848
H15C H -0.1889 -0.8423 -0.0857
C21C C -0.2852(6) -0.6784(4) -0.1059(3)
H16C H -0.2939 -0.6193 -0.1130
H17C H -0.2122 -0.6896 -0.0777
H18C H -0.3502 -0.6992 -0.0781
C22C C -0.3147(6) -0.6630(4) -0.3939(3)
H19C H -0.3217 -0.6050 -0.3813
H20C H -0.3853 -0.6811 -0.4216
H21C H -0.2477 -0.6709 -0.4249
C23C C -0.2850(6) -0.8450(4) -0.4016(3)
H22C H -0.2761 -0.9039 -0.3931
H23C H -0.2205 -0.8249 -0.4303
H24C H -0.3585 -0.8346 -0.4295
O7C O -0.2157(4) -0.5409(2) -0.2477(3)
O8C O -0.4091(3) -0.5545(2) -0.2399(3)
C24C C -0.3089(5) -0.5829(3) -0.2463(3)
Zn1A Zn -0.48558(5) -0.05483(3) 0.25662(3)
Zn2A Zn -0.18723(5) -0.07608(3) 0.26694(4)
O9A O -0.0314(4) -0.1135(3) 0.2437(4)
Zn2A_2 Zn -0.18723(5) -0.07608(3) -0.73306(4)
Zn1A_2 Zn -0.48558(5) -0.05483(3) -0.74338(3)
Zn2C Zn -0.81277(5) 0.07608(3) -0.26694(4)
Zn1C Zn -0.51442(5) 0.05483(3) -0.25662(3)
Zn2B Zn 0.18723(5) -0.57608(3) 0.23306(4)
Zn1C_2 Zn -0.51442(5) -0.94517(3) -0.25662(3)
O4_2 O -0.4464(3) -0.1230(2) 0.3454(2)
O5A O -0.6458(3) -0.01674(19) 0.2621(2)
O8B O -0.4091(3) 0.0545(2) 0.2601(3)
O3_2 O -0.2538(4) -0.1424(3) 0.3473(2)
O7B O -0.2157(4) 0.0409(2) 0.2523(3)
O10A O -0.0858(8) -0.0236(8) 0.3728(7)
loop_
_geom_bond_atom_site_label_1
_geom_bond_atom_site_label_2
_geom_bond_site_symmetry_1
_geom_bond_site_symmetry_2
Zn1 O2 1_555 1_555
Zn2 O1 1_555 1_555
O1 C1 1_555 1_555
O2 C1 1_555 1_555
O3 C2 1_555 1_555
O4 C2 1_555 1_555
C1 C3 1_555 1_555
C2 C6 1_555 1_555
C3 C4 1_555 1_555
C4 C5 1_555 1_555
C5 C6 1_555 1_555
C6 C7 1_555 1_555
C7 C8 1_555 1_555
C8 C3 1_555 1_555
C9 C4 1_555 1_555
H1 C9 1_555 1_555
H2 C9 1_555 1_555
H3 C9 1_555 1_555
C10 C5 1_555 1_555
H4 C10 1_555 1_555
H5 C10 1_555 1_555
H6 C10 1_555 1_555
C11 C7 1_555 1_555
H7 C11 1_555 1_555
H8 C11 1_555 1_555
H9 C11 1_555 1_555
C12 C8 1_555 1_555
H10 C12 1_555 1_555
H11 C12 1_555 1_555
H12 C12 1_555 1_555
O5 Zn1 1_555 1_555
O6 C13 1_555 1_555
C13 O5 1_555 1_555
C14 C13 1_555 1_555
C15 C14 1_555 1_555
C16 C15 1_555 1_555
C17 C16 1_555 1_555
C18 C17 1_555 1_555
C19 C14 1_555 1_555
C20 C15 1_555 1_555
H13 C20 1_555 1_555
H14 C20 1_555 1_555
H15 C20 1_555 1_555
C21 C16 1_555 1_555
H16 C21 1_555 1_555
H17 C21 1_555 1_555
H18 C21 1_555 1_555
C22 C18 1_555 1_555
H19 C22 1_555 1_555
H20 C22 1_555 1_555
H21 C22 1_555 1_555
C23 C19 1_555 1_555
H22 C23 1_555 1_555
H23 C23 1_555 1_555
H24 C23 1_555 1_555
O7 C24 1_555 1_555
O8 C24 1_555 1_555
C24 C17 1_555 1_555
O9 Zn2 1_555 1_555
O10 Zn2 1_555 1_555
N1 C25 1_555 1_555
C25 O10 1_555 1_555
C26 N1 1_555 1_555
O11 C27 1_555 1_555
N2 C27 1_555 1_555
C27 H25 1_555 1_555
C28 N2 1_555 1_555
H26 C28 1_555 1_555
H27 C28 1_555 1_555
H28 C28 1_555 1_555
C29 N2 1_555 1_555
H29 C29 1_555 1_555
H30 C29 1_555 1_555
H31 C29 1_555 1_555
C25B N1 1_555 1_555
O10B C25B 1_555 1_555
N1B C25 1_555 1_555
C26B N1B 1_555 1_555
O1A C1A 1_555 1_555
O2A C1A 1_555 1_555
O3A Zn2 1_555 1_555
O4A Zn1 1_555 1_555
C1A C3A 1_555 1_555
C2A O3A 1_555 1_555
C3A C4A 1_555 1_555
C4A C5A 1_555 1_555
C5A C6A 1_555 1_555
C6A C2A 1_555 1_555
C7A C6A 1_555 1_555
C8A C3A 1_555 1_555
C9A C4A 1_555 1_555
H1A C9A 1_555 1_555
H2A C9A 1_555 1_555
H3A C9A 1_555 1_555
C10A C5A 1_555 1_555
H4A C10A 1_555 1_555
H5A C10A 1_555 1_555
H6A C10A 1_555 1_555
C11A C7A 1_555 1_555
H7A C11A 1_555 1_555
H8A C11A 1_555 1_555
H9A C11A 1_555 1_555
C12A C8A 1_555 1_555
H10A C12A 1_555 1_555
H11A C12A 1_555 1_555
H12A C12A 1_555 1_555
O5C C13C 1_555 1_555
O6C C13C 1_555 1_555
C13C C14C 1_555 1_555
C14C C15C 1_555 1_555
C15C C16C 1_555 1_555
C16C C17C 1_555 1_555
C17C C18C 1_555 1_555
C18C C19C 1_555 1_555
C19C C14C 1_555 1_555
C20C C15C 1_555 1_555
H13C C20C 1_555 1_555
H14C C20C 1_555 1_555
H15C C20C 1_555 1_555
C21C C16C 1_555 1_555
H16C C21C 1_555 1_555
H17C C21C 1_555 1_555
H18C C21C 1_555 1_555
C22C C18C 1_555 1_555
H19C C22C 1_555 1_555
H20C C22C 1_555 1_555
H21C C22C 1_555 1_555
C23C C19C 1_555 1_555
H22C C23C 1_555 1_555
H23C C23C 1_555 1_555
H24C C23C 1_555 1_555
O7C Zn2 1_555 1_555
O8C Zn1 1_555 1_555
C24C C17C 1_555 1_555
Zn1A O2A 1_555 1_555
Zn2A O1A 1_555 1_555
O9A Zn2A 1_555 1_555
Zn2A_2 O3 1_555 1_555
Zn1A_2 O4 1_555 1_555
Zn2C O7 1_555 1_555
Zn1C O8 1_555 1_555
Zn2B O10B 1_555 1_555
Zn1C_2 O5C 1_555 1_555
O4_2 Zn1A 1_555 1_555
O5A Zn1A 1_555 1_555
O8B Zn1A 1_555 1_555
O3_2 Zn2A 1_555 1_555
O7B Zn2A 1_555 1_555
O10A Zn2A 1_555 1_555
C18 C19 1_555 1_555
C25 C25B 1_555 1_555
C25B N1B 1_555 1_555
O4A C2A 1_555 1_555
C7A C8A 1_555 1_555
O7C C24C 1_555 1_555
O8C C24C 1_555 1_555

#END
