
#######################################################################
#
#                 Cambridge Crystallographic Data Centre
#                                CCDC 
#
#######################################################################
#
# If this CIF has been generated from an entry in the Cambridge 
# Structural Database, then it will include bibliographic, chemical, 
# crystal, experimental, refinement or atomic coordinate data resulting 
# from the CCDC's data processing and validation procedures.
#
#######################################################################

data_LOWRAQ
_symmetry_cell_setting           monoclinic
_symmetry_space_group_name_H-M   'P 21/c'
_symmetry_Int_Tables_number      14
_space_group_name_Hall           '-P 2ybc'
loop_
_symmetry_equiv_pos_site_id
_symmetry_equiv_pos_as_xyz
1 x,y,z
2 x,1/2-y,1/2+z
3 -x,-y,-z
4 -x,1/2+y,1/2-z
_cell_length_a                   23.443(5)
_cell_length_b                   24.577(5)
_cell_length_c                   21.329(4)
_cell_angle_alpha                90
_cell_angle_beta                 115.80(3)
_cell_angle_gamma                90
_cell_volume                     11063.9
loop_
_atom_site_label
_atom_site_type_symbol
_atom_site_fract_x
_atom_site_fract_y
_atom_site_fract_z
Cu1 Cu 0.47410(6) 0.39672(5) 0.24733(6)
Cu2 Cu 0.48674(6) 0.06205(5) 0.29298(6)
Fe1 Fe 0.59619(7) 0.22033(5) 0.22515(7)
Fe2 Fe 0.36196(6) 0.23366(5) 0.30795(7)
Cl1 Cl 0.52691(13) -0.02998(10) 0.32909(13)
N1 N 0.4850(4) 0.0672(3) 0.3827(4)
N2 N 0.5867(4) 0.0985(3) 0.4197(4)
H1 H 0.6248 0.1017 0.4517
N3 N 0.5718(4) 0.1084(3) 0.3496(4)
N4 N 0.4629(4) 0.3376(3) 0.1658(4)
N5 N 0.4007(4) 0.3463(3) 0.1136(4)
H2 H 0.3891 0.3352 0.0716
N6 N 0.3832(4) 0.3977(3) 0.1950(4)
N7 N 0.4867(4) 0.0472(3) 0.2044(4)
N8 N 0.3827(4) 0.0731(3) 0.1596(4)
H3 H 0.3440 0.0711 0.1287
N9 N 0.4005(4) 0.0961(3) 0.2254(4)
N10 N 0.4782(4) 0.3634(3) 0.3394(4)
N11 N 0.5345(4) 0.3825(3) 0.3923(4)
H4 H 0.5400 0.3833 0.4349
N12 N 0.5631(4) 0.4076(3) 0.3066(4)
C1 C 0.4365(6) 0.0528(4) 0.3967(6)
H5 H 0.3989 0.0416 0.3601
C2 C 0.4398(7) 0.0537(4) 0.4629(7)
H6 H 0.4054 0.0438 0.4712
C3 C 0.4963(7) 0.0700(5) 0.5162(7)
H7 H 0.4995 0.0713 0.5612
C4 C 0.5479(7) 0.0845(4) 0.5059(6)
H8 H 0.5864 0.0941 0.5424
C5 C 0.5384(6) 0.0836(4) 0.4348(6)
C6 C 0.6156(5) 0.1294(4) 0.3345(5)
C7 C 0.6825(5) 0.1373(5) 0.3877(6)
H9 H 0.6868 0.1252 0.4323
H10 H 0.6933 0.1752 0.3903
H11 H 0.7105 0.1167 0.3746
C8 C 0.5947(5) 0.1442(4) 0.2621(5)
C9 C 0.5330(5) 0.1604(4) 0.2140(5)
H12 H 0.4959 0.1636 0.2236
C10 C 0.5342(6) 0.1700(4) 0.1495(5)
H13 H 0.4980 0.1820 0.1070
C11 C 0.5955(6) 0.1611(4) 0.1563(6)
H14 H 0.6095 0.1657 0.1195
C12 C 0.6337(5) 0.1456(4) 0.2253(6)
H15 H 0.6790 0.1368 0.2450
C13 C 0.6206(5) 0.2916(4) 0.1960(6)
H16 H 0.6257 0.2972 0.1532
C14 C 0.6693(5) 0.2757(4) 0.2606(6)
H17 H 0.7136 0.2686 0.2709
C15 C 0.6416(5) 0.2715(4) 0.3077(6)
H18 H 0.6637 0.2604 0.3566
C16 C 0.5775(5) 0.2844(4) 0.2728(5)
H19 H 0.5472 0.2847 0.2932
C17 C 0.5636(5) 0.2987(4) 0.2020(5)
C18 C 0.5017(5) 0.3122(4) 0.1481(5)
C19 C 0.4849(5) 0.2974(4) 0.0726(5)
H20 H 0.4425 0.3091 0.0433
H21 H 0.4879 0.2587 0.0687
H22 H 0.5139 0.3151 0.0584
C20 C 0.3595(5) 0.3731(4) 0.1328(6)
C21 C 0.2941(6) 0.3735(5) 0.0854(6)
H23 H 0.2792 0.3557 0.0427
C22 C 0.2539(6) 0.4014(6) 0.1054(7)
H24 H 0.2109 0.4032 0.0757
C23 C 0.2775(5) 0.4271(5) 0.1702(6)
H25 H 0.2507 0.4460 0.1844
C24 C 0.3410(5) 0.4236(4) 0.2123(5)
H26 H 0.3564 0.4402 0.2558
C25 C 0.5363(5) 0.0275(4) 0.1938(6)
H27 H 0.5748 0.0221 0.2324
C26 C 0.5323(6) 0.0152(5) 0.1290(7)
H28 H 0.5674 0.0027 0.1236
C27 C 0.4745(7) 0.0221(5) 0.0725(7)
H29 H 0.4702 0.0137 0.0282
C28 C 0.4227(6) 0.0413(5) 0.0805(6)
H30 H 0.3834 0.0456 0.0426
C29 C 0.4324(5) 0.0542(4) 0.1495(5)
C30 C 0.3564(5) 0.1206(4) 0.2348(5)
C31 C 0.2883(5) 0.1220(4) 0.1814(5)
H31 H 0.2834 0.1002 0.1420
H32 H 0.2762 0.1588 0.1667
H33 H 0.2618 0.1077 0.2014
C32 C 0.3740(4) 0.1521(4) 0.3006(5)
C33 C 0.4328(4) 0.1785(4) 0.3387(5)
H34 H 0.4686 0.1789 0.3266
C34 C 0.4320(5) 0.2021(4) 0.3979(5)
H35 H 0.4666 0.2225 0.4341
C35 C 0.3712(5) 0.1921(4) 0.3952(5)
H36 H 0.3566 0.2048 0.4293
C36 C 0.3352(5) 0.1624(4) 0.3349(5)
H37 H 0.2916 0.1497 0.3201
C37 C 0.3781(5) 0.2872(4) 0.2456(5)
H38 H 0.4123 0.2845 0.2310
C38 C 0.3170(5) 0.2658(4) 0.2092(5)
H39 H 0.3011 0.2454 0.1654
C39 C 0.2833(5) 0.2785(4) 0.2470(6)
H40 H 0.2392 0.2682 0.2344
C40 C 0.3233(5) 0.3080(4) 0.3073(6)
H41 H 0.3115 0.3221 0.3431
C41 C 0.3826(4) 0.3141(4) 0.3062(5)
C42 C 0.4374(5) 0.3416(4) 0.3583(5)
C43 C 0.4471(5) 0.3433(4) 0.4328(5)
H42 H 0.4855 0.3626 0.4605
H43 H 0.4501 0.3069 0.4502
H44 H 0.4119 0.3615 0.4353
C44 C 0.5806(5) 0.3998(4) 0.3741(6)
C45 C 0.6424(5) 0.4100(5) 0.4257(6)
H45 H 0.6529 0.4049 0.4726
C46 C 0.6858(6) 0.4273(5) 0.4046(8)
H46 H 0.7271 0.4346 0.4371
C47 C 0.6686(6) 0.4340(5) 0.3346(7)
H47 H 0.6984 0.4452 0.3194
C48 C 0.6081(5) 0.4243(4) 0.2880(6)
H48 H 0.5972 0.4293 0.2410
Cu1C Cu 0.52590(6) -0.10328(5) 0.25267(6)
Cl1C Cl 0.47309(13) 0.47002(10) 0.17091(13)
B1 B -0.0202(5) -0.2866(4) 0.4144(5)
F1 F -0.0026(4) -0.3018(3) 0.3642(3)
F2 F -0.0211(5) -0.3303(3) 0.4538(4)
F3 F 0.0185(3) -0.2479(3) 0.4577(3)
F4 F -0.0805(4) -0.2661(4) 0.3843(4)
B2 B 0.6679(5) -0.2128(5) -0.0428(6)
F5 F 0.6191(4) -0.2101(4) -0.1090(5)
F6 F 0.6735(4) -0.2653(3) -0.0173(4)
F7 F 0.7242(4) -0.2004(5) -0.0446(5)
F8 F 0.6593(7) -0.1821(5) 0.0056(7)
B3 B 0.2699(6) -0.0169(5) 0.3045(7)
F12 F 0.3189(4) -0.0508(4) 0.3137(5)
F13 F 0.2292(8) -0.0129(6) 0.2349(7)
F14 F 0.2870(6) 0.0345(5) 0.3294(11)
F15 F 0.2395(8) -0.0461(6) 0.3347(9)
O1 O 0.7314(5) -0.0803(4) -0.0195(5)
O2 O 0.8860(18) -0.0436(15) 0.425(2)
Cu3 Cu 0.02198(6) -0.49314(5) 0.30970(6)
Cu4 Cu 0.02204(6) -0.16363(5) 0.21365(6)
Fe3 Fe 0.16943(6) -0.32461(5) 0.34775(7)
Fe4 Fe -0.12913(7) -0.33465(6) 0.15859(7)
Cl2 Cl -0.00222(14) -0.57940(10) 0.34971(14)
N13 N -0.0283(4) -0.5149(3) 0.2148(4)
N14 N 0.0594(4) -0.4923(3) 0.2000(4)
H49 H 0.0835 -0.4956 0.1792
N15 N 0.0799(4) -0.4668(3) 0.2645(4)
N16 N 0.0612(4) -0.1902(3) 0.3175(4)
N17 N 0.0275(4) -0.1661(3) 0.3489(4)
H50 H 0.0434 -0.1607 0.3931
N18 N -0.0465(4) -0.1475(3) 0.2382(5)
N19 N 0.0706(4) -0.4798(3) 0.4091(4)
N20 N -0.0203(4) -0.4364(3) 0.3977(4)
H51 H -0.0463 -0.4266 0.4142
N21 N -0.0373(4) -0.4350(3) 0.3265(4)
N22 N -0.0141(4) -0.2251(3) 0.1307(4)
N23 N 0.0251(4) -0.2215(3) 0.0986(4)
H52 H 0.0137 -0.2352 0.0577
N24 N 0.0933(4) -0.1708(3) 0.1909(5)
C49 C -0.0875(6) -0.5324(4) 0.1893(5)
H53 H -0.1065 -0.5351 0.2194
C50 C -0.1226(6) -0.5468(4) 0.1208(6)
H54 H -0.1646 -0.5577 0.1043
C51 C -0.0928(6) -0.5441(5) 0.0779(6)
H55 H -0.1144 -0.5552 0.0318
C52 C -0.0318(5) -0.5256(4) 0.1018(6)
H56 H -0.0121 -0.5227 0.0724
C53 C -0.0003(6) -0.5113(4) 0.1724(6)
C54 C 0.1336(5) -0.4420(4) 0.2868(5)
C55 C 0.1778(5) -0.4458(4) 0.2516(6)
H57 H 0.1598 -0.4700 0.2125
H58 H 0.2182 -0.4596 0.2843
H59 H 0.1831 -0.4104 0.2361
C56 C 0.1526(5) -0.4064(4) 0.3477(5)
C57 C 0.1098(5) -0.3759(4) 0.3659(5)
H60 H 0.0635 -0.3762 0.3408
C58 C 0.1464(5) -0.3456(4) 0.4270(5)
H61 H 0.1301 -0.3211 0.4517
C59 C 0.2100(5) -0.3564(4) 0.4448(5)
H62 H 0.2458 -0.3402 0.4845
C60 C 0.2155(5) -0.3932(4) 0.3971(5)
H63 H 0.2549 -0.4076 0.3982
C61 C 0.1174(5) -0.2768(4) 0.2646(5)
H64 H 0.0716 -0.2796 0.2357
C62 C 0.1644(6) -0.3035(4) 0.2524(6)
H65 H 0.1573 -0.3284 0.2139
C63 C 0.2238(6) -0.2891(5) 0.3063(7)
H66 H 0.2651 -0.3021 0.3115
C64 C 0.2134(5) -0.2529(4) 0.3513(6)
H67 H 0.2464 -0.2364 0.3932
C65 C 0.1476(4) -0.2443(4) 0.3262(5)
C66 C 0.1162(5) -0.2104(4) 0.3585(5)
C67 C 0.1477(5) -0.2016(4) 0.4355(5)
H68 H 0.1217 -0.1785 0.4486
H69 H 0.1882 -0.1846 0.4484
H70 H 0.1536 -0.2360 0.4588
C68 C -0.0330(6) -0.1513(4) 0.3049(7)
C69 C -0.0779(7) -0.1391(5) 0.3301(7)
H71 H -0.0676 -0.1419 0.3773
C70 C -0.1363(7) -0.1234(5) 0.2841(9)
H72 H -0.1663 -0.1145 0.2999
C71 C -0.1521(6) -0.1202(5) 0.2145(9)
H73 H -0.1929 -0.1105 0.1827
C72 C -0.1063(6) -0.1318(4) 0.1928(7)
H74 H -0.1163 -0.1289 0.1457
C73 C 0.1287(6) -0.5004(4) 0.4505(6)
H75 H 0.1514 -0.5173 0.4294
C74 C 0.1560(6) -0.4977(5) 0.5228(6)
H76 H 0.1951 -0.5134 0.5501
C75 C 0.1218(7) -0.4703(5) 0.5519(7)
H77 H 0.1391 -0.4665 0.6001
C76 C 0.0637(6) -0.4487(4) 0.5122(6)
H78 H 0.0408 -0.4310 0.5324
C77 C 0.0396(5) -0.4541(4) 0.4402(5)
C78 C -0.0925(5) -0.4138(4) 0.2865(5)
C79 C -0.1403(5) -0.3992(4) 0.3117(5)
H79 H -0.1237 -0.4067 0.3606
H80 H -0.1781 -0.4202 0.2870
H81 H -0.1502 -0.3611 0.3037
C80 C -0.1059(5) -0.4062(4) 0.2134(5)
C81 C -0.1679(5) -0.4092(4) 0.1557(5)
H82 H -0.2079 -0.4168 0.1582
C82 C -0.1598(6) -0.4011(4) 0.0948(6)
H83 H -0.1938 -0.4010 0.0472
C83 C -0.0951(6) -0.3918(4) 0.1132(6)
H84 H -0.0766 -0.3844 0.0809
C84 C -0.0613(5) -0.3939(4) 0.1876(5)
H85 H -0.0156 -0.3888 0.2152
C85 C -0.1734(5) -0.2669(4) 0.1032(6)
H86 H -0.2017 -0.2652 0.0533
C86 C -0.1912(5) -0.2759(4) 0.1574(6)
H87 H -0.2346 -0.2824 0.1514
C87 C -0.1375(5) -0.2746(4) 0.2209(5)
H88 H -0.1369 -0.2802 0.2667
C88 C -0.0837(5) -0.2664(4) 0.2086(5)
H89 H -0.0396 -0.2635 0.2436
C89 C -0.1068(5) -0.2606(4) 0.1348(5)
C90 C -0.0671(5) -0.2504(4) 0.0973(5)
C91 C -0.0894(5) -0.2705(5) 0.0231(5)
H90 H -0.0588 -0.2609 0.0064
H91 H -0.1294 -0.2540 -0.0060
H92 H -0.0941 -0.3093 0.0221
C92 C 0.0825(5) -0.1962(4) 0.1316(6)
C93 C 0.1275(6) -0.1971(5) 0.1043(6)
H93 H 0.1192 -0.2162 0.0635
C94 C 0.1823(6) -0.1703(5) 0.1377(7)
H94 H 0.2112 -0.1690 0.1187
C95 C 0.1960(5) -0.1448(5) 0.1998(7)
H95 H 0.2348 -0.1277 0.2248
C96 C 0.1498(5) -0.1454(4) 0.2238(6)
H96 H 0.1581 -0.1272 0.2651
Cu4C Cu -0.02204(6) -0.66363(5) 0.28635(6)
Cl2C Cl 0.00222(14) -0.07940(10) 0.15029(14)
B4 B 0.3818(5) -0.2434(4) 0.0151(5)
F19 F 0.4309(3) -0.2531(4) 0.0791(4)
F20 F 0.3901(4) -0.1939(3) -0.0091(4)
F21 F 0.3265(3) -0.2434(4) 0.0212(4)
F22 F 0.3791(4) -0.2822(3) -0.0317(4)
B5 B 0.0576(7) -0.1128(5) 0.5620(7)
F23 F 0.0481(4) -0.1355(5) 0.6148(5)
F24 F 0.0660(9) -0.0579(5) 0.5754(12)
F25 F 0.1158(9) -0.1350(9) 0.5740(12)
F26 F 0.0106(15) -0.1233(11) 0.4972(10)
B6 B 0.6869(5) -0.0218(5) 0.1185(6)
F30 F 0.7363(5) -0.0228(4) 0.1009(5)
F31 F 0.6925(12) -0.0046(13) 0.1820(10)
F32 F 0.6560(15) -0.0692(9) 0.0900(18)
F33 F 0.6549(11) 0.0201(8) 0.0742(12)
O3 O 0.2954(6) -0.3787(5) -0.0546(7)
F9? F 0.6445(17) 0.770(2) 0.0021(14)
F10? F 0.693(2) 0.8390(10) -0.026(2)
F11? F 0.7127(16) 0.7520(19) -0.0448(18)
F16? F 0.2840(16) 0.9976(16) 0.3724(10)
F17? F 0.2056(8) 0.9754(14) 0.275(2)
F18? F 0.2911(18) 1.0198(15) 0.271(2)
F27? F 0.0974(18) 0.9311(12) 0.581(2)
F28? F 0.0696(18) 0.8604(11) 0.5132(16)
F29? F -0.0050(9) 0.9017(15) 0.5193(11)
F34? F 0.7184(10) 0.9559(10) 0.1836(8)
F35? F 0.6724(10) 1.0313(6) 0.1243(18)
F36? F 0.6299(7) 0.9532(9) 0.0829(14)
O4? O 0.288(2) 0.5577(19) -0.025(2)
loop_
_geom_bond_atom_site_label_1
_geom_bond_atom_site_label_2
_geom_bond_site_symmetry_1
_geom_bond_site_symmetry_2
Cu1 N4 1_555 1_555
Cu2 Cl1 1_555 1_555
Fe1 C8 1_555 1_555
Fe2 C32 1_555 1_555
Cl1 Cu1C 1_555 1_555
N1 Cu2 1_555 1_555
N2 H1 1_555 1_555
N3 Cu2 1_555 1_555
N4 N5 1_555 1_555
N5 H2 1_555 1_555
N6 Cu1 1_555 1_555
N7 Cu2 1_555 1_555
N8 H3 1_555 1_555
N9 Cu2 1_555 1_555
N10 Cu1 1_555 1_555
N11 N10 1_555 1_555
H4 N11 1_555 1_555
N12 Cu1 1_555 1_555
C1 N1 1_555 1_555
H5 C1 1_555 1_555
C2 C1 1_555 1_555
H6 C2 1_555 1_555
C3 C2 1_555 1_555
H7 C3 1_555 1_555
C4 C3 1_555 1_555
H8 C4 1_555 1_555
C5 N1 1_555 1_555
C6 N3 1_555 1_555
C7 C6 1_555 1_555
H9 C7 1_555 1_555
H10 C7 1_555 1_555
H11 C7 1_555 1_555
C8 C6 1_555 1_555
C9 Fe1 1_555 1_555
H12 C9 1_555 1_555
C10 Fe1 1_555 1_555
H13 C10 1_555 1_555
C11 Fe1 1_555 1_555
H14 C11 1_555 1_555
C12 Fe1 1_555 1_555
H15 C12 1_555 1_555
C13 Fe1 1_555 1_555
H16 C13 1_555 1_555
C14 Fe1 1_555 1_555
H17 C14 1_555 1_555
C15 Fe1 1_555 1_555
H18 C15 1_555 1_555
C16 Fe1 1_555 1_555
H19 C16 1_555 1_555
C17 Fe1 1_555 1_555
C18 N4 1_555 1_555
C19 C18 1_555 1_555
H20 C19 1_555 1_555
H21 C19 1_555 1_555
H22 C19 1_555 1_555
C20 N5 1_555 1_555
C21 C20 1_555 1_555
H23 C21 1_555 1_555
C22 C21 1_555 1_555
H24 C22 1_555 1_555
C23 C22 1_555 1_555
H25 C23 1_555 1_555
C24 N6 1_555 1_555
H26 C24 1_555 1_555
C25 N7 1_555 1_555
H27 C25 1_555 1_555
C26 C25 1_555 1_555
H28 C26 1_555 1_555
C27 C26 1_555 1_555
H29 C27 1_555 1_555
C28 C27 1_555 1_555
H30 C28 1_555 1_555
C29 N7 1_555 1_555
C30 N9 1_555 1_555
C31 C30 1_555 1_555
H31 C31 1_555 1_555
H32 C31 1_555 1_555
H33 C31 1_555 1_555
C32 C30 1_555 1_555
C33 Fe2 1_555 1_555
H34 C33 1_555 1_555
C34 Fe2 1_555 1_555
H35 C34 1_555 1_555
C35 Fe2 1_555 1_555
H36 C35 1_555 1_555
C36 Fe2 1_555 1_555
H37 C36 1_555 1_555
C37 Fe2 1_555 1_555
H38 C37 1_555 1_555
C38 Fe2 1_555 1_555
H39 C38 1_555 1_555
C39 Fe2 1_555 1_555
H40 C39 1_555 1_555
C40 Fe2 1_555 1_555
H41 C40 1_555 1_555
C41 Fe2 1_555 1_555
C42 N10 1_555 1_555
C43 C42 1_555 1_555
H42 C43 1_555 1_555
H43 C43 1_555 1_555
H44 C43 1_555 1_555
C44 N11 1_555 1_555
C45 C44 1_555 1_555
H45 C45 1_555 1_555
C46 C45 1_555 1_555
H46 C46 1_555 1_555
C47 C46 1_555 1_555
H47 C47 1_555 1_555
C48 N12 1_555 1_555
H48 C48 1_555 1_555
B1 F1 1_555 1_555
F2 B1 1_555 1_555
F3 B1 1_555 1_555
F4 B1 1_555 1_555
B2 F5 1_555 1_555
F6 B2 1_555 1_555
F7 B2 1_555 1_555
F8 B2 1_555 1_555
B3 F12 1_555 1_555
F13 B3 1_555 1_555
F14 B3 1_555 1_555
F15 B3 1_555 1_555
Cu3 Cl2 1_555 1_555
Cu4 N16 1_555 1_555
Fe3 C56 1_555 1_555
Fe4 C80 1_555 1_555
Cl2 Cu4C 1_555 1_555
N13 Cu3 1_555 1_555
N14 H49 1_555 1_555
N15 Cu3 1_555 1_555
N16 N17 1_555 1_555
N17 H50 1_555 1_555
N18 Cu4 1_555 1_555
N19 Cu3 1_555 1_555
N20 H51 1_555 1_555
N21 Cu3 1_555 1_555
N22 Cu4 1_555 1_555
N23 N22 1_555 1_555
H52 N23 1_555 1_555
N24 Cu4 1_555 1_555
C49 N13 1_555 1_555
H53 C49 1_555 1_555
C50 C49 1_555 1_555
H54 C50 1_555 1_555
C51 C50 1_555 1_555
H55 C51 1_555 1_555
C52 C51 1_555 1_555
H56 C52 1_555 1_555
C53 N13 1_555 1_555
C54 N15 1_555 1_555
C55 C54 1_555 1_555
H57 C55 1_555 1_555
H58 C55 1_555 1_555
H59 C55 1_555 1_555
C56 C54 1_555 1_555
C57 Fe3 1_555 1_555
H60 C57 1_555 1_555
C58 Fe3 1_555 1_555
H61 C58 1_555 1_555
C59 Fe3 1_555 1_555
H62 C59 1_555 1_555
C60 Fe3 1_555 1_555
H63 C60 1_555 1_555
C61 Fe3 1_555 1_555
H64 C61 1_555 1_555
C62 Fe3 1_555 1_555
H65 C62 1_555 1_555
C63 Fe3 1_555 1_555
H66 C63 1_555 1_555
C64 Fe3 1_555 1_555
H67 C64 1_555 1_555
C65 Fe3 1_555 1_555
C66 N16 1_555 1_555
C67 C66 1_555 1_555
H68 C67 1_555 1_555
H69 C67 1_555 1_555
H70 C67 1_555 1_555
C68 N17 1_555 1_555
C69 C68 1_555 1_555
H71 C69 1_555 1_555
C70 C69 1_555 1_555
H72 C70 1_555 1_555
C71 C70 1_555 1_555
H73 C71 1_555 1_555
C72 N18 1_555 1_555
H74 C72 1_555 1_555
C73 N19 1_555 1_555
H75 C73 1_555 1_555
C74 C73 1_555 1_555
H76 C74 1_555 1_555
C75 C74 1_555 1_555
H77 C75 1_555 1_555
C76 C75 1_555 1_555
H78 C76 1_555 1_555
C77 N19 1_555 1_555
C78 N21 1_555 1_555
C79 C78 1_555 1_555
H79 C79 1_555 1_555
H80 C79 1_555 1_555
H81 C79 1_555 1_555
C80 C78 1_555 1_555
C81 Fe4 1_555 1_555
H82 C81 1_555 1_555
C82 Fe4 1_555 1_555
H83 C82 1_555 1_555
C83 Fe4 1_555 1_555
H84 C83 1_555 1_555
C84 Fe4 1_555 1_555
H85 C84 1_555 1_555
C85 Fe4 1_555 1_555
H86 C85 1_555 1_555
C86 Fe4 1_555 1_555
H87 C86 1_555 1_555
C87 Fe4 1_555 1_555
H88 C87 1_555 1_555
C88 Fe4 1_555 1_555
H89 C88 1_555 1_555
C89 Fe4 1_555 1_555
C90 N22 1_555 1_555
C91 C90 1_555 1_555
H90 C91 1_555 1_555
H91 C91 1_555 1_555
H92 C91 1_555 1_555
C92 N23 1_555 1_555
C93 C92 1_555 1_555
H93 C93 1_555 1_555
C94 C93 1_555 1_555
H94 C94 1_555 1_555
C95 C94 1_555 1_555
H95 C95 1_555 1_555
C96 N24 1_555 1_555
H96 C96 1_555 1_555
B4 F19 1_555 1_555
F20 B4 1_555 1_555
F21 B4 1_555 1_555
F22 B4 1_555 1_555
B5 F23 1_555 1_555
F24 B5 1_555 1_555
F25 B5 1_555 1_555
F26 B5 1_555 1_555
B6 F30 1_555 1_555
F31 B6 1_555 1_555
F32 B6 1_555 1_555
F33 B6 1_555 1_555
Cl2C Cu4 1_555 1_555
Cl1C Cu1 1_555 1_555
N2 C5 1_555 1_555
N2 N3 1_555 1_555
N6 C20 1_555 1_555
N8 C29 1_555 1_555
N8 N9 1_555 1_555
N12 C44 1_555 1_555
C4 C5 1_555 1_555
C8 C9 1_555 1_555
C8 C12 1_555 1_555
C9 C10 1_555 1_555
C10 C11 1_555 1_555
C11 C12 1_555 1_555
C13 C14 1_555 1_555
C13 C17 1_555 1_555
C14 C15 1_555 1_555
C15 C16 1_555 1_555
C16 C17 1_555 1_555
C17 C18 1_555 1_555
C23 C24 1_555 1_555
C28 C29 1_555 1_555
C32 C33 1_555 1_555
C32 C36 1_555 1_555
C33 C34 1_555 1_555
C34 C35 1_555 1_555
C35 C36 1_555 1_555
C37 C38 1_555 1_555
C37 C41 1_555 1_555
C38 C39 1_555 1_555
C39 C40 1_555 1_555
C40 C41 1_555 1_555
C41 C42 1_555 1_555
C47 C48 1_555 1_555
N14 C53 1_555 1_555
N14 N15 1_555 1_555
N18 C68 1_555 1_555
N20 C77 1_555 1_555
N20 N21 1_555 1_555
N24 C92 1_555 1_555
C52 C53 1_555 1_555
C56 C57 1_555 1_555
C56 C60 1_555 1_555
C57 C58 1_555 1_555
C58 C59 1_555 1_555
C59 C60 1_555 1_555
C61 C62 1_555 1_555
C61 C65 1_555 1_555
C62 C63 1_555 1_555
C63 C64 1_555 1_555
C64 C65 1_555 1_555
C65 C66 1_555 1_555
C71 C72 1_555 1_555
C76 C77 1_555 1_555
C80 C81 1_555 1_555
C80 C84 1_555 1_555
C81 C82 1_555 1_555
C82 C83 1_555 1_555
C83 C84 1_555 1_555
C85 C86 1_555 1_555
C85 C89 1_555 1_555
C86 C87 1_555 1_555
C87 C88 1_555 1_555
C88 C89 1_555 1_555
C89 C90 1_555 1_555
C95 C96 1_555 1_555

#END
