
#######################################################################
#
#                 Cambridge Crystallographic Data Centre
#                                CCDC 
#
#######################################################################
#
# If this CIF has been generated from an entry in the Cambridge 
# Structural Database, then it will include bibliographic, chemical, 
# crystal, experimental, refinement or atomic coordinate data resulting 
# from the CCDC's data processing and validation procedures.
#
#######################################################################

data_LOXGEM
_symmetry_cell_setting           triclinic
_symmetry_space_group_name_H-M   'P -1'
_symmetry_Int_Tables_number      2
_space_group_name_Hall           '-P 1'
loop_
_symmetry_equiv_pos_site_id
_symmetry_equiv_pos_as_xyz
1 x,y,z
2 -x,-y,-z
_cell_length_a                   10.826(4)
_cell_length_b                   12.044(4)
_cell_length_c                   12.046(4)
_cell_angle_alpha                109.677(3)
_cell_angle_beta                 103.108(2)
_cell_angle_gamma                109.545(2)
_cell_volume                     1287.72
loop_
_atom_site_label
_atom_site_type_symbol
_atom_site_fract_x
_atom_site_fract_y
_atom_site_fract_z
Eu1 Eu 0.53201(3) 0.96421(2) 0.68210(2)
S1 S 0.33905(15) 1.71535(13) 1.35417(14)
S2 S 0.30490(17) 1.23452(15) 1.24847(16)
O1 O 0.3988(5) 1.8221(5) 1.3220(5)
O2 O 0.1867(5) 1.6457(5) 1.2984(5)
O3 O 0.3970(5) 1.7573(5) 1.4904(4)
O4 O 0.2896(7) 1.2811(5) 1.3705(5)
O5 O 0.1722(5) 1.1466(5) 1.1388(6)
O6 O 0.4084(5) 1.1815(4) 1.2508(5)
O7 O 0.6869(5) 0.9654(4) 0.5784(4)
O8 O 0.6690(5) 1.0231(5) 0.4205(5)
N1 N 0.7734(5) 1.1382(5) 0.8694(5)
N2 N 0.5273(5) 1.1003(5) 0.8915(5)
N3 N 0.3243(5) 0.8553(5) 0.7434(5)
C1 C 0.8958(7) 1.1450(7) 0.8590(7)
H1 H 0.8956 1.0719 0.7993
C2 C 1.0242(7) 1.2591(7) 0.9353(7)
H2 H 1.1081 1.2609 0.9271
C3 C 1.0255(7) 1.3673(7) 1.0216(7)
H3 H 1.1097 1.4446 1.0711
C4 C 0.8984(7) 1.3606(7) 1.0351(7)
H4 H 0.8970 1.4336 1.0934
C5 C 0.7739(6) 1.2429(6) 0.9597(6)
C6 C 0.6366(6) 1.2192(5) 0.9700(5)
C7 C 0.6222(7) 1.3213(6) 1.0642(6)
H5 H 0.6993 1.4032 1.1185
C8 C 0.4906(7) 1.2933(6) 1.0710(6)
C9 C 0.3778(7) 1.1647(6) 0.9894(6)
H6 H 0.2884 1.1429 0.9932
C10 C 0.4013(6) 1.0764(6) 0.9077(6)
C11 C 0.2905(6) 0.9375(6) 0.8268(6)
C12 C 0.1575(7) 0.8905(7) 0.8363(6)
H7 H 0.1346 0.9467 0.8931
C13 C 0.0608(7) 0.7586(7) 0.7595(7)
H8 H -0.0280 0.7262 0.7639
C14 C 0.0967(7) 0.6750(8) 0.6761(7)
H9 H 0.0345 0.5861 0.6251
C15 C 0.2297(7) 0.7303(6) 0.6723(6)
H10 H 0.2540 0.6756 0.6157
C16 C 0.4647(7) 1.3975(6) 1.1555(6)
C17 C 0.3808(6) 1.3809(6) 1.2289(6)
C18 C 0.3497(6) 1.4813(5) 1.2920(5)
H11 H 0.2941 1.4686 1.3394
C19 C 0.3997(6) 1.6002(6) 1.2857(6)
C20 C 0.4884(7) 1.6221(6) 1.2214(6)
H12 H 0.5266 1.7032 1.2204
C21 C 0.5212(8) 1.5201(6) 1.1567(7)
H13 H 0.5820 1.5356 1.1142
C22 C 0.7322(6) 0.9938(6) 0.4987(6)
C23 C 0.8710(6) 0.9968(7) 0.5002(6)
C24 C 0.9233(7) 0.9259(6) 0.5510(6)
H14 H 0.8708 0.8738 0.5815
C25 C 0.9452(7) 1.0652(6) 0.4450(6)
H15 H 0.9054 1.1057 0.4046
O7A O 1.3131(5) 1.0346(4) 0.4216(4)
O8A O 1.3310(5) 0.9769(5) 0.5795(5)
C22A C 1.2678(6) 1.0062(6) 0.5013(6)
C23A C 1.1290(6) 1.0032(7) 0.4998(6)
C24A C 1.0767(7) 1.0741(6) 0.4490(6)
H14A H 1.1292 1.1262 0.4185
C25A C 1.0548(7) 0.9348(6) 0.5550(6)
H15A H 1.0946 0.8943 0.5954
Eu1A Eu 0.46799(3) 1.03579(2) 0.31790(2)
S1A S 0.66095(15) 0.28465(13) -0.35417(14)
S2A S 0.69510(17) 0.76548(15) -0.24847(16)
O1A O 0.6012(5) 0.1779(5) -0.3220(5)
O2A O 0.8133(5) 0.3543(5) -0.2984(5)
O3A O 0.6030(5) 0.2427(5) -0.4904(4)
O4A O 0.7104(7) 0.7189(5) -0.3705(5)
O5A O 0.8278(5) 0.8534(5) -0.1388(6)
O6A O 0.5916(5) 0.8185(4) -0.2508(5)
N1A N 0.2266(5) 0.8618(5) 0.1306(5)
N2A N 0.4727(5) 0.8997(5) 0.1085(5)
N3A N 0.6757(5) 1.1447(5) 0.2566(5)
C1A C 0.1042(7) 0.8550(7) 0.1410(7)
H1A H 0.1044 0.9281 0.2007
C2A C -0.0242(7) 0.7409(7) 0.0647(7)
H2A H -0.1081 0.7391 0.0729
C3A C -0.0255(7) 0.6327(7) -0.0216(7)
H3A H -0.1097 0.5554 -0.0711
C4A C 0.1016(7) 0.6394(7) -0.0351(7)
H4A H 0.1030 0.5664 -0.0934
C5A C 0.2261(6) 0.7571(6) 0.0403(6)
C6A C 0.3634(6) 0.7808(5) 0.0300(5)
C7A C 0.3778(7) 0.6787(6) -0.0642(6)
H5A H 0.3007 0.5968 -0.1185
C8A C 0.5094(7) 0.7067(6) -0.0710(6)
C9A C 0.6222(7) 0.8353(6) 0.0106(6)
H6A H 0.7116 0.8571 0.0068
C10A C 0.5987(6) 0.9236(6) 0.0923(6)
C11A C 0.7095(6) 1.0625(6) 0.1732(6)
C12A C 0.8425(7) 1.1095(7) 0.1637(6)
H7A H 0.8654 1.0533 0.1069
C13A C 0.9392(7) 1.2414(7) 0.2405(7)
H8A H 1.0280 1.2738 0.2361
C14A C 0.9033(7) 1.3250(8) 0.3239(7)
H9A H 0.9655 1.4139 0.3749
C15A C 0.7703(7) 1.2697(6) 0.3277(6)
H10A H 0.7460 1.3244 0.3843
C16A C 0.5353(7) 0.6025(6) -0.1555(6)
C17A C 0.6192(6) 0.6191(6) -0.2289(6)
C18A C 0.6503(6) 0.5187(5) -0.2920(5)
H11A H 0.7059 0.5314 -0.3394
C19A C 0.6003(6) 0.3998(6) -0.2857(6)
C20A C 0.5116(7) 0.3779(6) -0.2214(6)
H12A H 0.4734 0.2968 -0.2204
C21A C 0.4788(8) 0.4799(6) -0.1567(7)
H13A H 0.4180 0.4644 -0.1142
Eu1_2 Eu 0.53201(3) -0.03579(2) -0.31790(2)
Eu1_3 Eu 0.53201(3) 0.96421(2) -0.31790(2)
Eu1_4 Eu 0.53201(3) 1.96421(2) 1.68210(2)
Eu1_5 Eu 1.53201(3) 0.96421(2) 0.68210(2)
Eu1A_2 Eu 0.46799(3) 0.03579(2) -0.68210(2)
Eu1A_3 Eu 0.46799(3) 1.03579(2) 1.31790(2)
Eu1A_4 Eu 0.46799(3) 2.03579(2) 1.31790(2)
Eu1A_5 Eu 1.46799(3) 1.03579(2) 0.31790(2)
O1_2 O 0.3988(5) 0.8221(5) 0.3220(5)
O1A_2 O 0.6012(5) 1.1779(5) 0.6780(5)
O3_2 O 0.3970(5) 0.7573(5) 0.4904(4)
O3A_2 O 0.6030(5) 1.2427(5) 0.5096(4)
O6_2 O 0.4084(5) 1.1815(4) 0.2508(5)
O6A_2 O 0.5916(5) 0.8185(4) 0.7492(5)
O7A_2 O 0.3131(5) 1.0346(4) 0.4216(4)
O8A_2 O 0.3310(5) 0.9769(5) 0.5795(5)
O9 O -0.0966(10) 0.6159(9) 0.2779(9)
H16 H -0.1639 0.5916 0.3029
H17 H -0.0427 0.5902 0.3136
O10 O 0.7590(13) 0.5534(10) 0.4389(10)
H18 H 0.8094 0.6331 0.4952
H19 H 0.6700 0.5280 0.4080
loop_
_geom_bond_atom_site_label_1
_geom_bond_atom_site_label_2
_geom_bond_site_symmetry_1
_geom_bond_site_symmetry_2
Eu1 O7 1_555 1_555
S1 O1 1_555 1_555
S2 O4 1_555 1_555
O1 Eu1A_4 1_555 1_555
O2 S1 1_555 1_555
O3 S1 1_555 1_555
O5 S2 1_555 1_555
O6 S2 1_555 1_555
O7 C22 1_555 1_555
O8 C22 1_555 1_555
N1 Eu1 1_555 1_555
N2 Eu1 1_555 1_555
N3 Eu1 1_555 1_555
C1 N1 1_555 1_555
H1 C1 1_555 1_555
C2 C1 1_555 1_555
H2 C2 1_555 1_555
C3 C2 1_555 1_555
H3 C3 1_555 1_555
C4 C3 1_555 1_555
H4 C4 1_555 1_555
C5 N1 1_555 1_555
C6 N2 1_555 1_555
C7 C6 1_555 1_555
H5 C7 1_555 1_555
C8 C7 1_555 1_555
C9 C8 1_555 1_555
H6 C9 1_555 1_555
C10 N2 1_555 1_555
C11 N3 1_555 1_555
C12 C11 1_555 1_555
H7 C12 1_555 1_555
C13 C12 1_555 1_555
H8 C13 1_555 1_555
C14 C13 1_555 1_555
H9 C14 1_555 1_555
C15 N3 1_555 1_555
H10 C15 1_555 1_555
C16 C8 1_555 1_555
C17 S2 1_555 1_555
C18 C17 1_555 1_555
H11 C18 1_555 1_555
C19 S1 1_555 1_555
C20 C19 1_555 1_555
H12 C20 1_555 1_555
C21 C16 1_555 1_555
H13 C21 1_555 1_555
C22 C23 1_555 1_555
C23 C24 1_555 1_555
C24 H14 1_555 1_555
C25 C23 1_555 1_555
H15 C25 1_555 1_555
O9 H16 1_555 1_555
H17 O9 1_555 1_555
O10 H18 1_555 1_555
H19 O10 1_555 1_555
O7A C22A 1_555 1_555
O8A C22A 1_555 1_555
C22A C23A 1_555 1_555
C23A C24A 1_555 1_555
C24A C25 1_555 1_555
H14A C24A 1_555 1_555
C25A C24 1_555 1_555
H15A C25A 1_555 1_555
Eu1A O8 1_555 1_555
S1A O1A 1_555 1_555
S2A O4A 1_555 1_555
O1A Eu1_2 1_555 1_555
O2A S1A 1_555 1_555
O3A S1A 1_555 1_555
O5A S2A 1_555 1_555
O6A S2A 1_555 1_555
N1A Eu1A 1_555 1_555
N2A Eu1A 1_555 1_555
N3A Eu1A 1_555 1_555
C1A N1A 1_555 1_555
H1A C1A 1_555 1_555
C2A C1A 1_555 1_555
H2A C2A 1_555 1_555
C3A C2A 1_555 1_555
H3A C3A 1_555 1_555
C4A C3A 1_555 1_555
H4A C4A 1_555 1_555
C5A N1A 1_555 1_555
C6A N2A 1_555 1_555
C7A C6A 1_555 1_555
H5A C7A 1_555 1_555
C8A C7A 1_555 1_555
C9A C8A 1_555 1_555
H6A C9A 1_555 1_555
C10A N2A 1_555 1_555
C11A N3A 1_555 1_555
C12A C11A 1_555 1_555
H7A C12A 1_555 1_555
C13A C12A 1_555 1_555
H8A C13A 1_555 1_555
C14A C13A 1_555 1_555
H9A C14A 1_555 1_555
C15A N3A 1_555 1_555
H10A C15A 1_555 1_555
C16A C8A 1_555 1_555
C17A S2A 1_555 1_555
C18A C17A 1_555 1_555
H11A C18A 1_555 1_555
C19A S1A 1_555 1_555
C20A C19A 1_555 1_555
H12A C20A 1_555 1_555
C21A C16A 1_555 1_555
H13A C21A 1_555 1_555
Eu1_3 O6A 1_555 1_555
Eu1_4 O3 1_555 1_555
Eu1_5 O8A 1_555 1_555
Eu1A_2 O3A 1_555 1_555
Eu1A_3 O6 1_555 1_555
Eu1A_5 O7A 1_555 1_555
O1_2 Eu1A 1_555 1_555
O1A_2 Eu1 1_555 1_555
O3_2 Eu1 1_555 1_555
O3A_2 Eu1A 1_555 1_555
O6_2 Eu1A 1_555 1_555
O6A_2 Eu1 1_555 1_555
O7A_2 Eu1A 1_555 1_555
O8A_2 Eu1 1_555 1_555
C4 C5 1_555 1_555
C5 C6 1_555 1_555
C9 C10 1_555 1_555
C10 C11 1_555 1_555
C14 C15 1_555 1_555
C16 C17 1_555 1_555
C18 C19 1_555 1_555
C20 C21 1_555 1_555
C23A C25A 1_555 1_555
C4A C5A 1_555 1_555
C5A C6A 1_555 1_555
C9A C10A 1_555 1_555
C10A C11A 1_555 1_555
C14A C15A 1_555 1_555
C16A C17A 1_555 1_555
C18A C19A 1_555 1_555
C20A C21A 1_555 1_555

#END
