
#######################################################################
#
#                 Cambridge Crystallographic Data Centre
#                                CCDC 
#
#######################################################################
#
# If this CIF has been generated from an entry in the Cambridge 
# Structural Database, then it will include bibliographic, chemical, 
# crystal, experimental, refinement or atomic coordinate data resulting 
# from the CCDC's data processing and validation procedures.
#
#######################################################################

data_LOXTIB
_symmetry_cell_setting           orthorhombic
_symmetry_space_group_name_H-M   'P c c n'
_symmetry_Int_Tables_number      56
_space_group_name_Hall           '-P 2ab 2ac'
loop_
_symmetry_equiv_pos_site_id
_symmetry_equiv_pos_as_xyz
1 x,y,z
2 1/2+x,1/2+y,-z
3 1/2-x,y,1/2+z
4 x,1/2-y,1/2+z
5 -x,-y,-z
6 1/2-x,1/2-y,z
7 1/2+x,-y,1/2-z
8 -x,1/2+y,1/2-z
_cell_length_a                   9.9698(4)
_cell_length_b                   15.6977(4)
_cell_length_c                   9.9088(8)
_cell_angle_alpha                90
_cell_angle_beta                 90
_cell_angle_gamma                90
_cell_volume                     1550.76
loop_
_atom_site_label
_atom_site_type_symbol
_atom_site_fract_x
_atom_site_fract_y
_atom_site_fract_z
Sn1 Sn 0.2500 0.2500 0.07679(2)
O1 O 0.1147(2) 0.24921(14) -0.09068(18)
O2 O 0.0030(2) 0.23451(14) 0.09756(19)
C1 C 0.2433(3) 0.37660(19) 0.1521(3)
H1 H 0.274(4) 0.372(3) 0.236(5)
H2 H 0.324(5) 0.405(3) 0.111(5)
C2 C 0.1109(4) 0.4230(2) 0.1385(4)
H3 H 0.052(5) 0.393(3) 0.189(5)
H4 H 0.086(5) 0.422(3) 0.046(5)
C3 C 0.1174(5) 0.5150(2) 0.1880(4)
H5 H 0.187(6) 0.546(3) 0.144(5)
H6 H 0.025(5) 0.544(3) 0.168(4)
C4 C 0.1416(8) 0.5226(4) 0.3357(6)
H7 H 0.114(5) 0.578(3) 0.369(5)
H8 H 0.227(6) 0.511(3) 0.339(5)
H9 H 0.085(5) 0.477(3) 0.386(5)
C5 C 0.0023(3) 0.24117(17) -0.0265(3)
C6 C -0.1250(3) 0.2415(2) -0.1081(3)
H10 H -0.131(5) 0.189(3) -0.153(4)
H11 H -0.110(5) 0.290(3) -0.174(5)
C7 C -0.2500 0.2500 -0.0242(4)
H12 H -0.2585 0.1993 0.0347
H13 H -0.2415 0.3007 0.0347
C6E C -0.3750(3) 0.2585(2) -0.1081(3)
C5E C -0.5023(3) 0.25883(17) -0.0265(3)
O1E O -0.6147(2) 0.25079(14) -0.09068(18)
O2E O -0.5030(2) 0.26549(14) 0.09756(19)
H10E H -0.369(5) 0.311(3) -0.153(4)
H11E H -0.390(5) 0.210(3) -0.174(5)
C1E C 0.2567(3) 0.12340(19) 0.1521(3)
H1E H 0.226(4) 0.128(3) 0.236(5)
H2E H 0.176(5) 0.095(3) 0.111(5)
C2E C 0.3891(4) 0.0770(2) 0.1385(4)
H3E H 0.448(5) 0.107(3) 0.189(5)
H4E H 0.414(5) 0.078(3) 0.046(5)
C3E C 0.3826(5) -0.0150(2) 0.1880(4)
H5E H 0.313(6) -0.046(3) 0.144(5)
H6E H 0.475(5) -0.044(3) 0.168(4)
C4E C 0.3584(8) -0.0226(4) 0.3357(6)
H7E H 0.386(5) -0.078(3) 0.369(5)
H8E H 0.273(6) -0.011(3) 0.339(5)
H9E H 0.415(5) 0.023(3) 0.386(5)
O1E_2 O 0.3853(2) 0.25079(14) -0.09068(18)
O2E_2 O 0.4970(2) 0.26549(14) 0.09756(19)
Sn1_2 Sn -0.7500 0.2500 0.07679(2)
loop_
_geom_bond_atom_site_label_1
_geom_bond_atom_site_label_2
_geom_bond_site_symmetry_1
_geom_bond_site_symmetry_2
Sn1 O1 1_555 1_555
O1 C5 1_555 1_555
O2 Sn1 1_555 1_555
C1 Sn1 1_555 1_555
H1 C1 1_555 1_555
H2 C1 1_555 1_555
C2 C1 1_555 1_555
H3 C2 1_555 1_555
H4 C2 1_555 1_555
C3 C2 1_555 1_555
H5 C3 1_555 1_555
H6 C3 1_555 1_555
C4 C3 1_555 1_555
H7 C4 1_555 1_555
H8 C4 1_555 1_555
H9 C4 1_555 1_555
C5 O2 1_555 1_555
C6 C5 1_555 1_555
H10 C6 1_555 1_555
H11 C6 1_555 1_555
C7 C6 1_555 1_555
H12 C7 1_555 1_555
H13 C7 1_555 1_555
C6E C7 1_555 1_555
C5E C6E 1_555 1_555
O1E C5E 1_555 1_555
O2E C5E 1_555 1_555
H10E C6E 1_555 1_555
H11E C6E 1_555 1_555
C1E Sn1 1_555 1_555
H1E C1E 1_555 1_555
H2E C1E 1_555 1_555
C2E C1E 1_555 1_555
H3E C2E 1_555 1_555
H4E C2E 1_555 1_555
C3E C2E 1_555 1_555
H5E C3E 1_555 1_555
H6E C3E 1_555 1_555
C4E C3E 1_555 1_555
H7E C4E 1_555 1_555
H8E C4E 1_555 1_555
H9E C4E 1_555 1_555
O1E_2 Sn1 1_555 1_555
O2E_2 Sn1 1_555 1_555
Sn1_2 O1E 1_555 1_555
O2E Sn1_2 1_555 1_555

#END
