
#######################################################################
#
#                 Cambridge Crystallographic Data Centre
#                                CCDC 
#
#######################################################################
#
# If this CIF has been generated from an entry in the Cambridge 
# Structural Database, then it will include bibliographic, chemical, 
# crystal, experimental, refinement or atomic coordinate data resulting 
# from the CCDC's data processing and validation procedures.
#
#######################################################################

data_LOXWEC
_symmetry_cell_setting           monoclinic
_symmetry_space_group_name_H-M   'C 2/c'
_symmetry_Int_Tables_number      15
_space_group_name_Hall           '-C 2yn'
loop_
_symmetry_equiv_pos_site_id
_symmetry_equiv_pos_as_xyz
1 x,y,z
2 -x,y,1/2-z
3 1/2+x,1/2+y,z
4 1/2-x,1/2+y,1/2-z
5 -x,-y,-z
6 x,-y,1/2+z
7 1/2-x,1/2-y,-z
8 1/2+x,1/2-y,1/2+z
_cell_length_a                   27.689(6)
_cell_length_b                   13.176(3)
_cell_length_c                   8.5800(19)
_cell_angle_alpha                90
_cell_angle_beta                 95.783(3)
_cell_angle_gamma                90
_cell_volume                     3114.31
loop_
_atom_site_label
_atom_site_type_symbol
_atom_site_fract_x
_atom_site_fract_y
_atom_site_fract_z
Cu1 Cu 0.710660(11) 0.29539(2) 0.53753(3)
O1 O 0.74546(7) 0.57947(13) 0.9880(2)
O2 O 0.74730(7) 0.29417(14) 0.7470(2)
O3 O 0.81279(7) 0.65685(13) 0.9263(2)
O4 O 0.81541(7) 0.22053(15) 0.6840(2)
N1 N 0.65154(8) 0.37079(16) 0.6398(2)
C1 C 0.78740(9) 0.57936(19) 0.9437(3)
C2 C 0.81457(10) 0.28815(18) 0.9415(3)
H1 H 0.8502 0.2903 0.9382
H2 H 0.8072 0.2326 1.0132
C3 C 0.58098(10) 0.3608(2) 0.7797(3)
H3 H 0.5559 0.3205 0.8158
C4 C 0.79033(9) 0.26550(18) 0.7783(3)
C5 C 0.80876(10) 0.47806(18) 0.9016(3)
H4 H 0.7965 0.4614 0.7922
H5 H 0.8444 0.4856 0.9054
C6 C 0.79771(10) 0.38881(19) 1.0059(3)
H6 H 0.7623 0.3857 1.0139
H7 H 0.8141 0.3996 1.1125
C7 C 0.61529(10) 0.3176(2) 0.6939(3)
H8 H 0.6132 0.2469 0.6722
C8 C 0.65431(10) 0.4706(2) 0.6731(3)
H9 H 0.6800 0.5090 0.6372
C9 C 0.62104(9) 0.5196(2) 0.7578(3)
H10 H 0.6238 0.5904 0.7780
N2 N 0.51514(8) 0.4674(2) 0.9611(3)
C10 C 0.58379(9) 0.4643(2) 0.8124(3)
C11 C 0.54805(9) 0.5169(2) 0.9005(3)
H11 H 0.5496 0.5885 0.9120
N1D N 0.34846(8) 0.62921(16) 1.3602(2)
C3D C 0.41902(10) 0.6392(2) 1.2203(3)
H3D H 0.4441 0.6795 1.1842
C7D C 0.38471(10) 0.6824(2) 1.3061(3)
H8D H 0.3868 0.7531 1.3278
C8D C 0.34569(10) 0.5294(2) 1.3269(3)
H9D H 0.3200 0.4910 1.3628
C9D C 0.37896(9) 0.4804(2) 1.2422(3)
H10D H 0.3762 0.4096 1.2220
N2D N 0.48486(8) 0.5326(2) 1.0389(3)
C10D C 0.41621(9) 0.5357(2) 1.1876(3)
C11D C 0.45195(9) 0.4831(2) 1.0995(3)
H11D H 0.4504 0.4115 1.0880
Cu1D Cu 0.289340(11) 0.70461(2) 1.46247(3)
O1D O 0.25454(7) 0.42053(13) 1.0120(2)
O2D O 0.25270(7) 0.70583(14) 1.2530(2)
O3D O 0.18721(7) 0.34315(13) 1.0737(2)
O4D O 0.18459(7) 0.77947(15) 1.3160(2)
C1D C 0.21260(9) 0.42064(19) 1.0563(3)
C2D C 0.18543(10) 0.71185(18) 1.0585(3)
H1D H 0.1498 0.7097 1.0618
H2D H 0.1928 0.7674 0.9868
C4D C 0.20967(9) 0.73450(18) 1.2217(3)
C5D C 0.19124(10) 0.52194(18) 1.0984(3)
H4D H 0.2035 0.5386 1.2078
H5D H 0.1556 0.5144 1.0946
C6D C 0.20229(10) 0.61119(19) 0.9941(3)
H6D H 0.2377 0.6143 0.9861
H7D H 0.1859 0.6004 0.8875
Cu1A Cu 0.289340(11) 0.29539(2) 0.96247(3)
Cu1B Cu 0.210660(11) 0.79539(2) 1.53753(3)
Cu1C Cu 0.789340(11) 0.79539(2) 0.96247(3)
Cu1E Cu 0.710660(11) 0.70461(2) 1.03753(3)
Cu1F Cu 0.789340(11) 0.20461(2) 0.46247(3)
Cu1G Cu 0.210660(11) 0.20461(2) 1.03753(3)
O1A O 0.25454(7) 0.57947(13) 1.5120(2)
O1E O 0.74546(7) 0.42053(13) 0.4880(2)
O3C O 0.68721(7) 0.15685(13) 0.5737(2)
O3G O 0.31279(7) 0.84315(13) 1.4263(2)
O4B O 0.31541(7) 0.72053(15) 1.6840(2)
O4F O 0.68459(7) 0.27947(15) 0.3160(2)
O5 O 0.6002(6) 0.0629(14) 0.3283(17)
C12 C 0.5872(6) 0.144(2) 0.345(2)
O6 O 0.5717(7) 0.2217(14) 0.342(3)
loop_
_geom_bond_atom_site_label_1
_geom_bond_atom_site_label_2
_geom_bond_site_symmetry_1
_geom_bond_site_symmetry_2
Cu1 O2 1_555 1_555
O1 C1 1_555 1_555
O2 C4 1_555 1_555
O3 C1 1_555 1_555
O4 C4 1_555 1_555
N1 Cu1 1_555 1_555
C1 C5 1_555 1_555
C2 H1 1_555 1_555
H2 C2 1_555 1_555
C3 H3 1_555 1_555
C4 C2 1_555 1_555
C5 H4 1_555 1_555
H5 C5 1_555 1_555
C6 C2 1_555 1_555
H6 C6 1_555 1_555
H7 C6 1_555 1_555
C7 N1 1_555 1_555
H8 C7 1_555 1_555
C8 N1 1_555 1_555
H9 C8 1_555 1_555
C9 C8 1_555 1_555
H10 C9 1_555 1_555
N2 C11 1_555 1_555
C10 C3 1_555 1_555
C11 C10 1_555 1_555
H11 C11 1_555 1_555
O5 C12 1_555 1_555
C12 O6 1_555 1_555
N1D C7D 1_555 1_555
C3D H3D 1_555 1_555
C7D C3D 1_555 1_555
H8D C7D 1_555 1_555
C8D N1D 1_555 1_555
H9D C8D 1_555 1_555
C9D C8D 1_555 1_555
H10D C9D 1_555 1_555
N2D N2 1_555 1_555
C10D C3D 1_555 1_555
C11D N2D 1_555 1_555
H11D C11D 1_555 1_555
Cu1D N1D 1_555 1_555
O1D C1D 1_555 1_555
O2D Cu1D 1_555 1_555
O3D C1D 1_555 1_555
O4D C4D 1_555 1_555
C1D C5D 1_555 1_555
C2D H1D 1_555 1_555
H2D C2D 1_555 1_555
C4D O2D 1_555 1_555
C5D H4D 1_555 1_555
H5D C5D 1_555 1_555
C6D C2D 1_555 1_555
H6D C6D 1_555 1_555
H7D C6D 1_555 1_555
Cu1A O1D 1_555 1_555
Cu1B Cu1D 1_555 1_555
Cu1C O3 1_555 1_555
Cu1E O1 1_555 1_555
Cu1F Cu1 1_555 1_555
Cu1G O3D 1_555 1_555
O1A Cu1D 1_555 1_555
O1E Cu1 1_555 1_555
O3C Cu1 1_555 1_555
O3G Cu1D 1_555 1_555
O4B Cu1D 1_555 1_555
O4F Cu1 1_555 1_555
O4 Cu1F 1_555 1_555
C3 C7 1_555 1_555
C5 C6 1_555 1_555
C9 C10 1_555 1_555
C9D C10D 1_555 1_555
C10D C11D 1_555 1_555
O4D Cu1B 1_555 1_555
C2D C4D 1_555 1_555
C5D C6D 1_555 1_555
Cu1A Cu1G 1_555 1_555
Cu1C Cu1E 1_555 1_555

#END
