
#######################################################################
#
#                 Cambridge Crystallographic Data Centre
#                                CCDC 
#
#######################################################################
#
# If this CIF has been generated from an entry in the Cambridge 
# Structural Database, then it will include bibliographic, chemical, 
# crystal, experimental, refinement or atomic coordinate data resulting 
# from the CCDC's data processing and validation procedures.
#
#######################################################################

data_LOXZEF01
_symmetry_cell_setting           monoclinic
_symmetry_space_group_name_H-M   'P 21/c'
_symmetry_Int_Tables_number      14
_space_group_name_Hall           '-P 2ybc'
loop_
_symmetry_equiv_pos_site_id
_symmetry_equiv_pos_as_xyz
1 x,y,z
2 -x,1/2+y,1/2-z
3 -x,-y,-z
4 x,1/2-y,1/2+z
_cell_length_a                   13.3163(5)
_cell_length_b                   6.7704(3)
_cell_length_c                   15.0967(6)
_cell_angle_alpha                90
_cell_angle_beta                 90.6391(6)
_cell_angle_gamma                90
_cell_volume                     1360.98
loop_
_atom_site_label
_atom_site_type_symbol
_atom_site_fract_x
_atom_site_fract_y
_atom_site_fract_z
Dy1 Dy 0.45477(2) 0.12185(2) 0.38012(2)
P1 P 0.62081(5) 0.12716(10) 0.19576(5)
S1 S 0.30691(5) 0.08976(13) 0.53466(5)
C1 C 0.7585(2) 0.1333(4) 0.19753(19)
C2 C 0.8142(2) 0.1349(5) 0.1189(2)
H1 H 0.7813 0.1339 0.0642
C3 C 0.9171(3) 0.1380(6) 0.1229(2)
H2 H 0.9535 0.1395 0.0707
C4 C 0.9684(2) 0.1388(5) 0.2048(2)
C5 C 1.0749(2) 0.1401(5) 0.2136(3)
H3 H 1.1145 0.1415 0.1633
C6 C 1.1188(3) 0.1391(6) 0.2951(3)
H4 H 1.1884 0.1399 0.3001
C7 C 1.0603(3) 0.1370(6) 0.3723(3)
H5 H 1.0919 0.1374 0.4275
C8 C 0.9580(2) 0.1344(5) 0.3669(2)
H6 H 0.9198 0.1315 0.4181
C9 C 0.9111(2) 0.1360(5) 0.2829(2)
N1 N 0.80812(18) 0.1340(4) 0.27483(17)
H7 H 0.7735 0.1332 0.3226
O1 O 0.59155(15) 0.1619(3) 0.29110(13)
O2 O 0.59056(16) 0.2937(3) 0.13429(13)
O3 O 0.59480(18) -0.0727(3) 0.16081(16)
O4 O 0.28813(17) 0.1496(4) 0.44176(14)
O5 O 0.41899(14) 0.0642(3) 0.53835(13)
O6 O 0.25954(19) -0.1030(4) 0.55370(16)
O7 O 0.2751(2) 0.2339(5) 0.59827(18)
O8 O 0.37601(17) 0.0807(3) 0.23603(14)
H8 H 0.3883 -0.0289 0.2109
H9 H 0.3584 0.1675 0.1983
O9 O 0.56109(19) 0.3551(3) 0.46072(17)
H10 H 0.6212 0.3632 0.4424
H11 H 0.5602 0.3493 0.5170
Dy1A Dy 0.54523(2) -0.37815(2) 0.11988(2)
Dy1A_2 Dy 0.54523(2) 0.62185(2) 0.11988(2)
Dy1B Dy 0.54523(2) -0.12185(2) 0.61988(2)
O2A O 0.40944(16) -0.2063(3) 0.36571(13)
O3A O 0.40520(18) 0.4273(3) 0.33919(16)
O5B O 0.58101(14) -0.0642(3) 0.46165(13)
loop_
_geom_bond_atom_site_label_1
_geom_bond_atom_site_label_2
_geom_bond_site_symmetry_1
_geom_bond_site_symmetry_2
Dy1 O1 1_555 1_555
P1 C1 1_555 1_555
S1 O4 1_555 1_555
C1 C2 1_555 1_555
C2 H1 1_555 1_555
C3 C2 1_555 1_555
H2 C3 1_555 1_555
C4 C3 1_555 1_555
C5 C4 1_555 1_555
H3 C5 1_555 1_555
C6 C5 1_555 1_555
H4 C6 1_555 1_555
C7 C6 1_555 1_555
H5 C7 1_555 1_555
C8 C7 1_555 1_555
H6 C8 1_555 1_555
C9 C4 1_555 1_555
N1 C1 1_555 1_555
H7 N1 1_555 1_555
O1 P1 1_555 1_555
O2 P1 1_555 1_555
O3 P1 1_555 1_555
O4 Dy1 1_555 1_555
O5 Dy1 1_555 1_555
O6 S1 1_555 1_555
O7 S1 1_555 1_555
O8 Dy1 1_555 1_555
H8 O8 1_555 1_555
H9 O8 1_555 1_555
O9 Dy1 1_555 1_555
H10 O9 1_555 1_555
H11 O9 1_555 1_555
Dy1A O3 1_555 1_555
Dy1A_2 O2 1_555 1_555
Dy1B O5 1_555 1_555
O2A Dy1 1_555 1_555
O3A Dy1 1_555 1_555
O5B Dy1 1_555 1_555
S1 O5 1_555 1_555
C8 C9 1_555 1_555
C9 N1 1_555 1_555
Dy1B O5B 1_555 1_555

#END
