
#######################################################################
#
#                 Cambridge Crystallographic Data Centre
#                                CCDC 
#
#######################################################################
#
# If this CIF has been generated from an entry in the Cambridge 
# Structural Database, then it will include bibliographic, chemical, 
# crystal, experimental, refinement or atomic coordinate data resulting 
# from the CCDC's data processing and validation procedures.
#
#######################################################################

data_LOYBAC
_symmetry_cell_setting           monoclinic
_symmetry_space_group_name_H-M   'P 21/a'
_symmetry_Int_Tables_number      14
_space_group_name_Hall           '-P 2yab'
loop_
_symmetry_equiv_pos_site_id
_symmetry_equiv_pos_as_xyz
1 x,y,z
2 1/2-x,1/2+y,-z
3 -x,-y,-z
4 1/2+x,1/2-y,z
_cell_length_a                   12.983(4)
_cell_length_b                   11.231(3)
_cell_length_c                   14.151(4)
_cell_angle_alpha                90
_cell_angle_beta                 101.76(2)
_cell_angle_gamma                90
_cell_volume                     2020.08
loop_
_atom_site_label
_atom_site_type_symbol
_atom_site_fract_x
_atom_site_fract_y
_atom_site_fract_z
Ce1 Ce -0.35145(3) 0.29425(3) 0.26941(3)
O1 O -0.3784(7) -0.0211(7) 0.4709(6)
O2 O -0.3702(6) 0.0977(6) 0.3440(5)
O3 O -0.3767(8) 0.5984(7) 0.4883(8)
O4 O -0.3643(5) 0.4921(6) 0.3555(6)
O5 O -0.7162(4) 0.3357(6) 0.2192(5)
O6 O -0.5472(5) 0.2820(5) 0.2703(6)
O7 O -0.2872(6) 0.6051(6) 0.0772(7)
O8 O -0.2834(5) 0.4299(6) 0.1542(5)
O9 O -0.1729(5) 0.3467(8) 0.3661(5)
O10 O -0.4380(6) 0.1810(7) 0.1226(5)
N1 N -0.3669(6) 0.2890(6) 0.4519(6)
N2 N -0.4820(5) 0.4486(6) 0.1697(6)
C1 C -0.3717(9) 0.1868(9) 0.4980(7)
C2 C -0.3690(10) 0.1810(10) 0.5948(8)
C3 C -0.362(2) 0.2850(10) 0.6440(10)
C4 C -0.3620(10) 0.3910(10) 0.6003(8)
C5 C -0.3679(8) 0.3893(9) 0.5028(8)
C6 C -0.3721(8) 0.0772(8) 0.4333(7)
C7 C -0.3675(8) 0.5009(9) 0.4440(8)
C8 C -0.5843(7) 0.4527(7) 0.1740(6)
C9 C -0.6475(7) 0.5471(8) 0.1382(7)
C10 C -0.6063(8) 0.6400(8) 0.0987(8)
C11 C -0.5014(7) 0.6393(8) 0.0910(7)
C12 C -0.4428(7) 0.5398(7) 0.1248(6)
C13 C -0.6183(6) 0.3476(7) 0.2262(6)
C14 C -0.3280(7) 0.5250(8) 0.1161(7)
H1 H -0.3786 0.6612 0.4481
H2 H -0.3712 0.1088 0.6262
H3 H -0.3576 0.2842 0.7109
H4 H -0.3582 0.4626 0.6344
H5 H -0.7184 0.5466 0.1410
H6 H -0.1737 0.2823 0.4040
H7 H -0.1082 0.3400 0.3530
H8 H -0.6480 0.7059 0.0774
H9 H -0.5041 0.1958 0.0909
H10 H -0.4149 0.1548 0.0710
H11 H -0.4723 0.7036 0.0643
Ce1C Ce -0.85145(3) 0.20575(3) 0.26941(3)
O5C O -0.2162(4) 0.1643(6) 0.2192(5)
O11 O -0.6484(6) 0.1916(6) 0.0429(6)
H12 H -0.6997 0.1868 0.0765
H13 H -0.6821 0.2271 -0.0111
O12 O -0.4022(6) 0.0572(7) -0.0284(6)
H14 H -0.3864 -0.0202 -0.0333
H15 H -0.3418 0.0764 -0.0467
O13 O -0.921(2) 0.5975(9) 0.2050(10)
H16 H -0.9690 0.6324 0.1577
H17 H -0.9246 0.5213 0.1875
O14 O -0.6210(10) 0.2251(8) 0.6255(9)
H18 H -0.5895 0.1997 0.6852
H19 H -0.6206 0.1544 0.5919
loop_
_geom_bond_atom_site_label_1
_geom_bond_atom_site_label_2
_geom_bond_site_symmetry_1
_geom_bond_site_symmetry_2
Ce1 O2 1_555 1_555
O1 C6 1_555 1_555
O2 C6 1_555 1_555
O3 C7 1_555 1_555
O4 Ce1 1_555 1_555
O5 C13 1_555 1_555
O6 Ce1 1_555 1_555
O7 C14 1_555 1_555
O8 Ce1 1_555 1_555
O9 Ce1 1_555 1_555
O10 Ce1 1_555 1_555
N1 Ce1 1_555 1_555
N2 Ce1 1_555 1_555
C1 N1 1_555 1_555
C2 C1 1_555 1_555
C3 C2 1_555 1_555
C4 C3 1_555 1_555
C5 N1 1_555 1_555
C6 C1 1_555 1_555
C7 O4 1_555 1_555
C8 N2 1_555 1_555
C9 C8 1_555 1_555
C10 C9 1_555 1_555
C11 C10 1_555 1_555
C12 N2 1_555 1_555
C13 O6 1_555 1_555
C14 O8 1_555 1_555
H1 O3 1_555 1_555
H2 C2 1_555 1_555
H3 C3 1_555 1_555
H4 C4 1_555 1_555
H5 C9 1_555 1_555
H6 O9 1_555 1_555
H7 O9 1_555 1_555
H8 C10 1_555 1_555
H9 O10 1_555 1_555
H10 O10 1_555 1_555
H11 C11 1_555 1_555
O11 H12 1_555 1_555
H13 O11 1_555 1_555
O12 H14 1_555 1_555
H15 O12 1_555 1_555
O13 H16 1_555 1_555
H17 O13 1_555 1_555
O14 H18 1_555 1_555
H19 O14 1_555 1_555
Ce1C O5 1_555 1_555
O5C Ce1 1_555 1_555
C4 C5 1_555 1_555
C5 C7 1_555 1_555
C8 C13 1_555 1_555
C11 C12 1_555 1_555
C12 C14 1_555 1_555

#END
