
#######################################################################
#
#                 Cambridge Crystallographic Data Centre
#                                CCDC 
#
#######################################################################
#
# If this CIF has been generated from an entry in the Cambridge 
# Structural Database, then it will include bibliographic, chemical, 
# crystal, experimental, refinement or atomic coordinate data resulting 
# from the CCDC's data processing and validation procedures.
#
#######################################################################

data_LOYCEH
_symmetry_cell_setting           monoclinic
_symmetry_space_group_name_H-M   'P 21/c'
_symmetry_Int_Tables_number      14
_space_group_name_Hall           '-P 2ybc'
loop_
_symmetry_equiv_pos_site_id
_symmetry_equiv_pos_as_xyz
1 x,y,z
2 x,1/2-y,1/2+z
3 -x,-y,-z
4 -x,1/2+y,1/2-z
_cell_length_a                   15.610(3)
_cell_length_b                   9.623(4)
_cell_length_c                   15.923(3)
_cell_angle_alpha                90
_cell_angle_beta                 116.170(10)
_cell_angle_gamma                90
_cell_volume                     2146.68
loop_
_atom_site_label
_atom_site_type_symbol
_atom_site_fract_x
_atom_site_fract_y
_atom_site_fract_z
Cd1 Cd -0.03595(4) -0.33325(6) -0.36049(4)
O1 O -0.2285(5) -0.4282(9) -0.6430(5)
O2 O -0.1015(5) -0.4192(7) -0.5078(5)
O3 O 0.0617(4) 0.0839(6) -0.2625(4)
O4 O -0.0088(5) -0.1228(6) -0.2844(4)
O5 O 0.0898(6) -0.4827(8) -0.3059(6)
N1 N -0.2033(5) -0.2995(7) -0.4258(5)
N2 N 0.0559(5) -0.1929(6) -0.4087(4)
C1 C -0.2492(6) -0.3457(9) -0.5141(6)
C2 C -0.3471(8) -0.3410(10) -0.5617(7)
C3 C -0.3993(7) -0.2930(10) -0.5173(7)
C4 C -0.3536(7) -0.2420(10) -0.4253(7)
C5 C -0.2539(6) -0.2494(10) -0.3836(6)
C6 C -0.1885(8) -0.4010(10) -0.5596(7)
C7 C -0.4081(9) -0.1880(10) -0.3729(9)
C8 C -0.4503(9) -0.3060(10) -0.3365(9)
C9 C -0.3785(9) -0.3880(10) -0.2622(9)
C10 C -0.4260(10) -0.492(2) -0.2220(10)
C11 C 0.0773(5) -0.0672(7) -0.3710(5)
C12 C 0.1289(6) 0.0261(8) -0.3970(6)
C13 C 0.1584(6) -0.0164(9) -0.4627(6)
C14 C 0.1378(6) -0.1444(8) -0.5014(6)
C15 C 0.0869(6) -0.2314(9) -0.4713(6)
C16 C 0.0408(6) -0.0328(8) -0.2999(5)
C17 C 0.1711(7) -0.1950(10) -0.5724(6)
C18 C 0.2673(8) -0.2540(10) -0.5299(8)
C19 C 0.2969(9) -0.3130(10) -0.6040(10)
C20 C 0.3070(10) -0.216(2) -0.6660(10)
H1 H -0.3778 -0.3707 -0.6236
H2 H -0.4656 -0.2935 -0.5485
H3 H 0.1041 -0.5199 -0.3464
H4 H 0.0697 -0.5186 -0.2702
H5 H -0.2208 -0.2177 -0.3225
H6 H -0.3654 -0.1320 -0.3202
H7 H -0.4595 -0.1281 -0.4141
H8 H -0.4929 -0.2654 -0.3136
H9 H -0.4880 -0.3666 -0.3883
H10 H -0.3363 -0.3273 -0.2128
H11 H -0.3406 -0.4386 -0.2867
H12 H -0.4706 -0.4434 -0.2064
H13 H -0.3777 -0.5342 -0.1668
H14 H -0.4584 -0.5621 -0.2678
H15 H 0.1432 0.1145 -0.3709
H16 H 0.1934 0.0445 -0.4809
H17 H 0.0734 -0.3209 -0.4956
H18 H 0.1268 -0.2642 -0.6120
H19 H 0.1698 -0.1171 -0.6119
H20 H 0.2700 -0.3274 -0.4871
H21 H 0.3125 -0.1825 -0.4939
H22 H 0.3572 -0.3618 -0.5713
H23 H 0.2497 -0.3818 -0.6411
H24 H 0.2450 -0.1847 -0.7108
H25 H 0.3391 -0.2590 -0.6988
H26 H 0.3437 -0.1376 -0.6314
Cd1C Cd 0.03595(4) 0.16675(6) -0.13951(4)
O3C O -0.0617(4) -0.4161(6) -0.2375(4)
loop_
_geom_bond_atom_site_label_1
_geom_bond_atom_site_label_2
_geom_bond_site_symmetry_1
_geom_bond_site_symmetry_2
Cd1 O2 1_555 1_555
O1 C6 1_555 1_555
O2 C6 1_555 1_555
O3 C16 1_555 1_555
O4 Cd1 1_555 1_555
O5 Cd1 1_555 1_555
N1 Cd1 1_555 1_555
N2 Cd1 1_555 1_555
C1 N1 1_555 1_555
C2 C1 1_555 1_555
C3 C2 1_555 1_555
C4 C3 1_555 1_555
C5 N1 1_555 1_555
C6 C1 1_555 1_555
C7 C4 1_555 1_555
C8 C7 1_555 1_555
C9 C8 1_555 1_555
C10 C9 1_555 1_555
C11 N2 1_555 1_555
C12 C11 1_555 1_555
C13 C12 1_555 1_555
C14 C13 1_555 1_555
C15 N2 1_555 1_555
C16 O4 1_555 1_555
C17 C14 1_555 1_555
C18 C17 1_555 1_555
C19 C18 1_555 1_555
C20 C19 1_555 1_555
H1 C2 1_555 1_555
H2 C3 1_555 1_555
H3 O5 1_555 1_555
H4 O5 1_555 1_555
H5 C5 1_555 1_555
H6 C7 1_555 1_555
H7 C7 1_555 1_555
H8 C8 1_555 1_555
H9 C8 1_555 1_555
H10 C9 1_555 1_555
H11 C9 1_555 1_555
H12 C10 1_555 1_555
H13 C10 1_555 1_555
H14 C10 1_555 1_555
H15 C12 1_555 1_555
H16 C13 1_555 1_555
H17 C15 1_555 1_555
H18 C17 1_555 1_555
H19 C17 1_555 1_555
H20 C18 1_555 1_555
H21 C18 1_555 1_555
H22 C19 1_555 1_555
H23 C19 1_555 1_555
H24 C20 1_555 1_555
H25 C20 1_555 1_555
H26 C20 1_555 1_555
Cd1C O3 1_555 1_555
O3C Cd1 1_555 1_555
C4 C5 1_555 1_555
C11 C16 1_555 1_555
C14 C15 1_555 1_555

#END
