
#######################################################################
#
#                 Cambridge Crystallographic Data Centre
#                                CCDC 
#
#######################################################################
#
# If this CIF has been generated from an entry in the Cambridge 
# Structural Database, then it will include bibliographic, chemical, 
# crystal, experimental, refinement or atomic coordinate data resulting 
# from the CCDC's data processing and validation procedures.
#
#######################################################################

data_LOZHOZ
_symmetry_cell_setting           tetragonal
_symmetry_space_group_name_H-M   'P 42/n'
_symmetry_Int_Tables_number      86
_space_group_name_Hall           '-P 4bc'
loop_
_symmetry_equiv_pos_site_id
_symmetry_equiv_pos_as_xyz
1 x,y,z
2 1/2-x,1/2-y,z
3 -y,1/2+x,1/2+z
4 1/2+y,-x,1/2+z
5 -x,-y,-z
6 1/2+x,1/2+y,-z
7 y,1/2-x,1/2-z
8 1/2-y,x,1/2-z
_cell_length_a                   22.5203(13)
_cell_length_b                   22.5203(13)
_cell_length_c                   9.3162(7)
_cell_angle_alpha                90
_cell_angle_beta                 90
_cell_angle_gamma                90
_cell_volume                     4724.84
loop_
_atom_site_label
_atom_site_type_symbol
_atom_site_fract_x
_atom_site_fract_y
_atom_site_fract_z
Pr1 Pr 0.509760(5) 0.500732(4) 0.713351(10)
O1 O 0.45808(6) 0.55151(6) 0.52509(15)
O2 O 0.40167(7) 0.56767(7) 0.33785(16)
O3 O 0.55947(8) 0.57671(7) 0.35905(16)
O4 O 0.57969(7) 0.56717(7) 0.59228(17)
O5 O 0.48505(7) 0.56309(6) 1.08681(15)
O6 O 0.53004(8) 0.58031(7) 0.88013(16)
C1 C 0.41635(9) 0.57944(9) 0.4636(2)
C2 C 0.38642(10) 0.62791(9) 0.5445(2)
C3 C 0.33004(12) 0.64516(13) 0.5057(3)
H1 H 0.3117 0.6279 0.4265
C4 C 0.30077(14) 0.68793(15) 0.5839(4)
H2 H 0.2622 0.6986 0.5593
C5 C 0.32798(14) 0.71468(13) 0.6973(3)
H3 H 0.3082 0.7441 0.7486
C6 C 0.38415(13) 0.69847(11) 0.7360(3)
H4 H 0.4027 0.7169 0.8133
C7 C 0.41336(11) 0.65459(10) 0.6600(2)
H5 H 0.4514 0.6431 0.6871
C8 C 0.58118(9) 0.59467(10) 0.4756(2)
C9 C 0.61173(9) 0.65418(10) 0.4728(2)
C10 C 0.63672(11) 0.67646(11) 0.5968(3)
H6 H 0.6349 0.6547 0.6815
C11 C 0.66455(13) 0.73117(13) 0.5946(4)
H7 H 0.6814 0.7461 0.6782
C12 C 0.66743(14) 0.76342(13) 0.4705(4)
H8 H 0.6863 0.8001 0.4700
C13 C 0.64256(14) 0.74175(13) 0.3472(4)
H9 H 0.6445 0.7637 0.2627
C14 C 0.61455(12) 0.68718(11) 0.3487(3)
H10 H 0.5974 0.6726 0.2650
C15 C 0.50694(10) 0.59706(9) 0.9956(2)
C16 C 0.50612(10) 0.66277(9) 1.0256(2)
C17 C 0.53867(13) 0.70133(11) 0.9419(3)
H11 H 0.5606 0.6870 0.8648
C18 C 0.53863(16) 0.76182(12) 0.9728(3)
H12 H 0.5612 0.7877 0.9173
C19 C 0.50601(16) 0.78306(12) 1.0832(4)
H13 H 0.5060 0.8235 1.1032
C20 C 0.47309(16) 0.74535(12) 1.1652(3)
H14 H 0.4503 0.7603 1.2403
C21 C 0.47325(12) 0.68483(11) 1.1377(3)
H15 H 0.4511 0.6593 1.1950
O7 O 0.41269(7) 0.52590(8) 0.82210(17)
C22 C 0.38051(11) 0.49795(12) 0.9040(3)
H16 H 0.3831 0.4567 0.9021
N1 N 0.34272(10) 0.52185(11) 0.9939(2)
C23 C 0.30732(18) 0.48605(18) 1.0907(4)
H17 H 0.3149 0.4448 1.0729
H18 H 0.2660 0.4943 1.0753
H19 H 0.3176 0.4954 1.1881
C24 C 0.33648(14) 0.58525(14) 1.0049(3)
H20 H 0.3611 0.6041 0.9342
H21 H 0.3484 0.5979 1.0990
H22 H 0.2958 0.5960 0.9888
Pr1D Pr 0.490240(5) 0.499268(4) 0.286649(10)
Pr1D_2 Pr 0.490240(5) 0.499268(4) 1.286649(10)
O1D O 0.54192(6) 0.44849(6) 0.47491(15)
O2D O 0.59833(7) 0.43233(7) 0.66215(16)
O3D O 0.44053(8) 0.42329(7) 0.64095(16)
O5D O 0.51495(7) 0.43691(6) 0.91319(15)
loop_
_geom_bond_atom_site_label_1
_geom_bond_atom_site_label_2
_geom_bond_site_symmetry_1
_geom_bond_site_symmetry_2
Pr1 O1 1_555 1_555
O1 C1 1_555 1_555
O2 C1 1_555 1_555
O3 C8 1_555 1_555
O4 Pr1 1_555 1_555
O5 C15 1_555 1_555
O6 Pr1 1_555 1_555
C1 C2 1_555 1_555
C2 C3 1_555 1_555
C3 H1 1_555 1_555
C4 C3 1_555 1_555
H2 C4 1_555 1_555
C5 C4 1_555 1_555
H3 C5 1_555 1_555
C6 C5 1_555 1_555
H4 C6 1_555 1_555
C7 C2 1_555 1_555
H5 C7 1_555 1_555
C8 O4 1_555 1_555
C9 C8 1_555 1_555
C10 C9 1_555 1_555
H6 C10 1_555 1_555
C11 C10 1_555 1_555
H7 C11 1_555 1_555
C12 C11 1_555 1_555
H8 C12 1_555 1_555
C13 C12 1_555 1_555
H9 C13 1_555 1_555
C14 C9 1_555 1_555
H10 C14 1_555 1_555
C15 O6 1_555 1_555
C16 C15 1_555 1_555
C17 C16 1_555 1_555
H11 C17 1_555 1_555
C18 C17 1_555 1_555
H12 C18 1_555 1_555
C19 C18 1_555 1_555
H13 C19 1_555 1_555
C20 C19 1_555 1_555
H14 C20 1_555 1_555
C21 C16 1_555 1_555
H15 C21 1_555 1_555
O7 Pr1 1_555 1_555
C22 O7 1_555 1_555
H16 C22 1_555 1_555
N1 C22 1_555 1_555
C23 N1 1_555 1_555
H17 C23 1_555 1_555
H18 C23 1_555 1_555
H19 C23 1_555 1_555
C24 N1 1_555 1_555
H20 C24 1_555 1_555
H21 C24 1_555 1_555
H22 C24 1_555 1_555
Pr1D O1 1_555 1_555
Pr1D_2 O5 1_555 1_555
O1D Pr1 1_555 1_555
O2D Pr1 1_555 1_555
O3D Pr1 1_555 1_555
O5D Pr1 1_555 1_555
O2 Pr1D 1_555 1_555
O3 Pr1D 1_555 1_555
C6 C7 1_555 1_555
C13 C14 1_555 1_555
C20 C21 1_555 1_555
Pr1D O1D 1_555 1_555

#END
