
#######################################################################
#
#                 Cambridge Crystallographic Data Centre
#                                CCDC 
#
#######################################################################
#
# If this CIF has been generated from an entry in the Cambridge 
# Structural Database, then it will include bibliographic, chemical, 
# crystal, experimental, refinement or atomic coordinate data resulting 
# from the CCDC's data processing and validation procedures.
#
#######################################################################

data_LOZTIF
_symmetry_cell_setting           monoclinic
_symmetry_space_group_name_H-M   'P 21/c'
_symmetry_Int_Tables_number      14
_space_group_name_Hall           '-P 2ybc'
loop_
_symmetry_equiv_pos_site_id
_symmetry_equiv_pos_as_xyz
1 x,y,z
2 -x,1/2+y,1/2-z
3 -x,-y,-z
4 x,1/2-y,1/2+z
_cell_length_a                   9.4187(6)
_cell_length_b                   28.0878(14)
_cell_length_c                   16.7579(11)
_cell_angle_alpha                90
_cell_angle_beta                 99.446(6)
_cell_angle_gamma                90
_cell_volume                     4373.2
loop_
_atom_site_label
_atom_site_type_symbol
_atom_site_fract_x
_atom_site_fract_y
_atom_site_fract_z
Eu1 Eu -0.29605(4) -0.007146(13) -0.02584(2)
Eu2 Eu -0.55429(5) 0.527398(14) 0.08685(2)
O1 O -0.1489(6) 0.25732(19) 0.2098(4)
O2 O -0.3446(11) 0.0563(2) 0.0440(5)
O3 O -0.5528(9) 0.0756(2) 0.0659(4)
O4 O -0.3738(7) 0.47072(19) 0.1782(4)
O5 O -0.3964(6) 0.46055(18) 0.0526(3)
O6 O 0.1292(7) -0.2757(2) 0.0580(4)
O7 O -0.1003(8) -0.0619(2) 0.0004(6)
O8 O 0.1493(7) -0.0516(2) 0.0543(4)
O9 O -0.2977(7) -0.4573(2) -0.0336(4)
O10 O -0.3338(7) -0.4353(2) 0.0781(4)
O11 O -0.2581(7) -0.2133(2) 0.3287(4)
O12 O -0.2811(10) -0.0424(3) 0.0973(4)
O13 O -0.4889(9) -0.0264(3) 0.1217(6)
O14 O -0.4240(7) -0.4259(2) 0.2117(3)
O15 O -0.5915(7) -0.3886(2) 0.1079(4)
O16 O -0.6618(10) 0.5074(3) 0.1864(5)
O17 O -0.2730(11) -0.0233(3) -0.1565(4)
H1 H -0.2197 -0.0015 -0.1763
H2 H -0.3579 -0.0240 -0.1887
O18 O -0.8249(7) 0.5504(2) 0.0308(5)
H3 H -0.8630 0.5808 0.0295
H4 H -0.8959 0.5292 0.0094
C1 C -0.2091(8) 0.3024(3) 0.1846(5)
C2 C -0.1840(9) 0.3356(3) 0.2457(5)
H5 H -0.1379 0.3278 0.2975
C3 C -0.2318(9) 0.3814(3) 0.2253(5)
H6 H -0.2180 0.4046 0.2655
C4 C -0.3023(9) 0.3955(3) 0.1446(5)
C5 C -0.3248(9) 0.3618(3) 0.0846(5)
H7 H -0.3686 0.3699 0.0325
C6 C -0.2802(9) 0.3147(3) 0.1035(5)
H8 H -0.2962 0.2913 0.0638
C7 C -0.2240(9) 0.2172(3) 0.1679(5)
C8 C -0.3782(9) 0.2116(3) 0.1409(5)
H9 H -0.4379 0.2375 0.1457
C9 C -0.4422(9) 0.1685(3) 0.1074(5)
H10 H -0.5411 0.1660 0.0907
C10 C -0.3529(10) 0.1313(3) 0.1008(5)
C11 C -0.1968(10) 0.1384(3) 0.1263(6)
H11 H -0.1367 0.1131 0.1189
C12 C -0.1296(10) 0.1811(3) 0.1617(6)
H12 H -0.0309 0.1839 0.1787
C13 C -0.4217(13) 0.0842(3) 0.0684(6)
C14 C -0.3586(9) 0.4450(3) 0.1247(5)
C15 C 0.0183(9) -0.3100(3) 0.0485(6)
C16 C -0.0443(12) -0.3172(3) 0.1069(6)
H13 H -0.0281 -0.2984 0.1533
C17 C -0.1427(12) -0.3561(3) 0.0981(6)
H14 H -0.1899 -0.3618 0.1418
C18 C -0.1769(9) -0.3867(3) 0.0324(5)
C19 C -0.1154(9) -0.3779(3) -0.0247(6)
H15 H -0.1318 -0.3962 -0.0716
C20 C -0.0193(9) -0.3394(3) -0.0174(6)
H16 H 0.0241 -0.3329 -0.0622
C21 C 0.0942(9) -0.2279(3) 0.0532(5)
C22 C -0.0483(8) -0.2090(3) 0.0384(5)
H17 H -0.1275 -0.2292 0.0338
C23 C -0.0671(9) -0.1599(3) 0.0310(5)
H18 H -0.1592 -0.1470 0.0201
C24 C 0.0545(8) -0.1298(3) 0.0403(4)
C25 C 0.1975(9) -0.1496(3) 0.0574(5)
H19 H 0.2770 -0.1295 0.0657
C26 C 0.2168(9) -0.1984(3) 0.0615(6)
H20 H 0.3088 -0.2115 0.0697
C27 C 0.0322(10) -0.0775(3) 0.0315(5)
C28 C -0.2768(9) -0.4295(3) 0.0256(5)
C29 C -0.3171(10) -0.2551(3) 0.2886(5)
C30 C -0.4363(12) -0.2561(3) 0.2136(6)
H21 H -0.4724 -0.2275 0.1905
C31 C -0.4917(11) -0.2995(3) 0.1792(6)
H22 H -0.5656 -0.3006 0.1350
C32 C -0.4268(10) -0.3416(3) 0.2167(5)
C33 C -0.3090(9) -0.3394(3) 0.2919(5)
H23 H -0.2733 -0.3679 0.3154
C34 C -0.2524(9) -0.2963(3) 0.3273(5)
H24 H -0.1792 -0.2951 0.3719
C35 C -0.2845(9) -0.1724(3) 0.2811(5)
C36 C -0.3936(10) -0.1407(3) 0.2803(5)
H25 H -0.4559 -0.1463 0.3170
C37 C -0.4223(10) -0.1018(3) 0.2324(5)
H26 H -0.5032 -0.0831 0.2338
C38 C -0.3345(10) -0.0924(3) 0.1861(5)
C39 C -0.2218(10) -0.1245(4) 0.1894(5)
H27 H -0.1548 -0.1178 0.1558
C40 C -0.1964(10) -0.1650(3) 0.2360(6)
H28 H -0.1188 -0.1851 0.2334
C41 C -0.3737(13) -0.0512(4) 0.1326(6)
C42 C -0.4844(10) -0.3880(3) 0.1776(5)
C43 C -0.9749(16) 0.4823(5) 0.1332(9)
H29 H -1.0191 0.4542 0.1505
H30 H -0.9043 0.4735 0.1006
H31 H -1.0469 0.5020 0.1021
N1 N -0.9060(13) 0.5085(5) 0.2032(7)
C44 C -1.0121(17) 0.5323(6) 0.2408(12)
H32 H -1.1060 0.5261 0.2106
H33 H -0.9940 0.5660 0.2417
H34 H -1.0074 0.5209 0.2951
C45 C -0.7611(16) 0.5249(6) 0.2142(10)
H35 H -0.7327 0.5454 0.2615
Eu1B Eu -0.70395(4) 0.007146(13) 0.02584(2)
Eu1B_2 Eu 0.29605(4) 0.007146(13) 0.02584(2)
Eu2_2 Eu -0.55429(5) -0.472602(14) 0.08685(2)
Eu2B Eu -0.44571(5) -0.527398(14) -0.08685(2)
Eu2B_2 Eu -0.44571(5) 0.472602(14) -0.08685(2)
O3B O -0.4472(9) -0.0756(2) -0.0659(4)
O5B O -0.6036(6) 0.53945(18) -0.0526(3)
O8B O -0.1493(7) 0.0516(2) -0.0543(4)
O9B O -0.7023(7) 0.4573(2) 0.0336(4)
O10_2 O -0.3338(7) 0.5647(2) 0.0781(4)
O13B O -0.5111(9) 0.0264(3) -0.1217(6)
O14_2 O -0.4240(7) 0.5741(2) 0.2117(3)
O15_2 O -0.5915(7) 0.6114(2) 0.1079(4)
loop_
_geom_bond_atom_site_label_1
_geom_bond_atom_site_label_2
_geom_bond_site_symmetry_1
_geom_bond_site_symmetry_2
Eu1 O2 1_555 1_555
Eu2 O4 1_555 1_555
O1 C1 1_555 1_555
O2 C13 1_555 1_555
O3 C13 1_555 1_555
O4 C14 1_555 1_555
O5 Eu2 1_555 1_555
O6 C15 1_555 1_555
O7 Eu1 1_555 1_555
O8 C27 1_555 1_555
O9 C28 1_555 1_555
O10 C28 1_555 1_555
O11 C29 1_555 1_555
O12 Eu1 1_555 1_555
O13 C41 1_555 1_555
O14 C42 1_555 1_555
O15 C42 1_555 1_555
O16 Eu2 1_555 1_555
O17 Eu1 1_555 1_555
H1 O17 1_555 1_555
H2 O17 1_555 1_555
O18 Eu2 1_555 1_555
H3 O18 1_555 1_555
H4 O18 1_555 1_555
C1 C2 1_555 1_555
C2 H5 1_555 1_555
C3 C2 1_555 1_555
H6 C3 1_555 1_555
C4 C3 1_555 1_555
C5 C4 1_555 1_555
H7 C5 1_555 1_555
C6 C1 1_555 1_555
H8 C6 1_555 1_555
C7 O1 1_555 1_555
C8 C7 1_555 1_555
H9 C8 1_555 1_555
C9 C8 1_555 1_555
H10 C9 1_555 1_555
C10 C9 1_555 1_555
C11 C10 1_555 1_555
H11 C11 1_555 1_555
C12 C7 1_555 1_555
H12 C12 1_555 1_555
C13 C10 1_555 1_555
C14 O5 1_555 1_555
C15 C16 1_555 1_555
C16 H13 1_555 1_555
C17 C16 1_555 1_555
H14 C17 1_555 1_555
C18 C17 1_555 1_555
C19 C18 1_555 1_555
H15 C19 1_555 1_555
C20 C15 1_555 1_555
H16 C20 1_555 1_555
C21 O6 1_555 1_555
C22 C21 1_555 1_555
H17 C22 1_555 1_555
C23 C22 1_555 1_555
H18 C23 1_555 1_555
C24 C23 1_555 1_555
C25 C24 1_555 1_555
H19 C25 1_555 1_555
C26 C21 1_555 1_555
H20 C26 1_555 1_555
C27 O7 1_555 1_555
C28 C18 1_555 1_555
C29 C30 1_555 1_555
C30 H21 1_555 1_555
C31 C30 1_555 1_555
H22 C31 1_555 1_555
C32 C31 1_555 1_555
C33 C32 1_555 1_555
H23 C33 1_555 1_555
C34 C29 1_555 1_555
H24 C34 1_555 1_555
C35 O11 1_555 1_555
C36 C35 1_555 1_555
H25 C36 1_555 1_555
C37 C36 1_555 1_555
H26 C37 1_555 1_555
C38 C37 1_555 1_555
C39 C38 1_555 1_555
H27 C39 1_555 1_555
C40 C35 1_555 1_555
H28 C40 1_555 1_555
C41 O12 1_555 1_555
C42 C32 1_555 1_555
C43 H29 1_555 1_555
H30 C43 1_555 1_555
H31 C43 1_555 1_555
N1 C43 1_555 1_555
C44 N1 1_555 1_555
H32 C44 1_555 1_555
H33 C44 1_555 1_555
H34 C44 1_555 1_555
C45 O16 1_555 1_555
H35 C45 1_555 1_555
Eu1B O3 1_555 1_555
Eu1B_2 O8 1_555 1_555
Eu2_2 O10 1_555 1_555
Eu2B O9 1_555 1_555
Eu2B_2 O5 1_555 1_555
O3B Eu1 1_555 1_555
O5B Eu2 1_555 1_555
O8B Eu1 1_555 1_555
O9B Eu2 1_555 1_555
O10_2 Eu2 1_555 1_555
O13B Eu1 1_555 1_555
O14_2 Eu2 1_555 1_555
O15_2 Eu2 1_555 1_555
O13 Eu1B 1_555 1_555
O14 Eu2_2 1_555 1_555
O15 Eu2_2 1_555 1_555
C4 C14 1_555 1_555
C5 C6 1_555 1_555
C11 C12 1_555 1_555
C19 C20 1_555 1_555
C24 C27 1_555 1_555
C25 C26 1_555 1_555
C33 C34 1_555 1_555
C38 C41 1_555 1_555
C39 C40 1_555 1_555
N1 C45 1_555 1_555
Eu2B_2 O5B 1_555 1_555

#END
