
#######################################################################
#
#                 Cambridge Crystallographic Data Centre
#                                CCDC 
#
#######################################################################
#
# If this CIF has been generated from an entry in the Cambridge 
# Structural Database, then it will include bibliographic, chemical, 
# crystal, experimental, refinement or atomic coordinate data resulting 
# from the CCDC's data processing and validation procedures.
#
#######################################################################

data_LOZVUT
_symmetry_cell_setting           orthorhombic
_symmetry_space_group_name_H-M   'P n n a'
_symmetry_Int_Tables_number      52
_space_group_name_Hall           '-P 2a 2bc'
loop_
_symmetry_equiv_pos_site_id
_symmetry_equiv_pos_as_xyz
1 x,y,z
2 1/2-x,-y,z
3 x,1/2-y,1/2-z
4 1/2-x,1/2+y,1/2-z
5 -x,-y,-z
6 1/2+x,y,-z
7 -x,1/2+y,1/2+z
8 1/2+x,1/2-y,1/2+z
_cell_length_a                   11.5514(10)
_cell_length_b                   8.5414(8)
_cell_length_c                   18.5063(17)
_cell_angle_alpha                90
_cell_angle_beta                 90
_cell_angle_gamma                90
_cell_volume                     1825.93
loop_
_atom_site_label
_atom_site_type_symbol
_atom_site_fract_x
_atom_site_fract_y
_atom_site_fract_z
Cu1 Cu 0.7500 0.5000 0.45731(4)
O1 O 0.6971(3) 0.6429(4) 0.37941(16)
O2 O 0.5408(3) 0.5102(3) 0.40879(18)
N1 N 0.7344(3) 0.6705(4) 0.5303(2)
N2 N 0.6506(3) 0.6855(4) 0.58170(17)
H1 H 0.6050 0.6113 0.5951
C1 C 0.5628(4) 0.8816(5) 0.6651(2)
H2 H 0.5061 0.8004 0.6712
H3 H 0.5251 0.9762 0.6499
H4 H 0.6019 0.8995 0.7101
C2 C 0.6488(4) 0.8329(5) 0.6091(2)
C3 C 0.7359(3) 0.9153(5) 0.5749(2)
C4 C 0.7864(4) 0.8100(5) 0.5269(2)
C5 C 0.8831(5) 0.8394(6) 0.4755(3)
H5 H 0.9556 0.8236 0.4998
H6 H 0.8788 0.9451 0.4582
H7 H 0.8773 0.7683 0.4355
C6 C 0.5924(4) 0.6063(5) 0.3693(2)
C7 C 0.5895(5) 0.7500 0.2500
H8 H 0.6700 0.7500 0.2500
C8 C 0.5301(4) 0.6807(5) 0.3072(2)
C9 C 0.4106(4) 0.6809(5) 0.3065(2)
H9 H 0.3696 0.6344 0.3441
C10 C 0.3520(5) 0.7500 0.2500
H10 H 0.2715 0.7500 0.2500
O1B O 0.6971(3) 0.8571(4) 0.12059(16)
O2B O 0.5408(3) 0.9898(3) 0.09121(18)
C6B C 0.5924(4) 0.8937(5) 0.1307(2)
C8B C 0.5301(4) 0.8193(5) 0.1928(2)
C9B C 0.4106(4) 0.8191(5) 0.1935(2)
H9B H 0.3696 0.8656 0.1559
N1A N 0.7656(3) 1.3295(4) 0.5303(2)
N2A N 0.8494(3) 1.3145(4) 0.58170(17)
H1A H 0.8950 1.3887 0.5951
C1A C 0.9372(4) 1.1184(5) 0.6651(2)
H2A H 0.9939 1.1996 0.6712
H3A H 0.9749 1.0238 0.6499
H4A H 0.8981 1.1005 0.7101
C2A C 0.8512(4) 1.1671(5) 0.6091(2)
C3A C 0.7641(3) 1.0847(5) 0.5749(2)
C4A C 0.7136(4) 1.1900(5) 0.5269(2)
C5A C 0.6169(5) 1.1606(6) 0.4755(3)
H5A H 0.5444 1.1764 0.4998
H6A H 0.6212 1.0549 0.4582
H7A H 0.6227 1.2317 0.4355
Cu1_2 Cu 0.7500 1.5000 0.45731(4)
Cu1B Cu 0.7500 1.0000 0.04269(4)
O1A O 0.8029(3) 0.3571(4) 0.37941(16)
O2A O 0.9592(3) 0.4898(3) 0.40879(18)
N1A_2 N 0.7656(3) 0.3295(4) 0.5303(2)
loop_
_geom_bond_atom_site_label_1
_geom_bond_atom_site_label_2
_geom_bond_site_symmetry_1
_geom_bond_site_symmetry_2
Cu1 O1 1_555 1_555
O1 C6 1_555 1_555
O2 Cu1 1_555 1_555
N1 Cu1 1_555 1_555
N2 N1 1_555 1_555
H1 N2 1_555 1_555
C1 H2 1_555 1_555
H3 C1 1_555 1_555
H4 C1 1_555 1_555
C2 N2 1_555 1_555
C3 C2 1_555 1_555
C4 N1 1_555 1_555
C5 C4 1_555 1_555
H5 C5 1_555 1_555
H6 C5 1_555 1_555
H7 C5 1_555 1_555
C6 O2 1_555 1_555
C7 H8 1_555 1_555
C8 C6 1_555 1_555
C9 C8 1_555 1_555
H9 C9 1_555 1_555
C10 C9 1_555 1_555
H10 C10 1_555 1_555
O1B C6B 1_555 1_555
O2B C6B 1_555 1_555
C6B C8B 1_555 1_555
C8B C7 1_555 1_555
C9B C10 1_555 1_555
H9B C9B 1_555 1_555
N1A N2A 1_555 1_555
N2A H1A 1_555 1_555
C1A H2A 1_555 1_555
H3A C1A 1_555 1_555
H4A C1A 1_555 1_555
C2A N2A 1_555 1_555
C3A C3 1_555 1_555
C4A N1A 1_555 1_555
C5A C4A 1_555 1_555
H5A C5A 1_555 1_555
H6A C5A 1_555 1_555
H7A C5A 1_555 1_555
Cu1_2 N1A 1_555 1_555
Cu1B O1B 1_555 1_555
O1A Cu1 1_555 1_555
O2A Cu1 1_555 1_555
N1A_2 Cu1 1_555 1_555
C1 C2 1_555 1_555
C3 C4 1_555 1_555
C7 C8 1_555 1_555
O2B Cu1B 1_555 1_555
C8B C9B 1_555 1_555
C1A C2A 1_555 1_555
C2A C3A 1_555 1_555
C3A C4A 1_555 1_555

#END
