
#######################################################################
#
#                 Cambridge Crystallographic Data Centre
#                                CCDC 
#
#######################################################################
#
# If this CIF has been generated from an entry in the Cambridge 
# Structural Database, then it will include bibliographic, chemical, 
# crystal, experimental, refinement or atomic coordinate data resulting 
# from the CCDC's data processing and validation procedures.
#
#######################################################################

data_LOZXAB
_symmetry_cell_setting           triclinic
_symmetry_space_group_name_H-M   'P -1'
_symmetry_Int_Tables_number      2
_space_group_name_Hall           '-P 1'
loop_
_symmetry_equiv_pos_site_id
_symmetry_equiv_pos_as_xyz
1 x,y,z
2 -x,-y,-z
_cell_length_a                   7.7150(5)
_cell_length_b                   10.8690(8)
_cell_length_c                   10.9270(9)
_cell_angle_alpha                85.904(3)
_cell_angle_beta                 81.125(2)
_cell_angle_gamma                78.0940(10)
_cell_volume                     885.087
loop_
_atom_site_label
_atom_site_type_symbol
_atom_site_fract_x
_atom_site_fract_y
_atom_site_fract_z
Er1 Er 0.17458(3) 0.24444(2) 0.43362(2)
O1 O 0.2370(5) 1.2097(4) -0.3548(4)
O2 O 0.1080(5) 1.0758(3) -0.4296(3)
O3 O -0.1510(5) 0.9146(4) -0.2972(3)
O4 O 0.0993(5) 0.7885(3) -0.3692(3)
O5 O 0.0840(5) 0.4327(4) 0.2978(3)
O6 O 0.3287(5) 0.2956(4) 0.2365(4)
O7 O 0.5575(5) 0.2698(4) -0.2058(4)
H1 H 0.6189 0.2391 -0.2685
O8 O 0.5016(5) 0.4360(4) -0.3345(4)
O9 O 0.0410(5) 0.7480(3) -0.0751(3)
O10 O -0.0639(5) 0.3665(4) 0.5581(4)
H2 H -0.0361 0.4068 0.6137
H3 H -0.1483 0.4147 0.5263
O11 O 0.4684(5) 0.1225(4) 0.4152(4)
H4 H 0.5333 0.1527 0.4567
H5 H 0.4629 0.0487 0.4450
O12 O 0.3311(6) 0.3976(4) 0.4769(4)
H6 H 0.3752 0.4006 0.5430
H7 H 0.3743 0.4473 0.4227
C1 C 0.1736(7) 1.1106(5) -0.3422(5)
C2 C 0.0148(7) 0.8757(5) -0.2995(5)
C3 C 0.1802(7) 1.0321(5) -0.2238(5)
C4 C 0.1107(7) 0.9213(5) -0.2069(5)
C5 C 0.1254(7) 0.8513(5) -0.0967(5)
C6 C 0.2068(7) 0.8876(5) -0.0041(5)
H8 H 0.2149 0.8393 0.0694
C7 C 0.2750(8) 0.9958(5) -0.0225(5)
H9 H 0.3309 1.0205 0.0385
C8 C 0.2613(7) 1.0680(5) -0.1309(5)
H10 H 0.3068 1.1415 -0.1419
C9 C 0.2143(8) 0.3920(5) 0.2144(5)
C10 C 0.4827(7) 0.3868(5) -0.2311(5)
C11 C 0.2323(7) 0.4575(5) 0.0896(5)
C12 C 0.3498(7) 0.3956(5) -0.0068(5)
H11 H 0.4171 0.3160 0.0078
C13 C 0.3668(7) 0.4518(5) -0.1232(5)
C14 C 0.2683(7) 0.5719(5) -0.1450(5)
H12 H 0.2814 0.6109 -0.2236
C15 C 0.1510(7) 0.6329(5) -0.0492(5)
C16 C 0.1305(7) 0.5777(5) 0.0672(5)
H13 H 0.0503 0.6192 0.1306
Er1_2 Er 0.17458(3) 1.24444(2) -0.56638(2)
Er1A Er -0.17458(3) 0.75556(2) -0.43362(2)
O1_2 O 0.2370(5) 0.2097(4) 0.6452(4)
O2_2 O 0.1080(5) 0.0758(3) 0.5704(3)
O3A O 0.1510(5) 0.0854(4) 0.2972(3)
O4A O -0.0993(5) 0.2115(3) 0.3692(3)
O13 O 0.6906(5) 0.1432(4) 0.5985(4)
H14 H 0.7418 0.0731 0.6285
H15 H 0.7546 0.1610 0.5317
loop_
_geom_bond_atom_site_label_1
_geom_bond_atom_site_label_2
_geom_bond_site_symmetry_1
_geom_bond_site_symmetry_2
Er1 O5 1_555 1_555
O1 C1 1_555 1_555
O2 C1 1_555 1_555
O3 C2 1_555 1_555
O4 C2 1_555 1_555
O5 C9 1_555 1_555
O6 Er1 1_555 1_555
O7 H1 1_555 1_555
O8 C10 1_555 1_555
O9 C5 1_555 1_555
O10 Er1 1_555 1_555
H2 O10 1_555 1_555
H3 O10 1_555 1_555
O11 Er1 1_555 1_555
H4 O11 1_555 1_555
H5 O11 1_555 1_555
O12 Er1 1_555 1_555
H6 O12 1_555 1_555
H7 O12 1_555 1_555
C1 C3 1_555 1_555
C2 C4 1_555 1_555
C3 C4 1_555 1_555
C4 C5 1_555 1_555
C5 C6 1_555 1_555
C6 H8 1_555 1_555
C7 C6 1_555 1_555
H9 C7 1_555 1_555
C8 C3 1_555 1_555
H10 C8 1_555 1_555
C9 O6 1_555 1_555
C10 O7 1_555 1_555
C11 C9 1_555 1_555
C12 C11 1_555 1_555
H11 C12 1_555 1_555
C13 C10 1_555 1_555
C14 C13 1_555 1_555
H12 C14 1_555 1_555
C15 O9 1_555 1_555
C16 C11 1_555 1_555
H13 C16 1_555 1_555
O13 H14 1_555 1_555
H15 O13 1_555 1_555
Er1_2 O1 1_555 1_555
Er1A O3 1_555 1_555
O1_2 Er1 1_555 1_555
O2_2 Er1 1_555 1_555
O3A Er1 1_555 1_555
O4A Er1 1_555 1_555
O2 Er1_2 1_555 1_555
O4 Er1A 1_555 1_555
C7 C8 1_555 1_555
C12 C13 1_555 1_555
C14 C15 1_555 1_555
C15 C16 1_555 1_555

#END
