
#######################################################################
#
#                 Cambridge Crystallographic Data Centre
#                                CCDC 
#
#######################################################################
#
# If this CIF has been generated from an entry in the Cambridge 
# Structural Database, then it will include bibliographic, chemical, 
# crystal, experimental, refinement or atomic coordinate data resulting 
# from the CCDC's data processing and validation procedures.
#
#######################################################################

data_LOZXIJ
_symmetry_cell_setting           monoclinic
_symmetry_space_group_name_H-M   'P 21'
_symmetry_Int_Tables_number      4
_space_group_name_Hall           'P 2yb'
loop_
_symmetry_equiv_pos_site_id
_symmetry_equiv_pos_as_xyz
1 x,y,z
2 -x,1/2+y,-z
_cell_length_a                   7.5773(11)
_cell_length_b                   6.5414(7)
_cell_length_c                   11.8375(16)
_cell_angle_alpha                90
_cell_angle_beta                 102.040(2)
_cell_angle_gamma                90
_cell_volume                     573.832
loop_
_atom_site_label
_atom_site_type_symbol
_atom_site_fract_x
_atom_site_fract_y
_atom_site_fract_z
Zn1 Zn 0.70974(12) 0.83549(17) 0.53636(7)
O1 O 0.7150(9) 0.6712(9) 0.3997(5)
O2 O 0.5013(8) 0.5068(9) 0.4619(5)
O3 O 0.9034(9) 0.4177(9) -0.3742(5)
O4 O 0.7948(9) 0.7068(9) -0.3147(5)
O5 O 0.8862(9) 1.0504(10) 0.5189(6)
H1 H 0.9042 1.1704 0.5464
H2 H 0.9599 1.0278 0.4752
C1 C 0.6093(11) 0.5170(13) 0.3932(7)
C2 C 0.6245(11) 0.353(2) 0.3102(6)
H3 H 0.5552 0.2357 0.3112
C3 C 0.7290(11) 0.361(2) 0.2351(6)
H4 H 0.8065 0.4726 0.2410
C4 C 0.8432(12) 0.5176(14) -0.3010(7)
C5 C 0.8253(17) 0.4315(19) -0.1880(9)
H5 H 0.8137 0.5234 -0.1301
C6 C 0.8245(16) 0.2359(17) -0.1632(9)
H6 H 0.8482 0.1421 -0.2172
C7 C 0.7374(12) 0.2137(14) 0.1426(8)
C8 C 0.7935(12) 0.2819(13) 0.0448(7)
H7 H 0.8369 0.4147 0.0437
C9 C 0.7871(11) 0.1580(15) -0.0522(7)
C10 C 0.7287(13) -0.0439(15) -0.0461(7)
H8 H 0.7262 -0.1317 -0.1082
C11 C 0.6745(13) -0.1140(16) 0.0523(7)
H9 H 0.6354 -0.2483 0.0548
C12 C 0.6774(13) 0.0115(14) 0.1458(7)
H10 H 0.6400 -0.0375 0.2108
Zn1_2 Zn 0.70974(12) 0.83549(17) -0.46364(7)
Zn1A Zn 0.29026(12) 0.33549(17) 0.46364(7)
O2A O 0.4987(8) 1.0068(9) 0.5381(5)
O4_2 O 0.7948(9) 0.7068(9) 0.6853(5)
loop_
_geom_bond_atom_site_label_1
_geom_bond_atom_site_label_2
_geom_bond_site_symmetry_1
_geom_bond_site_symmetry_2
Zn1 O1 1_555 1_555
O1 C1 1_555 1_555
O2 C1 1_555 1_555
O3 C4 1_555 1_555
O4 C4 1_555 1_555
O5 Zn1 1_555 1_555
H1 O5 1_555 1_555
H2 O5 1_555 1_555
C1 C2 1_555 1_555
C2 H3 1_555 1_555
C3 C2 1_555 1_555
H4 C3 1_555 1_555
C4 C5 1_555 1_555
C5 H5 1_555 1_555
C6 C5 1_555 1_555
H6 C6 1_555 1_555
C7 C3 1_555 1_555
C8 C7 1_555 1_555
H7 C8 1_555 1_555
C9 C6 1_555 1_555
C10 C9 1_555 1_555
H8 C10 1_555 1_555
C11 C10 1_555 1_555
H9 C11 1_555 1_555
C12 C7 1_555 1_555
H10 C12 1_555 1_555
Zn1_2 O4 1_555 1_555
Zn1A O2 1_555 1_555
O2A Zn1 1_555 1_555
O4_2 Zn1 1_555 1_555
C8 C9 1_555 1_555
C11 C12 1_555 1_555

#END
