
#######################################################################
#
#                 Cambridge Crystallographic Data Centre
#                                CCDC 
#
#######################################################################
#
# If this CIF has been generated from an entry in the Cambridge 
# Structural Database, then it will include bibliographic, chemical, 
# crystal, experimental, refinement or atomic coordinate data resulting 
# from the CCDC's data processing and validation procedures.
#
#######################################################################

data_LOZYIK
_symmetry_cell_setting           monoclinic
_symmetry_space_group_name_H-M   'P 21/c'
_symmetry_Int_Tables_number      14
_space_group_name_Hall           '-P 2ybc'
loop_
_symmetry_equiv_pos_site_id
_symmetry_equiv_pos_as_xyz
1 x,y,z
2 -x,1/2+y,1/2-z
3 -x,-y,-z
4 x,1/2-y,1/2+z
_cell_length_a                   13.6052(11)
_cell_length_b                   7.3672(5)
_cell_length_c                   13.2676(12)
_cell_angle_alpha                90
_cell_angle_beta                 98.8680(10)
_cell_angle_gamma                90
_cell_volume                     1313.94
loop_
_atom_site_label
_atom_site_type_symbol
_atom_site_fract_x
_atom_site_fract_y
_atom_site_fract_z
Pr1 Pr 0.52486(4) 0.90660(6) 0.81404(4)
O1 O 0.3518(5) 0.8829(10) 0.8600(5)
O2 O 0.3932(5) 0.6326(10) 0.7864(5)
O3 O -0.4084(5) 0.5363(11) 0.8301(6)
O4 O -0.3027(5) 0.7648(11) 0.8441(6)
O5 O 0.5359(5) 0.7305(9) 0.6543(5)
O6 O 0.5293(5) 0.7002(10) 0.4887(5)
O7 O 0.6669(6) 1.0708(11) 0.9361(6)
H1 H 0.6533 1.0778 0.9964
H2 H 0.7201 1.0115 0.9342
C1 C 0.1218(8) 0.3826(16) 0.8563(9)
C2 C 0.0341(8) 0.4819(18) 0.8592(8)
H3 H 0.0359 0.6070 0.8502
C3 C -0.0550(8) 0.4034(15) 0.8749(9)
C4 C -0.0560(8) 0.2170(17) 0.8904(9)
H4 H -0.1146 0.1610 0.9016
C5 C 0.0292(8) 0.1128(16) 0.8896(9)
H5 H 0.0278 -0.0117 0.9012
C6 C 0.1166(8) 0.1970(16) 0.8713(8)
H6 H 0.1729 0.1265 0.8692
C7 C 0.3308(7) 0.7191(15) 0.8291(8)
C8 C 0.2347(8) 0.6425(17) 0.8502(9)
H7 H 0.1873 0.7185 0.8714
C9 C 0.2164(7) 0.4639(16) 0.8388(8)
H8 H 0.2652 0.3892 0.8191
C10 C -0.3207(8) 0.6018(14) 0.8450(8)
C11 C -0.2357(8) 0.4656(16) 0.8648(8)
H9 H -0.2489 0.3434 0.8742
C12 C -0.1429(8) 0.5222(16) 0.8686(9)
H10 H -0.1323 0.6468 0.8672
C13 C 0.5423(7) 0.7878(15) 0.5671(7)
H11 H 0.5585 0.9097 0.5616
Pr1_2 Pr -0.47514(4) 0.90660(6) 0.81404(4)
Pr1A Pr -0.52486(4) 0.40660(6) 0.68596(4)
Pr1A_2 Pr 0.47514(4) 0.40660(6) 0.68596(4)
Pr1C Pr 0.52486(4) 0.59340(6) 0.31404(4)
O2A O 0.6068(5) 1.1326(10) 0.7136(5)
O3_2 O 0.5916(5) 0.5363(11) 0.8301(6)
O3A O 0.4084(5) 1.0363(11) 0.6699(6)
O4_2 O 0.6973(5) 0.7648(11) 0.8441(6)
O5A O 0.4641(5) 1.2305(9) 0.8457(5)
O6C O 0.5293(5) 0.7998(10) 0.9887(5)
loop_
_geom_bond_atom_site_label_1
_geom_bond_atom_site_label_2
_geom_bond_site_symmetry_1
_geom_bond_site_symmetry_2
Pr1 O1 1_555 1_555
O1 C7 1_555 1_555
O2 Pr1 1_555 1_555
O3 C10 1_555 1_555
O4 C10 1_555 1_555
O5 Pr1 1_555 1_555
O6 C13 1_555 1_555
O7 Pr1 1_555 1_555
H1 O7 1_555 1_555
H2 O7 1_555 1_555
C1 C2 1_555 1_555
C2 H3 1_555 1_555
C3 C2 1_555 1_555
C4 C3 1_555 1_555
H4 C4 1_555 1_555
C5 C4 1_555 1_555
H5 C5 1_555 1_555
C6 C1 1_555 1_555
H6 C6 1_555 1_555
C7 O2 1_555 1_555
C8 C7 1_555 1_555
H7 C8 1_555 1_555
C9 C1 1_555 1_555
H8 C9 1_555 1_555
C10 C11 1_555 1_555
C11 H9 1_555 1_555
C12 C3 1_555 1_555
H10 C12 1_555 1_555
C13 O5 1_555 1_555
H11 C13 1_555 1_555
Pr1_2 O3 1_555 1_555
Pr1A O3 1_555 1_555
Pr1A_2 O2 1_555 1_555
Pr1C O6 1_555 1_555
O2A Pr1 1_555 1_555
O3_2 Pr1 1_555 1_555
O3A Pr1 1_555 1_555
O4_2 Pr1 1_555 1_555
O5A Pr1 1_555 1_555
O6C Pr1 1_555 1_555
O4 Pr1_2 1_555 1_555
O5 Pr1A_2 1_555 1_555
C5 C6 1_555 1_555
C8 C9 1_555 1_555
C11 C12 1_555 1_555
Pr1A_2 O3_2 1_555 1_555

#END
