
#######################################################################
#
#                 Cambridge Crystallographic Data Centre
#                                CCDC 
#
#######################################################################
#
# If this CIF has been generated from an entry in the Cambridge 
# Structural Database, then it will include bibliographic, chemical, 
# crystal, experimental, refinement or atomic coordinate data resulting 
# from the CCDC's data processing and validation procedures.
#
#######################################################################

data_LUBKAW
_symmetry_cell_setting           monoclinic
_symmetry_space_group_name_H-M   'C 2/c'
_symmetry_Int_Tables_number      15
_space_group_name_Hall           '-C 2yn'
loop_
_symmetry_equiv_pos_site_id
_symmetry_equiv_pos_as_xyz
1 x,y,z
2 -x,y,1/2-z
3 1/2+x,1/2+y,z
4 1/2-x,1/2+y,1/2-z
5 -x,-y,-z
6 x,-y,1/2+z
7 1/2-x,1/2-y,-z
8 1/2+x,1/2-y,1/2+z
_cell_length_a                   23.989(6)
_cell_length_b                   15.168(4)
_cell_length_c                   14.285(4)
_cell_angle_alpha                90
_cell_angle_beta                 119.389(4)
_cell_angle_gamma                90
_cell_volume                     4528.9
loop_
_atom_site_label
_atom_site_type_symbol
_atom_site_fract_x
_atom_site_fract_y
_atom_site_fract_z
Cu1 Cu 0.29935(3) 0.27323(4) 0.45487(4)
Cu2 Cu 0.29813(3) 0.06143(4) 0.45833(5)
Cu3 Cu 0.25347(3) 0.41456(4) 0.24542(5)
S1 S 0.58202(8) 0.16925(11) 1.12029(12)
O1 O 0.36195(17) 0.0918(2) 0.6068(3)
O2 O 0.36802(15) 0.2393(2) 0.6007(2)
O3 O 0.34770(17) 0.3306(2) 0.7689(3)
O4 O 0.43505(18) 0.3973(2) 0.7852(3)
O5 O 0.6362(3) 0.1265(6) 1.1256(4)
O6 O 0.5553(3) 0.1233(4) 1.1756(4)
O7 O 0.5926(3) 0.2602(4) 1.1539(4)
O8 O 0.25233(15) 0.1676(2) 0.4436(3)
H1 H 0.2215 0.1663 0.3795
O9 O 0.24185(17) 0.3145(2) 0.3140(3)
H2 H 0.2088 0.2865 0.2689
O10 O 0.23374(18) 0.0136(2) 0.3251(3)
H3 H 0.2081 0.0545 0.2883
O11 O 0.1992(2) 0.5118(3) 0.3048(4)
H4 H 0.1776 0.4730 0.3161
H5 H 0.1744 0.5486 0.2581
N1 N 0.3406(2) -0.0569(3) 0.4836(3)
N2 N 0.3195(2) -0.1168(3) 0.4014(3)
N3 N 0.3911(2) -0.1795(3) 0.5471(4)
N4 N 0.4326(3) -0.2458(3) 0.6170(4)
H6 H 0.4724 -0.2229 0.6493
H7 H 0.4186 -0.2583 0.6636
N5 N 0.3516(2) 0.3787(3) 0.4700(3)
N6 N 0.3346(2) 0.4343(3) 0.3847(3)
N7 N 0.4213(2) 0.4842(3) 0.5205(4)
N8 N 0.4730(2) 0.5407(3) 0.5790(4)
H8 H 0.5045 0.5009 0.6128
H9 H 0.4601 0.5652 0.6226
C1 C 0.3507(3) -0.1901(4) 0.4421(5)
H10 H 0.3456 -0.2418 0.4038
C2 C 0.3836(3) -0.0963(4) 0.5707(4)
H11 H 0.4056 -0.0707 0.6384
C3 C 0.3779(3) 0.4966(4) 0.4178(5)
H12 H 0.3783 0.5430 0.3756
C4 C 0.4043(3) 0.4103(3) 0.5517(4)
H13 H 0.4262 0.3854 0.6199
C5 C 0.4282(2) 0.1682(3) 0.7682(4)
C6 C 0.4421(2) 0.2464(3) 0.8289(4)
C7 C 0.4893(3) 0.2457(4) 0.9353(4)
H14 H 0.4992 0.2974 0.9754
C8 C 0.5216(3) 0.1695(4) 0.9826(4)
C9 C 0.5075(3) 0.0913(4) 0.9244(4)
H15 H 0.5290 0.0396 0.9573
C10 C 0.4613(3) 0.0915(4) 0.8176(4)
H16 H 0.4522 0.0397 0.7780
C11 C 0.3818(2) 0.1671(3) 0.6487(4)
C12 C 0.4055(3) 0.3315(3) 0.7887(4)
Cu1F Cu 0.20065(3) 0.22677(4) 0.54513(4)
Cu2A Cu 0.70187(3) 0.06143(4) 1.04167(5)
Cu3C Cu 0.24653(3) -0.08544(4) 0.25458(5)
O5A O 0.3638(3) 0.1265(6) 0.3744(4)
O8F O 0.24767(15) 0.3324(2) 0.5564(3)
O10C O 0.26626(18) 0.5136(2) 0.1749(3)
N2C N 0.1805(2) 0.3832(3) 0.0986(3)
O12 O 0.2201(7) 0.1409(9) 0.0451(11)
O13 O 0.3986(5) 0.5784(7) 0.6981(8)
O14 O 0.6928(6) 0.2865(11) 0.3493(10)
loop_
_geom_bond_atom_site_label_1
_geom_bond_atom_site_label_2
_geom_bond_site_symmetry_1
_geom_bond_site_symmetry_2
Cu1 O2 1_555 1_555
Cu2 O1 1_555 1_555
Cu3 O9 1_555 1_555
S1 O5 1_555 1_555
O1 C11 1_555 1_555
O2 C11 1_555 1_555
O3 C12 1_555 1_555
O4 C12 1_555 1_555
O5 Cu2A 1_555 1_555
O6 S1 1_555 1_555
O7 S1 1_555 1_555
O8 Cu1 1_555 1_555
H1 O8 1_555 1_555
O9 Cu1 1_555 1_555
H2 O9 1_555 1_555
O10 Cu2 1_555 1_555
H3 O10 1_555 1_555
O11 Cu3 1_555 1_555
H4 O11 1_555 1_555
H5 O11 1_555 1_555
N1 Cu2 1_555 1_555
N2 N1 1_555 1_555
N3 N4 1_555 1_555
N4 H6 1_555 1_555
H7 N4 1_555 1_555
N5 Cu1 1_555 1_555
N6 Cu3 1_555 1_555
N7 N8 1_555 1_555
N8 H8 1_555 1_555
H9 N8 1_555 1_555
C1 N2 1_555 1_555
H10 C1 1_555 1_555
C2 N1 1_555 1_555
H11 C2 1_555 1_555
C3 N6 1_555 1_555
H12 C3 1_555 1_555
C4 N5 1_555 1_555
H13 C4 1_555 1_555
C5 C6 1_555 1_555
C6 C7 1_555 1_555
C7 H14 1_555 1_555
C8 S1 1_555 1_555
C9 C8 1_555 1_555
H15 C9 1_555 1_555
C10 C5 1_555 1_555
H16 C10 1_555 1_555
C11 C5 1_555 1_555
C12 C6 1_555 1_555
Cu1F O8 1_555 1_555
Cu3C O10 1_555 1_555
O5A Cu2 1_555 1_555
O8F Cu1 1_555 1_555
O10C Cu3 1_555 1_555
N2C Cu3 1_555 1_555
Cu2 O8 1_555 1_555
N2 Cu3C 1_555 1_555
N3 C1 1_555 1_555
N3 C2 1_555 1_555
N5 N6 1_555 1_555
N7 C3 1_555 1_555
N7 C4 1_555 1_555
C7 C8 1_555 1_555
C9 C10 1_555 1_555
Cu1F O8F 1_555 1_555

#END
