
#######################################################################
#
#                 Cambridge Crystallographic Data Centre
#                                CCDC 
#
#######################################################################
#
# If this CIF has been generated from an entry in the Cambridge 
# Structural Database, then it will include bibliographic, chemical, 
# crystal, experimental, refinement or atomic coordinate data resulting 
# from the CCDC's data processing and validation procedures.
#
#######################################################################

data_LUBKOI
_symmetry_cell_setting           monoclinic
_symmetry_space_group_name_H-M   'C 2/c'
_symmetry_Int_Tables_number      15
_space_group_name_Hall           '-C 2yn'
loop_
_symmetry_equiv_pos_site_id
_symmetry_equiv_pos_as_xyz
1 x,y,z
2 x,-y,1/2+z
3 1/2+x,1/2+y,z
4 1/2+x,1/2-y,1/2+z
5 -x,-y,-z
6 -x,y,1/2-z
7 1/2-x,1/2-y,-z
8 1/2-x,1/2+y,1/2-z
_cell_length_a                   15.13(5)
_cell_length_b                   27.83(14)
_cell_length_c                   15.620(6)
_cell_angle_alpha                90
_cell_angle_beta                 105.90(3)
_cell_angle_gamma                90
_cell_volume                     6325.45
loop_
_atom_site_label
_atom_site_type_symbol
_atom_site_fract_x
_atom_site_fract_y
_atom_site_fract_z
Zn1 Zn 0.2500 0.2500 0.0000
O1 O 0.5769(4) -0.03564(15) 0.1393(4)
O2 O 0.6102(3) 0.04072(17) 0.1486(3)
O3 O 0.2489(5) -0.07908(12) 0.1087(4)
O4 O 0.1438(4) -0.02359(16) 0.0633(5)
O5 O 0.79751(18) 0.33011(12) -0.05010(16)
O6 O 0.88187(15) 0.32193(10) 0.08983(16)
O7 O 0.40298(16) 0.27592(11) -0.01565(15)
O8 O 0.46593(19) 0.30945(16) -0.11183(17)
N1 N 0.31697(15) 0.21319(7) 0.11301(13)
N2 N 0.25727(16) 0.31077(8) 0.07306(14)
C1 C 0.33918(18) 0.22997(9) 0.19871(17)
C2 C 0.32690(18) 0.27744(9) 0.22294(16)
C3 C 0.29154(19) 0.31481(9) 0.16440(16)
C4 C 0.2851(2) 0.36420(10) 0.1896(2)
H1 H 0.3029 0.3765 0.2471
C5 C 0.2486(3) 0.38912(10) 0.1146(2)
H2 H 0.2374 0.4220 0.1105
C6 C 0.2301(2) 0.35577(9) 0.04193(19)
C7 C 0.3730(2) 0.19118(9) 0.25985(17)
H3 H 0.3924 0.1933 0.3216
C8 C 0.3714(2) 0.15141(10) 0.21124(18)
H4 H 0.3903 0.1209 0.2329
C9 C 0.33460(19) 0.16480(9) 0.11837(17)
C10 C 0.3127(2) 0.13262(9) 0.04784(18)
C11 C 0.3391(3) 0.08119(10) 0.06953(19)
C12 C 0.2722(3) 0.04722(12) 0.0664(3)
H5 H 0.2105 0.0559 0.0493
C13 C 0.2977(4) -0.00090(13) 0.0891(3)
C14 C 0.3876(4) -0.01284(14) 0.1112(3)
H6 H 0.4038 -0.0447 0.1253
C15 C 0.4570(4) 0.02026(14) 0.1139(3)
C16 C 0.4303(3) 0.06818(12) 0.0921(2)
H7 H 0.4748 0.0913 0.0931
C17 C 0.5525(5) 0.0056(2) 0.1348(4)
C18 C 0.7069(6) 0.0277(4) 0.1628(10)
H8 H 0.7120 0.0087 0.1123
H9 H 0.7248 0.0072 0.2150
C19 C 0.7563(8) 0.0573(5) 0.1718(14)
H10 H 0.8171 0.0446 0.1803
H11 H 0.7410 0.0775 0.1199
H12 H 0.7542 0.0759 0.2230
C20 C 0.2267(6) -0.03817(18) 0.0856(5)
C21 C 0.0724(10) -0.0616(3) 0.0413(14)
H13 H 0.0995 -0.0934 0.0456
H14 H 0.0311 -0.0572 -0.0178
C22 C 0.0292(10) -0.0544(5) 0.1050(15)
H15 H -0.0207 -0.0768 0.0973
H16 H 0.0718 -0.0590 0.1625
H17 H 0.0056 -0.0222 0.1006
C23 C 0.34147(19) 0.28780(10) 0.32068(17)
C24 C 0.57202(19) 0.28553(10) 0.11898(17)
H18 H 0.5208 0.2781 0.1384
C25 C 0.5626(2) 0.29442(11) 0.02949(18)
C26 C 0.6390(2) 0.30589(12) 0.00036(19)
H19 H 0.6323 0.3119 -0.0597
C27 C 0.7242(2) 0.30833(10) 0.06006(18)
C28 C 0.26742(19) 0.29918(10) 0.35077(18)
H20 H 0.2096 0.3008 0.3102
C29 C 0.4685(2) 0.29158(14) -0.0331(2)
C30 C 0.3750(3) 0.3101(3) -0.1783(3)
H21 H 0.3329 0.3292 -0.1554
H22 H 0.3512 0.2776 -0.1873
C31 C 0.3783(4) 0.3270(5) -0.2512(4)
H23 H 0.3179 0.3266 -0.2919
H24 H 0.4005 0.3595 -0.2430
H25 H 0.4191 0.3080 -0.2748
C32 C 0.8035(2) 0.32129(12) 0.0260(2)
C33 C 0.9636(2) 0.33593(18) 0.0652(3)
H26 H 0.9567 0.3683 0.0414
H27 H 0.9736 0.3144 0.0199
C34 C 1.0396(3) 0.3337(3) 0.1431(4)
H28 H 1.0947 0.3431 0.1284
H29 H 1.0290 0.3551 0.1875
H30 H 1.0462 0.3015 0.1658
O7F O 0.09702(16) 0.22408(11) 0.01565(15)
N1F N 0.18303(15) 0.28681(7) -0.11301(13)
N2F N 0.24273(16) 0.18923(8) -0.07306(14)
Zn1C Zn -0.2500 0.2500 -0.5000
C1F C 0.16082(18) 0.27003(9) -0.19871(17)
C9F C 0.16540(19) 0.33520(9) -0.11837(17)
C3F C 0.20846(19) 0.18519(9) -0.16440(16)
C6F C 0.2699(2) 0.14423(9) -0.04193(19)
C2F C 0.17310(18) 0.22256(9) -0.22294(16)
C7F C 0.1270(2) 0.30882(9) -0.25985(17)
C8F C 0.1286(2) 0.34859(10) -0.21124(18)
C10F C 0.1873(2) 0.36738(9) -0.04784(18)
C4F C 0.2149(2) 0.13580(10) -0.1896(2)
C5F C 0.2514(3) 0.11088(10) -0.1146(2)
C23F C 0.15853(19) 0.21220(10) -0.32068(17)
H3F H 0.1076 0.3067 -0.3216
H4F H 0.1097 0.3791 -0.2329
C11F C 0.1609(3) 0.41881(10) -0.06953(19)
H1F H 0.1971 0.1235 -0.2471
H2F H 0.2626 0.0780 -0.1105
C23E C 0.65853(19) 0.28780(10) 0.17932(17)
C24E C 0.42798(19) 0.28553(10) 0.38102(17)
C24C C 0.07202(19) 0.21447(10) -0.38102(17)
C28F C 0.23258(19) 0.20082(10) -0.35077(18)
C12F C 0.2278(3) 0.45278(12) -0.0664(3)
C16F C 0.0697(3) 0.43182(12) -0.0921(2)
C2E C 0.67310(18) 0.27744(9) 0.27706(16)
C28E C 0.73258(19) 0.29918(10) 0.14923(18)
H18E H 0.4792 0.2781 0.3616
C25E C 0.4374(2) 0.29442(11) 0.47051(18)
C27E C 0.2758(2) 0.30833(10) 0.43994(18)
H18C H 0.0208 0.2219 -0.3616
C25C C 0.0626(2) 0.20558(11) -0.47051(18)
C27C C 0.2242(2) 0.19167(10) -0.43994(18)
H20F H 0.2904 0.1992 -0.3102
H5F H 0.2895 0.4441 -0.0493
C13F C 0.2023(4) 0.50090(13) -0.0891(3)
C15F C 0.0430(4) 0.47974(14) -0.1139(3)
H7F H 0.0252 0.4087 -0.0931
C1E C 0.66082(18) 0.22997(9) 0.30129(17)
C3E C 0.70846(19) 0.31481(9) 0.33560(16)
H20E H 0.7904 0.3008 0.1898
C26E C 0.3610(2) 0.30589(12) 0.49964(19)
C29E C 0.5315(2) 0.29158(14) 0.5331(2)
C32E C 0.1965(2) 0.32129(12) 0.4740(2)
C26C C 0.1390(2) 0.19411(12) -0.49964(19)
C29C C -0.0315(2) 0.20842(14) -0.5331(2)
C32C C 0.3035(2) 0.17871(12) -0.4740(2)
C14F C 0.1124(4) 0.51284(14) -0.1112(3)
C20F C 0.2733(6) 0.53817(18) -0.0856(5)
C17F C -0.0525(5) 0.4944(2) -0.1348(4)
N1E N 0.68303(15) 0.21319(7) 0.38699(13)
C7E C 0.6270(2) 0.19118(9) 0.24015(17)
N2E N 0.74273(16) 0.31077(8) 0.42694(14)
C4E C 0.7149(2) 0.36420(10) 0.3104(2)
H19E H 0.3677 0.3119 0.5597
O7E O 0.59702(16) 0.27592(11) 0.51565(15)
O8E O 0.53407(19) 0.30945(16) 0.61183(17)
O5E O 0.20249(18) 0.33011(12) 0.55010(16)
O6E O 0.11813(15) 0.32193(10) 0.41017(16)
H19C H 0.1323 0.1881 -0.5597
O7C O -0.09702(16) 0.22408(11) -0.51565(15)
O8C O -0.03407(19) 0.19055(16) -0.61183(17)
O5C O 0.29751(18) 0.16989(12) -0.55010(16)
O6C O 0.38187(15) 0.17807(10) -0.41017(16)
H6F H 0.0962 0.5447 -0.1253
O3F O 0.2511(5) 0.57908(12) -0.1087(4)
O4F O 0.3562(4) 0.52359(16) -0.0633(5)
O1F O -0.0769(4) 0.53564(15) -0.1393(4)
O2F O -0.1102(3) 0.45928(17) -0.1486(3)
Zn1C_2 Zn 0.7500 0.2500 0.5000
C9E C 0.66540(19) 0.16480(9) 0.38163(17)
H3E H 0.6076 0.1933 0.1784
C8E C 0.6286(2) 0.15141(10) 0.28876(18)
C6E C 0.7699(2) 0.35577(9) 0.45807(19)
H1E H 0.6971 0.3765 0.2529
C5E C 0.7514(3) 0.38912(10) 0.3854(2)
C30E C 0.6250(3) 0.3101(3) 0.6783(3)
C33E C 0.0364(2) 0.33593(18) 0.4348(3)
C30C C -0.1250(3) 0.1899(3) -0.6783(3)
C33C C 0.4636(2) 0.16407(18) -0.4348(3)
C21F C 0.4276(10) 0.5616(3) -0.0413(14)
C18F C -0.2069(6) 0.4723(4) -0.1628(10)
C10E C 0.6873(2) 0.13262(9) 0.45216(18)
H4E H 0.6097 0.1209 0.2671
C10C C 0.8127(2) 0.36738(9) 0.54784(18)
H2E H 0.7626 0.4220 0.3895
H21E H 0.6671 0.3292 0.6554
H22E H 0.6488 0.2776 0.6873
C31E C 0.6217(4) 0.3270(5) 0.7512(4)
H26E H 0.0433 0.3683 0.4586
H27E H 0.0264 0.3144 0.4801
C34E C -0.0396(3) 0.3337(3) 0.3569(4)
H21C H -0.1671 0.1708 -0.6554
H22C H -0.1488 0.2224 -0.6873
C31C C -0.1217(4) 0.1730(5) -0.7512(4)
H26C H 0.4567 0.1317 -0.4586
H27C H 0.4736 0.1856 -0.4801
C34C C 0.5396(3) 0.1663(3) -0.3569(4)
H13F H 0.4005 0.5934 -0.0456
H14F H 0.4689 0.5572 0.0178
C22F C 0.4708(10) 0.5544(5) -0.1050(15)
H8F H -0.2120 0.4913 -0.1123
H9F H -0.2248 0.4928 -0.2150
C19F C -0.2563(8) 0.4427(5) -0.1718(14)
C6C C 0.7301(2) 0.14423(9) 0.54193(19)
C11E C 0.6609(3) 0.08119(10) 0.43047(19)
C9C C 0.83460(19) 0.33520(9) 0.61837(17)
C11C C 0.8391(3) 0.41881(10) 0.56953(19)
H23E H 0.6821 0.3266 0.7919
H24E H 0.5995 0.3595 0.7430
H25E H 0.5809 0.3080 0.7748
H28E H -0.0947 0.3431 0.3716
H29E H -0.0290 0.3551 0.3125
H30E H -0.0462 0.3015 0.3342
H23C H -0.1821 0.1734 -0.7919
H24C H -0.0995 0.1405 -0.7430
H25C H -0.0809 0.1920 -0.7748
H28C H 0.5947 0.1569 -0.3716
H29C H 0.5290 0.1449 -0.3125
H30C H 0.5462 0.1985 -0.3342
H15F H 0.5207 0.5768 -0.0973
H16F H 0.4282 0.5590 -0.1625
H17F H 0.4944 0.5222 -0.1006
H10F H -0.3171 0.4554 -0.1803
H11F H -0.2410 0.4225 -0.1199
H12F H -0.2542 0.4241 -0.2230
N2C N 0.75727(16) 0.18923(8) 0.57306(14)
C5C C 0.7486(3) 0.11088(10) 0.6146(2)
C12E C 0.7278(3) 0.04722(12) 0.4336(3)
C16E C 0.5697(3) 0.06818(12) 0.4079(2)
N1C N 0.81697(15) 0.28681(7) 0.61301(13)
C8C C 0.8714(2) 0.34859(10) 0.71124(18)
C12C C 0.7722(3) 0.45278(12) 0.5664(3)
C16C C 0.9303(3) 0.43182(12) 0.5921(2)
C3C C 0.79154(19) 0.18519(9) 0.66440(16)
C4C C 0.7851(2) 0.13580(10) 0.6896(2)
H2C H 0.7374 0.0780 0.6105
H5E H 0.7895 0.0559 0.4507
C13E C 0.7023(4) -0.00090(13) 0.4109(3)
C15E C 0.5430(4) 0.02026(14) 0.3861(3)
H7E H 0.5252 0.0913 0.4069
C1C C 0.83918(18) 0.27003(9) 0.69871(17)
C7C C 0.8730(2) 0.30882(9) 0.75985(17)
H4C H 0.8903 0.3791 0.7329
H5C H 0.7105 0.4441 0.5493
C13C C 0.7977(4) 0.50090(13) 0.5891(3)
C15C C 0.9570(4) 0.47974(14) 0.6139(3)
H7C H 0.9748 0.4087 0.5931
C2C C 0.82690(18) 0.22256(9) 0.72294(16)
H1C H 0.8029 0.1235 0.7471
C14E C 0.6124(4) -0.01284(14) 0.3888(3)
C20E C 0.7733(6) -0.03817(18) 0.4144(5)
C17E C 0.4475(5) 0.0056(2) 0.3652(4)
H3C H 0.8924 0.3067 0.8216
C14C C 0.8876(4) 0.51284(14) 0.6112(3)
C20C C 0.7267(6) 0.53817(18) 0.5856(5)
C17C C 1.0525(5) 0.4944(2) 0.6348(4)
C23C C 0.84147(19) 0.21220(10) 0.82068(17)
H6E H 0.5962 -0.0447 0.3747
O3E O 0.7511(5) -0.07908(12) 0.3913(4)
O4E O 0.8562(4) -0.02359(16) 0.4367(5)
O1E O 0.4231(4) -0.03564(15) 0.3607(4)
O2E O 0.3898(3) 0.04072(17) 0.3514(3)
H6C H 0.9038 0.5447 0.6253
O3C O 0.7489(5) 0.57908(12) 0.6087(4)
O4C O 0.6438(4) 0.52359(16) 0.5633(5)
O1C O 1.0769(4) 0.53564(15) 0.6393(4)
O2C O 1.1102(3) 0.45928(17) 0.6486(3)
C24F C 0.92798(19) 0.21447(10) 0.88102(17)
C28C C 0.76742(19) 0.20082(10) 0.85077(18)
C21E C 0.9276(10) -0.0616(3) 0.4587(14)
C18E C 0.2931(6) 0.0277(4) 0.3372(10)
C21C C 0.5724(10) 0.5616(3) 0.5413(14)
C18C C 1.2069(6) 0.4723(4) 0.6628(10)
H18F H 0.9792 0.2219 0.8616
C25F C 0.9374(2) 0.20558(11) 0.97051(18)
C27F C 0.7758(2) 0.19167(10) 0.93994(18)
H20C H 0.7096 0.1992 0.8102
H13E H 0.9005 -0.0934 0.4544
H14E H 0.9689 -0.0572 0.5178
C22E C 0.9708(10) -0.0544(5) 0.3950(15)
H8E H 0.2880 0.0087 0.3877
H9E H 0.2752 0.0072 0.2850
C19E C 0.2437(8) 0.0573(5) 0.3282(14)
H13C H 0.5995 0.5934 0.5456
H14C H 0.5311 0.5572 0.4822
C22C C 0.5292(10) 0.5544(5) 0.6050(15)
H8C H 1.2120 0.4913 0.6123
H9C H 1.2248 0.4928 0.7150
C19C C 1.2563(8) 0.4427(5) 0.6718(14)
C26F C 0.8610(2) 0.19411(12) 0.99964(19)
C29F C 1.0315(2) 0.20842(14) 1.0331(2)
C32F C 0.6965(2) 0.17871(12) 0.9740(2)
H15E H 1.0207 -0.0768 0.4027
H16E H 0.9282 -0.0590 0.3375
H17E H 0.9944 -0.0222 0.3994
H10E H 0.1829 0.0446 0.3197
H11E H 0.2590 0.0775 0.3801
H12E H 0.2458 0.0759 0.2770
H15C H 0.4793 0.5768 0.5973
H16C H 0.5718 0.5590 0.6625
H17C H 0.5056 0.5222 0.6006
H10C H 1.3171 0.4554 0.6803
H11C H 1.2410 0.4225 0.6199
H12C H 1.2542 0.4241 0.7230
H19F H 0.8677 0.1881 1.0597
O7F_2 O 1.09702(16) 0.22408(11) 1.01565(15)
O8F O 1.03407(19) 0.19055(16) 1.11183(17)
O5F O 0.70249(18) 0.16989(12) 1.05010(16)
O6F O 0.61813(15) 0.17807(10) 0.91017(16)
Zn1_2 Zn 1.2500 0.2500 1.0000
C30F C 1.1250(3) 0.1899(3) 1.1783(3)
C33F C 0.5364(2) 0.16407(18) 0.9348(3)
H21F H 1.1671 0.1708 1.1554
H22F H 1.1488 0.2224 1.1873
C31F C 1.1217(4) 0.1730(5) 1.2512(4)
H26F H 0.5433 0.1317 0.9586
H27F H 0.5264 0.1856 0.9801
C34F C 0.4604(3) 0.1663(3) 0.8569(4)
H23F H 1.1821 0.1734 1.2919
H24F H 1.0995 0.1405 1.2430
H25F H 1.0809 0.1920 1.2748
H28F H 0.4053 0.1569 0.8716
H29F H 0.4710 0.1449 0.8125
H30F H 0.4538 0.1985 0.8342
O7C_2 O 0.90298(16) 0.22408(11) 0.48435(15)
loop_
_geom_bond_atom_site_label_1
_geom_bond_atom_site_label_2
_geom_bond_site_symmetry_1
_geom_bond_site_symmetry_2
Zn1 O7 1_555 1_555
O1 C17 1_555 1_555
O2 C17 1_555 1_555
O3 C20 1_555 1_555
O4 C20 1_555 1_555
O5 C32 1_555 1_555
O6 C32 1_555 1_555
O7 C29 1_555 1_555
O8 C29 1_555 1_555
N1 Zn1 1_555 1_555
N2 Zn1 1_555 1_555
C1 N1 1_555 1_555
C2 C1 1_555 1_555
C3 N2 1_555 1_555
C4 C3 1_555 1_555
H1 C4 1_555 1_555
C5 C4 1_555 1_555
H2 C5 1_555 1_555
C6 N2 1_555 1_555
C7 C1 1_555 1_555
H3 C7 1_555 1_555
C8 C7 1_555 1_555
H4 C8 1_555 1_555
C9 N1 1_555 1_555
C10 C9 1_555 1_555
C11 C10 1_555 1_555
C12 C11 1_555 1_555
H5 C12 1_555 1_555
C13 C12 1_555 1_555
C14 C13 1_555 1_555
H6 C14 1_555 1_555
C15 C14 1_555 1_555
C16 C11 1_555 1_555
H7 C16 1_555 1_555
C17 C15 1_555 1_555
C18 O2 1_555 1_555
H8 C18 1_555 1_555
H9 C18 1_555 1_555
C19 C18 1_555 1_555
H10 C19 1_555 1_555
H11 C19 1_555 1_555
H12 C19 1_555 1_555
C20 C13 1_555 1_555
C21 O4 1_555 1_555
H13 C21 1_555 1_555
H14 C21 1_555 1_555
C22 C21 1_555 1_555
H15 C22 1_555 1_555
H16 C22 1_555 1_555
H17 C22 1_555 1_555
C23 C2 1_555 1_555
C24 H18 1_555 1_555
C25 C24 1_555 1_555
C26 C25 1_555 1_555
H19 C26 1_555 1_555
C27 C26 1_555 1_555
C28 C23 1_555 1_555
H20 C28 1_555 1_555
C29 C25 1_555 1_555
C30 O8 1_555 1_555
H21 C30 1_555 1_555
H22 C30 1_555 1_555
C31 C30 1_555 1_555
H23 C31 1_555 1_555
H24 C31 1_555 1_555
H25 C31 1_555 1_555
C32 C27 1_555 1_555
C33 O6 1_555 1_555
H26 C33 1_555 1_555
H27 C33 1_555 1_555
C34 C33 1_555 1_555
H28 C34 1_555 1_555
H29 C34 1_555 1_555
H30 C34 1_555 1_555
O7F Zn1 1_555 1_555
N1F Zn1 1_555 1_555
N2F Zn1 1_555 1_555
Zn1C O7C 1_555 1_555
C1F N1F 1_555 1_555
C9F N1F 1_555 1_555
C3F N2F 1_555 1_555
C6F C10 1_555 1_555
C2F C1F 1_555 1_555
C7F C1F 1_555 1_555
C8F C9F 1_555 1_555
C10F C6 1_555 1_555
C4F C3F 1_555 1_555
C5F C6F 1_555 1_555
C23F C2F 1_555 1_555
H3F C7F 1_555 1_555
H4F C8F 1_555 1_555
C11F C10F 1_555 1_555
H1F C4F 1_555 1_555
H2F C5F 1_555 1_555
C23E C24 1_555 1_555
C24E C23 1_555 1_555
C24C C23F 1_555 1_555
C28F C23F 1_555 1_555
C12F C11F 1_555 1_555
C16F C11F 1_555 1_555
C2E C23E 1_555 1_555
C28E C27 1_555 1_555
H18E C24E 1_555 1_555
C25E C24E 1_555 1_555
C27E C28 1_555 1_555
H18C C24C 1_555 1_555
C25C C24C 1_555 1_555
C27C C28F 1_555 1_555
H20F C28F 1_555 1_555
H5F C12F 1_555 1_555
C13F C12F 1_555 1_555
C15F C16F 1_555 1_555
H7F C16F 1_555 1_555
C1E C2E 1_555 1_555
C3E C2E 1_555 1_555
H20E C28E 1_555 1_555
C26E C25E 1_555 1_555
C29E C25E 1_555 1_555
C32E C27E 1_555 1_555
C26C C25C 1_555 1_555
C29C C25C 1_555 1_555
C32C C27C 1_555 1_555
C14F C13F 1_555 1_555
C20F C13F 1_555 1_555
C17F C15F 1_555 1_555
N1E C1E 1_555 1_555
C7E C1E 1_555 1_555
N2E C3E 1_555 1_555
C4E C3E 1_555 1_555
H19E C26E 1_555 1_555
O7E C29E 1_555 1_555
O8E C29E 1_555 1_555
O5E C32E 1_555 1_555
O6E C32E 1_555 1_555
H19C C26C 1_555 1_555
O7C C29C 1_555 1_555
O8C C29C 1_555 1_555
O5C C32C 1_555 1_555
O6C C32C 1_555 1_555
H6F C14F 1_555 1_555
O3F C20F 1_555 1_555
O4F C20F 1_555 1_555
O1F C17F 1_555 1_555
O2F C17F 1_555 1_555
Zn1C_2 N1E 1_555 1_555
C9E N1E 1_555 1_555
H3E C7E 1_555 1_555
C8E C7E 1_555 1_555
C6E N2E 1_555 1_555
H1E C4E 1_555 1_555
C5E C4E 1_555 1_555
C30E O8E 1_555 1_555
C33E O6E 1_555 1_555
C30C O8C 1_555 1_555
C33C O6C 1_555 1_555
C21F O4F 1_555 1_555
C18F O2F 1_555 1_555
C10E C9E 1_555 1_555
H4E C8E 1_555 1_555
C10C C6E 1_555 1_555
H2E C5E 1_555 1_555
H21E C30E 1_555 1_555
H22E C30E 1_555 1_555
C31E C30E 1_555 1_555
H26E C33E 1_555 1_555
H27E C33E 1_555 1_555
C34E C33E 1_555 1_555
H21C C30C 1_555 1_555
H22C C30C 1_555 1_555
C31C C30C 1_555 1_555
H26C C33C 1_555 1_555
H27C C33C 1_555 1_555
C34C C33C 1_555 1_555
H13F C21F 1_555 1_555
H14F C21F 1_555 1_555
C22F C21F 1_555 1_555
H8F C18F 1_555 1_555
H9F C18F 1_555 1_555
C19F C18F 1_555 1_555
C6C C10E 1_555 1_555
C11E C10E 1_555 1_555
C9C C10C 1_555 1_555
C11C C10C 1_555 1_555
H23E C31E 1_555 1_555
H24E C31E 1_555 1_555
H25E C31E 1_555 1_555
H28E C34E 1_555 1_555
H29E C34E 1_555 1_555
H30E C34E 1_555 1_555
H23C C31C 1_555 1_555
H24C C31C 1_555 1_555
H25C C31C 1_555 1_555
H28C C34C 1_555 1_555
H29C C34C 1_555 1_555
H30C C34C 1_555 1_555
H15F C22F 1_555 1_555
H16F C22F 1_555 1_555
H17F C22F 1_555 1_555
H10F C19F 1_555 1_555
H11F C19F 1_555 1_555
H12F C19F 1_555 1_555
N2C Zn1C_2 1_555 1_555
C5C C6C 1_555 1_555
C12E C11E 1_555 1_555
C16E C11E 1_555 1_555
N1C Zn1C_2 1_555 1_555
C8C C9C 1_555 1_555
C12C C11C 1_555 1_555
C16C C11C 1_555 1_555
C3C N2C 1_555 1_555
C4C C5C 1_555 1_555
H2C C5C 1_555 1_555
H5E C12E 1_555 1_555
C13E C12E 1_555 1_555
C15E C16E 1_555 1_555
H7E C16E 1_555 1_555
C1C N1C 1_555 1_555
C7C C8C 1_555 1_555
H4C C8C 1_555 1_555
H5C C12C 1_555 1_555
C13C C12C 1_555 1_555
C15C C16C 1_555 1_555
H7C C16C 1_555 1_555
C2C C3C 1_555 1_555
H1C C4C 1_555 1_555
C14E C13E 1_555 1_555
C20E C13E 1_555 1_555
C17E C15E 1_555 1_555
H3C C7C 1_555 1_555
C14C C13C 1_555 1_555
C20C C13C 1_555 1_555
C17C C15C 1_555 1_555
C23C C2C 1_555 1_555
H6E C14E 1_555 1_555
O3E C20E 1_555 1_555
O4E C20E 1_555 1_555
O1E C17E 1_555 1_555
O2E C17E 1_555 1_555
H6C C14C 1_555 1_555
O3C C20C 1_555 1_555
O4C C20C 1_555 1_555
O1C C17C 1_555 1_555
O2C C17C 1_555 1_555
C24F C23C 1_555 1_555
C28C C23C 1_555 1_555
C21E O4E 1_555 1_555
C18E O2E 1_555 1_555
C21C O4C 1_555 1_555
C18C O2C 1_555 1_555
H18F C24F 1_555 1_555
C25F C24F 1_555 1_555
C27F C28C 1_555 1_555
H20C C28C 1_555 1_555
H13E C21E 1_555 1_555
H14E C21E 1_555 1_555
C22E C21E 1_555 1_555
H8E C18E 1_555 1_555
H9E C18E 1_555 1_555
C19E C18E 1_555 1_555
H13C C21C 1_555 1_555
H14C C21C 1_555 1_555
C22C C21C 1_555 1_555
H8C C18C 1_555 1_555
H9C C18C 1_555 1_555
C19C C18C 1_555 1_555
C26F C25F 1_555 1_555
C29F C25F 1_555 1_555
C32F C27F 1_555 1_555
H15E C22E 1_555 1_555
H16E C22E 1_555 1_555
H17E C22E 1_555 1_555
H10E C19E 1_555 1_555
H11E C19E 1_555 1_555
H12E C19E 1_555 1_555
H15C C22C 1_555 1_555
H16C C22C 1_555 1_555
H17C C22C 1_555 1_555
H10C C19C 1_555 1_555
H11C C19C 1_555 1_555
H12C C19C 1_555 1_555
H19F C26F 1_555 1_555
O7F_2 C29F 1_555 1_555
O8F C29F 1_555 1_555
O5F C32F 1_555 1_555
O6F C32F 1_555 1_555
Zn1_2 O7F_2 1_555 1_555
C30F O8F 1_555 1_555
C33F O6F 1_555 1_555
H21F C30F 1_555 1_555
H22F C30F 1_555 1_555
C31F C30F 1_555 1_555
H26F C33F 1_555 1_555
H27F C33F 1_555 1_555
C34F C33F 1_555 1_555
H23F C31F 1_555 1_555
H24F C31F 1_555 1_555
H25F C31F 1_555 1_555
H28F C34F 1_555 1_555
H29F C34F 1_555 1_555
H30F C34F 1_555 1_555
O7C_2 Zn1C_2 1_555 1_555
C2 C3 1_555 1_555
C5 C6 1_555 1_555
C8 C9 1_555 1_555
C15 C16 1_555 1_555
N2F C6F 1_555 1_555
C9F C10F 1_555 1_555
C3F C2F 1_555 1_555
C7F C8F 1_555 1_555
C4F C5F 1_555 1_555
C23E C28E 1_555 1_555
C27E C26E 1_555 1_555
C27C C26C 1_555 1_555
C15F C14F 1_555 1_555
N2E Zn1C_2 1_555 1_555
O7E Zn1C_2 1_555 1_555
C9E C8E 1_555 1_555
C6E C5E 1_555 1_555
C6C N2C 1_555 1_555
C9C N1C 1_555 1_555
C3C C4C 1_555 1_555
C15E C14E 1_555 1_555
C1C C2C 1_555 1_555
C1C C7C 1_555 1_555
C15C C14C 1_555 1_555
C27F C26F 1_555 1_555

#END
