
#######################################################################
#
#                 Cambridge Crystallographic Data Centre
#                                CCDC 
#
#######################################################################
#
# If this CIF has been generated from an entry in the Cambridge 
# Structural Database, then it will include bibliographic, chemical, 
# crystal, experimental, refinement or atomic coordinate data resulting 
# from the CCDC's data processing and validation procedures.
#
#######################################################################

data_LUBLAV
_symmetry_cell_setting           monoclinic
_symmetry_space_group_name_H-M   'P 21/n'
_symmetry_Int_Tables_number      14
_space_group_name_Hall           '-P 2yn'
loop_
_symmetry_equiv_pos_site_id
_symmetry_equiv_pos_as_xyz
1 x,y,z
2 1/2+x,1/2-y,1/2+z
3 -x,-y,-z
4 1/2-x,1/2+y,1/2-z
_cell_length_a                   19.98(2)
_cell_length_b                   8.193(12)
_cell_length_c                   11.837(15)
_cell_angle_alpha                90
_cell_angle_beta                 110.199(10)
_cell_angle_gamma                90
_cell_volume                     1818.5
loop_
_atom_site_label
_atom_site_type_symbol
_atom_site_fract_x
_atom_site_fract_y
_atom_site_fract_z
Cu1 Cu 0.66226(8) 0.92267(19) 0.77996(13)
N1 N 0.7778(6) 0.9787(16) 0.8076(13)
N2 N 0.8091(6) 1.0998(16) 0.8024(10)
N3 N 0.8457(8) 1.2080(16) 0.8020(10)
N4 N 0.6736(5) 0.8190(14) 0.9412(9)
C1 C 0.6061(10) 0.731(2) 0.9277(16)
H1 H 0.6126 0.6654 0.9981
H2 H 0.5938 0.6614 0.8581
H3 H 0.5686 0.8081 0.9184
C2 C 0.7316(10) 0.686(2) 0.9707(15)
H4 H 0.7725 0.7273 0.9552
H5 H 0.7134 0.5920 0.9214
H6 H 0.7449 0.6565 1.0540
C3 C 0.6939(8) 0.9254(18) 1.0527(13)
H7 H 0.7453 0.9376 1.0815
H8 H 0.6821 0.8652 1.1139
C4 C 0.6606(7) 1.1028(17) 1.0460(12)
C5 C 0.6958(10) 1.166(2) 1.1735(13)
H9 H 0.7465 1.1511 1.1977
H10 H 0.6779 1.1060 1.2270
H11 H 0.6851 1.2795 1.1765
C6 C 0.5818(8) 1.096(2) 1.0203(15)
H12 H 0.5699 1.1637 1.0770
H13 H 0.5678 0.9857 1.0272
H14 H 0.5572 1.1352 0.9401
C7 C 0.6783(8) 1.206(2) 0.9585(15)
H15 H 0.7298 1.2145 0.9828
H16 H 0.6600 1.3154 0.9616
N5 N 0.6496(6) 1.1470(14) 0.8313(9)
C8 C 0.6194(7) 1.2477(18) 0.7536(11)
H17 H 0.6108 1.3534 0.7738
C9 C 0.5965(6) 1.1926(16) 0.6224(10)
C10 C 0.5656(7) 1.281(2) 0.5297(14)
H18 H 0.5529 1.3877 0.5388
C11 C 0.5514(10) 1.217(3) 0.4180(18)
H19 H 0.5316 1.2830 0.3510
N6 N 0.6133(5) 1.0291(13) 0.6131(9)
C12 C 0.5992(7) 0.963(2) 0.5091(12)
H20 H 0.6109 0.8539 0.5040
C13 C 0.5659(8) 1.053(2) 0.4017(15)
H21 H 0.5546 1.0064 0.3257
N3C N 0.6543(8) 0.7080(16) 0.6980(10)
Cu1C Cu 0.83774(8) 1.42267(19) 0.72004(13)
Cl1 Cl 0.4204(2) 1.3883(5) 0.7321(4)
O1 O 0.4850(9) 1.412(3) 0.735(3)
O2 O 0.3961(18) 1.508(3) 0.787(3)
O3 O 0.3760(14) 1.408(2) 0.6171(18)
O4 O 0.4107(15) 1.241(2) 0.7673(17)
loop_
_geom_bond_atom_site_label_1
_geom_bond_atom_site_label_2
_geom_bond_site_symmetry_1
_geom_bond_site_symmetry_2
Cu1 N1 1_555 1_555
N1 N2 1_555 1_555
N2 N3 1_555 1_555
N3 Cu1C 1_555 1_555
N4 Cu1 1_555 1_555
C1 N4 1_555 1_555
H1 C1 1_555 1_555
H2 C1 1_555 1_555
H3 C1 1_555 1_555
C2 N4 1_555 1_555
H4 C2 1_555 1_555
H5 C2 1_555 1_555
H6 C2 1_555 1_555
C3 N4 1_555 1_555
H7 C3 1_555 1_555
H8 C3 1_555 1_555
C4 C3 1_555 1_555
C5 C4 1_555 1_555
H9 C5 1_555 1_555
H10 C5 1_555 1_555
H11 C5 1_555 1_555
C6 C4 1_555 1_555
H12 C6 1_555 1_555
H13 C6 1_555 1_555
H14 C6 1_555 1_555
C7 C4 1_555 1_555
H15 C7 1_555 1_555
H16 C7 1_555 1_555
N5 Cu1 1_555 1_555
C8 N5 1_555 1_555
H17 C8 1_555 1_555
C9 C8 1_555 1_555
C10 C9 1_555 1_555
H18 C10 1_555 1_555
C11 C10 1_555 1_555
H19 C11 1_555 1_555
N6 Cu1 1_555 1_555
C12 N6 1_555 1_555
H20 C12 1_555 1_555
C13 C11 1_555 1_555
H21 C13 1_555 1_555
Cl1 O1 1_555 1_555
O2 Cl1 1_555 1_555
O3 Cl1 1_555 1_555
O4 Cl1 1_555 1_555
N3C Cu1 1_555 1_555
C7 N5 1_555 1_555
C9 N6 1_555 1_555
C12 C13 1_555 1_555

#END
