
#######################################################################
#
#                 Cambridge Crystallographic Data Centre
#                                CCDC 
#
#######################################################################
#
# If this CIF has been generated from an entry in the Cambridge 
# Structural Database, then it will include bibliographic, chemical, 
# crystal, experimental, refinement or atomic coordinate data resulting 
# from the CCDC's data processing and validation procedures.
#
#######################################################################

data_LUBNAZ
_symmetry_cell_setting           tetragonal
_symmetry_space_group_name_H-M   'I 4 c m'
_symmetry_Int_Tables_number      108
_space_group_name_Hall           'I 4 -2c'
loop_
_symmetry_equiv_pos_site_id
_symmetry_equiv_pos_as_xyz
1 x,y,z
2 -x,-y,z
3 -y,x,z
4 y,-x,z
5 x,-y,1/2+z
6 -x,y,1/2+z
7 -y,-x,1/2+z
8 y,x,1/2+z
9 1/2+x,1/2+y,1/2+z
10 1/2-x,1/2-y,1/2+z
11 1/2-y,1/2+x,1/2+z
12 1/2+y,1/2-x,1/2+z
13 1/2+x,1/2-y,z
14 1/2-x,1/2+y,z
15 1/2-y,1/2-x,z
16 1/2+y,1/2+x,z
_cell_length_a                   20.796(3)
_cell_length_b                   20.796(3)
_cell_length_c                   17.869(4)
_cell_angle_alpha                90
_cell_angle_beta                 90
_cell_angle_gamma                90
_cell_volume                     7727.87
loop_
_atom_site_label
_atom_site_type_symbol
_atom_site_fract_x
_atom_site_fract_y
_atom_site_fract_z
Zn1 Zn 0.66067(2) 0.83933(2) 0.84495(4)
Co1 Co 0.74471(2) 0.87753(2) 0.69928(4)
O1 O 0.66897(13) 0.93963(13) 0.83773(17)
O2 O 0.74616(18) 0.95892(15) 0.75362(16)
O3 O 0.82408(17) 1.18739(17) 0.74876(15)
O4 O 0.8366(2) 1.23990(14) 0.86110(17)
O5 O 0.6895(2) 1.05321(19) 1.08400(17)
O6 O 0.76666(17) 1.1292(2) 1.0942(2)
O7 O 0.66261(13) 0.83739(13) 0.7281(2)
O8 O 0.64915(18) 0.85085(18) 0.9589(2)
C1 C 0.71373(19) 0.97159(19) 0.8144(2)
C2 C 0.7332(2) 1.0342(2) 0.8555(2)
C3 C 0.7203(2) 1.0366(2) 0.9320(2)
H1 H 0.6985 1.0034 0.9559
C4 C 0.7409(3) 1.0901(3) 0.9709(2)
C5 C 0.7279(2) 1.0871(2) 1.0569(2)
C6 C 0.7726(3) 1.1395(2) 0.9361(2)
H2 H 0.7871 1.1741 0.9644
C7 C 0.7837(2) 1.1391(2) 0.8578(2)
C8 C 0.8175(2) 1.1916(2) 0.8214(2)
C9 C 0.7640(2) 1.08360(19) 0.8186(2)
H3 H 0.7718 1.0803 0.7675
C10 C 0.6725(4) 0.8275(4) 1.0074(5)
H4 H 0.7038 0.7962 1.0005
C11 C 0.6992(7) 0.8008(7) 1.1337(10)
C12 C 0.6060(8) 0.8940(8) 1.0781(13)
N1 N 0.6542(6) 0.8458(6) 1.0780(6)
Co1B Co 1.12247(2) 0.74471(2) 0.69928(4)
O1B O 1.06037(13) 0.66897(13) 0.83773(17)
O2B O 1.04108(15) 0.74616(18) 0.75362(16)
O3B O 0.81261(17) 0.82408(17) 0.74876(15)
O4B O 0.76010(14) 0.8366(2) 0.86110(17)
O5B O 0.94679(19) 0.6895(2) 1.08400(17)
O6B O 0.8708(2) 0.76666(17) 1.0942(2)
C1B C 1.02841(19) 0.71373(19) 0.8144(2)
C2B C 0.9658(2) 0.7332(2) 0.8555(2)
C3B C 0.9634(2) 0.7203(2) 0.9320(2)
H1B H 0.9966 0.6985 0.9559
C4B C 0.9099(3) 0.7409(3) 0.9709(2)
C5B C 0.9129(2) 0.7279(2) 1.0569(2)
C6B C 0.8605(2) 0.7726(3) 0.9361(2)
H2B H 0.8259 0.7871 0.9644
C7B C 0.8609(2) 0.7837(2) 0.8578(2)
C8B C 0.8084(2) 0.8175(2) 0.8214(2)
C9B C 0.91640(19) 0.7640(2) 0.8186(2)
H3B H 0.9197 0.7718 0.7675
Zn1B Zn 1.16067(2) 0.66067(2) 0.84495(4)
Zn1C Zn 0.83933(2) 1.33933(2) 0.84495(4)
Co1C Co 0.87753(2) 1.25529(2) 0.69928(4)
Co1D Co 0.74471(2) 1.12247(2) 1.19928(4)
Co1G Co 0.87753(2) 0.74471(2) 1.19928(4)
Co1N Co 0.62247(2) 0.75529(2) 0.69928(4)
O1N O 0.56037(13) 0.83103(13) 0.83773(17)
O3A O 1.17592(17) 0.81261(17) 0.74876(15)
O4M O 0.6634(2) 0.73990(14) 0.86110(17)
O6D O 0.76666(17) 0.8708(2) 0.5942(2)
O6G O 1.1292(2) 0.76666(17) 0.5942(2)
O7B O 1.16261(13) 0.66261(13) 0.7281(2)
O9 O 0.57272(17) 0.92728(17) 0.6641(3)
loop_
_geom_bond_atom_site_label_1
_geom_bond_atom_site_label_2
_geom_bond_site_symmetry_1
_geom_bond_site_symmetry_2
Zn1 O1 1_555 1_555
Co1 O2 1_555 1_555
O1 C1 1_555 1_555
O2 C1 1_555 1_555
O3 C8 1_555 1_555
O4 C8 1_555 1_555
O5 C5 1_555 1_555
O6 C5 1_555 1_555
O7 Zn1 1_555 1_555
O8 Zn1 1_555 1_555
C1 C2 1_555 1_555
C2 C3 1_555 1_555
C3 H1 1_555 1_555
C4 C3 1_555 1_555
C5 C4 1_555 1_555
C6 C4 1_555 1_555
H2 C6 1_555 1_555
C7 C6 1_555 1_555
C8 C7 1_555 1_555
C9 C2 1_555 1_555
H3 C9 1_555 1_555
C10 O8 1_555 1_555
H4 C10 1_555 1_555
C11 N1 1_555 1_555
C12 N1 1_555 1_555
N1 C10 1_555 1_555
Co1B O2B 1_555 1_555
O1B C1B 1_555 1_555
O2B C1B 1_555 1_555
O3B Co1 1_555 1_555
O4B Zn1 1_555 1_555
O5B C5B 1_555 1_555
O6B C5B 1_555 1_555
C1B C2B 1_555 1_555
C2B C3B 1_555 1_555
C3B H1B 1_555 1_555
C4B C3B 1_555 1_555
C5B C4B 1_555 1_555
C6B C4B 1_555 1_555
H2B C6B 1_555 1_555
C7B C6B 1_555 1_555
C8B O3B 1_555 1_555
C9B C2B 1_555 1_555
H3B C9B 1_555 1_555
Zn1B O1B 1_555 1_555
Zn1C O4 1_555 1_555
Co1C O3 1_555 1_555
Co1D O6 1_555 1_555
Co1G O6B 1_555 1_555
Co1N O7 1_555 1_555
O1N Zn1 1_555 1_555
O3A Co1B 1_555 1_555
O4M Zn1 1_555 1_555
O6D Co1 1_555 1_555
O6G Co1B 1_555 1_555
O7B Co1B 1_555 1_555
Co1 O7 1_555 1_555
C7 C9 1_555 1_555
O4B C8B 1_555 1_555
C7B C8B 1_555 1_555
C7B C9B 1_555 1_555
Zn1B O7B 1_555 1_555

#END
