
#######################################################################
#
#                 Cambridge Crystallographic Data Centre
#                                CCDC 
#
#######################################################################
#
# If this CIF has been generated from an entry in the Cambridge 
# Structural Database, then it will include bibliographic, chemical, 
# crystal, experimental, refinement or atomic coordinate data resulting 
# from the CCDC's data processing and validation procedures.
#
#######################################################################

data_LUBVUB
_symmetry_cell_setting           monoclinic
_symmetry_space_group_name_H-M   'C 2/c'
_symmetry_Int_Tables_number      15
_space_group_name_Hall           '-C 2yn'
loop_
_symmetry_equiv_pos_site_id
_symmetry_equiv_pos_as_xyz
1 x,y,z
2 -x,y,1/2-z
3 1/2+x,1/2+y,z
4 1/2-x,1/2+y,1/2-z
5 -x,-y,-z
6 x,-y,1/2+z
7 1/2-x,1/2-y,-z
8 1/2+x,1/2-y,1/2+z
_cell_length_a                   21.579(3)
_cell_length_b                   6.586(2)
_cell_length_c                   21.571(3)
_cell_angle_alpha                90
_cell_angle_beta                 107.110(9)
_cell_angle_gamma                90
_cell_volume                     2929.97
loop_
_atom_site_label
_atom_site_type_symbol
_atom_site_fract_x
_atom_site_fract_y
_atom_site_fract_z
Cu1 Cu 0.5000 -0.75220(8) -0.2500
Cu2 Cu 0.33482(2) 1.02001(6) 0.05962(2)
C1 C 0.39615(15) 0.9324(5) 0.13416(14)
N1 N 0.43572(15) 0.8679(4) 0.17756(15)
N2 N 0.22941(14) 1.3014(5) -0.01485(14)
N3 N 0.44967(12) -0.5113(4) -0.21626(13)
N4 N 0.34016(14) 0.7919(4) -0.00950(12)
N5 N 0.38881(12) 0.1540(4) -0.12426(12)
N6 N 0.31494(12) 0.1088(4) -0.21836(13)
H1 H 0.2942 0.0553 -0.2549
N7 N 0.29880(12) 0.2864(4) -0.19088(14)
C2 C 0.47882(16) -0.4002(5) -0.16471(15)
H2 H 0.5176 -0.4473 -0.1367
C3 C 0.45438(15) -0.2182(5) -0.15055(16)
H3 H 0.4767 -0.1436 -0.1142
C4 C 0.39649(13) -0.1490(4) -0.19102(14)
C5 C 0.36635(14) -0.2621(5) -0.24485(15)
H4 H 0.3276 -0.2179 -0.2738
C6 C 0.39401(14) -0.4409(5) -0.25544(16)
H5 H 0.3729 -0.5170 -0.2918
C7 C 0.36816(14) 0.0411(5) -0.17682(16)
C8 C 0.34387(14) 0.3013(5) -0.13568(14)
C9 C 0.34323(15) 0.4715(4) -0.09215(15)
C10 C 0.38965(18) 0.4898(5) -0.03349(17)
H6 H 0.4229 0.3948 -0.0206
C11 C 0.38649(19) 0.6490(6) 0.00566(17)
H7 H 0.4184 0.6593 0.0454
C12 C 0.29572(16) 0.7736(5) -0.06727(15)
H8 H 0.2632 0.8710 -0.0792
C13 C 0.29541(15) 0.6210(5) -0.10949(15)
H9 H 0.2638 0.6159 -0.1495
C14 C 0.27059(14) 1.1986(5) 0.01485(14)
N2F N 0.27059(14) 1.1986(5) 0.01485(14)
C14F C 0.22941(14) 1.3014(5) -0.01485(14)
Cu2A Cu 0.66518(2) 1.02001(6) -0.55962(2)
C1A C 0.60385(15) 0.9324(5) -0.63416(14)
N1A N 0.56428(15) 0.8679(4) -0.67756(15)
N3A N 0.55033(12) -0.5113(4) -0.28374(13)
N4A N 0.65984(14) 0.7919(4) -0.49050(12)
N5A N 0.61119(12) 0.1540(4) -0.37574(12)
N6A N 0.68506(12) 0.1088(4) -0.28164(13)
H1A H 0.7058 0.0553 -0.2451
N7A N 0.70120(12) 0.2864(4) -0.30912(14)
C2A C 0.52118(16) -0.4002(5) -0.33529(15)
H2A H 0.4824 -0.4473 -0.3633
C3A C 0.54562(15) -0.2182(5) -0.34945(16)
H3A H 0.5233 -0.1436 -0.3858
C4A C 0.60351(13) -0.1490(4) -0.30898(14)
C5A C 0.63365(14) -0.2621(5) -0.25515(15)
H4A H 0.6724 -0.2179 -0.2262
C6A C 0.60599(14) -0.4409(5) -0.24456(16)
H5A H 0.6271 -0.5170 -0.2082
C7A C 0.63184(14) 0.0411(5) -0.32318(16)
C8A C 0.65613(14) 0.3013(5) -0.36432(14)
C9A C 0.65677(15) 0.4715(4) -0.40785(15)
C10A C 0.61035(18) 0.4898(5) -0.46651(17)
H6A H 0.5771 0.3948 -0.4794
C11A C 0.61351(19) 0.6490(6) -0.50566(17)
H7A H 0.5816 0.6593 -0.5454
C12A C 0.70428(16) 0.7736(5) -0.43273(15)
H8A H 0.7368 0.8710 -0.4208
C13A C 0.70459(15) 0.6210(5) -0.39051(15)
H9A H 0.7362 0.6159 -0.3505
Cu1D Cu 0.5000 0.75220(8) -0.7500
Cu1D_2 Cu 0.5000 0.75220(8) 0.2500
Cu2F Cu 0.16518(2) 1.47999(6) -0.05962(2)
N1D N 0.56428(15) -0.8679(4) -0.17756(15)
N1E N 0.43572(15) -0.8679(4) -0.32244(15)
N2G N 0.72941(14) 1.1986(5) -0.51485(14)
C14A C 0.72941(14) 1.1986(5) -0.51485(14)
loop_
_geom_bond_atom_site_label_1
_geom_bond_atom_site_label_2
_geom_bond_site_symmetry_1
_geom_bond_site_symmetry_2
Cu1 N3 1_555 1_555
Cu2 C1 1_555 1_555
C1 N1 1_555 1_555
N1 Cu1D_2 1_555 1_555
N2 C14 1_555 1_555
N3 C2 1_555 1_555
N4 Cu2 1_555 1_555
N5 C7 1_555 1_555
N6 H1 1_555 1_555
N7 N6 1_555 1_555
C2 H2 1_555 1_555
C3 C2 1_555 1_555
H3 C3 1_555 1_555
C4 C3 1_555 1_555
C5 C4 1_555 1_555
H4 C5 1_555 1_555
C6 N3 1_555 1_555
H5 C6 1_555 1_555
C7 N6 1_555 1_555
C8 N5 1_555 1_555
C9 C8 1_555 1_555
C10 C9 1_555 1_555
H6 C10 1_555 1_555
C11 N4 1_555 1_555
H7 C11 1_555 1_555
C12 N4 1_555 1_555
H8 C12 1_555 1_555
C13 C9 1_555 1_555
H9 C13 1_555 1_555
C14 Cu2 1_555 1_555
N2F Cu2 1_555 1_555
C14F C14 1_555 1_555
Cu2A C1A 1_555 1_555
C1A N1A 1_555 1_555
N1A Cu1D 1_555 1_555
N3A Cu1 1_555 1_555
N4A Cu2A 1_555 1_555
N5A C7A 1_555 1_555
N6A H1A 1_555 1_555
N7A N6A 1_555 1_555
C2A N3A 1_555 1_555
H2A C2A 1_555 1_555
C3A C2A 1_555 1_555
H3A C3A 1_555 1_555
C4A C3A 1_555 1_555
C5A C4A 1_555 1_555
H4A C5A 1_555 1_555
C6A N3A 1_555 1_555
H5A C6A 1_555 1_555
C7A N6A 1_555 1_555
C8A N5A 1_555 1_555
C9A C8A 1_555 1_555
C10A C9A 1_555 1_555
H6A C10A 1_555 1_555
C11A N4A 1_555 1_555
H7A C11A 1_555 1_555
C12A N4A 1_555 1_555
H8A C12A 1_555 1_555
C13A C9A 1_555 1_555
H9A C13A 1_555 1_555
Cu2F N2 1_555 1_555
N1D Cu1 1_555 1_555
N1E Cu1 1_555 1_555
N2G Cu2A 1_555 1_555
C14A Cu2A 1_555 1_555
N2 N2F 1_555 1_555
N7 C8 1_555 1_555
C4 C7 1_555 1_555
C5 C6 1_555 1_555
C10 C11 1_555 1_555
C12 C13 1_555 1_555
N2F C14F 1_555 1_555
C14F Cu2F 1_555 1_555
N7A C8A 1_555 1_555
C4A C7A 1_555 1_555
C5A C6A 1_555 1_555
C10A C11A 1_555 1_555
C12A C13A 1_555 1_555

#END
