
#######################################################################
#
#                 Cambridge Crystallographic Data Centre
#                                CCDC 
#
#######################################################################
#
# If this CIF has been generated from an entry in the Cambridge 
# Structural Database, then it will include bibliographic, chemical, 
# crystal, experimental, refinement or atomic coordinate data resulting 
# from the CCDC's data processing and validation procedures.
#
#######################################################################

data_LUCHUO
_symmetry_cell_setting           monoclinic
_symmetry_space_group_name_H-M   'P 21/c'
_symmetry_Int_Tables_number      14
_space_group_name_Hall           '-P 2ybc'
loop_
_symmetry_equiv_pos_site_id
_symmetry_equiv_pos_as_xyz
1 x,y,z
2 -x,1/2+y,1/2-z
3 -x,-y,-z
4 x,1/2-y,1/2+z
_cell_length_a                   12.5858(1)
_cell_length_b                   24.4849(2)
_cell_length_c                   27.9362(2)
_cell_angle_alpha                90
_cell_angle_beta                 98.748(1)
_cell_angle_gamma                90
_cell_volume                     8508.73
loop_
_atom_site_label
_atom_site_type_symbol
_atom_site_fract_x
_atom_site_fract_y
_atom_site_fract_z
As1 As 0.40191(4) 0.28536(2) 0.95423(2)
As2 As 0.34920(4) 0.20803(2) 0.99248(2)
As3 As 0.42607(4) 0.21528(2) 1.07319(2)
As4 As 0.53129(4) 0.29336(2) 1.08388(2)
As5 As 0.51703(4) 0.33703(2) 1.00936(2)
Cu1 Cu 0.32589(4) 0.31131(2) 0.86922(2)
Cu2 Cu 0.35490(4) 0.30768(2) 0.75695(2)
Cu3 Cu 0.34600(4) 0.31881(2) 0.64823(2)
Fe1 Fe 0.54391(5) 0.23527(3) 1.01036(2)
Cl1 Cl 0.45166(8) 0.26949(4) 0.82888(3)
Cl2 Cl 0.46844(7) 0.27045(4) 0.70193(3)
P1 P 0.15569(8) 0.27919(4) 0.85115(4)
P2 P 0.19113(8) 0.26969(4) 0.74507(4)
P3 P 0.17925(8) 0.28240(4) 0.63531(4)
P4 P 0.35926(8) 0.41041(4) 0.65108(4)
P5 P 0.37875(8) 0.39836(4) 0.76134(4)
P6 P 0.32783(8) 0.40430(4) 0.86653(4)
C1 C 0.6657(3) 0.2301(2) 0.96594(16)
C2 C 0.7125(4) 0.2366(2) 1.01544(17)
C3 C 0.6798(4) 0.1911(2) 1.04191(18)
C4 C 0.6133(4) 0.1568(2) 1.00931(18)
C5 C 0.6038(4) 0.1808(2) 0.96225(17)
C6 C 0.6875(4) 0.2658(2) 0.92525(16)
C7 C 0.7893(4) 0.2806(3) 1.03497(19)
C8 C 0.7172(5) 0.1800(3) 1.09497(19)
C9 C 0.5711(6) 0.1032(2) 1.0218(2)
C10 C 0.5480(5) 0.1560(2) 0.91665(18)
C11 C 0.0998(3) 0.29176(18) 0.78727(14)
C12 C 0.1080(3) 0.28929(17) 0.68783(14)
C13 C 0.3236(3) 0.43824(17) 0.70746(14)
C14 C 0.3059(3) 0.43291(18) 0.80512(14)
C15 C 0.0629(3) 0.31472(17) 0.88504(14)
C16 C -0.0127(4) 0.3524(2) 0.86643(16)
C17 C -0.0756(4) 0.3780(2) 0.89624(16)
C18 C -0.0649(3) 0.3655(2) 0.94476(16)
C19 C 0.0108(4) 0.3278(2) 0.96387(16)
C20 C 0.0749(3) 0.30325(19) 0.93510(15)
C21 C 0.1207(3) 0.20779(18) 0.86102(14)
C22 C 0.0138(4) 0.19130(19) 0.85580(16)
C23 C -0.0105(4) 0.1371(2) 0.86259(18)
C24 C 0.0712(4) 0.0996(2) 0.87520(18)
C25 C 0.1759(4) 0.1163(2) 0.88147(18)
C26 C 0.2011(4) 0.17012(18) 0.87391(15)
C27 C 0.1848(3) 0.19537(18) 0.74721(14)
C28 C 0.0891(4) 0.16701(19) 0.73848(17)
C29 C 0.0879(4) 0.1106(2) 0.74270(18)
C30 C 0.1835(4) 0.0828(2) 0.75571(17)
C31 C 0.2782(4) 0.11029(19) 0.76405(17)
C32 C 0.2800(4) 0.16685(18) 0.75982(15)
C33 C 0.1670(3) 0.20991(17) 0.62164(14)
C34 C 0.0675(4) 0.18574(19) 0.60588(15)
C35 C 0.0599(4) 0.1303(2) 0.59668(16)
C36 C 0.1522(4) 0.0984(2) 0.60414(16)
C37 C 0.2509(4) 0.12149(19) 0.61978(17)
C38 C 0.2581(4) 0.17731(18) 0.62897(15)
C39 C 0.0858(3) 0.31387(18) 0.58660(15)
C40 C 0.0215(4) 0.3577(2) 0.59517(17)
C41 C -0.0451(4) 0.3820(2) 0.55727(18)
C42 C -0.0493(4) 0.3629(2) 0.51052(18)
C43 C 0.0179(4) 0.3210(2) 0.50153(17)
C44 C 0.0837(4) 0.29650(19) 0.53950(15)
C45 C 0.2706(3) 0.44585(17) 0.60318(15)
C46 C 0.2034(4) 0.4882(2) 0.60981(17)
C47 C 0.1416(5) 0.5125(3) 0.57036(19)
C48 C 0.1454(4) 0.4947(2) 0.52442(17)
C49 C 0.2103(5) 0.4531(2) 0.51749(18)
C50 C 0.2725(4) 0.4282(2) 0.55673(17)
C51 C 0.4895(3) 0.44162(17) 0.64824(14)
C52 C 0.4999(4) 0.4942(2) 0.63092(19)
C53 C 0.6012(4) 0.5163(2) 0.6317(2)
C54 C 0.6918(4) 0.4873(2) 0.64975(18)
C55 C 0.6818(3) 0.4356(2) 0.66725(15)
C56 C 0.5812(3) 0.41270(18) 0.66588(14)
C57 C 0.5169(3) 0.42246(17) 0.77747(14)
C58 C 0.5410(4) 0.47711(19) 0.78500(15)
C59 C 0.6458(4) 0.4942(2) 0.79727(16)
C60 C 0.7283(4) 0.4566(2) 0.80152(16)
C61 C 0.7051(4) 0.4015(2) 0.79496(16)
C62 C 0.5996(3) 0.38469(19) 0.78303(14)
C63 C 0.4519(3) 0.43730(18) 0.89548(15)
C64 C 0.4541(4) 0.4896(2) 0.9141(2)
C65 C 0.5502(5) 0.5120(3) 0.9355(2)
C66 C 0.6432(5) 0.4831(3) 0.9383(2)
C67 C 0.6422(4) 0.4310(2) 0.91952(17)
C68 C 0.5471(3) 0.40726(19) 0.89842(15)
C69 C 0.2242(3) 0.43995(18) 0.89413(15)
C70 C 0.2189(3) 0.4295(2) 0.94270(15)
C71 C 0.1451(4) 0.4566(2) 0.96584(16)
C72 C 0.0742(4) 0.4937(2) 0.94066(18)
C73 C 0.0775(4) 0.5026(2) 0.89292(18)
C74 C 0.1531(4) 0.4764(2) 0.86985(17)
H1 H 0.69480 0.30300 0.93620
H2 H 0.62890 0.26320 0.89900
H3 H 0.75280 0.25430 0.91440
H4 H 0.86120 0.26980 1.03170
H5 H 0.78460 0.28650 1.06860
H6 H 0.77150 0.31370 1.01720
H7 H 0.77620 0.15470 1.09830
H8 H 0.65910 0.16470 1.10920
H9 H 0.74010 0.21360 1.11110
H10 H 0.50360 0.09640 1.00160
H11 H 0.56080 0.10330 1.05520
H12 H 0.62130 0.07500 1.01680
H13 H 0.59740 0.13310 0.90280
H14 H 0.52220 0.18430 0.89410
H15 H 0.48850 0.13440 0.92360
H16 H 0.08520 0.33050 0.78270
H17 H 0.03210 0.27240 0.77960
H18 H 0.08510 0.32690 0.69010
H19 H 0.04420 0.26660 0.68280
H20 H 0.24590 0.43940 0.70500
H21 H 0.34990 0.47540 0.71150
H22 H 0.32710 0.47100 0.80700
H23 H 0.22960 0.43160 0.79290
H24 H -0.02180 0.36070 0.83360
H25 H -0.12570 0.40410 0.88330
H26 H -0.10860 0.38230 0.96440
H27 H 0.01840 0.31910 0.99660
H28 H 0.12730 0.27860 0.94860
H29 H -0.04110 0.21670 0.84780
H30 H -0.08190 0.12580 0.85870
H31 H 0.05480 0.06310 0.87940
H32 H 0.23060 0.09120 0.89090
H33 H 0.27260 0.18100 0.87750
H34 H 0.02500 0.18590 0.72970
H35 H 0.02320 0.09170 0.73680
H36 H 0.18290 0.04490 0.75880
H37 H 0.34210 0.09120 0.77260
H38 H 0.34500 0.18550 0.76550
H39 H 0.00570 0.20710 0.60150
H40 H -0.00640 0.11450 0.58560
H41 H 0.14710 0.06100 0.59850
H42 H 0.31250 0.09990 0.62420
H43 H 0.32470 0.19290 0.64010
H44 H 0.02320 0.37070 0.62650
H45 H -0.08760 0.41150 0.56330
H46 H -0.09700 0.37820 0.48540
H47 H 0.01890 0.30920 0.47000
H48 H 0.12760 0.26760 0.53320
H49 H 0.19930 0.50060 0.64090
H50 H 0.09670 0.54140 0.57530
H51 H 0.10340 0.51120 0.49820
H52 H 0.21380 0.44090 0.48630
H53 H 0.31640 0.39890 0.55140
H54 H 0.43910 0.51440 0.61890
H55 H 0.60810 0.55150 0.61980
H56 H 0.75960 0.50260 0.65010
H57 H 0.74280 0.41590 0.68010
H58 H 0.57510 0.37720 0.67700
H59 H 0.48570 0.50270 0.78170
H60 H 0.66100 0.53100 0.80270
H61 H 0.79930 0.46820 0.80880
H62 H 0.76040 0.37590 0.79860
H63 H 0.58410 0.34770 0.77870
H64 H 0.39090 0.50970 0.91230
H65 H 0.55140 0.54710 0.94820
H66 H 0.70760 0.49860 0.95280
H67 H 0.70630 0.41170 0.92110
H68 H 0.54630 0.37180 0.88640
H69 H 0.26530 0.40420 0.95960
H70 H 0.14280 0.45000 0.99840
H71 H 0.02500 0.51230 0.95630
H72 H 0.02850 0.52640 0.87560
H73 H 0.15560 0.48370 0.83740
As3C As 0.42607(4) 0.28472(2) 0.57319(2)
Cu3C Cu 0.34600(4) 0.18119(2) 1.14823(2)
Cl3 Cl 0.6115(3) 0.10311(10) 0.79184(10)
Cl4 Cl 0.5631(4) 0.11036(15) 0.68999(14)
C75 C 0.5953(10) 0.1448(5) 0.7481(5)
H74 H 0.66050 0.16600 0.74840
H75 H 0.53760 0.16980 0.75220
Cl5 Cl 0.76295(17) 0.25843(9) 0.78678(8)
Cl6 Cl 0.81217(16) 0.22276(10) 0.69351(9)
C76 C 0.7666(7) 0.2767(3) 0.7258(3)
H76 H 0.69510 0.28730 0.71050
H77 H 0.81370 0.30790 0.72480
F1 F 0.0862(2) 0.41357(12) 0.72739(11)
F2 F -0.0505(3) 0.45812(16) 0.68293(13)
F3 F -0.0291(3) 0.4632(2) 0.76343(15)
F4 F -0.0807(3) 0.38374(17) 0.72848(19)
B1 B -0.0170(5) 0.4322(3) 0.7259(2)
loop_
_geom_bond_atom_site_label_1
_geom_bond_atom_site_label_2
_geom_bond_site_symmetry_1
_geom_bond_site_symmetry_2
As1 As2 1_555 1_555
As2 As3 1_555 1_555
As3 As4 1_555 1_555
As4 As5 1_555 1_555
As5 As1 1_555 1_555
Cu1 As1 1_555 1_555
Cu2 Cl1 1_555 1_555
Cu3 Cl2 1_555 1_555
Fe1 As1 1_555 1_555
Cl1 Cu1 1_555 1_555
Cl2 Cu2 1_555 1_555
P1 Cu1 1_555 1_555
P2 Cu2 1_555 1_555
P3 Cu3 1_555 1_555
P4 Cu3 1_555 1_555
P5 Cu2 1_555 1_555
P6 Cu1 1_555 1_555
C1 Fe1 1_555 1_555
C2 Fe1 1_555 1_555
C3 Fe1 1_555 1_555
C4 Fe1 1_555 1_555
C5 Fe1 1_555 1_555
C6 C1 1_555 1_555
C7 C2 1_555 1_555
C8 C3 1_555 1_555
C9 C4 1_555 1_555
C10 C5 1_555 1_555
C11 P1 1_555 1_555
C12 P2 1_555 1_555
C13 P4 1_555 1_555
C14 P5 1_555 1_555
C15 P1 1_555 1_555
C16 C15 1_555 1_555
C17 C16 1_555 1_555
C18 C17 1_555 1_555
C19 C18 1_555 1_555
C20 C15 1_555 1_555
C21 P1 1_555 1_555
C22 C21 1_555 1_555
C23 C22 1_555 1_555
C24 C23 1_555 1_555
C25 C24 1_555 1_555
C26 C21 1_555 1_555
C27 P2 1_555 1_555
C28 C27 1_555 1_555
C29 C28 1_555 1_555
C30 C29 1_555 1_555
C31 C30 1_555 1_555
C32 C27 1_555 1_555
C33 P3 1_555 1_555
C34 C33 1_555 1_555
C35 C34 1_555 1_555
C36 C35 1_555 1_555
C37 C36 1_555 1_555
C38 C33 1_555 1_555
C39 P3 1_555 1_555
C40 C39 1_555 1_555
C41 C40 1_555 1_555
C42 C41 1_555 1_555
C43 C42 1_555 1_555
C44 C39 1_555 1_555
C45 P4 1_555 1_555
C46 C45 1_555 1_555
C47 C46 1_555 1_555
C48 C47 1_555 1_555
C49 C48 1_555 1_555
C50 C45 1_555 1_555
C51 P4 1_555 1_555
C52 C51 1_555 1_555
C53 C52 1_555 1_555
C54 C53 1_555 1_555
C55 C54 1_555 1_555
C56 C51 1_555 1_555
C57 P5 1_555 1_555
C58 C57 1_555 1_555
C59 C58 1_555 1_555
C60 C59 1_555 1_555
C61 C60 1_555 1_555
C62 C57 1_555 1_555
C63 P6 1_555 1_555
C64 C63 1_555 1_555
C65 C64 1_555 1_555
C66 C65 1_555 1_555
C67 C66 1_555 1_555
C68 C63 1_555 1_555
C69 P6 1_555 1_555
C70 C69 1_555 1_555
C71 C70 1_555 1_555
C72 C71 1_555 1_555
C73 C72 1_555 1_555
C74 C69 1_555 1_555
H1 C6 1_555 1_555
H2 C6 1_555 1_555
H3 C6 1_555 1_555
H4 C7 1_555 1_555
H5 C7 1_555 1_555
H6 C7 1_555 1_555
H7 C8 1_555 1_555
H8 C8 1_555 1_555
H9 C8 1_555 1_555
H10 C9 1_555 1_555
H11 C9 1_555 1_555
H12 C9 1_555 1_555
H13 C10 1_555 1_555
H14 C10 1_555 1_555
H15 C10 1_555 1_555
H16 C11 1_555 1_555
H17 C11 1_555 1_555
H18 C12 1_555 1_555
H19 C12 1_555 1_555
H20 C13 1_555 1_555
H21 C13 1_555 1_555
H22 C14 1_555 1_555
H23 C14 1_555 1_555
H24 C16 1_555 1_555
H25 C17 1_555 1_555
H26 C18 1_555 1_555
H27 C19 1_555 1_555
H28 C20 1_555 1_555
H29 C22 1_555 1_555
H30 C23 1_555 1_555
H31 C24 1_555 1_555
H32 C25 1_555 1_555
H33 C26 1_555 1_555
H34 C28 1_555 1_555
H35 C29 1_555 1_555
H36 C30 1_555 1_555
H37 C31 1_555 1_555
H38 C32 1_555 1_555
H39 C34 1_555 1_555
H40 C35 1_555 1_555
H41 C36 1_555 1_555
H42 C37 1_555 1_555
H43 C38 1_555 1_555
H44 C40 1_555 1_555
H45 C41 1_555 1_555
H46 C42 1_555 1_555
H47 C43 1_555 1_555
H48 C44 1_555 1_555
H49 C46 1_555 1_555
H50 C47 1_555 1_555
H51 C48 1_555 1_555
H52 C49 1_555 1_555
H53 C50 1_555 1_555
H54 C52 1_555 1_555
H55 C53 1_555 1_555
H56 C54 1_555 1_555
H57 C55 1_555 1_555
H58 C56 1_555 1_555
H59 C58 1_555 1_555
H60 C59 1_555 1_555
H61 C60 1_555 1_555
H62 C61 1_555 1_555
H63 C62 1_555 1_555
H64 C64 1_555 1_555
H65 C65 1_555 1_555
H66 C66 1_555 1_555
H67 C67 1_555 1_555
H68 C68 1_555 1_555
H69 C70 1_555 1_555
H70 C71 1_555 1_555
H71 C72 1_555 1_555
H72 C73 1_555 1_555
H73 C74 1_555 1_555
Cl3 C75 1_555 1_555
Cl4 C75 1_555 1_555
C75 H74 1_555 1_555
H75 C75 1_555 1_555
Cl5 C76 1_555 1_555
Cl6 C76 1_555 1_555
C76 H76 1_555 1_555
H77 C76 1_555 1_555
F1 B1 1_555 1_555
F2 B1 1_555 1_555
F3 B1 1_555 1_555
F4 B1 1_555 1_555
As3C Cu3 1_555 1_555
Cu3C As3 1_555 1_555
As2 Fe1 1_555 1_555
As3 Fe1 1_555 1_555
As4 Fe1 1_555 1_555
As5 Fe1 1_555 1_555
P2 C11 1_555 1_555
P3 C12 1_555 1_555
P5 C13 1_555 1_555
P6 C14 1_555 1_555
C1 C2 1_555 1_555
C1 C5 1_555 1_555
C2 C3 1_555 1_555
C3 C4 1_555 1_555
C4 C5 1_555 1_555
C19 C20 1_555 1_555
C25 C26 1_555 1_555
C31 C32 1_555 1_555
C37 C38 1_555 1_555
C43 C44 1_555 1_555
C49 C50 1_555 1_555
C55 C56 1_555 1_555
C61 C62 1_555 1_555
C67 C68 1_555 1_555
C73 C74 1_555 1_555

#END
