
#######################################################################
#
#                 Cambridge Crystallographic Data Centre
#                                CCDC 
#
#######################################################################
#
# If this CIF has been generated from an entry in the Cambridge 
# Structural Database, then it will include bibliographic, chemical, 
# crystal, experimental, refinement or atomic coordinate data resulting 
# from the CCDC's data processing and validation procedures.
#
#######################################################################

data_LUDBOB01
_symmetry_cell_setting           monoclinic
_symmetry_space_group_name_H-M   'C 2/c'
_symmetry_Int_Tables_number      15
_space_group_name_Hall           '-C 2yn'
loop_
_symmetry_equiv_pos_site_id
_symmetry_equiv_pos_as_xyz
1 x,y,z
2 -x,y,1/2-z
3 1/2+x,1/2+y,z
4 1/2-x,1/2+y,1/2-z
5 -x,-y,-z
6 x,-y,1/2+z
7 1/2-x,1/2-y,-z
8 1/2+x,1/2-y,1/2+z
_cell_length_a                   10.6750(8)
_cell_length_b                   11.0391(8)
_cell_length_c                   22.6495(17)
_cell_angle_alpha                90
_cell_angle_beta                 101.351(4)
_cell_angle_gamma                90
_cell_volume                     2616.86
loop_
_atom_site_label
_atom_site_type_symbol
_atom_site_fract_x
_atom_site_fract_y
_atom_site_fract_z
C1 C 0.5000 0.0801(3) 0.2500
C2 C 0.6004(3) 0.2800(3) 0.28336(13)
H1 H 0.6700 0.2398 0.3062
C3 C 0.5194(3) 0.6500(2) 0.13943(13)
C4 C 0.5554(3) 0.6456(2) 0.07849(13)
C5 C 0.5965(3) 0.4054(3) 0.28250(13)
H2 H 0.6641 0.4480 0.3056
C6 C 0.8334(3) 0.5546(3) 0.00820(13)
C7 C 0.4664(3) 0.6797(3) 0.02770(12)
H3 H 0.3866 0.7082 0.0320
C8 C 0.6139(3) 0.6295(3) -0.03581(13)
H4 H 0.6327 0.6224 -0.0740
C9 C 0.3916(3) -0.1110(3) 0.23162(13)
H5 H 0.3161 -0.1536 0.2186
C10 C 0.7048(3) 0.5978(3) 0.01459(12)
C11 C 0.4955(3) 0.6716(3) -0.02917(13)
C12 C 0.5000 0.2150(4) 0.2500
C13 C 0.3877(3) 0.0145(3) 0.23135(13)
H6 H 0.3106 0.0548 0.2188
C14 C 0.6752(3) 0.6055(3) 0.07185(12)
H7 H 0.7358 0.5838 0.1056
C15 C 0.3965(3) 0.7059(3) -0.08322(12)
Cu1 Cu 0.5000 0.64743(3) 0.2500
H8 H 0.2529 0.7937 -0.0999
H9 H 0.9351 0.5414 -0.0461
N1 N 0.5000 0.4678(3) 0.2500
N2 N 0.5000 -0.1731(3) 0.2500
O1 O 0.6068(2) 0.64588(15) 0.18550(9)
O2 O 0.4035(2) 0.65610(18) 0.14310(10)
O3 O 0.3977(3) 0.6733(3) -0.13360(11)
O4 O 0.3079(2) 0.7754(3) -0.06859(10)
O5 O 0.8577(2) 0.5576(2) -0.04455(10)
O6 O 0.9106(2) 0.5195(3) 0.05395(11)
C2A C 0.3996(3) 0.2800(3) 0.21664(13)
H1A H 0.3300 0.2398 0.1938
C3A C 0.4806(3) 0.6500(2) 0.36057(13)
C4A C 0.4446(3) 0.6456(2) 0.42151(13)
C5A C 0.4035(3) 0.4054(3) 0.21750(13)
H2A H 0.3359 0.4480 0.1944
C6A C 0.1666(3) 0.5546(3) 0.49180(13)
C7A C 0.5336(3) 0.6797(3) 0.47230(12)
H3A H 0.6134 0.7082 0.4680
C8A C 0.3861(3) 0.6295(3) 0.53581(13)
H4A H 0.3673 0.6224 0.5740
C9A C 0.6084(3) -0.1110(3) 0.26838(13)
H5A H 0.6839 -0.1536 0.2814
C10A C 0.2952(3) 0.5978(3) 0.48541(12)
C11A C 0.5045(3) 0.6716(3) 0.52917(13)
C13A C 0.6123(3) 0.0145(3) 0.26865(13)
H6A H 0.6894 0.0548 0.2812
C14A C 0.3248(3) 0.6055(3) 0.42815(12)
H7A H 0.2642 0.5838 0.3944
C15A C 0.6035(3) 0.7059(3) 0.58322(12)
Cu1_2 Cu 0.5000 -0.35257(3) 0.2500
H8A H 0.7471 0.7937 0.5999
H9A H 0.0649 0.5414 0.5461
N2_2 N 0.5000 0.8269(3) 0.2500
O1A O 0.3932(2) 0.64588(15) 0.31450(9)
O2A O 0.5965(2) 0.65610(18) 0.35690(10)
O3A O 0.6023(3) 0.6733(3) 0.63360(11)
O4A O 0.6921(2) 0.7754(3) 0.56859(10)
O5A O 0.1423(2) 0.5576(2) 0.54455(10)
O6A O 0.0894(2) 0.5195(3) 0.44605(11)
loop_
_geom_bond_atom_site_label_1
_geom_bond_atom_site_label_2
_geom_bond_site_symmetry_1
_geom_bond_site_symmetry_2
C1 C12 1_555 1_555
C2 H1 1_555 1_555
C3 C4 1_555 1_555
C4 C7 1_555 1_555
C5 C2 1_555 1_555
H2 C5 1_555 1_555
C6 C10 1_555 1_555
C7 H3 1_555 1_555
C8 H4 1_555 1_555
C9 H5 1_555 1_555
C10 C8 1_555 1_555
C11 C7 1_555 1_555
C12 C2 1_555 1_555
C13 C1 1_555 1_555
H6 C13 1_555 1_555
C14 C4 1_555 1_555
H7 C14 1_555 1_555
C15 C11 1_555 1_555
Cu1 N1 1_555 1_555
H8 O4 1_555 1_555
H9 O5 1_555 1_555
N1 C5 1_555 1_555
N2 C9 1_555 1_555
O1 C3 1_555 1_555
O2 C3 1_555 1_555
O3 C15 1_555 1_555
O4 C15 1_555 1_555
O5 C6 1_555 1_555
O6 C6 1_555 1_555
C2A C12 1_555 1_555
H1A C2A 1_555 1_555
C3A C4A 1_555 1_555
C4A C7A 1_555 1_555
C5A N1 1_555 1_555
H2A C5A 1_555 1_555
C6A C10A 1_555 1_555
C7A H3A 1_555 1_555
C8A H4A 1_555 1_555
C9A N2 1_555 1_555
H5A C9A 1_555 1_555
C10A C8A 1_555 1_555
C11A C7A 1_555 1_555
C13A C1 1_555 1_555
H6A C13A 1_555 1_555
C14A C4A 1_555 1_555
H7A C14A 1_555 1_555
C15A C11A 1_555 1_555
Cu1_2 N2 1_555 1_555
H8A O4A 1_555 1_555
H9A O5A 1_555 1_555
N2_2 Cu1 1_555 1_555
O1A Cu1 1_555 1_555
O2A Cu1 1_555 1_555
O3A C15A 1_555 1_555
O4A C15A 1_555 1_555
O5A C6A 1_555 1_555
O6A C6A 1_555 1_555
C8 C11 1_555 1_555
C9 C13 1_555 1_555
C10 C14 1_555 1_555
Cu1 O1 1_555 1_555
Cu1 O2 1_555 1_555
C2A C5A 1_555 1_555
C3A O1A 1_555 1_555
C3A O2A 1_555 1_555
C8A C11A 1_555 1_555
C9A C13A 1_555 1_555
C10A C14A 1_555 1_555

#END
