
#######################################################################
#
#                 Cambridge Crystallographic Data Centre
#                                CCDC 
#
#######################################################################
#
# If this CIF has been generated from an entry in the Cambridge 
# Structural Database, then it will include bibliographic, chemical, 
# crystal, experimental, refinement or atomic coordinate data resulting 
# from the CCDC's data processing and validation procedures.
#
#######################################################################

data_LUDBOB
_symmetry_cell_setting           monoclinic
_symmetry_space_group_name_H-M   'C 2/c'
_symmetry_Int_Tables_number      15
_space_group_name_Hall           '-C 2yn'
loop_
_symmetry_equiv_pos_site_id
_symmetry_equiv_pos_as_xyz
1 x,y,z
2 -x,y,1/2-z
3 1/2+x,1/2+y,z
4 1/2-x,1/2+y,1/2-z
5 -x,-y,-z
6 x,-y,1/2+z
7 1/2-x,1/2-y,-z
8 1/2+x,1/2-y,1/2+z
_cell_length_a                   10.717(2)
_cell_length_b                   11.089(3)
_cell_length_c                   22.778(5)
_cell_angle_alpha                90
_cell_angle_beta                 101.39(1)
_cell_angle_gamma                90
_cell_volume                     2653.64
loop_
_atom_site_label
_atom_site_type_symbol
_atom_site_fract_x
_atom_site_fract_y
_atom_site_fract_z
Cu1 Cu 0.5000 0.3523(1) -0.2500
O1 O 0.3929(1) 0.3538(1) -0.1856(1)
O2 O 0.5968(1) 0.3437(2) -0.1431(1)
O3 O 0.0891(2) 0.4806(2) -0.0540(1)
O4 O 0.1418(2) 0.4424(2) 0.0445(1)
O5 O 0.6927(2) 0.2253(3) 0.0685(1)
O6 O 0.6014(2) 0.3265(3) 0.1336(1)
N1 N 0.5000 0.1728(2) -0.2500
N2 N 0.5000 -0.4678(2) -0.2500
C1 C 0.4448(2) 0.3542(2) -0.0784(1)
C2 C 0.3245(2) 0.3945(2) -0.0717(1)
C3 C 0.2954(2) 0.4022(2) -0.0147(1)
C4 C 0.3858(2) 0.3704(2) 0.0358(1)
C5 C 0.5048(2) 0.3282(2) 0.0292(1)
C6 C 0.5335(2) 0.3202(2) -0.0278(1)
C7 C 0.4812(2) 0.3498(2) -0.1391(1)
C8 C 0.1666(2) 0.4457(2) -0.0081(1)
C9 C 0.6031(2) 0.2944(3) 0.0834(1)
C10 C 0.3917(2) 0.1104(2) -0.2685(1)
C11 C 0.3877(2) -0.0147(2) -0.2685(1)
C12 C 0.5000 -0.0800(3) -0.2500
C13 C 0.5000 -0.2152(3) -0.2500
C14 C 0.3989(2) -0.2806(2) -0.2833(1)
C15 C 0.4030(2) -0.4056(2) -0.2823(1)
O1A O 0.6071(1) 0.3538(1) -0.3144(1)
C7A C 0.5188(2) 0.3498(2) -0.3609(1)
O2A O 0.4032(1) 0.3437(2) -0.3569(1)
C11A C 0.6123(2) -0.0147(2) -0.2315(1)
C10A C 0.6083(2) 0.1104(2) -0.2315(1)
N2_2 N 0.5000 0.5322(2) -0.2500
Cu1_2 Cu 0.5000 -0.6477(1) -0.2500
C15A C 0.5970(2) -0.4056(2) -0.2177(1)
C14A C 0.6011(2) -0.2806(2) -0.2167(1)
C1A C 0.5552(2) 0.3542(2) -0.4216(1)
C2A C 0.6755(2) 0.3945(2) -0.4283(1)
C3A C 0.7046(2) 0.4022(2) -0.4853(1)
C4A C 0.6142(2) 0.3704(2) -0.5358(1)
C5A C 0.4952(2) 0.3282(2) -0.5292(1)
C6A C 0.4665(2) 0.3202(2) -0.4722(1)
C9A C 0.3969(2) 0.2944(3) -0.5834(1)
O5A O 0.3073(2) 0.2253(3) -0.5685(1)
O6A O 0.3986(2) 0.3265(3) -0.6336(1)
C8A C 0.8334(2) 0.4457(2) -0.4919(1)
O3A O 0.9109(2) 0.4806(2) -0.4460(1)
O4A O 0.8582(2) 0.4424(2) -0.5445(1)
loop_
_geom_bond_atom_site_label_1
_geom_bond_atom_site_label_2
_geom_bond_site_symmetry_1
_geom_bond_site_symmetry_2
Cu1 O1 1_555 1_555
O1 C7 1_555 1_555
O2 Cu1 1_555 1_555
O3 C8 1_555 1_555
O4 C8 1_555 1_555
O5 C9 1_555 1_555
O6 C9 1_555 1_555
N1 Cu1 1_555 1_555
N2 C15 1_555 1_555
C1 C2 1_555 1_555
C2 C3 1_555 1_555
C3 C4 1_555 1_555
C4 C5 1_555 1_555
C5 C6 1_555 1_555
C6 C1 1_555 1_555
C7 O2 1_555 1_555
C8 C3 1_555 1_555
C9 C5 1_555 1_555
C10 N1 1_555 1_555
C11 C10 1_555 1_555
C12 C11 1_555 1_555
C13 C12 1_555 1_555
C14 C13 1_555 1_555
C15 C14 1_555 1_555
O1A Cu1 1_555 1_555
C7A O1A 1_555 1_555
O2A Cu1 1_555 1_555
C11A C12 1_555 1_555
C10A N1 1_555 1_555
N2_2 Cu1 1_555 1_555
Cu1_2 N2 1_555 1_555
C15A N2 1_555 1_555
C14A C13 1_555 1_555
C1A C7A 1_555 1_555
C2A C1A 1_555 1_555
C3A C2A 1_555 1_555
C4A C3A 1_555 1_555
C5A C4A 1_555 1_555
C6A C1A 1_555 1_555
C9A C5A 1_555 1_555
O5A C9A 1_555 1_555
O6A C9A 1_555 1_555
C8A C3A 1_555 1_555
O3A C8A 1_555 1_555
O4A C8A 1_555 1_555
C1 C7 1_555 1_555
C7A O2A 1_555 1_555
C11A C10A 1_555 1_555
C15A C14A 1_555 1_555
C5A C6A 1_555 1_555

#END
