
#######################################################################
#
#                 Cambridge Crystallographic Data Centre
#                                CCDC 
#
#######################################################################
#
# If this CIF has been generated from an entry in the Cambridge 
# Structural Database, then it will include bibliographic, chemical, 
# crystal, experimental, refinement or atomic coordinate data resulting 
# from the CCDC's data processing and validation procedures.
#
#######################################################################

data_LUDPUX
_symmetry_cell_setting           monoclinic
_symmetry_space_group_name_H-M   'P 21/c'
_symmetry_Int_Tables_number      14
_space_group_name_Hall           '-P 2ybc'
loop_
_symmetry_equiv_pos_site_id
_symmetry_equiv_pos_as_xyz
1 x,y,z
2 -x,1/2+y,1/2-z
3 -x,-y,-z
4 x,1/2-y,1/2+z
_cell_length_a                   11.5694(8)
_cell_length_b                   14.1431(10)
_cell_length_c                   21.9693(16)
_cell_angle_alpha                90
_cell_angle_beta                 100.856(2)
_cell_angle_gamma                90
_cell_volume                     3530.44
loop_
_atom_site_label
_atom_site_type_symbol
_atom_site_fract_x
_atom_site_fract_y
_atom_site_fract_z
C1 C 0.0691(3) 0.4683(3) 0.24067(18)
H1 H 0.1136 0.4955 0.2779
H2 H 0.1206 0.4555 0.2121
H3 H 0.0333 0.4105 0.2505
C2 C -0.0230(3) 0.5351(2) 0.21232(16)
C3 C -0.1428(3) 0.6556(2) 0.19471(16)
C4 C -0.2046(3) 0.7386(3) 0.19703(17)
H4 H -0.1920 0.7765 0.2322
C5 C -0.2854(4) 0.7628(3) 0.1453(2)
H5 H -0.3289 0.8181 0.1458
C6 C -0.3041(4) 0.7073(3) 0.09235(19)
H6 H -0.3587 0.7268 0.0580
C7 C -0.2443(4) 0.6246(3) 0.08947(19)
H7 H -0.2579 0.5866 0.0543
C8 C -0.1624(3) 0.6003(2) 0.14153(16)
C9 C -0.0815(4) 0.4448(2) 0.11193(16)
H8 H -0.1593 0.4170 0.1009
H9 H -0.0286 0.3969 0.1329
C10 C -0.0404(3) 0.4753(2) 0.05384(16)
C11 C -0.0970(3) 0.4433(2) -0.00325(17)
H10 H -0.1630 0.4048 -0.0058
C12 C 0.0574(4) 0.5327(2) 0.05674(18)
H11 H 0.0967 0.5552 0.0948
C13 C 0.2014(4) 0.6945(3) 0.45482(18)
H12 H 0.1630 0.7397 0.4252
H13 H 0.2827 0.6895 0.4515
H14 H 0.1959 0.7149 0.4959
C14 C 0.1439(3) 0.6015(3) 0.44243(17)
C15 C 0.0284(3) 0.4878(2) 0.40318(16)
C16 C -0.0562(3) 0.4316(3) 0.36822(18)
H15 H -0.1072 0.4554 0.3338
C17 C -0.0625(4) 0.3388(3) 0.3861(2)
H16 H -0.1179 0.2989 0.3629
C18 C 0.0115(4) 0.3036(3) 0.4377(2)
H17 H 0.0054 0.2402 0.4480
C19 C 0.0933(4) 0.3587(3) 0.4742(2)
H18 H 0.1418 0.3350 0.5095
C20 C 0.1005(3) 0.4524(3) 0.45569(17)
C21 C 0.2692(3) 0.5226(3) 0.53321(17)
H19 H 0.2565 0.4699 0.5594
H20 H 0.2693 0.5801 0.5573
C22 C 0.3882(3) 0.5115(2) 0.51485(16)
C23 C 0.4878(4) 0.5335(3) 0.55587(19)
H21 H 0.4815 0.5573 0.5946
C24 C 0.4021(3) 0.4783(3) 0.45820(19)
H22 H 0.3359 0.4634 0.4286
C25 C 0.2094(3) 0.7277(3) 0.29220(18)
C26 C 0.2979(3) 0.7941(3) 0.27324(17)
C27 C 0.2857(3) 0.8901(3) 0.27401(19)
H23 H 0.2184 0.9159 0.2848
C28 C 0.3701(4) 0.9495(3) 0.2593(2)
H24 H 0.3594 1.0146 0.2591
C29 C 0.4695(4) 0.9117(3) 0.24495(19)
C30 C 0.4851(4) 0.8171(3) 0.2432(2)
H25 H 0.5529 0.7920 0.2326
C31 C 0.3991(4) 0.7585(3) 0.2574(2)
H26 H 0.4095 0.6934 0.2563
C32 C -0.1995(3) 0.7080(3) 0.35694(17)
C33 C -0.2959(3) 0.7568(3) 0.38137(16)
C34 C -0.2901(4) 0.8526(3) 0.3954(2)
H27 H -0.2249 0.8878 0.3898
C35 C -0.3808(4) 0.8960(3) 0.4177(2)
H28 H -0.3777 0.9604 0.4262
C36 C -0.4744(4) 0.8438(3) 0.4270(2)
C37 C -0.4816(4) 0.7496(3) 0.4142(2)
H29 H -0.5457 0.7146 0.4213
C38 C -0.3927(3) 0.7069(3) 0.39064(19)
H30 H -0.3984 0.6429 0.3808
Cl1 Cl 0.58140(11) 0.98538(9) 0.22884(6)
Cl2 Cl -0.58735(12) 0.89736(11) 0.45641(8)
N1 N -0.0556(3) 0.6127(2) 0.23848(13)
N2 N -0.0857(3) 0.52411(19) 0.15397(13)
N3 N 0.0585(2) 0.5820(2) 0.39489(13)
N4 N 0.1726(3) 0.5268(2) 0.48045(14)
O1 O 0.2280(3) 0.6430(2) 0.29415(18)
O2 O 0.1181(2) 0.76560(17) 0.30692(12)
O3 O -0.1107(2) 0.75717(17) 0.34966(11)
O4 O -0.2087(2) 0.62271(19) 0.34565(13)
Zn1 Zn 0.00367(4) 0.66858(3) 0.322618(19)
C1B C -0.0691(3) 0.5317(3) -0.24067(18)
H1B H -0.1136 0.5045 -0.2779
H2B H -0.1206 0.5445 -0.2121
H3B H -0.0333 0.5895 -0.2505
C2B C 0.0230(3) 0.4649(2) -0.21232(16)
C3B C 0.1428(3) 0.3444(2) -0.19471(16)
C4B C 0.2046(3) 0.2614(3) -0.19703(17)
H4B H 0.1920 0.2235 -0.2322
C5B C 0.2854(4) 0.2372(3) -0.1453(2)
H5B H 0.3289 0.1819 -0.1458
C6B C 0.3041(4) 0.2927(3) -0.09235(19)
H6B H 0.3587 0.2732 -0.0580
C7B C 0.2443(4) 0.3754(3) -0.08947(19)
H7B H 0.2579 0.4134 -0.0543
C8B C 0.1624(3) 0.3997(2) -0.14153(16)
C9B C 0.0815(4) 0.5552(2) -0.11193(16)
H8B H 0.1593 0.5830 -0.1009
H9B H 0.0286 0.6031 -0.1329
C10B C 0.0404(3) 0.5247(2) -0.05384(16)
C11B C 0.0970(3) 0.5567(2) 0.00325(17)
H10B H 0.1630 0.5952 0.0058
C12B C -0.0574(4) 0.4673(2) -0.05674(18)
H11B H -0.0967 0.4448 -0.0948
N1B N 0.0556(3) 0.3873(2) -0.23848(13)
N2B N 0.0857(3) 0.47589(19) -0.15397(13)
C13B C 0.7986(4) 0.3055(3) 0.54518(18)
H12B H 0.8370 0.2603 0.5748
H13B H 0.7173 0.3105 0.5485
H14B H 0.8041 0.2851 0.5041
C14B C 0.8561(3) 0.3985(3) 0.55757(17)
C15B C 0.9716(3) 0.5122(2) 0.59682(16)
C16B C 1.0562(3) 0.5684(3) 0.63178(18)
H15B H 1.1072 0.5446 0.6662
C17B C 1.0625(4) 0.6612(3) 0.6139(2)
H16B H 1.1179 0.7011 0.6371
C18B C 0.9885(4) 0.6964(3) 0.5623(2)
H17B H 0.9946 0.7598 0.5520
C19B C 0.9067(4) 0.6413(3) 0.5258(2)
H18B H 0.8582 0.6650 0.4905
C20B C 0.8995(3) 0.5476(3) 0.54431(17)
C21B C 0.7308(3) 0.4774(3) 0.46679(17)
H19B H 0.7435 0.5301 0.4406
H20B H 0.7307 0.4199 0.4427
C22B C 0.6118(3) 0.4885(2) 0.48515(16)
C23B C 0.5122(4) 0.4665(3) 0.44413(19)
H21B H 0.5185 0.4427 0.4054
C24B C 0.5979(3) 0.5217(3) 0.54180(19)
H22B H 0.6641 0.5366 0.5714
N3B N 0.9415(2) 0.4180(2) 0.60511(13)
N4B N 0.8274(3) 0.4732(2) 0.51955(14)
C25B C -0.2094(3) 0.2723(3) -0.29220(18)
C26B C -0.2979(3) 0.2059(3) -0.27324(17)
C27B C -0.2857(3) 0.1099(3) -0.27401(19)
H23B H -0.2184 0.0841 -0.2848
C28B C -0.3701(4) 0.0505(3) -0.2593(2)
H24B H -0.3594 -0.0146 -0.2591
C29B C -0.4695(4) 0.0883(3) -0.24495(19)
C30B C -0.4851(4) 0.1829(3) -0.2432(2)
H25B H -0.5529 0.2080 -0.2326
C31B C -0.3991(4) 0.2415(3) -0.2574(2)
H26B H -0.4095 0.3066 -0.2563
C32B C 0.1995(3) 0.2920(3) -0.35694(17)
C33B C 0.2959(3) 0.2432(3) -0.38137(16)
C34B C 0.2901(4) 0.1474(3) -0.3954(2)
H27B H 0.2249 0.1122 -0.3898
C35B C 0.3808(4) 0.1040(3) -0.4177(2)
H28B H 0.3777 0.0396 -0.4262
C36B C 0.4744(4) 0.1562(3) -0.4270(2)
C37B C 0.4816(4) 0.2504(3) -0.4142(2)
H29B H 0.5457 0.2854 -0.4213
C38B C 0.3927(3) 0.2931(3) -0.39064(19)
H30B H 0.3984 0.3571 -0.3808
Cl1B Cl -0.58140(11) 0.01462(9) -0.22884(6)
Cl2B Cl 0.58735(12) 0.10264(11) -0.45641(8)
O1B O -0.2280(3) 0.3570(2) -0.29415(18)
O2B O -0.1181(2) 0.23440(17) -0.30692(12)
O3B O 0.1107(2) 0.24283(17) -0.34966(11)
O4B O 0.2087(2) 0.37729(19) -0.34565(13)
Zn1B Zn -0.00367(4) 0.33142(3) -0.322618(19)
N3B_2 N -0.0585(2) 0.4180(2) -0.39489(13)
Zn1B_2 Zn 0.99633(4) 0.33142(3) 0.677382(19)
loop_
_geom_bond_atom_site_label_1
_geom_bond_atom_site_label_2
_geom_bond_site_symmetry_1
_geom_bond_site_symmetry_2
C1 H1 1_555 1_555
H2 C1 1_555 1_555
H3 C1 1_555 1_555
C2 C1 1_555 1_555
C3 C4 1_555 1_555
C4 H4 1_555 1_555
C5 C4 1_555 1_555
H5 C5 1_555 1_555
C6 C5 1_555 1_555
H6 C6 1_555 1_555
C7 C6 1_555 1_555
H7 C7 1_555 1_555
C8 C3 1_555 1_555
C9 H8 1_555 1_555
H9 C9 1_555 1_555
C10 C9 1_555 1_555
C11 C10 1_555 1_555
H10 C11 1_555 1_555
C12 C10 1_555 1_555
H11 C12 1_555 1_555
C13 H12 1_555 1_555
H13 C13 1_555 1_555
H14 C13 1_555 1_555
C14 C13 1_555 1_555
C15 C16 1_555 1_555
C16 H15 1_555 1_555
C17 C16 1_555 1_555
H16 C17 1_555 1_555
C18 C17 1_555 1_555
H17 C18 1_555 1_555
C19 C18 1_555 1_555
H18 C19 1_555 1_555
C20 C15 1_555 1_555
C21 H19 1_555 1_555
H20 C21 1_555 1_555
C22 C21 1_555 1_555
C23 C22 1_555 1_555
H21 C23 1_555 1_555
C24 C22 1_555 1_555
H22 C24 1_555 1_555
C25 C26 1_555 1_555
C26 C27 1_555 1_555
C27 H23 1_555 1_555
C28 C27 1_555 1_555
H24 C28 1_555 1_555
C29 C28 1_555 1_555
C30 C29 1_555 1_555
H25 C30 1_555 1_555
C31 C26 1_555 1_555
H26 C31 1_555 1_555
C32 C33 1_555 1_555
C33 C34 1_555 1_555
C34 H27 1_555 1_555
C35 C34 1_555 1_555
H28 C35 1_555 1_555
C36 C35 1_555 1_555
C37 C36 1_555 1_555
H29 C37 1_555 1_555
C38 C33 1_555 1_555
H30 C38 1_555 1_555
Cl1 C29 1_555 1_555
Cl2 C36 1_555 1_555
N1 C2 1_555 1_555
N2 C2 1_555 1_555
N3 C14 1_555 1_555
N4 C14 1_555 1_555
O1 C25 1_555 1_555
O2 C25 1_555 1_555
O3 C32 1_555 1_555
O4 C32 1_555 1_555
Zn1 N1 1_555 1_555
C1B H1B 1_555 1_555
H2B C1B 1_555 1_555
H3B C1B 1_555 1_555
C2B C1B 1_555 1_555
C3B C4B 1_555 1_555
C4B H4B 1_555 1_555
C5B C4B 1_555 1_555
H5B C5B 1_555 1_555
C6B C5B 1_555 1_555
H6B C6B 1_555 1_555
C7B C6B 1_555 1_555
H7B C7B 1_555 1_555
C8B C3B 1_555 1_555
C9B H8B 1_555 1_555
H9B C9B 1_555 1_555
C10B C9B 1_555 1_555
C11B C12 1_555 1_555
H10B C11B 1_555 1_555
C12B C11 1_555 1_555
H11B C12B 1_555 1_555
N1B C2B 1_555 1_555
N2B C2B 1_555 1_555
C13B H12B 1_555 1_555
H13B C13B 1_555 1_555
H14B C13B 1_555 1_555
C14B C13B 1_555 1_555
C15B C16B 1_555 1_555
C16B H15B 1_555 1_555
C17B C16B 1_555 1_555
H16B C17B 1_555 1_555
C18B C17B 1_555 1_555
H17B C18B 1_555 1_555
C19B C18B 1_555 1_555
H18B C19B 1_555 1_555
C20B C15B 1_555 1_555
C21B H19B 1_555 1_555
H20B C21B 1_555 1_555
C22B C21B 1_555 1_555
C23B C24 1_555 1_555
H21B C23B 1_555 1_555
C24B C23 1_555 1_555
H22B C24B 1_555 1_555
N3B C14B 1_555 1_555
N4B C14B 1_555 1_555
C25B C26B 1_555 1_555
C26B C27B 1_555 1_555
C27B H23B 1_555 1_555
C28B C27B 1_555 1_555
H24B C28B 1_555 1_555
C29B C28B 1_555 1_555
C30B C29B 1_555 1_555
H25B C30B 1_555 1_555
C31B C26B 1_555 1_555
H26B C31B 1_555 1_555
C32B C33B 1_555 1_555
C33B C34B 1_555 1_555
C34B H27B 1_555 1_555
C35B C34B 1_555 1_555
H28B C35B 1_555 1_555
C36B C35B 1_555 1_555
C37B C36B 1_555 1_555
H29B C37B 1_555 1_555
C38B C33B 1_555 1_555
H30B C38B 1_555 1_555
Cl1B C29B 1_555 1_555
Cl2B C36B 1_555 1_555
O1B C25B 1_555 1_555
O2B C25B 1_555 1_555
O3B C32B 1_555 1_555
O4B C32B 1_555 1_555
Zn1B N1B 1_555 1_555
N3B_2 Zn1B 1_555 1_555
Zn1B_2 N3B 1_555 1_555
C3 N1 1_555 1_555
C7 C8 1_555 1_555
C8 N2 1_555 1_555
C9 N2 1_555 1_555
C15 N3 1_555 1_555
C19 C20 1_555 1_555
C20 N4 1_555 1_555
C21 N4 1_555 1_555
C30 C31 1_555 1_555
C37 C38 1_555 1_555
N3 Zn1 1_555 1_555
O2 Zn1 1_555 1_555
O3 Zn1 1_555 1_555
C3B N1B 1_555 1_555
C7B C8B 1_555 1_555
C8B N2B 1_555 1_555
C9B N2B 1_555 1_555
C10B C11B 1_555 1_555
C10B C12B 1_555 1_555
C15B N3B 1_555 1_555
C19B C20B 1_555 1_555
C20B N4B 1_555 1_555
C21B N4B 1_555 1_555
C22B C23B 1_555 1_555
C22B C24B 1_555 1_555
C30B C31B 1_555 1_555
C37B C38B 1_555 1_555
O2B Zn1B 1_555 1_555
O3B Zn1B 1_555 1_555

#END
