
#######################################################################
#
#                 Cambridge Crystallographic Data Centre
#                                CCDC 
#
#######################################################################
#
# If this CIF has been generated from an entry in the Cambridge 
# Structural Database, then it will include bibliographic, chemical, 
# crystal, experimental, refinement or atomic coordinate data resulting 
# from the CCDC's data processing and validation procedures.
#
#######################################################################

data_LUDSUA
_symmetry_cell_setting           monoclinic
_symmetry_space_group_name_H-M   'P 21/c'
_symmetry_Int_Tables_number      14
_space_group_name_Hall           '-P 2ybc'
loop_
_symmetry_equiv_pos_site_id
_symmetry_equiv_pos_as_xyz
1 x,y,z
2 -x,1/2+y,1/2-z
3 -x,-y,-z
4 x,1/2-y,1/2+z
_cell_length_a                   9.5523(19)
_cell_length_b                   26.647(5)
_cell_length_c                   11.094(2)
_cell_angle_alpha                90
_cell_angle_beta                 98.23(3)
_cell_angle_gamma                90
_cell_volume                     2794.79
loop_
_atom_site_label
_atom_site_type_symbol
_atom_site_fract_x
_atom_site_fract_y
_atom_site_fract_z
C1 C 0.6366(3) 0.64363(13) 0.4237(2)
H1 H 0.6387 0.6796 0.4188
H2 H 0.5461 0.6330 0.4425
H3 H 0.6518 0.6296 0.3470
C2 C 0.8302(3) 0.65798(10) 0.5848(2)
H4 H 0.8986 0.6443 0.6438
O1 O 0.8245(2) 0.70322(8) 0.5751(2)
N1 N 0.7446(2) 0.62697(9) 0.51637(17)
C3 C 0.7659(3) 0.57245(11) 0.5277(3)
H5 H 0.7947 0.5596 0.4542
H6 H 0.6790 0.5567 0.5410
H7 H 0.8379 0.5655 0.5952
O2 O 0.7110(4) 0.76860(13) 0.3921(4)
H8 H 0.7232 0.7390 0.4203
H9 H 0.7230 0.7688 0.3176
C4 C 1.09841(18) 0.69597(6) 1.40173(15)
H10 H 1.1700 0.6764 1.4519
H11 H 1.0373 0.7107 1.4548
Cd1 Cd 0.247978(12) 0.604395(4) 0.772879(12)
Cl1 Cl 0.03406(5) 0.561574(18) 0.81274(5)
Cl2 Cl 0.31717(5) 0.58113(2) 0.57755(4)
N2 N 0.63431(12) 0.56712(5) 1.02195(11)
C5 C 0.85863(15) 0.59686(6) 1.14304(14)
C6 C 0.78755(15) 0.56076(6) 1.04803(14)
H12 H 0.8276 0.5653 0.9732
H13 H 0.8081 0.5267 1.0759
N3 N 0.41980(12) 0.58655(5) 0.92742(11)
C7 C 0.54037(15) 0.55233(5) 1.09923(13)
C8 C 0.56348(17) 0.53010(6) 1.21432(14)
H14 H 0.6537 0.5219 1.2525
C9 C 0.62252(18) 0.60881(7) 0.81718(15)
H15 H 0.5592 0.6041 0.7427
H16 H 0.7105 0.5921 0.8117
H17 H 0.6394 0.6440 0.8306
N4 N 1.22396(13) 0.81210(5) 1.28188(12)
C10 C 1.26663(16) 0.72869(6) 1.26376(15)
N5 N 1.16708(13) 0.73603(5) 1.34180(12)
C11 C 0.30997(18) 0.53371(7) 1.21108(16)
H18 H 0.2325 0.5276 1.2511
C12 C 0.40715(15) 0.56476(6) 1.03974(14)
C13 C 1.02750(17) 0.61069(6) 1.32345(16)
H19 H 1.0893 0.5975 1.3881
C14 C 1.01192(16) 0.66163(6) 1.31154(14)
C15 C 1.32717(19) 0.68568(7) 1.22293(19)
H20 H 1.3031 0.6538 1.2474
C16 C 1.30118(16) 0.77660(6) 1.22560(15)
C17 C 0.95128(16) 0.57841(6) 1.23925(16)
H21 H 0.9633 0.5439 1.2483
C18 C 0.91438(17) 0.68026(6) 1.21630(15)
H22 H 0.8996 0.7147 1.2089
C19 C 0.55777(16) 0.58733(6) 0.92085(14)
C20 C 0.28757(17) 0.55531(6) 1.09627(15)
H23 H 0.1971 0.5632 1.0583
C21 C 1.14636(17) 0.78597(6) 1.35002(15)
C22 C 0.83977(16) 0.64827(6) 1.13322(15)
H24 H 0.7760 0.6614 1.0698
C23 C 1.39817(19) 0.78267(7) 1.14560(17)
H25 H 1.4216 0.8144 1.1196
C24 C 1.4243(2) 0.69265(7) 1.1447(2)
H26 H 1.4684 0.6647 1.1168
C25 C 0.44354(18) 0.52099(7) 1.26823(16)
H27 H 0.4532 0.5060 1.3446
C26 C 1.0498(2) 0.80880(8) 1.42843(18)
H28 H 1.0354 0.8436 1.4076
H29 H 0.9606 0.7916 1.4161
H30 H 1.0910 0.8060 1.5123
C27 C 1.4592(2) 0.73986(8) 1.1057(2)
H31 H 1.5247 0.7428 1.0517
Cd1C Cd 1.247978(12) 0.895605(4) 1.272879(12)
N4C N 0.22396(13) 0.68790(5) 0.78188(12)
loop_
_geom_bond_atom_site_label_1
_geom_bond_atom_site_label_2
_geom_bond_site_symmetry_1
_geom_bond_site_symmetry_2
C1 H1 1_555 1_555
H2 C1 1_555 1_555
H3 C1 1_555 1_555
C2 H4 1_555 1_555
O1 C2 1_555 1_555
N1 C1 1_555 1_555
C3 N1 1_555 1_555
H5 C3 1_555 1_555
H6 C3 1_555 1_555
H7 C3 1_555 1_555
O2 H8 1_555 1_555
H9 O2 1_555 1_555
C4 H10 1_555 1_555
H11 C4 1_555 1_555
Cd1 Cl1 1_555 1_555
Cl2 Cd1 1_555 1_555
N2 C6 1_555 1_555
C5 C6 1_555 1_555
C6 H12 1_555 1_555
H13 C6 1_555 1_555
N3 Cd1 1_555 1_555
C7 N2 1_555 1_555
C8 C7 1_555 1_555
H14 C8 1_555 1_555
C9 H15 1_555 1_555
H16 C9 1_555 1_555
H17 C9 1_555 1_555
N4 C16 1_555 1_555
C10 N5 1_555 1_555
N5 C4 1_555 1_555
C11 H18 1_555 1_555
C12 N3 1_555 1_555
C13 H19 1_555 1_555
C14 C4 1_555 1_555
C15 C10 1_555 1_555
H20 C15 1_555 1_555
C16 C10 1_555 1_555
C17 C5 1_555 1_555
H21 C17 1_555 1_555
C18 C14 1_555 1_555
H22 C18 1_555 1_555
C19 N2 1_555 1_555
C20 C11 1_555 1_555
H23 C20 1_555 1_555
C21 N4 1_555 1_555
C22 C5 1_555 1_555
H24 C22 1_555 1_555
C23 C16 1_555 1_555
H25 C23 1_555 1_555
C24 C15 1_555 1_555
H26 C24 1_555 1_555
C25 C8 1_555 1_555
H27 C25 1_555 1_555
C26 C21 1_555 1_555
H28 C26 1_555 1_555
H29 C26 1_555 1_555
H30 C26 1_555 1_555
C27 C23 1_555 1_555
H31 C27 1_555 1_555
Cd1C N4 1_555 1_555
N4C Cd1 1_555 1_555
C2 N1 1_555 1_555
N3 C19 1_555 1_555
C7 C12 1_555 1_555
C9 C19 1_555 1_555
N5 C21 1_555 1_555
C11 C25 1_555 1_555
C12 C20 1_555 1_555
C13 C14 1_555 1_555
C13 C17 1_555 1_555
C18 C22 1_555 1_555
C24 C27 1_555 1_555

#END
