
#######################################################################
#
#                 Cambridge Crystallographic Data Centre
#                                CCDC 
#
#######################################################################
#
# If this CIF has been generated from an entry in the Cambridge 
# Structural Database, then it will include bibliographic, chemical, 
# crystal, experimental, refinement or atomic coordinate data resulting 
# from the CCDC's data processing and validation procedures.
#
#######################################################################

data_LUDTUZ
_symmetry_cell_setting           monoclinic
_symmetry_space_group_name_H-M   'C 2/c'
_symmetry_Int_Tables_number      15
_space_group_name_Hall           '-C 2yn'
loop_
_symmetry_equiv_pos_site_id
_symmetry_equiv_pos_as_xyz
1 x,y,z
2 1/2+x,1/2+y,z
3 x,-y,1/2+z
4 1/2+x,1/2-y,1/2+z
5 -x,-y,-z
6 1/2-x,1/2-y,-z
7 -x,y,1/2-z
8 1/2-x,1/2+y,1/2-z
_cell_length_a                   36.079(10)
_cell_length_b                   14.978(4)
_cell_length_c                   30.734(9)
_cell_angle_alpha                90
_cell_angle_beta                 102.470(5)
_cell_angle_gamma                90
_cell_volume                     16216.6
loop_
_atom_site_label
_atom_site_type_symbol
_atom_site_fract_x
_atom_site_fract_y
_atom_site_fract_z
Zn1 Zn 0.37701(3) 0.09068(8) 0.43463(4)
Zn2 Zn 0.5856(3) -0.6274(3) 0.5877(3)
Zn4 Zn 0.17284(3) -0.63528(8) 0.27398(5)
I1 I 0.39401(3) 0.23340(6) 0.39859(4)
I2 I 0.3637(3) 0.0714(10) 0.5158(3)
I4 I 0.62128(12) -0.73907(10) 0.54738(10)
I6 I 0.53297(10) -0.66292(19) 0.62608(10)
I8 I 0.12649(6) -0.66451(16) 0.19874(14)
I10 I 0.2321(2) -0.7269(7) 0.2983(4)
N1 N 0.5744(2) -0.2743(5) 0.4353(3)
N2 N 0.5243(2) -0.2282(5) 0.4698(3)
N3 N 0.5380(2) -0.1448(5) 0.4089(3)
C1 C 0.5521(3) -0.2848(6) 0.4637(3)
C2 C 0.5175(2) -0.1618(6) 0.4397(3)
C3 C 0.5673(2) -0.2010(6) 0.4097(4)
N4 N 0.5685(3) -0.5193(7) 0.5449(4)
C4 C 0.5918(4) -0.4996(10) 0.5186(7)
H1 H 0.6120 -0.5395 0.5173
C5 C 0.5879(4) -0.4219(9) 0.4926(6)
H2 H 0.6061 -0.4076 0.4754
C6 C 0.5574(3) -0.3667(7) 0.4922(4)
C7 C 0.5320(3) -0.3896(7) 0.5186(4)
H3 H 0.5103 -0.3540 0.5186
C8 C 0.5393(4) -0.4661(8) 0.5452(4)
H4 H 0.5226 -0.4804 0.5641
N5 N 0.4215(2) 0.0050(6) 0.4377(3)
C9 C 0.4358(4) -0.0061(10) 0.4033(4)
H5 H 0.4233 0.0230 0.3767
C10 C 0.4677(4) -0.0567(11) 0.4011(4)
H6 H 0.4775 -0.0595 0.3748
C11 C 0.4848(2) -0.1035(6) 0.4400(3)
C12 C 0.4692(3) -0.0960(7) 0.4762(3)
H7 H 0.4795 -0.1282 0.5027
C13 C 0.4380(3) -0.0407(7) 0.4742(4)
H8 H 0.4278 -0.0350 0.5001
N6 N 0.6409(2) -0.1506(5) 0.3219(3)
C14 C 0.6506(3) -0.2084(8) 0.3555(4)
H9 H 0.6745 -0.2375 0.3598
C15 C 0.6269(3) -0.2273(7) 0.3841(4)
H10 H 0.6342 -0.2706 0.4069
C16 C 0.5928(2) -0.1832(6) 0.3796(3)
C17 C 0.5839(3) -0.1213(7) 0.3454(4)
H11 H 0.5609 -0.0881 0.3416
C18 C 0.6081(3) -0.1074(7) 0.3167(4)
H12 H 0.6012 -0.0661 0.2929
N7 N 0.2207(2) -0.0468(5) 0.2696(3)
N8 N 0.2360(2) -0.1854(5) 0.3071(3)
N9 N 0.1827(2) -0.1728(5) 0.2456(3)
C19 C 0.1926(3) -0.0874(6) 0.2442(3)
C20 C 0.2410(3) -0.0973(7) 0.3023(3)
C21 C 0.2063(2) -0.2200(6) 0.2779(3)
N10 N 0.1221(3) 0.0586(6) 0.1382(4)
C22 C 0.1159(8) -0.0261(10) 0.1462(10)
H13 H 0.0941 -0.0545 0.1289
C23 C 0.1397(7) -0.0745(9) 0.1784(9)
H14 H 0.1358 -0.1369 0.1807
C24 C 0.1684(3) -0.0347(7) 0.2066(4)
C25 C 0.1747(3) 0.0530(7) 0.1993(3)
H15 H 0.1949 0.0839 0.2184
C26 C 0.1514(3) 0.0971(7) 0.1638(3)
H16 H 0.1570 0.1573 0.1579
N11 N 0.3339(2) 0.0301(5) 0.3906(3)
C27 C 0.3092(3) 0.0751(6) 0.3605(4)
H17 H 0.3128 0.1377 0.3586
C28 C 0.2786(3) 0.0375(7) 0.3317(3)
H18 H 0.2617 0.0739 0.3111
C29 C 0.2727(2) -0.0540(6) 0.3330(3)
C30 C 0.2981(3) -0.1027(7) 0.3645(4)
H19 H 0.2952 -0.1653 0.3675
C31 C 0.3283(3) -0.0561(7) 0.3921(4)
H20 H 0.3459 -0.0898 0.4132
N12 N 0.1851(2) -0.4998(5) 0.2763(3)
C32 C 0.2158(3) -0.4644(7) 0.3024(4)
H21 H 0.2333 -0.5035 0.3206
C33 C 0.2237(3) -0.3746(7) 0.3048(4)
H22 H 0.2459 -0.3529 0.3245
C34 C 0.1994(3) -0.3172(7) 0.2787(3)
C35 C 0.1675(3) -0.3534(7) 0.2488(4)
H23 H 0.1505 -0.3161 0.2288
C36 C 0.1620(3) -0.4430(7) 0.2494(4)
H24 H 0.1403 -0.4670 0.2296
N10C N 0.6221(3) -0.5586(6) 0.6382(4)
Zn2C Zn 0.0856(3) 0.1274(3) 0.0877(3)
Zn4A Zn 0.67284(3) -0.13528(8) 0.27398(5)
N6A N 0.1409(2) -0.6506(5) 0.3219(3)
N13 N 0.4379(7) 0.3560(17) 0.0714(7)
O1 O 0.4581(11) 0.423(3) 0.0599(13)
O2 O 0.4024(7) 0.3899(16) 0.0694(8)
C37 C 0.4474(8) 0.2694(18) 0.0764(8)
C38 C 0.4849(9) 0.255(2) 0.0882(10)
C39 C 0.4888(9) 0.160(2) 0.0982(11)
C40 C 0.4549(10) 0.090(2) 0.0961(11)
C41 C 0.4144(13) 0.117(3) 0.0914(15)
C42 C 0.4145(8) 0.208(2) 0.0782(10)
O3 O 0.6692(7) 0.4528(18) 0.3588(9)
C59 C 0.6465(14) 0.410(3) 0.3367(17)
Zn3? Zn 0.5710(6) 0.6100(13) 0.0957(3)
I3? I 0.35825(18) 0.0932(6) 0.5083(3)
I5? I 0.6043(2) 0.7357(3) 0.06008(19)
I7? I 0.5168(2) 0.6287(5) 0.13485(12)
I9? I 0.6341(12) 0.8218(17) 0.2119(9)
I11? I 0.7413(9) 0.7917(10) 0.3135(14)
C43? C 0.6622(8) 0.5907(19) 0.4447(9)
C44? C 0.7134(8) 0.490(2) 0.4580(10)
C45? C 0.7007(12) 0.402(3) 0.4822(14)
C46? C 0.742(2) 0.336(5) 0.481(2)
C47? C 0.6538(13) 0.561(3) 0.3120(15)
C48? C 0.7678(11) 0.391(3) 0.4698(13)
C49? C 0.7539(7) 0.4882(18) 0.4504(9)
O4? O 0.6314(13) 0.478(3) 0.3875(17)
C50? C 0.6201(9) 0.551(2) 0.3297(11)
C51? C 0.6952(12) 0.581(3) 0.4329(13)
C52? C 0.5577(17) 0.572(4) 0.343(2)
C53? C 0.5784(10) 0.651(2) 0.2748(11)
C54? C 0.5563(11) 0.628(3) 0.3049(14)
C55? C 0.5878(7) 0.5648(15) 0.3456(8)
C56? C 0.5888(15) 0.111(4) 0.3127(18)
C57? C 0.6210(16) 0.174(4) 0.3326(18)
C58? C 0.704(2) 0.340(5) 0.595(2)
C60? C 0.6612(18) 0.247(4) 0.3642(19)
C61? C 0.7209(8) 0.6272(17) 0.4301(9)
C62? C 0.7537(9) 0.590(2) 0.4283(11)
C63? C 0.7234(14) 0.629(3) 0.4856(15)
C64? C 0.6838(17) 0.664(4) 0.500(2)
C65? C 0.6880(14) 0.659(3) 0.5519(17)
C66? C 0.7189(14) 0.679(3) 0.5636(14)
C67? C 0.7591(8) 0.647(2) 0.5566(10)
C68? C 0.7629(11) 0.635(3) 0.5115(14)
C69? C 0.5109(10) 0.840(2) 0.2370(12)
C70? C 0.7160(10) 0.443(2) 0.6022(11)
C71? C 0.7446(18) 0.433(4) 0.581(2)
C72? C 0.7608(14) 0.559(4) 0.5704(17)
C73? C 0.7734(14) 0.396(3) 0.5759(16)
C74? C 0.6963(11) 0.566(3) 0.5819(13)
C75? C 0.5224(8) 0.900(2) 0.2227(9)
C76? C 0.6811(9) 0.467(2) 0.5522(11)
C77? C 0.4376(14) 0.134(3) 0.2946(17)
C78? C 0.4475(15) 0.268(4) 0.2912(17)
C79? C 0.5151(11) 0.969(3) 0.2365(14)
C80? C 0.6989(9) 0.640(2) 0.4072(11)
C81? C 0.6466(10) 0.085(2) 0.3613(12)
C82? C 0.6132(11) 0.624(3) 0.2799(13)
C83? C 0.466(2) 0.375(6) 0.302(2)
loop_
_geom_bond_atom_site_label_1
_geom_bond_atom_site_label_2
_geom_bond_site_symmetry_1
_geom_bond_site_symmetry_2
Zn1 I1 1_555 1_555
Zn2 I4 1_555 1_555
Zn4 I8 1_555 1_555
I2 Zn1 1_555 1_555
I6 Zn2 1_555 1_555
I10 Zn4 1_555 1_555
N1 C1 1_555 1_555
N2 C1 1_555 1_555
N3 C2 1_555 1_555
C1 C6 1_555 1_555
C2 N2 1_555 1_555
C3 N1 1_555 1_555
N4 Zn2 1_555 1_555
C4 N4 1_555 1_555
H1 C4 1_555 1_555
C5 C4 1_555 1_555
H2 C5 1_555 1_555
C6 C5 1_555 1_555
C7 C6 1_555 1_555
H3 C7 1_555 1_555
C8 N4 1_555 1_555
H4 C8 1_555 1_555
N5 Zn1 1_555 1_555
C9 N5 1_555 1_555
H5 C9 1_555 1_555
C10 C9 1_555 1_555
H6 C10 1_555 1_555
C11 C2 1_555 1_555
C12 C11 1_555 1_555
H7 C12 1_555 1_555
C13 N5 1_555 1_555
H8 C13 1_555 1_555
N6 C14 1_555 1_555
C14 H9 1_555 1_555
C15 C14 1_555 1_555
H10 C15 1_555 1_555
C16 C3 1_555 1_555
C17 C16 1_555 1_555
H11 C17 1_555 1_555
C18 N6 1_555 1_555
H12 C18 1_555 1_555
N7 C19 1_555 1_555
N8 C20 1_555 1_555
N9 C19 1_555 1_555
C19 C24 1_555 1_555
C20 N7 1_555 1_555
C21 N8 1_555 1_555
N10 C22 1_555 1_555
C22 H13 1_555 1_555
C23 C22 1_555 1_555
H14 C23 1_555 1_555
C24 C23 1_555 1_555
C25 C24 1_555 1_555
H15 C25 1_555 1_555
C26 N10 1_555 1_555
H16 C26 1_555 1_555
N11 Zn1 1_555 1_555
C27 N11 1_555 1_555
H17 C27 1_555 1_555
C28 C27 1_555 1_555
H18 C28 1_555 1_555
C29 C20 1_555 1_555
C30 C29 1_555 1_555
H19 C30 1_555 1_555
C31 N11 1_555 1_555
H20 C31 1_555 1_555
N12 Zn4 1_555 1_555
C32 N12 1_555 1_555
H21 C32 1_555 1_555
C33 C32 1_555 1_555
H22 C33 1_555 1_555
C34 C21 1_555 1_555
C35 C34 1_555 1_555
H23 C35 1_555 1_555
C36 N12 1_555 1_555
H24 C36 1_555 1_555
N13 O1 1_555 1_555
O2 N13 1_555 1_555
C37 N13 1_555 1_555
C38 C37 1_555 1_555
C39 C38 1_555 1_555
C40 C39 1_555 1_555
C41 C40 1_555 1_555
C42 C37 1_555 1_555
O3 C59 1_555 1_555
N10C Zn2 1_555 1_555
Zn2C N10 1_555 1_555
Zn4A N6 1_555 1_555
N6A Zn4 1_555 1_555
N3 C3 1_555 1_555
C7 C8 1_555 1_555
C10 C11 1_555 1_555
C12 C13 1_555 1_555
C15 C16 1_555 1_555
C17 C18 1_555 1_555
N9 C21 1_555 1_555
C25 C26 1_555 1_555
C28 C29 1_555 1_555
C30 C31 1_555 1_555
C33 C34 1_555 1_555
C35 C36 1_555 1_555
C41 C42 1_555 1_555

#END
