
#######################################################################
#
#                 Cambridge Crystallographic Data Centre
#                                CCDC 
#
#######################################################################
#
# If this CIF has been generated from an entry in the Cambridge 
# Structural Database, then it will include bibliographic, chemical, 
# crystal, experimental, refinement or atomic coordinate data resulting 
# from the CCDC's data processing and validation procedures.
#
#######################################################################

data_LUDVUB
_symmetry_cell_setting           orthorhombic
_symmetry_space_group_name_H-M   'F d d 2'
_symmetry_Int_Tables_number      43
_space_group_name_Hall           'F 2 -2d'
loop_
_symmetry_equiv_pos_site_id
_symmetry_equiv_pos_as_xyz
1 x,y,z
2 -x,-y,z
3 1/4+x,1/4-y,1/4+z
4 1/4-x,1/4+y,1/4+z
5 x,1/2+y,1/2+z
6 -x,1/2-y,1/2+z
7 1/4+x,3/4-y,3/4+z
8 1/4-x,3/4+y,3/4+z
9 1/2+x,y,1/2+z
10 1/2-x,-y,1/2+z
11 3/4+x,1/4-y,3/4+z
12 3/4-x,1/4+y,3/4+z
13 1/2+x,1/2+y,z
14 1/2-x,1/2-y,z
15 3/4+x,3/4-y,1/4+z
16 3/4-x,3/4+y,1/4+z
_cell_length_a                   35.252(5)
_cell_length_b                   39.509(5)
_cell_length_c                   8.1530(11)
_cell_angle_alpha                90
_cell_angle_beta                 90
_cell_angle_gamma                90
_cell_volume                     11355.3
loop_
_atom_site_label
_atom_site_type_symbol
_atom_site_fract_x
_atom_site_fract_y
_atom_site_fract_z
Zn1 Zn -0.00220(3) 0.31863(3) 0.37808(16)
Zn2 Zn 0.2500 0.2500 1.4632(3)
I1 I -0.00205(3) 0.32247(2) 0.06645(12)
I2 I -0.06516(2) 0.30927(2) 0.51727(12)
I3 I 0.29334(3) 0.21146(3) 1.62300(15)
N1 N 0.1382(2) 0.2237(2) 0.7733(10)
N2 N 0.1392(2) 0.1955(2) 0.5145(11)
N3 N 0.1847(2) 0.1816(2) 0.7192(10)
C3 C 0.1681(3) 0.2051(2) 0.8143(12)
C4 C 0.1252(3) 0.2176(2) 0.6227(14)
C5 C 0.1699(3) 0.1779(3) 0.5734(13)
N4 N 0.2176(3) 0.2267(2) 1.2818(11)
C6 C 0.1841(3) 0.2400(3) 1.2386(14)
H1 H 0.1717 0.2550 1.3124
C7 C 0.1668(3) 0.2326(3) 1.0904(13)
H2 H 0.1427 0.2421 1.0657
C8 C 0.1846(3) 0.2115(3) 0.9770(14)
C9 C 0.2191(3) 0.1970(3) 1.0273(14)
H3 H 0.2315 0.1813 0.9567
C10 C 0.2354(3) 0.2047(3) 1.1754(13)
H4 H 0.2591 0.1950 1.2047
N5 N 0.0361(2) 0.2826(2) 0.4556(11)
C11 C 0.0458(3) 0.2805(3) 0.6131(15)
H5 H 0.0319 0.2936 0.6902
C12 C 0.0745(3) 0.2605(3) 0.6697(12)
H6 H 0.0813 0.2609 0.7823
C13 C 0.0932(3) 0.2399(2) 0.5628(12)
C14 C 0.0821(3) 0.2400(3) 0.3997(15)
H7 H 0.0936 0.2249 0.3236
C15 C 0.0546(3) 0.2621(3) 0.3491(14)
H8 H 0.0482 0.2631 0.2360
N6 N 0.2260(2) 0.10859(19) 0.2563(11)
C16 C 0.1916(3) 0.1195(3) 0.2209(14)
H9 H 0.1799 0.1111 0.1243
C17 C 0.1713(3) 0.1425(3) 0.3148(12)
H10 H 0.1472 0.1506 0.2808
C18 C 0.1877(3) 0.1531(2) 0.4594(13)
C19 C 0.2239(3) 0.1418(2) 0.5003(14)
H11 H 0.2360 0.1491 0.5981
C20 C 0.2418(3) 0.1193(3) 0.3932(14)
H12 H 0.2665 0.1114 0.4203
I3M I 0.20666(3) 0.28854(3) 1.62300(15)
N1M N 0.3618(2) 0.2763(2) 0.7733(10)
N2M N 0.3608(2) 0.3045(2) 0.5145(11)
N3M N 0.3153(2) 0.3184(2) 0.7192(10)
C3M C 0.3319(3) 0.2949(2) 0.8143(12)
C4M C 0.3748(3) 0.2824(2) 0.6227(14)
C5M C 0.3301(3) 0.3221(3) 0.5734(13)
N4M N 0.2824(3) 0.2733(2) 1.2818(11)
C6M C 0.3159(3) 0.2600(3) 1.2386(14)
H1M H 0.3283 0.2450 1.3124
C7M C 0.3332(3) 0.2674(3) 1.0904(13)
H2M H 0.3573 0.2579 1.0657
C8M C 0.3154(3) 0.2885(3) 0.9770(14)
C9M C 0.2809(3) 0.3030(3) 1.0273(14)
H3M H 0.2685 0.3187 0.9567
C10M C 0.2646(3) 0.2953(3) 1.1754(13)
H4M H 0.2409 0.3050 1.2047
N5M N 0.4639(2) 0.2174(2) 0.4556(11)
C11M C 0.4542(3) 0.2195(3) 0.6131(15)
H5M H 0.4681 0.2064 0.6902
C12M C 0.4255(3) 0.2395(3) 0.6697(12)
H6M H 0.4187 0.2391 0.7823
C13M C 0.4068(3) 0.2601(2) 0.5628(12)
C14M C 0.4179(3) 0.2600(3) 0.3997(15)
H7M H 0.4064 0.2751 0.3236
C15M C 0.4454(3) 0.2379(3) 0.3491(14)
H8M H 0.4518 0.2369 0.2360
N6M N 0.2740(2) 0.39141(19) 0.2563(11)
C16M C 0.3084(3) 0.3805(3) 0.2209(14)
H9M H 0.3201 0.3889 0.1243
C17M C 0.3287(3) 0.3575(3) 0.3148(12)
H10M H 0.3528 0.3494 0.2808
C18M C 0.3123(3) 0.3469(2) 0.4594(13)
C19M C 0.2761(3) 0.3582(2) 0.5003(14)
H11M H 0.2640 0.3509 0.5981
C20M C 0.2582(3) 0.3807(3) 0.3932(14)
H12M H 0.2335 0.3886 0.4203
Zn1M Zn 0.50220(3) 0.18137(3) 0.37808(16)
I1M I 0.50205(3) 0.17753(2) 0.06645(12)
I2M I 0.56516(2) 0.19073(2) 0.51727(12)
N6C N 0.0240(2) 0.35859(19) 0.5063(11)
Zn1G Zn 0.25220(3) 0.06863(3) 0.12808(16)
Zn1F Zn 0.24780(3) 0.43137(3) 0.12808(16)
N6B N 0.4760(2) 0.14141(19) 0.5063(11)
C2 C 0.3504(5) 0.1677(8) 1.001(4)
Br1 Br 0.3334(5) 0.1280(3) 0.9002(13)
Br3 Br 0.33689(7) 0.16712(11) 1.2795(11)
Br5 Br 0.40436(19) 0.1570(6) 1.050(2)
C1? C 0.3535(9) 0.1439(8) 1.107(4)
Br2? Br 0.4052(2) 0.1700(3) 0.991(2)
Br4? Br 0.32112(15) 0.1677(2) 0.9302(7)
Br6? Br 0.3490(12) 0.1715(4) 1.2140(16)
Br7? Br 0.3202(15) 0.1364(13) 0.926(6)
Br8? Br 0.3866(5) 0.1887(4) 0.863(2)
loop_
_geom_bond_atom_site_label_1
_geom_bond_atom_site_label_2
_geom_bond_site_symmetry_1
_geom_bond_site_symmetry_2
Zn1 I1 1_555 1_555
Zn2 I3 1_555 1_555
I2 Zn1 1_555 1_555
C2 Br1 1_555 1_555
Br3 C2 1_555 1_555
Br5 C2 1_555 1_555
N1 C3 1_555 1_555
N2 C4 1_555 1_555
N3 C3 1_555 1_555
C3 C8 1_555 1_555
C4 N1 1_555 1_555
C5 N2 1_555 1_555
N4 Zn2 1_555 1_555
C6 N4 1_555 1_555
H1 C6 1_555 1_555
C7 C6 1_555 1_555
H2 C7 1_555 1_555
C8 C7 1_555 1_555
C9 C8 1_555 1_555
H3 C9 1_555 1_555
C10 N4 1_555 1_555
H4 C10 1_555 1_555
N5 Zn1 1_555 1_555
C11 N5 1_555 1_555
H5 C11 1_555 1_555
C12 C11 1_555 1_555
H6 C12 1_555 1_555
C13 C4 1_555 1_555
C14 C13 1_555 1_555
H7 C14 1_555 1_555
C15 N5 1_555 1_555
H8 C15 1_555 1_555
N6 C16 1_555 1_555
C16 H9 1_555 1_555
C17 C16 1_555 1_555
H10 C17 1_555 1_555
C18 C5 1_555 1_555
C19 C18 1_555 1_555
H11 C19 1_555 1_555
C20 N6 1_555 1_555
H12 C20 1_555 1_555
I3M Zn2 1_555 1_555
N1M C3M 1_555 1_555
N2M C4M 1_555 1_555
N3M C3M 1_555 1_555
C3M C8M 1_555 1_555
C4M N1M 1_555 1_555
C5M N2M 1_555 1_555
N4M Zn2 1_555 1_555
C6M N4M 1_555 1_555
H1M C6M 1_555 1_555
C7M C6M 1_555 1_555
H2M C7M 1_555 1_555
C8M C7M 1_555 1_555
C9M C8M 1_555 1_555
H3M C9M 1_555 1_555
C10M N4M 1_555 1_555
H4M C10M 1_555 1_555
N5M C11M 1_555 1_555
C11M H5M 1_555 1_555
C12M C11M 1_555 1_555
H6M C12M 1_555 1_555
C13M C4M 1_555 1_555
C14M C13M 1_555 1_555
H7M C14M 1_555 1_555
C15M N5M 1_555 1_555
H8M C15M 1_555 1_555
N6M C16M 1_555 1_555
C16M H9M 1_555 1_555
C17M C16M 1_555 1_555
H10M C17M 1_555 1_555
C18M C5M 1_555 1_555
C19M C18M 1_555 1_555
H11M C19M 1_555 1_555
C20M N6M 1_555 1_555
H12M C20M 1_555 1_555
Zn1M N5M 1_555 1_555
I1M Zn1M 1_555 1_555
I2M Zn1M 1_555 1_555
N6C Zn1 1_555 1_555
Zn1G N6 1_555 1_555
Zn1F N6M 1_555 1_555
N6B Zn1M 1_555 1_555
N3 C5 1_555 1_555
C9 C10 1_555 1_555
C12 C13 1_555 1_555
C14 C15 1_555 1_555
C17 C18 1_555 1_555
C19 C20 1_555 1_555
N3M C5M 1_555 1_555
C9M C10M 1_555 1_555
C12M C13M 1_555 1_555
C14M C15M 1_555 1_555
C17M C18M 1_555 1_555
C19M C20M 1_555 1_555

#END
