
#######################################################################
#
#                 Cambridge Crystallographic Data Centre
#                                CCDC 
#
#######################################################################
#
# If this CIF has been generated from an entry in the Cambridge 
# Structural Database, then it will include bibliographic, chemical, 
# crystal, experimental, refinement or atomic coordinate data resulting 
# from the CCDC's data processing and validation procedures.
#
#######################################################################

data_LUFJED
_symmetry_cell_setting           triclinic
_symmetry_space_group_name_H-M   'P -1'
_symmetry_Int_Tables_number      2
_space_group_name_Hall           '-P 1'
loop_
_symmetry_equiv_pos_site_id
_symmetry_equiv_pos_as_xyz
1 x,y,z
2 -x,-y,-z
_cell_length_a                   8.5225(17)
_cell_length_b                   13.641(3)
_cell_length_c                   14.685(3)
_cell_angle_alpha                65.49(3)
_cell_angle_beta                 77.19(3)
_cell_angle_gamma                79.62(3)
_cell_volume                     1507.21
loop_
_atom_site_label
_atom_site_type_symbol
_atom_site_fract_x
_atom_site_fract_y
_atom_site_fract_z
Zn1 Zn 0.30508(12) 0.75778(8) 0.31811(7)
Zn2 Zn 0.0000 1.0000 0.0000
C1 C 0.3614(11) 1.4936(6) -0.0638(6)
H1 H 0.4467 1.4836 -0.1121
C2 C 0.2976(10) 1.5982(6) -0.0707(6)
C3 C 0.1687(10) 1.6131(7) 0.0022(6)
H2 H 0.1265 1.6826 -0.0026
C4 C 0.1049(10) 1.5232(6) 0.0815(6)
C5 C 0.1682(10) 1.4191(6) 0.0879(6)
H3 H 0.1242 1.3592 0.1406
C6 C 0.2952(10) 1.4044(6) 0.0166(6)
C7 C 0.3655(11) 1.6921(6) -0.1544(6)
C8 C -0.0316(11) 1.5381(6) 0.1566(6)
C9 C 0.3608(10) 1.2937(6) 0.0247(6)
C10 C 0.4035(10) 1.0136(6) 0.1389(6)
H4 H 0.3940 1.0012 0.2098
H5 H 0.5036 0.9745 0.1203
C11 C 0.2613(10) 0.9711(6) 0.1243(6)
C12 C -0.3404(11) 1.4550(7) 0.3660(6)
H6 H -0.3847 1.4003 0.3558
H7 H -0.4289 1.5076 0.3749
C13 C -0.2637(12) 1.4015(8) 0.4621(7)
C14 C 0.6108(15) 1.8291(10) -0.3817(8)
H8 H 0.7101 1.7811 -0.3798
H9 H 0.6379 1.9009 -0.3966
C15 C 0.516(2) 1.8327(11) -0.4673(9)
N1 N 0.4779(10) 1.6860(6) -0.2311(6)
N2 N 0.5033(10) 1.7897(6) -0.2846(6)
N3 N 0.4163(11) 1.8561(6) -0.2449(6)
N4 N 0.3265(10) 1.7953(6) -0.1609(5)
N5 N -0.0951(10) 1.6346(6) 0.1616(6)
N6 N -0.2172(9) 1.6143(6) 0.2381(6)
N7 N -0.2238(9) 1.5095(6) 0.2752(5)
N8 N -0.1135(9) 1.4585(6) 0.2286(5)
N9 N 0.3172(9) 1.2055(5) 0.1033(5)
N10 N 0.4081(9) 1.1285(5) 0.0773(5)
N11 N 0.5034(10) 1.1647(6) -0.0110(6)
N12 N 0.4746(10) 1.2723(5) -0.0467(5)
O1 O 0.2293(8) 0.8764(5) 0.1867(5)
O2 O 0.1899(8) 1.0286(5) 0.0525(5)
O3 O -0.1668(8) 1.0177(5) 0.1204(5)
H10 H -0.2412 1.0335 0.0821
H11 H -0.1673 1.0810 0.1184
O4 O 0.0483(8) 0.8347(5) 0.0812(5)
H12 H 0.0830 0.8253 0.1346
H13 H -0.0389 0.8049 0.0977
O5 O 0.0645(9) 0.7158(6) 0.3597(5)
H14 H 0.0260 0.7552 0.3931
H15 H 0.0635 0.6489 0.3979
O6 O 0.2659(11) 0.8712(6) 0.3822(6)
H16 H 0.3538 0.8981 0.3721
H17 H 0.2538 0.8213 0.4413
O7 O 0.5460(9) 0.7872(6) 0.2771(6)
H18 H 0.5823 0.7823 0.2202
H19 H 0.5903 0.7268 0.3139
O8 O -0.1124(10) 1.3930(8) 0.4519(6)
O9 O -0.3597(8) 1.3638(6) 0.5423(5)
O10 O 0.3874(19) 1.8261(11) -0.4528(8)
O11 O 0.6148(19) 1.8651(12) -0.5499(10)
O12 O 0.3645(9) 0.6441(5) 0.2500(5)
H20 H 0.4642 0.6440 0.2242
H21 H 0.3080 0.6615 0.2036
Zn1A Zn -0.30508(12) 1.24222(8) -0.31811(7)
C1A C -0.3614(11) 0.5064(6) 0.0638(6)
H1A H -0.4467 0.5164 0.1121
C2A C -0.2976(10) 0.4018(6) 0.0707(6)
C3A C -0.1687(10) 0.3869(7) -0.0022(6)
H2A H -0.1265 0.3174 0.0026
C4A C -0.1049(10) 0.4768(6) -0.0815(6)
C5A C -0.1682(10) 0.5809(6) -0.0879(6)
H3A H -0.1242 0.6408 -0.1406
C6A C -0.2952(10) 0.5956(6) -0.0166(6)
C7A C -0.3655(11) 0.3079(6) 0.1544(6)
C8A C 0.0316(11) 0.4619(6) -0.1566(6)
C9A C -0.3608(10) 0.7063(6) -0.0247(6)
C10A C -0.4035(10) 0.9864(6) -0.1389(6)
H4A H -0.3940 0.9988 -0.2098
H5A H -0.5036 1.0255 -0.1203
C11A C -0.2613(10) 1.0289(6) -0.1243(6)
C12A C 0.3404(11) 0.5450(7) -0.3660(6)
H6A H 0.3847 0.5997 -0.3558
H7A H 0.4289 0.4924 -0.3749
C13A C 0.2637(12) 0.5985(8) -0.4621(7)
C14A C -0.6108(15) 0.1709(10) 0.3817(8)
H8A H -0.7101 0.2189 0.3798
H9A H -0.6379 0.0991 0.3966
C15A C -0.516(2) 0.1673(11) 0.4673(9)
N1A N -0.4779(10) 0.3140(6) 0.2311(6)
N2A N -0.5033(10) 0.2103(6) 0.2846(6)
N3A N -0.4163(11) 0.1439(6) 0.2449(6)
N4A N -0.3265(10) 0.2047(6) 0.1609(5)
N5A N 0.0951(10) 0.3654(6) -0.1616(6)
N6A N 0.2172(9) 0.3857(6) -0.2381(6)
N7A N 0.2238(9) 0.4905(6) -0.2752(5)
N8A N 0.1135(9) 0.5415(6) -0.2286(5)
N9A N -0.3172(9) 0.7945(5) -0.1033(5)
N10A N -0.4081(9) 0.8715(5) -0.0773(5)
N11A N -0.5034(10) 0.8353(6) 0.0110(6)
N12A N -0.4746(10) 0.7277(5) 0.0467(5)
O1A O -0.2293(8) 1.1236(5) -0.1867(5)
O2A O -0.1899(8) 0.9714(5) -0.0525(5)
O3A O 0.1668(8) 0.9823(5) -0.1204(5)
H10A H 0.2412 0.9665 -0.0821
H11A H 0.1673 0.9190 -0.1184
O4A O -0.0483(8) 1.1653(5) -0.0812(5)
H12A H -0.0830 1.1747 -0.1346
H13A H 0.0389 1.1951 -0.0977
O5A O -0.0645(9) 1.2842(6) -0.3597(5)
H14A H -0.0260 1.2448 -0.3931
H15A H -0.0635 1.3511 -0.3979
O6A O -0.2659(11) 1.1288(6) -0.3822(6)
H16A H -0.3538 1.1019 -0.3721
H17A H -0.2538 1.1787 -0.4413
O7A O -0.5460(9) 1.2128(6) -0.2771(6)
H18A H -0.5823 1.2177 -0.2202
H19A H -0.5903 1.2732 -0.3139
O8A O 0.1124(10) 0.6070(8) -0.4519(6)
O9A O 0.3597(8) 0.6362(6) -0.5423(5)
O10A O -0.3874(19) 0.1739(11) 0.4528(8)
O11A O -0.6148(19) 0.1349(12) 0.5499(10)
O12A O -0.3645(9) 1.3559(5) -0.2500(5)
H20A H -0.4642 1.3560 -0.2242
H21A H -0.3080 1.3385 -0.2036
Zn1_2 Zn 0.30508(12) 0.75778(8) -0.68189(7)
Zn1A_2 Zn -0.30508(12) 1.24222(8) 0.68189(7)
O9_2 O -0.3597(8) 1.3638(6) -0.4577(5)
O9A_2 O 0.3597(8) 0.6362(6) 0.4577(5)
C16 C 0.927(3) 0.2072(18) 0.318(2)
H22 H 0.9049 0.2533 0.2508
H23 H 1.0171 0.2306 0.3302
H24 H 0.8339 0.2111 0.3669
C17 C 0.969(4) 0.089(2) 0.325(2)
H25 H 0.8803 0.0742 0.3032
H26 H 1.0625 0.0912 0.2735
O13 O 1.001(2) -0.0012(14) 0.4087(13)
H27 H 1.0106 -0.0770 0.4248
C18 C 0.7783(19) 0.8627(13) 0.2974(11)
H28 H 0.8386 0.7996 0.2888
H29 H 0.7474 0.9131 0.2340
H30 H 0.6831 0.8420 0.3473
O14 O 0.8736(17) 0.9111(12) 0.3295(11)
O15 O 0.1698(12) 0.4850(7) 0.3537(7)
H31 H 0.1062 0.4431 0.3546
H32 H 0.2670 0.4615 0.3381
O16 O 0.6955(13) 0.6250(8) 0.4800(8)
H33 H 0.7568 0.6685 0.4786
H34 H 0.7527 0.5740 0.4654
loop_
_geom_bond_atom_site_label_1
_geom_bond_atom_site_label_2
_geom_bond_site_symmetry_1
_geom_bond_site_symmetry_2
Zn1 O1 1_555 1_555
Zn2 O2 1_555 1_555
C1 H1 1_555 1_555
C2 C1 1_555 1_555
C3 C2 1_555 1_555
H2 C3 1_555 1_555
C4 C3 1_555 1_555
C5 C4 1_555 1_555
H3 C5 1_555 1_555
C6 C1 1_555 1_555
C7 C2 1_555 1_555
C8 C4 1_555 1_555
C9 C6 1_555 1_555
C10 H4 1_555 1_555
H5 C10 1_555 1_555
C11 C10 1_555 1_555
C12 H6 1_555 1_555
H7 C12 1_555 1_555
C13 C12 1_555 1_555
C14 H8 1_555 1_555
H9 C14 1_555 1_555
C15 C14 1_555 1_555
N1 C7 1_555 1_555
N2 C14 1_555 1_555
N3 N2 1_555 1_555
N4 C7 1_555 1_555
N5 C8 1_555 1_555
N6 N5 1_555 1_555
N7 C12 1_555 1_555
N8 C8 1_555 1_555
N9 C9 1_555 1_555
N10 C10 1_555 1_555
N11 N10 1_555 1_555
N12 C9 1_555 1_555
O1 C11 1_555 1_555
O2 C11 1_555 1_555
O3 Zn2 1_555 1_555
H10 O3 1_555 1_555
H11 O3 1_555 1_555
O4 Zn2 1_555 1_555
H12 O4 1_555 1_555
H13 O4 1_555 1_555
O5 Zn1 1_555 1_555
H14 O5 1_555 1_555
H15 O5 1_555 1_555
O6 Zn1 1_555 1_555
H16 O6 1_555 1_555
H17 O6 1_555 1_555
O7 Zn1 1_555 1_555
H18 O7 1_555 1_555
H19 O7 1_555 1_555
O8 C13 1_555 1_555
O9 C13 1_555 1_555
O10 C15 1_555 1_555
O11 C15 1_555 1_555
O12 Zn1 1_555 1_555
H20 O12 1_555 1_555
H21 O12 1_555 1_555
C16 H22 1_555 1_555
H23 C16 1_555 1_555
H24 C16 1_555 1_555
C17 C16 1_555 1_555
H25 C17 1_555 1_555
H26 C17 1_555 1_555
O13 C17 1_555 1_555
H27 O13 1_555 1_555
C18 H28 1_555 1_555
H29 C18 1_555 1_555
H30 C18 1_555 1_555
O14 C18 1_555 1_555
O15 H31 1_555 1_555
H32 O15 1_555 1_555
O16 H33 1_555 1_555
H34 O16 1_555 1_555
Zn1A O1A 1_555 1_555
C1A H1A 1_555 1_555
C2A C1A 1_555 1_555
C3A C2A 1_555 1_555
H2A C3A 1_555 1_555
C4A C3A 1_555 1_555
C5A C4A 1_555 1_555
H3A C5A 1_555 1_555
C6A C1A 1_555 1_555
C7A C2A 1_555 1_555
C8A C4A 1_555 1_555
C9A C6A 1_555 1_555
C10A H4A 1_555 1_555
H5A C10A 1_555 1_555
C11A C10A 1_555 1_555
C12A H6A 1_555 1_555
H7A C12A 1_555 1_555
C13A C12A 1_555 1_555
C14A H8A 1_555 1_555
H9A C14A 1_555 1_555
C15A C14A 1_555 1_555
N1A C7A 1_555 1_555
N2A C14A 1_555 1_555
N3A N2A 1_555 1_555
N4A C7A 1_555 1_555
N5A C8A 1_555 1_555
N6A N5A 1_555 1_555
N7A C12A 1_555 1_555
N8A C8A 1_555 1_555
N9A C9A 1_555 1_555
N10A C10A 1_555 1_555
N11A N10A 1_555 1_555
N12A C9A 1_555 1_555
O1A C11A 1_555 1_555
O2A Zn2 1_555 1_555
O3A Zn2 1_555 1_555
H10A O3A 1_555 1_555
H11A O3A 1_555 1_555
O4A Zn2 1_555 1_555
H12A O4A 1_555 1_555
H13A O4A 1_555 1_555
O5A Zn1A 1_555 1_555
H14A O5A 1_555 1_555
H15A O5A 1_555 1_555
O6A Zn1A 1_555 1_555
H16A O6A 1_555 1_555
H17A O6A 1_555 1_555
O7A Zn1A 1_555 1_555
H18A O7A 1_555 1_555
H19A O7A 1_555 1_555
O8A C13A 1_555 1_555
O9A C13A 1_555 1_555
O10A C15A 1_555 1_555
O11A C15A 1_555 1_555
O12A Zn1A 1_555 1_555
H20A O12A 1_555 1_555
H21A O12A 1_555 1_555
Zn1_2 O9A 1_555 1_555
Zn1A_2 O9 1_555 1_555
O9_2 Zn1A 1_555 1_555
O9A_2 Zn1 1_555 1_555
C5 C6 1_555 1_555
N1 N2 1_555 1_555
N3 N4 1_555 1_555
N6 N7 1_555 1_555
N7 N8 1_555 1_555
N9 N10 1_555 1_555
N11 N12 1_555 1_555
C5A C6A 1_555 1_555
C11A O2A 1_555 1_555
N1A N2A 1_555 1_555
N3A N4A 1_555 1_555
N6A N7A 1_555 1_555
N7A N8A 1_555 1_555
N9A N10A 1_555 1_555
N11A N12A 1_555 1_555

#END
