
#######################################################################
#
#                 Cambridge Crystallographic Data Centre
#                                CCDC 
#
#######################################################################
#
# If this CIF has been generated from an entry in the Cambridge 
# Structural Database, then it will include bibliographic, chemical, 
# crystal, experimental, refinement or atomic coordinate data resulting 
# from the CCDC's data processing and validation procedures.
#
#######################################################################

data_LUFLUV
_symmetry_cell_setting           monoclinic
_symmetry_space_group_name_H-M   'P 21/c'
_symmetry_Int_Tables_number      14
_space_group_name_Hall           '-P 2ybc'
loop_
_symmetry_equiv_pos_site_id
_symmetry_equiv_pos_as_xyz
1 x,y,z
2 -x,1/2+y,1/2-z
3 -x,-y,-z
4 x,1/2-y,1/2+z
_cell_length_a                   8.5932(7)
_cell_length_b                   10.7755(8)
_cell_length_c                   21.7683(18)
_cell_angle_alpha                90
_cell_angle_beta                 97.685(13)
_cell_angle_gamma                90
_cell_volume                     1997.55
loop_
_atom_site_label
_atom_site_type_symbol
_atom_site_fract_x
_atom_site_fract_y
_atom_site_fract_z
Br1 Br 0.27920(13) -0.00018(11) 0.39224(6)
Br2 Br 0.08202(13) 0.48531(11) 0.38942(6)
Co1 Co 0.19013(18) 0.24463(17) 0.38370(8)
N1 N 0.4082(10) 0.3099(9) 0.4093(4)
N2 N 0.1950(10) 0.2402(9) 0.4696(4)
N3 N -0.0233(10) 0.1776(9) 0.3852(4)
N4 N 0.1864(11) 0.2509(9) 0.7925(4)
C1 C 0.5127(13) 0.3437(12) 0.3716(6)
C2 C 0.6564(12) 0.3913(10) 0.3963(6)
C3 C 0.6979(12) 0.3985(11) 0.4585(6)
C4 C 0.5911(12) 0.3634(10) 0.4985(6)
C5 C 0.4474(12) 0.3170(11) 0.4699(5)
C6 C 0.3200(12) 0.2794(10) 0.5066(5)
C7 C 0.3232(13) 0.2818(11) 0.5698(6)
C8 C 0.1872(13) 0.2468(11) 0.5956(6)
C9 C 0.0575(12) 0.2053(9) 0.5546(6)
C10 C 0.0612(13) 0.2032(10) 0.4925(5)
C11 C -0.0576(12) 0.1607(10) 0.4434(6)
C12 C -0.2002(13) 0.1033(11) 0.4529(6)
C13 C -0.3028(13) 0.0648(12) 0.4041(7)
C14 C -0.2688(13) 0.0833(12) 0.3445(6)
C15 C -0.1223(13) 0.1379(11) 0.3376(6)
C16 C 0.1865(12) 0.2507(11) 0.6633(6)
C17 C 0.2864(13) 0.3251(11) 0.7018(6)
C18 C 0.2855(13) 0.3248(11) 0.7652(6)
C19 C 0.0894(11) 0.1787(11) 0.7556(5)
C20 C 0.0813(13) 0.1750(11) 0.6925(6)
H1 H 0.48747 0.33486 0.32796
H2 H 0.72736 0.41949 0.36941
H3 H 0.79946 0.42738 0.47491
H4 H 0.6146 0.37064 0.5423
H5 H 0.41555 0.30663 0.59584
H6 H -0.0342 0.17816 0.57069
H7 H -0.22424 0.09179 0.49387
H8 H -0.39777 0.02504 0.41077
H9 H -0.34109 0.06024 0.30946
H10 H -0.09404 0.14639 0.29711
H11 H 0.3576 0.37784 0.68448
H12 H 0.35599 0.37769 0.79034
H13 H 0.0208 0.12604 0.77444
H14 H 0.00721 0.12302 0.66857
Co1C Co 0.19013(18) 0.25537(17) 0.88370(8)
N4C N 0.1864(11) 0.2491(9) 0.2925(4)
O1 O 0.3598(12) 0.5931(9) 0.3134(6)
C21 C 0.3235(18) 0.7218(17) 0.3132(8)
loop_
_geom_bond_atom_site_label_1
_geom_bond_atom_site_label_2
_geom_bond_site_symmetry_1
_geom_bond_site_symmetry_2
Br1 Co1 1_555 1_555
Br2 Co1 1_555 1_555
Co1 N1 1_555 1_555
N1 C1 1_555 1_555
N2 Co1 1_555 1_555
N3 Co1 1_555 1_555
N4 C18 1_555 1_555
C1 C2 1_555 1_555
C2 C3 1_555 1_555
C3 C4 1_555 1_555
C4 C5 1_555 1_555
C5 N1 1_555 1_555
C6 N2 1_555 1_555
C7 C6 1_555 1_555
C8 C7 1_555 1_555
C9 C8 1_555 1_555
C10 N2 1_555 1_555
C11 N3 1_555 1_555
C12 C11 1_555 1_555
C13 C12 1_555 1_555
C14 C13 1_555 1_555
C15 N3 1_555 1_555
C16 C8 1_555 1_555
C17 C16 1_555 1_555
C18 C17 1_555 1_555
C19 N4 1_555 1_555
C20 C16 1_555 1_555
H1 C1 1_555 1_555
H2 C2 1_555 1_555
H3 C3 1_555 1_555
H4 C4 1_555 1_555
H5 C7 1_555 1_555
H6 C9 1_555 1_555
H7 C12 1_555 1_555
H8 C13 1_555 1_555
H9 C14 1_555 1_555
H10 C15 1_555 1_555
H11 C17 1_555 1_555
H12 C18 1_555 1_555
H13 C19 1_555 1_555
H14 C20 1_555 1_555
O1 C21 1_555 1_555
Co1C N4 1_555 1_555
N4C Co1 1_555 1_555
C5 C6 1_555 1_555
C9 C10 1_555 1_555
C10 C11 1_555 1_555
C14 C15 1_555 1_555
C19 C20 1_555 1_555

#END
