
#######################################################################
#
#                 Cambridge Crystallographic Data Centre
#                                CCDC 
#
#######################################################################
#
# If this CIF has been generated from an entry in the Cambridge 
# Structural Database, then it will include bibliographic, chemical, 
# crystal, experimental, refinement or atomic coordinate data resulting 
# from the CCDC's data processing and validation procedures.
#
#######################################################################

data_LUFNUV
_symmetry_cell_setting           triclinic
_symmetry_space_group_name_H-M   'P 1'
_symmetry_Int_Tables_number      1
_space_group_name_Hall           'P 1'
loop_
_symmetry_equiv_pos_site_id
_symmetry_equiv_pos_as_xyz
1 x,y,z
_cell_length_a                   9.0858(10)
_cell_length_b                   12.6638(15)
_cell_length_c                   14.9822(16)
_cell_angle_alpha                98.900(10)
_cell_angle_beta                 93.950(10)
_cell_angle_gamma                109.450(10)
_cell_volume                     1592.45
loop_
_atom_site_label
_atom_site_type_symbol
_atom_site_fract_x
_atom_site_fract_y
_atom_site_fract_z
Fe1 Fe 0.6906(4) 0.9349(3) 1.1195(2)
Fe2 Fe 0.1930(4) 0.9334(3) 0.6173(2)
Ni1 Ni 0.26632(16) 1.00066(11) 0.93537(10)
Ni2 Ni 0.6920(3) 0.9369(2) 0.6200(2)
Ni3 Ni 1.10645(16) 0.85640(11) 1.29877(9)
N1 N 0.0837(17) 0.8754(11) 0.9731(9)
H1 H 0.1039 0.8744 1.0339
H2 H -0.0082 0.8902 0.9642
N2 N 0.3245(16) 0.8577(11) 0.8746(10)
H3 H 0.2969 0.8423 0.8125
H4 H 0.4309 0.8728 0.8866
N3 N 0.4416(19) 1.1233(11) 0.8864(10)
H5 H 0.5385 1.1336 0.9165
H6 H 0.4420 1.0993 0.8253
N4 N 0.2094(18) 1.1446(12) 0.9923(12)
H7 H 0.1247 1.1484 0.9573
H8 H 0.1841 1.1396 1.0503
N5 N 0.7354(17) 0.8268(10) 0.6996(10)
H9 H 0.8274 0.8151 0.6878
H10 H 0.7454 0.8577 0.7604
N6 N 0.5287(17) 0.7835(11) 0.5456(9)
H11 H 0.4283 0.7793 0.5556
H12 H 0.5353 0.7807 0.4843
N7 N 0.8623(16) 1.0863(10) 0.6940(10)
H13 H 0.8277 1.1103 0.7471
H14 H 0.9542 1.0737 0.7087
N8 N 0.6471(17) 1.0495(11) 0.5395(9)
H15 H 0.6864 1.0412 0.4849
H16 H 0.5405 1.0338 0.5277
N9 N 0.9230(16) 0.7410(11) 1.3504(10)
H17 H 0.9467 0.7510 1.4125
H18 H 0.8316 0.7558 1.3390
N10 N 1.1400(17) 0.7068(12) 1.2424(9)
H19 H 1.0972 0.6851 1.1821
H20 H 1.2459 0.7189 1.2454
N11 N 1.2974(18) 0.9775(12) 1.2545(10)
H21 H 1.3900 0.9893 1.2902
H22 H 1.3071 0.9521 1.1950
N12 N 1.0687(17) 1.0031(11) 1.3614(9)
H23 H 0.9778 1.0069 1.3333
H24 H 1.0571 1.0002 1.4216
N13 N 0.4229(17) 1.0105(10) 1.0471(10)
N14 N 0.1139(19) 0.9884(13) 0.8099(10)
N15 N 1.2617(17) 0.8772(11) 1.4192(10)
N16 N 0.5234(17) 0.9623(12) 0.7067(11)
N17 N 0.6856(19) 1.0098(13) 1.3278(10)
N18 N 0.945(2) 1.1623(15) 1.1094(13)
N19 N 0.9488(18) 0.8466(12) 1.1861(9)
N20 N 0.709(2) 0.8600(17) 0.9157(13)
N21 N 0.4275(19) 0.7130(12) 1.1392(11)
N22 N 0.304(2) 1.1896(12) 0.6085(13)
N23 N 0.055(2) 0.6786(16) 0.6261(16)
N24 N -0.1357(16) 0.9138(11) 0.5345(8)
C1 C 0.2369(14) 0.7607(8) 0.9141(7)
H25 H 0.2868 0.7713 0.9780
C2 C 0.234(2) 0.6465(13) 0.8611(11)
H26 H 0.3425 0.6456 0.8630
H27 H 0.1917 0.6377 0.7966
C3 C 0.1320(18) 0.5468(10) 0.9012(9)
H28 H 0.1289 0.4742 0.8638
H29 H 0.1804 0.5517 0.9636
C4 C -0.036(2) 0.5461(12) 0.9044(11)
H30 H -0.0905 0.5289 0.8416
H31 H -0.0939 0.4857 0.9368
C5 C -0.0345(18) 0.6598(11) 0.9525(10)
H32 H 0.0031 0.6695 1.0179
H33 H -0.1440 0.6592 0.9480
C6 C 0.0660(15) 0.7613(9) 0.9167(8)
H34 H 0.0193 0.7573 0.8533
C7 C 0.4110(17) 1.2333(9) 0.9011(9)
H35 H 0.3260 1.2276 0.8526
C8 C 0.5513(18) 1.3347(11) 0.8964(10)
H36 H 0.5850 1.3251 0.8352
H37 H 0.6389 1.3388 0.9415
C9 C 0.519(2) 1.4462(11) 0.9151(10)
H38 H 0.4394 1.4463 0.8666
H39 H 0.6168 1.5111 0.9150
C10 C 0.4589(17) 1.4593(10) 1.0074(9)
H40 H 0.5437 1.4681 1.0562
H41 H 0.4311 1.5290 1.0173
C11 C 0.3159(18) 1.3570(12) 1.0131(10)
H42 H 0.2278 1.3530 0.9684
H43 H 0.2833 1.3672 1.0747
C12 C 0.3477(16) 1.2453(9) 0.9944(9)
H44 H 0.4303 1.2476 1.0431
C13 C 0.6024(16) 0.7180(9) 0.6772(8)
H45 H 0.5098 0.7291 0.7044
C14 C 0.6376(18) 0.6184(11) 0.7142(10)
H46 H 0.7332 0.6097 0.6911
H47 H 0.6578 0.6371 0.7816
C15 C 0.4975(16) 0.5050(9) 0.6838(8)
H48 H 0.5255 0.4426 0.7040
H49 H 0.4054 0.5107 0.7132
C16 C 0.4558(18) 0.4782(10) 0.5850(9)
H50 H 0.3627 0.4073 0.5686
H51 H 0.5440 0.4639 0.5563
C17 C 0.419(2) 0.5746(13) 0.5459(12)
H52 H 0.3243 0.5848 0.5695
H53 H 0.3966 0.5536 0.4786
C18 C 0.5616(16) 0.6877(9) 0.5740(8)
H54 H 0.6544 0.6785 0.5460
C19 C 0.8896(15) 1.1742(8) 0.6358(8)
H55 H 0.9507 1.1562 0.5862
C20 C 0.980(2) 1.2954(13) 0.6906(12)
H56 H 1.0854 1.2998 0.7167
H57 H 0.9224 1.3122 0.7416
C21 C 0.9983(17) 1.3880(10) 0.6261(9)
H58 H 1.0569 1.4656 0.6614
H59 H 1.0570 1.3725 0.5754
C22 C 0.8325(16) 1.3796(10) 0.5886(9)
H60 H 0.8398 1.4352 0.5479
H61 H 0.7758 1.3979 0.6395
C23 C 0.741(2) 1.2576(14) 0.5352(13)
H62 H 0.6345 1.2527 0.5111
H63 H 0.7960 1.2413 0.4827
C24 C 0.7277(14) 1.1704(9) 0.5931(8)
H64 H 0.6651 1.1838 0.6432
C25 C 0.8985(16) 0.6237(9) 1.3093(8)
H65 H 0.8351 0.6070 1.2482
C26 C 0.811(2) 0.5352(12) 1.3623(10)
H66 H 0.7045 0.5379 1.3672
H67 H 0.8677 0.5524 1.4247
C27 C 0.799(2) 0.4151(12) 1.3151(11)
H68 H 0.7497 0.3600 1.3541
H69 H 0.7283 0.3940 1.2568
C28 C 0.9576(19) 0.4053(11) 1.2960(10)
H70 H 1.0212 0.4130 1.3546
H71 H 0.9393 0.3284 1.2602
C29 C 1.050(2) 0.4941(13) 1.2444(12)
H72 H 0.9969 0.4785 1.1814
H73 H 1.1569 0.4902 1.2412
C30 C 1.0634(16) 0.6149(10) 1.2932(9)
H74 H 1.1278 0.6319 1.3540
C31 C 1.2037(15) 1.1053(9) 1.3551(8)
H75 H 1.2901 1.1133 1.4036
C32 C 1.165(2) 1.2140(15) 1.3719(13)
H76 H 1.1419 1.2293 1.4353
H77 H 1.0701 1.2053 1.3302
C33 C 1.3076(18) 1.3151(10) 1.3550(9)
H78 H 1.2788 1.3845 1.3603
H79 H 1.3968 1.3301 1.4027
C34 C 1.3599(15) 1.2916(9) 1.2613(8)
H80 H 1.2743 1.2833 1.2132
H81 H 1.4530 1.3570 1.2548
C35 C 1.3998(15) 1.1863(9) 1.2495(9)
H82 H 1.4918 1.1975 1.2941
H83 H 1.4293 1.1714 1.1876
C36 C 1.2625(16) 1.0835(9) 1.2626(8)
H84 H 1.1740 1.0710 1.2140
C37 C 0.135(2) 0.9669(13) 0.7388(12)
C38 C 0.520(2) 0.9857(13) 1.0806(12)
C39 C 1.245(2) 0.8975(12) 1.4992(11)
C40 C 0.400(2) 0.9503(13) 0.6757(12)
C41 C 0.687(2) 0.9898(12) 1.2500(11)
C42 C 0.848(2) 1.0784(15) 1.1158(12)
C43 C 0.845(2) 0.8737(12) 1.1583(11)
C44 C 0.701(2) 0.8867(13) 0.9925(11)
C45 C 0.521(2) 0.7907(14) 1.1299(11)
C46 C 0.265(2) 1.0926(14) 0.6135(12)
C47 C 0.108(3) 0.7690(17) 0.6240(14)
C48 C -0.012(2) 0.9195(13) 0.5642(11)
C39_2 C 0.245(2) 0.8975(12) 0.4992(11)
N24_2 N 0.8643(16) 0.9138(11) 0.5345(8)
Ni2_2 Ni -0.3080(3) 0.9369(2) 0.6200(2)
Fe2_2 Fe 1.1930(4) 0.9334(3) 1.6173(2)
O1 O 0.814(2) 1.1281(14) 0.9075(12)
O2 O 0.5903(16) 0.7579(11) 0.3423(8)
loop_
_geom_bond_atom_site_label_1
_geom_bond_atom_site_label_2
_geom_bond_site_symmetry_1
_geom_bond_site_symmetry_2
Fe1 C38 1_555 1_555
Fe2 C37 1_555 1_555
Ni1 N1 1_555 1_555
Ni2 N5 1_555 1_555
Ni3 N9 1_555 1_555
N1 H1 1_555 1_555
H2 N1 1_555 1_555
N2 Ni1 1_555 1_555
H3 N2 1_555 1_555
H4 N2 1_555 1_555
N3 Ni1 1_555 1_555
H5 N3 1_555 1_555
H6 N3 1_555 1_555
N4 Ni1 1_555 1_555
H7 N4 1_555 1_555
H8 N4 1_555 1_555
N5 H9 1_555 1_555
H10 N5 1_555 1_555
N6 Ni2 1_555 1_555
H11 N6 1_555 1_555
H12 N6 1_555 1_555
N7 Ni2 1_555 1_555
H13 N7 1_555 1_555
H14 N7 1_555 1_555
N8 Ni2 1_555 1_555
H15 N8 1_555 1_555
H16 N8 1_555 1_555
N9 H17 1_555 1_555
H18 N9 1_555 1_555
N10 Ni3 1_555 1_555
H19 N10 1_555 1_555
H20 N10 1_555 1_555
N11 Ni3 1_555 1_555
H21 N11 1_555 1_555
H22 N11 1_555 1_555
N12 Ni3 1_555 1_555
H23 N12 1_555 1_555
H24 N12 1_555 1_555
N13 Ni1 1_555 1_555
N14 Ni1 1_555 1_555
N15 Ni3 1_555 1_555
N16 Ni2 1_555 1_555
N17 C41 1_555 1_555
N18 C42 1_555 1_555
N19 Ni3 1_555 1_555
N20 C44 1_555 1_555
N21 C45 1_555 1_555
N22 C46 1_555 1_555
N23 C47 1_555 1_555
N24 C48 1_555 1_555
C1 N2 1_555 1_555
H25 C1 1_555 1_555
C2 C1 1_555 1_555
H26 C2 1_555 1_555
H27 C2 1_555 1_555
C3 C2 1_555 1_555
H28 C3 1_555 1_555
H29 C3 1_555 1_555
C4 C3 1_555 1_555
H30 C4 1_555 1_555
H31 C4 1_555 1_555
C5 C4 1_555 1_555
H32 C5 1_555 1_555
H33 C5 1_555 1_555
C6 N1 1_555 1_555
H34 C6 1_555 1_555
C7 N3 1_555 1_555
H35 C7 1_555 1_555
C8 C7 1_555 1_555
H36 C8 1_555 1_555
H37 C8 1_555 1_555
C9 C8 1_555 1_555
H38 C9 1_555 1_555
H39 C9 1_555 1_555
C10 C9 1_555 1_555
H40 C10 1_555 1_555
H41 C10 1_555 1_555
C11 C10 1_555 1_555
H42 C11 1_555 1_555
H43 C11 1_555 1_555
C12 N4 1_555 1_555
H44 C12 1_555 1_555
C13 N5 1_555 1_555
H45 C13 1_555 1_555
C14 C13 1_555 1_555
H46 C14 1_555 1_555
H47 C14 1_555 1_555
C15 C14 1_555 1_555
H48 C15 1_555 1_555
H49 C15 1_555 1_555
C16 C15 1_555 1_555
H50 C16 1_555 1_555
H51 C16 1_555 1_555
C17 C16 1_555 1_555
H52 C17 1_555 1_555
H53 C17 1_555 1_555
C18 N6 1_555 1_555
H54 C18 1_555 1_555
C19 N7 1_555 1_555
H55 C19 1_555 1_555
C20 C19 1_555 1_555
H56 C20 1_555 1_555
H57 C20 1_555 1_555
C21 C20 1_555 1_555
H58 C21 1_555 1_555
H59 C21 1_555 1_555
C22 C21 1_555 1_555
H60 C22 1_555 1_555
H61 C22 1_555 1_555
C23 C22 1_555 1_555
H62 C23 1_555 1_555
H63 C23 1_555 1_555
C24 N8 1_555 1_555
H64 C24 1_555 1_555
C25 N9 1_555 1_555
H65 C25 1_555 1_555
C26 C25 1_555 1_555
H66 C26 1_555 1_555
H67 C26 1_555 1_555
C27 C26 1_555 1_555
H68 C27 1_555 1_555
H69 C27 1_555 1_555
C28 C27 1_555 1_555
H70 C28 1_555 1_555
H71 C28 1_555 1_555
C29 C28 1_555 1_555
H72 C29 1_555 1_555
H73 C29 1_555 1_555
C30 N10 1_555 1_555
H74 C30 1_555 1_555
C31 N12 1_555 1_555
H75 C31 1_555 1_555
C32 C31 1_555 1_555
H76 C32 1_555 1_555
H77 C32 1_555 1_555
C33 C32 1_555 1_555
H78 C33 1_555 1_555
H79 C33 1_555 1_555
C34 C33 1_555 1_555
H80 C34 1_555 1_555
H81 C34 1_555 1_555
C35 C34 1_555 1_555
H82 C35 1_555 1_555
H83 C35 1_555 1_555
C36 N11 1_555 1_555
H84 C36 1_555 1_555
C37 N14 1_555 1_555
C38 N13 1_555 1_555
C39 N15 1_555 1_555
C40 Fe2 1_555 1_555
C41 Fe1 1_555 1_555
C42 Fe1 1_555 1_555
C43 Fe1 1_555 1_555
C44 Fe1 1_555 1_555
C45 Fe1 1_555 1_555
C46 Fe2 1_555 1_555
C47 Fe2 1_555 1_555
C48 Fe2 1_555 1_555
C39_2 Fe2 1_555 1_555
N24_2 Ni2 1_555 1_555
Ni2_2 N24 1_555 1_555
Fe2_2 C39 1_555 1_555
N16 C40 1_555 1_555
N19 C43 1_555 1_555
C1 C6 1_555 1_555
C5 C6 1_555 1_555
C7 C12 1_555 1_555
C11 C12 1_555 1_555
C13 C18 1_555 1_555
C17 C18 1_555 1_555
C19 C24 1_555 1_555
C23 C24 1_555 1_555
C25 C30 1_555 1_555
C29 C30 1_555 1_555
C31 C36 1_555 1_555
C35 C36 1_555 1_555

#END
