
#######################################################################
#
#                 Cambridge Crystallographic Data Centre
#                                CCDC 
#
#######################################################################
#
# If this CIF has been generated from an entry in the Cambridge 
# Structural Database, then it will include bibliographic, chemical, 
# crystal, experimental, refinement or atomic coordinate data resulting 
# from the CCDC's data processing and validation procedures.
#
#######################################################################

data_LUFNAC01
_symmetry_cell_setting           monoclinic
_symmetry_space_group_name_H-M   'C 2/c'
_symmetry_Int_Tables_number      15
_space_group_name_Hall           '-C 2yn'
loop_
_symmetry_equiv_pos_site_id
_symmetry_equiv_pos_as_xyz
1 x,y,z
2 -x,y,1/2-z
3 1/2+x,1/2+y,z
4 1/2-x,1/2+y,1/2-z
5 -x,-y,-z
6 x,-y,1/2+z
7 1/2-x,1/2-y,-z
8 1/2+x,1/2-y,1/2+z
_cell_length_a                   18.406(7)
_cell_length_b                   15.041(5)
_cell_length_c                   16.344(4)
_cell_angle_alpha                90
_cell_angle_beta                 111.540(4)
_cell_angle_gamma                90
_cell_volume                     4208.75
loop_
_atom_site_label
_atom_site_type_symbol
_atom_site_fract_x
_atom_site_fract_y
_atom_site_fract_z
Mn1 Mn -0.22394(6) 0.10856(7) 0.54706(6)
O1 O 0.2871(3) 0.5246(3) 0.6644(3)
O2 O 0.2600(3) 0.4572(4) 0.5369(3)
O3 O 0.2528(3) 0.3672(3) 0.9112(3)
O4 O 0.1962(3) 0.2339(3) 0.8914(3)
C1 C 0.2017(4) 0.2200(5) 0.6365(4)
C2 C 0.2249(4) 0.2994(5) 0.7744(4)
N1 N -0.0954(4) 0.0909(4) 0.5685(4)
N2 N 0.1828(4) 0.1450(4) 0.5851(4)
H1 H 0.1913 0.1440 0.5368
C3 C 0.2663(5) 0.4561(5) 0.6164(5)
C4 C 0.2465(4) 0.3728(5) 0.6552(4)
C5 C 0.2013(4) 0.2223(5) 0.7223(5)
H2 H 0.1853 0.1724 0.7449
C6 C 0.2468(4) 0.3742(5) 0.7406(4)
H3 H 0.2616 0.4254 0.7746
C7 C 0.0640(5) 0.0774(5) 0.5958(5)
C8 C 0.2256(4) 0.2990(5) 0.8665(4)
C9 C 0.2235(4) 0.2972(5) 0.6037(5)
H4 H 0.2225 0.2977 0.5464
C10 C 0.1492(4) 0.0680(5) 0.6100(5)
H5 H 0.1780 0.0556 0.6718
H6 H 0.1554 0.0173 0.5766
O5 O -0.3534(5) 0.1223(6) 0.5165(6)
C11 C 0.0157(5) 0.1349(7) 0.5339(7)
H7 H 0.0354 0.1696 0.4997
C12 C 0.0297(6) 0.0238(7) 0.6395(6)
H8 H 0.0591 -0.0187 0.6792
C13 C -0.0491(6) 0.0337(7) 0.6237(6)
H9 H -0.0708 -0.0029 0.6546
C14 C -0.0623(5) 0.1403(6) 0.5232(6)
H10 H -0.0937 0.1806 0.4821
Mn1A Mn 0.22394(6) 0.10856(7) 0.95294(6)
Mn1B Mn 0.27606(6) 0.60856(7) 0.54706(6)
Mn1C Mn -0.27606(6) 0.60856(7) 0.95294(6)
Mn1F Mn -0.27606(6) 0.39144(7) 0.45294(6)
Mn1G Mn 0.27606(6) 0.39144(7) 1.04706(6)
O1A O -0.2871(3) 0.5246(3) 0.8356(3)
O1B O -0.2129(3) 0.0246(3) 0.6644(3)
O1C O 0.2129(3) 0.0246(3) 0.8356(3)
O2A O -0.2600(3) 0.4572(4) 0.9631(3)
O2B O -0.2400(3) -0.0428(4) 0.5369(3)
O2C O 0.2400(3) -0.0428(4) 0.9631(3)
O3A O -0.2528(3) 0.3672(3) 0.5888(3)
O3F O 0.2472(3) 0.1328(3) 1.0888(3)
O3G O -0.2472(3) 0.1328(3) 0.4112(3)
O4A O -0.1962(3) 0.2339(3) 0.6086(3)
C1A C -0.2017(4) 0.2200(5) 0.8635(4)
C2A C -0.2249(4) 0.2994(5) 0.7256(4)
N1A N 0.0954(4) 0.0909(4) 0.9315(4)
N2A N -0.1828(4) 0.1450(4) 0.9149(4)
H1A H -0.1913 0.1440 0.9632
C3A C -0.2663(5) 0.4561(5) 0.8836(5)
C4A C -0.2465(4) 0.3728(5) 0.8448(4)
C5A C -0.2013(4) 0.2223(5) 0.7777(5)
H2A H -0.1853 0.1724 0.7551
C6A C -0.2468(4) 0.3742(5) 0.7594(4)
H3A H -0.2616 0.4254 0.7254
C7A C -0.0640(5) 0.0774(5) 0.9042(5)
C8A C -0.2256(4) 0.2990(5) 0.6335(4)
C9A C -0.2235(4) 0.2972(5) 0.8963(5)
H4A H -0.2225 0.2977 0.9536
C10A C -0.1492(4) 0.0680(5) 0.8900(5)
H5A H -0.1780 0.0556 0.8282
H6A H -0.1554 0.0173 0.9234
O5A O 0.3534(5) 0.1223(6) 0.9835(6)
C11A C -0.0157(5) 0.1349(7) 0.9661(7)
H7A H -0.0354 0.1696 1.0003
C12A C -0.0297(6) 0.0238(7) 0.8605(6)
H8A H -0.0591 -0.0187 0.8208
C13A C 0.0491(6) 0.0337(7) 0.8763(6)
H9A H 0.0708 -0.0029 0.8454
C14A C 0.0623(5) 0.1403(6) 0.9768(6)
H10A H 0.0937 0.1806 1.0179
N3 N 0.3910(9) 0.1613(19) 0.7403(17)
C15 C 0.3914(12) 0.157(3) 0.6591(19)
H11 H 0.3821 0.1022 0.6315
O6 O 0.4029(18) 0.220(3) 0.6174(18)
C16 C 0.3700(16) 0.082(3) 0.775(3)
H12 H 0.3722 0.0936 0.8338
H13 H 0.4058 0.0355 0.7762
H14 H 0.3179 0.0650 0.7387
C17 C 0.4101(18) 0.242(3) 0.791(3)
H15 H 0.4066 0.2318 0.8477
H16 H 0.3741 0.2879 0.7610
H17 H 0.4623 0.2599 0.7991
O7 O -0.5171(14) 0.111(2) 0.4161(15)
O8 O -0.5000 0.130(5) 0.2500
loop_
_geom_bond_atom_site_label_1
_geom_bond_atom_site_label_2
_geom_bond_site_symmetry_1
_geom_bond_site_symmetry_2
Mn1 N1 1_555 1_555
O1 C3 1_555 1_555
O2 C3 1_555 1_555
O3 C8 1_555 1_555
O4 C8 1_555 1_555
C1 N2 1_555 1_555
C2 C5 1_555 1_555
N1 C13 1_555 1_555
N2 H1 1_555 1_555
C3 C4 1_555 1_555
C4 C6 1_555 1_555
C5 C1 1_555 1_555
H2 C5 1_555 1_555
C6 C2 1_555 1_555
H3 C6 1_555 1_555
C7 C10 1_555 1_555
C8 C2 1_555 1_555
C9 C1 1_555 1_555
H4 C9 1_555 1_555
C10 N2 1_555 1_555
H5 C10 1_555 1_555
H6 C10 1_555 1_555
O5 Mn1 1_555 1_555
C11 C7 1_555 1_555
H7 C11 1_555 1_555
C12 C7 1_555 1_555
H8 C12 1_555 1_555
C13 C12 1_555 1_555
H9 C13 1_555 1_555
C14 N1 1_555 1_555
H10 C14 1_555 1_555
N3 C15 1_555 1_555
C15 H11 1_555 1_555
O6 C15 1_555 1_555
C16 N3 1_555 1_555
H12 C16 1_555 1_555
H13 C16 1_555 1_555
H14 C16 1_555 1_555
C17 N3 1_555 1_555
H15 C17 1_555 1_555
H16 C17 1_555 1_555
H17 C17 1_555 1_555
Mn1A O4 1_555 1_555
Mn1B O1 1_555 1_555
Mn1C O1A 1_555 1_555
Mn1F O3A 1_555 1_555
Mn1G O3 1_555 1_555
O1A C3A 1_555 1_555
O1B Mn1 1_555 1_555
O1C Mn1A 1_555 1_555
O2A Mn1C 1_555 1_555
O2B Mn1 1_555 1_555
O2C Mn1A 1_555 1_555
O3A C8A 1_555 1_555
O3F Mn1A 1_555 1_555
O3G Mn1 1_555 1_555
O4A Mn1 1_555 1_555
C1A N2A 1_555 1_555
C2A C5A 1_555 1_555
N1A Mn1A 1_555 1_555
N2A H1A 1_555 1_555
C3A O2A 1_555 1_555
C4A C3A 1_555 1_555
C5A C1A 1_555 1_555
H2A C5A 1_555 1_555
C6A C2A 1_555 1_555
H3A C6A 1_555 1_555
C7A C10A 1_555 1_555
C8A O4A 1_555 1_555
C9A C1A 1_555 1_555
H4A C9A 1_555 1_555
C10A N2A 1_555 1_555
H5A C10A 1_555 1_555
H6A C10A 1_555 1_555
O5A Mn1A 1_555 1_555
C11A C7A 1_555 1_555
H7A C11A 1_555 1_555
C12A C7A 1_555 1_555
H8A C12A 1_555 1_555
C13A N1A 1_555 1_555
H9A C13A 1_555 1_555
C14A N1A 1_555 1_555
H10A C14A 1_555 1_555
O2 Mn1B 1_555 1_555
C4 C9 1_555 1_555
C11 C14 1_555 1_555
C2A C8A 1_555 1_555
C4A C6A 1_555 1_555
C4A C9A 1_555 1_555
C11A C14A 1_555 1_555
C12A C13A 1_555 1_555

#END
