
#######################################################################
#
#                 Cambridge Crystallographic Data Centre
#                                CCDC 
#
#######################################################################
#
# If this CIF has been generated from an entry in the Cambridge 
# Structural Database, then it will include bibliographic, chemical, 
# crystal, experimental, refinement or atomic coordinate data resulting 
# from the CCDC's data processing and validation procedures.
#
#######################################################################

data_LUFYAN
_symmetry_cell_setting           monoclinic
_symmetry_space_group_name_H-M   'P 21/c'
_symmetry_Int_Tables_number      14
_space_group_name_Hall           '-P 2ybc'
loop_
_symmetry_equiv_pos_site_id
_symmetry_equiv_pos_as_xyz
1 x,y,z
2 -x,1/2+y,1/2-z
3 -x,-y,-z
4 x,1/2-y,1/2+z
_cell_length_a                   10.0871(2)
_cell_length_b                   16.8016(3)
_cell_length_c                   17.4116(4)
_cell_angle_alpha                90
_cell_angle_beta                 105.383(1)
_cell_angle_gamma                90
_cell_volume                     2845.19
loop_
_atom_site_label
_atom_site_type_symbol
_atom_site_fract_x
_atom_site_fract_y
_atom_site_fract_z
Co1 Co 0.27915(4) 0.73330(2) 0.301654(19)
Cl1 Cl 0.49054(7) 0.74823(4) 0.28650(4)
O1 O 0.28769(18) 0.49870(10) 0.57330(10)
N1 N 0.3047(2) 0.35765(12) 0.47772(11)
C1 C 0.2327(3) 0.57653(15) 0.57257(16)
H1 H 0.1668 0.5777 0.6057
H2 H 0.1824 0.5911 0.5174
Cl2 Cl 0.09880(8) 0.75990(5) 0.19771(4)
O2 O 0.57759(18) 0.35023(10) 0.45201(10)
N2 N 0.2559(2) 0.61770(12) 0.32998(11)
C2 C 0.1812(3) 0.44113(16) 0.55354(15)
H3 H 0.1133 0.4567 0.5035
H4 H 0.1333 0.4386 0.5963
O3 O 0.2559(2) 1.08012(12) 0.45195(11)
N3 N 0.2725(2) 0.79718(13) 0.39928(12)
C3 C 0.2402(3) 0.36015(15) 0.54332(15)
H5 H 0.3091 0.3455 0.5933
H6 H 0.1655 0.3201 0.5337
O4 O 0.6250(2) 0.97575(11) 0.67104(11)
N4 N 0.3320(2) 1.00767(13) 0.61478(13)
C4 C 0.3817(3) 0.28435(14) 0.47708(15)
H7 H 0.3163 0.2401 0.4584
H8 H 0.4356 0.2719 0.5321
C5 C 0.4780(3) 0.29019(15) 0.42386(15)
H10 H 0.5245 0.2384 0.4231
H11 H 0.4248 0.3028 0.3688
C6 C 0.3453(3) 0.63583(16) 0.60408(15)
H12 H 0.4070 0.6156 0.6543
H13 H 0.3047 0.6865 0.6159
C7 C 0.2083(3) 0.37661(15) 0.40139(14)
H14 H 0.1132 0.3687 0.4055
H15 H 0.2235 0.3398 0.3602
C8 C 0.2246(2) 0.46112(14) 0.37636(13)
C9 C 0.3496(2) 0.50034(13) 0.40195(13)
H16 H 0.4266 0.4741 0.4358
C10 C 0.3612(2) 0.57770(14) 0.37782(13)
H17 H 0.4474 0.6038 0.3958
C11 C 0.1355(3) 0.57960(16) 0.30413(15)
H18 H 0.0607 0.6070 0.2696
C12 C 0.1156(3) 0.50229(16) 0.32548(15)
H19 H 0.0287 0.4773 0.3058
C13 C 0.3540(3) 0.86074(15) 0.42243(15)
H20 H 0.4159 0.8752 0.3920
C14 C 0.3524(3) 0.90611(15) 0.48823(16)
H21 H 0.4122 0.9505 0.5026
C15 C 0.2622(3) 0.88616(15) 0.53311(15)
C16 C 0.1783(3) 0.81994(16) 0.50965(15)
H22 H 0.1158 0.8042 0.5391
C17 C 0.1865(3) 0.77741(15) 0.44337(16)
H23 H 0.1289 0.7322 0.4282
C18 C 0.2579(3) 0.93246(18) 0.60683(16)
H24 H 0.1608 0.9432 0.6054
H25 H 0.2978 0.8993 0.6544
C19 C 0.1838(3) 1.0721(2) 0.37107(19)
H26 H 0.1070 1.1107 0.3577
H27 H 0.1447 1.0178 0.3614
C20 C 0.1646(3) 1.0719(2) 0.5007(2)
H28 H 0.1159 1.0203 0.4896
H29 H 0.0951 1.1149 0.4883
C21 C 0.2423(3) 1.07599(19) 0.58746(19)
H30 H 0.2987 1.1251 0.5966
H31 H 0.1754 1.0798 0.6199
C22 C 0.4170(3) 1.02159(16) 0.69601(15)
H32 H 0.3588 1.0167 0.7335
H33 H 0.4532 1.0766 0.6999
C23 C 0.5351(3) 0.96481(17) 0.72053(15)
H34 H 0.5853 0.9744 0.7768
H35 H 0.5004 0.9094 0.7157
C24 C 0.2778(3) 1.08650(19) 0.31942(17)
H36 H 0.3261 1.1379 0.3339
H37 H 0.2238 1.0895 0.2630
Co1B Co 0.72085(4) 0.26670(2) 0.698346(19)
Co1B_2 Co 0.72085(4) 1.26670(2) 0.698346(19)
Cl1B Cl 0.50946(7) 0.25177(4) 0.71350(4)
O1B O 0.71231(18) 0.50130(10) 0.42670(10)
N1B N 0.6953(2) 0.64235(12) 0.52228(11)
C1B C 0.7673(3) 0.42347(15) 0.42743(16)
H1B H 0.8332 0.4223 0.3943
H2B H 0.8176 0.4089 0.4826
Cl2B Cl 0.90120(8) 0.24010(5) 0.80229(4)
O2B O 0.42241(18) 0.64977(10) 0.54799(10)
N2B N 0.7441(2) 0.38230(12) 0.67002(11)
C2B C 0.8188(3) 0.55887(16) 0.44646(15)
H3B H 0.8867 0.5433 0.4965
H4B H 0.8667 0.5614 0.4037
O3B O 0.7441(2) 0.91988(12) 0.54805(11)
N3B N 0.7275(2) 1.20282(13) 0.60072(12)
N3B_2 N 0.7275(2) 0.20282(13) 0.60072(12)
C3B C 0.7598(3) 0.63985(15) 0.45668(15)
H5B H 0.6909 0.6545 0.4067
H6B H 0.8345 0.6799 0.4663
O4B O 0.3750(2) 1.02425(11) 0.32896(11)
N4B N 0.6680(2) 0.99233(13) 0.38522(13)
C4B C 0.6183(3) 0.71565(14) 0.52292(15)
H7B H 0.6837 0.7599 0.5416
H8B H 0.5644 0.7281 0.4679
C5B C 0.5220(3) 0.70981(15) 0.57614(15)
H10B H 0.4755 0.7616 0.5769
H11B H 0.5752 0.6972 0.6312
C6B C 0.6547(3) 0.36417(16) 0.39592(15)
H12B H 0.5930 0.3844 0.3457
H13B H 0.6953 0.3135 0.3841
C7B C 0.7917(3) 0.62339(15) 0.59861(14)
H14B H 0.8868 0.6313 0.5945
H15B H 0.7765 0.6602 0.6398
C8B C 0.7754(2) 0.53888(14) 0.62364(13)
C9B C 0.6504(2) 0.49966(13) 0.59805(13)
H16B H 0.5734 0.5259 0.5642
C10B C 0.6388(2) 0.42230(14) 0.62218(13)
H17B H 0.5526 0.3962 0.6042
C11B C 0.8645(3) 0.42040(16) 0.69587(15)
H18B H 0.9393 0.3930 0.7304
C12B C 0.8844(3) 0.49771(16) 0.67452(15)
H19B H 0.9713 0.5227 0.6942
C13B C 0.6460(3) 1.13926(15) 0.57757(15)
H20B H 0.5841 1.1248 0.6080
C14B C 0.6476(3) 1.09389(15) 0.51177(16)
H21B H 0.5878 1.0495 0.4974
C15B C 0.7378(3) 1.11384(15) 0.46689(15)
C16B C 0.8217(3) 1.18006(16) 0.49035(15)
H22B H 0.8842 1.1958 0.4609
C17B C 0.8135(3) 1.22259(15) 0.55663(16)
H23B H 0.8711 1.2678 0.5718
C18B C 0.7421(3) 1.06754(18) 0.39317(16)
H24B H 0.8392 1.0568 0.3946
H25B H 0.7022 1.1007 0.3456
C19B C 0.8162(3) 0.9279(2) 0.62893(19)
H26B H 0.8930 0.8893 0.6423
H27B H 0.8553 0.9822 0.6386
C20B C 0.8354(3) 0.9281(2) 0.4993(2)
H28B H 0.8841 0.9797 0.5104
H29B H 0.9049 0.8851 0.5117
C21B C 0.7577(3) 0.92401(19) 0.41254(19)
H30B H 0.7013 0.8749 0.4034
H31B H 0.8246 0.9202 0.3801
C22B C 0.5830(3) 0.97841(16) 0.30399(15)
H32B H 0.6412 0.9833 0.2665
H33B H 0.5468 0.9234 0.3001
C23B C 0.4649(3) 1.03519(17) 0.27947(15)
H34B H 0.4147 1.0256 0.2232
H35B H 0.4996 1.0906 0.2843
C24B C 0.7222(3) 0.91350(19) 0.68058(17)
H36B H 0.6739 0.8621 0.6661
H37B H 0.7762 0.9105 0.7370
O5 O -0.1462(10) 0.7699(6) 0.3040(5)
H9 H -0.1197 0.7307 0.2820
C25 C -0.0625(13) 0.8415(8) 0.2961(7)
H38 H -0.1161 0.8761 0.2539
H39 H 0.0216 0.8246 0.2827
H40 H -0.0382 0.8707 0.3466
loop_
_geom_bond_atom_site_label_1
_geom_bond_atom_site_label_2
_geom_bond_site_symmetry_1
_geom_bond_site_symmetry_2
Co1 Cl1 1_555 1_555
O1 C1 1_555 1_555
N1 C3 1_555 1_555
C1 H1 1_555 1_555
H2 C1 1_555 1_555
Cl2 Co1 1_555 1_555
O2 C5 1_555 1_555
N2 Co1 1_555 1_555
C2 O1 1_555 1_555
H3 C2 1_555 1_555
H4 C2 1_555 1_555
O3 C19 1_555 1_555
N3 Co1 1_555 1_555
C3 C2 1_555 1_555
H5 C3 1_555 1_555
H6 C3 1_555 1_555
O4 C23 1_555 1_555
N4 C18 1_555 1_555
C4 N1 1_555 1_555
H7 C4 1_555 1_555
H8 C4 1_555 1_555
O5 H9 1_555 1_555
C5 C4 1_555 1_555
H10 C5 1_555 1_555
H11 C5 1_555 1_555
C6 C1 1_555 1_555
H12 C6 1_555 1_555
H13 C6 1_555 1_555
C7 N1 1_555 1_555
H14 C7 1_555 1_555
H15 C7 1_555 1_555
C8 C7 1_555 1_555
C9 C8 1_555 1_555
H16 C9 1_555 1_555
C10 N2 1_555 1_555
H17 C10 1_555 1_555
C11 N2 1_555 1_555
H18 C11 1_555 1_555
C12 C8 1_555 1_555
H19 C12 1_555 1_555
C13 N3 1_555 1_555
H20 C13 1_555 1_555
C14 C13 1_555 1_555
H21 C14 1_555 1_555
C15 C14 1_555 1_555
C16 C15 1_555 1_555
H22 C16 1_555 1_555
C17 N3 1_555 1_555
H23 C17 1_555 1_555
C18 C15 1_555 1_555
H24 C18 1_555 1_555
H25 C18 1_555 1_555
C19 H26 1_555 1_555
H27 C19 1_555 1_555
C20 O3 1_555 1_555
H28 C20 1_555 1_555
H29 C20 1_555 1_555
C21 N4 1_555 1_555
H30 C21 1_555 1_555
H31 C21 1_555 1_555
C22 N4 1_555 1_555
H32 C22 1_555 1_555
H33 C22 1_555 1_555
C23 C22 1_555 1_555
H34 C23 1_555 1_555
H35 C23 1_555 1_555
C24 C19 1_555 1_555
H36 C24 1_555 1_555
H37 C24 1_555 1_555
C25 O5 1_555 1_555
H38 C25 1_555 1_555
H39 C25 1_555 1_555
H40 C25 1_555 1_555
Co1B Cl1B 1_555 1_555
Co1B_2 N3B 1_555 1_555
O1B C1B 1_555 1_555
N1B C3B 1_555 1_555
C1B H1B 1_555 1_555
H2B C1B 1_555 1_555
Cl2B Co1B 1_555 1_555
O2B C6 1_555 1_555
N2B Co1B 1_555 1_555
C2B O1B 1_555 1_555
H3B C2B 1_555 1_555
H4B C2B 1_555 1_555
O3B C19B 1_555 1_555
N3B C13B 1_555 1_555
N3B_2 Co1B 1_555 1_555
C3B C2B 1_555 1_555
H5B C3B 1_555 1_555
H6B C3B 1_555 1_555
O4B C24 1_555 1_555
N4B C18B 1_555 1_555
C4B N1B 1_555 1_555
H7B C4B 1_555 1_555
H8B C4B 1_555 1_555
C5B O2B 1_555 1_555
H10B C5B 1_555 1_555
H11B C5B 1_555 1_555
C6B O2 1_555 1_555
H12B C6B 1_555 1_555
H13B C6B 1_555 1_555
C7B N1B 1_555 1_555
H14B C7B 1_555 1_555
H15B C7B 1_555 1_555
C8B C7B 1_555 1_555
C9B C8B 1_555 1_555
H16B C9B 1_555 1_555
C10B N2B 1_555 1_555
H17B C10B 1_555 1_555
C11B N2B 1_555 1_555
H18B C11B 1_555 1_555
C12B C8B 1_555 1_555
H19B C12B 1_555 1_555
C13B H20B 1_555 1_555
C14B C13B 1_555 1_555
H21B C14B 1_555 1_555
C15B C14B 1_555 1_555
C16B C15B 1_555 1_555
H22B C16B 1_555 1_555
C17B N3B 1_555 1_555
H23B C17B 1_555 1_555
C18B C15B 1_555 1_555
H24B C18B 1_555 1_555
H25B C18B 1_555 1_555
C19B H26B 1_555 1_555
H27B C19B 1_555 1_555
C20B O3B 1_555 1_555
H28B C20B 1_555 1_555
H29B C20B 1_555 1_555
C21B N4B 1_555 1_555
H30B C21B 1_555 1_555
H31B C21B 1_555 1_555
C22B N4B 1_555 1_555
H32B C22B 1_555 1_555
H33B C22B 1_555 1_555
C23B O4B 1_555 1_555
H34B C23B 1_555 1_555
H35B C23B 1_555 1_555
C24B O4 1_555 1_555
H36B C24B 1_555 1_555
H37B C24B 1_555 1_555
C9 C10 1_555 1_555
C11 C12 1_555 1_555
C16 C17 1_555 1_555
C20 C21 1_555 1_555
C1B C6B 1_555 1_555
C4B C5B 1_555 1_555
C9B C10B 1_555 1_555
C11B C12B 1_555 1_555
C16B C17B 1_555 1_555
C19B C24B 1_555 1_555
C20B C21B 1_555 1_555
C22B C23B 1_555 1_555

#END
