
#######################################################################
#
#                 Cambridge Crystallographic Data Centre
#                                CCDC 
#
#######################################################################
#
# If this CIF has been generated from an entry in the Cambridge 
# Structural Database, then it will include bibliographic, chemical, 
# crystal, experimental, refinement or atomic coordinate data resulting 
# from the CCDC's data processing and validation procedures.
#
#######################################################################

data_LUGNIM
_symmetry_cell_setting           monoclinic
_symmetry_space_group_name_H-M   'P 21/c'
_symmetry_Int_Tables_number      14
_space_group_name_Hall           '-P 2ybc'
loop_
_symmetry_equiv_pos_site_id
_symmetry_equiv_pos_as_xyz
1 x,y,z
2 -x,1/2+y,1/2-z
3 -x,-y,-z
4 x,1/2-y,1/2+z
_cell_length_a                   12.041(3)
_cell_length_b                   11.466(3)
_cell_length_c                   20.435(5)
_cell_angle_alpha                90
_cell_angle_beta                 99.367(4)
_cell_angle_gamma                90
_cell_volume                     2783.68
loop_
_atom_site_label
_atom_site_type_symbol
_atom_site_fract_x
_atom_site_fract_y
_atom_site_fract_z
Sn1 Sn 0.08659(3) 0.28022(4) 0.519898(19)
Sn2 Sn 0.19308(3) 0.16243(4) 0.287219(18)
O1 O 0.2095(3) 0.1928(4) 0.44422(18)
O2 O 0.3227(3) 0.1613(4) 0.37169(17)
O3 O -0.0369(3) 0.3496(4) 0.57310(18)
O4 O 0.0541(3) 0.3261(4) 0.67535(19)
C1 C 0.3041(5) 0.1743(5) 0.4312(3)
C2 C 0.4046(4) 0.1646(5) 0.4838(2)
C3 C 0.3910(5) 0.1452(5) 0.5489(3)
H1 H 0.3187 0.1419 0.5594
C4 C 0.4819(5) 0.1306(5) 0.5982(3)
C5 C 0.5872(5) 0.1373(5) 0.5814(3)
H2 H 0.6493 0.1291 0.6147
C6 C 0.6053(5) 0.1557(5) 0.5173(3)
C7 C 0.5113(5) 0.1686(5) 0.4688(3)
H3 H 0.5209 0.1802 0.4250
C8 C 0.4663(6) 0.1035(7) 0.6685(3)
H4 H 0.5225 0.0486 0.6876
H5 H 0.3928 0.0708 0.6683
H6 H 0.4736 0.1739 0.6942
C9 C 0.7219(5) 0.1600(7) 0.5021(3)
H7 H 0.7731 0.1811 0.5414
H8 H 0.7258 0.2168 0.4681
H9 H 0.7419 0.0847 0.4871
C10 C -0.0331(5) 0.3432(5) 0.6359(3)
C11 C -0.1442(4) 0.3572(4) 0.6588(2)
C12 C -0.2342(4) 0.4050(5) 0.6168(3)
H10 H -0.2251 0.4277 0.5743
C13 C -0.3384(5) 0.4195(5) 0.6370(3)
C14 C -0.3503(5) 0.3818(5) 0.6995(3)
H11 H -0.4194 0.3904 0.7138
C15 C -0.2617(5) 0.3312(6) 0.7416(3)
C16 C -0.1593(5) 0.3203(5) 0.7215(2)
H12 H -0.0992 0.2878 0.7501
C17 C -0.4363(5) 0.4725(7) 0.5913(3)
H13 H -0.4609 0.4198 0.5553
H14 H -0.4134 0.5448 0.5740
H15 H -0.4971 0.4865 0.6154
C18 C -0.2789(7) 0.2917(9) 0.8103(3)
H16 H -0.2399 0.2194 0.8210
H17 H -0.3578 0.2808 0.8108
H18 H -0.2498 0.3498 0.8423
C19 C 0.0874(6) 0.1150(6) 0.5651(4)
H19 H 0.0122 0.0950 0.5710
H20 H 0.1354 0.1170 0.6075
H21 H 0.1148 0.0578 0.5374
C20 C 0.2136(5) 0.4051(6) 0.5446(3)
H22 H 0.2577 0.4103 0.5095
H23 H 0.2611 0.3827 0.5850
H24 H 0.1801 0.4796 0.5505
C21 C -0.0235(5) 0.3049(7) 0.4302(3)
H25 H -0.0991 0.3127 0.4389
H26 H -0.0191 0.2391 0.4017
H27 H -0.0026 0.3744 0.4089
C22 C 0.0928(6) 0.0286(6) 0.3159(3)
H28 H 0.0272 0.0617 0.3299
H29 H 0.1350 -0.0143 0.3520
H30 H 0.0702 -0.0228 0.2791
C23 C 0.3116(5) 0.1116(8) 0.2275(3)
H31 H 0.3048 0.0294 0.2188
H32 H 0.3862 0.1286 0.2501
H33 H 0.2980 0.1537 0.1863
C24 C 0.1531(7) 0.3384(5) 0.2879(3)
H34 H 0.0746 0.3488 0.2709
H35 H 0.1972 0.3805 0.2607
H36 H 0.1690 0.3675 0.3325
Sn2C Sn 0.19308(3) 0.33757(4) 0.787219(18)
O4C O 0.0541(3) 0.1739(4) 0.17535(19)
loop_
_geom_bond_atom_site_label_1
_geom_bond_atom_site_label_2
_geom_bond_site_symmetry_1
_geom_bond_site_symmetry_2
Sn1 O1 1_555 1_555
Sn2 O2 1_555 1_555
O1 C1 1_555 1_555
O2 C1 1_555 1_555
O3 Sn1 1_555 1_555
O4 C10 1_555 1_555
C1 C2 1_555 1_555
C2 C3 1_555 1_555
C3 H1 1_555 1_555
C4 C3 1_555 1_555
C5 C4 1_555 1_555
H2 C5 1_555 1_555
C6 C5 1_555 1_555
C7 C2 1_555 1_555
H3 C7 1_555 1_555
C8 C4 1_555 1_555
H4 C8 1_555 1_555
H5 C8 1_555 1_555
H6 C8 1_555 1_555
C9 C6 1_555 1_555
H7 C9 1_555 1_555
H8 C9 1_555 1_555
H9 C9 1_555 1_555
C10 O3 1_555 1_555
C11 C10 1_555 1_555
C12 C11 1_555 1_555
H10 C12 1_555 1_555
C13 C12 1_555 1_555
C14 C13 1_555 1_555
H11 C14 1_555 1_555
C15 C14 1_555 1_555
C16 C11 1_555 1_555
H12 C16 1_555 1_555
C17 C13 1_555 1_555
H13 C17 1_555 1_555
H14 C17 1_555 1_555
H15 C17 1_555 1_555
C18 C15 1_555 1_555
H16 C18 1_555 1_555
H17 C18 1_555 1_555
H18 C18 1_555 1_555
C19 Sn1 1_555 1_555
H19 C19 1_555 1_555
H20 C19 1_555 1_555
H21 C19 1_555 1_555
C20 Sn1 1_555 1_555
H22 C20 1_555 1_555
H23 C20 1_555 1_555
H24 C20 1_555 1_555
C21 Sn1 1_555 1_555
H25 C21 1_555 1_555
H26 C21 1_555 1_555
H27 C21 1_555 1_555
C22 Sn2 1_555 1_555
H28 C22 1_555 1_555
H29 C22 1_555 1_555
H30 C22 1_555 1_555
C23 Sn2 1_555 1_555
H31 C23 1_555 1_555
H32 C23 1_555 1_555
H33 C23 1_555 1_555
C24 Sn2 1_555 1_555
H34 C24 1_555 1_555
H35 C24 1_555 1_555
H36 C24 1_555 1_555
Sn2C O4 1_555 1_555
O4C Sn2 1_555 1_555
C6 C7 1_555 1_555
C15 C16 1_555 1_555

#END
