
#######################################################################
#
#                 Cambridge Crystallographic Data Centre
#                                CCDC 
#
#######################################################################
#
# If this CIF has been generated from an entry in the Cambridge 
# Structural Database, then it will include bibliographic, chemical, 
# crystal, experimental, refinement or atomic coordinate data resulting 
# from the CCDC's data processing and validation procedures.
#
#######################################################################

data_LUGVOZ01
_symmetry_cell_setting           monoclinic
_symmetry_space_group_name_H-M   'P 21/c'
_symmetry_Int_Tables_number      14
_space_group_name_Hall           '-P 2ybc'
loop_
_symmetry_equiv_pos_site_id
_symmetry_equiv_pos_as_xyz
1 x,y,z
2 -x,1/2+y,1/2-z
3 -x,-y,-z
4 x,1/2-y,1/2+z
_cell_length_a                   10.2251(11)
_cell_length_b                   6.5516(6)
_cell_length_c                   24.394(3)
_cell_angle_alpha                90
_cell_angle_beta                 92.021(2)
_cell_angle_gamma                90
_cell_volume                     1633.16
loop_
_atom_site_label
_atom_site_type_symbol
_atom_site_fract_x
_atom_site_fract_y
_atom_site_fract_z
Co1 Co 0.84768(3) 0.99930(6) 0.500328(14)
Co2 Co 0.47788(3) 0.90041(5) 0.327856(15)
Co3 Co 1.0000 1.5000 0.5000
C1 C 0.8698(2) 1.3184(4) 0.34517(10)
H1 H 0.7915 1.3948 0.3305
C2 C 0.8786(2) 1.1195(4) 0.31126(10)
H2 H 0.8731 1.1604 0.2717
C3 C 1.0100(2) 1.0105(4) 0.32058(10)
H3 H 1.0158 0.9564 0.3585
H4 H 1.0147 0.8934 0.2951
C4 C 1.1258(2) 1.1524(4) 0.31173(10)
H5 H 1.1186 1.1981 0.2726
C5 C 1.1215(2) 1.3460(4) 0.34703(10)
H6 H 1.1922 1.4392 0.3349
C6 C 0.9897(2) 1.4550(4) 0.33619(10)
H7 H 0.9859 1.5055 0.2979
H8 H 0.9854 1.5751 0.3607
C7 C 0.8503(2) 1.2853(4) 0.40595(11)
O1 O 0.83546(17) 1.1054(3) 0.42227(7)
O2 O 0.85103(16) 1.4418(3) 0.43703(7)
C8 C 0.7637(2) 0.9760(4) 0.32029(10)
O3 O 0.64946(16) 1.0575(2) 0.31644(7)
O4 O 0.78306(18) 0.7923(3) 0.32835(9)
C9 C 1.2570(2) 1.0468(4) 0.31912(10)
O5 O 1.35938(16) 1.1598(3) 0.32039(7)
O6 O 1.26935(16) 0.8561(3) 0.32255(8)
C10 C 1.1455(2) 1.3050(4) 0.40773(11)
O7 O 1.16521(16) 1.1242(3) 0.42312(7)
O8 O 1.14361(16) 1.4565(2) 0.44041(7)
O9 O 0.99708(17) 1.8010(3) 0.47720(8)
O10 O 0.69727(18) 0.7708(3) 0.47143(8)
H9 H 0.6704 0.7055 0.4984
O11 O 0.70413(17) 1.2186(3) 0.52584(8)
H10 H 0.7417 1.3118 0.5441
O12 O 0.49013(18) 0.9518(3) 0.41318(8)
H11 H 0.4904 1.0780 0.4193
O13 O 0.56376(18) 0.6176(3) 0.34690(8)
H12 H 0.5522 0.5376 0.3203
O14 O 0.47255(17) 0.8466(3) 0.24228(8)
H13 H 0.4210 0.7499 0.2348
H14 H 0.542(2) 0.810(5) 0.2319(13)
H15 H 0.659(3) 1.172(4) 0.5508(11)
H16 H 0.557(3) 0.892(6) 0.4257(19)
H17 H 0.641(2) 0.662(7) 0.346(2)
H18 H 0.728(4) 0.684(6) 0.4512(17)
H19 H 0.996(3) 1.805(4) 0.4438(7)
Co1B Co 1.15232(3) 2.00070(6) 0.499672(14)
Co1B_2 Co 1.15232(3) 1.00070(6) 0.499672(14)
Co1_2 Co 0.84768(3) 1.99930(6) 0.500328(14)
Co2B Co 1.52212(3) 2.09959(5) 0.672144(15)
Co2_2 Co 1.47788(3) 0.90041(5) 0.327856(15)
Co2B_2 Co 0.52212(3) 2.09959(5) 0.672144(15)
C1B C 1.1302(2) 1.6816(4) 0.65483(10)
H1B H 1.2085 1.6052 0.6695
C2B C 1.1214(2) 1.8805(4) 0.68874(10)
H2B H 1.1269 1.8396 0.7283
C3B C 0.9900(2) 1.9895(4) 0.67942(10)
H3B H 0.9842 2.0436 0.6415
H4B H 0.9853 2.1066 0.7049
C4B C 0.8742(2) 1.8476(4) 0.68827(10)
H5B H 0.8814 1.8019 0.7274
C5B C 0.8785(2) 1.6540(4) 0.65297(10)
H6B H 0.8078 1.5608 0.6651
C6B C 1.0103(2) 1.5450(4) 0.66381(10)
H7B H 1.0141 1.4945 0.7021
H8B H 1.0146 1.4249 0.6393
C7B C 1.1497(2) 1.7147(4) 0.59405(11)
O1B O 1.16454(17) 1.8946(3) 0.57773(7)
O2B O 1.14897(16) 1.5582(3) 0.56297(7)
C8B C 1.2363(2) 2.0240(4) 0.67971(10)
O3B O 1.35054(16) 1.9425(2) 0.68356(7)
O4B O 1.21694(18) 2.2077(3) 0.67165(9)
C9B C 0.7430(2) 1.9532(4) 0.68088(10)
O5B O 0.64062(16) 1.8402(3) 0.67961(7)
O5_2 O 0.35938(16) 1.1598(3) 0.32039(7)
O5B_2 O 1.64062(16) 1.8402(3) 0.67961(7)
O6B O 0.73065(16) 2.1439(3) 0.67745(8)
O6_2 O 0.26935(16) 0.8561(3) 0.32255(8)
O6B_2 O 1.73065(16) 2.1439(3) 0.67745(8)
C10B C 0.8545(2) 1.6950(4) 0.59227(11)
O7B O 0.83479(16) 1.8758(3) 0.57688(7)
O7B_2 O 0.83479(16) 0.8758(3) 0.57688(7)
O7_2 O 1.16521(16) 2.1242(3) 0.42312(7)
O8B O 0.85639(16) 1.5435(2) 0.55959(7)
O9B O 1.00292(17) 1.1990(3) 0.52280(8)
O9_2 O 0.99708(17) 0.8010(3) 0.47720(8)
O9B_2 O 1.00292(17) 2.1990(3) 0.52280(8)
O10B O 1.30273(18) 2.2292(3) 0.52857(8)
H9B H 1.3296 2.2945 0.5016
O11B O 1.29587(17) 1.7814(3) 0.47416(8)
H10B H 1.2583 1.6882 0.4559
O12B O 1.50987(18) 2.0482(3) 0.58682(8)
H11B H 1.5096 1.9220 0.5807
O13B O 1.43624(18) 2.3824(3) 0.65310(8)
H12B H 1.4478 2.4624 0.6797
O14B O 1.52745(17) 2.1534(3) 0.75772(8)
H13B H 1.5790 2.2501 0.7652
H14B H 1.458(2) 2.190(5) 0.7681(13)
H15B H 1.341(3) 1.828(4) 0.4492(11)
H16B H 1.443(3) 2.108(6) 0.5743(19)
H17B H 1.359(2) 2.338(7) 0.654(2)
H18B H 1.272(4) 2.316(6) 0.5488(17)
H19B H 1.004(3) 1.195(4) 0.5562(7)
H19_2 H 0.996(3) 0.805(4) 0.4438(7)
H19B_2 H 1.004(3) 2.195(4) 0.5562(7)
O15 O 0.5052(2) 0.3479(3) 0.44465(10)
H20 H 0.512(3) 0.424(4) 0.4171(10)
H21 H 0.564(3) 0.325(6) 0.4681(12)
loop_
_geom_bond_atom_site_label_1
_geom_bond_atom_site_label_2
_geom_bond_site_symmetry_1
_geom_bond_site_symmetry_2
Co1 O1 1_555 1_555
Co2 O3 1_555 1_555
Co3 O2 1_555 1_555
C1 H1 1_555 1_555
C2 C1 1_555 1_555
H2 C2 1_555 1_555
C3 C2 1_555 1_555
H3 C3 1_555 1_555
H4 C3 1_555 1_555
C4 C3 1_555 1_555
H5 C4 1_555 1_555
C5 C4 1_555 1_555
H6 C5 1_555 1_555
C6 C1 1_555 1_555
H7 C6 1_555 1_555
H8 C6 1_555 1_555
C7 C1 1_555 1_555
O1 C7 1_555 1_555
O2 C7 1_555 1_555
C8 C2 1_555 1_555
O3 C8 1_555 1_555
O4 C8 1_555 1_555
C9 C4 1_555 1_555
O5 C9 1_555 1_555
O6 C9 1_555 1_555
C10 C5 1_555 1_555
O7 C10 1_555 1_555
O8 Co3 1_555 1_555
O9 Co3 1_555 1_555
O10 Co1 1_555 1_555
H9 O10 1_555 1_555
O11 Co1 1_555 1_555
H10 O11 1_555 1_555
O12 Co2 1_555 1_555
H11 O12 1_555 1_555
O13 Co2 1_555 1_555
H12 O13 1_555 1_555
O14 Co2 1_555 1_555
H13 O14 1_555 1_555
H14 O14 1_555 1_555
H15 O11 1_555 1_555
H16 O12 1_555 1_555
H17 O13 1_555 1_555
H18 O10 1_555 1_555
H19 O9 1_555 1_555
O15 H20 1_555 1_555
H21 O15 1_555 1_555
Co1B O9 1_555 1_555
Co1B_2 O7 1_555 1_555
Co1_2 O9 1_555 1_555
Co2B O3B 1_555 1_555
Co2_2 O5 1_555 1_555
Co2B_2 O5B 1_555 1_555
C1B H1B 1_555 1_555
C2B C1B 1_555 1_555
H2B C2B 1_555 1_555
C3B C2B 1_555 1_555
H3B C3B 1_555 1_555
H4B C3B 1_555 1_555
C4B C3B 1_555 1_555
H5B C4B 1_555 1_555
C5B C4B 1_555 1_555
H6B C5B 1_555 1_555
C6B C1B 1_555 1_555
H7B C6B 1_555 1_555
H8B C6B 1_555 1_555
C7B C1B 1_555 1_555
O1B Co1B 1_555 1_555
O2B Co3 1_555 1_555
C8B C2B 1_555 1_555
O3B C8B 1_555 1_555
O4B C8B 1_555 1_555
C9B C4B 1_555 1_555
O5B C9B 1_555 1_555
O5_2 Co2 1_555 1_555
O5B_2 Co2B 1_555 1_555
O6B Co2B_2 1_555 1_555
O6_2 Co2 1_555 1_555
O6B_2 Co2B 1_555 1_555
C10B C5B 1_555 1_555
O7B Co1_2 1_555 1_555
O7B_2 Co1 1_555 1_555
O7_2 Co1B 1_555 1_555
O8B Co3 1_555 1_555
O9B Co1 1_555 1_555
O9_2 Co1 1_555 1_555
O9B_2 Co1B 1_555 1_555
O10B Co1B 1_555 1_555
H9B O10B 1_555 1_555
O11B Co1B 1_555 1_555
H10B O11B 1_555 1_555
O12B Co2B 1_555 1_555
H11B O12B 1_555 1_555
O13B Co2B 1_555 1_555
H12B O13B 1_555 1_555
O14B Co2B 1_555 1_555
H13B O14B 1_555 1_555
H14B O14B 1_555 1_555
H15B O11B 1_555 1_555
H16B O12B 1_555 1_555
H17B O13B 1_555 1_555
H18B O10B 1_555 1_555
H19B O9B 1_555 1_555
H19_2 O9_2 1_555 1_555
H19B_2 O9B_2 1_555 1_555
Co3 O9B 1_555 1_555
C5 C6 1_555 1_555
O6 Co2_2 1_555 1_555
C10 O8 1_555 1_555
Co1B_2 O9B 1_555 1_555
Co1B_2 O9_2 1_555 1_555
Co1_2 O9B_2 1_555 1_555
C5B C6B 1_555 1_555
C7B O1B 1_555 1_555
C7B O2B 1_555 1_555
C9B O6B 1_555 1_555
C10B O7B 1_555 1_555
C10B O8B 1_555 1_555

#END
