
#######################################################################
#
#                 Cambridge Crystallographic Data Centre
#                                CCDC 
#
#######################################################################
#
# If this CIF has been generated from an entry in the Cambridge 
# Structural Database, then it will include bibliographic, chemical, 
# crystal, experimental, refinement or atomic coordinate data resulting 
# from the CCDC's data processing and validation procedures.
#
#######################################################################

data_LUHSUD
_symmetry_cell_setting           monoclinic
_symmetry_space_group_name_H-M   'P 21/n'
_symmetry_Int_Tables_number      14
_space_group_name_Hall           '-P 2yn'
loop_
_symmetry_equiv_pos_site_id
_symmetry_equiv_pos_as_xyz
1 x,y,z
2 1/2-x,1/2+y,1/2-z
3 -x,-y,-z
4 1/2+x,1/2-y,1/2+z
_cell_length_a                   3.5888(4)
_cell_length_b                   15.414(2)
_cell_length_c                   6.7803(7)
_cell_angle_alpha                90
_cell_angle_beta                 101.035(13)
_cell_angle_gamma                90
_cell_volume                     368.136
loop_
_atom_site_label
_atom_site_type_symbol
_atom_site_fract_x
_atom_site_fract_y
_atom_site_fract_z
Na1 Na -0.27315(14) 0.09819(3) 0.75493(7)
O1 O -0.4122(3) 0.09900(6) 0.39899(14)
O2 O -0.2342(3) 0.00156(6) 0.20445(17)
N1 N -0.2862(3) 0.07884(6) 0.24817(15)
N2 N -0.2068(3) 0.13814(6) 0.11822(16)
N3 N -0.2973(3) 0.29083(7) 0.21544(19)
C1 C -0.2631(3) 0.21874(8) 0.18058(19)
Na1B Na -0.72685(14) -0.09819(3) 0.24507(7)
Na1B_2 Na 0.27315(14) -0.09819(3) 0.24507(7)
Na1_2 Na -0.27315(14) 0.09819(3) -0.24507(7)
Na1C Na 0.22685(14) 0.40181(3) 0.25493(7)
Na1C_2 Na -0.77315(14) 0.40181(3) 0.25493(7)
O2B O -0.7658(3) -0.00156(6) 0.79555(17)
O2B_2 O 0.2342(3) -0.00156(6) 0.79555(17)
N2_2 N -0.2068(3) 0.13814(6) 1.11822(16)
N3C N -0.7973(3) 0.20917(7) 0.71544(19)
N3C_2 N 0.2027(3) 0.20917(7) 0.71544(19)
loop_
_geom_bond_atom_site_label_1
_geom_bond_atom_site_label_2
_geom_bond_site_symmetry_1
_geom_bond_site_symmetry_2
Na1 O1 1_555 1_555
O1 N1 1_555 1_555
O2 N1 1_555 1_555
N1 N2 1_555 1_555
N2 C1 1_555 1_555
N3 C1 1_555 1_555
Na1B O2 1_555 1_555
Na1B_2 O2 1_555 1_555
Na1_2 N2 1_555 1_555
Na1C N3 1_555 1_555
Na1C_2 N3 1_555 1_555
O2B Na1 1_555 1_555
O2B_2 Na1 1_555 1_555
N2_2 Na1 1_555 1_555
N3C Na1 1_555 1_555
N3C_2 Na1 1_555 1_555

#END
