
#######################################################################
#
#                 Cambridge Crystallographic Data Centre
#                                CCDC 
#
#######################################################################
#
# If this CIF has been generated from an entry in the Cambridge 
# Structural Database, then it will include bibliographic, chemical, 
# crystal, experimental, refinement or atomic coordinate data resulting 
# from the CCDC's data processing and validation procedures.
#
#######################################################################

data_LUHTEO
_symmetry_cell_setting           monoclinic
_symmetry_space_group_name_H-M   'P c'
_symmetry_Int_Tables_number      7
_space_group_name_Hall           'P -2yc'
loop_
_symmetry_equiv_pos_site_id
_symmetry_equiv_pos_as_xyz
1 x,y,z
2 x,-y,1/2+z
_cell_length_a                   8.2266(13)
_cell_length_b                   14.314(2)
_cell_length_c                   8.1294(14)
_cell_angle_alpha                90
_cell_angle_beta                 99.629(14)
_cell_angle_gamma                90
_cell_volume                     943.795
loop_
_atom_site_label
_atom_site_type_symbol
_atom_site_fract_x
_atom_site_fract_y
_atom_site_fract_z
K1 K 0.8420(3) 0.75032(13) 0.4056(3)
O1 O 0.7769(6) 0.5733(3) 0.2621(5)
O2 O 0.5281(5) 0.7066(3) 0.2380(6)
O3 O 0.6082(5) 0.8950(3) 0.3174(5)
O4 O 0.9031(5) 0.9264(3) 0.5501(5)
O5 O 1.1595(6) 0.7948(4) 0.5747(5)
O6 O 1.0732(5) 0.6037(3) 0.4933(6)
C1 C 0.6114(9) 0.5493(5) 0.2315(9)
H1 H 0.5724 0.5395 0.3364
H2 H 0.5966 0.4917 0.1681
C2 C 0.5154(9) 0.6248(5) 0.1370(10)
H3 H 0.5580 0.6372 0.0349
H4 H 0.4008 0.6063 0.1077
C3 C 0.4402(9) 0.7797(6) 0.1565(9)
H5 H 0.3260 0.7618 0.1213
H6 H 0.4862 0.7971 0.0585
C4 C 0.4512(8) 0.8622(5) 0.2784(12)
H7 H 0.3796 0.9121 0.2286
H8 H 0.4132 0.8425 0.3796
C5 C 0.6291(11) 0.9663(5) 0.4387(10)
H9 H 0.6010 0.9425 0.5420
H10 H 0.5549 1.0176 0.4013
C6 C 0.8006(12) 1.0010(5) 0.4692(10)
H11 H 0.8351 1.0177 0.3646
H12 H 0.8094 1.0559 0.5402
C7 C 1.0738(10) 0.9524(5) 0.5778(10)
H13 H 1.0891 1.0107 0.6391
H14 H 1.1116 0.9607 0.4720
C8 C 1.1698(9) 0.8761(5) 0.6758(10)
H15 H 1.2841 0.8948 0.7077
H16 H 1.1248 0.8635 0.7765
C9 C 1.2471(9) 0.7141(6) 0.6525(11)
H17 H 1.1942 0.6914 0.7428
H18 H 1.3600 0.7308 0.6979
C10 C 1.2441(9) 0.6422(6) 0.5250(13)
H19 H 1.3229 0.5933 0.5636
H20 H 1.2719 0.6689 0.4236
C11 C 1.0567(9) 0.5354(5) 0.3663(9)
H21 H 1.1306 0.4835 0.4003
H22 H 1.0846 0.5619 0.2649
C12 C 0.8832(12) 0.5024(5) 0.3361(9)
H23 H 0.8735 0.4482 0.2634
H24 H 0.8515 0.4838 0.4411
O7 O 1.0242(8) 0.7652(6) 0.1437(8)
N1 N 0.7977(9) 0.7630(3) -0.0475(10)
N2 N 0.6758(10) 0.7173(5) -0.3227(10)
C13 C 0.9441(7) 0.7570(4) 0.0115(11)
H25 H 1.0079 0.7421 -0.0692
C14 C 0.7431(16) 0.7495(7) -0.2003(11)
K1_2 K 0.8420(3) 0.75032(13) -0.5944(3)
N2_2 N 0.6758(10) 0.7173(5) 0.6773(10)
loop_
_geom_bond_atom_site_label_1
_geom_bond_atom_site_label_2
_geom_bond_site_symmetry_1
_geom_bond_site_symmetry_2
K1 O1 1_555 1_555
O1 C1 1_555 1_555
O2 K1 1_555 1_555
O3 K1 1_555 1_555
O4 K1 1_555 1_555
O5 K1 1_555 1_555
O6 K1 1_555 1_555
C1 H1 1_555 1_555
H2 C1 1_555 1_555
C2 O2 1_555 1_555
H3 C2 1_555 1_555
H4 C2 1_555 1_555
C3 O2 1_555 1_555
H5 C3 1_555 1_555
H6 C3 1_555 1_555
C4 O3 1_555 1_555
H7 C4 1_555 1_555
H8 C4 1_555 1_555
C5 O3 1_555 1_555
H9 C5 1_555 1_555
H10 C5 1_555 1_555
C6 O4 1_555 1_555
H11 C6 1_555 1_555
H12 C6 1_555 1_555
C7 O4 1_555 1_555
H13 C7 1_555 1_555
H14 C7 1_555 1_555
C8 O5 1_555 1_555
H15 C8 1_555 1_555
H16 C8 1_555 1_555
C9 O5 1_555 1_555
H17 C9 1_555 1_555
H18 C9 1_555 1_555
C10 O6 1_555 1_555
H19 C10 1_555 1_555
H20 C10 1_555 1_555
C11 O6 1_555 1_555
H21 C11 1_555 1_555
H22 C11 1_555 1_555
C12 O1 1_555 1_555
H23 C12 1_555 1_555
H24 C12 1_555 1_555
O7 K1 1_555 1_555
N1 C13 1_555 1_555
N2 C14 1_555 1_555
C13 O7 1_555 1_555
H25 C13 1_555 1_555
C14 N1 1_555 1_555
K1_2 N2 1_555 1_555
N2_2 K1 1_555 1_555
C1 C2 1_555 1_555
C3 C4 1_555 1_555
C5 C6 1_555 1_555
C7 C8 1_555 1_555
C9 C10 1_555 1_555
C11 C12 1_555 1_555

#END
