
#######################################################################
#
#                 Cambridge Crystallographic Data Centre
#                                CCDC 
#
#######################################################################
#
# If this CIF has been generated from an entry in the Cambridge 
# Structural Database, then it will include bibliographic, chemical, 
# crystal, experimental, refinement or atomic coordinate data resulting 
# from the CCDC's data processing and validation procedures.
#
#######################################################################

data_LUHTUF
_symmetry_cell_setting           monoclinic
_symmetry_space_group_name_H-M   'P 21/n'
_symmetry_Int_Tables_number      14
_space_group_name_Hall           '-P 2yn'
loop_
_symmetry_equiv_pos_site_id
_symmetry_equiv_pos_as_xyz
1 x,y,z
2 1/2-x,1/2+y,1/2-z
3 -x,-y,-z
4 1/2+x,1/2-y,1/2+z
_cell_length_a                   13.4408(5)
_cell_length_b                   17.7927(7)
_cell_length_c                   24.3961(9)
_cell_angle_alpha                90
_cell_angle_beta                 95.0460(10)
_cell_angle_gamma                90
_cell_volume                     5811.67
loop_
_atom_site_label
_atom_site_type_symbol
_atom_site_fract_x
_atom_site_fract_y
_atom_site_fract_z
P1 P 0.21315(13) 0.75830(10) 0.47396(7)
O1 O 0.2075(5) 0.6804(4) 0.3443(4)
O2 O 0.3769(6) 0.7642(4) 0.6755(2)
O3 O 0.3825(5) 0.6098(4) 0.3246(3)
O4 O 0.2069(5) 0.4662(3) 0.4818(3)
O5 O -0.0686(5) 0.7563(3) 0.4382(3)
O6 O 0.5453(5) 0.9030(4) 0.5272(3)
O7 O 0.3872(6) 0.6877(4) 0.5776(3)
O8 O 0.4397(5) 0.8703(5) 0.4282(3)
O9 O 0.4750(6) 0.7584(4) 0.5021(3)
O10 O 0.0463(5) 0.7636(4) 0.5955(3)
O11 O 0.0930(5) 0.9247(5) 0.4352(3)
O12 O 0.2726(5) 0.9436(4) 0.3999(3)
O13 O 0.3855(6) 0.8351(4) 0.5741(3)
O14 O 0.0179(5) 0.6787(3) 0.3638(3)
O15 O 0.2064(4) 0.8267(3) 0.3386(3)
O16 O 0.0040(6) 0.6633(4) 0.5161(2)
O17 O 0.0950(6) 0.5890(4) 0.4422(3)
O18 O 0.2137(5) 0.6904(4) 0.6239(3)
O19 O 0.2751(6) 0.5674(5) 0.4097(3)
O20 O -0.1129(5) 0.6054(4) 0.4258(3)
O21 O 0.1688(5) 0.9305(4) 0.5372(3)
O22 O 0.0038(5) 0.8574(5) 0.5125(3)
O23 O 0.2143(6) 0.8377(4) 0.6224(3)
O24 O 0.5470(6) 0.6178(5) 0.5339(4)
O25 O 0.3722(5) 0.7544(3) 0.3690(4)
O26 O 0.0187(5) 0.8268(4) 0.3608(3)
O27 O 0.1693(6) 0.5928(5) 0.5441(3)
O28 O 0.0651(6) 0.7465(4) 0.2693(3)
O29 O 0.0400(6) 0.9161(5) 0.6195(3)
O30 O -0.1151(4) 0.9063(3) 0.4199(3)
O31 O 0.0341(5) 0.6145(4) 0.6245(3)
O32 O 0.2077(6) 1.0502(3) 0.4690(3)
O33 O 0.3513(6) 0.5730(5) 0.5118(3)
O34 O 0.3493(5) 0.9461(5) 0.5034(3)
O35 O 0.4400(6) 0.6441(4) 0.4342(3)
O36 O 0.3849(5) 0.8935(4) 0.3180(2)
Ag1 Ag 0.17972(7) 0.35646(4) 0.41265(3)
Ag2 Ag 0.32269(6) 0.09500(4) 0.57966(3)
Ag3 Ag 0.11507(7) 0.61784(5) 0.22563(3)
C1 C 0.2516(8) 0.4793(6) 0.2715(4)
H1 H 0.2946 0.4870 0.2442
C2 C 0.1341(8) 0.4888(5) 0.3229(4)
H2 H 0.0769 0.5063 0.3376
C3 C 0.3369(8) 0.3672(6) 0.3161(5)
H3 H 0.3800 0.3790 0.3490
H4 H 0.3774 0.3681 0.2851
C4 C 0.2950(8) 0.2897(6) 0.3217(4)
C5 C 0.2041(9) 0.2678(6) 0.2951(4)
H5 H 0.1663 0.3019 0.2732
C6 C 0.1702(11) 0.1963(7) 0.3012(5)
H6 H 0.1090 0.1828 0.2831
C7 C 0.2233(12) 0.1428(7) 0.3334(5)
H7 H 0.1996 0.0940 0.3364
C8 C 0.3121(10) 0.1651(7) 0.3604(4)
H8 H 0.3487 0.1312 0.3831
C9 C 0.3482(8) 0.2365(8) 0.3544(4)
H9 H 0.4094 0.2497 0.3726
C10 C 0.2472(7) 0.2176(5) 0.4908(3)
H10 H 0.2211 0.1820 0.4656
C11 C 0.2846(6) 0.3209(4) 0.5276(3)
H11 H 0.2918 0.3721 0.5344
C12 C 0.3790(7) 0.2742(6) 0.6143(4)
H12 H 0.3830 0.3268 0.6246
H13 H 0.4463 0.2573 0.6093
C13 C 0.3413(6) 0.2308(5) 0.6608(3)
C14 C 0.4095(8) 0.2008(7) 0.6998(4)
H14 H 0.4774 0.2071 0.6965
C15 C 0.3789(10) 0.1620(7) 0.7434(4)
H15 H 0.4262 0.1415 0.7693
C16 C 0.2803(10) 0.1530(7) 0.7495(4)
H16 H 0.2599 0.1267 0.7795
C17 C 0.2097(9) 0.1835(7) 0.7106(4)
H17 H 0.1419 0.1773 0.7141
C18 C 0.2411(7) 0.2228(6) 0.6668(4)
H18 H 0.1943 0.2442 0.6410
C19 C 0.3185(7) -0.0154(5) 0.6777(4)
H19 H 0.2533 -0.0027 0.6838
C20 C 0.4564(7) -0.0243(5) 0.6443(4)
H20 H 0.5068 -0.0175 0.6209
C21 C 0.3600(9) -0.1002(6) 0.7611(4)
H21 H 0.4165 -0.0927 0.7881
H22 H 0.3543 -0.1536 0.7536
C22 C 0.2650(7) -0.0726(5) 0.7847(4)
C23 C 0.2693(7) -0.0239(5) 0.8275(4)
H23 H 0.3312 -0.0079 0.8432
C24 C 0.1834(9) 0.0024(6) 0.8482(4)
H24 H 0.1867 0.0355 0.8778
C25 C 0.0943(9) -0.0215(8) 0.8241(5)
H25 H 0.0355 -0.0035 0.8367
C26 C 0.0898(9) -0.0712(8) 0.7819(5)
H26 H 0.0279 -0.0870 0.7661
C27 C 0.1742(8) -0.0983(6) 0.7623(4)
H27 H 0.1704 -0.1338 0.7342
N1 N 0.1736(6) 0.5218(4) 0.2792(3)
N2 N 0.2602(5) 0.4241(4) 0.3081(3)
N3 N 0.1849(6) 0.4299(4) 0.3419(3)
N4 N 0.2385(5) 0.2918(4) 0.4823(3)
N5 N 0.3188(5) 0.2678(4) 0.5618(3)
N6 N 0.2959(5) 0.1996(4) 0.5380(3)
N7 N 0.3649(5) 0.0084(4) 0.6357(3)
N8 N 0.3777(6) -0.0601(4) 0.7104(3)
N9 N 0.4666(6) -0.0663(4) 0.6886(3)
Mo1 Mo 0.10069(5) 0.75290(4) 0.33645(3)
Mo2 Mo 0.43805(5) 0.86084(5) 0.50602(3)
Mo3 Mo 0.43958(6) 0.65663(4) 0.51067(3)
Mo4 Mo 0.21644(6) 0.95783(4) 0.46871(4)
Mo5 Mo 0.09728(7) 0.86178(5) 0.57702(3)
Mo6 Mo 0.09404(6) 0.66596(5) 0.58058(3)
Mo7 Mo -0.01184(5) 0.65772(4) 0.43906(3)
Mo8 Mo 0.21754(7) 0.55953(4) 0.47911(3)
Mo9 Mo -0.01281(5) 0.85502(4) 0.43645(3)
Mo10 Mo 0.33159(6) 0.85526(4) 0.37033(3)
Mo11 Mo 0.33136(6) 0.65173(4) 0.37592(3)
Mo12 Mo 0.31805(6) 0.76233(5) 0.61249(3)
O37 O 0.2751(5) 0.8282(4) 0.4612(3)
O38 O 0.1903(5) 0.7616(4) 0.5344(3)
O39 O 0.2771(5) 0.6879(4) 0.4653(3)
O40 O 0.1178(5) 0.7558(4) 0.4371(3)
Ag3A Ag 0.38493(7) 0.11784(5) 0.27437(3)
Ag3C Ag 0.61507(7) -0.11784(5) 0.72563(3)
C8A C 0.1879(10) 0.6651(7) 0.1396(4)
N9C N -0.0334(6) 0.5663(4) 0.1886(3)
O41 O -0.0773(7) 1.0218(5) 0.6903(4)
loop_
_geom_bond_atom_site_label_1
_geom_bond_atom_site_label_2
_geom_bond_site_symmetry_1
_geom_bond_site_symmetry_2
P1 O37 1_555 1_555
O1 Mo1 1_555 1_555
O2 Mo12 1_555 1_555
O3 Mo11 1_555 1_555
O4 Ag1 1_555 1_555
O5 Mo7 1_555 1_555
O6 Mo2 1_555 1_555
O7 Mo3 1_555 1_555
O8 Mo2 1_555 1_555
O9 Mo2 1_555 1_555
O10 Mo5 1_555 1_555
O11 Mo4 1_555 1_555
O12 Mo4 1_555 1_555
O13 Mo2 1_555 1_555
O14 Mo1 1_555 1_555
O15 Mo1 1_555 1_555
O16 Mo6 1_555 1_555
O17 Mo7 1_555 1_555
O18 Mo6 1_555 1_555
O19 Mo8 1_555 1_555
O20 Mo7 1_555 1_555
O21 Mo4 1_555 1_555
O22 Mo5 1_555 1_555
O23 Mo5 1_555 1_555
O24 Mo3 1_555 1_555
O25 Mo10 1_555 1_555
O26 Mo1 1_555 1_555
O27 Mo6 1_555 1_555
O28 Ag3 1_555 1_555
O29 Mo5 1_555 1_555
O30 Mo9 1_555 1_555
O31 Mo6 1_555 1_555
O32 Mo4 1_555 1_555
O33 Mo3 1_555 1_555
O34 Mo2 1_555 1_555
O35 Mo3 1_555 1_555
O36 Mo10 1_555 1_555
Ag1 N3 1_555 1_555
Ag2 N6 1_555 1_555
Ag3 N1 1_555 1_555
C1 H1 1_555 1_555
C2 H2 1_555 1_555
C3 H3 1_555 1_555
H4 C3 1_555 1_555
C4 C3 1_555 1_555
C5 C4 1_555 1_555
H5 C5 1_555 1_555
C6 C5 1_555 1_555
H6 C6 1_555 1_555
C7 C6 1_555 1_555
H7 C7 1_555 1_555
C8 C7 1_555 1_555
H8 C8 1_555 1_555
C9 C4 1_555 1_555
H9 C9 1_555 1_555
C10 H10 1_555 1_555
C11 H11 1_555 1_555
C12 H12 1_555 1_555
H13 C12 1_555 1_555
C13 C12 1_555 1_555
C14 C13 1_555 1_555
H14 C14 1_555 1_555
C15 C14 1_555 1_555
H15 C15 1_555 1_555
C16 C15 1_555 1_555
H16 C16 1_555 1_555
C17 C16 1_555 1_555
H17 C17 1_555 1_555
C18 C13 1_555 1_555
H18 C18 1_555 1_555
C19 H19 1_555 1_555
C20 H20 1_555 1_555
C21 H21 1_555 1_555
H22 C21 1_555 1_555
C22 C21 1_555 1_555
C23 C22 1_555 1_555
H23 C23 1_555 1_555
C24 C23 1_555 1_555
H24 C24 1_555 1_555
C25 C24 1_555 1_555
H25 C25 1_555 1_555
C26 C25 1_555 1_555
H26 C26 1_555 1_555
C27 C22 1_555 1_555
H27 C27 1_555 1_555
N1 C1 1_555 1_555
N2 C1 1_555 1_555
N3 C2 1_555 1_555
N4 Ag1 1_555 1_555
N5 C11 1_555 1_555
N6 C10 1_555 1_555
N7 Ag2 1_555 1_555
N8 C19 1_555 1_555
N9 C20 1_555 1_555
Mo1 O28 1_555 1_555
Mo2 O37 1_555 1_555
Mo3 O9 1_555 1_555
Mo4 O34 1_555 1_555
Mo5 O21 1_555 1_555
Mo6 O10 1_555 1_555
Mo7 O14 1_555 1_555
Mo8 O4 1_555 1_555
Mo9 O5 1_555 1_555
Mo10 O8 1_555 1_555
Mo11 O1 1_555 1_555
Mo12 O7 1_555 1_555
O37 Mo4 1_555 1_555
O38 P1 1_555 1_555
O39 P1 1_555 1_555
O40 P1 1_555 1_555
Ag3A C8 1_555 1_555
Ag3C N9 1_555 1_555
C8A Ag3 1_555 1_555
N9C Ag3 1_555 1_555
O11 Mo9 1_555 1_555
O12 Mo10 1_555 1_555
O13 Mo12 1_555 1_555
O15 Mo10 1_555 1_555
O16 Mo7 1_555 1_555
O17 Mo8 1_555 1_555
O18 Mo12 1_555 1_555
O19 Mo11 1_555 1_555
O22 Mo9 1_555 1_555
O23 Mo12 1_555 1_555
O25 Mo11 1_555 1_555
O26 Mo9 1_555 1_555
O27 Mo8 1_555 1_555
O33 Mo8 1_555 1_555
O35 Mo11 1_555 1_555
C2 N1 1_555 1_555
C3 N2 1_555 1_555
C8 C9 1_555 1_555
C10 N4 1_555 1_555
C11 N4 1_555 1_555
C12 N5 1_555 1_555
C17 C18 1_555 1_555
C19 N7 1_555 1_555
C20 N7 1_555 1_555
C21 N8 1_555 1_555
C26 C27 1_555 1_555
N2 N3 1_555 1_555
N5 N6 1_555 1_555
N8 N9 1_555 1_555
Mo1 O40 1_555 1_555
Mo3 O39 1_555 1_555
Mo5 O38 1_555 1_555
Mo6 O38 1_555 1_555
Mo7 O40 1_555 1_555
Mo8 O39 1_555 1_555
Mo9 O40 1_555 1_555
Mo10 O37 1_555 1_555
Mo11 O39 1_555 1_555
Mo12 O38 1_555 1_555

#END
