
#######################################################################
#
#                 Cambridge Crystallographic Data Centre
#                                CCDC 
#
#######################################################################
#
# If this CIF has been generated from an entry in the Cambridge 
# Structural Database, then it will include bibliographic, chemical, 
# crystal, experimental, refinement or atomic coordinate data resulting 
# from the CCDC's data processing and validation procedures.
#
#######################################################################

data_LUJMOS
_symmetry_cell_setting           triclinic
_symmetry_space_group_name_H-M   'P -1'
_symmetry_Int_Tables_number      2
_space_group_name_Hall           '-P 1'
loop_
_symmetry_equiv_pos_site_id
_symmetry_equiv_pos_as_xyz
1 x,y,z
2 -x,-y,-z
_cell_length_a                   13.582(7)
_cell_length_b                   11.313(5)
_cell_length_c                   20.474(9)
_cell_angle_alpha                89.67(2)
_cell_angle_beta                 86.65(2)
_cell_angle_gamma                73.98(2)
_cell_volume                     3018.38
loop_
_atom_site_label
_atom_site_type_symbol
_atom_site_fract_x
_atom_site_fract_y
_atom_site_fract_z
Mn1 Mn 0.73944(6) 0.30960(8) 0.26561(4)
Mn2 Mn 0.99355(6) 0.14588(8) 0.53657(4)
Mn3 Mn 0.51016(7) 0.34083(9) -0.01203(4)
N1 N 0.7506(3) 0.2198(4) 0.3657(2)
N2 N 0.7326(3) 0.3788(4) 0.1616(2)
N3 N 0.8408(4) 0.1346(5) 0.2240(3)
N4 N 0.6347(4) 0.4843(5) 0.3024(3)
O1 O 0.8729(3) 0.3821(4) 0.2797(2)
O2 O 0.6036(3) 0.2409(4) 0.2525(2)
O3 O 0.9202(3) 0.0503(3) 0.4702(2)
N5 N 1.0920(4) 0.2041(5) 0.4640(3)
O4 O 0.8933(3) 0.1067(4) 0.6184(2)
O5 O 0.8713(3) 0.3148(4) 0.5264(2)
O6 O 1.0871(4) 0.1868(4) 0.6100(2)
O7 O 0.5750(3) 0.4711(4) 0.0365(2)
N6 N 0.4036(4) 0.3252(5) 0.0675(3)
O8 O 0.4249(4) 0.2576(5) -0.0755(3)
O9 O 0.6223(4) 0.3356(5) -0.0965(2)
O10 O 0.6297(4) 0.1833(5) 0.0192(3)
N7 N 0.8363(3) 0.1094(4) 0.4400(2)
N8 N 0.8448(3) 0.1682(4) 0.3841(2)
C1 C 0.5737(4) 0.2227(6) 0.4146(3)
C2 C 0.5287(5) 0.1805(7) 0.4667(4)
C3 C 0.5854(5) 0.1083(8) 0.5157(4)
C4 C 0.6905(5) 0.0777(6) 0.5137(3)
C5 C 0.6819(4) 0.1936(5) 0.4104(3)
C6 C 0.7361(4) 0.1218(5) 0.4595(3)
N9 N 0.6550(3) 0.4359(4) 0.0739(2)
N10 N 0.6401(3) 0.4144(4) 0.1369(2)
C7 C 0.9138(4) 0.3467(6) 0.1118(3)
C8 C 0.9644(5) 0.3564(7) 0.0538(4)
C9 C 0.9131(5) 0.3944(7) -0.0041(4)
C10 C 0.8086(5) 0.4241(7) -0.0044(3)
C11 C 0.8056(4) 0.3770(5) 0.1130(3)
C12 C 0.7562(4) 0.4150(5) 0.0555(3)
C13 C 0.8898(5) 0.0409(7) 0.2026(3)
S1 S 0.9593(2) -0.0938(2) 0.17701(15)
C14 C 0.5790(5) 0.5814(6) 0.3001(3)
S2 S 0.50100(15) 0.7191(2) 0.29506(11)
C15 C 1.1611(5) 0.2197(6) 0.4338(3)
S3 S 1.2594(2) 0.2443(2) 0.39237(11)
C16 C 0.3298(5) 0.3182(6) 0.0960(3)
S4 S 0.2241(2) 0.3108(2) 0.13645(10)
C17 C 0.9052(5) 0.4081(6) 0.3314(4)
N11 N 0.9705(4) 0.4714(5) 0.3378(3)
C18 C 1.0163(12) 0.5160(17) 0.2810(7)
C19 C 1.0007(8) 0.4980(9) 0.4025(5)
C20 C 0.5920(5) 0.1784(6) 0.2065(4)
N12 N 0.5190(4) 0.1229(5) 0.2041(3)
C21 C 0.4416(8) 0.1375(12) 0.2574(5)
C22 C 0.5119(7) 0.0467(7) 0.1483(4)
H1 H 0.4481(20) 0.0812(29) 0.1285(17)
H2 H 0.5152(43) -0.0350(15) 0.1628(6)
H3 H 0.5679(25) 0.0439(42) 0.1169(13)
C23 C 0.9151(5) 0.0161(6) 0.6541(3)
N13 N 0.8538(4) -0.0122(5) 0.6990(2)
C24 C 0.8858(8) -0.1223(9) 0.7377(5)
C25 C 0.7490(6) 0.0633(8) 0.7092(4)
H4 H 0.7310(19) 0.0734(57) 0.7552(4)
H5 H 0.7038(8) 0.0242(34) 0.6891(31)
H6 H 0.7427(14) 0.1424(25) 0.6899(32)
C26 C 0.7851(5) 0.3377(6) 0.5530(3)
N14 N 0.7042(4) 0.4264(5) 0.5368(3)
C27 C 0.7121(8) 0.5057(9) 0.4821(5)
C28 C 0.6026(8) 0.4440(14) 0.5702(7)
C29 C 1.1517(6) 0.1303(7) 0.6478(4)
N15 N 1.2438(4) 0.1400(5) 0.6491(3)
C30 C 1.3155(9) 0.0678(9) 0.6941(7)
C31 C 1.2771(11) 0.2236(17) 0.6049(8)
C32 C 0.3712(6) 0.2906(7) -0.1220(4)
N16 N 0.2762(5) 0.2852(5) -0.1238(3)
C33 C 0.2183(7) 0.3279(9) -0.1813(5)
H7 H 0.1892(43) 0.2651(25) -0.1959(20)
H8 H 0.2633(12) 0.3455(58) -0.2156(12)
H9 H 0.1644(32) 0.4011(35) -0.1703(10)
C34 C 0.2252(9) 0.2469(12) -0.0691(5)
H10 H 0.1545(21) 0.2941(63) -0.0661(29)
H11 H 0.2571(50) 0.2592(88) -0.0300(7)
H12 H 0.2293(66) 0.1613(24) -0.0739(24)
C35 C 0.6099(5) 0.4054(7) -0.1439(3)
N17 N 0.6841(4) 0.4074(5) -0.1879(3)
C36 C 0.7882(7) 0.3349(12) -0.1819(6)
C37 C 0.6619(9) 0.4920(11) -0.2428(5)
C38 C 0.6962(10) 0.1051(15) -0.0204(12)
N18 N 0.7749(5) 0.0568(6) -0.0228(3)
C39 C 0.8406(15) 0.0788(16) 0.0289(10)
C40 C 0.8531(12) -0.0238(13) -0.0605(8)
H13 H 0.5340(54) 0.2685(66) 0.3784(35)
H14 H 0.4529(53) 0.1947(60) 0.4701(32)
H15 H 0.5533(48) 0.0809(58) 0.5496(31)
H16 H 0.7312(46) 0.0276(57) 0.5511(30)
H17 H 0.9501(48) 0.3144(59) 0.1480(32)
H18 H 1.0363(44) 0.3356(49) 0.0492(26)
H19 H 0.9564(48) 0.4022(57) -0.0424(32)
H20 H 0.7770(46) 0.4628(56) -0.0403(31)
H21 H 0.8841(42) 0.3824(51) 0.3713(29)
H22 H 1.0131(74) 0.6032(90) 0.2867(46)
H23 H 0.9975(89) 0.491(11) 0.2432(56)
H24 H 1.095(12) 0.480(14) 0.2849(70)
H25 H 0.9772(87) 0.431(11) 0.4372(57)
H26 H 1.0816(67) 0.4782(74) 0.3985(39)
H27 H 0.9758(71) 0.5842(93) 0.4124(46)
H28 H 0.6322(44) 0.1702(53) 0.1696(30)
H29 H 0.4469(59) 0.0663(73) 0.2722(38)
H30 H 0.3748(68) 0.1554(79) 0.2402(41)
H31 H 0.4545(70) 0.2030(86) 0.2845(45)
H32 H 0.9826(41) -0.0396(48) 0.6557(25)
H33 H 0.8766(44) -0.0997(53) 0.7792(31)
H34 H 0.8367(68) -0.1831(84) 0.7285(42)
H35 H 0.9528(61) -0.1680(70) 0.7245(36)
H36 H 0.7651(42) 0.2941(52) 0.5902(29)
H37 H 0.7771(64) 0.5158(74) 0.4777(39)
H38 H 0.6987(69) 0.4619(85) 0.4434(47)
H39 H 0.6863(77) 0.5920(98) 0.4971(48)
H40 H 0.6031(58) 0.3739(76) 0.6058(41)
H41 H 0.5886(73) 0.5174(86) 0.5877(46)
H42 H 0.5656(93) 0.424(12) 0.5387(59)
H43 H 1.1312(60) 0.0804(74) 0.6773(39)
H44 H 1.2803(65) 0.0155(84) 0.7208(42)
H45 H 1.3557(71) 0.1221(85) 0.7139(44)
H46 H 1.3607(75) 0.0203(95) 0.6733(51)
H47 H 1.3245(58) 0.1675(65) 0.5948(38)
H48 H 1.227(11) 0.276(14) 0.5860(72)
H49 H 1.340(11) 0.257(13) 0.6187(65)
H50 H 0.3990(52) 0.3158(63) -0.1641(35)
H51 H 0.5348(50) 0.4636(57) -0.1533(30)
H52 H 0.8436(73) 0.3878(84) -0.1832(44)
H53 H 0.8116(64) 0.2911(75) -0.2153(41)
H54 H 0.7884(63) 0.2773(79) -0.1457(44)
H55 H 0.6881(60) 0.4368(75) -0.2812(42)
H56 H 0.7039(61) 0.5463(75) -0.2457(38)
H57 H 0.5832(66) 0.5385(74) -0.2430(38)
O3A O 1.0798(3) -0.0503(3) 0.5298(2)
Mn2A Mn 1.00645(6) -0.14588(8) 0.46343(4)
O7A O 0.4250(3) 0.5289(4) -0.0365(2)
Mn3A Mn 0.48984(7) 0.65917(9) 0.01203(4)
loop_
_geom_bond_atom_site_label_1
_geom_bond_atom_site_label_2
_geom_bond_site_symmetry_1
_geom_bond_site_symmetry_2
Mn1 N1 1_555 1_555
Mn2 O3 1_555 1_555
Mn3 O7 1_555 1_555
N1 N8 1_555 1_555
N2 Mn1 1_555 1_555
N3 Mn1 1_555 1_555
N4 Mn1 1_555 1_555
O1 Mn1 1_555 1_555
O2 Mn1 1_555 1_555
O3 N7 1_555 1_555
N5 Mn2 1_555 1_555
O4 Mn2 1_555 1_555
O5 Mn2 1_555 1_555
O6 Mn2 1_555 1_555
O7 N9 1_555 1_555
N6 Mn3 1_555 1_555
O8 Mn3 1_555 1_555
O9 Mn3 1_555 1_555
O10 Mn3 1_555 1_555
N7 N8 1_555 1_555
C1 C2 1_555 1_555
C2 C3 1_555 1_555
C3 C4 1_555 1_555
C4 C6 1_555 1_555
C5 N1 1_555 1_555
C6 N7 1_555 1_555
N9 N10 1_555 1_555
N10 N2 1_555 1_555
C7 C8 1_555 1_555
C8 C9 1_555 1_555
C9 C10 1_555 1_555
C10 C12 1_555 1_555
C11 N2 1_555 1_555
C12 N9 1_555 1_555
C13 N3 1_555 1_555
S1 C13 1_555 1_555
C14 N4 1_555 1_555
S2 C14 1_555 1_555
C15 N5 1_555 1_555
S3 C15 1_555 1_555
C16 N6 1_555 1_555
S4 C16 1_555 1_555
C17 O1 1_555 1_555
N11 C17 1_555 1_555
C18 N11 1_555 1_555
C19 N11 1_555 1_555
C20 O2 1_555 1_555
N12 C20 1_555 1_555
C21 N12 1_555 1_555
C22 N12 1_555 1_555
H1 C22 1_555 1_555
H2 C22 1_555 1_555
H3 C22 1_555 1_555
C23 O4 1_555 1_555
N13 C23 1_555 1_555
C24 N13 1_555 1_555
C25 N13 1_555 1_555
H4 C25 1_555 1_555
H5 C25 1_555 1_555
H6 C25 1_555 1_555
C26 O5 1_555 1_555
N14 C26 1_555 1_555
C27 N14 1_555 1_555
C28 N14 1_555 1_555
C29 O6 1_555 1_555
N15 C29 1_555 1_555
C30 N15 1_555 1_555
C31 N15 1_555 1_555
C32 O8 1_555 1_555
N16 C32 1_555 1_555
C33 N16 1_555 1_555
H7 C33 1_555 1_555
H8 C33 1_555 1_555
H9 C33 1_555 1_555
C34 N16 1_555 1_555
H10 C34 1_555 1_555
H11 C34 1_555 1_555
H12 C34 1_555 1_555
C35 O9 1_555 1_555
N17 C35 1_555 1_555
C36 N17 1_555 1_555
C37 N17 1_555 1_555
C38 O10 1_555 1_555
N18 C38 1_555 1_555
C39 N18 1_555 1_555
C40 N18 1_555 1_555
H13 C1 1_555 1_555
H14 C2 1_555 1_555
H15 C3 1_555 1_555
H16 C4 1_555 1_555
H17 C7 1_555 1_555
H18 C8 1_555 1_555
H19 C9 1_555 1_555
H20 C10 1_555 1_555
H21 C17 1_555 1_555
H22 C18 1_555 1_555
H23 C18 1_555 1_555
H24 C18 1_555 1_555
H25 C19 1_555 1_555
H26 C19 1_555 1_555
H27 C19 1_555 1_555
H28 C20 1_555 1_555
H29 C21 1_555 1_555
H30 C21 1_555 1_555
H31 C21 1_555 1_555
H32 C23 1_555 1_555
H33 C24 1_555 1_555
H34 C24 1_555 1_555
H35 C24 1_555 1_555
H36 C26 1_555 1_555
H37 C27 1_555 1_555
H38 C27 1_555 1_555
H39 C27 1_555 1_555
H40 C28 1_555 1_555
H41 C28 1_555 1_555
H42 C28 1_555 1_555
H43 C29 1_555 1_555
H44 C30 1_555 1_555
H45 C30 1_555 1_555
H46 C30 1_555 1_555
H47 C31 1_555 1_555
H48 C31 1_555 1_555
H49 C31 1_555 1_555
H50 C32 1_555 1_555
H51 C35 1_555 1_555
H52 C36 1_555 1_555
H53 C36 1_555 1_555
H54 C36 1_555 1_555
H55 C37 1_555 1_555
H56 C37 1_555 1_555
H57 C37 1_555 1_555
O3A Mn2 1_555 1_555
Mn2A O3 1_555 1_555
O7A Mn3 1_555 1_555
Mn3A O7 1_555 1_555
C1 C5 1_555 1_555
C5 C6 1_555 1_555
C7 C11 1_555 1_555
C11 C12 1_555 1_555
O3A Mn2A 1_555 1_555
O7A Mn3A 1_555 1_555

#END
