
#######################################################################
#
#                 Cambridge Crystallographic Data Centre
#                                CCDC 
#
#######################################################################
#
# If this CIF has been generated from an entry in the Cambridge 
# Structural Database, then it will include bibliographic, chemical, 
# crystal, experimental, refinement or atomic coordinate data resulting 
# from the CCDC's data processing and validation procedures.
#
#######################################################################

data_LUJSIS01
_symmetry_cell_setting           orthorhombic
_symmetry_space_group_name_H-M   'P n n a'
_symmetry_Int_Tables_number      52
_space_group_name_Hall           '-P 2a 2bc'
loop_
_symmetry_equiv_pos_site_id
_symmetry_equiv_pos_as_xyz
1 x,y,z
2 1/2-x,-y,z
3 1/2-x,1/2+y,1/2-z
4 x,1/2-y,1/2-z
5 -x,-y,-z
6 1/2+x,y,-z
7 1/2+x,1/2-y,1/2+z
8 -x,1/2+y,1/2+z
_cell_length_a                   17.5540(7)
_cell_length_b                   9.6910(4)
_cell_length_c                   13.7652(6)
_cell_angle_alpha                90
_cell_angle_beta                 90
_cell_angle_gamma                90
_cell_volume                     2341.68
loop_
_atom_site_label
_atom_site_type_symbol
_atom_site_fract_x
_atom_site_fract_y
_atom_site_fract_z
Ag1 Ag 0.2500 0.0000 0.00085(3)
N1 N 0.16887(19) 0.1699(4) -0.0404(3)
N2 N 0.1484(2) 0.0039(3) 0.1186(3)
C1 C 0.1055(2) 0.1825(5) 0.0133(3)
C2 C 0.0483(3) 0.2738(6) -0.0113(4)
H1 H 0.0042 0.2789 0.0260
C3 C 0.0570(3) 0.3565(6) -0.0906(4)
H2 H 0.0185 0.4170 -0.1092
C4 C 0.1224(3) 0.3489(5) -0.1416(4)
H3 H 0.1310 0.4083 -0.1935
C5 C 0.1762(3) 0.2525(5) -0.1162(3)
H4 H 0.2199 0.2450 -0.1541
C6 C 0.0995(2) 0.0968(5) 0.1005(3)
H5 H 0.0592 0.1107 0.1433
C7 C 0.1465(2) -0.0665(5) 0.2090(3)
C8 C 0.1480(4) 0.0002(5) 0.2953(4)
H6 H 0.1470 0.0961 0.2965
C9 C 0.1488(2) -0.2134(4) 0.2054(3)
C10 C 0.1503(3) -0.2884(5) 0.1159(3)
H7 H 0.1509 -0.2417 0.0569
C11 C 0.1508(3) -0.4273(6) 0.1179(4)
H8 H 0.1531 -0.4758 0.0597
Ag1B Ag 0.2500 -0.5000 0.49915(3)
N1C N 0.16887(19) -0.6699(4) 0.5404(3)
N1A N 0.33113(19) -0.1699(4) -0.0404(3)
N2C N 0.1484(2) -0.5039(3) 0.3814(3)
N2A N 0.3516(2) -0.0039(3) 0.1186(3)
C1C C 0.1055(2) -0.6825(5) 0.4867(3)
C2C C 0.0483(3) -0.7738(6) 0.5113(4)
H1C H 0.0042 -0.7789 0.4740
C3C C 0.0570(3) -0.8565(6) 0.5906(4)
H2C H 0.0185 -0.9170 0.6092
C4C C 0.1224(3) -0.8489(5) 0.6416(4)
H3C H 0.1310 -0.9083 0.6935
C5C C 0.1762(3) -0.7525(5) 0.6162(3)
H4C H 0.2199 -0.7450 0.6541
C6C C 0.0995(2) -0.5968(5) 0.3995(3)
H5C H 0.0592 -0.6107 0.3567
C7C C 0.1465(2) -0.4335(5) 0.2910(3)
C8C C 0.1480(4) -0.5002(5) 0.2047(4)
H6C H 0.1470 -0.5961 0.2035
C9C C 0.1488(2) -0.2866(4) 0.2946(3)
C10C C 0.1503(3) -0.2116(5) 0.3841(3)
H7C H 0.1509 -0.2583 0.4431
C11C C 0.1508(3) -0.0727(6) 0.3821(4)
H8C H 0.1531 -0.0242 0.4403
P1 P -0.10530(11) 0.2500 0.2500
F1 F -0.1708(2) 0.1411(4) 0.2512(4)
F2 F -0.0408(3) 0.1486(7) 0.2702(6)
F3 F -0.1097(5) 0.2532(15) 0.3581(4)
F1C F -0.1708(2) 0.3589(4) 0.2488(4)
F2C F -0.0408(3) 0.3514(7) 0.2298(6)
F3C F -0.1097(5) 0.2468(15) 0.1419(4)
loop_
_geom_bond_atom_site_label_1
_geom_bond_atom_site_label_2
_geom_bond_site_symmetry_1
_geom_bond_site_symmetry_2
Ag1 N1 1_555 1_555
N1 C1 1_555 1_555
N2 Ag1 1_555 1_555
C1 C2 1_555 1_555
C2 H1 1_555 1_555
C3 C2 1_555 1_555
H2 C3 1_555 1_555
C4 C3 1_555 1_555
H3 C4 1_555 1_555
C5 N1 1_555 1_555
H4 C5 1_555 1_555
C6 N2 1_555 1_555
H5 C6 1_555 1_555
C7 N2 1_555 1_555
C8 C7 1_555 1_555
H6 C8 1_555 1_555
C9 C7 1_555 1_555
C10 C9 1_555 1_555
H7 C10 1_555 1_555
C11 C10 1_555 1_555
H8 C11 1_555 1_555
P1 F1 1_555 1_555
F2 P1 1_555 1_555
F3 P1 1_555 1_555
Ag1B N1C 1_555 1_555
N1C C1C 1_555 1_555
N1A Ag1 1_555 1_555
N2C Ag1B 1_555 1_555
N2A Ag1 1_555 1_555
C1C C2C 1_555 1_555
C2C H1C 1_555 1_555
C3C C2C 1_555 1_555
H2C C3C 1_555 1_555
C4C C3C 1_555 1_555
H3C C4C 1_555 1_555
C5C N1C 1_555 1_555
H4C C5C 1_555 1_555
C6C N2C 1_555 1_555
H5C C6C 1_555 1_555
C7C N2C 1_555 1_555
C8C C11 1_555 1_555
H6C C8C 1_555 1_555
C9C C9 1_555 1_555
C10C C9C 1_555 1_555
H7C C10C 1_555 1_555
C11C C8 1_555 1_555
H8C C11C 1_555 1_555
F1C P1 1_555 1_555
F2C P1 1_555 1_555
F3C P1 1_555 1_555
C1 C6 1_555 1_555
C4 C5 1_555 1_555
C1C C6C 1_555 1_555
C4C C5C 1_555 1_555
C7C C8C 1_555 1_555
C7C C9C 1_555 1_555
C10C C11C 1_555 1_555

#END
