
#######################################################################
#
#                 Cambridge Crystallographic Data Centre
#                                CCDC 
#
#######################################################################
#
# If this CIF has been generated from an entry in the Cambridge 
# Structural Database, then it will include bibliographic, chemical, 
# crystal, experimental, refinement or atomic coordinate data resulting 
# from the CCDC's data processing and validation procedures.
#
#######################################################################

data_LUKCAV
_symmetry_cell_setting           orthorhombic
_symmetry_space_group_name_H-M   'P b c a'
_symmetry_Int_Tables_number      61
_space_group_name_Hall           '-P 2ac 2ab'
loop_
_symmetry_equiv_pos_site_id
_symmetry_equiv_pos_as_xyz
1 x,y,z
2 1/2-x,-y,1/2+z
3 1/2+x,1/2-y,-z
4 -x,1/2+y,1/2-z
5 -x,-y,-z
6 1/2+x,y,1/2-z
7 1/2-x,1/2+y,z
8 x,1/2-y,1/2+z
_cell_length_a                   8.623(1)
_cell_length_b                   18.259(4)
_cell_length_c                   19.997(3)
_cell_angle_alpha                90
_cell_angle_beta                 90
_cell_angle_gamma                90
_cell_volume                     3148.47
loop_
_atom_site_label
_atom_site_type_symbol
_atom_site_fract_x
_atom_site_fract_y
_atom_site_fract_z
Cd1 Cd 0.6300(1) 0.3972(1) 0.0539(1)
O1 O 0.9211(3) 0.2729(1) 0.1142(1)
O2 O 0.5873(4) 0.4444(2) 0.2988(2)
O3 O 0.5638(4) 0.4773(2) 0.1955(2)
O4 O 0.5442(3) 0.4281(1) -0.0583(1)
O5 O -0.1006(3) 0.4601(1) -0.0917(1)
O6 O 0.0243(3) 0.5568(1) -0.0604(1)
O7 O 0.4847(3) 0.2881(1) 0.0395(1)
N1 N 0.8812(5) 0.2974(2) 0.2272(2)
N2 N 0.7957(4) 0.3441(2) 0.2652(2)
N3 N 0.7492(4) 0.3629(2) 0.1550(1)
N4 N 0.6191(4) 0.4383(2) 0.2395(2)
N5 N 0.3200(4) 0.3696(2) -0.0937(2)
N6 N 0.1657(3) 0.3847(2) -0.1003(2)
N7 N 0.2984(4) 0.4835(1) -0.0606(1)
N8 N 0.0186(3) 0.4925(2) -0.0776(1)
N9 N 0.3698(4) 0.4117(2) 0.0922(2)
N10 N 0.2734(4) 0.3534(2) 0.0721(2)
N11 N 0.2506(4) 0.2329(2) 0.0430(2)
N12 N 0.3068(4) 0.1709(2) 0.0089(2)
C1 C 0.8560(4) 0.3079(2) 0.1605(2)
C2 C 0.7225(4) 0.3805(2) 0.2193(2)
C3 C 0.4019(4) 0.4276(2) -0.0700(2)
C4 C 0.1634(4) 0.4531(2) -0.0802(2)
C5 C 0.3442(4) 0.2910(2) 0.0521(2)
Cd1B Cd 0.1300(1) 0.1028(1) -0.0539(1)
Cd1D Cd 0.3700(1) 0.6028(1) -0.0539(1)
N7D N 0.7016(4) 0.5165(1) 0.0606(1)
N12B N 0.8068(4) 0.3291(2) -0.0089(2)
O8 O 0.4769(4) 0.3308(2) -0.2897(2)
O9 O 0.8119(4) -0.1120(3) -0.1943(2)
loop_
_geom_bond_atom_site_label_1
_geom_bond_atom_site_label_2
_geom_bond_site_symmetry_1
_geom_bond_site_symmetry_2
Cd1 O4 1_555 1_555
O1 C1 1_555 1_555
O2 N4 1_555 1_555
O3 N4 1_555 1_555
O4 C3 1_555 1_555
O5 N8 1_555 1_555
O6 N8 1_555 1_555
O7 Cd1 1_555 1_555
N1 N2 1_555 1_555
N2 C2 1_555 1_555
N3 Cd1 1_555 1_555
N4 C2 1_555 1_555
N5 N6 1_555 1_555
N6 C4 1_555 1_555
N7 C3 1_555 1_555
N8 C4 1_555 1_555
N9 Cd1 1_555 1_555
N10 N9 1_555 1_555
N11 N12 1_555 1_555
N12 Cd1B 1_555 1_555
C1 N1 1_555 1_555
C2 N3 1_555 1_555
C3 N5 1_555 1_555
C4 N7 1_555 1_555
C5 O7 1_555 1_555
Cd1D N7 1_555 1_555
N7D Cd1 1_555 1_555
N12B Cd1 1_555 1_555
N3 C1 1_555 1_555
N10 C5 1_555 1_555
N11 C5 1_555 1_555

#END
