
#######################################################################
#
#                 Cambridge Crystallographic Data Centre
#                                CCDC 
#
#######################################################################
#
# If this CIF has been generated from an entry in the Cambridge 
# Structural Database, then it will include bibliographic, chemical, 
# crystal, experimental, refinement or atomic coordinate data resulting 
# from the CCDC's data processing and validation procedures.
#
#######################################################################

data_LUKHEG
_symmetry_cell_setting           rhombohedral
_symmetry_space_group_name_H-M   'R -3 c'
_symmetry_Int_Tables_number      167
_space_group_name_Hall           '-R 3 2"c'
loop_
_symmetry_equiv_pos_site_id
_symmetry_equiv_pos_as_xyz
1 x,y,z
2 -y,x-y,z
3 -x+y,-x,z
4 y,x,1/2-z
5 -x,-x+y,1/2-z
6 x-y,-y,1/2-z
7 2/3+x,1/3+y,1/3+z
8 2/3-y,1/3+x-y,1/3+z
9 2/3-x+y,1/3-x,1/3+z
10 2/3+y,1/3+x,5/6-z
11 2/3-x,1/3-x+y,5/6-z
12 2/3+x-y,1/3-y,5/6-z
13 1/3+x,2/3+y,2/3+z
14 1/3-y,2/3+x-y,2/3+z
15 1/3-x+y,2/3-x,2/3+z
16 1/3+y,2/3+x,1/6-z
17 1/3-x,2/3-x+y,1/6-z
18 1/3+x-y,2/3-y,1/6-z
19 -x,-y,-z
20 y,-x+y,-z
21 x-y,x,-z
22 -y,-x,1/2+z
23 x,x-y,1/2+z
24 -x+y,y,1/2+z
25 1/3-x,2/3-y,2/3-z
26 1/3+y,2/3-x+y,2/3-z
27 1/3+x-y,2/3+x,2/3-z
28 1/3-y,2/3-x,1/6+z
29 1/3+x,2/3+x-y,1/6+z
30 1/3-x+y,2/3+y,1/6+z
31 2/3-x,1/3-y,1/3-z
32 2/3+y,1/3-x+y,1/3-z
33 2/3+x-y,1/3+x,1/3-z
34 2/3-y,1/3-x,5/6+z
35 2/3+x,1/3+x-y,5/6+z
36 2/3-x+y,1/3+y,5/6+z
_cell_length_a                   19.791(6)
_cell_length_b                   19.791(6)
_cell_length_c                   48.771(15)
_cell_angle_alpha                90
_cell_angle_beta                 90
_cell_angle_gamma                120
_cell_volume                     16543.5
loop_
_atom_site_label
_atom_site_type_symbol
_atom_site_fract_x
_atom_site_fract_y
_atom_site_fract_z
Co1 Co 0.18950(4) 0.3333 0.0833
O1 O 0.24464(16) 0.45425(16) 0.07367(8)
O2 O 0.37367(17) 0.50415(16) 0.07120(8)
N1 N -0.0589(3) 0.2486(2) -0.05231(10)
N2 N -0.0407(3) 0.3236(2) -0.04704(11)
H1 H -0.0500 0.3514 -0.0583
N3 N 0.1008(2) 0.3160(2) 0.05386(10)
N4 N 0.0284(2) 0.2558(2) 0.05895(10)
H2 H 0.0141 0.2328 0.0746
C1 C -0.1025(3) 0.1731(3) 0.03812(14)
H3 H -0.1104 0.1383 0.0530
H4 H -0.1165 0.1446 0.0212
H5 H -0.1346 0.1964 0.0408
C2 C -0.0185(3) 0.2359(3) 0.03713(12)
C3 C 0.0255(3) 0.2856(2) 0.01632(12)
C4 C 0.0997(3) 0.3353(3) 0.02821(12)
C5 C 0.1686(3) 0.4028(3) 0.01570(12)
H6 H 0.1749 0.4503 0.0233
H7 H 0.1612 0.4026 -0.0038
H8 H 0.2144 0.3993 0.0194
C6 C 0.0154(4) 0.4280(3) -0.01202(15)
H9 H -0.0271 0.4379 -0.0141
H10 H 0.0284 0.4302 0.0070
H11 H 0.0600 0.4668 -0.0219
C7 C -0.0080(4) 0.3484(2) -0.02321(12)
C8 C -0.0019(3) 0.2875(2) -0.01066(12)
C9 C -0.0341(4) 0.2268(3) -0.03021(11)
C10 C -0.0397(4) 0.1489(2) -0.02780(13)
H12 H -0.0085 0.1438 -0.0418
H13 H -0.0211 0.1444 -0.0101
H14 H -0.0930 0.1086 -0.0299
C11 C 0.3132(2) 0.5105(2) 0.07230(11)
C12 C 0.3240(2) 0.5913(2) 0.07165(12)
C13 C 0.3987(2) 0.6577(2) 0.07210(12)
H15 H 0.4423 0.6516 0.0727
O1A O 0.54575(16) 0.79039(23) 0.07367(8)
O2A O 0.49585(16) 0.86952(23) 0.07120(8)
C11A C 0.4895(2) 0.8027(3) 0.07230(11)
C12A C 0.4087(2) 0.7327(3) 0.07165(12)
C13A C 0.3423(2) 0.7410(3) 0.07210(12)
H15A H 0.3484 0.7907 0.0727
O1B O 0.20961(23) 0.75536(16) 0.07367(8)
O2B O 0.13048(23) 0.62633(17) 0.07120(8)
C11B C 0.1973(3) 0.6868(2) 0.07230(11)
C12B C 0.2673(3) 0.6760(2) 0.07165(12)
C13B C 0.2590(3) 0.6013(2) 0.07210(12)
H15B H 0.2093 0.5577 0.0727
Co1A Co 0.6667 0.85620(4) 0.0833
N1A N 0.7514(2) 0.6925(4) -0.05231(10)
N2A N 0.6764(2) 0.6357(4) -0.04704(11)
H1A H 0.6486 0.5986 -0.0583
N3A N 0.6840(2) 0.7848(3) 0.05386(10)
N4A N 0.7442(2) 0.7726(3) 0.05895(10)
H2A H 0.7672 0.7813 0.0746
C1A C 0.8269(3) 0.7244(4) 0.03812(14)
H3A H 0.8617 0.7513 0.0530
H4A H 0.8554 0.7389 0.0212
H5A H 0.8036 0.6690 0.0408
C2A C 0.7641(3) 0.7456(4) 0.03713(12)
C3A C 0.7144(2) 0.7399(4) 0.01632(12)
C4A C 0.6647(3) 0.7644(4) 0.02821(12)
C5A C 0.5972(3) 0.7658(4) 0.01570(12)
H6A H 0.5497 0.7246 0.0233
H7A H 0.5974 0.7586 -0.0038
H8A H 0.6007 0.8151 0.0194
C6A C 0.5720(3) 0.5874(5) -0.01202(15)
H9A H 0.5621 0.5350 -0.0141
H10A H 0.5698 0.5982 0.0070
H11A H 0.5332 0.5932 -0.0219
C7A C 0.6516(2) 0.6436(4) -0.02321(12)
C8A C 0.7125(2) 0.7106(4) -0.01066(12)
C9A C 0.7732(3) 0.7391(5) -0.03021(11)
C10A C 0.8511(2) 0.8114(4) -0.02780(13)
H12A H 0.8562 0.8477 -0.0418
H13A H 0.8556 0.8345 -0.0101
H14A H 0.8914 0.7984 -0.0299
Co1B Co 0.14380(4) 0.81050(4) 0.0833
N1B N 0.3075(4) 1.0589(3) -0.05231(10)
N2B N 0.3643(4) 1.0407(3) -0.04704(11)
H1B H 0.4014 1.0500 -0.0583
N3B N 0.2152(3) 0.8992(2) 0.05386(10)
N4B N 0.2274(3) 0.9716(2) 0.05895(10)
H2B H 0.2187 0.9859 0.0746
C1B C 0.2756(4) 1.1025(3) 0.03812(14)
H3B H 0.2487 1.1104 0.0530
H4B H 0.2611 1.1165 0.0212
H5B H 0.3310 1.1346 0.0408
C2B C 0.2544(4) 1.0185(3) 0.03713(12)
C3B C 0.2601(4) 0.9745(3) 0.01632(12)
C4B C 0.2356(4) 0.9003(3) 0.02821(12)
C5B C 0.2342(4) 0.8314(3) 0.01570(12)
H6B H 0.2754 0.8251 0.0233
H7B H 0.2414 0.8388 -0.0038
H8B H 0.1849 0.7856 0.0194
C6B C 0.4126(5) 0.9846(4) -0.01202(15)
H9B H 0.4650 1.0271 -0.0141
H10B H 0.4018 0.9716 0.0070
H11B H 0.4068 0.9400 -0.0219
C7B C 0.3564(4) 1.0080(4) -0.02321(12)
C8B C 0.2894(4) 1.0019(3) -0.01066(12)
C9B C 0.2609(5) 1.0341(4) -0.03021(11)
C10B C 0.1886(4) 1.0397(4) -0.02780(13)
H12B H 0.1523 1.0085 -0.0418
H13B H 0.1655 1.0211 -0.0101
H14B H 0.2016 1.0930 -0.0299
N1R N 0.0589(3) 0.7514(2) 0.05231(10)
N2R N 0.0407(3) 0.6764(2) 0.04704(11)
H1R H 0.0500 0.6486 0.0583
N3R N -0.1008(2) 0.6840(2) -0.05386(10)
N4R N -0.0284(2) 0.7442(2) -0.05895(10)
H2R H -0.0141 0.7672 -0.0746
C1R C 0.1025(3) 0.8269(3) -0.03812(14)
H3R H 0.1104 0.8617 -0.0530
H4R H 0.1165 0.8554 -0.0212
H5R H 0.1346 0.8036 -0.0408
C2R C 0.0185(3) 0.7641(3) -0.03713(12)
C3R C -0.0255(3) 0.7144(2) -0.01632(12)
C4R C -0.0997(3) 0.6647(3) -0.02821(12)
C5R C -0.1686(3) 0.5972(3) -0.01570(12)
H6R H -0.1749 0.5497 -0.0233
H7R H -0.1612 0.5974 0.0038
H8R H -0.2144 0.6007 -0.0194
C6R C -0.0154(4) 0.5720(3) 0.01202(15)
H9R H 0.0271 0.5621 0.0141
H10R H -0.0284 0.5698 -0.0070
H11R H -0.0600 0.5332 0.0219
C7R C 0.0080(4) 0.6516(2) 0.02321(12)
C8R C 0.0019(3) 0.7125(2) 0.01066(12)
C9R C 0.0341(4) 0.7732(3) 0.03021(11)
C10R C 0.0397(4) 0.8511(2) 0.02780(13)
H12R H 0.0085 0.8562 0.0418
H13R H 0.0211 0.8556 0.0101
H14R H 0.0930 0.8914 0.0299
N1S N 0.2486(2) 0.3075(4) 0.05231(10)
N2S N 0.3236(2) 0.3643(4) 0.04704(11)
H1S H 0.3514 0.4014 0.0583
N3S N 0.3160(2) 0.2152(3) -0.05386(10)
N4S N 0.2558(2) 0.2274(3) -0.05895(10)
H2S H 0.2328 0.2187 -0.0746
C1S C 0.1731(3) 0.2756(4) -0.03812(14)
H3S H 0.1383 0.2487 -0.0530
H4S H 0.1446 0.2611 -0.0212
H5S H 0.1964 0.3310 -0.0408
C2S C 0.2359(3) 0.2544(4) -0.03713(12)
C3S C 0.2856(2) 0.2601(4) -0.01632(12)
C4S C 0.3353(3) 0.2356(4) -0.02821(12)
C5S C 0.4028(3) 0.2342(4) -0.01570(12)
H6S H 0.4503 0.2754 -0.0233
H7S H 0.4026 0.2414 0.0038
H8S H 0.3993 0.1849 -0.0194
C6S C 0.4280(3) 0.4126(5) 0.01202(15)
H9S H 0.4379 0.4650 0.0141
H10S H 0.4302 0.4018 -0.0070
H11S H 0.4668 0.4068 0.0219
C7S C 0.3484(2) 0.3564(4) 0.02321(12)
C8S C 0.2875(2) 0.2894(4) 0.01066(12)
C9S C 0.2268(3) 0.2609(5) 0.03021(11)
C10S C 0.1489(2) 0.1886(4) 0.02780(13)
H12S H 0.1438 0.1523 0.0418
H13S H 0.1444 0.1655 0.0101
H14S H 0.1086 0.2016 0.0299
N1BA N 0.2744(3) 0.3592(4) 0.11436(10)
N2BA N 0.2926(3) 0.3024(4) 0.11963(11)
H1BA H 0.2833 0.2653 0.1084
N3BA N 0.4341(2) 0.4515(3) 0.22053(10)
N4BA N 0.3617(2) 0.4393(3) 0.22562(10)
H2BA H 0.3474 0.4480 0.2413
C1BA C 0.2308(3) 0.3911(4) 0.20479(14)
H3BA H 0.2229 0.4180 0.2197
H4BA H 0.2168 0.4056 0.1879
H5BA H 0.1987 0.3357 0.2075
C2BA C 0.3148(3) 0.4123(4) 0.20380(12)
C3BA C 0.3588(3) 0.4066(4) 0.18299(12)
C4BA C 0.4330(3) 0.4311(4) 0.19488(12)
C5BA C 0.5019(3) 0.4325(4) 0.18237(12)
H6BA H 0.5082 0.3913 0.1900
H7BA H 0.4945 0.4253 0.1629
H8BA H 0.5477 0.4818 0.1861
C6BA C 0.3487(4) 0.2541(5) 0.15465(15)
H9BA H 0.3062 0.2017 0.1526
H10BA H 0.3617 0.2649 0.1737
H11BA H 0.3933 0.2599 0.1448
C7BA C 0.3253(4) 0.3103(4) 0.14346(12)
C8BA C 0.3314(3) 0.3773(4) 0.15601(12)
C9BA C 0.2992(4) 0.4058(5) 0.13646(11)
C10BA C 0.2936(4) 0.4781(4) 0.13887(13)
H12BA H 0.3248 0.5144 0.1249
H13BA H 0.3122 0.5012 0.1566
H14BA H 0.2403 0.4651 0.1368
O1Q O 0.12372(23) 0.21242(16) 0.09300(8)
O2Q O 0.20285(23) 0.16252(16) 0.09547(8)
C11Q C 0.1360(3) 0.1562(2) 0.09437(11)
C12Q C 0.0660(3) 0.0754(2) 0.09502(12)
C13Q C 0.0743(3) 0.0090(2) 0.09457(12)
H15Q H 0.1240 0.0151 0.0940
O1P O 0.08869(16) -0.12372(23) 0.09300(8)
O2P O -0.04034(17) -0.20285(23) 0.09547(8)
C11P C 0.0201(2) -0.1360(3) 0.09437(11)
C12P C 0.0093(2) -0.0660(3) 0.09502(12)
C13P C -0.0654(2) -0.0743(3) 0.09457(12)
H15P H -0.1090 -0.1240 0.0940
O1O O -0.21242(16) -0.08869(16) 0.09300(8)
O2O O -0.16252(16) 0.04034(17) 0.09547(8)
C11O C -0.1562(2) -0.0201(2) 0.09437(11)
C12O C -0.0754(2) -0.0093(2) 0.09502(12)
C13O C -0.0090(2) 0.0654(2) 0.09457(12)
H15O H -0.0151 0.1090 0.0940
Co1A_2 Co -0.3333 -0.14380(4) 0.0833
Co1B_2 Co 0.14380(4) -0.18950(4) 0.0833
Co1R Co -0.18950(4) 0.6667 -0.0833
Co1R_2 Co 0.81050(4) 0.6667 -0.0833
Co1S Co 0.3333 0.14380(4) -0.0833
Co1S_2 Co 0.3333 1.14380(4) -0.0833
Co1T Co -0.14380(4) 0.18950(4) -0.0833
Co1FA Co 0.52287(4) 0.52283(4) 0.2500
O1O_2 O 0.78758(16) 0.91131(16) 0.09300(8)
O1P_2 O 0.08869(16) 0.87628(23) 0.09300(8)
N1T N 0.6925(4) 0.9411(3) 0.05231(10)
N1AA N 0.0847(2) 0.7256(3) 0.11436(10)
N1CA N 0.6408(4) 0.9153(2) 0.11436(10)
N3O N 0.6493(2) 0.7675(2) 0.11281(10)
N3P N 0.2325(2) 0.8819(3) 0.11281(10)
N3Q N 0.1181(3) 0.3507(2) 0.11281(10)
loop_
_geom_bond_atom_site_label_1
_geom_bond_atom_site_label_2
_geom_bond_site_symmetry_1
_geom_bond_site_symmetry_2
Co1 O1 1_555 1_555
O1 C11 1_555 1_555
O2 C11 1_555 1_555
N1 N2 1_555 1_555
N2 H1 1_555 1_555
N3 Co1 1_555 1_555
N4 N3 1_555 1_555
H2 N4 1_555 1_555
C1 H3 1_555 1_555
H4 C1 1_555 1_555
H5 C1 1_555 1_555
C2 N4 1_555 1_555
C3 C2 1_555 1_555
C4 N3 1_555 1_555
C5 C4 1_555 1_555
H6 C5 1_555 1_555
H7 C5 1_555 1_555
H8 C5 1_555 1_555
C6 H9 1_555 1_555
H10 C6 1_555 1_555
H11 C6 1_555 1_555
C7 N2 1_555 1_555
C8 C3 1_555 1_555
C9 N1 1_555 1_555
C10 C9 1_555 1_555
H12 C10 1_555 1_555
H13 C10 1_555 1_555
H14 C10 1_555 1_555
C11 C12 1_555 1_555
C12 C13 1_555 1_555
C13 H15 1_555 1_555
O1A C11A 1_555 1_555
O2A C11A 1_555 1_555
C11A C12A 1_555 1_555
C12A C13 1_555 1_555
C13A C12A 1_555 1_555
H15A C13A 1_555 1_555
O1B C11B 1_555 1_555
O2B C11B 1_555 1_555
C11B C12B 1_555 1_555
C12B C13A 1_555 1_555
C13B C12 1_555 1_555
H15B C13B 1_555 1_555
Co1A O1A 1_555 1_555
N1A N2A 1_555 1_555
N2A H1A 1_555 1_555
N3A Co1A 1_555 1_555
N4A N3A 1_555 1_555
H2A N4A 1_555 1_555
C1A H3A 1_555 1_555
H4A C1A 1_555 1_555
H5A C1A 1_555 1_555
C2A N4A 1_555 1_555
C3A C2A 1_555 1_555
C4A N3A 1_555 1_555
C5A C4A 1_555 1_555
H6A C5A 1_555 1_555
H7A C5A 1_555 1_555
H8A C5A 1_555 1_555
C6A H9A 1_555 1_555
H10A C6A 1_555 1_555
H11A C6A 1_555 1_555
C7A N2A 1_555 1_555
C8A C3A 1_555 1_555
C9A N1A 1_555 1_555
C10A C9A 1_555 1_555
H12A C10A 1_555 1_555
H13A C10A 1_555 1_555
H14A C10A 1_555 1_555
Co1B O1B 1_555 1_555
N1B N2B 1_555 1_555
N2B H1B 1_555 1_555
N3B Co1B 1_555 1_555
N4B N3B 1_555 1_555
H2B N4B 1_555 1_555
C1B H3B 1_555 1_555
H4B C1B 1_555 1_555
H5B C1B 1_555 1_555
C2B N4B 1_555 1_555
C3B C2B 1_555 1_555
C4B N3B 1_555 1_555
C5B C4B 1_555 1_555
H6B C5B 1_555 1_555
H7B C5B 1_555 1_555
H8B C5B 1_555 1_555
C6B H9B 1_555 1_555
H10B C6B 1_555 1_555
H11B C6B 1_555 1_555
C7B N2B 1_555 1_555
C8B C3B 1_555 1_555
C9B N1B 1_555 1_555
C10B C9B 1_555 1_555
H12B C10B 1_555 1_555
H13B C10B 1_555 1_555
H14B C10B 1_555 1_555
N1R Co1B 1_555 1_555
N2R N1R 1_555 1_555
H1R N2R 1_555 1_555
N3R N4R 1_555 1_555
N4R H2R 1_555 1_555
C1R H3R 1_555 1_555
H4R C1R 1_555 1_555
H5R C1R 1_555 1_555
C2R N4R 1_555 1_555
C3R C2R 1_555 1_555
C4R N3R 1_555 1_555
C5R C4R 1_555 1_555
H6R C5R 1_555 1_555
H7R C5R 1_555 1_555
H8R C5R 1_555 1_555
C6R H9R 1_555 1_555
H10R C6R 1_555 1_555
H11R C6R 1_555 1_555
C7R N2R 1_555 1_555
C8R C3R 1_555 1_555
C9R N1R 1_555 1_555
C10R C9R 1_555 1_555
H12R C10R 1_555 1_555
H13R C10R 1_555 1_555
H14R C10R 1_555 1_555
N1S Co1 1_555 1_555
N2S N1S 1_555 1_555
H1S N2S 1_555 1_555
N3S N4S 1_555 1_555
N4S H2S 1_555 1_555
C1S H3S 1_555 1_555
H4S C1S 1_555 1_555
H5S C1S 1_555 1_555
C2S N4S 1_555 1_555
C3S C2S 1_555 1_555
C4S N3S 1_555 1_555
C5S C4S 1_555 1_555
H6S C5S 1_555 1_555
H7S C5S 1_555 1_555
H8S C5S 1_555 1_555
C6S H9S 1_555 1_555
H10S C6S 1_555 1_555
H11S C6S 1_555 1_555
C7S N2S 1_555 1_555
C8S C3S 1_555 1_555
C9S N1S 1_555 1_555
C10S C9S 1_555 1_555
H12S C10S 1_555 1_555
H13S C10S 1_555 1_555
H14S C10S 1_555 1_555
N1BA Co1 1_555 1_555
N2BA N1BA 1_555 1_555
H1BA N2BA 1_555 1_555
N3BA N4BA 1_555 1_555
N4BA H2BA 1_555 1_555
C1BA H3BA 1_555 1_555
H4BA C1BA 1_555 1_555
H5BA C1BA 1_555 1_555
C2BA N4BA 1_555 1_555
C3BA C2BA 1_555 1_555
C4BA N3BA 1_555 1_555
C5BA C4BA 1_555 1_555
H6BA C5BA 1_555 1_555
H7BA C5BA 1_555 1_555
H8BA C5BA 1_555 1_555
C6BA H9BA 1_555 1_555
H10BA C6BA 1_555 1_555
H11BA C6BA 1_555 1_555
C7BA N2BA 1_555 1_555
C8BA C3BA 1_555 1_555
C9BA N1BA 1_555 1_555
C10BA C9BA 1_555 1_555
H12BA C10BA 1_555 1_555
H13BA C10BA 1_555 1_555
H14BA C10BA 1_555 1_555
O1Q Co1 1_555 1_555
O2Q C11Q 1_555 1_555
C11Q O1Q 1_555 1_555
C12Q C11Q 1_555 1_555
C13Q C12Q 1_555 1_555
H15Q C13Q 1_555 1_555
O1P C11P 1_555 1_555
O2P C11P 1_555 1_555
C11P C12P 1_555 1_555
C12P C13Q 1_555 1_555
C13P C12P 1_555 1_555
H15P C13P 1_555 1_555
O1O C11O 1_555 1_555
O2O C11O 1_555 1_555
C11O C12O 1_555 1_555
C12O C13P 1_555 1_555
C13O C12Q 1_555 1_555
H15O C13O 1_555 1_555
Co1A_2 O1O 1_555 1_555
Co1B_2 O1P 1_555 1_555
Co1R N3R 1_555 1_555
Co1R_2 N1A 1_555 1_555
Co1S N3S 1_555 1_555
Co1S_2 N1B 1_555 1_555
Co1T N1 1_555 1_555
Co1FA N3BA 1_555 1_555
O1O_2 Co1A 1_555 1_555
O1P_2 Co1B 1_555 1_555
N1T Co1A 1_555 1_555
N1AA Co1B 1_555 1_555
N1CA Co1A 1_555 1_555
N3O Co1A 1_555 1_555
N3P Co1B 1_555 1_555
N3Q Co1 1_555 1_555
C1 C2 1_555 1_555
C3 C4 1_555 1_555
C6 C7 1_555 1_555
C7 C8 1_555 1_555
C8 C9 1_555 1_555
C12B C13B 1_555 1_555
C1A C2A 1_555 1_555
C3A C4A 1_555 1_555
C6A C7A 1_555 1_555
C7A C8A 1_555 1_555
C8A C9A 1_555 1_555
C1B C2B 1_555 1_555
C3B C4B 1_555 1_555
C6B C7B 1_555 1_555
C7B C8B 1_555 1_555
C8B C9B 1_555 1_555
C1R C2R 1_555 1_555
C3R C4R 1_555 1_555
C6R C7R 1_555 1_555
C7R C8R 1_555 1_555
C8R C9R 1_555 1_555
C1S C2S 1_555 1_555
C3S C4S 1_555 1_555
C6S C7S 1_555 1_555
C7S C8S 1_555 1_555
C8S C9S 1_555 1_555
C1BA C2BA 1_555 1_555
C3BA C4BA 1_555 1_555
C6BA C7BA 1_555 1_555
C7BA C8BA 1_555 1_555
C8BA C9BA 1_555 1_555
C12O C13O 1_555 1_555

#END
