
#######################################################################
#
#                 Cambridge Crystallographic Data Centre
#                                CCDC 
#
#######################################################################
#
# If this CIF has been generated from an entry in the Cambridge 
# Structural Database, then it will include bibliographic, chemical, 
# crystal, experimental, refinement or atomic coordinate data resulting 
# from the CCDC's data processing and validation procedures.
#
#######################################################################

data_LUKHEE01
_symmetry_cell_setting           monoclinic
_symmetry_space_group_name_H-M   'P n'
_symmetry_Int_Tables_number      7
_space_group_name_Hall           'P -2yac'
loop_
_symmetry_equiv_pos_site_id
_symmetry_equiv_pos_as_xyz
1 x,y,z
2 1/2+x,-y,1/2+z
_cell_length_a                   8.398(2)
_cell_length_b                   9.995(2)
_cell_length_c                   9.962(2)
_cell_angle_alpha                90
_cell_angle_beta                 104.23(3)
_cell_angle_gamma                90
_cell_volume                     810.533
loop_
_atom_site_label
_atom_site_type_symbol
_atom_site_fract_x
_atom_site_fract_y
_atom_site_fract_z
Zn1 Zn 0.40274(4) 0.89753(3) 0.66155(4)
O1 O 0.4434(4) 0.8305(3) 0.8541(3)
N1 N 0.1409(6) 0.6195(4) 0.3847(5)
H1 H 0.1036 0.5353 0.3606
O2 O 0.5209(6) 0.6310(4) 0.7991(4)
N2 N 0.6194(5) 0.9284(4) 0.6203(4)
C1 C 0.2340(7) 0.6545(5) 0.5088(5)
H2 H 0.2730 0.5940 0.5846
O3 O 0.8013(5) 0.8432(4) 1.0107(4)
N3 N 0.2639(4) 0.7846(3) 0.5128(4)
N4 N 0.8111(6) 1.0049(5) 0.5274(5)
H3 H 0.8617 1.0529 0.4736
C2 C 0.5242(5) 0.6755(3) 1.0360(4)
C3 C 0.4970(5) 0.7123(4) 0.8858(4)
C4 C 0.6306(5) 0.7464(4) 1.1422(4)
C5 C 0.8833(7) 0.9115(6) 0.6220(6)
H4 H 0.9959 0.8830 0.6422
C6 C 0.7400(5) 0.8552(5) 1.1108(4)
C7 C 0.6406(6) 0.7135(5) 1.2802(5)
H5 H 0.7123 0.7633 1.3530
C8 C 0.7643(7) 0.8641(6) 0.6802(6)
H6 H 0.7794 0.7975 0.7516
C9 C 0.6527(6) 1.0135(5) 0.5277(5)
H7 H 0.5741 1.0720 0.4700
O4 O 0.7659(4) 0.9537(3) 1.1955(4)
C10 C 0.4312(7) 0.5714(5) 1.0699(6)
H8 H 0.3584 0.5219 0.9976
C11 C 0.5469(9) 0.6082(5) 1.3123(6)
H9 H 0.5558 0.5844 1.4072
C12 C 0.1109(8) 0.7299(6) 0.3040(6)
H10 H 0.0475 0.7355 0.2098
C13 C 0.1888(7) 0.8330(5) 0.3833(5)
H11 H 0.1908 0.9243 0.3540
C14 C 0.4433(8) 0.5377(5) 1.2074(6)
H12 H 0.3784 0.4656 1.2291
O4A O 0.2659(4) 1.0463(3) 0.6955(4)
Zn1A Zn 0.90274(4) 1.10247(3) 1.16155(4)
loop_
_geom_bond_atom_site_label_1
_geom_bond_atom_site_label_2
_geom_bond_site_symmetry_1
_geom_bond_site_symmetry_2
Zn1 O1 1_555 1_555
O1 C3 1_555 1_555
N1 H1 1_555 1_555
O2 C3 1_555 1_555
N2 Zn1 1_555 1_555
C1 N1 1_555 1_555
H2 C1 1_555 1_555
O3 C6 1_555 1_555
N3 Zn1 1_555 1_555
N4 H3 1_555 1_555
C2 C3 1_555 1_555
C4 C2 1_555 1_555
C5 N4 1_555 1_555
H4 C5 1_555 1_555
C6 C4 1_555 1_555
C7 C4 1_555 1_555
H5 C7 1_555 1_555
C8 N2 1_555 1_555
H6 C8 1_555 1_555
C9 N2 1_555 1_555
H7 C9 1_555 1_555
O4 C6 1_555 1_555
C10 C2 1_555 1_555
H8 C10 1_555 1_555
C11 C7 1_555 1_555
H9 C11 1_555 1_555
C12 N1 1_555 1_555
H10 C12 1_555 1_555
C13 N3 1_555 1_555
H11 C13 1_555 1_555
C14 C10 1_555 1_555
H12 C14 1_555 1_555
O4A Zn1 1_555 1_555
Zn1A O4 1_555 1_555
C1 N3 1_555 1_555
N4 C9 1_555 1_555
C5 C8 1_555 1_555
C11 C14 1_555 1_555
C12 C13 1_555 1_555

#END
