
#######################################################################
#
#                 Cambridge Crystallographic Data Centre
#                                CCDC 
#
#######################################################################
#
# If this CIF has been generated from an entry in the Cambridge 
# Structural Database, then it will include bibliographic, chemical, 
# crystal, experimental, refinement or atomic coordinate data resulting 
# from the CCDC's data processing and validation procedures.
#
#######################################################################

data_LUKHEE
_symmetry_cell_setting           monoclinic
_symmetry_space_group_name_H-M   'P n'
_symmetry_Int_Tables_number      7
_space_group_name_Hall           'P -2yac'
loop_
_symmetry_equiv_pos_site_id
_symmetry_equiv_pos_as_xyz
1 x,y,z
2 1/2+x,-y,1/2+z
_cell_length_a                   8.394(2)
_cell_length_b                   9.976(3)
_cell_length_c                   9.959(3)
_cell_angle_alpha                90
_cell_angle_beta                 104.409(4)
_cell_angle_gamma                90
_cell_volume                     807.719
loop_
_atom_site_label
_atom_site_type_symbol
_atom_site_fract_x
_atom_site_fract_y
_atom_site_fract_z
Zn1 Zn -0.6073(1) 0.3975(1) -0.4804(1)
O1 O -0.5659(7) 0.3305(5) -0.2892(6)
O2 O -0.4879(10) 0.1303(7) -0.3430(7)
O3 O -0.2432(7) 0.4543(5) 0.0514(6)
O4 O -0.2069(9) 0.3431(7) -0.1316(7)
N1 N -0.7441(8) 0.2845(6) -0.6290(7)
N2 N -0.8669(9) 0.1195(6) -0.7576(8)
N3 N -0.3888(8) 0.4291(7) -0.5223(7)
N4 N -0.1989(9) 0.5049(7) -0.6149(8)
C1 C -0.3783(10) 0.2468(7) -0.0002(9)
C2 C -0.3708(12) 0.2128(8) 0.1356(9)
C3 C -0.4627(12) 0.1087(8) 0.1680(11)
C4 C -0.5663(13) 0.0384(9) 0.0620(11)
C5 C -0.5787(12) 0.0702(8) -0.0731(10)
C6 C -0.4843(9) 0.1759(7) -0.1059(8)
C7 C -0.5114(9) 0.2115(7) -0.2579(9)
C8 C -0.2677(9) 0.3552(7) -0.0345(8)
C9 C -0.7744(12) 0.1550(10) -0.6333(10)
C10 C -0.8947(12) 0.2301(9) -0.8378(11)
C11 C -0.8200(12) 0.3318(8) -0.7603(9)
C12 C -0.3571(11) 0.5131(9) -0.6142(9)
C13 C -0.1240(14) 0.4119(10) -0.5207(10)
C14 C -0.2436(11) 0.3631(10) -0.4639(10)
O3A O -0.7432(7) 0.5457(5) -0.4486(6)
Zn1A Zn -0.1073(1) 0.6025(1) 0.0196(1)
loop_
_geom_bond_atom_site_label_1
_geom_bond_atom_site_label_2
_geom_bond_site_symmetry_1
_geom_bond_site_symmetry_2
Zn1 O1 1_555 1_555
O1 C7 1_555 1_555
O2 C7 1_555 1_555
O3 C8 1_555 1_555
O4 C8 1_555 1_555
N1 Zn1 1_555 1_555
N2 C9 1_555 1_555
N3 Zn1 1_555 1_555
N4 C12 1_555 1_555
C1 C2 1_555 1_555
C2 C3 1_555 1_555
C3 C4 1_555 1_555
C4 C5 1_555 1_555
C5 C6 1_555 1_555
C6 C1 1_555 1_555
C7 C6 1_555 1_555
C8 C1 1_555 1_555
C9 N1 1_555 1_555
C10 N2 1_555 1_555
C11 N1 1_555 1_555
C12 N3 1_555 1_555
C13 N4 1_555 1_555
C14 N3 1_555 1_555
O3A Zn1 1_555 1_555
Zn1A O3 1_555 1_555
C10 C11 1_555 1_555
C13 C14 1_555 1_555

#END
