
#######################################################################
#
#                 Cambridge Crystallographic Data Centre
#                                CCDC 
#
#######################################################################
#
# If this CIF has been generated from an entry in the Cambridge 
# Structural Database, then it will include bibliographic, chemical, 
# crystal, experimental, refinement or atomic coordinate data resulting 
# from the CCDC's data processing and validation procedures.
#
#######################################################################

data_LUKQEN
_symmetry_cell_setting           triclinic
_symmetry_space_group_name_H-M   'P -1'
_symmetry_Int_Tables_number      2
_space_group_name_Hall           '-P 1'
loop_
_symmetry_equiv_pos_site_id
_symmetry_equiv_pos_as_xyz
1 x,y,z
2 -x,-y,-z
_cell_length_a                   7.132(2)
_cell_length_b                   8.157(2)
_cell_length_c                   9.332(2)
_cell_angle_alpha                67.352(11)
_cell_angle_beta                 86.164(14)
_cell_angle_gamma                82.803(14)
_cell_volume                     496.981
loop_
_atom_site_label
_atom_site_type_symbol
_atom_site_fract_x
_atom_site_fract_y
_atom_site_fract_z
La1 La 0.24543(3) 0.50636(3) 0.86487(2)
O1 O 0.3838(4) 0.5963(5) 1.0706(4)
O2 O 0.2283(5) 1.2463(4) 1.1127(4)
O3 O 0.6678(5) 0.7358(5) 1.2224(5)
O4 O -0.0587(5) 1.1862(5) 1.2164(4)
O5 O 0.4656(5) 0.7320(5) 0.7119(4)
O6 O 0.1485(5) 0.6103(5) 1.5832(4)
O7 O 0.0765(5) 0.5954(5) 1.1095(4)
O8 O 0.5983(5) 0.9073(5) 1.3557(5)
O9 O -0.1430(5) 0.7350(5) 1.5375(4)
C1 C 0.2337(6) 0.6255(6) 1.1413(5)
C2 C 0.5545(6) 0.8386(6) 1.2658(5)
C3 C 0.1126(6) 1.1436(6) 1.1987(5)
C4 C 0.0287(7) 0.7044(7) 1.4908(5)
C5 C 0.2516(6) 0.6984(6) 1.2648(5)
H1 H 0.3161(6) 0.6059(6) 1.3545(5)
C6 C 0.3546(6) 0.8708(6) 1.2099(5)
H2 H 0.3498(6) 0.9333(6) 1.0969(5)
C7 C 0.1989(6) 0.9540(6) 1.2917(5)
H3 H 0.2450(6) 0.9475(6) 1.3905(5)
C8 C 0.0797(6) 0.7944(6) 1.3209(5)
H4 H -0.0291(6) 0.8269(6) 1.2529(5)
H5 H 0.5814(6) 0.7502(6) 0.7604(5)
H6 H 0.4353(6) 0.8569(6) 0.6671(5)
H7 H -0.2256(6) 0.8101(6) 1.4478(5)
O1A O 0.6162(4) 0.4037(5) 0.9294(4)
O2_2 O 0.2283(5) 0.2463(4) 1.1127(4)
O3A O 0.3322(5) 0.2642(5) 0.7776(5)
O4A O 0.0587(5) 0.8138(5) 0.7836(4)
O6_2 O 0.1485(5) 0.6103(5) 0.5832(4)
O7A O -0.0765(5) 0.4046(5) 0.8905(4)
La1A La 0.75457(3) 0.49364(3) 1.13513(2)
La1_2 La 0.24543(3) 1.50636(3) 0.86487(2)
La1A_2 La -0.24543(3) 1.49364(3) 1.13513(2)
La1_3 La 0.24543(3) 0.50636(3) 1.86487(2)
La1A_3 La -0.24543(3) 0.49364(3) 1.13513(2)
loop_
_geom_bond_atom_site_label_1
_geom_bond_atom_site_label_2
_geom_bond_site_symmetry_1
_geom_bond_site_symmetry_2
La1 O1 1_555 1_555
O1 C1 1_555 1_555
O2 C3 1_555 1_555
O3 C2 1_555 1_555
O4 C3 1_555 1_555
O5 La1 1_555 1_555
O6 C4 1_555 1_555
O7 La1 1_555 1_555
O8 C2 1_555 1_555
O9 C4 1_555 1_555
C1 O7 1_555 1_555
C2 C6 1_555 1_555
C3 C7 1_555 1_555
C4 C8 1_555 1_555
C5 C1 1_555 1_555
H1 C5 1_555 1_555
C6 C5 1_555 1_555
H2 C6 1_555 1_555
C7 C6 1_555 1_555
H3 C7 1_555 1_555
C8 C5 1_555 1_555
H4 C8 1_555 1_555
H5 O5 1_555 1_555
H6 O5 1_555 1_555
H7 O9 1_555 1_555
O1A La1 1_555 1_555
O2_2 La1 1_555 1_555
O3A La1 1_555 1_555
O4A La1 1_555 1_555
O6_2 La1 1_555 1_555
O7A La1 1_555 1_555
La1A O1 1_555 1_555
La1_2 O2 1_555 1_555
La1A_2 O4 1_555 1_555
La1_3 O6 1_555 1_555
La1A_3 O7 1_555 1_555
O3 La1A 1_555 1_555
C7 C8 1_555 1_555
O1A La1A 1_555 1_555
O7A La1A_3 1_555 1_555

#END
