
#######################################################################
#
#                 Cambridge Crystallographic Data Centre
#                                CCDC 
#
#######################################################################
#
# If this CIF has been generated from an entry in the Cambridge 
# Structural Database, then it will include bibliographic, chemical, 
# crystal, experimental, refinement or atomic coordinate data resulting 
# from the CCDC's data processing and validation procedures.
#
#######################################################################

data_LULCOM
_symmetry_cell_setting           tetragonal
_symmetry_space_group_name_H-M   'P 41 2 2'
_symmetry_Int_Tables_number      91
_space_group_name_Hall           'P 4w 2c'
loop_
_symmetry_equiv_pos_site_id
_symmetry_equiv_pos_as_xyz
1 x,y,z
2 -y,x,1/4+z
3 -x,-y,1/2+z
4 y,-x,3/4+z
5 x,-y,1/2-z
6 y,x,3/4-z
7 -x,y,-z
8 -y,-x,1/4-z
_cell_length_a                   9.1100(11)
_cell_length_b                   9.1100(11)
_cell_length_c                   31.066(8)
_cell_angle_alpha                90
_cell_angle_beta                 90
_cell_angle_gamma                90
_cell_volume                     2578.23
loop_
_atom_site_label
_atom_site_type_symbol
_atom_site_fract_x
_atom_site_fract_y
_atom_site_fract_z
Ag1 Ag -0.5000 -0.65819(10) 0.0000
C1 C -0.6420(8) -0.4860(6) -0.0772(2)
C2 C -0.5186(9) -0.3944(7) -0.0698(3)
H1 H -0.4547 -0.4148 -0.0464
C3 C -0.4903(12) -0.2766(8) -0.0961(4)
H2 H -0.4079 -0.2151 -0.0910
C4 C -0.5868(13) -0.2481(11) -0.1314(4)
H3 H -0.5666 -0.1679 -0.1500
C5 C -0.7074(13) -0.3335(10) -0.1389(3)
H4 H -0.7709 -0.3115 -0.1623
C6 C -0.7377(10) -0.4553(8) -0.1118(2)
C7 C -0.8576(10) -0.5502(9) -0.1176(3)
H5 H -0.9240 -0.5338 -0.1406
C8 C -0.8797(9) -0.6665(9) -0.0901(2)
H6 H -0.9612 -0.7304 -0.0937
C9 C -0.7786(7) -0.6884(7) -0.0566(2)
C10 C -0.7950(9) -0.8128(9) -0.0250(3)
C11 C -0.9201(8) -1.0447(7) -0.0066(3)
H7 H -0.8585 -1.0365 0.0199
C12 C -0.8767(10) -1.1824(10) -0.0302(3)
H8 H -0.7695 -1.1810 -0.0354
H9 H -0.9265 -1.1845 -0.0585
C13 C -0.9165(11) -1.3212(10) -0.0051(4)
H10 H -0.8596 -1.3249 0.0220
H11 H -0.8914 -1.4090 -0.0224
N1 N -0.6661(7) -0.6023(6) -0.05033(19)
N2 N -0.8891(7) -0.9187(7) -0.0343(2)
H12 H -0.9372 -0.9124 -0.0588
O1 O -0.7235(8) -0.8113(7) 0.0084(2)
C1F C -1.3580(8) -0.4860(6) 0.0772(2)
C2F C -1.4814(9) -0.3944(7) 0.0698(3)
H1F H -1.5453 -0.4148 0.0464
C3F C -1.5097(12) -0.2766(8) 0.0961(4)
H2F H -1.5921 -0.2151 0.0910
C4F C -1.4132(13) -0.2481(11) 0.1314(4)
H3F H -1.4334 -0.1679 0.1500
C5F C -1.2926(13) -0.3335(10) 0.1389(3)
H4F H -1.2291 -0.3115 0.1623
C6F C -1.2623(10) -0.4553(8) 0.1118(2)
C7F C -1.1424(10) -0.5502(9) 0.1176(3)
H5F H -1.0760 -0.5338 0.1406
C8F C -1.1203(9) -0.6665(9) 0.0901(2)
H6F H -1.0388 -0.7304 0.0937
C9F C -1.2214(7) -0.6884(7) 0.0566(2)
C10F C -1.2050(9) -0.8128(9) 0.0250(3)
C11F C -1.0799(8) -1.0447(7) 0.0066(3)
H7F H -1.1415 -1.0365 -0.0199
C12F C -1.1233(10) -1.1824(10) 0.0302(3)
H8F H -1.2305 -1.1810 0.0354
H9F H -1.0735 -1.1845 0.0585
C13F C -1.0835(11) -1.3212(10) 0.0051(4)
H10F H -1.1404 -1.3249 -0.0220
H11F H -1.1086 -1.4090 0.0224
N1F N -1.3339(7) -0.6023(6) 0.05033(19)
N2F N -1.1109(7) -0.9187(7) 0.0343(2)
H12F H -1.0628 -0.9124 0.0588
O1F O -1.2765(8) -0.8113(7) -0.0084(2)
Ag1_2 Ag -1.5000 -0.65819(10) 0.0000
N1F_2 N -0.3339(7) -0.6023(6) 0.05033(19)
O1F_2 O -0.2765(8) -0.8113(7) -0.0084(2)
N3 N -1.0766(7) -1.0766(7) -0.1250
O2 O -1.1768(12) -1.0746(18) -0.0997(3)
O3 O -0.9829(7) -0.9829(7) -0.1250
O2E O -1.0746(18) -1.1768(12) -0.1503(3)
loop_
_geom_bond_atom_site_label_1
_geom_bond_atom_site_label_2
_geom_bond_site_symmetry_1
_geom_bond_site_symmetry_2
Ag1 N1 1_555 1_555
C1 C2 1_555 1_555
C2 H1 1_555 1_555
C3 C2 1_555 1_555
H2 C3 1_555 1_555
C4 C3 1_555 1_555
H3 C4 1_555 1_555
C5 C4 1_555 1_555
H4 C5 1_555 1_555
C6 C1 1_555 1_555
C7 C6 1_555 1_555
H5 C7 1_555 1_555
C8 C7 1_555 1_555
H6 C8 1_555 1_555
C9 C8 1_555 1_555
C10 C9 1_555 1_555
C11 H7 1_555 1_555
C12 C11 1_555 1_555
H8 C12 1_555 1_555
H9 C12 1_555 1_555
C13 C12 1_555 1_555
H10 C13 1_555 1_555
H11 C13 1_555 1_555
N1 C1 1_555 1_555
N2 C10 1_555 1_555
H12 N2 1_555 1_555
O1 Ag1 1_555 1_555
N3 O2 1_555 1_555
O3 N3 1_555 1_555
C1F C2F 1_555 1_555
C2F H1F 1_555 1_555
C3F C2F 1_555 1_555
H2F C3F 1_555 1_555
C4F C3F 1_555 1_555
H3F C4F 1_555 1_555
C5F C4F 1_555 1_555
H4F C5F 1_555 1_555
C6F C1F 1_555 1_555
C7F C6F 1_555 1_555
H5F C7F 1_555 1_555
C8F C7F 1_555 1_555
H6F C8F 1_555 1_555
C9F C8F 1_555 1_555
C10F C9F 1_555 1_555
C11F C11 1_555 1_555
H7F C11F 1_555 1_555
C12F C11F 1_555 1_555
H8F C12F 1_555 1_555
H9F C12F 1_555 1_555
C13F C13 1_555 1_555
H10F C13F 1_555 1_555
H11F C13F 1_555 1_555
N1F C1F 1_555 1_555
N2F C10F 1_555 1_555
H12F N2F 1_555 1_555
O1F C10F 1_555 1_555
Ag1_2 N1F 1_555 1_555
N1F_2 Ag1 1_555 1_555
O1F_2 Ag1 1_555 1_555
O2E N3 1_555 1_555
C5 C6 1_555 1_555
C9 N1 1_555 1_555
C10 O1 1_555 1_555
C11 N2 1_555 1_555
C5F C6F 1_555 1_555
C9F N1F 1_555 1_555
C11F N2F 1_555 1_555
C12F C13F 1_555 1_555
O1F Ag1_2 1_555 1_555

#END
