
#######################################################################
#
#                 Cambridge Crystallographic Data Centre
#                                CCDC 
#
#######################################################################
#
# If this CIF has been generated from an entry in the Cambridge 
# Structural Database, then it will include bibliographic, chemical, 
# crystal, experimental, refinement or atomic coordinate data resulting 
# from the CCDC's data processing and validation procedures.
#
#######################################################################

data_LULGIJ
_symmetry_cell_setting           monoclinic
_symmetry_space_group_name_H-M   'P 21/c'
_symmetry_Int_Tables_number      14
_space_group_name_Hall           '-P 2ybc'
loop_
_symmetry_equiv_pos_site_id
_symmetry_equiv_pos_as_xyz
1 x,y,z
2 -x,1/2+y,1/2-z
3 -x,-y,-z
4 x,1/2-y,1/2+z
_cell_length_a                   5.290(2)
_cell_length_b                   10.744(5)
_cell_length_c                   10.772(5)
_cell_angle_alpha                90
_cell_angle_beta                 90.285(8)
_cell_angle_gamma                90
_cell_volume                     612.227
loop_
_atom_site_label
_atom_site_type_symbol
_atom_site_fract_x
_atom_site_fract_y
_atom_site_fract_z
Cd1 Cd 0.5000 0.5000 0.0000
N1 N 0.0793(7) 0.4603(4) 0.0353(4)
N2 N 0.3945(8) 0.1132(4) 0.3061(4)
O1 O -0.2704(6) 0.3323(3) 0.0623(3)
C1 C -0.0386(8) 0.3615(4) 0.0775(4)
C2 C 0.1182(8) 0.2754(4) 0.1550(4)
C3 C 0.2828(9) 0.3203(5) 0.2455(5)
H1 H 0.3040 0.4055 0.2565
C4 C 0.4146(10) 0.2366(5) 0.3189(5)
H2 H 0.5221 0.2677 0.3800
C5 C 0.2357(11) 0.0711(5) 0.2185(6)
H3 H 0.2205 -0.0145 0.2086
C6 C 0.0937(10) 0.1467(5) 0.1423(5)
H4 H -0.0161 0.1128 0.0836
Cd1A Cd 0.5000 0.0000 0.5000
Cd1_2 Cd -0.5000 0.5000 0.0000
Cd1A_2 Cd -0.5000 1.0000 -0.5000
N1B N -0.0793(7) 0.5397(4) -0.0353(4)
N1B_2 N 0.9207(7) 0.5397(4) -0.0353(4)
N2B N -0.3945(8) 0.8868(4) -0.3061(4)
N2A N 0.6055(8) 0.6132(4) 0.1939(4)
N2C N 0.3945(8) 0.3868(4) -0.1939(4)
O1B O 0.2704(6) 0.6677(3) -0.0623(3)
O1_2 O 0.7296(6) 0.3323(3) 0.0623(3)
C1B C 0.0386(8) 0.6385(4) -0.0775(4)
C2B C -0.1182(8) 0.7246(4) -0.1550(4)
C3B C -0.2828(9) 0.6797(5) -0.2455(5)
H1B H -0.3040 0.5945 -0.2565
C4B C -0.4146(10) 0.7634(5) -0.3189(5)
H2B H -0.5221 0.7323 -0.3800
C5B C -0.2357(11) 0.9289(5) -0.2185(6)
H3B H -0.2205 1.0145 -0.2086
C6B C -0.0937(10) 0.8533(5) -0.1423(5)
H4B H 0.0161 0.8872 -0.0836
loop_
_geom_bond_atom_site_label_1
_geom_bond_atom_site_label_2
_geom_bond_site_symmetry_1
_geom_bond_site_symmetry_2
Cd1 N1 1_555 1_555
N1 C1 1_555 1_555
N2 C4 1_555 1_555
O1 C1 1_555 1_555
C1 C2 1_555 1_555
C2 C3 1_555 1_555
C3 H1 1_555 1_555
C4 C3 1_555 1_555
H2 C4 1_555 1_555
C5 N2 1_555 1_555
H3 C5 1_555 1_555
C6 C2 1_555 1_555
H4 C6 1_555 1_555
Cd1A N2 1_555 1_555
Cd1_2 O1 1_555 1_555
Cd1A_2 N2B 1_555 1_555
N1B N1 1_555 1_555
N1B_2 Cd1 1_555 1_555
N2B C4B 1_555 1_555
N2A Cd1 1_555 1_555
N2C Cd1 1_555 1_555
O1B Cd1 1_555 1_555
O1_2 Cd1 1_555 1_555
C1B N1B 1_555 1_555
C2B C1B 1_555 1_555
C3B C2B 1_555 1_555
H1B C3B 1_555 1_555
C4B C3B 1_555 1_555
H2B C4B 1_555 1_555
C5B N2B 1_555 1_555
H3B C5B 1_555 1_555
C6B C2B 1_555 1_555
H4B C6B 1_555 1_555
C5 C6 1_555 1_555
Cd1_2 N1B 1_555 1_555
O1B C1B 1_555 1_555
C5B C6B 1_555 1_555

#END
