
#######################################################################
#
#                 Cambridge Crystallographic Data Centre
#                                CCDC 
#
#######################################################################
#
# If this CIF has been generated from an entry in the Cambridge 
# Structural Database, then it will include bibliographic, chemical, 
# crystal, experimental, refinement or atomic coordinate data resulting 
# from the CCDC's data processing and validation procedures.
#
#######################################################################

data_LULSAO
_symmetry_cell_setting           triclinic
_symmetry_space_group_name_H-M   'P -1'
_symmetry_Int_Tables_number      2
_space_group_name_Hall           '-P 1'
loop_
_symmetry_equiv_pos_site_id
_symmetry_equiv_pos_as_xyz
1 x,y,z
2 -x,-y,-z
_cell_length_a                   8.2024(16)
_cell_length_b                   8.6281(17)
_cell_length_c                   9.826(2)
_cell_angle_alpha                85.13(3)
_cell_angle_beta                 84.89(3)
_cell_angle_gamma                79.33(3)
_cell_volume                     678.993
loop_
_atom_site_label
_atom_site_type_symbol
_atom_site_fract_x
_atom_site_fract_y
_atom_site_fract_z
Co1 Co -0.28163(5) 0.78211(5) 0.58759(4)
Co2 Co 0.5000 0.5000 0.0000
Co3 Co 0.0000 1.0000 1.0000
O1 O -0.2663(2) 0.6334(2) 0.4239(2)
O2 O -0.1102(2) 0.5701(2) 0.2305(2)
O3 O 0.2471(2) 0.4010(2) 0.2580(2)
O4 O 0.3145(2) 0.6128(2) 0.1377(2)
O5 O 0.4733(2) 0.7995(2) 0.6470(2)
O6 O 0.3451(2) 1.0378(2) 0.57112(19)
O7 O 0.0704(2) 0.9542(2) 0.7856(2)
O8 O -0.1749(2) 0.9129(2) 0.7227(2)
O9 O 0.6612(3) 0.4089(3) 0.1544(2)
H1 H 0.626(4) 0.342(3) 0.214(2)
H2 H 0.716(4) 0.471(3) 0.185(3)
O10 O 0.5899(3) 0.7075(3) -0.0226(2)
H3 H 0.591(4) 0.767(3) 0.040(2)
H4 H 0.663(3) 0.708(4) -0.089(2)
O11 O -0.2429(3) 1.0717(2) 0.9552(2)
H5 H -0.255(4) 1.1704(13) 0.930(3)
H6 H -0.265(4) 1.014(2) 0.895(2)
O12 O 0.0262(3) 1.2413(3) 0.9931(2)
H7 H 0.056(4) 1.283(3) 0.9155(17)
H8 H -0.050(3) 1.297(3) 1.042(2)
N1 N -0.0371(3) 0.7581(3) 0.5169(2)
C1 C -0.1338(3) 0.6213(3) 0.3489(3)
C2 C 0.0125(3) 0.6754(3) 0.4067(3)
C3 C 0.1778(3) 0.6501(3) 0.3563(3)
C4 C 0.2886(4) 0.7215(3) 0.4196(3)
H9 H 0.4024 0.7081 0.3864
C5 C 0.2323(3) 0.8120(3) 0.5310(3)
C6 C 0.0665(4) 0.8251(3) 0.5801(3)
C7 C -0.0180(4) 0.9050(3) 0.7074(3)
C8 C 0.2495(3) 0.5445(3) 0.2421(3)
C9 C 0.3575(3) 0.8925(3) 0.5882(3)
Co1A Co 0.28163(5) 0.21789(5) 0.41241(4)
O1A O 0.2663(2) 0.3666(2) 0.5761(2)
O2A O 0.1102(2) 0.4299(2) 0.7695(2)
O3A O -0.2471(2) 0.5990(2) 0.7420(2)
O4A O -0.3145(2) 0.3872(2) 0.8623(2)
O5A O -0.4733(2) 0.2005(2) 0.3530(2)
O6A O -0.3451(2) -0.0378(2) 0.42888(19)
O7A O -0.0704(2) 0.0458(2) 0.2144(2)
O8A O 0.1749(2) 0.0871(2) 0.2773(2)
N1A N 0.0371(3) 0.2419(3) 0.4831(2)
C1A C 0.1338(3) 0.3787(3) 0.6511(3)
C2A C -0.0125(3) 0.3246(3) 0.5933(3)
C3A C -0.1778(3) 0.3499(3) 0.6437(3)
C4A C -0.2886(4) 0.2785(3) 0.5804(3)
H9A H -0.4024 0.2919 0.6136
C5A C -0.2323(3) 0.1880(3) 0.4690(3)
C6A C -0.0665(4) 0.1749(3) 0.4199(3)
C7A C 0.0180(4) 0.0950(3) 0.2926(3)
C8A C -0.2495(3) 0.4555(3) 0.7579(3)
C9A C -0.3575(3) 0.1075(3) 0.4118(3)
O9A O 0.3388(3) 0.5911(3) -0.1544(2)
H1A H 0.374(4) 0.658(3) -0.214(2)
H2A H 0.284(4) 0.529(3) -0.185(3)
O10A O 0.4101(3) 0.2925(3) 0.0226(2)
H3A H 0.409(4) 0.233(3) -0.040(2)
H4A H 0.337(3) 0.292(4) 0.089(2)
O11A O 0.2429(3) 0.9283(2) 1.0448(2)
H5A H 0.255(4) 0.8296(13) 1.070(3)
H6A H 0.265(4) 0.986(2) 1.105(2)
O12A O -0.0262(3) 0.7587(3) 1.0069(2)
H7A H -0.056(4) 0.717(3) 1.0845(17)
H8A H 0.050(3) 0.703(3) 0.958(2)
Co1_2 Co -0.28163(5) -0.21789(5) 0.58759(4)
Co1_3 Co 0.71837(5) 0.78211(5) 0.58759(4)
Co1A_2 Co -0.71837(5) 0.21789(5) 0.41241(4)
Co1A_3 Co 0.28163(5) 1.21789(5) 0.41241(4)
Co2_2 Co -0.5000 0.5000 1.0000
Co3_2 Co 0.0000 0.0000 0.0000
O4A_2 O 0.6855(2) 0.3872(2) -0.1377(2)
O5_2 O -0.5267(2) 0.7995(2) 0.6470(2)
O5A_2 O 0.5267(2) 0.2005(2) 0.3530(2)
O6_2 O 0.3451(2) 0.0378(2) 0.57112(19)
O6A_2 O -0.3451(2) 0.9622(2) 0.42888(19)
O7A_2 O -0.0704(2) 1.0458(2) 1.2144(2)
O13 O 0.4312(3) 0.0883(3) 0.8345(2)
H10 H 0.400(4) 0.007(3) 0.881(3)
H11 H 0.395(4) 0.099(4) 0.7526(16)
loop_
_geom_bond_atom_site_label_1
_geom_bond_atom_site_label_2
_geom_bond_site_symmetry_1
_geom_bond_site_symmetry_2
Co1 O1 1_555 1_555
Co2 O4 1_555 1_555
Co3 O7 1_555 1_555
O1 C1 1_555 1_555
O2 C1 1_555 1_555
O3 C8 1_555 1_555
O4 C8 1_555 1_555
O5 C9 1_555 1_555
O6 C9 1_555 1_555
O7 C7 1_555 1_555
O8 Co1 1_555 1_555
O9 Co2 1_555 1_555
H1 O9 1_555 1_555
H2 O9 1_555 1_555
O10 Co2 1_555 1_555
H3 O10 1_555 1_555
H4 O10 1_555 1_555
O11 Co3 1_555 1_555
H5 O11 1_555 1_555
H6 O11 1_555 1_555
O12 Co3 1_555 1_555
H7 O12 1_555 1_555
H8 O12 1_555 1_555
N1 Co1 1_555 1_555
C1 C2 1_555 1_555
C2 N1 1_555 1_555
C3 C2 1_555 1_555
C4 C3 1_555 1_555
H9 C4 1_555 1_555
C5 C4 1_555 1_555
C6 N1 1_555 1_555
C7 O8 1_555 1_555
C8 C3 1_555 1_555
C9 C5 1_555 1_555
O13 H10 1_555 1_555
H11 O13 1_555 1_555
Co1A O3 1_555 1_555
O1A Co1A 1_555 1_555
O2A C1A 1_555 1_555
O3A Co1 1_555 1_555
O4A C8A 1_555 1_555
O5A C9A 1_555 1_555
O6A C9A 1_555 1_555
O7A C7A 1_555 1_555
O8A Co1A 1_555 1_555
N1A Co1A 1_555 1_555
C1A O1A 1_555 1_555
C2A N1A 1_555 1_555
C3A C2A 1_555 1_555
C4A C3A 1_555 1_555
H9A C4A 1_555 1_555
C5A C4A 1_555 1_555
C6A N1A 1_555 1_555
C7A O8A 1_555 1_555
C8A O3A 1_555 1_555
C9A C5A 1_555 1_555
O9A Co2 1_555 1_555
H1A O9A 1_555 1_555
H2A O9A 1_555 1_555
O10A Co2 1_555 1_555
H3A O10A 1_555 1_555
H4A O10A 1_555 1_555
O11A Co3 1_555 1_555
H5A O11A 1_555 1_555
H6A O11A 1_555 1_555
O12A Co3 1_555 1_555
H7A O12A 1_555 1_555
H8A O12A 1_555 1_555
Co1_2 O6A 1_555 1_555
Co1_3 O5 1_555 1_555
Co1A_2 O5A 1_555 1_555
Co1A_3 O6 1_555 1_555
Co2_2 O4A 1_555 1_555
Co3_2 O7A 1_555 1_555
O4A_2 Co2 1_555 1_555
O5_2 Co1 1_555 1_555
O5A_2 Co1A 1_555 1_555
O6_2 Co1A 1_555 1_555
O6A_2 Co1 1_555 1_555
O7A_2 Co3 1_555 1_555
C5 C6 1_555 1_555
C6 C7 1_555 1_555
C1A C2A 1_555 1_555
C3A C8A 1_555 1_555
C5A C6A 1_555 1_555
C6A C7A 1_555 1_555

#END
