
#######################################################################
#
#                 Cambridge Crystallographic Data Centre
#                                CCDC 
#
#######################################################################
#
# If this CIF has been generated from an entry in the Cambridge 
# Structural Database, then it will include bibliographic, chemical, 
# crystal, experimental, refinement or atomic coordinate data resulting 
# from the CCDC's data processing and validation procedures.
#
#######################################################################

data_LULSES
_symmetry_cell_setting           triclinic
_symmetry_space_group_name_H-M   'P -1'
_symmetry_Int_Tables_number      2
_space_group_name_Hall           '-P 1'
loop_
_symmetry_equiv_pos_site_id
_symmetry_equiv_pos_as_xyz
1 x,y,z
2 -x,-y,-z
_cell_length_a                   6.5253(13)
_cell_length_b                   8.8485(18)
_cell_length_c                   11.236(2)
_cell_angle_alpha                92.79(3)
_cell_angle_beta                 106.82(3)
_cell_angle_gamma                92.51(3)
_cell_volume                     619.128
loop_
_atom_site_label
_atom_site_type_symbol
_atom_site_fract_x
_atom_site_fract_y
_atom_site_fract_z
Mn1 Mn 0.62948(5) 1.26071(4) 0.17147(3)
Mn2 Mn 1.18716(5) 0.77708(4) 0.27368(3)
O1 O 0.6929(2) 1.10587(18) 0.32439(13)
O2 O 0.7192(2) 1.23385(18) 0.50681(13)
O3 O 0.8189(2) 1.03438(18) 0.86794(13)
O4 O 0.7227(2) 0.78995(18) 0.87803(13)
O5 O 1.0720(2) 0.60237(18) 0.81117(13)
O6 O 0.7796(2) 0.46854(18) 0.69190(13)
O7 O 0.8471(2) 0.80135(19) 0.25418(13)
O8 O 0.5066(2) 0.76881(19) 0.24946(13)
O9 O 0.7256(2) 1.06311(19) 0.09029(13)
H1 H 0.7475 0.9859 0.1331
H2 H 0.7479 1.0540 0.0193
O10 O 0.5538(3) 1.3539(2) -0.00956(15)
H3 H 0.6423 1.3257 -0.0475
H4 H 0.4275 1.3223 -0.0517
O11 O 0.6145(2) 1.42590(18) 0.32059(13)
H5 H 0.6451 1.3715 0.3837
H6 H 0.5023 1.4762 0.3140
O12 O 1.0381(2) 0.65947(19) 0.08071(13)
H7 H 0.9532 0.7127 0.0299
H8 H 0.9823 0.5763 0.0961
N1 N 0.7722(3) 0.9855(2) 0.62731(15)
C1 C 0.7178(3) 1.1147(3) 0.43970(19)
C2 C 0.7509(3) 0.9693(3) 0.50449(18)
C3 C 0.7572(3) 0.8275(3) 0.44598(18)
C4 C 0.8062(3) 0.7053(3) 0.51958(18)
H9 H 0.8219 0.6091 0.4828
C5 C 0.8327(3) 0.7227(3) 0.64720(18)
C6 C 0.8050(3) 0.8662(2) 0.69628(17)
C7 C 0.7847(3) 0.8991(3) 0.82599(17)
C8 C 0.8989(3) 0.5885(2) 0.72417(17)
C9 C 0.7013(3) 0.8008(2) 0.30616(18)
Mn1A Mn 0.37052(5) 0.73929(4) 0.82853(3)
Mn1A_2 Mn 1.37052(5) 0.73929(4) 0.82853(3)
Mn2_2 Mn 0.18716(5) 0.77708(4) 0.27368(3)
Mn2A Mn 0.81284(5) 0.22292(4) 0.72632(3)
Mn2A_2 Mn 0.81284(5) 1.22292(4) 0.72632(3)
O2A O 1.2808(2) 0.76615(18) 0.49319(13)
O3A O 1.1811(2) 0.96562(18) 0.13206(13)
O4A O 0.2773(2) 1.21005(18) 0.12197(13)
O5A O 0.9280(2) 1.39763(18) 0.18883(13)
O6A O 1.2204(2) 0.53146(18) 0.30810(13)
O8_2 O 1.5066(2) 0.76881(19) 0.24946(13)
N1A N 1.2278(3) 1.0145(2) 0.37269(15)
loop_
_geom_bond_atom_site_label_1
_geom_bond_atom_site_label_2
_geom_bond_site_symmetry_1
_geom_bond_site_symmetry_2
Mn1 O1 1_555 1_555
Mn2 O7 1_555 1_555
O1 C1 1_555 1_555
O2 C1 1_555 1_555
O3 C7 1_555 1_555
O4 C7 1_555 1_555
O5 C8 1_555 1_555
O6 C8 1_555 1_555
O7 C9 1_555 1_555
O8 C9 1_555 1_555
O9 Mn1 1_555 1_555
H1 O9 1_555 1_555
H2 O9 1_555 1_555
O10 Mn1 1_555 1_555
H3 O10 1_555 1_555
H4 O10 1_555 1_555
O11 Mn1 1_555 1_555
H5 O11 1_555 1_555
H6 O11 1_555 1_555
O12 Mn2 1_555 1_555
H7 O12 1_555 1_555
H8 O12 1_555 1_555
N1 C2 1_555 1_555
C1 C2 1_555 1_555
C2 C3 1_555 1_555
C3 C4 1_555 1_555
C4 H9 1_555 1_555
C5 C4 1_555 1_555
C6 N1 1_555 1_555
C7 C6 1_555 1_555
C8 C5 1_555 1_555
C9 C3 1_555 1_555
Mn1A O4 1_555 1_555
Mn1A_2 O5 1_555 1_555
Mn2_2 O8 1_555 1_555
Mn2A O6 1_555 1_555
Mn2A_2 O2 1_555 1_555
O2A Mn2 1_555 1_555
O3A Mn2 1_555 1_555
O4A Mn1 1_555 1_555
O5A Mn1 1_555 1_555
O6A Mn2 1_555 1_555
O8_2 Mn2 1_555 1_555
N1A Mn2 1_555 1_555
O3 Mn2A_2 1_555 1_555
N1 Mn2A_2 1_555 1_555
C5 C6 1_555 1_555

#END
