
#######################################################################
#
#                 Cambridge Crystallographic Data Centre
#                                CCDC 
#
#######################################################################
#
# If this CIF has been generated from an entry in the Cambridge 
# Structural Database, then it will include bibliographic, chemical, 
# crystal, experimental, refinement or atomic coordinate data resulting 
# from the CCDC's data processing and validation procedures.
#
#######################################################################

data_LULWUM
_symmetry_cell_setting           monoclinic
_symmetry_space_group_name_H-M   'P 21/n'
_symmetry_Int_Tables_number      14
_space_group_name_Hall           '-P 2yn'
loop_
_symmetry_equiv_pos_site_id
_symmetry_equiv_pos_as_xyz
1 x,y,z
2 1/2-x,1/2+y,1/2-z
3 -x,-y,-z
4 1/2+x,1/2-y,1/2+z
_cell_length_a                   9.1087(18)
_cell_length_b                   14.849(3)
_cell_length_c                   10.894(2)
_cell_angle_alpha                90
_cell_angle_beta                 105.38(3)
_cell_angle_gamma                90
_cell_volume                     1420.7
loop_
_atom_site_label
_atom_site_type_symbol
_atom_site_fract_x
_atom_site_fract_y
_atom_site_fract_z
Zn1 Zn 0.35895(4) -0.00331(3) 0.39134(3)
N1 N 0.1475(3) -0.0174(2) 0.2725(3)
O1 O 0.4510(3) 0.1021(2) 0.3159(3)
O2 O 0.6531(3) 0.1048(2) 0.4827(3)
O3 O 0.8115(3) 0.4153(2) 0.0188(3)
O4 O 1.0158(3) 0.4109(2) 0.1837(2)
C1 C 0.0347(5) 0.0350(3) 0.2872(5)
H1 H 0.0562 0.0769 0.3543
C2 C -0.1108(5) 0.0313(4) 0.2099(5)
H2 H -0.1855 0.0704 0.2247
C3 C -0.1487(4) -0.0297(3) 0.1102(3)
C4 C -0.0305(4) -0.0845(3) 0.0952(3)
H3 H -0.0489 -0.1271 0.0289
C5 C 0.1124(4) -0.0768(3) 0.1765(3)
H4 H 0.1896 -0.1150 0.1642
C6 C -0.3003(4) -0.0346(3) 0.0228(4)
H5 H -0.3110 -0.0665 -0.0536
C7 C -0.4260(4) 0.0030(3) 0.0432(4)
H6 H -0.4158 0.0352 0.1193
C8 C 0.6546(4) 0.2000(2) 0.3112(3)
C9 C 0.5832(4) 0.2324(3) 0.1915(4)
H7 H 0.4838 0.2135 0.1503
C10 C 0.6583(4) 0.2929(3) 0.1319(4)
H8 H 0.6091 0.3148 0.0504
C11 C 0.8052(4) 0.3212(2) 0.1915(3)
C12 C 0.8760(4) 0.2888(3) 0.3119(3)
H9 H 0.9752 0.3076 0.3534
C13 C 0.8008(4) 0.2286(3) 0.3710(3)
H10 H 0.8496 0.2070 0.4528
C14 C 0.5800(4) 0.1307(2) 0.3754(3)
C15 C 0.8841(4) 0.3872(3) 0.1263(3)
N1B N -1.1475(3) 0.0174(2) -0.2725(3)
C1B C -1.0347(5) -0.0350(3) -0.2872(5)
H1B H -1.0562 -0.0769 -0.3543
C2B C -0.8892(5) -0.0313(4) -0.2099(5)
H2B H -0.8145 -0.0704 -0.2247
C3B C -0.8513(4) 0.0297(3) -0.1102(3)
C4B C -0.9695(4) 0.0845(3) -0.0952(3)
H3B H -0.9511 0.1271 -0.0289
C5B C -1.1124(4) 0.0768(3) -0.1765(3)
H4B H -1.1896 0.1150 -0.1642
C6B C -0.6997(4) 0.0346(3) -0.0228(4)
H5B H -0.6890 0.0665 0.0536
C7B C -0.5740(4) -0.0030(3) -0.0432(4)
H6B H -0.5842 -0.0352 -0.1193
Zn1B Zn -1.35895(4) 0.00331(3) -0.39134(3)
O1B O -1.4510(3) -0.1021(2) -0.3159(3)
O2B O -1.6531(3) -0.1048(2) -0.4827(3)
O3B O -1.8115(3) -0.4153(2) -0.0188(3)
O4B O -2.0158(3) -0.4109(2) -0.1837(2)
C8B C -1.6546(4) -0.2000(2) -0.3112(3)
C9B C -1.5832(4) -0.2324(3) -0.1915(4)
H7B H -1.4838 -0.2135 -0.1503
C10B C -1.6583(4) -0.2929(3) -0.1319(4)
H8B H -1.6091 -0.3148 -0.0504
C11B C -1.8052(4) -0.3212(2) -0.1915(3)
C12B C -1.8760(4) -0.2888(3) -0.3119(3)
H9B H -1.9752 -0.3076 -0.3534
C13B C -1.8008(4) -0.2286(3) -0.3710(3)
H10B H -1.8496 -0.2070 -0.4528
C14B C -1.5800(4) -0.1307(2) -0.3754(3)
C15B C -1.8841(4) -0.3872(3) -0.1263(3)
Zn1_2 Zn -1.64105(4) -0.00331(3) -0.60866(3)
Zn1A Zn -1.85895(4) -0.50331(3) 0.10866(3)
Zn1A_2 Zn 1.14105(4) 0.49669(3) 0.10866(3)
Zn1B_2 Zn 0.64105(4) 0.00331(3) 0.60866(3)
Zn1C Zn -2.14105(4) -0.49669(3) -0.10866(3)
Zn1C_2 Zn 0.85895(4) 0.50331(3) -0.10866(3)
O2_2 O -1.3469(3) 0.1048(2) -0.5173(3)
O2B_2 O 0.3469(3) -0.1048(2) 0.5173(3)
O3A O -1.3115(3) -0.0847(2) -0.5188(3)
O3C O 0.3115(3) 0.0847(2) 0.5188(3)
O4A O 0.4842(3) -0.0891(2) 0.3163(2)
O4C O -1.4842(3) 0.0891(2) -0.3163(2)
O5 O 0.1780(7) 0.2148(4) 0.1681(6)
H11 H 0.1581 0.2568 0.1130
H12 H 0.2301 0.2067 0.2445
loop_
_geom_bond_atom_site_label_1
_geom_bond_atom_site_label_2
_geom_bond_site_symmetry_1
_geom_bond_site_symmetry_2
Zn1 N1 1_555 1_555
N1 C1 1_555 1_555
O1 Zn1 1_555 1_555
O2 C14 1_555 1_555
O3 C15 1_555 1_555
O4 C15 1_555 1_555
C1 H1 1_555 1_555
C2 C1 1_555 1_555
H2 C2 1_555 1_555
C3 C2 1_555 1_555
C4 C3 1_555 1_555
H3 C4 1_555 1_555
C5 N1 1_555 1_555
H4 C5 1_555 1_555
C6 C3 1_555 1_555
H5 C6 1_555 1_555
C7 C6 1_555 1_555
H6 C7 1_555 1_555
C8 C9 1_555 1_555
C9 H7 1_555 1_555
C10 C9 1_555 1_555
H8 C10 1_555 1_555
C11 C10 1_555 1_555
C12 C11 1_555 1_555
H9 C12 1_555 1_555
C13 C8 1_555 1_555
H10 C13 1_555 1_555
C14 O1 1_555 1_555
C15 C11 1_555 1_555
O5 H11 1_555 1_555
H12 O5 1_555 1_555
N1B C1B 1_555 1_555
C1B H1B 1_555 1_555
C2B C1B 1_555 1_555
H2B C2B 1_555 1_555
C3B C2B 1_555 1_555
C4B C3B 1_555 1_555
H3B C4B 1_555 1_555
C5B N1B 1_555 1_555
H4B C5B 1_555 1_555
C6B C3B 1_555 1_555
H5B C6B 1_555 1_555
C7B C7 1_555 1_555
H6B C7B 1_555 1_555
Zn1B N1B 1_555 1_555
O1B Zn1B 1_555 1_555
O2B C14B 1_555 1_555
O3B C15B 1_555 1_555
O4B C15B 1_555 1_555
C8B C9B 1_555 1_555
C9B H7B 1_555 1_555
C10B C9B 1_555 1_555
H8B C10B 1_555 1_555
C11B C10B 1_555 1_555
C12B C11B 1_555 1_555
H9B C12B 1_555 1_555
C13B C8B 1_555 1_555
H10B C13B 1_555 1_555
C14B O1B 1_555 1_555
C15B C11B 1_555 1_555
Zn1_2 O2B 1_555 1_555
Zn1A O3B 1_555 1_555
Zn1A_2 O4 1_555 1_555
Zn1B_2 O2 1_555 1_555
Zn1C O4B 1_555 1_555
Zn1C_2 O3 1_555 1_555
O2_2 Zn1B 1_555 1_555
O2B_2 Zn1 1_555 1_555
O3A Zn1B 1_555 1_555
O3C Zn1 1_555 1_555
O4A Zn1 1_555 1_555
O4C Zn1B 1_555 1_555
C4 C5 1_555 1_555
C8 C14 1_555 1_555
C12 C13 1_555 1_555
C4B C5B 1_555 1_555
C6B C7B 1_555 1_555
C8B C14B 1_555 1_555
C12B C13B 1_555 1_555

#END
