
#######################################################################
#
#                 Cambridge Crystallographic Data Centre
#                                CCDC 
#
#######################################################################
#
# If this CIF has been generated from an entry in the Cambridge 
# Structural Database, then it will include bibliographic, chemical, 
# crystal, experimental, refinement or atomic coordinate data resulting 
# from the CCDC's data processing and validation procedures.
#
#######################################################################

data_LULXEX
_symmetry_cell_setting           monoclinic
_symmetry_space_group_name_H-M   'C 2/c'
_symmetry_Int_Tables_number      15
_space_group_name_Hall           '-C 2yn'
loop_
_symmetry_equiv_pos_site_id
_symmetry_equiv_pos_as_xyz
1 x,y,z
2 -x,y,1/2-z
3 1/2+x,1/2+y,z
4 1/2-x,1/2+y,1/2-z
5 -x,-y,-z
6 x,-y,1/2+z
7 1/2-x,1/2-y,-z
8 1/2+x,1/2-y,1/2+z
_cell_length_a                   29.425(6)
_cell_length_b                   7.7142(15)
_cell_length_c                   16.062(3)
_cell_angle_alpha                90
_cell_angle_beta                 106.04(3)
_cell_angle_gamma                90
_cell_volume                     3503.98
loop_
_atom_site_label
_atom_site_type_symbol
_atom_site_fract_x
_atom_site_fract_y
_atom_site_fract_z
Zn1 Zn 0.67550(2) 0.74819(6) 0.69098(3)
N1 N 0.61892(15) 0.6029(5) 0.6272(3)
N2 N 0.73393(14) 0.6291(5) 0.6648(2)
H1 H 0.7355 0.6112 0.7190
H2 H 0.7411 0.7303 0.6481
O1 O 0.68719(12) -0.0003(4) 0.68237(19)
O2 O 0.66955(14) -0.0959(4) 0.5487(2)
O3 O 0.70474(13) 0.5565(4) 0.3359(2)
O4 O 0.67862(13) 0.2852(4) 0.3127(2)
C1 C 0.5979(2) 0.6141(8) 0.5432(4)
H3 H 0.6043 0.7108 0.5127
C2 C 0.5671(3) 0.4907(11) 0.4987(5)
H4 H 0.5532 0.5046 0.4389
C3 C 0.5562(2) 0.3478(9) 0.5396(4)
C4 C 0.5784(3) 0.3354(9) 0.6270(4)
H5 H 0.5730 0.2386 0.6585
C5 C 0.6082(2) 0.4630(9) 0.6675(4)
H6 H 0.6221 0.4526 0.7275
C6 C 0.5249(3) 0.2143(11) 0.4921(5)
H7 H 0.5097 0.2363 0.4334
C7 C 0.5158(3) 0.0652(10) 0.5239(5)
H8 H 0.5312 0.0420 0.5824
C8 C 0.71955(15) 0.4912(6) 0.6027(3)
C9 C 0.70836(16) 0.3320(6) 0.6305(3)
H9 H 0.7117 0.3138 0.6897
C10 C 0.69237(16) 0.1991(6) 0.5724(3)
C11 C 0.68728(16) 0.2279(5) 0.4837(3)
H10 H 0.6764 0.1384 0.4434
C12 C 0.69829(16) 0.3876(6) 0.4563(3)
C13 C 0.71431(15) 0.5198(6) 0.5151(3)
H11 H 0.7216 0.6287 0.4959
C14 C 0.68208(15) 0.0236(6) 0.6015(3)
C15 C 0.69370(16) 0.4157(6) 0.3613(3)
N1D N 0.38108(15) -0.6029(5) 0.3728(3)
C1D C 0.4021(2) -0.6141(8) 0.4568(4)
H3D H 0.3957 -0.7108 0.4873
C2D C 0.4329(3) -0.4907(11) 0.5013(5)
H4D H 0.4468 -0.5046 0.5611
C3D C 0.4438(2) -0.3478(9) 0.4604(4)
C4D C 0.4216(3) -0.3354(9) 0.3730(4)
H5D H 0.4270 -0.2386 0.3415
C5D C 0.3918(2) -0.4630(9) 0.3325(4)
H6D H 0.3779 -0.4526 0.2725
C6D C 0.4751(3) -0.2143(11) 0.5079(5)
H7D H 0.4903 -0.2363 0.5666
C7D C 0.4842(3) -0.0652(10) 0.4761(5)
H8D H 0.4688 -0.0420 0.4176
Zn1D Zn 0.32450(2) -0.74819(6) 0.30902(3)
N2D N 0.26607(14) -0.6291(5) 0.3352(2)
H1D H 0.2645 -0.6112 0.2810
H2D H 0.2589 -0.7303 0.3519
O1D O 0.31281(12) 0.0003(4) 0.31763(19)
O2D O 0.33045(14) 0.0959(4) 0.4513(2)
O3D O 0.29526(13) -0.5565(4) 0.6641(2)
O4D O 0.32138(13) -0.2852(4) 0.6873(2)
C8D C 0.28045(15) -0.4912(6) 0.3973(3)
C9D C 0.29164(16) -0.3320(6) 0.3695(3)
H9D H 0.2883 -0.3138 0.3103
C10D C 0.30763(16) -0.1991(6) 0.4276(3)
C11D C 0.31272(16) -0.2279(5) 0.5163(3)
H10D H 0.3236 -0.1384 0.5566
C12D C 0.30171(16) -0.3876(6) 0.5437(3)
C13D C 0.28569(15) -0.5198(6) 0.4849(3)
H11D H 0.2784 -0.6287 0.5041
C14D C 0.31792(15) -0.0236(6) 0.3985(3)
C15D C 0.30630(16) -0.4157(6) 0.6387(3)
Zn1_2 Zn 0.67550(2) -0.25181(6) 0.69098(3)
Zn1A Zn 0.32450(2) -0.25181(6) 0.80902(3)
Zn1D_2 Zn 0.32450(2) 0.25181(6) 0.30902(3)
Zn1E Zn 0.67550(2) 0.25181(6) 0.19098(3)
O1_2 O 0.68719(12) 0.9997(4) 0.68237(19)
O1D_2 O 0.31281(12) -0.9997(4) 0.31763(19)
O2_2 O 0.66955(14) 0.9041(4) 0.5487(2)
O2D_2 O 0.33045(14) -0.9041(4) 0.4513(2)
O4A O 0.32138(13) -0.7148(4) 0.1873(2)
O4E O 0.67862(13) 0.7148(4) 0.8127(2)
O5 O 0.6381(3) 0.8194(11) 0.3667(5)
H12 H 0.6114 0.8589 0.3380
H13 H 0.6646 0.8661 0.3692
O6 O 0.5973(10) 0.073(3) 0.2507(19)
H14 H 0.5731 0.0857 0.2692
H15 H 0.6077 0.0807 0.2064
loop_
_geom_bond_atom_site_label_1
_geom_bond_atom_site_label_2
_geom_bond_site_symmetry_1
_geom_bond_site_symmetry_2
Zn1 N1 1_555 1_555
N1 C1 1_555 1_555
N2 Zn1 1_555 1_555
H1 N2 1_555 1_555
H2 N2 1_555 1_555
O1 C14 1_555 1_555
O2 C14 1_555 1_555
O3 C15 1_555 1_555
O4 C15 1_555 1_555
C1 H3 1_555 1_555
C2 C1 1_555 1_555
H4 C2 1_555 1_555
C3 C2 1_555 1_555
C4 C3 1_555 1_555
H5 C4 1_555 1_555
C5 N1 1_555 1_555
H6 C5 1_555 1_555
C6 C3 1_555 1_555
H7 C6 1_555 1_555
C7 C6 1_555 1_555
H8 C7 1_555 1_555
C8 N2 1_555 1_555
C9 C8 1_555 1_555
H9 C9 1_555 1_555
C10 C9 1_555 1_555
C11 C10 1_555 1_555
H10 C11 1_555 1_555
C12 C11 1_555 1_555
C13 C8 1_555 1_555
H11 C13 1_555 1_555
C14 C10 1_555 1_555
C15 C12 1_555 1_555
O5 H12 1_555 1_555
H13 O5 1_555 1_555
O6 H14 1_555 1_555
H15 O6 1_555 1_555
N1D C1D 1_555 1_555
C1D H3D 1_555 1_555
C2D C1D 1_555 1_555
H4D C2D 1_555 1_555
C3D C2D 1_555 1_555
C4D C3D 1_555 1_555
H5D C4D 1_555 1_555
C5D N1D 1_555 1_555
H6D C5D 1_555 1_555
C6D C3D 1_555 1_555
H7D C6D 1_555 1_555
C7D C7 1_555 1_555
H8D C7D 1_555 1_555
Zn1D N1D 1_555 1_555
N2D Zn1D 1_555 1_555
H1D N2D 1_555 1_555
H2D N2D 1_555 1_555
O1D C14D 1_555 1_555
O2D C14D 1_555 1_555
O3D C15D 1_555 1_555
O4D C15D 1_555 1_555
C8D N2D 1_555 1_555
C9D C8D 1_555 1_555
H9D C9D 1_555 1_555
C10D C9D 1_555 1_555
C11D C10D 1_555 1_555
H10D C11D 1_555 1_555
C12D C11D 1_555 1_555
C13D C8D 1_555 1_555
H11D C13D 1_555 1_555
C14D C10D 1_555 1_555
C15D C12D 1_555 1_555
Zn1_2 O1 1_555 1_555
Zn1A O4D 1_555 1_555
Zn1D_2 O1D 1_555 1_555
Zn1E O4 1_555 1_555
O1_2 Zn1 1_555 1_555
O1D_2 Zn1D 1_555 1_555
O2_2 Zn1 1_555 1_555
O2D_2 Zn1D 1_555 1_555
O4A Zn1D 1_555 1_555
O4E Zn1 1_555 1_555
O2 Zn1_2 1_555 1_555
C4 C5 1_555 1_555
C12 C13 1_555 1_555
C4D C5D 1_555 1_555
C6D C7D 1_555 1_555
O2D Zn1D_2 1_555 1_555
C12D C13D 1_555 1_555

#END
