
#######################################################################
#
#                 Cambridge Crystallographic Data Centre
#                                CCDC 
#
#######################################################################
#
# If this CIF has been generated from an entry in the Cambridge 
# Structural Database, then it will include bibliographic, chemical, 
# crystal, experimental, refinement or atomic coordinate data resulting 
# from the CCDC's data processing and validation procedures.
#
#######################################################################

data_LUMJIO
_symmetry_cell_setting           triclinic
_symmetry_space_group_name_H-M   'P -1'
_symmetry_Int_Tables_number      2
_space_group_name_Hall           '-P 1'
loop_
_symmetry_equiv_pos_site_id
_symmetry_equiv_pos_as_xyz
1 x,y,z
2 -x,-y,-z
_cell_length_a                   8.0916(16)
_cell_length_b                   8.921(2)
_cell_length_c                   11.404(2)
_cell_angle_alpha                82.488(12)
_cell_angle_beta                 72.910(9)
_cell_angle_gamma                85.615(13)
_cell_volume                     779.469
loop_
_atom_site_label
_atom_site_type_symbol
_atom_site_fract_x
_atom_site_fract_y
_atom_site_fract_z
Cd1 Cd -0.03732(5) 1.00569(4) 0.16900(3)
O1 O 0.2468(6) 0.8815(5) 0.1520(4)
O2 O 0.1424(6) 0.8984(5) -0.0035(4)
O3 O -0.2149(7) 0.8152(6) 0.2459(6)
O4 O -0.2938(9) 1.0067(7) 0.3312(6)
N1 N 0.0458(6) 1.2281(4) 0.1934(4)
N2 N 0.1218(5) 1.4157(5) 0.2701(4)
C1 C 0.0422(7) 1.5620(6) 0.4508(5)
H1 H 0.0885 1.6347 0.4892
H2 H -0.0461 1.6159 0.4162
C2 C 0.1874(7) 1.5041(6) 0.3466(5)
H3 H 0.2495 1.5901 0.2943
H4 H 0.2694 1.4403 0.3814
C3 C 0.1214(7) 1.2631(6) 0.2743(5)
C4 C -0.0019(7) 1.3630(6) 0.1353(5)
H5 H -0.0579 1.3729 0.0731
C5 C 0.0449(7) 1.4774(6) 0.1823(5)
H6 H 0.0278 1.5812 0.1591
C6 C 0.1946(10) 1.1526(7) 0.3563(6)
H7 H 0.1789 1.0507 0.3416
H8 H 0.1357 1.1663 0.4418
H9 H 0.3171 1.1684 0.3393
C7 C 0.4741(7) 0.6564(6) -0.0210(5)
C8 C 0.4331(8) 0.5610(7) -0.0926(5)
H10 H 0.3880 0.6021 -0.1576
C9 C 0.5436(8) 0.5933(7) 0.0712(6)
H11 H 0.5755 0.6562 0.1203
C10 C 0.4424(8) 0.8245(7) -0.0408(7)
H12 H 0.4473 0.8550 -0.1274
H13 H 0.5333 0.8758 -0.0226
C11 C 0.2667(8) 0.8724(6) 0.0417(6)
C12 C -0.4921(6) 0.6522(5) 0.4472(4)
C13 C -0.6006(6) 0.6101(5) 0.5643(4)
H14 H -0.6707 0.6844 0.6093
C14 C -0.3926(6) 0.5397(5) 0.3837(4)
H15 H -0.3190 0.5650 0.3038
C15 C -0.4951(7) 0.8158(6) 0.3907(5)
H16 H -0.5677 0.8244 0.3346
H17 H -0.5516 0.8781 0.4571
C16 C -0.3233(8) 0.8823(6) 0.3203(5)
O1A O 0.7532(6) 0.1185(5) -0.1520(4)
O2A O 0.8576(6) 0.1016(5) 0.0035(4)
C7A C 0.5259(7) 0.3436(6) 0.0210(5)
C8A C 0.5669(8) 0.4390(7) 0.0926(5)
H10A H 0.6120 0.3979 0.1576
C9A C 0.4564(8) 0.4067(7) -0.0712(6)
H11A H 0.4245 0.3438 -0.1203
C10A C 0.5576(8) 0.1755(7) 0.0408(7)
H12A H 0.5527 0.1450 0.1274
H13A H 0.4667 0.1242 0.0226
C11A C 0.7333(8) 0.1276(6) -0.0417(6)
O3A O -0.7851(7) 0.1848(6) 0.7541(6)
O4A O -0.7062(9) -0.0067(7) 0.6688(6)
C12A C -0.5079(6) 0.3478(5) 0.5528(4)
C13A C -0.3994(6) 0.3899(5) 0.4357(4)
H14A H -0.3293 0.3156 0.3907
C14A C -0.6074(6) 0.4603(5) 0.6163(4)
H15A H -0.6810 0.4350 0.6962
C15A C -0.5049(7) 0.1842(6) 0.6093(5)
H16A H -0.4323 0.1756 0.6654
H17A H -0.4484 0.1219 0.5429
C16A C -0.6767(8) 0.1177(6) 0.6797(5)
N1A N -0.0458(6) 1.7719(4) 0.8066(4)
N2A N -0.1218(5) 1.5843(5) 0.7299(4)
C1A C -0.0422(7) 1.4380(6) 0.5492(5)
H1A H -0.0885 1.3653 0.5108
H2A H 0.0461 1.3841 0.5838
C2A C -0.1874(7) 1.4959(6) 0.6534(5)
H3A H -0.2495 1.4099 0.7057
H4A H -0.2694 1.5597 0.6186
C3A C -0.1214(7) 1.7369(6) 0.7257(5)
C4A C 0.0019(7) 1.6370(6) 0.8647(5)
H5A H 0.0579 1.6271 0.9269
C5A C -0.0449(7) 1.5226(6) 0.8177(5)
H6A H -0.0278 1.4188 0.8409
C6A C -0.1946(10) 1.8474(7) 0.6437(6)
H7A H -0.1789 1.9493 0.6584
H8A H -0.1357 1.8337 0.5582
H9A H -0.3171 1.8316 0.6607
Cd1A Cd -0.96268(5) -0.00569(4) 0.83100(3)
Cd1_2 Cd 0.96268(5) 0.00569(4) 0.16900(3)
Cd1A_2 Cd 0.03732(5) 0.99431(4) -0.16900(3)
Cd1A_3 Cd 0.03732(5) 1.99431(4) 0.83100(3)
Cd1A_4 Cd 1.03732(5) -0.00569(4) -0.16900(3)
O1A_2 O -1.2468(6) 0.1185(5) 0.8480(4)
O2_2 O -0.8576(6) -0.1016(5) 0.9965(4)
O2A_2 O -1.1424(6) 0.1016(5) 1.0035(4)
O2A_3 O -0.1424(6) 1.1016(5) 0.0035(4)
N1A_2 N -1.0458(6) -0.2281(4) 0.8066(4)
loop_
_geom_bond_atom_site_label_1
_geom_bond_atom_site_label_2
_geom_bond_site_symmetry_1
_geom_bond_site_symmetry_2
Cd1 O1 1_555 1_555
O1 C11 1_555 1_555
O2 Cd1 1_555 1_555
O3 Cd1 1_555 1_555
O4 Cd1 1_555 1_555
N1 Cd1 1_555 1_555
N2 C2 1_555 1_555
C1 H1 1_555 1_555
H2 C1 1_555 1_555
C2 C1 1_555 1_555
H3 C2 1_555 1_555
H4 C2 1_555 1_555
C3 N1 1_555 1_555
C4 N1 1_555 1_555
H5 C4 1_555 1_555
C5 N2 1_555 1_555
H6 C5 1_555 1_555
C6 C3 1_555 1_555
H7 C6 1_555 1_555
H8 C6 1_555 1_555
H9 C6 1_555 1_555
C7 C8 1_555 1_555
C8 H10 1_555 1_555
C9 C7 1_555 1_555
H11 C9 1_555 1_555
C10 C7 1_555 1_555
H12 C10 1_555 1_555
H13 C10 1_555 1_555
C11 O2 1_555 1_555
C12 C13 1_555 1_555
C13 H14 1_555 1_555
C14 C12 1_555 1_555
H15 C14 1_555 1_555
C15 C12 1_555 1_555
H16 C15 1_555 1_555
H17 C15 1_555 1_555
C16 O3 1_555 1_555
O1A C11A 1_555 1_555
O2A C11A 1_555 1_555
C7A C8A 1_555 1_555
C8A C9 1_555 1_555
H10A C8A 1_555 1_555
C9A C8 1_555 1_555
H11A C9A 1_555 1_555
C10A C7A 1_555 1_555
H12A C10A 1_555 1_555
H13A C10A 1_555 1_555
C11A C10A 1_555 1_555
O3A C16A 1_555 1_555
O4A C16A 1_555 1_555
C12A C13A 1_555 1_555
C13A C14 1_555 1_555
H14A C13A 1_555 1_555
C14A C13 1_555 1_555
H15A C14A 1_555 1_555
C15A C12A 1_555 1_555
H16A C15A 1_555 1_555
H17A C15A 1_555 1_555
C16A C15A 1_555 1_555
N1A C3A 1_555 1_555
N2A C2A 1_555 1_555
C1A C1 1_555 1_555
H1A C1A 1_555 1_555
H2A C1A 1_555 1_555
C2A C1A 1_555 1_555
H3A C2A 1_555 1_555
H4A C2A 1_555 1_555
C3A N2A 1_555 1_555
C4A N1A 1_555 1_555
H5A C4A 1_555 1_555
C5A N2A 1_555 1_555
H6A C5A 1_555 1_555
C6A C3A 1_555 1_555
H7A C6A 1_555 1_555
H8A C6A 1_555 1_555
H9A C6A 1_555 1_555
Cd1A O3A 1_555 1_555
Cd1_2 O2A 1_555 1_555
Cd1A_2 O2 1_555 1_555
Cd1A_3 N1A 1_555 1_555
Cd1A_4 O1A 1_555 1_555
O1A_2 Cd1A 1_555 1_555
O2_2 Cd1A 1_555 1_555
O2A_2 Cd1A 1_555 1_555
O2A_3 Cd1 1_555 1_555
N1A_2 Cd1A 1_555 1_555
O4 C16 1_555 1_555
N2 C3 1_555 1_555
C4 C5 1_555 1_555
C10 C11 1_555 1_555
C15 C16 1_555 1_555
O2A Cd1A_4 1_555 1_555
C7A C9A 1_555 1_555
O4A Cd1A 1_555 1_555
C12A C14A 1_555 1_555
C4A C5A 1_555 1_555
Cd1A_2 O2A_3 1_555 1_555

#END
