
#######################################################################
#
#                 Cambridge Crystallographic Data Centre
#                                CCDC 
#
#######################################################################
#
# If this CIF has been generated from an entry in the Cambridge 
# Structural Database, then it will include bibliographic, chemical, 
# crystal, experimental, refinement or atomic coordinate data resulting 
# from the CCDC's data processing and validation procedures.
#
#######################################################################

data_LUMKUB
_symmetry_cell_setting           monoclinic
_symmetry_space_group_name_H-M   'P 21/c'
_symmetry_Int_Tables_number      14
_space_group_name_Hall           '-P 2ybc'
loop_
_symmetry_equiv_pos_site_id
_symmetry_equiv_pos_as_xyz
1 x,y,z
2 -x,1/2+y,1/2-z
3 -x,-y,-z
4 x,1/2-y,1/2+z
_cell_length_a                   10.359(3)
_cell_length_b                   10.271(3)
_cell_length_c                   13.661(5)
_cell_angle_alpha                90
_cell_angle_beta                 108.378(7)
_cell_angle_gamma                90
_cell_volume                     1379.36
loop_
_atom_site_label
_atom_site_type_symbol
_atom_site_fract_x
_atom_site_fract_y
_atom_site_fract_z
Cd1 Cd 1.01627(2) 0.370955(19) 0.400537(15)
O1 O 0.8464(3) 0.4849(2) 0.27351(18)
O2 O 0.9026(2) 0.5663(3) 0.42595(18)
O3 O 0.9159(2) 0.7610(2) 0.23194(18)
O4 O 0.7688(3) 0.8622(2) 0.1045(2)
N1 N 0.7841(3) 0.0510(3) 0.47167(19)
N2 N 0.9067(3) 0.1948(2) 0.42294(19)
C1 C 0.5459(3) 0.0326(4) 0.4737(3)
H1 H 0.5159 0.0099 0.4011
H2 H 0.5393 0.1264 0.4791
C2 C 0.6933(3) -0.0092(3) 0.5222(3)
H3 H 0.7232 0.0145 0.5946
H4 H 0.6992 -0.1032 0.5178
C3 C 0.8314(3) 0.1739(3) 0.4835(2)
C4 C 0.9071(4) 0.0803(3) 0.3701(3)
H5 H 0.9514 0.0670 0.3214
C5 C 0.8330(4) -0.0091(3) 0.4008(3)
H6 H 0.8178 -0.0949 0.3784
C6 C 0.8047(4) 0.2691(4) 0.5563(3)
H7 H 0.8472 0.3506 0.5506
H8 H 0.8412 0.2367 0.6255
H9 H 0.7084 0.2817 0.5400
C7 C 0.7051(3) 0.6548(3) 0.3000(2)
C8 C 0.6849(3) 0.7510(3) 0.2249(2)
C9 C 0.5613(3) 0.8163(3) 0.1919(3)
H10 H 0.5475 0.8803 0.1415
C10 C 0.4589(3) 0.7877(3) 0.2327(3)
H11 H 0.3760 0.8310 0.2091
C11 C 0.4799(4) 0.6945(4) 0.3087(3)
H12 H 0.4113 0.6753 0.3369
C12 C 0.6029(4) 0.6294(3) 0.3430(3)
H13 H 0.6172 0.5679 0.3954
C13 C 0.8282(3) 0.5667(3) 0.3342(2)
C14 C 0.7975(3) 0.7930(3) 0.1844(2)
N1B N 0.2159(3) -0.0510(3) 0.52833(19)
N2B N 0.0933(3) -0.1948(2) 0.57706(19)
C1B C 0.4541(3) -0.0326(4) 0.5263(3)
H1B H 0.4841 -0.0099 0.5989
H2B H 0.4607 -0.1264 0.5209
C2B C 0.3067(3) 0.0092(3) 0.4778(3)
H3B H 0.2768 -0.0145 0.4054
H4B H 0.3008 0.1032 0.4822
C3B C 0.1686(3) -0.1739(3) 0.5165(2)
C4B C 0.0929(4) -0.0803(3) 0.6299(3)
H5B H 0.0486 -0.0670 0.6786
C5B C 0.1670(4) 0.0091(3) 0.5992(3)
H6B H 0.1822 0.0949 0.6216
C6B C 0.1953(4) -0.2691(4) 0.4437(3)
H7B H 0.1528 -0.3506 0.4494
H8B H 0.1588 -0.2367 0.3745
H9B H 0.2916 -0.2817 0.4600
Cd1B Cd -0.01627(2) -0.370955(19) 0.599463(15)
O1B O 0.1536(3) -0.4849(2) 0.72649(18)
O2B O 0.0974(2) -0.5663(3) 0.57405(18)
O3B O 0.0841(2) -0.7610(2) 0.76806(18)
O4B O 0.2312(3) -0.8622(2) 0.8955(2)
C7B C 0.2949(3) -0.6548(3) 0.7000(2)
C8B C 0.3151(3) -0.7510(3) 0.7751(2)
C9B C 0.4387(3) -0.8163(3) 0.8081(3)
H10B H 0.4525 -0.8803 0.8585
C10B C 0.5411(3) -0.7877(3) 0.7673(3)
H11B H 0.6240 -0.8310 0.7909
C11B C 0.5201(4) -0.6945(4) 0.6913(3)
H12B H 0.5887 -0.6753 0.6631
C12B C 0.3971(4) -0.6294(3) 0.6570(3)
H13B H 0.3828 -0.5679 0.6046
C13B C 0.1718(3) -0.5667(3) 0.6658(2)
C14B C 0.2025(3) -0.7930(3) 0.8156(2)
Cd1_2 Cd 0.01627(2) -0.629045(19) 0.400537(15)
Cd1A Cd 0.98373(2) 0.870955(19) 0.099463(15)
Cd1B_2 Cd 0.98373(2) 0.629045(19) 0.599463(15)
Cd1C Cd 0.01627(2) -0.870955(19) 0.900537(15)
O2_2 O -0.0974(2) -0.4337(3) 0.42595(18)
O2B_2 O 1.0974(2) 0.4337(3) 0.57405(18)
O3A O 1.0841(2) 0.2610(2) 0.26806(18)
O3C O -0.0841(2) -0.2610(2) 0.73194(18)
O4A O 1.2312(3) 0.3622(2) 0.3955(2)
O4C O -0.2312(3) -0.3622(2) 0.6045(2)
loop_
_geom_bond_atom_site_label_1
_geom_bond_atom_site_label_2
_geom_bond_site_symmetry_1
_geom_bond_site_symmetry_2
Cd1 O1 1_555 1_555
O1 C13 1_555 1_555
O2 Cd1 1_555 1_555
O3 C14 1_555 1_555
O4 C14 1_555 1_555
N1 C2 1_555 1_555
N2 Cd1 1_555 1_555
C1 H1 1_555 1_555
H2 C1 1_555 1_555
C2 C1 1_555 1_555
H3 C2 1_555 1_555
H4 C2 1_555 1_555
C3 N1 1_555 1_555
C4 N2 1_555 1_555
H5 C4 1_555 1_555
C5 N1 1_555 1_555
H6 C5 1_555 1_555
C6 C3 1_555 1_555
H7 C6 1_555 1_555
H8 C6 1_555 1_555
H9 C6 1_555 1_555
C7 C8 1_555 1_555
C8 C9 1_555 1_555
C9 H10 1_555 1_555
C10 C9 1_555 1_555
H11 C10 1_555 1_555
C11 C10 1_555 1_555
H12 C11 1_555 1_555
C12 C7 1_555 1_555
H13 C12 1_555 1_555
C13 O2 1_555 1_555
C14 C8 1_555 1_555
N1B C2B 1_555 1_555
N2B C3B 1_555 1_555
C1B C1 1_555 1_555
H1B C1B 1_555 1_555
H2B C1B 1_555 1_555
C2B C1B 1_555 1_555
H3B C2B 1_555 1_555
H4B C2B 1_555 1_555
C3B N1B 1_555 1_555
C4B N2B 1_555 1_555
H5B C4B 1_555 1_555
C5B N1B 1_555 1_555
H6B C5B 1_555 1_555
C6B C3B 1_555 1_555
H7B C6B 1_555 1_555
H8B C6B 1_555 1_555
H9B C6B 1_555 1_555
Cd1B N2B 1_555 1_555
O1B Cd1B 1_555 1_555
O2B Cd1B 1_555 1_555
O3B C14B 1_555 1_555
O4B C14B 1_555 1_555
C7B C8B 1_555 1_555
C8B C9B 1_555 1_555
C9B H10B 1_555 1_555
C10B C9B 1_555 1_555
H11B C10B 1_555 1_555
C11B C10B 1_555 1_555
H12B C11B 1_555 1_555
C12B C7B 1_555 1_555
H13B C12B 1_555 1_555
C13B O1B 1_555 1_555
C14B C8B 1_555 1_555
Cd1_2 O2B 1_555 1_555
Cd1A O3 1_555 1_555
Cd1B_2 O2 1_555 1_555
Cd1C O3B 1_555 1_555
O2_2 Cd1B 1_555 1_555
O2B_2 Cd1 1_555 1_555
O3A Cd1 1_555 1_555
O3C Cd1B 1_555 1_555
O4A Cd1 1_555 1_555
O4C Cd1B 1_555 1_555
O4 Cd1A 1_555 1_555
N2 C3 1_555 1_555
C4 C5 1_555 1_555
C7 C13 1_555 1_555
C11 C12 1_555 1_555
C4B C5B 1_555 1_555
O2B C13B 1_555 1_555
O4B Cd1C 1_555 1_555
C7B C13B 1_555 1_555
C11B C12B 1_555 1_555
Cd1_2 O2_2 1_555 1_555
Cd1B_2 O2B_2 1_555 1_555

#END
