
#######################################################################
#
#                 Cambridge Crystallographic Data Centre
#                                CCDC 
#
#######################################################################
#
# If this CIF has been generated from an entry in the Cambridge 
# Structural Database, then it will include bibliographic, chemical, 
# crystal, experimental, refinement or atomic coordinate data resulting 
# from the CCDC's data processing and validation procedures.
#
#######################################################################

data_LUMLOW
_symmetry_cell_setting           triclinic
_symmetry_space_group_name_H-M   'P -1'
_symmetry_Int_Tables_number      2
_space_group_name_Hall           '-P 1'
loop_
_symmetry_equiv_pos_site_id
_symmetry_equiv_pos_as_xyz
1 x,y,z
2 -x,-y,-z
_cell_length_a                   11.5512(4)
_cell_length_b                   11.6312(5)
_cell_length_c                   19.8074(8)
_cell_angle_alpha                87.989(3)
_cell_angle_beta                 89.165(3)
_cell_angle_gamma                87.051(3)
_cell_volume                     2655.83
loop_
_atom_site_label
_atom_site_type_symbol
_atom_site_fract_x
_atom_site_fract_y
_atom_site_fract_z
C1 C 0.2370(4) 0.2214(3) 0.81460(19)
H1 H 0.2727 0.1516 0.8290
C2 C 0.1424(3) 0.3844(3) 0.81585(19)
C3 C 0.1740(3) 0.3627(3) 0.75099(18)
C4 C 0.1488(3) 0.4251(4) 0.6861(2)
C5 C 0.0715(4) 0.4786(4) 0.8462(2)
C6 C 0.4210(3) 0.2713(3) 0.54037(19)
H2 H 0.3844 0.3416 0.5274
C7 C 0.4599(3) 0.1102(3) 0.59319(18)
C8 C 0.5432(3) 0.1258(3) 0.54447(18)
C9 C 0.4468(4) 0.0231(4) 0.6472(2)
C10 C 0.6513(3) 0.0588(3) 0.5271(2)
C11 C 0.7307(3) 0.2182(3) 0.30816(19)
H3 H 0.7699 0.1476 0.3170
C12 C 0.6322(3) 0.3774(3) 0.32189(18)
C13 C 0.6571(3) 0.3676(3) 0.25479(18)
C14 C 0.5644(4) 0.4638(3) 0.3598(2)
C15 C 0.6238(4) 0.4399(3) 0.1945(2)
C16 C 0.9013(4) 0.2958(3) 0.03321(19)
H4 H 0.8647 0.3652 0.0188
C17 C 0.9381(3) 0.1347(3) 0.08743(19)
C18 C 1.0256(3) 0.1513(3) 0.04106(18)
C19 C 0.9187(4) 0.0438(4) 0.1389(2)
C20 C 1.1334(4) 0.0845(4) 0.0255(2)
C21 C 0.7438(4) 0.4537(4) 0.5389(2)
H5 H 0.6723 0.4941 0.5405
C22 C 0.8779(4) 0.3247(5) 0.5195(3)
H6 H 0.9162 0.2580 0.5044
C23 C 0.9270(4) 0.4071(5) 0.5546(3)
H7 H 1.0038 0.4076 0.5681
C24 C 0.8533(5) 0.5985(4) 0.5989(3)
H8 H 0.8332 0.6610 0.5669
H9 H 0.9338 0.6046 0.6109
C25 C 0.7793(4) 0.6121(4) 0.6610(2)
C26 C 0.7005(5) 0.7058(4) 0.6664(3)
H10 H 0.6898 0.7571 0.6297
C27 C 0.6378(5) 0.7244(4) 0.7253(3)
H11 H 0.5872 0.7888 0.7285
C28 C 0.6507(4) 0.6465(4) 0.7793(2)
H12 H 0.6087 0.6582 0.8191
C29 C 0.7269(4) 0.5504(3) 0.7740(2)
C30 C 0.7899(4) 0.5346(4) 0.7157(2)
H13 H 0.8410 0.4705 0.7127
C31 C 0.7362(5) 0.4618(4) 0.8310(2)
H14 H 0.6761 0.4075 0.8263
H15 H 0.8105 0.4194 0.8275
C32 C 0.7996(4) 0.5800(4) 0.9250(2)
H16 H 0.8663 0.6047 0.9032
C33 C 0.6697(4) 0.5512(5) 0.9999(3)
H17 H 0.6280 0.5517 1.0404
C34 C 0.6433(4) 0.4925(5) 0.9439(3)
H18 H 0.5798 0.4476 0.9390
C35 C 0.5572(4) 0.0498(4) 0.1464(2)
H19 H 0.5899 0.0110 0.1839
C36 C 0.5182(5) 0.1758(5) 0.0688(3)
H20 H 0.5207 0.2424 0.0415
C37 C 0.4434(4) 0.0931(5) 0.0624(3)
H21 H 0.3849 0.0917 0.0307
C38 C 0.4143(5) -0.0990(5) 0.1228(3)
H22 H 0.4712 -0.1615 0.1150
H23 H 0.3532 -0.1039 0.0900
C39 C 0.3637(4) -0.1144(4) 0.1922(2)
C40 C 0.2764(4) -0.0382(4) 0.2144(2)
H24 H 0.2534 0.0250 0.1869
C41 C 0.2229(4) -0.0541(4) 0.2765(2)
C42 C 0.2564(4) -0.1492(4) 0.3175(3)
H25 H 0.2199 -0.1614 0.3591
C43 C 0.3439(5) -0.2256(4) 0.2964(3)
H26 H 0.3664 -0.2891 0.3238
C44 C 0.3985(4) -0.2077(4) 0.2338(3)
H27 H 0.4583 -0.2584 0.2201
C45 C 0.1332(4) 0.0344(4) 0.3008(3)
H28 H 0.1704 0.0871 0.3295
H29 H 0.1023 0.0787 0.2622
C46 C -0.0454(4) -0.0770(4) 0.3132(2)
H30 H -0.0509 -0.0931 0.2678
C47 C 0.0152(5) -0.0118(6) 0.4047(3)
H31 H 0.0591 0.0238 0.4362
C48 C -0.0821(5) -0.0680(6) 0.4178(3)
H32 H -0.1184 -0.0758 0.4598
N1 N 0.2340(3) 0.2588(3) 0.75051(15)
N2 N 0.1829(3) 0.2955(3) 0.85605(15)
N3 N 0.3824(3) 0.2029(3) 0.58992(15)
N4 N 0.5177(3) 0.2285(3) 0.51121(15)
N5 N 0.6800(3) 0.2826(3) 0.35546(15)
N6 N 0.7186(3) 0.2668(3) 0.24660(15)
N7 N 0.8601(3) 0.2270(3) 0.08192(16)
N8 N 1.0012(3) 0.2537(3) 0.00738(16)
N9 N 0.7628(3) 0.3552(3) 0.50957(17)
N10 N 0.8411(3) 0.4888(3) 0.56623(18)
N11 N 0.7253(3) 0.5115(3) 0.89819(18)
N12 N 0.7667(3) 0.6085(3) 0.98617(16)
N13 N 0.5913(3) 0.1472(3) 0.12211(18)
N14 N 0.4697(3) 0.0111(3) 0.1116(2)
N15 N 0.0372(3) -0.0163(3) 0.3386(2)
N16 N -0.1182(3) -0.1111(3) 0.36015(17)
O1 O 0.1827(3) 0.3777(3) 0.63308(14)
O2 O 0.0918(3) 0.5222(3) 0.68837(16)
O3 O 0.0359(3) 0.5637(3) 0.80739(17)
O4 O 0.0478(3) 0.4695(3) 0.90726(15)
O5 O 0.3684(3) 0.0373(3) 0.68945(15)
O6 O 0.5213(3) -0.0641(3) 0.64813(18)
O7 O 0.6735(3) -0.0361(2) 0.55905(16)
O8 O 0.7156(3) 0.1018(3) 0.48289(16)
O9 O 0.5500(3) 0.4485(3) 0.42105(15)
O10 O 0.5217(3) 0.5530(3) 0.32588(17)
O11 O 0.5671(3) 0.5342(2) 0.20257(16)
O12 O 0.6535(3) 0.4018(3) 0.13836(14)
O13 O 0.8331(3) 0.0538(3) 0.17623(16)
O14 O 0.9951(3) -0.0416(3) 0.14237(17)
O15 O 1.1538(3) -0.0100(3) 0.05827(17)
O16 O 1.2001(3) 0.1267(3) -0.01823(15)
Zn1 Zn 0.25719(4) 0.20034(5) 0.65793(2)
Zn2 Zn 0.65056(4) 0.27600(4) 0.45372(2)
Zn3 Zn 0.73129(4) 0.22724(4) 0.14947(2)
Zn4 Zn 1.13681(4) 0.30360(5) -0.04772(2)
N2_2 N 1.1829(3) 0.2955(3) -0.14395(15)
N12A N 1.2333(3) 0.3915(3) 0.01383(16)
N16A N 0.1182(3) 0.1111(3) 0.63985(17)
O4_2 O 1.0478(3) 0.4695(3) -0.09274(15)
Zn1A Zn -0.25719(4) -0.20034(5) 0.34207(2)
Zn4_2 Zn 0.13681(4) 0.30360(5) 0.95228(2)
Zn4A Zn 0.86319(4) 0.69640(5) 1.04772(2)
loop_
_geom_bond_atom_site_label_1
_geom_bond_atom_site_label_2
_geom_bond_site_symmetry_1
_geom_bond_site_symmetry_2
C1 H1 1_555 1_555
C2 C3 1_555 1_555
C3 C4 1_555 1_555
C4 O1 1_555 1_555
C5 C2 1_555 1_555
C6 H2 1_555 1_555
C7 C8 1_555 1_555
C8 C10 1_555 1_555
C9 C7 1_555 1_555
C10 O7 1_555 1_555
C11 H3 1_555 1_555
C12 C13 1_555 1_555
C13 C15 1_555 1_555
C14 C12 1_555 1_555
C15 O11 1_555 1_555
C16 H4 1_555 1_555
C17 C18 1_555 1_555
C18 C20 1_555 1_555
C19 C17 1_555 1_555
C20 O15 1_555 1_555
C21 H5 1_555 1_555
C22 H6 1_555 1_555
C23 C22 1_555 1_555
H7 C23 1_555 1_555
C24 H8 1_555 1_555
H9 C24 1_555 1_555
C25 C24 1_555 1_555
C26 C25 1_555 1_555
H10 C26 1_555 1_555
C27 C26 1_555 1_555
H11 C27 1_555 1_555
C28 C27 1_555 1_555
H12 C28 1_555 1_555
C29 C28 1_555 1_555
C30 C25 1_555 1_555
H13 C30 1_555 1_555
C31 C29 1_555 1_555
H14 C31 1_555 1_555
H15 C31 1_555 1_555
C32 H16 1_555 1_555
C33 H17 1_555 1_555
C34 C33 1_555 1_555
H18 C34 1_555 1_555
C35 H19 1_555 1_555
C36 H20 1_555 1_555
C37 C36 1_555 1_555
H21 C37 1_555 1_555
C38 H22 1_555 1_555
H23 C38 1_555 1_555
C39 C38 1_555 1_555
C40 C39 1_555 1_555
H24 C40 1_555 1_555
C41 C40 1_555 1_555
C42 C41 1_555 1_555
H25 C42 1_555 1_555
C43 C42 1_555 1_555
H26 C43 1_555 1_555
C44 C39 1_555 1_555
H27 C44 1_555 1_555
C45 C41 1_555 1_555
H28 C45 1_555 1_555
H29 C45 1_555 1_555
C46 H30 1_555 1_555
C47 H31 1_555 1_555
C48 C47 1_555 1_555
H32 C48 1_555 1_555
N1 C1 1_555 1_555
N2 C1 1_555 1_555
N3 C6 1_555 1_555
N4 C6 1_555 1_555
N5 C11 1_555 1_555
N6 C11 1_555 1_555
N7 C16 1_555 1_555
N8 C16 1_555 1_555
N9 C21 1_555 1_555
N10 C21 1_555 1_555
N11 C31 1_555 1_555
N12 C32 1_555 1_555
N13 C35 1_555 1_555
N14 C35 1_555 1_555
N15 C45 1_555 1_555
N16 C46 1_555 1_555
O1 Zn1 1_555 1_555
O2 C4 1_555 1_555
O3 C5 1_555 1_555
O4 C5 1_555 1_555
O5 C9 1_555 1_555
O6 C9 1_555 1_555
O8 C10 1_555 1_555
O9 C14 1_555 1_555
O10 C14 1_555 1_555
O12 C15 1_555 1_555
O13 C19 1_555 1_555
O14 C19 1_555 1_555
O16 C20 1_555 1_555
Zn1 N1 1_555 1_555
Zn2 N4 1_555 1_555
Zn3 N6 1_555 1_555
Zn4 N8 1_555 1_555
N2_2 Zn4 1_555 1_555
N12A Zn4 1_555 1_555
N16A Zn1 1_555 1_555
O4_2 Zn4 1_555 1_555
Zn1A N16 1_555 1_555
Zn4_2 N2 1_555 1_555
Zn4A N12 1_555 1_555
C2 N2 1_555 1_555
C3 N1 1_555 1_555
C7 N3 1_555 1_555
C8 N4 1_555 1_555
C12 N5 1_555 1_555
C13 N6 1_555 1_555
C17 N7 1_555 1_555
C18 N8 1_555 1_555
C22 N9 1_555 1_555
C23 N10 1_555 1_555
C24 N10 1_555 1_555
C29 C30 1_555 1_555
C32 N11 1_555 1_555
C33 N12 1_555 1_555
C34 N11 1_555 1_555
C36 N13 1_555 1_555
C37 N14 1_555 1_555
C38 N14 1_555 1_555
C43 C44 1_555 1_555
C46 N15 1_555 1_555
C47 N15 1_555 1_555
C48 N16 1_555 1_555
N3 Zn1 1_555 1_555
N5 Zn2 1_555 1_555
N7 Zn3 1_555 1_555
N9 Zn2 1_555 1_555
N13 Zn3 1_555 1_555
O4 Zn4_2 1_555 1_555
O5 Zn1 1_555 1_555
O8 Zn2 1_555 1_555
O9 Zn2 1_555 1_555
O12 Zn3 1_555 1_555
O13 Zn3 1_555 1_555
O16 Zn4 1_555 1_555

#END
