
#######################################################################
#
#                 Cambridge Crystallographic Data Centre
#                                CCDC 
#
#######################################################################
#
# If this CIF has been generated from an entry in the Cambridge 
# Structural Database, then it will include bibliographic, chemical, 
# crystal, experimental, refinement or atomic coordinate data resulting 
# from the CCDC's data processing and validation procedures.
#
#######################################################################

data_LUMLUC
_symmetry_cell_setting           monoclinic
_symmetry_space_group_name_H-M   'C 2/c'
_symmetry_Int_Tables_number      15
_space_group_name_Hall           '-C 2yn'
loop_
_symmetry_equiv_pos_site_id
_symmetry_equiv_pos_as_xyz
1 x,y,z
2 -x,y,1/2-z
3 1/2+x,1/2+y,z
4 1/2-x,1/2+y,1/2-z
5 -x,-y,-z
6 x,-y,1/2+z
7 1/2-x,1/2-y,-z
8 1/2+x,1/2-y,1/2+z
_cell_length_a                   19.6269(11)
_cell_length_b                   11.3602(4)
_cell_length_c                   11.5903(7)
_cell_angle_alpha                90
_cell_angle_beta                 109.470(4)
_cell_angle_gamma                90
_cell_volume                     2436.46
loop_
_atom_site_label
_atom_site_type_symbol
_atom_site_fract_x
_atom_site_fract_y
_atom_site_fract_z
C1 C 0.77398(13) 0.8811(2) 0.7366(2)
H1 H 0.8021 0.8894 0.6864
C2 C 0.70546(12) 0.8061(2) 0.82940(19)
C3 C 0.66131(13) 0.7154(2) 0.8606(2)
C4 C 0.69436(13) 1.0000(2) 0.9442(2)
C5 C 0.72008(12) 0.9208(2) 0.86575(19)
C6 C 0.57568(15) 0.5593(2) 0.4622(3)
H2 H 0.5885 0.4803 0.4738
C7 C 0.51123(15) 0.6005(2) 0.3911(3)
H3 H 0.4717 0.5559 0.3455
C8 C 0.58113(13) 0.7484(2) 0.4743(2)
H4 H 0.5976 0.8248 0.4953
C9 C 0.45563(13) 0.8019(2) 0.3370(2)
H5 H 0.4309 0.8233 0.3938
H6 H 0.4212 0.7616 0.2684
C10 C 0.48048(11) 0.9127(2) 0.2911(2)
C11 C 0.46201(13) 1.0199(2) 0.3306(2)
H7 H 0.4363 1.0207 0.3851
C12 C 0.48117(15) 1.1250(2) 0.2903(2)
H8 H 0.4685 1.1959 0.3178
N1 N 0.73994(10) 0.78121(16) 0.74627(17)
N2 N 0.76327(10) 0.96709(17) 0.80637(17)
N3 N 0.61960(11) 0.65248(17) 0.51497(18)
N4 N 0.51489(11) 0.72043(18) 0.39851(18)
O1 O 0.71285(10) 1.10647(16) 0.94634(17)
O2 O 0.65164(11) 0.62032(15) 0.80765(19)
O3 O 0.63349(10) 0.74148(16) 0.94605(16)
O4 O 0.65592(10) 0.95867(17) 1.00150(17)
H9 H 0.6497 0.8881 0.9870
Zn1 Zn 0.714641(15) 0.63565(2) 0.64927(3)
C6A C 0.42432(15) 0.5593(2) 0.0378(3)
H2A H 0.4115 0.4803 0.0262
C7A C 0.48877(15) 0.6005(2) 0.1089(3)
H3A H 0.5283 0.5559 0.1545
C8A C 0.41887(13) 0.7484(2) 0.0257(2)
H4A H 0.4024 0.8248 0.0047
C9A C 0.54437(13) 0.8019(2) 0.1630(2)
H5A H 0.5691 0.8233 0.1062
H6A H 0.5788 0.7616 0.2316
C10A C 0.51952(11) 0.9127(2) 0.2089(2)
C11A C 0.53799(13) 1.0199(2) 0.1694(2)
H7A H 0.5637 1.0207 0.1149
C12A C 0.51883(15) 1.1250(2) 0.2097(2)
H8A H 0.5315 1.1959 0.1822
N3A N 0.38040(11) 0.65248(17) -0.01497(18)
N4A N 0.48511(11) 0.72043(18) 0.10149(18)
C1A C 0.22602(13) 0.8811(2) -0.2366(2)
H1A H 0.1979 0.8894 -0.1864
C2A C 0.29454(12) 0.8061(2) -0.32940(19)
C3A C 0.33869(13) 0.7154(2) -0.3606(2)
C4A C 0.30564(13) 1.0000(2) -0.4442(2)
C5A C 0.27992(12) 0.9208(2) -0.36575(19)
N1A N 0.26006(10) 0.78121(16) -0.24627(17)
N2A N 0.23673(10) 0.96709(17) -0.30637(17)
O1A O 0.28715(10) 1.10647(16) -0.44634(17)
O2A O 0.34836(11) 0.62032(15) -0.30765(19)
O3A O 0.36651(10) 0.74148(16) -0.44605(16)
O4A O 0.34408(10) 0.95867(17) -0.50150(17)
H9A H 0.3503 0.8881 -0.4870
Zn1A Zn 0.285359(15) 0.63565(2) -0.14927(3)
N2B N 0.26327(10) 0.46709(17) -0.19363(17)
N2C N 0.73673(10) 0.46709(17) 0.69363(17)
O1B O 0.21285(10) 0.60647(16) -0.05366(17)
O1C O 0.78715(10) 0.60647(16) 0.55366(17)
Zn1B Zn 0.214641(15) 1.13565(2) -0.35073(3)
Zn1C Zn 0.785359(15) 1.13565(2) 0.85073(3)
loop_
_geom_bond_atom_site_label_1
_geom_bond_atom_site_label_2
_geom_bond_site_symmetry_1
_geom_bond_site_symmetry_2
C1 H1 1_555 1_555
C2 C3 1_555 1_555
C3 O2 1_555 1_555
C4 C5 1_555 1_555
C5 C2 1_555 1_555
C6 H2 1_555 1_555
C7 C6 1_555 1_555
H3 C7 1_555 1_555
C8 H4 1_555 1_555
C9 H5 1_555 1_555
H6 C9 1_555 1_555
C10 C9 1_555 1_555
C11 C10 1_555 1_555
H7 C11 1_555 1_555
C12 C11 1_555 1_555
H8 C12 1_555 1_555
N1 C1 1_555 1_555
N2 C1 1_555 1_555
N3 C6 1_555 1_555
N4 C7 1_555 1_555
O1 C4 1_555 1_555
O2 Zn1 1_555 1_555
O3 C3 1_555 1_555
O4 C4 1_555 1_555
H9 O4 1_555 1_555
Zn1 N1 1_555 1_555
C6A H2A 1_555 1_555
C7A C6A 1_555 1_555
H3A C7A 1_555 1_555
C8A H4A 1_555 1_555
C9A H5A 1_555 1_555
H6A C9A 1_555 1_555
C10A C10 1_555 1_555
C11A C10A 1_555 1_555
H7A C11A 1_555 1_555
C12A C12 1_555 1_555
H8A C12A 1_555 1_555
N3A C6A 1_555 1_555
N4A C7A 1_555 1_555
C1A H1A 1_555 1_555
C2A C3A 1_555 1_555
C3A O2A 1_555 1_555
C4A C5A 1_555 1_555
C5A C2A 1_555 1_555
N1A C1A 1_555 1_555
N2A C1A 1_555 1_555
O1A C4A 1_555 1_555
O2A Zn1A 1_555 1_555
O3A C3A 1_555 1_555
O4A C4A 1_555 1_555
H9A O4A 1_555 1_555
Zn1A N3A 1_555 1_555
N2B Zn1A 1_555 1_555
N2C Zn1 1_555 1_555
O1B Zn1A 1_555 1_555
O1C Zn1 1_555 1_555
Zn1B N2A 1_555 1_555
Zn1C N2 1_555 1_555
C2 N1 1_555 1_555
C5 N2 1_555 1_555
C8 N3 1_555 1_555
C8 N4 1_555 1_555
C9 N4 1_555 1_555
N3 Zn1 1_555 1_555
O1 Zn1C 1_555 1_555
C8A N3A 1_555 1_555
C8A N4A 1_555 1_555
C9A C10A 1_555 1_555
C9A N4A 1_555 1_555
C11A C12A 1_555 1_555
C2A N1A 1_555 1_555
C5A N2A 1_555 1_555
N1A Zn1A 1_555 1_555
O1A Zn1B 1_555 1_555

#END
