
#######################################################################
#
#                 Cambridge Crystallographic Data Centre
#                                CCDC 
#
#######################################################################
#
# If this CIF has been generated from an entry in the Cambridge 
# Structural Database, then it will include bibliographic, chemical, 
# crystal, experimental, refinement or atomic coordinate data resulting 
# from the CCDC's data processing and validation procedures.
#
#######################################################################

data_LUMMAJ
_symmetry_cell_setting           orthorhombic
_symmetry_space_group_name_H-M   'P c c n'
_symmetry_Int_Tables_number      56
_space_group_name_Hall           '-P 2ab 2ac'
loop_
_symmetry_equiv_pos_site_id
_symmetry_equiv_pos_as_xyz
1 x,y,z
2 1/2-x,1/2-y,z
3 -x,1/2+y,1/2-z
4 1/2+x,-y,1/2-z
5 -x,-y,-z
6 1/2+x,1/2+y,-z
7 x,1/2-y,1/2+z
8 1/2-x,y,1/2+z
_cell_length_a                   10.3008(14)
_cell_length_b                   13.3246(12)
_cell_length_c                   20.462(3)
_cell_angle_alpha                90
_cell_angle_beta                 90
_cell_angle_gamma                90
_cell_volume                     2808.49
loop_
_atom_site_label
_atom_site_type_symbol
_atom_site_fract_x
_atom_site_fract_y
_atom_site_fract_z
Zn1 Zn 0.43529(19) 0.88973(13) 0.29383(10)
Zn2 Zn 0.7500 0.7500 0.07500(15)
O1 O 0.4501(11) 0.8096(9) 0.2026(6)
O2 O 0.8041(12) 0.8970(8) 0.0726(6)
N1 N 0.6035(12) 0.9454(9) 0.2563(8)
O3 O 0.9239(11) 1.0181(7) 0.1213(7)
O4 O 0.5841(13) 0.7786(9) 0.1218(7)
N2 N 0.7798(13) 1.0278(9) 0.2228(7)
C1 C 0.6401(17) 0.9051(9) 0.2004(8)
N3 N 0.4502(13) 0.7632(10) 0.3493(8)
C2 C 0.4935(17) 0.5965(11) 0.4276(10)
C3 C 0.5327(18) 0.5960(12) 0.3641(9)
H1 H 0.5730 0.5394 0.3470
C4 C 0.516(2) 0.5081(13) 0.4709(9)
H2 H 0.5629 0.4562 0.4515
C5 C 0.8267(16) 0.9538(11) 0.1183(11)
C6 C 0.687(2) 1.0187(12) 0.2685(10)
H3 H 0.6823 1.0599 0.3051
C7 C 0.5547(16) 0.8247(11) 0.1748(9)
C8 C 0.4305(18) 0.6817(12) 0.4504(10)
H4 H 0.4049 0.6847 0.4939
C9 C 0.5128(18) 0.6795(12) 0.3245(10)
H5 H 0.5416 0.6790 0.2815
C10 C 0.4057(19) 0.7597(13) 0.4108(11)
H6 H 0.3562 0.8129 0.4265
C11 C 0.7490(14) 0.9579(10) 0.1792(8)
O5 O 0.7500 0.7500 -0.0223(10)
H7 H 0.75(2) 0.801(9) -0.046(8)
N3D N 0.5498(13) 0.2368(10) 0.6507(8)
C2D C 0.5065(17) 0.4035(11) 0.5724(10)
C3D C 0.4673(18) 0.4040(12) 0.6359(9)
H1D H 0.4270 0.4606 0.6530
C4D C 0.484(2) 0.4919(13) 0.5291(9)
H2D H 0.4371 0.5438 0.5485
C8D C 0.5695(18) 0.3183(12) 0.5496(10)
H4D H 0.5951 0.3153 0.5061
C9D C 0.4872(18) 0.3205(12) 0.6755(10)
H5D H 0.4584 0.3210 0.7185
C10D C 0.5943(19) 0.2403(13) 0.5892(11)
H6D H 0.6438 0.1871 0.5735
H7A H 0.75(2) 0.699(9) -0.046(8)
Zn1A Zn 1.06471(19) 0.61027(13) 0.29383(10)
O1A O 1.0499(11) 0.6904(9) 0.2026(6)
O2A O 0.6959(12) 0.6030(8) 0.0726(6)
N1A N 0.8965(12) 0.5546(9) 0.2563(8)
O3A O 0.5761(11) 0.4819(7) 0.1213(7)
O4A O 0.9159(13) 0.7214(9) 0.1218(7)
N2A N 0.7202(13) 0.4722(9) 0.2228(7)
C1A C 0.8599(17) 0.5949(9) 0.2004(8)
C5A C 0.6733(16) 0.5462(11) 0.1183(11)
C6A C 0.813(2) 0.4813(12) 0.2685(10)
H3A H 0.8177 0.4401 0.3051
C7A C 0.9453(16) 0.6753(11) 0.1748(9)
C11A C 0.7510(14) 0.5421(10) 0.1792(8)
Zn1B Zn 0.56471(19) 0.38973(13) 0.20617(10)
Zn1C Zn 0.93529(19) 1.11027(13) 0.20617(10)
Zn1D Zn 0.56471(19) 0.11027(13) 0.70617(10)
O3B O 1.0761(11) 0.5181(7) 0.3787(7)
O3C O 0.4239(11) 0.9819(7) 0.3787(7)
N2B N 1.2202(13) 0.5278(9) 0.2772(7)
N2C N 0.2798(13) 0.9722(9) 0.2772(7)
N3A N 1.0498(13) 0.7368(10) 0.3493(8)
O6 O 0.8359(14) 0.5670(14) 0.4367(8)
H8 H 0.8479 0.5572 0.4773
H9 H 0.8948 0.5623 0.4078
loop_
_geom_bond_atom_site_label_1
_geom_bond_atom_site_label_2
_geom_bond_site_symmetry_1
_geom_bond_site_symmetry_2
Zn1 O1 1_555 1_555
Zn2 O2 1_555 1_555
O1 C7 1_555 1_555
O2 C5 1_555 1_555
N1 Zn1 1_555 1_555
O3 C5 1_555 1_555
O4 Zn2 1_555 1_555
N2 C6 1_555 1_555
C1 N1 1_555 1_555
N3 Zn1 1_555 1_555
C2 C3 1_555 1_555
C3 H1 1_555 1_555
C4 C2 1_555 1_555
H2 C4 1_555 1_555
C5 C11 1_555 1_555
C6 N1 1_555 1_555
H3 C6 1_555 1_555
C7 O4 1_555 1_555
C8 C2 1_555 1_555
H4 C8 1_555 1_555
C9 N3 1_555 1_555
H5 C9 1_555 1_555
C10 N3 1_555 1_555
H6 C10 1_555 1_555
C11 N2 1_555 1_555
O5 Zn2 1_555 1_555
H7 O5 1_555 1_555
O6 H8 1_555 1_555
H9 O6 1_555 1_555
N3D C9D 1_555 1_555
C2D C3D 1_555 1_555
C3D H1D 1_555 1_555
C4D C4 1_555 1_555
H2D C4D 1_555 1_555
C8D C2D 1_555 1_555
H4D C8D 1_555 1_555
C9D C3D 1_555 1_555
H5D C9D 1_555 1_555
C10D N3D 1_555 1_555
H6D C10D 1_555 1_555
H7A O5 1_555 1_555
Zn1A O1A 1_555 1_555
O1A C7A 1_555 1_555
O2A Zn2 1_555 1_555
N1A Zn1A 1_555 1_555
O3A C5A 1_555 1_555
O4A Zn2 1_555 1_555
N2A C6A 1_555 1_555
C1A N1A 1_555 1_555
C5A O2A 1_555 1_555
C6A N1A 1_555 1_555
H3A C6A 1_555 1_555
C7A O4A 1_555 1_555
C11A N2A 1_555 1_555
Zn1B O3A 1_555 1_555
Zn1C O3 1_555 1_555
Zn1D N3D 1_555 1_555
O3B Zn1A 1_555 1_555
O3C Zn1 1_555 1_555
N2B Zn1A 1_555 1_555
N2C Zn1 1_555 1_555
N3A Zn1A 1_555 1_555
N2 Zn1C 1_555 1_555
C1 C7 1_555 1_555
C1 C11 1_555 1_555
C3 C9 1_555 1_555
C8 C10 1_555 1_555
C2D C4D 1_555 1_555
C8D C10D 1_555 1_555
N2A Zn1B 1_555 1_555
C1A C7A 1_555 1_555
C1A C11A 1_555 1_555
C5A C11A 1_555 1_555

#END
