
#######################################################################
#
#                 Cambridge Crystallographic Data Centre
#                                CCDC 
#
#######################################################################
#
# If this CIF has been generated from an entry in the Cambridge 
# Structural Database, then it will include bibliographic, chemical, 
# crystal, experimental, refinement or atomic coordinate data resulting 
# from the CCDC's data processing and validation procedures.
#
#######################################################################

data_LUMNUE
_symmetry_cell_setting           triclinic
_symmetry_space_group_name_H-M   'P -1'
_symmetry_Int_Tables_number      2
_space_group_name_Hall           '-P 1'
loop_
_symmetry_equiv_pos_site_id
_symmetry_equiv_pos_as_xyz
1 x,y,z
2 -x,-y,-z
_cell_length_a                   8.4386(3)
_cell_length_b                   9.8933(4)
_cell_length_c                   10.0779(4)
_cell_angle_alpha                85.708(2)
_cell_angle_beta                 65.778(2)
_cell_angle_gamma                75.378(2)
_cell_volume                     742.044
loop_
_atom_site_label
_atom_site_type_symbol
_atom_site_fract_x
_atom_site_fract_y
_atom_site_fract_z
Cu1 Cu 0.500 0.000 0.000
N1 N 0.3006(2) 0.17277(18) 0.05307(19)
N2 N 0.0274(2) 0.30405(18) 0.15758(18)
N3 N -0.3927(2) 0.06152(19) 0.79115(19)
N4 N -0.2152(2) 0.14589(18) 0.59437(19)
O1 O 0.3208(2) -0.1224(2) -0.0771(2)
H1 H 0.262(4) -0.067(3) -0.115(3)
H2 H 0.254(4) -0.169(3) -0.024(3)
C1 C 0.1305(3) 0.1730(2) 0.1256(2)
H3 H 0.0874 0.0929 0.1514
C2 C 0.3055(3) 0.3118(2) 0.0363(2)
H4 H 0.4085 0.3442 -0.0118
C3 C 0.1369(3) 0.3938(2) 0.1009(2)
H5 H 0.1028 0.4909 0.1057
C4 C -0.1677(3) 0.3414(2) 0.2418(2)
H6 H -0.2095 0.2566 0.271
H7 H -0.2252 0.3917 0.1806
C5 C -0.2218(3) 0.4309(2) 0.3758(2)
C6 C -0.3113(3) 0.5701(2) 0.3793(3)
H8 H -0.3386 0.6046 0.3008
C7 C -0.3606(4) 0.6582(3) 0.4967(3)
H9 H -0.4197 0.7512 0.4964
C8 C -0.3226(4) 0.6092(3) 0.6139(3)
H10 H -0.3564 0.6683 0.6934
C9 C -0.2335(4) 0.4708(3) 0.6126(3)
H11 H -0.2062 0.4377 0.6915
C10 C -0.1839(3) 0.3800(2) 0.4954(2)
C11 C -0.0900(3) 0.2295(2) 0.5051(2)
H12 H -0.0244 0.1875 0.4078
H13 H -0.0041 0.228 0.5465
C12 C -0.2857(3) 0.0582(2) 0.5487(2)
H14 H -0.263 0.0377 0.453
C13 C -0.3954(3) 0.0069(2) 0.6706(3)
H15 H -0.4622 -0.0556 0.6726
C14 C -0.2834(3) 0.1438(2) 0.7405(2)
H16 H -0.2561 0.1949 0.7986
N1A N -0.3006(2) -0.17277(18) 0.94693(19)
N2A N -0.0274(2) -0.30405(18) 0.84242(18)
N3A N 0.3927(2) -0.06152(19) 0.20885(19)
N4A N 0.2152(2) -0.14589(18) 0.40563(19)
C1A C -0.1305(3) -0.1730(2) 0.8744(2)
H3A H -0.0874 -0.0929 0.8486
C2A C -0.3055(3) -0.3118(2) 0.9637(2)
H4A H -0.4085 -0.3442 1.0118
C3A C -0.1369(3) -0.3938(2) 0.8991(2)
H5A H -0.1028 -0.4909 0.8943
C4A C 0.1677(3) -0.3414(2) 0.7582(2)
H6A H 0.2095 -0.2566 0.729
H7A H 0.2252 -0.3917 0.8194
C5A C 0.2218(3) -0.4309(2) 0.6242(2)
C6A C 0.3113(3) -0.5701(2) 0.6207(3)
H8A H 0.3386 -0.6046 0.6992
C7A C 0.3606(4) -0.6582(3) 0.5033(3)
H9A H 0.4197 -0.7512 0.5036
C8A C 0.3226(4) -0.6092(3) 0.3861(3)
H10A H 0.3564 -0.6683 0.3066
C9A C 0.2335(4) -0.4708(3) 0.3874(3)
H11A H 0.2062 -0.4377 0.3085
C10A C 0.1839(3) -0.3800(2) 0.5046(2)
C11A C 0.0900(3) -0.2295(2) 0.4949(2)
H12A H 0.0244 -0.1875 0.5922
H13A H 0.0041 -0.228 0.4535
C12A C 0.2857(3) -0.0582(2) 0.4513(2)
H14A H 0.263 -0.0377 0.547
C13A C 0.3954(3) -0.0069(2) 0.3294(3)
H15A H 0.4622 0.0556 0.3274
C14A C 0.2834(3) -0.1438(2) 0.2595(2)
H16A H 0.2561 -0.1949 0.2014
O1A O 0.6792(2) 0.1224(2) 0.0771(2)
H1A H 0.738(4) 0.067(3) 0.115(3)
H2A H 0.746(4) 0.169(3) 0.024(3)
Cu1_2 Cu -0.500 0.000 1.000
N1A_2 N 0.6994(2) -0.17277(18) -0.05307(19)
N3_2 N 0.6073(2) 0.06152(19) -0.20885(19)
O2 O -0.0740(3) 0.2649(2) 0.8824(2)
O3 O 0.1062(3) 0.0526(2) 0.7966(2)
C15 C 0.0754(4) 0.1786(3) 0.8271(3)
H17 H 0.1753 0.2133 0.8065
loop_
_geom_bond_atom_site_label_1
_geom_bond_atom_site_label_2
_geom_bond_site_symmetry_1
_geom_bond_site_symmetry_2
Cu1 N1 1_555 1_555
N1 C1 1_555 1_555
N2 C1 1_555 1_555
N3 C13 1_555 1_555
N4 C11 1_555 1_555
O1 Cu1 1_555 1_555
H1 O1 1_555 1_555
H2 O1 1_555 1_555
C1 H3 1_555 1_555
C2 N1 1_555 1_555
H4 C2 1_555 1_555
C3 N2 1_555 1_555
H5 C3 1_555 1_555
C4 N2 1_555 1_555
H6 C4 1_555 1_555
H7 C4 1_555 1_555
C5 C4 1_555 1_555
C6 C5 1_555 1_555
H8 C6 1_555 1_555
C7 C6 1_555 1_555
H9 C7 1_555 1_555
C8 C7 1_555 1_555
H10 C8 1_555 1_555
C9 C8 1_555 1_555
H11 C9 1_555 1_555
C10 C5 1_555 1_555
C11 C10 1_555 1_555
H12 C11 1_555 1_555
H13 C11 1_555 1_555
C12 N4 1_555 1_555
H14 C12 1_555 1_555
C13 C12 1_555 1_555
H15 C13 1_555 1_555
C14 N3 1_555 1_555
H16 C14 1_555 1_555
O2 C15 1_555 1_555
O3 C15 1_555 1_555
C15 H17 1_555 1_555
N1A C1A 1_555 1_555
N2A C1A 1_555 1_555
N3A Cu1 1_555 1_555
N4A C11A 1_555 1_555
C1A H3A 1_555 1_555
C2A N1A 1_555 1_555
H4A C2A 1_555 1_555
C3A N2A 1_555 1_555
H5A C3A 1_555 1_555
C4A N2A 1_555 1_555
H6A C4A 1_555 1_555
H7A C4A 1_555 1_555
C5A C4A 1_555 1_555
C6A C5A 1_555 1_555
H8A C6A 1_555 1_555
C7A C6A 1_555 1_555
H9A C7A 1_555 1_555
C8A C7A 1_555 1_555
H10A C8A 1_555 1_555
C9A C8A 1_555 1_555
H11A C9A 1_555 1_555
C10A C5A 1_555 1_555
C11A C10A 1_555 1_555
H12A C11A 1_555 1_555
H13A C11A 1_555 1_555
C12A N4A 1_555 1_555
H14A C12A 1_555 1_555
C13A N3A 1_555 1_555
H15A C13A 1_555 1_555
C14A N3A 1_555 1_555
H16A C14A 1_555 1_555
O1A Cu1 1_555 1_555
H1A O1A 1_555 1_555
H2A O1A 1_555 1_555
Cu1_2 N3 1_555 1_555
N1A_2 Cu1 1_555 1_555
N3_2 Cu1 1_555 1_555
N4 C14 1_555 1_555
C2 C3 1_555 1_555
C9 C10 1_555 1_555
N1A Cu1_2 1_555 1_555
N4A C14A 1_555 1_555
C2A C3A 1_555 1_555
C9A C10A 1_555 1_555
C12A C13A 1_555 1_555

#END
