
#######################################################################
#
#                 Cambridge Crystallographic Data Centre
#                                CCDC 
#
#######################################################################
#
# If this CIF has been generated from an entry in the Cambridge 
# Structural Database, then it will include bibliographic, chemical, 
# crystal, experimental, refinement or atomic coordinate data resulting 
# from the CCDC's data processing and validation procedures.
#
#######################################################################

data_LUMNUD
_symmetry_cell_setting           orthorhombic
_symmetry_space_group_name_H-M   'P b c a'
_symmetry_Int_Tables_number      61
_space_group_name_Hall           '-P 2ac 2ab'
loop_
_symmetry_equiv_pos_site_id
_symmetry_equiv_pos_as_xyz
1 x,y,z
2 1/2-x,-y,1/2+z
3 1/2+x,1/2-y,-z
4 -x,1/2+y,1/2-z
5 -x,-y,-z
6 1/2+x,y,1/2-z
7 1/2-x,1/2+y,z
8 x,1/2-y,1/2+z
_cell_length_a                   11.717(3)
_cell_length_b                   14.333(5)
_cell_length_c                   17.265(4)
_cell_angle_alpha                90
_cell_angle_beta                 90
_cell_angle_gamma                90
_cell_volume                     2899.48
loop_
_atom_site_label
_atom_site_type_symbol
_atom_site_fract_x
_atom_site_fract_y
_atom_site_fract_z
Ag1 Ag 0.053768(16) 0.463700(14) 0.121721(12)
S1 S 0.01939(5) 0.69558(4) 0.07630(3)
O1 O -0.10450(15) 0.69666(13) 0.07423(12)
O2 O 0.06203(16) 0.65517(13) 0.14812(11)
N1 N 0.31201(18) 0.95879(15) 0.02514(13)
H1 H 0.320(2) 1.0176(19) 0.0067(15)
H2 H 0.337(2) 0.918(2) -0.0051(16)
N2 N 0.18977(18) 0.44989(14) 0.22899(12)
O3 O 0.07060(18) 0.65260(13) 0.00855(11)
C1 C 0.1251(2) 1.00264(16) 0.07762(14)
C2 C 0.2393(2) 0.37061(16) 0.25132(13)
N3 N 0.37821(18) 0.45133(14) 0.32602(12)
C3 C 0.06142(19) 0.81462(16) 0.07627(13)
C4 C 0.2332(2) 0.52938(17) 0.25640(15)
H3 H 0.1984 0.5855 0.2434
C5 C 0.19968(19) 0.93426(15) 0.04942(13)
C6 C 0.3274(2) 0.53062(17) 0.30296(16)
H4 H 0.3571 0.5876 0.3191
C7 C 0.16732(19) 0.84060(15) 0.04764(13)
H5 H 0.2165 0.7959 0.0274
C8 C 0.3330(2) 0.37076(16) 0.30168(13)
C9 C 0.1568(2) 1.10382(18) 0.07631(18)
H6 H 0.2320 1.1107 0.0551
H7 H 0.1032 1.1375 0.0449
H8 H 0.1555 1.1281 0.1281
C10 C 0.0202(2) 0.97386(18) 0.10589(18)
H9 H -0.0302 1.0183 0.1251
C11 C 0.1921(2) 0.28144(17) 0.22019(17)
H10 H 0.1286 0.2947 0.1868
H11 H 0.2501 0.2494 0.1914
H12 H 0.1671 0.2429 0.2624
C12 C -0.0121(2) 0.88075(19) 0.10638(16)
H13 H -0.0823 0.8630 0.1267
C13 C 0.3828(2) 0.28115(17) 0.33038(17)
H14 H 0.4459 0.2943 0.3641
H15 H 0.3256 0.2469 0.3583
H16 H 0.4088 0.2447 0.2872
Ag1F Ag 0.446232(16) 0.963700(14) 0.121721(12)
Ag1E Ag 0.553768(16) 0.463700(14) 0.378279(12)
N1F N 0.18799(18) 0.45879(15) 0.02514(13)
H1F H 0.180(2) 0.5176(19) 0.0067(15)
H2F H 0.163(2) 0.418(2) -0.0051(16)
N3E N -0.12179(18) 0.45133(14) 0.17398(12)
loop_
_geom_bond_atom_site_label_1
_geom_bond_atom_site_label_2
_geom_bond_site_symmetry_1
_geom_bond_site_symmetry_2
Ag1 O2 1_555 1_555
S1 O1 1_555 1_555
O2 S1 1_555 1_555
N1 H1 1_555 1_555
H2 N1 1_555 1_555
N2 Ag1 1_555 1_555
O3 S1 1_555 1_555
C1 C5 1_555 1_555
C2 N2 1_555 1_555
N3 C6 1_555 1_555
C3 S1 1_555 1_555
C4 N2 1_555 1_555
H3 C4 1_555 1_555
C5 N1 1_555 1_555
C6 C4 1_555 1_555
H4 C6 1_555 1_555
C7 C3 1_555 1_555
H5 C7 1_555 1_555
C8 C2 1_555 1_555
C9 C1 1_555 1_555
H6 C9 1_555 1_555
H7 C9 1_555 1_555
H8 C9 1_555 1_555
C10 C1 1_555 1_555
H9 C10 1_555 1_555
C11 C2 1_555 1_555
H10 C11 1_555 1_555
H11 C11 1_555 1_555
H12 C11 1_555 1_555
C12 C3 1_555 1_555
H13 C12 1_555 1_555
C13 C8 1_555 1_555
H14 C13 1_555 1_555
H15 C13 1_555 1_555
H16 C13 1_555 1_555
Ag1F N1 1_555 1_555
Ag1E N3 1_555 1_555
N1F Ag1 1_555 1_555
H1F N1F 1_555 1_555
H2F N1F 1_555 1_555
N3E Ag1 1_555 1_555
N3 C8 1_555 1_555
C5 C7 1_555 1_555
C10 C12 1_555 1_555

#END
