
#######################################################################
#
#                 Cambridge Crystallographic Data Centre
#                                CCDC 
#
#######################################################################
#
# If this CIF has been generated from an entry in the Cambridge 
# Structural Database, then it will include bibliographic, chemical, 
# crystal, experimental, refinement or atomic coordinate data resulting 
# from the CCDC's data processing and validation procedures.
#
#######################################################################

data_LUMPAM
_symmetry_cell_setting           monoclinic
_symmetry_space_group_name_H-M   'C 2/c'
_symmetry_Int_Tables_number      15
_space_group_name_Hall           '-C 2yn'
loop_
_symmetry_equiv_pos_site_id
_symmetry_equiv_pos_as_xyz
1 x,y,z
2 -x,y,1/2-z
3 1/2+x,1/2+y,z
4 1/2-x,1/2+y,1/2-z
5 -x,-y,-z
6 x,-y,1/2+z
7 1/2-x,1/2-y,-z
8 1/2+x,1/2-y,1/2+z
_cell_length_a                   23.628(4)
_cell_length_b                   10.3600(13)
_cell_length_c                   32.583(4)
_cell_angle_alpha                90
_cell_angle_beta                 106.325(13)
_cell_angle_gamma                90
_cell_volume                     7654.3
loop_
_atom_site_label
_atom_site_type_symbol
_atom_site_fract_x
_atom_site_fract_y
_atom_site_fract_z
Cd1 Cd 0.248028(9) 0.417943(18) 1.049377(6)
Cd2 Cd 0.000 0.03058(3) 0.750
N1 N 0.15082(11) 0.4008(2) 1.01769(8)
N2 N 0.06900(11) 0.3297(3) 0.97369(8)
N3 N -0.05683(11) 0.1174(3) 0.86405(7)
N4 N -0.01886(12) 0.0476(3) 0.81419(8)
N5 N 0.23077(13) -0.4519(3) 0.61679(9)
N6 N 0.20736(18) -0.4219(4) 0.67627(10)
N7 N 0.07627(12) -0.1161(3) 0.77417(8)
N8 N 0.12693(12) -0.2954(3) 0.78272(9)
O1 O 0.24986(10) 0.6406(2) 1.04577(7)
O2 O 0.33607(10) 0.55184(19) 1.07532(7)
O3 O 0.23752(9) 1.11710(19) 1.02035(6)
O4 O 0.29330(10) 1.23326(19) 1.07415(7)
O5 O 0.51719(15) 0.8612(5) 1.12168(16)
O6 O 0.48810(14) 0.8857(4) 1.18296(10)
O7 O 0.49835(16) 1.0695(3) 1.14216(15)
O8 O 0.07150(14) 0.2026(3) 0.77821(9)
H1 H 0.082(2) 0.204(4) 0.8045(3)
H2 H 0.058(2) 0.274(2) 0.7708(13)
S1 S 0.48387(4) 0.94020(8) 1.14309(3)
C1 C 0.12370(13) 0.3001(3) 0.99633(9)
H3 H 0.1406 0.2187 0.997
C2 C 0.11071(14) 0.5005(3) 1.00767(10)
H4 H 0.1173 0.5844 1.018
C3 C 0.06034(14) 0.4567(4) 0.98047(11)
H5 H 0.0262 0.5042 0.9686
C4 C 0.02773(14) 0.2426(4) 0.94453(10)
H6 H 0.0491 0.167 0.9396
H7 H 0.012 0.2859 0.9173
C5 C -0.02283(13) 0.1997(3) 0.96098(9)
C6 C -0.01480(15) 0.1780(4) 1.00408(10)
H8 H 0.0215 0.1956 1.0235
C7 C -0.06037(17) 0.1304(4) 1.01865(11)
H9 H -0.0548 0.1168 1.0477
C8 C -0.11381(17) 0.1034(4) 0.98990(12)
H10 H -0.1443 0.0695 0.9995
C9 C -0.12256(15) 0.1262(4) 0.94704(11)
H11 H -0.1591 0.1086 0.9279
C10 C -0.07746(13) 0.1752(3) 0.93204(9)
C11 C -0.08999(14) 0.2025(3) 0.88486(9)
H12 H -0.1318 0.1916 0.8712
H13 H -0.0799 0.2915 0.8809
C12 C -0.04334(15) -0.0097(3) 0.87262(10)
H14 H -0.0493 -0.058 0.8951
C13 C -0.01964(15) -0.0513(3) 0.84174(10)
H15 H -0.006 -0.1345 0.8396
C14 C -0.04140(14) 0.1478(3) 0.82856(10)
H16 H -0.0461 0.229 0.8159
C15 C 0.23511(19) -0.3757(4) 0.64878(12)
H17 H 0.2552 -0.2975 0.6524
C16 C 0.1999(2) -0.5555(4) 0.62464(13)
H18 H 0.1903 -0.6278 0.6071
C17 C 0.1854(2) -0.5386(5) 0.66117(15)
H19 H 0.1645 -0.5954 0.6736
C18 C 0.1987(3) -0.3583(5) 0.71434(13)
H20 H 0.2122 -0.2697 0.7153
H21 H 0.1569 -0.3569 0.7123
C19 C 0.23178(18) -0.4270(4) 0.75543(12)
C20 C 0.2901(2) -0.4541(5) 0.76224(15)
H22 H 0.3084 -0.4323 0.7414
C21 C 0.32168(19) -0.5118(4) 0.79851(15)
H23 H 0.3612 -0.5309 0.802
C22 C 0.2965(2) -0.5429(4) 0.83040(14)
H24 H 0.3186 -0.5811 0.8556
C23 C 0.2371(2) -0.5158(4) 0.82414(13)
H25 H 0.2192 -0.5358 0.8454
C24 C 0.20373(16) -0.4581(3) 0.78574(11)
C25 C 0.13950(18) -0.4336(4) 0.78048(15)
H26 H 0.1166 -0.4675 0.7531
H27 H 0.1276 -0.479 0.8027
C26 C 0.15838(17) -0.2098(4) 0.81272(12)
H28 H 0.1943 -0.2249 0.833
C27 C 0.12697(16) -0.1003(4) 0.80698(11)
H29 H 0.1378 -0.0251 0.8228
C28 C 0.07810(15) -0.2336(3) 0.76021(11)
H30 H 0.0493 -0.2698 0.7376
C29 C 0.30380(14) 0.6490(3) 1.06494(9)
C30 C 0.32966(13) 0.7813(3) 1.07566(8)
C31 C 0.29523(12) 0.8891(2) 1.06019(8)
H31 H 0.2572 0.8786 1.0423
C32 C 0.31734(12) 1.0128(2) 1.07139(8)
C33 C 0.27926(12) 1.1290(3) 1.05366(8)
C34 C 0.37422(12) 1.0281(3) 1.09774(8)
H32 H 0.3888 1.1103 1.1061
C35 C 0.40927(12) 0.9208(3) 1.11165(9)
C36 C 0.38711(12) 0.7977(3) 1.10104(9)
H33 H 0.4107 0.726 1.1109
Cd1A Cd -0.248028(9) 0.417943(18) 0.450623(6)
N1A N -0.15082(11) 0.4008(2) 0.48231(8)
N2A N -0.06900(11) 0.3297(3) 0.52631(8)
N3A N 0.05683(11) 0.1174(3) 0.63595(7)
N4A N 0.01886(12) 0.0476(3) 0.68581(8)
N5A N -0.23077(13) -0.4519(3) 0.88321(9)
N6A N -0.20736(18) -0.4219(4) 0.82373(10)
N7A N -0.07627(12) -0.1161(3) 0.72583(8)
N8A N -0.12693(12) -0.2954(3) 0.71728(9)
O1A O -0.24986(10) 0.6406(2) 0.45423(7)
O2A O -0.33607(10) 0.55184(19) 0.42468(7)
O3A O -0.23752(9) 1.11710(19) 0.47965(6)
O4A O -0.29330(10) 1.23326(19) 0.42585(7)
O5A O -0.51719(15) 0.8612(5) 0.37832(16)
O6A O -0.48810(14) 0.8857(4) 0.31704(10)
O7A O -0.49835(16) 1.0695(3) 0.35784(15)
O8A O -0.07150(14) 0.2026(3) 0.72179(9)
H1A H -0.082(2) 0.204(4) 0.6955(3)
H2A H -0.058(2) 0.274(2) 0.7292(13)
S1A S -0.48387(4) 0.94020(8) 0.35691(3)
C1A C -0.12370(13) 0.3001(3) 0.50367(9)
H3A H -0.1406 0.2187 0.503
C2A C -0.11071(14) 0.5005(3) 0.49233(10)
H4A H -0.1173 0.5844 0.482
C3A C -0.06034(14) 0.4567(4) 0.51953(11)
H5A H -0.0262 0.5042 0.5314
C4A C -0.02773(14) 0.2426(4) 0.55547(10)
H6A H -0.0491 0.167 0.5604
H7A H -0.012 0.2859 0.5827
C5A C 0.02283(13) 0.1997(3) 0.53902(9)
C6A C 0.01480(15) 0.1780(4) 0.49592(10)
H8A H -0.0215 0.1956 0.4765
C7A C 0.06037(17) 0.1304(4) 0.48135(11)
H9A H 0.0548 0.1168 0.4523
C8A C 0.11381(17) 0.1034(4) 0.51010(12)
H10A H 0.1443 0.0695 0.5005
C9A C 0.12256(15) 0.1262(4) 0.55296(11)
H11A H 0.1591 0.1086 0.5721
C10A C 0.07746(13) 0.1752(3) 0.56796(9)
C11A C 0.08999(14) 0.2025(3) 0.61514(9)
H12A H 0.1318 0.1916 0.6288
H13A H 0.0799 0.2915 0.6191
C12A C 0.04334(15) -0.0097(3) 0.62738(10)
H14A H 0.0493 -0.058 0.6049
C13A C 0.01964(15) -0.0513(3) 0.65826(10)
H15A H 0.006 -0.1345 0.6604
C14A C 0.04140(14) 0.1478(3) 0.67144(10)
H16A H 0.0461 0.229 0.6841
C15A C -0.23511(19) -0.3757(4) 0.85122(12)
H17A H -0.2552 -0.2975 0.8476
C16A C -0.1999(2) -0.5555(4) 0.87536(13)
H18A H -0.1903 -0.6278 0.8929
C17A C -0.1854(2) -0.5386(5) 0.83883(15)
H19A H -0.1645 -0.5954 0.8264
C18A C -0.1987(3) -0.3583(5) 0.78566(13)
H20A H -0.2122 -0.2697 0.7847
H21A H -0.1569 -0.3569 0.7877
C19A C -0.23178(18) -0.4270(4) 0.74457(12)
C20A C -0.2901(2) -0.4541(5) 0.73776(15)
H22A H -0.3084 -0.4323 0.7586
C21A C -0.32168(19) -0.5118(4) 0.70149(15)
H23A H -0.3612 -0.5309 0.698
C22A C -0.2965(2) -0.5429(4) 0.66960(14)
H24A H -0.3186 -0.5811 0.6444
C23A C -0.2371(2) -0.5158(4) 0.67586(13)
H25A H -0.2192 -0.5358 0.6546
C24A C -0.20373(16) -0.4581(3) 0.71426(11)
C25A C -0.13950(18) -0.4336(4) 0.71952(15)
H26A H -0.1166 -0.4675 0.7469
H27A H -0.1276 -0.479 0.6973
C26A C -0.15838(17) -0.2098(4) 0.68728(12)
H28A H -0.1943 -0.2249 0.667
C27A C -0.12697(16) -0.1003(4) 0.69302(11)
H29A H -0.1378 -0.0251 0.6772
C28A C -0.07810(15) -0.2336(3) 0.73979(11)
H30A H -0.0493 -0.2698 0.7624
C29A C -0.30380(14) 0.6490(3) 0.43506(9)
C30A C -0.32966(13) 0.7813(3) 0.42434(8)
C31A C -0.29523(12) 0.8891(2) 0.43981(8)
H31A H -0.2572 0.8786 0.4577
C32A C -0.31734(12) 1.0128(2) 0.42861(8)
C33A C -0.27926(12) 1.1290(3) 0.44634(8)
C34A C -0.37422(12) 1.0281(3) 0.40226(8)
H32A H -0.3888 1.1103 0.3939
C35A C -0.40927(12) 0.9208(3) 0.38835(9)
C36A C -0.38711(12) 0.7977(3) 0.39896(9)
H33A H -0.4107 0.726 0.3891
Cd1_2 Cd 0.248028(9) 1.417943(18) 1.049377(6)
Cd1A_2 Cd -0.248028(9) 1.417943(18) 0.450623(6)
Cd1D Cd -0.248028(9) -0.417943(18) 0.950623(6)
Cd1E Cd 0.248028(9) -0.417943(18) 0.549377(6)
Cd1F Cd 0.251972(9) 1.082057(18) 0.950623(6)
Cd1G Cd -0.251972(9) 1.082057(18) 0.549377(6)
N5D N -0.23077(13) 0.4519(3) 0.38321(9)
N5E N 0.23077(13) 0.4519(3) 1.11679(9)
O3F O 0.26248(9) 0.38290(19) 0.97965(6)
O3G O -0.26248(9) 0.38290(19) 0.52035(6)
O4_2 O 0.29330(10) 0.23326(19) 1.07415(7)
O4A_2 O -0.29330(10) 0.23326(19) 0.42585(7)
O9 O 0.000 0.4197(6) 0.750
H34 H -0.007(7) 0.453(13) 0.726(2)
H34A H 0.007(7) 0.453(13) 0.774(2)
O10 O 0.39022(15) 0.3437(3) 0.13309(10)
H35 H 0.3606(15) 0.304(4) 0.1199(16)
H36 H 0.387(2) 0.416(2) 0.1224(16)
O11 O 0.6065(2) 0.7588(4) 0.09627(16)
H37 H 0.583(3) 0.799(5) 0.106(2)
H38 H 0.624(3) 0.818(4) 0.088(2)
loop_
_geom_bond_atom_site_label_1
_geom_bond_atom_site_label_2
_geom_bond_site_symmetry_1
_geom_bond_site_symmetry_2
Cd1 N1 1_555 1_555
Cd2 N4 1_555 1_555
N1 C1 1_555 1_555
N2 C1 1_555 1_555
N3 C11 1_555 1_555
N4 C13 1_555 1_555
N5 C15 1_555 1_555
N6 C15 1_555 1_555
N7 Cd2 1_555 1_555
N8 C25 1_555 1_555
O1 Cd1 1_555 1_555
O2 Cd1 1_555 1_555
O3 C33 1_555 1_555
O4 C33 1_555 1_555
O5 S1 1_555 1_555
O6 S1 1_555 1_555
O7 S1 1_555 1_555
O8 Cd2 1_555 1_555
H1 O8 1_555 1_555
H2 O8 1_555 1_555
S1 C35 1_555 1_555
C1 H3 1_555 1_555
C2 N1 1_555 1_555
H4 C2 1_555 1_555
C3 N2 1_555 1_555
H5 C3 1_555 1_555
C4 N2 1_555 1_555
H6 C4 1_555 1_555
H7 C4 1_555 1_555
C5 C4 1_555 1_555
C6 C5 1_555 1_555
H8 C6 1_555 1_555
C7 C6 1_555 1_555
H9 C7 1_555 1_555
C8 C7 1_555 1_555
H10 C8 1_555 1_555
C9 C8 1_555 1_555
H11 C9 1_555 1_555
C10 C5 1_555 1_555
C11 C10 1_555 1_555
H12 C11 1_555 1_555
H13 C11 1_555 1_555
C12 N3 1_555 1_555
H14 C12 1_555 1_555
C13 C12 1_555 1_555
H15 C13 1_555 1_555
C14 N3 1_555 1_555
H16 C14 1_555 1_555
C15 H17 1_555 1_555
C16 N5 1_555 1_555
H18 C16 1_555 1_555
C17 N6 1_555 1_555
H19 C17 1_555 1_555
C18 N6 1_555 1_555
H20 C18 1_555 1_555
H21 C18 1_555 1_555
C19 C18 1_555 1_555
C20 C19 1_555 1_555
H22 C20 1_555 1_555
C21 C20 1_555 1_555
H23 C21 1_555 1_555
C22 C21 1_555 1_555
H24 C22 1_555 1_555
C23 C22 1_555 1_555
H25 C23 1_555 1_555
C24 C19 1_555 1_555
C25 C24 1_555 1_555
H26 C25 1_555 1_555
H27 C25 1_555 1_555
C26 N8 1_555 1_555
H28 C26 1_555 1_555
C27 N7 1_555 1_555
H29 C27 1_555 1_555
C28 N7 1_555 1_555
H30 C28 1_555 1_555
C29 O1 1_555 1_555
C30 C29 1_555 1_555
C31 C30 1_555 1_555
H31 C31 1_555 1_555
C32 C31 1_555 1_555
C33 C32 1_555 1_555
C34 C32 1_555 1_555
H32 C34 1_555 1_555
C35 C34 1_555 1_555
C36 C30 1_555 1_555
H33 C36 1_555 1_555
O9 H34 1_555 1_555
O10 H35 1_555 1_555
H36 O10 1_555 1_555
O11 H37 1_555 1_555
H38 O11 1_555 1_555
Cd1A N1A 1_555 1_555
N1A C1A 1_555 1_555
N2A C1A 1_555 1_555
N3A C11A 1_555 1_555
N4A Cd2 1_555 1_555
N5A C15A 1_555 1_555
N6A C15A 1_555 1_555
N7A Cd2 1_555 1_555
N8A C25A 1_555 1_555
O1A Cd1A 1_555 1_555
O2A Cd1A 1_555 1_555
O3A C33A 1_555 1_555
O4A C33A 1_555 1_555
O5A S1A 1_555 1_555
O6A S1A 1_555 1_555
O7A S1A 1_555 1_555
O8A Cd2 1_555 1_555
H1A O8A 1_555 1_555
H2A O8A 1_555 1_555
S1A C35A 1_555 1_555
C1A H3A 1_555 1_555
C2A N1A 1_555 1_555
H4A C2A 1_555 1_555
C3A N2A 1_555 1_555
H5A C3A 1_555 1_555
C4A N2A 1_555 1_555
H6A C4A 1_555 1_555
H7A C4A 1_555 1_555
C5A C4A 1_555 1_555
C6A C5A 1_555 1_555
H8A C6A 1_555 1_555
C7A C6A 1_555 1_555
H9A C7A 1_555 1_555
C8A C7A 1_555 1_555
H10A C8A 1_555 1_555
C9A C8A 1_555 1_555
H11A C9A 1_555 1_555
C10A C5A 1_555 1_555
C11A C10A 1_555 1_555
H12A C11A 1_555 1_555
H13A C11A 1_555 1_555
C12A N3A 1_555 1_555
H14A C12A 1_555 1_555
C13A N4A 1_555 1_555
H15A C13A 1_555 1_555
C14A N3A 1_555 1_555
H16A C14A 1_555 1_555
C15A H17A 1_555 1_555
C16A N5A 1_555 1_555
H18A C16A 1_555 1_555
C17A N6A 1_555 1_555
H19A C17A 1_555 1_555
C18A N6A 1_555 1_555
H20A C18A 1_555 1_555
H21A C18A 1_555 1_555
C19A C18A 1_555 1_555
C20A C19A 1_555 1_555
H22A C20A 1_555 1_555
C21A C20A 1_555 1_555
H23A C21A 1_555 1_555
C22A C21A 1_555 1_555
H24A C22A 1_555 1_555
C23A C22A 1_555 1_555
H25A C23A 1_555 1_555
C24A C19A 1_555 1_555
C25A C24A 1_555 1_555
H26A C25A 1_555 1_555
H27A C25A 1_555 1_555
C26A N8A 1_555 1_555
H28A C26A 1_555 1_555
C27A N7A 1_555 1_555
H29A C27A 1_555 1_555
C28A N7A 1_555 1_555
H30A C28A 1_555 1_555
C29A O1A 1_555 1_555
C30A C29A 1_555 1_555
C31A C30A 1_555 1_555
H31A C31A 1_555 1_555
C32A C31A 1_555 1_555
C33A C32A 1_555 1_555
C34A C32A 1_555 1_555
H32A C34A 1_555 1_555
C35A C34A 1_555 1_555
C36A C30A 1_555 1_555
H33A C36A 1_555 1_555
Cd1_2 O4 1_555 1_555
Cd1A_2 O4A 1_555 1_555
Cd1D N5A 1_555 1_555
Cd1E N5 1_555 1_555
Cd1F O3 1_555 1_555
Cd1G O3A 1_555 1_555
N5D Cd1A 1_555 1_555
N5E Cd1 1_555 1_555
O3F Cd1 1_555 1_555
O3G Cd1A 1_555 1_555
O4_2 Cd1 1_555 1_555
O4A_2 Cd1A 1_555 1_555
H34A O9 1_555 1_555
N4 C14 1_555 1_555
N8 C28 1_555 1_555
O2 C29 1_555 1_555
C2 C3 1_555 1_555
C9 C10 1_555 1_555
C16 C17 1_555 1_555
C23 C24 1_555 1_555
C26 C27 1_555 1_555
C35 C36 1_555 1_555
N4A C14A 1_555 1_555
N8A C28A 1_555 1_555
O2A C29A 1_555 1_555
C2A C3A 1_555 1_555
C9A C10A 1_555 1_555
C12A C13A 1_555 1_555
C16A C17A 1_555 1_555
C23A C24A 1_555 1_555
C26A C27A 1_555 1_555
C35A C36A 1_555 1_555

#END
