
#######################################################################
#
#                 Cambridge Crystallographic Data Centre
#                                CCDC 
#
#######################################################################
#
# If this CIF has been generated from an entry in the Cambridge 
# Structural Database, then it will include bibliographic, chemical, 
# crystal, experimental, refinement or atomic coordinate data resulting 
# from the CCDC's data processing and validation procedures.
#
#######################################################################

data_LUMPIT
_symmetry_cell_setting           monoclinic
_symmetry_space_group_name_H-M   'P 21/c'
_symmetry_Int_Tables_number      14
_space_group_name_Hall           '-P 2ybc'
loop_
_symmetry_equiv_pos_site_id
_symmetry_equiv_pos_as_xyz
1 x,y,z
2 -x,1/2+y,1/2-z
3 -x,-y,-z
4 x,1/2-y,1/2+z
_cell_length_a                   12.073(2)
_cell_length_b                   8.6984(17)
_cell_length_c                   16.254(3)
_cell_angle_alpha                90
_cell_angle_beta                 99.42(3)
_cell_angle_gamma                90
_cell_volume                     1683.91
loop_
_atom_site_label
_atom_site_type_symbol
_atom_site_fract_x
_atom_site_fract_y
_atom_site_fract_z
Ag1 Ag 0.782424(18) 0.52974(3) 0.135117(14)
C1 C 0.8295(2) 1.1397(3) 0.28409(15)
H1 H 0.8997 1.1328 0.2679
C2 C 0.7819(2) 1.2835(3) 0.29267(15)
C3 C 0.6213(3) 1.4474(4) 0.3241(3)
H2 H 0.6704 1.5275 0.3112
H3 H 0.6060 1.4616 0.3797
H4 H 0.5522 1.4512 0.2853
C4 C 0.6289(3) 0.7752(4) 0.0132(2)
H5 H 0.6957 0.7600 0.0534
H6 H 0.5860 0.8582 0.0309
H7 H 0.6492 0.7995 -0.0400
C5 C 0.4116(3) 0.7513(4) -0.1016(2)
H8 H 0.3412 0.7218 -0.1343
H9 H 0.4001 0.8372 -0.0669
H10 H 0.4634 0.7794 -0.1379
C6 C 0.7733(2) 1.0073(3) 0.29944(17)
C7 C 0.6697(3) 1.0154(3) 0.3252(2)
H11 H 0.6321 0.9264 0.3365
C8 C 0.6232(3) 1.1586(4) 0.3337(2)
H12 H 0.5535 1.1644 0.3508
C9 C 0.6766(3) 1.2937(3) 0.31793(18)
C10 C 0.9721(2) 0.6394(3) 0.02651(16)
C11 C 1.0542(2) 0.6234(3) -0.02363(17)
C12 C 1.1136(3) 0.7593(4) -0.0508(2)
H13 H 1.1672 0.7260 -0.0847
H14 H 1.0601 0.8270 -0.0827
H15 H 1.1518 0.8127 -0.0028
C13 C 0.9404(3) 0.7943(3) 0.05472(19)
H16 H 0.8826 0.7834 0.0884
H17 H 0.9132 0.8567 0.0070
H18 H 1.0050 0.8422 0.0869
C14 C 0.5602(2) 0.6318(3) 0.00586(17)
C15 C 0.4582(2) 0.6195(3) -0.04807(17)
N1 N 0.9185(2) 0.5160(3) 0.04966(15)
N2 N 0.6011(2) 0.5112(3) 0.05330(15)
O1 O 0.7542(2) 0.7680(2) 0.20754(13)
O2 O 0.8210(2) 0.7311(2) 0.35386(13)
O3 O 0.9415(2) 0.8470(3) 0.26739(17)
S1 S 0.82835(6) 0.82426(7) 0.28143(4)
N3 N 0.8361(2) 1.4173(3) 0.27068(16)
H19 H 0.825(3) 1.495(4) 0.303(2)
H20 H 0.904(3) 1.403(4) 0.2673(19)
Ag1B Ag 1.217576(18) 0.47026(3) -0.135117(14)
Ag1_2 Ag 0.782424(18) 1.52974(3) 0.135117(14)
Ag1B_2 Ag 0.217576(18) 0.47026(3) -0.135117(14)
Ag1_3 Ag 0.782424(18) -0.47026(3) 0.135117(14)
C1_2 C 0.8295(2) 0.1397(3) 0.28409(15)
H1_2 H 0.8997 0.1328 0.2679
C2_2 C 0.7819(2) 0.2835(3) 0.29267(15)
C3_2 C 0.6213(3) 0.4474(4) 0.3241(3)
H2_2 H 0.6704 0.5275 0.3112
H3_2 H 0.6060 0.4616 0.3797
H4_2 H 0.5522 0.4512 0.2853
C4B C 0.3711(3) 0.2248(4) -0.0132(2)
H5B H 0.3043 0.2400 -0.0534
H6B H 0.4140 0.1418 -0.0309
H7B H 0.3508 0.2005 0.0400
C5B C 0.5884(3) 0.2487(4) 0.1016(2)
H8B H 0.6588 0.2782 0.1343
H9B H 0.5999 0.1628 0.0669
H10B H 0.5366 0.2206 0.1379
C6_2 C 0.7733(2) 0.0073(3) 0.29944(17)
C7_2 C 0.6697(3) 0.0154(3) 0.3252(2)
H11_2 H 0.6321 -0.0736 0.3365
C8_2 C 0.6232(3) 0.1586(4) 0.3337(2)
H12_2 H 0.5535 0.1644 0.3508
C9_2 C 0.6766(3) 0.2937(3) 0.31793(18)
C10B C 1.0279(2) 0.3606(3) -0.02651(16)
C11B C 0.9458(2) 0.3766(3) 0.02363(17)
C12B C 0.8864(3) 0.2407(4) 0.0508(2)
H13B H 0.8328 0.2740 0.0847
H14B H 0.9399 0.1730 0.0827
H15B H 0.8482 0.1873 0.0028
C13B C 1.0596(3) 0.2057(3) -0.05472(19)
H16B H 1.1174 0.2166 -0.0884
H17B H 1.0868 0.1433 -0.0070
H18B H 0.9950 0.1578 -0.0869
C14B C 0.4398(2) 0.3682(3) -0.00586(17)
C15B C 0.5418(2) 0.3805(3) 0.04807(17)
N1B N 1.0815(2) 0.4840(3) -0.04966(15)
N1_2 N 0.9185(2) 1.5160(3) 0.04966(15)
N2B N 0.3989(2) 0.4888(3) -0.05330(15)
N2_2 N 0.6011(2) 1.5112(3) 0.05330(15)
O1_2 O 0.7542(2) -0.2320(2) 0.20754(13)
O1_3 O 0.7542(2) 1.7680(2) 0.20754(13)
O2_2 O 0.8210(2) -0.2689(2) 0.35386(13)
O3_2 O 0.9415(2) -0.1530(3) 0.26739(17)
S1_2 S 0.82835(6) -0.17574(7) 0.28143(4)
N3_2 N 0.8361(2) 0.4173(3) 0.27068(16)
H19_2 H 0.825(3) 0.495(4) 0.303(2)
H20_2 H 0.904(3) 0.403(4) 0.2673(19)
loop_
_geom_bond_atom_site_label_1
_geom_bond_atom_site_label_2
_geom_bond_site_symmetry_1
_geom_bond_site_symmetry_2
Ag1 N1 1_555 1_555
C1 H1 1_555 1_555
C2 C1 1_555 1_555
C3 H2 1_555 1_555
H3 C3 1_555 1_555
H4 C3 1_555 1_555
C4 H5 1_555 1_555
H6 C4 1_555 1_555
H7 C4 1_555 1_555
C5 H8 1_555 1_555
H9 C5 1_555 1_555
H10 C5 1_555 1_555
C6 C1 1_555 1_555
C7 C6 1_555 1_555
H11 C7 1_555 1_555
C8 C7 1_555 1_555
H12 C8 1_555 1_555
C9 C2 1_555 1_555
C10 C11 1_555 1_555
C11 C12 1_555 1_555
C12 H13 1_555 1_555
H14 C12 1_555 1_555
H15 C12 1_555 1_555
C13 C10 1_555 1_555
H16 C13 1_555 1_555
H17 C13 1_555 1_555
H18 C13 1_555 1_555
C14 C4 1_555 1_555
C15 C5 1_555 1_555
N1 C10 1_555 1_555
N2 Ag1 1_555 1_555
O1 Ag1 1_555 1_555
O2 S1 1_555 1_555
O3 S1 1_555 1_555
S1 C6 1_555 1_555
N3 C2 1_555 1_555
H19 N3 1_555 1_555
H20 N3 1_555 1_555
Ag1B N1B 1_555 1_555
Ag1_2 N3 1_555 1_555
Ag1B_2 N2B 1_555 1_555
Ag1_3 O1_2 1_555 1_555
C1_2 H1_2 1_555 1_555
C2_2 C1_2 1_555 1_555
C3_2 H2_2 1_555 1_555
H3_2 C3_2 1_555 1_555
H4_2 C3_2 1_555 1_555
C4B H5B 1_555 1_555
H6B C4B 1_555 1_555
H7B C4B 1_555 1_555
C5B H8B 1_555 1_555
H9B C5B 1_555 1_555
H10B C5B 1_555 1_555
C6_2 C1_2 1_555 1_555
C7_2 C6_2 1_555 1_555
H11_2 C7_2 1_555 1_555
C8_2 C7_2 1_555 1_555
H12_2 C8_2 1_555 1_555
C9_2 C2_2 1_555 1_555
C10B C11B 1_555 1_555
C11B N1 1_555 1_555
C12B C11B 1_555 1_555
H13B C12B 1_555 1_555
H14B C12B 1_555 1_555
H15B C12B 1_555 1_555
C13B C10B 1_555 1_555
H16B C13B 1_555 1_555
H17B C13B 1_555 1_555
H18B C13B 1_555 1_555
C14B C4B 1_555 1_555
C15B N2 1_555 1_555
N1B C11 1_555 1_555
N1_2 Ag1_2 1_555 1_555
N2B C15 1_555 1_555
N2_2 Ag1_2 1_555 1_555
O1_2 S1_2 1_555 1_555
O1_3 Ag1_2 1_555 1_555
O2_2 S1_2 1_555 1_555
O3_2 S1_2 1_555 1_555
S1_2 C6_2 1_555 1_555
N3_2 Ag1 1_555 1_555
H19_2 N3_2 1_555 1_555
H20_2 N3_2 1_555 1_555
C3 C9 1_555 1_555
C8 C9 1_555 1_555
C14 C15 1_555 1_555
C14 N2 1_555 1_555
O1 S1 1_555 1_555
C2_2 N3_2 1_555 1_555
C3_2 C9_2 1_555 1_555
C5B C15B 1_555 1_555
C8_2 C9_2 1_555 1_555
C10B N1B 1_555 1_555
C14B C15B 1_555 1_555
C14B N2B 1_555 1_555

#END
