
#######################################################################
#
#                 Cambridge Crystallographic Data Centre
#                                CCDC 
#
#######################################################################
#
# If this CIF has been generated from an entry in the Cambridge 
# Structural Database, then it will include bibliographic, chemical, 
# crystal, experimental, refinement or atomic coordinate data resulting 
# from the CCDC's data processing and validation procedures.
#
#######################################################################

data_LUMYOJ
_symmetry_cell_setting           monoclinic
_symmetry_space_group_name_H-M   'C 2/c'
_symmetry_Int_Tables_number      15
_space_group_name_Hall           '-C 2yn'
loop_
_symmetry_equiv_pos_site_id
_symmetry_equiv_pos_as_xyz
1 x,y,z
2 -x,y,1/2-z
3 1/2+x,1/2+y,z
4 1/2-x,1/2+y,1/2-z
5 -x,-y,-z
6 x,-y,1/2+z
7 1/2-x,1/2-y,-z
8 1/2+x,1/2-y,1/2+z
_cell_length_a                   24.338(5)
_cell_length_b                   9.4877(19)
_cell_length_c                   16.502(3)
_cell_angle_alpha                90
_cell_angle_beta                 119.89(3)
_cell_angle_gamma                90
_cell_volume                     3303.64
loop_
_atom_site_label
_atom_site_type_symbol
_atom_site_fract_x
_atom_site_fract_y
_atom_site_fract_z
Cu1 Cu 1.042716(13) 0.82361(3) 0.03963(2)
Cu2 Cu 0.957200(13) 0.61493(3) 0.12225(2)
N1 N 0.86306(9) 0.9823(2) -0.02937(15)
N2 N 0.92087(9) 0.9935(2) -0.02155(14)
N3 N 0.95359(8) 0.8789(2) 0.01690(14)
N4 N 0.91801(8) 0.7897(2) 0.03613(14)
N5 N 0.91764(9) 0.6822(2) 0.20098(13)
N6 N 0.95187(9) 0.6989(2) 0.29279(13)
N7 N 0.91779(9) 0.7645(2) 0.32342(14)
N8 N 0.86000(9) 0.7913(3) 0.25217(14)
C1 C 1.04375(12) 0.6686(3) -0.03586(17)
C2 C 0.74918(10) 0.6979(3) 0.07708(17)
H1 H 0.7492 0.6625 0.1296
C3 C 0.80603(10) 0.7438(3) 0.08491(16)
C4 C 0.80715(10) 0.7963(3) 0.00681(16)
C5 C 0.86330(10) 0.8555(3) 0.00706(16)
C6 C 0.86185(10) 0.7401(3) 0.17876(16)
N9 N 1.04457(12) 0.5666(3) -0.07067(18)
N1F N 0.63694(9) 0.5177(2) 0.02937(15)
N2F N 0.57913(9) 0.5065(2) 0.02155(14)
N3F N 0.54641(8) 0.6211(2) -0.01690(14)
N4F N 0.58199(8) 0.7103(2) -0.03613(14)
N5F N 0.58236(9) 0.8178(2) -0.20098(13)
N6F N 0.54813(9) 0.8011(2) -0.29279(13)
N7F N 0.58221(9) 0.7355(2) -0.32342(14)
N8F N 0.64000(9) 0.7087(3) -0.25217(14)
C2F C 0.75082(10) 0.8021(3) -0.07708(17)
H1F H 0.7508 0.8375 -0.1296
C3F C 0.69397(10) 0.7562(3) -0.08491(16)
C4F C 0.69285(10) 0.7037(3) -0.00681(16)
C5F C 0.63670(10) 0.6445(3) -0.00706(16)
C6F C 0.63815(10) 0.7599(3) -0.17876(16)
Cu1A Cu 0.957284(13) 0.82361(3) 0.46037(2)
Cu2A Cu 1.042800(13) 0.61493(3) 0.37775(2)
C1A C 0.95625(12) 0.6686(3) 0.53586(17)
N9A N 0.95543(12) 0.5666(3) 0.57067(18)
Cu1B Cu 0.542716(13) 0.32361(3) 0.03963(2)
Cu1D Cu 0.957284(13) 1.17639(3) -0.03963(2)
Cu1F Cu 0.457284(13) 0.67639(3) -0.03963(2)
Cu1G Cu 0.542716(13) 0.67639(3) -0.46037(2)
Cu2D Cu 1.042800(13) 0.38507(3) -0.12225(2)
Cu2E Cu 0.957200(13) 0.38507(3) 0.62225(2)
Cu2F Cu 0.542800(13) 0.88507(3) -0.12225(2)
Cu2G Cu 0.457200(13) 0.88507(3) -0.37775(2)
N2D N 1.07913(9) 1.0065(2) 0.02155(14)
N2E N 0.92087(9) 1.0065(2) 0.47845(14)
N3A N 1.04641(8) 0.8789(2) 0.48310(14)
N4A N 1.08199(8) 0.7897(2) 0.46387(14)
N5A N 1.08236(9) 0.6822(2) 0.29902(13)
N6A N 1.04813(9) 0.6989(2) 0.20721(13)
N7A N 1.08221(9) 0.7645(2) 0.17658(14)
N9D N 0.95543(12) 0.4334(3) 0.07067(18)
N9E N 1.04457(12) 0.4334(3) 0.42933(18)
O1 O 0.7649(4) 0.1242(10) 0.8086(6)
H2 H 0.7860 0.0545 0.8419
H3 H 0.7871 0.1983 0.8189
O2 O 0.6206(6) 0.0888(15) 0.6620(9)
O3 O 1.0000 0.902(4) 0.7500
loop_
_geom_bond_atom_site_label_1
_geom_bond_atom_site_label_2
_geom_bond_site_symmetry_1
_geom_bond_site_symmetry_2
Cu1 N3 1_555 1_555
Cu2 N4 1_555 1_555
N1 N2 1_555 1_555
N2 N3 1_555 1_555
N3 N4 1_555 1_555
N4 C5 1_555 1_555
N5 Cu2 1_555 1_555
N6 N5 1_555 1_555
N7 N6 1_555 1_555
N8 N7 1_555 1_555
C1 Cu1 1_555 1_555
C2 H1 1_555 1_555
C3 C2 1_555 1_555
C4 C3 1_555 1_555
C5 N1 1_555 1_555
C6 N5 1_555 1_555
N9 C1 1_555 1_555
O1 H2 1_555 1_555
H3 O1 1_555 1_555
N1F N2F 1_555 1_555
N2F N3F 1_555 1_555
N3F N4F 1_555 1_555
N4F C5F 1_555 1_555
N5F N6F 1_555 1_555
N6F N7F 1_555 1_555
N7F N8F 1_555 1_555
N8F C6F 1_555 1_555
C2F C4 1_555 1_555
H1F C2F 1_555 1_555
C3F C2F 1_555 1_555
C4F C2 1_555 1_555
C5F N1F 1_555 1_555
C6F N5F 1_555 1_555
Cu1A N7 1_555 1_555
Cu2A N6 1_555 1_555
C1A Cu1A 1_555 1_555
N9A C1A 1_555 1_555
Cu1B N2F 1_555 1_555
Cu1D N2 1_555 1_555
Cu1F N3F 1_555 1_555
Cu1G N7F 1_555 1_555
Cu2D N9 1_555 1_555
Cu2E N9A 1_555 1_555
Cu2F N4F 1_555 1_555
Cu2G N6F 1_555 1_555
N2D Cu1 1_555 1_555
N2E Cu1A 1_555 1_555
N3A Cu1A 1_555 1_555
N4A Cu2A 1_555 1_555
N5A Cu2A 1_555 1_555
N6A Cu2 1_555 1_555
N7A Cu1 1_555 1_555
N9D Cu2 1_555 1_555
N9E Cu2A 1_555 1_555
N8 C6 1_555 1_555
C3 C6 1_555 1_555
C4 C5 1_555 1_555
N5F Cu2F 1_555 1_555
C3F C4F 1_555 1_555
C3F C6F 1_555 1_555
C4F C5F 1_555 1_555
N3A N4A 1_555 1_555
N5A N6A 1_555 1_555
N6A N7A 1_555 1_555

#END
