
#######################################################################
#
#                 Cambridge Crystallographic Data Centre
#                                CCDC 
#
#######################################################################
#
# If this CIF has been generated from an entry in the Cambridge 
# Structural Database, then it will include bibliographic, chemical, 
# crystal, experimental, refinement or atomic coordinate data resulting 
# from the CCDC's data processing and validation procedures.
#
#######################################################################

data_LUNCON
_symmetry_cell_setting           orthorhombic
_symmetry_space_group_name_H-M   'P n a 21'
_symmetry_Int_Tables_number      33
_space_group_name_Hall           'P 2c -2n'
loop_
_symmetry_equiv_pos_site_id
_symmetry_equiv_pos_as_xyz
1 x,y,z
2 -x,-y,1/2+z
3 1/2+x,1/2-y,z
4 1/2-x,1/2+y,1/2+z
_cell_length_a                   14.8855(6)
_cell_length_b                   19.4823(8)
_cell_length_c                   7.6427(3)
_cell_angle_alpha                90
_cell_angle_beta                 90
_cell_angle_gamma                90
_cell_volume                     2216.41
loop_
_atom_site_label
_atom_site_type_symbol
_atom_site_fract_x
_atom_site_fract_y
_atom_site_fract_z
Co1 Co 0.289116(18) 0.582271(13) 0.21311(4)
O1 O 0.28790(12) 0.49227(10) 0.0531(2)
O2 O 0.27631(14) 0.48105(9) 0.3356(3)
O3 O 0.21653(13) 0.15111(12) -0.0972(3)
O4 O 0.21945(15) 0.12018(9) 0.1809(3)
O5 O 0.30419(13) 0.65592(11) 0.0174(3)
H1 H 0.2892 0.6452 -0.0865
H2 H 0.2946 0.6971 0.0493
N1 N 0.43617(12) 0.58209(9) 0.2291(4)
N2 N 0.73740(14) 0.69035(10) 0.1426(3)
N3 N 0.82944(14) 0.69299(10) 0.1272(3)
N4 N 0.79049(12) 0.58640(9) 0.1764(3)
N5 N 0.79884(11) 0.51545(8) 0.2081(4)
H3 H 0.7644 0.5007 0.2974
H4 H 0.7756 0.5051 0.1026
N6 N 1.14338(13) 0.59246(9) 0.1873(4)
C1 C 0.62139(14) 0.60511(10) 0.2017(4)
C2 C 0.58310(16) 0.54479(12) 0.1402(3)
H5 H 0.6186 0.5108 0.0900
C3 C 0.49132(17) 0.53623(12) 0.1549(3)
H6 H 0.4662 0.4961 0.1105
C4 C 0.47506(18) 0.63849(14) 0.2954(4)
H7 H 0.4389 0.6705 0.3515
C5 C 0.56587(18) 0.65136(13) 0.2845(4)
H8 H 0.5896 0.6912 0.3329
C6 C 0.71536(15) 0.62599(12) 0.1717(3)
C7 C 0.86048(16) 0.63032(12) 0.1506(3)
C8 C 0.95709(15) 0.61412(12) 0.1599(4)
C9 C 1.01660(17) 0.66690(12) 0.1794(5)
H9 H 0.9956 0.7118 0.1831
C10 C 1.10741(17) 0.65437(12) 0.1938(6)
H10 H 1.1456 0.6917 0.2089
C11 C 1.08533(19) 0.54191(14) 0.1691(7)
H11 H 1.1082 0.4975 0.1661
C12 C 0.9936(2) 0.54941(14) 0.1541(7)
H12 H 0.9569 0.5112 0.1403
C13 C 0.26566(16) 0.37858(11) 0.1627(3)
C14 C 0.18769(18) 0.35485(13) 0.0918(4)
H13 H 0.1424 0.3858 0.0631
C15 C 0.17458(19) 0.28478(12) 0.0614(4)
H14 H 0.1212 0.2698 0.0108
C16 C 0.23958(18) 0.23793(12) 0.1055(3)
C17 C 0.32210(17) 0.26048(11) 0.1788(3)
C18 C 0.39349(17) 0.21455(11) 0.2162(5)
H15 H 0.3857 0.1677 0.1978
C19 C 0.4730(2) 0.23821(16) 0.2786(5)
H16 H 0.5189 0.2074 0.3032
C20 C 0.4867(2) 0.30839(16) 0.3065(5)
H17 H 0.5416 0.3239 0.3488
C21 C 0.41995(18) 0.35406(13) 0.2718(3)
H18 H 0.4297 0.4006 0.2916
C22 C 0.33575(14) 0.33191(10) 0.2061(4)
C23 C 0.27823(14) 0.45481(11) 0.1856(4)
C24 C 0.22383(17) 0.16316(13) 0.0630(4)
Co1C Co 0.210884(18) 0.082271(13) -0.28689(4)
Co1_2 Co 1.289116(18) 0.582271(13) 0.21311(4)
O3C O 0.28347(13) 0.65111(12) 0.4028(3)
N6_2 N 0.14338(13) 0.59246(9) 0.1873(4)
loop_
_geom_bond_atom_site_label_1
_geom_bond_atom_site_label_2
_geom_bond_site_symmetry_1
_geom_bond_site_symmetry_2
Co1 O1 1_555 1_555
O1 C23 1_555 1_555
O2 Co1 1_555 1_555
O3 C24 1_555 1_555
O4 C24 1_555 1_555
O5 Co1 1_555 1_555
H1 O5 1_555 1_555
H2 O5 1_555 1_555
N1 Co1 1_555 1_555
N2 N3 1_555 1_555
N3 C7 1_555 1_555
N4 N5 1_555 1_555
N5 H3 1_555 1_555
H4 N5 1_555 1_555
N6 C10 1_555 1_555
C1 C2 1_555 1_555
C2 H5 1_555 1_555
C3 N1 1_555 1_555
H6 C3 1_555 1_555
C4 N1 1_555 1_555
H7 C4 1_555 1_555
C5 C1 1_555 1_555
H8 C5 1_555 1_555
C6 N2 1_555 1_555
C7 N4 1_555 1_555
C8 C7 1_555 1_555
C9 C8 1_555 1_555
H9 C9 1_555 1_555
C10 C9 1_555 1_555
H10 C10 1_555 1_555
C11 N6 1_555 1_555
H11 C11 1_555 1_555
C12 C8 1_555 1_555
H12 C12 1_555 1_555
C13 C14 1_555 1_555
C14 H13 1_555 1_555
C15 C14 1_555 1_555
H14 C15 1_555 1_555
C16 C15 1_555 1_555
C17 C16 1_555 1_555
C18 C17 1_555 1_555
H15 C18 1_555 1_555
C19 C18 1_555 1_555
H16 C19 1_555 1_555
C20 C19 1_555 1_555
H17 C20 1_555 1_555
C21 C20 1_555 1_555
H18 C21 1_555 1_555
C22 C13 1_555 1_555
C23 O2 1_555 1_555
C24 C16 1_555 1_555
Co1C O3 1_555 1_555
Co1_2 N6 1_555 1_555
O3C Co1 1_555 1_555
N6_2 Co1 1_555 1_555
N4 C6 1_555 1_555
C1 C6 1_555 1_555
C2 C3 1_555 1_555
C4 C5 1_555 1_555
C11 C12 1_555 1_555
C13 C23 1_555 1_555
C17 C22 1_555 1_555
C21 C22 1_555 1_555

#END
