
#######################################################################
#
#                 Cambridge Crystallographic Data Centre
#                                CCDC 
#
#######################################################################
#
# If this CIF has been generated from an entry in the Cambridge 
# Structural Database, then it will include bibliographic, chemical, 
# crystal, experimental, refinement or atomic coordinate data resulting 
# from the CCDC's data processing and validation procedures.
#
#######################################################################

data_LUNRAO
_symmetry_cell_setting           orthorhombic
_symmetry_space_group_name_H-M   'P b c a'
_symmetry_Int_Tables_number      61
_space_group_name_Hall           '-P 2ac 2ab'
loop_
_symmetry_equiv_pos_site_id
_symmetry_equiv_pos_as_xyz
1 x,y,z
2 1/2-x,-y,1/2+z
3 -x,1/2+y,1/2-z
4 1/2+x,1/2-y,-z
5 -x,-y,-z
6 1/2+x,y,1/2-z
7 x,1/2-y,1/2+z
8 1/2-x,1/2+y,z
_cell_length_a                   7.0714(13)
_cell_length_b                   6.9201(13)
_cell_length_c                   27.051(5)
_cell_angle_alpha                90
_cell_angle_beta                 90
_cell_angle_gamma                90
_cell_volume                     1323.74
loop_
_atom_site_label
_atom_site_type_symbol
_atom_site_fract_x
_atom_site_fract_y
_atom_site_fract_z
Te1 Te 0.55487(13) 1.14948(13) 0.70101(4)
Zn1 Zn 0.5983(2) 0.7761(2) 0.71669(6)
N1 N 0.4508(18) 0.6436(18) 0.6578(5)
H1 H 0.4476 0.5155 0.6634
H2 H 0.3307 0.6864 0.6582
C1 C 0.526(2) 0.675(3) 0.6089(6)
H3 H 0.6619 0.6551 0.6100
H4 H 0.5042 0.8086 0.5998
C2 C 0.443(3) 0.545(3) 0.5685(6)
H5 H 0.4530 0.4110 0.5790
H6 H 0.3096 0.5745 0.5647
C3 C 0.539(3) 0.567(3) 0.5197(7)
H7 H 0.6730 0.5426 0.5238
H8 H 0.5245 0.6999 0.5086
Te1D Te 0.44513(13) -0.14948(13) 0.29899(4)
Te1B Te 0.44513(13) 0.64948(13) 0.79899(4)
Te1C Te 0.05487(13) 0.35052(13) 0.29899(4)
Te1F Te 0.55487(13) 0.35052(13) 0.20101(4)
Te1G Te 0.94513(13) 0.64948(13) 0.70101(4)
Zn1D Zn 0.4017(2) 0.2239(2) 0.28331(6)
Zn1B Zn 0.4017(2) 1.2761(2) 0.78331(6)
Zn1C Zn 0.0983(2) -0.2761(2) 0.28331(6)
Zn1F Zn 0.5983(2) -0.2761(2) 0.21669(6)
Zn1G Zn 0.9017(2) 1.2761(2) 0.71669(6)
N1D N 0.5492(18) 0.3564(18) 0.3422(5)
H1D H 0.5524 0.4845 0.3366
H2D H 0.6693 0.3136 0.3418
C1D C 0.474(2) 0.325(3) 0.3911(6)
H3D H 0.3381 0.3449 0.3900
H4D H 0.4958 0.1914 0.4002
C2D C 0.557(3) 0.455(3) 0.4315(6)
H5D H 0.5470 0.5890 0.4210
H6D H 0.6904 0.4255 0.4353
C3D C 0.461(3) 0.433(3) 0.4803(7)
H7D H 0.3270 0.4574 0.4762
H8D H 0.4755 0.3001 0.4914
loop_
_geom_bond_atom_site_label_1
_geom_bond_atom_site_label_2
_geom_bond_site_symmetry_1
_geom_bond_site_symmetry_2
Te1 Zn1 1_555 1_555
Zn1 N1 1_555 1_555
N1 H1 1_555 1_555
H2 N1 1_555 1_555
C1 N1 1_555 1_555
H3 C1 1_555 1_555
H4 C1 1_555 1_555
C2 C1 1_555 1_555
H5 C2 1_555 1_555
H6 C2 1_555 1_555
C3 C2 1_555 1_555
H7 C3 1_555 1_555
H8 C3 1_555 1_555
Te1D Zn1D 1_555 1_555
Te1B Zn1 1_555 1_555
Te1C Zn1D 1_555 1_555
Te1F Zn1D 1_555 1_555
Te1G Zn1 1_555 1_555
Zn1D N1D 1_555 1_555
Zn1B Te1 1_555 1_555
Zn1C Te1D 1_555 1_555
Zn1F Te1D 1_555 1_555
Zn1G Te1 1_555 1_555
N1D H1D 1_555 1_555
H2D N1D 1_555 1_555
C1D N1D 1_555 1_555
H3D C1D 1_555 1_555
H4D C1D 1_555 1_555
C2D C1D 1_555 1_555
H5D C2D 1_555 1_555
H6D C2D 1_555 1_555
C3D C3 1_555 1_555
H7D C3D 1_555 1_555
H8D C3D 1_555 1_555
C2D C3D 1_555 1_555

#END
