
#######################################################################
#
#                 Cambridge Crystallographic Data Centre
#                                CCDC 
#
#######################################################################
#
# If this CIF has been generated from an entry in the Cambridge 
# Structural Database, then it will include bibliographic, chemical, 
# crystal, experimental, refinement or atomic coordinate data resulting 
# from the CCDC's data processing and validation procedures.
#
#######################################################################

data_LUPCOQ
_symmetry_cell_setting           monoclinic
_symmetry_space_group_name_H-M   'C 2/c'
_symmetry_Int_Tables_number      15
_space_group_name_Hall           '-C 2yn'
loop_
_symmetry_equiv_pos_site_id
_symmetry_equiv_pos_as_xyz
1 x,y,z
2 -x,y,1/2-z
3 1/2+x,1/2+y,z
4 1/2-x,1/2+y,1/2-z
5 -x,-y,-z
6 x,-y,1/2+z
7 1/2-x,1/2-y,-z
8 1/2+x,1/2-y,1/2+z
_cell_length_a                   14.8972(5)
_cell_length_b                   16.8530(4)
_cell_length_c                   14.5964(5)
_cell_angle_alpha                90
_cell_angle_beta                 119.614(5)
_cell_angle_gamma                90
_cell_volume                     3185.92
loop_
_atom_site_label
_atom_site_type_symbol
_atom_site_fract_x
_atom_site_fract_y
_atom_site_fract_z
Zn1 Zn 0.40533(3) 0.12229(2) 0.29006(3)
N1 N 0.32422(18) -0.04368(15) -0.16101(19)
N2 N 0.78017(19) 0.29172(15) 0.7410(2)
O1 O 0.33172(15) 0.07818(13) 0.13640(16)
O2 O 0.47658(15) 0.03702(13) 0.13967(17)
O3 O 0.48605(17) 0.17723(14) 0.44656(17)
O4 O 0.5899(2) 0.26319(15) 0.42656(19)
O5 O 0.5000 0.19262(17) 0.2500
H1 H 0.5290 0.2198 0.3064
C1 C 0.3816(2) 0.04924(17) 0.0953(2)
C2 C 0.3224(2) 0.02913(18) -0.0208(2)
C3 C 0.2338(2) 0.06873(18) -0.0916(2)
H2 H 0.2017 0.1048 -0.0689
C4 C 0.1947(2) 0.05270(19) -0.1972(2)
C5 C 0.2401(2) -0.00345(19) -0.2304(2)
H3 H 0.2119 -0.0135 -0.3021
C6 C 0.3651(2) -0.02641(18) -0.0585(2)
H4 H 0.4248 -0.0528 -0.0104
C7 C 0.5624(2) 0.22364(18) 0.4807(2)
C8 C 0.6298(2) 0.23106(18) 0.5990(2)
C9 C 0.6111(2) 0.1901(2) 0.6695(3)
H5 H 0.5549 0.1561 0.6464
C10 C 0.6786(3) 0.2013(2) 0.7758(3)
C11 C 0.7617(3) 0.25293(19) 0.8096(3)
H6 H 0.8052 0.2606 0.8815
C12 C 0.7157(2) 0.28051(19) 0.6379(2)
H7 H 0.7290 0.3070 0.5900
Cl1 Cl 0.08811(6) 0.10563(6) -0.29348(6)
Cl2 Cl 0.66130(8) 0.15075(7) 0.87079(8)
H1A H 0.4710 0.2198 0.1936
Zn1A Zn 0.59467(3) 0.12229(2) 0.20994(3)
N1A N 0.67578(18) -0.04368(15) 0.66101(19)
N2A N 0.21983(19) 0.29172(15) -0.2410(2)
O1A O 0.66828(15) 0.07818(13) 0.36360(16)
O2A O 0.52342(15) 0.03702(13) 0.36033(17)
O3A O 0.51395(17) 0.17723(14) 0.05344(17)
O4A O 0.4101(2) 0.26319(15) 0.07344(19)
C1A C 0.6184(2) 0.04924(17) 0.4047(2)
C2A C 0.6776(2) 0.02913(18) 0.5208(2)
C3A C 0.7662(2) 0.06873(18) 0.5916(2)
H2A H 0.7983 0.1048 0.5689
C4A C 0.8053(2) 0.05270(19) 0.6972(2)
C5A C 0.7599(2) -0.00345(19) 0.7304(2)
H3A H 0.7881 -0.0135 0.8021
C6A C 0.6349(2) -0.02641(18) 0.5585(2)
H4A H 0.5752 -0.0528 0.5104
C7A C 0.4376(2) 0.22364(18) 0.0193(2)
C8A C 0.3702(2) 0.23106(18) -0.0990(2)
C9A C 0.3889(2) 0.1901(2) -0.1695(3)
H5A H 0.4451 0.1561 -0.1464
C10A C 0.3214(3) 0.2013(2) -0.2758(3)
C11A C 0.2383(3) 0.25293(19) -0.3096(3)
H6A H 0.1948 0.2606 -0.3815
C12A C 0.2843(2) 0.28051(19) -0.1379(2)
H7A H 0.2710 0.3070 -0.0900
Cl1A Cl 0.91189(6) 0.10563(6) 0.79348(6)
Cl2A Cl 0.33870(8) 0.15075(7) -0.37079(8)
Zn1D Zn 0.59467(3) -0.12229(2) 0.70994(3)
Zn1E Zn 0.40533(3) -0.12229(2) -0.20994(3)
Zn1F Zn 0.09467(3) 0.37771(2) -0.29006(3)
Zn1G Zn 0.90533(3) 0.37771(2) 0.79006(3)
N1D N 0.67578(18) 0.04368(15) 0.16101(19)
N1E N 0.32422(18) 0.04368(15) 0.33899(19)
N2F N 0.71983(19) 0.20828(15) 0.2590(2)
N2G N 0.28017(19) 0.20828(15) 0.2410(2)
loop_
_geom_bond_atom_site_label_1
_geom_bond_atom_site_label_2
_geom_bond_site_symmetry_1
_geom_bond_site_symmetry_2
Zn1 O1 1_555 1_555
N1 C5 1_555 1_555
N2 C11 1_555 1_555
O1 C1 1_555 1_555
O2 C1 1_555 1_555
O3 Zn1 1_555 1_555
O4 C7 1_555 1_555
O5 Zn1 1_555 1_555
H1 O5 1_555 1_555
C1 C2 1_555 1_555
C2 C3 1_555 1_555
C3 H2 1_555 1_555
C4 C3 1_555 1_555
C5 C4 1_555 1_555
H3 C5 1_555 1_555
C6 N1 1_555 1_555
H4 C6 1_555 1_555
C7 O3 1_555 1_555
C8 C7 1_555 1_555
C9 C8 1_555 1_555
H5 C9 1_555 1_555
C10 C9 1_555 1_555
C11 C10 1_555 1_555
H6 C11 1_555 1_555
C12 N2 1_555 1_555
H7 C12 1_555 1_555
Cl1 C4 1_555 1_555
Cl2 C10 1_555 1_555
H1A O5 1_555 1_555
Zn1A O2 1_555 1_555
N1A C5A 1_555 1_555
N2A C11A 1_555 1_555
O1A Zn1A 1_555 1_555
O2A Zn1 1_555 1_555
O3A Zn1A 1_555 1_555
O4A C7A 1_555 1_555
C1A O1A 1_555 1_555
C2A C1A 1_555 1_555
C3A C2A 1_555 1_555
H2A C3A 1_555 1_555
C4A C3A 1_555 1_555
C5A C4A 1_555 1_555
H3A C5A 1_555 1_555
C6A N1A 1_555 1_555
H4A C6A 1_555 1_555
C7A O3A 1_555 1_555
C8A C7A 1_555 1_555
C9A C8A 1_555 1_555
H5A C9A 1_555 1_555
C10A C9A 1_555 1_555
C11A C10A 1_555 1_555
H6A C11A 1_555 1_555
C12A N2A 1_555 1_555
H7A C12A 1_555 1_555
Cl1A C4A 1_555 1_555
Cl2A C10A 1_555 1_555
Zn1D N1A 1_555 1_555
Zn1E N1 1_555 1_555
Zn1F N2A 1_555 1_555
Zn1G N2 1_555 1_555
N1D Zn1A 1_555 1_555
N1E Zn1 1_555 1_555
N2F Zn1A 1_555 1_555
N2G Zn1 1_555 1_555
O5 Zn1A 1_555 1_555
C2 C6 1_555 1_555
C8 C12 1_555 1_555
O2A C1A 1_555 1_555
C2A C6A 1_555 1_555
C8A C12A 1_555 1_555

#END
