
#######################################################################
#
#                 Cambridge Crystallographic Data Centre
#                                CCDC 
#
#######################################################################
#
# If this CIF has been generated from an entry in the Cambridge 
# Structural Database, then it will include bibliographic, chemical, 
# crystal, experimental, refinement or atomic coordinate data resulting 
# from the CCDC's data processing and validation procedures.
#
#######################################################################

data_LUPCIK
_symmetry_cell_setting           orthorhombic
_symmetry_space_group_name_H-M   'F d d 2'
_symmetry_Int_Tables_number      43
_space_group_name_Hall           'F 2 -2d'
loop_
_symmetry_equiv_pos_site_id
_symmetry_equiv_pos_as_xyz
1 x,y,z
2 -x,-y,z
3 1/4+x,1/4-y,1/4+z
4 1/4-x,1/4+y,1/4+z
5 x,1/2+y,1/2+z
6 -x,1/2-y,1/2+z
7 1/4+x,3/4-y,3/4+z
8 1/4-x,3/4+y,3/4+z
9 1/2+x,y,1/2+z
10 1/2-x,-y,1/2+z
11 3/4+x,1/4-y,3/4+z
12 3/4-x,1/4+y,3/4+z
13 1/2+x,1/2+y,z
14 1/2-x,1/2-y,z
15 3/4+x,3/4-y,1/4+z
16 3/4-x,3/4+y,1/4+z
_cell_length_a                   12.2658(16)
_cell_length_b                   20.425(3)
_cell_length_c                   9.6121(16)
_cell_angle_alpha                90
_cell_angle_beta                 90
_cell_angle_gamma                90
_cell_volume                     2408.11
loop_
_atom_site_label
_atom_site_type_symbol
_atom_site_fract_x
_atom_site_fract_y
_atom_site_fract_z
Zn1 Zn 0.2500 0.2500 1.11992(5)
F1 F -0.13134(14) 0.47682(7) 0.8576(2)
O1 O 0.14104(15) 0.31961(10) 1.0669(2)
O2 O 0.11887(17) 0.23142(10) 0.9387(2)
N1 N -0.15743(17) 0.30947(10) 0.7532(2)
C1 C -0.0015(2) 0.32071(13) 0.9013(2)
C2 C -0.0213(2) 0.38691(13) 0.9182(3)
H1 H 0.0226 0.4130 0.9743
C3 C -0.1099(2) 0.41237(11) 0.8473(3)
C4 C -0.1773(2) 0.37387(12) 0.7682(2)
H2 H -0.2374 0.3925 0.7244
C5 C -0.0696(2) 0.28402(13) 0.8170(3)
H3 H -0.0539 0.2399 0.8040
C6 C 0.0934(2) 0.28764(14) 0.9716(3)
F1M F 0.63134(14) 0.02318(7) 0.8576(2)
O1M O 0.35896(15) 0.18039(10) 1.0669(2)
O2M O 0.38113(17) 0.26858(10) 0.9387(2)
N1M N 0.65743(17) 0.19053(10) 0.7532(2)
C1M C 0.5015(2) 0.17929(13) 0.9013(2)
C2M C 0.5213(2) 0.11309(13) 0.9182(3)
H1M H 0.4774 0.0870 0.9743
C3M C 0.6099(2) 0.08763(11) 0.8473(3)
C4M C 0.6773(2) 0.12613(12) 0.7682(2)
H2M H 0.7374 0.1075 0.7244
C5M C 0.5696(2) 0.21598(13) 0.8170(3)
H3M H 0.5539 0.2601 0.8040
C6M C 0.4066(2) 0.21236(14) 0.9716(3)
Zn1E Zn -0.2500 0.2500 0.61992(5)
Zn1E_2 Zn 0.7500 0.2500 0.61992(5)
N1E N 0.15743(17) 0.19053(10) 1.2532(2)
N1H N 0.34257(17) 0.30947(10) 1.2532(2)
loop_
_geom_bond_atom_site_label_1
_geom_bond_atom_site_label_2
_geom_bond_site_symmetry_1
_geom_bond_site_symmetry_2
Zn1 O1 1_555 1_555
F1 C3 1_555 1_555
O1 C6 1_555 1_555
O2 Zn1 1_555 1_555
N1 C4 1_555 1_555
C1 C2 1_555 1_555
C2 H1 1_555 1_555
C3 C2 1_555 1_555
C4 C3 1_555 1_555
H2 C4 1_555 1_555
C5 N1 1_555 1_555
H3 C5 1_555 1_555
C6 O2 1_555 1_555
F1M C3M 1_555 1_555
O1M Zn1 1_555 1_555
O2M Zn1 1_555 1_555
N1M C4M 1_555 1_555
C1M C2M 1_555 1_555
C2M H1M 1_555 1_555
C3M C2M 1_555 1_555
C4M C3M 1_555 1_555
H2M C4M 1_555 1_555
C5M N1M 1_555 1_555
H3M C5M 1_555 1_555
C6M O1M 1_555 1_555
Zn1E N1 1_555 1_555
Zn1E_2 N1M 1_555 1_555
N1E Zn1 1_555 1_555
N1H Zn1 1_555 1_555
C1 C5 1_555 1_555
C1 C6 1_555 1_555
O2M C6M 1_555 1_555
C1M C5M 1_555 1_555
C1M C6M 1_555 1_555

#END
