
#######################################################################
#
#                 Cambridge Crystallographic Data Centre
#                                CCDC 
#
#######################################################################
#
# If this CIF has been generated from an entry in the Cambridge 
# Structural Database, then it will include bibliographic, chemical, 
# crystal, experimental, refinement or atomic coordinate data resulting 
# from the CCDC's data processing and validation procedures.
#
#######################################################################

data_LUPHUZ
_symmetry_cell_setting           monoclinic
_symmetry_space_group_name_H-M   'P 21/c'
_symmetry_Int_Tables_number      14
_space_group_name_Hall           '-P 2ybc'
loop_
_symmetry_equiv_pos_site_id
_symmetry_equiv_pos_as_xyz
1 x,y,z
2 x,1/2-y,1/2+z
3 -x,-y,-z
4 -x,1/2+y,1/2-z
_cell_length_a                   9.1921(10)
_cell_length_b                   10.1110(12)
_cell_length_c                   12.8890(15)
_cell_angle_alpha                90
_cell_angle_beta                 106.061(3)
_cell_angle_gamma                90
_cell_volume                     1151.16
loop_
_atom_site_label
_atom_site_type_symbol
_atom_site_fract_x
_atom_site_fract_y
_atom_site_fract_z
Co1 Co 0.5000 0.0000 0.5000
S1 S 0.25108(9) 0.11813(7) 0.39408(7)
P1 P 0.34353(9) 0.27964(8) 0.35764(7)
N1 N 0.5081(3) 0.3911(3) 0.1382(2)
O1 O 0.6367(2) 0.1327(2) 0.45440(18)
O2 O 0.4028(3) 0.3769(2) 0.4565(2)
O3 O 0.2339(3) 0.3625(2) 0.2641(2)
C1 C 0.5065(3) 0.3343(3) 0.2151(2)
C2 C 0.5030(4) 0.2643(3) 0.3088(3)
C3 C 0.6303(4) 0.1910(3) 0.3663(3)
C4 C 0.7666(4) 0.1819(4) 0.3241(3)
C5 C 0.3334(5) 0.3991(3) 0.5428(3)
C6 C 0.2155(5) 0.5044(4) 0.5132(4)
C7 C 0.0700(4) 0.3610(4) 0.2357(3)
C8 C 0.0087(5) 0.3193(6) 0.1215(4)
H1 H 0.868(9) 0.147(7) 0.381(6)
H2 H 0.782(5) 0.226(5) 0.271(4)
H3 H 0.774(7) 0.108(6) 0.296(5)
H4 H 0.413(4) 0.429(3) 0.607(3)
H5 H 0.277(4) 0.331(4) 0.544(3)
H6 H 0.123(5) 0.473(4) 0.458(4)
H7 H 0.255(4) 0.583(4) 0.487(3)
H8 H 0.186(4) 0.519(3) 0.568(3)
H9 H 0.042(6) 0.301(5) 0.300(5)
H10 H 0.037(6) 0.458(5) 0.237(4)
H11 H -0.105(5) 0.333(4) 0.101(3)
H12 H 0.047(6) 0.364(5) 0.069(4)
H13 H 0.023(7) 0.222(7) 0.123(5)
S1B S 0.74892(9) -0.11813(7) 0.60592(7)
P1B P 0.65647(9) -0.27964(8) 0.64236(7)
N1B N 0.4919(3) -0.3911(3) 0.8618(2)
O1B O 0.3633(2) -0.1327(2) 0.54560(18)
O2B O 0.5972(3) -0.3769(2) 0.5435(2)
O3B O 0.7661(3) -0.3625(2) 0.7359(2)
C1B C 0.4935(3) -0.3343(3) 0.7849(2)
C2B C 0.4970(4) -0.2643(3) 0.6912(3)
C3B C 0.3697(4) -0.1910(3) 0.6337(3)
C4B C 0.2334(4) -0.1819(4) 0.6759(3)
C5B C 0.6666(5) -0.3991(3) 0.4572(3)
C6B C 0.7845(5) -0.5044(4) 0.4868(4)
C7B C 0.9300(4) -0.3610(4) 0.7643(3)
C8B C 0.9913(5) -0.3193(6) 0.8785(4)
H1B H 0.132(9) -0.147(7) 0.619(6)
H2B H 0.218(5) -0.226(5) 0.729(4)
H3B H 0.226(7) -0.108(6) 0.704(5)
H4B H 0.587(4) -0.429(3) 0.393(3)
H5B H 0.723(4) -0.331(4) 0.456(3)
H6B H 0.877(5) -0.473(4) 0.542(4)
H7B H 0.745(4) -0.583(4) 0.513(3)
H8B H 0.814(4) -0.519(3) 0.432(3)
H9B H 0.958(6) -0.301(5) 0.700(5)
H10B H 0.963(6) -0.458(5) 0.763(4)
H11B H 1.105(5) -0.333(4) 0.899(3)
H12B H 0.953(6) -0.364(5) 0.931(4)
H13B H 0.977(7) -0.222(7) 0.877(5)
N1A N 0.5081(3) 0.1089(3) 0.6382(2)
N1C N 0.4919(3) -0.1089(3) 0.3618(2)
Co1A Co 0.5000 0.5000 0.0000
Co1A_2 Co 0.5000 -0.5000 1.0000
loop_
_geom_bond_atom_site_label_1
_geom_bond_atom_site_label_2
_geom_bond_site_symmetry_1
_geom_bond_site_symmetry_2
Co1 S1 1_555 1_555
S1 P1 1_555 1_555
P1 O2 1_555 1_555
N1 C1 1_555 1_555
O1 Co1 1_555 1_555
O2 C5 1_555 1_555
O3 P1 1_555 1_555
C1 C2 1_555 1_555
C2 P1 1_555 1_555
C3 O1 1_555 1_555
C4 C3 1_555 1_555
C5 C6 1_555 1_555
C6 H6 1_555 1_555
C7 O3 1_555 1_555
C8 C7 1_555 1_555
H1 C4 1_555 1_555
H2 C4 1_555 1_555
H3 C4 1_555 1_555
H4 C5 1_555 1_555
H5 C5 1_555 1_555
H7 C6 1_555 1_555
H8 C6 1_555 1_555
H9 C7 1_555 1_555
H10 C7 1_555 1_555
H11 C8 1_555 1_555
H12 C8 1_555 1_555
H13 C8 1_555 1_555
S1B Co1 1_555 1_555
P1B S1B 1_555 1_555
N1B C1B 1_555 1_555
O1B Co1 1_555 1_555
O2B P1B 1_555 1_555
O3B P1B 1_555 1_555
C1B C2B 1_555 1_555
C2B P1B 1_555 1_555
C3B O1B 1_555 1_555
C4B C3B 1_555 1_555
C5B O2B 1_555 1_555
C6B C5B 1_555 1_555
C7B O3B 1_555 1_555
C8B C7B 1_555 1_555
H1B C4B 1_555 1_555
H2B C4B 1_555 1_555
H3B C4B 1_555 1_555
H4B C5B 1_555 1_555
H5B C5B 1_555 1_555
H6B C6B 1_555 1_555
H7B C6B 1_555 1_555
H8B C6B 1_555 1_555
H9B C7B 1_555 1_555
H10B C7B 1_555 1_555
H11B C8B 1_555 1_555
H12B C8B 1_555 1_555
H13B C8B 1_555 1_555
N1A Co1 1_555 1_555
N1C Co1 1_555 1_555
Co1A N1 1_555 1_555
Co1A_2 N1B 1_555 1_555
C2 C3 1_555 1_555
C2B C3B 1_555 1_555

#END
