
#######################################################################
#
#                 Cambridge Crystallographic Data Centre
#                                CCDC 
#
#######################################################################
#
# If this CIF has been generated from an entry in the Cambridge 
# Structural Database, then it will include bibliographic, chemical, 
# crystal, experimental, refinement or atomic coordinate data resulting 
# from the CCDC's data processing and validation procedures.
#
#######################################################################

data_LUPMUE
_symmetry_cell_setting           monoclinic
_symmetry_space_group_name_H-M   'P 21/n'
_symmetry_Int_Tables_number      14
_space_group_name_Hall           '-P 2yn'
loop_
_symmetry_equiv_pos_site_id
_symmetry_equiv_pos_as_xyz
1 x,y,z
2 1/2-x,1/2+y,1/2-z
3 -x,-y,-z
4 1/2+x,1/2-y,1/2+z
_cell_length_a                   12.287(2)
_cell_length_b                   16.181(4)
_cell_length_c                   15.631(2)
_cell_angle_alpha                90
_cell_angle_beta                 108.46(1)
_cell_angle_gamma                90
_cell_volume                     2947.79
loop_
_atom_site_label
_atom_site_type_symbol
_atom_site_fract_x
_atom_site_fract_y
_atom_site_fract_z
Cu1 Cu 0.82016(6) 0.07318(5) 0.70560(5)
O1 O 0.8855(4) 0.1041(3) 0.8312(3)
C1 C 1.0206(9) 0.1339(7) 0.9682(6)
F1 F 1.0431(17) 0.0865(6) 1.0316(5)
F2 F 1.1134(9) 0.1722(8) 0.9929(6)
F3 F 0.9525(9) 0.1824(11) 0.9788(7)
C2 C 0.9879(6) 0.0935(5) 0.8768(5)
C3 C 1.0730(6) 0.0516(5) 0.8537(5)
H1 H 1.180(8) 0.035(6) 0.902(6)
C4 C 1.0505(5) 0.0147(4) 0.7706(5)
F4 F 1.1662(13) -0.0018(10) 0.6827(13)
F5 F 1.2433(6) -0.0257(8) 0.8047(8)
F6 F 1.1239(7) -0.1019(6) 0.7246(10)
O2 O 0.9593(3) 0.0156(3) 0.7049(3)
O3 O 0.6848(3) 0.1346(3) 0.7109(3)
C5 C 1.1448(8) -0.0320(8) 0.7511(9)
C6 C 0.5010(6) 0.1893(6) 0.6722(6)
F7 F 0.4782(6) 0.1488(6) 0.7363(4)
F8 F 0.5307(5) 0.2623(5) 0.6989(7)
F9 F 0.4038(4) 0.1957(4) 0.6068(4)
C7 C 0.5958(5) 0.1449(4) 0.6468(4)
C8 C 0.5767(6) 0.1230(5) 0.5578(5)
H2 H 0.517(6) 0.117(5) 0.523(5)
C9 C 0.6575(5) 0.0839(4) 0.5283(4)
C10 C 0.6291(6) 0.0668(5) 0.4276(5)
F10 F 0.6741(6) 0.1185(4) 0.3885(3)
F11 F 0.6670(6) -0.0080(4) 0.4149(3)
F12 F 0.5169(5) 0.0607(4) 0.3851(3)
O4 O 0.7562(4) 0.0618(3) 0.5746(3)
O5 O 0.8708(7) 0.4425(4) 0.5341(4)
N1 N 0.9092(6) 0.3695(3) 0.5598(4)
C11 C 0.9605(8) 0.3155(5) 0.5048(6)
C12 C 0.8573(11) 0.2914(8) 0.4197(7)
H3 H 0.824(6) 0.345(5) 0.392(5)
H4 H 0.886(8) 0.246(6) 0.384(7)
H5 H 0.810(7) 0.243(5) 0.460(6)
C13 C 1.0507(15) 0.3662(8) 0.4786(11)
H6 H 1.138(7) 0.367(5) 0.541(5)
H7 H 1.086(12) 0.340(9) 0.451(9)
C14 C 1.0062(6) 0.2423(5) 0.5710(5)
C15 C 0.9911(12) 0.1575(6) 0.5301(8)
H8 H 1.044(9) 0.110(8) 0.577(7)
H9 H 0.909(7) 0.166(5) 0.494(5)
H10 H 1.031(9) 0.166(7) 0.489(7)
C16 C 1.1280(9) 0.2535(12) 0.6327(11)
H11 H 1.145(8) 0.199(6) 0.661(6)
H12 H 1.184(8) 0.242(5) 0.605(6)
H13 H 1.143(8) 0.295(6) 0.658(6)
N2 N 0.9336(4) 0.2524(3) 0.6320(4)
O6 O 0.9324(4) 0.1970(3) 0.6909(3)
C17 C 0.8912(5) 0.3279(4) 0.6289(4)
C18 C 0.8361(5) 0.3608(4) 0.6905(4)
C19 C 0.7988(6) 0.4417(4) 0.6960(4)
H14 H 0.799(5) 0.488(4) 0.663(4)
N3 N 0.7556(4) 0.4494(3) 0.7623(3)
N4 N 0.7643(4) 0.3743(3) 0.8008(3)
C20 C 0.7233(9) 0.3594(6) 0.8770(6)
H15 H 0.735(7) 0.300(6) 0.895(5)
C21 C 0.8122(5) 0.3196(4) 0.7592(4)
H16 H 0.823(5) 0.264(4) 0.777(4)
H17 H 1.0061 0.4165 0.4509
H18 H 0.7697 0.3941 0.9286
H19 H 0.6399 0.3734 0.8604
N3A N 0.7444(4) -0.0506(3) 0.7377(3)
Cu1A Cu 0.67984(6) 0.57318(5) 0.79440(5)
loop_
_geom_bond_atom_site_label_1
_geom_bond_atom_site_label_2
_geom_bond_site_symmetry_1
_geom_bond_site_symmetry_2
Cu1 O1 1_555 1_555
O1 C2 1_555 1_555
C1 F1 1_555 1_555
F2 C1 1_555 1_555
F3 C1 1_555 1_555
C2 C1 1_555 1_555
C3 C2 1_555 1_555
H1 C3 1_555 1_555
C4 C3 1_555 1_555
F4 C5 1_555 1_555
F5 C5 1_555 1_555
F6 C5 1_555 1_555
O2 Cu1 1_555 1_555
O3 Cu1 1_555 1_555
C5 C4 1_555 1_555
C6 F7 1_555 1_555
F8 C6 1_555 1_555
F9 C6 1_555 1_555
C7 O3 1_555 1_555
C8 C7 1_555 1_555
H2 C8 1_555 1_555
C9 C8 1_555 1_555
C10 C9 1_555 1_555
F10 C10 1_555 1_555
F11 C10 1_555 1_555
F12 C10 1_555 1_555
O4 Cu1 1_555 1_555
O5 N1 1_555 1_555
N1 C11 1_555 1_555
C11 C12 1_555 1_555
C12 H3 1_555 1_555
H4 C12 1_555 1_555
H5 C12 1_555 1_555
C13 C11 1_555 1_555
H6 C13 1_555 1_555
H7 C13 1_555 1_555
C14 C11 1_555 1_555
C15 C14 1_555 1_555
H8 C15 1_555 1_555
H9 C15 1_555 1_555
H10 C15 1_555 1_555
C16 C14 1_555 1_555
H11 C16 1_555 1_555
H12 C16 1_555 1_555
H13 C16 1_555 1_555
N2 C14 1_555 1_555
O6 Cu1 1_555 1_555
C17 N1 1_555 1_555
C18 C17 1_555 1_555
C19 C18 1_555 1_555
H14 C19 1_555 1_555
N3 C19 1_555 1_555
N4 N3 1_555 1_555
C20 N4 1_555 1_555
H15 C20 1_555 1_555
C21 C18 1_555 1_555
H16 C21 1_555 1_555
H17 C13 1_555 1_555
H18 C20 1_555 1_555
H19 C20 1_555 1_555
N3A Cu1 1_555 1_555
Cu1A N3 1_555 1_555
C4 O2 1_555 1_555
C6 C7 1_555 1_555
C9 O4 1_555 1_555
N2 O6 1_555 1_555
N2 C17 1_555 1_555
N4 C21 1_555 1_555

#END
