
#######################################################################
#
#                 Cambridge Crystallographic Data Centre
#                                CCDC 
#
#######################################################################
#
# If this CIF has been generated from an entry in the Cambridge 
# Structural Database, then it will include bibliographic, chemical, 
# crystal, experimental, refinement or atomic coordinate data resulting 
# from the CCDC's data processing and validation procedures.
#
#######################################################################

data_LUPNOZ01
_symmetry_cell_setting           monoclinic
_symmetry_space_group_name_H-M   'C 2/c'
_symmetry_Int_Tables_number      15
_space_group_name_Hall           '-C 2yn'
loop_
_symmetry_equiv_pos_site_id
_symmetry_equiv_pos_as_xyz
1 x,y,z
2 1/2+x,1/2+y,z
3 x,-y,1/2+z
4 1/2+x,1/2-y,1/2+z
5 -x,-y,-z
6 1/2-x,1/2-y,-z
7 -x,y,1/2-z
8 1/2-x,1/2+y,1/2-z
_cell_length_a                   30.516(5)
_cell_length_b                   9.540(2)
_cell_length_c                   25.194(4)
_cell_angle_alpha                90
_cell_angle_beta                 123.96(1)
_cell_angle_gamma                90
_cell_volume                     6083.47
loop_
_atom_site_label
_atom_site_type_symbol
_atom_site_fract_x
_atom_site_fract_y
_atom_site_fract_z
Cu1 Cu 0.0000 0.0000 0.5000
O1 O -0.00618(17) 0.0990(5) 0.4248(2)
C1 C -0.0137(4) 0.2789(13) 0.3572(5)
F1 F -0.0350(4) 0.3984(9) 0.3335(4)
F2 F -0.0313(3) 0.1927(9) 0.3097(3)
F3 F 0.0377(3) 0.2929(8) 0.3822(3)
C2 C -0.0218(3) 0.2212(9) 0.4079(3)
C3 C -0.0440(3) 0.3067(10) 0.4299(5)
H1 H -0.049(2) 0.383(6) 0.417(3)
C4 C -0.0507(3) 0.2687(7) 0.4779(4)
C5 C -0.0779(5) 0.3738(10) 0.4938(7)
F4 F -0.0713(3) 0.5009(5) 0.4882(4)
F5 F -0.0566(7) 0.3685(12) 0.5562(7)
F6 F -0.1219(4) 0.3511(9) 0.4745(9)
O2 O -0.03920(16) 0.1545(5) 0.5068(2)
Cu2 Cu -0.2500 0.2500 0.5000
O3 O -0.24361(15) 0.4113(4) 0.45535(18)
C6 C -0.2258(4) 0.6377(9) 0.4388(4)
F7 F -0.2185(3) 0.7600(5) 0.4631(3)
F8 F -0.2026(5) 0.6217(9) 0.4123(6)
F9 F -0.2751(4) 0.6519(7) 0.3921(4)
C7 C -0.2174(3) 0.5173(6) 0.4826(3)
C8 C -0.1822(3) 0.5398(7) 0.5471(3)
H2 H -0.163(2) 0.627(7) 0.564(3)
C9 C -0.1715(2) 0.4421(7) 0.5933(3)
C10 C -0.1324(4) 0.4807(10) 0.6625(4)
F10 F -0.1085(4) 0.5918(9) 0.6732(3)
F11 F -0.1001(4) 0.3852(9) 0.6942(4)
F12 F -0.1528(4) 0.4918(13) 0.6940(3)
O4 O -0.19221(16) 0.3243(4) 0.58509(19)
O5 O -0.2402(2) 0.0187(6) 0.2973(2)
N1 N -0.1948(2) -0.0333(6) 0.3206(2)
C11 C -0.1749(3) -0.0751(7) 0.2811(3)
C12 C -0.2183(5) -0.1459(13) 0.2201(4)
H3 H -0.233(3) -0.237(9) 0.230(3)
H4 H -0.241(3) -0.093(7) 0.191(3)
H5 H -0.202(3) -0.169(8) 0.204(4)
C13 C -0.1579(5) 0.0624(11) 0.2658(5)
H6 H -0.189(3) 0.139(8) 0.247(4)
H7 H -0.136(3) 0.121(9) 0.302(4)
H8 H -0.155(2) 0.046(6) 0.237(3)
C14 C -0.1278(3) -0.1686(8) 0.3286(3)
C15 C -0.0793(4) -0.1626(13) 0.3252(5)
H9 H -0.064(4) -0.074(12) 0.331(5)
H10 H -0.049(5) -0.222(12) 0.350(5)
H11 H -0.088(2) -0.198(6) 0.284(3)
C16 C -0.1440(5) -0.3195(10) 0.3295(6)
H12 H -0.179(3) -0.327(7) 0.331(3)
H13 H -0.152(3) -0.358(7) 0.303(3)
H14 H -0.117(5) -0.359(12) 0.372(6)
N2 N -0.1154(2) -0.1071(6) 0.3902(2)
O6 O -0.07148(17) -0.1369(4) 0.4451(2)
C17 C -0.1565(2) -0.0425(6) 0.3838(3)
C18 C -0.1606(2) 0.0066(6) 0.4344(3)
C19 C -0.1257(3) -0.0181(7) 0.4991(3)
H15 H -0.093(3) -0.076(7) 0.529(3)
N3 N -0.1458(2) 0.0447(6) 0.5286(2)
C20 C -0.1244(4) 0.0404(12) 0.5969(4)
H16 H -0.1159(19) -0.069(5) 0.625(2)
H17 H -0.151(3) 0.081(8) 0.598(4)
C21 C -0.0728(6) 0.101(3) 0.6369(6)
H18 H -0.0615 0.0949 0.6808
H19 H -0.0739 0.1974 0.6254
H20 H -0.0484 0.0507 0.6312
N4 N -0.1917(2) 0.1120(6) 0.4872(2)
C22 C -0.2008(3) 0.0904(7) 0.4300(3)
H21 H -0.234(2) 0.123(6) 0.386(3)
O1D O 0.00618(17) -0.0990(5) 0.5752(2)
C1D C 0.0137(4) -0.2789(13) 0.6428(5)
F1D F 0.0350(4) -0.3984(9) 0.6665(4)
F2D F 0.0313(3) -0.1927(9) 0.6903(3)
F3D F -0.0377(3) -0.2929(8) 0.6178(3)
C2D C 0.0218(3) -0.2212(9) 0.5921(3)
C3D C 0.0440(3) -0.3067(10) 0.5701(5)
H1D H 0.049(2) -0.383(6) 0.583(3)
C4D C 0.0507(3) -0.2687(7) 0.5221(4)
C5D C 0.0779(5) -0.3738(10) 0.5062(7)
F4D F 0.0713(3) -0.5009(5) 0.5118(4)
F5D F 0.0566(7) -0.3685(12) 0.4438(7)
F6D F 0.1219(4) -0.3511(9) 0.5255(9)
O2D O 0.03920(16) -0.1545(5) 0.4932(2)
O5D O 0.2402(2) -0.0187(6) 0.7027(2)
N1D N 0.1948(2) 0.0333(6) 0.6794(2)
C11D C 0.1749(3) 0.0751(7) 0.7189(3)
C12D C 0.2183(5) 0.1459(13) 0.7799(4)
H3D H 0.233(3) 0.237(9) 0.770(3)
H4D H 0.241(3) 0.093(7) 0.809(3)
H5D H 0.202(3) 0.169(8) 0.796(4)
C13D C 0.1579(5) -0.0624(11) 0.7342(5)
H6D H 0.189(3) -0.139(8) 0.753(4)
H7D H 0.136(3) -0.121(9) 0.698(4)
H8D H 0.155(2) -0.046(6) 0.763(3)
C14D C 0.1278(3) 0.1686(8) 0.6714(3)
C15D C 0.0793(4) 0.1626(13) 0.6748(5)
H9D H 0.064(4) 0.074(12) 0.669(5)
H10D H 0.049(5) 0.222(12) 0.650(5)
H11D H 0.088(2) 0.198(6) 0.716(3)
C16D C 0.1440(5) 0.3195(10) 0.6705(6)
H12D H 0.179(3) 0.327(7) 0.669(3)
H13D H 0.152(3) 0.358(7) 0.697(3)
H14D H 0.117(5) 0.359(12) 0.628(6)
N2D N 0.1154(2) 0.1071(6) 0.6098(2)
O6D O 0.07148(17) 0.1369(4) 0.5549(2)
C17D C 0.1565(2) 0.0425(6) 0.6162(3)
C18D C 0.1606(2) -0.0066(6) 0.5656(3)
C19D C 0.1257(3) 0.0181(7) 0.5009(3)
H15D H 0.093(3) 0.076(7) 0.471(3)
N3D N 0.1458(2) -0.0447(6) 0.4714(2)
C20D C 0.1244(4) -0.0404(12) 0.4031(4)
H16D H 0.1159(19) 0.069(5) 0.375(2)
H17D H 0.151(3) -0.081(8) 0.402(4)
C21D C 0.0728(6) -0.101(3) 0.3631(6)
H18D H 0.0615 -0.0949 0.3192
H19D H 0.0739 -0.1974 0.3746
H20D H 0.0484 -0.0507 0.3688
N4D N 0.1917(2) -0.1120(6) 0.5128(2)
C22D C 0.2008(3) -0.0904(7) 0.5700(3)
H21D H 0.234(2) -0.123(6) 0.614(3)
O3E O -0.25639(15) 0.0887(4) 0.54465(18)
C6E C -0.2742(4) -0.1377(9) 0.5612(4)
F7E F -0.2815(3) -0.2600(5) 0.5369(3)
F8E F -0.2974(5) -0.1217(9) 0.5877(6)
F9E F -0.2249(4) -0.1519(7) 0.6079(4)
C7E C -0.2826(3) -0.0173(6) 0.5174(3)
C8E C -0.3178(3) -0.0398(7) 0.4529(3)
H2E H -0.337(2) -0.127(7) 0.436(3)
C9E C -0.3285(2) 0.0579(7) 0.4067(3)
C10E C -0.3676(4) 0.0193(10) 0.3375(4)
F10E F -0.3915(4) -0.0918(9) 0.3268(3)
F11E F -0.3999(4) 0.1148(9) 0.3058(4)
F12E F -0.3472(4) 0.0082(13) 0.3060(3)
O4E O -0.30779(16) 0.1757(4) 0.41491(19)
N4E N -0.3083(2) 0.3880(6) 0.5128(2)
Cu2A Cu 0.2500 -0.2500 0.5000
loop_
_geom_bond_atom_site_label_1
_geom_bond_atom_site_label_2
_geom_bond_site_symmetry_1
_geom_bond_site_symmetry_2
Cu1 O1 1_555 1_555
O1 C2 1_555 1_555
C1 F1 1_555 1_555
F2 C1 1_555 1_555
F3 C1 1_555 1_555
C2 C1 1_555 1_555
C3 C2 1_555 1_555
H1 C3 1_555 1_555
C4 C3 1_555 1_555
C5 C4 1_555 1_555
F4 C5 1_555 1_555
F5 C5 1_555 1_555
F6 C5 1_555 1_555
O2 Cu1 1_555 1_555
Cu2 O3 1_555 1_555
O3 C7 1_555 1_555
C6 F7 1_555 1_555
F8 C6 1_555 1_555
F9 C6 1_555 1_555
C7 C6 1_555 1_555
C8 C7 1_555 1_555
H2 C8 1_555 1_555
C9 C8 1_555 1_555
C10 C9 1_555 1_555
F10 C10 1_555 1_555
F11 C10 1_555 1_555
F12 C10 1_555 1_555
O4 Cu2 1_555 1_555
O5 N1 1_555 1_555
N1 C11 1_555 1_555
C11 C12 1_555 1_555
C12 H3 1_555 1_555
H4 C12 1_555 1_555
H5 C12 1_555 1_555
C13 C11 1_555 1_555
H6 C13 1_555 1_555
H7 C13 1_555 1_555
H8 C13 1_555 1_555
C14 C11 1_555 1_555
C15 C14 1_555 1_555
H9 C15 1_555 1_555
H10 C15 1_555 1_555
H11 C15 1_555 1_555
C16 C14 1_555 1_555
H12 C16 1_555 1_555
H13 C16 1_555 1_555
H14 C16 1_555 1_555
N2 C14 1_555 1_555
O6 Cu1 1_555 1_555
C17 N1 1_555 1_555
C18 C17 1_555 1_555
C19 C18 1_555 1_555
H15 C19 1_555 1_555
N3 C19 1_555 1_555
C20 N3 1_555 1_555
H16 C20 1_555 1_555
H17 C20 1_555 1_555
C21 C20 1_555 1_555
H18 C21 1_555 1_555
H19 C21 1_555 1_555
H20 C21 1_555 1_555
N4 Cu2 1_555 1_555
C22 C18 1_555 1_555
H21 C22 1_555 1_555
O1D Cu1 1_555 1_555
C1D F1D 1_555 1_555
F2D C1D 1_555 1_555
F3D C1D 1_555 1_555
C2D O1D 1_555 1_555
C3D C2D 1_555 1_555
H1D C3D 1_555 1_555
C4D C3D 1_555 1_555
C5D C4D 1_555 1_555
F4D C5D 1_555 1_555
F5D C5D 1_555 1_555
F6D C5D 1_555 1_555
O2D Cu1 1_555 1_555
O5D N1D 1_555 1_555
N1D C11D 1_555 1_555
C11D C12D 1_555 1_555
C12D H3D 1_555 1_555
H4D C12D 1_555 1_555
H5D C12D 1_555 1_555
C13D C11D 1_555 1_555
H6D C13D 1_555 1_555
H7D C13D 1_555 1_555
H8D C13D 1_555 1_555
C14D C11D 1_555 1_555
C15D C14D 1_555 1_555
H9D C15D 1_555 1_555
H10D C15D 1_555 1_555
H11D C15D 1_555 1_555
C16D C14D 1_555 1_555
H12D C16D 1_555 1_555
H13D C16D 1_555 1_555
H14D C16D 1_555 1_555
N2D C14D 1_555 1_555
O6D Cu1 1_555 1_555
C17D N1D 1_555 1_555
C18D C17D 1_555 1_555
C19D C18D 1_555 1_555
H15D C19D 1_555 1_555
N3D C19D 1_555 1_555
C20D N3D 1_555 1_555
H16D C20D 1_555 1_555
H17D C20D 1_555 1_555
C21D C20D 1_555 1_555
H18D C21D 1_555 1_555
H19D C21D 1_555 1_555
H20D C21D 1_555 1_555
N4D N3D 1_555 1_555
C22D C18D 1_555 1_555
H21D C22D 1_555 1_555
O3E Cu2 1_555 1_555
C6E F7E 1_555 1_555
F8E C6E 1_555 1_555
F9E C6E 1_555 1_555
C7E O3E 1_555 1_555
C8E C7E 1_555 1_555
H2E C8E 1_555 1_555
C9E C8E 1_555 1_555
C10E C9E 1_555 1_555
F10E C10E 1_555 1_555
F11E C10E 1_555 1_555
F12E C10E 1_555 1_555
O4E Cu2 1_555 1_555
N4E Cu2 1_555 1_555
Cu2A N4D 1_555 1_555
C4 O2 1_555 1_555
C9 O4 1_555 1_555
N2 O6 1_555 1_555
N2 C17 1_555 1_555
N3 N4 1_555 1_555
N4 C22 1_555 1_555
C1D C2D 1_555 1_555
C4D O2D 1_555 1_555
N2D C17D 1_555 1_555
N2D O6D 1_555 1_555
N4D C22D 1_555 1_555
C6E C7E 1_555 1_555
C9E O4E 1_555 1_555

#END
