
#######################################################################
#
#                 Cambridge Crystallographic Data Centre
#                                CCDC 
#
#######################################################################
#
# If this CIF has been generated from an entry in the Cambridge 
# Structural Database, then it will include bibliographic, chemical, 
# crystal, experimental, refinement or atomic coordinate data resulting 
# from the CCDC's data processing and validation procedures.
#
#######################################################################

data_LUPTEW
_symmetry_cell_setting           triclinic
_symmetry_space_group_name_H-M   'P -1'
_symmetry_Int_Tables_number      2
_space_group_name_Hall           '-P 1'
loop_
_symmetry_equiv_pos_site_id
_symmetry_equiv_pos_as_xyz
1 x,y,z
2 -x,-y,-z
_cell_length_a                   8.6018(13)
_cell_length_b                   10.1518(15)
_cell_length_c                   13.945(2)
_cell_angle_alpha                71.688(2)
_cell_angle_beta                 82.496(2)
_cell_angle_gamma                67.643(2)
_cell_volume                     1069.08
loop_
_atom_site_label
_atom_site_type_symbol
_atom_site_fract_x
_atom_site_fract_y
_atom_site_fract_z
Zn1 Zn 0.85412(8) 0.41587(6) 0.16059(4)
O1 O 0.8788(4) 1.1449(4) 0.1992(3)
O2 O 0.8031(5) 0.6217(4) 0.0752(3)
O3 O 0.7996(5) 1.3339(4) 0.0624(3)
O4 O 0.8849(7) 0.6520(4) 0.2069(3)
N1 N 1.1021(5) 0.3297(4) 0.1964(3)
N2 N 1.3296(5) -0.4291(4) 0.7286(3)
N3 N 1.3516(5) -0.0773(4) 0.4458(3)
N4 N 1.1840(6) -0.0330(5) 0.4798(3)
H1 H 1.1539 -0.0885 0.5357
H2 H 1.1089 0.0504 0.4453
N5 N 1.6179(6) -0.2039(6) 0.4435(4)
N6 N 1.5851(6) -0.0775(6) 0.3620(4)
C1 C 0.7123(8) 1.0670(6) -0.0854(4)
H3 H 0.6728 1.1065 -0.1528
C2 C 0.8311(7) 0.7015(6) 0.1200(4)
C3 C 0.8285(6) 1.1971(5) 0.1103(4)
C4 C 0.7974(6) 1.1009(5) 0.0584(4)
C5 C 1.4775(7) -0.2026(6) 0.4922(4)
C6 C 1.3423(6) 0.1386(6) 0.2882(4)
C7 C 1.2046(7) 0.3982(5) 0.1422(4)
H4 H 1.1565 0.4904 0.0923
C8 C 1.3348(7) -0.3146(5) 0.6485(3)
H5 H 1.2444 -0.2217 0.6391
C9 C 0.7953(6) 0.8619(5) 0.0644(4)
C10 C 1.4226(6) -0.0021(6) 0.3646(4)
C11 C 1.1722(6) 0.2006(5) 0.2680(4)
H6 H 1.1016 0.1498 0.3064
C12 C 0.8232(6) 0.9541(5) 0.1096(4)
H7 H 0.8609 0.9154 0.1774
C13 C 1.4659(7) -0.3268(6) 0.5794(4)
C14 C 1.3743(7) 0.3429(6) 0.1548(4)
H8 H 1.4426 0.3940 0.1133
C15 C 1.4438(7) 0.2133(6) 0.2276(4)
H9 H 1.5618 0.1731 0.2376
C16 C 1.5926(9) -0.5801(7) 0.6753(5)
H10 H 1.6809 -0.6744 0.6860
C17 C 0.7423(8) 1.1574(6) -0.0403(4)
H11 H 0.7253 1.2581 -0.0767
C18 C 0.7384(7) 0.9197(6) -0.0346(4)
H12 H 0.7177 0.8585 -0.0669
C19 C 1.4571(8) -0.5596(6) 0.7410(5)
H13 H 1.4541 -0.6412 0.7971
C20 C 1.5987(8) -0.4636(7) 0.5947(5)
H14 H 1.6924 -0.4754 0.5495
Zn1_2 Zn 0.85412(8) 1.41587(6) 0.16059(4)
Zn1A Zn 1.14588(8) -0.41587(6) 0.83941(4)
O3_2 O 0.7996(5) 0.3339(4) 0.0624(3)
N2A N 0.6704(5) 0.4291(4) 0.2714(3)
O5 O 0.0599(7) 0.8816(5) 0.3372(4)
H16 H 0.0013 0.9623 0.2952
H17 H 0.0927 0.9083 0.3792
O6 O 1.047(3) -0.400(3) 0.5901(13)
O7 O 1.0520(12) -0.6210(13) 0.6074(6)
H15 H 1.1557 -0.6612 0.5942
H18 H 1.0719 -0.6308 0.6678
O8? O 0.9457(17) -0.2853(14) 0.5031(11)
loop_
_geom_bond_atom_site_label_1
_geom_bond_atom_site_label_2
_geom_bond_site_symmetry_1
_geom_bond_site_symmetry_2
Zn1 O2 1_555 1_555
O1 C3 1_555 1_555
O2 C2 1_555 1_555
O3 C3 1_555 1_555
O4 C2 1_555 1_555
N1 Zn1 1_555 1_555
N2 C8 1_555 1_555
N3 N4 1_555 1_555
N4 H1 1_555 1_555
H2 N4 1_555 1_555
N5 N6 1_555 1_555
N6 C10 1_555 1_555
C1 H3 1_555 1_555
C2 C9 1_555 1_555
C3 C4 1_555 1_555
C4 C12 1_555 1_555
C5 N3 1_555 1_555
C6 C10 1_555 1_555
C7 N1 1_555 1_555
H4 C7 1_555 1_555
C8 H5 1_555 1_555
C9 C12 1_555 1_555
C10 N3 1_555 1_555
C11 N1 1_555 1_555
H6 C11 1_555 1_555
C12 H7 1_555 1_555
C13 C5 1_555 1_555
C14 C7 1_555 1_555
H8 C14 1_555 1_555
C15 C6 1_555 1_555
H9 C15 1_555 1_555
C16 H10 1_555 1_555
C17 C1 1_555 1_555
H11 C17 1_555 1_555
C18 C1 1_555 1_555
H12 C18 1_555 1_555
C19 N2 1_555 1_555
H13 C19 1_555 1_555
C20 C13 1_555 1_555
H14 C20 1_555 1_555
O5 H16 1_555 1_555
O7 H15 1_555 1_555
H17 O5 1_555 1_555
H18 O7 1_555 1_555
Zn1_2 O3 1_555 1_555
Zn1A N2 1_555 1_555
O3_2 Zn1 1_555 1_555
N2A Zn1 1_555 1_555
N5 C5 1_555 1_555
C4 C17 1_555 1_555
C6 C11 1_555 1_555
C8 C13 1_555 1_555
C9 C18 1_555 1_555
C14 C15 1_555 1_555
C16 C19 1_555 1_555
C16 C20 1_555 1_555

#END
