
#######################################################################
#
#                 Cambridge Crystallographic Data Centre
#                                CCDC 
#
#######################################################################
#
# If this CIF has been generated from an entry in the Cambridge 
# Structural Database, then it will include bibliographic, chemical, 
# crystal, experimental, refinement or atomic coordinate data resulting 
# from the CCDC's data processing and validation procedures.
#
#######################################################################

data_LUPTIA
_symmetry_cell_setting           monoclinic
_symmetry_space_group_name_H-M   'P 21/n'
_symmetry_Int_Tables_number      14
_space_group_name_Hall           '-P 2yn'
loop_
_symmetry_equiv_pos_site_id
_symmetry_equiv_pos_as_xyz
1 x,y,z
2 1/2-x,1/2+y,1/2-z
3 -x,-y,-z
4 1/2+x,1/2-y,1/2+z
_cell_length_a                   8.4740(9)
_cell_length_b                   14.4504(15)
_cell_length_c                   18.4866(19)
_cell_angle_alpha                90
_cell_angle_beta                 94.6070(10)
_cell_angle_gamma                90
_cell_volume                     2256.42
loop_
_atom_site_label
_atom_site_type_symbol
_atom_site_fract_x
_atom_site_fract_y
_atom_site_fract_z
Zn1 Zn 0.5000 0.5000 0.0000
Zn2 Zn 1.0000 0.5000 0.5000
C1 C 0.8078(3) 0.42730(16) -0.06019(12)
H1 H 0.7568 0.4470 -0.1039
C2 C 0.9585(3) 0.39224(17) -0.06069(12)
H2 H 1.0078 0.3888 -0.1038
C3 C 1.0355(3) 0.36227(16) 0.00372(12)
H3 H 1.1378 0.3387 0.0050
C4 C 0.9566(3) 0.36822(14) 0.06647(11)
C5 C 0.8052(3) 0.40507(15) 0.06212(11)
H4 H 0.7532 0.4095 0.1044
C6 C 1.0331(3) 0.33404(15) 0.13532(11)
C7 C 1.1289(3) 0.32382(15) 0.24791(11)
C8 C 1.1825(3) 0.34610(15) 0.32314(11)
C9 C 1.3324(3) 0.31814(18) 0.34988(13)
H5 H 1.3955 0.2834 0.3211
C10 C 1.3868(3) 0.34233(18) 0.41944(13)
H6 H 1.4875 0.3248 0.4382
C11 C 1.2905(3) 0.39262(16) 0.46072(12)
H7 H 1.3280 0.4089 0.5077
C12 C 1.0923(3) 0.39593(15) 0.36872(11)
H8 H 0.9908 0.4140 0.3515
C13 C 0.5920(3) 0.56636(15) 0.15565(11)
C14 C 0.6795(3) 0.63801(15) 0.20219(11)
C15 C 0.7378(3) 0.61668(15) 0.27280(11)
H9 H 0.7140 0.5597 0.2927
C16 C 0.8317(3) 0.67983(14) 0.31409(11)
C17 C 0.8574(3) 0.76635(15) 0.28508(12)
H10 H 0.9181 0.8095 0.3123
C18 C 0.7937(3) 0.78950(16) 0.21593(12)
H11 H 0.8088 0.8486 0.1977
C19 C 0.7082(3) 0.72491(16) 0.17421(11)
H12 H 0.6696 0.7397 0.1271
C20 C 0.9105(3) 0.65185(15) 0.38733(11)
N1 N 0.7306(2) 0.43453(12) -0.00011(9)
N2 N 1.1080(3) 0.25570(13) 0.14290(10)
N3 N 1.1691(3) 0.24880(13) 0.21445(10)
N4 N 1.0413(2) 0.37942(12) 0.20013(9)
N5 N 0.9828(3) 0.46882(14) 0.20992(10)
H13 H 1.0009 0.4963 0.2510
H14 H 0.9287 0.4962 0.1748
N6 N 1.1448(2) 0.41917(12) 0.43618(9)
O1 O 0.5827(2) 0.58050(11) 0.08838(8)
O2 O 0.5372(2) 0.49695(11) 0.18610(9)
O3 O 0.90248(19) 0.56732(10) 0.40400(8)
O4 O 0.9786(2) 0.71319(11) 0.42637(8)
O5 O 0.4198(2) 0.39637(12) 0.07124(9)
O6 O 0.8260(2) 0.39126(12) 0.48349(9)
H15 H 0.453(3) 0.342(2) 0.0706(15)
H16 H 0.445(4) 0.417(2) 0.1132(17)
H17 H 0.876(4) 0.347(3) 0.5138(19)
H19 H 0.749(4) 0.401(2) 0.5124(18)
Zn2_2 Zn 0.0000 0.5000 -0.5000
C1B C 0.1922(3) 0.57270(16) 0.06019(12)
H1B H 0.2432 0.5530 0.1039
C2B C 0.0415(3) 0.60776(17) 0.06069(12)
H2B H -0.0078 0.6112 0.1038
C3B C -0.0355(3) 0.63773(16) -0.00372(12)
H3B H -0.1378 0.6613 -0.0050
C4B C 0.0434(3) 0.63178(14) -0.06647(11)
C5B C 0.1948(3) 0.59493(15) -0.06212(11)
H4B H 0.2468 0.5905 -0.1044
C6B C -0.0331(3) 0.66596(15) -0.13532(11)
C7B C -0.1289(3) 0.67618(15) -0.24791(11)
C8B C -0.1825(3) 0.65390(15) -0.32314(11)
C9B C -0.3324(3) 0.68186(18) -0.34988(13)
H5B H -0.3955 0.7166 -0.3211
C10B C -0.3868(3) 0.65767(18) -0.41944(13)
H6B H -0.4875 0.6752 -0.4382
C11B C -0.2905(3) 0.60738(16) -0.46072(12)
H7B H -0.3280 0.5911 -0.5077
C12B C -0.0923(3) 0.60407(15) -0.36872(11)
H8B H 0.0092 0.5860 -0.3515
C13B C 0.4080(3) 0.43364(15) -0.15565(11)
C14B C 0.3205(3) 0.36199(15) -0.20219(11)
C15B C 0.2622(3) 0.38332(15) -0.27280(11)
H9B H 0.2860 0.4403 -0.2927
C16B C 0.1683(3) 0.32017(14) -0.31409(11)
C17B C 0.1426(3) 0.23365(15) -0.28508(12)
H10B H 0.0819 0.1905 -0.3123
C18B C 0.2063(3) 0.21050(16) -0.21593(12)
H11B H 0.1912 0.1514 -0.1977
C19B C 0.2918(3) 0.27509(16) -0.17421(11)
H12B H 0.3304 0.2603 -0.1271
C20B C 0.0895(3) 0.34815(15) -0.38733(11)
N1B N 0.2694(2) 0.56547(12) 0.00011(9)
N2B N -0.1080(3) 0.74430(13) -0.14290(10)
N3B N -0.1691(3) 0.75120(13) -0.21445(10)
N4B N -0.0413(2) 0.62058(12) -0.20013(9)
N5B N 0.0172(3) 0.53118(14) -0.20992(10)
H13B H -0.0009 0.5037 -0.2510
H14B H 0.0713 0.5038 -0.1748
N6B N -0.1448(2) 0.58083(12) -0.43618(9)
N6B_2 N 0.8552(2) 0.58083(12) 0.56382(9)
O1B O 0.4173(2) 0.41950(11) -0.08838(8)
O2B O 0.4628(2) 0.50305(11) -0.18610(9)
O3B O 0.09752(19) 0.43268(10) -0.40400(8)
O3B_2 O 1.09752(19) 0.43268(10) 0.59600(8)
O4B O 0.0214(2) 0.28681(11) -0.42637(8)
O5B O 0.5802(2) 0.60363(12) -0.07124(9)
O6B O 1.1740(2) 0.60874(12) 0.51651(9)
H15B H 0.547(3) 0.658(2) -0.0706(15)
H16B H 0.555(4) 0.583(2) -0.1132(17)
H17B H 1.124(4) 0.653(3) 0.4862(19)
H19B H 1.251(4) 0.599(2) 0.4876(18)
O7 O 0.0911(3) 0.08450(17) 0.07669(12)
H20 H 0.091(4) 0.144(3) 0.093(2)
H22 H 0.118(5) 0.056(3) 0.116(2)
O8 O 0.2196(3) 0.05334(18) 0.23391(13)
H18 H 0.226(4) 0.109(3) 0.2372(19)
H21 H 0.146(7) 0.041(4) 0.260(3)
loop_
_geom_bond_atom_site_label_1
_geom_bond_atom_site_label_2
_geom_bond_site_symmetry_1
_geom_bond_site_symmetry_2
Zn1 N1 1_555 1_555
Zn2 N6 1_555 1_555
C1 H1 1_555 1_555
C2 C1 1_555 1_555
H2 C2 1_555 1_555
C3 C2 1_555 1_555
H3 C3 1_555 1_555
C4 C3 1_555 1_555
C5 C4 1_555 1_555
H4 C5 1_555 1_555
C6 C4 1_555 1_555
C7 C8 1_555 1_555
C8 C9 1_555 1_555
C9 H5 1_555 1_555
C10 C9 1_555 1_555
H6 C10 1_555 1_555
C11 C10 1_555 1_555
H7 C11 1_555 1_555
C12 C8 1_555 1_555
H8 C12 1_555 1_555
C13 C14 1_555 1_555
C14 C15 1_555 1_555
C15 H9 1_555 1_555
C16 C15 1_555 1_555
C17 C16 1_555 1_555
H10 C17 1_555 1_555
C18 C17 1_555 1_555
H11 C18 1_555 1_555
C19 C14 1_555 1_555
H12 C19 1_555 1_555
C20 C16 1_555 1_555
N1 C1 1_555 1_555
N2 C6 1_555 1_555
N3 C7 1_555 1_555
N4 C6 1_555 1_555
N5 N4 1_555 1_555
H13 N5 1_555 1_555
H14 N5 1_555 1_555
N6 C11 1_555 1_555
O1 Zn1 1_555 1_555
O2 C13 1_555 1_555
O3 Zn2 1_555 1_555
O4 C20 1_555 1_555
O5 Zn1 1_555 1_555
O6 Zn2 1_555 1_555
O7 H20 1_555 1_555
O8 H18 1_555 1_555
H15 O5 1_555 1_555
H16 O5 1_555 1_555
H17 O6 1_555 1_555
H19 O6 1_555 1_555
H21 O8 1_555 1_555
H22 O7 1_555 1_555
Zn2_2 N6B 1_555 1_555
C1B H1B 1_555 1_555
C2B C1B 1_555 1_555
H2B C2B 1_555 1_555
C3B C2B 1_555 1_555
H3B C3B 1_555 1_555
C4B C3B 1_555 1_555
C5B C4B 1_555 1_555
H4B C5B 1_555 1_555
C6B C4B 1_555 1_555
C7B C8B 1_555 1_555
C8B C9B 1_555 1_555
C9B H5B 1_555 1_555
C10B C9B 1_555 1_555
H6B C10B 1_555 1_555
C11B C10B 1_555 1_555
H7B C11B 1_555 1_555
C12B C8B 1_555 1_555
H8B C12B 1_555 1_555
C13B C14B 1_555 1_555
C14B C15B 1_555 1_555
C15B H9B 1_555 1_555
C16B C15B 1_555 1_555
C17B C16B 1_555 1_555
H10B C17B 1_555 1_555
C18B C17B 1_555 1_555
H11B C18B 1_555 1_555
C19B C14B 1_555 1_555
H12B C19B 1_555 1_555
C20B C16B 1_555 1_555
N1B Zn1 1_555 1_555
N2B C6B 1_555 1_555
N3B C7B 1_555 1_555
N4B C6B 1_555 1_555
N5B N4B 1_555 1_555
H13B N5B 1_555 1_555
H14B N5B 1_555 1_555
N6B C11B 1_555 1_555
N6B_2 Zn2 1_555 1_555
O1B Zn1 1_555 1_555
O2B C13B 1_555 1_555
O3B Zn2_2 1_555 1_555
O3B_2 Zn2 1_555 1_555
O4B C20B 1_555 1_555
O5B Zn1 1_555 1_555
O6B Zn2 1_555 1_555
H15B O5B 1_555 1_555
H16B O5B 1_555 1_555
H17B O6B 1_555 1_555
H19B O6B 1_555 1_555
C5 N1 1_555 1_555
C7 N4 1_555 1_555
C12 N6 1_555 1_555
C13 O1 1_555 1_555
C18 C19 1_555 1_555
C20 O3 1_555 1_555
N2 N3 1_555 1_555
C1B N1B 1_555 1_555
C5B N1B 1_555 1_555
C7B N4B 1_555 1_555
C12B N6B 1_555 1_555
C13B O1B 1_555 1_555
C18B C19B 1_555 1_555
C20B O3B 1_555 1_555
N2B N3B 1_555 1_555

#END
