
#######################################################################
#
#                 Cambridge Crystallographic Data Centre
#                                CCDC 
#
#######################################################################
#
# If this CIF has been generated from an entry in the Cambridge 
# Structural Database, then it will include bibliographic, chemical, 
# crystal, experimental, refinement or atomic coordinate data resulting 
# from the CCDC's data processing and validation procedures.
#
#######################################################################

data_LUQBUV
_symmetry_cell_setting           rhombohedral
_symmetry_space_group_name_H-M   'R 3 c'
_symmetry_Int_Tables_number      161
_space_group_name_Hall           'R 3 -2"c'
loop_
_symmetry_equiv_pos_site_id
_symmetry_equiv_pos_as_xyz
1 x,y,z
2 -y,x-y,z
3 -x+y,-x,z
4 -x+y,y,1/2+z
5 x,x-y,1/2+z
6 -y,-x,1/2+z
7 2/3+x,1/3+y,1/3+z
8 2/3-y,1/3+x-y,1/3+z
9 2/3-x+y,1/3-x,1/3+z
10 2/3-x+y,1/3+y,5/6+z
11 2/3+x,1/3+x-y,5/6+z
12 2/3-y,1/3-x,5/6+z
13 1/3+x,2/3+y,2/3+z
14 1/3-y,2/3+x-y,2/3+z
15 1/3-x+y,2/3-x,2/3+z
16 1/3-x+y,2/3+y,1/6+z
17 1/3+x,2/3+x-y,1/6+z
18 1/3-y,2/3-x,1/6+z
_cell_length_a                   22.646(2)
_cell_length_b                   22.646(2)
_cell_length_c                   7.9212(7)
_cell_angle_alpha                90
_cell_angle_beta                 90
_cell_angle_gamma                120
_cell_volume                     3518.07
loop_
_atom_site_label
_atom_site_type_symbol
_atom_site_fract_x
_atom_site_fract_y
_atom_site_fract_z
Ce1 Ce 0.0000 0.0000 0.00010(10)
O1 O 0.08118(9) 0.06310(10) 0.2641(2)
O2 O 0.07945(13) 0.12242(11) 0.0480(3)
C1 C 0.1013(1) 0.1204(2) 0.1911(3)
C2 C 0.1517(1) 0.1837(2) 0.2751(4)
C3 C 0.1671(2) 0.2445(2) 0.2173(4)
C4 C 0.2141(2) 0.3111(2) 0.2917(4)
C5 C 0.2610(2) 0.3200(2) 0.4168(4)
C6 C 0.3034(2) 0.3840(2) 0.4852(5)
C7 C 0.2987(2) 0.4399(2) 0.4305(5)
C8 C 0.2532(2) 0.4318(2) 0.3083(5)
C9 C 0.2110(2) 0.3678(2) 0.2384(4)
H1 H 0.1738 0.1807 0.3740
H2 H 0.1453 0.2451 0.1155
H3 H 0.2640 0.2819 0.4557
H4 H 0.3356 0.3897 0.5695
H5 H 0.3273 0.4836 0.4785
H6 H 0.2502 0.4700 0.2704
H7 H 0.1795 0.3629 0.1527
Ce1C Ce 0.0000 0.0000 0.50010(10)
O1A O -0.06310(10) 0.01808(13) 0.2641(2)
O1B O -0.01808(13) -0.08118(9) 0.2641(2)
O1C O -0.01808(13) 0.06310(10) -0.2359(2)
O1D O 0.08118(9) 0.01808(13) -0.2359(2)
O1E O -0.06310(10) -0.08118(9) -0.2359(2)
O2A O -0.12242(11) -0.04297(17) 0.0480(3)
O2B O 0.04297(17) -0.07945(13) 0.0480(3)
C1A C -0.1204(2) -0.0191(2) 0.1911(3)
C1B C 0.0191(2) -0.1013(1) 0.1911(3)
C2A C -0.1837(2) -0.0320(2) 0.2751(4)
C2B C 0.0320(2) -0.1517(1) 0.2751(4)
C3A C -0.2445(2) -0.0774(3) 0.2173(4)
C3B C 0.0774(3) -0.1671(2) 0.2173(4)
C4A C -0.3111(2) -0.0970(3) 0.2917(4)
C4B C 0.0970(3) -0.2141(2) 0.2917(4)
C5A C -0.3200(2) -0.0590(3) 0.4168(4)
C5B C 0.0590(3) -0.2610(2) 0.4168(4)
C6A C -0.3840(2) -0.0806(3) 0.4852(5)
C6B C 0.0806(3) -0.3034(2) 0.4852(5)
C7A C -0.4399(2) -0.1412(3) 0.4305(5)
C7B C 0.1412(3) -0.2987(2) 0.4305(5)
C8A C -0.4318(2) -0.1786(3) 0.3083(5)
C8B C 0.1786(3) -0.2532(2) 0.3083(5)
C9A C -0.3678(2) -0.1568(3) 0.2384(4)
C9B C 0.1568(3) -0.2110(2) 0.2384(4)
H1A H -0.1807 -0.0069 0.3740
H1B H 0.0069 -0.1738 0.3740
H2A H -0.2451 -0.0998 0.1155
H2B H 0.0998 -0.1453 0.1155
H3A H -0.2819 -0.0179 0.4557
H3B H 0.0179 -0.2640 0.4557
H4A H -0.3897 -0.0541 0.5695
H4B H 0.0541 -0.3356 0.5695
H5A H -0.4836 -0.1563 0.4785
H5B H 0.1563 -0.3273 0.4785
H6A H -0.4700 -0.2198 0.2704
H6B H 0.2198 -0.2502 0.2704
H7A H -0.3629 -0.1834 0.1527
H7B H 0.1834 -0.1795 0.1527
loop_
_geom_bond_atom_site_label_1
_geom_bond_atom_site_label_2
_geom_bond_site_symmetry_1
_geom_bond_site_symmetry_2
Ce1 O1 1_555 1_555
O1 C1 1_555 1_555
O2 Ce1 1_555 1_555
C1 O2 1_555 1_555
C2 C1 1_555 1_555
C3 C2 1_555 1_555
C4 C3 1_555 1_555
C5 C4 1_555 1_555
C6 C5 1_555 1_555
C7 C6 1_555 1_555
C8 C7 1_555 1_555
C9 C4 1_555 1_555
H1 C2 1_555 1_555
H2 C3 1_555 1_555
H3 C5 1_555 1_555
H4 C6 1_555 1_555
H5 C7 1_555 1_555
H6 C8 1_555 1_555
H7 C9 1_555 1_555
Ce1C O1 1_555 1_555
O1A Ce1 1_555 1_555
O1B Ce1 1_555 1_555
O1C Ce1 1_555 1_555
O1D Ce1 1_555 1_555
O1E Ce1 1_555 1_555
O2A Ce1 1_555 1_555
O2B Ce1 1_555 1_555
C1A O1A 1_555 1_555
C1B O1B 1_555 1_555
C2A C1A 1_555 1_555
C2B C1B 1_555 1_555
C3A C2A 1_555 1_555
C3B C2B 1_555 1_555
C4A C3A 1_555 1_555
C4B C3B 1_555 1_555
C5A C4A 1_555 1_555
C5B C4B 1_555 1_555
C6A C5A 1_555 1_555
C6B C5B 1_555 1_555
C7A C6A 1_555 1_555
C7B C6B 1_555 1_555
C8A C7A 1_555 1_555
C8B C7B 1_555 1_555
C9A C4A 1_555 1_555
C9B C4B 1_555 1_555
H1A C2A 1_555 1_555
H1B C2B 1_555 1_555
H2A C3A 1_555 1_555
H2B C3B 1_555 1_555
H3A C5A 1_555 1_555
H3B C5B 1_555 1_555
H4A C6A 1_555 1_555
H4B C6B 1_555 1_555
H5A C7A 1_555 1_555
H5B C7B 1_555 1_555
H6A C8A 1_555 1_555
H6B C8B 1_555 1_555
H7A C9A 1_555 1_555
H7B C9B 1_555 1_555
C8 C9 1_555 1_555
Ce1C O1A 1_555 1_555
Ce1C O1B 1_555 1_555
O2A C1A 1_555 1_555
O2B C1B 1_555 1_555
C8A C9A 1_555 1_555
C8B C9B 1_555 1_555

#END
