
#######################################################################
#
#                 Cambridge Crystallographic Data Centre
#                                CCDC 
#
#######################################################################
#
# If this CIF has been generated from an entry in the Cambridge 
# Structural Database, then it will include bibliographic, chemical, 
# crystal, experimental, refinement or atomic coordinate data resulting 
# from the CCDC's data processing and validation procedures.
#
#######################################################################

data_LUQTOH
_symmetry_cell_setting           monoclinic
_symmetry_space_group_name_H-M   'P 21/c'
_symmetry_Int_Tables_number      14
_space_group_name_Hall           '-P 2ybc'
loop_
_symmetry_equiv_pos_site_id
_symmetry_equiv_pos_as_xyz
1 x,y,z
2 -x,1/2+y,1/2-z
3 -x,-y,-z
4 x,1/2-y,1/2+z
_cell_length_a                   10.141(8)
_cell_length_b                   12.072(10)
_cell_length_c                   21.290(14)
_cell_angle_alpha                90
_cell_angle_beta                 95.56(2)
_cell_angle_gamma                90
_cell_volume                     2594.11
loop_
_atom_site_label
_atom_site_type_symbol
_atom_site_fract_x
_atom_site_fract_y
_atom_site_fract_z
K1 K 0.33321(10) 0.48617(8) 0.30833(5)
Si1 Si 0.49455(11) 0.73578(9) 0.25776(6)
O1 O 0.3404(3) 0.6826(2) 0.23253(13)
O2 O 0.4886(3) 0.8122(2) 0.18657(13)
O3 O 0.4634(3) 0.6845(2) 0.33255(13)
O4 O 0.5483(3) 0.8579(2) 0.29327(14)
O5 O 1.0606(4) 0.5567(3) 0.33768(18)
O6 O 0.8542(3) 0.8375(2) 0.22614(15)
N1 N 0.9699(3) 0.7138(3) 0.29188(17)
C1 C 0.2958(4) 0.7140(3) 0.1722(2)
C2 C 0.3807(4) 0.7884(3) 0.1464(2)
C3 C 0.3488(5) 0.8300(4) 0.0872(2)
H1 H 0.4052 0.8807 0.0696
C4 C 0.2328(5) 0.7964(4) 0.0537(2)
H2 H 0.2105 0.8239 0.0128
C5 C 0.1491(5) 0.7230(4) 0.0795(2)
H3 H 0.0700 0.7014 0.0560
C6 C 0.1798(4) 0.6804(4) 0.1398(2)
H4 H 0.1229 0.6304 0.1577
C7 C 0.5114(4) 0.7534(4) 0.3796(2)
C8 C 0.5563(4) 0.8527(3) 0.3575(2)
C9 C 0.6015(4) 0.9351(4) 0.3985(2)
H5 H 0.6309 1.0030 0.3833
C10 C 0.6029(5) 0.9160(4) 0.4626(3)
H6 H 0.6337 0.9713 0.4914
C11 C 0.5596(5) 0.8167(4) 0.4844(2)
H7 H 0.5625 0.8049 0.5282
C12 C 0.5115(4) 0.7335(4) 0.4433(2)
H8 H 0.4803 0.6661 0.4584
C13 C 0.6316(4) 0.6372(3) 0.2436(2)
C14 C 0.6784(4) 0.5613(3) 0.2856(2)
H9 H 0.6424 0.5566 0.3246
C15 C 0.7877(4) 0.4831(4) 0.2719(2)
H10 H 0.7522 0.4265 0.2419
H11 H 0.8220 0.4456 0.3110
C16 C 0.9022(4) 0.5458(3) 0.2441(2)
H12 H 0.9551 0.4937 0.2208
C17 C 0.8498(4) 0.6407(3) 0.2004(2)
H13 H 0.8954 0.6402 0.1614
C18 C 0.6997(4) 0.6384(4) 0.1838(2)
H14 H 0.6720 0.7039 0.1587
H15 H 0.6749 0.5723 0.1587
C19 C 0.9884(5) 0.5997(4) 0.2963(2)
C20 C 0.8877(4) 0.7439(4) 0.2386(2)
C21 C 1.0188(4) 0.7906(3) 0.3400(2)
C22 C 0.9279(4) 0.8548(4) 0.3681(2)
H16 H 0.8365 0.8467 0.3566
C23 C 0.9740(5) 0.9311(4) 0.4135(2)
H17 H 0.9137 0.9761 0.4326
C24 C 1.1073(5) 0.9415(4) 0.4307(2)
H18 H 1.1377 0.9939 0.4615
C25 C 1.1978(5) 0.8755(4) 0.4033(2)
H19 H 1.2889 0.8822 0.4157
C26 C 1.1528(4) 0.7993(3) 0.3572(2)
H20 H 1.2130 0.7542 0.3381
N2 N 0.3103(7) 0.4523(5) 0.4405(3)
C27 C 0.2434(8) 0.4254(6) 0.4759(4)
C28 C 0.1573(8) 0.3876(8) 0.5233(4)
H21 H 0.0697 0.3717 0.5029
H22 H 0.1512 0.4451 0.5547
H23 H 0.1943 0.3211 0.5436
K1A K 0.66679(10) 0.98617(8) 0.19167(5)
K1_2 K 1.33321(10) 0.48617(8) 0.30833(5)
O2A O 0.5114(3) 0.3122(2) 0.31343(13)
O4A O 0.4517(3) 0.3579(2) 0.20673(14)
O5_2 O 0.0606(4) 0.5567(3) 0.33768(18)
O6A O 0.1458(3) 0.3375(2) 0.27386(15)
loop_
_geom_bond_atom_site_label_1
_geom_bond_atom_site_label_2
_geom_bond_site_symmetry_1
_geom_bond_site_symmetry_2
K1 O1 1_555 1_555
Si1 O1 1_555 1_555
O1 C1 1_555 1_555
O2 Si1 1_555 1_555
O3 K1 1_555 1_555
O4 Si1 1_555 1_555
O5 C19 1_555 1_555
O6 C20 1_555 1_555
N1 C19 1_555 1_555
C1 C2 1_555 1_555
C2 O2 1_555 1_555
C3 C2 1_555 1_555
H1 C3 1_555 1_555
C4 C3 1_555 1_555
H2 C4 1_555 1_555
C5 C4 1_555 1_555
H3 C5 1_555 1_555
C6 C1 1_555 1_555
H4 C6 1_555 1_555
C7 O3 1_555 1_555
C8 O4 1_555 1_555
C9 C8 1_555 1_555
H5 C9 1_555 1_555
C10 C9 1_555 1_555
H6 C10 1_555 1_555
C11 C10 1_555 1_555
H7 C11 1_555 1_555
C12 C7 1_555 1_555
H8 C12 1_555 1_555
C13 Si1 1_555 1_555
C14 C13 1_555 1_555
H9 C14 1_555 1_555
C15 C14 1_555 1_555
H10 C15 1_555 1_555
H11 C15 1_555 1_555
C16 C15 1_555 1_555
H12 C16 1_555 1_555
C17 C16 1_555 1_555
H13 C17 1_555 1_555
C18 C13 1_555 1_555
H14 C18 1_555 1_555
H15 C18 1_555 1_555
C19 C16 1_555 1_555
C20 N1 1_555 1_555
C21 N1 1_555 1_555
C22 C21 1_555 1_555
H16 C22 1_555 1_555
C23 C22 1_555 1_555
H17 C23 1_555 1_555
C24 C23 1_555 1_555
H18 C24 1_555 1_555
C25 C24 1_555 1_555
H19 C25 1_555 1_555
C26 C21 1_555 1_555
H20 C26 1_555 1_555
N2 K1 1_555 1_555
C27 N2 1_555 1_555
C28 C27 1_555 1_555
H21 C28 1_555 1_555
H22 C28 1_555 1_555
H23 C28 1_555 1_555
K1A O2 1_555 1_555
K1_2 O5 1_555 1_555
O2A K1 1_555 1_555
O4A K1 1_555 1_555
O5_2 K1 1_555 1_555
O6A K1 1_555 1_555
Si1 O3 1_555 1_555
O4 K1A 1_555 1_555
O6 K1A 1_555 1_555
C5 C6 1_555 1_555
C7 C8 1_555 1_555
C11 C12 1_555 1_555
C17 C18 1_555 1_555
C17 C20 1_555 1_555
C25 C26 1_555 1_555

#END
