
#######################################################################
#
#                 Cambridge Crystallographic Data Centre
#                                CCDC 
#
#######################################################################
#
# If this CIF has been generated from an entry in the Cambridge 
# Structural Database, then it will include bibliographic, chemical, 
# crystal, experimental, refinement or atomic coordinate data resulting 
# from the CCDC's data processing and validation procedures.
#
#######################################################################

data_LUSCOR08
_symmetry_cell_setting           tetragonal
_symmetry_space_group_name_H-M   'P 42/n'
_symmetry_Int_Tables_number      86
_space_group_name_Hall           'P -4 -1n'
loop_
_symmetry_equiv_pos_site_id
_symmetry_equiv_pos_as_xyz
1 x,y,z
2 -x,-y,z
3 1/2-y,1/2+x,1/2+z
4 1/2+y,1/2-x,1/2+z
5 1/2-x,1/2-y,1/2-z
6 1/2+x,1/2+y,1/2-z
7 y,-x,-z
8 -y,x,-z
_cell_length_a                   20.7490(3)
_cell_length_b                   20.7490(3)
_cell_length_c                   8.8988(2)
_cell_angle_alpha                90
_cell_angle_beta                 90
_cell_angle_gamma                90
_cell_volume                     3831.12
loop_
_atom_site_label
_atom_site_type_symbol
_atom_site_fract_x
_atom_site_fract_y
_atom_site_fract_z
Gd1 Gd 0.736651(11) 0.748524(10) -0.036034(18)
O1 O 0.79380(16) 0.70090(16) -0.2274(3)
O2 O 0.85734(18) 0.67819(18) -0.4161(3)
O3 O 0.66984(17) 0.67337(17) -0.1616(3)
O4 O 0.69461(18) 0.66368(17) -0.4052(3)
O5 O 0.70955(19) 0.66802(17) 0.1313(3)
O6 O 0.77002(18) 0.68729(16) 0.3316(3)
O7 O 0.83779(17) 0.7193(2) 0.0676(3)
N1 N 0.9100(2) 0.7240(2) 0.2586(4)
C1 C 0.8381(2) 0.6672(2) -0.2860(4)
C2 C 0.8650(2) 0.6144(2) -0.1928(4)
C3 C 0.9297(2) 0.6017(3) -0.2062(5)
C4 C 0.9598(2) 0.5627(3) -0.1027(6)
C5 C 0.9241(2) 0.5339(2) 0.0082(5)
C6 C 0.8590(2) 0.5440(2) 0.0182(4)
C7 C 0.8290(2) 0.5856(2) -0.0800(4)
C8 C 0.6704(2) 0.6424(2) -0.2826(4)
C9 C 0.6400(2) 0.5779(2) -0.2847(4)
C10 C 0.6097(2) 0.5553(2) -0.1568(4)
C11 C 0.5796(2) 0.4957(2) -0.1588(4)
C12 C 0.5796(3) 0.4595(2) -0.2885(5)
C13 C 0.6105(3) 0.4812(2) -0.4162(5)
C14 C 0.6406(2) 0.5405(2) -0.4140(4)
C15 C 0.7416(2) 0.64983(19) 0.2457(3)
C16 C 0.7419(2) 0.58016(19) 0.2781(4)
C17 C 0.7794(2) 0.5563(2) 0.3952(4)
C18 C 0.7773(3) 0.4910(2) 0.4276(4)
C19 C 0.7399(3) 0.4510(2) 0.3424(5)
C20 C 0.7034(2) 0.4740(2) 0.2254(4)
C21 C 0.7048(2) 0.5388(2) 0.1926(4)
C22 C 0.8709(2) 0.7506(2) 0.1596(4)
C23 C 0.9460(3) 0.7633(3) 0.3637(5)
C24 C 0.9183(3) 0.6553(3) 0.2656(5)
H1 H 0.9268 0.8054 0.3685
H2 H 0.9898 0.7669 0.3311
H3 H 0.9444 0.7438 0.4619
H4 H 0.8904 0.6353 0.1941
H5 H 0.9624 0.6447 0.2432
H6 H 0.9079 0.6406 0.3649
H7 H 0.9531 0.6194 -0.2851
H8 H 1.0040 0.5560 -0.1079
H9 H 0.9444 0.5071 0.0775
H10 H 0.8350 0.5228 0.0913
H11 H 0.7852 0.5942 -0.0708
H12 H 0.6096 0.5800 -0.0696
H13 H 0.5593 0.4802 -0.0728
H14 H 0.5586 0.4200 -0.2900
H15 H 0.6111 0.4561 -0.5028
H16 H 0.6615 0.5554 -0.4997
H17 H 0.8056 0.5838 0.4510
H18 H 0.8013 0.4745 0.5070
H19 H 0.7392 0.4072 0.3641
H20 H 0.6780 0.4461 0.1689
H21 H 0.6807 0.5548 0.1128
H22 H 0.8677 0.7953 0.1581
Gd1D Gd 0.763349(11) 0.751476(10) -0.463966(18)
Gd1D_2 Gd 0.763349(11) 0.751476(10) 0.536034(18)
O1D O 0.70620(16) 0.79910(16) -0.2726(3)
O2D O 0.64266(18) 0.82181(18) -0.0839(3)
O4D O 0.80539(18) 0.83632(17) -0.0948(3)
O6D O 0.72998(18) 0.81271(16) 0.1684(3)
loop_
_geom_bond_atom_site_label_1
_geom_bond_atom_site_label_2
_geom_bond_site_symmetry_1
_geom_bond_site_symmetry_2
Gd1 O1 1_555 1_555
O1 C1 1_555 1_555
O2 C1 1_555 1_555
O3 Gd1 1_555 1_555
O4 C8 1_555 1_555
O5 Gd1 1_555 1_555
O6 C15 1_555 1_555
O7 Gd1 1_555 1_555
N1 C22 1_555 1_555
C1 C2 1_555 1_555
C2 C3 1_555 1_555
C3 C4 1_555 1_555
C4 C5 1_555 1_555
C5 C6 1_555 1_555
C6 C7 1_555 1_555
C7 C2 1_555 1_555
C8 O3 1_555 1_555
C9 C8 1_555 1_555
C10 C9 1_555 1_555
C11 C10 1_555 1_555
C12 C11 1_555 1_555
C13 C12 1_555 1_555
C14 C9 1_555 1_555
C15 O5 1_555 1_555
C16 C15 1_555 1_555
C17 C16 1_555 1_555
C18 C17 1_555 1_555
C19 C18 1_555 1_555
C20 C19 1_555 1_555
C21 C16 1_555 1_555
C22 O7 1_555 1_555
C23 N1 1_555 1_555
C24 N1 1_555 1_555
H1 C23 1_555 1_555
H2 C23 1_555 1_555
H3 C23 1_555 1_555
H4 C24 1_555 1_555
H5 C24 1_555 1_555
H6 C24 1_555 1_555
H7 C3 1_555 1_555
H8 C4 1_555 1_555
H9 C5 1_555 1_555
H10 C6 1_555 1_555
H11 C7 1_555 1_555
H12 C10 1_555 1_555
H13 C11 1_555 1_555
H14 C12 1_555 1_555
H15 C13 1_555 1_555
H16 C14 1_555 1_555
H17 C17 1_555 1_555
H18 C18 1_555 1_555
H19 C19 1_555 1_555
H20 C20 1_555 1_555
H21 C21 1_555 1_555
H22 C22 1_555 1_555
Gd1D O1 1_555 1_555
Gd1D_2 O6 1_555 1_555
O1D Gd1 1_555 1_555
O2D Gd1 1_555 1_555
O4D Gd1 1_555 1_555
O6D Gd1 1_555 1_555
O2 Gd1D 1_555 1_555
O4 Gd1D 1_555 1_555
C13 C14 1_555 1_555
C20 C21 1_555 1_555
Gd1D O1D 1_555 1_555

#END
