
#######################################################################
#
#                 Cambridge Crystallographic Data Centre
#                                CCDC 
#
#######################################################################
#
# If this CIF has been generated from an entry in the Cambridge 
# Structural Database, then it will include bibliographic, chemical, 
# crystal, experimental, refinement or atomic coordinate data resulting 
# from the CCDC's data processing and validation procedures.
#
#######################################################################

data_LUSCOR06
_symmetry_cell_setting           tetragonal
_symmetry_space_group_name_H-M   'P 42/n'
_symmetry_Int_Tables_number      86
_space_group_name_Hall           'P -4 -1n'
loop_
_symmetry_equiv_pos_site_id
_symmetry_equiv_pos_as_xyz
1 x,y,z
2 -x,-y,z
3 1/2-y,1/2+x,1/2+z
4 1/2+y,1/2-x,1/2+z
5 1/2-x,1/2-y,1/2-z
6 1/2+x,1/2+y,1/2-z
7 y,-x,-z
8 -y,x,-z
_cell_length_a                   21.0414(2)
_cell_length_b                   21.0414(2)
_cell_length_c                   8.95130(10)
_cell_angle_alpha                90
_cell_angle_beta                 90
_cell_angle_gamma                90
_cell_volume                     3963.1
loop_
_atom_site_label
_atom_site_type_symbol
_atom_site_fract_x
_atom_site_fract_y
_atom_site_fract_z
Gd1 Gd 0.737232(12) 0.748846(11) -0.03658(2)
O1 O 0.79286(17) 0.70040(18) -0.2265(3)
O2 O 0.85593(19) 0.6793(2) -0.4148(3)
O3 O 0.66944(18) 0.67603(19) -0.1609(3)
O4 O 0.6937(2) 0.66562(18) -0.4032(3)
O5 O 0.7118(2) 0.66840(17) 0.1300(3)
O6 O 0.7692(2) 0.68715(17) 0.3330(3)
O7 O 0.83743(19) 0.7203(2) 0.0686(3)
N1 N 0.9093(2) 0.7251(2) 0.2566(4)
C1 C 0.8374(2) 0.6678(2) -0.2853(4)
C2 C 0.8647(2) 0.6158(2) -0.1941(4)
C3 C 0.9281(3) 0.6028(3) -0.2104(5)
C4 C 0.9582(3) 0.5623(3) -0.1110(6)
C5 C 0.9239(3) 0.5338(3) -0.0001(5)
C6 C 0.8597(3) 0.5452(3) 0.0138(5)
C7 C 0.8300(2) 0.5872(2) -0.0814(4)
C8 C 0.6701(2) 0.6454(2) -0.2811(4)
C9 C 0.6395(2) 0.5814(2) -0.2834(4)
C10 C 0.6104(2) 0.5583(2) -0.1560(5)
C11 C 0.5810(3) 0.4990(3) -0.1576(5)
C12 C 0.5803(3) 0.4639(3) -0.2862(6)
C13 C 0.6095(3) 0.4864(3) -0.4132(5)
C14 C 0.6390(2) 0.5447(2) -0.4117(4)
C15 C 0.7421(2) 0.6503(2) 0.2456(4)
C16 C 0.7420(2) 0.5816(2) 0.2786(4)
C17 C 0.7781(2) 0.5582(2) 0.3950(4)
C18 C 0.7772(3) 0.4936(3) 0.4266(5)
C19 C 0.7404(3) 0.4534(2) 0.3430(5)
C20 C 0.7044(3) 0.4762(2) 0.2262(5)
C21 C 0.7057(2) 0.5405(2) 0.1931(4)
C22 C 0.8700(2) 0.7509(2) 0.1591(4)
C23 C 0.9454(3) 0.7637(3) 0.3599(6)
C24 C 0.9178(3) 0.6569(3) 0.2630(5)
H1 H 0.9291 0.8064 0.3590
H2 H 0.9892 0.7641 0.3301
H3 H 0.9417 0.7463 0.4585
H4 H 0.8897 0.6371 0.1927
H5 H 0.9610 0.6464 0.2384
H6 H 0.9082 0.6419 0.3619
H7 H 0.9510 0.6212 -0.2881
H8 H 1.0016 0.5545 -0.1198
H9 H 0.9440 0.5065 0.0665
H10 H 0.8364 0.5245 0.0875
H11 H 0.7870 0.5962 -0.0700
H12 H 0.6104 0.5825 -0.0689
H13 H 0.5619 0.4833 -0.0714
H14 H 0.5600 0.4246 -0.2878
H15 H 0.6093 0.4621 -0.5001
H16 H 0.6588 0.5596 -0.4978
H17 H 0.8030 0.5855 0.4519
H18 H 0.8015 0.4776 0.5048
H19 H 0.7398 0.4102 0.3654
H20 H 0.6795 0.4486 0.1699
H21 H 0.6822 0.5561 0.1132
H22 H 0.8665 0.7950 0.1582
Gd1D Gd 0.762768(12) 0.751154(11) -0.46342(2)
Gd1D_2 Gd 0.762768(12) 0.751154(11) 0.53658(2)
O1D O 0.70714(17) 0.79960(18) -0.2735(3)
O2D O 0.64407(19) 0.8207(2) -0.0852(3)
O4D O 0.8063(2) 0.83438(18) -0.0968(3)
O6D O 0.7308(2) 0.81285(17) 0.1670(3)
loop_
_geom_bond_atom_site_label_1
_geom_bond_atom_site_label_2
_geom_bond_site_symmetry_1
_geom_bond_site_symmetry_2
Gd1 O1 1_555 1_555
O1 C1 1_555 1_555
O2 C1 1_555 1_555
O3 Gd1 1_555 1_555
O4 C8 1_555 1_555
O5 Gd1 1_555 1_555
O6 C15 1_555 1_555
O7 Gd1 1_555 1_555
N1 C22 1_555 1_555
C1 C2 1_555 1_555
C2 C3 1_555 1_555
C3 C4 1_555 1_555
C4 C5 1_555 1_555
C5 C6 1_555 1_555
C6 C7 1_555 1_555
C7 C2 1_555 1_555
C8 O3 1_555 1_555
C9 C8 1_555 1_555
C10 C9 1_555 1_555
C11 C10 1_555 1_555
C12 C11 1_555 1_555
C13 C12 1_555 1_555
C14 C9 1_555 1_555
C15 O5 1_555 1_555
C16 C15 1_555 1_555
C17 C16 1_555 1_555
C18 C17 1_555 1_555
C19 C18 1_555 1_555
C20 C19 1_555 1_555
C21 C16 1_555 1_555
C22 O7 1_555 1_555
C23 N1 1_555 1_555
C24 N1 1_555 1_555
H1 C23 1_555 1_555
H2 C23 1_555 1_555
H3 C23 1_555 1_555
H4 C24 1_555 1_555
H5 C24 1_555 1_555
H6 C24 1_555 1_555
H7 C3 1_555 1_555
H8 C4 1_555 1_555
H9 C5 1_555 1_555
H10 C6 1_555 1_555
H11 C7 1_555 1_555
H12 C10 1_555 1_555
H13 C11 1_555 1_555
H14 C12 1_555 1_555
H15 C13 1_555 1_555
H16 C14 1_555 1_555
H17 C17 1_555 1_555
H18 C18 1_555 1_555
H19 C19 1_555 1_555
H20 C20 1_555 1_555
H21 C21 1_555 1_555
H22 C22 1_555 1_555
Gd1D O1 1_555 1_555
Gd1D_2 O6 1_555 1_555
O1D Gd1 1_555 1_555
O2D Gd1 1_555 1_555
O4D Gd1 1_555 1_555
O6D Gd1 1_555 1_555
O2 Gd1D 1_555 1_555
O4 Gd1D 1_555 1_555
C13 C14 1_555 1_555
C20 C21 1_555 1_555
Gd1D O1D 1_555 1_555

#END
