
#######################################################################
#
#                 Cambridge Crystallographic Data Centre
#                                CCDC 
#
#######################################################################
#
# If this CIF has been generated from an entry in the Cambridge 
# Structural Database, then it will include bibliographic, chemical, 
# crystal, experimental, refinement or atomic coordinate data resulting 
# from the CCDC's data processing and validation procedures.
#
#######################################################################

data_LUSCIL
_symmetry_cell_setting           tetragonal
_symmetry_space_group_name_H-M   'P 42/n'
_symmetry_Int_Tables_number      86
_space_group_name_Hall           '-P 4bc'
loop_
_symmetry_equiv_pos_site_id
_symmetry_equiv_pos_as_xyz
1 x,y,z
2 -y,1/2+x,1/2+z
3 1/2+y,-x,1/2+z
4 1/2-x,1/2-y,z
5 -x,-y,-z
6 y,1/2-x,1/2-z
7 1/2-y,x,1/2-z
8 1/2+x,1/2+y,-z
_cell_length_a                   22.587(1)
_cell_length_b                   22.587(1)
_cell_length_c                   9.2260(6)
_cell_angle_alpha                90
_cell_angle_beta                 90
_cell_angle_gamma                90
_cell_volume                     4706.85
loop_
_atom_site_label
_atom_site_type_symbol
_atom_site_fract_x
_atom_site_fract_y
_atom_site_fract_z
Eu1 Eu 0.500766(9) 0.509157(8) 0.21158(2)
O1 O 0.5500(1) 0.4589(1) 0.0265(3)
O2 O 0.5656(1) 0.4036(1) -0.1652(3)
O3 O 0.5659(1) 0.5781(1) 0.0939(4)
O4 O 0.5756(1) 0.5578(1) -0.1417(3)
O5 O 0.5778(1) 0.5290(1) 0.3766(3)
O6 O 0.5610(1) 0.4856(1) 0.5898(3)
O7 O 0.5259(2) 0.4145(1) 0.3186(4)
N1 N 0.5206(2) 0.3434(2) 0.4901(5)
C1 C 0.5776(2) 0.4174(2) -0.0371(5)
C2 C 0.6267(2) 0.3871(2) 0.0415(5)
C3 C 0.6445(3) 0.3311(3) -0.0002(6)
C4 C 0.6882(3) 0.3018(3) 0.0754(8)
C5 C 0.7146(2) 0.3284(3) 0.1909(7)
C6 C 0.6979(2) 0.3840(3) 0.2326(6)
C7 C 0.6532(2) 0.4129(2) 0.1591(5)
C8 C 0.5931(2) 0.5804(2) -0.0254(5)
C9 C 0.6524(2) 0.6114(2) -0.0274(5)
C10 C 0.6741(2) 0.6374(2) 0.0985(6)
C11 C 0.7287(3) 0.6651(3) 0.0977(7)
C12 C 0.7611(3) 0.6681(3) -0.0291(8)
C13 C 0.7399(3) 0.6421(3) -0.1556(7)
C14 C 0.6853(2) 0.6135(2) -0.1532(6)
C15 C 0.5948(2) 0.5067(2) 0.4949(4)
C16 C 0.6606(2) 0.5054(2) 0.5243(5)
C17 C 0.6831(2) 0.4722(2) 0.6362(6)
C18 C 0.7434(2) 0.4719(3) 0.6652(7)
C19 C 0.7810(2) 0.5051(3) 0.5837(7)
C20 C 0.7594(2) 0.5388(3) 0.4716(7)
C21 C 0.6991(2) 0.5387(3) 0.4392(6)
C22 C 0.4973(2) 0.3818(2) 0.3991(6)
C23 C 0.4845(3) 0.3078(3) 0.5849(9)
C24 C 0.5844(3) 0.3375(3) 0.4996(6)
H1 H 0.6265 0.3125 -0.0815
H2 H 0.6998 0.2631 0.0470
H3 H 0.7447 0.3082 0.2432
H4 H 0.7172 0.4028 0.3119
H5 H 0.6408 0.4511 0.1905
H6 H 0.6515 0.6361 0.1854
H7 H 0.7440 0.6822 0.1841
H8 H 0.7981 0.6882 -0.0301
H9 H 0.7624 0.6438 -0.2427
H10 H 0.6707 0.5953 -0.2389
H11 H 0.6571 0.4491 0.6945
H12 H 0.7584 0.4485 0.7427
H13 H 0.8222 0.5049 0.6046
H14 H 0.7858 0.5624 0.4159
H15 H 0.6845 0.5612 0.3596
H16 H 0.4554 0.3845 0.3953
H17 H 0.4622 0.3329 0.6462
H18 H 0.4588 0.2841 0.5281
H19 H 0.5095 0.2831 0.6415
H20 H 0.5938 0.3084 0.5704
H21 H 0.5995 0.3258 0.4083
H22 H 0.6010 0.3744 0.5270
O1D O 0.4500(1) 0.5411(1) -0.0265(3)
O2D O 0.4344(1) 0.5964(1) 0.1652(3)
O4D O 0.4244(1) 0.4422(1) 0.1417(3)
O6D O 0.4390(1) 0.5144(1) 0.4102(3)
Eu1D Eu 0.499234(9) 0.490843(8) -0.21158(2)
Eu1D_2 Eu 0.499234(9) 0.490843(8) 0.78842(2)
loop_
_geom_bond_atom_site_label_1
_geom_bond_atom_site_label_2
_geom_bond_site_symmetry_1
_geom_bond_site_symmetry_2
Eu1 O1 1_555 1_555
O1 C1 1_555 1_555
O2 C1 1_555 1_555
O3 Eu1 1_555 1_555
O4 C8 1_555 1_555
O5 Eu1 1_555 1_555
O6 C15 1_555 1_555
O7 Eu1 1_555 1_555
N1 C22 1_555 1_555
C1 C2 1_555 1_555
C2 C3 1_555 1_555
C3 C4 1_555 1_555
C4 C5 1_555 1_555
C5 C6 1_555 1_555
C6 C7 1_555 1_555
C7 C2 1_555 1_555
C8 O3 1_555 1_555
C9 C8 1_555 1_555
C10 C9 1_555 1_555
C11 C10 1_555 1_555
C12 C11 1_555 1_555
C13 C12 1_555 1_555
C14 C9 1_555 1_555
C15 O5 1_555 1_555
C16 C15 1_555 1_555
C17 C16 1_555 1_555
C18 C17 1_555 1_555
C19 C18 1_555 1_555
C20 C19 1_555 1_555
C21 C16 1_555 1_555
C22 O7 1_555 1_555
C23 N1 1_555 1_555
C24 N1 1_555 1_555
H1 C3 1_555 1_555
H2 C4 1_555 1_555
H3 C5 1_555 1_555
H4 C6 1_555 1_555
H5 C7 1_555 1_555
H6 C10 1_555 1_555
H7 C11 1_555 1_555
H8 C12 1_555 1_555
H9 C13 1_555 1_555
H10 C14 1_555 1_555
H11 C17 1_555 1_555
H12 C18 1_555 1_555
H13 C19 1_555 1_555
H14 C20 1_555 1_555
H15 C21 1_555 1_555
H16 C22 1_555 1_555
H17 C23 1_555 1_555
H18 C23 1_555 1_555
H19 C23 1_555 1_555
H20 C24 1_555 1_555
H21 C24 1_555 1_555
H22 C24 1_555 1_555
O1D Eu1 1_555 1_555
O2D Eu1 1_555 1_555
O4D Eu1 1_555 1_555
O6D Eu1 1_555 1_555
Eu1D O1 1_555 1_555
Eu1D_2 O6 1_555 1_555
O2 Eu1D 1_555 1_555
O4 Eu1D 1_555 1_555
C13 C14 1_555 1_555
C20 C21 1_555 1_555
O1D Eu1D 1_555 1_555

#END
