
#######################################################################
#
#                 Cambridge Crystallographic Data Centre
#                                CCDC 
#
#######################################################################
#
# If this CIF has been generated from an entry in the Cambridge 
# Structural Database, then it will include bibliographic, chemical, 
# crystal, experimental, refinement or atomic coordinate data resulting 
# from the CCDC's data processing and validation procedures.
#
#######################################################################

data_LUSCUX
_symmetry_cell_setting           tetragonal
_symmetry_space_group_name_H-M   'P 42/n'
_symmetry_Int_Tables_number      86
_space_group_name_Hall           '-P 4bc'
loop_
_symmetry_equiv_pos_site_id
_symmetry_equiv_pos_as_xyz
1 x,y,z
2 -y,1/2+x,1/2+z
3 1/2+y,-x,1/2+z
4 1/2-x,1/2-y,z
5 -x,-y,-z
6 y,1/2-x,1/2-z
7 1/2-y,x,1/2-z
8 1/2+x,1/2+y,-z
_cell_length_a                   22.496(2)
_cell_length_b                   22.496(2)
_cell_length_c                   9.199(10)
_cell_angle_alpha                90
_cell_angle_beta                 90
_cell_angle_gamma                90
_cell_volume                     4655.34
loop_
_atom_site_label
_atom_site_type_symbol
_atom_site_fract_x
_atom_site_fract_y
_atom_site_fract_z
Tb1 Tb -0.00900(5) -0.00087(6) 0.2111(1)
O1 O 0.0410(7) -0.0469(7) 0.025(2)
O2 O 0.0961(8) -0.0644(8) -0.166(2)
O3 O 0.0575(8) 0.0759(8) 0.138(2)
O4 O 0.0784(7) 0.0666(7) -0.092(2)
O5 O -0.0273(7) -0.0753(7) 0.373(2)
O6 O 0.0116(7) -0.0602(7) 0.591(2)
O7 O 0.0818(7) -0.0237(7) 0.314(2)
N1 N 0.157(1) -0.020(1) 0.488(3)
C1 C 0.081(1) -0.077(1) -0.038(3)
C2 C 0.112(1) -0.127(1) 0.041(3)
C3 C 0.169(1) -0.145(1) -0.005(4)
C4 C 0.197(2) -0.189(2) 0.071(4)
C5 C 0.172(1) -0.217(1) 0.185(4)
C6 C 0.117(1) -0.199(1) 0.228(3)
C7 C 0.086(1) -0.154(1) 0.161(3)
C8 C 0.080(1) 0.096(1) 0.023(3)
C9 C 0.111(1) 0.151(1) 0.026(3)
C10 C 0.139(1) 0.173(1) -0.096(3)
C11 C 0.166(1) 0.228(1) -0.092(4)
C12 C 0.166(2) 0.260(2) 0.028(4)
C13 C 0.140(1) 0.240(1) 0.152(4)
C14 C 0.116(1) 0.186(1) 0.151(4)
C15 C -0.0077(10) -0.095(1) 0.497(3)
C16 C -0.006(1) -0.160(1) 0.524(3)
C17 C 0.027(1) -0.183(1) 0.638(4)
C18 C 0.024(1) -0.243(1) 0.663(4)
C19 C -0.004(2) -0.279(2) 0.581(4)
C20 C -0.039(1) -0.258(1) 0.470(4)
C21 C -0.038(1) -0.198(1) 0.442(4)
C22 C 0.116(1) -0.001(1) 0.394(3)
C23 C 0.191(2) 0.014(2) 0.591(5)
C24 C 0.163(1) -0.084(1) 0.500(4)
H1 H 0.1872 -0.1270 -0.0872
H2 H 0.2362 -0.1999 0.0413
H3 H 0.1925 -0.2480 0.2343
H4 H 0.0996 -0.2183 0.3087
H5 H 0.0477 -0.1421 0.1943
H6 H 0.1388 0.1506 -0.1837
H7 H 0.1844 0.2427 -0.1773
H8 H 0.1857 0.2975 0.0272
H9 H 0.1394 0.2646 0.2369
H10 H 0.1020 0.1699 0.2405
H11 H 0.0499 -0.1577 0.6982
H12 H 0.0449 -0.2583 0.7453
H13 H -0.0011 -0.3208 0.5977
H14 H -0.0632 -0.2843 0.4145
H15 H -0.0608 -0.1823 0.3635
H16 H 0.1140 0.0410 0.3912
H17 H 0.2324 0.0056 0.5791
H18 H 0.1851 0.0557 0.5747
H19 H 0.1796 0.0047 0.6873
H20 H 0.1269 -0.1008 0.5326
H21 H 0.1732 -0.1000 0.4077
H22 H 0.1939 -0.0928 0.5676
O1D O -0.0410(7) 0.0469(7) -0.025(2)
O2D O -0.0961(8) 0.0644(8) 0.166(2)
O4D O -0.0784(7) -0.0666(7) 0.092(2)
O6D O -0.0116(7) 0.0602(7) 0.409(2)
Tb1D Tb 0.00900(5) 0.00087(6) -0.2111(1)
Tb1D_2 Tb 0.00900(5) 0.00087(6) 0.7889(1)
loop_
_geom_bond_atom_site_label_1
_geom_bond_atom_site_label_2
_geom_bond_site_symmetry_1
_geom_bond_site_symmetry_2
Tb1 O1 1_555 1_555
O1 C1 1_555 1_555
O2 C1 1_555 1_555
O3 Tb1 1_555 1_555
O4 C8 1_555 1_555
O5 Tb1 1_555 1_555
O6 C15 1_555 1_555
O7 Tb1 1_555 1_555
N1 C22 1_555 1_555
C1 C2 1_555 1_555
C2 C3 1_555 1_555
C3 C4 1_555 1_555
C4 C5 1_555 1_555
C5 C6 1_555 1_555
C6 C7 1_555 1_555
C7 C2 1_555 1_555
C8 O3 1_555 1_555
C9 C8 1_555 1_555
C10 C9 1_555 1_555
C11 C10 1_555 1_555
C12 C11 1_555 1_555
C13 C12 1_555 1_555
C14 C9 1_555 1_555
C15 O5 1_555 1_555
C16 C15 1_555 1_555
C17 C16 1_555 1_555
C18 C17 1_555 1_555
C19 C18 1_555 1_555
C20 C19 1_555 1_555
C21 C16 1_555 1_555
C22 O7 1_555 1_555
C23 N1 1_555 1_555
C24 N1 1_555 1_555
H1 C3 1_555 1_555
H2 C4 1_555 1_555
H3 C5 1_555 1_555
H4 C6 1_555 1_555
H5 C7 1_555 1_555
H6 C10 1_555 1_555
H7 C11 1_555 1_555
H8 C12 1_555 1_555
H9 C13 1_555 1_555
H10 C14 1_555 1_555
H11 C17 1_555 1_555
H12 C18 1_555 1_555
H13 C19 1_555 1_555
H14 C20 1_555 1_555
H15 C21 1_555 1_555
H16 C22 1_555 1_555
H17 C23 1_555 1_555
H18 C23 1_555 1_555
H19 C23 1_555 1_555
H20 C24 1_555 1_555
H21 C24 1_555 1_555
H22 C24 1_555 1_555
O1D Tb1 1_555 1_555
O2D Tb1 1_555 1_555
O4D Tb1 1_555 1_555
O6D Tb1 1_555 1_555
Tb1D O1 1_555 1_555
Tb1D_2 O6 1_555 1_555
O2 Tb1D 1_555 1_555
O4 Tb1D 1_555 1_555
C13 C14 1_555 1_555
C20 C21 1_555 1_555
O1D Tb1D 1_555 1_555

#END
