
#######################################################################
#
#                 Cambridge Crystallographic Data Centre
#                                CCDC 
#
#######################################################################
#
# If this CIF has been generated from an entry in the Cambridge 
# Structural Database, then it will include bibliographic, chemical, 
# crystal, experimental, refinement or atomic coordinate data resulting 
# from the CCDC's data processing and validation procedures.
#
#######################################################################

data_LUSCOR03
_symmetry_cell_setting           tetragonal
_symmetry_space_group_name_H-M   'P 42/n'
_symmetry_Int_Tables_number      86
_space_group_name_Hall           'P -4 -1n'
loop_
_symmetry_equiv_pos_site_id
_symmetry_equiv_pos_as_xyz
1 x,y,z
2 -x,-y,z
3 1/2-y,1/2+x,1/2+z
4 1/2+y,1/2-x,1/2+z
5 1/2-x,1/2-y,1/2-z
6 1/2+x,1/2+y,1/2-z
7 y,-x,-z
8 -y,x,-z
_cell_length_a                   22.0678(4)
_cell_length_b                   22.0678(4)
_cell_length_c                   9.1203(3)
_cell_angle_alpha                90
_cell_angle_beta                 90
_cell_angle_gamma                90
_cell_volume                     4441.47
loop_
_atom_site_label
_atom_site_type_symbol
_atom_site_fract_x
_atom_site_fract_y
_atom_site_fract_z
Gd1 Gd 0.739780(19) 0.749318(15) -0.03805(3)
O1 O 0.7910(2) 0.6997(2) -0.2245(4)
O2 O 0.8496(2) 0.6833(3) -0.4148(4)
O3 O 0.6698(2) 0.6826(2) -0.1579(4)
O4 O 0.6924(3) 0.6723(2) -0.3957(4)
O5 O 0.7186(3) 0.6708(2) 0.1272(4)
O6 O 0.7657(3) 0.6891(2) 0.3372(4)
O7 O 0.8358(2) 0.7231(3) 0.0693(4)
N1 N 0.9075(3) 0.7275(3) 0.2463(6)
C1 C 0.8339(3) 0.6711(3) -0.2865(5)
C2 C 0.8632(2) 0.6214(3) -0.2030(5)
C3 C 0.9222(3) 0.6057(3) -0.2351(7)
C4 C 0.9524(3) 0.5620(3) -0.1521(8)
C5 C 0.9228(4) 0.5340(3) -0.0377(7)
C6 C 0.8638(3) 0.5497(3) -0.0061(6)
C7 C 0.8344(3) 0.5933(3) -0.0871(5)
C8 C 0.6681(3) 0.6536(3) -0.2765(5)
C9 C 0.6389(2) 0.5928(2) -0.2791(5)
C10 C 0.6129(3) 0.5705(3) -0.1524(6)
C11 C 0.5849(3) 0.5141(3) -0.1531(7)
C12 C 0.5823(3) 0.4813(3) -0.2802(9)
C13 C 0.6078(3) 0.5032(3) -0.4060(7)
C14 C 0.6359(3) 0.5586(3) -0.4062(6)
C15 C 0.7433(3) 0.6534(2) 0.2460(5)
C16 C 0.7433(3) 0.5868(2) 0.2760(5)
C17 C 0.7777(3) 0.5648(3) 0.3911(6)
C18 C 0.7772(3) 0.5027(3) 0.4209(7)
C19 C 0.7425(3) 0.4648(3) 0.3380(7)
C20 C 0.7084(3) 0.4864(3) 0.2240(7)
C21 C 0.7094(3) 0.5477(3) 0.1921(6)
C22 C 0.8688(3) 0.7522(3) 0.1540(6)
C23 C 0.9433(5) 0.7641(4) 0.3459(10)
C24 C 0.9144(4) 0.6626(4) 0.2554(7)
H1 H 0.9322 0.8060 0.3355
H2 H 0.9856 0.7596 0.3224
H3 H 0.9365 0.7513 0.4449
H4 H 0.8888 0.6437 0.1838
H5 H 0.9560 0.6519 0.2371
H6 H 0.9029 0.6489 0.3515
H7 H 0.9421 0.6245 -0.3128
H8 H 0.9923 0.5518 -0.1738
H9 H 0.9424 0.5046 0.0177
H10 H 0.8436 0.5306 0.0707
H11 H 0.7948 0.6040 -0.0635
H12 H 0.6142 0.5932 -0.0666
H13 H 0.5680 0.4987 -0.0675
H14 H 0.5631 0.4438 -0.2810
H15 H 0.6062 0.4805 -0.4918
H16 H 0.6530 0.5733 -0.4923
H17 H 0.8010 0.5910 0.4478
H18 H 0.8005 0.4872 0.4972
H19 H 0.7420 0.4235 0.3591
H20 H 0.6847 0.4601 0.1686
H21 H 0.6871 0.5625 0.1134
H22 H 0.8661 0.7943 0.1523
Gd1D Gd 0.760220(19) 0.750682(15) -0.46195(3)
Gd1D_2 Gd 0.760220(19) 0.750682(15) 0.53805(3)
O1D O 0.7090(2) 0.8003(2) -0.2755(4)
O2D O 0.6504(2) 0.8167(3) -0.0852(4)
O4D O 0.8076(3) 0.8277(2) -0.1043(4)
O6D O 0.7343(3) 0.8109(2) 0.1628(4)
loop_
_geom_bond_atom_site_label_1
_geom_bond_atom_site_label_2
_geom_bond_site_symmetry_1
_geom_bond_site_symmetry_2
Gd1 O1 1_555 1_555
O1 C1 1_555 1_555
O2 C1 1_555 1_555
O3 Gd1 1_555 1_555
O4 C8 1_555 1_555
O5 Gd1 1_555 1_555
O6 C15 1_555 1_555
O7 Gd1 1_555 1_555
N1 C22 1_555 1_555
C1 C2 1_555 1_555
C2 C3 1_555 1_555
C3 C4 1_555 1_555
C4 C5 1_555 1_555
C5 C6 1_555 1_555
C6 C7 1_555 1_555
C7 C2 1_555 1_555
C8 O3 1_555 1_555
C9 C8 1_555 1_555
C10 C9 1_555 1_555
C11 C10 1_555 1_555
C12 C11 1_555 1_555
C13 C12 1_555 1_555
C14 C9 1_555 1_555
C15 O5 1_555 1_555
C16 C15 1_555 1_555
C17 C16 1_555 1_555
C18 C17 1_555 1_555
C19 C18 1_555 1_555
C20 C19 1_555 1_555
C21 C16 1_555 1_555
C22 O7 1_555 1_555
C23 N1 1_555 1_555
C24 N1 1_555 1_555
H1 C23 1_555 1_555
H2 C23 1_555 1_555
H3 C23 1_555 1_555
H4 C24 1_555 1_555
H5 C24 1_555 1_555
H6 C24 1_555 1_555
H7 C3 1_555 1_555
H8 C4 1_555 1_555
H9 C5 1_555 1_555
H10 C6 1_555 1_555
H11 C7 1_555 1_555
H12 C10 1_555 1_555
H13 C11 1_555 1_555
H14 C12 1_555 1_555
H15 C13 1_555 1_555
H16 C14 1_555 1_555
H17 C17 1_555 1_555
H18 C18 1_555 1_555
H19 C19 1_555 1_555
H20 C20 1_555 1_555
H21 C21 1_555 1_555
H22 C22 1_555 1_555
Gd1D O1 1_555 1_555
Gd1D_2 O6 1_555 1_555
O1D Gd1 1_555 1_555
O2D Gd1 1_555 1_555
O4D Gd1 1_555 1_555
O6D Gd1 1_555 1_555
O2 Gd1D 1_555 1_555
O4 Gd1D 1_555 1_555
C13 C14 1_555 1_555
C20 C21 1_555 1_555
Gd1D O1D 1_555 1_555

#END
