
#######################################################################
#
#                 Cambridge Crystallographic Data Centre
#                                CCDC 
#
#######################################################################
#
# If this CIF has been generated from an entry in the Cambridge 
# Structural Database, then it will include bibliographic, chemical, 
# crystal, experimental, refinement or atomic coordinate data resulting 
# from the CCDC's data processing and validation procedures.
#
#######################################################################

data_LUSDIM
_symmetry_cell_setting           triclinic
_symmetry_space_group_name_H-M   'P -1'
_symmetry_Int_Tables_number      2
_space_group_name_Hall           '-P 1'
loop_
_symmetry_equiv_pos_site_id
_symmetry_equiv_pos_as_xyz
1 x,y,z
2 -x,-y,-z
_cell_length_a                   9.7320(8)
_cell_length_b                   10.7110(8)
_cell_length_c                   15.264(1)
_cell_angle_alpha                88.86(1)
_cell_angle_beta                 88.69(1)
_cell_angle_gamma                77.25(1)
_cell_volume                     1551.29
loop_
_atom_site_label
_atom_site_type_symbol
_atom_site_fract_x
_atom_site_fract_y
_atom_site_fract_z
Eu1 Eu 0.25250(4) 0.97467(4) 0.47685(3)
F1 F -0.415(1) 0.870(1) 0.0561(7)
F2 F -0.219(1) 0.7530(9) 0.0219(6)
F3 F -0.350(1) 0.8697(10) -0.0750(6)
F4 F 0.034(1) 1.7703(8) 0.8974(6)
F5 F 0.213(1) 1.628(1) 0.8782(7)
F6 F 0.023(1) 1.5797(8) 0.9195(6)
F7 F 0.654(2) 0.483(1) 0.9567(7)
F8 F 0.653(2) 0.286(1) 0.9480(10)
F9 F 0.794(2) 0.354(2) 0.868(2)
O1 O 0.1157(6) 1.0075(7) 0.3486(4)
O2 O -0.0971(7) 1.0596(7) 0.4108(4)
O3 O -0.2498(8) 0.9667(8) 0.0164(4)
O4 O 0.1140(6) 1.1961(6) 0.5163(4)
O5 O 0.3005(6) 1.1176(6) 0.5956(4)
O6 O 0.048(1) 1.6459(9) 0.7885(7)
O7 O 0.4303(7) 0.8400(6) 0.5508(4)
O8 O 0.6316(7) 0.8822(7) 0.5922(4)
O9 O 0.599(2) 0.406(1) 0.8420(10)
O10 O 0.4267(6) 0.8584(6) 0.3631(4)
O11 O 0.1749(6) 0.7706(6) 0.4595(5)
C1 C -0.0152(8) 1.0278(8) 0.3456(5)
C2 C -0.0783(8) 1.0139(7) 0.2589(5)
C3 C 0.0046(8) 0.9478(9) 0.1919(5)
C4 C -0.0511(9) 0.9266(9) 0.1130(5)
C5 C -0.1910(9) 0.9785(9) 0.1004(5)
C6 C -0.2762(8) 1.0467(10) 0.1624(6)
C7 C -0.2188(8) 1.0637(9) 0.2438(5)
C8 C -0.310(2) 0.867(2) 0.0057(9)
C9 C 0.1970(8) 1.2044(8) 0.5759(6)
C10 C 0.1638(9) 1.3199(8) 0.6364(6)
C11 C 0.104(1) 1.442(1) 0.6001(7)
C12 C 0.078(1) 1.547(1) 0.6514(8)
C13 C 0.095(1) 1.530(1) 0.7430(9)
C14 C 0.146(1) 1.415(1) 0.7788(7)
C15 C 0.186(1) 1.3096(9) 0.7239(6)
C16 C 0.075(2) 1.656(1) 0.8692(10)
C17 C 0.5378(8) 0.8187(8) 0.5966(5)
C18 C 0.5574(8) 0.7095(8) 0.6622(5)
C19 C 0.665(1) 0.692(1) 0.7218(8)
C20 C 0.679(2) 0.594(1) 0.7811(9)
C21 C 0.588(1) 0.514(1) 0.7801(9)
C22 C 0.483(1) 0.528(1) 0.7243(9)
C23 C 0.4653(9) 0.6261(9) 0.6634(7)
C24 C 0.654(4) 0.389(2) 0.903(2)
C25 C 0.423(1) 0.886(1) 0.2732(7)
C26 C 0.235(2) 0.662(2) 0.403(1)
H1 H 0.0826 1.4503 0.5396
H2 H 0.0493 1.6308 0.6263
H3 H 0.1551 1.4048 0.8405
H4 H 0.2297 1.2288 0.7485
H5 H 0.1025 0.9165 0.2008
H6 H 0.0054 0.8777 0.0688
H7 H -0.3727 1.0822 0.1510
H8 H -0.2771 1.1097 0.2884
H9 H 0.7286 0.7480 0.7213
H10 H 0.7516 0.5816 0.8231
H11 H 0.4202 0.4709 0.7265
H12 H 0.3913 0.6373 0.6225
H13 H 0.1348 0.6921 0.4638
H14 H 0.5292 0.8453 0.3858
H15 H 0.2705 0.5884 0.4383
H16 H 0.1637 0.6453 0.3662
H17 H 0.3092 0.6819 0.3678
H18 H 0.4553 0.9619 0.2620
H19 H 0.4816 0.8168 0.2428
H20 H 0.3288 0.8969 0.2537
O2A O 0.0971(7) 0.9404(7) 0.5892(4)
O8A O 0.3684(7) 1.1178(7) 0.4078(4)
Eu1A Eu -0.25250(4) 1.02533(4) 0.52315(3)
Eu1A_2 Eu 0.74750(4) 1.02533(4) 0.52315(3)
loop_
_geom_bond_atom_site_label_1
_geom_bond_atom_site_label_2
_geom_bond_site_symmetry_1
_geom_bond_site_symmetry_2
Eu1 O1 1_555 1_555
F1 C8 1_555 1_555
F2 C8 1_555 1_555
F3 C8 1_555 1_555
F4 C16 1_555 1_555
F5 C16 1_555 1_555
F6 C16 1_555 1_555
F7 C24 1_555 1_555
F8 C24 1_555 1_555
F9 C24 1_555 1_555
O1 C1 1_555 1_555
O2 C1 1_555 1_555
O3 C5 1_555 1_555
O4 Eu1 1_555 1_555
O5 Eu1 1_555 1_555
O6 C13 1_555 1_555
O7 Eu1 1_555 1_555
O8 C17 1_555 1_555
O9 C21 1_555 1_555
O10 Eu1 1_555 1_555
O11 Eu1 1_555 1_555
C1 C2 1_555 1_555
C2 C3 1_555 1_555
C3 C4 1_555 1_555
C4 C5 1_555 1_555
C5 C6 1_555 1_555
C6 C7 1_555 1_555
C7 C2 1_555 1_555
C8 O3 1_555 1_555
C9 O4 1_555 1_555
C10 C9 1_555 1_555
C11 C10 1_555 1_555
C12 C11 1_555 1_555
C13 C12 1_555 1_555
C14 C13 1_555 1_555
C15 C10 1_555 1_555
C16 O6 1_555 1_555
C17 O7 1_555 1_555
C18 C17 1_555 1_555
C19 C18 1_555 1_555
C20 C19 1_555 1_555
C21 C20 1_555 1_555
C22 C21 1_555 1_555
C23 C18 1_555 1_555
C24 O9 1_555 1_555
C25 O10 1_555 1_555
C26 O11 1_555 1_555
H1 C11 1_555 1_555
H2 C12 1_555 1_555
H3 C14 1_555 1_555
H4 C15 1_555 1_555
H5 C3 1_555 1_555
H6 C4 1_555 1_555
H7 C6 1_555 1_555
H8 C7 1_555 1_555
H9 C19 1_555 1_555
H10 C20 1_555 1_555
H11 C22 1_555 1_555
H12 C23 1_555 1_555
H13 O11 1_555 1_555
H14 O10 1_555 1_555
H15 C26 1_555 1_555
H16 C26 1_555 1_555
H17 C26 1_555 1_555
H18 C25 1_555 1_555
H19 C25 1_555 1_555
H20 C25 1_555 1_555
O2A Eu1 1_555 1_555
O8A Eu1 1_555 1_555
Eu1A O2 1_555 1_555
Eu1A_2 O8 1_555 1_555
O5 C9 1_555 1_555
C14 C15 1_555 1_555
C22 C23 1_555 1_555

#END
