
#######################################################################
#
#                 Cambridge Crystallographic Data Centre
#                                CCDC 
#
#######################################################################
#
# If this CIF has been generated from an entry in the Cambridge 
# Structural Database, then it will include bibliographic, chemical, 
# crystal, experimental, refinement or atomic coordinate data resulting 
# from the CCDC's data processing and validation procedures.
#
#######################################################################

data_LUSGUC
_symmetry_cell_setting           orthorhombic
_symmetry_space_group_name_H-M   'I m m a'
_symmetry_Int_Tables_number      74
_space_group_name_Hall           '-I 2b 2'
loop_
_symmetry_equiv_pos_site_id
_symmetry_equiv_pos_as_xyz
1 x,y,z
2 -x,1/2-y,z
3 x,-y,-z
4 -x,1/2+y,-z
5 1/2+x,1/2+y,1/2+z
6 1/2-x,-y,1/2+z
7 1/2+x,1/2-y,1/2-z
8 1/2-x,y,1/2-z
9 -x,-y,-z
10 x,1/2+y,-z
11 -x,y,z
12 x,1/2-y,z
13 1/2-x,1/2-y,1/2-z
14 1/2+x,y,1/2-z
15 1/2-x,1/2+y,1/2+z
16 1/2+x,-y,1/2+z
_cell_length_a                   19.509(5)
_cell_length_b                   7.3756(19)
_cell_length_c                   9.320(3)
_cell_angle_alpha                90
_cell_angle_beta                 90
_cell_angle_gamma                90
_cell_volume                     1341.06
loop_
_atom_site_label
_atom_site_type_symbol
_atom_site_fract_x
_atom_site_fract_y
_atom_site_fract_z
C1 C 0.71638(18) 0.4088(5) 0.7260(6)
H1 H 0.6943 0.5185 0.7093
C2 C 0.6821(2) 0.2500 0.7031(5)
C3 C 0.6084(2) 0.2500 0.6528(5)
C4 C 0.5595(4) -0.2500 0.8372(8)
H2 H 0.6008 -0.2500 0.7875
C5 C 0.5593(5) -0.2500 0.9825(9)
H3 H 0.6006 -0.2500 1.0325
C6 C 0.5000 -0.2500 1.0543(12)
H4 H 0.5000 -0.2500 1.1541
N1 N 0.5000 -0.2500 0.7650(7)
O1 O 0.58052(11) 0.0987(3) 0.6357(3)
O2 O 0.5000 -0.2500 0.6274(5)
Mn1 Mn 0.5000 0.0000 0.5000
C1G C 0.78362(18) 0.4088(5) 0.7740(6)
C1K C 0.71638(18) 0.0912(5) 0.7260(6)
C1L C 0.78362(18) 0.0912(5) 0.7740(6)
H1G H 0.8057 0.5185 0.7907
H1K H 0.6943 -0.0185 0.7093
H1L H 0.8057 -0.0185 0.7907
C2G C 0.8179(2) 0.2500 0.7969(5)
C3G C 0.8916(2) 0.2500 0.8472(5)
C4A C 0.4405(4) -0.2500 0.8372(8)
H2A H 0.3992 -0.2500 0.7875
C5A C 0.4407(5) -0.2500 0.9825(9)
H3A H 0.3994 -0.2500 1.0325
O1G O 0.91948(11) 0.0987(3) 0.8643(3)
O1K O 0.58052(11) 0.4013(3) 0.6357(3)
O1L O 0.91948(11) 0.4013(3) 0.8643(3)
O1B O 0.58052(11) -0.0987(3) 0.3643(3)
O1H O 0.41948(11) -0.0987(3) 0.3643(3)
O1J O 0.41948(11) 0.0987(3) 0.6357(3)
O2B O 0.5000 0.2500 0.3726(5)
Mn1A Mn 0.5000 0.5000 0.5000
Mn1A_2 Mn 0.5000 -0.5000 0.5000
Mn1D Mn 1.0000 0.5000 1.0000
Mn1E Mn 1.0000 0.0000 1.0000
loop_
_geom_bond_atom_site_label_1
_geom_bond_atom_site_label_2
_geom_bond_site_symmetry_1
_geom_bond_site_symmetry_2
C1 H1 1_555 1_555
C2 C1 1_555 1_555
C3 C2 1_555 1_555
C4 H2 1_555 1_555
C5 C4 1_555 1_555
H3 C5 1_555 1_555
C6 C5 1_555 1_555
H4 C6 1_555 1_555
N1 C4 1_555 1_555
O1 C3 1_555 1_555
O2 N1 1_555 1_555
Mn1 O1 1_555 1_555
C1G C1 1_555 1_555
C1K C2 1_555 1_555
C1L C1K 1_555 1_555
H1G C1G 1_555 1_555
H1K C1K 1_555 1_555
H1L C1L 1_555 1_555
C2G C1G 1_555 1_555
C3G C2G 1_555 1_555
C4A N1 1_555 1_555
H2A C4A 1_555 1_555
C5A C6 1_555 1_555
H3A C5A 1_555 1_555
O1G C3G 1_555 1_555
O1K C3 1_555 1_555
O1L C3G 1_555 1_555
O1B Mn1 1_555 1_555
O1H Mn1 1_555 1_555
O1J Mn1 1_555 1_555
O2B Mn1 1_555 1_555
Mn1A O1K 1_555 1_555
Mn1A_2 O2 1_555 1_555
Mn1D O1L 1_555 1_555
Mn1E O1G 1_555 1_555
O2 Mn1 1_555 1_555
C1L C2G 1_555 1_555
C4A C5A 1_555 1_555
O2B Mn1A 1_555 1_555

#END
