
#######################################################################
#
#                 Cambridge Crystallographic Data Centre
#                                CCDC 
#
#######################################################################
#
# If this CIF has been generated from an entry in the Cambridge 
# Structural Database, then it will include bibliographic, chemical, 
# crystal, experimental, refinement or atomic coordinate data resulting 
# from the CCDC's data processing and validation procedures.
#
#######################################################################

data_LUSHOX02
_symmetry_cell_setting           monoclinic
_symmetry_space_group_name_H-M   'P 21/c'
_symmetry_Int_Tables_number      14
_space_group_name_Hall           '-P 2ybc'
loop_
_symmetry_equiv_pos_site_id
_symmetry_equiv_pos_as_xyz
1 x,y,z
2 -x,1/2+y,1/2-z
3 -x,-y,-z
4 x,1/2-y,1/2+z
_cell_length_a                   13.5792(6)
_cell_length_b                   10.1898(4)
_cell_length_c                   17.6223(7)
_cell_angle_alpha                90
_cell_angle_beta                 90.738(1)
_cell_angle_gamma                90
_cell_volume                     2438.18
loop_
_atom_site_label
_atom_site_type_symbol
_atom_site_fract_x
_atom_site_fract_y
_atom_site_fract_z
Mn1 Mn 0.61004(2) 0.42030(3) 0.534281(16)
Mn2 Mn 0.84760(2) 0.57006(3) 0.519685(17)
O1 O 0.69811(11) 0.52466(15) 0.44819(8)
O2 O 0.54550(11) 0.59022(18) 0.44852(9)
O3 O 0.60995(14) 0.93349(18) 0.11665(10)
O4 O 0.74889(13) 0.82744(19) 0.09497(9)
O5 O 0.90979(13) 0.4790(2) 0.42644(10)
O6 O 1.04208(13) 0.3625(2) 0.40518(11)
O7 O 0.81751(16) 0.10825(19) 0.07888(10)
O8 O 0.67966(14) 0.2039(2) 0.11305(10)
O9 O 0.59295(14) 0.25813(17) 0.45626(11)
O10 O 0.85865(15) 0.75917(17) 0.46043(10)
C1 C 0.64060(15) 0.6537(2) 0.34369(11)
C2 C 0.73249(17) 0.6623(2) 0.31187(13)
C3 C 0.74305(17) 0.7245(3) 0.24267(13)
C4 C 0.66309(16) 0.7807(2) 0.20640(11)
C5 C 0.57099(16) 0.7717(2) 0.23870(12)
C6 C 0.55900(16) 0.7067(2) 0.30613(12)
C7 C 0.62742(15) 0.58644(19) 0.41760(11)
C8 C 0.67589(16) 0.8534(2) 0.13318(12)
C9 C 0.90823(15) 0.3383(2) 0.32107(11)
C10 C 0.80760(16) 0.3433(2) 0.31207(13)
C11 C 0.76323(17) 0.2907(2) 0.24785(14)
C12 C 0.81843(17) 0.2324(2) 0.19231(12)
C13 C 0.91934(19) 0.2250(3) 0.20193(14)
C14 C 0.96348(18) 0.2784(3) 0.26571(14)
C15 C 0.95699(15) 0.3982(2) 0.39026(12)
C16 C 0.7687(2) 0.1763(2) 0.12318(13)
C17 C 0.5208(2) 0.1887(2) 0.44434(15)
H1 H 0.4619 0.2130 0.4668
C18 C 0.6078(3) 0.0431(4) 0.3627(3)
H2 H 0.6575 0.1095 0.3684
H3 H 0.5923 0.0316 0.3098
H4 H 0.6317 -0.0381 0.3834
C19 C 0.4324(3) 0.0063(3) 0.3889(2)
H5 H 0.3809 0.0374 0.4212
H6 H 0.4456 -0.0843 0.3999
H7 H 0.4121 0.0151 0.3368
C20 C 0.8522(2) 0.8660(3) 0.49164(16)
H8 H 0.8354 0.8670 0.5426
C21 C 0.8576(3) 1.1037(3) 0.4987(2)
H9 H 0.8464 1.0870 0.5515
H10 H 0.8030 1.1521 0.4777
H11 H 0.9169 1.1538 0.4933
C22 C 0.8932(4) 0.9847(4) 0.3796(2)
H12 H 0.8901 0.8981 0.3582
H13 H 0.9589 1.0185 0.3751
H14 H 0.8480 1.0411 0.3529
N1 N 0.5205(2) 0.0827(2) 0.40234(15)
N2 N 0.8672(2) 0.9792(2) 0.45844(15)
H15 H 0.7687(18) 0.385(2) 0.3495(14)
H16 H 0.7844(18) 0.628(2) 0.3338(14)
H17 H 0.696(2) 0.291(3) 0.2433(15)
H18 H 0.956(2) 0.190(3) 0.1666(16)
H19 H 0.517(2) 0.814(3) 0.2126(15)
H20 H 0.8010(19) 0.729(2) 0.2203(14)
H21 H 0.4956(19) 0.701(2) 0.3275(14)
H22 H 1.030(2) 0.279(3) 0.2684(15)
Mn1B Mn 0.38996(2) 0.57970(3) 0.465719(16)
Mn1C Mn 0.61004(2) 0.07970(3) 0.034281(16)
Mn1C_2 Mn 0.61004(2) 1.07970(3) 0.034281(16)
Mn2B Mn 1.15240(2) 0.42994(3) 0.480315(17)
Mn2C Mn 0.84760(2) -0.07006(3) 0.019685(17)
Mn2C_2 Mn 0.84760(2) 0.92994(3) 0.019685(17)
O2B O 0.45450(11) 0.40978(18) 0.55148(9)
O3C O 0.60995(14) 0.56651(18) 0.61665(10)
O4C O 0.74889(13) 0.67256(19) 0.59497(9)
O6B O 0.95792(13) 0.6375(2) 0.59482(11)
O7C O 0.81751(16) 0.39175(19) 0.57888(10)
O8C O 0.67966(14) 0.2961(2) 0.61305(10)
loop_
_geom_bond_atom_site_label_1
_geom_bond_atom_site_label_2
_geom_bond_site_symmetry_1
_geom_bond_site_symmetry_2
Mn1 O1 1_555 1_555
Mn2 O1 1_555 1_555
O1 C7 1_555 1_555
O2 Mn1 1_555 1_555
O3 C8 1_555 1_555
O4 C8 1_555 1_555
O5 Mn2 1_555 1_555
O6 C15 1_555 1_555
O7 C16 1_555 1_555
O8 C16 1_555 1_555
O9 Mn1 1_555 1_555
O10 Mn2 1_555 1_555
C1 C2 1_555 1_555
C2 C3 1_555 1_555
C3 C4 1_555 1_555
C4 C5 1_555 1_555
C5 C6 1_555 1_555
C6 C1 1_555 1_555
C7 O2 1_555 1_555
C8 C4 1_555 1_555
C9 C10 1_555 1_555
C10 C11 1_555 1_555
C11 C12 1_555 1_555
C12 C13 1_555 1_555
C13 C14 1_555 1_555
C14 C9 1_555 1_555
C15 O5 1_555 1_555
C16 C12 1_555 1_555
C17 O9 1_555 1_555
H1 C17 1_555 1_555
C18 H2 1_555 1_555
H3 C18 1_555 1_555
H4 C18 1_555 1_555
C19 H5 1_555 1_555
H6 C19 1_555 1_555
H7 C19 1_555 1_555
C20 O10 1_555 1_555
H8 C20 1_555 1_555
C21 H9 1_555 1_555
H10 C21 1_555 1_555
H11 C21 1_555 1_555
C22 H12 1_555 1_555
H13 C22 1_555 1_555
H14 C22 1_555 1_555
N1 C17 1_555 1_555
N2 C20 1_555 1_555
H15 C10 1_555 1_555
H16 C2 1_555 1_555
H17 C11 1_555 1_555
H18 C13 1_555 1_555
H19 C5 1_555 1_555
H20 C3 1_555 1_555
H21 C6 1_555 1_555
H22 C14 1_555 1_555
Mn1B O2 1_555 1_555
Mn1C O8 1_555 1_555
Mn1C_2 O3 1_555 1_555
Mn2B O6 1_555 1_555
Mn2C O7 1_555 1_555
Mn2C_2 O4 1_555 1_555
O2B Mn1 1_555 1_555
O3C Mn1 1_555 1_555
O4C Mn2 1_555 1_555
O6B Mn2 1_555 1_555
O7C Mn2 1_555 1_555
O8C Mn1 1_555 1_555
C1 C7 1_555 1_555
C9 C15 1_555 1_555
C18 N1 1_555 1_555
C19 N1 1_555 1_555
C21 N2 1_555 1_555
C22 N2 1_555 1_555
Mn1B O2B 1_555 1_555

#END
