
#######################################################################
#
#                 Cambridge Crystallographic Data Centre
#                                CCDC 
#
#######################################################################
#
# If this CIF has been generated from an entry in the Cambridge 
# Structural Database, then it will include bibliographic, chemical, 
# crystal, experimental, refinement or atomic coordinate data resulting 
# from the CCDC's data processing and validation procedures.
#
#######################################################################

data_LUSHOX
_symmetry_cell_setting           monoclinic
_symmetry_space_group_name_H-M   'P 21/c'
_symmetry_Int_Tables_number      14
_space_group_name_Hall           '-P 2ybc'
loop_
_symmetry_equiv_pos_site_id
_symmetry_equiv_pos_as_xyz
1 x,y,z
2 -x,1/2+y,1/2-z
3 -x,-y,-z
4 x,1/2-y,1/2+z
_cell_length_a                   13.502(2)
_cell_length_b                   10.1978(15)
_cell_length_c                   17.707(3)
_cell_angle_alpha                90
_cell_angle_beta                 90.00
_cell_angle_gamma                90
_cell_volume                     2438.09
loop_
_atom_site_label
_atom_site_type_symbol
_atom_site_fract_x
_atom_site_fract_y
_atom_site_fract_z
C1 C 0.6717(4) 0.1489(6) 0.6307(3)
C2 C 0.6602(4) 0.2221(5) 0.7041(3)
C3 C 0.5668(4) 0.2300(6) 0.7379(3)
H1 H 0.5121 0.1922 0.7145
C4 C 0.5562(4) 0.2934(5) 0.8053(3)
H2 H 0.4937 0.3014 0.8269
C5 C 0.6396(4) 0.3468(5) 0.8424(3)
C6 C 0.7323(4) 0.3399(6) 0.8085(3)
H3 H 0.7876 0.3753 0.8322
C7 C 0.7412(4) 0.2785(6) 0.7377(3)
H4 H 0.8023 0.2762 0.7136
C8 C 1.2293(4) 0.3236(6) 0.8781(3)
C9 C 1.1795(4) 0.2681(5) 0.8092(3)
C10 C 1.2355(4) 0.2092(6) 0.7538(3)
H5 H 1.3039 0.2042 0.7595
C11 C 1.1910(4) 0.1565(5) 0.6889(3)
H6 H 1.2299 0.1176 0.6518
C12 C 1.0876(4) 0.1627(5) 0.6802(3)
C13 C 1.0319(4) 0.2233(6) 0.7358(3)
H7 H 0.9636 0.2290 0.7303
C14 C 1.0769(4) 0.2759(6) 0.8000(3)
H8 H 1.0384 0.3163 0.8369
C15 C 1.0390(4) 0.1026(5) 0.6107(3)
C16 C 0.5233(5) -0.3143(6) 0.4418(3)
H9 H 0.4642 -0.2919 0.4654
C17 C 0.8523(5) 0.3700(6) 0.4879(4)
H10 H 0.8335 0.3702 0.5385
C18 C 0.6120(6) -0.4573(8) 0.3575(5)
H11 H 0.5995 -0.5369 0.3302
H12 H 0.6662 -0.4705 0.3917
H13 H 0.6283 -0.3885 0.3226
C19 C 0.4350(5) -0.4988(7) 0.3887(4)
H14 H 0.4503 -0.5718 0.3564
H15 H 0.3847 -0.4459 0.3655
H16 H 0.4115 -0.5307 0.4365
C20 C 0.8995(7) 0.4934(7) 0.3765(4)
H17 H 0.9088 0.5836 0.3629
H18 H 0.8489 0.4555 0.3453
H19 H 0.9604 0.4464 0.3695
C21 C 0.8582(6) 0.6099(7) 0.4970(4)
H20 H 0.8742 0.6815 0.4639
H21 H 0.9021 0.6110 0.5396
H22 H 0.7911 0.6187 0.5141
C22 C 0.6276(4) 0.4114(5) 0.9171(3)
N1 N 0.5234(4) -0.4207(5) 0.4002(3)
N2 N 0.8696(4) 0.4852(5) 0.4560(3)
O1 O 0.7435(3) 0.1792(4) 0.5891(2)
O2 O 0.6084(3) 0.0614(4) 0.6177(2)
O3 O 1.1805(3) 0.3970(4) 0.9219(2)
O4 O 1.3188(3) 0.2927(4) 0.8894(2)
O5 O 0.6995(3) 0.4765(4) 0.9463(2)
O6 O 0.9554(3) 0.1472(4) 0.5936(2)
O7 O 1.0856(3) 0.0162(4) 0.5761(2)
O8 O 0.5467(3) 0.4045(4) 0.9508(2)
O9 O 0.8589(3) 0.2624(4) 0.4564(2)
O10 O 0.5962(3) -0.2403(4) 0.4523(2)
Mn1 Mn 0.84673(6) 0.07453(8) 0.51660(4)
Mn2 Mn 0.61081(6) -0.08119(8) 0.53237(4)
O3A O 0.8195(3) -0.1030(4) 0.5781(2)
O4A O 0.6812(3) -0.2073(4) 0.6106(2)
O5C O 0.6995(3) 0.0235(4) 0.4463(2)
O7B O 0.9144(3) -0.0162(4) 0.4239(2)
O8A O 0.4533(3) -0.0955(4) 0.5492(2)
O8C O 0.5467(3) 0.0955(4) 0.4508(2)
Mn1A Mn 1.15327(6) 0.57453(8) 0.98340(4)
Mn1C Mn 0.84673(6) 0.42547(8) 1.01660(4)
Mn1B Mn 1.15327(6) -0.07453(8) 0.48340(4)
Mn2A Mn 1.38919(6) 0.41881(8) 0.96763(4)
Mn2C Mn 0.61081(6) 0.58119(8) 1.03237(4)
Mn2A_2 Mn 0.38919(6) 0.41881(8) 0.96763(4)
loop_
_geom_bond_atom_site_label_1
_geom_bond_atom_site_label_2
_geom_bond_site_symmetry_1
_geom_bond_site_symmetry_2
C1 C2 1_555 1_555
C2 C3 1_555 1_555
C3 H1 1_555 1_555
C4 C3 1_555 1_555
H2 C4 1_555 1_555
C5 C4 1_555 1_555
C6 C5 1_555 1_555
H3 C6 1_555 1_555
C7 C2 1_555 1_555
H4 C7 1_555 1_555
C8 C9 1_555 1_555
C9 C10 1_555 1_555
C10 H5 1_555 1_555
C11 C10 1_555 1_555
H6 C11 1_555 1_555
C12 C11 1_555 1_555
C13 C12 1_555 1_555
H7 C13 1_555 1_555
C14 C9 1_555 1_555
H8 C14 1_555 1_555
C15 C12 1_555 1_555
C16 H9 1_555 1_555
C17 H10 1_555 1_555
C18 H11 1_555 1_555
H12 C18 1_555 1_555
H13 C18 1_555 1_555
C19 H14 1_555 1_555
H15 C19 1_555 1_555
H16 C19 1_555 1_555
C20 H17 1_555 1_555
H18 C20 1_555 1_555
H19 C20 1_555 1_555
C21 H20 1_555 1_555
H21 C21 1_555 1_555
H22 C21 1_555 1_555
C22 C5 1_555 1_555
N1 C16 1_555 1_555
N2 C17 1_555 1_555
O1 C1 1_555 1_555
O2 C1 1_555 1_555
O3 C8 1_555 1_555
O4 C8 1_555 1_555
O5 C22 1_555 1_555
O6 C15 1_555 1_555
O7 C15 1_555 1_555
O8 C22 1_555 1_555
O9 C17 1_555 1_555
O10 C16 1_555 1_555
Mn1 O1 1_555 1_555
Mn2 O2 1_555 1_555
O3A Mn1 1_555 1_555
O4A Mn2 1_555 1_555
O5C Mn1 1_555 1_555
O7B Mn1 1_555 1_555
O8A Mn2 1_555 1_555
O8C Mn2 1_555 1_555
Mn1A O3 1_555 1_555
Mn1C O5 1_555 1_555
Mn1B O7 1_555 1_555
Mn2A O4 1_555 1_555
Mn2C O5 1_555 1_555
Mn2A_2 O8 1_555 1_555
C6 C7 1_555 1_555
C13 C14 1_555 1_555
C18 N1 1_555 1_555
C19 N1 1_555 1_555
C20 N2 1_555 1_555
C21 N2 1_555 1_555
O6 Mn1 1_555 1_555
O8 Mn2C 1_555 1_555
O9 Mn1 1_555 1_555
O10 Mn2 1_555 1_555
Mn2 O5C 1_555 1_555

#END
