
#######################################################################
#
#                 Cambridge Crystallographic Data Centre
#                                CCDC 
#
#######################################################################
#
# If this CIF has been generated from an entry in the Cambridge 
# Structural Database, then it will include bibliographic, chemical, 
# crystal, experimental, refinement or atomic coordinate data resulting 
# from the CCDC's data processing and validation procedures.
#
#######################################################################

data_LUSHOX03
_symmetry_cell_setting           monoclinic
_symmetry_space_group_name_H-M   'P 21/c'
_symmetry_Int_Tables_number      14
_space_group_name_Hall           '-P 2ybc'
loop_
_symmetry_equiv_pos_site_id
_symmetry_equiv_pos_as_xyz
1 x,y,z
2 -x,1/2+y,1/2-z
3 -x,-y,-z
4 x,1/2-y,1/2+z
_cell_length_a                   13.3961(6)
_cell_length_b                   10.1579(4)
_cell_length_c                   17.6555(8)
_cell_angle_alpha                90
_cell_angle_beta                 90.079(2)
_cell_angle_gamma                90
_cell_volume                     2402.49
loop_
_atom_site_label
_atom_site_type_symbol
_atom_site_fract_x
_atom_site_fract_y
_atom_site_fract_z
Mn1 Mn 0.84650(4) 0.42418(5) 0.01539(3)
Mn2 Mn 0.61117(4) 0.58167(5) 0.03189(3)
O1 O 0.5967(2) 0.7400(3) -0.04933(16)
O2 O 0.8586(2) 0.2362(3) -0.04525(15)
C1 C 0.6280(3) 0.4115(3) -0.08288(19)
C2 C 0.6396(3) 0.3476(3) -0.15802(19)
C3 C 0.5654(3) 0.2301(4) -0.2622(2)
H1 H 0.5090(3) 0.1902(4) -0.2854(2)
C4 C 0.6580(3) 0.2237(3) -0.29713(19)
N1 N 0.5247(3) 0.9207(3) -0.1014(2)
C5 C 0.7411(3) 0.2813(4) -0.2633(2)
H2 H 0.8037(3) 0.2795(4) -0.2884(2)
C6 C 0.9127(3) 0.6630(4) -0.18072(19)
C7 C 0.6706(3) 0.1496(4) -0.3700(2)
C8 C 0.7639(3) 0.7087(4) -0.2536(2)
H3 H 0.6935(3) 0.7033(4) -0.2595(2)
C9 C 0.8213(3) 0.7685(3) -0.3098(2)
C10 C 0.9249(3) 0.7766(4) -0.3009(2)
H4 H 0.9645(3) 0.8182(4) -0.3385(2)
C11 C 0.7709(3) 0.8239(4) -0.3787(2)
C12 C 0.5553(3) 0.2942(4) -0.19385(19)
H5 H 0.4914(3) 0.3022(4) -0.17106(19)
N2 N 0.8703(3) 0.0134(3) -0.0443(2)
C13 C 0.9695(3) 0.7235(4) -0.2368(2)
H6 H 1.0400(3) 0.7285(4) -0.2311(2)
C14 C 0.7326(3) 0.3414(4) -0.1931(2)
H7 H 0.7898(3) 0.3781(4) -0.1691(2)
C15 C 0.8089(3) 0.6566(4) -0.1889(2)
H8 H 0.7693(3) 0.6170(4) -0.1506(2)
C16 C 0.8517(3) 0.1284(4) -0.0125(2)
H9 H 0.8316(3) 0.1287(4) 0.0391(2)
C17 C 0.8584(4) -0.1106(4) -0.0032(3)
H10 H 0.836(3) -0.0923(5) 0.0485(7)
H11 H 0.809(2) -0.1658(15) -0.0291(11)
H12 H 0.9226(7) -0.1568(17) -0.0013(18)
C18 C 0.5239(3) 0.8138(4) -0.0585(2)
H13 H 0.4636(3) 0.7921(4) -0.0331(2)
C19 C 0.4360(3) 1.0009(4) -0.1118(3)
H14 H 0.4144(15) 0.996(3) -0.1648(5)
H15 H 0.3826(9) 0.968(2) -0.0789(15)
H16 H 0.4512(8) 1.0925(7) -0.0988(19)
C20 C 0.6141(4) 0.9571(5) -0.1444(3)
H17 H 0.6677(9) 0.894(2) -0.1336(16)
H18 H 0.5988(8) 0.956(4) -0.1987(3)
H19 H 0.6355(16) 1.0458(15) -0.1298(15)
C21 C 0.9029(4) 0.0051(5) -0.1232(3)
H20 H 0.8523(14) -0.041(3) -0.1531(5)
H21 H 0.912(3) 0.0941(5) -0.1435(7)
H22 H 0.9663(15) -0.043(3) -0.1258(4)
O3 O 0.9154(2) 0.5148(3) -0.07703(15)
O4 O 0.70009(19) 0.4766(3) -0.05434(14)
O5 O 0.54646(19) 0.4024(3) -0.04801(15)
O6 O 0.6079(2) 0.0596(3) -0.38182(15)
O7 O 0.7411(2) 0.1817(3) -0.41299(15)
O8 O 0.8195(2) 0.8983(3) -0.42206(15)
O9 O 0.6810(2) 0.7905(3) -0.39018(15)
O10 O 1.0456(2) 0.6493(3) -0.09326(16)
C22 C 0.9620(3) 0.6040(3) -0.11115(19)
Mn1B Mn 1.15350(4) 0.57582(5) -0.01539(3)
Mn1C Mn 0.84650(4) 0.07582(5) -0.48461(3)
Mn1C_2 Mn 0.84650(4) 1.07582(5) -0.48461(3)
Mn2B Mn 0.38883(4) 0.41833(5) -0.03189(3)
Mn2C Mn 0.61117(4) -0.08167(5) -0.46811(3)
Mn2C_2 Mn 0.61117(4) 0.91833(5) -0.46811(3)
O5B O 0.45354(19) 0.5976(3) 0.04801(15)
O6C O 0.6079(2) 0.4404(3) 0.11818(15)
O7C O 0.7411(2) 0.3183(3) 0.08701(15)
O8C O 0.8195(2) 0.6017(3) 0.07794(15)
O9C O 0.6810(2) 0.7095(3) 0.10982(15)
O10B O 0.9544(2) 0.3507(3) 0.09326(16)
loop_
_geom_bond_atom_site_label_1
_geom_bond_atom_site_label_2
_geom_bond_site_symmetry_1
_geom_bond_site_symmetry_2
Mn1 O2 1_555 1_555
Mn2 O1 1_555 1_555
O1 C18 1_555 1_555
O2 C16 1_555 1_555
C1 C2 1_555 1_555
C2 C12 1_555 1_555
C3 H1 1_555 1_555
C4 C3 1_555 1_555
N1 C18 1_555 1_555
C5 C4 1_555 1_555
H2 C5 1_555 1_555
C6 C13 1_555 1_555
C7 C4 1_555 1_555
C8 H3 1_555 1_555
C9 C8 1_555 1_555
C10 C9 1_555 1_555
H4 C10 1_555 1_555
C11 C9 1_555 1_555
C12 C3 1_555 1_555
H5 C12 1_555 1_555
N2 C16 1_555 1_555
C13 C10 1_555 1_555
H6 C13 1_555 1_555
C14 C2 1_555 1_555
H7 C14 1_555 1_555
C15 C6 1_555 1_555
H8 C15 1_555 1_555
C16 H9 1_555 1_555
C17 N2 1_555 1_555
H10 C17 1_555 1_555
H11 C17 1_555 1_555
H12 C17 1_555 1_555
C18 H13 1_555 1_555
C19 N1 1_555 1_555
H14 C19 1_555 1_555
H15 C19 1_555 1_555
H16 C19 1_555 1_555
C20 N1 1_555 1_555
H17 C20 1_555 1_555
H18 C20 1_555 1_555
H19 C20 1_555 1_555
C21 N2 1_555 1_555
H20 C21 1_555 1_555
H21 C21 1_555 1_555
H22 C21 1_555 1_555
O3 Mn1 1_555 1_555
O4 Mn1 1_555 1_555
O5 Mn2 1_555 1_555
O6 C7 1_555 1_555
O7 C7 1_555 1_555
O8 C11 1_555 1_555
O9 C11 1_555 1_555
O10 C22 1_555 1_555
C22 C6 1_555 1_555
Mn1B O10 1_555 1_555
Mn1C O7 1_555 1_555
Mn1C_2 O8 1_555 1_555
Mn2B O5 1_555 1_555
Mn2C O6 1_555 1_555
Mn2C_2 O9 1_555 1_555
O5B Mn2 1_555 1_555
O6C Mn2 1_555 1_555
O7C Mn1 1_555 1_555
O8C Mn1 1_555 1_555
O9C Mn2 1_555 1_555
O10B Mn1 1_555 1_555
Mn2 O4 1_555 1_555
C1 O4 1_555 1_555
C1 O5 1_555 1_555
C5 C14 1_555 1_555
C8 C15 1_555 1_555
O3 C22 1_555 1_555
Mn2B O5B 1_555 1_555

#END
