
#######################################################################
#
#                 Cambridge Crystallographic Data Centre
#                                CCDC 
#
#######################################################################
#
# If this CIF has been generated from an entry in the Cambridge 
# Structural Database, then it will include bibliographic, chemical, 
# crystal, experimental, refinement or atomic coordinate data resulting 
# from the CCDC's data processing and validation procedures.
#
#######################################################################

data_LUSWEC
_symmetry_cell_setting           triclinic
_symmetry_space_group_name_H-M   'P -1'
_symmetry_Int_Tables_number      2
_space_group_name_Hall           '-P 1'
loop_
_symmetry_equiv_pos_site_id
_symmetry_equiv_pos_as_xyz
1 x,y,z
2 -x,-y,-z
_cell_length_a                   10.3170(11)
_cell_length_b                   10.4309(11)
_cell_length_c                   15.6740(16)
_cell_angle_alpha                80.248(2)
_cell_angle_beta                 81.189(2)
_cell_angle_gamma                87.870(2)
_cell_volume                     1642.67
loop_
_atom_site_label
_atom_site_type_symbol
_atom_site_fract_x
_atom_site_fract_y
_atom_site_fract_z
C1 C 0.5928(5) 0.2939(6) -0.5621(3)
C2 C 0.6435(5) 0.1751(6) -0.5982(3)
C3 C 0.6555(6) 0.0585(6) -0.5431(4)
H1 H 0.6246 0.0520 -0.4822
C4 C 0.7121(6) -0.0492(6) -0.5758(4)
H2 H 0.7192 -0.1295 -0.5378
C5 C 0.7585(6) -0.0387(6) -0.6649(4)
H3 H 0.8003 -0.1112 -0.6874
C6 C 0.7437(6) 0.0776(6) -0.7209(4)
H4 H 0.7729 0.0834 -0.7820
C7 C 0.6870(6) 0.1845(6) -0.6884(4)
H5 H 0.6774 0.2641 -0.7268
C8 C 0.7197(6) 0.5412(6) -0.4450(4)
C9 C 0.8373(6) 0.5745(6) -0.4103(4)
C10 C 0.8417(7) 0.5424(7) -0.3205(5)
H6 H 0.7712 0.4962 -0.2832
C11 C 0.9467(7) 0.5768(8) -0.2856(5)
H7 H 0.9491 0.5556 -0.2245
C12 C 1.0485(7) 0.6425(8) -0.3404(5)
H8 H 1.1214 0.6677 -0.3169
C13 C 1.0455(7) 0.6719(7) -0.4291(5)
H9 H 1.1178 0.7151 -0.4664
C14 C 0.9397(6) 0.6400(6) -0.4648(4)
H10 H 0.9373 0.6627 -0.5258
C15 C -0.1142(5) -0.0441(6) -0.1292(3)
C16 C -0.1776(5) -0.0779(6) -0.2017(4)
C17 C -0.1223(6) -0.0396(7) -0.2885(4)
H11 H -0.0433 0.0086 -0.3022
C18 C -0.1824(6) -0.0717(7) -0.3550(4)
H12 H -0.1449 -0.0443 -0.4143
C19 C -0.2963(6) -0.1431(7) -0.3360(4)
H13 H -0.3370 -0.1651 -0.3820
C20 C -0.3513(6) -0.1828(6) -0.2489(4)
H14 H -0.4296 -0.2320 -0.2353
C21 C -0.2916(6) -0.1505(6) -0.1824(4)
H15 H -0.3289 -0.1781 -0.1231
C22 C -0.1349(6) 0.2143(6) 0.0140(3)
C23 C -0.2106(6) 0.3355(6) 0.0252(4)
C24 C -0.1579(6) 0.4551(6) -0.0134(4)
H16 H -0.0747 0.4590 -0.0493
C25 C -0.2250(7) 0.5695(6) -0.0006(5)
H17 H -0.1873 0.6514 -0.0261
C26 C -0.3474(7) 0.5628(7) 0.0498(5)
H18 H -0.3951 0.6408 0.0575
C27 C -0.4013(7) 0.4445(7) 0.0892(5)
H19 H -0.4850 0.4409 0.1246
C28 C -0.3327(6) 0.3314(7) 0.0769(4)
H20 H -0.3695 0.2497 0.1040
C29 C 0.2505(5) 0.3507(5) -0.2748(3)
H21 H 0.2103 0.4203 -0.3091
C30 C 0.1774(6) 0.2837(6) -0.2011(4)
H22 H 0.0875 0.3063 -0.1871
C31 C 0.3589(6) 0.1632(6) -0.1694(3)
C32 C 0.4316(5) 0.2290(5) -0.2475(3)
C33 C 0.4244(6) 0.0654(6) -0.1081(4)
H23 H 0.3625 0.0372 -0.0548
H24 H 0.5008 0.1047 -0.0930
H25 H 0.4529 -0.0099 -0.1365
C34 C 0.5723(6) 0.1919(7) -0.2740(4)
H26 H 0.6043 0.2395 -0.3325
H27 H 0.5788 0.0982 -0.2749
H28 H 0.6255 0.2139 -0.2320
N1 N 0.3758(4) 0.3214(5) -0.2996(3)
N2 N 0.2297(5) 0.1877(5) -0.1488(3)
O1 O 0.5378(4) 0.2774(4) -0.4826(2)
O2 O 0.6092(4) 0.4001(4) -0.6134(2)
O3 O 0.6351(4) 0.4687(4) -0.3933(2)
O4 O 0.7086(4) 0.5918(4) -0.5238(2)
O5 O -0.0137(4) 0.0259(4) -0.1487(2)
O6 O -0.1669(4) -0.0915(4) -0.0522(2)
O7 O -0.0279(4) 0.2250(4) -0.0379(2)
O8 O -0.1834(4) 0.1085(4) 0.0571(2)
Rh1 Rh 0.46187(4) 0.43487(4) -0.43058(3)
Rh2 Rh 0.08259(4) 0.06231(4) -0.05082(3)
O2A O 0.3908(4) 0.5999(4) -0.3866(2)
O4A O 0.2914(4) 0.4082(4) -0.4762(2)
O6A O 0.1669(4) 0.0915(4) 0.0522(2)
O8A O 0.1834(4) -0.1085(4) -0.0571(2)
Rh1A Rh 0.53813(4) 0.56513(4) -0.56942(3)
Rh2A Rh -0.08259(4) -0.06231(4) 0.05082(3)
C35 C 0.876(3) 0.267(5) -0.2460(17)
O9 O 0.936(2) 0.264(3) -0.3152(15)
O10 O 0.804(2) 0.275(3) -0.1827(15)
loop_
_geom_bond_atom_site_label_1
_geom_bond_atom_site_label_2
_geom_bond_site_symmetry_1
_geom_bond_site_symmetry_2
C1 C2 1_555 1_555
C2 C3 1_555 1_555
C3 H1 1_555 1_555
C4 C3 1_555 1_555
H2 C4 1_555 1_555
C5 C4 1_555 1_555
H3 C5 1_555 1_555
C6 C5 1_555 1_555
H4 C6 1_555 1_555
C7 C2 1_555 1_555
H5 C7 1_555 1_555
C8 C9 1_555 1_555
C9 C10 1_555 1_555
C10 H6 1_555 1_555
C11 C10 1_555 1_555
H7 C11 1_555 1_555
C12 C11 1_555 1_555
H8 C12 1_555 1_555
C13 C12 1_555 1_555
H9 C13 1_555 1_555
C14 C9 1_555 1_555
H10 C14 1_555 1_555
C15 C16 1_555 1_555
C16 C17 1_555 1_555
C17 H11 1_555 1_555
C18 C17 1_555 1_555
H12 C18 1_555 1_555
C19 C18 1_555 1_555
H13 C19 1_555 1_555
C20 C19 1_555 1_555
H14 C20 1_555 1_555
C21 C16 1_555 1_555
H15 C21 1_555 1_555
C22 C23 1_555 1_555
C23 C24 1_555 1_555
C24 H16 1_555 1_555
C25 C24 1_555 1_555
H17 C25 1_555 1_555
C26 C25 1_555 1_555
H18 C26 1_555 1_555
C27 C26 1_555 1_555
H19 C27 1_555 1_555
C28 C23 1_555 1_555
H20 C28 1_555 1_555
C29 H21 1_555 1_555
C30 C29 1_555 1_555
H22 C30 1_555 1_555
C31 C32 1_555 1_555
C32 C34 1_555 1_555
C33 C31 1_555 1_555
H23 C33 1_555 1_555
H24 C33 1_555 1_555
H25 C33 1_555 1_555
C34 H26 1_555 1_555
H27 C34 1_555 1_555
H28 C34 1_555 1_555
C35 O9 1_555 1_555
N1 C29 1_555 1_555
N2 C30 1_555 1_555
O1 C1 1_555 1_555
O2 C1 1_555 1_555
O3 C8 1_555 1_555
O4 C8 1_555 1_555
O5 C15 1_555 1_555
O6 C15 1_555 1_555
O7 C22 1_555 1_555
O8 C22 1_555 1_555
O10 C35 1_555 1_555
Rh1 N1 1_555 1_555
Rh2 N2 1_555 1_555
O2A Rh1 1_555 1_555
O4A Rh1 1_555 1_555
O6A Rh2 1_555 1_555
O8A Rh2 1_555 1_555
Rh1A O2 1_555 1_555
Rh2A O6 1_555 1_555
C6 C7 1_555 1_555
C13 C14 1_555 1_555
C20 C21 1_555 1_555
C27 C28 1_555 1_555
C31 N2 1_555 1_555
C32 N1 1_555 1_555
O1 Rh1 1_555 1_555
O3 Rh1 1_555 1_555
O4 Rh1A 1_555 1_555
O5 Rh2 1_555 1_555
O7 Rh2 1_555 1_555
O8 Rh2A 1_555 1_555
Rh1 Rh1A 1_555 1_555
Rh2 Rh2A 1_555 1_555

#END
