
#######################################################################
#
#                 Cambridge Crystallographic Data Centre
#                                CCDC 
#
#######################################################################
#
# If this CIF has been generated from an entry in the Cambridge 
# Structural Database, then it will include bibliographic, chemical, 
# crystal, experimental, refinement or atomic coordinate data resulting 
# from the CCDC's data processing and validation procedures.
#
#######################################################################

data_LUSYOP
_symmetry_cell_setting           monoclinic
_symmetry_space_group_name_H-M   'P 21/n'
_symmetry_Int_Tables_number      14
_space_group_name_Hall           '-P 2yn'
loop_
_symmetry_equiv_pos_site_id
_symmetry_equiv_pos_as_xyz
1 x,y,z
2 1/2-x,1/2+y,1/2-z
3 -x,-y,-z
4 1/2+x,1/2-y,1/2+z
_cell_length_a                   12.9920(15)
_cell_length_b                   4.9834(6)
_cell_length_c                   15.3611(18)
_cell_angle_alpha                90
_cell_angle_beta                 109.3490(17)
_cell_angle_gamma                90
_cell_volume                     938.37
loop_
_atom_site_label
_atom_site_type_symbol
_atom_site_fract_x
_atom_site_fract_y
_atom_site_fract_z
Pb1 Pb 1.0000 0.5000 0.0000
N1 N 0.9727(6) 0.9186(15) 0.3036(5)
N2 N 0.6640(7) 1.0880(18) 0.4356(6)
C1 C 0.9532(7) 1.0888(19) 0.3636(5)
O1 O 1.1077(6) 0.8925(19) 0.0896(6)
N3 N 1.0733(7) 0.9860(16) 0.3080(6)
C2 C 0.8404(8) 1.272(2) 0.4509(7)
H1 H 0.8953 1.3933 0.4798
O2 O 1.0729(8) 1.2602(17) 0.1557(6)
C3 C 0.7704(8) 0.907(2) 0.3482(7)
H2 H 0.7774 0.7801 0.3061
N4 N 1.0397(8) 1.255(2) 0.4016(6)
C4 C 0.7435(9) 1.263(2) 0.4706(7)
H3 H 0.7337 1.3907 0.5114
C5 C 1.1284(8) 0.875(2) 0.2497(8)
H4 H 1.1091 0.6866 0.2387
H5 H 1.2066 0.8852 0.2809
N5 N 1.1143(7) 1.188(2) 0.3641(6)
C6 C 1.0987(8) 1.023(2) 0.1564(7)
C7 C 0.8515(8) 1.0903(19) 0.3862(6)
C8 C 0.6774(10) 0.914(3) 0.3740(8)
H6 H 0.6219 0.7913 0.3472
N1B N 1.0273(6) 0.0814(15) -0.3036(5)
N2B N 1.3360(7) -0.0880(18) -0.4356(6)
C1B C 1.0468(7) -0.0888(19) -0.3636(5)
O1B O 0.8923(6) 0.1075(19) -0.0896(6)
N3B N 0.9267(7) 0.0140(16) -0.3080(6)
C2B C 1.1596(8) -0.272(2) -0.4509(7)
H1B H 1.1047 -0.3933 -0.4798
O2B O 0.9271(8) -0.2602(17) -0.1557(6)
C3B C 1.2296(8) 0.093(2) -0.3482(7)
H2B H 1.2226 0.2199 -0.3061
N4B N 0.9603(8) -0.255(2) -0.4016(6)
C4B C 1.2565(9) -0.263(2) -0.4706(7)
H3B H 1.2663 -0.3907 -0.5114
C5B C 0.8716(8) 0.125(2) -0.2497(8)
H4B H 0.8909 0.3134 -0.2387
H5B H 0.7934 0.1148 -0.2809
N5B N 0.8857(7) -0.188(2) -0.3641(6)
C6B C 0.9013(8) -0.023(2) -0.1564(7)
C7B C 1.1485(8) -0.0903(19) -0.3862(6)
C8B C 1.3226(10) 0.086(3) -0.3740(8)
H6B H 1.3781 0.2087 -0.3472
Pb1_2 Pb 1.0000 -0.5000 0.0000
Pb1_3 Pb 1.0000 1.5000 0.0000
Pb1A Pb 0.5000 1.0000 0.5000
Pb1A_2 Pb 1.5000 0.0000 -0.5000
N2A N 0.8360(7) 0.5880(18) 0.0644(6)
N2C N 1.1640(7) 0.4120(18) -0.0644(6)
O2_2 O 1.0729(8) 0.2602(17) 0.1557(6)
O2B_2 O 0.9271(8) 0.7398(17) -0.1557(6)
loop_
_geom_bond_atom_site_label_1
_geom_bond_atom_site_label_2
_geom_bond_site_symmetry_1
_geom_bond_site_symmetry_2
Pb1 O1 1_555 1_555
N1 C1 1_555 1_555
N2 C4 1_555 1_555
C1 N4 1_555 1_555
O1 C6 1_555 1_555
N3 N1 1_555 1_555
C2 H1 1_555 1_555
O2 C6 1_555 1_555
C3 H2 1_555 1_555
N4 N5 1_555 1_555
C4 C2 1_555 1_555
H3 C4 1_555 1_555
C5 N3 1_555 1_555
H4 C5 1_555 1_555
H5 C5 1_555 1_555
N5 N3 1_555 1_555
C6 C5 1_555 1_555
C7 C1 1_555 1_555
C8 N2 1_555 1_555
H6 C8 1_555 1_555
N1B C1B 1_555 1_555
N2B C4B 1_555 1_555
C1B N4B 1_555 1_555
O1B Pb1 1_555 1_555
N3B N1B 1_555 1_555
C2B H1B 1_555 1_555
O2B C6B 1_555 1_555
C3B H2B 1_555 1_555
N4B N5B 1_555 1_555
C4B C2B 1_555 1_555
H3B C4B 1_555 1_555
C5B N3B 1_555 1_555
H4B C5B 1_555 1_555
H5B C5B 1_555 1_555
N5B N3B 1_555 1_555
C6B O1B 1_555 1_555
C7B C1B 1_555 1_555
C8B N2B 1_555 1_555
H6B C8B 1_555 1_555
Pb1_2 O2B 1_555 1_555
Pb1_3 O2 1_555 1_555
Pb1A N2 1_555 1_555
Pb1A_2 N2B 1_555 1_555
N2A Pb1 1_555 1_555
N2C Pb1 1_555 1_555
O2_2 Pb1 1_555 1_555
O2B_2 Pb1 1_555 1_555
C2 C7 1_555 1_555
C3 C7 1_555 1_555
C3 C8 1_555 1_555
C2B C7B 1_555 1_555
C3B C7B 1_555 1_555
C3B C8B 1_555 1_555
C5B C6B 1_555 1_555

#END
