
#######################################################################
#
#                 Cambridge Crystallographic Data Centre
#                                CCDC 
#
#######################################################################
#
# If this CIF has been generated from an entry in the Cambridge 
# Structural Database, then it will include bibliographic, chemical, 
# crystal, experimental, refinement or atomic coordinate data resulting 
# from the CCDC's data processing and validation procedures.
#
#######################################################################

data_LUTKIW
_symmetry_cell_setting           triclinic
_symmetry_space_group_name_H-M   'P -1'
_symmetry_Int_Tables_number      2
_space_group_name_Hall           '-P 1'
loop_
_symmetry_equiv_pos_site_id
_symmetry_equiv_pos_as_xyz
1 x,y,z
2 -x,-y,-z
_cell_length_a                   9.437(2)
_cell_length_b                   11.304(4)
_cell_length_c                   11.371(3)
_cell_angle_alpha                116.906(5)
_cell_angle_beta                 113.912(4)
_cell_angle_gamma                92.898(6)
_cell_volume                     947.252
loop_
_atom_site_label
_atom_site_type_symbol
_atom_site_fract_x
_atom_site_fract_y
_atom_site_fract_z
Co1 Co 0.5000 0.5000 0.5000
O1 O 0.3037(5) 0.3236(4) 0.3291(5)
O2 O 0.4294(6) 0.1604(5) 0.2711(5)
O3 O 0.4880(5) 0.4857(4) 0.6732(5)
O4 O 0.6828(6) 0.3910(5) 0.7486(5)
O5 O 0.3316(4) 0.6172(4) 0.4994(4)
H1 H 0.4070 0.6825 0.5789
H2 H 0.3115 0.6253 0.4258
F1 F 0.2390(5) 0.0682(4) -0.0516(4)
F2 F -0.0391(5) -0.1190(4) -0.2821(4)
F3 F 0.3082(5) 0.2770(4) 0.7218(4)
F4 F 0.7643(5) 0.6673(4) 1.0565(4)
C1 C 0.3090(7) 0.2027(6) 0.2546(7)
C2 C 0.1467(7) 0.0999(5) 0.1222(7)
C3 C 0.1228(8) 0.0375(6) -0.0222(7)
C4 C -0.0224(7) -0.0612(5) -0.1427(6)
C5 C 0.5741(7) 0.4463(6) 0.7561(6)
C6 C 0.5383(7) 0.4715(6) 0.8840(6)
C7 C 0.4045(7) 0.3887(6) 0.8599(6)
C8 C 0.6323(7) 0.5828(6) 1.0266(6)
O1A O -0.3037(5) -0.3236(4) -0.3291(5)
O2A O -0.4294(6) -0.1604(5) -0.2711(5)
F1A F -0.2390(5) -0.0682(4) 0.0516(4)
F2A F 0.0391(5) 0.1190(4) 0.2821(4)
C1A C -0.3090(7) -0.2027(6) -0.2546(7)
C2A C -0.1467(7) -0.0999(5) -0.1222(7)
C3A C -0.1228(8) -0.0375(6) 0.0222(7)
C4A C 0.0224(7) 0.0612(5) 0.1427(6)
O3A O 0.5120(5) 0.5143(4) 1.3268(5)
O4A O 0.3172(6) 0.6090(5) 1.2514(5)
F3A F 0.6918(5) 0.7230(4) 1.2782(4)
F4A F 0.2357(5) 0.3327(4) 0.9435(4)
C5A C 0.4259(7) 0.5537(6) 1.2439(6)
C6A C 0.4617(7) 0.5285(6) 1.1160(6)
C7A C 0.5955(7) 0.6113(6) 1.1401(6)
C8A C 0.3677(7) 0.4172(6) 0.9734(6)
O5A O 0.6684(4) 0.3828(4) 0.5006(4)
H1A H 0.5930 0.3175 0.4211
H2A H 0.6885 0.3747 0.5742
Co1_2 Co -0.5000 -0.5000 -0.5000
Co1_3 Co 0.5000 0.5000 1.5000
O1A_2 O 0.6963(5) 0.6764(4) 0.6709(5)
O3A_2 O 0.5120(5) 0.5143(4) 0.3268(5)
N1 N 0.7616(6) 0.3380(5) 0.1556(6)
N2 N 0.7027(7) 0.1815(6) -0.0686(6)
C9 C 0.9547(9) 0.3718(9) 0.0638(10)
H3 H 1.0502 0.3744 0.1415
H4 H 0.9523 0.4647 0.0884
H5 H 0.9557 0.3236 -0.0302
C10 C 0.8093(8) 0.2990(7) 0.0511(7)
C11 C 0.5809(9) 0.1400(8) -0.0429(9)
H6 H 0.4922 0.0614 -0.1083
C12 C 0.6222(8) 0.2406(7) 0.0989(8)
H7 H 0.5651 0.2433 0.1499
C13 C 0.8467(8) 0.4631(6) 0.3077(7)
H8 H 0.7677 0.4971 0.3381
H9 H 0.9035 0.5347 0.3046
C14 C 0.9656(7) 0.4366(6) 0.4224(6)
H10 H 0.9120 0.3587 0.4191
H11 H 1.0524 0.4134 0.3995
N1A N 1.2384(6) 0.6620(5) 0.8444(6)
N2A N 1.2973(7) 0.8185(6) 1.0686(6)
C9A C 1.0453(9) 0.6282(9) 0.9362(10)
H3A H 0.9498 0.6256 0.8585
H4A H 1.0477 0.5353 0.9116
H5A H 1.0443 0.6764 1.0302
C10A C 1.1907(8) 0.7010(7) 0.9489(7)
C11A C 1.4191(9) 0.8600(8) 1.0429(9)
H6A H 1.5078 0.9386 1.1083
C12A C 1.3778(8) 0.7594(7) 0.9011(8)
H7A H 1.4349 0.7567 0.8501
C13A C 1.1533(8) 0.5369(6) 0.6923(7)
H8A H 1.2323 0.5029 0.6619
H9A H 1.0965 0.4653 0.6954
C14A C 1.0344(7) 0.5634(6) 0.5776(6)
H10A H 1.0880 0.6413 0.5809
H11A H 0.9476 0.5866 0.6005
O6 O 0.2743(13) 0.8749(8) 0.3164(9)
H12 H 0.207(14) 0.802(9) 0.281(16)
C15 C 0.2747(18) 0.9515(12) 0.4515(13)
H13 H 0.2695 1.0427 0.4674
H14 H 0.3774 0.9636 0.5311
C16 C 0.150(2) 0.8975(15) 0.467(2)
H15 H 0.0472 0.8839 0.3887
H16 H 0.1598 0.9612 0.5632
H17 H 0.1585 0.8105 0.4600
loop_
_geom_bond_atom_site_label_1
_geom_bond_atom_site_label_2
_geom_bond_site_symmetry_1
_geom_bond_site_symmetry_2
Co1 O1 1_555 1_555
O1 C1 1_555 1_555
O2 C1 1_555 1_555
O3 Co1 1_555 1_555
O4 C5 1_555 1_555
O5 Co1 1_555 1_555
H1 O5 1_555 1_555
H2 O5 1_555 1_555
F1 C3 1_555 1_555
F2 C4 1_555 1_555
F3 C7 1_555 1_555
F4 C8 1_555 1_555
C1 C2 1_555 1_555
C2 C3 1_555 1_555
C3 C4 1_555 1_555
C4 C2A 1_555 1_555
C5 O3 1_555 1_555
C6 C5 1_555 1_555
C7 C6 1_555 1_555
C8 C6 1_555 1_555
N1 C10 1_555 1_555
N2 C10 1_555 1_555
C9 H3 1_555 1_555
H4 C9 1_555 1_555
H5 C9 1_555 1_555
C10 C9 1_555 1_555
C11 N2 1_555 1_555
H6 C11 1_555 1_555
C12 N1 1_555 1_555
H7 C12 1_555 1_555
C13 N1 1_555 1_555
H8 C13 1_555 1_555
H9 C13 1_555 1_555
C14 C13 1_555 1_555
H10 C14 1_555 1_555
H11 C14 1_555 1_555
O6 H12 1_555 1_555
C15 O6 1_555 1_555
H13 C15 1_555 1_555
H14 C15 1_555 1_555
C16 C15 1_555 1_555
H15 C16 1_555 1_555
H16 C16 1_555 1_555
H17 C16 1_555 1_555
O1A C1A 1_555 1_555
O2A C1A 1_555 1_555
F1A C3A 1_555 1_555
F2A C4A 1_555 1_555
C1A C2A 1_555 1_555
C2A C3A 1_555 1_555
C3A C4A 1_555 1_555
C4A C2 1_555 1_555
O3A C5A 1_555 1_555
O4A C5A 1_555 1_555
F3A C7A 1_555 1_555
F4A C8A 1_555 1_555
C5A C6A 1_555 1_555
C6A C7A 1_555 1_555
C7A C8 1_555 1_555
C8A C7 1_555 1_555
O5A Co1 1_555 1_555
H1A O5A 1_555 1_555
H2A O5A 1_555 1_555
Co1_2 O1A 1_555 1_555
Co1_3 O3A 1_555 1_555
O1A_2 Co1 1_555 1_555
O3A_2 Co1 1_555 1_555
N1A C10A 1_555 1_555
N2A C10A 1_555 1_555
C9A H3A 1_555 1_555
H4A C9A 1_555 1_555
H5A C9A 1_555 1_555
C10A C9A 1_555 1_555
C11A N2A 1_555 1_555
H6A C11A 1_555 1_555
C12A N1A 1_555 1_555
H7A C12A 1_555 1_555
C13A N1A 1_555 1_555
H8A C13A 1_555 1_555
H9A C13A 1_555 1_555
C14A C14 1_555 1_555
H10A C14A 1_555 1_555
H11A C14A 1_555 1_555
C11 C12 1_555 1_555
C6A C8A 1_555 1_555
C11A C12A 1_555 1_555
C13A C14A 1_555 1_555

#END
