
#######################################################################
#
#                 Cambridge Crystallographic Data Centre
#                                CCDC 
#
#######################################################################
#
# If this CIF has been generated from an entry in the Cambridge 
# Structural Database, then it will include bibliographic, chemical, 
# crystal, experimental, refinement or atomic coordinate data resulting 
# from the CCDC's data processing and validation procedures.
#
#######################################################################

data_LUTKES
_symmetry_cell_setting           monoclinic
_symmetry_space_group_name_H-M   'P 2/n'
_symmetry_Int_Tables_number      13
_space_group_name_Hall           '-P 2yac'
loop_
_symmetry_equiv_pos_site_id
_symmetry_equiv_pos_as_xyz
1 x,y,z
2 1/2-x,y,1/2-z
3 -x,-y,-z
4 1/2+x,-y,1/2+z
_cell_length_a                   10.1020(18)
_cell_length_b                   9.3434(17)
_cell_length_c                   11.929(2)
_cell_angle_alpha                90
_cell_angle_beta                 91.259(3)
_cell_angle_gamma                90
_cell_volume                     1125.67
loop_
_atom_site_label
_atom_site_type_symbol
_atom_site_fract_x
_atom_site_fract_y
_atom_site_fract_z
Ni1 Ni 0.2500 0.38581(6) 0.2500
N1 N 0.2120(3) 0.5306(4) 0.1280(3)
N2 N 0.1209(4) 0.6917(4) 0.0171(3)
O1 O 0.2532(3) 0.2185(3) 0.1329(2)
O2 O 0.4420(3) 0.3149(3) 0.1856(2)
F1 F 0.5757(3) 0.0333(4) 0.2173(2)
F2 F 0.6788(3) -0.1773(3) 0.0985(2)
C1 C -0.0069(6) 0.6217(6) 0.1839(5)
H1 H -0.0067 0.7115 0.2229
H2 H -0.0026 0.5448 0.2372
H3 H -0.0868 0.6134 0.1392
C2 C 0.1083(4) 0.6145(4) 0.1107(4)
C3 C 0.2947(5) 0.5586(6) 0.0391(4)
H4 H 0.3759 0.5145 0.0278
C4 C 0.2399(6) 0.6588(6) -0.0279(4)
H5 H 0.2759 0.6979 -0.0922
C5 C 0.0260(5) 0.7988(5) -0.0272(4)
H6 H -0.0631 0.7694 -0.0092
H7 H 0.0318 0.8025 -0.1082
C6 C 0.0515(5) 0.9455(5) 0.0201(4)
H8 H 0.1386 0.9773 -0.0017
H9 H 0.0511 0.9406 0.1014
C7 C 0.3755(4) 0.2237(4) 0.1322(3)
C8 C 0.4441(4) 0.1112(4) 0.0632(3)
C9 C 0.5366(4) 0.0191(5) 0.1096(3)
C10 C 0.5909(4) -0.0896(5) 0.0475(4)
N1B N -0.2120(3) 1.4694(4) -0.1280(3)
N2B N -0.1209(4) 1.3083(4) -0.0171(3)
C1B C 0.0069(6) 1.3783(6) -0.1839(5)
H1B H 0.0067 1.2885 -0.2229
H2B H 0.0026 1.4552 -0.2372
H3B H 0.0868 1.3866 -0.1392
C2B C -0.1083(4) 1.3855(4) -0.1107(4)
C3B C -0.2947(5) 1.4414(6) -0.0391(4)
H4B H -0.3759 1.4855 -0.0278
C4B C -0.2399(6) 1.3412(6) 0.0279(4)
H5B H -0.2759 1.3021 0.0922
C5B C -0.0260(5) 1.2012(5) 0.0272(4)
H6B H 0.0631 1.2306 0.0092
H7B H -0.0318 1.1975 0.1082
C6B C -0.0515(5) 1.0545(5) -0.0201(4)
H8B H -0.1386 1.0227 0.0017
H9B H -0.0511 1.0594 -0.1014
O1B O 0.7468(3) -0.2185(3) -0.1329(2)
O2B O 0.5580(3) -0.3149(3) -0.1856(2)
F1B F 0.4243(3) -0.0333(4) -0.2173(2)
F2B F 0.3212(3) 0.1773(3) -0.0985(2)
C7B C 0.6245(4) -0.2237(4) -0.1322(3)
C8B C 0.5559(4) -0.1112(4) -0.0632(3)
C9B C 0.4634(4) -0.0191(5) -0.1096(3)
C10B C 0.4091(4) 0.0896(5) -0.0475(4)
Ni1B Ni -0.2500 1.61419(6) -0.2500
Ni1B_2 Ni 0.7500 -0.38581(6) -0.2500
N1A N 0.2880(3) 0.5306(4) 0.3720(3)
O1A O 0.2468(3) 0.2185(3) 0.3671(2)
O2A O 0.0580(3) 0.3149(3) 0.3144(2)
loop_
_geom_bond_atom_site_label_1
_geom_bond_atom_site_label_2
_geom_bond_site_symmetry_1
_geom_bond_site_symmetry_2
Ni1 N1 1_555 1_555
N1 C2 1_555 1_555
N2 C2 1_555 1_555
O1 Ni1 1_555 1_555
O2 Ni1 1_555 1_555
F1 C9 1_555 1_555
F2 C10 1_555 1_555
C1 H1 1_555 1_555
H2 C1 1_555 1_555
H3 C1 1_555 1_555
C2 C1 1_555 1_555
C3 N1 1_555 1_555
H4 C3 1_555 1_555
C4 N2 1_555 1_555
H5 C4 1_555 1_555
C5 N2 1_555 1_555
H6 C5 1_555 1_555
H7 C5 1_555 1_555
C6 C5 1_555 1_555
H8 C6 1_555 1_555
H9 C6 1_555 1_555
C7 O1 1_555 1_555
C8 C7 1_555 1_555
C9 C8 1_555 1_555
C10 C9 1_555 1_555
N1B C2B 1_555 1_555
N2B C2B 1_555 1_555
C1B H1B 1_555 1_555
H2B C1B 1_555 1_555
H3B C1B 1_555 1_555
C2B C1B 1_555 1_555
C3B N1B 1_555 1_555
H4B C3B 1_555 1_555
C4B N2B 1_555 1_555
H5B C4B 1_555 1_555
C5B N2B 1_555 1_555
H6B C5B 1_555 1_555
H7B C5B 1_555 1_555
C6B C6 1_555 1_555
H8B C6B 1_555 1_555
H9B C6B 1_555 1_555
O1B C7B 1_555 1_555
O2B C7B 1_555 1_555
F1B C9B 1_555 1_555
F2B C10B 1_555 1_555
C7B C8B 1_555 1_555
C8B C10 1_555 1_555
C9B C8B 1_555 1_555
C10B C8 1_555 1_555
Ni1B N1B 1_555 1_555
Ni1B_2 O1B 1_555 1_555
N1A Ni1 1_555 1_555
O1A Ni1 1_555 1_555
O2A Ni1 1_555 1_555
O2 C7 1_555 1_555
C3 C4 1_555 1_555
C3B C4B 1_555 1_555
C5B C6B 1_555 1_555
O2B Ni1B_2 1_555 1_555
C9B C10B 1_555 1_555

#END
