
#######################################################################
#
#                 Cambridge Crystallographic Data Centre
#                                CCDC 
#
#######################################################################
#
# If this CIF has been generated from an entry in the Cambridge 
# Structural Database, then it will include bibliographic, chemical, 
# crystal, experimental, refinement or atomic coordinate data resulting 
# from the CCDC's data processing and validation procedures.
#
#######################################################################

data_LUTPIA
_symmetry_cell_setting           monoclinic
_symmetry_space_group_name_H-M   'P 21/c'
_symmetry_Int_Tables_number      14
_space_group_name_Hall           '-P 2ybc'
loop_
_symmetry_equiv_pos_site_id
_symmetry_equiv_pos_as_xyz
1 x,y,z
2 -x,1/2+y,1/2-z
3 -x,-y,-z
4 x,1/2-y,1/2+z
_cell_length_a                   6.0952(11)
_cell_length_b                   10.4482(19)
_cell_length_c                   25.943(5)
_cell_angle_alpha                90
_cell_angle_beta                 102.915(4)
_cell_angle_gamma                90
_cell_volume                     1610.36
loop_
_atom_site_label
_atom_site_type_symbol
_atom_site_fract_x
_atom_site_fract_y
_atom_site_fract_z
Zn1 Zn 1.00200(7) 0.78080(4) 0.267296(18)
O1 O 0.5560(5) 0.8214(2) 0.20389(11)
O2 O 0.8344(4) 0.6818(2) 0.20652(11)
O3 O 0.1324(4) -0.1324(2) -0.18967(11)
O4 O 0.4595(5) -0.2365(3) -0.16544(11)
C1 C 0.6346(6) 0.7248(4) 0.18742(15)
C2 C 0.4944(6) 0.6470(4) 0.14313(15)
C3 C 0.5905(6) 0.5477(3) 0.12044(15)
H1 H 0.7452 0.5279 0.1333
C4 C 0.4619(6) 0.4765(4) 0.07889(15)
C5 C 0.2335(6) 0.5058(4) 0.06041(15)
H2 H 0.1444 0.4577 0.0323
C6 C 0.1378(6) 0.6053(4) 0.08327(15)
H3 H -0.0171 0.6250 0.0708
C7 C 0.2665(6) 0.6757(4) 0.12410(15)
H4 H 0.1998 0.7440 0.1394
C8 C 0.5605(6) 0.3726(4) 0.05323(15)
C9 C 0.5319(6) 0.1304(3) -0.03815(15)
C10 C 0.6947(6) 0.0507(4) -0.05069(15)
H5 H 0.8477 0.0577 -0.0324
C11 C 0.6293(6) -0.0395(4) -0.09044(15)
H6 H 0.7385 -0.0955 -0.0991
C12 C 0.4047(6) -0.0488(3) -0.11793(15)
C13 C 0.2468(6) 0.0330(3) -0.10426(15)
H7 H 0.0940 0.0273 -0.1228
C14 C 0.3069(6) 0.1218(4) -0.06456(15)
H8 H 0.1970 0.1763 -0.0553
C15 C 0.3324(7) -0.1469(4) -0.16070(15)
N1 N 0.4394(5) 0.3065(3) 0.01296(13)
N2 N 0.5911(5) 0.2246(3) 0.00239(12)
N3 N 0.7965(5) 0.2379(3) 0.03427(13)
N4 N 0.7782(5) 0.3323(3) 0.06686(13)
N5 N 0.8516(5) 0.8680(3) 0.31994(13)
H9 H 0.7259 0.8289 0.3220
H10 H 0.8133 0.9476 0.3111
H11 H 0.9407 0.8613 0.3516
N6 N 1.1747(5) 0.9184(3) 0.24025(13)
H12 H 1.0877 0.9651 0.2157
H13 H 1.2839 0.8940 0.2253
H14 H 1.2247 0.9767 0.2645
Zn1C Zn 0.00200(7) -0.28080(4) -0.232704(18)
O3C O 1.1324(4) 0.6324(2) 0.31033(11)
loop_
_geom_bond_atom_site_label_1
_geom_bond_atom_site_label_2
_geom_bond_site_symmetry_1
_geom_bond_site_symmetry_2
Zn1 O2 1_555 1_555
O1 C1 1_555 1_555
O2 C1 1_555 1_555
O3 C15 1_555 1_555
O4 C15 1_555 1_555
C1 C2 1_555 1_555
C2 C3 1_555 1_555
C3 H1 1_555 1_555
C4 C3 1_555 1_555
C5 C4 1_555 1_555
H2 C5 1_555 1_555
C6 C5 1_555 1_555
H3 C6 1_555 1_555
C7 C2 1_555 1_555
H4 C7 1_555 1_555
C8 C4 1_555 1_555
C9 C10 1_555 1_555
C10 H5 1_555 1_555
C11 C10 1_555 1_555
H6 C11 1_555 1_555
C12 C11 1_555 1_555
C13 C12 1_555 1_555
H7 C13 1_555 1_555
C14 C9 1_555 1_555
H8 C14 1_555 1_555
C15 C12 1_555 1_555
N1 C8 1_555 1_555
N2 C9 1_555 1_555
N3 N2 1_555 1_555
N4 C8 1_555 1_555
N5 Zn1 1_555 1_555
H9 N5 1_555 1_555
H10 N5 1_555 1_555
H11 N5 1_555 1_555
N6 Zn1 1_555 1_555
H12 N6 1_555 1_555
H13 N6 1_555 1_555
H14 N6 1_555 1_555
Zn1C O3 1_555 1_555
O3C Zn1 1_555 1_555
C6 C7 1_555 1_555
C13 C14 1_555 1_555
N1 N2 1_555 1_555
N3 N4 1_555 1_555

#END
