
#######################################################################
#
#                 Cambridge Crystallographic Data Centre
#                                CCDC 
#
#######################################################################
#
# If this CIF has been generated from an entry in the Cambridge 
# Structural Database, then it will include bibliographic, chemical, 
# crystal, experimental, refinement or atomic coordinate data resulting 
# from the CCDC's data processing and validation procedures.
#
#######################################################################

data_LUTTUQ
_symmetry_cell_setting           monoclinic
_symmetry_space_group_name_H-M   'P 21/n'
_symmetry_Int_Tables_number      14
_space_group_name_Hall           '-P 2yn'
loop_
_symmetry_equiv_pos_site_id
_symmetry_equiv_pos_as_xyz
1 x,y,z
2 1/2-x,1/2+y,1/2-z
3 -x,-y,-z
4 1/2+x,1/2-y,1/2+z
_cell_length_a                   10.787(2)
_cell_length_b                   11.886(2)
_cell_length_c                   11.623(2)
_cell_angle_alpha                90
_cell_angle_beta                 92.03(3)
_cell_angle_gamma                90
_cell_volume                     1489.3
loop_
_atom_site_label
_atom_site_type_symbol
_atom_site_fract_x
_atom_site_fract_y
_atom_site_fract_z
Cu1 Cu 0.55629(6) 0.63494(5) 0.23085(6)
Cu2 Cu 1.0000 0.5000 0.5000
Cs1 Cs 0.78301(5) 0.22470(4) 0.56113(5)
O1 O 0.7192(4) 0.7451(3) 0.2853(3)
C1 C 0.7969(5) 0.6911(4) 0.3740(4)
H1 H 0.8829 0.6900 0.3497
C2 C 0.7879(5) 0.7662(4) 0.4820(4)
H2 H 0.7185 0.7389 0.5265
C3 C 0.7516(5) 0.8823(4) 0.4316(4)
H3 H 0.7076 0.9276 0.4876
C4 C 0.6651(5) 0.8476(4) 0.3302(4)
H4 H 0.6665 0.9061 0.2709
C5 C 0.7529(5) 0.5694(4) 0.3934(5)
O2 O 0.6423(4) 0.5442(3) 0.3635(4)
O3 O 0.8261(4) 0.4997(3) 0.4402(4)
C6 C 0.9033(5) 0.7693(4) 0.5617(5)
O4 O 0.9829(4) 0.6938(4) 0.5611(4)
O5 O 0.9092(4) 0.8557(3) 0.6284(3)
C7 C 0.8637(5) 0.9470(4) 0.3851(4)
O6 O 0.8439(4) 1.0537(3) 0.3739(4)
O7 O 0.9579(4) 0.8966(4) 0.3561(4)
C8 C 0.5301(5) 0.8290(5) 0.3654(4)
O8 O 0.4790(4) 0.7344(4) 0.3399(4)
O9 O 0.4775(4) 0.9066(4) 0.4151(4)
O10 O 0.9269(5) 0.4564(4) 0.6469(4)
H5 H 0.8579 0.4834 0.6605
H6 H 0.9747 0.4320 0.6993
O12 O 0.5017(7) 0.3572(5) 0.4156(5)
H9 H 0.4955 0.3556 0.4832
H10 H 0.5442 0.3996 0.3907
O13 O 0.7963(7) 0.0308(7) 0.7780(7)
H11 H 0.8549 0.0400 0.8124
H12 H 0.8249 -0.0055 0.7296
Cu1B Cu 1.44371(6) 0.36506(5) 0.76915(6)
Cu1A Cu 0.94371(6) 0.13494(5) 0.26915(6)
Cu1C Cu 1.05629(6) 0.86506(5) 0.73085(6)
Cu1A_2 Cu 0.94371(6) 1.13494(5) 0.26915(6)
Cu1C_2 Cu 1.05629(6) -0.13494(5) 0.73085(6)
Cs1B Cs 1.21699(5) 0.77530(4) 0.43887(5)
Cs1_2 Cs 0.78301(5) 1.22470(4) 0.56113(5)
Cs1B_2 Cs 0.21699(5) 0.77530(4) 0.43887(5)
Cs1B_3 Cs 1.21699(5) -0.22470(4) 0.43887(5)
Cs1_3 Cs 1.78301(5) 0.22470(4) 0.56113(5)
O1B O 1.2808(4) 0.2549(3) 0.7147(3)
C1B C 1.2031(5) 0.3089(4) 0.6260(4)
H1B H 1.1171 0.3100 0.6503
C2B C 1.2121(5) 0.2338(4) 0.5180(4)
H2B H 1.2815 0.2611 0.4735
C3B C 1.2484(5) 0.1177(4) 0.5684(4)
H3B H 1.2924 0.0724 0.5124
C4B C 1.3349(5) 0.1524(4) 0.6698(4)
H4B H 1.3335 0.0939 0.7291
C5B C 1.2471(5) 0.4306(4) 0.6066(5)
O2B O 1.3577(4) 0.4558(3) 0.6365(4)
O3B O 1.1739(4) 0.5003(3) 0.5598(4)
C6B C 1.0967(5) 0.2307(4) 0.4383(5)
O4B O 1.0171(4) 0.3062(4) 0.4389(4)
O5B O 1.0908(4) 0.1443(3) 0.3716(3)
O5C O 0.4092(4) 0.6443(3) 0.1284(3)
O5A O 1.5908(4) 0.3557(3) 0.8716(3)
C7B C 1.1363(5) 0.0530(4) 0.6149(4)
O6B O 1.1561(4) -0.0537(3) 0.6261(4)
O6A O 0.6561(4) 0.5537(3) 0.1261(4)
O6_2 O 0.8439(4) 0.0537(3) 0.3739(4)
O6C O 1.3439(4) 0.4463(3) 0.8739(4)
O6B_2 O 1.1561(4) 0.9463(3) 0.6261(4)
O7B O 1.0421(4) 0.1034(4) 0.6439(4)
C8B C 1.4699(5) 0.1710(5) 0.6346(4)
O8B O 1.5210(4) 0.2656(4) 0.6601(4)
O8B_2 O 0.5210(4) 0.2656(4) 0.6601(4)
O8_2 O 1.4790(4) 0.7344(4) 0.3399(4)
O9B O 1.5225(4) 0.0934(4) 0.5849(4)
O9B_2 O 0.5225(4) 0.0934(4) 0.5849(4)
O9_2 O 1.4775(4) 0.9066(4) 0.4151(4)
O10B O 1.0731(5) 0.5436(4) 0.3531(4)
H5B H 1.1421 0.5166 0.3395
H6B H 1.0253 0.5680 0.3007
O12B O 1.4983(7) 0.6428(5) 0.5844(5)
H9B H 1.5045 0.6444 0.5168
H10B H 1.4558 0.6004 0.6093
O13B O 1.2037(7) 0.9692(7) 0.2220(7)
H11B H 1.1451 0.9600 0.1876
H12B H 1.1751 1.0055 0.2704
O11 O -0.0205(9) 0.6298(5) 0.1633(5)
H7 H -0.0078 0.6042 0.0970
H8 H 0.0091 0.6942 0.1536
loop_
_geom_bond_atom_site_label_1
_geom_bond_atom_site_label_2
_geom_bond_site_symmetry_1
_geom_bond_site_symmetry_2
Cu1 O1 1_555 1_555
Cu2 O3 1_555 1_555
Cs1 O3 1_555 1_555
O1 C1 1_555 1_555
C1 H1 1_555 1_555
C2 C1 1_555 1_555
H2 C2 1_555 1_555
C3 C2 1_555 1_555
H3 C3 1_555 1_555
C4 O1 1_555 1_555
H4 C4 1_555 1_555
C5 C1 1_555 1_555
O2 Cu1 1_555 1_555
O3 C5 1_555 1_555
C6 C2 1_555 1_555
O4 Cu2 1_555 1_555
O5 C6 1_555 1_555
C7 C3 1_555 1_555
O6 C7 1_555 1_555
O7 C7 1_555 1_555
C8 C4 1_555 1_555
O8 Cu1 1_555 1_555
O9 C8 1_555 1_555
O10 Cu2 1_555 1_555
H5 O10 1_555 1_555
H6 O10 1_555 1_555
O11 H7 1_555 1_555
H8 O11 1_555 1_555
O12 Cs1 1_555 1_555
H9 O12 1_555 1_555
H10 O12 1_555 1_555
O13 Cs1 1_555 1_555
H11 O13 1_555 1_555
H12 O13 1_555 1_555
Cu1B O1B 1_555 1_555
Cu1A O5B 1_555 1_555
Cu1C O5 1_555 1_555
Cu1A_2 O6 1_555 1_555
Cu1C_2 O6B 1_555 1_555
Cs1B O4 1_555 1_555
Cs1_2 O6 1_555 1_555
Cs1B_2 O8 1_555 1_555
Cs1B_3 O6B 1_555 1_555
Cs1_3 O8B 1_555 1_555
O1B C1B 1_555 1_555
C1B H1B 1_555 1_555
C2B C1B 1_555 1_555
H2B C2B 1_555 1_555
C3B C2B 1_555 1_555
H3B C3B 1_555 1_555
C4B O1B 1_555 1_555
H4B C4B 1_555 1_555
C5B C1B 1_555 1_555
O2B Cu1B 1_555 1_555
O3B Cu2 1_555 1_555
C6B C2B 1_555 1_555
O4B Cu2 1_555 1_555
O5B C6B 1_555 1_555
O5C Cu1 1_555 1_555
O5A Cu1B 1_555 1_555
C7B C3B 1_555 1_555
O6B C7B 1_555 1_555
O6A Cu1 1_555 1_555
O6_2 Cs1 1_555 1_555
O6C Cu1B 1_555 1_555
O6B_2 Cu1C 1_555 1_555
O7B Cs1 1_555 1_555
C8B C4B 1_555 1_555
O8B Cu1B 1_555 1_555
O8B_2 Cs1 1_555 1_555
O8_2 Cs1B 1_555 1_555
O9B Cs1_3 1_555 1_555
O9B_2 Cs1 1_555 1_555
O9_2 Cs1B 1_555 1_555
O10B Cu2 1_555 1_555
H5B O10B 1_555 1_555
H6B O10B 1_555 1_555
O12B Cs1B 1_555 1_555
H9B O12B 1_555 1_555
H10B O12B 1_555 1_555
O13B Cs1B 1_555 1_555
H11B O13B 1_555 1_555
H12B O13B 1_555 1_555
Cs1 O10 1_555 1_555
Cs1 O4B 1_555 1_555
C3 C4 1_555 1_555
C5 O2 1_555 1_555
C6 O4 1_555 1_555
O7 Cs1B 1_555 1_555
C8 O8 1_555 1_555
O9 Cs1B_2 1_555 1_555
Cu1A O6_2 1_555 1_555
Cs1B O3B 1_555 1_555
Cs1B O6B_2 1_555 1_555
Cs1B O10B 1_555 1_555
C3B C4B 1_555 1_555
C5B O2B 1_555 1_555
C5B O3B 1_555 1_555
C6B O4B 1_555 1_555
C7B O7B 1_555 1_555
C8B O8B 1_555 1_555
C8B O9B 1_555 1_555

#END
