
#######################################################################
#
#                 Cambridge Crystallographic Data Centre
#                                CCDC 
#
#######################################################################
#
# If this CIF has been generated from an entry in the Cambridge 
# Structural Database, then it will include bibliographic, chemical, 
# crystal, experimental, refinement or atomic coordinate data resulting 
# from the CCDC's data processing and validation procedures.
#
#######################################################################

data_LUTTOK
_symmetry_cell_setting           monoclinic
_symmetry_space_group_name_H-M   'P 21/n'
_symmetry_Int_Tables_number      14
_space_group_name_Hall           '-P 2yn'
loop_
_symmetry_equiv_pos_site_id
_symmetry_equiv_pos_as_xyz
1 x,y,z
2 1/2-x,1/2+y,1/2-z
3 -x,-y,-z
4 1/2+x,1/2-y,1/2+z
_cell_length_a                   10.293(2)
_cell_length_b                   11.771(2)
_cell_length_c                   11.764(2)
_cell_angle_alpha                90
_cell_angle_beta                 90.34(3)
_cell_angle_gamma                90
_cell_volume                     1425.29
loop_
_atom_site_label
_atom_site_type_symbol
_atom_site_fract_x
_atom_site_fract_y
_atom_site_fract_z
Cu1 Cu 0.54854(7) 0.63779(7) 0.22926(7)
Cu2 Cu 1.0000 0.5000 0.5000
Rb1 Rb 0.78976(8) 0.22175(8) 0.55472(9)
O1 O 0.7168(4) 0.7488(4) 0.2859(4)
C1 C 0.7951(6) 0.6940(5) 0.3736(5)
H1 H 0.8863 0.6935 0.3504
C2 C 0.7803(6) 0.7669(5) 0.4813(5)
H2 H 0.7049 0.7394 0.5237
C3 C 0.7475(6) 0.8844(5) 0.4319(5)
H3 H 0.6989 0.9297 0.4872
C4 C 0.6599(6) 0.8515(5) 0.3307(6)
H4 H 0.6640 0.9113 0.2729
C5 C 0.7484(6) 0.5722(5) 0.3894(6)
O2 O 0.6357(4) 0.5471(4) 0.3592(4)
O3 O 0.8223(4) 0.5008(4) 0.4358(4)
C6 C 0.8959(6) 0.7683(6) 0.5600(6)
O4 O 0.9799(4) 0.6916(4) 0.5586(4)
O5 O 0.9002(4) 0.8535(4) 0.6274(4)
C7 C 0.8629(6) 0.9499(5) 0.3887(6)
O6 O 0.8427(4) 1.0569(4) 0.3756(4)
O7 O 0.9642(5) 0.8997(4) 0.3616(5)
C8 C 0.5167(5) 0.8320(6) 0.3645(5)
O8 O 0.4635(4) 0.7376(4) 0.3360(5)
O9 O 0.4592(4) 0.9069(4) 0.4172(4)
O10 O 1.0893(5) 0.5514(5) 0.3585(5)
H5 H 1.1421 0.5166 0.3395
H6 H 1.0253 0.5680 0.3007
O12 O 0.5297(8) 0.3447(6) 0.4276(6)
H9 H 0.4955 0.3556 0.4832
H10 H 0.5442 0.3996 0.3907
O13 O 0.8100(8) 0.0535(8) 0.7803(8)
H11 H 0.8549 0.0400 0.8124
H12 H 0.8249 -0.0055 0.7296
Cu1B Cu 1.45146(7) 0.36221(7) 0.77074(7)
Cu1A Cu 0.95146(7) 0.13779(7) 0.27074(7)
Cu1C Cu 1.04854(7) 0.86221(7) 0.72926(7)
Cu1A_2 Cu 0.95146(7) 1.13779(7) 0.27074(7)
Cu1C_2 Cu 1.04854(7) -0.13779(7) 0.72926(7)
Rb1B Rb 1.21024(8) 0.77825(8) 0.44528(9)
Rb1_2 Rb 0.78976(8) 1.22175(8) 0.55472(9)
Rb1B_2 Rb 0.21024(8) 0.77825(8) 0.44528(9)
Rb1B_3 Rb 1.21024(8) -0.22175(8) 0.44528(9)
Rb1_3 Rb 1.78976(8) 0.22175(8) 0.55472(9)
O1B O 1.2832(4) 0.2512(4) 0.7141(4)
C1B C 1.2049(6) 0.3060(5) 0.6264(5)
H1B H 1.1137 0.3065 0.6496
C2B C 1.2197(6) 0.2331(5) 0.5187(5)
H2B H 1.2951 0.2606 0.4763
C3B C 1.2525(6) 0.1156(5) 0.5681(5)
H3B H 1.3011 0.0703 0.5128
C4B C 1.3401(6) 0.1485(5) 0.6693(6)
H4B H 1.3360 0.0887 0.7271
C5B C 1.2516(6) 0.4278(5) 0.6106(6)
O2B O 1.3643(4) 0.4529(4) 0.6408(4)
O3B O 1.1777(4) 0.4992(4) 0.5642(4)
C6B C 1.1041(6) 0.2317(6) 0.4400(6)
O4B O 1.0201(4) 0.3084(4) 0.4414(4)
O5B O 1.0998(4) 0.1465(4) 0.3726(4)
O5C O 0.4002(4) 0.6465(4) 0.1274(4)
O5A O 1.5998(4) 0.3535(4) 0.8726(4)
C7B C 1.1371(6) 0.0501(5) 0.6113(6)
O6B O 1.1573(4) -0.0569(4) 0.6244(4)
O6A O 0.6573(4) 0.5569(4) 0.1244(4)
O6_2 O 0.8427(4) 0.0569(4) 0.3756(4)
O6C O 1.3427(4) 0.4431(4) 0.8756(4)
O6B_2 O 1.1573(4) 0.9431(4) 0.6244(4)
O7B O 1.0358(5) 0.1003(4) 0.6384(5)
C8B C 1.4833(5) 0.1680(6) 0.6355(5)
O8B O 1.5365(4) 0.2624(4) 0.6640(5)
O8B_2 O 0.5365(4) 0.2624(4) 0.6640(5)
O8_2 O 1.4635(4) 0.7376(4) 0.3360(5)
O9B O 1.5408(4) 0.0931(4) 0.5828(4)
O9B_2 O 0.5408(4) 0.0931(4) 0.5828(4)
O9_2 O 1.4592(4) 0.9069(4) 0.4172(4)
O10B O 0.9107(5) 0.4486(5) 0.6415(5)
H5B H 0.8579 0.4834 0.6605
H6B H 0.9747 0.4320 0.6993
O12B O 1.4703(8) 0.6553(6) 0.5724(6)
H9B H 1.5045 0.6444 0.5168
H10B H 1.4558 0.6004 0.6093
O13B O 1.1900(8) 0.9465(8) 0.2197(8)
H11B H 1.1451 0.9600 0.1876
H12B H 1.1751 1.0055 0.2704
O11 O -0.0112(8) 0.6248(6) 0.1692(6)
H7 H -0.0078 0.6042 0.0970
H8 H 0.0091 0.6942 0.1536
loop_
_geom_bond_atom_site_label_1
_geom_bond_atom_site_label_2
_geom_bond_site_symmetry_1
_geom_bond_site_symmetry_2
Cu1 O1 1_555 1_555
Cu2 O3 1_555 1_555
Rb1 O3 1_555 1_555
O1 C1 1_555 1_555
C1 H1 1_555 1_555
C2 C1 1_555 1_555
H2 C2 1_555 1_555
C3 C2 1_555 1_555
H3 C3 1_555 1_555
C4 O1 1_555 1_555
H4 C4 1_555 1_555
C5 C1 1_555 1_555
O2 Cu1 1_555 1_555
O3 C5 1_555 1_555
C6 C2 1_555 1_555
O4 Cu2 1_555 1_555
O5 C6 1_555 1_555
C7 C3 1_555 1_555
O6 C7 1_555 1_555
O7 C7 1_555 1_555
C8 C4 1_555 1_555
O8 Cu1 1_555 1_555
O9 C8 1_555 1_555
O10 Cu2 1_555 1_555
H5 O10 1_555 1_555
H6 O10 1_555 1_555
O11 H7 1_555 1_555
H8 O11 1_555 1_555
O12 Rb1 1_555 1_555
H9 O12 1_555 1_555
H10 O12 1_555 1_555
O13 Rb1 1_555 1_555
H11 O13 1_555 1_555
H12 O13 1_555 1_555
Cu1B O1B 1_555 1_555
Cu1A O5B 1_555 1_555
Cu1C O5 1_555 1_555
Cu1A_2 O6 1_555 1_555
Cu1C_2 O6B 1_555 1_555
Rb1B O4 1_555 1_555
Rb1_2 O6 1_555 1_555
Rb1B_2 O8 1_555 1_555
Rb1B_3 O6B 1_555 1_555
Rb1_3 O8B 1_555 1_555
O1B C1B 1_555 1_555
C1B H1B 1_555 1_555
C2B C1B 1_555 1_555
H2B C2B 1_555 1_555
C3B C2B 1_555 1_555
H3B C3B 1_555 1_555
C4B O1B 1_555 1_555
H4B C4B 1_555 1_555
C5B C1B 1_555 1_555
O2B Cu1B 1_555 1_555
O3B Cu2 1_555 1_555
C6B C2B 1_555 1_555
O4B Cu2 1_555 1_555
O5B C6B 1_555 1_555
O5C Cu1 1_555 1_555
O5A Cu1B 1_555 1_555
C7B C3B 1_555 1_555
O6B C7B 1_555 1_555
O6A Cu1 1_555 1_555
O6_2 Rb1 1_555 1_555
O6C Cu1B 1_555 1_555
O6B_2 Cu1C 1_555 1_555
O7B Rb1 1_555 1_555
C8B C4B 1_555 1_555
O8B Cu1B 1_555 1_555
O8B_2 Rb1 1_555 1_555
O8_2 Rb1B 1_555 1_555
O9B Rb1_3 1_555 1_555
O9B_2 Rb1 1_555 1_555
O9_2 Rb1B 1_555 1_555
O10B Cu2 1_555 1_555
H5B O10B 1_555 1_555
H6B O10B 1_555 1_555
O12B Rb1B 1_555 1_555
H9B O12B 1_555 1_555
H10B O12B 1_555 1_555
O13B Rb1B 1_555 1_555
H11B O13B 1_555 1_555
H12B O13B 1_555 1_555
Rb1 O4B 1_555 1_555
Rb1 O10B 1_555 1_555
C3 C4 1_555 1_555
C5 O2 1_555 1_555
C6 O4 1_555 1_555
O7 Rb1B 1_555 1_555
C8 O8 1_555 1_555
O9 Rb1B_2 1_555 1_555
O10 Rb1B 1_555 1_555
Cu1A O6_2 1_555 1_555
Rb1B O3B 1_555 1_555
Rb1B O6B_2 1_555 1_555
C3B C4B 1_555 1_555
C5B O2B 1_555 1_555
C5B O3B 1_555 1_555
C6B O4B 1_555 1_555
C7B O7B 1_555 1_555
C8B O8B 1_555 1_555
C8B O9B 1_555 1_555

#END
