
#######################################################################
#
#                 Cambridge Crystallographic Data Centre
#                                CCDC 
#
#######################################################################
#
# If this CIF has been generated from an entry in the Cambridge 
# Structural Database, then it will include bibliographic, chemical, 
# crystal, experimental, refinement or atomic coordinate data resulting 
# from the CCDC's data processing and validation procedures.
#
#######################################################################

data_LUTWON
_symmetry_cell_setting           monoclinic
_symmetry_space_group_name_H-M   'C 2/c'
_symmetry_Int_Tables_number      15
_space_group_name_Hall           '-C 2yn'
loop_
_symmetry_equiv_pos_site_id
_symmetry_equiv_pos_as_xyz
1 x,y,z
2 -x,y,1/2-z
3 1/2+x,1/2+y,z
4 1/2-x,1/2+y,1/2-z
5 -x,-y,-z
6 x,-y,1/2+z
7 1/2-x,1/2-y,-z
8 1/2+x,1/2-y,1/2+z
_cell_length_a                   17.875(2)
_cell_length_b                   21.315(3)
_cell_length_c                   9.0306(12)
_cell_angle_alpha                90
_cell_angle_beta                 105.757(2)
_cell_angle_gamma                90
_cell_volume                     3311.41
loop_
_atom_site_label
_atom_site_type_symbol
_atom_site_fract_x
_atom_site_fract_y
_atom_site_fract_z
Hg1 Hg 0.0000 0.175354(11) 0.2500
Hg2 Hg 0.0000 0.0000 0.5000
I1 I 0.02288(2) 0.160822(15) 0.54627(4)
I2 I -0.11888(2) 0.015073(16) 0.26025(4)
O1 O 0.1035(2) 0.25388(16) 0.2748(4)
P1 P 0.17114(8) 0.29645(6) 0.30091(14)
C1 C 0.2578(3) 0.2640(2) 0.4268(5)
H1 H 0.2777 0.2314 0.3729
H2 H 0.2970 0.2965 0.4556
C2 C 0.1525(3) 0.3690(2) 0.3880(5)
C3 C 0.2024(4) 0.4192(2) 0.4083(6)
H3 H 0.2481 0.4165 0.3783
C4 C 0.1843(5) 0.4742(3) 0.4738(9)
H4 H 0.2181 0.5082 0.4874
C5 C 0.1176(6) 0.4786(4) 0.5183(10)
H5 H 0.1058 0.5156 0.5616
C6 C 0.0687(5) 0.4291(4) 0.4995(9)
H6 H 0.0235 0.4322 0.5312
C7 C 0.0849(4) 0.3736(3) 0.4336(7)
H7 H 0.0506 0.3400 0.4202
C8 C 0.1925(3) 0.31821(19) 0.1237(5)
C9 C 0.2655(3) 0.3368(2) 0.1158(6)
H8 H 0.3075 0.3359 0.2032
C10 C 0.2754(4) 0.3570(3) -0.0245(7)
H9 H 0.3243 0.3698 -0.0305
C11 C 0.2155(4) 0.3582(2) -0.1498(6)
H10 H 0.2225 0.3730 -0.2420
C12 C 0.1433(4) 0.3376(3) -0.1444(7)
H11 H 0.1023 0.3375 -0.2335
C13 C 0.1316(3) 0.3171(2) -0.0075(6)
H12 H 0.0829 0.3028 -0.0040
Hg1F Hg 0.5000 0.324646(11) 0.7500
Hg2A Hg 0.0000 0.0000 0.0000
I1A I -0.02288(2) 0.160822(15) -0.04627(4)
I1D I -0.02288(2) -0.160822(15) 0.45373(4)
I2D I 0.11888(2) -0.015073(16) 0.73975(4)
O1F O 0.3965(2) 0.24612(16) 0.7252(4)
O1A O -0.1035(2) 0.25388(16) 0.2252(4)
P1F P 0.32886(8) 0.20355(6) 0.69909(14)
C1F C 0.2422(3) 0.2360(2) 0.5732(5)
H1F H 0.2223 0.2686 0.6271
H2F H 0.2030 0.2035 0.5444
C2F C 0.3475(3) 0.1310(2) 0.6120(5)
C3F C 0.2976(4) 0.0808(2) 0.5917(6)
H3F H 0.2519 0.0835 0.6217
C4F C 0.3157(5) 0.0258(3) 0.5262(9)
H4F H 0.2819 -0.0082 0.5126
C5F C 0.3824(6) 0.0214(4) 0.4817(10)
H5F H 0.3942 -0.0156 0.4384
C6F C 0.4313(5) 0.0709(4) 0.5005(9)
H6F H 0.4765 0.0678 0.4688
C7F C 0.4151(4) 0.1264(3) 0.5664(7)
H7F H 0.4494 0.1600 0.5798
C8F C 0.3075(3) 0.18179(19) 0.8763(5)
C9F C 0.2345(3) 0.1632(2) 0.8842(6)
H8F H 0.1925 0.1641 0.7968
C10F C 0.2246(4) 0.1430(3) 1.0245(7)
H9F H 0.1757 0.1302 1.0305
C11F C 0.2845(4) 0.1418(2) 1.1498(6)
H10F H 0.2775 0.1270 1.2420
C12F C 0.3567(4) 0.1624(3) 1.1444(7)
H11F H 0.3977 0.1625 1.2335
C13F C 0.3684(3) 0.1829(2) 1.0075(6)
H12F H 0.4171 0.1972 1.0040
loop_
_geom_bond_atom_site_label_1
_geom_bond_atom_site_label_2
_geom_bond_site_symmetry_1
_geom_bond_site_symmetry_2
Hg1 I1 1_555 1_555
Hg2 I1 1_555 1_555
I2 Hg2 1_555 1_555
O1 Hg1 1_555 1_555
P1 O1 1_555 1_555
C1 P1 1_555 1_555
H1 C1 1_555 1_555
H2 C1 1_555 1_555
C2 P1 1_555 1_555
C3 C2 1_555 1_555
H3 C3 1_555 1_555
C4 C3 1_555 1_555
H4 C4 1_555 1_555
C5 C4 1_555 1_555
H5 C5 1_555 1_555
C6 C5 1_555 1_555
H6 C6 1_555 1_555
C7 C2 1_555 1_555
H7 C7 1_555 1_555
C8 P1 1_555 1_555
C9 C8 1_555 1_555
H8 C9 1_555 1_555
C10 C9 1_555 1_555
H9 C10 1_555 1_555
C11 C10 1_555 1_555
H10 C11 1_555 1_555
C12 C11 1_555 1_555
H11 C12 1_555 1_555
C13 C8 1_555 1_555
H12 C13 1_555 1_555
Hg1F O1F 1_555 1_555
Hg2A I1A 1_555 1_555
I1A Hg1 1_555 1_555
I1D Hg2 1_555 1_555
I2D Hg2 1_555 1_555
O1F P1F 1_555 1_555
O1A Hg1 1_555 1_555
P1F C1F 1_555 1_555
C1F C1 1_555 1_555
H1F C1F 1_555 1_555
H2F C1F 1_555 1_555
C2F P1F 1_555 1_555
C3F C2F 1_555 1_555
H3F C3F 1_555 1_555
C4F C3F 1_555 1_555
H4F C4F 1_555 1_555
C5F C4F 1_555 1_555
H5F C5F 1_555 1_555
C6F C5F 1_555 1_555
H6F C6F 1_555 1_555
C7F C2F 1_555 1_555
H7F C7F 1_555 1_555
C8F P1F 1_555 1_555
C9F C8F 1_555 1_555
H8F C9F 1_555 1_555
C10F C9F 1_555 1_555
H9F C10F 1_555 1_555
C11F C10F 1_555 1_555
H10F C11F 1_555 1_555
C12F C11F 1_555 1_555
H11F C12F 1_555 1_555
C13F C8F 1_555 1_555
H12F C13F 1_555 1_555
C6 C7 1_555 1_555
C12 C13 1_555 1_555
C6F C7F 1_555 1_555
C12F C13F 1_555 1_555

#END
