
#######################################################################
#
#                 Cambridge Crystallographic Data Centre
#                                CCDC 
#
#######################################################################
#
# If this CIF has been generated from an entry in the Cambridge 
# Structural Database, then it will include bibliographic, chemical, 
# crystal, experimental, refinement or atomic coordinate data resulting 
# from the CCDC's data processing and validation procedures.
#
#######################################################################

data_LUTWED
_symmetry_cell_setting           monoclinic
_symmetry_space_group_name_H-M   'P 21/c'
_symmetry_Int_Tables_number      14
_space_group_name_Hall           '-P 2ybc'
loop_
_symmetry_equiv_pos_site_id
_symmetry_equiv_pos_as_xyz
1 x,y,z
2 -x,1/2+y,1/2-z
3 -x,-y,-z
4 x,1/2-y,1/2+z
_cell_length_a                   17.503(6)
_cell_length_b                   15.076(5)
_cell_length_c                   22.062(7)
_cell_angle_alpha                90
_cell_angle_beta                 109.072(6)
_cell_angle_gamma                90
_cell_volume                     5502.06
loop_
_atom_site_label
_atom_site_type_symbol
_atom_site_fract_x
_atom_site_fract_y
_atom_site_fract_z
Zn1 Zn -0.00712(2) 0.36115(2) 0.721228(18)
O1 O 0.03554(11) 0.45893(12) 0.68425(9)
O2 O -0.01531(11) 0.76336(12) 0.82775(9)
P1 P 0.01438(4) 0.55279(5) 0.66432(4)
P2 P -0.00512(4) 0.66691(5) 0.84238(4)
Br1 Br -0.14802(2) 0.37046(2) 0.694843(19)
Br2 Br 0.07104(2) 0.35792(2) 0.831034(16)
C1 C -0.02734(16) 0.60961(17) 0.71723(13)
H1 H -0.0381 0.6708 0.7034
H2 H -0.0783 0.5822 0.7151
C2 C 0.02932(16) 0.60759(17) 0.78616(13)
H3 H 0.0811 0.6320 0.7873
H4 H 0.0382 0.5462 0.7999
C3 C -0.05835(18) 0.5591(2) 0.58628(15)
C4 C -0.0726(2) 0.4836(2) 0.54911(17)
H5 H -0.0455 0.4314 0.5657
C5 C -0.1258(3) 0.4848(3) 0.4883(2)
H6 H -0.1348 0.4337 0.4634
C6 C -0.1655(3) 0.5603(4) 0.4644(2)
H7 H -0.2024 0.5607 0.4230
C7 C -0.1527(3) 0.6351(3) 0.4993(2)
H8 H -0.1799 0.6869 0.4820
C8 C -0.0987(2) 0.6347(3) 0.56137(18)
H9 H -0.0902 0.6862 0.5859
C9 C 0.10388(18) 0.60949(19) 0.66569(14)
C10 C 0.17447(18) 0.5632(2) 0.67790(15)
H10 H 0.1753 0.5029 0.6869
C11 C 0.2442(2) 0.6043(3) 0.67719(19)
H11 H 0.2916 0.5719 0.6851
C12 C 0.2435(2) 0.6916(3) 0.6649(2)
H12 H 0.2908 0.7197 0.6648
C13 C 0.1742(3) 0.7391(3) 0.6528(2)
H13 H 0.1743 0.7995 0.6442
C14 C 0.1033(2) 0.6985(2) 0.65296(19)
H14 H 0.0559 0.7312 0.6445
C15 C 0.07152(18) 0.6464(2) 0.91731(14)
C16 C 0.0772(2) 0.5660(2) 0.94707(18)
H15 H 0.0382 0.5228 0.9297
C17 C 0.1396(3) 0.5484(3) 1.00210(19)
H16 H 0.1426 0.4937 1.0222
C18 C 0.1971(3) 0.6108(3) 1.0275(2)
H17 H 0.2397 0.5988 1.0648
C19 C 0.1921(2) 0.6907(3) 0.99820(19)
H18 H 0.2315 0.7336 1.0154
C20 C 0.1290(2) 0.7085(2) 0.94328(16)
H19 H 0.1257 0.7637 0.9237
C21 C -0.09868(17) 0.62169(18) 0.84279(14)
C22 C -0.15278(19) 0.6782(2) 0.85790(15)
H20 H -0.1386 0.7369 0.8690
C23 C -0.2271(2) 0.6471(3) 0.85634(18)
H21 H -0.2631 0.6849 0.8665
C24 C -0.2486(2) 0.5613(3) 0.84004(17)
H22 H -0.2988 0.5406 0.8395
C25 C -0.1966(2) 0.5064(2) 0.82461(16)
H23 H -0.2120 0.4482 0.8126
C26 C -0.12161(19) 0.5353(2) 0.82638(15)
H24 H -0.0862 0.4965 0.8165
Zn1A Zn 0.00712(2) 0.86115(2) 0.778772(18)
O2A O 0.01531(11) 0.26336(12) 0.67225(9)
C27 C 0.46940(17) 0.36923(17) 0.21539(13)
H25 H 0.4600 0.4307 0.2021
H26 H 0.4178 0.3433 0.2129
Zn2 Zn 0.49509(2) 0.11774(2) 0.219609(18)
O3 O 0.53159(11) 0.21799(12) 0.18042(9)
O4 O 0.47751(11) 0.51996(12) 0.32665(10)
P3 P 0.50900(4) 0.31178(5) 0.16107(4)
P4 P 0.48594(4) 0.42296(5) 0.33946(4)
Br3 Br 0.35378(2) 0.12073(2) 0.192462(19)
Br4 Br 0.57371(2) 0.11782(2) 0.329327(17)
C28 C 0.52572(17) 0.36583(17) 0.28502(13)
H27 H 0.5773 0.3920 0.2875
H28 H 0.5353 0.3043 0.2982
C29 C 0.43067(17) 0.3177(2) 0.08553(14)
C30 C 0.4079(2) 0.2423(2) 0.04948(18)
H29 H 0.4347 0.1892 0.0640
C31 C 0.3465(3) 0.2445(3) -0.0075(2)
H30 H 0.3320 0.1930 -0.0317
C32 C 0.3062(2) 0.3210(4) -0.0291(2)
H31 H 0.2636 0.3217 -0.0676
C33 C 0.3285(3) 0.3966(3) 0.0056(2)
H32 H 0.3015 0.4494 -0.0094
C34 C 0.3907(2) 0.3951(2) 0.06258(17)
H33 H 0.4060 0.4472 0.0860
C35 C 0.59672(18) 0.36852(19) 0.15680(14)
C36 C 0.66374(18) 0.3186(2) 0.15913(15)
H34 H 0.6635 0.2575 0.1650
C37 C 0.7306(2) 0.3596(3) 0.15270(18)
H35 H 0.7754 0.3258 0.1534
C38 C 0.7325(2) 0.4481(3) 0.14537(19)
H36 H 0.7781 0.4751 0.1410
C39 C 0.6674(3) 0.4980(3) 0.1444(2)
H37 H 0.6690 0.5592 0.1400
C40 C 0.5990(2) 0.4583(2) 0.14998(18)
H38 H 0.5545 0.4927 0.1491
C41 C 0.55474(18) 0.4007(2) 0.41730(14)
C42 C 0.5515(2) 0.3238(3) 0.44799(19)
H39 H 0.5117 0.2824 0.4285
C43 C 0.6062(3) 0.3061(3) 0.5075(2)
H40 H 0.6034 0.2527 0.5279
C44 C 0.6638(3) 0.3658(3) 0.5364(2)
H41 H 0.6992 0.3554 0.5775
C45 C 0.6696(2) 0.4396(3) 0.5055(2)
H42 H 0.7111 0.4794 0.5244
C46 C 0.6150(2) 0.4581(3) 0.44603(18)
H43 H 0.6196 0.5106 0.4254
C47 C 0.38990(17) 0.37688(18) 0.33310(14)
C48 C 0.33258(18) 0.4322(2) 0.34363(15)
H44 H 0.3449 0.4915 0.3538
C49 C 0.2580(2) 0.4003(2) 0.33922(17)
H45 H 0.2202 0.4377 0.3471
C50 C 0.23882(19) 0.3146(2) 0.32347(16)
H46 H 0.1879 0.2934 0.3206
C51 C 0.29423(19) 0.2591(2) 0.31181(15)
H47 H 0.2804 0.2005 0.3001
C52 C 0.37032(18) 0.28941(19) 0.31723(14)
H48 H 0.4083 0.2512 0.3102
Zn2A Zn 0.50491(2) 0.61774(2) 0.280391(18)
O4A O 0.52249(11) 0.01996(12) 0.17335(10)
loop_
_geom_bond_atom_site_label_1
_geom_bond_atom_site_label_2
_geom_bond_site_symmetry_1
_geom_bond_site_symmetry_2
Zn1 O1 1_555 1_555
O1 P1 1_555 1_555
O2 P2 1_555 1_555
P1 C1 1_555 1_555
P2 C2 1_555 1_555
Br1 Zn1 1_555 1_555
Br2 Zn1 1_555 1_555
C1 H1 1_555 1_555
H2 C1 1_555 1_555
C2 C1 1_555 1_555
H3 C2 1_555 1_555
H4 C2 1_555 1_555
C3 P1 1_555 1_555
C4 C3 1_555 1_555
H5 C4 1_555 1_555
C5 C4 1_555 1_555
H6 C5 1_555 1_555
C6 C5 1_555 1_555
H7 C6 1_555 1_555
C7 C6 1_555 1_555
H8 C7 1_555 1_555
C8 C3 1_555 1_555
H9 C8 1_555 1_555
C9 P1 1_555 1_555
C10 C9 1_555 1_555
H10 C10 1_555 1_555
C11 C10 1_555 1_555
H11 C11 1_555 1_555
C12 C11 1_555 1_555
H12 C12 1_555 1_555
C13 C12 1_555 1_555
H13 C13 1_555 1_555
C14 C9 1_555 1_555
H14 C14 1_555 1_555
C15 P2 1_555 1_555
C16 C15 1_555 1_555
H15 C16 1_555 1_555
C17 C16 1_555 1_555
H16 C17 1_555 1_555
C18 C17 1_555 1_555
H17 C18 1_555 1_555
C19 C18 1_555 1_555
H18 C19 1_555 1_555
C20 C15 1_555 1_555
H19 C20 1_555 1_555
C21 P2 1_555 1_555
C22 C21 1_555 1_555
H20 C22 1_555 1_555
C23 C22 1_555 1_555
H21 C23 1_555 1_555
C24 C23 1_555 1_555
H22 C24 1_555 1_555
C25 C24 1_555 1_555
H23 C25 1_555 1_555
C26 C21 1_555 1_555
H24 C26 1_555 1_555
C27 H25 1_555 1_555
H26 C27 1_555 1_555
Zn2 O3 1_555 1_555
O3 P3 1_555 1_555
O4 P4 1_555 1_555
P3 C27 1_555 1_555
P4 C28 1_555 1_555
Br3 Zn2 1_555 1_555
Br4 Zn2 1_555 1_555
C28 C27 1_555 1_555
H27 C28 1_555 1_555
H28 C28 1_555 1_555
C29 P3 1_555 1_555
C30 C29 1_555 1_555
H29 C30 1_555 1_555
C31 C30 1_555 1_555
H30 C31 1_555 1_555
C32 C31 1_555 1_555
H31 C32 1_555 1_555
C33 C32 1_555 1_555
H32 C33 1_555 1_555
C34 C29 1_555 1_555
H33 C34 1_555 1_555
C35 P3 1_555 1_555
C36 C35 1_555 1_555
H34 C36 1_555 1_555
C37 C36 1_555 1_555
H35 C37 1_555 1_555
C38 C37 1_555 1_555
H36 C38 1_555 1_555
C39 C38 1_555 1_555
H37 C39 1_555 1_555
C40 C35 1_555 1_555
H38 C40 1_555 1_555
C41 P4 1_555 1_555
C42 C41 1_555 1_555
H39 C42 1_555 1_555
C43 C42 1_555 1_555
H40 C43 1_555 1_555
C44 C43 1_555 1_555
H41 C44 1_555 1_555
C45 C44 1_555 1_555
H42 C45 1_555 1_555
C46 C41 1_555 1_555
H43 C46 1_555 1_555
C47 P4 1_555 1_555
C48 C47 1_555 1_555
H44 C48 1_555 1_555
C49 C48 1_555 1_555
H45 C49 1_555 1_555
C50 C49 1_555 1_555
H46 C50 1_555 1_555
C51 C50 1_555 1_555
H47 C51 1_555 1_555
C52 C47 1_555 1_555
H48 C52 1_555 1_555
Zn1A O2 1_555 1_555
O2A Zn1 1_555 1_555
Zn2A O4 1_555 1_555
O4A Zn2 1_555 1_555
C7 C8 1_555 1_555
C13 C14 1_555 1_555
C19 C20 1_555 1_555
C25 C26 1_555 1_555
C33 C34 1_555 1_555
C39 C40 1_555 1_555
C45 C46 1_555 1_555
C51 C52 1_555 1_555

#END
