
#######################################################################
#
#                 Cambridge Crystallographic Data Centre
#                                CCDC 
#
#######################################################################
#
# If this CIF has been generated from an entry in the Cambridge 
# Structural Database, then it will include bibliographic, chemical, 
# crystal, experimental, refinement or atomic coordinate data resulting 
# from the CCDC's data processing and validation procedures.
#
#######################################################################

data_LUTWIH
_symmetry_cell_setting           triclinic
_symmetry_space_group_name_H-M   'P -1'
_symmetry_Int_Tables_number      2
_space_group_name_Hall           '-P 1'
loop_
_symmetry_equiv_pos_site_id
_symmetry_equiv_pos_as_xyz
1 x,y,z
2 -x,-y,-z
_cell_length_a                   10.3715(8)
_cell_length_b                   12.4947(9)
_cell_length_c                   12.5154(10)
_cell_angle_alpha                62.8350(10)
_cell_angle_beta                 75.7410(10)
_cell_angle_gamma                81.2250(10)
_cell_volume                     1396.99
loop_
_atom_site_label
_atom_site_type_symbol
_atom_site_fract_x
_atom_site_fract_y
_atom_site_fract_z
Cd1 Cd 0.12959(2) 0.22051(2) 0.80697(2)
I1 I -0.07097(2) 0.09179(3) 0.83123(3)
I2 I 0.10342(3) 0.39609(3) 0.88137(3)
O1 O 0.3127(2) 0.1094(2) 0.8462(2)
O2 O 0.2016(2) 0.3095(2) 0.6036(2)
P1 P 0.44091(7) 0.04220(7) 0.82653(7)
P2 P 0.16474(8) 0.37006(8) 0.48021(8)
C1 C 0.5403(3) 0.0253(3) 0.9340(3)
H1 H 0.6171 -0.0285 0.9286
H2 H 0.5725 0.1030 0.9124
C2 C 0.0035(3) 0.4490(3) 0.4823(3)
H3 H -0.0177 0.4813 0.4016
H4 H -0.0634 0.3921 0.5398
C3 C 0.4137(3) -0.1063(3) 0.8490(3)
C4 C 0.2851(4) -0.1407(4) 0.8705(3)
H5 H 0.2129 -0.0877 0.8751
C5 C 0.2642(5) -0.2541(4) 0.8850(4)
H6 H 0.1779 -0.2768 0.8996
C6 C 0.3681(6) -0.3315(4) 0.8783(4)
H7 H 0.3524 -0.4070 0.8878
C7 C 0.4980(5) -0.3007(4) 0.8573(4)
H8 H 0.5691 -0.3548 0.8529
C8 C 0.5200(4) -0.1874(3) 0.8430(4)
H9 H 0.6065 -0.1657 0.8292
C9 C 0.5393(3) 0.1145(3) 0.6744(3)
C10 C 0.5012(4) 0.1069(3) 0.5793(3)
H10 H 0.4300 0.0605 0.5966
C11 C 0.5672(4) 0.1672(4) 0.4599(3)
H11 H 0.5405 0.1611 0.3972
C12 C 0.6723(4) 0.2362(4) 0.4329(3)
H12 H 0.7168 0.2772 0.3522
C13 C 0.7104(4) 0.2438(4) 0.5258(4)
H13 H 0.7823 0.2896 0.5079
C14 C 0.6446(3) 0.1850(3) 0.6456(3)
H14 H 0.6711 0.1929 0.7073
C15 C 0.1514(3) 0.2652(3) 0.4223(4)
C16 C 0.1209(4) 0.3045(4) 0.3075(4)
H15 H 0.1091 0.3864 0.2582
C17 C 0.1083(5) 0.2209(6) 0.2669(5)
H16 H 0.0884 0.2463 0.1902
C18 C 0.1254(5) 0.1013(6) 0.3405(7)
H17 H 0.1164 0.0453 0.3133
C19 C 0.1549(5) 0.0621(5) 0.4517(7)
H18 H 0.1663 -0.0200 0.4999
C20 C 0.1683(4) 0.1427(4) 0.4948(4)
H19 H 0.1885 0.1152 0.5717
C21 C 0.2884(3) 0.4750(3) 0.3717(3)
C22 C 0.4135(3) 0.4604(3) 0.4016(3)
H20 H 0.4285 0.4019 0.4775
C23 C 0.5143(4) 0.5334(4) 0.3176(4)
H21 H 0.5979 0.5234 0.3367
C24 C 0.4918(4) 0.6208(4) 0.2059(4)
H22 H 0.5608 0.6687 0.1494
C25 C 0.3685(4) 0.6381(4) 0.1772(4)
H23 H 0.3533 0.6988 0.1023
C26 C 0.2673(4) 0.5649(3) 0.2596(3)
H24 H 0.1840 0.5762 0.2398
Cd1A Cd 0.87041(2) -0.22051(2) 1.19303(2)
Cd1A_2 Cd -0.12959(2) 0.77949(2) 0.19303(2)
I1A I 1.07097(2) -0.09179(3) 1.16877(3)
I2A I 0.89658(3) -0.39609(3) 1.11863(3)
O1A O 0.6873(2) -0.1094(2) 1.1538(2)
O2A O -0.2016(2) 0.6905(2) 0.3964(2)
O2A_2 O 0.7984(2) -0.3095(2) 1.3964(2)
P1A P 0.55909(7) -0.04220(7) 1.17347(7)
P2A P -0.16474(8) 0.62994(8) 0.51979(8)
C1A C 0.4597(3) -0.0253(3) 1.0660(3)
H1A H 0.3829 0.0285 1.0714
H2A H 0.4275 -0.1030 1.0876
C2A C -0.0035(3) 0.5510(3) 0.5177(3)
H3A H 0.0177 0.5187 0.5984
H4A H 0.0634 0.6079 0.4602
C3A C 0.5863(3) 0.1063(3) 1.1510(3)
C4A C 0.7149(4) 0.1407(4) 1.1295(3)
H5A H 0.7871 0.0877 1.1249
C5A C 0.7358(5) 0.2541(4) 1.1150(4)
H6A H 0.8221 0.2768 1.1004
C6A C 0.6319(6) 0.3315(4) 1.1217(4)
H7A H 0.6476 0.4070 1.1122
C7A C 0.5020(5) 0.3007(4) 1.1427(4)
H8A H 0.4309 0.3548 1.1471
C8A C 0.4800(4) 0.1874(3) 1.1570(4)
H9A H 0.3935 0.1657 1.1708
C9A C 0.4607(3) -0.1145(3) 1.3256(3)
C10A C 0.4988(4) -0.1069(3) 1.4207(3)
H10A H 0.5700 -0.0605 1.4034
C11A C 0.4328(4) -0.1672(4) 1.5401(3)
H11A H 0.4595 -0.1611 1.6028
C12A C 0.3277(4) -0.2362(4) 1.5671(3)
H12A H 0.2832 -0.2772 1.6478
C13A C 0.2896(4) -0.2438(4) 1.4742(4)
H13A H 0.2177 -0.2896 1.4921
C14A C 0.3554(3) -0.1850(3) 1.3544(3)
H14A H 0.3289 -0.1929 1.2927
C15A C -0.1514(3) 0.7348(3) 0.5777(4)
C16A C -0.1209(4) 0.6955(4) 0.6925(4)
H15A H -0.1091 0.6136 0.7418
C17A C -0.1083(5) 0.7791(6) 0.7331(5)
H16A H -0.0884 0.7537 0.8098
C18A C -0.1254(5) 0.8987(6) 0.6595(7)
H17A H -0.1164 0.9547 0.6867
C19A C -0.1549(5) 0.9379(5) 0.5483(7)
H18A H -0.1663 1.0200 0.5001
C20A C -0.1683(4) 0.8573(4) 0.5052(4)
H19A H -0.1885 0.8848 0.4283
C21A C -0.2884(3) 0.5250(3) 0.6283(3)
C22A C -0.4135(3) 0.5396(3) 0.5984(3)
H20A H -0.4285 0.5981 0.5225
C23A C -0.5143(4) 0.4666(4) 0.6824(4)
H21A H -0.5979 0.4766 0.6633
C24A C -0.4918(4) 0.3792(4) 0.7941(4)
H22A H -0.5608 0.3313 0.8506
C25A C -0.3685(4) 0.3619(4) 0.8228(4)
H23A H -0.3533 0.3012 0.8977
C26A C -0.2673(4) 0.4351(3) 0.7404(3)
H24A H -0.1840 0.4238 0.7602
loop_
_geom_bond_atom_site_label_1
_geom_bond_atom_site_label_2
_geom_bond_site_symmetry_1
_geom_bond_site_symmetry_2
Cd1 I1 1_555 1_555
I2 Cd1 1_555 1_555
O1 Cd1 1_555 1_555
O2 Cd1 1_555 1_555
P1 O1 1_555 1_555
P2 O2 1_555 1_555
C1 P1 1_555 1_555
H1 C1 1_555 1_555
H2 C1 1_555 1_555
C2 P2 1_555 1_555
H3 C2 1_555 1_555
H4 C2 1_555 1_555
C3 P1 1_555 1_555
C4 C3 1_555 1_555
H5 C4 1_555 1_555
C5 C4 1_555 1_555
H6 C5 1_555 1_555
C6 C5 1_555 1_555
H7 C6 1_555 1_555
C7 C6 1_555 1_555
H8 C7 1_555 1_555
C8 C3 1_555 1_555
H9 C8 1_555 1_555
C9 P1 1_555 1_555
C10 C9 1_555 1_555
H10 C10 1_555 1_555
C11 C10 1_555 1_555
H11 C11 1_555 1_555
C12 C11 1_555 1_555
H12 C12 1_555 1_555
C13 C12 1_555 1_555
H13 C13 1_555 1_555
C14 C9 1_555 1_555
H14 C14 1_555 1_555
C15 P2 1_555 1_555
C16 C15 1_555 1_555
H15 C16 1_555 1_555
C17 C16 1_555 1_555
H16 C17 1_555 1_555
C18 C17 1_555 1_555
H17 C18 1_555 1_555
C19 C18 1_555 1_555
H18 C19 1_555 1_555
C20 C15 1_555 1_555
H19 C20 1_555 1_555
C21 P2 1_555 1_555
C22 C21 1_555 1_555
H20 C22 1_555 1_555
C23 C22 1_555 1_555
H21 C23 1_555 1_555
C24 C23 1_555 1_555
H22 C24 1_555 1_555
C25 C24 1_555 1_555
H23 C25 1_555 1_555
C26 C21 1_555 1_555
H24 C26 1_555 1_555
Cd1A I1A 1_555 1_555
Cd1A_2 O2A 1_555 1_555
I2A Cd1A 1_555 1_555
O1A Cd1A 1_555 1_555
O2A P2A 1_555 1_555
O2A_2 Cd1A 1_555 1_555
P1A O1A 1_555 1_555
P2A C2A 1_555 1_555
C1A C1 1_555 1_555
H1A C1A 1_555 1_555
H2A C1A 1_555 1_555
C2A C2 1_555 1_555
H3A C2A 1_555 1_555
H4A C2A 1_555 1_555
C3A P1A 1_555 1_555
C4A C3A 1_555 1_555
H5A C4A 1_555 1_555
C5A C4A 1_555 1_555
H6A C5A 1_555 1_555
C6A C5A 1_555 1_555
H7A C6A 1_555 1_555
C7A C6A 1_555 1_555
H8A C7A 1_555 1_555
C8A C3A 1_555 1_555
H9A C8A 1_555 1_555
C9A P1A 1_555 1_555
C10A C9A 1_555 1_555
H10A C10A 1_555 1_555
C11A C10A 1_555 1_555
H11A C11A 1_555 1_555
C12A C11A 1_555 1_555
H12A C12A 1_555 1_555
C13A C12A 1_555 1_555
H13A C13A 1_555 1_555
C14A C9A 1_555 1_555
H14A C14A 1_555 1_555
C15A P2A 1_555 1_555
C16A C15A 1_555 1_555
H15A C16A 1_555 1_555
C17A C16A 1_555 1_555
H16A C17A 1_555 1_555
C18A C17A 1_555 1_555
H17A C18A 1_555 1_555
C19A C18A 1_555 1_555
H18A C19A 1_555 1_555
C20A C15A 1_555 1_555
H19A C20A 1_555 1_555
C21A P2A 1_555 1_555
C22A C21A 1_555 1_555
H20A C22A 1_555 1_555
C23A C22A 1_555 1_555
H21A C23A 1_555 1_555
C24A C23A 1_555 1_555
H22A C24A 1_555 1_555
C25A C24A 1_555 1_555
H23A C25A 1_555 1_555
C26A C21A 1_555 1_555
H24A C26A 1_555 1_555
C7 C8 1_555 1_555
C13 C14 1_555 1_555
C19 C20 1_555 1_555
C25 C26 1_555 1_555
P1A C1A 1_555 1_555
C7A C8A 1_555 1_555
C13A C14A 1_555 1_555
C19A C20A 1_555 1_555
C25A C26A 1_555 1_555

#END
