
#######################################################################
#
#                 Cambridge Crystallographic Data Centre
#                                CCDC 
#
#######################################################################
#
# If this CIF has been generated from an entry in the Cambridge 
# Structural Database, then it will include bibliographic, chemical, 
# crystal, experimental, refinement or atomic coordinate data resulting 
# from the CCDC's data processing and validation procedures.
#
#######################################################################

data_LUVBAH
_symmetry_cell_setting           orthorhombic
_symmetry_space_group_name_H-M   'F d d 2'
_symmetry_Int_Tables_number      43
_space_group_name_Hall           'F 2 -2d'
loop_
_symmetry_equiv_pos_site_id
_symmetry_equiv_pos_as_xyz
1 x,y,z
2 -x,-y,z
3 1/4-x,1/4+y,1/4+z
4 3/4+x,3/4-y,1/4+z
5 x,1/2+y,1/2+z
6 -x,1/2-y,1/2+z
7 1/4-x,3/4+y,3/4+z
8 3/4+x,1/4-y,3/4+z
9 1/2+x,y,1/2+z
10 1/2-x,-y,1/2+z
11 3/4-x,1/4+y,3/4+z
12 1/4+x,3/4-y,3/4+z
13 1/2+x,1/2+y,z
14 1/2-x,1/2-y,z
15 3/4-x,3/4+y,1/4+z
16 1/4+x,1/4-y,1/4+z
_cell_length_a                   19.654(4)
_cell_length_b                   15.947(3)
_cell_length_c                   11.160(2)
_cell_angle_alpha                90
_cell_angle_beta                 90
_cell_angle_gamma                90
_cell_volume                     3497.79
loop_
_atom_site_label
_atom_site_type_symbol
_atom_site_fract_x
_atom_site_fract_y
_atom_site_fract_z
Zn1 Zn 0.545731(15) 0.182654(18) 0.49562(3)
O1 O 0.46261(12) 0.09401(15) 0.5199(2)
O2 O 0.39043(16) 0.05390(18) 0.6638(3)
O3 O 0.37710(11) 0.21295(13) 0.9826(2)
O4 O 0.35134(16) 0.10755(19) 0.8617(3)
H1 H 0.3657 0.0876 0.7988
O5 O 0.63720(11) 0.33630(15) 0.7391(3)
H2 H 0.6377 0.3014 0.7930
N1 N 0.51040(12) 0.22337(13) 0.6550(2)
N2 N 0.47714(11) 0.26970(15) 0.8344(2)
C1 C 0.43633(17) 0.1017(2) 0.6216(3)
C2 C 0.46015(14) 0.17185(18) 0.6966(3)
C3 C 0.43987(15) 0.19947(19) 0.8061(3)
C4 C 0.38637(16) 0.17234(19) 0.8891(3)
C5 C 0.51825(12) 0.28195(15) 0.7409(3)
C6 C 0.56427(14) 0.35653(16) 0.7312(3)
H3 H 0.5557 0.3843 0.6553
H4 H 0.5530 0.3957 0.7946
Zn1B Zn 0.704269(15) 0.432654(18) 0.74562(3)
Zn1E Zn 0.454269(15) 0.317346(18) 0.99562(3)
O3E O 0.62290(11) 0.28705(13) 0.4826(2)
O5F O 0.61280(11) 0.08630(15) 0.4891(3)
N2E N 0.52286(11) 0.23030(15) 0.3344(2)
loop_
_geom_bond_atom_site_label_1
_geom_bond_atom_site_label_2
_geom_bond_site_symmetry_1
_geom_bond_site_symmetry_2
Zn1 O1 1_555 1_555
O1 C1 1_555 1_555
O2 C1 1_555 1_555
O3 C4 1_555 1_555
O4 H1 1_555 1_555
O5 H2 1_555 1_555
N1 Zn1 1_555 1_555
N2 C3 1_555 1_555
C1 C2 1_555 1_555
C2 N1 1_555 1_555
C3 C2 1_555 1_555
C4 O4 1_555 1_555
C5 N1 1_555 1_555
C6 O5 1_555 1_555
H3 C6 1_555 1_555
H4 C6 1_555 1_555
Zn1B O5 1_555 1_555
Zn1E O3 1_555 1_555
O3E Zn1 1_555 1_555
O5F Zn1 1_555 1_555
N2E Zn1 1_555 1_555
N2 C5 1_555 1_555
N2 Zn1E 1_555 1_555
C3 C4 1_555 1_555
C5 C6 1_555 1_555

#END
