
#######################################################################
#
#                 Cambridge Crystallographic Data Centre
#                                CCDC 
#
#######################################################################
#
# If this CIF has been generated from an entry in the Cambridge 
# Structural Database, then it will include bibliographic, chemical, 
# crystal, experimental, refinement or atomic coordinate data resulting 
# from the CCDC's data processing and validation procedures.
#
#######################################################################

data_LUVLOD
_symmetry_cell_setting           triclinic
_symmetry_space_group_name_H-M   'P -1'
_symmetry_Int_Tables_number      2
_space_group_name_Hall           '-P 1'
loop_
_symmetry_equiv_pos_site_id
_symmetry_equiv_pos_as_xyz
1 x,y,z
2 -x,-y,-z
_cell_length_a                   7.5666(4)
_cell_length_b                   10.4595(3)
_cell_length_c                   10.5323(5)
_cell_angle_alpha                75.387(2)
_cell_angle_beta                 76.875(2)
_cell_angle_gamma                87.483(2)
_cell_volume                     785.443
loop_
_atom_site_label
_atom_site_type_symbol
_atom_site_fract_x
_atom_site_fract_y
_atom_site_fract_z
N1 N -0.0638(9) 0.8665(6) 0.0620(6)
H1 H -0.0534 0.7820 0.0844
C9 C -0.1132(12) 0.9434(8) -0.0657(8)
H5 H -0.2265 0.9888 -0.0445
H6 H -0.1297 0.8836 -0.1192
C10 C -0.0352(11) 0.9574(8) 0.1446(8)
H7 H -0.0022 0.9068 0.2264
H8 H -0.1469 1.0032 0.1698
C10A C 0.0352(11) 1.0426(8) -0.1446(8)
N1A N 0.0638(9) 1.1335(6) -0.0620(6)
H1A H 0.0534 1.2180 -0.0844
C9A C 0.1132(12) 1.0566(8) 0.0657(8)
H5A H 0.2265 1.0112 0.0445
H6A H 0.1297 1.1164 0.1192
H7A H 0.0022 1.0932 -0.2264
H8A H 0.1469 0.9968 -0.1698
S1 S 0.4471(2) 0.71777(17) -0.79630(17)
Cu1 Cu 0.0000 0.5000 0.0000
Cu2 Cu 0.0000 0.0000 -0.5000
O1 O 0.0937(7) 0.4690(5) -0.1799(5)
O3 O 0.2047(9) 0.6710(5) -0.2781(5)
O5 O 0.0732(8) 0.1639(5) -0.4725(5)
O6 O 0.2112(9) 0.2180(5) -0.6888(5)
O7 O 0.6057(8) 0.7689(6) -0.7678(6)
O8 O 0.4944(7) 0.6571(5) -0.9096(5)
O9 O 0.3064(9) 0.8133(6) -0.8100(6)
O10 O 0.1819(7) 0.3718(5) 0.0626(5)
O11 O 0.2008(10) -0.0864(6) -0.4263(7)
C1 C 0.1701(9) 0.5572(7) -0.2815(7)
C2 C 0.2182(9) 0.5226(7) -0.4174(6)
C3 C 0.1696(9) 0.4019(6) -0.4315(7)
H2 H 0.1057 0.3397 -0.3576
C4 C 0.2173(10) 0.3741(6) -0.5584(7)
C5 C 0.1648(10) 0.2430(7) -0.5765(7)
C6 C 0.3095(9) 0.4681(7) -0.6692(6)
H3 H 0.3424 0.4494 -0.7532
C7 C 0.3519(9) 0.5895(7) -0.6536(6)
C8 C 0.3095(9) 0.6171(7) -0.5288(7)
H4 H 0.3418 0.6983 -0.5193
O1A O -0.0937(7) 0.5310(5) 0.1799(5)
C1A C -0.1701(9) 0.4428(7) 0.2815(7)
O3A O -0.2047(9) 0.3290(5) 0.2781(5)
C2A C -0.2182(9) 0.4774(7) 0.4174(6)
C3A C -0.1696(9) 0.5981(6) 0.4315(7)
H2A H -0.1057 0.6603 0.3576
C4A C -0.2173(10) 0.6259(6) 0.5584(7)
C5A C -0.1648(10) 0.7570(7) 0.5765(7)
O5A O -0.0732(8) 0.8361(5) 0.4725(5)
Cu2A Cu 0.0000 1.0000 0.5000
O6A O -0.2112(9) 0.7820(5) 0.6888(5)
C6A C -0.3095(9) 0.5319(7) 0.6692(6)
H3A H -0.3424 0.5506 0.7532
C7A C -0.3519(9) 0.4105(7) 0.6536(6)
S1A S -0.4471(2) 0.28223(17) 0.79630(17)
O7A O -0.6057(8) 0.2311(6) 0.7678(6)
O8A O -0.4944(7) 0.3429(5) 0.9096(5)
O9A O -0.3064(9) 0.1867(6) 0.8100(6)
C8A C -0.3095(9) 0.3829(7) 0.5288(7)
H4A H -0.3418 0.3017 0.5193
O10A O -0.1819(7) 0.6282(5) -0.0626(5)
O5A_2 O -0.0732(8) -0.1639(5) -0.5275(5)
O11A O -0.2008(10) 0.0864(6) -0.5737(7)
O2 O 0.1970(8) 0.6968(6) -0.0343(5)
O4 O 0.4614(11) -0.0236(10) -0.3072(11)
loop_
_geom_bond_atom_site_label_1
_geom_bond_atom_site_label_2
_geom_bond_site_symmetry_1
_geom_bond_site_symmetry_2
N1 H1 1_555 1_555
S1 O7 1_555 1_555
Cu1 O1 1_555 1_555
Cu2 O5 1_555 1_555
O1 C1 1_555 1_555
O3 C1 1_555 1_555
O5 C5 1_555 1_555
O6 C5 1_555 1_555
O8 S1 1_555 1_555
O9 S1 1_555 1_555
O10 Cu1 1_555 1_555
O11 Cu2 1_555 1_555
C1 C2 1_555 1_555
C2 C3 1_555 1_555
C3 H2 1_555 1_555
C4 C3 1_555 1_555
C5 C4 1_555 1_555
C6 C4 1_555 1_555
H3 C6 1_555 1_555
C7 S1 1_555 1_555
C8 C2 1_555 1_555
H4 C8 1_555 1_555
C9 N1 1_555 1_555
H5 C9 1_555 1_555
H6 C9 1_555 1_555
C10 N1 1_555 1_555
H7 C10 1_555 1_555
H8 C10 1_555 1_555
C10A C9 1_555 1_555
N1A C10A 1_555 1_555
H1A N1A 1_555 1_555
C9A C10 1_555 1_555
H5A C9A 1_555 1_555
H6A C9A 1_555 1_555
H7A C10A 1_555 1_555
H8A C10A 1_555 1_555
O1A Cu1 1_555 1_555
C1A O1A 1_555 1_555
O3A C1A 1_555 1_555
C2A C1A 1_555 1_555
C3A C2A 1_555 1_555
H2A C3A 1_555 1_555
C4A C3A 1_555 1_555
C5A C4A 1_555 1_555
O5A C5A 1_555 1_555
Cu2A O5A 1_555 1_555
O6A C5A 1_555 1_555
C6A C4A 1_555 1_555
H3A C6A 1_555 1_555
C7A C6A 1_555 1_555
S1A C7A 1_555 1_555
O7A S1A 1_555 1_555
O8A S1A 1_555 1_555
O9A S1A 1_555 1_555
C8A C2A 1_555 1_555
H4A C8A 1_555 1_555
O10A Cu1 1_555 1_555
O5A_2 Cu2 1_555 1_555
O11A Cu2 1_555 1_555
C6 C7 1_555 1_555
C7 C8 1_555 1_555
N1A C9A 1_555 1_555
C7A C8A 1_555 1_555

#END
