
#######################################################################
#
#                 Cambridge Crystallographic Data Centre
#                                CCDC 
#
#######################################################################
#
# If this CIF has been generated from an entry in the Cambridge 
# Structural Database, then it will include bibliographic, chemical, 
# crystal, experimental, refinement or atomic coordinate data resulting 
# from the CCDC's data processing and validation procedures.
#
#######################################################################

data_LUWJEU
_symmetry_cell_setting           tetragonal
_symmetry_space_group_name_H-M   'P 4/n c c'
_symmetry_Int_Tables_number      130
_space_group_name_Hall           '-P 4a 2ac'
loop_
_symmetry_equiv_pos_site_id
_symmetry_equiv_pos_as_xyz
1 x,y,z
2 1/2-x,1/2-y,z
3 1/2-y,x,z
4 y,1/2-x,z
5 -x,1/2+y,1/2-z
6 1/2+x,-y,1/2-z
7 1/2+y,1/2+x,1/2-z
8 -y,-x,1/2-z
9 -x,-y,-z
10 1/2+x,1/2+y,-z
11 1/2+y,-x,-z
12 -y,1/2+x,-z
13 x,1/2-y,1/2+z
14 1/2-x,y,1/2+z
15 1/2-y,1/2-x,1/2+z
16 y,x,1/2+z
_cell_length_a                   13.402(4)
_cell_length_b                   13.402(4)
_cell_length_c                   22.289(6)
_cell_angle_alpha                90
_cell_angle_beta                 90
_cell_angle_gamma                90
_cell_volume                     4003.41
loop_
_atom_site_label
_atom_site_type_symbol
_atom_site_fract_x
_atom_site_fract_y
_atom_site_fract_z
Mo1 Mo 0.2500 0.2500 0.22803(2)
Mo2 Mo 0.2500 0.2500 0.13212(2)
Cl1 Cl 0.2500 0.2500 0.35259(3)
S1 S 0.09233(3) 0.15013(3) 0.23631(2)
Na1 Na 0.2500 0.2500 -0.02512(6)
O1 O 0.12634(9) 0.13697(9) 0.01698(5)
N1 N 0.12242(10) 0.15730(10) 0.11965(5)
C1 C 0.06425(11) 0.12566(11) 0.16451(7)
C2 C -0.02554(13) 0.06833(13) 0.14285(7)
H1 H -0.0882 0.1039 0.1527
H2 H -0.0277 0.0007 0.1607
C3 C -0.00939(12) 0.06334(13) 0.07532(7)
H3 H -0.0019 -0.0067 0.0619
H4 H -0.0661 0.0940 0.0536
C4 C 0.08556(12) 0.12149(12) 0.06468(7)
S1A S 0.40767(3) 0.34987(3) 0.23631(2)
O1A O 0.37366(9) 0.36303(9) 0.01698(5)
N1A N 0.37758(10) 0.34270(10) 0.11965(5)
C1A C 0.43575(11) 0.37434(11) 0.16451(7)
C2A C 0.52554(13) 0.43167(13) 0.14285(7)
H1A H 0.5882 0.3961 0.1527
H2A H 0.5277 0.4993 0.1607
C3A C 0.50939(12) 0.43666(13) 0.07532(7)
H3A H 0.5019 0.5067 0.0619
H4A H 0.5661 0.4060 0.0536
C4A C 0.41444(12) 0.37851(12) 0.06468(7)
S1B S 0.34987(3) 0.09233(3) 0.23631(2)
O1B O 0.36303(9) 0.12634(9) 0.01698(5)
N1B N 0.34270(10) 0.12242(10) 0.11965(5)
C1B C 0.37434(11) 0.06425(11) 0.16451(7)
C2B C 0.43167(13) -0.02554(13) 0.14285(7)
H1B H 0.3961 -0.0882 0.1527
H2B H 0.4993 -0.0277 0.1607
C3B C 0.43666(13) -0.00939(12) 0.07532(7)
H3B H 0.5067 -0.0019 0.0619
H4B H 0.4060 -0.0661 0.0536
C4B C 0.37851(12) 0.08556(12) 0.06468(7)
S1C S 0.15013(3) 0.40767(3) 0.23631(2)
O1C O 0.13697(9) 0.37366(9) 0.01698(5)
N1C N 0.15730(10) 0.37758(10) 0.11965(5)
C1C C 0.12566(11) 0.43575(11) 0.16451(7)
C2C C 0.06833(13) 0.52554(13) 0.14285(7)
H1C H 0.1039 0.5882 0.1527
H2C H 0.0007 0.5277 0.1607
C3C C 0.06334(13) 0.50939(12) 0.07532(7)
H3C H -0.0067 0.5019 0.0619
H4C H 0.0940 0.5661 0.0536
C4C C 0.12149(12) 0.41444(12) 0.06468(7)
Cl1L Cl 0.2500 0.2500 -0.14741(3)
Na1L Na 0.2500 0.2500 0.47488(6)
N2 N -0.2847(10) 0.0281(9) 0.1350(5)
C5 C -0.3177(6) 0.0877(6) 0.1765(4)
H5 H -0.3022 0.0833 0.2180
C6 C -0.3862(4) 0.1667(4) 0.1475(3)
H6 H -0.4391 0.1943 0.1706
C7 C -0.3735(5) 0.1972(5) 0.0913(3)
H7 H -0.4013 0.2585 0.0780
C8 C -0.3210(5) 0.1403(4) 0.0544(2)
H8 H -0.3140 0.1614 0.0139
C9 C -0.2762(5) 0.0527(8) 0.0711(5)
H9 H -0.2421 0.0110 0.0434
N3? N -0.2980(8) 0.0631(10) 0.0747(6)
C10? C -0.2841(13) 0.0229(12) 0.1261(8)
H10? H -0.2419 -0.0321 0.1352
C11? C -0.3467(6) 0.0793(6) 0.1681(4)
H11? H -0.3774 0.0439 0.2000
C12? C -0.3632(7) 0.1780(8) 0.1642(4)
H12? H -0.3600 0.2217 0.1976
C13? C -0.3844(7) 0.2083(7) 0.1091(4)
H13? H -0.4216 0.2673 0.1016
C14? C -0.3521(8) 0.1542(8) 0.0671(5)
H14? H -0.3648 0.1757 0.0272
loop_
_geom_bond_atom_site_label_1
_geom_bond_atom_site_label_2
_geom_bond_site_symmetry_1
_geom_bond_site_symmetry_2
Mo1 Mo2 1_555 1_555
Mo2 N1 1_555 1_555
Cl1 Mo1 1_555 1_555
S1 Mo1 1_555 1_555
Na1 O1 1_555 1_555
O1 C4 1_555 1_555
N1 C1 1_555 1_555
C1 S1 1_555 1_555
C2 C1 1_555 1_555
H1 C2 1_555 1_555
H2 C2 1_555 1_555
C3 C2 1_555 1_555
H3 C3 1_555 1_555
H4 C3 1_555 1_555
C4 N1 1_555 1_555
N2 C5 1_555 1_555
C5 H5 1_555 1_555
C6 C5 1_555 1_555
H6 C6 1_555 1_555
C7 C6 1_555 1_555
H7 C7 1_555 1_555
C8 C7 1_555 1_555
H8 C8 1_555 1_555
C9 N2 1_555 1_555
H9 C9 1_555 1_555
S1A Mo1 1_555 1_555
O1A Na1 1_555 1_555
N1A Mo2 1_555 1_555
C1A S1A 1_555 1_555
C2A C1A 1_555 1_555
H1A C2A 1_555 1_555
H2A C2A 1_555 1_555
C3A C2A 1_555 1_555
H3A C3A 1_555 1_555
H4A C3A 1_555 1_555
C4A O1A 1_555 1_555
S1B Mo1 1_555 1_555
O1B Na1 1_555 1_555
N1B Mo2 1_555 1_555
C1B S1B 1_555 1_555
C2B C1B 1_555 1_555
H1B C2B 1_555 1_555
H2B C2B 1_555 1_555
C3B C2B 1_555 1_555
H3B C3B 1_555 1_555
H4B C3B 1_555 1_555
C4B O1B 1_555 1_555
S1C Mo1 1_555 1_555
O1C Na1 1_555 1_555
N1C Mo2 1_555 1_555
C1C S1C 1_555 1_555
C2C C1C 1_555 1_555
H1C C2C 1_555 1_555
H2C C2C 1_555 1_555
C3C C2C 1_555 1_555
H3C C3C 1_555 1_555
H4C C3C 1_555 1_555
C4C O1C 1_555 1_555
Cl1L Na1 1_555 1_555
Na1L Cl1 1_555 1_555
C3 C4 1_555 1_555
C8 C9 1_555 1_555
N1A C1A 1_555 1_555
N1A C4A 1_555 1_555
C3A C4A 1_555 1_555
N1B C1B 1_555 1_555
N1B C4B 1_555 1_555
C3B C4B 1_555 1_555
N1C C1C 1_555 1_555
N1C C4C 1_555 1_555
C3C C4C 1_555 1_555

#END
