
#######################################################################
#
#                 Cambridge Crystallographic Data Centre
#                                CCDC 
#
#######################################################################
#
# If this CIF has been generated from an entry in the Cambridge 
# Structural Database, then it will include bibliographic, chemical, 
# crystal, experimental, refinement or atomic coordinate data resulting 
# from the CCDC's data processing and validation procedures.
#
#######################################################################

data_LUWSEC
_symmetry_cell_setting           monoclinic
_symmetry_space_group_name_H-M   'C 2/m'
_symmetry_Int_Tables_number      12
_space_group_name_Hall           '-C 2y'
loop_
_symmetry_equiv_pos_site_id
_symmetry_equiv_pos_as_xyz
1 x,y,z
2 -x,y,-z
3 1/2+x,1/2+y,z
4 1/2-x,1/2+y,-z
5 -x,-y,-z
6 x,-y,z
7 1/2-x,1/2-y,-z
8 1/2+x,1/2-y,z
_cell_length_a                   16.825(3)
_cell_length_b                   20.753(4)
_cell_length_c                   8.5773(15)
_cell_angle_alpha                90
_cell_angle_beta                 95.607(3)
_cell_angle_gamma                90
_cell_volume                     2980.6
loop_
_atom_site_label
_atom_site_type_symbol
_atom_site_fract_x
_atom_site_fract_y
_atom_site_fract_z
Rh1 Rh 0.728453(16) 0.698423(12) 0.44727(3)
F1 F 0.56695(15) 0.69638(14) 0.8678(3)
F2 F 0.67906(16) 0.66115(13) 0.9732(2)
F3 F 0.64862(18) 0.76059(14) 0.9985(2)
F4 F 0.9614(2) 0.6698(2) 0.8532(3)
F5 F 0.96537(19) 0.60644(15) 0.6564(4)
F6 F 1.02168(18) 0.69795(16) 0.6582(4)
O1 O 0.67719(16) 0.68231(12) 0.6504(2)
O2 O 0.71621(15) 0.78031(12) 0.7464(2)
O3 O 0.83203(15) 0.66010(12) 0.5493(2)
O4 O 0.87323(15) 0.75690(12) 0.6488(2)
N1 N 0.68811(18) 0.60582(13) 0.3476(3)
C1 C 0.6832(2) 0.72643(18) 0.7512(4)
C2 C 0.6442(2) 0.71134(19) 0.9017(4)
C3 C 0.8802(2) 0.69740(17) 0.6253(4)
C4 C 0.9570(2) 0.6667(2) 0.7021(5)
C5 C 0.66264(19) 0.55864(16) 0.2965(3)
C6 C 0.6290(3) 0.5000 0.2329(6)
C7 C 0.5646(3) 0.5000 0.1177(5)
C8 C 0.5309(2) 0.55973(15) 0.0567(3)
H1 H 0.5522 0.5995 0.0959
Rh1F Rh 0.771547(16) 0.801577(12) 0.55273(3)
Rh1E Rh 0.728453(16) 0.301577(12) 0.44727(3)
Rh1A Rh 0.271547(16) 0.698423(12) -0.44727(3)
Rh1D Rh 0.271547(16) 0.301577(12) -0.44727(3)
Rh1C Rh 0.771547(16) 0.198423(12) 0.55273(3)
Rh1G Rh 0.228453(16) 0.801577(12) -0.55273(3)
F1F F 0.93305(15) 0.80362(14) 0.1322(3)
F1E F 0.56695(15) 0.30362(14) 0.8678(3)
F1C F 0.93305(15) 0.19638(14) 0.1322(3)
F2F F 0.82094(16) 0.83885(13) 0.0268(2)
F2E F 0.67906(16) 0.33885(13) 0.9732(2)
F2C F 0.82094(16) 0.16115(13) 0.0268(2)
F3F F 0.85138(18) 0.73941(14) 0.0015(2)
F3E F 0.64862(18) 0.23941(14) 0.9985(2)
F3C F 0.85138(18) 0.26059(14) 0.0015(2)
F4F F 0.5386(2) 0.8302(2) 0.1468(3)
F4E F 0.9614(2) 0.3302(2) 0.8532(3)
F4C F 0.5386(2) 0.1698(2) 0.1468(3)
F5F F 0.53463(19) 0.89356(15) 0.3436(4)
F5E F 0.96537(19) 0.39356(15) 0.6564(4)
F5C F 0.53463(19) 0.10644(15) 0.3436(4)
F6F F 0.47832(18) 0.80205(16) 0.3418(4)
F6E F 1.02168(18) 0.30205(16) 0.6582(4)
F6C F 0.47832(18) 0.19795(16) 0.3418(4)
O1F O 0.82281(16) 0.81769(12) 0.3496(2)
O1E O 0.67719(16) 0.31769(12) 0.6504(2)
O1C O 0.82281(16) 0.18231(12) 0.3496(2)
O1A O 0.32281(16) 0.68231(12) -0.6504(2)
O2F O 0.78379(15) 0.71969(12) 0.2536(2)
O2E O 0.71621(15) 0.21969(12) 0.7464(2)
O2C O 0.78379(15) 0.28031(12) 0.2536(2)
O2G O 0.21621(15) 0.71969(12) -0.2536(2)
O3F O 0.66797(15) 0.83990(12) 0.4507(2)
O3E O 0.83203(15) 0.33990(12) 0.5493(2)
O3C O 0.66797(15) 0.16010(12) 0.4507(2)
O3A O 0.16797(15) 0.66010(12) -0.5493(2)
O4F O 0.62677(15) 0.74310(12) 0.3512(2)
O4E O 0.87323(15) 0.24310(12) 0.6488(2)
O4C O 0.62677(15) 0.25690(12) 0.3512(2)
O4G O 0.37323(15) 0.74310(12) -0.3512(2)
N1E N 0.68811(18) 0.39418(13) 0.3476(3)
N1A N 0.31189(18) 0.60582(13) -0.3476(3)
N1D N 0.31189(18) 0.39418(13) -0.3476(3)
N1F N 0.81189(18) 0.89418(13) 0.6524(3)
C1F C 0.8168(2) 0.77357(18) 0.2488(4)
C1E C 0.6832(2) 0.27357(18) 0.7512(4)
C1C C 0.8168(2) 0.22643(18) 0.2488(4)
C2F C 0.8558(2) 0.78866(19) 0.0983(4)
C2E C 0.6442(2) 0.28866(19) 0.9017(4)
C2C C 0.8558(2) 0.21134(19) 0.0983(4)
C3F C 0.6198(2) 0.80260(17) 0.3747(4)
C3E C 0.8802(2) 0.30260(17) 0.6253(4)
C3C C 0.6198(2) 0.19740(17) 0.3747(4)
C4F C 0.5430(2) 0.8333(2) 0.2979(5)
C4E C 0.9570(2) 0.3333(2) 0.7021(5)
C4C C 0.5430(2) 0.1667(2) 0.2979(5)
C5E C 0.66264(19) 0.44136(16) 0.2965(3)
C5A C 0.33736(19) 0.55864(16) -0.2965(3)
C5D C 0.33736(19) 0.44136(16) -0.2965(3)
C6A C 0.3710(3) 0.5000 -0.2329(6)
C7A C 0.4354(3) 0.5000 -0.1177(5)
C8A C 0.4691(2) 0.55973(15) -0.0567(3)
C8D C 0.4691(2) 0.44027(15) -0.0567(3)
C8E C 0.5309(2) 0.44027(15) 0.0567(3)
H1D H 0.4478 0.4005 -0.0959
H1E H 0.5522 0.4005 0.0959
H1A H 0.4478 0.5995 -0.0959
C9 C 0.7848(12) 0.5000 0.682(2)
C10 C 0.8084(8) 0.5000 0.868(2)
C11 C 0.8161(4) 0.5564(4) 0.9609(13)
C12 C 0.8432(3) 0.5609(3) 1.1156(11)
C13 C 0.8537(6) 0.5000 1.207(2)
C14 C 0.8721(7) 0.5000 1.3540(19)
H2 H 0.8006 0.5957 0.9098
H3 H 0.8550 0.6015 1.1633
C11E C 0.8161(4) 0.4436(4) 0.9609(13)
C12E C 0.8432(3) 0.4391(3) 1.1156(11)
H2E H 0.8006 0.4043 0.9098
H3E H 0.8550 0.3985 1.1633
C15? C 0.5000 0.6404(4) 0.5000
C16? C 0.5000 0.5683(4) 0.5000
C17? C 0.5334(5) 0.5575(4) 0.5513(10)
C18? C 0.5579(3) 0.5340(2) 0.5952(6)
C19? C 0.5678(7) 0.5000 0.6023(14)
C20? C 0.6461(10) 0.5000 0.712(2)
loop_
_geom_bond_atom_site_label_1
_geom_bond_atom_site_label_2
_geom_bond_site_symmetry_1
_geom_bond_site_symmetry_2
Rh1 O1 1_555 1_555
F1 C2 1_555 1_555
F2 C2 1_555 1_555
F3 C2 1_555 1_555
F4 C4 1_555 1_555
F5 C4 1_555 1_555
F6 C4 1_555 1_555
O1 C1 1_555 1_555
O2 C1 1_555 1_555
O3 Rh1 1_555 1_555
O4 C3 1_555 1_555
N1 Rh1 1_555 1_555
C1 C2 1_555 1_555
C3 O3 1_555 1_555
C4 C3 1_555 1_555
C5 N1 1_555 1_555
C6 C5 1_555 1_555
C7 C6 1_555 1_555
C8 C7 1_555 1_555
H1 C8 1_555 1_555
C9 C10 1_555 1_555
C10 C11 1_555 1_555
C11 C12 1_555 1_555
C12 C13 1_555 1_555
C13 C14 1_555 1_555
H2 C11 1_555 1_555
H3 C12 1_555 1_555
Rh1F Rh1 1_555 1_555
Rh1E Rh1C 1_555 1_555
Rh1A Rh1G 1_555 1_555
Rh1D N1D 1_555 1_555
Rh1C O1C 1_555 1_555
F1F C2F 1_555 1_555
F1E C2E 1_555 1_555
F1C C2C 1_555 1_555
F2F C2F 1_555 1_555
F2E C2E 1_555 1_555
F2C C2C 1_555 1_555
F3F C2F 1_555 1_555
F3E C2E 1_555 1_555
F3C C2C 1_555 1_555
F4F C4F 1_555 1_555
F4E C4E 1_555 1_555
F4C C4C 1_555 1_555
F5F C4F 1_555 1_555
F5E C4E 1_555 1_555
F5C C4C 1_555 1_555
F6F C4F 1_555 1_555
F6E C4E 1_555 1_555
F6C C4C 1_555 1_555
O1F Rh1F 1_555 1_555
O1E Rh1E 1_555 1_555
O1C C1C 1_555 1_555
O1A Rh1A 1_555 1_555
O2F Rh1 1_555 1_555
O2E Rh1C 1_555 1_555
O2C Rh1E 1_555 1_555
O2G Rh1A 1_555 1_555
O3F Rh1F 1_555 1_555
O3E Rh1E 1_555 1_555
O3C Rh1C 1_555 1_555
O3A Rh1A 1_555 1_555
O4F Rh1 1_555 1_555
O4E Rh1C 1_555 1_555
O4C Rh1E 1_555 1_555
O4G Rh1A 1_555 1_555
N1E Rh1E 1_555 1_555
N1A Rh1A 1_555 1_555
N1D C5D 1_555 1_555
N1F Rh1F 1_555 1_555
C1F O1F 1_555 1_555
C1E O1E 1_555 1_555
C1C O2C 1_555 1_555
C2F C1F 1_555 1_555
C2E C1E 1_555 1_555
C2C C1C 1_555 1_555
C3F O3F 1_555 1_555
C3E O3E 1_555 1_555
C3C O3C 1_555 1_555
C4F C3F 1_555 1_555
C4E C3E 1_555 1_555
C4C C3C 1_555 1_555
C5E C6 1_555 1_555
C5A N1A 1_555 1_555
C5D C6A 1_555 1_555
C6A C5A 1_555 1_555
C7A C6A 1_555 1_555
C8A C8 1_555 1_555
C8D C7A 1_555 1_555
C8E C7 1_555 1_555
H1D C8D 1_555 1_555
H1E C8E 1_555 1_555
H1A C8A 1_555 1_555
C11E C10 1_555 1_555
C12E C13 1_555 1_555
H2E C11E 1_555 1_555
H3E C12E 1_555 1_555
O2 Rh1F 1_555 1_555
O4 Rh1F 1_555 1_555
O2F C1F 1_555 1_555
O2E C1E 1_555 1_555
O4F C3F 1_555 1_555
O4E C3E 1_555 1_555
O4C C3C 1_555 1_555
N1E C5E 1_555 1_555
C7A C8A 1_555 1_555
C8D C8E 1_555 1_555
C11E C12E 1_555 1_555

#END
