
#######################################################################
#
#                 Cambridge Crystallographic Data Centre
#                                CCDC 
#
#######################################################################
#
# If this CIF has been generated from an entry in the Cambridge 
# Structural Database, then it will include bibliographic, chemical, 
# crystal, experimental, refinement or atomic coordinate data resulting 
# from the CCDC's data processing and validation procedures.
#
#######################################################################

data_LUWSAY
_symmetry_cell_setting           monoclinic
_symmetry_space_group_name_H-M   'P 21/c'
_symmetry_Int_Tables_number      14
_space_group_name_Hall           '-P 2ybc'
loop_
_symmetry_equiv_pos_site_id
_symmetry_equiv_pos_as_xyz
1 x,y,z
2 -x,1/2+y,1/2-z
3 -x,-y,-z
4 x,1/2-y,1/2+z
_cell_length_a                   8.734(4)
_cell_length_b                   20.410(8)
_cell_length_c                   17.895(8)
_cell_angle_alpha                90
_cell_angle_beta                 96.128(6)
_cell_angle_gamma                90
_cell_volume                     3171.75
loop_
_atom_site_label
_atom_site_type_symbol
_atom_site_fract_x
_atom_site_fract_y
_atom_site_fract_z
Rh1 Rh 0.02647(7) 0.19996(3) 0.28338(3)
Rh2 Rh -0.07425(7) 0.30550(3) 0.24013(3)
F1 F -0.1726(6) 0.1061(2) 0.0581(2)
F2 F -0.1894(8) 0.1986(2) 0.0061(3)
F3 F -0.3711(7) 0.1661(4) 0.0655(4)
F4 F 0.4735(5) 0.2395(2) 0.1703(3)
F5 F 0.3411(6) 0.3027(2) 0.0913(2)
F6 F 0.4457(5) 0.3414(2) 0.1963(2)
F7 F 0.1143(6) 0.3979(2) 0.4694(2)
F8 F 0.1493(8) 0.3033(2) 0.5178(3)
F9 F 0.3210(6) 0.3469(3) 0.4546(3)
F10 F -0.5204(5) 0.2658(2) 0.3532(3)
F11 F -0.3912(5) 0.2009(2) 0.4314(2)
F12 F -0.4945(5) 0.1639(2) 0.3251(2)
F13 F 0.3618(5) 0.11635(18) 0.4587(2)
F14 F 0.6007(4) 0.11570(18) 0.5646(2)
O1 O -0.0754(5) 0.1598(2) 0.1856(2)
O2 O -0.1648(6) 0.2595(2) 0.1434(2)
O3 O 0.2181(6) 0.2196(2) 0.2320(3)
O4 O 0.1269(6) 0.3204(2) 0.1945(3)
O5 O 0.1220(6) 0.2464(2) 0.3786(2)
O6 O 0.0208(6) 0.3458(2) 0.3394(2)
O7 O -0.1729(6) 0.1848(2) 0.3306(3)
O8 O -0.2690(6) 0.2854(2) 0.2903(3)
N1 N 0.1259(7) 0.1063(2) 0.3244(3)
N2 N 0.1623(7) -0.0991(2) 0.3030(3)
C1 C -0.1462(9) 0.1985(3) 0.1388(4)
C2 C -0.2213(10) 0.1667(3) 0.0666(4)
C3 C 0.2258(9) 0.2749(3) 0.2005(4)
C4 C 0.3756(9) 0.2893(4) 0.1642(4)
C5 C 0.0955(8) 0.3076(3) 0.3842(4)
C6 C 0.1728(10) 0.3393(3) 0.4579(4)
C7 C -0.2738(8) 0.2303(3) 0.3226(4)
C8 C -0.4226(9) 0.2157(4) 0.3584(4)
C9 C 0.1858(8) 0.0613(3) 0.3516(4)
C10 C 0.2603(8) 0.0024(3) 0.3798(4)
C11 C 0.2087(8) -0.0554(3) 0.3382(4)
C12 C 0.3729(8) 0.0010(3) 0.4400(4)
C13 C 0.4307(8) 0.0596(3) 0.4794(4)
C14 C 0.5499(8) 0.0589(3) 0.5332(4)
Rh1B Rh 0.97353(7) -0.19996(3) 0.71662(3)
Rh1A Rh -0.02647(7) -0.30004(3) 0.21662(3)
Rh2A Rh 0.07425(7) -0.19450(3) 0.25987(3)
Rh2C Rh 0.92575(7) 0.19450(3) 0.74013(3)
Rh2B Rh 1.07425(7) -0.30550(3) 0.75987(3)
F1B F 1.1726(6) -0.1061(2) 0.9419(2)
F2B F 1.1894(8) -0.1986(2) 0.9939(3)
F3B F 1.3711(7) -0.1661(4) 0.9345(4)
F4B F 0.5265(5) -0.2395(2) 0.8297(3)
F5B F 0.6589(6) -0.3027(2) 0.9087(2)
F6B F 0.5543(5) -0.3414(2) 0.8037(2)
F7B F 0.8857(6) -0.3979(2) 0.5306(2)
F8B F 0.8507(8) -0.3033(2) 0.4822(3)
F9B F 0.6790(6) -0.3469(3) 0.5454(3)
F10B F 1.5204(5) -0.2658(2) 0.6468(3)
F11B F 1.3912(5) -0.2009(2) 0.5686(2)
F12B F 1.4945(5) -0.1639(2) 0.6749(2)
F13B F 0.6382(5) -0.11635(18) 0.5413(2)
F14B F 0.3993(4) -0.11570(18) 0.4354(2)
O1B O 1.0754(5) -0.1598(2) 0.8144(2)
O2B O 1.1648(6) -0.2595(2) 0.8566(2)
O2A O 0.1648(6) -0.2405(2) 0.3566(2)
O3B O 0.7819(6) -0.2196(2) 0.7680(3)
O4B O 0.8731(6) -0.3204(2) 0.8055(3)
O4A O -0.1269(6) -0.1796(2) 0.3055(3)
O5B O 0.8780(6) -0.2464(2) 0.6214(2)
O6B O 0.9792(6) -0.3458(2) 0.6606(2)
O6A O -0.0208(6) -0.1542(2) 0.1606(2)
O7B O 1.1729(6) -0.1848(2) 0.6694(3)
O8B O 1.2690(6) -0.2854(2) 0.7097(3)
O8A O 0.2690(6) -0.2146(2) 0.2097(3)
N1B N 0.8741(7) -0.1063(2) 0.6756(3)
N2B N 0.8377(7) 0.0991(2) 0.6970(3)
N2A N -0.1623(7) 0.4009(2) 0.1970(3)
C1B C 1.1462(9) -0.1985(3) 0.8612(4)
C2B C 1.2213(10) -0.1667(3) 0.9334(4)
C3B C 0.7742(9) -0.2749(3) 0.7995(4)
C4B C 0.6244(9) -0.2893(4) 0.8358(4)
C5B C 0.9045(8) -0.3076(3) 0.6158(4)
C6B C 0.8272(10) -0.3393(3) 0.5421(4)
C7B C 1.2738(8) -0.2303(3) 0.6774(4)
C8B C 1.4226(9) -0.2157(4) 0.6416(4)
C9B C 0.8142(8) -0.0613(3) 0.6484(4)
C10B C 0.7397(8) -0.0024(3) 0.6202(4)
C11B C 0.7913(8) 0.0554(3) 0.6618(4)
C12B C 0.6271(8) -0.0010(3) 0.5600(4)
C13B C 0.5693(8) -0.0596(3) 0.5206(4)
C14B C 0.4501(8) -0.0589(3) 0.4668(4)
Cl1 Cl -0.2516(4) 0.55782(16) 0.34581(17)
Cl2 Cl -0.3743(5) 0.43203(16) 0.3814(2)
C19 C -0.2192(14) 0.4837(5) 0.3933(7)
H6 H -0.1965 0.4925 0.4454
H7 H -0.1336 0.4625 0.3751
Cl3 Cl 0.5835(3) 0.00699(12) 0.29967(14)
Cl4 Cl 0.8291(3) -0.02178(15) 0.20735(19)
C20 C 0.6869(12) 0.0337(4) 0.2259(6)
H8 H 0.7338 0.0746 0.2394
H9 H 0.6171 0.0389 0.1819
C15 C -0.0174(9) 0.3559(3) 0.0094(4)
C16 C -0.0095(9) 0.4312(3) 0.0048(4)
C17 C 0.0878(9) 0.4662(3) 0.0579(4)
C18 C -0.0966(9) 0.4654(3) -0.0523(4)
H1 H 0.0585 0.3372 -0.0185
H2 H 0.0011 0.3425 0.0604
H3 H -0.1165 0.3414 -0.0110
H4 H 0.1474 0.4438 0.0975
H5 H -0.1637 0.4418 -0.0880
C15B C 0.0174(9) 0.6441(3) -0.0094(4)
C16B C 0.0095(9) 0.5688(3) -0.0048(4)
C17B C -0.0878(9) 0.5338(3) -0.0579(4)
C18B C 0.0966(9) 0.5346(3) 0.0523(4)
H1B H -0.0585 0.6628 0.0185
H2B H -0.0011 0.6575 -0.0604
H3B H 0.1165 0.6586 0.0110
H4B H -0.1474 0.5562 -0.0975
H5B H 0.1637 0.5582 0.0880
loop_
_geom_bond_atom_site_label_1
_geom_bond_atom_site_label_2
_geom_bond_site_symmetry_1
_geom_bond_site_symmetry_2
Rh1 Rh2 1_555 1_555
Rh2 O2 1_555 1_555
Cl1 C19 1_555 1_555
Cl2 C19 1_555 1_555
Cl3 C20 1_555 1_555
Cl4 C20 1_555 1_555
F1 C2 1_555 1_555
F2 C2 1_555 1_555
F3 C2 1_555 1_555
F4 C4 1_555 1_555
F5 C4 1_555 1_555
F6 C4 1_555 1_555
F7 C6 1_555 1_555
F8 C6 1_555 1_555
F9 C6 1_555 1_555
F10 C8 1_555 1_555
F11 C8 1_555 1_555
F12 C8 1_555 1_555
F13 C13 1_555 1_555
F14 C14 1_555 1_555
O1 Rh1 1_555 1_555
O2 C1 1_555 1_555
O3 Rh1 1_555 1_555
O4 Rh2 1_555 1_555
O5 Rh1 1_555 1_555
O6 Rh2 1_555 1_555
O7 Rh1 1_555 1_555
O8 Rh2 1_555 1_555
N1 Rh1 1_555 1_555
N2 C11 1_555 1_555
C1 O1 1_555 1_555
C2 C1 1_555 1_555
C3 O3 1_555 1_555
C4 C3 1_555 1_555
C5 O5 1_555 1_555
C6 C5 1_555 1_555
C7 O7 1_555 1_555
C8 C7 1_555 1_555
C9 N1 1_555 1_555
C10 C9 1_555 1_555
C11 C10 1_555 1_555
C12 C10 1_555 1_555
C13 C12 1_555 1_555
C14 C13 1_555 1_555
C15 C16 1_555 1_555
C16 C17 1_555 1_555
C17 H4 1_555 1_555
C18 C16 1_555 1_555
C19 H6 1_555 1_555
C20 H8 1_555 1_555
H1 C15 1_555 1_555
H2 C15 1_555 1_555
H3 C15 1_555 1_555
H5 C18 1_555 1_555
H7 C19 1_555 1_555
H9 C20 1_555 1_555
Rh1B Rh2B 1_555 1_555
Rh1A Rh2A 1_555 1_555
Rh2A N2 1_555 1_555
Rh2C N2B 1_555 1_555
Rh2B O2B 1_555 1_555
F1B C2B 1_555 1_555
F2B C2B 1_555 1_555
F3B C2B 1_555 1_555
F4B C4B 1_555 1_555
F5B C4B 1_555 1_555
F6B C4B 1_555 1_555
F7B C6B 1_555 1_555
F8B C6B 1_555 1_555
F9B C6B 1_555 1_555
F10B C8B 1_555 1_555
F11B C8B 1_555 1_555
F12B C8B 1_555 1_555
F13B C13B 1_555 1_555
F14B C14B 1_555 1_555
O1B Rh1B 1_555 1_555
O2B C1B 1_555 1_555
O2A Rh2A 1_555 1_555
O3B Rh1B 1_555 1_555
O4B Rh2B 1_555 1_555
O4A Rh2A 1_555 1_555
O5B Rh1B 1_555 1_555
O6B Rh2B 1_555 1_555
O6A Rh2A 1_555 1_555
O7B Rh1B 1_555 1_555
O8B Rh2B 1_555 1_555
O8A Rh2A 1_555 1_555
N1B Rh1B 1_555 1_555
N2B C11B 1_555 1_555
N2A Rh2 1_555 1_555
C1B O1B 1_555 1_555
C2B C1B 1_555 1_555
C3B O3B 1_555 1_555
C4B C3B 1_555 1_555
C5B O5B 1_555 1_555
C6B C5B 1_555 1_555
C7B O7B 1_555 1_555
C8B C7B 1_555 1_555
C9B N1B 1_555 1_555
C10B C9B 1_555 1_555
C11B C10B 1_555 1_555
C12B C14 1_555 1_555
C13B C12B 1_555 1_555
C14B C12 1_555 1_555
C15B C16B 1_555 1_555
C16B C17B 1_555 1_555
C17B C18 1_555 1_555
C18B C17 1_555 1_555
H1B C15B 1_555 1_555
H2B C15B 1_555 1_555
H3B C15B 1_555 1_555
H4B C17B 1_555 1_555
H5B C18B 1_555 1_555
O4 C3 1_555 1_555
O6 C5 1_555 1_555
O8 C7 1_555 1_555
O4B C3B 1_555 1_555
O6B C5B 1_555 1_555
O8B C7B 1_555 1_555
C10B C12B 1_555 1_555
C13B C14B 1_555 1_555
C16B C18B 1_555 1_555

#END
