
#######################################################################
#
#                 Cambridge Crystallographic Data Centre
#                                CCDC 
#
#######################################################################
#
# If this CIF has been generated from an entry in the Cambridge 
# Structural Database, then it will include bibliographic, chemical, 
# crystal, experimental, refinement or atomic coordinate data resulting 
# from the CCDC's data processing and validation procedures.
#
#######################################################################

data_LUWVUU
_symmetry_cell_setting           orthorhombic
_symmetry_space_group_name_H-M   'P n c 2'
_symmetry_Int_Tables_number      30
_space_group_name_Hall           'P 2 -2bc'
loop_
_symmetry_equiv_pos_site_id
_symmetry_equiv_pos_as_xyz
1 x,y,z
2 -x,-y,z
3 x,1/2-y,1/2+z
4 -x,1/2+y,1/2+z
_cell_length_a                   7.1100(10)
_cell_length_b                   20.390(4)
_cell_length_c                   8.584(2)
_cell_angle_alpha                90
_cell_angle_beta                 90
_cell_angle_gamma                90
_cell_volume                     1244.45
loop_
_atom_site_label
_atom_site_type_symbol
_atom_site_fract_x
_atom_site_fract_y
_atom_site_fract_z
Zn1 Zn -0.22687(4) -0.538859(15) -0.03411(4)
O1 O -0.4480(3) -0.59653(11) -0.0028(3)
C1 C -0.4507(4) -0.61309(16) 0.1402(4)
C2 C -0.2529(4) -0.44740(18) -0.3125(5)
H1 H -0.2559 -0.4088 -0.2487
O2 O -0.3297(3) -0.59510(13) 0.2352(3)
C3 C -0.6017(4) -0.65886(16) 0.1950(4)
C4 C -0.7934(4) -0.65013(15) 0.1638(4)
C5 C -0.5461(5) -0.71413(17) 0.2759(4)
H2 H -0.4149 -0.7187 0.3001
C6 C -0.8669(5) -0.59019(16) 0.0808(4)
C7 C -0.9234(5) -0.69620(18) 0.2147(4)
H3 H -1.0545 -0.6907 0.1912
C8 C -0.6732(5) -0.76103(19) 0.3243(4)
H4 H -0.6305 -0.7999 0.3765
O3 O -1.0055(3) -0.59768(10) -0.0088(3)
O4 O -0.7861(3) -0.53627(11) 0.1100(3)
C9 C -0.8628(6) -0.75177(19) 0.2949(5)
H5 H -0.9553 -0.7822 0.3325
N1 N -0.2423(3) -0.51002(14) -0.2551(3)
C10 C -0.2465(4) -0.54978(19) -0.3781(4)
N2 N -0.2585(3) -0.51388(17) -0.5097(4)
H6 H -0.2621 -0.5316 -0.6133
C11 C -0.2428(6) -0.6218(2) -0.3753(5)
H7 H -0.1138 -0.6347 -0.3876
H8 H -0.3090 -0.6372 -0.4656
H9 H -0.2917 -0.6451 -0.2870
C12 C -0.2612(5) -0.4495(2) -0.4692(4)
H10 H -0.2673 -0.4124 -0.5378
O3_2 O -0.0055(3) -0.59768(10) -0.0088(3)
O4A O -0.2139(3) -0.46373(11) 0.1100(3)
Zn1_2 Zn -1.22687(4) -0.538859(15) -0.03411(4)
Zn1A Zn -0.77313(4) -0.461141(15) -0.03411(4)
loop_
_geom_bond_atom_site_label_1
_geom_bond_atom_site_label_2
_geom_bond_site_symmetry_1
_geom_bond_site_symmetry_2
Zn1 O1 1_555 1_555
O1 C1 1_555 1_555
C1 O2 1_555 1_555
C2 H1 1_555 1_555
C3 C1 1_555 1_555
C4 C3 1_555 1_555
C5 C3 1_555 1_555
H2 C5 1_555 1_555
C6 C4 1_555 1_555
C7 C4 1_555 1_555
H3 C7 1_555 1_555
C8 C5 1_555 1_555
H4 C8 1_555 1_555
O3 C6 1_555 1_555
O4 C6 1_555 1_555
C9 C7 1_555 1_555
H5 C9 1_555 1_555
N1 Zn1 1_555 1_555
C10 N1 1_555 1_555
N2 C10 1_555 1_555
H6 N2 1_555 1_555
C11 C10 1_555 1_555
H7 C11 1_555 1_555
H8 C11 1_555 1_555
H9 C11 1_555 1_555
C12 C2 1_555 1_555
H10 C12 1_555 1_555
O3_2 Zn1 1_555 1_555
O4A Zn1 1_555 1_555
Zn1_2 O3 1_555 1_555
Zn1A O4 1_555 1_555
C2 N1 1_555 1_555
C8 C9 1_555 1_555
N2 C12 1_555 1_555

#END
