
#######################################################################
#
#                 Cambridge Crystallographic Data Centre
#                                CCDC 
#
#######################################################################
#
# If this CIF has been generated from an entry in the Cambridge 
# Structural Database, then it will include bibliographic, chemical, 
# crystal, experimental, refinement or atomic coordinate data resulting 
# from the CCDC's data processing and validation procedures.
#
#######################################################################

data_LUWYAE
_symmetry_cell_setting           orthorhombic
_symmetry_space_group_name_H-M   'P 21 21 21'
_symmetry_Int_Tables_number      19
_space_group_name_Hall           'P 2ac 2ab'
loop_
_symmetry_equiv_pos_site_id
_symmetry_equiv_pos_as_xyz
1 x,y,z
2 1/2-x,-y,1/2+z
3 1/2+x,1/2-y,-z
4 -x,1/2+y,1/2-z
_cell_length_a                   6.1657(9)
_cell_length_b                   7.8354(11)
_cell_length_c                   30.329(4)
_cell_angle_alpha                90
_cell_angle_beta                 90
_cell_angle_gamma                90
_cell_volume                     1465.22
loop_
_atom_site_label
_atom_site_type_symbol
_atom_site_fract_x
_atom_site_fract_y
_atom_site_fract_z
Cd1 Cd 1.11969(7) 0.34217(5) 0.299313(14)
C1 C 1.1006(11) 0.2713(7) 0.11610(19)
C2 C 1.0377(10) 0.3276(9) 0.07487(19)
C3 C 0.8447(12) 0.4188(8) 0.07027(19)
C4 C 0.7280(10) 0.4569(7) 0.1075(2)
C5 C 0.7928(10) 0.4073(8) 0.1488(2)
C6 C 0.9820(10) 0.3087(8) 0.1532(2)
C7 C 1.0552(9) 0.2489(8) 0.1987(2)
C8 C 0.6620(9) 0.4598(8) 0.18975(18)
C9 C 0.9557(10) 0.3298(10) 0.4011(2)
H1 H 0.8341 0.2822 0.3878
C10 C 0.9551(12) 0.3559(10) 0.4463(2)
H2 H 0.8352 0.3248 0.4631
C11 C 1.1343(15) 0.4285(9) 0.4663(2)
H3 H 1.1362 0.4476 0.4965
C12 C 1.3095(13) 0.4719(10) 0.4407(2)
H4 H 1.4320 0.5205 0.4535
C13 C 1.3016(11) 0.4423(8) 0.3954(2)
H5 H 1.4203 0.4724 0.3782
F1 F 1.2913(6) 0.1876(5) 0.11899(12)
F2 F 1.1624(8) 0.2937(5) 0.03880(12)
F3 F 0.7815(8) 0.4681(6) 0.02971(13)
F4 F 0.5408(6) 0.5451(5) 0.10130(13)
N1 N 1.1284(10) 0.3719(6) 0.37596(16)
O1 O 1.0886(7) 0.3661(6) 0.22579(13)
O2 O 1.0760(7) 0.0938(5) 0.20542(16)
O3 O 0.6420(7) 0.6188(4) 0.19609(16)
O4 O 0.5874(6) 0.3461(6) 0.21369(13)
O5 O 0.8190(6) 0.1769(5) 0.30692(14)
H6 H 0.6889 0.1973 0.3048
H7 H 0.8706 0.0871 0.2978
O6 O 1.4368(6) 0.4923(5) 0.29216(15)
H8 H 1.4189 0.5944 0.2969
H9 H 1.4887 0.4582 0.2689
Cd1C Cd 0.88031(7) -0.15783(5) 0.200687(14)
Cd1C_2 Cd 0.88031(7) 0.84217(5) 0.200687(14)
O2C O 0.9240(7) 0.5938(5) 0.29458(16)
O3C O 1.3580(7) 0.1188(4) 0.30391(16)
loop_
_geom_bond_atom_site_label_1
_geom_bond_atom_site_label_2
_geom_bond_site_symmetry_1
_geom_bond_site_symmetry_2
Cd1 N1 1_555 1_555
C1 C2 1_555 1_555
C2 C3 1_555 1_555
C3 C4 1_555 1_555
C4 C5 1_555 1_555
C5 C6 1_555 1_555
C6 C1 1_555 1_555
C7 C6 1_555 1_555
C8 C5 1_555 1_555
C9 H1 1_555 1_555
C10 C9 1_555 1_555
H2 C10 1_555 1_555
C11 C10 1_555 1_555
H3 C11 1_555 1_555
C12 C11 1_555 1_555
H4 C12 1_555 1_555
C13 C12 1_555 1_555
H5 C13 1_555 1_555
F1 C1 1_555 1_555
F2 C2 1_555 1_555
F3 C3 1_555 1_555
F4 C4 1_555 1_555
N1 C9 1_555 1_555
O1 Cd1 1_555 1_555
O2 C7 1_555 1_555
O3 C8 1_555 1_555
O4 C8 1_555 1_555
O5 Cd1 1_555 1_555
H6 O5 1_555 1_555
H7 O5 1_555 1_555
O6 Cd1 1_555 1_555
H8 O6 1_555 1_555
H9 O6 1_555 1_555
Cd1C O2 1_555 1_555
Cd1C_2 O3 1_555 1_555
O2C Cd1 1_555 1_555
O3C Cd1 1_555 1_555
C7 O1 1_555 1_555
C13 N1 1_555 1_555

#END
