
#######################################################################
#
#                 Cambridge Crystallographic Data Centre
#                                CCDC 
#
#######################################################################
#
# If this CIF has been generated from an entry in the Cambridge 
# Structural Database, then it will include bibliographic, chemical, 
# crystal, experimental, refinement or atomic coordinate data resulting 
# from the CCDC's data processing and validation procedures.
#
#######################################################################

data_LUXBAI
_symmetry_cell_setting           monoclinic
_symmetry_space_group_name_H-M   'C 2/c'
_symmetry_Int_Tables_number      15
_space_group_name_Hall           '-C 2yn'
loop_
_symmetry_equiv_pos_site_id
_symmetry_equiv_pos_as_xyz
1 x,y,z
2 -x,y,1/2-z
3 1/2+x,1/2+y,z
4 1/2-x,1/2+y,1/2-z
5 -x,-y,-z
6 x,-y,1/2+z
7 1/2-x,1/2-y,-z
8 1/2+x,1/2-y,1/2+z
_cell_length_a                   21.438(5)
_cell_length_b                   11.908(5)
_cell_length_c                   7.350(5)
_cell_angle_alpha                90
_cell_angle_beta                 93.017(5)
_cell_angle_gamma                90
_cell_volume                     1873.73
loop_
_atom_site_label
_atom_site_type_symbol
_atom_site_fract_x
_atom_site_fract_y
_atom_site_fract_z
Mn1 Mn 1.0000 1.12566(2) 0.2500
O1 O 0.93509(4) 0.84711(9) 0.51130(14)
N1 N 0.55981(5) 0.76946(11) 0.12086(17)
C1 C 0.66027(6) 0.85864(11) 0.09575(18)
O2 O 0.93941(5) 1.00846(11) 0.35927(19)
C2 C 0.85011(6) 0.89615(11) 0.30704(17)
C3 C 0.91428(6) 0.91835(12) 0.39757(18)
C4 C 0.81876(6) 0.79550(12) 0.3275(2)
H1 H 0.8386 0.7364 0.3899
C5 C 0.82002(6) 0.98160(12) 0.2093(2)
H2 H 0.8410 1.0486 0.1906
C6 C 0.72656(6) 0.86946(11) 0.16303(17)
C7 C 0.53676(7) 0.83396(15) -0.0150(2)
H3 H 0.4951 0.8252 -0.0545
C8 C 0.75790(6) 0.78212(11) 0.2556(2)
H4 H 0.7377 0.7137 0.2694
C9 C 0.75916(6) 0.96888(12) 0.1390(2)
H5 H 0.7398 1.0277 0.0747
C10 C 0.62007(6) 0.78332(12) 0.17420(19)
H6 H 0.6361 0.7395 0.2704
C11 C 0.63465(7) 0.92537(14) -0.0443(2)
H7 H 0.6593 0.9779 -0.1006
C12 C 0.57232(7) 0.91331(16) -0.0994(2)
H8 H 0.5546 0.9580 -0.1921
Mn1B Mn 0.5000 0.62566(2) 0.2500
Mn1B_2 Mn 1.5000 0.62566(2) 0.2500
Mn1D Mn 1.0000 0.87434(2) -0.2500
Mn1D_2 Mn 1.0000 0.87434(2) 0.7500
O1A O 1.06491(4) 0.84711(9) -0.01130(14)
O1D O 1.06491(4) 1.15289(9) 0.48870(14)
O1E O 0.93509(4) 1.15289(9) 0.01130(14)
N1A N 1.44019(5) 0.76946(11) 0.37914(17)
N1B N 1.05981(5) 1.26946(11) 0.12086(17)
N1C N 0.94019(5) 1.26946(11) 0.37914(17)
C1A C 1.33973(6) 0.85864(11) 0.40425(18)
O2A O 1.06059(5) 1.00846(11) 0.14073(19)
C2A C 1.14989(6) 0.89615(11) 0.19296(17)
C3A C 1.08572(6) 0.91835(12) 0.10243(18)
C4A C 1.18124(6) 0.79550(12) 0.1725(2)
H1A H 1.1614 0.7364 0.1101
C5A C 1.17998(6) 0.98160(12) 0.2907(2)
H2A H 1.1590 1.0486 0.3094
C6A C 1.27344(6) 0.86946(11) 0.33697(17)
C7A C 1.46324(7) 0.83396(15) 0.5150(2)
H3A H 1.5049 0.8252 0.5545
C8A C 1.24210(6) 0.78212(11) 0.2444(2)
H4A H 1.2623 0.7137 0.2306
C9A C 1.24084(6) 0.96888(12) 0.3610(2)
H5A H 1.2602 1.0277 0.4253
C10A C 1.37993(6) 0.78332(12) 0.32580(19)
H6A H 1.3639 0.7395 0.2296
C11A C 1.36535(7) 0.92537(14) 0.5443(2)
H7A H 1.3407 0.9779 0.6006
C12A C 1.42768(7) 0.91331(16) 0.5994(2)
H8A H 1.4454 0.9580 0.6921
loop_
_geom_bond_atom_site_label_1
_geom_bond_atom_site_label_2
_geom_bond_site_symmetry_1
_geom_bond_site_symmetry_2
Mn1 O2 1_555 1_555
O1 C3 1_555 1_555
N1 C7 1_555 1_555
C1 C6 1_555 1_555
O2 C3 1_555 1_555
C2 C3 1_555 1_555
C4 C2 1_555 1_555
H1 C4 1_555 1_555
C5 C2 1_555 1_555
H2 C5 1_555 1_555
C6 C8 1_555 1_555
C7 H3 1_555 1_555
C8 C4 1_555 1_555
H4 C8 1_555 1_555
C9 C5 1_555 1_555
H5 C9 1_555 1_555
C10 N1 1_555 1_555
H6 C10 1_555 1_555
C11 C1 1_555 1_555
H7 C11 1_555 1_555
C12 C7 1_555 1_555
H8 C12 1_555 1_555
Mn1B N1 1_555 1_555
Mn1B_2 N1A 1_555 1_555
Mn1D O1A 1_555 1_555
Mn1D_2 O1 1_555 1_555
O1A C3A 1_555 1_555
O1D Mn1 1_555 1_555
O1E Mn1 1_555 1_555
N1A C7A 1_555 1_555
N1B Mn1 1_555 1_555
N1C Mn1 1_555 1_555
C1A C6A 1_555 1_555
O2A Mn1 1_555 1_555
C2A C3A 1_555 1_555
C3A O2A 1_555 1_555
C4A C2A 1_555 1_555
H1A C4A 1_555 1_555
C5A C2A 1_555 1_555
H2A C5A 1_555 1_555
C6A C8A 1_555 1_555
C7A H3A 1_555 1_555
C8A C4A 1_555 1_555
H4A C8A 1_555 1_555
C9A C5A 1_555 1_555
H5A C9A 1_555 1_555
C10A N1A 1_555 1_555
H6A C10A 1_555 1_555
C11A C1A 1_555 1_555
H7A C11A 1_555 1_555
C12A C7A 1_555 1_555
H8A C12A 1_555 1_555
C1 C10 1_555 1_555
C6 C9 1_555 1_555
C11 C12 1_555 1_555
C1A C10A 1_555 1_555
C6A C9A 1_555 1_555
C11A C12A 1_555 1_555

#END
