
#######################################################################
#
#                 Cambridge Crystallographic Data Centre
#                                CCDC 
#
#######################################################################
#
# If this CIF has been generated from an entry in the Cambridge 
# Structural Database, then it will include bibliographic, chemical, 
# crystal, experimental, refinement or atomic coordinate data resulting 
# from the CCDC's data processing and validation procedures.
#
#######################################################################

data_LUXMAT
_symmetry_cell_setting           cubic
_symmetry_space_group_name_H-M   'I m -3'
_symmetry_Int_Tables_number      204
_space_group_name_Hall           '-I 2 2 3'
loop_
_symmetry_equiv_pos_site_id
_symmetry_equiv_pos_as_xyz
1 x,y,z
2 -x,-y,z
3 -x,y,-z
4 x,-y,-z
5 z,x,y
6 z,-x,-y
7 -z,-x,y
8 -z,x,-y
9 y,z,x
10 -y,z,-x
11 y,-z,-x
12 -y,-z,x
13 1/2+x,1/2+y,1/2+z
14 1/2-x,1/2-y,1/2+z
15 1/2-x,1/2+y,1/2-z
16 1/2+x,1/2-y,1/2-z
17 1/2+z,1/2+x,1/2+y
18 1/2+z,1/2-x,1/2-y
19 1/2-z,1/2-x,1/2+y
20 1/2-z,1/2+x,1/2-y
21 1/2+y,1/2+z,1/2+x
22 1/2-y,1/2+z,1/2-x
23 1/2+y,1/2-z,1/2-x
24 1/2-y,1/2-z,1/2+x
25 -x,-y,-z
26 x,y,-z
27 x,-y,z
28 -x,y,z
29 -z,-x,-y
30 -z,x,y
31 z,x,-y
32 z,-x,y
33 -y,-z,-x
34 y,-z,x
35 -y,z,x
36 y,z,-x
37 1/2-x,1/2-y,1/2-z
38 1/2+x,1/2+y,1/2-z
39 1/2+x,1/2-y,1/2+z
40 1/2-x,1/2+y,1/2+z
41 1/2-z,1/2-x,1/2-y
42 1/2-z,1/2+x,1/2+y
43 1/2+z,1/2+x,1/2-y
44 1/2+z,1/2-x,1/2+y
45 1/2-y,1/2-z,1/2-x
46 1/2+y,1/2-z,1/2+x
47 1/2-y,1/2+z,1/2+x
48 1/2+y,1/2+z,1/2-x
_cell_length_a                   23.2292(11)
_cell_length_b                   23.2292(11)
_cell_length_c                   23.2292(11)
_cell_angle_alpha                90
_cell_angle_beta                 90
_cell_angle_gamma                90
_cell_volume                     12534.4
loop_
_atom_site_label
_atom_site_type_symbol
_atom_site_fract_x
_atom_site_fract_y
_atom_site_fract_z
Mo1 Mo -0.152408(19) 0.5000 0.5000
Mo2 Mo -0.076119(10) 0.392097(10) 0.423209(10)
Mo3 Mo 0.01135(2) 0.5000 0.34685(2)
O2 O -0.22354(14) 0.5000 0.5000
O3 O -0.11127(8) 0.34009(8) 0.38888(8)
O4 O 0.0000 0.5000 0.27381(15)
O5 O -0.14738(14) 0.43866(13) 0.44362(13)
O6 O -0.05607(12) 0.45546(13) 0.37217(13)
O7 O 0.0000 0.37981(19) 0.43007(18)
O8 O -0.07923(10) 0.36400(12) 0.5000
Mo1A Mo 0.152408(19) 0.5000 0.5000
Mo2C Mo -0.076119(10) 0.607903(10) 0.576791(10)
Mo2Y Mo -0.076119(10) 0.392097(10) 0.576791(10)
Mo2Z Mo -0.076119(10) 0.607903(10) 0.423209(10)
Mo2AA Mo 0.076119(10) 0.392097(10) 0.423209(10)
Mo2X Mo 0.076119(10) 0.607903(10) 0.576791(10)
Mo2B Mo 0.076119(10) 0.392097(10) 0.576791(10)
Mo2A Mo 0.076119(10) 0.607903(10) 0.423209(10)
Mo3C Mo 0.01135(2) 0.5000 0.65315(2)
Mo3A Mo -0.01135(2) 0.5000 0.34685(2)
Mo3B Mo -0.01135(2) 0.5000 0.65315(2)
O2A O 0.22354(14) 0.5000 0.5000
O3C O -0.11127(8) 0.65991(8) 0.61112(8)
O3Y O -0.11127(8) 0.34009(8) 0.61112(8)
O3Z O -0.11127(8) 0.65991(8) 0.38888(8)
O3AA O 0.11127(8) 0.34009(8) 0.38888(8)
O3X O 0.11127(8) 0.65991(8) 0.61112(8)
O3B O 0.11127(8) 0.34009(8) 0.61112(8)
O3A O 0.11127(8) 0.65991(8) 0.38888(8)
O4B O 0.0000 0.5000 0.72619(15)
O5C O -0.14738(14) 0.56134(13) 0.55638(13)
O5Y O -0.14738(14) 0.43866(13) 0.55638(13)
O5Z O -0.14738(14) 0.56134(13) 0.44362(13)
O5AA O 0.14738(14) 0.43866(13) 0.44362(13)
O5X O 0.14738(14) 0.56134(13) 0.55638(13)
O5B O 0.14738(14) 0.43866(13) 0.55638(13)
O5A O 0.14738(14) 0.56134(13) 0.44362(13)
O6C O -0.05607(12) 0.54454(13) 0.62783(13)
O6Y O -0.05607(12) 0.45546(13) 0.62783(13)
O6Z O -0.05607(12) 0.54454(13) 0.37217(13)
O6A O 0.05607(12) 0.54454(13) 0.37217(13)
O6AA O 0.05607(12) 0.45546(13) 0.37217(13)
O6B O 0.05607(12) 0.45546(13) 0.62783(13)
O6X O 0.05607(12) 0.54454(13) 0.62783(13)
O7C O 0.0000 0.62019(19) 0.56993(18)
O7B O 0.0000 0.37981(19) 0.56993(18)
O7A O 0.0000 0.62019(19) 0.43007(18)
O8C O -0.07923(10) 0.63600(12) 0.5000
O8B O 0.07923(10) 0.36400(12) 0.5000
O8A O 0.07923(10) 0.63600(12) 0.5000
Co1 Co 0.2500 0.7500 1.2500
O9 O 0.32389(7) 0.77616(7) 1.29122(7)
N1 N 0.32328(8) 0.77993(9) 1.34916(8)
C1 C 0.36175(11) 0.74742(10) 1.37870(12)
H1 H 0.3863 0.7228 1.3588
C2 C 0.36472(11) 0.75036(11) 1.43613(12)
H2 H 0.3923 0.7287 1.4555
C3 C 0.32679(10) 0.78576(10) 1.46813(10)
C4 C 0.28952(10) 0.81860(11) 1.43733(11)
H3 H 0.2641 0.8428 1.4566
C5 C 0.28857(11) 0.81667(10) 1.37673(9)
H4 H 0.2641 0.8407 1.3561
Co1M Co 0.2500 0.7500 1.7500
Co1O Co 0.7500 0.7500 1.2500
Co1N Co 0.2500 0.2500 1.2500
O9Y O 0.32389(7) 0.77616(7) 1.70878(7)
O9E O 0.29122(7) 0.67611(7) 1.22384(7)
O9BA O 0.70878(7) 0.67611(7) 1.22384(7)
O9K O 0.22384(7) 0.70878(7) 1.32389(7)
O9HA O 0.22384(7) 0.29122(7) 1.32389(7)
O9JA O 0.17611(7) 0.72384(7) 1.20878(7)
O9OA O 0.20878(7) 0.82389(7) 1.27616(7)
O9UA O 0.27616(7) 0.79122(7) 1.17611(7)
N1Y N 0.32328(8) 0.77993(9) 1.65084(8)
N1E N 0.34916(8) 0.67672(8) 1.22007(9)
N1BA N 0.65084(8) 0.67672(8) 1.22007(9)
N1K N 0.22007(9) 0.65084(8) 1.32328(8)
N1HA N 0.22007(9) 0.34916(8) 1.32328(8)
C1Y C 0.36175(11) 0.74742(10) 1.62130(12)
C1E C 0.37870(12) 0.63825(11) 1.25258(10)
C1BA C 0.62130(12) 0.63825(11) 1.25258(10)
C1K C 0.25258(10) 0.62130(12) 1.36175(11)
C1HA C 0.25258(10) 0.37870(12) 1.36175(11)
H1Y H 0.3863 0.7228 1.6412
H1E H 0.3588 0.6137 1.2772
H1BA H 0.6412 0.6137 1.2772
H1K H 0.2772 0.6412 1.3863
H1HA H 0.2772 0.3588 1.3863
C2Y C 0.36472(11) 0.75036(11) 1.56387(12)
C2E C 0.43613(12) 0.63528(11) 1.24964(11)
C2BA C 0.56387(12) 0.63528(11) 1.24964(11)
C2K C 0.24964(11) 0.56387(12) 1.36472(11)
C2HA C 0.24964(11) 0.43613(12) 1.36472(11)
H2Y H 0.3923 0.7287 1.5445
H2E H 0.4555 0.6077 1.2713
H2BA H 0.5445 0.6077 1.2713
H2K H 0.2713 0.5445 1.3923
H2HA H 0.2713 0.4555 1.3923
C3Y C 0.32679(10) 0.78576(10) 1.53187(10)
C3E C 0.46813(10) 0.67321(10) 1.21424(10)
C3BA C 0.53187(10) 0.67321(10) 1.21424(10)
C3K C 0.21424(10) 0.53187(10) 1.32679(10)
C3HA C 0.21424(10) 0.46813(10) 1.32679(10)
C4Y C 0.28952(10) 0.81860(11) 1.56267(11)
C4E C 0.43733(11) 0.71048(10) 1.18140(11)
C4BA C 0.56267(11) 0.71048(10) 1.18140(11)
C4K C 0.18140(11) 0.56267(11) 1.28952(10)
C4HA C 0.18140(11) 0.43733(11) 1.28952(10)
H3Y H 0.2641 0.8428 1.5434
H3E H 0.4566 0.7359 1.1572
H3BA H 0.5434 0.7359 1.1572
H3K H 0.1572 0.5434 1.2641
H3HA H 0.1572 0.4566 1.2641
C5Y C 0.28857(11) 0.81667(10) 1.62327(9)
C5E C 0.37673(9) 0.71143(11) 1.18333(10)
C5BA C 0.62327(9) 0.71143(11) 1.18333(10)
C5K C 0.18333(10) 0.62327(9) 1.28857(11)
C5HA C 0.18333(10) 0.37673(9) 1.28857(11)
H4Y H 0.2641 0.8407 1.6439
H4E H 0.3561 0.7359 1.1593
H4BA H 0.6439 0.7359 1.1593
H4K H 0.1593 0.6439 1.2641
H4HA H 0.1593 0.3561 1.2641
N2 N 0.0000 0.26787(14) 0.17650(12)
C6 C 0.0000 0.30175(17) 0.20986(14)
C7 C 0.0000 0.34967(15) 0.25447(16)
H5 H 0.0250 0.3801 0.2420
H5AA H -0.0250 0.3801 0.2420
O10 O 0.0000 0.16633(14) 0.10561(12)
H8 H 0.0000 0.2065(19) 0.1147(18)
H9 H 0.038(3) 0.154(3) 0.121(3)
H9AA H -0.038(3) 0.154(3) 0.121(3)
O11 O 0.10617(10) 0.10617(10) 0.10617(10)
H10 H 0.085(4) 0.085(4) 0.085(4)
O13 O 0.04023(19) 0.1469(2) 0.0000
P1 P 0.0000 0.5000 0.5000
O1 O 0.0551(2) 0.5339(2) 0.5000
O1C O 0.0551(2) 0.4661(2) 0.5000
O1A O -0.0551(2) 0.4661(2) 0.5000
O1B O -0.0551(2) 0.5339(2) 0.5000
H6? H 0.0134 0.3348 0.2906
H7? H -0.0384 0.3643 0.2589
O12? O -0.0323(3) -0.0323(3) 0.0323(3)
H11? H 0.0000 0.0000 0.0000
H12? H 0.076(5) 0.0000 0.062(5)
H13? H 0.0000 0.1601(16) -0.0403(17)
H14? H 0.092(2) 0.144(2) 0.104(2)
O14? O 0.0000 0.45804(17) 0.44627(17)
O15? O 0.12360(14) 0.44669(13) 0.44371(14)
O16? O 0.05856(13) 0.43003(13) 0.34991(13)
O17? O 0.0000 0.35210(18) 0.40782(18)
loop_
_geom_bond_atom_site_label_1
_geom_bond_atom_site_label_2
_geom_bond_site_symmetry_1
_geom_bond_site_symmetry_2
P1 O1 1_555 1_555
Mo1 O2 1_555 1_555
Mo2 O3 1_555 1_555
Mo3 O4 1_555 1_555
O1 O1C 1_555 1_555
O4 Mo3A 1_555 1_555
O5 Mo1 1_555 1_555
O6 Mo2 1_555 1_555
O7 Mo2 1_555 1_555
O8 Mo2 1_555 1_555
Co1 O9 1_555 1_555
O9 N1 1_555 1_555
N1 C1 1_555 1_555
C1 H1 1_555 1_555
C2 C1 1_555 1_555
H2 C2 1_555 1_555
C3 C2 1_555 1_555
C4 C3 1_555 1_555
H3 C4 1_555 1_555
C5 N1 1_555 1_555
H4 C5 1_555 1_555
N2 C6 1_555 1_555
C6 C7 1_555 1_555
C7 H5 1_555 1_555
O10 H8 1_555 1_555
H9 O10 1_555 1_555
O11 H10 1_555 1_555
Mo1A O2A 1_555 1_555
Mo2C O3C 1_555 1_555
Mo2Y O8 1_555 1_555
Mo2Z O3Z 1_555 1_555
Mo2AA O7 1_555 1_555
Mo2X O3X 1_555 1_555
Mo2B O3B 1_555 1_555
Mo2A O3A 1_555 1_555
Mo3C Mo3B 1_555 1_555
Mo3A Mo3 1_555 1_555
Mo3B O4B 1_555 1_555
O1C P1 1_555 1_555
O1A P1 1_555 1_555
O1B P1 1_555 1_555
O3Y Mo2Y 1_555 1_555
O3AA Mo2AA 1_555 1_555
O4B Mo3C 1_555 1_555
O5C Mo1 1_555 1_555
O5Y Mo1 1_555 1_555
O5Z Mo1 1_555 1_555
O5AA Mo1A 1_555 1_555
O5X Mo1A 1_555 1_555
O5B Mo1A 1_555 1_555
O5A Mo1A 1_555 1_555
O6C Mo2C 1_555 1_555
O6Y Mo2Y 1_555 1_555
O6Z Mo3 1_555 1_555
O6A Mo3 1_555 1_555
O6AA Mo3 1_555 1_555
O6B Mo2B 1_555 1_555
O6X Mo2X 1_555 1_555
O7C Mo2C 1_555 1_555
O7B Mo2Y 1_555 1_555
O7A Mo2Z 1_555 1_555
O8C Mo2C 1_555 1_555
O8B Mo2AA 1_555 1_555
O8A Mo2X 1_555 1_555
Co1M O9Y 1_555 1_555
Co1O O9BA 1_555 1_555
Co1N O9HA 1_555 1_555
O9Y N1Y 1_555 1_555
O9E Co1 1_555 1_555
O9BA N1BA 1_555 1_555
O9K Co1 1_555 1_555
O9HA N1HA 1_555 1_555
O9JA Co1 1_555 1_555
O9OA Co1 1_555 1_555
O9UA Co1 1_555 1_555
N1Y C1Y 1_555 1_555
N1E O9E 1_555 1_555
N1BA C1BA 1_555 1_555
N1K O9K 1_555 1_555
N1HA C1HA 1_555 1_555
C1Y H1Y 1_555 1_555
C1E N1E 1_555 1_555
C1BA H1BA 1_555 1_555
C1K N1K 1_555 1_555
C1HA H1HA 1_555 1_555
H1E C1E 1_555 1_555
H1K C1K 1_555 1_555
C2Y C1Y 1_555 1_555
C2E C1E 1_555 1_555
C2BA C1BA 1_555 1_555
C2K C1K 1_555 1_555
C2HA C1HA 1_555 1_555
H2Y C2Y 1_555 1_555
H2E C2E 1_555 1_555
H2BA C2BA 1_555 1_555
H2K C2K 1_555 1_555
H2HA C2HA 1_555 1_555
C3Y C3 1_555 1_555
C3E C2E 1_555 1_555
C3BA C2BA 1_555 1_555
C3K C2K 1_555 1_555
C3HA C2HA 1_555 1_555
C4Y C3Y 1_555 1_555
C4E C3E 1_555 1_555
C4BA C3BA 1_555 1_555
C4K C3K 1_555 1_555
C4HA C3HA 1_555 1_555
H3Y C4Y 1_555 1_555
H3E C4E 1_555 1_555
H3BA C4BA 1_555 1_555
H3K C4K 1_555 1_555
H3HA C4HA 1_555 1_555
C5Y N1Y 1_555 1_555
C5E N1E 1_555 1_555
C5BA N1BA 1_555 1_555
C5K N1K 1_555 1_555
C5HA N1HA 1_555 1_555
H4Y C5Y 1_555 1_555
H4E C5E 1_555 1_555
H4BA C5BA 1_555 1_555
H4K C5K 1_555 1_555
H4HA C5HA 1_555 1_555
H5AA C7 1_555 1_555
H9AA O10 1_555 1_555
Mo2 O5 1_555 1_555
Mo3 O6 1_555 1_555
O6 Mo3A 1_555 1_555
C4 C5 1_555 1_555
Mo2C O5C 1_555 1_555
Mo2Y O5Y 1_555 1_555
Mo2Z O5Z 1_555 1_555
Mo2Z O6Z 1_555 1_555
Mo2Z O8C 1_555 1_555
Mo2AA O5AA 1_555 1_555
Mo2AA O6AA 1_555 1_555
Mo2X O5X 1_555 1_555
Mo2X O7C 1_555 1_555
Mo2B O5B 1_555 1_555
Mo2B O7B 1_555 1_555
Mo2B O8B 1_555 1_555
Mo2A O5A 1_555 1_555
Mo2A O6A 1_555 1_555
Mo2A O7A 1_555 1_555
Mo2A O8A 1_555 1_555
Mo3C O6C 1_555 1_555
Mo3C O6Y 1_555 1_555
Mo3C O6B 1_555 1_555
Mo3C O6X 1_555 1_555
Mo3A O6Z 1_555 1_555
Mo3A O6A 1_555 1_555
Mo3A O6AA 1_555 1_555
Mo3B O6C 1_555 1_555
Mo3B O6Y 1_555 1_555
Mo3B O6B 1_555 1_555
Mo3B O6X 1_555 1_555
O1A O1B 1_555 1_555
C2Y C3Y 1_555 1_555
C3E C3BA 1_555 1_555
C3K C3HA 1_555 1_555
C4Y C5Y 1_555 1_555
C4E C5E 1_555 1_555
C4BA C5BA 1_555 1_555
C4K C5K 1_555 1_555
C4HA C5HA 1_555 1_555

#END
