
#######################################################################
#
#                 Cambridge Crystallographic Data Centre
#                                CCDC 
#
#######################################################################
#
# If this CIF has been generated from an entry in the Cambridge 
# Structural Database, then it will include bibliographic, chemical, 
# crystal, experimental, refinement or atomic coordinate data resulting 
# from the CCDC's data processing and validation procedures.
#
#######################################################################

data_LUXQEC
_symmetry_cell_setting           monoclinic
_symmetry_space_group_name_H-M   'P 21/n'
_symmetry_Int_Tables_number      14
_space_group_name_Hall           '-P 2yn'
loop_
_symmetry_equiv_pos_site_id
_symmetry_equiv_pos_as_xyz
1 x,y,z
2 1/2-x,1/2+y,1/2-z
3 -x,-y,-z
4 1/2+x,1/2-y,1/2+z
_cell_length_a                   13.9631(8)
_cell_length_b                   5.4026(3)
_cell_length_c                   17.5026(12)
_cell_angle_alpha                90
_cell_angle_beta                 102.806(5)
_cell_angle_gamma                90
_cell_volume                     1287.5
loop_
_atom_site_label
_atom_site_type_symbol
_atom_site_fract_x
_atom_site_fract_y
_atom_site_fract_z
Cu1 Cu 1.12835(4) 1.18648(10) 0.71726(3)
N1 N 0.9978(3) 1.0334(8) 0.6377(3)
N2 N 0.8792(3) 1.0391(8) 0.5327(3)
H1 H 0.8444 1.0828 0.4878
N3 N 1.2980(4) 1.1353(8) 0.8638(2)
O1 O 1.2623(4) 1.0087(8) 0.8045(2)
O2 O 1.2582(4) 1.3295(7) 0.8750(3)
O3 O 1.3717(3) 1.0608(9) 0.9092(2)
C1 C 0.9611(5) 1.1470(10) 0.5713(3)
H2 H 0.9890 1.2858 0.5535
C2 C 0.9348(4) 0.8436(8) 0.6428(3)
C3 C 0.9394(4) 0.6611(9) 0.7041(3)
C4 C 1.0161(5) 0.6424(10) 0.7708(3)
H3 H 1.0687 0.7521 0.7775
C5 C 1.0146(5) 0.4651(11) 0.8262(3)
H4 H 1.0664 0.4518 0.8697
C6 C 0.9354(5) 0.3050(11) 0.8173(4)
H5 H 0.9333 0.1886 0.8560
C7 C 0.8613(5) 0.3158(10) 0.7532(4)
H6 H 0.8097 0.2041 0.7485
C8 C 0.8595(4) 0.4892(9) 0.6936(3)
C9 C 0.7797(4) 0.4967(9) 0.6218(3)
C10 C 0.7013(4) 0.3219(10) 0.6082(4)
H7 H 0.6987 0.2032 0.6462
C11 C 0.6302(5) 0.3250(11) 0.5411(4)
H8 H 0.5806 0.2068 0.5331
C12 C 0.6315(5) 0.5053(11) 0.4840(4)
H9 H 0.5822 0.5091 0.4385
C13 C 0.7048(5) 0.6741(10) 0.4953(3)
H10 H 0.7057 0.7925 0.4569
C14 C 0.7800(4) 0.6743(9) 0.5641(3)
C15 C 0.8605(4) 0.8463(9) 0.5774(3)
Cu1A Cu 1.37165(4) 0.68648(10) 0.78274(3)
O1A O 1.2377(4) 1.5087(8) 0.6955(2)
loop_
_geom_bond_atom_site_label_1
_geom_bond_atom_site_label_2
_geom_bond_site_symmetry_1
_geom_bond_site_symmetry_2
Cu1 N1 1_555 1_555
N1 C1 1_555 1_555
N2 H1 1_555 1_555
N3 O1 1_555 1_555
O1 Cu1 1_555 1_555
O2 N3 1_555 1_555
O3 N3 1_555 1_555
C1 N2 1_555 1_555
H2 C1 1_555 1_555
C2 N1 1_555 1_555
C3 C2 1_555 1_555
C4 C3 1_555 1_555
H3 C4 1_555 1_555
C5 C4 1_555 1_555
H4 C5 1_555 1_555
C6 C5 1_555 1_555
H5 C6 1_555 1_555
C7 C6 1_555 1_555
H6 C7 1_555 1_555
C8 C3 1_555 1_555
C9 C8 1_555 1_555
C10 C9 1_555 1_555
H7 C10 1_555 1_555
C11 C10 1_555 1_555
H8 C11 1_555 1_555
C12 C11 1_555 1_555
H9 C12 1_555 1_555
C13 C12 1_555 1_555
H10 C13 1_555 1_555
C14 C9 1_555 1_555
C15 N2 1_555 1_555
Cu1A O1 1_555 1_555
O1A Cu1 1_555 1_555
C2 C15 1_555 1_555
C7 C8 1_555 1_555
C13 C14 1_555 1_555
C14 C15 1_555 1_555

#END
