
#######################################################################
#
#                 Cambridge Crystallographic Data Centre
#                                CCDC 
#
#######################################################################
#
# If this CIF has been generated from an entry in the Cambridge 
# Structural Database, then it will include bibliographic, chemical, 
# crystal, experimental, refinement or atomic coordinate data resulting 
# from the CCDC's data processing and validation procedures.
#
#######################################################################

data_LUXSEE
_symmetry_cell_setting           orthorhombic
_symmetry_space_group_name_H-M   'P b c n'
_symmetry_Int_Tables_number      60
_space_group_name_Hall           '-P 2n 2ab'
loop_
_symmetry_equiv_pos_site_id
_symmetry_equiv_pos_as_xyz
1 x,y,z
2 1/2-x,1/2-y,1/2+z
3 1/2+x,1/2-y,-z
4 -x,y,1/2-z
5 -x,-y,-z
6 1/2+x,1/2+y,1/2-z
7 1/2-x,1/2+y,z
8 x,-y,1/2+z
_cell_length_a                   9.9130(4)
_cell_length_b                   9.3383(2)
_cell_length_c                   22.7306(7)
_cell_angle_alpha                90
_cell_angle_beta                 90
_cell_angle_gamma                90
_cell_volume                     2104.18
loop_
_atom_site_label
_atom_site_type_symbol
_atom_site_fract_x
_atom_site_fract_y
_atom_site_fract_z
C1 C 0.3863(3) -0.2004(3) 0.31224(11)
C2 C 0.5075(3) -0.2098(3) 0.34606(12)
C3 C 0.1607(3) -0.0532(3) 0.20550(13)
H1 H 0.2128 -0.0545 0.1699
H2 H 0.1488 0.0440 0.2183
H3 H 0.0741 -0.0958 0.1984
C4 C 0.2323(3) -0.1352(3) 0.25172(11)
C5 C 0.5345(3) 0.1957(4) 0.38633(14)
H4 H 0.4752 0.2692 0.3766
C6 C 0.6714(5) 0.0801(5) 0.45976(18)
H5 H 0.7519 0.0836 0.4363
H6 H 0.6286 -0.0113 0.4549
H7 H 0.6943 0.0937 0.5004
C7 C 0.5434(6) 0.3025(6) 0.48300(19)
H8 H 0.4472 0.3040 0.4877
H9 H 0.5735 0.3939 0.4688
H10 H 0.5852 0.2828 0.5202
C8 C 0.2793(3) -0.2930(3) 0.31741(11)
C9 C 0.2725(3) -0.4059(3) 0.35921(13)
Cd1 Cd 0.5000 0.09802(3) 0.2500
N1 N 0.3568(2) -0.0992(2) 0.27068(10)
N2 N 0.5996(3) -0.2282(3) 0.37530(12)
N3 N 0.5802(3) 0.1921(3) 0.44118(10)
N4 N 0.1804(2) -0.2525(2) 0.27801(10)
N5 N 0.2770(3) -0.4905(3) 0.39558(12)
O1 O 0.5637(2) 0.1107(2) 0.34766(9)
C1C C 0.6137(3) -0.2004(3) 0.18776(11)
C2C C 0.4925(3) -0.2098(3) 0.15394(12)
C3C C 0.8393(3) -0.0532(3) 0.29450(13)
H1C H 0.7872 -0.0545 0.3301
H2C H 0.8512 0.0440 0.2817
H3C H 0.9259 -0.0958 0.3016
C4C C 0.7677(3) -0.1352(3) 0.24828(11)
C5C C 0.4655(3) 0.1957(4) 0.11367(14)
H4C H 0.5248 0.2692 0.1234
C6C C 0.3286(5) 0.0801(5) 0.04024(18)
H5C H 0.2481 0.0836 0.0637
H6C H 0.3714 -0.0113 0.0451
H7C H 0.3057 0.0937 -0.0004
C7C C 0.4566(6) 0.3025(6) 0.01700(19)
H8C H 0.5528 0.3040 0.0123
H9C H 0.4265 0.3939 0.0312
H10C H 0.4148 0.2828 -0.0202
C8C C 0.7207(3) -0.2930(3) 0.18259(11)
C9C C 0.7275(3) -0.4059(3) 0.14079(13)
N1C N 0.6432(2) -0.0992(2) 0.22932(10)
N2C N 0.4004(3) -0.2282(3) 0.12470(12)
N3C N 0.4198(3) 0.1921(3) 0.05882(10)
N4C N 0.8196(2) -0.2525(2) 0.22199(10)
N5C N 0.7230(3) -0.4905(3) 0.10442(12)
O1C O 0.4363(2) 0.1107(2) 0.15234(9)
Cd1E Cd 0.0000 -0.40198(3) 0.2500
Cd1E_2 Cd 1.0000 -0.40198(3) 0.2500
N4E N 0.6804(2) 0.2475(2) 0.22199(10)
N4F N 0.3196(2) 0.2475(2) 0.27801(10)
loop_
_geom_bond_atom_site_label_1
_geom_bond_atom_site_label_2
_geom_bond_site_symmetry_1
_geom_bond_site_symmetry_2
C1 C2 1_555 1_555
C2 N2 1_555 1_555
C3 H1 1_555 1_555
H2 C3 1_555 1_555
H3 C3 1_555 1_555
C4 C3 1_555 1_555
C5 H4 1_555 1_555
C6 H5 1_555 1_555
H6 C6 1_555 1_555
H7 C6 1_555 1_555
C7 H8 1_555 1_555
H9 C7 1_555 1_555
H10 C7 1_555 1_555
C8 C1 1_555 1_555
C9 C8 1_555 1_555
Cd1 N1 1_555 1_555
N1 C1 1_555 1_555
N3 C5 1_555 1_555
N4 C4 1_555 1_555
N5 C9 1_555 1_555
O1 C5 1_555 1_555
C1C C2C 1_555 1_555
C2C N2C 1_555 1_555
C3C H1C 1_555 1_555
H2C C3C 1_555 1_555
H3C C3C 1_555 1_555
C4C C3C 1_555 1_555
C5C H4C 1_555 1_555
C6C H5C 1_555 1_555
H6C C6C 1_555 1_555
H7C C6C 1_555 1_555
C7C H8C 1_555 1_555
H9C C7C 1_555 1_555
H10C C7C 1_555 1_555
C8C C1C 1_555 1_555
C9C C8C 1_555 1_555
N1C Cd1 1_555 1_555
N3C C5C 1_555 1_555
N4C C4C 1_555 1_555
N5C C9C 1_555 1_555
O1C Cd1 1_555 1_555
Cd1E N4 1_555 1_555
Cd1E_2 N4C 1_555 1_555
N4E Cd1 1_555 1_555
N4F Cd1 1_555 1_555
C4 N1 1_555 1_555
C6 N3 1_555 1_555
C7 N3 1_555 1_555
C8 N4 1_555 1_555
Cd1 O1 1_555 1_555
C1C N1C 1_555 1_555
C4C N1C 1_555 1_555
C5C O1C 1_555 1_555
C6C N3C 1_555 1_555
C7C N3C 1_555 1_555
C8C N4C 1_555 1_555

#END
