
#######################################################################
#
#                 Cambridge Crystallographic Data Centre
#                                CCDC 
#
#######################################################################
#
# If this CIF has been generated from an entry in the Cambridge 
# Structural Database, then it will include bibliographic, chemical, 
# crystal, experimental, refinement or atomic coordinate data resulting 
# from the CCDC's data processing and validation procedures.
#
#######################################################################

data_LUYFUI
_symmetry_cell_setting           monoclinic
_symmetry_space_group_name_H-M   'P 21/n'
_symmetry_Int_Tables_number      14
_space_group_name_Hall           '-P 2yn'
loop_
_symmetry_equiv_pos_site_id
_symmetry_equiv_pos_as_xyz
1 x,y,z
2 1/2-x,1/2+y,1/2-z
3 -x,-y,-z
4 1/2+x,1/2-y,1/2+z
_cell_length_a                   8.2775(8)
_cell_length_b                   14.9469(15)
_cell_length_c                   20.733(2)
_cell_angle_alpha                90
_cell_angle_beta                 98.852(2)
_cell_angle_gamma                90
_cell_volume                     2534.6
loop_
_atom_site_label
_atom_site_type_symbol
_atom_site_fract_x
_atom_site_fract_y
_atom_site_fract_z
Nd1 Nd 0.54221(3) 0.386776(16) 0.050778(13)
S1 S 1.00917(16) -0.12996(8) 0.29904(6)
N1 N 0.4571(5) 0.2143(3) 0.0391(2)
N2 N 0.7611(5) 0.2693(3) 0.0951(2)
N3 N 0.6054(5) -0.0835(3) 0.1334(2)
N4 N 0.8628(5) -0.0415(3) 0.1654(2)
H1 H 0.9643 -0.0444 0.1822
O1 O 0.8828(4) -0.0736(2) 0.31960(17)
O2 O 1.0996(4) -0.1745(3) 0.35645(18)
O3 O 1.1168(5) -0.0835(3) 0.26117(19)
O4 O 0.2814(4) 0.3896(2) -0.0118(2)
O5 O 0.2147(4) 0.5193(2) -0.06266(17)
O6 O -0.3433(4) 0.3296(2) -0.04421(18)
O7 O -0.4348(4) 0.4655(2) -0.06174(17)
C1 C 0.3075(7) 0.1892(4) 0.0150(3)
H2 H 0.2371 0.2317 -0.0067
C2 C 0.2482(7) 0.1023(4) 0.0203(3)
H3 H 0.1414 0.0877 0.0025
C3 C 0.3506(6) 0.0392(4) 0.0523(3)
H4 H 0.3144 -0.0191 0.0563
C4 C 0.5099(6) 0.0633(3) 0.0788(3)
C5 C 0.6271(6) 0.0031(3) 0.1136(2)
C6 C 0.7851(6) 0.0303(3) 0.1340(2)
C7 C 0.8431(6) 0.1193(3) 0.1280(3)
C8 C 0.9981(7) 0.1499(4) 0.1530(3)
H5 H 1.0773 0.1101 0.1725
C9 C 1.0342(7) 0.2385(4) 0.1488(4)
H6 H 1.1382 0.2601 0.1646
C10 C 0.9106(7) 0.2959(4) 0.1203(3)
H7 H 0.9343 0.3566 0.1189
C11 C 0.7259(6) 0.1806(3) 0.0979(2)
C12 C 0.5605(6) 0.1523(3) 0.0706(2)
C13 C 0.7500(7) -0.1077(3) 0.1650(3)
C14 C 0.7870(6) -0.1974(3) 0.1935(2)
C15 C 0.7020(7) -0.2692(3) 0.1629(3)
H8 H 0.6227 -0.2584 0.1268
C16 C 0.7303(7) -0.3560(3) 0.1838(3)
H9 H 0.6673 -0.4026 0.1635
C17 C 0.8524(8) -0.3729(3) 0.2347(3)
H10 H 0.8767 -0.4317 0.2474
C18 C 0.9405(7) -0.3034(3) 0.2676(3)
H11 H 1.0224 -0.3156 0.3024
C19 C 0.9063(6) -0.2153(3) 0.2485(2)
C20 C 0.1808(5) 0.4413(3) -0.0457(2)
C21 C 0.0121(6) 0.4039(3) -0.0662(3)
H12 H -0.0385 0.3961 -0.0274
H13 H 0.0231 0.3450 -0.0846
C22 C -0.1039(5) 0.4581(3) -0.1152(2)
H14 H -0.0527 0.4699 -0.1534
H15 H -0.1256 0.5152 -0.0959
C23 C -0.2660(6) 0.4083(3) -0.1358(2)
H16 H -0.3330 0.4411 -0.1705
H17 H -0.2444 0.3495 -0.1523
C24 C -0.3558(6) 0.3993(3) -0.0782(2)
Nd1_2 Nd -0.45779(3) 0.386776(16) 0.050778(13)
Nd1A Nd 0.95779(3) -0.113224(16) 0.449222(13)
Nd1B Nd -0.54221(3) 0.613224(16) -0.050778(13)
Nd1B_2 Nd 0.45779(3) 0.613224(16) -0.050778(13)
O1A O 0.6172(4) 0.4264(2) 0.18040(17)
O2A O 0.4004(4) 0.3255(3) 0.14355(18)
O5B O 0.7853(4) 0.4807(2) 0.06266(17)
O6_2 O 0.6567(4) 0.3296(2) -0.04421(18)
O7_2 O 0.5652(4) 0.4655(2) -0.06174(17)
O7B O 0.4348(4) 0.5345(2) 0.06174(17)
O8 O 0.8780(9) 0.1727(4) 0.9478(4)
O9 O 0.3046(11) 0.8505(9) 0.1699(5)
loop_
_geom_bond_atom_site_label_1
_geom_bond_atom_site_label_2
_geom_bond_site_symmetry_1
_geom_bond_site_symmetry_2
Nd1 N1 1_555 1_555
S1 O1 1_555 1_555
N1 C1 1_555 1_555
N2 Nd1 1_555 1_555
N3 C5 1_555 1_555
N4 H1 1_555 1_555
O1 Nd1A 1_555 1_555
O2 S1 1_555 1_555
O3 S1 1_555 1_555
O4 Nd1 1_555 1_555
O5 C20 1_555 1_555
O6 C24 1_555 1_555
O7 C24 1_555 1_555
C1 H2 1_555 1_555
C2 C1 1_555 1_555
H3 C2 1_555 1_555
C3 C2 1_555 1_555
H4 C3 1_555 1_555
C4 C3 1_555 1_555
C5 C4 1_555 1_555
C6 N4 1_555 1_555
C7 C6 1_555 1_555
C8 C7 1_555 1_555
H5 C8 1_555 1_555
C9 C8 1_555 1_555
H6 C9 1_555 1_555
C10 N2 1_555 1_555
H7 C10 1_555 1_555
C11 N2 1_555 1_555
C12 N1 1_555 1_555
C13 N3 1_555 1_555
C14 C13 1_555 1_555
C15 C14 1_555 1_555
H8 C15 1_555 1_555
C16 C15 1_555 1_555
H9 C16 1_555 1_555
C17 C16 1_555 1_555
H10 C17 1_555 1_555
C18 C17 1_555 1_555
H11 C18 1_555 1_555
C19 S1 1_555 1_555
C20 O4 1_555 1_555
C21 C20 1_555 1_555
H12 C21 1_555 1_555
H13 C21 1_555 1_555
C22 C21 1_555 1_555
H14 C22 1_555 1_555
H15 C22 1_555 1_555
C23 C22 1_555 1_555
H16 C23 1_555 1_555
H17 C23 1_555 1_555
C24 C23 1_555 1_555
Nd1_2 O6 1_555 1_555
Nd1A O2 1_555 1_555
Nd1B O7 1_555 1_555
Nd1B_2 O5 1_555 1_555
O1A Nd1 1_555 1_555
O2A Nd1 1_555 1_555
O5B Nd1 1_555 1_555
O6_2 Nd1 1_555 1_555
O7_2 Nd1 1_555 1_555
O7B Nd1 1_555 1_555
N4 C13 1_555 1_555
O7 Nd1_2 1_555 1_555
C4 C12 1_555 1_555
C5 C6 1_555 1_555
C7 C11 1_555 1_555
C9 C10 1_555 1_555
C11 C12 1_555 1_555
C14 C19 1_555 1_555
C18 C19 1_555 1_555
Nd1B_2 O7_2 1_555 1_555
Nd1B_2 O7B 1_555 1_555

#END
