
#######################################################################
#
#                 Cambridge Crystallographic Data Centre
#                                CCDC 
#
#######################################################################
#
# If this CIF has been generated from an entry in the Cambridge 
# Structural Database, then it will include bibliographic, chemical, 
# crystal, experimental, refinement or atomic coordinate data resulting 
# from the CCDC's data processing and validation procedures.
#
#######################################################################

data_LUYFAO
_symmetry_cell_setting           monoclinic
_symmetry_space_group_name_H-M   'C 2/c'
_symmetry_Int_Tables_number      15
_space_group_name_Hall           '-C 2yn'
loop_
_symmetry_equiv_pos_site_id
_symmetry_equiv_pos_as_xyz
1 x,y,z
2 -x,y,1/2-z
3 1/2+x,1/2+y,z
4 1/2-x,1/2+y,1/2-z
5 -x,-y,-z
6 x,-y,1/2+z
7 1/2-x,1/2-y,-z
8 1/2+x,1/2-y,1/2+z
_cell_length_a                   30.652(5)
_cell_length_b                   8.8300(15)
_cell_length_c                   30.761(5)
_cell_angle_alpha                90
_cell_angle_beta                 108.628(3)
_cell_angle_gamma                90
_cell_volume                     7889.52
loop_
_atom_site_label
_atom_site_type_symbol
_atom_site_fract_x
_atom_site_fract_y
_atom_site_fract_z
Cu1 Cu 0.18980(2) -0.02362(7) 0.242241(19)
S1 S 0.22044(4) 0.26787(14) 0.20253(4)
O1 O 0.18553(10) 0.1845(3) 0.21841(10)
O2 O 0.19727(12) 0.3976(4) 0.17578(13)
Cl1 Cl -0.06013(6) 0.0539(2) 0.30250(7)
Cl2 Cl -0.12172(6) 0.0948(3) 0.03275(7)
O3 O 0.10631(11) -0.5347(4) 0.12762(11)
H1 H 0.1327 -0.5658 0.1391
O4 O 0.14205(12) -0.1740(4) 0.25915(12)
N1 N 0.15205(13) -0.2447(4) 0.11830(13)
N2 N 0.16757(13) -0.1008(4) 0.17859(13)
N3 N 0.22940(14) 0.1981(5) 0.36533(14)
C1 C 0.10171(15) -0.4670(6) 0.08436(15)
O5 O 0.19264(13) 0.5166(5) 0.35076(12)
H2 H 0.2151 0.5671 0.3509
O6 O 0.25710(11) 0.3199(4) 0.24410(11)
N4 N 0.20519(14) 0.0557(5) 0.30514(13)
C2 C 0.21878(15) 0.1940(6) 0.31997(17)
H3 H 0.2206 0.2755 0.3015
C3 C 0.17058(15) -0.2395(6) 0.16328(15)
H4 H 0.1839 -0.3216 0.1817
N5 N 0.13637(14) -0.1044(5) 0.10207(14)
C4 C 0.20256(17) 0.4352(6) 0.39383(16)
C5 C 0.04780(16) -0.2878(6) 0.11327(17)
H5 H 0.0421 -0.3649 0.1332
H6 H 0.0740 -0.2281 0.1310
C6 C 0.14037(18) -0.6795(6) 0.05321(19)
H7 H 0.1529 -0.7089 0.0848
H8 H 0.1622 -0.6171 0.0450
H9 H 0.1340 -0.7684 0.0342
N6 N 0.22196(18) 0.0585(5) 0.38115(15)
C7 C 0.2081(2) -0.0214(6) 0.34405(18)
H10 H 0.2008 -0.1236 0.3441
C8 C 0.0705(2) 0.3199(7) 0.3573(2)
C9 C 0.00603(17) -0.1868(6) 0.09587(18)
C10 C 0.21830(17) 0.5481(6) 0.43532(17)
C11 C 0.00603(19) -0.0662(6) 0.0668(2)
H11 H 0.0327 -0.0445 0.0599
N7 N 0.10756(16) -0.4034(6) 0.24930(16)
C12 C 0.14263(19) -0.3133(7) 0.25453(17)
H12 H 0.1703 -0.3572 0.2548
C13 C 0.14554(16) -0.3741(6) 0.08802(16)
H13 H 0.1722 -0.4399 0.0989
H14 H 0.1439 -0.3391 0.0577
C14 C 0.15863(17) 0.3476(6) 0.38889(19)
H15 H 0.1568 0.2681 0.3666
H16 H 0.1627 0.2979 0.4180
C15 C 0.24237(17) 0.3270(6) 0.39649(18)
H17 H 0.2666 0.3831 0.3896
H18 H 0.2548 0.2895 0.4277
C16 C 0.09575(17) -0.5906(6) 0.04610(16)
C17 C -0.00844(19) 0.1553(7) 0.3247(2)
C18 C -0.03356(19) -0.2125(7) 0.1071(2)
H19 H -0.0345 -0.2904 0.1272
C19 C -0.0726(2) -0.1198(8) 0.0880(2)
H20 H -0.0991 -0.1358 0.0959
C20 C 0.0813(2) -0.5209(7) -0.00205(18)
H21 H 0.0800 -0.5987 -0.0242
H22 H 0.1032 -0.4453 -0.0035
H23 H 0.0514 -0.4753 -0.0086
C21 C 0.05890(15) -0.3641(6) 0.07289(16)
H24 H 0.0324 -0.4241 0.0560
H25 H 0.0625 -0.2850 0.0525
C22 C -0.0325(2) 0.0220(7) 0.0481(2)
H26 H -0.0318 0.1016 0.0286
C23 C 0.05948(19) -0.7064(6) 0.0486(2)
H27 H 0.0571 -0.7844 0.0262
H28 H 0.0302 -0.6569 0.0424
H29 H 0.0683 -0.7506 0.0787
C24 C -0.0061(2) 0.2735(8) 0.3528(2)
H30 H -0.0320 0.3007 0.3606
C25 C -0.0715(2) -0.0077(7) 0.0583(2)
C26 C 0.0331(2) 0.3531(8) 0.3697(2)
H31 H 0.0344 0.4319 0.3902
C27 C 0.0286(2) 0.1135(8) 0.3111(2)
H32 H 0.0269 0.0319 0.2916
C28 C 0.2222(2) 0.4679(8) 0.4794(2)
H33 H 0.2284 0.5404 0.5039
H34 H 0.2469 0.3957 0.4860
H35 H 0.1938 0.4163 0.4766
C29 C 0.1833(2) 0.6775(7) 0.4292(2)
H36 H 0.1557 0.6393 0.4337
H37 H 0.1762 0.7186 0.3989
H38 H 0.1963 0.7554 0.4514
C30 C 0.0697(2) 0.2009(9) 0.3284(2)
H39 H 0.0956 0.1775 0.3202
C31 C 0.1136(2) 0.4218(8) 0.3757(3)
H40 H 0.1128 0.4965 0.3524
H41 H 0.1112 0.4761 0.4022
C32 C 0.14647(17) -0.0221(6) 0.13945(17)
H42 H 0.1398 0.0807 0.1392
O7 O 0.23950(14) 0.1678(5) 0.17610(15)
C33 C 0.1102(3) -0.5639(7) 0.2415(2)
H43 H 0.1416 -0.5914 0.2456
H44 H 0.0915 -0.5879 0.2107
H45 H 0.0993 -0.6190 0.2629
C34 C 0.0644(2) -0.3437(9) 0.2504(3)
H46 H 0.0699 -0.2668 0.2736
H47 H 0.0464 -0.4237 0.2573
H48 H 0.0480 -0.3008 0.2211
C35 C 0.26496(19) 0.6194(7) 0.4389(2)
H49 H 0.2730 0.6923 0.4633
H50 H 0.2629 0.6687 0.4105
H51 H 0.2881 0.5418 0.4451
Cu1C Cu 0.31020(2) 0.47638(7) 0.257759(19)
O6C O 0.24290(11) -0.1801(4) 0.25590(11)
loop_
_geom_bond_atom_site_label_1
_geom_bond_atom_site_label_2
_geom_bond_site_symmetry_1
_geom_bond_site_symmetry_2
Cu1 O1 1_555 1_555
S1 O1 1_555 1_555
O2 S1 1_555 1_555
Cl1 C17 1_555 1_555
Cl2 C25 1_555 1_555
O3 H1 1_555 1_555
O4 Cu1 1_555 1_555
N1 C3 1_555 1_555
N2 Cu1 1_555 1_555
N3 C2 1_555 1_555
C1 O3 1_555 1_555
O5 H2 1_555 1_555
O6 S1 1_555 1_555
N4 Cu1 1_555 1_555
C2 N4 1_555 1_555
H3 C2 1_555 1_555
C3 N2 1_555 1_555
H4 C3 1_555 1_555
N5 N1 1_555 1_555
C4 O5 1_555 1_555
C5 H5 1_555 1_555
H6 C5 1_555 1_555
C6 H7 1_555 1_555
H8 C6 1_555 1_555
H9 C6 1_555 1_555
N6 N3 1_555 1_555
C7 N4 1_555 1_555
H10 C7 1_555 1_555
C8 C26 1_555 1_555
C9 C5 1_555 1_555
C10 C4 1_555 1_555
C11 C9 1_555 1_555
H11 C11 1_555 1_555
N7 C12 1_555 1_555
C12 O4 1_555 1_555
H12 C12 1_555 1_555
C13 N1 1_555 1_555
H13 C13 1_555 1_555
H14 C13 1_555 1_555
C14 C4 1_555 1_555
H15 C14 1_555 1_555
H16 C14 1_555 1_555
C15 N3 1_555 1_555
H17 C15 1_555 1_555
H18 C15 1_555 1_555
C16 C1 1_555 1_555
C17 C24 1_555 1_555
C18 C9 1_555 1_555
H19 C18 1_555 1_555
C19 C18 1_555 1_555
H20 C19 1_555 1_555
C20 C16 1_555 1_555
H21 C20 1_555 1_555
H22 C20 1_555 1_555
H23 C20 1_555 1_555
C21 C1 1_555 1_555
H24 C21 1_555 1_555
H25 C21 1_555 1_555
C22 C11 1_555 1_555
H26 C22 1_555 1_555
C23 C16 1_555 1_555
H27 C23 1_555 1_555
H28 C23 1_555 1_555
H29 C23 1_555 1_555
C24 H30 1_555 1_555
C25 C19 1_555 1_555
C26 C24 1_555 1_555
H31 C26 1_555 1_555
C27 C17 1_555 1_555
H32 C27 1_555 1_555
C28 C10 1_555 1_555
H33 C28 1_555 1_555
H34 C28 1_555 1_555
H35 C28 1_555 1_555
C29 C10 1_555 1_555
H36 C29 1_555 1_555
H37 C29 1_555 1_555
H38 C29 1_555 1_555
C30 C8 1_555 1_555
H39 C30 1_555 1_555
C31 C8 1_555 1_555
H40 C31 1_555 1_555
H41 C31 1_555 1_555
C32 N2 1_555 1_555
H42 C32 1_555 1_555
O7 S1 1_555 1_555
C33 N7 1_555 1_555
H43 C33 1_555 1_555
H44 C33 1_555 1_555
H45 C33 1_555 1_555
C34 N7 1_555 1_555
H46 C34 1_555 1_555
H47 C34 1_555 1_555
H48 C34 1_555 1_555
C35 C10 1_555 1_555
H49 C35 1_555 1_555
H50 C35 1_555 1_555
H51 C35 1_555 1_555
Cu1C O6 1_555 1_555
O6C Cu1 1_555 1_555
C1 C13 1_555 1_555
N5 C32 1_555 1_555
C4 C15 1_555 1_555
C5 C21 1_555 1_555
C6 C16 1_555 1_555
N6 C7 1_555 1_555
C14 C31 1_555 1_555
C22 C25 1_555 1_555
C27 C30 1_555 1_555

#END
