
#######################################################################
#
#                 Cambridge Crystallographic Data Centre
#                                CCDC 
#
#######################################################################
#
# If this CIF has been generated from an entry in the Cambridge 
# Structural Database, then it will include bibliographic, chemical, 
# crystal, experimental, refinement or atomic coordinate data resulting 
# from the CCDC's data processing and validation procedures.
#
#######################################################################

data_LUYGET
_symmetry_cell_setting           monoclinic
_symmetry_space_group_name_H-M   'P 21/n'
_symmetry_Int_Tables_number      14
_space_group_name_Hall           '-P 2yn'
loop_
_symmetry_equiv_pos_site_id
_symmetry_equiv_pos_as_xyz
1 x,y,z
2 1/2-x,1/2+y,1/2-z
3 -x,-y,-z
4 1/2+x,1/2-y,1/2+z
_cell_length_a                   8.2038(9)
_cell_length_b                   14.8931(17)
_cell_length_c                   20.772(2)
_cell_angle_alpha                90
_cell_angle_beta                 98.813(2)
_cell_angle_gamma                90
_cell_volume                     2507.96
loop_
_atom_site_label
_atom_site_type_symbol
_atom_site_fract_x
_atom_site_fract_y
_atom_site_fract_z
Gd1 Gd 0.54211(2) 0.111996(13) 0.050324(10)
S1 S 1.00697(14) 0.62465(7) 0.30023(5)
N1 N 0.7608(4) 0.2254(2) 0.09626(17)
N2 N 0.4564(4) 0.2814(2) 0.03979(16)
N3 N 0.8660(4) 0.5375(2) 0.16568(17)
H1 H 0.9682 0.5400 0.1829
N4 N 0.6076(5) 0.5805(2) 0.13285(17)
O1 O 1.0949(4) 0.6683(2) 0.35856(13)
O2 O 0.8783(4) 0.56866(19) 0.31924(15)
O3 O 1.1184(4) 0.5784(2) 0.26333(15)
O4 O 0.6546(3) 0.16903(19) -0.04203(14)
O5 O 0.5627(3) 0.03276(18) -0.06159(13)
O6 O 1.2850(3) 0.11017(18) -0.01070(14)
O7 O 1.2186(3) -0.02038(18) -0.06112(13)
C1 C 0.9097(5) 0.1982(3) 0.1218(2)
H2 H 0.9331 0.1372 0.1206
C2 C 1.0340(6) 0.2557(3) 0.1505(3)
H3 H 1.1383 0.2338 0.1669
C3 C 0.9990(5) 0.3445(3) 0.1540(2)
H4 H 1.0791 0.3841 0.1737
C4 C 0.8432(5) 0.3763(3) 0.1279(2)
C5 C 0.7875(5) 0.4655(3) 0.1337(2)
C6 C 0.6293(5) 0.4936(3) 0.1131(2)
C7 C 0.5108(5) 0.4332(3) 0.0785(2)
C8 C 0.3500(5) 0.4585(3) 0.0517(2)
H5 H 0.3139 0.5172 0.0553
C9 C 0.2479(6) 0.3947(3) 0.0201(2)
H6 H 0.1405 0.4095 0.0019
C10 C 0.3053(5) 0.3077(3) 0.0153(2)
H7 H 0.2336 0.2654 -0.0064
C11 C 0.5606(5) 0.3444(3) 0.07070(19)
C12 C 0.7264(5) 0.3142(3) 0.0984(2)
C13 C 0.7525(6) 0.6044(3) 0.1653(2)
C14 C 0.7908(5) 0.6938(3) 0.1938(2)
C15 C 0.7045(6) 0.7661(3) 0.1627(2)
H8 H 0.6239 0.7557 0.1269
C16 C 0.7367(6) 0.8528(3) 0.1841(2)
H9 H 0.6761 0.8999 0.1630
C17 C 0.8561(6) 0.8704(3) 0.2359(2)
H10 H 0.8794 0.9293 0.2491
C18 C 0.9430(6) 0.7995(3) 0.2687(2)
H11 H 1.0252 0.8113 0.3038
C19 C 0.9079(5) 0.7118(3) 0.24959(19)
C20 C 0.6431(5) 0.0999(3) -0.0770(2)
C21 C 0.7330(5) 0.0938(3) -0.1341(2)
H12 H 0.7552 0.1536 -0.1490
H13 H 0.6654 0.0625 -0.1695
C22 C 0.8966(5) 0.0429(3) -0.1147(2)
H14 H 0.8744 -0.0151 -0.0967
H15 H 0.9477 0.0326 -0.1532
C23 C 1.0150(5) 0.0953(3) -0.0648(2)
H16 H 1.0258 0.1552 -0.0820
H17 H 0.9640 0.1015 -0.0259
C24 C 1.1853(5) 0.0585(3) -0.04469(19)
Gd1_2 Gd 1.54211(2) 0.111996(13) 0.050324(10)
Gd1A Gd 0.95789(2) 0.611996(13) 0.449676(10)
Gd1B Gd 0.45789(2) -0.111996(13) -0.050324(10)
Gd1B_2 Gd 1.45789(2) -0.111996(13) -0.050324(10)
O1A O 0.4051(4) 0.1683(2) 0.14144(13)
O2A O 0.6217(4) 0.06866(19) 0.18076(15)
O5B O 0.4373(3) -0.03276(18) 0.06159(13)
O6_2 O 0.2850(3) 0.11017(18) -0.01070(14)
O7B O 0.7814(3) 0.02038(18) 0.06112(13)
O8 O 0.8745(6) 0.3261(3) 0.9495(2)
O9 O 0.3029(7) 0.6449(6) 0.1696(3)
loop_
_geom_bond_atom_site_label_1
_geom_bond_atom_site_label_2
_geom_bond_site_symmetry_1
_geom_bond_site_symmetry_2
Gd1 N1 1_555 1_555
S1 O1 1_555 1_555
N1 C1 1_555 1_555
N2 Gd1 1_555 1_555
N3 H1 1_555 1_555
N4 C6 1_555 1_555
O1 Gd1A 1_555 1_555
O2 S1 1_555 1_555
O3 S1 1_555 1_555
O4 Gd1 1_555 1_555
O5 Gd1 1_555 1_555
O6 C24 1_555 1_555
O7 C24 1_555 1_555
C1 H2 1_555 1_555
C2 C1 1_555 1_555
H3 C2 1_555 1_555
C3 C2 1_555 1_555
H4 C3 1_555 1_555
C4 C3 1_555 1_555
C5 N3 1_555 1_555
C6 C5 1_555 1_555
C7 C6 1_555 1_555
C8 C7 1_555 1_555
H5 C8 1_555 1_555
C9 C8 1_555 1_555
H6 C9 1_555 1_555
C10 N2 1_555 1_555
H7 C10 1_555 1_555
C11 N2 1_555 1_555
C12 N1 1_555 1_555
C13 N3 1_555 1_555
C14 C13 1_555 1_555
C15 C14 1_555 1_555
H8 C15 1_555 1_555
C16 C15 1_555 1_555
H9 C16 1_555 1_555
C17 C16 1_555 1_555
H10 C17 1_555 1_555
C18 C17 1_555 1_555
H11 C18 1_555 1_555
C19 S1 1_555 1_555
C20 O4 1_555 1_555
C21 C20 1_555 1_555
H12 C21 1_555 1_555
H13 C21 1_555 1_555
C22 C21 1_555 1_555
H14 C22 1_555 1_555
H15 C22 1_555 1_555
C23 C22 1_555 1_555
H16 C23 1_555 1_555
H17 C23 1_555 1_555
C24 C23 1_555 1_555
Gd1_2 O6 1_555 1_555
Gd1A O2 1_555 1_555
Gd1B O5 1_555 1_555
Gd1B_2 O7 1_555 1_555
O1A Gd1 1_555 1_555
O2A Gd1 1_555 1_555
O5B Gd1 1_555 1_555
O6_2 Gd1 1_555 1_555
O7B Gd1 1_555 1_555
N4 C13 1_555 1_555
O5 C20 1_555 1_555
C4 C5 1_555 1_555
C4 C12 1_555 1_555
C7 C11 1_555 1_555
C9 C10 1_555 1_555
C11 C12 1_555 1_555
C14 C19 1_555 1_555
C18 C19 1_555 1_555
Gd1B O5B 1_555 1_555

#END
