
#######################################################################
#
#                 Cambridge Crystallographic Data Centre
#                                CCDC 
#
#######################################################################
#
# If this CIF has been generated from an entry in the Cambridge 
# Structural Database, then it will include bibliographic, chemical, 
# crystal, experimental, refinement or atomic coordinate data resulting 
# from the CCDC's data processing and validation procedures.
#
#######################################################################

data_LUYGIX
_symmetry_cell_setting           orthorhombic
_symmetry_space_group_name_H-M   'F d d 2'
_symmetry_Int_Tables_number      43
_space_group_name_Hall           'F 2 -2d'
loop_
_symmetry_equiv_pos_site_id
_symmetry_equiv_pos_as_xyz
1 x,y,z
2 -x,-y,z
3 1/4+x,1/4-y,1/4+z
4 1/4-x,1/4+y,1/4+z
5 x,1/2+y,1/2+z
6 -x,1/2-y,1/2+z
7 1/4+x,3/4-y,3/4+z
8 1/4-x,3/4+y,3/4+z
9 1/2+x,y,1/2+z
10 1/2-x,-y,1/2+z
11 3/4+x,1/4-y,3/4+z
12 3/4-x,1/4+y,3/4+z
13 1/2+x,1/2+y,z
14 1/2-x,1/2-y,z
15 3/4+x,3/4-y,1/4+z
16 3/4-x,3/4+y,1/4+z
_cell_length_a                   30.013(3)
_cell_length_b                   35.346(6)
_cell_length_c                   8.6690(9)
_cell_angle_alpha                90
_cell_angle_beta                 90
_cell_angle_gamma                90
_cell_volume                     9196.42
loop_
_atom_site_label
_atom_site_type_symbol
_atom_site_fract_x
_atom_site_fract_y
_atom_site_fract_z
Yb1 Yb 0.543043(6) 0.955589(5) 0.27042(4)
S1 S 0.59393(5) 0.67717(4) 0.09675(15)
N1 N 0.54505(12) 0.88659(11) 0.3170(4)
N2 N 0.57073(12) 0.91817(10) 0.0451(5)
N3 N 0.56510(14) 0.76300(11) 0.0635(4)
H1 H 0.5605 0.7461 0.1330
N4 N 0.57873(14) 0.78866(11) -0.1667(4)
O1 O 0.63617(12) 0.69842(9) 0.1028(4)
O2 O 0.60048(13) 0.63729(10) 0.1202(4)
O3 O 0.56135(13) 0.69433(11) 0.1993(4)
O4 O 0.49351(14) 0.94560(11) 0.4606(4)
O5 O 0.44845(14) 0.99359(12) 0.4186(5)
O6 O 0.48229(13) 0.94554(11) 1.1265(4)
O7 O 0.44516(14) 0.99930(11) 1.0971(4)
C1 C 0.53451(16) 0.87112(15) 0.4525(6)
H2 H 0.5257 0.8871 0.5319
C2 C 0.53591(15) 0.83247(14) 0.4821(5)
H3 H 0.5286 0.8231 0.5791
C3 C 0.54822(17) 0.80872(14) 0.3667(6)
H4 H 0.5500 0.7828 0.3844
C4 C 0.55818(17) 0.82347(13) 0.2212(5)
C5 C 0.56690(17) 0.80131(14) 0.0858(6)
C6 C 0.57548(16) 0.81638(13) -0.0571(6)
C7 C 0.57918(16) 0.85705(13) -0.0750(5)
C8 C 0.59138(15) 0.87445(12) -0.2143(6)
H5 H 0.5983 0.8601 -0.3009
C9 C 0.59285(15) 0.91333(12) -0.2195(6)
H6 H 0.6007 0.9256 -0.3105
C10 C 0.58260(17) 0.93424(14) -0.0884(6)
H7 H 0.5841 0.9605 -0.0937
C11 C 0.56928(15) 0.87980(12) 0.0526(5)
C12 C 0.55789(16) 0.86293(14) 0.2008(6)
C13 C 0.57190(17) 0.75683(14) -0.0889(6)
C14 C 0.56794(18) 0.71936(15) -0.1653(6)
C15 C 0.55498(19) 0.72010(17) -0.3192(7)
H8 H 0.5512 0.7434 -0.3676
C16 C 0.54759(18) 0.68734(17) -0.4025(7)
H9 H 0.5393 0.6887 -0.5057
C17 C 0.55248(19) 0.65292(18) -0.3331(7)
H10 H 0.5469 0.6308 -0.3881
C18 C 0.56575(17) 0.65114(14) -0.1813(6)
H11 H 0.5690 0.6276 -0.1344
C19 C 0.57446(16) 0.68383(14) -0.0959(6)
C20 C 0.45916(18) 0.96499(17) 0.4900(6)
C21 C 0.4319(2) 0.95287(16) 0.6276(6)
H12 H 0.4035 0.9660 0.6263
H13 H 0.4260 0.9259 0.6212
C22 C 0.45553(15) 0.96135(13) 0.7751(10)
H14 H 0.4616 0.9883 0.7794
H15 H 0.4840 0.9483 0.7746
C23 C 0.4300(2) 0.94999(16) 0.9203(6)
H16 H 0.3999 0.9600 0.9162
H17 H 0.4282 0.9226 0.9273
C24 C 0.45399(18) 0.96557(18) 1.0586(7)
Yb1_2 Yb 0.543043(6) 0.955589(5) 1.27042(4)
Yb1A Yb 0.456957(6) 1.044411(5) 0.27042(4)
Yb1A_2 Yb 0.456957(6) 1.044411(5) 1.27042(4)
Yb1G Yb 0.706957(6) 0.705589(5) 0.02042(4)
O1C O 0.61383(12) 0.94842(9) 0.3528(4)
O5A O 0.55155(14) 1.00641(12) 0.4186(5)
O6_2 O 0.48229(13) 0.94554(11) 0.1265(4)
O7A O 0.55484(14) 1.00070(11) 0.0971(4)
loop_
_geom_bond_atom_site_label_1
_geom_bond_atom_site_label_2
_geom_bond_site_symmetry_1
_geom_bond_site_symmetry_2
Yb1 N1 1_555 1_555
S1 O1 1_555 1_555
N1 C1 1_555 1_555
N2 Yb1 1_555 1_555
N3 H1 1_555 1_555
N4 C6 1_555 1_555
O1 Yb1G 1_555 1_555
O2 S1 1_555 1_555
O3 S1 1_555 1_555
O4 Yb1 1_555 1_555
O5 C20 1_555 1_555
O6 C24 1_555 1_555
O7 C24 1_555 1_555
C1 H2 1_555 1_555
C2 C1 1_555 1_555
H3 C2 1_555 1_555
C3 C2 1_555 1_555
H4 C3 1_555 1_555
C4 C3 1_555 1_555
C5 N3 1_555 1_555
C6 C5 1_555 1_555
C7 C6 1_555 1_555
C8 C7 1_555 1_555
H5 C8 1_555 1_555
C9 C8 1_555 1_555
H6 C9 1_555 1_555
C10 N2 1_555 1_555
H7 C10 1_555 1_555
C11 N2 1_555 1_555
C12 N1 1_555 1_555
C13 N3 1_555 1_555
C14 C13 1_555 1_555
C15 C14 1_555 1_555
H8 C15 1_555 1_555
C16 C15 1_555 1_555
H9 C16 1_555 1_555
C17 C16 1_555 1_555
H10 C17 1_555 1_555
C18 C17 1_555 1_555
H11 C18 1_555 1_555
C19 S1 1_555 1_555
C20 O4 1_555 1_555
C21 C20 1_555 1_555
H12 C21 1_555 1_555
H13 C21 1_555 1_555
C22 C21 1_555 1_555
H14 C22 1_555 1_555
H15 C22 1_555 1_555
C23 C22 1_555 1_555
H16 C23 1_555 1_555
H17 C23 1_555 1_555
C24 C23 1_555 1_555
Yb1_2 O6 1_555 1_555
Yb1A O5 1_555 1_555
Yb1A_2 O7 1_555 1_555
O1C Yb1 1_555 1_555
O5A Yb1 1_555 1_555
O6_2 Yb1 1_555 1_555
O7A Yb1 1_555 1_555
N4 C13 1_555 1_555
C4 C5 1_555 1_555
C4 C12 1_555 1_555
C7 C11 1_555 1_555
C9 C10 1_555 1_555
C11 C12 1_555 1_555
C14 C19 1_555 1_555
C18 C19 1_555 1_555

#END
