
#######################################################################
#
#                 Cambridge Crystallographic Data Centre
#                                CCDC 
#
#######################################################################
#
# If this CIF has been generated from an entry in the Cambridge 
# Structural Database, then it will include bibliographic, chemical, 
# crystal, experimental, refinement or atomic coordinate data resulting 
# from the CCDC's data processing and validation procedures.
#
#######################################################################

data_LUYHAQ
_symmetry_cell_setting           triclinic
_symmetry_space_group_name_H-M   'P -1'
_symmetry_Int_Tables_number      2
_space_group_name_Hall           '-P 1'
loop_
_symmetry_equiv_pos_site_id
_symmetry_equiv_pos_as_xyz
1 x,y,z
2 -x,-y,-z
_cell_length_a                   8.9637(11)
_cell_length_b                   9.0728(10)
_cell_length_c                   14.4541(17)
_cell_angle_alpha                94.827(2)
_cell_angle_beta                 91.126(2)
_cell_angle_gamma                98.795(2)
_cell_volume                     1156.92
loop_
_atom_site_label
_atom_site_type_symbol
_atom_site_fract_x
_atom_site_fract_y
_atom_site_fract_z
Gd1 Gd 0.552802(19) 0.564938(19) 0.150736(12)
S1 S 0.03968(10) 0.41839(10) 0.76615(6)
N1 N 0.5437(3) 0.3634(3) 0.26833(19)
N2 N 0.4279(3) 0.6185(3) 0.30609(19)
N3 N 0.2754(3) 0.1643(3) 0.5361(2)
N4 N 0.1762(3) 0.3745(3) 0.5662(2)
H1 H 0.1238 0.4371 0.5924
O1 O 0.2016(3) 0.4499(3) 0.78854(18)
O2 O 0.0016(3) 0.5007(3) 0.68907(17)
O3 O -0.0515(3) 0.4396(3) 0.84568(18)
O4 O 0.6670(3) 0.8221(3) 0.18918(17)
O5 O 0.7131(3) 0.7212(3) 0.05192(17)
O6 O 0.5986(3) 1.3907(3) 0.03612(18)
O7 O 0.6252(3) 1.2808(3) -0.10287(16)
C1 C 0.6096(5) 0.2434(4) 0.2525(3)
H2 H 0.6694 0.2383 0.2008
C2 C 0.5955(4) 0.1245(4) 0.3077(3)
H3 H 0.6467 0.0439 0.2943
C3 C 0.5045(4) 0.1291(4) 0.3822(2)
H4 H 0.4915 0.0503 0.4199
C4 C 0.4307(4) 0.2530(4) 0.4015(2)
C5 C 0.3310(4) 0.2682(4) 0.4767(2)
C6 C 0.2712(4) 0.3987(4) 0.4944(2)
C7 C 0.3028(4) 0.5258(4) 0.4412(2)
C8 C 0.2529(4) 0.6634(4) 0.4607(2)
H5 H 0.1934 0.6785 0.5116
C9 C 0.2929(4) 0.7757(4) 0.4039(2)
H6 H 0.2628 0.8688 0.4163
C10 C 0.3793(4) 0.7478(4) 0.3275(2)
H7 H 0.4046 0.8243 0.2890
C11 C 0.3926(4) 0.5082(4) 0.3636(2)
C12 C 0.4571(4) 0.3710(4) 0.3437(2)
C13 C 0.1803(4) 0.2320(4) 0.5883(2)
C14 C 0.0767(4) 0.1548(4) 0.6530(2)
C15 C 0.0448(4) 0.0001(4) 0.6355(3)
H8 H 0.0929 -0.0464 0.5874
C16 C -0.0561(4) -0.0868(5) 0.6873(3)
H9 H -0.0737 -0.1903 0.6748
C17 C -0.1301(4) -0.0201(5) 0.7573(3)
H10 H -0.2002 -0.0779 0.7912
C18 C -0.1006(4) 0.1336(4) 0.7774(2)
H11 H -0.1512 0.1785 0.8250
C19 C 0.0039(4) 0.2216(4) 0.7275(2)
C20 C 0.7275(4) 0.8332(4) 0.1120(3)
C21 C 0.8121(4) 0.9810(4) 0.0883(3)
H12 H 0.8984 0.9642 0.0517
H13 H 0.8489 1.0417 0.1450
C22 C 0.7086(4) 1.0636(4) 0.0335(3)
H14 H 0.6151 1.0656 0.0659
H15 H 0.6842 1.0094 -0.0270
C23 C 0.7811(4) 1.2241(4) 0.0205(2)
H16 H 0.8213 1.2745 0.0796
H17 H 0.8635 1.2234 -0.0219
C24 C 0.6623(4) 1.3056(4) -0.0181(2)
O8 O 0.3044(3) 0.4028(3) 0.12972(19)
H18 H 0.302(5) 0.351(4) 0.0801(18)
H19 H 0.237(3) 0.450(4) 0.145(3)
Gd1_2 Gd 0.552802(19) 1.564938(19) 0.150736(12)
Gd1A Gd 0.447198(19) 0.435062(19) 0.849264(12)
Gd1A_2 Gd 0.447198(19) 1.435062(19) -0.150736(12)
O1A O 0.7984(3) 0.5501(3) 0.21146(18)
O6_2 O 0.5986(3) 0.3907(3) 0.03612(18)
O7A O 0.3748(3) 0.7192(3) 0.10287(16)
loop_
_geom_bond_atom_site_label_1
_geom_bond_atom_site_label_2
_geom_bond_site_symmetry_1
_geom_bond_site_symmetry_2
Gd1 N1 1_555 1_555
S1 O1 1_555 1_555
N1 C1 1_555 1_555
N2 Gd1 1_555 1_555
N3 C5 1_555 1_555
N4 H1 1_555 1_555
O1 Gd1A 1_555 1_555
O2 S1 1_555 1_555
O3 S1 1_555 1_555
O4 Gd1 1_555 1_555
O5 Gd1 1_555 1_555
O6 C24 1_555 1_555
O7 C24 1_555 1_555
C1 H2 1_555 1_555
C2 C1 1_555 1_555
H3 C2 1_555 1_555
C3 C2 1_555 1_555
H4 C3 1_555 1_555
C4 C3 1_555 1_555
C5 C4 1_555 1_555
C6 N4 1_555 1_555
C7 C6 1_555 1_555
C8 C7 1_555 1_555
H5 C8 1_555 1_555
C9 C8 1_555 1_555
H6 C9 1_555 1_555
C10 N2 1_555 1_555
H7 C10 1_555 1_555
C11 N2 1_555 1_555
C12 N1 1_555 1_555
C13 N3 1_555 1_555
C14 C13 1_555 1_555
C15 C14 1_555 1_555
H8 C15 1_555 1_555
C16 C15 1_555 1_555
H9 C16 1_555 1_555
C17 C16 1_555 1_555
H10 C17 1_555 1_555
C18 C17 1_555 1_555
H11 C18 1_555 1_555
C19 S1 1_555 1_555
C20 O4 1_555 1_555
C21 C20 1_555 1_555
H12 C21 1_555 1_555
H13 C21 1_555 1_555
C22 C21 1_555 1_555
H14 C22 1_555 1_555
H15 C22 1_555 1_555
C23 C22 1_555 1_555
H16 C23 1_555 1_555
H17 C23 1_555 1_555
C24 C23 1_555 1_555
O8 Gd1 1_555 1_555
H18 O8 1_555 1_555
H19 O8 1_555 1_555
Gd1_2 O6 1_555 1_555
Gd1A_2 O7 1_555 1_555
O1A Gd1 1_555 1_555
O6_2 Gd1 1_555 1_555
O7A Gd1 1_555 1_555
N4 C13 1_555 1_555
O5 C20 1_555 1_555
C4 C12 1_555 1_555
C5 C6 1_555 1_555
C7 C11 1_555 1_555
C9 C10 1_555 1_555
C11 C12 1_555 1_555
C14 C19 1_555 1_555
C18 C19 1_555 1_555

#END
