
#######################################################################
#
#                 Cambridge Crystallographic Data Centre
#                                CCDC 
#
#######################################################################
#
# If this CIF has been generated from an entry in the Cambridge 
# Structural Database, then it will include bibliographic, chemical, 
# crystal, experimental, refinement or atomic coordinate data resulting 
# from the CCDC's data processing and validation procedures.
#
#######################################################################

data_LUYHUK
_symmetry_cell_setting           triclinic
_symmetry_space_group_name_H-M   'P -1'
_symmetry_Int_Tables_number      2
_space_group_name_Hall           '-P 1'
loop_
_symmetry_equiv_pos_site_id
_symmetry_equiv_pos_as_xyz
1 x,y,z
2 -x,-y,-z
_cell_length_a                   8.8933(19)
_cell_length_b                   9.0472(19)
_cell_length_c                   14.467(3)
_cell_angle_alpha                94.285(4)
_cell_angle_beta                 90.906(4)
_cell_angle_gamma                98.511(4)
_cell_volume                     1147.54
loop_
_atom_site_label
_atom_site_type_symbol
_atom_site_fract_x
_atom_site_fract_y
_atom_site_fract_z
Y1 Y -0.05492(6) 0.43652(6) 0.84662(3)
S1 S 0.46085(15) 0.58240(15) 0.23411(9)
N1 N -0.0462(5) 0.6367(5) 0.7315(3)
N2 N 0.0707(5) 0.3830(5) 0.6954(3)
N3 N 0.2236(5) 0.8362(5) 0.4633(3)
N4 N 0.3242(5) 0.6269(5) 0.4340(3)
H1 H 0.3768 0.5640 0.4077
O1 O 0.2971(4) 0.5524(4) 0.2130(2)
O2 O 0.4995(4) 0.5003(4) 0.3111(2)
O3 O 0.5506(4) 0.5615(4) 0.1535(3)
O4 O -0.2098(4) 0.2858(4) 0.9480(2)
O5 O -0.1620(4) 0.1813(4) 0.8121(2)
O6 O -0.1003(4) -0.3898(4) 0.9547(3)
O7 O -0.1213(4) -0.2923(4) 1.0970(2)
C1 C -0.1147(6) 0.7575(6) 0.7474(4)
H2 H -0.1764 0.7621 0.7985
C2 C -0.0983(6) 0.8770(6) 0.6912(4)
H3 H -0.1491 0.9585 0.7042
C3 C -0.0073(6) 0.8724(6) 0.6175(3)
H4 H 0.0064 0.9520 0.5798
C4 C 0.0665(6) 0.7475(6) 0.5979(3)
C5 C 0.1686(6) 0.7338(6) 0.5226(3)
C6 C 0.2294(6) 0.6016(6) 0.5056(3)
C7 C 0.1970(6) 0.4756(6) 0.5592(3)
C8 C 0.2471(6) 0.3366(6) 0.5402(4)
H5 H 0.3069 0.3209 0.4892
C9 C 0.2065(6) 0.2245(6) 0.5977(4)
H6 H 0.2371 0.1311 0.5859
C10 C 0.1184(6) 0.2527(6) 0.6746(4)
H7 H 0.0918 0.1758 0.7131
C11 C 0.1052(5) 0.4936(5) 0.6368(3)
C12 C 0.0424(5) 0.6304(6) 0.6565(3)
C13 C 0.3211(6) 0.7698(6) 0.4114(4)
C14 C 0.4243(6) 0.8467(6) 0.3459(3)
C15 C 0.4574(6) 1.0015(6) 0.3630(4)
H8 H 0.4101 1.0483 0.4114
C16 C 0.5592(7) 1.0881(6) 0.3097(4)
H9 H 0.5768 1.1918 0.3213
C17 C 0.6343(7) 1.0198(7) 0.2393(4)
H10 H 0.7051 1.0764 0.2045
C18 C 0.6024(6) 0.8663(6) 0.2216(3)
H11 H 0.6531 0.8203 0.1745
C19 C 0.4973(6) 0.7786(6) 0.2716(3)
C20 C -0.2249(6) 0.1723(6) 0.8903(4)
C21 C -0.3080(6) 0.0266(6) 0.9147(4)
H12 H -0.3492 -0.0314 0.8584
H13 H -0.3926 0.0445 0.9534
C22 C -0.2073(6) -0.0622(6) 0.9652(4)
H14 H -0.1790 -0.0105 1.0255
H15 H -0.1148 -0.0653 0.9309
C23 C -0.2800(6) -0.2231(5) 0.9789(4)
H16 H -0.3603 -0.2224 1.0234
H17 H -0.3244 -0.2714 0.9206
C24 C -0.1604(6) -0.3082(6) 1.0133(4)
O8 O 0.1895(4) 0.5969(4) 0.8679(3)
H18 H 0.195(6) 0.647(5) 0.920(2)
H19 H 0.270(4) 0.560(6) 0.859(4)
Y1_2 Y -0.05492(6) -0.56348(6) 0.84662(3)
Y1A Y 0.05492(6) -0.43652(6) 1.15338(3)
Y1A_2 Y 0.05492(6) 0.56348(6) 0.15338(3)
O1A O -0.2971(4) 0.4476(4) 0.7870(2)
O6_2 O -0.1003(4) 0.6102(4) 0.9547(3)
O7A O 0.1213(4) 0.2923(4) 0.9030(2)
loop_
_geom_bond_atom_site_label_1
_geom_bond_atom_site_label_2
_geom_bond_site_symmetry_1
_geom_bond_site_symmetry_2
Y1 N1 1_555 1_555
S1 O1 1_555 1_555
N1 C1 1_555 1_555
N2 Y1 1_555 1_555
N3 C5 1_555 1_555
N4 H1 1_555 1_555
O1 Y1A_2 1_555 1_555
O2 S1 1_555 1_555
O3 S1 1_555 1_555
O4 Y1 1_555 1_555
O5 Y1 1_555 1_555
O6 C24 1_555 1_555
O7 C24 1_555 1_555
C1 H2 1_555 1_555
C2 C1 1_555 1_555
H3 C2 1_555 1_555
C3 C2 1_555 1_555
H4 C3 1_555 1_555
C4 C3 1_555 1_555
C5 C4 1_555 1_555
C6 N4 1_555 1_555
C7 C6 1_555 1_555
C8 C7 1_555 1_555
H5 C8 1_555 1_555
C9 C8 1_555 1_555
H6 C9 1_555 1_555
C10 N2 1_555 1_555
H7 C10 1_555 1_555
C11 N2 1_555 1_555
C12 N1 1_555 1_555
C13 N3 1_555 1_555
C14 C13 1_555 1_555
C15 C14 1_555 1_555
H8 C15 1_555 1_555
C16 C15 1_555 1_555
H9 C16 1_555 1_555
C17 C16 1_555 1_555
H10 C17 1_555 1_555
C18 C17 1_555 1_555
H11 C18 1_555 1_555
C19 S1 1_555 1_555
C20 O4 1_555 1_555
C21 C20 1_555 1_555
H12 C21 1_555 1_555
H13 C21 1_555 1_555
C22 C21 1_555 1_555
H14 C22 1_555 1_555
H15 C22 1_555 1_555
C23 C22 1_555 1_555
H16 C23 1_555 1_555
H17 C23 1_555 1_555
C24 C23 1_555 1_555
O8 Y1 1_555 1_555
H18 O8 1_555 1_555
H19 O8 1_555 1_555
Y1_2 O6 1_555 1_555
Y1A O7 1_555 1_555
O1A Y1 1_555 1_555
O6_2 Y1 1_555 1_555
O7A Y1 1_555 1_555
N4 C13 1_555 1_555
O5 C20 1_555 1_555
C4 C12 1_555 1_555
C5 C6 1_555 1_555
C7 C11 1_555 1_555
C9 C10 1_555 1_555
C11 C12 1_555 1_555
C14 C19 1_555 1_555
C18 C19 1_555 1_555

#END
