
#######################################################################
#
#                 Cambridge Crystallographic Data Centre
#                                CCDC 
#
#######################################################################
#
# If this CIF has been generated from an entry in the Cambridge 
# Structural Database, then it will include bibliographic, chemical, 
# crystal, experimental, refinement or atomic coordinate data resulting 
# from the CCDC's data processing and validation procedures.
#
#######################################################################

data_LUYHIY
_symmetry_cell_setting           triclinic
_symmetry_space_group_name_H-M   'P -1'
_symmetry_Int_Tables_number      2
_space_group_name_Hall           '-P 1'
loop_
_symmetry_equiv_pos_site_id
_symmetry_equiv_pos_as_xyz
1 x,y,z
2 -x,-y,-z
_cell_length_a                   8.8950(14)
_cell_length_b                   9.0742(14)
_cell_length_c                   14.465(2)
_cell_angle_alpha                94.250(2)
_cell_angle_beta                 91.157(3)
_cell_angle_gamma                97.971(2)
_cell_volume                     1152.53
loop_
_atom_site_label
_atom_site_type_symbol
_atom_site_fract_x
_atom_site_fract_y
_atom_site_fract_z
Ho1 Ho -0.05478(3) 0.43744(3) 0.846278(18)
S1 S 0.46083(16) 0.58061(17) 0.23585(10)
N1 N -0.0467(5) 0.6375(5) 0.7320(3)
N2 N 0.0693(5) 0.3822(5) 0.6948(3)
N3 N 0.2246(5) 0.8375(5) 0.4643(3)
N4 N 0.3228(5) 0.6250(5) 0.4346(3)
H1 H 0.3755 0.5622 0.4081
O1 O 0.2981(4) 0.5510(4) 0.2147(3)
O2 O 0.5010(4) 0.4981(5) 0.3128(3)
O3 O 0.5516(5) 0.5581(5) 0.1560(3)
O4 O -0.2083(4) 0.2892(5) 0.9479(3)
O5 O -0.1613(4) 0.1828(4) 0.8134(3)
O6 O -0.1010(4) -0.3894(4) 0.9541(3)
O7 O -0.1217(4) -0.2931(4) 1.0968(3)
C1 C -0.1151(7) 0.7582(7) 0.7474(4)
H2 H -0.1774 0.7626 0.7981
C2 C -0.0987(6) 0.8777(7) 0.6923(4)
H3 H -0.1488 0.9597 0.7060
C3 C -0.0081(6) 0.8730(6) 0.6179(4)
H4 H 0.0038 0.9516 0.5797
C4 C 0.0669(6) 0.7494(6) 0.5990(4)
C5 C 0.1674(6) 0.7325(6) 0.5238(4)
C6 C 0.2273(6) 0.6005(6) 0.5069(4)
C7 C 0.1943(6) 0.4734(6) 0.5595(4)
C8 C 0.2440(6) 0.3362(6) 0.5407(4)
H5 H 0.3032 0.3204 0.4896
C9 C 0.2053(6) 0.2254(7) 0.5974(4)
H6 H 0.2362 0.1323 0.5851
C10 C 0.1177(6) 0.2534(7) 0.6752(4)
H7 H 0.0930 0.1774 0.7143
C11 C 0.1042(6) 0.4924(6) 0.6366(4)
C12 C 0.0414(6) 0.6308(6) 0.6574(4)
C13 C 0.3183(6) 0.7685(6) 0.4126(4)
C14 C 0.4218(6) 0.8446(6) 0.3470(4)
C15 C 0.4551(7) 0.9984(7) 0.3636(4)
H8 H 0.4076 1.0452 0.4119
C16 C 0.5557(7) 1.0849(7) 0.3115(4)
H9 H 0.5729 1.1880 0.3234
C17 C 0.6305(7) 1.0162(7) 0.2414(4)
H10 H 0.7016 1.0728 0.2074
C18 C 0.5996(6) 0.8627(7) 0.2216(4)
H11 H 0.6494 0.8176 0.1736
C19 C 0.4955(6) 0.7756(6) 0.2723(4)
C20 C -0.2222(6) 0.1748(7) 0.8911(4)
C21 C -0.3075(7) 0.0298(7) 0.9162(5)
H12 H -0.3502 -0.0275 0.8602
H13 H -0.3909 0.0496 0.9553
C22 C -0.2066(7) -0.0605(7) 0.9665(5)
H14 H -0.1781 -0.0100 1.0270
H15 H -0.1143 -0.0640 0.9322
C23 C -0.2801(7) -0.2218(7) 0.9793(4)
H16 H -0.3601 -0.2205 1.0238
H17 H -0.3250 -0.2681 0.9207
C24 C -0.1637(6) -0.3091(6) 1.0126(4)
O8 O 0.1878(5) 0.5972(5) 0.8670(3)
H18 H 0.274(4) 0.570(7) 0.861(4)
H19 H 0.217(6) 0.637(6) 0.920(2)
Ho1_2 Ho -0.05478(3) -0.56256(3) 0.846278(18)
Ho1A Ho 0.05478(3) -0.43744(3) 1.153722(18)
Ho1A_2 Ho 0.05478(3) 0.56256(3) 0.153722(18)
O1A O -0.2981(4) 0.4490(4) 0.7853(3)
O6_2 O -0.1010(4) 0.6106(4) 0.9541(3)
O7A O 0.1217(4) 0.2931(4) 0.9032(3)
loop_
_geom_bond_atom_site_label_1
_geom_bond_atom_site_label_2
_geom_bond_site_symmetry_1
_geom_bond_site_symmetry_2
Ho1 N1 1_555 1_555
S1 O1 1_555 1_555
N1 C1 1_555 1_555
N2 Ho1 1_555 1_555
N3 C5 1_555 1_555
N4 H1 1_555 1_555
O1 Ho1A_2 1_555 1_555
O2 S1 1_555 1_555
O3 S1 1_555 1_555
O4 Ho1 1_555 1_555
O5 Ho1 1_555 1_555
O6 C24 1_555 1_555
O7 C24 1_555 1_555
C1 H2 1_555 1_555
C2 C1 1_555 1_555
H3 C2 1_555 1_555
C3 C2 1_555 1_555
H4 C3 1_555 1_555
C4 C3 1_555 1_555
C5 C4 1_555 1_555
C6 N4 1_555 1_555
C7 C6 1_555 1_555
C8 C7 1_555 1_555
H5 C8 1_555 1_555
C9 C8 1_555 1_555
H6 C9 1_555 1_555
C10 N2 1_555 1_555
H7 C10 1_555 1_555
C11 N2 1_555 1_555
C12 N1 1_555 1_555
C13 N3 1_555 1_555
C14 C13 1_555 1_555
C15 C14 1_555 1_555
H8 C15 1_555 1_555
C16 C15 1_555 1_555
H9 C16 1_555 1_555
C17 C16 1_555 1_555
H10 C17 1_555 1_555
C18 C17 1_555 1_555
H11 C18 1_555 1_555
C19 S1 1_555 1_555
C20 O4 1_555 1_555
C21 C20 1_555 1_555
H12 C21 1_555 1_555
H13 C21 1_555 1_555
C22 C21 1_555 1_555
H14 C22 1_555 1_555
H15 C22 1_555 1_555
C23 C22 1_555 1_555
H16 C23 1_555 1_555
H17 C23 1_555 1_555
C24 C23 1_555 1_555
O8 Ho1 1_555 1_555
H18 O8 1_555 1_555
H19 O8 1_555 1_555
Ho1_2 O6 1_555 1_555
Ho1A O7 1_555 1_555
O1A Ho1 1_555 1_555
O6_2 Ho1 1_555 1_555
O7A Ho1 1_555 1_555
N4 C13 1_555 1_555
O5 C20 1_555 1_555
C4 C12 1_555 1_555
C5 C6 1_555 1_555
C7 C11 1_555 1_555
C9 C10 1_555 1_555
C11 C12 1_555 1_555
C14 C19 1_555 1_555
C18 C19 1_555 1_555

#END
