
#######################################################################
#
#                 Cambridge Crystallographic Data Centre
#                                CCDC 
#
#######################################################################
#
# If this CIF has been generated from an entry in the Cambridge 
# Structural Database, then it will include bibliographic, chemical, 
# crystal, experimental, refinement or atomic coordinate data resulting 
# from the CCDC's data processing and validation procedures.
#
#######################################################################

data_LUYJAS
_symmetry_cell_setting           monoclinic
_symmetry_space_group_name_H-M   'P 21/c'
_symmetry_Int_Tables_number      14
_space_group_name_Hall           '-P 2ybc'
loop_
_symmetry_equiv_pos_site_id
_symmetry_equiv_pos_as_xyz
1 x,y,z
2 -x,1/2+y,1/2-z
3 -x,-y,-z
4 x,1/2-y,1/2+z
_cell_length_a                   13.6008(12)
_cell_length_b                   13.5013(12)
_cell_length_c                   13.1330(12)
_cell_angle_alpha                90
_cell_angle_beta                 96.2310(10)
_cell_angle_gamma                90
_cell_volume                     2397.35
loop_
_atom_site_label
_atom_site_type_symbol
_atom_site_fract_x
_atom_site_fract_y
_atom_site_fract_z
Pr1 Pr 0.644977(10) 0.024817(10) 0.550061(11)
S1 S 1.21493(5) 0.46911(5) 0.68577(5)
N1 N 0.76151(16) 0.17347(16) 0.61218(17)
N2 N 0.81803(16) 0.04471(15) 0.47014(17)
N3 N 1.04365(15) 0.38024(16) 0.53990(17)
H1 H 1.0385 0.4350 0.5723
N4 N 1.10383(16) 0.26572(17) 0.44184(17)
O1 O 1.29527(15) 0.51261(14) 0.75468(15)
O2 O 1.12435(15) 0.52585(15) 0.67850(17)
O3 O 1.19981(15) 0.36525(15) 0.70893(15)
O4 O 0.62916(14) 0.16518(15) 0.42135(16)
O5 O 0.48983(13) 0.08542(13) 0.42682(13)
O6 O 0.53177(13) 0.37337(14) 0.13811(14)
O7 O 0.37523(13) 0.42406(15) 0.10247(14)
C1 C 0.7360(2) 0.2333(2) 0.6847(2)
H2 H 0.6845 0.2139 0.7214
C2 C 0.7818(2) 0.3237(2) 0.7092(2)
H3 H 0.7607 0.3638 0.7601
C3 C 0.8583(2) 0.3519(2) 0.6569(2)
H4 H 0.8890 0.4128 0.6703
C4 C 0.89032(19) 0.28916(19) 0.5832(2)
C5 C 0.97604(19) 0.3045(2) 0.5313(2)
C6 C 1.01334(19) 0.2357(2) 0.4684(2)
C7 C 0.96060(19) 0.14494(19) 0.4429(2)
C8 C 0.99173(19) 0.0723(2) 0.3774(2)
H5 H 1.0493 0.0810 0.3461
C9 C 0.9362(2) -0.0115(2) 0.3601(2)
H6 H 0.9562 -0.0613 0.3179
C10 C 0.8498(2) -0.0217(2) 0.4062(2)
H7 H 0.8118 -0.0782 0.3917
C11 C 0.87279(19) 0.12817(19) 0.4890(2)
C12 C 0.83938(18) 0.19889(19) 0.5619(2)
C13 C 1.12027(19) 0.35259(19) 0.4877(2)
C14 C 1.20995(19) 0.4124(2) 0.4809(2)
C15 C 1.2521(2) 0.4101(2) 0.3885(2)
H8 H 1.2237 0.3706 0.3351
C16 C 1.3348(2) 0.4650(2) 0.3750(3)
H9 H 1.3618 0.4627 0.3129
C17 C 1.3774(2) 0.5235(2) 0.4532(3)
H10 H 1.4324 0.5619 0.4435
C18 C 1.3390(2) 0.5254(2) 0.5459(2)
H11 H 1.3689 0.5644 0.5989
C19 C 1.2564(2) 0.4697(2) 0.5610(2)
C20 C 0.5386(2) 0.15673(19) 0.3946(2)
C21 C 0.4845(2) 0.2301(2) 0.3229(2)
H12 H 0.5219 0.2913 0.3236
H13 H 0.4207 0.2448 0.3459
C22 C 0.4695(2) 0.1894(2) 0.2141(2)
H14 H 0.5332 0.1835 0.1879
H15 H 0.4408 0.1237 0.2152
C23 C 0.4023(2) 0.2555(2) 0.1431(3)
H16 H 0.3912 0.2234 0.0767
H17 H 0.3389 0.2603 0.1700
C24 C 0.4399(2) 0.3589(2) 0.1277(2)
O8 O 0.73507(16) -0.13668(16) 0.59033(16)
H18 H 0.774(2) -0.173(2) 0.562(2)
H19 H 0.748(2) -0.144(2) 0.6546(14)
Pr1A Pr 0.355023(10) 0.524817(10) -0.050061(11)
Pr1A_2 Pr 1.355023(10) 0.524817(10) 0.949939(11)
Pr1B Pr 0.355023(10) -0.024817(10) 0.449939(11)
Pr1C Pr 0.644977(10) 0.475183(10) 0.050061(11)
O1A O 0.70473(15) 0.01261(14) 0.74532(15)
O5B O 0.51017(13) -0.08542(13) 0.57318(13)
O6C O 0.53177(13) 0.12663(14) 0.63811(14)
O7A O 0.62477(13) -0.07594(15) 0.39753(14)
loop_
_geom_bond_atom_site_label_1
_geom_bond_atom_site_label_2
_geom_bond_site_symmetry_1
_geom_bond_site_symmetry_2
Pr1 N1 1_555 1_555
S1 O1 1_555 1_555
N1 C1 1_555 1_555
N2 Pr1 1_555 1_555
N3 H1 1_555 1_555
N4 C6 1_555 1_555
O1 Pr1A_2 1_555 1_555
O2 S1 1_555 1_555
O3 S1 1_555 1_555
O4 Pr1 1_555 1_555
O5 Pr1 1_555 1_555
O6 C24 1_555 1_555
O7 C24 1_555 1_555
C1 H2 1_555 1_555
C2 C1 1_555 1_555
H3 C2 1_555 1_555
C3 C2 1_555 1_555
H4 C3 1_555 1_555
C4 C3 1_555 1_555
C5 N3 1_555 1_555
C6 C5 1_555 1_555
C7 C6 1_555 1_555
C8 C7 1_555 1_555
H5 C8 1_555 1_555
C9 C8 1_555 1_555
H6 C9 1_555 1_555
C10 N2 1_555 1_555
H7 C10 1_555 1_555
C11 N2 1_555 1_555
C12 N1 1_555 1_555
C13 N3 1_555 1_555
C14 C13 1_555 1_555
C15 C14 1_555 1_555
H8 C15 1_555 1_555
C16 C15 1_555 1_555
H9 C16 1_555 1_555
C17 C16 1_555 1_555
H10 C17 1_555 1_555
C18 C17 1_555 1_555
H11 C18 1_555 1_555
C19 S1 1_555 1_555
C20 O4 1_555 1_555
C21 C20 1_555 1_555
H12 C21 1_555 1_555
H13 C21 1_555 1_555
C22 C21 1_555 1_555
H14 C22 1_555 1_555
H15 C22 1_555 1_555
C23 C22 1_555 1_555
H16 C23 1_555 1_555
H17 C23 1_555 1_555
C24 C23 1_555 1_555
O8 Pr1 1_555 1_555
H18 O8 1_555 1_555
H19 O8 1_555 1_555
Pr1A O7 1_555 1_555
Pr1B O5 1_555 1_555
Pr1C O6 1_555 1_555
O1A Pr1 1_555 1_555
O5B Pr1 1_555 1_555
O6C Pr1 1_555 1_555
O7A Pr1 1_555 1_555
N4 C13 1_555 1_555
O5 C20 1_555 1_555
C4 C5 1_555 1_555
C4 C12 1_555 1_555
C7 C11 1_555 1_555
C9 C10 1_555 1_555
C11 C12 1_555 1_555
C14 C19 1_555 1_555
C18 C19 1_555 1_555
Pr1B O5B 1_555 1_555

#END
