
#######################################################################
#
#                 Cambridge Crystallographic Data Centre
#                                CCDC 
#
#######################################################################
#
# If this CIF has been generated from an entry in the Cambridge 
# Structural Database, then it will include bibliographic, chemical, 
# crystal, experimental, refinement or atomic coordinate data resulting 
# from the CCDC's data processing and validation procedures.
#
#######################################################################

data_LUYSUT
_symmetry_cell_setting           monoclinic
_symmetry_space_group_name_H-M   'P 21/c'
_symmetry_Int_Tables_number      14
_space_group_name_Hall           '-P 2ybc'
loop_
_symmetry_equiv_pos_site_id
_symmetry_equiv_pos_as_xyz
1 x,y,z
2 -x,1/2+y,1/2-z
3 -x,-y,-z
4 x,1/2-y,1/2+z
_cell_length_a                   17.9115(6)
_cell_length_b                   14.3637(5)
_cell_length_c                   22.6795(8)
_cell_angle_alpha                90
_cell_angle_beta                 94.744(1)
_cell_angle_gamma                90
_cell_volume                     5814.89
loop_
_atom_site_label
_atom_site_type_symbol
_atom_site_fract_x
_atom_site_fract_y
_atom_site_fract_z
Cu1 Cu 0.4254(1) -0.1867(1) -0.1634(1)
Cu2 Cu 0.1263(1) -0.1524(1) -0.1191(1)
Cu3 Cu 0.2740(1) -0.4946(1) -0.0068(1)
O1 O 0.3321(2) -0.1900(3) 0.0019(2)
O2 O 0.3743(2) -0.2603(2) -0.1081(2)
O3 O 0.2836(2) -0.3697(2) -0.0338(2)
O4 O 0.2189(2) -0.2096(2) -0.0926(2)
O5 O 0.2917(2) -0.5449(2) -0.1063(2)
O6 O 0.3816(2) -0.5695(2) -0.1944(2)
O7 O 0.2295(2) -0.5740(2) -0.2253(1)
O8 O 0.3512(2) -0.7203(2) -0.1238(1)
O9 O 0.2047(2) -0.7066(2) -0.1488(1)
O10 O 0.3052(2) -0.5856(2) -0.3264(2)
O11 O 0.1548(2) -0.5793(2) -0.3378(2)
O12 O 0.4569(2) -0.7654(2) -0.2023(2)
O13 O 0.2937(2) -0.7392(2) -0.2353(1)
O14 O 0.1416(2) -0.7356(2) -0.2641(1)
O15 O 0.4227(2) -0.8945(3) -0.1229(2)
O16 O 0.2674(2) -0.8828(2) -0.1603(1)
O17 O 0.1117(2) -0.8532(2) -0.1702(2)
O18 O 0.1860(2) -0.0449(2) -0.1838(2)
O19 O 0.3574(2) -0.9024(2) -0.2398(1)
O20 O 0.2083(2) -0.8936(2) -0.2675(1)
O21 O 0.3917(2) -0.7718(2) -0.3279(1)
O22 O 0.2338(2) -0.7538(2) -0.3434(1)
O23 O 0.0764(2) -0.7542(2) -0.3819(1)
O24 O 0.3028(2) -0.9235(2) -0.3547(1)
O25 O 0.0497(2) -0.8868(2) -0.3015(2)
O26 O 0.2720(2) -1.0582(2) -0.2805(1)
O27 O 0.1282(2) -1.0818(2) -0.3280(2)
O28 O 0.2340(2) -1.0843(2) -0.4059(2)
O29 O 0.1576(2) -0.9167(2) -0.3815(1)
O30 O 0.3370(2) -0.0608(2) -0.1668(1)
C1 C 0.3345(3) -0.3204(3) -0.2401(2)
C2 C 0.3024(3) -0.3522(4) -0.2932(2)
C3 C 0.3141(3) -0.3043(4) -0.3448(2)
C4 C 0.3587(3) -0.2261(4) -0.3405(2)
C5 C 0.3906(3) -0.1977(3) -0.2856(2)
C6 C 0.4404(3) -0.1140(3) -0.2773(2)
C7 C 0.5192(3) -0.0387(3) -0.1940(2)
C8 C 0.5350(3) -0.0545(3) -0.1294(2)
C9 C 0.5866(3) -0.0016(4) -0.0944(2)
C10 C 0.5981(3) -0.0199(4) -0.0352(3)
C11 C 0.5581(3) -0.0900(5) -0.0110(3)
C12 C 0.5057(3) -0.1380(4) -0.0472(2)
C13 C 0.1799(4) -0.0376(4) -0.0151(3)
C14 C 0.1752(4) 0.0334(4) 0.0258(3)
C15 C 0.1146(4) 0.0913(4) 0.0188(3)
C16 C 0.0608(3) 0.0781(4) -0.0276(3)
C17 C 0.0700(3) 0.0067(4) -0.0673(3)
C18 C 0.0173(3) -0.0091(4) -0.1216(3)
C19 C 0.0177(3) -0.1091(4) -0.2114(2)
C20 C 0.0531(3) -0.1988(4) -0.2283(3)
C21 C 0.0353(4) -0.2419(5) -0.2826(3)
C22 C 0.0698(4) -0.3235(5) -0.2947(3)
C23 C 0.1190(4) -0.3632(5) -0.2526(3)
C24 C 0.1351(3) -0.3172(4) -0.2002(3)
C25 C 0.4262(3) -0.4373(3) 0.0439(2)
C26 C 0.4951(3) -0.4528(4) 0.0742(2)
C27 C 0.5155(3) -0.5423(4) 0.0898(2)
C28 C 0.4658(3) -0.6145(4) 0.0750(2)
C29 C 0.3976(3) -0.5950(3) 0.0447(2)
C30 C 0.3404(3) -0.6680(3) 0.0260(2)
C31 C 0.2042(3) -0.6738(4) -0.0101(2)
C32 C 0.1461(3) -0.6056(4) -0.0324(2)
C33 C 0.0744(3) -0.6325(5) -0.0542(3)
C34 C 0.0252(4) -0.5657(7) -0.0765(3)
C35 C 0.0472(4) -0.4739(6) -0.0770(3)
C36 C 0.1188(3) -0.4514(5) -0.0550(3)
N1 N 0.3769(2) -0.2438(3) -0.2364(2)
N2 N 0.4870(2) -0.1251(3) -0.2206(2)
N3 N 0.4949(2) -0.1211(3) -0.1056(2)
N4 N 0.1285(2) -0.0503(3) -0.0601(2)
N5 N 0.0271(3) -0.1016(3) -0.1468(2)
N6 N 0.1034(2) -0.2350(3) -0.1880(2)
N7 N 0.3781(2) -0.5066(3) 0.0291(2)
N8 N 0.2653(2) -0.6237(3) 0.0234(2)
N9 N 0.1671(2) -0.5156(3) -0.0330(2)
H1 H 0.3267 -0.3531 -0.2058
H2 H 0.2728 -0.4055 -0.2947
H3 H 0.2925 -0.3244 -0.3813
H4 H 0.3675 -0.1924 -0.3743
H5 H 0.4721 -0.1090 -0.3098
H6 H 0.4104 -0.0579 -0.2763
H7 H 0.4841 0.0123 -0.2010
H8 H 0.5651 -0.0230 -0.2117
H9 H 0.6130 0.0459 -0.1112
H10 H 0.6327 0.0147 -0.0115
H11 H 0.5662 -0.1047 0.0289
H12 H 0.4769 -0.1834 -0.0307
H13 H 0.2207 -0.0779 -0.0109
H14 H 0.2119 0.0413 0.0568
H15 H 0.1097 0.1398 0.0453
H16 H 0.0189 0.1166 -0.0322
H17 H -0.0339 -0.0023 -0.1114
H18 H 0.0263 0.0378 -0.1510
H19 H 0.0416 -0.0570 -0.2294
H20 H -0.0351 -0.1089 -0.2250
H21 H 0.0003 -0.2154 -0.3102
H22 H 0.0600 -0.3520 -0.3313
H23 H 0.1411 -0.4203 -0.2595
H24 H 0.1692 -0.3438 -0.1718
H25 H 0.4127 -0.3767 0.0334
H26 H 0.5273 -0.4033 0.0840
H27 H 0.5618 -0.5543 0.1100
H28 H 0.4785 -0.6754 0.0854
H29 H 0.3497 -0.6926 -0.0125
H30 H 0.3430 -0.7189 0.0542
H31 H 0.1826 -0.7192 0.0151
H32 H 0.2234 -0.7065 -0.0431
H33 H 0.0602 -0.6947 -0.0538
H34 H -0.0229 -0.5824 -0.0912
H35 H 0.0142 -0.4279 -0.0919
H36 H 0.1340 -0.3895 -0.0556
H37 H 0.5256 -0.1639 -0.2272
H38 H -0.0079 -0.1394 -0.1323
H39 H 0.2525 -0.6191 0.0613
Mo1 Mo 0.3023(1) -0.2569(1) -0.0585(1)
Mo2 Mo 0.3047(1) -0.6145(1) -0.1655(1)
Mo3 Mo 0.2282(1) -0.6336(1) -0.3001(1)
Mo4 Mo 0.1876(1) -0.8022(1) -0.1953(1)
Mo5 Mo 0.3835(1) -0.8167(1) -0.1720(1)
Mo6 Mo 0.2671(1) -1.0004(1) -0.2057(1)
Mo7 Mo 0.3157(1) -0.8285(1) -0.3063(1)
Mo8 Mo 0.1201(1) -0.8266(1) -0.3295(1)
Mo9 Mo 0.2060(1) -1.0244(1) -0.3464(1)
Mo6_2 Mo 0.2671(1) -0.0004(1) -0.2057(1)
O18_2 O 0.1860(2) -1.0449(2) -0.1838(2)
O30_2 O 0.3370(2) -1.0608(2) -0.1668(1)
Cu2_2 Cu 0.1263(1) -1.1524(1) -0.1191(1)
Cu1_2 Cu 0.4254(1) -1.1867(1) -0.1634(1)
O31 O 0.1316(3) -0.2674(4) -0.9315(3)
O32 O 0.0563(3) -0.2315(3) -0.0424(2)
loop_
_geom_bond_atom_site_label_1
_geom_bond_atom_site_label_2
_geom_bond_site_symmetry_1
_geom_bond_site_symmetry_2
Cu1 O2 1_555 1_555
Cu2 O4 1_555 1_555
Cu3 O3 1_555 1_555
O1 Mo1 1_555 1_555
O2 Mo1 1_555 1_555
O3 Mo1 1_555 1_555
O4 Mo1 1_555 1_555
O5 Cu3 1_555 1_555
O6 Mo2 1_555 1_555
O7 Mo2 1_555 1_555
O8 Mo2 1_555 1_555
O9 Mo2 1_555 1_555
O10 Mo3 1_555 1_555
O11 Mo3 1_555 1_555
O12 Mo5 1_555 1_555
O13 Mo2 1_555 1_555
O14 Mo3 1_555 1_555
O15 Mo5 1_555 1_555
O16 Mo4 1_555 1_555
O17 Mo4 1_555 1_555
O18 Cu2 1_555 1_555
O19 Mo5 1_555 1_555
O20 Mo4 1_555 1_555
O21 Mo7 1_555 1_555
O22 Mo3 1_555 1_555
O23 Mo8 1_555 1_555
O24 Mo7 1_555 1_555
O25 Mo8 1_555 1_555
O26 Mo6 1_555 1_555
O27 Mo9 1_555 1_555
O28 Mo9 1_555 1_555
O29 Mo8 1_555 1_555
O30 Cu1 1_555 1_555
C1 C2 1_555 1_555
C2 C3 1_555 1_555
C3 C4 1_555 1_555
C4 C5 1_555 1_555
C5 C6 1_555 1_555
C6 N2 1_555 1_555
C7 C8 1_555 1_555
C8 C9 1_555 1_555
C9 C10 1_555 1_555
C10 C11 1_555 1_555
C11 C12 1_555 1_555
C12 N3 1_555 1_555
C13 C14 1_555 1_555
C14 C15 1_555 1_555
C15 C16 1_555 1_555
C16 C17 1_555 1_555
C17 C18 1_555 1_555
C18 N5 1_555 1_555
C19 C20 1_555 1_555
C20 C21 1_555 1_555
C21 C22 1_555 1_555
C22 C23 1_555 1_555
C23 C24 1_555 1_555
C24 N6 1_555 1_555
C25 C26 1_555 1_555
C26 C27 1_555 1_555
C27 C28 1_555 1_555
C28 C29 1_555 1_555
C29 C30 1_555 1_555
C30 N8 1_555 1_555
C31 C32 1_555 1_555
C32 C33 1_555 1_555
C33 C34 1_555 1_555
C34 C35 1_555 1_555
C35 C36 1_555 1_555
C36 N9 1_555 1_555
N1 Cu1 1_555 1_555
N2 Cu1 1_555 1_555
N3 Cu1 1_555 1_555
N4 Cu2 1_555 1_555
N5 Cu2 1_555 1_555
N6 Cu2 1_555 1_555
N7 Cu3 1_555 1_555
N8 Cu3 1_555 1_555
N9 Cu3 1_555 1_555
H1 C1 1_555 1_555
H2 C2 1_555 1_555
H3 C3 1_555 1_555
H4 C4 1_555 1_555
H5 C6 1_555 1_555
H6 C6 1_555 1_555
H7 C7 1_555 1_555
H8 C7 1_555 1_555
H9 C9 1_555 1_555
H10 C10 1_555 1_555
H11 C11 1_555 1_555
H12 C12 1_555 1_555
H13 C13 1_555 1_555
H14 C14 1_555 1_555
H15 C15 1_555 1_555
H16 C16 1_555 1_555
H17 C18 1_555 1_555
H18 C18 1_555 1_555
H19 C19 1_555 1_555
H20 C19 1_555 1_555
H21 C21 1_555 1_555
H22 C22 1_555 1_555
H23 C23 1_555 1_555
H24 C24 1_555 1_555
H25 C25 1_555 1_555
H26 C26 1_555 1_555
H27 C27 1_555 1_555
H28 C28 1_555 1_555
H29 C30 1_555 1_555
H30 C30 1_555 1_555
H31 C31 1_555 1_555
H32 C31 1_555 1_555
H33 C33 1_555 1_555
H34 C34 1_555 1_555
H35 C35 1_555 1_555
H36 C36 1_555 1_555
H37 N2 1_555 1_555
H38 N5 1_555 1_555
H39 N8 1_555 1_555
Mo2 O5 1_555 1_555
Mo3 O7 1_555 1_555
Mo4 O9 1_555 1_555
Mo5 O8 1_555 1_555
Mo6 O16 1_555 1_555
Mo7 O13 1_555 1_555
Mo8 O14 1_555 1_555
Mo9 O20 1_555 1_555
Mo6_2 O18 1_555 1_555
O18_2 Mo6 1_555 1_555
O30_2 Mo6 1_555 1_555
Cu2_2 O18_2 1_555 1_555
Cu1_2 O30_2 1_555 1_555
O13 Mo3 1_555 1_555
O13 Mo4 1_555 1_555
O13 Mo5 1_555 1_555
O14 Mo4 1_555 1_555
O16 Mo5 1_555 1_555
O19 Mo6 1_555 1_555
O19 Mo7 1_555 1_555
O20 Mo6 1_555 1_555
O20 Mo7 1_555 1_555
O20 Mo8 1_555 1_555
O22 Mo7 1_555 1_555
O22 Mo8 1_555 1_555
O24 Mo9 1_555 1_555
O26 Mo9 1_555 1_555
O29 Mo9 1_555 1_555
O30 Mo6_2 1_555 1_555
C1 N1 1_555 1_555
C5 N1 1_555 1_555
C7 N2 1_555 1_555
C8 N3 1_555 1_555
C13 N4 1_555 1_555
C17 N4 1_555 1_555
C19 N5 1_555 1_555
C20 N6 1_555 1_555
C25 N7 1_555 1_555
C29 N7 1_555 1_555
C31 N8 1_555 1_555
C32 N9 1_555 1_555

#END
