
#######################################################################
#
#                 Cambridge Crystallographic Data Centre
#                                CCDC 
#
#######################################################################
#
# If this CIF has been generated from an entry in the Cambridge 
# Structural Database, then it will include bibliographic, chemical, 
# crystal, experimental, refinement or atomic coordinate data resulting 
# from the CCDC's data processing and validation procedures.
#
#######################################################################

data_LUYYIN
_symmetry_cell_setting           monoclinic
_symmetry_space_group_name_H-M   'P 21/c'
_symmetry_Int_Tables_number      14
_space_group_name_Hall           '-P 2ybc'
loop_
_symmetry_equiv_pos_site_id
_symmetry_equiv_pos_as_xyz
1 x,y,z
2 x,1/2-y,1/2+z
3 -x,-y,-z
4 -x,1/2+y,1/2-z
_cell_length_a                   12.895(2)
_cell_length_b                   6.3282(10)
_cell_length_c                   20.922(3)
_cell_angle_alpha                90.00
_cell_angle_beta                 98.471(2)
_cell_angle_gamma                90.00
_cell_volume                     1688.65
loop_
_atom_site_label
_atom_site_type_symbol
_atom_site_fract_x
_atom_site_fract_y
_atom_site_fract_z
Ti1 Ti 0.41712(4) 0.25143(8) 0.47134(2)
Cl1 Cl 0.59583(5) 0.07392(11) 0.46707(3)
Cl2 Cl 0.47958(5) 0.57928(11) 0.42793(3)
N1 N 0.28179(18) 0.3248(4) 0.48228(10)
N2 N 0.34832(18) 0.1855(4) 0.38983(10)
B1 B 0.2537(3) 0.2548(5) 0.41491(15)
C1 C 0.2086(2) 0.3837(5) 0.52830(13)
C2 C 0.1536(2) 0.5896(5) 0.50635(15)
H1 H 0.2059 0.6964 0.4996
H2 H 0.1129 0.6389 0.5395
H3 H 0.1064 0.5660 0.4658
C3 C 0.1308(3) 0.2081(6) 0.53296(17)
H4 H 0.0883 0.1863 0.4906
H5 H 0.0850 0.2465 0.5646
H6 H 0.1685 0.0776 0.5467
C4 C 0.2731(3) 0.4192(6) 0.59479(14)
H7 H 0.3131 0.2911 0.6083
H8 H 0.2260 0.4519 0.6262
H9 H 0.3215 0.5374 0.5925
C5 C 0.3583(2) 0.1377(5) 0.32103(12)
C6 C 0.3001(3) -0.0662(6) 0.30111(15)
H10 H 0.3220 -0.1761 0.3333
H11 H 0.3163 -0.1115 0.2589
H12 H 0.2245 -0.0426 0.2983
C7 C 0.3162(3) 0.3207(6) 0.27803(14)
H13 H 0.2404 0.3335 0.2780
H14 H 0.3301 0.2951 0.2339
H15 H 0.3508 0.4518 0.2945
C8 C 0.4730(2) 0.1071(6) 0.31551(15)
H16 H 0.5125 0.2333 0.3316
H17 H 0.4808 0.0840 0.2701
H18 H 0.5001 -0.0158 0.3412
C9 C 0.1384(2) 0.2505(5) 0.37675(13)
C10 C 0.0901(2) 0.4291(5) 0.34718(14)
H19 H 0.1277 0.5585 0.3483
C11 C -0.0128(3) 0.4202(6) 0.31591(15)
H20 H -0.0450 0.5437 0.2963
C12 C -0.0678(3) 0.2346(7) 0.31323(15)
H21 H -0.1381 0.2296 0.2919
C13 C -0.0214(3) 0.0566(6) 0.34130(15)
H22 H -0.0594 -0.0724 0.3392
C14 C 0.0806(2) 0.0639(5) 0.37265(14)
H23 H 0.1120 -0.0611 0.3918
Cl1B Cl 0.40417(5) -0.07392(11) 0.53293(3)
Cl2B Cl 0.52042(5) 0.42072(11) 0.57207(3)
Ti1B Ti 0.58288(4) -0.25143(8) 0.52866(2)
Ti1B_2 Ti 0.58288(4) 0.74857(8) 0.52866(2)
loop_
_geom_bond_atom_site_label_1
_geom_bond_atom_site_label_2
_geom_bond_site_symmetry_1
_geom_bond_site_symmetry_2
Ti1 Cl1 1_555 1_555
Cl1 Ti1B 1_555 1_555
Cl2 Ti1 1_555 1_555
N1 Ti1 1_555 1_555
N2 Ti1 1_555 1_555
B1 N1 1_555 1_555
C1 N1 1_555 1_555
C2 C1 1_555 1_555
H1 C2 1_555 1_555
H2 C2 1_555 1_555
H3 C2 1_555 1_555
C3 C1 1_555 1_555
H4 C3 1_555 1_555
H5 C3 1_555 1_555
H6 C3 1_555 1_555
C4 C1 1_555 1_555
H7 C4 1_555 1_555
H8 C4 1_555 1_555
H9 C4 1_555 1_555
C5 N2 1_555 1_555
C6 C5 1_555 1_555
H10 C6 1_555 1_555
H11 C6 1_555 1_555
H12 C6 1_555 1_555
C7 C5 1_555 1_555
H13 C7 1_555 1_555
H14 C7 1_555 1_555
H15 C7 1_555 1_555
C8 C5 1_555 1_555
H16 C8 1_555 1_555
H17 C8 1_555 1_555
H18 C8 1_555 1_555
C9 B1 1_555 1_555
C10 C9 1_555 1_555
H19 C10 1_555 1_555
C11 C10 1_555 1_555
H20 C11 1_555 1_555
C12 C11 1_555 1_555
H21 C12 1_555 1_555
C13 C12 1_555 1_555
H22 C13 1_555 1_555
C14 C9 1_555 1_555
H23 C14 1_555 1_555
Cl1B Ti1 1_555 1_555
Cl2B Ti1 1_555 1_555
Ti1B Cl1B 1_555 1_555
Ti1B_2 Cl2 1_555 1_555
N2 B1 1_555 1_555
C13 C14 1_555 1_555
Cl2B Ti1B_2 1_555 1_555

#END
