
#######################################################################
#
#                 Cambridge Crystallographic Data Centre
#                                CCDC 
#
#######################################################################
#
# If this CIF has been generated from an entry in the Cambridge 
# Structural Database, then it will include bibliographic, chemical, 
# crystal, experimental, refinement or atomic coordinate data resulting 
# from the CCDC's data processing and validation procedures.
#
#######################################################################

data_LUYZAH01
_symmetry_cell_setting           tetragonal
_symmetry_space_group_name_H-M   'I 41 2 2'
_symmetry_Int_Tables_number      98
_space_group_name_Hall           'I 4bw 2bw'
loop_
_symmetry_equiv_pos_site_id
_symmetry_equiv_pos_as_xyz
1 x,y,z
2 -y,1/2+x,1/4+z
3 1/2-x,1/2-y,1/2+z
4 1/2+y,-x,3/4+z
5 1/2-x,y,3/4-z
6 1/2+y,1/2+x,1/2-z
7 x,1/2-y,1/4-z
8 -y,-x,-z
9 1/2+x,1/2+y,1/2+z
10 1/2-y,x,3/4+z
11 -x,-y,z
12 y,1/2-x,1/4+z
13 -x,1/2+y,1/4-z
14 y,x,-z
15 1/2+x,-y,3/4-z
16 1/2-y,1/2-x,1/2-z
_cell_length_a                   7.9151(2)
_cell_length_b                   7.9151(2)
_cell_length_c                   17.4760(4)
_cell_angle_alpha                90
_cell_angle_beta                 90
_cell_angle_gamma                90
_cell_volume                     1094.85
loop_
_atom_site_label
_atom_site_type_symbol
_atom_site_fract_x
_atom_site_fract_y
_atom_site_fract_z
Ni1 Ni 0.0000 0.0000 0.0000
O1 O -0.1358(3) -0.1455(3) 0.08206(12)
N1 N -0.1850(3) 0.1850(3) 0.0000
C1 C -0.4342(4) 0.4342(4) 0.0000
C2 C -0.0723(6) -0.2500 0.1250
H1 H 0.0452 -0.2500 0.1250
C3 C -0.3381(5) 0.1564(6) 0.0268(4)
H2 H -0.3611 0.0506 0.0475
C4 C -0.4661(4) 0.2746(6) 0.0259(4)
H3 H -0.5737 0.2458 0.0429
Ni1A Ni 0.0000 -0.5000 0.2500
Ni1_2 Ni -1.0000 1.0000 0.0000
Ni1C Ni 0.5000 0.0000 -0.2500
O1F O -0.1358(3) -0.3545(3) 0.16794(12)
O1G O 0.1455(3) 0.1358(3) -0.08206(12)
O1C O 0.3545(3) 0.1358(3) -0.16794(12)
O1J O 0.1358(3) 0.1455(3) 0.08206(12)
O1M O -0.1455(3) -0.1358(3) -0.08206(12)
N1J N -0.8150(3) 0.8150(3) 0.0000
N1J_2 N 0.1850(3) -0.1850(3) 0.0000
C1J C -0.5658(4) 0.5658(4) 0.0000
C2C C 0.2500 0.0723(6) -0.1250
H1C H 0.2500 -0.0452 -0.1250
C3J C -0.6619(5) 0.8436(6) 0.0268(4)
C3M C -0.8436(6) 0.6619(5) -0.0268(4)
C3G C -0.1564(6) 0.3381(5) -0.0268(4)
H2M H -0.9494 0.6389 -0.0475
H2J H -0.6389 0.9494 0.0475
H2G H -0.0506 0.3611 -0.0475
C4J C -0.5339(4) 0.7254(6) 0.0259(4)
C4M C -0.7254(6) 0.5339(4) -0.0259(4)
C4G C -0.2746(6) 0.4661(4) -0.0259(4)
H3M H -0.7542 0.4263 -0.0429
H3J H -0.4263 0.7542 0.0429
H3G H -0.2458 0.5737 -0.0429
loop_
_geom_bond_atom_site_label_1
_geom_bond_atom_site_label_2
_geom_bond_site_symmetry_1
_geom_bond_site_symmetry_2
Ni1 O1 1_555 1_555
O1 C2 1_555 1_555
N1 Ni1 1_555 1_555
C1 C4 1_555 1_555
C2 H1 1_555 1_555
C3 N1 1_555 1_555
H2 C3 1_555 1_555
C4 C3 1_555 1_555
H3 C4 1_555 1_555
Ni1A O1F 1_555 1_555
Ni1_2 N1J 1_555 1_555
Ni1C O1C 1_555 1_555
O1F C2 1_555 1_555
O1G Ni1 1_555 1_555
O1C C2C 1_555 1_555
O1J Ni1 1_555 1_555
O1M Ni1 1_555 1_555
N1J C3J 1_555 1_555
N1J_2 Ni1 1_555 1_555
C1J C1 1_555 1_555
C2C O1G 1_555 1_555
H1C C2C 1_555 1_555
C3J H2J 1_555 1_555
C3M N1J 1_555 1_555
C3G N1 1_555 1_555
H2M C3M 1_555 1_555
H2G C3G 1_555 1_555
C4J C1J 1_555 1_555
C4M C1J 1_555 1_555
C4G C1 1_555 1_555
H3M C4M 1_555 1_555
H3J C4J 1_555 1_555
H3G C4G 1_555 1_555
C3J C4J 1_555 1_555
C3M C4M 1_555 1_555
C3G C4G 1_555 1_555

#END
