
#######################################################################
#
#                 Cambridge Crystallographic Data Centre
#                                CCDC 
#
#######################################################################
#
# If this CIF has been generated from an entry in the Cambridge 
# Structural Database, then it will include bibliographic, chemical, 
# crystal, experimental, refinement or atomic coordinate data resulting 
# from the CCDC's data processing and validation procedures.
#
#######################################################################

data_LUZBIS
_symmetry_cell_setting           orthorhombic
_symmetry_space_group_name_H-M   'C m m m'
_symmetry_Int_Tables_number      65
_space_group_name_Hall           '-C 2 2'
loop_
_symmetry_equiv_pos_site_id
_symmetry_equiv_pos_as_xyz
1 x,y,z
2 -x,-y,z
3 x,-y,-z
4 -x,y,-z
5 1/2+x,1/2+y,z
6 1/2-x,1/2-y,z
7 1/2+x,1/2-y,-z
8 1/2-x,1/2+y,-z
9 -x,-y,-z
10 x,y,-z
11 -x,y,z
12 x,-y,z
13 1/2-x,1/2-y,-z
14 1/2+x,1/2+y,-z
15 1/2-x,1/2+y,z
16 1/2+x,1/2-y,z
_cell_length_a                   13.17000(44)
_cell_length_b                   15.92620(71)
_cell_length_c                   7.60870(27)
_cell_angle_alpha                90
_cell_angle_beta                 90
_cell_angle_gamma                90
_cell_volume                     1595.91
loop_
_atom_site_label
_atom_site_type_symbol
_atom_site_fract_x
_atom_site_fract_y
_atom_site_fract_z
Mn1 Mn 0.25000 0.25000 0.50000
N1 N 0.157000 0.197880 0.715560
C1 C 0.050890 0.19942 1.00000
C2 C 0.097720 0.19942 0.837460
N2 N 0.150920 0.359660 0.50000
C3 C 0.050887 0.50000 0.50000
C4 C 0.104930 0.425620 0.50000
Mn1C Mn -0.25000 0.25000 1.50000
Mn1C_2 Mn -0.25000 0.25000 0.50000
Mn1_2 Mn 0.25000 0.25000 1.50000
Mn1A Mn -0.25000 0.75000 0.50000
Mn1B Mn 0.25000 0.75000 0.50000
Mn1C_3 Mn 0.75000 0.25000 1.50000
Mn1C_4 Mn 0.75000 0.25000 0.50000
N1C N -0.157000 0.197880 1.284440
N1J N -0.157000 0.197880 0.715560
N1I N 0.157000 0.197880 1.284440
N1E N 0.343000 0.302120 0.715560
N1F N 0.657000 0.302120 1.284440
N1O N 0.657000 0.302120 0.715560
N1L N 0.343000 0.302120 1.284440
N1I_2 N 0.157000 0.197880 0.284440
N1L_2 N 0.343000 0.302120 0.284440
N1F_2 N -0.343000 0.302120 1.284440
N1J_2 N -0.157000 0.197880 1.715560
N1O_2 N -0.343000 0.302120 1.715560
C1C C -0.050890 0.19942 1.00000
C1E C 0.449110 0.30058 1.00000
C1F C 0.550890 0.30058 1.00000
C2C C -0.097720 0.19942 1.162540
C2J C -0.097720 0.19942 0.837460
C2I C 0.097720 0.19942 1.162540
C2E C 0.402280 0.30058 0.837460
C2F C 0.597720 0.30058 1.162540
C2O C 0.597720 0.30058 0.837460
C2L C 0.402280 0.30058 1.162540
N2C N -0.150920 0.359660 0.50000
N2A N -0.150920 0.640340 0.50000
N2B N 0.150920 0.640340 0.50000
N2E N 0.349080 0.140340 0.50000
N2C_2 N -0.150920 0.359660 1.50000
N2F N -0.349080 0.140340 1.50000
C3A C -0.050887 0.50000 0.50000
C4C C -0.104930 0.425620 0.50000
C4A C -0.104930 0.574380 0.50000
C4B C 0.104930 0.574380 0.50000
I1 I 0.22550(12) 0.50000 0.00000
I2 I 0.00000 0.50000 0.00000
I1A I -0.22550(12) 0.50000 0.00000
O1? O -0.533760 0.499699 0.725070
C5? C -0.565292 0.527590 0.559489
C6? C -0.478732 0.539834 0.456051
C7? C -0.393704 0.51951 0.557704
C8? C -0.427713 0.494705 0.723966
loop_
_geom_bond_atom_site_label_1
_geom_bond_atom_site_label_2
_geom_bond_site_symmetry_1
_geom_bond_site_symmetry_2
I1 I2 1_555 1_555
I2 I1A 1_555 1_555
Mn1 N1 1_555 1_555
N1 C2 1_555 1_555
C1 C2 1_555 1_555
N2 Mn1 1_555 1_555
C3 C4 1_555 1_555
C4 N2 1_555 1_555
Mn1C N1C 1_555 1_555
Mn1C_2 N1J 1_555 1_555
Mn1_2 N1I 1_555 1_555
Mn1A N2A 1_555 1_555
Mn1B N2B 1_555 1_555
Mn1C_3 N1F 1_555 1_555
Mn1C_4 N1O 1_555 1_555
N1C C2C 1_555 1_555
N1J C2J 1_555 1_555
N1I C2I 1_555 1_555
N1E Mn1 1_555 1_555
N1F C2F 1_555 1_555
N1O C2O 1_555 1_555
N1L Mn1_2 1_555 1_555
N1I_2 Mn1 1_555 1_555
N1L_2 Mn1 1_555 1_555
N1F_2 Mn1C 1_555 1_555
N1J_2 Mn1C 1_555 1_555
N1O_2 Mn1C 1_555 1_555
C1C C1 1_555 1_555
C1E C1F 1_555 1_555
C1F C2F 1_555 1_555
C2C C1C 1_555 1_555
C2J C1C 1_555 1_555
C2I C1 1_555 1_555
C2E N1E 1_555 1_555
C2O C1F 1_555 1_555
C2L N1L 1_555 1_555
N2C Mn1C_2 1_555 1_555
N2A C4A 1_555 1_555
N2B C4B 1_555 1_555
N2E Mn1 1_555 1_555
N2C_2 Mn1C 1_555 1_555
N2F Mn1C 1_555 1_555
C3A C3 1_555 1_555
C4C N2C 1_555 1_555
C4A C3A 1_555 1_555
C4B C3 1_555 1_555
C1E C2E 1_555 1_555
C1E C2L 1_555 1_555
C3A C4C 1_555 1_555

#END
