
#######################################################################
#
#                 Cambridge Crystallographic Data Centre
#                                CCDC 
#
#######################################################################
#
# If this CIF has been generated from an entry in the Cambridge 
# Structural Database, then it will include bibliographic, chemical, 
# crystal, experimental, refinement or atomic coordinate data resulting 
# from the CCDC's data processing and validation procedures.
#
#######################################################################

data_LUZYOU
_symmetry_cell_setting           monoclinic
_symmetry_space_group_name_H-M   'P 21/c'
_symmetry_Int_Tables_number      14
_space_group_name_Hall           '-P 2ybc'
loop_
_symmetry_equiv_pos_site_id
_symmetry_equiv_pos_as_xyz
1 x,y,z
2 x,1/2-y,1/2+z
3 -x,-y,-z
4 -x,1/2+y,1/2-z
_cell_length_a                   11.3477(4)
_cell_length_b                   7.1079(3)
_cell_length_c                   10.4259(4)
_cell_angle_alpha                90
_cell_angle_beta                 111.585(2)
_cell_angle_gamma                90
_cell_volume                     781.963
loop_
_atom_site_label
_atom_site_type_symbol
_atom_site_fract_x
_atom_site_fract_y
_atom_site_fract_z
Zn1 Zn 0.12752(4) -0.96276(6) 0.70892(4)
P1 P 0.14636(8) -0.86920(14) 0.41251(10)
H1 H 0.234(3) -0.990(5) 0.442(4)
O1 O 0.1163(2) -0.8321(4) 0.5418(3)
O2 O 0.2004(2) -0.6940(4) 0.3720(3)
O3 O 0.0337(3) -0.9471(4) 0.2939(3)
C1 C 0.2463(3) -1.3291(5) 0.6653(4)
C2 C 0.3461(4) -1.4631(6) 0.7003(5)
H2 H 0.339(4) -1.559(7) 0.645(5)
C3 C 0.4521(4) -1.4380(6) 0.8147(4)
H3 H 0.517(4) -1.518(6) 0.840(5)
C4 C 0.4615(4) -1.2801(6) 0.8987(5)
H4 H 0.534(4) -1.254(5) 0.983(4)
C5 C 0.3640(4) -1.1574(6) 0.8610(4)
H5 H 0.365(4) -1.057(6) 0.912(4)
N1 N 0.2571(3) -1.1756(4) 0.7453(3)
N2 N 0.1435(4) -1.3505(6) 0.5499(4)
H6 H 0.137(4) -1.436(6) 0.507(5)
H7 H 0.085(4) -1.288(6) 0.538(4)
O2A O 0.2004(2) -0.8060(4) 0.8720(3)
O3B O -0.0337(3) -1.0529(4) 0.7061(3)
Zn1A Zn 0.12752(4) -0.53724(6) 0.20892(4)
Zn1B Zn -0.12752(4) -1.03724(6) 0.29108(4)
loop_
_geom_bond_atom_site_label_1
_geom_bond_atom_site_label_2
_geom_bond_site_symmetry_1
_geom_bond_site_symmetry_2
Zn1 O1 1_555 1_555
P1 H1 1_555 1_555
O1 P1 1_555 1_555
O2 P1 1_555 1_555
O3 P1 1_555 1_555
C1 C2 1_555 1_555
C2 H2 1_555 1_555
C3 C2 1_555 1_555
H3 C3 1_555 1_555
C4 C3 1_555 1_555
H4 C4 1_555 1_555
C5 C4 1_555 1_555
H5 C5 1_555 1_555
N1 Zn1 1_555 1_555
N2 C1 1_555 1_555
H6 N2 1_555 1_555
H7 N2 1_555 1_555
O2A Zn1 1_555 1_555
O3B Zn1 1_555 1_555
Zn1A O2 1_555 1_555
Zn1B O3 1_555 1_555
C1 N1 1_555 1_555
C5 N1 1_555 1_555

#END
