
#######################################################################
#
#                 Cambridge Crystallographic Data Centre
#                                CCDC 
#
#######################################################################
#
# If this CIF has been generated from an entry in the Cambridge 
# Structural Database, then it will include bibliographic, chemical, 
# crystal, experimental, refinement or atomic coordinate data resulting 
# from the CCDC's data processing and validation procedures.
#
#######################################################################

data_MABSAK
_symmetry_cell_setting           monoclinic
_symmetry_space_group_name_H-M   'P 21/c'
_symmetry_Int_Tables_number      14
_space_group_name_Hall           '-P 2ybc'
loop_
_symmetry_equiv_pos_site_id
_symmetry_equiv_pos_as_xyz
1 x,y,z
2 -x,1/2+y,1/2-z
3 -x,-y,-z
4 x,1/2-y,1/2+z
_cell_length_a                   9.659(3)
_cell_length_b                   19.71(1)
_cell_length_c                   18.06(1)
_cell_angle_alpha                90
_cell_angle_beta                 90.90(5)
_cell_angle_gamma                90
_cell_volume                     3437.82
loop_
_atom_site_label
_atom_site_type_symbol
_atom_site_fract_x
_atom_site_fract_y
_atom_site_fract_z
Mn1 Mn 0.31614(7) 0.40788(4) 0.15997(4)
Mn2 Mn 0.72053(7) 0.39145(4) 0.27047(4)
F1 F 0.5711(6) 0.3006(4) -0.0066(3)
F2 F 0.654(1) 0.2294(3) 0.0710(4)
F3 F 0.7668(5) 0.3085(4) 0.0248(3)
F4 F 0.1939(4) 0.5230(3) 0.2979(3)
F5 F 0.0542(5) 0.4694(3) 0.3620(2)
F6 F -0.0120(6) 0.5514(2) 0.3027(3)
F7 F 0.6628(5) 0.6155(2) 0.2471(3)
F8 F 0.4622(5) 0.6134(2) 0.2884(2)
F9 F 0.4938(5) 0.6295(2) 0.1752(3)
F10 F 0.2302(4) 0.3472(3) 0.4053(2)
F11 F 0.3314(7) 0.2576(2) 0.3859(3)
F12 F 0.4265(5) 0.3347(3) 0.4454(2)
O1 O 0.4902(4) 0.3578(2) 0.1136(2)
O2 O 0.1159(3) 0.4495(2) 0.1833(2)
O3 O 0.2054(4) 0.3127(2) 0.1263(2)
O4 O 0.2797(4) 0.4485(2) 0.0475(2)
O5 O 0.4256(3) 0.4991(2) 0.1848(2)
O6 O 0.3207(4) 0.3660(2) 0.2685(2)
O7 O 0.6983(3) 0.3423(2) 0.1656(2)
O8 O -0.0833(3) 0.4277(2) 0.2367(2)
O9 O 0.8228(3) 0.2963(2) 0.3064(2)
O10 O 0.7491(4) 0.4280(2) 0.3866(2)
O11 O 0.6251(4) 0.4857(2) 0.2465(2)
O12 O 0.5331(3) 0.3480(2) 0.3123(2)
C1 C 0.6080(5) 0.3352(3) 0.1185(3)
C2 C 0.0306(4) 0.4553(2) 0.2330(2)
C3 C 0.5282(5) 0.5180(3) 0.2198(3)
C4 C 0.4078(5) 0.3481(3) 0.3145(3)
C5 C 0.6510(6) 0.2874(5) 0.0532(4)
C6 C 0.0694(6) 0.5007(3) 0.2969(3)
C7 C 0.0696(6) 0.3072(3) 0.0915(4)
C8 C 0.0611(8) 0.2364(4) 0.0663(6)
C9 C 0.1677(9) 0.1989(4) 0.1050(5)
C10 C 0.2590(8) 0.2461(3) 0.1412(6)
C11 C 0.7506(7) 0.2332(3) 0.3101(5)
C12 C 0.8499(9) 0.1811(4) 0.3255(7)
C13 C 0.9817(9) 0.2103(4) 0.3273(7)
C14 C 0.9665(7) 0.2821(4) 0.3072(5)
C15 C 0.2318(8) 0.5155(4) 0.0318(4)
C16 C 0.194(1) 0.5159(4) -0.0493(4)
C17 C 0.1982(8) 0.4477(5) -0.0737(4)
C18 C 0.3031(7) 0.4136(5) -0.0221(3)
C19 C 0.785(1) 0.3858(4) 0.4481(3)
C20 C 0.758(2) 0.4266(5) 0.5142(4)
C21 C 0.741(1) 0.4926(5) 0.4931(4)
C22 C 0.6996(8) 0.4910(4) 0.4125(4)
C23 C 0.5349(6) 0.5941(3) 0.2326(4)
C24 C 0.3483(6) 0.3202(3) 0.3874(3)
H1 H 0.0608 0.3393 0.0503
H2 H -0.0030 0.3161 0.1275
H3 H 0.0780 0.2349 0.0130
H4 H -0.0303 0.2172 0.0763
H5 H 0.2195 0.1711 0.0700
H6 H 0.1242 0.1695 0.1416
H7 H 0.2614 0.2373 0.1946
H8 H 0.3526 0.2418 0.1215
H9 H 0.7064 0.2237 0.2620
H10 H 0.6799 0.2350 0.3483
H11 H 0.8469 0.1454 0.2877
H12 H 0.8303 0.1613 0.3740
H13 H 1.0429 0.1865 0.2932
H14 H 1.0210 0.2082 0.3776
H15 H 1.0159 0.3120 0.3419
H16 H 1.0028 0.2885 0.2573
H17 H 0.3052 0.5486 0.0423
H18 H 0.1509 0.5260 0.0618
H19 H 0.2596 0.5436 -0.0768
H20 H 0.1000 0.5342 -0.0566
H21 H 0.2287 0.4456 -0.1252
H22 H 0.1069 0.4264 -0.0699
H23 H 0.2833 0.3650 -0.0174
H24 H 0.3982 0.4197 -0.0390
H25 H 0.8831 0.3742 0.4474
H26 H 0.7292 0.3442 0.4471
H27 H 0.8340 0.4223 0.5507
H28 H 0.6720 0.4107 0.5359
H29 H 0.8285 0.5168 0.5002
H30 H 0.6686 0.5150 0.5220
H31 H 0.5988 0.4936 0.4062
H32 H 0.7428 0.5286 0.3859
O8_2 O 0.9167(3) 0.4277(2) 0.2367(2)
Mn2_2 Mn -0.27947(7) 0.39145(4) 0.27047(4)
loop_
_geom_bond_atom_site_label_1
_geom_bond_atom_site_label_2
_geom_bond_site_symmetry_1
_geom_bond_site_symmetry_2
Mn1 O1 1_555 1_555
Mn2 O7 1_555 1_555
F1 C5 1_555 1_555
F2 C5 1_555 1_555
F3 C5 1_555 1_555
F4 C6 1_555 1_555
F5 C6 1_555 1_555
F6 C6 1_555 1_555
F7 C23 1_555 1_555
F8 C23 1_555 1_555
F9 C23 1_555 1_555
F10 C24 1_555 1_555
F11 C24 1_555 1_555
F12 C24 1_555 1_555
O1 C1 1_555 1_555
O2 Mn1 1_555 1_555
O3 Mn1 1_555 1_555
O4 Mn1 1_555 1_555
O5 Mn1 1_555 1_555
O6 Mn1 1_555 1_555
O7 C1 1_555 1_555
O8 C2 1_555 1_555
O9 Mn2 1_555 1_555
O10 Mn2 1_555 1_555
O11 Mn2 1_555 1_555
O12 Mn2 1_555 1_555
C1 C5 1_555 1_555
C2 O2 1_555 1_555
C3 O5 1_555 1_555
C4 O6 1_555 1_555
C6 C2 1_555 1_555
C7 O3 1_555 1_555
C8 C7 1_555 1_555
C9 C8 1_555 1_555
C10 O3 1_555 1_555
C11 O9 1_555 1_555
C12 C11 1_555 1_555
C13 C12 1_555 1_555
C14 O9 1_555 1_555
C15 O4 1_555 1_555
C16 C15 1_555 1_555
C17 C16 1_555 1_555
C18 O4 1_555 1_555
C19 O10 1_555 1_555
C20 C19 1_555 1_555
C21 C20 1_555 1_555
C22 O10 1_555 1_555
C23 C3 1_555 1_555
C24 C4 1_555 1_555
H1 C7 1_555 1_555
H2 C7 1_555 1_555
H3 C8 1_555 1_555
H4 C8 1_555 1_555
H5 C9 1_555 1_555
H6 C9 1_555 1_555
H7 C10 1_555 1_555
H8 C10 1_555 1_555
H9 C11 1_555 1_555
H10 C11 1_555 1_555
H11 C12 1_555 1_555
H12 C12 1_555 1_555
H13 C13 1_555 1_555
H14 C13 1_555 1_555
H15 C14 1_555 1_555
H16 C14 1_555 1_555
H17 C15 1_555 1_555
H18 C15 1_555 1_555
H19 C16 1_555 1_555
H20 C16 1_555 1_555
H21 C17 1_555 1_555
H22 C17 1_555 1_555
H23 C18 1_555 1_555
H24 C18 1_555 1_555
H25 C19 1_555 1_555
H26 C19 1_555 1_555
H27 C20 1_555 1_555
H28 C20 1_555 1_555
H29 C21 1_555 1_555
H30 C21 1_555 1_555
H31 C22 1_555 1_555
H32 C22 1_555 1_555
O8_2 Mn2 1_555 1_555
Mn2_2 O8 1_555 1_555
O11 C3 1_555 1_555
O12 C4 1_555 1_555
C9 C10 1_555 1_555
C13 C14 1_555 1_555
C17 C18 1_555 1_555
C21 C22 1_555 1_555

#END
