
#######################################################################
#
#                 Cambridge Crystallographic Data Centre
#                                CCDC 
#
#######################################################################
#
# If this CIF has been generated from an entry in the Cambridge 
# Structural Database, then it will include bibliographic, chemical, 
# crystal, experimental, refinement or atomic coordinate data resulting 
# from the CCDC's data processing and validation procedures.
#
#######################################################################

data_MABSOY
_symmetry_cell_setting           rhombohedral
_symmetry_space_group_name_H-M   'R -3'
_symmetry_Int_Tables_number      148
_space_group_name_Hall           '-R 3'
loop_
_symmetry_equiv_pos_site_id
_symmetry_equiv_pos_as_xyz
1 x,y,z
2 -y,x-y,z
3 -x+y,-x,z
4 2/3+x,1/3+y,1/3+z
5 2/3-y,1/3+x-y,1/3+z
6 2/3-x+y,1/3-x,1/3+z
7 1/3+x,2/3+y,2/3+z
8 2/3+y,1/3-x+y,1/3-z
9 2/3+x-y,1/3+x,1/3-z
10 -x,-y,-z
11 y,-x+y,-z
12 x-y,x,-z
13 1/3-x,2/3-y,2/3-z
14 1/3+y,2/3-x+y,2/3-z
15 1/3+x-y,2/3+x,2/3-z
16 2/3-x,1/3-y,1/3-z
17 1/3-y,2/3+x-y,2/3+z
18 1/3-x+y,2/3-x,2/3+z
_cell_length_a                   15.253(2)
_cell_length_b                   15.253(2)
_cell_length_c                   36.565(7)
_cell_angle_alpha                90
_cell_angle_beta                 90
_cell_angle_gamma                120.00
_cell_volume                     7367.27
loop_
_atom_site_label
_atom_site_type_symbol
_atom_site_fract_x
_atom_site_fract_y
_atom_site_fract_z
C16 C 0.2490(2) 0.7843(2) 0.48150(8)
H11 H 0.2822 0.7586 0.4653
Cl2 Cl 0.14485(6) 0.77796(6) 0.45813(2)
Cl3 Cl 0.33632(7) 0.91009(6) 0.49259(2)
Cl4 Cl 0.20790(8) 0.70836(8) 0.52090(3)
Au1 Au 0.3333 0.6667 0.350236(3)
P1 P 0.37253(4) 0.83255(4) 0.333784(13)
Cl1 Cl 0.3333 0.6667 0.42415(2)
N1 N 0.19146(17) 0.78848(18) 0.36052(7)
N2 N 0.23261(17) 0.88132(18) 0.30489(7)
C1 C 0.25462(16) 0.83590(16) 0.33220(6)
C4 C 0.45217(15) 0.94633(15) 0.36026(5)
C5 C 0.4899(3) 0.9380(2) 0.39354(8)
H1 H 0.4745 0.8748 0.4024
C6 C 0.5513(4) 1.0249(3) 0.41386(10)
H2 H 0.5777 1.0192 0.4361
C7 C 0.5731(2) 1.1185(2) 0.40154(8)
H3 H 0.6146 1.1760 0.4152
C8 C 0.53329(19) 1.12711(17) 0.36876(7)
H4 H 0.5466 1.1903 0.3605
C9 C 0.47329(18) 1.04127(17) 0.34805(6)
H5 H 0.4470 1.0473 0.3259
C10 C 0.42245(15) 0.86303(15) 0.28771(5)
C11 C 0.35947(18) 0.81486(17) 0.25779(6)
H6 H 0.2905 0.7714 0.2614
C12 C 0.4000(2) 0.83197(19) 0.22256(6)
H7 H 0.3577 0.8011 0.2026
C13 C 0.5027(2) 0.8946(2) 0.21725(6)
H8 H 0.5295 0.9057 0.1938
C14 C 0.56589(19) 0.94100(19) 0.24690(7)
H9 H 0.6351 0.9826 0.2433
C15 C 0.52619(16) 0.92558(17) 0.28194(6)
H10 H 0.5689 0.9571 0.3017
P1A P 0.16745(4) 0.53998(6) 0.333784(13)
P1B P 0.46002(6) 0.62747(4) 0.333784(13)
N2L N 0.10072(17) 0.78535(18) 0.36178(7)
N1L N 0.14187(17) 0.87819(18) 0.30615(7)
C2? C 0.19146(17) 0.78848(18) 0.36052(7)
C3? C 0.23261(17) 0.88132(18) 0.30489(7)
loop_
_geom_bond_atom_site_label_1
_geom_bond_atom_site_label_2
_geom_bond_site_symmetry_1
_geom_bond_site_symmetry_2
Au1 P1 1_555 1_555
P1 C1 1_555 1_555
Cl1 Au1 1_555 1_555
N1 C1 1_555 1_555
N2 C1 1_555 1_555
C4 P1 1_555 1_555
C5 C4 1_555 1_555
H1 C5 1_555 1_555
C6 C5 1_555 1_555
H2 C6 1_555 1_555
C7 C6 1_555 1_555
H3 C7 1_555 1_555
C8 C7 1_555 1_555
H4 C8 1_555 1_555
C9 C4 1_555 1_555
H5 C9 1_555 1_555
C10 P1 1_555 1_555
C11 C10 1_555 1_555
H6 C11 1_555 1_555
C12 C11 1_555 1_555
H7 C12 1_555 1_555
C13 C12 1_555 1_555
H8 C13 1_555 1_555
C14 C13 1_555 1_555
H9 C14 1_555 1_555
C15 C10 1_555 1_555
H10 C15 1_555 1_555
C16 H11 1_555 1_555
Cl2 C16 1_555 1_555
Cl3 C16 1_555 1_555
Cl4 C16 1_555 1_555
P1A Au1 1_555 1_555
P1B Au1 1_555 1_555
N2L N1 1_555 1_555
N1L N2 1_555 1_555
C8 C9 1_555 1_555
C14 C15 1_555 1_555

#END
