
#######################################################################
#
#                 Cambridge Crystallographic Data Centre
#                                CCDC 
#
#######################################################################
#
# If this CIF has been generated from an entry in the Cambridge 
# Structural Database, then it will include bibliographic, chemical, 
# crystal, experimental, refinement or atomic coordinate data resulting 
# from the CCDC's data processing and validation procedures.
#
#######################################################################

data_MACRCU
_symmetry_cell_setting           monoclinic
_symmetry_space_group_name_H-M   'C 2/c'
_symmetry_Int_Tables_number      15
_space_group_name_Hall           '-C 2yn'
loop_
_symmetry_equiv_pos_site_id
_symmetry_equiv_pos_as_xyz
1 x,y,z
2 1/2+x,1/2+y,z
3 -x,y,1/2-z
4 1/2-x,1/2+y,1/2-z
5 -x,-y,-z
6 1/2-x,1/2-y,-z
7 x,-y,1/2+z
8 1/2+x,1/2-y,1/2+z
_cell_length_a                   15.983(5)
_cell_length_b                   14.111(5)
_cell_length_c                   5.963(3)
_cell_angle_alpha                90
_cell_angle_beta                 96.01(2)
_cell_angle_gamma                90
_cell_volume                     1337.48
loop_
_atom_site_label
_atom_site_type_symbol
_atom_site_fract_x
_atom_site_fract_y
_atom_site_fract_z
Br1 Br 0.09050 0.09910 0.01800
Cu1 Cu 0.00000 -0.00930 -0.25000
Cu2 Cu 0.00000 0.20370 -0.25000
N1 N -0.07450 0.27550 -0.06950
C1 C -0.12120 0.31390 0.02830
C2 C -0.18130 0.36000 0.15530
C3 C -0.25430 0.38980 0.05030
C4 C -0.15360 0.37130 0.40860
Br1B Br -0.09050 0.09910 -0.51800
N1B N 0.07450 0.27550 -0.43050
C1B C 0.12120 0.31390 -0.52830
C2B C 0.18130 0.36000 -0.65530
C3B C 0.25430 0.38980 -0.55030
C4B C 0.15360 0.37130 -0.90860
Cu1D Cu 0.00000 0.00930 0.25000
Br1D Br -0.09050 -0.09910 -0.01800
Br1F Br 0.09050 -0.09910 -0.48200
Cu1D_2 Cu 0.00000 0.00930 -0.75000
loop_
_geom_bond_atom_site_label_1
_geom_bond_atom_site_label_2
_geom_bond_site_symmetry_1
_geom_bond_site_symmetry_2
Br1 Cu1 1_555 1_555
Cu1 Br1B 1_555 1_555
Cu2 Br1 1_555 1_555
N1 Cu2 1_555 1_555
C1 N1 1_555 1_555
C2 C1 1_555 1_555
C3 C2 1_555 1_555
C4 C2 1_555 1_555
Br1B Cu2 1_555 1_555
N1B Cu2 1_555 1_555
C1B N1B 1_555 1_555
C2B C1B 1_555 1_555
C3B C2B 1_555 1_555
C4B C2B 1_555 1_555
Cu1D Br1 1_555 1_555
Br1D Cu1 1_555 1_555
Br1F Cu1 1_555 1_555
Cu1D_2 Br1B 1_555 1_555
Cu1D Br1D 1_555 1_555
Br1F Cu1D_2 1_555 1_555

#END
