
#######################################################################
#
#                 Cambridge Crystallographic Data Centre
#                                CCDC 
#
#######################################################################
#
# If this CIF has been generated from an entry in the Cambridge 
# Structural Database, then it will include bibliographic, chemical, 
# crystal, experimental, refinement or atomic coordinate data resulting 
# from the CCDC's data processing and validation procedures.
#
#######################################################################

data_MADBUQ
_symmetry_cell_setting           monoclinic
_symmetry_space_group_name_H-M   'P 21/n'
_symmetry_Int_Tables_number      14
_space_group_name_Hall           '-P 2yn'
loop_
_symmetry_equiv_pos_site_id
_symmetry_equiv_pos_as_xyz
1 x,y,z
2 1/2-x,1/2+y,1/2-z
3 -x,-y,-z
4 1/2+x,1/2-y,1/2+z
_cell_length_a                   6.4827(13)
_cell_length_b                   12.585(3)
_cell_length_c                   33.012(7)
_cell_angle_alpha                90
_cell_angle_beta                 92.82(3)
_cell_angle_gamma                90
_cell_volume                     2690.02
loop_
_atom_site_label
_atom_site_type_symbol
_atom_site_fract_x
_atom_site_fract_y
_atom_site_fract_z
C1 C 1.3645(5) -0.1150(3) 0.14144(9)
C2 C 1.3919(5) -0.2038(3) 0.11658(10)
H1 H 1.4036 -0.2727 0.1282
C3 C 1.4020(5) -0.1903(3) 0.07406(10)
H2 H 1.4238 -0.2502 0.0573
C4 C 1.3803(5) -0.0895(3) 0.05665(10)
H3 H 1.3834 -0.0812 0.0281
C5 C 1.3536(5) 0.0000(3) 0.08169(10)
H4 H 1.3400 0.0686 0.0699
C6 C 1.3470(5) -0.0119(3) 0.12372(10)
H5 H 1.3309 0.0486 0.1404
C7 C 1.3445(5) -0.1291(3) 0.18662(9)
C8 C 0.9324(5) -0.0602(3) 0.05494(10)
C9 C 0.9310(5) -0.0814(3) 0.13427(10)
C10 C 0.9676(6) -0.2443(3) 0.08734(11)
O1 O 1.3309(4) -0.22162(19) 0.20007(7)
O2 O 1.3417(4) -0.04590(19) 0.20795(7)
O3 O 0.8207(4) -0.0249(3) 0.03002(9)
O4 O 0.8269(4) -0.0622(3) 0.16058(8)
O5 O 0.8768(5) -0.3222(2) 0.08262(10)
O11 O 1.2925(5) -0.0915(3) 0.28755(10)
O12 O 1.3975(4) -0.3646(2) 0.27779(8)
O13 O 0.9664(6) -0.3525(4) 0.18896(11)
O14 O 0.7981(4) -0.1615(2) 0.24931(9)
O15 O 0.8858(4) -0.3787(3) 0.28124(8)
O16 O 1.5188(5) -0.4633(2) 0.18181(10)
Na1 Na 1.1238(2) -0.25175(13) 0.25845(5)
Na2 Na 1.6374(2) -0.32820(11) 0.22423(4)
Cr1 Cr 1.11012(8) -0.11805(4) 0.094489(15)
H11 H 1.328(9) -0.074(4) 0.2646(18)
H12 H 1.410(9) -0.093(4) 0.3001(17)
H13 H 1.353(7) -0.428(4) 0.2827(12)
H14 H 1.450(8) -0.340(4) 0.2959(16)
H15 H 1.049(11) -0.318(6) 0.181(2)
H16 H 0.985(13) -0.415(7) 0.182(3)
H17 H 0.793(9) -0.111(5) 0.2361(17)
H18 H 0.752(10) -0.150(5) 0.273(2)
H19 H 0.826(9) -0.363(5) 0.3012(18)
H20 H 0.949(8) -0.439(4) 0.2863(15)
H21 H 1.431(8) -0.498(4) 0.1916(15)
H22 H 1.617(9) -0.518(5) 0.1736(16)
O13_2 O 1.9664(6) -0.3525(4) 0.18896(11)
O14_2 O 1.7981(4) -0.1615(2) 0.24931(9)
O15_2 O 1.8858(4) -0.3787(3) 0.28124(8)
Na2_2 Na 0.6374(2) -0.32820(11) 0.22423(4)
H15_2 H 2.049(11) -0.318(6) 0.181(2)
H16_2 H 1.985(13) -0.415(7) 0.182(3)
H17_2 H 1.793(9) -0.111(5) 0.2361(17)
H18_2 H 1.752(10) -0.150(5) 0.273(2)
H19_2 H 1.826(9) -0.363(5) 0.3012(18)
H20_2 H 1.949(8) -0.439(4) 0.2863(15)
C11 C 0.8263(5) 0.3180(3) 0.10247(9)
C12 C 0.8090(5) 0.4204(3) 0.08611(10)
H6 H 0.7883 0.4794 0.1034
C13 C 0.8223(5) 0.4364(3) 0.04395(11)
H7 H 0.8116 0.5061 0.0330
C14 C 0.8510(6) 0.3503(3) 0.01850(11)
H8 H 0.8610 0.3616 -0.0098
C15 C 0.8655(6) 0.2459(3) 0.03444(10)
H9 H 0.8851 0.1872 0.0170
C16 C 0.8506(5) 0.2300(3) 0.07626(10)
H10 H 0.8568 0.1601 0.0871
C17 C 0.8316(5) 0.2978(3) 0.14797(10)
C18 C 1.2632(5) 0.2929(3) 0.10967(11)
C19 C 1.2854(6) 0.2972(4) 0.03092(12)
C20 C 1.2498(6) 0.4708(3) 0.07282(11)
O6 O 0.8504(4) 0.2043(2) 0.15917(8)
O7 O 0.8216(4) 0.3785(2) 0.17086(7)
O8 O 1.3634(4) 0.2594(3) 0.13660(9)
O9 O 1.3959(5) 0.2628(4) 0.00805(11)
O10 O 1.3451(5) 0.5482(2) 0.07625(11)
Cr2 Cr 1.09981(8) 0.34674(4) 0.066999(15)
loop_
_geom_bond_atom_site_label_1
_geom_bond_atom_site_label_2
_geom_bond_site_symmetry_1
_geom_bond_site_symmetry_2
C1 C2 1_555 1_555
C2 H1 1_555 1_555
C3 C2 1_555 1_555
H2 C3 1_555 1_555
C4 C3 1_555 1_555
H3 C4 1_555 1_555
C5 C4 1_555 1_555
H4 C5 1_555 1_555
C6 C1 1_555 1_555
H5 C6 1_555 1_555
C7 C1 1_555 1_555
C8 O3 1_555 1_555
C9 O4 1_555 1_555
C10 O5 1_555 1_555
C11 C12 1_555 1_555
C12 H6 1_555 1_555
C13 C12 1_555 1_555
H7 C13 1_555 1_555
C14 C13 1_555 1_555
H8 C14 1_555 1_555
C15 C14 1_555 1_555
H9 C15 1_555 1_555
C16 C11 1_555 1_555
H10 C16 1_555 1_555
C17 C11 1_555 1_555
C18 O8 1_555 1_555
C19 O9 1_555 1_555
C20 O10 1_555 1_555
O1 C7 1_555 1_555
O2 C7 1_555 1_555
O6 C17 1_555 1_555
O7 C17 1_555 1_555
O11 Na1 1_555 1_555
O12 Na1 1_555 1_555
O13 Na1 1_555 1_555
O14 Na1 1_555 1_555
O15 Na1 1_555 1_555
O16 Na2 1_555 1_555
Na1 O1 1_555 1_555
Na2 O1 1_555 1_555
Cr1 C1 1_555 1_555
Cr2 C11 1_555 1_555
H11 O11 1_555 1_555
H12 O11 1_555 1_555
H13 O12 1_555 1_555
H14 O12 1_555 1_555
H15 O13 1_555 1_555
H16 O13 1_555 1_555
H17 O14 1_555 1_555
H18 O14 1_555 1_555
H19 O15 1_555 1_555
H20 O15 1_555 1_555
H21 O16 1_555 1_555
H22 O16 1_555 1_555
O13_2 Na2 1_555 1_555
O14_2 Na2 1_555 1_555
O15_2 Na2 1_555 1_555
Na2_2 O13 1_555 1_555
H15_2 O13_2 1_555 1_555
H16_2 O13_2 1_555 1_555
H17_2 O14_2 1_555 1_555
H18_2 O14_2 1_555 1_555
H19_2 O15_2 1_555 1_555
H20_2 O15_2 1_555 1_555
C2 Cr1 1_555 1_555
C3 Cr1 1_555 1_555
C4 Cr1 1_555 1_555
C5 C6 1_555 1_555
C5 Cr1 1_555 1_555
C6 Cr1 1_555 1_555
C8 Cr1 1_555 1_555
C9 Cr1 1_555 1_555
C10 Cr1 1_555 1_555
C12 Cr2 1_555 1_555
C13 Cr2 1_555 1_555
C14 Cr2 1_555 1_555
C15 C16 1_555 1_555
C15 Cr2 1_555 1_555
C16 Cr2 1_555 1_555
C18 Cr2 1_555 1_555
C19 Cr2 1_555 1_555
C20 Cr2 1_555 1_555
O12 Na2 1_555 1_555
O14 Na2_2 1_555 1_555
O15 Na2_2 1_555 1_555

#END
