
#######################################################################
#
#                 Cambridge Crystallographic Data Centre
#                                CCDC 
#
#######################################################################
#
# If this CIF has been generated from an entry in the Cambridge 
# Structural Database, then it will include bibliographic, chemical, 
# crystal, experimental, refinement or atomic coordinate data resulting 
# from the CCDC's data processing and validation procedures.
#
#######################################################################

data_MADNUC
_symmetry_cell_setting           monoclinic
_symmetry_space_group_name_H-M   'P 21/c'
_symmetry_Int_Tables_number      14
_space_group_name_Hall           '-P 2ybc'
loop_
_symmetry_equiv_pos_site_id
_symmetry_equiv_pos_as_xyz
1 x,y,z
2 -x,1/2+y,1/2-z
3 -x,-y,-z
4 x,1/2-y,1/2+z
_cell_length_a                   16.9874(4)
_cell_length_b                   16.1029(3)
_cell_length_c                   16.1670(3)
_cell_angle_alpha                90
_cell_angle_beta                 105.8943(8)
_cell_angle_gamma                90
_cell_volume                     4253.35
loop_
_atom_site_label
_atom_site_type_symbol
_atom_site_fract_x
_atom_site_fract_y
_atom_site_fract_z
Sn1 Sn 0.51911(3) 0.72573(2) 0.28244(2)
Sn2 Sn 1.02294(3) 0.78592(2) 0.23526(2)
Cu1 Cu 0.95647(4) 1.04152(4) 0.03587(4)
Cu2 Cu 0.55107(5) 0.95822(4) 0.05628(4)
N1 N 0.6718(3) 0.9745(3) 0.0433(3)
C1 C 0.9787(3) 1.1314(4) 0.1192(3)
N2 N 0.8326(3) 1.0045(3) 0.0298(3)
C2 C 1.0353(3) 0.9333(3) 0.0844(4)
N3 N 0.4879(3) 0.6274(3) 0.3764(3)
N4 N 1.0431(3) 0.8894(3) 0.1411(3)
C3 C 0.9251(4) 0.8583(4) 0.2558(3)
C4 C 0.5445(4) 0.8721(4) 0.1373(4)
C5 C 0.5395(5) 0.8603(5) 0.5243(4)
N5 N 0.9903(3) 1.1838(3) 0.1691(3)
C6 C 0.6905(4) 0.8287(4) 0.0218(4)
C7 C 0.7361(4) 0.7658(4) 0.0032(4)
C8 C 0.7997(3) 0.9266(3) 0.0184(3)
C9 C 0.4850(4) 0.5733(4) 0.4211(4)
C10 C 0.7199(3) 0.9107(3) 0.0286(3)
C11 C 0.5208(4) 0.8030(4) 0.4577(4)
C12 C 0.7857(4) 1.0628(4) 0.0456(4)
N6 N 0.5429(4) 0.8212(3) 0.1875(3)
C13 C 0.6151(4) 0.6459(4) 0.2692(4)
C14 C 0.7051(4) 1.0492(4) 0.0500(4)
C15 C 0.9930(4) 0.6983(3) 0.1326(3)
C16 C 0.3977(4) 0.7134(4) 0.2015(4)
C17 C 1.1447(4) 0.8077(4) 0.3100(3)
C18 C 1.0199(4) 0.7092(4) 0.0597(4)
C19 C 0.9452(5) 0.5912(5) -0.0069(4)
C20 C 1.2074(5) 0.7536(4) 0.3173(4)
C21 C 0.8120(4) 0.7810(4) -0.0105(5)
C22 C 0.9421(5) 0.6326(4) 0.1340(4)
C23 C 0.5437(4) 0.8160(4) 0.3821(4)
C24 C 0.8435(4) 0.8605(4) -0.0032(4)
C25 C 0.9259(5) 0.9450(4) 0.2524(4)
C26 C 0.9972(5) 0.6555(5) -0.0086(4)
C27 C 0.3604(5) 0.6368(5) 0.1849(5)
C28 C 0.5836(5) 0.8906(4) 0.3755(4)
C29 C 0.9165(5) 0.5794(4) 0.0637(5)
C30 C 0.3530(6) 0.7821(5) 0.1670(6)
C31 C 0.8570(7) 0.9895(5) 0.2583(5)
C32 C 0.8559(5) 0.8221(5) 0.2678(7)
C33 C 1.3024(4) 0.8476(6) 0.4076(5)
C34 C 0.5797(6) 0.9306(5) 0.5178(5)
C35 C 1.1617(4) 0.8821(5) 0.3522(5)
C36 C 0.7910(6) 0.9485(7) 0.2683(6)
C37 C 1.2419(6) 0.9016(6) 0.4005(7)
C38 C 0.2815(6) 0.6305(8) 0.1306(6)
C39 C 0.2388(6) 0.7007(11) 0.0983(7)
C40 C 1.2865(5) 0.7734(5) 0.3641(5)
C41 C 0.6015(6) 0.9465(5) 0.4435(6)
C42 C 0.2738(7) 0.7754(8) 0.1163(8)
C43 C 0.6188(10) 0.5663(7) 0.2849(10)
C44 C 0.784000 0.866000 0.275000
C45 C 0.6852(15) 0.5148(9) 0.2793(13)
C46 C 0.7466(9) 0.5498(10) 0.2633(9)
C47 C 0.7415(8) 0.6270(12) 0.2321(15)
C48 C 0.6777(8) 0.6756(8) 0.2408(14)
H1 H 0.524051 0.849693 0.576160
H2 H 0.638160 0.817420 0.031330
H3 H 0.715070 0.710100 -0.002240
H4 H 0.491264 0.753356 0.462922
H5 H 0.806690 1.118300 0.055990
H6 H 0.673040 1.096410 0.056980
H7 H 1.056470 0.754180 0.057820
H8 H 0.928700 0.554550 -0.055340
H9 H 1.196520 0.700590 0.289250
H10 H 0.843730 0.735870 -0.023200
H11 H 0.923680 0.623120 0.184300
H12 H 0.895320 0.871630 -0.014100
H13 H 0.973750 0.972550 0.245350
H14 H 1.016430 0.664200 -0.058500
H15 H 0.390535 0.588698 0.210925
H16 H 0.598047 0.902678 0.323389
H17 H 0.880060 0.534210 0.065300
H18 H 0.379008 0.835410 0.177687
H19 H 0.856020 1.048970 0.254100
H20 H 0.853630 0.762600 0.270820
H21 H 1.356610 0.861370 0.441420
H22 H 0.592202 0.970123 0.563940
H23 H 1.117670 0.920540 0.348660
H24 H 0.744830 0.980000 0.274100
H25 H 1.252180 0.954160 0.429610
H26 H 0.255247 0.577521 0.116873
H27 H 0.184767 0.696913 0.059726
H28 H 1.329910 0.734710 0.365530
H29 H 0.630719 0.996811 0.440160
H30 H 0.241939 0.824116 0.095495
H31 H 0.576162 0.540125 0.304031
H32 H 0.688389 0.456591 0.292492
H33 H 0.792359 0.517753 0.257331
H34 H 0.784197 0.653228 0.212942
H35 H 0.674546 0.733818 0.227685
H36 H 0.737330 0.836610 0.282650
Sn2A Sn 0.97706(3) 1.28592(2) 0.26474(2)
Cu1B Cu 1.04353(4) 0.95848(4) -0.03587(4)
Cu2A Cu 0.44893(5) 0.45822(4) 0.44372(4)
Cu2C Cu 0.55107(5) 0.54178(4) 0.55628(4)
C2B C 0.9647(3) 1.0667(3) -0.0844(4)
N5A N 1.0097(3) 0.6838(3) 0.3309(3)
C9A C 0.5150(4) 1.0733(4) 0.0789(4)
C9C C 0.4850(4) 0.9267(4) -0.0789(4)
loop_
_geom_bond_atom_site_label_1
_geom_bond_atom_site_label_2
_geom_bond_site_symmetry_1
_geom_bond_site_symmetry_2
Sn1 N3 1_555 1_555
Sn2 N4 1_555 1_555
Cu1 C1 1_555 1_555
Cu2 N1 1_555 1_555
N1 C10 1_555 1_555
C1 N5 1_555 1_555
N2 Cu1 1_555 1_555
C2 Cu1 1_555 1_555
N3 C9 1_555 1_555
N4 C2 1_555 1_555
C3 Sn2 1_555 1_555
C4 Cu2 1_555 1_555
C5 C11 1_555 1_555
N5 Sn2A 1_555 1_555
C6 C7 1_555 1_555
C7 C21 1_555 1_555
C8 N2 1_555 1_555
C9 Cu2A 1_555 1_555
C10 C6 1_555 1_555
C11 C23 1_555 1_555
C12 N2 1_555 1_555
N6 Sn1 1_555 1_555
C13 Sn1 1_555 1_555
C14 N1 1_555 1_555
C15 Sn2 1_555 1_555
C16 Sn1 1_555 1_555
C17 Sn2 1_555 1_555
C18 C15 1_555 1_555
C19 C26 1_555 1_555
C20 C17 1_555 1_555
C21 C24 1_555 1_555
C22 C15 1_555 1_555
C23 Sn1 1_555 1_555
C24 C8 1_555 1_555
C25 C3 1_555 1_555
C26 C18 1_555 1_555
C27 C16 1_555 1_555
C28 C23 1_555 1_555
C29 C19 1_555 1_555
C30 C16 1_555 1_555
C31 C25 1_555 1_555
C32 C3 1_555 1_555
C33 C37 1_555 1_555
C34 C5 1_555 1_555
C35 C17 1_555 1_555
C36 C31 1_555 1_555
C37 C35 1_555 1_555
C38 C27 1_555 1_555
C39 C38 1_555 1_555
C40 C20 1_555 1_555
C41 C28 1_555 1_555
C42 C30 1_555 1_555
C43 C13 1_555 1_555
C44 C32 1_555 1_555
C45 C43 1_555 1_555
C46 C45 1_555 1_555
C47 C46 1_555 1_555
C48 C13 1_555 1_555
H1 C5 1_555 1_555
H2 C6 1_555 1_555
H3 C7 1_555 1_555
H4 C11 1_555 1_555
H5 C12 1_555 1_555
H6 C14 1_555 1_555
H7 C18 1_555 1_555
H8 C19 1_555 1_555
H9 C20 1_555 1_555
H10 C21 1_555 1_555
H11 C22 1_555 1_555
H12 C24 1_555 1_555
H13 C25 1_555 1_555
H14 C26 1_555 1_555
H15 C27 1_555 1_555
H16 C28 1_555 1_555
H17 C29 1_555 1_555
H18 C30 1_555 1_555
H19 C31 1_555 1_555
H20 C32 1_555 1_555
H21 C33 1_555 1_555
H22 C34 1_555 1_555
H23 C35 1_555 1_555
H24 C36 1_555 1_555
H25 C37 1_555 1_555
H26 C38 1_555 1_555
H27 C39 1_555 1_555
H28 C40 1_555 1_555
H29 C41 1_555 1_555
H30 C42 1_555 1_555
H31 C43 1_555 1_555
H32 C45 1_555 1_555
H33 C46 1_555 1_555
H34 C47 1_555 1_555
H35 C48 1_555 1_555
H36 C44 1_555 1_555
Cu1B C2 1_555 1_555
Cu2C C9 1_555 1_555
C2B Cu1 1_555 1_555
N5A Sn2 1_555 1_555
C9A Cu2 1_555 1_555
C9C Cu2 1_555 1_555
C4 N6 1_555 1_555
C8 C10 1_555 1_555
C12 C14 1_555 1_555
C22 C29 1_555 1_555
C33 C40 1_555 1_555
C34 C41 1_555 1_555
C36 C44 1_555 1_555
C39 C42 1_555 1_555
C47 C48 1_555 1_555
Cu1B C2B 1_555 1_555

#END
