
#######################################################################
#
#                 Cambridge Crystallographic Data Centre
#                                CCDC 
#
#######################################################################
#
# If this CIF has been generated from an entry in the Cambridge 
# Structural Database, then it will include bibliographic, chemical, 
# crystal, experimental, refinement or atomic coordinate data resulting 
# from the CCDC's data processing and validation procedures.
#
#######################################################################

data_MADPOY
_symmetry_cell_setting           triclinic
_symmetry_space_group_name_H-M   'P -1'
_symmetry_Int_Tables_number      2
_space_group_name_Hall           '-P 1'
loop_
_symmetry_equiv_pos_site_id
_symmetry_equiv_pos_as_xyz
1 x,y,z
2 -x,-y,-z
_cell_length_a                   7.5221(5)
_cell_length_b                   7.8578(6)
_cell_length_c                   9.7887(7)
_cell_angle_alpha                66.474(5)
_cell_angle_beta                 68.647(5)
_cell_angle_gamma                75.324(6)
_cell_volume                     490.106
loop_
_atom_site_label
_atom_site_type_symbol
_atom_site_fract_x
_atom_site_fract_y
_atom_site_fract_z
C1 C 0.4093(3) 0.2761(2) 0.34942(18)
H1 H 0.4669 0.1748 0.3154
C2 C 0.3487(3) 0.2452(2) 0.50698(19)
H2 H 0.3649 0.1247 0.5770
C3 C 0.2638(3) 0.3929(2) 0.56134(18)
H3 H 0.2238 0.3746 0.6674
C4 C 0.2401(2) 0.56922(19) 0.45274(16)
C5 C 0.3036(2) 0.58719(18) 0.29651(16)
H4 H 0.2857 0.7055 0.2241
C6 C 0.1516(2) 0.7446(2) 0.49048(17)
C7 C 0.1235(2) 0.75471(18) -0.00451(16)
C8 C 0.0214(2) 0.95151(18) -0.05994(17)
H5 H -0.0980 0.9460 -0.0738
H6 H 0.1017 1.0233 -0.1598
N1 N 0.38901(17) 0.44573(16) 0.24307(14)
N2 N 0.0485(2) 0.73023(19) 0.63564(16)
H7 H -0.0042 0.8294 0.6593
H8 H 0.0341 0.6217 0.7064
O1 O 0.1765(2) 0.89735(15) 0.38455(14)
O2 O 0.30614(14) 0.73946(13) -0.04134(11)
O3 O 0.02721(16) 0.62225(15) 0.07517(15)
Ni1 Ni 0.5000 0.5000 0.0000
O4 O 0.32134(15) 0.32376(14) 0.01674(13)
H9 H 0.364(3) 0.257(3) -0.038(2)
H10 H 0.216(2) 0.377(3) 0.005(2)
C1A C 0.5907(3) 0.7239(2) -0.34942(18)
H1A H 0.5331 0.8252 -0.3154
C2A C 0.6513(3) 0.7548(2) -0.50698(19)
H2A H 0.6351 0.8753 -0.5770
C3A C 0.7362(3) 0.6071(2) -0.56134(18)
H3A H 0.7762 0.6254 -0.6674
C4A C 0.7599(2) 0.43078(19) -0.45274(16)
C5A C 0.6964(2) 0.41281(18) -0.29651(16)
H4A H 0.7143 0.2945 -0.2241
C6A C 0.8484(2) 0.2554(2) -0.49048(17)
C7A C -0.1235(2) 1.24529(18) 0.00451(16)
C8A C -0.0214(2) 1.04849(18) 0.05994(17)
H5A H 0.0980 1.0540 0.0738
H6A H -0.1017 0.9767 0.1598
N1A N 0.61099(17) 0.55427(16) -0.24307(14)
N2A N 0.9515(2) 0.26977(19) -0.63564(16)
H7A H 1.0042 0.1706 -0.6593
H8A H 0.9659 0.3783 -0.7064
O1A O 0.8235(2) 0.10265(15) -0.38455(14)
O2A O -0.30614(14) 1.26054(13) 0.04134(11)
O2A_2 O 0.69386(14) 0.26054(13) 0.04134(11)
O3A O -0.02721(16) 1.37775(15) -0.07517(15)
Ni1_2 Ni -0.5000 1.5000 0.0000
O4A O 0.67866(15) 0.67624(14) -0.01674(13)
H9A H 0.636(3) 0.743(3) 0.038(2)
H10A H 0.784(2) 0.623(3) -0.005(2)
O5 O 0.45044(18) 0.08721(16) 0.83798(14)
H11 H 0.565(2) 0.077(3) 0.781(2)
H12 H 0.416(3) -0.017(2) 0.875(3)
loop_
_geom_bond_atom_site_label_1
_geom_bond_atom_site_label_2
_geom_bond_site_symmetry_1
_geom_bond_site_symmetry_2
C1 H1 1_555 1_555
C2 C1 1_555 1_555
H2 C2 1_555 1_555
C3 C2 1_555 1_555
H3 C3 1_555 1_555
C4 C3 1_555 1_555
C5 C4 1_555 1_555
H4 C5 1_555 1_555
C6 C4 1_555 1_555
C7 C8 1_555 1_555
C8 H5 1_555 1_555
H6 C8 1_555 1_555
N1 C1 1_555 1_555
N2 C6 1_555 1_555
H7 N2 1_555 1_555
H8 N2 1_555 1_555
O1 C6 1_555 1_555
O2 C7 1_555 1_555
O3 C7 1_555 1_555
Ni1 N1 1_555 1_555
O4 Ni1 1_555 1_555
H9 O4 1_555 1_555
H10 O4 1_555 1_555
O5 H11 1_555 1_555
H12 O5 1_555 1_555
C1A H1A 1_555 1_555
C2A C1A 1_555 1_555
H2A C2A 1_555 1_555
C3A C2A 1_555 1_555
H3A C3A 1_555 1_555
C4A C3A 1_555 1_555
C5A C4A 1_555 1_555
H4A C5A 1_555 1_555
C6A C4A 1_555 1_555
C7A C8A 1_555 1_555
C8A C8 1_555 1_555
H5A C8A 1_555 1_555
H6A C8A 1_555 1_555
N1A Ni1 1_555 1_555
N2A C6A 1_555 1_555
H7A N2A 1_555 1_555
H8A N2A 1_555 1_555
O1A C6A 1_555 1_555
O2A C7A 1_555 1_555
O2A_2 Ni1 1_555 1_555
O3A C7A 1_555 1_555
Ni1_2 O2A 1_555 1_555
O4A Ni1 1_555 1_555
H9A O4A 1_555 1_555
H10A O4A 1_555 1_555
C5 N1 1_555 1_555
O2 Ni1 1_555 1_555
C1A N1A 1_555 1_555
C5A N1A 1_555 1_555

#END
