
#######################################################################
#
#                 Cambridge Crystallographic Data Centre
#                                CCDC 
#
#######################################################################
#
# If this CIF has been generated from an entry in the Cambridge 
# Structural Database, then it will include bibliographic, chemical, 
# crystal, experimental, refinement or atomic coordinate data resulting 
# from the CCDC's data processing and validation procedures.
#
#######################################################################

data_MADQOZ
_symmetry_cell_setting           monoclinic
_symmetry_space_group_name_H-M   'P 21/n'
_symmetry_Int_Tables_number      14
_space_group_name_Hall           '-P 2yn'
loop_
_symmetry_equiv_pos_site_id
_symmetry_equiv_pos_as_xyz
1 x,y,z
2 1/2-x,1/2+y,1/2-z
3 -x,-y,-z
4 1/2+x,1/2-y,1/2+z
_cell_length_a                   12.820(4)
_cell_length_b                   14.062(4)
_cell_length_c                   14.942(5)
_cell_angle_alpha                90
_cell_angle_beta                 112.760(4)
_cell_angle_gamma                90
_cell_volume                     2483.92
loop_
_atom_site_label
_atom_site_type_symbol
_atom_site_fract_x
_atom_site_fract_y
_atom_site_fract_z
Cu1 Cu 0.80063(4) -0.11232(4) 0.22089(4)
N1 N 0.4328(4) 0.1296(4) 0.2844(4)
N2 N 0.6163(5) -0.0038(4) 0.4519(4)
N3 N 0.8722(3) -0.0065(2) 0.1684(3)
N4 N 0.9417(3) 0.1357(2) 0.1684(2)
N5 N 1.0656(3) 0.1891(3) 0.4905(2)
N6 N 1.1231(3) 0.1688(3) 0.6480(2)
O1 O 0.6081(3) -0.0825(3) 0.1335(3)
O2 O 0.7176(2) -0.0239(2) 0.2718(2)
O3 O 0.7857(3) 0.2084(2) 0.3184(3)
O4 O 0.6585(3) 0.2889(2) 0.3513(2)
C1 C 0.6204(4) -0.0312(3) 0.2039(3)
C2 C 0.5228(3) 0.0254(3) 0.2077(3)
C3 C 0.4280(4) 0.0324(3) 0.1213(4)
H1 H 0.4260 -0.0013 0.0672
C4 C 0.3370(4) 0.0883(4) 0.1144(5)
H2 H 0.2749 0.0934 0.0558
C5 C 0.3391(4) 0.1365(4) 0.1950(5)
H3 H 0.2778 0.1743 0.1906
C6 C 0.5256(4) 0.0731(3) 0.2905(3)
C7 C 0.6198(4) 0.0690(3) 0.3886(3)
C8 C 0.7005(5) -0.0084(4) 0.5450(4)
H4 H 0.6980 -0.0564 0.5870
C9 C 0.7867(5) 0.0564(4) 0.5756(4)
H5 H 0.8424 0.0523 0.6379
C10 C 0.7906(4) 0.1278(3) 0.5138(3)
H6 H 0.8497 0.1715 0.5344
C11 C 0.7076(4) 0.1353(3) 0.4213(3)
C12 C 0.7188(4) 0.2152(3) 0.3570(3)
C13 C 0.8628(4) 0.0846(3) 0.1837(3)
H7 H 0.8077 0.1101 0.2029
C14 C 0.9619(4) -0.0121(3) 0.1402(4)
H8 H 0.9890 -0.0679 0.1235
C15 C 1.0047(4) 0.0749(4) 0.1402(4)
H9 H 1.0658 0.0903 0.1240
C16 C 0.9568(4) 0.2396(3) 0.1822(3)
H10 H 0.8995 0.2641 0.2035
H11 H 0.9449 0.2689 0.1203
C17 C 1.0730(4) 0.2687(3) 0.2557(3)
C18 C 1.1393(4) 0.3301(3) 0.2257(3)
H12 H 1.1136 0.3486 0.1610
C19 C 1.2411(5) 0.3632(4) 0.2897(4)
H13 H 1.2830 0.4054 0.2689
C20 C 1.2812(4) 0.3340(4) 0.3847(4)
H14 H 1.3508 0.3560 0.4282
C21 C 1.2185(4) 0.2720(4) 0.4160(4)
H15 H 1.2471 0.2520 0.4803
C22 C 1.1145(4) 0.2393(3) 0.3534(3)
C23 C 1.0454(4) 0.1733(4) 0.3889(3)
H16 H 0.9657 0.1828 0.3498
H17 H 1.0640 0.1079 0.3804
C24 C 1.1205(4) 0.1323(3) 0.5661(3)
H18 H 1.1528 0.0743 0.5613
C25 C 1.0688(4) 0.2545(3) 0.6229(3)
H19 H 1.0580 0.2969 0.6663
C26 C 1.0337(4) 0.2684(3) 0.5276(3)
H20 H 0.9953 0.3212 0.4930
Cu1B Cu 1.19937(4) 0.11232(4) 0.77911(4)
Cu1A Cu 0.69937(4) 0.38768(4) 0.27911(4)
N6B N 0.8769(3) -0.1688(3) 0.3520(2)
O4A O 0.8415(3) -0.2111(2) 0.1487(2)
O5 O 0.9232(6) 0.7778(6) 0.9981(6)
loop_
_geom_bond_atom_site_label_1
_geom_bond_atom_site_label_2
_geom_bond_site_symmetry_1
_geom_bond_site_symmetry_2
Cu1 N3 1_555 1_555
N1 C5 1_555 1_555
N2 C7 1_555 1_555
N3 C13 1_555 1_555
N4 C13 1_555 1_555
N5 C23 1_555 1_555
N6 C24 1_555 1_555
O1 Cu1 1_555 1_555
O2 Cu1 1_555 1_555
O3 C12 1_555 1_555
O4 C12 1_555 1_555
C1 O1 1_555 1_555
C2 C1 1_555 1_555
C3 C2 1_555 1_555
H1 C3 1_555 1_555
C4 C3 1_555 1_555
H2 C4 1_555 1_555
C5 C4 1_555 1_555
H3 C5 1_555 1_555
C6 N1 1_555 1_555
C7 C6 1_555 1_555
C8 N2 1_555 1_555
H4 C8 1_555 1_555
C9 C8 1_555 1_555
H5 C9 1_555 1_555
C10 C9 1_555 1_555
H6 C10 1_555 1_555
C11 C7 1_555 1_555
C12 C11 1_555 1_555
C13 H7 1_555 1_555
C14 N3 1_555 1_555
H8 C14 1_555 1_555
C15 N4 1_555 1_555
H9 C15 1_555 1_555
C16 N4 1_555 1_555
H10 C16 1_555 1_555
H11 C16 1_555 1_555
C17 C16 1_555 1_555
C18 C17 1_555 1_555
H12 C18 1_555 1_555
C19 C18 1_555 1_555
H13 C19 1_555 1_555
C20 C19 1_555 1_555
H14 C20 1_555 1_555
C21 C20 1_555 1_555
H15 C21 1_555 1_555
C22 C17 1_555 1_555
C23 C22 1_555 1_555
H16 C23 1_555 1_555
H17 C23 1_555 1_555
C24 N5 1_555 1_555
H18 C24 1_555 1_555
C25 N6 1_555 1_555
H19 C25 1_555 1_555
C26 N5 1_555 1_555
H20 C26 1_555 1_555
Cu1B N6 1_555 1_555
Cu1A O4 1_555 1_555
N6B Cu1 1_555 1_555
O4A Cu1 1_555 1_555
O2 C1 1_555 1_555
C2 C6 1_555 1_555
C10 C11 1_555 1_555
C14 C15 1_555 1_555
C21 C22 1_555 1_555
C25 C26 1_555 1_555

#END
