
#######################################################################
#
#                 Cambridge Crystallographic Data Centre
#                                CCDC 
#
#######################################################################
#
# If this CIF has been generated from an entry in the Cambridge 
# Structural Database, then it will include bibliographic, chemical, 
# crystal, experimental, refinement or atomic coordinate data resulting 
# from the CCDC's data processing and validation procedures.
#
#######################################################################

data_MADSUH
_symmetry_cell_setting           monoclinic
_symmetry_space_group_name_H-M   'C 2/c'
_symmetry_Int_Tables_number      15
_space_group_name_Hall           '-C 2yn'
loop_
_symmetry_equiv_pos_site_id
_symmetry_equiv_pos_as_xyz
1 x,y,z
2 -x,y,1/2-z
3 1/2+x,1/2+y,z
4 1/2-x,1/2+y,1/2-z
5 -x,-y,-z
6 x,-y,1/2+z
7 1/2-x,1/2-y,-z
8 1/2+x,1/2-y,1/2+z
_cell_length_a                   19.273(15)
_cell_length_b                   9.882(8)
_cell_length_c                   20.039(16)
_cell_angle_alpha                90
_cell_angle_beta                 91.434(13)
_cell_angle_gamma                90
_cell_volume                     3815.35
loop_
_atom_site_label
_atom_site_type_symbol
_atom_site_fract_x
_atom_site_fract_y
_atom_site_fract_z
C1 C 0.80246(12) 0.7896(2) 0.63797(11)
C2 C 0.76342(11) 0.6892(2) 0.59330(11)
C3 C 0.69012(12) 0.6885(2) 0.58980(12)
H1 H 0.6650 0.7497 0.6149
C4 C 0.65561(12) 0.5952(3) 0.54839(13)
H2 H 0.6074 0.5946 0.5460
C5 C 0.69276(12) 0.5027(2) 0.51050(13)
H3 H 0.6690 0.4407 0.4836
C6 C 0.76572(11) 0.5024(2) 0.51260(11)
C7 C 0.80008(11) 0.5973(2) 0.55431(11)
H4 H 0.8483 0.5989 0.5560
C8 C 0.80671(11) 0.4097(2) 0.46879(11)
C9 C 0.78182(12) 0.3749(3) 0.40453(12)
H5 H 0.7379 0.4036 0.3904
C10 C 0.82185(12) 0.2979(2) 0.36163(12)
H6 H 0.8047 0.2773 0.3190
C11 C 0.88789(11) 0.2513(2) 0.38228(11)
C12 C 0.91219(11) 0.2815(2) 0.44703(12)
H7 H 0.9551 0.2487 0.4619
C13 C 0.87254(12) 0.3603(2) 0.48948(12)
H8 H 0.8898 0.3807 0.5321
C14 C 0.93200(11) 0.1761(2) 0.33336(12)
C15 C 0.84759(12) -0.1409(2) 0.23859(12)
H9 H 0.8181 -0.0791 0.2584
C16 C 0.89278(12) -0.3362(2) 0.20731(12)
C17 C 0.91020(14) -0.4720(3) 0.19528(14)
H10 H 0.8846 -0.5432 0.2124
C18 C 0.96762(16) -0.4938(3) 0.15656(16)
H11 H 0.9807 -0.5823 0.1474
C19 C 1.00712(14) -0.3865(3) 0.13053(15)
H12 H 1.0453 -0.4059 0.1047
C20 C 0.98972(12) -0.2519(3) 0.14287(13)
H13 H 1.0158 -0.1810 0.1260
C21 C 0.93160(10) -0.2277(2) 0.18154(11)
N1 N 0.90139(10) -0.10513(18) 0.20244(10)
N2 N 0.84006(10) -0.27652(19) 0.24364(10)
H14 H 0.8086 -0.3183 0.2653
O1 O 0.77248(8) 0.85366(16) 0.68283(8)
O2 O 0.86781(8) 0.80189(16) 0.62602(8)
O3 O 0.98469(8) 0.11136(17) 0.35632(9)
O4 O 0.91484(9) 0.18596(18) 0.27205(8)
Zn1 Zn 0.925233(12) 0.08888(2) 0.186925(12)
C1A C 1.19754(12) 0.7896(2) -0.13797(11)
C2A C 1.23658(11) 0.6892(2) -0.09330(11)
C3A C 1.30988(12) 0.6885(2) -0.08980(12)
H1A H 1.3350 0.7497 -0.1149
C4A C 1.34439(12) 0.5952(3) -0.04839(13)
H2A H 1.3926 0.5946 -0.0460
C5A C 1.30724(12) 0.5027(2) -0.01050(13)
H3A H 1.3310 0.4407 0.0164
C6A C 1.23428(11) 0.5024(2) -0.01260(11)
C7A C 1.19992(11) 0.5973(2) -0.05431(11)
H4A H 1.1517 0.5989 -0.0560
C8A C 1.19329(11) 0.4097(2) 0.03121(11)
C9A C 1.21818(12) 0.3749(3) 0.09547(12)
H5A H 1.2621 0.4036 0.1096
C10A C 1.17815(12) 0.2979(2) 0.13837(12)
H6A H 1.1953 0.2773 0.1810
C11A C 1.11211(11) 0.2513(2) 0.11772(11)
C12A C 1.08781(11) 0.2815(2) 0.05297(12)
H7A H 1.0449 0.2487 0.0381
C13A C 1.12746(12) 0.3603(2) 0.01052(12)
H8A H 1.1102 0.3807 -0.0321
C14A C 1.06800(11) 0.1761(2) 0.16664(12)
C15A C 1.15241(12) -0.1409(2) 0.26141(12)
H9A H 1.1819 -0.0791 0.2416
C16A C 1.10722(12) -0.3362(2) 0.29269(12)
C17A C 1.08980(14) -0.4720(3) 0.30472(14)
H10A H 1.1154 -0.5432 0.2876
C18A C 1.03238(16) -0.4938(3) 0.34344(16)
H11A H 1.0193 -0.5823 0.3526
C19A C 0.99288(14) -0.3865(3) 0.36947(15)
H12A H 0.9547 -0.4059 0.3953
C20A C 1.01028(12) -0.2519(3) 0.35713(13)
H13A H 0.9842 -0.1810 0.3740
C21A C 1.06840(10) -0.2277(2) 0.31846(11)
N1A N 1.09861(10) -0.10513(18) 0.29756(10)
N2A N 1.15994(10) -0.27652(19) 0.25636(10)
H14A H 1.1914 -0.3183 0.2347
O1A O 1.22752(8) 0.85366(16) -0.18283(8)
O2A O 1.13219(8) 0.80189(16) -0.12602(8)
O2D O 1.13219(8) 0.19811(16) 0.37398(8)
O2E O 0.86781(8) 0.19811(16) 0.12602(8)
O3A O 1.01531(8) 0.11136(17) 0.14368(9)
O4A O 1.08516(9) 0.18596(18) 0.22795(8)
Zn1A Zn 1.074767(12) 0.08888(2) 0.313075(12)
Zn1D Zn 1.074767(12) 0.91112(2) -0.186925(12)
Zn1E Zn 0.925233(12) 0.91112(2) 0.686925(12)
loop_
_geom_bond_atom_site_label_1
_geom_bond_atom_site_label_2
_geom_bond_site_symmetry_1
_geom_bond_site_symmetry_2
C1 C2 1_555 1_555
C2 C3 1_555 1_555
C3 H1 1_555 1_555
C4 C3 1_555 1_555
H2 C4 1_555 1_555
C5 C4 1_555 1_555
H3 C5 1_555 1_555
C6 C5 1_555 1_555
C7 C2 1_555 1_555
H4 C7 1_555 1_555
C8 C6 1_555 1_555
C9 C8 1_555 1_555
H5 C9 1_555 1_555
C10 C9 1_555 1_555
H6 C10 1_555 1_555
C11 C10 1_555 1_555
C12 C11 1_555 1_555
H7 C12 1_555 1_555
C13 C8 1_555 1_555
H8 C13 1_555 1_555
C14 C11 1_555 1_555
C15 H9 1_555 1_555
C16 C17 1_555 1_555
C17 H10 1_555 1_555
C18 C17 1_555 1_555
H11 C18 1_555 1_555
C19 C18 1_555 1_555
H12 C19 1_555 1_555
C20 C19 1_555 1_555
H13 C20 1_555 1_555
C21 C16 1_555 1_555
N1 C15 1_555 1_555
N2 C15 1_555 1_555
H14 N2 1_555 1_555
O1 C1 1_555 1_555
O2 C1 1_555 1_555
O3 C14 1_555 1_555
O4 C14 1_555 1_555
Zn1 N1 1_555 1_555
C1A C2A 1_555 1_555
C2A C3A 1_555 1_555
C3A H1A 1_555 1_555
C4A C3A 1_555 1_555
H2A C4A 1_555 1_555
C5A C4A 1_555 1_555
H3A C5A 1_555 1_555
C6A C5A 1_555 1_555
C7A C2A 1_555 1_555
H4A C7A 1_555 1_555
C8A C6A 1_555 1_555
C9A C8A 1_555 1_555
H5A C9A 1_555 1_555
C10A C9A 1_555 1_555
H6A C10A 1_555 1_555
C11A C10A 1_555 1_555
C12A C11A 1_555 1_555
H7A C12A 1_555 1_555
C13A C8A 1_555 1_555
H8A C13A 1_555 1_555
C14A C11A 1_555 1_555
C15A H9A 1_555 1_555
C16A C17A 1_555 1_555
C17A H10A 1_555 1_555
C18A C17A 1_555 1_555
H11A C18A 1_555 1_555
C19A C18A 1_555 1_555
H12A C19A 1_555 1_555
C20A C19A 1_555 1_555
H13A C20A 1_555 1_555
C21A C16A 1_555 1_555
N1A C15A 1_555 1_555
N2A C15A 1_555 1_555
H14A N2A 1_555 1_555
O1A C1A 1_555 1_555
O2A C1A 1_555 1_555
O2D Zn1A 1_555 1_555
O2E Zn1 1_555 1_555
O3A Zn1 1_555 1_555
O4A C14A 1_555 1_555
Zn1A O3 1_555 1_555
Zn1D O2A 1_555 1_555
Zn1E O2 1_555 1_555
C6 C7 1_555 1_555
C12 C13 1_555 1_555
C16 N2 1_555 1_555
C20 C21 1_555 1_555
C21 N1 1_555 1_555
O4 Zn1 1_555 1_555
C6A C7A 1_555 1_555
C12A C13A 1_555 1_555
C14A O3A 1_555 1_555
C16A N2A 1_555 1_555
C20A C21A 1_555 1_555
C21A N1A 1_555 1_555
N1A Zn1A 1_555 1_555
O4A Zn1A 1_555 1_555

#END
