
#######################################################################
#
#                 Cambridge Crystallographic Data Centre
#                                CCDC 
#
#######################################################################
#
# If this CIF has been generated from an entry in the Cambridge 
# Structural Database, then it will include bibliographic, chemical, 
# crystal, experimental, refinement or atomic coordinate data resulting 
# from the CCDC's data processing and validation procedures.
#
#######################################################################

data_MAFBAX
_symmetry_cell_setting           monoclinic
_symmetry_space_group_name_H-M   'P 21'
_symmetry_Int_Tables_number      4
_space_group_name_Hall           'P 2yb'
loop_
_symmetry_equiv_pos_site_id
_symmetry_equiv_pos_as_xyz
1 x,y,z
2 -x,1/2+y,-z
_cell_length_a                   9.014(12)
_cell_length_b                   8.879(12)
_cell_length_c                   10.775(16)
_cell_angle_alpha                90.00
_cell_angle_beta                 100.20(11)
_cell_angle_gamma                90.00
_cell_volume                     848.751
loop_
_atom_site_label
_atom_site_type_symbol
_atom_site_fract_x
_atom_site_fract_y
_atom_site_fract_z
Cr1 Cr 1.1200(2) 0.6806(2) 0.76889(12)
Cr2 Cr 0.8503(2) 0.4202(2) 0.73741(12)
Ni1 Ni 0.9806(2) 1.0471(3) 0.75051(13)
N1 N 1.2050(8) 1.1014(9) 0.8123(6)
C1 C 1.2686(10) 1.1854(14) 0.7328(8)
C2 C 1.4100(11) 1.2421(13) 0.7646(9)
H1 H 1.4472(11) 1.3093(13) 0.7074(9)
C3 C 1.4989(11) 1.2036(15) 0.8775(9)
H2 H 1.5997(11) 1.2421(15) 0.8993(9)
C4 C 1.4382(10) 1.1084(13) 0.9585(8)
H3 H 1.4989(10) 1.0735(13) 1.0354(8)
C5 C 1.2911(10) 1.0608(13) 0.9232(8)
H4 H 1.2459(10) 1.0003(13) 0.9803(8)
C6 C 1.1693(10) 1.2266(12) 0.6101(8)
H5 H 1.2254(10) 1.2145(12) 0.5429(8)
H6 H 1.1405(10) 1.3305(12) 0.6125(8)
O1 O 0.9104(8) 0.2603(8) 0.8039(6)
N2 N 0.7568(8) 0.9889(9) 0.6882(6)
C7 C 0.6948(11) 0.9058(15) 0.7684(9)
C8 C 0.5456(12) 0.8497(16) 0.7392(9)
H7 H 0.5047(12) 0.7903(16) 0.7995(9)
C9 C 0.4650(11) 0.8847(14) 0.6259(10)
H8 H 0.3639(11) 0.8476(14) 0.6026(10)
C10 C 0.5248(11) 0.9738(13) 0.5417(8)
H9 H 0.4679(11) 1.0001(13) 0.4607(8)
C11 C 0.6713(11) 1.0188(13) 0.5791(8)
H10 H 0.7143(11) 1.0813(13) 0.5219(8)
C12 C 0.7926(10) 0.8703(13) 0.8957(8)
H11 H 0.8225(10) 0.7664(13) 0.8973(8)
H12 H 0.7342(10) 0.8850(13) 0.9610(8)
N3 N 1.0329(7) 1.1303(9) 0.5850(5)
H13 H 0.9551(7) 1.1853(9) 0.5450(5)
H14 H 1.0484(7) 1.0533(9) 0.5345(5)
O2 O 1.2216(9) 0.5972(10) 0.6868(7)
N4 N 0.9286(8) 0.9642(10) 0.9193(6)
H15 H 0.9136(8) 1.0418(10) 0.9694(6)
H16 H 1.0064(8) 0.9093(10) 0.9597(6)
O3 O 0.6904(8) 0.4650(9) 0.7706(7)
O4 O 0.8397(7) 0.4123(10) 0.5885(5)
O5 O 1.2128(8) 0.7225(9) 0.9032(6)
O6 O 0.9762(8) 0.5630(8) 0.8051(7)
O7 O 1.0434(7) 0.8317(8) 0.6952(5)
O1_2 O 0.9104(8) 1.2603(8) 0.8039(6)
Ni1_2 Ni 0.9806(2) 0.0471(3) 0.75051(13)
loop_
_geom_bond_atom_site_label_1
_geom_bond_atom_site_label_2
_geom_bond_site_symmetry_1
_geom_bond_site_symmetry_2
Cr1 O2 1_555 1_555
Cr2 O1 1_555 1_555
Ni1 N1 1_555 1_555
N1 C1 1_555 1_555
C1 C2 1_555 1_555
C2 H1 1_555 1_555
C3 C2 1_555 1_555
H2 C3 1_555 1_555
C4 C3 1_555 1_555
H3 C4 1_555 1_555
C5 N1 1_555 1_555
H4 C5 1_555 1_555
C6 C1 1_555 1_555
H5 C6 1_555 1_555
H6 C6 1_555 1_555
O1 Ni1_2 1_555 1_555
N2 Ni1 1_555 1_555
C7 N2 1_555 1_555
C8 C7 1_555 1_555
H7 C8 1_555 1_555
C9 C8 1_555 1_555
H8 C9 1_555 1_555
C10 C9 1_555 1_555
H9 C10 1_555 1_555
C11 N2 1_555 1_555
H10 C11 1_555 1_555
C12 C7 1_555 1_555
H11 C12 1_555 1_555
H12 C12 1_555 1_555
N3 Ni1 1_555 1_555
H13 N3 1_555 1_555
H14 N3 1_555 1_555
N4 Ni1 1_555 1_555
H15 N4 1_555 1_555
H16 N4 1_555 1_555
O3 Cr2 1_555 1_555
O4 Cr2 1_555 1_555
O5 Cr1 1_555 1_555
O6 Cr1 1_555 1_555
O7 Cr1 1_555 1_555
O1_2 Ni1 1_555 1_555
Cr2 O6 1_555 1_555
Ni1 O7 1_555 1_555
C4 C5 1_555 1_555
C6 N3 1_555 1_555
C10 C11 1_555 1_555
C12 N4 1_555 1_555

#END
