
#######################################################################
#
#                 Cambridge Crystallographic Data Centre
#                                CCDC 
#
#######################################################################
#
# If this CIF has been generated from an entry in the Cambridge 
# Structural Database, then it will include bibliographic, chemical, 
# crystal, experimental, refinement or atomic coordinate data resulting 
# from the CCDC's data processing and validation procedures.
#
#######################################################################

data_MAFGUW
_symmetry_cell_setting           monoclinic
_symmetry_space_group_name_H-M   'C 2'
_symmetry_Int_Tables_number      5
_space_group_name_Hall           'C 2y'
loop_
_symmetry_equiv_pos_site_id
_symmetry_equiv_pos_as_xyz
1 x,y,z
2 -x,y,-z
3 1/2+x,1/2+y,z
4 1/2-x,1/2+y,-z
_cell_length_a                   11.590(2)
_cell_length_b                   12.628(2)
_cell_length_c                   8.047(5)
_cell_angle_alpha                90
_cell_angle_beta                 126.69(2)
_cell_angle_gamma                90
_cell_volume                     944.412
loop_
_atom_site_label
_atom_site_type_symbol
_atom_site_fract_x
_atom_site_fract_y
_atom_site_fract_z
Zn1 Zn -0.5000 0.3010 -1.0000
O1 O -0.6078(5) 0.1721(3) -1.2315(8)
O2 O -0.6851(4) -0.0710(3) -1.7192(5)
O3 O -0.8928(4) -0.0910(3) -1.7585(6)
O4 O -0.8398(5) -0.1205(5) -1.3768(7)
N1 N -0.3462(4) 0.2652(3) -1.0506(6)
N2 N -0.5584(4) 0.0316(3) -1.3504(6)
C1 C -0.3699(5) 0.1619(4) -1.1476(8)
C2 C -0.5225(4) 0.1231(3) -1.2465(6)
C3 C -0.7003(4) -0.0140(4) -1.4481(6)
C4 C -0.7603(4) -0.0616(3) -1.6605(6)
C5 C -0.6954(5) -0.0974(5) -1.3042(7)
C6 C -0.6190(6) -0.1979(8) -1.2874(8)
H1 H -0.26(1) 0.253(8) -0.92(2)
H2 H -0.342(7) 0.321(6) -1.11(1)
H3 H -0.341(7) 0.156(6) -1.24(1)
H4 H -0.273(9) 0.112(6) -0.98(1)
H5 H -0.512(8) 0.003(6) -1.39(1)
H6 H -0.764(7) 0.037(6) -1.457(10)
H7 H -0.646(7) -0.067(5) -1.161(10)
H8 H -0.531(7) -0.189(8) -1.252(10)
H9 H -0.615(10) -0.244(7) -1.19(1)
H10 H -0.66(1) -0.23(1) -1.41(2)
H11 H -0.88(1) -0.12(1) -1.46(2)
O1A O -0.3922(5) 0.1721(3) -0.7685(8)
O2A O -0.3149(4) -0.0710(3) -0.2808(5)
O3A O -0.1072(4) -0.0910(3) -0.2415(6)
O4A O -0.1602(5) -0.1205(5) -0.6232(7)
N1A N -0.6538(4) 0.2652(3) -0.9494(6)
N2A N -0.4416(4) 0.0316(3) -0.6496(6)
C1A C -0.6301(5) 0.1619(4) -0.8524(8)
C2A C -0.4775(4) 0.1231(3) -0.7535(6)
C3A C -0.2997(4) -0.0140(4) -0.5519(6)
C4A C -0.2397(4) -0.0616(3) -0.3395(6)
C5A C -0.3046(5) -0.0974(5) -0.6958(7)
C6A C -0.3810(6) -0.1979(8) -0.7126(8)
H1A H -0.74(1) 0.253(8) -1.08(2)
H2A H -0.658(7) 0.321(6) -0.89(1)
H3A H -0.659(7) 0.156(6) -0.76(1)
H4A H -0.727(9) 0.112(6) -1.02(1)
H5A H -0.488(8) 0.003(6) -0.61(1)
H6A H -0.236(7) 0.037(6) -0.543(10)
H7A H -0.354(7) -0.067(5) -0.839(10)
H8A H -0.469(7) -0.189(8) -0.748(10)
H9A H -0.385(10) -0.244(7) -0.81(1)
H10A H -0.34(1) -0.23(1) -0.59(2)
H11A H -0.12(1) -0.12(1) -0.54(2)
O3B O -0.3928(4) 0.4090(3) -0.7585(6)
O3C O -0.6072(4) 0.4090(3) -1.2415(6)
Zn1B Zn -1.0000 -0.1990 -2.0000
Zn1B_2 Zn 0.0000 -0.1990 0.0000
O5 O -1.074(2) 0.083(2) -1.737(3)
loop_
_geom_bond_atom_site_label_1
_geom_bond_atom_site_label_2
_geom_bond_site_symmetry_1
_geom_bond_site_symmetry_2
Zn1 O1 1_555 1_555
O1 C2 1_555 1_555
O2 C4 1_555 1_555
O3 C4 1_555 1_555
O4 C5 1_555 1_555
N1 Zn1 1_555 1_555
N2 C2 1_555 1_555
C1 N1 1_555 1_555
C2 C1 1_555 1_555
C3 N2 1_555 1_555
C4 C3 1_555 1_555
C5 C3 1_555 1_555
C6 C5 1_555 1_555
H1 N1 1_555 1_555
H2 N1 1_555 1_555
H3 C1 1_555 1_555
H4 C1 1_555 1_555
H5 N2 1_555 1_555
H6 C3 1_555 1_555
H7 C5 1_555 1_555
H8 C6 1_555 1_555
H9 C6 1_555 1_555
H10 C6 1_555 1_555
H11 O4 1_555 1_555
O1A Zn1 1_555 1_555
O2A C4A 1_555 1_555
O3A C4A 1_555 1_555
O4A C5A 1_555 1_555
N1A Zn1 1_555 1_555
N2A C2A 1_555 1_555
C1A N1A 1_555 1_555
C2A O1A 1_555 1_555
C3A N2A 1_555 1_555
C4A C3A 1_555 1_555
C5A C3A 1_555 1_555
C6A C5A 1_555 1_555
H1A N1A 1_555 1_555
H2A N1A 1_555 1_555
H3A C1A 1_555 1_555
H4A C1A 1_555 1_555
H5A N2A 1_555 1_555
H6A C3A 1_555 1_555
H7A C5A 1_555 1_555
H8A C6A 1_555 1_555
H9A C6A 1_555 1_555
H10A C6A 1_555 1_555
H11A O4A 1_555 1_555
O3B Zn1 1_555 1_555
O3C Zn1 1_555 1_555
Zn1B O3 1_555 1_555
Zn1B_2 O3A 1_555 1_555
C1A C2A 1_555 1_555

#END
