
#######################################################################
#
#                 Cambridge Crystallographic Data Centre
#                                CCDC 
#
#######################################################################
#
# If this CIF has been generated from an entry in the Cambridge 
# Structural Database, then it will include bibliographic, chemical, 
# crystal, experimental, refinement or atomic coordinate data resulting 
# from the CCDC's data processing and validation procedures.
#
#######################################################################

data_MAFWUN
_symmetry_cell_setting           monoclinic
_symmetry_space_group_name_H-M   'P 21/n'
_symmetry_Int_Tables_number      14
_space_group_name_Hall           '-P 2yn'
loop_
_symmetry_equiv_pos_site_id
_symmetry_equiv_pos_as_xyz
1 x,y,z
2 1/2-x,1/2+y,1/2-z
3 -x,-y,-z
4 1/2+x,1/2-y,1/2+z
_cell_length_a                   10.398(4)
_cell_length_b                   13.824(5)
_cell_length_c                   16.037(5)
_cell_angle_alpha                90
_cell_angle_beta                 102.888(6)
_cell_angle_gamma                90
_cell_volume                     2247.12
loop_
_atom_site_label
_atom_site_type_symbol
_atom_site_fract_x
_atom_site_fract_y
_atom_site_fract_z
Ni1 Ni 0.16650(2) 0.127728(18) 0.851516(16)
O1 O 0.11586(15) 0.27084(10) 0.85414(9)
O2 O 0.19493(16) 0.32644(11) 0.98550(9)
O3 O 0.16772(13) 0.68073(10) 0.68911(9)
C1 C 0.08996(19) 0.43562(14) 0.87619(13)
O4 O 0.01264(15) 0.67412(13) 0.56886(10)
O5 O 0.26988(14) 0.14095(10) 0.98415(9)
H1 H 0.2458 0.1975 0.9948
H2 H 0.3473 0.1488 0.9755
N1 N 0.24580(18) -0.16457(13) 0.81185(12)
H3 H 0.2272 -0.2180 0.7843
C2 C -0.06031(19) 0.70788(15) 0.77122(14)
C3 C 0.0520(2) 0.69359(15) 0.64554(13)
C4 C 0.0324(2) 0.44605(15) 0.79011(13)
H4 H 0.0248 0.3926 0.7541
N2 N -0.00647(16) 0.09289(13) 0.88944(11)
C5 C 0.0523(2) 0.60451(16) 0.89540(14)
H5 H 0.0589 0.6579 0.9314
N3 N 0.23134(16) -0.01353(12) 0.84977(11)
C6 C -0.2106(2) 0.83963(18) 0.77339(17)
H6 H -0.2659 0.8736 0.8012
C7 C -0.0039(2) 0.61496(15) 0.80920(13)
C8 C -0.04327(19) 0.73972(15) 0.69188(13)
C9 C 0.0989(2) 0.51565(16) 0.92867(14)
H7 H 0.1365 0.5098 0.9868
C10 C -0.1432(2) 0.76003(16) 0.81169(15)
H8 H -0.1531 0.7408 0.8655
C11 C 0.13853(19) 0.33696(15) 0.90838(13)
N4 N -0.16468(18) 0.01489(15) 0.93054(12)
H9 H -0.2098 -0.0324 0.9440
N5 N -0.0787(2) 0.12454(15) 0.60533(13)
H10 H -0.1541 0.1319 0.5707
N6 N 0.07230(16) 0.12090(12) 0.72404(11)
C12 C 0.1270(2) 0.09539(17) 0.65739(14)
H11 H 0.2150 0.0790 0.6618
C13 C -0.0981(2) 0.15707(18) 0.90576(16)
H12 H -0.0934 0.2239 0.9001
C14 C -0.1133(2) 0.81949(17) 0.65422(15)
H13 H -0.1038 0.8399 0.6007
C15 C -0.0135(2) 0.53420(15) 0.75723(14)
H14 H -0.0517 0.5398 0.6992
C16 C 0.3388(2) -0.05625(16) 0.90128(14)
H15 H 0.3970 -0.0254 0.9458
C17 C 0.3486(2) -0.14884(16) 0.87877(14)
H16 H 0.4128 -0.1932 0.9040
C18 C -0.0507(2) 0.00794(17) 0.90525(14)
H17 H -0.0083 -0.0501 0.8996
C19 C 0.0339(3) 0.09769(19) 0.58450(16)
H18 H 0.0454 0.0834 0.5299
C20 C 0.1788(2) -0.08223(15) 0.79651(14)
H19 H 0.1036 -0.0742 0.7531
C21 C -0.1967(2) 0.86919(17) 0.69443(17)
H20 H -0.2434 0.9225 0.6682
C22 C -0.1958(2) 0.10971(18) 0.93118(16)
H21 H -0.2695 0.1367 0.9461
C23 C -0.0518(2) 0.13764(18) 0.68981(15)
H22 H -0.1137 0.1564 0.7205
Ni1A Ni 0.33350(2) 0.627728(18) 0.648484(16)
O3A O 0.33228(13) 0.18073(10) 0.81089(9)
loop_
_geom_bond_atom_site_label_1
_geom_bond_atom_site_label_2
_geom_bond_site_symmetry_1
_geom_bond_site_symmetry_2
Ni1 O1 1_555 1_555
O1 C11 1_555 1_555
O2 C11 1_555 1_555
O3 C3 1_555 1_555
C1 C4 1_555 1_555
O4 C3 1_555 1_555
O5 Ni1 1_555 1_555
H1 O5 1_555 1_555
H2 O5 1_555 1_555
N1 H3 1_555 1_555
C2 C7 1_555 1_555
C3 C8 1_555 1_555
C4 H4 1_555 1_555
N2 Ni1 1_555 1_555
C5 H5 1_555 1_555
N3 Ni1 1_555 1_555
C6 H6 1_555 1_555
C7 C5 1_555 1_555
C8 C2 1_555 1_555
C9 C1 1_555 1_555
H7 C9 1_555 1_555
C10 C2 1_555 1_555
H8 C10 1_555 1_555
C11 C1 1_555 1_555
N4 H9 1_555 1_555
N5 H10 1_555 1_555
N6 Ni1 1_555 1_555
C12 N6 1_555 1_555
H11 C12 1_555 1_555
C13 N2 1_555 1_555
H12 C13 1_555 1_555
C14 C8 1_555 1_555
H13 C14 1_555 1_555
C15 C4 1_555 1_555
H14 C15 1_555 1_555
C16 N3 1_555 1_555
H15 C16 1_555 1_555
C17 N1 1_555 1_555
H16 C17 1_555 1_555
C18 N2 1_555 1_555
H17 C18 1_555 1_555
C19 N5 1_555 1_555
H18 C19 1_555 1_555
C20 N1 1_555 1_555
H19 C20 1_555 1_555
C21 C6 1_555 1_555
H20 C21 1_555 1_555
C22 N4 1_555 1_555
H21 C22 1_555 1_555
C23 N5 1_555 1_555
H22 C23 1_555 1_555
Ni1A O3 1_555 1_555
O3A Ni1 1_555 1_555
C5 C9 1_555 1_555
N3 C20 1_555 1_555
C6 C10 1_555 1_555
C7 C15 1_555 1_555
N4 C18 1_555 1_555
N6 C23 1_555 1_555
C12 C19 1_555 1_555
C13 C22 1_555 1_555
C14 C21 1_555 1_555
C16 C17 1_555 1_555

#END
