
#######################################################################
#
#                 Cambridge Crystallographic Data Centre
#                                CCDC 
#
#######################################################################
#
# If this CIF has been generated from an entry in the Cambridge 
# Structural Database, then it will include bibliographic, chemical, 
# crystal, experimental, refinement or atomic coordinate data resulting 
# from the CCDC's data processing and validation procedures.
#
#######################################################################

data_MAGWAT
_symmetry_cell_setting           orthorhombic
_symmetry_space_group_name_H-M   'P n m a'
_symmetry_Int_Tables_number      62
_space_group_name_Hall           '-P 2ac 2n'
loop_
_symmetry_equiv_pos_site_id
_symmetry_equiv_pos_as_xyz
1 x,y,z
2 1/2+x,y,1/2-z
3 x,1/2-y,z
4 1/2-x,1/2+y,1/2+z
5 -x,-y,-z
6 1/2-x,-y,1/2+z
7 -x,1/2+y,-z
8 1/2+x,1/2-y,1/2-z
_cell_length_a                   9.4230(19)
_cell_length_b                   10.410(2)
_cell_length_c                   7.6430(15)
_cell_angle_alpha                90
_cell_angle_beta                 90
_cell_angle_gamma                90
_cell_volume                     749.728
loop_
_atom_site_label
_atom_site_type_symbol
_atom_site_fract_x
_atom_site_fract_y
_atom_site_fract_z
Ag1 Ag 0.5000 0.0000 0.5000
N2 N 0.3495(4) 0.0145(3) 0.2951(5)
H1 H 0.2924 -0.0617 0.3012
H2 H 0.4026 0.0145 0.1879
C1 C 0.3445(6) 0.2500 0.3196(8)
H3 H 0.3894 0.2500 0.4323
H4 H 0.4157 0.2500 0.2298
C2 C 0.2577(4) 0.1287(4) 0.2988(6)
H5 H 0.2034 0.1337 0.1927
H6 H 0.1945 0.1222 0.3970
C2B C 0.2577(4) 0.3713(4) 0.2988(6)
N2B N 0.3495(4) 0.4855(3) 0.2951(5)
H1B H 0.2924 0.5617 0.3012
H2B H 0.4026 0.4855 0.1879
H5B H 0.2034 0.3663 0.1927
H6B H 0.1945 0.3778 0.3970
N2D N 0.6505(4) -0.0145(3) 0.7049(5)
Ag1B Ag 0.5000 0.5000 0.5000
H1D H 0.7076 0.0617 0.6988
H2D H 0.5974 -0.0145 0.8121
O1 O 0.4388(5) 0.1451(3) 0.9162(6)
N1 N 0.3955(7) 0.2500 0.8650(7)
O2 O 0.2887(10) 0.2500 0.7746(12)
O1B O 0.4388(5) 0.3549(3) 0.9162(6)
loop_
_geom_bond_atom_site_label_1
_geom_bond_atom_site_label_2
_geom_bond_site_symmetry_1
_geom_bond_site_symmetry_2
Ag1 N2 1_555 1_555
O1 N1 1_555 1_555
N1 O2 1_555 1_555
N2 H1 1_555 1_555
H2 N2 1_555 1_555
C1 H3 1_555 1_555
H4 C1 1_555 1_555
C2 N2 1_555 1_555
H5 C2 1_555 1_555
H6 C2 1_555 1_555
O1B N1 1_555 1_555
C2B C1 1_555 1_555
N2B C2B 1_555 1_555
H1B N2B 1_555 1_555
H2B N2B 1_555 1_555
H5B C2B 1_555 1_555
H6B C2B 1_555 1_555
N2D Ag1 1_555 1_555
Ag1B N2B 1_555 1_555
H1D N2D 1_555 1_555
H2D N2D 1_555 1_555
C1 C2 1_555 1_555

#END
