
#######################################################################
#
#                 Cambridge Crystallographic Data Centre
#                                CCDC 
#
#######################################################################
#
# If this CIF has been generated from an entry in the Cambridge 
# Structural Database, then it will include bibliographic, chemical, 
# crystal, experimental, refinement or atomic coordinate data resulting 
# from the CCDC's data processing and validation procedures.
#
#######################################################################

data_MAHKUC
_symmetry_cell_setting           monoclinic
_symmetry_space_group_name_H-M   'C 2/c'
_symmetry_Int_Tables_number      15
_space_group_name_Hall           '-C 2yn'
loop_
_symmetry_equiv_pos_site_id
_symmetry_equiv_pos_as_xyz
1 x,y,z
2 1/2+x,1/2+y,z
3 x,-y,1/2+z
4 1/2+x,1/2-y,1/2+z
5 -x,-y,-z
6 1/2-x,1/2-y,-z
7 -x,y,1/2-z
8 1/2-x,1/2+y,1/2-z
_cell_length_a                   14.254(3)
_cell_length_b                   13.085(3)
_cell_length_c                   19.372(4)
_cell_angle_alpha                90
_cell_angle_beta                 104.89(3)
_cell_angle_gamma                90
_cell_volume                     3491.82
loop_
_atom_site_label
_atom_site_type_symbol
_atom_site_fract_x
_atom_site_fract_y
_atom_site_fract_z
Ni1 Ni 0.251995(19) 0.20927(2) 0.125731(14)
O1 O 0.35411(11) 0.22648(14) 0.07002(9)
H1 H 0.3603 0.2873 0.0621
O2 O 0.13364(10) 0.30323(12) 0.06768(7)
O3 O 0.12372(9) 0.21261(12) 0.16070(8)
O4 O -0.31093(10) 0.36532(12) 0.06982(9)
O5 O -0.28900(11) 0.57351(12) 0.07331(8)
O6 O -0.39434(12) 0.59072(14) -0.03374(9)
N1 N 0.31499(12) 0.33037(14) 0.19064(10)
N2 N 0.33584(12) 0.13324(13) 0.21177(9)
C1 C 0.08411(15) 0.26892(15) 0.10853(11)
C2 C -0.02083(13) 0.29488(17) 0.09539(10)
C3 C -0.07265(16) 0.26277(16) 0.14351(12)
H2 H -0.0417 0.2245 0.1833
C4 C -0.16923(15) 0.28728(18) 0.13247(12)
H3 H -0.2034 0.2647 0.1645
C5 C -0.21596(15) 0.34536(17) 0.07386(12)
C6 C -0.16597(15) 0.37794(18) 0.02560(12)
H4 H -0.1970 0.4166 -0.0140
C7 C -0.06841(15) 0.35202(17) 0.03695(12)
H5 H -0.0346 0.3737 0.0045
C8 C -0.36568(15) 0.42595(18) 0.01216(14)
H6 H -0.4341 0.4146 0.0081
H7 H -0.3523 0.4020 -0.0317
C9 C -0.34642(15) 0.54057(19) 0.01833(13)
C10 C 0.30536(18) 0.42964(18) 0.17465(15)
H8 H 0.2677 0.4489 0.1299
C11 C 0.3492(2) 0.5051(2) 0.22209(17)
H9 H 0.3411 0.5736 0.2093
C12 C 0.4042(2) 0.4775(2) 0.28780(17)
H10 H 0.4331 0.5272 0.3208
C13 C 0.41677(17) 0.3755(2) 0.30506(14)
H11 H 0.4551 0.3553 0.3494
C14 C 0.37114(14) 0.30341(19) 0.25514(11)
C15 C 0.38057(14) 0.19210(18) 0.26748(11)
C16 C 0.43304(18) 0.1491(2) 0.33076(13)
H12 H 0.4626 0.1904 0.3693
C17 C 0.4412(2) 0.0447(2) 0.33624(15)
H13 H 0.4767 0.0149 0.3785
C18 C 0.39707(18) -0.0149(2) 0.27971(14)
H14 H 0.4025 -0.0857 0.2824
C19 C 0.34407(16) 0.03210(19) 0.21820(13)
H15 H 0.3129 -0.0085 0.1797
H16 H 0.3461(19) 0.191(2) 0.0378(13)
O5A O 0.21100(11) 0.07351(12) 0.07331(8)
Ni1A Ni -0.248005(19) 0.70927(2) 0.125731(14)
loop_
_geom_bond_atom_site_label_1
_geom_bond_atom_site_label_2
_geom_bond_site_symmetry_1
_geom_bond_site_symmetry_2
Ni1 O1 1_555 1_555
O1 H1 1_555 1_555
O2 Ni1 1_555 1_555
O3 Ni1 1_555 1_555
O4 C5 1_555 1_555
O5 C9 1_555 1_555
O6 C9 1_555 1_555
N1 Ni1 1_555 1_555
N2 Ni1 1_555 1_555
C1 O2 1_555 1_555
C2 C1 1_555 1_555
C3 C2 1_555 1_555
H2 C3 1_555 1_555
C4 C3 1_555 1_555
H3 C4 1_555 1_555
C5 C4 1_555 1_555
C6 C5 1_555 1_555
H4 C6 1_555 1_555
C7 C2 1_555 1_555
H5 C7 1_555 1_555
C8 O4 1_555 1_555
H6 C8 1_555 1_555
H7 C8 1_555 1_555
C9 C8 1_555 1_555
C10 N1 1_555 1_555
H8 C10 1_555 1_555
C11 C10 1_555 1_555
H9 C11 1_555 1_555
C12 C11 1_555 1_555
H10 C12 1_555 1_555
C13 C12 1_555 1_555
H11 C13 1_555 1_555
C14 N1 1_555 1_555
C15 N2 1_555 1_555
C16 C15 1_555 1_555
H12 C16 1_555 1_555
C17 C16 1_555 1_555
H13 C17 1_555 1_555
C18 C17 1_555 1_555
H14 C18 1_555 1_555
C19 N2 1_555 1_555
H15 C19 1_555 1_555
H16 O1 1_555 1_555
O5A Ni1 1_555 1_555
Ni1A O5 1_555 1_555
O3 C1 1_555 1_555
C6 C7 1_555 1_555
C13 C14 1_555 1_555
C14 C15 1_555 1_555
C18 C19 1_555 1_555

#END
