
#######################################################################
#
#                 Cambridge Crystallographic Data Centre
#                                CCDC 
#
#######################################################################
#
# If this CIF has been generated from an entry in the Cambridge 
# Structural Database, then it will include bibliographic, chemical, 
# crystal, experimental, refinement or atomic coordinate data resulting 
# from the CCDC's data processing and validation procedures.
#
#######################################################################

data_MAHQOC
_symmetry_cell_setting           triclinic
_symmetry_space_group_name_H-M   'P -1'
_symmetry_Int_Tables_number      2
_space_group_name_Hall           '-P 1'
loop_
_symmetry_equiv_pos_site_id
_symmetry_equiv_pos_as_xyz
1 x,y,z
2 -x,-y,-z
_cell_length_a                   9.046(2)
_cell_length_b                   14.626(3)
_cell_length_c                   17.588(4)
_cell_angle_alpha                104.40(2)
_cell_angle_beta                 100.20(2)
_cell_angle_gamma                92.47(2)
_cell_volume                     2209
loop_
_atom_site_label
_atom_site_type_symbol
_atom_site_fract_x
_atom_site_fract_y
_atom_site_fract_z
O13 O 0.1700(4) 1.1870(2) 0.1035(2)
H1 H 0.246(3) 1.158(3) 0.112(3)
H2 H 0.163(6) 1.201(3) 0.0591(15)
O15 O 1.6454(4) 0.6794(2) 1.0805(2)
H5 H 1.647(5) 0.704(3) 1.0413(17)
H6 H 1.736(2) 0.678(3) 1.104(3)
O16 O 0.5383(4) 0.9892(2) 0.6857(2)
H7 H 0.615(4) 0.978(3) 0.717(2)
H8 H 0.555(5) 1.0450(17) 0.680(3)
O17 O 0.8019(4) 0.9138(2) 0.74496(17)
H9 H 0.847(5) 0.908(3) 0.7904(11)
H10 H 0.820(5) 0.867(2) 0.7088(16)
O18 O 0.8937(4) 0.5522(3) 0.40163(19)
H11 H 0.922(6) 0.582(3) 0.4511(11)
H12 H 0.918(6) 0.4954(14) 0.396(3)
Cu2 Cu 0.0000 1.0000 0.0000
Cu3 Cu 0.73956(4) 0.76487(3) 0.50556(2)
Cu5 Cu 1.5000 0.5000 1.0000
O1 O -0.0216(3) 0.9895(2) 0.10598(17)
O2 O -0.1104(4) 0.8376(3) 0.06199(17)
O3 O -0.1204(3) 0.8296(2) 0.21538(16)
O4 O 0.4061(2) 0.79625(18) 0.23361(13)
O5 O 0.6880(2) 0.75538(17) 0.38923(12)
O6 O 0.5102(3) 0.85690(19) 0.39188(14)
O7 O 0.8020(2) 0.75248(16) 0.61678(12)
O8 O 0.9409(3) 0.63632(17) 0.57204(14)
O9 O 1.0598(2) 0.63179(17) 0.72620(15)
O10 O 1.5950(3) 0.64209(19) 0.76289(15)
O11 O 1.5282(3) 0.5023(2) 0.89303(16)
O12 O 1.5998(4) 0.6575(3) 0.91951(16)
O14 O 0.6276(3) 0.8977(2) 0.54763(16)
H3 H 0.597(4) 0.921(3) 0.5907(11)
H4 H 0.564(4) 0.905(3) 0.5081(11)
N1 N 0.1965(4) 0.9413(3) 0.0096(2)
N2 N 0.9379(3) 0.8374(2) 0.51565(15)
N3 N 0.5557(3) 0.6756(2) 0.49020(15)
N4 N 1.7005(4) 0.4472(2) 1.01872(18)
C1 C 0.2237(5) 0.8724(4) -0.0501(3)
H13 H 0.1487 0.8505 -0.0956
C2 C 0.3586(6) 0.8324(4) -0.0472(3)
H14 H 0.3747 0.7847 -0.0903
C3 C 0.4671(6) 0.8629(4) 0.0187(3)
H15 H 0.5600 0.8377 0.0215
C4 C 0.4384(6) 0.9315(4) 0.0814(3)
H16 H 0.5102 0.9526 0.1284
C5 C 0.3018(6) 0.9685(4) 0.0738(3)
H17 H 0.2830 1.0155 0.1166
C6 C -0.0751(4) 0.9122(3) 0.1137(2)
C7 C -0.1009(4) 0.9181(3) 0.19792(19)
H18 H -0.0155 0.9554 0.2360
H19 H -0.1896 0.9515 0.2056
C8 C 0.0073(3) 0.7831(3) 0.23268(19)
C9 C -0.0168(4) 0.7035(3) 0.2594(2)
H20 H -0.1132 0.6828 0.2631
C10 C 0.1055(4) 0.6554(3) 0.2804(2)
H21 H 0.0905 0.6023 0.2991
C11 C 0.2500(4) 0.6842(3) 0.2743(2)
H22 H 0.3313 0.6514 0.2892
C12 C 0.2704(3) 0.7620(2) 0.24592(18)
C13 C 0.1492(4) 0.8127(3) 0.22524(18)
H23 H 0.1642 0.8660 0.2066
C14 C 0.5403(3) 0.7599(3) 0.26649(18)
H24 H 0.6234 0.7790 0.2441
H25 H 0.5263 0.6912 0.2511
C15 C 0.5805(3) 0.7944(2) 0.35696(19)
C16 C 1.0282(4) 0.8067(3) 0.4643(2)
H26 H 0.9964 0.7520 0.4231
C17 C 1.1674(4) 0.8533(3) 0.4701(3)
H27 H 1.2282 0.8300 0.4335
C18 C 1.2147(4) 0.9336(3) 0.5299(3)
H28 H 1.3080 0.9661 0.5347
C19 C 1.1223(4) 0.9657(3) 0.5829(2)
H29 H 1.1522 1.0204 0.6244
C20 C 0.9850(4) 0.9161(3) 0.5741(2)
H30 H 0.9227 0.9383 0.6101
C21 C 0.4518(4) 0.6984(3) 0.5353(2)
H31 H 0.4698 0.7542 0.5762
C22 C 0.3199(4) 0.6429(3) 0.5237(2)
H32 H 0.2487 0.6617 0.5553
C23 C 0.2938(4) 0.5599(3) 0.4654(2)
H33 H 0.2049 0.5211 0.4564
C24 C 0.4020(4) 0.5349(3) 0.4202(2)
H34 H 0.3878 0.4780 0.3806
C25 C 0.5306(4) 0.5938(2) 0.43369(19)
H35 H 0.6027 0.5763 0.4025
C26 C 0.8897(3) 0.6877(2) 0.62555(18)
C27 C 0.9246(3) 0.6759(3) 0.70985(19)
H36 H 0.9335 0.7378 0.7475
H37 H 0.8411 0.6382 0.7182
C28 C 1.1927(3) 0.6844(2) 0.73252(18)
C29 C 1.2032(4) 0.7764(2) 0.7240(2)
H38 H 1.1172 0.8078 0.7149
C30 C 1.3440(4) 0.8198(3) 0.7295(2)
H39 H 1.3526 0.8811 0.7236
C31 C 1.4727(4) 0.7746(3) 0.7436(2)
H40 H 1.5670 0.8054 0.7476
C32 C 1.4606(3) 0.6829(3) 0.75173(18)
C33 C 1.3215(4) 0.6377(2) 0.74692(18)
H41 H 1.3136 0.5765 0.7532
C34 C 1.5926(4) 0.5583(3) 0.79006(19)
H42 H 1.6866 0.5298 0.7853
H43 H 1.5113 0.5133 0.7558
C35 C 1.5717(4) 0.5760(3) 0.8760(2)
C36 C 1.7369(5) 0.3768(3) 0.9637(2)
H44 H 1.6669 0.3501 0.9169
C37 C 1.8770(5) 0.3421(4) 0.9741(3)
H45 H 1.9002 0.2928 0.9345
C38 C 1.9794(5) 0.3793(4) 1.0413(3)
H46 H 2.0744 0.3572 1.0486
C39 C 1.9404(6) 0.4508(4) 1.0989(3)
H47 H 2.0082 0.4780 1.1464
C40 C 1.7993(6) 0.4816(3) 1.0851(3)
H48 H 1.7726 0.5293 1.1249
O1A O 0.0216(3) 1.0105(2) -0.10598(17)
N1A N -0.1965(4) 1.0587(3) -0.0096(2)
O11A O 1.4718(3) 0.4977(2) 1.10697(16)
N4A N 1.2995(4) 0.5528(2) 0.98128(18)
Cu1? Cu 0.0359(3) 1.03097(15) 0.02012(13)
Cu4? Cu 1.5346(9) 0.5295(5) 1.0166(5)
loop_
_geom_bond_atom_site_label_1
_geom_bond_atom_site_label_2
_geom_bond_site_symmetry_1
_geom_bond_site_symmetry_2
Cu2 O1 1_555 1_555
Cu3 O5 1_555 1_555
Cu5 O11 1_555 1_555
O1 C6 1_555 1_555
O2 C6 1_555 1_555
O3 C7 1_555 1_555
O4 C12 1_555 1_555
O5 C15 1_555 1_555
O6 C15 1_555 1_555
O7 Cu3 1_555 1_555
O8 C26 1_555 1_555
O9 C27 1_555 1_555
O10 C32 1_555 1_555
O11 C35 1_555 1_555
O12 C35 1_555 1_555
O13 H1 1_555 1_555
H2 O13 1_555 1_555
O14 Cu3 1_555 1_555
H3 O14 1_555 1_555
H4 O14 1_555 1_555
O15 H5 1_555 1_555
H6 O15 1_555 1_555
O16 H7 1_555 1_555
H8 O16 1_555 1_555
O17 H9 1_555 1_555
H10 O17 1_555 1_555
O18 H11 1_555 1_555
H12 O18 1_555 1_555
N1 Cu2 1_555 1_555
N2 Cu3 1_555 1_555
N3 Cu3 1_555 1_555
N4 Cu5 1_555 1_555
C1 N1 1_555 1_555
H13 C1 1_555 1_555
C2 C1 1_555 1_555
H14 C2 1_555 1_555
C3 C2 1_555 1_555
H15 C3 1_555 1_555
C4 C3 1_555 1_555
H16 C4 1_555 1_555
C5 N1 1_555 1_555
H17 C5 1_555 1_555
C6 C7 1_555 1_555
C7 H18 1_555 1_555
H19 C7 1_555 1_555
C8 O3 1_555 1_555
C9 C8 1_555 1_555
H20 C9 1_555 1_555
C10 C9 1_555 1_555
H21 C10 1_555 1_555
C11 C10 1_555 1_555
H22 C11 1_555 1_555
C12 C11 1_555 1_555
C13 C8 1_555 1_555
H23 C13 1_555 1_555
C14 O4 1_555 1_555
H24 C14 1_555 1_555
H25 C14 1_555 1_555
C15 C14 1_555 1_555
C16 N2 1_555 1_555
H26 C16 1_555 1_555
C17 C16 1_555 1_555
H27 C17 1_555 1_555
C18 C17 1_555 1_555
H28 C18 1_555 1_555
C19 C18 1_555 1_555
H29 C19 1_555 1_555
C20 N2 1_555 1_555
H30 C20 1_555 1_555
C21 N3 1_555 1_555
H31 C21 1_555 1_555
C22 C21 1_555 1_555
H32 C22 1_555 1_555
C23 C22 1_555 1_555
H33 C23 1_555 1_555
C24 C23 1_555 1_555
H34 C24 1_555 1_555
C25 N3 1_555 1_555
H35 C25 1_555 1_555
C26 O7 1_555 1_555
C27 C26 1_555 1_555
H36 C27 1_555 1_555
H37 C27 1_555 1_555
C28 O9 1_555 1_555
C29 C28 1_555 1_555
H38 C29 1_555 1_555
C30 C29 1_555 1_555
H39 C30 1_555 1_555
C31 C30 1_555 1_555
H40 C31 1_555 1_555
C32 C31 1_555 1_555
C33 C28 1_555 1_555
H41 C33 1_555 1_555
C34 O10 1_555 1_555
H42 C34 1_555 1_555
H43 C34 1_555 1_555
C35 C34 1_555 1_555
C36 N4 1_555 1_555
H44 C36 1_555 1_555
C37 C36 1_555 1_555
H45 C37 1_555 1_555
C38 C37 1_555 1_555
H46 C38 1_555 1_555
C39 C38 1_555 1_555
H47 C39 1_555 1_555
C40 N4 1_555 1_555
H48 C40 1_555 1_555
O1A Cu2 1_555 1_555
N1A Cu2 1_555 1_555
O11A Cu5 1_555 1_555
N4A Cu5 1_555 1_555
C4 C5 1_555 1_555
C12 C13 1_555 1_555
C19 C20 1_555 1_555
C24 C25 1_555 1_555
C32 C33 1_555 1_555
C39 C40 1_555 1_555

#END
