
#######################################################################
#
#                 Cambridge Crystallographic Data Centre
#                                CCDC 
#
#######################################################################
#
# If this CIF has been generated from an entry in the Cambridge 
# Structural Database, then it will include bibliographic, chemical, 
# crystal, experimental, refinement or atomic coordinate data resulting 
# from the CCDC's data processing and validation procedures.
#
#######################################################################

data_MAHYID
_symmetry_cell_setting           triclinic
_symmetry_space_group_name_H-M   'P -1'
_symmetry_Int_Tables_number      2
_space_group_name_Hall           '-P 1'
loop_
_symmetry_equiv_pos_site_id
_symmetry_equiv_pos_as_xyz
1 x,y,z
2 -x,-y,-z
_cell_length_a                   13.230(1)
_cell_length_b                   13.241(1)
_cell_length_c                   14.907(1)
_cell_angle_alpha                107.15(1)
_cell_angle_beta                 98.13(1)
_cell_angle_gamma                90.73(1)
_cell_volume                     2466.1
loop_
_atom_site_label
_atom_site_type_symbol
_atom_site_fract_x
_atom_site_fract_y
_atom_site_fract_z
N1 N 0.3697(4) 0.2201(4) 0.2855(4)
C1 C 0.4290(5) 0.2968(5) 0.3503(6)
C2 C 0.4332(6) 0.3994(6) 0.3464(7)
C3 C 0.3743(7) 0.4247(6) 0.2738(8)
C4 C 0.3134(9) 0.3455(8) 0.2081(10)
C5 C 0.3127(7) 0.2456(6) 0.2157(8)
N2 N 0.3838(3) 0.9025(4) 0.2943(4)
C6 C 0.4077(7) 0.8253(5) 0.2248(6)
C7 C 0.4107(7) 0.7215(6) 0.2269(8)
C8 C 0.3880(6) 0.6980(5) 0.3060(7)
C9 C 0.3663(8) 0.7761(6) 0.3765(8)
C10 C 0.3635(7) 0.8786(6) 0.3727(7)
N3 N 0.3871(7) 0.5907(6) 0.3255(7)
N4 N 0.3769(7) 0.5296(7) 0.2546(7)
N5 N 0.5337(3) 0.0700(4) 0.2868(4)
C11 C 0.5704(5) 0.1116(6) 0.2258(6)
C12 C 0.6733(5) 0.1219(6) 0.2218(6)
C13 C 0.7409(5) 0.0841(5) 0.2808(5)
C14 C 0.7047(5) 0.0416(5) 0.3447(6)
C15 C 0.5995(4) 0.0373(5) 0.3459(5)
N6 N 1.2139(4) 0.0517(4) 0.2857(4)
C16 C 1.1632(5) 0.1351(5) 0.3287(5)
C17 C 1.0599(5) 0.1305(5) 0.3266(5)
C18 C 1.0037(5) 0.0364(5) 0.2796(5)
C19 C 1.0541(5) -0.0503(5) 0.2369(5)
C20 C 1.1572(5) -0.0395(5) 0.2385(5)
N7 N 0.8949(4) 0.0217(5) 0.2783(5)
N8 N 0.8486(4) 0.0975(5) 0.2775(5)
N15 N 0.3122(8) -0.0191(9) 0.0758(9)
O1 O 0.3684(5) 0.0064(4) 0.1418(4)
O2 O 0.3212(12) -0.091(2) 0.0018(11)
O3 O 0.2328(9) 0.0243(9) 0.0594(11)
N16 N 0.3604(6) 0.1445(6) 0.5037(6)
O4 O 0.4128(3) 0.1206(3) 0.4377(4)
O5 O 0.2852(6) 0.0851(7) 0.4995(6)
O6 O 0.3828(8) 0.2182(9) 0.5718(7)
H1 H 0.4691 0.2806 0.4001
H2 H 0.4758 0.4511 0.3928
H3 H 0.2722 0.3597 0.1578
H4 H 0.2704 0.1929 0.1700
H5 H 0.4236 0.8406 0.1712
H6 H 0.4277 0.6685 0.1756
H7 H 0.3522 0.7619 0.4311
H8 H 0.3475 0.9320 0.4243
H9 H 0.5244 0.1347 0.1840
H10 H 0.6962 0.1539 0.1800
H11 H 0.7493 0.0164 0.3862
H12 H 0.5749 0.0102 0.3900
H13 H 1.2001 0.1987 0.3612
H14 H 1.0274 0.1903 0.3565
H15 H 1.0187 -0.1154 0.2073
H16 H 1.1902 -0.0974 0.2056
Ni1 Ni 0.37337(5) 0.06090(5) 0.28871(6)
Ni1_2 Ni 0.37337(5) 1.06090(5) 0.28871(6)
N2_2 N 0.3838(3) -0.0975(4) 0.2943(4)
N6_2 N 0.2139(4) 0.0517(4) 0.2857(4)
Ni1_3 Ni 1.37337(5) 0.06090(5) 0.28871(6)
N9 N -0.0249(4) 0.3482(4) 0.1366(4)
C21 C 0.0509(6) 0.3229(5) 0.0874(7)
C22 C 0.0672(6) 0.2195(6) 0.0373(7)
C23 C 0.0008(5) 0.1397(5) 0.0403(5)
C24 C -0.0772(6) 0.1651(5) 0.0877(6)
C25 C -0.0892(6) 0.2704(6) 0.1368(6)
N10 N 0.0178(5) 0.0329(4) -0.0152(4)
N11 N -0.0218(4) 0.6563(4) 0.3244(4)
C26 C 0.0719(6) 0.7000(6) 0.3625(6)
C27 C 0.0904(6) 0.8030(6) 0.4209(7)
C28 C 0.0098(6) 0.8644(5) 0.4395(5)
C29 C -0.0866(6) 0.8199(5) 0.4026(6)
C30 C -0.0994(6) 0.7161(5) 0.3446(6)
N12 N 0.0361(5) 0.9731(4) 0.4995(5)
N13 N -0.1803(4) 0.5077(4) 0.1531(4)
C31 C -0.1924(6) 0.5031(6) 0.0616(6)
C32 C -0.2855(7) 0.4959(7) 0.0088(7)
C33 C -0.3715(6) 0.4972(6) 0.0487(7)
C34 C -0.3630(6) 0.5011(7) 0.1412(8)
C35 C -0.2633(6) 0.5051(6) 0.1921(6)
N14 N -0.4710(6) 0.4873(6) -0.0239(6)
N17 N 0.0071(6) 0.4287(5) 0.3625(5)
O7 O 0.0790(4) 0.4575(4) 0.3268(4)
O8 O -0.0827(4) 0.4415(4) 0.3263(4)
O9 O 0.0225(6) 0.3900(5) 0.4278(5)
N18 N 0.0732(11) 0.6381(9) 0.1423(7)
O10 O 0.0537(6) 0.5559(5) 0.1451(5)
O11 O 0.1379(6) 0.6868(6) 0.1290(7)
O12 O -0.0202(9) 0.6884(7) 0.1357(8)
H17 H 0.0959 0.3769 0.0862
H18 H 0.1212 0.2045 0.0026
H19 H -0.1242 0.1126 0.0881
H20 H -0.1437 0.2866 0.1706
H21 H 0.1275 0.6590 0.3490
H22 H 0.1569 0.8299 0.4470
H23 H -0.1433 0.8592 0.4163
H24 H -0.1654 0.6874 0.3189
H25 H -0.1345 0.5049 0.0330
H26 H -0.2906 0.4900 -0.0555
H27 H -0.4206 0.5011 0.1704
H28 H -0.2562 0.5060 0.2553
Ni2 Ni -0.03530(6) 0.50306(6) 0.22469(6)
N10A N -0.0178(5) -0.0329(4) 0.0152(4)
N12A N -0.0361(5) 1.0269(4) 0.5005(5)
N14A N -0.5290(6) 0.5127(6) 0.0239(6)
C23A C -0.0008(5) -0.1397(5) -0.0403(5)
C28A C -0.0098(6) 1.1356(5) 0.5605(5)
C33A C -0.6285(6) 0.5028(6) -0.0487(7)
C22A C -0.0672(6) -0.2195(6) -0.0373(7)
C24A C 0.0772(6) -0.1651(5) -0.0877(6)
C27A C -0.0904(6) 1.1970(6) 0.5791(7)
C29A C 0.0866(6) 1.1801(5) 0.5974(6)
C32A C -0.7145(7) 0.5041(7) -0.0088(7)
C34A C -0.6370(6) 0.4989(7) -0.1412(8)
C21A C -0.0509(6) -0.3229(5) -0.0874(7)
H18A H -0.1212 -0.2045 -0.0026
C25A C 0.0892(6) -0.2704(6) -0.1368(6)
H19A H 0.1242 -0.1126 -0.0881
C26A C -0.0719(6) 1.3000(6) 0.6375(6)
H22A H -0.1569 1.1701 0.5530
C30A C 0.0994(6) 1.2839(5) 0.6554(6)
H23A H 0.1433 1.1408 0.5837
C31A C -0.8076(6) 0.4969(6) -0.0616(6)
H26A H -0.7094 0.5100 0.0555
C35A C -0.7367(6) 0.4949(6) -0.1921(6)
H27A H -0.5794 0.4989 -0.1704
N9A N 0.0249(4) -0.3482(4) -0.1366(4)
H17A H -0.0959 -0.3769 -0.0862
H20A H 0.1437 -0.2866 -0.1706
N11A N 0.0218(4) 1.3437(4) 0.6756(4)
H21A H -0.1275 1.3410 0.6510
H24A H 0.1654 1.3126 0.6811
N13A N -0.8197(4) 0.4923(4) -0.1531(4)
H25A H -0.8655 0.4951 -0.0330
H28A H -0.7438 0.4940 -0.2553
Ni2A Ni 0.03530(6) -0.50306(6) -0.22469(6)
Ni2A_2 Ni 0.03530(6) 1.49694(6) 0.77531(6)
Ni2A_3 Ni -0.96470(6) 0.49694(6) -0.22469(6)
N9A_2 N -0.9751(4) 0.6518(4) -0.1366(4)
N11A_2 N -0.9782(4) 0.3437(4) -0.3244(4)
O7A O -1.0790(4) 0.5425(4) -0.3268(4)
O8A O -0.9173(4) 0.5585(4) -0.3263(4)
O10A O -1.0537(6) 0.4441(5) -0.1451(5)
N17A N -1.0071(6) 0.5713(5) -0.3625(5)
N18A N -1.0732(11) 0.3619(9) -0.1423(7)
O9A O -1.0225(6) 0.6100(5) -0.4278(5)
O11A O -1.1379(6) 0.3132(6) -0.1290(7)
O12A O -0.9798(9) 0.3116(7) -0.1357(8)
C36 C 0.3980(19) 0.1504(15) -0.0527(15)
Cl1 Cl 0.3179(11) 0.2041(7) -0.1290(11)
Cl2 Cl 0.4790(10) 0.2513(7) 0.0298(8)
H29 H 0.3570 0.1163 -0.0197
H30 H 0.4384 0.0976 -0.0893
C37 C -0.2401(8) 0.4657(7) 0.4832(8)
Cl3 Cl -0.2988(3) 0.5686(3) 0.4516(3)
Cl4 Cl -0.2939(3) 0.3438(3) 0.4176(3)
H31 H -0.1686 0.4689 0.4759
H32 H -0.2433 0.4749 0.5497
loop_
_geom_bond_atom_site_label_1
_geom_bond_atom_site_label_2
_geom_bond_site_symmetry_1
_geom_bond_site_symmetry_2
N1 C1 1_555 1_555
C1 C2 1_555 1_555
C2 C3 1_555 1_555
C3 C4 1_555 1_555
C4 C5 1_555 1_555
C5 N1 1_555 1_555
N2 C6 1_555 1_555
C6 C7 1_555 1_555
C7 C8 1_555 1_555
C8 C9 1_555 1_555
C9 C10 1_555 1_555
C10 N2 1_555 1_555
N3 C8 1_555 1_555
N4 C3 1_555 1_555
N5 C11 1_555 1_555
C11 C12 1_555 1_555
C12 C13 1_555 1_555
C13 C14 1_555 1_555
C14 C15 1_555 1_555
C15 N5 1_555 1_555
N6 C16 1_555 1_555
C16 C17 1_555 1_555
C17 C18 1_555 1_555
C18 C19 1_555 1_555
C19 C20 1_555 1_555
C20 N6 1_555 1_555
N7 C18 1_555 1_555
N8 C13 1_555 1_555
N9 C21 1_555 1_555
C21 C22 1_555 1_555
C22 C23 1_555 1_555
C23 C24 1_555 1_555
C24 C25 1_555 1_555
C25 N9 1_555 1_555
N10 C23 1_555 1_555
N11 C26 1_555 1_555
C26 C27 1_555 1_555
C27 C28 1_555 1_555
C28 C29 1_555 1_555
C29 C30 1_555 1_555
C30 N11 1_555 1_555
N12 C28 1_555 1_555
N13 C31 1_555 1_555
C31 C32 1_555 1_555
C32 C33 1_555 1_555
C33 C34 1_555 1_555
C34 C35 1_555 1_555
C35 N13 1_555 1_555
N14 C33 1_555 1_555
N15 O1 1_555 1_555
O1 Ni1 1_555 1_555
O2 N15 1_555 1_555
O3 N15 1_555 1_555
N16 O4 1_555 1_555
O4 Ni1 1_555 1_555
O5 N16 1_555 1_555
O6 N16 1_555 1_555
N17 O7 1_555 1_555
O7 Ni2 1_555 1_555
O8 N17 1_555 1_555
O9 N17 1_555 1_555
N18 O10 1_555 1_555
O10 Ni2 1_555 1_555
O11 N18 1_555 1_555
O12 N18 1_555 1_555
C36 Cl1 1_555 1_555
Cl2 C36 1_555 1_555
C37 Cl3 1_555 1_555
Cl4 C37 1_555 1_555
H1 C1 1_555 1_555
H2 C2 1_555 1_555
H3 C4 1_555 1_555
H4 C5 1_555 1_555
H5 C6 1_555 1_555
H6 C7 1_555 1_555
H7 C9 1_555 1_555
H8 C10 1_555 1_555
H9 C11 1_555 1_555
H10 C12 1_555 1_555
H11 C14 1_555 1_555
H12 C15 1_555 1_555
H13 C16 1_555 1_555
H14 C17 1_555 1_555
H15 C19 1_555 1_555
H16 C20 1_555 1_555
H17 C21 1_555 1_555
H18 C22 1_555 1_555
H19 C24 1_555 1_555
H20 C25 1_555 1_555
H21 C26 1_555 1_555
H22 C27 1_555 1_555
H23 C29 1_555 1_555
H24 C30 1_555 1_555
H25 C31 1_555 1_555
H26 C32 1_555 1_555
H27 C34 1_555 1_555
H28 C35 1_555 1_555
H29 C36 1_555 1_555
H30 C36 1_555 1_555
H31 C37 1_555 1_555
H32 C37 1_555 1_555
Ni1 N1 1_555 1_555
Ni2 N9 1_555 1_555
Ni1_2 N2 1_555 1_555
N10A N10 1_555 1_555
N12A N12 1_555 1_555
N14A N14 1_555 1_555
N2_2 Ni1 1_555 1_555
C23A N10A 1_555 1_555
C28A N12A 1_555 1_555
C33A N14A 1_555 1_555
C22A C23A 1_555 1_555
C24A C23A 1_555 1_555
C27A C28A 1_555 1_555
C29A C28A 1_555 1_555
C32A C33A 1_555 1_555
C34A C33A 1_555 1_555
C21A C22A 1_555 1_555
H18A C22A 1_555 1_555
C25A C24A 1_555 1_555
H19A C24A 1_555 1_555
C26A C27A 1_555 1_555
H22A C27A 1_555 1_555
C30A C29A 1_555 1_555
H23A C29A 1_555 1_555
C31A C32A 1_555 1_555
H26A C32A 1_555 1_555
C35A C34A 1_555 1_555
H27A C34A 1_555 1_555
N6_2 Ni1 1_555 1_555
N9A C21A 1_555 1_555
H17A C21A 1_555 1_555
H20A C25A 1_555 1_555
N11A C26A 1_555 1_555
H21A C26A 1_555 1_555
H24A C30A 1_555 1_555
N13A C31A 1_555 1_555
H25A C31A 1_555 1_555
H28A C35A 1_555 1_555
Ni1_3 N6 1_555 1_555
Ni2A N9A 1_555 1_555
Ni2A_2 N11A 1_555 1_555
Ni2A_3 N13A 1_555 1_555
N9A_2 Ni2A_3 1_555 1_555
N11A_2 Ni2A_3 1_555 1_555
O7A Ni2A_3 1_555 1_555
O8A Ni2A_3 1_555 1_555
O10A Ni2A_3 1_555 1_555
N17A O7A 1_555 1_555
N18A O10A 1_555 1_555
O9A N17A 1_555 1_555
O11A N18A 1_555 1_555
O12A N18A 1_555 1_555
N3 N4 1_555 1_555
N5 Ni1 1_555 1_555
N7 N8 1_555 1_555
N11 Ni2 1_555 1_555
N13 Ni2 1_555 1_555
O8 Ni2 1_555 1_555
C25A N9A 1_555 1_555
C30A N11A 1_555 1_555
C35A N13A 1_555 1_555
O8A N17A 1_555 1_555

#END
