
#######################################################################
#
#                 Cambridge Crystallographic Data Centre
#                                CCDC 
#
#######################################################################
#
# If this CIF has been generated from an entry in the Cambridge 
# Structural Database, then it will include bibliographic, chemical, 
# crystal, experimental, refinement or atomic coordinate data resulting 
# from the CCDC's data processing and validation procedures.
#
#######################################################################

data_MAHZUQ
_symmetry_cell_setting           monoclinic
_symmetry_space_group_name_H-M   'I 2/a'
_symmetry_Int_Tables_number      15
_space_group_name_Hall           '-I 2ya'
loop_
_symmetry_equiv_pos_site_id
_symmetry_equiv_pos_as_xyz
1 x,y,z
2 1/2-x,y,-z
3 1/2+x,1/2+y,1/2+z
4 -x,1/2+y,1/2-z
5 -x,-y,-z
6 1/2+x,-y,z
7 1/2-x,1/2-y,1/2-z
8 x,1/2-y,1/2+z
_cell_length_a                   13.472(4)
_cell_length_b                   6.695(2)
_cell_length_c                   18.247(6)
_cell_angle_alpha                90
_cell_angle_beta                 97.14(2)
_cell_angle_gamma                90
_cell_volume                     1633.03
loop_
_atom_site_label
_atom_site_type_symbol
_atom_site_fract_x
_atom_site_fract_y
_atom_site_fract_z
Cu1 Cu 0.0270(1) 0.0392(1) 0.1137(1)
N1 N 0.0040(4) 0.2219(12) 0.0307(4)
N2 N -0.0666(4) 0.3166(9) 0.0172(3)
N3 N -0.1384(5) 0.4040(11) 0.0008(4)
O1 O 0.0474(4) 0.2467(9) 0.2110(3)
N4 N 0.1760(3) 0.0437(8) 0.1130(3)
C1 C 0.2196(3) -0.1248(9) 0.1401(3)
C2 C 0.3224(4) -0.1495(9) 0.1415(3)
N5 N 0.3791(3) -0.0036(7) 0.1200(3)
C3 C 0.3355(4) 0.1672(9) 0.0961(3)
C4 C 0.2325(4) 0.1889(9) 0.0910(3)
C5 C 0.1498(4) -0.2764(9) 0.1692(3)
O2 O 0.0590(3) -0.2177(7) 0.1642(3)
O3 O 0.1838(3) -0.4343(7) 0.1945(2)
H1 H 0.0105(48) 0.251(11) 0.2442(44)
H2 H 0.0826(49) 0.347(11) 0.2106(41)
H3 H 0.3519(4) -0.2698(9) 0.1578(3)
H4 H 0.3745(4) 0.2726(9) 0.0828(3)
H5 H 0.2027(4) 0.3064(9) 0.0720(3)
N5E N -0.1209(3) 0.0036(7) 0.1200(3)
Cu1E Cu 0.5270(1) -0.0392(1) 0.1137(1)
loop_
_geom_bond_atom_site_label_1
_geom_bond_atom_site_label_2
_geom_bond_site_symmetry_1
_geom_bond_site_symmetry_2
Cu1 N1 1_555 1_555
N1 N2 1_555 1_555
N2 N3 1_555 1_555
O1 Cu1 1_555 1_555
N4 Cu1 1_555 1_555
C1 N4 1_555 1_555
C2 C1 1_555 1_555
N5 C2 1_555 1_555
C3 N5 1_555 1_555
C4 N4 1_555 1_555
C5 C1 1_555 1_555
O2 Cu1 1_555 1_555
O3 C5 1_555 1_555
H1 O1 1_555 1_555
H2 O1 1_555 1_555
H3 C2 1_555 1_555
H4 C3 1_555 1_555
H5 C4 1_555 1_555
N5E Cu1 1_555 1_555
Cu1E N5 1_555 1_555
C3 C4 1_555 1_555
C5 O2 1_555 1_555

#END
