
#######################################################################
#
#                 Cambridge Crystallographic Data Centre
#                                CCDC 
#
#######################################################################
#
# If this CIF has been generated from an entry in the Cambridge 
# Structural Database, then it will include bibliographic, chemical, 
# crystal, experimental, refinement or atomic coordinate data resulting 
# from the CCDC's data processing and validation procedures.
#
#######################################################################

data_MAHZOL
_symmetry_cell_setting           monoclinic
_symmetry_space_group_name_H-M   'P 21/c'
_symmetry_Int_Tables_number      14
_space_group_name_Hall           '-P 2ybc'
loop_
_symmetry_equiv_pos_site_id
_symmetry_equiv_pos_as_xyz
1 x,y,z
2 x,1/2-y,1/2+z
3 -x,-y,-z
4 -x,1/2+y,1/2-z
_cell_length_a                   20.539(3)
_cell_length_b                   7.012(2)
_cell_length_c                   19.243(3)
_cell_angle_alpha                90
_cell_angle_beta                 116.95(3)
_cell_angle_gamma                90
_cell_volume                     2470.4
loop_
_atom_site_label
_atom_site_type_symbol
_atom_site_fract_x
_atom_site_fract_y
_atom_site_fract_z
I1 I -0.10692(3) 0.44804(12) 0.22932(3)
I2 I 0.59923(3) 1.12061(9) 0.98932(3)
Sr1 Sr 0.25453(4) 0.61327(12) 0.64584(5)
S1 S 0.18248(10) 0.3063(3) 0.46392(10)
S2 S 0.30786(10) 1.1048(3) 0.73804(10)
O1 O 0.2754(3) 0.9645(8) 0.6758(3)
O2 O 0.1946(4) 0.7629(8) 0.5083(4)
O3 O 0.2795(3) 1.2964(8) 0.7125(3)
O4 O 0.3175(3) 0.6540(8) 0.7936(3)
O5 O 0.3025(3) 1.0477(8) 0.8084(3)
O6 O 0.6268(3) 1.1212(9) 0.8380(3)
O7 O 0.1884(3) 0.4435(9) 0.4103(4)
O8 O 0.2010(4) 0.1125(8) 0.4506(4)
O9 O 0.2228(3) 0.3592(9) 0.5465(3)
O10 O -0.1332(3) 0.3500(9) 0.3787(3)
N1 N 0.5348(3) 1.1244(9) 0.6853(4)
N2 N -0.0402(4) 0.2350(9) 0.5239(4)
C1 C 0.4936(5) 1.1256(13) 0.6088(4)
C2 C 0.4177(5) 1.1219(14) 0.5777(5)
C3 C 0.3855(4) 1.1197(12) 0.6265(5)
C4 C 0.4017(4) 1.1096(10) 0.7658(4)
C5 C 0.4513(4) 1.1129(10) 0.8437(4)
C6 C 0.5267(4) 1.1192(12) 0.8701(4)
C7 C 0.5585(4) 1.1188(11) 0.8186(4)
C8 C 0.4296(4) 1.1174(10) 0.7084(4)
C9 C 0.5066(4) 1.1203(11) 0.7371(4)
C10 C 0.0012(5) 0.1765(13) 0.5949(5)
C11 C 0.0741(5) 0.1495(12) 0.6210(5)
C12 C 0.1047(4) 0.1901(12) 0.5736(4)
C13 C 0.0885(4) 0.3028(11) 0.4417(4)
C14 C 0.0394(4) 0.3576(12) 0.3676(4)
C15 C -0.0354(4) 0.3683(12) 0.3435(4)
C16 C -0.0658(4) 0.3328(11) 0.3954(4)
C17 C 0.0629(4) 0.2564(10) 0.4969(4)
C18 C -0.0134(4) 0.2753(10) 0.4728(4)
H1 H -0.08630 0.24860 0.50900
H2 H 0.16860 0.85350 0.46870
H3 H -0.01970 0.15280 0.62800
H4 H 0.20460 0.65280 0.48600
H5 H 0.10270 0.10350 0.67110
H6 H 0.36770 0.63170 0.82640
H7 H 0.15470 0.17360 0.59190
H8 H 0.31010 0.76550 0.81770
H9 H 0.05700 0.38900 0.33230
H10 H 0.58150 1.12640 0.70300
H11 H 0.51540 1.12880 0.57580
H12 H 0.38900 1.12100 0.52390
H13 H 0.33490 1.12000 0.60590
H14 H 0.43350 1.11100 0.88040
O3_2 O 0.2795(3) 0.2964(8) 0.7125(3)
O6C O 0.3732(3) 0.6212(9) 0.6620(3)
O10B O 0.1332(3) 0.6500(9) 0.6213(3)
Sr1_2 Sr 0.25453(4) 1.61327(12) 0.64584(5)
Sr1C Sr 0.74547(4) 1.11327(12) 0.85416(5)
Sr1B Sr -0.25453(4) 0.38673(12) 0.35416(5)
O11 O 0.3037(4) 0.3852(8) 0.8886(3)
H15 H 0.28590 0.39010 0.92680
H16 H 0.30550 0.25110 0.87720
loop_
_geom_bond_atom_site_label_1
_geom_bond_atom_site_label_2
_geom_bond_site_symmetry_1
_geom_bond_site_symmetry_2
I1 C15 1_555 1_555
I2 C6 1_555 1_555
Sr1 O1 1_555 1_555
S1 O7 1_555 1_555
S2 O1 1_555 1_555
O2 Sr1 1_555 1_555
O3 S2 1_555 1_555
O4 Sr1 1_555 1_555
O5 S2 1_555 1_555
O6 C7 1_555 1_555
O8 S1 1_555 1_555
O9 Sr1 1_555 1_555
O10 C16 1_555 1_555
N1 C1 1_555 1_555
N2 C10 1_555 1_555
C1 C2 1_555 1_555
C2 C3 1_555 1_555
C3 C8 1_555 1_555
C4 S2 1_555 1_555
C5 C4 1_555 1_555
C6 C5 1_555 1_555
C7 C6 1_555 1_555
C8 C4 1_555 1_555
C9 N1 1_555 1_555
C10 C11 1_555 1_555
C11 C12 1_555 1_555
C12 C17 1_555 1_555
C13 S1 1_555 1_555
C14 C13 1_555 1_555
C15 C14 1_555 1_555
C16 C15 1_555 1_555
C17 C13 1_555 1_555
C18 N2 1_555 1_555
O11 H15 1_555 1_555
H1 N2 1_555 1_555
H2 O2 1_555 1_555
H3 C10 1_555 1_555
H4 O2 1_555 1_555
H5 C11 1_555 1_555
H6 O4 1_555 1_555
H7 C12 1_555 1_555
H8 O4 1_555 1_555
H9 C14 1_555 1_555
H10 N1 1_555 1_555
H11 C1 1_555 1_555
H12 C2 1_555 1_555
H13 C3 1_555 1_555
H14 C5 1_555 1_555
H16 O11 1_555 1_555
O3_2 Sr1 1_555 1_555
O6C Sr1 1_555 1_555
O10B Sr1 1_555 1_555
Sr1_2 O3 1_555 1_555
Sr1C O6 1_555 1_555
Sr1B O10 1_555 1_555
S1 O9 1_555 1_555
C7 C9 1_555 1_555
C8 C9 1_555 1_555
C16 C18 1_555 1_555
C17 C18 1_555 1_555

#END
