
#######################################################################
#
#                 Cambridge Crystallographic Data Centre
#                                CCDC 
#
#######################################################################
#
# If this CIF has been generated from an entry in the Cambridge 
# Structural Database, then it will include bibliographic, chemical, 
# crystal, experimental, refinement or atomic coordinate data resulting 
# from the CCDC's data processing and validation procedures.
#
#######################################################################

data_MAJBAA
_symmetry_cell_setting           monoclinic
_symmetry_space_group_name_H-M   'P 21/n'
_symmetry_Int_Tables_number      14
_space_group_name_Hall           '-P 2yn'
loop_
_symmetry_equiv_pos_site_id
_symmetry_equiv_pos_as_xyz
1 x,y,z
2 1/2-x,1/2+y,1/2-z
3 -x,-y,-z
4 1/2+x,1/2-y,1/2+z
_cell_length_a                   5.645(3)
_cell_length_b                   12.775(5)
_cell_length_c                   11.054(6)
_cell_angle_alpha                90
_cell_angle_beta                 102.07(4)
_cell_angle_gamma                90
_cell_volume                     779.535
loop_
_atom_site_label
_atom_site_type_symbol
_atom_site_fract_x
_atom_site_fract_y
_atom_site_fract_z
Cu1 Cu 0.0545(1) 0.2232(1) 0.3399(1)
N1 N -0.0760(6) 0.2259(2) 0.4960(3)
C1 C -0.1981(7) 0.3147(3) 0.5057(3)
C2 C -0.3160(7) 0.3293(3) 0.6014(4)
N2 N -0.3145(6) 0.2533(3) 0.6865(3)
C3 C -0.1978(7) 0.1646(3) 0.6745(4)
C4 C -0.0726(8) 0.1513(3) 0.5805(4)
C5 C -0.1946(7) 0.3946(3) 0.4056(4)
O1 O -0.2958(7) 0.4788(2) 0.4100(3)
O2 O -0.0823(6) 0.3661(2) 0.3232(3)
Cl1 Cl 0.3312(2) 0.0992(1) 0.4075(1)
O3 O -0.2664(6) 0.1322(3) 0.2480(3)
H1 H -0.3972(7) 0.3918(3) 0.6075(4)
H2 H -0.2005(7) 0.1104(3) 0.7304(4)
H3 H 0.0144(8) 0.0901(3) 0.5764(4)
H4 H -0.2567(87) 0.0802(25) 0.2045(37)
H5 H -0.3527(73) 0.1167(33) 0.2981(35)
N2C N 0.1855(6) 0.2467(3) 0.1865(3)
Cu1C Cu -0.4455(1) 0.2768(1) 0.8399(1)
loop_
_geom_bond_atom_site_label_1
_geom_bond_atom_site_label_2
_geom_bond_site_symmetry_1
_geom_bond_site_symmetry_2
Cu1 N1 1_555 1_555
N1 C1 1_555 1_555
C1 C2 1_555 1_555
C2 N2 1_555 1_555
N2 C3 1_555 1_555
C3 C4 1_555 1_555
C4 N1 1_555 1_555
C5 C1 1_555 1_555
O1 C5 1_555 1_555
O2 Cu1 1_555 1_555
Cl1 Cu1 1_555 1_555
O3 Cu1 1_555 1_555
H1 C2 1_555 1_555
H2 C3 1_555 1_555
H3 C4 1_555 1_555
H4 O3 1_555 1_555
H5 O3 1_555 1_555
N2C Cu1 1_555 1_555
Cu1C N2 1_555 1_555
C5 O2 1_555 1_555

#END
