
#######################################################################
#
#                 Cambridge Crystallographic Data Centre
#                                CCDC 
#
#######################################################################
#
# If this CIF has been generated from an entry in the Cambridge 
# Structural Database, then it will include bibliographic, chemical, 
# crystal, experimental, refinement or atomic coordinate data resulting 
# from the CCDC's data processing and validation procedures.
#
#######################################################################

data_MAJGUB
_symmetry_cell_setting           monoclinic
_symmetry_space_group_name_H-M   'P 21/n'
_symmetry_Int_Tables_number      14
_space_group_name_Hall           '-P 2yn'
loop_
_symmetry_equiv_pos_site_id
_symmetry_equiv_pos_as_xyz
1 x,y,z
2 1/2-x,1/2+y,1/2-z
3 -x,-y,-z
4 1/2+x,1/2-y,1/2+z
_cell_length_a                   13.202(2)
_cell_length_b                   8.4510(5)
_cell_length_c                   17.6103(18)
_cell_angle_alpha                90
_cell_angle_beta                 96.248(9)
_cell_angle_gamma                90
_cell_volume                     1953.11
loop_
_atom_site_label
_atom_site_type_symbol
_atom_site_fract_x
_atom_site_fract_y
_atom_site_fract_z
Hg1 Hg -0.00483(3) 0.10394(4) 0.73865(2)
Br1 Br 0.17716(9) 0.16632(17) 0.76599(7)
Br2 Br -0.18888(8) 0.15591(14) 0.71856(6)
O1 O -0.0291(5) 0.1701(8) 0.8967(4)
O2 O -0.4761(5) 0.3678(7) 1.0874(4)
N1 N 0.0184(6) -0.1308(9) 0.8403(4)
N2 N -0.0514(6) -0.3167(9) 0.9219(5)
N3 N -0.1107(6) -0.0611(8) 0.9169(4)
H1 H -0.1664 -0.0972 0.9315
N4 N -0.3854(6) 0.5959(8) 1.0803(4)
H2 H -0.3273 0.6315 1.0702
N5 N -0.5166(6) 0.6554(8) 1.1573(4)
N6 N -0.4444(6) 0.8504(9) 1.0825(5)
C1 C 0.0832(7) -0.2421(12) 0.8232(5)
H3 H 0.1310 -0.2166 0.7901
C2 C 0.0831(8) -0.3919(12) 0.8519(5)
H4 H 0.1298 -0.4673 0.8393
C3 C 0.0120(7) -0.4266(12) 0.8996(6)
H5 H 0.0073 -0.5298 0.9173
C4 C -0.0439(6) -0.1735(10) 0.8921(5)
C5 C -0.0981(7) 0.0994(10) 0.9209(5)
C6 C -0.1794(6) 0.1838(10) 0.9590(4)
C7 C -0.2265(7) 0.1177(10) 1.0194(5)
H6 H -0.2091 0.0162 1.0366
C8 C -0.2975(7) 0.2023(10) 1.0528(5)
H7 H -0.3289 0.1573 1.0924
C9 C -0.3238(6) 0.3547(10) 1.0286(5)
C10 C -0.2773(7) 0.4198(10) 0.9676(5)
H8 H -0.2950 0.5209 0.9501
C11 C -0.2069(7) 0.3358(11) 0.9344(5)
H9 H -0.1762 0.3805 0.8944
C12 C -0.4035(7) 0.4407(11) 1.0681(4)
C13 C -0.4528(6) 0.7053(10) 1.1081(5)
C14 C -0.5836(7) 0.7644(11) 1.1768(5)
H10 H -0.6319 0.7344 1.2088
C15 C -0.5834(8) 0.9161(11) 1.1517(6)
H11 H -0.6305 0.9895 1.1656
C16 C -0.5116(8) 0.9569(13) 1.1053(6)
H12 H -0.5085 1.0611 1.0887
Hg1C Hg -0.50483(3) 0.39606(4) 1.23865(2)
N5C N -0.0166(6) -0.1554(8) 0.6573(4)
O3 O -0.1871(6) 0.7276(9) 1.0450(5)
loop_
_geom_bond_atom_site_label_1
_geom_bond_atom_site_label_2
_geom_bond_site_symmetry_1
_geom_bond_site_symmetry_2
Hg1 Br1 1_555 1_555
Br2 Hg1 1_555 1_555
O1 C5 1_555 1_555
O2 C12 1_555 1_555
N1 Hg1 1_555 1_555
N2 C3 1_555 1_555
N3 H1 1_555 1_555
N4 H2 1_555 1_555
N5 C13 1_555 1_555
N6 C13 1_555 1_555
C1 N1 1_555 1_555
H3 C1 1_555 1_555
C2 C1 1_555 1_555
H4 C2 1_555 1_555
C3 C2 1_555 1_555
H5 C3 1_555 1_555
C4 N1 1_555 1_555
C5 N3 1_555 1_555
C6 C5 1_555 1_555
C7 C6 1_555 1_555
H6 C7 1_555 1_555
C8 C7 1_555 1_555
H7 C8 1_555 1_555
C9 C8 1_555 1_555
C10 C9 1_555 1_555
H8 C10 1_555 1_555
C11 C6 1_555 1_555
H9 C11 1_555 1_555
C12 N4 1_555 1_555
C13 N4 1_555 1_555
C14 N5 1_555 1_555
H10 C14 1_555 1_555
C15 C14 1_555 1_555
H11 C15 1_555 1_555
C16 N6 1_555 1_555
H12 C16 1_555 1_555
Hg1C N5 1_555 1_555
N5C Hg1 1_555 1_555
N2 C4 1_555 1_555
N3 C4 1_555 1_555
C9 C12 1_555 1_555
C10 C11 1_555 1_555
C15 C16 1_555 1_555

#END
