
#######################################################################
#
#                 Cambridge Crystallographic Data Centre
#                                CCDC 
#
#######################################################################
#
# If this CIF has been generated from an entry in the Cambridge 
# Structural Database, then it will include bibliographic, chemical, 
# crystal, experimental, refinement or atomic coordinate data resulting 
# from the CCDC's data processing and validation procedures.
#
#######################################################################

data_MAKCEI
_symmetry_cell_setting           triclinic
_symmetry_space_group_name_H-M   'P -1'
_symmetry_Int_Tables_number      2
_space_group_name_Hall           '-P 1'
loop_
_symmetry_equiv_pos_site_id
_symmetry_equiv_pos_as_xyz
1 x,y,z
2 -x,-y,-z
_cell_length_a                   10.626(2)
_cell_length_b                   13.991(3)
_cell_length_c                   14.941(3)
_cell_angle_alpha                109.22(3)
_cell_angle_beta                 101.95(3)
_cell_angle_gamma                109.76(3)
_cell_volume                     1842.93
loop_
_atom_site_label
_atom_site_type_symbol
_atom_site_fract_x
_atom_site_fract_y
_atom_site_fract_z
Zn1 Zn 0.23171(3) 0.95971(3) 0.39475(2)
Zn2 Zn 0.16546(4) 1.44469(3) 0.29991(2)
O1 O 0.4535(2) 0.96871(17) 0.21945(17)
O2 O 0.3832(3) 0.85975(19) 0.03480(18)
O3 O 0.2086(2) 1.01047(15) 0.28327(14)
O4 O 0.4029(2) 1.17550(17) 0.34325(15)
O5 O 0.1605(3) 1.22710(19) 0.28834(18)
O6 O 0.2005(2) 1.32881(16) 0.20239(16)
O7 O 0.3590(2) 0.88763(16) 0.36860(14)
O8 O 0.4234(2) 0.76204(17) 0.28377(16)
O9 O 0.1357(3) 0.6635(2) 0.34130(18)
O10 O 0.0946(3) 0.50779(18) 0.21359(17)
O11 O 0.3839(2) 1.12392(18) 0.49474(15)
H1 H 0.4152 1.1591 0.4613
H2 H 0.4526 1.1219 0.5338
O12 O 0.3945(3) 1.57210(19) 0.33127(18)
H3 H 0.3924 1.6302 0.3259
H4 H 0.4273 1.5414 0.2888
S1 S 0.34542(8) 0.90846(6) 0.12031(6)
C1 C 0.2776(3) 1.0010(2) 0.0935(2)
C2 C 0.2614(3) 1.0822(2) 0.1680(2)
C3 C 0.2144(3) 1.1550(2) 0.1417(2)
C4 C 0.1850(4) 1.1439(3) 0.0428(2)
H5 H 0.1536 1.1921 0.0254
C5 C 0.2013(4) 1.0630(3) -0.0298(2)
H6 H 0.1802 1.0565 -0.0957
C6 C 0.2488(4) 0.9915(3) -0.0050(2)
H7 H 0.2615 0.9375 -0.0537
C7 C 0.2003(3) 0.7959(2) 0.1182(2)
C8 C 0.2110(3) 0.7576(2) 0.19354(19)
C9 C 0.0974(3) 0.6577(2) 0.1765(2)
C10 C -0.0226(3) 0.6012(2) 0.0879(2)
H8 H -0.0970 0.5350 0.0773
C11 C -0.0327(3) 0.6419(2) 0.0158(2)
H9 H -0.1145 0.6043 -0.0424
C12 C 0.0786(3) 0.7385(2) 0.0303(2)
H10 H 0.0725 0.7656 -0.0187
C13 C 0.2955(3) 1.0926(2) 0.2754(2)
C14 C 0.1891(3) 1.2416(2) 0.2178(2)
C15 C 0.3416(3) 0.8080(2) 0.2887(2)
C16 C 0.1091(3) 0.6074(2) 0.2515(2)
N1 N 0.0064(2) 0.85660(18) 0.32544(17)
N2 N 0.1745(2) 0.94066(19) 0.51613(17)
C17 C -0.0710(3) 0.8150(2) 0.2269(2)
H11 H -0.0250 0.8325 0.1839
C18 C -0.2161(3) 0.7473(3) 0.1870(2)
H12 H -0.2671 0.7187 0.1181
C19 C -0.2842(3) 0.7227(3) 0.2507(3)
H13 H -0.3822 0.6768 0.2253
C20 C -0.2063(3) 0.7667(3) 0.3527(2)
H14 H -0.2513 0.7520 0.3970
C21 C -0.0601(3) 0.8328(2) 0.3879(2)
C22 C 0.0337(3) 0.8838(2) 0.4961(2)
C23 C -0.0174(3) 0.8763(2) 0.5725(2)
H15 H -0.1148 0.8361 0.5576
C24 C 0.0779(3) 0.9292(3) 0.6716(2)
H16 H 0.0451 0.9264 0.7241
C25 C 0.2209(3) 0.9859(3) 0.6913(2)
H17 H 0.2867 1.0215 0.7573
C26 C 0.2658(3) 0.9894(3) 0.6117(2)
H18 H 0.3632 1.0271 0.6251
N3 N -0.0327(3) 1.3551(2) 0.30823(18)
N4 N 0.2252(3) 1.4789(2) 0.45144(18)
C27 C -0.1596(4) 1.2965(3) 0.2320(3)
H19 H -0.1648 1.2960 0.1689
C28 C -0.2829(4) 1.2371(3) 0.2439(3)
H20 H -0.3692 1.1949 0.1891
C29 C -0.2764(4) 1.2411(3) 0.3379(3)
H21 H -0.3587 1.2024 0.3478
C30 C -0.1461(3) 1.3033(3) 0.4178(3)
H22 H -0.1397 1.3078 0.4822
C31 C -0.0255(3) 1.3587(2) 0.4003(2)
C32 C 0.1196(3) 1.4265(2) 0.4801(2)
C33 C 0.1468(4) 1.4377(3) 0.5783(2)
H23 H 0.0732 1.4015 0.5971
C34 C 0.2846(4) 1.5032(3) 0.6482(3)
H24 H 0.3048 1.5109 0.7145
C35 C 0.3912(4) 1.5569(3) 0.6194(3)
H25 H 0.4845 1.6020 0.6657
C36 C 0.3577(4) 1.5429(3) 0.5211(2)
H26 H 0.4303 1.5796 0.5017
Zn2_2 Zn 0.16546(4) 0.44469(3) 0.29991(2)
O10_2 O 0.0946(3) 1.50779(18) 0.21359(17)
O13 O 0.3615(3) 0.5901(2) 0.08236(19)
H27 H 0.3764 0.6474 0.1342
H28 H 0.3788 0.5462 0.1057
O14 O 0.4164(3) 0.4368(2) 0.1443(2)
H29 H 0.4653 0.4063 0.1188
H30 H 0.3364 0.3833 0.1308
O15 O 0.5741(5) 0.3439(3) 0.0600(3)
H31 H 0.6086 0.3689 0.0214
H32 H 0.5970 0.2913 0.0602
loop_
_geom_bond_atom_site_label_1
_geom_bond_atom_site_label_2
_geom_bond_site_symmetry_1
_geom_bond_site_symmetry_2
Zn1 O3 1_555 1_555
Zn2 O6 1_555 1_555
O1 S1 1_555 1_555
O2 S1 1_555 1_555
O3 C13 1_555 1_555
O4 C13 1_555 1_555
O5 C14 1_555 1_555
O6 C14 1_555 1_555
O7 Zn1 1_555 1_555
O8 C15 1_555 1_555
O9 C16 1_555 1_555
O10 C16 1_555 1_555
O11 Zn1 1_555 1_555
H1 O11 1_555 1_555
H2 O11 1_555 1_555
O12 Zn2 1_555 1_555
H3 O12 1_555 1_555
H4 O12 1_555 1_555
S1 C1 1_555 1_555
C1 C2 1_555 1_555
C2 C3 1_555 1_555
C3 C4 1_555 1_555
C4 H5 1_555 1_555
C5 C4 1_555 1_555
H6 C5 1_555 1_555
C6 C1 1_555 1_555
H7 C6 1_555 1_555
C7 S1 1_555 1_555
C8 C7 1_555 1_555
C9 C8 1_555 1_555
C10 C9 1_555 1_555
H8 C10 1_555 1_555
C11 C10 1_555 1_555
H9 C11 1_555 1_555
C12 C7 1_555 1_555
H10 C12 1_555 1_555
C13 C2 1_555 1_555
C14 C3 1_555 1_555
C15 O7 1_555 1_555
C16 C9 1_555 1_555
N1 Zn1 1_555 1_555
N2 Zn1 1_555 1_555
C17 N1 1_555 1_555
H11 C17 1_555 1_555
C18 C17 1_555 1_555
H12 C18 1_555 1_555
C19 C18 1_555 1_555
H13 C19 1_555 1_555
C20 C19 1_555 1_555
H14 C20 1_555 1_555
C21 N1 1_555 1_555
C22 N2 1_555 1_555
C23 C22 1_555 1_555
H15 C23 1_555 1_555
C24 C23 1_555 1_555
H16 C24 1_555 1_555
C25 C24 1_555 1_555
H17 C25 1_555 1_555
C26 N2 1_555 1_555
H18 C26 1_555 1_555
N3 Zn2 1_555 1_555
N4 Zn2 1_555 1_555
C27 N3 1_555 1_555
H19 C27 1_555 1_555
C28 C27 1_555 1_555
H20 C28 1_555 1_555
C29 C28 1_555 1_555
H21 C29 1_555 1_555
C30 C29 1_555 1_555
H22 C30 1_555 1_555
C31 N3 1_555 1_555
C32 N4 1_555 1_555
C33 C32 1_555 1_555
H23 C33 1_555 1_555
C34 C33 1_555 1_555
H24 C34 1_555 1_555
C35 C34 1_555 1_555
H25 C35 1_555 1_555
C36 N4 1_555 1_555
H26 C36 1_555 1_555
O13 H27 1_555 1_555
H28 O13 1_555 1_555
O14 H29 1_555 1_555
H30 O14 1_555 1_555
O15 H31 1_555 1_555
H32 O15 1_555 1_555
Zn2_2 O10 1_555 1_555
O10_2 Zn2 1_555 1_555
C5 C6 1_555 1_555
C8 C15 1_555 1_555
C11 C12 1_555 1_555
C20 C21 1_555 1_555
C21 C22 1_555 1_555
C25 C26 1_555 1_555
C30 C31 1_555 1_555
C31 C32 1_555 1_555
C35 C36 1_555 1_555

#END
