
#######################################################################
#
#                 Cambridge Crystallographic Data Centre
#                                CCDC 
#
#######################################################################
#
# If this CIF has been generated from an entry in the Cambridge 
# Structural Database, then it will include bibliographic, chemical, 
# crystal, experimental, refinement or atomic coordinate data resulting 
# from the CCDC's data processing and validation procedures.
#
#######################################################################

data_MAKKUE
_symmetry_cell_setting           monoclinic
_symmetry_space_group_name_H-M   'P 21/n'
_symmetry_Int_Tables_number      14
_space_group_name_Hall           '-P 2yn'
loop_
_symmetry_equiv_pos_site_id
_symmetry_equiv_pos_as_xyz
1 x,y,z
2 1/2+x,1/2-y,1/2+z
3 -x,-y,-z
4 1/2-x,1/2+y,1/2-z
_cell_length_a                   13.4049(5)
_cell_length_b                   13.7043(7)
_cell_length_c                   18.5026(6)
_cell_angle_alpha                90
_cell_angle_beta                 106.351(4)
_cell_angle_gamma                90
_cell_volume                     3261.54
loop_
_atom_site_label
_atom_site_type_symbol
_atom_site_fract_x
_atom_site_fract_y
_atom_site_fract_z
Eu1 Eu -0.39205(4) -0.17937(3) -0.20253(3)
O1 O -0.2438(5) -0.2425(4) -0.2297(4)
O2 O -0.2797(6) -0.4785(5) -0.2257(4)
O3 O -0.0720(6) -0.5077(4) -0.2821(4)
C1 C -0.1996(7) -0.3161(6) -0.2437(5)
C2 C -0.2142(7) -0.4258(7) -0.2387(5)
C3 C -0.1206(7) -0.4367(6) -0.2678(5)
C4 C -0.1116(7) -0.3324(6) -0.2718(5)
C5 C 0.0255(5) -0.3043(3) -0.3347(4)
H1 H 0.0301(5) -0.3727(3) -0.3412(4)
C6 C 0.0896(5) -0.2414(4) -0.3601(4)
H2 H 0.1382(7) -0.2669(6) -0.3840(6)
C7 C 0.0828(5) -0.1412(4) -0.3506(4)
H3 H 0.1266(7) -0.0983(5) -0.3680(6)
C8 C 0.0118(5) -0.1040(3) -0.3157(4)
H4 H 0.0071(8) -0.0355(3) -0.3092(6)
C9 C -0.0524(4) -0.1668(4) -0.2902(3)
H5 H -0.1009(6) -0.1413(5) -0.2663(5)
C10 C -0.0455(4) -0.2670(4) -0.2997(3)
O4 O -0.4217(5) -0.1502(5) -0.3320(4)
O5 O -0.6723(5) -0.1614(5) -0.4009(4)
O6 O -0.6419(5) -0.1356(5) -0.5695(3)
C11 C -0.4837(7) -0.1416(6) -0.3970(5)
C12 C -0.5999(8) -0.1485(6) -0.4276(5)
C13 C -0.5845(8) -0.1359(6) -0.5051(5)
C14 C -0.4739(7) -0.1271(6) -0.4706(5)
C15 C -0.4090(4) -0.1075(5) -0.5806(3)
H6 H -0.4789(4) -0.1079(5) -0.6113(3)
C16 C -0.3279(6) -0.1002(6) -0.6134(3)
H7 H -0.3424(8) -0.0957(8) -0.6666(3)
C17 C -0.2256(5) -0.0996(6) -0.5684(4)
H8 H -0.1701(6) -0.0946(8) -0.5908(5)
C18 C -0.2043(4) -0.1063(5) -0.4906(4)
H9 H -0.1344(4) -0.1058(8) -0.4598(5)
C19 C -0.2854(5) -0.1135(5) -0.4577(3)
H10 H -0.2709(7) -0.1181(7) -0.4045(3)
C20 C -0.3878(4) -0.1141(5) -0.5028(3)
O7 O -0.2432(5) -0.1050(4) -0.1185(3)
O8 O -0.3297(5) -0.0942(5) 0.0271(4)
O9 O -0.0971(6) -0.1129(5) 0.1356(4)
C21 C -0.2030(7) -0.1077(6) -0.0506(5)
C22 C -0.2452(8) -0.1017(7) 0.0175(5)
C23 C -0.1327(7) -0.1096(6) 0.0686(5)
C24 C -0.0983(8) -0.1146(6) 0.0001(5)
C25 C 0.0930(4) -0.1281(4) 0.0492(2)
H11 H 0.0876(4) -0.1238(4) 0.0992(2)
C26 C 0.1901(4) -0.1377(5) 0.0366(3)
H12 H 0.2509(4) -0.1399(7) 0.0780(4)
C27 C 0.1980(4) -0.1440(5) -0.0365(3)
H13 H 0.2643(4) -0.1505(7) -0.0451(5)
C28 C 0.1089(5) -0.1407(5) -0.0972(3)
H14 H 0.1143(6) -0.1450(7) -0.1472(3)
C29 C 0.0119(4) -0.1312(5) -0.0846(3)
H15 H -0.0490(5) -0.1290(7) -0.1260(3)
C30 C 0.0039(3) -0.1249(4) -0.0115(3)
O10 O -0.5821(5) -0.1897(5) -0.2489(4)
C31 C -0.6478(9) -0.2520(8) -0.2198(7)
H16 H -0.6592(9) -0.3125(8) -0.2467(7)
H17 H -0.7128(9) -0.2203(8) -0.2250(7)
H18 H -0.6148(9) -0.2640(8) -0.1674(7)
O11 O -0.3290(5) -0.2908(4) -0.0952(3)
C32 C -0.3901(9) -0.3521(8) -0.0607(6)
H19 H -0.3429(9) -0.3879(8) -0.0213(6)
H20 H -0.4327(9) -0.3964(8) -0.0961(6)
H21 H -0.4329(9) -0.3118(8) -0.0393(6)
O12 O -0.4734(5) -0.1367(5) -0.1058(3)
O13 O -0.4430(5) -0.3460(4) -0.2438(4)
O3C O -0.4280(6) -0.0077(4) -0.2179(4)
Eu1C Eu -0.10795(4) -0.67937(3) -0.29747(3)
O14 O -0.6449(7) -0.0265(6) -0.1380(4)
C33 C -0.7183(10) -0.0036(10) -0.2057(7)
H22 H -0.7701(10) -0.0535(10) -0.2161(7)
H23 H -0.6854(10) -0.0014(10) -0.2457(7)
H24 H -0.7500(10) 0.0579(10) -0.2021(7)
loop_
_geom_bond_atom_site_label_1
_geom_bond_atom_site_label_2
_geom_bond_site_symmetry_1
_geom_bond_site_symmetry_2
Eu1 O1 1_555 1_555
O1 C1 1_555 1_555
O2 C2 1_555 1_555
O3 C3 1_555 1_555
C1 C2 1_555 1_555
C2 C3 1_555 1_555
C3 C4 1_555 1_555
C4 C1 1_555 1_555
C5 H1 1_555 1_555
C6 C5 1_555 1_555
H2 C6 1_555 1_555
C7 C6 1_555 1_555
H3 C7 1_555 1_555
C8 C7 1_555 1_555
H4 C8 1_555 1_555
C9 C8 1_555 1_555
H5 C9 1_555 1_555
C10 C4 1_555 1_555
O4 Eu1 1_555 1_555
O5 C12 1_555 1_555
O6 C13 1_555 1_555
C11 O4 1_555 1_555
C12 C11 1_555 1_555
C13 C12 1_555 1_555
C14 C11 1_555 1_555
C15 H6 1_555 1_555
C16 C15 1_555 1_555
H7 C16 1_555 1_555
C17 C16 1_555 1_555
H8 C17 1_555 1_555
C18 C17 1_555 1_555
H9 C18 1_555 1_555
C19 C18 1_555 1_555
H10 C19 1_555 1_555
C20 C14 1_555 1_555
O7 Eu1 1_555 1_555
O8 C22 1_555 1_555
O9 C23 1_555 1_555
C21 O7 1_555 1_555
C22 C21 1_555 1_555
C23 C22 1_555 1_555
C24 C21 1_555 1_555
C25 H11 1_555 1_555
C26 C25 1_555 1_555
H12 C26 1_555 1_555
C27 C26 1_555 1_555
H13 C27 1_555 1_555
C28 C27 1_555 1_555
H14 C28 1_555 1_555
C29 C28 1_555 1_555
H15 C29 1_555 1_555
C30 C24 1_555 1_555
O10 Eu1 1_555 1_555
C31 O10 1_555 1_555
H16 C31 1_555 1_555
H17 C31 1_555 1_555
H18 C31 1_555 1_555
O11 Eu1 1_555 1_555
C32 O11 1_555 1_555
H19 C32 1_555 1_555
H20 C32 1_555 1_555
H21 C32 1_555 1_555
O12 Eu1 1_555 1_555
O13 Eu1 1_555 1_555
O14 C33 1_555 1_555
C33 H22 1_555 1_555
H23 C33 1_555 1_555
H24 C33 1_555 1_555
O3C Eu1 1_555 1_555
Eu1C O3 1_555 1_555
C5 C10 1_555 1_555
C9 C10 1_555 1_555
C13 C14 1_555 1_555
C15 C20 1_555 1_555
C19 C20 1_555 1_555
C23 C24 1_555 1_555
C25 C30 1_555 1_555
C29 C30 1_555 1_555

#END
