
#######################################################################
#
#                 Cambridge Crystallographic Data Centre
#                                CCDC 
#
#######################################################################
#
# If this CIF has been generated from an entry in the Cambridge 
# Structural Database, then it will include bibliographic, chemical, 
# crystal, experimental, refinement or atomic coordinate data resulting 
# from the CCDC's data processing and validation procedures.
#
#######################################################################

data_MAKSIC
_symmetry_cell_setting           triclinic
_symmetry_space_group_name_H-M   'P -1'
_symmetry_Int_Tables_number      2
_space_group_name_Hall           '-P 1'
loop_
_symmetry_equiv_pos_site_id
_symmetry_equiv_pos_as_xyz
1 x,y,z
2 -x,-y,-z
_cell_length_a                   8.5960(1)
_cell_length_b                   12.4990(1)
_cell_length_c                   17.006(2)
_cell_angle_alpha                99.5950(1)
_cell_angle_beta                 94.7060(1)
_cell_angle_gamma                109.3440(1)
_cell_volume                     1681.28
loop_
_atom_site_label
_atom_site_type_symbol
_atom_site_fract_x
_atom_site_fract_y
_atom_site_fract_z
Zn1 Zn 1.36140(4) 1.29089(3) 0.65509(2)
C1 C 1.9073(5) 1.7764(3) 1.2637(2)
C2 C 1.9956(4) 1.7819(3) 1.18995(19)
C3 C 1.9118(4) 1.7193(3) 1.11439(19)
H1 H 1.7982 1.6771 1.1077
C4 C 1.9975(4) 1.7197(3) 1.04893(19)
C5 C 2.1665(4) 1.7822(3) 1.05700(19)
H2 H 2.2237 1.7822 1.0129
C6 C 2.2480(4) 1.8451(3) 1.13341(19)
C7 C 2.1638(4) 1.8457(3) 1.19890(19)
H3 H 2.2203 1.8890 1.2492
C8 C 1.9708(5) 1.6496(3) 0.9065(2)
H4 H 2.0053 1.7259 0.8935
H5 H 2.0671 1.6258 0.9113
C9 C 1.8360(4) 1.5641(3) 0.84207(19)
C10 C 1.7702(5) 1.4494(3) 0.8470(2)
H6 H 1.8112 1.4238 0.8897
C11 C 1.6446(5) 1.3732(3) 0.7894(2)
H7 H 1.6010 1.2964 0.7947
C12 C 1.6465(4) 1.5145(3) 0.71989(18)
H8 H 1.6066 1.5377 0.6756
C13 C 1.7707(4) 1.5962(3) 0.77695(19)
H9 H 1.8103 1.6730 0.7715
C14 C 2.5204(4) 1.8993(3) 1.0929(2)
H10 H 2.5061 1.8185 1.0739
H11 H 2.4922 1.9300 1.0472
C15 C 2.6976(4) 1.9662(3) 1.1306(2)
C16 C 2.8233(5) 1.9888(4) 1.0849(2)
H12 H 2.7999 1.9636 1.0291
C17 C 2.9838(5) 2.0487(4) 1.1213(2)
H13 H 3.0664 2.0625 1.0883
C18 C 2.9092(5) 2.0646(3) 1.2433(2)
H14 H 2.9369 2.0896 1.2990
C19 C 2.7442(5) 2.0055(4) 1.2123(2)
H15 H 2.6642 1.9921 1.2467
C20 C 1.2441(4) 0.3432(3) 0.51473(19)
C21 C 1.1923(4) 0.4218(2) 0.46903(17)
C22 C 1.0673(4) 0.3729(3) 0.40356(18)
H16 H 1.0225 0.2928 0.3861
C23 C 1.0087(4) 0.4436(3) 0.36391(18)
C24 C 1.0748(4) 0.5629(3) 0.38953(17)
H17 H 1.0351 0.6103 0.3633
C25 C 1.2013(4) 0.6106(2) 0.45509(17)
C26 C 1.2620(4) 0.5416(3) 0.49496(17)
H18 H 1.3478 0.5746 0.5383
C27 C 0.8091(4) 0.4541(3) 0.2617(2)
H19 H 0.8915 0.5070 0.2373
H20 H 0.7668 0.4993 0.3007
C28 C 0.6698(4) 0.3736(3) 0.19850(19)
C29 C 0.6124(5) 0.4133(4) 0.1356(2)
H21 H 0.6628 0.4898 0.1310
C30 C 0.4800(5) 0.3392(4) 0.0795(2)
H22 H 0.4434 0.3686 0.0377
C31 C 0.4558(5) 0.1931(4) 0.1422(3)
H23 H 0.4013 0.1167 0.1460
C32 C 0.5879(5) 0.2603(3) 0.2011(3)
H24 H 0.6211 0.2287 0.2425
C33 C 1.3710(4) 0.7859(3) 0.54642(19)
H25 H 1.4807 0.7861 0.5367
H26 H 1.3397 0.7463 0.5903
C34 C 1.3733(4) 0.9086(3) 0.56800(17)
C35 C 1.2325(4) 0.9356(3) 0.55107(19)
H27 H 1.1342 0.8784 0.5237
C36 C 1.2390(4) 1.0473(3) 0.5749(2)
H28 H 1.1425 1.0638 0.5642
C37 C 1.5156(4) 1.1086(3) 0.62706(18)
H29 H 1.6139 1.1681 0.6518
C38 C 1.5171(4) 0.9975(3) 0.60623(19)
H30 H 1.6146 0.9826 0.6179
N1 N 1.5812(3) 1.4036(2) 0.72544(15)
N2 N 3.0308(4) 2.0883(3) 1.19936(19)
N3 N 0.4013(4) 0.2293(3) 0.0809(2)
N4 N 1.3770(3) 1.1337(2) 0.61271(14)
O1 O 1.7519(3) 1.7178(2) 1.25002(14)
O2 O 1.9860(4) 1.8256(3) 1.33047(15)
O3 O 1.9029(3) 1.6513(2) 0.97808(14)
O4 O 2.4153(3) 1.9086(2) 1.15103(14)
O5 O 1.3216(3) 0.38971(18) 0.58663(12)
O6 O 1.2102(3) 0.23996(19) 0.48337(14)
O7 O 0.8827(3) 0.38639(18) 0.30054(13)
O8 O 1.2536(3) 0.72898(17) 0.47607(13)
Zn1A Zn 1.63860(4) 1.70911(3) 1.34491(2)
Zn1_2 Zn 1.36140(4) 0.29089(3) 0.65509(2)
O1A O 1.2481(3) 1.2822(2) 0.74998(14)
O5_2 O 1.3216(3) 1.38971(18) 0.58663(12)
H31 H 0.238(4) 0.166(4) 0.2870(16)
H32 H 0.259(5) 0.188(5) 0.3701(17)
O9 O 0.3210(4) 0.1956(4) 0.3296(2)
loop_
_geom_bond_atom_site_label_1
_geom_bond_atom_site_label_2
_geom_bond_site_symmetry_1
_geom_bond_site_symmetry_2
Zn1 N1 1_555 1_555
C1 C2 1_555 1_555
C2 C3 1_555 1_555
C3 H1 1_555 1_555
C4 C3 1_555 1_555
C5 C4 1_555 1_555
H2 C5 1_555 1_555
C6 C5 1_555 1_555
C7 C2 1_555 1_555
H3 C7 1_555 1_555
C8 H4 1_555 1_555
H5 C8 1_555 1_555
C9 C8 1_555 1_555
C10 C9 1_555 1_555
H6 C10 1_555 1_555
C11 C10 1_555 1_555
H7 C11 1_555 1_555
C12 H8 1_555 1_555
C13 C9 1_555 1_555
H9 C13 1_555 1_555
C14 H10 1_555 1_555
H11 C14 1_555 1_555
C15 C14 1_555 1_555
C16 C15 1_555 1_555
H12 C16 1_555 1_555
C17 C16 1_555 1_555
H13 C17 1_555 1_555
C18 H14 1_555 1_555
C19 C15 1_555 1_555
H15 C19 1_555 1_555
C20 C21 1_555 1_555
C21 C22 1_555 1_555
C22 H16 1_555 1_555
C23 C22 1_555 1_555
C24 C23 1_555 1_555
H17 C24 1_555 1_555
C25 C24 1_555 1_555
C26 C21 1_555 1_555
H18 C26 1_555 1_555
C27 H19 1_555 1_555
H20 C27 1_555 1_555
C28 C27 1_555 1_555
C29 C28 1_555 1_555
H21 C29 1_555 1_555
C30 C29 1_555 1_555
H22 C30 1_555 1_555
C31 H23 1_555 1_555
C32 C28 1_555 1_555
H24 C32 1_555 1_555
C33 H25 1_555 1_555
H26 C33 1_555 1_555
C34 C33 1_555 1_555
C35 C34 1_555 1_555
H27 C35 1_555 1_555
C36 C35 1_555 1_555
H28 C36 1_555 1_555
C37 H29 1_555 1_555
C38 C34 1_555 1_555
H30 C38 1_555 1_555
H31 O9 1_555 1_555
H32 O9 1_555 1_555
N1 C11 1_555 1_555
N2 C17 1_555 1_555
N3 C30 1_555 1_555
N4 Zn1 1_555 1_555
O1 C1 1_555 1_555
O2 C1 1_555 1_555
O3 C4 1_555 1_555
O4 C6 1_555 1_555
O5 C20 1_555 1_555
O6 C20 1_555 1_555
O7 C23 1_555 1_555
O8 C25 1_555 1_555
Zn1A O1 1_555 1_555
Zn1_2 O5 1_555 1_555
O1A Zn1 1_555 1_555
O5_2 Zn1 1_555 1_555
C6 C7 1_555 1_555
C8 O3 1_555 1_555
C12 C13 1_555 1_555
C12 N1 1_555 1_555
C14 O4 1_555 1_555
C18 C19 1_555 1_555
C18 N2 1_555 1_555
C25 C26 1_555 1_555
C27 O7 1_555 1_555
C31 C32 1_555 1_555
C31 N3 1_555 1_555
C33 O8 1_555 1_555
C36 N4 1_555 1_555
C37 C38 1_555 1_555
C37 N4 1_555 1_555

#END
