
#######################################################################
#
#                 Cambridge Crystallographic Data Centre
#                                CCDC 
#
#######################################################################
#
# If this CIF has been generated from an entry in the Cambridge 
# Structural Database, then it will include bibliographic, chemical, 
# crystal, experimental, refinement or atomic coordinate data resulting 
# from the CCDC's data processing and validation procedures.
#
#######################################################################

data_MAKVAX
_symmetry_cell_setting           orthorhombic
_symmetry_space_group_name_H-M   'P n a 21'
_symmetry_Int_Tables_number      33
_space_group_name_Hall           'P 2c -2n'
loop_
_symmetry_equiv_pos_site_id
_symmetry_equiv_pos_as_xyz
1 x,y,z
2 -x,-y,1/2+z
3 1/2+x,1/2-y,z
4 1/2-x,1/2+y,1/2+z
_cell_length_a                   9.0634(5)
_cell_length_b                   16.9571(10)
_cell_length_c                   16.8283(9)
_cell_angle_alpha                90
_cell_angle_beta                 90
_cell_angle_gamma                90
_cell_volume                     2586.32
loop_
_atom_site_label
_atom_site_type_symbol
_atom_site_fract_x
_atom_site_fract_y
_atom_site_fract_z
Cd1 Cd 0.05227(3) 0.865321(15) 0.53013(3)
O1 O -0.2880(4) 0.8765(2) 0.9239(2)
O2 O 0.3272(4) 0.85507(18) 0.5642(2)
O3 O 0.1997(4) 1.1509(2) 0.9978(2)
O4 O 0.1087(4) 1.03522(19) 0.9674(2)
O5 O 0.2059(3) 0.96666(17) 0.56171(17)
O6 O 0.3784(4) 0.8259(2) 1.13861(18)
O7 O 0.0684(4) 0.73415(19) 0.5495(2)
H1 H 0.133(4) 0.711(3) 0.521(3)
H2 H -0.008(3) 0.707(3) 0.554(3)
N1 N 0.1506(5) 0.8561(2) 1.0912(2)
N2 N -0.0638(5) 0.8414(3) 0.9707(3)
N3 N -0.0246(5) 0.8682(2) 0.6673(3)
N4 N 0.1229(4) 0.8518(2) 1.3958(2)
C1 C 0.0061(6) 0.8942(3) 1.0998(3)
H3 H 0.0122 0.9492 1.0802
H4 H -0.0213 0.8959 1.1568
C2 C -0.1118(7) 0.8501(3) 1.0537(2)
H5 H -0.1279 0.7975 1.0776
H6 H -0.2060 0.8796 1.0558
C3 C 0.0812(6) 0.8044(3) 0.9617(3)
H7 H 0.1085 0.8031 0.9048
H8 H 0.0766 0.7493 0.9811
C4 C -0.1673(6) 0.8096(3) 0.7714(3)
H9 H -0.2393 0.7718 0.7867
C5 C 0.0382(5) 0.9158(3) 0.7219(3)
H10 H 0.1092 0.9533 0.7047
C6 C -0.1588(6) 0.8593(3) 0.9123(3)
C7 C -0.1247(6) 0.8163(3) 0.6930(3)
H11 H -0.1691 0.7822 0.6551
C8 C -0.1037(6) 0.8586(3) 0.8275(3)
C9 C 0.1965(6) 0.8490(3) 1.0076(3)
H12 H 0.2920 0.8209 1.0044
H13 H 0.2096 0.9022 0.9843
C10 C 0.0033(5) 0.9122(3) 0.8017(3)
H14 H 0.0514 0.9458 0.8387
C11 C 0.3203(5) 0.9291(3) 0.5760(2)
C12 C 0.2149(5) 1.0824(3) 0.9709(2)
C13 C 0.3719(5) 1.0308(3) 0.8575(2)
C14 C 0.3648(5) 1.0555(3) 0.9428(3)
H15 H 0.4361 1.0989 0.9513
H16 H 0.3967 1.0105 0.9763
C15 C 0.4513(5) 0.9722(3) 0.6112(3)
H17 H 0.5404 0.9386 0.6077
H18 H 0.4701 1.0212 0.5808
C16 C 0.4328(5) 0.9592(3) 0.8363(3)
H19 H 0.4600 0.9229 0.8767
C17 C 0.4553(5) 0.9389(3) 0.7568(3)
H20 H 0.4948 0.8887 0.7435
C18 C 0.3563(5) 1.0632(3) 0.7180(3)
H21 H 0.3289 1.0996 0.6776
C19 C 0.3317(5) 1.0823(3) 0.7970(3)
H22 H 0.2867 1.1312 0.8100
C20 C 0.4201(5) 0.9922(3) 0.6971(3)
C21 C 0.2491(6) 0.8435(3) 1.1500(3)
C22 C 0.1947(5) 0.8489(3) 1.2350(3)
C23 C 0.2586(6) 0.9027(3) 1.2855(2)
H23 H 0.3302 0.9389 1.2662
C24 C 0.2180(5) 0.9037(3) 1.3647(3)
H24 H 0.2593 0.9428 1.3984
C25 C 0.0609(5) 0.7996(3) 1.3464(3)
H25 H -0.0085 0.7632 1.3676
C26 C 0.0927(6) 0.7959(3) 1.2660(3)
H26 H 0.0460 0.7581 1.2328
Cd1A Cd -0.05227(3) 1.134679(15) 1.03013(3)
Cd1_2 Cd 0.05227(3) 0.865321(15) 1.53013(3)
O3A O -0.1997(4) 0.8491(2) 0.4978(2)
O4A O -0.1087(4) 0.96478(19) 0.4674(2)
N4_2 N 0.1229(4) 0.8518(2) 0.3958(2)
loop_
_geom_bond_atom_site_label_1
_geom_bond_atom_site_label_2
_geom_bond_site_symmetry_1
_geom_bond_site_symmetry_2
Cd1 O2 1_555 1_555
O1 C6 1_555 1_555
O2 C11 1_555 1_555
O3 C12 1_555 1_555
O4 C12 1_555 1_555
O5 Cd1 1_555 1_555
O6 C21 1_555 1_555
O7 Cd1 1_555 1_555
H1 O7 1_555 1_555
H2 O7 1_555 1_555
N1 C1 1_555 1_555
N2 C2 1_555 1_555
N3 Cd1 1_555 1_555
N4 C24 1_555 1_555
C1 H3 1_555 1_555
H4 C1 1_555 1_555
C2 C1 1_555 1_555
H5 C2 1_555 1_555
H6 C2 1_555 1_555
C3 N2 1_555 1_555
H7 C3 1_555 1_555
H8 C3 1_555 1_555
C4 H9 1_555 1_555
C5 N3 1_555 1_555
H10 C5 1_555 1_555
C6 N2 1_555 1_555
C7 N3 1_555 1_555
H11 C7 1_555 1_555
C8 C4 1_555 1_555
C9 N1 1_555 1_555
H12 C9 1_555 1_555
H13 C9 1_555 1_555
C10 C5 1_555 1_555
H14 C10 1_555 1_555
C11 O5 1_555 1_555
C12 C14 1_555 1_555
C13 C14 1_555 1_555
C14 H15 1_555 1_555
H16 C14 1_555 1_555
C15 C11 1_555 1_555
H17 C15 1_555 1_555
H18 C15 1_555 1_555
C16 C13 1_555 1_555
H19 C16 1_555 1_555
C17 C16 1_555 1_555
H20 C17 1_555 1_555
C18 H21 1_555 1_555
C19 C13 1_555 1_555
H22 C19 1_555 1_555
C20 C15 1_555 1_555
C21 N1 1_555 1_555
C22 C21 1_555 1_555
C23 C22 1_555 1_555
H23 C23 1_555 1_555
C24 C23 1_555 1_555
H24 C24 1_555 1_555
C25 N4 1_555 1_555
H25 C25 1_555 1_555
C26 C22 1_555 1_555
H26 C26 1_555 1_555
Cd1A O3 1_555 1_555
Cd1_2 N4 1_555 1_555
O3A Cd1 1_555 1_555
O4A Cd1 1_555 1_555
N4_2 Cd1 1_555 1_555
O4 Cd1A 1_555 1_555
C3 C9 1_555 1_555
C4 C7 1_555 1_555
C6 C8 1_555 1_555
C8 C10 1_555 1_555
C17 C20 1_555 1_555
C18 C19 1_555 1_555
C18 C20 1_555 1_555
C25 C26 1_555 1_555

#END
