
#######################################################################
#
#                 Cambridge Crystallographic Data Centre
#                                CCDC 
#
#######################################################################
#
# If this CIF has been generated from an entry in the Cambridge 
# Structural Database, then it will include bibliographic, chemical, 
# crystal, experimental, refinement or atomic coordinate data resulting 
# from the CCDC's data processing and validation procedures.
#
#######################################################################

data_MAKYOM02
_symmetry_cell_setting           monoclinic
_symmetry_space_group_name_H-M   'C 2'
_symmetry_Int_Tables_number      5
_space_group_name_Hall           'C 2y'
loop_
_symmetry_equiv_pos_site_id
_symmetry_equiv_pos_as_xyz
1 x,y,z
2 -x,y,-z
3 1/2+x,1/2+y,z
4 1/2-x,1/2+y,-z
_cell_length_a                   14.9518(17)
_cell_length_b                   9.6913(11)
_cell_length_c                   10.3064(12)
_cell_angle_alpha                90
_cell_angle_beta                 118.1070(10)
_cell_angle_gamma                90
_cell_volume                     1317.3
loop_
_atom_site_label
_atom_site_type_symbol
_atom_site_fract_x
_atom_site_fract_y
_atom_site_fract_z
Mo1 Mo -0.49270(3) 0.47527(4) 0.32388(3)
Mo2 Mo -0.5000 0.65269(5) 0.0000
N1 N -0.6517(3) 0.5819(4) 0.2341(4)
N2 N -0.4722(3) 0.7159(4) 0.3538(4)
O1 O -0.5487(3) 0.3204(4) 0.2586(3)
O2 O -0.3670(3) 0.4518(5) 0.3894(4)
O3 O -0.5000 0.4866(6) 0.5000
O4 O -0.5181(2) 0.5426(3) 0.1259(3)
O5 O -0.6037(4) 0.7529(6) -0.0893(5)
C1 C -0.7391(4) 0.5150(6) 0.1792(5)
H1 H -0.7386 0.4190 0.1782
C2 C -0.8308(4) 0.5827(7) 0.1237(7)
H2 H -0.8907 0.5322 0.0873
C3 C -0.8344(4) 0.7204(8) 0.1218(7)
H3 H -0.8964 0.7659 0.0841
C4 C -0.7423(4) 0.7970(6) 0.1782(5)
C5 C -0.6533(3) 0.7206(5) 0.2344(4)
C6 C -0.7372(4) 0.9445(6) 0.1808(6)
H4 H -0.7968 0.9956 0.1436
C7 C -0.6487(5) 1.0100(5) 0.2355(6)
H5 H -0.6479 1.1059 0.2340
C8 C -0.5554(3) 0.9370(5) 0.2962(5)
C9 C -0.5580(3) 0.7924(5) 0.2962(4)
C10 C -0.4597(4) 0.9997(6) 0.3560(6)
H6 H -0.4546 1.0953 0.3560
C11 C -0.3740(4) 0.9205(6) 0.4144(5)
H7 H -0.3103 0.9615 0.4562
C12 C -0.3836(3) 0.7785(5) 0.4105(5)
H8 H -0.3251 0.7250 0.4495
Mo1A Mo -0.50730(3) 0.47527(4) -0.32388(3)
Mo1A_2 Mo -0.50730(3) 0.47527(4) 0.67612(3)
N1A N -0.3483(3) 0.5819(4) -0.2341(4)
N2A N -0.5278(3) 0.7159(4) -0.3538(4)
O1A O -0.4513(3) 0.3204(4) -0.2586(3)
O2A O -0.6330(3) 0.4518(5) -0.3894(4)
O3_2 O -0.5000 0.4866(6) -0.5000
O4A O -0.4819(2) 0.5426(3) -0.1259(3)
O5A O -0.3963(4) 0.7529(6) 0.0893(5)
C1A C -0.2609(4) 0.5150(6) -0.1792(5)
H1A H -0.2614 0.4190 -0.1782
C2A C -0.1692(4) 0.5827(7) -0.1237(7)
H2A H -0.1093 0.5322 -0.0873
C3A C -0.1656(4) 0.7204(8) -0.1218(7)
H3A H -0.1036 0.7659 -0.0841
C4A C -0.2577(4) 0.7970(6) -0.1782(5)
C5A C -0.3467(3) 0.7206(5) -0.2344(4)
C6A C -0.2628(4) 0.9445(6) -0.1808(6)
H4A H -0.2032 0.9956 -0.1436
C7A C -0.3513(5) 1.0100(5) -0.2355(6)
H5A H -0.3521 1.1059 -0.2340
C8A C -0.4446(3) 0.9370(5) -0.2962(5)
C9A C -0.4420(3) 0.7924(5) -0.2962(4)
C10A C -0.5403(4) 0.9997(6) -0.3560(6)
H6A H -0.5454 1.0953 -0.3560
C11A C -0.6260(4) 0.9205(6) -0.4144(5)
H7A H -0.6897 0.9615 -0.4562
C12A C -0.6164(3) 0.7785(5) -0.4105(5)
H8A H -0.6749 0.7250 -0.4495
loop_
_geom_bond_atom_site_label_1
_geom_bond_atom_site_label_2
_geom_bond_site_symmetry_1
_geom_bond_site_symmetry_2
Mo1 N1 1_555 1_555
Mo2 O4 1_555 1_555
N1 C1 1_555 1_555
N2 Mo1 1_555 1_555
O1 Mo1 1_555 1_555
O2 Mo1 1_555 1_555
O3 Mo1 1_555 1_555
O4 Mo1 1_555 1_555
O5 Mo2 1_555 1_555
C1 H1 1_555 1_555
C2 C1 1_555 1_555
H2 C2 1_555 1_555
C3 C2 1_555 1_555
H3 C3 1_555 1_555
C4 C3 1_555 1_555
C5 N1 1_555 1_555
C6 C4 1_555 1_555
H4 C6 1_555 1_555
C7 C6 1_555 1_555
H5 C7 1_555 1_555
C8 C7 1_555 1_555
C9 N2 1_555 1_555
C10 C8 1_555 1_555
H6 C10 1_555 1_555
C11 C10 1_555 1_555
H7 C11 1_555 1_555
C12 N2 1_555 1_555
H8 C12 1_555 1_555
Mo1A N1A 1_555 1_555
Mo1A_2 O3 1_555 1_555
N1A C1A 1_555 1_555
N2A Mo1A 1_555 1_555
O1A Mo1A 1_555 1_555
O2A Mo1A 1_555 1_555
O3_2 Mo1A 1_555 1_555
O4A Mo2 1_555 1_555
O5A Mo2 1_555 1_555
C1A H1A 1_555 1_555
C2A C1A 1_555 1_555
H2A C2A 1_555 1_555
C3A C2A 1_555 1_555
H3A C3A 1_555 1_555
C4A C3A 1_555 1_555
C5A N1A 1_555 1_555
C6A C4A 1_555 1_555
H4A C6A 1_555 1_555
C7A C6A 1_555 1_555
H5A C7A 1_555 1_555
C8A C7A 1_555 1_555
C9A N2A 1_555 1_555
C10A C8A 1_555 1_555
H6A C10A 1_555 1_555
C11A C10A 1_555 1_555
H7A C11A 1_555 1_555
C12A N2A 1_555 1_555
H8A C12A 1_555 1_555
C4 C5 1_555 1_555
C5 C9 1_555 1_555
C8 C9 1_555 1_555
C11 C12 1_555 1_555
Mo1A O4A 1_555 1_555
C4A C5A 1_555 1_555
C5A C9A 1_555 1_555
C8A C9A 1_555 1_555
C11A C12A 1_555 1_555

#END
