
#######################################################################
#
#                 Cambridge Crystallographic Data Centre
#                                CCDC 
#
#######################################################################
#
# If this CIF has been generated from an entry in the Cambridge 
# Structural Database, then it will include bibliographic, chemical, 
# crystal, experimental, refinement or atomic coordinate data resulting 
# from the CCDC's data processing and validation procedures.
#
#######################################################################

data_MAKZUV
_symmetry_cell_setting           monoclinic
_symmetry_space_group_name_H-M   'P 2/c'
_symmetry_Int_Tables_number      13
_space_group_name_Hall           '-P 2yc'
loop_
_symmetry_equiv_pos_site_id
_symmetry_equiv_pos_as_xyz
1 x,y,z
2 -x,y,1/2-z
3 -x,-y,-z
4 x,-y,1/2+z
_cell_length_a                   23.078(9)
_cell_length_b                   11.080(4)
_cell_length_c                   15.594(6)
_cell_angle_alpha                90
_cell_angle_beta                 106.481(4)
_cell_angle_gamma                90
_cell_volume                     3823.62
loop_
_atom_site_label
_atom_site_type_symbol
_atom_site_fract_x
_atom_site_fract_y
_atom_site_fract_z
Cu1 Cu 0.5000 0.11547(4) 0.7500
Cu2 Cu 0.0000 0.18521(4) 0.2500
N1 N 0.0000 1.0045(3) 0.2500
C1 C 0.5000 0.5473(3) 0.7500
C2 C 0.0000 0.6169(3) 0.2500
O1 O 0.41930(8) 0.11821(16) 0.76821(13)
N2 N 0.5000 0.2953(3) 0.7500
O2 O 0.08014(8) 0.18260(17) 0.23129(13)
N3 N 0.5000 0.9348(3) 0.7500
N4 N 0.0000 0.3664(3) 0.2500
O3 O 0.44287(9) 0.1179(2) 0.58380(13)
O4 O 0.05654(10) 0.1983(2) 0.41524(13)
C3 C 0.5000 0.6824(3) 0.7500
C4 C 0.54133(12) 0.8725(2) 0.81265(17)
H1 H 0.5704 0.9153 0.8565
O5 O 0.44728(10) 0.1647(3) 0.91313(16)
O6 O 0.05242(10) 0.1415(3) 0.08543(15)
O7 O 0.13147(10) 0.1023(2) 0.00393(14)
C5 C 0.04351(12) 0.8173(2) 0.31326(17)
H2 H 0.0733 0.7765 0.3575
C6 C 0.0000 0.7528(3) 0.2500
O8 O 0.36970(10) 0.2166(2) 0.99325(14)
C7 C 0.04258(11) 0.9420(2) 0.31064(17)
H3 H 0.0728 0.9848 0.3528
C8 C 0.30009(12) 0.1862(2) 0.75181(18)
H4 H 0.3109 0.1662 0.6998
C9 C 0.54241(12) 0.7477(2) 0.81462(17)
H5 H 0.5718 0.7070 0.8596
C10 C 0.34462(11) 0.1853(2) 0.83384(18)
C11 C 0.15617(12) 0.1353(2) 0.16301(18)
C12 C 0.20113(11) 0.1406(2) 0.24545(17)
H6 H 0.1898 0.1572 0.2976
C13 C 0.10046(12) 0.2017(3) 0.49516(18)
C14 C 0.39963(12) 0.1223(2) 0.50349(18)
C15 C 0.17281(13) 0.1110(3) 0.08535(18)
C16 C 0.15905(13) 0.2332(3) 0.49622(19)
H7 H 0.1680 0.2505 0.4423
C17 C 0.40812(12) 0.1533(2) 0.83865(19)
C18 C 0.26154(12) 0.1222(2) 0.25214(17)
C19 C 0.05169(12) 0.5529(3) 0.2916(2)
H8 H 0.0877 0.5936 0.3206
C20 C 0.09158(12) 0.1547(2) 0.15920(19)
C21 C 0.34037(13) 0.0944(3) 0.49989(19)
H9 H 0.3304 0.0755 0.5527
C22 C 0.44978(12) 0.4829(3) 0.7020(2)
H10 H 0.4149 0.5236 0.6687
C23 C 0.41316(12) 0.1535(3) 0.4255(2)
H11 H 0.4529 0.1745 0.4272
C24 C 0.24042(12) 0.2157(3) 0.74417(18)
C25 C 0.36809(12) 0.1538(3) 0.34510(19)
H12 H 0.3780 0.1746 0.2925
C26 C 0.32841(13) 0.2160(3) 0.91140(18)
C27 C 0.20421(12) 0.2392(3) 0.57658(18)
H13 H 0.2433 0.2628 0.5766
C28 C 0.29598(12) 0.0944(3) 0.41913(18)
H14 H 0.2562 0.0737 0.4178
C29 C 0.13390(13) 0.1781(3) 0.6541(2)
H15 H 0.1251 0.1585 0.7078
C30 C 0.19292(12) 0.2112(3) 0.65714(18)
C31 C 0.08805(12) 0.1734(3) 0.57477(19)
H16 H 0.0487 0.1511 0.5748
C32 C 0.22638(13) 0.2466(3) 0.82290(19)
H17 H 0.1863 0.2673 0.8198
C33 C 0.30865(11) 0.1241(2) 0.33977(17)
C34 C 0.45137(12) 0.3587(3) 0.7034(2)
H18 H 0.4170 0.3162 0.6704
C35 C 0.26936(14) 0.2476(3) 0.90496(19)
H19 H 0.2585 0.2697 0.9565
C36 C 0.27641(12) 0.0986(3) 0.17250(18)
H20 H 0.3171 0.0859 0.1749
C37 C 0.23335(14) 0.0934(3) 0.09117(19)
H21 H 0.2449 0.0780 0.0391
C38 C 0.04983(12) 0.4281(2) 0.2902(2)
H22 H 0.0852 0.3852 0.3188
Cu1_2 Cu -0.5000 0.11547(4) -0.2500
Cu1_3 Cu 0.5000 1.11547(4) 0.7500
Cu2_2 Cu 0.0000 1.18521(4) 0.2500
N1_2 N 0.0000 0.0045(3) 0.2500
O1A O -0.41930(8) 0.11821(16) -0.26821(13)
O1A_2 O 0.58070(8) 0.11821(16) 0.73179(13)
O2A O -0.08014(8) 0.18260(17) 0.26871(13)
N3_2 N 0.5000 -0.0652(3) 0.7500
O3A O -0.44287(9) 0.1179(2) -0.08380(13)
O3A_2 O 0.55713(9) 0.1179(2) 0.91620(13)
O4A O -0.05654(10) 0.1983(2) 0.08476(13)
C4A C 0.45867(12) 0.8725(2) 0.68735(17)
H1A H 0.4296 0.9153 0.6435
O5A O -0.44728(10) 0.1647(3) -0.41313(16)
O6A O -0.05242(10) 0.1415(3) 0.41457(15)
O7A O -0.13147(10) 0.1023(2) 0.49607(14)
C5A C -0.04351(12) 0.8173(2) 0.18674(17)
H2A H -0.0733 0.7765 0.1425
O8A O -0.36970(10) 0.2166(2) -0.49325(14)
C7A C -0.04258(11) 0.9420(2) 0.18936(17)
H3A H -0.0728 0.9848 0.1472
C8A C -0.30009(12) 0.1862(2) -0.25181(18)
H4A H -0.3109 0.1662 -0.1998
C9A C 0.45759(12) 0.7477(2) 0.68538(17)
H5A H 0.4282 0.7070 0.6404
C10A C -0.34462(11) 0.1853(2) -0.33384(18)
C11A C -0.15617(12) 0.1353(2) 0.33699(18)
C12A C -0.20113(11) 0.1406(2) 0.25455(17)
H6A H -0.1898 0.1572 0.2024
C13A C -0.10046(12) 0.2017(3) 0.00484(18)
C14A C -0.39963(12) 0.1223(2) -0.00349(18)
C15A C -0.17281(13) 0.1110(3) 0.41465(18)
C16A C -0.15905(13) 0.2332(3) 0.00378(19)
H7A H -0.1680 0.2505 0.0577
C17A C -0.40812(12) 0.1533(2) -0.33865(19)
C18A C -0.26154(12) 0.1222(2) 0.24786(17)
C19A C -0.05169(12) 0.5529(3) 0.2084(2)
H8A H -0.0877 0.5936 0.1794
C20A C -0.09158(12) 0.1547(2) 0.34080(19)
C21A C -0.34037(13) 0.0944(3) 0.00011(19)
H9A H -0.3304 0.0755 -0.0527
C22A C 0.55022(12) 0.4829(3) 0.7980(2)
H10A H 0.5851 0.5236 0.8313
C23A C -0.41316(12) 0.1535(3) 0.0745(2)
H11A H -0.4529 0.1745 0.0728
C24A C -0.24042(12) 0.2157(3) -0.24417(18)
C25A C -0.36809(12) 0.1538(3) 0.15490(19)
H12A H -0.3780 0.1746 0.2075
C26A C -0.32841(13) 0.2160(3) -0.41140(18)
C27A C -0.20421(12) 0.2392(3) -0.07658(18)
H13A H -0.2433 0.2628 -0.0766
C28A C -0.29598(12) 0.0944(3) 0.08087(18)
H14A H -0.2562 0.0737 0.0822
C29A C -0.13390(13) 0.1781(3) -0.1541(2)
H15A H -0.1251 0.1585 -0.2078
C30A C -0.19292(12) 0.2112(3) -0.15714(18)
C31A C -0.08805(12) 0.1734(3) -0.07477(19)
H16A H -0.0487 0.1511 -0.0748
C32A C -0.22638(13) 0.2466(3) -0.32290(19)
H17A H -0.1863 0.2673 -0.3198
C33A C -0.30865(11) 0.1241(2) 0.16023(17)
C34A C 0.54863(12) 0.3587(3) 0.7966(2)
H18A H 0.5830 0.3162 0.8296
C35A C -0.26936(14) 0.2476(3) -0.40496(19)
H19A H -0.2585 0.2697 -0.4565
C36A C -0.27641(12) 0.0986(3) 0.32750(18)
H20A H -0.3171 0.0859 0.3251
C37A C -0.23335(14) 0.0934(3) 0.40883(19)
H21A H -0.2449 0.0780 0.4609
C38A C -0.04983(12) 0.4281(2) 0.2098(2)
H22A H -0.0852 0.3852 0.1812
O9 O 0.1593(2) 0.5965(4) 0.4751(3)
C39 C 0.1627(3) 0.5669(5) 0.5506(4)
C40 C 0.2217(3) 0.5622(7) 0.6168(4)
H23 H 0.2531 0.5654 0.5867
H24 H 0.2252 0.4876 0.6505
H25 H 0.2259 0.6303 0.6571
C41 C 0.1073(4) 0.5385(8) 0.5715(5)
H26 H 0.0732 0.5600 0.5213
H27 H 0.1054 0.5836 0.6239
H28 H 0.1061 0.4527 0.5833
O10 O 0.3397(3) 0.5533(6) 0.0235(4)
C42 C 0.2753(4) 0.5666(8) -0.1130(5)
H29 H 0.2461 0.5576 -0.0793
H30 H 0.2663 0.5093 -0.1619
H31 H 0.2731 0.6480 -0.1366
C43 C 0.3369(4) 0.5437(7) -0.0534(5)
C44 C 0.3886(5) 0.5187(10) -0.0775(7)
H32 H 0.4234 0.5519 -0.0332
H33 H 0.3857 0.5545 -0.1354
H34 H 0.3933 0.4319 -0.0810
loop_
_geom_bond_atom_site_label_1
_geom_bond_atom_site_label_2
_geom_bond_site_symmetry_1
_geom_bond_site_symmetry_2
Cu1 O1 1_555 1_555
Cu2 O2 1_555 1_555
N1 C7 1_555 1_555
C1 C3 1_555 1_555
C2 C6 1_555 1_555
O1 C17 1_555 1_555
N2 Cu1 1_555 1_555
O2 C20 1_555 1_555
N3 C4 1_555 1_555
N4 Cu2 1_555 1_555
O3 Cu1 1_555 1_555
O4 Cu2 1_555 1_555
C3 C9 1_555 1_555
C4 H1 1_555 1_555
O5 C17 1_555 1_555
O6 C20 1_555 1_555
O7 C15 1_555 1_555
C5 H2 1_555 1_555
C6 C5 1_555 1_555
O8 C26 1_555 1_555
C7 C5 1_555 1_555
H3 C7 1_555 1_555
C8 H4 1_555 1_555
C9 C4 1_555 1_555
H5 C9 1_555 1_555
C10 C8 1_555 1_555
C11 C12 1_555 1_555
C12 H6 1_555 1_555
C13 O4 1_555 1_555
C14 O3 1_555 1_555
C15 C11 1_555 1_555
C16 C13 1_555 1_555
H7 C16 1_555 1_555
C17 C10 1_555 1_555
C18 C12 1_555 1_555
C19 C2 1_555 1_555
H8 C19 1_555 1_555
C20 C11 1_555 1_555
C21 C14 1_555 1_555
H9 C21 1_555 1_555
C22 C1 1_555 1_555
H10 C22 1_555 1_555
C23 C14 1_555 1_555
H11 C23 1_555 1_555
C24 C8 1_555 1_555
C25 C23 1_555 1_555
H12 C25 1_555 1_555
C26 C10 1_555 1_555
C27 C16 1_555 1_555
H13 C27 1_555 1_555
C28 C21 1_555 1_555
H14 C28 1_555 1_555
C29 H15 1_555 1_555
C30 C24 1_555 1_555
C31 C13 1_555 1_555
H16 C31 1_555 1_555
C32 C24 1_555 1_555
H17 C32 1_555 1_555
C33 C18 1_555 1_555
C34 N2 1_555 1_555
H18 C34 1_555 1_555
C35 C26 1_555 1_555
H19 C35 1_555 1_555
C36 C18 1_555 1_555
H20 C36 1_555 1_555
C37 C15 1_555 1_555
H21 C37 1_555 1_555
C38 N4 1_555 1_555
H22 C38 1_555 1_555
O9 C39 1_555 1_555
C39 C40 1_555 1_555
C40 H23 1_555 1_555
H24 C40 1_555 1_555
H25 C40 1_555 1_555
C41 C39 1_555 1_555
H26 C41 1_555 1_555
H27 C41 1_555 1_555
H28 C41 1_555 1_555
O10 C43 1_555 1_555
C42 H29 1_555 1_555
H30 C42 1_555 1_555
H31 C42 1_555 1_555
C43 C42 1_555 1_555
C44 C43 1_555 1_555
H32 C44 1_555 1_555
H33 C44 1_555 1_555
H34 C44 1_555 1_555
Cu1_2 O1A 1_555 1_555
Cu1_3 N3 1_555 1_555
Cu2_2 N1 1_555 1_555
N1_2 Cu2 1_555 1_555
O1A C17A 1_555 1_555
O1A_2 Cu1 1_555 1_555
O2A Cu2 1_555 1_555
N3_2 Cu1 1_555 1_555
O3A Cu1_2 1_555 1_555
O3A_2 Cu1 1_555 1_555
O4A Cu2 1_555 1_555
C4A N3 1_555 1_555
H1A C4A 1_555 1_555
O5A C17A 1_555 1_555
O6A C20A 1_555 1_555
O7A C15A 1_555 1_555
C5A C6 1_555 1_555
H2A C5A 1_555 1_555
O8A C26A 1_555 1_555
C7A N1 1_555 1_555
H3A C7A 1_555 1_555
C8A H4A 1_555 1_555
C9A C3 1_555 1_555
H5A C9A 1_555 1_555
C10A C8A 1_555 1_555
C11A C12A 1_555 1_555
C12A H6A 1_555 1_555
C13A O4A 1_555 1_555
C14A O3A 1_555 1_555
C15A C11A 1_555 1_555
C16A C13A 1_555 1_555
H7A C16A 1_555 1_555
C17A C10A 1_555 1_555
C18A C12A 1_555 1_555
C19A C2 1_555 1_555
H8A C19A 1_555 1_555
C20A O2A 1_555 1_555
C21A C14A 1_555 1_555
H9A C21A 1_555 1_555
C22A C1 1_555 1_555
H10A C22A 1_555 1_555
C23A C14A 1_555 1_555
H11A C23A 1_555 1_555
C24A C8A 1_555 1_555
C25A C23A 1_555 1_555
H12A C25A 1_555 1_555
C26A C10A 1_555 1_555
C27A C16A 1_555 1_555
H13A C27A 1_555 1_555
C28A C21A 1_555 1_555
H14A C28A 1_555 1_555
C29A H15A 1_555 1_555
C30A C24A 1_555 1_555
C31A C13A 1_555 1_555
H16A C31A 1_555 1_555
C32A C24A 1_555 1_555
H17A C32A 1_555 1_555
C33A C18A 1_555 1_555
C34A N2 1_555 1_555
H18A C34A 1_555 1_555
C35A C26A 1_555 1_555
H19A C35A 1_555 1_555
C36A C18A 1_555 1_555
H20A C36A 1_555 1_555
C37A C15A 1_555 1_555
H21A C37A 1_555 1_555
C38A N4 1_555 1_555
H22A C38A 1_555 1_555
C19 C38 1_555 1_555
C22 C34 1_555 1_555
C25 C33 1_555 1_555
C27 C30 1_555 1_555
C28 C33 1_555 1_555
C29 C30 1_555 1_555
C29 C31 1_555 1_555
C32 C35 1_555 1_555
C36 C37 1_555 1_555
C4A C9A 1_555 1_555
C5A C7A 1_555 1_555
C11A C20A 1_555 1_555
C19A C38A 1_555 1_555
C22A C34A 1_555 1_555
C25A C33A 1_555 1_555
C27A C30A 1_555 1_555
C28A C33A 1_555 1_555
C29A C30A 1_555 1_555
C29A C31A 1_555 1_555
C32A C35A 1_555 1_555
C36A C37A 1_555 1_555

#END
