
#######################################################################
#
#                 Cambridge Crystallographic Data Centre
#                                CCDC 
#
#######################################################################
#
# If this CIF has been generated from an entry in the Cambridge 
# Structural Database, then it will include bibliographic, chemical, 
# crystal, experimental, refinement or atomic coordinate data resulting 
# from the CCDC's data processing and validation procedures.
#
#######################################################################

data_MAKZON
_symmetry_cell_setting           triclinic
_symmetry_space_group_name_H-M   'P -1'
_symmetry_Int_Tables_number      2
_space_group_name_Hall           '-P 1'
loop_
_symmetry_equiv_pos_site_id
_symmetry_equiv_pos_as_xyz
1 x,y,z
2 -x,-y,-z
_cell_length_a                   6.354(4)
_cell_length_b                   6.457(5)
_cell_length_c                   12.064(9)
_cell_angle_alpha                99.21(2)
_cell_angle_beta                 102.87(2)
_cell_angle_gamma                101.62(2)
_cell_volume                     461.624
loop_
_atom_site_label
_atom_site_type_symbol
_atom_site_fract_x
_atom_site_fract_y
_atom_site_fract_z
Pb1 Pb 0.06537(5) -0.72673(5) 0.09635(3)
O1 O -0.5935(12) -0.4445(12) 0.1668(6)
O2 O -0.5540(13) -0.6667(13) 0.2859(7)
O3 O -0.0407(12) -0.5548(10) 0.2724(5)
O4 O -0.0872(12) -0.4183(11) 0.0829(5)
C1 C -0.4841(16) -0.4895(17) 0.2579(9)
C2 C -0.2804(16) -0.3276(17) 0.3331(9)
C3 C -0.0723(15) -0.3405(14) 0.2885(8)
C4 C -0.1037(14) -0.2792(15) 0.1687(7)
O5 O -0.1396(13) -0.1013(12) 0.1589(7)
C5 C 0.1418(16) -0.1786(15) 0.3669(8)
H1 H 0.2608(16) -0.1786(15) 0.3286(8)
H2 H 0.1169(16) -0.0342(15) 0.3774(8)
C6 C 0.2134(16) -0.2325(15) 0.4852(8)
O6 O 0.4160(12) -0.2625(14) 0.5100(7)
O7 O 0.0963(12) -0.2429(12) 0.5535(6)
H3 H -0.321(26) -0.147(25) 0.338(14)
H4 H -0.265(18) -0.325(17) 0.402(11)
H5 H -0.0807 -0.6229 0.3200
H6 H 0.4656 -0.2771 0.6000
Pb1_2 Pb -0.93463(5) -0.72673(5) 0.09635(3)
O1_2 O 0.4065(12) -0.4445(12) 0.1668(6)
Pb1A Pb -0.06537(5) -0.27327(5) -0.09635(3)
O4A O 0.0872(12) -0.5817(11) -0.0829(5)
O8 O -0.6419(17) -1.0754(18) 0.0707(12)
loop_
_geom_bond_atom_site_label_1
_geom_bond_atom_site_label_2
_geom_bond_site_symmetry_1
_geom_bond_site_symmetry_2
Pb1 O3 1_555 1_555
O1 C1 1_555 1_555
O2 C1 1_555 1_555
O3 C3 1_555 1_555
O4 Pb1 1_555 1_555
C1 C2 1_555 1_555
C2 C3 1_555 1_555
C3 C4 1_555 1_555
C4 O4 1_555 1_555
O5 C4 1_555 1_555
C5 C3 1_555 1_555
H1 C5 1_555 1_555
H2 C5 1_555 1_555
C6 C5 1_555 1_555
O6 C6 1_555 1_555
O7 C6 1_555 1_555
H3 C2 1_555 1_555
H4 C2 1_555 1_555
H5 O3 1_555 1_555
H6 O6 1_555 1_555
Pb1_2 O1 1_555 1_555
O1_2 Pb1 1_555 1_555
Pb1A O4 1_555 1_555
O4A Pb1 1_555 1_555
Pb1A O4A 1_555 1_555

#END
