
#######################################################################
#
#                 Cambridge Crystallographic Data Centre
#                                CCDC 
#
#######################################################################
#
# If this CIF has been generated from an entry in the Cambridge 
# Structural Database, then it will include bibliographic, chemical, 
# crystal, experimental, refinement or atomic coordinate data resulting 
# from the CCDC's data processing and validation procedures.
#
#######################################################################

data_MALREW
_symmetry_cell_setting           monoclinic
_symmetry_space_group_name_H-M   'P 21/n'
_symmetry_Int_Tables_number      14
_space_group_name_Hall           '-P 2yn'
loop_
_symmetry_equiv_pos_site_id
_symmetry_equiv_pos_as_xyz
1 x,y,z
2 1/2+x,1/2-y,1/2+z
3 -x,-y,-z
4 1/2-x,1/2+y,1/2-z
_cell_length_a                   14.587(2)
_cell_length_b                   9.471(3)
_cell_length_c                   24.653(2)
_cell_angle_alpha                90
_cell_angle_beta                 92.104(9)
_cell_angle_gamma                90
_cell_volume                     3403.6
loop_
_atom_site_label
_atom_site_type_symbol
_atom_site_fract_x
_atom_site_fract_y
_atom_site_fract_z
Ag1 Ag -0.39633(3) 0.34857(5) -0.22752(2)
P1 P -0.43730(10) 0.4033(2) -0.13475(6)
P2 P -0.49239(9) 0.3769(2) -0.31071(6)
N1 N -0.2577(3) 0.4592(5) -0.2418(2)
N2 N -0.2467(3) 0.5813(5) -0.2679(2)
N3 N -0.1621(3) 0.6212(5) -0.2610(2)
N4 N -0.1143(3) 0.5287(5) -0.2312(2)
C1 C -0.1761(4) 0.4320(7) -0.2208(3)
C2 C -0.4533(3) 0.5917(6) -0.1229(2)
C3 C -0.4032(4) 0.6859(7) -0.1527(2)
C4 C -0.4126(5) 0.8295(7) -0.1455(3)
C5 C -0.4745(5) 0.8819(7) -0.1097(3)
C6 C -0.5253(4) 0.7893(8) -0.0810(3)
C7 C -0.5149(4) 0.6467(7) -0.0874(2)
C8 C -0.3527(3) 0.3480(7) -0.0830(2)
C9 C -0.3357(4) 0.4173(7) -0.0340(2)
C10 C -0.2737(5) 0.3634(9) 0.0050(3)
C11 C -0.2295(5) 0.2394(10) -0.0048(3)
C12 C -0.2445(5) 0.1700(9) -0.0533(3)
C13 C -0.3056(4) 0.2248(8) -0.0922(3)
C14 C -0.5433(3) 0.3248(6) -0.1116(2)
C15 C -0.5535(4) 0.2659(7) -0.0610(2)
C16 C -0.6358(5) 0.2067(8) -0.0463(3)
C17 C -0.7084(5) 0.2078(9) -0.0829(3)
C18 C -0.7007(5) 0.2639(9) -0.1333(3)
C19 C -0.6175(4) 0.3198(7) -0.1476(3)
C20 C -0.6094(4) 0.3111(6) -0.3091(2)
C21 C -0.6229(4) 0.1791(7) -0.2870(3)
C22 C -0.7103(6) 0.1225(9) -0.2868(4)
C23 C -0.7833(6) 0.193(1) -0.3076(4)
C24 C -0.7716(5) 0.326(1) -0.3294(4)
C25 C -0.6846(4) 0.3839(7) -0.3301(3)
C26 C -0.4485(4) 0.2909(6) -0.3704(2)
C27 C -0.5056(5) 0.2287(8) -0.4093(3)
C28 C -0.4683(6) 0.166(1) -0.4541(3)
C29 C -0.3760(6) 0.162(1) -0.4605(3)
C30 C -0.3200(5) 0.221(1) -0.4216(3)
C31 C -0.3557(4) 0.2856(9) -0.3768(3)
C32 C -0.5079(4) 0.5599(6) -0.3314(3)
C33 C -0.5035(6) 0.6070(9) -0.3831(3)
C34 C -0.5164(9) 0.750(1) -0.3960(5)
C35 C -0.5337(7) 0.838(1) -0.3552(5)
C36 C -0.5413(5) 0.7979(8) -0.3031(4)
C37 C -0.5254(4) 0.6558(7) -0.2910(3)
H1 H -0.1614 0.3451 -0.1983
H2 H -0.3595 0.6484 -0.1791
H3 H -0.3742 0.8943 -0.1669
H4 H -0.4818 0.9840 -0.1052
H5 H -0.5695 0.8254 -0.0551
H6 H -0.5524 0.5819 -0.0663
H7 H -0.3692 0.5054 -0.0266
H8 H -0.2614 0.4144 0.0390
H9 H -0.1881 0.1983 0.0230
H10 H -0.2118 0.0804 -0.0606
H11 H -0.3144 0.1746 -0.1276
H12 H -0.5005 0.2679 -0.0346
H13 H -0.6405 0.1606 -0.0101
H14 H -0.7664 0.1674 -0.0722
H15 H -0.7540 0.2649 -0.1595
H16 H -0.6114 0.3571 -0.1850
H17 H -0.5694 0.1240 -0.2717
H18 H -0.7194 0.0280 -0.2705
H19 H -0.8447 0.1489 -0.3074
H20 H -0.8245 0.3788 -0.3441
H21 H -0.6756 0.4790 -0.3462
H22 H -0.5731 0.2304 -0.4049
H23 H -0.5096 0.1214 -0.4820
H24 H -0.3498 0.1194 -0.4919
H25 H -0.2515 0.2220 -0.4255
H26 H -0.3137 0.3275 -0.3480
H27 H -0.4906 0.5390 -0.4133
H28 H -0.5136 0.7868 -0.4329
H29 H -0.5424 0.9397 -0.3624
H30 H -0.5568 0.8671 -0.2734
H31 H -0.5273 0.6224 -0.2521
N3C N -0.3379(3) 0.1212(5) -0.2390(2)
Ag1C Ag -0.10367(3) 0.84857(5) -0.27248(2)
loop_
_geom_bond_atom_site_label_1
_geom_bond_atom_site_label_2
_geom_bond_site_symmetry_1
_geom_bond_site_symmetry_2
Ag1 P1 1_555 1_555
P1 C2 1_555 1_555
P2 Ag1 1_555 1_555
N1 Ag1 1_555 1_555
N2 N1 1_555 1_555
N3 N2 1_555 1_555
N4 N3 1_555 1_555
C1 N1 1_555 1_555
C2 C3 1_555 1_555
C3 C4 1_555 1_555
C4 C5 1_555 1_555
C5 C6 1_555 1_555
C6 C7 1_555 1_555
C7 C2 1_555 1_555
C8 P1 1_555 1_555
C9 C8 1_555 1_555
C10 C9 1_555 1_555
C11 C10 1_555 1_555
C12 C11 1_555 1_555
C13 C8 1_555 1_555
C14 P1 1_555 1_555
C15 C14 1_555 1_555
C16 C15 1_555 1_555
C17 C16 1_555 1_555
C18 C17 1_555 1_555
C19 C14 1_555 1_555
C20 P2 1_555 1_555
C21 C20 1_555 1_555
C22 C21 1_555 1_555
C23 C22 1_555 1_555
C24 C23 1_555 1_555
C25 C20 1_555 1_555
C26 P2 1_555 1_555
C27 C26 1_555 1_555
C28 C27 1_555 1_555
C29 C28 1_555 1_555
C30 C29 1_555 1_555
C31 C26 1_555 1_555
C32 P2 1_555 1_555
C33 C32 1_555 1_555
C34 C33 1_555 1_555
C35 C34 1_555 1_555
C36 C35 1_555 1_555
C37 C32 1_555 1_555
H1 C1 1_555 1_555
H2 C3 1_555 1_555
H3 C4 1_555 1_555
H4 C5 1_555 1_555
H5 C6 1_555 1_555
H6 C7 1_555 1_555
H7 C9 1_555 1_555
H8 C10 1_555 1_555
H9 C11 1_555 1_555
H10 C12 1_555 1_555
H11 C13 1_555 1_555
H12 C15 1_555 1_555
H13 C16 1_555 1_555
H14 C17 1_555 1_555
H15 C18 1_555 1_555
H16 C19 1_555 1_555
H17 C21 1_555 1_555
H18 C22 1_555 1_555
H19 C23 1_555 1_555
H20 C24 1_555 1_555
H21 C25 1_555 1_555
H22 C27 1_555 1_555
H23 C28 1_555 1_555
H24 C29 1_555 1_555
H25 C30 1_555 1_555
H26 C31 1_555 1_555
H27 C33 1_555 1_555
H28 C34 1_555 1_555
H29 C35 1_555 1_555
H30 C36 1_555 1_555
H31 C37 1_555 1_555
N3C Ag1 1_555 1_555
Ag1C N3 1_555 1_555
N4 C1 1_555 1_555
C12 C13 1_555 1_555
C18 C19 1_555 1_555
C24 C25 1_555 1_555
C30 C31 1_555 1_555
C36 C37 1_555 1_555

#END
