
#######################################################################
#
#                 Cambridge Crystallographic Data Centre
#                                CCDC 
#
#######################################################################
#
# If this CIF has been generated from an entry in the Cambridge 
# Structural Database, then it will include bibliographic, chemical, 
# crystal, experimental, refinement or atomic coordinate data resulting 
# from the CCDC's data processing and validation procedures.
#
#######################################################################

data_MAMKUG
_symmetry_cell_setting           orthorhombic
_symmetry_space_group_name_H-M   'P 21 21 21'
_symmetry_Int_Tables_number      19
_space_group_name_Hall           'P 2ac 2ab'
loop_
_symmetry_equiv_pos_site_id
_symmetry_equiv_pos_as_xyz
1 x,y,z
2 1/2-x,-y,1/2+z
3 -x,1/2+y,1/2-z
4 1/2+x,1/2-y,-z
_cell_length_a                   9.055(2)
_cell_length_b                   10.734(2)
_cell_length_c                   18.338(3)
_cell_angle_alpha                90
_cell_angle_beta                 90
_cell_angle_gamma                90
_cell_volume                     1782.39
loop_
_atom_site_label
_atom_site_type_symbol
_atom_site_fract_x
_atom_site_fract_y
_atom_site_fract_z
Cu1 Cu -1.79968(10) 0.49830(10) 0.42762(4)
N1 N -1.4511(7) 0.9277(6) 0.5036(3)
N2 N -1.7219(7) 0.6212(6) 0.3441(3)
N3 N -1.8813(8) 0.3880(6) 0.3374(3)
N4 N -2.1528(8) 0.0888(6) 0.5049(3)
C1 C -1.5216(10) 0.8669(8) 0.3817(4)
H1 H -1.4997(10) 0.8657(8) 0.3321(4)
C2 C -1.4240(9) 0.9210(8) 0.4310(4)
H2 H -1.3361(9) 0.9541(8) 0.4133(4)
C3 C -1.5742(10) 0.8762(7) 0.5254(4)
H3 H -1.5946(10) 0.8762(7) 0.5751(4)
C4 C -1.6754(10) 0.8219(7) 0.4791(5)
H4 H -1.7625(10) 0.7891(7) 0.4980(5)
C5 C -1.6495(9) 0.8157(7) 0.4066(4)
C6 C -1.7520(9) 0.7556(7) 0.3539(4)
H5 H -1.8526(9) 0.7661(7) 0.3710(4)
H6 H -1.7436(9) 0.7972(7) 0.3072(4)
C7 C -1.7914(12) 0.5741(8) 0.2774(4)
H7 H -1.7391(12) 0.6056(8) 0.2351(4)
H8 H -1.8928(12) 0.6029(8) 0.2748(4)
C8 C -1.7881(13) 0.4338(8) 0.2772(4)
H9 H -1.8249(13) 0.4025(8) 0.2310(4)
H10 H -1.6875(13) 0.4047(8) 0.2835(4)
C9 C -1.8700(10) 0.2533(7) 0.3426(4)
H11 H -1.7689(10) 0.2310(7) 0.3544(4)
H12 H -1.8934(10) 0.2169(7) 0.2956(4)
C10 C -1.9708(10) 0.1994(7) 0.3991(5)
C11 C -2.1024(11) 0.2467(8) 0.4180(5)
H13 H -2.1358(11) 0.3186(8) 0.3950(5)
C12 C -2.1887(11) 0.1922(7) 0.4701(5)
H14 H -2.2780(11) 0.2301(7) 0.4817(5)
C13 C -2.0227(10) 0.0413(7) 0.4850(5)
H15 H -1.9908(10) -0.0311(7) 0.5080(5)
C14 C -1.9323(10) 0.0933(8) 0.4322(6)
H16 H -1.8442(10) 0.0542(8) 0.4197(6)
Cu1C Cu -1.29968(10) 1.00170(10) 0.57238(4)
N1C N -1.9511(7) 0.5723(6) 0.4964(3)
Cu1C_2 Cu -2.29968(10) 0.00170(10) 0.57238(4)
N4C N -1.6528(8) 0.4112(6) 0.4951(3)
Cl1 Cl -0.3180(4) 0.5384(3) 0.30176(15)
O1 O -0.1827(8) 0.5021(9) 0.2853(4)
O2 O -0.4047(9) 0.5787(8) 0.2458(5)
O3 O -0.3801(10) 0.4426(13) 0.3365(7)
O4 O -0.3076(23) 0.6309(14) 0.3449(7)
loop_
_geom_bond_atom_site_label_1
_geom_bond_atom_site_label_2
_geom_bond_site_symmetry_1
_geom_bond_site_symmetry_2
Cu1 N2 1_555 1_555
Cl1 O1 1_555 1_555
O2 Cl1 1_555 1_555
O3 Cl1 1_555 1_555
O4 Cl1 1_555 1_555
N1 C2 1_555 1_555
N2 C6 1_555 1_555
N3 Cu1 1_555 1_555
N4 C12 1_555 1_555
C1 H1 1_555 1_555
C2 C1 1_555 1_555
H2 C2 1_555 1_555
C3 N1 1_555 1_555
H3 C3 1_555 1_555
C4 C3 1_555 1_555
H4 C4 1_555 1_555
C5 C1 1_555 1_555
C6 C5 1_555 1_555
H5 C6 1_555 1_555
H6 C6 1_555 1_555
C7 N2 1_555 1_555
H7 C7 1_555 1_555
H8 C7 1_555 1_555
C8 N3 1_555 1_555
H9 C8 1_555 1_555
H10 C8 1_555 1_555
C9 N3 1_555 1_555
H11 C9 1_555 1_555
H12 C9 1_555 1_555
C10 C9 1_555 1_555
C11 C10 1_555 1_555
H13 C11 1_555 1_555
C12 C11 1_555 1_555
H14 C12 1_555 1_555
C13 N4 1_555 1_555
H15 C13 1_555 1_555
C14 C10 1_555 1_555
H16 C14 1_555 1_555
Cu1C N1 1_555 1_555
N1C Cu1 1_555 1_555
Cu1C_2 N4 1_555 1_555
N4C Cu1 1_555 1_555
C4 C5 1_555 1_555
C7 C8 1_555 1_555
C13 C14 1_555 1_555

#END
