
#######################################################################
#
#                 Cambridge Crystallographic Data Centre
#                                CCDC 
#
#######################################################################
#
# If this CIF has been generated from an entry in the Cambridge 
# Structural Database, then it will include bibliographic, chemical, 
# crystal, experimental, refinement or atomic coordinate data resulting 
# from the CCDC's data processing and validation procedures.
#
#######################################################################

data_MANZUY
_symmetry_cell_setting           monoclinic
_symmetry_space_group_name_H-M   'P 21/n'
_symmetry_Int_Tables_number      14
_space_group_name_Hall           '-P 2yn'
loop_
_symmetry_equiv_pos_site_id
_symmetry_equiv_pos_as_xyz
1 x,y,z
2 1/2-x,1/2+y,1/2-z
3 -x,-y,-z
4 1/2+x,1/2-y,1/2+z
_cell_length_a                   6.8829(9)
_cell_length_b                   26.094(3)
_cell_length_c                   11.5144(14)
_cell_angle_alpha                90
_cell_angle_beta                 92.943(2)
_cell_angle_gamma                90
_cell_volume                     2065.29
loop_
_atom_site_label
_atom_site_type_symbol
_atom_site_fract_x
_atom_site_fract_y
_atom_site_fract_z
Pr1 Pr 0.26892(2) 0.056579(7) 0.955935(15)
N1 N 0.2337(6) -0.10671(14) 0.3121(3)
H1 H 0.135(5) -0.1084(14) 0.281(3)
H2 H 0.332(5) -0.1081(13) 0.277(3)
N2 N 0.2916(7) 0.29998(15) 0.4516(3)
H3 H 0.188(6) 0.3112(16) 0.425(3)
H4 H 0.398(7) 0.3125(18) 0.439(4)
N3 N 0.4228(8) 0.16095(15) 1.2643(3)
O1 O 0.4438(3) 0.13189(9) 0.8512(2)
O2 O 0.1240(3) 0.13063(10) 0.8377(2)
O3 O 0.4107(3) 0.02152(9) 0.77424(19)
O4 O 0.0962(3) 0.01271(9) 0.7849(2)
O5 O -0.0686(3) 0.05414(11) 1.0040(2)
O6 O -0.3815(3) 0.04217(9) 1.01722(19)
O7 O 0.3042(6) 0.13115(12) 1.0888(3)
O8 O 0.2554(4) 0.02929(10) 1.1651(2)
H5 H 0.152(4) 0.0169(15) 1.191(3)
H6 H 0.349(5) 0.0117(15) 1.194(4)
C1 C 0.4575(6) 0.21192(15) 0.6845(3)
H7 H 0.581(6) 0.2004(14) 0.721(3)
C2 C 0.4610(6) 0.24908(15) 0.5989(3)
H8 H 0.578(5) 0.2618(13) 0.576(3)
C3 C 0.2893(6) 0.26461(14) 0.5393(3)
C4 C 0.1148(6) 0.24230(15) 0.5708(4)
H9 H -0.014(6) 0.2508(17) 0.530(4)
C5 C 0.1125(6) 0.20584(15) 0.6573(3)
H10 H -0.009(5) 0.1943(13) 0.677(3)
C6 C 0.2845(5) 0.18982(13) 0.7164(3)
C7 C 0.2840(5) 0.14887(13) 0.8074(3)
C8 C 0.0726(6) -0.04905(14) 0.5799(3)
H11 H -0.044(5) -0.0414(12) 0.611(3)
C9 C 0.0657(6) -0.07500(15) 0.4761(3)
H12 H -0.054(6) -0.0852(15) 0.444(3)
C10 C 0.2377(5) -0.08466(13) 0.4189(3)
C11 C 0.4141(6) -0.07116(14) 0.4763(3)
H13 H 0.531(5) -0.0768(13) 0.444(3)
C12 C 0.4175(5) -0.04492(14) 0.5801(3)
H14 H 0.530(6) -0.0343(14) 0.611(3)
C13 C 0.2469(5) -0.03244(13) 0.6331(3)
C14 C 0.2517(5) 0.00147(13) 0.7354(3)
C15 C -0.2354(5) 0.06885(15) 0.9986(4)
H15 H -0.259(6) 0.0999(19) 0.973(4)
C16 C 0.4345(11) 0.1447(2) 1.1570(5)
H16 H 0.5591 0.1434 1.1296
C17 C 0.5935(11) 0.1793(3) 1.3317(6)
H17 H 0.7062 0.1760 1.2865
H18 H 0.6113 0.1594 1.4016
H19 H 0.5755 0.2147 1.3516
C18 C 0.2392(10) 0.1628(2) 1.3158(6)
H20 H 0.1404 0.1496 1.2621
H21 H 0.2092 0.1977 1.3348
H22 H 0.2443 0.1425 1.3854
Pr1_2 Pr -0.73108(2) 0.056579(7) 0.955935(15)
Pr1B Pr -0.26892(2) -0.056579(7) 1.044065(15)
O6_2 O 0.6185(3) 0.04217(9) 1.01722(19)
O6B O 0.3815(3) -0.04217(9) 0.98278(19)
loop_
_geom_bond_atom_site_label_1
_geom_bond_atom_site_label_2
_geom_bond_site_symmetry_1
_geom_bond_site_symmetry_2
Pr1 O1 1_555 1_555
N1 H1 1_555 1_555
H2 N1 1_555 1_555
N2 H3 1_555 1_555
H4 N2 1_555 1_555
N3 C16 1_555 1_555
O1 C7 1_555 1_555
O2 Pr1 1_555 1_555
O3 Pr1 1_555 1_555
O4 Pr1 1_555 1_555
O5 Pr1 1_555 1_555
O6 C15 1_555 1_555
O7 Pr1 1_555 1_555
O8 Pr1 1_555 1_555
H5 O8 1_555 1_555
H6 O8 1_555 1_555
C1 H7 1_555 1_555
C2 C1 1_555 1_555
H8 C2 1_555 1_555
C3 N2 1_555 1_555
C4 C3 1_555 1_555
H9 C4 1_555 1_555
C5 C4 1_555 1_555
H10 C5 1_555 1_555
C6 C1 1_555 1_555
C7 O2 1_555 1_555
C8 H11 1_555 1_555
C9 C8 1_555 1_555
H12 C9 1_555 1_555
C10 N1 1_555 1_555
C11 C10 1_555 1_555
H13 C11 1_555 1_555
C12 C11 1_555 1_555
H14 C12 1_555 1_555
C13 C8 1_555 1_555
C14 O3 1_555 1_555
C15 O5 1_555 1_555
H15 C15 1_555 1_555
C16 O7 1_555 1_555
H16 C16 1_555 1_555
C17 N3 1_555 1_555
H17 C17 1_555 1_555
H18 C17 1_555 1_555
H19 C17 1_555 1_555
C18 N3 1_555 1_555
H20 C18 1_555 1_555
H21 C18 1_555 1_555
H22 C18 1_555 1_555
Pr1_2 O6 1_555 1_555
Pr1B O6 1_555 1_555
O6_2 Pr1 1_555 1_555
O6B Pr1 1_555 1_555
O4 C14 1_555 1_555
C2 C3 1_555 1_555
C5 C6 1_555 1_555
C6 C7 1_555 1_555
C9 C10 1_555 1_555
C12 C13 1_555 1_555
C13 C14 1_555 1_555

#END
