
#######################################################################
#
#                 Cambridge Crystallographic Data Centre
#                                CCDC 
#
#######################################################################
#
# If this CIF has been generated from an entry in the Cambridge 
# Structural Database, then it will include bibliographic, chemical, 
# crystal, experimental, refinement or atomic coordinate data resulting 
# from the CCDC's data processing and validation procedures.
#
#######################################################################

data_MAPDEM
_symmetry_cell_setting           orthorhombic
_symmetry_space_group_name_H-M   'P c m n'
_symmetry_Int_Tables_number      62
_space_group_name_Hall           '-P 2n 2ac'
loop_
_symmetry_equiv_pos_site_id
_symmetry_equiv_pos_as_xyz
1 x,y,z
2 1/2-x,1/2-y,1/2+z
3 1/2+x,-y,1/2-z
4 -x,1/2+y,-z
5 -x,-y,-z
6 1/2+x,1/2+y,1/2-z
7 1/2-x,y,1/2+z
8 x,1/2-y,z
_cell_length_a                   17.2985(7)
_cell_length_b                   5.2538(3)
_cell_length_c                   7.3912(4)
_cell_angle_alpha                90
_cell_angle_beta                 90
_cell_angle_gamma                90
_cell_volume                     671.733
loop_
_atom_site_label
_atom_site_type_symbol
_atom_site_fract_x
_atom_site_fract_y
_atom_site_fract_z
Hg1 Hg -0.25201(27) 0.250000 0.46821(19)
C1 C -0.0803(20) 0.250000 0.3780(14)
C2 C -0.0615(11) 0.250000 0.0791(20)
N1 N -0.1517(11) 0.250000 0.2950(37)
N2 N -0.1401(8) 0.250000 0.1103(31)
C3 C -0.0245(6) 0.250000 0.2445(37)
N2A N -0.3599(8) 0.250000 0.6103(31)
Hg1A Hg -0.24799(27) 0.250000 -0.03179(19)
N1A N -0.3483(11) 0.250000 -0.2050(37)
C1A C -0.4197(20) 0.250000 -0.1220(14)
C3A C -0.4755(6) 0.250000 -0.2555(37)
C2A C -0.4385(11) 0.250000 -0.4209(20)
N2A_2 N -0.3599(8) 0.250000 -0.3897(31)
Hg1_2 Hg -0.25201(27) 0.250000 -0.53179(19)
N3 N -0.8133(8) 0.250000 0.3236(22)
O1 O -0.8410(7) 0.05208(10) 0.2745(23)
O2 O -0.7616(10) 0.250000 0.4318(23)
O1G O -0.8410(7) 0.44792(10) 0.2745(23)
loop_
_geom_bond_atom_site_label_1
_geom_bond_atom_site_label_2
_geom_bond_site_symmetry_1
_geom_bond_site_symmetry_2
Hg1 N1 1_555 1_555
C1 N1 1_555 1_555
C2 N2 1_555 1_555
N1 N2 1_555 1_555
N2 Hg1A 1_555 1_555
C3 C1 1_555 1_555
N3 O1 1_555 1_555
O2 N3 1_555 1_555
N2A Hg1 1_555 1_555
Hg1A N1A 1_555 1_555
N1A C1A 1_555 1_555
C1A C3A 1_555 1_555
C3A C2A 1_555 1_555
C2A N2A_2 1_555 1_555
N2A_2 N1A 1_555 1_555
Hg1_2 N2A_2 1_555 1_555
O1G N3 1_555 1_555
C2 C3 1_555 1_555

#END
