
#######################################################################
#
#                 Cambridge Crystallographic Data Centre
#                                CCDC 
#
#######################################################################
#
# If this CIF has been generated from an entry in the Cambridge 
# Structural Database, then it will include bibliographic, chemical, 
# crystal, experimental, refinement or atomic coordinate data resulting 
# from the CCDC's data processing and validation procedures.
#
#######################################################################

data_MAPRAX
_symmetry_cell_setting           monoclinic
_symmetry_space_group_name_H-M   'P 21/n'
_symmetry_Int_Tables_number      14
_space_group_name_Hall           '-P 2yn'
loop_
_symmetry_equiv_pos_site_id
_symmetry_equiv_pos_as_xyz
1 x,y,z
2 1/2-x,1/2+y,1/2-z
3 -x,-y,-z
4 1/2+x,1/2-y,1/2+z
_cell_length_a                   7.6160(19)
_cell_length_b                   19.370(5)
_cell_length_c                   15.222(4)
_cell_angle_alpha                90
_cell_angle_beta                 98.312(5)
_cell_angle_gamma                90
_cell_volume                     2221.99
loop_
_atom_site_label
_atom_site_type_symbol
_atom_site_fract_x
_atom_site_fract_y
_atom_site_fract_z
Co1 Co 0.74340(8) 0.12919(3) 0.81368(4)
C1 C 0.5029(6) 0.1118(2) 0.6895(3)
C2 C 0.3577(6) 0.1004(2) 0.6150(3)
C3 C 0.1820(7) 0.1150(2) 0.6229(3)
H1 H 0.1532 0.1315 0.6764
C4 C 0.0503(7) 0.1050(3) 0.5520(4)
H2 H -0.0670 0.1152 0.5574
C5 C 0.0931(6) 0.0799(2) 0.4731(3)
C6 C 0.2652(6) 0.0634(3) 0.4659(3)
H3 H 0.2928 0.0444 0.4135
C7 C 0.3974(6) 0.0746(2) 0.5359(3)
H4 H 0.5145 0.0647 0.5299
C8 C -0.1573(6) 0.1184(2) 0.3770(3)
C9 C -0.3326(6) 0.1008(2) 0.3663(3)
H5 H -0.3661 0.0553 0.3744
C10 C -0.4591(6) 0.1505(3) 0.3436(3)
H6 H -0.5786 0.1385 0.3365
C11 C -0.4110(6) 0.2189(2) 0.3310(3)
C12 C -0.2341(6) 0.2350(2) 0.3372(3)
H7 H -0.1998 0.2799 0.3265
C13 C -0.1070(6) 0.1847(3) 0.3594(4)
H8 H 0.0127 0.1955 0.3625
C14 C -0.5494(6) 0.2730(2) 0.3155(3)
C15 C 0.8282(8) -0.0261(3) 0.7964(6)
H9 H 0.8475 -0.0168 0.7386
C16 C 0.8424(12) -0.0938(5) 0.8275(9)
H10 H 0.8676 -0.1297 0.7907
C17 C 0.8184(12) -0.1062(5) 0.9135(11)
H11 H 0.8293 -0.1511 0.9351
C18 C 0.7789(8) -0.0545(4) 0.9686(7)
C19 C 0.7475(12) -0.0626(6) 1.0624(9)
H12 H 0.7514 -0.1061 1.0884
C20 C 0.7148(13) -0.0083(8) 1.1075(8)
H13 H 0.6966 -0.0149 1.1660
C21 C 0.7048(8) 0.0589(5) 1.0753(5)
C22 C 0.6719(11) 0.1189(7) 1.1234(5)
H14 H 0.6528 0.1152 1.1822
C23 C 0.6682(13) 0.1803(6) 1.0848(5)
H15 H 0.6478 0.2197 1.1167
C24 C 0.6943(9) 0.1856(4) 0.9988(4)
H16 H 0.6921 0.2293 0.9734
C25 C 0.7286(6) 0.0695(3) 0.9860(3)
C26 C 0.7654(6) 0.0121(3) 0.9322(4)
N1 N 0.7880(5) 0.0254(2) 0.8472(3)
N2 N 0.7227(6) 0.1318(2) 0.9494(3)
O1 O 0.6627(4) 0.1063(2) 0.6765(2)
O2 O 0.4703(4) 0.12604(17) 0.7653(2)
O3 O -0.0335(5) 0.06726(17) 0.4000(2)
O4 O -0.5022(4) 0.33501(17) 0.3109(2)
O5 O -0.7107(4) 0.25791(19) 0.3108(3)
Co1C Co -0.75660(8) 0.37081(3) 0.31368(4)
O4C O 0.9978(4) 0.16499(17) 0.8109(2)
O5C O 0.7893(4) 0.24209(19) 0.8108(3)
O6 O 0.800(2) -0.2683(7) 0.9267(11)
H17 H 0.8096 -0.2931 0.8815
H18 H 0.7855 -0.2873 0.9755
loop_
_geom_bond_atom_site_label_1
_geom_bond_atom_site_label_2
_geom_bond_site_symmetry_1
_geom_bond_site_symmetry_2
Co1 N1 1_555 1_555
C1 C2 1_555 1_555
C2 C3 1_555 1_555
C3 H1 1_555 1_555
C4 C3 1_555 1_555
H2 C4 1_555 1_555
C5 C4 1_555 1_555
C6 C5 1_555 1_555
H3 C6 1_555 1_555
C7 C2 1_555 1_555
H4 C7 1_555 1_555
C8 C9 1_555 1_555
C9 H5 1_555 1_555
C10 C9 1_555 1_555
H6 C10 1_555 1_555
C11 C10 1_555 1_555
C12 C11 1_555 1_555
H7 C12 1_555 1_555
C13 C8 1_555 1_555
H8 C13 1_555 1_555
C14 C11 1_555 1_555
C15 H9 1_555 1_555
C16 C15 1_555 1_555
H10 C16 1_555 1_555
C17 C16 1_555 1_555
H11 C17 1_555 1_555
C18 C17 1_555 1_555
C19 C18 1_555 1_555
H12 C19 1_555 1_555
C20 C19 1_555 1_555
H13 C20 1_555 1_555
C21 C20 1_555 1_555
C22 C21 1_555 1_555
H14 C22 1_555 1_555
C23 C22 1_555 1_555
H15 C23 1_555 1_555
C24 C23 1_555 1_555
H16 C24 1_555 1_555
C25 C21 1_555 1_555
C26 C18 1_555 1_555
N1 C15 1_555 1_555
N2 Co1 1_555 1_555
O1 Co1 1_555 1_555
O2 Co1 1_555 1_555
O3 C5 1_555 1_555
O4 C14 1_555 1_555
O5 C14 1_555 1_555
O6 H17 1_555 1_555
H18 O6 1_555 1_555
Co1C O4 1_555 1_555
O4C Co1 1_555 1_555
O5C Co1 1_555 1_555
C1 O1 1_555 1_555
C1 O2 1_555 1_555
C6 C7 1_555 1_555
C8 O3 1_555 1_555
C12 C13 1_555 1_555
C24 N2 1_555 1_555
C25 C26 1_555 1_555
C25 N2 1_555 1_555
C26 N1 1_555 1_555
O5 Co1C 1_555 1_555

#END
