
#######################################################################
#
#                 Cambridge Crystallographic Data Centre
#                                CCDC 
#
#######################################################################
#
# If this CIF has been generated from an entry in the Cambridge 
# Structural Database, then it will include bibliographic, chemical, 
# crystal, experimental, refinement or atomic coordinate data resulting 
# from the CCDC's data processing and validation procedures.
#
#######################################################################

data_MAQBOW
_symmetry_cell_setting           monoclinic
_symmetry_space_group_name_H-M   'P 21/n'
_symmetry_Int_Tables_number      14
_space_group_name_Hall           '-P 2yn'
loop_
_symmetry_equiv_pos_site_id
_symmetry_equiv_pos_as_xyz
1 x,y,z
2 1/2-x,1/2+y,1/2-z
3 -x,-y,-z
4 1/2+x,1/2-y,1/2+z
_cell_length_a                   11.249(5)
_cell_length_b                   10.277(2)
_cell_length_c                   15.607(5)
_cell_angle_alpha                90
_cell_angle_beta                 97.916(5)
_cell_angle_gamma                90
_cell_volume                     1787.07
loop_
_atom_site_label
_atom_site_type_symbol
_atom_site_fract_x
_atom_site_fract_y
_atom_site_fract_z
Ni1 Ni 0.75517(7) 0.25854(8) 0.18599(5)
O1 O 0.7879(4) 0.3552(4) 0.3006(3)
O2 O 0.7488(4) 0.5617(4) 0.2597(3)
O3 O 0.7530(4) 0.8944(4) 0.4174(3)
O4 O 0.7451(6) 0.8987(5) 0.5600(3)
N1 N 0.7789(5) 0.6441(5) 0.4178(4)
N2 N 0.5705(5) 0.2758(5) 0.1953(3)
N3 N -0.0565(5) 0.2541(6) 0.1913(3)
C1 C 0.7777(6) 0.4744(6) 0.3149(4)
C2 C 0.7989(6) 0.5183(6) 0.4087(5)
C3 C 0.8363(9) 0.4402(8) 0.4791(5)
H1 H 0.8515 0.3521 0.4724
C4 C 0.8506(11) 0.4979(8) 0.5600(6)
H2 H 0.8768 0.4484 0.6088
C5 C 0.8259(9) 0.6293(8) 0.5687(5)
H3 H 0.8338 0.6682 0.6230
C6 C 0.7895(7) 0.7003(6) 0.4954(5)
C7 C 0.7606(6) 0.8445(6) 0.4919(5)
C8 C 0.5250(6) 0.2240(7) 0.2626(4)
H4 H 0.5780 0.1883 0.3075
C9 C 0.4034(6) 0.2209(7) 0.2691(4)
H5 H 0.3757 0.1841 0.3171
C10 C 0.3234(6) 0.2743(6) 0.2017(4)
C11 C 0.3729(6) 0.3318(7) 0.1345(5)
H6 H 0.3229 0.3715 0.0896
C12 C 0.4941(6) 0.3310(7) 0.1333(5)
H7 H 0.5244 0.3706 0.0873
C13 C 0.0121(6) 0.1578(7) 0.2265(5)
H8 H -0.0244 0.0854 0.2472
C14 C 0.1367(6) 0.1609(7) 0.2334(5)
H9 H 0.1825 0.0928 0.2597
C15 C 0.1924(6) 0.2681(6) 0.2002(4)
C16 C 0.1216(6) 0.3656(7) 0.1641(6)
H10 H 0.1554 0.4383 0.1415
C17 C -0.0030(7) 0.3557(7) 0.1612(6)
H11 H -0.0506 0.4239 0.1369
Ni1A Ni 0.74483(7) 0.75854(8) 0.31401(5)
Ni1_2 Ni -0.24483(7) 0.25854(8) 0.18599(5)
O2A O 0.7512(4) 0.0617(4) 0.2403(3)
O3A O 0.7470(4) 0.3944(4) 0.0826(3)
N1A N 0.7211(5) 0.1441(5) 0.0822(4)
N3_2 N 0.9435(5) 0.2541(6) 0.1913(3)
O5 O 0.6185(15) -0.3669(18) 0.0775(14)
C18 C 0.683(4) -0.346(3) 0.071(2)
loop_
_geom_bond_atom_site_label_1
_geom_bond_atom_site_label_2
_geom_bond_site_symmetry_1
_geom_bond_site_symmetry_2
Ni1 O1 1_555 1_555
O1 C1 1_555 1_555
O2 C1 1_555 1_555
O3 C7 1_555 1_555
O4 C7 1_555 1_555
N1 C2 1_555 1_555
N2 Ni1 1_555 1_555
N3 C13 1_555 1_555
C1 C2 1_555 1_555
C2 C3 1_555 1_555
C3 H1 1_555 1_555
C4 C3 1_555 1_555
H2 C4 1_555 1_555
C5 C4 1_555 1_555
H3 C5 1_555 1_555
C6 N1 1_555 1_555
C7 C6 1_555 1_555
C8 N2 1_555 1_555
H4 C8 1_555 1_555
C9 C8 1_555 1_555
H5 C9 1_555 1_555
C10 C9 1_555 1_555
C11 C10 1_555 1_555
H6 C11 1_555 1_555
C12 N2 1_555 1_555
H7 C12 1_555 1_555
C13 H8 1_555 1_555
C14 C13 1_555 1_555
H9 C14 1_555 1_555
C15 C10 1_555 1_555
C16 C15 1_555 1_555
H10 C16 1_555 1_555
C17 N3 1_555 1_555
H11 C17 1_555 1_555
O5 C18 1_555 1_555
Ni1A O2 1_555 1_555
Ni1_2 N3 1_555 1_555
O2A Ni1 1_555 1_555
O3A Ni1 1_555 1_555
N1A Ni1 1_555 1_555
N3_2 Ni1 1_555 1_555
O3 Ni1A 1_555 1_555
N1 Ni1A 1_555 1_555
C5 C6 1_555 1_555
C11 C12 1_555 1_555
C14 C15 1_555 1_555
C16 C17 1_555 1_555

#END
