
#######################################################################
#
#                 Cambridge Crystallographic Data Centre
#                                CCDC 
#
#######################################################################
#
# If this CIF has been generated from an entry in the Cambridge 
# Structural Database, then it will include bibliographic, chemical, 
# crystal, experimental, refinement or atomic coordinate data resulting 
# from the CCDC's data processing and validation procedures.
#
#######################################################################

data_MAQDUD
_symmetry_cell_setting           monoclinic
_symmetry_space_group_name_H-M   'P 21/c'
_symmetry_Int_Tables_number      14
_space_group_name_Hall           '-P 2ybc'
loop_
_symmetry_equiv_pos_site_id
_symmetry_equiv_pos_as_xyz
1 x,y,z
2 x,1/2-y,1/2+z
3 -x,-y,-z
4 -x,1/2+y,1/2-z
_cell_length_a                   8.35918(5)
_cell_length_b                   5.13212(3)
_cell_length_c                   8.48489(5)
_cell_angle_alpha                90
_cell_angle_beta                 93.1555(4)
_cell_angle_gamma                90
_cell_volume                     363.453
loop_
_atom_site_label
_atom_site_type_symbol
_atom_site_fract_x
_atom_site_fract_y
_atom_site_fract_z
C1 C -0.15701(9) 0.0493(5) 0.0440(3)
C2 C -0.07238 -0.16774 0.10623
C3 C 0.08463 -0.21708 0.06227
H1 H 0.1223 0.2834 -0.17948
H2 H -0.1430 0.3668 -0.10521
C4 C -0.3181(3) 0.1142(6) 0.1018(4)
O1 O -0.3862(2) -0.0445(4) 0.1902(3)
O2 O 0.3809(3) -0.3274(4) -0.0532(3)
Li1 Li -0.5122(8) 0.1136(13) 0.3556(8)
O1C O -0.6138(2) 0.4555(4) 0.3098(3)
C1B C 0.15701(9) -0.0493(5) -0.0440(3)
C2B C 0.07238 0.16774 -0.10623
C3B C -0.08463 0.21708 -0.06227
C4B C 0.3181(3) -0.1142(6) -0.1018(4)
O1B O 0.3862(2) 0.0445(4) -0.1902(3)
Li1A Li 0.4878(8) 0.3864(13) -0.1444(8)
O2C O 0.6191(3) 0.1726(4) -0.4468(3)
Li1B Li 0.5122(8) -0.1136(13) -0.3556(8)
O1A O 0.6138(2) -0.4555(4) -0.3098(3)
Li1A_2 Li 0.4878(8) -0.6136(13) -0.1444(8)
O2A O 0.3809(3) -0.1726(4) -0.5532(3)
H2B H 0.1430 -0.3668 0.10521
H1B H -0.1223 -0.2834 0.17948
O2B O -0.3809(3) 0.3274(4) 0.0532(3)
Li1C Li -0.4878(8) -0.3864(13) 0.1444(8)
O2A_2 O -0.6191(3) -0.1726(4) 0.4468(3)
O2C_2 O -0.3809(3) 0.1726(4) 0.5532(3)
Li1C_2 Li -0.4878(8) 0.6136(13) 0.1444(8)
Li1C_3 Li 0.5122(8) -0.3864(13) 0.1444(8)
Li1A_3 Li -0.5122(8) 0.3864(13) -0.1444(8)
loop_
_geom_bond_atom_site_label_1
_geom_bond_atom_site_label_2
_geom_bond_site_symmetry_1
_geom_bond_site_symmetry_2
C1 C2 1_555 1_555
C2 C3 1_555 1_555
C3 C1B 1_555 1_555
H1 C2B 1_555 1_555
H2 C3B 1_555 1_555
C4 C1 1_555 1_555
O1 C4 1_555 1_555
O2 C4B 1_555 1_555
Li1 O1 1_555 1_555
O1C Li1 1_555 1_555
C1B C2B 1_555 1_555
C2B C3B 1_555 1_555
C3B C1 1_555 1_555
C4B C1B 1_555 1_555
O1B C4B 1_555 1_555
Li1A O1B 1_555 1_555
O2C Li1B 1_555 1_555
Li1B O1B 1_555 1_555
O1A Li1B 1_555 1_555
Li1A_2 O2 1_555 1_555
O2A Li1B 1_555 1_555
H2B C3 1_555 1_555
H1B C2 1_555 1_555
O2B C4 1_555 1_555
Li1C O1 1_555 1_555
O2A_2 Li1 1_555 1_555
O2C_2 Li1 1_555 1_555
Li1C_2 O1C 1_555 1_555
Li1C_3 O2 1_555 1_555
Li1A_3 O2B 1_555 1_555
O1A Li1A_2 1_555 1_555
O2B Li1C_2 1_555 1_555

#END
