
#######################################################################
#
#                 Cambridge Crystallographic Data Centre
#                                CCDC 
#
#######################################################################
#
# If this CIF has been generated from an entry in the Cambridge 
# Structural Database, then it will include bibliographic, chemical, 
# crystal, experimental, refinement or atomic coordinate data resulting 
# from the CCDC's data processing and validation procedures.
#
#######################################################################

data_MAQDUD01
_symmetry_cell_setting           monoclinic
_symmetry_space_group_name_H-M   'P 21/c'
_symmetry_Int_Tables_number      14
_space_group_name_Hall           '-P 2ybc'
loop_
_symmetry_equiv_pos_site_id
_symmetry_equiv_pos_as_xyz
1 x,y,z
2 -x,1/2+y,1/2-z
3 -x,-y,-z
4 x,1/2-y,1/2+z
_cell_length_a                   8.365(6)
_cell_length_b                   5.129(4)
_cell_length_c                   8.516(6)
_cell_angle_alpha                90
_cell_angle_beta                 92.916(9)
_cell_angle_gamma                90
_cell_volume                     364.898
loop_
_atom_site_label
_atom_site_type_symbol
_atom_site_fract_x
_atom_site_fract_y
_atom_site_fract_z
O1 O 0.11354(12) 0.04428(19) 0.68817(12)
O2 O 0.12019(11) -0.32645(19) 0.55347(12)
Li1 Li 0.0115(3) 0.3868(5) 0.6460(3)
C1 C 0.42892(16) 0.1653(3) 0.60584(16)
H1 H 0.3819 0.2759 0.6767
C2 C 0.34507(15) -0.0492(2) 0.54528(15)
C3 C 0.41679(16) -0.2142(3) 0.43972(16)
H2 H 0.3610 -0.3582 0.3994
C4 C 0.18046(15) -0.1126(3) 0.59862(15)
O1B O 0.88646(12) -0.04428(19) 0.31183(12)
O1A O -0.11354(12) 0.54428(19) 0.81183(12)
O1C O 1.11354(12) -0.54428(19) 0.18817(12)
O2B O 0.87981(11) 0.32645(19) 0.44653(12)
O2_2 O 0.12019(11) 0.67355(19) 0.55347(12)
O2B_2 O -0.12019(11) 0.32645(19) 0.44653(12)
O2_3 O 1.12019(11) -0.32645(19) 0.55347(12)
O2B_3 O 0.87981(11) -0.67355(19) 0.44653(12)
Li1B Li 0.9885(3) -0.3868(5) 0.3540(3)
Li1A Li -0.0115(3) -0.1132(5) 0.8540(3)
Li1_2 Li 0.0115(3) -0.6132(5) 0.6460(3)
Li1B_2 Li -0.0115(3) -0.3868(5) 0.3540(3)
Li1C Li 1.0115(3) 0.1132(5) 0.1460(3)
Li1_3 Li 1.0115(3) 0.3868(5) 0.6460(3)
Li1B_3 Li 0.9885(3) 0.6132(5) 0.3540(3)
C1B C 0.57108(16) -0.1653(3) 0.39416(16)
H1B H 0.6181 -0.2759 0.3233
C2B C 0.65493(15) 0.0492(2) 0.45472(15)
C3B C 0.58321(16) 0.2142(3) 0.56028(16)
H2B H 0.6390 0.3582 0.6006
C4B C 0.81954(15) 0.1126(3) 0.40138(15)
loop_
_geom_bond_atom_site_label_1
_geom_bond_atom_site_label_2
_geom_bond_site_symmetry_1
_geom_bond_site_symmetry_2
O1 Li1 1_555 1_555
O2 C4 1_555 1_555
Li1 O1A 1_555 1_555
C1 H1 1_555 1_555
C2 C1 1_555 1_555
C3 C2 1_555 1_555
H2 C3 1_555 1_555
C4 O1 1_555 1_555
O1B Li1B 1_555 1_555
O1C Li1B 1_555 1_555
O2B Li1_3 1_555 1_555
O2_2 Li1 1_555 1_555
O2B_2 Li1 1_555 1_555
O2_3 Li1B 1_555 1_555
O2B_3 Li1B 1_555 1_555
Li1A O1 1_555 1_555
Li1_2 O2 1_555 1_555
Li1B_2 O2 1_555 1_555
Li1C O1B 1_555 1_555
Li1B_3 O2B 1_555 1_555
C1B C3 1_555 1_555
H1B C1B 1_555 1_555
C2B C1B 1_555 1_555
C3B C1 1_555 1_555
H2B C3B 1_555 1_555
C4B O1B 1_555 1_555
C2 C4 1_555 1_555
O2B C4B 1_555 1_555
C2B C3B 1_555 1_555
C2B C4B 1_555 1_555

#END
