
#######################################################################
#
#                 Cambridge Crystallographic Data Centre
#                                CCDC 
#
#######################################################################
#
# If this CIF has been generated from an entry in the Cambridge 
# Structural Database, then it will include bibliographic, chemical, 
# crystal, experimental, refinement or atomic coordinate data resulting 
# from the CCDC's data processing and validation procedures.
#
#######################################################################

data_MAQJAP
_symmetry_cell_setting           monoclinic
_symmetry_space_group_name_H-M   'P 21/n'
_symmetry_Int_Tables_number      14
_space_group_name_Hall           '-P 2yn'
loop_
_symmetry_equiv_pos_site_id
_symmetry_equiv_pos_as_xyz
1 x,y,z
2 1/2+x,1/2-y,1/2+z
3 -x,-y,-z
4 1/2-x,1/2+y,1/2-z
_cell_length_a                   8.7059(14)
_cell_length_b                   9.1916(14)
_cell_length_c                   15.261(2)
_cell_angle_alpha                90
_cell_angle_beta                 94.740(3)
_cell_angle_gamma                90
_cell_volume                     1217.03
loop_
_atom_site_label
_atom_site_type_symbol
_atom_site_fract_x
_atom_site_fract_y
_atom_site_fract_z
Tl1 Tl -1.78863(3) 0.53067(4) 0.22746(2)
B1 B -1.2571(9) 0.8415(10) 0.4404(6)
H1 H -1.254(7) 0.953(8) 0.453(5)
N1 N -1.1656(6) 0.8104(6) 0.3616(4)
N2 N -1.0202(7) 0.6975(8) 0.2701(5)
N3 N -1.4220(6) 0.7776(6) 0.4236(4)
N4 N -1.6237(7) 0.6551(8) 0.3619(5)
N5 N -1.1775(6) 0.7660(6) 0.5226(4)
N6 N -1.1278(8) 0.6174(7) 0.6367(5)
C1 C -1.1645(8) 0.8917(10) 0.2876(5)
H2 H -1.214(4) 0.977(7) 0.2774(10)
C2 C -1.0767(9) 0.8219(10) 0.2318(6)
H3 H -1.0590(18) 0.852(3) 0.179(5)
C3 C -1.0769(8) 0.6949(9) 0.3459(6)
H4 H -1.0644(18) 0.645(7) 0.372(4)
C4 C -1.5464(9) 0.7979(9) 0.4720(6)
H5 H -1.5469(9) 0.839(5) 0.509(4)
C5 C -1.6647(8) 0.7241(9) 0.4352(6)
H6 H -1.740(8) 0.7209(10) 0.4514(18)
C6 C -1.4775(8) 0.6916(8) 0.3593(5)
H7 H -1.434(5) 0.668(3) 0.327(4)
C7 C -1.0353(8) 0.8007(9) 0.5626(6)
H8 H -0.969(5) 0.875(6) 0.5452(14)
C8 C -1.0084(10) 0.7101(9) 0.6308(6)
H9 H -0.930(7) 0.7107(9) 0.665(3)
C9 C -1.2271(9) 0.6538(8) 0.5704(5)
H10 H -1.315(7) 0.611(4) 0.5587(11)
Tl1_2 Tl -0.78863(3) 0.53067(4) 0.22746(2)
N2_2 N -2.0202(7) 0.6975(8) 0.2701(5)
N6B N -1.8722(8) 0.3826(7) 0.3633(5)
Tl1B Tl -1.21137(3) 0.46933(4) 0.77254(2)
loop_
_geom_bond_atom_site_label_1
_geom_bond_atom_site_label_2
_geom_bond_site_symmetry_1
_geom_bond_site_symmetry_2
Tl1 N4 1_555 1_555
B1 H1 1_555 1_555
N1 B1 1_555 1_555
N2 C2 1_555 1_555
N3 B1 1_555 1_555
N4 C5 1_555 1_555
N5 B1 1_555 1_555
N6 C8 1_555 1_555
C1 N1 1_555 1_555
H2 C1 1_555 1_555
C2 C1 1_555 1_555
H3 C2 1_555 1_555
C3 N1 1_555 1_555
H4 C3 1_555 1_555
C4 N3 1_555 1_555
H5 C4 1_555 1_555
C5 C4 1_555 1_555
H6 C5 1_555 1_555
C6 N3 1_555 1_555
H7 C6 1_555 1_555
C7 N5 1_555 1_555
H8 C7 1_555 1_555
C8 C7 1_555 1_555
H9 C8 1_555 1_555
C9 N5 1_555 1_555
H10 C9 1_555 1_555
Tl1_2 N2 1_555 1_555
N2_2 Tl1 1_555 1_555
N6B Tl1 1_555 1_555
Tl1B N6 1_555 1_555
N2 C3 1_555 1_555
N4 C6 1_555 1_555
N6 C9 1_555 1_555

#END
