
#######################################################################
#
#                 Cambridge Crystallographic Data Centre
#                                CCDC 
#
#######################################################################
#
# If this CIF has been generated from an entry in the Cambridge 
# Structural Database, then it will include bibliographic, chemical, 
# crystal, experimental, refinement or atomic coordinate data resulting 
# from the CCDC's data processing and validation procedures.
#
#######################################################################

data_MAQSUT
_symmetry_cell_setting           orthorhombic
_symmetry_space_group_name_H-M   'P b c n'
_symmetry_Int_Tables_number      60
_space_group_name_Hall           '-P 2n 2ab'
loop_
_symmetry_equiv_pos_site_id
_symmetry_equiv_pos_as_xyz
1 x,y,z
2 1/2-x,1/2-y,1/2+z
3 1/2+x,1/2-y,-z
4 -x,y,1/2-z
5 -x,-y,-z
6 1/2+x,1/2+y,1/2-z
7 1/2-x,1/2+y,z
8 x,-y,1/2+z
_cell_length_a                   13.045(3)
_cell_length_b                   22.026(5)
_cell_length_c                   17.824(4)
_cell_angle_alpha                90
_cell_angle_beta                 90
_cell_angle_gamma                90
_cell_volume                     5121.36
loop_
_atom_site_label
_atom_site_type_symbol
_atom_site_fract_x
_atom_site_fract_y
_atom_site_fract_z
Fe1 Fe 0.5000 0.21433(4) 0.7500
C1 C 0.6203(4) 0.3334(2) 0.7947(3)
H1 H 0.6188 0.3405 0.7421
C2 C 0.6662(4) 0.3762(2) 0.8395(3)
H2 H 0.6942 0.4121 0.8180
C3 C 0.6717(4) 0.3668(2) 0.9176(3)
C4 C 0.6300(4) 0.3127(2) 0.9444(3)
H3 H 0.6334 0.3031 0.9963
C5 C 0.5838(4) 0.2732(2) 0.8950(3)
H4 H 0.5545 0.2371 0.9148
C6 C 0.7122(4) 0.3943(2) 1.0490(3)
H5 H 0.7568 0.3593 1.0612
H6 H 0.6417 0.3856 1.0665
C7 C 0.7524(4) 0.4513(2) 1.0829(3)
C8 C 0.7612(4) 0.4662(3) 1.1582(3)
H7 H 0.7435 0.4377 1.1962
C9 C 0.7964(5) 0.5235(3) 1.1767(3)
H8 H 0.8032 0.5345 1.2280
C10 C 0.8218(5) 0.5652(3) 1.1215(3)
H9 H 0.8442 0.6046 1.1355
C11 C 0.8152(5) 0.5501(2) 1.0453(3)
H10 H 0.8343 0.5782 1.0074
C12 C 0.7792(4) 0.4920(2) 1.0271(3)
C13 C 0.7595(4) 0.4637(2) 0.9534(3)
C14 C 0.8261(4) 0.5368(2) 0.8705(3)
C15 C 0.7702(4) 0.5880(2) 0.8488(3)
H11 H 0.6975 0.5883 0.8516
C16 C 0.8233(4) 0.6386(2) 0.8229(3)
H12 H 0.7845 0.6733 0.8088
C17 C 0.9778(4) 0.5932(2) 0.8403(3)
H13 H 1.0505 0.5952 0.8386
C18 C 0.9330(4) 0.5406(2) 0.8671(3)
H14 H 0.9743 0.5074 0.8829
N1 N 0.5774(3) 0.28232(17) 0.8206(2)
N2 N 0.7139(3) 0.40761(18) 0.9684(2)
N3 N 0.7764(4) 0.48235(19) 0.8868(2)
N4 N 0.9243(3) 0.64175(17) 0.8167(2)
N5 N 0.6303(2) 0.2146(4) 0.6773(5)
C19 C 0.71236(18) 0.2308(2) 0.6649(3)
S1 S 0.83114(15) 0.25138(11) 0.64803(14)
Fe1E Fe 1.0000 0.71433(4) 0.7500
Fe1E_2 Fe 0.0000 0.71433(4) 0.7500
C1C C 0.3797(4) 0.3334(2) 0.7053(3)
H1C H 0.3812 0.3405 0.7579
C2C C 0.3338(4) 0.3762(2) 0.6605(3)
H2C H 0.3058 0.4121 0.6820
C3C C 0.3283(4) 0.3668(2) 0.5824(3)
C4C C 0.3700(4) 0.3127(2) 0.5556(3)
H3C H 0.3666 0.3031 0.5037
C5C C 0.4162(4) 0.2732(2) 0.6050(3)
H4C H 0.4455 0.2371 0.5852
C6C C 0.2878(4) 0.3943(2) 0.4510(3)
H5C H 0.2432 0.3593 0.4388
H6C H 0.3583 0.3856 0.4335
C7C C 0.2476(4) 0.4513(2) 0.4171(3)
C8C C 0.2388(4) 0.4662(3) 0.3418(3)
H7C H 0.2565 0.4377 0.3038
C9C C 0.2036(5) 0.5235(3) 0.3233(3)
H8C H 0.1968 0.5345 0.2720
C10C C 0.1782(5) 0.5652(3) 0.3785(3)
H9C H 0.1558 0.6046 0.3645
C11C C 0.1848(5) 0.5501(2) 0.4547(3)
H10C H 0.1657 0.5782 0.4926
C12C C 0.2208(4) 0.4920(2) 0.4729(3)
C13C C 0.2405(4) 0.4637(2) 0.5466(3)
C14C C 0.1739(4) 0.5368(2) 0.6295(3)
C15C C 0.2298(4) 0.5880(2) 0.6512(3)
H11C H 0.3025 0.5883 0.6484
C16C C 0.1767(4) 0.6386(2) 0.6771(3)
H12C H 0.2155 0.6733 0.6912
C17C C 0.0222(4) 0.5932(2) 0.6597(3)
H13C H -0.0505 0.5952 0.6614
C18C C 0.0670(4) 0.5406(2) 0.6329(3)
H14C H 0.0257 0.5074 0.6171
N1C N 0.4226(3) 0.28232(17) 0.6794(2)
N2C N 0.2861(3) 0.40761(18) 0.5316(2)
N3C N 0.2236(4) 0.48235(19) 0.6132(2)
N4C N 0.0757(3) 0.64175(17) 0.6833(2)
N4E N 0.4243(3) 0.14175(17) 0.6833(2)
N4F N 0.5757(3) 0.14175(17) 0.8167(2)
N5C N 0.3697(2) 0.2146(4) 0.8227(5)
C19C C 0.28764(18) 0.2308(2) 0.8351(3)
S1C S 0.16886(15) 0.25138(11) 0.85197(14)
Cl1 Cl 0.9634(6) 0.3512(2) 0.97290(17)
C21 C 0.9159(2) 0.29972(13) 0.90825(15)
Cl2 Cl 0.8757(3) 0.23197(15) 0.9470(2)
C22 C 0.9098(3) 0.30961(14) 0.83663(15)
H15 H 0.8825 0.2785 0.8056
Cl3 Cl 0.9484(3) 0.37584(16) 0.79545(18)
O2 O 0.4395(12) 0.4190(7) 1.0072(8)
H22 H 0.3836 0.4329 0.9785
C28 C 0.4794(16) 0.4670(8) 1.0546(12)
H25 H 0.4243 0.4820 1.0887
O3 O 0.5000 0.5091(6) 1.2500
O6 O 0.5000(14) 0.4709(9) 1.1826(11)
N6? N 0.6215(15) 0.2168(16) 0.6745(19)
C20? C 0.6960(10) 0.2377(10) 0.6516(11)
S2? S 0.7999(9) 0.2684(5) 0.6161(7)
Cl4? Cl 0.8895(5) 0.2741(2) 0.8406(2)
C23? C 0.9079(4) 0.28857(19) 0.9352(3)
Cl5? Cl 0.9628(7) 0.3582(3) 0.9539(4)
C24? C 0.8836(5) 0.2514(2) 0.9888(2)
H16? H 0.8966 0.2634 1.0391
Cl6? Cl 0.8291(5) 0.1820(2) 0.9734(3)
Cl7? Cl 0.9041(9) 0.2215(3) 0.9363(5)
C25? C 0.9065(6) 0.2831(3) 0.8760(4)
Cl8? Cl 0.8738(8) 0.2659(4) 0.7846(4)
C26? C 0.9304(10) 0.3380(3) 0.8957(5)
H17? H 0.9296 0.3689 0.8585
Cl9? Cl 0.9634(13) 0.3575(5) 0.9853(6)
O1? O 0.4626(9) 0.4471(6) 1.0282(6)
H18? H 0.5182 0.4433 0.9949
C27? C 0.4908(12) 0.4829(7) 1.0933(8)
H19? H 0.4286 0.4866 1.1248
H20? H 0.5136 0.5241 1.0770
H21? H 0.5454 0.4619 1.1217
H23? H 0.5356 0.4491 1.0847
H24? H 0.5065 0.5003 1.0230
O4? O 0.5039(9) 0.3720(5) 1.2100(7)
O5? O 0.5033(14) 0.5030(10) 1.2939(11)
O7? O 0.4967(12) 0.4947(8) 1.1221(10)
loop_
_geom_bond_atom_site_label_1
_geom_bond_atom_site_label_2
_geom_bond_site_symmetry_1
_geom_bond_site_symmetry_2
Fe1 N1 1_555 1_555
C1 H1 1_555 1_555
C2 C1 1_555 1_555
H2 C2 1_555 1_555
C3 C2 1_555 1_555
C4 C3 1_555 1_555
H3 C4 1_555 1_555
C5 C4 1_555 1_555
H4 C5 1_555 1_555
C6 H5 1_555 1_555
H6 C6 1_555 1_555
C7 C6 1_555 1_555
C8 C7 1_555 1_555
H7 C8 1_555 1_555
C9 C8 1_555 1_555
H8 C9 1_555 1_555
C10 C9 1_555 1_555
H9 C10 1_555 1_555
C11 C10 1_555 1_555
H10 C11 1_555 1_555
C12 C7 1_555 1_555
C13 C12 1_555 1_555
C14 C15 1_555 1_555
C15 H11 1_555 1_555
C16 C15 1_555 1_555
H12 C16 1_555 1_555
C17 H13 1_555 1_555
C18 C14 1_555 1_555
H14 C18 1_555 1_555
N1 C1 1_555 1_555
N2 C3 1_555 1_555
N3 C13 1_555 1_555
N4 C16 1_555 1_555
N5 Fe1 1_555 1_555
C19 N5 1_555 1_555
S1 C19 1_555 1_555
Cl1 C21 1_555 1_555
C21 Cl2 1_555 1_555
C22 C21 1_555 1_555
H15 C22 1_555 1_555
Cl3 C22 1_555 1_555
O2 H22 1_555 1_555
C28 O2 1_555 1_555
H25 C28 1_555 1_555
Fe1E N4 1_555 1_555
Fe1E_2 N4C 1_555 1_555
C1C H1C 1_555 1_555
C2C C1C 1_555 1_555
H2C C2C 1_555 1_555
C3C C2C 1_555 1_555
C4C C3C 1_555 1_555
H3C C4C 1_555 1_555
C5C C4C 1_555 1_555
H4C C5C 1_555 1_555
C6C H5C 1_555 1_555
H6C C6C 1_555 1_555
C7C C6C 1_555 1_555
C8C C7C 1_555 1_555
H7C C8C 1_555 1_555
C9C C8C 1_555 1_555
H8C C9C 1_555 1_555
C10C C9C 1_555 1_555
H9C C10C 1_555 1_555
C11C C10C 1_555 1_555
H10C C11C 1_555 1_555
C12C C7C 1_555 1_555
C13C C12C 1_555 1_555
C14C C15C 1_555 1_555
C15C H11C 1_555 1_555
C16C C15C 1_555 1_555
H12C C16C 1_555 1_555
C17C H13C 1_555 1_555
C18C C14C 1_555 1_555
H14C C18C 1_555 1_555
N1C Fe1 1_555 1_555
N2C C3C 1_555 1_555
N3C C13C 1_555 1_555
N4C C16C 1_555 1_555
N4E Fe1 1_555 1_555
N4F Fe1 1_555 1_555
N5C Fe1 1_555 1_555
C19C N5C 1_555 1_555
S1C C19C 1_555 1_555
C5 N1 1_555 1_555
C6 N2 1_555 1_555
C11 C12 1_555 1_555
C13 N2 1_555 1_555
C14 N3 1_555 1_555
C17 C18 1_555 1_555
C17 N4 1_555 1_555
C1C N1C 1_555 1_555
C5C N1C 1_555 1_555
C6C N2C 1_555 1_555
C11C C12C 1_555 1_555
C13C N2C 1_555 1_555
C14C N3C 1_555 1_555
C17C C18C 1_555 1_555
C17C N4C 1_555 1_555

#END
