
#######################################################################
#
#                 Cambridge Crystallographic Data Centre
#                                CCDC 
#
#######################################################################
#
# If this CIF has been generated from an entry in the Cambridge 
# Structural Database, then it will include bibliographic, chemical, 
# crystal, experimental, refinement or atomic coordinate data resulting 
# from the CCDC's data processing and validation procedures.
#
#######################################################################

data_MAQTOP
_symmetry_cell_setting           rhombohedral
_symmetry_space_group_name_H-M   'R 3 2'
_symmetry_Int_Tables_number      155
_space_group_name_Hall           'R 3 2"'
loop_
_symmetry_equiv_pos_site_id
_symmetry_equiv_pos_as_xyz
1 x,y,z
2 -y,x-y,z
3 y,x,-z
4 -x+y,-x,z
5 -x,-x+y,-z
6 x-y,-y,-z
7 2/3+x,1/3+y,1/3+z
8 2/3-y,1/3+x-y,1/3+z
9 2/3+y,1/3+x,1/3-z
10 2/3-x+y,1/3-x,1/3+z
11 2/3-x,1/3-x+y,1/3-z
12 2/3+x-y,1/3-y,1/3-z
13 1/3+x,2/3+y,2/3+z
14 1/3-y,2/3+x-y,2/3+z
15 1/3+y,2/3+x,2/3-z
16 1/3-x+y,2/3-x,2/3+z
17 1/3-x,2/3-x+y,2/3-z
18 1/3+x-y,2/3-y,2/3-z
_cell_length_a                   9.7193(14)
_cell_length_b                   9.7193(14)
_cell_length_c                   21.191(4)
_cell_angle_alpha                90
_cell_angle_beta                 90
_cell_angle_gamma                120
_cell_volume                     1733.61
loop_
_atom_site_label
_atom_site_type_symbol
_atom_site_fract_x
_atom_site_fract_y
_atom_site_fract_z
Ce1 Ce 0.0000 0.0000 0.268832(6)
O1 O -0.05818(18) -0.19988(19) 0.18025(7)
H1 H 0.004(3) -0.195(4) 0.1502(12)
O2 O -0.2702(2) -0.2376(2) 0.25964(8)
O3 O -0.4343(2) -0.4873(2) 0.23125(9)
C1 C -0.2044(3) -0.3333 0.1667
C2 C -0.3121(3) -0.3571(3) 0.22498(10)
O4 O -0.0104(3) -0.1824(3) 0.35277(11)
H2 H 0.072(3) -0.180(4) 0.3734(16)
H3 H -0.091(3) -0.259(4) 0.3719(15)
Ce1H Ce -0.3333 -0.6667 0.064501(6)
Ce1H_2 Ce 0.6667 0.3333 0.064501(6)
Ce1H_3 Ce -0.3333 0.3333 0.064501(6)
O1K O -0.19163(26) -0.46679(19) 0.15308(7)
O1A O 0.19988(19) 0.14170(26) 0.18025(7)
O1H O 0.46679(19) 0.27515(18) 0.15308(7)
O1C O -0.14170(26) 0.05818(18) 0.18025(7)
O1J O -0.27515(18) 0.19163(26) 0.15308(7)
O1J_2 O -0.27515(18) -0.80837(26) 0.15308(7)
O1H_2 O -0.53321(19) -0.72485(18) 0.15308(7)
H1K H -0.134(5) -0.472(4) 0.1831(12)
H1A H 0.195(4) 0.199(5) 0.1502(12)
H1H H 0.472(4) 0.337(3) 0.1831(12)
H1C H -0.199(5) -0.004(3) 0.1502(12)
H1J H -0.337(3) 0.134(5) 0.1831(12)
H1J_2 H -0.337(3) -0.866(5) 0.1831(12)
H1H_2 H -0.528(4) -0.663(3) 0.1831(12)
O2K O -0.3659(3) -0.4291(2) 0.07369(8)
O2A O 0.2376(2) -0.0326(3) 0.25964(8)
O2H O 0.4291(2) 0.0631(2) 0.07369(8)
O2C O 0.0326(3) 0.2702(2) 0.25964(8)
O2J O -0.0631(2) 0.3659(3) 0.07369(8)
O2J_2 O -0.0631(2) -0.6341(3) 0.07369(8)
O2H_2 O -0.5709(2) -0.9369(2) 0.07369(8)
O3K O -0.2803(3) -0.1794(2) 0.10208(9)
O3A O 0.4873(2) 0.0530(3) 0.23125(9)
O3H O 0.1794(2) -0.1010(2) 0.10208(9)
O3C O -0.0530(3) 0.4343(2) 0.23125(9)
O3J O 0.1010(2) 0.2803(3) 0.10208(9)
C1A C 0.3333 0.1289(3) 0.1667
C1C C -0.1289(3) 0.2044(3) 0.1667
C2K C -0.2883(4) -0.3096(3) 0.10835(10)
C2A C 0.3571(3) 0.0450(4) 0.22498(10)
C2H C 0.3096(3) 0.0212(3) 0.10835(10)
C2C C -0.0450(4) 0.3121(3) 0.22498(10)
C2J C -0.0212(3) 0.2883(4) 0.10835(10)
O4A O 0.1824(3) 0.1720(4) 0.35277(11)
O4C O -0.1720(4) 0.0104(3) 0.35277(11)
O4K O -0.1613(4) -0.4843(3) -0.01944(11)
O4J O -0.3229(3) -0.8387(4) -0.01944(11)
O4H O -0.5157(3) -0.6771(3) -0.01944(11)
H2A H 0.180(4) 0.252(5) 0.3734(16)
H2C H -0.252(5) -0.072(3) 0.3734(16)
H2K H -0.081(5) -0.487(4) -0.0401(16)
H2J H -0.405(3) -0.919(5) -0.0401(16)
H2H H -0.513(4) -0.595(3) -0.0401(16)
H3A H 0.259(4) 0.168(5) 0.3719(15)
H3C H -0.168(5) 0.091(3) 0.3719(15)
H3K H -0.165(5) -0.408(4) -0.0386(15)
H3J H -0.242(3) -0.835(5) -0.0386(15)
H3H H -0.592(4) -0.758(3) -0.0386(15)
loop_
_geom_bond_atom_site_label_1
_geom_bond_atom_site_label_2
_geom_bond_site_symmetry_1
_geom_bond_site_symmetry_2
Ce1 O1 1_555 1_555
O1 H1 1_555 1_555
O2 Ce1 1_555 1_555
O3 C2 1_555 1_555
C1 O1 1_555 1_555
C2 O2 1_555 1_555
O4 Ce1 1_555 1_555
H2 O4 1_555 1_555
H3 O4 1_555 1_555
Ce1H O1K 1_555 1_555
Ce1H_2 O1H 1_555 1_555
Ce1H_3 O1J 1_555 1_555
O1K C1 1_555 1_555
O1A Ce1 1_555 1_555
O1H H1H 1_555 1_555
O1C Ce1 1_555 1_555
O1J H1J 1_555 1_555
O1J_2 Ce1H 1_555 1_555
O1H_2 Ce1H 1_555 1_555
H1K O1K 1_555 1_555
H1A O1A 1_555 1_555
H1C O1C 1_555 1_555
H1J_2 O1J_2 1_555 1_555
H1H_2 O1H_2 1_555 1_555
O2K Ce1H 1_555 1_555
O2A Ce1 1_555 1_555
O2H Ce1H_2 1_555 1_555
O2C Ce1 1_555 1_555
O2J Ce1H_3 1_555 1_555
O2J_2 Ce1H 1_555 1_555
O2H_2 Ce1H 1_555 1_555
O3K C2K 1_555 1_555
O3A C2A 1_555 1_555
O3H C2H 1_555 1_555
O3C C2C 1_555 1_555
O3J C2J 1_555 1_555
C1A O1A 1_555 1_555
C1C O1C 1_555 1_555
C2K C1 1_555 1_555
C2A O2A 1_555 1_555
C2H O2H 1_555 1_555
C2C O2C 1_555 1_555
C2J O2J 1_555 1_555
O4A Ce1 1_555 1_555
O4C Ce1 1_555 1_555
O4K Ce1H 1_555 1_555
O4J Ce1H 1_555 1_555
O4H Ce1H 1_555 1_555
H2A O4A 1_555 1_555
H2C O4C 1_555 1_555
H2K O4K 1_555 1_555
H2J O4J 1_555 1_555
H2H O4H 1_555 1_555
H3A O4A 1_555 1_555
H3C O4C 1_555 1_555
H3K O4K 1_555 1_555
H3J O4J 1_555 1_555
H3H O4H 1_555 1_555
C1 C2 1_555 1_555
O1H C1A 1_555 1_555
O1J C1C 1_555 1_555
O2K C2K 1_555 1_555
C1A C2A 1_555 1_555
C1A C2H 1_555 1_555
C1C C2C 1_555 1_555
C1C C2J 1_555 1_555

#END
