
#######################################################################
#
#                 Cambridge Crystallographic Data Centre
#                                CCDC 
#
#######################################################################
#
# If this CIF has been generated from an entry in the Cambridge 
# Structural Database, then it will include bibliographic, chemical, 
# crystal, experimental, refinement or atomic coordinate data resulting 
# from the CCDC's data processing and validation procedures.
#
#######################################################################

data_MAQTUV
_symmetry_cell_setting           rhombohedral
_symmetry_space_group_name_H-M   'R 3 2'
_symmetry_Int_Tables_number      155
_space_group_name_Hall           'R 3 2"'
loop_
_symmetry_equiv_pos_site_id
_symmetry_equiv_pos_as_xyz
1 x,y,z
2 -y,x-y,z
3 -x+y,-x,z
4 y,x,-z
5 x-y,-y,-z
6 -x,-x+y,-z
7 2/3+x,1/3+y,1/3+z
8 2/3-y,1/3+x-y,1/3+z
9 2/3-x+y,1/3-x,1/3+z
10 2/3+y,1/3+x,1/3-z
11 2/3+x-y,1/3-y,1/3-z
12 2/3-x,1/3-x+y,1/3-z
13 1/3+x,2/3+y,2/3+z
14 1/3-y,2/3+x-y,2/3+z
15 1/3-x+y,2/3-x,2/3+z
16 1/3+y,2/3+x,2/3-z
17 1/3+x-y,2/3-y,2/3-z
18 1/3-x,2/3-x+y,2/3-z
_cell_length_a                   9.7612(4)
_cell_length_b                   9.7612(4)
_cell_length_c                   21.3097(9)
_cell_angle_alpha                90
_cell_angle_beta                 90
_cell_angle_gamma                120
_cell_volume                     1758.39
loop_
_atom_site_label
_atom_site_type_symbol
_atom_site_fract_x
_atom_site_fract_y
_atom_site_fract_z
Pr1 Pr 1.0000 1.0000 0.768197(4)
C1 C 0.7955(2) 0.6667 0.6667
C2 C 0.68837(19) 0.6439(2) 0.72521(7)
O1 O 0.94244(13) 0.80058(14) 0.68010(5)
H1 H 1.008(2) 0.825(3) 0.6510(9)
O2 O 0.73075(16) 0.76361(16) 0.75991(6)
O3 O 0.56583(17) 0.51303(16) 0.73198(7)
O4 O 0.98925(19) 0.8180(2) 0.85185(8)
H2 H 0.911(2) 0.752(3) 0.8723(11)
H3 H 1.074(2) 0.815(3) 0.8648(12)
Pr1I Pr 0.6667 0.3333 0.565136(4)
Pr1I_2 Pr 1.6667 1.3333 0.565136(4)
Pr1I_3 Pr 0.6667 1.3333 0.565136(4)
C1A C 1.3333 1.1288(2) 0.6667
C1B C 0.8712(2) 1.2045(2) 0.6667
C2J C 0.71114(28) 0.6894(2) 0.60812(7)
C2A C 1.3561(2) 1.04447(28) 0.72521(7)
C2I C 1.3106(2) 1.02170(19) 0.60812(7)
C2B C 0.95553(28) 1.31163(19) 0.72521(7)
C2K C 0.97830(19) 1.28886(28) 0.60812(7)
O1J O 0.80853(19) 0.53275(14) 0.65323(5)
O1A O 1.19942(14) 1.14186(19) 0.68010(5)
O1I O 1.46725(14) 1.27577(13) 0.65323(5)
O1B O 0.85814(19) 1.05756(13) 0.68010(5)
O1K O 0.72423(13) 1.19147(19) 0.65323(5)
O1K_2 O 0.72423(13) 0.19147(19) 0.65323(5)
O1I_2 O 0.46725(14) 0.27577(13) 0.65323(5)
H1J H 0.850(4) 0.508(3) 0.6823(9)
H1A H 1.175(3) 1.183(4) 0.6510(9)
H1I H 1.492(3) 1.341(2) 0.6823(9)
H1B H 0.817(4) 0.992(2) 0.6510(9)
H1K H 0.659(2) 1.150(4) 0.6823(9)
H1K_2 H 0.659(2) 0.150(4) 0.6823(9)
H1I_2 H 0.492(3) 0.341(2) 0.6823(9)
O2J O 0.63381(23) 0.56972(16) 0.57342(6)
O2A O 1.23639(16) 0.96714(23) 0.75991(6)
O2I O 1.43028(16) 1.06408(16) 0.57342(6)
O2B O 1.03286(23) 1.26925(16) 0.75991(6)
O2K O 0.93592(16) 1.36619(23) 0.57342(6)
O2K_2 O 0.93592(16) 0.36619(23) 0.57342(6)
O2I_2 O 0.43028(16) 0.06408(16) 0.57342(6)
O3J O 0.71947(23) 0.82030(16) 0.60135(7)
O3A O 1.48697(16) 1.05280(23) 0.73198(7)
O3I O 1.17970(16) 0.89916(17) 0.60135(7)
O3B O 0.94720(23) 1.43417(17) 0.73198(7)
O3K O 1.10084(17) 1.28053(23) 0.60135(7)
O4A O 1.1820(2) 1.17125(28) 0.85185(8)
O4B O 0.82875(28) 1.01075(19) 0.85185(8)
O4J O 0.83792(28) 0.5153(2) 0.48148(8)
O4K O 0.67742(19) 0.16208(28) 0.48148(8)
O4I O 0.4847(2) 0.32258(19) 0.48148(8)
H2A H 1.248(3) 1.159(4) 0.8723(11)
H2B H 0.841(4) 1.089(2) 0.8723(11)
H2J H 0.826(4) 0.581(3) 0.4610(11)
H2K H 0.756(2) 0.174(4) 0.4610(11)
H2I H 0.419(3) 0.244(2) 0.4610(11)
H3A H 1.185(3) 1.259(4) 0.8648(12)
H3B H 0.741(4) 0.926(2) 0.8648(12)
H3J H 0.926(4) 0.518(3) 0.4685(12)
H3K H 0.593(2) 0.074(4) 0.4685(12)
H3I H 0.482(3) 0.407(2) 0.4685(12)
loop_
_geom_bond_atom_site_label_1
_geom_bond_atom_site_label_2
_geom_bond_site_symmetry_1
_geom_bond_site_symmetry_2
Pr1 O1 1_555 1_555
C1 C2 1_555 1_555
C2 O2 1_555 1_555
O1 C1 1_555 1_555
H1 O1 1_555 1_555
O2 Pr1 1_555 1_555
O3 C2 1_555 1_555
O4 Pr1 1_555 1_555
H2 O4 1_555 1_555
H3 O4 1_555 1_555
Pr1I O1J 1_555 1_555
Pr1I_2 O1I 1_555 1_555
Pr1I_3 O1K 1_555 1_555
C1A C2A 1_555 1_555
C1B C2B 1_555 1_555
C2J C1 1_555 1_555
C2A O2A 1_555 1_555
C2I C1A 1_555 1_555
C2B O2B 1_555 1_555
C2K C1B 1_555 1_555
O1J C1 1_555 1_555
O1A Pr1 1_555 1_555
O1I C1A 1_555 1_555
O1B Pr1 1_555 1_555
O1K C1B 1_555 1_555
O1K_2 Pr1I 1_555 1_555
O1I_2 Pr1I 1_555 1_555
H1J O1J 1_555 1_555
H1A O1A 1_555 1_555
H1I O1I 1_555 1_555
H1B O1B 1_555 1_555
H1K O1K 1_555 1_555
H1K_2 O1K_2 1_555 1_555
H1I_2 O1I_2 1_555 1_555
O2J Pr1I 1_555 1_555
O2A Pr1 1_555 1_555
O2I Pr1I_2 1_555 1_555
O2B Pr1 1_555 1_555
O2K Pr1I_3 1_555 1_555
O2K_2 Pr1I 1_555 1_555
O2I_2 Pr1I 1_555 1_555
O3J C2J 1_555 1_555
O3A C2A 1_555 1_555
O3I C2I 1_555 1_555
O3B C2B 1_555 1_555
O3K C2K 1_555 1_555
O4A Pr1 1_555 1_555
O4B Pr1 1_555 1_555
O4J Pr1I 1_555 1_555
O4K Pr1I 1_555 1_555
O4I Pr1I 1_555 1_555
H2A O4A 1_555 1_555
H2B O4B 1_555 1_555
H2J O4J 1_555 1_555
H2K O4K 1_555 1_555
H2I O4I 1_555 1_555
H3A O4A 1_555 1_555
H3B O4B 1_555 1_555
H3J O4J 1_555 1_555
H3K O4K 1_555 1_555
H3I O4I 1_555 1_555
C1A O1A 1_555 1_555
C1B O1B 1_555 1_555
C2J O2J 1_555 1_555
C2I O2I 1_555 1_555
C2K O2K 1_555 1_555

#END
