
#######################################################################
#
#                 Cambridge Crystallographic Data Centre
#                                CCDC 
#
#######################################################################
#
# If this CIF has been generated from an entry in the Cambridge 
# Structural Database, then it will include bibliographic, chemical, 
# crystal, experimental, refinement or atomic coordinate data resulting 
# from the CCDC's data processing and validation procedures.
#
#######################################################################

data_MAQXIN01
_symmetry_cell_setting           monoclinic
_symmetry_space_group_name_H-M   'C 2/c'
_symmetry_Int_Tables_number      15
_space_group_name_Hall           '-C 2yn'
loop_
_symmetry_equiv_pos_site_id
_symmetry_equiv_pos_as_xyz
1 x,y,z
2 -x,y,1/2-z
3 1/2+x,1/2+y,z
4 1/2-x,1/2+y,1/2-z
5 -x,-y,-z
6 x,-y,1/2+z
7 1/2-x,1/2-y,-z
8 1/2+x,1/2-y,1/2+z
_cell_length_a                   20.300(4)
_cell_length_b                   20.143(4)
_cell_length_c                   8.1470(16)
_cell_angle_alpha                90
_cell_angle_beta                 109.71(3)
_cell_angle_gamma                90
_cell_volume                     3136.15
loop_
_atom_site_label
_atom_site_type_symbol
_atom_site_fract_x
_atom_site_fract_y
_atom_site_fract_z
N1 N 0.1661(2) 0.1473(2) 1.1371(5)
O1 O 0.1647(2) 0.0178(2) 0.6532(5)
O2 O 0.0141(2) 0.1165(2) 0.5563(4)
O3 O 0.0946(2) 0.17766(18) 0.7419(5)
O4 O 0.2226(2) 0.0848(2) 0.8618(6)
C1 C 0.1610(2) 0.1358(2) 1.2930(6)
H1 H 0.1347 0.0996 1.3053
C2 C 0.0432(3) 0.1714(3) 0.6052(6)
C3 C 0.2199(3) 0.0444(3) 0.7411(6)
C4 C 0.2032(5) 0.1989(4) 1.1239(7)
H2 H 0.2071 0.2080 1.0156
C5 C 0.2368(5) 0.2408(4) 1.2610(7)
H3 H 0.2624 0.2769 1.2441
C6 C 0.2321(2) 0.2284(2) 1.4234(5)
C7 C 0.1927(2) 0.1745(2) 1.4371(5)
H4 H 0.1875 0.1643 1.5433
C8 C 0.0155(5) 0.2335(4) 0.5033(12)
H5 H 0.0029 0.2215 0.3812
H6 H -0.0279 0.2438 0.5229
C9 C 0.2862(4) 0.0298(5) 0.7060(11)
H7 H 0.2943 -0.0176 0.7201
H8 H 0.2779 0.0399 0.5842
C10 C 0.3497(6) 0.0622(8) 0.806(3)
H9 H 0.3578 0.0553 0.9287
H10 H 0.3449 0.1096 0.7832
C11 C 0.0516(12) 0.2915(6) 0.523(3)
H11 H 0.0201 0.3228 0.4445
H12 H 0.0889 0.2834 0.4761
C12 C 0.4118(7) 0.0368(12) 0.762(3)
H13 H 0.4534 0.0593 0.8333
H14 H 0.4048 0.0450 0.6415
H15 H 0.4169 -0.0100 0.7847
C13 C 0.0830(14) 0.3265(12) 0.681(4)
H16 H 0.1107 0.3623 0.6621
H17 H 0.1124 0.2969 0.7675
H18 H 0.0472 0.3440 0.7217
O5 O 0.0000 -0.0433(2) 0.7500
Pb1 Pb 0.106791(7) 0.069683(7) 0.876075(16)
N1F N 0.3339(2) 0.3527(2) 1.8629(5)
O1E O 0.1647(2) -0.0178(2) 1.1532(5)
O1F O 0.3353(2) 0.4822(2) 2.3468(5)
O1C O 0.3353(2) 0.5178(2) 1.8468(5)
O2A O -0.0141(2) 0.1165(2) 0.9437(4)
O2F O 0.4859(2) 0.3835(2) 2.4437(4)
O2G O 0.5141(2) 0.3835(2) 2.0563(4)
O3A O -0.0946(2) 0.17766(18) 0.7581(5)
O3F O 0.4054(2) 0.32234(18) 2.2581(5)
O4E O 0.2226(2) -0.0848(2) 1.3618(6)
O4F O 0.2774(2) 0.4152(2) 2.1382(6)
C1F C 0.3390(2) 0.3642(2) 1.7070(6)
H1F H 0.3653 0.4004 1.6947
C2A C -0.0432(3) 0.1714(3) 0.8948(6)
C3E C 0.2199(3) -0.0444(3) 1.2411(6)
C4F C 0.2968(5) 0.3011(4) 1.8761(7)
H2F H 0.2929 0.2920 1.9844
C5F C 0.2632(5) 0.2592(4) 1.7390(7)
H3F H 0.2376 0.2231 1.7559
C6F C 0.2679(2) 0.2716(2) 1.5766(5)
C7F C 0.3073(2) 0.3255(2) 1.5629(5)
H4F H 0.3125 0.3357 1.4567
C8A C -0.0155(5) 0.2335(4) 0.9967(12)
H5A H -0.0029 0.2215 1.1188
H6A H 0.0279 0.2438 0.9771
C9E C 0.2862(4) -0.0298(5) 1.2060(11)
H7E H 0.2943 0.0176 1.2201
H8E H 0.2779 -0.0399 1.0842
C10E C 0.3497(6) -0.0622(8) 1.306(3)
H9E H 0.3578 -0.0553 1.4287
H10E H 0.3449 -0.1096 1.2832
C11A C -0.0516(12) 0.2915(6) 0.977(3)
H11A H -0.0201 0.3228 1.0555
H12A H -0.0889 0.2834 1.0239
C12E C 0.4118(7) -0.0368(12) 1.262(3)
H13E H 0.4534 -0.0593 1.3333
H14E H 0.4048 -0.0450 1.1415
H15E H 0.4169 0.0100 1.2847
C13A C -0.0830(14) 0.3265(12) 0.819(4)
H16A H -0.1107 0.3623 0.8379
H17A H -0.1124 0.2969 0.7325
H18A H -0.0472 0.3440 0.7783
O5F O 0.5000 0.5433(2) 2.2500
Pb1F Pb 0.393209(7) 0.430317(7) 2.123925(16)
Pb1E Pb 0.106791(7) -0.069683(7) 0.376075(16)
Pb1A Pb -0.106791(7) 0.069683(7) 0.623925(16)
Pb1E_2 Pb 0.106791(7) -0.069683(7) 1.376075(16)
loop_
_geom_bond_atom_site_label_1
_geom_bond_atom_site_label_2
_geom_bond_site_symmetry_1
_geom_bond_site_symmetry_2
N1 C1 1_555 1_555
O1 C3 1_555 1_555
O2 C2 1_555 1_555
O3 C2 1_555 1_555
O4 C3 1_555 1_555
C1 H1 1_555 1_555
C2 C8 1_555 1_555
C3 C9 1_555 1_555
C4 N1 1_555 1_555
H2 C4 1_555 1_555
C5 C4 1_555 1_555
H3 C5 1_555 1_555
C6 C5 1_555 1_555
C7 C1 1_555 1_555
H4 C7 1_555 1_555
C8 H5 1_555 1_555
H6 C8 1_555 1_555
C9 H7 1_555 1_555
H8 C9 1_555 1_555
C10 C9 1_555 1_555
H9 C10 1_555 1_555
H10 C10 1_555 1_555
C11 C8 1_555 1_555
H11 C11 1_555 1_555
H12 C11 1_555 1_555
C12 C10 1_555 1_555
H13 C12 1_555 1_555
H14 C12 1_555 1_555
H15 C12 1_555 1_555
C13 C11 1_555 1_555
H16 C13 1_555 1_555
H17 C13 1_555 1_555
H18 C13 1_555 1_555
O5 Pb1 1_555 1_555
Pb1 N1 1_555 1_555
N1F C1F 1_555 1_555
O1E Pb1 1_555 1_555
O1F Pb1F 1_555 1_555
O1C Pb1F 1_555 1_555
O2A Pb1 1_555 1_555
O2F Pb1F 1_555 1_555
O2G Pb1F 1_555 1_555
O3A C2A 1_555 1_555
O3F Pb1F 1_555 1_555
O4E C3E 1_555 1_555
O4F Pb1F 1_555 1_555
C1F H1F 1_555 1_555
C2A O2A 1_555 1_555
C3E O1E 1_555 1_555
C4F N1F 1_555 1_555
H2F C4F 1_555 1_555
C5F C4F 1_555 1_555
H3F C5F 1_555 1_555
C6F C6 1_555 1_555
C7F C1F 1_555 1_555
H4F C7F 1_555 1_555
C8A C2A 1_555 1_555
H5A C8A 1_555 1_555
H6A C8A 1_555 1_555
C9E C3E 1_555 1_555
H7E C9E 1_555 1_555
H8E C9E 1_555 1_555
C10E C9E 1_555 1_555
H9E C10E 1_555 1_555
H10E C10E 1_555 1_555
C11A C8A 1_555 1_555
H11A C11A 1_555 1_555
H12A C11A 1_555 1_555
C12E C10E 1_555 1_555
H13E C12E 1_555 1_555
H14E C12E 1_555 1_555
H15E C12E 1_555 1_555
C13A C11A 1_555 1_555
H16A C13A 1_555 1_555
H17A C13A 1_555 1_555
H18A C13A 1_555 1_555
O5F Pb1F 1_555 1_555
Pb1F N1F 1_555 1_555
Pb1E O1 1_555 1_555
Pb1A O2 1_555 1_555
Pb1E_2 O1E 1_555 1_555
O1 Pb1 1_555 1_555
O2 Pb1 1_555 1_555
O3 Pb1 1_555 1_555
O4 Pb1 1_555 1_555
C6 C7 1_555 1_555
O5 Pb1A 1_555 1_555
O2A Pb1A 1_555 1_555
O3A Pb1A 1_555 1_555
O4E Pb1E_2 1_555 1_555
C5F C6F 1_555 1_555
C6F C7F 1_555 1_555

#END
