
#######################################################################
#
#                 Cambridge Crystallographic Data Centre
#                                CCDC 
#
#######################################################################
#
# If this CIF has been generated from an entry in the Cambridge 
# Structural Database, then it will include bibliographic, chemical, 
# crystal, experimental, refinement or atomic coordinate data resulting 
# from the CCDC's data processing and validation procedures.
#
#######################################################################

data_MAQZAH
_symmetry_cell_setting           triclinic
_symmetry_space_group_name_H-M   'P -1'
_symmetry_Int_Tables_number      2
_space_group_name_Hall           '-P 1'
loop_
_symmetry_equiv_pos_site_id
_symmetry_equiv_pos_as_xyz
1 x,y,z
2 -x,-y,-z
_cell_length_a                   10.2191(9)
_cell_length_b                   11.4377(11)
_cell_length_c                   12.0542(11)
_cell_angle_alpha                70.0130(10)
_cell_angle_beta                 65.1680(10)
_cell_angle_gamma                68.5920(10)
_cell_volume                     1160.43
loop_
_atom_site_label
_atom_site_type_symbol
_atom_site_fract_x
_atom_site_fract_y
_atom_site_fract_z
Cd1 Cd 0.564092(17) 0.189748(16) 0.075565(17)
O1 O 0.32518(18) 0.32755(18) 0.14329(19)
O2 O 0.32858(19) 0.17635(19) 0.0682(2)
O3 O -0.1690(2) 0.16852(19) 0.0700(2)
O4 O -0.36426(19) 0.32604(19) 0.1270(2)
O5 O 0.7120(2) 0.0092(2) -0.0069(3)
H1 H 0.7925 0.0267 -0.0511
H2 H 0.6932 -0.0367 -0.0363
N1 N 0.6084(2) 0.3025(2) -0.1293(2)
N2 N 0.6268(3) 0.4543(3) -0.2975(2)
N3 N 0.6216(4) 0.3542(3) -0.3295(3)
N4 N 0.5118(3) 0.0496(2) 0.2696(2)
N5 N 0.5199(4) -0.1305(3) 0.4198(3)
N6 N 0.3826(3) -0.0474(3) 0.4513(3)
C1 C 0.2604(3) 0.2753(2) 0.1126(2)
C2 C 0.0963(2) 0.3345(2) 0.1318(2)
C3 C 0.0138(2) 0.2753(2) 0.1119(2)
H5 H 0.0591 0.1973 0.0870
C4 C -0.1374(2) 0.3331(2) 0.1292(2)
C5 C -0.2033(3) 0.4498(2) 0.1658(2)
H6 H -0.3043 0.4880 0.1776
C6 C -0.1225(3) 0.5111(2) 0.1853(2)
C7 C 0.0273(3) 0.4519(2) 0.1681(2)
H7 H 0.0832 0.4914 0.1810
C8 C -0.2286(3) 0.2718(2) 0.1067(2)
C9 C -0.1943(3) 0.6406(3) 0.2197(3)
H8 H -0.1250 0.6644 0.2370
H9 H -0.2820 0.6359 0.2927
H10 H -0.2215 0.7040 0.1512
C10 C 0.6108(4) 0.2663(4) -0.2255(3)
H11 H 0.6052 0.1846 -0.2182
C11 C 0.6185(3) 0.4225(3) -0.1794(3)
H12 H 0.6197 0.4766 -0.1374
C12 C 0.6415(4) 0.5760(3) -0.3899(3)
H13 H 0.5674 0.6469 -0.3534
H14 H 0.6216 0.5764 -0.4620
C13 C 0.7952(4) 0.5964(3) -0.4329(3)
H15 H 0.8019 0.6720 -0.5013
H16 H 0.8051 0.6147 -0.3644
C14 C 0.9242(3) 0.4869(3) -0.4757(3)
H17 H 0.9122 0.4654 -0.5414
H18 H 0.9213 0.4124 -0.4061
C15 C 0.3813(4) 0.0587(3) 0.3617(3)
H19 H 0.2997 0.1303 0.3631
C16 C 0.5922(4) -0.0677(3) 0.3113(3)
H20 H 0.6915 -0.1013 0.2665
C17 C 0.2591(5) -0.0815(5) 0.5666(4)
H21 H 0.3013 -0.1420 0.6297
H22 H 0.1980 -0.0044 0.5982
C18 C 0.1638(6) -0.1377(5) 0.5504(4)
H23 H 0.0993 -0.1707 0.6329
H24 H 0.2268 -0.2107 0.5127
C19 C 0.0665(5) -0.0512(5) 0.4722(4)
H25 H 0.1292 -0.0087 0.3942
H26 H 0.0303 -0.1056 0.4514
Cd1_2 Cd 1.564092(17) 0.189748(16) 0.075565(17)
Cd1_3 Cd -0.435908(17) 0.189748(16) 0.075565(17)
Cd1A Cd 1.435908(17) 0.810252(16) -1.075565(17)
Cd1A_2 Cd -0.564092(17) -0.189748(16) 0.924435(17)
O1_2 O 1.32518(18) 0.32755(18) 0.14329(19)
O2_2 O 1.32858(19) 0.17635(19) 0.0682(2)
O3_2 O 0.8310(2) 0.16852(19) 0.0700(2)
O3_3 O 1.8310(2) 0.16852(19) 0.0700(2)
O4_2 O 0.63574(19) 0.32604(19) 0.1270(2)
O4_3 O 1.63574(19) 0.32604(19) 0.1270(2)
O5_2 O 1.7120(2) 0.0092(2) -0.0069(3)
H1_2 H 1.7925 0.0267 -0.0511
H2_2 H 1.6932 -0.0367 -0.0363
N1A N 1.3916(2) 0.6975(2) -0.8707(2)
N1_2 N 1.6084(2) 0.3025(2) -0.1293(2)
N2A N 1.3732(3) 0.5457(3) -0.7025(2)
N3A N 1.3784(4) 0.6458(3) -0.6705(3)
N4A N -0.5118(3) -0.0496(2) 0.7304(2)
N4_2 N 1.5118(3) 0.0496(2) 0.2696(2)
N5A N -0.5199(4) 0.1305(3) 0.5802(3)
N6A N -0.3826(3) 0.0474(3) 0.5487(3)
C1_2 C 1.2604(3) 0.2753(2) 0.1126(2)
C2_2 C 1.0963(2) 0.3345(2) 0.1318(2)
C3_2 C 1.0138(2) 0.2753(2) 0.1119(2)
H5_2 H 1.0591 0.1973 0.0870
C4_2 C 0.8626(2) 0.3331(2) 0.1292(2)
C5_2 C 0.7967(3) 0.4498(2) 0.1658(2)
H6_2 H 0.6957 0.4880 0.1776
C6_2 C 0.8775(3) 0.5111(2) 0.1853(2)
C7_2 C 1.0273(3) 0.4519(2) 0.1681(2)
H7_2 H 1.0832 0.4914 0.1810
C8_2 C 0.7714(3) 0.2718(2) 0.1067(2)
C9_2 C 0.8057(3) 0.6406(3) 0.2197(3)
H8_2 H 0.8750 0.6644 0.2370
H9_2 H 0.7180 0.6359 0.2927
H10_2 H 0.7785 0.7040 0.1512
C10A C 1.3892(4) 0.7337(4) -0.7745(3)
H11A H 1.3948 0.8154 -0.7818
C11A C 1.3815(3) 0.5775(3) -0.8206(3)
H12A H 1.3803 0.5234 -0.8626
C12A C 1.3585(4) 0.4240(3) -0.6101(3)
H13A H 1.4326 0.3531 -0.6466
H14A H 1.3784 0.4236 -0.5380
C13A C 1.2048(4) 0.4036(3) -0.5671(3)
H15A H 1.1981 0.3280 -0.4987
H16A H 1.1949 0.3853 -0.6356
C14A C 1.0758(3) 0.5131(3) -0.5243(3)
H17A H 1.0878 0.5346 -0.4586
H18A H 1.0787 0.5876 -0.5939
C15A C -0.3813(4) -0.0587(3) 0.6383(3)
H19A H -0.2997 -0.1303 0.6369
C16A C -0.5922(4) 0.0677(3) 0.6887(3)
H20A H -0.6915 0.1013 0.7335
C17A C -0.2591(5) 0.0815(5) 0.4334(4)
H21A H -0.3013 0.1420 0.3703
H22A H -0.1980 0.0044 0.4018
C18A C -0.1638(6) 0.1377(5) 0.4496(4)
H23A H -0.0993 0.1707 0.3671
H24A H -0.2268 0.2107 0.4873
C19A C -0.0665(5) 0.0512(5) 0.5278(4)
H25A H -0.1292 0.0087 0.6058
H26A H -0.0303 0.1056 0.5486
O6 O 1.0064(3) 0.9291(3) 0.1580(3)
H3 H 0.9480 0.9984 0.1346
H4 H 1.0057 0.8723 0.1282
loop_
_geom_bond_atom_site_label_1
_geom_bond_atom_site_label_2
_geom_bond_site_symmetry_1
_geom_bond_site_symmetry_2
Cd1 O1 1_555 1_555
O1 C1 1_555 1_555
O2 Cd1 1_555 1_555
O3 C8 1_555 1_555
O4 C8 1_555 1_555
O5 Cd1 1_555 1_555
H1 O5 1_555 1_555
H2 O5 1_555 1_555
O6 H3 1_555 1_555
H4 O6 1_555 1_555
N1 Cd1 1_555 1_555
N2 N3 1_555 1_555
N3 C10 1_555 1_555
N4 Cd1 1_555 1_555
N5 N6 1_555 1_555
N6 C15 1_555 1_555
C1 O2 1_555 1_555
C2 C1 1_555 1_555
C3 C2 1_555 1_555
H5 C3 1_555 1_555
C4 C3 1_555 1_555
C5 C4 1_555 1_555
H6 C5 1_555 1_555
C6 C5 1_555 1_555
C7 C2 1_555 1_555
H7 C7 1_555 1_555
C8 C4 1_555 1_555
C9 C6 1_555 1_555
H8 C9 1_555 1_555
H9 C9 1_555 1_555
H10 C9 1_555 1_555
C10 N1 1_555 1_555
H11 C10 1_555 1_555
C11 N1 1_555 1_555
H12 C11 1_555 1_555
C12 N2 1_555 1_555
H13 C12 1_555 1_555
H14 C12 1_555 1_555
C13 C12 1_555 1_555
H15 C13 1_555 1_555
H16 C13 1_555 1_555
C14 C13 1_555 1_555
H17 C14 1_555 1_555
H18 C14 1_555 1_555
C15 N4 1_555 1_555
H19 C15 1_555 1_555
C16 N4 1_555 1_555
H20 C16 1_555 1_555
C17 N6 1_555 1_555
H21 C17 1_555 1_555
H22 C17 1_555 1_555
C18 C17 1_555 1_555
H23 C18 1_555 1_555
H24 C18 1_555 1_555
C19 C18 1_555 1_555
H25 C19 1_555 1_555
H26 C19 1_555 1_555
Cd1_2 O1_2 1_555 1_555
Cd1_3 O3 1_555 1_555
Cd1A N1A 1_555 1_555
Cd1A_2 N4A 1_555 1_555
O1_2 C1_2 1_555 1_555
O2_2 Cd1_2 1_555 1_555
O3_2 Cd1 1_555 1_555
O3_3 Cd1_2 1_555 1_555
O4_2 Cd1 1_555 1_555
O4_3 Cd1_2 1_555 1_555
O5_2 Cd1_2 1_555 1_555
H1_2 O5_2 1_555 1_555
H2_2 O5_2 1_555 1_555
N1A C10A 1_555 1_555
N1_2 Cd1_2 1_555 1_555
N2A N3A 1_555 1_555
N3A C10A 1_555 1_555
N4A C15A 1_555 1_555
N4_2 Cd1_2 1_555 1_555
N5A N6A 1_555 1_555
N6A C15A 1_555 1_555
C1_2 O2_2 1_555 1_555
C2_2 C1_2 1_555 1_555
C3_2 C2_2 1_555 1_555
H5_2 C3_2 1_555 1_555
C4_2 C3_2 1_555 1_555
C5_2 C4_2 1_555 1_555
H6_2 C5_2 1_555 1_555
C6_2 C5_2 1_555 1_555
C7_2 C2_2 1_555 1_555
H7_2 C7_2 1_555 1_555
C8_2 O3_2 1_555 1_555
C9_2 C6_2 1_555 1_555
H8_2 C9_2 1_555 1_555
H9_2 C9_2 1_555 1_555
H10_2 C9_2 1_555 1_555
C10A H11A 1_555 1_555
C11A N1A 1_555 1_555
H12A C11A 1_555 1_555
C12A N2A 1_555 1_555
H13A C12A 1_555 1_555
H14A C12A 1_555 1_555
C13A C12A 1_555 1_555
H15A C13A 1_555 1_555
H16A C13A 1_555 1_555
C14A C14 1_555 1_555
H17A C14A 1_555 1_555
H18A C14A 1_555 1_555
C15A H19A 1_555 1_555
C16A N4A 1_555 1_555
H20A C16A 1_555 1_555
C17A N6A 1_555 1_555
H21A C17A 1_555 1_555
H22A C17A 1_555 1_555
C18A C17A 1_555 1_555
H23A C18A 1_555 1_555
H24A C18A 1_555 1_555
C19A C19 1_555 1_555
H25A C19A 1_555 1_555
H26A C19A 1_555 1_555
O4 Cd1_3 1_555 1_555
N2 C11 1_555 1_555
N5 C16 1_555 1_555
C6 C7 1_555 1_555
O4_2 C8_2 1_555 1_555
N2A C11A 1_555 1_555
N5A C16A 1_555 1_555
C4_2 C8_2 1_555 1_555
C6_2 C7_2 1_555 1_555
C13A C14A 1_555 1_555
C18A C19A 1_555 1_555

#END
