
#######################################################################
#
#                 Cambridge Crystallographic Data Centre
#                                CCDC 
#
#######################################################################
#
# If this CIF has been generated from an entry in the Cambridge 
# Structural Database, then it will include bibliographic, chemical, 
# crystal, experimental, refinement or atomic coordinate data resulting 
# from the CCDC's data processing and validation procedures.
#
#######################################################################

data_MARCAL
_symmetry_cell_setting           monoclinic
_symmetry_space_group_name_H-M   'P 21/c'
_symmetry_Int_Tables_number      14
_space_group_name_Hall           '-P 2ybc'
loop_
_symmetry_equiv_pos_site_id
_symmetry_equiv_pos_as_xyz
1 x,y,z
2 -x,1/2+y,1/2-z
3 -x,-y,-z
4 x,1/2-y,1/2+z
_cell_length_a                   7.8814(4)
_cell_length_b                   16.4329(13)
_cell_length_c                   18.0521(13)
_cell_angle_alpha                90
_cell_angle_beta                 90.406(4)
_cell_angle_gamma                90
_cell_volume                     2337.95
loop_
_atom_site_label
_atom_site_type_symbol
_atom_site_fract_x
_atom_site_fract_y
_atom_site_fract_z
Cu1 Cu 0.20487(5) 0.23417(3) 0.26332(2)
N1 N 0.2003(4) 0.0826(2) 0.14011(17)
N2 N 0.1451(4) 0.1155(2) 0.27153(17)
H1 H 0.2413 0.0891 0.2861
N3 N 0.0817(4) 0.2459(2) 0.36006(19)
H2 H -0.026 0.2619 0.3488
N4 N 0.2431(4) 0.3542(2) 0.25113(18)
H3 H 0.1434 0.3749 0.2337
N5 N 0.3098(4) 0.2222(2) 0.16213(17)
H4 H 0.4177 0.2038 0.1691
C1 C 0.5769(5) 0.0540(3) 0.0474(2)
H5 H 0.6308 0.0906 0.079
C2 C 0.3541(5) -0.0383(3) 0.0218(2)
H6 H 0.2553 -0.0648 0.0359
C3 C 0.4303(5) 0.0163(2) 0.0699(2)
C4 C 0.3547(5) 0.0327(3) 0.1452(2)
H7 H 0.3277 -0.0187 0.1688
H8 H 0.4379 0.0604 0.176
C5 C 0.0864(4) 0.0757(3) 0.2012(2)
H9 H 0.0671 0.0184 0.211
H10 H -0.0216 0.0995 0.1868
C6 C 0.0214(5) 0.1052(3) 0.3314(2)
H11 H 0.0234 0.0496 0.3494
H12 H -0.0921 0.1171 0.3134
C7 C 0.0691(5) 0.1631(3) 0.3931(2)
H13 H -0.0166 0.1623 0.4314
H14 H 0.1769 0.1474 0.4151
C8 C 0.1509(5) 0.3066(3) 0.4128(2)
H15 H 0.2646 0.2906 0.4278
H16 H 0.0809 0.3079 0.4568
C9 C 0.1563(6) 0.3906(3) 0.3785(3)
H17 H 0.1803 0.4298 0.4173
H18 H 0.0447 0.403 0.3585
C10 C 0.2857(5) 0.4019(3) 0.3173(3)
H19 H 0.2914 0.4591 0.3042
H20 H 0.3967 0.3856 0.3355
C11 C 0.3681(5) 0.3650(3) 0.1905(2)
H21 H 0.4821 0.3545 0.2088
H22 H 0.3636 0.4203 0.1718
C12 C 0.3218(5) 0.3049(3) 0.1292(2)
H23 H 0.2141 0.3199 0.1068
H24 H 0.408 0.3056 0.0911
C13 C 0.2226(5) 0.1637(3) 0.1111(2)
H25 H 0.1119 0.1855 0.0983
H26 H 0.2874 0.1601 0.0657
C14 C 0.5151(5) 0.1475(3) 0.3671(2)
C15 C 0.8775(5) 0.1565(3) 0.6507(2)
C16 C 0.6076(4) 0.1511(3) 0.4411(2)
C17 C 0.6518(5) 0.0795(3) 0.4769(2)
H27 H 0.6238 0.0298 0.4554
C18 C 0.7371(5) 0.0812(3) 0.5443(2)
H28 H 0.7633 0.0326 0.5683
C19 C 0.7835(4) 0.1543(3) 0.5761(2)
C20 C 0.7405(5) 0.2261(2) 0.5406(2)
H29 H 0.7702 0.2757 0.5618
C21 C 0.6529(5) 0.2246(2) 0.4734(2)
H30 H 0.6245 0.2732 0.45
O1 O 0.4825(4) 0.2146(2) 0.33469(16)
O2 O 0.4734(5) 0.0795(2) 0.3427(2)
O3 O 0.9065(4) 0.2240(2) 0.67972(17)
O4 O 0.9257(5) 0.0918(2) 0.6768(2)
Cu1B Cu 0.79513(5) -0.23417(3) -0.26332(2)
Cu1C Cu 1.20487(5) 0.26583(3) 0.76332(2)
Cu1C_2 Cu -0.79513(5) 0.26583(3) -0.23668(2)
N1B N 0.7997(4) -0.0826(2) -0.14011(17)
N2B N 0.8549(4) -0.1155(2) -0.27153(17)
H1B H 0.7587 -0.0891 -0.2861
N3B N 0.9183(4) -0.2459(2) -0.36006(19)
H2B H 1.026 -0.2619 -0.3488
N4B N 0.7569(4) -0.3542(2) -0.25113(18)
H3B H 0.8566 -0.3749 -0.2337
N5B N 0.6902(4) -0.2222(2) -0.16213(17)
H4B H 0.5823 -0.2038 -0.1691
C1B C 0.4231(5) -0.0540(3) -0.0474(2)
H5B H 0.3692 -0.0906 -0.079
C2B C 0.6459(5) 0.0383(3) -0.0218(2)
H6B H 0.7447 0.0648 -0.0359
C3B C 0.5697(5) -0.0163(2) -0.0699(2)
C4B C 0.6453(5) -0.0327(3) -0.1452(2)
H7B H 0.6723 0.0187 -0.1688
H8B H 0.5621 -0.0604 -0.176
C5B C 0.9136(4) -0.0757(3) -0.2012(2)
H9B H 0.9329 -0.0184 -0.211
H10B H 1.0216 -0.0995 -0.1868
C6B C 0.9786(5) -0.1052(3) -0.3314(2)
H11B H 0.9766 -0.0496 -0.3494
H12B H 1.0921 -0.1171 -0.3134
C7B C 0.9309(5) -0.1631(3) -0.3931(2)
H13B H 1.0166 -0.1623 -0.4314
H14B H 0.8231 -0.1474 -0.4151
C8B C 0.8491(5) -0.3066(3) -0.4128(2)
H15B H 0.7354 -0.2906 -0.4278
H16B H 0.9191 -0.3079 -0.4568
C9B C 0.8437(6) -0.3906(3) -0.3785(3)
H17B H 0.8197 -0.4298 -0.4173
H18B H 0.9553 -0.403 -0.3585
C10B C 0.7143(5) -0.4019(3) -0.3173(3)
H19B H 0.7086 -0.4591 -0.3042
H20B H 0.6033 -0.3856 -0.3355
C11B C 0.6319(5) -0.3650(3) -0.1905(2)
H21B H 0.5179 -0.3545 -0.2088
H22B H 0.6364 -0.4203 -0.1718
C12B C 0.6782(5) -0.3049(3) -0.1292(2)
H23B H 0.7859 -0.3199 -0.1068
H24B H 0.592 -0.3056 -0.0911
C13B C 0.7774(5) -0.1637(3) -0.1111(2)
H25B H 0.8881 -0.1855 -0.0983
H26B H 0.7126 -0.1601 -0.0657
C14C C -0.4849(5) 0.3525(3) -0.1329(2)
C15C C -0.1225(5) 0.3435(3) 0.1507(2)
C16C C -0.3924(4) 0.3489(3) -0.0589(2)
C17C C -0.3482(5) 0.4205(3) -0.0231(2)
H27C H -0.3762 0.4702 -0.0446
C18C C -0.2629(5) 0.4188(3) 0.0443(2)
H28C H -0.2367 0.4674 0.0683
C19C C -0.2165(4) 0.3457(3) 0.0761(2)
C20C C -0.2595(5) 0.2739(2) 0.0406(2)
H29C H -0.2298 0.2243 0.0618
C21C C -0.3471(5) 0.2754(2) -0.0266(2)
H30C H -0.3755 0.2268 -0.05
O1C O -0.5175(4) 0.2854(2) -0.16531(16)
O1B O 0.5175(4) -0.2146(2) -0.33469(16)
O2C O -0.5266(5) 0.4205(2) -0.1573(2)
O3C O -0.0935(4) 0.2760(2) 0.17972(17)
O3A O 1.0935(4) -0.2760(2) -0.17972(17)
O4C O -0.0743(5) 0.4082(2) 0.1768(2)
O5 O 0.7535(4) 0.3253(2) 0.32306(17)
O6 O 0.6598(4) 0.1642(2) 0.19832(17)
loop_
_geom_bond_atom_site_label_1
_geom_bond_atom_site_label_2
_geom_bond_site_symmetry_1
_geom_bond_site_symmetry_2
Cu1 N2 1_555 1_555
N1 C4 1_555 1_555
N2 H1 1_555 1_555
N3 Cu1 1_555 1_555
H2 N3 1_555 1_555
N4 Cu1 1_555 1_555
H3 N4 1_555 1_555
N5 Cu1 1_555 1_555
H4 N5 1_555 1_555
C1 H5 1_555 1_555
C2 H6 1_555 1_555
C3 C1 1_555 1_555
C4 C3 1_555 1_555
H7 C4 1_555 1_555
H8 C4 1_555 1_555
C5 N1 1_555 1_555
H9 C5 1_555 1_555
H10 C5 1_555 1_555
C6 N2 1_555 1_555
H11 C6 1_555 1_555
H12 C6 1_555 1_555
C7 N3 1_555 1_555
H13 C7 1_555 1_555
H14 C7 1_555 1_555
C8 N3 1_555 1_555
H15 C8 1_555 1_555
H16 C8 1_555 1_555
C9 C8 1_555 1_555
H17 C9 1_555 1_555
H18 C9 1_555 1_555
C10 N4 1_555 1_555
H19 C10 1_555 1_555
H20 C10 1_555 1_555
C11 N4 1_555 1_555
H21 C11 1_555 1_555
H22 C11 1_555 1_555
C12 N5 1_555 1_555
H23 C12 1_555 1_555
H24 C12 1_555 1_555
C13 N1 1_555 1_555
H25 C13 1_555 1_555
H26 C13 1_555 1_555
C14 C16 1_555 1_555
C15 C19 1_555 1_555
C16 C17 1_555 1_555
C17 H27 1_555 1_555
C18 C17 1_555 1_555
H28 C18 1_555 1_555
C19 C18 1_555 1_555
C20 C19 1_555 1_555
H29 C20 1_555 1_555
C21 C16 1_555 1_555
H30 C21 1_555 1_555
O1 Cu1 1_555 1_555
O2 C14 1_555 1_555
O3 C15 1_555 1_555
O4 C15 1_555 1_555
Cu1B N2B 1_555 1_555
Cu1C O3 1_555 1_555
Cu1C_2 O1C 1_555 1_555
N1B C4B 1_555 1_555
N2B H1B 1_555 1_555
N3B Cu1B 1_555 1_555
H2B N3B 1_555 1_555
N4B Cu1B 1_555 1_555
H3B N4B 1_555 1_555
N5B Cu1B 1_555 1_555
H4B N5B 1_555 1_555
C1B C2 1_555 1_555
H5B C1B 1_555 1_555
C2B C1 1_555 1_555
H6B C2B 1_555 1_555
C3B C1B 1_555 1_555
C4B C3B 1_555 1_555
H7B C4B 1_555 1_555
H8B C4B 1_555 1_555
C5B N1B 1_555 1_555
H9B C5B 1_555 1_555
H10B C5B 1_555 1_555
C6B N2B 1_555 1_555
H11B C6B 1_555 1_555
H12B C6B 1_555 1_555
C7B N3B 1_555 1_555
H13B C7B 1_555 1_555
H14B C7B 1_555 1_555
C8B N3B 1_555 1_555
H15B C8B 1_555 1_555
H16B C8B 1_555 1_555
C9B C8B 1_555 1_555
H17B C9B 1_555 1_555
H18B C9B 1_555 1_555
C10B N4B 1_555 1_555
H19B C10B 1_555 1_555
H20B C10B 1_555 1_555
C11B N4B 1_555 1_555
H21B C11B 1_555 1_555
H22B C11B 1_555 1_555
C12B N5B 1_555 1_555
H23B C12B 1_555 1_555
H24B C12B 1_555 1_555
C13B N1B 1_555 1_555
H25B C13B 1_555 1_555
H26B C13B 1_555 1_555
C14C C16C 1_555 1_555
C15C C19C 1_555 1_555
C16C C17C 1_555 1_555
C17C H27C 1_555 1_555
C18C C17C 1_555 1_555
H28C C18C 1_555 1_555
C19C C18C 1_555 1_555
C20C C19C 1_555 1_555
H29C C20C 1_555 1_555
C21C C16C 1_555 1_555
H30C C21C 1_555 1_555
O1C C14C 1_555 1_555
O1B Cu1B 1_555 1_555
O2C C14C 1_555 1_555
O3C Cu1 1_555 1_555
O3A Cu1B 1_555 1_555
O4C C15C 1_555 1_555
N2 C5 1_555 1_555
N5 C13 1_555 1_555
C2 C3 1_555 1_555
C6 C7 1_555 1_555
C9 C10 1_555 1_555
C11 C12 1_555 1_555
C14 O1 1_555 1_555
C20 C21 1_555 1_555
N2B C5B 1_555 1_555
N5B C13B 1_555 1_555
C2B C3B 1_555 1_555
C6B C7B 1_555 1_555
C9B C10B 1_555 1_555
C11B C12B 1_555 1_555
C15C O3C 1_555 1_555
C20C C21C 1_555 1_555

#END
