
#######################################################################
#
#                 Cambridge Crystallographic Data Centre
#                                CCDC 
#
#######################################################################
#
# If this CIF has been generated from an entry in the Cambridge 
# Structural Database, then it will include bibliographic, chemical, 
# crystal, experimental, refinement or atomic coordinate data resulting 
# from the CCDC's data processing and validation procedures.
#
#######################################################################

data_MARCEP
_symmetry_cell_setting           monoclinic
_symmetry_space_group_name_H-M   'P 21/c'
_symmetry_Int_Tables_number      14
_space_group_name_Hall           '-P 2ybc'
loop_
_symmetry_equiv_pos_site_id
_symmetry_equiv_pos_as_xyz
1 x,y,z
2 -x,1/2+y,1/2-z
3 -x,-y,-z
4 x,1/2-y,1/2+z
_cell_length_a                   11.0014(4)
_cell_length_b                   16.1868(6)
_cell_length_c                   17.8272(7)
_cell_angle_alpha                90
_cell_angle_beta                 106.526(2)
_cell_angle_gamma                90
_cell_volume                     3043.48
loop_
_atom_site_label
_atom_site_type_symbol
_atom_site_fract_x
_atom_site_fract_y
_atom_site_fract_z
Cu1 Cu 0.24459(7) -0.28192(6) -0.26346(5)
N1 N 0.2924(6) -0.4284(4) -0.3827(3)
N2 N 0.3333(5) -0.2806(4) -0.3483(3)
H1 H 0.4169 -0.2906 -0.3249
N3 N 0.2481(5) -0.1565(4) -0.2689(3)
H2 H 0.1703 -0.1408 -0.2994
N4 N 0.1501(5) -0.2833(4) -0.1821(3)
H3 H 0.067 -0.2761 -0.2086
N5 N 0.2361(4) -0.4064(4) -0.2608(3)
H4 H 0.3132 -0.4251 -0.2319
C1 C 0.3861(7) -0.5307(5) -0.4954(5)
H5 H 0.3091 -0.5522 -0.4926
C2 C 0.5749(7) -0.4550(5) -0.4394(5)
H6 H 0.6267 -0.4248 -0.3982
C3 C 0.4600(7) -0.4845(5) -0.4335(4)
C4 C 0.4187(7) -0.4693(5) -0.3617(4)
H7 H 0.4141 -0.5214 -0.3357
H8 H 0.4804 -0.4345 -0.3258
C5 C 0.2882(7) -0.3443(5) -0.4101(4)
H9 H 0.2015 -0.3313 -0.4391
H10 H 0.3393 -0.3405 -0.4463
C6 C 0.3232(8) -0.1950(5) -0.3795(5)
H11 H 0.2412 -0.1871 -0.4175
H12 H 0.3885 -0.1855 -0.4053
C7 C 0.3385(7) -0.1353(5) -0.3129(5)
H13 H 0.4245 -0.138 -0.2786
H14 H 0.3229 -0.0794 -0.333
C8 C 0.2685(9) -0.1123(5) -0.1937(5)
H15 H 0.2657 -0.0533 -0.2034
H16 H 0.3522 -0.1256 -0.1601
C9 C 0.1716(8) -0.1338(6) -0.1520(5)
H17 H 0.1811 -0.0958 -0.1086
H18 H 0.0878 -0.1255 -0.1877
C10 C 0.1797(8) -0.2202(6) -0.1211(4)
H19 H 0.2648 -0.2297 -0.0874
H20 H 0.1216 -0.2259 -0.0895
C11 C 0.1610(6) -0.3693(5) -0.1512(4)
H21 H 0.2437 -0.3776 -0.1141
H22 H 0.0968 -0.3793 -0.1246
C12 C 0.1435(6) -0.4271(5) -0.2181(4)
H23 H 0.1562 -0.4835 -0.1992
H24 H 0.058 -0.4223 -0.2527
C13 C 0.2050(7) -0.4488(6) -0.3391(4)
H25 H 0.2059 -0.5081 -0.3312
H26 H 0.1201 -0.4332 -0.3693
C14 C -0.0679(7) -0.2725(5) -0.3659(4)
C15 C -0.4516(6) -0.2302(4) -0.6660(4)
C16 C -0.1700(6) -0.2697(4) -0.4439(4)
C17 C -0.1404(7) -0.2801(5) -0.5111(4)
H27 H -0.0578 -0.2946 -0.5094
C18 C -0.2309(7) -0.2697(5) -0.5842(4)
H28 H -0.2079 -0.2759 -0.6302
C19 C -0.3546(6) -0.2501(5) -0.5869(4)
C20 C -0.3863(7) -0.2436(5) -0.5192(4)
H29 H -0.4699 -0.232 -0.5209
C21 C -0.2969(6) -0.2537(5) -0.4474(4)
H30 H -0.3209 -0.2498 -0.4016
O1 O 0.0415(5) -0.2817(4) -0.3681(3)
O2 O -0.1005(4) -0.2618(4) -0.3037(3)
O3 O -0.5626(5) -0.2170(4) -0.6626(3)
O4 O -0.4145(5) -0.2289(4) -0.7266(3)
Cu1B Cu 0.75541(7) -0.71808(6) -0.73654(5)
Cu1C Cu -0.75541(7) -0.21808(6) -0.76346(5)
Cu1C_2 Cu 1.24459(7) -0.21808(6) 0.23654(5)
N1B N 0.7076(6) -0.5716(4) -0.6173(3)
N2B N 0.6667(5) -0.7194(4) -0.6517(3)
H1B H 0.5831 -0.7094 -0.6751
N3B N 0.7519(5) -0.8435(4) -0.7311(3)
H2B H 0.8297 -0.8592 -0.7006
N4B N 0.8499(5) -0.7167(4) -0.8179(3)
H3B H 0.933 -0.7239 -0.7914
N5B N 0.7639(4) -0.5936(4) -0.7392(3)
H4B H 0.6868 -0.5749 -0.7681
C1B C 0.6139(7) -0.4693(5) -0.5046(5)
H5B H 0.6909 -0.4478 -0.5074
C2B C 0.4251(7) -0.5450(5) -0.5606(5)
H6B H 0.3733 -0.5752 -0.6018
C3B C 0.5400(7) -0.5155(5) -0.5665(4)
C4B C 0.5813(7) -0.5307(5) -0.6383(4)
H7B H 0.5859 -0.4786 -0.6643
H8B H 0.5196 -0.5655 -0.6742
C5B C 0.7118(7) -0.6557(5) -0.5899(4)
H9B H 0.7985 -0.6687 -0.5609
H10B H 0.6607 -0.6595 -0.5537
C6B C 0.6768(8) -0.8050(5) -0.6205(5)
H11B H 0.7588 -0.8129 -0.5825
H12B H 0.6115 -0.8145 -0.5947
C7B C 0.6615(7) -0.8647(5) -0.6871(5)
H13B H 0.5755 -0.862 -0.7214
H14B H 0.6771 -0.9206 -0.667
C8B C 0.7315(9) -0.8877(5) -0.8063(5)
H15B H 0.7343 -0.9467 -0.7966
H16B H 0.6478 -0.8744 -0.8399
C9B C 0.8284(8) -0.8662(6) -0.8480(5)
H17B H 0.8189 -0.9042 -0.8914
H18B H 0.9122 -0.8745 -0.8123
C10B C 0.8203(8) -0.7798(6) -0.8789(4)
H19B H 0.7352 -0.7703 -0.9126
H20B H 0.8784 -0.7741 -0.9105
C11B C 0.8390(6) -0.6307(5) -0.8488(4)
H21B H 0.7563 -0.6224 -0.8859
H22B H 0.9032 -0.6207 -0.8754
C12B C 0.8565(6) -0.5729(5) -0.7819(4)
H23B H 0.8438 -0.5165 -0.8008
H24B H 0.942 -0.5777 -0.7473
C13B C 0.7950(7) -0.5512(6) -0.6609(4)
H25B H 0.7941 -0.4919 -0.6688
H26B H 0.8799 -0.5668 -0.6307
C14C C 0.9321(7) -0.2275(5) 0.1341(4)
C15C C 0.5484(6) -0.2698(4) -0.1660(4)
C16C C 0.8300(6) -0.2303(4) 0.0561(4)
C17C C 0.8596(7) -0.2199(5) -0.0111(4)
H27C H 0.9422 -0.2054 -0.0094
C18C C 0.7691(7) -0.2303(5) -0.0842(4)
H28C H 0.7921 -0.2241 -0.1302
C19C C 0.6454(6) -0.2499(5) -0.0869(4)
C20C C 0.6137(7) -0.2564(5) -0.0192(4)
H29C H 0.5301 -0.268 -0.0209
C21C C 0.7031(6) -0.2463(5) 0.0526(4)
H30C H 0.6791 -0.2502 0.0984
O1C O 1.0415(5) -0.2183(4) 0.1319(3)
O1B O 0.9585(5) -0.7183(4) -0.6319(3)
O2C O 0.8995(4) -0.2382(4) 0.1963(3)
O3C O 0.4374(5) -0.2830(4) -0.1626(3)
O3A O 0.5626(5) -0.7170(4) -0.8374(3)
O4C O 0.5855(5) -0.2711(4) -0.2266(3)
C22 C 0.4241(7) 0.0248(5) -0.4556(5)
H31 H 0.3722 0.0421 -0.4256
C23 C 0.5370(7) -0.0128(5) -0.4209(4)
C24 C 0.3874(7) 0.0372(5) -0.5349(5)
H32 H 0.31 0.0624 -0.5587
O5 O 0.5702(5) -0.0246(4) -0.3397(3)
H35 H 0.6254 -0.0602 -0.3271
C22B C 0.5759(7) -0.0248(5) -0.5444(5)
H31B H 0.6278 -0.0421 -0.5744
C23B C 0.4630(7) 0.0128(5) -0.5791(4)
C24B C 0.6126(7) -0.0372(5) -0.4651(5)
H32B H 0.69 -0.0624 -0.4413
O5B O 0.4298(5) 0.0246(4) -0.6603(3)
H35B H 0.3746 0.0602 -0.6729
C25 C -0.0758(8) -0.4375(6) -0.0397(6)
H33 H -0.1267 -0.3946 -0.0659
C26 C -0.0489(7) -0.5026(5) -0.0814(5)
C27 C -0.0275(8) -0.4347(5) 0.0419(5)
H34 H -0.0471 -0.3903 0.0695
O6 O -0.0904(6) -0.5088(4) -0.1620(3)
H36 H -0.1337 -0.4683 -0.18
C25B C 0.0758(8) -0.5625(6) 0.0397(6)
H33B H 0.1267 -0.6054 0.0659
C26B C 0.0489(7) -0.4974(5) 0.0814(5)
C27B C 0.0275(8) -0.5653(5) -0.0419(5)
H34B H 0.0471 -0.6097 -0.0695
O6B O 0.0904(6) -0.4912(4) 0.1620(3)
H36B H 0.1337 -0.5317 0.18
O7 O 0.2750(5) -0.6501(4) -0.2268(3)
O8 O 0.7761(5) -0.3795(4) -0.2392(3)
loop_
_geom_bond_atom_site_label_1
_geom_bond_atom_site_label_2
_geom_bond_site_symmetry_1
_geom_bond_site_symmetry_2
Cu1 N2 1_555 1_555
N1 C4 1_555 1_555
N2 H1 1_555 1_555
N3 Cu1 1_555 1_555
H2 N3 1_555 1_555
N4 Cu1 1_555 1_555
H3 N4 1_555 1_555
N5 Cu1 1_555 1_555
H4 N5 1_555 1_555
C1 H5 1_555 1_555
C2 H6 1_555 1_555
C3 C1 1_555 1_555
C4 C3 1_555 1_555
H7 C4 1_555 1_555
H8 C4 1_555 1_555
C5 N1 1_555 1_555
H9 C5 1_555 1_555
H10 C5 1_555 1_555
C6 N2 1_555 1_555
H11 C6 1_555 1_555
H12 C6 1_555 1_555
C7 N3 1_555 1_555
H13 C7 1_555 1_555
H14 C7 1_555 1_555
C8 N3 1_555 1_555
H15 C8 1_555 1_555
H16 C8 1_555 1_555
C9 C8 1_555 1_555
H17 C9 1_555 1_555
H18 C9 1_555 1_555
C10 N4 1_555 1_555
H19 C10 1_555 1_555
H20 C10 1_555 1_555
C11 N4 1_555 1_555
H21 C11 1_555 1_555
H22 C11 1_555 1_555
C12 N5 1_555 1_555
H23 C12 1_555 1_555
H24 C12 1_555 1_555
C13 N1 1_555 1_555
H25 C13 1_555 1_555
H26 C13 1_555 1_555
C14 C16 1_555 1_555
C15 C19 1_555 1_555
C16 C17 1_555 1_555
C17 H27 1_555 1_555
C18 C17 1_555 1_555
H28 C18 1_555 1_555
C19 C18 1_555 1_555
C20 C19 1_555 1_555
H29 C20 1_555 1_555
C21 C16 1_555 1_555
H30 C21 1_555 1_555
C22 H31 1_555 1_555
C23 C22 1_555 1_555
C24 C22 1_555 1_555
H32 C24 1_555 1_555
C25 H33 1_555 1_555
C26 C25 1_555 1_555
C27 C25 1_555 1_555
H34 C27 1_555 1_555
O1 Cu1 1_555 1_555
O2 C14 1_555 1_555
O3 C15 1_555 1_555
O4 C15 1_555 1_555
O5 C23 1_555 1_555
H35 O5 1_555 1_555
O6 C26 1_555 1_555
H36 O6 1_555 1_555
Cu1B N2B 1_555 1_555
Cu1C O3 1_555 1_555
Cu1C_2 O1C 1_555 1_555
N1B C4B 1_555 1_555
N2B H1B 1_555 1_555
N3B Cu1B 1_555 1_555
H2B N3B 1_555 1_555
N4B Cu1B 1_555 1_555
H3B N4B 1_555 1_555
N5B Cu1B 1_555 1_555
H4B N5B 1_555 1_555
C1B C2 1_555 1_555
H5B C1B 1_555 1_555
C2B C1 1_555 1_555
H6B C2B 1_555 1_555
C3B C1B 1_555 1_555
C4B C3B 1_555 1_555
H7B C4B 1_555 1_555
H8B C4B 1_555 1_555
C5B N1B 1_555 1_555
H9B C5B 1_555 1_555
H10B C5B 1_555 1_555
C6B N2B 1_555 1_555
H11B C6B 1_555 1_555
H12B C6B 1_555 1_555
C7B N3B 1_555 1_555
H13B C7B 1_555 1_555
H14B C7B 1_555 1_555
C8B N3B 1_555 1_555
H15B C8B 1_555 1_555
H16B C8B 1_555 1_555
C9B C8B 1_555 1_555
H17B C9B 1_555 1_555
H18B C9B 1_555 1_555
C10B N4B 1_555 1_555
H19B C10B 1_555 1_555
H20B C10B 1_555 1_555
C11B N4B 1_555 1_555
H21B C11B 1_555 1_555
H22B C11B 1_555 1_555
C12B N5B 1_555 1_555
H23B C12B 1_555 1_555
H24B C12B 1_555 1_555
C13B N1B 1_555 1_555
H25B C13B 1_555 1_555
H26B C13B 1_555 1_555
C14C C16C 1_555 1_555
C15C C19C 1_555 1_555
C16C C17C 1_555 1_555
C17C H27C 1_555 1_555
C18C C17C 1_555 1_555
H28C C18C 1_555 1_555
C19C C18C 1_555 1_555
C20C C19C 1_555 1_555
H29C C20C 1_555 1_555
C21C C16C 1_555 1_555
H30C C21C 1_555 1_555
C22B H31B 1_555 1_555
C23B C24 1_555 1_555
C24B C23 1_555 1_555
H32B C24B 1_555 1_555
C25B H33B 1_555 1_555
C26B C27 1_555 1_555
C27B C26 1_555 1_555
H34B C27B 1_555 1_555
O1C C14C 1_555 1_555
O1B Cu1B 1_555 1_555
O2C C14C 1_555 1_555
O3C Cu1 1_555 1_555
O3A Cu1B 1_555 1_555
O4C C15C 1_555 1_555
O5B C23B 1_555 1_555
H35B O5B 1_555 1_555
O6B C26B 1_555 1_555
H36B O6B 1_555 1_555
N2 C5 1_555 1_555
N5 C13 1_555 1_555
C2 C3 1_555 1_555
C6 C7 1_555 1_555
C9 C10 1_555 1_555
C11 C12 1_555 1_555
C14 O1 1_555 1_555
C20 C21 1_555 1_555
N2B C5B 1_555 1_555
N5B C13B 1_555 1_555
C2B C3B 1_555 1_555
C6B C7B 1_555 1_555
C9B C10B 1_555 1_555
C11B C12B 1_555 1_555
C15C O3C 1_555 1_555
C20C C21C 1_555 1_555
C22B C23B 1_555 1_555
C22B C24B 1_555 1_555
C25B C26B 1_555 1_555
C25B C27B 1_555 1_555

#END
