
#######################################################################
#
#                 Cambridge Crystallographic Data Centre
#                                CCDC 
#
#######################################################################
#
# If this CIF has been generated from an entry in the Cambridge 
# Structural Database, then it will include bibliographic, chemical, 
# crystal, experimental, refinement or atomic coordinate data resulting 
# from the CCDC's data processing and validation procedures.
#
#######################################################################

data_MARFEQ
_symmetry_cell_setting           monoclinic
_symmetry_space_group_name_H-M   'P 21/n'
_symmetry_Int_Tables_number      14
_space_group_name_Hall           '-P 2yn'
loop_
_symmetry_equiv_pos_site_id
_symmetry_equiv_pos_as_xyz
1 x,y,z
2 1/2+x,1/2-y,1/2+z
3 -x,-y,-z
4 1/2-x,1/2+y,1/2-z
_cell_length_a                   6.374(2)
_cell_length_b                   7.5841(15)
_cell_length_c                   26.766(8)
_cell_angle_alpha                90
_cell_angle_beta                 91.87(2)
_cell_angle_gamma                90
_cell_volume                     1293.21
loop_
_atom_site_label
_atom_site_type_symbol
_atom_site_fract_x
_atom_site_fract_y
_atom_site_fract_z
Mn1 Mn 0.0000 0.0000 0.0000
N1 N 0.2258(4) 0.2086(3) 0.02286(9)
C1 C 0.2739(4) 0.3464(4) 0.03446(11)
N2 N 0.3424(6) 0.4956(4) 0.05154(15)
C2 C 0.2603(4) 0.6447(4) 0.03770(11)
N3 N 0.2027(4) -0.2159(3) 0.03015(9)
N4 N -0.1577(4) 0.0300(3) 0.07523(8)
C3 C -0.0638(4) 0.0968(4) 0.11631(10)
H1 H 0.0733(4) 0.1372(4) 0.11417(10)
C4 C -0.1581(4) 0.1092(4) 0.16152(11)
H2 H -0.0864(4) 0.1580(4) 0.18899(11)
C5 C -0.3620(4) 0.0479(4) 0.16573(11)
C6 C -0.4589(4) -0.0203(4) 0.12315(11)
H3 H -0.5957(4) -0.0624(4) 0.12420(11)
C7 C -0.3544(4) -0.0263(4) 0.07947(11)
H4 H -0.4239(4) -0.0720(4) 0.05126(11)
C8 C -0.4875(5) 0.0600(5) 0.21189(12)
O1 O -0.6765(4) 0.0682(6) 0.20640(10)
C9 C -0.3904(5) 0.0621(4) 0.26302(11)
C10 C -0.5150(6) 0.1189(5) 0.30125(12)
H5 H -0.6516(6) 0.1562(5) 0.29398(12)
C11 C -0.4387(7) 0.1206(5) 0.34984(13)
H6 H -0.5227(7) 0.1611(5) 0.37517(13)
C12 C -0.2398(7) 0.0630(5) 0.36102(14)
H7 H -0.1899(7) 0.0616(5) 0.39406(14)
C13 C -0.1138(6) 0.0075(5) 0.32386(14)
H8 H 0.0224(6) -0.0296(5) 0.33162(14)
C14 C -0.1883(5) 0.0061(4) 0.27457(12)
H9 H -0.1023(5) -0.0324(4) 0.24936(12)
N1B N -0.2258(4) -0.2086(3) -0.02286(9)
N3B N -0.2027(4) 0.2159(3) -0.03015(9)
N4B N 0.1577(4) -0.0300(3) -0.07523(8)
N3_2 N 0.2027(4) 0.7841(3) 0.03015(9)
C2_2 C 0.2603(4) -0.3553(4) 0.03770(11)
C3B C 0.0638(4) -0.0968(4) -0.11631(10)
C7B C 0.3544(4) 0.0263(4) -0.07947(11)
C6B C 0.4589(4) 0.0203(4) -0.12315(11)
H4B H 0.4239(4) 0.0720(4) -0.05126(11)
Mn1_2 Mn 0.0000 1.0000 0.0000
N2_2 N 0.3424(6) -0.5044(4) 0.05154(15)
H1B H -0.0733(4) -0.1372(4) -0.11417(10)
C4B C 0.1581(4) -0.1092(4) -0.16152(11)
C5B C 0.3620(4) -0.0479(4) -0.16573(11)
H3B H 0.5957(4) 0.0624(4) -0.12420(11)
C1_2 C 0.2739(4) -0.6536(4) 0.03446(11)
H2B H 0.0864(4) -0.1580(4) -0.18899(11)
C8B C 0.4875(5) -0.0600(5) -0.21189(12)
O1B O 0.6765(4) -0.0682(6) -0.20640(10)
C9B C 0.3904(5) -0.0621(4) -0.26302(11)
C10B C 0.5150(6) -0.1189(5) -0.30125(12)
C14B C 0.1883(5) -0.0061(4) -0.27457(12)
N1_2 N 0.2258(4) -0.7914(3) 0.02286(9)
Mn1_3 Mn 0.0000 -1.0000 0.0000
H5B H 0.6516(6) -0.1562(5) -0.29398(12)
C11B C 0.4387(7) -0.1206(5) -0.34984(13)
C13B C 0.1138(6) -0.0075(5) -0.32386(14)
H9B H 0.1023(5) 0.0324(4) -0.24936(12)
H6B H 0.5227(7) -0.1611(5) -0.37517(13)
C12B C 0.2398(7) -0.0630(5) -0.36102(14)
H8B H -0.0224(6) 0.0296(5) -0.33162(14)
H7B H 0.1899(7) -0.0616(5) -0.39406(14)
loop_
_geom_bond_atom_site_label_1
_geom_bond_atom_site_label_2
_geom_bond_site_symmetry_1
_geom_bond_site_symmetry_2
Mn1 N1 1_555 1_555
N1 C1 1_555 1_555
C1 N2 1_555 1_555
N2 C2 1_555 1_555
C2 N3_2 1_555 1_555
N3 Mn1 1_555 1_555
N4 Mn1 1_555 1_555
C3 N4 1_555 1_555
H1 C3 1_555 1_555
C4 C3 1_555 1_555
H2 C4 1_555 1_555
C5 C4 1_555 1_555
C6 C5 1_555 1_555
H3 C6 1_555 1_555
C7 N4 1_555 1_555
H4 C7 1_555 1_555
C8 C5 1_555 1_555
O1 C8 1_555 1_555
C9 C8 1_555 1_555
C10 C9 1_555 1_555
H5 C10 1_555 1_555
C11 C10 1_555 1_555
H6 C11 1_555 1_555
C12 C11 1_555 1_555
H7 C12 1_555 1_555
C13 C12 1_555 1_555
H8 C13 1_555 1_555
C14 C9 1_555 1_555
H9 C14 1_555 1_555
N1B Mn1 1_555 1_555
N3B Mn1 1_555 1_555
N4B Mn1 1_555 1_555
N3_2 Mn1_2 1_555 1_555
C2_2 N3 1_555 1_555
C3B N4B 1_555 1_555
C7B N4B 1_555 1_555
C6B C7B 1_555 1_555
H4B C7B 1_555 1_555
N2_2 C2_2 1_555 1_555
H1B C3B 1_555 1_555
C4B C3B 1_555 1_555
C5B C6B 1_555 1_555
H3B C6B 1_555 1_555
C1_2 N2_2 1_555 1_555
H2B C4B 1_555 1_555
C8B C5B 1_555 1_555
O1B C8B 1_555 1_555
C9B C8B 1_555 1_555
C10B C9B 1_555 1_555
C14B C9B 1_555 1_555
N1_2 C1_2 1_555 1_555
Mn1_3 N1_2 1_555 1_555
H5B C10B 1_555 1_555
C11B C10B 1_555 1_555
C13B C14B 1_555 1_555
H9B C14B 1_555 1_555
H6B C11B 1_555 1_555
C12B C11B 1_555 1_555
H8B C13B 1_555 1_555
H7B C12B 1_555 1_555
C6 C7 1_555 1_555
C13 C14 1_555 1_555
C4B C5B 1_555 1_555
C13B C12B 1_555 1_555

#END
