
#######################################################################
#
#                 Cambridge Crystallographic Data Centre
#                                CCDC 
#
#######################################################################
#
# If this CIF has been generated from an entry in the Cambridge 
# Structural Database, then it will include bibliographic, chemical, 
# crystal, experimental, refinement or atomic coordinate data resulting 
# from the CCDC's data processing and validation procedures.
#
#######################################################################

data_MARHOC
_symmetry_cell_setting           monoclinic
_symmetry_space_group_name_H-M   'P 21/c'
_symmetry_Int_Tables_number      14
_space_group_name_Hall           '-P 2ybc'
loop_
_symmetry_equiv_pos_site_id
_symmetry_equiv_pos_as_xyz
1 x,y,z
2 x,1/2-y,1/2+z
3 -x,-y,-z
4 -x,1/2+y,1/2-z
_cell_length_a                   13.5444(13)
_cell_length_b                   4.1098(4)
_cell_length_c                   15.0940(14)
_cell_angle_alpha                90
_cell_angle_beta                 105.583(2)
_cell_angle_gamma                90
_cell_volume                     809.32
loop_
_atom_site_label
_atom_site_type_symbol
_atom_site_fract_x
_atom_site_fract_y
_atom_site_fract_z
I1 I 0.440773(13) 1.14481(4) 1.358003(11)
Cu1 Cu 0.46026(3) 1.14228(8) 1.18916(3)
O1 O 0.09808(18) 0.6367(5) 0.73416(16)
H1 H 0.0423 0.5186 0.7164
N1 N 0.31430(19) 1.1477(5) 1.10211(17)
N2 N 0.09282(19) 0.8041(6) 0.81419(17)
C1 C 0.2939(2) 1.0145(6) 1.01794(18)
H2 H 0.3459 0.9068 0.9938
C2 C 0.1966(2) 1.0162(7) 0.95583(18)
C3 C 0.1177(2) 1.1692(7) 0.9832(2)
H3 H 0.0473 1.1710 0.9438
C4 C 0.1384(2) 1.3079(8) 1.0693(2)
H4 H 0.0893 1.4143 1.0923
C5 C 0.2375(2) 1.2951(7) 1.1265(2)
H5 H 0.2435 1.3626 1.1807
C6 C 0.1825(2) 0.8493(6) 0.8679(2)
H6 H 0.2377 0.7888 0.8480
I1C I 0.559227(13) 1.64481(4) 1.141997(11)
Cu1C Cu 0.53974(3) 1.64228(8) 1.31084(3)
I1C_2 I 0.559227(13) 0.64481(4) 1.141997(11)
Cu1C_2 Cu 0.53974(3) 0.64228(8) 1.31084(3)
loop_
_geom_bond_atom_site_label_1
_geom_bond_atom_site_label_2
_geom_bond_site_symmetry_1
_geom_bond_site_symmetry_2
I1 Cu1 1_555 1_555
Cu1 N1 1_555 1_555
O1 H1 1_555 1_555
N1 C1 1_555 1_555
N2 O1 1_555 1_555
C1 H2 1_555 1_555
C2 C1 1_555 1_555
C3 C2 1_555 1_555
H3 C3 1_555 1_555
C4 C3 1_555 1_555
H4 C4 1_555 1_555
C5 N1 1_555 1_555
H5 C5 1_555 1_555
C6 N2 1_555 1_555
H6 C6 1_555 1_555
I1C Cu1 1_555 1_555
Cu1C I1 1_555 1_555
I1C_2 Cu1 1_555 1_555
Cu1C_2 I1 1_555 1_555
C2 C6 1_555 1_555
C4 C5 1_555 1_555
I1C Cu1C 1_555 1_555
I1C_2 Cu1C_2 1_555 1_555

#END
