
#######################################################################
#
#                 Cambridge Crystallographic Data Centre
#                                CCDC 
#
#######################################################################
#
# If this CIF has been generated from an entry in the Cambridge 
# Structural Database, then it will include bibliographic, chemical, 
# crystal, experimental, refinement or atomic coordinate data resulting 
# from the CCDC's data processing and validation procedures.
#
#######################################################################

data_MARKUL
_symmetry_cell_setting           monoclinic
_symmetry_space_group_name_H-M   'C 2/c'
_symmetry_Int_Tables_number      15
_space_group_name_Hall           '-C 2yn'
loop_
_symmetry_equiv_pos_site_id
_symmetry_equiv_pos_as_xyz
1 x,y,z
2 1/2+x,1/2+y,z
3 -x,y,1/2-z
4 1/2-x,1/2+y,1/2-z
5 -x,-y,-z
6 1/2-x,1/2-y,-z
7 x,-y,1/2+z
8 1/2+x,1/2-y,1/2+z
_cell_length_a                   27.314(6)
_cell_length_b                   15.701(4)
_cell_length_c                   15.514(5)
_cell_angle_alpha                90
_cell_angle_beta                 116.70(2)
_cell_angle_gamma                90
_cell_volume                     5943.86
loop_
_atom_site_label
_atom_site_type_symbol
_atom_site_fract_x
_atom_site_fract_y
_atom_site_fract_z
Cd1 Cd 0.66888(2) 0.61849(3) 0.31244(4)
N1 N 0.7836(3) 0.6199(6) 0.3781(6)
O1 O 0.7548(2) 0.6267(4) 0.2896(4)
O2 O 0.7602(2) 0.6122(4) 0.4327(4)
O3 O 0.8341(3) 0.6203(8) 0.4154(6)
N2 N 0.6058(3) 0.6048(4) 0.4145(5)
O4 O 0.5821(2) 0.6196(5) 0.3227(4)
O5 O 0.6565(2) 0.5972(4) 0.4531(4)
O6 O 0.5778(3) 0.5964(4) 0.4604(4)
N3 N 0.7184(3) 0.0770(4) 0.3772(4)
N4 N 0.6300(3) 0.1606(4) 0.2392(5)
C1 C 0.6749(4) 0.1982(5) 0.3029(5)
N5 N 0.7188(3) 0.1620(4) 0.3743(4)
N6 N 0.6295(3) 0.0753(4) 0.2431(5)
C2 C 0.6742(3) 0.0377(5) 0.3110(6)
N7 N 0.6745(3) 0.4707(3) 0.2954(4)
C3 C 0.6495(3) 0.4261(5) 0.2158(6)
C4 C 0.6489(3) 0.3372(5) 0.2139(5)
C5 C 0.6771(3) 0.2930(4) 0.3007(6)
C6 C 0.7047(3) 0.3394(5) 0.3826(5)
C7 C 0.7030(3) 0.4275(5) 0.3773(6)
N8 N 0.6726(3) -0.2335(4) 0.3206(4)
C8 C 0.7208(3) -0.1878(5) 0.3592(5)
C9 C 0.7220(4) -0.1027(5) 0.3556(5)
C10 C 0.6737(3) -0.0584(5) 0.3118(5)
C11 C 0.6263(4) -0.1021(6) 0.2703(7)
C12 C 0.6272(4) -0.1906(6) 0.2757(7)
N9 N 0.5554(3) 0.5876(6) -0.2067(5)
N10 N 0.5286(3) 0.5883(6) -0.3035(4)
C13 C 0.5260(3) 0.5933(5) -0.1592(5)
N11 N 0.6143(2) 0.6233(4) 0.1460(4)
C14 C 0.6410(3) 0.6230(6) 0.0885(5)
C15 C 0.6132(3) 0.6143(6) -0.0066(5)
C16 C 0.5563(3) 0.6050(5) -0.0517(5)
C17 C 0.5298(3) 0.6047(6) 0.0038(5)
C18 C 0.5598(3) 0.6145(5) 0.1037(5)
H1 H 0.6301(3) 0.4585(5) 0.1512(6)
H2 H 0.6276(3) 0.3048(5) 0.1505(5)
H3 H 0.7258(3) 0.3094(5) 0.4470(5)
H4 H 0.7246(3) 0.4618(5) 0.4395(6)
H5 H 0.7566(3) -0.2205(5) 0.3928(5)
H6 H 0.7578(4) -0.0721(5) 0.3836(5)
H7 H 0.5901(4) -0.0702(6) 0.2325(7)
H8 H 0.5929(4) -0.2229(6) 0.2421(7)
H9 H 0.6827(3) 0.6264(6) 0.1203(5)
H10 H 0.6335(3) 0.6168(6) -0.0478(5)
H11 H 0.4875(3) 0.5975(6) -0.0257(5)
H12 H 0.5394(3) 0.6129(5) 0.1454(5)
C13B C 0.4740(3) 0.5933(5) -0.3408(5)
N9B N 0.4446(3) 0.5876(6) -0.2933(5)
N10B N 0.4714(3) 0.5883(6) -0.1965(4)
C16B C 0.4437(3) 0.6050(5) -0.4483(5)
C15B C 0.3868(3) 0.6143(6) -0.4934(5)
C14B C 0.3590(3) 0.6230(6) -0.5885(5)
N11B N 0.3857(2) 0.6233(4) -0.6460(4)
C18B C 0.4402(3) 0.6145(5) -0.6037(5)
C17B C 0.4702(3) 0.6047(6) -0.5038(5)
H11B H 0.5125(3) 0.5975(6) -0.4743(5)
H12B H 0.4606(3) 0.6129(5) -0.6454(5)
H9B H 0.3173(3) 0.6264(6) -0.6203(5)
H10B H 0.3665(3) 0.6168(6) -0.4522(5)
N3_2 N 0.7184(3) 1.0770(4) 0.3772(4)
N4_2 N 0.6300(3) 1.1606(4) 0.2392(5)
C1_2 C 0.6749(4) 1.1982(5) 0.3029(5)
N5_2 N 0.7188(3) 1.1620(4) 0.3743(4)
N6_2 N 0.6295(3) 1.0753(4) 0.2431(5)
C2_2 C 0.6742(3) 1.0377(5) 0.3110(6)
N7_2 N 0.6745(3) 1.4707(3) 0.2954(4)
C3_2 C 0.6495(3) 1.4261(5) 0.2158(6)
C4_2 C 0.6489(3) 1.3372(5) 0.2139(5)
C5_2 C 0.6771(3) 1.2930(4) 0.3007(6)
C6_2 C 0.7047(3) 1.3394(5) 0.3826(5)
C7_2 C 0.7030(3) 1.4275(5) 0.3773(6)
N8_2 N 0.6726(3) 0.7665(4) 0.3206(4)
C8_2 C 0.7208(3) 0.8122(5) 0.3592(5)
C9_2 C 0.7220(4) 0.8973(5) 0.3556(5)
C10_2 C 0.6737(3) 0.9416(5) 0.3118(5)
C11_2 C 0.6263(4) 0.8979(6) 0.2703(7)
C12_2 C 0.6272(4) 0.8094(6) 0.2757(7)
H1_2 H 0.6301(3) 1.4585(5) 0.1512(6)
H2_2 H 0.6276(3) 1.3048(5) 0.1505(5)
H3_2 H 0.7258(3) 1.3094(5) 0.4470(5)
H4_2 H 0.7246(3) 1.4618(5) 0.4395(6)
H5_2 H 0.7566(3) 0.7795(5) 0.3928(5)
H6_2 H 0.7578(4) 0.9279(5) 0.3836(5)
H7_2 H 0.5901(4) 0.9298(6) 0.2325(7)
H8_2 H 0.5929(4) 0.7771(6) 0.2421(7)
Cd1_2 Cd 0.66888(2) 1.61849(3) 0.31244(4)
Cd1_3 Cd 0.66888(2) -0.38151(3) 0.31244(4)
Cd1B Cd 0.33112(2) 0.61849(3) -0.81244(4)
N1B N 0.2164(3) 0.6199(6) -0.8781(6)
O1B O 0.2452(2) 0.6267(4) -0.7896(4)
O2B O 0.2398(2) 0.6122(4) -0.9327(4)
O3B O 0.1659(3) 0.6203(8) -0.9154(6)
N2B N 0.3942(3) 0.6048(4) -0.9145(5)
O4B O 0.4179(2) 0.6196(5) -0.8227(4)
O5B O 0.3435(2) 0.5972(4) -0.9531(4)
O6B O 0.4222(3) 0.5964(4) -0.9604(4)
N7B N 0.3255(3) 0.4707(3) -0.7954(4)
N8B N 0.3274(3) 0.7665(4) -0.8206(4)
O7 O 0.5231 0.8296 -0.5187
C19 C 0.5406 0.8021 -0.5802
C20 C 0.5132 0.7735 -0.6554
C21 C 0.4788 0.8394 -0.5194
C22 C 0.4910 0.8785 -0.4450
loop_
_geom_bond_atom_site_label_1
_geom_bond_atom_site_label_2
_geom_bond_site_symmetry_1
_geom_bond_site_symmetry_2
Cd1 O1 1_555 1_555
N1 O1 1_555 1_555
O2 Cd1 1_555 1_555
O3 N1 1_555 1_555
N2 O4 1_555 1_555
O4 Cd1 1_555 1_555
O5 Cd1 1_555 1_555
O6 N2 1_555 1_555
N3 N5 1_555 1_555
N4 C1 1_555 1_555
C1 N5 1_555 1_555
N6 N4 1_555 1_555
C2 N3 1_555 1_555
N7 Cd1 1_555 1_555
C3 N7 1_555 1_555
C4 C3 1_555 1_555
C5 C1 1_555 1_555
C6 C5 1_555 1_555
C7 N7 1_555 1_555
N8 C8 1_555 1_555
C8 C9 1_555 1_555
C9 C10 1_555 1_555
C10 C2 1_555 1_555
C11 C10 1_555 1_555
C12 N8 1_555 1_555
N9 N10 1_555 1_555
N10 C13B 1_555 1_555
C13 N9 1_555 1_555
N11 Cd1 1_555 1_555
C14 N11 1_555 1_555
C15 C14 1_555 1_555
C16 C13 1_555 1_555
C17 C16 1_555 1_555
C18 N11 1_555 1_555
H1 C3 1_555 1_555
H2 C4 1_555 1_555
H3 C6 1_555 1_555
H4 C7 1_555 1_555
H5 C8 1_555 1_555
H6 C9 1_555 1_555
H7 C11 1_555 1_555
H8 C12 1_555 1_555
H9 C14 1_555 1_555
H10 C15 1_555 1_555
H11 C17 1_555 1_555
H12 C18 1_555 1_555
O7 C19 1_555 1_555
C19 C20 1_555 1_555
C21 O7 1_555 1_555
C22 C21 1_555 1_555
C13B N9B 1_555 1_555
N9B N10B 1_555 1_555
N10B C13 1_555 1_555
C16B C13B 1_555 1_555
C15B C16B 1_555 1_555
C14B C15B 1_555 1_555
N11B C14B 1_555 1_555
C18B N11B 1_555 1_555
C17B C16B 1_555 1_555
H11B C17B 1_555 1_555
H12B C18B 1_555 1_555
H9B C14B 1_555 1_555
H10B C15B 1_555 1_555
N3_2 N5_2 1_555 1_555
N4_2 C1_2 1_555 1_555
C1_2 N5_2 1_555 1_555
N6_2 N4_2 1_555 1_555
C2_2 N3_2 1_555 1_555
N7_2 C3_2 1_555 1_555
C3_2 C4_2 1_555 1_555
C4_2 C5_2 1_555 1_555
C5_2 C1_2 1_555 1_555
C6_2 C5_2 1_555 1_555
C7_2 N7_2 1_555 1_555
N8_2 Cd1 1_555 1_555
C8_2 N8_2 1_555 1_555
C9_2 C8_2 1_555 1_555
C10_2 C2_2 1_555 1_555
C11_2 C10_2 1_555 1_555
C12_2 N8_2 1_555 1_555
H1_2 C3_2 1_555 1_555
H2_2 C4_2 1_555 1_555
H3_2 C6_2 1_555 1_555
H4_2 C7_2 1_555 1_555
H5_2 C8_2 1_555 1_555
H6_2 C9_2 1_555 1_555
H7_2 C11_2 1_555 1_555
H8_2 C12_2 1_555 1_555
Cd1_2 N7_2 1_555 1_555
Cd1_3 N8 1_555 1_555
Cd1B N11B 1_555 1_555
N1B O1B 1_555 1_555
O1B Cd1B 1_555 1_555
O2B Cd1B 1_555 1_555
O3B N1B 1_555 1_555
N2B O4B 1_555 1_555
O4B Cd1B 1_555 1_555
O5B Cd1B 1_555 1_555
O6B N2B 1_555 1_555
N7B Cd1B 1_555 1_555
N8B Cd1B 1_555 1_555
N1 O2 1_555 1_555
N2 O5 1_555 1_555
N6 C2 1_555 1_555
C4 C5 1_555 1_555
C6 C7 1_555 1_555
C11 C12 1_555 1_555
C15 C16 1_555 1_555
C17 C18 1_555 1_555
C18B C17B 1_555 1_555
N6_2 C2_2 1_555 1_555
C6_2 C7_2 1_555 1_555
C9_2 C10_2 1_555 1_555
C11_2 C12_2 1_555 1_555
N1B O2B 1_555 1_555
N2B O5B 1_555 1_555

#END
