
#######################################################################
#
#                 Cambridge Crystallographic Data Centre
#                                CCDC 
#
#######################################################################
#
# If this CIF has been generated from an entry in the Cambridge 
# Structural Database, then it will include bibliographic, chemical, 
# crystal, experimental, refinement or atomic coordinate data resulting 
# from the CCDC's data processing and validation procedures.
#
#######################################################################

data_MARMUP
_symmetry_cell_setting           tetragonal
_symmetry_space_group_name_H-M   'P 41 21 2'
_symmetry_Int_Tables_number      92
_space_group_name_Hall           'P 4abw 2nw'
loop_
_symmetry_equiv_pos_site_id
_symmetry_equiv_pos_as_xyz
1 x,y,z
2 -x,-y,1/2+z
3 1/2-y,1/2+x,1/4+z
4 1/2+y,1/2-x,3/4+z
5 1/2-x,1/2+y,1/4-z
6 1/2+x,1/2-y,3/4-z
7 y,x,-z
8 -y,-x,1/2-z
_cell_length_a                   9.227
_cell_length_b                   9.227
_cell_length_c                   43.990(3)
_cell_angle_alpha                90
_cell_angle_beta                 90
_cell_angle_gamma                90
_cell_volume                     3745.2
loop_
_atom_site_label
_atom_site_type_symbol
_atom_site_fract_x
_atom_site_fract_y
_atom_site_fract_z
Pb1 Pb 1.01374(3) 0.71538(3) 0.023978(6)
Br1 Br 0.80044(9) 1.11571(12) 0.11237(2)
Br2 Br 0.19001(9) 1.03465(13) 0.11057(2)
Br3 Br 0.53940(10) 0.75610(9) 0.022944(19)
O1 O 0.8635(6) 0.8007(8) 0.06892(13)
O2 O 0.8383(6) 0.9706(7) 0.03402(13)
O3 O 0.2055(6) 0.7279(6) 0.06344(12)
O4 O 0.2012(7) 0.9125(7) 0.03162(14)
O5 O 1.1911(9) 0.5657(9) -0.00632(17)
O6 O 0.9754(10) 0.4821(8) 0.05382(16)
H1 H 0.9975 0.4089 0.0435
H2 H 1.0259 0.4881 0.0697
N1 N 0.4857(8) 1.1335(10) 0.13500(17)
H5 H 0.5620 1.1664 0.1438
H6 H 0.4016 1.1493 0.1428
N2 N 1.3340(10) 0.5212(10) -0.04626(19)
C1 C 0.7947(8) 0.9016(9) 0.05676(16)
C2 C 0.6489(8) 0.9404(8) 0.07041(16)
C3 C 0.6320(7) 1.0278(8) 0.09519(16)
C4 C 0.4979(8) 1.0565(8) 0.10875(17)
C5 C 0.3769(7) 0.9955(8) 0.09449(16)
C6 C 0.3867(7) 0.9098(9) 0.06909(16)
C7 C 0.5235(8) 0.8792(8) 0.05770(15)
C8 C 0.2529(7) 0.8455(9) 0.05409(17)
C9 C 1.2661(14) 0.6156(11) -0.0278(3)
H7 H 1.2745 0.7150 -0.0307
C10 C 1.3255(17) 0.3697(15) -0.0442(4)
H8 H 1.2589 0.3436 -0.0283
H9 H 1.4196 0.3311 -0.0396
H10 H 1.2922 0.3308 -0.0632
C11 C 1.4218(15) 0.5835(19) -0.0710(3)
H11 H 1.4039 0.6858 -0.0723
H12 H 1.3960 0.5382 -0.0899
H13 H 1.5226 0.5671 -0.0669
Pb1_2 Pb 0.01374(3) 0.71538(3) 0.023978(6)
O3_2 O 1.2055(6) 0.7279(6) 0.06344(12)
O4_2 O 1.2012(7) 0.9125(7) 0.03162(14)
O7 O 1.0385(10) 0.2241(9) 0.02776(19)
H3 H 0.9910 0.1530 0.0343
H4 H 1.0159 0.2368 0.0094
loop_
_geom_bond_atom_site_label_1
_geom_bond_atom_site_label_2
_geom_bond_site_symmetry_1
_geom_bond_site_symmetry_2
Pb1 O1 1_555 1_555
Br1 C3 1_555 1_555
Br2 C5 1_555 1_555
Br3 C7 1_555 1_555
O1 C1 1_555 1_555
O2 C1 1_555 1_555
O3 C8 1_555 1_555
O4 C8 1_555 1_555
O5 Pb1 1_555 1_555
O6 Pb1 1_555 1_555
H1 O6 1_555 1_555
H2 O6 1_555 1_555
O7 H3 1_555 1_555
H4 O7 1_555 1_555
N1 H5 1_555 1_555
H6 N1 1_555 1_555
N2 C9 1_555 1_555
C1 C2 1_555 1_555
C2 C3 1_555 1_555
C3 C4 1_555 1_555
C4 N1 1_555 1_555
C5 C4 1_555 1_555
C6 C5 1_555 1_555
C7 C2 1_555 1_555
C8 C6 1_555 1_555
C9 O5 1_555 1_555
H7 C9 1_555 1_555
C10 N2 1_555 1_555
H8 C10 1_555 1_555
H9 C10 1_555 1_555
H10 C10 1_555 1_555
C11 N2 1_555 1_555
H11 C11 1_555 1_555
H12 C11 1_555 1_555
H13 C11 1_555 1_555
Pb1_2 O3 1_555 1_555
O3_2 Pb1 1_555 1_555
O4_2 Pb1 1_555 1_555
O4 Pb1_2 1_555 1_555
C6 C7 1_555 1_555

#END
