
#######################################################################
#
#                 Cambridge Crystallographic Data Centre
#                                CCDC 
#
#######################################################################
#
# If this CIF has been generated from an entry in the Cambridge 
# Structural Database, then it will include bibliographic, chemical, 
# crystal, experimental, refinement or atomic coordinate data resulting 
# from the CCDC's data processing and validation procedures.
#
#######################################################################

data_MARPOK
_symmetry_cell_setting           monoclinic
_symmetry_space_group_name_H-M   'P 21/m'
_symmetry_Int_Tables_number      11
_space_group_name_Hall           '-P 2yb'
loop_
_symmetry_equiv_pos_site_id
_symmetry_equiv_pos_as_xyz
1 x,y,z
2 x,1/2-y,z
3 -x,-y,-z
4 -x,1/2+y,-z
_cell_length_a                   11.041(2)
_cell_length_b                   17.520(5)
_cell_length_c                   12.406(2)
_cell_angle_alpha                90
_cell_angle_beta                 105.21(2)
_cell_angle_gamma                90
_cell_volume                     2315.73
loop_
_atom_site_label
_atom_site_type_symbol
_atom_site_fract_x
_atom_site_fract_y
_atom_site_fract_z
Tl1 Tl 0.17510(5) 0.09168(3) 0.03973(5)
Tl2 Tl 0.57669(7) 0.2500 0.04490(7)
Cl1 Cl 0.1868(6) 0.2500 0.0437(6)
O2 O 0.4391(11) 0.1048(7) 0.0333(11)
N1 N -0.0553(11) 0.1064(8) 0.0514(10)
N2 N -0.1452(10) 0.0710(8) -0.0317(12)
N3 N -0.2522(12) 0.1043(7) -0.0380(13)
N4 N -0.2366(11) 0.1612(7) 0.0373(12)
C1 C -0.1166(11) 0.1637(8) 0.0911(13)
C2 C 0.2515(14) 0.0792(9) 0.2147(14)
C3 C 0.3378(14) 0.1312(12) 0.2763(16)
H1 H 0.3641(14) 0.1719(12) 0.2398(16)
C4 C 0.3838(18) 0.1239(15) 0.3870(18)
H2 H 0.4430(18) 0.1585(15) 0.4263(18)
C5 C 0.3432(23) 0.0649(16) 0.4429(16)
H3 H 0.3742(23) 0.0603(16) 0.5200(16)
C6 C 0.2569(19) 0.0129(13) 0.3849(19)
H4 H 0.2298(19) -0.0271(13) 0.4222(19)
C7 C 0.2114(14) 0.0207(11) 0.2713(13)
H5 H 0.1526(14) -0.0141(11) 0.2318(13)
C8 C 0.1260(12) 0.0860(9) -0.1364(15)
C9 C 0.1706(16) 0.0290(12) -0.1914(15)
H6 H 0.2256(16) -0.0067(12) -0.1496(15)
C10 C 0.1371(21) 0.0226(13) -0.3062(20)
H7 H 0.1665(21) -0.0178(13) -0.3411(20)
C11 C 0.0586(23) 0.0777(14) -0.3686(19)
H8 H 0.0377(23) 0.0754(14) -0.4461(19)
C12 C 0.0110(24) 0.1361(14) -0.3162(18)
H9 H -0.0411(24) 0.1729(14) -0.3586(18)
C13 C 0.0412(18) 0.1396(13) -0.2010(17)
H10 H 0.0059(18) 0.1771(13) -0.1659(17)
C14 C 0.4958(21) 0.2500 -0.1270(17)
C15 C 0.5715(22) 0.2500 -0.2072(18)
H11 H 0.6586(22) 0.2500 -0.1812(18)
C16 C 0.5178(21) 0.2500 -0.3189(24)
H12 H 0.5690(21) 0.2500 -0.3676(24)
C17 C 0.3919(28) 0.2500 -0.3612(22)
H13 H 0.3576(28) 0.2500 -0.4381(22)
C18 C 0.3140(25) 0.2500 -0.2903(22)
H14 H 0.2273(25) 0.2500 -0.3191(22)
C19 C 0.3673(19) 0.2500 -0.1740(22)
H15 H 0.3142(19) 0.2500 -0.1270(22)
C20 C 0.6303(18) 0.2500 0.2202(19)
C21 C 0.6565(21) 0.1819(10) 0.2800(18)
H16 H 0.6435(21) 0.1353(10) 0.2428(18)
C22 C 0.7018(22) 0.1841(18) 0.3946(21)
H17 H 0.7160(22) 0.1379(18) 0.4329(21)
C23 C 0.7272(26) 0.2500 0.4552(31)
H18 H 0.7595(26) 0.2500 0.5324(31)
C24 C -0.0564(12) 0.2106(8) 0.1884(12)
C25 C 0.0065(13) 0.1717(10) 0.2831(15)
H19 H 0.0071(13) 0.1187(10) 0.2820(15)
C26 C 0.0694(14) 0.2097(10) 0.3808(15)
H20 H 0.1103(14) 0.1825(10) 0.4444(15)
O2A O 0.4391(11) 0.3952(7) 0.0333(11)
N4A N 0.7634(11) 0.3388(7) 0.0373(12)
Tl1A Tl 0.17510(5) 0.40832(3) 0.03973(5)
N2B N 0.1452(10) -0.0710(8) 0.0317(12)
N4_2 N 0.7634(11) 0.1612(7) 0.0373(12)
C21A C 0.6565(21) 0.3181(10) 0.2800(18)
C22A C 0.7018(22) 0.3159(18) 0.3946(21)
C24A C -0.0564(12) 0.2894(8) 0.1884(12)
C26A C 0.0694(14) 0.2903(10) 0.3808(15)
N1A N -0.0553(11) 0.3936(8) 0.0514(10)
N2C N 0.1452(10) 0.5710(8) 0.0317(12)
C2A C 0.2515(14) 0.4208(9) 0.2147(14)
C8A C 0.1260(12) 0.4140(9) -0.1364(15)
Tl1B Tl -0.17510(5) -0.09168(3) -0.03973(5)
Tl2_2 Tl -0.42331(7) 0.2500 0.04490(7)
H16A H 0.6435(21) 0.3647(10) 0.2428(18)
H17A H 0.7160(22) 0.3621(18) 0.4329(21)
C1A C -0.1166(11) 0.3363(8) 0.0911(13)
C25A C 0.0065(13) 0.3283(10) 0.2831(15)
H20A H 0.1103(14) 0.3175(10) 0.4444(15)
N2A N -0.1452(10) 0.4290(8) -0.0317(12)
C3A C 0.3378(14) 0.3688(12) 0.2763(16)
C7A C 0.2114(14) 0.4793(11) 0.2713(13)
C9A C 0.1706(16) 0.4710(12) -0.1914(15)
C13A C 0.0412(18) 0.3604(13) -0.2010(17)
N4A_2 N -0.2366(11) 0.3388(7) 0.0373(12)
H19A H 0.0071(13) 0.3813(10) 0.2820(15)
Tl1C Tl -0.17510(5) 0.59168(3) -0.03973(5)
N3A N -0.2522(12) 0.3957(7) -0.0380(13)
H1A H 0.3641(14) 0.3281(12) 0.2398(16)
C4A C 0.3838(18) 0.3761(15) 0.3870(18)
C6A C 0.2569(19) 0.4871(13) 0.3849(19)
H5A H 0.1526(14) 0.5141(11) 0.2318(13)
H6A H 0.2256(16) 0.5067(12) -0.1496(15)
C10A C 0.1371(21) 0.4774(13) -0.3062(20)
C12A C 0.0110(24) 0.3639(14) -0.3162(18)
H10A H 0.0059(18) 0.3229(13) -0.1659(17)
H2A H 0.4430(18) 0.3415(15) 0.4263(18)
C5A C 0.3432(23) 0.4351(16) 0.4429(16)
H4A H 0.2298(19) 0.5271(13) 0.4222(19)
H7A H 0.1665(21) 0.5178(13) -0.3411(20)
C11A C 0.0586(23) 0.4223(14) -0.3686(19)
H9A H -0.0411(24) 0.3271(14) -0.3586(18)
H3A H 0.3742(23) 0.4397(16) 0.5200(16)
H8A H 0.0377(23) 0.4246(14) -0.4461(19)
O1 O -0.4828(9) 0.0428(7) -0.1470(9)
C27 C -0.5111(21) 0.0542(12) -0.2265(38)
H21 H -0.590(13) 0.030(14) -0.2578(61)
H22 H -0.450(13) 0.036(15) -0.2632(55)
H23 H -0.521(26) 0.1084(16) -0.2368(39)
loop_
_geom_bond_atom_site_label_1
_geom_bond_atom_site_label_2
_geom_bond_site_symmetry_1
_geom_bond_site_symmetry_2
Tl1 Cl1 1_555 1_555
Tl2 O2 1_555 1_555
Cl1 Tl1A 1_555 1_555
O1 C27 1_555 1_555
O2 Tl1 1_555 1_555
N1 Tl1 1_555 1_555
N2 N1 1_555 1_555
N3 N2 1_555 1_555
N4 N3 1_555 1_555
C1 N1 1_555 1_555
C2 Tl1 1_555 1_555
C3 C2 1_555 1_555
H1 C3 1_555 1_555
C4 C3 1_555 1_555
H2 C4 1_555 1_555
C5 C4 1_555 1_555
H3 C5 1_555 1_555
C6 C5 1_555 1_555
H4 C6 1_555 1_555
C7 C2 1_555 1_555
H5 C7 1_555 1_555
C8 Tl1 1_555 1_555
C9 C8 1_555 1_555
H6 C9 1_555 1_555
C10 C9 1_555 1_555
H7 C10 1_555 1_555
C11 C10 1_555 1_555
H8 C11 1_555 1_555
C12 C11 1_555 1_555
H9 C12 1_555 1_555
C13 C8 1_555 1_555
H10 C13 1_555 1_555
C14 Tl2 1_555 1_555
C15 C14 1_555 1_555
H11 C15 1_555 1_555
C16 C15 1_555 1_555
H12 C16 1_555 1_555
C17 C16 1_555 1_555
H13 C17 1_555 1_555
C18 C17 1_555 1_555
H14 C18 1_555 1_555
C19 C14 1_555 1_555
H15 C19 1_555 1_555
C20 Tl2 1_555 1_555
C21 C20 1_555 1_555
H16 C21 1_555 1_555
C22 C21 1_555 1_555
H17 C22 1_555 1_555
C23 C22 1_555 1_555
H18 C23 1_555 1_555
C24 C1 1_555 1_555
C25 C24 1_555 1_555
H19 C25 1_555 1_555
C26 C25 1_555 1_555
H20 C26 1_555 1_555
C27 H21 1_555 1_555
H22 C27 1_555 1_555
H23 C27 1_555 1_555
O2A Tl2 1_555 1_555
N4A Tl2 1_555 1_555
Tl1A O2A 1_555 1_555
N2B Tl1 1_555 1_555
N4_2 Tl2 1_555 1_555
C21A C20 1_555 1_555
C22A C23 1_555 1_555
C24A C24 1_555 1_555
C26A C26 1_555 1_555
N1A Tl1A 1_555 1_555
N2C Tl1A 1_555 1_555
C2A Tl1A 1_555 1_555
C8A Tl1A 1_555 1_555
Tl1B N2 1_555 1_555
Tl2_2 N4 1_555 1_555
H16A C21A 1_555 1_555
H17A C22A 1_555 1_555
C1A C24A 1_555 1_555
C25A C24A 1_555 1_555
H20A C26A 1_555 1_555
N2A N1A 1_555 1_555
C3A C2A 1_555 1_555
C7A C2A 1_555 1_555
C9A C8A 1_555 1_555
C13A C8A 1_555 1_555
N4A_2 Tl2_2 1_555 1_555
H19A C25A 1_555 1_555
Tl1C N2A 1_555 1_555
N3A N2A 1_555 1_555
H1A C3A 1_555 1_555
C4A C3A 1_555 1_555
C6A C7A 1_555 1_555
H5A C7A 1_555 1_555
H6A C9A 1_555 1_555
C10A C9A 1_555 1_555
C12A C13A 1_555 1_555
H10A C13A 1_555 1_555
H2A C4A 1_555 1_555
C5A C4A 1_555 1_555
H4A C6A 1_555 1_555
H7A C10A 1_555 1_555
C11A C10A 1_555 1_555
H9A C12A 1_555 1_555
H3A C5A 1_555 1_555
H8A C11A 1_555 1_555
N4 C1 1_555 1_555
C6 C7 1_555 1_555
C12 C13 1_555 1_555
C18 C19 1_555 1_555
C21A C22A 1_555 1_555
C26A C25A 1_555 1_555
N1A C1A 1_555 1_555
C1A N4A_2 1_555 1_555
N4A_2 N3A 1_555 1_555
C6A C5A 1_555 1_555
C12A C11A 1_555 1_555

#END
