
#######################################################################
#
#                 Cambridge Crystallographic Data Centre
#                                CCDC 
#
#######################################################################
#
# If this CIF has been generated from an entry in the Cambridge 
# Structural Database, then it will include bibliographic, chemical, 
# crystal, experimental, refinement or atomic coordinate data resulting 
# from the CCDC's data processing and validation procedures.
#
#######################################################################

data_MARSAB
_symmetry_cell_setting           monoclinic
_symmetry_space_group_name_H-M   'C c'
_symmetry_Int_Tables_number      9
_space_group_name_Hall           'C -2yc'
loop_
_symmetry_equiv_pos_site_id
_symmetry_equiv_pos_as_xyz
1 x,y,z
2 x,-y,1/2+z
3 1/2+x,1/2+y,z
4 1/2+x,1/2-y,1/2+z
_cell_length_a                   23.827(3)
_cell_length_b                   9.4313(9)
_cell_length_c                   20.494(2)
_cell_angle_alpha                90
_cell_angle_beta                 125.084(2)
_cell_angle_gamma                90
_cell_volume                     3768.65
loop_
_atom_site_label
_atom_site_type_symbol
_atom_site_fract_x
_atom_site_fract_y
_atom_site_fract_z
Mn1 Mn 0.344690(15) -0.27036(3) -0.368070(17)
Cl1 Cl 0.28229(3) -0.48775(6) -0.37127(4)
F1 F 0.14482(11) 0.77237(17) -0.22924(12)
F2 F 0.09691(7) 0.30190(17) -0.31213(11)
F3 F 0.60590(7) -0.79939(17) -0.42794(11)
F4 F 0.56053(10) -1.27583(16) -0.50131(12)
N1 N 0.23507(9) 0.0440(2) -0.32160(11)
N2 N 0.20828(13) -0.0767(2) -0.31337(17)
N3 N 0.28554(10) -0.1288(2) -0.33890(13)
N4 N 0.22192(9) 0.1617(2) -0.12104(11)
N5 N 0.16847(11) 0.1961(3) -0.11768(14)
N6 N 0.26828(10) 0.2253(2) 0.00172(12)
N7 N 0.47812(9) -0.6509(2) -0.61166(11)
N8 N 0.52903(10) -0.6970(3) -0.61713(13)
N9 N 0.42851(10) -0.6989(2) -0.73710(12)
N10 N 0.46591(9) -0.5555(2) -0.40932(11)
C1 C 0.41248(12) -0.5262(3) -0.40711(15)
H1 H 0.3817 -0.5927 -0.4115
C2 C 0.46361(13) -0.3377(3) -0.39520(18)
H2 H 0.4745 -0.2418 -0.3891
O1 O 0.30961(8) 0.2082(2) -0.17626(10)
H3 H 0.3263 0.2349 -0.1997
O2 O 0.39306(8) -0.71377(19) -0.55662(11)
H4 H 0.3760 -0.7544 -0.5366
O3 O 0.40607(9) -0.07379(18) -0.35666(10)
H5 H 0.4310 -0.0234 -0.3151
H6 H 0.3814 -0.0185 -0.3960
C3 C 0.23752(11) 0.2188(2) -0.22773(14)
C4 C 0.21191(13) 0.1818(3) -0.31464(14)
H7 H 0.1622 0.1836 -0.3483
H8 H 0.2280 0.2538 -0.3340
C5 C 0.27979(13) 0.0094(3) -0.33749(17)
H9 H 0.3040 0.0744 -0.3465
C6 C 0.24092(14) -0.1760(3) -0.32378(17)
H10 H 0.2337 -0.2721 -0.3209
C7 C 0.21039(12) 0.1117(2) -0.19541(14)
H11 H 0.1617 0.0972 -0.2348
H12 H 0.2333 0.0214 -0.1861
C8 C 0.27996(12) 0.1800(3) -0.04973(13)
H13 H 0.3234 0.1629 -0.0378
C9 C 0.19958(15) 0.2330(4) -0.04244(18)
H14 H 0.1757 0.2624 -0.0215
C10 C 0.21288(10) 0.3693(2) -0.22779(13)
C11 C 0.14434(11) 0.4040(3) -0.26908(14)
C12 C 0.11994(12) 0.5366(3) -0.27062(15)
H15 H 0.0732 0.5551 -0.2994
C13 C 0.16778(14) 0.6406(3) -0.22765(16)
C14 C 0.23620(14) 0.6144(3) -0.18421(17)
H16 H 0.2676 0.6863 -0.1548
C15 C 0.25868(12) 0.4779(3) -0.18433(15)
H17 H 0.3055 0.4594 -0.1545
C16 C 0.46518(12) -0.7230(3) -0.50477(14)
C17 C 0.49157(12) -0.6101(3) -0.53529(14)
H18 H 0.5405 -0.5975 -0.4965
H19 H 0.4693 -0.5203 -0.5411
C18 C 0.49703(13) -0.7237(3) -0.69317(17)
H20 H 0.5194 -0.7570 -0.7153
C19 C 0.41896(11) -0.6538(3) -0.68338(14)
H21 H 0.3768 -0.6276 -0.6941
C20 C 0.48968(12) -0.6914(3) -0.41836(14)
H22 H 0.5394 -0.6927 -0.3843
H23 H 0.4736 -0.7660 -0.4004
N11 N 0.49977(11) -0.4338(3) -0.40193(16)
N12 N 0.40974(9) -0.3882(2) -0.39775(12)
C21 C 0.49038(11) -0.8715(2) -0.50597(13)
C22 C 0.55924(11) -0.9048(3) -0.46737(14)
C23 C 0.58458(12) -1.0369(3) -0.46503(15)
H24 H 0.6314 -1.0533 -0.4384
C24 C 0.53753(13) -1.1432(3) -0.50387(15)
C25 C 0.46862(13) -1.1201(3) -0.54420(16)
H25 H 0.4377 -1.1941 -0.5706
C26 C 0.44561(12) -0.9852(3) -0.54519(15)
H26 H 0.3987 -0.9696 -0.5730
Mn1A Mn 0.344690(15) -0.72964(3) -0.868070(17)
Mn1A_2 Mn 0.344690(15) 0.27036(3) 0.131930(17)
N6A N 0.26828(10) -0.2253(2) -0.49828(12)
N9A N 0.42851(10) -0.3011(2) -0.23710(12)
Cl2 Cl 0.32501(4) -0.85170(7) -0.48529(5)
N13 N 0.58486(13) -0.7845(3) -0.13328(16)
O4 O 0.48256(11) -0.8816(3) -0.22853(14)
C27 C 0.5612(2) -0.6400(4) -0.1581(3)
H27 H 0.5205 -0.6401 -0.2116
H28 H 0.5963 -0.5858 -0.1561
H29 H 0.5513 -0.5985 -0.1230
C28 C 0.65573(17) -0.8045(6) -0.0662(2)
H30 H 0.6626 -0.7638 -0.0192
H31 H 0.6855 -0.7588 -0.0772
H32 H 0.6660 -0.9040 -0.0579
C29 C 0.54315(16) -0.8898(4) -0.1713(2)
H33 H 0.5608 -0.9805 -0.1535
O5 O 0.88144(12) -0.1980(3) -0.23357(15)
H34 H 0.8573 -0.1456 -0.2744
H35 H 0.9087 -0.2463 -0.2389
loop_
_geom_bond_atom_site_label_1
_geom_bond_atom_site_label_2
_geom_bond_site_symmetry_1
_geom_bond_site_symmetry_2
Mn1 Cl1 1_555 1_555
F1 C13 1_555 1_555
F2 C11 1_555 1_555
F3 C22 1_555 1_555
F4 C24 1_555 1_555
N1 N2 1_555 1_555
N2 C6 1_555 1_555
N3 Mn1 1_555 1_555
N4 N5 1_555 1_555
N5 C9 1_555 1_555
N6 C8 1_555 1_555
N7 N8 1_555 1_555
N8 C18 1_555 1_555
N9 C18 1_555 1_555
N10 C1 1_555 1_555
C1 H1 1_555 1_555
C2 H2 1_555 1_555
O1 H3 1_555 1_555
O2 H4 1_555 1_555
O3 Mn1 1_555 1_555
H5 O3 1_555 1_555
H6 O3 1_555 1_555
C3 O1 1_555 1_555
C4 N1 1_555 1_555
H7 C4 1_555 1_555
H8 C4 1_555 1_555
C5 N1 1_555 1_555
H9 C5 1_555 1_555
C6 N3 1_555 1_555
H10 C6 1_555 1_555
C7 N4 1_555 1_555
H11 C7 1_555 1_555
H12 C7 1_555 1_555
C8 N4 1_555 1_555
H13 C8 1_555 1_555
C9 N6 1_555 1_555
H14 C9 1_555 1_555
C10 C3 1_555 1_555
C11 C10 1_555 1_555
C12 C11 1_555 1_555
H15 C12 1_555 1_555
C13 C12 1_555 1_555
C14 C13 1_555 1_555
H16 C14 1_555 1_555
C15 C10 1_555 1_555
H17 C15 1_555 1_555
C16 O2 1_555 1_555
C17 N7 1_555 1_555
H18 C17 1_555 1_555
H19 C17 1_555 1_555
C18 H20 1_555 1_555
C19 N7 1_555 1_555
H21 C19 1_555 1_555
C20 N10 1_555 1_555
H22 C20 1_555 1_555
H23 C20 1_555 1_555
N11 N10 1_555 1_555
N12 Mn1 1_555 1_555
C21 C16 1_555 1_555
C22 C21 1_555 1_555
C23 C22 1_555 1_555
H24 C23 1_555 1_555
C24 C23 1_555 1_555
C25 C24 1_555 1_555
H25 C25 1_555 1_555
C26 C21 1_555 1_555
H26 C26 1_555 1_555
N13 C27 1_555 1_555
O4 C29 1_555 1_555
C27 H27 1_555 1_555
H28 C27 1_555 1_555
H29 C27 1_555 1_555
C28 N13 1_555 1_555
H30 C28 1_555 1_555
H31 C28 1_555 1_555
H32 C28 1_555 1_555
C29 N13 1_555 1_555
H33 C29 1_555 1_555
O5 H34 1_555 1_555
H35 O5 1_555 1_555
Mn1A N9 1_555 1_555
Mn1A_2 N6 1_555 1_555
N6A Mn1 1_555 1_555
N9A Mn1 1_555 1_555
N3 C5 1_555 1_555
N9 C19 1_555 1_555
C1 N12 1_555 1_555
C2 N11 1_555 1_555
C2 N12 1_555 1_555
C3 C4 1_555 1_555
C3 C7 1_555 1_555
C14 C15 1_555 1_555
C16 C17 1_555 1_555
C16 C20 1_555 1_555
C25 C26 1_555 1_555

#END
