
#######################################################################
#
#                 Cambridge Crystallographic Data Centre
#                                CCDC 
#
#######################################################################
#
# If this CIF has been generated from an entry in the Cambridge 
# Structural Database, then it will include bibliographic, chemical, 
# crystal, experimental, refinement or atomic coordinate data resulting 
# from the CCDC's data processing and validation procedures.
#
#######################################################################

data_MARWIM
_symmetry_cell_setting           monoclinic
_symmetry_space_group_name_H-M   'P 21/c'
_symmetry_Int_Tables_number      14
_space_group_name_Hall           '-P 2ybc'
loop_
_symmetry_equiv_pos_site_id
_symmetry_equiv_pos_as_xyz
1 x,y,z
2 -x,1/2+y,1/2-z
3 -x,-y,-z
4 x,1/2-y,1/2+z
_cell_length_a                   7.0968(7)
_cell_length_b                   11.2090(11)
_cell_length_c                   20.829(2)
_cell_angle_alpha                90
_cell_angle_beta                 98.302(2)
_cell_angle_gamma                90
_cell_volume                     1639.54
loop_
_atom_site_label
_atom_site_type_symbol
_atom_site_fract_x
_atom_site_fract_y
_atom_site_fract_z
O6 O 0.4355(11) 0.3877(5) 0.3482(3)
H16 H 0.477(12) 0.433(7) 0.316(3)
H17 H 0.305(4) 0.381(11) 0.345(6)
O7 O 0.2645(16) 0.0132(11) 0.9459(6)
H1 H 0.2248 0.0476 0.9118
C17 C 0.485(2) 0.0314(14) 0.9620(6)
H10 H 0.5206 0.1151 0.9631
H11 H 0.5541 -0.0114 0.9323
C17B C 0.515(2) -0.0314(14) 1.0380(6)
Cu1 Cu 0.29467(8) 0.60226(5) 0.18294(3)
O1 O 0.1853(5) 0.7335(3) 0.22586(16)
O2 O -0.0002(5) 0.7850(3) 0.29831(16)
O3 O 0.0572(5) 0.5144(3) 0.22012(17)
O4 O 0.4952(5) 0.5642(3) 0.25668(16)
O5 O 0.6823(5) 0.6611(3) 0.19758(16)
N1 N 0.3632(6) 0.4599(3) 0.13251(18)
N2 N 0.2028(6) 0.6652(3) 0.09321(19)
C1 C 0.4431(8) 0.3584(5) 0.1543(3)
H2 H 0.4813 0.3488 0.1986
C2 C 0.4715(8) 0.2647(5) 0.1121(3)
H3 H 0.5255 0.1935 0.1287
C3 C 0.4207(8) 0.2776(5) 0.0472(3)
H4 H 0.4405 0.2154 0.0194
C4 C 0.3384(7) 0.3843(5) 0.0221(2)
C5 C 0.2801(8) 0.4086(6) -0.0449(3)
H5 H 0.2986 0.3510 -0.0756
C6 C 0.1984(8) 0.5137(6) -0.0649(3)
H6 H 0.1600 0.5261 -0.1090
C7 C 0.1694(7) 0.6061(5) -0.0202(2)
C8 C 0.0877(8) 0.7161(5) -0.0374(3)
H7 H 0.0486 0.7347 -0.0808
C9 C 0.0655(8) 0.7963(5) 0.0099(3)
H8 H 0.0125 0.8707 -0.0012
C10 C 0.1220(8) 0.7675(5) 0.0751(3)
H9 H 0.1016 0.8226 0.1068
C11 C 0.2262(6) 0.5843(4) 0.0462(2)
C12 C 0.3116(7) 0.4735(4) 0.0674(2)
C13 C 0.0686(7) 0.7100(4) 0.2650(2)
C14 C 0.0214(7) 0.5786(4) 0.2759(2)
C15 C -0.1748(8) 0.5569(5) 0.2929(3)
C16 C 0.6598(7) 0.5991(4) 0.2445(2)
H12 H 0.111(6) 0.547(4) 0.312(2)
H13 H -0.183(6) 0.478(4) 0.296(2)
H14 H -0.188(8) 0.593(4) 0.329(3)
H15 H 0.050(7) 0.4351(18) 0.217(2)
C15_2 C 0.8252(8) 0.5569(5) 0.2929(3)
C16_2 C -0.3402(7) 0.5991(4) 0.2445(2)
loop_
_geom_bond_atom_site_label_1
_geom_bond_atom_site_label_2
_geom_bond_site_symmetry_1
_geom_bond_site_symmetry_2
Cu1 O1 1_555 1_555
O1 C13 1_555 1_555
O2 C13 1_555 1_555
O3 Cu1 1_555 1_555
O4 Cu1 1_555 1_555
O5 C16 1_555 1_555
O6 H16 1_555 1_555
O7 H1 1_555 1_555
N1 Cu1 1_555 1_555
N2 Cu1 1_555 1_555
C1 N1 1_555 1_555
H2 C1 1_555 1_555
C2 C1 1_555 1_555
H3 C2 1_555 1_555
C3 C2 1_555 1_555
H4 C3 1_555 1_555
C4 C3 1_555 1_555
C5 C4 1_555 1_555
H5 C5 1_555 1_555
C6 C5 1_555 1_555
H6 C6 1_555 1_555
C7 C6 1_555 1_555
C8 C7 1_555 1_555
H7 C8 1_555 1_555
C9 C8 1_555 1_555
H8 C9 1_555 1_555
C10 N2 1_555 1_555
H9 C10 1_555 1_555
C11 N2 1_555 1_555
C12 N1 1_555 1_555
C13 C14 1_555 1_555
C14 O3 1_555 1_555
C15 C14 1_555 1_555
C16 O4 1_555 1_555
C17 O7 1_555 1_555
H10 C17 1_555 1_555
H11 C17 1_555 1_555
H12 C14 1_555 1_555
H13 C15 1_555 1_555
H14 C15 1_555 1_555
H15 O3 1_555 1_555
H17 O6 1_555 1_555
C15_2 C16 1_555 1_555
C16_2 C15 1_555 1_555
C17B C17 1_555 1_555
C4 C12 1_555 1_555
C7 C11 1_555 1_555
C9 C10 1_555 1_555
C11 C12 1_555 1_555

#END
