
#######################################################################
#
#                 Cambridge Crystallographic Data Centre
#                                CCDC 
#
#######################################################################
#
# If this CIF has been generated from an entry in the Cambridge 
# Structural Database, then it will include bibliographic, chemical, 
# crystal, experimental, refinement or atomic coordinate data resulting 
# from the CCDC's data processing and validation procedures.
#
#######################################################################

data_MASCIT
_symmetry_cell_setting           cubic
_symmetry_space_group_name_H-M   'F -4 3 c'
_symmetry_Int_Tables_number      219
_space_group_name_Hall           'F -4b 2 3'
loop_
_symmetry_equiv_pos_site_id
_symmetry_equiv_pos_as_xyz
1 x,y,z
2 y,-x,1/2-z
3 -x,-y,z
4 -y,x,1/2-z
5 -x,z,1/2-y
6 x,-y,-z
7 -x,-z,1/2+y
8 -z,-y,1/2+x
9 -x,y,-z
10 z,-y,1/2-x
11 z,x,y
12 y,z,x
13 -y,-z,x
14 z,-x,-y
15 -y,z,-x
16 -z,-x,y
17 -z,x,-y
18 y,-z,-x
19 -y,-x,1/2+z
20 y,x,1/2+z
21 x,-z,1/2-y
22 x,z,1/2+y
23 -z,y,1/2-x
24 z,y,1/2+x
25 x,1/2+y,1/2+z
26 y,1/2-x,-z
27 -x,1/2-y,1/2+z
28 -y,1/2+x,-z
29 -x,1/2+z,-y
30 x,1/2-y,1/2-z
31 -x,1/2-z,y
32 -z,1/2-y,x
33 -x,1/2+y,1/2-z
34 z,1/2-y,-x
35 z,1/2+x,1/2+y
36 y,1/2+z,1/2+x
37 -y,1/2-z,1/2+x
38 z,1/2-x,1/2-y
39 -y,1/2+z,1/2-x
40 -z,1/2-x,1/2+y
41 -z,1/2+x,1/2-y
42 y,1/2-z,1/2-x
43 -y,1/2-x,z
44 y,1/2+x,z
45 x,1/2-z,-y
46 x,1/2+z,y
47 -z,1/2+y,-x
48 z,1/2+y,x
49 1/2+x,y,1/2+z
50 1/2+y,-x,-z
51 1/2-x,-y,1/2+z
52 1/2-y,x,-z
53 1/2-x,z,-y
54 1/2+x,-y,1/2-z
55 1/2-x,-z,y
56 1/2-z,-y,x
57 1/2-x,y,1/2-z
58 1/2+z,-y,-x
59 1/2+z,x,1/2+y
60 1/2+y,z,1/2+x
61 1/2-y,-z,1/2+x
62 1/2+z,-x,1/2-y
63 1/2-y,z,1/2-x
64 1/2-z,-x,1/2+y
65 1/2-z,x,1/2-y
66 1/2+y,-z,1/2-x
67 1/2-y,-x,z
68 1/2+y,x,z
69 1/2+x,-z,-y
70 1/2+x,z,y
71 1/2-z,y,-x
72 1/2+z,y,x
73 1/2+x,1/2+y,z
74 1/2+y,1/2-x,1/2-z
75 1/2-x,1/2-y,z
76 1/2-y,1/2+x,1/2-z
77 1/2-x,1/2+z,1/2-y
78 1/2+x,1/2-y,-z
79 1/2-x,1/2-z,1/2+y
80 1/2-z,1/2-y,1/2+x
81 1/2-x,1/2+y,-z
82 1/2+z,1/2-y,1/2-x
83 1/2+z,1/2+x,y
84 1/2+y,1/2+z,x
85 1/2-y,1/2-z,x
86 1/2+z,1/2-x,-y
87 1/2-y,1/2+z,-x
88 1/2-z,1/2-x,y
89 1/2-z,1/2+x,-y
90 1/2+y,1/2-z,-x
91 1/2-y,1/2-x,1/2+z
92 1/2+y,1/2+x,1/2+z
93 1/2+x,1/2-z,1/2-y
94 1/2+x,1/2+z,1/2+y
95 1/2-z,1/2+y,1/2-x
96 1/2+z,1/2+y,1/2+x
_cell_length_a                   35.800(4)
_cell_length_b                   35.800(4)
_cell_length_c                   35.800(4)
_cell_angle_alpha                90
_cell_angle_beta                 90
_cell_angle_gamma                90
_cell_volume                     45882.7
loop_
_atom_site_label
_atom_site_type_symbol
_atom_site_fract_x
_atom_site_fract_y
_atom_site_fract_z
P1 P 0.6154(6) 0.1154(6) 0.8846(6)
F1 F 0.6334(10) 0.1037(10) 0.8453(8)
F2 F 0.6203(10) 0.0797(8) 0.9105(9)
F1MB F 0.6037(10) 0.1547(8) 0.8666(10)
F1JC F 0.6547(8) 0.1334(10) 0.8963(10)
F2MB F 0.5797(8) 0.0895(9) 0.8797(10)
F2JC F 0.5895(9) 0.1203(10) 0.9203(8)
P3 P 0.7500 -0.0981(10) 0.7500
F5 F 0.7500 -0.0535(11) 0.7500
F6 F 0.7681(15) -0.0949(16) 0.7915(8)
F7 F 0.7864(15) -0.093(3) 0.724(2)
F8 F 0.7500 -0.1429(12) 0.7500
F6DB F 0.7319(15) -0.0949(16) 0.7085(8)
F7DB F 0.7136(15) -0.093(3) 0.776(2)
Ag1 Ag 0.74893(17) 0.07900(10) 0.92139(11)
C1 C 0.59597(15) 0.05811(15) 0.9828(2)
C2 C 0.62549(15) 0.07660(17) 0.9999(2)
H1 H 0.6207 0.0965 1.0168
C3 C 0.66206(15) 0.0659(2) 0.9924(3)
C4 C 0.66911(18) 0.0368(2) 0.9678(3)
C5 C 0.6396(2) 0.0183(2) 0.9506(2)
H2 H 0.6444 -0.0017 0.9338
C6 C 0.6030(2) 0.0289(2) 0.9581(2)
C7 C 0.55802(15) 0.0718(2) 1.0018(3)
H3 H 0.5628 0.0836 1.0264
H4 H 0.5403 0.0509 1.0051
C8 C 0.6915(2) 0.1209(4) 1.0216(6)
H5 H 0.6753 0.1375 1.0072
H6 H 0.7164 0.1321 1.0238
H7 H 0.6810 0.1172 1.0466
O1 O 0.6945(2) 0.0851(3) 1.0027(5)
O2 O 0.7061(3) 0.0278(4) 0.9596(4)
C9 C 0.7147(3) -0.0050(5) 0.9406(4)
H8 H 0.6974 -0.0251 0.9486
H9 H 0.7404 -0.0129 0.9470
C10 C 0.7119(11) -0.0003(11) 0.9012(15)
N1 N 0.7234(10) 0.0338(11) 0.8839(7)
C11 C 0.7271(13) 0.0333(16) 0.8460(9)
H10 H 0.7347 0.0555 0.8335
C12 C 0.7197(13) -0.0002(14) 0.8240(15)
H11 H 0.7232 0.0015 0.7978
C13 C 0.7080(12) -0.0341(13) 0.8379(12)
H12 H 0.7029 -0.0557 0.8235
C14 C 0.7951(10) 0.1217(10) 0.9685(10)
H13 H 0.8029 0.1093 0.9464
C6JC C 0.5419(2) 0.1030(2) 0.9711(2)
C7MB C 0.5718(2) -0.0018(3) 0.94198(15)
C10BB C 0.7881(11) 0.0988(15) 0.9997(11)
C13BB C 0.7920(12) 0.1621(12) 0.9659(13)
C14ZA C 0.7049(10) -0.0315(10) 0.8783(10)
P2? P 0.6149(3) 0.1149(3) 1.1149(3)
F3? F 0.6013(9) 0.1312(9) 1.0769(6)
F4? F 0.5848(13) 0.1438(13) 1.1298(17)
C15? C 0.7152(9) -0.0034(13) 0.8982(16)
C16? C 0.7041(9) 0.0249(14) 0.8723(11)
H14? H 0.6949 0.0483 0.8808
C17? C 0.7073(9) 0.0173(17) 0.8342(12)
H15? H 0.6995 0.0358 0.8168
C18? C 0.7213(12) -0.0162(17) 0.8206(16)
H16? H 0.7241 -0.0211 0.7947
C19? C 0.7306(9) -0.0408(16) 0.8467(10)
H17? H 0.7402 -0.0639 0.8380
N2? N 0.7282(9) -0.0371(12) 0.8838(10)
loop_
_geom_bond_atom_site_label_1
_geom_bond_atom_site_label_2
_geom_bond_site_symmetry_1
_geom_bond_site_symmetry_2
Ag1 N1 1_555 1_555
C1 C2 1_555 1_555
C2 H1 1_555 1_555
C3 C2 1_555 1_555
C4 C3 1_555 1_555
C5 C4 1_555 1_555
H2 C5 1_555 1_555
C6 C1 1_555 1_555
C7 C1 1_555 1_555
H3 C7 1_555 1_555
H4 C7 1_555 1_555
C8 H5 1_555 1_555
H6 C8 1_555 1_555
H7 C8 1_555 1_555
O1 C3 1_555 1_555
O2 C4 1_555 1_555
C9 O2 1_555 1_555
H8 C9 1_555 1_555
H9 C9 1_555 1_555
C10 C9 1_555 1_555
N1 C10 1_555 1_555
C11 N1 1_555 1_555
H10 C11 1_555 1_555
C12 C11 1_555 1_555
H11 C12 1_555 1_555
C13 C12 1_555 1_555
H12 C13 1_555 1_555
C14 Ag1 1_555 1_555
H13 C14 1_555 1_555
P1 F1 1_555 1_555
F2 P1 1_555 1_555
P3 F5 1_555 1_555
F6 P3 1_555 1_555
F7 P3 1_555 1_555
F8 P3 1_555 1_555
C6JC C7 1_555 1_555
C7MB C6 1_555 1_555
C10BB C14 1_555 1_555
C13BB C14 1_555 1_555
C14ZA C10 1_555 1_555
F1MB P1 1_555 1_555
F1JC P1 1_555 1_555
F2MB P1 1_555 1_555
F2JC P1 1_555 1_555
F6DB P3 1_555 1_555
F7DB P3 1_555 1_555
C5 C6 1_555 1_555
C8 O1 1_555 1_555
C13 C14ZA 1_555 1_555

#END
