
#######################################################################
#
#                 Cambridge Crystallographic Data Centre
#                                CCDC 
#
#######################################################################
#
# If this CIF has been generated from an entry in the Cambridge 
# Structural Database, then it will include bibliographic, chemical, 
# crystal, experimental, refinement or atomic coordinate data resulting 
# from the CCDC's data processing and validation procedures.
#
#######################################################################

data_MASPOM
_symmetry_cell_setting           triclinic
_symmetry_space_group_name_H-M   'P -1'
_symmetry_Int_Tables_number      2
_space_group_name_Hall           '-P 1'
loop_
_symmetry_equiv_pos_site_id
_symmetry_equiv_pos_as_xyz
1 x,y,z
2 -x,-y,-z
_cell_length_a                   9.745(3)
_cell_length_b                   12.770(4)
_cell_length_c                   13.312(4)
_cell_angle_alpha                113.134(4)
_cell_angle_beta                 104.747(5)
_cell_angle_gamma                97.008(5)
_cell_volume                     1426.55
loop_
_atom_site_label
_atom_site_type_symbol
_atom_site_fract_x
_atom_site_fract_y
_atom_site_fract_z
Tb1 Tb 0.22920(3) 0.53728(3) 0.52564(3)
O1 O 0.0639(5) 0.5191(4) 0.3384(4)
O2 O -0.1770(5) 0.4658(4) 0.3007(3)
O3 O 0.0260(5) 0.3632(4) 0.4588(4)
O4 O -0.1860(5) 0.2631(4) 0.4389(5)
O5 O 0.4130(5) 0.6293(4) 0.4655(4)
O6 O 0.5635(5) 0.5308(4) 0.3916(4)
O7 O 0.2696(5) 0.3680(4) 0.3603(4)
H1 H 0.3561 0.3627 0.3618
H2 H 0.1965 0.3172 0.3041
N1 N 0.4401(6) 0.7244(4) 0.7283(4)
N2 N 1.0316(7) 1.1781(6) 1.1837(5)
F1 F -0.2999(6) 0.3849(5) 0.0621(4)
F2 F -0.2356(4) 0.0320(4) 0.3220(5)
F3 F 0.3545(6) 0.8008(5) 0.4148(5)
C1 C -0.0655(6) 0.5046(5) 0.2820(5)
C2 C -0.0888(6) 0.5400(5) 0.1840(5)
C3 C 0.0089(8) 0.6341(6) 0.1944(6)
H3 H 0.0896 0.6750 0.2615
C4 C -0.0112(10) 0.6689(8) 0.1061(8)
H4 H 0.0543 0.7344 0.1159
C5 C -0.1248(10) 0.6087(8) 0.0063(7)
H5 H -0.1364 0.6320 -0.0527
C6 C -0.2213(9) 0.5150(8) -0.0077(6)
H6 H -0.2992 0.4734 -0.0766
C7 C -0.2047(8) 0.4803(7) 0.0805(6)
C8 C -0.0571(6) 0.2692(5) 0.4411(5)
C9 C 0.0008(6) 0.1623(5) 0.4233(5)
C10 C 0.1500(7) 0.1732(6) 0.4625(6)
H7 H 0.2142 0.2476 0.5007
C11 C 0.2058(8) 0.0745(7) 0.4458(7)
H8 H 0.3064 0.0831 0.4721
C12 C 0.1126(9) -0.0347(7) 0.3908(7)
H9 H 0.1501 -0.1003 0.3808
C13 C -0.0365(9) -0.0488(6) 0.3497(7)
H10 H -0.0999 -0.1235 0.3108
C14 C -0.0898(7) 0.0493(5) 0.3671(6)
C15 C 0.4906(6) 0.6066(5) 0.4015(5)
C16 C 0.4978(6) 0.6739(5) 0.3317(5)
C17 C 0.5786(7) 0.6470(6) 0.2562(5)
H11 H 0.6254 0.5864 0.2487
C18 C 0.5904(8) 0.7090(7) 0.1921(6)
H12 H 0.6449 0.6902 0.1422
C19 C 0.5210(9) 0.7982(7) 0.2027(6)
H13 H 0.5278 0.8393 0.1592
C20 C 0.4420(9) 0.8273(7) 0.2766(7)
H14 H 0.3964 0.8885 0.2839
C21 C 0.4298(7) 0.7654(6) 0.3411(6)
C22 C 0.5004(8) 0.7128(6) 0.8233(6)
H15 H 0.4679 0.6422 0.8252
C23 C 0.6098(8) 0.8007(6) 0.9203(6)
H16 H 0.6497 0.7881 0.9846
C24 C 0.6587(7) 0.9070(6) 0.9206(6)
C25 C 0.5939(8) 0.9194(6) 0.8223(7)
H17 H 0.6225 0.9898 0.8190
C26 C 0.4869(8) 0.8276(6) 0.7289(6)
H18 H 0.4454 0.8381 0.6635
C27 C 0.9212(10) 1.2026(7) 1.1265(8)
H19 H 0.9273 1.2812 1.1429
C28 C 0.7941(9) 1.1201(7) 1.0424(8)
H20 H 0.7188 1.1430 1.0039
C29 C 0.7835(7) 1.0026(6) 1.0181(6)
C30 C 0.9003(8) 0.9764(6) 1.0812(6)
H21 H 0.8975 0.8991 1.0690
C31 C 1.0190(8) 1.0654(7) 1.1613(6)
H22 H 1.0957 1.0462 1.2028
Tb1A Tb -0.22920(3) 0.46272(3) 0.47436(3)
Tb1A_2 Tb 0.77080(3) 0.46272(3) 0.47436(3)
O2A O 0.1770(5) 0.5342(4) 0.6993(3)
O4A O 0.1860(5) 0.7369(4) 0.5611(5)
O6A O 0.4365(5) 0.4692(4) 0.6084(4)
loop_
_geom_bond_atom_site_label_1
_geom_bond_atom_site_label_2
_geom_bond_site_symmetry_1
_geom_bond_site_symmetry_2
Tb1 O1 1_555 1_555
O1 C1 1_555 1_555
O2 C1 1_555 1_555
O3 Tb1 1_555 1_555
O4 C8 1_555 1_555
O5 Tb1 1_555 1_555
O6 C15 1_555 1_555
O7 Tb1 1_555 1_555
H1 O7 1_555 1_555
H2 O7 1_555 1_555
N1 Tb1 1_555 1_555
N2 C27 1_555 1_555
F1 C7 1_555 1_555
F2 C14 1_555 1_555
F3 C21 1_555 1_555
C1 C2 1_555 1_555
C2 C3 1_555 1_555
C3 H3 1_555 1_555
C4 C3 1_555 1_555
H4 C4 1_555 1_555
C5 C4 1_555 1_555
H5 C5 1_555 1_555
C6 C5 1_555 1_555
H6 C6 1_555 1_555
C7 C2 1_555 1_555
C8 O3 1_555 1_555
C9 C8 1_555 1_555
C10 C9 1_555 1_555
H7 C10 1_555 1_555
C11 C10 1_555 1_555
H8 C11 1_555 1_555
C12 C11 1_555 1_555
H9 C12 1_555 1_555
C13 C12 1_555 1_555
H10 C13 1_555 1_555
C14 C9 1_555 1_555
C15 O5 1_555 1_555
C16 C15 1_555 1_555
C17 C16 1_555 1_555
H11 C17 1_555 1_555
C18 C17 1_555 1_555
H12 C18 1_555 1_555
C19 C18 1_555 1_555
H13 C19 1_555 1_555
C20 C19 1_555 1_555
H14 C20 1_555 1_555
C21 C16 1_555 1_555
C22 N1 1_555 1_555
H15 C22 1_555 1_555
C23 C22 1_555 1_555
H16 C23 1_555 1_555
C24 C23 1_555 1_555
C25 C24 1_555 1_555
H17 C25 1_555 1_555
C26 N1 1_555 1_555
H18 C26 1_555 1_555
C27 H19 1_555 1_555
C28 C27 1_555 1_555
H20 C28 1_555 1_555
C29 C24 1_555 1_555
C30 C29 1_555 1_555
H21 C30 1_555 1_555
C31 N2 1_555 1_555
H22 C31 1_555 1_555
Tb1A O2 1_555 1_555
Tb1A_2 O6 1_555 1_555
O2A Tb1 1_555 1_555
O4A Tb1 1_555 1_555
O6A Tb1 1_555 1_555
O4 Tb1A 1_555 1_555
C6 C7 1_555 1_555
C13 C14 1_555 1_555
C20 C21 1_555 1_555
C25 C26 1_555 1_555
C28 C29 1_555 1_555
C30 C31 1_555 1_555

#END
