
#######################################################################
#
#                 Cambridge Crystallographic Data Centre
#                                CCDC 
#
#######################################################################
#
# If this CIF has been generated from an entry in the Cambridge 
# Structural Database, then it will include bibliographic, chemical, 
# crystal, experimental, refinement or atomic coordinate data resulting 
# from the CCDC's data processing and validation procedures.
#
#######################################################################

data_MASSOP
_symmetry_cell_setting           monoclinic
_symmetry_space_group_name_H-M   'C 2/c'
_symmetry_Int_Tables_number      15
_space_group_name_Hall           '-C 2yn'
loop_
_symmetry_equiv_pos_site_id
_symmetry_equiv_pos_as_xyz
1 x,y,z
2 1/2+x,1/2+y,z
3 -x,y,1/2-z
4 1/2-x,1/2+y,1/2-z
5 -x,-y,-z
6 1/2-x,1/2-y,-z
7 x,-y,1/2+z
8 1/2+x,1/2-y,1/2+z
_cell_length_a                   14.927(2)
_cell_length_b                   9.3301(12)
_cell_length_c                   19.464(3)
_cell_angle_alpha                90
_cell_angle_beta                 97.491(2)
_cell_angle_gamma                90
_cell_volume                     2687.62
loop_
_atom_site_label
_atom_site_type_symbol
_atom_site_fract_x
_atom_site_fract_y
_atom_site_fract_z
Cu1 Cu -0.28773(5) -0.15266(8) 0.09815(4)
Cu2 Cu -0.45607(5) 0.39157(8) 0.10084(3)
N1 N -0.3560(3) -0.0002(5) 0.0311(2)
N2 N -0.4174(2) 0.2347(4) 0.03091(19)
N3 N -0.3966(2) 0.2308(4) 0.1700(2)
N4 N -0.3300(3) -0.0001(5) 0.1695(2)
N6 N -0.3819(3) -0.4424(7) 0.1069(3)
C2 C -0.3444(4) -0.3321(7) 0.1048(3)
N7 N -0.1612(4) -0.1221(5) 0.0986(2)
C3 C -0.0817(5) -0.1114(5) 0.0997(2)
C5 C -0.3692(4) 0.0002(7) -0.0384(3)
H1 H -0.3526 -0.0819 -0.0627
C6 C -0.4060(4) 0.1163(6) -0.0755(3)
H2 H -0.4149 0.1160 -0.1247
C7 C -0.4296(3) 0.2338(6) -0.0381(3)
H3 H -0.4552 0.3156 -0.0623
C8 C -0.3837(4) 0.2294(6) 0.2395(3)
H4 H -0.4031 0.3093 0.2639
C9 C -0.3438(4) 0.1173(7) 0.2759(3)
H5 H -0.3341 0.1182 0.3251
C10 C -0.3178(4) 0.0023(7) 0.2388(3)
H6 H -0.2903 -0.0779 0.2632
C11 C -0.3687(3) 0.1156(5) 0.1388(2)
C12 C -0.3817(3) 0.1166(5) 0.0619(2)
Cu2_2 Cu -0.45607(5) -0.60843(8) 0.10084(3)
Cu2A Cu 0.04393(5) -0.10843(8) 0.10084(3)
N6_2 N -0.3819(3) 0.5576(7) 0.1069(3)
C3A C -0.5817(5) 0.3886(5) 0.0997(2)
O1 O -0.3787(7) -0.3578(10) 0.2747(5)
O2? O -0.4617(7) -0.2059(14) 0.2297(6)
N5? N -0.3444(4) -0.3321(7) 0.1048(3)
C1? C -0.3819(3) -0.4424(7) 0.1069(3)
N8? N -0.0817(5) -0.1114(5) 0.0997(2)
C4? C -0.1612(4) -0.1221(5) 0.0986(2)
loop_
_geom_bond_atom_site_label_1
_geom_bond_atom_site_label_2
_geom_bond_site_symmetry_1
_geom_bond_site_symmetry_2
Cu1 N1 1_555 1_555
Cu2 N2 1_555 1_555
N1 C5 1_555 1_555
N2 C7 1_555 1_555
N3 Cu2 1_555 1_555
N4 Cu1 1_555 1_555
N6 C2 1_555 1_555
C2 Cu1 1_555 1_555
N7 Cu1 1_555 1_555
C3 N7 1_555 1_555
C5 H1 1_555 1_555
C6 C5 1_555 1_555
H2 C6 1_555 1_555
C7 C6 1_555 1_555
H3 C7 1_555 1_555
C8 N3 1_555 1_555
H4 C8 1_555 1_555
C9 C8 1_555 1_555
H5 C9 1_555 1_555
C10 N4 1_555 1_555
H6 C10 1_555 1_555
C11 N3 1_555 1_555
C12 N1 1_555 1_555
Cu2_2 N6 1_555 1_555
Cu2A C3 1_555 1_555
N6_2 Cu2 1_555 1_555
C3A Cu2 1_555 1_555
N2 C12 1_555 1_555
N4 C11 1_555 1_555
C9 C10 1_555 1_555
C11 C12 1_555 1_555

#END
