
#######################################################################
#
#                 Cambridge Crystallographic Data Centre
#                                CCDC 
#
#######################################################################
#
# If this CIF has been generated from an entry in the Cambridge 
# Structural Database, then it will include bibliographic, chemical, 
# crystal, experimental, refinement or atomic coordinate data resulting 
# from the CCDC's data processing and validation procedures.
#
#######################################################################

data_MASTIK
_symmetry_cell_setting           orthorhombic
_symmetry_space_group_name_H-M   'P 21 21 21'
_symmetry_Int_Tables_number      19
_space_group_name_Hall           'P 2ac 2ab'
loop_
_symmetry_equiv_pos_site_id
_symmetry_equiv_pos_as_xyz
1 x,y,z
2 1/2-x,-y,1/2+z
3 1/2+x,1/2-y,-z
4 -x,1/2+y,1/2-z
_cell_length_a                   13.749(5)
_cell_length_b                   14.762(5)
_cell_length_c                   19.432(5)
_cell_angle_alpha                90
_cell_angle_beta                 90
_cell_angle_gamma                90
_cell_volume                     3943.97
loop_
_atom_site_label
_atom_site_type_symbol
_atom_site_fract_x
_atom_site_fract_y
_atom_site_fract_z
Cu1 Cu 0.67685(7) -1.34573(8) -1.09920(5)
Cu2 Cu 0.26313(8) -1.64933(10) -0.86800(5)
N1 N 0.4358(5) -1.4374(5) -0.9790(4)
N2 N 0.4250(5) -1.2781(5) -0.9836(4)
N3 N 0.3982(4) -1.3553(6) -0.8776(3)
N4 N 0.4575(4) -1.3619(5) -1.0795(3)
N5 N 0.5696(6) -1.2601(5) -1.1261(4)
N6 N 0.5816(5) -1.4552(5) -1.1242(3)
N7 N 0.4200(5) -1.5106(5) -0.8762(3)
N8 N 0.3266(6) -1.5795(5) -0.7936(4)
N9 N 0.3921(5) -1.6594(6) -0.9128(3)
N10 N 0.3840(5) -1.1997(5) -0.8859(4)
N11 N 0.2914(6) -1.0857(5) -0.9363(4)
N12 N 0.2517(5) -1.1739(5) -0.8123(3)
N13 N 0.6672(7) -1.2585(9) -0.9739(5)
O1 O 0.6427(4) -1.3345(5) -0.9983(3)
O2 O 0.6524(6) -1.2435(6) -0.9123(5)
O3 O 0.7051(6) -1.2051(7) -1.0123(5)
N14 N 0.3259(8) -1.8363(10) -0.8042(5)
O4 O 0.2671(6) -1.7991(6) -0.8419(5)
O5 O 0.3844(8) -1.7908(7) -0.7774(6)
O6 O 0.3267(8) -1.9179(7) -0.7933(7)
N15 N 0.2078(7) -1.6177(10) -0.9994(6)
O7 O 0.2044(5) -1.6856(5) -0.9565(4)
O8 O 0.2295(7) -1.5430(6) -0.9785(6)
O9 O 0.1899(7) -1.6339(8) -1.0592(5)
N16 N 0.0645(9) -1.6293(11) -0.8217(8)
O10 O 0.1289(12) -1.5759(12) -0.8399(8)
O12 O 0.0188(13) -1.6475(13) -0.7747(7)
O13 O 0.0212(13) -1.6303(14) -0.8714(7)
C1 C 0.4380(5) -1.3582(7) -1.0104(4)
C2 C 0.4033(6) -1.2818(7) -0.9169(5)
C3 C 0.4187(6) -1.4296(6) -0.9112(5)
C4 C 0.4766(8) -1.2790(6) -1.1139(4)
C5 C 0.4002(8) -1.2223(7) -1.1306(5)
H1 H 0.3358 -1.2388 -1.1229
C6 C 0.4249(10) -1.1389(9) -1.1598(5)
H2 H 0.3766 -1.0978 -1.1718
C7 C 0.5225(12) -1.1179(7) -1.1706(6)
H3 H 0.5388 -1.0622 -1.1897
C8 C 0.5935(8) -1.1766(8) -1.1540(5)
H4 H 0.6583 -1.1612 -1.1612
C9 C 0.4872(7) -1.4454(6) -1.1102(4)
C10 C 0.6096(6) -1.5345(7) -1.1512(4)
H5 H 0.6742 -1.5414 -1.1641
C11 C 0.5457(9) -1.6074(7) -1.1607(5)
H6 H 0.5681 -1.6626 -1.1775
C12 C 0.4504(8) -1.5955(7) -1.1449(5)
H7 H 0.4060 -1.6422 -1.1517
C13 C 0.4196(6) -1.5123(7) -1.1182(4)
H8 H 0.3549 -1.5029 -1.1062
C14 C 0.3934(7) -1.5174(6) -0.8060(5)
C15 C 0.4396(7) -1.4692(6) -0.7572(5)
H9 H 0.4895 -1.4295 -0.7687
C16 C 0.4109(8) -1.4802(7) -0.6892(5)
H10 H 0.4387 -1.4449 -0.6548
C17 C 0.3439(8) -1.5412(8) -0.6735(5)
H11 H 0.3254 -1.5503 -0.6280
C18 C 0.3021(7) -1.5905(7) -0.7250(6)
H12 H 0.2553 -1.6334 -0.7136
C19 C 0.4533(6) -1.5886(6) -0.9122(4)
C20 C 0.5452(7) -1.5921(7) -0.9423(5)
H13 H 0.5888 -1.5442 -0.9380
C21 C 0.5687(7) -1.6672(7) -0.9776(5)
H14 H 0.6289 -1.6703 -0.9994
C22 C 0.5071(8) -1.7387(7) -0.9823(5)
H15 H 0.5241 -1.7899 -1.0076
C23 C 0.4199(8) -1.7342(7) -0.9493(5)
H16 H 0.3778 -1.7834 -0.9518
C24 C 0.3767(8) -1.1197(6) -0.9266(5)
C25 C 0.2811(8) -1.0132(8) -0.9747(5)
H17 H 0.2198 -0.9877 -0.9803
C26 C 0.3604(10) -0.9746(7) -1.0070(6)
H18 H 0.3522 -0.9244 -1.0353
C27 C 0.4516(9) -1.0107(7) -0.9970(5)
H19 H 0.5058 -0.9860 -1.0185
C28 C 0.4598(7) -1.0834(7) -0.9546(6)
H20 H 0.5204 -1.1081 -0.9448
C29 C 0.3466(7) -1.1961(5) -0.8174(5)
C30 C 0.4046(8) -1.2189(6) -0.7624(6)
H21 H 0.4693 -1.2356 -0.7681
C31 C 0.3617(10) -1.2158(7) -0.6989(6)
H22 H 0.3975 -1.2308 -0.6599
C32 C 0.2656(10) -1.1903(7) -0.6924(5)
H23 H 0.2363 -1.1868 -0.6494
C33 C 0.2153(8) -1.1707(7) -0.7497(5)
H24 H 0.1505 -1.1538 -0.7448
Cu1B Cu 0.17685(7) -1.15427(8) -0.90080(5)
N11B N 0.7914(6) -1.4143(5) -1.0637(4)
N12B N 0.7517(5) -1.3261(5) -1.1877(3)
O14 O 0.6697(7) -1.4355(6) -0.8569(4)
O11? O 0.1486(9) -1.6734(8) -0.8125(6)
loop_
_geom_bond_atom_site_label_1
_geom_bond_atom_site_label_2
_geom_bond_site_symmetry_1
_geom_bond_site_symmetry_2
Cu1 N5 1_555 1_555
Cu2 N8 1_555 1_555
N1 C1 1_555 1_555
N2 C1 1_555 1_555
N3 C2 1_555 1_555
N4 C1 1_555 1_555
N5 C4 1_555 1_555
N6 Cu1 1_555 1_555
N7 C3 1_555 1_555
N8 C14 1_555 1_555
N9 Cu2 1_555 1_555
N10 C2 1_555 1_555
N11 C24 1_555 1_555
N12 C29 1_555 1_555
N13 O1 1_555 1_555
O1 Cu1 1_555 1_555
O2 N13 1_555 1_555
O3 N13 1_555 1_555
N14 O4 1_555 1_555
O4 Cu2 1_555 1_555
O5 N14 1_555 1_555
O6 N14 1_555 1_555
N15 O7 1_555 1_555
O7 Cu2 1_555 1_555
O8 N15 1_555 1_555
O9 N15 1_555 1_555
N16 O10 1_555 1_555
O10 Cu2 1_555 1_555
O12 N16 1_555 1_555
O13 N16 1_555 1_555
C2 N2 1_555 1_555
C3 N1 1_555 1_555
C4 N4 1_555 1_555
C5 C4 1_555 1_555
H1 C5 1_555 1_555
C6 C5 1_555 1_555
H2 C6 1_555 1_555
C7 C6 1_555 1_555
H3 C7 1_555 1_555
C8 N5 1_555 1_555
H4 C8 1_555 1_555
C9 N4 1_555 1_555
C10 N6 1_555 1_555
H5 C10 1_555 1_555
C11 C10 1_555 1_555
H6 C11 1_555 1_555
C12 C11 1_555 1_555
H7 C12 1_555 1_555
C13 C9 1_555 1_555
H8 C13 1_555 1_555
C14 N7 1_555 1_555
C15 C14 1_555 1_555
H9 C15 1_555 1_555
C16 C15 1_555 1_555
H10 C16 1_555 1_555
C17 C16 1_555 1_555
H11 C17 1_555 1_555
C18 N8 1_555 1_555
H12 C18 1_555 1_555
C19 N7 1_555 1_555
C20 C19 1_555 1_555
H13 C20 1_555 1_555
C21 C20 1_555 1_555
H14 C21 1_555 1_555
C22 C21 1_555 1_555
H15 C22 1_555 1_555
C23 N9 1_555 1_555
H16 C23 1_555 1_555
C24 N10 1_555 1_555
C25 N11 1_555 1_555
H17 C25 1_555 1_555
C26 C25 1_555 1_555
H18 C26 1_555 1_555
C27 C26 1_555 1_555
H19 C27 1_555 1_555
C28 C24 1_555 1_555
H20 C28 1_555 1_555
C29 N10 1_555 1_555
C30 C29 1_555 1_555
H21 C30 1_555 1_555
C31 C30 1_555 1_555
H22 C31 1_555 1_555
C32 C31 1_555 1_555
H23 C32 1_555 1_555
C33 N12 1_555 1_555
H24 C33 1_555 1_555
Cu1B N11 1_555 1_555
N11B Cu1 1_555 1_555
N12B Cu1 1_555 1_555
N3 C3 1_555 1_555
N6 C9 1_555 1_555
N9 C19 1_555 1_555
N12 Cu1B 1_555 1_555
C7 C8 1_555 1_555
C12 C13 1_555 1_555
C17 C18 1_555 1_555
C22 C23 1_555 1_555
C27 C28 1_555 1_555
C32 C33 1_555 1_555

#END
