
#######################################################################
#
#                 Cambridge Crystallographic Data Centre
#                                CCDC 
#
#######################################################################
#
# If this CIF has been generated from an entry in the Cambridge 
# Structural Database, then it will include bibliographic, chemical, 
# crystal, experimental, refinement or atomic coordinate data resulting 
# from the CCDC's data processing and validation procedures.
#
#######################################################################

data_MASWAE04
_symmetry_cell_setting           monoclinic
_symmetry_space_group_name_H-M   'C 2/c'
_symmetry_Int_Tables_number      15
_space_group_name_Hall           '-C 2yn'
loop_
_symmetry_equiv_pos_site_id
_symmetry_equiv_pos_as_xyz
1 x,y,z
2 -x,y,1/2-z
3 1/2+x,1/2+y,z
4 1/2-x,1/2+y,1/2-z
5 -x,-y,-z
6 x,-y,1/2+z
7 1/2-x,1/2-y,-z
8 1/2+x,1/2-y,1/2+z
_cell_length_a                   15.4304(14)
_cell_length_b                   12.7150(11)
_cell_length_c                   6.7068(5)
_cell_angle_alpha                90
_cell_angle_beta                 102.1030(10)
_cell_angle_gamma                90
_cell_volume                     1286.61
loop_
_atom_site_label
_atom_site_type_symbol
_atom_site_fract_x
_atom_site_fract_y
_atom_site_fract_z
Zn1 Zn 1.0000 0.27591(2) 0.7500
N1 N 0.91265(10) 0.14688(12) 0.7239(2)
O1 O 1.02346(12) 0.27638(10) 1.0901(2)
O2 O 1.07592(10) 0.41039(11) 1.3427(2)
O3 O 1.09826(9) 0.38546(10) 0.7445(2)
H1 H 1.0957 0.3917 0.6173
H2 H 1.0880 0.4459 0.7886
S1 S 1.0000 0.34310(5) 1.2500
C1 C 0.95061(13) 0.05147(14) 0.7351(3)
C2 C 0.90071(16) -0.04022(16) 0.7191(3)
H3 H 0.9281 -0.1057 0.7271
C3 C 0.80963(16) -0.03228(17) 0.6910(3)
H4 H 0.7749 -0.0926 0.6806
C4 C 0.77037(14) 0.06594(19) 0.6784(3)
H5 H 0.7092 0.0729 0.6589
C5 C 0.82415(13) 0.15309(17) 0.6955(3)
H6 H 0.7980 0.2193 0.6869
Zn1_2 Zn 1.0000 0.27591(2) 1.7500
N1A N 1.08735(10) 0.14688(12) 0.7761(2)
O1A O 0.97654(12) 0.27638(10) 1.4099(2)
O1A_2 O 0.97654(12) 0.27638(10) 0.4099(2)
O2A O 0.92408(10) 0.41039(11) 1.1573(2)
O3A O 0.90174(9) 0.38546(10) 0.7555(2)
H1A H 0.9043 0.3917 0.8827
H2A H 0.9120 0.4459 0.7114
C1A C 1.04939(13) 0.05147(14) 0.7649(3)
C2A C 1.09929(16) -0.04022(16) 0.7809(3)
H3A H 1.0719 -0.1057 0.7729
C3A C 1.19037(16) -0.03228(17) 0.8090(3)
H4A H 1.2251 -0.0926 0.8194
C4A C 1.22963(14) 0.06594(19) 0.8216(3)
H5A H 1.2908 0.0729 0.8411
C5A C 1.17585(13) 0.15309(17) 0.8045(3)
H6A H 1.2020 0.2193 0.8131
loop_
_geom_bond_atom_site_label_1
_geom_bond_atom_site_label_2
_geom_bond_site_symmetry_1
_geom_bond_site_symmetry_2
Zn1 N1 1_555 1_555
N1 C1 1_555 1_555
O1 Zn1 1_555 1_555
O2 S1 1_555 1_555
O3 Zn1 1_555 1_555
H1 O3 1_555 1_555
H2 O3 1_555 1_555
S1 O1 1_555 1_555
C1 C2 1_555 1_555
C2 H3 1_555 1_555
C3 C2 1_555 1_555
H4 C3 1_555 1_555
C4 C3 1_555 1_555
H5 C4 1_555 1_555
C5 N1 1_555 1_555
H6 C5 1_555 1_555
Zn1_2 O1A 1_555 1_555
N1A Zn1 1_555 1_555
O1A S1 1_555 1_555
O1A_2 Zn1 1_555 1_555
O2A S1 1_555 1_555
O3A Zn1 1_555 1_555
H1A O3A 1_555 1_555
H2A O3A 1_555 1_555
C1A C1 1_555 1_555
C2A C1A 1_555 1_555
H3A C2A 1_555 1_555
C3A C2A 1_555 1_555
H4A C3A 1_555 1_555
C4A C3A 1_555 1_555
H5A C4A 1_555 1_555
C5A N1A 1_555 1_555
H6A C5A 1_555 1_555
C4 C5 1_555 1_555
N1A C1A 1_555 1_555
C4A C5A 1_555 1_555

#END
