
#######################################################################
#
#                 Cambridge Crystallographic Data Centre
#                                CCDC 
#
#######################################################################
#
# If this CIF has been generated from an entry in the Cambridge 
# Structural Database, then it will include bibliographic, chemical, 
# crystal, experimental, refinement or atomic coordinate data resulting 
# from the CCDC's data processing and validation procedures.
#
#######################################################################

data_MASWAE05
_symmetry_cell_setting           monoclinic
_symmetry_space_group_name_H-M   'I 2/a'
_symmetry_Int_Tables_number      15
_space_group_name_Hall           '-I 2ya'
loop_
_symmetry_equiv_pos_site_id
_symmetry_equiv_pos_as_xyz
1 x,y,z
2 1/2+x,1/2+y,1/2+z
3 -x,1/2+y,1/2-z
4 1/2-x,y,-z
5 -x,-y,-z
6 1/2-x,1/2-y,1/2-z
7 x,1/2-y,1/2+z
8 1/2+x,-y,z
_cell_length_a                   6.990(3)
_cell_length_b                   12.466(3)
_cell_length_c                   14.876(2)
_cell_angle_alpha                90
_cell_angle_beta                 101.11(3)
_cell_angle_gamma                90
_cell_volume                     1271.96
loop_
_atom_site_label
_atom_site_type_symbol
_atom_site_fract_x
_atom_site_fract_y
_atom_site_fract_z
Zn1 Zn 0.75000 0.22544(5) 1.00000
S1 S 0.25000 0.15388(9) 1.00000
O1 O 0.84689(35) 0.11591(19) 1.09454(16)
O2 O 0.42127(40) 0.21990(22) 1.03418(23)
O3 O 0.29388(37) 0.08385(20) 0.92540(17)
N1 N 0.68339(41) 0.34693(22) 0.91186(18)
C1 C 0.61864(75) 0.34031(50) 0.82119(33)
C2 C 0.57903(64) 0.42675(40) 0.76606(28)
C3 C 0.60746(65) 0.52714(33) 0.80337(28)
C4 C 0.67502(60) 0.53868(29) 0.89754(27)
C5 C 0.71298(48) 0.44582(26) 0.94991(21)
H1 H 0.5904(92) 0.2915(44) 0.8001(44)
H2 H 0.5400(92) 0.4172(50) 0.7199(44)
H3 H 0.5730(67) 0.5748(38) 0.7670(33)
H4 H 0.7080(65) 0.6101(36) 0.9365(30)
Zn1_2 Zn -0.25000 0.22544(5) 1.00000
O1C O 0.65311(35) 0.11591(19) 0.90546(16)
O2C O 0.07873(40) 0.21990(22) 0.96582(23)
O2C_2 O 1.07873(40) 0.21990(22) 0.96582(23)
O3C O 0.20612(37) 0.08385(20) 1.07460(17)
N1C N 0.81661(41) 0.34693(22) 1.08814(18)
C1C C 0.88136(75) 0.34031(50) 1.17881(33)
C2C C 0.92097(64) 0.42675(40) 1.23394(28)
C3C C 0.89254(65) 0.52714(33) 1.19663(28)
C4C C 0.82498(60) 0.53868(29) 1.10246(27)
C5C C 0.78702(48) 0.44582(26) 1.05009(21)
H1C H 0.9096(92) 0.2915(44) 1.1999(44)
H2C H 0.9600(92) 0.4172(50) 1.2801(44)
H3C H 0.9270(67) 0.5748(38) 1.2330(33)
H4C H 0.7920(65) 0.6101(36) 1.0635(30)
loop_
_geom_bond_atom_site_label_1
_geom_bond_atom_site_label_2
_geom_bond_site_symmetry_1
_geom_bond_site_symmetry_2
Zn1 O1 1_555 1_555
S1 O2 1_555 1_555
O2 Zn1 1_555 1_555
O3 S1 1_555 1_555
N1 Zn1 1_555 1_555
C1 N1 1_555 1_555
C2 C1 1_555 1_555
C3 C2 1_555 1_555
C4 C3 1_555 1_555
C5 N1 1_555 1_555
H1 C1 1_555 1_555
H2 C2 1_555 1_555
H3 C3 1_555 1_555
H4 C4 1_555 1_555
Zn1_2 O2C 1_555 1_555
O1C Zn1 1_555 1_555
O2C S1 1_555 1_555
O2C_2 Zn1 1_555 1_555
O3C S1 1_555 1_555
N1C Zn1 1_555 1_555
C1C N1C 1_555 1_555
C2C C1C 1_555 1_555
C3C C2C 1_555 1_555
C4C C3C 1_555 1_555
C5C C5 1_555 1_555
H1C C1C 1_555 1_555
H2C C2C 1_555 1_555
H3C C3C 1_555 1_555
H4C C4C 1_555 1_555
C4 C5 1_555 1_555
N1C C5C 1_555 1_555
C4C C5C 1_555 1_555

#END
