
#######################################################################
#
#                 Cambridge Crystallographic Data Centre
#                                CCDC 
#
#######################################################################
#
# If this CIF has been generated from an entry in the Cambridge 
# Structural Database, then it will include bibliographic, chemical, 
# crystal, experimental, refinement or atomic coordinate data resulting 
# from the CCDC's data processing and validation procedures.
#
#######################################################################

data_MASXEJ
_symmetry_cell_setting           monoclinic
_symmetry_space_group_name_H-M   'P 21/c'
_symmetry_Int_Tables_number      14
_space_group_name_Hall           '-P 2ybc'
loop_
_symmetry_equiv_pos_site_id
_symmetry_equiv_pos_as_xyz
1 x,y,z
2 x,1/2-y,1/2+z
3 -x,-y,-z
4 -x,1/2+y,1/2-z
_cell_length_a                   9.8389(3)
_cell_length_b                   11.2975(5)
_cell_length_c                   14.2340(5)
_cell_angle_alpha                90
_cell_angle_beta                 100.988(2)
_cell_angle_gamma                90
_cell_volume                     1553.17
loop_
_atom_site_label
_atom_site_type_symbol
_atom_site_fract_x
_atom_site_fract_y
_atom_site_fract_z
Cu1 Cu -0.34721(3) -0.11901(3) 0.23482(2)
N1 N -0.1661(2) -0.1825(2) 0.30654(16)
N2 N -0.2543(2) 0.0372(2) 0.27649(16)
N3 N -0.5085(3) -0.0411(3) 0.1574(2)
N4 N -0.7344(4) -0.0117(4) 0.0594(3)
N5 N -0.8077(3) 0.0955(3) -0.0882(2)
N6 N -0.4018(3) -0.2740(3) 0.17018(19)
N7 N -0.5265(3) -0.3472(3) 0.0174(2)
N8 N -0.4486(3) -0.3549(3) -0.1349(2)
C1 C -0.1287(4) -0.2936(3) 0.3242(2)
H1 H -0.1903 -0.3538 0.3007
C2 C 0.0020(4) -0.3229(3) 0.3778(3)
H2 H 0.0252 -0.4020 0.3901
C3 C 0.0940(4) -0.2378(4) 0.4117(2)
H3 H 0.1810 -0.2579 0.4461
C4 C 0.0580(3) -0.1184(3) 0.3948(2)
C5 C 0.1442(3) -0.0193(4) 0.4284(2)
H4 H 0.2334 -0.0329 0.4622
C6 C 0.1002(3) 0.0926(3) 0.4126(2)
H5 H 0.1595 0.1546 0.4356
C7 C -0.0373(3) 0.1188(3) 0.3608(2)
C8 C -0.0919(3) 0.2329(3) 0.3442(2)
H6 H -0.0388 0.2987 0.3667
C9 C -0.2247(3) 0.2463(3) 0.2945(2)
H7 H -0.2625 0.3215 0.2827
C10 C -0.3030(3) 0.1464(3) 0.2616(2)
H8 H -0.3929 0.1568 0.2278
C11 C -0.1220(3) 0.0230(3) 0.32609(18)
C12 C -0.0752(3) -0.0955(3) 0.34204(19)
C13 C -0.6079(4) -0.0209(4) 0.1070(3)
C14 C -0.7620(3) 0.0522(3) -0.0205(2)
C15 C -0.4557(3) -0.3074(3) 0.0962(2)
C16 C -0.4780(3) -0.3492(3) -0.0616(2)
N8A N -0.4486(3) -0.1451(3) 0.3651(2)
Cu1A Cu -0.34721(3) -0.38099(3) -0.26518(2)
loop_
_geom_bond_atom_site_label_1
_geom_bond_atom_site_label_2
_geom_bond_site_symmetry_1
_geom_bond_site_symmetry_2
Cu1 N1 1_555 1_555
N1 C1 1_555 1_555
N2 Cu1 1_555 1_555
N3 Cu1 1_555 1_555
N4 C13 1_555 1_555
N5 C14 1_555 1_555
N6 Cu1 1_555 1_555
N7 C15 1_555 1_555
N8 C16 1_555 1_555
C1 H1 1_555 1_555
C2 C1 1_555 1_555
H2 C2 1_555 1_555
C3 C2 1_555 1_555
H3 C3 1_555 1_555
C4 C3 1_555 1_555
C5 C4 1_555 1_555
H4 C5 1_555 1_555
C6 C5 1_555 1_555
H5 C6 1_555 1_555
C7 C6 1_555 1_555
C8 C7 1_555 1_555
H6 C8 1_555 1_555
C9 C8 1_555 1_555
H7 C9 1_555 1_555
C10 N2 1_555 1_555
H8 C10 1_555 1_555
C11 N2 1_555 1_555
C12 N1 1_555 1_555
C13 N3 1_555 1_555
C14 N4 1_555 1_555
C15 N6 1_555 1_555
C16 N7 1_555 1_555
N8A Cu1 1_555 1_555
Cu1A N8 1_555 1_555
C4 C12 1_555 1_555
C7 C11 1_555 1_555
C9 C10 1_555 1_555
C11 C12 1_555 1_555

#END
