
#######################################################################
#
#                 Cambridge Crystallographic Data Centre
#                                CCDC 
#
#######################################################################
#
# If this CIF has been generated from an entry in the Cambridge 
# Structural Database, then it will include bibliographic, chemical, 
# crystal, experimental, refinement or atomic coordinate data resulting 
# from the CCDC's data processing and validation procedures.
#
#######################################################################

data_MASXIN
_symmetry_cell_setting           orthorhombic
_symmetry_space_group_name_H-M   'P b c a'
_symmetry_Int_Tables_number      61
_space_group_name_Hall           '-P 2ac 2ab'
loop_
_symmetry_equiv_pos_site_id
_symmetry_equiv_pos_as_xyz
1 x,y,z
2 1/2+x,y,1/2-z
3 x,1/2-y,1/2+z
4 1/2-x,1/2+y,z
5 -x,-y,-z
6 1/2-x,-y,1/2+z
7 -x,1/2+y,1/2-z
8 1/2+x,1/2-y,-z
_cell_length_a                   16.4027(6)
_cell_length_b                   8.76805(19)
_cell_length_c                   19.5576(4)
_cell_angle_alpha                90
_cell_angle_beta                 90
_cell_angle_gamma                90
_cell_volume                     2812.77
loop_
_atom_site_label
_atom_site_type_symbol
_atom_site_fract_x
_atom_site_fract_y
_atom_site_fract_z
La1 La 0.230750(11) -0.239490(17) 0.394500(7)
O1 O 0.23399(14) 0.0345(2) 0.46554(10)
O2 O 0.17251(15) -0.1624(2) 0.51232(10)
C1 C 0.1999(2) -0.0290(3) 0.51675(14)
C2 C 0.1943(2) 0.0581(3) 0.58343(14)
H1 H 0.1489 0.1288 0.5807
H2 H 0.2437 0.1177 0.5892
C3 C 0.1829(2) -0.0429(4) 0.64600(14)
H3 H 0.2253 -0.1201 0.6467
H4 H 0.1307 -0.0946 0.6429
C4 C 0.1862(2) 0.0485(3) 0.71220(13)
H5 H 0.2333 0.1153 0.7108
H6 H 0.1379 0.1123 0.7149
C5 C 0.1910(2) -0.0484(3) 0.77637(14)
O3 O 0.21474(15) 0.0148(2) 0.83168(10)
O4 O 0.17286(15) -0.1874(2) 0.77513(10)
O5 O 0.10546(15) -0.0533(2) 0.36388(11)
O6 O 0.14444(16) 0.1725(2) 0.32364(12)
C6 C 0.1013(2) 0.0567(3) 0.31993(17)
C7 C 0.0426(2) 0.0397(4) 0.26031(18)
H7 H 0.0101 0.1317 0.2561
H8 H 0.0058 -0.0447 0.2693
C8 C 0.0878(2) 0.0109(4) 0.19306(19)
H9 H 0.1247 0.0952 0.1845
H10 H 0.1203 -0.0809 0.1976
C9 C 0.0307(3) -0.0067(4) 0.1318(2)
H11 H 0.0632 -0.0306 0.0917
H12 H -0.0052 -0.0926 0.1401
C10 C -0.0206(2) 0.1311(4) 0.11615(15)
O7 O -0.08612(15) 0.1213(2) 0.08452(11)
O8 O 0.00798(16) 0.2592(3) 0.13830(13)
H13 H -0.0278 0.3243 0.1368
O9 O 0.36246(15) -0.1720(3) 0.46230(13)
H14 H 0.4029(13) -0.227(3) 0.463(2)
H15 H 0.3799(19) -0.0881(18) 0.451(2)
O1C O 0.26601(14) -0.4655(2) 0.46554(10)
O3E O 0.28526(15) -0.0148(2) 0.33168(10)
La1C La 0.269250(11) 0.260510(17) 0.394500(7)
O3B O 0.21474(15) -0.5148(2) 0.33168(10)
O4B O 0.17286(15) -0.3126(2) 0.27513(10)
O6C O 0.35556(16) -0.3275(2) 0.32364(12)
O7F O 0.08612(15) -0.3787(2) 0.41548(11)
La1B La 0.230750(11) -0.260510(17) 0.894500(7)
La1E La 0.269250(11) 0.239490(17) 0.894500(7)
La1F La -0.230750(11) 0.260510(17) 0.105500(7)
O10 O 0.0009(2) -0.1482(4) 0.5362(2)
H16 H -0.006(3) -0.0564(14) 0.541(3)
H17 H 0.0500(8) -0.160(6) 0.531(3)
loop_
_geom_bond_atom_site_label_1
_geom_bond_atom_site_label_2
_geom_bond_site_symmetry_1
_geom_bond_site_symmetry_2
La1 O1 1_555 1_555
O1 C1 1_555 1_555
O2 La1 1_555 1_555
C1 O2 1_555 1_555
C2 C1 1_555 1_555
H1 C2 1_555 1_555
H2 C2 1_555 1_555
C3 C2 1_555 1_555
H3 C3 1_555 1_555
H4 C3 1_555 1_555
C4 C3 1_555 1_555
H5 C4 1_555 1_555
H6 C4 1_555 1_555
C5 C4 1_555 1_555
O3 C5 1_555 1_555
O4 C5 1_555 1_555
O5 La1 1_555 1_555
O6 C6 1_555 1_555
C6 O5 1_555 1_555
C7 C6 1_555 1_555
H7 C7 1_555 1_555
H8 C7 1_555 1_555
C8 C7 1_555 1_555
H9 C8 1_555 1_555
H10 C8 1_555 1_555
C9 C8 1_555 1_555
H11 C9 1_555 1_555
H12 C9 1_555 1_555
C10 C9 1_555 1_555
O7 C10 1_555 1_555
O8 C10 1_555 1_555
H13 O8 1_555 1_555
O9 La1 1_555 1_555
H14 O9 1_555 1_555
H15 O9 1_555 1_555
O10 H16 1_555 1_555
H17 O10 1_555 1_555
O1C La1 1_555 1_555
O3E La1 1_555 1_555
La1C O1 1_555 1_555
O3B La1 1_555 1_555
O4B La1 1_555 1_555
O6C La1 1_555 1_555
O7F La1 1_555 1_555
La1B O3 1_555 1_555
La1E O3 1_555 1_555
La1F O7 1_555 1_555
O4 La1B 1_555 1_555
O6 La1C 1_555 1_555
O3E La1C 1_555 1_555

#END
