
#######################################################################
#
#                 Cambridge Crystallographic Data Centre
#                                CCDC 
#
#######################################################################
#
# If this CIF has been generated from an entry in the Cambridge 
# Structural Database, then it will include bibliographic, chemical, 
# crystal, experimental, refinement or atomic coordinate data resulting 
# from the CCDC's data processing and validation procedures.
#
#######################################################################

data_MASXUA
_symmetry_cell_setting           monoclinic
_symmetry_space_group_name_H-M   'P 21'
_symmetry_Int_Tables_number      4
_space_group_name_Hall           'P 2yb'
loop_
_symmetry_equiv_pos_site_id
_symmetry_equiv_pos_as_xyz
1 x,y,z
2 -x,1/2+y,-z
_cell_length_a                   9.5772(6)
_cell_length_b                   9.4446(5)
_cell_length_c                   10.7966(6)
_cell_angle_alpha                90
_cell_angle_beta                 95.039(4)
_cell_angle_gamma                90
_cell_volume                     972.809
loop_
_atom_site_label
_atom_site_type_symbol
_atom_site_fract_x
_atom_site_fract_y
_atom_site_fract_z
Zn1 Zn 0.55713(3) 0.27550(3) 0.91348(2)
O1 O 0.78183(19) 0.40849(18) 0.62276(17)
O2 O 0.5019(2) 0.48495(18) 0.96602(15)
O3 O 0.5103(2) 0.71344(18) 0.91200(16)
O4 O -0.00381(19) 0.33178(19) 0.49437(16)
H1 H -0.0655 0.3490 0.5430
N1 N 0.6422(2) 0.1019(2) 0.7863(2)
N2 N 0.3720(2) 0.1952(2) 0.82422(18)
N3 N 0.7626(2) 0.2213(2) 0.9984(2)
N4 N 0.6250(2) 0.3942(2) 0.7732(2)
C1 C 0.5207(3) 0.0191(3) 0.7330(3)
H2 H 0.5219 -0.0744 0.7747
H3 H 0.5313 0.0023 0.6438
C2 C 0.3800(3) 0.0873(3) 0.7446(2)
C3 C 0.2603(3) 0.0340(3) 0.6765(2)
H4 H 0.2680 -0.0412 0.6190
C4 C 0.1315(3) 0.0917(3) 0.6936(3)
H5 H 0.0490 0.0558 0.6491
C5 C 0.1233(3) 0.2036(3) 0.7769(2)
H6 H 0.0357 0.2453 0.7903
C6 C 0.2455(3) 0.2518(3) 0.8392(2)
H7 H 0.2404 0.3287 0.8953
C7 C 0.7405(3) 0.0133(3) 0.8646(2)
H8 H 0.8083 -0.0307 0.8122
H9 H 0.6879 -0.0636 0.9020
C8 C 0.8201(3) 0.0988(3) 0.9679(3)
C9 C 0.9415(3) 0.0465(3) 1.0308(3)
H10 H 0.9805 -0.0405 1.0064
C10 C 1.0046(3) 0.1218(4) 1.1285(3)
H11 H 1.0870 0.0864 1.1734
C11 C 0.9481(3) 0.2499(3) 1.1618(3)
H12 H 0.9907 0.3044 1.2287
C12 C 0.8261(3) 0.2956(4) 1.0932(2)
H13 H 0.7862 0.3834 1.1147
C13 C 0.7185(3) 0.1799(3) 0.6937(3)
H14 H 0.6822 0.1480 0.6096
H15 H 0.8186 0.1525 0.7055
C14 C 0.7100(3) 0.3405(3) 0.6971(3)
C15 C 0.5994(3) 0.5455(2) 0.7740(2)
H16 H 0.6928 0.5934 0.7788
C16 C 0.5310(2) 0.5838(3) 0.8931(2)
C17 C 0.5151(3) 0.5990(3) 0.6546(2)
H17 H 0.4959 0.7011 0.6652
H18 H 0.5750 0.5899 0.5848
C18 C 0.3769(3) 0.5248(3) 0.6180(2)
C19 C 0.3713(3) 0.3969(3) 0.5522(2)
H19 H 0.4563 0.3512 0.5363
C20 C 0.2444(3) 0.3353(3) 0.5097(2)
H20 H 0.2434 0.2501 0.4628
C21 C 0.1179(3) 0.3985(3) 0.5356(2)
C22 C 0.1215(3) 0.5258(3) 0.6001(2)
H21 H 0.0366 0.5712 0.6166
C23 C 0.2499(3) 0.5871(3) 0.6404(2)
H22 H 0.2507 0.6741 0.6846
Zn1A Zn 0.44287(3) 0.77550(3) 1.08652(2)
O3A O 0.4897(2) 0.21344(18) 1.08800(16)
loop_
_geom_bond_atom_site_label_1
_geom_bond_atom_site_label_2
_geom_bond_site_symmetry_1
_geom_bond_site_symmetry_2
Zn1 O2 1_555 1_555
O1 C14 1_555 1_555
O2 C16 1_555 1_555
O3 C16 1_555 1_555
O4 H1 1_555 1_555
N1 Zn1 1_555 1_555
N2 Zn1 1_555 1_555
N3 Zn1 1_555 1_555
N4 Zn1 1_555 1_555
C1 N1 1_555 1_555
H2 C1 1_555 1_555
H3 C1 1_555 1_555
C2 N2 1_555 1_555
C3 C2 1_555 1_555
H4 C3 1_555 1_555
C4 C3 1_555 1_555
H5 C4 1_555 1_555
C5 C4 1_555 1_555
H6 C5 1_555 1_555
C6 N2 1_555 1_555
H7 C6 1_555 1_555
C7 N1 1_555 1_555
H8 C7 1_555 1_555
H9 C7 1_555 1_555
C8 N3 1_555 1_555
C9 C8 1_555 1_555
H10 C9 1_555 1_555
C10 C9 1_555 1_555
H11 C10 1_555 1_555
C11 C10 1_555 1_555
H12 C11 1_555 1_555
C12 N3 1_555 1_555
H13 C12 1_555 1_555
C13 N1 1_555 1_555
H14 C13 1_555 1_555
H15 C13 1_555 1_555
C14 N4 1_555 1_555
C15 N4 1_555 1_555
H16 C15 1_555 1_555
C16 C15 1_555 1_555
C17 C15 1_555 1_555
H17 C17 1_555 1_555
H18 C17 1_555 1_555
C18 C17 1_555 1_555
C19 C18 1_555 1_555
H19 C19 1_555 1_555
C20 C19 1_555 1_555
H20 C20 1_555 1_555
C21 O4 1_555 1_555
C22 C21 1_555 1_555
H21 C22 1_555 1_555
C23 C18 1_555 1_555
H22 C23 1_555 1_555
Zn1A O3 1_555 1_555
O3A Zn1 1_555 1_555
C1 C2 1_555 1_555
C5 C6 1_555 1_555
C7 C8 1_555 1_555
C11 C12 1_555 1_555
C13 C14 1_555 1_555
C20 C21 1_555 1_555
C22 C23 1_555 1_555

#END
