
#######################################################################
#
#                 Cambridge Crystallographic Data Centre
#                                CCDC 
#
#######################################################################
#
# If this CIF has been generated from an entry in the Cambridge 
# Structural Database, then it will include bibliographic, chemical, 
# crystal, experimental, refinement or atomic coordinate data resulting 
# from the CCDC's data processing and validation procedures.
#
#######################################################################

data_MASYEL
_symmetry_cell_setting           orthorhombic
_symmetry_space_group_name_H-M   'P 21 21 21'
_symmetry_Int_Tables_number      19
_space_group_name_Hall           'P 2ac 2ab'
loop_
_symmetry_equiv_pos_site_id
_symmetry_equiv_pos_as_xyz
1 x,y,z
2 1/2-x,-y,1/2+z
3 -x,1/2+y,1/2-z
4 1/2+x,1/2-y,-z
_cell_length_a                   7.6021(5)
_cell_length_b                   16.2153(8)
_cell_length_c                   23.130(2)
_cell_angle_alpha                90
_cell_angle_beta                 90
_cell_angle_gamma                90
_cell_volume                     2851.24
loop_
_atom_site_label
_atom_site_type_symbol
_atom_site_fract_x
_atom_site_fract_y
_atom_site_fract_z
Zn1 Zn 0.37654(4) 0.465954(17) 0.119266(11)
Na1 Na 1.02038(12) 0.34569(6) 0.01960(4)
N1 N 0.5716(3) 0.55662(12) 0.15818(9)
N2 N 0.3027(3) 0.57345(13) 0.07827(9)
N3 N 0.2738(3) 0.47825(13) 0.20080(8)
N4 N 0.6014(3) 0.41045(12) 0.10422(8)
O1 O 0.9026(2) 0.42251(11) 0.09291(7)
O2 O 0.2823(2) 0.37488(10) 0.06761(7)
O3 O 0.3656(2) 0.26304(10) 0.01933(7)
C1 C 0.5064(3) 0.64070(15) 0.14620(11)
H1 H 0.6078 0.6768 0.1373
H2 H 0.4487 0.6625 0.1814
C2 C 0.3775(4) 0.64436(14) 0.09653(10)
C3 C 0.3322(4) 0.71977(16) 0.07243(11)
H3 H 0.3847 0.7691 0.0864
C4 C 0.2101(4) 0.72301(18) 0.02801(13)
H4 H 0.1773 0.7742 0.0112
C5 C 0.1368(4) 0.64955(17) 0.00855(12)
H5 H 0.0548 0.6497 -0.0224
C6 C 0.1844(4) 0.57632(18) 0.03473(11)
H6 H 0.1323 0.5264 0.0217
C7 C 0.5630(3) 0.53634(18) 0.22036(10)
H7 H 0.6122 0.5825 0.2432
H8 H 0.6347 0.4866 0.2282
C8 C 0.3742(3) 0.52085(14) 0.23842(10)
C9 C 0.3111(3) 0.54630(16) 0.29169(11)
H9 H 0.3836 0.5771 0.3172
C10 C 0.1399(4) 0.52596(17) 0.30713(10)
H10 H 0.0932 0.5433 0.3432
C11 C 0.0378(3) 0.48008(17) 0.26929(11)
H11 H -0.0786 0.4644 0.2794
C12 C 0.1086(3) 0.45757(16) 0.21660(10)
H12 H 0.0385 0.4264 0.1905
C13 C 0.7426(3) 0.53685(16) 0.13197(10)
H13 H 0.8359 0.5443 0.1614
H14 H 0.7658 0.5762 0.1002
C14 C 0.7534(3) 0.44815(15) 0.10790(9)
C15 C 0.5856(3) 0.33010(15) 0.07691(10)
H15 H 0.6712 0.3270 0.0441
C16 C 0.3979(3) 0.32144(15) 0.05256(10)
C17 C 0.6258(4) 0.25879(15) 0.11992(11)
H16 H 0.5945 0.2055 0.1017
H17 H 0.7535 0.2580 0.1284
C18 C 0.5257(4) 0.26797(16) 0.17550(12)
C19 C 0.3596(4) 0.23847(16) 0.18183(12)
H18 H 0.3080 0.2078 0.1512
C20 C 0.2592(4) 0.25269(17) 0.23419(13)
C21 C 0.0908(4) 0.2191(2) 0.24153(14)
H19 H 0.0387 0.1870 0.2117
C22 C 0.0018(5) 0.2331(2) 0.29242(15)
H20 H -0.1115 0.2094 0.2976
C23 C 0.0740(4) 0.2818(2) 0.33730(14)
H21 H 0.0088 0.2915 0.3717
C24 C 0.2375(4) 0.31467(19) 0.33089(13)
H22 H 0.2865 0.3474 0.3609
C25 C 0.3378(4) 0.29986(17) 0.27818(12)
C26 C 0.5118(4) 0.32906(18) 0.27242(12)
H23 H 0.5647 0.3600 0.3027
C27 C 0.6037(4) 0.31253(16) 0.22294(11)
H24 H 0.7220 0.3309 0.2198
S1 S 0.84014(8) 0.49507(4) -0.09070(3)
O4 O 0.9427(3) 0.44258(12) -0.05315(8)
O5 O 0.9107(3) 0.57676(12) -0.09826(8)
O6 O 0.7766(3) 0.45650(13) -0.14263(8)
C28 C 0.6389(4) 0.51492(17) -0.04931(11)
F1 F 0.5286(2) 0.56261(11) -0.07932(7)
F2 F 0.5546(2) 0.44510(11) -0.03667(8)
F3 F 0.6746(2) 0.55406(11) 0.00015(6)
Na1_2 Na 0.02038(12) 0.34569(6) 0.01960(4)
Na1C Na 0.52038(12) 0.15431(6) -0.01960(4)
O2_2 O 1.2823(2) 0.37488(10) 0.06761(7)
O3C O 0.8656(2) 0.23696(10) -0.01933(7)
loop_
_geom_bond_atom_site_label_1
_geom_bond_atom_site_label_2
_geom_bond_site_symmetry_1
_geom_bond_site_symmetry_2
Zn1 N1 1_555 1_555
Na1 O1 1_555 1_555
N1 C1 1_555 1_555
N2 Zn1 1_555 1_555
N3 Zn1 1_555 1_555
N4 Zn1 1_555 1_555
O1 C14 1_555 1_555
O2 Zn1 1_555 1_555
O3 C16 1_555 1_555
C1 H1 1_555 1_555
H2 C1 1_555 1_555
C2 N2 1_555 1_555
C3 C2 1_555 1_555
H3 C3 1_555 1_555
C4 C3 1_555 1_555
H4 C4 1_555 1_555
C5 C4 1_555 1_555
H5 C5 1_555 1_555
C6 N2 1_555 1_555
H6 C6 1_555 1_555
C7 N1 1_555 1_555
H7 C7 1_555 1_555
H8 C7 1_555 1_555
C8 N3 1_555 1_555
C9 C8 1_555 1_555
H9 C9 1_555 1_555
C10 C9 1_555 1_555
H10 C10 1_555 1_555
C11 C10 1_555 1_555
H11 C11 1_555 1_555
C12 N3 1_555 1_555
H12 C12 1_555 1_555
C13 N1 1_555 1_555
H13 C13 1_555 1_555
H14 C13 1_555 1_555
C14 N4 1_555 1_555
C15 N4 1_555 1_555
H15 C15 1_555 1_555
C16 O2 1_555 1_555
C17 C15 1_555 1_555
H16 C17 1_555 1_555
H17 C17 1_555 1_555
C18 C17 1_555 1_555
C19 C18 1_555 1_555
H18 C19 1_555 1_555
C20 C19 1_555 1_555
C21 C20 1_555 1_555
H19 C21 1_555 1_555
C22 C21 1_555 1_555
H20 C22 1_555 1_555
C23 C22 1_555 1_555
H21 C23 1_555 1_555
C24 C23 1_555 1_555
H22 C24 1_555 1_555
C25 C20 1_555 1_555
C26 C25 1_555 1_555
H23 C26 1_555 1_555
C27 C18 1_555 1_555
H24 C27 1_555 1_555
S1 O4 1_555 1_555
O4 Na1 1_555 1_555
O5 S1 1_555 1_555
O6 S1 1_555 1_555
C28 S1 1_555 1_555
F1 C28 1_555 1_555
F2 C28 1_555 1_555
F3 C28 1_555 1_555
Na1_2 O2 1_555 1_555
Na1C O3 1_555 1_555
O2_2 Na1 1_555 1_555
O3C Na1 1_555 1_555
C1 C2 1_555 1_555
C5 C6 1_555 1_555
C7 C8 1_555 1_555
C11 C12 1_555 1_555
C13 C14 1_555 1_555
C15 C16 1_555 1_555
C24 C25 1_555 1_555
C26 C27 1_555 1_555

#END
