
#######################################################################
#
#                 Cambridge Crystallographic Data Centre
#                                CCDC 
#
#######################################################################
#
# If this CIF has been generated from an entry in the Cambridge 
# Structural Database, then it will include bibliographic, chemical, 
# crystal, experimental, refinement or atomic coordinate data resulting 
# from the CCDC's data processing and validation procedures.
#
#######################################################################

data_MATLUP
_symmetry_cell_setting           monoclinic
_symmetry_space_group_name_H-M   'P 21/n'
_symmetry_Int_Tables_number      14
_space_group_name_Hall           '-P 2yn'
loop_
_symmetry_equiv_pos_site_id
_symmetry_equiv_pos_as_xyz
1 x,y,z
2 1/2-x,1/2+y,1/2-z
3 -x,-y,-z
4 1/2+x,1/2-y,1/2+z
_cell_length_a                   18.035(6)
_cell_length_b                   10.279(4)
_cell_length_c                   12.565(4)
_cell_angle_alpha                90
_cell_angle_beta                 109.02(1)
_cell_angle_gamma                90
_cell_volume                     2202.15
loop_
_atom_site_label
_atom_site_type_symbol
_atom_site_fract_x
_atom_site_fract_y
_atom_site_fract_z
Cd1 Cd 0.136689(12) 0.04179(2) 0.662870(18)
Cd2 Cd 0.113570(11) 0.43745(2) 0.829688(17)
Cd3 Cd 0.075920(12) 1.25008(2) 1.152760(17)
O1 O 0.11060(16) 0.1982(2) 0.52757(19)
O2 O 0.13403(13) 0.2902(2) 0.69210(17)
O3 O 0.07116(12) 0.5564(2) 0.65364(17)
O4 O 0.21911(12) 0.5348(2) 0.79151(17)
O5 O 0.27088(12) 0.5598(2) 0.65707(18)
O6 O 0.12898(16) 0.8976(2) 0.5161(2)
O7 O 0.12071(17) 0.8097(2) 0.6700(2)
O8 O 0.11926(13) 1.0589(2) 1.0640(2)
O9 O 0.24881(12) 1.0402(2) 1.1349(2)
O10 O 0.03681(12) 0.8712(2) 0.94239(19)
O11 O 0.15280(12) 0.5848(2) 0.98132(19)
O12 O 0.04413(12) 0.6474(2) 0.85102(18)
O13 O 0.00541(12) 0.6613(2) 1.21169(17)
O14 O -0.04029(12) 0.6647(2) 1.02643(17)
O15 O 0.02989(19) 0.0646(3) 0.7175(3)
O16 O 0.18993(16) 0.2779(2) 0.9383(2)
O17 O 0.08732(14) 1.1267(2) 1.30861(19)
O18 O 0.10798(16) 1.4372(3) 1.2575(2)
O19 O 0.21034(14) 1.2688(3) 1.2009(2)
C1 C 0.12067(16) 0.2991(3) 0.5886(2)
C2 C 0.11724(18) 0.4270(3) 0.5293(2)
C3 C 0.12999(16) 0.5507(3) 0.5997(2)
C4 C 0.21214(16) 0.5494(2) 0.6897(2)
C5 C 0.12088(18) 0.6671(3) 0.5190(2)
C6 C 0.12349(17) 0.7997(3) 0.5720(3)
C7 C 0.18259(16) 0.9960(3) 1.0810(2)
C8 C 0.17816(16) 0.8616(3) 1.0283(3)
C9 C 0.09972(15) 0.7909(3) 1.0092(2)
C10 C 0.09859(16) 0.6661(3) 0.9428(2)
C11 C 0.08835(18) 0.7575(3) 1.1219(3)
C12 C 0.01204(16) 0.6910(3) 1.1166(2)
H1 H 0.072(2) 0.634(5) 0.670(4)
H2 H 0.066(2) 0.432(3) 0.467(3)
H3 H 0.153(2) 0.427(3) 0.492(3)
H4 H 0.068(2) 0.660(4) 0.460(3)
H5 H 0.1589(19) 0.661(3) 0.483(3)
H6 H 0.048(2) 0.935(4) 0.952(4)
H7 H 0.222(2) 0.805(4) 1.075(3)
H8 H 0.186(2) 0.877(4) 0.961(4)
H9 H 0.093(2) 0.828(4) 1.165(3)
H10 H 0.1311(19) 0.702(3) 1.164(3)
H11 H -0.003(3) 0.010(5) 0.704(4)
H12 H 0.011(3) 0.134(6) 0.716(5)
H13 H 0.203(2) 0.226(4) 0.910(4)
H14 H 0.165(3) 0.256(5) 0.973(5)
H15 H 0.128(2) 1.082(4) 1.318(3)
H16 H 0.086(3) 1.154(6) 1.374(5)
H17 H 0.152(2) 1.455(3) 1.288(3)
H18 H 0.081(3) 1.497(5) 1.258(4)
H19 H 0.228(3) 1.196(5) 1.191(4)
H20 H 0.231(3) 1.327(6) 1.179(5)
Cd1A Cd 0.363311(12) 0.54179(2) 0.837130(18)
Cd1_2 Cd 0.136689(12) 1.04179(2) 0.662870(18)
Cd2B Cd -0.113570(11) 0.56255(2) 1.170312(17)
Cd3B Cd -0.075920(12) 0.74992(2) 0.847240(17)
O4A O 0.28089(12) 0.0348(2) 0.70849(17)
O5A O 0.22912(12) 0.0598(2) 0.84293(18)
O6_2 O 0.12898(16) -0.1024(2) 0.5161(2)
O7_2 O 0.12071(17) -0.1903(2) 0.6700(2)
O10B O -0.03681(12) 1.1288(2) 1.05761(19)
O12B O -0.04413(12) 1.3526(2) 1.14898(18)
O13B O -0.00541(12) 0.3387(2) 0.78831(17)
O14B O 0.04029(12) 0.3353(2) 0.97357(17)
O14B_2 O 0.04029(12) 1.3353(2) 0.97357(17)
H6B H -0.048(2) 1.065(4) 1.048(4)
O20 O 0.28642(17) -0.5287(3) 0.1248(2)
H21 H 0.250(3) -0.478(5) 0.095(4)
H22 H 0.300(3) -0.565(5) 0.096(4)
loop_
_geom_bond_atom_site_label_1
_geom_bond_atom_site_label_2
_geom_bond_site_symmetry_1
_geom_bond_site_symmetry_2
Cd1 O1 1_555 1_555
Cd2 O2 1_555 1_555
Cd3 O8 1_555 1_555
O1 C1 1_555 1_555
O2 Cd1 1_555 1_555
O3 Cd2 1_555 1_555
O4 Cd2 1_555 1_555
O5 C4 1_555 1_555
O6 C6 1_555 1_555
O7 C6 1_555 1_555
O8 C7 1_555 1_555
O9 C7 1_555 1_555
O10 C9 1_555 1_555
O11 Cd2 1_555 1_555
O12 Cd2 1_555 1_555
O13 C12 1_555 1_555
O14 C12 1_555 1_555
O15 Cd1 1_555 1_555
O16 Cd2 1_555 1_555
O17 Cd3 1_555 1_555
O18 Cd3 1_555 1_555
O19 Cd3 1_555 1_555
C1 O2 1_555 1_555
C2 C1 1_555 1_555
C3 O3 1_555 1_555
C4 O4 1_555 1_555
C5 C3 1_555 1_555
C6 C5 1_555 1_555
C7 C8 1_555 1_555
C8 C9 1_555 1_555
C9 C10 1_555 1_555
C10 O11 1_555 1_555
C11 C9 1_555 1_555
C12 C11 1_555 1_555
O20 H21 1_555 1_555
H1 O3 1_555 1_555
H2 C2 1_555 1_555
H3 C2 1_555 1_555
H4 C5 1_555 1_555
H5 C5 1_555 1_555
H6 O10 1_555 1_555
H7 C8 1_555 1_555
H8 C8 1_555 1_555
H9 C11 1_555 1_555
H10 C11 1_555 1_555
H11 O15 1_555 1_555
H12 O15 1_555 1_555
H13 O16 1_555 1_555
H14 O16 1_555 1_555
H15 O17 1_555 1_555
H16 O17 1_555 1_555
H17 O18 1_555 1_555
H18 O18 1_555 1_555
H19 O19 1_555 1_555
H20 O19 1_555 1_555
H22 O20 1_555 1_555
Cd1A O4 1_555 1_555
Cd1_2 O6 1_555 1_555
Cd2B O13 1_555 1_555
Cd3B O10 1_555 1_555
O4A Cd1 1_555 1_555
O5A Cd1 1_555 1_555
O6_2 Cd1 1_555 1_555
O7_2 Cd1 1_555 1_555
O10B Cd3 1_555 1_555
O12B Cd3 1_555 1_555
O13B Cd2 1_555 1_555
O14B Cd2 1_555 1_555
O14B_2 Cd3 1_555 1_555
H6B O10B 1_555 1_555
O5 Cd1A 1_555 1_555
O7 Cd1_2 1_555 1_555
O12 C10 1_555 1_555
O12 Cd3B 1_555 1_555
O14 Cd2B 1_555 1_555
O14 Cd3B 1_555 1_555
C2 C3 1_555 1_555
C3 C4 1_555 1_555

#END
