
#######################################################################
#
#                 Cambridge Crystallographic Data Centre
#                                CCDC 
#
#######################################################################
#
# If this CIF has been generated from an entry in the Cambridge 
# Structural Database, then it will include bibliographic, chemical, 
# crystal, experimental, refinement or atomic coordinate data resulting 
# from the CCDC's data processing and validation procedures.
#
#######################################################################

data_MATXIO
_symmetry_cell_setting           triclinic
_symmetry_space_group_name_H-M   'P -1'
_symmetry_Int_Tables_number      2
_space_group_name_Hall           '-P 1'
loop_
_symmetry_equiv_pos_site_id
_symmetry_equiv_pos_as_xyz
1 x,y,z
2 -x,-y,-z
_cell_length_a                   7.574(2)
_cell_length_b                   8.795(3)
_cell_length_c                   14.948(6)
_cell_angle_alpha                78.16(3)
_cell_angle_beta                 79.73(3)
_cell_angle_gamma                81.80(2)
_cell_volume                     953.106
loop_
_atom_site_label
_atom_site_type_symbol
_atom_site_fract_x
_atom_site_fract_y
_atom_site_fract_z
Mn1 Mn 0.32682(4) 0.38983(3) -0.18259(2)
O1 O 0.5992(2) 0.2707(2) -0.22670(13)
N1 N 0.3334(2) 0.5607(2) -0.32060(11)
C1 C 0.3933(3) 0.7015(2) -0.3361(2)
H1 H 0.4277(3) 0.7348(2) -0.2873(2)
C2 C 0.4058(3) 0.7987(3) -0.4210(2)
H2 H 0.4492(3) 0.8952(3) -0.4295(2)
C3 C 0.3535(4) 0.7512(3) -0.4929(2)
H3 H 0.3608(4) 0.8153(3) -0.5510(2)
C4 C 0.2898(3) 0.6076(3) -0.4786(2)
H4 H 0.2529(3) 0.5739(3) -0.5266(2)
C5 C 0.2815(3) 0.5139(2) -0.39108(13)
N2 N 0.2283(2) 0.2788(2) -0.28325(11)
C6 C 0.2188(3) 0.3561(2) -0.36920(14)
C7 C 0.1547(3) 0.2919(3) -0.4329(2)
H5 H 0.1498(3) 0.3466(3) -0.4928(2)
C8 C 0.0988(4) 0.1454(3) -0.4051(2)
H6 H 0.0533(4) 0.1005(3) -0.4461(2)
C9 C 0.1099(3) 0.0648(3) -0.3168(2)
H7 H 0.0730(3) -0.0347(3) -0.2977(2)
C10 C 0.1772(3) 0.1347(2) -0.2566(2)
C11 C 0.2009(3) 0.0576(2) -0.1610(2)
C12 C 0.1703(4) -0.0965(3) -0.1260(2)
H8 H 0.1322(4) -0.1556(3) -0.1624(2)
C13 C 0.1968(4) -0.1613(3) -0.0368(2)
H9 H 0.1777(4) -0.2649(3) -0.0125(2)
C14 C 0.2515(4) -0.0720(3) 0.0157(2)
H10 H 0.2693(4) -0.1135(3) 0.0763(2)
C15 C 0.2799(3) 0.0814(3) -0.0229(2)
H11 H 0.3167(3) 0.1420(3) 0.0130(2)
N3 N 0.2566(2) 0.1459(2) -0.10964(12)
N4 N 0.4858(2) 0.5157(2) -0.12205(13)
C16 C 0.6160(3) 0.5532(2) -0.10866(13)
N5 N 0.7528(2) 0.6073(2) -0.08966(15)
C17 C 0.9169(3) 0.5457(2) -0.11080(13)
N6 N 1.0667(2) 0.5009(2) -0.12528(13)
H12 H 0.6755(36) 0.3306(30) -0.2574(20)
H13 H 0.6122(42) 0.1889(25) -0.2477(20)
N6_2 N 0.0667(2) 0.5009(2) -0.12528(13)
Mn1_2 Mn 1.32682(4) 0.38983(3) -0.18259(2)
N7 N 0.8220(3) 0.5049(2) -0.32033(14)
C18 C 0.8373(3) 0.6337(3) -0.32383(15)
N8 N 0.8705(3) 0.7777(3) -0.3341(2)
C19 C 0.7449(4) 0.8834(3) -0.3082(2)
N9 N 0.6472(4) 0.9880(3) -0.2904(2)
loop_
_geom_bond_atom_site_label_1
_geom_bond_atom_site_label_2
_geom_bond_site_symmetry_1
_geom_bond_site_symmetry_2
Mn1 O1 1_555 1_555
O1 H12 1_555 1_555
N1 Mn1 1_555 1_555
C1 N1 1_555 1_555
H1 C1 1_555 1_555
C2 C1 1_555 1_555
H2 C2 1_555 1_555
C3 C2 1_555 1_555
H3 C3 1_555 1_555
C4 C3 1_555 1_555
H4 C4 1_555 1_555
C5 N1 1_555 1_555
N2 Mn1 1_555 1_555
C6 C5 1_555 1_555
C7 C6 1_555 1_555
H5 C7 1_555 1_555
C8 C7 1_555 1_555
H6 C8 1_555 1_555
C9 C8 1_555 1_555
H7 C9 1_555 1_555
C10 N2 1_555 1_555
C11 C10 1_555 1_555
C12 C11 1_555 1_555
H8 C12 1_555 1_555
C13 C12 1_555 1_555
H9 C13 1_555 1_555
C14 C13 1_555 1_555
H10 C14 1_555 1_555
C15 C14 1_555 1_555
H11 C15 1_555 1_555
N3 Mn1 1_555 1_555
N4 Mn1 1_555 1_555
C16 N4 1_555 1_555
N5 C16 1_555 1_555
C17 N5 1_555 1_555
N6 C17 1_555 1_555
N7 C18 1_555 1_555
C18 N8 1_555 1_555
N8 C19 1_555 1_555
C19 N9 1_555 1_555
H13 O1 1_555 1_555
N6_2 Mn1 1_555 1_555
Mn1_2 N6 1_555 1_555
C4 C5 1_555 1_555
N2 C6 1_555 1_555
C9 C10 1_555 1_555
C11 N3 1_555 1_555
C15 N3 1_555 1_555

#END
