
#######################################################################
#
#                 Cambridge Crystallographic Data Centre
#                                CCDC 
#
#######################################################################
#
# If this CIF has been generated from an entry in the Cambridge 
# Structural Database, then it will include bibliographic, chemical, 
# crystal, experimental, refinement or atomic coordinate data resulting 
# from the CCDC's data processing and validation procedures.
#
#######################################################################

data_MAVJUP
_symmetry_cell_setting           monoclinic
_symmetry_space_group_name_H-M   'P 21/c'
_symmetry_Int_Tables_number      14
_space_group_name_Hall           '-P 2ybc'
loop_
_symmetry_equiv_pos_site_id
_symmetry_equiv_pos_as_xyz
1 x,y,z
2 -x,1/2+y,1/2-z
3 -x,-y,-z
4 x,1/2-y,1/2+z
_cell_length_a                   11.252(3)
_cell_length_b                   13.999(4)
_cell_length_c                   11.315(3)
_cell_angle_alpha                90
_cell_angle_beta                 116.227(4)
_cell_angle_gamma                90
_cell_volume                     1598.81
loop_
_atom_site_label
_atom_site_type_symbol
_atom_site_fract_x
_atom_site_fract_y
_atom_site_fract_z
Ag1 Ag 0.45163(3) 0.84908(2) 0.53293(4)
S1 S 0.64851(9) 0.75144(7) 0.61390(10)
S2 S 0.53469(9) 0.54976(7) 0.84635(10)
N1 N 0.7171(3) 0.4450(2) 1.0205(3)
C1 C 0.7338(4) 0.8664(3) 0.8361(4)
H1 H 0.6460 0.8852 0.8067
C2 C 0.8310(5) 0.9029(3) 0.9523(5)
H2 H 0.8090 0.9470 1.0010
C3 C 0.9602(5) 0.8738(4) 0.9955(5)
H3 H 1.0252 0.8978 1.0742
C4 C 0.9941(5) 0.8106(4) 0.9249(5)
H4 H 1.0819 0.7917 0.9552
C5 C 0.8988(4) 0.7742(3) 0.8080(5)
H5 H 0.9224 0.7314 0.7591
C6 C 0.7680(4) 0.8016(3) 0.7641(4)
C7 C 0.6099(4) 0.6395(2) 0.6714(4)
H6 H 0.5524 0.6015 0.5961
H7 H 0.6910 0.6038 0.7196
C8 C 0.5423(4) 0.6561(3) 0.7597(4)
H8 H 0.4530 0.6791 0.7065
H9 H 0.5899 0.7054 0.8234
C9 C 0.7006(3) 0.5297(3) 0.9609(4)
C10 C 0.8042(4) 0.5935(3) 0.9924(4)
H10 H 0.7903 0.6522 0.9499
C11 C 0.9274(4) 0.5689(3) 1.0873(4)
H11 H 0.9986 0.6104 1.1096
C12 C 0.9441(4) 0.4824(3) 1.1486(4)
H12 H 1.0269 0.4643 1.2134
C13 C 0.8382(4) 0.4229(3) 1.1139(4)
H13 H 0.8503 0.3644 1.1568
Ag1A Ag 0.54837(3) 0.34908(2) 0.96707(4)
N1A N 0.2829(3) 0.9450(2) 0.4795(3)
B1 B 0.3003(4) 0.6556(3) 0.3231(5)
F1 F 0.3003(14) 0.6990(7) 0.4299(11)
F2 F 0.2505(17) 0.5690(7) 0.3170(17)
F3 F 0.2307(13) 0.7049(9) 0.2108(11)
F4 F 0.4300(8) 0.6424(14) 0.3504(15)
F5? F 0.3067(17) 0.6649(16) 0.4465(11)
F6? F 0.2330(17) 0.5794(9) 0.2627(19)
F7? F 0.2272(18) 0.7320(8) 0.2665(15)
F8? F 0.4205(12) 0.6613(17) 0.325(2)
loop_
_geom_bond_atom_site_label_1
_geom_bond_atom_site_label_2
_geom_bond_site_symmetry_1
_geom_bond_site_symmetry_2
Ag1 S1 1_555 1_555
S1 C6 1_555 1_555
S2 C8 1_555 1_555
N1 C9 1_555 1_555
C1 H1 1_555 1_555
C2 C1 1_555 1_555
H2 C2 1_555 1_555
C3 C2 1_555 1_555
H3 C3 1_555 1_555
C4 C3 1_555 1_555
H4 C4 1_555 1_555
C5 C4 1_555 1_555
H5 C5 1_555 1_555
C6 C1 1_555 1_555
C7 S1 1_555 1_555
H6 C7 1_555 1_555
H7 C7 1_555 1_555
C8 C7 1_555 1_555
H8 C8 1_555 1_555
H9 C8 1_555 1_555
C9 S2 1_555 1_555
C10 C9 1_555 1_555
H10 C10 1_555 1_555
C11 C10 1_555 1_555
H11 C11 1_555 1_555
C12 C11 1_555 1_555
H12 C12 1_555 1_555
C13 N1 1_555 1_555
H13 C13 1_555 1_555
B1 F1 1_555 1_555
F2 B1 1_555 1_555
F3 B1 1_555 1_555
F4 B1 1_555 1_555
Ag1A N1 1_555 1_555
N1A Ag1 1_555 1_555
C5 C6 1_555 1_555
C12 C13 1_555 1_555

#END
