
#######################################################################
#
#                 Cambridge Crystallographic Data Centre
#                                CCDC 
#
#######################################################################
#
# If this CIF has been generated from an entry in the Cambridge 
# Structural Database, then it will include bibliographic, chemical, 
# crystal, experimental, refinement or atomic coordinate data resulting 
# from the CCDC's data processing and validation procedures.
#
#######################################################################

data_MAVNUU
_symmetry_cell_setting           orthorhombic
_symmetry_space_group_name_H-M   'P 21 21 2'
_symmetry_Int_Tables_number      18
_space_group_name_Hall           'P 2 2ab'
loop_
_symmetry_equiv_pos_site_id
_symmetry_equiv_pos_as_xyz
1 x,y,z
2 -x,-y,z
3 1/2+x,1/2-y,-z
4 1/2-x,1/2+y,-z
_cell_length_a                   26.9842(8)
_cell_length_b                   31.2626(7)
_cell_length_c                   7.2309(2)
_cell_angle_alpha                90
_cell_angle_beta                 90
_cell_angle_gamma                90
_cell_volume                     6099.96
loop_
_atom_site_label
_atom_site_type_symbol
_atom_site_fract_x
_atom_site_fract_y
_atom_site_fract_z
C1 C -0.0489(5) 0.6556(4) 0.653(2)
C2 C -0.0640(5) 0.6615(4) 0.835(2)
C3 C -0.1035(6) 0.6380(5) 0.9045(15)
C4 C -0.1280(5) 0.6087(4) 0.792(2)
C5 C -0.1128(6) 0.6028(4) 0.610(2)
C6 C -0.0733(6) 0.6262(5) 0.5406(15)
Zn1 Zn -0.03200(12) 0.23786(9) -1.0002(4)
Zn2 Zn -0.45326(18) 0.26906(12) 1.3073(5)
O1 O -0.4349(8) 0.3204(5) 1.140(3)
O2 O -0.0468(7) 0.6935(5) 1.113(2)
O3 O -0.4592(8) 0.2501(5) 1.573(2)
O4 O -0.0491(7) 0.2588(5) -0.733(2)
O5 O -0.0789(6) 0.2967(4) -0.949(2)
O6 O -0.4253(8) 0.7018(6) -0.862(3)
O7 O -0.4790(9) 0.6991(6) -0.644(3)
O8 O -0.3653(9) 0.2597(7) 1.356(3)
C7 C -0.0394(10) 0.6932(7) 0.945(3)
C8 C -0.2016(5) 0.4641(4) -0.0223(18)
C9 C -0.1725(5) 0.4829(3) -0.159(2)
C10 C -0.1455(5) 0.4573(5) -0.2794(16)
C11 C -0.1476(5) 0.4130(4) -0.2639(18)
C12 C -0.1767(6) 0.3943(3) -0.128(2)
C13 C -0.2037(5) 0.4198(5) -0.0068(17)
O9 O -0.0169(6) 0.7249(4) 0.8725(17)
C14 C -0.1229(5) 0.3827(4) -0.402(2)
C15 C -0.1206(6) 0.3915(4) -0.590(3)
C16 C -0.1025(6) 0.3610(5) -0.7124(17)
C17 C -0.0866(6) 0.3216(4) -0.646(2)
C18 C -0.0888(5) 0.3127(4) -0.458(2)
C19 C -0.1070(6) 0.3432(5) -0.3360(16)
C20 C -0.0714(10) 0.2907(8) -0.785(4)
C21 C -0.2610(5) 0.5279(5) -0.0267(19)
C22 C -0.2646(5) 0.5716(5) 0.0049(18)
C23 C -0.2937(6) 0.5969(3) -0.110(2)
C24 C -0.3191(5) 0.5784(5) -0.2572(19)
C25 C -0.3155(5) 0.5346(5) -0.2888(17)
C26 C -0.2864(6) 0.5094(3) -0.174(2)
C27 C -0.2298(9) 0.4952(6) 0.099(3)
C28 C -0.1971(7) 0.5231(4) 0.2378(19)
C29 C -0.1460(7) 0.5268(4) 0.2169(17)
C30 C -0.1189(4) 0.5520(5) 0.339(2)
C31 C -0.1429(6) 0.5736(4) 0.4810(19)
C32 C -0.1939(6) 0.5699(4) 0.5019(16)
C33 C -0.2210(4) 0.5446(5) 0.380(2)
C34 C -0.4371(13) 0.6890(9) -0.723(5)
C35 C -0.2667(6) 0.4702(4) 0.2333(19)
C36 C -0.3178(6) 0.4707(4) 0.2085(16)
C37 C -0.3482(4) 0.4477(5) 0.328(2)
C38 C -0.3275(6) 0.4243(4) 0.4718(18)
C39 C -0.2764(6) 0.4238(4) 0.4966(16)
C40 C -0.2460(4) 0.4468(5) 0.377(2)
O10 O -0.4865(7) 0.3059(5) 0.904(2)
C41 C -0.3752(7) 0.3697(5) 0.9124(16)
C42 C -0.3454(5) 0.3940(5) 0.796(3)
C43 C -0.3595(6) 0.4007(4) 0.613(2)
C44 C -0.4033(7) 0.3830(5) 0.5471(16)
C45 C -0.4331(5) 0.3587(4) 0.664(3)
C46 C -0.4190(6) 0.3520(4) 0.846(2)
C47 C -0.4566(11) 0.3232(9) 0.979(4)
C48 C -0.4140(6) 0.6617(5) -0.412(3)
C49 C -0.3861(9) 0.6337(8) -0.3049(19)
C50 C -0.3530(7) 0.6058(5) -0.389(3)
C51 C -0.3477(6) 0.6058(5) -0.580(3)
C52 C -0.3757(8) 0.6337(7) -0.6874(19)
C53 C -0.4088(6) 0.6617(5) -0.603(3)
Zn1B Zn -0.53200(12) 0.26214(9) 1.0002(4)
Zn1C Zn -0.46800(12) 0.73786(9) -0.9998(4)
Zn1A Zn 0.03200(12) 0.76214(9) 0.9998(4)
Zn2A Zn -0.54674(18) 0.73094(12) -0.6927(5)
Zn2C Zn -0.04674(18) 0.76906(12) 0.6927(5)
O6C O -0.0747(8) 0.2018(6) -1.138(3)
O7A O -0.5210(9) 0.3009(6) 1.356(3)
O9C O -0.4831(6) 0.2249(4) 1.1275(17)
O9A O 0.0169(6) 0.2751(4) -1.1275(17)
O10B O 0.0135(7) 0.1941(5) -0.904(2)
loop_
_geom_bond_atom_site_label_1
_geom_bond_atom_site_label_2
_geom_bond_site_symmetry_1
_geom_bond_site_symmetry_2
C1 C2 1_555 1_555
C2 C3 1_555 1_555
C3 C4 1_555 1_555
C4 C5 1_555 1_555
C5 C6 1_555 1_555
C6 C1 1_555 1_555
Zn1 O4 1_555 1_555
Zn2 O1 1_555 1_555
O1 C47 1_555 1_555
O2 C7 1_555 1_555
O3 Zn2 1_555 1_555
O4 C20 1_555 1_555
O5 Zn1 1_555 1_555
O6 C34 1_555 1_555
O7 C34 1_555 1_555
O8 Zn2 1_555 1_555
C7 C2 1_555 1_555
C8 C9 1_555 1_555
C9 C10 1_555 1_555
C10 C11 1_555 1_555
C11 C12 1_555 1_555
C12 C13 1_555 1_555
C13 C8 1_555 1_555
O9 C7 1_555 1_555
C14 C11 1_555 1_555
C15 C14 1_555 1_555
C16 C15 1_555 1_555
C17 C16 1_555 1_555
C18 C17 1_555 1_555
C19 C14 1_555 1_555
C20 O5 1_555 1_555
C21 C22 1_555 1_555
C22 C23 1_555 1_555
C23 C24 1_555 1_555
C24 C25 1_555 1_555
C25 C26 1_555 1_555
C26 C21 1_555 1_555
C27 C8 1_555 1_555
C28 C27 1_555 1_555
C29 C28 1_555 1_555
C30 C29 1_555 1_555
C31 C5 1_555 1_555
C32 C31 1_555 1_555
C33 C28 1_555 1_555
C34 C53 1_555 1_555
C35 C27 1_555 1_555
C36 C35 1_555 1_555
C37 C36 1_555 1_555
C38 C37 1_555 1_555
C39 C38 1_555 1_555
C40 C35 1_555 1_555
O10 C47 1_555 1_555
C41 C42 1_555 1_555
C42 C43 1_555 1_555
C43 C38 1_555 1_555
C44 C43 1_555 1_555
C45 C44 1_555 1_555
C46 C41 1_555 1_555
C47 C46 1_555 1_555
C48 C49 1_555 1_555
C49 C50 1_555 1_555
C50 C24 1_555 1_555
C51 C50 1_555 1_555
C52 C51 1_555 1_555
C53 C48 1_555 1_555
Zn1B O10 1_555 1_555
Zn1C O6 1_555 1_555
Zn1A O9 1_555 1_555
Zn2A O7 1_555 1_555
Zn2C O9 1_555 1_555
O6C Zn1 1_555 1_555
O7A Zn2 1_555 1_555
O9C Zn2 1_555 1_555
O9A Zn1 1_555 1_555
O10B Zn1 1_555 1_555
C17 C20 1_555 1_555
C18 C19 1_555 1_555
C21 C27 1_555 1_555
C30 C31 1_555 1_555
C32 C33 1_555 1_555
C39 C40 1_555 1_555
C45 C46 1_555 1_555
C52 C53 1_555 1_555
Zn1B O9C 1_555 1_555

#END
