
#######################################################################
#
#                 Cambridge Crystallographic Data Centre
#                                CCDC 
#
#######################################################################
#
# If this CIF has been generated from an entry in the Cambridge 
# Structural Database, then it will include bibliographic, chemical, 
# crystal, experimental, refinement or atomic coordinate data resulting 
# from the CCDC's data processing and validation procedures.
#
#######################################################################

data_MAVRUX
_symmetry_cell_setting           triclinic
_symmetry_space_group_name_H-M   'P -1'
_symmetry_Int_Tables_number      2
_space_group_name_Hall           '-P 1'
loop_
_symmetry_equiv_pos_site_id
_symmetry_equiv_pos_as_xyz
1 x,y,z
2 -x,-y,-z
_cell_length_a                   10.0458(12)
_cell_length_b                   13.136(2)
_cell_length_c                   23.773(3)
_cell_angle_alpha                103.448(11)
_cell_angle_beta                 94.188(9)
_cell_angle_gamma                94.379(7)
_cell_volume                     3028.84
loop_
_atom_site_label
_atom_site_type_symbol
_atom_site_fract_x
_atom_site_fract_y
_atom_site_fract_z
Eu1 Eu 0.54552(9) 0.35238(7) -0.00421(3)
O1 O 0.5677(11) 0.5320(9) 0.0582(4)
O2 O 0.4292(12) 0.2919(9) 0.0625(5)
C1 C 0.5906(17) 0.5439(14) 0.1136(6)
C2 C 0.7230(17) 0.5486(13) 0.1408(7)
C3 C 0.7494(16) 0.5636(13) 0.1970(7)
H1 H 0.8400 0.5678 0.2125
C4 C 0.6478(16) 0.5737(13) 0.2354(7)
H2 H 0.6672 0.5811 0.2759
C5 C 0.5177(15) 0.5723(13) 0.2104(7)
H3 H 0.4463 0.5814 0.2347
C6 C 0.4913(16) 0.5585(14) 0.1535(6)
C7 C 0.8334(17) 0.5326(15) 0.0983(7)
H4 H 0.8277 0.5860 0.0752
H5 H 0.9213 0.5483 0.1218
C8 C 0.8342(17) 0.4287(15) 0.0570(7)
C9 C 0.8045(17) 0.3319(15) 0.0739(7)
H6 H 0.7833 0.3346 0.1125
C10 C 0.8057(19) 0.2352(16) 0.0359(7)
H7 H 0.7860 0.1721 0.0479
C11 C 0.8372(18) 0.2320(17) -0.0220(7)
H8 H 0.8429 0.1662 -0.0482
C12 C 0.8593(19) 0.3229(18) -0.0399(8)
H9 H 0.8751 0.3203 -0.0791
C13 C 0.8585(16) 0.4185(16) -0.0008(6)
H10 H 0.8755 0.4807 -0.0140
C14 C 0.3493(16) 0.5597(15) 0.1258(7)
H11 H 0.3369 0.6322 0.1226
H12 H 0.3409 0.5143 0.0859
C15 C 0.2367(16) 0.5232(15) 0.1582(7)
C16 C 0.1844(17) 0.4161(14) 0.1362(8)
H13 H 0.2133 0.3749 0.1017
C17 C 0.0884(19) 0.3727(19) 0.1670(9)
H14 H 0.0525 0.3015 0.1530
C18 C 0.0478(18) 0.4304(16) 0.2153(9)
H15 H -0.0132 0.3998 0.2368
C19 C 0.0946(17) 0.5340(19) 0.2336(8)
H16 H 0.0605 0.5756 0.2667
C20 C 0.1879(16) 0.5804(16) 0.2066(7)
H17 H 0.2192 0.6525 0.2214
C21 C 0.363(2) 0.2217(15) 0.0866(7)
C22 C 0.2537(18) 0.1603(14) 0.0505(6)
C23 C 0.1730(17) 0.0939(16) 0.0763(8)
H18 H 0.0965 0.0532 0.0540
C24 C 0.2020(19) 0.0865(15) 0.1332(8)
H19 H 0.1467 0.0412 0.1495
C25 C 0.315(2) 0.1473(16) 0.1662(8)
H20 H 0.3387 0.1408 0.2045
C26 C 0.392(2) 0.2165(15) 0.1430(8)
C27 C 0.215(2) 0.1695(16) -0.0114(8)
H21 H 0.1415 0.1143 -0.0292
H22 H 0.1798 0.2385 -0.0094
C28 C 0.3235(16) 0.1598(13) -0.0498(6)
C29 C 0.3275(19) 0.2029(16) -0.0943(7)
H23 H 0.2550 0.2411 -0.1026
C30 C 0.435(2) 0.1954(14) -0.1310(7)
H24 H 0.4383 0.2340 -0.1602
C31 C 0.531(2) 0.1327(17) -0.1233(7)
H25 H 0.5993 0.1211 -0.1492
C32 C 0.529(2) 0.0861(16) -0.0777(8)
H26 H 0.5990 0.0442 -0.0713
C33 C 0.4311(18) 0.0973(15) -0.0412(7)
H27 H 0.4334 0.0638 -0.0098
C34 C 0.512(2) 0.2836(15) 0.1823(7)
H28 H 0.5389 0.3428 0.1650
H29 H 0.4800 0.3142 0.2206
C35 C 0.6338(19) 0.2282(14) 0.1924(6)
C36 C 0.666(2) 0.1464(18) 0.1515(8)
H30 H 0.6130 0.1226 0.1154
C37 C 0.7796(18) 0.0979(16) 0.1633(8)
H31 H 0.8037 0.0411 0.1343
C38 C 0.858(2) 0.1283(16) 0.2148(8)
H32 H 0.9343 0.0936 0.2220
C39 C 0.821(2) 0.2123(18) 0.2564(8)
H33 H 0.8717 0.2347 0.2931
C40 C 0.7093(18) 0.2636(15) 0.2445(7)
H34 H 0.6861 0.3224 0.2724
Eu1A Eu 0.45448(9) 0.64762(7) 0.00421(3)
O1A O 0.4323(11) 0.4680(9) -0.0582(4)
O2A O 0.5708(12) 0.7081(9) -0.0625(5)
C1A C 0.4094(17) 0.4561(14) -0.1136(6)
C2A C 0.2770(17) 0.4514(13) -0.1408(7)
C3A C 0.2506(16) 0.4364(13) -0.1970(7)
H1A H 0.1600 0.4322 -0.2125
C4A C 0.3522(16) 0.4263(13) -0.2354(7)
H2A H 0.3328 0.4189 -0.2759
C5A C 0.4823(15) 0.4277(13) -0.2104(7)
H3A H 0.5537 0.4186 -0.2347
C6A C 0.5087(16) 0.4415(14) -0.1535(6)
C7A C 0.1666(17) 0.4674(15) -0.0983(7)
H4A H 0.1723 0.4140 -0.0752
H5A H 0.0787 0.4517 -0.1218
C8A C 0.1658(17) 0.5713(15) -0.0570(7)
C9A C 0.1955(17) 0.6681(15) -0.0739(7)
H6A H 0.2167 0.6654 -0.1125
C10A C 0.1943(19) 0.7648(16) -0.0359(7)
H7A H 0.2140 0.8279 -0.0479
C11A C 0.1628(18) 0.7680(17) 0.0220(7)
H8A H 0.1571 0.8338 0.0482
C12A C 0.1407(19) 0.6771(18) 0.0399(8)
H9A H 0.1249 0.6797 0.0791
C13A C 0.1415(16) 0.5815(16) 0.0008(6)
H10A H 0.1245 0.5193 0.0140
C14A C 0.6507(16) 0.4403(15) -0.1258(7)
H11A H 0.6631 0.3678 -0.1226
H12A H 0.6591 0.4857 -0.0859
C15A C 0.7633(16) 0.4768(15) -0.1582(7)
C16A C 0.8156(17) 0.5839(14) -0.1362(8)
H13A H 0.7867 0.6251 -0.1017
C17A C 0.9116(19) 0.6273(19) -0.1670(9)
H14A H 0.9475 0.6985 -0.1530
C18A C 0.9522(18) 0.5696(16) -0.2153(9)
H15A H 1.0132 0.6002 -0.2368
C19A C 0.9054(17) 0.4660(19) -0.2336(8)
H16A H 0.9395 0.4244 -0.2667
C20A C 0.8121(16) 0.4196(16) -0.2066(7)
H17A H 0.7808 0.3475 -0.2214
C21A C 0.637(2) 0.7783(15) -0.0866(7)
C22A C 0.7463(18) 0.8397(14) -0.0505(6)
C23A C 0.8270(17) 0.9061(16) -0.0763(8)
H18A H 0.9035 0.9468 -0.0540
C24A C 0.7980(19) 0.9135(15) -0.1332(8)
H19A H 0.8533 0.9588 -0.1495
C25A C 0.685(2) 0.8527(16) -0.1662(8)
H20A H 0.6613 0.8592 -0.2045
C26A C 0.608(2) 0.7835(15) -0.1430(8)
C27A C 0.785(2) 0.8305(16) 0.0114(8)
H21A H 0.8585 0.8857 0.0292
H22A H 0.8202 0.7615 0.0094
C28A C 0.6765(16) 0.8402(13) 0.0498(6)
C29A C 0.6725(19) 0.7971(16) 0.0943(7)
H23A H 0.7450 0.7589 0.1026
C30A C 0.565(2) 0.8046(14) 0.1310(7)
H24A H 0.5617 0.7660 0.1602
C31A C 0.469(2) 0.8673(17) 0.1233(7)
H25A H 0.4007 0.8789 0.1492
C32A C 0.471(2) 0.9139(16) 0.0777(8)
H26A H 0.4010 0.9558 0.0713
C33A C 0.5689(18) 0.9027(15) 0.0412(7)
H27A H 0.5666 0.9362 0.0098
C34A C 0.488(2) 0.7164(15) -0.1823(7)
H28A H 0.4611 0.6572 -0.1650
H29A H 0.5200 0.6858 -0.2206
C35A C 0.3662(19) 0.7718(14) -0.1924(6)
C36A C 0.334(2) 0.8536(18) -0.1515(8)
H30A H 0.3870 0.8774 -0.1154
C37A C 0.2204(18) 0.9021(16) -0.1633(8)
H31A H 0.1963 0.9589 -0.1343
C38A C 0.142(2) 0.8717(16) -0.2148(8)
H32A H 0.0657 0.9064 -0.2220
C39A C 0.179(2) 0.7877(18) -0.2564(8)
H33A H 0.1283 0.7653 -0.2931
C40A C 0.2907(18) 0.7364(15) -0.2445(7)
H34A H 0.3139 0.6776 -0.2724
Eu2 Eu 0.31853(9) 0.91699(7) 0.48472(3)
O3 O 0.5034(10) 0.9904(9) 0.4402(4)
O4 O 0.1554(11) 1.0105(9) 0.4544(5)
C41 C 0.5094(16) 0.9937(14) 0.3854(6)
C42 C 0.5443(17) 0.9074(14) 0.3423(7)
C43 C 0.5663(17) 0.9144(14) 0.2888(7)
H35 H 0.5977 0.8566 0.2629
C44 C 0.5442(19) 1.0041(18) 0.2703(8)
H36 H 0.5536 1.0071 0.2313
C45 C 0.5081(15) 1.0895(15) 0.3103(6)
H37 H 0.4997 1.1538 0.2991
C46 C 0.4844(15) 1.0842(13) 0.3651(6)
C47 C 0.5676(16) 0.8090(14) 0.3660(7)
H38 H 0.6025 0.7561 0.3352
H39 H 0.6382 0.8295 0.3990
C48 C 0.4504(16) 0.7589(13) 0.3856(6)
C49 C 0.3213(17) 0.7607(13) 0.3598(7)
H40 H 0.3105 0.7982 0.3303
C50 C 0.2081(18) 0.7102(16) 0.3754(7)
H41 H 0.1226 0.7136 0.3564
C51 C 0.2183(17) 0.6561(15) 0.4175(7)
H42 H 0.1406 0.6212 0.4277
C52 C 0.3482(17) 0.6521(13) 0.4465(7)
H43 H 0.3571 0.6169 0.4771
C53 C 0.4652(17) 0.7029(13) 0.4280(7)
H44 H 0.5522 0.6978 0.4451
C54 C 0.4313(19) 1.1773(14) 0.4077(7)
H45 H 0.3504 1.1506 0.4232
H46 H 0.5002 1.2047 0.4409
C55 C 0.3971(17) 1.2656(15) 0.3818(7)
C56 C 0.2684(18) 1.2657(16) 0.3593(8)
H47 H 0.2020 1.2133 0.3636
C57 C 0.233(2) 1.3395(19) 0.3306(9)
H48 H 0.1452 1.3366 0.3126
C58 C 0.333(2) 1.4212(16) 0.3285(8)
H49 H 0.3110 1.4722 0.3078
C59 C 0.457(2) 1.4284(17) 0.3547(9)
H50 H 0.5187 1.4872 0.3557
C60 C 0.494(2) 1.3459(15) 0.3814(7)
H51 H 0.5833 1.3464 0.3981
C61 C 0.0602(17) 1.0659(18) 0.4449(7)
C62 C 0.0462(18) 1.1689(13) 0.4768(7)
C63 C -0.0632(18) 1.2214(15) 0.4659(7)
H52 H -0.0666 1.2916 0.4876
C64 C -0.1641(16) 1.1771(15) 0.4261(7)
H53 H -0.2392 1.2145 0.4202
C65 C -0.1577(16) 1.0726(14) 0.3924(6)
H54 H -0.2280 1.0420 0.3630
C66 C -0.0514(17) 1.0142(13) 0.4012(6)
C67 C 0.1694(17) 1.2177(13) 0.5187(7)
H55 H 0.1826 1.1750 0.5475
H56 H 0.2494 1.2152 0.4966
C68 C 0.1589(18) 1.3297(15) 0.5503(7)
C69 C 0.1460(14) 1.3614(14) 0.6094(6)
H57 H 0.1437 1.3107 0.6321
C70 C 0.1363(16) 1.4678(15) 0.6363(7)
H58 H 0.1245 1.4880 0.6765
C71 C 0.1442(17) 1.5437(14) 0.6034(7)
H59 H 0.1335 1.6149 0.6213
C72 C 0.168(2) 1.5160(15) 0.5447(8)
H60 H 0.1812 1.5679 0.5232
C73 C 0.1702(19) 1.4087(18) 0.5188(8)
H61 H 0.1800 1.3882 0.4784
C74 C -0.0511(16) 0.9044(14) 0.3664(7)
H62 H -0.1448 0.8719 0.3580
H63 H -0.0021 0.8641 0.3902
C75 C 0.0115(19) 0.8937(13) 0.3096(6)
C76 C 0.1266(16) 0.9468(15) 0.3027(7)
H64 H 0.1741 0.9966 0.3347
C77 C 0.1751(17) 0.9285(14) 0.2487(7)
H65 H 0.2574 0.9666 0.2456
C78 C 0.1172(17) 0.8628(15) 0.2015(7)
H66 H 0.1560 0.8524 0.1655
C79 C -0.0053(19) 0.8088(16) 0.2070(7)
H67 H -0.0510 0.7615 0.1735
C80 C -0.0635(18) 0.8219(16) 0.2601(7)
H68 H -0.1471 0.7855 0.2632
Eu2A Eu 0.68147(9) 1.08301(7) 0.51528(3)
Eu2A_2 Eu -0.31853(9) 1.08301(7) 0.51528(3)
Eu2_2 Eu 1.31853(9) 0.91699(7) 0.48472(3)
O3A O 0.4966(10) 1.0096(9) 0.5598(4)
O4A O 0.8446(11) 0.9895(9) 0.5456(5)
C41A C 0.4906(16) 1.0063(14) 0.6146(6)
C42A C 0.4557(17) 1.0926(14) 0.6577(7)
C43A C 0.4337(17) 1.0856(14) 0.7112(7)
H35A H 0.4023 1.1434 0.7371
C44A C 0.4558(19) 0.9959(18) 0.7297(8)
H36A H 0.4464 0.9929 0.7687
C45A C 0.4919(15) 0.9105(15) 0.6897(6)
H37A H 0.5003 0.8462 0.7009
C46A C 0.5156(15) 0.9158(13) 0.6349(6)
C47A C 0.4324(16) 1.1910(14) 0.6340(7)
H38A H 0.3975 1.2439 0.6648
H39A H 0.3618 1.1705 0.6010
C48A C 0.5496(16) 1.2411(13) 0.6144(6)
C49A C 0.6787(17) 1.2393(13) 0.6402(7)
H40A H 0.6895 1.2018 0.6697
C50A C 0.7919(18) 1.2898(16) 0.6246(7)
H41A H 0.8774 1.2864 0.6436
C51A C 0.7817(17) 1.3439(15) 0.5825(7)
H42A H 0.8594 1.3788 0.5723
C52A C 0.6518(17) 1.3479(13) 0.5535(7)
H43A H 0.6429 1.3831 0.5229
C53A C 0.5348(17) 1.2971(13) 0.5720(7)
H44A H 0.4478 1.3022 0.5549
C54A C 0.5687(19) 0.8227(14) 0.5923(7)
H45A H 0.6496 0.8494 0.5768
H46A H 0.4998 0.7953 0.5591
C55A C 0.6029(17) 0.7344(15) 0.6182(7)
C56A C 0.7316(18) 0.7343(16) 0.6407(8)
H47A H 0.7980 0.7867 0.6364
C57A C 0.767(2) 0.6605(19) 0.6694(9)
H48A H 0.8548 0.6634 0.6874
C58A C 0.667(2) 0.5788(16) 0.6715(8)
H49A H 0.6890 0.5278 0.6922
C59A C 0.543(2) 0.5716(17) 0.6453(9)
H50A H 0.4813 0.5128 0.6443
C60A C 0.506(2) 0.6541(15) 0.6186(7)
H51A H 0.4167 0.6536 0.6019
C61A C 0.9398(17) 0.9341(18) 0.5551(7)
C62A C 0.9538(18) 0.8311(13) 0.5232(7)
C63A C 1.0632(18) 0.7786(15) 0.5341(7)
H52A H 1.0666 0.7084 0.5124
C64A C 0.1641(16) 0.8229(15) 0.5739(7)
C64_2 C 0.8359(16) 1.1771(15) 0.4261(7)
C64A_2 C 1.1641(16) 0.8229(15) 0.5739(7)
H53A H 0.2392 0.7855 0.5798
H53_2 H 0.7608 1.2145 0.4202
H53A_2 H 1.2392 0.7855 0.5798
C65A C 1.1577(16) 0.9274(14) 0.6076(6)
H54A H 1.2280 0.9580 0.6370
C66A C 1.0514(17) 0.9858(13) 0.5988(6)
C67A C 0.8306(17) 0.7823(13) 0.4813(7)
H55A H 0.8174 0.8250 0.4525
H56A H 0.7506 0.7848 0.5034
C68A C 0.8411(18) 0.6703(15) 0.4497(7)
C69A C 0.8540(14) 0.6386(14) 0.3906(6)
H57A H 0.8563 0.6893 0.3679
C70A C 0.8637(16) 0.5322(15) 0.3637(7)
H58A H 0.8755 0.5120 0.3235
C71A C 0.8558(17) 0.4563(14) 0.3966(7)
H59A H 0.8665 0.3851 0.3787
C72A C 0.832(2) 0.4840(15) 0.4553(8)
H60A H 0.8188 0.4321 0.4768
C73A C 0.8298(19) 0.5913(18) 0.4812(8)
H61A H 0.8200 0.6118 0.5216
C74A C 1.0511(16) 1.0956(14) 0.6336(7)
H62A H 1.1448 1.1281 0.6420
H63A H 1.0021 1.1359 0.6098
C75A C 0.9885(19) 1.1063(13) 0.6904(6)
C76A C 0.8734(16) 1.0532(15) 0.6973(7)
H64A H 0.8259 1.0034 0.6653
C77A C 0.8249(17) 1.0715(14) 0.7513(7)
H65A H 0.7426 1.0334 0.7544
C78A C 0.8828(17) 1.1372(15) 0.7985(7)
H66A H 0.8440 1.1476 0.8345
C79A C 1.0053(19) 1.1912(16) 0.7930(7)
H67A H 1.0510 1.2385 0.8265
C80A C 1.0635(18) 1.1781(16) 0.7399(7)
H68A H 1.1471 1.2145 0.7368
loop_
_geom_bond_atom_site_label_1
_geom_bond_atom_site_label_2
_geom_bond_site_symmetry_1
_geom_bond_site_symmetry_2
Eu1 O1 1_555 1_555
Eu2 O3 1_555 1_555
O1 C1 1_555 1_555
O2 Eu1 1_555 1_555
O3 C41 1_555 1_555
O4 Eu2 1_555 1_555
C1 C2 1_555 1_555
C2 C3 1_555 1_555
C3 H1 1_555 1_555
C4 C3 1_555 1_555
H2 C4 1_555 1_555
C5 C4 1_555 1_555
H3 C5 1_555 1_555
C6 C1 1_555 1_555
C7 C2 1_555 1_555
H4 C7 1_555 1_555
H5 C7 1_555 1_555
C8 Eu1 1_555 1_555
C9 Eu1 1_555 1_555
H6 C9 1_555 1_555
C10 C9 1_555 1_555
H7 C10 1_555 1_555
C11 C10 1_555 1_555
H8 C11 1_555 1_555
C12 C11 1_555 1_555
H9 C12 1_555 1_555
C13 Eu1 1_555 1_555
H10 C13 1_555 1_555
C14 C6 1_555 1_555
H11 C14 1_555 1_555
H12 C14 1_555 1_555
C15 C14 1_555 1_555
C16 C15 1_555 1_555
H13 C16 1_555 1_555
C17 C16 1_555 1_555
H14 C17 1_555 1_555
C18 C17 1_555 1_555
H15 C18 1_555 1_555
C19 C18 1_555 1_555
H16 C19 1_555 1_555
C20 C15 1_555 1_555
H17 C20 1_555 1_555
C21 O2 1_555 1_555
C22 C21 1_555 1_555
C23 C22 1_555 1_555
H18 C23 1_555 1_555
C24 C23 1_555 1_555
H19 C24 1_555 1_555
C25 C24 1_555 1_555
H20 C25 1_555 1_555
C26 C21 1_555 1_555
C27 C22 1_555 1_555
H21 C27 1_555 1_555
H22 C27 1_555 1_555
C28 Eu1 1_555 1_555
C29 Eu1 1_555 1_555
H23 C29 1_555 1_555
C30 C29 1_555 1_555
H24 C30 1_555 1_555
C31 C30 1_555 1_555
H25 C31 1_555 1_555
C32 C31 1_555 1_555
H26 C32 1_555 1_555
C33 C28 1_555 1_555
H27 C33 1_555 1_555
C34 C26 1_555 1_555
H28 C34 1_555 1_555
H29 C34 1_555 1_555
C35 C34 1_555 1_555
C36 C35 1_555 1_555
H30 C36 1_555 1_555
C37 C36 1_555 1_555
H31 C37 1_555 1_555
C38 C37 1_555 1_555
H32 C38 1_555 1_555
C39 C38 1_555 1_555
H33 C39 1_555 1_555
C40 C35 1_555 1_555
H34 C40 1_555 1_555
C41 C42 1_555 1_555
C42 C43 1_555 1_555
C43 H35 1_555 1_555
C44 C43 1_555 1_555
H36 C44 1_555 1_555
C45 C44 1_555 1_555
H37 C45 1_555 1_555
C46 C41 1_555 1_555
C47 C42 1_555 1_555
H38 C47 1_555 1_555
H39 C47 1_555 1_555
C48 Eu2 1_555 1_555
C49 Eu2 1_555 1_555
H40 C49 1_555 1_555
C50 C49 1_555 1_555
H41 C50 1_555 1_555
C51 C50 1_555 1_555
H42 C51 1_555 1_555
C52 C51 1_555 1_555
H43 C52 1_555 1_555
C53 C48 1_555 1_555
H44 C53 1_555 1_555
C54 C46 1_555 1_555
H45 C54 1_555 1_555
H46 C54 1_555 1_555
C55 C54 1_555 1_555
C56 C55 1_555 1_555
H47 C56 1_555 1_555
C57 C56 1_555 1_555
H48 C57 1_555 1_555
C58 C57 1_555 1_555
H49 C58 1_555 1_555
C59 C58 1_555 1_555
H50 C59 1_555 1_555
C60 C55 1_555 1_555
H51 C60 1_555 1_555
C61 O4 1_555 1_555
C62 C61 1_555 1_555
C63 C62 1_555 1_555
H52 C63 1_555 1_555
C64 C63 1_555 1_555
H53 C64 1_555 1_555
C65 C64 1_555 1_555
H54 C65 1_555 1_555
C66 C61 1_555 1_555
C67 C62 1_555 1_555
H55 C67 1_555 1_555
H56 C67 1_555 1_555
C68 C67 1_555 1_555
C69 C68 1_555 1_555
H57 C69 1_555 1_555
C70 C69 1_555 1_555
H58 C70 1_555 1_555
C71 C70 1_555 1_555
H59 C71 1_555 1_555
C72 C71 1_555 1_555
H60 C72 1_555 1_555
C73 C68 1_555 1_555
H61 C73 1_555 1_555
C74 C66 1_555 1_555
H62 C74 1_555 1_555
H63 C74 1_555 1_555
C75 C74 1_555 1_555
C76 C75 1_555 1_555
H64 C76 1_555 1_555
C77 C76 1_555 1_555
H65 C77 1_555 1_555
C78 C77 1_555 1_555
H66 C78 1_555 1_555
C79 C78 1_555 1_555
H67 C79 1_555 1_555
C80 C75 1_555 1_555
H68 C80 1_555 1_555
Eu1A O1 1_555 1_555
Eu2A O3 1_555 1_555
Eu2A_2 C64 1_555 1_555
Eu2_2 C64A_2 1_555 1_555
O1A Eu1 1_555 1_555
O2A Eu1A 1_555 1_555
O3A Eu2 1_555 1_555
O4A Eu2A 1_555 1_555
C1A O1A 1_555 1_555
C2A C1A 1_555 1_555
C3A C2A 1_555 1_555
H1A C3A 1_555 1_555
C4A C3A 1_555 1_555
H2A C4A 1_555 1_555
C5A C4A 1_555 1_555
H3A C5A 1_555 1_555
C6A C1A 1_555 1_555
C7A C2A 1_555 1_555
H4A C7A 1_555 1_555
H5A C7A 1_555 1_555
C8A Eu1A 1_555 1_555
C9A Eu1A 1_555 1_555
H6A C9A 1_555 1_555
C10A C9A 1_555 1_555
H7A C10A 1_555 1_555
C11A C10A 1_555 1_555
H8A C11A 1_555 1_555
C12A C11A 1_555 1_555
H9A C12A 1_555 1_555
C13A Eu1A 1_555 1_555
H10A C13A 1_555 1_555
C14A C6A 1_555 1_555
H11A C14A 1_555 1_555
H12A C14A 1_555 1_555
C15A C14A 1_555 1_555
C16A C15A 1_555 1_555
H13A C16A 1_555 1_555
C17A C16A 1_555 1_555
H14A C17A 1_555 1_555
C18A C17A 1_555 1_555
H15A C18A 1_555 1_555
C19A C18A 1_555 1_555
H16A C19A 1_555 1_555
C20A C15A 1_555 1_555
H17A C20A 1_555 1_555
C21A O2A 1_555 1_555
C22A C21A 1_555 1_555
C23A C22A 1_555 1_555
H18A C23A 1_555 1_555
C24A C23A 1_555 1_555
H19A C24A 1_555 1_555
C25A C24A 1_555 1_555
H20A C25A 1_555 1_555
C26A C21A 1_555 1_555
C27A C22A 1_555 1_555
H21A C27A 1_555 1_555
H22A C27A 1_555 1_555
C28A Eu1A 1_555 1_555
C29A Eu1A 1_555 1_555
H23A C29A 1_555 1_555
C30A C29A 1_555 1_555
H24A C30A 1_555 1_555
C31A C30A 1_555 1_555
H25A C31A 1_555 1_555
C32A C31A 1_555 1_555
H26A C32A 1_555 1_555
C33A C28A 1_555 1_555
H27A C33A 1_555 1_555
C34A C26A 1_555 1_555
H28A C34A 1_555 1_555
H29A C34A 1_555 1_555
C35A C34A 1_555 1_555
C36A C35A 1_555 1_555
H30A C36A 1_555 1_555
C37A C36A 1_555 1_555
H31A C37A 1_555 1_555
C38A C37A 1_555 1_555
H32A C38A 1_555 1_555
C39A C38A 1_555 1_555
H33A C39A 1_555 1_555
C40A C35A 1_555 1_555
H34A C40A 1_555 1_555
C41A O3A 1_555 1_555
C42A C41A 1_555 1_555
C43A C42A 1_555 1_555
H35A C43A 1_555 1_555
C44A C43A 1_555 1_555
H36A C44A 1_555 1_555
C45A C44A 1_555 1_555
H37A C45A 1_555 1_555
C46A C41A 1_555 1_555
C47A C42A 1_555 1_555
H38A C47A 1_555 1_555
H39A C47A 1_555 1_555
C48A Eu2A 1_555 1_555
C49A Eu2A 1_555 1_555
H40A C49A 1_555 1_555
C50A C49A 1_555 1_555
H41A C50A 1_555 1_555
C51A C50A 1_555 1_555
H42A C51A 1_555 1_555
C52A C51A 1_555 1_555
H43A C52A 1_555 1_555
C53A C48A 1_555 1_555
H44A C53A 1_555 1_555
C54A C46A 1_555 1_555
H45A C54A 1_555 1_555
H46A C54A 1_555 1_555
C55A C54A 1_555 1_555
C56A C55A 1_555 1_555
H47A C56A 1_555 1_555
C57A C56A 1_555 1_555
H48A C57A 1_555 1_555
C58A C57A 1_555 1_555
H49A C58A 1_555 1_555
C59A C58A 1_555 1_555
H50A C59A 1_555 1_555
C60A C55A 1_555 1_555
H51A C60A 1_555 1_555
C61A O4A 1_555 1_555
C62A C61A 1_555 1_555
C63A C62A 1_555 1_555
H52A C63A 1_555 1_555
C64A Eu2 1_555 1_555
C64_2 Eu2A 1_555 1_555
C64A_2 C63A 1_555 1_555
H53A C64A 1_555 1_555
H53_2 C64_2 1_555 1_555
H53A_2 C64A_2 1_555 1_555
C65A C64A_2 1_555 1_555
H54A C65A 1_555 1_555
C66A C61A 1_555 1_555
C67A C62A 1_555 1_555
H55A C67A 1_555 1_555
H56A C67A 1_555 1_555
C68A C67A 1_555 1_555
C69A C68A 1_555 1_555
H57A C69A 1_555 1_555
C70A C69A 1_555 1_555
H58A C70A 1_555 1_555
C71A C70A 1_555 1_555
H59A C71A 1_555 1_555
C72A C71A 1_555 1_555
H60A C72A 1_555 1_555
C73A C68A 1_555 1_555
H61A C73A 1_555 1_555
C74A C66A 1_555 1_555
H62A C74A 1_555 1_555
H63A C74A 1_555 1_555
C75A C74A 1_555 1_555
C76A C75A 1_555 1_555
H64A C76A 1_555 1_555
C77A C76A 1_555 1_555
H65A C77A 1_555 1_555
C78A C77A 1_555 1_555
H66A C78A 1_555 1_555
C79A C78A 1_555 1_555
H67A C79A 1_555 1_555
C80A C75A 1_555 1_555
H68A C80A 1_555 1_555
C5 C6 1_555 1_555
C7 C8 1_555 1_555
C8 C9 1_555 1_555
C8 C13 1_555 1_555
C12 C13 1_555 1_555
C19 C20 1_555 1_555
C25 C26 1_555 1_555
C27 C28 1_555 1_555
C28 C29 1_555 1_555
C32 C33 1_555 1_555
C39 C40 1_555 1_555
C45 C46 1_555 1_555
C47 C48 1_555 1_555
C48 C49 1_555 1_555
C52 C53 1_555 1_555
C59 C60 1_555 1_555
C65 C66 1_555 1_555
C72 C73 1_555 1_555
C79 C80 1_555 1_555
Eu1A O1A 1_555 1_555
Eu2A O3A 1_555 1_555
C5A C6A 1_555 1_555
C7A C8A 1_555 1_555
C8A C9A 1_555 1_555
C8A C13A 1_555 1_555
C12A C13A 1_555 1_555
C19A C20A 1_555 1_555
C25A C26A 1_555 1_555
C27A C28A 1_555 1_555
C28A C29A 1_555 1_555
C32A C33A 1_555 1_555
C39A C40A 1_555 1_555
C45A C46A 1_555 1_555
C47A C48A 1_555 1_555
C48A C49A 1_555 1_555
C52A C53A 1_555 1_555
C59A C60A 1_555 1_555
C65A C66A 1_555 1_555
C72A C73A 1_555 1_555
C79A C80A 1_555 1_555

#END
