
#######################################################################
#
#                 Cambridge Crystallographic Data Centre
#                                CCDC 
#
#######################################################################
#
# If this CIF has been generated from an entry in the Cambridge 
# Structural Database, then it will include bibliographic, chemical, 
# crystal, experimental, refinement or atomic coordinate data resulting 
# from the CCDC's data processing and validation procedures.
#
#######################################################################

data_MAVSIM01
_symmetry_cell_setting           monoclinic
_symmetry_space_group_name_H-M   'C 2/c'
_symmetry_Int_Tables_number      15
_space_group_name_Hall           '-C 2yn'
loop_
_symmetry_equiv_pos_site_id
_symmetry_equiv_pos_as_xyz
1 x,y,z
2 1/2+x,1/2+y,z
3 -x,y,1/2-z
4 1/2-x,1/2+y,1/2-z
5 -x,-y,-z
6 1/2-x,1/2-y,-z
7 x,-y,1/2+z
8 1/2+x,1/2-y,1/2+z
_cell_length_a                   22.493(3)
_cell_length_b                   13.6914(19)
_cell_length_c                   12.7681(18)
_cell_angle_alpha                90
_cell_angle_beta                 115.723(3)
_cell_angle_gamma                90
_cell_volume                     3542.42
loop_
_atom_site_label
_atom_site_type_symbol
_atom_site_fract_x
_atom_site_fract_y
_atom_site_fract_z
Co1 Co 0.04706(3) 0.02809(3) 0.39233(5)
O1 O 0.09370(14) 0.11729(18) 0.3270(3)
O2 O 0.02113(14) 0.14110(18) 0.1432(3)
O3 O 0.01465(13) 0.91185(18) 0.1525(2)
O4 O 0.07571(14) 0.95062(17) 0.0601(2)
C1 C 0.05727(19) 0.8928(3) 0.1160(3)
C2 C 0.08975(19) 0.7940(3) 0.1459(3)
C3 C 0.1328(2) 0.7656(3) 0.1015(4)
H1 H 0.1411 0.8073 0.0519
C4 C 0.1640(2) 0.6757(3) 0.1295(5)
H2 H 0.1928 0.6571 0.0984
C5 C 0.1525(2) 0.6150(3) 0.2025(4)
C6 C 0.1097(2) 0.6412(3) 0.2482(5)
H3 H 0.1016 0.5991 0.2977
C7 C 0.0788(2) 0.7311(3) 0.2197(4)
H4 H 0.0501 0.7494 0.2511
O5 O 0.18977(15) 0.5291(2) 0.2353(4)
C8 C 0.1574(2) 0.4425(3) 0.2339(4)
C9 C 0.1907(2) 0.3773(3) 0.3200(4)
H5 H 0.2322 0.3924 0.3781
C10 C 0.1617(2) 0.2879(3) 0.3200(4)
H6 H 0.1840 0.2439 0.3799
C11 C 0.10111(19) 0.2624(2) 0.2344(3)
C12 C 0.0686(2) 0.3290(3) 0.1474(4)
H7 H 0.0274 0.3137 0.0883
C13 C 0.0970(2) 0.4190(3) 0.1478(4)
H8 H 0.0747 0.4636 0.0888
C14 C 0.0690(2) 0.1663(2) 0.2344(4)
N1 N 0.12681(16) -0.0689(2) 0.4356(3)
C15 C 0.1329(2) -0.1422(3) 0.5070(4)
H9 H 0.1034 -0.1457 0.5400
C16 C 0.1802(2) -0.2134(3) 0.5351(4)
H10 H 0.1822 -0.2630 0.5864
C17 C 0.22499(19) -0.2116(3) 0.4875(3)
C18 C 0.2196(2) -0.1333(3) 0.4160(4)
H11 H 0.2491 -0.1266 0.3833
C19 C 0.1711(2) -0.0657(3) 0.3931(4)
H12 H 0.1689 -0.0139 0.3444
Co1B Co -0.04706(3) 0.02809(3) 0.10767(5)
Co1B_2 Co -0.04706(3) 1.02809(3) 0.10767(5)
Co1F Co 0.04706(3) 0.97191(3) -0.10767(5)
Co1E Co 0.45294(3) -0.52809(3) 0.60767(5)
Co1_2 Co 0.04706(3) 1.02809(3) 0.39233(5)
Co1D Co -0.04706(3) 0.97191(3) 0.60767(5)
O1B O -0.09370(14) 0.11729(18) 0.1730(3)
O2B O -0.02113(14) 0.14110(18) 0.3568(3)
O3B O -0.01465(13) 0.91185(18) 0.3475(2)
O3B_2 O -0.01465(13) -0.08815(18) 0.3475(2)
O3_2 O 0.01465(13) -0.08815(18) 0.1525(2)
O4B O -0.07571(14) 0.95062(17) 0.4399(2)
O4F O 0.07571(14) 0.04938(17) 0.5601(2)
O4D O -0.07571(14) 0.04938(17) -0.0601(2)
C1B C -0.05727(19) 0.8928(3) 0.3840(3)
C2B C -0.08975(19) 0.7940(3) 0.3541(3)
C3B C -0.1328(2) 0.7656(3) 0.3985(4)
H1B H -0.1411 0.8073 0.4481
C4B C -0.1640(2) 0.6757(3) 0.3705(5)
H2B H -0.1928 0.6571 0.4016
C5B C -0.1525(2) 0.6150(3) 0.2975(4)
C6B C -0.1097(2) 0.6412(3) 0.2518(5)
H3B H -0.1016 0.5991 0.2023
C7B C -0.0788(2) 0.7311(3) 0.2803(4)
H4B H -0.0501 0.7494 0.2489
O5B O -0.18977(15) 0.5291(2) 0.2647(4)
C8B C -0.1574(2) 0.4425(3) 0.2661(4)
C9B C -0.1907(2) 0.3773(3) 0.1800(4)
H5B H -0.2322 0.3924 0.1219
C10B C -0.1617(2) 0.2879(3) 0.1800(4)
H6B H -0.1840 0.2439 0.1201
C11B C -0.10111(19) 0.2624(2) 0.2656(3)
C12B C -0.0686(2) 0.3290(3) 0.3526(4)
H7B H -0.0274 0.3137 0.4117
C13B C -0.0970(2) 0.4190(3) 0.3522(4)
H8B H -0.0747 0.4636 0.4112
C14B C -0.0690(2) 0.1663(2) 0.2656(4)
N1E N 0.37319(16) -0.4311(2) 0.5644(3)
N1B N -0.12681(16) -0.0689(2) 0.0644(3)
C15E C 0.3671(2) -0.3578(3) 0.4930(4)
H9E H 0.3966 -0.3543 0.4600
C16E C 0.3198(2) -0.2866(3) 0.4649(4)
H10E H 0.3178 -0.2370 0.4136
C17E C 0.27501(19) -0.2884(3) 0.5125(3)
C18E C 0.2804(2) -0.3667(3) 0.5840(4)
H11E H 0.2509 -0.3734 0.6167
C19E C 0.3289(2) -0.4343(3) 0.6069(4)
H12E H 0.3311 -0.4861 0.6556
loop_
_geom_bond_atom_site_label_1
_geom_bond_atom_site_label_2
_geom_bond_site_symmetry_1
_geom_bond_site_symmetry_2
Co1 O1 1_555 1_555
O1 C14 1_555 1_555
O2 C14 1_555 1_555
O3 C1 1_555 1_555
O4 C1 1_555 1_555
C1 C2 1_555 1_555
C2 C3 1_555 1_555
C3 H1 1_555 1_555
C4 C3 1_555 1_555
H2 C4 1_555 1_555
C5 C4 1_555 1_555
C6 C5 1_555 1_555
H3 C6 1_555 1_555
C7 C2 1_555 1_555
H4 C7 1_555 1_555
O5 C5 1_555 1_555
C8 O5 1_555 1_555
C9 C8 1_555 1_555
H5 C9 1_555 1_555
C10 C9 1_555 1_555
H6 C10 1_555 1_555
C11 C10 1_555 1_555
C12 C11 1_555 1_555
H7 C12 1_555 1_555
C13 C8 1_555 1_555
H8 C13 1_555 1_555
C14 C11 1_555 1_555
N1 Co1 1_555 1_555
C15 N1 1_555 1_555
H9 C15 1_555 1_555
C16 C15 1_555 1_555
H10 C16 1_555 1_555
C17 C16 1_555 1_555
C18 C17 1_555 1_555
H11 C18 1_555 1_555
C19 N1 1_555 1_555
H12 C19 1_555 1_555
Co1B O2 1_555 1_555
Co1B_2 O3 1_555 1_555
Co1F O4 1_555 1_555
Co1E N1E 1_555 1_555
Co1_2 O3B 1_555 1_555
Co1D O4B 1_555 1_555
O1B Co1B 1_555 1_555
O2B Co1 1_555 1_555
O3B C1B 1_555 1_555
O3B_2 Co1 1_555 1_555
O3_2 Co1B 1_555 1_555
O4B C1B 1_555 1_555
O4F Co1 1_555 1_555
O4D Co1B 1_555 1_555
C1B C2B 1_555 1_555
C2B C3B 1_555 1_555
C3B H1B 1_555 1_555
C4B C3B 1_555 1_555
H2B C4B 1_555 1_555
C5B C4B 1_555 1_555
C6B C5B 1_555 1_555
H3B C6B 1_555 1_555
C7B C2B 1_555 1_555
H4B C7B 1_555 1_555
O5B C5B 1_555 1_555
C8B O5B 1_555 1_555
C9B C8B 1_555 1_555
H5B C9B 1_555 1_555
C10B C9B 1_555 1_555
H6B C10B 1_555 1_555
C11B C10B 1_555 1_555
C12B C11B 1_555 1_555
H7B C12B 1_555 1_555
C13B C8B 1_555 1_555
H8B C13B 1_555 1_555
C14B O1B 1_555 1_555
N1E C15E 1_555 1_555
N1B Co1B 1_555 1_555
C15E H9E 1_555 1_555
C16E C15E 1_555 1_555
H10E C16E 1_555 1_555
C17E C17 1_555 1_555
C18E C17E 1_555 1_555
H11E C18E 1_555 1_555
C19E N1E 1_555 1_555
H12E C19E 1_555 1_555
C6 C7 1_555 1_555
C12 C13 1_555 1_555
C18 C19 1_555 1_555
O2B C14B 1_555 1_555
C6B C7B 1_555 1_555
C11B C14B 1_555 1_555
C12B C13B 1_555 1_555
C16E C17E 1_555 1_555
C18E C19E 1_555 1_555

#END
