
#######################################################################
#
#                 Cambridge Crystallographic Data Centre
#                                CCDC 
#
#######################################################################
#
# If this CIF has been generated from an entry in the Cambridge 
# Structural Database, then it will include bibliographic, chemical, 
# crystal, experimental, refinement or atomic coordinate data resulting 
# from the CCDC's data processing and validation procedures.
#
#######################################################################

data_MAVSOS
_symmetry_cell_setting           orthorhombic
_symmetry_space_group_name_H-M   'P n a 21'
_symmetry_Int_Tables_number      33
_space_group_name_Hall           'P 2c -2n'
loop_
_symmetry_equiv_pos_site_id
_symmetry_equiv_pos_as_xyz
1 x,y,z
2 -x,-y,1/2+z
3 1/2+x,1/2-y,z
4 1/2-x,1/2+y,1/2+z
_cell_length_a                   7.8115(16)
_cell_length_b                   16.526(3)
_cell_length_c                   7.8608(16)
_cell_angle_alpha                90
_cell_angle_beta                 90
_cell_angle_gamma                90
_cell_volume                     1014.77
loop_
_atom_site_label
_atom_site_type_symbol
_atom_site_fract_x
_atom_site_fract_y
_atom_site_fract_z
Zn1 Zn 0.07732(17) 0.62294(7) 0.5642(2)
S1 S 0.3176(4) 0.70391(18) 0.6185(4)
S2 S -0.1731(4) 0.4836(2) 0.3720(5)
N1 N 0.4493(13) 0.8059(7) 0.3835(15)
N2 N 0.3363(18) 0.6801(8) 0.2814(17)
N3 N 0.1532(13) 0.5211(6) 0.4321(14)
N4 N 0.1027(13) 0.4154(6) 0.2366(13)
C1 C 0.3687(19) 0.7316(9) 0.410(2)
C2 C 0.369(2) 0.7037(10) 0.124(2)
H1 H 0.3434 0.6683 0.0322
C3 C 0.4372(18) 0.7747(9) 0.091(3)
H2 H 0.4581 0.7905 -0.0238
C4 C 0.477(2) 0.8246(9) 0.218(2)
H3 H 0.5258 0.8756 0.1915
C5 C 0.0426(18) 0.4714(8) 0.3458(18)
C6 C 0.2665(17) 0.4016(7) 0.2211(18)
H4 H 0.3057 0.3617 0.1431
C7 C 0.3816(18) 0.4440(8) 0.316(2)
H5 H 0.5000 0.4309 0.3138
C8 C 0.3228(15) 0.5048(8) 0.4138(16)
H6 H 0.4031 0.5378 0.4724
Zn1B Zn 0.57732(17) 0.87706(7) 0.5642(2)
Zn1A Zn -0.07732(17) 0.37706(7) 0.0642(2)
N1B N -0.0507(13) 0.6941(7) 0.3835(15)
N4A N -0.1027(13) 0.5846(6) 0.7366(13)
loop_
_geom_bond_atom_site_label_1
_geom_bond_atom_site_label_2
_geom_bond_site_symmetry_1
_geom_bond_site_symmetry_2
Zn1 S1 1_555 1_555
S1 C1 1_555 1_555
S2 C5 1_555 1_555
N1 C1 1_555 1_555
N2 C1 1_555 1_555
N3 Zn1 1_555 1_555
N4 C5 1_555 1_555
C2 N2 1_555 1_555
H1 C2 1_555 1_555
C3 C2 1_555 1_555
H2 C3 1_555 1_555
C4 N1 1_555 1_555
H3 C4 1_555 1_555
C5 N3 1_555 1_555
C6 N4 1_555 1_555
H4 C6 1_555 1_555
C7 C6 1_555 1_555
H5 C7 1_555 1_555
C8 N3 1_555 1_555
H6 C8 1_555 1_555
Zn1B N1 1_555 1_555
Zn1A N4 1_555 1_555
N1B Zn1 1_555 1_555
N4A Zn1 1_555 1_555
C3 C4 1_555 1_555
C7 C8 1_555 1_555

#END
