
#######################################################################
#
#                 Cambridge Crystallographic Data Centre
#                                CCDC 
#
#######################################################################
#
# If this CIF has been generated from an entry in the Cambridge 
# Structural Database, then it will include bibliographic, chemical, 
# crystal, experimental, refinement or atomic coordinate data resulting 
# from the CCDC's data processing and validation procedures.
#
#######################################################################

data_MAVTOT
_symmetry_cell_setting           monoclinic
_symmetry_space_group_name_H-M   'P 21/c'
_symmetry_Int_Tables_number      14
_space_group_name_Hall           '-P 2ybc'
loop_
_symmetry_equiv_pos_site_id
_symmetry_equiv_pos_as_xyz
1 x,y,z
2 -x,1/2+y,1/2-z
3 -x,-y,-z
4 x,1/2-y,1/2+z
_cell_length_a                   11.8779(7)
_cell_length_b                   8.7301(4)
_cell_length_c                   22.4539(16)
_cell_angle_alpha                90
_cell_angle_beta                 104.685(8)
_cell_angle_gamma                90
_cell_volume                     2252.3
loop_
_atom_site_label
_atom_site_type_symbol
_atom_site_fract_x
_atom_site_fract_y
_atom_site_fract_z
As1 As 0.43625(2) 0.34681(2) 0.259114(9)
Si1 Si 0.32332(5) 0.33722(6) 0.33053(2)
C1 C 0.2918(2) 0.5427(2) 0.35609(10)
C2 C 0.2486(3) 0.5435(3) 0.41546(12)
H1 H 0.3104 0.5055 0.4499
H2 H 0.1801 0.4772 0.4099
H3 H 0.2277 0.6482 0.4242
C3 C 0.1979(3) 0.6205(3) 0.30547(14)
H4 H 0.1897 0.7277 0.3167
H5 H 0.1236 0.5673 0.3010
H6 H 0.2205 0.6162 0.2664
C4 C 0.3989(2) 0.6460(3) 0.36726(13)
H7 H 0.4176 0.6672 0.3280
H8 H 0.4650 0.5946 0.3951
H9 H 0.3828 0.7426 0.3858
C5 C 0.1765(2) 0.2328(3) 0.29433(10)
C6 C 0.1979(3) 0.0602(3) 0.28894(12)
H10 H 0.2229 0.0153 0.3302
H11 H 0.2587 0.0445 0.2671
H12 H 0.1258 0.0106 0.2661
C7 C 0.1244(2) 0.2882(3) 0.22815(11)
H13 H 0.0520 0.2327 0.2105
H14 H 0.1799 0.2690 0.2033
H15 H 0.1082 0.3982 0.2285
C8 C 0.0846(2) 0.2506(3) 0.33077(13)
H16 H 0.0161 0.1889 0.3115
H17 H 0.0621 0.3585 0.3310
H18 H 0.1167 0.2156 0.3732
C9 C 0.4163(2) 0.2216(3) 0.39996(9)
C10 C 0.5143(2) 0.3206(3) 0.43885(11)
H19 H 0.4807 0.4033 0.4584
H20 H 0.5600 0.3647 0.4124
H21 H 0.5648 0.2572 0.4707
C11 C 0.4785(3) 0.0877(3) 0.37722(12)
H22 H 0.5222 0.0283 0.4126
H23 H 0.5322 0.1278 0.3543
H24 H 0.4207 0.0215 0.3503
C12 C 0.3466(3) 0.1568(3) 0.44307(11)
H25 H 0.3998 0.1074 0.4784
H26 H 0.2904 0.0814 0.4208
H27 H 0.3051 0.2402 0.4576
Li1 Li 0.5731(4) 0.5780(4) 0.29261(18)
O1 O 0.70365(15) 0.53624(19) 0.35979(7)
C13 C 0.7773(3) 0.4027(3) 0.36771(13)
H28 H 0.8128 0.3912 0.3325
H29 H 0.7319 0.3092 0.3707
C14 C 0.8673(4) 0.4275(6) 0.4250(2)
H30 H 0.8504 0.3656 0.4586
H31 H 0.9444 0.3967 0.4196
C15 C 0.8676(3) 0.5877(5) 0.43971(17)
H32 H 0.9271 0.6430 0.4242
H33 H 0.8840 0.6028 0.4848
C16 C 0.7481(3) 0.6433(3) 0.40845(12)
H34 H 0.6981 0.6456 0.4377
H35 H 0.7514 0.7476 0.3917
As1A As 0.56375(2) 0.84681(2) 0.240886(9)
As1_2 As 0.43625(2) 1.34681(2) 0.259114(9)
Si1A Si 0.67668(5) 0.83722(6) 0.16947(2)
C1A C 0.7082(2) 1.0427(2) 0.14391(10)
C2A C 0.7514(3) 1.0435(3) 0.08454(12)
H1A H 0.6896 1.0055 0.0501
H2A H 0.8199 0.9772 0.0901
H3A H 0.7723 1.1482 0.0758
C3A C 0.8021(3) 1.1205(3) 0.19453(14)
H4A H 0.8103 1.2277 0.1833
H5A H 0.8764 1.0673 0.1990
H6A H 0.7795 1.1162 0.2336
C4A C 0.6011(2) 1.1460(3) 0.13274(13)
H7A H 0.5824 1.1672 0.1720
H8A H 0.5350 1.0946 0.1049
H9A H 0.6172 1.2426 0.1142
C5A C 0.8235(2) 0.7328(3) 0.20567(10)
C6A C 0.8021(3) 0.5602(3) 0.21106(12)
H10A H 0.7771 0.5153 0.1698
H11A H 0.7413 0.5445 0.2329
H12A H 0.8742 0.5106 0.2339
C7A C 0.8756(2) 0.7882(3) 0.27185(11)
H13A H 0.9480 0.7327 0.2895
H14A H 0.8201 0.7690 0.2967
H15A H 0.8918 0.8982 0.2715
C8A C 0.9154(2) 0.7506(3) 0.16923(13)
H16A H 0.9839 0.6889 0.1885
H17A H 0.9379 0.8585 0.1690
H18A H 0.8833 0.7156 0.1268
C9A C 0.5837(2) 0.7216(3) 0.10004(9)
C10A C 0.4857(2) 0.8206(3) 0.06115(11)
H19A H 0.5193 0.9033 0.0416
H20A H 0.4400 0.8647 0.0876
H21A H 0.4352 0.7572 0.0293
C11A C 0.5215(3) 0.5877(3) 0.12278(12)
H22A H 0.4778 0.5283 0.0874
H23A H 0.4678 0.6278 0.1457
H24A H 0.5793 0.5215 0.1497
C12A C 0.6534(3) 0.6568(3) 0.05693(11)
H25A H 0.6002 0.6074 0.0216
H26A H 0.7096 0.5814 0.0792
H27A H 0.6949 0.7402 0.0424
Li1A Li 0.4269(4) 1.0780(4) 0.20739(18)
Li1A_2 Li 0.4269(4) 0.0780(4) 0.20739(18)
O1A O 0.29635(15) 1.03624(19) 0.14021(7)
C13A C 0.2227(3) 0.9027(3) 0.13229(13)
H28A H 0.1872 0.8912 0.1675
H29A H 0.2681 0.8092 0.1293
C14A C 0.1327(4) 0.9275(6) 0.0750(2)
H30A H 0.1496 0.8656 0.0414
H31A H 0.0556 0.8967 0.0804
C15A C 0.1324(3) 1.0877(5) 0.06029(17)
H32A H 0.0729 1.1430 0.0758
H33A H 0.1160 1.1028 0.0152
C16A C 0.2519(3) 1.1433(3) 0.09155(12)
H34A H 0.3019 1.1456 0.0623
H35A H 0.2486 1.2476 0.1083
C17 C 0.1157(7) 0.5427(7) 0.0101(6)
H36 H 0.1948 0.5734 0.0173
C18 C 0.0457(11) 0.5379(7) -0.0470(4)
H37 H 0.0769 0.5626 -0.0808
C19 C 0.0682(10) 0.5013(7) 0.0580(3)
H38 H 0.1158 0.5002 0.0990
C17B C -0.1157(7) 0.4573(7) -0.0101(6)
H36B H -0.1948 0.4266 -0.0173
C18B C -0.0457(11) 0.4621(7) 0.0470(4)
H37B H -0.0769 0.4374 0.0808
C19B C -0.0682(10) 0.4987(7) -0.0580(3)
H38B H -0.1158 0.4998 -0.0990
loop_
_geom_bond_atom_site_label_1
_geom_bond_atom_site_label_2
_geom_bond_site_symmetry_1
_geom_bond_site_symmetry_2
As1 Si1 1_555 1_555
Si1 C1 1_555 1_555
C1 C2 1_555 1_555
C2 H1 1_555 1_555
H2 C2 1_555 1_555
H3 C2 1_555 1_555
C3 C1 1_555 1_555
H4 C3 1_555 1_555
H5 C3 1_555 1_555
H6 C3 1_555 1_555
C4 C1 1_555 1_555
H7 C4 1_555 1_555
H8 C4 1_555 1_555
H9 C4 1_555 1_555
C5 Si1 1_555 1_555
C6 C5 1_555 1_555
H10 C6 1_555 1_555
H11 C6 1_555 1_555
H12 C6 1_555 1_555
C7 C5 1_555 1_555
H13 C7 1_555 1_555
H14 C7 1_555 1_555
H15 C7 1_555 1_555
C8 C5 1_555 1_555
H16 C8 1_555 1_555
H17 C8 1_555 1_555
H18 C8 1_555 1_555
C9 Si1 1_555 1_555
C10 C9 1_555 1_555
H19 C10 1_555 1_555
H20 C10 1_555 1_555
H21 C10 1_555 1_555
C11 C9 1_555 1_555
H22 C11 1_555 1_555
H23 C11 1_555 1_555
H24 C11 1_555 1_555
C12 C9 1_555 1_555
H25 C12 1_555 1_555
H26 C12 1_555 1_555
H27 C12 1_555 1_555
Li1 As1 1_555 1_555
O1 Li1 1_555 1_555
C13 O1 1_555 1_555
H28 C13 1_555 1_555
H29 C13 1_555 1_555
C14 C13 1_555 1_555
H30 C14 1_555 1_555
H31 C14 1_555 1_555
C15 C14 1_555 1_555
H32 C15 1_555 1_555
H33 C15 1_555 1_555
C16 O1 1_555 1_555
H34 C16 1_555 1_555
H35 C16 1_555 1_555
C17 H36 1_555 1_555
C18 C17 1_555 1_555
H37 C18 1_555 1_555
C19 C17 1_555 1_555
H38 C19 1_555 1_555
As1A Li1 1_555 1_555
As1_2 Li1A 1_555 1_555
Si1A As1A 1_555 1_555
C1A Si1A 1_555 1_555
C2A C1A 1_555 1_555
H1A C2A 1_555 1_555
H2A C2A 1_555 1_555
H3A C2A 1_555 1_555
C3A C1A 1_555 1_555
H4A C3A 1_555 1_555
H5A C3A 1_555 1_555
H6A C3A 1_555 1_555
C4A C1A 1_555 1_555
H7A C4A 1_555 1_555
H8A C4A 1_555 1_555
H9A C4A 1_555 1_555
C5A Si1A 1_555 1_555
C6A C5A 1_555 1_555
H10A C6A 1_555 1_555
H11A C6A 1_555 1_555
H12A C6A 1_555 1_555
C7A C5A 1_555 1_555
H13A C7A 1_555 1_555
H14A C7A 1_555 1_555
H15A C7A 1_555 1_555
C8A C5A 1_555 1_555
H16A C8A 1_555 1_555
H17A C8A 1_555 1_555
H18A C8A 1_555 1_555
C9A Si1A 1_555 1_555
C10A C9A 1_555 1_555
H19A C10A 1_555 1_555
H20A C10A 1_555 1_555
H21A C10A 1_555 1_555
C11A C9A 1_555 1_555
H22A C11A 1_555 1_555
H23A C11A 1_555 1_555
H24A C11A 1_555 1_555
C12A C9A 1_555 1_555
H25A C12A 1_555 1_555
H26A C12A 1_555 1_555
H27A C12A 1_555 1_555
Li1A As1A 1_555 1_555
Li1A_2 As1 1_555 1_555
O1A Li1A 1_555 1_555
C13A O1A 1_555 1_555
H28A C13A 1_555 1_555
H29A C13A 1_555 1_555
C14A C13A 1_555 1_555
H30A C14A 1_555 1_555
H31A C14A 1_555 1_555
C15A C14A 1_555 1_555
H32A C15A 1_555 1_555
H33A C15A 1_555 1_555
C16A O1A 1_555 1_555
H34A C16A 1_555 1_555
H35A C16A 1_555 1_555
C17B H36B 1_555 1_555
C18B C19 1_555 1_555
H37B C18B 1_555 1_555
C19B C18 1_555 1_555
H38B C19B 1_555 1_555
C15 C16 1_555 1_555
C15A C16A 1_555 1_555
C17B C18B 1_555 1_555
C17B C19B 1_555 1_555

#END
