
#######################################################################
#
#                 Cambridge Crystallographic Data Centre
#                                CCDC 
#
#######################################################################
#
# If this CIF has been generated from an entry in the Cambridge 
# Structural Database, then it will include bibliographic, chemical, 
# crystal, experimental, refinement or atomic coordinate data resulting 
# from the CCDC's data processing and validation procedures.
#
#######################################################################

data_MAWFAS
_symmetry_cell_setting           monoclinic
_symmetry_space_group_name_H-M   'P 21/n'
_symmetry_Int_Tables_number      14
_space_group_name_Hall           '-P 2yn'
loop_
_symmetry_equiv_pos_site_id
_symmetry_equiv_pos_as_xyz
1 x,y,z
2 1/2-x,1/2+y,1/2-z
3 -x,-y,-z
4 1/2+x,1/2-y,1/2+z
_cell_length_a                   10.720(6)
_cell_length_b                   11.767(6)
_cell_length_c                   13.661(7)
_cell_angle_alpha                90
_cell_angle_beta                 111.39(4)
_cell_angle_gamma                90
_cell_volume                     1604.53
loop_
_atom_site_label
_atom_site_type_symbol
_atom_site_fract_x
_atom_site_fract_y
_atom_site_fract_z
Cd1 Cd 0.0000 1.0000 1.0000
O1 O 0.16263(15) 1.05120(13) 1.16638(12)
H1 H 0.232(2) 1.0166(18) 1.1828(17)
H2 H 0.173(2) 1.1121(18) 1.1819(18)
N2 N 0.21900(13) 1.02280(10) 0.77936(10)
N3 N 0.14677(14) 1.02418(10) 0.91177(11)
N4 N 0.35391(14) 1.14506(11) 0.49397(11)
N5 N 0.43896(15) 1.31061(11) 0.47332(11)
N6 N 0.05896(13) 0.81643(11) 0.44806(11)
N7 N -0.10423(15) 0.68735(12) 0.39215(13)
C1 C 0.21882(14) 1.00541(15) 0.67590(11)
C2 C 0.29107(16) 1.07977(13) 0.63733(13)
H3 H 0.3430 1.1392 0.6800
C3 C 0.28512(16) 1.06461(13) 0.53476(14)
C4 C 0.21029(16) 0.97810(12) 0.47045(13)
H4 H 0.2066 0.9697 0.4003
C5 C 0.14072(16) 0.90399(12) 0.51232(13)
C6 C 0.14674(16) 0.91572(13) 0.61538(13)
H5 H 0.1021 0.8630 0.6439
C7 C 0.11772(15) 0.99603(16) 0.81234(12)
H6 H 0.0361 0.9614 0.7693
C8 C 0.27387(18) 1.07103(15) 0.94451(15)
H7 H 0.3222 1.0987 1.0133
C9 C 0.31933(18) 1.07159(15) 0.86410(14)
H8 H 0.4030 1.0997 0.8655
C10 C 0.36496(17) 1.25807(13) 0.51777(14)
H9 H 0.3244 1.2942 0.5609
C11 C 0.47809(18) 1.22769(14) 0.41855(15)
H10 H 0.5338 1.2404 0.3792
C12 C 0.42530(18) 1.12561(14) 0.42918(14)
H11 H 0.4353 1.0554 0.3985
C13 C -0.04070(17) 0.75790(14) 0.46820(14)
H12 H -0.0608 0.7676 0.5299
C14 C -0.04197(19) 0.69910(15) 0.31982(15)
H13 H -0.0659 0.6577 0.2559
C15 C 0.05747(18) 0.77744(14) 0.35222(14)
H14 H 0.1143 0.8007 0.3165
Cd1C Cd 0.5000 1.5000 0.5000
Cd1C_2 Cd -0.5000 0.5000 1.5000
O1B O -0.16263(15) 0.94880(13) 0.83362(12)
H1B H -0.232(2) 0.9834(18) 0.8172(17)
H2B H -0.173(2) 0.8879(18) 0.8181(18)
N2B N -0.21900(13) 0.97720(10) 1.22064(10)
N3B N -0.14677(14) 0.97582(10) 1.08823(11)
N4B N -0.35391(14) 0.85494(11) 1.50603(11)
N5B N -0.43896(15) 0.68939(11) 1.52668(11)
N5C N -0.06104(15) 1.18939(11) 0.97332(11)
N5A N 0.06104(15) 0.81061(11) 1.02668(11)
N6B N -0.05896(13) 1.18357(11) 1.55194(11)
N7B N 0.10423(15) 1.31265(12) 1.60785(13)
C1B C -0.21882(14) 0.99459(15) 1.32410(11)
C2B C -0.29107(16) 0.92023(13) 1.36267(13)
H3B H -0.3430 0.8608 1.3200
C3B C -0.28512(16) 0.93539(13) 1.46524(14)
C4B C -0.21029(16) 1.02190(12) 1.52955(13)
H4B H -0.2066 1.0303 1.5997
C5B C -0.14072(16) 1.09601(12) 1.48768(13)
C6B C -0.14674(16) 1.08428(13) 1.38462(13)
H5B H -0.1021 1.1370 1.3561
C7B C -0.11772(15) 1.00397(16) 1.18766(12)
H6B H -0.0361 1.0386 1.2307
C8B C -0.27387(18) 0.92897(15) 1.05549(15)
H7B H -0.3222 0.9013 0.9867
C9B C -0.31933(18) 0.92841(15) 1.13590(14)
H8B H -0.4030 0.9003 1.1345
C10B C -0.36496(17) 0.74193(13) 1.48223(14)
H9B H -0.3244 0.7058 1.4391
C11B C -0.47809(18) 0.77231(14) 1.58145(15)
H10B H -0.5338 0.7596 1.6208
C12B C -0.42530(18) 0.87439(14) 1.57082(14)
H11B H -0.4353 0.9446 1.6015
C13B C 0.04070(17) 1.24210(14) 1.53180(14)
H12B H 0.0608 1.2324 1.4701
C14B C 0.04197(19) 1.30090(15) 1.68018(15)
H13B H 0.0659 1.3423 1.7441
C15B C -0.05747(18) 1.22256(14) 1.64778(14)
H14B H -0.1143 1.1993 1.6835
O2 O -0.05075(15) 0.75707(12) 0.71121(12)
O3 O -0.18147(16) 0.70373(14) 0.78997(14)
O4 O -0.10578(15) 0.58032(12) 0.70850(15)
N1 N -0.11384(15) 0.68043(13) 0.73601(12)
loop_
_geom_bond_atom_site_label_1
_geom_bond_atom_site_label_2
_geom_bond_site_symmetry_1
_geom_bond_site_symmetry_2
Cd1 O1 1_555 1_555
O1 H1 1_555 1_555
H2 O1 1_555 1_555
O2 N1 1_555 1_555
O3 N1 1_555 1_555
O4 N1 1_555 1_555
N2 C1 1_555 1_555
N3 Cd1 1_555 1_555
N4 C3 1_555 1_555
N5 C10 1_555 1_555
N6 C5 1_555 1_555
N7 C13 1_555 1_555
C1 C2 1_555 1_555
C2 H3 1_555 1_555
C3 C2 1_555 1_555
C4 C3 1_555 1_555
H4 C4 1_555 1_555
C5 C4 1_555 1_555
C6 C1 1_555 1_555
H5 C6 1_555 1_555
C7 N2 1_555 1_555
H6 C7 1_555 1_555
C8 N3 1_555 1_555
H7 C8 1_555 1_555
C9 N2 1_555 1_555
H8 C9 1_555 1_555
C10 N4 1_555 1_555
H9 C10 1_555 1_555
C11 N5 1_555 1_555
H10 C11 1_555 1_555
C12 N4 1_555 1_555
H11 C12 1_555 1_555
C13 N6 1_555 1_555
H12 C13 1_555 1_555
C14 N7 1_555 1_555
H13 C14 1_555 1_555
C15 N6 1_555 1_555
H14 C15 1_555 1_555
Cd1C N5 1_555 1_555
Cd1C_2 N5B 1_555 1_555
O1B Cd1 1_555 1_555
H1B O1B 1_555 1_555
H2B O1B 1_555 1_555
N2B C1B 1_555 1_555
N3B Cd1 1_555 1_555
N4B C3B 1_555 1_555
N5B C10B 1_555 1_555
N5C Cd1 1_555 1_555
N5A Cd1 1_555 1_555
N6B C5B 1_555 1_555
N7B C13B 1_555 1_555
C1B C2B 1_555 1_555
C2B H3B 1_555 1_555
C3B C2B 1_555 1_555
C4B C3B 1_555 1_555
H4B C4B 1_555 1_555
C5B C4B 1_555 1_555
C6B C1B 1_555 1_555
H5B C6B 1_555 1_555
C7B N2B 1_555 1_555
H6B C7B 1_555 1_555
C8B N3B 1_555 1_555
H7B C8B 1_555 1_555
C9B N2B 1_555 1_555
H8B C9B 1_555 1_555
C10B N4B 1_555 1_555
H9B C10B 1_555 1_555
C11B N5B 1_555 1_555
H10B C11B 1_555 1_555
C12B N4B 1_555 1_555
H11B C12B 1_555 1_555
C13B N6B 1_555 1_555
H12B C13B 1_555 1_555
C14B N7B 1_555 1_555
H13B C14B 1_555 1_555
C15B N6B 1_555 1_555
H14B C15B 1_555 1_555
N3 C7 1_555 1_555
C5 C6 1_555 1_555
C8 C9 1_555 1_555
C11 C12 1_555 1_555
C14 C15 1_555 1_555
N3B C7B 1_555 1_555
C5B C6B 1_555 1_555
C8B C9B 1_555 1_555
C11B C12B 1_555 1_555
C14B C15B 1_555 1_555

#END
