
#######################################################################
#
#                 Cambridge Crystallographic Data Centre
#                                CCDC 
#
#######################################################################
#
# If this CIF has been generated from an entry in the Cambridge 
# Structural Database, then it will include bibliographic, chemical, 
# crystal, experimental, refinement or atomic coordinate data resulting 
# from the CCDC's data processing and validation procedures.
#
#######################################################################

data_MAWFEW
_symmetry_cell_setting           monoclinic
_symmetry_space_group_name_H-M   'P 21/n'
_symmetry_Int_Tables_number      14
_space_group_name_Hall           '-P 2yn'
loop_
_symmetry_equiv_pos_site_id
_symmetry_equiv_pos_as_xyz
1 x,y,z
2 1/2-x,1/2+y,1/2-z
3 -x,-y,-z
4 1/2+x,1/2-y,1/2+z
_cell_length_a                   7.309(5)
_cell_length_b                   26.92(2)
_cell_length_c                   20.218(15)
_cell_angle_alpha                90
_cell_angle_beta                 90.83(5)
_cell_angle_gamma                90
_cell_volume                     3977.64
loop_
_atom_site_label
_atom_site_type_symbol
_atom_site_fract_x
_atom_site_fract_y
_atom_site_fract_z
Cu1 Cu 0.12466(4) 0.161470(13) 0.484798(16)
N1 N -0.1089(3) 0.19661(8) 0.51069(11)
H1 H -0.0962 0.2302 0.5040
H2 H -0.2043 0.1855 0.4844
N2 N 0.1096(3) 0.13231(8) 0.57725(10)
H3 H 0.1821 0.1517 0.6053
N3 N 0.2978(3) 0.10434(8) 0.46889(10)
H4 H 0.2408 0.0805 0.4433
H5 H 0.3992 0.1154 0.4468
N4 N 0.0654(3) 0.17972(8) 0.28030(10)
N5 N 0.0893(3) 0.17978(8) 0.38920(10)
N6 N -0.0174(3) 0.21784(8) 0.04866(10)
N7 N -0.1684(3) 0.28019(8) 0.00192(11)
N8 N 0.1835(3) 0.05313(8) 0.11467(11)
N9 N 0.2007(3) -0.01634(10) 0.05559(12)
C1 C 0.0792(3) 0.16424(11) 0.21244(12)
C2 C 0.0358(3) 0.19830(11) 0.16360(13)
H6 H 0.0054 0.2316 0.1747
C3 C 0.0374(3) 0.18314(10) 0.09830(13)
C4 C 0.0894(3) 0.13564(10) 0.08100(13)
H7 H 0.0943 0.1258 0.0359
C5 C 0.1343(3) 0.10279(11) 0.13136(13)
C6 C 0.1282(3) 0.11629(10) 0.19758(13)
H8 H 0.1571 0.0931 0.2316
C7 C 0.1232(3) 0.15478(11) 0.33484(13)
H9 H 0.1809 0.1232 0.3340
C8 C 0.0069(4) 0.22262(11) 0.36852(14)
H10 H -0.0327 0.2484 0.3969
C9 C -0.0103(4) 0.22315(11) 0.30198(14)
H11 H -0.0641 0.2486 0.2755
C10 C -0.1380(3) 0.25533(10) 0.05664(13)
H12 H -0.1945 0.2628 0.0975
C11 C -0.0605(3) 0.25735(11) -0.04445(13)
H13 H -0.0524 0.2674 -0.0893
C12 C 0.0319(3) 0.21881(11) -0.01760(13)
H14 H 0.1134 0.1969 -0.0393
C13 C 0.1382(4) 0.02939(11) 0.05726(14)
H15 H 0.0691 0.0442 0.0223
C14 C 0.2853(4) -0.02261(12) 0.11541(15)
H16 H 0.3439 -0.0524 0.1293
C15 C 0.2749(4) 0.01905(12) 0.15241(15)
H17 H 0.3219 0.0237 0.1960
C31 C -0.1505(4) 0.18715(12) 0.58096(14)
H30 H -0.2842 0.1890 0.5877
H31 H -0.0906 0.2126 0.6093
C32 C -0.0817(4) 0.13654(11) 0.59945(14)
H32 H -0.0873 0.1319 0.6480
H33 H -0.1584 0.1107 0.5779
C33 C 0.1878(4) 0.08188(11) 0.57640(14)
H34 H 0.0969 0.0580 0.5585
H35 H 0.2225 0.0715 0.6218
C34 C 0.3535(4) 0.08301(11) 0.53351(13)
H36 H 0.4506 0.1036 0.5544
H37 H 0.4018 0.0490 0.5275
Cu1C Cu -0.37534(4) 0.338530(13) -0.015202(16)
N7C N 0.3316(3) 0.21981(8) 0.50192(11)
Cl1 Cl 0.27897(10) -0.00555(3) 0.34779(4)
O1 O 0.3028(3) 0.04495(7) 0.32571(10)
O2 O 0.1271(3) -0.02731(9) 0.31292(10)
O3 O 0.4408(3) -0.03293(8) 0.33543(12)
O4 O 0.2437(3) -0.00534(8) 0.41726(10)
Cl2 Cl 0.51327(10) 0.26013(3) 0.25299(4)
O5 O 0.3633(3) 0.29230(9) 0.24108(12)
O6 O 0.6380(3) 0.26285(11) 0.20045(10)
O7 O 0.4487(3) 0.21087(9) 0.25806(15)
O8 O 0.6059(3) 0.27227(10) 0.31301(11)
N10 N -0.2754(3) 0.08385(9) 0.31656(11)
N11 N -0.3223(3) 0.12378(10) 0.41095(12)
N12 N -0.3885(3) 0.12650(9) 0.08408(12)
N13 N -0.5071(3) 0.19305(9) 0.03387(13)
N14 N -0.2022(3) -0.04003(9) 0.14582(11)
N15 N -0.1929(3) -0.10951(9) 0.08735(13)
C16 C -0.2864(3) 0.07073(11) 0.24757(14)
C17 C -0.3347(3) 0.10589(11) 0.20060(14)
H18 H -0.3630 0.1390 0.2133
C18 C -0.3411(4) 0.09181(11) 0.13405(15)
C19 C -0.2944(3) 0.04400(11) 0.11545(14)
H19 H -0.2948 0.0348 0.0701
C20 C -0.2474(3) 0.00985(11) 0.16355(15)
C21 C -0.2451(3) 0.02245(11) 0.23026(14)
H20 H -0.2157 -0.0016 0.2631
C22 C -0.3466(4) 0.12505(12) 0.34585(16)
H21 H -0.4060 0.1513 0.3226
C23 C -0.2322(4) 0.08029(12) 0.42322(15)
H22 H -0.1961 0.0690 0.4660
C24 C -0.2014(4) 0.05557(12) 0.36675(15)
H23 H -0.1403 0.0246 0.3624
C25 C -0.4821(4) 0.16990(11) 0.09065(15)
H24 H -0.5248 0.1821 0.1317
C26 C -0.4258(4) 0.16308(13) -0.01138(15)
H25 H -0.4219 0.1699 -0.0574
C27 C -0.3520(4) 0.12265(12) 0.01747(15)
H26 H -0.2876 0.0966 -0.0037
C28 C -0.2622(4) -0.06521(12) 0.09089(15)
H27 H -0.3452 -0.0518 0.0590
C29 C -0.0826(4) -0.11347(12) 0.14257(16)
H28 H -0.0115 -0.1419 0.1534
C30 C -0.0880(4) -0.07165(12) 0.17964(16)
H29 H -0.0258 -0.0656 0.2204
N16 N 0.5617(4) -0.16057(13) 0.33066(14)
C35 C 0.5109(4) -0.14616(13) 0.28212(19)
C36 C 0.4436(5) -0.12764(16) 0.21975(18)
H38 H 0.4110 -0.0925 0.2243
H39 H 0.3352 -0.1466 0.2060
H40 H 0.5387 -0.1311 0.1864
loop_
_geom_bond_atom_site_label_1
_geom_bond_atom_site_label_2
_geom_bond_site_symmetry_1
_geom_bond_site_symmetry_2
Cu1 N1 1_555 1_555
Cl1 O1 1_555 1_555
Cl2 O5 1_555 1_555
O2 Cl1 1_555 1_555
O3 Cl1 1_555 1_555
O4 Cl1 1_555 1_555
O6 Cl2 1_555 1_555
O7 Cl2 1_555 1_555
O8 Cl2 1_555 1_555
N1 H1 1_555 1_555
H2 N1 1_555 1_555
N2 Cu1 1_555 1_555
H3 N2 1_555 1_555
N3 Cu1 1_555 1_555
H4 N3 1_555 1_555
H5 N3 1_555 1_555
N4 C1 1_555 1_555
N5 Cu1 1_555 1_555
N6 C3 1_555 1_555
N7 C10 1_555 1_555
N8 C5 1_555 1_555
N9 C13 1_555 1_555
N10 C16 1_555 1_555
N11 C22 1_555 1_555
N12 C18 1_555 1_555
N13 C25 1_555 1_555
N14 C20 1_555 1_555
N15 C28 1_555 1_555
N16 C35 1_555 1_555
C1 C2 1_555 1_555
C2 H6 1_555 1_555
C3 C2 1_555 1_555
C4 C3 1_555 1_555
H7 C4 1_555 1_555
C5 C4 1_555 1_555
C6 C1 1_555 1_555
H8 C6 1_555 1_555
C7 N4 1_555 1_555
H9 C7 1_555 1_555
C8 N5 1_555 1_555
H10 C8 1_555 1_555
C9 N4 1_555 1_555
H11 C9 1_555 1_555
C10 N6 1_555 1_555
H12 C10 1_555 1_555
C11 N7 1_555 1_555
H13 C11 1_555 1_555
C12 N6 1_555 1_555
H14 C12 1_555 1_555
C13 N8 1_555 1_555
H15 C13 1_555 1_555
C14 N9 1_555 1_555
H16 C14 1_555 1_555
C15 N8 1_555 1_555
H17 C15 1_555 1_555
C16 C17 1_555 1_555
C17 H18 1_555 1_555
C18 C17 1_555 1_555
C19 C18 1_555 1_555
H19 C19 1_555 1_555
C20 C19 1_555 1_555
C21 C16 1_555 1_555
H20 C21 1_555 1_555
C22 N10 1_555 1_555
H21 C22 1_555 1_555
C23 N11 1_555 1_555
H22 C23 1_555 1_555
C24 N10 1_555 1_555
H23 C24 1_555 1_555
C25 N12 1_555 1_555
H24 C25 1_555 1_555
C26 N13 1_555 1_555
H25 C26 1_555 1_555
C27 N12 1_555 1_555
H26 C27 1_555 1_555
C28 N14 1_555 1_555
H27 C28 1_555 1_555
C29 N15 1_555 1_555
H28 C29 1_555 1_555
C30 N14 1_555 1_555
H29 C30 1_555 1_555
C31 N1 1_555 1_555
H30 C31 1_555 1_555
H31 C31 1_555 1_555
C32 N2 1_555 1_555
H32 C32 1_555 1_555
H33 C32 1_555 1_555
C33 N2 1_555 1_555
H34 C33 1_555 1_555
H35 C33 1_555 1_555
C34 N3 1_555 1_555
H36 C34 1_555 1_555
H37 C34 1_555 1_555
C35 C36 1_555 1_555
C36 H38 1_555 1_555
H39 C36 1_555 1_555
H40 C36 1_555 1_555
Cu1C N7 1_555 1_555
N7C Cu1 1_555 1_555
N5 C7 1_555 1_555
C5 C6 1_555 1_555
C8 C9 1_555 1_555
C11 C12 1_555 1_555
C14 C15 1_555 1_555
C20 C21 1_555 1_555
C23 C24 1_555 1_555
C26 C27 1_555 1_555
C29 C30 1_555 1_555
C31 C32 1_555 1_555
C33 C34 1_555 1_555

#END
