
#######################################################################
#
#                 Cambridge Crystallographic Data Centre
#                                CCDC 
#
#######################################################################
#
# If this CIF has been generated from an entry in the Cambridge 
# Structural Database, then it will include bibliographic, chemical, 
# crystal, experimental, refinement or atomic coordinate data resulting 
# from the CCDC's data processing and validation procedures.
#
#######################################################################

data_MAWFIA
_symmetry_cell_setting           monoclinic
_symmetry_space_group_name_H-M   'P 21/n'
_symmetry_Int_Tables_number      14
_space_group_name_Hall           '-P 2yn'
loop_
_symmetry_equiv_pos_site_id
_symmetry_equiv_pos_as_xyz
1 x,y,z
2 1/2-x,1/2+y,1/2-z
3 -x,-y,-z
4 1/2+x,1/2-y,1/2+z
_cell_length_a                   9.4823(2)
_cell_length_b                   16.3760(5)
_cell_length_c                   12.8759(3)
_cell_angle_alpha                90
_cell_angle_beta                 97.6468(7)
_cell_angle_gamma                90
_cell_volume                     1981.62
loop_
_atom_site_label
_atom_site_type_symbol
_atom_site_fract_x
_atom_site_fract_y
_atom_site_fract_z
Mn1 Mn 0.0000 0.0000 0.0000
O1 O 0.22469(11) 0.03717(8) 0.00631(8)
H1 H 0.2716 0.0493 -0.0429
H2 H 0.2875 0.0459 0.0629
N1 N 0.28095(13) 0.07293(8) -0.48567(9)
N2 N 0.21335(16) 0.19791(8) -0.45033(10)
N3 N 0.12544(13) -0.15075(7) -0.24997(9)
N4 N 0.02265(13) -0.07849(8) -0.13739(9)
N5 N 0.20779(13) -0.16588(7) -0.75713(8)
N6 N 0.07629(13) -0.09944(8) -0.88403(9)
C1 C 0.28664(15) -0.01391(9) -0.48598(11)
C2 C 0.26557(15) -0.05672(9) -0.39614(11)
H7 H 0.2529 -0.0281 -0.3339
C3 C 0.26317(15) -0.14122(9) -0.39775(10)
C4 C 0.28481(14) -0.18261(9) -0.48874(10)
H8 H 0.2819 -0.2406 -0.4903
C5 C 0.31069(14) -0.13948(9) -0.57736(10)
C6 C 0.31038(15) -0.05490(9) -0.57639(10)
H9 H 0.3263 -0.0252 -0.6371
C7 C 0.19623(19) 0.12000(10) -0.43321(12)
H10 H 0.1320 0.0989 -0.3892
C8 C 0.31536(18) 0.20145(10) -0.51669(13)
H11 H 0.3515 0.2505 -0.5424
C9 C 0.35710(16) 0.12562(10) -0.54031(12)
H12 H 0.4250 0.1115 -0.5853
C10 C 0.23686(16) -0.18888(9) -0.30127(11)
H13 H 0.2085 -0.2454 -0.3217
H14 H 0.3259 -0.1915 -0.2516
C11 C 0.14257(16) -0.11154(9) -0.15758(10)
H15 H 0.2302 -0.1081 -0.1125
C12 C -0.07682(16) -0.09774(10) -0.22247(11)
H16 H -0.1742 -0.0821 -0.2306
C13 C -0.01457(16) -0.14208(10) -0.29219(11)
H17 H -0.0587 -0.1630 -0.3573
C14 C 0.32937(16) -0.18429(9) -0.67740(10)
H18 H 0.4189 -0.1668 -0.7025
H19 H 0.3348 -0.2438 -0.6641
C15 C 0.20705(15) -0.11357(9) -0.83799(10)
H20 H 0.2901 -0.0898 -0.8592
C16 C -0.01055(16) -0.14475(10) -0.82845(11)
H21 H -0.1114 -0.1469 -0.8428
C17 C 0.06943(17) -0.18587(10) -0.75014(12)
H22 H 0.0360 -0.2214 -0.7004
Mn1_2 Mn 0.0000 0.0000 -1.0000
Mn1_3 Mn 0.0000 0.0000 1.0000
O1B O -0.22469(11) -0.03717(8) -0.00631(8)
H1B H -0.2716 -0.0493 0.0429
H2B H -0.2875 -0.0459 -0.0629
N1B N -0.28095(13) -0.07293(8) 0.48567(9)
N2B N -0.21335(16) -0.19791(8) 0.45033(10)
N3B N -0.12544(13) 0.15075(7) 0.24997(9)
N4B N -0.02265(13) 0.07849(8) 0.13739(9)
N5B N -0.20779(13) 0.16588(7) 0.75713(8)
N6B N -0.07629(13) 0.09944(8) 0.88403(9)
N6_2 N 0.07629(13) -0.09944(8) 0.11597(9)
N6B_2 N -0.07629(13) 0.09944(8) -0.11597(9)
C1B C -0.28664(15) 0.01391(9) 0.48598(11)
C2B C -0.26557(15) 0.05672(9) 0.39614(11)
H7B H -0.2529 0.0281 0.3339
C3B C -0.26317(15) 0.14122(9) 0.39775(10)
C4B C -0.28481(14) 0.18261(9) 0.48874(10)
H8B H -0.2819 0.2406 0.4903
C5B C -0.31069(14) 0.13948(9) 0.57736(10)
C6B C -0.31038(15) 0.05490(9) 0.57639(10)
H9B H -0.3263 0.0252 0.6371
C7B C -0.19623(19) -0.12000(10) 0.43321(12)
H10B H -0.1320 -0.0989 0.3892
C8B C -0.31536(18) -0.20145(10) 0.51669(13)
H11B H -0.3515 -0.2505 0.5424
C9B C -0.35710(16) -0.12562(10) 0.54031(12)
H12B H -0.4250 -0.1115 0.5853
C10B C -0.23686(16) 0.18888(9) 0.30127(11)
H13B H -0.2085 0.2454 0.3217
H14B H -0.3259 0.1915 0.2516
C11B C -0.14257(16) 0.11154(9) 0.15758(10)
H15B H -0.2302 0.1081 0.1125
C12B C 0.07682(16) 0.09774(10) 0.22247(11)
H16B H 0.1742 0.0821 0.2306
C13B C 0.01457(16) 0.14208(10) 0.29219(11)
H17B H 0.0587 0.1630 0.3573
C14B C -0.32937(16) 0.18429(9) 0.67740(10)
H18B H -0.4189 0.1668 0.7025
H19B H -0.3348 0.2438 0.6641
C15B C -0.20705(15) 0.11357(9) 0.83799(10)
H20B H -0.2901 0.0898 0.8592
C16B C 0.01055(16) 0.14475(10) 0.82845(11)
H21B H 0.1114 0.1469 0.8428
C17B C -0.06943(17) 0.18587(10) 0.75014(12)
H22B H -0.0360 0.2214 0.7004
Cl1 Cl 0.39908(4) 0.09591(3) -0.16759(3)
O2 O -0.57833(12) 0.06339(8) 0.18552(9)
H3 H -0.5335 0.1006 0.1554
H4 H -0.5177 0.0249 0.1872
O3 O -0.48040(15) 0.17580(8) 0.05564(10)
H5 H -0.4156 0.2183 0.0522
H6 H -0.4966 0.1572 -0.0075
loop_
_geom_bond_atom_site_label_1
_geom_bond_atom_site_label_2
_geom_bond_site_symmetry_1
_geom_bond_site_symmetry_2
Mn1 O1 1_555 1_555
O1 H1 1_555 1_555
H2 O1 1_555 1_555
O2 H3 1_555 1_555
H4 O2 1_555 1_555
O3 H5 1_555 1_555
H6 O3 1_555 1_555
N1 C1 1_555 1_555
N2 C7 1_555 1_555
N3 C10 1_555 1_555
N4 Mn1 1_555 1_555
N5 C14 1_555 1_555
N6 C15 1_555 1_555
C1 C2 1_555 1_555
C2 H7 1_555 1_555
C3 C2 1_555 1_555
C4 C3 1_555 1_555
H8 C4 1_555 1_555
C5 C4 1_555 1_555
C6 C1 1_555 1_555
H9 C6 1_555 1_555
C7 N1 1_555 1_555
H10 C7 1_555 1_555
C8 N2 1_555 1_555
H11 C8 1_555 1_555
C9 N1 1_555 1_555
H12 C9 1_555 1_555
C10 C3 1_555 1_555
H13 C10 1_555 1_555
H14 C10 1_555 1_555
C11 N3 1_555 1_555
H15 C11 1_555 1_555
C12 N4 1_555 1_555
H16 C12 1_555 1_555
C13 N3 1_555 1_555
H17 C13 1_555 1_555
C14 C5 1_555 1_555
H18 C14 1_555 1_555
H19 C14 1_555 1_555
C15 N5 1_555 1_555
H20 C15 1_555 1_555
C16 N6 1_555 1_555
H21 C16 1_555 1_555
C17 N5 1_555 1_555
H22 C17 1_555 1_555
Mn1_2 N6 1_555 1_555
Mn1_3 N6B 1_555 1_555
O1B Mn1 1_555 1_555
H1B O1B 1_555 1_555
H2B O1B 1_555 1_555
N1B C1B 1_555 1_555
N2B C7B 1_555 1_555
N3B C10B 1_555 1_555
N4B Mn1 1_555 1_555
N5B C14B 1_555 1_555
N6B C15B 1_555 1_555
N6_2 Mn1 1_555 1_555
N6B_2 Mn1 1_555 1_555
C1B C2B 1_555 1_555
C2B H7B 1_555 1_555
C3B C2B 1_555 1_555
C4B C3B 1_555 1_555
H8B C4B 1_555 1_555
C5B C4B 1_555 1_555
C6B C1B 1_555 1_555
H9B C6B 1_555 1_555
C7B N1B 1_555 1_555
H10B C7B 1_555 1_555
C8B N2B 1_555 1_555
H11B C8B 1_555 1_555
C9B N1B 1_555 1_555
H12B C9B 1_555 1_555
C10B C3B 1_555 1_555
H13B C10B 1_555 1_555
H14B C10B 1_555 1_555
C11B N3B 1_555 1_555
H15B C11B 1_555 1_555
C12B N4B 1_555 1_555
H16B C12B 1_555 1_555
C13B N3B 1_555 1_555
H17B C13B 1_555 1_555
C14B C5B 1_555 1_555
H18B C14B 1_555 1_555
H19B C14B 1_555 1_555
C15B N5B 1_555 1_555
H20B C15B 1_555 1_555
C16B N6B 1_555 1_555
H21B C16B 1_555 1_555
C17B N5B 1_555 1_555
H22B C17B 1_555 1_555
N4 C11 1_555 1_555
C5 C6 1_555 1_555
C8 C9 1_555 1_555
C12 C13 1_555 1_555
C16 C17 1_555 1_555
N4B C11B 1_555 1_555
C5B C6B 1_555 1_555
C8B C9B 1_555 1_555
C12B C13B 1_555 1_555
C16B C17B 1_555 1_555

#END
