
#######################################################################
#
#                 Cambridge Crystallographic Data Centre
#                                CCDC 
#
#######################################################################
#
# If this CIF has been generated from an entry in the Cambridge 
# Structural Database, then it will include bibliographic, chemical, 
# crystal, experimental, refinement or atomic coordinate data resulting 
# from the CCDC's data processing and validation procedures.
#
#######################################################################

data_MAWFUM
_symmetry_cell_setting           orthorhombic
_symmetry_space_group_name_H-M   'P b c n'
_symmetry_Int_Tables_number      60
_space_group_name_Hall           '-P 2n 2ab'
loop_
_symmetry_equiv_pos_site_id
_symmetry_equiv_pos_as_xyz
1 x,y,z
2 1/2-x,1/2-y,1/2+z
3 1/2+x,1/2-y,-z
4 -x,y,1/2-z
5 -x,-y,-z
6 1/2+x,1/2+y,1/2-z
7 1/2-x,1/2+y,z
8 x,-y,1/2+z
_cell_length_a                   13.873(14)
_cell_length_b                   11.655(14)
_cell_length_c                   31.31(3)
_cell_angle_alpha                90
_cell_angle_beta                 90
_cell_angle_gamma                90
_cell_volume                     5062.51
loop_
_atom_site_label
_atom_site_type_symbol
_atom_site_fract_x
_atom_site_fract_y
_atom_site_fract_z
Cd1 Cd 0.5000 0.58214(7) 0.2500
Cd2 Cd 0.10280(3) -0.05277(5) -0.083906(13)
Br1 Br 0.53586(5) 0.70411(8) 0.18473(2)
Br2 Br 0.05605(5) -0.25109(7) -0.056294(18)
Br3 Br -0.00408(5) 0.09276(7) -0.11922(2)
N1 N 0.2834(3) 0.3173(5) 0.22825(13)
N2 N 0.3762(3) 0.4619(5) 0.24638(14)
N3 N 0.2192(3) 0.1347(5) 0.02684(13)
N4 N 0.1500(3) 0.0309(5) -0.02198(14)
N5 N 0.5999(3) 0.0493(5) 0.13157(14)
N6 N 0.7523(4) 0.0722(5) 0.11498(15)
C1 C 0.2973(4) 0.1880(6) 0.16549(16)
C2 C 0.2672(4) 0.2299(6) 0.12576(17)
C3 C 0.3154(4) 0.1894(5) 0.08923(16)
C4 C 0.3921(4) 0.1146(6) 0.09239(16)
C5 C 0.4234(4) 0.0776(6) 0.13258(16)
C6 C 0.3754(4) 0.1137(6) 0.16910(16)
C7 C 0.2403(4) 0.2215(6) 0.20478(17)
H1 H 0.1741 0.2430 0.1960
H2 H 0.2355 0.1544 0.2240
C8 C 0.3557(4) 0.3858(6) 0.21678(18)
H3 H 0.3887 0.3803 0.1903
C9 C 0.3126(4) 0.4398(7) 0.27870(18)
H4 H 0.3100 0.4806 0.3050
C10 C 0.2549(5) 0.3530(7) 0.26811(17)
H5 H 0.2040 0.3219 0.2848
C11 C 0.1891(5) 0.3172(7) 0.1223(2)
H6 H 0.1756 0.3491 0.1506
H7 H 0.1308 0.2810 0.1109
H8 H 0.2098 0.3788 0.1031
C12 C 0.2786(4) 0.2250(6) 0.04586(17)
H9 H 0.2399 0.2960 0.0487
H10 H 0.3339 0.2417 0.0268
C13 C 0.2070(4) 0.1178(6) -0.01474(17)
H11 H 0.2359 0.1632 -0.0364
C14 C 0.1210(4) -0.0074(6) 0.01725(17)
H12 H 0.0777 -0.0690 0.0224
C15 C 0.1641(4) 0.0571(7) 0.04746(17)
H13 H 0.1571 0.0493 0.0775
C16 C 0.4434(5) 0.0719(7) 0.05295(18)
H14 H 0.3958 0.0466 0.0318
H15 H 0.4854 0.0074 0.0606
H16 H 0.4824 0.1340 0.0408
C17 C 0.5053(4) -0.0073(6) 0.13621(19)
H17 H 0.5020 -0.0459 0.1644
H18 H 0.4982 -0.0667 0.1138
C18 C 0.6775(4) 0.0030(7) 0.11275(18)
H19 H 0.6784 -0.0703 0.0995
C19 C 0.7214(4) 0.1666(7) 0.1360(2)
H20 H 0.7593 0.2324 0.1421
C20 C 0.6275(5) 0.1524(7) 0.1469(2)
H21 H 0.5886 0.2051 0.1624
C21 C 0.4089(5) 0.0738(7) 0.21225(17)
H22 H 0.3920 0.1314 0.2338
H23 H 0.4789 0.0631 0.2118
H24 H 0.3774 0.0009 0.2193
Cd2C Cd 0.89720(3) -0.05277(5) 0.583906(13)
Cd2D Cd 0.89720(3) 0.05277(5) 0.083906(13)
Cd2G Cd 0.10280(3) 0.05277(5) 0.416094(13)
Br1C Br 0.46414(5) 0.70411(8) 0.31527(2)
Br2C Br 0.94395(5) -0.25109(7) 0.556294(18)
Br3C Br 1.00408(5) 0.09276(7) 0.61922(2)
N1C N 0.7166(3) 0.3173(5) 0.27175(13)
N2C N 0.6238(3) 0.4619(5) 0.25362(14)
N3C N 0.7808(3) 0.1347(5) 0.47316(13)
N4C N 0.8500(3) 0.0309(5) 0.52198(14)
N5C N 0.4001(3) 0.0493(5) 0.36843(14)
N6C N 0.2477(4) 0.0722(5) 0.38502(15)
N6D N 0.2477(4) -0.0722(5) -0.11498(15)
N6G N 0.7523(4) -0.0722(5) 0.61498(15)
C1C C 0.7027(4) 0.1880(6) 0.33451(16)
C2C C 0.7328(4) 0.2299(6) 0.37424(17)
C3C C 0.6846(4) 0.1894(5) 0.41077(16)
C4C C 0.6079(4) 0.1146(6) 0.40761(16)
C5C C 0.5766(4) 0.0776(6) 0.36742(16)
C6C C 0.6246(4) 0.1137(6) 0.33090(16)
C7C C 0.7597(4) 0.2215(6) 0.29522(17)
H1C H 0.8259 0.2430 0.3040
H2C H 0.7645 0.1544 0.2760
C8C C 0.6443(4) 0.3858(6) 0.28322(18)
H3C H 0.6113 0.3803 0.3097
C9C C 0.6874(4) 0.4398(7) 0.22130(18)
H4C H 0.6900 0.4806 0.1950
C10C C 0.7451(5) 0.3530(7) 0.23189(17)
H5C H 0.7960 0.3219 0.2152
C11C C 0.8109(5) 0.3172(7) 0.3777(2)
H6C H 0.8244 0.3491 0.3494
H7C H 0.8692 0.2810 0.3891
H8C H 0.7902 0.3788 0.3969
C12C C 0.7214(4) 0.2250(6) 0.45414(17)
H9C H 0.7601 0.2960 0.4513
H10C H 0.6661 0.2417 0.4732
C13C C 0.7930(4) 0.1178(6) 0.51474(17)
H11C H 0.7641 0.1632 0.5364
C14C C 0.8790(4) -0.0074(6) 0.48275(17)
H12C H 0.9223 -0.0690 0.4776
C15C C 0.8359(4) 0.0571(7) 0.45254(17)
H13C H 0.8429 0.0493 0.4225
C16C C 0.5566(5) 0.0719(7) 0.44705(18)
H14C H 0.6042 0.0466 0.4682
H15C H 0.5146 0.0074 0.4394
H16C H 0.5176 0.1340 0.4592
C17C C 0.4947(4) -0.0073(6) 0.36379(19)
H17C H 0.4980 -0.0459 0.3356
H18C H 0.5018 -0.0667 0.3862
C18C C 0.3225(4) 0.0030(7) 0.38725(18)
H19C H 0.3216 -0.0703 0.4005
C19C C 0.2786(4) 0.1666(7) 0.3640(2)
H20C H 0.2407 0.2324 0.3579
C20C C 0.3725(5) 0.1524(7) 0.3531(2)
H21C H 0.4114 0.2051 0.3376
C21C C 0.5911(5) 0.0738(7) 0.28775(17)
H22C H 0.6080 0.1314 0.2662
H23C H 0.5211 0.0631 0.2882
H24C H 0.6226 0.0009 0.2807
loop_
_geom_bond_atom_site_label_1
_geom_bond_atom_site_label_2
_geom_bond_site_symmetry_1
_geom_bond_site_symmetry_2
Cd1 Br1 1_555 1_555
Cd2 Br2 1_555 1_555
Br3 Cd2 1_555 1_555
N1 C7 1_555 1_555
N2 Cd1 1_555 1_555
N3 C12 1_555 1_555
N4 Cd2 1_555 1_555
N5 C17 1_555 1_555
N6 C18 1_555 1_555
C1 C2 1_555 1_555
C2 C3 1_555 1_555
C3 C4 1_555 1_555
C4 C5 1_555 1_555
C5 C6 1_555 1_555
C6 C1 1_555 1_555
C7 C1 1_555 1_555
H1 C7 1_555 1_555
H2 C7 1_555 1_555
C8 N1 1_555 1_555
H3 C8 1_555 1_555
C9 N2 1_555 1_555
H4 C9 1_555 1_555
C10 N1 1_555 1_555
H5 C10 1_555 1_555
C11 C2 1_555 1_555
H6 C11 1_555 1_555
H7 C11 1_555 1_555
H8 C11 1_555 1_555
C12 C3 1_555 1_555
H9 C12 1_555 1_555
H10 C12 1_555 1_555
C13 N3 1_555 1_555
H11 C13 1_555 1_555
C14 N4 1_555 1_555
H12 C14 1_555 1_555
C15 N3 1_555 1_555
H13 C15 1_555 1_555
C16 C4 1_555 1_555
H14 C16 1_555 1_555
H15 C16 1_555 1_555
H16 C16 1_555 1_555
C17 C5 1_555 1_555
H17 C17 1_555 1_555
H18 C17 1_555 1_555
C18 N5 1_555 1_555
H19 C18 1_555 1_555
C19 N6 1_555 1_555
H20 C19 1_555 1_555
C20 N5 1_555 1_555
H21 C20 1_555 1_555
C21 C6 1_555 1_555
H22 C21 1_555 1_555
H23 C21 1_555 1_555
H24 C21 1_555 1_555
Cd2C Br2C 1_555 1_555
Cd2D N6 1_555 1_555
Cd2G N6C 1_555 1_555
Br1C Cd1 1_555 1_555
Br3C Cd2C 1_555 1_555
N1C C7C 1_555 1_555
N2C Cd1 1_555 1_555
N3C C12C 1_555 1_555
N4C Cd2C 1_555 1_555
N5C C17C 1_555 1_555
N6C C18C 1_555 1_555
N6D Cd2 1_555 1_555
N6G Cd2C 1_555 1_555
C1C C2C 1_555 1_555
C2C C3C 1_555 1_555
C3C C4C 1_555 1_555
C4C C5C 1_555 1_555
C5C C6C 1_555 1_555
C6C C1C 1_555 1_555
C7C C1C 1_555 1_555
H1C C7C 1_555 1_555
H2C C7C 1_555 1_555
C8C N1C 1_555 1_555
H3C C8C 1_555 1_555
C9C N2C 1_555 1_555
H4C C9C 1_555 1_555
C10C N1C 1_555 1_555
H5C C10C 1_555 1_555
C11C C2C 1_555 1_555
H6C C11C 1_555 1_555
H7C C11C 1_555 1_555
H8C C11C 1_555 1_555
C12C C3C 1_555 1_555
H9C C12C 1_555 1_555
H10C C12C 1_555 1_555
C13C N3C 1_555 1_555
H11C C13C 1_555 1_555
C14C N4C 1_555 1_555
H12C C14C 1_555 1_555
C15C N3C 1_555 1_555
H13C C15C 1_555 1_555
C16C C4C 1_555 1_555
H14C C16C 1_555 1_555
H15C C16C 1_555 1_555
H16C C16C 1_555 1_555
C17C C5C 1_555 1_555
H17C C17C 1_555 1_555
H18C C17C 1_555 1_555
C18C N5C 1_555 1_555
H19C C18C 1_555 1_555
C19C N6C 1_555 1_555
H20C C19C 1_555 1_555
C20C N5C 1_555 1_555
H21C C20C 1_555 1_555
C21C C6C 1_555 1_555
H22C C21C 1_555 1_555
H23C C21C 1_555 1_555
H24C C21C 1_555 1_555
N2 C8 1_555 1_555
N4 C13 1_555 1_555
C9 C10 1_555 1_555
C14 C15 1_555 1_555
C19 C20 1_555 1_555
N2C C8C 1_555 1_555
N4C C13C 1_555 1_555
C9C C10C 1_555 1_555
C14C C15C 1_555 1_555
C19C C20C 1_555 1_555

#END
