
#######################################################################
#
#                 Cambridge Crystallographic Data Centre
#                                CCDC 
#
#######################################################################
#
# If this CIF has been generated from an entry in the Cambridge 
# Structural Database, then it will include bibliographic, chemical, 
# crystal, experimental, refinement or atomic coordinate data resulting 
# from the CCDC's data processing and validation procedures.
#
#######################################################################

data_MAWKOM
_symmetry_cell_setting           triclinic
_symmetry_space_group_name_H-M   'P -1'
_symmetry_Int_Tables_number      2
_space_group_name_Hall           '-P 1'
loop_
_symmetry_equiv_pos_site_id
_symmetry_equiv_pos_as_xyz
1 x,y,z
2 -x,-y,-z
_cell_length_a                   11.8425(10)
_cell_length_b                   12.7124(10)
_cell_length_c                   15.4367(16)
_cell_angle_alpha                97.999(4)
_cell_angle_beta                 112.472(3)
_cell_angle_gamma                96.399(3)
_cell_volume                     2091.88
loop_
_atom_site_label
_atom_site_type_symbol
_atom_site_fract_x
_atom_site_fract_y
_atom_site_fract_z
Mn1 Mn -0.19221(13) 0.27642(12) 0.86940(11)
N1 N 0.0075(8) 0.3472(7) 0.8948(6)
N2 N 0.0843(7) 0.2922(6) 0.9145(6)
N3 N 0.1619(8) 0.2395(7) 0.9378(6)
N4 N -0.1967(8) 0.3942(6) 0.9688(6)
N5 N -0.2516(7) 0.3645(6) 0.7633(6)
O1 O -0.1235(6) 0.1962(5) 0.9660(5)
O2 O -0.1936(6) 0.1598(5) 0.7782(5)
C1 C -0.0455(10) 0.2349(9) 1.0557(9)
C2 C 0.0371(11) 0.1743(10) 1.1085(9)
H1 H 0.0423 0.1075 1.0783
C3 C 0.1099(11) 0.2103(12) 1.2027(10)
H2 H 0.1648 0.1683 1.2354
C4 C 0.1043(10) 0.3075(11) 1.2509(8)
C5 C 0.0270(10) 0.3727(10) 1.2039(8)
H3 H 0.0246 0.4393 1.2362
C6 C -0.0496(8) 0.3365(8) 1.1048(7)
C7 C -0.1330(9) 0.4067(8) 1.0582(8)
H4 H -0.1404 0.4658 1.0973
C8 C -0.2856(10) 0.4715(8) 0.9401(8)
H5 H -0.3698 0.4325 0.9181
H6 H -0.2702 0.5263 0.9957
C9 C -0.2741(10) 0.5257(8) 0.8624(7)
H7 H -0.1871 0.5543 0.8804
H8 H -0.3177 0.5862 0.8583
C10 C -0.3250(9) 0.4521(8) 0.7634(7)
H9 H -0.3142 0.4963 0.7190
C11 C -0.4622(9) 0.4027(9) 0.7239(8)
H10 H -0.5070 0.4568 0.7391
H11 H -0.4721 0.3438 0.7557
C12 C -0.5199(12) 0.3602(11) 0.6164(9)
H12 H -0.6061 0.3305 0.5963
H13 H -0.4777 0.3050 0.6009
H14 H -0.5122 0.4182 0.5842
C13 C -0.2212(9) 0.3468(8) 0.6909(7)
H15 H -0.2374 0.3963 0.6506
C14 C -0.1646(9) 0.2585(8) 0.6658(7)
C15 C -0.1255(9) 0.2639(8) 0.5897(7)
H16 H -0.1285 0.3254 0.5630
C16 C -0.0836(9) 0.1784(8) 0.5563(7)
C17 C -0.0817(9) 0.0855(8) 0.5936(8)
H17 H -0.0549 0.0269 0.5690
C18 C -0.1202(9) 0.0796(8) 0.6684(8)
H18 H -0.1196 0.0166 0.6928
C19 C -0.1597(9) 0.1684(8) 0.7073(8)
Br1 Br 0.20647(11) 0.35403(12) 1.38418(9)
Br2 Br -0.01667(11) 0.18882(9) 0.46368(8)
Mn2 Mn 0.34906(13) 0.20417(12) 0.94842(11)
N6 N -0.4742(8) 0.1556(7) 0.9500(7)
N7 N -0.4283(7) 0.1825(7) 0.8988(7)
N8 N -0.3872(8) 0.2046(7) 0.8441(7)
N9 N 0.3021(8) 0.0577(6) 0.9744(6)
N10 N 0.2641(8) 0.1530(7) 0.8015(6)
O3 O 0.4228(6) 0.2626(5) 1.0814(5)
O4 O 0.4009(6) 0.3423(5) 0.9310(5)
C20 C 0.4190(9) 0.2187(8) 1.1536(7)
C21 C 0.4774(9) 0.2850(8) 1.2460(7)
H19 H 0.5167 0.3553 1.2535
C22 C 0.4766(9) 0.2467(8) 1.3243(7)
H20 H 0.5149 0.2919 1.3842
C23 C 0.4206(10) 0.1428(9) 1.3167(7)
C24 C 0.3657(9) 0.0760(8) 1.2272(7)
H21 H 0.3295 0.0051 1.2215
C25 C 0.3632(9) 0.1127(8) 1.1450(7)
C26 C 0.3084(9) 0.0399(8) 1.0556(8)
H22 H 0.2729 -0.0290 1.0560
C27 C 0.2633(14) -0.0386(9) 0.8947(9)
H23 H 0.3369 -0.0551 0.8862
H24 H 0.2299 -0.0998 0.9142
C28 C 0.1745(16) -0.0284(12) 0.8051(10)
H25 H 0.1094 0.0047 0.8152
H26 H 0.1368 -0.0998 0.7659
C29 C 0.2298(13) 0.0394(9) 0.7509(9)
H27 H 0.1597 0.0384 0.6905
C30 C 0.3321(13) 0.0054(10) 0.7212(9)
H28 H 0.3104 -0.0714 0.6944
H29 H 0.4092 0.0176 0.7778
C31 C 0.3538(13) 0.0674(12) 0.6463(10)
H30 H 0.4206 0.0442 0.6325
H31 H 0.3745 0.1436 0.6719
H32 H 0.2794 0.0523 0.5885
C32 C 0.2297(10) 0.2217(9) 0.7485(8)
H33 H 0.1814 0.1920 0.6844
C33 C 0.2535(9) 0.3375(9) 0.7716(7)
C34 C 0.1958(10) 0.3954(9) 0.7013(7)
H34 H 0.1403 0.3584 0.6408
C35 C 0.2206(9) 0.5076(10) 0.7210(7)
C36 C 0.3119(9) 0.5621(8) 0.8093(7)
H35 H 0.3326 0.6371 0.8217
C37 C 0.3704(9) 0.5065(8) 0.8766(7)
H36 H 0.4310 0.5444 0.9348
C38 C 0.3429(9) 0.3935(8) 0.8619(7)
Br3 Br 0.42080(13) 0.09227(10) 1.42602(8)
Br4 Br 0.13884(12) 0.58539(12) 0.62719(9)
Mn2_2 Mn -0.65094(13) 0.20417(12) 0.94842(11)
N6_2 N 0.5258(8) 0.1556(7) 0.9500(7)
loop_
_geom_bond_atom_site_label_1
_geom_bond_atom_site_label_2
_geom_bond_site_symmetry_1
_geom_bond_site_symmetry_2
Mn1 N1 1_555 1_555
N1 N2 1_555 1_555
N2 N3 1_555 1_555
N3 Mn2 1_555 1_555
N4 Mn1 1_555 1_555
N5 Mn1 1_555 1_555
O1 Mn1 1_555 1_555
O2 Mn1 1_555 1_555
C1 O1 1_555 1_555
C2 C1 1_555 1_555
H1 C2 1_555 1_555
C3 C2 1_555 1_555
H2 C3 1_555 1_555
C4 C3 1_555 1_555
C5 C4 1_555 1_555
H3 C5 1_555 1_555
C6 C1 1_555 1_555
C7 N4 1_555 1_555
H4 C7 1_555 1_555
C8 N4 1_555 1_555
H5 C8 1_555 1_555
H6 C8 1_555 1_555
C9 C8 1_555 1_555
H7 C9 1_555 1_555
H8 C9 1_555 1_555
C10 N5 1_555 1_555
H9 C10 1_555 1_555
C11 C10 1_555 1_555
H10 C11 1_555 1_555
H11 C11 1_555 1_555
C12 C11 1_555 1_555
H12 C12 1_555 1_555
H13 C12 1_555 1_555
H14 C12 1_555 1_555
C13 N5 1_555 1_555
H15 C13 1_555 1_555
C14 C13 1_555 1_555
C15 C14 1_555 1_555
H16 C15 1_555 1_555
C16 C15 1_555 1_555
C17 C16 1_555 1_555
H17 C17 1_555 1_555
C18 C17 1_555 1_555
H18 C18 1_555 1_555
C19 O2 1_555 1_555
Br1 C4 1_555 1_555
Br2 C16 1_555 1_555
Mn2 N9 1_555 1_555
N6 N7 1_555 1_555
N7 N8 1_555 1_555
N8 Mn1 1_555 1_555
N9 C26 1_555 1_555
N10 Mn2 1_555 1_555
O3 Mn2 1_555 1_555
O4 Mn2 1_555 1_555
C20 O3 1_555 1_555
C21 C20 1_555 1_555
H19 C21 1_555 1_555
C22 C21 1_555 1_555
H20 C22 1_555 1_555
C23 C22 1_555 1_555
C24 C23 1_555 1_555
H21 C24 1_555 1_555
C25 C20 1_555 1_555
C26 C25 1_555 1_555
H22 C26 1_555 1_555
C27 N9 1_555 1_555
H23 C27 1_555 1_555
H24 C27 1_555 1_555
C28 C27 1_555 1_555
H25 C28 1_555 1_555
H26 C28 1_555 1_555
C29 N10 1_555 1_555
H27 C29 1_555 1_555
C30 C29 1_555 1_555
H28 C30 1_555 1_555
H29 C30 1_555 1_555
C31 C30 1_555 1_555
H30 C31 1_555 1_555
H31 C31 1_555 1_555
H32 C31 1_555 1_555
C32 N10 1_555 1_555
H33 C32 1_555 1_555
C33 C32 1_555 1_555
C34 C33 1_555 1_555
H34 C34 1_555 1_555
C35 C34 1_555 1_555
C36 C35 1_555 1_555
H35 C36 1_555 1_555
C37 C36 1_555 1_555
H36 C37 1_555 1_555
C38 O4 1_555 1_555
Br3 C23 1_555 1_555
Br4 C35 1_555 1_555
Mn2_2 N6 1_555 1_555
N6_2 Mn2 1_555 1_555
C5 C6 1_555 1_555
C6 C7 1_555 1_555
C9 C10 1_555 1_555
C14 C19 1_555 1_555
C18 C19 1_555 1_555
C24 C25 1_555 1_555
C28 C29 1_555 1_555
C33 C38 1_555 1_555
C37 C38 1_555 1_555

#END
