
#######################################################################
#
#                 Cambridge Crystallographic Data Centre
#                                CCDC 
#
#######################################################################
#
# If this CIF has been generated from an entry in the Cambridge 
# Structural Database, then it will include bibliographic, chemical, 
# crystal, experimental, refinement or atomic coordinate data resulting 
# from the CCDC's data processing and validation procedures.
#
#######################################################################

data_MAWKUS
_symmetry_cell_setting           monoclinic
_symmetry_space_group_name_H-M   'P 21/c'
_symmetry_Int_Tables_number      14
_space_group_name_Hall           '-P 2ybc'
loop_
_symmetry_equiv_pos_site_id
_symmetry_equiv_pos_as_xyz
1 x,y,z
2 -x,1/2+y,1/2-z
3 -x,-y,-z
4 x,1/2-y,1/2+z
_cell_length_a                   12.6256(15)
_cell_length_b                   12.8577(16)
_cell_length_c                   12.4425(15)
_cell_angle_alpha                90
_cell_angle_beta                 90.00
_cell_angle_gamma                90
_cell_volume                     2019.87
loop_
_atom_site_label
_atom_site_type_symbol
_atom_site_fract_x
_atom_site_fract_y
_atom_site_fract_z
Mn1 Mn 0.95820(5) 0.76342(5) 0.86056(5)
N1 N 0.9125(3) 0.7132(3) 0.6920(3)
N2 N 0.9548(3) 0.6951(3) 0.6104(3)
N3 N 0.9945(3) 0.6726(3) 0.5282(3)
N4 N 0.8024(3) 0.7900(3) 0.8884(3)
N5 N 0.9669(3) 0.9073(3) 0.7991(3)
O1 O 0.9422(2) 0.6254(2) 0.9136(2)
O2 O 1.1056(2) 0.7459(2) 0.8444(2)
C1 C 0.8558(3) 0.5684(3) 0.9171(3)
C2 C 0.8670(3) 0.4592(3) 0.9321(3)
H1 H 0.9354 0.4305 0.9437
C3 C 0.7805(3) 0.3948(3) 0.9300(3)
H2 H 0.7897 0.3218 0.9374
C4 C 0.6792(3) 0.4357(3) 0.9170(3)
C5 C 0.6639(3) 0.5413(3) 0.9083(3)
H3 H 0.5943 0.5689 0.9031
C6 C 0.7529(3) 0.6087(3) 0.9073(3)
C7 C 0.7329(3) 0.7186(3) 0.9027(3)
H4 H 0.6615 0.7404 0.9110
C8 C 0.7718(3) 0.8998(3) 0.9020(3)
H5 H 0.8204 0.9322 0.9546
H6 H 0.6996 0.9023 0.9328
C9 C 0.7732(3) 0.9642(3) 0.8001(4)
C10 C 0.6807(4) 0.9358(4) 0.7259(4)
H7 H 0.6850 0.8620 0.7069
H8 H 0.6842 0.9781 0.6605
H9 H 0.6136 0.9493 0.7630
C11 C 0.7665(4) 1.0793(3) 0.8360(4)
H10 H 0.7033 1.0893 0.8804
H11 H 0.7624 1.1242 0.7724
H12 H 0.8298 1.0972 0.8777
C12 C 0.8761(3) 0.9493(3) 0.7359(3)
H13 H 0.8617 0.9016 0.6753
H14 H 0.8971 1.0173 0.7051
C13 C 1.0521(3) 0.9622(3) 0.8023(3)
H15 H 1.0474 1.0319 0.7775
C14 C 1.1538(3) 0.9275(3) 0.8400(3)
C15 C 1.2359(3) 1.0009(3) 0.8457(3)
H16 H 1.2205 1.0724 0.8341
C16 C 1.3378(3) 0.9711(4) 0.8677(4)
C17 C 1.3630(3) 0.8664(3) 0.8816(3)
H17 H 1.4339 0.8459 0.8956
C18 C 1.2839(3) 0.7932(4) 0.8747(3)
H18 H 1.3016 0.7220 0.8837
C19 C 1.1787(3) 0.8198(3) 0.8549(3)
Br1 Br 0.56038(4) 0.34495(4) 0.91124(4)
Br2 Br 1.44499(3) 1.07586(4) 0.87347(4)
Mn1C Mn 0.95820(5) 0.73658(5) 0.36056(5)
N3C N 0.9945(3) 0.8274(3) 1.0282(3)
loop_
_geom_bond_atom_site_label_1
_geom_bond_atom_site_label_2
_geom_bond_site_symmetry_1
_geom_bond_site_symmetry_2
Mn1 N1 1_555 1_555
N1 N2 1_555 1_555
N2 N3 1_555 1_555
N3 Mn1C 1_555 1_555
N4 Mn1 1_555 1_555
N5 Mn1 1_555 1_555
O1 Mn1 1_555 1_555
O2 Mn1 1_555 1_555
C1 O1 1_555 1_555
C2 C1 1_555 1_555
H1 C2 1_555 1_555
C3 C2 1_555 1_555
H2 C3 1_555 1_555
C4 C3 1_555 1_555
C5 C4 1_555 1_555
H3 C5 1_555 1_555
C6 C1 1_555 1_555
C7 N4 1_555 1_555
H4 C7 1_555 1_555
C8 N4 1_555 1_555
H5 C8 1_555 1_555
H6 C8 1_555 1_555
C9 C8 1_555 1_555
C10 C9 1_555 1_555
H7 C10 1_555 1_555
H8 C10 1_555 1_555
H9 C10 1_555 1_555
C11 C9 1_555 1_555
H10 C11 1_555 1_555
H11 C11 1_555 1_555
H12 C11 1_555 1_555
C12 N5 1_555 1_555
H13 C12 1_555 1_555
H14 C12 1_555 1_555
C13 N5 1_555 1_555
H15 C13 1_555 1_555
C14 C13 1_555 1_555
C15 C14 1_555 1_555
H16 C15 1_555 1_555
C16 C15 1_555 1_555
C17 C16 1_555 1_555
H17 C17 1_555 1_555
C18 C17 1_555 1_555
H18 C18 1_555 1_555
C19 O2 1_555 1_555
Br1 C4 1_555 1_555
Br2 C16 1_555 1_555
N3C Mn1 1_555 1_555
C5 C6 1_555 1_555
C6 C7 1_555 1_555
C9 C12 1_555 1_555
C14 C19 1_555 1_555
C18 C19 1_555 1_555

#END
