
#######################################################################
#
#                 Cambridge Crystallographic Data Centre
#                                CCDC 
#
#######################################################################
#
# If this CIF has been generated from an entry in the Cambridge 
# Structural Database, then it will include bibliographic, chemical, 
# crystal, experimental, refinement or atomic coordinate data resulting 
# from the CCDC's data processing and validation procedures.
#
#######################################################################

data_MAWKAY
_symmetry_cell_setting           monoclinic
_symmetry_space_group_name_H-M   'P 21/n'
_symmetry_Int_Tables_number      14
_space_group_name_Hall           '-P 2yn'
loop_
_symmetry_equiv_pos_site_id
_symmetry_equiv_pos_as_xyz
1 x,y,z
2 1/2-x,1/2+y,1/2-z
3 -x,-y,-z
4 1/2+x,1/2-y,1/2+z
_cell_length_a                   7.3025(6)
_cell_length_b                   23.7239(18)
_cell_length_c                   7.6867(6)
_cell_angle_alpha                90
_cell_angle_beta                 91.548(7)
_cell_angle_gamma                90
_cell_volume                     1331.19
loop_
_atom_site_label
_atom_site_type_symbol
_atom_site_fract_x
_atom_site_fract_y
_atom_site_fract_z
Mn1 Mn 0.34458(5) 0.277957(16) 0.42010(5)
O1 O 0.5427(2) 0.23014(8) 0.5730(2)
O2 O 0.1517(3) 0.23583(7) 0.5834(2)
C1 C 0.3391(4) 0.15481(10) 0.6462(3)
H1 H 0.3340 0.1442 0.5230
C2 C 0.5139(3) 0.18965(10) 0.6757(3)
C3 C 0.1728(3) 0.19271(10) 0.6773(3)
O3 O 0.3407(3) 0.21271(8) 0.2110(3)
O4 O 0.6207(3) 0.17652(8) 0.7984(2)
O5 O 0.0662(3) 0.17889(8) 0.7939(2)
N1 N 0.3709(3) 0.34831(9) 0.6230(3)
C4 C 0.3636(4) 0.38052(12) 0.9168(4)
H2 H 0.3377 0.3723 1.0318
C5 C 0.3385(4) 0.33989(12) 0.7905(4)
H3 H 0.2965 0.3046 0.8242
C6 C 0.3362(4) 0.10043(12) 0.7506(5)
H4 H 0.3610 0.1092 0.8722
H5 H 0.2143 0.0843 0.7412
C7 C 0.4266(4) 0.43313(12) 0.8739(4)
C8 C 0.4592(6) 0.44192(14) 0.6989(4)
H6 H 0.5013 0.4767 0.6614
C9 C 0.4291(6) 0.39925(13) 0.5814(4)
H7 H 0.4509 0.4066 0.4649
C10 C 0.4739(6) 0.05676(14) 0.6924(7)
H8 H 0.4655 0.0238 0.7641
H9 H 0.5953 0.0721 0.7030
H10 H 0.4479 0.0468 0.5732
C11 C 0.4568(5) 0.47603(12) 1.0089(4)
H11 H 0.409(5) 0.4683(14) 1.118(4)
H12 H 0.433(4) 0.2244(15) 0.150(4)
H13 H 0.244(4) 0.2240(15) 0.149(4)
Mn1C Mn -0.15542(5) 0.222043(16) -0.07990(5)
Mn1C_2 Mn 0.84458(5) 0.222043(16) 0.92010(5)
Mn1C_3 Mn -0.15542(5) 0.222043(16) 0.92010(5)
Mn1B Mn 0.65542(5) 0.722043(16) 1.57990(5)
Mn1_2 Mn -0.65542(5) 0.277957(16) 0.42010(5)
O1C O 0.0427(2) 0.26986(8) 0.0730(2)
O2C O -0.3483(3) 0.26417(7) 0.0834(2)
C1C C -0.1609(4) 0.34519(10) 0.1462(3)
H1C H -0.1660 0.3558 0.0230
C2C C 0.0139(3) 0.31035(10) 0.1757(3)
C3C C -0.3272(3) 0.30729(10) 0.1773(3)
O3C O -0.1593(3) 0.28729(8) -0.2890(3)
O4C O 0.1207(3) 0.32348(8) 0.2984(2)
O4_2 O -0.3793(3) 0.17652(8) -0.2016(2)
O5C O -0.4338(3) 0.32111(8) 0.2939(2)
O5C_2 O 0.5662(3) 0.32111(8) 0.2939(2)
O5_2 O 0.0662(3) 0.17889(8) -0.2061(2)
N1B N 0.6291(3) 0.65169(9) 1.3770(3)
N1C N -0.1291(3) 0.15169(9) 0.1230(3)
C4B C 0.6364(4) 0.61948(12) 1.0832(4)
H2B H 0.6623 0.6277 0.9682
C5B C 0.6615(4) 0.66011(12) 1.2095(4)
H3B H 0.7035 0.6954 1.1758
C6C C -0.1638(4) 0.39957(12) 0.2506(5)
H4C H -0.1390 0.3908 0.3722
H5C H -0.2857 0.4157 0.2412
C7B C 0.5734(4) 0.56687(12) 1.1261(4)
C8B C 0.5408(6) 0.55808(14) 1.3011(4)
H6B H 0.4987 0.5233 1.3386
C9B C 0.5709(6) 0.60075(13) 1.4186(4)
H7B H 0.5491 0.5934 1.5351
C10C C -0.0261(6) 0.44324(14) 0.1924(7)
H8C H -0.0345 0.4762 0.2641
H9C H 0.0953 0.4279 0.2030
H10C H -0.0521 0.4532 0.0732
C11B C 0.5432(5) 0.52397(12) 0.9911(4)
H11B H 0.591(5) 0.5317(14) 0.882(4)
H12C H -0.067(4) 0.2756(15) -0.350(4)
H13C H -0.256(4) 0.2760(15) -0.351(4)
loop_
_geom_bond_atom_site_label_1
_geom_bond_atom_site_label_2
_geom_bond_site_symmetry_1
_geom_bond_site_symmetry_2
Mn1 O1 1_555 1_555
O1 C2 1_555 1_555
O2 Mn1 1_555 1_555
C1 H1 1_555 1_555
C2 C1 1_555 1_555
C3 O2 1_555 1_555
O3 Mn1 1_555 1_555
O4 C2 1_555 1_555
O5 C3 1_555 1_555
N1 Mn1 1_555 1_555
C4 H2 1_555 1_555
C5 N1 1_555 1_555
H3 C5 1_555 1_555
C6 C1 1_555 1_555
H4 C6 1_555 1_555
H5 C6 1_555 1_555
C7 C4 1_555 1_555
C8 C7 1_555 1_555
H6 C8 1_555 1_555
C9 N1 1_555 1_555
H7 C9 1_555 1_555
C10 C6 1_555 1_555
H8 C10 1_555 1_555
H9 C10 1_555 1_555
H10 C10 1_555 1_555
C11 C7 1_555 1_555
H11 C11 1_555 1_555
H12 O3 1_555 1_555
H13 O3 1_555 1_555
Mn1C O1C 1_555 1_555
Mn1C_2 O4 1_555 1_555
Mn1C_3 O5 1_555 1_555
Mn1B N1B 1_555 1_555
Mn1_2 O5C 1_555 1_555
O1C C2C 1_555 1_555
O2C Mn1C 1_555 1_555
C1C H1C 1_555 1_555
C2C C1C 1_555 1_555
C3C O2C 1_555 1_555
O3C Mn1C 1_555 1_555
O4C Mn1 1_555 1_555
O4_2 Mn1C 1_555 1_555
O5C C3C 1_555 1_555
O5C_2 Mn1 1_555 1_555
O5_2 Mn1C 1_555 1_555
N1B C5B 1_555 1_555
N1C Mn1C 1_555 1_555
C4B H2B 1_555 1_555
C5B C4B 1_555 1_555
H3B C5B 1_555 1_555
C6C C1C 1_555 1_555
H4C C6C 1_555 1_555
H5C C6C 1_555 1_555
C7B C4B 1_555 1_555
C8B C7B 1_555 1_555
H6B C8B 1_555 1_555
C9B N1B 1_555 1_555
H7B C9B 1_555 1_555
C10C C6C 1_555 1_555
H8C C10C 1_555 1_555
H9C C10C 1_555 1_555
H10C C10C 1_555 1_555
C11B C11 1_555 1_555
H11B C11B 1_555 1_555
H12C O3C 1_555 1_555
H13C O3C 1_555 1_555
C1 C3 1_555 1_555
C4 C5 1_555 1_555
C8 C9 1_555 1_555
C1C C3C 1_555 1_555
C2C O4C 1_555 1_555
C7B C11B 1_555 1_555
C8B C9B 1_555 1_555

#END
