
#######################################################################
#
#                 Cambridge Crystallographic Data Centre
#                                CCDC 
#
#######################################################################
#
# If this CIF has been generated from an entry in the Cambridge 
# Structural Database, then it will include bibliographic, chemical, 
# crystal, experimental, refinement or atomic coordinate data resulting 
# from the CCDC's data processing and validation procedures.
#
#######################################################################

data_MAWKUS01
_symmetry_cell_setting           monoclinic
_symmetry_space_group_name_H-M   'P 21/c'
_symmetry_Int_Tables_number      14
_space_group_name_Hall           '-P 2ybc'
loop_
_symmetry_equiv_pos_site_id
_symmetry_equiv_pos_as_xyz
1 x,y,z
2 -x,1/2+y,1/2-z
3 -x,-y,-z
4 x,1/2-y,1/2+z
_cell_length_a                   12.6445(4)
_cell_length_b                   12.8920(5)
_cell_length_c                   12.4737(6)
_cell_angle_alpha                90
_cell_angle_beta                 90.603(4)
_cell_angle_gamma                90
_cell_volume                     2033.26
loop_
_atom_site_label
_atom_site_type_symbol
_atom_site_fract_x
_atom_site_fract_y
_atom_site_fract_z
N1 N 0.0063(2) -0.1731(2) 0.9718(2)
C1 C -0.1781(3) -0.1790(3) 1.1458(3)
C2 C -0.2839(3) -0.2069(3) 1.1257(3)
H1 H -0.3015 -0.2765 1.1174
C3 C -0.3621(3) -0.1324(3) 1.1180(3)
H2 H -0.4316 -0.1518 1.1030
C4 C -0.3367(3) -0.0283(3) 1.1328(3)
C5 C -0.2352(3) 0.0005(3) 1.1540(3)
H3 H -0.2193 0.0703 1.1644
C6 C -0.1540(3) -0.0734(3) 1.1605(3)
C7 C -0.0520(3) -0.0390(3) 1.1959(3)
H4 H -0.0468 0.0298 1.2180
C8 C 0.1231(3) -0.0527(3) 1.2635(3)
H5 H 0.1025 0.0128 1.2954
H6 H 0.1380 -0.1007 1.3215
C9 C 0.2250(3) -0.0355(3) 1.2008(3)
C10 C 0.2265(3) -0.1005(3) 1.0978(3)
H7 H 0.2973 -0.0981 1.0686
H8 H 0.1791 -0.0688 1.0458
C11 C 0.2328(3) 0.0779(3) 1.1642(3)
H9 H 0.2324 0.1226 1.2258
H10 H 0.2974 0.0878 1.1257
H11 H 0.1737 0.0942 1.1184
C12 C 0.3180(3) -0.0638(3) 1.2738(3)
H12 H 0.3160 -0.0221 1.3375
H13 H 0.3136 -0.1358 1.2929
H14 H 0.3831 -0.0514 1.2370
C13 C 0.2658(3) -0.2810(3) 1.0975(3)
H15 H 0.3353 -0.2590 1.0894
C14 C 0.2471(3) -0.3915(3) 1.0933(3)
C15 C 0.3338(3) -0.4586(3) 1.0919(3)
H16 H 0.4019 -0.4317 1.0971
C16 C 0.3196(3) -0.5637(3) 1.0829(3)
C17 C 0.2186(3) -0.6039(3) 1.0697(3)
H17 H 0.2094 -0.6751 1.0618
C18 C 0.1323(3) -0.5396(3) 1.0682(3)
H18 H 0.0655 -0.5677 1.0565
C19 C 0.1429(3) -0.4314(3) 1.0842(3)
N2 N 0.0329(2) -0.0930(2) 1.2005(2)
N3 N 0.1958(2) -0.2104(2) 1.1113(2)
N4 N 0.0865(2) -0.2134(2) 0.8078(3)
N5 N 0.0450(2) -0.1951(2) 0.8898(3)
O1 O -0.10606(18) -0.25344(17) 1.15489(18)
O2 O 0.05737(18) -0.37359(18) 1.08698(19)
Mn1 Mn 0.04159(4) -0.23658(4) 1.13929(4)
Br1 Br -0.44426(3) 0.07537(3) 1.12683(4)
Br2 Br 0.43854(3) -0.65352(3) 1.08838(4)
N4C N 0.0865(2) -0.2866(2) 1.3078(3)
Mn1C Mn 0.04159(4) -0.26342(4) 0.63929(4)
loop_
_geom_bond_atom_site_label_1
_geom_bond_atom_site_label_2
_geom_bond_site_symmetry_1
_geom_bond_site_symmetry_2
N1 N5 1_555 1_555
C1 C2 1_555 1_555
C2 H1 1_555 1_555
C3 C2 1_555 1_555
H2 C3 1_555 1_555
C4 C3 1_555 1_555
C5 C4 1_555 1_555
H3 C5 1_555 1_555
C6 C1 1_555 1_555
C7 C6 1_555 1_555
H4 C7 1_555 1_555
C8 H5 1_555 1_555
H6 C8 1_555 1_555
C9 C8 1_555 1_555
C10 C9 1_555 1_555
H7 C10 1_555 1_555
H8 C10 1_555 1_555
C11 C9 1_555 1_555
H9 C11 1_555 1_555
H10 C11 1_555 1_555
H11 C11 1_555 1_555
C12 C9 1_555 1_555
H12 C12 1_555 1_555
H13 C12 1_555 1_555
H14 C12 1_555 1_555
C13 H15 1_555 1_555
C14 C13 1_555 1_555
C15 C14 1_555 1_555
H16 C15 1_555 1_555
C16 C15 1_555 1_555
C17 C16 1_555 1_555
H17 C17 1_555 1_555
C18 C17 1_555 1_555
H18 C18 1_555 1_555
C19 C14 1_555 1_555
N2 C7 1_555 1_555
N3 C10 1_555 1_555
N4 N5 1_555 1_555
O1 C1 1_555 1_555
O2 C19 1_555 1_555
Mn1 N1 1_555 1_555
Br1 C4 1_555 1_555
Br2 C16 1_555 1_555
N4C Mn1 1_555 1_555
Mn1C N4 1_555 1_555
C5 C6 1_555 1_555
C8 N2 1_555 1_555
C13 N3 1_555 1_555
C18 C19 1_555 1_555
N2 Mn1 1_555 1_555
N3 Mn1 1_555 1_555
O1 Mn1 1_555 1_555
O2 Mn1 1_555 1_555

#END
