
#######################################################################
#
#                 Cambridge Crystallographic Data Centre
#                                CCDC 
#
#######################################################################
#
# If this CIF has been generated from an entry in the Cambridge 
# Structural Database, then it will include bibliographic, chemical, 
# crystal, experimental, refinement or atomic coordinate data resulting 
# from the CCDC's data processing and validation procedures.
#
#######################################################################

data_MAWLUT
_symmetry_cell_setting           monoclinic
_symmetry_space_group_name_H-M   'P 21/c'
_symmetry_Int_Tables_number      14
_space_group_name_Hall           '-P 2ybc'
loop_
_symmetry_equiv_pos_site_id
_symmetry_equiv_pos_as_xyz
1 x,y,z
2 -x,1/2+y,1/2-z
3 -x,-y,-z
4 x,1/2-y,1/2+z
_cell_length_a                   10.358(2)
_cell_length_b                   18.275(4)
_cell_length_c                   11.743(3)
_cell_angle_alpha                90
_cell_angle_beta                 91.791(4)
_cell_angle_gamma                90
_cell_volume                     2221.78
loop_
_atom_site_label
_atom_site_type_symbol
_atom_site_fract_x
_atom_site_fract_y
_atom_site_fract_z
Ag1 Ag 0.39387(4) 0.31134(2) 0.02164(3)
S1 S 0.46546(11) 0.29108(6) -0.36517(10)
N1 N 0.5012(4) 0.39179(18) -0.0861(3)
N2 N 0.2231(4) 0.40135(19) -0.1606(3)
C1 C 0.5275(5) 0.4710(3) -0.2297(4)
C2 C 0.3315(4) 0.3896(2) -0.2342(4)
H1 H 0.3125 0.4167 -0.3048
N3 N 0.4518(3) 0.41816(18) -0.1868(3)
C3 C 0.1006(5) 0.3789(3) -0.0216(5)
N4 N 0.2164(4) 0.3629(2) -0.0613(3)
C4 C 0.5995(5) 0.2656(3) -0.2755(4)
C5 C 0.6091(5) 0.4289(3) -0.0663(4)
C6 C 0.0956(5) 0.4864(3) -0.2879(4)
H2 H 0.0116 0.5086 -0.2887
H3 H 0.1606 0.5239 -0.2869
H4 H 0.1038 0.4567 -0.3547
C7 C 0.0580(5) 0.3454(3) 0.0871(4)
H5 H 0.1257 0.3149 0.1184
H6 H 0.0388 0.3834 0.1404
H7 H -0.0180 0.3164 0.0723
C8 C 0.6272(5) 0.4782(3) -0.1545(5)
H8 H 0.6961 0.5105 -0.1604
C9 C 0.7141(6) 0.3002(3) -0.2913(5)
H9 H 0.7195 0.3379 -0.3443
C10 C 0.0361(5) 0.4264(3) -0.0963(5)
H10 H -0.0460 0.4457 -0.0871
C11 C 0.3389(3) 0.3086(2) -0.2664(3)
H11 H 0.3545 0.2797 -0.1980
H12 H 0.2567 0.2933 -0.3005
C12 C 0.1127(5) 0.4395(3) -0.1834(5)
C13 C 0.6896(4) 0.4136(3) 0.0373(4)
H13 H 0.7400 0.3703 0.0256
H14 H 0.7461 0.4542 0.0528
H15 H 0.6348 0.4062 0.1007
C14 C 0.4970(5) 0.5072(2) -0.3416(4)
H16 H 0.5676 0.5381 -0.3616
H17 H 0.4836 0.4705 -0.3993
H18 H 0.4201 0.5361 -0.3357
C15 C 0.6993(7) 0.1899(4) -0.1321(5)
H19 H 0.6941 0.1536 -0.0770
C16 C 0.5918(6) 0.2098(3) -0.1963(5)
H20 H 0.5137 0.1858 -0.1865
C17 C 0.8231(8) 0.2787(4) -0.2274(7)
H21 H 0.9020 0.3017 -0.2377
C18 C 0.8138(9) 0.2242(5) -0.1503(8)
H22 H 0.8873 0.2097 -0.1087
Ag1C Ag 0.39387(4) 0.18866(2) -0.47836(3)
S1C S 0.46546(11) 0.20892(6) 0.13483(10)
B1 B 0.1979(9) 0.1266(5) -0.0779(8)
F1 F 0.2709(8) 0.1516(5) -0.1592(7)
F2 F 0.2642(7) 0.0852(5) -0.0035(5)
F3 F 0.1666(19) 0.1847(7) -0.0187(15)
F4 F 0.1049(13) 0.0955(7) -0.1176(11)
F5? F 0.3076(14) 0.1580(12) -0.064(2)
F6? F 0.113(2) 0.1740(14) -0.1351(14)
F7? F 0.1977(12) 0.0646(9) -0.129(2)
F8? F 0.126(3) 0.1388(12) 0.0092(18)
loop_
_geom_bond_atom_site_label_1
_geom_bond_atom_site_label_2
_geom_bond_site_symmetry_1
_geom_bond_site_symmetry_2
Ag1 N1 1_555 1_555
S1 C4 1_555 1_555
N1 N3 1_555 1_555
N2 C2 1_555 1_555
C1 N3 1_555 1_555
C2 H1 1_555 1_555
N3 C2 1_555 1_555
C3 N4 1_555 1_555
N4 Ag1 1_555 1_555
C4 C9 1_555 1_555
C5 N1 1_555 1_555
C6 H2 1_555 1_555
H3 C6 1_555 1_555
H4 C6 1_555 1_555
C7 C3 1_555 1_555
H5 C7 1_555 1_555
H6 C7 1_555 1_555
H7 C7 1_555 1_555
C8 C1 1_555 1_555
H8 C8 1_555 1_555
C9 H9 1_555 1_555
C10 C3 1_555 1_555
H10 C10 1_555 1_555
C11 S1 1_555 1_555
H11 C11 1_555 1_555
H12 C11 1_555 1_555
C12 N2 1_555 1_555
C13 C5 1_555 1_555
H13 C13 1_555 1_555
H14 C13 1_555 1_555
H15 C13 1_555 1_555
C14 C1 1_555 1_555
H16 C14 1_555 1_555
H17 C14 1_555 1_555
H18 C14 1_555 1_555
C15 H19 1_555 1_555
C16 C4 1_555 1_555
H20 C16 1_555 1_555
C17 C9 1_555 1_555
H21 C17 1_555 1_555
C18 C15 1_555 1_555
H22 C18 1_555 1_555
B1 F1 1_555 1_555
F2 B1 1_555 1_555
F3 B1 1_555 1_555
F4 B1 1_555 1_555
Ag1C S1 1_555 1_555
S1C Ag1 1_555 1_555
N2 N4 1_555 1_555
C2 C11 1_555 1_555
C5 C8 1_555 1_555
C6 C12 1_555 1_555
C10 C12 1_555 1_555
C15 C16 1_555 1_555
C17 C18 1_555 1_555

#END
