
#######################################################################
#
#                 Cambridge Crystallographic Data Centre
#                                CCDC 
#
#######################################################################
#
# If this CIF has been generated from an entry in the Cambridge 
# Structural Database, then it will include bibliographic, chemical, 
# crystal, experimental, refinement or atomic coordinate data resulting 
# from the CCDC's data processing and validation procedures.
#
#######################################################################

data_MAWMEE
_symmetry_cell_setting           monoclinic
_symmetry_space_group_name_H-M   'C c'
_symmetry_Int_Tables_number      9
_space_group_name_Hall           'C -2yc'
loop_
_symmetry_equiv_pos_site_id
_symmetry_equiv_pos_as_xyz
1 x,y,z
2 x,-y,1/2+z
3 1/2+x,1/2+y,z
4 1/2+x,1/2-y,1/2+z
_cell_length_a                   19.316(1)
_cell_length_b                   17.068(1)
_cell_length_c                   21.141(2)
_cell_angle_alpha                90
_cell_angle_beta                 102.624(2)
_cell_angle_gamma                90
_cell_volume                     6801.39
loop_
_atom_site_label
_atom_site_type_symbol
_atom_site_fract_x
_atom_site_fract_y
_atom_site_fract_z
Ag1 Ag 0.409121(14) 0.217536(18) 0.222501(14)
Ag2 Ag 0.680487(16) 0.419725(17) 0.155713(15)
S1 S 0.52261(5) 0.21735(6) 0.19075(5)
S2 S 0.24283(5) 0.00702(6) 0.23908(5)
C1 C 0.2430(2) 0.1694(2) 0.25062(18)
H1 H 0.1972 0.1641 0.2629
N1 N 0.29723(15) 0.16719(17) 0.30971(15)
N2 N 0.62902(14) 0.24649(18) 0.09890(15)
N3 N 0.36832(15) 0.16927(18) 0.30745(15)
N4 N 0.55705(15) 0.35031(19) 0.04039(15)
N5 N 0.68323(16) 0.28961(17) 0.13362(16)
N6 N 0.5884(2) 0.4167(2) 0.06684(17)
C2 C 0.55824(18) 0.2802(2) 0.08069(18)
H2 H 0.5274 0.2410 0.0547
N7 N 0.29570(17) 0.2629(2) 0.18743(18)
N8 N 0.24155(16) 0.24364(18) 0.21583(16)
C3 C 0.5260(2) 0.3006(3) 0.1382(2)
H3 H 0.4783 0.3204 0.1223
H4 H 0.5538 0.3419 0.1632
C4 C 0.3341(2) -0.0173(2) 0.2658(2)
C5 C 0.2482(2) 0.1029(2) 0.20390(19)
H5 H 0.2928 0.1072 0.1902
H6 H 0.2101 0.1082 0.1657
C6 C 0.4034(2) 0.1622(2) 0.3678(2)
C7 C 0.1822(2) 0.2869(2) 0.1902(3)
C8 C 0.3575(3) -0.0419(3) 0.3300(2)
H7 H 0.3257 -0.0467 0.3571
C9 C 0.5145(2) 0.3641(3) -0.01907(19)
C10 C 0.5965(2) 0.2351(3) 0.2566(2)
C11 C 0.3574(2) 0.1548(3) 0.4089(2)
H8 H 0.3699 0.1488 0.4537
C12 C 0.1134(3) 0.2783(4) 0.2104(5)
H9 H 0.1053 0.2227 0.2175
C13 C 0.8110(2) 0.2765(3) 0.1760(3)
H10 H 0.8012 0.3212 0.2018
C14 C 0.4830(2) 0.1660(3) 0.3851(2)
H11 H 0.5005 0.1437 0.3488
C15 C 0.2204(2) 0.1534(3) 0.3929(2)
H12 H 0.1824 0.1686 0.3562
C16 C 0.2901(2) 0.1581(2) 0.3718(2)
C17 C 0.6128(3) 0.3083(4) 0.2834(3)
H13 H 0.5851 0.3512 0.2669
C18 C 0.4745(3) -0.0503(4) 0.3148(3)
H14 H 0.5223 -0.0601 0.3319
C19 C 0.3816(2) -0.0107(3) 0.2265(2)
H15 H 0.3663 0.0048 0.1835
C20 C 0.4703(3) 0.3030(4) -0.0598(2)
H16 H 0.4563 0.2641 -0.0309
C21 C 0.6508(2) 0.1736(2) 0.0863(2)
C22 C 0.6050(3) 0.1101(3) 0.0517(3)
H17 H 0.5573 0.1316 0.0362
C23 C 0.7224(2) 0.1719(3) 0.1133(3)
H18 H 0.7530 0.1301 0.1124
C24 C 0.4530(3) -0.0274(4) 0.2513(3)
H19 H 0.4858 -0.0232 0.2251
C25 C 0.7403(2) 0.2446(3) 0.1421(2)
C26 C 0.5997(4) 0.0427(3) 0.0961(4)
H20 H 0.6455 0.0187 0.1100
H21 H 0.5667 0.0048 0.0734
H22 H 0.5836 0.0614 0.1332
C27 C 0.2067(4) 0.0722(5) 0.4119(5)
H23 H 0.1951 0.0398 0.3740
H24 H 0.1678 0.0722 0.4335
H25 H 0.2483 0.0520 0.4407
C28 C 0.5685(3) 0.4723(3) 0.0234(2)
C29 C 0.5232(3) 0.4419(3) -0.0297(3)
H26 H 0.5020 0.4695 -0.0668
C30 C 0.2703(3) 0.3193(3) 0.1453(3)
C31 C 0.5145(3) 0.1187(5) 0.4448(3)
H27 H 0.5653 0.1213 0.4529
H28 H 0.4995 0.0652 0.4382
H29 H 0.4987 0.1397 0.4814
C32 C 0.4273(3) -0.0586(4) 0.3524(3)
H30 H 0.4428 -0.0762 0.3947
C33 C 0.2198(5) 0.2094(6) 0.4488(5)
H31 H 0.2572 0.1955 0.4851
H32 H 0.1749 0.2060 0.4612
H33 H 0.2270 0.2620 0.4355
C34 C 0.5069(3) 0.2496(4) 0.3927(4)
H34 H 0.4885 0.2776 0.3533
H35 H 0.5578 0.2515 0.4022
H36 H 0.4898 0.2732 0.4276
C35 C 0.6323(4) 0.0826(4) -0.0077(3)
H37 H 0.6355 0.1267 -0.0352
H38 H 0.6001 0.0447 -0.0314
H39 H 0.6783 0.0594 0.0063
C36 C 0.6367(3) 0.1726(4) 0.2825(3)
H40 H 0.6268 0.1229 0.2649
C37 C 0.0531(4) 0.3088(7) 0.1597(8)
H41 H 0.0569 0.3647 0.1568
H42 H 0.0091 0.2956 0.1710
H43 H 0.0546 0.2857 0.1186
C38 C 0.5922(6) 0.5544(4) 0.0377(4)
H44 H 0.6257 0.5552 0.0799
C39 C 0.3162(4) 0.3558(6) 0.1034(5)
H45 H 0.3617 0.3281 0.1113
C40 C 0.4034(3) 0.3402(6) -0.0998(4)
H46 H 0.4156 0.3730 -0.1327
H47 H 0.3811 0.3713 -0.0721
H48 H 0.3714 0.2999 -0.1199
C41 C 0.2015(3) 0.3365(3) 0.1481(3)
H49 H 0.1734 0.3756 0.1249
C42 C 0.8495(4) 0.3074(7) 0.1298(5)
H50 H 0.8918 0.3332 0.1526
H51 H 0.8202 0.3441 0.1016
H52 H 0.8622 0.2652 0.1045
C43 C 0.6705(4) 0.3180(6) 0.3351(3)
H53 H 0.6819 0.3675 0.3527
C44 C 0.6287(5) 0.5867(4) -0.0120(7)
H54 H 0.6749 0.5636 -0.0065
H55 H 0.6332 0.6425 -0.0069
H56 H 0.6013 0.5748 -0.0545
C45 C 0.6932(4) 0.1840(7) 0.3358(4)
H57 H 0.7195 0.1413 0.3549
C46 C 0.5086(4) 0.2630(4) -0.1019(5)
H58 H 0.5203 0.2996 -0.1323
H59 H 0.4795 0.2220 -0.1248
H60 H 0.5513 0.2408 -0.0763
C47 C 0.7095(4) 0.2560(8) 0.3593(4)
H61 H 0.7488 0.2631 0.3932
C48 C 0.3297(6) 0.4396(8) 0.1198(6)
H62 H 0.2872 0.4692 0.1041
H63 H 0.3667 0.4586 0.1000
H64 H 0.3440 0.4453 0.1660
C49 C 0.8511(4) 0.2212(6) 0.2211(5)
H65 H 0.8242 0.2068 0.2526
H66 H 0.8951 0.2446 0.2427
H67 H 0.8605 0.1753 0.1981
C50 C 0.1158(6) 0.3212(7) 0.2717(6)
H68 H 0.1586 0.3080 0.3024
H69 H 0.0755 0.3069 0.2889
H70 H 0.1148 0.3766 0.2635
C51 C 0.2843(9) 0.3517(7) 0.0352(6)
H71 H 0.2620 0.3015 0.0254
H72 H 0.3202 0.3585 0.0106
H73 H 0.2494 0.3923 0.0241
C52 C 0.5285(9) 0.6066(5) 0.0423(7)
H74 H 0.4887 0.5930 0.0082
H75 H 0.5408 0.6605 0.0379
H76 H 0.5164 0.5988 0.0835
Ag2B Ag 0.180487(16) -0.080275(17) 0.155713(15)
S2B S 0.74283(5) 0.50702(6) 0.23908(5)
P1 P 0.52261(10) 0.53802(14) 0.24654(10)
F1 F 0.5147(8) 0.4749(7) 0.1984(6)
F2 F 0.4746(12) 0.5904(14) 0.1963(10)
F3 F 0.5308(11) 0.6154(10) 0.2880(10)
F4 F 0.4637(12) 0.5133(15) 0.2777(12)
F5 F 0.5806(10) 0.4987(12) 0.2958(9)
F6 F 0.5894(4) 0.5683(9) 0.2160(6)
P2 P 0.36981(10) 0.09447(12) 0.04063(8)
F7 F 0.3200(5) 0.1070(8) -0.0244(4)
F8 F 0.4172(9) 0.0808(13) 0.1092(6)
F9 F 0.4137(7) 0.1689(9) 0.0379(8)
F10 F 0.3284(8) 0.0199(7) 0.0525(7)
F11 F 0.4218(9) 0.0466(13) 0.0098(7)
F12 F 0.3213(10) 0.1417(9) 0.0744(9)
O3 O 0.343(2) 0.381(3) 0.401(2)
C59 C 0.268(3) 0.472(3) 0.402(2)
H89 H 0.2792 0.4581 0.4467
H90 H 0.2207 0.4562 0.3823
H91 H 0.2731 0.5273 0.3970
C60 C 0.303(3) 0.454(3) 0.3033(16)
H92 H 0.3418 0.4290 0.2895
H93 H 0.3044 0.5092 0.2960
H94 H 0.2590 0.4329 0.2791
C61 C 0.309(2) 0.438(2) 0.3746(16)
C53? C 0.231(2) 0.469(3) 0.356(2)
H77? H 0.2324 0.4376 0.3937
H78? H 0.1899 0.4544 0.3229
H79? H 0.2270 0.5234 0.3664
C54? C 0.2828(17) 0.5034(18) 0.2718(14)
H80? H 0.3121 0.4838 0.2440
H81? H 0.2947 0.5572 0.2824
H82? H 0.2338 0.4999 0.2499
C55? C 0.295(2) 0.457(3) 0.332(2)
O1? O 0.3385(18) 0.4045(18) 0.3360(18)
O2? O 0.3450(18) 0.4099(19) 0.4720(18)
C56? C 0.387(4) 0.384(5) 0.383(3)
H83? H 0.4276 0.3691 0.4149
H84? H 0.4003 0.4213 0.3535
H85? H 0.3666 0.3387 0.3587
C57? C 0.3325(17) 0.4206(19) 0.4149(19)
C58? C 0.279(3) 0.462(4) 0.369(2)
H86? H 0.2510 0.4934 0.3919
H87? H 0.2483 0.4247 0.3422
H88? H 0.3007 0.4948 0.3424
F13? F 0.4813(10) 0.5624(15) 0.1837(9)
F14? F 0.4598(11) 0.5535(11) 0.2763(12)
F15? F 0.5645(11) 0.6042(9) 0.2631(12)
F16? F 0.4338(7) 0.1190(17) 0.0101(10)
F17? F 0.3864(17) 0.1653(15) 0.0846(13)
F18? F 0.4256(9) 0.0446(12) 0.0892(9)
F19? F 0.3590(18) 0.0268(12) -0.0059(10)
F20? F 0.3220(11) 0.1517(16) -0.0064(12)
F21? F 0.3139(8) 0.068(2) 0.0735(10)
F22? F 0.4791(6) 0.4439(7) 0.2347(8)
F23? F 0.5709(8) 0.4892(10) 0.2140(7)
F24? F 0.5532(14) 0.4903(11) 0.3109(8)
loop_
_geom_bond_atom_site_label_1
_geom_bond_atom_site_label_2
_geom_bond_site_symmetry_1
_geom_bond_site_symmetry_2
Ag1 S1 1_555 1_555
Ag2 N5 1_555 1_555
S1 C3 1_555 1_555
S2 C4 1_555 1_555
C1 H1 1_555 1_555
N1 C1 1_555 1_555
N2 N5 1_555 1_555
N3 Ag1 1_555 1_555
N4 N6 1_555 1_555
N5 C25 1_555 1_555
N6 Ag2 1_555 1_555
C2 N2 1_555 1_555
H2 C2 1_555 1_555
N7 Ag1 1_555 1_555
N8 C1 1_555 1_555
C3 C2 1_555 1_555
H3 C3 1_555 1_555
H4 C3 1_555 1_555
C4 C8 1_555 1_555
C5 S2 1_555 1_555
H5 C5 1_555 1_555
H6 C5 1_555 1_555
C6 N3 1_555 1_555
C7 N8 1_555 1_555
C8 H7 1_555 1_555
C9 N4 1_555 1_555
C10 S1 1_555 1_555
C11 C6 1_555 1_555
H8 C11 1_555 1_555
C12 C7 1_555 1_555
H9 C12 1_555 1_555
C13 H10 1_555 1_555
C14 C6 1_555 1_555
H11 C14 1_555 1_555
C15 H12 1_555 1_555
C16 N1 1_555 1_555
C17 C10 1_555 1_555
H13 C17 1_555 1_555
C18 H14 1_555 1_555
C19 C4 1_555 1_555
H15 C19 1_555 1_555
C20 C9 1_555 1_555
H16 C20 1_555 1_555
C21 N2 1_555 1_555
C22 C21 1_555 1_555
H17 C22 1_555 1_555
C23 C21 1_555 1_555
H18 C23 1_555 1_555
C24 C18 1_555 1_555
H19 C24 1_555 1_555
C25 C13 1_555 1_555
C26 C22 1_555 1_555
H20 C26 1_555 1_555
H21 C26 1_555 1_555
H22 C26 1_555 1_555
C27 C15 1_555 1_555
H23 C27 1_555 1_555
H24 C27 1_555 1_555
H25 C27 1_555 1_555
C28 N6 1_555 1_555
C29 C9 1_555 1_555
H26 C29 1_555 1_555
C30 N7 1_555 1_555
C31 C14 1_555 1_555
H27 C31 1_555 1_555
H28 C31 1_555 1_555
H29 C31 1_555 1_555
C32 C8 1_555 1_555
H30 C32 1_555 1_555
C33 C15 1_555 1_555
H31 C33 1_555 1_555
H32 C33 1_555 1_555
H33 C33 1_555 1_555
C34 C14 1_555 1_555
H34 C34 1_555 1_555
H35 C34 1_555 1_555
H36 C34 1_555 1_555
C35 C22 1_555 1_555
H37 C35 1_555 1_555
H38 C35 1_555 1_555
H39 C35 1_555 1_555
C36 C10 1_555 1_555
H40 C36 1_555 1_555
C37 C12 1_555 1_555
H41 C37 1_555 1_555
H42 C37 1_555 1_555
H43 C37 1_555 1_555
C38 C28 1_555 1_555
H44 C38 1_555 1_555
C39 C30 1_555 1_555
H45 C39 1_555 1_555
C40 C20 1_555 1_555
H46 C40 1_555 1_555
H47 C40 1_555 1_555
H48 C40 1_555 1_555
C41 C7 1_555 1_555
H49 C41 1_555 1_555
C42 C13 1_555 1_555
H50 C42 1_555 1_555
H51 C42 1_555 1_555
H52 C42 1_555 1_555
C43 C17 1_555 1_555
H53 C43 1_555 1_555
C44 C38 1_555 1_555
H54 C44 1_555 1_555
H55 C44 1_555 1_555
H56 C44 1_555 1_555
C45 C36 1_555 1_555
H57 C45 1_555 1_555
C46 C20 1_555 1_555
H58 C46 1_555 1_555
H59 C46 1_555 1_555
H60 C46 1_555 1_555
C47 C43 1_555 1_555
H61 C47 1_555 1_555
C48 C39 1_555 1_555
H62 C48 1_555 1_555
H63 C48 1_555 1_555
H64 C48 1_555 1_555
C49 C13 1_555 1_555
H65 C49 1_555 1_555
H66 C49 1_555 1_555
H67 C49 1_555 1_555
C50 C12 1_555 1_555
H68 C50 1_555 1_555
H69 C50 1_555 1_555
H70 C50 1_555 1_555
C51 C39 1_555 1_555
H71 C51 1_555 1_555
H72 C51 1_555 1_555
H73 C51 1_555 1_555
C52 C38 1_555 1_555
H74 C52 1_555 1_555
H75 C52 1_555 1_555
H76 C52 1_555 1_555
P1 F1 1_555 1_555
F2 P1 1_555 1_555
F3 P1 1_555 1_555
F4 P1 1_555 1_555
F5 P1 1_555 1_555
F6 P1 1_555 1_555
P2 F7 1_555 1_555
F8 P2 1_555 1_555
F9 P2 1_555 1_555
F10 P2 1_555 1_555
F11 P2 1_555 1_555
F12 P2 1_555 1_555
O3 C61 1_555 1_555
C59 H89 1_555 1_555
H90 C59 1_555 1_555
H91 C59 1_555 1_555
C60 H92 1_555 1_555
H93 C60 1_555 1_555
H94 C60 1_555 1_555
C61 C59 1_555 1_555
Ag2B S2 1_555 1_555
S2B Ag2 1_555 1_555
C1 C5 1_555 1_555
N1 N3 1_555 1_555
N4 C2 1_555 1_555
N7 N8 1_555 1_555
C11 C16 1_555 1_555
C15 C16 1_555 1_555
C18 C32 1_555 1_555
C19 C24 1_555 1_555
C23 C25 1_555 1_555
C28 C29 1_555 1_555
C30 C41 1_555 1_555
C45 C47 1_555 1_555
C60 C61 1_555 1_555

#END
