
#######################################################################
#
#                 Cambridge Crystallographic Data Centre
#                                CCDC 
#
#######################################################################
#
# If this CIF has been generated from an entry in the Cambridge 
# Structural Database, then it will include bibliographic, chemical, 
# crystal, experimental, refinement or atomic coordinate data resulting 
# from the CCDC's data processing and validation procedures.
#
#######################################################################

data_MAWPEF
_symmetry_cell_setting           orthorhombic
_symmetry_space_group_name_H-M   'P 21 21 21'
_symmetry_Int_Tables_number      19
_space_group_name_Hall           'P 2ac 2ab'
loop_
_symmetry_equiv_pos_site_id
_symmetry_equiv_pos_as_xyz
1 x,y,z
2 1/2-x,-y,1/2+z
3 1/2+x,1/2-y,-z
4 -x,1/2+y,1/2-z
_cell_length_a                   8.571(2)
_cell_length_b                   22.675(3)
_cell_length_c                   7.325(3)
_cell_angle_alpha                90
_cell_angle_beta                 90
_cell_angle_gamma                90
_cell_volume                     1423.59
loop_
_atom_site_label
_atom_site_type_symbol
_atom_site_fract_x
_atom_site_fract_y
_atom_site_fract_z
Cu1 Cu -0.3241(1) -0.23750(4) -0.6530(2)
O1 O -0.6798(7) -0.2061(2) -0.4651(7)
O2 O -0.8513(7) -0.2311(2) -0.6730(8)
O3 O -0.4971(6) -0.0752(2) -0.7029(10)
O4 O -0.4634(6) -0.3003(2) -0.7356(7)
O5 O -0.6313(7) -0.3406(2) -0.9296(8)
N1 N -0.4608(8) -0.1751(2) -0.7192(9)
N2 N -0.1683(8) -0.1731(2) -0.652(1)
N3 N 0.2456(9) 0.0005(3) -0.679(1)
N4 N 0.2598(7) 0.1016(2) -0.688(1)
N5 N 0.4815(9) 0.0463(2) -0.678(1)
C1 C -0.725(1) -0.2085(3) -0.629(1)
C2 C -0.6174(10) -0.1879(3) -0.783(1)
C3 C -0.416(1) -0.1213(3) -0.686(1)
C4 C -0.249(1) -0.1158(3) -0.619(1)
C5 C -0.6124(8) -0.2353(3) -0.9272(9)
C6 C -0.568(1) -0.2963(3) -0.861(1)
C7 C -0.164(1) -0.0633(3) -0.707(1)
C8 C 0.012(1) -0.0621(3) -0.671(1)
C9 C 0.077(1) -0.0007(3) -0.693(1)
C10 C 0.327(1) 0.0493(3) -0.684(1)
H1 H -0.656(7) -0.154(2) -0.835(9)
H2 H -0.2470 -0.1138 -0.5091
H3 H -0.0945 -0.1799 -0.5583
H4 H -0.1171 -0.1719 -0.7670
H5 H -0.5353 -0.2297 -1.0381
H6 H -0.6990 -0.2389 -0.9715
H7 H -0.19(1) -0.066(3) -0.84(1)
H8 H -0.216(8) -0.028(3) -0.64(1)
H9 H 0.0640 -0.0874 -0.7545
H10 H 0.0245 -0.0730 -0.5160
H11 H 0.044(8) 0.012(2) -0.813(9)
H12 H 0.0316 0.0236 -0.5955
H13 H 0.2987 -0.0369 -0.6644
H14 H 0.1497 0.1052 -0.6921
H15 H 0.3235 0.1360 -0.6863
H16 H 0.5317 0.0089 -0.6752
H17 H 0.5414 0.0814 -0.6767
Cu1B Cu -0.8241(1) -0.26250(4) -0.3470(2)
O1B O -0.1798(7) -0.2939(2) -0.5349(7)
O6 O -0.4452(7) -0.1406(2) -0.2403(8)
H18 H -0.3478 -0.1397 -0.1428
H19 H -0.4675 -0.1885 -0.2570
loop_
_geom_bond_atom_site_label_1
_geom_bond_atom_site_label_2
_geom_bond_site_symmetry_1
_geom_bond_site_symmetry_2
Cu1 O4 1_555 1_555
O1 C1 1_555 1_555
O2 C1 1_555 1_555
O3 C3 1_555 1_555
O4 C6 1_555 1_555
O5 C6 1_555 1_555
O6 H18 1_555 1_555
N1 Cu1 1_555 1_555
N2 Cu1 1_555 1_555
N3 C9 1_555 1_555
N4 C10 1_555 1_555
N5 C10 1_555 1_555
C1 C2 1_555 1_555
C2 N1 1_555 1_555
C3 N1 1_555 1_555
C4 N2 1_555 1_555
C5 C2 1_555 1_555
C6 C5 1_555 1_555
C7 C4 1_555 1_555
C8 C7 1_555 1_555
C9 C8 1_555 1_555
C10 N3 1_555 1_555
H1 C2 1_555 1_555
H2 C4 1_555 1_555
H3 N2 1_555 1_555
H4 N2 1_555 1_555
H5 C5 1_555 1_555
H6 C5 1_555 1_555
H7 C7 1_555 1_555
H8 C7 1_555 1_555
H9 C8 1_555 1_555
H10 C8 1_555 1_555
H11 C9 1_555 1_555
H12 C9 1_555 1_555
H13 N3 1_555 1_555
H14 N4 1_555 1_555
H15 N4 1_555 1_555
H16 N5 1_555 1_555
H17 N5 1_555 1_555
H19 O6 1_555 1_555
Cu1B O1 1_555 1_555
O1B Cu1 1_555 1_555
C3 C4 1_555 1_555

#END
