
#######################################################################
#
#                 Cambridge Crystallographic Data Centre
#                                CCDC 
#
#######################################################################
#
# If this CIF has been generated from an entry in the Cambridge 
# Structural Database, then it will include bibliographic, chemical, 
# crystal, experimental, refinement or atomic coordinate data resulting 
# from the CCDC's data processing and validation procedures.
#
#######################################################################

data_MAWRUY
_symmetry_cell_setting           orthorhombic
_symmetry_space_group_name_H-M   'P c c n'
_symmetry_Int_Tables_number      56
_space_group_name_Hall           '-P 2ab 2ac'
loop_
_symmetry_equiv_pos_site_id
_symmetry_equiv_pos_as_xyz
1 x,y,z
2 1/2-x,1/2-y,z
3 -x,1/2+y,1/2-z
4 1/2+x,-y,1/2-z
5 -x,-y,-z
6 1/2+x,1/2+y,-z
7 x,1/2-y,1/2+z
8 1/2-x,y,1/2+z
_cell_length_a                   11.808(2)
_cell_length_b                   19.487(4)
_cell_length_c                   7.4073(15)
_cell_angle_alpha                90
_cell_angle_beta                 90
_cell_angle_gamma                90
_cell_volume                     1704.44
loop_
_atom_site_label
_atom_site_type_symbol
_atom_site_fract_x
_atom_site_fract_y
_atom_site_fract_z
Fe1 Fe 0.5000 0.5000 0.0000
O1 O 0.38765(13) 0.53319(9) 0.2127(2)
O2 O 0.51527(14) 0.56535(11) 0.4054(3)
O3 O 0.33734(15) 0.56676(11) 0.4771(2)
O4 O 0.62000(15) 0.45097(9) 0.1552(2)
H1 H 0.613(2) 0.4514(14) 0.279(5)
H2 H 0.689(2) 0.4443(14) 0.120(4)
N1 N 0.59608(17) 0.59342(10) -0.0019(3)
N2 N 0.41613(16) 0.55518(10) 0.3658(3)
C1 C 0.5449(2) 0.65351(13) 0.0307(4)
H3 H 0.4664 0.6534 0.0523
C2 C 0.6016(2) 0.71572(12) 0.0343(4)
H4 H 0.5619 0.7566 0.0578
C3 C 0.71756(19) 0.71735(11) 0.0029(3)
C4 C 0.7707(2) 0.65497(12) -0.0298(3)
H5 H 0.8491 0.6535 -0.0514
C5 C 0.7079(2) 0.59493(12) -0.0305(3)
H6 H 0.7457 0.5533 -0.0521
Fe1E Fe 1.0000 1.0000 0.0000
O1D O 0.61235(13) 0.46681(9) -0.2127(2)
O2D O 0.48473(14) 0.43465(11) -0.4054(3)
O3D O 0.66266(15) 0.43324(11) -0.4771(2)
O4D O 0.38000(15) 0.54903(9) -0.1552(2)
H1D H 0.387(2) 0.5486(14) -0.279(5)
H2D H 0.311(2) 0.5557(14) -0.120(4)
N1A N 0.90392(17) 0.90658(10) -0.0019(3)
N1D N 0.40392(17) 0.40658(10) 0.0019(3)
N2D N 0.58387(16) 0.44482(10) -0.3658(3)
C1A C 0.9551(2) 0.84649(13) 0.0307(4)
H3A H 1.0336 0.8466 0.0523
C2A C 0.8984(2) 0.78428(12) 0.0343(4)
H4A H 0.9381 0.7434 0.0578
C3A C 0.78244(19) 0.78265(11) 0.0029(3)
C4A C 0.7293(2) 0.84503(12) -0.0298(3)
H5A H 0.6509 0.8465 -0.0514
C5A C 0.7921(2) 0.90507(12) -0.0305(3)
H6A H 0.7543 0.9467 -0.0521
O7 O 0.2500 0.7500 0.430(12)
O8 O 0.137(2) 0.7894(14) 0.642(4)
O5? O 0.225(3) 0.7817(13) 0.728(5)
O6? O 0.239(4) 0.7792(18) 0.607(9)
O9? O 0.169(3) 0.764(2) 0.292(6)
loop_
_geom_bond_atom_site_label_1
_geom_bond_atom_site_label_2
_geom_bond_site_symmetry_1
_geom_bond_site_symmetry_2
Fe1 O1 1_555 1_555
O1 N2 1_555 1_555
O2 N2 1_555 1_555
O3 N2 1_555 1_555
O4 Fe1 1_555 1_555
H1 O4 1_555 1_555
H2 O4 1_555 1_555
N1 Fe1 1_555 1_555
C1 N1 1_555 1_555
H3 C1 1_555 1_555
C2 C1 1_555 1_555
H4 C2 1_555 1_555
C3 C2 1_555 1_555
C4 C3 1_555 1_555
H5 C4 1_555 1_555
C5 N1 1_555 1_555
H6 C5 1_555 1_555
Fe1E N1A 1_555 1_555
O1D Fe1 1_555 1_555
O2D N2D 1_555 1_555
O3D N2D 1_555 1_555
O4D Fe1 1_555 1_555
H1D O4D 1_555 1_555
H2D O4D 1_555 1_555
N1A C1A 1_555 1_555
N1D Fe1 1_555 1_555
N2D O1D 1_555 1_555
C1A H3A 1_555 1_555
C2A C1A 1_555 1_555
H4A C2A 1_555 1_555
C3A C3 1_555 1_555
C4A C3A 1_555 1_555
H5A C4A 1_555 1_555
C5A N1A 1_555 1_555
H6A C5A 1_555 1_555
C4 C5 1_555 1_555
C2A C3A 1_555 1_555
C4A C5A 1_555 1_555

#END
