
#######################################################################
#
#                 Cambridge Crystallographic Data Centre
#                                CCDC 
#
#######################################################################
#
# If this CIF has been generated from an entry in the Cambridge 
# Structural Database, then it will include bibliographic, chemical, 
# crystal, experimental, refinement or atomic coordinate data resulting 
# from the CCDC's data processing and validation procedures.
#
#######################################################################

data_MAWWAK08
_symmetry_cell_setting           orthorhombic
_symmetry_space_group_name_H-M   'F d d 2'
_symmetry_Int_Tables_number      43
_space_group_name_Hall           'F 2 -2d'
loop_
_symmetry_equiv_pos_site_id
_symmetry_equiv_pos_as_xyz
1 x,y,z
2 x,1/2+y,1/2+z
3 1/2+x,y,1/2+z
4 1/2+x,1/2+y,z
5 1/4-x,1/4+y,1/4+z
6 1/4-x,3/4+y,3/4+z
7 3/4-x,1/4+y,3/4+z
8 3/4-x,3/4+y,1/4+z
9 1/4+x,1/4-y,1/4+z
10 1/4+x,3/4-y,3/4+z
11 3/4+x,1/4-y,3/4+z
12 3/4+x,3/4-y,1/4+z
13 1/2-x,-y,1/2+z
14 1/2-x,1/2-y,z
15 -x,-y,z
16 -x,1/2-y,1/2+z
_cell_length_a                   19.610(6)
_cell_length_b                   32.864(8)
_cell_length_c                   8.6757(16)
_cell_angle_alpha                90
_cell_angle_beta                 90
_cell_angle_gamma                90
_cell_volume                     5591.17
loop_
_atom_site_label
_atom_site_type_symbol
_atom_site_fract_x
_atom_site_fract_y
_atom_site_fract_z
Sc1 Sc 0.2546(2) 0.48873(12) 0.3183(7)
C1 C 0.2630(13) 0.4321(4) 0.5918(10)
C2 C 0.2911(13) 0.3916(4) 0.6449(10)
C3 C 0.3045(13) 0.3870(4) 0.7994(11)
C4 C 0.3378(10) 0.3522(5) 0.8569(10)
C5 C 0.3616(12) 0.3249(5) 0.7472(11)
C6 C 0.3494(12) 0.3299(5) 0.5952(12)
C7 C 0.3138(12) 0.3634(3) 0.5400(10)
C8 C 0.1458(6) 0.5207(7) 0.5537(12)
C9 C 0.0706(5) 0.5116(7) 0.5527(12)
C10 C 0.0344(2) 0.5057(4) 0.4179(13)
C11 C 0.0338(5) 0.5063(8) 0.6846(15)
C12 C 0.4092(10) 0.2919(5) 0.8079(13)
O1 O 0.2578(9) 0.4377(4) 0.4496(11)
O2 O 0.2432(9) 0.4580(4) 0.6862(12)
O3 O 0.1740(8) 0.5152(5) 0.4290(12)
O4 O 0.4210(9) 0.2666(4) 0.7049(13)
O5 O 0.4323(9) 0.2916(4) 0.9392(12)
O6 O 0.1681(7) 0.5322(5) 0.6797(13)
O7 O 0.3947(12) 0.3735(8) 1.071(3)
O8 O 0.3151(13) 0.3259(7) 1.086(2)
O9 O 0.246(2) 0.3557(5) 0.349(4)
O10 O 0.362(3) 0.3736(5) 0.327(4)
O11 O 0.0727(6) 0.5567(5) 0.249(3)
O12 O 0.0354(7) 0.5035(7) 0.1543(18)
N1 N 0.3511(11) 0.3506(6) 1.0191(13)
N2 N 0.306(2) 0.3642(4) 0.3754(14)
N3 N 0.0477(4) 0.5232(5) 0.2701(15)
H1 H 0.2868 0.4065 0.8697
H2 H 0.3615 0.3087 0.5261
H3 H 0.0563 0.5097 0.7808
C8N C -0.1458(6) 0.4793(7) 0.5537(12)
C9N C -0.0706(5) 0.4884(7) 0.5527(12)
C10N C -0.0344(2) 0.4943(4) 0.4179(13)
C11N C -0.0338(5) 0.4937(8) 0.6846(15)
O3N O -0.1740(8) 0.4848(5) 0.4290(12)
O6N O -0.1681(7) 0.4678(5) 0.6797(13)
O11N O -0.0727(6) 0.4433(5) 0.249(3)
O12N O -0.0354(7) 0.4965(7) 0.1543(18)
N3N N -0.0477(4) 0.4768(5) 0.2701(15)
H3N H -0.0563 0.4903 0.7808
Sc1N Sc -0.2546(2) 0.51127(12) 0.3183(7)
C1N C -0.2630(13) 0.5679(4) 0.5918(10)
C2N C -0.2911(13) 0.6084(4) 0.6449(10)
C3N C -0.3045(13) 0.6130(4) 0.7994(11)
C4N C -0.3378(10) 0.6478(5) 0.8569(10)
C5N C -0.3616(12) 0.6751(5) 0.7472(11)
C6N C -0.3494(12) 0.6701(5) 0.5952(12)
C7N C -0.3138(12) 0.6366(3) 0.5400(10)
C12N C -0.4092(10) 0.7081(5) 0.8079(13)
O1N O -0.2578(9) 0.5623(4) 0.4496(11)
O2N O -0.2432(9) 0.5420(4) 0.6862(12)
O4N O -0.4210(9) 0.7334(4) 0.7049(13)
O5N O -0.4323(9) 0.7084(4) 0.9392(12)
O7N O -0.3947(12) 0.6265(8) 1.071(3)
O8N O -0.3151(13) 0.6741(7) 1.086(2)
O9N O -0.246(2) 0.6443(5) 0.349(4)
O10N O -0.362(3) 0.6264(5) 0.327(4)
N1N N -0.3511(11) 0.6494(6) 1.0191(13)
N2N N -0.306(2) 0.6358(4) 0.3754(14)
H1N H -0.2868 0.5935 0.8697
H2N H -0.3615 0.6913 0.5261
Sc1B Sc -0.2454(2) 0.48873(12) 0.8183(7)
Sc1F Sc -0.5046(2) 0.73873(12) 1.0683(7)
Sc1G Sc 0.4954(2) 0.23873(12) 0.5683(7)
Sc1H Sc -0.4954(2) 0.76127(12) 0.5683(7)
Sc1I Sc 0.5046(2) 0.26127(12) 1.0683(7)
Sc1L Sc 0.2454(2) 0.51127(12) 0.8183(7)
O2B O -0.2568(9) 0.4580(4) 0.1862(12)
O2L O 0.2568(9) 0.5420(4) 0.1862(12)
O4F O 0.3290(9) 0.5166(4) 0.4549(13)
O4I O -0.3290(9) 0.4834(4) 0.4549(13)
O5D O -0.1823(9) 0.5416(4) 0.1892(12)
O5K O 0.1823(9) 0.4584(4) 0.1892(12)
O6B O -0.3319(7) 0.5322(5) 0.1797(13)
O6L O 0.3319(7) 0.4678(5) 0.1797(13)
loop_
_geom_bond_atom_site_label_1
_geom_bond_atom_site_label_2
_geom_bond_site_symmetry_1
_geom_bond_site_symmetry_2
Sc1 O1 1_555 1_555
C1 C2 1_555 1_555
C2 C3 1_555 1_555
C3 C4 1_555 1_555
C4 C5 1_555 1_555
C5 C6 1_555 1_555
C6 C7 1_555 1_555
C7 C2 1_555 1_555
C8 C9 1_555 1_555
C9 C10 1_555 1_555
C10 N3 1_555 1_555
C11 C9 1_555 1_555
C12 C5 1_555 1_555
O1 C1 1_555 1_555
O2 C1 1_555 1_555
O3 Sc1 1_555 1_555
O4 C12 1_555 1_555
O5 C12 1_555 1_555
O6 C8 1_555 1_555
O7 N1 1_555 1_555
O8 N1 1_555 1_555
O9 N2 1_555 1_555
O10 N2 1_555 1_555
O11 N3 1_555 1_555
O12 N3 1_555 1_555
N1 C4 1_555 1_555
N2 C7 1_555 1_555
H1 C3 1_555 1_555
H2 C6 1_555 1_555
H3 C11 1_555 1_555
C8N C9N 1_555 1_555
C9N C10N 1_555 1_555
C10N C10 1_555 1_555
C11N C11 1_555 1_555
O3N C8N 1_555 1_555
O6N C8N 1_555 1_555
O11N N3N 1_555 1_555
O12N O12 1_555 1_555
N3N C10N 1_555 1_555
H3N C11N 1_555 1_555
Sc1N O3N 1_555 1_555
C1N C2N 1_555 1_555
C2N C3N 1_555 1_555
C3N C4N 1_555 1_555
C4N C5N 1_555 1_555
C5N C6N 1_555 1_555
C6N C7N 1_555 1_555
C7N C2N 1_555 1_555
C12N C5N 1_555 1_555
O1N Sc1N 1_555 1_555
O2N C1N 1_555 1_555
O4N C12N 1_555 1_555
O5N C12N 1_555 1_555
O7N N1N 1_555 1_555
O8N N1N 1_555 1_555
O9N N2N 1_555 1_555
O10N N2N 1_555 1_555
N1N C4N 1_555 1_555
N2N C7N 1_555 1_555
H1N C3N 1_555 1_555
H2N C6N 1_555 1_555
Sc1B O6N 1_555 1_555
Sc1F O5N 1_555 1_555
Sc1G O4 1_555 1_555
Sc1H O4N 1_555 1_555
Sc1I O5 1_555 1_555
Sc1L O2 1_555 1_555
O2B Sc1N 1_555 1_555
O2L Sc1 1_555 1_555
O4F Sc1 1_555 1_555
O4I Sc1N 1_555 1_555
O5D Sc1N 1_555 1_555
O5K Sc1 1_555 1_555
O6B Sc1N 1_555 1_555
O6L Sc1 1_555 1_555
C8 O3 1_555 1_555
O6 Sc1L 1_555 1_555
C9N C11N 1_555 1_555
O12N N3N 1_555 1_555
C1N O1N 1_555 1_555
O2N Sc1B 1_555 1_555

#END
