
#######################################################################
#
#                 Cambridge Crystallographic Data Centre
#                                CCDC 
#
#######################################################################
#
# If this CIF has been generated from an entry in the Cambridge 
# Structural Database, then it will include bibliographic, chemical, 
# crystal, experimental, refinement or atomic coordinate data resulting 
# from the CCDC's data processing and validation procedures.
#
#######################################################################

data_MAWWAK02
_symmetry_cell_setting           monoclinic
_symmetry_space_group_name_H-M   'C 2/c'
_symmetry_Int_Tables_number      15
_space_group_name_Hall           '-C 2yn'
loop_
_symmetry_equiv_pos_site_id
_symmetry_equiv_pos_as_xyz
1 x,y,z
2 -x,y,1/2-z
3 1/2+x,1/2+y,z
4 1/2-x,1/2+y,1/2-z
5 -x,-y,-z
6 x,-y,1/2+z
7 1/2-x,1/2-y,-z
8 1/2+x,1/2-y,1/2+z
_cell_length_a                   8.66140(7)
_cell_length_b                   34.42917(12)
_cell_length_c                   11.42032(6)
_cell_angle_alpha                90
_cell_angle_beta                 114.8277(4)
_cell_angle_gamma                90
_cell_volume                     3090.83
loop_
_atom_site_label
_atom_site_type_symbol
_atom_site_fract_x
_atom_site_fract_y
_atom_site_fract_z
Sc1 Sc 0.0000 0.36303(8) 0.25000
Sc2 Sc 0.5000 0.38291(8) 0.25000
O1 O 0.2315(5) 0.36546(18) 0.4144(4)
O2 O 0.4838(6) 0.38270(16) 0.43007(33)
O3 O 0.0612(6) 0.40551(12) 0.1499(5)
O4 O 0.3134(5) 0.42623(14) 0.1677(6)
O5 O -0.0823(6) 0.31951(12) 0.3394(4)
O6 O -0.3276(5) 0.33805(13) 0.3141(5)
C1 C 0.3899(5) 0.36881(28) 0.47946(33)
C2 C 0.4440(5) 0.37337(34) 0.61699(29)
C3 C 0.3241(4) 0.3746(4) 0.66781(33)
C4 C 0.6172(4) 0.37511(33) 0.69739(33)
N1 N 0.7417(6) 0.37839(15) 0.6442(6)
C5 C 0.1565(5) 0.43213(13) 0.1373(7)
C6 C 0.0831(5) 0.46764(12) 0.0684(6)
C7 C -0.0914(4) 0.46694(10) -0.0005(8)
C8 C 0.1691(4) 0.49667(12) 0.0355(6)
N2 N -0.3465(4) 0.50668(17) -0.0545(6)
C9 C -0.1960(5) 0.31823(13) 0.3821(5)
C10 C -0.2220(5) 0.28085(12) 0.4306(5)
C11 C -0.0945(4) 0.25409(14) 0.4971(6)
N3 N 0.0745(5) 0.25415(22) 0.4997(5)
C12 C -0.3766(5) 0.27820(14) 0.4397(6)
O7 O 0.8059(11) 0.34772(18) 0.6272(10)
O8 O 0.8060(12) 0.41064(16) 0.6431(11)
O9 O -0.3626(11) 0.53426(21) 0.0128(7)
O10 O -0.4510(10) 0.48979(26) -0.1546(6)
O11 O 0.0842(11) 0.23944(28) 0.4032(6)
O12 O 0.1819(10) 0.27443(25) 0.5862(8)
Sc1_2 Sc 1.0000 0.36303(8) 1.25000
Sc1D Sc 0.0000 0.63697(8) -0.25000
Sc1F Sc -0.5000 0.13697(8) 0.75000
Sc2_2 Sc -0.5000 0.38291(8) 0.25000
Sc2_3 Sc 0.5000 0.38291(8) 1.25000
Sc2D Sc -0.5000 0.61709(8) -0.25000
Sc2F Sc 0.0000 0.11709(8) 0.75000
O1A O 0.7685(5) 0.36546(18) 1.0856(4)
O1A_2 O -0.2315(5) 0.36546(18) 0.0856(4)
O2A O 0.5162(6) 0.38270(16) 1.06993(33)
O2A_2 O 0.5162(6) 0.38270(16) 0.06993(33)
O3D O -0.0612(6) 0.59449(12) -0.1499(5)
O3A O -0.0612(6) 0.40551(12) 0.3501(5)
O4D O -0.3134(5) 0.57377(14) -0.1677(6)
O4A O 0.6866(5) 0.42623(14) 0.3323(6)
O5F O -0.4177(6) 0.18049(12) 0.6606(4)
O5A O 0.0823(6) 0.31951(12) 0.1606(4)
O6F O -0.1724(5) 0.16195(13) 0.6859(5)
O6_2 O 0.6724(5) 0.33805(13) 0.3141(5)
O6A O 0.3276(5) 0.33805(13) 0.1859(5)
C1A C 0.6101(5) 0.36881(28) 1.02054(33)
C2A C 0.5560(5) 0.37337(34) 0.88301(29)
C3A C 0.6759(4) 0.3746(4) 0.83219(33)
C4A C 0.3828(4) 0.37511(33) 0.80261(33)
N1A N 0.2583(6) 0.37839(15) 0.8558(6)
C5D C -0.1565(5) 0.56787(13) -0.1373(7)
C6D C -0.0831(5) 0.53236(12) -0.0684(6)
C7D C 0.0914(4) 0.53306(10) 0.0005(8)
C8D C -0.1691(4) 0.50333(12) -0.0355(6)
N2D N 0.3465(4) 0.49332(17) 0.0545(6)
C9F C -0.3040(5) 0.18177(13) 0.6179(5)
C10F C -0.2780(5) 0.21915(12) 0.5694(5)
C11F C -0.4055(4) 0.24591(14) 0.5029(6)
N3F N -0.5745(5) 0.24585(22) 0.5003(5)
C12F C -0.1234(5) 0.22180(14) 0.5603(6)
O7A O 0.1941(11) 0.34772(18) 0.8728(10)
O8A O 0.1940(12) 0.41064(16) 0.8569(11)
O9D O 0.3626(11) 0.46574(21) -0.0128(7)
O10D O 0.4510(10) 0.51021(26) 0.1546(6)
O11F O -0.5842(11) 0.26056(28) 0.5968(6)
O12F O -0.6819(10) 0.22557(25) 0.4138(8)
loop_
_geom_bond_atom_site_label_1
_geom_bond_atom_site_label_2
_geom_bond_site_symmetry_1
_geom_bond_site_symmetry_2
Sc1 O1 1_555 1_555
Sc2 O2 1_555 1_555
O1 C1 1_555 1_555
O2 C1 1_555 1_555
O3 Sc1 1_555 1_555
O4 Sc2 1_555 1_555
O5 Sc1 1_555 1_555
O6 C9 1_555 1_555
C1 C2 1_555 1_555
C2 C3 1_555 1_555
C3 C4A 1_555 1_555
C4 C2 1_555 1_555
N1 C4 1_555 1_555
C5 O3 1_555 1_555
C6 C5 1_555 1_555
C7 C6 1_555 1_555
C8 C6 1_555 1_555
N2 O9 1_555 1_555
C9 O5 1_555 1_555
C10 C9 1_555 1_555
C11 C10 1_555 1_555
N3 C11 1_555 1_555
C12 C10 1_555 1_555
O7 N1 1_555 1_555
O8 N1 1_555 1_555
O10 N2 1_555 1_555
O11 N3 1_555 1_555
O12 N3 1_555 1_555
Sc1_2 O1A 1_555 1_555
Sc1D O3D 1_555 1_555
Sc1F O5F 1_555 1_555
Sc2_2 O6 1_555 1_555
Sc2_3 O2A 1_555 1_555
Sc2D O4D 1_555 1_555
Sc2F O6F 1_555 1_555
O1A C1A 1_555 1_555
O1A_2 Sc1 1_555 1_555
O2A C1A 1_555 1_555
O2A_2 Sc2 1_555 1_555
O3D C5D 1_555 1_555
O3A Sc1 1_555 1_555
O4D C5D 1_555 1_555
O4A Sc2 1_555 1_555
O5F C9F 1_555 1_555
O5A Sc1 1_555 1_555
O6F C9F 1_555 1_555
O6_2 Sc2 1_555 1_555
O6A Sc2 1_555 1_555
C1A C2A 1_555 1_555
C2A C3A 1_555 1_555
C3A C4 1_555 1_555
C4A C2A 1_555 1_555
N1A C4A 1_555 1_555
C5D C6D 1_555 1_555
C6D C7D 1_555 1_555
C7D C8 1_555 1_555
C8D C7 1_555 1_555
N2D C8 1_555 1_555
C9F C10F 1_555 1_555
C10F C11F 1_555 1_555
C11F C12 1_555 1_555
N3F C11F 1_555 1_555
C12F C11 1_555 1_555
O7A N1A 1_555 1_555
O8A N1A 1_555 1_555
O9D N2D 1_555 1_555
O10D N2D 1_555 1_555
O11F N3F 1_555 1_555
O12F N3F 1_555 1_555
O4 C5 1_555 1_555
N2 C8D 1_555 1_555
C6D C8D 1_555 1_555
C10F C12F 1_555 1_555

#END
