
#######################################################################
#
#                 Cambridge Crystallographic Data Centre
#                                CCDC 
#
#######################################################################
#
# If this CIF has been generated from an entry in the Cambridge 
# Structural Database, then it will include bibliographic, chemical, 
# crystal, experimental, refinement or atomic coordinate data resulting 
# from the CCDC's data processing and validation procedures.
#
#######################################################################

data_MAXFOH
_symmetry_cell_setting           orthorhombic
_symmetry_space_group_name_H-M   'C c c a'
_symmetry_Int_Tables_number      68
_space_group_name_Hall           '-C 2b 2bc'
loop_
_symmetry_equiv_pos_site_id
_symmetry_equiv_pos_as_xyz
1 x,y,z
2 1/2+x,1/2+y,z
3 1/2-x,-y,z
4 -x,y,1/2-z
5 1/2+x,-y,1/2-z
6 -x,1/2-y,z
7 1/2-x,1/2+y,1/2-z
8 x,1/2-y,1/2-z
9 -x,-y,-z
10 1/2-x,1/2-y,-z
11 1/2+x,y,-z
12 x,-y,1/2+z
13 1/2-x,y,1/2+z
14 x,1/2+y,-z
15 1/2+x,1/2-y,1/2+z
16 -x,1/2+y,1/2+z
_cell_length_a                   21.587(2)
_cell_length_b                   24.225(3)
_cell_length_c                   9.8905(12)
_cell_angle_alpha                90
_cell_angle_beta                 90
_cell_angle_gamma                90
_cell_volume                     5172.19
loop_
_atom_site_label
_atom_site_type_symbol
_atom_site_fract_x
_atom_site_fract_y
_atom_site_fract_z
Co1 Co 0.5000 0.2500 0.2500
O1 O 0.24591(14) 0.08632(16) 0.0600(3)
O2 O 0.0000 -0.0290(2) 0.2500
N1 N 0.42700(18) 0.18871(17) 0.2503(4)
N2 N 0.22425(17) 0.08364(17) 0.2829(4)
H1 H 0.2373 0.0920 0.3625
C1 C 0.4213(2) 0.1524(2) 0.1494(6)
H2 H 0.4551 0.1473 0.0924
C2 C 0.3692(2) 0.1224(2) 0.1243(5)
H3 H 0.3678 0.0982 0.0515
C3 C 0.3183(2) 0.1283(2) 0.2082(5)
C4 C 0.3237(2) 0.1645(2) 0.3163(5)
H4 H 0.2911 0.1692 0.3768
C5 C 0.3782(2) 0.1935(2) 0.3324(6)
H5 H 0.3811 0.2179 0.4048
C6 C 0.2596(2) 0.0978(2) 0.1766(5)
C7 C 0.1664(2) 0.0555(2) 0.2719(4)
C8 C 0.1211(2) 0.0740(2) 0.1863(6)
H6 H 0.1283 0.1049 0.1327
C9 C 0.0646(2) 0.0469(2) 0.1790(6)
H7 H 0.0337 0.0594 0.1211
C10 C 0.0549(2) 0.0014(2) 0.2583(5)
C11 C 0.0991(2) -0.0171(2) 0.3446(6)
H8 H 0.0916 -0.0478 0.3987
C12 C 0.1556(2) 0.0101(2) 0.3515(5)
H9 H 0.1861 -0.0024 0.4102
O3 O 0.5000 0.2500 0.0332(5)
Co1_2 Co -0.5000 0.2500 0.2500
Co1_3 Co 1.5000 0.2500 0.2500
O1C O -0.24591(14) 0.08632(16) 0.4400(3)
O1C_2 O 0.75409(14) 0.08632(16) 0.4400(3)
O1_2 O 1.24591(14) 0.08632(16) 0.0600(3)
O2_2 O 1.0000 -0.0290(2) 0.2500
N1C N -0.42700(18) 0.18871(17) 0.2497(4)
N1C_2 N 0.57300(18) 0.18871(17) 0.2497(4)
N1_2 N 1.42700(18) 0.18871(17) 0.2503(4)
N1E N 0.57300(18) 0.31129(17) 0.2503(4)
N1G N 0.42700(18) 0.31129(17) 0.2497(4)
N2C N -0.22425(17) 0.08364(17) 0.2171(4)
N2C_2 N 0.77575(17) 0.08364(17) 0.2171(4)
N2_2 N 1.22425(17) 0.08364(17) 0.2829(4)
H1C H -0.2373 0.0920 0.1375
H1C_2 H 0.7627 0.0920 0.1375
H1_2 H 1.2373 0.0920 0.3625
C1C C -0.4213(2) 0.1524(2) 0.3506(6)
C1C_2 C 0.5787(2) 0.1524(2) 0.3506(6)
C1_2 C 1.4213(2) 0.1524(2) 0.1494(6)
H2C H -0.4551 0.1473 0.4076
H2C_2 H 0.5449 0.1473 0.4076
H2_2 H 1.4551 0.1473 0.0924
C2C C -0.3692(2) 0.1224(2) 0.3757(5)
C2C_2 C 0.6308(2) 0.1224(2) 0.3757(5)
C2_2 C 1.3692(2) 0.1224(2) 0.1243(5)
H3C H -0.3678 0.0982 0.4485
H3C_2 H 0.6322 0.0982 0.4485
H3_2 H 1.3678 0.0982 0.0515
C3C C -0.3183(2) 0.1283(2) 0.2918(5)
C3C_2 C 0.6817(2) 0.1283(2) 0.2918(5)
C3_2 C 1.3183(2) 0.1283(2) 0.2082(5)
C4C C -0.3237(2) 0.1645(2) 0.1837(5)
C4C_2 C 0.6763(2) 0.1645(2) 0.1837(5)
C4_2 C 1.3237(2) 0.1645(2) 0.3163(5)
H4C H -0.2911 0.1692 0.1232
H4C_2 H 0.7089 0.1692 0.1232
H4_2 H 1.2911 0.1692 0.3768
C5C C -0.3782(2) 0.1935(2) 0.1676(6)
C5C_2 C 0.6218(2) 0.1935(2) 0.1676(6)
C5_2 C 1.3782(2) 0.1935(2) 0.3324(6)
H5C H -0.3811 0.2179 0.0952
H5C_2 H 0.6189 0.2179 0.0952
H5_2 H 1.3811 0.2179 0.4048
C6C C -0.2596(2) 0.0978(2) 0.3234(5)
C6C_2 C 0.7404(2) 0.0978(2) 0.3234(5)
C6_2 C 1.2596(2) 0.0978(2) 0.1766(5)
C7C C -0.1664(2) 0.0555(2) 0.2281(4)
C7C_2 C 0.8336(2) 0.0555(2) 0.2281(4)
C7_2 C 1.1664(2) 0.0555(2) 0.2719(4)
C8C C -0.1211(2) 0.0740(2) 0.3137(6)
C8C_2 C 0.8789(2) 0.0740(2) 0.3137(6)
C8_2 C 1.1211(2) 0.0740(2) 0.1863(6)
H6C H -0.1283 0.1049 0.3673
H6C_2 H 0.8717 0.1049 0.3673
H6_2 H 1.1283 0.1049 0.1327
C9C C -0.0646(2) 0.0469(2) 0.3210(6)
C9C_2 C 0.9354(2) 0.0469(2) 0.3210(6)
C9_2 C 1.0646(2) 0.0469(2) 0.1790(6)
H7C H -0.0337 0.0594 0.3789
H7C_2 H 0.9663 0.0594 0.3789
H7_2 H 1.0337 0.0594 0.1211
C10C C -0.0549(2) 0.0014(2) 0.2417(5)
C10C_2 C 0.9451(2) 0.0014(2) 0.2417(5)
C10_2 C 1.0549(2) 0.0014(2) 0.2583(5)
C11C C -0.0991(2) -0.0171(2) 0.1554(6)
C11C_2 C 0.9009(2) -0.0171(2) 0.1554(6)
C11_2 C 1.0991(2) -0.0171(2) 0.3446(6)
H8C H -0.0916 -0.0478 0.1013
H8C_2 H 0.9084 -0.0478 0.1013
H8_2 H 1.0916 -0.0478 0.3987
C12C C -0.1556(2) 0.0101(2) 0.1485(5)
C12C_2 C 0.8444(2) 0.0101(2) 0.1485(5)
C12_2 C 1.1556(2) 0.0101(2) 0.3515(5)
H9C H -0.1861 -0.0024 0.0898
H9C_2 H 0.8139 -0.0024 0.0898
H9_2 H 1.1861 -0.0024 0.4102
O3C O 0.5000 0.2500 0.4668(5)
P1 P 0.36037(13) 0.2500 0.7500
F1 F 0.3652(6) 0.2097(3) 0.8655(7)
F2 F 0.4105(3) 0.2164(3) 0.6705(7)
F3 F 0.3130(3) 0.2127(3) 0.6835(9)
F1G F 0.3652(6) 0.2903(3) 0.6345(7)
F2G F 0.4105(3) 0.2836(3) 0.8295(7)
F3G F 0.3130(3) 0.2873(3) 0.8165(9)
O4 O 0.4934(15) 0.1600(14) -0.127(3)
loop_
_geom_bond_atom_site_label_1
_geom_bond_atom_site_label_2
_geom_bond_site_symmetry_1
_geom_bond_site_symmetry_2
Co1 N1 1_555 1_555
O1 C6 1_555 1_555
O2 C10 1_555 1_555
N1 C1 1_555 1_555
N2 H1 1_555 1_555
C1 H2 1_555 1_555
C2 C1 1_555 1_555
H3 C2 1_555 1_555
C3 C2 1_555 1_555
C4 C3 1_555 1_555
H4 C4 1_555 1_555
C5 N1 1_555 1_555
H5 C5 1_555 1_555
C6 N2 1_555 1_555
C7 N2 1_555 1_555
C8 C7 1_555 1_555
H6 C8 1_555 1_555
C9 C8 1_555 1_555
H7 C9 1_555 1_555
C10 C9 1_555 1_555
C11 C10 1_555 1_555
H8 C11 1_555 1_555
C12 C7 1_555 1_555
H9 C12 1_555 1_555
P1 F1 1_555 1_555
F2 P1 1_555 1_555
F3 P1 1_555 1_555
O3 Co1 1_555 1_555
Co1_2 N1C 1_555 1_555
Co1_3 N1_2 1_555 1_555
O1C C6C 1_555 1_555
O1C_2 C6C_2 1_555 1_555
O1_2 C6_2 1_555 1_555
O2_2 C10C_2 1_555 1_555
N1C C1C 1_555 1_555
N1C_2 Co1 1_555 1_555
N1_2 C1_2 1_555 1_555
N1E Co1 1_555 1_555
N1G Co1 1_555 1_555
N2C H1C 1_555 1_555
N2C_2 H1C_2 1_555 1_555
N2_2 H1_2 1_555 1_555
C1C H2C 1_555 1_555
C1C_2 N1C_2 1_555 1_555
C1_2 H2_2 1_555 1_555
H2C_2 C1C_2 1_555 1_555
C2C C1C 1_555 1_555
C2C_2 C1C_2 1_555 1_555
C2_2 C1_2 1_555 1_555
H3C C2C 1_555 1_555
H3C_2 C2C_2 1_555 1_555
H3_2 C2_2 1_555 1_555
C3C C2C 1_555 1_555
C3C_2 C2C_2 1_555 1_555
C3_2 C2_2 1_555 1_555
C4C C3C 1_555 1_555
C4C_2 C3C_2 1_555 1_555
C4_2 C3_2 1_555 1_555
H4C C4C 1_555 1_555
H4C_2 C4C_2 1_555 1_555
H4_2 C4_2 1_555 1_555
C5C N1C 1_555 1_555
C5C_2 N1C_2 1_555 1_555
C5_2 N1_2 1_555 1_555
H5C C5C 1_555 1_555
H5C_2 C5C_2 1_555 1_555
H5_2 C5_2 1_555 1_555
C6C N2C 1_555 1_555
C6C_2 N2C_2 1_555 1_555
C6_2 N2_2 1_555 1_555
C7C N2C 1_555 1_555
C7C_2 N2C_2 1_555 1_555
C7_2 N2_2 1_555 1_555
C8C C7C 1_555 1_555
C8C_2 C7C_2 1_555 1_555
C8_2 C7_2 1_555 1_555
H6C C8C 1_555 1_555
H6C_2 C8C_2 1_555 1_555
H6_2 C8_2 1_555 1_555
C9C C8C 1_555 1_555
C9C_2 C8C_2 1_555 1_555
C9_2 C8_2 1_555 1_555
H7C C9C 1_555 1_555
H7C_2 C9C_2 1_555 1_555
H7_2 C9_2 1_555 1_555
C10C O2 1_555 1_555
C10C_2 C9C_2 1_555 1_555
C10_2 O2_2 1_555 1_555
C11C C10C 1_555 1_555
C11C_2 C10C_2 1_555 1_555
C11_2 C10_2 1_555 1_555
H8C C11C 1_555 1_555
H8C_2 C11C_2 1_555 1_555
H8_2 C11_2 1_555 1_555
C12C C7C 1_555 1_555
C12C_2 C7C_2 1_555 1_555
C12_2 C7_2 1_555 1_555
H9C C12C 1_555 1_555
H9C_2 C12C_2 1_555 1_555
H9_2 C12_2 1_555 1_555
F1G P1 1_555 1_555
F2G P1 1_555 1_555
F3G P1 1_555 1_555
O3C Co1 1_555 1_555
C3 C6 1_555 1_555
C4 C5 1_555 1_555
C11 C12 1_555 1_555
C3C C6C 1_555 1_555
C3C_2 C6C_2 1_555 1_555
C3_2 C6_2 1_555 1_555
C4C C5C 1_555 1_555
C4C_2 C5C_2 1_555 1_555
C4_2 C5_2 1_555 1_555
C9C C10C 1_555 1_555
C9_2 C10_2 1_555 1_555
C11C C12C 1_555 1_555
C11C_2 C12C_2 1_555 1_555
C11_2 C12_2 1_555 1_555

#END
