
#######################################################################
#
#                 Cambridge Crystallographic Data Centre
#                                CCDC 
#
#######################################################################
#
# If this CIF has been generated from an entry in the Cambridge 
# Structural Database, then it will include bibliographic, chemical, 
# crystal, experimental, refinement or atomic coordinate data resulting 
# from the CCDC's data processing and validation procedures.
#
#######################################################################

data_MAXFUN
_symmetry_cell_setting           monoclinic
_symmetry_space_group_name_H-M   'C 2/c'
_symmetry_Int_Tables_number      15
_space_group_name_Hall           '-C 2yn'
loop_
_symmetry_equiv_pos_site_id
_symmetry_equiv_pos_as_xyz
1 x,y,z
2 1/2+x,1/2+y,z
3 -x,y,1/2-z
4 1/2-x,1/2+y,1/2-z
5 -x,-y,-z
6 1/2-x,1/2-y,-z
7 x,-y,1/2+z
8 1/2+x,1/2-y,1/2+z
_cell_length_a                   15.784(2)
_cell_length_b                   14.348(2)
_cell_length_c                   20.907(3)
_cell_angle_alpha                90
_cell_angle_beta                 90.708(3)
_cell_angle_gamma                90
_cell_volume                     4734.42
loop_
_atom_site_label
_atom_site_type_symbol
_atom_site_fract_x
_atom_site_fract_y
_atom_site_fract_z
Zn1 Zn 0.5000 0.61832(8) 0.7500
O1 O 0.7412(3) 0.6061(4) 0.4635(2)
O2 O 1.2443(3) 0.6247(4) 0.4712(3)
O6 O 0.5000 0.4681(5) 0.7500
H1 H 0.5182 0.4491 0.7158
O7 O 0.5000 0.7704(5) 0.7500
H2 H 0.4543 0.7894 0.7362
N1 N 0.5941(3) 0.6184(4) 0.6739(3)
N2 N 0.8496(3) 0.6369(4) 0.5335(3)
H3 H 0.8597 0.6550 0.5720
N3 N 0.9920(3) 0.6286(4) 0.5286(2)
N4 N 1.1358(3) 0.6148(4) 0.5407(3)
H4 H 1.1247 0.6127 0.5809
N5 N 1.4013(3) 0.6224(4) 0.6782(3)
C1 C 0.6553(4) 0.6816(5) 0.6708(3)
H5 H 0.6596 0.7252 0.7036
C2 C 0.7125(4) 0.6866(5) 0.6223(4)
H6 H 0.7547 0.7319 0.6229
C3 C 0.7069(4) 0.6235(5) 0.5722(3)
C4 C 0.6422(4) 0.5598(5) 0.5747(4)
H7 H 0.6351 0.5177 0.5413
C5 C 0.5883(4) 0.5569(5) 0.6250(4)
H8 H 0.5464 0.5114 0.6257
C6 C 0.7665(4) 0.6231(5) 0.5175(3)
C7 C 0.9210(4) 0.6249(4) 0.4945(3)
C8 C 0.9188(4) 0.6118(5) 0.4293(3)
H9 H 0.8681 0.6139 0.4063
C9 C 0.9944(4) 0.5955(5) 0.3995(3)
H10 H 0.9953 0.5843 0.3557
C10 C 1.0694(4) 0.5958(5) 0.4346(3)
H11 H 1.1212 0.5848 0.4152
C11 C 1.0647(4) 0.6126(4) 0.4985(3)
C12 C 1.2176(4) 0.6196(5) 0.5259(3)
C13 C 1.2794(4) 0.6202(5) 0.5805(3)
C14 C 1.2690(4) 0.5691(6) 0.6358(3)
H12 H 1.2206 0.5332 0.6414
C15 C 1.3310(4) 0.5718(5) 0.6827(3)
H13 H 1.3233 0.5364 0.7194
C16 C 1.4095(4) 0.6730(5) 0.6254(4)
H14 H 1.4570 0.7110 0.6221
C17 C 1.3524(4) 0.6726(5) 0.5754(3)
H15 H 1.3626 0.7072 0.5386
Zn1_2 Zn 1.5000 0.61832(8) 0.7500
Zn1_3 Zn -0.5000 0.61832(8) 0.7500
O1B O 0.2588(3) 0.6061(4) 1.0365(2)
O2B O -0.2443(3) 0.6247(4) 1.0288(3)
H1B H 0.4818 0.4491 0.7842
H2B H 0.5457 0.7894 0.7638
N1B N 0.4059(3) 0.6184(4) 0.8261(3)
N2B N 0.1504(3) 0.6369(4) 0.9665(3)
H3B H 0.1403 0.6550 0.9280
N3B N 0.0080(3) 0.6286(4) 0.9714(2)
N4B N -0.1358(3) 0.6148(4) 0.9593(3)
H4B H -0.1247 0.6127 0.9191
N5B N -0.4013(3) 0.6224(4) 0.8218(3)
N5_2 N 0.4013(3) 0.6224(4) 0.6782(3)
N5B_2 N 0.5987(3) 0.6224(4) 0.8218(3)
C1B C 0.3447(4) 0.6816(5) 0.8292(3)
H5B H 0.3404 0.7252 0.7964
C2B C 0.2875(4) 0.6866(5) 0.8777(4)
H6B H 0.2453 0.7319 0.8771
C3B C 0.2931(4) 0.6235(5) 0.9278(3)
C4B C 0.3578(4) 0.5598(5) 0.9253(4)
H7B H 0.3649 0.5177 0.9587
C5B C 0.4117(4) 0.5569(5) 0.8750(4)
H8B H 0.4536 0.5114 0.8743
C6B C 0.2335(4) 0.6231(5) 0.9825(3)
C7B C 0.0790(4) 0.6249(4) 1.0055(3)
C8B C 0.0812(4) 0.6118(5) 1.0707(3)
H9B H 0.1319 0.6139 1.0937
C9B C 0.0056(4) 0.5955(5) 1.1005(3)
H10B H 0.0047 0.5843 1.1443
C10B C -0.0694(4) 0.5958(5) 1.0654(3)
H11B H -0.1212 0.5848 1.0848
C11B C -0.0647(4) 0.6126(4) 1.0015(3)
C12B C -0.2176(4) 0.6196(5) 0.9741(3)
C13B C -0.2794(4) 0.6202(5) 0.9195(3)
C14B C -0.2690(4) 0.5691(6) 0.8642(3)
H12B H -0.2206 0.5332 0.8586
C15B C -0.3310(4) 0.5718(5) 0.8173(3)
H13B H -0.3233 0.5364 0.7806
C16B C -0.4095(4) 0.6730(5) 0.8746(4)
H14B H -0.4570 0.7110 0.8779
C17B C -0.3524(4) 0.6726(5) 0.9246(3)
H15B H -0.3626 0.7072 0.9614
O3 O 0.1721(8) 0.3498(8) 0.7827(6)
O4 O 0.1003(7) 0.4530(9) 0.7489(6)
O5 O 0.2118(5) 0.4858(6) 0.7987(4)
N6 N 0.1651(7) 0.4291(8) 0.7741(4)
O8 O 0.0988(4) 0.3515(6) 0.3314(3)
O9 O 0.0793(4) 0.6356(7) 0.6753(3)
O10 O 0.3848(12) 0.3359(14) 0.7167(17)
O11 O 0.4270(11) 0.3924(12) 0.5921(12)
O12 O 0.436(2) 0.3278(14) 0.9167(11)
O13 O 0.3368(14) 0.3187(17) 0.8488(13)
loop_
_geom_bond_atom_site_label_1
_geom_bond_atom_site_label_2
_geom_bond_site_symmetry_1
_geom_bond_site_symmetry_2
Zn1 O6 1_555 1_555
O1 C6 1_555 1_555
O2 C12 1_555 1_555
O3 N6 1_555 1_555
O4 N6 1_555 1_555
O5 N6 1_555 1_555
O6 H1 1_555 1_555
O7 Zn1 1_555 1_555
H2 O7 1_555 1_555
N1 Zn1 1_555 1_555
N2 H3 1_555 1_555
N3 C7 1_555 1_555
N4 H4 1_555 1_555
N5 C15 1_555 1_555
C1 N1 1_555 1_555
H5 C1 1_555 1_555
C2 C1 1_555 1_555
H6 C2 1_555 1_555
C3 C2 1_555 1_555
C4 C3 1_555 1_555
H7 C4 1_555 1_555
C5 N1 1_555 1_555
H8 C5 1_555 1_555
C6 N2 1_555 1_555
C7 N2 1_555 1_555
C8 C7 1_555 1_555
H9 C8 1_555 1_555
C9 C8 1_555 1_555
H10 C9 1_555 1_555
C10 C9 1_555 1_555
H11 C10 1_555 1_555
C11 N3 1_555 1_555
C12 N4 1_555 1_555
C13 C12 1_555 1_555
C14 C13 1_555 1_555
H12 C14 1_555 1_555
C15 C14 1_555 1_555
H13 C15 1_555 1_555
C16 N5 1_555 1_555
H14 C16 1_555 1_555
C17 C13 1_555 1_555
H15 C17 1_555 1_555
Zn1_2 N5 1_555 1_555
Zn1_3 N5B 1_555 1_555
O1B C6B 1_555 1_555
O2B C12B 1_555 1_555
H1B O6 1_555 1_555
H2B O7 1_555 1_555
N1B Zn1 1_555 1_555
N2B H3B 1_555 1_555
N3B C7B 1_555 1_555
N4B H4B 1_555 1_555
N5B C15B 1_555 1_555
N5_2 Zn1 1_555 1_555
N5B_2 Zn1 1_555 1_555
C1B N1B 1_555 1_555
H5B C1B 1_555 1_555
C2B C1B 1_555 1_555
H6B C2B 1_555 1_555
C3B C2B 1_555 1_555
C4B C3B 1_555 1_555
H7B C4B 1_555 1_555
C5B N1B 1_555 1_555
H8B C5B 1_555 1_555
C6B N2B 1_555 1_555
C7B N2B 1_555 1_555
C8B C7B 1_555 1_555
H9B C8B 1_555 1_555
C9B C8B 1_555 1_555
H10B C9B 1_555 1_555
C10B C9B 1_555 1_555
H11B C10B 1_555 1_555
C11B N3B 1_555 1_555
C12B N4B 1_555 1_555
C13B C12B 1_555 1_555
C14B C13B 1_555 1_555
H12B C14B 1_555 1_555
C15B C14B 1_555 1_555
H13B C15B 1_555 1_555
C16B N5B 1_555 1_555
H14B C16B 1_555 1_555
C17B C13B 1_555 1_555
H15B C17B 1_555 1_555
N4 C11 1_555 1_555
C3 C6 1_555 1_555
C4 C5 1_555 1_555
C10 C11 1_555 1_555
C16 C17 1_555 1_555
N4B C11B 1_555 1_555
C3B C6B 1_555 1_555
C4B C5B 1_555 1_555
C10B C11B 1_555 1_555
C16B C17B 1_555 1_555

#END
