
#######################################################################
#
#                 Cambridge Crystallographic Data Centre
#                                CCDC 
#
#######################################################################
#
# If this CIF has been generated from an entry in the Cambridge 
# Structural Database, then it will include bibliographic, chemical, 
# crystal, experimental, refinement or atomic coordinate data resulting 
# from the CCDC's data processing and validation procedures.
#
#######################################################################

data_MAXLEC
_symmetry_cell_setting           monoclinic
_symmetry_space_group_name_H-M   'P 21/n'
_symmetry_Int_Tables_number      14
_space_group_name_Hall           '-P 2yn'
loop_
_symmetry_equiv_pos_site_id
_symmetry_equiv_pos_as_xyz
1 x,y,z
2 1/2+x,1/2-y,1/2+z
3 -x,-y,-z
4 1/2-x,1/2+y,1/2-z
_cell_length_a                   8.017(2)
_cell_length_b                   10.026(2)
_cell_length_c                   13.063(3)
_cell_angle_alpha                90
_cell_angle_beta                 90.816(3)
_cell_angle_gamma                90
_cell_volume                     1049.88
loop_
_atom_site_label
_atom_site_type_symbol
_atom_site_fract_x
_atom_site_fract_y
_atom_site_fract_z
Cu1 Cu 0.5000 -0.5000 -0.5000
S1 S -0.20487(5) 0.35875(4) -0.48474(4)
Cl1 Cl 0.40635(5) -0.62657(4) -0.63866(3)
N1 N -0.56567(17) 0.34750(14) -0.40500(10)
C1 C -0.7274(2) 0.31318(18) -0.39845(14)
H1 H -0.8058 0.3640 -0.4343
C2 C -0.7830(2) 0.2071(2) -0.34168(14)
H2 H -0.8962 0.1876 -0.3386
C3 C -0.6666(3) 0.1300(2) -0.28920(15)
H3 H -0.7001 0.0570 -0.2506
C4 C -0.4995(2) 0.16365(19) -0.29525(14)
H4 H -0.4194 0.1129 -0.2609
C5 C -0.4519(2) 0.27341(17) -0.35282(12)
C6 C -0.2707(2) 0.31300(19) -0.35783(13)
H5 H -0.2026 0.2392 -0.3336
H6 H -0.2512 0.3878 -0.3121
C7 C -0.2458(2) 0.20274(18) -0.55187(14)
H7 H -0.3560 0.1709 -0.5344
H8 H -0.2447 0.2188 -0.6251
C8 C -0.1193(2) 0.09728(18) -0.52549(13)
C9 C 0.0384(2) 0.09974(18) -0.56896(14)
H9 H 0.0649 0.1666 -0.6154
C10 C -0.1562(2) -0.00357(17) -0.45631(15)
H10 H -0.2610 -0.0065 -0.4267
C10B C 0.1562(2) 0.00357(17) -0.54369(15)
C8B C 0.1193(2) -0.09728(18) -0.47451(13)
C7B C 0.2458(2) -0.20274(18) -0.44813(14)
S1B S 0.20487(5) -0.35875(4) -0.51526(4)
C6B C 0.2707(2) -0.31300(19) -0.64217(13)
C5B C 0.4519(2) -0.27341(17) -0.64718(12)
N1B N 0.56567(17) -0.34750(14) -0.59500(10)
C1B C 0.7274(2) -0.31318(18) -0.60155(14)
H1B H 0.8058 -0.3640 -0.5657
C2B C 0.7830(2) -0.2071(2) -0.65832(14)
H2B H 0.8962 -0.1876 -0.6614
C3B C 0.6666(3) -0.1300(2) -0.71080(15)
H3B H 0.7001 -0.0570 -0.7494
C4B C 0.4995(2) -0.16365(19) -0.70475(14)
H4B H 0.4194 -0.1129 -0.7391
H5B H 0.2026 -0.2392 -0.6664
H6B H 0.2512 -0.3878 -0.6879
H7B H 0.3560 -0.1709 -0.4656
H8B H 0.2447 -0.2188 -0.3749
C9B C -0.0384(2) -0.09974(18) -0.43104(14)
H9B H -0.0649 -0.1666 -0.3846
H10B H 0.2610 0.0065 -0.5733
Cu1_2 Cu -0.5000 0.5000 -0.5000
S1_2 S 0.79513(5) -0.64125(4) -0.48474(4)
Cl1B Cl 0.59365(5) -0.37343(4) -0.36134(3)
N1_2 N 0.43433(17) -0.65250(14) -0.40500(10)
loop_
_geom_bond_atom_site_label_1
_geom_bond_atom_site_label_2
_geom_bond_site_symmetry_1
_geom_bond_site_symmetry_2
Cu1 Cl1 1_555 1_555
S1 C6 1_555 1_555
N1 C1 1_555 1_555
C1 H1 1_555 1_555
C2 C1 1_555 1_555
H2 C2 1_555 1_555
C3 C2 1_555 1_555
H3 C3 1_555 1_555
C4 C3 1_555 1_555
H4 C4 1_555 1_555
C5 N1 1_555 1_555
C6 C5 1_555 1_555
H5 C6 1_555 1_555
H6 C6 1_555 1_555
C7 S1 1_555 1_555
H7 C7 1_555 1_555
H8 C7 1_555 1_555
C8 C7 1_555 1_555
C9 C8 1_555 1_555
H9 C9 1_555 1_555
C10 C8 1_555 1_555
H10 C10 1_555 1_555
C10B C9 1_555 1_555
C8B C10B 1_555 1_555
C7B C8B 1_555 1_555
S1B Cu1 1_555 1_555
C6B S1B 1_555 1_555
C5B C6B 1_555 1_555
N1B Cu1 1_555 1_555
C1B N1B 1_555 1_555
H1B C1B 1_555 1_555
C2B C1B 1_555 1_555
H2B C2B 1_555 1_555
C3B C2B 1_555 1_555
H3B C3B 1_555 1_555
C4B C5B 1_555 1_555
H4B C4B 1_555 1_555
H5B C6B 1_555 1_555
H6B C6B 1_555 1_555
H7B C7B 1_555 1_555
H8B C7B 1_555 1_555
C9B C10 1_555 1_555
H9B C9B 1_555 1_555
H10B C10B 1_555 1_555
Cu1_2 S1 1_555 1_555
S1_2 Cu1 1_555 1_555
Cl1B Cu1 1_555 1_555
N1_2 Cu1 1_555 1_555
N1 Cu1_2 1_555 1_555
C4 C5 1_555 1_555
C8B C9B 1_555 1_555
C7B S1B 1_555 1_555
C5B N1B 1_555 1_555
C3B C4B 1_555 1_555

#END
