
#######################################################################
#
#                 Cambridge Crystallographic Data Centre
#                                CCDC 
#
#######################################################################
#
# If this CIF has been generated from an entry in the Cambridge 
# Structural Database, then it will include bibliographic, chemical, 
# crystal, experimental, refinement or atomic coordinate data resulting 
# from the CCDC's data processing and validation procedures.
#
#######################################################################

data_MAXXAL
_symmetry_cell_setting           triclinic
_symmetry_space_group_name_H-M   'P -1'
_symmetry_Int_Tables_number      2
_space_group_name_Hall           '-P 1'
loop_
_symmetry_equiv_pos_site_id
_symmetry_equiv_pos_as_xyz
1 x,y,z
2 -x,-y,-z
_cell_length_a                   8.8681(18)
_cell_length_b                   9.2275(18)
_cell_length_c                   13.892(3)
_cell_angle_alpha                73.87(3)
_cell_angle_beta                 76.38(3)
_cell_angle_gamma                84.53(3)
_cell_volume                     1060.78
loop_
_atom_site_label
_atom_site_type_symbol
_atom_site_fract_x
_atom_site_fract_y
_atom_site_fract_z
Br1 Br 0.27485(9) 1.10985(9) 0.03956(7)
Br2 Br 0.43199(10) 0.75899(10) 0.24906(6)
Cu1 Cu 0.17352(12) 0.61636(11) 0.37118(8)
Br3 Br 0.21293(13) 0.63840(12) 0.52917(7)
Cu2 Cu 0.44959(15) 0.85687(15) 0.06118(10)
N1 N 0.0726(7) 0.5556(7) 0.2790(5)
N2 N 0.2730(8) 0.4047(7) 0.3770(5)
C1 C 0.1113(9) 0.4215(8) 0.2605(6)
C2 C -0.0731(9) 0.7807(8) 0.2804(6)
C3 C 0.2298(9) 0.3358(9) 0.3134(6)
C4 C 0.0303(9) 0.3679(9) 0.2021(6)
H1 H 0.0596 0.2762 0.1864
C5 C -0.1359(10) 0.5938(9) 0.1924(6)
H2 H -0.2207 0.6515 0.1726
N3 N 0.0113(8) 0.7904(8) 0.3459(5)
C6 C 0.3767(11) 0.3374(11) 0.4288(8)
H3 H 0.4076 0.3861 0.4709
C7 C 0.4428(13) 0.1964(11) 0.4237(8)
H4 H 0.5169 0.1516 0.4612
C8 C -0.0925(9) 0.4529(8) 0.1685(6)
C9 C -0.1770(11) 0.8944(9) 0.2475(7)
H5 H -0.2328 0.8873 0.2002
C10 C -0.0463(9) 0.6403(8) 0.2463(6)
C11 C 0.2901(10) 0.1963(9) 0.3038(6)
H6 H 0.2607 0.1508 0.2594
C12 C -0.0071(13) 0.9092(10) 0.3840(8)
H7 H 0.0514 0.9143 0.4304
C13 C -0.1821(10) 0.3946(8) 0.1104(6)
C14 C 0.3963(12) 0.1257(10) 0.3625(8)
H8 H 0.4358 0.0294 0.3599
C15 C -0.1133(13) 1.0278(10) 0.3557(8)
H9 H -0.1260 1.1098 0.3837
C16 C -0.1965(13) 1.0212(10) 0.2873(8)
H10 H -0.2658 1.0994 0.2667
C17 C -0.3413(10) 0.4178(9) 0.1200(7)
H11 H -0.3962 0.4799 0.1596
C18 C -0.1897(11) 0.2443(11) -0.0038(7)
H12 H -0.1362 0.1882 -0.0481
C19 C -0.1048(10) 0.3072(10) 0.0459(6)
H13 H 0.0022 0.2910 0.0361
C20 C -0.4177(11) 0.3472(10) 0.0699(7)
H14 H -0.5249 0.3607 0.0790
N4 N -0.3439(9) 0.2601(8) 0.0085(5)
Br1A Br 0.72515(9) 0.89015(9) -0.03956(7)
Cu2A Cu 0.55041(15) 1.14313(15) -0.06118(10)
Cu2A_2 Cu -0.44959(15) 0.14313(15) -0.06118(10)
N4A N 0.3439(9) 0.7399(8) -0.0085(5)
loop_
_geom_bond_atom_site_label_1
_geom_bond_atom_site_label_2
_geom_bond_site_symmetry_1
_geom_bond_site_symmetry_2
Br1 Cu2 1_555 1_555
Br2 Cu1 1_555 1_555
Cu1 Br3 1_555 1_555
Cu2 Br2 1_555 1_555
N1 Cu1 1_555 1_555
N2 Cu1 1_555 1_555
C1 N1 1_555 1_555
C2 N3 1_555 1_555
C3 N2 1_555 1_555
C4 C1 1_555 1_555
H1 C4 1_555 1_555
C5 H2 1_555 1_555
N3 Cu1 1_555 1_555
C6 N2 1_555 1_555
H3 C6 1_555 1_555
C7 C6 1_555 1_555
H4 C7 1_555 1_555
C8 C4 1_555 1_555
C9 C2 1_555 1_555
H5 C9 1_555 1_555
C10 N1 1_555 1_555
C11 C3 1_555 1_555
H6 C11 1_555 1_555
C12 N3 1_555 1_555
H7 C12 1_555 1_555
C13 C8 1_555 1_555
C14 C7 1_555 1_555
H8 C14 1_555 1_555
C15 C12 1_555 1_555
H9 C15 1_555 1_555
C16 C9 1_555 1_555
H10 C16 1_555 1_555
C17 C13 1_555 1_555
H11 C17 1_555 1_555
C18 H12 1_555 1_555
C19 C13 1_555 1_555
H13 C19 1_555 1_555
C20 C17 1_555 1_555
H14 C20 1_555 1_555
N4 C18 1_555 1_555
Br1A Cu2 1_555 1_555
Cu2A Br1 1_555 1_555
Cu2A_2 N4 1_555 1_555
N4A Cu2 1_555 1_555
C1 C3 1_555 1_555
C2 C10 1_555 1_555
C5 C8 1_555 1_555
C5 C10 1_555 1_555
C11 C14 1_555 1_555
C15 C16 1_555 1_555
C18 C19 1_555 1_555
C20 N4 1_555 1_555
Br1A Cu2A 1_555 1_555

#END
