
#######################################################################
#
#                 Cambridge Crystallographic Data Centre
#                                CCDC 
#
#######################################################################
#
# If this CIF has been generated from an entry in the Cambridge 
# Structural Database, then it will include bibliographic, chemical, 
# crystal, experimental, refinement or atomic coordinate data resulting 
# from the CCDC's data processing and validation procedures.
#
#######################################################################

data_MAYFOH
_symmetry_cell_setting           monoclinic
_symmetry_space_group_name_H-M   'P 21/c'
_symmetry_Int_Tables_number      14
_space_group_name_Hall           '-P 2ybc'
loop_
_symmetry_equiv_pos_site_id
_symmetry_equiv_pos_as_xyz
1 x,y,z
2 -x,1/2+y,1/2-z
3 -x,-y,-z
4 x,1/2-y,1/2+z
_cell_length_a                   7.2113(9)
_cell_length_b                   9.2940(12)
_cell_length_c                   9.5668(12)
_cell_angle_alpha                90
_cell_angle_beta                 103.391(2)
_cell_angle_gamma                90
_cell_volume                     623.752
loop_
_atom_site_label
_atom_site_type_symbol
_atom_site_fract_x
_atom_site_fract_y
_atom_site_fract_z
Fe1 Fe -0.31182(9) 0.17968(7) -0.04071(6)
P1 P -0.5302(2) 0.11140(12) 0.20851(12)
O1 O -0.4884(4) 0.1968(3) 0.0830(3)
O2 O -0.5387(4) -0.0499(3) 0.1809(3)
O3 O -0.3870(4) 0.3544(3) -0.1505(3)
O4 O -0.1124(6) 0.3159(4) 0.0876(4)
O5 O -0.1762(4) 0.0142(3) 0.0952(3)
O6 O -0.0749(4) 0.1340(3) -0.1278(3)
O7 O -0.7336(4) 0.1659(3) 0.2194(3)
H1 H -0.7657(4) 0.1244(3) 0.2857(3)
C1 C -0.0294(6) -0.0337(5) 0.0649(4)
H2 H -0.0877(68) 0.3269(49) 0.1755(61)
H3 H -0.0265(76) 0.3174(53) 0.0650(52)
O2B O -0.4613(4) 0.0499(3) -0.1809(3)
O3C O -0.3870(4) 0.1456(3) 0.3495(3)
P1C P -0.5302(2) 0.38860(12) -0.29149(12)
C1B C 0.0294(6) 0.0337(5) -0.0649(4)
O6B O 0.0749(4) -0.1340(3) 0.1278(3)
Fe1B Fe -0.68818(9) -0.17968(7) 0.04071(6)
Fe1C Fe -0.31182(9) 0.32032(7) 0.45929(6)
O1C O -0.4884(4) 0.3032(3) -0.4170(3)
O2C O -0.5387(4) 0.5499(3) -0.3191(3)
O7C O -0.7336(4) 0.3341(3) -0.2806(3)
O5B O 0.1762(4) -0.0142(3) -0.0952(3)
Fe1B_2 Fe 0.31182(9) -0.17968(7) 0.04071(6)
Fe1C_2 Fe -0.31182(9) 0.32032(7) -0.54071(6)
Fe1A Fe -0.68818(9) 0.67968(7) -0.45929(6)
H1C H -0.7657(4) 0.3756(3) -0.2143(3)
O1B O 0.4884(4) -0.1968(3) -0.0830(3)
O2_2 O 0.4613(4) -0.0499(3) 0.1809(3)
O3B O 0.3870(4) -0.3544(3) 0.1505(3)
O4B O 0.1124(6) -0.3159(4) -0.0876(4)
H2B H 0.0877(68) -0.3269(49) -0.1755(61)
H3B H 0.0265(76) -0.3174(53) -0.0650(52)
O8 O -0.7901(6) 0.1120(6) -0.5181(5)
H4 H -0.772(11) 0.0478(88) -0.5000(78)
H5 H -0.757(17) 0.122(14) -0.453(13)
loop_
_geom_bond_atom_site_label_1
_geom_bond_atom_site_label_2
_geom_bond_site_symmetry_1
_geom_bond_site_symmetry_2
Fe1 O1 1_555 1_555
P1 O1 1_555 1_555
O2 P1 1_555 1_555
O3 Fe1 1_555 1_555
O4 Fe1 1_555 1_555
O5 Fe1 1_555 1_555
O6 Fe1 1_555 1_555
O7 P1 1_555 1_555
H1 O7 1_555 1_555
C1 O5 1_555 1_555
H2 O4 1_555 1_555
H3 O4 1_555 1_555
O8 H4 1_555 1_555
H5 O8 1_555 1_555
O2B Fe1 1_555 1_555
O3C P1 1_555 1_555
P1C O3 1_555 1_555
C1B O6 1_555 1_555
O6B C1 1_555 1_555
Fe1B O2 1_555 1_555
Fe1C O3C 1_555 1_555
O1C P1C 1_555 1_555
O2C P1C 1_555 1_555
O7C P1C 1_555 1_555
O5B C1B 1_555 1_555
Fe1B_2 O6B 1_555 1_555
Fe1C_2 O1C 1_555 1_555
Fe1A O2C 1_555 1_555
H1C O7C 1_555 1_555
O1B Fe1B_2 1_555 1_555
O2_2 Fe1B_2 1_555 1_555
O3B Fe1B_2 1_555 1_555
O4B Fe1B_2 1_555 1_555
H2B O4B 1_555 1_555
H3B O4B 1_555 1_555
C1 C1B 1_555 1_555
O5B Fe1B_2 1_555 1_555

#END
