
#######################################################################
#
#                 Cambridge Crystallographic Data Centre
#                                CCDC 
#
#######################################################################
#
# If this CIF has been generated from an entry in the Cambridge 
# Structural Database, then it will include bibliographic, chemical, 
# crystal, experimental, refinement or atomic coordinate data resulting 
# from the CCDC's data processing and validation procedures.
#
#######################################################################

data_MAYYER
_symmetry_cell_setting           orthorhombic
_symmetry_space_group_name_H-M   'I b a 2'
_symmetry_Int_Tables_number      45
_space_group_name_Hall           'I 2 -2c'
loop_
_symmetry_equiv_pos_site_id
_symmetry_equiv_pos_as_xyz
1 x,y,z
2 -x,-y,z
3 1/2+x,1/2-y,z
4 1/2-x,1/2+y,z
5 1/2+x,1/2+y,1/2+z
6 1/2-x,1/2-y,1/2+z
7 x,-y,1/2+z
8 -x,y,1/2+z
_cell_length_a                   12.3605(19)
_cell_length_b                   14.081(2)
_cell_length_c                   10.4021(15)
_cell_angle_alpha                90
_cell_angle_beta                 90
_cell_angle_gamma                90
_cell_volume                     1810.47
loop_
_atom_site_label
_atom_site_type_symbol
_atom_site_fract_x
_atom_site_fract_y
_atom_site_fract_z
Er1 Er 0.36940(2) 0.24982(3) -0.5010(2)
O1 O 0.3434(5) 0.1829(4) -0.3051(6)
H1 H 0.3687 0.2164 -0.2442
H2 H 0.3670 0.1264 -0.3004
O2 O 0.1914(5) 0.2746(4) -0.5495(6)
O3 O 0.0276(4) 0.3357(4) -0.5141(6)
O4 O 0.2843(4) 0.3765(4) -0.3779(5)
H3 H 0.3168 0.4278 -0.3973
O5 O 0.1202(4) 0.2820(4) -0.2222(6)
H4 H 0.0756 0.2465 -0.2617
O6 O 0.1867(5) 0.3982(4) -0.0530(5)
O7 O 0.1855(5) 0.5243(5) -0.1812(7)
O8 O 0.5001(5) 0.3326(4) -0.3819(6)
O9 O 0.6061(5) 0.4555(5) -0.3429(6)
O10 O 0.4359(5) 0.3876(5) -0.6013(6)
H5 H 0.3815 0.4233 -0.6139
C1 C 0.1251(5) 0.3298(5) -0.4927(11)
C2 C 0.1718(7) 0.3942(6) -0.3907(8)
H6 H 0.1614 0.4610 -0.4179
C3 C 0.1150(7) 0.3794(6) -0.2624(8)
H7 H 0.0381 0.3983 -0.2711
C4 C 0.1677(6) 0.4391(6) -0.1559(8)
C5 C 0.5444(7) 0.4095(6) -0.4133(8)
C6 C 0.5183(7) 0.4477(6) -0.5468(8)
H8 H 0.5836 0.4418 -0.6013
Er1B Er 0.86940(2) 0.25018(3) -0.5010(2)
Er1B_2 Er -0.13060(2) 0.25018(3) -0.5010(2)
Er1E Er 0.13060(2) 0.25018(3) -0.0010(2)
Er1A Er 0.63060(2) 0.75018(3) -0.5010(2)
Er1G Er 0.63060(2) 0.24982(3) -0.0010(2)
O1B O 0.8434(5) 0.3171(4) -0.3051(6)
H1B H 0.8687 0.2836 -0.2442
H2B H 0.8670 0.3736 -0.3004
O2B O 0.6914(5) 0.2254(4) -0.5495(6)
O3B O 0.5276(4) 0.1643(4) -0.5141(6)
O3_2 O 1.0276(4) 0.3357(4) -0.5141(6)
O4B O 0.7843(4) 0.1235(4) -0.3779(5)
H3B H 0.8168 0.0722 -0.3973
O5B O 0.6202(4) 0.2180(4) -0.2222(6)
O5E O 0.3798(4) 0.2180(4) -0.7222(6)
O5G O 0.8798(4) 0.2820(4) -0.7222(6)
H4B H 0.5756 0.2535 -0.2617
H4E H 0.4244 0.2535 -0.7617
H4G H 0.9244 0.2465 -0.7617
O6B O 0.6867(5) 0.1018(4) -0.0530(5)
O6E O 0.3133(5) 0.1018(4) -0.5530(5)
O6G O 0.8133(5) 0.3982(4) -0.5530(5)
O7B O 0.6855(5) -0.0243(5) -0.1812(7)
O8A O 0.4999(5) 0.6674(4) -0.3819(6)
O8B O 1.0001(5) 0.1674(4) -0.3819(6)
O9A O 0.3939(5) 0.5445(5) -0.3429(6)
O10A O 0.5641(5) 0.6124(5) -0.6013(6)
O10B O 0.9359(5) 0.1124(5) -0.6013(6)
H5A H 0.6185 0.5767 -0.6139
H5B H 0.8815 0.0767 -0.6139
C1B C 0.6251(5) 0.1702(5) -0.4927(11)
C2B C 0.6718(7) 0.1058(6) -0.3907(8)
H6B H 0.6614 0.0390 -0.4179
C3B C 0.6150(7) 0.1206(6) -0.2624(8)
H7B H 0.5381 0.1017 -0.2711
C4B C 0.6677(6) 0.0609(6) -0.1559(8)
C5A C 0.4556(7) 0.5905(6) -0.4133(8)
C6A C 0.4817(7) 0.5523(6) -0.5468(8)
H8A H 0.4164 0.5582 -0.6013
loop_
_geom_bond_atom_site_label_1
_geom_bond_atom_site_label_2
_geom_bond_site_symmetry_1
_geom_bond_site_symmetry_2
Er1 O1 1_555 1_555
O1 H1 1_555 1_555
H2 O1 1_555 1_555
O2 Er1 1_555 1_555
O3 C1 1_555 1_555
O4 Er1 1_555 1_555
H3 O4 1_555 1_555
O5 H4 1_555 1_555
O6 C4 1_555 1_555
O7 C4 1_555 1_555
O8 Er1 1_555 1_555
O9 C5 1_555 1_555
O10 Er1 1_555 1_555
H5 O10 1_555 1_555
C1 O2 1_555 1_555
C2 O4 1_555 1_555
H6 C2 1_555 1_555
C3 O5 1_555 1_555
H7 C3 1_555 1_555
C4 C3 1_555 1_555
C5 O8 1_555 1_555
C6 O10 1_555 1_555
H8 C6 1_555 1_555
Er1B O1B 1_555 1_555
Er1B_2 O3 1_555 1_555
Er1E O5 1_555 1_555
Er1A O8A 1_555 1_555
Er1G O5B 1_555 1_555
O1B H1B 1_555 1_555
H2B O1B 1_555 1_555
O2B Er1B 1_555 1_555
O3B Er1 1_555 1_555
O3_2 Er1B 1_555 1_555
O4B Er1B 1_555 1_555
H3B O4B 1_555 1_555
O5B H4B 1_555 1_555
O5E Er1 1_555 1_555
O5G Er1B 1_555 1_555
H4E O5E 1_555 1_555
H4G O5G 1_555 1_555
O6B Er1G 1_555 1_555
O6E Er1 1_555 1_555
O6G Er1B 1_555 1_555
O7B C4B 1_555 1_555
O8A C5A 1_555 1_555
O8B Er1B 1_555 1_555
O9A C5A 1_555 1_555
O10A Er1A 1_555 1_555
O10B Er1B 1_555 1_555
H5A O10A 1_555 1_555
H5B O10B 1_555 1_555
C1B O2B 1_555 1_555
C2B O4B 1_555 1_555
H6B C2B 1_555 1_555
C3B O5B 1_555 1_555
H7B C3B 1_555 1_555
C4B O6B 1_555 1_555
C5A C6A 1_555 1_555
C6A C6 1_555 1_555
H8A C6A 1_555 1_555
O6 Er1E 1_555 1_555
C1 C2 1_555 1_555
C2 C3 1_555 1_555
C5 C6 1_555 1_555
O3B C1B 1_555 1_555
O10A C6A 1_555 1_555
C1B C2B 1_555 1_555
C2B C3B 1_555 1_555
C3B C4B 1_555 1_555

#END
