
#######################################################################
#
#                 Cambridge Crystallographic Data Centre
#                                CCDC 
#
#######################################################################
#
# If this CIF has been generated from an entry in the Cambridge 
# Structural Database, then it will include bibliographic, chemical, 
# crystal, experimental, refinement or atomic coordinate data resulting 
# from the CCDC's data processing and validation procedures.
#
#######################################################################

data_MAZBUL
_symmetry_cell_setting           triclinic
_symmetry_space_group_name_H-M   'P -1'
_symmetry_Int_Tables_number      2
_space_group_name_Hall           '-P 1'
loop_
_symmetry_equiv_pos_site_id
_symmetry_equiv_pos_as_xyz
1 x,y,z
2 -x,-y,-z
_cell_length_a                   7.771(2)
_cell_length_b                   10.434(3)
_cell_length_c                   10.827(3)
_cell_angle_alpha                71.403(4)
_cell_angle_beta                 80.946(5)
_cell_angle_gamma                88.794(4)
_cell_volume                     821.278
loop_
_atom_site_label
_atom_site_type_symbol
_atom_site_fract_x
_atom_site_fract_y
_atom_site_fract_z
C1 C 0.5386(6) 0.4356(4) 0.4072(4)
Ag2 Ag 0.0000 0.0000 0.5000
C9 C 0.3453(7) 0.1069(4) 0.5297(6)
H8 H 0.3814 0.1306 0.4390
C10 C 0.1932(7) 0.0290(5) 0.7227(7)
H9 H 0.1028 -0.0118 0.7906
C11 C 0.3419(7) 0.0853(5) 0.7362(6)
H10 H 0.3730 0.0896 0.8143
C12 C 0.5964(6) 0.2197(4) 0.5754(5)
H11 H 0.6699 0.2016 0.5020
H12 H 0.6608 0.1989 0.6489
C13 C 0.5503(5) 0.3671(4) 0.5360(4)
C14 C 0.4878(6) 0.5682(4) 0.3710(4)
H13 H 0.4793 0.6140 0.2832
H14 H 0.5654 0.3930 0.3434
N3 N 0.1986(6) 0.0424(4) 0.5920(6)
N4 N 0.4362(5) 0.1340(3) 0.6137(4)
C1A C 0.4614(6) 0.5644(4) 0.5928(4)
Ag2_2 Ag 1.0000 1.0000 0.5000
C9A C 0.6547(7) 0.8931(4) 0.4703(6)
H8A H 0.6186 0.8694 0.5610
C10A C 0.8068(7) 0.9710(5) 0.2773(7)
H9A H 0.8972 1.0118 0.2094
C11A C 0.6581(7) 0.9147(5) 0.2638(6)
H10A H 0.6270 0.9104 0.1857
C12A C 0.4036(6) 0.7803(4) 0.4246(5)
H11A H 0.3301 0.7984 0.4980
H12A H 0.3392 0.8011 0.3511
C13A C 0.4497(5) 0.6329(4) 0.4640(4)
C14A C 0.5122(6) 0.4318(4) 0.6290(4)
H13A H 0.5207 0.3860 0.7168
H14A H 0.4346 0.6070 0.6566
N3A N 0.8014(6) 0.9576(4) 0.4080(6)
N3A_2 N -0.1986(6) -0.0424(4) 0.4080(6)
N4A N 0.5638(5) 0.8660(3) 0.3863(4)
C2 C -0.0679(6) 0.6051(4) 0.5381(4)
H1 H -0.1138 0.6777 0.5632
Ag1 Ag 0.5000 0.5000 1.0000
C3 C 0.2153(6) 0.6709(4) 0.8590(4)
H2 H 0.2642 0.7507 0.8609
C4 C 0.0740(6) 0.6628(4) 0.8049(4)
H3 H 0.0082 0.7342 0.7627
C5 C 0.1703(6) 0.4612(4) 0.8881(4)
H4 H 0.1802 0.3678 0.9133
C6 C -0.0910(6) 0.4707(5) 0.7774(4)
H5 H -0.1992 0.5158 0.7916
H6 H -0.1092 0.3756 0.8282
C7 C -0.0449(5) 0.4853(4) 0.6335(4)
C8 C -0.0242(6) 0.6196(4) 0.4061(4)
H7 H -0.0418 0.7014 0.3433
N1 N 0.2771(5) 0.5447(4) 0.9111(3)
N2 N 0.0464(4) 0.5287(3) 0.8242(3)
C2A C 0.0679(6) 0.3949(4) 0.4619(4)
H1A H 0.1138 0.3223 0.4368
Ag1_2 Ag -0.5000 0.5000 0.0000
C3A C -0.2153(6) 0.3291(4) 0.1410(4)
H2A H -0.2642 0.2493 0.1391
C4A C -0.0740(6) 0.3372(4) 0.1951(4)
H3A H -0.0082 0.2658 0.2373
C5A C -0.1703(6) 0.5388(4) 0.1119(4)
H4A H -0.1802 0.6322 0.0867
C6A C 0.0910(6) 0.5293(5) 0.2226(4)
H5A H 0.1992 0.4842 0.2084
H6A H 0.1092 0.6244 0.1718
C7A C 0.0449(5) 0.5147(4) 0.3665(4)
C8A C 0.0242(6) 0.3804(4) 0.5939(4)
H7A H 0.0418 0.2986 0.6567
N1A N -0.2771(5) 0.4553(4) 0.0889(3)
N1A_2 N 0.7229(5) 0.4553(4) 1.0889(3)
N2A N -0.0464(4) 0.4713(3) 0.1758(3)
N5 N 0.6779(6) 0.8417(5) 0.8384(6)
O2 O 0.7695(7) 0.9385(5) 0.7699(7)
O3 O 0.6490(7) 0.7551(5) 0.7909(5)
O4 O 0.6126(10) 0.8232(6) 0.9545(6)
O1 O 0.2775(10) 0.8462(6) 0.0934(6)
H15 H 0.2502 0.9263 0.0906
H16 H 0.3636 0.8491 0.0333
loop_
_geom_bond_atom_site_label_1
_geom_bond_atom_site_label_2
_geom_bond_site_symmetry_1
_geom_bond_site_symmetry_2
C1 C13 1_555 1_555
C2 H1 1_555 1_555
Ag1 N1 1_555 1_555
Ag2 N3 1_555 1_555
C3 H2 1_555 1_555
C4 C3 1_555 1_555
H3 C4 1_555 1_555
C5 H4 1_555 1_555
C6 H5 1_555 1_555
H6 C6 1_555 1_555
C7 C2 1_555 1_555
C8 C2 1_555 1_555
H7 C8 1_555 1_555
C9 H8 1_555 1_555
C10 H9 1_555 1_555
C11 C10 1_555 1_555
H10 C11 1_555 1_555
C12 H11 1_555 1_555
H12 C12 1_555 1_555
C13 C12 1_555 1_555
C14 C1 1_555 1_555
H13 C14 1_555 1_555
H14 C1 1_555 1_555
N1 C3 1_555 1_555
N2 C4 1_555 1_555
N3 C9 1_555 1_555
N4 C9 1_555 1_555
N5 O2 1_555 1_555
O1 H15 1_555 1_555
H16 O1 1_555 1_555
O3 N5 1_555 1_555
O4 N5 1_555 1_555
C1A C13A 1_555 1_555
C2A H1A 1_555 1_555
Ag1_2 N1A 1_555 1_555
Ag2_2 N3A 1_555 1_555
C3A H2A 1_555 1_555
C4A C3A 1_555 1_555
H3A C4A 1_555 1_555
C5A H4A 1_555 1_555
C6A H5A 1_555 1_555
H6A C6A 1_555 1_555
C7A C8 1_555 1_555
C8A C7 1_555 1_555
H7A C8A 1_555 1_555
C9A H8A 1_555 1_555
C10A H9A 1_555 1_555
C11A C10A 1_555 1_555
H10A C11A 1_555 1_555
C12A H11A 1_555 1_555
H12A C12A 1_555 1_555
C13A C14 1_555 1_555
C14A C13 1_555 1_555
H13A C14A 1_555 1_555
H14A C1A 1_555 1_555
N1A C3A 1_555 1_555
N1A_2 Ag1 1_555 1_555
N2A C4A 1_555 1_555
N3A C9A 1_555 1_555
N3A_2 Ag2 1_555 1_555
N4A C9A 1_555 1_555
C5 N1 1_555 1_555
C5 N2 1_555 1_555
C6 C7 1_555 1_555
C6 N2 1_555 1_555
C10 N3 1_555 1_555
C11 N4 1_555 1_555
C12 N4 1_555 1_555
C1A C14A 1_555 1_555
C2A C7A 1_555 1_555
C2A C8A 1_555 1_555
C5A N1A 1_555 1_555
C5A N2A 1_555 1_555
C6A C7A 1_555 1_555
C6A N2A 1_555 1_555
C10A N3A 1_555 1_555
C11A N4A 1_555 1_555
C12A C13A 1_555 1_555
C12A N4A 1_555 1_555

#END
