
#######################################################################
#
#                 Cambridge Crystallographic Data Centre
#                                CCDC 
#
#######################################################################
#
# If this CIF has been generated from an entry in the Cambridge 
# Structural Database, then it will include bibliographic, chemical, 
# crystal, experimental, refinement or atomic coordinate data resulting 
# from the CCDC's data processing and validation procedures.
#
#######################################################################

data_MAZNIL
_symmetry_cell_setting           triclinic
_symmetry_space_group_name_H-M   'P -1'
_symmetry_Int_Tables_number      2
_space_group_name_Hall           '-P 1'
loop_
_symmetry_equiv_pos_site_id
_symmetry_equiv_pos_as_xyz
1 x,y,z
2 -x,-y,-z
_cell_length_a                   5.8950(12)
_cell_length_b                   7.8570(16)
_cell_length_c                   8.8200(18)
_cell_angle_alpha                110.98(3)
_cell_angle_beta                 106.49(3)
_cell_angle_gamma                95.08(3)
_cell_volume                     357.399
loop_
_atom_site_label
_atom_site_type_symbol
_atom_site_fract_x
_atom_site_fract_y
_atom_site_fract_z
Cd1 Cd 0.0000 0.0000 0.5000
S1 S 0.32909(18) 0.31755(13) 0.56360(13)
N1 N 0.0070(6) 0.2721(4) 1.0378(4)
N2 N 0.0465(5) 0.1203(4) 0.7870(4)
N3 N 0.6792(6) 0.1505(5) 0.4451(4)
C1 C -0.0967(8) 0.3719(6) 1.1674(5)
H1 H -0.2533 0.3881 1.1111
H2 H 0.0075 0.4918 1.2419
H3 H -0.1123 0.3014 1.2345
C2 C -0.0955(7) 0.2063(6) 0.8661(5)
H4 H -0.2478 0.2196 0.8097
C3 C 0.2283(7) 0.2250(6) 1.0702(5)
H5 H 0.3416 0.2516 1.1779
C4 C 0.2494(7) 0.1323(6) 0.9154(5)
H6 H 0.3828 0.0837 0.8985
C5 C 0.5332(6) 0.2177(5) 0.4934(4)
Cd1_2 Cd 1.0000 0.0000 0.5000
Cd1_3 Cd -1.0000 0.0000 0.5000
S1A S -0.32909(18) -0.31755(13) 0.43640(13)
N1A N -0.0070(6) -0.2721(4) -0.0378(4)
N2A N -0.0465(5) -0.1203(4) 0.2130(4)
N3A N -0.6792(6) -0.1505(5) 0.5549(4)
N3_2 N -0.3208(6) 0.1505(5) 0.4451(4)
N3A_2 N 0.3208(6) -0.1505(5) 0.5549(4)
C1A C 0.0967(8) -0.3719(6) -0.1674(5)
H1A H 0.2533 -0.3881 -0.1111
H2A H -0.0075 -0.4918 -0.2419
H3A H 0.1123 -0.3014 -0.2345
C2A C 0.0955(7) -0.2063(6) 0.1339(5)
H4A H 0.2478 -0.2196 0.1903
C3A C -0.2283(7) -0.2250(6) -0.0702(5)
H5A H -0.3416 -0.2516 -0.1779
C4A C -0.2494(7) -0.1323(6) 0.0846(5)
H6A H -0.3828 -0.0837 0.1015
C5A C -0.5332(6) -0.2177(5) 0.5066(4)
loop_
_geom_bond_atom_site_label_1
_geom_bond_atom_site_label_2
_geom_bond_site_symmetry_1
_geom_bond_site_symmetry_2
Cd1 S1 1_555 1_555
S1 C5 1_555 1_555
N1 C1 1_555 1_555
N2 Cd1 1_555 1_555
N3 C5 1_555 1_555
C1 H1 1_555 1_555
H2 C1 1_555 1_555
H3 C1 1_555 1_555
C2 N1 1_555 1_555
H4 C2 1_555 1_555
C3 N1 1_555 1_555
H5 C3 1_555 1_555
C4 N2 1_555 1_555
H6 C4 1_555 1_555
Cd1_2 N3 1_555 1_555
Cd1_3 N3A 1_555 1_555
S1A Cd1 1_555 1_555
N1A C1A 1_555 1_555
N2A Cd1 1_555 1_555
N3A C5A 1_555 1_555
N3_2 Cd1 1_555 1_555
N3A_2 Cd1 1_555 1_555
C1A H1A 1_555 1_555
H2A C1A 1_555 1_555
H3A C1A 1_555 1_555
C2A N1A 1_555 1_555
H4A C2A 1_555 1_555
C3A N1A 1_555 1_555
H5A C3A 1_555 1_555
C4A N2A 1_555 1_555
H6A C4A 1_555 1_555
C5A S1A 1_555 1_555
N2 C2 1_555 1_555
C3 C4 1_555 1_555
N2A C2A 1_555 1_555
C3A C4A 1_555 1_555

#END
