
#######################################################################
#
#                 Cambridge Crystallographic Data Centre
#                                CCDC 
#
#######################################################################
#
# If this CIF has been generated from an entry in the Cambridge 
# Structural Database, then it will include bibliographic, chemical, 
# crystal, experimental, refinement or atomic coordinate data resulting 
# from the CCDC's data processing and validation procedures.
#
#######################################################################

data_MCYSZN
_symmetry_cell_setting           monoclinic
_symmetry_space_group_name_H-M   'P 21'
_symmetry_Int_Tables_number      4
_space_group_name_Hall           'P 2yb'
loop_
_symmetry_equiv_pos_site_id
_symmetry_equiv_pos_as_xyz
1 x,y,z
2 -x,1/2+y,-z
_cell_length_a                   13.433(12)
_cell_length_b                   5.323(4)
_cell_length_c                   9.603(8)
_cell_angle_alpha                90
_cell_angle_beta                 107.52
_cell_angle_gamma                90
_cell_volume                     654.799
loop_
_atom_site_label
_atom_site_type_symbol
_atom_site_fract_x
_atom_site_fract_y
_atom_site_fract_z
Zn1 Zn 0.03916 0.00000 0.23712
S1 S 0.36810 -0.36190 0.47500
S2 S -0.34160 0.25940 -0.02270
O1 O 0.06440 0.15660 0.44450
O2 O 0.14360 0.07230 0.68080
O3 O 0.12830 0.22770 0.16300
O4 O -0.00360 -0.23120 0.04800
N1 N 0.11490 -0.30000 0.36580
N2 N -0.11900 0.03240 0.18000
C1 C 0.17840 -0.19890 0.50890
C2 C 0.12480 0.02480 0.54810
C3 C 0.28530 -0.11290 0.50200
C4 C 0.40560 -0.49550 0.65300
C5 C -0.17310 -0.06710 0.03090
C6 C 0.09260 0.30540 0.03070
C7 C -0.23170 0.13890 -0.07040
C8 C -0.43160 0.00540 -0.08700
H1 H 0.15700 -0.33200 0.30800
H2 H 0.05500 -0.38800 0.37500
H3 H 0.16700 -0.27800 0.59400
H4 H 0.26200 0.07100 0.42300
H5 H 0.32700 -0.02100 0.59500
H6 H 0.33300 -0.61200 0.67300
H7 H 0.46800 -0.58800 0.67200
H8 H 0.42400 -0.35100 0.72600
H9 H -0.14400 0.23800 0.20500
H10 H -0.14000 -0.08600 0.25900
H11 H -0.24300 -0.13800 0.03700
H12 H -0.25500 0.08400 -0.18700
H13 H -0.16700 0.28000 -0.03100
H14 H -0.44200 -0.00800 -0.19000
H15 H -0.50000 0.08500 -0.06300
H16 H -0.40300 -0.14300 -0.03700
C6A C -0.09260 -0.19460 -0.03070
O4A O 0.00360 0.26880 -0.04800
C5A C 0.17310 0.43290 -0.03090
O3A O -0.12830 -0.27230 -0.16300
Zn1A Zn -0.03916 0.50000 -0.23712
N2A N 0.11900 0.53240 -0.18000
C7A C 0.23170 0.63890 0.07040
H11A H 0.24300 0.36200 -0.03700
Zn1A_2 Zn -0.03916 -0.50000 -0.23712
O1A O -0.06440 0.65660 -0.44450
O3A_2 O -0.12830 0.72770 -0.16300
N1A N -0.11490 0.20000 -0.36580
H9A H 0.14400 0.73800 -0.20500
H10A H 0.14000 0.41400 -0.25900
S2A S 0.34160 0.75940 0.02270
H12A H 0.25500 0.58400 0.18700
H13A H 0.16700 0.78000 0.03100
C2A C -0.12480 0.52480 -0.54810
C1A C -0.17840 0.30110 -0.50890
H1A H -0.15700 0.16800 -0.30800
H2A H -0.05500 0.11200 -0.37500
C8A C 0.43160 0.50540 0.08700
O2A O -0.14360 0.57230 -0.68080
C3A C -0.28530 0.38710 -0.50200
H3A H -0.16700 0.22200 -0.59400
H14A H 0.44200 0.49200 0.19000
H15A H 0.50000 0.58500 0.06300
H16A H 0.40300 0.35700 0.03700
S1A S -0.36810 0.13810 -0.47500
H4A H -0.26200 0.57100 -0.42300
H5A H -0.32700 0.47900 -0.59500
C4A C -0.40560 0.00450 -0.65300
H6A H -0.33300 -0.11200 -0.67300
H7A H -0.46800 -0.08800 -0.67200
H8A H -0.42400 0.14900 -0.72600
loop_
_geom_bond_atom_site_label_1
_geom_bond_atom_site_label_2
_geom_bond_site_symmetry_1
_geom_bond_site_symmetry_2
Zn1 O1 1_555 1_555
S1 C3 1_555 1_555
S2 C7 1_555 1_555
O1 C2 1_555 1_555
O2 C2 1_555 1_555
O3 Zn1 1_555 1_555
O4 Zn1 1_555 1_555
N1 Zn1 1_555 1_555
N2 Zn1 1_555 1_555
C1 N1 1_555 1_555
C2 C1 1_555 1_555
C3 C1 1_555 1_555
C4 S1 1_555 1_555
C5 N2 1_555 1_555
C6 O3 1_555 1_555
C7 C5 1_555 1_555
C8 S2 1_555 1_555
H1 N1 1_555 1_555
H2 N1 1_555 1_555
H3 C1 1_555 1_555
H4 C3 1_555 1_555
H5 C3 1_555 1_555
H6 C4 1_555 1_555
H7 C4 1_555 1_555
H8 C4 1_555 1_555
H9 N2 1_555 1_555
H10 N2 1_555 1_555
H11 C5 1_555 1_555
H12 C7 1_555 1_555
H13 C7 1_555 1_555
H14 C8 1_555 1_555
H15 C8 1_555 1_555
H16 C8 1_555 1_555
C6A O4 1_555 1_555
O4A C6 1_555 1_555
C5A C6 1_555 1_555
O3A C6A 1_555 1_555
Zn1A O4A 1_555 1_555
N2A C5A 1_555 1_555
C7A C5A 1_555 1_555
H11A C5A 1_555 1_555
Zn1A_2 O3A 1_555 1_555
O1A Zn1A 1_555 1_555
O3A_2 Zn1A 1_555 1_555
N1A Zn1A 1_555 1_555
H9A N2A 1_555 1_555
H10A N2A 1_555 1_555
S2A C7A 1_555 1_555
H12A C7A 1_555 1_555
H13A C7A 1_555 1_555
C2A O1A 1_555 1_555
C1A N1A 1_555 1_555
H1A N1A 1_555 1_555
H2A N1A 1_555 1_555
C8A S2A 1_555 1_555
O2A C2A 1_555 1_555
C3A C1A 1_555 1_555
H3A C1A 1_555 1_555
H14A C8A 1_555 1_555
H15A C8A 1_555 1_555
H16A C8A 1_555 1_555
S1A C3A 1_555 1_555
H4A C3A 1_555 1_555
H5A C3A 1_555 1_555
C4A S1A 1_555 1_555
H6A C4A 1_555 1_555
H7A C4A 1_555 1_555
H8A C4A 1_555 1_555
C5 C6A 1_555 1_555
Zn1A N2A 1_555 1_555
C2A C1A 1_555 1_555

#END
