
#######################################################################
#
#                 Cambridge Crystallographic Data Centre
#                                CCDC 
#
#######################################################################
#
# If this CIF has been generated from an entry in the Cambridge 
# Structural Database, then it will include bibliographic, chemical, 
# crystal, experimental, refinement or atomic coordinate data resulting 
# from the CCDC's data processing and validation procedures.
#
#######################################################################

data_MCYTAG10
_symmetry_cell_setting           triclinic
_symmetry_space_group_name_H-M   'P -1'
_symmetry_Int_Tables_number      2
_space_group_name_Hall           '-P 1'
loop_
_symmetry_equiv_pos_site_id
_symmetry_equiv_pos_as_xyz
1 x,y,z
2 -x,-y,-z
_cell_length_a                   10.474(3)
_cell_length_b                   11.141(3)
_cell_length_c                   3.642(1)
_cell_angle_alpha                97.33(2)
_cell_angle_beta                 95.82(2)
_cell_angle_gamma                76.76(2)
_cell_volume                     409.162
loop_
_atom_site_label
_atom_site_type_symbol
_atom_site_fract_x
_atom_site_fract_y
_atom_site_fract_z
Ag1 Ag -0.07206 -0.12056 -0.13519
O1 O -0.15850 0.02470 0.35970
O2 O -0.14440 -0.32220 0.13460
O3 O -0.34780 -0.33540 0.03340
O4 O -0.28520 -0.17850 -0.12000
N1 N -0.32630 0.18740 0.49130
N2 N 0.12720 -0.21710 -0.30340
N3 N 0.10110 -0.41290 -0.25230
N4 N -0.26010 -0.27900 0.01260
C1 C -0.40620 0.10180 0.56250
C2 C -0.20070 0.13980 0.38320
C3 C 0.17700 -0.34050 -0.33390
C4 C 0.30480 -0.39160 -0.44530
C5 C -0.37680 0.31190 0.52140
H1 H -0.36900 0.05000 0.79900
H2 H -0.40800 0.04400 0.32900
H3 H -0.48800 0.14900 0.61400
H4 H 0.02800 -0.38200 -0.18000
H5 H 0.13500 -0.48900 -0.22100
H6 H 0.33900 -0.47800 -0.46500
H7 H -0.47000 0.33300 0.61700
Ag1A Ag 0.07206 0.12056 0.13519
O1A O 0.15850 -0.02470 0.64030
Ag1_2 Ag -0.07206 -0.12056 0.86481
O1_2 O -0.15850 0.02470 -0.64030
C2A C 0.20070 -0.13980 -0.38320
O1A_2 O 0.15850 -0.02470 -0.35970
Ag1A_2 Ag 0.07206 0.12056 -0.86481
N1A N 0.32630 -0.18740 -0.49130
C1A C 0.40620 -0.10180 -0.56250
H1A H 0.36900 -0.05000 -0.79900
H2A H 0.40800 -0.04400 -0.32900
H3A H 0.48800 -0.14900 -0.61400
C5A C 0.37680 -0.31190 -0.52140
H7A H 0.47000 -0.33300 -0.61700
C4A C -0.30480 0.39160 0.44530
C3A C -0.17700 0.34050 0.33390
N2A N -0.12720 0.21710 0.30340
O4A O 0.28520 0.17850 0.12000
N4A N 0.26010 0.27900 -0.01260
O2A O 0.14440 0.32220 -0.13460
O3A O 0.34780 0.33540 -0.03340
N3A N -0.10110 0.41290 0.25230
H4A H -0.02800 0.38200 0.18000
H5A H -0.13500 0.48900 0.22100
H6A H -0.33900 0.47800 0.46500
loop_
_geom_bond_atom_site_label_1
_geom_bond_atom_site_label_2
_geom_bond_site_symmetry_1
_geom_bond_site_symmetry_2
Ag1 O1 1_555 1_555
O1 C2 1_555 1_555
O2 N4 1_555 1_555
O3 N4 1_555 1_555
O4 Ag1 1_555 1_555
N1 C1 1_555 1_555
N2 Ag1 1_555 1_555
N3 C3 1_555 1_555
N4 O4 1_555 1_555
C1 H1 1_555 1_555
C2 N1 1_555 1_555
C3 N2 1_555 1_555
C4 C3 1_555 1_555
C5 N1 1_555 1_555
H2 C1 1_555 1_555
H3 C1 1_555 1_555
H4 N3 1_555 1_555
H5 N3 1_555 1_555
H6 C4 1_555 1_555
H7 C5 1_555 1_555
Ag1A O1A 1_555 1_555
Ag1_2 O1 1_555 1_555
O1_2 Ag1 1_555 1_555
C2A N2 1_555 1_555
O1A_2 Ag1A 1_555 1_555
Ag1A_2 O1A_2 1_555 1_555
N1A C2A 1_555 1_555
C1A N1A 1_555 1_555
H1A C1A 1_555 1_555
H2A C1A 1_555 1_555
H3A C1A 1_555 1_555
C5A C4 1_555 1_555
H7A C5A 1_555 1_555
C4A C5 1_555 1_555
C3A C4A 1_555 1_555
N2A C2 1_555 1_555
O4A Ag1A 1_555 1_555
N4A O4A 1_555 1_555
O2A N4A 1_555 1_555
O3A N4A 1_555 1_555
N3A C3A 1_555 1_555
H4A N3A 1_555 1_555
H5A N3A 1_555 1_555
H6A C4A 1_555 1_555
Ag1A N2A 1_555 1_555
C2A O1A_2 1_555 1_555
N1A C5A 1_555 1_555
C3A N2A 1_555 1_555

#END
