
#######################################################################
#
#                 Cambridge Crystallographic Data Centre
#                                CCDC 
#
#######################################################################
#
# If this CIF has been generated from an entry in the Cambridge 
# Structural Database, then it will include bibliographic, chemical, 
# crystal, experimental, refinement or atomic coordinate data resulting 
# from the CCDC's data processing and validation procedures.
#
#######################################################################

data_MEBJAG
_symmetry_cell_setting           monoclinic
_symmetry_space_group_name_H-M   'C 2/c'
_symmetry_Int_Tables_number      15
_space_group_name_Hall           '-C 2yn'
loop_
_symmetry_equiv_pos_site_id
_symmetry_equiv_pos_as_xyz
1 x,y,z
2 -x,y,1/2-z
3 1/2+x,1/2+y,z
4 1/2-x,1/2+y,1/2-z
5 -x,-y,-z
6 x,-y,1/2+z
7 1/2-x,1/2-y,-z
8 1/2+x,1/2-y,1/2+z
_cell_length_a                   17.1004(18)
_cell_length_b                   20.089(2)
_cell_length_c                   16.1526(17)
_cell_angle_alpha                90
_cell_angle_beta                 104.349(2)
_cell_angle_gamma                90
_cell_volume                     5375.8
loop_
_atom_site_label
_atom_site_type_symbol
_atom_site_fract_x
_atom_site_fract_y
_atom_site_fract_z
Zn1 Zn 0.5000 0.166739(11) 0.7500
O1 O 0.42415(7) 0.02975(5) 0.34372(7)
O2 O -0.08293(6) 0.22672(5) -0.18619(7)
O3 O 0.5000 0.27277(8) 0.7500
O4 O 0.5000 0.05335(8) 0.7500
N1 N 0.48416(7) 0.15926(6) 0.61349(8)
N2 N 0.39492(7) 0.13506(6) 0.29118(8)
N3 N -0.07069(7) 0.11571(6) -0.15802(8)
N4 N -0.37159(7) 0.16387(6) -0.23243(8)
C1 C 0.42485(9) 0.19002(7) 0.55562(9)
C2 C 0.40261(9) 0.17177(7) 0.46992(9)
C3 C 0.44196(8) 0.11854(7) 0.44286(9)
C4 C 0.50439(8) 0.08737(7) 0.50211(9)
C5 C 0.52409(8) 0.10986(7) 0.58555(9)
C6 C 0.41895(8) 0.09046(7) 0.35398(9)
C7 C 0.36751(8) 0.12049(7) 0.20275(9)
C8 C 0.37958(9) 0.16876(7) 0.14534(10)
C9 C 0.34994(9) 0.15857(7) 0.05807(9)
C10 C 0.30903(8) 0.10045(7) 0.02653(9)
C11 C 0.29820(9) 0.05238(7) 0.08503(10)
C12 C 0.32647(9) 0.06196(8) 0.17277(9)
C13 C 0.27430(8) 0.08973(8) -0.06820(9)
C14 C 0.18318(8) 0.09731(7) -0.09216(9)
C15 C 0.14719(9) 0.15703(7) -0.07840(10)
C16 C 0.06404(9) 0.16478(7) -0.09881(10)
C17 C 0.01483(8) 0.11141(7) -0.13480(9)
C18 C 0.04982(9) 0.05084(7) -0.14691(10)
C19 C 0.13327(9) 0.04426(8) -0.12592(10)
C20 C -0.11322(8) 0.17187(7) -0.18175(9)
C21 C -0.20366(8) 0.16533(7) -0.20166(9)
C22 C -0.25073(9) 0.21172(7) -0.25613(9)
C23 C -0.33384(8) 0.20902(7) -0.27001(9)
C24 C -0.32585(9) 0.11931(7) -0.17999(10)
C25 C -0.24242(9) 0.11796(7) -0.16340(10)
H1 H 0.3972(11) 0.2234(9) 0.5767(12)
H2 H 0.3600(11) 0.1950(10) 0.4318(12)
H3 H 0.3989(11) 0.1750(10) 0.3037(12)
H4 H -0.0951(12) 0.0796(10) -0.1647(12)
H5 H 0.4696(13) 0.2937(12) 0.7150(15)
H6 H 0.5315(11) 0.0524(9) 0.4865(12)
H7 H 0.4787(14) 0.0281(12) 0.7755(15)
H8 H 0.5670(10) 0.0910(8) 0.6267(11)
H9 H 0.4068(11) 0.2063(10) 0.1646(12)
H10 H 0.3600(11) 0.1921(10) 0.0200(13)
H12 H 0.2701(12) 0.0126(10) 0.0651(13)
H13 H 0.3160(11) 0.0303(9) 0.2119(12)
H14 H 0.2877(11) 0.0448(10) -0.0839(12)
H15 H 0.2986(11) 0.1212(9) -0.0987(12)
H16 H 0.1814(12) 0.1925(10) -0.0539(12)
H17 H 0.0402(11) 0.2063(10) -0.0868(12)
H18 H 0.0175(13) 0.0152(11) -0.1692(13)
H19 H 0.1566(12) 0.0020(11) -0.1311(13)
H20 H -0.2273(12) 0.2447(10) -0.2830(13)
H21 H -0.3675(11) 0.2385(9) -0.3065(12)
H22 H -0.3541(10) 0.0878(9) -0.1547(11)
H23 H -0.2137(12) 0.0867(10) -0.1256(14)
Zn1_2 Zn -0.5000 0.166739(11) -0.2500
Zn1_3 Zn 1.5000 0.166739(11) 1.7500
O1_2 O 1.42415(7) 0.02975(5) 1.34372(7)
O2_2 O 0.91707(6) 0.22672(5) 0.81381(7)
N1_2 N 1.48416(7) 0.15926(6) 1.61349(8)
N1A N 0.51584(7) 0.15926(6) 0.88651(8)
N2_2 N 1.39492(7) 0.13506(6) 1.29118(8)
N3_2 N 0.92931(7) 0.11571(6) 0.84198(8)
N4_2 N 0.62841(7) 0.16387(6) 0.76757(8)
N4A N 0.37159(7) 0.16387(6) 0.73243(8)
C1_2 C 1.42485(9) 0.19002(7) 1.55562(9)
C2_2 C 1.40261(9) 0.17177(7) 1.46992(9)
C3_2 C 1.44196(8) 0.11854(7) 1.44286(9)
C4_2 C 1.50439(8) 0.08737(7) 1.50211(9)
C5_2 C 1.52409(8) 0.10986(7) 1.58555(9)
C6_2 C 1.41895(8) 0.09046(7) 1.35398(9)
C7_2 C 1.36751(8) 0.12049(7) 1.20275(9)
C8_2 C 1.37958(9) 0.16876(7) 1.14534(10)
C9_2 C 1.34994(9) 0.15857(7) 1.05807(9)
C10_2 C 1.30903(8) 0.10045(7) 1.02653(9)
C11_2 C 1.29820(9) 0.05238(7) 1.08503(10)
C12_2 C 1.32647(9) 0.06196(8) 1.17277(9)
C13_2 C 1.27430(8) 0.08973(8) 0.93180(9)
C14_2 C 1.18318(8) 0.09731(7) 0.90784(9)
C15_2 C 1.14719(9) 0.15703(7) 0.92160(10)
C16_2 C 1.06404(9) 0.16478(7) 0.90119(10)
C17_2 C 1.01483(8) 0.11141(7) 0.86520(9)
C18_2 C 1.04982(9) 0.05084(7) 0.85309(10)
C19_2 C 1.13327(9) 0.04426(8) 0.87408(10)
C20_2 C 0.88678(8) 0.17187(7) 0.81825(9)
C21_2 C 0.79634(8) 0.16533(7) 0.79834(9)
C22_2 C 0.74927(9) 0.21172(7) 0.74387(9)
C23_2 C 0.66616(8) 0.20902(7) 0.72999(9)
C24_2 C 0.67415(9) 0.11931(7) 0.82001(10)
C25_2 C 0.75758(9) 0.11796(7) 0.83660(10)
H1_2 H 1.3972(11) 0.2234(9) 1.5767(12)
H2_2 H 1.3600(11) 0.1950(10) 1.4318(12)
H3_2 H 1.3989(11) 0.1750(10) 1.3037(12)
H4_2 H 0.9049(12) 0.0796(10) 0.8353(12)
H5A H 0.5304(13) 0.2937(12) 0.7850(15)
H6_2 H 1.5315(11) 0.0524(9) 1.4865(12)
H7A H 0.5213(14) 0.0281(12) 0.7245(15)
H8_2 H 1.5670(10) 0.0910(8) 1.6267(11)
H9_2 H 1.4068(11) 0.2063(10) 1.1646(12)
H10_2 H 1.3600(11) 0.1921(10) 1.0200(13)
H12_2 H 1.2701(12) 0.0126(10) 1.0651(13)
H13_2 H 1.3160(11) 0.0303(9) 1.2119(12)
H14_2 H 1.2877(11) 0.0448(10) 0.9161(12)
H15_2 H 1.2986(11) 0.1212(9) 0.9013(12)
H16_2 H 1.1814(12) 0.1925(10) 0.9461(12)
H17_2 H 1.0402(11) 0.2063(10) 0.9132(12)
H18_2 H 1.0175(13) 0.0152(11) 0.8308(13)
H19_2 H 1.1566(12) 0.0020(11) 0.8689(13)
H20_2 H 0.7727(12) 0.2447(10) 0.7170(13)
H21_2 H 0.6325(11) 0.2385(9) 0.6935(12)
H22_2 H 0.6459(10) 0.0878(9) 0.8453(11)
H23_2 H 0.7863(12) 0.0867(10) 0.8744(14)
Cl1 Cl 0.18251(2) 0.138738(18) 0.38280(2)
O5 O 0.20850(8) 0.20670(6) 0.39618(9)
O6 O 0.21078(11) 0.11148(9) 0.31337(11)
O7 O 0.09557(8) 0.13618(8) 0.36134(11)
O8 O 0.21399(11) 0.10029(7) 0.45755(10)
O9 O 0.13177(8) 0.02141(6) 0.17380(8)
C26 C 0.09890(13) 0.06793(11) 0.10739(14)
H11 H 0.1494(18) 0.0429(15) 0.219(2)
H24 H 0.1411(19) 0.1009(15) 0.104(2)
H25 H 0.0889(18) 0.0328(15) 0.057(2)
H26 H 0.0552(18) 0.0943(15) 0.1165(18)
loop_
_geom_bond_atom_site_label_1
_geom_bond_atom_site_label_2
_geom_bond_site_symmetry_1
_geom_bond_site_symmetry_2
Zn1 O3 1_555 1_555
Cl1 O5 1_555 1_555
O1 C6 1_555 1_555
O2 C20 1_555 1_555
O3 H5 1_555 1_555
O4 Zn1 1_555 1_555
O6 Cl1 1_555 1_555
O7 Cl1 1_555 1_555
O8 Cl1 1_555 1_555
O9 C26 1_555 1_555
N1 Zn1 1_555 1_555
N2 C6 1_555 1_555
N3 C17 1_555 1_555
N4 C23 1_555 1_555
C1 N1 1_555 1_555
C2 C1 1_555 1_555
C3 C2 1_555 1_555
C4 C3 1_555 1_555
C5 N1 1_555 1_555
C6 C3 1_555 1_555
C7 N2 1_555 1_555
C8 C7 1_555 1_555
C9 C8 1_555 1_555
C10 C9 1_555 1_555
C11 C10 1_555 1_555
C12 C7 1_555 1_555
C13 C10 1_555 1_555
C14 C13 1_555 1_555
C15 C14 1_555 1_555
C16 C15 1_555 1_555
C17 C16 1_555 1_555
C18 C17 1_555 1_555
C19 C14 1_555 1_555
C20 N3 1_555 1_555
C21 C20 1_555 1_555
C22 C21 1_555 1_555
C23 C22 1_555 1_555
C24 N4 1_555 1_555
C25 C21 1_555 1_555
C26 H24 1_555 1_555
H1 C1 1_555 1_555
H2 C2 1_555 1_555
H3 N2 1_555 1_555
H4 N3 1_555 1_555
H6 C4 1_555 1_555
H7 O4 1_555 1_555
H8 C5 1_555 1_555
H9 C8 1_555 1_555
H10 C9 1_555 1_555
H11 O9 1_555 1_555
H12 C11 1_555 1_555
H13 C12 1_555 1_555
H14 C13 1_555 1_555
H15 C13 1_555 1_555
H16 C15 1_555 1_555
H17 C16 1_555 1_555
H18 C18 1_555 1_555
H19 C19 1_555 1_555
H20 C22 1_555 1_555
H21 C23 1_555 1_555
H22 C24 1_555 1_555
H23 C25 1_555 1_555
H25 C26 1_555 1_555
H26 C26 1_555 1_555
Zn1_2 N4 1_555 1_555
Zn1_3 N1_2 1_555 1_555
O1_2 C6_2 1_555 1_555
O2_2 C20_2 1_555 1_555
N1_2 C1_2 1_555 1_555
N1A Zn1 1_555 1_555
N2_2 C6_2 1_555 1_555
N3_2 C17_2 1_555 1_555
N4_2 Zn1 1_555 1_555
N4A Zn1 1_555 1_555
C1_2 C2_2 1_555 1_555
C2_2 C3_2 1_555 1_555
C3_2 C4_2 1_555 1_555
C4_2 C5_2 1_555 1_555
C5_2 N1_2 1_555 1_555
C6_2 C3_2 1_555 1_555
C7_2 N2_2 1_555 1_555
C8_2 C7_2 1_555 1_555
C9_2 C8_2 1_555 1_555
C10_2 C9_2 1_555 1_555
C11_2 C10_2 1_555 1_555
C12_2 C7_2 1_555 1_555
C13_2 C10_2 1_555 1_555
C14_2 C13_2 1_555 1_555
C15_2 C14_2 1_555 1_555
C16_2 C15_2 1_555 1_555
C17_2 C16_2 1_555 1_555
C18_2 C17_2 1_555 1_555
C19_2 C14_2 1_555 1_555
C20_2 N3_2 1_555 1_555
C21_2 C20_2 1_555 1_555
C22_2 C21_2 1_555 1_555
C23_2 N4_2 1_555 1_555
C24_2 N4_2 1_555 1_555
C25_2 C21_2 1_555 1_555
H1_2 C1_2 1_555 1_555
H2_2 C2_2 1_555 1_555
H3_2 N2_2 1_555 1_555
H4_2 N3_2 1_555 1_555
H5A O3 1_555 1_555
H6_2 C4_2 1_555 1_555
H7A O4 1_555 1_555
H8_2 C5_2 1_555 1_555
H9_2 C8_2 1_555 1_555
H10_2 C9_2 1_555 1_555
H12_2 C11_2 1_555 1_555
H13_2 C12_2 1_555 1_555
H14_2 C13_2 1_555 1_555
H15_2 C13_2 1_555 1_555
H16_2 C15_2 1_555 1_555
H17_2 C16_2 1_555 1_555
H18_2 C18_2 1_555 1_555
H19_2 C19_2 1_555 1_555
H20_2 C22_2 1_555 1_555
H21_2 C23_2 1_555 1_555
H22_2 C24_2 1_555 1_555
H23_2 C25_2 1_555 1_555
C4 C5 1_555 1_555
C11 C12 1_555 1_555
C18 C19 1_555 1_555
C24 C25 1_555 1_555
C11_2 C12_2 1_555 1_555
C18_2 C19_2 1_555 1_555
C22_2 C23_2 1_555 1_555
C24_2 C25_2 1_555 1_555

#END
