
#######################################################################
#
#                 Cambridge Crystallographic Data Centre
#                                CCDC 
#
#######################################################################
#
# If this CIF has been generated from an entry in the Cambridge 
# Structural Database, then it will include bibliographic, chemical, 
# crystal, experimental, refinement or atomic coordinate data resulting 
# from the CCDC's data processing and validation procedures.
#
#######################################################################

data_MEBLUA
_symmetry_cell_setting           orthorhombic
_symmetry_space_group_name_H-M   'P 21 21 21'
_symmetry_Int_Tables_number      19
_space_group_name_Hall           'P 2ac 2ab'
loop_
_symmetry_equiv_pos_site_id
_symmetry_equiv_pos_as_xyz
1 x,y,z
2 1/2-x,-y,1/2+z
3 1/2+x,1/2-y,-z
4 -x,1/2+y,1/2-z
_cell_length_a                   5.9630(10)
_cell_length_b                   12.633(3)
_cell_length_c                   17.556(4)
_cell_angle_alpha                90
_cell_angle_beta                 90
_cell_angle_gamma                90
_cell_volume                     1322.5
loop_
_atom_site_label
_atom_site_type_symbol
_atom_site_fract_x
_atom_site_fract_y
_atom_site_fract_z
Ag1 Ag 0.8124(1) 0.1625(1) -0.0244(1)
N1 N 0.5459(6) 0.1695(3) 0.2776(2)
N2 N 0.8452(7) 0.2254(3) 0.0985(2)
N3 N 0.3564(6) 0.0923(3) 0.1707(2)
C1 C 0.5010(7) 0.1390(3) 0.1183(2)
C2 C 0.6999(8) 0.2121(3) 0.2315(2)
C3 C 0.6883(8) 0.1969(3) 0.1501(2)
O1 O 0.4643(7) 0.1284(3) 0.0499(2)
C4 C 0.1744(9) 0.0264(4) 0.1426(2)
N4 N 0.8597(7) 0.2675(3) 0.2639(2)
C5 C 0.3840(7) 0.1096(3) 0.2479(2)
N5 N 0.2404(6) 0.0642(3) 0.2953(2)
C6 C 0.2468(7) 0.0871(3) 0.3766(2)
C7 C 0.0272(7) 0.0476(4) 0.4115(3)
O2 O 0.5091(6) 0.0797(3) 0.4780(2)
O3 O 0.5125(6) -0.0534(3) 0.3935(2)
C8 C 0.4433(7) 0.0331(3) 0.4191(2)
O4 O 1.0172(6) 0.2759(3) 0.1220(2)
H1 H 0.0884(9) -0.0002(4) 0.1847(2)
H2 H 0.0792(9) 0.0676(4) 0.1100(2)
H3 H 0.2359(9) -0.0319(4) 0.1144(2)
H4 H 0.9671(7) 0.2976(3) 0.2351(2)
H5 H 0.8618(7) 0.2756(3) 0.3148(2)
H6 H 0.1373(6) 0.0188(3) 0.2770(2)
H7 H 0.2573(7) 0.1623(3) 0.3836(2)
H8 H -0.0960(7) 0.0804(4) 0.3855(3)
H9 H 0.0167(7) -0.0279(4) 0.4063(3)
H10 H 0.0224(7) 0.0662(4) 0.4645(3)
O4B O 0.5172(6) 0.2241(3) -0.1220(2)
O3A O 0.9875(6) 0.0534(3) -0.1065(2)
Ag1B Ag 1.3124(1) 0.3375(1) 0.0244(1)
Ag1A Ag 0.6876(1) -0.1625(1) 0.4756(1)
O5 O 0.6951(7) 0.0634(3) 0.7593(2)
H11 H 0.6768(7) -0.0084(3) 0.7762(2)
H12 H 0.7512(7) 0.1058(3) 0.8006(2)
O6 O 0.8011(9) 0.1111(5) 0.6087(2)
H13 H 0.8362(9) 0.1853(5) 0.6084(2)
H14 H 0.9340(9) 0.0711(5) 0.5977(2)
O7 O 0.2252(7) 0.2111(3) 0.5677(2)
H15 H 0.1908(7) 0.1928(3) 0.6195(2)
H16 H 0.2316(7) 0.2868(3) 0.5628(2)
loop_
_geom_bond_atom_site_label_1
_geom_bond_atom_site_label_2
_geom_bond_site_symmetry_1
_geom_bond_site_symmetry_2
Ag1 N2 1_555 1_555
N1 C2 1_555 1_555
N2 C3 1_555 1_555
N3 C1 1_555 1_555
C1 C3 1_555 1_555
C2 C3 1_555 1_555
O1 Ag1 1_555 1_555
C4 N3 1_555 1_555
N4 C2 1_555 1_555
C5 N1 1_555 1_555
N5 C5 1_555 1_555
C6 N5 1_555 1_555
C7 C6 1_555 1_555
O2 C8 1_555 1_555
O3 C8 1_555 1_555
C8 C6 1_555 1_555
O4 N2 1_555 1_555
O5 H11 1_555 1_555
O6 H13 1_555 1_555
O7 H15 1_555 1_555
H1 C4 1_555 1_555
H2 C4 1_555 1_555
H3 C4 1_555 1_555
H4 N4 1_555 1_555
H5 N4 1_555 1_555
H6 N5 1_555 1_555
H7 C6 1_555 1_555
H8 C7 1_555 1_555
H9 C7 1_555 1_555
H10 C7 1_555 1_555
H12 O5 1_555 1_555
H14 O6 1_555 1_555
H16 O7 1_555 1_555
O4B Ag1 1_555 1_555
O3A Ag1 1_555 1_555
Ag1B O4 1_555 1_555
Ag1A O3 1_555 1_555
N3 C5 1_555 1_555
C1 O1 1_555 1_555

#END
