
#######################################################################
#
#                 Cambridge Crystallographic Data Centre
#                                CCDC 
#
#######################################################################
#
# If this CIF has been generated from an entry in the Cambridge 
# Structural Database, then it will include bibliographic, chemical, 
# crystal, experimental, refinement or atomic coordinate data resulting 
# from the CCDC's data processing and validation procedures.
#
#######################################################################

data_MEBYOH
_symmetry_cell_setting           monoclinic
_symmetry_space_group_name_H-M   'P 1 1 21/n'
_symmetry_Int_Tables_number      14
_space_group_name_Hall           '-P 2n'
loop_
_symmetry_equiv_pos_site_id
_symmetry_equiv_pos_as_xyz
1 x,y,z
2 1/2-x,1/2-y,1/2+z
3 -x,-y,-z
4 1/2+x,1/2+y,1/2-z
_cell_length_a                   12.395(4)
_cell_length_b                   10.466(3)
_cell_length_c                   7.194(2)
_cell_angle_alpha                90
_cell_angle_beta                 90
_cell_angle_gamma                90.48(2)
_cell_volume                     933.217
loop_
_atom_site_label
_atom_site_type_symbol
_atom_site_fract_x
_atom_site_fract_y
_atom_site_fract_z
N1 N -0.1635(4) 0.3654(5) -0.197(1)
N2 N -0.1439(4) 0.2410(5) -0.2174(9)
N3 N -0.0417(4) 0.2286(4) -0.262(1)
C1 C -0.0735(4) 0.4354(6) -0.222(1)
C2 C -0.0534(5) 0.5689(6) -0.212(1)
C3 C 0.0504(5) 0.6029(6) -0.248(1)
C4 C 0.1325(5) 0.5172(6) -0.292(1)
C5 C 0.1100(5) 0.3894(7) -0.306(1)
C6 C 0.0048(5) 0.3474(6) -0.271(1)
C7 C -0.2721(5) 0.4091(6) -0.143(1)
C8 C -0.3321(5) 0.4613(6) -0.302(1)
C9 C -0.3271(6) 0.5856(8) -0.358(1)
H1 H -0.113(4) 0.641(5) -0.177(8)
H2 H 0.066(5) 0.681(6) -0.253(9)
H3 H 0.206(4) 0.547(6) -0.307(9)
H4 H 0.158(4) 0.327(5) -0.341(9)
H5 H -0.306(4) 0.332(5) -0.074(9)
H6 H -0.265(3) 0.476(4) -0.042(8)
H7 H -0.354(4) 0.414(5) -0.375(9)
H8 H -0.269(4) 0.644(5) -0.253(8)
H9 H -0.349(4) 0.606(5) -0.445(9)
Cu1 Cu -0.46790(6) 0.55965(8) -0.2081(2)
Cl1 Cl -0.5883(1) 0.3990(2) -0.1457(4)
Cu1C Cu 0.03210(6) 0.05965(8) -0.2919(2)
N3C N -0.5417(4) 0.7286(4) -0.238(1)
Cl1B Cl -0.4117(1) 0.6010(2) 0.1457(4)
Cu1B Cu -0.53210(6) 0.44035(8) 0.2081(2)
loop_
_geom_bond_atom_site_label_1
_geom_bond_atom_site_label_2
_geom_bond_site_symmetry_1
_geom_bond_site_symmetry_2
N1 N2 1_555 1_555
N2 N3 1_555 1_555
N3 C6 1_555 1_555
C1 N1 1_555 1_555
C2 C1 1_555 1_555
C3 C2 1_555 1_555
C4 C3 1_555 1_555
C5 C4 1_555 1_555
C6 C1 1_555 1_555
C7 N1 1_555 1_555
C8 C7 1_555 1_555
C9 C8 1_555 1_555
H1 C2 1_555 1_555
H2 C3 1_555 1_555
H3 C4 1_555 1_555
H4 C5 1_555 1_555
H5 C7 1_555 1_555
H6 C7 1_555 1_555
H7 C8 1_555 1_555
H8 C9 1_555 1_555
H9 C9 1_555 1_555
Cu1 C8 1_555 1_555
Cl1 Cu1 1_555 1_555
Cu1C N3 1_555 1_555
N3C Cu1 1_555 1_555
Cl1B Cu1 1_555 1_555
Cu1B Cl1 1_555 1_555
C5 C6 1_555 1_555
C9 Cu1 1_555 1_555
Cl1B Cu1B 1_555 1_555

#END
