
#######################################################################
#
#                 Cambridge Crystallographic Data Centre
#                                CCDC 
#
#######################################################################
#
# If this CIF has been generated from an entry in the Cambridge 
# Structural Database, then it will include bibliographic, chemical, 
# crystal, experimental, refinement or atomic coordinate data resulting 
# from the CCDC's data processing and validation procedures.
#
#######################################################################

data_MECCEE
_symmetry_cell_setting           triclinic
_symmetry_space_group_name_H-M   'P -1'
_symmetry_Int_Tables_number      2
_space_group_name_Hall           '-P 1'
loop_
_symmetry_equiv_pos_site_id
_symmetry_equiv_pos_as_xyz
1 x,y,z
2 -x,-y,-z
_cell_length_a                   9.1872(11)
_cell_length_b                   10.5944(13)
_cell_length_c                   13.0421(15)
_cell_angle_alpha                66.457(2)
_cell_angle_beta                 85.946(2)
_cell_angle_gamma                78.624(2)
_cell_volume                     1140.85
loop_
_atom_site_label
_atom_site_type_symbol
_atom_site_fract_x
_atom_site_fract_y
_atom_site_fract_z
Ce1 Ce 0.72228(2) 0.002372(18) 0.033529(15)
C1 C 0.9968(4) 0.0589(4) 0.1637(3)
C2 C 1.0510(4) 0.0946(4) 0.2527(3)
C3 C 0.9521(5) 0.1424(6) 0.3233(4)
H1 H 0.8502 0.1571 0.3122
C4 C 1.0041(6) 0.1670(7) 0.4068(5)
H2 H 0.9367 0.1991 0.4516
C5 C 1.1587(5) 0.1453(6) 0.4280(4)
C6 C 1.1985(5) 0.0797(4) 0.2705(3)
H3 H 1.2663 0.0518 0.2238
C7 C 0.5171(4) -0.1497(4) 0.2209(3)
C8 C 0.4384(4) -0.2299(4) 0.3237(3)
C9 C 0.3037(4) -0.2589(4) 0.3176(3)
H4 H 0.2572 -0.2251 0.2482
C10 C 0.2955(5) -0.3906(4) 0.5162(3)
C11 C 0.4332(5) -0.3534(5) 0.5240(3)
H5 H 0.4771 -0.3821 0.5937
C12 C 0.5015(5) -0.2766(5) 0.4309(3)
H6 H 0.5921 -0.2542 0.4379
C13 C 0.7437(4) -0.6357(4) -0.0783(3)
C14 C 0.8324(5) -0.5829(5) -0.0260(4)
H7 H 0.9231 -0.6366 0.0061
C15 C 0.5661(4) -0.4210(4) -0.1214(3)
H8 H 0.4755 -0.3677 -0.1539
C16 C 0.6497(4) -0.3711(4) -0.0692(3)
C17 C 0.5911(4) -0.2362(4) -0.0544(3)
C18 C 0.7871(5) -0.4553(4) -0.0220(4)
H9 H 0.8476 -0.4225 0.0123
N1 N 0.6141(4) -0.5476(3) -0.1262(3)
N2 N 1.2493(4) 0.1044(4) 0.3541(3)
N3 N 0.2343(4) -0.3360(4) 0.4097(3)
O4 O 0.9141(3) -0.2158(3) 0.1419(2)
H15 H 0.8794 -0.2795 0.1330
H16 H 0.9994 -0.2137 0.1122
O5 O 0.6775(3) -0.1986(3) -0.0061(2)
O6 O 0.4622(3) -0.1739(3) -0.0877(2)
O7 O 0.7779(3) -0.7536(3) -0.0842(2)
O8 O 0.4496(3) -0.0981(3) 0.1267(2)
O9 O 0.6459(3) -0.1349(3) 0.2300(2)
O10 O 0.2253(3) -0.4665(3) 0.5945(2)
O11 O 0.8601(3) 0.0702(3) 0.1551(2)
O12 O 1.0925(3) 0.0173(3) 0.1039(2)
O13 O 1.2162(4) 0.1580(5) 0.5067(3)
H17 H 1.332(8) 0.083(7) 0.367(6)
H18 H 0.154(8) -0.355(7) 0.404(6)
H20 H 0.559(5) -0.576(5) -0.157(4)
Ce1A Ce 0.27772(2) -0.002372(18) -0.033529(15)
Ce1_2 Ce 0.72228(2) -0.997628(18) 0.033529(15)
Ce1A_2 Ce 1.27772(2) -0.002372(18) -0.033529(15)
O6A O 0.5378(3) 0.1739(3) 0.0877(2)
O7_2 O 0.7779(3) 0.2464(3) -0.0842(2)
O8A O 0.5504(3) 0.0981(3) -0.1267(2)
O12A O 0.9075(3) -0.0173(3) -0.1039(2)
O1 O 0.0640(3) 0.3264(3) 0.6216(3)
H10 H 0.0969 0.2593 0.6012
H11 H 0.0689 0.2935 0.6926
O2 O 0.5636(4) 0.0789(5) 0.3434(4)
H12 H 0.5940 0.0012 0.3372
H19 H 0.652(9) 0.047(8) 0.372(6)
O3 O 0.6471(4) 0.5662(3) 0.2029(3)
H13 H 0.6655 0.6421 0.1525
H14 H 0.6695 0.5643 0.2657
loop_
_geom_bond_atom_site_label_1
_geom_bond_atom_site_label_2
_geom_bond_site_symmetry_1
_geom_bond_site_symmetry_2
Ce1 O4 1_555 1_555
C1 C2 1_555 1_555
C2 C3 1_555 1_555
C3 H1 1_555 1_555
C4 C3 1_555 1_555
H2 C4 1_555 1_555
C5 C4 1_555 1_555
C6 C2 1_555 1_555
H3 C6 1_555 1_555
C7 C8 1_555 1_555
C8 C9 1_555 1_555
C9 H4 1_555 1_555
C10 C11 1_555 1_555
C11 H5 1_555 1_555
C12 C8 1_555 1_555
H6 C12 1_555 1_555
C13 C14 1_555 1_555
C14 H7 1_555 1_555
C15 H8 1_555 1_555
C16 C15 1_555 1_555
C17 C16 1_555 1_555
C18 C14 1_555 1_555
H9 C18 1_555 1_555
N1 C13 1_555 1_555
N2 C5 1_555 1_555
N3 C9 1_555 1_555
O1 H10 1_555 1_555
H11 O1 1_555 1_555
O2 H12 1_555 1_555
O3 H13 1_555 1_555
H14 O3 1_555 1_555
O4 H15 1_555 1_555
H16 O4 1_555 1_555
O5 Ce1 1_555 1_555
O6 C17 1_555 1_555
O7 C13 1_555 1_555
O8 Ce1 1_555 1_555
O9 Ce1 1_555 1_555
O10 C10 1_555 1_555
O11 Ce1 1_555 1_555
O12 C1 1_555 1_555
O13 C5 1_555 1_555
H17 N2 1_555 1_555
H18 N3 1_555 1_555
H19 O2 1_555 1_555
H20 N1 1_555 1_555
Ce1A O6 1_555 1_555
Ce1_2 O7 1_555 1_555
Ce1A_2 O12 1_555 1_555
O6A Ce1 1_555 1_555
O7_2 Ce1 1_555 1_555
O8A Ce1 1_555 1_555
O12A Ce1 1_555 1_555
C1 O11 1_555 1_555
C6 N2 1_555 1_555
C7 O8 1_555 1_555
C7 O9 1_555 1_555
C10 N3 1_555 1_555
C11 C12 1_555 1_555
C15 N1 1_555 1_555
C16 C18 1_555 1_555
C17 O5 1_555 1_555
O8 Ce1A 1_555 1_555
Ce1A O8A 1_555 1_555

#END
