
#######################################################################
#
#                 Cambridge Crystallographic Data Centre
#                                CCDC 
#
#######################################################################
#
# If this CIF has been generated from an entry in the Cambridge 
# Structural Database, then it will include bibliographic, chemical, 
# crystal, experimental, refinement or atomic coordinate data resulting 
# from the CCDC's data processing and validation procedures.
#
#######################################################################

data_MEDJIQ
_symmetry_cell_setting           triclinic
_symmetry_space_group_name_H-M   'P -1'
_symmetry_Int_Tables_number      2
_space_group_name_Hall           '-P 1'
loop_
_symmetry_equiv_pos_site_id
_symmetry_equiv_pos_as_xyz
1 x,y,z
2 -x,-y,-z
_cell_length_a                   7.1560(5)
_cell_length_b                   9.8692(6)
_cell_length_c                   12.9585(8)
_cell_angle_alpha                95.8530(10)
_cell_angle_beta                 90.5440(10)
_cell_angle_gamma                95.6430(10)
_cell_volume                     905.822
loop_
_atom_site_label
_atom_site_type_symbol
_atom_site_fract_x
_atom_site_fract_y
_atom_site_fract_z
Na1 Na 0.63906(13) 0.64665(10) 0.05549(7)
Cu1 Cu 0.81668(4) 0.49559(2) 0.246359(19)
S1 S 1.17897(8) 0.95225(6) 0.20643(5)
O1 O 0.9098(2) 0.65127(15) 0.16923(12)
O2 O 1.1698(2) 0.60962(17) 0.24859(13)
O3 O 1.1190(2) 0.63830(16) -0.13295(12)
O4 O 1.3196(2) 0.59098(17) -0.01191(13)
O5 O 1.3305(3) 1.04046(17) 0.16576(16)
O6 O 1.2095(4) 0.9343(2) 0.31395(15)
O7 O 0.9968(3) 0.9934(2) 0.1843(2)
O8 O 0.5138(2) 0.52714(19) 0.20275(14)
H1 H 0.460(4) 0.455(2) 0.178(2)
H2 H 0.433(4) 0.570(3) 0.226(2)
O9 O 0.6444(3) 0.8784(3) 0.1173(3)
H3 H 0.569(6) 0.937(4) 0.120(4)
H4 H 0.755(4) 0.909(5) 0.130(4)
O10 O 0.7298(3) 0.6957(2) -0.11602(16)
H5 H 0.728(5) 0.778(2) -0.119(3)
H6 H 0.837(3) 0.683(4) -0.131(3)
N1 N 0.7477(3) 0.34523(18) 0.33602(14)
N2 N 0.8048(3) 0.60898(18) 0.38449(14)
C1 C 1.0864(3) 0.6747(2) 0.18858(16)
C2 C 1.1978(3) 0.7868(2) 0.13611(16)
H7 H 1.3302 0.7697 0.1403
C3 C 1.1499(3) 0.7881(2) 0.02207(17)
H8 H 1.2155 0.8688 -0.0029
H9 H 1.0161 0.7942 0.0141
C4 C 1.2026(3) 0.6609(2) -0.04387(16)
C5 C 0.7137(4) 0.2119(2) 0.30334(19)
H10 H 0.7210 0.1840 0.2329
C6 C 0.6680(4) 0.1145(3) 0.3707(2)
H11 H 0.6426 0.0227 0.3459
C7 C 0.6608(4) 0.1556(2) 0.4745(2)
H12 H 0.6325 0.0915 0.5213
C8 C 0.6959(3) 0.2932(2) 0.50965(18)
H13 H 0.6925 0.3224 0.5801
C9 C 0.7361(3) 0.3862(2) 0.43834(16)
C10 C 0.7706(3) 0.5357(2) 0.46573(16)
C11 C 0.7681(4) 0.5981(2) 0.56641(18)
H14 H 0.7450 0.5460 0.6217
C12 C 0.8005(4) 0.7388(3) 0.5832(2)
H15 H 0.7988 0.7828 0.6501
C13 C 0.8352(4) 0.8131(3) 0.5005(2)
H16 H 0.8579 0.9080 0.5107
C14 C 0.8359(3) 0.7459(2) 0.40237(19)
H17 H 0.8587 0.7969 0.3465
Na1_2 Na 1.63906(13) 0.64665(10) 0.05549(7)
Na1A Na 1.36094(13) 0.35335(10) -0.05549(7)
Cu1A Cu 1.18332(4) 0.50441(2) -0.246359(19)
O3A O 0.8810(2) 0.36170(16) 0.13295(12)
O4_2 O 0.3196(2) 0.59098(17) -0.01191(13)
O4A O 0.6804(2) 0.40902(17) 0.01191(13)
loop_
_geom_bond_atom_site_label_1
_geom_bond_atom_site_label_2
_geom_bond_site_symmetry_1
_geom_bond_site_symmetry_2
Na1 O1 1_555 1_555
Cu1 O1 1_555 1_555
S1 O5 1_555 1_555
O1 C1 1_555 1_555
O2 C1 1_555 1_555
O3 C4 1_555 1_555
O4 C4 1_555 1_555
O6 S1 1_555 1_555
O7 S1 1_555 1_555
O8 Na1 1_555 1_555
H1 O8 1_555 1_555
H2 O8 1_555 1_555
O9 Na1 1_555 1_555
H3 O9 1_555 1_555
H4 O9 1_555 1_555
O10 Na1 1_555 1_555
H5 O10 1_555 1_555
H6 O10 1_555 1_555
N1 Cu1 1_555 1_555
N2 Cu1 1_555 1_555
C1 C2 1_555 1_555
C2 S1 1_555 1_555
H7 C2 1_555 1_555
C3 C2 1_555 1_555
H8 C3 1_555 1_555
H9 C3 1_555 1_555
C4 C3 1_555 1_555
C5 N1 1_555 1_555
H10 C5 1_555 1_555
C6 C5 1_555 1_555
H11 C6 1_555 1_555
C7 C6 1_555 1_555
H12 C7 1_555 1_555
C8 C7 1_555 1_555
H13 C8 1_555 1_555
C9 N1 1_555 1_555
C10 N2 1_555 1_555
C11 C10 1_555 1_555
H14 C11 1_555 1_555
C12 C11 1_555 1_555
H15 C12 1_555 1_555
C13 C12 1_555 1_555
H16 C13 1_555 1_555
C14 N2 1_555 1_555
H17 C14 1_555 1_555
Na1_2 O4 1_555 1_555
Na1A O4 1_555 1_555
Cu1A O3 1_555 1_555
O3A Cu1 1_555 1_555
O4_2 Na1 1_555 1_555
O4A Na1 1_555 1_555
Cu1 O8 1_555 1_555
C8 C9 1_555 1_555
C9 C10 1_555 1_555
C13 C14 1_555 1_555

#END
