
#######################################################################
#
#                 Cambridge Crystallographic Data Centre
#                                CCDC 
#
#######################################################################
#
# If this CIF has been generated from an entry in the Cambridge 
# Structural Database, then it will include bibliographic, chemical, 
# crystal, experimental, refinement or atomic coordinate data resulting 
# from the CCDC's data processing and validation procedures.
#
#######################################################################

data_MEDLAK
_symmetry_cell_setting           orthorhombic
_symmetry_space_group_name_H-M   'P b c a'
_symmetry_Int_Tables_number      61
_space_group_name_Hall           '-P 2ac 2ab'
loop_
_symmetry_equiv_pos_site_id
_symmetry_equiv_pos_as_xyz
1 x,y,z
2 1/2-x,-y,1/2+z
3 -x,1/2+y,1/2-z
4 1/2+x,1/2-y,-z
5 -x,-y,-z
6 1/2+x,y,1/2-z
7 x,1/2-y,1/2+z
8 1/2-x,1/2+y,z
_cell_length_a                   22.1562(2)
_cell_length_b                   6.9556(7)
_cell_length_c                   25.0366(5)
_cell_angle_alpha                90
_cell_angle_beta                 90
_cell_angle_gamma                90
_cell_volume                     3858.38
loop_
_atom_site_label
_atom_site_type_symbol
_atom_site_fract_x
_atom_site_fract_y
_atom_site_fract_z
Ag1 Ag 0.61643(4) 0.57842(13) 0.65672(3)
Ag2 Ag 0.73427(4) 0.59199(12) 0.59542(3)
Ag3 Ag 0.74726(4) 0.55368(13) 0.71139(3)
Ag4 Ag 0.61174(4) 0.14528(14) 0.70152(4)
S1 S 0.67214(12) 0.8166(4) 0.72588(11)
S2 S 0.67417(12) 0.2968(4) 0.60997(11)
C1 C 0.4973(5) 0.2825(17) 0.6291(4)
H1 H 0.5276 0.3405 0.6062
H2 H 0.4647 0.2383 0.6064
C2 C 0.4734(5) 0.4330(17) 0.6657(5)
H3 H 0.4492 0.5228 0.6452
H4 H 0.4473 0.3729 0.6919
C3 C 0.6730(5) 0.7783(16) 0.7973(4)
C4 C 0.6525(5) 0.6025(16) 0.8191(4)
C5 C 0.6540(5) 0.5820(17) 0.8754(4)
H5 H 0.6402 0.4685 0.8908
C6 C 0.6753(5) 0.726(2) 0.9077(5)
H6 H 0.6773 0.7085 0.9445
C7 C 0.6939(5) 0.8983(18) 0.8852(5)
H7 H 0.7070 0.9977 0.9072
C8 C 0.6931(5) 0.9240(17) 0.8303(4)
H8 H 0.7061 1.0396 0.8157
C9 C 0.6293(5) 0.4385(16) 0.7879(4)
C10 C 0.6315(5) 0.2696(17) 0.5497(4)
C11 C 0.6116(5) 0.4255(15) 0.5207(4)
H9 H 0.6244 0.5481 0.5303
C12 C 0.5732(6) 0.4036(18) 0.4779(5)
H10 H 0.5607 0.5110 0.4588
C13 C 0.5533(5) 0.2230(18) 0.4633(4)
H11 H 0.5270 0.2093 0.4346
C14 C 0.5725(5) 0.0613(17) 0.4915(4)
H12 H 0.5593 -0.0612 0.4823
C15 C 0.6125(5) 0.0890(15) 0.5343(4)
C16 C 0.6339(5) -0.0938(17) 0.5635(5)
N1 N 0.5246(4) 0.1131(14) 0.6561(3)
H13 H 0.5305 0.0223 0.6310
H14 H 0.4969 0.0664 0.6790
N2 N 0.5216(4) 0.5400(14) 0.6937(4)
H15 H 0.5268 0.4829 0.7256
H16 H 0.5072 0.6586 0.7002
O1 O 0.5762(3) 0.3827(12) 0.7951(3)
O2 O 0.6647(3) 0.3566(11) 0.7549(3)
O3 O 0.5989(4) -0.1657(11) 0.5971(3)
O4 O 0.6855(3) -0.1518(11) 0.5508(3)
Ag1_2 Ag 0.61643(4) -0.42158(13) 0.65672(3)
Ag2G Ag 0.76573(4) 0.09199(12) 0.59542(3)
Ag2_2 Ag 0.73427(4) -0.40801(12) 0.59542(3)
Ag3G Ag 0.75274(4) 1.05368(13) 0.71139(3)
Ag4_2 Ag 0.61174(4) 1.14528(14) 0.70152(4)
S1G S 0.82786(12) 0.3166(4) 0.72588(11)
S1_2 S 0.67214(12) -0.1834(4) 0.72588(11)
S2G S 0.82583(12) 0.7968(4) 0.60997(11)
O3_2 O 0.5989(4) 0.8343(11) 0.5971(3)
O4_2 O 0.6855(3) 0.8482(11) 0.5508(3)
loop_
_geom_bond_atom_site_label_1
_geom_bond_atom_site_label_2
_geom_bond_site_symmetry_1
_geom_bond_site_symmetry_2
Ag1 S1 1_555 1_555
Ag2 S2 1_555 1_555
Ag3 S1 1_555 1_555
Ag4 N1 1_555 1_555
S1 C3 1_555 1_555
S2 Ag1 1_555 1_555
C1 H1 1_555 1_555
H2 C1 1_555 1_555
C2 C1 1_555 1_555
H3 C2 1_555 1_555
H4 C2 1_555 1_555
C3 C4 1_555 1_555
C4 C5 1_555 1_555
C5 H5 1_555 1_555
C6 C5 1_555 1_555
H6 C6 1_555 1_555
C7 C6 1_555 1_555
H7 C7 1_555 1_555
C8 C3 1_555 1_555
H8 C8 1_555 1_555
C9 C4 1_555 1_555
C10 S2 1_555 1_555
C11 C10 1_555 1_555
H9 C11 1_555 1_555
C12 C11 1_555 1_555
H10 C12 1_555 1_555
C13 C12 1_555 1_555
H11 C13 1_555 1_555
C14 C13 1_555 1_555
H12 C14 1_555 1_555
C15 C10 1_555 1_555
C16 C15 1_555 1_555
N1 C1 1_555 1_555
H13 N1 1_555 1_555
H14 N1 1_555 1_555
N2 Ag1 1_555 1_555
H15 N2 1_555 1_555
H16 N2 1_555 1_555
O1 C9 1_555 1_555
O2 Ag4 1_555 1_555
O3 C16 1_555 1_555
O4 C16 1_555 1_555
Ag1_2 O3 1_555 1_555
Ag2G S2 1_555 1_555
Ag2_2 O4 1_555 1_555
Ag3G S1 1_555 1_555
Ag4_2 S1 1_555 1_555
S1G Ag3 1_555 1_555
S1_2 Ag4 1_555 1_555
S2G Ag2 1_555 1_555
O3_2 Ag1 1_555 1_555
O4_2 Ag2 1_555 1_555
C2 N2 1_555 1_555
C7 C8 1_555 1_555
C9 O2 1_555 1_555
C14 C15 1_555 1_555
Ag1_2 S1_2 1_555 1_555

#END
