
#######################################################################
#
#                 Cambridge Crystallographic Data Centre
#                                CCDC 
#
#######################################################################
#
# If this CIF has been generated from an entry in the Cambridge 
# Structural Database, then it will include bibliographic, chemical, 
# crystal, experimental, refinement or atomic coordinate data resulting 
# from the CCDC's data processing and validation procedures.
#
#######################################################################

data_MEDQUI
_symmetry_cell_setting           monoclinic
_symmetry_space_group_name_H-M   'P 21/n'
_symmetry_Int_Tables_number      14
_space_group_name_Hall           '-P 2yn'
loop_
_symmetry_equiv_pos_site_id
_symmetry_equiv_pos_as_xyz
1 x,y,z
2 1/2-x,1/2+y,1/2-z
3 -x,-y,-z
4 1/2+x,1/2-y,1/2+z
_cell_length_a                   9.0068(7)
_cell_length_b                   4.5203(4)
_cell_length_c                   15.6802(12)
_cell_angle_alpha                90
_cell_angle_beta                 106.0750(10)
_cell_angle_gamma                90
_cell_volume                     613.434
loop_
_atom_site_label
_atom_site_type_symbol
_atom_site_fract_x
_atom_site_fract_y
_atom_site_fract_z
Cd1 Cd 0.0000 0.0000 0.5000
N1 N 0.25040(18) -0.1872(4) 0.54652(11)
H1 H 0.241(3) -0.361(7) 0.5662(16)
H2 H 0.274(3) -0.186(6) 0.4964(19)
O1 O 0.43751(16) -0.1967(3) 0.87925(8)
O2 O 0.60731(15) 0.1704(3) 0.91758(7)
C1 C 0.3653(2) -0.0291(3) 0.61124(14)
C2 C 0.38583(19) -0.0853(4) 0.70075(11)
H3 H 0.3258 -0.2279 0.7183
C3 C 0.4964(2) 0.0720(4) 0.76437(11)
C4 C 0.5873(2) 0.2812(4) 0.73843(11)
H4 H 0.6620 0.3845 0.7809
C5 C 0.5668(2) 0.3363(4) 0.64907(11)
H5 H 0.6282 0.4760 0.6315
C6 C 0.4553(2) 0.1841(4) 0.58577(11)
H6 H 0.4406 0.2250 0.5259
C7 C 0.5159(3) 0.0100(3) 0.86134(15)
Cd1C Cd 0.5000 -0.5000 1.0000
Cd1C_2 Cd 0.5000 0.5000 1.0000
Cd1C_3 Cd -0.5000 0.5000 0.0000
Cd1C_4 Cd -0.5000 -0.5000 0.0000
N1B N -0.25040(18) 0.1872(4) 0.45348(11)
H1B H -0.241(3) 0.361(7) 0.4338(16)
H2B H -0.274(3) 0.186(6) 0.5036(19)
O1B O -0.43751(16) 0.1967(3) 0.12075(8)
O1C O -0.06249(16) -0.3033(3) 0.37925(8)
O1A O 0.06249(16) 0.3033(3) 0.62075(8)
O2B O -0.60731(15) -0.1704(3) 0.08242(7)
O2C O 0.10731(15) 0.3296(3) 0.41758(7)
O2A O -0.10731(15) -0.3296(3) 0.58242(7)
C1B C -0.3653(2) 0.0291(3) 0.38876(14)
C2B C -0.38583(19) 0.0853(4) 0.29925(11)
H3B H -0.3258 0.2279 0.2817
C3B C -0.4964(2) -0.0720(4) 0.23563(11)
C4B C -0.5873(2) -0.2812(4) 0.26157(11)
H4B H -0.6620 -0.3845 0.2191
C5B C -0.5668(2) -0.3363(4) 0.35093(11)
H5B H -0.6282 -0.4760 0.3685
C6B C -0.4553(2) -0.1841(4) 0.41423(11)
H6B H -0.4406 -0.2250 0.4741
C7B C -0.5159(3) -0.0100(3) 0.13866(15)
loop_
_geom_bond_atom_site_label_1
_geom_bond_atom_site_label_2
_geom_bond_site_symmetry_1
_geom_bond_site_symmetry_2
Cd1 N1 1_555 1_555
N1 H1 1_555 1_555
H2 N1 1_555 1_555
O1 C7 1_555 1_555
O2 C7 1_555 1_555
C1 N1 1_555 1_555
C2 C1 1_555 1_555
H3 C2 1_555 1_555
C3 C2 1_555 1_555
C4 C3 1_555 1_555
H4 C4 1_555 1_555
C5 C4 1_555 1_555
H5 C5 1_555 1_555
C6 C1 1_555 1_555
H6 C6 1_555 1_555
C7 C3 1_555 1_555
Cd1C O1 1_555 1_555
Cd1C_2 O2 1_555 1_555
Cd1C_3 O1B 1_555 1_555
Cd1C_4 O2B 1_555 1_555
N1B Cd1 1_555 1_555
H1B N1B 1_555 1_555
H2B N1B 1_555 1_555
O1B C7B 1_555 1_555
O1C Cd1 1_555 1_555
O1A Cd1 1_555 1_555
O2B C7B 1_555 1_555
O2C Cd1 1_555 1_555
O2A Cd1 1_555 1_555
C1B N1B 1_555 1_555
C2B C1B 1_555 1_555
H3B C2B 1_555 1_555
C3B C2B 1_555 1_555
C4B C3B 1_555 1_555
H4B C4B 1_555 1_555
C5B C4B 1_555 1_555
H5B C5B 1_555 1_555
C6B C1B 1_555 1_555
H6B C6B 1_555 1_555
C7B C3B 1_555 1_555
C5 C6 1_555 1_555
C5B C6B 1_555 1_555

#END
