
#######################################################################
#
#                 Cambridge Crystallographic Data Centre
#                                CCDC 
#
#######################################################################
#
# If this CIF has been generated from an entry in the Cambridge 
# Structural Database, then it will include bibliographic, chemical, 
# crystal, experimental, refinement or atomic coordinate data resulting 
# from the CCDC's data processing and validation procedures.
#
#######################################################################

data_MEDVUN
_symmetry_cell_setting           triclinic
_symmetry_space_group_name_H-M   'P -1'
_symmetry_Int_Tables_number      2
_space_group_name_Hall           '-P 1'
loop_
_symmetry_equiv_pos_site_id
_symmetry_equiv_pos_as_xyz
1 x,y,z
2 -x,-y,-z
_cell_length_a                   8.777(2)
_cell_length_b                   11.448(3)
_cell_length_c                   12.602(3)
_cell_angle_alpha                109.900(10)
_cell_angle_beta                 107.670(10)
_cell_angle_gamma                93.650(10)
_cell_volume                     1114.58
loop_
_atom_site_label
_atom_site_type_symbol
_atom_site_fract_x
_atom_site_fract_y
_atom_site_fract_z
O1 O 0.6292(2) 0.42297(18) 0.12506(16)
Co2 Co 0.5000 0.5000 0.0000
C8 C 0.1906(3) 0.1700(2) -0.3000(2)
C9 C 0.3350(3) 0.1413(2) -0.2156(2)
C10 C 0.3959(3) 0.0328(3) -0.2486(2)
H8 H 0.3496 -0.0268 -0.3268
C11 C 0.5247(3) 0.0118(3) -0.1681(3)
H9 H 0.5672 -0.0614 -0.1909
C12 C 0.5901(3) 0.1007(3) -0.0530(3)
H10 H 0.6760 0.0867 0.0033
C13 C 0.5287(3) 0.2104(2) -0.0197(2)
C14 C 0.6028(3) 0.3086(3) 0.1077(2)
C15 C 0.4099(3) 0.6323(3) 0.2266(3)
H11 H 0.5151 0.6390 0.2772
C16 C 0.1992(3) 0.5897(3) 0.0714(3)
H12 H 0.1305 0.5594 -0.0085
C17 C 0.1564(4) 0.6508(3) 0.1663(3)
H13 H 0.0547 0.6705 0.1644
C18 C 0.3054(4) 0.7470(3) 0.3912(3)
H14 H 0.3530 0.6986 0.4386
H15 H 0.1973 0.7535 0.3948
C19 C 0.4072(3) 0.8781(3) 0.4468(2)
C20 C 0.3448(3) 0.9765(3) 0.4194(3)
H16 H 0.2399 0.9612 0.3648
C21 C 0.5640(4) 0.9035(3) 0.5279(3)
H17 H 0.6078 0.8384 0.5472
N3 N 0.4025(2) 0.22855(19) -0.10245(18)
N4 N 0.3600(3) 0.5782(2) 0.1096(2)
N5 N 0.2909(3) 0.6782(2) 0.2658(2)
O4 O 0.6384(3) 0.2640(2) 0.18654(18)
O5 O 0.2251(2) 0.22752(19) -0.36068(18)
O6 O 0.0550(2) 0.1289(2) -0.3051(2)
O7 O 0.3389(2) 0.33278(16) -0.07378(16)
O1A O 0.3708(2) 0.57703(18) -0.12506(16)
Co2_2 Co 0.5000 1.5000 1.0000
C8A C 0.8094(3) 0.8300(2) 0.3000(2)
C9A C 0.6650(3) 0.8587(2) 0.2156(2)
C10A C 0.6041(3) 0.9672(3) 0.2486(2)
H8A H 0.6504 1.0268 0.3268
C11A C 0.4753(3) 0.9882(3) 0.1681(3)
H9A H 0.4328 1.0614 0.1909
C12A C 0.4099(3) 0.8993(3) 0.0530(3)
H10A H 0.3240 0.9133 -0.0033
C13A C 0.4713(3) 0.7896(2) 0.0197(2)
C14A C 0.3972(3) 0.6914(3) -0.1077(2)
C15A C 0.5901(3) 1.3677(3) 0.7734(3)
H11A H 0.4849 1.3610 0.7228
C16A C 0.8008(3) 1.4103(3) 0.9286(3)
H12A H 0.8695 1.4406 1.0085
C17A C 0.8436(4) 1.3492(3) 0.8337(3)
H13A H 0.9453 1.3295 0.8356
C18A C 0.6946(4) 1.2530(3) 0.6088(3)
H14A H 0.6470 1.3014 0.5614
H15A H 0.8027 1.2465 0.6052
C19A C 0.5928(3) 1.1219(3) 0.5532(2)
C20A C 0.6552(3) 1.0235(3) 0.5806(3)
H16A H 0.7601 1.0388 0.6352
C21A C 0.4360(4) 1.0965(3) 0.4721(3)
H17A H 0.3922 1.1616 0.4528
N3A N 0.5975(2) 0.77145(19) 0.10245(18)
N4A N 0.6400(3) 1.4218(2) 0.8904(2)
N4A_2 N 0.6400(3) 0.4218(2) -0.1096(2)
N5A N 0.7091(3) 1.3218(2) 0.7342(2)
O4A O 0.3616(3) 0.7360(2) -0.18654(18)
O5A O 0.7749(2) 0.77248(19) 0.36068(18)
O6A O 0.9450(2) 0.8711(2) 0.3051(2)
O7A O 0.6611(2) 0.66722(16) 0.07378(16)
Co1 Co 0.0000 0.5000 0.5000
C1 C 0.0750(4) 0.3766(3) 0.2696(3)
H1 H -0.0324 0.3716 0.2238
C2 C 0.3278(4) 0.3569(3) 0.3175(3)
H2 H 0.4275 0.3368 0.3136
C3 C 0.2938(4) 0.4147(3) 0.4173(3)
H3 H 0.3678 0.4421 0.4954
C4 C 0.1582(5) 0.2634(3) 0.0962(3)
H4 H 0.2616 0.2665 0.0833
H5 H 0.0909 0.3054 0.0497
C5 C 0.0773(3) 0.1268(3) 0.0488(3)
C6 C 0.0274(4) 0.0575(3) -0.0732(3)
H6 H 0.0456 0.0957 -0.1237
C7 C 0.0482(4) 0.0667(3) 0.1218(3)
H7 H 0.0804 0.1112 0.2044
N1 N 0.1339(3) 0.4275(2) 0.3875(2)
N2 N 0.1873(3) 0.3327(2) 0.2227(2)
O2 O 0.1597(3) 0.4487(2) 0.63441(18)
H18 H 0.1237 0.3736 0.6244
H19 H 0.1638 0.4991 0.7031
O3 O 0.1615(2) 0.67723(18) 0.58373(17)
H20 H 0.1278 0.7247 0.5458
H21 H 0.1653 0.7119 0.6560
Co1_2 Co 0.0000 -0.5000 -0.5000
C1A C -0.0750(4) -0.3766(3) -0.2696(3)
H1A H 0.0324 -0.3716 -0.2238
C2A C -0.3278(4) -0.3569(3) -0.3175(3)
H2A H -0.4275 -0.3368 -0.3136
C3A C -0.2938(4) -0.4147(3) -0.4173(3)
H3A H -0.3678 -0.4421 -0.4954
C4A C -0.1582(5) -0.2634(3) -0.0962(3)
H4A H -0.2616 -0.2665 -0.0833
H5A H -0.0909 -0.3054 -0.0497
C5A C -0.0773(3) -0.1268(3) -0.0488(3)
C6A C -0.0274(4) -0.0575(3) 0.0732(3)
H6A H -0.0456 -0.0957 0.1237
C7A C -0.0482(4) -0.0667(3) -0.1218(3)
H7A H -0.0804 -0.1112 -0.2044
N1A N -0.1339(3) -0.4275(2) -0.3875(2)
N1A_2 N -0.1339(3) 0.5725(2) 0.6125(2)
N2A N -0.1873(3) -0.3327(2) -0.2227(2)
O2A O -0.1597(3) 0.5513(2) 0.36559(18)
H18A H -0.1237 0.6264 0.3756
H19A H -0.1638 0.5009 0.2969
O3A O -0.1615(2) 0.32277(18) 0.41627(17)
H20A H -0.1278 0.2753 0.4542
H21A H -0.1653 0.2881 0.3440
O8 O 0.9845(3) 0.8614(2) 0.5968(2)
H22 H 0.8839 0.8641 0.5705
H23 H 1.0401 0.9359 0.6274
loop_
_geom_bond_atom_site_label_1
_geom_bond_atom_site_label_2
_geom_bond_site_symmetry_1
_geom_bond_site_symmetry_2
O1 Co2 1_555 1_555
Co1 N1 1_555 1_555
Co2 N4 1_555 1_555
C1 H1 1_555 1_555
C2 H2 1_555 1_555
C3 C2 1_555 1_555
H3 C3 1_555 1_555
C4 H4 1_555 1_555
H5 C4 1_555 1_555
C5 C4 1_555 1_555
C6 C5 1_555 1_555
H6 C6 1_555 1_555
C7 C5 1_555 1_555
H7 C7 1_555 1_555
C8 C9 1_555 1_555
C9 C10 1_555 1_555
C10 H8 1_555 1_555
C11 C10 1_555 1_555
H9 C11 1_555 1_555
C12 C11 1_555 1_555
H10 C12 1_555 1_555
C13 C12 1_555 1_555
C14 O1 1_555 1_555
C15 H11 1_555 1_555
C16 H12 1_555 1_555
C17 C16 1_555 1_555
H13 C17 1_555 1_555
C18 H14 1_555 1_555
H15 C18 1_555 1_555
C19 C18 1_555 1_555
C20 C19 1_555 1_555
H16 C20 1_555 1_555
C21 C19 1_555 1_555
H17 C21 1_555 1_555
N1 C1 1_555 1_555
N2 C1 1_555 1_555
N3 C9 1_555 1_555
N4 C15 1_555 1_555
N5 C15 1_555 1_555
O2 Co1 1_555 1_555
H18 O2 1_555 1_555
H19 O2 1_555 1_555
O3 Co1 1_555 1_555
H20 O3 1_555 1_555
H21 O3 1_555 1_555
O4 C14 1_555 1_555
O5 C8 1_555 1_555
O6 C8 1_555 1_555
O7 Co2 1_555 1_555
O8 H22 1_555 1_555
H23 O8 1_555 1_555
O1A Co2 1_555 1_555
Co1_2 N1A 1_555 1_555
Co2_2 N4A 1_555 1_555
C1A H1A 1_555 1_555
C2A H2A 1_555 1_555
C3A C2A 1_555 1_555
H3A C3A 1_555 1_555
C4A H4A 1_555 1_555
H5A C4A 1_555 1_555
C5A C4A 1_555 1_555
C6A C7 1_555 1_555
H6A C6A 1_555 1_555
C7A C6 1_555 1_555
H7A C7A 1_555 1_555
C8A C9A 1_555 1_555
C9A C10A 1_555 1_555
C10A H8A 1_555 1_555
C11A C10A 1_555 1_555
H9A C11A 1_555 1_555
C12A C11A 1_555 1_555
H10A C12A 1_555 1_555
C13A C12A 1_555 1_555
C14A O1A 1_555 1_555
C15A H11A 1_555 1_555
C16A H12A 1_555 1_555
C17A C16A 1_555 1_555
H13A C17A 1_555 1_555
C18A H14A 1_555 1_555
H15A C18A 1_555 1_555
C19A C18A 1_555 1_555
C20A C21 1_555 1_555
H16A C20A 1_555 1_555
C21A C20 1_555 1_555
H17A C21A 1_555 1_555
N1A C1A 1_555 1_555
N1A_2 Co1 1_555 1_555
N2A C1A 1_555 1_555
N3A C9A 1_555 1_555
N4A C15A 1_555 1_555
N4A_2 Co2 1_555 1_555
N5A C15A 1_555 1_555
O2A Co1 1_555 1_555
H18A O2A 1_555 1_555
H19A O2A 1_555 1_555
O3A Co1 1_555 1_555
H20A O3A 1_555 1_555
H21A O3A 1_555 1_555
O4A C14A 1_555 1_555
O5A C8A 1_555 1_555
O6A C8A 1_555 1_555
O7A Co2 1_555 1_555
C2 N2 1_555 1_555
C3 N1 1_555 1_555
C4 N2 1_555 1_555
C13 C14 1_555 1_555
C13 N3 1_555 1_555
C16 N4 1_555 1_555
C17 N5 1_555 1_555
C18 N5 1_555 1_555
N3 O7 1_555 1_555
C2A N2A 1_555 1_555
C3A N1A 1_555 1_555
C4A N2A 1_555 1_555
C5A C6A 1_555 1_555
C5A C7A 1_555 1_555
C13A C14A 1_555 1_555
C13A N3A 1_555 1_555
C16A N4A 1_555 1_555
C17A N5A 1_555 1_555
C18A N5A 1_555 1_555
C19A C20A 1_555 1_555
C19A C21A 1_555 1_555
N3A O7A 1_555 1_555

#END
