
#######################################################################
#
#                 Cambridge Crystallographic Data Centre
#                                CCDC 
#
#######################################################################
#
# If this CIF has been generated from an entry in the Cambridge 
# Structural Database, then it will include bibliographic, chemical, 
# crystal, experimental, refinement or atomic coordinate data resulting 
# from the CCDC's data processing and validation procedures.
#
#######################################################################

data_MEFTIA
_symmetry_cell_setting           triclinic
_symmetry_space_group_name_H-M   'P -1'
_symmetry_Int_Tables_number      2
_space_group_name_Hall           '-P 1'
loop_
_symmetry_equiv_pos_site_id
_symmetry_equiv_pos_as_xyz
1 x,y,z
2 -x,-y,-z
_cell_length_a                   13.630(3)
_cell_length_b                   15.837(2)
_cell_length_c                   21.105(3)
_cell_angle_alpha                70.860(10)
_cell_angle_beta                 86.700(10)
_cell_angle_gamma                64.900(10)
_cell_volume                     3879.7
loop_
_atom_site_label
_atom_site_type_symbol
_atom_site_fract_x
_atom_site_fract_y
_atom_site_fract_z
Cu1 Cu -0.45223(7) -0.02931(7) 0.19373(4)
Cu2 Cu -0.18257(8) 0.23553(7) -0.38781(5)
Cu3 Cu -0.75388(7) 0.59317(7) -0.20718(5)
N1 N -0.5410(5) -0.0942(5) 0.1721(3)
H1 H -0.5532(5) -0.0773(5) 0.1272(3)
H2 H -0.5056(5) -0.1605(5) 0.1899(3)
N2 N -0.5956(5) 0.0652(4) 0.2117(3)
H3 H -0.5961(5) 0.0489(4) 0.2572(3)
N3 N -0.4094(5) 0.0834(5) 0.1809(3)
H4 H -0.3457(5) 0.0605(5) 0.2052(3)
H5 H -0.4011(5) 0.1091(5) 0.1372(3)
N4 N -0.3115(5) -0.1076(4) 0.1624(3)
N5 N -0.1855(5) -0.1807(4) 0.1041(3)
N6 N -0.0714(4) 0.0517(4) -0.1785(3)
N7 N -0.1280(5) 0.1196(4) -0.2870(3)
N8 N -0.0660(6) 0.1683(5) -0.4424(4)
H6 H -0.0529(6) 0.2141(5) -0.4755(4)
H7 H -0.0038(6) 0.1265(5) -0.4157(4)
N9 N -0.2735(6) 0.1904(5) -0.4286(4)
H8 H -0.2718(6) 0.1336(5) -0.3982(4)
N10 N -0.3304(5) 0.3343(5) -0.3747(3)
H9 H -0.3298(5) 0.3372(5) -0.3329(3)
H10 H -0.3455(5) 0.3950(5) -0.4044(3)
N11 N -0.1016(5) 0.3068(4) -0.3697(3)
N12 N -0.0551(5) 0.4196(4) -0.3608(3)
N13 N -0.5030(5) 0.6631(5) -0.3140(3)
N14 N -0.6309(5) 0.6132(5) -0.2760(3)
N15 N -0.6832(5) 0.4447(4) -0.1609(3)
H11 H -0.6104(5) 0.4226(4) -0.1566(3)
H12 H -0.7055(5) 0.4294(4) -0.1194(3)
N16 N -0.8308(5) 0.5608(4) -0.2699(3)
H13 H -0.7924(5) 0.5563(4) -0.3063(3)
N17 N -0.8753(5) 0.7325(4) -0.2476(3)
H14 H -0.9241(5) 0.7458(4) -0.2175(3)
H15 H -0.8475(5) 0.7773(4) -0.2581(3)
N18 N 0.2935(5) -0.3312(4) -0.0442(3)
N19 N 0.2949(5) -0.3814(4) -0.1306(3)
N20 N -0.3377(5) 0.8318(4) -0.5946(3)
N21 N -0.4028(5) 0.8798(4) -0.6993(3)
C1 C -0.6451(6) -0.0575(6) 0.2022(4)
H16 H -0.6342(6) -0.0912(6) 0.2505(4)
H17 H -0.6984(6) -0.0704(6) 0.1834(4)
C2 C -0.6848(6) 0.0512(6) 0.1872(4)
H18 H -0.7029(6) 0.0861(6) 0.1392(4)
H19 H -0.7491(6) 0.0762(6) 0.2101(4)
C3 C -0.6038(6) 0.1665(6) 0.1855(4)
H20 H -0.6602(6) 0.2089(6) 0.2059(4)
H21 H -0.6217(6) 0.1937(6) 0.1370(4)
C4 C -0.4948(7) 0.1603(6) 0.2029(4)
H22 H -0.4927(7) 0.2236(6) 0.1806(4)
H23 H -0.4829(7) 0.1440(6) 0.2511(4)
C5 C -0.2916(7) -0.1292(6) 0.1071(4)
H24 H -0.3453(7) -0.1108(6) 0.0736(4)
C6 C -0.1329(7) -0.1928(6) 0.1611(4)
H25 H -0.0582(7) -0.2250(6) 0.1731(4)
C7 C -0.2110(7) -0.1486(6) 0.1972(4)
H26 H -0.1986(7) -0.1463(6) 0.2393(4)
C8 C -0.1357(6) -0.2192(6) 0.0504(4)
H27 H -0.1924(6) -0.1992(6) 0.0156(4)
H28 H -0.1021(6) -0.2909(6) 0.0686(4)
C9 C -0.0501(6) -0.1845(6) 0.0183(3)
C10 C -0.0847(6) -0.0881(5) -0.0267(3)
C11 C -0.0080(6) -0.0586(5) -0.0599(3)
C12 C 0.1030(6) -0.1239(5) -0.0496(3)
C13 C 0.1358(6) -0.2179(5) -0.0028(3)
C14 C 0.0608(6) -0.2503(5) 0.0330(3)
C15 C 0.1009(7) -0.3537(6) 0.0848(4)
H29 H 0.1788(7) -0.3866(6) 0.0874(4)
H30 H 0.0701(7) -0.3906(6) 0.0718(4)
H31 H 0.0790(7) -0.3490(6) 0.1281(4)
C16 C -0.2035(6) -0.0193(6) -0.0395(4)
H32 H -0.2440(6) -0.0523(6) -0.0122(4)
H33 H -0.2270(6) 0.0003(6) -0.0862(4)
H34 H -0.2157(6) 0.0382(6) -0.0283(4)
C17 C 0.1830(6) -0.0930(6) -0.0911(4)
H35 H 0.1458(6) -0.0258(6) -0.1205(4)
H36 H 0.2163(6) -0.1354(6) -0.1174(4)
H37 H 0.2382(6) -0.0981(6) -0.0618(4)
C18 C -0.0445(6) 0.0465(5) -0.1099(3)
H38 H -0.1079(6) 0.0915(5) -0.0953(3)
H39 H 0.0132(6) 0.0674(5) -0.1109(3)
C19 C -0.1148(6) 0.1362(5) -0.2313(4)
H40 H -0.1331(6) 0.1987(5) -0.2290(4)
C20 C -0.0914(6) 0.0196(6) -0.2680(4)
H41 H -0.0900(6) -0.0147(6) -0.2966(4)
C21 C -0.0572(6) -0.0228(5) -0.2012(4)
H42 H -0.0295(6) -0.0899(5) -0.1760(4)
C22 C -0.1028(8) 0.1136(7) -0.4715(5)
H43 H -0.0849(8) 0.0480(7) -0.4394(5)
H44 H -0.0665(8) 0.1064(7) -0.5116(5)
C23 C -0.2228(9) 0.1683(7) -0.4891(5)
H45 H -0.2402(9) 0.2293(7) -0.5265(5)
H46 H -0.2502(9) 0.1284(7) -0.5021(5)
C24 C -0.3871(8) 0.2666(8) -0.4428(5)
H47 H -0.4360(8) 0.2384(8) -0.4474(5)
H48 H -0.3956(8) 0.3203(8) -0.4842(5)
C25 C -0.4117(7) 0.3034(7) -0.3846(5)
H49 H -0.4832(7) 0.3587(7) -0.3935(5)
H50 H -0.4115(7) 0.2513(7) -0.3444(5)
C26 C -0.1335(6) 0.4025(5) -0.3812(4)
H51 H -0.2020(6) 0.4515(5) -0.4009(4)
C27 C 0.0321(6) 0.3307(6) -0.3353(4)
H52 H 0.0994(6) 0.3191(6) -0.3177(4)
C28 C 0.0015(6) 0.2631(6) -0.3406(4)
H53 H 0.0453(6) 0.1953(6) -0.3263(4)
C29 C -0.0574(6) 0.5142(5) -0.3619(4)
H54 H -0.0042(6) 0.5275(5) -0.3909(4)
H55 H -0.0362(6) 0.5075(5) -0.3167(4)
C30 C -0.1664(5) 0.6006(5) -0.3859(4)
C31 C -0.2465(6) 0.6131(5) -0.3430(3)
C32 C -0.3481(7) 0.6938(6) -0.3655(4)
C33 C -0.3670(6) 0.7622(5) -0.4307(4)
C34 C -0.2818(7) 0.7530(6) -0.4708(4)
C35 C -0.1816(6) 0.6698(5) -0.4494(4)
C36 C -0.0916(7) 0.6549(7) -0.4952(4)
H56 H -0.1154(7) 0.7093(7) -0.5370(4)
H57 H -0.0728(7) 0.5943(7) -0.5039(4)
H58 H -0.0290(7) 0.6517(7) -0.4740(4)
C37 C -0.2263(8) 0.5423(6) -0.2715(4)
H59 H -0.2913(8) 0.5627(6) -0.2491(4)
H60 H -0.1684(8) 0.5426(6) -0.2479(4)
H61 H -0.2066(8) 0.4768(6) -0.2720(4)
C38 C -0.4794(7) 0.8481(6) -0.4561(5)
H62 H -0.5285(7) 0.8431(6) -0.4220(5)
H63 H -0.5062(7) 0.8456(6) -0.4962(5)
H64 H -0.4742(7) 0.9097(6) -0.4660(5)
C39 C -0.4349(7) 0.7140(7) -0.3183(4)
H65 H -0.4005(7) 0.6947(7) -0.2736(4)
H66 H -0.4807(7) 0.7847(7) -0.3327(4)
C40 C -0.5824(7) 0.6677(6) -0.2730(4)
H67 H -0.6013(7) 0.7060(6) -0.2451(4)
C41 C -0.5781(7) 0.5711(7) -0.3216(5)
H68 H -0.5921(7) 0.5259(7) -0.3342(5)
C42 C -0.5020(8) 0.6036(7) -0.3465(5)
H69 H -0.4576(8) 0.5875(7) -0.3799(5)
C43 C -0.7126(7) 0.3967(6) -0.2005(5)
H70 H -0.7073(7) 0.3328(6) -0.1715(5)
H71 H -0.6633(7) 0.3865(6) -0.2351(5)
C44 C -0.8279(7) 0.4626(6) -0.2324(5)
H72 H -0.8472(7) 0.4363(6) -0.2629(5)
H73 H -0.8787(7) 0.4674(6) -0.1982(5)
C45 C -0.9404(7) 0.6429(6) -0.2933(5)
H74 H -0.9897(7) 0.6378(6) -0.2588(5)
H75 H -0.9692(7) 0.6411(6) -0.3336(5)
C46 C -0.9285(7) 0.7386(6) -0.3084(4)
H76 H -0.8849(7) 0.7467(6) -0.3459(4)
H77 H -0.9995(7) 0.7947(6) -0.3201(4)
C47 C 0.2562(6) -0.2879(6) 0.0095(4)
H78 H 0.2977(6) -0.2521(6) 0.0123(4)
H79 H 0.2698(6) -0.3406(6) 0.0523(4)
C48 C 0.2336(6) -0.3334(5) -0.0910(4)
H80 H 0.1579(6) -0.3047(5) -0.0954(4)
C49 C 0.3995(6) -0.4116(6) -0.1061(4)
H81 H 0.4613(6) -0.4485(6) -0.1231(4)
C50 C 0.4002(6) -0.3805(6) -0.0541(4)
H82 H 0.4612(6) -0.3906(6) -0.0297(4)
C51 C -0.2966(8) 0.8374(6) -0.5348(4)
H83 H -0.3463(8) 0.8988(6) -0.5283(4)
H84 H -0.2270(8) 0.8401(6) -0.5428(4)
C52 C -0.3808(6) 0.9069(6) -0.6511(3)
H85 H -0.3943(6) 0.9716(6) -0.6564(3)
C53 C -0.3707(7) 0.7801(6) -0.6710(4)
H86 H -0.3748(7) 0.7389(6) -0.6927(4)
C54 C -0.3327(7) 0.7518(6) -0.6071(4)
H87 H -0.3071(7) 0.6878(6) -0.5764(4)
N19_2 N -0.7051(5) 0.6186(4) -0.1306(3)
N21_2 N -0.4028(5) -0.1202(4) 0.3007(3)
Cu3_2 Cu 0.24612(7) -0.40683(7) -0.20718(5)
Cu1_2 Cu -0.45223(7) 0.97069(7) -0.80627(4)
Cl1 Cl -0.6298(2) 0.6792(2) -0.81208(11)
O1 O -0.5684(5) 0.6074(5) -0.8427(3)
O2 O -0.5579(6) 0.6965(5) -0.7774(3)
O3 O -0.6919(6) 0.6425(5) -0.7628(4)
O4 O -0.6992(5) 0.7678(4) -0.8618(3)
Cl2 Cl -0.2108(2) 0.0528(2) -0.67034(13)
O5 O -0.1401(6) 0.0764(6) -0.6431(4)
O6 O -0.3121(5) 0.0811(5) -0.6446(4)
O7 O -0.1647(6) -0.0465(5) -0.6579(6)
O8 O -0.2270(6) 0.1065(7) -0.7383(4)
Cl3 Cl -0.7152(2) 0.0627(2) -0.62429(14)
O17 O -0.8100(11) 0.1227(17) -0.6362(11)
O18 O -0.6553(14) 0.1076(10) -0.6554(5)
O19 O -0.6943(10) 0.0318(7) -0.5573(4)
O20 O -0.7040(13) -0.0104(9) -0.6469(4)
Cl4 Cl -0.2452(2) 0.4766(2) -0.55908(12)
O9 O -0.1855(8) 0.3788(5) -0.5565(4)
O10 O -0.1734(5) 0.5074(5) -0.5389(4)
O11 O -0.2915(6) 0.5381(4) -0.6240(3)
O12 O -0.3256(6) 0.4864(7) -0.5153(4)
Cl5 Cl 0.5224(2) -0.1696(2) 0.00076(11)
O13 O 0.5694(10) -0.1150(10) -0.0408(5)
O14 O 0.4559(11) -0.1145(13) 0.0354(8)
O15 O 0.4744(8) -0.2066(8) -0.0298(4)
O16 O 0.5934(13) -0.2333(8) 0.0486(8)
O21 O -0.8239(25) 0.4260(14) -0.0530(15)
Cl6 Cl -0.0668(10) -0.3270(8) -0.1115(8)
O22 O 0.0107(25) -0.3820(16) -0.0543(14)
O23 O -0.0431(22) -0.2508(14) -0.1568(14)
O24 O -0.1625(12) -0.2868(13) -0.0801(10)
O25 O -0.0753(25) -0.3900(18) -0.1435(12)
N22 N 0.6489(14) -0.4186(12) -0.1237(10)
C55 C 0.7387(18) -0.4262(15) -0.0149(11)
C56 C 0.6847(15) -0.4188(14) -0.0734(11)
Cl7? Cl 0.9600(11) -0.3497(12) 0.8908(7)
O26? O 1.0607(11) -0.4207(10) 0.8800(10)
O27? O 0.9539(18) -0.2526(10) 0.8626(14)
O28? O 0.9513(31) -0.3742(26) 0.9613(8)
O29? O 0.8716(13) -0.3483(22) 0.8574(15)
loop_
_geom_bond_atom_site_label_1
_geom_bond_atom_site_label_2
_geom_bond_site_symmetry_1
_geom_bond_site_symmetry_2
Cu1 N1 1_555 1_555
Cu2 N7 1_555 1_555
Cu3 N14 1_555 1_555
Cl1 O1 1_555 1_555
Cl2 O5 1_555 1_555
Cl3 O17 1_555 1_555
Cl4 O9 1_555 1_555
Cl5 O13 1_555 1_555
O2 Cl1 1_555 1_555
O3 Cl1 1_555 1_555
O4 Cl1 1_555 1_555
O6 Cl2 1_555 1_555
O7 Cl2 1_555 1_555
O8 Cl2 1_555 1_555
O10 Cl4 1_555 1_555
O11 Cl4 1_555 1_555
O12 Cl4 1_555 1_555
O14 Cl5 1_555 1_555
O15 Cl5 1_555 1_555
O16 Cl5 1_555 1_555
O18 Cl3 1_555 1_555
O19 Cl3 1_555 1_555
O20 Cl3 1_555 1_555
N1 H1 1_555 1_555
H2 N1 1_555 1_555
N2 Cu1 1_555 1_555
H3 N2 1_555 1_555
N3 Cu1 1_555 1_555
H4 N3 1_555 1_555
H5 N3 1_555 1_555
N4 Cu1 1_555 1_555
N5 C5 1_555 1_555
N6 C18 1_555 1_555
N7 C19 1_555 1_555
N8 Cu2 1_555 1_555
H6 N8 1_555 1_555
H7 N8 1_555 1_555
N9 Cu2 1_555 1_555
H8 N9 1_555 1_555
N10 Cu2 1_555 1_555
H9 N10 1_555 1_555
H10 N10 1_555 1_555
N11 Cu2 1_555 1_555
N12 C26 1_555 1_555
N13 C39 1_555 1_555
N14 C40 1_555 1_555
N15 Cu3 1_555 1_555
H11 N15 1_555 1_555
H12 N15 1_555 1_555
N16 Cu3 1_555 1_555
H13 N16 1_555 1_555
N17 Cu3 1_555 1_555
H14 N17 1_555 1_555
H15 N17 1_555 1_555
N18 C47 1_555 1_555
N19 C48 1_555 1_555
N20 C51 1_555 1_555
N21 C52 1_555 1_555
C1 N1 1_555 1_555
H16 C1 1_555 1_555
H17 C1 1_555 1_555
C2 N2 1_555 1_555
H18 C2 1_555 1_555
H19 C2 1_555 1_555
C3 N2 1_555 1_555
H20 C3 1_555 1_555
H21 C3 1_555 1_555
C4 N3 1_555 1_555
H22 C4 1_555 1_555
H23 C4 1_555 1_555
C5 N4 1_555 1_555
H24 C5 1_555 1_555
C6 N5 1_555 1_555
H25 C6 1_555 1_555
C7 N4 1_555 1_555
H26 C7 1_555 1_555
C8 N5 1_555 1_555
H27 C8 1_555 1_555
H28 C8 1_555 1_555
C9 C8 1_555 1_555
C10 C9 1_555 1_555
C11 C10 1_555 1_555
C12 C11 1_555 1_555
C13 C12 1_555 1_555
C14 C9 1_555 1_555
C15 C14 1_555 1_555
H29 C15 1_555 1_555
H30 C15 1_555 1_555
H31 C15 1_555 1_555
C16 C10 1_555 1_555
H32 C16 1_555 1_555
H33 C16 1_555 1_555
H34 C16 1_555 1_555
C17 C12 1_555 1_555
H35 C17 1_555 1_555
H36 C17 1_555 1_555
H37 C17 1_555 1_555
C18 C11 1_555 1_555
H38 C18 1_555 1_555
H39 C18 1_555 1_555
C19 N6 1_555 1_555
H40 C19 1_555 1_555
C20 N7 1_555 1_555
H41 C20 1_555 1_555
C21 N6 1_555 1_555
H42 C21 1_555 1_555
C22 N8 1_555 1_555
H43 C22 1_555 1_555
H44 C22 1_555 1_555
C23 N9 1_555 1_555
H45 C23 1_555 1_555
H46 C23 1_555 1_555
C24 N9 1_555 1_555
H47 C24 1_555 1_555
H48 C24 1_555 1_555
C25 N10 1_555 1_555
H49 C25 1_555 1_555
H50 C25 1_555 1_555
C26 N11 1_555 1_555
H51 C26 1_555 1_555
C27 N12 1_555 1_555
H52 C27 1_555 1_555
C28 N11 1_555 1_555
H53 C28 1_555 1_555
C29 N12 1_555 1_555
H54 C29 1_555 1_555
H55 C29 1_555 1_555
C30 C29 1_555 1_555
C31 C30 1_555 1_555
C32 C31 1_555 1_555
C33 C32 1_555 1_555
C34 C33 1_555 1_555
C35 C30 1_555 1_555
C36 C35 1_555 1_555
H56 C36 1_555 1_555
H57 C36 1_555 1_555
H58 C36 1_555 1_555
C37 C31 1_555 1_555
H59 C37 1_555 1_555
H60 C37 1_555 1_555
H61 C37 1_555 1_555
C38 C33 1_555 1_555
H62 C38 1_555 1_555
H63 C38 1_555 1_555
H64 C38 1_555 1_555
C39 C32 1_555 1_555
H65 C39 1_555 1_555
H66 C39 1_555 1_555
C40 N13 1_555 1_555
H67 C40 1_555 1_555
C41 N14 1_555 1_555
H68 C41 1_555 1_555
C42 N13 1_555 1_555
H69 C42 1_555 1_555
C43 N15 1_555 1_555
H70 C43 1_555 1_555
H71 C43 1_555 1_555
C44 N16 1_555 1_555
H72 C44 1_555 1_555
H73 C44 1_555 1_555
C45 N16 1_555 1_555
H74 C45 1_555 1_555
H75 C45 1_555 1_555
C46 N17 1_555 1_555
H76 C46 1_555 1_555
H77 C46 1_555 1_555
C47 C13 1_555 1_555
H78 C47 1_555 1_555
H79 C47 1_555 1_555
C48 N18 1_555 1_555
H80 C48 1_555 1_555
C49 N19 1_555 1_555
H81 C49 1_555 1_555
C50 N18 1_555 1_555
H82 C50 1_555 1_555
C51 C34 1_555 1_555
H83 C51 1_555 1_555
H84 C51 1_555 1_555
C52 N20 1_555 1_555
H85 C52 1_555 1_555
C53 N21 1_555 1_555
H86 C53 1_555 1_555
C54 N20 1_555 1_555
H87 C54 1_555 1_555
Cl6 O22 1_555 1_555
O23 Cl6 1_555 1_555
O24 Cl6 1_555 1_555
O25 Cl6 1_555 1_555
N22 C56 1_555 1_555
C55 C56 1_555 1_555
N19_2 Cu3 1_555 1_555
N21_2 Cu1 1_555 1_555
Cu3_2 N19 1_555 1_555
Cu1_2 N21 1_555 1_555
C1 C2 1_555 1_555
C3 C4 1_555 1_555
C6 C7 1_555 1_555
C13 C14 1_555 1_555
C20 C21 1_555 1_555
C22 C23 1_555 1_555
C24 C25 1_555 1_555
C27 C28 1_555 1_555
C34 C35 1_555 1_555
C41 C42 1_555 1_555
C43 C44 1_555 1_555
C45 C46 1_555 1_555
C49 C50 1_555 1_555
C53 C54 1_555 1_555

#END
