
#######################################################################
#
#                 Cambridge Crystallographic Data Centre
#                                CCDC 
#
#######################################################################
#
# If this CIF has been generated from an entry in the Cambridge 
# Structural Database, then it will include bibliographic, chemical, 
# crystal, experimental, refinement or atomic coordinate data resulting 
# from the CCDC's data processing and validation procedures.
#
#######################################################################

data_MEGBEH
_symmetry_cell_setting           orthorhombic
_symmetry_space_group_name_H-M   'F m m m'
_symmetry_Int_Tables_number      69
_space_group_name_Hall           '-F 2 2'
loop_
_symmetry_equiv_pos_site_id
_symmetry_equiv_pos_as_xyz
1 x,y,z
2 -x,-y,z
3 -x,y,-z
4 x,-y,-z
5 x,1/2+y,1/2+z
6 -x,1/2-y,1/2+z
7 -x,1/2+y,1/2-z
8 x,1/2-y,1/2-z
9 1/2+x,y,1/2+z
10 1/2-x,-y,1/2+z
11 1/2-x,y,1/2-z
12 1/2+x,-y,1/2-z
13 1/2+x,1/2+y,z
14 1/2-x,1/2-y,z
15 1/2-x,1/2+y,-z
16 1/2+x,1/2-y,-z
17 -x,-y,-z
18 x,y,-z
19 x,-y,z
20 -x,y,z
21 -x,1/2-y,1/2-z
22 x,1/2+y,1/2-z
23 x,1/2-y,1/2+z
24 -x,1/2+y,1/2+z
25 1/2-x,-y,1/2-z
26 1/2+x,y,1/2-z
27 1/2+x,-y,1/2+z
28 1/2-x,y,1/2+z
29 1/2-x,1/2-y,-z
30 1/2+x,1/2+y,-z
31 1/2+x,1/2-y,z
32 1/2-x,1/2+y,z
_cell_length_a                   24.135(7)
_cell_length_b                   29.200(9)
_cell_length_c                   31.833(9)
_cell_angle_alpha                90
_cell_angle_beta                 90
_cell_angle_gamma                90
_cell_volume                     22434.1
loop_
_atom_site_label
_atom_site_type_symbol
_atom_site_fract_x
_atom_site_fract_y
_atom_site_fract_z
Cd1 Cd -0.19180(13) 0.27848(8) 1.0000
Cd2 Cd -0.2500 0.0000 0.7500
Cd3 Cd -0.33700(14) 0.0000 0.84599(9)
Mn1 Mn 0.0000 0.2500 0.7500
Cl1 Cl 0.0000 0.3093(11) 0.8046(12)
Cl2 Cl -0.3479(7) 0.0000 0.7644(5)
O1 O -0.1909(6) 0.2330(5) 0.9514(5)
O2 O -0.2529(6) 0.1824(4) 0.9535(4)
O3 O -0.2819(7) 0.0553(5) 0.8459(6)
O4 O -0.2271(7) 0.0526(5) 0.7918(4)
O5 O -0.1060(8) 0.2996(10) 1.0000
O6 O -0.4113(7) 0.0539(7) 0.8528(10)
N1 N 0.0000 0.2031(7) 0.7940(7)
N2 N -0.0667(7) 0.2500 0.7500
C1 C -0.0307(7) 0.1538(5) 0.8491(5)
H1 H -0.0532 0.1357 0.8660
C2 C -0.0514(11) 0.1889(6) 0.8161(4)
C3 C -0.1033(10) 0.1958(7) 0.8064(7)
C4 C -0.1121(6) 0.2272(7) 0.7719(6)
C5 C -0.1715(9) 0.2344(5) 0.7679(4)
H2 H -0.2008 0.2226 0.7835
C6 C -0.1438(5) 0.1706(5) 0.8394(5)
C7 C -0.1619(7) 0.1898(4) 0.8769(5)
H3 H -0.1442 0.2155 0.8878
C8 C -0.2065(7) 0.1706(7) 0.8982(3)
C9 C -0.2329(5) 0.1322(7) 0.8820(6)
H4 H -0.2627 0.1193 0.8962
C10 C -0.2148(6) 0.1130(4) 0.8444(7)
C11 C -0.1702(7) 0.1322(5) 0.8232(4)
H5 H -0.1581 0.1194 0.7980
C12 C -0.2132(13) 0.2012(9) 0.9373(6)
C13 C -0.2425(10) 0.0705(5) 0.8254(9)
Cd1G Cd -0.19180(13) 0.22152(8) 0.5000
Cd1M Cd -0.30820(13) 0.22152(8) 1.0000
Cd1J Cd -0.30820(13) 0.27848(8) 0.5000
Cd1E Cd 0.19180(13) 0.22152(8) 0.5000
Cd1H Cd 0.30820(13) 0.27848(8) 0.5000
Cd1B Cd 0.19180(13) 0.27848(8) 1.0000
Cd1O Cd 0.30820(13) 0.22152(8) 1.0000
Cd2G Cd -0.2500 0.5000 0.7500
Cd2F Cd 0.2500 0.5000 0.7500
Cd2A Cd 0.2500 0.0000 0.7500
Cd3J Cd -0.16300(14) 0.0000 0.65401(9)
Cd3G Cd -0.33700(14) 0.5000 0.65401(9)
Cd3F Cd 0.33700(14) 0.5000 0.65401(9)
Cd3A Cd 0.33700(14) 0.0000 0.84599(9)
Cl1G Cl 0.0000 0.1907(11) 0.6954(12)
Cl2J Cl -0.1521(7) 0.0000 0.7356(5)
O1G O -0.1909(6) 0.2670(5) 0.5486(5)
O1T O 0.1909(6) 0.2670(5) 0.5486(5)
O1S O 0.1909(6) 0.2330(5) 0.9514(5)
O1Q O -0.1909(6) 0.2330(5) 1.0486(5)
O1V O -0.1909(6) 0.2670(5) 0.4514(5)
O2G O -0.2529(6) 0.3176(4) 0.5465(4)
O2T O 0.2529(6) 0.3176(4) 0.5465(4)
O2S O 0.2529(6) 0.1824(4) 0.9535(4)
O2M O -0.2471(6) 0.3176(4) 0.9535(4)
O2BA O -0.2471(6) 0.3176(4) 1.0465(4)
O2J O -0.2471(6) 0.1824(4) 0.5465(4)
O2AA O -0.2471(6) 0.1824(4) 0.4535(4)
O3G O -0.2819(7) 0.4447(5) 0.6541(6)
O3T O 0.2819(7) 0.4447(5) 0.6541(6)
O3S O 0.2819(7) 0.0553(5) 0.8459(6)
O3R O -0.2819(7) -0.0553(5) 0.8459(6)
O3J O -0.2181(7) 0.0553(5) 0.6541(6)
O3X O -0.2181(7) -0.0553(5) 0.6541(6)
O4G O -0.2271(7) 0.4474(5) 0.7082(4)
O4T O 0.2271(7) 0.4474(5) 0.7082(4)
O4S O 0.2271(7) 0.0526(5) 0.7918(4)
O4J O -0.2729(7) 0.0526(5) 0.7082(4)
O4R O -0.2271(7) -0.0526(5) 0.7918(4)
O4X O -0.2729(7) -0.0526(5) 0.7082(4)
O5G O -0.1060(8) 0.2004(10) 0.5000
O6R O -0.4113(7) -0.0539(7) 0.8528(10)
O6J O -0.0887(7) 0.0539(7) 0.6472(10)
O6X O -0.0887(7) -0.0539(7) 0.6472(10)
N1G N 0.0000 0.2969(7) 0.7060(7)
N2S N 0.0667(7) 0.2500 0.7500
C1S C 0.0307(7) 0.1538(5) 0.8491(5)
C1G C -0.0307(7) 0.3462(5) 0.6509(5)
C1T C 0.0307(7) 0.3462(5) 0.6509(5)
H1S H 0.0532 0.1357 0.8660
H1T H 0.0532 0.3643 0.6340
H1G H -0.0532 0.3643 0.6340
C2S C 0.0514(11) 0.1889(6) 0.8161(4)
C2T C 0.0514(11) 0.3111(6) 0.6839(4)
C2G C -0.0514(11) 0.3111(6) 0.6839(4)
C3S C 0.1033(10) 0.1958(7) 0.8064(7)
C3T C 0.1033(10) 0.3042(7) 0.6936(7)
C3G C -0.1033(10) 0.3042(7) 0.6936(7)
C4S C 0.1121(6) 0.2272(7) 0.7719(6)
C4T C 0.1121(6) 0.2728(7) 0.7281(6)
C4G C -0.1121(6) 0.2728(7) 0.7281(6)
C5G C -0.1715(9) 0.2656(5) 0.7321(4)
C5T C 0.1715(9) 0.2656(5) 0.7321(4)
C5S C 0.1715(9) 0.2344(5) 0.7679(4)
H2G H -0.2008 0.2774 0.7165
H2S H 0.2008 0.2226 0.7835
H2T H 0.2008 0.2774 0.7165
C6G C -0.1438(5) 0.3294(5) 0.6606(5)
C6T C 0.1438(5) 0.3294(5) 0.6606(5)
C6S C 0.1438(5) 0.1706(5) 0.8394(5)
C7G C -0.1619(7) 0.3102(4) 0.6231(5)
C7T C 0.1619(7) 0.3102(4) 0.6231(5)
C7S C 0.1619(7) 0.1898(4) 0.8769(5)
H3G H -0.1442 0.2845 0.6122
H3T H 0.1442 0.2845 0.6122
H3S H 0.1442 0.2155 0.8878
C8G C -0.2065(7) 0.3294(7) 0.6018(3)
C8T C 0.2065(7) 0.3294(7) 0.6018(3)
C8S C 0.2065(7) 0.1706(7) 0.8982(3)
C9G C -0.2329(5) 0.3678(7) 0.6180(6)
C9T C 0.2329(5) 0.3678(7) 0.6180(6)
C9S C 0.2329(5) 0.1322(7) 0.8820(6)
H4G H -0.2627 0.3807 0.6038
H4T H 0.2627 0.3807 0.6038
H4S H 0.2627 0.1193 0.8962
C10G C -0.2148(6) 0.3870(4) 0.6556(7)
C10T C 0.2148(6) 0.3870(4) 0.6556(7)
C10S C 0.2148(6) 0.1130(4) 0.8444(7)
C11G C -0.1702(7) 0.3678(5) 0.6768(4)
C11T C 0.1702(7) 0.3678(5) 0.6768(4)
C11S C 0.1702(7) 0.1322(5) 0.8232(4)
H5G H -0.1581 0.3806 0.7020
H5T H 0.1581 0.3806 0.7020
H5S H 0.1581 0.1194 0.7980
C12G C -0.2132(13) 0.2988(9) 0.5627(6)
C12T C 0.2132(13) 0.2988(9) 0.5627(6)
C12S C 0.2132(13) 0.2012(9) 0.9373(6)
C13G C -0.2425(10) 0.4295(5) 0.6746(9)
C13T C 0.2425(10) 0.4295(5) 0.6746(9)
C13S C 0.2425(10) 0.0705(5) 0.8254(9)
loop_
_geom_bond_atom_site_label_1
_geom_bond_atom_site_label_2
_geom_bond_site_symmetry_1
_geom_bond_site_symmetry_2
Cd1 O1 1_555 1_555
Cd2 Cl2 1_555 1_555
Cd3 Cl2 1_555 1_555
Mn1 Cl1 1_555 1_555
O1 C12 1_555 1_555
O2 C12 1_555 1_555
O3 Cd3 1_555 1_555
O4 Cd2 1_555 1_555
O5 Cd1 1_555 1_555
O6 Cd3 1_555 1_555
N1 Mn1 1_555 1_555
N2 Mn1 1_555 1_555
C1 H1 1_555 1_555
C2 N1 1_555 1_555
C3 C2 1_555 1_555
C4 N2 1_555 1_555
C5 C4 1_555 1_555
H2 C5 1_555 1_555
C6 C3 1_555 1_555
C7 C6 1_555 1_555
H3 C7 1_555 1_555
C8 C7 1_555 1_555
C9 C8 1_555 1_555
H4 C9 1_555 1_555
C10 C9 1_555 1_555
C11 C6 1_555 1_555
H5 C11 1_555 1_555
C12 C8 1_555 1_555
C13 O3 1_555 1_555
Cd1G O1G 1_555 1_555
Cd1M O2 1_555 1_555
Cd1J O2G 1_555 1_555
Cd1E O1T 1_555 1_555
Cd1H O2T 1_555 1_555
Cd1B O1S 1_555 1_555
Cd1O O2S 1_555 1_555
Cd2G O4G 1_555 1_555
Cd2F O4T 1_555 1_555
Cd2A O4S 1_555 1_555
Cd3J Cl2J 1_555 1_555
Cd3G O3G 1_555 1_555
Cd3F O3T 1_555 1_555
Cd3A O3S 1_555 1_555
Cl1G Mn1 1_555 1_555
Cl2J Cd2 1_555 1_555
O1G C12G 1_555 1_555
O1T C12T 1_555 1_555
O1S C12S 1_555 1_555
O1Q Cd1 1_555 1_555
O1V Cd1G 1_555 1_555
O2G C12G 1_555 1_555
O2T C12T 1_555 1_555
O2S C12S 1_555 1_555
O2M Cd1 1_555 1_555
O2BA Cd1 1_555 1_555
O2J Cd1G 1_555 1_555
O2AA Cd1G 1_555 1_555
O3G C13G 1_555 1_555
O3T C13T 1_555 1_555
O3S C13S 1_555 1_555
O3R Cd3 1_555 1_555
O3J Cd3J 1_555 1_555
O3X Cd3J 1_555 1_555
O4G C13G 1_555 1_555
O4T C13T 1_555 1_555
O4S C13S 1_555 1_555
O4J Cd2 1_555 1_555
O4R Cd2 1_555 1_555
O4X Cd2 1_555 1_555
O5G Cd1G 1_555 1_555
O6R Cd3 1_555 1_555
O6J Cd3J 1_555 1_555
O6X Cd3J 1_555 1_555
N1G Mn1 1_555 1_555
N2S Mn1 1_555 1_555
C1S C1 1_555 1_555
C1G C1T 1_555 1_555
C1T H1T 1_555 1_555
H1S C1S 1_555 1_555
H1G C1G 1_555 1_555
C2S N1 1_555 1_555
C2T N1G 1_555 1_555
C2G N1G 1_555 1_555
C3S C2S 1_555 1_555
C3T C2T 1_555 1_555
C3G C2G 1_555 1_555
C4S N2S 1_555 1_555
C4T N2S 1_555 1_555
C4G N2 1_555 1_555
C5G C5 1_555 1_555
C5T C4T 1_555 1_555
C5S C4S 1_555 1_555
H2G C5G 1_555 1_555
H2S C5S 1_555 1_555
H2T C5T 1_555 1_555
C6G C3G 1_555 1_555
C6T C3T 1_555 1_555
C6S C3S 1_555 1_555
C7G C6G 1_555 1_555
C7T C6T 1_555 1_555
C7S C6S 1_555 1_555
H3G C7G 1_555 1_555
H3T C7T 1_555 1_555
H3S C7S 1_555 1_555
C8G C7G 1_555 1_555
C8T C7T 1_555 1_555
C8S C7S 1_555 1_555
C9G C8G 1_555 1_555
C9T C8T 1_555 1_555
C9S C8S 1_555 1_555
H4G C9G 1_555 1_555
H4T C9T 1_555 1_555
H4S C9S 1_555 1_555
C10G C9G 1_555 1_555
C10T C9T 1_555 1_555
C10S C9S 1_555 1_555
C11G C6G 1_555 1_555
C11T C6T 1_555 1_555
C11S C6S 1_555 1_555
H5G C11G 1_555 1_555
H5T C11T 1_555 1_555
H5S C11S 1_555 1_555
C12G C8G 1_555 1_555
C12T C8T 1_555 1_555
C12S C8S 1_555 1_555
C13G C10G 1_555 1_555
C13T C10T 1_555 1_555
C13S C10S 1_555 1_555
O4 C13 1_555 1_555
C1 C2 1_555 1_555
C3 C4 1_555 1_555
C10 C11 1_555 1_555
C10 C13 1_555 1_555
C1S C2S 1_555 1_555
C1G C2G 1_555 1_555
C1T C2T 1_555 1_555
C3S C4S 1_555 1_555
C3T C4T 1_555 1_555
C3G C4G 1_555 1_555
C4G C5G 1_555 1_555
C5T C5S 1_555 1_555
C10G C11G 1_555 1_555
C10T C11T 1_555 1_555
C10S C11S 1_555 1_555

#END
