
#######################################################################
#
#                 Cambridge Crystallographic Data Centre
#                                CCDC 
#
#######################################################################
#
# If this CIF has been generated from an entry in the Cambridge 
# Structural Database, then it will include bibliographic, chemical, 
# crystal, experimental, refinement or atomic coordinate data resulting 
# from the CCDC's data processing and validation procedures.
#
#######################################################################

data_MEGCOR
_symmetry_cell_setting           monoclinic
_symmetry_space_group_name_H-M   'P 21/c'
_symmetry_Int_Tables_number      14
_space_group_name_Hall           '-P 2ybc'
loop_
_symmetry_equiv_pos_site_id
_symmetry_equiv_pos_as_xyz
1 x,y,z
2 -x,1/2+y,1/2-z
3 -x,-y,-z
4 x,1/2-y,1/2+z
_cell_length_a                   8.2791(6)
_cell_length_b                   12.5495(10)
_cell_length_c                   13.6519(11)
_cell_angle_alpha                90
_cell_angle_beta                 105.294(2)
_cell_angle_gamma                90
_cell_volume                     1368.18
loop_
_atom_site_label
_atom_site_type_symbol
_atom_site_fract_x
_atom_site_fract_y
_atom_site_fract_z
Zn1 Zn 0.5000 0.0000 0.0000
O1 O 0.7135(8) -0.4983(4) -0.0903(3)
H1 H 0.750(11) -0.525(7) -0.031(3)
O3 O 0.7635(5) 0.0189(3) 0.0421(3)
H4 H 0.8047 -0.0189 0.0060
H5 H 0.807(8) 0.079(3) 0.040(5)
O4 O 0.7143(8) -0.3421(4) -0.0169(3)
O5 O 0.7755(6) -0.1232(4) -0.1041(4)
O6 O 0.5063(5) -0.1275(3) -0.1007(3)
N1 N 0.5320(6) -0.3871(3) -0.3758(3)
C1 C 0.5943(7) -0.4192(4) -0.2792(4)
H6 H 0.6175 -0.4913 -0.2674
C2 C 0.6260(7) -0.3515(4) -0.1960(4)
C3 C 0.5944(7) -0.2424(4) -0.2132(4)
C4 C 0.5292(8) -0.2095(4) -0.3127(4)
H7 H 0.5052 -0.1378 -0.3269
C5 C 0.4998(8) -0.2829(4) -0.3908(4)
H8 H 0.4555 -0.2588 -0.4569
C6 C 0.6883(8) -0.3956(4) -0.0910(4)
C7 C 0.6301(7) -0.1590(4) -0.1293(4)
Zn1C Zn 0.5000 -0.5000 -0.5000
Zn1C_2 Zn 0.5000 0.5000 0.5000
O1B O 0.2865(8) 0.4983(4) 0.0903(3)
H1B H 0.250(11) 0.525(7) 0.031(3)
O3B O 0.2365(5) -0.0189(3) -0.0421(3)
H4B H 0.1953 0.0189 -0.0060
H5B H 0.193(8) -0.079(3) -0.040(5)
O4B O 0.2857(8) 0.3421(4) 0.0169(3)
O5B O 0.2245(6) 0.1232(4) 0.1041(4)
O6B O 0.4937(5) 0.1275(3) 0.1007(3)
N1B N 0.4680(6) 0.3871(3) 0.3758(3)
N1C N 0.5320(6) -0.1129(3) 0.1242(3)
N1A N 0.4680(6) 0.1129(3) -0.1242(3)
C1B C 0.4057(7) 0.4192(4) 0.2792(4)
H6B H 0.3825 0.4913 0.2674
C2B C 0.3740(7) 0.3515(4) 0.1960(4)
C3B C 0.4056(7) 0.2424(4) 0.2132(4)
C4B C 0.4708(8) 0.2095(4) 0.3127(4)
H7B H 0.4948 0.1378 0.3269
C5B C 0.5002(8) 0.2829(4) 0.3908(4)
H8B H 0.5445 0.2588 0.4569
C6B C 0.3117(8) 0.3956(4) 0.0910(4)
C7B C 0.3699(7) 0.1590(4) 0.1293(4)
S1 S 0.8033(3) 0.46700(18) 0.18133(15)
O7 O 0.8170(9) 0.4130(4) 0.0852(4)
C8 C 0.9600(11) 0.5668(7) 0.2066(6)
H9 H 0.9336 0.6198 0.1541
H10 H 1.0665 0.5352 0.2086
H11 H 0.9650 0.5995 0.2709
C9 C 0.8952(13) 0.3754(9) 0.2779(6)
H12 H 0.8275 0.3123 0.2704
H13 H 0.9028 0.4070 0.3430
H14 H 1.0053 0.3571 0.2729
O2 O 0.9069(8) 0.2118(4) 0.0242(5)
H2 H 0.936(14) 0.200(7) 0.088(2)
H3 H 0.904(13) 0.2799(17) 0.026(6)
loop_
_geom_bond_atom_site_label_1
_geom_bond_atom_site_label_2
_geom_bond_site_symmetry_1
_geom_bond_site_symmetry_2
Zn1 O3 1_555 1_555
S1 O7 1_555 1_555
O1 H1 1_555 1_555
O2 H2 1_555 1_555
H3 O2 1_555 1_555
O3 H4 1_555 1_555
H5 O3 1_555 1_555
O4 C6 1_555 1_555
O5 C7 1_555 1_555
O6 Zn1 1_555 1_555
N1 C1 1_555 1_555
C1 H6 1_555 1_555
C2 C1 1_555 1_555
C3 C2 1_555 1_555
C4 C3 1_555 1_555
H7 C4 1_555 1_555
C5 N1 1_555 1_555
H8 C5 1_555 1_555
C6 O1 1_555 1_555
C7 O6 1_555 1_555
C8 S1 1_555 1_555
H9 C8 1_555 1_555
H10 C8 1_555 1_555
H11 C8 1_555 1_555
C9 S1 1_555 1_555
H12 C9 1_555 1_555
H13 C9 1_555 1_555
H14 C9 1_555 1_555
Zn1C N1 1_555 1_555
Zn1C_2 N1B 1_555 1_555
O1B H1B 1_555 1_555
O3B Zn1 1_555 1_555
H4B O3B 1_555 1_555
H5B O3B 1_555 1_555
O4B C6B 1_555 1_555
O5B C7B 1_555 1_555
O6B Zn1 1_555 1_555
N1B C1B 1_555 1_555
N1C Zn1 1_555 1_555
N1A Zn1 1_555 1_555
C1B H6B 1_555 1_555
C2B C1B 1_555 1_555
C3B C2B 1_555 1_555
C4B C3B 1_555 1_555
H7B C4B 1_555 1_555
C5B N1B 1_555 1_555
H8B C5B 1_555 1_555
C6B O1B 1_555 1_555
C7B O6B 1_555 1_555
C2 C6 1_555 1_555
C3 C7 1_555 1_555
C4 C5 1_555 1_555
C2B C6B 1_555 1_555
C3B C7B 1_555 1_555
C4B C5B 1_555 1_555

#END
