
#######################################################################
#
#                 Cambridge Crystallographic Data Centre
#                                CCDC 
#
#######################################################################
#
# If this CIF has been generated from an entry in the Cambridge 
# Structural Database, then it will include bibliographic, chemical, 
# crystal, experimental, refinement or atomic coordinate data resulting 
# from the CCDC's data processing and validation procedures.
#
#######################################################################

data_MEGDAF
_symmetry_cell_setting           orthorhombic
_symmetry_space_group_name_H-M   'P 21 21 21'
_symmetry_Int_Tables_number      19
_space_group_name_Hall           'P 2ac 2ab'
loop_
_symmetry_equiv_pos_site_id
_symmetry_equiv_pos_as_xyz
1 x,y,z
2 1/2-x,-y,1/2+z
3 1/2+x,1/2-y,-z
4 -x,1/2+y,1/2-z
_cell_length_a                   9.2021(3)
_cell_length_b                   10.0062(4)
_cell_length_c                   17.8241(6)
_cell_angle_alpha                90
_cell_angle_beta                 90
_cell_angle_gamma                90
_cell_volume                     1641.21
loop_
_atom_site_label
_atom_site_type_symbol
_atom_site_fract_x
_atom_site_fract_y
_atom_site_fract_z
C1 C 0.9232(2) 0.6179(2) 0.73775(13)
C2 C 1.0772(2) 0.6150(2) 0.71347(14)
C3 C 1.1234(3) 0.4706(2) 0.69977(16)
H1 H 1.1032 0.4171 0.7446
H2 H 1.2277 0.4676 0.6887
H3 H 1.0691 0.4342 0.6571
C4 C 1.1695(2) 0.6780(3) 0.77569(14)
H4 H 1.1403 0.7713 0.7828
H5 H 1.2723 0.6743 0.7615
H6 H 1.1549 0.6286 0.8226
C5 C 1.0878(3) 0.6968(3) 0.64113(14)
H7 H 1.0243 0.6576 0.6029
H8 H 1.1884 0.6963 0.6231
H9 H 1.0575 0.7890 0.6511
C6 C 0.4588(2) 0.8273(2) 0.90675(12)
C7 C 0.3866(3) 0.9074(2) 0.96577(13)
C8 C 0.2576(3) 0.9804(3) 0.93078(16)
H10 H 0.2922 1.0388 0.8904
H11 H 0.2089 1.0343 0.9692
H12 H 0.1891 0.9150 0.9103
C9 C 0.4954(3) 1.0106(3) 0.99470(18)
H13 H 0.5798 0.9646 1.0161
H14 H 0.4492 1.0657 1.0334
H15 H 0.5271 1.0677 0.9531
C10 C 0.3405(4) 0.8149(3) 1.02891(17)
H16 H 0.2714 0.7487 1.0096
H17 H 0.2942 0.8672 1.0688
H18 H 0.4261 0.7690 1.0491
C11 C 0.3585(3) 0.3932(2) 0.90771(14)
N1 N 0.8046(2) 0.6246(2) 0.75617(11)
N2 N 0.5154(2) 0.76504(19) 0.86188(11)
O1 O 0.48795(16) 0.47135(14) 0.78701(9)
O2 O 0.49748(19) 0.23510(15) 0.81952(9)
O3 O 0.63648(18) 0.39671(17) 0.89221(10)
F1 F 0.23277(14) 0.37229(15) 0.87252(9)
F2 F 0.36469(19) 0.30789(15) 0.96490(8)
F3 F 0.35513(16) 0.51633(14) 0.93615(8)
S1 S 0.51355(6) 0.37214(5) 0.84478(3)
Cu1 Cu 0.61012(3) 0.66230(3) 0.786091(15)
O2C O 0.50252(19) 0.73510(15) 0.68048(9)
Cu1C Cu 0.38988(3) 0.16230(3) 0.713909(15)
loop_
_geom_bond_atom_site_label_1
_geom_bond_atom_site_label_2
_geom_bond_site_symmetry_1
_geom_bond_site_symmetry_2
C1 C2 1_555 1_555
C2 C3 1_555 1_555
C3 H1 1_555 1_555
H2 C3 1_555 1_555
H3 C3 1_555 1_555
C4 C2 1_555 1_555
H4 C4 1_555 1_555
H5 C4 1_555 1_555
H6 C4 1_555 1_555
C5 C2 1_555 1_555
H7 C5 1_555 1_555
H8 C5 1_555 1_555
H9 C5 1_555 1_555
C6 C7 1_555 1_555
C7 C8 1_555 1_555
C8 H10 1_555 1_555
H11 C8 1_555 1_555
H12 C8 1_555 1_555
C9 C7 1_555 1_555
H13 C9 1_555 1_555
H14 C9 1_555 1_555
H15 C9 1_555 1_555
C10 C7 1_555 1_555
H16 C10 1_555 1_555
H17 C10 1_555 1_555
H18 C10 1_555 1_555
C11 F1 1_555 1_555
N1 C1 1_555 1_555
N2 C6 1_555 1_555
O1 S1 1_555 1_555
O2 S1 1_555 1_555
O3 S1 1_555 1_555
F2 C11 1_555 1_555
F3 C11 1_555 1_555
S1 C11 1_555 1_555
Cu1 N1 1_555 1_555
O2C Cu1 1_555 1_555
Cu1C O2 1_555 1_555
N2 Cu1 1_555 1_555
O1 Cu1 1_555 1_555

#END
