
#######################################################################
#
#                 Cambridge Crystallographic Data Centre
#                                CCDC 
#
#######################################################################
#
# If this CIF has been generated from an entry in the Cambridge 
# Structural Database, then it will include bibliographic, chemical, 
# crystal, experimental, refinement or atomic coordinate data resulting 
# from the CCDC's data processing and validation procedures.
#
#######################################################################

data_MEGMOB01
_symmetry_cell_setting           monoclinic
_symmetry_space_group_name_H-M   'C 2/c'
_symmetry_Int_Tables_number      15
_space_group_name_Hall           '-C 2yn'
loop_
_symmetry_equiv_pos_site_id
_symmetry_equiv_pos_as_xyz
1 x,y,z
2 -x,y,1/2-z
3 1/2+x,1/2+y,z
4 1/2-x,1/2+y,1/2-z
5 -x,-y,-z
6 x,-y,1/2+z
7 1/2-x,1/2-y,-z
8 1/2+x,1/2-y,1/2+z
_cell_length_a                   28.913(2)
_cell_length_b                   10.9020(9)
_cell_length_c                   12.8709(11)
_cell_angle_alpha                90
_cell_angle_beta                 113.545(1)
_cell_angle_gamma                90
_cell_volume                     3719.27
loop_
_atom_site_label
_atom_site_type_symbol
_atom_site_fract_x
_atom_site_fract_y
_atom_site_fract_z
Co1 Co 0.137033(10) 0.47655(2) 0.00573(2)
Br1 Br 0.049456(8) 0.26489(2) 0.19770(2)
O1 O 0.13011(6) 0.50325(13) 0.16472(12)
O2 O 0.13513(6) 0.52954(13) 0.33795(12)
O3 O 0.30781(6) 0.24365(13) 0.40831(15)
O4 O 0.29147(5) 0.04621(13) 0.42737(13)
O5 O 0.10141(6) 0.65458(13) -0.01883(12)
H1 H 0.1286 0.6920 0.0095
H2 H 0.0886 0.6744 -0.0885
N1 N 0.06771(6) 0.37826(15) -0.05766(14)
N2 N 0.16265(6) 0.29277(14) 0.02904(14)
C1 C 0.15427(7) 0.33052(18) 0.28579(16)
C2 C 0.20516(8) 0.30264(18) 0.33119(17)
H3 H 0.2285 0.3662 0.3497
C3 C 0.22243(8) 0.18207(18) 0.34997(17)
C4 C 0.18735(8) 0.08701(19) 0.32121(18)
H4 H 0.1984 0.0060 0.3326
C5 C 0.13635(8) 0.11226(19) 0.27589(18)
H5 H 0.1130 0.0487 0.2570
C6 C 0.12016(8) 0.23333(18) 0.25874(17)
C7 C 0.13826(7) 0.46318(18) 0.26160(16)
C8 C 0.27805(8) 0.15575(18) 0.39868(17)
C9 C 0.02094(8) 0.4219(2) -0.09929(19)
H6 H 0.0163 0.5064 -0.1036
C10 C -0.02179(9) 0.3461(2) -0.1371(2)
H7 H -0.0539 0.3802 -0.1660
C11 C -0.01581(9) 0.2222(2) -0.1313(2)
H8 H -0.0439 0.1711 -0.1558
C12 C 0.03296(8) 0.1716(2) -0.08797(19)
C13 C 0.04345(10) 0.0422(2) -0.0772(2)
H9 H 0.0168 -0.0132 -0.1008
C14 C 0.09102(10) -0.0004(2) -0.0339(2)
H10 H 0.0965 -0.0847 -0.0274
C15 C 0.13359(8) 0.08121(19) 0.00262(18)
C16 C 0.18388(9) 0.0424(2) 0.04800(19)
H11 H 0.1915 -0.0408 0.0553
C17 C 0.22176(9) 0.1273(2) 0.08149(19)
H12 H 0.2553 0.1022 0.1107
C18 C 0.20973(8) 0.25215(19) 0.07157(18)
H13 H 0.2359 0.3090 0.0959
C19 C 0.12454(8) 0.20847(17) -0.00602(16)
C20 C 0.07387(8) 0.25412(17) -0.05190(17)
Co1E Co 0.137033(10) 0.52345(2) 0.50573(2)
Co1C Co 0.362967(10) -0.02345(2) 0.49427(2)
O2E O 0.13513(6) 0.47046(13) -0.16205(12)
O4C O 0.20853(5) 0.54621(13) 0.07263(13)
O6 O 0.14972(9) 0.78707(17) 0.26341(18)
H14 H 0.1440 0.7175 0.2809
H15 H 0.1613 0.7836 0.2140
loop_
_geom_bond_atom_site_label_1
_geom_bond_atom_site_label_2
_geom_bond_site_symmetry_1
_geom_bond_site_symmetry_2
Co1 O1 1_555 1_555
Br1 C6 1_555 1_555
O1 C7 1_555 1_555
O2 C7 1_555 1_555
O3 C8 1_555 1_555
O4 C8 1_555 1_555
O5 Co1 1_555 1_555
H1 O5 1_555 1_555
H2 O5 1_555 1_555
N1 Co1 1_555 1_555
N2 Co1 1_555 1_555
C1 C2 1_555 1_555
C2 H3 1_555 1_555
C3 C2 1_555 1_555
C4 C3 1_555 1_555
H4 C4 1_555 1_555
C5 C4 1_555 1_555
H5 C5 1_555 1_555
C6 C1 1_555 1_555
C7 C1 1_555 1_555
C8 C3 1_555 1_555
C9 N1 1_555 1_555
H6 C9 1_555 1_555
C10 C9 1_555 1_555
H7 C10 1_555 1_555
C11 C10 1_555 1_555
H8 C11 1_555 1_555
C12 C11 1_555 1_555
C13 C12 1_555 1_555
H9 C13 1_555 1_555
C14 C13 1_555 1_555
H10 C14 1_555 1_555
C15 C14 1_555 1_555
C16 C15 1_555 1_555
H11 C16 1_555 1_555
C17 C16 1_555 1_555
H12 C17 1_555 1_555
C18 N2 1_555 1_555
H13 C18 1_555 1_555
C19 N2 1_555 1_555
C20 N1 1_555 1_555
O6 H14 1_555 1_555
H15 O6 1_555 1_555
Co1E O2 1_555 1_555
Co1C O4 1_555 1_555
O2E Co1 1_555 1_555
O4C Co1 1_555 1_555
C5 C6 1_555 1_555
C12 C20 1_555 1_555
C15 C19 1_555 1_555
C17 C18 1_555 1_555
C19 C20 1_555 1_555

#END
