
#######################################################################
#
#                 Cambridge Crystallographic Data Centre
#                                CCDC 
#
#######################################################################
#
# If this CIF has been generated from an entry in the Cambridge 
# Structural Database, then it will include bibliographic, chemical, 
# crystal, experimental, refinement or atomic coordinate data resulting 
# from the CCDC's data processing and validation procedures.
#
#######################################################################

data_MEGZII02
_symmetry_cell_setting           monoclinic
_symmetry_space_group_name_H-M   'P 21/n'
_symmetry_Int_Tables_number      14
_space_group_name_Hall           '-P 2yn'
loop_
_symmetry_equiv_pos_site_id
_symmetry_equiv_pos_as_xyz
1 x,y,z
2 1/2-x,1/2+y,1/2-z
3 -x,-y,-z
4 1/2+x,1/2-y,1/2+z
_cell_length_a                   3.8452(8)
_cell_length_b                   18.753(4)
_cell_length_c                   8.0557(16)
_cell_angle_alpha                90
_cell_angle_beta                 93.49(3)
_cell_angle_gamma                90
_cell_volume                     579.811
loop_
_atom_site_label
_atom_site_type_symbol
_atom_site_fract_x
_atom_site_fract_y
_atom_site_fract_z
Cd1 Cd 0.0000 0.5000 0.5000
S1 S 0.44849(18) 0.60177(4) 0.50264(7)
O1 O 0.1673(7) 0.51307(11) 0.7743(3)
N1 N 0.3058(5) 0.57520(11) 0.8218(2)
C1 C 0.3118(7) 0.58990(16) 0.9875(3)
H1 H 0.2239 0.5566 1.0596
C2 C 0.4441(9) 0.65238(18) 1.0493(4)
H2 H 0.4501 0.6614 1.1629
C3 C 0.5697(9) 0.70235(18) 0.9417(4)
H3 H 0.6535 0.7460 0.9815
C4 C 0.5688(8) 0.68659(14) 0.7766(4)
H4 H 0.6563 0.7200 0.7047
C5 C 0.4407(7) 0.62183(13) 0.7117(3)
S1B S -0.44849(18) 0.39823(4) 0.49736(7)
O1B O -0.1673(7) 0.48693(11) 0.2257(3)
N1B N -0.3058(5) 0.42480(11) 0.1782(2)
C1B C -0.3118(7) 0.41010(16) 0.0125(3)
H1B H -0.2239 0.4434 -0.0596
C2B C -0.4441(9) 0.34762(18) -0.0493(4)
H2B H -0.4501 0.3386 -0.1629
C3B C -0.5697(9) 0.29765(18) 0.0583(4)
H3B H -0.6535 0.2540 0.0185
C4B C -0.5688(8) 0.31341(14) 0.2234(4)
H4B H -0.6563 0.2800 0.2953
C5B C -0.4407(7) 0.37817(13) 0.2883(3)
Cd1_2 Cd -1.0000 0.5000 0.5000
Cd1_3 Cd 1.0000 0.5000 0.5000
S1_2 S -0.55151(18) 0.60177(4) 0.50264(7)
S1B_2 S 0.55151(18) 0.39823(4) 0.49736(7)
loop_
_geom_bond_atom_site_label_1
_geom_bond_atom_site_label_2
_geom_bond_site_symmetry_1
_geom_bond_site_symmetry_2
Cd1 S1 1_555 1_555
S1 C5 1_555 1_555
O1 Cd1 1_555 1_555
N1 O1 1_555 1_555
C1 N1 1_555 1_555
H1 C1 1_555 1_555
C2 C1 1_555 1_555
H2 C2 1_555 1_555
C3 C2 1_555 1_555
H3 C3 1_555 1_555
C4 C3 1_555 1_555
H4 C4 1_555 1_555
C5 N1 1_555 1_555
S1B Cd1 1_555 1_555
O1B Cd1 1_555 1_555
N1B O1B 1_555 1_555
C1B N1B 1_555 1_555
H1B C1B 1_555 1_555
C2B C1B 1_555 1_555
H2B C2B 1_555 1_555
C3B C2B 1_555 1_555
H3B C3B 1_555 1_555
C4B C3B 1_555 1_555
H4B C4B 1_555 1_555
C5B S1B 1_555 1_555
Cd1_2 S1B 1_555 1_555
Cd1_3 S1 1_555 1_555
S1_2 Cd1 1_555 1_555
S1B_2 Cd1 1_555 1_555
C4 C5 1_555 1_555
N1B C5B 1_555 1_555
C4B C5B 1_555 1_555
Cd1_2 S1_2 1_555 1_555
Cd1_3 S1B_2 1_555 1_555

#END
