
#######################################################################
#
#                 Cambridge Crystallographic Data Centre
#                                CCDC 
#
#######################################################################
#
# If this CIF has been generated from an entry in the Cambridge 
# Structural Database, then it will include bibliographic, chemical, 
# crystal, experimental, refinement or atomic coordinate data resulting 
# from the CCDC's data processing and validation procedures.
#
#######################################################################

data_MEHRIA
_symmetry_cell_setting           triclinic
_symmetry_space_group_name_H-M   'P 1'
_symmetry_Int_Tables_number      1
_space_group_name_Hall           'P 1'
loop_
_symmetry_equiv_pos_site_id
_symmetry_equiv_pos_as_xyz
1 x,y,z
_cell_length_a                   7.662(1)
_cell_length_b                   7.830(1)
_cell_length_c                   7.964(1)
_cell_angle_alpha                88.54(1)
_cell_angle_beta                 61.46(1)
_cell_angle_gamma                65.68(1)
_cell_volume                     373.624
loop_
_atom_site_label
_atom_site_type_symbol
_atom_site_fract_x
_atom_site_fract_y
_atom_site_fract_z
Zn1 Zn -1.1510 0.4700 0.7650
S1 S -0.3411(2) 0.3676(2) 0.3331(2)
S2 S -0.8285(2) 0.6689(1) 0.5716(1)
S3 S -0.3091(2) -0.0794(2) 0.5502(2)
S4 S -0.8062(2) 0.1605(1) 0.8339(1)
O2 O -0.7802(5) 0.7578(4) 0.4057(5)
O3 O -0.9694(5) 0.7931(4) 0.7627(4)
O4 O -0.7966(6) 0.3299(5) 0.8839(5)
O5 O -0.7690(5) 0.0174(4) 0.9474(4)
N1 N -1.4018(6) 0.6905(5) 0.9856(5)
N2 N -0.2937(5) 0.4309(5) 0.6179(5)
N3 N -0.5143(6) 0.5556(5) 0.6785(5)
N4 N 0.0298(6) 0.1876(5) 0.3554(5)
N5 N -0.9116(5) 0.5233(5) 0.5585(5)
N6 N -0.3906(6) -0.0509(6) 0.2697(5)
N7 N -0.5946(6) 0.0474(5) 0.4405(5)
N8 N -0.0103(6) -0.2334(7) 0.1664(6)
N9 N -1.0218(5) 0.2184(4) 0.8291(5)
C1 C -0.1815(6) 0.3215(6) 0.4428(6)
C2 C -0.5611(6) 0.5362(6) 0.5474(6)
C3 C -0.2249(7) -0.1270(6) 0.3029(6)
C4 C -0.5757(6) 0.0436(6) 0.5937(6)
H1 H -1.338 0.747 1.033
H2 H -1.518 0.789 0.964
H3 H -1.445 0.615 1.053
H4 H 0.120 0.159 0.414
H5 H 0.082 0.122 0.234
H6 H -0.819 0.441 0.431
H7 H 0.082 -0.245 0.188
H8 H 0.002 -0.238 0.064
H9 H -1.010 0.072 0.808
Zn1_2 Zn -0.1510 0.4700 0.7650
N2_2 N -1.2937(5) 0.4309(5) 0.6179(5)
O1 O 0.4166(7) 0.3447(7) 1.1052(6)
H10 H 0.398 0.348 1.061
loop_
_geom_bond_atom_site_label_1
_geom_bond_atom_site_label_2
_geom_bond_site_symmetry_1
_geom_bond_site_symmetry_2
Zn1 N1 1_555 1_555
S1 C1 1_555 1_555
S2 O2 1_555 1_555
S3 C3 1_555 1_555
S4 O4 1_555 1_555
O1 H10 1_555 1_555
O3 S2 1_555 1_555
O5 S4 1_555 1_555
N1 H1 1_555 1_555
N2 N3 1_555 1_555
N3 C2 1_555 1_555
N4 C1 1_555 1_555
N5 Zn1 1_555 1_555
N6 N7 1_555 1_555
N7 C4 1_555 1_555
N8 C3 1_555 1_555
N9 Zn1 1_555 1_555
C1 N2 1_555 1_555
C2 S1 1_555 1_555
C3 N6 1_555 1_555
C4 S3 1_555 1_555
H2 N1 1_555 1_555
H3 N1 1_555 1_555
H4 N4 1_555 1_555
H5 N4 1_555 1_555
H6 N5 1_555 1_555
H7 N8 1_555 1_555
H8 N8 1_555 1_555
H9 N9 1_555 1_555
Zn1_2 N2 1_555 1_555
N2_2 Zn1 1_555 1_555
S2 N5 1_555 1_555
S2 C2 1_555 1_555
S4 N9 1_555 1_555
S4 C4 1_555 1_555

#END
