
#######################################################################
#
#                 Cambridge Crystallographic Data Centre
#                                CCDC 
#
#######################################################################
#
# If this CIF has been generated from an entry in the Cambridge 
# Structural Database, then it will include bibliographic, chemical, 
# crystal, experimental, refinement or atomic coordinate data resulting 
# from the CCDC's data processing and validation procedures.
#
#######################################################################

data_MEHYEF
_symmetry_cell_setting           orthorhombic
_symmetry_space_group_name_H-M   'P n m a'
_symmetry_Int_Tables_number      62
_space_group_name_Hall           '-P 2ac 2n'
loop_
_symmetry_equiv_pos_site_id
_symmetry_equiv_pos_as_xyz
1 x,y,z
2 1/2-x,-y,1/2+z
3 1/2+x,1/2-y,1/2-z
4 -x,1/2+y,-z
5 -x,-y,-z
6 1/2+x,y,1/2-z
7 1/2-x,1/2+y,1/2+z
8 x,1/2-y,z
_cell_length_a                   14.0324(13)
_cell_length_b                   6.4352(10)
_cell_length_c                   16.3314(16)
_cell_angle_alpha                90
_cell_angle_beta                 90
_cell_angle_gamma                90
_cell_volume                     1474.75
loop_
_atom_site_label
_atom_site_type_symbol
_atom_site_fract_x
_atom_site_fract_y
_atom_site_fract_z
O1 O 0.26986(18) 0.4216(4) 0.95643(16)
O3 O 0.5155(3) 0.2500 1.1462(3)
O4 O 0.4531(3) 0.2500 1.0234(2)
H1 H 0.5095 0.2500 1.0101
O5 O 0.0869(3) 0.2500 1.0020(3)
O6 O 0.0075(3) 0.2500 1.1173(3)
H2 H -0.0383 0.2500 1.0861
C1 C 0.2652(4) 0.2500 1.0856(3)
C2 C 0.3477(4) 0.2500 1.1350(3)
C3 C 0.3381(4) 0.2500 1.2206(4)
H5 H 0.3925 0.2500 1.2532
C4 C 0.2497(5) 0.2500 1.2574(4)
H6 H 0.2448 0.2500 1.3142
C5 C 0.1686(5) 0.2500 1.2099(3)
H7 H 0.1090 0.2500 1.2349
C6 C 0.1748(4) 0.2500 1.1250(3)
C7 C 0.4464(4) 0.2500 1.1029(4)
C8 C 0.2683(3) 0.2500 0.9928(3)
C9 C 0.0863(4) 0.2500 1.0748(3)
O1G O 0.26986(18) 0.0784(4) 0.95643(16)
O2 O 0.1402(3) 0.7500 0.9778(3)
H4 H 0.1823 0.8737 0.9740
H4G H 0.1823 0.6263 0.9740
Ag1 Ag 0.21397(3) 0.2500 0.81854(3)
N1 N 0.3673(3) 0.2500 0.7678(3)
N2 N 0.5586(3) 0.2500 0.7163(3)
C10 C 0.3924(4) 0.2500 0.6890(3)
H8 H 0.3445 0.2500 0.6496
C11 C 0.4857(4) 0.2500 0.6630(3)
H9 H 0.4987 0.2500 0.6072
C12 C 0.5340(4) 0.2500 0.7950(4)
H10 H 0.5819 0.2500 0.8344
C13 C 0.4398(4) 0.2500 0.8206(4)
H11 H 0.4268 0.2500 0.8764
Ag1B Ag 0.71397(3) 0.2500 0.68146(3)
N2B N 0.0586(3) 0.2500 0.7837(3)
O7 O 0.6284(3) 0.2500 0.9753(2)
H3 H 0.6754 0.3328 0.9791
H3G H 0.6754 0.1672 0.9791
loop_
_geom_bond_atom_site_label_1
_geom_bond_atom_site_label_2
_geom_bond_site_symmetry_1
_geom_bond_site_symmetry_2
O1 C8 1_555 1_555
O2 H4 1_555 1_555
Ag1 N1 1_555 1_555
N1 C10 1_555 1_555
N2 C11 1_555 1_555
O3 C7 1_555 1_555
O4 H1 1_555 1_555
O5 C9 1_555 1_555
O6 H2 1_555 1_555
O7 H3 1_555 1_555
C1 C2 1_555 1_555
C2 C3 1_555 1_555
C3 H5 1_555 1_555
C4 C3 1_555 1_555
H6 C4 1_555 1_555
C5 C4 1_555 1_555
H7 C5 1_555 1_555
C6 C1 1_555 1_555
C7 O4 1_555 1_555
C8 C1 1_555 1_555
C9 O6 1_555 1_555
C10 H8 1_555 1_555
C11 C10 1_555 1_555
H9 C11 1_555 1_555
C12 N2 1_555 1_555
H10 C12 1_555 1_555
C13 N1 1_555 1_555
H11 C13 1_555 1_555
O1G C8 1_555 1_555
Ag1B N2 1_555 1_555
N2B Ag1 1_555 1_555
H3G O7 1_555 1_555
H4G O2 1_555 1_555
C2 C7 1_555 1_555
C5 C6 1_555 1_555
C6 C9 1_555 1_555
C12 C13 1_555 1_555

#END
