
#######################################################################
#
#                 Cambridge Crystallographic Data Centre
#                                CCDC 
#
#######################################################################
#
# If this CIF has been generated from an entry in the Cambridge 
# Structural Database, then it will include bibliographic, chemical, 
# crystal, experimental, refinement or atomic coordinate data resulting 
# from the CCDC's data processing and validation procedures.
#
#######################################################################

data_MEJQEZ
_symmetry_cell_setting           orthorhombic
_symmetry_space_group_name_H-M   'P n a 21'
_symmetry_Int_Tables_number      33
_space_group_name_Hall           'P 2c -2n'
loop_
_symmetry_equiv_pos_site_id
_symmetry_equiv_pos_as_xyz
1 x,y,z
2 -x,-y,1/2+z
3 1/2+x,1/2-y,z
4 1/2-x,1/2+y,1/2+z
_cell_length_a                   18.6244(4)
_cell_length_b                   10.2696(3)
_cell_length_c                   8.7992(2)
_cell_angle_alpha                90
_cell_angle_beta                 90
_cell_angle_gamma                90
_cell_volume                     1682.98
loop_
_atom_site_label
_atom_site_type_symbol
_atom_site_fract_x
_atom_site_fract_y
_atom_site_fract_z
Zn1 Zn 0.400826(16) -0.02643(3) -0.13311(6)
C1 C 0.5005(2) -0.0264(4) 0.1219(5)
H1 H 0.4720 0.0371 0.1672
N1 N 0.48295(14) -0.0818(3) -0.0102(3)
N2 N 0.54425(14) -0.2453(3) -0.1607(4)
C2 C 0.60393(18) -0.3166(4) -0.1532(6)
H2 H 0.6121 -0.3710 -0.2359
N3 N 0.56143(14) -0.0680(3) 0.1845(3)
C3 C 0.64678(17) -0.2424(4) 0.0766(4)
N4 N 0.65372(15) -0.3213(3) -0.0444(4)
C4 C 0.58632(17) -0.1601(4) 0.0810(4)
C5 C 0.53781(16) -0.1674(3) -0.0380(4)
N5 N 0.69760(16) -0.2450(3) 0.1841(4)
H3 H 0.7338 -0.2965 0.1749
H4 H 0.6941 -0.1952 0.2623
O1 O 0.33923(12) 0.0981(3) -0.0327(3)
N6 N 0.16297(14) 0.3335(3) 0.2806(3)
O2 O 0.31494(14) -0.0514(3) 0.1430(3)
C6 C 0.30689(19) 0.0558(4) 0.0866(4)
C7 C 0.25906(19) 0.2829(4) 0.1139(4)
H5 H 0.2924 0.3109 0.0424
C8 C 0.25562(18) 0.1530(4) 0.1552(4)
C9 C 0.21234(19) 0.3700(4) 0.1801(5)
H6 H 0.2154 0.4575 0.1536
C10 C 0.15930(19) 0.2073(4) 0.3218(4)
H7 H 0.1251 0.1815 0.3928
C11 C 0.2049(2) 0.1161(4) 0.2615(5)
H8 H 0.2017 0.0295 0.2919
Zn1A Zn 0.599174(16) 0.02643(3) 0.36689(6)
Zn1C Zn 0.099174(16) 0.47357(3) 0.36689(6)
N3A N 0.43857(14) 0.0680(3) -0.3155(3)
N6C N 0.33703(14) -0.1665(3) -0.2194(3)
O3 O 0.0855(2) -0.0477(4) 0.4800(5)
N7 N 0.0027(3) -0.0968(5) 0.2942(5)
H9 H 0.0234 -0.0587 0.2191
N8 N -0.0146(2) -0.1735(5) 0.5204(5)
H10 H -0.0098 -0.1835 0.6169
C12 C -0.0712(3) -0.2321(6) 0.4348(6)
H11 H -0.1176 -0.2165 0.4815
H12 H -0.0639 -0.3252 0.4241
C13 C 0.0307(3) -0.1006(6) 0.4354(6)
C14 C -0.0649(3) -0.1625(6) 0.2814(6)
H13 H -0.0646 -0.2242 0.1980
H14 H -0.1039 -0.1011 0.2669
loop_
_geom_bond_atom_site_label_1
_geom_bond_atom_site_label_2
_geom_bond_site_symmetry_1
_geom_bond_site_symmetry_2
Zn1 N1 1_555 1_555
C1 H1 1_555 1_555
N1 C1 1_555 1_555
N2 C2 1_555 1_555
C2 H2 1_555 1_555
N3 C1 1_555 1_555
C3 N4 1_555 1_555
N4 C2 1_555 1_555
C4 N3 1_555 1_555
C5 N1 1_555 1_555
N5 C3 1_555 1_555
H3 N5 1_555 1_555
H4 N5 1_555 1_555
O1 Zn1 1_555 1_555
N6 C9 1_555 1_555
O2 C6 1_555 1_555
C6 O1 1_555 1_555
C7 H5 1_555 1_555
C8 C6 1_555 1_555
C9 C7 1_555 1_555
H6 C9 1_555 1_555
C10 N6 1_555 1_555
H7 C10 1_555 1_555
C11 C8 1_555 1_555
H8 C11 1_555 1_555
O3 C13 1_555 1_555
N7 H9 1_555 1_555
N8 H10 1_555 1_555
C12 N8 1_555 1_555
H11 C12 1_555 1_555
H12 C12 1_555 1_555
C13 N7 1_555 1_555
C14 N7 1_555 1_555
H13 C14 1_555 1_555
H14 C14 1_555 1_555
Zn1A N3 1_555 1_555
Zn1C N6 1_555 1_555
N3A Zn1 1_555 1_555
N6C Zn1 1_555 1_555
N2 C5 1_555 1_555
C3 C4 1_555 1_555
C4 C5 1_555 1_555
C7 C8 1_555 1_555
C10 C11 1_555 1_555
N8 C13 1_555 1_555
C12 C14 1_555 1_555

#END
