
#######################################################################
#
#                 Cambridge Crystallographic Data Centre
#                                CCDC 
#
#######################################################################
#
# If this CIF has been generated from an entry in the Cambridge 
# Structural Database, then it will include bibliographic, chemical, 
# crystal, experimental, refinement or atomic coordinate data resulting 
# from the CCDC's data processing and validation procedures.
#
#######################################################################

data_MEKHUH
_symmetry_cell_setting           monoclinic
_symmetry_space_group_name_H-M   'P 21/c'
_symmetry_Int_Tables_number      14
_space_group_name_Hall           '-P 2ybc'
loop_
_symmetry_equiv_pos_site_id
_symmetry_equiv_pos_as_xyz
1 x,y,z
2 -x,1/2+y,1/2-z
3 -x,-y,-z
4 x,1/2-y,1/2+z
_cell_length_a                   6.1088(4)
_cell_length_b                   20.6761(15)
_cell_length_c                   16.9831(11)
_cell_angle_alpha                90
_cell_angle_beta                 106.878(2)
_cell_angle_gamma                90
_cell_volume                     2052.67
loop_
_atom_site_label
_atom_site_type_symbol
_atom_site_fract_x
_atom_site_fract_y
_atom_site_fract_z
N1 N 1.0353(3) 0.19961(9) 0.64426(11)
C1 C 0.9964(4) 0.11198(11) 0.11316(13)
C2 C 1.0074(4) 0.13690(10) 0.19775(13)
C3 C 1.2113(4) 0.12718(12) 0.25939(14)
H1 H 1.3287 0.1037 0.2482
C4 C 0.8286(4) 0.17134(10) 0.21506(13)
C5 C 1.2409(4) 0.15222(12) 0.33749(13)
H2 H 1.3795 0.1467 0.3780
C6 C 0.8597(4) 0.19462(11) 0.29471(13)
H3 H 0.7410 0.2166 0.3071
C7 C 1.0643(4) 0.18550(11) 0.35538(13)
C8 C 1.0922(4) 0.21171(11) 0.43965(13)
O1 O 0.9281(4) 0.23710(10) 0.45743(11)
O2 O 1.2845(3) 0.20796(9) 0.49405(9)
C9 C 0.6084(4) 0.18498(12) 0.15001(13)
C10 C 1.1498(4) 0.18110(13) 0.72150(15)
H4 H 1.2949 0.1979 0.7459
C11 C 1.0585(5) 0.13826(14) 0.76506(16)
H5 H 1.1417 0.1267 0.8183
C12 C 0.8451(5) 0.11232(14) 0.73059(16)
H6 H 0.7821 0.0833 0.7598
C13 C 0.7259(4) 0.13054(12) 0.65103(14)
C14 C 0.8265(4) 0.17443(11) 0.61064(14)
H7 H 0.7454 0.1871 0.5576
C15 C 0.4020(4) 0.05275(12) 0.62097(16)
C16 C 0.1708(4) 0.04090(13) 0.55779(16)
H8 H 0.0868 0.0819 0.5489
C17 C 0.1995(4) 0.01951(15) 0.47607(16)
H9 H 0.2880 -0.0202 0.4840
H10 H 0.2844 0.0523 0.4564
C18 C 0.0292(4) -0.00822(14) 0.58874(16)
H11 H 0.0029 0.0075 0.6390
H12 H 0.1123 -0.0487 0.6010
N2 N 0.5054(3) 0.10801(10) 0.60791(13)
H13 H 0.4273 0.1323 0.5686
O3 O 0.9533(3) 0.05320(8) 0.09937(10)
O4 O 1.0471(3) 0.14968(8) 0.06321(9)
O5 O 0.7104(4) -0.05488(11) 0.00974(14)
H14 H 0.6791 -0.0444 0.0518
O6 O 1.2223(4) -0.05684(11) 0.08693(13)
H15 H 1.2664 -0.0870 0.0641
O7 O 0.4757(3) 0.22554(8) 0.16883(10)
O8 O 0.5655(3) 0.15782(10) 0.08222(10)
O9 O 0.4884(3) 0.01540(10) 0.67689(13)
Co1 Co 1.18568(5) 0.262834(16) 0.581004(18)
Co2 Co 1.0000 0.0000 0.0000
H19 H 1.3455 -0.0352 0.1098
H21 H 0.6465 -0.0764 -0.0344
N1B N -1.0353(3) -0.19961(9) 0.35574(11)
N1B_2 N 0.9647(3) -0.19961(9) -0.64426(11)
C1B C 1.0036(4) -0.11198(11) -0.11316(13)
C2B C 0.9926(4) -0.13690(10) -0.19775(13)
C3B C 0.7887(4) -0.12718(12) -0.25939(14)
H1B H 0.6713 -0.1037 -0.2482
C4B C 1.1714(4) -0.17134(10) -0.21506(13)
C5B C 0.7591(4) -0.15222(12) -0.33749(13)
H2B H 0.6205 -0.1467 -0.3780
C6B C 1.1403(4) -0.19462(11) -0.29471(13)
H3B H 1.2590 -0.2166 -0.3071
C7B C 0.9357(4) -0.18550(11) -0.35538(13)
C8B C 0.9078(4) -0.21171(11) -0.43965(13)
O1B O 1.0719(4) -0.23710(10) -0.45743(11)
O2B O 0.7155(3) -0.20796(9) -0.49405(9)
C9B C 1.3916(4) -0.18498(12) -0.15001(13)
C10B C -1.1498(4) -0.18110(13) 0.27850(15)
H4B H -1.2949 -0.1979 0.2541
C11B C -1.0585(5) -0.13826(14) 0.23494(16)
H5B H -1.1417 -0.1267 0.1817
C12B C -0.8451(5) -0.11232(14) 0.26941(16)
H6B H -0.7821 -0.0833 0.2402
C13B C -0.7259(4) -0.13054(12) 0.34897(14)
C14B C -0.8265(4) -0.17443(11) 0.38936(14)
H7B H -0.7454 -0.1871 0.4424
C15B C -0.4020(4) -0.05275(12) 0.37903(16)
C16B C -0.1708(4) -0.04090(13) 0.44221(16)
H8B H -0.0868 -0.0819 0.4511
C17B C -0.1995(4) -0.01951(15) 0.52393(16)
H9B H -0.2880 0.0202 0.5160
H10B H -0.2844 -0.0523 0.5436
C18B C -0.0292(4) 0.00822(14) 0.41126(16)
H11B H -0.0029 -0.0075 0.3610
H12B H -0.1123 0.0487 0.3990
N2B N -0.5054(3) -0.10801(10) 0.39209(13)
H13B H -0.4273 -0.1323 0.4314
O3B O 1.0467(3) -0.05320(8) -0.09937(10)
O4B O 0.9529(3) -0.14968(8) -0.06321(9)
O4C O 1.0471(3) 0.35032(8) 0.56321(9)
O4A O 0.9529(3) -0.35032(8) -0.56321(9)
O5B O 1.2896(4) 0.05488(11) -0.00974(14)
H14B H 1.3209 0.0444 -0.0518
O6B O 0.7777(4) 0.05684(11) -0.08693(13)
H15B H 0.7336 0.0870 -0.0641
O7B O 1.5243(3) -0.22554(8) -0.16883(10)
O7C O 1.4757(3) 0.27446(8) 0.66883(10)
O7A O 0.5243(3) -0.27446(8) -0.66883(10)
O8B O 1.4345(3) -0.15782(10) -0.08222(10)
O9B O -0.4884(3) -0.01540(10) 0.32311(13)
Co1B Co 0.81432(5) -0.262834(16) -0.581004(18)
Co1C Co 1.18568(5) 0.237166(16) 0.081004(18)
Co1C_2 Co 0.18568(5) 0.237166(16) 0.081004(18)
Co1B_2 Co -1.18568(5) -0.262834(16) 0.418996(18)
Co1A Co 0.81432(5) -0.237166(16) -0.081004(18)
Co1A_2 Co 1.81432(5) -0.237166(16) -0.081004(18)
H19B H 0.6545 0.0352 -0.1098
H21B H 1.3535 0.0764 0.0344
O10 O 1.6055(5) 0.00787(16) 0.17208(16)
H18 H 1.6178 0.0111 0.2225
H20 H 1.7219 0.0268 0.1586
O11 O 0.5661(4) 0.17421(10) 0.91444(12)
H16 H 0.5233 0.1787 0.9575
H17 H 0.6639 0.2035 0.9146
loop_
_geom_bond_atom_site_label_1
_geom_bond_atom_site_label_2
_geom_bond_site_symmetry_1
_geom_bond_site_symmetry_2
N1 C10 1_555 1_555
C1 C2 1_555 1_555
C2 C3 1_555 1_555
C3 H1 1_555 1_555
C4 C2 1_555 1_555
C5 C3 1_555 1_555
H2 C5 1_555 1_555
C6 C4 1_555 1_555
H3 C6 1_555 1_555
C7 C5 1_555 1_555
C8 C7 1_555 1_555
O1 C8 1_555 1_555
O2 C8 1_555 1_555
C9 C4 1_555 1_555
C10 H4 1_555 1_555
C11 C10 1_555 1_555
H5 C11 1_555 1_555
C12 C11 1_555 1_555
H6 C12 1_555 1_555
C13 C12 1_555 1_555
C14 N1 1_555 1_555
H7 C14 1_555 1_555
C15 C16 1_555 1_555
C16 H8 1_555 1_555
C17 C16 1_555 1_555
H9 C17 1_555 1_555
H10 C17 1_555 1_555
C18 C16 1_555 1_555
H11 C18 1_555 1_555
H12 C18 1_555 1_555
N2 C13 1_555 1_555
H13 N2 1_555 1_555
O3 C1 1_555 1_555
O4 C1 1_555 1_555
O5 H14 1_555 1_555
O6 H15 1_555 1_555
O7 C9 1_555 1_555
O8 C9 1_555 1_555
O9 C15 1_555 1_555
Co1 N1 1_555 1_555
Co2 O3 1_555 1_555
O10 H18 1_555 1_555
O11 H16 1_555 1_555
H17 O11 1_555 1_555
H19 O6 1_555 1_555
H20 O10 1_555 1_555
H21 O5 1_555 1_555
N1B C10B 1_555 1_555
N1B_2 Co1B 1_555 1_555
C1B C2B 1_555 1_555
C2B C3B 1_555 1_555
C3B H1B 1_555 1_555
C4B C2B 1_555 1_555
C5B C3B 1_555 1_555
H2B C5B 1_555 1_555
C6B C4B 1_555 1_555
H3B C6B 1_555 1_555
C7B C5B 1_555 1_555
C8B C7B 1_555 1_555
O1B C8B 1_555 1_555
O2B C8B 1_555 1_555
C9B C4B 1_555 1_555
C10B H4B 1_555 1_555
C11B C10B 1_555 1_555
H5B C11B 1_555 1_555
C12B C11B 1_555 1_555
H6B C12B 1_555 1_555
C13B C12B 1_555 1_555
C14B N1B 1_555 1_555
H7B C14B 1_555 1_555
C15B C16B 1_555 1_555
C16B H8B 1_555 1_555
C17B C18 1_555 1_555
H9B C17B 1_555 1_555
H10B C17B 1_555 1_555
C18B C17 1_555 1_555
H11B C18B 1_555 1_555
H12B C18B 1_555 1_555
N2B C13B 1_555 1_555
H13B N2B 1_555 1_555
O3B Co2 1_555 1_555
O4B C1B 1_555 1_555
O4C Co1 1_555 1_555
O4A Co1B 1_555 1_555
O5B Co2 1_555 1_555
H14B O5B 1_555 1_555
O6B Co2 1_555 1_555
H15B O6B 1_555 1_555
O7B C9B 1_555 1_555
O7C Co1 1_555 1_555
O7A Co1B 1_555 1_555
O8B C9B 1_555 1_555
O9B C15B 1_555 1_555
Co1B O1B 1_555 1_555
Co1C O4 1_555 1_555
Co1C_2 O7 1_555 1_555
Co1B_2 N1B 1_555 1_555
Co1A O4B 1_555 1_555
Co1A_2 O7B 1_555 1_555
H19B O6B 1_555 1_555
H21B O5B 1_555 1_555
C6 C7 1_555 1_555
O1 Co1 1_555 1_555
O2 Co1 1_555 1_555
C13 C14 1_555 1_555
C15 N2 1_555 1_555
O5 Co2 1_555 1_555
O6 Co2 1_555 1_555
C1B O3B 1_555 1_555
C6B C7B 1_555 1_555
O2B Co1B 1_555 1_555
C13B C14B 1_555 1_555
C15B N2B 1_555 1_555
C16B C17B 1_555 1_555
C16B C18B 1_555 1_555

#END
