
#######################################################################
#
#                 Cambridge Crystallographic Data Centre
#                                CCDC 
#
#######################################################################
#
# If this CIF has been generated from an entry in the Cambridge 
# Structural Database, then it will include bibliographic, chemical, 
# crystal, experimental, refinement or atomic coordinate data resulting 
# from the CCDC's data processing and validation procedures.
#
#######################################################################

data_MEKHER
_symmetry_cell_setting           monoclinic
_symmetry_space_group_name_H-M   'P 21/c'
_symmetry_Int_Tables_number      14
_space_group_name_Hall           '-P 2ybc'
loop_
_symmetry_equiv_pos_site_id
_symmetry_equiv_pos_as_xyz
1 x,y,z
2 -x,1/2+y,1/2-z
3 -x,-y,-z
4 x,1/2-y,1/2+z
_cell_length_a                   10.1841(10)
_cell_length_b                   8.8838(9)
_cell_length_c                   26.289(3)
_cell_angle_alpha                90
_cell_angle_beta                 91.837(2)
_cell_angle_gamma                90
_cell_volume                     2377.24
loop_
_atom_site_label
_atom_site_type_symbol
_atom_site_fract_x
_atom_site_fract_y
_atom_site_fract_z
Cu1 Cu 0.56312(2) 0.28963(3) 0.900728(9)
C1 C 0.26725(19) 0.2960(3) 0.88994(8)
O1 O 0.37939(13) 0.3162(2) 0.91236(6)
N1 N 0.55034(16) 0.4071(2) 0.83393(6)
O2 O 0.24175(16) 0.2029(2) 0.85669(7)
N2 N 0.76874(19) 0.4833(2) 0.72736(7)
H1 H 0.7696 0.5481 0.7031
C2 C 0.16153(19) 0.3998(3) 0.90927(8)
O3 O -0.24423(12) 0.30061(17) 0.89853(5)
N3 N 1.40821(17) 0.3128(2) 0.59123(7)
H2 H 1.3709 0.2260 0.5899
C3 C 0.1973(2) 0.5271(3) 0.93734(9)
H3 H 0.2856 0.5477 0.9441
O4 O -0.29318(15) 0.52717(19) 0.92746(7)
N4 N 1.58765(15) 0.2971(2) 0.47336(6)
C4 C 0.1024(2) 0.6228(3) 0.95514(10)
H4 H 0.1275 0.7089 0.9731
C5 C -0.0290(2) 0.5921(3) 0.94665(9)
H5 H -0.0922 0.6565 0.9593
O5 O 0.8669(2) 0.2712(3) 0.75554(12)
O6 O 1.41572(15) 0.53639(18) 0.63374(6)
C6 C -0.06712(19) 0.4651(3) 0.91926(8)
C7 C -0.21128(18) 0.4306(2) 0.91459(8)
C8 C 0.02799(18) 0.3698(3) 0.89983(8)
H6 H 0.0026 0.2863 0.8806
C9 C 0.4614(2) 0.5160(3) 0.82592(9)
H7 H 0.3950 0.5280 0.8491
C10 C 0.4648(2) 0.6113(3) 0.78443(9)
H8 H 0.4001 0.6841 0.7793
C11 C 0.5652(2) 0.5972(3) 0.75057(9)
H9 H 0.5689 0.6602 0.7224
C12 C 0.6606(2) 0.4873(3) 0.75937(8)
C13 C 0.6478(2) 0.3921(3) 0.80084(8)
H10 H 0.7087 0.3153 0.8060
C14 C 0.8716(3) 0.3870(3) 0.73128(10)
C15 C 0.9943(2) 0.4354(3) 0.70394(9)
H11 H 0.9970 0.5457 0.7032
C16 C 0.9920(2) 0.3784(4) 0.64947(9)
H12 H 0.9165 0.4202 0.6310
H13 H 0.9834 0.2697 0.6494
C17 C 1.1183(2) 0.4232(3) 0.62276(9)
H14 H 1.1163 0.3822 0.5885
H15 H 1.1230 0.5320 0.6202
C18 C 1.2400(2) 0.3644(3) 0.65218(8)
H16 H 1.2369 0.2541 0.6529
C19 C 1.2408(2) 0.4231(3) 0.70669(9)
H17 H 1.3159 0.3820 0.7256
H18 H 1.2493 0.5318 0.7064
C20 C 1.1152(2) 0.3796(4) 0.73299(9)
H19 H 1.1109 0.2709 0.7360
H20 H 1.1169 0.4217 0.7670
C21 C 1.3636(2) 0.4134(3) 0.62577(8)
C22 C 1.49967(19) 0.2733(3) 0.50955(8)
H21 H 1.4287 0.2102 0.5023
C23 C 1.51077(19) 0.3397(2) 0.55752(8)
C24 C 1.6182(2) 0.4311(3) 0.56912(8)
H22 H 1.6296 0.4748 0.6011
C25 C 1.7081(2) 0.4550(3) 0.53137(9)
H23 H 1.7808 0.5164 0.5378
C26 C 1.68971(19) 0.3880(3) 0.48448(8)
H24 H 1.7504 0.4064 0.4595
Cu1_2 Cu -0.43688(2) 0.28963(3) 0.900728(9)
Cu1C Cu 1.56312(2) 0.21037(3) 0.400728(9)
Cu1A Cu 1.43688(2) 0.78963(3) 0.599272(9)
O3_2 O 0.75577(12) 0.30061(17) 0.89853(5)
O4_2 O 0.70682(15) 0.52717(19) 0.92746(7)
N4C N 0.58765(15) 0.2029(2) 0.97336(6)
O6A O 0.58428(15) 0.03639(18) 0.86626(6)
loop_
_geom_bond_atom_site_label_1
_geom_bond_atom_site_label_2
_geom_bond_site_symmetry_1
_geom_bond_site_symmetry_2
Cu1 O1 1_555 1_555
C1 O1 1_555 1_555
N1 Cu1 1_555 1_555
O2 C1 1_555 1_555
N2 H1 1_555 1_555
C2 C1 1_555 1_555
O3 C7 1_555 1_555
N3 H2 1_555 1_555
C3 C2 1_555 1_555
H3 C3 1_555 1_555
O4 C7 1_555 1_555
N4 C22 1_555 1_555
C4 C3 1_555 1_555
H4 C4 1_555 1_555
C5 C4 1_555 1_555
H5 C5 1_555 1_555
O5 C14 1_555 1_555
O6 C21 1_555 1_555
C6 C5 1_555 1_555
C7 C6 1_555 1_555
C8 C2 1_555 1_555
H6 C8 1_555 1_555
C9 N1 1_555 1_555
H7 C9 1_555 1_555
C10 C9 1_555 1_555
H8 C10 1_555 1_555
C11 C10 1_555 1_555
H9 C11 1_555 1_555
C12 N2 1_555 1_555
C13 N1 1_555 1_555
H10 C13 1_555 1_555
C14 N2 1_555 1_555
C15 C14 1_555 1_555
H11 C15 1_555 1_555
C16 C15 1_555 1_555
H12 C16 1_555 1_555
H13 C16 1_555 1_555
C17 C16 1_555 1_555
H14 C17 1_555 1_555
H15 C17 1_555 1_555
C18 C17 1_555 1_555
H16 C18 1_555 1_555
C19 C18 1_555 1_555
H17 C19 1_555 1_555
H18 C19 1_555 1_555
C20 C15 1_555 1_555
H19 C20 1_555 1_555
H20 C20 1_555 1_555
C21 N3 1_555 1_555
C22 H21 1_555 1_555
C23 N3 1_555 1_555
C24 C23 1_555 1_555
H22 C24 1_555 1_555
C25 C24 1_555 1_555
H23 C25 1_555 1_555
C26 N4 1_555 1_555
H24 C26 1_555 1_555
Cu1_2 O3 1_555 1_555
Cu1C N4 1_555 1_555
Cu1A O6 1_555 1_555
O3_2 Cu1 1_555 1_555
O4_2 Cu1 1_555 1_555
N4C Cu1 1_555 1_555
O6A Cu1 1_555 1_555
O4 Cu1_2 1_555 1_555
C6 C8 1_555 1_555
C11 C12 1_555 1_555
C12 C13 1_555 1_555
C18 C21 1_555 1_555
C19 C20 1_555 1_555
C22 C23 1_555 1_555
C25 C26 1_555 1_555

#END
