
#######################################################################
#
#                 Cambridge Crystallographic Data Centre
#                                CCDC 
#
#######################################################################
#
# If this CIF has been generated from an entry in the Cambridge 
# Structural Database, then it will include bibliographic, chemical, 
# crystal, experimental, refinement or atomic coordinate data resulting 
# from the CCDC's data processing and validation procedures.
#
#######################################################################

data_MEKQEZ
_symmetry_cell_setting           orthorhombic
_symmetry_space_group_name_H-M   'P 21 21 21'
_symmetry_Int_Tables_number      19
_space_group_name_Hall           'P 2ac 2ab'
loop_
_symmetry_equiv_pos_site_id
_symmetry_equiv_pos_as_xyz
1 x,y,z
2 1/2-x,-y,1/2+z
3 1/2+x,1/2-y,-z
4 -x,1/2+y,1/2-z
_cell_length_a                   20.45(4)
_cell_length_b                   11.36(3)
_cell_length_c                   6.429(10)
_cell_angle_alpha                90
_cell_angle_beta                 90
_cell_angle_gamma                90
_cell_volume                     1493.53
loop_
_atom_site_label
_atom_site_type_symbol
_atom_site_fract_x
_atom_site_fract_y
_atom_site_fract_z
Cu1 Cu 0.18768(3) 0.33308(7) 0.47740(13)
Cu2 Cu 0.01013(3) 0.33322(8) 0.47688(14)
O1 O 0.0983(2) 0.2888(4) 0.4051(6)
N1 N -0.0195(3) 0.2183(5) 0.2595(11)
N2 N 0.2174(3) 0.2116(5) 0.2672(10)
N3 N 0.0419(3) 0.4400(7) 0.6980(13)
N4 N 0.1554(3) 0.4361(7) 0.7154(13)
N5 N 0.0985(4) 0.4391(5) 0.7109(10)
N6 N -0.0789(3) 0.3783(8) 0.5367(16)
N7 N -0.0910(3) 0.4460(7) 0.6735(12)
N8 N -0.1057(4) 0.5147(7) 0.7949(12)
N9 N 0.2762(3) 0.3435(6) 0.5916(12)
N10 N 0.2923(3) 0.4293(5) 0.6742(10)
N11 N 0.3132(4) 0.5122(7) 0.7475(16)
C1 C -0.0380(4) 0.1099(8) 0.374(2)
H1 H -0.0757 0.1254 0.4584
H2 H -0.0023 0.0854 0.4605
H3 H -0.0480 0.0486 0.2759
C2 C -0.0765(4) 0.2534(9) 0.1325(16)
H4 H -0.1137 0.2651 0.2214
H5 H -0.0861 0.1925 0.0335
H6 H -0.0668 0.3252 0.0602
C3 C 0.0382(3) 0.1986(8) 0.1279(14)
H7 H 0.0421 0.2622 0.0280
H8 H 0.0330 0.1256 0.0514
C4 C 0.1002(3) 0.1925(5) 0.2608(10)
H9 H 0.1004 0.1183 0.3385
C5 C 0.1592(3) 0.1980(7) 0.1290(12)
H10 H 0.1562 0.2643 0.0344
H11 H 0.1631 0.1266 0.0473
C6 C 0.2344(4) 0.1034(7) 0.3750(16)
H12 H 0.1978 0.0777 0.4570
H13 H 0.2712 0.1173 0.4641
H14 H 0.2452 0.0437 0.2750
C7 C 0.2749(4) 0.2483(9) 0.1431(15)
H15 H 0.2652 0.3207 0.0723
H16 H 0.2850 0.1884 0.0429
H17 H 0.3117 0.2597 0.2337
Cu1A Cu 0.31232(3) 0.66692(7) 0.97740(13)
N11A N 0.1868(4) 0.4878(7) 0.2475(16)
loop_
_geom_bond_atom_site_label_1
_geom_bond_atom_site_label_2
_geom_bond_site_symmetry_1
_geom_bond_site_symmetry_2
Cu1 O1 1_555 1_555
Cu2 O1 1_555 1_555
O1 C4 1_555 1_555
N1 Cu2 1_555 1_555
N2 Cu1 1_555 1_555
N3 Cu2 1_555 1_555
N4 Cu1 1_555 1_555
N5 N3 1_555 1_555
N6 Cu2 1_555 1_555
N7 N6 1_555 1_555
N8 N7 1_555 1_555
N9 Cu1 1_555 1_555
N10 N9 1_555 1_555
N11 N10 1_555 1_555
C1 N1 1_555 1_555
H1 C1 1_555 1_555
H2 C1 1_555 1_555
H3 C1 1_555 1_555
C2 N1 1_555 1_555
H4 C2 1_555 1_555
H5 C2 1_555 1_555
H6 C2 1_555 1_555
C3 N1 1_555 1_555
H7 C3 1_555 1_555
H8 C3 1_555 1_555
C4 C3 1_555 1_555
H9 C4 1_555 1_555
C5 N2 1_555 1_555
H10 C5 1_555 1_555
H11 C5 1_555 1_555
C6 N2 1_555 1_555
H12 C6 1_555 1_555
H13 C6 1_555 1_555
H14 C6 1_555 1_555
C7 N2 1_555 1_555
H15 C7 1_555 1_555
H16 C7 1_555 1_555
H17 C7 1_555 1_555
Cu1A N11 1_555 1_555
N11A Cu1 1_555 1_555
N4 N5 1_555 1_555
C4 C5 1_555 1_555

#END
