
#######################################################################
#
#                 Cambridge Crystallographic Data Centre
#                                CCDC 
#
#######################################################################
#
# If this CIF has been generated from an entry in the Cambridge 
# Structural Database, then it will include bibliographic, chemical, 
# crystal, experimental, refinement or atomic coordinate data resulting 
# from the CCDC's data processing and validation procedures.
#
#######################################################################

data_MEKVON
_symmetry_cell_setting           triclinic
_symmetry_space_group_name_H-M   'P 1'
_symmetry_Int_Tables_number      1
_space_group_name_Hall           'P 1'
loop_
_symmetry_equiv_pos_site_id
_symmetry_equiv_pos_as_xyz
1 x,y,z
_cell_length_a                   11.0005(3)
_cell_length_b                   11.8183(4)
_cell_length_c                   17.7135(7)
_cell_angle_alpha                81.607(3)
_cell_angle_beta                 84.801(3)
_cell_angle_gamma                63.516(2)
_cell_volume                     2038.29
loop_
_atom_site_label
_atom_site_type_symbol
_atom_site_fract_x
_atom_site_fract_y
_atom_site_fract_z
Mn1 Mn -0.3406(1) -0.0398(1) -1.66802(7)
Mn2 Mn -0.3417(1) -0.0392(1) -1.16834(7)
F1 F -0.6578(3) 0.3845(3) -1.6462(3)
F2 F -0.5518(5) 0.4186(3) -1.7362(2)
F3 F -0.5340(4) 0.4556(3) -1.6325(2)
F4 F -0.0611(3) 0.2020(3) -1.5920(3)
F5 F 0.0119(3) 0.0137(3) -1.5581(2)
F6 F 0.0143(4) 0.0915(5) -1.6640(2)
F7 F -0.0265(4) -0.4684(3) -1.7118(2)
F8 F -0.1667(4) -0.5428(2) -1.6876(3)
F9 F -0.0957(4) -0.4906(3) -1.6023(2)
F10 F -0.6927(3) -0.1775(5) -1.6734(3)
F11 F -0.6833(3) -0.0995(3) -1.7771(3)
F12 F -0.5970(4) -0.2877(3) -1.7642(2)
F13 F 0.0819(4) -0.4100(4) -1.0546(2)
F14 F 0.1066(3) -0.2653(3) -1.0837(2)
F15 F 0.1659(3) -0.3859(4) -1.1509(2)
F16 F -0.1471(4) -0.5063(2) -1.2591(2)
F17 F -0.2621(4) -0.3616(3) -1.3352(1)
F18 F -0.3549(3) -0.4005(3) -1.2401(2)
F19 F -0.8251(3) 0.2030(5) -1.1919(4)
F20 F -0.7423(4) 0.2394(4) -1.2971(2)
F21 F -0.8210(3) 0.3727(2) -1.2292(2)
F22 F -0.5470(3) 0.4190(3) -1.0603(2)
F23 F -0.3982(3) 0.2705(3) -1.0050(2)
F24 F -0.3681(3) 0.3558(3) -1.1084(2)
O1 O -0.2882(2) 0.0194(2) -0.7795(1)
O2 O -0.4031(3) -0.1365(2) -1.0743(1)
O3 O -0.8673(3) 0.2586(3) -0.9029(2)
O4 O -0.2778(2) 0.0571(2) -1.2639(1)
O5 O -0.4078(3) -0.0983(2) -1.5581(1)
O6 O 0.1857(3) -0.3339(3) -1.4286(2)
O7 O -0.1844(3) 0.0000(2) -1.6265(1)
O8 O -0.4649(3) 0.1540(2) -1.6607(1)
O9 O -0.4863(3) -0.0827(2) -1.7074(1)
O10 O -0.2085(3) -0.2405(2) -1.6731(1)
O11 O -0.3133(3) -0.1934(2) -1.2299(1)
O12 O -0.1391(2) -0.1601(2) -1.1331(1)
O13 O -0.3698(2) 0.1131(2) -1.1066(1)
O14 O -0.5489(3) 0.0790(2) -1.1997(1)
N1 N -0.2671(3) -0.0266(3) -0.8469(2)
N2 N -0.5147(3) -0.0927(3) -1.0320(2)
N3 N -0.1662(3) 0.0137(3) -1.3026(2)
N4 N -0.4157(3) -0.0534(3) -1.4954(2)
C1 C -0.3885(4) 0.0094(3) -0.8824(2)
C2 C -0.3906(4) -0.0570(4) -0.9399(2)
C3 C -0.5147(4) -0.0241(3) -0.9740(2)
C4 C -0.6346(4) 0.0758(3) -0.9535(2)
C5 C -0.6301(4) 0.1416(4) -0.8910(2)
C6 C -0.5124(4) 0.1058(3) -0.8586(2)
C7 C -0.7587(4) 0.2536(4) -0.8652(2)
C8 C -0.7569(5) 0.3765(4) -0.8826(3)
C9 C -0.7822(5) 0.2236(4) -0.7757(2)
C10 C -0.9986(6) 0.3488(6) -0.8858(3)
C11 C -1.1070(6) 0.3261(8) -0.9302(4)
C12 C -1.107(1) 0.399(1) -0.9803(6)
C13 C -1.0490(8) 0.342(1) -1.0319(5)
C14 C -1.2526(9) 0.452(1) -0.8960(7)
C15 C -0.1208(5) -0.0936(5) -0.8732(2)
C16 C -0.0260(5) -0.0704(7) -0.8247(3)
C17 C -0.0823(4) -0.2391(5) -0.8687(3)
C18 C -0.1177(4) -0.0356(4) -0.9576(2)
C19 C -0.6133(4) -0.1452(4) -1.0390(2)
C20 C -0.6564(7) -0.1961(5) -0.9606(3)
C21 C -0.7434(4) -0.0380(4) -1.0752(3)
C22 C -0.5595(4) -0.2491(4) -1.0887(3)
C23 C -0.1652(4) -0.0564(4) -1.3636(2)
C24 C -0.2886(4) -0.0178(3) -1.3969(2)
C25 C -0.2942(4) -0.0820(4) -1.4546(2)
C26 C -0.1783(4) -0.1870(3) -1.4778(2)
C27 C -0.0524(4) -0.2222(4) -1.4452(2)
C28 C -0.0514(4) -0.1582(4) -1.3907(2)
C29 C 0.0750(5) -0.3315(4) -1.4713(3)
C30 C 0.0951(5) -0.3134(5) -1.5535(3)
C31 C 0.0497(5) -0.4536(5) -1.4460(3)
C32 C 0.3205(6) -0.4072(7) -1.4536(4)
C33 C 0.4143(6) -0.4047(6) -1.4101(4)
C34 C 0.5674(6) -0.5005(8) -1.4278(5)
C35 C 0.6088(8) -0.4448(9) -1.4841(4)
C36 C 0.431(1) -0.476(1) -1.3329(7)
C37 C -0.0656(5) 0.0727(4) -1.2978(3)
C38 C -0.1673(7) 0.2169(6) -1.3290(6)
C39 C 0.0358(4) 0.0364(5) -1.3455(3)
C40 C -0.0662(6) 0.0838(6) -1.2158(3)
C41 C -0.5577(4) 0.0187(4) -1.4611(2)
C42 C -0.6482(5) 0.0083(5) -1.5137(3)
C43 C -0.5740(5) -0.0425(5) -1.3816(3)
C44 C -0.5858(6) 0.1557(5) -1.4651(3)
C45 C -0.0557(5) 0.1002(5) -1.6051(3)
C46 C -0.1871(4) 0.1078(4) -1.6255(3)
C47 C -0.3017(4) 0.2209(4) -1.6340(3)
C48 C -0.4281(4) 0.2393(4) -1.6522(2)
C49 C -0.5496(6) 0.3776(4) -1.6662(4)
C50 C -0.6067(5) -0.1988(6) -1.7306(4)
C51 C -0.4798(4) -0.1880(4) -1.7146(2)
C52 C -0.3679(5) -0.3088(4) -1.7013(3)
C53 C -0.2426(5) -0.3218(4) -1.6821(2)
C54 C -0.1337(6) -0.4538(4) -1.6715(3)
C55 C -0.2415(5) -0.4011(3) -1.2646(2)
C56 C -0.2209(4) -0.3011(3) -1.2232(2)
C57 C -0.0916(4) -0.3459(3) -1.1847(2)
C58 C -0.0702(4) -0.2667(3) -1.1476(2)
C59 C 0.0656(4) -0.3262(4) -1.1103(4)
C60 C -0.4389(6) 0.3091(5) -1.0744(3)
C61 C -0.4660(4) 0.2217(4) -1.1095(3)
C62 C -0.5773(5) 0.2657(4) -1.1471(2)
C63 C -0.6215(4) 0.1988(4) -1.1913(2)
C64 C -0.7606(5) 0.2584(4) -1.2316(3)
H1 H -0.3092 -0.1241 -0.9563
H2 H -0.7165 0.1006 -0.9790
H3 H -0.5116 0.1475 -0.8168
H4 H -0.6828 0.3752 -0.8582
H5 H -0.7470 0.3943 -0.9363
H6 H -0.8396 0.4404 -0.8649
H7 H -0.7103 0.2218 -0.7489
H8 H -0.7842 0.1433 -0.7655
H9 H -0.8662 0.2878 -0.7595
H10 H -1.0063 0.4320 -0.9018
H11 H -1.0164 0.3399 -0.8323
H12 H -1.1009 0.2448 -0.9354
H13 H -1.0617 0.4453 -0.9670
H14 H -1.1975 0.4564 -0.9936
H15 H -0.9611 0.2803 -1.0167
H16 H -1.0407 0.3997 -1.0733
H17 H -1.0983 0.3015 -1.0473
H18 H -1.3315 0.4544 -0.9155
H19 H -1.2567 0.4388 -0.8418
H20 H -1.2481 0.5302 -0.9122
H21 H -0.0465 0.0174 -0.8319
H22 H 0.0659 -0.1190 -0.8400
H23 H -0.0390 -0.0954 -0.7723
H24 H -0.1434 -0.2503 -0.8981
H25 H 0.0077 -0.2828 -0.8883
H26 H -0.0881 -0.2723 -0.8171
H27 H -0.1849 -0.0411 -0.9849
H28 H -0.0307 -0.0814 -0.9802
H29 H -0.1357 0.0511 -0.9591
H30 H -0.5785 -0.2624 -0.9364
H31 H -0.6977 -0.1290 -0.9294
H32 H -0.7193 -0.2280 -0.9680
H33 H -0.8079 -0.0699 -1.0785
H34 H -0.7220 -0.0079 -1.1249
H35 H -0.7805 0.0299 -1.0445
H36 H -0.6220 -0.2846 -1.0880
H37 H -0.5474 -0.2159 -1.1394
H38 H -0.4748 -0.3133 -1.0704
H39 H -0.3674 0.0509 -1.3796
H40 H -0.1848 -0.2338 -1.5152
H41 H 0.0346 -0.1866 -1.3688
H42 H 0.1103 -0.2399 -1.5672
H43 H 0.0166 -0.3026 -1.5779
H44 H 0.1716 -0.3858 -1.5691
H45 H 0.0388 -0.4644 -1.3920
H46 H -0.0300 -0.4432 -1.4688
H47 H 0.1253 -0.5265 -1.4619
H48 H 0.3323 -0.3748 -1.5047
H49 H 0.3349 -0.4929 -1.4521
H50 H 0.4036 -0.3206 -1.4090
H51 H 0.6213 -0.5186 -1.3846
H52 H 0.5721 -0.5775 -1.4408
H53 H 0.6054 -0.3688 -1.4700
H54 H 0.6997 -0.4995 -1.4978
H55 H 0.5522 -0.4244 -1.5262
H56 H 0.3493 -0.4384 -1.3035
H57 H 0.4510 -0.5619 -1.3368
H58 H 0.5033 -0.4736 -1.3088
H59 H -0.2418 0.2491 -1.2939
H60 H -0.1202 0.2683 -1.3343
H61 H -0.1998 0.2182 -1.3772
H62 H 0.0046 0.0396 -1.3944
H63 H 0.0787 0.0912 -1.3485
H64 H 0.0990 -0.0483 -1.3289
H65 H -0.0107 0.0030 -1.1897
H66 H -0.1565 0.1130 -1.1954
H67 H -0.0319 0.1426 -1.2096
H68 H -0.6331 0.0410 -1.5641
H69 H -0.7402 0.0558 -1.4983
H70 H -0.6295 -0.0785 -1.5127
H71 H -0.6626 0.0058 -1.3615
H72 H -0.5084 -0.0447 -1.3493
H73 H -0.5612 -0.1267 -1.3843
H74 H -0.6781 0.2047 -1.4508
H75 H -0.5285 0.1635 -1.4312
H76 H -0.5686 0.1857 -1.5157
H77 H -0.2926 0.2947 -1.6265
H78 H -0.3788 -0.3829 -1.7055
H79 H -0.0238 -0.4309 -1.1864
H80 H -0.6369 0.3532 -1.1451
Mn1_2 Mn -0.3406(1) -0.0398(1) -0.66802(7)
O1_2 O -0.2882(2) 0.0194(2) -1.7795(1)
loop_
_geom_bond_atom_site_label_1
_geom_bond_atom_site_label_2
_geom_bond_site_symmetry_1
_geom_bond_site_symmetry_2
Mn1 O5 1_555 1_555
Mn2 O2 1_555 1_555
F1 C49 1_555 1_555
F2 C49 1_555 1_555
F3 C49 1_555 1_555
F4 C45 1_555 1_555
F5 C45 1_555 1_555
F6 C45 1_555 1_555
F7 C54 1_555 1_555
F8 C54 1_555 1_555
F9 C54 1_555 1_555
F10 C50 1_555 1_555
F11 C50 1_555 1_555
F12 C50 1_555 1_555
F13 C59 1_555 1_555
F14 C59 1_555 1_555
F15 C59 1_555 1_555
F16 C55 1_555 1_555
F17 C55 1_555 1_555
F18 C55 1_555 1_555
F19 C64 1_555 1_555
F20 C64 1_555 1_555
F21 C64 1_555 1_555
F22 C60 1_555 1_555
F23 C60 1_555 1_555
F24 C60 1_555 1_555
O1 N1 1_555 1_555
O2 N2 1_555 1_555
O3 C7 1_555 1_555
O4 Mn2 1_555 1_555
O5 N4 1_555 1_555
O6 C29 1_555 1_555
O7 Mn1 1_555 1_555
O8 Mn1 1_555 1_555
O9 Mn1 1_555 1_555
O10 Mn1 1_555 1_555
O11 Mn2 1_555 1_555
O12 Mn2 1_555 1_555
O13 Mn2 1_555 1_555
O14 Mn2 1_555 1_555
N1 C1 1_555 1_555
N2 C3 1_555 1_555
N3 O4 1_555 1_555
N4 C25 1_555 1_555
C1 C2 1_555 1_555
C2 C3 1_555 1_555
C3 C4 1_555 1_555
C4 C5 1_555 1_555
C5 C6 1_555 1_555
C6 C1 1_555 1_555
C7 C5 1_555 1_555
C8 C7 1_555 1_555
C9 C7 1_555 1_555
C10 O3 1_555 1_555
C11 C10 1_555 1_555
C12 C11 1_555 1_555
C13 C12 1_555 1_555
C14 C11 1_555 1_555
C15 N1 1_555 1_555
C16 C15 1_555 1_555
C17 C15 1_555 1_555
C18 C15 1_555 1_555
C19 N2 1_555 1_555
C20 C19 1_555 1_555
C21 C19 1_555 1_555
C22 C19 1_555 1_555
C23 N3 1_555 1_555
C24 C23 1_555 1_555
C25 C24 1_555 1_555
C26 C25 1_555 1_555
C27 C26 1_555 1_555
C28 C23 1_555 1_555
C29 C27 1_555 1_555
C30 C29 1_555 1_555
C31 C29 1_555 1_555
C32 O6 1_555 1_555
C33 C32 1_555 1_555
C34 C33 1_555 1_555
C35 C34 1_555 1_555
C36 C33 1_555 1_555
C37 N3 1_555 1_555
C38 C37 1_555 1_555
C39 C37 1_555 1_555
C40 C37 1_555 1_555
C41 N4 1_555 1_555
C42 C41 1_555 1_555
C43 C41 1_555 1_555
C44 C41 1_555 1_555
C45 C46 1_555 1_555
C46 O7 1_555 1_555
C47 C46 1_555 1_555
C48 O8 1_555 1_555
C49 C48 1_555 1_555
C50 C51 1_555 1_555
C51 O9 1_555 1_555
C52 C51 1_555 1_555
C53 O10 1_555 1_555
C54 C53 1_555 1_555
C55 C56 1_555 1_555
C56 O11 1_555 1_555
C57 C56 1_555 1_555
C58 O12 1_555 1_555
C59 C58 1_555 1_555
C60 C61 1_555 1_555
C61 O13 1_555 1_555
C62 C61 1_555 1_555
C63 O14 1_555 1_555
C64 C63 1_555 1_555
H1 C2 1_555 1_555
H2 C4 1_555 1_555
H3 C6 1_555 1_555
H4 C8 1_555 1_555
H5 C8 1_555 1_555
H6 C8 1_555 1_555
H7 C9 1_555 1_555
H8 C9 1_555 1_555
H9 C9 1_555 1_555
H10 C10 1_555 1_555
H11 C10 1_555 1_555
H12 C11 1_555 1_555
H13 C12 1_555 1_555
H14 C12 1_555 1_555
H15 C13 1_555 1_555
H16 C13 1_555 1_555
H17 C13 1_555 1_555
H18 C14 1_555 1_555
H19 C14 1_555 1_555
H20 C14 1_555 1_555
H21 C16 1_555 1_555
H22 C16 1_555 1_555
H23 C16 1_555 1_555
H24 C17 1_555 1_555
H25 C17 1_555 1_555
H26 C17 1_555 1_555
H27 C18 1_555 1_555
H28 C18 1_555 1_555
H29 C18 1_555 1_555
H30 C20 1_555 1_555
H31 C20 1_555 1_555
H32 C20 1_555 1_555
H33 C21 1_555 1_555
H34 C21 1_555 1_555
H35 C21 1_555 1_555
H36 C22 1_555 1_555
H37 C22 1_555 1_555
H38 C22 1_555 1_555
H39 C24 1_555 1_555
H40 C26 1_555 1_555
H41 C28 1_555 1_555
H42 C30 1_555 1_555
H43 C30 1_555 1_555
H44 C30 1_555 1_555
H45 C31 1_555 1_555
H46 C31 1_555 1_555
H47 C31 1_555 1_555
H48 C32 1_555 1_555
H49 C32 1_555 1_555
H50 C33 1_555 1_555
H51 C34 1_555 1_555
H52 C34 1_555 1_555
H53 C35 1_555 1_555
H54 C35 1_555 1_555
H55 C35 1_555 1_555
H56 C36 1_555 1_555
H57 C36 1_555 1_555
H58 C36 1_555 1_555
H59 C38 1_555 1_555
H60 C38 1_555 1_555
H61 C38 1_555 1_555
H62 C39 1_555 1_555
H63 C39 1_555 1_555
H64 C39 1_555 1_555
H65 C40 1_555 1_555
H66 C40 1_555 1_555
H67 C40 1_555 1_555
H68 C42 1_555 1_555
H69 C42 1_555 1_555
H70 C42 1_555 1_555
H71 C43 1_555 1_555
H72 C43 1_555 1_555
H73 C43 1_555 1_555
H74 C44 1_555 1_555
H75 C44 1_555 1_555
H76 C44 1_555 1_555
H77 C47 1_555 1_555
H78 C52 1_555 1_555
H79 C57 1_555 1_555
H80 C62 1_555 1_555
Mn1_2 O1 1_555 1_555
O1_2 Mn1 1_555 1_555
C27 C28 1_555 1_555
C47 C48 1_555 1_555
C52 C53 1_555 1_555
C57 C58 1_555 1_555
C62 C63 1_555 1_555

#END
