
#######################################################################
#
#                 Cambridge Crystallographic Data Centre
#                                CCDC 
#
#######################################################################
#
# If this CIF has been generated from an entry in the Cambridge 
# Structural Database, then it will include bibliographic, chemical, 
# crystal, experimental, refinement or atomic coordinate data resulting 
# from the CCDC's data processing and validation procedures.
#
#######################################################################

data_MELHOB
_symmetry_cell_setting           rhombohedral
_symmetry_space_group_name_H-M   'R -3'
_symmetry_Int_Tables_number      148
_space_group_name_Hall           '-R 3'
loop_
_symmetry_equiv_pos_site_id
_symmetry_equiv_pos_as_xyz
1 x,y,z
2 -y,x-y,z
3 -x+y,-x,z
4 2/3+x,1/3+y,1/3+z
5 2/3-y,1/3+x-y,1/3+z
6 2/3-x+y,1/3-x,1/3+z
7 1/3+x,2/3+y,2/3+z
8 1/3-y,2/3+x-y,2/3+z
9 1/3-x+y,2/3-x,2/3+z
10 -x,-y,-z
11 y,-x+y,-z
12 x-y,x,-z
13 1/3-x,2/3-y,2/3-z
14 1/3+y,2/3-x+y,2/3-z
15 1/3+x-y,2/3+x,2/3-z
16 2/3-x,1/3-y,1/3-z
17 2/3+y,1/3-x+y,1/3-z
18 2/3+x-y,1/3+x,1/3-z
_cell_length_a                   15.4326(8)
_cell_length_b                   15.4326(8)
_cell_length_c                   17.7330(18)
_cell_angle_alpha                90
_cell_angle_beta                 90
_cell_angle_gamma                120.00
_cell_volume                     3657.56
loop_
_atom_site_label
_atom_site_type_symbol
_atom_site_fract_x
_atom_site_fract_y
_atom_site_fract_z
O1 O 0.4773(11) 0.2221(11) 0.3641(11)
Cu1 Cu 0.42309(14) 0.51455(13) 0.32639(12)
Cu2 Cu 0.07886(15) 0.11417(13) 0.23686(13)
Cu3 Cu 0.0000 0.0000 0.1223(2)
I1 I 0.0000 0.0000 0.36619(8)
I2 I -0.03215(6) 0.15438(6) 0.15459(5)
C1 C 0.2413(8) 0.3319(8) 0.2685(7)
C2 C 0.3303(9) 0.3032(10) 0.3443(8)
N1 N 0.4055(11) 0.3163(12) 0.3932(10)
H1 H 0.4050 0.2651 0.4129
H2 H 0.4528 0.3756 0.4041
N2 N 0.3254(7) 0.3809(7) 0.3124(6)
N3 N 0.2568(8) 0.2160(8) 0.3254(7)
N4 N 0.2091(10) 0.3802(9) 0.2221(7)
H3 H 0.1572 0.3464 0.1943
H4 H 0.2407 0.4445 0.2205
N5 N 0.1975(7) 0.2332(7) 0.2747(6)
O2 O 0.0000 0.0000 0.0000
Cu1A Cu -0.51455(13) -0.09146(19) 0.32639(12)
Cu1B Cu 0.09146(19) -0.42309(14) 0.32639(12)
Cu1N Cu 0.24187(19) 0.08976(14) 0.34028(12)
Cu1L Cu -0.08976(14) 0.15212(13) 0.34028(12)
Cu1M Cu -0.15212(13) -0.24187(19) 0.34028(12)
Cu1M_2 Cu 0.84788(13) 0.75813(19) 0.34028(12)
Cu1N_2 Cu -0.75813(19) 0.08976(14) 0.34028(12)
Cu1L_2 Cu -0.08976(14) -0.84788(13) 0.34028(12)
Cu2A Cu -0.11417(13) -0.03531(20) 0.23686(13)
Cu2B Cu 0.03531(20) -0.07886(15) 0.23686(13)
Cu2I Cu -0.07886(15) -0.11417(13) -0.23686(13)
Cu2J Cu 0.11417(13) 0.03531(20) -0.23686(13)
Cu2K Cu -0.03531(20) 0.07886(15) -0.23686(13)
Cu2M Cu 0.44750(13) 0.70198(20) 0.42981(13)
Cu2N Cu -0.70198(20) -0.25447(15) 0.42981(13)
Cu2L Cu 0.25447(15) -0.44750(13) 0.42981(13)
Cu3I Cu 0.0000 0.0000 -0.1223(2)
I1I I 0.0000 0.0000 -0.36619(8)
I2A I -0.15438(6) -0.18653(8) 0.15459(5)
I2B I 0.18653(8) 0.03215(6) 0.15459(5)
I2I I 0.03215(6) -0.15438(6) -0.15459(5)
I2J I 0.15438(6) 0.18653(8) -0.15459(5)
I2K I -0.18653(8) -0.03215(6) -0.15459(5)
C1A C -0.3319(8) -0.0906(11) 0.2685(7)
C1B C 0.0906(11) -0.2413(8) 0.2685(7)
C1M C 0.6652(8) 0.7573(11) 0.3982(7)
C1N C -0.7573(11) -0.0920(8) 0.3982(7)
C1L C 0.0920(8) -0.6652(8) 0.3982(7)
C2A C -0.3032(10) 0.0271(13) 0.3443(8)
C2B C -0.0271(13) -0.3303(9) 0.3443(8)
C2M C 0.6365(10) 0.6396(13) 0.3224(8)
C2N C -0.6396(13) -0.0030(9) 0.3224(8)
C2L C 0.0030(9) -0.6365(10) 0.3224(8)
N1A N -0.3163(12) 0.0892(16) 0.3932(10)
N1B N -0.0892(16) -0.4055(11) 0.3932(10)
N1M N 0.6496(12) 0.5775(16) 0.2735(10)
N1N N -0.5775(16) 0.0722(11) 0.2735(10)
N1L N -0.0722(11) -0.6496(12) 0.2735(10)
H1A H -0.2651 0.1399 0.4129
H1B H -0.1399 -0.4050 0.4129
H1M H 0.5984 0.5268 0.2538
H1N H -0.5268 0.0717 0.2538
H1L H -0.0717 -0.5984 0.2538
H2A H -0.3756 0.0772 0.4041
H2B H -0.0772 -0.4528 0.4041
H2M H 0.7089 0.5895 0.2626
H2N H -0.5895 0.1195 0.2626
H2L H -0.1195 -0.7089 0.2626
N2A N -0.3809(7) -0.0555(10) 0.3124(6)
N2B N 0.0555(10) -0.3254(7) 0.3124(6)
N2M N 0.7142(7) 0.7222(10) 0.3543(6)
N2N N -0.7222(10) -0.0079(7) 0.3543(6)
N2L N 0.0079(7) -0.7142(7) 0.3543(6)
N2N_2 N 0.2778(10) -0.0079(7) 0.3543(6)
N2L_2 N 0.0079(7) 0.2858(7) 0.3543(6)
N2M_2 N -0.2858(7) -0.2778(10) 0.3543(6)
N3A N -0.2160(8) 0.0408(11) 0.3254(7)
N3B N -0.0408(11) -0.2568(8) 0.3254(7)
N3M N 0.5493(8) 0.6259(11) 0.3413(7)
N3N N -0.6259(11) -0.0765(8) 0.3413(7)
N3L N 0.0765(8) -0.5493(8) 0.3413(7)
N4A N -0.3802(9) -0.1711(13) 0.2221(7)
N4B N 0.1711(13) -0.2091(10) 0.2221(7)
N4M N 0.7135(9) 0.8378(13) 0.4446(7)
N4N N -0.8378(13) -0.1242(10) 0.4446(7)
N4L N 0.1242(10) -0.7135(9) 0.4446(7)
H3A H -0.3464 -0.1892 0.1943
H3B H 0.1892 -0.1572 0.1943
H3M H 0.6797 0.8559 0.4724
H3N H -0.8559 -0.1761 0.4724
H3L H 0.1761 -0.6797 0.4724
H4A H -0.4445 -0.2038 0.2205
H4B H 0.2038 -0.2407 0.2205
H4M H 0.7778 0.8705 0.4462
H4N H -0.8705 -0.0926 0.4462
H4L H 0.0926 -0.7778 0.4462
N5A N -0.2332(7) -0.0357(10) 0.2747(6)
N5B N 0.0357(10) -0.1975(7) 0.2747(6)
N5M N 0.5665(7) 0.7024(10) 0.3920(6)
N5N N -0.7024(10) -0.1358(7) 0.3920(6)
N5L N 0.1358(7) -0.5665(7) 0.3920(6)
N5I N -0.1975(7) -0.2332(7) -0.2747(6)
N5J N 0.2332(7) 0.0357(10) -0.2747(6)
N5K N -0.0357(10) 0.1975(7) -0.2747(6)
loop_
_geom_bond_atom_site_label_1
_geom_bond_atom_site_label_2
_geom_bond_site_symmetry_1
_geom_bond_site_symmetry_2
Cu1 N2 1_555 1_555
Cu2 Cu3 1_555 1_555
Cu3 I2 1_555 1_555
I1 Cu2 1_555 1_555
I2 Cu2 1_555 1_555
C1 N2 1_555 1_555
C2 N1 1_555 1_555
N1 H1 1_555 1_555
H2 N1 1_555 1_555
N2 C2 1_555 1_555
N3 C2 1_555 1_555
N4 C1 1_555 1_555
H3 N4 1_555 1_555
H4 N4 1_555 1_555
N5 Cu2 1_555 1_555
O2 Cu3 1_555 1_555
Cu1A N2A 1_555 1_555
Cu1B N2B 1_555 1_555
Cu1N N3 1_555 1_555
Cu1L N2L_2 1_555 1_555
Cu1M N2M_2 1_555 1_555
Cu1M_2 N2M 1_555 1_555
Cu1N_2 N2N 1_555 1_555
Cu1L_2 N2L 1_555 1_555
Cu2A Cu2 1_555 1_555
Cu2B Cu2 1_555 1_555
Cu2I Cu2J 1_555 1_555
Cu2J Cu2K 1_555 1_555
Cu2K Cu2I 1_555 1_555
Cu2M N5M 1_555 1_555
Cu2N N5N 1_555 1_555
Cu2L N5L 1_555 1_555
Cu3I O2 1_555 1_555
I1I Cu2I 1_555 1_555
I2A Cu3 1_555 1_555
I2B Cu2 1_555 1_555
I2I Cu2I 1_555 1_555
I2J Cu2J 1_555 1_555
I2K Cu2I 1_555 1_555
C1A N2A 1_555 1_555
C1B N2B 1_555 1_555
C1M N2M 1_555 1_555
C1N N2N 1_555 1_555
C1L N2L 1_555 1_555
C2A N1A 1_555 1_555
C2B N1B 1_555 1_555
C2M N1M 1_555 1_555
C2N N1N 1_555 1_555
C2L N1L 1_555 1_555
N1A H1A 1_555 1_555
N1B H1B 1_555 1_555
N1M H1M 1_555 1_555
N1N H1N 1_555 1_555
N1L H1L 1_555 1_555
H2A N1A 1_555 1_555
H2B N1B 1_555 1_555
H2M N1M 1_555 1_555
H2N N1N 1_555 1_555
H2L N1L 1_555 1_555
N2A C2A 1_555 1_555
N2B C2B 1_555 1_555
N2M C2M 1_555 1_555
N2N C2N 1_555 1_555
N2L C2L 1_555 1_555
N2N_2 Cu1N 1_555 1_555
N3A Cu1L 1_555 1_555
N3B Cu1M 1_555 1_555
N3M Cu1 1_555 1_555
N3N Cu1A 1_555 1_555
N3L Cu1B 1_555 1_555
N4A C1A 1_555 1_555
N4B C1B 1_555 1_555
N4M C1M 1_555 1_555
N4N C1N 1_555 1_555
N4L C1L 1_555 1_555
H3A N4A 1_555 1_555
H3B N4B 1_555 1_555
H3M N4M 1_555 1_555
H3N N4N 1_555 1_555
H3L N4L 1_555 1_555
H4A N4A 1_555 1_555
H4B N4B 1_555 1_555
H4M N4M 1_555 1_555
H4N N4N 1_555 1_555
H4L N4L 1_555 1_555
N5A Cu2A 1_555 1_555
N5B Cu2B 1_555 1_555
N5M C1M 1_555 1_555
N5N C1N 1_555 1_555
N5L C1L 1_555 1_555
N5I Cu2I 1_555 1_555
N5J Cu2J 1_555 1_555
N5K Cu2K 1_555 1_555
Cu3 Cu2A 1_555 1_555
Cu3 Cu2B 1_555 1_555
Cu3 I2B 1_555 1_555
I1 Cu2A 1_555 1_555
I1 Cu2B 1_555 1_555
I2 Cu2A 1_555 1_555
C1 N5 1_555 1_555
N3 N5 1_555 1_555
Cu2A Cu2B 1_555 1_555
Cu2A I2A 1_555 1_555
Cu2B I2A 1_555 1_555
Cu2B I2B 1_555 1_555
Cu2I Cu3I 1_555 1_555
Cu2J Cu3I 1_555 1_555
Cu2J I1I 1_555 1_555
Cu2J I2I 1_555 1_555
Cu2K Cu3I 1_555 1_555
Cu2K I1I 1_555 1_555
Cu2K I2J 1_555 1_555
Cu2K I2K 1_555 1_555
Cu3I I2I 1_555 1_555
Cu3I I2J 1_555 1_555
Cu3I I2K 1_555 1_555
C1A N5A 1_555 1_555
C1B N5B 1_555 1_555
C2A N3A 1_555 1_555
C2B N3B 1_555 1_555
C2M N3M 1_555 1_555
C2N N3N 1_555 1_555
C2L N3L 1_555 1_555
N3A N5A 1_555 1_555
N3B N5B 1_555 1_555
N3M N5M 1_555 1_555
N3N N5N 1_555 1_555
N3L N5L 1_555 1_555

#END
