
#######################################################################
#
#                 Cambridge Crystallographic Data Centre
#                                CCDC 
#
#######################################################################
#
# If this CIF has been generated from an entry in the Cambridge 
# Structural Database, then it will include bibliographic, chemical, 
# crystal, experimental, refinement or atomic coordinate data resulting 
# from the CCDC's data processing and validation procedures.
#
#######################################################################

data_MELJET
_symmetry_cell_setting           monoclinic
_symmetry_space_group_name_H-M   'P 21/n'
_symmetry_Int_Tables_number      14
_space_group_name_Hall           '-P 2yn'
loop_
_symmetry_equiv_pos_site_id
_symmetry_equiv_pos_as_xyz
1 x,y,z
2 1/2-x,1/2+y,1/2-z
3 -x,-y,-z
4 1/2+x,1/2-y,1/2+z
_cell_length_a                   8.349(2)
_cell_length_b                   8.4671(7)
_cell_length_c                   21.427(5)
_cell_angle_alpha                90
_cell_angle_beta                 93.89(2)
_cell_angle_gamma                90
_cell_volume                     1511.22
loop_
_atom_site_label
_atom_site_type_symbol
_atom_site_fract_x
_atom_site_fract_y
_atom_site_fract_z
Cd1 Cd -0.72159(3) -0.48157(3) 0.362900(12)
Cd2 Cd -0.62226(3) -0.68767(4) 0.017390(12)
C1 C -0.3595(5) -0.5902(6) 0.3294(2)
H1 H -0.3263 -0.5459 0.3679
C2 C -0.2448(5) -0.6448(6) 0.2910(2)
H2 H -0.1365 -0.6440 0.3044
C3 C -0.2941(5) -0.7006(5) 0.23209(19)
H3 H -0.2191 -0.7354 0.2050
C4 C -0.4580(5) -0.7042(5) 0.21367(18)
C5 C -0.5657(4) -0.6588(5) 0.25677(18)
C6 C -0.7463(5) -0.6790(4) 0.24380(19)
C7 C -0.5082(4) -0.7365(5) 0.14616(18)
C8 C -0.6561(5) -0.0399(5) 0.5953(2)
H4 H -0.7540 0.0007 0.6061
C9 C -0.5196(5) -0.0074(5) 0.6330(2)
H5 H -0.5256 0.0513 0.6695
C10 C -0.3741(5) -0.0635(5) 0.61557(19)
H6 H -0.2800 -0.0395 0.6394
C11 C -0.3689(4) -0.1562(4) 0.56208(17)
C12 C -0.5120(4) -0.1891(4) 0.52704(17)
C13 C -0.5186(5) -0.2955(4) 0.46974(18)
C14 C -0.2069(4) -0.2184(5) 0.54694(17)
N1 N -0.5175(4) -0.5995(4) 0.31281(15)
N2 N -0.6522(4) -0.1282(4) 0.54358(15)
O1 O -0.7943(3) -0.7563(4) 0.19660(14)
O2 O -0.8369(4) -0.6152(5) 0.28060(16)
O3 O -0.5194(4) -0.8763(4) 0.12584(15)
O4 O -0.5303(4) -0.6158(4) 0.11301(14)
O5 O -0.3947(4) -0.3566(4) 0.45454(16)
O6 O -0.6572(3) -0.3147(3) 0.44210(13)
O7 O -0.1198(3) -0.1284(4) 0.51679(13)
O8 O -0.1658(4) -0.3488(4) 0.56901(15)
O9 O -0.6378(3) -0.9172(4) -0.03828(15)
H7 H -0.7103 -0.9844 -0.0317
H8 H -0.5710 -0.9356 -0.0656
O1A O -0.7057(3) -0.2563(4) 0.30340(14)
Cd1A Cd -0.77841(3) -0.98157(3) 0.137100(12)
Cd2A Cd -0.87774(3) -0.18767(4) 0.482610(12)
N2A N -0.8478(4) -0.6282(4) -0.04358(15)
O6A O -0.8428(3) -0.8147(3) 0.05790(13)
O7A O -0.3802(3) -0.6284(4) -0.01679(13)
O7C O -0.6198(3) -0.3716(4) 0.01679(13)
O3A O -0.9806(4) -0.3763(4) 0.37416(15)
O8B O -0.8342(4) -0.6512(4) 0.43099(15)
Cd2A_2 Cd 0.12226(3) -0.18767(4) 0.482610(12)
Cd2C Cd -0.12226(3) 0.18767(4) 0.517390(12)
Cd1B Cd -0.27841(3) -0.51843(3) 0.637100(12)
loop_
_geom_bond_atom_site_label_1
_geom_bond_atom_site_label_2
_geom_bond_site_symmetry_1
_geom_bond_site_symmetry_2
Cd1 N1 1_555 1_555
Cd2 O4 1_555 1_555
C1 H1 1_555 1_555
C2 C1 1_555 1_555
H2 C2 1_555 1_555
C3 C2 1_555 1_555
H3 C3 1_555 1_555
C4 C3 1_555 1_555
C5 C4 1_555 1_555
C6 C5 1_555 1_555
C7 C4 1_555 1_555
C8 H4 1_555 1_555
C9 C8 1_555 1_555
H5 C9 1_555 1_555
C10 C9 1_555 1_555
H6 C10 1_555 1_555
C11 C10 1_555 1_555
C12 C11 1_555 1_555
C13 C12 1_555 1_555
C14 C11 1_555 1_555
N1 C1 1_555 1_555
N2 C8 1_555 1_555
O1 C6 1_555 1_555
O2 Cd1 1_555 1_555
O3 C7 1_555 1_555
O4 C7 1_555 1_555
O5 C13 1_555 1_555
O6 Cd1 1_555 1_555
O7 C14 1_555 1_555
O8 C14 1_555 1_555
O9 Cd2 1_555 1_555
H7 O9 1_555 1_555
H8 O9 1_555 1_555
O1A Cd1 1_555 1_555
Cd1A O1 1_555 1_555
Cd2A N2 1_555 1_555
N2A Cd2 1_555 1_555
O6A Cd2 1_555 1_555
O7A Cd2 1_555 1_555
O7C Cd2 1_555 1_555
O3A Cd1 1_555 1_555
O8B Cd1 1_555 1_555
Cd2A_2 O7 1_555 1_555
Cd2C O7 1_555 1_555
Cd1B O8 1_555 1_555
C5 N1 1_555 1_555
C6 O2 1_555 1_555
C12 N2 1_555 1_555
C13 O6 1_555 1_555
O3 Cd1A 1_555 1_555
O6 Cd2A 1_555 1_555
Cd1A O6A 1_555 1_555

#END
