
#######################################################################
#
#                 Cambridge Crystallographic Data Centre
#                                CCDC 
#
#######################################################################
#
# If this CIF has been generated from an entry in the Cambridge 
# Structural Database, then it will include bibliographic, chemical, 
# crystal, experimental, refinement or atomic coordinate data resulting 
# from the CCDC's data processing and validation procedures.
#
#######################################################################

data_MELQEA
_symmetry_cell_setting           monoclinic
_symmetry_space_group_name_H-M   'P 21/c'
_symmetry_Int_Tables_number      14
_space_group_name_Hall           '-P 2ybc'
loop_
_symmetry_equiv_pos_site_id
_symmetry_equiv_pos_as_xyz
1 x,y,z
2 -x,1/2+y,1/2-z
3 -x,-y,-z
4 x,1/2-y,1/2+z
_cell_length_a                   5.2930(11)
_cell_length_b                   14.679(3)
_cell_length_c                   11.007(3)
_cell_angle_alpha                90
_cell_angle_beta                 104.84(3)
_cell_angle_gamma                90
_cell_volume                     826.674
loop_
_atom_site_label
_atom_site_type_symbol
_atom_site_fract_x
_atom_site_fract_y
_atom_site_fract_z
Cu1 Cu -0.5000 0.5000 0.5000
O1 O -0.4969(6) 0.4151(2) 0.7275(2)
O2 O -0.2517(5) 0.51632(18) 0.6618(2)
N1 N -0.2815(6) 0.4007(2) 0.4588(3)
N2 N 0.0236(6) 0.2970(2) 0.4777(3)
C1 C -0.2267(7) 0.4497(3) 0.9795(3)
H1 H -0.3791 0.4154 0.9658
C2 C 0.0803(7) 0.5345(3) 0.8993(3)
H2 H 0.1357 0.5574 0.8317
C3 C -0.1482(7) 0.4847(2) 0.8782(3)
C4 C -0.3142(7) 0.4694(3) 0.7472(3)
C5 C -0.0569(8) 0.3703(3) 0.5277(4)
H3 H 0.0350 0.3969 0.6026
C6 C -0.3462(9) 0.3424(3) 0.3572(4)
H4 H -0.4950 0.3467 0.2907
C7 C -0.1616(9) 0.2789(3) 0.3696(4)
H5 H -0.1597 0.2310 0.3145
C8 C 0.2571(9) 0.2431(3) 0.5324(5)
H6 H 0.3536 0.2711 0.6091
H7 H 0.3646 0.2401 0.4743
H8 H 0.2066 0.1826 0.5498
Cu1_2 Cu 0.5000 0.5000 1.5000
O1B O 0.4969(6) 0.5849(2) 1.2725(2)
O2B O 0.2517(5) 0.48368(18) 1.3382(2)
O2B_2 O -0.7483(5) 0.48368(18) 0.3382(2)
N1B N -0.7185(6) 0.5993(2) 0.5412(3)
N2B N -1.0236(6) 0.7030(2) 0.5223(3)
C1B C 0.2267(7) 0.5503(3) 1.0205(3)
H1B H 0.3791 0.5846 1.0342
C2B C -0.0803(7) 0.4655(3) 1.1007(3)
H2B H -0.1357 0.4426 1.1683
C3B C 0.1482(7) 0.5153(2) 1.1218(3)
C4B C 0.3142(7) 0.5306(3) 1.2528(3)
C5B C -0.9431(8) 0.6297(3) 0.4723(4)
H3B H -1.0350 0.6031 0.3974
C6B C -0.6538(9) 0.6576(3) 0.6428(4)
H4B H -0.5050 0.6533 0.7093
C7B C -0.8384(9) 0.7211(3) 0.6304(4)
H5B H -0.8403 0.7690 0.6855
C8B C -1.2571(9) 0.7569(3) 0.4676(5)
H6B H -1.3536 0.7289 0.3909
H7B H -1.3646 0.7599 0.5257
H8B H -1.2066 0.8174 0.4502
loop_
_geom_bond_atom_site_label_1
_geom_bond_atom_site_label_2
_geom_bond_site_symmetry_1
_geom_bond_site_symmetry_2
Cu1 O2 1_555 1_555
O1 C4 1_555 1_555
O2 C4 1_555 1_555
N1 Cu1 1_555 1_555
N2 C5 1_555 1_555
C1 H1 1_555 1_555
C2 H2 1_555 1_555
C3 C1 1_555 1_555
C4 C3 1_555 1_555
C5 N1 1_555 1_555
H3 C5 1_555 1_555
C6 N1 1_555 1_555
H4 C6 1_555 1_555
C7 N2 1_555 1_555
H5 C7 1_555 1_555
C8 N2 1_555 1_555
H6 C8 1_555 1_555
H7 C8 1_555 1_555
H8 C8 1_555 1_555
Cu1_2 O2B 1_555 1_555
O1B C4B 1_555 1_555
O2B C4B 1_555 1_555
O2B_2 Cu1 1_555 1_555
N1B Cu1 1_555 1_555
N2B C5B 1_555 1_555
C1B C2 1_555 1_555
H1B C1B 1_555 1_555
C2B C1 1_555 1_555
H2B C2B 1_555 1_555
C3B C1B 1_555 1_555
C4B C3B 1_555 1_555
C5B N1B 1_555 1_555
H3B C5B 1_555 1_555
C6B N1B 1_555 1_555
H4B C6B 1_555 1_555
C7B N2B 1_555 1_555
H5B C7B 1_555 1_555
C8B N2B 1_555 1_555
H6B C8B 1_555 1_555
H7B C8B 1_555 1_555
H8B C8B 1_555 1_555
C2 C3 1_555 1_555
C6 C7 1_555 1_555
C2B C3B 1_555 1_555
C6B C7B 1_555 1_555

#END
