
#######################################################################
#
#                 Cambridge Crystallographic Data Centre
#                                CCDC 
#
#######################################################################
#
# If this CIF has been generated from an entry in the Cambridge 
# Structural Database, then it will include bibliographic, chemical, 
# crystal, experimental, refinement or atomic coordinate data resulting 
# from the CCDC's data processing and validation procedures.
#
#######################################################################

data_MEMDIR
_symmetry_cell_setting           monoclinic
_symmetry_space_group_name_H-M   'P 21/c'
_symmetry_Int_Tables_number      14
_space_group_name_Hall           '-P 2ybc'
loop_
_symmetry_equiv_pos_site_id
_symmetry_equiv_pos_as_xyz
1 x,y,z
2 x,1/2-y,1/2+z
3 -x,-y,-z
4 -x,1/2+y,1/2-z
_cell_length_a                   12.716(6)
_cell_length_b                   25.803(9)
_cell_length_c                   7.606(4)
_cell_angle_alpha                90
_cell_angle_beta                 90.48(2)
_cell_angle_gamma                90
_cell_volume                     2495.52
loop_
_atom_site_label
_atom_site_type_symbol
_atom_site_fract_x
_atom_site_fract_y
_atom_site_fract_z
H1 H -0.5707 0.3606 -0.2863
H2 H -0.4901 0.3635 -0.1500
Ag1 Ag -0.15926(5) 0.28537(3) -0.42157(13)
S1 S -0.3299(2) 0.32855(10) -0.3996(4)
S2 S -0.0566(2) 0.22286(10) -0.2135(3)
N1 N -0.5044(7) 0.2116(4) -0.2543(12)
N2 N -0.4154(6) 0.2328(3) -0.3282(11)
H5 H -0.3661(6) 0.2146(3) -0.3740(11)
N3 N -0.5063(5) 0.2958(3) -0.2396(10)
N4 N -0.5435(5) 0.3447(3) -0.1928(11)
N5 N 0.1822(6) 0.2995(4) -0.0174(13)
N6 N 0.1288(6) 0.2563(3) -0.0622(11)
H6 H 0.1522(6) 0.2256(3) -0.0420(11)
N7 N 0.0306(5) 0.3178(3) -0.1394(10)
N8 N -0.0523(5) 0.3463(3) -0.2165(10)
H7 H -0.0942(5) 0.3591(3) -0.1323(10)
H8 H -0.0263(5) 0.3730(3) -0.2787(10)
C1 C -0.4140(6) 0.2841(4) -0.3215(12)
C2 C -0.5568(7) 0.2532(5) -0.2021(14)
H9 H -0.6214(7) 0.2521(5) -0.1458(14)
C3 C 0.0359(6) 0.2655(4) -0.1413(12)
C4 C 0.1220(7) 0.3367(4) -0.0620(13)
H10 H 0.1371(7) 0.3716(4) -0.0451(13)
S2A S -0.0566(2) 0.27714(10) -0.7135(3)
Ag1A Ag -0.15926(5) 0.21463(3) 0.07843(13)
H3 H 0.0134 0.1076 -0.1414
H4 H -0.0482 0.1106 -0.3029
Ag2 Ag -0.38465(5) 0.03707(4) -0.08019(12)
S3 S -0.2063(2) 0.06708(11) -0.0230(4)
S4 S -0.5002(2) -0.02721(10) -0.2408(3)
N9 N -0.0427(6) -0.0420(3) -0.2459(11)
N10 N -0.1256(5) -0.0232(3) -0.1535(10)
H11 H -0.1743(5) -0.0427(3) -0.1116(10)
N11 N -0.0340(6) 0.0421(3) -0.2188(10)
N12 N 0.0004(5) 0.0928(3) -0.2452(11)
N13 N -0.7358(6) 0.0474(4) -0.4517(12)
N14 N -0.6775(6) 0.0047(3) -0.4127(11)
H12 H -0.6945(6) -0.0260(3) -0.4463(11)
N15 N -0.5940(5) 0.0669(3) -0.2966(10)
N16 N -0.5220(5) 0.0950(3) -0.1932(11)
H13 H -0.5557(5) 0.1100(3) -0.1028(11)
H14 H -0.4927(5) 0.1202(3) -0.2582(11)
C5 C -0.1242(7) 0.0274(4) -0.1346(13)
C6 C 0.0136(7) -0.0012(5) -0.2815(14)
H15 H 0.0772(7) -0.0017(5) -0.3411(14)
C7 C -0.5904(7) 0.0151(4) -0.3161(12)
C8 C -0.6812(8) 0.0843(4) -0.3834(14)
H16 H -0.6993(8) 0.1191(4) -0.3924(14)
Ag2B Ag -0.61535(5) -0.03707(4) 0.08019(12)
S3B S -0.7937(2) -0.06708(11) 0.0230(4)
C5B C -0.8758(7) -0.0274(4) 0.1346(13)
N10B N -0.8744(5) 0.0232(3) 0.1535(10)
N9B N -0.9573(6) 0.0420(3) 0.2459(11)
C6B C -1.0136(7) 0.0012(5) 0.2815(14)
N11B N -0.9660(6) -0.0421(3) 0.2188(10)
N12B N -1.0004(5) -0.0928(3) 0.2452(11)
H3B H -1.0134 -0.1076 0.1414
H4B H -0.9518 -0.1106 0.3029
H15B H -1.0772(7) 0.0017(5) 0.3411(14)
H11B H -0.8257(5) 0.0427(3) 0.1116(10)
S4B S -0.4998(2) 0.02721(10) 0.2408(3)
C7B C -0.4096(7) -0.0151(4) 0.3161(12)
N14B N -0.3225(6) -0.0047(3) 0.4127(11)
N13B N -0.2642(6) -0.0474(4) 0.4517(12)
C8B C -0.3188(8) -0.0843(4) 0.3834(14)
N15B N -0.4060(5) -0.0669(3) 0.2966(10)
N16B N -0.4780(5) -0.0950(3) 0.1932(11)
H13B H -0.4443(5) -0.1100(3) 0.1028(11)
H14B H -0.5073(5) -0.1202(3) 0.2582(11)
H16B H -0.3007(8) -0.1191(4) 0.3924(14)
H12B H -0.3055(6) 0.0260(3) 0.4463(11)
N17 N -0.2675(7) 0.1220(4) -0.4609(12)
O1 O -0.2023(5) 0.0870(3) -0.4956(10)
O2 O -0.2374(5) 0.1664(3) -0.4238(11)
O3 O -0.3625(5) 0.1112(3) -0.4558(10)
N18 N -0.2432(7) -0.1366(4) -0.0312(12)
O4 O -0.1469(5) -0.1421(3) -0.0379(10)
O5 O -0.2837(5) -0.0942(3) -0.0585(11)
O6 O -0.2975(5) -0.1744(3) 0.0136(12)
loop_
_geom_bond_atom_site_label_1
_geom_bond_atom_site_label_2
_geom_bond_site_symmetry_1
_geom_bond_site_symmetry_2
H1 N4 1_555 1_555
H2 N4 1_555 1_555
H3 N12 1_555 1_555
H4 N12 1_555 1_555
Ag1 S1 1_555 1_555
S1 C1 1_555 1_555
S2 Ag1 1_555 1_555
N1 N2 1_555 1_555
N2 H5 1_555 1_555
N3 N4 1_555 1_555
N5 N6 1_555 1_555
N6 H6 1_555 1_555
N7 N8 1_555 1_555
N8 Ag1 1_555 1_555
H7 N8 1_555 1_555
H8 N8 1_555 1_555
C1 N2 1_555 1_555
C2 N1 1_555 1_555
H9 C2 1_555 1_555
C3 S2 1_555 1_555
C4 N5 1_555 1_555
H10 C4 1_555 1_555
Ag2 S3 1_555 1_555
S3 C5 1_555 1_555
S4 Ag2 1_555 1_555
N9 N10 1_555 1_555
N10 H11 1_555 1_555
N11 N12 1_555 1_555
N13 N14 1_555 1_555
N14 H12 1_555 1_555
N15 N16 1_555 1_555
N16 Ag2 1_555 1_555
H13 N16 1_555 1_555
H14 N16 1_555 1_555
C5 N10 1_555 1_555
C6 N9 1_555 1_555
H15 C6 1_555 1_555
C7 S4 1_555 1_555
C8 N13 1_555 1_555
H16 C8 1_555 1_555
N17 O1 1_555 1_555
O2 N17 1_555 1_555
O3 N17 1_555 1_555
N18 O4 1_555 1_555
O5 N18 1_555 1_555
O6 N18 1_555 1_555
S2A Ag1 1_555 1_555
Ag2B S4 1_555 1_555
S3B Ag2B 1_555 1_555
C5B S3B 1_555 1_555
N10B C5B 1_555 1_555
N9B N10B 1_555 1_555
C6B N9B 1_555 1_555
N11B C5B 1_555 1_555
N12B N11B 1_555 1_555
H3B N12B 1_555 1_555
H4B N12B 1_555 1_555
H15B C6B 1_555 1_555
H11B N10B 1_555 1_555
S4B Ag2 1_555 1_555
C7B S4B 1_555 1_555
N14B C7B 1_555 1_555
N13B N14B 1_555 1_555
C8B N13B 1_555 1_555
N15B C7B 1_555 1_555
N16B Ag2B 1_555 1_555
H13B N16B 1_555 1_555
H14B N16B 1_555 1_555
H16B C8B 1_555 1_555
H12B N14B 1_555 1_555
Ag1A S2 1_555 1_555
N3 C1 1_555 1_555
N3 C2 1_555 1_555
N6 C3 1_555 1_555
N7 C3 1_555 1_555
N7 C4 1_555 1_555
N11 C5 1_555 1_555
N11 C6 1_555 1_555
N14 C7 1_555 1_555
N15 C7 1_555 1_555
N15 C8 1_555 1_555
Ag2B S4B 1_555 1_555
C6B N11B 1_555 1_555
C8B N15B 1_555 1_555
N15B N16B 1_555 1_555

#END
