
#######################################################################
#
#                 Cambridge Crystallographic Data Centre
#                                CCDC 
#
#######################################################################
#
# If this CIF has been generated from an entry in the Cambridge 
# Structural Database, then it will include bibliographic, chemical, 
# crystal, experimental, refinement or atomic coordinate data resulting 
# from the CCDC's data processing and validation procedures.
#
#######################################################################

data_MEMFEP
_symmetry_cell_setting           monoclinic
_symmetry_space_group_name_H-M   'P 21/c'
_symmetry_Int_Tables_number      14
_space_group_name_Hall           '-P 2ybc'
loop_
_symmetry_equiv_pos_site_id
_symmetry_equiv_pos_as_xyz
1 x,y,z
2 x,1/2-y,1/2+z
3 -x,-y,-z
4 -x,1/2+y,1/2-z
_cell_length_a                   10.537(4)
_cell_length_b                   16.493(2)
_cell_length_c                   13.567(1)
_cell_angle_alpha                90
_cell_angle_beta                 92.70(2)
_cell_angle_gamma                90
_cell_volume                     2355.15
loop_
_atom_site_label
_atom_site_type_symbol
_atom_site_fract_x
_atom_site_fract_y
_atom_site_fract_z
Cr1 Cr 0.95644(6) 0.17231(4) 0.67700(4)
K1 K 1.46877(8) 0.04113(5) 0.84421(6)
S1 S 1.74768(10) -0.10450(7) 0.95881(8)
S2 S 1.00513(9) 0.10397(6) 0.47232(7)
S3 S 0.82152(9) 0.30972(6) 0.55757(7)
S4 S 1.51309(10) -0.10139(8) 0.62766(8)
O1 O 1.0297(2) 0.1756(2) 0.5437(2)
O2 O 1.0361(2) 0.0663(2) 0.7044(2)
O3 O 1.1138(2) 0.2138(2) 0.7411(2)
O4 O 0.8687(2) 0.1680(2) 0.8005(2)
O5 O 1.2127(3) 0.0123(2) 0.7731(2)
O6 O 0.8975(3) 0.2855(2) 0.6529(2)
O7 O 0.7957(2) 0.1270(2) 0.6221(2)
O8 O 1.2966(3) 0.1704(2) 0.8131(2)
O9 O 0.6013(3) 0.0937(2) 0.6677(2)
O10 O 0.6816(3) 0.1339(2) 0.8603(2)
O11 O 1.6343(3) -0.0512(2) 0.9723(2)
O12 O 1.5167(3) -0.0928(2) 0.7373(2)
C1 C 0.7090(4) 0.1179(2) 0.6859(3)
C2 C 1.1472(4) 0.0706(2) 0.7493(3)
C3 C 1.1932(4) 0.1582(2) 0.7715(3)
C4 C 1.3857(5) -0.0393(3) 0.5816(4)
C5 C 1.8031(5) -0.0834(3) 0.8387(3)
C6 C 0.6742(4) 0.3447(3) 0.6025(4)
C7 C 0.9392(5) 0.1482(3) 0.3644(4)
C8 C 0.8894(5) 0.4053(3) 0.5299(4)
C9 C 1.6885(5) -0.2032(3) 0.9336(4)
C10 C 1.4408(6) -0.1976(4) 0.6025(5)
C11 C 1.1576(5) 0.0821(4) 0.4289(4)
C12 C 0.7536(4) 0.1410(2) 0.7926(3)
H1 H 1.412(5) 0.013(3) 0.587(4)
H2 H 1.862(5) -0.124(3) 0.824(3)
H3 H 0.629(5) 0.370(3) 0.543(4)
H4 H 1.755(5) -0.237(3) 0.918(3)
H5 H 1.639(5) -0.198(3) 0.874(4)
H6 H 1.501(5) -0.235(3) 0.629(4)
H7 H 1.426(5) -0.199(3) 0.535(4)
H8 H 1.364(5) -0.189(3) 0.648(3)
H9 H 1.191(5) 0.139(3) 0.411(3)
H10 H 1.646(4) -0.221(3) 0.994(3)
H11 H 0.966(5) 0.389(3) 0.505(3)
H12 H 1.731(4) -0.081(3) 0.795(3)
H13 H 0.640(5) 0.301(3) 0.623(3)
H14 H 1.840(5) -0.033(3) 0.836(4)
H15 H 0.841(5) 0.429(3) 0.489(4)
H16 H 0.897(4) 0.436(3) 0.589(3)
H17 H 0.981(4) 0.194(3) 0.338(3)
H18 H 0.870(5) 0.174(3) 0.377(3)
H19 H 0.922(4) 0.103(3) 0.314(3)
H20 H 1.201(5) 0.058(3) 0.487(4)
H21 H 1.154(5) 0.040(3) 0.383(4)
H22 H 1.371(4) -0.051(3) 0.517(4)
H23 H 1.313(5) -0.049(3) 0.618(4)
H24 H 0.691(4) 0.381(3) 0.654(3)
K1_2 K 0.46877(8) 0.04113(5) 0.84421(6)
O9_2 O 1.6013(3) 0.0937(2) 0.6677(2)
O10_2 O 1.6816(3) 0.1339(2) 0.8603(2)
O11B O 1.3657(3) 0.0512(2) 1.0277(2)
K1B K 1.53123(8) -0.04113(5) 1.15579(6)
loop_
_geom_bond_atom_site_label_1
_geom_bond_atom_site_label_2
_geom_bond_site_symmetry_1
_geom_bond_site_symmetry_2
Cr1 O1 1_555 1_555
K1 O5 1_555 1_555
S1 O11 1_555 1_555
S2 O1 1_555 1_555
S3 O6 1_555 1_555
S4 O12 1_555 1_555
O2 Cr1 1_555 1_555
O3 Cr1 1_555 1_555
O4 Cr1 1_555 1_555
O5 C2 1_555 1_555
O6 Cr1 1_555 1_555
O7 Cr1 1_555 1_555
O8 K1 1_555 1_555
O9 C1 1_555 1_555
O10 C12 1_555 1_555
O11 K1 1_555 1_555
O12 K1 1_555 1_555
C1 O7 1_555 1_555
C2 O2 1_555 1_555
C3 O3 1_555 1_555
C4 S4 1_555 1_555
C5 S1 1_555 1_555
C6 S3 1_555 1_555
C7 S2 1_555 1_555
C8 S3 1_555 1_555
C9 S1 1_555 1_555
C10 S4 1_555 1_555
C11 S2 1_555 1_555
C12 O4 1_555 1_555
H1 C4 1_555 1_555
H2 C5 1_555 1_555
H3 C6 1_555 1_555
H4 C9 1_555 1_555
H5 C9 1_555 1_555
H6 C10 1_555 1_555
H7 C10 1_555 1_555
H8 C10 1_555 1_555
H9 C11 1_555 1_555
H10 C9 1_555 1_555
H11 C8 1_555 1_555
H12 C5 1_555 1_555
H13 C6 1_555 1_555
H14 C5 1_555 1_555
H15 C8 1_555 1_555
H16 C8 1_555 1_555
H17 C7 1_555 1_555
H18 C7 1_555 1_555
H19 C7 1_555 1_555
H20 C11 1_555 1_555
H21 C11 1_555 1_555
H22 C4 1_555 1_555
H23 C4 1_555 1_555
H24 C6 1_555 1_555
K1_2 O9 1_555 1_555
O9_2 K1 1_555 1_555
O10_2 K1 1_555 1_555
O11B K1 1_555 1_555
K1B O11 1_555 1_555
O8 C3 1_555 1_555
O10 K1_2 1_555 1_555
C1 C12 1_555 1_555
C2 C3 1_555 1_555
O11B K1B 1_555 1_555

#END
