
#######################################################################
#
#                 Cambridge Crystallographic Data Centre
#                                CCDC 
#
#######################################################################
#
# If this CIF has been generated from an entry in the Cambridge 
# Structural Database, then it will include bibliographic, chemical, 
# crystal, experimental, refinement or atomic coordinate data resulting 
# from the CCDC's data processing and validation procedures.
#
#######################################################################

data_MENBOX05
_symmetry_cell_setting           triclinic
_symmetry_space_group_name_H-M   'P -1'
_symmetry_Int_Tables_number      2
_space_group_name_Hall           '-P 1'
loop_
_symmetry_equiv_pos_site_id
_symmetry_equiv_pos_as_xyz
1 x,y,z
2 -x,-y,-z
_cell_length_a                   10.0604(5)
_cell_length_b                   10.1121(6)
_cell_length_c                   13.2151(8)
_cell_angle_alpha                75.6640(18)
_cell_angle_beta                 68.6105(15)
_cell_angle_gamma                65.3574(15)
_cell_volume                     1130.52
loop_
_atom_site_label
_atom_site_type_symbol
_atom_site_fract_x
_atom_site_fract_y
_atom_site_fract_z
Ni1 Ni 0.0000 0.5000 0.5000
Ni2 Ni -0.14503(5) 0.73252(5) 0.27815(4)
O1 O 0.1142(3) 0.6309(3) 0.3965(2)
O2 O -0.0617(3) 0.8349(3) 0.3422(2)
O3 O -0.0337(3) 1.3134(3) 0.3427(2)
O4 O 0.1394(3) 1.3208(2) 0.4068(2)
O5 O 0.6242(3) 0.8389(3) 0.3549(2)
O6 O 0.5552(3) 0.6573(3) 0.4662(2)
O7 O -0.1467(3) 0.5652(2) 0.4051(2)
O8 O -0.1594(3) 0.9036(3) 0.1530(2)
O9 O -0.2060(4) 0.6339(4) 0.1894(3)
O10 O 0.0729(3) 0.6141(3) 0.1869(3)
C1 C 0.1407(3) 0.8567(3) 0.3817(2)
C2 C 0.0804(4) 1.0090(4) 0.3685(2)
C3 C 0.1577(3) 1.0888(3) 0.3791(2)
C4 C 0.3013(4) 1.0157(4) 0.3959(3)
C5 C 0.3649(4) 0.8633(4) 0.4053(3)
C6 C 0.2818(4) 0.7836(4) 0.4025(3)
C7 C 0.0573(4) 0.7673(4) 0.3731(3)
C8 C 0.0840(4) 1.2526(4) 0.3747(3)
C9 C 0.5257(4) 0.7798(4) 0.4114(3)
H1 H -0.0122 1.0577 0.3525
H2 H 0.3547 1.0688 0.4008
H3 H 0.3205 0.6819 0.4145
H4 H -0.255(7) 0.596(6) 0.441(5)
H5 H -0.100(8) 0.473(8) 0.375(6)
Ni1_2 Ni 0.0000 1.5000 0.5000
Ni1_3 Ni 0.0000 -0.5000 0.5000
Ni2A Ni 0.14503(5) 0.26748(5) 0.72185(4)
Ni2_2 Ni 0.85497(5) 0.73252(5) 0.27815(4)
Ni2A_2 Ni -0.85497(5) 0.26748(5) 0.72185(4)
O1A O -0.1142(3) 0.3691(3) 0.6035(2)
O2A O 0.0617(3) 0.1651(3) 0.6578(2)
O3A O 0.0337(3) -0.3134(3) 0.6573(2)
O4A O -0.1394(3) -0.3208(2) 0.5932(2)
O4_2 O 0.1394(3) 0.3208(2) 0.4068(2)
O4A_2 O -0.1394(3) 0.6792(2) 0.5932(2)
O5A O -0.6242(3) 0.1611(3) 0.6451(2)
O5_2 O -0.3758(3) 0.8389(3) 0.3549(2)
O5A_2 O 0.3758(3) 0.1611(3) 0.6451(2)
O6A O -0.5552(3) 0.3427(3) 0.5338(2)
O7A O 0.1467(3) 0.4348(2) 0.5949(2)
O8A O 0.1594(3) 0.0964(3) 0.8470(2)
O9A O 0.2060(4) 0.3661(4) 0.8106(3)
O10A O -0.0729(3) 0.3859(3) 0.8131(3)
C1A C -0.1407(3) 0.1433(3) 0.6183(2)
C2A C -0.0804(4) -0.0090(4) 0.6315(2)
C3A C -0.1577(3) -0.0888(3) 0.6209(2)
C4A C -0.3013(4) -0.0157(4) 0.6041(3)
C5A C -0.3649(4) 0.1367(4) 0.5947(3)
C6A C -0.2818(4) 0.2164(4) 0.5975(3)
C7A C -0.0573(4) 0.2327(4) 0.6269(3)
C8A C -0.0840(4) -0.2526(4) 0.6253(3)
C9A C -0.5257(4) 0.2202(4) 0.5886(3)
H1A H 0.0122 -0.0577 0.6475
H2A H -0.3547 -0.0688 0.5992
H3A H -0.3205 0.3181 0.5855
H4A H 0.255(7) 0.404(6) 0.559(5)
H5A H 0.100(8) 0.527(8) 0.625(6)
Ni3 Ni 0.5000 0.5000 0.0000
Ni4 Ni 0.63235(5) 0.26543(5) 0.22503(4)
O11 O 0.3840(3) 0.3663(2) 0.0942(2)
O12 O 0.5527(3) 0.1639(2) 0.1568(2)
O13 O 0.5177(3) -0.3139(3) 0.1644(2)
O14 O 0.3499(3) -0.3225(3) 0.0953(2)
O15 O -0.1355(3) 0.1599(3) 0.1501(2)
O16 O -0.0691(3) 0.3439(3) 0.0402(2)
O17 O 0.6360(3) 0.4347(3) 0.1014(2)
O18 O 0.6450(3) 0.0944(3) 0.3498(2)
O19 O 0.6856(3) 0.3632(3) 0.3198(2)
O20 O 0.4096(3) 0.3838(3) 0.3104(2)
C10 C 0.3514(4) 0.1425(4) 0.1167(2)
C11 C 0.4104(4) -0.0099(4) 0.1305(3)
C12 C 0.3312(4) -0.0896(4) 0.1217(3)
C13 C 0.1868(4) -0.0159(4) 0.1063(3)
C14 C 0.1240(4) 0.1361(4) 0.0971(3)
C15 C 0.2083(4) 0.2157(4) 0.0980(3)
C16 C 0.4364(4) 0.2315(4) 0.1228(3)
C17 C 0.4035(4) -0.2537(4) 0.1285(3)
C18 C -0.0380(4) 0.2200(4) 0.0937(3)
H6 H 0.5035 -0.0590 0.1457
H7 H 0.1324 -0.0686 0.1022
H8 H 0.1694 0.3174 0.0862
H9 H 0.750(7) 0.399(7) 0.066(5)
H10 H 0.584(8) 0.535(8) 0.133(5)
Ni3_2 Ni 0.5000 -0.5000 0.0000
Ni3_3 Ni 0.5000 1.5000 0.0000
Ni4A Ni 0.36765(5) 0.73457(5) -0.22503(4)
Ni4_2 Ni -0.36765(5) 0.26543(5) 0.22503(4)
Ni4A_2 Ni 1.36765(5) 0.73457(5) -0.22503(4)
O11A O 0.6160(3) 0.6337(2) -0.0942(2)
O12A O 0.4473(3) 0.8361(2) -0.1568(2)
O13A O 0.4823(3) 1.3139(3) -0.1644(2)
O14A O 0.6501(3) 1.3225(3) -0.0953(2)
O14_2 O 0.3499(3) 0.6775(3) 0.0953(2)
O14A_2 O 0.6501(3) 0.3225(3) -0.0953(2)
O15A O 1.1355(3) 0.8401(3) -0.1501(2)
O15_2 O 0.8645(3) 0.1599(3) 0.1501(2)
O15A_2 O 0.1355(3) 0.8401(3) -0.1501(2)
O16A O 1.0691(3) 0.6561(3) -0.0402(2)
O17A O 0.3640(3) 0.5653(3) -0.1014(2)
O18A O 0.3550(3) 0.9056(3) -0.3498(2)
O19A O 0.3144(3) 0.6368(3) -0.3198(2)
O20A O 0.5904(3) 0.6162(3) -0.3104(2)
C10A C 0.6486(4) 0.8575(4) -0.1167(2)
C11A C 0.5896(4) 1.0099(4) -0.1305(3)
C12A C 0.6688(4) 1.0896(4) -0.1217(3)
C13A C 0.8132(4) 1.0159(4) -0.1063(3)
C14A C 0.8760(4) 0.8639(4) -0.0971(3)
C15A C 0.7917(4) 0.7843(4) -0.0980(3)
C16A C 0.5636(4) 0.7685(4) -0.1228(3)
C17A C 0.5965(4) 1.2537(4) -0.1285(3)
C18A C 1.0380(4) 0.7800(4) -0.0937(3)
H6A H 0.4965 1.0590 -0.1457
H7A H 0.8676 1.0686 -0.1022
H8A H 0.8306 0.6826 -0.0862
H9A H 0.250(7) 0.601(7) -0.066(5)
H10A H 0.416(8) 0.465(8) -0.133(5)
loop_
_geom_bond_atom_site_label_1
_geom_bond_atom_site_label_2
_geom_bond_site_symmetry_1
_geom_bond_site_symmetry_2
Ni1 O1 1_555 1_555
Ni2 O2 1_555 1_555
O1 C7 1_555 1_555
O2 C7 1_555 1_555
O3 C8 1_555 1_555
O4 C8 1_555 1_555
O5 C9 1_555 1_555
O6 C9 1_555 1_555
O7 Ni1 1_555 1_555
O8 Ni2 1_555 1_555
O9 Ni2 1_555 1_555
O10 Ni2 1_555 1_555
C1 C2 1_555 1_555
C2 C3 1_555 1_555
C3 C4 1_555 1_555
C4 C5 1_555 1_555
C5 C6 1_555 1_555
C6 C1 1_555 1_555
C7 C1 1_555 1_555
C8 C3 1_555 1_555
C9 C5 1_555 1_555
H1 C2 1_555 1_555
H2 C4 1_555 1_555
H3 C6 1_555 1_555
H4 O7 1_555 1_555
H5 O7 1_555 1_555
Ni3 O11 1_555 1_555
Ni4 O12 1_555 1_555
O11 C16 1_555 1_555
O12 C16 1_555 1_555
O13 C17 1_555 1_555
O14 C17 1_555 1_555
O15 C18 1_555 1_555
O16 C18 1_555 1_555
O17 Ni3 1_555 1_555
O18 Ni4 1_555 1_555
O19 Ni4 1_555 1_555
O20 Ni4 1_555 1_555
C10 C11 1_555 1_555
C11 C12 1_555 1_555
C12 C13 1_555 1_555
C13 C14 1_555 1_555
C14 C15 1_555 1_555
C15 C10 1_555 1_555
C16 C10 1_555 1_555
C17 C12 1_555 1_555
C18 C14 1_555 1_555
H6 C11 1_555 1_555
H7 C13 1_555 1_555
H8 C15 1_555 1_555
H9 O17 1_555 1_555
H10 O17 1_555 1_555
Ni1_2 O4 1_555 1_555
Ni1_3 O4A 1_555 1_555
Ni2A O2A 1_555 1_555
Ni2_2 O5 1_555 1_555
Ni2A_2 O5A 1_555 1_555
O1A Ni1 1_555 1_555
O2A C7A 1_555 1_555
O3A C8A 1_555 1_555
O4A C8A 1_555 1_555
O4_2 Ni1 1_555 1_555
O4A_2 Ni1 1_555 1_555
O5A C9A 1_555 1_555
O5_2 Ni2 1_555 1_555
O5A_2 Ni2A 1_555 1_555
O6A C9A 1_555 1_555
O7A Ni1 1_555 1_555
O8A Ni2A 1_555 1_555
O9A Ni2A 1_555 1_555
O10A Ni2A 1_555 1_555
C1A C2A 1_555 1_555
C2A C3A 1_555 1_555
C3A C4A 1_555 1_555
C4A C5A 1_555 1_555
C5A C6A 1_555 1_555
C6A C1A 1_555 1_555
C7A O1A 1_555 1_555
C8A C3A 1_555 1_555
C9A C5A 1_555 1_555
H1A C2A 1_555 1_555
H2A C4A 1_555 1_555
H3A C6A 1_555 1_555
H4A O7A 1_555 1_555
H5A O7A 1_555 1_555
Ni3_2 O14 1_555 1_555
Ni3_3 O14A 1_555 1_555
Ni4A O12A 1_555 1_555
Ni4_2 O15 1_555 1_555
Ni4A_2 O15A 1_555 1_555
O11A Ni3 1_555 1_555
O12A C16A 1_555 1_555
O13A C17A 1_555 1_555
O14A C17A 1_555 1_555
O14_2 Ni3 1_555 1_555
O14A_2 Ni3 1_555 1_555
O15A C18A 1_555 1_555
O15_2 Ni4 1_555 1_555
O15A_2 Ni4A 1_555 1_555
O16A C18A 1_555 1_555
O17A Ni3 1_555 1_555
O18A Ni4A 1_555 1_555
O19A Ni4A 1_555 1_555
O20A Ni4A 1_555 1_555
C10A C11A 1_555 1_555
C11A C12A 1_555 1_555
C12A C13A 1_555 1_555
C13A C14A 1_555 1_555
C14A C15A 1_555 1_555
C15A C10A 1_555 1_555
C16A O11A 1_555 1_555
C17A C12A 1_555 1_555
C18A C14A 1_555 1_555
H6A C11A 1_555 1_555
H7A C13A 1_555 1_555
H8A C15A 1_555 1_555
H9A O17A 1_555 1_555
H10A O17A 1_555 1_555
Ni2 O7 1_555 1_555
Ni4 O17 1_555 1_555
Ni2A O7A 1_555 1_555
C1A C7A 1_555 1_555
Ni4A O17A 1_555 1_555
C10A C16A 1_555 1_555

#END
