
#######################################################################
#
#                 Cambridge Crystallographic Data Centre
#                                CCDC 
#
#######################################################################
#
# If this CIF has been generated from an entry in the Cambridge 
# Structural Database, then it will include bibliographic, chemical, 
# crystal, experimental, refinement or atomic coordinate data resulting 
# from the CCDC's data processing and validation procedures.
#
#######################################################################

data_MENBOX11
_symmetry_cell_setting           triclinic
_symmetry_space_group_name_H-M   'P -1'
_symmetry_Int_Tables_number      2
_space_group_name_Hall           '-P 1'
loop_
_symmetry_equiv_pos_site_id
_symmetry_equiv_pos_as_xyz
1 x,y,z
2 -x,-y,-z
_cell_length_a                   10.0317(14)
_cell_length_b                   10.0852(14)
_cell_length_c                   13.1549(18)
_cell_angle_alpha                75.727(2)
_cell_angle_beta                 68.631(2)
_cell_angle_gamma                65.408(2)
_cell_volume                     1119.89
loop_
_atom_site_label
_atom_site_type_symbol
_atom_site_fract_x
_atom_site_fract_y
_atom_site_fract_z
Ni1 Ni 0.12553(4) 0.76410(4) 0.22708(3)
Ni2 Ni 0.0000 1.0000 0.0000
O1 O 0.1298(2) 0.9339(2) 0.10539(16)
O2 O 0.0486(2) 0.6625(2) 0.15644(17)
O3 O 0.1379(3) 0.5942(2) 0.35164(18)
O4 O -0.0980(3) 0.8823(3) 0.3098(2)
O5 O -0.6416(2) 0.6586(2) 0.15318(18)
O6 O 0.1773(3) 0.8629(3) 0.32240(19)
O7 O -0.1154(2) 0.8641(2) 0.08765(17)
O8 O -0.1566(2) 0.1757(2) 0.09711(18)
O9 O -0.5771(2) 0.8444(2) 0.0441(2)
O10 O 0.0073(2) 0.1849(2) 0.16984(19)
C1 C -0.1529(3) 0.6417(3) 0.1153(2)
C2 C -0.2963(3) 0.7148(3) 0.0977(2)
H1 H -0.3350 0.8167 0.0857
C3 C -0.3819(3) 0.6355(3) 0.0981(2)
C4 C -0.3196(3) 0.4836(3) 0.1076(2)
H2 H -0.3746 0.4308 0.1040
C5 C -0.1751(3) 0.4100(3) 0.1224(2)
C6 C -0.0945(3) 0.4889(3) 0.1295(2)
H3 H -0.0006 0.4393 0.1439
C7 C -0.0659(3) 0.7299(3) 0.1200(2)
C8 C -0.5438(3) 0.7184(3) 0.0962(2)
C9 C -0.1038(3) 0.2452(3) 0.1309(2)
H4 H 0.235(4) 0.532(7) 0.361(6)
H5 H 0.110(4) 0.519(3) 0.345(3)
H6 H -0.164(6) 0.980(3) 0.321(6)
H7 H -0.190(3) 0.866(5) 0.326(4)
H8 H 0.277(4) 0.855(8) 0.318(6)
H9 H 0.099(5) 0.867(7) 0.390(3)
H10 H 0.2371(14) 0.909(4) 0.071(3)
H11 H 0.078(4) 1.025(2) 0.136(3)
Ni1A Ni -0.12553(4) 1.23590(4) -0.22708(3)
Ni1_2 Ni -0.87447(4) 0.76410(4) 0.22708(3)
Ni1A_2 Ni 0.87447(4) 1.23590(4) -0.22708(3)
Ni2_2 Ni 0.0000 0.0000 0.0000
Ni2_3 Ni 0.0000 2.0000 0.0000
O1A O -0.1298(2) 1.0661(2) -0.10539(16)
O2A O -0.0486(2) 1.3375(2) -0.15644(17)
O3A O -0.1379(3) 1.4058(2) -0.35164(18)
O4A O 0.0980(3) 1.1177(3) -0.3098(2)
O5A O 0.6416(2) 1.3414(2) -0.15318(18)
O5_2 O 0.3584(2) 0.6586(2) 0.15318(18)
O5A_2 O -0.3584(2) 1.3414(2) -0.15318(18)
O6A O -0.1773(3) 1.1371(3) -0.32240(19)
O7A O 0.1154(2) 1.1359(2) -0.08765(17)
O8A O 0.1566(2) 1.8243(2) -0.09711(18)
O8_2 O -0.1566(2) 1.1757(2) 0.09711(18)
O8A_2 O 0.1566(2) 0.8243(2) -0.09711(18)
O9A O 0.5771(2) 1.1556(2) -0.0441(2)
O10A O -0.0073(2) 1.8151(2) -0.16984(19)
C1A C 0.1529(3) 1.3583(3) -0.1153(2)
C2A C 0.2963(3) 1.2852(3) -0.0977(2)
H1A H 0.3350 1.1833 -0.0857
C3A C 0.3819(3) 1.3645(3) -0.0981(2)
C4A C 0.3196(3) 1.5164(3) -0.1076(2)
H2A H 0.3746 1.5692 -0.1040
C5A C 0.1751(3) 1.5900(3) -0.1224(2)
C6A C 0.0945(3) 1.5111(3) -0.1295(2)
H3A H 0.0006 1.5607 -0.1439
C7A C 0.0659(3) 1.2701(3) -0.1200(2)
C8A C 0.5438(3) 1.2816(3) -0.0962(2)
C9A C 0.1038(3) 1.7548(3) -0.1309(2)
H4A H -0.235(4) 1.468(7) -0.361(6)
H5A H -0.110(4) 1.481(3) -0.345(3)
H6A H 0.164(6) 1.020(3) -0.321(6)
H7A H 0.190(3) 1.134(5) -0.326(4)
H8A H -0.277(4) 1.145(8) -0.318(6)
H9A H -0.099(5) 1.133(7) -0.390(3)
H10A H -0.2371(14) 1.091(4) -0.071(3)
H11A H -0.078(4) 0.975(2) -0.136(3)
Ni3 Ni -0.65278(4) 1.23170(4) 0.27984(3)
Ni4 Ni -0.5000 1.0000 0.5000
O11 O -0.5663(2) 1.3350(2) 0.34070(17)
O12 O 0.1180(2) 1.3389(2) 0.35802(19)
O13 O -0.4388(3) 1.1140(3) 0.1837(2)
O14 O -0.6519(2) 1.0657(2) 0.40878(17)
O15 O -0.6690(3) 1.4025(2) 0.15416(19)
O16 O -0.7195(3) 1.1319(3) 0.1965(2)
O17 O -0.3874(2) 1.1299(2) 0.39076(17)
O18 O -0.3655(2) 1.8200(2) 0.40778(17)
O19 O -0.5419(2) 1.8136(2) 0.34592(18)
O20 O 0.0485(2) 1.1569(2) 0.46865(18)
C10 C -0.3641(3) 1.3560(3) 0.3807(2)
C11 C -0.2240(3) 1.2836(3) 0.4026(2)
H12 H -0.1850 1.1817 0.4144
C12 C -0.1417(3) 1.3637(3) 0.4069(2)
C13 C -0.2045(3) 1.5156(3) 0.3972(2)
H13 H -0.1511 1.5687 0.4027
C14 C -0.3480(3) 1.5891(3) 0.3791(2)
C15 C -0.4243(3) 1.5087(3) 0.3675(2)
H14 H -0.5167 1.5575 0.3507
C16 C -0.4465(3) 1.2667(3) 0.3702(2)
C17 C 0.0189(3) 1.2797(3) 0.4144(2)
C18 C -0.4228(3) 1.7521(3) 0.3763(2)
H15 H -0.336(2) 1.096(6) 0.176(5)
H16 H -0.429(7) 1.097(6) 0.114(2)
H17 H -0.638(5) 1.477(4) 0.160(4)
H18 H -0.766(4) 1.463(6) 0.144(6)
H19 H -0.683(16) 1.033(5) 0.182(13)
H20 H -0.8263(18) 1.151(7) 0.221(5)
H21 H -0.7583(16) 1.091(5) 0.446(3)
H22 H -0.615(5) 0.972(3) 0.384(4)
Ni3A Ni -0.34722(4) 0.76830(4) 0.72016(3)
Ni3_2 Ni 0.34722(4) 1.23170(4) 0.27984(3)
Ni3A_2 Ni -1.34722(4) 0.76830(4) 0.72016(3)
Ni4_2 Ni -0.5000 2.0000 0.5000
Ni4_3 Ni -0.5000 0.0000 0.5000
O11A O -0.4337(2) 0.6650(2) 0.65930(17)
O12A O -1.1180(2) 0.6611(2) 0.64198(19)
O12_2 O -0.8820(2) 1.3389(2) 0.35802(19)
O12A_2 O -0.1180(2) 0.6611(2) 0.64198(19)
O13A O -0.5612(3) 0.8860(3) 0.8163(2)
O14A O -0.3481(2) 0.9343(2) 0.59122(17)
O15A O -0.3310(3) 0.5975(2) 0.84584(19)
O16A O -0.2805(3) 0.8681(3) 0.8035(2)
O17A O -0.6126(2) 0.8701(2) 0.60924(17)
O18A O -0.6345(2) 0.1800(2) 0.59222(17)
O18_2 O -0.3655(2) 0.8200(2) 0.40778(17)
O18A_2 O -0.6345(2) 1.1800(2) 0.59222(17)
O19A O -0.4581(2) 0.1864(2) 0.65408(18)
O20A O -1.0485(2) 0.8431(2) 0.53135(18)
C10A C -0.6359(3) 0.6440(3) 0.6193(2)
C11A C -0.7760(3) 0.7164(3) 0.5974(2)
H12A H -0.8150 0.8183 0.5856
C12A C -0.8583(3) 0.6363(3) 0.5931(2)
C13A C -0.7955(3) 0.4844(3) 0.6028(2)
H13A H -0.8489 0.4313 0.5973
C14A C -0.6520(3) 0.4109(3) 0.6209(2)
C15A C -0.5757(3) 0.4913(3) 0.6325(2)
H14A H -0.4833 0.4425 0.6493
C16A C -0.5535(3) 0.7333(3) 0.6298(2)
C17A C -1.0189(3) 0.7203(3) 0.5856(2)
C18A C -0.5772(3) 0.2479(3) 0.6237(2)
H15A H -0.664(2) 0.904(6) 0.824(5)
H16A H -0.571(7) 0.903(6) 0.886(2)
H17A H -0.362(5) 0.523(4) 0.840(4)
H18A H -0.234(4) 0.537(6) 0.856(6)
H19A H -0.317(16) 0.967(5) 0.818(13)
H20A H -0.1737(18) 0.849(7) 0.779(5)
H21A H -0.2417(16) 0.909(5) 0.554(3)
H22A H -0.385(5) 1.028(3) 0.616(4)
loop_
_geom_bond_atom_site_label_1
_geom_bond_atom_site_label_2
_geom_bond_site_symmetry_1
_geom_bond_site_symmetry_2
Ni1 O1 1_555 1_555
Ni2 O1 1_555 1_555
O1 H10 1_555 1_555
O2 Ni1 1_555 1_555
O3 Ni1 1_555 1_555
O4 Ni1 1_555 1_555
O5 C8 1_555 1_555
O6 Ni1 1_555 1_555
O7 Ni2 1_555 1_555
O8 C9 1_555 1_555
O9 C8 1_555 1_555
O10 C9 1_555 1_555
C1 C2 1_555 1_555
C2 H1 1_555 1_555
C3 C2 1_555 1_555
C4 C3 1_555 1_555
H2 C4 1_555 1_555
C5 C4 1_555 1_555
C6 C1 1_555 1_555
H3 C6 1_555 1_555
C7 O2 1_555 1_555
C8 C3 1_555 1_555
C9 C5 1_555 1_555
H4 O3 1_555 1_555
H5 O3 1_555 1_555
H6 O4 1_555 1_555
H7 O4 1_555 1_555
H8 O6 1_555 1_555
H9 O6 1_555 1_555
H11 O1 1_555 1_555
Ni3 O11 1_555 1_555
Ni4 O14 1_555 1_555
O11 C16 1_555 1_555
O12 C17 1_555 1_555
O13 Ni3 1_555 1_555
O14 Ni3 1_555 1_555
O15 Ni3 1_555 1_555
O16 Ni3 1_555 1_555
O17 Ni4 1_555 1_555
O18 C18 1_555 1_555
O19 C18 1_555 1_555
O20 C17 1_555 1_555
C10 C11 1_555 1_555
C11 H12 1_555 1_555
C12 C11 1_555 1_555
C13 C12 1_555 1_555
H13 C13 1_555 1_555
C14 C13 1_555 1_555
C15 C10 1_555 1_555
H14 C15 1_555 1_555
C16 O17 1_555 1_555
C17 C12 1_555 1_555
C18 C14 1_555 1_555
H15 O13 1_555 1_555
H16 O13 1_555 1_555
H17 O15 1_555 1_555
H18 O15 1_555 1_555
H19 O16 1_555 1_555
H20 O16 1_555 1_555
H21 O14 1_555 1_555
H22 O14 1_555 1_555
Ni1A O1A 1_555 1_555
Ni1_2 O5 1_555 1_555
Ni1A_2 O5A 1_555 1_555
Ni2_2 O8 1_555 1_555
Ni2_3 O8A 1_555 1_555
O1A Ni2 1_555 1_555
O2A Ni1A 1_555 1_555
O3A Ni1A 1_555 1_555
O4A Ni1A 1_555 1_555
O5A C8A 1_555 1_555
O5_2 Ni1 1_555 1_555
O5A_2 Ni1A 1_555 1_555
O6A Ni1A 1_555 1_555
O7A Ni2 1_555 1_555
O8A C9A 1_555 1_555
O8_2 Ni2 1_555 1_555
O8A_2 Ni2 1_555 1_555
O9A C8A 1_555 1_555
O10A C9A 1_555 1_555
C1A C2A 1_555 1_555
C2A H1A 1_555 1_555
C3A C2A 1_555 1_555
C4A C3A 1_555 1_555
H2A C4A 1_555 1_555
C5A C4A 1_555 1_555
C6A C1A 1_555 1_555
H3A C6A 1_555 1_555
C7A O2A 1_555 1_555
C8A C3A 1_555 1_555
C9A C5A 1_555 1_555
H4A O3A 1_555 1_555
H5A O3A 1_555 1_555
H6A O4A 1_555 1_555
H7A O4A 1_555 1_555
H8A O6A 1_555 1_555
H9A O6A 1_555 1_555
H10A O1A 1_555 1_555
H11A O1A 1_555 1_555
Ni3A O11A 1_555 1_555
Ni3_2 O12 1_555 1_555
Ni3A_2 O12A 1_555 1_555
Ni4_2 O18 1_555 1_555
Ni4_3 O18A 1_555 1_555
O11A C16A 1_555 1_555
O12A C17A 1_555 1_555
O12_2 Ni3 1_555 1_555
O12A_2 Ni3A 1_555 1_555
O13A Ni3A 1_555 1_555
O14A Ni4 1_555 1_555
O15A Ni3A 1_555 1_555
O16A Ni3A 1_555 1_555
O17A Ni4 1_555 1_555
O18A C18A 1_555 1_555
O18_2 Ni4 1_555 1_555
O18A_2 Ni4 1_555 1_555
O19A C18A 1_555 1_555
O20A C17A 1_555 1_555
C10A C11A 1_555 1_555
C11A H12A 1_555 1_555
C12A C11A 1_555 1_555
C13A C12A 1_555 1_555
H13A C13A 1_555 1_555
C14A C13A 1_555 1_555
C15A C10A 1_555 1_555
H14A C15A 1_555 1_555
C16A O17A 1_555 1_555
C17A C12A 1_555 1_555
C18A C14A 1_555 1_555
H15A O13A 1_555 1_555
H16A O13A 1_555 1_555
H17A O15A 1_555 1_555
H18A O15A 1_555 1_555
H19A O16A 1_555 1_555
H20A O16A 1_555 1_555
H21A O14A 1_555 1_555
H22A O14A 1_555 1_555
O7 C7 1_555 1_555
C1 C7 1_555 1_555
C5 C6 1_555 1_555
C10 C16 1_555 1_555
C14 C15 1_555 1_555
O7A C7A 1_555 1_555
C1A C7A 1_555 1_555
C5A C6A 1_555 1_555
Ni3A O14A 1_555 1_555
C10A C16A 1_555 1_555
C14A C15A 1_555 1_555

#END
