
#######################################################################
#
#                 Cambridge Crystallographic Data Centre
#                                CCDC 
#
#######################################################################
#
# If this CIF has been generated from an entry in the Cambridge 
# Structural Database, then it will include bibliographic, chemical, 
# crystal, experimental, refinement or atomic coordinate data resulting 
# from the CCDC's data processing and validation procedures.
#
#######################################################################

data_MENGAO
_symmetry_cell_setting           orthorhombic
_symmetry_space_group_name_H-M   'P c a 21'
_symmetry_Int_Tables_number      29
_space_group_name_Hall           'P 2c -2ac'
loop_
_symmetry_equiv_pos_site_id
_symmetry_equiv_pos_as_xyz
1 x,y,z
2 -x,-y,1/2+z
3 1/2+x,-y,z
4 1/2-x,y,1/2+z
_cell_length_a                   8.9808(5)
_cell_length_b                   12.1341(7)
_cell_length_c                   17.8730(10)
_cell_angle_alpha                90
_cell_angle_beta                 90
_cell_angle_gamma                90
_cell_volume                     1947.69
loop_
_atom_site_label
_atom_site_type_symbol
_atom_site_fract_x
_atom_site_fract_y
_atom_site_fract_z
Co1 Co 0.95671(3) 0.87928(2) 0.50000(2)
O1 O 0.7387(2) 0.93540(10) 0.49670(10)
O2 O 0.4964(2) 0.95200(10) 0.51690(10)
O3 O 0.8970(2) 0.70990(10) 0.46800(10)
O4 O 0.7989(3) 0.7451(2) 0.35690(10)
O5 O 1.1788(2) 0.8284(2) 0.5031(2)
O6 O 0.9795(3) 0.9088(2) 0.38510(10)
N1 N 0.9272(3) 0.8464(2) 0.61520(10)
N2 N 0.8381(3) 0.7747(2) 0.72030(10)
N3 N 0.8891(3) 0.5399(2) 0.56130(10)
N4 N 0.7725(3) 0.3783(2) 0.56500(10)
C1 C 0.6172(3) 0.8994(2) 0.51990(10)
C2 C 0.6035(3) 0.7884(2) 0.5556(2)
C3 C 0.6834(3) 0.7461(2) 0.6104(2)
C4 C 0.8161(3) 0.7913(2) 0.6464(2)
C5 C 1.0258(3) 0.8691(2) 0.6738(2)
C6 C 1.1595(3) 0.9275(2) 0.6750(2)
C7 C 1.2345(4) 0.9341(2) 0.7428(2)
C8 C 1.1803(4) 0.8846(2) 0.8069(2)
C9 C 1.0473(4) 0.8292(3) 0.8074(2)
C10 C 0.9711(3) 0.8234(2) 0.7396(2)
C11 C 0.8198(3) 0.6836(2) 0.4120(2)
C12 C 0.7443(4) 0.5739(3) 0.4061(2)
C13 C 0.7376(4) 0.4873(3) 0.4521(2)
C14 C 0.8002(3) 0.4689(2) 0.5248(2)
C15 C 0.9195(3) 0.4966(2) 0.6305(2)
C16 C 1.0006(3) 0.5348(2) 0.6911(2)
C17 C 1.0042(4) 0.4695(3) 0.7539(2)
C18 C 0.9280(4) 0.3682(3) 0.7558(2)
C19 C 0.8498(3) 0.3305(3) 0.6966(2)
C20 C 0.8446(3) 0.3954(2) 0.6320(2)
H1 H 1.206(4) 0.773(2) 0.528(2)
H2 H 1.252(3) 0.870(2) 0.493(3)
H3 H 0.921(3) 0.857(2) 0.374(2)
H4 H 0.950(4) 0.969(2) 0.368(2)
H5 H 0.7801 0.7402 0.7497
H6 H 0.9210 0.6010 0.5444
H7 H 0.5287 0.7433 0.5366
H8 H 0.6511 0.6784 0.6285
H9 H 1.1970 0.9606 0.6320
H10 H 1.3237 0.9730 0.7451
H11 H 1.2356 0.8890 0.8508
H12 H 1.0098 0.7971 0.8508
H13 H 0.6918 0.5642 0.3617
H14 H 0.6825 0.4284 0.4337
H15 H 1.0505 0.6019 0.6894
H16 H 1.0575 0.4925 0.7957
H17 H 0.9317 0.3258 0.7991
H18 H 0.8007 0.2631 0.6988
Co1B Co 0.45671(3) 1.12072(2) 0.50000(2)
O2B O 0.9964(2) 1.04800(10) 0.51690(10)
loop_
_geom_bond_atom_site_label_1
_geom_bond_atom_site_label_2
_geom_bond_site_symmetry_1
_geom_bond_site_symmetry_2
Co1 O1 1_555 1_555
O1 C1 1_555 1_555
O2 C1 1_555 1_555
O3 Co1 1_555 1_555
O4 C11 1_555 1_555
O5 Co1 1_555 1_555
O6 Co1 1_555 1_555
N1 Co1 1_555 1_555
N2 C4 1_555 1_555
N3 C14 1_555 1_555
N4 C14 1_555 1_555
C1 C2 1_555 1_555
C2 C3 1_555 1_555
C3 C4 1_555 1_555
C4 N1 1_555 1_555
C5 N1 1_555 1_555
C6 C5 1_555 1_555
C7 C6 1_555 1_555
C8 C7 1_555 1_555
C9 C8 1_555 1_555
C10 N2 1_555 1_555
C11 O3 1_555 1_555
C12 C11 1_555 1_555
C13 C12 1_555 1_555
C14 C13 1_555 1_555
C15 N3 1_555 1_555
C16 C15 1_555 1_555
C17 C16 1_555 1_555
C18 C17 1_555 1_555
C19 C18 1_555 1_555
C20 N4 1_555 1_555
H1 O5 1_555 1_555
H2 O5 1_555 1_555
H3 O6 1_555 1_555
H4 O6 1_555 1_555
H5 N2 1_555 1_555
H6 N3 1_555 1_555
H7 C2 1_555 1_555
H8 C3 1_555 1_555
H9 C6 1_555 1_555
H10 C7 1_555 1_555
H11 C8 1_555 1_555
H12 C9 1_555 1_555
H13 C12 1_555 1_555
H14 C13 1_555 1_555
H15 C16 1_555 1_555
H16 C17 1_555 1_555
H17 C18 1_555 1_555
H18 C19 1_555 1_555
Co1B O2 1_555 1_555
O2B Co1 1_555 1_555
C5 C10 1_555 1_555
C9 C10 1_555 1_555
C15 C20 1_555 1_555
C19 C20 1_555 1_555

#END
