
#######################################################################
#
#                 Cambridge Crystallographic Data Centre
#                                CCDC 
#
#######################################################################
#
# If this CIF has been generated from an entry in the Cambridge 
# Structural Database, then it will include bibliographic, chemical, 
# crystal, experimental, refinement or atomic coordinate data resulting 
# from the CCDC's data processing and validation procedures.
#
#######################################################################

data_MEPGAQ
_symmetry_cell_setting           monoclinic
_symmetry_space_group_name_H-M   'C 2/c'
_symmetry_Int_Tables_number      15
_space_group_name_Hall           '-C 2yn'
loop_
_symmetry_equiv_pos_site_id
_symmetry_equiv_pos_as_xyz
1 x,y,z
2 1/2+x,1/2+y,z
3 -x,y,1/2-z
4 1/2-x,1/2+y,1/2-z
5 -x,-y,-z
6 1/2-x,1/2-y,-z
7 x,-y,1/2+z
8 1/2+x,1/2-y,1/2+z
_cell_length_a                   29.921(7)
_cell_length_b                   8.5400(17)
_cell_length_c                   15.320(3)
_cell_angle_alpha                90
_cell_angle_beta                 99.59(3)
_cell_angle_gamma                90
_cell_volume                     3859.94
loop_
_atom_site_label
_atom_site_type_symbol
_atom_site_fract_x
_atom_site_fract_y
_atom_site_fract_z
Cd1 Cd 0.13653(3) 0.45478(8) 0.34445(5)
O1 O 0.1517(2) 0.5500(9) 0.2108(5)
O2 O 0.0846(3) 0.5908(11) 0.2405(6)
O3 O 0.1279(3) 1.3725(9) -0.0429(5)
O4 O 0.1966(2) 1.4354(10) -0.0581(6)
N1 N 0.0849(3) 0.2585(10) 0.3532(6)
N2 N 0.1723(3) 0.2181(9) 0.3355(5)
C1 C 0.0427(4) 0.2809(17) 0.3679(9)
H1 H 0.0328 0.3860 0.3722
C2 C 0.0124(4) 0.1646(17) 0.3774(11)
H2 H -0.0177 0.1870 0.3862
C3 C 0.0278(5) 0.0132(18) 0.3735(12)
H3 H 0.0081 -0.0714 0.3809
C4 C 0.0714(4) -0.0180(15) 0.3590(9)
H4 H 0.0821 -0.1222 0.3562
C5 C 0.0988(3) 0.1102(13) 0.3487(7)
C6 C 0.1466(3) 0.0879(11) 0.3340(6)
C7 C 0.1648(4) -0.0567(11) 0.3201(6)
H5 H 0.1467 -0.1483 0.3192
C8 C 0.2084(4) -0.0679(14) 0.3078(7)
H6 H 0.2204 -0.1674 0.2963
C9 C 0.2349(4) 0.0584(14) 0.3116(8)
H7 H 0.2658 0.0498 0.3050
C10 C 0.2158(4) 0.2032(13) 0.3253(7)
H8 H 0.2341 0.2943 0.3277
C11 C 0.1124(4) 0.5998(12) 0.1892(7)
C12 C 0.0981(4) 0.6683(12) 0.0969(7)
H9 H 0.0649 0.6841 0.0855
H10 H 0.1059 0.5938 0.0522
C13 C 0.1220(3) 0.8253(12) 0.0880(6)
C14 C 0.1024(4) 0.9627(13) 0.1068(7)
H11 H 0.0736 0.9609 0.1254
C15 C 0.1237(4) 1.1051(12) 0.0991(7)
H12 H 0.1095 1.1994 0.1127
C16 C 0.1645(3) 0.8274(11) 0.0629(6)
H13 H 0.1791 0.7325 0.0518
C17 C 0.1856(3) 0.9727(12) 0.0543(7)
H14 H 0.2144 0.9746 0.0358
C18 C 0.1659(3) 1.1112(11) 0.0717(6)
C19 C 0.1889(4) 1.2676(13) 0.0631(7)
H15 H 0.1868 1.3307 0.1165
H16 H 0.2215 1.2481 0.0623
C20 C 0.1700(4) 1.3639(11) -0.0180(7)
Cd1F Cd 0.13653(3) 1.54522(8) -0.15555(5)
O3F O 0.1279(3) 0.6275(9) 0.4571(5)
O4F O 0.1966(2) 0.5646(10) 0.4419(6)
O5 O 0.0302(4) 0.6328(14) 0.4720(9)
O6? O 0.0025(6) 0.678(2) 0.2929(12)
loop_
_geom_bond_atom_site_label_1
_geom_bond_atom_site_label_2
_geom_bond_site_symmetry_1
_geom_bond_site_symmetry_2
Cd1 O1 1_555 1_555
O1 C11 1_555 1_555
O2 Cd1 1_555 1_555
O3 C20 1_555 1_555
O4 C20 1_555 1_555
N1 Cd1 1_555 1_555
N2 Cd1 1_555 1_555
C1 N1 1_555 1_555
H1 C1 1_555 1_555
C2 C1 1_555 1_555
H2 C2 1_555 1_555
C3 C2 1_555 1_555
H3 C3 1_555 1_555
C4 C3 1_555 1_555
H4 C4 1_555 1_555
C5 N1 1_555 1_555
C6 N2 1_555 1_555
C7 C6 1_555 1_555
H5 C7 1_555 1_555
C8 C7 1_555 1_555
H6 C8 1_555 1_555
C9 C8 1_555 1_555
H7 C9 1_555 1_555
C10 N2 1_555 1_555
H8 C10 1_555 1_555
C11 O2 1_555 1_555
C12 C11 1_555 1_555
H9 C12 1_555 1_555
H10 C12 1_555 1_555
C13 C12 1_555 1_555
C14 C13 1_555 1_555
H11 C14 1_555 1_555
C15 C14 1_555 1_555
H12 C15 1_555 1_555
C16 C13 1_555 1_555
H13 C16 1_555 1_555
C17 C16 1_555 1_555
H14 C17 1_555 1_555
C18 C15 1_555 1_555
C19 C18 1_555 1_555
H15 C19 1_555 1_555
H16 C19 1_555 1_555
C20 C19 1_555 1_555
Cd1F O3 1_555 1_555
O3F Cd1 1_555 1_555
O4F Cd1 1_555 1_555
O4 Cd1F 1_555 1_555
C4 C5 1_555 1_555
C5 C6 1_555 1_555
C9 C10 1_555 1_555
C17 C18 1_555 1_555

#END
