
#######################################################################
#
#                 Cambridge Crystallographic Data Centre
#                                CCDC 
#
#######################################################################
#
# If this CIF has been generated from an entry in the Cambridge 
# Structural Database, then it will include bibliographic, chemical, 
# crystal, experimental, refinement or atomic coordinate data resulting 
# from the CCDC's data processing and validation procedures.
#
#######################################################################

data_MEPNEB
_symmetry_cell_setting           orthorhombic
_symmetry_space_group_name_H-M   'C m m m'
_symmetry_Int_Tables_number      65
_space_group_name_Hall           '-C 2 2'
loop_
_symmetry_equiv_pos_site_id
_symmetry_equiv_pos_as_xyz
1 x,y,z
2 1/2+x,1/2+y,z
3 -x,-y,z
4 x,-y,-z
5 -x,y,-z
6 1/2-x,1/2-y,z
7 1/2+x,1/2-y,-z
8 1/2-x,1/2+y,-z
9 -x,-y,-z
10 1/2-x,1/2-y,-z
11 x,y,-z
12 -x,y,z
13 x,-y,z
14 1/2+x,1/2+y,-z
15 1/2-x,1/2+y,z
16 1/2+x,1/2-y,z
_cell_length_a                   14.167(3)
_cell_length_b                   18.080(4)
_cell_length_c                   5.8329(13)
_cell_angle_alpha                90
_cell_angle_beta                 90
_cell_angle_gamma                90
_cell_volume                     1494.04
loop_
_atom_site_label
_atom_site_type_symbol
_atom_site_fract_x
_atom_site_fract_y
_atom_site_fract_z
I3 I 0.2500 0.2500 0.5000
O1 O 0.2289(10) 0.0000 0.5000
Pt1 Pt 0.0000 0.15122(2) 0.0000
I1 I 0.0000 0.14811(6) 0.45904(18)
C1 C 0.0511(7) 0.0000 0.0000
N1 N 0.0957(5) 0.2369(4) 0.0000
H2 H 0.1328 0.2334 -0.1249
N2 N 0.0916(4) 0.0658(4) 0.0000
C2 C 0.0486(8) 0.3071(7) 0.0000
H3 H 0.0696 0.3343 0.1338
C3 C 0.1939(7) 0.0682(8) 0.0000
H5 H 0.2271 0.1126 0.0000
C4 C 0.2392(11) 0.0000 0.0000
H6 H 0.3049 0.0000 0.0000
Pt1_2 Pt 0.0000 0.15122(2) 1.0000
I1_2 I 0.0000 0.14811(6) -0.54096(18)
I1J I 0.0000 0.14811(6) -0.45904(18)
I1J_2 I 0.0000 0.14811(6) 0.54096(18)
C1K C -0.0511(7) 0.0000 0.0000
N1K N -0.0957(5) 0.2369(4) 0.0000
H2J H 0.1328 0.2334 0.1249
N2K N -0.0916(4) 0.0658(4) 0.0000
N2L N 0.0916(4) -0.0658(4) 0.0000
C2K C -0.0486(8) 0.3071(7) 0.0000
H3J H 0.0696 0.3343 -0.1338
C3L C 0.1939(7) -0.0682(8) 0.0000
I2? I 0.0000 0.5000 0.2581(5)
H1? H 0.1328 0.2334 0.1249
H4? H 0.0696 0.3343 -0.1338
loop_
_geom_bond_atom_site_label_1
_geom_bond_atom_site_label_2
_geom_bond_site_symmetry_1
_geom_bond_site_symmetry_2
Pt1 I1 1_555 1_555
I1 Pt1_2 1_555 1_555
C1 N2 1_555 1_555
N1 Pt1 1_555 1_555
H2 N1 1_555 1_555
N2 Pt1 1_555 1_555
C2 N1 1_555 1_555
H3 C2 1_555 1_555
C3 N2 1_555 1_555
H5 C3 1_555 1_555
C4 C3 1_555 1_555
H6 C4 1_555 1_555
Pt1_2 I1J_2 1_555 1_555
I1_2 Pt1 1_555 1_555
I1J Pt1 1_555 1_555
I1J_2 Pt1 1_555 1_555
C1K C1 1_555 1_555
N1K Pt1 1_555 1_555
H2J N1 1_555 1_555
N2K Pt1 1_555 1_555
N2L C1 1_555 1_555
C2K C2 1_555 1_555
H3J C2 1_555 1_555
C3L C4 1_555 1_555
I1 I1J_2 1_555 1_555
I1_2 I1J 1_555 1_555
C1K N2K 1_555 1_555
N1K C2K 1_555 1_555
N2L C3L 1_555 1_555

#END
