
#######################################################################
#
#                 Cambridge Crystallographic Data Centre
#                                CCDC 
#
#######################################################################
#
# If this CIF has been generated from an entry in the Cambridge 
# Structural Database, then it will include bibliographic, chemical, 
# crystal, experimental, refinement or atomic coordinate data resulting 
# from the CCDC's data processing and validation procedures.
#
#######################################################################

data_MEPNOL
_symmetry_cell_setting           orthorhombic
_symmetry_space_group_name_H-M   'P b a m'
_symmetry_Int_Tables_number      55
_space_group_name_Hall           '-P 2 2ab'
loop_
_symmetry_equiv_pos_site_id
_symmetry_equiv_pos_as_xyz
1 x,y,z
2 -x,-y,z
3 1/2+x,1/2-y,-z
4 1/2-x,1/2+y,-z
5 -x,-y,-z
6 x,y,-z
7 1/2-x,1/2+y,z
8 1/2+x,1/2-y,z
_cell_length_a                   11.934(7)
_cell_length_b                   21.938(13)
_cell_length_c                   5.435(3)
_cell_angle_alpha                90
_cell_angle_beta                 90
_cell_angle_gamma                90
_cell_volume                     1422.93
loop_
_atom_site_label
_atom_site_type_symbol
_atom_site_fract_x
_atom_site_fract_y
_atom_site_fract_z
Cl2 Cl 0.4105(3) 0.22400(13) 0.5000
O1 O 0.4522(19) 0.1672(5) 0.5000
O2 O 0.2971(11) 0.2408(7) 0.5000
O3 O 0.4400(9) 0.2407(6) 0.302(2)
O3E O 0.4400(9) 0.2407(6) 0.698(2)
Cl3 Cl 1.1716(6) 0.1041(4) 0.4273(15)
Cl3E Cl 1.1716(6) 0.1041(4) 0.5727(15)
Cl4 Cl 0.5000 0.0000 0.5000
O4 O 0.4557(12) 0.0322(5) 0.282(2)
O4E O 0.4557(12) 0.0322(5) 0.718(2)
O4D O 0.5443(12) -0.0322(5) 0.718(2)
O4A O 0.5443(12) -0.0322(5) 0.282(2)
Pt1 Pt 0.82744(2) 0.082221(10) 0.0000
Cl1 Cl 0.8280(2) 0.08319(12) 0.4262(5)
N1 N 0.9976(5) 0.0810(2) 0.0000
N2 N 0.6557(5) 0.0816(3) 0.0000
N3 N 0.8048(6) 0.1748(3) 0.0000
N4 N 0.8524(6) -0.0095(3) 0.0000
C1 C 1.0418(5) 0.0252(3) 0.0000
C2 C 1.0734(7) 0.1307(4) 0.0000
H1 H 1.0497 0.1721 0.0000
C3 C 0.7761(8) -0.0580(5) 0.0000
H2 H 0.6976 -0.0508 0.0000
C4 C 1.1834(8) 0.1140(5) 0.0000
H3 H 1.2367 0.1461 0.0000
C5 C 0.6102(8) 0.1424(4) 0.061(2)
C6 C 0.6874(9) 0.1890(5) -0.060(3)
Cl1E Cl 0.8280(2) 0.08319(12) -0.4262(5)
Cl1E_2 Cl 0.8280(2) 0.08319(12) 0.5738(5)
N4D N 1.1476(6) 0.0095(3) 0.0000
C1D C 0.9582(5) -0.0252(3) 0.0000
C3D C 1.2239(8) 0.0580(5) 0.0000
C4D C 0.8166(8) -0.1140(5) 0.0000
C5E C 0.6102(8) 0.1424(4) -0.061(2)
C6E C 0.6874(9) 0.1890(5) 0.060(3)
O5? O 0.6092(14) 0.0150(13) 0.5000
O6? O 0.5394(18) 0.0621(7) 0.5000
loop_
_geom_bond_atom_site_label_1
_geom_bond_atom_site_label_2
_geom_bond_site_symmetry_1
_geom_bond_site_symmetry_2
Pt1 Cl1 1_555 1_555
Cl1 Cl1E_2 1_555 1_555
N1 Pt1 1_555 1_555
N2 Pt1 1_555 1_555
N3 Pt1 1_555 1_555
N4 Pt1 1_555 1_555
Cl2 O1 1_555 1_555
C1 N1 1_555 1_555
C2 N1 1_555 1_555
H1 C2 1_555 1_555
C3 N4 1_555 1_555
H2 C3 1_555 1_555
Cl3 Cl3E 1_555 1_555
C4 C2 1_555 1_555
H3 C4 1_555 1_555
C5 N2 1_555 1_555
C6 N3 1_555 1_555
Cl4 O4 1_555 1_555
O2 Cl2 1_555 1_555
O3 Cl2 1_555 1_555
Cl1E Pt1 1_555 1_555
N4D C1 1_555 1_555
C1D N4 1_555 1_555
C3D C4 1_555 1_555
C4D C3 1_555 1_555
C5E N2 1_555 1_555
C6E N3 1_555 1_555
O3E Cl2 1_555 1_555
O4E Cl4 1_555 1_555
O4D Cl4 1_555 1_555
O4A Cl4 1_555 1_555
C1 C1D 1_555 1_555
C5 C6 1_555 1_555
C5 C5E 1_555 1_555
C5 C6E 1_555 1_555
C6 C5E 1_555 1_555
C6 C6E 1_555 1_555
N4D C3D 1_555 1_555
C5E C6E 1_555 1_555

#END
