
#######################################################################
#
#                 Cambridge Crystallographic Data Centre
#                                CCDC 
#
#######################################################################
#
# If this CIF has been generated from an entry in the Cambridge 
# Structural Database, then it will include bibliographic, chemical, 
# crystal, experimental, refinement or atomic coordinate data resulting 
# from the CCDC's data processing and validation procedures.
#
#######################################################################

data_MEQUNI01
_symmetry_cell_setting           monoclinic
_symmetry_space_group_name_H-M   'P 21/c'
_symmetry_Int_Tables_number      14
_space_group_name_Hall           '-P 2ybc'
loop_
_symmetry_equiv_pos_site_id
_symmetry_equiv_pos_as_xyz
1 x,y,z
2 -x,1/2+y,1/2-z
3 -x,-y,-z
4 x,1/2-y,1/2+z
_cell_length_a                   3.671(1)
_cell_length_b                   14.789(5)
_cell_length_c                   13.002(3)
_cell_angle_alpha                90
_cell_angle_beta                 91.25(1)
_cell_angle_gamma                90
_cell_volume                     705.716
loop_
_atom_site_label
_atom_site_type_symbol
_atom_site_fract_x
_atom_site_fract_y
_atom_site_fract_z
Ni1 Ni 0.5000 0.0000 1.0000
S1 S -0.0276(2) 0.05805(5) 1.11260(6)
N1 N -0.4319(7) -0.1156(2) 1.0875(2)
C1 C -0.5721(9) -0.1951(2) 1.0616(3)
C2 C -0.5759(10) -0.2695(2) 1.1283(3)
C3 C -0.450(1) -0.2592(3) 1.2271(3)
C4 C -0.2959(9) -0.1757(2) 1.2584(3)
C5 C -0.158(1) -0.1612(3) 1.3587(3)
C6 C -0.001(1) -0.0793(3) 1.3838(3)
C7 C 0.035(1) -0.0110(3) 1.3092(3)
C8 C -0.0955(9) -0.0230(2) 1.2090(3)
C9 C -0.2774(8) -0.1055(2) 1.1854(2)
H1 H -0.68(1) -0.203(4) 0.993(4)
H2 H -0.69(1) -0.317(3) 1.106(4)
H3 H -0.48(1) -0.306(3) 1.274(4)
H4 H -0.20(1) -0.204(4) 1.409(4)
H5 H 0.15(2) -0.066(4) 1.452(4)
H6 H 0.17(1) 0.042(3) 1.324(3)
S1_2 S 0.9724(2) 0.05805(5) 1.11260(6)
N1_2 N 0.5681(7) -0.1156(2) 1.0875(2)
C1_2 C 0.4279(9) -0.1951(2) 1.0616(3)
C2_2 C 0.4241(10) -0.2695(2) 1.1283(3)
C3_2 C 0.550(1) -0.2592(3) 1.2271(3)
C4_2 C 0.7041(9) -0.1757(2) 1.2584(3)
C5_2 C 0.842(1) -0.1612(3) 1.3587(3)
C6_2 C 0.999(1) -0.0793(3) 1.3838(3)
C7_2 C 1.035(1) -0.0110(3) 1.3092(3)
C8_2 C 0.9045(9) -0.0230(2) 1.2090(3)
C9_2 C 0.7226(8) -0.1055(2) 1.1854(2)
H1_2 H 0.32(1) -0.203(4) 0.993(4)
H2_2 H 0.31(1) -0.317(3) 1.106(4)
H3_2 H 0.52(1) -0.306(3) 1.274(4)
H4_2 H 0.80(1) -0.204(4) 1.409(4)
H5_2 H 1.15(2) -0.066(4) 1.452(4)
H6_2 H 1.17(1) 0.042(3) 1.324(3)
S1B S 0.0276(2) -0.05805(5) 0.88740(6)
S1B_2 S 1.0276(2) -0.05805(5) 0.88740(6)
N1B N 0.4319(7) 0.1156(2) 0.9125(2)
Ni1_2 Ni -0.5000 0.0000 1.0000
Ni1_3 Ni 1.5000 0.0000 1.0000
loop_
_geom_bond_atom_site_label_1
_geom_bond_atom_site_label_2
_geom_bond_site_symmetry_1
_geom_bond_site_symmetry_2
Ni1 S1 1_555 1_555
S1 C8 1_555 1_555
N1 C1 1_555 1_555
C1 C2 1_555 1_555
C2 C3 1_555 1_555
C3 C4 1_555 1_555
C4 C5 1_555 1_555
C5 C6 1_555 1_555
C6 C7 1_555 1_555
C7 C8 1_555 1_555
C8 C9 1_555 1_555
C9 N1 1_555 1_555
H1 C1 1_555 1_555
H2 C2 1_555 1_555
H3 C3 1_555 1_555
H4 C5 1_555 1_555
H5 C6 1_555 1_555
H6 C7 1_555 1_555
S1_2 Ni1 1_555 1_555
N1_2 Ni1 1_555 1_555
C1_2 N1_2 1_555 1_555
C2_2 C1_2 1_555 1_555
C3_2 C2_2 1_555 1_555
C4_2 C3_2 1_555 1_555
C5_2 C4_2 1_555 1_555
C6_2 C5_2 1_555 1_555
C7_2 C6_2 1_555 1_555
C8_2 S1_2 1_555 1_555
C9_2 N1_2 1_555 1_555
H1_2 C1_2 1_555 1_555
H2_2 C2_2 1_555 1_555
H3_2 C3_2 1_555 1_555
H4_2 C5_2 1_555 1_555
H5_2 C6_2 1_555 1_555
H6_2 C7_2 1_555 1_555
S1B Ni1 1_555 1_555
S1B_2 Ni1 1_555 1_555
N1B Ni1 1_555 1_555
Ni1_2 S1 1_555 1_555
Ni1_3 S1_2 1_555 1_555
N1 Ni1_2 1_555 1_555
C4 C9 1_555 1_555
C4_2 C9_2 1_555 1_555
C7_2 C8_2 1_555 1_555
C8_2 C9_2 1_555 1_555
S1B Ni1_2 1_555 1_555
S1B_2 Ni1_3 1_555 1_555

#END
