
#######################################################################
#
#                 Cambridge Crystallographic Data Centre
#                                CCDC 
#
#######################################################################
#
# If this CIF has been generated from an entry in the Cambridge 
# Structural Database, then it will include bibliographic, chemical, 
# crystal, experimental, refinement or atomic coordinate data resulting 
# from the CCDC's data processing and validation procedures.
#
#######################################################################

data_MESHIB
_symmetry_cell_setting           triclinic
_symmetry_space_group_name_H-M   'P -1'
_symmetry_Int_Tables_number      2
_space_group_name_Hall           '-P 1'
loop_
_symmetry_equiv_pos_site_id
_symmetry_equiv_pos_as_xyz
1 x,y,z
2 -x,-y,-z
_cell_length_a                   8.9991(8)
_cell_length_b                   11.0440(6)
_cell_length_c                   21.3223(13)
_cell_angle_alpha                101.551(2)
_cell_angle_beta                 37.779(2)
_cell_angle_gamma                99.3920(10)
_cell_volume                     1271.89
loop_
_atom_site_label
_atom_site_type_symbol
_atom_site_fract_x
_atom_site_fract_y
_atom_site_fract_z
Ni1 Ni 1.00000 0.50000 1.00000
Ni2 Ni 1.00000 0.00000 1.00000
S1 S 1.39697(12) 0.11373(6) 0.85597(5)
S2 S 1.36718(12) 0.63143(6) 0.91447(6)
O1 O 1.2223(4) 0.3613(2) 0.49386(16)
O2 O 0.8328(4) 0.3981(3) 0.60992(19)
H1 H 0.8697 0.3724 0.5601
O3 O 0.7511(4) -0.2489(3) 0.63608(18)
H2 H 0.7812 -0.2822 0.589
O4 O 1.1135(4) -0.3239(2) 0.53129(17)
N1 N 1.2233(4) 0.35162(19) 0.91629(17)
N2 N 1.2080(4) 0.86180(19) 0.95105(17)
N3 N 1.0631(4) 0.5130(2) 0.88255(16)
N4 N 1.0124(4) -0.08332(19) 0.89778(16)
C1 C 1.2968(4) 0.2535(2) 0.89094(18)
C2 C 1.2728(4) 0.7664(2) 0.93645(18)
C3 C 1.2755(5) 0.4777(3) 0.7837(2)
H3 H 1.4051 0.4652 0.7663
C4 C 1.3116(5) 0.4588(3) 0.7063(2)
H4 H 1.4626 0.4345 0.6386
C5 C 1.1209(5) 0.4763(3) 0.7303(2)
C6 C 0.9054(5) 0.5203(3) 0.8317(2)
H5 H 0.7759 0.5384 0.8504
C7 C 0.8840(5) 0.5370(3) 0.9041(2)
H6 H 0.738 0.5664 0.9715
C8 C 1.1500(5) 0.4423(3) 0.6509(2)
H7 H 1.3044 0.4191 0.5842
C9 C 0.9800(6) 0.4414(3) 0.6647(2)
H8 H 0.8271 0.4701 0.7296
C10 C 1.0186(6) 0.3973(3) 0.5832(2)
C11 C 1.2110(5) -0.1389(2) 0.8042(2)
H9 H 1.343 -0.1466 0.7862
C12 C 1.2308(5) -0.1855(3) 0.7328(2)
H10 H 1.3738 -0.2229 0.6685
C13 C 1.0378(5) -0.1765(2) 0.7570(2)
C14 C 0.8290(5) -0.1212(3) 0.8552(2)
H11 H 0.6932 -0.1143 0.8757
C15 C 0.8231(5) -0.0770(3) 0.9219(2)
H12 H 0.681 -0.0406 0.9873
C16 C 1.0590(5) -0.2234(3) 0.6810(2)
H13 H 1.199 -0.2667 0.62
C17 C 0.8982(5) -0.2100(3) 0.6910(2)
H14 H 0.7603 -0.1636 0.7498
C18 C 0.9273(5) -0.2651(3) 0.6133(2)
S2A S 0.63282(12) 0.36857(6) 1.08553(6)
N2A N 0.7920(4) 0.13820(19) 1.04895(17)
C2A C 0.7272(4) 0.2336(2) 1.06355(18)
S1A S 0.60303(12) 0.88627(6) 1.14403(5)
N1A N 0.7767(4) 0.64838(19) 1.08371(17)
C1A C 0.7032(4) 0.7465(2) 1.10906(18)
O1A O 0.7777(4) 0.6387(2) 1.50614(16)
O2A O 1.1672(4) 0.6019(3) 1.39008(19)
H1A H 1.1303 0.6276 1.4399
N3A N 0.9369(4) 0.4870(2) 1.11745(16)
C3A C 0.7245(5) 0.5223(3) 1.2163(2)
H3A H 0.5949 0.5348 1.2337
C4A C 0.6884(5) 0.5412(3) 1.2937(2)
H4A H 0.5374 0.5655 1.3614
C5A C 0.8791(5) 0.5237(3) 1.2697(2)
C6A C 1.0946(5) 0.4797(3) 1.1683(2)
H5A H 1.2241 0.4616 1.1496
C7A C 1.1160(5) 0.4630(3) 1.0959(2)
H6A H 1.262 0.4336 1.0285
C8A C 0.8500(5) 0.5577(3) 1.3491(2)
H7A H 0.6956 0.5809 1.4158
C9A C 1.0200(6) 0.5586(3) 1.3353(2)
H8A H 1.1729 0.5299 1.2704
C10A C 0.9814(6) 0.6027(3) 1.4168(2)
O3A O 1.2489(4) 0.2489(3) 1.36392(18)
H2A H 1.2188 0.2822 1.411
O4A O 0.8865(4) 0.3239(2) 1.46871(17)
N4A N 0.9876(4) 0.08332(19) 1.10222(16)
C11A C 0.7890(5) 0.1389(2) 1.1958(2)
H9A H 0.657 0.1466 1.2138
C12A C 0.7692(5) 0.1855(3) 1.2672(2)
H10A H 0.6262 0.2229 1.3315
C13A C 0.9622(5) 0.1765(2) 1.2430(2)
C14A C 1.1710(5) 0.1212(3) 1.1448(2)
H11A H 1.3068 0.1143 1.1243
C15A C 1.1769(5) 0.0770(3) 1.0781(2)
H12A H 1.319 0.0406 1.0127
C16A C 0.9410(5) 0.2234(3) 1.3190(2)
H13A H 0.801 0.2667 1.38
C17A C 1.1018(5) 0.2100(3) 1.3090(2)
H14A H 1.2397 0.1636 1.2502
C18A C 1.0727(5) 0.2651(3) 1.3867(2)
S1A_2 S 0.60303(12) -0.11373(6) 1.14403(5)
N2_2 N 1.2080(4) -0.13820(19) 0.95105(17)
Ni2_2 Ni 1.00000 1.00000 1.00000
C19 C 1.5194(9) 0.0515(4) 0.5816(4)
C20 C 1.3725(12) 0.1169(5) 0.6800(5)
H15 H 1.4288 0.1311 0.7031
C21 C 1.1480(13) 0.1600(5) 0.7424(5)
H16 H 1.0543 0.2014 0.8074
C22 C 1.0600(10) 0.1429(4) 0.7106(4)
H17 H 0.9081 0.1731 0.7536
C23 C 1.1956(8) 0.0813(4) 0.6153(4)
C24 C 1.4293(7) 0.0332(3) 0.5488(3)
C25 C 1.1170(9) 0.0595(5) 0.5764(5)
H18 H 0.9674 0.0899 0.6168
C26 C 1.7501(10) 0.0024(5) 0.5153(5)
H19 H 1.8096 0.014 0.537
C25A C 1.8830(9) -0.0595(5) 0.4236(5)
C23A C 1.8044(8) -0.0813(4) 0.3847(4)
C22A C 1.9400(10) -0.1429(4) 0.2894(4)
C21A C 1.8520(13) -0.1600(5) 0.2576(5)
C20A C 1.6275(12) -0.1169(5) 0.3200(5)
C19A C 1.4806(9) -0.0515(4) 0.4184(4)
C24A C 1.5707(7) -0.0332(3) 0.4512(3)
C26A C 1.2499(10) -0.0024(5) 0.4847(5)
H19A H 1.1904 -0.014 0.463
H15A H 1.5712 -0.1311 0.2969
H16A H 1.9457 -0.2014 0.1926
H17A H 2.0919 -0.1731 0.2464
H18A H 2.0326 -0.0899 0.3832
loop_
_geom_bond_atom_site_label_1
_geom_bond_atom_site_label_2
_geom_bond_site_symmetry_1
_geom_bond_site_symmetry_2
Ni1 S2 1_555 1_555
Ni2 S1 1_555 1_555
S1 C1 1_555 1_555
S2 C2 1_555 1_555
O1 C10 1_555 1_555
O2 H1 1_555 1_555
O3 H2 1_555 1_555
O4 C18 1_555 1_555
N1 Ni1 1_555 1_555
N2 C2 1_555 1_555
N3 Ni1 1_555 1_555
N4 Ni2 1_555 1_555
C1 N1 1_555 1_555
C3 N3 1_555 1_555
H3 C3 1_555 1_555
C4 C3 1_555 1_555
H4 C4 1_555 1_555
C5 C4 1_555 1_555
C6 C5 1_555 1_555
H5 C6 1_555 1_555
C7 N3 1_555 1_555
H6 C7 1_555 1_555
C8 C5 1_555 1_555
H7 C8 1_555 1_555
C9 C8 1_555 1_555
H8 C9 1_555 1_555
C10 O2 1_555 1_555
C11 N4 1_555 1_555
H9 C11 1_555 1_555
C12 C11 1_555 1_555
H10 C12 1_555 1_555
C13 C12 1_555 1_555
C14 C13 1_555 1_555
H11 C14 1_555 1_555
C15 N4 1_555 1_555
H12 C15 1_555 1_555
C16 C13 1_555 1_555
H13 C16 1_555 1_555
C17 C16 1_555 1_555
H14 C17 1_555 1_555
C18 O3 1_555 1_555
C19 C20 1_555 1_555
C20 H15 1_555 1_555
C21 C20 1_555 1_555
H16 C21 1_555 1_555
C22 C21 1_555 1_555
H17 C22 1_555 1_555
C23 C22 1_555 1_555
C24 C19 1_555 1_555
C25 C23 1_555 1_555
H18 C25 1_555 1_555
C26 C19 1_555 1_555
H19 C26 1_555 1_555
C25A C26 1_555 1_555
C23A C25A 1_555 1_555
C22A C23A 1_555 1_555
C21A C22A 1_555 1_555
C20A C21A 1_555 1_555
C19A C20A 1_555 1_555
C24A C24 1_555 1_555
C26A C25 1_555 1_555
H19A C26A 1_555 1_555
H15A C20A 1_555 1_555
H16A C21A 1_555 1_555
H17A C22A 1_555 1_555
H18A C25A 1_555 1_555
S2A Ni1 1_555 1_555
N2A Ni2 1_555 1_555
C2A S2A 1_555 1_555
S1A C1A 1_555 1_555
N1A Ni1 1_555 1_555
C1A N1A 1_555 1_555
O1A C10A 1_555 1_555
O2A H1A 1_555 1_555
N3A Ni1 1_555 1_555
C3A N3A 1_555 1_555
H3A C3A 1_555 1_555
C4A C3A 1_555 1_555
H4A C4A 1_555 1_555
C5A C4A 1_555 1_555
C6A C5A 1_555 1_555
H5A C6A 1_555 1_555
C7A N3A 1_555 1_555
H6A C7A 1_555 1_555
C8A C5A 1_555 1_555
H7A C8A 1_555 1_555
C9A C8A 1_555 1_555
H8A C9A 1_555 1_555
C10A O2A 1_555 1_555
O3A H2A 1_555 1_555
O4A C18A 1_555 1_555
N4A Ni2 1_555 1_555
C11A N4A 1_555 1_555
H9A C11A 1_555 1_555
C12A C11A 1_555 1_555
H10A C12A 1_555 1_555
C13A C12A 1_555 1_555
C14A C13A 1_555 1_555
H11A C14A 1_555 1_555
C15A N4A 1_555 1_555
H12A C15A 1_555 1_555
C16A C13A 1_555 1_555
H13A C16A 1_555 1_555
C17A C16A 1_555 1_555
H14A C17A 1_555 1_555
C18A O3A 1_555 1_555
S1A_2 Ni2 1_555 1_555
N2_2 Ni2 1_555 1_555
Ni2_2 N2 1_555 1_555
C6 C7 1_555 1_555
C9 C10 1_555 1_555
C14 C15 1_555 1_555
C17 C18 1_555 1_555
C23 C24 1_555 1_555
C23A C24A 1_555 1_555
C19A C24A 1_555 1_555
C19A C26A 1_555 1_555
N2A C2A 1_555 1_555
S1A Ni2_2 1_555 1_555
C6A C7A 1_555 1_555
C9A C10A 1_555 1_555
C14A C15A 1_555 1_555
C17A C18A 1_555 1_555

#END
