
#######################################################################
#
#                 Cambridge Crystallographic Data Centre
#                                CCDC 
#
#######################################################################
#
# If this CIF has been generated from an entry in the Cambridge 
# Structural Database, then it will include bibliographic, chemical, 
# crystal, experimental, refinement or atomic coordinate data resulting 
# from the CCDC's data processing and validation procedures.
#
#######################################################################

data_MESZEQ
_symmetry_cell_setting           monoclinic
_symmetry_space_group_name_H-M   'C 2/c'
_symmetry_Int_Tables_number      15
_space_group_name_Hall           '-C 2yn'
loop_
_symmetry_equiv_pos_site_id
_symmetry_equiv_pos_as_xyz
1 x,y,z
2 1/2+x,1/2+y,z
3 -x,y,1/2-z
4 1/2-x,1/2+y,1/2-z
5 -x,-y,-z
6 1/2-x,1/2-y,-z
7 x,-y,1/2+z
8 1/2+x,1/2-y,1/2+z
_cell_length_a                   30.3812(18)
_cell_length_b                   5.0478(3)
_cell_length_c                   16.3401(9)
_cell_angle_alpha                90
_cell_angle_beta                 108.2680(10)
_cell_angle_gamma                90
_cell_volume                     2379.59
loop_
_atom_site_label
_atom_site_type_symbol
_atom_site_fract_x
_atom_site_fract_y
_atom_site_fract_z
Hg1 Hg 0.0000 0.93486(7) 0.2500
I1 I 0.053152(16) 1.09397(10) 0.40414(3)
Cu1 Cu 0.2500 -0.2500 0.0000
C1 C 0.1867(2) 0.1165(12) 0.0196(4)
C2 C 0.1556(2) 0.2542(12) 0.0476(4)
H1 H 0.1392 0.3993 0.0149
C3 C 0.1477(2) 0.1822(13) 0.1242(4)
C4 C 0.1732(2) -0.0307(13) 0.1699(4)
H2 H 0.1698 -0.0833 0.2234
C5 C 0.2036(2) -0.1648(13) 0.1364(4)
H3 H 0.2206 -0.3106 0.1675
C6 C 0.1993(2) 0.1959(13) -0.0596(4)
C7 C 0.0447(2) 0.5943(14) 0.1236(4)
H4 H 0.0178 0.6655 0.0825
C8 C 0.0743(2) 0.4403(14) 0.0947(4)
H5 H 0.0679 0.4082 0.0348
C9 C 0.1140(2) 0.3312(13) 0.1545(4)
C10 C 0.1211(2) 0.3823(13) 0.2412(4)
H6 H 0.1470 0.3083 0.2840
C11 C 0.0899(2) 0.5430(13) 0.2643(4)
H7 H 0.0955 0.5804 0.3237
N1 N 0.20974(17) -0.0957(9) 0.0617(3)
N2 N 0.05232(17) 0.6476(11) 0.2073(3)
O1 O 0.22538(15) 0.0285(9) -0.0829(3)
O2 O 0.18639(15) 0.4096(9) -0.0933(3)
I1B I -0.053152(16) 1.09397(10) 0.09586(3)
Cu1G Cu -0.2500 -0.2500 0.5000
C1B C -0.1867(2) 0.1165(12) 0.4804(4)
C2B C -0.1556(2) 0.2542(12) 0.4524(4)
H1B H -0.1392 0.3993 0.4851
C3B C -0.1477(2) 0.1822(13) 0.3758(4)
C4B C -0.1732(2) -0.0307(13) 0.3301(4)
H2B H -0.1698 -0.0833 0.2766
C5B C -0.2036(2) -0.1648(13) 0.3636(4)
H3B H -0.2206 -0.3106 0.3325
C6B C -0.1993(2) 0.1959(13) 0.5596(4)
C7B C -0.0447(2) 0.5943(14) 0.3764(4)
H4B H -0.0178 0.6655 0.4175
C8B C -0.0743(2) 0.4403(14) 0.4053(4)
H5B H -0.0679 0.4082 0.4652
C9B C -0.1140(2) 0.3312(13) 0.3455(4)
C10B C -0.1211(2) 0.3823(13) 0.2588(4)
H6B H -0.1470 0.3083 0.2160
C11B C -0.0899(2) 0.5430(13) 0.2357(4)
H7B H -0.0955 0.5804 0.1763
N1B N -0.20974(17) -0.0957(9) 0.4383(3)
N1E N 0.29026(17) -0.4043(9) -0.0617(3)
N2B N -0.05232(17) 0.6476(11) 0.2927(3)
O1B O -0.22538(15) 0.0285(9) 0.5829(3)
O1E O 0.27462(15) -0.5285(9) 0.0829(3)
O2B O -0.18639(15) 0.4096(9) 0.5933(3)
loop_
_geom_bond_atom_site_label_1
_geom_bond_atom_site_label_2
_geom_bond_site_symmetry_1
_geom_bond_site_symmetry_2
Hg1 I1 1_555 1_555
Cu1 N1 1_555 1_555
C1 C2 1_555 1_555
C2 H1 1_555 1_555
C3 C2 1_555 1_555
C4 C3 1_555 1_555
H2 C4 1_555 1_555
C5 C4 1_555 1_555
H3 C5 1_555 1_555
C6 C1 1_555 1_555
C7 H4 1_555 1_555
C8 C7 1_555 1_555
H5 C8 1_555 1_555
C9 C3 1_555 1_555
C10 C9 1_555 1_555
H6 C10 1_555 1_555
C11 C10 1_555 1_555
H7 C11 1_555 1_555
N1 C1 1_555 1_555
N2 Hg1 1_555 1_555
O1 Cu1 1_555 1_555
O2 C6 1_555 1_555
I1B Hg1 1_555 1_555
Cu1G N1B 1_555 1_555
C1B C2B 1_555 1_555
C2B H1B 1_555 1_555
C3B C2B 1_555 1_555
C4B C3B 1_555 1_555
H2B C4B 1_555 1_555
C5B C4B 1_555 1_555
H3B C5B 1_555 1_555
C6B C1B 1_555 1_555
C7B H4B 1_555 1_555
C8B C7B 1_555 1_555
H5B C8B 1_555 1_555
C9B C3B 1_555 1_555
C10B C9B 1_555 1_555
H6B C10B 1_555 1_555
C11B C10B 1_555 1_555
H7B C11B 1_555 1_555
N1B C1B 1_555 1_555
N1E Cu1 1_555 1_555
N2B Hg1 1_555 1_555
O1B Cu1G 1_555 1_555
O1E Cu1 1_555 1_555
O2B C6B 1_555 1_555
C5 N1 1_555 1_555
C6 O1 1_555 1_555
C7 N2 1_555 1_555
C8 C9 1_555 1_555
C11 N2 1_555 1_555
C5B N1B 1_555 1_555
C6B O1B 1_555 1_555
C7B N2B 1_555 1_555
C8B C9B 1_555 1_555
C11B N2B 1_555 1_555

#END
