
#######################################################################
#
#                 Cambridge Crystallographic Data Centre
#                                CCDC 
#
#######################################################################
#
# If this CIF has been generated from an entry in the Cambridge 
# Structural Database, then it will include bibliographic, chemical, 
# crystal, experimental, refinement or atomic coordinate data resulting 
# from the CCDC's data processing and validation procedures.
#
#######################################################################

data_METLEC
_symmetry_cell_setting           monoclinic
_symmetry_space_group_name_H-M   'C 2/c'
_symmetry_Int_Tables_number      15
_space_group_name_Hall           '-C 2yn'
loop_
_symmetry_equiv_pos_site_id
_symmetry_equiv_pos_as_xyz
1 x,y,z
2 1/2+x,1/2+y,z
3 x,-y,1/2+z
4 1/2+x,1/2-y,1/2+z
5 -x,-y,-z
6 1/2-x,1/2-y,-z
7 -x,y,1/2-z
8 1/2-x,1/2+y,1/2-z
_cell_length_a                   22.660(5)
_cell_length_b                   9.4490(19)
_cell_length_c                   20.336(4)
_cell_angle_alpha                90
_cell_angle_beta                 101.24(3)
_cell_angle_gamma                90
_cell_volume                     4270.71
loop_
_atom_site_label
_atom_site_type_symbol
_atom_site_fract_x
_atom_site_fract_y
_atom_site_fract_z
Sn1 Sn 0.17684(4) 0.74862(9) 0.02084(4)
Se1 Se 0.08783(6) 0.64440(14) -0.05394(6)
Se2 Se 0.15393(6) 0.85295(14) 0.12466(6)
Se3 Se 0.26636(6) 0.57165(13) 0.04273(6)
Se3E Se 0.23364(6) 0.92835(13) -0.04273(6)
Sn1E Sn 0.32316(4) 0.75138(9) -0.02084(4)
N1 N 0.4941(5) 0.1772(11) 0.4051(5)
H2 H 0.4628 0.1684 0.4261
N2 N 0.6397(5) 0.2380(13) 0.4742(5)
H3 H 0.6194 0.1591 0.4586
N3 N 0.5577(5) 0.5058(12) 0.3670(5)
H6 H 0.5197 0.4732 0.3583
N4 N 0.5492(5) 0.3835(12) 0.5334(5)
H8 H 0.5395 0.4565 0.5577
N5 N 0.6913(5) 0.9999(10) 0.3391(5)
H9 H 0.6636 0.9858 0.3646
H10 H 0.7262 0.9636 0.3614
N6 N 0.7559(5) 1.3413(11) 0.2835(5)
H12 H 0.7432 1.4043 0.3108
N7 N 0.6333(5) 0.7081(11) 0.2951(5)
H13 H 0.6665 0.6646 0.3176
H14 H 0.6146 0.7440 0.3266
N8 N 0.3887(5) 0.0102(11) 0.3212(5)
H15 H 0.3753 0.1000 0.3174
H16 H 0.3866 -0.0209 0.3625
C1 C 0.6465(6) 0.2610(14) 0.5460(6)
H17 H 0.6703 0.1849 0.5698
H18 H 0.6680 0.3490 0.5579
C2 C 0.7466(6) 1.1878(14) 0.2922(6)
H19 H 0.7844 1.1457 0.3141
H20 H 0.7351 1.1444 0.2483
C3 C 0.5947(7) 0.5949(15) 0.2642(7)
H21 H 0.6112 0.5571 0.2272
H22 H 0.5555 0.6343 0.2456
C4 C 0.5856(6) 0.2675(14) 0.5683(6)
H23 H 0.5920 0.2825 0.6164
H24 H 0.5645 0.1785 0.5582
C5 C 0.4515(6) 0.0060(15) 0.3124(6)
H25 H 0.4519 -0.0096 0.2654
H26 H 0.4714 -0.0739 0.3373
C6 C 0.5865(7) 0.4749(15) 0.3102(7)
H27 H 0.5631 0.4019 0.2835
H28 H 0.6259 0.4351 0.3279
C7 C 0.6994(6) 1.1554(14) 0.3325(6)
H29 H 0.7110 1.1969 0.3768
H30 H 0.6615 1.1975 0.3110
C8 C 0.4872(6) 0.1402(16) 0.3354(6)
H31 H 0.5270 0.1299 0.3251
H32 H 0.4678 0.2188 0.3089
Li1 Li 0.5561(9) 0.341(2) 0.4347(10)
Li2 Li 0.6652(10) 0.884(2) 0.2504(11)
Li2G Li 0.8348(10) 1.384(2) 0.2496(11)
Li2F Li 0.3348(10) -0.116(2) 0.2496(11)
N6G N 0.7441(5) 0.8413(11) 0.2165(5)
N8F N 0.6113(5) 1.0102(11) 0.1788(5)
H12G H 0.7568 0.9043 0.1892
H15F H 0.6247 1.1000 0.1826
H16F H 0.6134 0.9791 0.1375
H1? H 0.5311 0.1871 0.4305
H4? H 0.1274 0.1860 -0.0515
H5? H 0.4223 -0.5386 0.0962
H7? H 0.0233 0.1354 -0.0050
H11? H 0.2194 0.3717 0.2433
loop_
_geom_bond_atom_site_label_1
_geom_bond_atom_site_label_2
_geom_bond_site_symmetry_1
_geom_bond_site_symmetry_2
Sn1 Se1 1_555 1_555
Se2 Sn1 1_555 1_555
Se3 Sn1 1_555 1_555
N1 H2 1_555 1_555
N2 H3 1_555 1_555
N3 H6 1_555 1_555
N4 H8 1_555 1_555
N5 H9 1_555 1_555
H10 N5 1_555 1_555
N6 H12 1_555 1_555
N7 H13 1_555 1_555
H14 N7 1_555 1_555
N8 H15 1_555 1_555
H16 N8 1_555 1_555
C1 N2 1_555 1_555
H17 C1 1_555 1_555
H18 C1 1_555 1_555
C2 N6 1_555 1_555
H19 C2 1_555 1_555
H20 C2 1_555 1_555
C3 N7 1_555 1_555
H21 C3 1_555 1_555
H22 C3 1_555 1_555
C4 N4 1_555 1_555
H23 C4 1_555 1_555
H24 C4 1_555 1_555
C5 N8 1_555 1_555
H25 C5 1_555 1_555
H26 C5 1_555 1_555
C6 N3 1_555 1_555
H27 C6 1_555 1_555
H28 C6 1_555 1_555
C7 N5 1_555 1_555
H29 C7 1_555 1_555
H30 C7 1_555 1_555
C8 N1 1_555 1_555
H31 C8 1_555 1_555
H32 C8 1_555 1_555
Li1 N1 1_555 1_555
Li2 N5 1_555 1_555
Se3E Sn1 1_555 1_555
Sn1E Se3 1_555 1_555
Li2G N6 1_555 1_555
Li2F N8 1_555 1_555
N6G Li2 1_555 1_555
N8F Li2 1_555 1_555
H12G N6G 1_555 1_555
H15F N8F 1_555 1_555
H16F N8F 1_555 1_555
N3 Li1 1_555 1_555
N4 Li1 1_555 1_555
N7 Li2 1_555 1_555
C1 C4 1_555 1_555
C2 C7 1_555 1_555
C3 C6 1_555 1_555
C5 C8 1_555 1_555
Se3E Sn1E 1_555 1_555

#END
