
#######################################################################
#
#                 Cambridge Crystallographic Data Centre
#                                CCDC 
#
#######################################################################
#
# If this CIF has been generated from an entry in the Cambridge 
# Structural Database, then it will include bibliographic, chemical, 
# crystal, experimental, refinement or atomic coordinate data resulting 
# from the CCDC's data processing and validation procedures.
#
#######################################################################

data_METNII
_symmetry_cell_setting           monoclinic
_symmetry_space_group_name_H-M   'C 2/c'
_symmetry_Int_Tables_number      15
_space_group_name_Hall           '-C 2yn'
loop_
_symmetry_equiv_pos_site_id
_symmetry_equiv_pos_as_xyz
1 x,y,z
2 1/2+x,1/2+y,z
3 x,-y,1/2+z
4 1/2+x,1/2-y,1/2+z
5 -x,-y,-z
6 1/2-x,1/2-y,-z
7 -x,y,1/2-z
8 1/2-x,1/2+y,1/2-z
_cell_length_a                   21.3256(3)
_cell_length_b                   11.53050(10)
_cell_length_c                   12.60790(20)
_cell_angle_alpha                90
_cell_angle_beta                 100.7670(10)
_cell_angle_gamma                90
_cell_volume                     3045.64
loop_
_atom_site_label
_atom_site_type_symbol
_atom_site_fract_x
_atom_site_fract_y
_atom_site_fract_z
Co1 Co 0.50000 0.18353(3) 0.75000
O1 O 0.47777(6) 0.18418(14) 0.90560(11)
O2 O 0.40701(9) 0.28742(19) 0.96403(19)
O3 O 0.39470(9) 0.10379(19) 0.94964(20)
N1 N 0.42470(8) 0.19131(17) 0.94043(14)
N2 N 0.50000 0.37344(22) 0.75000
N3 N 0.50000 0.99206(21) 0.75000
N4 N 0.59712(7) 0.19644(15) 0.83587(13)
C1 C 0.51583(10) 0.43469(19) 0.84211(16)
C2 C 0.51651(10) 0.55463(20) 0.84587(16)
C3 C 0.50000 0.6180(3) 0.75000
C4 C 0.50000 0.7465(3) 0.75000
C5 C 0.47829(11) 0.81004(20) 0.82994(17)
C6 C 0.47925(10) 0.93031(20) 0.82748(16)
C7 C 0.63797(9) 0.27525(20) 0.80857(16)
C8 C 0.69737(9) 0.29844(19) 0.86959(17)
C9 C 0.71813(8) 0.23870(19) 0.96567(15)
C10 C 0.67604(9) 0.15579(20) 0.99397(17)
C11 C 0.61743(9) 0.13729(20) 0.92779(16)
H1 H 0.528 0.390 0.912
H2 H 0.528 0.597 0.917
H3 H 0.462 0.767 0.890
H4 H 0.463 0.975 0.886
H5 H 0.624 0.320 0.739
H6 H 0.726 0.358 0.844
H7 H 0.689 0.110 1.062
H8 H 0.588 0.077 0.950
C2F C 0.48349(10) 0.55463(20) 0.65413(16)
C1F C 0.48417(10) 0.43469(19) 0.65789(16)
H1F H 0.472 0.390 0.588
H2F H 0.472 0.597 0.583
C6F C 0.52075(10) 0.93031(20) 0.67252(16)
C5F C 0.52171(11) 0.81004(20) 0.67006(17)
H3F H 0.538 0.767 0.610
H4F H 0.537 0.975 0.614
C9E C 0.78187(8) 0.26130(19) 1.03433(15)
C8E C 0.80263(9) 0.20156(19) 1.13041(17)
C7E C 0.86203(9) 0.22475(20) 1.19143(16)
N4E N 0.90288(7) 0.30356(15) 1.16413(13)
C11E C 0.88257(9) 0.36271(20) 1.07221(16)
C10E C 0.82396(9) 0.34421(20) 1.00603(17)
H7E H 0.811 0.390 0.938
H8E H 0.912 0.423 1.050
H5E H 0.876 0.180 1.261
H6E H 0.774 0.142 1.156
O1F O 0.52223(6) 0.18418(14) 0.59440(11)
O2F O 0.59299(9) 0.28742(19) 0.53597(19)
O3F O 0.60530(9) 0.10379(19) 0.55036(20)
N1F N 0.57530(8) 0.19131(17) 0.55957(14)
N3_2 N 0.50000 -0.00794(21) 0.75000
N4F N 0.40288(7) 0.19644(15) 0.66413(13)
Co1_2 Co 0.50000 1.18353(3) 0.75000
Co1C Co 1.00000 0.31647(3) 1.25000
C12 C 0.23246(23) 0.5494(5) 0.3519(4)
C13 C 0.20948(18) 0.4892(4) 0.2605(4)
C14 C 0.24748(19) 0.4158(4) 0.2164(4)
C15 C 0.31172(21) 0.4038(5) 0.2668(5)
C16 C 0.33445(23) 0.4662(7) 0.3588(6)
C17 C 0.2956(3) 0.5364(6) 0.4018(4)
H9 H 0.202 0.606 0.385
H10 H 0.163 0.498 0.225
H11 H 0.229 0.370 0.146
H12 H 0.343 0.349 0.235
H13 H 0.380 0.455 0.395
H14 H 0.315 0.582 0.474
loop_
_geom_bond_atom_site_label_1
_geom_bond_atom_site_label_2
_geom_bond_site_symmetry_1
_geom_bond_site_symmetry_2
Co1 O1 1_555 1_555
O1 N1 1_555 1_555
O2 N1 1_555 1_555
O3 N1 1_555 1_555
N2 Co1 1_555 1_555
N3 C6 1_555 1_555
N4 Co1 1_555 1_555
C1 N2 1_555 1_555
C2 C1 1_555 1_555
C3 C2 1_555 1_555
C4 C3 1_555 1_555
C5 C4 1_555 1_555
C6 C5 1_555 1_555
C7 N4 1_555 1_555
C8 C7 1_555 1_555
C9 C8 1_555 1_555
C10 C9 1_555 1_555
C11 N4 1_555 1_555
C12 C13 1_555 1_555
C13 C14 1_555 1_555
C14 C15 1_555 1_555
C15 C16 1_555 1_555
C16 C17 1_555 1_555
C17 C12 1_555 1_555
H1 C1 1_555 1_555
H2 C2 1_555 1_555
H3 C5 1_555 1_555
H4 C6 1_555 1_555
H5 C7 1_555 1_555
H6 C8 1_555 1_555
H7 C10 1_555 1_555
H8 C11 1_555 1_555
H9 C12 1_555 1_555
H10 C13 1_555 1_555
H11 C14 1_555 1_555
H12 C15 1_555 1_555
H13 C16 1_555 1_555
H14 C17 1_555 1_555
C2F C3 1_555 1_555
C1F N2 1_555 1_555
H1F C1F 1_555 1_555
H2F C2F 1_555 1_555
C6F N3 1_555 1_555
C5F C4 1_555 1_555
H3F C5F 1_555 1_555
H4F C6F 1_555 1_555
C9E C9 1_555 1_555
C8E C9E 1_555 1_555
C7E C8E 1_555 1_555
N4E C7E 1_555 1_555
C11E N4E 1_555 1_555
C10E C9E 1_555 1_555
H7E C10E 1_555 1_555
H8E C11E 1_555 1_555
H5E C7E 1_555 1_555
H6E C8E 1_555 1_555
O1F Co1 1_555 1_555
O2F N1F 1_555 1_555
O3F N1F 1_555 1_555
N1F O1F 1_555 1_555
N3_2 Co1 1_555 1_555
N4F Co1 1_555 1_555
Co1_2 N3 1_555 1_555
Co1C N4E 1_555 1_555
C10 C11 1_555 1_555
C2F C1F 1_555 1_555
C6F C5F 1_555 1_555
C11E C10E 1_555 1_555

#END
