
#######################################################################
#
#                 Cambridge Crystallographic Data Centre
#                                CCDC 
#
#######################################################################
#
# If this CIF has been generated from an entry in the Cambridge 
# Structural Database, then it will include bibliographic, chemical, 
# crystal, experimental, refinement or atomic coordinate data resulting 
# from the CCDC's data processing and validation procedures.
#
#######################################################################

data_METPIK
_symmetry_cell_setting           monoclinic
_symmetry_space_group_name_H-M   'C 2/c'
_symmetry_Int_Tables_number      15
_space_group_name_Hall           '-C 2yn'
loop_
_symmetry_equiv_pos_site_id
_symmetry_equiv_pos_as_xyz
1 x,y,z
2 1/2+x,1/2+y,z
3 x,-y,1/2+z
4 1/2+x,1/2-y,1/2+z
5 -x,-y,-z
6 1/2-x,1/2-y,-z
7 -x,y,1/2-z
8 1/2-x,1/2+y,1/2-z
_cell_length_a                   21.8140(12)
_cell_length_b                   11.52810(20)
_cell_length_c                   12.8767(7)
_cell_angle_alpha                90
_cell_angle_beta                 102.6740(10)
_cell_angle_gamma                90
_cell_volume                     3159.25
loop_
_atom_site_label
_atom_site_type_symbol
_atom_site_fract_x
_atom_site_fract_y
_atom_site_fract_z
Co1 Co 0.50000 0.18630(6) 0.25000
O1 O 0.52157(12) 0.18912(22) 0.09872(19)
O2 O 0.59310(17) 0.2779(3) 0.0375(3)
O3 O 0.60480(16) 0.0991(3) 0.0776(3)
N1 N 0.57498(15) 0.1888(3) 0.07091(24)
N2 N 0.50000 0.3766(3) 0.25000
N3 N 0.50000 0.9943(3) 0.25000
N4 N 0.40336(13) 0.19969(25) 0.16141(22)
C1 C 0.48392(18) 0.4382(3) 0.1596(3)
C2 C 0.48299(19) 0.5569(3) 0.1557(3)
C3 C 0.50000 0.6204(4) 0.25000
C4 C 0.50000 0.7493(4) 0.25000
C5 C 0.51450(19) 0.8126(3) 0.1671(3)
C6 C 0.51375(18) 0.9326(3) 0.1700(3)
C7 C 0.38236(17) 0.1436(3) 0.0688(3)
C8 C 0.32343(17) 0.1611(3) 0.0043(3)
C9 C 0.28187(15) 0.2393(3) 0.0335(3)
C10 C 0.30340(17) 0.2961(3) 0.1298(3)
C11 C 0.36282(18) 0.2748(3) 0.1905(3)
H1 H 0.472 0.394 0.090
H2 H 0.471 0.599 0.086
H3 H 0.527 0.771 0.105
H4 H 0.523 0.976 0.107
H5 H 0.411 0.086 0.045
H6 H 0.311 0.115 -0.064
H7 H 0.275 0.352 0.156
H8 H 0.377 0.318 0.259
C2F C 0.51701(19) 0.5569(3) 0.3443(3)
C1F C 0.51608(18) 0.4382(3) 0.3404(3)
H1F H 0.528 0.394 0.410
H2F H 0.529 0.599 0.414
C6F C 0.48625(18) 0.9326(3) 0.3300(3)
C5F C 0.48550(19) 0.8126(3) 0.3329(3)
H3F H 0.473 0.771 0.395
H4F H 0.477 0.976 0.393
C9E C 0.21813(15) 0.2607(3) -0.0335(3)
C8E C 0.17657(17) 0.3389(3) -0.0043(3)
C7E C 0.11764(17) 0.3564(3) -0.0688(3)
N4E N 0.09664(13) 0.30031(25) -0.16141(22)
C11E C 0.13718(18) 0.2252(3) -0.1905(3)
C10E C 0.19660(17) 0.2039(3) -0.1298(3)
H7E H 0.225 0.148 -0.156
H8E H 0.123 0.182 -0.259
H5E H 0.089 0.414 -0.045
H6E H 0.189 0.385 0.064
O1F O 0.47843(12) 0.18912(22) 0.40128(19)
O2F O 0.40690(17) 0.2779(3) 0.4625(3)
O3F O 0.39520(16) 0.0991(3) 0.4224(3)
N1F N 0.42502(15) 0.1888(3) 0.42909(24)
N3_2 N 0.50000 -0.0057(3) 0.25000
N4F N 0.59664(13) 0.19969(25) 0.33859(22)
Co1_2 Co 0.50000 1.18630(6) 0.25000
Co1C Co 0.00000 0.31370(6) -0.25000
Cl1 Cl 0.15760(16) 1.1266(3) 0.2129(4)
C12 C 0.2097(3) 1.0317(6) 0.1667(7)
C13 C 0.1917(5) 0.9752(9) 0.0832(7)
C14 C 0.2375(8) 0.9042(9) 0.0491(7)
C15 C 0.3015(4) 0.8887(6) 0.1118(7)
C16 C 0.3104(3) 0.9568(6) 0.2035(6)
C17 C 0.2697(3) 1.0272(5) 0.2343(5)
H9 H 0.146 0.983 0.047
H10 H 0.220 0.869 -0.026
H11 H 0.333 0.833 0.085
H12 H 0.354 0.948 0.251
H13 H 0.283 1.075 0.304
loop_
_geom_bond_atom_site_label_1
_geom_bond_atom_site_label_2
_geom_bond_site_symmetry_1
_geom_bond_site_symmetry_2
Co1 O1 1_555 1_555
Cl1 C12 1_555 1_555
O1 N1 1_555 1_555
O2 N1 1_555 1_555
O3 N1 1_555 1_555
N2 Co1 1_555 1_555
N3 C6 1_555 1_555
N4 Co1 1_555 1_555
C1 N2 1_555 1_555
C2 C1 1_555 1_555
C3 C2 1_555 1_555
C4 C3 1_555 1_555
C5 C4 1_555 1_555
C6 C5 1_555 1_555
C7 N4 1_555 1_555
C8 C7 1_555 1_555
C9 C8 1_555 1_555
C10 C9 1_555 1_555
C11 N4 1_555 1_555
C12 C13 1_555 1_555
C13 C14 1_555 1_555
C14 C15 1_555 1_555
C15 C16 1_555 1_555
C16 C17 1_555 1_555
C17 C12 1_555 1_555
H1 C1 1_555 1_555
H2 C2 1_555 1_555
H3 C5 1_555 1_555
H4 C6 1_555 1_555
H5 C7 1_555 1_555
H6 C8 1_555 1_555
H7 C10 1_555 1_555
H8 C11 1_555 1_555
H9 C13 1_555 1_555
H10 C14 1_555 1_555
H11 C15 1_555 1_555
H12 C16 1_555 1_555
H13 C17 1_555 1_555
C2F C3 1_555 1_555
C1F N2 1_555 1_555
H1F C1F 1_555 1_555
H2F C2F 1_555 1_555
C6F N3 1_555 1_555
C5F C4 1_555 1_555
H3F C5F 1_555 1_555
H4F C6F 1_555 1_555
C9E C9 1_555 1_555
C8E C9E 1_555 1_555
C7E C8E 1_555 1_555
N4E C7E 1_555 1_555
C11E N4E 1_555 1_555
C10E C9E 1_555 1_555
H7E C10E 1_555 1_555
H8E C11E 1_555 1_555
H5E C7E 1_555 1_555
H6E C8E 1_555 1_555
O1F Co1 1_555 1_555
O2F N1F 1_555 1_555
O3F N1F 1_555 1_555
N1F O1F 1_555 1_555
N3_2 Co1 1_555 1_555
N4F Co1 1_555 1_555
Co1_2 N3 1_555 1_555
Co1C N4E 1_555 1_555
C10 C11 1_555 1_555
C2F C1F 1_555 1_555
C6F C5F 1_555 1_555
C11E C10E 1_555 1_555

#END
