
#######################################################################
#
#                 Cambridge Crystallographic Data Centre
#                                CCDC 
#
#######################################################################
#
# If this CIF has been generated from an entry in the Cambridge 
# Structural Database, then it will include bibliographic, chemical, 
# crystal, experimental, refinement or atomic coordinate data resulting 
# from the CCDC's data processing and validation procedures.
#
#######################################################################

data_METPAC
_symmetry_cell_setting           orthorhombic
_symmetry_space_group_name_H-M   'P n a 21'
_symmetry_Int_Tables_number      33
_space_group_name_Hall           'P 2c -2n'
loop_
_symmetry_equiv_pos_site_id
_symmetry_equiv_pos_as_xyz
1 x,y,z
2 -x,-y,1/2+z
3 1/2+x,1/2-y,z
4 1/2-x,1/2+y,1/2+z
_cell_length_a                   22.8114(11)
_cell_length_b                   15.4407(7)
_cell_length_c                   11.4207(5)
_cell_angle_alpha                90
_cell_angle_beta                 90
_cell_angle_gamma                90
_cell_volume                     4022.64
loop_
_atom_site_label
_atom_site_type_symbol
_atom_site_fract_x
_atom_site_fract_y
_atom_site_fract_z
Co1 Co 0.038345(14) 0.74617(3) 0.62754(7)
O1 O 0.04585(10) 0.88116(13) 0.6268(4)
O2 O 0.0131(2) 0.9898(3) 0.5282(4)
O3 O -0.03160(14) 0.9501(2) 0.6840(4)
O4 O 0.04661(10) 0.61092(13) 0.6264(3)
O5 O -0.0223(2) 0.5236(3) 0.5730(4)
O6 O -0.0044(2) 0.5371(2) 0.7525(4)
N1 N 0.00828(14) 0.9424(2) 0.6139(4)
N2 N 0.0062(2) 0.5551(2) 0.6502(4)
N3 N 0.03993(14) 0.7469(2) 0.8152(4)
N4 N 0.04041(14) 0.7444(2) 1.4359(4)
N5 N 0.13241(10) 0.7485(2) 0.6251(5)
N6 N 0.44431(11) 0.7555(2) 0.6219(5)
C1 C 0.0163(2) 0.8106(2) 0.8775(4)
H1 H -0.0010(2) 0.8564(2) 0.8375(4)
C2 C 0.0161(2) 0.8127(3) 0.9984(4)
H2 H -0.0008(2) 0.8591(3) 1.0380(4)
C3 C 0.0410(2) 0.7454(2) 1.0595(6)
C4 C 0.0661(2) 0.6785(2) 0.9965(4)
H3 H 0.0830(2) 0.6316(2) 1.0349(4)
C5 C 0.0655(2) 0.6823(2) 0.8765(4)
H4 H 0.0837(2) 0.6379(2) 0.8351(4)
C6 C 0.0423(2) 0.7455(2) 1.1891(5)
C7 C 0.0518(2) 0.8208(2) 1.2542(4)
H5 H 0.0576(2) 0.8735(2) 1.2163(4)
C8 C 0.0310(2) 0.6698(2) 1.2537(4)
H6 H 0.0242(2) 0.6178(2) 1.2148(4)
C9 C 0.0300(2) 0.6722(2) 1.3731(4)
H7 H 0.0216(2) 0.6213(2) 1.4133(4)
C10 C 0.0526(2) 0.8168(2) 1.3751(4)
H8 H 0.0622(2) 0.8667(2) 1.4166(4)
C11 C 0.16339(14) 0.6960(2) 0.5568(4)
H9 H 0.14331(14) 0.6562(2) 0.5107(4)
C12 C 0.2244(2) 0.6974(3) 0.5508(4)
H10 H 0.2440(2) 0.6605(3) 0.4998(4)
C13 C 0.25550(12) 0.7540(2) 0.6211(6)
C14 C 0.2230(2) 0.8076(2) 0.6939(4)
H11 H 0.2421(2) 0.8466(2) 0.7428(4)
C15 C 0.1623(2) 0.8036(2) 0.6943(4)
H12 H 0.1415(2) 0.8401(2) 0.7441(4)
C16 C 0.41364(15) 0.7177(3) 0.5381(4)
H13 H 0.43434(15) 0.6897(3) 0.4790(4)
C17 C 0.35319(14) 0.7165(3) 0.5316(4)
H14 H 0.33427(14) 0.6903(3) 0.4688(4)
C18 C 0.32074(12) 0.7560(2) 0.6222(6)
C19 C 0.3520(2) 0.7946(2) 0.7102(4)
H15 H 0.3322(2) 0.8223(2) 0.7709(4)
C20 C 0.41309(15) 0.7929(2) 0.7095(4)
H16 H 0.43321(15) 0.8183(2) 0.7715(4)
N4_2 N 0.04041(14) 0.7444(2) 0.4359(4)
N6B N -0.05569(11) 0.7445(2) 0.6219(5)
Co1_2 Co 0.038345(14) 0.74617(3) 1.62754(7)
Co1B Co 0.538345(14) 0.75383(3) 0.62754(7)
O7 O 0.3704(2) 0.8168(4) 0.0019(5)
C21 C 0.3165(3) 0.7954(5) 0.0502(7)
C22 C 0.2931(2) 0.8350(5) 0.1469(7)
H17 H 0.3139(2) 0.8768(5) 0.1881(7)
C23 C 0.2361(3) 0.8100(5) 0.1816(8)
H18 H 0.2201(3) 0.8334(5) 0.2495(8)
C24 C 0.2049(2) 0.7538(4) 0.1190(13)
H19 H 0.1663(2) 0.7415(4) 0.1398(13)
C25 C 0.2299(3) 0.7136(4) 0.0229(7)
H20 H 0.2079(3) 0.6736(4) -0.0193(7)
C26 C 0.2840(3) 0.7303(4) -0.0106(7)
H21 H 0.3008(3) 0.7002(4) -0.0727(7)
C27 C 0.3999(3) 0.8952(6) 0.0461(9)
H22 H 0.4341(18) 0.9066(27) -0.0004(39)
H23 H 0.4113(28) 0.8864(18) 0.1261(20)
H24 H 0.3736(11) 0.9435(11) 0.0413(61)
O8 O 0.2122(2) 0.4996(3) 0.3642(6)
C28 C 0.2703(3) 0.5128(4) 0.3512(6)
C29 C 0.2961(3) 0.5587(5) 0.2649(7)
H25 H 0.2724(3) 0.5843(5) 0.2083(7)
C30 C 0.3580(4) 0.5696(5) 0.2565(8)
H26 H 0.3744(4) 0.6015(5) 0.1958(8)
C31 C 0.3920(3) 0.5327(5) 0.3386(9)
H27 H 0.4325(3) 0.5377(5) 0.3348(9)
C32 C 0.3656(3) 0.4866(5) 0.4296(7)
H28 H 0.3886(3) 0.4614(5) 0.4875(7)
C33 C 0.3075(3) 0.4788(4) 0.4336(7)
H29 H 0.2912(3) 0.4485(4) 0.4960(7)
C34 C 0.1712(4) 0.5366(5) 0.2849(8)
H30 H 0.1778(18) 0.5979(8) 0.2795(43)
H31 H 0.1321(4) 0.5261(35) 0.3125(29)
H32 H 0.1760(19) 0.5108(30) 0.2090(15)
O9 O 0.3279(2) 1.0046(3) 0.3370(4)
C35 C 0.2665(3) 1.0041(3) 0.3553(6)
C36 C 0.2402(3) 0.9721(3) 0.4510(6)
H33 H 0.2623(3) 0.9478(3) 0.5110(6)
C37 C 0.1794(3) 0.9756(4) 0.4595(6)
H34 H 0.1607(3) 0.9540(4) 0.5257(6)
C38 C 0.1468(3) 1.0111(3) 0.3697(7)
H35 H 0.1061(3) 1.0130(3) 0.3748(7)
C39 C 0.1743(3) 1.0431(3) 0.2741(6)
H36 H 0.1524(3) 1.0673(3) 0.2137(6)
C40 C 0.2340(3) 1.0403(3) 0.2655(6)
H37 H 0.2527(3) 1.0626(3) 0.1997(6)
C41 C 0.3623(3) 0.9598(4) 0.4162(7)
H38 H 0.3522(15) 0.9771(24) 0.4944(7)
H39 H 0.4029(3) 0.9725(26) 0.4019(29)
H40 H 0.3558(17) 0.8988(4) 0.4074(31)
loop_
_geom_bond_atom_site_label_1
_geom_bond_atom_site_label_2
_geom_bond_site_symmetry_1
_geom_bond_site_symmetry_2
Co1 O1 1_555 1_555
O1 N1 1_555 1_555
O2 N1 1_555 1_555
O3 N1 1_555 1_555
O4 Co1 1_555 1_555
O5 N2 1_555 1_555
O6 N2 1_555 1_555
O7 C21 1_555 1_555
O8 C28 1_555 1_555
O9 C35 1_555 1_555
N2 O4 1_555 1_555
N3 Co1 1_555 1_555
N4 C9 1_555 1_555
N5 Co1 1_555 1_555
N6 C16 1_555 1_555
C1 N3 1_555 1_555
H1 C1 1_555 1_555
C2 C1 1_555 1_555
H2 C2 1_555 1_555
C3 C2 1_555 1_555
C4 C3 1_555 1_555
H3 C4 1_555 1_555
C5 N3 1_555 1_555
H4 C5 1_555 1_555
C6 C3 1_555 1_555
C7 C6 1_555 1_555
H5 C7 1_555 1_555
C8 C6 1_555 1_555
H6 C8 1_555 1_555
C9 C8 1_555 1_555
H7 C9 1_555 1_555
C10 N4 1_555 1_555
H8 C10 1_555 1_555
C11 N5 1_555 1_555
H9 C11 1_555 1_555
C12 C11 1_555 1_555
H10 C12 1_555 1_555
C13 C12 1_555 1_555
C14 C13 1_555 1_555
H11 C14 1_555 1_555
C15 N5 1_555 1_555
H12 C15 1_555 1_555
C16 H13 1_555 1_555
C17 C16 1_555 1_555
H14 C17 1_555 1_555
C18 C13 1_555 1_555
C19 C18 1_555 1_555
H15 C19 1_555 1_555
C20 N6 1_555 1_555
H16 C20 1_555 1_555
C21 C22 1_555 1_555
C22 H17 1_555 1_555
C23 C22 1_555 1_555
H18 C23 1_555 1_555
C24 C23 1_555 1_555
H19 C24 1_555 1_555
C25 C24 1_555 1_555
H20 C25 1_555 1_555
C26 C21 1_555 1_555
H21 C26 1_555 1_555
C27 O7 1_555 1_555
H22 C27 1_555 1_555
H23 C27 1_555 1_555
H24 C27 1_555 1_555
C28 C29 1_555 1_555
C29 H25 1_555 1_555
C30 C29 1_555 1_555
H26 C30 1_555 1_555
C31 C30 1_555 1_555
H27 C31 1_555 1_555
C32 C31 1_555 1_555
H28 C32 1_555 1_555
C33 C28 1_555 1_555
H29 C33 1_555 1_555
C34 O8 1_555 1_555
H30 C34 1_555 1_555
H31 C34 1_555 1_555
H32 C34 1_555 1_555
C35 C36 1_555 1_555
C36 H33 1_555 1_555
C37 C36 1_555 1_555
H34 C37 1_555 1_555
C38 C37 1_555 1_555
H35 C38 1_555 1_555
C39 C38 1_555 1_555
H36 C39 1_555 1_555
C40 C35 1_555 1_555
H37 C40 1_555 1_555
C41 O9 1_555 1_555
H38 C41 1_555 1_555
H39 C41 1_555 1_555
H40 C41 1_555 1_555
N4_2 Co1 1_555 1_555
N6B Co1 1_555 1_555
Co1_2 N4 1_555 1_555
Co1B N6 1_555 1_555
C4 C5 1_555 1_555
C7 C10 1_555 1_555
C14 C15 1_555 1_555
C17 C18 1_555 1_555
C19 C20 1_555 1_555
C25 C26 1_555 1_555
C32 C33 1_555 1_555
C39 C40 1_555 1_555

#END
