
#######################################################################
#
#                 Cambridge Crystallographic Data Centre
#                                CCDC 
#
#######################################################################
#
# If this CIF has been generated from an entry in the Cambridge 
# Structural Database, then it will include bibliographic, chemical, 
# crystal, experimental, refinement or atomic coordinate data resulting 
# from the CCDC's data processing and validation procedures.
#
#######################################################################

data_METYUF
_symmetry_cell_setting           monoclinic
_symmetry_space_group_name_H-M   'P 2/n'
_symmetry_Int_Tables_number      13
_space_group_name_Hall           '-P 2yac'
loop_
_symmetry_equiv_pos_site_id
_symmetry_equiv_pos_as_xyz
1 x,y,z
2 1/2+x,-y,1/2+z
3 -x,-y,-z
4 1/2-x,y,1/2-z
_cell_length_a                   13.914(7)
_cell_length_b                   7.834(4)
_cell_length_c                   14.805(11)
_cell_angle_alpha                90
_cell_angle_beta                 96.61(5)
_cell_angle_gamma                90
_cell_volume                     1603.05
loop_
_atom_site_label
_atom_site_type_symbol
_atom_site_fract_x
_atom_site_fract_y
_atom_site_fract_z
Cu1 Cu 0.5000 0.5000 0.0000
O1 O 0.3621(2) 0.5502(4) -0.0162(2)
S1 S 0.31623(8) 0.67646(16) -0.08596(8)
C1 C 0.2037(3) 0.5781(7) -0.1265(3)
H1 H 0.1653 0.6593 -0.1648
H2 H 0.2167 0.4817 -0.1644
C2 C 0.3122(3) 1.1089(6) 0.0673(3)
H3 H 0.2777 1.0631 0.1153
H4 H 0.2653 1.1673 0.0245
C3 C 0.3540(3) 0.9616(6) 0.0187(3)
H5 H 0.3889 1.0044 -0.0296
H6 H 0.3990 0.8981 0.0610
C4 C 0.1438(4) 0.5160(8) -0.0537(4)
H7 H 0.1849 0.4536 -0.0077
H8 H 0.1171 0.6133 -0.0246
C5 C 0.0631(5) 0.4026(10) -0.0935(5)
H9 H 0.0180 0.4681 -0.1334
H10 H 0.0307 0.3550 -0.0455
H11 H 0.0890 0.3121 -0.1271
S2 S 0.39780(8) 1.26151(16) 0.11604(8)
O2 O 0.4714(2) 1.2757(4) 0.0471(2)
C6 C 0.4612(5) 1.0522(11) 0.3681(4)
H12 H 0.4693 0.9326 0.3571
H13 H 0.4270 1.0670 0.4204
H14 H 0.5235 1.1057 0.3791
C7 C 0.4047(5) 1.1321(9) 0.2870(4)
H15 H 0.3465 1.0659 0.2704
H16 H 0.3853 1.2462 0.3029
C8 C 0.4607(4) 1.1425(7) 0.2075(3)
H17 H 0.4730 1.0281 0.1866
H18 H 0.5227 1.1963 0.2260
C9 C 0.2731(3) 0.8465(6) -0.0203(3)
H19 H 0.2258 0.9131 -0.0586
H20 H 0.2412 0.7986 0.0288
O3 O 0.5079(3) 0.6090(6) 0.1556(3)
H21 H 0.553(3) 0.676(6) 0.170(3)
H22 H 0.458(4) 0.653(8) 0.172(4)
O1B O 0.6379(2) 0.4498(4) 0.0162(2)
S1B S 0.68377(8) 0.32354(16) 0.08596(8)
C1B C 0.7963(3) 0.4219(7) 0.1265(3)
H1B H 0.8347 0.3407 0.1648
H2B H 0.7833 0.5183 0.1644
C2B C 0.6878(3) -0.1089(6) -0.0673(3)
H3B H 0.7223 -0.0631 -0.1153
H4B H 0.7347 -0.1673 -0.0245
C3B C 0.6460(3) 0.0384(6) -0.0187(3)
H5B H 0.6111 -0.0044 0.0296
H6B H 0.6010 0.1019 -0.0610
C4B C 0.8562(4) 0.4840(8) 0.0537(4)
H7B H 0.8151 0.5464 0.0077
H8B H 0.8829 0.3867 0.0246
C5B C 0.9369(5) 0.5974(10) 0.0935(5)
H9B H 0.9820 0.5319 0.1334
H10B H 0.9693 0.6450 0.0455
H11B H 0.9110 0.6879 0.1271
S2B S 0.60220(8) -0.26151(16) -0.11604(8)
O2B O 0.5286(2) -0.2757(4) -0.0471(2)
C6B C 0.5388(5) -0.0522(11) -0.3681(4)
H12B H 0.5307 0.0674 -0.3571
H13B H 0.5730 -0.0670 -0.4204
H14B H 0.4765 -0.1057 -0.3791
C7B C 0.5953(5) -0.1321(9) -0.2870(4)
H15B H 0.6535 -0.0659 -0.2704
H16B H 0.6147 -0.2462 -0.3029
C8B C 0.5393(4) -0.1425(7) -0.2075(3)
H17B H 0.5270 -0.0281 -0.1866
H18B H 0.4773 -0.1963 -0.2260
C9B C 0.7269(3) 0.1535(6) 0.0203(3)
H19B H 0.7742 0.0869 0.0586
H20B H 0.7588 0.2014 -0.0288
O3B O 0.4921(3) 0.3910(6) -0.1556(3)
H21B H 0.447(3) 0.324(6) -0.170(3)
H22B H 0.542(4) 0.347(8) -0.172(4)
O2_2 O 0.4714(2) 0.2757(4) 0.0471(2)
O2B_2 O 0.5286(2) 0.7243(4) -0.0471(2)
Cu1_2 Cu 0.5000 1.5000 0.0000
Cu1_3 Cu 0.5000 -0.5000 0.0000
Cl1 Cl 0.7500 0.8976(19) 0.2500
O4 O 0.6689(16) 0.940(6) 0.297(2)
O5 O 0.810(3) 0.783(5) 0.301(4)
O4C O 0.8311(16) 0.940(6) 0.203(2)
O5C O 0.690(3) 0.783(5) 0.199(4)
Cl3 Cl 0.2500 0.634(3) 0.2500
O13 O 0.197(3) 0.563(6) 0.174(2)
O14 O 0.322(3) 0.734(6) 0.228(3)
O13C O 0.303(3) 0.563(6) 0.326(2)
O14C O 0.178(3) 0.734(6) 0.272(3)
O6? O 0.795(2) 1.047(3) 0.232(2)
O7? O 0.711(4) 0.815(7) 0.169(3)
Cl2? Cl 0.752(3) 0.897(4) 0.259(3)
O8? O 0.7500 1.075(3) 0.2500
O9? O 0.721(4) 0.852(5) 0.342(2)
O10? O 0.846(2) 0.843(6) 0.255(4)
O11? O 0.693(4) 0.826(7) 0.187(3)
O12? O 0.191(3) 0.724(6) 0.300(3)
O15? O 0.287(3) 0.499(6) 0.306(3)
Cl4? Cl 0.2637(18) 0.670(4) 0.2467(16)
O16? O 0.168(2) 0.642(6) 0.205(5)
O17? O 0.317(4) 0.741(5) 0.183(4)
O18? O 0.259(6) 0.776(5) 0.321(2)
O19? O 0.303(5) 0.514(6) 0.278(5)
loop_
_geom_bond_atom_site_label_1
_geom_bond_atom_site_label_2
_geom_bond_site_symmetry_1
_geom_bond_site_symmetry_2
Cu1 O1 1_555 1_555
O1 S1 1_555 1_555
S1 C1 1_555 1_555
C1 H1 1_555 1_555
H2 C1 1_555 1_555
C2 H3 1_555 1_555
H4 C2 1_555 1_555
C3 C2 1_555 1_555
H5 C3 1_555 1_555
H6 C3 1_555 1_555
C4 C1 1_555 1_555
H7 C4 1_555 1_555
H8 C4 1_555 1_555
C5 C4 1_555 1_555
H9 C5 1_555 1_555
H10 C5 1_555 1_555
H11 C5 1_555 1_555
S2 C2 1_555 1_555
O2 S2 1_555 1_555
C6 H12 1_555 1_555
H13 C6 1_555 1_555
H14 C6 1_555 1_555
C7 C6 1_555 1_555
H15 C7 1_555 1_555
H16 C7 1_555 1_555
C8 S2 1_555 1_555
H17 C8 1_555 1_555
H18 C8 1_555 1_555
C9 S1 1_555 1_555
H19 C9 1_555 1_555
H20 C9 1_555 1_555
O3 Cu1 1_555 1_555
H21 O3 1_555 1_555
H22 O3 1_555 1_555
Cl1 O4 1_555 1_555
O5 Cl1 1_555 1_555
Cl3 O13 1_555 1_555
O14 Cl3 1_555 1_555
O4C Cl1 1_555 1_555
O5C Cl1 1_555 1_555
O13C Cl3 1_555 1_555
O14C Cl3 1_555 1_555
O1B Cu1 1_555 1_555
S1B O1B 1_555 1_555
C1B S1B 1_555 1_555
H1B C1B 1_555 1_555
H2B C1B 1_555 1_555
C2B H3B 1_555 1_555
H4B C2B 1_555 1_555
C3B C2B 1_555 1_555
H5B C3B 1_555 1_555
H6B C3B 1_555 1_555
C4B C1B 1_555 1_555
H7B C4B 1_555 1_555
H8B C4B 1_555 1_555
C5B C4B 1_555 1_555
H9B C5B 1_555 1_555
H10B C5B 1_555 1_555
H11B C5B 1_555 1_555
S2B C2B 1_555 1_555
O2B S2B 1_555 1_555
C6B H12B 1_555 1_555
H13B C6B 1_555 1_555
H14B C6B 1_555 1_555
C7B C6B 1_555 1_555
H15B C7B 1_555 1_555
H16B C7B 1_555 1_555
C8B S2B 1_555 1_555
H17B C8B 1_555 1_555
H18B C8B 1_555 1_555
C9B S1B 1_555 1_555
H19B C9B 1_555 1_555
H20B C9B 1_555 1_555
O3B Cu1 1_555 1_555
H21B O3B 1_555 1_555
H22B O3B 1_555 1_555
O2_2 Cu1 1_555 1_555
O2B_2 Cu1 1_555 1_555
Cu1_2 O2 1_555 1_555
Cu1_3 O2B 1_555 1_555
C3 C9 1_555 1_555
C7 C8 1_555 1_555
C3B C9B 1_555 1_555
C7B C8B 1_555 1_555

#END
