
#######################################################################
#
#                 Cambridge Crystallographic Data Centre
#                                CCDC 
#
#######################################################################
#
# If this CIF has been generated from an entry in the Cambridge 
# Structural Database, then it will include bibliographic, chemical, 
# crystal, experimental, refinement or atomic coordinate data resulting 
# from the CCDC's data processing and validation procedures.
#
#######################################################################

data_MEVBUK
_symmetry_cell_setting           triclinic
_symmetry_space_group_name_H-M   'P -1'
_symmetry_Int_Tables_number      2
_space_group_name_Hall           '-P 1'
loop_
_symmetry_equiv_pos_site_id
_symmetry_equiv_pos_as_xyz
1 x,y,z
2 -x,-y,-z
_cell_length_a                   10.436(2)
_cell_length_b                   17.713(4)
_cell_length_c                   17.830(4)
_cell_angle_alpha                98.296(4)
_cell_angle_beta                 106.424(4)
_cell_angle_gamma                101.979(4)
_cell_volume                     3019.37
loop_
_atom_site_label
_atom_site_type_symbol
_atom_site_fract_x
_atom_site_fract_y
_atom_site_fract_z
Cu1 Cu -0.09004(7) -0.18630(4) -0.27348(4)
P1 P 0.13456(14) -0.11561(9) -0.22411(8)
N1 N -0.0773(5) -0.2812(3) -0.3528(2)
C1 C -0.0556(6) -0.2718(3) -0.4226(3)
H1 H -0.0574 -0.2226 -0.4378
P2 P -0.22621(14) -0.21513(8) -0.19724(8)
N2 N 0.1983(5) -0.8690(3) -0.6430(2)
C2 C -0.0311(6) -0.3297(3) -0.4728(3)
H2 H -0.0174 -0.3203 -0.5214
C3 C -0.0265(6) -0.4019(4) -0.4523(3)
C4 C -0.0466(7) -0.4115(4) -0.3798(4)
H3 H -0.0433 -0.4597 -0.3628
C5 C -0.0712(7) -0.3510(3) -0.3331(3)
H4 H -0.0846 -0.3590 -0.2840
C6 C -0.0010(7) -0.4640(4) -0.5058(4)
H5 H 0.0155 -0.4514 -0.5528
C7 C 0.3004(6) -0.8249(3) -0.5767(3)
H6 H 0.3105 -0.7695 -0.5649
C8 C 0.3904(6) -0.8552(3) -0.5254(3)
H7 H 0.4582 -0.8212 -0.4786
C9 C 0.3834(6) -0.9355(3) -0.5413(3)
C10 C 0.2768(6) -0.9815(3) -0.6098(3)
H8 H 0.2660 -1.0368 -0.6240
C11 C 0.1883(6) -0.9468(3) -0.6561(3)
H9 H 0.1146 -0.9801 -0.7007
C12 C 0.4843(6) -0.9668(4) -0.4893(3)
H10 H 0.4690 -1.0628 -0.5639
C13 C 0.1668(6) -0.0100(3) -0.1855(3)
C14 C 0.0717(6) 0.0134(3) -0.1535(3)
H11 H -0.0047 -0.0252 -0.1515
C15 C 0.0869(7) 0.0930(4) -0.1240(4)
H12 H 0.0202 0.1084 -0.1027
C16 C 0.1978(7) 0.1494(4) -0.1258(4)
H13 H 0.2086 0.2036 -0.1048
C17 C 0.2948(7) 0.1271(4) -0.1584(4)
H14 H 0.3712 0.1658 -0.1604
C18 C 0.2777(6) 0.0474(4) -0.1879(3)
H15 H 0.3432 0.0318 -0.2101
C19 C 0.2069(6) -0.1218(3) -0.3066(3)
C20 C 0.1709(7) -0.0786(4) -0.3652(4)
H16 H 0.1230 -0.0395 -0.3576
C21 C 0.2055(8) -0.0931(4) -0.4349(4)
H17 H 0.1806 -0.0640 -0.4751
C22 C 0.2750(8) -0.1491(5) -0.4458(4)
H18 H 0.2976 -0.1591 -0.4936
C23 C 0.3121(7) -0.1909(4) -0.3877(4)
H19 H 0.3615 -0.2292 -0.3952
C24 C 0.2783(6) -0.1777(4) -0.3186(3)
H20 H 0.3041 -0.2071 -0.2789
C25 C 0.2510(5) -0.1495(3) -0.1472(3)
C26 C 0.3745(6) -0.1004(4) -0.0924(3)
H21 H 0.4024 -0.0466 -0.0952
C27 C 0.4562(7) -0.1294(4) -0.0344(3)
H22 H 0.5389 -0.0951 0.0033
C28 C 0.4189(7) -0.2075(4) -0.0307(3)
H23 H 0.4766 -0.2270 0.0092
C29 C 0.2986(7) -0.2575(4) -0.0843(4)
H24 H 0.2734 -0.3116 -0.0820
C30 C 0.2136(6) -0.2282(4) -0.1424(3)
H25 H 0.1296 -0.2624 -0.1790
C31 C -0.1497(6) -0.2475(3) -0.1054(3)
C32 C -0.0153(6) -0.2052(4) -0.0578(3)
H26 H 0.0314 -0.1610 -0.0729
C33 C 0.0501(7) -0.2273(4) 0.0112(3)
H27 H 0.1407 -0.1975 0.0436
C34 C -0.0155(7) -0.2928(4) 0.0334(4)
H28 H 0.0300 -0.3087 0.0803
C35 C -0.1468(8) -0.3339(4) -0.0134(4)
H29 H -0.1923 -0.3782 0.0022
C36 C -0.2156(7) -0.3137(4) -0.0825(4)
H30 H -0.3063 -0.3440 -0.1142
C37 C -0.3932(5) -0.2881(3) -0.2457(3)
C38 C -0.4130(6) -0.3391(3) -0.3175(3)
H31 H -0.3419 -0.3343 -0.3414
C39 C -0.5355(7) -0.3962(4) -0.3537(4)
H32 H -0.5478 -0.4316 -0.4022
C40 C -0.6408(7) -0.4031(4) -0.3210(4)
H33 H -0.7250 -0.4430 -0.3467
C41 C -0.6237(7) -0.3519(4) -0.2510(4)
H34 H -0.6963 -0.3563 -0.2283
C42 C -0.5008(6) -0.2943(4) -0.2137(4)
H35 H -0.4898 -0.2585 -0.1658
C43 C -0.2743(6) -0.1261(3) -0.1625(3)
C44 C -0.2212(6) -0.0819(3) -0.0842(3)
H36 H -0.1657 -0.1014 -0.0433
C45 C -0.2491(7) -0.0098(4) -0.0660(4)
H37 H -0.2120 0.0203 -0.0125
C46 C -0.3302(7) 0.0191(4) -0.1247(4)
H38 H -0.3473 0.0692 -0.1119
C47 C -0.3857(6) -0.0250(4) -0.2014(4)
H39 H -0.4435 -0.0058 -0.2415
C48 C -0.3590(6) -0.0970(3) -0.2212(3)
H40 H -0.3980 -0.1269 -0.2748
C6A C 0.0010(7) -0.5360(4) -0.4942(4)
C3A C 0.0265(6) -0.5981(4) -0.5477(3)
C2A C 0.0311(6) -0.6703(3) -0.5272(3)
C1A C 0.0556(6) -0.7282(3) -0.5774(3)
N1A N 0.0773(5) -0.7188(3) -0.6472(2)
Cu1A Cu 0.09004(7) -0.81370(4) -0.72652(4)
P1A P -0.13456(14) -0.88439(9) -0.77589(8)
C13A C -0.1668(6) -0.9900(3) -0.8145(3)
C14A C -0.0717(6) -1.0134(3) -0.8465(3)
H11A H 0.0047 -0.9748 -0.8485
C15A C -0.0869(7) -1.0930(4) -0.8760(4)
H12A H -0.0202 -1.1084 -0.8973
C16A C -0.1978(7) -1.1494(4) -0.8742(4)
H13A H -0.2086 -1.2036 -0.8952
C17A C -0.2948(7) -1.1271(4) -0.8416(4)
H14A H -0.3712 -1.1658 -0.8396
C18A C -0.2777(6) -1.0474(4) -0.8121(3)
H15A H -0.3432 -1.0318 -0.7899
C19A C -0.2069(6) -0.8782(3) -0.6934(3)
C20A C -0.1709(7) -0.9214(4) -0.6348(4)
H16A H -0.1230 -0.9605 -0.6424
C21A C -0.2055(8) -0.9069(4) -0.5651(4)
H17A H -0.1806 -0.9360 -0.5249
C22A C -0.2750(8) -0.8509(5) -0.5542(4)
H18A H -0.2976 -0.8409 -0.5064
C23A C -0.3121(7) -0.8091(4) -0.6123(4)
H19A H -0.3615 -0.7708 -0.6048
C24A C -0.2783(6) -0.8223(4) -0.6814(3)
H20A H -0.3041 -0.7929 -0.7211
C25A C -0.2510(5) -0.8505(3) -0.8528(3)
C26A C -0.3745(6) -0.8996(4) -0.9076(3)
H21A H -0.4024 -0.9534 -0.9048
C27A C -0.4562(7) -0.8706(4) -0.9656(3)
H22A H -0.5389 -0.9049 -1.0033
C28A C -0.4189(7) -0.7925(4) -0.9693(3)
H23A H -0.4766 -0.7730 -1.0092
C29A C -0.2986(7) -0.7425(4) -0.9157(4)
H24A H -0.2734 -0.6884 -0.9180
C30A C -0.2136(6) -0.7718(4) -0.8576(3)
H25A H -0.1296 -0.7376 -0.8210
P2A P 0.22621(14) -0.78487(8) -0.80276(8)
C31A C 0.1497(6) -0.7525(3) -0.8946(3)
C32A C 0.0153(6) -0.7948(4) -0.9422(3)
H26A H -0.0314 -0.8390 -0.9271
C33A C -0.0501(7) -0.7727(4) -1.0112(3)
H27A H -0.1407 -0.8025 -1.0436
C34A C 0.0155(7) -0.7072(4) -1.0334(4)
H28A H -0.0300 -0.6913 -1.0803
C35A C 0.1468(8) -0.6661(4) -0.9866(4)
H29A H 0.1923 -0.6218 -1.0022
C36A C 0.2156(7) -0.6863(4) -0.9175(4)
H30A H 0.3063 -0.6560 -0.8858
C37A C 0.3932(5) -0.7119(3) -0.7543(3)
C38A C 0.4130(6) -0.6609(3) -0.6825(3)
H31A H 0.3419 -0.6657 -0.6586
C39A C 0.5355(7) -0.6038(4) -0.6463(4)
H32A H 0.5478 -0.5684 -0.5978
C40A C 0.6408(7) -0.5969(4) -0.6790(4)
H33A H 0.7250 -0.5570 -0.6533
C41A C 0.6237(7) -0.6481(4) -0.7490(4)
H34A H 0.6963 -0.6437 -0.7717
C42A C 0.5008(6) -0.7057(4) -0.7863(4)
H35A H 0.4898 -0.7415 -0.8342
C43A C 0.2743(6) -0.8739(3) -0.8375(3)
C44A C 0.2212(6) -0.9181(3) -0.9158(3)
H36A H 0.1657 -0.8986 -0.9567
C45A C 0.2491(7) -0.9902(4) -0.9340(4)
H37A H 0.2120 -1.0203 -0.9875
C46A C 0.3302(7) -1.0191(4) -0.8753(4)
H38A H 0.3473 -1.0692 -0.8881
C47A C 0.3857(6) -0.9750(4) -0.7986(4)
H39A H 0.4435 -0.9942 -0.7585
C48A C 0.3590(6) -0.9030(3) -0.7788(3)
H40A H 0.3980 -0.8731 -0.7252
N2A N -0.1983(5) -0.1310(3) -0.3570(2)
C12A C 0.5157(6) -1.0332(4) -0.5107(3)
C9A C 0.6166(6) -1.0645(3) -0.4587(3)
C8A C 0.6096(6) -1.1448(3) -0.4746(3)
C7A C 0.6996(6) -1.1751(3) -0.4233(3)
N2A_2 N 0.8017(5) -1.1310(3) -0.3570(2)
Cu1_2 Cu 0.90996(7) -1.18630(4) -0.27348(4)
C11A C 0.8117(6) -1.0532(3) -0.3439(3)
C10A C 0.7232(6) -1.0185(3) -0.3902(3)
H8A H 0.7340 -0.9632 -0.3760
H9A H 0.8854 -1.0199 -0.2993
H6A H 0.6895 -1.2305 -0.4351
H7A H 0.5418 -1.1788 -0.5214
H10A H 0.5310 -0.9372 -0.4361
C5A C 0.0712(7) -0.6490(3) -0.6669(3)
C4A C 0.0466(7) -0.5885(4) -0.6202(4)
H3A H 0.0433 -0.5403 -0.6372
H4A H 0.0846 -0.6410 -0.7160
H1A H 0.0574 -0.7774 -0.5622
H2A H 0.0174 -0.6797 -0.4786
H5A H -0.0155 -0.5486 -0.4472
Cl1 Cl 0.1549(6) 0.1467(5) -0.4062(3)
Cl2 Cl 0.0058(5) 0.2000(4) -0.3137(3)
Cl3 Cl 0.2278(5) 0.3071(4) -0.3315(4)
C53 C 0.1625(14) 0.2116(10) -0.3232(7)
H49 H 0.2261 0.2008 -0.2748
F1 F -0.3609(6) 0.2047(3) -0.3400(3)
F2 F -0.3711(6) 0.2115(4) -0.1634(3)
P3 P -0.3651(2) 0.20818(11) -0.25181(11)
F3 F -0.4809(6) 0.2547(3) -0.2681(4)
F4 F -0.2522(6) 0.2888(3) -0.2243(3)
F5 F -0.4804(6) 0.1268(3) -0.2802(3)
F6 F -0.2487(6) 0.1635(4) -0.2331(4)
O1 O -0.0170(12) 0.4676(6) -0.1266(6)
C49 C -0.0025(9) 0.5509(5) -0.1457(6)
H41 H -0.0951 0.5594 -0.1689
H42 H 0.0482 0.5920 -0.0961
C50 C 0.0692(7) 0.5553(4) -0.1996(4)
H43 H 0.0110 0.5658 -0.2493
H44 H 0.1536 0.5998 -0.1768
C51 C 0.1059(13) 0.4866(7) -0.2176(8)
H45 H 0.2068 0.4986 -0.2084
H46 H 0.0574 0.4610 -0.2748
C52 C 0.0704(15) 0.4350(7) -0.1692(8)
H47 H 0.1552 0.4302 -0.1298
H48 H 0.0187 0.3818 -0.2027
Cl4 Cl -0.3077(3) 0.35010(18) -0.44606(16)
Cl5 Cl -0.5668(3) 0.38514(15) -0.45180(15)
Cl6 Cl -0.3233(3) 0.46226(17) -0.31756(17)
C54 C -0.4104(10) 0.3764(5) -0.3887(5)
H50 H -0.4321 0.3330 -0.3604
Cl7 Cl -0.5963(3) 0.35601(17) -0.0940(3)
Cl8 Cl -0.4909(4) 0.4842(2) -0.1575(2)
Cl9 Cl -0.3093(4) 0.4265(2) -0.0424(2)
C55 C -0.4623(9) 0.4008(5) -0.1221(5)
H51 H -0.4530 0.3626 -0.1661
loop_
_geom_bond_atom_site_label_1
_geom_bond_atom_site_label_2
_geom_bond_site_symmetry_1
_geom_bond_site_symmetry_2
Cu1 P1 1_555 1_555
Cl1 C53 1_555 1_555
P1 C13 1_555 1_555
F1 P3 1_555 1_555
O1 C49 1_555 1_555
N1 Cu1 1_555 1_555
C1 N1 1_555 1_555
H1 C1 1_555 1_555
Cl2 C53 1_555 1_555
P2 Cu1 1_555 1_555
F2 P3 1_555 1_555
N2 C7 1_555 1_555
C2 C1 1_555 1_555
H2 C2 1_555 1_555
Cl3 C53 1_555 1_555
P3 F3 1_555 1_555
C3 C2 1_555 1_555
Cl4 C54 1_555 1_555
F4 P3 1_555 1_555
C4 C3 1_555 1_555
H3 C4 1_555 1_555
Cl5 C54 1_555 1_555
F5 P3 1_555 1_555
C5 N1 1_555 1_555
H4 C5 1_555 1_555
Cl6 C54 1_555 1_555
F6 P3 1_555 1_555
C6 C3 1_555 1_555
H5 C6 1_555 1_555
Cl7 C55 1_555 1_555
C7 H6 1_555 1_555
Cl8 C55 1_555 1_555
C8 C7 1_555 1_555
H7 C8 1_555 1_555
Cl9 C55 1_555 1_555
C9 C8 1_555 1_555
C10 C9 1_555 1_555
H8 C10 1_555 1_555
C11 N2 1_555 1_555
H9 C11 1_555 1_555
C12 C9 1_555 1_555
H10 C12A 1_555 1_555
C13 C14 1_555 1_555
C14 H11 1_555 1_555
C15 C14 1_555 1_555
H12 C15 1_555 1_555
C16 C15 1_555 1_555
H13 C16 1_555 1_555
C17 C16 1_555 1_555
H14 C17 1_555 1_555
C18 C13 1_555 1_555
H15 C18 1_555 1_555
C19 P1 1_555 1_555
C20 C19 1_555 1_555
H16 C20 1_555 1_555
C21 C20 1_555 1_555
H17 C21 1_555 1_555
C22 C21 1_555 1_555
H18 C22 1_555 1_555
C23 C22 1_555 1_555
H19 C23 1_555 1_555
C24 C19 1_555 1_555
H20 C24 1_555 1_555
C25 P1 1_555 1_555
C26 C25 1_555 1_555
H21 C26 1_555 1_555
C27 C26 1_555 1_555
H22 C27 1_555 1_555
C28 C27 1_555 1_555
H23 C28 1_555 1_555
C29 C28 1_555 1_555
H24 C29 1_555 1_555
C30 C25 1_555 1_555
H25 C30 1_555 1_555
C31 P2 1_555 1_555
C32 C31 1_555 1_555
H26 C32 1_555 1_555
C33 C32 1_555 1_555
H27 C33 1_555 1_555
C34 C33 1_555 1_555
H28 C34 1_555 1_555
C35 C34 1_555 1_555
H29 C35 1_555 1_555
C36 C31 1_555 1_555
H30 C36 1_555 1_555
C37 P2 1_555 1_555
C38 C37 1_555 1_555
H31 C38 1_555 1_555
C39 C38 1_555 1_555
H32 C39 1_555 1_555
C40 C39 1_555 1_555
H33 C40 1_555 1_555
C41 C40 1_555 1_555
H34 C41 1_555 1_555
C42 C37 1_555 1_555
H35 C42 1_555 1_555
C43 P2 1_555 1_555
C44 C43 1_555 1_555
H36 C44 1_555 1_555
C45 C44 1_555 1_555
H37 C45 1_555 1_555
C46 C45 1_555 1_555
H38 C46 1_555 1_555
C47 C46 1_555 1_555
H39 C47 1_555 1_555
C48 C43 1_555 1_555
H40 C48 1_555 1_555
C49 H41 1_555 1_555
H42 C49 1_555 1_555
C50 C49 1_555 1_555
H43 C50 1_555 1_555
H44 C50 1_555 1_555
C51 C50 1_555 1_555
H45 C51 1_555 1_555
H46 C51 1_555 1_555
C52 O1 1_555 1_555
H47 C52 1_555 1_555
H48 C52 1_555 1_555
C53 H49 1_555 1_555
C54 H50 1_555 1_555
C55 H51 1_555 1_555
C6A C6 1_555 1_555
C3A C6A 1_555 1_555
C2A C3A 1_555 1_555
C1A C2A 1_555 1_555
N1A C1A 1_555 1_555
Cu1A N2 1_555 1_555
P1A Cu1A 1_555 1_555
C13A P1A 1_555 1_555
C14A C13A 1_555 1_555
H11A C14A 1_555 1_555
C15A C14A 1_555 1_555
H12A C15A 1_555 1_555
C16A C15A 1_555 1_555
H13A C16A 1_555 1_555
C17A C16A 1_555 1_555
H14A C17A 1_555 1_555
C18A C13A 1_555 1_555
H15A C18A 1_555 1_555
C19A P1A 1_555 1_555
C20A C19A 1_555 1_555
H16A C20A 1_555 1_555
C21A C20A 1_555 1_555
H17A C21A 1_555 1_555
C22A C21A 1_555 1_555
H18A C22A 1_555 1_555
C23A C22A 1_555 1_555
H19A C23A 1_555 1_555
C24A C19A 1_555 1_555
H20A C24A 1_555 1_555
C25A P1A 1_555 1_555
C26A C25A 1_555 1_555
H21A C26A 1_555 1_555
C27A C26A 1_555 1_555
H22A C27A 1_555 1_555
C28A C27A 1_555 1_555
H23A C28A 1_555 1_555
C29A C28A 1_555 1_555
H24A C29A 1_555 1_555
C30A C25A 1_555 1_555
H25A C30A 1_555 1_555
P2A Cu1A 1_555 1_555
C31A P2A 1_555 1_555
C32A C31A 1_555 1_555
H26A C32A 1_555 1_555
C33A C32A 1_555 1_555
H27A C33A 1_555 1_555
C34A C33A 1_555 1_555
H28A C34A 1_555 1_555
C35A C34A 1_555 1_555
H29A C35A 1_555 1_555
C36A C31A 1_555 1_555
H30A C36A 1_555 1_555
C37A P2A 1_555 1_555
C38A C37A 1_555 1_555
H31A C38A 1_555 1_555
C39A C38A 1_555 1_555
H32A C39A 1_555 1_555
C40A C39A 1_555 1_555
H33A C40A 1_555 1_555
C41A C40A 1_555 1_555
H34A C41A 1_555 1_555
C42A C37A 1_555 1_555
H35A C42A 1_555 1_555
C43A P2A 1_555 1_555
C44A C43A 1_555 1_555
H36A C44A 1_555 1_555
C45A C44A 1_555 1_555
H37A C45A 1_555 1_555
C46A C45A 1_555 1_555
H38A C46A 1_555 1_555
C47A C46A 1_555 1_555
H39A C47A 1_555 1_555
C48A C43A 1_555 1_555
H40A C48A 1_555 1_555
N2A Cu1 1_555 1_555
C12A C12 1_555 1_555
C9A C12A 1_555 1_555
C8A C9A 1_555 1_555
C7A C8A 1_555 1_555
N2A_2 C7A 1_555 1_555
Cu1_2 N2A_2 1_555 1_555
C11A N2A_2 1_555 1_555
C10A C9A 1_555 1_555
H8A C10A 1_555 1_555
H9A C11A 1_555 1_555
H6A C7A 1_555 1_555
H7A C8A 1_555 1_555
H10A C12 1_555 1_555
C5A N1A 1_555 1_555
C4A C3A 1_555 1_555
H3A C4A 1_555 1_555
H4A C5A 1_555 1_555
H1A C1A 1_555 1_555
H2A C2A 1_555 1_555
H5A C6A 1_555 1_555
C4 C5 1_555 1_555
C10 C11 1_555 1_555
C17 C18 1_555 1_555
C23 C24 1_555 1_555
C29 C30 1_555 1_555
C35 C36 1_555 1_555
C41 C42 1_555 1_555
C47 C48 1_555 1_555
C51 C52 1_555 1_555
N1A Cu1A 1_555 1_555
C17A C18A 1_555 1_555
C23A C24A 1_555 1_555
C29A C30A 1_555 1_555
C35A C36A 1_555 1_555
C41A C42A 1_555 1_555
C47A C48A 1_555 1_555
C11A C10A 1_555 1_555
C5A C4A 1_555 1_555

#END
