
#######################################################################
#
#                 Cambridge Crystallographic Data Centre
#                                CCDC 
#
#######################################################################
#
# If this CIF has been generated from an entry in the Cambridge 
# Structural Database, then it will include bibliographic, chemical, 
# crystal, experimental, refinement or atomic coordinate data resulting 
# from the CCDC's data processing and validation procedures.
#
#######################################################################

data_MEVLOO01
_symmetry_cell_setting           triclinic
_symmetry_space_group_name_H-M   'P -1'
_symmetry_Int_Tables_number      2
_space_group_name_Hall           '-P 1'
loop_
_symmetry_equiv_pos_site_id
_symmetry_equiv_pos_as_xyz
1 x,y,z
2 -x,-y,-z
_cell_length_a                   7.3268(5)
_cell_length_b                   12.9665(13)
_cell_length_c                   15.8120(10)
_cell_angle_alpha                87.411(5)
_cell_angle_beta                 80.682(5)
_cell_angle_gamma                89.981(6)
_cell_volume                     1480.81
loop_
_atom_site_label
_atom_site_type_symbol
_atom_site_fract_x
_atom_site_fract_y
_atom_site_fract_z
Cd1 Cd 0.10056(8) 0.59025(5) 0.22427(3)
O1 O -0.1562(7) 0.5231(4) 0.3040(3)
O2 O -0.3455(7) 0.6592(4) 0.3050(3)
O3 O -0.6819(7) 0.5233(4) 0.2965(3)
O4 O -0.8405(8) 0.6310(4) 0.3843(3)
O5 O -0.0279(7) 0.7491(4) 0.2216(4)
N1 N 0.2452(8) 0.6344(5) 0.0832(4)
N2 N 0.0909(8) 0.4459(5) 0.1415(4)
C1 C 0.3173(11) 0.7258(6) 0.0544(5)
H1 H 0.3109 0.7810 0.0951
C2 C 0.4011(12) 0.7480(7) -0.0295(6)
H2 H 0.4501 0.8171 -0.0478
C3 C 0.4132(11) 0.6711(8) -0.0854(5)
H3 H 0.4735 0.6851 -0.1448
C4 C 0.3417(11) 0.5723(7) -0.0603(5)
C5 C 0.3489(11) 0.4868(8) -0.1153(5)
H4 H 0.4089 0.4958 -0.1752
C6 C 0.2752(12) 0.3953(7) -0.0862(5)
H5 H 0.2822 0.3390 -0.1260
C7 C 0.1858(11) 0.3758(6) 0.0012(5)
C8 C 0.1047(12) 0.2800(7) 0.0342(6)
H6 H 0.1086 0.2212 -0.0028
C9 C 0.0213(12) 0.2701(7) 0.1179(6)
H7 H -0.0361 0.2046 0.1417
C10 C 0.0197(11) 0.3545(6) 0.1681(6)
H8 H -0.0391 0.3458 0.2282
C11 C 0.1759(10) 0.4582(6) 0.0579(5)
C12 C 0.2556(10) 0.5579(6) 0.0273(5)
C13 C -0.2954(10) 0.5742(6) 0.3338(5)
C14 C -0.4080(10) 0.5310(5) 0.4184(4)
C15 C -0.6030(10) 0.5327(6) 0.4351(5)
C16 C -0.3101(10) 0.4971(6) 0.4823(4)
H9 H -0.1749 0.4940 0.4689
C17 C -0.7173(11) 0.5644(6) 0.3672(5)
Cd1A Cd -1.10056(8) 0.40975(5) 0.77573(3)
Cd1_2 Cd -0.89944(8) 0.59025(5) 0.22427(3)
Cd1A_2 Cd -0.10056(8) 0.40975(5) 0.77573(3)
O1A O -0.8438(7) 0.4769(4) 0.6960(3)
O2A O -0.6545(7) 0.3408(4) 0.6950(3)
O3A O -0.3181(7) 0.4767(4) 0.7035(3)
O3_2 O 0.3181(7) 0.5233(4) 0.2965(3)
O3A_2 O -1.3181(7) 0.4767(4) 0.7035(3)
O4A O -0.1595(8) 0.3690(4) 0.6157(3)
O5A O -0.9721(7) 0.2509(4) 0.7784(4)
N1A N -1.2452(8) 0.3656(5) 0.9168(4)
N2A N -1.0909(8) 0.5541(5) 0.8585(4)
C1A C -1.3173(11) 0.2742(6) 0.9456(5)
H1A H -1.3109 0.2190 0.9049
C2A C -1.4011(12) 0.2520(7) 1.0295(6)
H2A H -1.4501 0.1829 1.0478
C3A C -1.4132(11) 0.3289(8) 1.0854(5)
H3A H -1.4735 0.3149 1.1448
C4A C -1.3417(11) 0.4277(7) 1.0603(5)
C5A C -1.3489(11) 0.5132(8) 1.1153(5)
H4A H -1.4089 0.5042 1.1752
C6A C -1.2752(12) 0.6047(7) 1.0862(5)
H5A H -1.2822 0.6610 1.1260
C7A C -1.1858(11) 0.6242(6) 0.9988(5)
C8A C -1.1047(12) 0.7200(7) 0.9658(6)
H6A H -1.1086 0.7788 1.0028
C9A C -1.0213(12) 0.7299(7) 0.8821(6)
H7A H -0.9639 0.7954 0.8583
C10A C -1.0197(11) 0.6455(6) 0.8319(6)
H8A H -0.9609 0.6542 0.7718
C11A C -1.1759(10) 0.5418(6) 0.9421(5)
C12A C -1.2556(10) 0.4421(6) 0.9727(5)
C13A C -0.7046(10) 0.4258(6) 0.6662(5)
C14A C -0.5920(10) 0.4690(5) 0.5816(4)
C15A C -0.3970(10) 0.4673(6) 0.5649(5)
C16A C -0.6899(10) 0.5029(6) 0.5177(4)
H9A H -0.8251 0.5060 0.5311
C17A C -0.2827(11) 0.4356(6) 0.6328(5)
Cd2 Cd 0.42044(8) 0.95167(5) 0.26959(3)
O6 O 0.3669(7) 0.7693(4) 0.2582(3)
O7 O 0.1311(7) 0.9404(4) 0.2129(3)
O8 O 0.3501(8) 1.0372(5) 0.1379(3)
O9 O -0.3193(7) 0.9042(4) 0.1901(3)
O10 O -0.2556(7) 1.0670(5) 0.2084(3)
N3 N 0.3667(9) 0.9091(5) 0.4182(4)
N4 N 0.3149(9) 1.0968(5) 0.3416(4)
C18 C 0.3929(11) 0.8174(6) 0.4562(5)
H10 H 0.4535 0.7630 0.4209
C19 C 0.3379(12) 0.7955(7) 0.5440(5)
H11 H 0.3582 0.7267 0.5690
C20 C 0.2564(11) 0.8698(7) 0.5943(5)
H12 H 0.2190 0.8557 0.6561
C21 C 0.2256(11) 0.9687(7) 0.5566(5)
C22 C 0.1399(11) 1.0533(8) 0.6056(5)
H13 H 0.0952 1.0418 0.6671
C23 C 0.1210(11) 1.1464(7) 0.5685(6)
H14 H 0.0675 1.2028 0.6034
C24 C 0.1784(11) 1.1647(6) 0.4777(5)
C25 C 0.1647(13) 1.2606(7) 0.4367(7)
H15 H 0.1105 1.3188 0.4692
C26 C 0.2288(15) 1.2735(7) 0.3490(7)
H16 H 0.2239 1.3411 0.3192
C27 C 0.2985(13) 1.1901(7) 0.3056(6)
H17 H 0.3393 1.1997 0.2436
C28 C 0.2559(10) 1.0840(6) 0.4273(5)
C29 C 0.2834(10) 0.9838(6) 0.4684(5)
C30 C -0.2321(10) 0.9881(7) 0.1691(5)
C31 C -0.1021(10) 0.9906(5) 0.0833(4)
C32 C 0.1917(10) 1.0084(5) -0.0103(4)
H18 H 0.3268 1.0141 -0.0178
C33 C 0.0902(10) 0.9996(6) 0.0719(4)
C34 C 0.1961(11) 0.9928(6) 0.1454(5)
Cd2A Cd -0.42044(8) 1.04833(5) -0.26959(3)
Cd2_2 Cd -0.57956(8) 0.95167(5) 0.26959(3)
Cd2A_2 Cd 0.57956(8) 1.04833(5) -0.26959(3)
O6A O -0.3669(7) 1.2307(4) -0.2582(3)
O7A O -0.1311(7) 1.0596(4) -0.2129(3)
O8A O -0.3501(8) 0.9628(5) -0.1379(3)
O9A O 0.3193(7) 1.0958(4) -0.1901(3)
O9_2 O 0.6807(7) 0.9042(4) 0.1901(3)
O9A_2 O -0.6807(7) 1.0958(4) -0.1901(3)
O10A O 0.2556(7) 0.9330(5) -0.2084(3)
N3A N -0.3667(9) 1.0909(5) -0.4182(4)
N4A N -0.3149(9) 0.9032(5) -0.3416(4)
C18A C -0.3929(11) 1.1826(6) -0.4562(5)
H10A H -0.4535 1.2370 -0.4209
C19A C -0.3379(12) 1.2045(7) -0.5440(5)
H11A H -0.3582 1.2733 -0.5690
C20A C -0.2564(11) 1.1302(7) -0.5943(5)
H12A H -0.2190 1.1443 -0.6561
C21A C -0.2256(11) 1.0313(7) -0.5566(5)
C22A C -0.1399(11) 0.9467(8) -0.6056(5)
H13A H -0.0952 0.9582 -0.6671
C23A C -0.1210(11) 0.8536(7) -0.5685(6)
H14A H -0.0675 0.7972 -0.6034
C24A C -0.1784(11) 0.8353(6) -0.4777(5)
C25A C -0.1647(13) 0.7394(7) -0.4367(7)
H15A H -0.1105 0.6812 -0.4692
C26A C -0.2288(15) 0.7265(7) -0.3490(7)
H16A H -0.2239 0.6589 -0.3192
C27A C -0.2985(13) 0.8099(7) -0.3056(6)
H17A H -0.3393 0.8003 -0.2436
C28A C -0.2559(10) 0.9160(6) -0.4273(5)
C29A C -0.2834(10) 1.0162(6) -0.4684(5)
C30A C 0.2321(10) 1.0119(7) -0.1691(5)
C31A C 0.1021(10) 1.0094(5) -0.0833(4)
C32A C -0.1917(10) 0.9916(5) 0.0103(4)
H18A H -0.3268 0.9859 0.0178
C33A C -0.0902(10) 1.0004(6) -0.0719(4)
C34A C -0.1961(11) 1.0072(6) -0.1454(5)
loop_
_geom_bond_atom_site_label_1
_geom_bond_atom_site_label_2
_geom_bond_site_symmetry_1
_geom_bond_site_symmetry_2
Cd1 O1 1_555 1_555
Cd2 O6 1_555 1_555
O1 C13 1_555 1_555
O2 C13 1_555 1_555
O3 C17 1_555 1_555
O4 C17 1_555 1_555
O5 Cd1 1_555 1_555
O7 Cd2 1_555 1_555
O8 Cd2 1_555 1_555
O9 C30 1_555 1_555
O10 C30 1_555 1_555
N1 Cd1 1_555 1_555
N2 Cd1 1_555 1_555
N3 Cd2 1_555 1_555
N4 Cd2 1_555 1_555
C1 N1 1_555 1_555
H1 C1 1_555 1_555
C2 C1 1_555 1_555
H2 C2 1_555 1_555
C3 C2 1_555 1_555
H3 C3 1_555 1_555
C4 C3 1_555 1_555
C5 C4 1_555 1_555
H4 C5 1_555 1_555
C6 C5 1_555 1_555
H5 C6 1_555 1_555
C7 C6 1_555 1_555
C8 C7 1_555 1_555
H6 C8 1_555 1_555
C9 C8 1_555 1_555
H7 C9 1_555 1_555
C10 N2 1_555 1_555
H8 C10 1_555 1_555
C11 N2 1_555 1_555
C12 N1 1_555 1_555
C13 C14 1_555 1_555
C14 C15 1_555 1_555
C15 C17 1_555 1_555
C16 C14 1_555 1_555
H9 C16 1_555 1_555
C18 N3 1_555 1_555
H10 C18 1_555 1_555
C19 C18 1_555 1_555
H11 C19 1_555 1_555
C20 C19 1_555 1_555
H12 C20 1_555 1_555
C21 C20 1_555 1_555
C22 C21 1_555 1_555
H13 C22 1_555 1_555
C23 C22 1_555 1_555
H14 C23 1_555 1_555
C24 C23 1_555 1_555
C25 C24 1_555 1_555
H15 C25 1_555 1_555
C26 C25 1_555 1_555
H16 C26 1_555 1_555
C27 N4 1_555 1_555
H17 C27 1_555 1_555
C28 N4 1_555 1_555
C29 N3 1_555 1_555
C30 C31 1_555 1_555
C31 C33 1_555 1_555
C32 H18 1_555 1_555
C33 C32 1_555 1_555
C34 O7 1_555 1_555
Cd1A O1A 1_555 1_555
Cd1_2 O3 1_555 1_555
Cd1A_2 O3A 1_555 1_555
Cd2A O6A 1_555 1_555
Cd2_2 O9 1_555 1_555
Cd2A_2 O9A 1_555 1_555
O1A C13A 1_555 1_555
O2A C13A 1_555 1_555
O3A C17A 1_555 1_555
O3_2 Cd1 1_555 1_555
O3A_2 Cd1A 1_555 1_555
O4A C17A 1_555 1_555
O5A Cd1A 1_555 1_555
O7A Cd2A 1_555 1_555
O8A Cd2A 1_555 1_555
O9A C30A 1_555 1_555
O9_2 Cd2 1_555 1_555
O9A_2 Cd2A 1_555 1_555
O10A C30A 1_555 1_555
N1A Cd1A 1_555 1_555
N2A Cd1A 1_555 1_555
N3A Cd2A 1_555 1_555
N4A Cd2A 1_555 1_555
C1A N1A 1_555 1_555
H1A C1A 1_555 1_555
C2A C1A 1_555 1_555
H2A C2A 1_555 1_555
C3A C2A 1_555 1_555
H3A C3A 1_555 1_555
C4A C3A 1_555 1_555
C5A C4A 1_555 1_555
H4A C5A 1_555 1_555
C6A C5A 1_555 1_555
H5A C6A 1_555 1_555
C7A C6A 1_555 1_555
C8A C7A 1_555 1_555
H6A C8A 1_555 1_555
C9A C8A 1_555 1_555
H7A C9A 1_555 1_555
C10A N2A 1_555 1_555
H8A C10A 1_555 1_555
C11A N2A 1_555 1_555
C12A N1A 1_555 1_555
C13A C14A 1_555 1_555
C14A C15A 1_555 1_555
C15A C16 1_555 1_555
C16A C15 1_555 1_555
H9A C16A 1_555 1_555
C17A C15A 1_555 1_555
C18A N3A 1_555 1_555
H10A C18A 1_555 1_555
C19A C18A 1_555 1_555
H11A C19A 1_555 1_555
C20A C19A 1_555 1_555
H12A C20A 1_555 1_555
C21A C20A 1_555 1_555
C22A C21A 1_555 1_555
H13A C22A 1_555 1_555
C23A C22A 1_555 1_555
H14A C23A 1_555 1_555
C24A C23A 1_555 1_555
C25A C24A 1_555 1_555
H15A C25A 1_555 1_555
C26A C25A 1_555 1_555
H16A C26A 1_555 1_555
C27A N4A 1_555 1_555
H17A C27A 1_555 1_555
C28A N4A 1_555 1_555
C29A N3A 1_555 1_555
C30A C31A 1_555 1_555
C31A C32 1_555 1_555
C32A C31 1_555 1_555
H18A C32A 1_555 1_555
C33A C31A 1_555 1_555
C34A O7A 1_555 1_555
O8 C34 1_555 1_555
C4 C12 1_555 1_555
C7 C11 1_555 1_555
C9 C10 1_555 1_555
C11 C12 1_555 1_555
C21 C29 1_555 1_555
C24 C28 1_555 1_555
C26 C27 1_555 1_555
C28 C29 1_555 1_555
C33 C34 1_555 1_555
O8A C34A 1_555 1_555
C4A C12A 1_555 1_555
C7A C11A 1_555 1_555
C9A C10A 1_555 1_555
C11A C12A 1_555 1_555
C14A C16A 1_555 1_555
C21A C29A 1_555 1_555
C24A C28A 1_555 1_555
C26A C27A 1_555 1_555
C28A C29A 1_555 1_555
C32A C33A 1_555 1_555
C33A C34A 1_555 1_555

#END
