
#######################################################################
#
#                 Cambridge Crystallographic Data Centre
#                                CCDC 
#
#######################################################################
#
# If this CIF has been generated from an entry in the Cambridge 
# Structural Database, then it will include bibliographic, chemical, 
# crystal, experimental, refinement or atomic coordinate data resulting 
# from the CCDC's data processing and validation procedures.
#
#######################################################################

data_MEWDID
_symmetry_cell_setting           trigonal
_symmetry_space_group_name_H-M   'P 3 1 c'
_symmetry_Int_Tables_number      159
_space_group_name_Hall           "P 3 -2'c"
loop_
_symmetry_equiv_pos_site_id
_symmetry_equiv_pos_as_xyz
1 x,y,z
2 -y,x-y,z
3 -x+y,-x,z
4 y,x,1/2+z
5 x-y,-y,1/2+z
6 -x,-x+y,1/2+z
_cell_length_a                   8.0491(10)
_cell_length_b                   8.0491(10)
_cell_length_c                   8.8953(18)
_cell_angle_alpha                90
_cell_angle_beta                 90
_cell_angle_gamma                120
_cell_volume                     499.098
loop_
_atom_site_label
_atom_site_type_symbol
_atom_site_fract_x
_atom_site_fract_y
_atom_site_fract_z
Na1 Na 0.3333 0.6667 0.1288(3)
N1 N 0.6544(6) 0.6032(6) 0.4871(4)
H1 H 0.638(9) 0.569(8) 0.390(2)
H2 H 0.768(4) 0.707(5) 0.508(7)
C1 C 0.4981(6) 0.6393(6) 0.5290(5)
H3 H 0.494(8) 0.637(8) 0.627(5)
C2 C 0.5288(6) 0.8341(6) 0.4803(5)
H4 H 0.638(8) 0.926(8) 0.526(6)
O1 O 0.5558(4) 0.8645(5) 0.3206(3)
H5 H 0.6689 0.9049 0.2998
N1A N 0.3968(6) 1.0512(8) 0.4871(4)
H1A H 0.431(8) 1.069(12) 0.390(2)
H2A H 0.293(5) 1.061(6) 0.508(7)
C1A C 0.3607(6) 0.8588(8) 0.5290(5)
H3A H 0.363(8) 0.857(11) 0.627(5)
C2A C 0.1659(6) 0.6947(8) 0.4803(5)
H4A H 0.074(8) 0.712(11) 0.526(6)
O1A O 0.1355(5) 0.6913(6) 0.3206(3)
H5A H 0.0951 0.7640 0.2998
N1B N -0.0512(8) 0.3456(6) 0.4871(4)
H1B H -0.069(12) 0.362(9) 0.390(2)
H2B H -0.061(6) 0.232(4) 0.508(7)
C1B C 0.1412(8) 0.5019(6) 0.5290(5)
H3B H 0.143(11) 0.506(8) 0.627(5)
C2B C 0.3053(8) 0.4712(6) 0.4803(5)
H4B H 0.288(11) 0.362(8) 0.526(6)
O1B O 0.3087(6) 0.4442(4) 0.3206(3)
H5B H 0.2360 0.3311 0.2998
Na1C Na -0.3333 0.3333 0.6288(3)
Na1C_2 Na 0.6667 0.3333 0.6288(3)
Na1C_3 Na 0.6667 1.3333 0.6288(3)
N1C N 0.6032(6) 0.6544(6) -0.0129(4)
N1D N 0.0512(8) 0.3968(6) -0.0129(4)
N1E N 0.3456(6) 0.9488(8) -0.0129(4)
Br1 Br 1.0000 1.0000 0.22830(19)
loop_
_geom_bond_atom_site_label_1
_geom_bond_atom_site_label_2
_geom_bond_site_symmetry_1
_geom_bond_site_symmetry_2
Na1 O1 1_555 1_555
N1 H1 1_555 1_555
H2 N1 1_555 1_555
C1 N1 1_555 1_555
H3 C1 1_555 1_555
C2 C1 1_555 1_555
H4 C2 1_555 1_555
O1 C2 1_555 1_555
H5 O1 1_555 1_555
N1A H1A 1_555 1_555
H2A N1A 1_555 1_555
C1A C2 1_555 1_555
H3A C1A 1_555 1_555
C2A C1A 1_555 1_555
H4A C2A 1_555 1_555
O1A Na1 1_555 1_555
H5A O1A 1_555 1_555
N1B H1B 1_555 1_555
H2B N1B 1_555 1_555
C1B C2A 1_555 1_555
H3B C1B 1_555 1_555
C2B C1 1_555 1_555
H4B C2B 1_555 1_555
O1B Na1 1_555 1_555
H5B O1B 1_555 1_555
Na1C N1B 1_555 1_555
Na1C_2 N1 1_555 1_555
Na1C_3 N1A 1_555 1_555
N1C Na1 1_555 1_555
N1D Na1 1_555 1_555
N1E Na1 1_555 1_555
N1A C1A 1_555 1_555
C2A O1A 1_555 1_555
N1B C1B 1_555 1_555
C1B C2B 1_555 1_555
C2B O1B 1_555 1_555

#END
