
#######################################################################
#
#                 Cambridge Crystallographic Data Centre
#                                CCDC 
#
#######################################################################
#
# If this CIF has been generated from an entry in the Cambridge 
# Structural Database, then it will include bibliographic, chemical, 
# crystal, experimental, refinement or atomic coordinate data resulting 
# from the CCDC's data processing and validation procedures.
#
#######################################################################

data_MEXKIJ
_symmetry_cell_setting           monoclinic
_symmetry_space_group_name_H-M   'C 2/c'
_symmetry_Int_Tables_number      15
_space_group_name_Hall           '-C 2yn'
loop_
_symmetry_equiv_pos_site_id
_symmetry_equiv_pos_as_xyz
1 x,y,z
2 1/2+x,1/2+y,z
3 x,-y,1/2+z
4 1/2+x,1/2-y,1/2+z
5 -x,-y,-z
6 1/2-x,1/2-y,-z
7 -x,y,1/2-z
8 1/2-x,1/2+y,1/2-z
_cell_length_a                   26.989(2)
_cell_length_b                   13.3670(10)
_cell_length_c                   21.5660(10)
_cell_angle_alpha                90.00
_cell_angle_beta                 119.320(10)
_cell_angle_gamma                90.00
_cell_volume                     6783.54
loop_
_atom_site_label
_atom_site_type_symbol
_atom_site_fract_x
_atom_site_fract_y
_atom_site_fract_z
Rh1 Rh 0.00628(2) 0.03867(4) 0.19071(2)
Rh2 Rh 0.00225(2) 0.01870(4) 0.06597(2)
O1 O -0.07303(18) 0.0996(3) 0.1298(2)
O2 O -0.08354(17) 0.0433(3) 0.0256(2)
O3 O -0.0281(2) -0.1004(3) 0.1690(2)
O4 O -0.01165(18) -0.1294(3) 0.0779(2)
N1 N 0.0458(2) 0.1707(4) 0.2170(3)
N2 N 0.0856(2) -0.0115(4) 0.2534(3)
N3 N 0.0189(2) 0.1610(4) 0.0555(3)
N4 N 0.0862(2) 0.0058(4) 0.1074(3)
C1 C 0.0248(3) 0.2624(6) 0.1982(4)
C2 C 0.0589(4) 0.3485(6) 0.2171(4)
C3 C 0.1170(5) 0.3394(8) 0.2563(5)
C4 C 0.1411(4) 0.2446(7) 0.2789(4)
C5 C 0.2005(4) 0.2245(9) 0.3221(5)
C6 C 0.2210(4) 0.1299(10) 0.3416(5)
C7 C 0.1835(3) 0.0440(7) 0.3198(4)
C8 C 0.2002(3) -0.0556(9) 0.3379(4)
C9 C 0.1605(4) -0.1285(7) 0.3150(4)
C10 C 0.1036(3) -0.1037(6) 0.2720(3)
C11 C 0.1257(3) 0.0634(6) 0.2771(3)
C12 C 0.1039(3) 0.1619(6) 0.2574(3)
C13 C -0.0172(3) 0.2381(5) 0.0241(3)
C14 C 0.0014(4) 0.3327(5) 0.0218(4)
C15 C 0.0580(4) 0.3541(6) 0.0530(4)
C16 C 0.0973(4) 0.2761(6) 0.0841(4)
C17 C 0.1573(4) 0.2846(7) 0.1167(5)
C18 C 0.1924(4) 0.2075(8) 0.1463(5)
C19 C 0.1703(3) 0.1092(6) 0.1426(4)
C20 C 0.2039(3) 0.0227(7) 0.1678(4)
C21 C 0.1780(3) -0.0680(7) 0.1633(4)
C22 C 0.1189(3) -0.0746(6) 0.1326(3)
C23 C 0.1124(3) 0.0957(5) 0.1116(3)
C24 C 0.0756(3) 0.1793(5) 0.0839(3)
C25 C -0.1022(3) 0.0824(6) 0.0635(3)
C26 C -0.1638(3) 0.1105(8) 0.0264(4)
C27 C -0.0276(3) -0.1563(5) 0.1217(3)
C28 C -0.0483(3) -0.2618(6) 0.1162(4)
H1 H -0.0151 0.2700 0.1709
H2 H 0.0429 0.4130 0.2033
H3 H 0.1422 0.3931 0.2682
H4 H 0.2254 0.2790 0.3360
H5 H 0.2608 0.1202 0.3691
H6 H 0.2395 -0.0708 0.3661
H7 H 0.1713 -0.1968 0.3271
H8 H 0.0758 -0.1567 0.2551
H9 H -0.0567 0.2261 0.0026
H10 H -0.0245 0.3836 -0.0023
H11 H 0.0714 0.4204 0.0542
H12 H 0.1712 0.3509 0.1165
H13 H 0.2318 0.2198 0.1704
H14 H 0.2441 0.0247 0.1883
H15 H 0.2002 -0.1277 0.1813
H16 H 0.1018 -0.1376 0.1291
H17 H -0.1705 0.1606 -0.0098
H18 H -0.1730 0.1381 0.0616
H19 H -0.1866 0.0510 0.0046
H20 H -0.0540 -0.2765 0.1566
H21 H -0.0182 -0.3077 0.1185
H22 H -0.0827 -0.2714 0.0718
Rh1F Rh -0.00628(2) 0.03867(4) 0.30929(2)
Rh2D Rh -0.00225(2) -0.01870(4) -0.06597(2)
P1 P 0.13029(10) 0.61780(17) 0.18008(12)
F1 F 0.1384(3) 0.5892(5) 0.2541(3)
F2 F 0.1692(2) 0.5257(4) 0.1843(3)
F3 F 0.1853(2) 0.6876(4) 0.2161(3)
F4 F 0.1227(2) 0.6469(5) 0.1046(3)
F5 F 0.0916(2) 0.7092(4) 0.1759(3)
F6 F 0.0749(2) 0.5497(4) 0.1423(3)
O5 O 0.1631(5) 0.4748(10) 0.0153(7)
C29 C 0.1407(6) 0.5403(10) -0.0433(8)
C30 C 0.0920(10) 0.5304(16) -0.0941(12)
C31 C 0.1857(11) 0.581(2) -0.0410(14)
H23 H 0.1340 0.4473 0.0172
H24 H 0.1316 0.5968 -0.0212
H25 H 0.0826 0.5796 -0.1300
H26 H 0.0881 0.4643 -0.1147
H27 H 0.0639 0.5344 -0.0776
H28 H 0.1734 0.6309 -0.0817
H29 H 0.2076 0.6211 0.0013
H30 H 0.2094 0.5345 -0.0466
loop_
_geom_bond_atom_site_label_1
_geom_bond_atom_site_label_2
_geom_bond_site_symmetry_1
_geom_bond_site_symmetry_2
Rh1 Rh2 1_555 1_555
Rh2 O2 1_555 1_555
P1 F1 1_555 1_555
F2 P1 1_555 1_555
F3 P1 1_555 1_555
F4 P1 1_555 1_555
F5 P1 1_555 1_555
F6 P1 1_555 1_555
O1 Rh1 1_555 1_555
O2 C25 1_555 1_555
O3 Rh1 1_555 1_555
O4 Rh2 1_555 1_555
N1 Rh1 1_555 1_555
N2 Rh1 1_555 1_555
N3 Rh2 1_555 1_555
N4 Rh2 1_555 1_555
C1 N1 1_555 1_555
C2 C1 1_555 1_555
C3 C2 1_555 1_555
C4 C3 1_555 1_555
C5 C4 1_555 1_555
C6 C5 1_555 1_555
C7 C6 1_555 1_555
C8 C7 1_555 1_555
C9 C8 1_555 1_555
C10 N2 1_555 1_555
C11 N2 1_555 1_555
C12 N1 1_555 1_555
C13 N3 1_555 1_555
C14 C13 1_555 1_555
C15 C14 1_555 1_555
C16 C15 1_555 1_555
C17 C16 1_555 1_555
C18 C17 1_555 1_555
C19 C18 1_555 1_555
C20 C19 1_555 1_555
C21 C20 1_555 1_555
C22 N4 1_555 1_555
C23 N4 1_555 1_555
C24 N3 1_555 1_555
C25 O1 1_555 1_555
C26 C25 1_555 1_555
C27 O3 1_555 1_555
C28 C27 1_555 1_555
O5 C29 1_555 1_555
C29 C30 1_555 1_555
C30 H25 1_555 1_555
C31 C29 1_555 1_555
H1 C1 1_555 1_555
H2 C2 1_555 1_555
H3 C3 1_555 1_555
H4 C5 1_555 1_555
H5 C6 1_555 1_555
H6 C8 1_555 1_555
H7 C9 1_555 1_555
H8 C10 1_555 1_555
H9 C13 1_555 1_555
H10 C14 1_555 1_555
H11 C15 1_555 1_555
H12 C17 1_555 1_555
H13 C18 1_555 1_555
H14 C20 1_555 1_555
H15 C21 1_555 1_555
H16 C22 1_555 1_555
H17 C26 1_555 1_555
H18 C26 1_555 1_555
H19 C26 1_555 1_555
H20 C28 1_555 1_555
H21 C28 1_555 1_555
H22 C28 1_555 1_555
H23 O5 1_555 1_555
H24 C29 1_555 1_555
H26 C30 1_555 1_555
H27 C30 1_555 1_555
H28 C31 1_555 1_555
H29 C31 1_555 1_555
H30 C31 1_555 1_555
Rh1F Rh1 1_555 1_555
Rh2D Rh2 1_555 1_555
O4 C27 1_555 1_555
C4 C12 1_555 1_555
C7 C11 1_555 1_555
C9 C10 1_555 1_555
C11 C12 1_555 1_555
C16 C24 1_555 1_555
C19 C23 1_555 1_555
C21 C22 1_555 1_555
C23 C24 1_555 1_555

#END
