
#######################################################################
#
#                 Cambridge Crystallographic Data Centre
#                                CCDC 
#
#######################################################################
#
# If this CIF has been generated from an entry in the Cambridge 
# Structural Database, then it will include bibliographic, chemical, 
# crystal, experimental, refinement or atomic coordinate data resulting 
# from the CCDC's data processing and validation procedures.
#
#######################################################################

data_MEXNAE
_symmetry_cell_setting           triclinic
_symmetry_space_group_name_H-M   'P -1'
_symmetry_Int_Tables_number      2
_space_group_name_Hall           '-P 1'
loop_
_symmetry_equiv_pos_site_id
_symmetry_equiv_pos_as_xyz
1 x,y,z
2 -x,-y,-z
_cell_length_a                   9.6075(19)
_cell_length_b                   10.028(2)
_cell_length_c                   10.772(2)
_cell_angle_alpha                92.27(3)
_cell_angle_beta                 109.32(3)
_cell_angle_gamma                116.02(3)
_cell_volume                     858.967
loop_
_atom_site_label
_atom_site_type_symbol
_atom_site_fract_x
_atom_site_fract_y
_atom_site_fract_z
Br1 Br 0.57549(3) 0.75895(3) 0.06845(3)
Co1 Co 0.0000 0.5000 0.0000
O1 O -0.1802(3) 0.4913(2) 0.0719(2)
N1 N 0.2024(3) 0.6373(3) 0.1799(2)
C1 C -0.1620(4) 0.5184(4) 0.2091(3)
H1 H -0.1915 0.4230 0.2404
H2 H -0.2367 0.5580 0.2158
H3 H -0.0453 0.5928 0.2651
H4 H -0.272(6) 0.434(5) 0.031(4)
Co2 Co 1.0000 1.0000 0.5000
O2 O -0.0010(3) 0.3150(2) 0.0774(2)
N2 N 0.7435(3) 0.8976(3) 0.4610(2)
C2 C -0.1397(3) 0.1727(3) 0.0682(3)
H5 H -0.2443 0.1785 0.0311
H6 H -0.1237 0.1506 0.1582
H7 H -0.1460 0.0917 0.0091
H8 H 0.069(5) 0.311(4) 0.092(4)
O3 O 0.9401(3) 0.9046(3) 0.3038(2)
C3 C 1.0485(4) 0.9225(4) 0.2344(3)
H9 H 1.0909 1.0245 0.2153
H10 H 0.9858 0.8462 0.1495
H11 H 1.1431 0.9092 0.2907
H12 H 0.839(6) 0.867(5) 0.254(4)
O4 O 0.9820(3) 1.1886(2) 0.4376(2)
C4 C 1.1172(4) 1.3339(4) 0.4478(4)
H13 H 1.2050 1.3692 0.5388
H14 H 1.0750 1.4071 0.4299
H15 H 1.1640 1.3248 0.3817
H16 H 0.909(5) 1.199(4) 0.446(4)
O5 O 0.2280(2) 0.7361(2) 0.5069(2)
C5 C 0.3076(3) 0.6986(3) 0.2853(3)
O6 O 0.5055(2) 0.8831(2) 0.63620(19)
C6 C 0.4304(3) 0.7719(3) 0.4171(3)
C7 C 0.6023(3) 0.8412(3) 0.4393(3)
C8 C 0.3762(3) 0.7942(3) 0.5207(3)
C9 C 0.4650(4) 0.9091(3) 0.7504(3)
H17 H 0.3877 0.9516 0.7253
H18 H 0.5682 0.9806 0.8264
H19 H 0.4116 0.8125 0.7765
O1A O 0.1802(3) 0.5087(2) -0.0719(2)
C1A C 0.1620(4) 0.4816(4) -0.2091(3)
H1A H 0.1915 0.5770 -0.2404
H2A H 0.2367 0.4420 -0.2158
H3A H 0.0453 0.4072 -0.2651
H4A H 0.272(6) 0.566(5) -0.031(4)
N1A N -0.2024(3) 0.3627(3) -0.1799(2)
N2A N -0.7435(3) 0.1024(3) -0.4610(2)
O5A O -0.2280(2) 0.2639(2) -0.5069(2)
C5A C -0.3076(3) 0.3014(3) -0.2853(3)
O6A O -0.5055(2) 0.1169(2) -0.63620(19)
C6A C -0.4304(3) 0.2281(3) -0.4171(3)
C7A C -0.6023(3) 0.1588(3) -0.4393(3)
C8A C -0.3762(3) 0.2058(3) -0.5207(3)
C9A C -0.4650(4) 0.0909(3) -0.7504(3)
H17A H -0.3877 0.0484 -0.7253
H18A H -0.5682 0.0194 -0.8264
H19A H -0.4116 0.1875 -0.7765
O2A O 0.0010(3) 0.6850(2) -0.0774(2)
C2A C 0.1397(3) 0.8273(3) -0.0682(3)
H5A H 0.2443 0.8215 -0.0311
H6A H 0.1237 0.8494 -0.1582
H7A H 0.1460 0.9083 -0.0091
H8A H -0.069(5) 0.689(4) -0.092(4)
O3A O 1.0599(3) 1.0954(3) 0.6962(2)
C3A C 0.9515(4) 1.0775(4) 0.7656(3)
H9A H 0.9091 0.9755 0.7847
H10A H 1.0142 1.1538 0.8505
H11A H 0.8569 1.0908 0.7093
H12A H 1.161(6) 1.133(5) 0.746(4)
O4A O 1.0180(3) 0.8114(2) 0.5624(2)
C4A C 0.8828(4) 0.6661(4) 0.5522(4)
H13A H 0.7950 0.6308 0.4612
H14A H 0.9250 0.5929 0.5701
H15A H 0.8360 0.6752 0.6183
H16A H 1.091(5) 0.801(4) 0.554(4)
N2A_2 N 1.2565(3) 1.1024(3) 0.5390(2)
Co2_2 Co -1.0000 0.0000 -0.5000
O7 O 0.2828(3) 0.2967(2) 0.1567(2)
C10 C 0.4286(4) 0.4165(3) 0.2616(3)
H20 H 0.4735 0.5072 0.2254
H21 H 0.5141 0.3843 0.2966
H22 H 0.3979 0.4402 0.3345
H23 H 0.321(5) 0.285(4) 0.091(4)
loop_
_geom_bond_atom_site_label_1
_geom_bond_atom_site_label_2
_geom_bond_site_symmetry_1
_geom_bond_site_symmetry_2
Co1 O1 1_555 1_555
O1 C1 1_555 1_555
N1 Co1 1_555 1_555
C1 H1 1_555 1_555
H2 C1 1_555 1_555
H3 C1 1_555 1_555
H4 O1 1_555 1_555
Co2 N2 1_555 1_555
O2 Co1 1_555 1_555
N2 C7 1_555 1_555
C2 O2 1_555 1_555
H5 C2 1_555 1_555
H6 C2 1_555 1_555
H7 C2 1_555 1_555
H8 O2 1_555 1_555
O3 Co2 1_555 1_555
C3 O3 1_555 1_555
H9 C3 1_555 1_555
H10 C3 1_555 1_555
H11 C3 1_555 1_555
H12 O3 1_555 1_555
O4 Co2 1_555 1_555
C4 O4 1_555 1_555
H13 C4 1_555 1_555
H14 C4 1_555 1_555
H15 C4 1_555 1_555
H16 O4 1_555 1_555
O5 C8 1_555 1_555
C5 N1 1_555 1_555
O6 C8 1_555 1_555
C6 C5 1_555 1_555
C7 C6 1_555 1_555
C8 C6 1_555 1_555
C9 O6 1_555 1_555
H17 C9 1_555 1_555
H18 C9 1_555 1_555
H19 C9 1_555 1_555
O7 C10 1_555 1_555
C10 H20 1_555 1_555
H21 C10 1_555 1_555
H22 C10 1_555 1_555
H23 O7 1_555 1_555
O1A Co1 1_555 1_555
C1A O1A 1_555 1_555
H1A C1A 1_555 1_555
H2A C1A 1_555 1_555
H3A C1A 1_555 1_555
H4A O1A 1_555 1_555
N1A Co1 1_555 1_555
N2A C7A 1_555 1_555
O5A C8A 1_555 1_555
C5A N1A 1_555 1_555
O6A C8A 1_555 1_555
C6A C5A 1_555 1_555
C7A C6A 1_555 1_555
C8A C6A 1_555 1_555
C9A O6A 1_555 1_555
H17A C9A 1_555 1_555
H18A C9A 1_555 1_555
H19A C9A 1_555 1_555
O2A Co1 1_555 1_555
C2A O2A 1_555 1_555
H5A C2A 1_555 1_555
H6A C2A 1_555 1_555
H7A C2A 1_555 1_555
H8A O2A 1_555 1_555
O3A Co2 1_555 1_555
C3A O3A 1_555 1_555
H9A C3A 1_555 1_555
H10A C3A 1_555 1_555
H11A C3A 1_555 1_555
H12A O3A 1_555 1_555
O4A Co2 1_555 1_555
C4A O4A 1_555 1_555
H13A C4A 1_555 1_555
H14A C4A 1_555 1_555
H15A C4A 1_555 1_555
H16A O4A 1_555 1_555
N2A_2 Co2 1_555 1_555
Co2_2 N2A 1_555 1_555

#END
