
#######################################################################
#
#                 Cambridge Crystallographic Data Centre
#                                CCDC 
#
#######################################################################
#
# If this CIF has been generated from an entry in the Cambridge 
# Structural Database, then it will include bibliographic, chemical, 
# crystal, experimental, refinement or atomic coordinate data resulting 
# from the CCDC's data processing and validation procedures.
#
#######################################################################

data_MEXXIY
_symmetry_cell_setting           monoclinic
_symmetry_space_group_name_H-M   'P 21/n'
_symmetry_Int_Tables_number      14
_space_group_name_Hall           '-P 2yn'
loop_
_symmetry_equiv_pos_site_id
_symmetry_equiv_pos_as_xyz
1 x,y,z
2 1/2-x,1/2+y,1/2-z
3 -x,-y,-z
4 1/2+x,1/2-y,1/2+z
_cell_length_a                   12.925(3)
_cell_length_b                   10.175(2)
_cell_length_c                   17.334(4)
_cell_angle_alpha                90
_cell_angle_beta                 104.804(4)
_cell_angle_gamma                90
_cell_volume                     2203.96
loop_
_atom_site_label
_atom_site_type_symbol
_atom_site_fract_x
_atom_site_fract_y
_atom_site_fract_z
C1 C 0.9081(5) 1.2272(7) 0.6088(4)
C2 C 0.8763(4) 1.1306(6) 0.5392(3)
C3 C 0.8283(4) 1.1749(6) 0.4634(3)
H1 H 0.8141 1.2640 0.4547
C4 C 0.8010(4) 1.0872(6) 0.3999(3)
H2 H 0.7699 1.1188 0.3489
C5 C 0.8189(4) 0.9556(6) 0.4110(3)
C6 C 0.8677(4) 0.9114(5) 0.4872(3)
H3 H 0.8815 0.8222 0.4961
C7 C 0.8962(4) 0.9988(6) 0.5500(3)
H4 H 0.9295 0.9675 0.6007
C8 C 0.7875(4) 0.8557(5) 0.3441(3)
H5 H 0.8505 0.8323 0.3264
H6 H 0.7620 0.7768 0.3647
C9 C 0.5975(5) 0.9003(5) 0.2669(3)
C10 C 0.5454(4) 0.8345(5) 0.3229(3)
C11 C 0.4693(5) 0.7409(6) 0.2926(3)
H7 H 0.4522 0.7212 0.2384
C12 C 0.4180(5) 0.6759(6) 0.3424(3)
H8 H 0.3658 0.6135 0.3215
C13 C 0.4441(5) 0.7037(6) 0.4229(3)
H9 H 0.4098 0.6588 0.4561
C14 C 0.5208(4) 0.7977(6) 0.4553(3)
C15 C 0.5710(4) 0.8612(5) 0.4038(3)
H10 H 0.6233 0.9236 0.4244
C16 C 0.5467(5) 0.8312(6) 0.5420(3)
C17 C 0.4860(4) 0.7870(6) 0.5910(3)
H11 H 0.4268 0.7339 0.5702
C18 C 0.5119(5) 0.8207(6) 0.6712(3)
H12 H 0.4700 0.7873 0.7030
C19 C 0.6520(4) 0.9430(6) 0.6580(3)
H13 H 0.7094 0.9981 0.6798
C20 C 0.6313(4) 0.9113(6) 0.5775(3)
H14 H 0.6752 0.9447 0.5472
C21 C 0.7232(4) 0.9565(5) 0.2073(3)
C22 C 0.6227(4) 0.9891(5) 0.1599(3)
C23 C 0.6126(5) 1.0406(5) 0.0842(3)
H15 H 0.5463 1.0653 0.0521
C24 C 0.7038(6) 1.0536(5) 0.0585(3)
H16 H 0.6985 1.0847 0.0072
C25 C 0.8040(5) 1.0220(5) 0.1068(4)
H17 H 0.8641 1.0336 0.0873
C26 C 0.8165(4) 0.9734(5) 0.1835(3)
H18 H 0.8834 0.9534 0.2167
Cl1 Cl 0.26106(12) 0.88894(16) 0.15025(9)
N1 N 0.5935(4) 0.8981(5) 0.7049(2)
N2 N 0.5446(3) 0.9555(4) 0.1986(2)
N3 N 0.7053(4) 0.9028(4) 0.2762(2)
O1 O 0.8687(3) 1.3399(4) 0.5960(2)
O2 O 0.9702(3) 1.1885(4) 0.6704(2)
Zn1 Zn 0.39335(5) 1.03294(7) 0.18148(4)
N1B N 0.4065(4) 1.1019(5) 0.2951(2)
O1C O 0.3687(3) 1.1601(4) 0.0960(2)
Zn1B Zn 0.60665(5) 0.96706(7) 0.81852(4)
Zn1C Zn 0.89335(5) 1.46706(7) 0.68148(4)
loop_
_geom_bond_atom_site_label_1
_geom_bond_atom_site_label_2
_geom_bond_site_symmetry_1
_geom_bond_site_symmetry_2
C1 C2 1_555 1_555
C2 C3 1_555 1_555
C3 H1 1_555 1_555
C4 C3 1_555 1_555
H2 C4 1_555 1_555
C5 C4 1_555 1_555
C6 C5 1_555 1_555
H3 C6 1_555 1_555
C7 C2 1_555 1_555
H4 C7 1_555 1_555
C8 C5 1_555 1_555
H5 C8 1_555 1_555
H6 C8 1_555 1_555
C9 C10 1_555 1_555
C10 C11 1_555 1_555
C11 H7 1_555 1_555
C12 C11 1_555 1_555
H8 C12 1_555 1_555
C13 C12 1_555 1_555
H9 C13 1_555 1_555
C14 C13 1_555 1_555
C15 C10 1_555 1_555
H10 C15 1_555 1_555
C16 C14 1_555 1_555
C17 C16 1_555 1_555
H11 C17 1_555 1_555
C18 C17 1_555 1_555
H12 C18 1_555 1_555
C19 H13 1_555 1_555
C20 C16 1_555 1_555
H14 C20 1_555 1_555
C21 C22 1_555 1_555
C22 C23 1_555 1_555
C23 H15 1_555 1_555
C24 C23 1_555 1_555
H16 C24 1_555 1_555
C25 C24 1_555 1_555
H17 C25 1_555 1_555
C26 C21 1_555 1_555
H18 C26 1_555 1_555
Cl1 Zn1 1_555 1_555
N1 C18 1_555 1_555
N2 C9 1_555 1_555
N3 C8 1_555 1_555
O1 C1 1_555 1_555
O2 C1 1_555 1_555
Zn1 N2 1_555 1_555
N1B Zn1 1_555 1_555
O1C Zn1 1_555 1_555
Zn1B N1 1_555 1_555
Zn1C O1 1_555 1_555
C6 C7 1_555 1_555
C9 N3 1_555 1_555
C14 C15 1_555 1_555
C19 C20 1_555 1_555
C19 N1 1_555 1_555
C21 N3 1_555 1_555
C22 N2 1_555 1_555
C25 C26 1_555 1_555

#END
