
#######################################################################
#
#                 Cambridge Crystallographic Data Centre
#                                CCDC 
#
#######################################################################
#
# If this CIF has been generated from an entry in the Cambridge 
# Structural Database, then it will include bibliographic, chemical, 
# crystal, experimental, refinement or atomic coordinate data resulting 
# from the CCDC's data processing and validation procedures.
#
#######################################################################

data_MEXXAQ
_symmetry_cell_setting           monoclinic
_symmetry_space_group_name_H-M   'P 21/n'
_symmetry_Int_Tables_number      14
_space_group_name_Hall           '-P 2yn'
loop_
_symmetry_equiv_pos_site_id
_symmetry_equiv_pos_as_xyz
1 x,y,z
2 1/2-x,1/2+y,1/2-z
3 -x,-y,-z
4 1/2+x,1/2-y,1/2+z
_cell_length_a                   13.212(8)
_cell_length_b                   10.480(6)
_cell_length_c                   17.535(10)
_cell_angle_alpha                90
_cell_angle_beta                 107.148(9)
_cell_angle_gamma                90
_cell_volume                     2320
loop_
_atom_site_label
_atom_site_type_symbol
_atom_site_fract_x
_atom_site_fract_y
_atom_site_fract_z
C1 C 0.9146(5) 1.2248(7) 0.6137(4)
C2 C 0.8823(4) 1.1333(6) 0.5454(4)
C3 C 0.8330(5) 1.1741(6) 0.4688(4)
H1 H 0.8192 1.2606 0.4591
C4 C 0.8037(5) 1.0890(6) 0.4061(4)
H2 H 0.7711 1.1189 0.3548
C5 C 0.8225(4) 0.9592(6) 0.4187(4)
C6 C 0.8699(5) 0.9197(6) 0.4948(4)
H3 H 0.8824 0.8331 0.5048
C7 C 0.9000(5) 1.0048(7) 0.5576(4)
H4 H 0.9326 0.9746 0.6089
C8 C 0.7906(5) 0.8629(6) 0.3515(4)
H5 H 0.8525 0.8409 0.3354
H6 H 0.7664 0.7859 0.3714
C9 C 0.6021(5) 0.9077(5) 0.2717(3)
C10 C 0.5529(5) 0.8417(6) 0.3257(4)
C11 C 0.4791(6) 0.7485(6) 0.2923(4)
H7 H 0.4631 0.7301 0.2382
C12 C 0.4290(6) 0.6828(7) 0.3391(4)
H8 H 0.3803 0.6191 0.3166
C13 C 0.4507(6) 0.7109(7) 0.4190(4)
H9 H 0.4165 0.6660 0.4500
C14 C 0.5230(5) 0.8056(6) 0.4539(4)
C15 C 0.5737(5) 0.8687(6) 0.4049(4)
H10 H 0.6235 0.9313 0.4273
C16 C 0.5442(5) 0.8386(6) 0.5389(4)
C17 C 0.4819(5) 0.7935(6) 0.5849(4)
H11 H 0.4238 0.7417 0.5615
C18 C 0.5049(5) 0.8241(6) 0.6634(4)
H12 H 0.4625 0.7900 0.6923
C19 C 0.6451(5) 0.9460(6) 0.6588(4)
H13 H 0.7018 0.9988 0.6836
C20 C 0.6263(5) 0.9175(6) 0.5789(4)
H14 H 0.6700 0.9524 0.5514
C21 C 0.7224(5) 0.9599(5) 0.2126(3)
C22 C 0.6221(5) 0.9929(5) 0.1648(3)
C23 C 0.6099(6) 1.0420(6) 0.0893(4)
H15 H 0.5437 1.0655 0.0562
C24 C 0.6998(7) 1.0549(6) 0.0653(4)
H16 H 0.6938 1.0873 0.0147
C25 C 0.7985(6) 1.0207(6) 0.1144(5)
H17 H 0.8568 1.0294 0.0953
C26 C 0.8139(5) 0.9748(6) 0.1899(4)
H18 H 0.8808 0.9550 0.2236
I1 I 0.24507(4) 0.88718(5) 0.14070(3)
N1 N 0.5850(4) 0.9005(5) 0.7016(3)
N2 N 0.5484(4) 0.9611(5) 0.2044(3)
N3 N 0.7079(4) 0.9068(4) 0.2819(3)
O1 O 0.8766(4) 1.3355(5) 0.5999(3)
O2 O 0.9758(4) 1.1918(5) 0.6761(3)
Zn1 Zn 0.39983(6) 1.03942(7) 0.18391(4)
N1B N 0.4150(4) 1.0995(5) 0.2984(3)
O1C O 0.3766(4) 1.1645(5) 0.0999(3)
Zn1B Zn 0.60017(6) 0.96058(7) 0.81609(4)
Zn1C Zn 0.89983(6) 1.46058(7) 0.68391(4)
loop_
_geom_bond_atom_site_label_1
_geom_bond_atom_site_label_2
_geom_bond_site_symmetry_1
_geom_bond_site_symmetry_2
C1 C2 1_555 1_555
C2 C3 1_555 1_555
C3 H1 1_555 1_555
C4 C3 1_555 1_555
H2 C4 1_555 1_555
C5 C4 1_555 1_555
C6 C5 1_555 1_555
H3 C6 1_555 1_555
C7 C2 1_555 1_555
H4 C7 1_555 1_555
C8 C5 1_555 1_555
H5 C8 1_555 1_555
H6 C8 1_555 1_555
C9 C10 1_555 1_555
C10 C11 1_555 1_555
C11 H7 1_555 1_555
C12 C11 1_555 1_555
H8 C12 1_555 1_555
C13 C12 1_555 1_555
H9 C13 1_555 1_555
C14 C13 1_555 1_555
C15 C10 1_555 1_555
H10 C15 1_555 1_555
C16 C14 1_555 1_555
C17 C16 1_555 1_555
H11 C17 1_555 1_555
C18 C17 1_555 1_555
H12 C18 1_555 1_555
C19 H13 1_555 1_555
C20 C16 1_555 1_555
H14 C20 1_555 1_555
C21 C22 1_555 1_555
C22 C23 1_555 1_555
C23 H15 1_555 1_555
C24 C23 1_555 1_555
H16 C24 1_555 1_555
C25 C24 1_555 1_555
H17 C25 1_555 1_555
C26 C21 1_555 1_555
H18 C26 1_555 1_555
I1 Zn1 1_555 1_555
N1 C18 1_555 1_555
N2 C9 1_555 1_555
N3 C8 1_555 1_555
O1 C1 1_555 1_555
O2 C1 1_555 1_555
Zn1 N2 1_555 1_555
N1B Zn1 1_555 1_555
O1C Zn1 1_555 1_555
Zn1B N1 1_555 1_555
Zn1C O1 1_555 1_555
C6 C7 1_555 1_555
C9 N3 1_555 1_555
C14 C15 1_555 1_555
C19 C20 1_555 1_555
C19 N1 1_555 1_555
C21 N3 1_555 1_555
C22 N2 1_555 1_555
C25 C26 1_555 1_555

#END
