
#######################################################################
#
#                 Cambridge Crystallographic Data Centre
#                                CCDC 
#
#######################################################################
#
# If this CIF has been generated from an entry in the Cambridge 
# Structural Database, then it will include bibliographic, chemical, 
# crystal, experimental, refinement or atomic coordinate data resulting 
# from the CCDC's data processing and validation procedures.
#
#######################################################################

data_MEXYUL
_symmetry_cell_setting           monoclinic
_symmetry_space_group_name_H-M   'P 21/n'
_symmetry_Int_Tables_number      14
_space_group_name_Hall           '-P 2yn'
loop_
_symmetry_equiv_pos_site_id
_symmetry_equiv_pos_as_xyz
1 x,y,z
2 1/2-x,1/2+y,1/2-z
3 -x,-y,-z
4 1/2+x,1/2-y,1/2+z
_cell_length_a                   7.55550(10)
_cell_length_b                   21.9603(5)
_cell_length_c                   9.8497(2)
_cell_angle_alpha                90
_cell_angle_beta                 105.2590(9)
_cell_angle_gamma                90
_cell_volume                     1576.66
loop_
_atom_site_label
_atom_site_type_symbol
_atom_site_fract_x
_atom_site_fract_y
_atom_site_fract_z
Cu1 Cu 1.0000 0.0000 1.0000
O1 O 0.8865(3) 0.01891(9) 0.7991(2)
O2 O 1.0407(3) 0.10340(9) 0.8724(2)
C1 C 0.9250(4) 0.07429(13) 0.7813(3)
C2 C 0.8188(4) 0.10403(13) 0.6471(3)
C3 C 0.8110(4) 0.16732(13) 0.6368(3)
H1 H 0.8764 0.1915 0.7136
C4 C 0.7084(4) 0.19521(13) 0.5149(3)
C5 C 0.7049(4) 0.26335(14) 0.5099(3)
O3 O 0.7652(3) 0.29491(10) 0.6109(2)
O4 O 0.6367(4) 0.28468(11) 0.3815(2)
H2 H 0.6062 0.3213 0.3859
C6 C 0.6091(4) 0.16024(14) 0.4024(3)
H3 H 0.5391 0.1795 0.3191
C7 C 0.6132(4) 0.09634(14) 0.4127(3)
C8 C 0.7189(4) 0.06904(14) 0.5341(3)
H4 H 0.7234 0.0259 0.5407
C9 C 0.5056(4) 0.05795(15) 0.2918(3)
H5 H 0.4991 0.0156 0.3247
H6 H 0.3788 0.0738 0.2599
N1 N 0.5888(3) 0.05786(11) 0.1726(2)
C10 C 0.7474(4) 0.03079(14) 0.1726(3)
H7 H 0.8234 0.0099 0.2509
N2 N 0.7851(3) 0.03691(11) 0.0488(2)
C11 C 0.6374(4) 0.06878(16) -0.0345(3)
H8 H 0.6227 0.0796 -0.1302
C12 C 0.5170(4) 0.08215(16) 0.0423(3)
H9 H 0.4052 0.1040 0.0114
O1B O 1.1135(3) -0.01891(9) 0.2009(2)
O2B O 0.9593(3) -0.10340(9) 0.1276(2)
C1B C 1.0750(4) -0.07429(13) 0.2187(3)
C2B C 1.1812(4) -0.10403(13) 0.3529(3)
C3B C 1.1890(4) -0.16732(13) 0.3632(3)
H1B H 1.1236 -0.1915 0.2864
C4B C 1.2916(4) -0.19521(13) 0.4851(3)
C5B C 1.2951(4) -0.26335(14) 0.4901(3)
O3B O 1.2348(3) -0.29491(10) 0.3891(2)
O4B O 1.3633(4) -0.28468(11) 0.6185(2)
H2B H 1.3938 -0.3213 0.6141
C6B C 1.3909(4) -0.16024(14) 0.5976(3)
H3B H 1.4609 -0.1795 0.6809
C7B C 1.3868(4) -0.09634(14) 0.5873(3)
C8B C 1.2811(4) -0.06904(14) 0.4659(3)
H4B H 1.2766 -0.0259 0.4593
C9B C 1.4944(4) -0.05795(15) 0.7082(3)
H5B H 1.5009 -0.0156 0.6753
H6B H 1.6212 -0.0738 0.7401
N1B N 1.4112(3) -0.05786(11) 0.8274(2)
C10B C 1.2526(4) -0.03079(14) 0.8274(3)
H7B H 1.1766 -0.0099 0.7491
N2B N 1.2149(3) -0.03691(11) 0.9512(2)
C11B C 1.3626(4) -0.06878(16) 1.0345(3)
H8B H 1.3773 -0.0796 1.1302
C12B C 1.4830(4) -0.08215(16) 0.9577(3)
H9B H 1.5948 -0.1040 0.9886
Cu1_2 Cu 1.0000 0.0000 0.0000
O1B_2 O 1.1135(3) -0.01891(9) 1.2009(2)
O2B_2 O 0.9593(3) -0.10340(9) 1.1276(2)
N2_2 N 0.7851(3) 0.03691(11) 1.0488(2)
O5 O 0.2857(5) 0.07385(14) 0.6088(3)
C13 C 0.2918(6) 0.1295(2) 0.6124(5)
H10 H 0.3629 0.1481 0.6962
N3 N 0.2068(4) 0.16587(16) 0.5085(4)
C14 C 0.2170(7) 0.2311(2) 0.5154(8)
H11 H 0.2934 0.2435 0.6079
H12 H 0.0934 0.2480 0.5012
H13 H 0.2713 0.2463 0.4419
C15 C 0.0989(6) 0.1401(3) 0.3784(6)
H14 H 0.1138 0.0958 0.3810
H15 H 0.1402 0.1568 0.2997
H16 H -0.0307 0.1503 0.3662
loop_
_geom_bond_atom_site_label_1
_geom_bond_atom_site_label_2
_geom_bond_site_symmetry_1
_geom_bond_site_symmetry_2
Cu1 O1 1_555 1_555
O1 C1 1_555 1_555
O2 Cu1 1_555 1_555
C1 O2 1_555 1_555
C2 C1 1_555 1_555
C3 C2 1_555 1_555
H1 C3 1_555 1_555
C4 C3 1_555 1_555
C5 C4 1_555 1_555
O3 C5 1_555 1_555
O4 C5 1_555 1_555
H2 O4 1_555 1_555
C6 C4 1_555 1_555
H3 C6 1_555 1_555
C7 C6 1_555 1_555
C8 C2 1_555 1_555
H4 C8 1_555 1_555
C9 C7 1_555 1_555
H5 C9 1_555 1_555
H6 C9 1_555 1_555
N1 C9 1_555 1_555
C10 N1 1_555 1_555
H7 C10 1_555 1_555
N2 C10 1_555 1_555
C11 N2 1_555 1_555
H8 C11 1_555 1_555
C12 N1 1_555 1_555
H9 C12 1_555 1_555
O5 C13 1_555 1_555
C13 H10 1_555 1_555
N3 C13 1_555 1_555
C14 N3 1_555 1_555
H11 C14 1_555 1_555
H12 C14 1_555 1_555
H13 C14 1_555 1_555
C15 N3 1_555 1_555
H14 C15 1_555 1_555
H15 C15 1_555 1_555
H16 C15 1_555 1_555
O1B C1B 1_555 1_555
O2B C1B 1_555 1_555
C1B C2B 1_555 1_555
C2B C3B 1_555 1_555
C3B H1B 1_555 1_555
C4B C3B 1_555 1_555
C5B C4B 1_555 1_555
O3B C5B 1_555 1_555
O4B C5B 1_555 1_555
H2B O4B 1_555 1_555
C6B C4B 1_555 1_555
H3B C6B 1_555 1_555
C7B C6B 1_555 1_555
C8B C2B 1_555 1_555
H4B C8B 1_555 1_555
C9B C7B 1_555 1_555
H5B C9B 1_555 1_555
H6B C9B 1_555 1_555
N1B C9B 1_555 1_555
C10B N1B 1_555 1_555
H7B C10B 1_555 1_555
N2B Cu1 1_555 1_555
C11B N2B 1_555 1_555
H8B C11B 1_555 1_555
C12B N1B 1_555 1_555
H9B C12B 1_555 1_555
Cu1_2 N2 1_555 1_555
O1B_2 Cu1 1_555 1_555
O2B_2 Cu1 1_555 1_555
N2_2 Cu1 1_555 1_555
C7 C8 1_555 1_555
C11 C12 1_555 1_555
O1B Cu1_2 1_555 1_555
O2B Cu1_2 1_555 1_555
C7B C8B 1_555 1_555
C10B N2B 1_555 1_555
C11B C12B 1_555 1_555

#END
