
#######################################################################
#
#                 Cambridge Crystallographic Data Centre
#                                CCDC 
#
#######################################################################
#
# If this CIF has been generated from an entry in the Cambridge 
# Structural Database, then it will include bibliographic, chemical, 
# crystal, experimental, refinement or atomic coordinate data resulting 
# from the CCDC's data processing and validation procedures.
#
#######################################################################

data_MEYFUR
_symmetry_cell_setting           orthorhombic
_symmetry_space_group_name_H-M   'F d d 2'
_symmetry_Int_Tables_number      43
_space_group_name_Hall           'F 2 -2d'
loop_
_symmetry_equiv_pos_site_id
_symmetry_equiv_pos_as_xyz
1 x,y,z
2 -x,-y,z
3 1/4+x,1/4-y,1/4+z
4 1/4-x,1/4+y,1/4+z
5 x,1/2+y,1/2+z
6 -x,1/2-y,1/2+z
7 1/4+x,3/4-y,3/4+z
8 1/4-x,3/4+y,3/4+z
9 1/2+x,y,1/2+z
10 1/2-x,-y,1/2+z
11 3/4+x,1/4-y,3/4+z
12 3/4-x,1/4+y,3/4+z
13 1/2+x,1/2+y,z
14 1/2-x,1/2-y,z
15 3/4+x,3/4-y,1/4+z
16 3/4-x,3/4+y,1/4+z
_cell_length_a                   15.225(3)
_cell_length_b                   22.663(5)
_cell_length_c                   7.532(2)
_cell_angle_alpha                90
_cell_angle_beta                 90
_cell_angle_gamma                90
_cell_volume                     2598.87
loop_
_atom_site_label
_atom_site_type_symbol
_atom_site_fract_x
_atom_site_fract_y
_atom_site_fract_z
Rb1 Rb 0.08329(2) 0.269708(13) 0.03353(8)
O1 O 0.1374(3) 0.23251(13) -0.3066(4)
O2 O 0.1966(2) 0.14413(12) -0.2499(3)
C1 C 0.1628(3) 0.18309(17) -0.3506(5)
C2 C 0.1488(3) 0.16452(17) -0.5440(5)
H1 H 0.114(3) 0.125(2) -0.558(6)
O3 O 0.1038(2) 0.21054(14) -0.6351(4)
H2 H 0.109(5) 0.237(3) -0.579(10)
C3 C 0.2367(3) 0.1510(2) -0.6336(5)
H3 H 0.279(3) 0.188(2) -0.620(8)
H4 H 0.264(3) 0.120(2) -0.582(7)
C4 C 0.2228(3) 0.13096(18) -0.8233(5)
O4 O 0.2087(2) 0.08007(12) -0.8642(4)
O5 O 0.2293(2) 0.17371(11) -0.9393(4)
H5 H 0.209(4) 0.157(2) -1.062(7)
O2C O 0.0534(2) 0.39413(12) 0.0001(3)
O3_2 O 0.1038(2) 0.21054(14) 0.3649(4)
O3E O -0.1038(2) 0.28946(14) -0.1351(4)
O4C O 0.0413(2) 0.33007(12) 0.3858(4)
O4J O -0.0413(2) 0.16993(12) -0.1142(4)
O5_2 O 0.2293(2) 0.17371(11) 0.0607(4)
O5M O 0.2707(2) 0.32629(11) 0.0607(4)
Rb1G Rb 0.16671(2) 0.019708(13) -0.21647(8)
Rb1_2 Rb 0.08329(2) 0.269708(13) -0.96647(8)
Rb1E Rb -0.08329(2) 0.230292(13) -0.46647(8)
Rb1B Rb 0.33329(2) -0.019708(13) -0.71647(8)
Rb1G_2 Rb 0.16671(2) 0.019708(13) -1.21647(8)
Rb1M Rb 0.41671(2) 0.230292(13) -0.96647(8)
H2_2 H 0.109(5) 0.237(3) 0.421(10)
H2E H -0.109(5) 0.263(3) -0.079(10)
H5_2 H 0.209(4) 0.157(2) -0.062(7)
H5M H 0.291(4) 0.343(2) -0.062(7)
loop_
_geom_bond_atom_site_label_1
_geom_bond_atom_site_label_2
_geom_bond_site_symmetry_1
_geom_bond_site_symmetry_2
Rb1 O1 1_555 1_555
O1 C1 1_555 1_555
O2 C1 1_555 1_555
C1 C2 1_555 1_555
C2 H1 1_555 1_555
O3 C2 1_555 1_555
H2 O3 1_555 1_555
C3 C2 1_555 1_555
H3 C3 1_555 1_555
H4 C3 1_555 1_555
C4 C3 1_555 1_555
O4 C4 1_555 1_555
O5 C4 1_555 1_555
H5 O5 1_555 1_555
O2C Rb1 1_555 1_555
O3_2 Rb1 1_555 1_555
O3E Rb1 1_555 1_555
O4C Rb1 1_555 1_555
O4J Rb1 1_555 1_555
O5_2 Rb1 1_555 1_555
O5M Rb1 1_555 1_555
Rb1G O2 1_555 1_555
Rb1_2 O3 1_555 1_555
Rb1E O3 1_555 1_555
Rb1B O4 1_555 1_555
Rb1G_2 O4 1_555 1_555
Rb1M O5 1_555 1_555
H2_2 O3_2 1_555 1_555
H2E O3E 1_555 1_555
H5_2 O5_2 1_555 1_555
H5M O5M 1_555 1_555
O5 Rb1_2 1_555 1_555
O3E Rb1E 1_555 1_555
O4J Rb1E 1_555 1_555

#END
