
#######################################################################
#
#                 Cambridge Crystallographic Data Centre
#                                CCDC 
#
#######################################################################
#
# If this CIF has been generated from an entry in the Cambridge 
# Structural Database, then it will include bibliographic, chemical, 
# crystal, experimental, refinement or atomic coordinate data resulting 
# from the CCDC's data processing and validation procedures.
#
#######################################################################

data_MEYGAY
_symmetry_cell_setting           monoclinic
_symmetry_space_group_name_H-M   'P 21/n'
_symmetry_Int_Tables_number      14
_space_group_name_Hall           '-P 2yn'
loop_
_symmetry_equiv_pos_site_id
_symmetry_equiv_pos_as_xyz
1 x,y,z
2 1/2-x,1/2+y,1/2-z
3 -x,-y,-z
4 1/2+x,1/2-y,1/2+z
_cell_length_a                   7.551(2)
_cell_length_b                   14.512(3)
_cell_length_c                   7.610(2)
_cell_angle_alpha                90
_cell_angle_beta                 105.85(3)
_cell_angle_gamma                90
_cell_volume                     802.2
loop_
_atom_site_label
_atom_site_type_symbol
_atom_site_fract_x
_atom_site_fract_y
_atom_site_fract_z
Cs1 Cs 0.81034(3) 0.069330(13) 1.70813(2)
O1 O 0.9108(3) 0.09335(18) 1.3357(3)
O2 O 0.8402(3) 0.18020(16) 1.0843(3)
C1 C 0.8011(4) 0.1253(2) 1.1985(4)
C2 C 0.5995(4) 0.0952(2) 1.1527(4)
H1 H 0.573(5) 0.066(2) 1.035(5)
O3 O 0.5639(3) 0.03343(19) 1.2824(3)
H2 H 0.635(6) -0.001(3) 1.293(6)
C3 C 0.4759(4) 0.1780(2) 1.1440(6)
H3 H 0.496(5) 0.218(3) 1.051(5)
H4 H 0.511(5) 0.207(3) 1.268(5)
C4 C 0.2733(4) 0.1551(2) 1.0863(4)
O4 O 0.2080(3) 0.08486(16) 1.0096(3)
O5 O 0.1740(3) 0.22118(16) 1.1294(3)
H5 H 0.055(6) 0.205(3) 1.113(6)
O6 O 0.7492(5) -0.1257(2) 1.4290(5)
H6 H 0.717(5) -0.179(3) 1.424(5)
H7 H 0.842(6) -0.127(3) 1.501(5)
O1B O 1.0892(3) -0.09335(18) 1.6643(3)
O2_2 O 0.8402(3) 0.18020(16) 2.0843(3)
O3B O 0.4361(3) -0.03343(19) 1.7176(3)
O4_2 O 1.2080(3) 0.08486(16) 2.0096(3)
O4B O 0.7920(3) -0.08486(16) 1.9904(3)
O5C O 0.6740(3) 0.27882(16) 1.6294(3)
Cs1B Cs 1.18966(3) -0.069330(13) 1.29187(2)
Cs1_2 Cs 0.81034(3) 0.069330(13) 0.70813(2)
Cs1B_2 Cs 0.18966(3) -0.069330(13) 1.29187(2)
Cs1_3 Cs -0.18966(3) 0.069330(13) 0.70813(2)
Cs1C Cs 0.31034(3) 0.430670(13) 1.20813(2)
H2B H 0.365(6) 0.001(3) 1.707(6)
H5C H 0.555(6) 0.295(3) 1.613(6)
loop_
_geom_bond_atom_site_label_1
_geom_bond_atom_site_label_2
_geom_bond_site_symmetry_1
_geom_bond_site_symmetry_2
Cs1 O1 1_555 1_555
O1 C1 1_555 1_555
O2 C1 1_555 1_555
C1 C2 1_555 1_555
C2 H1 1_555 1_555
O3 Cs1 1_555 1_555
H2 O3 1_555 1_555
C3 C2 1_555 1_555
H3 C3 1_555 1_555
H4 C3 1_555 1_555
C4 C3 1_555 1_555
O4 C4 1_555 1_555
O5 C4 1_555 1_555
H5 O5 1_555 1_555
O6 Cs1 1_555 1_555
H6 O6 1_555 1_555
H7 O6 1_555 1_555
O1B Cs1 1_555 1_555
O2_2 Cs1 1_555 1_555
O3B Cs1 1_555 1_555
O4_2 Cs1 1_555 1_555
O4B Cs1 1_555 1_555
O5C Cs1 1_555 1_555
Cs1B O1 1_555 1_555
Cs1_2 O2 1_555 1_555
Cs1B_2 O3 1_555 1_555
Cs1_3 O4 1_555 1_555
Cs1C O5 1_555 1_555
H2B O3B 1_555 1_555
H5C O5C 1_555 1_555
C2 O3 1_555 1_555
O4 Cs1B_2 1_555 1_555
O1B Cs1B 1_555 1_555
O3B Cs1B_2 1_555 1_555

#END
