
#######################################################################
#
#                 Cambridge Crystallographic Data Centre
#                                CCDC 
#
#######################################################################
#
# If this CIF has been generated from an entry in the Cambridge 
# Structural Database, then it will include bibliographic, chemical, 
# crystal, experimental, refinement or atomic coordinate data resulting 
# from the CCDC's data processing and validation procedures.
#
#######################################################################

data_MEYKOS
_symmetry_cell_setting           monoclinic
_symmetry_space_group_name_H-M   'P 2/n'
_symmetry_Int_Tables_number      13
_space_group_name_Hall           '-P 2yac'
loop_
_symmetry_equiv_pos_site_id
_symmetry_equiv_pos_as_xyz
1 x,y,z
2 1/2-x,y,1/2-z
3 -x,-y,-z
4 1/2+x,-y,1/2+z
_cell_length_a                   12.809(6)
_cell_length_b                   4.541(2)
_cell_length_c                   18.788(9)
_cell_angle_alpha                90
_cell_angle_beta                 97.621(7)
_cell_angle_gamma                90
_cell_volume                     1083.16
loop_
_atom_site_label
_atom_site_type_symbol
_atom_site_fract_x
_atom_site_fract_y
_atom_site_fract_z
Ag1 Ag 0.75421(8) 0.9855(2) 0.60049(5)
Ag2 Ag 0.85289(9) 1.4548(2) 0.70705(6)
I1 I 0.63534(6) 1.47674(16) 0.64143(4)
I2 I 0.96478(6) 0.95382(17) 0.66561(4)
C1 C 0.8601(10) 0.586(3) 0.4589(6)
H1 H 0.8950 0.6544 0.5043
H2 H 0.9058 0.6107 0.4228
H3 H 0.8427 0.3814 0.4626
C2 C 0.7609(8) 0.761(3) 0.4386(5)
C3 C 0.6278(9) 1.050(3) 0.4420(6)
H4 H 0.5815 1.1834 0.4588
C4 C 0.6185(10) 0.943(3) 0.3761(6)
H5 H 0.5652 0.9847 0.3389
C5 C 0.7218(13) 0.581(3) 0.3114(6)
H6 H 0.6590 0.4682 0.2949
H7 H 0.7788 0.4433 0.3254
C6 C 0.7500 0.775(3) 0.2500
H8 H 0.6907 0.9001 0.2327
N1 N 0.7162(7) 0.936(2) 0.4819(4)
N2 N 0.7037(7) 0.754(2) 0.3730(4)
C1A C 0.6399(10) 0.586(3) 0.0411(6)
H1A H 0.6050 0.6544 -0.0043
H2A H 0.5942 0.6107 0.0772
H3A H 0.6573 0.3814 0.0374
C2A C 0.7391(8) 0.761(3) 0.0614(5)
C3A C 0.8722(9) 1.050(3) 0.0580(6)
H4A H 0.9185 1.1834 0.0412
C4A C 0.8815(10) 0.943(3) 0.1239(6)
H5A H 0.9348 0.9847 0.1611
C5A C 0.7782(13) 0.581(3) 0.1886(6)
H6A H 0.8410 0.4682 0.2051
H7A H 0.7212 0.4433 0.1746
H8A H 0.8093 0.9001 0.2673
N1A N 0.7838(7) 0.936(2) 0.0181(4)
N2A N 0.7963(7) 0.754(2) 0.1270(4)
Ag1A Ag 0.74579(8) 0.9855(2) -0.10049(5)
Ag2A Ag 0.64711(9) 1.4548(2) -0.20705(6)
I1A I 0.86466(6) 1.47674(16) -0.14143(4)
I2A I 0.53522(6) 0.95382(17) -0.16561(4)
Ag1_2 Ag 0.75421(8) 1.9855(2) 0.60049(5)
Ag1A_2 Ag 0.74579(8) 1.9855(2) -0.10049(5)
Ag2_2 Ag 0.85289(9) 0.4548(2) 0.70705(6)
Ag2_3 Ag 0.85289(9) 1.4548(2) -0.29295(6)
Ag2A_2 Ag 0.64711(9) 0.4548(2) -0.20705(6)
Ag2A_3 Ag 0.64711(9) 1.4548(2) 0.79295(6)
I1_2 I 0.63534(6) 0.47674(16) 0.64143(4)
I1_3 I 0.63534(6) 1.47674(16) -0.35857(4)
I1A_2 I 0.86466(6) 0.47674(16) -0.14143(4)
I1A_3 I 0.86466(6) 1.47674(16) 0.85857(4)
I2_2 I 0.96478(6) 1.95382(17) 0.66561(4)
I2A_2 I 0.53522(6) 1.95382(17) -0.16561(4)
loop_
_geom_bond_atom_site_label_1
_geom_bond_atom_site_label_2
_geom_bond_site_symmetry_1
_geom_bond_site_symmetry_2
Ag1 I1 1_555 1_555
Ag2 I1 1_555 1_555
I1 Ag1_2 1_555 1_555
I2 Ag1 1_555 1_555
C1 H1 1_555 1_555
H2 C1 1_555 1_555
H3 C1 1_555 1_555
C2 C1 1_555 1_555
C3 H4 1_555 1_555
C4 C3 1_555 1_555
H5 C4 1_555 1_555
C5 H6 1_555 1_555
H7 C5 1_555 1_555
C6 C5 1_555 1_555
H8 C6 1_555 1_555
N1 Ag1 1_555 1_555
N2 C2 1_555 1_555
C1A H1A 1_555 1_555
H2A C1A 1_555 1_555
H3A C1A 1_555 1_555
C2A C1A 1_555 1_555
C3A H4A 1_555 1_555
C4A C3A 1_555 1_555
H5A C4A 1_555 1_555
C5A C6 1_555 1_555
H6A C5A 1_555 1_555
H7A C5A 1_555 1_555
H8A C6 1_555 1_555
N1A C2A 1_555 1_555
N2A C2A 1_555 1_555
Ag1A N1A 1_555 1_555
Ag2A I1A 1_555 1_555
I1A Ag1A 1_555 1_555
I2A Ag1A 1_555 1_555
Ag1_2 I2_2 1_555 1_555
Ag1A_2 I1A 1_555 1_555
Ag2_2 I2 1_555 1_555
Ag2_3 I1A 1_555 1_555
Ag2A_2 I2A 1_555 1_555
Ag2A_3 I1 1_555 1_555
I1_2 Ag1 1_555 1_555
I1_3 Ag2A 1_555 1_555
I1A_2 Ag1A 1_555 1_555
I1A_3 Ag2 1_555 1_555
I2_2 Ag2 1_555 1_555
I2A_2 Ag2A 1_555 1_555
Ag2 I2 1_555 1_555
C2 N1 1_555 1_555
C3 N1 1_555 1_555
C4 N2 1_555 1_555
C5 N2 1_555 1_555
C3A N1A 1_555 1_555
C4A N2A 1_555 1_555
C5A N2A 1_555 1_555
Ag2A I2A 1_555 1_555
Ag1A_2 I2A_2 1_555 1_555
Ag2_2 I1_2 1_555 1_555
Ag2_3 I1_3 1_555 1_555
Ag2A_2 I1A_2 1_555 1_555
Ag2A_3 I1A_3 1_555 1_555

#END
