
#######################################################################
#
#                 Cambridge Crystallographic Data Centre
#                                CCDC 
#
#######################################################################
#
# If this CIF has been generated from an entry in the Cambridge 
# Structural Database, then it will include bibliographic, chemical, 
# crystal, experimental, refinement or atomic coordinate data resulting 
# from the CCDC's data processing and validation procedures.
#
#######################################################################

data_MEYXAP
_symmetry_cell_setting           triclinic
_symmetry_space_group_name_H-M   'P -1'
_symmetry_Int_Tables_number      2
_space_group_name_Hall           '-P 1'
loop_
_symmetry_equiv_pos_site_id
_symmetry_equiv_pos_as_xyz
1 x,y,z
2 -x,-y,-z
_cell_length_a                   8.9752(6)
_cell_length_b                   12.4973(8)
_cell_length_c                   17.1536(10)
_cell_angle_alpha                97.0230(10)
_cell_angle_beta                 95.5590(10)
_cell_angle_gamma                96.9410(10)
_cell_volume                     1883.4
loop_
_atom_site_label
_atom_site_type_symbol
_atom_site_fract_x
_atom_site_fract_y
_atom_site_fract_z
Yb1 Yb 0.67232(2) 0.975518(16) 0.755252(10)
C1 C 0.4553(6) 1.1717(4) 0.8357(3)
N1 N 0.5270(5) 1.1143(4) 0.8017(3)
O1 O 0.5343(4) 0.9004(3) 0.84552(18)
S1 S 0.56248(14) 0.86177(11) 0.92532(7)
C2 C 0.7653(6) 0.8147(5) 0.5860(3)
N2 N 0.7247(5) 0.8628(4) 0.6394(3)
O2 O 0.4341(3) 0.9007(3) 0.68766(18)
S2 S 0.29698(14) 0.84405(11) 0.71842(7)
C3 C 0.8923(6) 0.7731(4) 0.8092(3)
N3 N 0.8153(5) 0.8391(4) 0.7990(3)
O3 O 0.6419(4) 1.0833(3) 0.65330(18)
S3 S 0.51145(13) 1.11867(11) 0.60553(7)
C4 C 0.4575(6) 0.9438(4) 0.9881(3)
H1 H 0.3598 0.9485 0.9602
H2 H 0.4409 0.9098 1.0350
O4 O -0.0936(4) 1.0589(3) 0.73372(19)
S4 S -0.02052(14) 1.07641(12) 0.65942(8)
C5 C 0.4386(7) 0.7359(5) 0.9159(3)
H3 H 0.4290 0.7149 0.9680
H4 H 0.3391 0.7460 0.8928
O5 O 0.7979(4) 1.0567(3) 0.88093(19)
S5 S 0.96243(15) 1.10056(14) 0.90673(8)
C6 C 0.4961(12) 0.6469(6) 0.8653(5)
H5 H 0.4523 0.6482 0.8115
H6 H 0.6040 0.6680 0.8665
S6 S 0.3537(2) 1.24827(18) 0.88517(11)
C7 C 0.480(4) 0.5587(13) 0.8760(11)
H7 H 0.5277 0.5159 0.8379
H8 H 0.3740 0.5324 0.8709
H9 H 0.5245 0.5532 0.9283
S7 S 0.8233(3) 0.7488(3) 0.50980(13)
C8 C 0.1646(6) 0.9420(5) 0.7244(4)
H10 H 0.0770 0.9105 0.7468
H11 H 0.2113 1.0054 0.7607
S8 S 1.0053(2) 0.68428(15) 0.82391(12)
C9 C 0.2074(7) 0.7475(5) 0.6367(4)
H12 H 0.1073 0.7194 0.6478
H13 H 0.1964 0.7834 0.5899
C10 C 0.2955(11) 0.6567(6) 0.6215(5)
H14 H 0.3083 0.6216 0.6687
H15 H 0.3949 0.6846 0.6092
C11 C 0.2163(13) 0.5732(7) 0.5525(6)
H16 H 0.2757 0.5148 0.5438
H17 H 0.2050 0.6076 0.5057
H18 H 0.1185 0.5447 0.5650
C12 C 0.5265(7) 1.0610(4) 0.5057(3)
H19 H 0.4653 1.0956 0.4691
H20 H 0.6307 1.0740 0.4947
C13 C 0.5734(7) 1.2586(4) 0.5950(3)
H21 H 0.6736 1.2646 0.5779
H22 H 0.5055 1.2819 0.5548
C14 C 0.5766(9) 1.3323(5) 0.6732(4)
H23 H 0.6414 1.3073 0.7138
H24 H 0.4756 1.3284 0.6893
C15 C 0.6348(13) 1.4502(6) 0.6653(6)
H25 H 0.6355 1.4951 0.7149
H26 H 0.5699 1.4753 0.6255
H27 H 0.7355 1.4543 0.6504
C16 C 0.1114(7) 0.9787(5) 0.6471(4)
H28 H 0.0634 0.9160 0.6105
H29 H 0.1980 1.0112 0.6245
C17 C 0.1035(6) 1.2013(5) 0.6876(4)
H30 H 0.1513 1.2034 0.7411
H31 H 0.1821 1.2057 0.6527
C18 C 0.0170(9) 1.2963(6) 0.6834(5)
H32 H -0.0672 1.2880 0.7147
H33 H -0.0238 1.2971 0.6291
C19 C 0.1149(13) 1.4026(7) 0.7134(7)
H34 H 0.0559 1.4613 0.7100
H35 H 0.1971 1.4117 0.6820
H36 H 0.1540 1.4025 0.7675
C20 C 1.0010(7) 1.0596(5) 1.0035(4)
H37 H 1.0991 1.0955 1.0281
H38 H 0.9254 1.0813 1.0367
C21 C 0.9580(13) 1.2412(8) 0.9425(7)
H39 H 0.9100 1.2443 0.9909
H40 H 1.0615 1.2757 0.9564
C22 C 0.890(2) 1.2992(11) 0.8956(12)
H41 H 0.7934 1.2565 0.8751
H42 H 0.9482 1.3028 0.8510
C23 C 0.858(2) 1.4098(11) 0.9189(10)
H43 H 0.8189 1.4389 0.8731
H44 H 0.9493 1.4545 0.9429
H45 H 0.7846 1.4085 0.9561
C4A C 0.5425(6) 1.0562(4) 1.0119(3)
S1A S 0.43752(14) 1.13823(11) 1.07468(7)
O1A O 0.4657(4) 1.0996(3) 1.15448(18)
C5A C 0.5614(7) 1.2641(5) 1.0841(3)
H3A H 0.5710 1.2851 1.0320
H4A H 0.6609 1.2540 1.1072
C6A C 0.5039(12) 1.3531(6) 1.1347(5)
H5A H 0.5477 1.3518 1.1885
H6A H 0.3960 1.3320 1.1335
C7A C 0.520(4) 1.4413(13) 1.1240(11)
H7A H 0.4723 1.4841 1.1621
H8A H 0.6260 1.4676 1.1291
H9A H 0.4755 1.4468 1.0717
H1A H 0.6402 1.0515 1.0398
H2A H 0.5591 1.0902 0.9650
C12A C 0.4735(7) 0.9390(4) 0.4943(3)
S3A S 0.48855(13) 0.88133(11) 0.39447(7)
O3A O 0.3581(4) 0.9167(3) 0.34670(18)
C13A C 0.4266(7) 0.7414(4) 0.4050(3)
H21A H 0.3264 0.7354 0.4221
H22A H 0.4945 0.7181 0.4452
C14A C 0.4234(9) 0.6677(5) 0.3268(4)
H23A H 0.3586 0.6927 0.2862
H24A H 0.5244 0.6716 0.3107
C15A C 0.3652(13) 0.5498(6) 0.3347(6)
H25A H 0.3645 0.5049 0.2851
H26A H 0.4301 0.5247 0.3745
H27A H 0.2645 0.5457 0.3496
H19A H 0.5347 0.9044 0.5309
H20A H 0.3693 0.9260 0.5053
C20A C 0.9990(7) 0.9404(5) 0.9965(4)
S5A S 1.03757(15) 0.89944(14) 1.09327(8)
O5A O 1.2021(4) 0.9433(3) 1.11907(19)
C21A C 1.0420(13) 0.7588(8) 1.0575(7)
H39A H 1.0900 0.7557 1.0091
H40A H 0.9385 0.7243 1.0436
C22A C 1.110(2) 0.7008(11) 1.1044(12)
H41A H 1.2066 0.7435 1.1249
H42A H 1.0518 0.6972 1.1490
C23A C 1.142(2) 0.5902(11) 1.0811(10)
H43A H 1.1811 0.5611 1.1269
H44A H 1.0507 0.5455 1.0571
H45A H 1.2154 0.5915 1.0439
H37A H 0.9009 0.9045 0.9719
H38A H 1.0746 0.9187 0.9633
O2_2 O 1.4341(3) 0.9007(3) 0.68766(18)
S2_2 S 1.29698(14) 0.84405(11) 0.71842(7)
O4_2 O 0.9064(4) 1.0589(3) 0.73372(19)
S4_2 S 0.97948(14) 1.07641(12) 0.65942(8)
C8_2 C 1.1646(6) 0.9420(5) 0.7244(4)
H10_2 H 1.0770 0.9105 0.7468
H11_2 H 1.2113 1.0054 0.7607
C9_2 C 1.2074(7) 0.7475(5) 0.6367(4)
H12_2 H 1.1073 0.7194 0.6478
H13_2 H 1.1964 0.7834 0.5899
C10_2 C 1.2955(11) 0.6567(6) 0.6215(5)
H14_2 H 1.3083 0.6216 0.6687
H15_2 H 1.3949 0.6846 0.6092
C11_2 C 1.2163(13) 0.5732(7) 0.5525(6)
H16_2 H 1.2757 0.5148 0.5438
H17_2 H 1.2050 0.6076 0.5057
H18_2 H 1.1185 0.5447 0.5650
C16_2 C 1.1114(7) 0.9787(5) 0.6471(4)
H28_2 H 1.0634 0.9160 0.6105
H29_2 H 1.1980 1.0112 0.6245
C17_2 C 1.1035(6) 1.2013(5) 0.6876(4)
H30_2 H 1.1513 1.2034 0.7411
H31_2 H 1.1821 1.2057 0.6527
C18_2 C 1.0170(9) 1.2963(6) 0.6834(5)
H32_2 H 0.9328 1.2880 0.7147
H33_2 H 0.9762 1.2971 0.6291
C19_2 C 1.1149(13) 1.4026(7) 0.7134(7)
H34_2 H 1.0559 1.4613 0.7100
H35_2 H 1.1971 1.4117 0.6820
H36_2 H 1.1540 1.4025 0.7675
Yb1A Yb 0.32768(2) 1.024482(16) 1.244748(10)
C1A C 0.5447(6) 0.8283(4) 1.1643(3)
N1A N 0.4730(5) 0.8857(4) 1.1983(3)
S6A S 0.6463(2) 0.75173(18) 1.11483(11)
C2A C 0.2347(6) 1.1853(5) 1.4140(3)
N2A N 0.2753(5) 1.1372(4) 1.3606(3)
S7A S 0.1767(3) 1.2512(3) 1.49020(13)
C3A C 0.1077(6) 1.2269(4) 1.1908(3)
N3A N 0.1847(5) 1.1609(4) 1.2010(3)
S8A S -0.0053(2) 1.31572(15) 1.17609(12)
Yb1_2 Yb -0.32768(2) 0.975518(16) 0.755252(10)
Yb1A_2 Yb 0.32768(2) 1.024482(16) 0.244748(10)
Yb1A_3 Yb 1.32768(2) 1.024482(16) 1.244748(10)
Yb1_3 Yb 1.67232(2) 0.975518(16) 0.755252(10)
O2A O 0.5659(3) 1.0993(3) 1.31234(18)
O3A_2 O 0.3581(4) 0.9167(3) 1.34670(18)
O4A O 0.0936(4) 0.9411(3) 1.26628(19)
O5A_2 O 0.2021(4) 0.9433(3) 1.11907(19)
loop_
_geom_bond_atom_site_label_1
_geom_bond_atom_site_label_2
_geom_bond_site_symmetry_1
_geom_bond_site_symmetry_2
Yb1 N1 1_555 1_555
C1 N1 1_555 1_555
O1 Yb1 1_555 1_555
S1 O1 1_555 1_555
C2 N2 1_555 1_555
N2 Yb1 1_555 1_555
O2 Yb1 1_555 1_555
S2 O2 1_555 1_555
C3 N3 1_555 1_555
N3 Yb1 1_555 1_555
O3 Yb1 1_555 1_555
S3 O3 1_555 1_555
C4 S1 1_555 1_555
H1 C4 1_555 1_555
H2 C4 1_555 1_555
O4 S4 1_555 1_555
S4 C16 1_555 1_555
C5 S1 1_555 1_555
H3 C5 1_555 1_555
H4 C5 1_555 1_555
O5 Yb1 1_555 1_555
S5 O5 1_555 1_555
C6 C5 1_555 1_555
H5 C6 1_555 1_555
H6 C6 1_555 1_555
S6 C1 1_555 1_555
C7 C6 1_555 1_555
H7 C7 1_555 1_555
H8 C7 1_555 1_555
H9 C7 1_555 1_555
S7 C2 1_555 1_555
C8 S2 1_555 1_555
H10 C8 1_555 1_555
H11 C8 1_555 1_555
S8 C3 1_555 1_555
C9 S2 1_555 1_555
H12 C9 1_555 1_555
H13 C9 1_555 1_555
C10 C9 1_555 1_555
H14 C10 1_555 1_555
H15 C10 1_555 1_555
C11 C10 1_555 1_555
H16 C11 1_555 1_555
H17 C11 1_555 1_555
H18 C11 1_555 1_555
C12 S3 1_555 1_555
H19 C12 1_555 1_555
H20 C12 1_555 1_555
C13 S3 1_555 1_555
H21 C13 1_555 1_555
H22 C13 1_555 1_555
C14 C13 1_555 1_555
H23 C14 1_555 1_555
H24 C14 1_555 1_555
C15 C14 1_555 1_555
H25 C15 1_555 1_555
H26 C15 1_555 1_555
H27 C15 1_555 1_555
C16 C8 1_555 1_555
H28 C16 1_555 1_555
H29 C16 1_555 1_555
C17 S4 1_555 1_555
H30 C17 1_555 1_555
H31 C17 1_555 1_555
C18 C17 1_555 1_555
H32 C18 1_555 1_555
H33 C18 1_555 1_555
C19 C18 1_555 1_555
H34 C19 1_555 1_555
H35 C19 1_555 1_555
H36 C19 1_555 1_555
C20 S5 1_555 1_555
H37 C20 1_555 1_555
H38 C20 1_555 1_555
C21 S5 1_555 1_555
H39 C21 1_555 1_555
H40 C21 1_555 1_555
C22 C21 1_555 1_555
H41 C22 1_555 1_555
H42 C22 1_555 1_555
C23 C22 1_555 1_555
H43 C23 1_555 1_555
H44 C23 1_555 1_555
H45 C23 1_555 1_555
C4A C4 1_555 1_555
S1A C4A 1_555 1_555
O1A S1A 1_555 1_555
C5A S1A 1_555 1_555
H3A C5A 1_555 1_555
H4A C5A 1_555 1_555
C6A C5A 1_555 1_555
H5A C6A 1_555 1_555
H6A C6A 1_555 1_555
C7A C6A 1_555 1_555
H7A C7A 1_555 1_555
H8A C7A 1_555 1_555
H9A C7A 1_555 1_555
H1A C4A 1_555 1_555
H2A C4A 1_555 1_555
C12A C12 1_555 1_555
S3A C12A 1_555 1_555
O3A S3A 1_555 1_555
C13A S3A 1_555 1_555
H21A C13A 1_555 1_555
H22A C13A 1_555 1_555
C14A C13A 1_555 1_555
H23A C14A 1_555 1_555
H24A C14A 1_555 1_555
C15A C14A 1_555 1_555
H25A C15A 1_555 1_555
H26A C15A 1_555 1_555
H27A C15A 1_555 1_555
H19A C12A 1_555 1_555
H20A C12A 1_555 1_555
C20A C20 1_555 1_555
S5A C20A 1_555 1_555
O5A S5A 1_555 1_555
C21A S5A 1_555 1_555
H39A C21A 1_555 1_555
H40A C21A 1_555 1_555
C22A C21A 1_555 1_555
H41A C22A 1_555 1_555
H42A C22A 1_555 1_555
C23A C22A 1_555 1_555
H43A C23A 1_555 1_555
H44A C23A 1_555 1_555
H45A C23A 1_555 1_555
H37A C20A 1_555 1_555
H38A C20A 1_555 1_555
O2_2 S2_2 1_555 1_555
S2_2 C8_2 1_555 1_555
O4_2 Yb1 1_555 1_555
S4_2 O4_2 1_555 1_555
C8_2 H10_2 1_555 1_555
H11_2 C8_2 1_555 1_555
C9_2 S2_2 1_555 1_555
H12_2 C9_2 1_555 1_555
H13_2 C9_2 1_555 1_555
C10_2 C9_2 1_555 1_555
H14_2 C10_2 1_555 1_555
H15_2 C10_2 1_555 1_555
C11_2 C10_2 1_555 1_555
H16_2 C11_2 1_555 1_555
H17_2 C11_2 1_555 1_555
H18_2 C11_2 1_555 1_555
C16_2 S4_2 1_555 1_555
H28_2 C16_2 1_555 1_555
H29_2 C16_2 1_555 1_555
C17_2 S4_2 1_555 1_555
H30_2 C17_2 1_555 1_555
H31_2 C17_2 1_555 1_555
C18_2 C17_2 1_555 1_555
H32_2 C18_2 1_555 1_555
H33_2 C18_2 1_555 1_555
C19_2 C18_2 1_555 1_555
H34_2 C19_2 1_555 1_555
H35_2 C19_2 1_555 1_555
H36_2 C19_2 1_555 1_555
Yb1A O1A 1_555 1_555
C1A N1A 1_555 1_555
N1A Yb1A 1_555 1_555
S6A C1A 1_555 1_555
C2A N2A 1_555 1_555
N2A Yb1A 1_555 1_555
S7A C2A 1_555 1_555
C3A N3A 1_555 1_555
N3A Yb1A 1_555 1_555
S8A C3A 1_555 1_555
Yb1_2 O4 1_555 1_555
Yb1A_2 O3A 1_555 1_555
Yb1A_3 O5A 1_555 1_555
Yb1_3 O2_2 1_555 1_555
O2A Yb1A 1_555 1_555
O3A_2 Yb1A 1_555 1_555
O4A Yb1A 1_555 1_555
O5A_2 Yb1A 1_555 1_555
C8_2 C16_2 1_555 1_555

#END
