
#######################################################################
#
#                 Cambridge Crystallographic Data Centre
#                                CCDC 
#
#######################################################################
#
# If this CIF has been generated from an entry in the Cambridge 
# Structural Database, then it will include bibliographic, chemical, 
# crystal, experimental, refinement or atomic coordinate data resulting 
# from the CCDC's data processing and validation procedures.
#
#######################################################################

data_MEZGAZ
_symmetry_cell_setting           monoclinic
_symmetry_space_group_name_H-M   'C 2/c'
_symmetry_Int_Tables_number      15
_space_group_name_Hall           '-C 2yn'
loop_
_symmetry_equiv_pos_site_id
_symmetry_equiv_pos_as_xyz
1 x,y,z
2 1/2+x,1/2+y,z
3 x,-y,1/2+z
4 1/2+x,1/2-y,1/2+z
5 -x,-y,-z
6 1/2-x,1/2-y,-z
7 -x,y,1/2-z
8 1/2-x,1/2+y,1/2-z
_cell_length_a                   16.2155(4)
_cell_length_b                   16.0404(6)
_cell_length_c                   8.8937(3)
_cell_angle_alpha                90
_cell_angle_beta                 118.4900(16)
_cell_angle_gamma                90
_cell_volume                     2033.14
loop_
_atom_site_label
_atom_site_type_symbol
_atom_site_fract_x
_atom_site_fract_y
_atom_site_fract_z
Ni1 Ni 0.2500 0.2500 0.0000
N1 N 0.17290(19) 0.34829(15) 0.0202(3)
C1 C 0.2208(2) 0.3725(2) 0.2020(4)
C2 C 0.2515(2) 0.2942(2) 0.3125(4)
N2 N 0.31102(19) 0.24304(15) 0.2643(3)
C3 C 0.3266(2) 0.1572(2) 0.3344(4)
C4 C 0.3900(2) 0.1077(2) 0.2841(4)
C5 C 0.1539(2) 0.41952(19) -0.0968(4)
O1 O 0.14783(15) 0.16226(13) -0.0325(3)
O2 O 0.03070(16) 0.22725(14) -0.0099(3)
C6 C 0.0346(2) 0.07824(19) -0.0107(4)
C7 C 0.0720(2) 0.0063(2) -0.0410(4)
C8 C -0.0374(2) 0.07130(19) 0.0316(4)
C9 C 0.0733(2) 0.16271(19) -0.0194(4)
H1 H 0.1149 0.3266 -0.0026
H2 H 0.1778 0.4056 0.2284
H3 H 0.2763 0.4073 0.2266
H4 H 0.2871 0.3098 0.4348
H5 H 0.1957 0.2618 0.2953
H6 H 0.3693 0.2689 0.3091
H7 H 0.2655 0.1284 0.2910
H8 H 0.3557 0.1598 0.4607
H9 H 0.4117 0.0573 0.3568
H10 H 0.4461 0.1419 0.3104
H11 H 0.1109 0.4588 -0.0830
H12 H 0.2134 0.4493 -0.0656
H13 H 0.1218 0.0104 -0.0684
H14 H -0.0629 0.1201 0.0541
N1E N 0.32710(19) 0.15171(15) -0.0202(3)
C1E C 0.2792(2) 0.1275(2) -0.2020(4)
C2E C 0.2485(2) 0.2058(2) -0.3125(4)
N2E N 0.18898(19) 0.25696(15) -0.2643(3)
C8D C 0.0374(2) -0.07130(19) -0.0316(4)
C6D C -0.0346(2) -0.07824(19) 0.0107(4)
C7D C -0.0720(2) -0.0063(2) 0.0410(4)
H13D H -0.1218 -0.0104 0.0684
C9D C -0.0733(2) -0.16271(19) 0.0194(4)
O1D O -0.14783(15) -0.16226(13) 0.0325(3)
Ni1D Ni -0.2500 -0.2500 0.0000
O2D O -0.03070(16) -0.22725(14) 0.0099(3)
H14D H 0.0629 -0.1201 -0.0541
O1E O 0.35217(15) 0.33774(13) 0.0325(3)
C3E C 0.1734(2) 0.3428(2) -0.3344(4)
C4E C 0.1100(2) 0.3923(2) -0.2841(4)
H9E H 0.0883 0.4427 -0.3568
H10E H 0.0539 0.3581 -0.3104
H7E H 0.2345 0.3716 -0.2910
H8E H 0.1443 0.3402 -0.4607
H6E H 0.1307 0.2311 -0.3091
H4E H 0.2129 0.1902 -0.4348
H5E H 0.3043 0.2382 -0.2953
H2E H 0.3222 0.0944 -0.2284
H3E H 0.2237 0.0927 -0.2266
C5E C 0.3461(2) 0.08048(19) 0.0968(4)
H11E H 0.3891 0.0412 0.0830
H12E H 0.2866 0.0507 0.0656
H1E H 0.3851 0.1734 0.0026
O3 O 0.0000 0.3041(3) 0.2500
H15 H 0.008(6) 0.266(3) 0.190(8)
H15F H -0.008(6) 0.266(3) 0.310(8)
loop_
_geom_bond_atom_site_label_1
_geom_bond_atom_site_label_2
_geom_bond_site_symmetry_1
_geom_bond_site_symmetry_2
Ni1 N1 1_555 1_555
N1 C1 1_555 1_555
C1 C2 1_555 1_555
C2 N2 1_555 1_555
N2 Ni1 1_555 1_555
C3 N2 1_555 1_555
C4 C3 1_555 1_555
C5 N1 1_555 1_555
O1 Ni1 1_555 1_555
O2 C9 1_555 1_555
C6 C7 1_555 1_555
C7 H13 1_555 1_555
C8 C6 1_555 1_555
C9 O1 1_555 1_555
O3 H15 1_555 1_555
H1 N1 1_555 1_555
H2 C1 1_555 1_555
H3 C1 1_555 1_555
H4 C2 1_555 1_555
H5 C2 1_555 1_555
H6 N2 1_555 1_555
H7 C3 1_555 1_555
H8 C3 1_555 1_555
H9 C4 1_555 1_555
H10 C4 1_555 1_555
H11 C5 1_555 1_555
H12 C5 1_555 1_555
H14 C8 1_555 1_555
N1E Ni1 1_555 1_555
C1E N1E 1_555 1_555
C2E C1E 1_555 1_555
N2E Ni1 1_555 1_555
C8D C7 1_555 1_555
C6D C8D 1_555 1_555
C7D C8 1_555 1_555
H13D C7D 1_555 1_555
C9D C6D 1_555 1_555
O1D C9D 1_555 1_555
Ni1D O1D 1_555 1_555
O2D C9D 1_555 1_555
H14D C8D 1_555 1_555
O1E Ni1 1_555 1_555
C3E N2E 1_555 1_555
C4E C5 1_555 1_555
H9E C4E 1_555 1_555
H10E C4E 1_555 1_555
H7E C3E 1_555 1_555
H8E C3E 1_555 1_555
H6E N2E 1_555 1_555
H4E C2E 1_555 1_555
H5E C2E 1_555 1_555
H2E C1E 1_555 1_555
H3E C1E 1_555 1_555
C5E C4 1_555 1_555
H11E C5E 1_555 1_555
H12E C5E 1_555 1_555
H1E N1E 1_555 1_555
H15F O3 1_555 1_555
C6 C9 1_555 1_555
N1E C5E 1_555 1_555
C2E N2E 1_555 1_555
C6D C7D 1_555 1_555
C3E C4E 1_555 1_555

#END
