
#######################################################################
#
#                 Cambridge Crystallographic Data Centre
#                                CCDC 
#
#######################################################################
#
# If this CIF has been generated from an entry in the Cambridge 
# Structural Database, then it will include bibliographic, chemical, 
# crystal, experimental, refinement or atomic coordinate data resulting 
# from the CCDC's data processing and validation procedures.
#
#######################################################################

data_MGBTHF01
_symmetry_cell_setting           orthorhombic
_symmetry_space_group_name_H-M   'P n n m'
_symmetry_Int_Tables_number      58
_space_group_name_Hall           '-P 2 2n'
loop_
_symmetry_equiv_pos_site_id
_symmetry_equiv_pos_as_xyz
1 x,y,z
2 -x,-y,z
3 1/2+x,1/2-y,1/2-z
4 1/2-x,1/2+y,1/2-z
5 -x,-y,-z
6 x,y,-z
7 1/2-x,1/2+y,1/2+z
8 1/2+x,1/2-y,1/2+z
_cell_length_a                   7.520(10)
_cell_length_b                   18.200(10)
_cell_length_c                   4.010(10)
_cell_angle_alpha                90
_cell_angle_beta                 90
_cell_angle_gamma                90
_cell_volume                     548.825
loop_
_atom_site_label
_atom_site_type_symbol
_atom_site_fract_x
_atom_site_fract_y
_atom_site_fract_z
Br1 Br 0.1919 -0.06190 -0.50000
Mg1 Mg 0.00000 0.00000 0.00000
O1 O 0.1727 0.09130 0.00000
C1 C 0.1153 0.1661 0.00000
C2 C 0.2727 0.2119 0.00000
C3 C 0.4318 0.1652 0.00000
C4 C 0.365 0.085 0.00000
H1 H 0.04388 0.17605 0.19630
H2 H 0.27286 0.24314 0.19599
H3 H 0.50343 0.17471 0.19649
H4 H 0.40610 0.05908 0.19681
Br1_2 Br 0.1919 -0.06190 0.50000
Br1D Br -0.1919 0.06190 -0.50000
Br1D_2 Br -0.1919 0.06190 0.50000
Mg1_2 Mg 0.00000 0.00000 -1.00000
O1D O -0.1727 -0.09130 0.00000
C1D C -0.1153 -0.1661 0.00000
C2D C -0.2727 -0.2119 0.00000
C3D C -0.4318 -0.1652 0.00000
C4D C -0.365 -0.085 0.00000
H1E H 0.04388 0.17605 -0.19630
H1D H -0.04388 -0.17605 -0.19630
H1A H -0.04388 -0.17605 0.19630
H2E H 0.27286 0.24314 -0.19599
H2D H -0.27286 -0.24314 -0.19599
H2A H -0.27286 -0.24314 0.19599
H3E H 0.50343 0.17471 -0.19649
H3D H -0.50343 -0.17471 -0.19649
H3A H -0.50343 -0.17471 0.19649
H4E H 0.40610 0.05908 -0.19681
H4D H -0.40610 -0.05908 -0.19681
H4A H -0.40610 -0.05908 0.19681
loop_
_geom_bond_atom_site_label_1
_geom_bond_atom_site_label_2
_geom_bond_site_symmetry_1
_geom_bond_site_symmetry_2
Br1 Mg1 1_555 1_555
Mg1 O1 1_555 1_555
O1 C1 1_555 1_555
C1 C2 1_555 1_555
C2 C3 1_555 1_555
C3 C4 1_555 1_555
C4 O1 1_555 1_555
H1 C1 1_555 1_555
H2 C2 1_555 1_555
H3 C3 1_555 1_555
H4 C4 1_555 1_555
Br1_2 Mg1 1_555 1_555
Br1D Mg1 1_555 1_555
Br1D_2 Mg1 1_555 1_555
Mg1_2 Br1 1_555 1_555
O1D Mg1 1_555 1_555
C1D O1D 1_555 1_555
C2D C1D 1_555 1_555
C3D C2D 1_555 1_555
C4D O1D 1_555 1_555
H1E C1 1_555 1_555
H1D C1D 1_555 1_555
H1A C1D 1_555 1_555
H2E C2 1_555 1_555
H2D C2D 1_555 1_555
H2A C2D 1_555 1_555
H3E C3 1_555 1_555
H3D C3D 1_555 1_555
H3A C3D 1_555 1_555
H4E C4 1_555 1_555
H4D C4D 1_555 1_555
H4A C4D 1_555 1_555
Br1D Mg1_2 1_555 1_555
C3D C4D 1_555 1_555

#END
