
#######################################################################
#
#                 Cambridge Crystallographic Data Centre
#                                CCDC 
#
#######################################################################
#
# If this CIF has been generated from an entry in the Cambridge 
# Structural Database, then it will include bibliographic, chemical, 
# crystal, experimental, refinement or atomic coordinate data resulting 
# from the CCDC's data processing and validation procedures.
#
#######################################################################

data_MIBXUR
_symmetry_cell_setting           triclinic
_symmetry_space_group_name_H-M   'P -1'
_symmetry_Int_Tables_number      2
_space_group_name_Hall           '-P 1'
loop_
_symmetry_equiv_pos_site_id
_symmetry_equiv_pos_as_xyz
1 x,y,z
2 -x,-y,-z
_cell_length_a                   9.563(3)
_cell_length_b                   10.333(4)
_cell_length_c                   30.599(11)
_cell_angle_alpha                90.000(6)
_cell_angle_beta                 90.000(7)
_cell_angle_gamma                90.771(7)
_cell_volume                     3023.35
loop_
_atom_site_label
_atom_site_type_symbol
_atom_site_fract_x
_atom_site_fract_y
_atom_site_fract_z
Bi1 Bi -0.07348(8) 0.02058(7) 0.29378(3)
Bi2 Bi 0.42660(8) 0.02057(7) 0.20623(3)
N1 N -0.2388(17) -0.0299(16) 0.4287(7)
N2 N 0.0730(16) -0.3833(17) 0.2809(6)
N3 N 0.5741(16) -0.3864(17) 0.2191(5)
N4 N 0.253(2) -0.035(2) 0.0700(6)
N5 N 0.199(2) 0.179(2) 0.2695(8)
N6 N -0.299(2) 0.187(2) 0.2304(7)
O1 O 0.1806(17) 0.0795(13) 0.2506(6)
O2 O 0.1274(15) 0.2227(16) 0.2990(6)
O3 O 0.3052(18) 0.2409(14) 0.2607(5)
O4 O -0.3171(14) 0.0808(14) 0.2492(5)
O5 O -0.3734(18) 0.2201(15) 0.1996(6)
O6 O -0.1921(17) 0.2457(15) 0.2409(6)
S1 S -0.0590(6) 0.1005(5) 0.3802(2)
S2 S -0.2667(6) -0.0830(6) 0.34454(18)
S3 S 0.0895(5) -0.1587(5) 0.32291(17)
S4 S -0.0779(5) -0.2009(5) 0.24274(18)
S5 S 0.4227(6) -0.2015(5) 0.25722(18)
S6 S 0.5892(5) -0.1593(5) 0.17698(18)
S7 S 0.4414(6) 0.0995(5) 0.1204(2)
S8 S 0.2311(6) -0.0823(6) 0.15562(18)
C1 C -0.1972(19) -0.0027(18) 0.3868(7)
C2 C -0.353(2) -0.127(2) 0.4347(7)
C3 C -0.289(2) -0.259(2) 0.4444(7)
C4 C -0.421(3) -0.360(2) 0.4469(10)
C5 C -0.356(4) -0.489(3) 0.4601(10)
C6 C -0.1747(19) 0.031(2) 0.4679(6)
C7 C -0.252(2) 0.151(2) 0.4790(9)
C8 C -0.143(4) 0.231(3) 0.5220(14)
C9 C -0.186(4) 0.169(3) 0.5505(13)
C10 C 0.0325(18) -0.2633(18) 0.2818(7)
C11 C 0.164(2) -0.4427(19) 0.3149(8)
C12 C 0.077(2) -0.4829(19) 0.3541(7)
C13 C 0.175(3) -0.539(3) 0.3868(8)
C14 C 0.080(3) -0.573(3) 0.4268(9)
C15 C 0.026(2) -0.4748(17) 0.2434(7)
C16 C 0.142(2) -0.469(2) 0.2061(9)
C17 C 0.085(4) -0.565(5) 0.1738(10)
C18 C 0.172(5) -0.637(3) 0.1591(15)
C19 C 0.536(2) -0.264(2) 0.2199(7)
C20 C 0.537(2) -0.4729(17) 0.2548(8)
C21 C 0.645(2) -0.472(2) 0.2927(9)
C22 C 0.586(4) -0.575(6) 0.3257(13)
C23 C 0.657(4) -0.639(4) 0.3428(13)
C24 C 0.675(2) -0.4314(19) 0.1856(9)
C25 C 0.577(2) -0.483(2) 0.1464(8)
C26 C 0.679(3) -0.543(3) 0.1106(10)
C27 C 0.583(3) -0.584(2) 0.0709(9)
C28 C 0.305(2) -0.010(2) 0.1092(11)
C29 C 0.137(2) -0.133(2) 0.0629(8)
C30 C 0.215(3) -0.264(3) 0.0561(8)
C31 C 0.082(3) -0.358(2) 0.0513(10)
C32 C 0.142(3) -0.483(3) 0.0372(9)
C33 C 0.324(2) 0.033(2) 0.0315(8)
C34 C 0.251(2) 0.149(2) 0.0213(8)
C35 C 0.338(3) 0.238(3) -0.0144(10)
C36 C 0.326(4) 0.166(3) -0.0574(11)
Bi2_2 Bi -0.57340(8) 0.02057(7) 0.20623(3)
O5_2 O 0.6266(18) 0.2201(15) 0.1996(6)
O7 O -0.109(2) -0.8615(18) 0.0787(10)
C37 C -0.156(3) -0.904(3) 0.1230(11)
O8 O -0.613(3) -0.873(2) 0.4233(12)
C38 C -0.641(4) -0.881(4) 0.3764(13)
loop_
_geom_bond_atom_site_label_1
_geom_bond_atom_site_label_2
_geom_bond_site_symmetry_1
_geom_bond_site_symmetry_2
Bi1 O1 1_555 1_555
Bi2 O1 1_555 1_555
N1 C1 1_555 1_555
N2 C10 1_555 1_555
N3 C19 1_555 1_555
N4 C28 1_555 1_555
N5 O1 1_555 1_555
N6 O4 1_555 1_555
O2 Bi1 1_555 1_555
O3 N5 1_555 1_555
O4 Bi1 1_555 1_555
O5 N6 1_555 1_555
O6 N6 1_555 1_555
O7 C37 1_555 1_555
O8 C38 1_555 1_555
S1 Bi1 1_555 1_555
S2 Bi1 1_555 1_555
S3 Bi1 1_555 1_555
S4 Bi1 1_555 1_555
S5 Bi2 1_555 1_555
S6 Bi2 1_555 1_555
S7 Bi2 1_555 1_555
S8 Bi2 1_555 1_555
C1 S1 1_555 1_555
C2 N1 1_555 1_555
C3 C2 1_555 1_555
C4 C3 1_555 1_555
C5 C4 1_555 1_555
C6 N1 1_555 1_555
C7 C6 1_555 1_555
C8 C7 1_555 1_555
C9 C8 1_555 1_555
C10 S3 1_555 1_555
C11 N2 1_555 1_555
C12 C11 1_555 1_555
C13 C12 1_555 1_555
C14 C13 1_555 1_555
C15 N2 1_555 1_555
C16 C15 1_555 1_555
C17 C16 1_555 1_555
C18 C17 1_555 1_555
C19 S5 1_555 1_555
C20 N3 1_555 1_555
C21 C20 1_555 1_555
C22 C21 1_555 1_555
C23 C22 1_555 1_555
C24 N3 1_555 1_555
C25 C24 1_555 1_555
C26 C25 1_555 1_555
C27 C26 1_555 1_555
C28 S7 1_555 1_555
C29 N4 1_555 1_555
C30 C29 1_555 1_555
C31 C30 1_555 1_555
C32 C31 1_555 1_555
C33 N4 1_555 1_555
C34 C33 1_555 1_555
C35 C34 1_555 1_555
C36 C35 1_555 1_555
Bi2_2 O5 1_555 1_555
O5_2 Bi2 1_555 1_555
N5 O2 1_555 1_555
S2 C1 1_555 1_555
S4 C10 1_555 1_555
S6 C19 1_555 1_555
S8 C28 1_555 1_555

#END
