
#######################################################################
#
#                 Cambridge Crystallographic Data Centre
#                                CCDC 
#
#######################################################################
#
# If this CIF has been generated from an entry in the Cambridge 
# Structural Database, then it will include bibliographic, chemical, 
# crystal, experimental, refinement or atomic coordinate data resulting 
# from the CCDC's data processing and validation procedures.
#
#######################################################################

data_MIBYAY
_symmetry_cell_setting           monoclinic
_symmetry_space_group_name_H-M   'P 21/n'
_symmetry_Int_Tables_number      14
_space_group_name_Hall           '-P 2yn'
loop_
_symmetry_equiv_pos_site_id
_symmetry_equiv_pos_as_xyz
1 x,y,z
2 1/2-x,1/2+y,1/2-z
3 -x,-y,-z
4 1/2+x,1/2-y,1/2+z
_cell_length_a                   16.142(3)
_cell_length_b                   6.5713(14)
_cell_length_c                   18.683(4)
_cell_angle_alpha                90
_cell_angle_beta                 111.098(4)
_cell_angle_gamma                90
_cell_volume                     1848.93
loop_
_atom_site_label
_atom_site_type_symbol
_atom_site_fract_x
_atom_site_fract_y
_atom_site_fract_z
Bi1 Bi 0.16559(3) -0.28264(6) 0.34284(3)
N1 N -0.0622(6) -0.0806(13) 0.4075(5)
N2 N 0.3810(6) -0.4614(13) 0.5616(6)
N3 N 0.0933(7) -0.5722(15) 0.2413(6)
S1 S 0.05680(19) 0.0426(4) 0.35200(19)
S2 S 0.0430(2) -0.3801(4) 0.4002(2)
S3 S 0.2822(2) -0.1583(4) 0.4763(2)
S4 S 0.2544(2) -0.5972(4) 0.4349(2)
S5 S 0.1828(2) -0.9214(5) 0.2248(2)
C1 C 0.0068(7) -0.1344(13) 0.3882(6)
C2 C -0.0989(8) 0.1288(18) 0.3966(7)
C3 C -0.1611(8) 0.1648(18) 0.3125(8)
C4 C -0.1068(7) -0.2305(17) 0.4430(6)
C5 C -0.1984(8) -0.3024(19) 0.3790(8)
C6 C 0.3135(7) -0.4129(15) 0.4983(7)
C7 C 0.4109(7) -0.6710(15) 0.5825(7)
C8 C 0.4779(7) -0.7301(17) 0.5440(7)
C9 C 0.4338(7) -0.2996(17) 0.6114(6)
C10 C 0.3941(7) -0.2398(19) 0.6743(7)
C11 C 0.1310(7) -0.7189(19) 0.2363(6)
Bi1_2 Bi 0.16559(3) -1.28264(6) 0.34284(3)
Bi1A Bi 0.33441(3) -0.78264(6) 0.15716(3)
S5_2 S 0.1828(2) 0.0786(5) 0.2248(2)
S5A S 0.3172(2) -0.4214(5) 0.2752(2)
loop_
_geom_bond_atom_site_label_1
_geom_bond_atom_site_label_2
_geom_bond_site_symmetry_1
_geom_bond_site_symmetry_2
Bi1 N3 1_555 1_555
N1 C1 1_555 1_555
N2 C6 1_555 1_555
N3 C11 1_555 1_555
S1 Bi1 1_555 1_555
S2 Bi1 1_555 1_555
S3 Bi1 1_555 1_555
S4 Bi1 1_555 1_555
S5 C11 1_555 1_555
C1 S1 1_555 1_555
C2 N1 1_555 1_555
C3 C2 1_555 1_555
C4 N1 1_555 1_555
C5 C4 1_555 1_555
C6 S3 1_555 1_555
C7 N2 1_555 1_555
C8 C7 1_555 1_555
C9 N2 1_555 1_555
C10 C9 1_555 1_555
Bi1_2 S5 1_555 1_555
Bi1A S5 1_555 1_555
S5_2 Bi1 1_555 1_555
S5A Bi1 1_555 1_555
S2 C1 1_555 1_555
S4 C6 1_555 1_555
Bi1A S5A 1_555 1_555

#END
