
#######################################################################
#
#                 Cambridge Crystallographic Data Centre
#                                CCDC 
#
#######################################################################
#
# If this CIF has been generated from an entry in the Cambridge 
# Structural Database, then it will include bibliographic, chemical, 
# crystal, experimental, refinement or atomic coordinate data resulting 
# from the CCDC's data processing and validation procedures.
#
#######################################################################

data_MICDEJ
_symmetry_cell_setting           monoclinic
_symmetry_space_group_name_H-M   'C 2/c'
_symmetry_Int_Tables_number      15
_space_group_name_Hall           '-C 2yn'
loop_
_symmetry_equiv_pos_site_id
_symmetry_equiv_pos_as_xyz
1 x,y,z
2 -x,y,1/2-z
3 1/2+x,1/2+y,z
4 1/2-x,1/2+y,1/2-z
5 -x,-y,-z
6 x,-y,1/2+z
7 1/2-x,1/2-y,-z
8 1/2+x,1/2-y,1/2+z
_cell_length_a                   27.430(4)
_cell_length_b                   21.601(3)
_cell_length_c                   9.3796(12)
_cell_angle_alpha                90
_cell_angle_beta                 106.412(2)
_cell_angle_gamma                90
_cell_volume                     5331.11
loop_
_atom_site_label
_atom_site_type_symbol
_atom_site_fract_x
_atom_site_fract_y
_atom_site_fract_z
C1 C 0.33433(9) 0.33018(14) 0.4203(3)
C2 C 0.38944(9) 0.32584(13) 0.4199(3)
C3 C 0.41260(9) 0.26874(14) 0.4253(3)
H1 H 0.3943 0.2326 0.4262
C4 C 0.46326(10) 0.26613(15) 0.4294(3)
C5 C 0.49082(10) 0.31848(15) 0.4270(3)
H2 H 0.5246 0.3161 0.4267
C6 C 0.46732(10) 0.37518(15) 0.4251(3)
C7 C 0.41670(9) 0.37929(14) 0.4203(3)
H3 H 0.4012 0.4177 0.4175
C8 C 0.54412(10) 0.43281(14) 0.4926(4)
C9 C 0.56391(11) 0.41153(16) 0.6350(3)
H4 H 0.5429 0.3923 0.6839
C10 C 0.61456(10) 0.41855(15) 0.7048(3)
H5 H 0.6281 0.4037 0.8010
C11 C 0.64570(9) 0.44776(13) 0.6324(3)
C12 C 0.62534(10) 0.46867(14) 0.4891(3)
H6 H 0.6462 0.4881 0.4399
C13 C 0.57433(10) 0.46102(14) 0.4177(3)
H7 H 0.5607 0.4748 0.3206
C14 C 0.70052(10) 0.45718(14) 0.7124(3)
C15 C 0.53380(10) 0.19707(15) 0.5161(4)
C16 C 0.55532(11) 0.22513(16) 0.6502(3)
H8 H 0.5379 0.2560 0.6844
C17 C 0.60321(11) 0.20709(16) 0.7342(3)
H9 H 0.6182 0.2267 0.8242
C18 C 0.62891(10) 0.16058(14) 0.6862(3)
C19 C 0.60712(12) 0.13444(18) 0.5499(4)
H10 H 0.6246 0.1037 0.5151
C20 C 0.55961(12) 0.15278(17) 0.4628(4)
H11 H 0.5456 0.1352 0.3696
C21 C 0.67847(10) 0.13606(15) 0.7811(3)
C22 C 0.16545(16) 0.2023(2) -0.0153(4)
H12 H 0.1507 0.2186 0.0584
H13 H 0.1450 0.1688 -0.0669
H14 H 0.1670 0.2344 -0.0848
C23 C 0.24200(17) 0.1490(2) -0.0360(4)
H15 H 0.2740 0.1338 0.0251
H16 H 0.2478 0.1774 -0.1083
H17 H 0.2218 0.1150 -0.0860
C24 C 0.23699(12) 0.18888(16) 0.1990(4)
H18 H 0.2698 0.1739 0.2395
Mn1 Mn 0.252932(14) 0.433405(19) 0.43900(4)
Mn2 Mn 0.2500 0.2500 0.5000
N1 N 0.21566(11) 0.18034(13) 0.0555(3)
O1 O 0.31262(7) 0.28092(10) 0.4311(2)
O2 O 0.31553(7) 0.38316(10) 0.4087(2)
O3 O 0.49242(7) 0.43006(11) 0.4206(3)
O4 O 0.71621(9) 0.43377(12) 0.8383(2)
O5 O 0.72797(7) 0.48549(11) 0.6501(3)
O6 O 0.48456(7) 0.20802(11) 0.4293(3)
O7 O 0.70043(7) 0.16024(10) 0.9056(2)
O8 O 0.69625(7) 0.08858(11) 0.7363(2)
O9 O 0.19056(8) 0.49124(12) 0.4913(3)
H19 H 0.2025 0.5091 0.5746
H20 H 0.1666 0.4675 0.4979
O10 O 0.21677(8) 0.21487(11) 0.2816(2)
C1A C 0.66567(9) 0.33018(14) 1.0797(3)
C2A C 0.61056(9) 0.32584(13) 1.0801(3)
C3A C 0.58740(9) 0.26874(14) 1.0747(3)
H1A H 0.6057 0.2326 1.0738
C4A C 0.53674(10) 0.26613(15) 1.0706(3)
C5A C 0.50918(10) 0.31848(15) 1.0730(3)
H2A H 0.4754 0.3161 1.0733
C6A C 0.53268(10) 0.37518(15) 1.0749(3)
C7A C 0.58330(9) 0.37929(14) 1.0797(3)
H3A H 0.5988 0.4177 1.0825
C8A C 0.45588(10) 0.43281(14) 1.0074(4)
C9A C 0.43609(11) 0.41153(16) 0.8650(3)
H4A H 0.4571 0.3923 0.8161
C10A C 0.38544(10) 0.41855(15) 0.7952(3)
H5A H 0.3719 0.4037 0.6990
C11A C 0.35430(9) 0.44776(13) 0.8676(3)
C12A C 0.37466(10) 0.46867(14) 1.0109(3)
H6A H 0.3538 0.4881 1.0601
C13A C 0.42567(10) 0.46102(14) 1.0823(3)
H7A H 0.4393 0.4748 1.1794
C14A C 0.29948(10) 0.45718(14) 0.7876(3)
C15A C 0.46620(10) 0.19707(15) 0.9839(4)
C16A C 0.44468(11) 0.22513(16) 0.8498(3)
H8A H 0.4621 0.2560 0.8156
C17A C 0.39679(11) 0.20709(16) 0.7658(3)
H9A H 0.3818 0.2267 0.6758
C18A C 0.37109(10) 0.16058(14) 0.8138(3)
C19A C 0.39288(12) 0.13444(18) 0.9501(4)
H10A H 0.3754 0.1037 0.9849
C20A C 0.44039(12) 0.15278(17) 1.0372(4)
H11A H 0.4544 0.1352 1.1304
C21A C 0.32153(10) 0.13606(15) 0.7189(3)
Mn1A Mn 0.747068(14) 0.433405(19) 1.06100(4)
O1A O 0.68738(7) 0.28092(10) 1.0689(2)
O2A O 0.68447(7) 0.38316(10) 1.0913(2)
O3A O 0.50758(7) 0.43006(11) 1.0794(3)
O4A O 0.28379(9) 0.43377(12) 0.6617(2)
O5A O 0.27203(7) 0.48549(11) 0.8499(3)
O6A O 0.51544(7) 0.20802(11) 1.0707(3)
O7A O 0.29957(7) 0.16024(10) 0.5944(2)
O8A O 0.30375(7) 0.08858(11) 0.7637(2)
O9A O 0.80944(8) 0.49124(12) 1.0087(3)
H19A H 0.7975 0.5091 0.9254
H20A H 0.8334 0.4675 1.0021
C22F C 0.33455(16) 0.2977(2) 1.0153(4)
H12F H 0.3493 0.2814 0.9416
H13F H 0.3550 0.3312 1.0669
H14F H 0.3330 0.2656 1.0848
C23F C 0.25800(17) 0.3510(2) 1.0360(4)
H15F H 0.2260 0.3662 0.9749
H16F H 0.2522 0.3226 1.1083
H17F H 0.2782 0.3850 1.0860
C24F C 0.26301(12) 0.31112(16) 0.8010(4)
H18F H 0.2302 0.3261 0.7605
N1F N 0.28434(11) 0.31966(13) 0.9445(3)
O10F O 0.28323(8) 0.28513(11) 0.7184(2)
Mn1D Mn 0.747068(14) 0.566595(19) 0.56100(4)
Mn1E Mn 0.252932(14) 0.566595(19) 0.93900(4)
Mn1F Mn 0.247068(14) 0.066595(19) 0.56100(4)
Mn1G Mn 0.752932(14) 0.066595(19) 0.93900(4)
Mn2A Mn 0.7500 0.2500 1.0000
O1F O 0.18738(7) 0.21908(10) 0.5689(2)
O5D O 0.27203(7) 0.51451(11) 0.3499(3)
O5E O 0.72797(7) 0.51451(11) 1.1501(3)
O7F O 0.79957(7) 0.33976(10) 1.0944(2)
O7G O 0.20043(7) 0.33976(10) 0.4056(2)
O8F O 0.80375(7) 0.41142(11) 1.2637(2)
O8G O 0.19625(7) 0.41142(11) 0.2363(2)
loop_
_geom_bond_atom_site_label_1
_geom_bond_atom_site_label_2
_geom_bond_site_symmetry_1
_geom_bond_site_symmetry_2
C1 C2 1_555 1_555
C2 C3 1_555 1_555
C3 H1 1_555 1_555
C4 C3 1_555 1_555
C5 C4 1_555 1_555
H2 C5 1_555 1_555
C6 C5 1_555 1_555
C7 C2 1_555 1_555
H3 C7 1_555 1_555
C8 C9 1_555 1_555
C9 H4 1_555 1_555
C10 C9 1_555 1_555
H5 C10 1_555 1_555
C11 C10 1_555 1_555
C12 C11 1_555 1_555
H6 C12 1_555 1_555
C13 C8 1_555 1_555
H7 C13 1_555 1_555
C14 C11 1_555 1_555
C15 C16 1_555 1_555
C16 H8 1_555 1_555
C17 C16 1_555 1_555
H9 C17 1_555 1_555
C18 C17 1_555 1_555
C19 C18 1_555 1_555
H10 C19 1_555 1_555
C20 C15 1_555 1_555
H11 C20 1_555 1_555
C21 C18 1_555 1_555
C22 H12 1_555 1_555
H13 C22 1_555 1_555
H14 C22 1_555 1_555
C23 H15 1_555 1_555
H16 C23 1_555 1_555
H17 C23 1_555 1_555
C24 H18 1_555 1_555
Mn1 O2 1_555 1_555
Mn2 O1 1_555 1_555
N1 C22 1_555 1_555
O1 C1 1_555 1_555
O2 C1 1_555 1_555
O3 C6 1_555 1_555
O4 C14 1_555 1_555
O5 C14 1_555 1_555
O6 C4 1_555 1_555
O7 C21 1_555 1_555
O8 C21 1_555 1_555
O9 Mn1 1_555 1_555
H19 O9 1_555 1_555
H20 O9 1_555 1_555
O10 C24 1_555 1_555
C1A C2A 1_555 1_555
C2A C3A 1_555 1_555
C3A H1A 1_555 1_555
C4A C3A 1_555 1_555
C5A C4A 1_555 1_555
H2A C5A 1_555 1_555
C6A C5A 1_555 1_555
C7A C2A 1_555 1_555
H3A C7A 1_555 1_555
C8A C9A 1_555 1_555
C9A H4A 1_555 1_555
C10A C9A 1_555 1_555
H5A C10A 1_555 1_555
C11A C10A 1_555 1_555
C12A C11A 1_555 1_555
H6A C12A 1_555 1_555
C13A C8A 1_555 1_555
H7A C13A 1_555 1_555
C14A C11A 1_555 1_555
C15A C16A 1_555 1_555
C16A H8A 1_555 1_555
C17A C16A 1_555 1_555
H9A C17A 1_555 1_555
C18A C17A 1_555 1_555
C19A C18A 1_555 1_555
H10A C19A 1_555 1_555
C20A C15A 1_555 1_555
H11A C20A 1_555 1_555
C21A C18A 1_555 1_555
Mn1A O4 1_555 1_555
O1A C1A 1_555 1_555
O2A C1A 1_555 1_555
O3A C6A 1_555 1_555
O4A Mn1 1_555 1_555
O5A C14A 1_555 1_555
O6A C4A 1_555 1_555
O7A Mn2 1_555 1_555
O8A C21A 1_555 1_555
O9A Mn1A 1_555 1_555
H19A O9A 1_555 1_555
H20A O9A 1_555 1_555
C22F H12F 1_555 1_555
H13F C22F 1_555 1_555
H14F C22F 1_555 1_555
C23F H15F 1_555 1_555
H16F C23F 1_555 1_555
H17F C23F 1_555 1_555
C24F H18F 1_555 1_555
N1F C22F 1_555 1_555
O10F Mn2 1_555 1_555
Mn1D O5 1_555 1_555
Mn1E O5A 1_555 1_555
Mn1F O7A 1_555 1_555
Mn1G O7 1_555 1_555
Mn2A O7 1_555 1_555
O1F Mn2 1_555 1_555
O5D Mn1 1_555 1_555
O5E Mn1A 1_555 1_555
O7F Mn1A 1_555 1_555
O7G Mn1 1_555 1_555
O8F Mn1A 1_555 1_555
O8G Mn1 1_555 1_555
C6 C7 1_555 1_555
C8 O3 1_555 1_555
C12 C13 1_555 1_555
C15 O6 1_555 1_555
C19 C20 1_555 1_555
C23 N1 1_555 1_555
C24 N1 1_555 1_555
Mn2 O10 1_555 1_555
Mn2 O7G 1_555 1_555
O8 Mn1G 1_555 1_555
C6A C7A 1_555 1_555
C8A O3A 1_555 1_555
C12A C13A 1_555 1_555
C14A O4A 1_555 1_555
C15A O6A 1_555 1_555
C19A C20A 1_555 1_555
C21A O7A 1_555 1_555
Mn1A O2A 1_555 1_555
O1A Mn2A 1_555 1_555
O8A Mn1F 1_555 1_555
C23F N1F 1_555 1_555
C24F N1F 1_555 1_555
C24F O10F 1_555 1_555
Mn2A O7F 1_555 1_555

#END
