
#######################################################################
#
#                 Cambridge Crystallographic Data Centre
#                                CCDC 
#
#######################################################################
#
# If this CIF has been generated from an entry in the Cambridge 
# Structural Database, then it will include bibliographic, chemical, 
# crystal, experimental, refinement or atomic coordinate data resulting 
# from the CCDC's data processing and validation procedures.
#
#######################################################################

data_MICDUX
_symmetry_cell_setting           orthorhombic
_symmetry_space_group_name_H-M   'P b c a'
_symmetry_Int_Tables_number      61
_space_group_name_Hall           '-P 2ac 2ab'
loop_
_symmetry_equiv_pos_site_id
_symmetry_equiv_pos_as_xyz
1 x,y,z
2 1/2+x,y,1/2-z
3 x,1/2-y,1/2+z
4 1/2-x,1/2+y,z
5 -x,-y,-z
6 1/2-x,-y,1/2+z
7 -x,1/2+y,1/2-z
8 1/2+x,1/2-y,-z
_cell_length_a                   6.6298(9)
_cell_length_b                   6.4608(9)
_cell_length_c                   17.350(2)
_cell_angle_alpha                90
_cell_angle_beta                 90
_cell_angle_gamma                90
_cell_volume                     743.167
loop_
_atom_site_label
_atom_site_type_symbol
_atom_site_fract_x
_atom_site_fract_y
_atom_site_fract_z
Zn1 Zn 0.6021(4) 0.1510(5) 0.30049(12)
Se1 Se 0.9451(4) 0.0228(4) 0.31957(12)
N1 N 0.4324(24) 0.0269(32) 0.3959(7)
C1 C 0.5381(30) 0.0785(29) 0.4723(8)
C1D C 0.4619(30) -0.0785(29) 0.5277(8)
N1D N 0.5676(24) -0.0269(32) 0.6041(7)
Se1A Se 0.4451(4) 0.0228(4) 0.18043(12)
Zn1A Zn 0.1021(4) 0.1510(5) 0.19951(12)
Se1C Se 0.5549(4) 0.5228(4) 0.31957(12)
Zn1A_2 Zn 1.1021(4) 0.1510(5) 0.19951(12)
Zn1C Zn 0.8979(4) -0.3490(5) 0.30049(12)
Zn1D Zn 0.3979(4) -0.1510(5) 0.69951(12)
Zn1F Zn 0.3979(4) -0.3490(5) 0.19951(12)
Se1_2 Se -0.0549(4) 0.0228(4) 0.31957(12)
Se1F Se 0.0549(4) 0.5228(4) 0.18043(12)
N1A N -0.0676(24) 0.0269(32) 0.1041(7)
loop_
_geom_bond_atom_site_label_1
_geom_bond_atom_site_label_2
_geom_bond_site_symmetry_1
_geom_bond_site_symmetry_2
Zn1 Se1 1_555 1_555
Se1 Zn1A_2 1_555 1_555
N1 Zn1 1_555 1_555
C1 N1 1_555 1_555
C1D C1 1_555 1_555
N1D C1D 1_555 1_555
Se1A Zn1 1_555 1_555
Zn1A Se1A 1_555 1_555
Se1C Zn1 1_555 1_555
Zn1C Se1 1_555 1_555
Zn1D N1D 1_555 1_555
Zn1F Se1A 1_555 1_555
Se1_2 Zn1A 1_555 1_555
Se1F Zn1A 1_555 1_555
N1A Zn1A 1_555 1_555

#END
