
#######################################################################
#
#                 Cambridge Crystallographic Data Centre
#                                CCDC 
#
#######################################################################
#
# If this CIF has been generated from an entry in the Cambridge 
# Structural Database, then it will include bibliographic, chemical, 
# crystal, experimental, refinement or atomic coordinate data resulting 
# from the CCDC's data processing and validation procedures.
#
#######################################################################

data_MICMER
_symmetry_cell_setting           monoclinic
_symmetry_space_group_name_H-M   'P 21/n'
_symmetry_Int_Tables_number      14
_space_group_name_Hall           '-P 2yn'
loop_
_symmetry_equiv_pos_site_id
_symmetry_equiv_pos_as_xyz
1 x,y,z
2 1/2-x,1/2+y,1/2-z
3 -x,-y,-z
4 1/2+x,1/2-y,1/2+z
_cell_length_a                   17.427(2)
_cell_length_b                   15.031(2)
_cell_length_c                   19.413(3)
_cell_angle_alpha                90
_cell_angle_beta                 97.567(3)
_cell_angle_gamma                90
_cell_volume                     5040.86
loop_
_atom_site_label
_atom_site_type_symbol
_atom_site_fract_x
_atom_site_fract_y
_atom_site_fract_z
Cd1 Cd 0.373291(14) 0.270616(15) 0.632291(10)
F1 F 0.10311(12) 0.54854(14) 0.34372(9)
F2 F 0.36019(12) 0.54645(14) 0.29457(10)
F3 F 0.05391(12) 0.50024(15) 0.21368(10)
F4 F 0.31110(13) 0.48852(15) 0.16568(10)
F5 F 0.38842(12) 0.12427(14) 1.00194(9)
F6 F 0.51580(13) 0.13503(13) 1.09305(9)
F7 F 0.35493(11) 0.51959(15) 0.93293(10)
F8 F 0.37641(11) 0.43560(15) 1.05508(10)
O1 O 0.25063(14) 0.31884(16) 0.66150(13)
O2 O 0.20141(18) 0.1970(2) 0.62189(18)
O3 O 0.14220(15) 0.27445(19) 0.69055(14)
O4 O 0.50416(13) 0.21500(15) 0.65509(11)
O5 O 0.52023(16) 0.31642(18) 0.57977(13)
O6 O 0.61939(15) 0.24883(16) 0.63510(15)
N1 N 0.34239(15) 0.37852(17) 0.54373(12)
N2 N 0.14055(15) 0.66378(17) -0.04480(12)
N3 N 0.36464(15) 0.16647(17) 0.72428(11)
N4 N 0.41041(15) 0.38792(17) 0.70808(12)
N5 N 0.19683(16) 0.2629(2) 0.65794(13)
N6 N 0.54879(18) 0.26090(19) 0.62260(14)
C1 C 0.3843(2) 0.4519(2) 0.53565(17)
C2 C 0.2750(2) 0.3711(2) 0.50261(15)
C3 C 0.3606(2) 0.5180(2) 0.48853(16)
C4 C 0.2473(2) 0.4336(2) 0.45363(15)
C5 C 0.29025(19) 0.5097(2) 0.44635(14)
C6 C 0.2624(3) 0.5825(2) 0.39565(16)
C7 C 0.2334(2) 0.5496(2) 0.32307(15)
C8 C 0.1566(2) 0.5356(2) 0.29979(15)
C9 C 0.2838(2) 0.5337(2) 0.27538(16)
C10 C 0.1311(2) 0.5090(2) 0.23293(16)
C11 C 0.2585(2) 0.5051(2) 0.20882(16)
C12 C 0.1809(2) 0.4917(2) 0.18558(15)
C13 C 0.1544(3) 0.4599(2) 0.11249(17)
C14 C 0.15039(19) 0.5332(2) 0.05847(14)
C15 C 0.1883(2) 0.5242(2) 0.00092(15)
C16 C 0.1082(2) 0.6098(2) 0.06279(17)
C17 C 0.1826(2) 0.5900(2) -0.04851(16)
C18 C 0.1044(2) 0.6722(2) 0.01112(16)
C19 C 0.3263(2) 0.1874(2) 0.77741(16)
C20 C 0.3998(2) 0.0872(2) 0.72751(16)
C21 C 0.3223(2) 0.1323(2) 0.83372(16)
C22 C 0.3991(2) 0.0291(2) 0.78246(16)
C23 C 0.35999(18) 0.0515(2) 0.83749(14)
C24 C 0.3583(2) -0.0103(3) 0.89925(17)
C25 C 0.43178(19) -0.0054(2) 0.95084(14)
C26 C 0.4434(2) 0.0611(2) 1.00026(15)
C27 C 0.5098(2) 0.0667(2) 1.04780(15)
C28 C 0.3661(2) 0.4597(2) 0.71424(17)
C29 C 0.4760(2) 0.3830(2) 0.75139(17)
C30 C 0.3847(2) 0.5251(2) 0.76288(17)
C31 C 0.4983(2) 0.4460(2) 0.80208(16)
C32 C 0.45239(18) 0.5189(2) 0.80847(14)
C33 C 0.4754(2) 0.5879(2) 0.86404(17)
C34 C 0.48866(19) 0.5444(2) 0.93506(15)
C35 C 0.42802(18) 0.5104(2) 0.96540(15)
C36 C 0.43870(19) 0.4672(2) 1.02848(16)
H19 H 0.4329(18) 0.458(2) 0.5627(16)
H20 H 0.2465(16) 0.322(2) 0.5085(14)
H21 H 0.3925(19) 0.565(2) 0.4797(16)
H22 H 0.2021(19) 0.422(2) 0.4243(17)
H23 H 0.3025(18) 0.624(2) 0.3938(15)
H24 H 0.2238(19) 0.615(2) 0.4099(16)
H25 H 0.1887(19) 0.414(2) 0.1017(16)
H26 H 0.1025(19) 0.436(2) 0.1092(15)
H27 H 0.2197(18) 0.477(2) -0.0022(15)
H28 H 0.083(2) 0.618(2) 0.0995(18)
H29 H 0.2044(17) 0.584(2) -0.0839(15)
H30 H 0.0729(18) 0.723(2) 0.0126(15)
H31 H 0.298(2) 0.244(2) 0.7726(17)
H32 H 0.4295(18) 0.073(2) 0.6875(16)
H33 H 0.291(2) 0.150(2) 0.8698(18)
H34 H 0.428(2) -0.022(2) 0.7806(17)
H35 H 0.313(2) 0.006(2) 0.9235(17)
H36 H 0.350(2) -0.068(3) 0.8819(18)
H37 H 0.323(2) 0.460(2) 0.6839(17)
H38 H 0.5064(18) 0.336(2) 0.7443(15)
H39 H 0.3560(19) 0.576(2) 0.7661(16)
H40 H 0.552(2) 0.441(2) 0.8283(17)
H41 H 0.526(2) 0.618(2) 0.8554(16)
H42 H 0.4393(19) 0.629(2) 0.8625(16)
Cd1A Cd 0.126709(14) -0.229384(15) -0.132291(10)
Cd1A_2 Cd 0.126709(14) 0.770616(15) -0.132291(10)
Cd1B Cd 0.626709(14) -0.270616(15) 1.367709(10)
Cd1B_2 Cd 0.626709(14) 0.729384(15) 1.367709(10)
F1A F 0.39689(12) 0.04854(14) 0.15628(9)
F2A F 0.13981(12) 0.04645(14) 0.20543(10)
F3A F 0.44609(12) 0.00024(15) 0.28632(10)
F4A F 0.18890(13) -0.01148(15) 0.33432(10)
F5B F 0.61158(12) -0.12427(14) 0.99806(9)
F6B F 0.48420(13) -0.13503(13) 0.90695(9)
F7B F 0.64507(11) 0.48041(15) 1.06707(10)
F8B F 0.62359(11) 0.56440(15) 0.94492(10)
O1A O 0.24937(14) -0.18116(16) -0.16150(13)
O2A O 0.29859(18) -0.3030(2) -0.12189(18)
O3A O 0.35780(15) -0.22555(19) -0.19055(14)
O4A O -0.00416(13) -0.28500(15) -0.15509(11)
O5A O -0.02023(16) -0.18358(18) -0.07977(13)
O6A O -0.11939(15) -0.25117(16) -0.13510(15)
N1A N 0.15761(15) -0.12148(17) -0.04373(12)
N2A N 0.35945(15) 0.16378(17) 0.54480(12)
N2_2 N 0.14055(15) -0.33622(17) -0.04480(12)
N3B N 0.63536(15) -0.16647(17) 1.27572(11)
N3A N 0.13536(15) -0.33353(17) -0.22428(11)
N4B N 0.58959(15) 0.61208(17) 1.29192(12)
N4A N 0.08959(15) -0.11208(17) -0.20808(12)
N5A N 0.30317(16) -0.2371(2) -0.15794(13)
N6A N -0.04879(18) -0.23910(19) -0.12260(14)
C1A C 0.1157(2) -0.0481(2) -0.03565(17)
C2A C 0.2250(2) -0.1289(2) -0.00261(15)
C3A C 0.1394(2) 0.0180(2) 0.01147(16)
C4A C 0.2527(2) -0.0664(2) 0.04637(15)
C5A C 0.20975(19) 0.0097(2) 0.05365(14)
C6A C 0.2376(3) 0.0825(2) 0.10435(16)
C7A C 0.2666(2) 0.0496(2) 0.17693(15)
C8A C 0.3434(2) 0.0356(2) 0.20021(15)
C9A C 0.2162(2) 0.0337(2) 0.22462(16)
C10A C 0.3689(2) 0.0090(2) 0.26707(16)
C11A C 0.2415(2) 0.0051(2) 0.29118(16)
C12A C 0.3191(2) -0.0083(2) 0.31442(15)
C13A C 0.3456(3) -0.0401(2) 0.38751(17)
C14A C 0.34961(19) 0.0332(2) 0.44153(14)
C15A C 0.3117(2) 0.0242(2) 0.49908(15)
C16A C 0.3918(2) 0.1098(2) 0.43721(17)
C17A C 0.3174(2) 0.0900(2) 0.54851(16)
C18A C 0.3956(2) 0.1722(2) 0.48888(16)
C19B C 0.6737(2) -0.1874(2) 1.22259(16)
C20B C 0.6002(2) -0.0872(2) 1.27249(16)
C21B C 0.6777(2) -0.1323(2) 1.16628(16)
C22B C 0.6009(2) -0.0291(2) 1.21754(16)
C23B C 0.64001(18) -0.0515(2) 1.16251(14)
C24B C 0.6417(2) 0.0103(3) 1.10075(17)
C25B C 0.56822(19) 0.0054(2) 1.04916(14)
C26B C 0.5566(2) -0.0611(2) 0.99974(15)
C27B C 0.4902(2) -0.0667(2) 0.95220(15)
C28B C 0.6339(2) 0.5403(2) 1.28576(17)
C29B C 0.5240(2) 0.6170(2) 1.24861(17)
C30B C 0.6153(2) 0.4749(2) 1.23712(17)
C31B C 0.5017(2) 0.5540(2) 1.19792(16)
C32B C 0.54761(18) 0.4811(2) 1.19153(14)
C33B C 0.5246(2) 0.4121(2) 1.13596(17)
C34B C 0.51134(19) 0.4556(2) 1.06494(15)
C35B C 0.57198(18) 0.4896(2) 1.03460(15)
C36B C 0.56130(19) 0.5328(2) 0.97152(16)
H19A H 0.0671(18) -0.042(2) -0.0627(16)
H20A H 0.2535(16) -0.178(2) -0.0085(14)
H21A H 0.1075(19) 0.065(2) 0.0203(16)
H22A H 0.2979(19) -0.078(2) 0.0757(17)
H23A H 0.1975(18) 0.124(2) 0.1062(15)
H24A H 0.2762(19) 0.115(2) 0.0901(16)
H25A H 0.3113(19) -0.086(2) 0.3983(16)
H26A H 0.3975(19) -0.064(2) 0.3908(15)
H27A H 0.2803(18) -0.023(2) 0.5022(15)
H28A H 0.417(2) 0.118(2) 0.4005(18)
H29A H 0.2956(17) 0.084(2) 0.5839(15)
H30A H 0.4271(18) 0.223(2) 0.4874(15)
H31B H 0.702(2) -0.244(2) 1.2274(17)
H32B H 0.5705(18) -0.073(2) 1.3125(16)
H33B H 0.709(2) -0.150(2) 1.1302(18)
H34B H 0.572(2) 0.022(2) 1.2194(17)
H35B H 0.687(2) -0.006(2) 1.0765(17)
H36B H 0.650(2) 0.068(3) 1.1181(18)
H37B H 0.677(2) 0.540(2) 1.3161(17)
H38B H 0.4936(18) 0.664(2) 1.2557(15)
H39B H 0.6440(19) 0.424(2) 1.2339(16)
H40B H 0.448(2) 0.559(2) 1.1717(17)
H41B H 0.474(2) 0.382(2) 1.1446(16)
H42B H 0.5607(19) 0.371(2) 1.1375(16)
C37 C 0.1378(3) 0.2573(4) 0.3251(2)
H1 H 0.1586 0.2621 0.2824
C38 C 0.0744(3) 0.3020(3) 0.3338(3)
H2 H 0.0506 0.3395 0.2978
C39 C 0.0434(3) 0.2948(3) 0.3934(3)
H3 H -0.0022 0.3271 0.3991
C40 C 0.0775(3) 0.2410(4) 0.4461(2)
H4 H 0.0557 0.2354 0.4882
C41 C 0.1436(3) 0.1957(3) 0.4367(3)
H5 H 0.1684 0.1583 0.4723
C42 C 0.1732(3) 0.2049(3) 0.3761(3)
H6 H 0.2193 0.1743 0.3695
C43 C 0.3427(4) 0.3187(3) 0.3107(3)
H7 H 0.2955 0.3349 0.3269
C44 C 0.3410(4) 0.2742(4) 0.2506(3)
H8 H 0.2929 0.2598 0.2241
C45 C 0.4084(6) 0.2499(4) 0.2278(4)
H9 H 0.4070 0.2179 0.1855
C46 C 0.4783(5) 0.2709(5) 0.2651(5)
H10 H 0.5255 0.2543 0.2492
C47 C 0.4780(4) 0.3171(5) 0.3265(4)
H11 H 0.5256 0.3323 0.3536
C48 C 0.4106(4) 0.3408(4) 0.3483(3)
H12 H 0.4110 0.3731 0.3904
C49 C 0.6858(5) 0.2183(3) 0.4781(3)
H13 H 0.6749 0.2468 0.5194
C50 C 0.6287(4) 0.1911(4) 0.4327(3)
H14 H 0.5771 0.2004 0.4417
C51 C 0.6410(4) 0.1508(4) 0.3740(3)
H15 H 0.5981 0.1319 0.3420
C52 C 0.7128(5) 0.1367(3) 0.3596(3)
H16 H 0.7204 0.1078 0.3175
C53 C 0.7757(4) 0.1632(4) 0.4047(4)
H17 H 0.8270 0.1534 0.3949
C54 C 0.7606(5) 0.2064(4) 0.4675(3)
H18 H 0.8019 0.2262 0.5008
loop_
_geom_bond_atom_site_label_1
_geom_bond_atom_site_label_2
_geom_bond_site_symmetry_1
_geom_bond_site_symmetry_2
Cd1 O1 1_555 1_555
F1 C8 1_555 1_555
F2 C9 1_555 1_555
F3 C10 1_555 1_555
F4 C11 1_555 1_555
F5 C26 1_555 1_555
F6 C27 1_555 1_555
F7 C35 1_555 1_555
F8 C36 1_555 1_555
O1 N5 1_555 1_555
O2 N5 1_555 1_555
O3 N5 1_555 1_555
O4 Cd1 1_555 1_555
O5 N6 1_555 1_555
O6 N6 1_555 1_555
N1 Cd1 1_555 1_555
N2 C17 1_555 1_555
N3 Cd1 1_555 1_555
N4 Cd1 1_555 1_555
N6 O4 1_555 1_555
C1 N1 1_555 1_555
C2 N1 1_555 1_555
C3 C1 1_555 1_555
C4 C2 1_555 1_555
C5 C3 1_555 1_555
C6 C5 1_555 1_555
C7 C6 1_555 1_555
C8 C7 1_555 1_555
C9 C7 1_555 1_555
C10 C8 1_555 1_555
C11 C9 1_555 1_555
C12 C10 1_555 1_555
C13 C12 1_555 1_555
C14 C13 1_555 1_555
C15 C14 1_555 1_555
C16 C14 1_555 1_555
C17 C15 1_555 1_555
C18 N2 1_555 1_555
C19 N3 1_555 1_555
C20 N3 1_555 1_555
C21 C19 1_555 1_555
C22 C20 1_555 1_555
C23 C21 1_555 1_555
C24 C23 1_555 1_555
C25 C24 1_555 1_555
C26 C25 1_555 1_555
C27 C26 1_555 1_555
C28 N4 1_555 1_555
C29 N4 1_555 1_555
C30 C28 1_555 1_555
C31 C29 1_555 1_555
C32 C30 1_555 1_555
C33 C32 1_555 1_555
C34 C33 1_555 1_555
C35 C34 1_555 1_555
C36 C35 1_555 1_555
C37 H1 1_555 1_555
C38 C37 1_555 1_555
H2 C38 1_555 1_555
C39 C38 1_555 1_555
H3 C39 1_555 1_555
C40 C39 1_555 1_555
H4 C40 1_555 1_555
C41 C40 1_555 1_555
H5 C41 1_555 1_555
C42 C37 1_555 1_555
H6 C42 1_555 1_555
C43 H7 1_555 1_555
C44 C43 1_555 1_555
H8 C44 1_555 1_555
C45 C44 1_555 1_555
H9 C45 1_555 1_555
C46 C45 1_555 1_555
H10 C46 1_555 1_555
C47 C46 1_555 1_555
H11 C47 1_555 1_555
C48 C43 1_555 1_555
H12 C48 1_555 1_555
C49 H13 1_555 1_555
C50 C49 1_555 1_555
H14 C50 1_555 1_555
C51 C50 1_555 1_555
H15 C51 1_555 1_555
C52 C51 1_555 1_555
H16 C52 1_555 1_555
C53 C52 1_555 1_555
H17 C53 1_555 1_555
C54 C49 1_555 1_555
H18 C54 1_555 1_555
H19 C1 1_555 1_555
H20 C2 1_555 1_555
H21 C3 1_555 1_555
H22 C4 1_555 1_555
H23 C6 1_555 1_555
H24 C6 1_555 1_555
H25 C13 1_555 1_555
H26 C13 1_555 1_555
H27 C15 1_555 1_555
H28 C16 1_555 1_555
H29 C17 1_555 1_555
H30 C18 1_555 1_555
H31 C19 1_555 1_555
H32 C20 1_555 1_555
H33 C21 1_555 1_555
H34 C22 1_555 1_555
H35 C24 1_555 1_555
H36 C24 1_555 1_555
H37 C28 1_555 1_555
H38 C29 1_555 1_555
H39 C30 1_555 1_555
H40 C31 1_555 1_555
H41 C33 1_555 1_555
H42 C33 1_555 1_555
Cd1A O1A 1_555 1_555
Cd1A_2 N2 1_555 1_555
Cd1B N3B 1_555 1_555
Cd1B_2 N4B 1_555 1_555
F1A C8A 1_555 1_555
F2A C9A 1_555 1_555
F3A C10A 1_555 1_555
F4A C11A 1_555 1_555
F5B C26B 1_555 1_555
F6B C27B 1_555 1_555
F7B C35B 1_555 1_555
F8B C36B 1_555 1_555
O1A N5A 1_555 1_555
O2A N5A 1_555 1_555
O3A N5A 1_555 1_555
O4A Cd1A 1_555 1_555
O5A N6A 1_555 1_555
O6A N6A 1_555 1_555
N1A Cd1A 1_555 1_555
N2A Cd1 1_555 1_555
N2_2 Cd1A 1_555 1_555
N3B C19B 1_555 1_555
N3A Cd1A 1_555 1_555
N4B C28B 1_555 1_555
N4A Cd1A 1_555 1_555
N6A O4A 1_555 1_555
C1A N1A 1_555 1_555
C2A N1A 1_555 1_555
C3A C1A 1_555 1_555
C4A C2A 1_555 1_555
C5A C3A 1_555 1_555
C6A C5A 1_555 1_555
C7A C6A 1_555 1_555
C8A C7A 1_555 1_555
C9A C7A 1_555 1_555
C10A C8A 1_555 1_555
C11A C9A 1_555 1_555
C12A C10A 1_555 1_555
C13A C12A 1_555 1_555
C14A C13A 1_555 1_555
C15A C14A 1_555 1_555
C16A C14A 1_555 1_555
C17A N2A 1_555 1_555
C18A N2A 1_555 1_555
C19B C21B 1_555 1_555
C20B N3B 1_555 1_555
C21B C23B 1_555 1_555
C22B C20B 1_555 1_555
C23B C22B 1_555 1_555
C24B C23B 1_555 1_555
C25B C27 1_555 1_555
C26B C25B 1_555 1_555
C27B C25 1_555 1_555
C28B C30B 1_555 1_555
C29B N4B 1_555 1_555
C30B C32B 1_555 1_555
C31B C29B 1_555 1_555
C32B C31B 1_555 1_555
C33B C32B 1_555 1_555
C34B C36 1_555 1_555
C35B C34B 1_555 1_555
C36B C34 1_555 1_555
H19A C1A 1_555 1_555
H20A C2A 1_555 1_555
H21A C3A 1_555 1_555
H22A C4A 1_555 1_555
H23A C6A 1_555 1_555
H24A C6A 1_555 1_555
H25A C13A 1_555 1_555
H26A C13A 1_555 1_555
H27A C15A 1_555 1_555
H28A C16A 1_555 1_555
H29A C17A 1_555 1_555
H30A C18A 1_555 1_555
H31B C19B 1_555 1_555
H32B C20B 1_555 1_555
H33B C21B 1_555 1_555
H34B C22B 1_555 1_555
H35B C24B 1_555 1_555
H36B C24B 1_555 1_555
H37B C28B 1_555 1_555
H38B C29B 1_555 1_555
H39B C30B 1_555 1_555
H40B C31B 1_555 1_555
H41B C33B 1_555 1_555
H42B C33B 1_555 1_555
C4 C5 1_555 1_555
C11 C12 1_555 1_555
C16 C18 1_555 1_555
C22 C23 1_555 1_555
C31 C32 1_555 1_555
C41 C42 1_555 1_555
C47 C48 1_555 1_555
C53 C54 1_555 1_555
C4A C5A 1_555 1_555
C11A C12A 1_555 1_555
C15A C17A 1_555 1_555
C16A C18A 1_555 1_555
C24B C25B 1_555 1_555
C26B C27B 1_555 1_555
C33B C34B 1_555 1_555
C35B C36B 1_555 1_555

#END
