
#######################################################################
#
#                 Cambridge Crystallographic Data Centre
#                                CCDC 
#
#######################################################################
#
# If this CIF has been generated from an entry in the Cambridge 
# Structural Database, then it will include bibliographic, chemical, 
# crystal, experimental, refinement or atomic coordinate data resulting 
# from the CCDC's data processing and validation procedures.
#
#######################################################################

data_MICMIV
_symmetry_cell_setting           triclinic
_symmetry_space_group_name_H-M   'P -1'
_symmetry_Int_Tables_number      2
_space_group_name_Hall           '-P 1'
loop_
_symmetry_equiv_pos_site_id
_symmetry_equiv_pos_as_xyz
1 x,y,z
2 -x,-y,-z
_cell_length_a                   10.129(2)
_cell_length_b                   10.245(2)
_cell_length_c                   21.438(4)
_cell_angle_alpha                77.169(3)
_cell_angle_beta                 78.687(4)
_cell_angle_gamma                83.771(4)
_cell_volume                     2122.05
loop_
_atom_site_label
_atom_site_type_symbol
_atom_site_fract_x
_atom_site_fract_y
_atom_site_fract_z
Cd1 Cd 0.50000(2) 0.49227(2) 0.257088(9)
F1 F 0.2415(2) 0.3587(2) 0.00740(11)
F2 F 0.0194(2) 0.2288(2) 0.01663(11)
F3 F 0.3178(2) -0.0815(2) 0.10898(10)
F4 F 0.2405(2) -0.0281(2) -0.00745(11)
F5 F 0.7451(2) 0.6077(3) 0.49638(11)
F6 F 0.9429(3) 0.7697(2) 0.48000(12)
F7 F 0.2818(3) 1.0383(3) 0.44105(14)
F8 F 0.2455(3) 0.9867(3) 0.57096(13)
O1 O 0.2694(4) 0.5391(4) 0.32792(18)
O2 O 0.3087(3) 0.3438(4) 0.31112(17)
O3 O 0.1129(3) 0.4005(6) 0.36182(18)
O4 O 0.7223(2) 0.5166(3) 0.19522(13)
O5 O 0.8158(5) 0.6784(4) 0.12267(16)
O6 O 0.9004(3) 0.6002(3) 0.20843(17)
N1 N 0.3993(3) 0.5913(3) 0.16603(12)
N2 N 0.5389(3) 0.3034(3) 0.20669(12)
N3 N 0.6021(3) 0.3911(3) 0.34676(12)
N4 N 0.5195(3) 0.6980(3) 0.28612(13)
N5 N 0.2250(3) 0.4261(4) 0.33489(13)
N6 N 0.8124(3) 0.5997(3) 0.17541(13)
C1 C 0.2662(3) 0.5904(3) 0.16680(14)
H1 H 0.2069 0.5786 0.2076
C2 C 0.4814(3) 0.6117(3) 0.10778(15)
H2 H 0.5754 0.6150 0.1063
C3 C 0.2111(3) 0.6059(3) 0.11071(14)
H3 H 0.1165 0.6041 0.1135
C4 C 0.4341(3) 0.6282(3) 0.04963(15)
H4 H 0.4954 0.6423 0.0095
C5 C 0.2966(3) 0.6241(3) 0.05039(14)
C6 C 0.2448(3) 0.6402(4) -0.01264(15)
H5 H 0.2266 0.7370 -0.0300
H6 H 0.3164 0.6054 -0.0446
C7 C 0.1183(3) 0.5692(3) -0.00622(14)
C8 C 0.1222(3) 0.4305(3) 0.00341(15)
C9 C 0.0074(3) 0.3629(3) 0.00872(15)
C10 C 0.4343(3) 0.2574(4) 0.18963(17)
H7 H 0.3487 0.3054 0.1958
C11 C 0.6577(3) 0.2341(3) 0.19710(15)
H8 H 0.7332 0.2651 0.2083
C12 C 0.4451(4) 0.1443(4) 0.16370(18)
H9 H 0.3685 0.1165 0.1520
C13 C 0.6768(3) 0.1182(3) 0.17136(15)
H10 H 0.7636 0.0724 0.1654
C14 C 0.5694(3) 0.0706(3) 0.15471(14)
C15 C 0.5844(4) -0.0556(3) 0.12750(16)
H11 H 0.5288 -0.1243 0.1581
H12 H 0.6798 -0.0915 0.1232
C16 C 0.5412(3) -0.0287(3) 0.06162(15)
C17 C 0.4101(4) -0.0405(3) 0.05571(16)
C18 C 0.3695(4) -0.0129(3) -0.00463(16)
C19 C 0.5246(3) 0.3765(3) 0.40592(15)
H13 H 0.4294 0.3825 0.4090
C20 C 0.7365(3) 0.3767(4) 0.34346(15)
H14 H 0.7928 0.3831 0.3020
C21 C 0.5771(3) 0.3531(3) 0.46301(15)
H15 H 0.5185 0.3439 0.5040
C22 C 0.7961(3) 0.3530(4) 0.39838(16)
H16 H 0.8916 0.3436 0.3942
C23 C 0.7157(3) 0.3432(3) 0.45942(15)
C24 C 0.7779(4) 0.3241(4) 0.52007(16)
H17 H 0.7076 0.3443 0.5565
H18 H 0.8118 0.2292 0.5321
C25 C 0.8926(3) 0.4135(4) 0.51016(14)
C26 C 0.8719(3) 0.5517(4) 0.49826(15)
C27 C 0.9741(3) 0.6359(4) 0.48917(15)
C28 C 0.4139(4) 0.7887(4) 0.29015(17)
H19 H 0.3336 0.7725 0.2773
C29 C 0.6318(4) 0.7260(4) 0.30369(19)
H20 H 0.7082 0.6638 0.3002
C30 C 0.4177(4) 0.9064(4) 0.31267(17)
H21 H 0.3408 0.9683 0.3147
C31 C 0.6434(4) 0.8401(4) 0.32655(19)
H22 H 0.7253 0.8548 0.3384
C32 C 0.5325(4) 0.9327(3) 0.33185(16)
C33 C 0.5396(5) 1.0582(4) 0.35749(18)
H23 H 0.6285 1.0956 0.3394
H24 H 0.4690 1.1265 0.3431
C34 C 0.5199(5) 1.0272(3) 0.43089(17)
C35 C 0.3899(5) 1.0203(4) 0.46952(19)
C36 C 0.3722(5) 0.9941(4) 0.53662(18)
Cd1A Cd -0.50000(2) 0.50773(2) -0.257088(9)
Cd1A_2 Cd 0.50000(2) -0.49227(2) -0.257088(9)
Cd1A_3 Cd 1.50000(2) 0.50773(2) 0.742912(9)
Cd1A_4 Cd 0.50000(2) 1.50773(2) 0.742912(9)
F1A F -0.2415(2) 0.6413(2) -0.00740(11)
F2A F -0.0194(2) 0.7712(2) -0.01663(11)
F3A F 0.6822(2) 0.0815(2) -0.10898(10)
F4A F 0.7595(2) 0.0281(2) 0.00745(11)
F5A F 1.2549(2) 0.3923(3) 0.50362(11)
F6A F 1.0571(3) 0.2303(2) 0.52000(12)
F7A F 0.7182(3) 0.9617(3) 0.55895(14)
F8A F 0.7545(3) 1.0133(3) 0.42904(13)
O1A O -0.2694(4) 0.4609(4) -0.32792(18)
O2A O -0.3087(3) 0.6562(4) -0.31112(17)
O3A O -0.1129(3) 0.5995(6) -0.36182(18)
O4A O -0.7223(2) 0.4834(3) -0.19522(13)
O5A O -0.8158(5) 0.3216(4) -0.12267(16)
O6A O -0.9004(3) 0.3998(3) -0.20843(17)
N1A N -0.3993(3) 0.4087(3) -0.16603(12)
N2A N 0.4611(3) -0.3034(3) -0.20669(12)
N2A_2 N -0.5389(3) 0.6966(3) -0.20669(12)
N3A N 1.3979(3) 0.6089(3) 0.65324(12)
N3A_2 N -0.6021(3) 0.6089(3) -0.34676(12)
N4A N 0.4805(3) 1.3020(3) 0.71388(13)
N4A_2 N -0.5195(3) 0.3020(3) -0.28612(13)
N5A N -0.2250(3) 0.5739(4) -0.33489(13)
N6A N -0.8124(3) 0.4003(3) -0.17541(13)
C1A C -0.2662(3) 0.4096(3) -0.16680(14)
H1A H -0.2069 0.4214 -0.2076
C2A C -0.4814(3) 0.3883(3) -0.10778(15)
H2A H -0.5754 0.3850 -0.1063
C3A C -0.2111(3) 0.3941(3) -0.11071(14)
H3A H -0.1165 0.3959 -0.1135
C4A C -0.4341(3) 0.3718(3) -0.04963(15)
H4A H -0.4954 0.3577 -0.0095
C5A C -0.2966(3) 0.3759(3) -0.05039(14)
C6A C -0.2448(3) 0.3598(4) 0.01264(15)
H5A H -0.2266 0.2630 0.0300
H6A H -0.3164 0.3946 0.0446
C7A C -0.1183(3) 0.4308(3) 0.00622(14)
C8A C -0.1222(3) 0.5695(3) -0.00341(15)
C9A C -0.0074(3) 0.6371(3) -0.00872(15)
C10A C 0.5657(3) -0.2574(4) -0.18963(17)
H7A H 0.6513 -0.3054 -0.1958
C11A C 0.3423(3) -0.2341(3) -0.19710(15)
H8A H 0.2668 -0.2651 -0.2083
C12A C 0.5549(4) -0.1443(4) -0.16370(18)
H9A H 0.6315 -0.1165 -0.1520
C13A C 0.3232(3) -0.1182(3) -0.17136(15)
H10A H 0.2364 -0.0724 -0.1654
C14A C 0.4306(3) -0.0706(3) -0.15471(14)
C15A C 0.4156(4) 0.0556(3) -0.12750(16)
H11A H 0.4712 0.1243 -0.1581
H12A H 0.3202 0.0915 -0.1232
C16A C 0.4588(3) 0.0287(3) -0.06162(15)
C17A C 0.5899(4) 0.0405(3) -0.05571(16)
C18A C 0.6305(4) 0.0129(3) 0.00463(16)
C19A C 1.4754(3) 0.6235(3) 0.59408(15)
H13A H 1.5706 0.6175 0.5910
C20A C 1.2635(3) 0.6233(4) 0.65654(15)
H14A H 1.2072 0.6169 0.6980
C21A C 1.4229(3) 0.6469(3) 0.53699(15)
H15A H 1.4815 0.6561 0.4960
C22A C 1.2039(3) 0.6470(4) 0.60162(16)
H16A H 1.1084 0.6564 0.6058
C23A C 1.2843(3) 0.6568(3) 0.54058(15)
C24A C 1.2221(4) 0.6759(4) 0.47993(16)
H17A H 1.2924 0.6557 0.4435
H18A H 1.1882 0.7708 0.4679
C25A C 1.1074(3) 0.5865(4) 0.48984(14)
C26A C 1.1281(3) 0.4483(4) 0.50174(15)
C27A C 1.0259(3) 0.3641(4) 0.51083(15)
C28A C 0.5861(4) 1.2113(4) 0.70985(17)
H19A H 0.6664 1.2275 0.7227
C29A C 0.3682(4) 1.2740(4) 0.69631(19)
H20A H 0.2918 1.3362 0.6998
C30A C 0.5823(4) 1.0936(4) 0.68733(17)
H21A H 0.6592 1.0317 0.6853
C31A C 0.3566(4) 1.1599(4) 0.67345(19)
H22A H 0.2747 1.1452 0.6616
C32A C 0.4675(4) 1.0673(3) 0.66815(16)
C33A C 0.4604(5) 0.9418(4) 0.64251(18)
H23A H 0.3715 0.9044 0.6606
H24A H 0.5310 0.8735 0.6569
C34A C 0.4801(5) 0.9728(3) 0.56911(17)
C35A C 0.6101(5) 0.9797(4) 0.53048(19)
C36A C 0.6278(5) 1.0059(4) 0.46338(18)
Br1 Br 0.04843(4) 1.28711(4) 0.18679(2)
O7 O 0.0153(3) 1.0338(3) 0.14754(13)
C37 C 0.0443(4) 1.1109(4) 0.2381(2)
C38 C 0.0288(3) 1.0040(4) 0.21068(18)
C39 C 0.0242(4) 0.8750(4) 0.2497(2)
H25 H 0.0114 0.8005 0.2324
C40 C 0.0386(5) 0.8573(6) 0.3144(2)
H26 H 0.0386 0.7691 0.3404
C41 C 0.0530(5) 0.9638(6) 0.3421(3)
H27 H 0.0602 0.9492 0.3867
C42 C 0.0567(4) 1.0925(5) 0.3035(2)
H28 H 0.0675 1.1669 0.3213
C43 C -0.0038(4) 0.9249(4) 0.1187(2)
H29 H -0.0123 0.9595 0.0731
H30 H -0.0861 0.8817 0.1423
H31 H 0.0739 0.8591 0.1210
loop_
_geom_bond_atom_site_label_1
_geom_bond_atom_site_label_2
_geom_bond_site_symmetry_1
_geom_bond_site_symmetry_2
Cd1 O2 1_555 1_555
Br1 C37 1_555 1_555
F1 C8 1_555 1_555
F2 C9 1_555 1_555
F3 C17 1_555 1_555
F4 C18 1_555 1_555
F5 C26 1_555 1_555
F6 C27 1_555 1_555
F7 C35 1_555 1_555
F8 C36 1_555 1_555
O1 N5 1_555 1_555
O2 N5 1_555 1_555
O3 N5 1_555 1_555
O4 Cd1 1_555 1_555
O5 N6 1_555 1_555
O6 N6 1_555 1_555
O7 C38 1_555 1_555
N1 Cd1 1_555 1_555
N2 Cd1 1_555 1_555
N3 Cd1 1_555 1_555
N4 Cd1 1_555 1_555
N6 O4 1_555 1_555
C1 N1 1_555 1_555
H1 C1 1_555 1_555
C2 N1 1_555 1_555
H2 C2 1_555 1_555
C3 C1 1_555 1_555
H3 C3 1_555 1_555
C4 C2 1_555 1_555
H4 C4 1_555 1_555
C5 C3 1_555 1_555
C6 C5 1_555 1_555
H5 C6 1_555 1_555
H6 C6 1_555 1_555
C7 C6 1_555 1_555
C8 C7 1_555 1_555
C9 C8 1_555 1_555
C10 N2 1_555 1_555
H7 C10 1_555 1_555
C11 N2 1_555 1_555
H8 C11 1_555 1_555
C12 C10 1_555 1_555
H9 C12 1_555 1_555
C13 C11 1_555 1_555
H10 C13 1_555 1_555
C14 C12 1_555 1_555
C15 C14 1_555 1_555
H11 C15 1_555 1_555
H12 C15 1_555 1_555
C16 C15 1_555 1_555
C17 C16 1_555 1_555
C18 C17 1_555 1_555
C19 N3 1_555 1_555
H13 C19 1_555 1_555
C20 N3 1_555 1_555
H14 C20 1_555 1_555
C21 C19 1_555 1_555
H15 C21 1_555 1_555
C22 C20 1_555 1_555
H16 C22 1_555 1_555
C23 C21 1_555 1_555
C24 C23 1_555 1_555
H17 C24 1_555 1_555
H18 C24 1_555 1_555
C25 C24 1_555 1_555
C26 C25 1_555 1_555
C27 C26 1_555 1_555
C28 N4 1_555 1_555
H19 C28 1_555 1_555
C29 N4 1_555 1_555
H20 C29 1_555 1_555
C30 C28 1_555 1_555
H21 C30 1_555 1_555
C31 C29 1_555 1_555
H22 C31 1_555 1_555
C32 C30 1_555 1_555
C33 C32 1_555 1_555
H23 C33 1_555 1_555
H24 C33 1_555 1_555
C34 C33 1_555 1_555
C35 C34 1_555 1_555
C36 C35 1_555 1_555
C37 C38 1_555 1_555
C38 C39 1_555 1_555
C39 H25 1_555 1_555
C40 C39 1_555 1_555
H26 C40 1_555 1_555
C41 C40 1_555 1_555
H27 C41 1_555 1_555
C42 C37 1_555 1_555
H28 C42 1_555 1_555
C43 O7 1_555 1_555
H29 C43 1_555 1_555
H30 C43 1_555 1_555
H31 C43 1_555 1_555
Cd1A O2A 1_555 1_555
Cd1A_2 N2A 1_555 1_555
Cd1A_3 N3A 1_555 1_555
Cd1A_4 N4A 1_555 1_555
F1A C8A 1_555 1_555
F2A C9A 1_555 1_555
F3A C17A 1_555 1_555
F4A C18A 1_555 1_555
F5A C26A 1_555 1_555
F6A C27A 1_555 1_555
F7A C35A 1_555 1_555
F8A C36A 1_555 1_555
O1A N5A 1_555 1_555
O2A N5A 1_555 1_555
O3A N5A 1_555 1_555
O4A Cd1A 1_555 1_555
O5A N6A 1_555 1_555
O6A N6A 1_555 1_555
N1A Cd1A 1_555 1_555
N2A C10A 1_555 1_555
N2A_2 Cd1A 1_555 1_555
N3A C19A 1_555 1_555
N3A_2 Cd1A 1_555 1_555
N4A C28A 1_555 1_555
N4A_2 Cd1A 1_555 1_555
N6A O4A 1_555 1_555
C1A N1A 1_555 1_555
H1A C1A 1_555 1_555
C2A N1A 1_555 1_555
H2A C2A 1_555 1_555
C3A C1A 1_555 1_555
H3A C3A 1_555 1_555
C4A C2A 1_555 1_555
H4A C4A 1_555 1_555
C5A C3A 1_555 1_555
C6A C5A 1_555 1_555
H5A C6A 1_555 1_555
H6A C6A 1_555 1_555
C7A C9 1_555 1_555
C8A C7A 1_555 1_555
C9A C7 1_555 1_555
C10A H7A 1_555 1_555
C11A N2A 1_555 1_555
H8A C11A 1_555 1_555
C12A C10A 1_555 1_555
H9A C12A 1_555 1_555
C13A C11A 1_555 1_555
H10A C13A 1_555 1_555
C14A C12A 1_555 1_555
C15A C14A 1_555 1_555
H11A C15A 1_555 1_555
H12A C15A 1_555 1_555
C16A C18 1_555 1_555
C17A C16A 1_555 1_555
C18A C16 1_555 1_555
C19A H13A 1_555 1_555
C20A N3A 1_555 1_555
H14A C20A 1_555 1_555
C21A C19A 1_555 1_555
H15A C21A 1_555 1_555
C22A C20A 1_555 1_555
H16A C22A 1_555 1_555
C23A C21A 1_555 1_555
C24A C23A 1_555 1_555
H17A C24A 1_555 1_555
H18A C24A 1_555 1_555
C25A C27 1_555 1_555
C26A C25A 1_555 1_555
C27A C25 1_555 1_555
C28A H19A 1_555 1_555
C29A N4A 1_555 1_555
H20A C29A 1_555 1_555
C30A C28A 1_555 1_555
H21A C30A 1_555 1_555
C31A C29A 1_555 1_555
H22A C31A 1_555 1_555
C32A C30A 1_555 1_555
C33A C32A 1_555 1_555
H23A C33A 1_555 1_555
H24A C33A 1_555 1_555
C34A C36 1_555 1_555
C35A C34A 1_555 1_555
C36A C34 1_555 1_555
C4 C5 1_555 1_555
C13 C14 1_555 1_555
C22 C23 1_555 1_555
C31 C32 1_555 1_555
C41 C42 1_555 1_555
C4A C5A 1_555 1_555
C6A C7A 1_555 1_555
C8A C9A 1_555 1_555
C13A C14A 1_555 1_555
C15A C16A 1_555 1_555
C17A C18A 1_555 1_555
C22A C23A 1_555 1_555
C24A C25A 1_555 1_555
C26A C27A 1_555 1_555
C31A C32A 1_555 1_555
C33A C34A 1_555 1_555
C35A C36A 1_555 1_555

#END
