
#######################################################################
#
#                 Cambridge Crystallographic Data Centre
#                                CCDC 
#
#######################################################################
#
# If this CIF has been generated from an entry in the Cambridge 
# Structural Database, then it will include bibliographic, chemical, 
# crystal, experimental, refinement or atomic coordinate data resulting 
# from the CCDC's data processing and validation procedures.
#
#######################################################################

data_MICNIW
_symmetry_cell_setting           monoclinic
_symmetry_space_group_name_H-M   'C 2/c'
_symmetry_Int_Tables_number      15
_space_group_name_Hall           '-C 2yn'
loop_
_symmetry_equiv_pos_site_id
_symmetry_equiv_pos_as_xyz
1 x,y,z
2 1/2+x,1/2+y,z
3 -x,y,1/2-z
4 1/2-x,1/2+y,1/2-z
5 -x,-y,-z
6 1/2-x,1/2-y,-z
7 x,-y,1/2+z
8 1/2+x,1/2-y,1/2+z
_cell_length_a                   17.170(5)
_cell_length_b                   19.060(5)
_cell_length_c                   16.690(5)
_cell_angle_alpha                90
_cell_angle_beta                 118.593(5)
_cell_angle_gamma                90
_cell_volume                     4795.84
loop_
_atom_site_label
_atom_site_type_symbol
_atom_site_fract_x
_atom_site_fract_y
_atom_site_fract_z
Cd1 Cd 0.5000 0.120743(8) 0.7500
F1 F 0.36840(8) 0.41559(6) 0.98889(9)
F2 F 0.33159(7) 0.54845(6) 0.93025(8)
F3 F 0.42745(8) -0.23659(7) 0.60560(9)
F4 F 0.34148(9) -0.33448(7) 0.64616(9)
O1 O 0.35997(10) 0.10177(8) 0.75951(12)
O2 O 0.31906(15) 0.17934(9) 0.65381(13)
O3 O 0.24979(10) 0.17079(8) 0.73168(10)
N1 N 0.51487(10) 0.20589(8) 0.85771(10)
N2 N 0.44609(10) 0.03143(8) 0.63866(10)
N3 N 0.30850(11) 0.15065(9) 0.71452(11)
C1 C 0.46297(13) 0.26258(10) 0.83560(13)
H2 H 0.4202 0.2692 0.7734
C2 C 0.57463(15) 0.19838(11) 0.94559(14)
H3 H 0.6123 0.1584 0.9630
C3 C 0.46824(13) 0.31212(10) 0.89834(13)
H4 H 0.4297 0.3515 0.8791
C4 C 0.58453(15) 0.24564(11) 1.01235(13)
H5 H 0.6286 0.2382 1.0738
C5 C 0.53018(12) 0.30398(9) 0.98959(12)
C6 C 0.54010(14) 0.35468(10) 1.06405(13)
H6 H 0.4999 0.3400 1.0881
H7 H 0.6017 0.3521 1.1148
C7 C 0.51959(12) 0.42958(9) 1.03178(12)
C8 C 0.43487(12) 0.45696(10) 0.99523(12)
C9 C 0.41590(12) 0.52519(10) 0.96471(12)
C10 C 0.35978(14) 0.01845(11) 0.58821(16)
H8 H 0.3189 0.0493 0.5933
C11 C 0.50114(14) -0.01248(12) 0.62777(17)
H9 H 0.5631 -0.0037 0.6616
C12 C 0.32676(14) -0.03774(12) 0.52877(17)
H10 H 0.2645 -0.0445 0.4940
C13 C 0.47310(15) -0.06962(12) 0.57039(18)
H11 H 0.5152 -0.0992 0.5656
C14 C 0.38353(13) -0.08383(9) 0.51977(12)
C15 C 0.34885(15) -0.14527(11) 0.45419(14)
H12 H 0.3103 -0.1271 0.3919
H13 H 0.3996 -0.1695 0.4538
C16 C 0.29685(14) -0.19794(9) 0.47759(14)
C17 C 0.33900(13) -0.24276(10) 0.55176(14)
C18 C 0.29379(14) -0.29332(10) 0.57282(14)
Cd1F Cd 0.5000 0.879257(8) 1.2500
Cd1G Cd 0.0000 -0.620743(8) 0.2500
F1D F 0.63160(8) 0.58441(6) 1.01111(9)
F2D F 0.66841(7) 0.45155(6) 1.06975(8)
F3E F 0.07255(8) -0.26341(7) 0.39440(9)
F4E F 0.15852(9) -0.16552(7) 0.35384(9)
O1B O 0.64003(10) 0.10177(8) 0.74049(12)
O2B O 0.68094(15) 0.17934(9) 0.84619(13)
O3B O 0.75021(10) 0.17079(8) 0.76832(10)
N1D N 0.48513(10) 0.79411(8) 1.14229(10)
N1B N 0.48513(10) 0.20589(8) 0.64229(10)
N2E N 0.05391(10) -0.53143(8) 0.36134(10)
N2B N 0.55391(10) 0.03143(8) 0.86134(10)
N3B N 0.69150(11) 0.15065(9) 0.78548(11)
C1D C 0.53703(13) 0.73742(10) 1.16440(13)
H2D H 0.5798 0.7308 1.2266
C2D C 0.42537(15) 0.80162(11) 1.05441(14)
H3D H 0.3877 0.8416 1.0370
C3D C 0.53176(13) 0.68788(10) 1.10166(13)
H4D H 0.5703 0.6485 1.1209
C4D C 0.41547(15) 0.75436(11) 0.98765(13)
H5D H 0.3714 0.7618 0.9262
C5D C 0.46982(12) 0.69602(9) 1.01041(12)
C6D C 0.45990(14) 0.64532(10) 0.93595(13)
H6D H 0.5001 0.6600 0.9119
H7D H 0.3983 0.6479 0.8852
C7D C 0.48041(12) 0.57042(9) 0.96822(12)
C8D C 0.56513(12) 0.54304(10) 1.00477(12)
C9D C 0.58410(12) 0.47481(10) 1.03529(12)
C10E C 0.14022(14) -0.51845(11) 0.41179(16)
H8E H 0.1811 -0.5493 0.4067
C11E C -0.00114(14) -0.48752(12) 0.37223(17)
H9E H -0.0631 -0.4963 0.3384
C12E C 0.17324(14) -0.46226(12) 0.47123(17)
H10E H 0.2355 -0.4555 0.5060
C13E C 0.02690(15) -0.43038(12) 0.42961(18)
H11E H -0.0152 -0.4008 0.4344
C14E C 0.11647(13) -0.41617(9) 0.48023(12)
C15E C 0.15115(15) -0.35473(11) 0.54581(14)
H12E H 0.1897 -0.3729 0.6081
H13E H 0.1004 -0.3305 0.5462
C16E C 0.20315(14) -0.30206(9) 0.52241(14)
C17E C 0.16100(13) -0.25724(10) 0.44824(14)
C18E C 0.20621(14) -0.20668(10) 0.42718(14)
N4 N 0.2808(2) 0.83270(14) 0.7839(2)
H1 H 0.2901 0.7924 0.8129
C19 C 0.2290(2) 0.88430(14) 0.79716(18)
C20 C 0.1800(3) 0.87113(17) 0.8426(2)
H14 H 0.1826 0.8262 0.8683
C21 C 0.1277(3) 0.9236(2) 0.8502(2)
H15 H 0.0925 0.9138 0.8788
C22 C 0.1268(2) 0.99028(18) 0.8160(2)
H16 H 0.0917 1.0265 0.8215
C23 C 0.1767(2) 1.00289(14) 0.77465(17)
H17 H 0.1770 1.0486 0.7522
C24 C 0.22701(18) 0.95091(14) 0.76446(16)
H18 H 0.2608 0.9612 0.7345
C25 C 0.3196(3) 0.8442(2) 0.7231(3)
H19 H 0.3534 0.8026 0.7236
H20 H 0.3593 0.8850 0.7444
H21 H 0.2721 0.8528 0.6609
loop_
_geom_bond_atom_site_label_1
_geom_bond_atom_site_label_2
_geom_bond_site_symmetry_1
_geom_bond_site_symmetry_2
Cd1 O1 1_555 1_555
F1 C8 1_555 1_555
F2 C9 1_555 1_555
F3 C17 1_555 1_555
F4 C18 1_555 1_555
O1 N3 1_555 1_555
O2 N3 1_555 1_555
O3 N3 1_555 1_555
N1 Cd1 1_555 1_555
N2 Cd1 1_555 1_555
N4 H1 1_555 1_555
C1 N1 1_555 1_555
H2 C1 1_555 1_555
C2 N1 1_555 1_555
H3 C2 1_555 1_555
C3 C1 1_555 1_555
H4 C3 1_555 1_555
C4 C2 1_555 1_555
H5 C4 1_555 1_555
C5 C3 1_555 1_555
C6 C5 1_555 1_555
H6 C6 1_555 1_555
H7 C6 1_555 1_555
C7 C6 1_555 1_555
C8 C7 1_555 1_555
C9 C8 1_555 1_555
C10 N2 1_555 1_555
H8 C10 1_555 1_555
C11 N2 1_555 1_555
H9 C11 1_555 1_555
C12 C10 1_555 1_555
H10 C12 1_555 1_555
C13 C11 1_555 1_555
H11 C13 1_555 1_555
C14 C12 1_555 1_555
C15 C14 1_555 1_555
H12 C15 1_555 1_555
H13 C15 1_555 1_555
C16 C15 1_555 1_555
C17 C16 1_555 1_555
C18 C17 1_555 1_555
C19 N4 1_555 1_555
C20 C19 1_555 1_555
H14 C20 1_555 1_555
C21 C20 1_555 1_555
H15 C21 1_555 1_555
C22 C21 1_555 1_555
H16 C22 1_555 1_555
C23 C22 1_555 1_555
H17 C23 1_555 1_555
C24 C19 1_555 1_555
H18 C24 1_555 1_555
C25 N4 1_555 1_555
H19 C25 1_555 1_555
H20 C25 1_555 1_555
H21 C25 1_555 1_555
Cd1F N1D 1_555 1_555
Cd1G N2E 1_555 1_555
F1D C8D 1_555 1_555
F2D C9D 1_555 1_555
F3E C17E 1_555 1_555
F4E C18E 1_555 1_555
O1B Cd1 1_555 1_555
O2B N3B 1_555 1_555
O3B N3B 1_555 1_555
N1D C1D 1_555 1_555
N1B Cd1 1_555 1_555
N2E C10E 1_555 1_555
N2B Cd1 1_555 1_555
N3B O1B 1_555 1_555
C1D H2D 1_555 1_555
C2D N1D 1_555 1_555
H3D C2D 1_555 1_555
C3D C1D 1_555 1_555
H4D C3D 1_555 1_555
C4D C2D 1_555 1_555
H5D C4D 1_555 1_555
C5D C3D 1_555 1_555
C6D C5D 1_555 1_555
H6D C6D 1_555 1_555
H7D C6D 1_555 1_555
C7D C9 1_555 1_555
C8D C7D 1_555 1_555
C9D C7 1_555 1_555
C10E H8E 1_555 1_555
C11E N2E 1_555 1_555
H9E C11E 1_555 1_555
C12E C10E 1_555 1_555
H10E C12E 1_555 1_555
C13E C11E 1_555 1_555
H11E C13E 1_555 1_555
C14E C12E 1_555 1_555
C15E C14E 1_555 1_555
H12E C15E 1_555 1_555
H13E C15E 1_555 1_555
C16E C18 1_555 1_555
C17E C16E 1_555 1_555
C18E C16 1_555 1_555
C4 C5 1_555 1_555
C13 C14 1_555 1_555
C23 C24 1_555 1_555
C4D C5D 1_555 1_555
C6D C7D 1_555 1_555
C8D C9D 1_555 1_555
C13E C14E 1_555 1_555
C15E C16E 1_555 1_555
C17E C18E 1_555 1_555

#END
