
#######################################################################
#
#                 Cambridge Crystallographic Data Centre
#                                CCDC 
#
#######################################################################
#
# If this CIF has been generated from an entry in the Cambridge 
# Structural Database, then it will include bibliographic, chemical, 
# crystal, experimental, refinement or atomic coordinate data resulting 
# from the CCDC's data processing and validation procedures.
#
#######################################################################

data_MICPIY
_symmetry_cell_setting           monoclinic
_symmetry_space_group_name_H-M   'C c'
_symmetry_Int_Tables_number      9
_space_group_name_Hall           'C -2yc'
loop_
_symmetry_equiv_pos_site_id
_symmetry_equiv_pos_as_xyz
1 x,y,z
2 x,-y,1/2+z
3 1/2+x,1/2+y,z
4 1/2+x,1/2-y,1/2+z
_cell_length_a                   22.225(4)
_cell_length_b                   16.876(3)
_cell_length_c                   16.959(3)
_cell_angle_alpha                90
_cell_angle_beta                 107.663(3)
_cell_angle_gamma                90
_cell_volume                     6060.93
loop_
_atom_site_label
_atom_site_type_symbol
_atom_site_fract_x
_atom_site_fract_y
_atom_site_fract_z
Cd1 Cd 0.12841(3) 0.502574(18) 1.11622(3)
F1 F 0.19076(12) 0.21269(15) 0.83963(16)
F2 F 0.40241(12) 0.19811(15) 1.00644(18)
F3 F 0.18220(12) 0.05608(15) 0.84158(16)
F4 F 0.39536(12) 0.04176(15) 1.00629(18)
F5 F 0.19488(13) -0.03432(17) 0.97792(17)
F6 F 0.37106(12) -0.06659(15) 0.88155(18)
F7 F 0.18397(13) -0.19107(17) 0.98637(18)
F8 F 0.36477(13) -0.22349(15) 0.89960(18)
F9 F -0.11347(13) 0.78950(16) 0.82730(19)
F10 F 0.07448(14) 0.80320(17) 0.75691(19)
F11 F -0.11062(13) 0.94714(16) 0.8518(2)
F12 F 0.07603(13) 0.96060(17) 0.77439(18)
F13 F -0.11885(13) 1.06178(15) 0.73010(18)
F14 F 0.08595(12) 1.04238(16) 0.91875(17)
F15 F -0.11350(13) 1.21827(15) 0.74587(18)
F16 F 0.09013(13) 1.19941(16) 0.93641(18)
O1 O 0.05857(17) 0.3946(2) 1.0589(2)
O2 O 0.01037(18) 0.4316(2) 1.1450(2)
O3 O -0.0317(2) 0.3438(2) 1.0546(3)
O4 O 0.20282(18) 0.6032(2) 1.1074(2)
O5 O 0.2486(2) 0.6019(3) 1.2389(2)
O6 O 0.2937(3) 0.6543(4) 1.1593(3)
N1 N 0.18819(18) 0.43070(19) 1.0460(2)
N2 N 0.17989(18) -0.4272(2) 0.7327(2)
N3 N 0.06974(18) 0.5703(2) 0.9971(2)
N4 N 0.08429(17) 1.41551(19) 0.6948(2)
N5 N 0.0113(2) 0.3891(2) 1.0857(3)
N6 N 0.2480(2) 0.6193(2) 1.1681(3)
C1 C 0.2189(2) 0.4662(2) 0.9990(3)
H1 H 0.2166 0.5222 0.9938
C2 C 0.1938(2) 0.3523(2) 1.0543(3)
H2 H 0.1728 0.3263 1.0882
C3 C 0.2536(2) 0.4256(2) 0.9579(3)
H3 H 0.2734 0.4534 0.9239
C4 C 0.2287(2) 0.3068(2) 1.0158(2)
H4 H 0.2312 0.2510 1.0235
C5 C 0.2598(2) 0.3434(2) 0.9660(2)
C6 C 0.2998(2) 0.3004(2) 0.9222(3)
H5 H 0.3443 0.3164 0.9477
H6 H 0.2870 0.3182 0.8638
C7 C 0.2963(2) 0.2109(3) 0.9233(3)
C8 C 0.2410(2) 0.1716(3) 0.8822(3)
C9 C 0.3468(2) 0.1642(3) 0.9638(3)
C10 C 0.2370(2) 0.0890(3) 0.8836(3)
C11 C 0.3433(2) 0.0822(2) 0.9645(3)
C12 C 0.2882(2) 0.0428(3) 0.9251(3)
C13 C 0.2834(2) -0.0452(3) 0.9287(3)
C14 C 0.2358(2) -0.0808(3) 0.9557(3)
C15 C 0.3257(2) -0.0964(3) 0.9092(3)
C16 C 0.2311(2) -0.1613(3) 0.9614(3)
C17 C 0.3213(2) -0.1766(3) 0.9182(3)
C18 C 0.2750(2) -0.2116(3) 0.9447(3)
C19 C 0.2734(2) -0.3003(3) 0.9571(3)
H7 H 0.2511 -0.3116 0.9983
H8 H 0.3173 -0.3201 0.9797
C20 C 0.2411(2) -0.3442(2) 0.8780(3)
C21 C 0.27451(19) -0.3821(2) 0.8324(3)
H9 H 0.3193 -0.3804 0.8500
C22 C 0.1761(2) -0.3484(3) 0.8482(3)
H10 H 0.1510 -0.3226 0.8769
C23 C 0.2427(2) -0.4225(3) 0.7613(3)
H11 H 0.2667 -0.4483 0.7311
C24 C 0.1473(2) -0.3904(3) 0.7757(3)
H12 H 0.1025 -0.3927 0.7563
C25 C 0.0347(2) 0.5354(2) 0.9272(3)
H13 H 0.0305 0.4793 0.9266
C26 C 0.0733(2) 0.6496(2) 0.9967(3)
H14 H 0.0976 0.6758 1.0455
C27 C 0.0046(2) 0.5767(2) 0.8567(3)
H15 H -0.0188 0.5491 0.8082
C28 C 0.0430(2) 0.6947(2) 0.9284(2)
H16 H 0.0462 0.7509 0.9313
C29 C 0.0084(2) 0.6589(3) 0.8562(3)
C30 C -0.0237(2) 0.7032(3) 0.7777(3)
H17 H -0.0683 0.6862 0.7570
H18 H -0.0032 0.6889 0.7353
C31 C -0.0213(2) 0.7931(3) 0.7888(3)
C32 C -0.0671(2) 0.8322(3) 0.8132(3)
C33 C 0.0269(2) 0.8387(3) 0.7781(3)
C34 C -0.0653(2) 0.9140(3) 0.8247(3)
C35 C 0.0285(2) 0.9203(3) 0.7886(3)
C36 C -0.0172(2) 0.9591(3) 0.8123(3)
C37 C -0.0160(2) 1.0470(3) 0.8234(3)
C38 C -0.0659(2) 1.0943(3) 0.7818(3)
C39 C 0.0364(2) 1.0853(3) 0.8746(3)
C40 C -0.0635(2) 1.1759(3) 0.7905(3)
C41 C 0.0380(2) 1.1659(3) 0.8839(3)
C42 C -0.0118(2) 1.2140(2) 0.8430(3)
C43 C -0.0091(2) 1.3030(2) 0.8543(3)
H19 H 0.0134 1.3160 0.9127
H20 H -0.0525 1.3244 0.8408
C44 C 0.0248(2) 1.3413(2) 0.7985(3)
C45 C -0.0067(2) 1.3567(3) 0.7164(3)
H21 H -0.0497 1.3417 0.6937
C46 C 0.0871(2) 1.3631(2) 0.8259(3)
H22 H 0.1109 1.3534 0.8819
C47 C 0.0241(2) 1.3938(3) 0.6670(3)
H23 H 0.0013 1.4042 0.6108
C48 C 0.1157(2) 1.3985(2) 0.7742(3)
H24 H 0.1592 1.4116 0.7951
Cd1A Cd 0.12841(3) -0.502574(18) 0.61622(3)
Cd1A_2 Cd 0.12841(3) 1.497426(18) 0.61622(3)
N2A N 0.17989(18) 0.4272(2) 1.2327(2)
N4A N 0.08429(17) 0.58449(19) 1.1948(2)
C49 C 1.0332(4) 0.0898(4) 0.0684(3)
H25 H 1.0727 0.1046 0.0620
C50 C 0.9927(6) 0.1441(6) 0.0733(4)
H26 H 1.0054 0.1977 0.0722
C51 C 0.9379(5) 0.1319(8) 0.0793(5)
H27 H 0.9114 0.1753 0.0822
C52 C 0.9171(3) 0.0558(8) 0.0816(4)
H28 H 0.8763 0.0454 0.0862
C53 C 0.9600(3) -0.0098(5) 0.0767(4)
C54 C 0.9447(5) -0.0913(8) 0.0856(5)
H29 H 0.9053 -0.1054 0.0929
C55 C 0.9864(6) -0.1462(7) 0.0834(5)
H30 H 0.9749 -0.2000 0.0867
C56 C 1.0486(5) -0.1298(4) 0.0763(4)
H31 H 1.0776 -0.1711 0.0762
C57 C 1.0634(3) -0.0516(3) 0.0698(3)
H32 H 1.1030 -0.0373 0.0636
C58 C 1.0180(3) 0.0085(3) 0.0726(3)
C59 C 0.2040(3) 1.0525(4) 0.2011(3)
H33 H 0.1668 1.0328 0.2105
C60 C 0.2128(4) 1.1322(5) 0.2030(5)
H34 H 0.1818 1.1651 0.2146
C61 C 0.2614(4) 1.1656(7) 0.1899(5)
H35 H 0.2649 1.2217 0.1917
C62 C 0.3044(3) 1.1248(4) 0.1746(4)
H36 H 0.3390 1.1526 0.1658
C63 C 0.3051(4) 1.0470(6) 0.1698(4)
C64 C 0.3378(7) 0.9932(5) 0.1550(5)
H37 H 0.3728 1.0151 0.1415
C65 C 0.3398(4) 0.9137(6) 0.1518(4)
H38 H 0.3745 0.8889 0.1401
C66 C 0.2828(8) 0.8573(9) 0.1680(5)
H39 H 0.2801 0.8011 0.1670
C67 C 0.2363(5) 0.9163(6) 0.1847(4)
H40 H 0.1993 0.8963 0.1945
C68 C 0.2454(3) 0.9987(5) 0.1863(4)
loop_
_geom_bond_atom_site_label_1
_geom_bond_atom_site_label_2
_geom_bond_site_symmetry_1
_geom_bond_site_symmetry_2
Cd1 O1 1_555 1_555
F1 C8 1_555 1_555
F2 C9 1_555 1_555
F3 C10 1_555 1_555
F4 C11 1_555 1_555
F5 C14 1_555 1_555
F6 C15 1_555 1_555
F7 C16 1_555 1_555
F8 C17 1_555 1_555
F9 C32 1_555 1_555
F10 C33 1_555 1_555
F11 C34 1_555 1_555
F12 C35 1_555 1_555
F13 C38 1_555 1_555
F14 C39 1_555 1_555
F15 C40 1_555 1_555
F16 C41 1_555 1_555
O1 N5 1_555 1_555
O2 N5 1_555 1_555
O3 N5 1_555 1_555
O4 Cd1 1_555 1_555
O5 N6 1_555 1_555
O6 N6 1_555 1_555
N1 Cd1 1_555 1_555
N2 C23 1_555 1_555
N3 Cd1 1_555 1_555
N4 C47 1_555 1_555
N6 O4 1_555 1_555
C1 N1 1_555 1_555
H1 C1 1_555 1_555
C2 N1 1_555 1_555
H2 C2 1_555 1_555
C3 C1 1_555 1_555
H3 C3 1_555 1_555
C4 C2 1_555 1_555
H4 C4 1_555 1_555
C5 C3 1_555 1_555
C6 C5 1_555 1_555
H5 C6 1_555 1_555
H6 C6 1_555 1_555
C7 C6 1_555 1_555
C8 C7 1_555 1_555
C9 C7 1_555 1_555
C10 C8 1_555 1_555
C11 C9 1_555 1_555
C12 C10 1_555 1_555
C13 C12 1_555 1_555
C14 C13 1_555 1_555
C15 C13 1_555 1_555
C16 C14 1_555 1_555
C17 C15 1_555 1_555
C18 C16 1_555 1_555
C19 C18 1_555 1_555
H7 C19 1_555 1_555
H8 C19 1_555 1_555
C20 C19 1_555 1_555
C21 C20 1_555 1_555
H9 C21 1_555 1_555
C22 C20 1_555 1_555
H10 C22 1_555 1_555
C23 C21 1_555 1_555
H11 C23 1_555 1_555
C24 N2 1_555 1_555
H12 C24 1_555 1_555
C25 N3 1_555 1_555
H13 C25 1_555 1_555
C26 N3 1_555 1_555
H14 C26 1_555 1_555
C27 C25 1_555 1_555
H15 C27 1_555 1_555
C28 C26 1_555 1_555
H16 C28 1_555 1_555
C29 C27 1_555 1_555
C30 C29 1_555 1_555
H17 C30 1_555 1_555
H18 C30 1_555 1_555
C31 C30 1_555 1_555
C32 C31 1_555 1_555
C33 C31 1_555 1_555
C34 C32 1_555 1_555
C35 C33 1_555 1_555
C36 C34 1_555 1_555
C37 C36 1_555 1_555
C38 C37 1_555 1_555
C39 C37 1_555 1_555
C40 C38 1_555 1_555
C41 C39 1_555 1_555
C42 C40 1_555 1_555
C43 C42 1_555 1_555
H19 C43 1_555 1_555
H20 C43 1_555 1_555
C44 C43 1_555 1_555
C45 C44 1_555 1_555
H21 C45 1_555 1_555
C46 C44 1_555 1_555
H22 C46 1_555 1_555
C47 C45 1_555 1_555
H23 C47 1_555 1_555
C48 N4 1_555 1_555
H24 C48 1_555 1_555
C49 H25 1_555 1_555
C50 C49 1_555 1_555
H26 C50 1_555 1_555
C51 C50 1_555 1_555
H27 C51 1_555 1_555
C52 C51 1_555 1_555
H28 C52 1_555 1_555
C53 C52 1_555 1_555
C54 C53 1_555 1_555
H29 C54 1_555 1_555
C55 C54 1_555 1_555
H30 C55 1_555 1_555
C56 C55 1_555 1_555
H31 C56 1_555 1_555
C57 C56 1_555 1_555
H32 C57 1_555 1_555
C58 C49 1_555 1_555
C59 H33 1_555 1_555
C60 C59 1_555 1_555
H34 C60 1_555 1_555
C61 C60 1_555 1_555
H35 C61 1_555 1_555
C62 C61 1_555 1_555
H36 C62 1_555 1_555
C63 C62 1_555 1_555
C64 C63 1_555 1_555
H37 C64 1_555 1_555
C65 C64 1_555 1_555
H38 C65 1_555 1_555
C66 C65 1_555 1_555
H39 C66 1_555 1_555
C67 C66 1_555 1_555
H40 C67 1_555 1_555
C68 C59 1_555 1_555
Cd1A N2 1_555 1_555
Cd1A_2 N4 1_555 1_555
N2A Cd1 1_555 1_555
N4A Cd1 1_555 1_555
C4 C5 1_555 1_555
C11 C12 1_555 1_555
C17 C18 1_555 1_555
C22 C24 1_555 1_555
C28 C29 1_555 1_555
C35 C36 1_555 1_555
C41 C42 1_555 1_555
C46 C48 1_555 1_555
C53 C58 1_555 1_555
C57 C58 1_555 1_555
C63 C68 1_555 1_555
C67 C68 1_555 1_555

#END
