
#######################################################################
#
#                 Cambridge Crystallographic Data Centre
#                                CCDC 
#
#######################################################################
#
# If this CIF has been generated from an entry in the Cambridge 
# Structural Database, then it will include bibliographic, chemical, 
# crystal, experimental, refinement or atomic coordinate data resulting 
# from the CCDC's data processing and validation procedures.
#
#######################################################################

data_MICQEV
_symmetry_cell_setting           monoclinic
_symmetry_space_group_name_H-M   'P 21/c'
_symmetry_Int_Tables_number      14
_space_group_name_Hall           '-P 2ybc'
loop_
_symmetry_equiv_pos_site_id
_symmetry_equiv_pos_as_xyz
1 x,y,z
2 -x,1/2+y,1/2-z
3 -x,-y,-z
4 x,1/2-y,1/2+z
_cell_length_a                   9.7535(17)
_cell_length_b                   15.049(3)
_cell_length_c                   35.195(6)
_cell_angle_alpha                90
_cell_angle_beta                 95.855(3)
_cell_angle_gamma                90
_cell_volume                     5138.99
loop_
_atom_site_label
_atom_site_type_symbol
_atom_site_fract_x
_atom_site_fract_y
_atom_site_fract_z
Cd1 Cd 0.22916(4) 0.48831(2) 0.246065(8)
F1 F -0.2269(3) 0.43219(17) 0.40788(9)
F2 F 0.0397(4) 0.1719(2) 0.40598(10)
F3 F -0.1318(3) 0.45796(17) 0.48064(9)
F4 F 0.1255(3) 0.1926(2) 0.47947(9)
F5 F -0.1699(3) 0.35468(19) 0.54255(8)
F6 F 0.2857(3) 0.3277(2) 0.50959(11)
F7 F -0.0725(3) 0.3854(2) 0.61430(9)
F8 F 0.3812(3) 0.3471(2) 0.58251(11)
F9 F 0.4427(3) 0.80493(18) 0.08846(7)
F10 F 0.7151(3) 0.54813(17) 0.08117(7)
F11 F 0.3703(3) 0.79692(17) 0.01353(7)
F12 F 0.6353(2) 0.53550(15) 0.00675(7)
F13 F 0.2176(3) 0.66382(19) -0.02405(8)
F14 F 0.6829(3) 0.65292(18) -0.04960(7)
F15 F 0.1402(3) 0.6561(2) -0.09903(9)
F16 F 0.6049(4) 0.6370(2) -0.12357(8)
O1 O 0.0751(7) 0.5597(6) 0.2013(2)
O3 O -0.095(2) 0.4907(10) 0.2135(4)
O6 O -0.1150(8) 0.5585(5) 0.1646(2)
O8 O 0.4121(5) 0.4169(4) 0.28249(16)
O9 O 0.5581(7) 0.5069(4) 0.3041(2)
O10 O 0.5361(6) 0.3923(5) 0.33455(15)
N1 N 0.0905(4) 0.4203(2) 0.28779(10)
N2 N 0.2275(4) 0.1457(3) 0.71145(11)
N3 N 0.3775(4) 0.5478(3) 0.20494(10)
N4 N 0.2451(4) 0.8800(2) -0.21859(10)
N5 N -0.0364(5) 0.5544(4) 0.19476(15)
N6 N 0.5004(4) 0.4308(4) 0.30573(13)
C1 C 0.1278(7) 0.3425(5) 0.3026(2)
H2 H 0.2139 0.3186 0.2973
C2 C -0.0335(6) 0.4484(4) 0.29370(16)
H3 H -0.0669 0.5012 0.2812
C3 C 0.0480(6) 0.2934(4) 0.3256(2)
H4 H 0.0759 0.2357 0.3341
C4 C -0.1175(5) 0.4052(4) 0.31706(15)
H5 H -0.2066 0.4280 0.3200
C5 C -0.0726(5) 0.3303(3) 0.33579(13)
C6 C -0.1580(5) 0.2833(3) 0.36330(14)
H6 H -0.2543 0.3049 0.3593
H7 H -0.1586 0.2187 0.3580
C7 C -0.1020(5) 0.2991(3) 0.40446(14)
C8 C -0.1398(4) 0.3719(3) 0.42494(14)
C9 C -0.0075(6) 0.2423(3) 0.42429(15)
C10 C -0.0907(4) 0.3855(3) 0.46259(14)
C11 C 0.0403(5) 0.2542(3) 0.46191(15)
C12 C 0.0005(4) 0.3263(3) 0.48263(14)
C13 C 0.0535(5) 0.3396(3) 0.52292(15)
C14 C 0.1951(5) 0.3388(3) 0.53511(16)
C15 C -0.0326(4) 0.3546(3) 0.55116(14)
C16 C 0.2428(5) 0.3505(3) 0.57290(18)
C17 C 0.0181(5) 0.3696(3) 0.58830(16)
C18 C 0.1583(6) 0.3672(3) 0.60072(17)
C19 C 0.2125(6) 0.3835(4) 0.64181(17)
H8 H 0.1530 0.4277 0.6530
H9 H 0.3065 0.4088 0.6428
C20 C 0.2172(6) 0.2986(3) 0.66575(15)
C21 C 0.3291(5) 0.2781(4) 0.69019(14)
H10 H 0.4066 0.3167 0.6927
C22 C 0.1106(8) 0.2379(5) 0.6633(3)
H11 H 0.0306 0.2479 0.6461
C23 C 0.3302(5) 0.2006(4) 0.71156(14)
H12 H 0.4121 0.1868 0.7274
C24 C 0.1205(7) 0.1625(5) 0.6858(2)
H13 H 0.0474 0.1206 0.6829
C25 C 0.4940(6) 0.5868(5) 0.21711(14)
H14 H 0.5231 0.5852 0.2437
C26 C 0.3434(5) 0.5474(3) 0.16766(13)
H15 H 0.2622 0.5166 0.1580
C27 C 0.5768(6) 0.6301(5) 0.19341(14)
H16 H 0.6609 0.6565 0.2038
C28 C 0.4202(5) 0.5897(3) 0.14195(12)
H17 H 0.3913 0.5872 0.1154
C29 C 0.5376(4) 0.6350(3) 0.15475(11)
C30 C 0.6282(4) 0.6844(3) 0.12926(11)
H18 H 0.6301 0.7480 0.1365
H19 H 0.7234 0.6613 0.1341
C31 C 0.5828(4) 0.6769(3) 0.08721(11)
C32 C 0.4925(4) 0.7376(3) 0.06830(11)
C33 C 0.6279(4) 0.6099(3) 0.06507(11)
C34 C 0.4528(4) 0.7326(3) 0.03011(12)
C35 C 0.5872(4) 0.6031(2) 0.02634(11)
C36 C 0.4986(4) 0.6646(3) 0.00761(10)
C37 C 0.4535(4) 0.6585(3) -0.03419(11)
C38 C 0.3158(5) 0.6597(3) -0.04816(13)
C39 C 0.5480(4) 0.6509(3) -0.06075(12)
C40 C 0.2768(5) 0.6538(3) -0.08744(14)
C41 C 0.5066(6) 0.6437(3) -0.09938(13)
C42 C 0.3694(6) 0.6445(3) -0.11381(13)
C43 C 0.3242(7) 0.6347(3) -0.15596(14)
H20 H 0.2395 0.5981 -0.1591
H21 H 0.3967 0.6022 -0.1680
C44 C 0.2960(5) 0.7222(3) -0.17698(12)
C45 C 0.3071(5) 0.8047(3) -0.15940(12)
H22 H 0.3324 0.8088 -0.1327
C46 C 0.2567(6) 0.7214(3) -0.21596(13)
H23 H 0.2452 0.6664 -0.2291
C47 C 0.2812(5) 0.8809(3) -0.18080(12)
H24 H 0.2894 0.9367 -0.1681
C48 C 0.2342(6) 0.7998(3) -0.23560(13)
H25 H 0.2098 0.7974 -0.2624
Cd1C Cd 0.22916(4) 0.01169(2) 0.746065(8)
Cd1C_2 Cd 0.22916(4) 1.01169(2) -0.253935(8)
N2C N 0.2275(4) 0.3543(3) 0.21145(11)
N4C N 0.2451(4) 0.6200(2) 0.28141(10)
O11 O 0.0982(13) 0.4968(9) 0.1093(4)
H1 H 0.0225 0.5141 0.1160
C49 C 0.090(2) 0.4940(13) 0.0673(5)
H26 H 0.1122 0.4327 0.0598
H27 H -0.0066 0.5057 0.0573
C50 C 0.170(2) 0.5496(15) 0.0499(5)
H28 H 0.1529 0.5420 0.0222
H29 H 0.2674 0.5366 0.0580
H30 H 0.1497 0.6110 0.0567
O12 O 0.7006(14) 0.9469(8) 0.0758(3)
C51 C 0.5976(14) 0.9950(9) 0.0644(8)
C53 C 0.599(3) 0.9857(15) 0.1122(4)
O2? O 0.0179(15) 0.5078(14) 0.2085(6)
O4? O -0.0806(19) 0.6073(12) 0.2266(5)
O5? O -0.115(6) 0.586(6) 0.1773(17)
O7? O 0.058(3) 0.6374(16) 0.1881(6)
C52? C 0.6951(16) 0.9314(10) 0.1235(4)
loop_
_geom_bond_atom_site_label_1
_geom_bond_atom_site_label_2
_geom_bond_site_symmetry_1
_geom_bond_site_symmetry_2
Cd1 O1 1_555 1_555
F1 C8 1_555 1_555
F2 C9 1_555 1_555
F3 C10 1_555 1_555
F4 C11 1_555 1_555
F5 C15 1_555 1_555
F6 C14 1_555 1_555
F7 C17 1_555 1_555
F8 C16 1_555 1_555
F9 C32 1_555 1_555
F10 C33 1_555 1_555
F11 C34 1_555 1_555
F12 C35 1_555 1_555
F13 C38 1_555 1_555
F14 C39 1_555 1_555
F15 C40 1_555 1_555
F16 C41 1_555 1_555
O1 N5 1_555 1_555
O3 N5 1_555 1_555
O6 N5 1_555 1_555
O8 Cd1 1_555 1_555
O9 N6 1_555 1_555
O10 N6 1_555 1_555
O11 H1 1_555 1_555
O12 C51 1_555 1_555
N1 Cd1 1_555 1_555
N2 C23 1_555 1_555
N3 Cd1 1_555 1_555
N4 C47 1_555 1_555
N6 O8 1_555 1_555
C1 N1 1_555 1_555
H2 C1 1_555 1_555
C2 N1 1_555 1_555
H3 C2 1_555 1_555
C3 C1 1_555 1_555
H4 C3 1_555 1_555
C4 C2 1_555 1_555
H5 C4 1_555 1_555
C5 C3 1_555 1_555
C6 C5 1_555 1_555
H6 C6 1_555 1_555
H7 C6 1_555 1_555
C7 C6 1_555 1_555
C8 C7 1_555 1_555
C9 C7 1_555 1_555
C10 C8 1_555 1_555
C11 C9 1_555 1_555
C12 C10 1_555 1_555
C13 C12 1_555 1_555
C14 C13 1_555 1_555
C15 C13 1_555 1_555
C16 C14 1_555 1_555
C17 C15 1_555 1_555
C18 C16 1_555 1_555
C19 C18 1_555 1_555
H8 C19 1_555 1_555
H9 C19 1_555 1_555
C20 C19 1_555 1_555
C21 C20 1_555 1_555
H10 C21 1_555 1_555
C22 C20 1_555 1_555
H11 C22 1_555 1_555
C23 C21 1_555 1_555
H12 C23 1_555 1_555
C24 N2 1_555 1_555
H13 C24 1_555 1_555
C25 N3 1_555 1_555
H14 C25 1_555 1_555
C26 N3 1_555 1_555
H15 C26 1_555 1_555
C27 C25 1_555 1_555
H16 C27 1_555 1_555
C28 C26 1_555 1_555
H17 C28 1_555 1_555
C29 C27 1_555 1_555
C30 C29 1_555 1_555
H18 C30 1_555 1_555
H19 C30 1_555 1_555
C31 C30 1_555 1_555
C32 C31 1_555 1_555
C33 C31 1_555 1_555
C34 C32 1_555 1_555
C35 C33 1_555 1_555
C36 C34 1_555 1_555
C37 C36 1_555 1_555
C38 C37 1_555 1_555
C39 C37 1_555 1_555
C40 C38 1_555 1_555
C41 C39 1_555 1_555
C42 C40 1_555 1_555
C43 C42 1_555 1_555
H20 C43 1_555 1_555
H21 C43 1_555 1_555
C44 C43 1_555 1_555
C45 C44 1_555 1_555
H22 C45 1_555 1_555
C46 C44 1_555 1_555
H23 C46 1_555 1_555
C47 C45 1_555 1_555
H24 C47 1_555 1_555
C48 N4 1_555 1_555
H25 C48 1_555 1_555
C49 O11 1_555 1_555
H26 C49 1_555 1_555
H27 C49 1_555 1_555
C50 C49 1_555 1_555
H28 C50 1_555 1_555
H29 C50 1_555 1_555
H30 C50 1_555 1_555
C51 C53 1_555 1_555
Cd1C N2 1_555 1_555
Cd1C_2 N4 1_555 1_555
N2C Cd1 1_555 1_555
N4C Cd1 1_555 1_555
C4 C5 1_555 1_555
C11 C12 1_555 1_555
C17 C18 1_555 1_555
C22 C24 1_555 1_555
C28 C29 1_555 1_555
C35 C36 1_555 1_555
C41 C42 1_555 1_555
C46 C48 1_555 1_555

#END
