
#######################################################################
#
#                 Cambridge Crystallographic Data Centre
#                                CCDC 
#
#######################################################################
#
# If this CIF has been generated from an entry in the Cambridge 
# Structural Database, then it will include bibliographic, chemical, 
# crystal, experimental, refinement or atomic coordinate data resulting 
# from the CCDC's data processing and validation procedures.
#
#######################################################################

data_MICRUM
_symmetry_cell_setting           orthorhombic
_symmetry_space_group_name_H-M   'P n n n'
_symmetry_Int_Tables_number      48
_space_group_name_Hall           '-P 2ab 2bc'
loop_
_symmetry_equiv_pos_site_id
_symmetry_equiv_pos_as_xyz
1 x,y,z
2 1/2-x,1/2-y,z
3 1/2-x,y,1/2-z
4 x,1/2-y,1/2-z
5 -x,-y,-z
6 1/2+x,1/2+y,-z
7 1/2+x,-y,1/2+z
8 -x,1/2+y,1/2+z
_cell_length_a                   13.4802(8)
_cell_length_b                   15.6560(9)
_cell_length_c                   27.0214(16)
_cell_angle_alpha                90
_cell_angle_beta                 90
_cell_angle_gamma                90
_cell_volume                     5702.76
loop_
_atom_site_label
_atom_site_type_symbol
_atom_site_fract_x
_atom_site_fract_y
_atom_site_fract_z
Cd1 Cd 0.7500 0.2500 0.2500
Cd2 Cd 1.2500 0.2500 0.7500
F1 F 0.8582(2) -0.08351(18) 0.42843(9)
F2 F 0.59669(19) 0.0268(2) 0.52219(10)
F3 F 0.97258(18) -0.09576(17) 0.50923(10)
F4 F 0.61732(18) 0.0505(2) 0.61498(10)
F5 F 0.98706(18) -0.09259(16) 0.60337(10)
F6 F 0.7296(2) 0.0288(3) 0.69534(11)
O1 O 0.9246(2) 0.2058(2) 0.28058(12)
O2 O 1.0621(5) 0.2500 0.2500
O3 O 1.3138(2) 0.2085(2) 0.65927(12)
O4 O 1.2500 0.2500 0.58998(18)
N1 N 0.7214(3) 0.1468(2) 0.31212(11)
N2 N 1.1306(2) 0.1449(2) 0.73525(12)
N3 N 0.9709(4) 0.2500 0.2500
N4 N 1.2500 0.2500 0.63513(19)
C1 C 0.7732(3) 0.1482(2) 0.35489(14)
H1 H 0.8252 0.1888 0.3583
C2 C 0.6501(3) 0.0885(3) 0.30813(14)
H2 H 0.6126 0.0866 0.2784
C3 C 0.7542(3) 0.0930(3) 0.39411(14)
H3 H 0.7916 0.0972 0.4238
C4 C 0.6277(3) 0.0300(3) 0.34546(14)
H4 H 0.5765 -0.0109 0.3407
C5 C 0.6803(3) 0.0317(3) 0.38954(13)
C6 C 0.6562(3) -0.0336(3) 0.42917(14)
H5 H 0.6605 -0.0913 0.4143
H6 H 0.5867 -0.0248 0.4399
C7 C 0.7224(3) -0.0310(3) 0.47449(15)
C8 C 0.8215(3) -0.0617(2) 0.47119(15)
C9 C 0.6888(3) -0.0040(2) 0.51892(17)
C10 C 0.8798(3) -0.0661(3) 0.51343(16)
C11 C 0.7456(3) -0.0085(2) 0.56377(19)
C12 C 0.8424(3) -0.0430(2) 0.55970(15)
C13 C 0.7102(3) 0.0155(3) 0.61047(17)
C14 C 0.8973(3) -0.0554(2) 0.60526(15)
C15 C 0.7668(3) 0.0055(3) 0.6517(2)
C16 C 0.8620(3) -0.0324(2) 0.65042(14)
C17 C 0.9157(3) -0.0492(3) 0.69832(15)
H7 H 0.9513 -0.1043 0.6958
H8 H 0.8664 -0.0544 0.7253
C18 C 0.9892(3) 0.0204(2) 0.71142(13)
C19 C 1.0784(3) 0.0271(3) 0.68570(16)
H9 H 1.0925 -0.0110 0.6592
C20 C 0.9737(3) 0.0783(3) 0.74901(15)
H10 H 0.9137 0.0767 0.7674
C21 C 1.1463(3) 0.0890(3) 0.69870(16)
H11 H 1.2070 0.0920 0.6809
C22 C 1.0453(3) 0.1387(3) 0.76011(14)
H12 H 1.0332 0.1775 0.7865
Cd2_2 Cd 0.2500 0.2500 0.7500
Cd2_3 Cd 0.2500 0.2500 -0.2500
Cd2_4 Cd 1.2500 0.2500 -0.2500
F1A F 0.6418(2) 0.58351(18) 0.42843(9)
F1B F 0.6418(2) -0.08351(18) 0.07157(9)
F1C F 0.8582(2) 0.58351(18) 0.07157(9)
F2A F 0.90331(19) 0.4732(2) 0.52219(10)
F2B F 0.90331(19) 0.0268(2) -0.02219(10)
F2C F 0.59669(19) 0.4732(2) -0.02219(10)
F3A F 0.52742(18) 0.59576(17) 0.50923(10)
F3B F 0.52742(18) -0.09576(17) -0.00923(10)
F3C F 0.97258(18) 0.59576(17) -0.00923(10)
F4A F 0.88268(18) 0.4495(2) 0.61498(10)
F4B F 0.88268(18) 0.0505(2) -0.11498(10)
F4C F 0.61732(18) 0.4495(2) -0.11498(10)
F5A F 0.51294(18) 0.59259(16) 0.60337(10)
F5B F 0.51294(18) -0.09259(16) -0.10337(10)
F5C F 0.98706(18) 0.59259(16) -0.10337(10)
F6A F 0.7704(2) 0.4712(3) 0.69534(11)
F6B F 0.7704(2) 0.0288(3) -0.19534(11)
F6C F 0.7296(2) 0.4712(3) -0.19534(11)
O1C O 0.9246(2) 0.2942(2) 0.21942(12)
O1A O 0.5754(2) 0.2942(2) 0.28058(12)
O1B O 0.5754(2) 0.2058(2) 0.21942(12)
O2A O 0.4379(5) 0.2500 0.2500
O3A O 1.1862(2) 0.2915(2) 0.65927(12)
O3B O 1.1862(2) 0.2085(2) 0.84073(12)
O3C O 1.3138(2) 0.2915(2) 0.84073(12)
O4B O 1.2500 0.2500 0.91002(18)
N1A N 0.7786(3) 0.3532(2) 0.31212(11)
N1B N 0.7786(3) 0.1468(2) 0.18788(11)
N1C N 0.7214(3) 0.3532(2) 0.18788(11)
N2A N 0.3694(2) 0.3551(2) 0.73525(12)
N2B N 0.3694(2) 0.1449(2) -0.23525(12)
N2C N 1.1306(2) 0.3551(2) -0.23525(12)
N2A_2 N 1.3694(2) 0.3551(2) 0.73525(12)
N2B_2 N 1.3694(2) 0.1449(2) 0.76475(12)
N2C_2 N 1.1306(2) 0.3551(2) 0.76475(12)
N3A N 0.5291(4) 0.2500 0.2500
N4B N 1.2500 0.2500 0.86487(19)
C1A C 0.7268(3) 0.3518(2) 0.35489(14)
C1B C 0.7268(3) 0.1482(2) 0.14511(14)
C1C C 0.7732(3) 0.3518(2) 0.14511(14)
H1A H 0.6748 0.3112 0.3583
H1B H 0.6748 0.1888 0.1417
H1C H 0.8252 0.3112 0.1417
C2A C 0.8499(3) 0.4115(3) 0.30813(14)
C2B C 0.8499(3) 0.0885(3) 0.19187(14)
C2C C 0.6501(3) 0.4115(3) 0.19187(14)
H2A H 0.8874 0.4134 0.2784
H2B H 0.8874 0.0866 0.2216
H2C H 0.6126 0.4134 0.2216
C3A C 0.7458(3) 0.4070(3) 0.39411(14)
C3B C 0.7458(3) 0.0930(3) 0.10589(14)
C3C C 0.7542(3) 0.4070(3) 0.10589(14)
H3A H 0.7084 0.4028 0.4238
H3B H 0.7084 0.0972 0.0762
H3C H 0.7916 0.4028 0.0762
C4A C 0.8723(3) 0.4700(3) 0.34546(14)
C4B C 0.8723(3) 0.0300(3) 0.15454(14)
C4C C 0.6277(3) 0.4700(3) 0.15454(14)
H4A H 0.9235 0.5109 0.3407
H4B H 0.9235 -0.0109 0.1593
H4C H 0.5765 0.5109 0.1593
C5A C 0.8197(3) 0.4683(3) 0.38954(13)
C5B C 0.8197(3) 0.0317(3) 0.11046(13)
C5C C 0.6803(3) 0.4683(3) 0.11046(13)
C6A C 0.8438(3) 0.5336(3) 0.42917(14)
C6B C 0.8438(3) -0.0336(3) 0.07083(14)
C6C C 0.6562(3) 0.5336(3) 0.07083(14)
H5A H 0.8395 0.5913 0.4143
H5B H 0.8395 -0.0913 0.0857
H5C H 0.6605 0.5913 0.0857
H6A H 0.9133 0.5248 0.4399
H6B H 0.9133 -0.0248 0.0601
H6C H 0.5867 0.5248 0.0601
C7A C 0.7776(3) 0.5310(3) 0.47449(15)
C7B C 0.7776(3) -0.0310(3) 0.02551(15)
C7C C 0.7224(3) 0.5310(3) 0.02551(15)
C8A C 0.6785(3) 0.5617(2) 0.47119(15)
C8B C 0.6785(3) -0.0617(2) 0.02881(15)
C8C C 0.8215(3) 0.5617(2) 0.02881(15)
C9A C 0.8112(3) 0.5040(2) 0.51892(17)
C9B C 0.8112(3) -0.0040(2) -0.01892(17)
C9C C 0.6888(3) 0.5040(2) -0.01892(17)
C10A C 0.6202(3) 0.5661(3) 0.51343(16)
C10B C 0.6202(3) -0.0661(3) -0.01343(16)
C10C C 0.8798(3) 0.5661(3) -0.01343(16)
C11A C 0.7544(3) 0.5085(2) 0.56377(19)
C11B C 0.7544(3) -0.0085(2) -0.06377(19)
C11C C 0.7456(3) 0.5085(2) -0.06377(19)
C12A C 0.6576(3) 0.5430(2) 0.55970(15)
C12B C 0.6576(3) -0.0430(2) -0.05970(15)
C12C C 0.8424(3) 0.5430(2) -0.05970(15)
C13A C 0.7898(3) 0.4845(3) 0.61047(17)
C13B C 0.7898(3) 0.0155(3) -0.11047(17)
C13C C 0.7102(3) 0.4845(3) -0.11047(17)
C14A C 0.6027(3) 0.5554(2) 0.60526(15)
C14B C 0.6027(3) -0.0554(2) -0.10526(15)
C14C C 0.8973(3) 0.5554(2) -0.10526(15)
C15A C 0.7332(3) 0.4945(3) 0.6517(2)
C15B C 0.7332(3) 0.0055(3) -0.1517(2)
C15C C 0.7668(3) 0.4945(3) -0.1517(2)
C16A C 0.6380(3) 0.5324(2) 0.65042(14)
C16B C 0.6380(3) -0.0324(2) -0.15042(14)
C16C C 0.8620(3) 0.5324(2) -0.15042(14)
C17A C 0.5843(3) 0.5492(3) 0.69832(15)
C17B C 0.5843(3) -0.0492(3) -0.19832(15)
C17C C 0.9157(3) 0.5492(3) -0.19832(15)
H7A H 0.5487 0.6043 0.6958
H7B H 0.5487 -0.1043 -0.1958
H7C H 0.9513 0.6043 -0.1958
H8A H 0.6336 0.5544 0.7253
H8B H 0.6336 -0.0544 -0.2253
H8C H 0.8664 0.5544 -0.2253
C18A C 0.5108(3) 0.4796(2) 0.71142(13)
C18B C 0.5108(3) 0.0204(2) -0.21142(13)
C18C C 0.9892(3) 0.4796(2) -0.21142(13)
C19A C 0.4216(3) 0.4729(3) 0.68570(16)
C19B C 0.4216(3) 0.0271(3) -0.18570(16)
C19C C 1.0784(3) 0.4729(3) -0.18570(16)
H9A H 0.4075 0.5110 0.6592
H9B H 0.4075 -0.0110 -0.1592
H9C H 1.0925 0.5110 -0.1592
C20A C 0.5263(3) 0.4217(3) 0.74901(15)
C20B C 0.5263(3) 0.0783(3) -0.24901(15)
C20C C 0.9737(3) 0.4217(3) -0.24901(15)
H10A H 0.5863 0.4233 0.7674
H10B H 0.5863 0.0767 -0.2674
H10C H 0.9137 0.4233 -0.2674
C21A C 0.3537(3) 0.4110(3) 0.69870(16)
C21B C 0.3537(3) 0.0890(3) -0.19870(16)
C21C C 1.1463(3) 0.4110(3) -0.19870(16)
H11A H 0.2930 0.4080 0.6809
H11B H 0.2930 0.0920 -0.1809
H11C H 1.2070 0.4080 -0.1809
C22A C 0.4547(3) 0.3613(3) 0.76011(14)
C22B C 0.4547(3) 0.1387(3) -0.26011(14)
C22C C 1.0453(3) 0.3613(3) -0.26011(14)
H12A H 0.4668 0.3225 0.7865
H12B H 0.4668 0.1775 -0.2865
H12C H 1.0332 0.3225 -0.2865
C23 C 0.7500 0.2500 0.6092(6)
C24 C 0.6601(9) 0.2653(6) 0.5936(5)
C25 C 0.6649(12) 0.2646(9) 0.5390(6)
C26 C 0.7500 0.2500 0.5031(15)
C27 C 0.5642(12) 0.2853(10) 0.6133(6)
C24A C 0.8399(9) 0.2347(6) 0.5936(5)
C25A C 0.8351(12) 0.2354(9) 0.5390(6)
C27A C 0.9358(12) 0.2147(10) 0.6133(6)
C28 C 0.8427(7) 0.7214(6) 0.5759(3)
C29 C 0.8216(9) 0.7270(7) 0.6194(5)
C31 C 0.871(3) 0.690(3) 0.6563(14)
C32 C 0.7500 0.7500 0.5459(8)
C34 C 0.7500 0.7500 0.6317(8)
C28A C 0.6573(7) 0.7786(6) 0.5759(3)
C29A C 0.6784(9) 0.7730(7) 0.6194(5)
C31A C 0.629(3) 0.810(3) 0.6563(14)
C30? C 0.9482(17) 0.6898(16) 0.5634(8)
C33? C 0.8069(11) 0.7326(8) 0.5360(5)
loop_
_geom_bond_atom_site_label_1
_geom_bond_atom_site_label_2
_geom_bond_site_symmetry_1
_geom_bond_site_symmetry_2
Cd1 O1 1_555 1_555
Cd2 O3 1_555 1_555
F1 C8 1_555 1_555
F2 C9 1_555 1_555
F3 C10 1_555 1_555
F4 C13 1_555 1_555
F5 C14 1_555 1_555
F6 C15 1_555 1_555
O1 N3 1_555 1_555
O2 N3 1_555 1_555
O3 N4 1_555 1_555
O4 N4 1_555 1_555
N1 Cd1 1_555 1_555
N2 Cd2 1_555 1_555
N3 O1C 1_555 1_555
N4 O3A 1_555 1_555
C1 N1 1_555 1_555
H1 C1 1_555 1_555
C2 N1 1_555 1_555
H2 C2 1_555 1_555
C3 C1 1_555 1_555
H3 C3 1_555 1_555
C4 C2 1_555 1_555
H4 C4 1_555 1_555
C5 C3 1_555 1_555
C6 C5 1_555 1_555
H5 C6 1_555 1_555
H6 C6 1_555 1_555
C7 C6 1_555 1_555
C8 C7 1_555 1_555
C9 C7 1_555 1_555
C10 C8 1_555 1_555
C11 C9 1_555 1_555
C12 C10 1_555 1_555
C13 C11 1_555 1_555
C14 C12 1_555 1_555
C15 C13 1_555 1_555
C16 C14 1_555 1_555
C17 C16 1_555 1_555
H7 C17 1_555 1_555
H8 C17 1_555 1_555
C18 C17 1_555 1_555
C19 C18 1_555 1_555
H9 C19 1_555 1_555
C20 C18 1_555 1_555
H10 C20 1_555 1_555
C21 N2 1_555 1_555
H11 C21 1_555 1_555
C22 N2 1_555 1_555
H12 C22 1_555 1_555
C23 C24 1_555 1_555
C24 C25 1_555 1_555
C25 C26 1_555 1_555
C26 C25A 1_555 1_555
C27 C24 1_555 1_555
C28 C29 1_555 1_555
C29 C31 1_555 1_555
C32 C28 1_555 1_555
C34 C29 1_555 1_555
Cd2_2 N2A 1_555 1_555
Cd2_3 N2B 1_555 1_555
Cd2_4 N2C 1_555 1_555
F1A C8A 1_555 1_555
F1B C8B 1_555 1_555
F1C C8C 1_555 1_555
F2A C9A 1_555 1_555
F2B C9B 1_555 1_555
F2C C9C 1_555 1_555
F3A C10A 1_555 1_555
F3B C10B 1_555 1_555
F3C C10C 1_555 1_555
F4A C13A 1_555 1_555
F4B C13B 1_555 1_555
F4C C13C 1_555 1_555
F5A C14A 1_555 1_555
F5B C14B 1_555 1_555
F5C C14C 1_555 1_555
F6A C15A 1_555 1_555
F6B C15B 1_555 1_555
F6C C15C 1_555 1_555
O1C Cd1 1_555 1_555
O1A Cd1 1_555 1_555
O1B Cd1 1_555 1_555
O2A N3A 1_555 1_555
O3A Cd2 1_555 1_555
O3B Cd2 1_555 1_555
O3C Cd2 1_555 1_555
O4B N4B 1_555 1_555
N1A Cd1 1_555 1_555
N1B Cd1 1_555 1_555
N1C Cd1 1_555 1_555
N2A C21A 1_555 1_555
N2B C21B 1_555 1_555
N2C C21C 1_555 1_555
N2A_2 Cd2 1_555 1_555
N2B_2 Cd2 1_555 1_555
N2C_2 Cd2 1_555 1_555
N3A O1A 1_555 1_555
N4B O3B 1_555 1_555
C1A N1A 1_555 1_555
C1B N1B 1_555 1_555
C1C N1C 1_555 1_555
H1A C1A 1_555 1_555
H1B C1B 1_555 1_555
H1C C1C 1_555 1_555
C2A N1A 1_555 1_555
C2B N1B 1_555 1_555
C2C N1C 1_555 1_555
H2A C2A 1_555 1_555
H2B C2B 1_555 1_555
H2C C2C 1_555 1_555
C3A C1A 1_555 1_555
C3B C1B 1_555 1_555
C3C C1C 1_555 1_555
H3A C3A 1_555 1_555
H3B C3B 1_555 1_555
H3C C3C 1_555 1_555
C4A C2A 1_555 1_555
C4B C2B 1_555 1_555
C4C C2C 1_555 1_555
H4A C4A 1_555 1_555
H4B C4B 1_555 1_555
H4C C4C 1_555 1_555
C5A C3A 1_555 1_555
C5B C3B 1_555 1_555
C5C C3C 1_555 1_555
C6A C5A 1_555 1_555
C6B C5B 1_555 1_555
C6C C5C 1_555 1_555
H5A C6A 1_555 1_555
H5B C6B 1_555 1_555
H5C C6C 1_555 1_555
H6A C6A 1_555 1_555
H6B C6B 1_555 1_555
H6C C6C 1_555 1_555
C7A C6A 1_555 1_555
C7B C6B 1_555 1_555
C7C C6C 1_555 1_555
C8A C7A 1_555 1_555
C8B C7B 1_555 1_555
C8C C7C 1_555 1_555
C9A C7A 1_555 1_555
C9B C7B 1_555 1_555
C9C C7C 1_555 1_555
C10A C8A 1_555 1_555
C10B C8B 1_555 1_555
C10C C8C 1_555 1_555
C11A C9A 1_555 1_555
C11B C9B 1_555 1_555
C11C C9C 1_555 1_555
C12A C10A 1_555 1_555
C12B C10B 1_555 1_555
C12C C10C 1_555 1_555
C13A C11A 1_555 1_555
C13B C11B 1_555 1_555
C13C C11C 1_555 1_555
C14A C12A 1_555 1_555
C14B C12B 1_555 1_555
C14C C12C 1_555 1_555
C15A C13A 1_555 1_555
C15B C13B 1_555 1_555
C15C C13C 1_555 1_555
C16A C14A 1_555 1_555
C16B C14B 1_555 1_555
C16C C14C 1_555 1_555
C17A C16A 1_555 1_555
C17B C16B 1_555 1_555
C17C C16C 1_555 1_555
H7A C17A 1_555 1_555
H7B C17B 1_555 1_555
H7C C17C 1_555 1_555
H8A C17A 1_555 1_555
H8B C17B 1_555 1_555
H8C C17C 1_555 1_555
C18A C17A 1_555 1_555
C18B C17B 1_555 1_555
C18C C17C 1_555 1_555
C19A C18A 1_555 1_555
C19B C18B 1_555 1_555
C19C C18C 1_555 1_555
H9A C19A 1_555 1_555
H9B C19B 1_555 1_555
H9C C19C 1_555 1_555
C20A C18A 1_555 1_555
C20B C18B 1_555 1_555
C20C C18C 1_555 1_555
H10A C20A 1_555 1_555
H10B C20B 1_555 1_555
H10C C20C 1_555 1_555
C21A C19A 1_555 1_555
C21B C19B 1_555 1_555
C21C C19C 1_555 1_555
H11A C21A 1_555 1_555
H11B C21B 1_555 1_555
H11C C21C 1_555 1_555
C22A N2A 1_555 1_555
C22B N2B 1_555 1_555
C22C N2C 1_555 1_555
H12A C22A 1_555 1_555
H12B C22B 1_555 1_555
H12C C22C 1_555 1_555
C24A C23 1_555 1_555
C25A C24A 1_555 1_555
C27A C24A 1_555 1_555
C28A C32 1_555 1_555
C29A C34 1_555 1_555
C31A C29A 1_555 1_555
C4 C5 1_555 1_555
C11 C12 1_555 1_555
C15 C16 1_555 1_555
C19 C21 1_555 1_555
C20 C22 1_555 1_555
O1B N3A 1_555 1_555
O3C N4B 1_555 1_555
C4A C5A 1_555 1_555
C4B C5B 1_555 1_555
C4C C5C 1_555 1_555
C11A C12A 1_555 1_555
C11B C12B 1_555 1_555
C11C C12C 1_555 1_555
C15A C16A 1_555 1_555
C15B C16B 1_555 1_555
C15C C16C 1_555 1_555
C20A C22A 1_555 1_555
C20B C22B 1_555 1_555
C20C C22C 1_555 1_555
C28A C29A 1_555 1_555

#END
