
#######################################################################
#
#                 Cambridge Crystallographic Data Centre
#                                CCDC 
#
#######################################################################
#
# If this CIF has been generated from an entry in the Cambridge 
# Structural Database, then it will include bibliographic, chemical, 
# crystal, experimental, refinement or atomic coordinate data resulting 
# from the CCDC's data processing and validation procedures.
#
#######################################################################

data_MICSIB
_symmetry_cell_setting           monoclinic
_symmetry_space_group_name_H-M   'C 2/c'
_symmetry_Int_Tables_number      15
_space_group_name_Hall           '-C 2yn'
loop_
_symmetry_equiv_pos_site_id
_symmetry_equiv_pos_as_xyz
1 x,y,z
2 1/2+x,1/2+y,z
3 -x,y,1/2-z
4 1/2-x,1/2+y,1/2-z
5 -x,-y,-z
6 1/2-x,1/2-y,-z
7 x,-y,1/2+z
8 1/2+x,1/2-y,1/2+z
_cell_length_a                   31.552(5)
_cell_length_b                   13.533(2)
_cell_length_c                   17.318(3)
_cell_angle_alpha                90
_cell_angle_beta                 121.816(2)
_cell_angle_gamma                90
_cell_volume                     6283.59
loop_
_atom_site_label
_atom_site_type_symbol
_atom_site_fract_x
_atom_site_fract_y
_atom_site_fract_z
Cd1 Cd 0.0000 0.176289(18) 0.2500
F1 F 0.07595(6) 0.50542(14) 0.65774(13)
F2 F 0.22373(5) 0.46601(12) 0.65893(9)
F3 F 0.12026(7) 0.44407(15) 0.82964(13)
F4 F 0.30062(5) 0.39681(11) 0.79913(9)
F5 F 0.20091(7) 0.38513(12) 0.97690(12)
F6 F 0.29502(7) 0.32648(11) 1.05835(10)
O1 O 0.07273(9) 0.2264(2) 0.23813(15)
O2 O 0.04091(12) 0.1221(3) 0.1351(3)
O3 O 0.08997(11) 0.2316(3) 0.1358(2)
N1 N 0.04158(7) 0.29617(15) 0.36310(13)
N2 N 0.45039(7) 0.55023(15) 1.15133(13)
N3 N 0.06862(8) 0.1940(2) 0.16913(17)
C1 C 0.09127(8) 0.29025(19) 0.42045(15)
H1 H 0.1084 0.2344 0.4168
C2 C 0.01839(9) 0.3757(2) 0.36975(18)
H2 H -0.0168 0.3805 0.3302
C3 C 0.11841(8) 0.36205(19) 0.48443(16)
H3 H 0.1534 0.3547 0.5244
C4 C 0.04313(9) 0.4506(2) 0.43118(19)
H4 H 0.0251 0.5059 0.4331
C5 C 0.09436(9) 0.44525(18) 0.49025(16)
C6 C 0.12339(10) 0.5261(2) 0.55928(18)
H5 H 0.1483 0.5544 0.5473
H6 H 0.1002 0.5797 0.5521
C7 C 0.14974(9) 0.48794(18) 0.65566(17)
C8 C 0.12460(9) 0.4793(2) 0.7023(2)
C9 C 0.19869(9) 0.45941(18) 0.70253(16)
C10 C 0.14711(10) 0.4478(2) 0.7896(2)
C11 C 0.22461(8) 0.42422(17) 0.79273(16)
C12 C 0.19781(9) 0.41941(18) 0.83855(17)
C13 C 0.27494(8) 0.39221(17) 0.84142(15)
C14 C 0.22379(10) 0.38725(18) 0.92940(18)
C15 C 0.27193(10) 0.35752(17) 0.97112(17)
C16 C 0.29915(9) 0.35675(17) 0.92797(16)
C17 C 0.35244(10) 0.31947(18) 0.97674(17)
H7 H 0.3555 0.2599 1.0125
H8 H 0.3611 0.3006 0.9315
C18 C 0.38842(9) 0.39785(17) 1.03944(16)
C19 C 0.40464(10) 0.4012(2) 1.13089(17)
H9 H 0.3950 0.3511 1.1571
C20 C 0.40512(9) 0.47120(19) 1.00600(16)
H10 H 0.3956 0.4707 0.9440
C21 C 0.43502(10) 0.4783(2) 1.18382(17)
H11 H 0.4454 0.4801 1.2462
C22 C 0.43571(9) 0.54515(19) 1.06342(16)
H12 H 0.4469 0.5948 1.0394
Cd1A Cd 0.5000 0.676289(18) 1.2500
Cd1A_2 Cd -0.5000 0.676289(18) -0.7500
F1B F -0.07595(6) 0.50542(14) -0.15774(13)
F2B F -0.22373(5) 0.46601(12) -0.15893(9)
F3B F -0.12026(7) 0.44407(15) -0.32964(13)
F4B F -0.30062(5) 0.39681(11) -0.29913(9)
F5B F -0.20091(7) 0.38513(12) -0.47690(12)
F6B F -0.29502(7) 0.32648(11) -0.55835(10)
O1B O -0.07273(9) 0.2264(2) 0.26187(15)
O2B O -0.04091(12) 0.1221(3) 0.3649(3)
O3B O -0.08997(11) 0.2316(3) 0.3642(2)
N1B N -0.04158(7) 0.29617(15) 0.13690(13)
N2B N -0.45039(7) 0.55023(15) -0.65133(13)
N2A N -0.04961(7) 0.05023(15) 0.15133(13)
N2C N 0.04961(7) 0.05023(15) 0.34867(13)
N3B N -0.06862(8) 0.1940(2) 0.33087(17)
C1B C -0.09127(8) 0.29025(19) 0.07955(15)
H1B H -0.1084 0.2344 0.0832
C2B C -0.01839(9) 0.3757(2) 0.13025(18)
H2B H 0.0168 0.3805 0.1698
C3B C -0.11841(8) 0.36205(19) 0.01557(16)
H3B H -0.1534 0.3547 -0.0244
C4B C -0.04313(9) 0.4506(2) 0.06882(19)
H4B H -0.0251 0.5059 0.0669
C5B C -0.09436(9) 0.44525(18) 0.00975(16)
C6B C -0.12339(10) 0.5261(2) -0.05928(18)
H5B H -0.1483 0.5544 -0.0473
H6B H -0.1002 0.5797 -0.0521
C7B C -0.14974(9) 0.48794(18) -0.15566(17)
C8B C -0.12460(9) 0.4793(2) -0.2023(2)
C9B C -0.19869(9) 0.45941(18) -0.20253(16)
C10B C -0.14711(10) 0.4478(2) -0.2896(2)
C11B C -0.22461(8) 0.42422(17) -0.29273(16)
C12B C -0.19781(9) 0.41941(18) -0.33855(17)
C13B C -0.27494(8) 0.39221(17) -0.34142(15)
C14B C -0.22379(10) 0.38725(18) -0.42940(18)
C15B C -0.27193(10) 0.35752(17) -0.47112(17)
C16B C -0.29915(9) 0.35675(17) -0.42797(16)
C17B C -0.35244(10) 0.31947(18) -0.47674(17)
H7B H -0.3555 0.2599 -0.5125
H8B H -0.3611 0.3006 -0.4315
C18B C -0.38842(9) 0.39785(17) -0.53944(16)
C19B C -0.40464(10) 0.4012(2) -0.63089(17)
H9B H -0.3950 0.3511 -0.6571
C20B C -0.40512(9) 0.47120(19) -0.50600(16)
H10B H -0.3956 0.4707 -0.4440
C21B C -0.43502(10) 0.4783(2) -0.68382(17)
H11B H -0.4454 0.4801 -0.7462
C22B C -0.43571(9) 0.54515(19) -0.56342(16)
H12B H -0.4469 0.5948 -0.5394
O4 O 0.23683(9) 0.18938(15) 0.74221(14)
O5 O 0.17466(7) 0.09345(15) 0.43716(12)
C23 C 0.24301(11) 0.17035(17) 0.67107(17)
C24 C 0.20472(9) 0.14038(18) 0.58616(17)
H13 H 0.1718 0.1325 0.5740
C25 C 0.21519(9) 0.12184(17) 0.51859(16)
C26 C 0.26300(10) 0.13156(19) 0.5353(2)
H14 H 0.2699 0.1174 0.4893
C27 C 0.30038(10) 0.16244(19) 0.6207(2)
H15 H 0.3332 0.1706 0.6325
C28 C 0.29160(10) 0.18169(18) 0.6888(2)
H16 H 0.3180 0.2023 0.7471
C29 C 0.18893(16) 0.1745(2) 0.7277(2)
H17 H 0.1894 0.1905 0.7833
H18 H 0.1791 0.1053 0.7114
H19 H 0.1649 0.2174 0.6782
C30 C 0.18263(11) 0.0702(2) 0.36495(18)
H20 H 0.1508 0.0516 0.3106
H21 H 0.2062 0.0151 0.3834
H22 H 0.1963 0.1281 0.3515
C31 C 0.9746(3) 0.1610(6) 0.9061(5)
O6 O 0.9323(2) 0.0861(6) 0.8679(4)
C32 C 0.9573(4) 0.2547(6) 0.8927(8)
O7? O 1.0258(4) 0.2929(7) 0.9441(7)
C33? C 0.9897(6) 0.2618(13) 0.8630(14)
loop_
_geom_bond_atom_site_label_1
_geom_bond_atom_site_label_2
_geom_bond_site_symmetry_1
_geom_bond_site_symmetry_2
Cd1 O1 1_555 1_555
F1 C8 1_555 1_555
F2 C9 1_555 1_555
F3 C10 1_555 1_555
F4 C13 1_555 1_555
F5 C14 1_555 1_555
F6 C15 1_555 1_555
O1 N3 1_555 1_555
O2 N3 1_555 1_555
O3 N3 1_555 1_555
O4 C23 1_555 1_555
O5 C25 1_555 1_555
N1 Cd1 1_555 1_555
N2 C21 1_555 1_555
C1 N1 1_555 1_555
H1 C1 1_555 1_555
C2 N1 1_555 1_555
H2 C2 1_555 1_555
C3 C1 1_555 1_555
H3 C3 1_555 1_555
C4 C2 1_555 1_555
H4 C4 1_555 1_555
C5 C3 1_555 1_555
C6 C5 1_555 1_555
H5 C6 1_555 1_555
H6 C6 1_555 1_555
C7 C6 1_555 1_555
C8 C7 1_555 1_555
C9 C7 1_555 1_555
C10 C8 1_555 1_555
C11 C9 1_555 1_555
C12 C10 1_555 1_555
C13 C11 1_555 1_555
C14 C12 1_555 1_555
C15 C14 1_555 1_555
C16 C13 1_555 1_555
C17 C16 1_555 1_555
H7 C17 1_555 1_555
H8 C17 1_555 1_555
C18 C17 1_555 1_555
C19 C18 1_555 1_555
H9 C19 1_555 1_555
C20 C18 1_555 1_555
H10 C20 1_555 1_555
C21 C19 1_555 1_555
H11 C21 1_555 1_555
C22 N2 1_555 1_555
H12 C22 1_555 1_555
C23 C24 1_555 1_555
C24 H13 1_555 1_555
C25 C24 1_555 1_555
C26 C25 1_555 1_555
H14 C26 1_555 1_555
C27 C26 1_555 1_555
H15 C27 1_555 1_555
C28 C23 1_555 1_555
H16 C28 1_555 1_555
C29 O4 1_555 1_555
H17 C29 1_555 1_555
H18 C29 1_555 1_555
H19 C29 1_555 1_555
C30 O5 1_555 1_555
H20 C30 1_555 1_555
H21 C30 1_555 1_555
H22 C30 1_555 1_555
C31 O6 1_555 1_555
C32 C31 1_555 1_555
Cd1A N2 1_555 1_555
Cd1A_2 N2B 1_555 1_555
F1B C8B 1_555 1_555
F2B C9B 1_555 1_555
F3B C10B 1_555 1_555
F4B C13B 1_555 1_555
F5B C14B 1_555 1_555
F6B C15B 1_555 1_555
O1B Cd1 1_555 1_555
O2B N3B 1_555 1_555
O3B N3B 1_555 1_555
N1B Cd1 1_555 1_555
N2B C21B 1_555 1_555
N2A Cd1 1_555 1_555
N2C Cd1 1_555 1_555
N3B O1B 1_555 1_555
C1B N1B 1_555 1_555
H1B C1B 1_555 1_555
C2B N1B 1_555 1_555
H2B C2B 1_555 1_555
C3B C1B 1_555 1_555
H3B C3B 1_555 1_555
C4B C2B 1_555 1_555
H4B C4B 1_555 1_555
C5B C3B 1_555 1_555
C6B C5B 1_555 1_555
H5B C6B 1_555 1_555
H6B C6B 1_555 1_555
C7B C6B 1_555 1_555
C8B C7B 1_555 1_555
C9B C7B 1_555 1_555
C10B C8B 1_555 1_555
C11B C9B 1_555 1_555
C12B C10B 1_555 1_555
C13B C11B 1_555 1_555
C14B C12B 1_555 1_555
C15B C14B 1_555 1_555
C16B C13B 1_555 1_555
C17B C16B 1_555 1_555
H7B C17B 1_555 1_555
H8B C17B 1_555 1_555
C18B C17B 1_555 1_555
C19B C18B 1_555 1_555
H9B C19B 1_555 1_555
C20B C18B 1_555 1_555
H10B C20B 1_555 1_555
C21B C19B 1_555 1_555
H11B C21B 1_555 1_555
C22B N2B 1_555 1_555
H12B C22B 1_555 1_555
C4 C5 1_555 1_555
C11 C12 1_555 1_555
C15 C16 1_555 1_555
C20 C22 1_555 1_555
C27 C28 1_555 1_555
C4B C5B 1_555 1_555
C11B C12B 1_555 1_555
C15B C16B 1_555 1_555
C20B C22B 1_555 1_555

#END
