
#######################################################################
#
#                 Cambridge Crystallographic Data Centre
#                                CCDC 
#
#######################################################################
#
# If this CIF has been generated from an entry in the Cambridge 
# Structural Database, then it will include bibliographic, chemical, 
# crystal, experimental, refinement or atomic coordinate data resulting 
# from the CCDC's data processing and validation procedures.
#
#######################################################################

data_MICXAZ
_symmetry_cell_setting           triclinic
_symmetry_space_group_name_H-M   'P -1'
_symmetry_Int_Tables_number      2
_space_group_name_Hall           '-P 1'
loop_
_symmetry_equiv_pos_site_id
_symmetry_equiv_pos_as_xyz
1 x,y,z
2 -x,-y,-z
_cell_length_a                   6.2819(4)
_cell_length_b                   10.6424(7)
_cell_length_c                   19.6382(14)
_cell_angle_alpha                96.9636(7)
_cell_angle_beta                 93.8785(8)
_cell_angle_gamma                101.6636(8)
_cell_volume                     1270.56
loop_
_atom_site_label
_atom_site_type_symbol
_atom_site_fract_x
_atom_site_fract_y
_atom_site_fract_z
Li1 Li 0.1934(5) 0.1138(3) 0.23700(13)
P1 P 0.60756(6) 0.26423(3) 0.253786(18)
B1 B 0.8630(3) 0.19962(17) 0.22480(9)
H1 H 1.030(3) 0.2666(17) 0.2443(9)
H2 H 0.846(3) 0.1028(18) 0.2457(9)
H3 H 0.838(3) 0.177(2) 0.1657(11)
Si1 Si 0.80895(7) 0.57531(4) 0.27634(2)
Si2 Si 0.59449(7) 0.41841(4) 0.13042(2)
O1 O 0.22307(18) 0.01843(11) 0.31678(5)
O2 O 0.17627(18) -0.01854(11) 0.15782(6)
C1 C 0.6122(2) 0.42931(13) 0.22755(7)
H4 H 0.4665 0.4458 0.2387
C2 C 0.7272(3) 0.62079(15) 0.36459(8)
H5 H 0.8026 0.7098 0.3825
H6 H 0.7672 0.5617 0.3954
H7 H 0.5690 0.6147 0.3620
C3 C 1.0966(3) 0.55393(16) 0.28507(9)
H8 H 1.1922 0.6351 0.3073
H9 H 1.1420 0.5306 0.2393
H10 H 1.1066 0.4849 0.3132
C4 C 0.8117(3) 0.72242(15) 0.23227(9)
H11 H 0.9152 0.7965 0.2586
H12 H 0.6652 0.7413 0.2296
H13 H 0.8560 0.7063 0.1857
C5 C 0.8672(3) 0.43373(17) 0.09606(8)
H14 H 0.8477 0.4169 0.0456
H15 H 0.9432 0.3708 0.1138
H16 H 0.9538 0.5215 0.1108
C6 C 0.4128(3) 0.26198(16) 0.08991(8)
H17 H 0.3868 0.2631 0.0402
H18 H 0.2734 0.2507 0.1104
H19 H 0.4831 0.1901 0.0979
C7 C 0.4678(3) 0.55063(16) 0.10100(8)
H20 H 0.3862 0.5198 0.0557
H21 H 0.5829 0.6264 0.0977
H22 H 0.3684 0.5746 0.1342
C8 C 0.6472(2) 0.29803(13) 0.34841(7)
C9 C 0.4736(2) 0.32430(14) 0.38472(8)
H23 H 0.3394 0.3264 0.3599
C10 C 0.4932(3) 0.34725(15) 0.45607(8)
H24 H 0.3737 0.3661 0.4796
C11 C 0.6860(3) 0.34282(16) 0.49318(8)
H25 H 0.6997 0.3589 0.5421
C12 C 0.8583(3) 0.31478(16) 0.45852(8)
H26 H 0.9907 0.3107 0.4837
C13 C 0.8391(2) 0.29246(15) 0.38685(8)
H27 H 0.9590 0.2731 0.3637
C14 C 0.1007(3) 0.01300(17) 0.37611(8)
H28 H -0.0528 -0.0324 0.3625
H29 H 0.1023 0.1015 0.3989
C15 C 0.2110(3) -0.0604(2) 0.42402(10)
H30 H 0.1431 -0.1540 0.4160
H31 H 0.2040 -0.0264 0.4728
C16 C 0.4440(3) -0.03624(18) 0.40523(9)
H32 H 0.5290 0.0490 0.4279
H33 H 0.5185 -0.1052 0.4173
C17 C 0.4089(3) -0.03945(16) 0.32817(9)
H34 H 0.5394 0.0106 0.3106
H35 H 0.3790 -0.1297 0.3046
C18 C 0.3561(3) -0.07956(18) 0.14386(9)
H36 H 0.3539 -0.1532 0.1703
H37 H 0.4970 -0.0169 0.1562
C19 C 0.3240(3) -0.12625(18) 0.06721(9)
H38 H 0.3931 -0.2008 0.0554
H39 H 0.3831 -0.0561 0.0404
C20 C 0.0775(3) -0.16550(17) 0.05500(9)
H40 H 0.0230 -0.2525 0.0680
H41 H 0.0265 -0.1652 0.0062
C21 C 0.0049(3) -0.06106(16) 0.10216(8)
H42 H -0.0138 0.0119 0.0771
H43 H -0.1352 -0.0966 0.1200
Li1_2 Li 1.1934(5) 0.1138(3) 0.23700(13)
H1_2 H 0.030(3) 0.2666(17) 0.2443(9)
H2_2 H -0.154(3) 0.1028(18) 0.2457(9)
loop_
_geom_bond_atom_site_label_1
_geom_bond_atom_site_label_2
_geom_bond_site_symmetry_1
_geom_bond_site_symmetry_2
Li1 P1 1_555 1_555
P1 B1 1_555 1_555
B1 H1 1_555 1_555
H1 Li1_2 1_555 1_555
H2 B1 1_555 1_555
H3 B1 1_555 1_555
Si1 C1 1_555 1_555
Si2 C1 1_555 1_555
O1 Li1 1_555 1_555
O2 Li1 1_555 1_555
C1 P1 1_555 1_555
H4 C1 1_555 1_555
C2 Si1 1_555 1_555
H5 C2 1_555 1_555
H6 C2 1_555 1_555
H7 C2 1_555 1_555
C3 Si1 1_555 1_555
H8 C3 1_555 1_555
H9 C3 1_555 1_555
H10 C3 1_555 1_555
C4 Si1 1_555 1_555
H11 C4 1_555 1_555
H12 C4 1_555 1_555
H13 C4 1_555 1_555
C5 Si2 1_555 1_555
H14 C5 1_555 1_555
H15 C5 1_555 1_555
H16 C5 1_555 1_555
C6 Si2 1_555 1_555
H17 C6 1_555 1_555
H18 C6 1_555 1_555
H19 C6 1_555 1_555
C7 Si2 1_555 1_555
H20 C7 1_555 1_555
H21 C7 1_555 1_555
H22 C7 1_555 1_555
C8 P1 1_555 1_555
C9 C8 1_555 1_555
H23 C9 1_555 1_555
C10 C9 1_555 1_555
H24 C10 1_555 1_555
C11 C10 1_555 1_555
H25 C11 1_555 1_555
C12 C11 1_555 1_555
H26 C12 1_555 1_555
C13 C8 1_555 1_555
H27 C13 1_555 1_555
C14 O1 1_555 1_555
H28 C14 1_555 1_555
H29 C14 1_555 1_555
C15 C14 1_555 1_555
H30 C15 1_555 1_555
H31 C15 1_555 1_555
C16 C15 1_555 1_555
H32 C16 1_555 1_555
H33 C16 1_555 1_555
C17 O1 1_555 1_555
H34 C17 1_555 1_555
H35 C17 1_555 1_555
C18 O2 1_555 1_555
H36 C18 1_555 1_555
H37 C18 1_555 1_555
C19 C18 1_555 1_555
H38 C19 1_555 1_555
H39 C19 1_555 1_555
C20 C19 1_555 1_555
H40 C20 1_555 1_555
H41 C20 1_555 1_555
C21 O2 1_555 1_555
H42 C21 1_555 1_555
H43 C21 1_555 1_555
Li1_2 H2 1_555 1_555
H1_2 Li1 1_555 1_555
H2_2 Li1 1_555 1_555
C12 C13 1_555 1_555
C16 C17 1_555 1_555
C20 C21 1_555 1_555

#END
