
#######################################################################
#
#                 Cambridge Crystallographic Data Centre
#                                CCDC 
#
#######################################################################
#
# If this CIF has been generated from an entry in the Cambridge 
# Structural Database, then it will include bibliographic, chemical, 
# crystal, experimental, refinement or atomic coordinate data resulting 
# from the CCDC's data processing and validation procedures.
#
#######################################################################

data_MICYEE
_symmetry_cell_setting           orthorhombic
_symmetry_space_group_name_H-M   'P c c n'
_symmetry_Int_Tables_number      56
_space_group_name_Hall           '-P 2ab 2ac'
loop_
_symmetry_equiv_pos_site_id
_symmetry_equiv_pos_as_xyz
1 x,y,z
2 1/2-x,1/2-y,z
3 -x,1/2+y,1/2-z
4 1/2+x,-y,1/2-z
5 -x,-y,-z
6 1/2+x,1/2+y,-z
7 x,1/2-y,1/2+z
8 1/2-x,y,1/2+z
_cell_length_a                   8.6961(3)
_cell_length_b                   30.2919(11)
_cell_length_c                   23.9712(9)
_cell_angle_alpha                90
_cell_angle_beta                 90
_cell_angle_gamma                90
_cell_volume                     6314.53
loop_
_atom_site_label
_atom_site_type_symbol
_atom_site_fract_x
_atom_site_fract_y
_atom_site_fract_z
P1 P 0.31141(9) 0.60684(2) 0.27420(3)
B1 B 0.4908(4) 0.57148(11) 0.25786(16)
H1 H 0.505(3) 0.5497(9) 0.2952(11)
H2 H 0.467(3) 0.5526(9) 0.2198(12)
H3 H 0.592(4) 0.5913(10) 0.2489(13)
B2 B 0.1302(4) 0.57012(12) 0.28582(16)
H4 H 0.123(4) 0.5538(11) 0.2449(14)
H5 H 0.149(3) 0.5447(8) 0.3220(11)
H6 H 0.028(4) 0.5926(10) 0.2963(12)
Si1 Si 0.31776(11) 0.62729(3) 0.40276(4)
Si2 Si 0.52860(11) 0.68214(3) 0.31895(4)
C1 C 0.3475(3) 0.64852(9) 0.32916(12)
H7 H 0.2627 0.6705 0.3240
C2 C 0.1087(5) 0.62322(14) 0.41725(16)
H8 H 0.0930 0.6114 0.4549
H9 H 0.0606 0.6036 0.3899
H10 H 0.0621 0.6526 0.4147
C3 C 0.3901(5) 0.66685(13) 0.45677(15)
H11 H 0.3774 0.6539 0.4939
H12 H 0.3315 0.6944 0.4546
H13 H 0.4992 0.6730 0.4501
C4 C 0.4161(5) 0.57343(12) 0.41411(15)
H14 H 0.4063 0.5648 0.4534
H15 H 0.5252 0.5763 0.4045
H16 H 0.3686 0.5509 0.3904
C5 C 0.5781(4) 0.69422(12) 0.24482(15)
H17 H 0.6715 0.7123 0.2434
H18 H 0.4931 0.7103 0.2272
H19 H 0.5957 0.6665 0.2248
C6 C 0.4952(5) 0.73792(11) 0.34948(18)
H20 H 0.5894 0.7555 0.3465
H21 H 0.4666 0.7349 0.3888
H22 H 0.4119 0.7527 0.3292
C7 C 0.6981(4) 0.65527(13) 0.35202(17)
H23 H 0.7923 0.6701 0.3397
H24 H 0.7018 0.6241 0.3411
H25 H 0.6894 0.6574 0.3927
C8 C 0.2628(4) 0.64034(9) 0.21271(13)
C9 C 0.1539(4) 0.67367(10) 0.21614(15)
H26 H 0.1063 0.6800 0.2509
C10 C 0.1142(5) 0.69771(11) 0.16953(16)
H27 H 0.0402 0.7206 0.1726
C11 C 0.1803(5) 0.68893(11) 0.11887(17)
H28 H 0.1539 0.7059 0.0870
C12 C 0.2848(5) 0.65531(12) 0.11490(16)
H29 H 0.3279 0.6481 0.0797
C13 C 0.3276(4) 0.63198(11) 0.16146(13)
H30 H 0.4036 0.6096 0.1582
K1 K 0.31175(7) 0.47536(2) 0.24551(3)
O1 O 0.3210(3) 0.43890(7) 0.34959(9)
C14 C 0.3739(5) 0.39455(11) 0.35486(15)
H31 H 0.4866 0.3930 0.3494
H32 H 0.3235 0.3753 0.3269
C15 C 0.3321(7) 0.38065(17) 0.4123(2)
H33 H 0.2976 0.3495 0.4124
H34 H 0.4220 0.3834 0.4374
C16 C 0.2138(6) 0.40819(16) 0.43014(19)
H35 H 0.2311 0.4173 0.4693
H36 H 0.1139 0.3926 0.4279
C17 C 0.2132(5) 0.44797(12) 0.39237(15)
H37 H 0.1095 0.4527 0.3764
H38 H 0.2435 0.4748 0.4133
O2 O 0.2825(3) 0.48955(9) 0.13331(9)
C18 C 0.1710(4) 0.52244(11) 0.12204(14)
H39 H 0.1917 0.5492 0.1445
H40 H 0.0668 0.5115 0.1313
C19 C 0.1821(6) 0.53270(16) 0.06119(16)
H41 H 0.0935 0.5200 0.0408
H42 H 0.1836 0.5650 0.0551
C20 C 0.3199(6) 0.51362(18) 0.04274(17)
H43 H 0.4034 0.5358 0.0422
H44 H 0.3075 0.5014 0.0047
C21 C 0.3563(4) 0.47721(13) 0.08390(15)
H45 H 0.3168 0.4485 0.0703
H46 H 0.4687 0.4747 0.0897
H1C H 0.005(3) 0.4503(9) 0.2048(11)
H3C H 0.092(4) 0.4087(10) 0.2511(13)
H4C H 0.623(4) 0.4462(11) 0.2551(14)
H6C H 0.528(4) 0.4074(10) 0.2037(12)
K1C K -0.18825(7) 0.52464(2) 0.25449(3)
K1C_2 K 0.81175(7) 0.52464(2) 0.25449(3)
loop_
_geom_bond_atom_site_label_1
_geom_bond_atom_site_label_2
_geom_bond_site_symmetry_1
_geom_bond_site_symmetry_2
P1 B1 1_555 1_555
B1 H1 1_555 1_555
H1 K1 1_555 1_555
H2 B1 1_555 1_555
H3 B1 1_555 1_555
B2 P1 1_555 1_555
H4 B2 1_555 1_555
H5 B2 1_555 1_555
H6 B2 1_555 1_555
Si1 C1 1_555 1_555
Si2 C1 1_555 1_555
C1 P1 1_555 1_555
H7 C1 1_555 1_555
C2 Si1 1_555 1_555
H8 C2 1_555 1_555
H9 C2 1_555 1_555
H10 C2 1_555 1_555
C3 Si1 1_555 1_555
H11 C3 1_555 1_555
H12 C3 1_555 1_555
H13 C3 1_555 1_555
C4 Si1 1_555 1_555
H14 C4 1_555 1_555
H15 C4 1_555 1_555
H16 C4 1_555 1_555
C5 Si2 1_555 1_555
H17 C5 1_555 1_555
H18 C5 1_555 1_555
H19 C5 1_555 1_555
C6 Si2 1_555 1_555
H20 C6 1_555 1_555
H21 C6 1_555 1_555
H22 C6 1_555 1_555
C7 Si2 1_555 1_555
H23 C7 1_555 1_555
H24 C7 1_555 1_555
H25 C7 1_555 1_555
C8 P1 1_555 1_555
C9 C8 1_555 1_555
H26 C9 1_555 1_555
C10 C9 1_555 1_555
H27 C10 1_555 1_555
C11 C10 1_555 1_555
H28 C11 1_555 1_555
C12 C11 1_555 1_555
H29 C12 1_555 1_555
C13 C8 1_555 1_555
H30 C13 1_555 1_555
K1 H2 1_555 1_555
O1 K1 1_555 1_555
C14 O1 1_555 1_555
H31 C14 1_555 1_555
H32 C14 1_555 1_555
C15 C14 1_555 1_555
H33 C15 1_555 1_555
H34 C15 1_555 1_555
C16 C15 1_555 1_555
H35 C16 1_555 1_555
H36 C16 1_555 1_555
C17 O1 1_555 1_555
H37 C17 1_555 1_555
H38 C17 1_555 1_555
O2 K1 1_555 1_555
C18 O2 1_555 1_555
H39 C18 1_555 1_555
H40 C18 1_555 1_555
C19 C18 1_555 1_555
H41 C19 1_555 1_555
H42 C19 1_555 1_555
C20 C19 1_555 1_555
H43 C20 1_555 1_555
H44 C20 1_555 1_555
C21 O2 1_555 1_555
H45 C21 1_555 1_555
H46 C21 1_555 1_555
H1C K1 1_555 1_555
H3C K1 1_555 1_555
H4C K1 1_555 1_555
H6C K1 1_555 1_555
K1C H4 1_555 1_555
K1C_2 H1 1_555 1_555
H3 K1C_2 1_555 1_555
H4 K1 1_555 1_555
H6 K1C 1_555 1_555
C12 C13 1_555 1_555
C16 C17 1_555 1_555
C20 C21 1_555 1_555
H1C K1C 1_555 1_555
H4C K1C_2 1_555 1_555

#END
