
#######################################################################
#
#                 Cambridge Crystallographic Data Centre
#                                CCDC 
#
#######################################################################
#
# If this CIF has been generated from an entry in the Cambridge 
# Structural Database, then it will include bibliographic, chemical, 
# crystal, experimental, refinement or atomic coordinate data resulting 
# from the CCDC's data processing and validation procedures.
#
#######################################################################

data_MIDFUB
_symmetry_cell_setting           monoclinic
_symmetry_space_group_name_H-M   'C 2/c'
_symmetry_Int_Tables_number      15
_space_group_name_Hall           '-C 2yn'
loop_
_symmetry_equiv_pos_site_id
_symmetry_equiv_pos_as_xyz
1 x,y,z
2 1/2+x,1/2+y,z
3 -x,y,1/2-z
4 1/2-x,1/2+y,1/2-z
5 -x,-y,-z
6 1/2-x,1/2-y,-z
7 x,-y,1/2+z
8 1/2+x,1/2-y,1/2+z
_cell_length_a                   20.857(4)
_cell_length_b                   11.656(2)
_cell_length_c                   15.530(3)
_cell_angle_alpha                90
_cell_angle_beta                 119.42(3)
_cell_angle_gamma                90
_cell_volume                     3288.61
loop_
_atom_site_label
_atom_site_type_symbol
_atom_site_fract_x
_atom_site_fract_y
_atom_site_fract_z
C1 C 1.0853(4) 0.3522(6) 0.0546(5)
H1 H 1.0602 0.4276 0.0357
H2 H 1.0466 0.2923 0.0296
C2 C 1.1480(4) 0.1950(6) 0.2155(5)
C3 C 1.2157(5) 0.1616(7) 0.2921(6)
H3 H 1.2529 0.2173 0.3269
C4 C 1.2291(5) 0.0482(8) 0.3180(7)
H4 H 1.2754 0.0264 0.3718
C5 C 1.1772(5) -0.0344(8) 0.2678(7)
H5 H 1.1875 -0.1129 0.2858
C6 C 1.1096(5) -0.0014(8) 0.1904(8)
H6 H 1.0731 -0.0579 0.1549
C7 C 1.0945(5) 0.1136(7) 0.1642(6)
H7 H 1.0478 0.1359 0.1114
C8 C 1.1481(4) 0.1845(6) -0.0098(5)
C9 C 1.0935(4) 0.1170(7) -0.0780(6)
H8 H 1.0487 0.1508 -0.1265
C10 C 1.1030(5) -0.0022(8) -0.0770(7)
H9 H 1.065 -0.0492 -0.125
C11 C 1.1682(5) -0.0510(7) -0.0055(7)
H10 H 1.1744 -0.1319 -0.0037
C12 C 1.2241(5) 0.0169(7) 0.0629(7)
H11 H 1.2694 -0.0167 0.1101
C13 C 1.2141(4) 0.1352(6) 0.0627(6)
H12 H 1.2517 0.1821 0.1114
Cu1 Cu 1.05241(5) 0.42088(8) 0.22677(7)
Cu2 Cu 0.94420(5) 0.59027(8) 0.15760(6)
I1 I 0.91617(3) 0.36482(4) 0.09313(3)
I2 I 1.08140(2) 0.64505(4) 0.19927(3)
S1 S 1.13647(10) 0.34358(15) 0.18872(13)
S2 S 1.13947(9) 0.33535(15) -0.00615(12)
Cu1B Cu 0.94759(5) 0.42088(8) 0.27323(7)
Cu2B Cu 1.05580(5) 0.59027(8) 0.34240(6)
Cu2D Cu 1.05580(5) 0.40973(8) -0.15760(6)
I1B I 1.08383(3) 0.36482(4) 0.40687(3)
I2B I 0.91860(2) 0.64505(4) 0.30073(3)
S2D S 0.86053(9) 0.66465(15) 0.00615(12)
loop_
_geom_bond_atom_site_label_1
_geom_bond_atom_site_label_2
_geom_bond_site_symmetry_1
_geom_bond_site_symmetry_2
C1 H1 1_555 1_555
H2 C1 1_555 1_555
C2 C3 1_555 1_555
C3 H3 1_555 1_555
C4 C3 1_555 1_555
H4 C4 1_555 1_555
C5 C4 1_555 1_555
H5 C5 1_555 1_555
C6 C5 1_555 1_555
H6 C6 1_555 1_555
C7 C2 1_555 1_555
H7 C7 1_555 1_555
C8 C9 1_555 1_555
C9 H8 1_555 1_555
C10 C9 1_555 1_555
H9 C10 1_555 1_555
C11 C10 1_555 1_555
H10 C11 1_555 1_555
C12 C11 1_555 1_555
H11 C12 1_555 1_555
C13 C8 1_555 1_555
H12 C13 1_555 1_555
Cu1 I1 1_555 1_555
Cu2 I1 1_555 1_555
I1 Cu1B 1_555 1_555
I2 Cu1 1_555 1_555
S1 C1 1_555 1_555
S2 C1 1_555 1_555
Cu1B I1B 1_555 1_555
Cu2B I2 1_555 1_555
Cu2D S2 1_555 1_555
I1B Cu1 1_555 1_555
I2B Cu2 1_555 1_555
S2D Cu2 1_555 1_555
C2 S1 1_555 1_555
C6 C7 1_555 1_555
C8 S2 1_555 1_555
C12 C13 1_555 1_555
Cu1 S1 1_555 1_555
Cu2 I2 1_555 1_555
Cu1B I2B 1_555 1_555
Cu2B I1B 1_555 1_555
Cu2B I2B 1_555 1_555

#END
