
#######################################################################
#
#                 Cambridge Crystallographic Data Centre
#                                CCDC 
#
#######################################################################
#
# If this CIF has been generated from an entry in the Cambridge 
# Structural Database, then it will include bibliographic, chemical, 
# crystal, experimental, refinement or atomic coordinate data resulting 
# from the CCDC's data processing and validation procedures.
#
#######################################################################

data_MIDHOY
_symmetry_cell_setting           monoclinic
_symmetry_space_group_name_H-M   'C 2/c'
_symmetry_Int_Tables_number      15
_space_group_name_Hall           '-C 2yn'
loop_
_symmetry_equiv_pos_site_id
_symmetry_equiv_pos_as_xyz
1 x,y,z
2 -x,y,1/2-z
3 1/2+x,1/2+y,z
4 1/2-x,1/2+y,1/2-z
5 -x,-y,-z
6 x,-y,1/2+z
7 1/2-x,1/2-y,-z
8 1/2+x,1/2-y,1/2+z
_cell_length_a                   12.486(3)
_cell_length_b                   14.736(3)
_cell_length_c                   12.268(3)
_cell_angle_alpha                90
_cell_angle_beta                 113.494(2)
_cell_angle_gamma                90
_cell_volume                     2070.11
loop_
_atom_site_label
_atom_site_type_symbol
_atom_site_fract_x
_atom_site_fract_y
_atom_site_fract_z
U1 U 0.5000 0.421378(15) 0.2500
Cl1 Cl 0.5000 -0.06026(11) 0.2500
O1 O 0.6216(2) 0.41810(19) 0.2110(2)
O2 O 0.5893(2) 0.53958(19) 0.3765(2)
O3 O 0.7808(3) 0.51150(19) 0.4339(3)
C1 C 0.3599(4) 0.3898(3) -0.0543(4)
H1 H 0.3660 0.4540 -0.0478
N1 N 0.4030(3) 0.3409(2) 0.0451(3)
N2 N 0.5000 0.2444(3) 0.2500
C2 C 0.3067(4) 0.3524(3) -0.1668(4)
H2 H 0.2752 0.3902 -0.2350
C3 C 0.6351(4) 0.7198(3) 0.4531(4)
H3 H 0.5563 0.6996 0.4205
C4 C 0.3002(3) 0.2585(3) -0.1778(4)
H4 H 0.2640 0.2307 -0.2536
C5 C 0.3480(4) 0.2062(3) -0.0753(4)
H5 H 0.3455 0.1418 -0.0802
C6 C 0.3994(3) 0.2490(3) 0.0342(4)
C7 C 0.4531(3) 0.1967(3) 0.1463(4)
C8 C 0.4540(4) 0.1027(3) 0.1437(4)
H6 H 0.4237 0.0707 0.0704
C9 C 0.5000 0.0573(4) 0.2500
C10 C 0.6997(4) 0.5629(3) 0.4224(4)
C11 C 0.7241(4) 0.6603(3) 0.4622(4)
C12 C 0.8396(4) 0.6914(3) 0.5089(4)
H7 H 0.9010 0.6512 0.5144
C1A C 0.6401(4) 0.3898(3) 0.5543(4)
H1A H 0.6340 0.4540 0.5478
N1A N 0.5970(3) 0.3409(2) 0.4549(3)
C2A C 0.6933(4) 0.3524(3) 0.6668(4)
H2A H 0.7248 0.3902 0.7350
C4A C 0.6998(3) 0.2585(3) 0.6778(4)
H4A H 0.7360 0.2307 0.7536
C5A C 0.6520(4) 0.2062(3) 0.5753(4)
H5A H 0.6545 0.1418 0.5802
C6A C 0.6006(3) 0.2490(3) 0.4658(4)
C7A C 0.5469(3) 0.1967(3) 0.3537(4)
C8A C 0.5460(4) 0.1027(3) 0.3563(4)
H6A H 0.5763 0.0707 0.4296
O2F O 0.9107(2) 0.96042(19) 0.6235(2)
O3F O 0.7192(3) 0.98850(19) 0.5661(3)
C3F C 0.8649(4) 0.7802(3) 0.5469(4)
H3F H 0.9437 0.8004 0.5795
C10F C 0.8003(4) 0.9371(3) 0.5776(4)
C11F C 0.7759(4) 0.8397(3) 0.5378(4)
C12F C 0.6604(4) 0.8086(3) 0.4911(4)
H7F H 0.5990 0.8488 0.4856
O1A O 0.3784(2) 0.41810(19) 0.2890(2)
U1F U 1.0000 1.078622(15) 0.7500
O2A O 0.4107(2) 0.53958(19) 0.1235(2)
loop_
_geom_bond_atom_site_label_1
_geom_bond_atom_site_label_2
_geom_bond_site_symmetry_1
_geom_bond_site_symmetry_2
U1 O1 1_555 1_555
Cl1 C9 1_555 1_555
O2 U1 1_555 1_555
O3 C10 1_555 1_555
C1 H1 1_555 1_555
N1 U1 1_555 1_555
N2 U1 1_555 1_555
C2 C1 1_555 1_555
H2 C2 1_555 1_555
C3 H3 1_555 1_555
C4 C2 1_555 1_555
H4 C4 1_555 1_555
C5 C4 1_555 1_555
H5 C5 1_555 1_555
C6 N1 1_555 1_555
C7 N2 1_555 1_555
C8 C7 1_555 1_555
H6 C8 1_555 1_555
C9 C8 1_555 1_555
C10 O2 1_555 1_555
C11 C3 1_555 1_555
C12 C11 1_555 1_555
H7 C12 1_555 1_555
C1A H1A 1_555 1_555
N1A U1 1_555 1_555
C2A C1A 1_555 1_555
H2A C2A 1_555 1_555
C4A C2A 1_555 1_555
H4A C4A 1_555 1_555
C5A C4A 1_555 1_555
H5A C5A 1_555 1_555
C6A N1A 1_555 1_555
C7A N2 1_555 1_555
C8A C9 1_555 1_555
H6A C8A 1_555 1_555
O2F C10F 1_555 1_555
O3F C10F 1_555 1_555
C3F C12 1_555 1_555
H3F C3F 1_555 1_555
C10F C11F 1_555 1_555
C11F C3F 1_555 1_555
C12F C3 1_555 1_555
H7F C12F 1_555 1_555
O1A U1 1_555 1_555
U1F O2F 1_555 1_555
O2A U1 1_555 1_555
C1 N1 1_555 1_555
C5 C6 1_555 1_555
C6 C7 1_555 1_555
C10 C11 1_555 1_555
C1A N1A 1_555 1_555
C5A C6A 1_555 1_555
C6A C7A 1_555 1_555
C7A C8A 1_555 1_555
C11F C12F 1_555 1_555

#END
