
#######################################################################
#
#                 Cambridge Crystallographic Data Centre
#                                CCDC 
#
#######################################################################
#
# If this CIF has been generated from an entry in the Cambridge 
# Structural Database, then it will include bibliographic, chemical, 
# crystal, experimental, refinement or atomic coordinate data resulting 
# from the CCDC's data processing and validation procedures.
#
#######################################################################

data_MIDHUD
_symmetry_cell_setting           triclinic
_symmetry_space_group_name_H-M   'P -1'
_symmetry_Int_Tables_number      2
_space_group_name_Hall           '-P 1'
loop_
_symmetry_equiv_pos_site_id
_symmetry_equiv_pos_as_xyz
1 x,y,z
2 -x,-y,-z
_cell_length_a                   11.9261(9)
_cell_length_b                   15.3021(11)
_cell_length_c                   11.9243(9)
_cell_angle_alpha                105.0440(10)
_cell_angle_beta                 103.3400(10)
_cell_angle_gamma                74.9520(10)
_cell_volume                     1998.1
loop_
_atom_site_label
_atom_site_type_symbol
_atom_site_fract_x
_atom_site_fract_y
_atom_site_fract_z
Ag1 Ag 0.0000 0.5000 0.5000
Ag2 Ag 0.5000 0.0000 0.0000
Ag3 Ag 0.09372(6) 0.24993(4) 0.09360(6)
N1 N 0.0905(6) 0.3696(4) 0.5322(6)
N2 N 0.1545(5) 0.2189(4) 0.5156(6)
N3 N 0.0831(6) -0.0046(4) 0.1598(5)
N4 N 0.0598(6) 0.1354(4) 0.1322(5)
N5 N 0.5318(6) 0.1308(4) 0.0906(6)
N6 N 0.5149(6) 0.2800(4) 0.1538(5)
N7 N 0.1595(5) 0.5055(4) 0.0832(6)
N8 N 0.1324(6) 0.3636(4) 0.0586(6)
C1 C 0.0883(7) 0.2878(6) 0.4638(7)
H1 H 0.0455 0.2784 0.3875
C2 C 0.1642(8) 0.3512(5) 0.6343(7)
H2 H 0.1845 0.3957 0.7005
C3 C 0.2028(7) 0.2586(5) 0.6239(7)
H3 H 0.2530 0.2284 0.6808
C4 C 0.1652(7) 0.1194(5) 0.4674(7)
H4 H 0.0961 0.1092 0.4085
H5 H 0.1679 0.0889 0.5302
C5 C 0.2741(7) 0.0768(5) 0.4123(7)
C6 C 0.3462(8) 0.1289(6) 0.3968(8)
H6 H 0.3291 0.1930 0.4227
C7 C 0.4420(9) 0.0872(8) 0.3439(9)
H7 H 0.4883 0.1232 0.3320
C8 C 0.4707(9) -0.0064(8) 0.3082(9)
H8 H 0.5378 -0.0344 0.2746
C9 C 0.4012(9) -0.0587(6) 0.3218(8)
H9 H 0.4201 -0.1227 0.2958
C10 C 0.3036(7) -0.0193(5) 0.3732(7)
C11 C 0.2289(7) -0.0805(5) 0.3852(8)
C12 C 0.2364(8) -0.1021(5) 0.4907(8)
H10 H 0.2857 -0.0760 0.5562
C13 C 0.1736(10) -0.1611(7) 0.5034(9)
H11 H 0.1820 -0.1757 0.5763
C14 C 0.0976(10) -0.1990(6) 0.4074(12)
H12 H 0.0543 -0.2389 0.4152
C15 C 0.0874(8) -0.1772(5) 0.3022(10)
H13 H 0.0362 -0.2022 0.2375
C16 C 0.1519(8) -0.1180(5) 0.2888(8)
C17 C 0.1390(7) -0.1015(5) 0.1664(7)
H14 H 0.2162 -0.1167 0.1443
H15 H 0.0917 -0.1420 0.1105
C18 C -0.0232(8) 0.0407(6) 0.1831(7)
H16 H -0.0767 0.0172 0.2063
C19 C -0.0384(8) 0.1269(5) 0.1668(7)
H17 H -0.1052 0.1736 0.1773
C20 C 0.1308(7) 0.0542(6) 0.1303(7)
H18 H 0.2056 0.0392 0.1107
C21 C 0.4617(7) 0.2129(5) 0.0877(7)
H19 H 0.3853 0.2224 0.0452
C22 C 0.6343(7) 0.1484(6) 0.1628(8)
H20 H 0.7011 0.1036 0.1811
C23 C 0.6238(8) 0.2409(6) 0.2037(8)
H21 H 0.6800 0.2712 0.2554
C24 C 0.4670(7) 0.3806(5) 0.1660(7)
H22 H 0.4078 0.3914 0.0972
H23 H 0.5299 0.4108 0.1687
C25 C 0.4120(7) 0.4235(5) 0.2764(7)
C26 C 0.3978(8) 0.3698(6) 0.3472(8)
H24 H 0.4246 0.3059 0.3300
C27 C 0.3428(10) 0.4127(7) 0.4444(9)
H25 H 0.3303 0.3770 0.4908
C28 C 0.3068(10) 0.5076(8) 0.4727(8)
H26 H 0.2737 0.5362 0.5399
C29 C 0.3202(8) 0.5592(6) 0.4012(8)
H27 H 0.2927 0.6230 0.4190
C30 C 0.3725(7) 0.5204(5) 0.3044(7)
C31 C 0.3843(8) 0.5793(5) 0.2287(7)
C32 C 0.4907(8) 0.6019(6) 0.2361(8)
H28 H 0.5559 0.5755 0.2855
C33 C 0.5060(10) 0.6608(7) 0.1750(10)
H29 H 0.5794 0.6747 0.1835
C34 C 0.4114(12) 0.6986(7) 0.1013(10)
H30 H 0.4201 0.7383 0.0582
C35 C 0.3013(9) 0.6782(5) 0.0895(8)
H31 H 0.2372 0.7047 0.0391
C36 C 0.2871(8) 0.6183(5) 0.1532(8)
C37 C 0.1642(7) 0.6007(4) 0.1403(7)
H32 H 0.1427 0.6144 0.2176
H33 H 0.1075 0.6418 0.0942
C38 C 0.1837(8) 0.4598(6) -0.0242(7)
H34 H 0.2081 0.4828 -0.0773
C39 C 0.1653(7) 0.3734(5) -0.0390(8)
H35 H 0.1738 0.3271 -0.1065
C40 C 0.1294(7) 0.4453(6) 0.1305(7)
H36 H 0.1089 0.4600 0.2049
Ag2_2 Ag -0.5000 1.0000 1.0000
Ag3A Ag -0.09372(6) 0.75007(4) 0.90640(6)
N1A N -0.0905(6) 0.6304(4) 0.4678(6)
N2A N -0.1545(5) 0.7811(4) 0.4844(6)
N3A N -0.0831(6) 1.0046(4) 0.8402(5)
N4A N -0.0598(6) 0.8646(4) 0.8678(5)
N5A N -0.5318(6) 0.8692(4) 0.9094(6)
N5A_2 N 0.4682(6) -0.1308(4) -0.0906(6)
N6A N -0.5149(6) 0.7200(4) 0.8462(5)
N7A N -0.1595(5) 0.4945(4) 0.9168(6)
N8A N -0.1324(6) 0.6364(4) 0.9414(6)
C1A C -0.0883(7) 0.7122(6) 0.5362(7)
H1A H -0.0455 0.7216 0.6125
C2A C -0.1642(8) 0.6488(5) 0.3657(7)
H2A H -0.1845 0.6043 0.2995
C3A C -0.2028(7) 0.7414(5) 0.3761(7)
H3A H -0.2530 0.7716 0.3192
C4A C -0.1652(7) 0.8806(5) 0.5326(7)
H4A H -0.0961 0.8908 0.5915
H5A H -0.1679 0.9111 0.4698
C5A C -0.2741(7) 0.9232(5) 0.5877(7)
C6A C -0.3462(8) 0.8711(6) 0.6032(8)
H6A H -0.3291 0.8070 0.5773
C7A C -0.4420(9) 0.9128(8) 0.6561(9)
H7A H -0.4883 0.8768 0.6680
C8A C -0.4707(9) 1.0064(8) 0.6918(9)
H8A H -0.5378 1.0344 0.7254
C9A C -0.4012(9) 1.0587(6) 0.6782(8)
H9A H -0.4201 1.1227 0.7042
C10A C -0.3036(7) 1.0193(5) 0.6268(7)
C11A C -0.2289(7) 1.0805(5) 0.6148(8)
C12A C -0.2364(8) 1.1021(5) 0.5093(8)
H10A H -0.2857 1.0760 0.4438
C13A C -0.1736(10) 1.1611(7) 0.4966(9)
H11A H -0.1820 1.1757 0.4237
C14A C -0.0976(10) 1.1990(6) 0.5926(12)
H12A H -0.0543 1.2389 0.5848
C15A C -0.0874(8) 1.1772(5) 0.6978(10)
H13A H -0.0362 1.2022 0.7625
C16A C -0.1519(8) 1.1180(5) 0.7112(8)
C17A C -0.1390(7) 1.1015(5) 0.8336(7)
H14A H -0.2162 1.1167 0.8557
H15A H -0.0917 1.1420 0.8895
C18A C 0.0232(8) 0.9593(6) 0.8169(7)
H16A H 0.0767 0.9828 0.7937
C19A C 0.0384(8) 0.8731(5) 0.8332(7)
H17A H 0.1052 0.8264 0.8227
C20A C -0.1308(7) 0.9458(6) 0.8697(7)
H18A H -0.2056 0.9608 0.8893
C21A C -0.4617(7) 0.7871(5) 0.9123(7)
H19A H -0.3853 0.7776 0.9548
C22A C -0.6343(7) 0.8516(6) 0.8372(8)
H20A H -0.7011 0.8964 0.8189
C23A C -0.6238(8) 0.7591(6) 0.7963(8)
H21A H -0.6800 0.7288 0.7446
C24A C -0.4670(7) 0.6194(5) 0.8340(7)
H22A H -0.4078 0.6086 0.9028
H23A H -0.5299 0.5892 0.8313
C25A C -0.4120(7) 0.5765(5) 0.7236(7)
C26A C -0.3978(8) 0.6302(6) 0.6528(8)
H24A H -0.4246 0.6941 0.6700
C27A C -0.3428(10) 0.5873(7) 0.5556(9)
H25A H -0.3303 0.6230 0.5092
C28A C -0.3068(10) 0.4924(8) 0.5273(8)
H26A H -0.2737 0.4638 0.4601
C29A C -0.3202(8) 0.4408(6) 0.5988(8)
H27A H -0.2927 0.3770 0.5810
C30A C -0.3725(7) 0.4796(5) 0.6956(7)
C31A C -0.3843(8) 0.4207(5) 0.7713(7)
C32A C -0.4907(8) 0.3981(6) 0.7639(8)
H28A H -0.5559 0.4245 0.7145
C33A C -0.5060(10) 0.3392(7) 0.8250(10)
H29A H -0.5794 0.3253 0.8165
C34A C -0.4114(12) 0.3014(7) 0.8987(10)
H30A H -0.4201 0.2617 0.9418
C35A C -0.3013(9) 0.3218(5) 0.9105(8)
H31A H -0.2372 0.2953 0.9609
C36A C -0.2871(8) 0.3817(5) 0.8468(8)
C37A C -0.1642(7) 0.3993(4) 0.8597(7)
H32A H -0.1427 0.3856 0.7824
H33A H -0.1075 0.3582 0.9058
C38A C -0.1837(8) 0.5402(6) 1.0242(7)
H34A H -0.2081 0.5172 1.0773
C39A C -0.1653(7) 0.6266(5) 1.0390(8)
H35A H -0.1738 0.6729 1.1065
C40A C -0.1294(7) 0.5547(6) 0.8695(7)
H36A H -0.1089 0.5400 0.7951
N9 N -0.1562(7) 0.3895(5) 0.2413(8)
O1 O -0.2473(7) 0.4385(5) 0.2183(6)
O2 O -0.1572(6) 0.3420(5) 0.3037(7)
O3 O -0.0657(7) 0.4038(6) 0.2395(8)
N10 N 0.2397(8) 0.1095(5) -0.1566(7)
O4 O 0.2192(7) 0.0604(5) -0.2483(7)
O5 O 0.2998(7) 0.1587(5) -0.1578(6)
O6 O 0.2380(8) 0.0960(6) -0.0655(7)
loop_
_geom_bond_atom_site_label_1
_geom_bond_atom_site_label_2
_geom_bond_site_symmetry_1
_geom_bond_site_symmetry_2
Ag1 N1 1_555 1_555
Ag2 N5 1_555 1_555
Ag3 N4 1_555 1_555
N1 C1 1_555 1_555
N2 C1 1_555 1_555
N3 C17 1_555 1_555
N4 C19 1_555 1_555
N5 C21 1_555 1_555
N6 C21 1_555 1_555
N7 C37 1_555 1_555
N8 Ag3 1_555 1_555
C1 H1 1_555 1_555
C2 N1 1_555 1_555
H2 C2 1_555 1_555
C3 N2 1_555 1_555
H3 C3 1_555 1_555
C4 N2 1_555 1_555
H4 C4 1_555 1_555
H5 C4 1_555 1_555
C5 C4 1_555 1_555
C6 C5 1_555 1_555
H6 C6 1_555 1_555
C7 C6 1_555 1_555
H7 C7 1_555 1_555
C8 C7 1_555 1_555
H8 C8 1_555 1_555
C9 C8 1_555 1_555
H9 C9 1_555 1_555
C10 C5 1_555 1_555
C11 C10 1_555 1_555
C12 C11 1_555 1_555
H10 C12 1_555 1_555
C13 C12 1_555 1_555
H11 C13 1_555 1_555
C14 C13 1_555 1_555
H12 C14 1_555 1_555
C15 C14 1_555 1_555
H13 C15 1_555 1_555
C16 C11 1_555 1_555
C17 C16 1_555 1_555
H14 C17 1_555 1_555
H15 C17 1_555 1_555
C18 N3 1_555 1_555
H16 C18 1_555 1_555
C19 C18 1_555 1_555
H17 C19 1_555 1_555
C20 N3 1_555 1_555
H18 C20 1_555 1_555
C21 H19 1_555 1_555
C22 N5 1_555 1_555
H20 C22 1_555 1_555
C23 N6 1_555 1_555
H21 C23 1_555 1_555
C24 N6 1_555 1_555
H22 C24 1_555 1_555
H23 C24 1_555 1_555
C25 C24 1_555 1_555
C26 C25 1_555 1_555
H24 C26 1_555 1_555
C27 C26 1_555 1_555
H25 C27 1_555 1_555
C28 C27 1_555 1_555
H26 C28 1_555 1_555
C29 C28 1_555 1_555
H27 C29 1_555 1_555
C30 C25 1_555 1_555
C31 C30 1_555 1_555
C32 C31 1_555 1_555
H28 C32 1_555 1_555
C33 C32 1_555 1_555
H29 C33 1_555 1_555
C34 C33 1_555 1_555
H30 C34 1_555 1_555
C35 C34 1_555 1_555
H31 C35 1_555 1_555
C36 C31 1_555 1_555
C37 C36 1_555 1_555
H32 C37 1_555 1_555
H33 C37 1_555 1_555
C38 N7 1_555 1_555
H34 C38 1_555 1_555
C39 N8 1_555 1_555
H35 C39 1_555 1_555
C40 N7 1_555 1_555
H36 C40 1_555 1_555
N9 O1 1_555 1_555
O2 N9 1_555 1_555
O3 N9 1_555 1_555
N10 O4 1_555 1_555
O5 N10 1_555 1_555
O6 N10 1_555 1_555
Ag2_2 N5A 1_555 1_555
Ag3A N4A 1_555 1_555
N1A Ag1 1_555 1_555
N2A C1A 1_555 1_555
N3A C17A 1_555 1_555
N4A C19A 1_555 1_555
N5A C21A 1_555 1_555
N5A_2 Ag2 1_555 1_555
N6A C21A 1_555 1_555
N7A C37A 1_555 1_555
N8A Ag3A 1_555 1_555
C1A N1A 1_555 1_555
H1A C1A 1_555 1_555
C2A N1A 1_555 1_555
H2A C2A 1_555 1_555
C3A N2A 1_555 1_555
H3A C3A 1_555 1_555
C4A N2A 1_555 1_555
H4A C4A 1_555 1_555
H5A C4A 1_555 1_555
C5A C4A 1_555 1_555
C6A C5A 1_555 1_555
H6A C6A 1_555 1_555
C7A C6A 1_555 1_555
H7A C7A 1_555 1_555
C8A C7A 1_555 1_555
H8A C8A 1_555 1_555
C9A C8A 1_555 1_555
H9A C9A 1_555 1_555
C10A C5A 1_555 1_555
C11A C10A 1_555 1_555
C12A C11A 1_555 1_555
H10A C12A 1_555 1_555
C13A C12A 1_555 1_555
H11A C13A 1_555 1_555
C14A C13A 1_555 1_555
H12A C14A 1_555 1_555
C15A C14A 1_555 1_555
H13A C15A 1_555 1_555
C16A C11A 1_555 1_555
C17A C16A 1_555 1_555
H14A C17A 1_555 1_555
H15A C17A 1_555 1_555
C18A N3A 1_555 1_555
H16A C18A 1_555 1_555
C19A C18A 1_555 1_555
H17A C19A 1_555 1_555
C20A N3A 1_555 1_555
H18A C20A 1_555 1_555
C21A H19A 1_555 1_555
C22A N5A 1_555 1_555
H20A C22A 1_555 1_555
C23A N6A 1_555 1_555
H21A C23A 1_555 1_555
C24A N6A 1_555 1_555
H22A C24A 1_555 1_555
H23A C24A 1_555 1_555
C25A C24A 1_555 1_555
C26A C25A 1_555 1_555
H24A C26A 1_555 1_555
C27A C26A 1_555 1_555
H25A C27A 1_555 1_555
C28A C27A 1_555 1_555
H26A C28A 1_555 1_555
C29A C28A 1_555 1_555
H27A C29A 1_555 1_555
C30A C25A 1_555 1_555
C31A C30A 1_555 1_555
C32A C31A 1_555 1_555
H28A C32A 1_555 1_555
C33A C32A 1_555 1_555
H29A C33A 1_555 1_555
C34A C33A 1_555 1_555
H30A C34A 1_555 1_555
C35A C34A 1_555 1_555
H31A C35A 1_555 1_555
C36A C31A 1_555 1_555
C37A C36A 1_555 1_555
H32A C37A 1_555 1_555
H33A C37A 1_555 1_555
C38A N7A 1_555 1_555
H34A C38A 1_555 1_555
C39A N8A 1_555 1_555
H35A C39A 1_555 1_555
C40A N7A 1_555 1_555
H36A C40A 1_555 1_555
N4 C20 1_555 1_555
N8 C40 1_555 1_555
C2 C3 1_555 1_555
C9 C10 1_555 1_555
C15 C16 1_555 1_555
C22 C23 1_555 1_555
C29 C30 1_555 1_555
C35 C36 1_555 1_555
C38 C39 1_555 1_555
N4A C20A 1_555 1_555
N8A C40A 1_555 1_555
C2A C3A 1_555 1_555
C9A C10A 1_555 1_555
C15A C16A 1_555 1_555
C22A C23A 1_555 1_555
C29A C30A 1_555 1_555
C35A C36A 1_555 1_555
C38A C39A 1_555 1_555

#END
