
#######################################################################
#
#                 Cambridge Crystallographic Data Centre
#                                CCDC 
#
#######################################################################
#
# If this CIF has been generated from an entry in the Cambridge 
# Structural Database, then it will include bibliographic, chemical, 
# crystal, experimental, refinement or atomic coordinate data resulting 
# from the CCDC's data processing and validation procedures.
#
#######################################################################

data_MIDJUF
_symmetry_cell_setting           orthorhombic
_symmetry_space_group_name_H-M   'P b c n'
_symmetry_Int_Tables_number      60
_space_group_name_Hall           '-P 2n 2ab'
loop_
_symmetry_equiv_pos_site_id
_symmetry_equiv_pos_as_xyz
1 x,y,z
2 1/2-x,1/2-y,1/2+z
3 -x,y,1/2-z
4 1/2+x,1/2-y,-z
5 -x,-y,-z
6 1/2+x,1/2+y,1/2-z
7 x,-y,1/2+z
8 1/2-x,1/2+y,z
_cell_length_a                   12.0367(3)
_cell_length_b                   10.7865(3)
_cell_length_c                   18.2827(6)
_cell_angle_alpha                90
_cell_angle_beta                 90
_cell_angle_gamma                90
_cell_volume                     2373.71
loop_
_atom_site_label
_atom_site_type_symbol
_atom_site_fract_x
_atom_site_fract_y
_atom_site_fract_z
Mn1 Mn 0.5000 0.17875(3) 0.2500
C1 C 0.4500(2) -0.0440(2) 0.37283(12)
H1 H 0.3788 -0.0105 0.3733
C2 C 0.4691(2) -0.1512(3) 0.41153(17)
H2 H 0.4125 -0.1884 0.4384
C3 C 0.5742(3) -0.2022(3) 0.40964(17)
H3 H 0.5892 -0.2753 0.4348
C4 C 0.6566(2) -0.1441(2) 0.37028(14)
H4 H 0.7276 -0.1779 0.3677
C5 C 0.63174(16) -0.03432(18) 0.33451(11)
C6 C 0.71388(15) 0.03368(17) 0.29083(10)
C7 C 0.82624(17) 0.0141(2) 0.27709(13)
H5 H 0.8718 -0.0469 0.2969
C8 C 0.85483(17) 0.1042(2) 0.22821(12)
H6 H 0.9246 0.1153 0.2074
C9 C 0.58932(16) 0.35136(17) 0.11856(10)
C10 C 0.54255(16) 0.42931(17) 0.05747(10)
C11 C 0.43270(16) 0.41835(17) 0.03682(10)
H7 H 0.3869 0.3630 0.0615
C12 C 0.61043(16) 0.51215(18) 0.01976(11)
H8 H 0.6848 0.5206 0.0327
N1 N 0.76491(13) 0.17361(15) 0.21543(9)
H9 H 0.7634 0.2366 0.1866
N2 N 0.67771(13) 0.13222(15) 0.25340(8)
N3 N 0.52890(13) 0.01418(16) 0.33464(10)
O1 O 0.52027(11) 0.30666(12) 0.16335(8)
O2 O 0.69227(12) 0.33750(15) 0.11993(9)
Mn1F Mn 0.5000 0.82125(3) -0.2500
C1B C 0.5500(2) -0.0440(2) 0.12717(12)
H1B H 0.6212 -0.0105 0.1267
C2B C 0.5309(2) -0.1512(3) 0.08847(17)
H2B H 0.5875 -0.1884 0.0616
C3B C 0.4258(3) -0.2022(3) 0.09036(17)
H3B H 0.4108 -0.2753 0.0652
C4B C 0.3434(2) -0.1441(2) 0.12972(14)
H4B H 0.2724 -0.1779 0.1323
C5B C 0.36826(16) -0.03432(18) 0.16549(11)
C6B C 0.28612(15) 0.03368(17) 0.20917(10)
C7B C 0.17376(17) 0.0141(2) 0.22291(13)
H5B H 0.1282 -0.0469 0.2031
C8B C 0.14517(17) 0.1042(2) 0.27179(12)
H6B H 0.0754 0.1153 0.2926
C9D C 0.41068(16) 0.64864(17) -0.11856(10)
C10D C 0.45745(16) 0.57069(17) -0.05747(10)
C11D C 0.56730(16) 0.58165(17) -0.03682(10)
H7D H 0.6131 0.6370 -0.0615
C12D C 0.38957(16) 0.48785(18) -0.01976(11)
H8D H 0.3152 0.4794 -0.0327
N1B N 0.23509(13) 0.17361(15) 0.28457(9)
H9B H 0.2366 0.2366 0.3134
N2B N 0.32229(13) 0.13222(15) 0.24660(8)
N3B N 0.47110(13) 0.01418(16) 0.16536(10)
O1D O 0.47973(11) 0.69334(12) -0.16335(8)
O1B O 0.47973(11) 0.30666(12) 0.33665(8)
O2D O 0.30773(12) 0.66250(15) -0.11993(9)
loop_
_geom_bond_atom_site_label_1
_geom_bond_atom_site_label_2
_geom_bond_site_symmetry_1
_geom_bond_site_symmetry_2
Mn1 N2 1_555 1_555
C1 H1 1_555 1_555
C2 C1 1_555 1_555
H2 C2 1_555 1_555
C3 C2 1_555 1_555
H3 C3 1_555 1_555
C4 C3 1_555 1_555
H4 C4 1_555 1_555
C5 C4 1_555 1_555
C6 C5 1_555 1_555
C7 C6 1_555 1_555
H5 C7 1_555 1_555
C8 C7 1_555 1_555
H6 C8 1_555 1_555
C9 C10 1_555 1_555
C10 C11 1_555 1_555
C11 H7 1_555 1_555
C12 C10 1_555 1_555
H8 C12 1_555 1_555
N1 C8 1_555 1_555
H9 N1 1_555 1_555
N2 C6 1_555 1_555
N3 Mn1 1_555 1_555
O1 Mn1 1_555 1_555
O2 C9 1_555 1_555
Mn1F O1D 1_555 1_555
C1B H1B 1_555 1_555
C2B C1B 1_555 1_555
H2B C2B 1_555 1_555
C3B C2B 1_555 1_555
H3B C3B 1_555 1_555
C4B C3B 1_555 1_555
H4B C4B 1_555 1_555
C5B C4B 1_555 1_555
C6B C5B 1_555 1_555
C7B C6B 1_555 1_555
H5B C7B 1_555 1_555
C8B C7B 1_555 1_555
H6B C8B 1_555 1_555
C9D C10D 1_555 1_555
C10D C11D 1_555 1_555
C11D C12 1_555 1_555
H7D C11D 1_555 1_555
C12D C11 1_555 1_555
H8D C12D 1_555 1_555
N1B C8B 1_555 1_555
H9B N1B 1_555 1_555
N2B Mn1 1_555 1_555
N3B Mn1 1_555 1_555
O1D C9D 1_555 1_555
O1B Mn1 1_555 1_555
O2D C9D 1_555 1_555
C1 N3 1_555 1_555
C5 N3 1_555 1_555
C9 O1 1_555 1_555
N1 N2 1_555 1_555
C1B N3B 1_555 1_555
C5B N3B 1_555 1_555
C6B N2B 1_555 1_555
C10D C12D 1_555 1_555
N1B N2B 1_555 1_555

#END
