
#######################################################################
#
#                 Cambridge Crystallographic Data Centre
#                                CCDC 
#
#######################################################################
#
# If this CIF has been generated from an entry in the Cambridge 
# Structural Database, then it will include bibliographic, chemical, 
# crystal, experimental, refinement or atomic coordinate data resulting 
# from the CCDC's data processing and validation procedures.
#
#######################################################################

data_MIDJAM
_symmetry_cell_setting           monoclinic
_symmetry_space_group_name_H-M   'P 21/c'
_symmetry_Int_Tables_number      14
_space_group_name_Hall           '-P 2ybc'
loop_
_symmetry_equiv_pos_site_id
_symmetry_equiv_pos_as_xyz
1 x,y,z
2 -x,1/2+y,1/2-z
3 -x,-y,-z
4 x,1/2-y,1/2+z
_cell_length_a                   10.6869(13)
_cell_length_b                   8.3588(9)
_cell_length_c                   26.656(4)
_cell_angle_alpha                90
_cell_angle_beta                 92.075(4)
_cell_angle_gamma                90
_cell_volume                     2379.61
loop_
_atom_site_label
_atom_site_type_symbol
_atom_site_fract_x
_atom_site_fract_y
_atom_site_fract_z
U1 U 0.73438(3) 0.30107(4) 0.602934(12)
Cl1 Cl 0.6722(3) 0.4654(4) 0.34596(11)
O1 O 0.6411(6) 0.4391(8) 0.6349(3)
O2 O 0.8191(6) 0.1657(8) 0.5666(3)
O3 O 1.3179(6) 0.6023(9) 0.8445(3)
O4 O 0.9029(6) 0.3329(8) 0.6589(3)
O5 O 1.0664(7) 0.2306(11) 0.6202(3)
O6 O 1.3747(8) 0.3554(9) 0.8637(3)
N1 N 0.6843(6) 0.4060(8) 0.5126(3)
N2 N 0.8485(7) 0.5565(9) 0.5737(3)
N3 N 0.5259(7) 0.2148(8) 0.5607(3)
C1 C 0.5955(7) 0.3317(10) 0.4836(3)
C2 C 0.5030(8) 0.2334(10) 0.5108(4)
C3 C 0.4424(9) 0.1380(12) 0.5876(3)
H1 H 0.4552 0.1326 0.6223
C4 C 0.3379(8) 0.0663(12) 0.5660(4)
H2 H 0.2823 0.0108 0.5856
C5 C 0.3164(8) 0.0777(11) 0.5146(4)
H3 H 0.2469 0.0288 0.4992
C6 C 0.3998(8) 0.1630(10) 0.4865(4)
H4 H 0.3870 0.1731 0.4520
C7 C 0.5869(8) 0.3504(11) 0.4314(3)
H5 H 0.5234 0.3014 0.4121
C8 C 0.6750(9) 0.4429(12) 0.4098(3)
C9 C 0.7644(9) 0.5227(12) 0.4387(4)
H6 H 0.8223 0.5888 0.4237
C10 C 0.7666(8) 0.5030(11) 0.4901(3)
C11 C 0.8540(8) 0.5895(10) 0.5242(3)
C12 C 0.9108(10) 0.6498(13) 0.6073(4)
H7 H 0.9027 0.6293 0.6413
C13 C 0.9867(11) 0.7755(13) 0.5932(5)
H8 H 1.0269 0.8403 0.6171
C14 C 1.0004(10) 0.8011(12) 0.5429(5)
H9 H 1.0543 0.8808 0.5325
C15 C 0.9352(9) 0.7101(11) 0.5075(4)
H10 H 0.9445 0.7279 0.4734
C16 C 1.0173(9) 0.2857(12) 0.6571(4)
C17 C 1.0933(8) 0.3113(11) 0.7062(3)
C18 C 1.1976(8) 0.2123(11) 0.7202(3)
C19 C 1.2244(10) 0.0667(13) 0.6955(4)
H11 H 1.1717 0.0329 0.6691
C20 C 1.3242(11) -0.0243(14) 0.7093(4)
H12 H 1.3392 -0.1186 0.6920
C21 C 1.4057(11) 0.0212(14) 0.7494(4)
H13 H 1.4758 -0.0401 0.7581
C22 C 1.3799(9) 0.1564(13) 0.7753(4)
H14 H 1.4320 0.1852 0.8024
C23 C 1.2752(8) 0.2560(11) 0.7620(3)
C24 C 1.2460(8) 0.3995(12) 0.7896(3)
C25 C 1.1457(9) 0.4883(13) 0.7738(4)
H15 H 1.1287 0.5828 0.7907
C26 C 1.0673(9) 0.4434(14) 0.7333(4)
H16 H 0.9969 0.5043 0.7249
C27 C 1.3204(9) 0.4503(13) 0.8352(3)
U1A U 1.26562(3) 0.80107(4) 0.897066(12)
O3A O 0.6821(6) 0.1023(9) 0.6555(3)
loop_
_geom_bond_atom_site_label_1
_geom_bond_atom_site_label_2
_geom_bond_site_symmetry_1
_geom_bond_site_symmetry_2
U1 O1 1_555 1_555
Cl1 C8 1_555 1_555
O2 U1 1_555 1_555
O3 C27 1_555 1_555
O4 U1 1_555 1_555
O5 C16 1_555 1_555
O6 C27 1_555 1_555
N1 U1 1_555 1_555
N2 U1 1_555 1_555
N3 U1 1_555 1_555
C1 N1 1_555 1_555
C2 N3 1_555 1_555
C3 N3 1_555 1_555
H1 C3 1_555 1_555
C4 C3 1_555 1_555
H2 C4 1_555 1_555
C5 C4 1_555 1_555
H3 C5 1_555 1_555
C6 C2 1_555 1_555
H4 C6 1_555 1_555
C7 C1 1_555 1_555
H5 C7 1_555 1_555
C8 C7 1_555 1_555
C9 C8 1_555 1_555
H6 C9 1_555 1_555
C10 N1 1_555 1_555
C11 N2 1_555 1_555
C12 N2 1_555 1_555
H7 C12 1_555 1_555
C13 C12 1_555 1_555
H8 C13 1_555 1_555
C14 C13 1_555 1_555
H9 C14 1_555 1_555
C15 C11 1_555 1_555
H10 C15 1_555 1_555
C16 O4 1_555 1_555
C17 C16 1_555 1_555
C18 C17 1_555 1_555
C19 C18 1_555 1_555
H11 C19 1_555 1_555
C20 C19 1_555 1_555
H12 C20 1_555 1_555
C21 C20 1_555 1_555
H13 C21 1_555 1_555
C22 C21 1_555 1_555
H14 C22 1_555 1_555
C23 C18 1_555 1_555
C24 C23 1_555 1_555
C25 C24 1_555 1_555
H15 C25 1_555 1_555
C26 C17 1_555 1_555
H16 C26 1_555 1_555
C27 C24 1_555 1_555
U1A O3 1_555 1_555
O3A U1 1_555 1_555
C1 C2 1_555 1_555
C5 C6 1_555 1_555
C9 C10 1_555 1_555
C10 C11 1_555 1_555
C14 C15 1_555 1_555
C22 C23 1_555 1_555
C25 C26 1_555 1_555

#END
