
#######################################################################
#
#                 Cambridge Crystallographic Data Centre
#                                CCDC 
#
#######################################################################
#
# If this CIF has been generated from an entry in the Cambridge 
# Structural Database, then it will include bibliographic, chemical, 
# crystal, experimental, refinement or atomic coordinate data resulting 
# from the CCDC's data processing and validation procedures.
#
#######################################################################

data_MIDKIU
_symmetry_cell_setting           orthorhombic
_symmetry_space_group_name_H-M   'P b c n'
_symmetry_Int_Tables_number      60
_space_group_name_Hall           '-P 2n 2ab'
loop_
_symmetry_equiv_pos_site_id
_symmetry_equiv_pos_as_xyz
1 x,y,z
2 1/2-x,1/2-y,1/2+z
3 -x,y,1/2-z
4 1/2+x,1/2-y,-z
5 -x,-y,-z
6 1/2+x,1/2+y,1/2-z
7 x,-y,1/2+z
8 1/2-x,1/2+y,z
_cell_length_a                   12.026(2)
_cell_length_b                   10.4567(18)
_cell_length_c                   16.146(3)
_cell_angle_alpha                90
_cell_angle_beta                 90
_cell_angle_gamma                90
_cell_volume                     2030.4
loop_
_atom_site_label
_atom_site_type_symbol
_atom_site_fract_x
_atom_site_fract_y
_atom_site_fract_z
Mn1 Mn 0.0000 0.21203(4) 0.2500
C1 C -0.3547(2) 0.1666(3) 0.29873(19)
H1 H -0.4219 0.1873 0.3239
C2 C -0.3386(2) 0.0736(2) 0.24178(18)
H2 H -0.3916 0.0180 0.2202
C3 C -0.2267(2) 0.0786(2) 0.22258(15)
C4 C -0.1565(2) 0.0015(2) 0.16717(15)
C5 C -0.1973(2) -0.1045(2) 0.12528(17)
H3 H -0.2711 -0.1295 0.1311
C6 C -0.1257(3) -0.1715(3) 0.07489(19)
H4 H -0.1508 -0.2430 0.0462
C7 C -0.0181(3) -0.1327(3) 0.06719(18)
H5 H 0.0305 -0.1762 0.0323
C8 C 0.0179(2) -0.0279(3) 0.11193(17)
H6 H 0.0920 -0.0033 0.1077
C9 C 0.0463(2) 0.3930(2) 0.09315(16)
C10 C -0.0197(2) 0.4718(3) 0.03227(16)
H7 H -0.0955 0.4803 0.0422
N1 N -0.17659(16) 0.17116(18) 0.26574(12)
N2 N -0.25645(17) 0.22395(19) 0.31246(13)
H8 H -0.2462 0.2860 0.3466
N3 N -0.04948(18) 0.03962(19) 0.16100(12)
O1 O -0.00839(15) 0.34507(16) 0.15047(10)
O2 O 0.14877(16) 0.38112(17) 0.08120(11)
Mn1F Mn 0.0000 0.78797(4) -0.2500
C1B C 0.3547(2) 0.1666(3) 0.20127(19)
H1B H 0.4219 0.1873 0.1761
C2B C 0.3386(2) 0.0736(2) 0.25822(18)
H2B H 0.3916 0.0180 0.2798
C3B C 0.2267(2) 0.0786(2) 0.27742(15)
C4B C 0.1565(2) 0.0015(2) 0.33283(15)
C5B C 0.1973(2) -0.1045(2) 0.37472(17)
H3B H 0.2711 -0.1295 0.3689
C6B C 0.1257(3) -0.1715(3) 0.42511(19)
H4B H 0.1508 -0.2430 0.4538
C7B C 0.0181(3) -0.1327(3) 0.43281(18)
H5B H -0.0305 -0.1762 0.4677
C8B C -0.0179(2) -0.0279(3) 0.38807(17)
H6B H -0.0920 -0.0033 0.3923
C9D C -0.0463(2) 0.6070(2) -0.09315(16)
C10D C 0.0197(2) 0.5282(3) -0.03227(16)
H7D H 0.0955 0.5197 -0.0422
N1B N 0.17659(16) 0.17116(18) 0.23426(12)
N2B N 0.25645(17) 0.22395(19) 0.18754(13)
H8B H 0.2462 0.2860 0.1534
N3B N 0.04948(18) 0.03962(19) 0.33900(12)
O1D O 0.00839(15) 0.65493(16) -0.15047(10)
O1B O 0.00839(15) 0.34507(16) 0.34953(10)
O2D O -0.14877(16) 0.61888(17) -0.08120(11)
loop_
_geom_bond_atom_site_label_1
_geom_bond_atom_site_label_2
_geom_bond_site_symmetry_1
_geom_bond_site_symmetry_2
Mn1 N1 1_555 1_555
C1 H1 1_555 1_555
C2 C1 1_555 1_555
H2 C2 1_555 1_555
C3 C2 1_555 1_555
C4 C3 1_555 1_555
C5 C4 1_555 1_555
H3 C5 1_555 1_555
C6 C5 1_555 1_555
H4 C6 1_555 1_555
C7 C6 1_555 1_555
H5 C7 1_555 1_555
C8 C7 1_555 1_555
H6 C8 1_555 1_555
C9 C10 1_555 1_555
C10 H7 1_555 1_555
N1 C3 1_555 1_555
N2 C1 1_555 1_555
H8 N2 1_555 1_555
N3 Mn1 1_555 1_555
O1 Mn1 1_555 1_555
O2 C9 1_555 1_555
Mn1F O1D 1_555 1_555
C1B H1B 1_555 1_555
C2B C1B 1_555 1_555
H2B C2B 1_555 1_555
C3B C2B 1_555 1_555
C4B C3B 1_555 1_555
C5B C4B 1_555 1_555
H3B C5B 1_555 1_555
C6B C5B 1_555 1_555
H4B C6B 1_555 1_555
C7B C6B 1_555 1_555
H5B C7B 1_555 1_555
C8B C7B 1_555 1_555
H6B C8B 1_555 1_555
C9D C10D 1_555 1_555
C10D C10 1_555 1_555
H7D C10D 1_555 1_555
N1B Mn1 1_555 1_555
N2B C1B 1_555 1_555
H8B N2B 1_555 1_555
N3B Mn1 1_555 1_555
O1D C9D 1_555 1_555
O1B Mn1 1_555 1_555
O2D C9D 1_555 1_555
C4 N3 1_555 1_555
C8 N3 1_555 1_555
C9 O1 1_555 1_555
N1 N2 1_555 1_555
C3B N1B 1_555 1_555
C4B N3B 1_555 1_555
C8B N3B 1_555 1_555
N1B N2B 1_555 1_555

#END
