
#######################################################################
#
#                 Cambridge Crystallographic Data Centre
#                                CCDC 
#
#######################################################################
#
# If this CIF has been generated from an entry in the Cambridge 
# Structural Database, then it will include bibliographic, chemical, 
# crystal, experimental, refinement or atomic coordinate data resulting 
# from the CCDC's data processing and validation procedures.
#
#######################################################################

data_MIDQIA
_symmetry_cell_setting           monoclinic
_symmetry_space_group_name_H-M   'P 21/n'
_symmetry_Int_Tables_number      14
_space_group_name_Hall           '-P 2yn'
loop_
_symmetry_equiv_pos_site_id
_symmetry_equiv_pos_as_xyz
1 x,y,z
2 1/2-x,1/2+y,1/2-z
3 -x,-y,-z
4 1/2+x,1/2-y,1/2+z
_cell_length_a                   13.6343(6)
_cell_length_b                   11.9334(5)
_cell_length_c                   13.7862(6)
_cell_angle_alpha                90
_cell_angle_beta                 112.796(1)
_cell_angle_gamma                90
_cell_volume                     2067.86
loop_
_atom_site_label
_atom_site_type_symbol
_atom_site_fract_x
_atom_site_fract_y
_atom_site_fract_z
Cu1 Cu 0.928090(14) 0.103625(15) 0.603311(14)
N1 N 0.79821(11) 0.07686(12) 0.67068(11)
N2 N 0.54844(13) -0.36230(15) 0.50172(15)
S1 S 0.49710(3) -0.01925(3) 0.71991(4)
S2 S 0.83233(3) -0.26764(3) 0.41832(3)
C1 C 0.62074(16) -0.04964(15) 0.95455(15)
H1 H 0.6505 -0.0673 1.0299
H2 H 0.5617 0.0033 0.9394
H3 H 0.6760 -0.0159 0.9349
C2 C 0.58096(12) -0.15518(13) 0.89246(13)
C3 C 0.51896(12) -0.15121(13) 0.78295(13)
C4 C 0.46108(12) -0.24573(13) 0.72614(13)
C5 C 0.38102(14) -0.23483(15) 0.61500(14)
H4 H 0.3783 -0.3049 0.5770
H5 H 0.4018 -0.1733 0.5799
H6 H 0.3107 -0.2191 0.6157
C6 C 0.61659(12) 0.01340(13) 0.70578(12)
C7 C 0.70752(13) -0.05291(14) 0.74053(13)
H7 H 0.7094 -0.1212 0.7766
C8 C 0.79523(13) -0.01770(14) 0.72158(13)
H8 H 0.8571 -0.0635 0.7462
C9 C 0.71134(13) 0.14180(14) 0.64095(13)
H9 H 0.7125 0.2106 0.6068
C10 C 0.62036(13) 0.11496(14) 0.65685(13)
H10 H 0.5613 0.1646 0.6349
C11 C 1.00496(16) -0.24042(14) 0.63943(14)
H11 H 1.0539 -0.2231 0.7114
H12 H 1.0446 -0.2744 0.6009
H13 H 0.9505 -0.2929 0.6413
C12 C 0.95256(12) -0.13427(13) 0.58507(13)
C13 C 0.87537(12) -0.13687(13) 0.48074(13)
C14 C 0.82934(11) -0.03862(13) 0.42246(12)
C15 C 0.75960(13) -0.04585(15) 0.30718(13)
H14 H 0.7361 0.0295 0.2797
H15 H 0.6974 -0.0926 0.2977
H16 H 0.7999 -0.0792 0.2691
C16 C 0.72228(12) -0.29947(13) 0.45136(13)
C17 C 0.69604(15) -0.23999(16) 0.52402(16)
H17 H 0.7366 -0.1765 0.5586
C18 C 0.60977(18) -0.27458(19) 0.54550(19)
H18 H 0.5930 -0.2324 0.5955
C19 C 0.57480(14) -0.41916(15) 0.43193(15)
H19 H 0.5331 -0.4828 0.3995
C20 C 0.65862(13) -0.39164(14) 0.40366(14)
H20 H 0.6727 -0.4347 0.3526
O1 O 0.60775(9) -0.24459(9) 0.94557(9)
O2 O 0.46810(8) -0.34301(9) 0.76455(9)
O3 O 0.98377(8) -0.04584(9) 0.63939(8)
O4 O 0.84461(9) 0.05929(9) 0.46055(9)
Cu1A Cu 0.571910(14) -0.396375(15) 0.896689(14)
O1A O 0.89225(9) 0.25541(9) 0.55443(9)
O2A O 1.03190(8) 0.15699(9) 0.73545(9)
loop_
_geom_bond_atom_site_label_1
_geom_bond_atom_site_label_2
_geom_bond_site_symmetry_1
_geom_bond_site_symmetry_2
Cu1 N1 1_555 1_555
N1 C8 1_555 1_555
N2 C18 1_555 1_555
S1 C3 1_555 1_555
S2 C13 1_555 1_555
C1 H1 1_555 1_555
H2 C1 1_555 1_555
H3 C1 1_555 1_555
C2 C1 1_555 1_555
C3 C2 1_555 1_555
C4 C3 1_555 1_555
C5 C4 1_555 1_555
H4 C5 1_555 1_555
H5 C5 1_555 1_555
H6 C5 1_555 1_555
C6 S1 1_555 1_555
C7 C6 1_555 1_555
H7 C7 1_555 1_555
C8 C7 1_555 1_555
H8 C8 1_555 1_555
C9 N1 1_555 1_555
H9 C9 1_555 1_555
C10 C6 1_555 1_555
H10 C10 1_555 1_555
C11 H11 1_555 1_555
H12 C11 1_555 1_555
H13 C11 1_555 1_555
C12 C11 1_555 1_555
C13 C12 1_555 1_555
C14 C13 1_555 1_555
C15 C14 1_555 1_555
H14 C15 1_555 1_555
H15 C15 1_555 1_555
H16 C15 1_555 1_555
C16 S2 1_555 1_555
C17 C16 1_555 1_555
H17 C17 1_555 1_555
C18 C17 1_555 1_555
H18 C18 1_555 1_555
C19 N2 1_555 1_555
H19 C19 1_555 1_555
C20 C16 1_555 1_555
H20 C20 1_555 1_555
O1 C2 1_555 1_555
O2 C4 1_555 1_555
O3 Cu1 1_555 1_555
O4 Cu1 1_555 1_555
Cu1A O1 1_555 1_555
O1A Cu1 1_555 1_555
O2A Cu1 1_555 1_555
C9 C10 1_555 1_555
C12 O3 1_555 1_555
C14 O4 1_555 1_555
C19 C20 1_555 1_555
O2 Cu1A 1_555 1_555

#END
