
#######################################################################
#
#                 Cambridge Crystallographic Data Centre
#                                CCDC 
#
#######################################################################
#
# If this CIF has been generated from an entry in the Cambridge 
# Structural Database, then it will include bibliographic, chemical, 
# crystal, experimental, refinement or atomic coordinate data resulting 
# from the CCDC's data processing and validation procedures.
#
#######################################################################

data_MIDVOK
_symmetry_cell_setting           triclinic
_symmetry_space_group_name_H-M   'P -1'
_symmetry_Int_Tables_number      2
_space_group_name_Hall           '-P 1'
loop_
_symmetry_equiv_pos_site_id
_symmetry_equiv_pos_as_xyz
1 x,y,z
2 -x,-y,-z
_cell_length_a                   7.6766(8)
_cell_length_b                   9.1318(10)
_cell_length_c                   13.8112(15)
_cell_angle_alpha                99.165(2)
_cell_angle_beta                 96.329(2)
_cell_angle_gamma                109.787(2)
_cell_volume                     885.233
loop_
_atom_site_label
_atom_site_type_symbol
_atom_site_fract_x
_atom_site_fract_y
_atom_site_fract_z
Cu1 Cu 1.0000 0.5000 0.0000
Cu2 Cu 0.5000 1.5000 0.5000
Cu3 Cu 0.52026(7) 0.96775(6) 0.10835(3)
Br1 Br 0.23068(6) 0.84763(5) -0.02545(3)
C1 C 0.7260(5) 0.6271(4) -0.0220(2)
C2 C 0.6245(5) 0.7216(4) -0.0021(3)
H1 H 0.5570 0.7424 -0.0550
C3 C 0.7093(5) 0.7465(4) 0.1664(3)
C4 C 0.8118(5) 0.6491(4) 0.1446(3)
H2 H 0.8728 0.6214 0.1967
C5 C 0.7408(5) 0.5539(4) -0.1254(3)
C6 C 0.7023(6) 0.8145(5) 0.2700(3)
H3 H 0.7582 0.9285 0.2822
H4 H 0.7705 0.7754 0.3155
H5 H 0.5738 0.7837 0.2794
C7 C 0.6410(5) 1.3586(4) 0.3501(2)
C8 C 0.6511(5) 1.2533(5) 0.2694(3)
H6 H 0.7580 1.2802 0.2402
C9 C 0.3617(6) 1.0769(5) 0.2774(3)
C10 C 0.3516(6) 1.1855(5) 0.3580(3)
H7 H 0.2457 1.1589 0.3879
C11 C 0.7892(6) 1.5200(5) 0.3948(3)
C12 C 0.2081(7) 0.9201(6) 0.2418(3)
H8 H 0.1322 0.9212 0.1820
H9 H 0.1316 0.8983 0.2921
H10 H 0.2606 0.8390 0.2281
N1 N 0.8248(4) 0.5950(3) 0.0523(2)
N2 N 0.6189(4) 0.7859(3) 0.0915(2)
N3 N 0.4869(4) 1.3237(4) 0.3925(2)
N4 N 0.5115(4) 1.1136(4) 0.2323(2)
O1 O 0.8553(4) 0.4810(3) -0.12804(17)
O2 O 0.6397(4) 0.5643(4) -0.19736(18)
O3 O 0.7434(4) 1.6052(3) 0.46204(18)
O4 O 0.9381(4) 1.5616(4) 0.3635(2)
C1A C 1.2740(5) 0.3729(4) 0.0220(2)
C2A C 1.3755(5) 0.2784(4) 0.0021(3)
H1A H 1.4430 0.2576 0.0550
C3A C 1.2907(5) 0.2535(4) -0.1664(3)
C4A C 1.1882(5) 0.3509(4) -0.1446(3)
H2A H 1.1272 0.3786 -0.1967
C5A C 1.2592(5) 0.4461(4) 0.1254(3)
C6A C 1.2977(6) 0.1855(5) -0.2700(3)
H3A H 1.2418 0.0715 -0.2822
H4A H 1.2295 0.2246 -0.3155
H5A H 1.4262 0.2163 -0.2794
N1A N 1.1752(4) 0.4050(3) -0.0523(2)
N2A N 1.3811(4) 0.2141(3) -0.0915(2)
O1A O 1.1447(4) 0.5190(3) 0.12804(17)
O2A O 1.3603(4) 0.4357(4) 0.19736(18)
Cu3A Cu 1.47974(7) 0.03225(6) -0.10835(3)
Br1A Br 0.76932(6) 1.15237(5) 0.02545(3)
C7A C 1.3590(5) -0.3586(4) -0.3501(2)
C8A C 1.3489(5) -0.2533(5) -0.2694(3)
H6A H 1.2420 -0.2802 -0.2402
C9A C 1.6383(6) -0.0769(5) -0.2774(3)
C10A C 1.6484(6) -0.1855(5) -0.3580(3)
H7A H 1.7543 -0.1589 -0.3879
C11A C 1.2108(6) -0.5200(5) -0.3948(3)
C12A C 1.7919(7) 0.0799(6) -0.2418(3)
H8A H 1.8678 0.0788 -0.1820
H9A H 1.8684 0.1017 -0.2921
H10A H 1.7394 0.1610 -0.2281
N3A N 1.5131(4) -0.3237(4) -0.3925(2)
N4A N 1.4885(4) -0.1136(4) -0.2323(2)
O3A O 1.2566(4) -0.6052(3) -0.46204(18)
O4A O 1.0619(4) -0.5616(4) -0.3635(2)
N3A_2 N 0.5131(4) 1.6763(4) 0.6075(2)
O3A_2 O 0.2566(4) 1.3948(3) 0.53796(18)
Cu3A_2 Cu 0.47974(7) 1.03225(6) -0.10835(3)
Br1_2 Br 1.23068(6) -0.15237(5) -0.02545(3)
Br1A_2 Br 1.76932(6) 0.15237(5) 0.02545(3)
Cu2_2 Cu 1.5000 -0.5000 -0.5000
O5 O 0.3255(5) 0.5977(4) 0.3792(2)
H11 H 0.3344 0.5585 0.3292
H12 H 0.2205 0.5650 0.3727
O6 O 0.8935(13) 0.0947(7) 0.4878(6)
H13 H 0.9650 0.1030 0.5297
H14 H 0.9388 0.1671 0.4684
O7? O 0.572(2) 0.0769(15) 0.5267(8)
H15? H 0.5111 0.1148 0.5486
H16? H 0.5000 0.0000 0.5000
loop_
_geom_bond_atom_site_label_1
_geom_bond_atom_site_label_2
_geom_bond_site_symmetry_1
_geom_bond_site_symmetry_2
Cu1 N1 1_555 1_555
Cu2 N3 1_555 1_555
Cu3 Br1 1_555 1_555
Br1 Cu3A_2 1_555 1_555
C1 C2 1_555 1_555
C2 H1 1_555 1_555
C3 C4 1_555 1_555
C4 H2 1_555 1_555
C5 C1 1_555 1_555
C6 C3 1_555 1_555
H3 C6 1_555 1_555
H4 C6 1_555 1_555
H5 C6 1_555 1_555
C7 C8 1_555 1_555
C8 H6 1_555 1_555
C9 C10 1_555 1_555
C10 H7 1_555 1_555
C11 C7 1_555 1_555
C12 C9 1_555 1_555
H8 C12 1_555 1_555
H9 C12 1_555 1_555
H10 C12 1_555 1_555
N1 C1 1_555 1_555
N2 Cu3 1_555 1_555
N3 C7 1_555 1_555
N4 Cu3 1_555 1_555
O1 Cu1 1_555 1_555
O2 C5 1_555 1_555
O3 Cu2 1_555 1_555
O4 C11 1_555 1_555
O5 H11 1_555 1_555
H12 O5 1_555 1_555
O6 H13 1_555 1_555
H14 O6 1_555 1_555
C1A C2A 1_555 1_555
C2A H1A 1_555 1_555
C3A C4A 1_555 1_555
C4A H2A 1_555 1_555
C5A C1A 1_555 1_555
C6A C3A 1_555 1_555
H3A C6A 1_555 1_555
H4A C6A 1_555 1_555
H5A C6A 1_555 1_555
N1A Cu1 1_555 1_555
N2A C2A 1_555 1_555
O1A Cu1 1_555 1_555
O2A C5A 1_555 1_555
Cu3A N2A 1_555 1_555
Br1A Cu3 1_555 1_555
C7A C8A 1_555 1_555
C8A H6A 1_555 1_555
C9A C10A 1_555 1_555
C10A H7A 1_555 1_555
C11A C7A 1_555 1_555
C12A C9A 1_555 1_555
H8A C12A 1_555 1_555
H9A C12A 1_555 1_555
H10A C12A 1_555 1_555
N3A C7A 1_555 1_555
N4A Cu3A 1_555 1_555
O3A C11A 1_555 1_555
O4A C11A 1_555 1_555
N3A_2 Cu2 1_555 1_555
O3A_2 Cu2 1_555 1_555
Cu3A_2 Br1A 1_555 1_555
Br1_2 Cu3A 1_555 1_555
Br1A_2 Cu3A 1_555 1_555
Cu2_2 N3A 1_555 1_555
C2 N2 1_555 1_555
C3 N2 1_555 1_555
C4 N1 1_555 1_555
C5 O1 1_555 1_555
C8 N4 1_555 1_555
C9 N4 1_555 1_555
C10 N3 1_555 1_555
C11 O3 1_555 1_555
C1A N1A 1_555 1_555
C3A N2A 1_555 1_555
C4A N1A 1_555 1_555
C5A O1A 1_555 1_555
C8A N4A 1_555 1_555
C9A N4A 1_555 1_555
C10A N3A 1_555 1_555
O3A Cu2_2 1_555 1_555

#END
