
#######################################################################
#
#                 Cambridge Crystallographic Data Centre
#                                CCDC 
#
#######################################################################
#
# If this CIF has been generated from an entry in the Cambridge 
# Structural Database, then it will include bibliographic, chemical, 
# crystal, experimental, refinement or atomic coordinate data resulting 
# from the CCDC's data processing and validation procedures.
#
#######################################################################

data_MIDVEA
_symmetry_cell_setting           triclinic
_symmetry_space_group_name_H-M   'P -1'
_symmetry_Int_Tables_number      2
_space_group_name_Hall           '-P 1'
loop_
_symmetry_equiv_pos_site_id
_symmetry_equiv_pos_as_xyz
1 x,y,z
2 -x,-y,-z
_cell_length_a                   6.3847(7)
_cell_length_b                   7.1967(8)
_cell_length_c                   12.1280(14)
_cell_angle_alpha                96.343(2)
_cell_angle_beta                 102.011(2)
_cell_angle_gamma                113.187(2)
_cell_volume                     489.431
loop_
_atom_site_label
_atom_site_type_symbol
_atom_site_fract_x
_atom_site_fract_y
_atom_site_fract_z
Cu1 Cu 0.5000 0.5000 0.0000
C1 C 0.5776(8) 0.8607(6) 0.1448(4)
C2 C 0.6805(8) 1.0356(6) 0.2286(4)
H1 H 0.6055 1.1230 0.2314
C3 C 0.9870(8) 0.9545(6) 0.3038(4)
C4 C 0.8793(8) 0.7755(6) 0.2166(4)
H2 H 0.9503 0.6849 0.2143
C5 C 0.3504(8) 0.7979(6) 0.0514(4)
C6 C 1.2137(8) 1.0033(7) 0.3915(4)
H3 H 1.3223 1.1446 0.3990
H4 H 1.2816 0.9135 0.3675
H5 H 1.1831 0.9832 0.4646
N1 N 0.6810(6) 0.7304(5) 0.1375(3)
N2 N 0.8879(7) 1.0877(5) 0.3082(3)
O1 O 0.2931(5) 0.6407(4) -0.0266(3)
O2 O 0.2349(5) 0.9020(4) 0.0552(3)
Cu2 Cu 1.04003(12) 1.36604(9) 0.41282(6)
Cl1 Cl 1.2657(2) 1.50736(18) 0.59610(11)
O4 O 1.2636(8) 1.5467(6) 0.3046(4)
H8 H 1.391(5) 1.564(7) 0.348(3)
H9 H 1.230(8) 1.446(5) 0.252(3)
C1A C 0.4224(8) 0.1393(6) -0.1448(4)
C2A C 0.3195(8) -0.0356(6) -0.2286(4)
H1A H 0.3945 -0.1230 -0.2314
C3A C 0.0130(8) 0.0455(6) -0.3038(4)
C4A C 0.1207(8) 0.2245(6) -0.2166(4)
H2A H 0.0497 0.3151 -0.2143
C5A C 0.6496(8) 0.2021(6) -0.0514(4)
C6A C -0.2137(8) -0.0033(7) -0.3915(4)
H3A H -0.3223 -0.1446 -0.3990
H4A H -0.2816 0.0865 -0.3675
H5A H -0.1831 0.0168 -0.4646
N1A N 0.3190(6) 0.2696(5) -0.1375(3)
N2A N 0.1121(7) -0.0877(5) -0.3082(3)
O1A O 0.7069(5) 0.3593(4) 0.0266(3)
O2A O 0.7651(5) 0.0980(4) -0.0552(3)
Cu2A Cu -0.04003(12) -0.36604(9) -0.41282(6)
Cl1A Cl 0.7343(2) 1.49264(18) 0.40390(11)
O4A O -0.2636(8) -0.5467(6) -0.3046(4)
H8A H -0.391(5) -0.564(7) -0.348(3)
H9A H -0.230(8) -0.446(5) -0.252(3)
Cu2A_2 Cu 0.95997(12) 1.63396(9) 0.58718(6)
Cl1_2 Cl 0.2657(2) -0.49264(18) -0.40390(11)
Cl1A_2 Cl -0.2657(2) -0.50736(18) -0.59610(11)
O3 O 0.7816(7) 0.7157(6) 0.8958(4)
H6 H 0.748(9) 0.809(6) 0.902(5)
H7 H 0.907(6) 0.752(7) 0.943(3)
loop_
_geom_bond_atom_site_label_1
_geom_bond_atom_site_label_2
_geom_bond_site_symmetry_1
_geom_bond_site_symmetry_2
Cu1 N1 1_555 1_555
C1 C2 1_555 1_555
C2 H1 1_555 1_555
C3 C4 1_555 1_555
C4 H2 1_555 1_555
C5 C1 1_555 1_555
C6 C3 1_555 1_555
H3 C6 1_555 1_555
H4 C6 1_555 1_555
H5 C6 1_555 1_555
N1 C1 1_555 1_555
N2 C2 1_555 1_555
O1 Cu1 1_555 1_555
O2 C5 1_555 1_555
O3 H6 1_555 1_555
H7 O3 1_555 1_555
Cu2 N2 1_555 1_555
Cl1 Cu2 1_555 1_555
O4 Cu2 1_555 1_555
H8 O4 1_555 1_555
H9 O4 1_555 1_555
C1A C2A 1_555 1_555
C2A H1A 1_555 1_555
C3A C4A 1_555 1_555
C4A H2A 1_555 1_555
C5A C1A 1_555 1_555
C6A C3A 1_555 1_555
H3A C6A 1_555 1_555
H4A C6A 1_555 1_555
H5A C6A 1_555 1_555
N1A Cu1 1_555 1_555
N2A C2A 1_555 1_555
O1A Cu1 1_555 1_555
O2A C5A 1_555 1_555
Cu2A N2A 1_555 1_555
Cl1A Cu2 1_555 1_555
O4A Cu2A 1_555 1_555
H8A O4A 1_555 1_555
H9A O4A 1_555 1_555
Cu2A_2 Cl1 1_555 1_555
Cl1_2 Cu2A 1_555 1_555
Cl1A_2 Cu2A 1_555 1_555
C3 N2 1_555 1_555
C4 N1 1_555 1_555
C5 O1 1_555 1_555
C1A N1A 1_555 1_555
C3A N2A 1_555 1_555
C4A N1A 1_555 1_555
C5A O1A 1_555 1_555
Cl1A Cu2A_2 1_555 1_555

#END
