
#######################################################################
#
#                 Cambridge Crystallographic Data Centre
#                                CCDC 
#
#######################################################################
#
# If this CIF has been generated from an entry in the Cambridge 
# Structural Database, then it will include bibliographic, chemical, 
# crystal, experimental, refinement or atomic coordinate data resulting 
# from the CCDC's data processing and validation procedures.
#
#######################################################################

data_MIDXON
_symmetry_cell_setting           monoclinic
_symmetry_space_group_name_H-M   'P 21/m'
_symmetry_Int_Tables_number      11
_space_group_name_Hall           '-P 2yb'
loop_
_symmetry_equiv_pos_site_id
_symmetry_equiv_pos_as_xyz
1 x,y,z
2 -x,1/2+y,-z
3 -x,-y,-z
4 x,1/2-y,z
_cell_length_a                   9.5464(7)
_cell_length_b                   17.0621(11)
_cell_length_c                   14.0941(10)
_cell_angle_alpha                90
_cell_angle_beta                 105.456(1)
_cell_angle_gamma                90
_cell_volume                     2212.65
loop_
_atom_site_label
_atom_site_type_symbol
_atom_site_fract_x
_atom_site_fract_y
_atom_site_fract_z
Cu1 Cu 0.18272(6) 0.2500 0.59006(4)
V1 V 0.51340(8) 0.2500 0.48143(6)
O1 O 0.3699(3) 0.2500 0.5256(2)
O4 O -0.0744(4) 0.250000(6) 0.6730(2)
F1 F 0.4142(4) 0.2500 0.3477(2)
F2 F 0.6507(4) 0.2500 0.6056(3)
F3 F 0.5792(4) 0.3419(2) 0.4643(3)
N1 N 0.3148(4) 0.2500 0.7308(3)
N2 N 0.1703(3) 0.37020(17) 0.59594(18)
N3 N 0.0416(4) 0.2500 0.4526(3)
C1 C 0.4599(5) 0.250000(7) 0.7470(3)
C2 C 0.5542(5) 0.250000(7) 0.8407(4)
C3 C 0.4975(5) 0.250000(7) 0.9211(4)
C4 C 0.3471(6) 0.250000(7) 0.9048(4)
C5 C 0.2610(5) 0.250000(7) 0.8095(3)
C6 C 0.2656(4) 0.4157(2) 0.5681(3)
C7 C 0.2636(5) 0.4967(2) 0.5745(3)
C8 C 0.1602(5) 0.5323(2) 0.6115(3)
C9 C 0.0615(5) 0.4856(2) 0.6409(3)
C10 C 0.0688(4) 0.4052(2) 0.6316(3)
C11 C -0.1007(6) 0.250000(7) 0.4370(4)
C12 C -0.1958(6) 0.250000(7) 0.3436(4)
C13 C -0.1429(6) 0.250000(7) 0.2634(4)
C14 C 0.0026(7) 0.250000(7) 0.2788(5)
C15 C 0.0918(7) 0.250000(7) 0.3737(5)
H1 H 0.5014 0.2500 0.6889
H2 H 0.6618 0.2500 0.8504
H3 H 0.5625 0.2500 0.9897
H4 H 0.3030 0.2500 0.9617
H5 H 0.1531 0.2500 0.7982
H6 H 0.3368 0.3919 0.5430
H7 H 0.3313 0.5270 0.5536
H8 H 0.1571 0.5870 0.6163
H9 H -0.0110 0.5080 0.6668
H10 H 0.0018 0.3739 0.6516
H11 H -0.1418 0.2500 0.4953
H12 H -0.3031 0.2500 0.3356
H13 H -0.2098 0.2500 0.1954
H14 H 0.0455 0.2500 0.2214
H15 H 0.1995 0.2500 0.3834
H28 H -0.1783 0.2500 0.6335
H29 H -0.0696 0.2500 0.7447
F3C F 0.5792(4) 0.1581(2) 0.4643(3)
N2C N 0.1703(3) 0.12980(17) 0.59594(18)
C6C C 0.2656(4) 0.0843(2) 0.5681(3)
C7C C 0.2636(5) 0.0033(2) 0.5745(3)
C8C C 0.1602(5) -0.0323(2) 0.6115(3)
C9C C 0.0615(5) 0.0144(2) 0.6409(3)
C10C C 0.0688(4) 0.0948(2) 0.6316(3)
H6C H 0.3368 0.1081 0.5430
H7C H 0.3313 -0.0270 0.5536
H8C H 0.1571 -0.0870 0.6163
H9C H -0.0110 -0.0080 0.6668
H10C H 0.0018 0.1261 0.6516
Cu2 Cu 1.0000 0.5000 1.0000
V2 V 1.01344(8) 0.7500 1.01020(5)
O2 O 1.1589(4) 0.7500 0.9713(3)
F4 F 0.8307(3) 0.7500 0.9227(2)
F5 F 0.9880(2) 0.63838(10) 1.00472(14)
F6 F 1.0591(4) 0.7500 1.1329(2)
N4 N 0.8583(3) 0.50126(16) 0.86255(18)
N5 N 1.1723(3) 0.50680(17) 0.93961(18)
C16 C 0.7983(4) 0.5687(2) 0.8216(2)
C17 C 0.7016(4) 0.5722(2) 0.7288(3)
C18 C 0.6657(4) 0.5034(2) 0.6761(2)
C19 C 0.7248(4) 0.4339(2) 0.7170(3)
C20 C 0.8209(4) 0.4347(2) 0.8104(3)
C21 C 1.2290(5) 0.4444(2) 0.9074(3)
C22 C 1.3455(5) 0.4490(2) 0.8666(4)
C23 C 1.4074(4) 0.5200(2) 0.8590(3)
C24 C 1.3510(4) 0.5845(2) 0.8907(3)
C25 C 1.2340(4) 0.5764(2) 0.9304(3)
H16 H 0.8231 0.6154 0.8578
H17 H 0.6606 0.6198 0.7026
H18 H 0.6029 0.5039 0.6136
H19 H 0.7001 0.3872 0.6820
H20 H 0.8628 0.3877 0.8388
H21 H 1.1871 0.3957 0.9140
H22 H 1.3812 0.4043 0.8440
H23 H 1.4885 0.5236 0.8324
H24 H 1.3898 0.6338 0.8856
H25 H 1.1932 0.6206 0.9524
V2B V 0.98656(8) 0.2500 0.98980(5)
F5B F 1.0120(2) 0.36162(10) 0.99528(14)
F5C F 0.9880(2) 0.86162(10) 1.00472(14)
N4B N 1.1417(3) 0.49874(16) 1.13745(18)
N5B N 0.8277(3) 0.49320(17) 1.06039(18)
C16B C 1.2017(4) 0.4313(2) 1.1784(2)
C17B C 1.2984(4) 0.4278(2) 1.2712(3)
C18B C 1.3343(4) 0.4966(2) 1.3239(2)
C19B C 1.2752(4) 0.5661(2) 1.2830(3)
C20B C 1.1791(4) 0.5653(2) 1.1896(3)
C21B C 0.7710(5) 0.5556(2) 1.0926(3)
C22B C 0.6545(5) 0.5510(2) 1.1334(4)
C23B C 0.5926(4) 0.4800(2) 1.1410(3)
C24B C 0.6490(4) 0.4155(2) 1.1093(3)
C25B C 0.7660(4) 0.4236(2) 1.0696(3)
H16B H 1.1769 0.3846 1.1422
H17B H 1.3394 0.3802 1.2974
H18B H 1.3971 0.4961 1.3864
H19B H 1.2999 0.6128 1.3180
H20B H 1.1372 0.6123 1.1612
H21B H 0.8129 0.6043 1.0860
H22B H 0.6188 0.5957 1.1560
H23B H 0.5115 0.4764 1.1676
H24B H 0.6102 0.3662 1.1144
H25B H 0.8068 0.3794 1.0476
O3 O 0.5330(4) 0.750000(6) 0.8354(3)
H26 H 0.5308 0.7500 0.7640
H27 H 0.6362 0.7500 0.8763
loop_
_geom_bond_atom_site_label_1
_geom_bond_atom_site_label_2
_geom_bond_site_symmetry_1
_geom_bond_site_symmetry_2
Cu1 O1 1_555 1_555
Cu2 F5 1_555 1_555
V1 O1 1_555 1_555
V2 O2 1_555 1_555
O3 H26 1_555 1_555
O4 Cu1 1_555 1_555
F1 V1 1_555 1_555
F2 V1 1_555 1_555
F3 V1 1_555 1_555
F4 V2 1_555 1_555
F5 V2 1_555 1_555
F6 V2 1_555 1_555
N1 Cu1 1_555 1_555
N2 Cu1 1_555 1_555
N3 Cu1 1_555 1_555
N4 Cu2 1_555 1_555
N5 Cu2 1_555 1_555
C1 N1 1_555 1_555
C2 C1 1_555 1_555
C3 C2 1_555 1_555
C4 C3 1_555 1_555
C5 N1 1_555 1_555
C6 N2 1_555 1_555
C7 C6 1_555 1_555
C8 C7 1_555 1_555
C9 C8 1_555 1_555
C10 N2 1_555 1_555
C11 N3 1_555 1_555
C12 C11 1_555 1_555
C13 C12 1_555 1_555
C14 C13 1_555 1_555
C15 N3 1_555 1_555
C16 N4 1_555 1_555
C17 C16 1_555 1_555
C18 C17 1_555 1_555
C19 C18 1_555 1_555
C20 N4 1_555 1_555
C21 N5 1_555 1_555
C22 C21 1_555 1_555
C23 C22 1_555 1_555
C24 C23 1_555 1_555
C25 N5 1_555 1_555
H1 C1 1_555 1_555
H2 C2 1_555 1_555
H3 C3 1_555 1_555
H4 C4 1_555 1_555
H5 C5 1_555 1_555
H6 C6 1_555 1_555
H7 C7 1_555 1_555
H8 C8 1_555 1_555
H9 C9 1_555 1_555
H10 C10 1_555 1_555
H11 C11 1_555 1_555
H12 C12 1_555 1_555
H13 C13 1_555 1_555
H14 C14 1_555 1_555
H15 C15 1_555 1_555
H16 C16 1_555 1_555
H17 C17 1_555 1_555
H18 C18 1_555 1_555
H19 C19 1_555 1_555
H20 C20 1_555 1_555
H21 C21 1_555 1_555
H22 C22 1_555 1_555
H23 C23 1_555 1_555
H24 C24 1_555 1_555
H25 C25 1_555 1_555
H27 O3 1_555 1_555
H28 O4 1_555 1_555
H29 O4 1_555 1_555
V2B F5B 1_555 1_555
F3C V1 1_555 1_555
F5B Cu2 1_555 1_555
F5C V2 1_555 1_555
N2C Cu1 1_555 1_555
N4B Cu2 1_555 1_555
N5B Cu2 1_555 1_555
C6C N2C 1_555 1_555
C7C C6C 1_555 1_555
C8C C7C 1_555 1_555
C9C C8C 1_555 1_555
C10C N2C 1_555 1_555
C16B N4B 1_555 1_555
C17B C16B 1_555 1_555
C18B C17B 1_555 1_555
C19B C18B 1_555 1_555
C20B N4B 1_555 1_555
C21B N5B 1_555 1_555
C22B C21B 1_555 1_555
C23B C22B 1_555 1_555
C24B C23B 1_555 1_555
C25B N5B 1_555 1_555
H6C C6C 1_555 1_555
H7C C7C 1_555 1_555
H8C C8C 1_555 1_555
H9C C9C 1_555 1_555
H10C C10C 1_555 1_555
H16B C16B 1_555 1_555
H17B C17B 1_555 1_555
H18B C18B 1_555 1_555
H19B C19B 1_555 1_555
H20B C20B 1_555 1_555
H21B C21B 1_555 1_555
H22B C22B 1_555 1_555
H23B C23B 1_555 1_555
H24B C24B 1_555 1_555
H25B C25B 1_555 1_555
C4 C5 1_555 1_555
C9 C10 1_555 1_555
C14 C15 1_555 1_555
C19 C20 1_555 1_555
C24 C25 1_555 1_555
C9C C10C 1_555 1_555
C19B C20B 1_555 1_555
C24B C25B 1_555 1_555

#END
