
#######################################################################
#
#                 Cambridge Crystallographic Data Centre
#                                CCDC 
#
#######################################################################
#
# If this CIF has been generated from an entry in the Cambridge 
# Structural Database, then it will include bibliographic, chemical, 
# crystal, experimental, refinement or atomic coordinate data resulting 
# from the CCDC's data processing and validation procedures.
#
#######################################################################

data_MIDZUV
_symmetry_cell_setting           monoclinic
_symmetry_space_group_name_H-M   'C 2/c'
_symmetry_Int_Tables_number      15
_space_group_name_Hall           '-C 2yn'
loop_
_symmetry_equiv_pos_site_id
_symmetry_equiv_pos_as_xyz
1 x,y,z
2 1/2+x,1/2+y,z
3 -x,y,1/2-z
4 1/2-x,1/2+y,1/2-z
5 -x,-y,-z
6 1/2-x,1/2-y,-z
7 x,-y,1/2+z
8 1/2+x,1/2-y,1/2+z
_cell_length_a                   19.529
_cell_length_b                   13.128
_cell_length_c                   14.963
_cell_angle_alpha                90
_cell_angle_beta                 113.65
_cell_angle_gamma                90
_cell_volume                     3513.98
loop_
_atom_site_label
_atom_site_type_symbol
_atom_site_fract_x
_atom_site_fract_y
_atom_site_fract_z
Ag1 Ag 0.462579(17) 0.69848(2) 0.14029(2)
N1 N 0.37650(15) 0.9956(2) 0.0378(2)
N2 N 0.43575(15) 0.8530(2) 0.1014(2)
C1 C 0.45143(19) 1.0210(3) 0.0858(3)
C2 C 0.2916(2) 1.1651(3) 0.1055(3)
H1 H 0.3413 1.1860 0.1310
C3 C 0.37080(18) 0.8949(3) 0.0498(2)
C4 C 0.2447(3) 1.1995(3) 0.1467(3)
H2 H 0.2630 1.2423 0.2006
C5 C 0.26610(19) 1.1000(3) 0.0267(3)
C6 C 0.3164(2) 1.0654(3) -0.0214(3)
H3 H 0.2862 1.0317 -0.0822
H4 H 0.3388 1.1248 -0.0372
C7 C 0.56471(19) 0.9287(3) 0.1776(3)
H5 H 0.5895 0.8682 0.2036
C8 C 0.4894(2) 1.1131(3) 0.0973(3)
H6 H 0.4648 1.1734 0.0703
C9 C 0.6027(2) 1.0200(3) 0.1898(3)
H7 H 0.6543 1.0211 0.2245
C10 C 0.1442(2) 1.1070(4) 0.0304(4)
H8 H 0.0942 1.0877 0.0045
C11 C 0.1913(2) 1.0706(3) -0.0110(3)
H9 H 0.1730 1.0265 -0.0640
C12 C 0.1703(3) 1.1709(4) 0.1086(4)
H10 H 0.1384 1.1951 0.1361
C13 C 0.5656(2) 1.1096(3) 0.1513(3)
H11 H 0.5929 1.1698 0.1622
C14 C 0.29761(18) 0.8388(3) 0.0097(3)
H12 H 0.2595 0.8858 -0.0331
C15 C 0.48790(19) 0.9314(3) 0.1251(3)
C16 C 0.2748(2) 0.8080(3) 0.0919(3)
H13 H 0.3127 0.7637 0.1371
H14 H 0.2711 0.8682 0.1273
C17 C 0.3000(2) 0.7471(3) -0.0514(3)
H15 H 0.3123 0.7695 -0.1049
H16 H 0.3387 0.7005 -0.0114
O1 O 0.51389(17) 0.5544(2) 0.1426(2)
O2 O 0.61152(18) 0.5873(2) 0.2821(2)
F1 F 0.6795(2) 0.4308(3) 0.2346(3)
F2 F 0.5799(2) 0.3934(3) 0.1144(2)
F3 F 0.5906(3) 0.3639(2) 0.2585(3)
C18 C 0.5744(3) 0.5354(3) 0.2105(3)
C19 C 0.6058(3) 0.4302(4) 0.2036(4)
Ag1E Ag 0.037421(17) 0.80152(2) -0.14029(2)
Ag1B Ag 0.537421(17) 0.69848(2) 0.35971(2)
N1E N 0.12350(15) 0.5044(2) -0.0378(2)
N2E N 0.06425(15) 0.6470(2) -0.1014(2)
C1E C 0.04857(19) 0.4790(3) -0.0858(3)
C2E C 0.2084(2) 0.3349(3) -0.1055(3)
H1E H 0.1587 0.3140 -0.1310
C3E C 0.12920(18) 0.6051(3) -0.0498(2)
C4E C 0.2553(3) 0.3005(3) -0.1467(3)
H2E H 0.2370 0.2577 -0.2006
C5E C 0.23390(19) 0.4000(3) -0.0267(3)
C6E C 0.1836(2) 0.4346(3) 0.0214(3)
H3E H 0.2138 0.4683 0.0822
H4E H 0.1612 0.3752 0.0372
C7E C -0.06471(19) 0.5713(3) -0.1776(3)
H5E H -0.0895 0.6318 -0.2036
C8E C 0.0106(2) 0.3869(3) -0.0973(3)
H6E H 0.0352 0.3266 -0.0703
C9E C -0.1027(2) 0.4800(3) -0.1898(3)
H7E H -0.1543 0.4789 -0.2245
C10E C 0.3558(2) 0.3930(4) -0.0304(4)
H8E H 0.4058 0.4123 -0.0045
C11E C 0.3087(2) 0.4294(3) 0.0110(3)
H9E H 0.3270 0.4735 0.0640
C12E C 0.3297(3) 0.3291(4) -0.1086(4)
H10E H 0.3616 0.3049 -0.1361
C13E C -0.0656(2) 0.3904(3) -0.1513(3)
H11E H -0.0929 0.3302 -0.1622
C14E C 0.20239(18) 0.6612(3) -0.0097(3)
H12E H 0.2405 0.6142 0.0331
C15E C 0.01210(19) 0.5686(3) -0.1251(3)
C16E C 0.2252(2) 0.6920(3) -0.0919(3)
H13E H 0.1873 0.7363 -0.1371
H14E H 0.2289 0.6318 -0.1273
C17E C 0.2000(2) 0.7529(3) 0.0514(3)
H15E H 0.1877 0.7305 0.1049
H16E H 0.1613 0.7995 0.0114
O1B O 0.48611(17) 0.5544(2) 0.3574(2)
O1E O -0.01389(17) 0.9456(2) -0.1426(2)
O2B O 0.38848(18) 0.5873(2) 0.2179(2)
O2G O 0.11152(18) 0.9127(2) -0.2179(2)
F1B F 0.3205(2) 0.4308(3) 0.2654(3)
F2B F 0.4201(2) 0.3934(3) 0.3856(2)
F3B F 0.4094(3) 0.3639(2) 0.2415(3)
C18B C 0.4256(3) 0.5354(3) 0.2895(3)
C19B C 0.3942(3) 0.4302(4) 0.2964(4)
loop_
_geom_bond_atom_site_label_1
_geom_bond_atom_site_label_2
_geom_bond_site_symmetry_1
_geom_bond_site_symmetry_2
Ag1 N2 1_555 1_555
N1 C1 1_555 1_555
N2 C3 1_555 1_555
C1 C8 1_555 1_555
C2 H1 1_555 1_555
C3 N1 1_555 1_555
C4 C2 1_555 1_555
H2 C4 1_555 1_555
C5 C2 1_555 1_555
C6 N1 1_555 1_555
H3 C6 1_555 1_555
H4 C6 1_555 1_555
C7 H5 1_555 1_555
C8 H6 1_555 1_555
C9 C7 1_555 1_555
H7 C9 1_555 1_555
C10 H8 1_555 1_555
C11 C5 1_555 1_555
H9 C11 1_555 1_555
C12 C4 1_555 1_555
H10 C12 1_555 1_555
C13 C8 1_555 1_555
H11 C13 1_555 1_555
C14 C3 1_555 1_555
H12 C14 1_555 1_555
C15 N2 1_555 1_555
C16 C14 1_555 1_555
H13 C16 1_555 1_555
H14 C16 1_555 1_555
C17 C14 1_555 1_555
H15 C17 1_555 1_555
H16 C17 1_555 1_555
O1 Ag1 1_555 1_555
O2 C18 1_555 1_555
F1 C19 1_555 1_555
F2 C19 1_555 1_555
F3 C19 1_555 1_555
C18 O1 1_555 1_555
C19 C18 1_555 1_555
Ag1E N2E 1_555 1_555
Ag1B O2 1_555 1_555
N1E C1E 1_555 1_555
N2E C3E 1_555 1_555
C1E C8E 1_555 1_555
C2E H1E 1_555 1_555
C3E N1E 1_555 1_555
C4E C2E 1_555 1_555
H2E C4E 1_555 1_555
C5E C2E 1_555 1_555
C6E N1E 1_555 1_555
H3E C6E 1_555 1_555
H4E C6E 1_555 1_555
C7E H5E 1_555 1_555
C8E H6E 1_555 1_555
C9E C7E 1_555 1_555
H7E C9E 1_555 1_555
C10E H8E 1_555 1_555
C11E C5E 1_555 1_555
H9E C11E 1_555 1_555
C12E C4E 1_555 1_555
H10E C12E 1_555 1_555
C13E C8E 1_555 1_555
H11E C13E 1_555 1_555
C14E C3E 1_555 1_555
H12E C14E 1_555 1_555
C15E N2E 1_555 1_555
C16E C17 1_555 1_555
H13E C16E 1_555 1_555
H14E C16E 1_555 1_555
C17E C16 1_555 1_555
H15E C17E 1_555 1_555
H16E C17E 1_555 1_555
O1B Ag1B 1_555 1_555
O1E Ag1E 1_555 1_555
O2B Ag1 1_555 1_555
O2G Ag1E 1_555 1_555
F1B C19B 1_555 1_555
F2B C19B 1_555 1_555
F3B C19B 1_555 1_555
C18B O1B 1_555 1_555
C19B C18B 1_555 1_555
C1 C15 1_555 1_555
C5 C6 1_555 1_555
C7 C15 1_555 1_555
C9 C13 1_555 1_555
C10 C11 1_555 1_555
C10 C12 1_555 1_555
C1E C15E 1_555 1_555
C5E C6E 1_555 1_555
C7E C15E 1_555 1_555
C9E C13E 1_555 1_555
C10E C11E 1_555 1_555
C10E C12E 1_555 1_555
C14E C16E 1_555 1_555
C14E C17E 1_555 1_555
O2B C18B 1_555 1_555

#END
