
#######################################################################
#
#                 Cambridge Crystallographic Data Centre
#                                CCDC 
#
#######################################################################
#
# If this CIF has been generated from an entry in the Cambridge 
# Structural Database, then it will include bibliographic, chemical, 
# crystal, experimental, refinement or atomic coordinate data resulting 
# from the CCDC's data processing and validation procedures.
#
#######################################################################

data_MIDZEF
_symmetry_cell_setting           monoclinic
_symmetry_space_group_name_H-M   'P 21/n'
_symmetry_Int_Tables_number      14
_space_group_name_Hall           '-P 2yn'
loop_
_symmetry_equiv_pos_site_id
_symmetry_equiv_pos_as_xyz
1 x,y,z
2 1/2-x,1/2+y,1/2-z
3 -x,-y,-z
4 1/2+x,1/2-y,1/2+z
_cell_length_a                   12.752
_cell_length_b                   11.250
_cell_length_c                   13.088
_cell_angle_alpha                90
_cell_angle_beta                 115.69
_cell_angle_gamma                90
_cell_volume                     1692.01
loop_
_atom_site_label
_atom_site_type_symbol
_atom_site_fract_x
_atom_site_fract_y
_atom_site_fract_z
Hg1 Hg 0.54715(2) -0.15542(2) -0.002589(19)
N1 N 0.4714(4) -0.2343(4) -0.1690(4)
N2 N 0.4341(4) -0.3711(4) -0.3024(4)
C1 C 0.6297(5) -0.4938(5) -0.3285(5)
H1 H 0.6183 -0.4203 -0.3643
C2 C 0.4591(4) -0.3501(5) -0.1932(5)
C3 C 0.4258(5) -0.2602(5) -0.3529(5)
C4 C 0.3981(5) -0.2295(6) -0.4647(5)
H2 H 0.3841 -0.2870 -0.5201
C5 C 0.5564(6) -0.6579(6) -0.2652(6)
H3 H 0.4952 -0.6956 -0.2577
C6 C 0.7378(5) -0.5468(6) -0.2872(6)
H4 H 0.7988 -0.5092 -0.2950
C7 C 0.5384(5) -0.5482(5) -0.3176(5)
C8 C 0.4479(5) -0.1763(5) -0.2705(4)
C9 C 0.4229(5) -0.4862(5) -0.3571(5)
H5 H 0.3900 -0.4752 -0.4386
H6 H 0.3699 -0.5357 -0.3405
C10 C 0.7549(6) -0.6559(7) -0.2341(6)
H7 H 0.8279 -0.6915 -0.2051
C11 C 0.4402(5) -0.0557(6) -0.2952(5)
H8 H 0.4526 0.0013 -0.2397
C12 C 0.6637(7) -0.7122(7) -0.2240(6)
H9 H 0.6747 -0.7864 -0.1896
C13 C 0.4712(4) -0.4467(5) -0.1106(4)
H10 H 0.4401 -0.5190 -0.1554
C14 C 0.5950(4) -0.4735(5) -0.0301(4)
H11 H 0.6295 -0.4038 0.0158
H12 H 0.6387 -0.4914 -0.0732
C15 C 0.4134(5) -0.0240(7) -0.4054(5)
H13 H 0.4092 0.0560 -0.4246
C16 C 0.3963(5) -0.4230(5) -0.0464(5)
H14 H 0.4229 -0.3511 -0.0015
H15 H 0.3157 -0.4115 -0.1003
C17 C 0.3924(6) -0.1113(7) -0.4893(6)
H16 H 0.3742 -0.0876 -0.5632
Cl1 Cl 0.66645(14) -0.21579(17) 0.18501(13)
Cl2 Cl 0.63107(12) 0.05336(14) -0.01458(14)
Hg1B Hg 0.45285(2) -0.84458(2) 0.002589(19)
Hg1B_2 Hg 0.45285(2) 0.15542(2) 0.002589(19)
N1B N 0.5286(4) -0.7657(4) 0.1690(4)
N2B N 0.5659(4) -0.6289(4) 0.3024(4)
C1B C 0.3703(5) -0.5062(5) 0.3285(5)
H1B H 0.3817 -0.5797 0.3643
C2B C 0.5409(4) -0.6499(5) 0.1932(5)
C3B C 0.5742(5) -0.7398(5) 0.3529(5)
C4B C 0.6019(5) -0.7705(6) 0.4647(5)
H2B H 0.6159 -0.7130 0.5201
C5B C 0.4436(6) -0.3421(6) 0.2652(6)
H3B H 0.5048 -0.3044 0.2577
C6B C 0.2622(5) -0.4532(6) 0.2872(6)
H4B H 0.2012 -0.4908 0.2950
C7B C 0.4616(5) -0.4518(5) 0.3176(5)
C8B C 0.5521(5) -0.8237(5) 0.2705(4)
C9B C 0.5771(5) -0.5138(5) 0.3571(5)
H5B H 0.6100 -0.5248 0.4386
H6B H 0.6301 -0.4643 0.3405
C10B C 0.2451(6) -0.3441(7) 0.2341(6)
H7B H 0.1721 -0.3085 0.2051
C11B C 0.5598(5) -0.9443(6) 0.2952(5)
H8B H 0.5474 -1.0013 0.2397
C12B C 0.3363(7) -0.2878(7) 0.2240(6)
H9B H 0.3253 -0.2136 0.1896
C13B C 0.5288(4) -0.5533(5) 0.1106(4)
H10B H 0.5599 -0.4810 0.1554
C14B C 0.4050(4) -0.5265(5) 0.0301(4)
H11B H 0.3705 -0.5962 -0.0158
H12B H 0.3613 -0.5086 0.0732
C15B C 0.5866(5) -0.9760(7) 0.4054(5)
H13B H 0.5908 -1.0560 0.4246
C16B C 0.6037(5) -0.5770(5) 0.0464(5)
H14B H 0.5771 -0.6489 0.0015
H15B H 0.6843 -0.5885 0.1003
C17B C 0.6076(6) -0.8887(7) 0.4893(6)
H16B H 0.6258 -0.9124 0.5632
Cl1B Cl 0.33355(14) -0.78421(17) -0.18501(13)
Cl2B Cl 0.36893(12) -0.05336(14) 0.01458(14)
Cl2_2 Cl 0.63107(12) -0.94664(14) -0.01458(14)
Cl2B_2 Cl 0.36893(12) -1.05336(14) 0.01458(14)
loop_
_geom_bond_atom_site_label_1
_geom_bond_atom_site_label_2
_geom_bond_site_symmetry_1
_geom_bond_site_symmetry_2
Hg1 N1 1_555 1_555
N1 C2 1_555 1_555
N2 C2 1_555 1_555
C1 H1 1_555 1_555
C2 C13 1_555 1_555
C3 N2 1_555 1_555
C4 C3 1_555 1_555
H2 C4 1_555 1_555
C5 H3 1_555 1_555
C6 C1 1_555 1_555
H4 C6 1_555 1_555
C7 C1 1_555 1_555
C8 N1 1_555 1_555
C9 N2 1_555 1_555
H5 C9 1_555 1_555
H6 C9 1_555 1_555
C10 C6 1_555 1_555
H7 C10 1_555 1_555
C11 C8 1_555 1_555
H8 C11 1_555 1_555
C12 C5 1_555 1_555
H9 C12 1_555 1_555
C13 H10 1_555 1_555
C14 C13 1_555 1_555
H11 C14 1_555 1_555
H12 C14 1_555 1_555
C15 C11 1_555 1_555
H13 C15 1_555 1_555
C16 C13 1_555 1_555
H14 C16 1_555 1_555
H15 C16 1_555 1_555
C17 C4 1_555 1_555
H16 C17 1_555 1_555
Cl1 Hg1 1_555 1_555
Cl2 Hg1 1_555 1_555
Hg1B N1B 1_555 1_555
Hg1B_2 Cl2 1_555 1_555
N1B C2B 1_555 1_555
N2B C2B 1_555 1_555
C1B H1B 1_555 1_555
C2B C13B 1_555 1_555
C3B N2B 1_555 1_555
C4B C3B 1_555 1_555
H2B C4B 1_555 1_555
C5B H3B 1_555 1_555
C6B C1B 1_555 1_555
H4B C6B 1_555 1_555
C7B C1B 1_555 1_555
C8B N1B 1_555 1_555
C9B N2B 1_555 1_555
H5B C9B 1_555 1_555
H6B C9B 1_555 1_555
C10B C6B 1_555 1_555
H7B C10B 1_555 1_555
C11B C8B 1_555 1_555
H8B C11B 1_555 1_555
C12B C5B 1_555 1_555
H9B C12B 1_555 1_555
C13B H10B 1_555 1_555
C14B C16 1_555 1_555
H11B C14B 1_555 1_555
H12B C14B 1_555 1_555
C15B C11B 1_555 1_555
H13B C15B 1_555 1_555
C16B C14 1_555 1_555
H14B C16B 1_555 1_555
H15B C16B 1_555 1_555
C17B C4B 1_555 1_555
H16B C17B 1_555 1_555
Cl1B Hg1B 1_555 1_555
Cl2B Hg1 1_555 1_555
Cl2_2 Hg1B 1_555 1_555
Cl2B_2 Hg1B 1_555 1_555
C3 C8 1_555 1_555
C5 C7 1_555 1_555
C7 C9 1_555 1_555
C10 C12 1_555 1_555
C15 C17 1_555 1_555
Hg1B_2 Cl2B 1_555 1_555
C3B C8B 1_555 1_555
C5B C7B 1_555 1_555
C7B C9B 1_555 1_555
C10B C12B 1_555 1_555
C13B C14B 1_555 1_555
C13B C16B 1_555 1_555
C15B C17B 1_555 1_555

#END
