
#######################################################################
#
#                 Cambridge Crystallographic Data Centre
#                                CCDC 
#
#######################################################################
#
# If this CIF has been generated from an entry in the Cambridge 
# Structural Database, then it will include bibliographic, chemical, 
# crystal, experimental, refinement or atomic coordinate data resulting 
# from the CCDC's data processing and validation procedures.
#
#######################################################################

data_MIFCIN01
_symmetry_cell_setting           monoclinic
_symmetry_space_group_name_H-M   'C 2/c'
_symmetry_Int_Tables_number      15
_space_group_name_Hall           '-C 2yn'
loop_
_symmetry_equiv_pos_site_id
_symmetry_equiv_pos_as_xyz
1 x,y,z
2 1/2+x,1/2+y,z
3 -x,y,1/2-z
4 1/2-x,1/2+y,1/2-z
5 -x,-y,-z
6 1/2-x,1/2-y,-z
7 x,-y,1/2+z
8 1/2+x,1/2-y,1/2+z
_cell_length_a                   9.872(1)
_cell_length_b                   11.974(1)
_cell_length_c                   12.283(1)
_cell_angle_alpha                90
_cell_angle_beta                 112.55(1)
_cell_angle_gamma                90
_cell_volume                     1340.93
loop_
_atom_site_label
_atom_site_type_symbol
_atom_site_fract_x
_atom_site_fract_y
_atom_site_fract_z
Ni1 Ni 0.5000 0.0000 0.5000
S1 S 0.00906(4) 0.12298(4) 0.41372(4)
O1 O 0.59354(13) 0.12456(10) 0.62380(10)
H1 H 0.538(3) 0.182(2) 0.617(2)
H2 H 0.680(3) 0.147(2) 0.646(2)
N1 N 0.29980(15) 0.05159(12) 0.48486(12)
N2 N 0.49307(14) 0.11287(10) 0.34846(11)
N3 N 0.63356(14) 0.25798(11) 0.29547(11)
C1 C 0.17945(17) 0.08210(13) 0.45610(13)
C2 C 0.62429(16) 0.18670(13) 0.39001(13)
H3 H 0.713(2) 0.1402(17) 0.4227(18)
H4 H 0.616(2) 0.2322(17) 0.4496(17)
C3 C 0.5000 0.04371(18) 0.2500
H5 H 0.585(2) 0.0002(14) 0.2789(17)
C4 C 0.36157(16) 0.18625(13) 0.30087(13)
H6 H 0.275(2) 0.1411(17) 0.2708(18)
H7 H 0.359(2) 0.2303(17) 0.3643(18)
C5 C 0.5000 0.32869(18) 0.2500
H8 H 0.500(2) 0.3778(15) 0.3148(16)
Ni1F Ni 0.5000 0.0000 0.0000
S1D S 0.99094(4) -0.12298(4) 0.58628(4)
O1D O 0.40646(13) -0.12456(10) 0.37620(10)
H1D H 0.462(3) -0.182(2) 0.383(2)
H2D H 0.320(3) -0.147(2) 0.354(2)
N1D N 0.70020(15) -0.05159(12) 0.51514(12)
N2B N 0.50693(14) 0.11287(10) 0.15154(11)
N2D N 0.50693(14) -0.11287(10) 0.65154(11)
N3B N 0.36644(14) 0.25798(11) 0.20453(11)
C1D C 0.82055(17) -0.08210(13) 0.54390(13)
C2B C 0.37571(16) 0.18670(13) 0.10999(13)
H3B H 0.287(2) 0.1402(17) 0.0773(18)
H4B H 0.384(2) 0.2322(17) 0.0504(17)
H5B H 0.415(2) 0.0002(14) 0.2211(17)
C4B C 0.63843(16) 0.18625(13) 0.19913(13)
H6B H 0.725(2) 0.1411(17) 0.2292(18)
H7B H 0.641(2) 0.2303(17) 0.1357(18)
H8B H 0.500(2) 0.3778(15) 0.1852(16)
loop_
_geom_bond_atom_site_label_1
_geom_bond_atom_site_label_2
_geom_bond_site_symmetry_1
_geom_bond_site_symmetry_2
Ni1 O1 1_555 1_555
S1 C1 1_555 1_555
O1 H1 1_555 1_555
H2 O1 1_555 1_555
N1 Ni1 1_555 1_555
N2 Ni1 1_555 1_555
N3 C2 1_555 1_555
C1 N1 1_555 1_555
C2 N2 1_555 1_555
H3 C2 1_555 1_555
H4 C2 1_555 1_555
C3 N2 1_555 1_555
H5 C3 1_555 1_555
C4 N2 1_555 1_555
H6 C4 1_555 1_555
H7 C4 1_555 1_555
C5 N3 1_555 1_555
H8 C5 1_555 1_555
Ni1F N2B 1_555 1_555
S1D C1D 1_555 1_555
O1D Ni1 1_555 1_555
H1D O1D 1_555 1_555
H2D O1D 1_555 1_555
N1D Ni1 1_555 1_555
N2B C3 1_555 1_555
N2D Ni1 1_555 1_555
N3B C4 1_555 1_555
C1D N1D 1_555 1_555
C2B N2B 1_555 1_555
H3B C2B 1_555 1_555
H4B C2B 1_555 1_555
H5B C3 1_555 1_555
C4B N3 1_555 1_555
H6B C4B 1_555 1_555
H7B C4B 1_555 1_555
H8B C5 1_555 1_555
C5 N3B 1_555 1_555
N2B C4B 1_555 1_555
N3B C2B 1_555 1_555

#END
