
#######################################################################
#
#                 Cambridge Crystallographic Data Centre
#                                CCDC 
#
#######################################################################
#
# If this CIF has been generated from an entry in the Cambridge 
# Structural Database, then it will include bibliographic, chemical, 
# crystal, experimental, refinement or atomic coordinate data resulting 
# from the CCDC's data processing and validation procedures.
#
#######################################################################

data_MIFHEO
_symmetry_cell_setting           orthorhombic
_symmetry_space_group_name_H-M   'P n a 21'
_symmetry_Int_Tables_number      33
_space_group_name_Hall           'P 2c -2n'
loop_
_symmetry_equiv_pos_site_id
_symmetry_equiv_pos_as_xyz
1 x,y,z
2 -x,-y,1/2+z
3 1/2-x,1/2+y,1/2+z
4 1/2+x,1/2-y,z
_cell_length_a                   35.737(2)
_cell_length_b                   9.7820(10)
_cell_length_c                   16.1440(10)
_cell_angle_alpha                90
_cell_angle_beta                 90
_cell_angle_gamma                90
_cell_volume                     5643.61
loop_
_atom_site_label
_atom_site_type_symbol
_atom_site_fract_x
_atom_site_fract_y
_atom_site_fract_z
Cu1 Cu 0.237496(11) 0.38323(4) 0.96934(3)
Cu2 Cu 0.033073(11) 0.19655(4) 0.65879(3)
Mn1 Mn 0.179181(13) 0.09405(5) 0.71579(3)
C1 C 0.22004(9) 0.1765(3) 0.8626(2)
C2 C 0.19816(10) 0.3062(3) 0.8360(2)
C3 C 0.28335(9) 0.4085(3) 1.1031(2)
C4 C 0.26480(9) 0.5491(3) 1.0877(2)
C5 C 0.26539(9) 0.1158(3) 0.9723(3)
C6 C 0.27352(10) -0.0218(3) 0.9547(2)
H1 H 0.2632 -0.0644 0.9077
C7 C 0.29678(11) -0.0931(4) 1.0072(3)
H2 H 0.3022 -0.1853 0.9957
C8 C 0.31242(11) -0.0323(4) 1.0766(3)
H3 H 0.3278 -0.0836 1.1122
C9 C 0.30538(10) 0.1041(3) 1.0935(2)
H4 H 0.3164 0.1469 1.1396
C10 C 0.28146(9) 0.1771(3) 1.0408(2)
C11 C 0.09811(9) 0.0930(3) 0.7221(2)
C12 C 0.10791(9) 0.1702(4) 0.6410(2)
C13 C -0.04077(10) 0.1932(4) 0.7055(3)
C14 C -0.03691(10) 0.2809(4) 0.6253(3)
C15 C 0.04149(10) 0.0358(4) 0.8018(2)
C16 C 0.05515(11) -0.0440(4) 0.8650(3)
H5 H 0.0809 -0.0637 0.8679
C17 C 0.03101(12) -0.0954(4) 0.9243(3)
H6 H 0.0405 -0.1477 0.9685
C18 C -0.00651(12) -0.0705(4) 0.9189(3)
H7 H -0.0226 -0.1084 0.9588
C19 C -0.02132(11) 0.0092(4) 0.8560(2)
H8 H -0.0472 0.0255 0.8537
C20 C 0.00243(10) 0.0656(3) 0.7960(2)
N1 N 0.24169(8) 0.2022(3) 0.92618(18)
N2 N 0.27121(8) 0.3171(3) 1.05110(18)
N3 N 0.06206(8) 0.0930(3) 0.73597(19)
N4 N -0.00737(8) 0.1477(3) 0.72866(19)
O1 O 0.20236(8) 0.4136(2) 0.87937(17)
O2 O 0.17802(7) 0.2959(3) 0.77356(16)
O3 O 0.21483(7) 0.0667(2) 0.82425(16)
O4 O 0.24132(7) 0.5572(2) 1.02734(16)
O5 O 0.27315(7) 0.6447(2) 1.13424(15)
O6 O 0.30726(6) 0.3988(2) 1.16002(16)
O7 O 0.08108(7) 0.2246(3) 0.60134(18)
O8 O 0.14130(7) 0.1731(2) 0.62087(15)
O9 O 0.12448(7) 0.0409(2) 0.76405(16)
O10 O -0.00366(7) 0.2949(3) 0.59512(17)
O11 O -0.06499(8) 0.3299(4) 0.5937(2)
O12 O -0.07150(8) 0.1745(3) 0.73873(19)
O5B O 0.22685(7) 0.1447(2) 0.63424(15)
O6B O 0.19274(6) -0.1012(2) 0.66002(16)
Mn1B Mn 0.320819(13) 0.59405(5) 1.21579(3)
C21 C -0.13653(12) 0.0065(4) 0.5682(3)
H9 H -0.1143 0.0521 0.5457
H10 H -0.1297 -0.0309 0.6224
C22 C -0.14663(15) -0.1113(5) 0.5114(6)
H11 H -0.1572 -0.0710 0.4610
H12 H -0.1670 -0.1614 0.5385
C24 C -0.1174(4) -0.2201(12) 0.4830(9)
H17 H -0.1233 -0.2563 0.4279
H18 H -0.0919 -0.1826 0.4827
C25 C -0.1221(6) -0.327(2) 0.5491(9)
H19 H -0.1058 -0.4040 0.5373
H20 H -0.1479 -0.3578 0.5500
H21 H -0.1156 -0.2885 0.6025
C27 C -0.20131(11) 0.0532(4) 0.6221(3)
H25 H -0.2109 -0.0205 0.5868
H26 H -0.2207 0.1239 0.6250
C28 C -0.19512(13) -0.0037(5) 0.7086(3)
H27 H -0.1751 -0.0719 0.7067
H28 H -0.1870 0.0705 0.7452
C29 C -0.22978(13) -0.0686(6) 0.7442(3)
H29 H -0.2502 -0.0016 0.7440
H30 H -0.2373 -0.1455 0.7090
C30 C -0.22384(16) -0.1188(6) 0.8307(4)
H31 H -0.2432 -0.1845 0.8446
H32 H -0.2250 -0.0423 0.8688
H33 H -0.1995 -0.1623 0.8347
C31 C -0.14953(11) 0.2251(4) 0.6345(3)
H34 H -0.1405 0.1832 0.6859
H35 H -0.1277 0.2624 0.6054
C32 C -0.17519(12) 0.3407(4) 0.6563(3)
H36 H -0.1985 0.3038 0.6791
H37 H -0.1814 0.3920 0.6060
C33 C -0.15774(15) 0.4362(5) 0.7186(4)
H38 H -0.1342 0.4722 0.6965
H39 H -0.1521 0.3860 0.7697
C34 C -0.18423(19) 0.5540(7) 0.7377(5)
H40 H -0.1757 0.6016 0.7869
H41 H -0.2092 0.5185 0.7472
H42 H -0.1847 0.6168 0.6913
C35 C -0.17985(11) 0.1713(4) 0.4980(3)
H43 H -0.1906 0.0964 0.4654
H44 H -0.1999 0.2374 0.5084
C36 C -0.15016(12) 0.2405(5) 0.4464(3)
H45 H -0.1278 0.1824 0.4437
H46 H -0.1431 0.3274 0.4722
C37 C -0.16476(13) 0.2668(4) 0.3589(3)
H47 H -0.1720 0.1795 0.3338
H48 H -0.1872 0.3243 0.3622
C38 C -0.13638(15) 0.3355(5) 0.3040(3)
H49 H -0.1455 0.3369 0.2475
H50 H -0.1130 0.2855 0.3064
H51 H -0.1324 0.4285 0.3229
N5 N -0.16704(9) 0.1139(3) 0.5808(2)
C39 C 0.08029(15) 0.6825(5) 0.4182(4)
H52 H 0.0824 0.6674 0.3583
H53 H 0.0706 0.7753 0.4262
C40 C 0.11909(19) 0.6761(6) 0.4549(6)
H54 H 0.1315 0.5914 0.4378
H55 H 0.1176 0.6773 0.5155
C41 C 0.14297(17) 0.8090(6) 0.4219(4)
H56 H 0.1699 0.7914 0.4245
H57 H 0.1361 0.8322 0.3648
C42 C 0.1326(2) 0.9156(7) 0.4776(5)
H58 H 0.1479 0.9955 0.4673
H59 H 0.1363 0.8851 0.5342
H60 H 0.1064 0.9386 0.4693
C43 C 0.06802(13) 0.4376(4) 0.4554(3)
H61 H 0.0901 0.4396 0.4912
H62 H 0.0498 0.3757 0.4808
C44 C 0.07924(16) 0.3796(5) 0.3727(3)
H63 H 0.0568 0.3606 0.3399
H64 H 0.0943 0.4470 0.3426
C45 C 0.10138(14) 0.2503(5) 0.3831(3)
H65 H 0.0877 0.1886 0.4202
H66 H 0.1254 0.2722 0.4094
C46 C 0.10884(18) 0.1768(6) 0.3015(4)
H67 H 0.1237 0.0956 0.3118
H68 H 0.1223 0.2373 0.2643
H69 H 0.0852 0.1507 0.2764
C47 C 0.0406(2) 0.6150(6) 0.5402(3)
H70 H 0.0630 0.6094 0.5751
H71 H 0.0227 0.5466 0.5602
C48 C 0.0232(4) 0.7574(9) 0.5496(5)
H72 H 0.0403 0.8263 0.5269
H73 H -0.0003 0.7618 0.5185
C49 C 0.0157(4) 0.7881(9) 0.6413(6)
H74 H 0.0360 0.7534 0.6760
H75 H 0.0132 0.8867 0.6504
C50 C -0.0185(3) 0.7197(12) 0.6598(8)
H76 H -0.0377 0.7866 0.6721
H77 H -0.0149 0.6607 0.7075
H78 H -0.0261 0.6651 0.6126
C51 C 0.01869(13) 0.5869(5) 0.3953(3)
H79 H 0.0283 0.5815 0.3386
H80 H 0.0069 0.6767 0.4016
C52 C -0.0115(5) 0.479(2) 0.405(2)
H83 H -0.0147 0.4559 0.4638
H84 H -0.0042 0.3952 0.3756
C54 C -0.0493(3) 0.534(2) 0.3690(7)
H87 H -0.0708 0.4850 0.3919
H88 H -0.0522 0.6322 0.3793
C56 C -0.0442(5) 0.5044(19) 0.2789(7)
H91 H -0.0669 0.5276 0.2492
H92 H -0.0387 0.4081 0.2714
H93 H -0.0236 0.5585 0.2575
N6 N 0.05115(12) 0.5809(3) 0.4528(2)
H13? H -0.1445 -0.0864 0.4528
H14? H -0.1718 -0.1468 0.5224
C23? C -0.1143(3) -0.2168(12) 0.5377(10)
H15? H -0.0900 -0.1850 0.5174
H16? H -0.1131 -0.2245 0.5982
C26? C -0.1240(5) -0.3561(13) 0.4992(11)
H22? H -0.1048 -0.4221 0.5138
H23? H -0.1252 -0.3473 0.4394
H24? H -0.1480 -0.3869 0.5201
H81? H 0.0263 0.5516 0.3411
H82? H 0.0108 0.6821 0.3880
C53? C -0.0163(5) 0.511(2) 0.4245(14)
H85? H -0.0319 0.5702 0.4589
H86? H -0.0093 0.4300 0.4570
C55? C -0.0380(6) 0.467(2) 0.345(2)
H89? H -0.0204 0.4401 0.3010
H90? H -0.0545 0.3894 0.3566
C57? C -0.0600(5) 0.5875(14) 0.3191(17)
H94? H -0.0732 0.5672 0.2680
H95? H -0.0433 0.6644 0.3103
H96? H -0.0779 0.6101 0.3620
loop_
_geom_bond_atom_site_label_1
_geom_bond_atom_site_label_2
_geom_bond_site_symmetry_1
_geom_bond_site_symmetry_2
Cu1 N1 1_555 1_555
Cu2 N3 1_555 1_555
Mn1 O2 1_555 1_555
C1 C2 1_555 1_555
C2 O1 1_555 1_555
C3 C4 1_555 1_555
C4 O4 1_555 1_555
C5 C6 1_555 1_555
C6 H1 1_555 1_555
C7 C6 1_555 1_555
H2 C7 1_555 1_555
C8 C7 1_555 1_555
H3 C8 1_555 1_555
C9 C8 1_555 1_555
H4 C9 1_555 1_555
C10 C5 1_555 1_555
C11 C12 1_555 1_555
C12 O7 1_555 1_555
C13 C14 1_555 1_555
C14 O10 1_555 1_555
C15 C16 1_555 1_555
C16 H5 1_555 1_555
C17 C16 1_555 1_555
H6 C17 1_555 1_555
C18 C17 1_555 1_555
H7 C18 1_555 1_555
C19 C18 1_555 1_555
H8 C19 1_555 1_555
C20 C15 1_555 1_555
C21 H9 1_555 1_555
H10 C21 1_555 1_555
C22 C21 1_555 1_555
H11 C22 1_555 1_555
H12 C22 1_555 1_555
C24 C22 1_555 1_555
H17 C24 1_555 1_555
H18 C24 1_555 1_555
C25 C24 1_555 1_555
H19 C25 1_555 1_555
H20 C25 1_555 1_555
H21 C25 1_555 1_555
C27 H25 1_555 1_555
H26 C27 1_555 1_555
C28 C27 1_555 1_555
H27 C28 1_555 1_555
H28 C28 1_555 1_555
C29 C28 1_555 1_555
H29 C29 1_555 1_555
H30 C29 1_555 1_555
C30 C29 1_555 1_555
H31 C30 1_555 1_555
H32 C30 1_555 1_555
H33 C30 1_555 1_555
C31 H34 1_555 1_555
H35 C31 1_555 1_555
C32 C31 1_555 1_555
H36 C32 1_555 1_555
H37 C32 1_555 1_555
C33 C32 1_555 1_555
H38 C33 1_555 1_555
H39 C33 1_555 1_555
C34 C33 1_555 1_555
H40 C34 1_555 1_555
H41 C34 1_555 1_555
H42 C34 1_555 1_555
C35 H43 1_555 1_555
H44 C35 1_555 1_555
C36 C35 1_555 1_555
H45 C36 1_555 1_555
H46 C36 1_555 1_555
C37 C36 1_555 1_555
H47 C37 1_555 1_555
H48 C37 1_555 1_555
C38 C37 1_555 1_555
H49 C38 1_555 1_555
H50 C38 1_555 1_555
H51 C38 1_555 1_555
C39 H52 1_555 1_555
H53 C39 1_555 1_555
C40 C39 1_555 1_555
H54 C40 1_555 1_555
H55 C40 1_555 1_555
C41 C40 1_555 1_555
H56 C41 1_555 1_555
H57 C41 1_555 1_555
C42 C41 1_555 1_555
H58 C42 1_555 1_555
H59 C42 1_555 1_555
H60 C42 1_555 1_555
C43 H61 1_555 1_555
H62 C43 1_555 1_555
C44 C43 1_555 1_555
H63 C44 1_555 1_555
H64 C44 1_555 1_555
C45 C44 1_555 1_555
H65 C45 1_555 1_555
H66 C45 1_555 1_555
C46 C45 1_555 1_555
H67 C46 1_555 1_555
H68 C46 1_555 1_555
H69 C46 1_555 1_555
C47 H70 1_555 1_555
H71 C47 1_555 1_555
C48 C47 1_555 1_555
H72 C48 1_555 1_555
H73 C48 1_555 1_555
C49 C48 1_555 1_555
H74 C49 1_555 1_555
H75 C49 1_555 1_555
C50 C49 1_555 1_555
H76 C50 1_555 1_555
H77 C50 1_555 1_555
H78 C50 1_555 1_555
C51 H79 1_555 1_555
H80 C51 1_555 1_555
C52 C51 1_555 1_555
H83 C52 1_555 1_555
H84 C52 1_555 1_555
C54 C52 1_555 1_555
H87 C54 1_555 1_555
H88 C54 1_555 1_555
C56 C54 1_555 1_555
H91 C56 1_555 1_555
H92 C56 1_555 1_555
H93 C56 1_555 1_555
N1 C1 1_555 1_555
N2 Cu1 1_555 1_555
N3 C11 1_555 1_555
N4 Cu2 1_555 1_555
N5 C21 1_555 1_555
N6 C39 1_555 1_555
O1 Cu1 1_555 1_555
O2 C2 1_555 1_555
O3 Mn1 1_555 1_555
O4 Cu1 1_555 1_555
O5 C4 1_555 1_555
O6 C3 1_555 1_555
O7 Cu2 1_555 1_555
O8 Mn1 1_555 1_555
O9 Mn1 1_555 1_555
O10 Cu2 1_555 1_555
O11 C14 1_555 1_555
O12 C13 1_555 1_555
O5B Mn1 1_555 1_555
O6B Mn1 1_555 1_555
Mn1B O5 1_555 1_555
C1 O3 1_555 1_555
C3 N2 1_555 1_555
C5 N1 1_555 1_555
C9 C10 1_555 1_555
C10 N2 1_555 1_555
C11 O9 1_555 1_555
C12 O8 1_555 1_555
C13 N4 1_555 1_555
C15 N3 1_555 1_555
C19 C20 1_555 1_555
C20 N4 1_555 1_555
C27 N5 1_555 1_555
C31 N5 1_555 1_555
C35 N5 1_555 1_555
C43 N6 1_555 1_555
C47 N6 1_555 1_555
C51 N6 1_555 1_555
O6 Mn1B 1_555 1_555

#END
