
#######################################################################
#
#                 Cambridge Crystallographic Data Centre
#                                CCDC 
#
#######################################################################
#
# If this CIF has been generated from an entry in the Cambridge 
# Structural Database, then it will include bibliographic, chemical, 
# crystal, experimental, refinement or atomic coordinate data resulting 
# from the CCDC's data processing and validation procedures.
#
#######################################################################

data_MIGFEP
_symmetry_cell_setting           monoclinic
_symmetry_space_group_name_H-M   'P 21/c'
_symmetry_Int_Tables_number      14
_space_group_name_Hall           '-P 2ybc'
loop_
_symmetry_equiv_pos_site_id
_symmetry_equiv_pos_as_xyz
1 x,y,z
2 -x,1/2+y,1/2-z
3 -x,-y,-z
4 x,1/2-y,1/2+z
_cell_length_a                   14.6799(8)
_cell_length_b                   10.2113(6)
_cell_length_c                   16.6281(9)
_cell_angle_alpha                90
_cell_angle_beta                 94.6660(10)
_cell_angle_gamma                90
_cell_volume                     2484.31
loop_
_atom_site_label
_atom_site_type_symbol
_atom_site_fract_x
_atom_site_fract_y
_atom_site_fract_z
C1 C 0.3124(2) -0.1264(4) 0.13555(19)
H1 H 0.2512 -0.1019 0.1304
C2 C 0.3361(3) -0.2552(3) 0.1234(2)
H2 H 0.2912 -0.3182 0.1115
C3 C 0.4282(3) -0.2893(3) 0.1292(2)
H3 H 0.4453 -0.3750 0.1190
C4 C 0.4947(2) -0.1963(3) 0.15004(19)
H4 H 0.5559 -0.2207 0.1547
C5 C 0.4710(2) -0.0667(3) 0.16415(17)
Ag1 Ag 0.698757(15) 0.26474(2) 0.225747(13)
N1 N 0.59978(19) 0.0972(3) 0.14110(16)
N2 N 0.8010(2) 0.1375(3) 0.15729(18)
N3 N 0.79624(19) 0.4310(3) 0.15669(16)
C6 C 0.8771(3) 0.2277(4) 0.1343(3)
H5 H 0.9183 0.2444 0.1819
H6 H 0.9117 0.1837 0.0950
C7 C 0.9197(2) 0.6061(3) 0.17944(19)
N4 N 0.5932(2) 0.3890(3) 0.13870(18)
C8 C 0.8574(2) 0.5062(4) 0.2147(2)
H7 H 0.8953 0.4445 0.2466
H8 H 0.8199 0.5516 0.2511
C9 C 0.5193(3) 0.2970(5) 0.1027(3)
H9 H 0.4752 0.2831 0.1423
H10 H 0.4875 0.3396 0.0564
C10 C 0.3794(2) -0.0327(3) 0.15556(18)
H11 H 0.3624 0.0538 0.1633
C11 C 0.5415(2) 0.0324(3) 0.19666(18)
H12 H 0.5094 0.1003 0.2237
H13 H 0.5815 -0.0113 0.2376
C12 C 0.7551(3) 0.0716(4) 0.0900(2)
H14 H 0.7961 0.0076 0.0694
H15 H 0.7394 0.1347 0.0475
C13 C 0.8436(3) 0.3536(4) 0.1006(2)
H16 H 0.8951 0.4035 0.0839
H17 H 0.8027 0.3369 0.0529
C14 C 0.5517(3) 0.1695(5) 0.0773(2)
H18 H 0.4997 0.1183 0.0555
H19 H 0.5917 0.1824 0.0343
C15 C 1.0061(2) 0.5717(4) 0.1597(3)
H20 H 1.0270 0.4868 0.1695
C16 C 0.6424(3) 0.4556(5) 0.0796(3)
H21 H 0.6027 0.5207 0.0525
H22 H 0.6586 0.3929 0.0393
C17 C 0.6714(3) 0.0050(4) 0.1114(3)
H23 H 0.6877 -0.0591 0.1532
H24 H 0.6448 -0.0418 0.0645
C18 C 1.0334(3) 0.7877(4) 0.1133(3)
H25 H 1.0711 0.8482 0.0905
C19 C 0.8923(3) 0.7353(3) 0.1675(3)
H26 H 0.8353 0.7619 0.1819
C20 C 0.9492(3) 0.8246(4) 0.1342(3)
H27 H 0.9299 0.9107 0.1261
C21 C 0.7267(3) 0.5209(4) 0.1145(3)
H28 H 0.7098 0.5867 0.1526
H29 H 0.7550 0.5659 0.0715
C22 C 1.0620(3) 0.6614(4) 0.1258(3)
H30 H 1.1193 0.6358 0.1115
H31 H 0.818(3) 0.095(4) 0.187(2)
H32 H 0.571(3) 0.440(4) 0.167(2)
C1A C 0.6876(2) 0.3736(4) 0.36445(19)
C2A C 0.6639(3) 0.2448(3) 0.3766(2)
Ag1A Ag 0.301243(15) -0.23526(2) 0.274253(13)
S1 S 0.73875(5) 0.86155(8) 0.34449(5)
O1 O 0.6932(2) 0.7620(2) 0.29566(19)
C23 C 0.8217(3) 0.7727(4) 0.4114(3)
F1 F 0.87006(19) 0.8512(3) 0.45958(15)
O2 O 0.7943(2) 0.9464(3) 0.30097(19)
F2 F 0.8788(3) 0.7061(4) 0.3709(2)
O3 O 0.6842(2) 0.9263(3) 0.3993(2)
F3 F 0.7796(3) 0.6915(4) 0.4573(2)
loop_
_geom_bond_atom_site_label_1
_geom_bond_atom_site_label_2
_geom_bond_site_symmetry_1
_geom_bond_site_symmetry_2
C1 H1 1_555 1_555
C2 C1 1_555 1_555
H2 C2 1_555 1_555
C3 C2 1_555 1_555
H3 C3 1_555 1_555
C4 C3 1_555 1_555
H4 C4 1_555 1_555
C5 C4 1_555 1_555
Ag1 N1 1_555 1_555
N1 C11 1_555 1_555
N2 Ag1 1_555 1_555
N3 Ag1 1_555 1_555
C6 N2 1_555 1_555
H5 C6 1_555 1_555
H6 C6 1_555 1_555
C7 C8 1_555 1_555
N4 Ag1 1_555 1_555
C8 N3 1_555 1_555
H7 C8 1_555 1_555
H8 C8 1_555 1_555
C9 N4 1_555 1_555
H9 C9 1_555 1_555
H10 C9 1_555 1_555
C10 C1 1_555 1_555
H11 C10 1_555 1_555
C11 C5 1_555 1_555
H12 C11 1_555 1_555
H13 C11 1_555 1_555
C12 N2 1_555 1_555
H14 C12 1_555 1_555
H15 C12 1_555 1_555
C13 N3 1_555 1_555
H16 C13 1_555 1_555
H17 C13 1_555 1_555
C14 N1 1_555 1_555
H18 C14 1_555 1_555
H19 C14 1_555 1_555
C15 C7 1_555 1_555
H20 C15 1_555 1_555
C16 N4 1_555 1_555
H21 C16 1_555 1_555
H22 C16 1_555 1_555
C17 N1 1_555 1_555
H23 C17 1_555 1_555
H24 C17 1_555 1_555
C18 H25 1_555 1_555
C19 C7 1_555 1_555
H26 C19 1_555 1_555
C20 C18 1_555 1_555
H27 C20 1_555 1_555
C21 N3 1_555 1_555
H28 C21 1_555 1_555
H29 C21 1_555 1_555
C22 C15 1_555 1_555
H30 C22 1_555 1_555
H31 N2 1_555 1_555
H32 N4 1_555 1_555
S1 O1 1_555 1_555
C23 S1 1_555 1_555
F1 C23 1_555 1_555
O2 S1 1_555 1_555
F2 C23 1_555 1_555
O3 S1 1_555 1_555
F3 C23 1_555 1_555
C1A Ag1 1_555 1_555
C2A Ag1 1_555 1_555
Ag1A C1 1_555 1_555
C2 Ag1A 1_555 1_555
C5 C10 1_555 1_555
C6 C13 1_555 1_555
C9 C14 1_555 1_555
C12 C17 1_555 1_555
C16 C21 1_555 1_555
C18 C22 1_555 1_555
C19 C20 1_555 1_555
C1A C2A 1_555 1_555

#END
