
#######################################################################
#
#                 Cambridge Crystallographic Data Centre
#                                CCDC 
#
#######################################################################
#
# If this CIF has been generated from an entry in the Cambridge 
# Structural Database, then it will include bibliographic, chemical, 
# crystal, experimental, refinement or atomic coordinate data resulting 
# from the CCDC's data processing and validation procedures.
#
#######################################################################

data_MIGJUH
_symmetry_cell_setting           tetragonal
_symmetry_space_group_name_H-M   'P 4/n c c'
_symmetry_Int_Tables_number      130
_space_group_name_Hall           '-P 4a 2ac'
loop_
_symmetry_equiv_pos_site_id
_symmetry_equiv_pos_as_xyz
1 x,y,z
2 1/2-y,x,z
3 y,1/2-x,z
4 1/2+y,1/2+x,1/2-z
5 1/2+x,1/2+y,-z
6 x,1/2-y,1/2+z
7 1/2-x,y,1/2+z
8 y,x,1/2+z
9 -x,-y,-z
10 1/2+y,-x,-z
11 -y,1/2+x,-z
12 1/2-y,1/2-x,1/2+z
13 1/2-x,1/2-y,z
14 -x,1/2+y,1/2-z
15 1/2+x,-y,1/2-z
16 -y,-x,1/2-z
_cell_length_a                   15.8110(8)
_cell_length_b                   15.8110(8)
_cell_length_c                   28.283(2)
_cell_angle_alpha                90
_cell_angle_beta                 90
_cell_angle_gamma                90
_cell_volume                     7070.4
loop_
_atom_site_label
_atom_site_type_symbol
_atom_site_fract_x
_atom_site_fract_y
_atom_site_fract_z
Cl1 Cl 0.7500 0.2500 0.2500
O3 O 0.6798(9) 0.2497(7) 0.2756(5)
O3C O 0.7497(7) 0.1798(9) 0.2244(5)
O3L O 0.8202(9) 0.2503(7) 0.2756(5)
O3O O 0.7503(7) 0.3202(9) 0.2244(5)
Cl2 Cl 0.7500 0.2500 0.5000
O4 O 0.7607(6) 0.1763(6) 0.4734(4)
O4I O 0.6763(6) 0.2393(6) 0.5266(4)
O4J O 0.8237(6) 0.2607(6) 0.5266(4)
O4L O 0.7393(6) 0.3237(6) 0.4734(4)
Cl3 Cl 0.7500 0.7500 0.2627(2)
O6 O 0.6859(16) 0.6961(16) 0.2508(6)
O6A O 0.8039(16) 0.6859(16) 0.2508(6)
O6B O 0.6961(16) 0.8141(16) 0.2508(6)
O6L O 0.8141(16) 0.8039(16) 0.2508(6)
La1 La 0.7500 0.7500 0.44140(2)
S1 S 0.71265(9) 0.95187(10) 0.50171(6)
O1 O 0.6872(3) 0.8614(3) 0.49308(16)
C1 C 0.7127(4) 0.9640(4) 0.5644(2)
C2 C 0.6843(5) 0.9019(6) 0.5930(3)
H1 H 0.6637 0.8519 0.5799
C3 C 0.6854(7) 0.9120(9) 0.6413(4)
H2 H 0.6639 0.8705 0.6613
C4 C 0.7206(9) 0.9878(13) 0.6596(4)
H3 H 0.7240 0.9954 0.6922
C5 C 0.7489(7) 1.0483(9) 0.6306(4)
H4 H 0.7710 1.0977 0.6435
C6 C 0.7460(5) 1.0392(5) 0.5819(3)
H5 H 0.7655 1.0816 0.5619
C7 C 0.6179(4) 1.0115(4) 0.4876(3)
H6 H 0.6252 1.0692 0.4985
H7 H 0.6113 1.0131 0.4535
C8 C 0.5388(4) 0.9765(4) 0.5089(3)
H8 H 0.5418 0.9811 0.5431
H9 H 0.5339 0.9170 0.5009
O2 O 0.7225(4) 0.6137(3) 0.40011(19)
C9 C 0.7081(8) 0.5800(6) 0.3632(3)
N1 N 0.6871(6) 0.5019(4) 0.3563(2)
C10 C 0.6646(15) 0.4629(10) 0.3105(5)
H10 H 0.6710 0.5039 0.2857
H11 H 0.6070 0.4439 0.3115
H12 H 0.7012 0.4157 0.3045
C11 C 0.6727(17) 0.4438(12) 0.3917(7)
H13 H 0.6848 0.4690 0.4218
H14 H 0.7086 0.3955 0.3870
H15 H 0.6146 0.4262 0.3908
C8H C 0.4612(4) 1.0235(4) 0.4911(3)
C7H C 0.3821(4) 0.9885(4) 0.5124(3)
S1H S 0.28735(9) 1.04813(10) 0.49829(6)
O1H O 0.3128(3) 1.1386(3) 0.50692(16)
C1H C 0.2873(4) 1.0360(4) 0.4356(2)
C2H C 0.3157(5) 1.0981(6) 0.4070(3)
H1H H 0.3363 1.1481 0.4201
C3H C 0.3146(7) 1.0880(9) 0.3587(4)
H2H H 0.3361 1.1295 0.3387
C4H C 0.2794(9) 1.0122(13) 0.3404(4)
H3H H 0.2760 1.0046 0.3078
C5H C 0.2511(7) 0.9517(9) 0.3694(4)
H4H H 0.2290 0.9023 0.3565
C6H C 0.2540(5) 0.9608(5) 0.4181(3)
H5H H 0.2345 0.9184 0.4381
H6H H 0.3748 0.9308 0.5015
H7H H 0.3887 0.9869 0.5465
H8H H 0.4582 1.0189 0.4569
H9H H 0.4661 1.0830 0.4991
S1A S 0.54813(10) 0.71265(9) 0.50171(6)
O1A O 0.6386(3) 0.6872(3) 0.49308(16)
C1A C 0.5360(4) 0.7127(4) 0.5644(2)
C2A C 0.5981(6) 0.6843(5) 0.5930(3)
H1A H 0.6481 0.6637 0.5799
C3A C 0.5880(9) 0.6854(7) 0.6413(4)
H2A H 0.6295 0.6639 0.6613
C4A C 0.5122(13) 0.7206(9) 0.6596(4)
H3A H 0.5046 0.7240 0.6922
C5A C 0.4517(9) 0.7489(7) 0.6306(4)
H4A H 0.4023 0.7710 0.6435
C6A C 0.4608(5) 0.7460(5) 0.5819(3)
H5A H 0.4184 0.7655 0.5619
C7A C 0.4885(4) 0.6179(4) 0.4876(3)
H6A H 0.4308 0.6252 0.4985
H7A H 0.4869 0.6113 0.4535
C8A C 0.5235(4) 0.5388(4) 0.5089(3)
H8A H 0.5189 0.5418 0.5431
H9A H 0.5830 0.5339 0.5009
C8I C 0.4765(4) 0.4612(4) 0.4911(3)
C7I C 0.5115(4) 0.3821(4) 0.5124(3)
S1I S 0.45187(10) 0.28735(9) 0.49829(6)
O1I O 0.3614(3) 0.3128(3) 0.50692(16)
C1I C 0.4640(4) 0.2873(4) 0.4356(2)
C2I C 0.4019(6) 0.3157(5) 0.4070(3)
H1I H 0.3519 0.3363 0.4201
C3I C 0.4120(9) 0.3146(7) 0.3587(4)
H2I H 0.3705 0.3361 0.3387
C4I C 0.4878(13) 0.2794(9) 0.3404(4)
H3I H 0.4954 0.2760 0.3078
C5I C 0.5483(9) 0.2511(7) 0.3694(4)
H4I H 0.5977 0.2290 0.3565
C6I C 0.5392(5) 0.2540(5) 0.4181(3)
H5I H 0.5816 0.2345 0.4381
H6I H 0.5692 0.3748 0.5015
H7I H 0.5131 0.3887 0.5465
H8I H 0.4811 0.4582 0.4569
H9I H 0.4170 0.4661 0.4991
O2A O 0.8863(3) 0.7225(4) 0.40011(19)
C9A C 0.9200(6) 0.7081(8) 0.3632(3)
N1A N 0.9981(4) 0.6871(6) 0.3563(2)
C10A C 1.0371(10) 0.6646(15) 0.3105(5)
H10A H 0.9961 0.6710 0.2857
H11A H 1.0561 0.6070 0.3115
H12A H 1.0843 0.7012 0.3045
C11A C 1.0562(12) 0.6727(17) 0.3917(7)
H13A H 1.0310 0.6848 0.4218
H14A H 1.1045 0.7086 0.3870
H15A H 1.0738 0.6146 0.3908
O2B O 0.6137(3) 0.7775(4) 0.40011(19)
C9B C 0.5800(6) 0.7919(8) 0.3632(3)
N1B N 0.5019(4) 0.8129(6) 0.3563(2)
C10B C 0.4629(10) 0.8354(15) 0.3105(5)
H10B H 0.5039 0.8290 0.2857
H11B H 0.4439 0.8930 0.3115
H12B H 0.4157 0.7988 0.3045
C11B C 0.4438(12) 0.8273(17) 0.3917(7)
H13B H 0.4690 0.8152 0.4218
H14B H 0.3955 0.7914 0.3870
H15B H 0.4262 0.8854 0.3908
O2L O 0.7775(4) 0.8863(3) 0.40011(19)
C9L C 0.7919(8) 0.9200(6) 0.3632(3)
N1L N 0.8129(6) 0.9981(4) 0.3563(2)
C10L C 0.8354(15) 1.0371(10) 0.3105(5)
H10L H 0.8290 0.9961 0.2857
H11L H 0.8930 1.0561 0.3115
H12L H 0.7988 1.0843 0.3045
C11L C 0.8273(17) 1.0562(12) 0.3917(7)
H13L H 0.8152 1.0310 0.4218
H14L H 0.7914 1.1045 0.3870
H15L H 0.8854 1.0738 0.3908
O1B O 0.8614(3) 0.8128(3) 0.49308(16)
O1L O 0.8128(3) 0.6386(3) 0.49308(16)
La1D La 0.2500 1.2500 0.55860(2)
La1D_2 La 0.2500 0.2500 0.55860(2)
O5? O 0.7500 0.7500 0.3139(7)
C12? C 0.924(2) 0.0597(12) 0.7826(5)
Cl4? Cl 0.8951(5) -0.0181(5) 0.7401(3)
Cl5? Cl 0.9238(11) 0.0362(9) 0.8442(5)
loop_
_geom_bond_atom_site_label_1
_geom_bond_atom_site_label_2
_geom_bond_site_symmetry_1
_geom_bond_site_symmetry_2
La1 O1 1_555 1_555
S1 O1 1_555 1_555
C1 S1 1_555 1_555
C2 C1 1_555 1_555
H1 C2 1_555 1_555
C3 C2 1_555 1_555
H2 C3 1_555 1_555
C4 C3 1_555 1_555
H3 C4 1_555 1_555
C5 C4 1_555 1_555
H4 C5 1_555 1_555
C6 C1 1_555 1_555
H5 C6 1_555 1_555
C7 S1 1_555 1_555
H6 C7 1_555 1_555
H7 C7 1_555 1_555
C8 C7 1_555 1_555
H8 C8 1_555 1_555
H9 C8 1_555 1_555
O2 La1 1_555 1_555
C9 O2 1_555 1_555
N1 C9 1_555 1_555
C10 N1 1_555 1_555
H10 C10 1_555 1_555
H11 C10 1_555 1_555
H12 C10 1_555 1_555
C11 N1 1_555 1_555
H13 C11 1_555 1_555
H14 C11 1_555 1_555
H15 C11 1_555 1_555
Cl1 O3 1_555 1_555
Cl2 O4 1_555 1_555
Cl3 O6 1_555 1_555
C8H C8 1_555 1_555
C7H C8H 1_555 1_555
S1H C7H 1_555 1_555
O1H S1H 1_555 1_555
C1H S1H 1_555 1_555
C2H C1H 1_555 1_555
H1H C2H 1_555 1_555
C3H C2H 1_555 1_555
H2H C3H 1_555 1_555
C4H C3H 1_555 1_555
H3H C4H 1_555 1_555
C5H C4H 1_555 1_555
H4H C5H 1_555 1_555
C6H C1H 1_555 1_555
H5H C6H 1_555 1_555
H6H C7H 1_555 1_555
H7H C7H 1_555 1_555
H8H C8H 1_555 1_555
H9H C8H 1_555 1_555
O3C Cl1 1_555 1_555
O3L Cl1 1_555 1_555
O3O Cl1 1_555 1_555
O4I Cl2 1_555 1_555
O4J Cl2 1_555 1_555
O4L Cl2 1_555 1_555
O6A Cl3 1_555 1_555
O6B Cl3 1_555 1_555
O6L Cl3 1_555 1_555
S1A O1A 1_555 1_555
O1A La1 1_555 1_555
C1A S1A 1_555 1_555
C2A C1A 1_555 1_555
H1A C2A 1_555 1_555
C3A C2A 1_555 1_555
H2A C3A 1_555 1_555
C4A C3A 1_555 1_555
H3A C4A 1_555 1_555
C5A C4A 1_555 1_555
H4A C5A 1_555 1_555
C6A C1A 1_555 1_555
H5A C6A 1_555 1_555
C7A S1A 1_555 1_555
H6A C7A 1_555 1_555
H7A C7A 1_555 1_555
C8A C7A 1_555 1_555
H8A C8A 1_555 1_555
H9A C8A 1_555 1_555
C8I C8A 1_555 1_555
C7I C8I 1_555 1_555
S1I C7I 1_555 1_555
O1I S1I 1_555 1_555
C1I S1I 1_555 1_555
C2I C1I 1_555 1_555
H1I C2I 1_555 1_555
C3I C2I 1_555 1_555
H2I C3I 1_555 1_555
C4I C3I 1_555 1_555
H3I C4I 1_555 1_555
C5I C4I 1_555 1_555
H4I C5I 1_555 1_555
C6I C1I 1_555 1_555
H5I C6I 1_555 1_555
H6I C7I 1_555 1_555
H7I C7I 1_555 1_555
H8I C8I 1_555 1_555
H9I C8I 1_555 1_555
O2A La1 1_555 1_555
C9A O2A 1_555 1_555
N1A C9A 1_555 1_555
C10A N1A 1_555 1_555
H10A C10A 1_555 1_555
H11A C10A 1_555 1_555
H12A C10A 1_555 1_555
C11A N1A 1_555 1_555
H13A C11A 1_555 1_555
H14A C11A 1_555 1_555
H15A C11A 1_555 1_555
O2B La1 1_555 1_555
C9B O2B 1_555 1_555
N1B C9B 1_555 1_555
C10B N1B 1_555 1_555
H10B C10B 1_555 1_555
H11B C10B 1_555 1_555
H12B C10B 1_555 1_555
C11B N1B 1_555 1_555
H13B C11B 1_555 1_555
H14B C11B 1_555 1_555
H15B C11B 1_555 1_555
O2L La1 1_555 1_555
C9L O2L 1_555 1_555
N1L C9L 1_555 1_555
C10L N1L 1_555 1_555
H10L C10L 1_555 1_555
H11L C10L 1_555 1_555
H12L C10L 1_555 1_555
C11L N1L 1_555 1_555
H13L C11L 1_555 1_555
H14L C11L 1_555 1_555
H15L C11L 1_555 1_555
O1B La1 1_555 1_555
O1L La1 1_555 1_555
La1D O1H 1_555 1_555
La1D_2 O1I 1_555 1_555
C5 C6 1_555 1_555
C5H C6H 1_555 1_555
C5A C6A 1_555 1_555
C5I C6I 1_555 1_555

#END
