
#######################################################################
#
#                 Cambridge Crystallographic Data Centre
#                                CCDC 
#
#######################################################################
#
# If this CIF has been generated from an entry in the Cambridge 
# Structural Database, then it will include bibliographic, chemical, 
# crystal, experimental, refinement or atomic coordinate data resulting 
# from the CCDC's data processing and validation procedures.
#
#######################################################################

data_MIGKIW
_symmetry_cell_setting           tetragonal
_symmetry_space_group_name_H-M   'P 4/n c c'
_symmetry_Int_Tables_number      130
_space_group_name_Hall           '-P 4a 2ac'
loop_
_symmetry_equiv_pos_site_id
_symmetry_equiv_pos_as_xyz
1 x,y,z
2 1/2-y,x,z
3 y,1/2-x,z
4 1/2+y,1/2+x,1/2-z
5 1/2+x,1/2+y,-z
6 x,1/2-y,1/2+z
7 1/2-x,y,1/2+z
8 y,x,1/2+z
9 -x,-y,-z
10 1/2+y,-x,-z
11 -y,1/2+x,-z
12 1/2-y,1/2-x,1/2+z
13 1/2-x,1/2-y,z
14 -x,1/2+y,1/2-z
15 1/2+x,-y,1/2-z
16 -y,-x,1/2-z
_cell_length_a                   15.5776(7)
_cell_length_b                   15.5776(7)
_cell_length_c                   28.4289(16)
_cell_angle_alpha                90
_cell_angle_beta                 90
_cell_angle_gamma                90
_cell_volume                     6898.6
loop_
_atom_site_label
_atom_site_type_symbol
_atom_site_fract_x
_atom_site_fract_y
_atom_site_fract_z
Y1 Y 0.2500 0.2500 0.04955(3)
S1 S 0.21555(9) 0.04935(9) -0.00414(6)
O1 O 0.1887(3) 0.1410(2) 0.00308(15)
O2 O 0.2181(3) 0.3755(3) 0.09140(17)
N1 N 0.2004(6) 0.4908(5) 0.1373(3)
C1 C 0.2161(4) 0.0332(4) -0.0664(2)
C2 C 0.2503(5) -0.0424(5) -0.0824(3)
H1 H 0.2717 -0.0831 -0.0615
C3 C 0.2522(7) -0.0567(7) -0.1314(4)
H2 H 0.2738 -0.1079 -0.1435
C4 C 0.2226(8) 0.0042(10) -0.1602(4)
H3 H 0.2240 -0.0053 -0.1925
C5 C 0.1902(7) 0.0804(8) -0.1437(4)
H4 H 0.1707 0.1221 -0.1645
C6 C 0.1867(5) 0.0946(5) -0.0954(3)
H5 H 0.1644 0.1455 -0.0835
C7 C 0.1207(4) -0.0113(4) 0.0110(2)
H6 H 0.1279 -0.0698 0.0002
H7 H 0.1154 -0.0128 0.0450
C8 C 0.0393(4) 0.0241(4) -0.0093(2)
H8 H 0.0411 0.0194 -0.0433
H9 H 0.0344 0.0844 -0.0013
C9 C 0.2264(7) 0.4136(6) 0.1253(4)
H10 H 0.2569 0.3849 0.1486
C10 C 0.1606(17) 0.5421(12) 0.1064(6)
H11 H 0.1761 0.5255 0.0750
H12 H 0.1776 0.6005 0.1118
H13 H 0.0996 0.5369 0.1103
C11 C 0.2150(19) 0.5303(13) 0.1829(7)
H14 H 0.2499 0.4930 0.2019
H15 H 0.1610 0.5398 0.1982
H16 H 0.2439 0.5842 0.1787
C8H C -0.0393(4) -0.0241(4) 0.0093(2)
C7H C -0.1207(4) 0.0113(4) -0.0110(2)
S1H S -0.21555(9) -0.04935(9) 0.00414(6)
O1H O -0.1887(3) -0.1410(2) -0.00308(15)
C1H C -0.2161(4) -0.0332(4) 0.0664(2)
C2H C -0.2503(5) 0.0424(5) 0.0824(3)
H1H H -0.2717 0.0831 0.0615
C3H C -0.2522(7) 0.0567(7) 0.1314(4)
H2H H -0.2738 0.1079 0.1435
C4H C -0.2226(8) -0.0042(10) 0.1602(4)
H3H H -0.2240 0.0053 0.1925
C5H C -0.1902(7) -0.0804(8) 0.1437(4)
H4H H -0.1707 -0.1221 0.1645
C6H C -0.1867(5) -0.0946(5) 0.0954(3)
H5H H -0.1644 -0.1455 0.0835
H6H H -0.1279 0.0698 -0.0002
H7H H -0.1154 0.0128 -0.0450
H8H H -0.0411 -0.0194 0.0433
H9H H -0.0344 -0.0844 0.0013
S1A S 0.45065(9) 0.21555(9) -0.00414(6)
O1A O 0.3590(2) 0.1887(3) 0.00308(15)
C1A C 0.4668(4) 0.2161(4) -0.0664(2)
C2A C 0.5424(5) 0.2503(5) -0.0824(3)
H1A H 0.5831 0.2717 -0.0615
C3A C 0.5567(7) 0.2522(7) -0.1314(4)
H2A H 0.6079 0.2738 -0.1435
C4A C 0.4958(10) 0.2226(8) -0.1602(4)
H3A H 0.5053 0.2240 -0.1925
C5A C 0.4196(8) 0.1902(7) -0.1437(4)
H4A H 0.3779 0.1707 -0.1645
C6A C 0.4054(5) 0.1867(5) -0.0954(3)
H5A H 0.3545 0.1644 -0.0835
C7A C 0.5113(4) 0.1207(4) 0.0110(2)
H6A H 0.5698 0.1279 0.0002
H7A H 0.5128 0.1154 0.0450
C8A C 0.4759(4) 0.0393(4) -0.0093(2)
H8A H 0.4806 0.0411 -0.0433
H9A H 0.4156 0.0344 -0.0013
C8I C 0.5241(4) -0.0393(4) 0.0093(2)
C7I C 0.4887(4) -0.1207(4) -0.0110(2)
S1I S 0.54935(9) -0.21555(9) 0.00414(6)
O1I O 0.6410(2) -0.1887(3) -0.00308(15)
C1I C 0.5332(4) -0.2161(4) 0.0664(2)
C2I C 0.4576(5) -0.2503(5) 0.0824(3)
H1I H 0.4169 -0.2717 0.0615
C3I C 0.4433(7) -0.2522(7) 0.1314(4)
H2I H 0.3921 -0.2738 0.1435
C4I C 0.5042(10) -0.2226(8) 0.1602(4)
H3I H 0.4947 -0.2240 0.1925
C5I C 0.5804(8) -0.1902(7) 0.1437(4)
H4I H 0.6221 -0.1707 0.1645
C6I C 0.5946(5) -0.1867(5) 0.0954(3)
H5I H 0.6455 -0.1644 0.0835
H6I H 0.4302 -0.1279 -0.0002
H7I H 0.4872 -0.1154 -0.0450
H8I H 0.5194 -0.0411 0.0433
H9I H 0.5844 -0.0344 0.0013
O2A O 0.1245(3) 0.2181(3) 0.09140(17)
N1A N 0.0092(5) 0.2004(6) 0.1373(3)
C9A C 0.0864(6) 0.2264(7) 0.1253(4)
H10A H 0.1151 0.2569 0.1486
C10A C -0.0421(12) 0.1606(17) 0.1064(6)
H11A H -0.0255 0.1761 0.0750
H12A H -0.1005 0.1776 0.1118
H13A H -0.0369 0.0996 0.1103
C11A C -0.0303(13) 0.2150(19) 0.1829(7)
H14A H 0.0070 0.2499 0.2019
H15A H -0.0398 0.1610 0.1982
H16A H -0.0842 0.2439 0.1787
O2B O 0.3755(3) 0.2819(3) 0.09140(17)
N1B N 0.4908(5) 0.2996(6) 0.1373(3)
C9B C 0.4136(6) 0.2736(7) 0.1253(4)
H10B H 0.3849 0.2431 0.1486
C10B C 0.5421(12) 0.3394(17) 0.1064(6)
H11B H 0.5255 0.3239 0.0750
H12B H 0.6005 0.3224 0.1118
H13B H 0.5369 0.4004 0.1103
C11B C 0.5303(13) 0.2850(19) 0.1829(7)
H14B H 0.4930 0.2501 0.2019
H15B H 0.5398 0.3390 0.1982
H16B H 0.5842 0.2561 0.1787
O2L O 0.2819(3) 0.1245(3) 0.09140(17)
N1L N 0.2996(6) 0.0092(5) 0.1373(3)
C9L C 0.2736(7) 0.0864(6) 0.1253(4)
H10L H 0.2431 0.1151 0.1486
C10L C 0.3394(17) -0.0421(12) 0.1064(6)
H11L H 0.3239 -0.0255 0.0750
H12L H 0.3224 -0.1005 0.1118
H13L H 0.4004 -0.0369 0.1103
C11L C 0.2850(19) -0.0303(13) 0.1829(7)
H14L H 0.2501 0.0070 0.2019
H15L H 0.3390 -0.0398 0.1982
H16L H 0.2561 -0.0842 0.1787
O1B O 0.1410(2) 0.3113(3) 0.00308(15)
O1L O 0.3113(3) 0.3590(2) 0.00308(15)
Y1D Y -0.2500 -0.2500 -0.04955(3)
Y1D_2 Y 0.7500 -0.2500 -0.04955(3)
Cl1 Cl 0.2500 0.7500 0.0000
O3 O 0.3241(5) 0.7386(5) -0.0267(3)
O3I O 0.2386(5) 0.6759(5) 0.0267(3)
O3J O 0.2614(5) 0.8241(5) 0.0267(3)
O3L O 0.1759(5) 0.7614(5) -0.0267(3)
Cl2 Cl 0.2500 0.2500 0.2385(3)
O6 O 0.319(2) 0.197(3) 0.2456(15)
O6A O 0.303(3) 0.319(2) 0.2456(15)
O6B O 0.197(3) 0.181(2) 0.2456(15)
O6L O 0.181(2) 0.303(3) 0.2456(15)
Cl3 Cl 0.2500 0.7500 0.2500
O8 O 0.315(3) 0.734(3) 0.2217(18)
O8C O 0.234(3) 0.815(3) 0.2783(18)
O8L O 0.185(3) 0.766(3) 0.2217(18)
O8O O 0.266(3) 0.685(3) 0.2783(18)
O11 O 0.4009(9) 0.0295(9) -0.2433(5)
O12 O -0.0306(10) 0.4440(14) 0.1666(10)
O4? O 0.2500 0.2500 0.1926(5)
O5? O 0.2500 0.2500 0.2855(7)
O7? O 0.2500 0.7500 0.2019(8)
O9? O 0.3118(10) 0.6882(10) 0.2500
O10? O 0.3126(9) 0.8126(9) 0.2500
loop_
_geom_bond_atom_site_label_1
_geom_bond_atom_site_label_2
_geom_bond_site_symmetry_1
_geom_bond_site_symmetry_2
Y1 O1 1_555 1_555
S1 O1 1_555 1_555
O2 Y1 1_555 1_555
N1 C9 1_555 1_555
C1 S1 1_555 1_555
C2 C1 1_555 1_555
H1 C2 1_555 1_555
C3 C2 1_555 1_555
H2 C3 1_555 1_555
C4 C3 1_555 1_555
H3 C4 1_555 1_555
C5 C4 1_555 1_555
H4 C5 1_555 1_555
C6 C1 1_555 1_555
H5 C6 1_555 1_555
C7 S1 1_555 1_555
H6 C7 1_555 1_555
H7 C7 1_555 1_555
C8 C7 1_555 1_555
H8 C8 1_555 1_555
H9 C8 1_555 1_555
C9 O2 1_555 1_555
H10 C9 1_555 1_555
C10 N1 1_555 1_555
H11 C10 1_555 1_555
H12 C10 1_555 1_555
H13 C10 1_555 1_555
C11 N1 1_555 1_555
H14 C11 1_555 1_555
H15 C11 1_555 1_555
H16 C11 1_555 1_555
Cl1 O3 1_555 1_555
Cl2 O6 1_555 1_555
Cl3 O8 1_555 1_555
C8H C8 1_555 1_555
C7H C8H 1_555 1_555
S1H C7H 1_555 1_555
O1H S1H 1_555 1_555
C1H S1H 1_555 1_555
C2H C1H 1_555 1_555
H1H C2H 1_555 1_555
C3H C2H 1_555 1_555
H2H C3H 1_555 1_555
C4H C3H 1_555 1_555
H3H C4H 1_555 1_555
C5H C4H 1_555 1_555
H4H C5H 1_555 1_555
C6H C1H 1_555 1_555
H5H C6H 1_555 1_555
H6H C7H 1_555 1_555
H7H C7H 1_555 1_555
H8H C8H 1_555 1_555
H9H C8H 1_555 1_555
O3I Cl1 1_555 1_555
O3J Cl1 1_555 1_555
O3L Cl1 1_555 1_555
O6A Cl2 1_555 1_555
O6B Cl2 1_555 1_555
O6L Cl2 1_555 1_555
O8C Cl3 1_555 1_555
O8L Cl3 1_555 1_555
O8O Cl3 1_555 1_555
S1A O1A 1_555 1_555
O1A Y1 1_555 1_555
C1A S1A 1_555 1_555
C2A C1A 1_555 1_555
H1A C2A 1_555 1_555
C3A C2A 1_555 1_555
H2A C3A 1_555 1_555
C4A C3A 1_555 1_555
H3A C4A 1_555 1_555
C5A C4A 1_555 1_555
H4A C5A 1_555 1_555
C6A C1A 1_555 1_555
H5A C6A 1_555 1_555
C7A S1A 1_555 1_555
H6A C7A 1_555 1_555
H7A C7A 1_555 1_555
C8A C7A 1_555 1_555
H8A C8A 1_555 1_555
H9A C8A 1_555 1_555
C8I C8A 1_555 1_555
C7I C8I 1_555 1_555
S1I C7I 1_555 1_555
O1I S1I 1_555 1_555
C1I S1I 1_555 1_555
C2I C1I 1_555 1_555
H1I C2I 1_555 1_555
C3I C2I 1_555 1_555
H2I C3I 1_555 1_555
C4I C3I 1_555 1_555
H3I C4I 1_555 1_555
C5I C4I 1_555 1_555
H4I C5I 1_555 1_555
C6I C1I 1_555 1_555
H5I C6I 1_555 1_555
H6I C7I 1_555 1_555
H7I C7I 1_555 1_555
H8I C8I 1_555 1_555
H9I C8I 1_555 1_555
O2A Y1 1_555 1_555
N1A C9A 1_555 1_555
C9A O2A 1_555 1_555
H10A C9A 1_555 1_555
C10A N1A 1_555 1_555
H11A C10A 1_555 1_555
H12A C10A 1_555 1_555
H13A C10A 1_555 1_555
C11A N1A 1_555 1_555
H14A C11A 1_555 1_555
H15A C11A 1_555 1_555
H16A C11A 1_555 1_555
O2B Y1 1_555 1_555
N1B C9B 1_555 1_555
C9B O2B 1_555 1_555
H10B C9B 1_555 1_555
C10B N1B 1_555 1_555
H11B C10B 1_555 1_555
H12B C10B 1_555 1_555
H13B C10B 1_555 1_555
C11B N1B 1_555 1_555
H14B C11B 1_555 1_555
H15B C11B 1_555 1_555
H16B C11B 1_555 1_555
O2L Y1 1_555 1_555
N1L C9L 1_555 1_555
C9L O2L 1_555 1_555
H10L C9L 1_555 1_555
C10L N1L 1_555 1_555
H11L C10L 1_555 1_555
H12L C10L 1_555 1_555
H13L C10L 1_555 1_555
C11L N1L 1_555 1_555
H14L C11L 1_555 1_555
H15L C11L 1_555 1_555
H16L C11L 1_555 1_555
O1B Y1 1_555 1_555
O1L Y1 1_555 1_555
Y1D O1H 1_555 1_555
Y1D_2 O1I 1_555 1_555
C5 C6 1_555 1_555
C5H C6H 1_555 1_555
C5A C6A 1_555 1_555
C5I C6I 1_555 1_555

#END
