
#######################################################################
#
#                 Cambridge Crystallographic Data Centre
#                                CCDC 
#
#######################################################################
#
# If this CIF has been generated from an entry in the Cambridge 
# Structural Database, then it will include bibliographic, chemical, 
# crystal, experimental, refinement or atomic coordinate data resulting 
# from the CCDC's data processing and validation procedures.
#
#######################################################################

data_MIGPUP
_symmetry_cell_setting           triclinic
_symmetry_space_group_name_H-M   'P -1'
_symmetry_Int_Tables_number      2
_space_group_name_Hall           '-P 1'
loop_
_symmetry_equiv_pos_site_id
_symmetry_equiv_pos_as_xyz
1 x,y,z
2 -x,-y,-z
_cell_length_a                   10.4332(6)
_cell_length_b                   16.2774(10)
_cell_length_c                   20.1860(12)
_cell_angle_alpha                71.3210(10)
_cell_angle_beta                 82.4270(10)
_cell_angle_gamma                79.9300(10)
_cell_volume                     3186.93
loop_
_atom_site_label
_atom_site_type_symbol
_atom_site_fract_x
_atom_site_fract_y
_atom_site_fract_z
U1 U 0.12769(3) 0.227909(18) 0.777170(15)
U2 U -0.36883(3) 0.274212(18) 0.713705(14)
Zn1 Zn 0.68920(9) 0.05713(6) 0.89148(5)
Zn2 Zn 0.15753(9) 0.44340(6) 0.60164(5)
P1 P -0.10592(19) 0.10076(13) 0.74828(10)
P2 P 0.44553(19) 0.09569(13) 0.79662(11)
P3 P 0.31285(19) 0.40124(13) 0.74434(10)
P4 P -0.11453(19) 0.40445(13) 0.69534(11)
O1 O 0.0619(5) 0.1954(4) 0.8665(3)
O2 O 0.1927(5) 0.2618(3) 0.6894(3)
O3 O 0.2326(5) 0.3332(3) 0.7951(3)
O4 O 0.3003(5) 0.1215(4) 0.8115(3)
O5 O 0.0223(5) 0.1339(4) 0.7478(3)
O6 O -0.0508(5) 0.3312(3) 0.7549(3)
O7 O -0.1967(5) 0.1684(3) 0.6972(3)
O8 O -0.2407(5) 0.3825(3) 0.6801(3)
O9 O -0.3303(5) 0.2413(3) 0.8015(3)
O10 O -0.4080(5) 0.3064(4) 0.6255(3)
O11 O 0.4583(5) 0.3655(4) 0.7441(3)
O12 O -0.1672(5) 0.0664(4) 0.8216(3)
O13 O 0.5031(5) 0.1659(3) 0.7367(3)
O14 O 0.5161(5) 0.0703(4) 0.8632(3)
O15 O 0.2675(6) 0.4382(4) 0.6723(3)
O16 O -0.0229(5) 0.4296(4) 0.6299(3)
N1 N 0.7031(7) -0.0717(5) 0.9489(4)
N2 N 0.6387(7) -0.2004(4) 0.9945(3)
N3 N 0.7266(6) 0.1154(5) 0.9586(3)
N4 N 0.8229(7) 0.1992(5) 0.9979(3)
N5 N 0.2699(6) 0.3914(4) 0.5327(3)
N6 N 0.4343(6) 0.3087(4) 0.4953(3)
N7 N 0.1257(6) 0.5735(4) 0.5482(3)
N8 N 0.0120(7) 0.7031(4) 0.5071(3)
C1 C -0.0651(7) 0.0057(5) 0.7170(4)
C2 C -0.0638(8) 0.0109(6) 0.6471(5)
H1 H -0.0825 0.0649 0.6133
C3 C -0.0344(9) -0.0654(6) 0.6281(5)
H2 H -0.0339 -0.0617 0.5811
C4 C -0.0058(10) -0.1463(6) 0.6765(6)
H3 H 0.0130 -0.1965 0.6625
C5 C -0.0054(10) -0.1519(6) 0.7450(5)
H4 H 0.0149 -0.2061 0.7782
C6 C -0.0355(10) -0.0765(5) 0.7657(5)
H5 H -0.0359 -0.0811 0.8128
C7 C 0.4616(8) 0.0001(5) 0.7675(4)
C8 C 0.3525(9) -0.0351(6) 0.7623(4)
H6 H 0.2693 -0.0087 0.7730
C9 C 0.3678(10) -0.1097(7) 0.7410(5)
H7 H 0.2948 -0.1325 0.7364
C10 C 0.4914(11) -0.1498(7) 0.7266(5)
H8 H 0.5014 -0.2010 0.7142
C11 C 0.6008(11) -0.1147(6) 0.7306(5)
H9 H 0.6839 -0.1405 0.7190
C12 C 0.5848(9) -0.0412(6) 0.7519(5)
H10 H 0.6583 -0.0185 0.7559
C13 C 0.2904(8) 0.4948(5) 0.7772(4)
C14 C 0.2936(9) 0.5786(6) 0.7301(5)
H11 H 0.3065 0.5865 0.6822
C15 C 0.2776(9) 0.6495(6) 0.7547(5)
H12 H 0.2800 0.7050 0.7227
C16 C 0.2584(10) 0.6413(6) 0.8239(5)
H13 H 0.2485 0.6902 0.8395
C17 C 0.2536(9) 0.5580(7) 0.8715(5)
H14 H 0.2399 0.5510 0.9193
C18 C 0.2690(8) 0.4863(5) 0.8482(5)
H15 H 0.2650 0.4311 0.8805
C19 C -0.1602(8) 0.4981(5) 0.7280(4)
C20 C -0.2911(9) 0.5297(6) 0.7428(5)
H16 H -0.3569 0.5030 0.7349
C21 C -0.3237(11) 0.5997(7) 0.7690(5)
H17 H -0.4109 0.6203 0.7786
C22 C -0.2258(12) 0.6391(7) 0.7809(6)
H18 H -0.2475 0.6863 0.7988
C23 C -0.0975(11) 0.6100(7) 0.7669(5)
H19 H -0.0324 0.6371 0.7751
C24 C -0.0647(9) 0.5398(6) 0.7403(5)
H20 H 0.0228 0.5202 0.7306
C25 C 0.6263(9) -0.1239(6) 0.9426(4)
H21 H 0.5706 -0.1100 0.9070
C26 C 0.7668(8) -0.1163(6) 1.0081(4)
H22 H 0.8276 -0.0947 1.0255
C27 C 0.7286(9) -0.1957(6) 1.0374(4)
H23 H 0.7566 -0.2384 1.0778
C28 C 0.5644(8) -0.2698(5) 1.0054(4)
C29 C 0.5516(10) -0.2991(7) 0.9497(5)
H24 H 0.5913 -0.2738 0.9055
C30 C 0.4791(12) -0.3667(8) 0.9605(7)
H25 H 0.4699 -0.3866 0.9233
C31 C 0.4208(10) -0.4044(7) 1.0259(6)
H26 H 0.3707 -0.4489 1.0328
C32 C 0.4368(9) -0.3762(6) 1.0804(6)
H27 H 0.3994 -0.4033 1.1248
C33 C 0.5070(8) -0.3086(6) 1.0718(5)
H28 H 0.5157 -0.2895 1.1095
C34 C 0.7105(10) 0.0892(6) 1.0307(4)
H29 H 0.6668 0.0432 1.0584
C35 C 0.7672(11) 0.1401(7) 1.0547(5)
H30 H 0.7689 0.1364 1.1015
C36 C 0.7935(7) 0.1813(6) 0.9412(4)
H31 H 0.8179 0.2122 0.8952
C37 C 0.9632(9) 0.2531(6) 1.0563(4)
H32 H 0.9539 0.2049 1.0957
C38 C 1.0398(11) 0.3128(8) 1.0564(5)
H33 H 1.0850 0.3038 1.0954
C39 C 1.0511(10) 0.3852(7) 1.0004(6)
H34 H 1.1007 0.4269 1.0015
C40 C 0.9870(9) 0.3959(7) 0.9413(6)
H35 H 0.9966 0.4444 0.9022
C41 C 0.9097(9) 0.3362(6) 0.9396(5)
H36 H 0.8657 0.3446 0.9003
C42 C 0.8993(8) 0.2643(6) 0.9974(4)
C43 C 0.3479(7) 0.3170(6) 0.5502(4)
H37 H 0.3446 0.2754 0.5943
C44 C 0.3069(9) 0.4341(6) 0.4633(4)
H38 H 0.2670 0.4883 0.4368
C45 C 0.4086(9) 0.3854(6) 0.4403(5)
H39 H 0.4536 0.3999 0.3961
C46 C 0.5342(8) 0.2357(5) 0.4944(4)
C47 C 0.6001(10) 0.2290(6) 0.4333(5)
H40 H 0.5812 0.2725 0.3914
C48 C 0.6951(10) 0.1582(7) 0.4323(6)
H41 H 0.7384 0.1542 0.3899
C49 C 0.7257(11) 0.0941(7) 0.4935(6)
H42 H 0.7906 0.0471 0.4932
C50 C 0.6577(9) 0.1009(6) 0.5557(5)
H43 H 0.6774 0.0577 0.5975
C51 C 0.5611(9) 0.1707(6) 0.5569(5)
H44 H 0.5151 0.1739 0.5989
C52 C 0.0099(8) 0.6201(6) 0.5488(4)
H45 H -0.0642 0.5985 0.5747
C53 C 0.2058(9) 0.6282(6) 0.5037(5)
H46 H 0.2943 0.6125 0.4927
C54 C 0.1379(9) 0.7090(6) 0.4775(5)
H47 H 0.1698 0.7582 0.4462
C55 C -0.0969(8) 0.7707(5) 0.4956(5)
C56 C -0.1793(9) 0.7846(7) 0.5523(5)
H48 H -0.1649 0.7500 0.5980
C57 C -0.2840(10) 0.8518(8) 0.5385(7)
H49 H -0.3402 0.8620 0.5757
C58 C -0.3059(10) 0.9026(7) 0.4726(7)
H50 H -0.3758 0.9478 0.4651
C59 C -0.2258(11) 0.8884(7) 0.4159(6)
H51 H -0.2425 0.9222 0.3703
C60 C -0.1193(9) 0.8221(6) 0.4288(5)
H52 H -0.0628 0.8128 0.3914
U2_2 U 0.63117(3) 0.274212(18) 0.713705(14)
Zn1_2 Zn -0.31080(9) 0.05713(6) 0.89148(5)
O11_2 O -0.5417(5) 0.3655(4) 0.7441(3)
O12_2 O 0.8328(5) 0.0664(4) 0.8216(3)
O13_2 O -0.4969(5) 0.1659(3) 0.7367(3)
loop_
_geom_bond_atom_site_label_1
_geom_bond_atom_site_label_2
_geom_bond_site_symmetry_1
_geom_bond_site_symmetry_2
U1 O1 1_555 1_555
U2 O7 1_555 1_555
Zn1 O14 1_555 1_555
Zn2 O15 1_555 1_555
P1 O5 1_555 1_555
P2 O4 1_555 1_555
P3 O3 1_555 1_555
P4 O6 1_555 1_555
O2 U1 1_555 1_555
O3 U1 1_555 1_555
O4 U1 1_555 1_555
O5 U1 1_555 1_555
O6 U1 1_555 1_555
O7 P1 1_555 1_555
O8 U2 1_555 1_555
O9 U2 1_555 1_555
O10 U2 1_555 1_555
O11 P3 1_555 1_555
O12 P1 1_555 1_555
O13 P2 1_555 1_555
O14 P2 1_555 1_555
O15 P3 1_555 1_555
O16 Zn2 1_555 1_555
N1 Zn1 1_555 1_555
N2 C25 1_555 1_555
N3 Zn1 1_555 1_555
N4 C35 1_555 1_555
N5 Zn2 1_555 1_555
N6 C43 1_555 1_555
N7 Zn2 1_555 1_555
N8 C52 1_555 1_555
C1 P1 1_555 1_555
C2 C1 1_555 1_555
H1 C2 1_555 1_555
C3 C2 1_555 1_555
H2 C3 1_555 1_555
C4 C3 1_555 1_555
H3 C4 1_555 1_555
C5 C4 1_555 1_555
H4 C5 1_555 1_555
C6 C1 1_555 1_555
H5 C6 1_555 1_555
C7 P2 1_555 1_555
C8 C7 1_555 1_555
H6 C8 1_555 1_555
C9 C8 1_555 1_555
H7 C9 1_555 1_555
C10 C9 1_555 1_555
H8 C10 1_555 1_555
C11 C10 1_555 1_555
H9 C11 1_555 1_555
C12 C7 1_555 1_555
H10 C12 1_555 1_555
C13 P3 1_555 1_555
C14 C13 1_555 1_555
H11 C14 1_555 1_555
C15 C14 1_555 1_555
H12 C15 1_555 1_555
C16 C15 1_555 1_555
H13 C16 1_555 1_555
C17 C16 1_555 1_555
H14 C17 1_555 1_555
C18 C13 1_555 1_555
H15 C18 1_555 1_555
C19 P4 1_555 1_555
C20 C19 1_555 1_555
H16 C20 1_555 1_555
C21 C20 1_555 1_555
H17 C21 1_555 1_555
C22 C21 1_555 1_555
H18 C22 1_555 1_555
C23 C22 1_555 1_555
H19 C23 1_555 1_555
C24 C19 1_555 1_555
H20 C24 1_555 1_555
C25 N1 1_555 1_555
H21 C25 1_555 1_555
C26 N1 1_555 1_555
H22 C26 1_555 1_555
C27 N2 1_555 1_555
H23 C27 1_555 1_555
C28 N2 1_555 1_555
C29 C28 1_555 1_555
H24 C29 1_555 1_555
C30 C29 1_555 1_555
H25 C30 1_555 1_555
C31 C30 1_555 1_555
H26 C31 1_555 1_555
C32 C31 1_555 1_555
H27 C32 1_555 1_555
C33 C28 1_555 1_555
H28 C33 1_555 1_555
C34 N3 1_555 1_555
H29 C34 1_555 1_555
C35 C34 1_555 1_555
H30 C35 1_555 1_555
C36 N3 1_555 1_555
H31 C36 1_555 1_555
C37 H32 1_555 1_555
C38 C37 1_555 1_555
H33 C38 1_555 1_555
C39 C38 1_555 1_555
H34 C39 1_555 1_555
C40 C39 1_555 1_555
H35 C40 1_555 1_555
C41 C40 1_555 1_555
H36 C41 1_555 1_555
C42 N4 1_555 1_555
C43 N5 1_555 1_555
H37 C43 1_555 1_555
C44 N5 1_555 1_555
H38 C44 1_555 1_555
C45 N6 1_555 1_555
H39 C45 1_555 1_555
C46 N6 1_555 1_555
C47 C46 1_555 1_555
H40 C47 1_555 1_555
C48 C47 1_555 1_555
H41 C48 1_555 1_555
C49 C48 1_555 1_555
H42 C49 1_555 1_555
C50 C49 1_555 1_555
H43 C50 1_555 1_555
C51 C46 1_555 1_555
H44 C51 1_555 1_555
C52 N7 1_555 1_555
H45 C52 1_555 1_555
C53 N7 1_555 1_555
H46 C53 1_555 1_555
C54 N8 1_555 1_555
H47 C54 1_555 1_555
C55 N8 1_555 1_555
C56 C55 1_555 1_555
H48 C56 1_555 1_555
C57 C56 1_555 1_555
H49 C57 1_555 1_555
C58 C57 1_555 1_555
H50 C58 1_555 1_555
C59 C58 1_555 1_555
H51 C59 1_555 1_555
C60 C55 1_555 1_555
H52 C60 1_555 1_555
U2_2 O11 1_555 1_555
Zn1_2 O12 1_555 1_555
O11_2 U2 1_555 1_555
O12_2 Zn1 1_555 1_555
O13_2 U2 1_555 1_555
P4 O8 1_555 1_555
P4 O16 1_555 1_555
O13 U2_2 1_555 1_555
N4 C36 1_555 1_555
C5 C6 1_555 1_555
C11 C12 1_555 1_555
C17 C18 1_555 1_555
C23 C24 1_555 1_555
C26 C27 1_555 1_555
C32 C33 1_555 1_555
C37 C42 1_555 1_555
C41 C42 1_555 1_555
C44 C45 1_555 1_555
C50 C51 1_555 1_555
C53 C54 1_555 1_555
C59 C60 1_555 1_555

#END
