
#######################################################################
#
#                 Cambridge Crystallographic Data Centre
#                                CCDC 
#
#######################################################################
#
# If this CIF has been generated from an entry in the Cambridge 
# Structural Database, then it will include bibliographic, chemical, 
# crystal, experimental, refinement or atomic coordinate data resulting 
# from the CCDC's data processing and validation procedures.
#
#######################################################################

data_MIGQIE
_symmetry_cell_setting           monoclinic
_symmetry_space_group_name_H-M   'P 21/n'
_symmetry_Int_Tables_number      14
_space_group_name_Hall           '-P 2yn'
loop_
_symmetry_equiv_pos_site_id
_symmetry_equiv_pos_as_xyz
1 x,y,z
2 1/2-x,1/2+y,1/2-z
3 -x,-y,-z
4 1/2+x,1/2-y,1/2+z
_cell_length_a                   13.6408(9)
_cell_length_b                   20.8488(13)
_cell_length_c                   13.9140(8)
_cell_angle_alpha                90
_cell_angle_beta                 115.9900(10)
_cell_angle_gamma                90
_cell_volume                     3556.89
loop_
_atom_site_label
_atom_site_type_symbol
_atom_site_fract_x
_atom_site_fract_y
_atom_site_fract_z
U1 U 0.89759(2) 0.007355(16) 0.05315(2)
U2 U 1.17589(2) -0.014368(16) 0.27171(2)
S1 S 0.69878(17) 0.07930(11) 0.13368(16)
O1 O 0.8940(4) -0.0769(3) 0.0736(4)
O2 O 0.8941(4) 0.0912(3) 0.0371(4)
O3 O 1.1462(4) -0.0981(3) 0.2662(4)
O4 O 1.2182(5) 0.0672(3) 0.2886(4)
O5 O 1.0812(4) 0.0018(3) 0.0994(4)
O6 O 1.0018(4) 0.0143(3) 0.2431(4)
O7 O 0.7683(4) 0.0261(3) 0.1331(4)
O8 O 0.6155(4) 0.0958(3) 0.0286(4)
O9 O 0.7604(5) 0.1340(3) 0.1945(5)
O10 O 0.8064(4) 0.0130(3) 0.5392(4)
O11 O 0.6542(4) 0.0296(3) 0.5553(4)
O12 O 0.3161(4) -0.0390(3) 0.2230(4)
O13 O 0.2936(4) 0.0154(3) 0.0769(4)
C1 C 0.6308(6) 0.0491(4) 0.2081(6)
C2 C 0.5212(6) 0.0338(4) 0.1591(6)
H1 H 0.4820 0.0378 0.0854
C3 C 0.4695(6) 0.0124(4) 0.2194(5)
C4 C 0.5297(6) 0.0074(4) 0.3305(6)
H2 H 0.4956 -0.0058 0.3722
C5 C 0.6399(6) 0.0221(4) 0.3785(6)
C6 C 0.6913(6) 0.0417(4) 0.3158(6)
H3 H 0.7660 0.0496 0.3471
C7 C 0.3519(6) -0.0049(4) 0.1690(6)
C8 C 0.7048(6) 0.0201(4) 0.4994(6)
U1B U 0.10241(2) -0.007355(16) -0.05315(2)
U1B_2 U 1.10241(2) -0.007355(16) -0.05315(2)
U2_2 U 0.17589(2) -0.014368(16) 0.27171(2)
U2B U 0.82411(2) 0.014368(16) 0.72829(2)
O5B O 0.9188(4) -0.0018(3) -0.0994(4)
O10B O 1.1936(4) -0.0130(3) 0.4608(4)
O11B O 1.3458(4) -0.0296(3) 0.4447(4)
O12_2 O 1.3161(4) -0.0390(3) 0.2230(4)
O13B O 0.7064(4) -0.0154(3) -0.0769(4)
N1 N 0.4724(6) 0.2209(3) 0.4148(6)
N2 N 0.5904(7) 0.2580(4) 0.3620(7)
N3 N 0.1280(7) 0.1968(4) 0.5311(6)
N4 N -0.0066(8) 0.2195(5) 0.5717(8)
C9 C 0.3865(6) 0.2160(4) 0.4483(7)
C10 C 0.3563(8) 0.1587(5) 0.4683(9)
H4 H 0.3930 0.1223 0.4631
C11 C 0.2713(8) 0.1524(5) 0.4965(9)
H5 H 0.2513 0.1120 0.5100
C12 C 0.2179(7) 0.2046(5) 0.5043(7)
C13 C 0.2473(9) 0.2642(5) 0.4847(8)
H6 H 0.2104 0.3006 0.4898
C14 C 0.3331(9) 0.2694(5) 0.4569(9)
H7 H 0.3543 0.3096 0.4441
C15 C 0.5265(11) 0.1690(6) 0.4002(12)
H8 H 0.5162 0.1258 0.4101
C16 C 0.5987(11) 0.1952(6) 0.3677(11)
H9 H 0.6476 0.1716 0.3517
C17 C 0.5147(7) 0.2732(5) 0.3919(7)
H10 H 0.4932 0.3150 0.3966
C18 C 0.0711(8) 0.2431(5) 0.5502(8)
H11 H 0.0847 0.2867 0.5485
C19 C 0.0819(12) 0.1407(7) 0.5392(12)
H12 H 0.1030 0.0997 0.5296
C20 C 0.0005(12) 0.1558(7) 0.5634(14)
H13 H -0.0452 0.1261 0.5732
N5 N 0.6109(5) 0.8093(3) 0.2070(5)
N6 N 0.7545(7) 0.8120(4) 0.1769(7)
N7 N 0.2949(6) 0.7258(3) 0.3385(5)
N8 N 0.1600(6) 0.7283(4) 0.3820(6)
C21 C 0.3753(7) 0.7467(4) 0.3044(7)
C22 C 0.3858(8) 0.8091(5) 0.2885(9)
H14 H 0.3411 0.8390 0.2995
C23 C 0.4642(9) 0.8296(5) 0.2552(10)
H15 H 0.4710 0.8731 0.2439
C24 C 0.5291(7) 0.7870(4) 0.2397(7)
C25 C 0.5183(8) 0.7241(5) 0.2575(8)
H16 H 0.5642 0.6943 0.2484
C26 C 0.4408(8) 0.7032(5) 0.2890(8)
H17 H 0.4337 0.6597 0.2995
C27 C 0.6946(8) 0.7760(5) 0.2084(8)
H18 H 0.7089 0.7333 0.2287
C28 C 0.7075(9) 0.8712(5) 0.1560(9)
H19 H 0.7333 0.9069 0.1342
C29 C 0.6182(8) 0.8691(5) 0.1720(9)
H20 H 0.5695 0.9026 0.1612
C30 C 0.2200(7) 0.7629(5) 0.3464(8)
H21 H 0.2106 0.8064 0.3298
C31 C 0.2859(8) 0.6657(5) 0.3723(8)
H22 H 0.3290 0.6302 0.3770
C32 C 0.1997(8) 0.6687(5) 0.3979(8)
H23 H 0.1731 0.6345 0.4226
O14 O 1.024(3) -0.0033(16) 0.551(2)
loop_
_geom_bond_atom_site_label_1
_geom_bond_atom_site_label_2
_geom_bond_site_symmetry_1
_geom_bond_site_symmetry_2
U1 O1 1_555 1_555
U2 O3 1_555 1_555
S1 O7 1_555 1_555
O2 U1 1_555 1_555
O4 U2 1_555 1_555
O5 U1 1_555 1_555
O6 U1 1_555 1_555
O7 U1 1_555 1_555
O8 S1 1_555 1_555
O9 S1 1_555 1_555
O10 C8 1_555 1_555
O11 C8 1_555 1_555
O12 C7 1_555 1_555
O13 C7 1_555 1_555
C1 S1 1_555 1_555
C2 C1 1_555 1_555
H1 C2 1_555 1_555
C3 C2 1_555 1_555
C4 C3 1_555 1_555
H2 C4 1_555 1_555
C5 C4 1_555 1_555
C6 C1 1_555 1_555
H3 C6 1_555 1_555
C7 C3 1_555 1_555
C8 C5 1_555 1_555
N1 C9 1_555 1_555
N2 C16 1_555 1_555
N3 C12 1_555 1_555
N4 C18 1_555 1_555
C9 C10 1_555 1_555
C10 H4 1_555 1_555
C11 C10 1_555 1_555
H5 C11 1_555 1_555
C12 C11 1_555 1_555
C13 C12 1_555 1_555
H6 C13 1_555 1_555
C14 C9 1_555 1_555
H7 C14 1_555 1_555
C15 N1 1_555 1_555
H8 C15 1_555 1_555
C16 C15 1_555 1_555
H9 C16 1_555 1_555
C17 N1 1_555 1_555
H10 C17 1_555 1_555
C18 N3 1_555 1_555
H11 C18 1_555 1_555
C19 N3 1_555 1_555
H12 C19 1_555 1_555
C20 N4 1_555 1_555
H13 C20 1_555 1_555
N5 C24 1_555 1_555
N6 C27 1_555 1_555
N7 C21 1_555 1_555
N8 C30 1_555 1_555
C21 C22 1_555 1_555
C22 H14 1_555 1_555
C23 C22 1_555 1_555
H15 C23 1_555 1_555
C24 C23 1_555 1_555
C25 C24 1_555 1_555
H16 C25 1_555 1_555
C26 C21 1_555 1_555
H17 C26 1_555 1_555
C27 N5 1_555 1_555
H18 C27 1_555 1_555
C28 N6 1_555 1_555
H19 C28 1_555 1_555
C29 N5 1_555 1_555
H20 C29 1_555 1_555
C30 N7 1_555 1_555
H21 C30 1_555 1_555
C31 N7 1_555 1_555
H22 C31 1_555 1_555
C32 N8 1_555 1_555
H23 C32 1_555 1_555
U1B O13 1_555 1_555
U1B_2 O5 1_555 1_555
U2_2 O12 1_555 1_555
U2B O10 1_555 1_555
O5B U1 1_555 1_555
O10B U2 1_555 1_555
O11B U2 1_555 1_555
O12_2 U2 1_555 1_555
O13B U1 1_555 1_555
U2 O5 1_555 1_555
U2 O6 1_555 1_555
O11 U2B 1_555 1_555
C5 C6 1_555 1_555
N2 C17 1_555 1_555
C13 C14 1_555 1_555
C19 C20 1_555 1_555
C25 C26 1_555 1_555
C28 C29 1_555 1_555
C31 C32 1_555 1_555
U1B_2 O5B 1_555 1_555

#END
