
#######################################################################
#
#                 Cambridge Crystallographic Data Centre
#                                CCDC 
#
#######################################################################
#
# If this CIF has been generated from an entry in the Cambridge 
# Structural Database, then it will include bibliographic, chemical, 
# crystal, experimental, refinement or atomic coordinate data resulting 
# from the CCDC's data processing and validation procedures.
#
#######################################################################

data_MIGSEA
_symmetry_cell_setting           monoclinic
_symmetry_space_group_name_H-M   'P 21/n'
_symmetry_Int_Tables_number      14
_space_group_name_Hall           '-P 2yn'
loop_
_symmetry_equiv_pos_site_id
_symmetry_equiv_pos_as_xyz
1 x,y,z
2 1/2+x,1/2-y,1/2+z
3 -x,-y,-z
4 1/2-x,1/2+y,1/2-z
_cell_length_a                   16.3005(3)
_cell_length_b                   20.1563(4)
_cell_length_c                   17.2929(5)
_cell_angle_alpha                90
_cell_angle_beta                 92.8350(10)
_cell_angle_gamma                90
_cell_volume                     5674.76
loop_
_atom_site_label
_atom_site_type_symbol
_atom_site_fract_x
_atom_site_fract_y
_atom_site_fract_z
Pd1 Pd 0.68881(6) 0.12561(4) 0.79341(6)
P1 P 0.7922(2) 0.19390(17) 0.8354(2)
P2 P 0.6496(2) 0.19353(18) 0.6942(2)
C1 C 0.8333(8) 0.2537(8) 0.7697(9)
H1 H 0.8688 0.2853 0.7997
H2 H 0.8681 0.2302 0.7331
C2 C 0.7669(10) 0.2928(8) 0.7233(10)
H3 H 0.7259 0.3091 0.7592
H4 H 0.7925 0.3321 0.6999
C3 C 0.7229(9) 0.2528(9) 0.6596(10)
H5 H 0.7643 0.2287 0.6305
H6 H 0.6938 0.2837 0.6232
C4 C 0.7662(5) 0.2419(5) 0.9196(5)
C5 C 0.6885(5) 0.2352(5) 0.9484(6)
H7 H 0.6487 0.2077 0.9225
C6 C 0.6691(6) 0.2689(6) 1.0153(7)
H8 H 0.6160 0.2644 1.0350
C7 C 0.7273(8) 0.3093(7) 1.0532(7)
H9 H 0.7141 0.3323 1.0989
C8 C 0.8050(7) 0.3159(6) 1.0243(7)
H10 H 0.8448 0.3435 1.0503
C9 C 0.8244(5) 0.2822(5) 0.9575(6)
H11 H 0.8775 0.2868 0.9378
C10 C 0.8800(5) 0.1440(4) 0.8655(6)
C11 C 0.8999(6) 0.1302(5) 0.9429(5)
H12 H 0.8687 0.1493 0.9822
C12 C 0.9654(7) 0.0884(6) 0.9628(6)
H13 H 0.9790 0.0789 1.0157
C13 C 1.0110(6) 0.0604(5) 0.9053(9)
H14 H 1.0557 0.0318 0.9190
C14 C 0.9911(6) 0.0742(6) 0.8279(8)
H15 H 1.0223 0.0551 0.7886
C15 C 0.9256(6) 0.1160(6) 0.8080(5)
H16 H 0.9120 0.1255 0.7551
C16 C 0.5577(5) 0.2408(5) 0.7126(5)
C17 C 0.5242(6) 0.2844(5) 0.6574(5)
H17 H 0.5498 0.2901 0.6096
C18 C 0.4534(6) 0.3197(5) 0.6720(6)
H18 H 0.4306 0.3496 0.6342
C19 C 0.4161(6) 0.3114(5) 0.7419(7)
H19 H 0.3677 0.3356 0.7519
C20 C 0.4495(6) 0.2678(5) 0.7971(5)
H20 H 0.4240 0.2621 0.8449
C21 C 0.5203(6) 0.2325(5) 0.7825(5)
H21 H 0.5432 0.2027 0.8203
C22 C 0.6238(7) 0.1431(5) 0.6103(6)
C23 C 0.6880(6) 0.1131(8) 0.5735(7)
H22 H 0.7432 0.1210 0.5913
C24 C 0.6714(10) 0.0714(8) 0.5106(7)
H23 H 0.7153 0.0509 0.4854
C25 C 0.5907(12) 0.0598(7) 0.4845(7)
H24 H 0.5793 0.0313 0.4415
C26 C 0.5265(8) 0.0899(7) 0.5213(8)
H25 H 0.4713 0.0819 0.5035
C27 C 0.5431(6) 0.1315(6) 0.5842(7)
H26 H 0.4992 0.1520 0.6094
N1 N 0.7241(6) 0.0574(5) 0.8807(6)
C28 C 0.6919(7) 0.0571(6) 0.9499(7)
H27 H 0.6544 0.0913 0.9615
C29 C 0.7100(8) 0.0095(6) 1.0063(7)
H28 H 0.6865 0.0117 1.0554
C30 C 0.7639(7) -0.0418(6) 0.9890(7)
C31 C 0.7986(8) -0.0410(6) 0.9169(7)
H29 H 0.8377 -0.0735 0.9036
C32 C 0.7745(8) 0.0084(6) 0.8654(8)
H30 H 0.7959 0.0071 0.8153
N2 N 0.7811(6) -0.0883(5) 1.0457(6)
H31 H 0.7629 -0.0795 1.0916
C33 C 0.8235(8) -0.1471(6) 1.0393(7)
O1 O 0.8589(6) -0.1617(4) 0.9811(5)
N3 N 1.0991(6) -0.5555(5) 1.2584(6)
C34 C 1.0216(8) -0.5524(6) 1.2846(8)
H32 H 1.0038 -0.5869 1.3173
C35 C 0.9690(8) -0.5025(6) 1.2659(8)
H33 H 0.9147 -0.5039 1.2833
C36 C 0.9930(7) -0.4491(6) 1.2218(7)
C37 C 1.0722(8) -0.4523(6) 1.1938(7)
H34 H 1.0912 -0.4184 1.1609
C38 C 1.1217(8) -0.5046(7) 1.2144(8)
H35 H 1.1758 -0.5050 1.1964
N4 N 0.9388(6) -0.3969(5) 1.2082(7)
H36 H 0.8895 -0.4018 1.2259
C39 C 0.9531(8) -0.3382(6) 1.1705(8)
O2 O 1.0171(5) -0.3285(5) 1.1380(6)
C40 C 0.8878(8) -0.2872(6) 1.1715(7)
C41 C 0.7752(10) -0.2312(7) 1.2273(9)
H37 H 0.7386 -0.2270 1.2681
C42 C 0.7682(9) -0.1868(7) 1.1660(8)
H38 H 0.7267 -0.1537 1.1637
C43 C 0.8244(8) -0.1924(6) 1.1077(7)
C44 C 0.8820(7) -0.2424(6) 1.1105(7)
H39 H 0.9186 -0.2464 1.0697
C45 C 0.8331(9) -0.2815(7) 1.2314(9)
H40 H 0.8359 -0.3114 1.2739
N3A N 0.5991(6) 0.0555(5) 0.7584(6)
Pd1A Pd 1.18881(6) -0.62561(4) 1.29341(6)
F1 F 0.5085(16) 0.1482(11) 1.1181(10)
F2 F 0.4066(8) 0.0880(8) 1.1056(7)
F3 F 0.5138(14) 0.0608(12) 1.0609(11)
C46 C 0.4682(11) 0.1126(13) 1.0709(12)
S1 S 0.4431(3) 0.1527(3) 0.9803(3)
O3 O 0.3825(16) 0.1978(11) 1.0004(12)
O4 O 0.5194(10) 0.1686(13) 0.9533(11)
O5 O 0.4016(10) 0.1042(10) 0.9322(9)
F4 F 0.1533(12) -0.0162(12) 0.6320(9)
F5 F 0.2646(12) 0.0346(8) 0.6409(8)
F6 F 0.1573(9) 0.0760(8) 0.6887(8)
C47 C 0.2017(17) 0.0190(11) 0.6786(11)
S2 S 0.2241(2) -0.01972(17) 0.7694(2)
O6 O 0.2730(6) 0.0305(5) 0.8088(6)
O7 O 0.2706(7) -0.0766(5) 0.7478(8)
O8 O 0.1469(7) -0.0321(6) 0.8014(8)
C48 C 0.932(2) -0.070(2) 0.689(3)
H41 H 0.9152 -0.0770 0.7422
H42 H 0.9817 -0.0418 0.6910
H43 H 0.9446 -0.1125 0.6656
C49 C 0.8700(13) -0.0384(11) 0.6463(15)
C50 C 0.869(5) -0.044(3) 0.565(3)
H44 H 0.8210 -0.0213 0.5415
H45 H 0.8671 -0.0912 0.5500
H46 H 0.9193 -0.0241 0.5456
O9 O 0.8211(10) -0.0062(12) 0.6762(10)
O10 O 0.9037(14) 0.162(2) 0.5963(17)
H47 H 0.8713 0.1440 0.6266
C51 C 0.982(3) 0.158(3) 0.628(3)
H48 H 1.0009 0.2032 0.6418
H49 H 1.0181 0.1391 0.5905
H50 H 0.9828 0.1308 0.6747
loop_
_geom_bond_atom_site_label_1
_geom_bond_atom_site_label_2
_geom_bond_site_symmetry_1
_geom_bond_site_symmetry_2
Pd1 P1 1_555 1_555
P1 C1 1_555 1_555
P2 Pd1 1_555 1_555
C1 H1 1_555 1_555
H2 C1 1_555 1_555
C2 C1 1_555 1_555
H3 C2 1_555 1_555
H4 C2 1_555 1_555
C3 P2 1_555 1_555
H5 C3 1_555 1_555
H6 C3 1_555 1_555
C4 P1 1_555 1_555
C5 C4 1_555 1_555
H7 C5 1_555 1_555
C6 C5 1_555 1_555
H8 C6 1_555 1_555
C7 C6 1_555 1_555
H9 C7 1_555 1_555
C8 C7 1_555 1_555
H10 C8 1_555 1_555
C9 C4 1_555 1_555
H11 C9 1_555 1_555
C10 P1 1_555 1_555
C11 C10 1_555 1_555
H12 C11 1_555 1_555
C12 C11 1_555 1_555
H13 C12 1_555 1_555
C13 C12 1_555 1_555
H14 C13 1_555 1_555
C14 C13 1_555 1_555
H15 C14 1_555 1_555
C15 C10 1_555 1_555
H16 C15 1_555 1_555
C16 P2 1_555 1_555
C17 C16 1_555 1_555
H17 C17 1_555 1_555
C18 C17 1_555 1_555
H18 C18 1_555 1_555
C19 C18 1_555 1_555
H19 C19 1_555 1_555
C20 C19 1_555 1_555
H20 C20 1_555 1_555
C21 C16 1_555 1_555
H21 C21 1_555 1_555
C22 P2 1_555 1_555
C23 C22 1_555 1_555
H22 C23 1_555 1_555
C24 C23 1_555 1_555
H23 C24 1_555 1_555
C25 C24 1_555 1_555
H24 C25 1_555 1_555
C26 C25 1_555 1_555
H25 C26 1_555 1_555
C27 C22 1_555 1_555
H26 C27 1_555 1_555
N1 Pd1 1_555 1_555
C28 N1 1_555 1_555
H27 C28 1_555 1_555
C29 C28 1_555 1_555
H28 C29 1_555 1_555
C30 C29 1_555 1_555
C31 C30 1_555 1_555
H29 C31 1_555 1_555
C32 N1 1_555 1_555
H30 C32 1_555 1_555
N2 C30 1_555 1_555
H31 N2 1_555 1_555
C33 N2 1_555 1_555
O1 C33 1_555 1_555
N3 C34 1_555 1_555
C34 H32 1_555 1_555
C35 C34 1_555 1_555
H33 C35 1_555 1_555
C36 C35 1_555 1_555
C37 C36 1_555 1_555
H34 C37 1_555 1_555
C38 N3 1_555 1_555
H35 C38 1_555 1_555
N4 C36 1_555 1_555
H36 N4 1_555 1_555
C39 N4 1_555 1_555
O2 C39 1_555 1_555
C40 C39 1_555 1_555
C41 H37 1_555 1_555
C42 C41 1_555 1_555
H38 C42 1_555 1_555
C43 C33 1_555 1_555
C44 C40 1_555 1_555
H39 C44 1_555 1_555
C45 C40 1_555 1_555
H40 C45 1_555 1_555
F1 C46 1_555 1_555
F2 C46 1_555 1_555
F3 C46 1_555 1_555
C46 S1 1_555 1_555
S1 O3 1_555 1_555
O4 S1 1_555 1_555
O5 S1 1_555 1_555
F4 C47 1_555 1_555
F5 C47 1_555 1_555
F6 C47 1_555 1_555
C47 S2 1_555 1_555
S2 O6 1_555 1_555
O7 S2 1_555 1_555
O8 S2 1_555 1_555
C48 H41 1_555 1_555
H42 C48 1_555 1_555
H43 C48 1_555 1_555
C49 C48 1_555 1_555
C50 C49 1_555 1_555
H44 C50 1_555 1_555
H45 C50 1_555 1_555
H46 C50 1_555 1_555
O9 C49 1_555 1_555
O10 H47 1_555 1_555
C51 O10 1_555 1_555
H48 C51 1_555 1_555
H49 C51 1_555 1_555
H50 C51 1_555 1_555
N3A Pd1 1_555 1_555
Pd1A N3 1_555 1_555
C2 C3 1_555 1_555
C8 C9 1_555 1_555
C14 C15 1_555 1_555
C20 C21 1_555 1_555
C26 C27 1_555 1_555
C31 C32 1_555 1_555
C37 C38 1_555 1_555
C41 C45 1_555 1_555
C42 C43 1_555 1_555
C43 C44 1_555 1_555

#END
