
#######################################################################
#
#                 Cambridge Crystallographic Data Centre
#                                CCDC 
#
#######################################################################
#
# If this CIF has been generated from an entry in the Cambridge 
# Structural Database, then it will include bibliographic, chemical, 
# crystal, experimental, refinement or atomic coordinate data resulting 
# from the CCDC's data processing and validation procedures.
#
#######################################################################

data_MIGWIK
_symmetry_cell_setting           monoclinic
_symmetry_space_group_name_H-M   'P 21/n'
_symmetry_Int_Tables_number      14
_space_group_name_Hall           '-P 2yn'
loop_
_symmetry_equiv_pos_site_id
_symmetry_equiv_pos_as_xyz
1 x,y,z
2 1/2-x,1/2+y,1/2-z
3 -x,-y,-z
4 1/2+x,1/2-y,1/2+z
_cell_length_a                   8.9380(6)
_cell_length_b                   29.4106(18)
_cell_length_c                   9.3713(6)
_cell_angle_alpha                90
_cell_angle_beta                 117.664(1)
_cell_angle_gamma                90
_cell_volume                     2181.84
loop_
_atom_site_label
_atom_site_type_symbol
_atom_site_fract_x
_atom_site_fract_y
_atom_site_fract_z
La1 La 0.259704(16) 0.003256(5) 0.015258(16)
N1 N 0.4926(3) 0.16902(7) 0.0203(3)
N2 N 0.5383(3) 0.18862(8) 0.1650(3)
N3 N 0.3477(3) 0.10749(7) 0.4798(3)
N4 N 0.2575(3) 0.10024(8) 0.5601(3)
N5 N 0.1235(3) -0.15873(7) 0.1401(3)
N6 N 0.2483(3) -0.17709(8) 0.2741(3)
O1 O 0.5207(2) 0.04610(6) 0.0070(2)
O2 O 0.3450(2) 0.09007(6) 0.0484(2)
O3 O 0.2422(2) 0.03772(6) 0.2566(2)
O4 O 0.5032(2) 0.01953(6) 0.3139(2)
O5 O 0.0228(2) -0.03958(6) 0.0818(2)
O6 O 0.2665(2) -0.07395(6) 0.1543(2)
O7 O 0.0777(2) -0.05330(6) -0.2053(2)
O8 O 0.1728(3) 0.03544(7) -0.2692(2)
C1 C 0.4685(3) 0.08526(8) 0.0231(3)
C2 C 0.5650(4) 0.12606(8) 0.0094(3)
H1 H 0.6807 0.1245 0.0944
H2 H 0.5675 0.1246 -0.0929
C3 C 0.4522(4) 0.22728(10) 0.1307(4)
H3 H 0.4581 0.2481 0.2079
C4 C 0.3520(4) 0.23300(10) -0.0341(4)
H4 H 0.2810 0.2573 -0.0868
C5 C 0.3815(4) 0.19486(10) -0.1015(4)
H5 H 0.3337 0.1881 -0.2108
C6 C 0.3990(3) 0.04177(9) 0.3427(3)
C7 C 0.4686(3) 0.07406(9) 0.4844(3)
H6 H 0.5076 0.0565 0.5829
H7 H 0.5655 0.0898 0.4874
C8 C 0.3040(4) 0.14594(10) 0.3945(3)
H8 H 0.3499 0.1574 0.3308
C9 C 0.1766(4) 0.16557(10) 0.4193(3)
H9 H 0.1201 0.1928 0.3773
C10 C 0.1525(4) 0.13554(10) 0.5205(3)
H10 H 0.0725 0.1395 0.5566
C11 C 0.1160(3) -0.07457(8) 0.1269(3)
C12 C 0.0360(3) -0.11813(9) 0.1458(4)
H11 H 0.0331 -0.1172 0.2480
H12 H -0.0797 -0.1196 0.0609
C13 C 0.1050(4) -0.18078(10) 0.0066(4)
H13 H 0.0278 -0.1737 -0.0990
C14 C 0.2191(4) -0.21516(10) 0.0541(4)
H14 H 0.2363 -0.2363 -0.0106
C15 C 0.3050(4) -0.21170(10) 0.2218(4)
H15 H 0.3912 -0.2312 0.2885
H16 H 0.210(6) 0.0500(16) -0.308(6)
H17 H 0.068(6) 0.0381(15) -0.337(6)
H18 H 0.101(5) -0.0543(14) -0.304(4)
H19 H -0.049(2) -0.0553(14) -0.248(5)
La1B La -0.259704(16) -0.003256(5) -0.015258(16)
La1B_2 La 0.740296(16) -0.003256(5) -0.015258(16)
O1B O 0.4793(2) -0.04610(6) -0.0070(2)
O5B O -0.0228(2) 0.03958(6) -0.0818(2)
O9 O 0.7554(2) 0.14331(7) 0.4501(3)
O10 O 0.8448(2) 0.05412(6) 0.4604(2)
loop_
_geom_bond_atom_site_label_1
_geom_bond_atom_site_label_2
_geom_bond_site_symmetry_1
_geom_bond_site_symmetry_2
La1 O1 1_555 1_555
N1 N2 1_555 1_555
N2 C3 1_555 1_555
N3 N4 1_555 1_555
N4 C10 1_555 1_555
N5 N6 1_555 1_555
N6 C15 1_555 1_555
O1 C1 1_555 1_555
O2 La1 1_555 1_555
O3 La1 1_555 1_555
O4 La1 1_555 1_555
O5 La1 1_555 1_555
O6 La1 1_555 1_555
O7 La1 1_555 1_555
O8 La1 1_555 1_555
C1 O2 1_555 1_555
C2 N1 1_555 1_555
H1 C2 1_555 1_555
H2 C2 1_555 1_555
C3 H3 1_555 1_555
C4 C3 1_555 1_555
H4 C4 1_555 1_555
C5 N1 1_555 1_555
H5 C5 1_555 1_555
C6 O3 1_555 1_555
C7 N3 1_555 1_555
H6 C7 1_555 1_555
H7 C7 1_555 1_555
C8 N3 1_555 1_555
H8 C8 1_555 1_555
C9 C8 1_555 1_555
H9 C9 1_555 1_555
C10 C9 1_555 1_555
H10 C10 1_555 1_555
C11 O5 1_555 1_555
C12 N5 1_555 1_555
H11 C12 1_555 1_555
H12 C12 1_555 1_555
C13 N5 1_555 1_555
H13 C13 1_555 1_555
C14 C13 1_555 1_555
H14 C14 1_555 1_555
C15 C14 1_555 1_555
H15 C15 1_555 1_555
H16 O8 1_555 1_555
H17 O8 1_555 1_555
H18 O7 1_555 1_555
H19 O7 1_555 1_555
La1B O5 1_555 1_555
La1B_2 O1 1_555 1_555
O1B La1 1_555 1_555
O5B La1 1_555 1_555
O4 C6 1_555 1_555
O6 C11 1_555 1_555
C1 C2 1_555 1_555
C4 C5 1_555 1_555
C6 C7 1_555 1_555
C11 C12 1_555 1_555
La1B O5B 1_555 1_555
La1B_2 O1B 1_555 1_555

#END
