
#######################################################################
#
#                 Cambridge Crystallographic Data Centre
#                                CCDC 
#
#######################################################################
#
# If this CIF has been generated from an entry in the Cambridge 
# Structural Database, then it will include bibliographic, chemical, 
# crystal, experimental, refinement or atomic coordinate data resulting 
# from the CCDC's data processing and validation procedures.
#
#######################################################################

data_MIGXUV
_symmetry_cell_setting           tetragonal
_symmetry_space_group_name_H-M   'P 42/n'
_symmetry_Int_Tables_number      86
_space_group_name_Hall           '-P 4bc'
loop_
_symmetry_equiv_pos_site_id
_symmetry_equiv_pos_as_xyz
1 x,y,z
2 -y,1/2+x,1/2+z
3 1/2+y,-x,1/2+z
4 1/2+x,1/2+y,-z
5 -x,-y,-z
6 y,1/2-x,1/2-z
7 1/2-y,x,1/2-z
8 1/2-x,1/2-y,z
_cell_length_a                   13.7409(19)
_cell_length_b                   13.7409(19)
_cell_length_c                   14.976(3)
_cell_angle_alpha                90
_cell_angle_beta                 90
_cell_angle_gamma                90
_cell_volume                     2827.65
loop_
_atom_site_label
_atom_site_type_symbol
_atom_site_fract_x
_atom_site_fract_y
_atom_site_fract_z
Zn1 Zn 0.11914(5) 0.11553(5) 0.37818(5)
Zn2 Zn 0.04150(5) 0.31659(5) 0.32479(4)
O1 O 0.0729(4) 0.1576(3) 0.4934(3)
Si1 Si 0.2500 0.2500 0.2500
O2 O 0.0082(3) 0.2988(3) 0.4507(3)
O3 O -0.0578(3) 0.5433(3) 0.6788(3)
O4 O -0.0680(3) 0.4994(3) 0.8228(3)
O5 O 0.2013(4) 0.0038(3) 0.3823(3)
O6 O 0.2127(3) -0.0712(3) 0.2515(3)
O7 O 0.1533(3) 0.2312(3) 0.3098(3)
C1 C 0.0315(5) 0.2372(5) 0.5087(4)
C2 C -0.0144(4) 0.3561(4) 0.6268(4)
H1 H -0.0211 0.4036 0.5830
C3 C 0.0109(5) 0.2618(5) 0.6030(4)
C4 C 0.0201(6) 0.1913(5) 0.6692(4)
H2 H 0.0379 0.1282 0.6540
C5 C 0.0027(6) 0.2152(5) 0.7579(5)
H3 H 0.0075 0.1677 0.8019
C6 C -0.0216(5) 0.3089(5) 0.7805(4)
H4 H -0.0325 0.3249 0.8400
C7 C -0.0298(5) 0.3794(4) 0.7155(4)
C8 C -0.0551(4) 0.4821(5) 0.7418(4)
C9 C 0.2141(5) -0.0710(5) 0.3348(5)
C10 C 0.2500 -0.2500 0.3354(6)
H5 H 0.2500 -0.2500 0.2733
C11 C 0.2333(5) -0.1636(5) 0.3827(4)
C12 C 0.2332(6) -0.1650(6) 0.4752(5)
H6 H 0.2216 -0.1080 0.5070
C13 C 0.2500 -0.2500 0.5195(7)
H7 H 0.2500 -0.2500 0.5816
O7E O 0.2312(3) 0.3467(3) 0.1902(3)
O7F O 0.2688(3) 0.1533(3) 0.1902(3)
O7G O 0.3467(3) 0.2688(3) 0.3098(3)
C11G C 0.2667(5) -0.3364(5) 0.3827(4)
C9G C 0.2859(5) -0.4290(5) 0.3348(5)
O5G O 0.2987(4) -0.5038(3) 0.3823(3)
O6G O 0.2873(3) -0.4288(3) 0.2515(3)
C12G C 0.2668(6) -0.3350(6) 0.4752(5)
H6G H 0.2784 -0.3920 0.5070
O1B O -0.3424(3) -0.0729(4) -0.0066(3)
O2B O -0.2012(3) -0.0082(3) -0.0493(3)
O3B O 0.0433(3) 0.0578(3) 0.1788(3)
O4B O -0.0006(3) 0.0680(3) 0.3228(3)
C1B C -0.2628(5) -0.0315(5) 0.0087(4)
C2B C -0.1439(4) 0.0144(4) 0.1268(4)
H1B H -0.0964 0.0211 0.0830
C3B C -0.2382(5) -0.0109(5) 0.1030(4)
C4B C -0.3087(5) -0.0201(6) 0.1692(4)
H2B H -0.3718 -0.0379 0.1540
C5B C -0.2848(5) -0.0027(6) 0.2579(5)
H3B H -0.3323 -0.0075 0.3019
C6B C -0.1911(5) 0.0216(5) 0.2805(4)
H4B H -0.1751 0.0325 0.3400
C7B C -0.1206(4) 0.0298(5) 0.2155(4)
C8B C -0.0179(5) 0.0551(4) 0.2418(4)
Zn1B Zn -0.38447(5) -0.11914(5) -0.12182(5)
Zn1A Zn -0.11553(5) 0.61914(5) 0.87818(5)
Zn1G Zn 0.38086(5) -0.61553(5) 0.37818(5)
Zn2B Zn -0.18341(5) -0.04150(5) -0.17521(4)
Zn2D Zn -0.04150(5) 0.68341(5) 0.67521(4)
Zn2F Zn 0.18341(5) 0.04150(5) 0.17521(4)
O1D O -0.0729(4) 0.8424(3) 0.5066(3)
O2D O -0.0082(3) 0.7012(3) 0.5493(3)
O3D O 0.0578(3) 0.4567(3) 0.3212(3)
O4D O 0.0680(3) 0.5006(3) 0.1772(3)
C1D C -0.0315(5) 0.7628(5) 0.4913(4)
C2D C 0.0144(4) 0.6439(4) 0.3732(4)
H1D H 0.0211 0.5964 0.4170
C3D C -0.0109(5) 0.7382(5) 0.3970(4)
C4D C -0.0201(6) 0.8087(5) 0.3308(4)
H2D H -0.0379 0.8718 0.3460
C5D C -0.0027(6) 0.7848(5) 0.2421(5)
H3D H -0.0075 0.8323 0.1981
C6D C 0.0216(5) 0.6911(5) 0.2195(4)
H4D H 0.0325 0.6751 0.1600
C7D C 0.0298(5) 0.6206(4) 0.2845(4)
C8D C 0.0551(4) 0.5179(5) 0.2582(4)
O5E O 0.0038(3) 0.2987(4) 0.1177(3)
O6E O -0.0712(3) 0.2873(3) 0.2485(3)
C9E C -0.0710(5) 0.2859(5) 0.1652(5)
C10E C -0.2500 0.2500 0.1646(6)
H5E H -0.2500 0.2500 0.2267
C11E C -0.1636(5) 0.2667(5) 0.1173(4)
C12E C -0.1650(6) 0.2668(6) 0.0248(5)
H6E H -0.1080 0.2784 -0.0070
C13E C -0.2500 0.2500 -0.0195(7)
H7E H -0.2500 0.2500 -0.0816
C11F C -0.3364(5) 0.2333(5) 0.1173(4)
C9F C -0.4290(5) 0.2141(5) 0.1652(5)
O5F O -0.5038(3) 0.2013(4) 0.1177(3)
O6F O -0.4288(3) 0.2127(3) 0.2485(3)
C12F C -0.3350(6) 0.2332(6) 0.0248(5)
H6F H -0.3920 0.2216 -0.0070
O1G O 0.4271(4) -0.6576(3) 0.4934(3)
O2G O 0.4918(3) -0.7988(3) 0.4507(3)
O3G O 0.5578(3) -1.0433(3) 0.6788(3)
O4G O 0.5680(3) -0.9994(3) 0.8228(3)
C1G C 0.4685(5) -0.7372(5) 0.5087(4)
C2G C 0.5144(4) -0.8561(4) 0.6268(4)
H1G H 0.5211 -0.9036 0.5830
C3G C 0.4891(5) -0.7618(5) 0.6030(4)
C4G C 0.4799(6) -0.6913(5) 0.6692(4)
H2G H 0.4621 -0.6282 0.6540
C5G C 0.4973(6) -0.7152(5) 0.7579(5)
H3G H 0.4925 -0.6677 0.8019
C6G C 0.5216(5) -0.8089(5) 0.7805(4)
H4G H 0.5325 -0.8249 0.8400
C7G C 0.5298(5) -0.8794(4) 0.7155(4)
C8G C 0.5551(4) -0.9821(5) 0.7418(4)
Zn1E Zn 0.11553(5) 0.38086(5) 0.12182(5)
Zn2E Zn 0.31659(5) 0.45850(5) 0.17521(4)
Zn1F Zn 0.38447(5) 0.11914(5) 0.12182(5)
Zn1G_2 Zn 0.38086(5) 0.38447(5) 0.37818(5)
Zn2G Zn 0.45850(5) 0.18341(5) 0.32479(4)
Zn2E_2 Zn 0.31659(5) -0.54150(5) 0.17521(4)
O4G_2 O -0.4320(3) 0.0006(3) -0.1772(3)
O5B O -0.4962(3) -0.2013(4) -0.1177(3)
O7B O -0.2688(3) -0.1533(3) -0.1902(3)
O1A O -0.1576(3) 0.5729(4) 0.9934(3)
O5A O -0.0038(3) 0.7013(4) 0.8823(3)
O7A O -0.2312(3) 0.6533(3) 0.8098(3)
O4A O 0.5006(3) -0.5680(3) 0.3228(3)
O7G_2 O 0.3467(3) -0.7312(3) 0.3098(3)
O3F O -0.0433(3) -0.0578(3) -0.1788(3)
O6D O -0.2127(3) 0.0712(3) -0.2515(3)
O6A O 0.0712(3) 0.7127(3) 0.7515(3)
O7D O -0.1533(3) 0.7688(3) 0.6902(3)
O2F O 0.2012(3) 0.0082(3) 0.0493(3)
Zn1D Zn -0.11914(5) 0.88447(5) 0.62182(5)
Zn1F_2 Zn -0.61553(5) 0.11914(5) 0.12182(5)
Zn2G_2 Zn -0.54150(5) 0.18341(5) 0.32479(4)
Zn2G_3 Zn 0.45850(5) -0.81659(5) 0.32479(4)
Zn2C Zn 0.54150(5) -1.18341(5) 0.67521(4)
Zn1B_2 Zn 0.61553(5) -1.11914(5) 0.87818(5)
O8 O 0.261(2) 0.137(2) 0.4781(19)
H8 H 0.2470 0.0797 0.4950
H9 H 0.2995 0.1328 0.4342
O9 O 0.2500 0.2500 0.620(3)
H10 H 0.1935 0.2301 0.6057
H10G H 0.3065 0.2699 0.6057
H11? H 0.2825 0.2572 0.5722
loop_
_geom_bond_atom_site_label_1
_geom_bond_atom_site_label_2
_geom_bond_site_symmetry_1
_geom_bond_site_symmetry_2
Zn1 O1 1_555 1_555
Zn2 O2 1_555 1_555
O1 C1 1_555 1_555
Si1 O7 1_555 1_555
O2 C1 1_555 1_555
O3 C8 1_555 1_555
O4 C8 1_555 1_555
O5 Zn1 1_555 1_555
O6 C9 1_555 1_555
O7 Zn1 1_555 1_555
C1 C3 1_555 1_555
C2 H1 1_555 1_555
C3 C2 1_555 1_555
C4 C3 1_555 1_555
H2 C4 1_555 1_555
C5 C4 1_555 1_555
H3 C5 1_555 1_555
C6 C5 1_555 1_555
H4 C6 1_555 1_555
C7 C2 1_555 1_555
C8 C7 1_555 1_555
C9 O5 1_555 1_555
C10 H5 1_555 1_555
C11 C9 1_555 1_555
C12 C11 1_555 1_555
H6 C12 1_555 1_555
C13 C12 1_555 1_555
H7 C13 1_555 1_555
O8 H8 1_555 1_555
H9 O8 1_555 1_555
O9 H10 1_555 1_555
O7E Si1 1_555 1_555
O7F Si1 1_555 1_555
O7G Si1 1_555 1_555
C11G C10 1_555 1_555
C9G C11G 1_555 1_555
O5G C9G 1_555 1_555
O6G C9G 1_555 1_555
C12G C13 1_555 1_555
H6G C12G 1_555 1_555
H10G O9 1_555 1_555
O1B C1B 1_555 1_555
O2B C1B 1_555 1_555
O3B C8B 1_555 1_555
O4B Zn1 1_555 1_555
C1B C3B 1_555 1_555
C2B H1B 1_555 1_555
C3B C2B 1_555 1_555
C4B C3B 1_555 1_555
H2B C4B 1_555 1_555
C5B C4B 1_555 1_555
H3B C5B 1_555 1_555
C6B C5B 1_555 1_555
H4B C6B 1_555 1_555
C7B C2B 1_555 1_555
C8B O4B 1_555 1_555
Zn1B O1B 1_555 1_555
Zn1A O4 1_555 1_555
Zn1G O5G 1_555 1_555
Zn2B O2B 1_555 1_555
Zn2D O3 1_555 1_555
Zn2F O6 1_555 1_555
O1D C1D 1_555 1_555
O2D Zn2D 1_555 1_555
O3D Zn2 1_555 1_555
O4D C8D 1_555 1_555
C1D O2D 1_555 1_555
C2D H1D 1_555 1_555
C3D C1D 1_555 1_555
C4D C3D 1_555 1_555
H2D C4D 1_555 1_555
C5D C4D 1_555 1_555
H3D C5D 1_555 1_555
C6D C5D 1_555 1_555
H4D C6D 1_555 1_555
C7D C2D 1_555 1_555
C8D O3D 1_555 1_555
O5E C9E 1_555 1_555
O6E Zn2 1_555 1_555
C9E O6E 1_555 1_555
C10E H5E 1_555 1_555
C11E C9E 1_555 1_555
C12E C11E 1_555 1_555
H6E C12E 1_555 1_555
C13E C12E 1_555 1_555
H7E C13E 1_555 1_555
C11F C10E 1_555 1_555
C9F C11F 1_555 1_555
O5F C9F 1_555 1_555
O6F C9F 1_555 1_555
C12F C13E 1_555 1_555
H6F C12F 1_555 1_555
O1G Zn1G 1_555 1_555
O2G C1G 1_555 1_555
O3G C8G 1_555 1_555
O4G C8G 1_555 1_555
C1G O1G 1_555 1_555
C2G H1G 1_555 1_555
C3G C1G 1_555 1_555
C4G C3G 1_555 1_555
H2G C4G 1_555 1_555
C5G C4G 1_555 1_555
H3G C5G 1_555 1_555
C6G C5G 1_555 1_555
H4G C6G 1_555 1_555
C7G C2G 1_555 1_555
C8G C7G 1_555 1_555
Zn1E O7E 1_555 1_555
Zn2E O7E 1_555 1_555
Zn1F O7F 1_555 1_555
Zn1G_2 O7G 1_555 1_555
Zn2G O7G 1_555 1_555
Zn2E_2 O6G 1_555 1_555
O4G_2 Zn1B 1_555 1_555
O5B Zn1B 1_555 1_555
O7B Zn1B 1_555 1_555
O1A Zn1A 1_555 1_555
O5A Zn1A 1_555 1_555
O7A Zn1A 1_555 1_555
O4A Zn1G 1_555 1_555
O7G_2 Zn1G 1_555 1_555
O3F Zn2B 1_555 1_555
O6D Zn2B 1_555 1_555
O6A Zn2D 1_555 1_555
O7D Zn2D 1_555 1_555
O2F Zn2F 1_555 1_555
Zn1D O1D 1_555 1_555
Zn1F_2 O5F 1_555 1_555
Zn2G_2 O6F 1_555 1_555
Zn2G_3 O2G 1_555 1_555
Zn2C O3G 1_555 1_555
Zn1B_2 O4G 1_555 1_555
Zn2 O7 1_555 1_555
C6 C7 1_555 1_555
C10 C11 1_555 1_555
O7F Zn2F 1_555 1_555
C11G C12G 1_555 1_555
O3B Zn2F 1_555 1_555
C6B C7B 1_555 1_555
C7B C8B 1_555 1_555
Zn2B O7B 1_555 1_555
O4D Zn1E 1_555 1_555
C2D C3D 1_555 1_555
C6D C7D 1_555 1_555
C7D C8D 1_555 1_555
O5E Zn1E 1_555 1_555
C10E C11E 1_555 1_555
C11F C12F 1_555 1_555
C2G C3G 1_555 1_555
C6G C7G 1_555 1_555
O7G_2 Zn2G_3 1_555 1_555
O7D Zn1D 1_555 1_555

#END
