
#######################################################################
#
#                 Cambridge Crystallographic Data Centre
#                                CCDC 
#
#######################################################################
#
# If this CIF has been generated from an entry in the Cambridge 
# Structural Database, then it will include bibliographic, chemical, 
# crystal, experimental, refinement or atomic coordinate data resulting 
# from the CCDC's data processing and validation procedures.
#
#######################################################################

data_MIGZIL
_symmetry_cell_setting           monoclinic
_symmetry_space_group_name_H-M   'P 21/c'
_symmetry_Int_Tables_number      14
_space_group_name_Hall           '-P 2ybc'
loop_
_symmetry_equiv_pos_site_id
_symmetry_equiv_pos_as_xyz
1 x,y,z
2 -x,1/2+y,1/2-z
3 -x,-y,-z
4 x,1/2-y,1/2+z
_cell_length_a                   8.3033(5)
_cell_length_b                   12.4987(8)
_cell_length_c                   12.9551(8)
_cell_angle_alpha                90
_cell_angle_beta                 90.2280(10)
_cell_angle_gamma                90
_cell_volume                     1344.48
loop_
_atom_site_label
_atom_site_type_symbol
_atom_site_fract_x
_atom_site_fract_y
_atom_site_fract_z
Mn1 Mn 0.0000 0.5000 0.5000
O1 O 0.1865(3) 0.5835(3) 0.5852(2)
C1 C 0.3326(4) 0.6102(3) 0.5715(3)
C2 C 0.4079(4) 0.6208(3) 0.4719(3)
C3 C 0.5756(5) 0.6293(3) 0.4623(3)
C4 C 0.6823(4) 0.6302(3) 0.5496(4)
C5 C 0.6031(5) 0.6500(3) 0.6444(3)
C6 C 0.4355(5) 0.6416(3) 0.6547(3)
O2 O 0.8343(3) 0.6252(3) 0.5403(3)
Mn2 Mn 0.4903(1) 0.7689(1) 0.5447(1)
C7 C 0.3179(7) 0.8317(4) 0.4883(4)
O3 O 0.2106(8) 0.8725(5) 0.4515(5)
C8 C 0.6323(8) 0.8454(4) 0.4711(4)
O4 O 0.7229(8) 0.8917(4) 0.4240(4)
C9 C 0.4935(6) 0.8650(4) 0.6475(4)
O5 O 0.4962(7) 0.9256(4) 0.7127(3)
O6 O -0.0629(4) 0.4163(4) 0.6420(3)
S1 S 0.0563(1) 0.3680(1) 0.7167(1)
C10 C 0.0267(16) 0.4421(10) 0.8284(9)
C11 C -0.0284(10) 0.2507(6) 0.7558(9)
H1 H 0.3439 0.6219 0.4128
H2 H 0.6194 0.6347 0.3966
H3 H 0.6644 0.6692 0.7017
H4 H 0.3896 0.6571 0.7183
H5 H -0.0798 0.4720 0.8277
H6 H 0.1046 0.4988 0.8317
H7 H 0.0390 0.3965 0.8875
H8 H -0.0307 0.2013 0.6991
H9 H -0.1362 0.2638 0.7791
H10 H 0.0341 0.2210 0.8113
O1B O -0.1865(3) 0.4165(3) 0.4148(2)
C1B C -0.3326(4) 0.3898(3) 0.4285(3)
C2B C -0.4079(4) 0.3792(3) 0.5281(3)
C3B C -0.5756(5) 0.3707(3) 0.5377(3)
C4B C -0.6823(4) 0.3698(3) 0.4504(4)
C5B C -0.6031(5) 0.3500(3) 0.3556(3)
C6B C -0.4355(5) 0.3584(3) 0.3453(3)
O2B O -0.8343(3) 0.3748(3) 0.4597(3)
H1B H -0.3439 0.3781 0.5872
H2B H -0.6194 0.3653 0.6034
H3B H -0.6644 0.3308 0.2983
H4B H -0.3896 0.3429 0.2817
O6B O 0.0629(4) 0.5837(4) 0.3580(3)
S1B S -0.0563(1) 0.6320(1) 0.2833(1)
C10B C -0.0267(16) 0.5579(10) 0.1716(9)
C11B C 0.0284(10) 0.7493(6) 0.2442(9)
H5B H 0.0798 0.5280 0.1723
H6B H -0.1046 0.5012 0.1683
H7B H -0.0390 0.6035 0.1125
H8B H 0.0307 0.7987 0.3009
H9B H 0.1362 0.7362 0.2209
H10B H -0.0341 0.7790 0.1887
Mn2B Mn -0.4903(1) 0.2311(1) 0.4553(1)
C7B C -0.3179(7) 0.1683(4) 0.5117(4)
O3B O -0.2106(8) 0.1275(5) 0.5485(5)
C8B C -0.6323(8) 0.1546(4) 0.5289(4)
O4B O -0.7229(8) 0.1083(4) 0.5760(4)
C9B C -0.4935(6) 0.1350(4) 0.3525(4)
O5B O -0.4962(7) 0.0744(4) 0.2873(3)
O2_2 O -0.1657(3) 0.6252(3) 0.5403(3)
O2B_2 O 0.1657(3) 0.3748(3) 0.4597(3)
Mn1_2 Mn 1.0000 0.5000 0.5000
Mn1_3 Mn -1.0000 0.5000 0.5000
loop_
_geom_bond_atom_site_label_1
_geom_bond_atom_site_label_2
_geom_bond_site_symmetry_1
_geom_bond_site_symmetry_2
Mn1 O1 1_555 1_555
O1 C1 1_555 1_555
C1 C2 1_555 1_555
C2 C3 1_555 1_555
C3 C4 1_555 1_555
C4 C5 1_555 1_555
C5 C6 1_555 1_555
C6 C1 1_555 1_555
O2 C4 1_555 1_555
Mn2 C1 1_555 1_555
C7 Mn2 1_555 1_555
O3 C7 1_555 1_555
C8 Mn2 1_555 1_555
O4 C8 1_555 1_555
C9 Mn2 1_555 1_555
O5 C9 1_555 1_555
O6 Mn1 1_555 1_555
S1 O6 1_555 1_555
C10 S1 1_555 1_555
C11 S1 1_555 1_555
H1 C2 1_555 1_555
H2 C3 1_555 1_555
H3 C5 1_555 1_555
H4 C6 1_555 1_555
H5 C10 1_555 1_555
H6 C10 1_555 1_555
H7 C10 1_555 1_555
H8 C11 1_555 1_555
H9 C11 1_555 1_555
H10 C11 1_555 1_555
O1B Mn1 1_555 1_555
C1B O1B 1_555 1_555
C2B C1B 1_555 1_555
C3B C2B 1_555 1_555
C4B C3B 1_555 1_555
C5B C4B 1_555 1_555
C6B C1B 1_555 1_555
O2B C4B 1_555 1_555
H1B C2B 1_555 1_555
H2B C3B 1_555 1_555
H3B C5B 1_555 1_555
H4B C6B 1_555 1_555
O6B Mn1 1_555 1_555
S1B O6B 1_555 1_555
C10B S1B 1_555 1_555
C11B S1B 1_555 1_555
H5B C10B 1_555 1_555
H6B C10B 1_555 1_555
H7B C10B 1_555 1_555
H8B C11B 1_555 1_555
H9B C11B 1_555 1_555
H10B C11B 1_555 1_555
Mn2B C1B 1_555 1_555
C7B Mn2B 1_555 1_555
O3B C7B 1_555 1_555
C8B Mn2B 1_555 1_555
O4B C8B 1_555 1_555
C9B Mn2B 1_555 1_555
O5B C9B 1_555 1_555
O2_2 Mn1 1_555 1_555
O2B_2 Mn1 1_555 1_555
Mn1_2 O2 1_555 1_555
Mn1_3 O2B 1_555 1_555
C2 Mn2 1_555 1_555
C3 Mn2 1_555 1_555
C4 Mn2 1_555 1_555
C5 Mn2 1_555 1_555
C6 Mn2 1_555 1_555
C2B Mn2B 1_555 1_555
C3B Mn2B 1_555 1_555
C4B Mn2B 1_555 1_555
C5B Mn2B 1_555 1_555
C5B C6B 1_555 1_555
C6B Mn2B 1_555 1_555

#END
