
#######################################################################
#
#                 Cambridge Crystallographic Data Centre
#                                CCDC 
#
#######################################################################
#
# If this CIF has been generated from an entry in the Cambridge 
# Structural Database, then it will include bibliographic, chemical, 
# crystal, experimental, refinement or atomic coordinate data resulting 
# from the CCDC's data processing and validation procedures.
#
#######################################################################

data_MIGZUX
_symmetry_cell_setting           tetragonal
_symmetry_space_group_name_H-M   'P 43'
_symmetry_Int_Tables_number      78
_space_group_name_Hall           'P 4cw'
loop_
_symmetry_equiv_pos_site_id
_symmetry_equiv_pos_as_xyz
1 x,y,z
2 -y,x,3/4+z
3 -x,-y,1/2+z
4 y,-x,1/4+z
_cell_length_a                   15.4449(13)
_cell_length_b                   15.4449(13)
_cell_length_c                   15.664(2)
_cell_angle_alpha                90
_cell_angle_beta                 90
_cell_angle_gamma                90
_cell_volume                     3736.57
loop_
_atom_site_label
_atom_site_type_symbol
_atom_site_fract_x
_atom_site_fract_y
_atom_site_fract_z
Zn1 Zn 0.7520(1) 0.2519(1) 0.4454(1)
O1 O 0.8406(5) 0.3049(4) 0.5201(5)
C1 C 0.9101(6) 0.2711(6) 0.5533(6)
C2 C 0.9410(7) 0.3025(6) 0.6348(6)
C3 C 1.0240(6) 0.2755(5) 0.6648(5)
C4 C 1.0755(8) 0.2160(7) 0.6163(9)
C5 C 1.0339(6) 0.1760(6) 0.5520(7)
C6 C 0.9541(6) 0.2011(5) 0.5143(6)
Mn1 Mn 0.9426(1) 0.1610(1) 0.6506(1)
C7 C 0.8342(6) 0.1205(5) 0.6341(5)
O2 O 0.7671(4) 0.0941(4) 0.6262(5)
C8 C 0.9202(7) 0.1693(8) 0.7638(6)
O3 O 0.9031(7) 0.1741(8) 0.8354(6)
C9 C 0.9857(7) 0.0542(6) 0.6614(7)
O4 O 1.0122(5) -0.0143(5) 0.6686(7)
O5 O 1.1541(4) 0.1908(4) 0.6375(5)
O6 O 0.6937(4) 0.3452(4) 0.3815(5)
C10 C 0.7153(7) 0.4234(9) 0.3625(8)
C11 C 0.6598(6) 0.4779(5) 0.3196(6)
C12 C 0.6853(5) 0.5618(6) 0.2879(7)
C13 C 0.7693(7) 0.5890(6) 0.2981(6)
C14 C 0.8226(5) 0.5441(6) 0.3633(6)
C15 C 0.7947(5) 0.4643(6) 0.3909(6)
Mn2 Mn 0.6959(1) 0.5539(1) 0.4284(1)
C16 C 0.7204(10) 0.5249(7) 0.5360(8)
O7 O 0.7397(10) 0.5065(7) 0.6008(5)
C17 C 0.5830(9) 0.5526(7) 0.4561(12)
O8 O 0.5117(7) 0.5484(8) 0.4687(12)
C18 C 0.7005(7) 0.6708(7) 0.4500(7)
O9 O 0.7018(7) 0.7394(5) 0.4630(6)
O10 O 0.8007(4) 0.6575(4) 0.2630(5)
H1 H 0.9072 0.3398 0.6673
H2 H 1.0448 0.2967 0.7163
H3 H 1.0601 0.1267 0.5299
H4 H 0.9319 0.1731 0.4665
H5 H 0.6031 0.4598 0.3106
H6 H 0.6451 0.5972 0.2608
H7 H 0.8730 0.5689 0.3847
H8 H 0.8288 0.4348 0.4302
O5A O 0.8092(4) 0.1541(4) 0.3875(5)
O10C O 0.6575(4) 0.1993(4) 0.5130(5)
Zn1C Zn 1.2519(1) 0.2480(1) 0.6954(1)
Zn1A Zn 0.7481(1) 0.7520(1) 0.1954(1)
Zn2 Zn 0.7557(1) 0.2549(1) 0.2050(1)
O11 O 0.8521(5) 0.3051(5) 0.2611(6)
C19 C 0.9279(5) 0.2829(5) 0.2813(4)
C20 C 0.9744(8) 0.2134(8) 0.2449(8)
C21 C 1.0591(7) 0.1895(7) 0.2724(8)
C22 C 1.1006(6) 0.2268(6) 0.3424(6)
C23 C 1.0595(7) 0.3073(8) 0.3678(7)
C24 C 0.9803(8) 0.3306(8) 0.3444(8)
Mn3 Mn 1.0647(1) 0.3219(1) 0.2324(1)
C25 C 1.0371(10) 0.4323(9) 0.2111(10)
O12 O 1.0211(12) 0.5026(9) 0.1965(15)
C26 C 1.0700(20) 0.3030(20) 0.1227(16)
O13 O 1.0660(40) 0.2910(20) 0.0495(13)
C27 C 1.1741(10) 0.3430(20) 0.2300(30)
O14 O 1.2493(11) 0.3530(40) 0.2340(30)
O15 O 1.1701(4) 0.1962(4) 0.3736(5)
O16 O 0.6657(5) 0.1983(5) 0.2632(5)
C28 C 0.5866(5) 0.2201(5) 0.2870(5)
C29 C 0.5415(7) 0.1673(7) 0.3517(7)
C30 C 0.4588(6) 0.1899(7) 0.3776(7)
C31 C 0.4153(6) 0.2671(7) 0.3560(8)
C32 C 0.4543(8) 0.3052(8) 0.2859(10)
C33 C 0.5396(7) 0.2844(9) 0.2543(9)
Mn4 Mn 0.4526(1) 0.1749(2) 0.2436(1)
C34 C 0.4769(13) 0.0669(15) 0.2267(17)
O17 O 0.4999(19) -0.0086(13) 0.2220(20)
C35 C 0.3386(11) 0.1450(30) 0.2450(20)
O18 O 0.2672(13) 0.1590(60) 0.2310(30)
C36 C 0.4580(20) 0.1950(30) 0.1326(19)
O19 O 0.4450(20) 0.1820(30) 0.0640(12)
O20 O 0.3465(5) 0.2965(5) 0.3874(7)
H9 H 0.9486 0.1819 0.2011
H10 H 1.0882 0.1467 0.2420
H11 H 1.0907 0.3448 0.4026
H12 H 0.9564 0.3797 0.3694
H13 H 0.5685 0.1189 0.3750
H14 H 0.4294 0.1508 0.4122
H15 H 0.4231 0.3475 0.2568
H16 H 0.5626 0.3170 0.2098
O15A O 0.8038(4) 0.1701(4) 0.1236(5)
O20A O 0.7035(5) 0.3465(5) 0.1374(7)
Zn2C Zn 1.2549(1) 0.2443(1) 0.4550(1)
Zn2C_2 Zn 0.2549(1) 0.2443(1) 0.4550(1)
loop_
_geom_bond_atom_site_label_1
_geom_bond_atom_site_label_2
_geom_bond_site_symmetry_1
_geom_bond_site_symmetry_2
Zn1 O1 1_555 1_555
O1 C1 1_555 1_555
C1 C2 1_555 1_555
C2 C3 1_555 1_555
C3 C4 1_555 1_555
C4 C5 1_555 1_555
C5 C6 1_555 1_555
C6 C1 1_555 1_555
Mn1 C1 1_555 1_555
C7 Mn1 1_555 1_555
O2 C7 1_555 1_555
C8 Mn1 1_555 1_555
O3 C8 1_555 1_555
C9 Mn1 1_555 1_555
O4 C9 1_555 1_555
O5 C4 1_555 1_555
O6 Zn1 1_555 1_555
C10 O6 1_555 1_555
C11 C10 1_555 1_555
C12 C11 1_555 1_555
C13 C12 1_555 1_555
C14 C13 1_555 1_555
C15 C10 1_555 1_555
Mn2 C10 1_555 1_555
C16 Mn2 1_555 1_555
O7 C16 1_555 1_555
C17 Mn2 1_555 1_555
O8 C17 1_555 1_555
C18 Mn2 1_555 1_555
O9 C18 1_555 1_555
O10 C13 1_555 1_555
Zn2 O11 1_555 1_555
O11 C19 1_555 1_555
C19 C20 1_555 1_555
C20 C21 1_555 1_555
C21 C22 1_555 1_555
C22 C23 1_555 1_555
C23 C24 1_555 1_555
C24 C19 1_555 1_555
Mn3 C19 1_555 1_555
C25 Mn3 1_555 1_555
O12 C25 1_555 1_555
C26 Mn3 1_555 1_555
O13 C26 1_555 1_555
C27 Mn3 1_555 1_555
O14 C27 1_555 1_555
O15 C22 1_555 1_555
O16 Zn2 1_555 1_555
C28 O16 1_555 1_555
C29 C28 1_555 1_555
C30 C29 1_555 1_555
C31 C30 1_555 1_555
C32 C31 1_555 1_555
C33 C28 1_555 1_555
Mn4 C28 1_555 1_555
C34 Mn4 1_555 1_555
O17 C34 1_555 1_555
C35 Mn4 1_555 1_555
O18 C35 1_555 1_555
C36 Mn4 1_555 1_555
O19 C36 1_555 1_555
O20 C31 1_555 1_555
H1 C2 1_555 1_555
H2 C3 1_555 1_555
H3 C5 1_555 1_555
H4 C6 1_555 1_555
H5 C11 1_555 1_555
H6 C12 1_555 1_555
H7 C14 1_555 1_555
H8 C15 1_555 1_555
H9 C20 1_555 1_555
H10 C21 1_555 1_555
H11 C23 1_555 1_555
H12 C24 1_555 1_555
H13 C29 1_555 1_555
H14 C30 1_555 1_555
H15 C32 1_555 1_555
H16 C33 1_555 1_555
O5A Zn1 1_555 1_555
O10C Zn1 1_555 1_555
Zn1C O5 1_555 1_555
Zn1A O10 1_555 1_555
O15A Zn2 1_555 1_555
O20A Zn2 1_555 1_555
Zn2C O15 1_555 1_555
Zn2C_2 O20 1_555 1_555
C2 Mn1 1_555 1_555
C3 Mn1 1_555 1_555
C4 Mn1 1_555 1_555
C5 Mn1 1_555 1_555
C6 Mn1 1_555 1_555
C11 Mn2 1_555 1_555
C12 Mn2 1_555 1_555
C13 Mn2 1_555 1_555
C14 C15 1_555 1_555
C14 Mn2 1_555 1_555
C15 Mn2 1_555 1_555
C20 Mn3 1_555 1_555
C21 Mn3 1_555 1_555
C22 Mn3 1_555 1_555
C23 Mn3 1_555 1_555
C24 Mn3 1_555 1_555
C29 Mn4 1_555 1_555
C30 Mn4 1_555 1_555
C31 Mn4 1_555 1_555
C32 C33 1_555 1_555
C32 Mn4 1_555 1_555
C33 Mn4 1_555 1_555

#END
