
#######################################################################
#
#                 Cambridge Crystallographic Data Centre
#                                CCDC 
#
#######################################################################
#
# If this CIF has been generated from an entry in the Cambridge 
# Structural Database, then it will include bibliographic, chemical, 
# crystal, experimental, refinement or atomic coordinate data resulting 
# from the CCDC's data processing and validation procedures.
#
#######################################################################

data_MIHCOW01
_symmetry_cell_setting           orthorhombic
_symmetry_space_group_name_H-M   'P 21 21 21'
_symmetry_Int_Tables_number      19
_space_group_name_Hall           'P 2ac 2ab'
loop_
_symmetry_equiv_pos_site_id
_symmetry_equiv_pos_as_xyz
1 x,y,z
2 1/2-x,-y,1/2+z
3 -x,1/2+y,1/2-z
4 1/2+x,1/2-y,-z
_cell_length_a                   6.6825(8)
_cell_length_b                   16.2052(19)
_cell_length_c                   20.210(2)
_cell_angle_alpha                90
_cell_angle_beta                 90
_cell_angle_gamma                90
_cell_volume                     2188.57
loop_
_atom_site_label
_atom_site_type_symbol
_atom_site_fract_x
_atom_site_fract_y
_atom_site_fract_z
Cu1 Cu 0.41744(6) 0.74926(3) 0.44678(2)
Cl1 Cl 0.33038(12) 0.75854(7) 0.55551(5)
O1 O 0.5310(4) 0.52404(17) 0.62529(13)
H1 H 0.5378 0.5239 0.6668
O2 O 0.6789(4) 0.7492(2) 0.21676(12)
N1 N 0.4385(6) 0.5037(2) 0.49102(15)
N2 N 0.4016(5) 0.62866(19) 0.45022(15)
N3 N 0.4266(4) 0.7537(2) 0.34349(13)
N4 N 0.4329(5) 0.87186(19) 0.43821(15)
C1 C 0.4856(6) 0.4474(3) 0.6036(2)
C2 C 0.4803(6) 0.3789(3) 0.6459(2)
H2 H 0.5131 0.3856 0.6914
C3 C 0.4283(7) 0.3024(3) 0.6224(2)
H3 H 0.4259 0.2567 0.6519
C4 C 0.3800(7) 0.2908(3) 0.5572(2)
H4 H 0.3424 0.2378 0.5415
C5 C 0.3871(7) 0.3583(3) 0.5144(2)
H5 H 0.3561 0.3507 0.4689
C6 C 0.4383(6) 0.4358(2) 0.53705(18)
C7 C 0.4051(7) 0.5837(2) 0.50454(18)
H6 H 0.3863 0.6052 0.5478
C8 C 0.4557(6) 0.4973(3) 0.42282(19)
H7 H 0.4793 0.4482 0.3983
C9 C 0.4327(6) 0.5737(2) 0.39782(18)
C10 C 0.4269(7) 0.5997(2) 0.32772(18)
H8 H 0.2850 0.6036 0.3140
H9 H 0.4897 0.5557 0.3008
C11 C 0.5293(6) 0.6812(2) 0.31110(18)
H10 H 0.6688 0.6786 0.3289
C12 C 0.5440(6) 0.6870(3) 0.23589(19)
H11 H 0.5891 0.6334 0.2178
H12 H 0.4101 0.6992 0.2173
C13 C 0.6332(7) 0.7821(3) 0.1532(2)
H13 H 0.7271 0.8267 0.1428
H14 H 0.4963 0.8038 0.1532
H15 H 0.6448 0.7385 0.1198
C14 C 0.5349(6) 0.8318(2) 0.32769(19)
H16 H 0.4937 0.8514 0.2833
H17 H 0.6806 0.8209 0.3265
C15 C 0.4920(5) 0.8974(2) 0.37780(18)
C16 C 0.5243(5) 0.9795(2) 0.36400(19)
H18 H 0.5651 0.9962 0.3210
C17 C 0.4966(6) 1.0379(3) 0.4136(2)
H19 H 0.5195 1.0948 0.4052
C18 C 0.4356(7) 1.0117(2) 0.4749(2)
H20 H 0.4150 1.0505 0.5095
C19 C 0.4044(7) 0.9289(2) 0.48605(19)
H21 H 0.3616 0.9114 0.5286
C20 C 0.2116(5) 0.7627(3) 0.32338(19)
H22 H 0.2036 0.7711 0.2754
H23 H 0.1527 0.8102 0.3462
H24 H 0.1380 0.7126 0.3354
Cu1C Cu -0.08256(6) 0.75074(3) 0.55322(2)
Cl1C Cl 0.83038(12) 0.74146(7) 0.44449(5)
Cl2 Cl 0.56852(16) 0.53410(7) 0.80613(5)
O3 O 0.5734(5) 0.45390(18) 0.83462(17)
O4 O 0.6097(8) 0.5939(2) 0.8538(2)
O5 O 0.3813(6) 0.5506(2) 0.77542(19)
O6 O 0.7128(6) 0.5349(3) 0.7537(2)
loop_
_geom_bond_atom_site_label_1
_geom_bond_atom_site_label_2
_geom_bond_site_symmetry_1
_geom_bond_site_symmetry_2
Cu1 Cl1 1_555 1_555
Cl1 Cu1C 1_555 1_555
O1 H1 1_555 1_555
O2 C12 1_555 1_555
N1 C6 1_555 1_555
N2 Cu1 1_555 1_555
N3 Cu1 1_555 1_555
N4 Cu1 1_555 1_555
C1 O1 1_555 1_555
C2 C1 1_555 1_555
H2 C2 1_555 1_555
C3 C2 1_555 1_555
H3 C3 1_555 1_555
C4 C3 1_555 1_555
H4 C4 1_555 1_555
C5 C4 1_555 1_555
H5 C5 1_555 1_555
C6 C1 1_555 1_555
C7 N1 1_555 1_555
H6 C7 1_555 1_555
C8 N1 1_555 1_555
H7 C8 1_555 1_555
C9 N2 1_555 1_555
C10 C9 1_555 1_555
H8 C10 1_555 1_555
H9 C10 1_555 1_555
C11 N3 1_555 1_555
H10 C11 1_555 1_555
C12 C11 1_555 1_555
H11 C12 1_555 1_555
H12 C12 1_555 1_555
C13 O2 1_555 1_555
H13 C13 1_555 1_555
H14 C13 1_555 1_555
H15 C13 1_555 1_555
C14 N3 1_555 1_555
H16 C14 1_555 1_555
H17 C14 1_555 1_555
C15 N4 1_555 1_555
C16 C15 1_555 1_555
H18 C16 1_555 1_555
C17 C16 1_555 1_555
H19 C17 1_555 1_555
C18 C17 1_555 1_555
H20 C18 1_555 1_555
C19 N4 1_555 1_555
H21 C19 1_555 1_555
C20 N3 1_555 1_555
H22 C20 1_555 1_555
H23 C20 1_555 1_555
H24 C20 1_555 1_555
Cl2 O3 1_555 1_555
O4 Cl2 1_555 1_555
O5 Cl2 1_555 1_555
O6 Cl2 1_555 1_555
Cl1C Cu1 1_555 1_555
N2 C7 1_555 1_555
C5 C6 1_555 1_555
C8 C9 1_555 1_555
C10 C11 1_555 1_555
C14 C15 1_555 1_555
C18 C19 1_555 1_555

#END
