
#######################################################################
#
#                 Cambridge Crystallographic Data Centre
#                                CCDC 
#
#######################################################################
#
# If this CIF has been generated from an entry in the Cambridge 
# Structural Database, then it will include bibliographic, chemical, 
# crystal, experimental, refinement or atomic coordinate data resulting 
# from the CCDC's data processing and validation procedures.
#
#######################################################################

data_MIJCUF
_symmetry_cell_setting           monoclinic
_symmetry_space_group_name_H-M   'P 21/c'
_symmetry_Int_Tables_number      14
_space_group_name_Hall           '-P 2ybc'
loop_
_symmetry_equiv_pos_site_id
_symmetry_equiv_pos_as_xyz
1 x,y,z
2 -x,1/2+y,1/2-z
3 -x,-y,-z
4 x,1/2-y,1/2+z
_cell_length_a                   9.7802(14)
_cell_length_b                   30.103(3)
_cell_length_c                   8.9867(14)
_cell_angle_alpha                90
_cell_angle_beta                 113.715(7)
_cell_angle_gamma                90
_cell_volume                     2422.39
loop_
_atom_site_label
_atom_site_type_symbol
_atom_site_fract_x
_atom_site_fract_y
_atom_site_fract_z
Cu1 Cu 0.67503(6) 0.053072(18) 0.13643(6)
S1 S 0.20714(15) 0.22934(4) -0.11741(16)
O1 O 0.4951(4) 0.07336(13) -0.0476(4)
C1 C 0.3877(5) 0.05561(15) -0.1629(5)
N1 N 0.5814(5) 0.07892(14) 0.2823(5)
N2 N 0.7710(4) 0.03624(15) -0.0174(5)
O2 O 0.3707(5) 0.01584(11) -0.1981(5)
C2 C -0.0888(5) 0.09425(17) -0.6531(6)
C3 C 0.2700(5) 0.08849(15) -0.2658(5)
O3 O -0.1283(4) 0.05361(11) -0.6731(4)
C4 C 0.1473(5) 0.07481(15) -0.4031(5)
H1 H 0.1347 0.0449 -0.4316
O4 O -0.1521(4) 0.12411(13) -0.7514(4)
C5 C 0.0420(5) 0.10648(16) -0.4991(6)
O5 O 0.2049(4) 0.20977(11) -0.2843(4)
C6 C 0.0625(5) 0.15106(16) -0.4537(6)
H2 H -0.0062 0.1722 -0.5155
O6 O 0.2471(5) 0.27443(13) -0.1231(6)
C7 C 0.1837(5) 0.16373(16) -0.3179(6)
O7 O 0.2947(5) 0.20108(15) 0.0120(5)
C8 C 0.2884(5) 0.13345(15) -0.2250(5)
H3 H 0.3713 0.1429 -0.1351
C9 C 0.0197(7) 0.22552(18) -0.1446(7)
C10 C -0.0285(8) 0.1903(2) -0.0821(10)
H4 H 0.0368 0.1678 -0.0254
C11 C -0.1792(9) 0.1891(3) -0.1059(12)
H5 H -0.2140 0.1653 -0.0649
C12 C -0.2766(8) 0.2222(3) -0.1883(10)
C13 C -0.2243(8) 0.2576(3) -0.2486(10)
H6 H -0.2891 0.2804 -0.3038
C14 C -0.0776(7) 0.2592(2) -0.2277(9)
H7 H -0.0432 0.2830 -0.2693
C15 C -0.4373(10) 0.2207(4) -0.2065(14)
H8 H -0.4596 0.1915 -0.1792
H9 H -0.5024 0.2274 -0.3168
H10 H -0.4518 0.2421 -0.1350
C16 C 0.5150(8) 0.1184(2) 0.2507(8)
H11 H 0.5084 0.1334 0.1576
C17 C 0.4551(9) 0.1382(2) 0.3501(9)
H12 H 0.4101 0.1660 0.3244
C18 C 0.4630(11) 0.1168(3) 0.4828(10)
H13 H 0.4186 0.1290 0.5475
C19 C 0.5375(10) 0.0763(3) 0.5258(9)
H14 H 0.5497 0.0620 0.6220
C20 C 0.5919(8) 0.0583(2) 0.4203(7)
H15 H 0.6382 0.0307 0.4447
C21 C 0.8669(7) 0.0641(2) -0.0418(8)
H16 H 0.8914 0.0904 0.0170
C22 C 0.9307(9) 0.0554(3) -0.1500(10)
H17 H 0.9968 0.0756 -0.1635
C23 C 0.8962(8) 0.0169(3) -0.2373(8)
H18 H 0.9382 0.0104 -0.3110
C24 C 0.7982(9) -0.0121(2) -0.2141(8)
H19 H 0.7754 -0.0389 -0.2699
C25 C 0.7333(8) -0.0012(2) -0.1074(7)
H20 H 0.6623 -0.0202 -0.0975
Cu1_2 Cu -0.32497(6) 0.053072(18) -0.86357(6)
Cu1B Cu 0.32497(6) -0.053072(18) -0.13643(6)
O2B O 0.6293(5) -0.01584(11) 0.1981(5)
O3_2 O 0.8717(4) 0.05361(11) 0.3269(4)
O4_2 O 0.8479(4) 0.12411(13) 0.2486(4)
loop_
_geom_bond_atom_site_label_1
_geom_bond_atom_site_label_2
_geom_bond_site_symmetry_1
_geom_bond_site_symmetry_2
Cu1 O1 1_555 1_555
S1 O5 1_555 1_555
O1 C1 1_555 1_555
C1 O2 1_555 1_555
N1 Cu1 1_555 1_555
N2 Cu1 1_555 1_555
O2 Cu1B 1_555 1_555
C2 O3 1_555 1_555
C3 C1 1_555 1_555
O3 Cu1_2 1_555 1_555
C4 C3 1_555 1_555
H1 C4 1_555 1_555
O4 C2 1_555 1_555
C5 C2 1_555 1_555
O5 C7 1_555 1_555
C6 C5 1_555 1_555
H2 C6 1_555 1_555
O6 S1 1_555 1_555
C7 C6 1_555 1_555
O7 S1 1_555 1_555
C8 C3 1_555 1_555
H3 C8 1_555 1_555
C9 S1 1_555 1_555
C10 C9 1_555 1_555
H4 C10 1_555 1_555
C11 C10 1_555 1_555
H5 C11 1_555 1_555
C12 C11 1_555 1_555
C13 C12 1_555 1_555
H6 C13 1_555 1_555
C14 C9 1_555 1_555
H7 C14 1_555 1_555
C15 C12 1_555 1_555
H8 C15 1_555 1_555
H9 C15 1_555 1_555
H10 C15 1_555 1_555
C16 N1 1_555 1_555
H11 C16 1_555 1_555
C17 C16 1_555 1_555
H12 C17 1_555 1_555
C18 C17 1_555 1_555
H13 C18 1_555 1_555
C19 C18 1_555 1_555
H14 C19 1_555 1_555
C20 N1 1_555 1_555
H15 C20 1_555 1_555
C21 N2 1_555 1_555
H16 C21 1_555 1_555
C22 C21 1_555 1_555
H17 C22 1_555 1_555
C23 C22 1_555 1_555
H18 C23 1_555 1_555
C24 C23 1_555 1_555
H19 C24 1_555 1_555
C25 N2 1_555 1_555
H20 C25 1_555 1_555
Cu1_2 O4 1_555 1_555
O2B Cu1 1_555 1_555
O3_2 Cu1 1_555 1_555
O4_2 Cu1 1_555 1_555
C4 C5 1_555 1_555
C7 C8 1_555 1_555
C13 C14 1_555 1_555
C19 C20 1_555 1_555
C24 C25 1_555 1_555

#END
