
#######################################################################
#
#                 Cambridge Crystallographic Data Centre
#                                CCDC 
#
#######################################################################
#
# If this CIF has been generated from an entry in the Cambridge 
# Structural Database, then it will include bibliographic, chemical, 
# crystal, experimental, refinement or atomic coordinate data resulting 
# from the CCDC's data processing and validation procedures.
#
#######################################################################

data_MIJDOY
_symmetry_cell_setting           monoclinic
_symmetry_space_group_name_H-M   'P 21/c'
_symmetry_Int_Tables_number      14
_space_group_name_Hall           '-P 2ybc'
loop_
_symmetry_equiv_pos_site_id
_symmetry_equiv_pos_as_xyz
1 x,y,z
2 x,1/2-y,1/2+z
3 -x,-y,-z
4 -x,1/2+y,1/2-z
_cell_length_a                   14.643(3)
_cell_length_b                   19.522(5)
_cell_length_c                   18.822(3)
_cell_angle_alpha                90
_cell_angle_beta                 94.48(1)
_cell_angle_gamma                90
_cell_volume                     5364.03
loop_
_atom_site_label
_atom_site_type_symbol
_atom_site_fract_x
_atom_site_fract_y
_atom_site_fract_z
Ag1 Ag 0.94449(3) 0.24318(3) 0.10722(2)
S1 S 0.9736(1) 0.32884(8) 0.21474(7)
S2 S 0.9842(1) 0.16084(8) 0.22183(7)
S3 S 0.9910(1) 0.08802(8) 0.37006(8)
S4 S 1.0132(1) 0.17274(8) 0.51241(7)
S5 S 0.9903(1) 0.33954(8) 0.50556(7)
S6 S 0.9988(1) 0.41320(8) 0.35837(7)
O1 O 0.7950(3) 0.2116(3) 0.1266(3)
C1 C 0.9800(4) 0.2841(3) 0.2974(2)
C2 C 0.9842(4) 0.2125(3) 0.3000(3)
C3 C 0.9890(4) 0.1786(3) 0.3665(3)
C4 C 0.8681(4) 0.3740(3) 0.2143(3)
C5 C 0.7921(5) 0.3499(4) 0.2438(3)
C6 C 0.7103(5) 0.3858(5) 0.2360(4)
C7 C 0.7044(6) 0.4467(5) 0.1974(5)
C8 C 0.7811(7) 0.4712(4) 0.1687(5)
C9 C 0.8641(5) 0.4346(4) 0.1757(4)
C10 C 0.6151(8) 0.4859(7) 0.1860(7)
C11 C 0.8835(4) 0.0712(3) 0.4033(3)
C12 C 0.8749(5) 0.0130(3) 0.4453(4)
C13 C 0.7899(6) -0.0043(4) 0.4663(5)
C14 C 0.7141(6) 0.0345(5) 0.4477(5)
C15 C 0.7221(5) 0.0930(4) 0.4079(5)
C16 C 0.8068(5) 0.1106(3) 0.3856(4)
C17 C 0.6217(7) 0.0133(6) 0.4718(7)
C18 C 1.1034(4) 0.1465(3) 0.2151(3)
C19 C 1.1263(6) 0.0923(4) 0.1737(4)
C20 C 1.2175(7) 0.0839(5) 0.1601(5)
C21 C 1.2861(6) 0.1262(6) 0.1898(6)
C22 C 1.2625(6) 0.1778(5) 0.2325(5)
C23 C 1.1717(5) 0.1897(4) 0.2453(4)
C24 C 1.3842(7) 0.1156(7) 0.1699(7)
C25 C 0.9937(4) 0.2172(3) 0.4300(2)
C26 C 0.9883(4) 0.2890(3) 0.4265(2)
C27 C 0.9864(4) 0.3231(3) 0.3605(2)
C28 C 1.1341(4) 0.1855(3) 0.5296(3)
C29 C 1.1908(5) 0.1965(4) 0.4762(4)
C30 C 1.2849(5) 0.1987(5) 0.4926(5)
C31 C 1.3237(5) 0.1909(5) 0.5607(5)
C32 C 1.2653(6) 0.1808(5) 0.6120(4)
C33 C 1.1705(5) 0.1761(5) 0.5987(3)
C34 C 1.4254(6) 0.1933(7) 0.5764(6)
C35 C 1.1101(4) 0.4184(3) 0.3258(3)
C36 C 1.1260(5) 0.4706(3) 0.2792(3)
C37 C 1.2122(6) 0.4798(4) 0.2568(4)
C38 C 1.2849(5) 0.4375(4) 0.2804(4)
C39 C 1.2668(5) 0.3847(4) 0.3259(4)
C40 C 1.1803(5) 0.3753(3) 0.3490(4)
C41 C 1.3800(6) 0.4472(5) 0.2548(6)
C42 C 0.8833(4) 0.3846(3) 0.4925(3)
C43 C 0.8067(5) 0.3566(3) 0.4588(4)
C44 C 0.7247(5) 0.3909(5) 0.4573(4)
C45 C 0.7188(6) 0.4526(5) 0.4914(5)
C46 C 0.7959(8) 0.4811(5) 0.5229(5)
C47 C 0.8788(6) 0.4477(4) 0.5240(4)
C48 C 0.6258(8) 0.4887(6) 0.4926(6)
C49 C 0.7058(7) 0.2945(5) 0.0592(5)
C50 C 0.7184(6) 0.2329(4) 0.1067(4)
C51 C 0.6372(6) 0.1986(6) 0.1302(6)
C52 C 0.6565(7) 0.1359(6) 0.1726(7)
H1 H 0.7964 0.3056 0.2689
H2 H 0.6558 0.3683 0.2575
H3 H 0.7789 0.5141 0.1427
H4 H 0.9188 0.4501 0.1541
H5 H 0.5944 0.4906 0.1381
H6 H 0.5667 0.4638 0.2110
H7 H 0.6204 0.5320 0.2071
H8 H 0.9294 -0.0154 0.4580
H9 H 0.7847 -0.0447 0.4965
H10 H 0.6694 0.1218 0.3942
H11 H 0.8131 0.1517 0.3576
H12 H 0.5773 0.0067 0.4295
H13 H 0.5950 0.0494 0.4988
H14 H 0.6232 -0.0272 0.4978
H15 H 1.0779 0.0603 0.1545
H16 H 1.2342 0.0463 0.1284
H17 H 1.3111 0.2072 0.2542
H18 H 1.1562 0.2282 0.2760
H19 H 1.4063 0.1562 0.1469
H20 H 1.3911 0.0777 0.1405
H21 H 1.4254 0.1096 0.2132
H22 H 1.1650 0.2028 0.4273
H23 H 1.3257 0.2075 0.4536
H24 H 1.2905 0.1745 0.6612
H25 H 1.1302 0.1652 0.6360
H26 H 1.4563 0.1579 0.5501
H27 H 1.4513 0.2363 0.5626
H28 H 1.4431 0.1861 0.6257
H29 H 1.0750 0.5010 0.2631
H30 H 1.2225 0.5178 0.2240
H31 H 1.3164 0.3540 0.3422
H32 H 1.1692 0.3378 0.3819
H33 H 1.3828 0.4861 0.2252
H34 H 1.4008 0.4080 0.2317
H35 H 1.4243 0.4555 0.2966
H36 H 0.8100 0.3116 0.4365
H37 H 0.6697 0.3702 0.4329
H38 H 0.7944 0.5271 0.5442
H39 H 0.9351 0.4695 0.5459
H40 H 0.5997 0.4974 0.4440
H41 H 0.6309 0.5315 0.5164
H42 H 0.5822 0.4608 0.5149
H43 H 0.7339 0.3348 0.0800
H44 H 0.7323 0.2872 0.0140
H45 H 0.6417 0.3050 0.0475
H46 H 0.6024 0.2299 0.1574
H47 H 0.5969 0.1854 0.0889
H48 H 0.6944 0.1467 0.2170
H49 H 0.6020 0.1142 0.1888
H50 H 0.6891 0.1022 0.1485
S4A S 1.0132(1) 0.32726(8) 0.01241(7)
S5A S 0.9903(1) 0.16046(8) 0.00556(7)
Ag1A Ag 0.94449(3) 0.25682(3) 0.60722(2)
P1 P 0.5242(2) 0.2532(1) 0.3505(1)
F1 F 0.5211(5) 0.1775(4) 0.3367(7)
F2 F 0.5288(5) 0.3315(3) 0.3585(5)
F3 F 0.5442(6) 0.2397(7) 0.4270(4)
F4 F 0.5024(6) 0.2660(5) 0.2704(4)
F5 F 0.6292(4) 0.2526(3) 0.3460(5)
F6 F 0.4186(4) 0.2543(3) 0.3578(4)
loop_
_geom_bond_atom_site_label_1
_geom_bond_atom_site_label_2
_geom_bond_site_symmetry_1
_geom_bond_site_symmetry_2
Ag1 S1 1_555 1_555
S1 C1 1_555 1_555
S2 Ag1 1_555 1_555
S3 C3 1_555 1_555
S4 C25 1_555 1_555
S5 C26 1_555 1_555
S6 C27 1_555 1_555
P1 F1 1_555 1_555
F2 P1 1_555 1_555
F3 P1 1_555 1_555
F4 P1 1_555 1_555
F5 P1 1_555 1_555
F6 P1 1_555 1_555
O1 Ag1 1_555 1_555
C1 C2 1_555 1_555
C2 S2 1_555 1_555
C3 C2 1_555 1_555
C4 S1 1_555 1_555
C5 C4 1_555 1_555
C6 C5 1_555 1_555
C7 C6 1_555 1_555
C8 C7 1_555 1_555
C9 C4 1_555 1_555
C10 C7 1_555 1_555
C11 S3 1_555 1_555
C12 C11 1_555 1_555
C13 C12 1_555 1_555
C14 C13 1_555 1_555
C15 C14 1_555 1_555
C16 C11 1_555 1_555
C17 C14 1_555 1_555
C18 S2 1_555 1_555
C19 C18 1_555 1_555
C20 C19 1_555 1_555
C21 C20 1_555 1_555
C22 C21 1_555 1_555
C23 C18 1_555 1_555
C24 C21 1_555 1_555
C25 C3 1_555 1_555
C26 C25 1_555 1_555
C27 C1 1_555 1_555
C28 S4 1_555 1_555
C29 C28 1_555 1_555
C30 C29 1_555 1_555
C31 C30 1_555 1_555
C32 C31 1_555 1_555
C33 C28 1_555 1_555
C34 C31 1_555 1_555
C35 S6 1_555 1_555
C36 C35 1_555 1_555
C37 C36 1_555 1_555
C38 C37 1_555 1_555
C39 C38 1_555 1_555
C40 C35 1_555 1_555
C41 C38 1_555 1_555
C42 S5 1_555 1_555
C43 C42 1_555 1_555
C44 C43 1_555 1_555
C45 C44 1_555 1_555
C46 C45 1_555 1_555
C47 C42 1_555 1_555
C48 C45 1_555 1_555
C49 C50 1_555 1_555
C50 O1 1_555 1_555
C51 C50 1_555 1_555
C52 C51 1_555 1_555
H1 C5 1_555 1_555
H2 C6 1_555 1_555
H3 C8 1_555 1_555
H4 C9 1_555 1_555
H5 C10 1_555 1_555
H6 C10 1_555 1_555
H7 C10 1_555 1_555
H8 C12 1_555 1_555
H9 C13 1_555 1_555
H10 C15 1_555 1_555
H11 C16 1_555 1_555
H12 C17 1_555 1_555
H13 C17 1_555 1_555
H14 C17 1_555 1_555
H15 C19 1_555 1_555
H16 C20 1_555 1_555
H17 C22 1_555 1_555
H18 C23 1_555 1_555
H19 C24 1_555 1_555
H20 C24 1_555 1_555
H21 C24 1_555 1_555
H22 C29 1_555 1_555
H23 C30 1_555 1_555
H24 C32 1_555 1_555
H25 C33 1_555 1_555
H26 C34 1_555 1_555
H27 C34 1_555 1_555
H28 C34 1_555 1_555
H29 C36 1_555 1_555
H30 C37 1_555 1_555
H31 C39 1_555 1_555
H32 C40 1_555 1_555
H33 C41 1_555 1_555
H34 C41 1_555 1_555
H35 C41 1_555 1_555
H36 C43 1_555 1_555
H37 C44 1_555 1_555
H38 C46 1_555 1_555
H39 C47 1_555 1_555
H40 C48 1_555 1_555
H41 C48 1_555 1_555
H42 C48 1_555 1_555
H43 C49 1_555 1_555
H44 C49 1_555 1_555
H45 C49 1_555 1_555
H46 C51 1_555 1_555
H47 C51 1_555 1_555
H48 C52 1_555 1_555
H49 C52 1_555 1_555
H50 C52 1_555 1_555
S4A Ag1 1_555 1_555
S5A Ag1 1_555 1_555
Ag1A S4 1_555 1_555
S5 Ag1A 1_555 1_555
C8 C9 1_555 1_555
C15 C16 1_555 1_555
C22 C23 1_555 1_555
C26 C27 1_555 1_555
C32 C33 1_555 1_555
C39 C40 1_555 1_555
C46 C47 1_555 1_555

#END
