
#######################################################################
#
#                 Cambridge Crystallographic Data Centre
#                                CCDC 
#
#######################################################################
#
# If this CIF has been generated from an entry in the Cambridge 
# Structural Database, then it will include bibliographic, chemical, 
# crystal, experimental, refinement or atomic coordinate data resulting 
# from the CCDC's data processing and validation procedures.
#
#######################################################################

data_MIJQOL03
_symmetry_cell_setting           monoclinic
_symmetry_space_group_name_H-M   'P 21/n'
_symmetry_Int_Tables_number      14
_space_group_name_Hall           '-P 2yn'
loop_
_symmetry_equiv_pos_site_id
_symmetry_equiv_pos_as_xyz
1 x,y,z
2 1/2-x,1/2+y,1/2-z
3 -x,-y,-z
4 1/2+x,1/2-y,1/2+z
_cell_length_a                   11.9082(10)
_cell_length_b                   8.3277(7)
_cell_length_c                   12.7165(11)
_cell_angle_alpha                90
_cell_angle_beta                 97.361(2)
_cell_angle_gamma                90
_cell_volume                     1250.68
loop_
_atom_site_label
_atom_site_type_symbol
_atom_site_fract_x
_atom_site_fract_y
_atom_site_fract_z
Co1 Co 0.98804(2) 0.07267(3) 0.30054(2)
O1 O 0.57763(14) -0.2207(2) 0.14809(13)
O2 O 0.54482(15) -0.1884(2) -0.02772(13)
O3 O 1.39175(13) 0.3795(2) 0.22924(12)
O4 O 1.35442(13) 0.54234(19) 0.09343(12)
O5 O 0.90353(14) -0.0838(2) 0.39117(12)
H1 H 0.952(3) -0.169(4) 0.412(3)
H2 H 0.874(3) -0.033(4) 0.447(2)
N1 N 0.86980(14) 0.0481(2) 0.16420(14)
N2 N 1.06425(14) 0.2002(2) 0.18521(13)
C1 C 0.77409(18) -0.0392(3) 0.15770(17)
H3 H 0.7576 -0.0933 0.2178
C2 C 0.69890(18) -0.0520(3) 0.06552(18)
C3 C 0.7228(2) 0.0316(3) -0.02285(18)
H4 H 0.6731 0.0274 -0.0855
C4 C 0.8207(2) 0.1212(3) -0.01754(18)
H5 H 0.8377 0.1779 -0.0765
C5 C 0.89330(17) 0.1258(3) 0.07663(17)
C6 C 1.00398(17) 0.2116(3) 0.08836(16)
C7 C 1.04391(19) 0.2951(3) 0.00630(18)
H6 H 1.0011 0.3013 -0.0601
C8 C 1.14876(19) 0.3693(3) 0.02517(18)
H7 H 1.1760 0.4294 -0.0278
C9 C 1.21261(18) 0.3532(3) 0.12357(17)
C10 C 1.16649(18) 0.2668(3) 0.20103(17)
H8 H 1.2092 0.2550 0.2671
C11 C 0.59738(18) -0.1627(3) 0.06024(17)
C12 C 1.32691(18) 0.4274(3) 0.15012(17)
Co1A Co 0.51196(2) -0.42733(3) 0.19946(2)
Co1A_2 Co 1.51196(2) 0.57267(3) 0.19946(2)
O1A O 0.92237(14) 0.2793(2) 0.35191(13)
O3A O 1.10825(13) -0.1205(2) 0.27076(12)
O4A O 1.14558(13) 0.04234(19) 0.40657(12)
O6 O 0.4829(4) -0.0694(3) -0.2718(2)
loop_
_geom_bond_atom_site_label_1
_geom_bond_atom_site_label_2
_geom_bond_site_symmetry_1
_geom_bond_site_symmetry_2
Co1 O5 1_555 1_555
O1 C11 1_555 1_555
O2 C11 1_555 1_555
O3 C12 1_555 1_555
O4 C12 1_555 1_555
O5 H1 1_555 1_555
H2 O5 1_555 1_555
N1 Co1 1_555 1_555
N2 Co1 1_555 1_555
C1 N1 1_555 1_555
H3 C1 1_555 1_555
C2 C1 1_555 1_555
C3 C2 1_555 1_555
H4 C3 1_555 1_555
C4 C3 1_555 1_555
H5 C4 1_555 1_555
C5 N1 1_555 1_555
C6 N2 1_555 1_555
C7 C6 1_555 1_555
H6 C7 1_555 1_555
C8 C7 1_555 1_555
H7 C8 1_555 1_555
C9 C8 1_555 1_555
C10 N2 1_555 1_555
H8 C10 1_555 1_555
C11 C2 1_555 1_555
C12 C9 1_555 1_555
Co1A O1 1_555 1_555
Co1A_2 O3 1_555 1_555
O1A Co1 1_555 1_555
O3A Co1 1_555 1_555
O4A Co1 1_555 1_555
O4 Co1A_2 1_555 1_555
C4 C5 1_555 1_555
C5 C6 1_555 1_555
C9 C10 1_555 1_555

#END
