
#######################################################################
#
#                 Cambridge Crystallographic Data Centre
#                                CCDC 
#
#######################################################################
#
# If this CIF has been generated from an entry in the Cambridge 
# Structural Database, then it will include bibliographic, chemical, 
# crystal, experimental, refinement or atomic coordinate data resulting 
# from the CCDC's data processing and validation procedures.
#
#######################################################################

data_MIJQOL
_symmetry_cell_setting           monoclinic
_symmetry_space_group_name_H-M   'P 21/n'
_symmetry_Int_Tables_number      14
_space_group_name_Hall           '-P 2yn'
loop_
_symmetry_equiv_pos_site_id
_symmetry_equiv_pos_as_xyz
1 x,y,z
2 1/2-x,1/2+y,1/2-z
3 -x,-y,-z
4 1/2+x,1/2-y,1/2+z
_cell_length_a                   11.9857(15)
_cell_length_b                   8.3387(9)
_cell_length_c                   12.7671(13)
_cell_angle_alpha                90
_cell_angle_beta                 97.489(10)
_cell_angle_gamma                90
_cell_volume                     1265.13
loop_
_atom_site_label
_atom_site_type_symbol
_atom_site_fract_x
_atom_site_fract_y
_atom_site_fract_z
Co1 Co 0.98761(3) 0.07275(5) 0.30084(3)
O1 O 1.10790(18) -0.1219(3) 0.27088(17)
O2 O 1.14523(19) 0.0414(3) 0.40674(17)
O3 O 1.9224(2) -0.7196(3) 0.35131(18)
O4 O 1.9559(2) -0.6870(3) 0.52789(18)
O5 O 0.9030(2) -0.0840(3) 0.39087(19)
N1 N 1.4354(2) -0.3000(3) 0.31502(19)
N2 N 1.6310(2) -0.4516(3) 0.33581(19)
C1 C 1.3332(2) -0.2340(4) 0.2997(2)
C2 C 1.2870(3) -0.1481(4) 0.3771(2)
C3 C 1.3512(3) -0.1325(4) 0.4752(3)
C4 C 1.4560(3) -0.2046(4) 0.4937(3)
C5 C 1.4964(2) -0.2886(4) 0.4121(2)
C6 C 1.6070(2) -0.3726(4) 0.4240(2)
C7 C 1.6794(3) -0.3780(5) 0.5172(3)
C8 C 1.7783(3) -0.4668(4) 0.5231(3)
C9 C 1.8016(2) -0.5511(4) 0.4342(2)
C10 C 1.7269(3) -0.5380(4) 0.3420(3)
C11 C 1.1727(2) -0.0740(4) 0.3502(2)
C12 C 1.9027(3) -0.6614(4) 0.4400(2)
H1 H 0.946(3) -0.167(5) 0.415(3)
H2 H 0.876(4) -0.053(5) 0.442(3)
H3 H 1.293(2) -0.251(4) 0.236(2)
H4 H 1.326(3) -0.074(4) 0.532(3)
H5 H 1.498(3) -0.198(5) 0.557(3)
H6 H 1.662(3) -0.326(5) 0.576(3)
H7 H 1.828(3) -0.475(4) 0.583(3)
H8 H 1.743(3) -0.592(4) 0.278(3)
O3_2 O 0.9224(2) 0.2804(3) 0.35131(18)
N1A N 1.0646(2) 0.2000(3) 0.18498(19)
N2A N 0.8690(2) 0.0484(3) 0.16419(19)
Co1_2 Co 1.98761(3) -0.92725(5) 0.30084(3)
Co1A Co 1.51239(3) -0.42725(5) 0.19916(3)
O6 O 0.9816(5) -0.4327(5) 0.2267(3)
H9 H 0.966(11) -0.562(18) 0.273(11)
H10 H 1.050(11) -0.353(18) 0.278(10)
loop_
_geom_bond_atom_site_label_1
_geom_bond_atom_site_label_2
_geom_bond_site_symmetry_1
_geom_bond_site_symmetry_2
Co1 O1 1_555 1_555
O1 C11 1_555 1_555
O2 Co1 1_555 1_555
O3 C12 1_555 1_555
O4 C12 1_555 1_555
O5 Co1 1_555 1_555
N1 C1 1_555 1_555
N2 C6 1_555 1_555
C1 C2 1_555 1_555
C2 C3 1_555 1_555
C3 C4 1_555 1_555
C4 C5 1_555 1_555
C5 N1 1_555 1_555
C6 C5 1_555 1_555
C7 C6 1_555 1_555
C8 C7 1_555 1_555
C9 C8 1_555 1_555
C10 N2 1_555 1_555
C11 O2 1_555 1_555
C12 C9 1_555 1_555
H1 O5 1_555 1_555
H2 O5 1_555 1_555
H3 C1 1_555 1_555
H4 C3 1_555 1_555
H5 C4 1_555 1_555
H6 C7 1_555 1_555
H7 C8 1_555 1_555
H8 C10 1_555 1_555
O6 H9 1_555 1_555
H10 O6 1_555 1_555
O3_2 Co1 1_555 1_555
N1A Co1 1_555 1_555
N2A Co1 1_555 1_555
Co1_2 O3 1_555 1_555
Co1A N1 1_555 1_555
N2 Co1A 1_555 1_555
C2 C11 1_555 1_555
C9 C10 1_555 1_555

#END
