
#######################################################################
#
#                 Cambridge Crystallographic Data Centre
#                                CCDC 
#
#######################################################################
#
# If this CIF has been generated from an entry in the Cambridge 
# Structural Database, then it will include bibliographic, chemical, 
# crystal, experimental, refinement or atomic coordinate data resulting 
# from the CCDC's data processing and validation procedures.
#
#######################################################################

data_MIJQOL02
_symmetry_cell_setting           monoclinic
_symmetry_space_group_name_H-M   'P 21/n'
_symmetry_Int_Tables_number      14
_space_group_name_Hall           '-P 2yn'
loop_
_symmetry_equiv_pos_site_id
_symmetry_equiv_pos_as_xyz
1 x,y,z
2 1/2-x,1/2+y,1/2-z
3 -x,-y,-z
4 1/2+x,1/2-y,1/2+z
_cell_length_a                   11.9696(6)
_cell_length_b                   8.1857(5)
_cell_length_c                   12.6795(8)
_cell_angle_alpha                90
_cell_angle_beta                 97.507(4)
_cell_angle_gamma                90
_cell_volume                     1231.68
loop_
_atom_site_label
_atom_site_type_symbol
_atom_site_fract_x
_atom_site_fract_y
_atom_site_fract_z
Co1 Co 0.51262(4) 0.57230(5) 0.19943(4)
N1 N 0.4348(2) 0.6990(3) 0.3148(2)
N2 N 0.6320(2) 0.5514(3) 0.3363(2)
O1 O 0.1421(2) 1.0398(3) 0.4074(2)
O2 O 0.1062(2) 0.8734(3) 0.27106(19)
O3 O 0.92585(19) 0.2857(3) 0.35207(19)
O4 O 0.95662(19) 0.3152(3) 0.5296(2)
O5 O 0.5984(2) 0.4152(3) 0.1099(2)
H1 H 0.549(3) 0.332(5) 0.081(3)
H2 H 0.628(4) 0.439(5) 0.056(4)
C1 C 0.1706(3) 0.9231(4) 0.3501(3)
C2 C 0.2852(3) 0.8488(4) 0.3768(3)
C3 C 0.3492(3) 0.8676(4) 0.4764(3)
H3 H 0.3209 0.9286 0.5310
C4 C 0.4544(3) 0.7958(4) 0.4940(3)
H4 H 0.4983 0.8037 0.5618
C5 C 0.4955(3) 0.7124(4) 0.4126(3)
C6 C 0.3320(3) 0.7628(4) 0.2993(3)
H5 H 0.2885 0.7489 0.2317
C7 C 0.6070(3) 0.6279(4) 0.4244(3)
C8 C 0.6785(3) 0.6243(4) 0.5186(3)
H6 H 0.6599 0.6819 0.5790
C9 C 0.7785(3) 0.5358(4) 0.5249(3)
H7 H 0.8289 0.5320 0.5893
C10 C 0.8030(3) 0.4533(4) 0.4352(3)
C11 C 0.7280(3) 0.4659(4) 0.3419(3)
H8 H 0.7457 0.4117 0.2799
C12 C 0.9045(3) 0.3420(4) 0.4406(3)
Co1A Co -0.01262(4) 1.07230(5) 0.30057(4)
Co1A_2 Co 0.98738(4) 0.07230(5) 0.30057(4)
O1A O 0.3579(2) 0.5398(3) 0.0926(2)
O2A O 0.3938(2) 0.3734(3) 0.22894(19)
O3A O 0.57415(19) 0.7857(3) 0.14793(19)
O6 O 0.9830(4) 0.5642(3) 0.2242(3)
H9 H 1.0180 0.6522 0.2376
H10 H 0.9666 0.4844 0.2609
loop_
_geom_bond_atom_site_label_1
_geom_bond_atom_site_label_2
_geom_bond_site_symmetry_1
_geom_bond_site_symmetry_2
Co1 N1 1_555 1_555
N1 C5 1_555 1_555
N2 Co1 1_555 1_555
O1 C1 1_555 1_555
O2 C1 1_555 1_555
O3 C12 1_555 1_555
O4 C12 1_555 1_555
O5 Co1 1_555 1_555
H1 O5 1_555 1_555
H2 O5 1_555 1_555
C1 C2 1_555 1_555
C2 C3 1_555 1_555
C3 H3 1_555 1_555
C4 C3 1_555 1_555
H4 C4 1_555 1_555
C5 C4 1_555 1_555
C6 N1 1_555 1_555
H5 C6 1_555 1_555
C7 N2 1_555 1_555
C8 C7 1_555 1_555
H6 C8 1_555 1_555
C9 C8 1_555 1_555
H7 C9 1_555 1_555
C10 C9 1_555 1_555
C11 N2 1_555 1_555
H8 C11 1_555 1_555
C12 C10 1_555 1_555
O6 H9 1_555 1_555
H10 O6 1_555 1_555
Co1A O1 1_555 1_555
Co1A_2 O3 1_555 1_555
O1A Co1 1_555 1_555
O2A Co1 1_555 1_555
O3A Co1 1_555 1_555
O2 Co1A 1_555 1_555
C2 C6 1_555 1_555
C5 C7 1_555 1_555
C10 C11 1_555 1_555

#END
