
#######################################################################
#
#                 Cambridge Crystallographic Data Centre
#                                CCDC 
#
#######################################################################
#
# If this CIF has been generated from an entry in the Cambridge 
# Structural Database, then it will include bibliographic, chemical, 
# crystal, experimental, refinement or atomic coordinate data resulting 
# from the CCDC's data processing and validation procedures.
#
#######################################################################

data_MIJRED
_symmetry_cell_setting           monoclinic
_symmetry_space_group_name_H-M   'P 21/n'
_symmetry_Int_Tables_number      14
_space_group_name_Hall           '-P 2yn'
loop_
_symmetry_equiv_pos_site_id
_symmetry_equiv_pos_as_xyz
1 x,y,z
2 1/2-x,1/2+y,1/2-z
3 -x,-y,-z
4 1/2+x,1/2-y,1/2+z
_cell_length_a                   12.065(3)
_cell_length_b                   11.748(3)
_cell_length_c                   17.431(4)
_cell_angle_alpha                90
_cell_angle_beta                 100.486(3)
_cell_angle_gamma                90
_cell_volume                     2429.4
loop_
_atom_site_label
_atom_site_type_symbol
_atom_site_fract_x
_atom_site_fract_y
_atom_site_fract_z
Co1 Co 0.441508(19) 0.786837(18) -0.603085(12)
O1 O 0.57563(13) 0.88675(13) -0.62476(9)
C1 C 0.27490(16) 0.47519(18) -0.32657(12)
H1 H 0.2489 0.4111 -0.3557
C2 C 0.02234(18) 0.5469(2) -0.68566(13)
H2 H -0.0438 0.5167 -0.7141
O3 O 0.45956(11) 0.68228(11) -0.69091(7)
N1 N 0.17934(13) 0.54843(15) -0.48700(9)
C3 C 0.32846(19) 0.5692(2) -0.20610(12)
H3 H 0.3402 0.5699 -0.1519
N2 N 0.32795(11) 0.66201(12) -0.56500(8)
O4 O 0.19063(12) 0.40001(12) -0.82674(8)
C4 C 0.3485(2) 0.6653(2) -0.24645(12)
H4 H 0.3731 0.7305 -0.2182
N3 N 0.53410(12) 0.71809(11) -0.50110(8)
O5 O 0.57454(13) 0.77753(12) -0.75541(9)
C5 C 0.18922(16) 0.65907(18) -0.68348(11)
H5 H 0.2331 0.7063 -0.7086
O6 O 0.15116(12) 0.40278(12) -0.95380(7)
C6 C 0.05033(18) 0.5243(2) -0.60825(13)
H6 H 0.0026 0.4808 -0.5838
C7 C 0.15233(15) 0.56704(17) -0.56489(11)
C8 C 0.29110(18) 0.4726(2) -0.24637(13)
H7 H 0.2770 0.4067 -0.2202
C9 C 0.65188(16) 0.61561(17) -0.36879(11)
H8 H 0.6914 0.5817 -0.3238
C10 C 0.09075(17) 0.6146(2) -0.72331(12)
H9 H 0.0691 0.6296 -0.7763
C11 C 0.64425(17) 0.73715(18) -0.47713(12)
H10 H 0.6811 0.7856 -0.5064
C12 C 0.48383(16) 0.66669(17) -0.89465(11)
H11 H 0.5427 0.7174 -0.8957
C13 C 0.29780(14) 0.57417(16) -0.36311(10)
C14 C 0.70525(17) 0.68817(19) -0.41114(12)
H12 H 0.7815 0.7042 -0.3957
C15 C 0.27884(15) 0.58279(15) -0.44964(10)
C16 C 0.22355(14) 0.63246(15) -0.60374(10)
C17 C 0.48048(14) 0.64838(13) -0.45834(9)
C18 C 0.44811(15) 0.64381(14) -0.82484(10)
N4 N 0.33420(15) 0.66952(15) -0.32439(9)
C19 C 0.35921(14) 0.63134(13) -0.49121(9)
C20 C 0.53874(16) 0.59289(15) -0.39326(10)
H13 H 0.5021 0.5409 -0.3663
C21 C 0.36153(15) 0.56730(14) -0.82422(10)
H14 H 0.3388 0.5503 -0.7773
C22 C 0.49958(16) 0.70659(14) -0.75178(11)
C23 C 0.43160(17) 0.61378(19) -0.96290(11)
H15 H 0.4561 0.6287 -1.0095
C24 C 0.34379(17) 0.53941(17) -0.96212(11)
H16 H 0.3085 0.5052 -1.0082
C25 C 0.30763(15) 0.51522(15) -0.89245(10)
C26 C 0.21158(16) 0.43548(15) -0.89039(10)
H17 H 0.575(2) 0.959(2) -0.6222(13)
H19 H 0.580(2) 0.864(2) -0.6704(17)
Co1A Co 0.058492(19) 0.286837(18) -0.896915(12)
O4A O 0.30937(12) 0.90001(12) -0.67326(8)
O6A O 0.34884(12) 0.90278(12) -0.54620(7)
O2 O 0.6287(2) 1.11044(14) -0.61236(10)
H18 H 0.639(2) 1.107(2) -0.5606(17)
H20 H 0.635(2) 1.175(2) -0.6347(15)
loop_
_geom_bond_atom_site_label_1
_geom_bond_atom_site_label_2
_geom_bond_site_symmetry_1
_geom_bond_site_symmetry_2
Co1 O1 1_555 1_555
O1 H17 1_555 1_555
C1 H1 1_555 1_555
C2 H2 1_555 1_555
O2 H18 1_555 1_555
O3 Co1 1_555 1_555
N1 C7 1_555 1_555
C3 H3 1_555 1_555
N2 Co1 1_555 1_555
O4 C26 1_555 1_555
C4 C3 1_555 1_555
H4 C4 1_555 1_555
N3 Co1 1_555 1_555
O5 C22 1_555 1_555
C5 H5 1_555 1_555
O6 C26 1_555 1_555
C6 C2 1_555 1_555
H6 C6 1_555 1_555
C7 C6 1_555 1_555
C8 C1 1_555 1_555
H7 C8 1_555 1_555
C9 H8 1_555 1_555
C10 C2 1_555 1_555
H9 C10 1_555 1_555
C11 N3 1_555 1_555
H10 C11 1_555 1_555
C12 H11 1_555 1_555
C13 C1 1_555 1_555
C14 C9 1_555 1_555
H12 C14 1_555 1_555
C15 N1 1_555 1_555
C16 N2 1_555 1_555
C17 N3 1_555 1_555
C18 C12 1_555 1_555
N4 C4 1_555 1_555
C19 N2 1_555 1_555
C20 C9 1_555 1_555
H13 C20 1_555 1_555
C21 C18 1_555 1_555
H14 C21 1_555 1_555
C22 O3 1_555 1_555
C23 C12 1_555 1_555
H15 C23 1_555 1_555
C24 C23 1_555 1_555
H16 C24 1_555 1_555
C25 C21 1_555 1_555
C26 C25 1_555 1_555
H19 O1 1_555 1_555
H20 O2 1_555 1_555
Co1A O4 1_555 1_555
O4A Co1 1_555 1_555
O6A Co1 1_555 1_555
C3 C8 1_555 1_555
C5 C10 1_555 1_555
C5 C16 1_555 1_555
O6 Co1A 1_555 1_555
C7 C16 1_555 1_555
C11 C14 1_555 1_555
C13 C15 1_555 1_555
C13 N4 1_555 1_555
C15 C19 1_555 1_555
C17 C19 1_555 1_555
C17 C20 1_555 1_555
C18 C22 1_555 1_555
C24 C25 1_555 1_555

#END
