
#######################################################################
#
#                 Cambridge Crystallographic Data Centre
#                                CCDC 
#
#######################################################################
#
# If this CIF has been generated from an entry in the Cambridge 
# Structural Database, then it will include bibliographic, chemical, 
# crystal, experimental, refinement or atomic coordinate data resulting 
# from the CCDC's data processing and validation procedures.
#
#######################################################################

data_MIJSII
_symmetry_cell_setting           tetragonal
_symmetry_space_group_name_H-M   'P 4/n m m'
_symmetry_Int_Tables_number      129
_space_group_name_Hall           '-P 4a 2a'
loop_
_symmetry_equiv_pos_site_id
_symmetry_equiv_pos_as_xyz
1 x,y,z
2 1/2-y,x,z
3 y,1/2-x,z
4 1/2+y,1/2+x,-z
5 1/2-x,1/2-y,z
6 1/2+x,-y,-z
7 -x,1/2+y,-z
8 -y,-x,-z
9 -x,-y,-z
10 1/2+y,-x,-z
11 -y,1/2+x,-z
12 1/2-y,1/2-x,z
13 1/2+x,1/2+y,-z
14 1/2-x,y,z
15 x,1/2-y,z
16 y,x,z
_cell_length_a                   19.0403(7)
_cell_length_b                   19.0403(7)
_cell_length_c                   6.8527(4)
_cell_angle_alpha                90
_cell_angle_beta                 90
_cell_angle_gamma                90
_cell_volume                     2484.33
loop_
_atom_site_label
_atom_site_type_symbol
_atom_site_fract_x
_atom_site_fract_y
_atom_site_fract_z
Cu1 Cu 0.46866(3) 0.03134(3) 0.35421(11)
C1 C 0.7500 0.0094(4) 0.3315(10)
H1 H 0.7500 -0.0110 0.4548
C2 C 0.6871(2) 0.0248(3) 0.2388(7)
C3 C 0.6871(3) 0.0549(3) 0.0527(7)
H2 H 0.6447 0.0642 -0.0093
C4 C 0.7500 0.0710(4) -0.0412(10)
C5 C 0.7500 0.1075(5) -0.2364(11)
H3 H 0.7916 0.0940 -0.3082
H4 H 0.7500 0.1578 -0.2153
C6 C 0.6182(3) 0.0131(3) 0.3389(7)
O1 O 0.5651(2) 0.0356(3) 0.2569(6)
O2 O 0.6184(2) -0.0171(3) 0.5001(7)
O3 O 0.42709(19) 0.07291(19) 0.0919(7)
H5 H 0.3970 0.1030 0.1069
H6 H 0.4344 0.0656 -0.0242
Cu1C Cu 0.53134(3) -0.03134(3) 0.64579(11)
Cu1B Cu 1.03134(3) 0.03134(3) 0.35421(11)
Cu1J Cu 0.96866(3) -0.03134(3) 0.64579(11)
C2M C 0.8129(2) 0.0248(3) 0.2388(7)
C3M C 0.8129(3) 0.0549(3) 0.0527(7)
H2M H 0.8553 0.0642 -0.0093
H3M H 0.7084 0.0940 -0.3082
C6M C 0.8818(3) 0.0131(3) 0.3389(7)
O1M O 0.9349(2) 0.0356(3) 0.2569(6)
O1K O 0.4644(3) -0.0651(2) 0.2569(6)
O2M O 0.8816(2) -0.0171(3) 0.5001(7)
O2C O 0.4829(3) 0.1184(2) 0.4999(7)
O2H O 0.3816(2) 0.0171(3) 0.4999(7)
O4 O 0.1735(5) 0.1735(5) 1.023(2)
H7 H 0.1388 0.1897 0.9704
H7O H 0.1897 0.1388 0.9704
O5 O 0.1737(4) 0.1737(4) 0.5657(17)
H8 H 0.1483 0.1993 0.4994
H8O H 0.1993 0.1483 0.4994
loop_
_geom_bond_atom_site_label_1
_geom_bond_atom_site_label_2
_geom_bond_site_symmetry_1
_geom_bond_site_symmetry_2
Cu1 O1 1_555 1_555
C1 H1 1_555 1_555
C2 C1 1_555 1_555
C3 C2 1_555 1_555
H2 C3 1_555 1_555
C4 C3 1_555 1_555
C5 C4 1_555 1_555
H3 C5 1_555 1_555
H4 C5 1_555 1_555
C6 C2 1_555 1_555
O1 C6 1_555 1_555
O2 C6 1_555 1_555
O3 Cu1 1_555 1_555
H5 O3 1_555 1_555
H6 O3 1_555 1_555
O4 H7 1_555 1_555
O5 H8 1_555 1_555
Cu1C Cu1 1_555 1_555
Cu1B Cu1J 1_555 1_555
Cu1J O2M 1_555 1_555
C2M C1 1_555 1_555
C3M C4 1_555 1_555
H2M C3M 1_555 1_555
H3M C5 1_555 1_555
C6M C2M 1_555 1_555
O1M Cu1B 1_555 1_555
O1K Cu1 1_555 1_555
O2M C6M 1_555 1_555
O2C Cu1 1_555 1_555
O2H Cu1 1_555 1_555
H7O O4 1_555 1_555
H8O O5 1_555 1_555
O2 Cu1C 1_555 1_555
C2M C3M 1_555 1_555
C6M O1M 1_555 1_555

#END
