
#######################################################################
#
#                 Cambridge Crystallographic Data Centre
#                                CCDC 
#
#######################################################################
#
# If this CIF has been generated from an entry in the Cambridge 
# Structural Database, then it will include bibliographic, chemical, 
# crystal, experimental, refinement or atomic coordinate data resulting 
# from the CCDC's data processing and validation procedures.
#
#######################################################################

data_MIJWOT
_symmetry_cell_setting           monoclinic
_symmetry_space_group_name_H-M   'P 21/c'
_symmetry_Int_Tables_number      14
_space_group_name_Hall           '-P 2ybc'
loop_
_symmetry_equiv_pos_site_id
_symmetry_equiv_pos_as_xyz
1 x,y,z
2 -x,1/2+y,1/2-z
3 -x,-y,-z
4 x,1/2-y,1/2+z
_cell_length_a                   11.8506(5)
_cell_length_b                   9.0396(3)
_cell_length_c                   21.0667(8)
_cell_angle_alpha                90
_cell_angle_beta                 105.239(3)
_cell_angle_gamma                90
_cell_volume                     2177.41
loop_
_atom_site_label
_atom_site_type_symbol
_atom_site_fract_x
_atom_site_fract_y
_atom_site_fract_z
Cu1 Cu 0.32570(2) 0.73456(3) 0.797187(11)
S1 S 0.35480(4) 0.50467(5) 0.75933(2)
S2 S 0.50137(4) 0.32690(5) 0.63567(2)
O1 O 0.33808(12) 0.61512(15) 0.57167(6)
N1 N 0.26878(13) 0.86400(17) 0.71526(7)
N2 N 0.21134(15) 0.73448(19) 0.85145(9)
C1 C 0.18022(17) 0.9583(2) 0.71430(10)
H1 H 0.1463 0.9580 0.7504
C2 C 0.13682(18) 1.0551(2) 0.66319(10)
H2 H 0.0738 1.1193 0.6640
C3 C 0.18638(19) 1.0572(2) 0.61092(11)
H3 H 0.1591 1.1242 0.5755
C4 C 0.27639(18) 0.9601(2) 0.61101(10)
H4 H 0.3110 0.9590 0.5751
C5 C 0.31620(16) 0.8642(2) 0.66359(9)
C6 C 0.41786(16) 0.76201(19) 0.66662(9)
H5 H 0.4646 0.7561 0.7130
H6 H 0.4681 0.8078 0.6412
C7 C 0.38934(15) 0.60263(19) 0.64099(8)
C8 C 0.30071(15) 0.5241(2) 0.67068(8)
H7 H 0.2836 0.4249 0.6506
H8 H 0.2268 0.5811 0.6603
C9 C 0.25287(19) 0.3702(2) 0.77657(10)
H9 H 0.2662 0.2741 0.7572
H10 H 0.2701 0.3567 0.8248
C10 C 0.12510(19) 0.4114(3) 0.75053(12)
H11 H 0.1116 0.5091 0.7674
H12 H 0.0765 0.3378 0.7650
H13 H 0.1046 0.4140 0.7023
C11 C 0.50790(15) 0.5227(2) 0.65556(9)
H14 H 0.5473 0.5343 0.7029
H15 H 0.5571 0.5725 0.6306
C12 C 0.52338(17) 0.3306(2) 0.55329(8)
H16 H 0.4611 0.3901 0.5237
H17 H 0.5997 0.3768 0.5546
C13 C 0.52044(19) 0.1738(2) 0.52736(10)
H18 H 0.5808 0.1147 0.5574
H19 H 0.5352 0.1752 0.4837
H20 H 0.4434 0.1302 0.5242
C14 C 0.17393(17) 0.7225(2) 0.89563(10)
C15 C 0.1293(2) 0.7041(3) 0.95321(10)
H21 H 0.1216 0.5984 0.9616
H22 H 0.0526 0.7518 0.9454
H23 H 0.1836 0.7496 0.9915
H24 H 0.306(3) 0.543(4) 0.5569(18)
Cu1A Cu 0.67430(2) 0.23456(3) 0.702813(11)
S2A S 0.49863(4) 0.82690(5) 0.86433(2)
S3 S 0.20109(4) 0.30279(6) 0.44946(2)
O2 O 0.21560(15) 0.35679(18) 0.51564(7)
O3 O 0.25894(17) 0.3875(2) 0.41055(9)
O4 O 0.20952(19) 0.1459(2) 0.44430(9)
C16 C 0.0475(2) 0.3379(3) 0.41131(11)
F1 F 0.01997(18) 0.4782(2) 0.41779(10)
F2 F -0.01986(16) 0.2555(3) 0.43723(10)
F3 F 0.01785(13) 0.3074(2) 0.34774(7)
loop_
_geom_bond_atom_site_label_1
_geom_bond_atom_site_label_2
_geom_bond_site_symmetry_1
_geom_bond_site_symmetry_2
Cu1 S1 1_555 1_555
S1 C8 1_555 1_555
S2 C11 1_555 1_555
O1 C7 1_555 1_555
N1 Cu1 1_555 1_555
N2 Cu1 1_555 1_555
C1 N1 1_555 1_555
H1 C1 1_555 1_555
C2 C1 1_555 1_555
H2 C2 1_555 1_555
C3 C2 1_555 1_555
H3 C3 1_555 1_555
C4 C3 1_555 1_555
H4 C4 1_555 1_555
C5 N1 1_555 1_555
C6 C5 1_555 1_555
H5 C6 1_555 1_555
H6 C6 1_555 1_555
C7 C6 1_555 1_555
C8 C7 1_555 1_555
H7 C8 1_555 1_555
H8 C8 1_555 1_555
C9 S1 1_555 1_555
H9 C9 1_555 1_555
H10 C9 1_555 1_555
C10 C9 1_555 1_555
H11 C10 1_555 1_555
H12 C10 1_555 1_555
H13 C10 1_555 1_555
C11 C7 1_555 1_555
H14 C11 1_555 1_555
H15 C11 1_555 1_555
C12 S2 1_555 1_555
H16 C12 1_555 1_555
H17 C12 1_555 1_555
C13 C12 1_555 1_555
H18 C13 1_555 1_555
H19 C13 1_555 1_555
H20 C13 1_555 1_555
C14 N2 1_555 1_555
C15 C14 1_555 1_555
H21 C15 1_555 1_555
H22 C15 1_555 1_555
H23 C15 1_555 1_555
H24 O1 1_555 1_555
S3 O2 1_555 1_555
O3 S3 1_555 1_555
O4 S3 1_555 1_555
C16 S3 1_555 1_555
F1 C16 1_555 1_555
F2 C16 1_555 1_555
F3 C16 1_555 1_555
Cu1A S2 1_555 1_555
S2A Cu1 1_555 1_555
C4 C5 1_555 1_555

#END
