
#######################################################################
#
#                 Cambridge Crystallographic Data Centre
#                                CCDC 
#
#######################################################################
#
# If this CIF has been generated from an entry in the Cambridge 
# Structural Database, then it will include bibliographic, chemical, 
# crystal, experimental, refinement or atomic coordinate data resulting 
# from the CCDC's data processing and validation procedures.
#
#######################################################################

data_MIJWEJ
_symmetry_cell_setting           orthorhombic
_symmetry_space_group_name_H-M   'P b c a'
_symmetry_Int_Tables_number      61
_space_group_name_Hall           '-P 2ac 2ab'
loop_
_symmetry_equiv_pos_site_id
_symmetry_equiv_pos_as_xyz
1 x,y,z
2 1/2-x,-y,1/2+z
3 1/2+x,1/2-y,-z
4 -x,1/2+y,1/2-z
5 -x,-y,-z
6 1/2+x,y,1/2-z
7 1/2-x,1/2+y,z
8 x,1/2-y,1/2+z
_cell_length_a                   14.7518(4)
_cell_length_b                   12.6686(4)
_cell_length_c                   18.8775(8)
_cell_angle_alpha                90
_cell_angle_beta                 90
_cell_angle_gamma                90
_cell_volume                     3527.92
loop_
_atom_site_label
_atom_site_type_symbol
_atom_site_fract_x
_atom_site_fract_y
_atom_site_fract_z
Cu1 Cu 0.82111(3) 0.70668(3) 0.404837(19)
S1 S 0.67292(5) 0.66871(6) 0.43323(4)
S2 S 0.65668(5) 0.38717(5) 0.43773(4)
N1 N 0.88405(17) 0.64044(19) 0.48859(13)
N2 N 0.91840(19) 0.5431(2) 0.58141(13)
N3 N 0.8529(2) 0.6939(2) 0.30626(15)
O1 O 0.73810(18) 0.45967(19) 0.58836(12)
C1 C 0.8531(2) 0.5679(2) 0.53344(15)
C2 C 0.9710(2) 0.6634(2) 0.50933(17)
H1 H 1.0090 0.7121 0.4876
C3 C 0.9926(2) 0.6038(3) 0.56638(17)
H2 H 1.0475 0.6041 0.5907
C4 C 0.9184(3) 0.4653(3) 0.63917(18)
H3 H 0.8811 0.4904 0.6772
H4 H 0.9792 0.4553 0.6559
H5 H 0.8950 0.3994 0.6220
C5 C 0.7600(2) 0.5189(2) 0.52690(14)
C6 C 0.6845(2) 0.6026(2) 0.51744(16)
H6 H 0.6936 0.6565 0.5533
H7 H 0.6270 0.5687 0.5278
C7 C 0.5998(2) 0.5807(2) 0.38234(18)
H8 H 0.5447 0.5698 0.4093
H9 H 0.5829 0.6169 0.3390
C8 C 0.6368(2) 0.4729(2) 0.36210(17)
H10 H 0.6934 0.4823 0.3366
H11 H 0.5943 0.4388 0.3303
C9 C 0.7653(2) 0.4389(2) 0.46651(15)
H12 H 0.8031 0.3804 0.4815
H13 H 0.7948 0.4721 0.4264
C10 C 0.8611(2) 0.7019(2) 0.24678(17)
C11 C 0.8709(3) 0.7141(3) 0.17075(17)
H14 H 0.9117 0.6614 0.1530
H15 H 0.8946 0.7830 0.1605
H16 H 0.8128 0.7061 0.1485
H17 H 0.725(3) 0.489(4) 0.615(2)
Cu1F Cu 0.67889(3) 0.20668(3) 0.404837(19)
S2F S 0.84332(5) 0.88717(5) 0.43773(4)
P1 P 0.61482(6) 0.63898(7) 0.72827(4)
F1 F 0.71317(17) 0.6197(3) 0.69384(14)
F2 F 0.5866(2) 0.5263(2) 0.70018(19)
F3 F 0.5754(2) 0.6840(2) 0.65476(14)
F4 F 0.6410(3) 0.7553(3) 0.7490(2)
F5 F 0.65208(19) 0.5969(3) 0.80091(14)
F6 F 0.51714(18) 0.6542(3) 0.76206(13)
loop_
_geom_bond_atom_site_label_1
_geom_bond_atom_site_label_2
_geom_bond_site_symmetry_1
_geom_bond_site_symmetry_2
Cu1 S1 1_555 1_555
S1 C6 1_555 1_555
S2 C8 1_555 1_555
N1 Cu1 1_555 1_555
N2 C1 1_555 1_555
N3 Cu1 1_555 1_555
O1 C5 1_555 1_555
C1 N1 1_555 1_555
C2 N1 1_555 1_555
H1 C2 1_555 1_555
C3 N2 1_555 1_555
H2 C3 1_555 1_555
C4 N2 1_555 1_555
H3 C4 1_555 1_555
H4 C4 1_555 1_555
H5 C4 1_555 1_555
C5 C1 1_555 1_555
C6 C5 1_555 1_555
H6 C6 1_555 1_555
H7 C6 1_555 1_555
C7 S1 1_555 1_555
H8 C7 1_555 1_555
H9 C7 1_555 1_555
C8 C7 1_555 1_555
H10 C8 1_555 1_555
H11 C8 1_555 1_555
C9 S2 1_555 1_555
H12 C9 1_555 1_555
H13 C9 1_555 1_555
C10 N3 1_555 1_555
C11 C10 1_555 1_555
H14 C11 1_555 1_555
H15 C11 1_555 1_555
H16 C11 1_555 1_555
H17 O1 1_555 1_555
P1 F1 1_555 1_555
F2 P1 1_555 1_555
F3 P1 1_555 1_555
F4 P1 1_555 1_555
F5 P1 1_555 1_555
F6 P1 1_555 1_555
Cu1F S2 1_555 1_555
S2F Cu1 1_555 1_555
C2 C3 1_555 1_555
C5 C9 1_555 1_555

#END
