
#######################################################################
#
#                 Cambridge Crystallographic Data Centre
#                                CCDC 
#
#######################################################################
#
# If this CIF has been generated from an entry in the Cambridge 
# Structural Database, then it will include bibliographic, chemical, 
# crystal, experimental, refinement or atomic coordinate data resulting 
# from the CCDC's data processing and validation procedures.
#
#######################################################################

data_MIKFAP
_symmetry_cell_setting           orthorhombic
_symmetry_space_group_name_H-M   'P b c a'
_symmetry_Int_Tables_number      61
_space_group_name_Hall           '-P 2ac 2ab'
loop_
_symmetry_equiv_pos_site_id
_symmetry_equiv_pos_as_xyz
1 x,y,z
2 1/2-x,-y,1/2+z
3 -x,1/2+y,1/2-z
4 1/2+x,1/2-y,-z
5 -x,-y,-z
6 1/2+x,y,1/2-z
7 x,1/2-y,1/2+z
8 1/2-x,1/2+y,z
_cell_length_a                   17.092(3)
_cell_length_b                   17.526(3)
_cell_length_c                   25.402(5)
_cell_angle_alpha                90
_cell_angle_beta                 90
_cell_angle_gamma                90
_cell_volume                     7609.28
loop_
_atom_site_label
_atom_site_type_symbol
_atom_site_fract_x
_atom_site_fract_y
_atom_site_fract_z
U1 U 0.48210(3) 0.68808(3) 0.74001(2)
U2 U 1.00319(3) 0.93550(3) 0.64144(2)
Zn1 Zn 0.47300(10) 0.74856(10) 0.59248(7)
P1 P 0.6367(2) 0.8050(2) 0.79186(16)
P2 P 0.8418(2) 0.5535(2) 0.80795(16)
P3 P 0.5956(2) 0.6154(2) 0.63462(16)
P4 P 0.8562(2) 0.7978(2) 0.67038(17)
N1 N 0.4033(7) 0.6652(7) 0.5503(5)
N2 N 0.3579(7) 0.8003(7) 0.5866(5)
N3 N 0.5063(7) 0.7973(7) 0.5155(5)
N4 N 0.5251(7) 0.8575(7) 0.6126(5)
O1 O 0.5095(6) 0.6460(6) 0.8008(4)
O2 O 0.4491(6) 0.7298(6) 0.6777(4)
O3 O 0.9773(6) 0.9498(6) 0.7078(4)
O4 O 1.0283(5) 0.9198(5) 0.5751(4)
O5 O 0.5804(6) 0.7713(6) 0.7514(4)
O6 O 0.5917(6) 0.8471(6) 0.8342(4)
O7 O 0.6973(5) 0.8557(5) 0.7663(4)
O8 O 0.7872(6) 0.4945(6) 0.7812(5)
H1 H 0.7536 0.5169 0.7641
O9 O 0.8922(6) 0.5154(6) 0.8513(4)
O10 O 0.8921(6) 0.5934(5) 0.7660(4)
O11 O 0.5627(5) 0.6771(5) 0.5993(4)
O12 O 0.5706(5) 0.6233(5) 0.6922(4)
O13 O 0.5738(5) 0.5364(5) 0.6143(4)
O14 O 0.7893(6) 0.8545(6) 0.6831(5)
H2 H 0.7650 0.8394 0.7089
O15 O 0.8927(6) 0.7680(6) 0.7202(4)
O16 O 0.9127(6) 0.8376(6) 0.6337(4)
C1 C 0.6847(9) 0.7297(8) 0.8286(6)
H3 H 0.7158 0.7534 0.8560
H4 H 0.6444 0.6998 0.8459
C2 C 0.7373(8) 0.6750(8) 0.7984(6)
H5 H 0.7754 0.7034 0.7780
H6 H 0.7063 0.6443 0.7745
C3 C 0.7791(8) 0.6235(8) 0.8382(6)
H7 H 0.7402 0.5975 0.8594
H8 H 0.8102 0.6551 0.8616
C4 C 0.7014(8) 0.6236(8) 0.6313(6)
H9 H 0.7249 0.5834 0.6523
H10 H 0.7182 0.6165 0.5951
C5 C 0.7307(8) 0.7015(8) 0.6511(6)
H11 H 0.6975 0.7413 0.6369
H12 H 0.7263 0.7030 0.6892
C6 C 0.8138(8) 0.7168(8) 0.6357(7)
H13 H 0.8160 0.7264 0.5981
H14 H 0.8450 0.6717 0.6429
C7 C 0.5320(10) 0.8879(9) 0.6592(7)
H15 H 0.5119 0.8613 0.6878
C8 C 0.5683(11) 0.9591(10) 0.6687(8)
H16 H 0.5742 0.9779 0.7027
C9 C 0.5936(11) 0.9982(11) 0.6274(8)
H17 H 0.6168 1.0455 0.6328
C10 C 0.5864(10) 0.9704(9) 0.5749(7)
C11 C 0.5511(8) 0.8987(9) 0.5697(7)
C12 C 0.6130(10) 1.0095(10) 0.5293(8)
H18 H 0.6391 1.0559 0.5327
C13 C 0.6009(11) 0.9803(11) 0.4824(8)
H19 H 0.6158 1.0084 0.4529
C14 C 0.5656(8) 0.9065(9) 0.4746(7)
C15 C 0.5409(9) 0.8671(9) 0.5173(6)
C16 C 0.5545(10) 0.8724(10) 0.4262(7)
H20 H 0.5706 0.8970 0.3956
C17 C 0.5197(9) 0.8019(10) 0.4234(7)
H21 H 0.5115 0.7789 0.3909
C18 C 0.4962(9) 0.7644(9) 0.4700(6)
H22 H 0.4735 0.7162 0.4682
C19 C 0.3309(10) 0.8660(10) 0.6073(7)
H23 H 0.3615 0.8910 0.6322
C20 C 0.2583(11) 0.8988(10) 0.5931(8)
H24 H 0.2398 0.9423 0.6099
C21 C 0.2169(11) 0.8656(11) 0.5548(8)
H25 H 0.1709 0.8884 0.5433
C22 C 0.2404(9) 0.8007(11) 0.5329(7)
C23 C 0.3115(9) 0.7665(9) 0.5495(7)
C24 C 0.2000(11) 0.7596(11) 0.4910(8)
H26 H 0.1564 0.7826 0.4759
C25 C 0.2211(10) 0.6915(11) 0.4730(7)
H27 H 0.1914 0.6666 0.4476
C26 C 0.2910(9) 0.6574(9) 0.4937(7)
C27 C 0.3363(9) 0.6953(9) 0.5302(6)
C28 C 0.3179(10) 0.5832(10) 0.4770(7)
H28 H 0.2896 0.5553 0.4523
C29 C 0.3850(10) 0.5545(10) 0.4978(7)
H29 H 0.4034 0.5069 0.4874
C30 C 0.4250(8) 0.5969(8) 0.5344(6)
H30 H 0.4702 0.5762 0.5489
U1E U 0.98210(3) 0.68808(3) 0.75999(2)
U2B U 0.99681(3) 0.43550(3) 0.85856(2)
U2E U 0.50319(3) 0.93550(3) 0.85856(2)
U2G U 0.49681(3) 0.43550(3) 0.64144(2)
O6E O 1.0917(6) 0.8471(6) 0.6658(4)
O9B O 1.1078(6) 1.0154(6) 0.6487(4)
O10E O 0.3921(6) 0.5934(5) 0.7340(4)
O13G O 0.9262(5) 1.0364(5) 0.6143(4)
O15E O 0.3927(6) 0.7680(6) 0.7798(4)
O17 O 0.7214(6) 0.4295(5) 0.7403(4)
O18 O 0.3784(8) 0.0019(9) 0.6895(6)
loop_
_geom_bond_atom_site_label_1
_geom_bond_atom_site_label_2
_geom_bond_site_symmetry_1
_geom_bond_site_symmetry_2
U1 O1 1_555 1_555
U2 O3 1_555 1_555
Zn1 N1 1_555 1_555
P1 O5 1_555 1_555
P2 O8 1_555 1_555
P3 O11 1_555 1_555
P4 O14 1_555 1_555
N1 C27 1_555 1_555
N2 Zn1 1_555 1_555
N3 Zn1 1_555 1_555
N4 Zn1 1_555 1_555
O2 U1 1_555 1_555
O4 U2 1_555 1_555
O5 U1 1_555 1_555
O6 P1 1_555 1_555
O7 P1 1_555 1_555
O8 H1 1_555 1_555
O9 P2 1_555 1_555
O10 P2 1_555 1_555
O11 Zn1 1_555 1_555
O12 U1 1_555 1_555
O13 P3 1_555 1_555
O14 H2 1_555 1_555
O15 P4 1_555 1_555
O16 U2 1_555 1_555
C1 P1 1_555 1_555
H3 C1 1_555 1_555
H4 C1 1_555 1_555
C2 C1 1_555 1_555
H5 C2 1_555 1_555
H6 C2 1_555 1_555
C3 P2 1_555 1_555
H7 C3 1_555 1_555
H8 C3 1_555 1_555
C4 P3 1_555 1_555
H9 C4 1_555 1_555
H10 C4 1_555 1_555
C5 C4 1_555 1_555
H11 C5 1_555 1_555
H12 C5 1_555 1_555
C6 P4 1_555 1_555
H13 C6 1_555 1_555
H14 C6 1_555 1_555
C7 N4 1_555 1_555
H15 C7 1_555 1_555
C8 C7 1_555 1_555
H16 C8 1_555 1_555
C9 C8 1_555 1_555
H17 C9 1_555 1_555
C10 C9 1_555 1_555
C11 N4 1_555 1_555
C12 C10 1_555 1_555
H18 C12 1_555 1_555
C13 C12 1_555 1_555
H19 C13 1_555 1_555
C14 C13 1_555 1_555
C15 N3 1_555 1_555
C16 C14 1_555 1_555
H20 C16 1_555 1_555
C17 C16 1_555 1_555
H21 C17 1_555 1_555
C18 N3 1_555 1_555
H22 C18 1_555 1_555
C19 N2 1_555 1_555
H23 C19 1_555 1_555
C20 C19 1_555 1_555
H24 C20 1_555 1_555
C21 C20 1_555 1_555
H25 C21 1_555 1_555
C22 C21 1_555 1_555
C23 N2 1_555 1_555
C24 C22 1_555 1_555
H26 C24 1_555 1_555
C25 C24 1_555 1_555
H27 C25 1_555 1_555
C26 C25 1_555 1_555
C27 C23 1_555 1_555
C28 C26 1_555 1_555
H28 C28 1_555 1_555
C29 C28 1_555 1_555
H29 C29 1_555 1_555
C30 N1 1_555 1_555
H30 C30 1_555 1_555
U1E O10 1_555 1_555
U2B O9 1_555 1_555
U2E O6 1_555 1_555
U2G O13 1_555 1_555
O6E U2 1_555 1_555
O9B U2 1_555 1_555
O10E U1 1_555 1_555
O13G U2 1_555 1_555
O15E U1 1_555 1_555
Zn1 O2 1_555 1_555
P3 O12 1_555 1_555
P4 O16 1_555 1_555
O15 U1E 1_555 1_555
C2 C3 1_555 1_555
C5 C6 1_555 1_555
C10 C11 1_555 1_555
C11 C15 1_555 1_555
C14 C15 1_555 1_555
C17 C18 1_555 1_555
C22 C23 1_555 1_555
C26 C27 1_555 1_555
C29 C30 1_555 1_555

#END
