
#######################################################################
#
#                 Cambridge Crystallographic Data Centre
#                                CCDC 
#
#######################################################################
#
# If this CIF has been generated from an entry in the Cambridge 
# Structural Database, then it will include bibliographic, chemical, 
# crystal, experimental, refinement or atomic coordinate data resulting 
# from the CCDC's data processing and validation procedures.
#
#######################################################################

data_MIKJEW
_symmetry_cell_setting           cubic
_symmetry_space_group_name_H-M   'P 21 3'
_symmetry_Int_Tables_number      198
_space_group_name_Hall           'P 2ac 2ab 3'
loop_
_symmetry_equiv_pos_site_id
_symmetry_equiv_pos_as_xyz
1 x,y,z
2 1/2-x,-y,1/2+z
3 -x,1/2+y,1/2-z
4 1/2+x,1/2-y,-z
5 z,x,y
6 1/2+z,1/2-x,-y
7 1/2-z,-x,1/2+y
8 -z,1/2+x,1/2-y
9 y,z,x
10 -y,1/2+z,1/2-x
11 1/2+y,1/2-z,-x
12 1/2-y,-z,1/2+x
_cell_length_a                   16.1087(10)
_cell_length_b                   16.1087(10)
_cell_length_c                   16.1087(10)
_cell_angle_alpha                90
_cell_angle_beta                 90
_cell_angle_gamma                90
_cell_volume                     4180.05
loop_
_atom_site_label
_atom_site_type_symbol
_atom_site_fract_x
_atom_site_fract_y
_atom_site_fract_z
Fe1 Fe 0.12954(2) 0.62954(2) -0.12954(2)
N1 N 0.12208(13) 0.63166(14) -0.25214(13)
N2 N 0.12808(14) 0.63633(13) -0.00719(13)
C1 C 0.1233(2) 0.5774(2) 0.04956(19)
H1 H 0.1238 0.5224 0.0319
C2 C 0.12906(17) 0.71719(16) 0.02011(16)
C3 C 0.04188(16) 0.63234(17) -0.27929(16)
C4 C 0.1255(2) 0.7399(2) 0.10388(18)
C5 C 0.0196(2) 0.63709(19) -0.36351(18)
C6 C 0.1289(2) 0.8255(2) 0.1245(2)
H2 H 0.1263 0.8411 0.1800
C8 C -0.0658(2) 0.6358(2) -0.3846(2)
H3 H -0.0815 0.6397 -0.4401
C9 C 0.1178(2) 0.6750(3) 0.1620(2)
H4 H 0.1129 0.6868 0.2183
C10 C 0.1176(3) 0.5931(2) 0.1345(2)
H5 H 0.1137 0.5496 0.1722
C12 C 0.1813(2) 0.6346(2) -0.30878(18)
H6 H 0.2364 0.6318 -0.2919
C13 C 0.0852(3) 0.6428(3) -0.42046(19)
H7 H 0.0738 0.6472 -0.4769
C14 C 0.1633(3) 0.6419(3) -0.3946(2)
H8 H 0.2063 0.6461 -0.4329
N1G N 0.25214(13) 0.62208(13) -0.13166(14)
N1J N 0.13166(14) 0.75214(13) -0.12208(13)
N2G N 0.00719(13) 0.62808(14) -0.13633(13)
N2J N 0.13633(13) 0.50719(13) -0.12808(14)
C1J C 0.0774(2) 0.45044(19) -0.1233(2)
C1G C -0.04956(19) 0.6233(2) -0.0774(2)
H1J H 0.0224 0.4681 -0.1238
H1G H -0.0319 0.6238 -0.0224
C2G C -0.02011(16) 0.62906(17) -0.21719(16)
C2J C 0.21719(16) 0.47989(16) -0.12906(17)
C3G C 0.27929(16) 0.54188(16) -0.13234(17)
C3J C 0.13234(17) 0.77929(16) -0.04188(16)
C4J C 0.2399(2) 0.39612(18) -0.1255(2)
C4G C -0.10388(18) 0.6255(2) -0.2399(2)
C5J C 0.13709(19) 0.86351(18) -0.0196(2)
C5G C 0.36351(18) 0.5196(2) -0.13709(19)
C6J C 0.3255(2) 0.3755(2) -0.1289(2)
C6G C -0.1245(2) 0.6289(2) -0.3255(2)
H2J H 0.3411 0.3200 -0.1263
H2G H -0.1800 0.6263 -0.3411
C8J C 0.1358(2) 0.8846(2) 0.0658(2)
C8G C 0.3846(2) 0.4342(2) -0.1358(2)
H3J H 0.1397 0.9401 0.0815
H3G H 0.4401 0.4185 -0.1397
C9J C 0.1750(3) 0.3380(2) -0.1178(2)
C9G C -0.1620(2) 0.6178(2) -0.1750(3)
H4J H 0.1868 0.2817 -0.1129
H4G H -0.2183 0.6129 -0.1868
C10J C 0.0931(2) 0.3655(2) -0.1176(3)
C10G C -0.1345(2) 0.6176(3) -0.0931(2)
H5J H 0.0496 0.3278 -0.1137
H5G H -0.1722 0.6137 -0.0496
C12J C 0.1346(2) 0.80878(18) -0.1813(2)
C12G C 0.30878(18) 0.6813(2) -0.1346(2)
H6J H 0.1318 0.7919 -0.2364
H6G H 0.2919 0.7364 -0.1318
C13J C 0.1428(3) 0.92046(19) -0.0852(3)
C13G C 0.42046(19) 0.5852(3) -0.1428(3)
H7J H 0.1472 0.9769 -0.0738
H7G H 0.4769 0.5738 -0.1472
C14J C 0.1419(3) 0.8946(2) -0.1633(3)
C14G C 0.3946(2) 0.6633(3) -0.1419(3)
H8J H 0.1461 0.9329 -0.2063
H8G H 0.4329 0.7063 -0.1461
Fe2 Fe 0.08847(3) -0.08847(3) 0.41153(3)
O1 O 0.09675(18) 0.03629(16) 0.41045(16)
O2 O 0.20888(19) -0.11164(14) 0.42984(15)
O3 O 0.1361(2) 0.14092(16) 0.32625(19)
C7 C 0.1193(3) 0.0702(2) 0.3399(2)
Na1 Na 0.16702(10) 0.16702(10) 0.16702(10)
C11 C 0.2316(3) -0.1253(2) 0.5046(2)
O4 O 0.3009(3) -0.14100(18) 0.52805(18)
O1F O 0.08955(16) -0.09675(18) 0.53629(16)
O1I O -0.03629(16) -0.08955(16) 0.40325(18)
O2F O 0.07016(15) -0.20888(19) 0.38836(14)
O2I O 0.11164(14) -0.07016(15) 0.29112(19)
O3D O 0.32625(19) 0.1361(2) 0.14092(16)
O3F O 0.17375(19) -0.1361(2) 0.64092(16)
O3I O -0.14092(16) -0.17375(19) 0.3639(2)
O3H O 0.14092(16) 0.32625(19) 0.1361(2)
C7F C 0.1601(2) -0.1193(3) 0.5702(2)
C7I C -0.0702(2) -0.1601(2) 0.3807(3)
Na1A Na 0.33298(10) -0.16702(10) 0.66702(10)
Na1B Na -0.16702(10) -0.33298(10) 0.33298(10)
C11F C -0.0046(2) -0.2316(3) 0.3747(2)
C11I C 0.1253(2) 0.0046(2) 0.2684(3)
O4F O -0.02805(18) -0.3009(3) 0.35900(18)
O4I O 0.14100(18) 0.02805(18) 0.1991(3)
O4A O 0.1991(3) 0.14100(18) 0.02805(18)
O4E O 0.02805(18) 0.1991(3) 0.14100(18)
loop_
_geom_bond_atom_site_label_1
_geom_bond_atom_site_label_2
_geom_bond_site_symmetry_1
_geom_bond_site_symmetry_2
Fe1 N1 1_555 1_555
Fe2 O1 1_555 1_555
N1 C3 1_555 1_555
N2 Fe1 1_555 1_555
C1 N2 1_555 1_555
H1 C1 1_555 1_555
C2 N2 1_555 1_555
C3 C5 1_555 1_555
C4 C2 1_555 1_555
C5 C8 1_555 1_555
C6 C4 1_555 1_555
H2 C6 1_555 1_555
O1 C7 1_555 1_555
O2 Fe2 1_555 1_555
O3 C7 1_555 1_555
C7 C11I 1_555 1_555
Na1 O3 1_555 1_555
C8 H3 1_555 1_555
C9 C4 1_555 1_555
H4 C9 1_555 1_555
C10 C1 1_555 1_555
H5 C10 1_555 1_555
C11 O2 1_555 1_555
O4 C11 1_555 1_555
C12 N1 1_555 1_555
H6 C12 1_555 1_555
C13 C5 1_555 1_555
H7 C13 1_555 1_555
C14 C12 1_555 1_555
H8 C14 1_555 1_555
N1G Fe1 1_555 1_555
N1J Fe1 1_555 1_555
N2G Fe1 1_555 1_555
N2J Fe1 1_555 1_555
C1J N2J 1_555 1_555
C1G N2G 1_555 1_555
H1J C1J 1_555 1_555
H1G C1G 1_555 1_555
C2G C3 1_555 1_555
C2J N2J 1_555 1_555
C3G N1G 1_555 1_555
C3J C2 1_555 1_555
C4J C2J 1_555 1_555
C4G C2G 1_555 1_555
C5J C3J 1_555 1_555
C5G C3G 1_555 1_555
C6J C4J 1_555 1_555
C6G C8 1_555 1_555
H2J C6J 1_555 1_555
H2G C6G 1_555 1_555
O1F Fe2 1_555 1_555
O1I Fe2 1_555 1_555
O2F Fe2 1_555 1_555
O2I Fe2 1_555 1_555
O3D Na1 1_555 1_555
O3F C7F 1_555 1_555
O3I C7I 1_555 1_555
O3H Na1 1_555 1_555
C7F C11 1_555 1_555
C7I O1I 1_555 1_555
Na1A O4 1_555 1_555
Na1B O3I 1_555 1_555
C8J C6 1_555 1_555
C8G C5G 1_555 1_555
H3J C8J 1_555 1_555
H3G C8G 1_555 1_555
C9J C4J 1_555 1_555
C9G C4G 1_555 1_555
H4J C9J 1_555 1_555
H4G C9G 1_555 1_555
C10J C1J 1_555 1_555
C10G C1G 1_555 1_555
H5J C10J 1_555 1_555
H5G C10G 1_555 1_555
C11F O2F 1_555 1_555
C11I O2I 1_555 1_555
O4F Na1B 1_555 1_555
O4I Na1 1_555 1_555
O4A Na1 1_555 1_555
O4E Na1 1_555 1_555
C12J N1J 1_555 1_555
C12G N1G 1_555 1_555
H6J C12J 1_555 1_555
H6G C12G 1_555 1_555
C13J C5J 1_555 1_555
C13G C5G 1_555 1_555
H7J C13J 1_555 1_555
H7G C13G 1_555 1_555
C14J C12J 1_555 1_555
C14G C12G 1_555 1_555
H8J C14J 1_555 1_555
H8G C14G 1_555 1_555
C9 C10 1_555 1_555
C13 C14 1_555 1_555
N1J C3J 1_555 1_555
N2G C2G 1_555 1_555
C2J C3G 1_555 1_555
C4G C6G 1_555 1_555
C5J C8J 1_555 1_555
C6J C8G 1_555 1_555
O1F C7F 1_555 1_555
O3F Na1A 1_555 1_555
C7I C11F 1_555 1_555
C9J C10J 1_555 1_555
C9G C10G 1_555 1_555
C11F O4F 1_555 1_555
C11I O4I 1_555 1_555
C13J C14J 1_555 1_555
C13G C14G 1_555 1_555

#END
