
#######################################################################
#
#                 Cambridge Crystallographic Data Centre
#                                CCDC 
#
#######################################################################
#
# If this CIF has been generated from an entry in the Cambridge 
# Structural Database, then it will include bibliographic, chemical, 
# crystal, experimental, refinement or atomic coordinate data resulting 
# from the CCDC's data processing and validation procedures.
#
#######################################################################

data_MIKLAV
_symmetry_cell_setting           triclinic
_symmetry_space_group_name_H-M   'P -1'
_symmetry_Int_Tables_number      2
_space_group_name_Hall           '-P 1'
loop_
_symmetry_equiv_pos_site_id
_symmetry_equiv_pos_as_xyz
1 x,y,z
2 -x,-y,-z
_cell_length_a                   10.1362(13)
_cell_length_b                   16.167(2)
_cell_length_c                   16.570(2)
_cell_angle_alpha                110.640(2)
_cell_angle_beta                 92.365(2)
_cell_angle_gamma                102.114(2)
_cell_volume                     2464.7
loop_
_atom_site_label
_atom_site_type_symbol
_atom_site_fract_x
_atom_site_fract_y
_atom_site_fract_z
Cu1 Cu 0.0000 0.5000 0.5000
O1 O -0.3323(3) 0.04742(18) 0.02008(18)
C1 C -0.2030(4) 0.1624(2) 0.1470(2)
N1 N 0.1724(4) 0.1422(2) 0.6019(2)
H1 H 0.0916 0.1457 0.6140
Cu2 Cu 0.36384(5) 0.08841(3) 0.07864(3)
O2 O -0.1745(3) 0.3694(2) 0.39608(18)
C2 C -0.2010(4) 0.2365(2) 0.2220(2)
H2 H -0.2823 0.2510 0.2389
N2 N 0.2545(4) 0.0026(3) 0.4627(2)
H3 H 0.3206 0.0492 0.4717
O3 O 0.1697(2) 0.09493(18) 0.08391(17)
C3 C -0.0817(4) 0.1383(3) 0.1234(2)
H4 H -0.0829 0.0876 0.0739
N3 N 0.3791(3) 0.1484(2) -0.0117(2)
O4 O 0.2813(3) 0.21363(19) 0.1978(2)
C4 C -0.0767(4) 0.3684(3) 0.3542(3)
N4 N 0.3385(3) 0.0327(2) 0.1721(2)
O5 O -0.4419(2) 0.13102(18) 0.12046(17)
C5 C 0.0419(4) 0.1904(3) 0.1744(2)
N5 N 0.0740(4) 0.4107(2) 0.5364(2)
O6 O 0.1125(3) -0.1199(2) 0.3621(2)
C6 C 0.1741(4) 0.1653(3) 0.1519(3)
N6 N 0.4036(4) 0.3735(3) -0.1591(2)
H5 H 0.3561 0.3844 -0.1164
O7 O 0.0330(3) 0.43274(18) 0.38035(17)
C7 C 0.0418(4) 0.2664(3) 0.2469(3)
H6 H 0.1242 0.3024 0.2795
N7 N 0.6724(4) 0.4830(3) -0.1376(3)
H7 H 0.7131 0.4680 -0.1832
O8 O 0.3546(3) 0.1955(2) 0.5445(2)
C8 C -0.3356(4) 0.1080(2) 0.0905(2)
N8 N 1.0094(6) 0.3055(4) -0.0934(6)
O9 O 0.4979(4) 0.2666(2) -0.2486(2)
C9 C 0.4340(5) 0.4421(3) -0.1989(3)
H8 H 0.4619 0.4138 -0.2562
C10 C 0.2044(5) -0.0152(3) 0.5379(3)
H9 H 0.1059 -0.0410 0.5244
O10 O 0.6818(4) 0.5021(3) 0.0020(2)
C11 C -0.0777(4) 0.2902(3) 0.2722(2)
C12 C 0.4159(4) 0.2435(3) -0.1238(3)
C13 C 0.2305(5) 0.0724(3) 0.6174(3)
H10 H 0.3290 0.0964 0.6327
C14 C 0.4006(4) 0.0790(3) 0.2531(3)
H11 H 0.4726 0.1290 0.2628
C15 C 0.2578(4) -0.0199(3) 0.3094(3)
C16 C 0.2030(5) -0.0494(3) 0.3811(3)
C17 C 0.4434(5) 0.2953(3) -0.1836(3)
C18 C 0.2371(4) -0.0406(3) 0.1598(3)
H12 H 0.1925 -0.0740 0.1039
C19 C 0.3631(4) 0.0562(3) 0.3232(3)
H13 H 0.4077 0.0913 0.3788
C20 C 0.5528(5) 0.5187(3) -0.1421(3)
H14 H 0.5277 0.5422 -0.0832
C21 C 0.1964(5) -0.0682(3) 0.2255(3)
H15 H 0.1266 -0.1201 0.2134
C22 C 0.1785(5) 0.2736(3) 0.5617(3)
C23 C 0.2429(5) 0.2010(3) 0.5691(3)
C24 C 0.5015(5) 0.1896(3) -0.1173(3)
H16 H 0.5724 0.1835 -0.1512
C25 C 0.8245(5) 0.4144(4) -0.0803(4)
C26 C 0.4814(5) 0.1450(3) -0.0607(3)
H17 H 0.5418 0.1104 -0.0560
C27 C 0.2929(5) 0.1971(3) -0.0224(3)
H18 H 0.2184 0.1983 0.0085
C28 C 0.3080(5) 0.2454(3) -0.0764(3)
H19 H 0.2459 0.2791 -0.0807
C29 C 0.0467(5) 0.2797(3) 0.5739(3)
H20 H -0.0099 0.2377 0.5915
C30 C 0.7222(5) 0.4724(4) -0.0682(4)
C31 C 0.2568(5) 0.3408(3) 0.5389(4)
H21 H 0.3474 0.3412 0.5313
C32 C 0.2017(5) 0.4067(3) 0.5273(4)
H22 H 0.2572 0.4513 0.5122
C33 C 0.1722(6) 0.0523(3) 0.6939(3)
H23 H 0.1897 0.1083 0.7446
H24 H 0.0744 0.0286 0.6799
C34 C 0.3085(5) 0.4747(3) -0.2109(3)
H25 H 0.2699 0.4920 -0.1565
H26 H 0.2414 0.4252 -0.2540
C35 C 0.9751(9) 0.3305(6) -0.1555(7)
H27 H 1.0163 0.3115 -0.2058
C36 C 0.2699(6) -0.0836(3) 0.5581(3)
H28 H 0.2519 -0.1398 0.5075
H29 H 0.3677 -0.0595 0.5710
C37 C -0.0014(5) 0.3477(3) 0.5604(3)
H30 H -0.0912 0.3497 0.5683
C38 C 0.5819(6) 0.5967(3) -0.1748(4)
H31 H 0.6112 0.5758 -0.2321
H32 H 0.6547 0.6456 -0.1360
C39 C 0.3386(6) 0.5559(4) -0.2400(4)
H33 H 0.3633 0.5363 -0.2986
H34 H 0.2574 0.5785 -0.2409
C40 C 0.4537(6) 0.6321(4) -0.1795(4)
H35 H 0.4266 0.6552 -0.1219
H36 H 0.4731 0.6816 -0.2007
C41 C 0.2349(7) -0.0165(4) 0.7146(4)
H37 H 0.3314 0.0092 0.7338
H38 H 0.1931 -0.0304 0.7615
C42 C 0.9509(9) 0.3354(6) -0.0236(7)
H39 H 0.9710 0.3181 0.0224
C43 C 0.2145(7) -0.1032(4) 0.6352(4)
H40 H 0.1183 -0.1324 0.6201
H41 H 0.2604 -0.1447 0.6484
C44 C 0.8614(8) 0.3907(5) -0.0133(5)
H42 H 0.8266 0.4118 0.0392
C45 C 0.8840(7) 0.3822(5) -0.1542(5)
H43 H 0.8627 0.3954 -0.2027
O1A O 0.3323(3) -0.04742(18) -0.02008(18)
C1A C 0.2030(4) -0.1624(2) -0.1470(2)
N1A N -0.1724(4) -0.1422(2) -0.6019(2)
H1A H -0.0916 -0.1457 -0.6140
Cu2A Cu -0.36384(5) -0.08841(3) -0.07864(3)
O2A O 0.1745(3) -0.3694(2) -0.39608(18)
C2A C 0.2010(4) -0.2365(2) -0.2220(2)
H2A H 0.2823 -0.2510 -0.2389
N2A N -0.2545(4) -0.0026(3) -0.4627(2)
H3A H -0.3206 -0.0492 -0.4717
O3A O -0.1697(2) -0.09493(18) -0.08391(17)
C3A C 0.0817(4) -0.1383(3) -0.1234(2)
H4A H 0.0829 -0.0876 -0.0739
N3A N -0.3791(3) -0.1484(2) 0.0117(2)
O4A O -0.2813(3) -0.21363(19) -0.1978(2)
C4A C 0.0767(4) -0.3684(3) -0.3542(3)
N4A N -0.3385(3) -0.0327(2) -0.1721(2)
O5A O 0.4419(2) -0.13102(18) -0.12046(17)
C5A C -0.0419(4) -0.1904(3) -0.1744(2)
N5A N -0.0740(4) -0.4107(2) -0.5364(2)
O6A O -0.1125(3) 0.1199(2) -0.3621(2)
C6A C -0.1741(4) -0.1653(3) -0.1519(3)
N6A N -0.4036(4) -0.3735(3) 0.1591(2)
H5A H -0.3561 -0.3844 0.1164
O7A O -0.0330(3) -0.43274(18) -0.38035(17)
C7A C -0.0418(4) -0.2664(3) -0.2469(3)
H6A H -0.1242 -0.3024 -0.2795
N7A N -0.6724(4) -0.4830(3) 0.1376(3)
H7A H -0.7131 -0.4680 0.1832
O8A O -0.3546(3) -0.1955(2) -0.5445(2)
C8A C 0.3356(4) -0.1080(2) -0.0905(2)
N8A N -1.0094(6) -0.3055(4) 0.0934(6)
O9A O -0.4979(4) -0.2666(2) 0.2486(2)
C9A C -0.4340(5) -0.4421(3) 0.1989(3)
H8A H -0.4619 -0.4138 0.2562
C10A C -0.2044(5) 0.0152(3) -0.5379(3)
H9A H -0.1059 0.0410 -0.5244
O10A O -0.6818(4) -0.5021(3) -0.0020(2)
C11A C 0.0777(4) -0.2902(3) -0.2722(2)
C12A C -0.4159(4) -0.2435(3) 0.1238(3)
C13A C -0.2305(5) -0.0724(3) -0.6174(3)
H10A H -0.3290 -0.0964 -0.6327
C14A C -0.4006(4) -0.0790(3) -0.2531(3)
H11A H -0.4726 -0.1290 -0.2628
C15A C -0.2578(4) 0.0199(3) -0.3094(3)
C16A C -0.2030(5) 0.0494(3) -0.3811(3)
C17A C -0.4434(5) -0.2953(3) 0.1836(3)
C18A C -0.2371(4) 0.0406(3) -0.1598(3)
H12A H -0.1925 0.0740 -0.1039
C19A C -0.3631(4) -0.0562(3) -0.3232(3)
H13A H -0.4077 -0.0913 -0.3788
C20A C -0.5528(5) -0.5187(3) 0.1421(3)
H14A H -0.5277 -0.5422 0.0832
C21A C -0.1964(5) 0.0682(3) -0.2255(3)
H15A H -0.1266 0.1201 -0.2134
C22A C -0.1785(5) -0.2736(3) -0.5617(3)
C23A C -0.2429(5) -0.2010(3) -0.5691(3)
C24A C -0.5015(5) -0.1896(3) 0.1173(3)
H16A H -0.5724 -0.1835 0.1512
C25A C -0.8245(5) -0.4144(4) 0.0803(4)
C26A C -0.4814(5) -0.1450(3) 0.0607(3)
H17A H -0.5418 -0.1104 0.0560
C27A C -0.2929(5) -0.1971(3) 0.0224(3)
H18A H -0.2184 -0.1983 -0.0085
C28A C -0.3080(5) -0.2454(3) 0.0764(3)
H19A H -0.2459 -0.2791 0.0807
C29A C -0.0467(5) -0.2797(3) -0.5739(3)
H20A H 0.0099 -0.2377 -0.5915
C30A C -0.7222(5) -0.4724(4) 0.0682(4)
C31A C -0.2568(5) -0.3408(3) -0.5389(4)
H21A H -0.3474 -0.3412 -0.5313
C32A C -0.2017(5) -0.4067(3) -0.5273(4)
H22A H -0.2572 -0.4513 -0.5122
C33A C -0.1722(6) -0.0523(3) -0.6939(3)
H23A H -0.1897 -0.1083 -0.7446
H24A H -0.0744 -0.0286 -0.6799
C34A C -0.3085(5) -0.4747(3) 0.2109(3)
H25A H -0.2699 -0.4920 0.1565
H26A H -0.2414 -0.4252 0.2540
C35A C -0.9751(9) -0.3305(6) 0.1555(7)
H27A H -1.0163 -0.3115 0.2058
C36A C -0.2699(6) 0.0836(3) -0.5581(3)
H28A H -0.2519 0.1398 -0.5075
H29A H -0.3677 0.0595 -0.5710
C37A C 0.0014(5) -0.3477(3) -0.5604(3)
H30A H 0.0912 -0.3497 -0.5683
C38A C -0.5819(6) -0.5967(3) 0.1748(4)
H31A H -0.6112 -0.5758 0.2321
H32A H -0.6547 -0.6456 0.1360
C39A C -0.3386(6) -0.5559(4) 0.2400(4)
H33A H -0.3633 -0.5363 0.2986
H34A H -0.2574 -0.5785 0.2409
C40A C -0.4537(6) -0.6321(4) 0.1795(4)
H35A H -0.4266 -0.6552 0.1219
H36A H -0.4731 -0.6816 0.2007
C41A C -0.2349(7) 0.0165(4) -0.7146(4)
H37A H -0.3314 -0.0092 -0.7338
H38A H -0.1931 0.0304 -0.7615
C42A C -0.9509(9) -0.3354(6) 0.0236(7)
H39A H -0.9710 -0.3181 -0.0224
C43A C -0.2145(7) 0.1032(4) -0.6352(4)
H40A H -0.1183 0.1324 -0.6201
H41A H -0.2604 0.1447 -0.6484
C44A C -0.8614(8) -0.3907(5) 0.0133(5)
H42A H -0.8266 -0.4118 -0.0392
C45A C -0.8840(7) -0.3822(5) 0.1542(5)
H43A H -0.8627 -0.3954 0.2027
Cu1_2 Cu 0.0000 -0.5000 -0.5000
Cu2_2 Cu -0.63616(5) 0.08841(3) 0.07864(3)
Cu2A_2 Cu 0.63616(5) -0.08841(3) -0.07864(3)
O2A_2 O 0.1745(3) 0.6306(2) 0.60392(18)
O5_2 O 0.5581(2) 0.13102(18) 0.12046(17)
O5A_2 O -0.5581(2) -0.13102(18) -0.12046(17)
N5A_2 N -0.0740(4) 0.5893(2) 0.4636(2)
O7A_2 O -0.0330(3) 0.56726(18) 0.61965(17)
O11 O 0.3940(6) 0.3331(4) 0.3621(3)
O12 O 0.5897(5) 0.2765(4) 0.4340(4)
O13 O 0.6523(6) 0.3003(4) 0.6129(4)
O14 O 0.7727(9) 0.4683(5) 0.6926(5)
loop_
_geom_bond_atom_site_label_1
_geom_bond_atom_site_label_2
_geom_bond_site_symmetry_1
_geom_bond_site_symmetry_2
Cu1 O2 1_555 1_555
O1 C8 1_555 1_555
C1 C2 1_555 1_555
N1 H1 1_555 1_555
Cu2 O3 1_555 1_555
O2 C4 1_555 1_555
C2 H2 1_555 1_555
N2 H3 1_555 1_555
O3 C6 1_555 1_555
C3 C1 1_555 1_555
H4 C3 1_555 1_555
N3 Cu2 1_555 1_555
O4 Cu2 1_555 1_555
C4 O7 1_555 1_555
N4 Cu2 1_555 1_555
O5 C8 1_555 1_555
C5 C3 1_555 1_555
N5 Cu1 1_555 1_555
O6 C16 1_555 1_555
C6 O4 1_555 1_555
N6 H5 1_555 1_555
O7 Cu1 1_555 1_555
C7 C5 1_555 1_555
H6 C7 1_555 1_555
N7 H7 1_555 1_555
O8 C23 1_555 1_555
C8 C1 1_555 1_555
N8 C35 1_555 1_555
O9 C17 1_555 1_555
C9 N6 1_555 1_555
H8 C9 1_555 1_555
C10 N2 1_555 1_555
H9 C10 1_555 1_555
O10 C30 1_555 1_555
C11 C2 1_555 1_555
C12 C17 1_555 1_555
C13 N1 1_555 1_555
H10 C13 1_555 1_555
C14 N4 1_555 1_555
H11 C14 1_555 1_555
C15 C16 1_555 1_555
C16 N2 1_555 1_555
C17 N6 1_555 1_555
C18 N4 1_555 1_555
H12 C18 1_555 1_555
C19 C14 1_555 1_555
H13 C19 1_555 1_555
C20 N7 1_555 1_555
H14 C20 1_555 1_555
C21 C15 1_555 1_555
H15 C21 1_555 1_555
C22 C23 1_555 1_555
C23 N1 1_555 1_555
C24 C12 1_555 1_555
H16 C24 1_555 1_555
C25 C30 1_555 1_555
C26 N3 1_555 1_555
H17 C26 1_555 1_555
C27 N3 1_555 1_555
H18 C27 1_555 1_555
C28 C12 1_555 1_555
H19 C28 1_555 1_555
C29 C22 1_555 1_555
H20 C29 1_555 1_555
C30 N7 1_555 1_555
C31 C22 1_555 1_555
H21 C31 1_555 1_555
C32 N5 1_555 1_555
H22 C32 1_555 1_555
C33 C13 1_555 1_555
H23 C33 1_555 1_555
H24 C33 1_555 1_555
C34 C9 1_555 1_555
H25 C34 1_555 1_555
H26 C34 1_555 1_555
C35 H27 1_555 1_555
C36 C10 1_555 1_555
H28 C36 1_555 1_555
H29 C36 1_555 1_555
C37 N5 1_555 1_555
H30 C37 1_555 1_555
C38 C20 1_555 1_555
H31 C38 1_555 1_555
H32 C38 1_555 1_555
C39 C34 1_555 1_555
H33 C39 1_555 1_555
H34 C39 1_555 1_555
C40 C38 1_555 1_555
H35 C40 1_555 1_555
H36 C40 1_555 1_555
C41 C33 1_555 1_555
H37 C41 1_555 1_555
H38 C41 1_555 1_555
C42 N8 1_555 1_555
H39 C42 1_555 1_555
C43 C36 1_555 1_555
H40 C43 1_555 1_555
H41 C43 1_555 1_555
C44 C25 1_555 1_555
H42 C44 1_555 1_555
C45 C25 1_555 1_555
H43 C45 1_555 1_555
O1A Cu2 1_555 1_555
C1A C2A 1_555 1_555
N1A H1A 1_555 1_555
Cu2A O1 1_555 1_555
O2A C4A 1_555 1_555
C2A H2A 1_555 1_555
N2A H3A 1_555 1_555
O3A Cu2A 1_555 1_555
C3A C1A 1_555 1_555
H4A C3A 1_555 1_555
N3A Cu2A 1_555 1_555
O4A Cu2A 1_555 1_555
C4A O7A 1_555 1_555
N4A Cu2A 1_555 1_555
O5A C8A 1_555 1_555
C5A C3A 1_555 1_555
N5A C32A 1_555 1_555
O6A C16A 1_555 1_555
C6A O3A 1_555 1_555
N6A H5A 1_555 1_555
O7A Cu1_2 1_555 1_555
C7A C5A 1_555 1_555
H6A C7A 1_555 1_555
N7A H7A 1_555 1_555
O8A C23A 1_555 1_555
C8A O1A 1_555 1_555
N8A C35A 1_555 1_555
O9A C17A 1_555 1_555
C9A N6A 1_555 1_555
H8A C9A 1_555 1_555
C10A N2A 1_555 1_555
H9A C10A 1_555 1_555
O10A C30A 1_555 1_555
C11A C2A 1_555 1_555
C12A C17A 1_555 1_555
C13A N1A 1_555 1_555
H10A C13A 1_555 1_555
C14A N4A 1_555 1_555
H11A C14A 1_555 1_555
C15A C16A 1_555 1_555
C16A N2A 1_555 1_555
C17A N6A 1_555 1_555
C18A N4A 1_555 1_555
H12A C18A 1_555 1_555
C19A C14A 1_555 1_555
H13A C19A 1_555 1_555
C20A N7A 1_555 1_555
H14A C20A 1_555 1_555
C21A C15A 1_555 1_555
H15A C21A 1_555 1_555
C22A C23A 1_555 1_555
C23A N1A 1_555 1_555
C24A C12A 1_555 1_555
H16A C24A 1_555 1_555
C25A C30A 1_555 1_555
C26A N3A 1_555 1_555
H17A C26A 1_555 1_555
C27A N3A 1_555 1_555
H18A C27A 1_555 1_555
C28A C12A 1_555 1_555
H19A C28A 1_555 1_555
C29A C22A 1_555 1_555
H20A C29A 1_555 1_555
C30A N7A 1_555 1_555
C31A C22A 1_555 1_555
H21A C31A 1_555 1_555
C32A C31A 1_555 1_555
H22A C32A 1_555 1_555
C33A C13A 1_555 1_555
H23A C33A 1_555 1_555
H24A C33A 1_555 1_555
C34A C9A 1_555 1_555
H25A C34A 1_555 1_555
H26A C34A 1_555 1_555
C35A H27A 1_555 1_555
C36A C10A 1_555 1_555
H28A C36A 1_555 1_555
H29A C36A 1_555 1_555
C37A N5A 1_555 1_555
H30A C37A 1_555 1_555
C38A C20A 1_555 1_555
H31A C38A 1_555 1_555
H32A C38A 1_555 1_555
C39A C34A 1_555 1_555
H33A C39A 1_555 1_555
H34A C39A 1_555 1_555
C40A C38A 1_555 1_555
H35A C40A 1_555 1_555
H36A C40A 1_555 1_555
C41A C33A 1_555 1_555
H37A C41A 1_555 1_555
H38A C41A 1_555 1_555
C42A N8A 1_555 1_555
H39A C42A 1_555 1_555
C43A C36A 1_555 1_555
H40A C43A 1_555 1_555
H41A C43A 1_555 1_555
C44A C25A 1_555 1_555
H42A C44A 1_555 1_555
C45A C25A 1_555 1_555
H43A C45A 1_555 1_555
Cu1_2 O2A 1_555 1_555
Cu2_2 O5 1_555 1_555
Cu2A_2 O5A 1_555 1_555
O2A_2 Cu1 1_555 1_555
O5_2 Cu2 1_555 1_555
O5A_2 Cu2A 1_555 1_555
N5A_2 Cu1 1_555 1_555
O7A_2 Cu1 1_555 1_555
C4 C11 1_555 1_555
C5 C6 1_555 1_555
C7 C11 1_555 1_555
C9 C20 1_555 1_555
C10 C13 1_555 1_555
C15 C19 1_555 1_555
C18 C21 1_555 1_555
C24 C26 1_555 1_555
C27 C28 1_555 1_555
C29 C37 1_555 1_555
C31 C32 1_555 1_555
C35 C45 1_555 1_555
C39 C40 1_555 1_555
C41 C43 1_555 1_555
C42 C44 1_555 1_555
C1A C8A 1_555 1_555
O4A C6A 1_555 1_555
C4A C11A 1_555 1_555
C5A C6A 1_555 1_555
N5A Cu1_2 1_555 1_555
C7A C11A 1_555 1_555
C9A C20A 1_555 1_555
C10A C13A 1_555 1_555
C15A C19A 1_555 1_555
C18A C21A 1_555 1_555
C24A C26A 1_555 1_555
C27A C28A 1_555 1_555
C29A C37A 1_555 1_555
C35A C45A 1_555 1_555
C39A C40A 1_555 1_555
C41A C43A 1_555 1_555
C42A C44A 1_555 1_555

#END
