
#######################################################################
#
#                 Cambridge Crystallographic Data Centre
#                                CCDC 
#
#######################################################################
#
# If this CIF has been generated from an entry in the Cambridge 
# Structural Database, then it will include bibliographic, chemical, 
# crystal, experimental, refinement or atomic coordinate data resulting 
# from the CCDC's data processing and validation procedures.
#
#######################################################################

data_MIKMUP
_symmetry_cell_setting           triclinic
_symmetry_space_group_name_H-M   'P -1'
_symmetry_Int_Tables_number      2
_space_group_name_Hall           '-P 1'
loop_
_symmetry_equiv_pos_site_id
_symmetry_equiv_pos_as_xyz
1 x,y,z
2 -x,-y,-z
_cell_length_a                   13.888(6)
_cell_length_b                   14.263(7)
_cell_length_c                   16.014(7)
_cell_angle_alpha                100.144(7)
_cell_angle_beta                 111.756(6)
_cell_angle_gamma                93.796(7)
_cell_volume                     2869.97
loop_
_atom_site_label
_atom_site_type_symbol
_atom_site_fract_x
_atom_site_fract_y
_atom_site_fract_z
Dy1 Dy -0.12254(3) -0.10875(3) -0.11389(3)
Dy2 Dy -0.34519(3) -0.37783(2) -0.40727(3)
S1 S -0.4605(2) 0.30336(17) 0.11836(19)
S2 S -0.2640(3) 0.4863(2) -0.0894(2)
S3 S -0.66314(18) 0.11753(16) -0.26042(17)
S4 S 0.1643(3) -0.6281(3) -0.2283(3)
S5 S -0.76092(19) -0.00779(15) -0.57079(17)
S6 S -0.0393(2) -0.80654(19) -0.6191(3)
O1 O -0.2044(5) -0.0262(4) -0.0295(5)
O2 O -0.3051(6) -0.1186(5) 0.0106(6)
O3 O -0.3915(6) 0.3897(5) 0.1391(6)
O4 O -0.4984(7) 0.2845(5) 0.1864(6)
O5 O -0.5588(7) 0.3028(6) 0.0251(7)
H1 H -0.5817 0.2471 -0.0037
O6 O -0.1369(5) 0.0444(4) -0.1554(5)
O7 O -0.0100(5) 0.1076(4) -0.0225(4)
O8 O -0.1837(9) 0.5681(5) -0.0560(7)
O9 O -0.3202(10) 0.4713(8) -0.0352(7)
O10 O -0.3435(8) 0.4911(8) -0.1889(7)
H2 H -0.4002 0.4599 -0.2000
O11 O 0.0146(5) -0.0729(4) -0.1592(5)
O12 O -0.2060(6) -0.2284(4) -0.0680(6)
O13 O -0.2690(4) -0.1361(4) -0.2391(4)
O14 O -0.3992(4) -0.2381(4) -0.3488(4)
O15 O -0.7607(5) 0.0607(5) -0.2802(5)
O16 O -0.6800(8) 0.1775(6) -0.3398(6)
H3 H -0.7140 0.1421 -0.3902
O17 O -0.6128(5) 0.1832(5) -0.1732(5)
O18 O -0.0840(4) -0.2514(4) -0.1785(4)
O19 O -0.2238(4) -0.3618(4) -0.2590(4)
O20 O 0.1096(11) -0.7112(9) -0.2674(15)
O21 O 0.2268(14) -0.5991(11) -0.271(2)
O22 O 0.233(2) -0.632(2) -0.1354(10)
O23 O -0.4953(4) -0.3831(4) -0.5283(4)
O24 O -0.6571(4) -0.4602(4) -0.6010(4)
O25 O -0.6825(6) 0.0618(4) -0.5713(6)
O26 O -0.7923(5) 0.0064(4) -0.4944(4)
O27 O -0.8663(7) -0.0170(7) -0.6608(6)
H4 H -0.8533 -0.0309 -0.7070
O28 O -0.1888(4) -0.4190(4) -0.4272(4)
O29 O -0.3325(5) -0.4670(4) -0.5511(4)
O30 O 0.0700(6) -0.7843(5) -0.5670(9)
O31 O -0.0806(8) -0.8960(6) -0.5887(7)
H5 H -0.0435 -0.8952 -0.5350
O32 O -0.0831(10) -0.8303(7) -0.7186(7)
O33 O -0.2717(5) -0.2494(4) -0.4492(5)
O34 O -0.4700(5) -0.4158(4) -0.3398(4)
C1 C -0.2705(7) -0.0392(7) 0.0045(7)
C2 C -0.3105(7) 0.0492(7) 0.0408(6)
C3 C -0.2827(8) 0.1375(6) 0.0273(7)
H6 H -0.2352 0.1441 -0.0005
C4 C -0.3242(8) 0.2168(7) 0.0544(7)
H7 H -0.3037 0.2770 0.0466
C5 C -0.3973(7) 0.2054(6) 0.0934(7)
C6 C -0.4230(8) 0.1166(7) 0.1086(7)
H8 H -0.4690 0.1100 0.1379
C7 C -0.3819(7) 0.0384(7) 0.0812(7)
H9 H -0.4016 -0.0217 0.0897
C8 C -0.0858(7) 0.1158(6) -0.0939(6)
C9 C -0.1224(6) 0.2118(6) -0.0987(5)
C10 C -0.0667(8) 0.2931(6) -0.0306(7)
H10 H -0.0026 0.2905 0.0154
C11 C -0.1102(9) 0.3783(7) -0.0337(7)
H11 H -0.0739 0.4338 0.0104
C12 C -0.2054(8) 0.3817(6) -0.1004(7)
C13 C -0.2582(8) 0.3016(7) -0.1692(8)
H12 H -0.3223 0.3035 -0.2156
C14 C -0.2123(7) 0.2184(6) -0.1668(5)
H13 H -0.2452 0.1647 -0.2144
C15 C -0.3635(6) -0.1608(6) -0.2910(6)
C16 C -0.4395(6) -0.0928(6) -0.2834(5)
C17 C -0.4019(7) -0.0020(6) -0.2258(6)
H14 H -0.3305 0.0158 -0.1914
C18 C -0.4707(7) 0.0616(6) -0.2200(7)
H15 H -0.4455 0.1229 -0.1827
C19 C -0.5762(6) 0.0348(6) -0.2690(6)
C20 C -0.6151(6) -0.0556(6) -0.3271(5)
H16 H -0.6868 -0.0733 -0.3607
C21 C -0.5458(6) -0.1189(6) -0.3344(6)
H17 H -0.5709 -0.1792 -0.3738
C22 C -0.1264(7) -0.3361(6) -0.2200(6)
C23 C -0.0541(7) -0.4092(6) -0.2201(6)
C24 C -0.0891(8) -0.5048(6) -0.2363(7)
H18 H -0.1591 -0.5246 -0.2489
C25 C -0.0222(9) -0.5730(7) -0.2345(8)
H19 H -0.0454 -0.6378 -0.2421
C26 C 0.0793(8) -0.5421(7) -0.2212(8)
C27 C 0.1153(8) -0.4471(8) -0.2067(8)
H20 H 0.1842 -0.4275 -0.1978
C28 C 0.0484(7) -0.3803(7) -0.2054(7)
H21 H 0.0727 -0.3152 -0.1945
C29 C -0.5917(6) -0.3846(5) -0.5675(6)
C30 C -0.6342(6) -0.2911(5) -0.5746(5)
C31 C -0.5711(7) -0.2093(6) -0.5678(6)
H22 H -0.5021 -0.2121 -0.5616
C32 C -0.6110(7) -0.1221(6) -0.5703(6)
H23 H -0.5698 -0.0670 -0.5684
C33 C -0.7104(7) -0.1183(6) -0.5753(6)
C34 C -0.7755(7) -0.2006(6) -0.5828(7)
H24 H -0.8443 -0.1976 -0.5884
C35 C -0.7356(6) -0.2868(5) -0.5816(6)
H25 H -0.7776 -0.3423 -0.5855
C36 C -0.2369(7) -0.4733(6) -0.5032(8)
C37 C -0.1860(7) -0.5527(6) -0.5365(7)
C38 C -0.2395(9) -0.6173(8) -0.6208(8)
H26 H -0.3056 -0.6084 -0.6596
C39 C -0.1941(9) -0.6942(8) -0.6461(8)
H27 H -0.2290 -0.7374 -0.7023
C40 C -0.0973(8) -0.7066(7) -0.5885(8)
C41 C -0.0435(7) -0.6430(7) -0.5054(8)
H28 H 0.0228 -0.6520 -0.4670
C42 C -0.0890(7) -0.5661(6) -0.4803(7)
H29 H -0.0532 -0.5228 -0.4243
Dy1A Dy 0.12254(3) 0.10875(3) 0.11389(3)
Dy2A Dy -0.65481(3) -0.62217(2) -0.59273(3)
O7A O 0.0100(5) -0.1076(4) 0.0225(4)
O24A O -0.3429(4) -0.5398(4) -0.3990(4)
O35 O -0.4682(16) -0.4283(15) -0.9058(15)
O36 O -0.9026(8) -0.8997(7) -0.1795(8)
O37 O -0.9705(7) -0.8834(7) -0.3909(7)
O38 O -0.4329(8) -0.3743(7) -0.7076(7)
loop_
_geom_bond_atom_site_label_1
_geom_bond_atom_site_label_2
_geom_bond_site_symmetry_1
_geom_bond_site_symmetry_2
Dy1 O1 1_555 1_555
Dy2 O14 1_555 1_555
S1 O3 1_555 1_555
S2 O8 1_555 1_555
S3 O15 1_555 1_555
S4 O20 1_555 1_555
S5 O25 1_555 1_555
S6 O30 1_555 1_555
O1 C1 1_555 1_555
O2 C1 1_555 1_555
O4 S1 1_555 1_555
O5 S1 1_555 1_555
H1 O5 1_555 1_555
O6 Dy1 1_555 1_555
O7 C8 1_555 1_555
O9 S2 1_555 1_555
O10 S2 1_555 1_555
H2 O10 1_555 1_555
O11 Dy1 1_555 1_555
O12 Dy1 1_555 1_555
O13 Dy1 1_555 1_555
O14 C15 1_555 1_555
O16 S3 1_555 1_555
H3 O16 1_555 1_555
O17 S3 1_555 1_555
O18 Dy1 1_555 1_555
O19 Dy2 1_555 1_555
O21 S4 1_555 1_555
O22 S4 1_555 1_555
O23 Dy2 1_555 1_555
O24 C29 1_555 1_555
O26 S5 1_555 1_555
O27 S5 1_555 1_555
H4 O27 1_555 1_555
O28 Dy2 1_555 1_555
O29 Dy2 1_555 1_555
O31 S6 1_555 1_555
H5 O31 1_555 1_555
O32 S6 1_555 1_555
O33 Dy2 1_555 1_555
O34 Dy2 1_555 1_555
C1 C2 1_555 1_555
C2 C3 1_555 1_555
C3 H6 1_555 1_555
C4 C3 1_555 1_555
H7 C4 1_555 1_555
C5 S1 1_555 1_555
C6 C5 1_555 1_555
H8 C6 1_555 1_555
C7 C2 1_555 1_555
H9 C7 1_555 1_555
C8 O6 1_555 1_555
C9 C8 1_555 1_555
C10 C9 1_555 1_555
H10 C10 1_555 1_555
C11 C10 1_555 1_555
H11 C11 1_555 1_555
C12 S2 1_555 1_555
C13 C12 1_555 1_555
H12 C13 1_555 1_555
C14 C9 1_555 1_555
H13 C14 1_555 1_555
C15 O13 1_555 1_555
C16 C15 1_555 1_555
C17 C16 1_555 1_555
H14 C17 1_555 1_555
C18 C17 1_555 1_555
H15 C18 1_555 1_555
C19 S3 1_555 1_555
C20 C19 1_555 1_555
H16 C20 1_555 1_555
C21 C16 1_555 1_555
H17 C21 1_555 1_555
C22 O18 1_555 1_555
C23 C22 1_555 1_555
C24 C23 1_555 1_555
H18 C24 1_555 1_555
C25 C24 1_555 1_555
H19 C25 1_555 1_555
C26 S4 1_555 1_555
C27 C26 1_555 1_555
H20 C27 1_555 1_555
C28 C23 1_555 1_555
H21 C28 1_555 1_555
C29 O23 1_555 1_555
C30 C29 1_555 1_555
C31 C30 1_555 1_555
H22 C31 1_555 1_555
C32 C31 1_555 1_555
H23 C32 1_555 1_555
C33 S5 1_555 1_555
C34 C33 1_555 1_555
H24 C34 1_555 1_555
C35 C30 1_555 1_555
H25 C35 1_555 1_555
C36 O28 1_555 1_555
C37 C36 1_555 1_555
C38 C37 1_555 1_555
H26 C38 1_555 1_555
C39 C38 1_555 1_555
H27 C39 1_555 1_555
C40 S6 1_555 1_555
C41 C40 1_555 1_555
H28 C41 1_555 1_555
C42 C37 1_555 1_555
H29 C42 1_555 1_555
Dy1A O7 1_555 1_555
Dy2A O24 1_555 1_555
O7A Dy1 1_555 1_555
O24A Dy2 1_555 1_555
O19 C22 1_555 1_555
O29 C36 1_555 1_555
C4 C5 1_555 1_555
C6 C7 1_555 1_555
C11 C12 1_555 1_555
C13 C14 1_555 1_555
C18 C19 1_555 1_555
C20 C21 1_555 1_555
C25 C26 1_555 1_555
C27 C28 1_555 1_555
C32 C33 1_555 1_555
C34 C35 1_555 1_555
C39 C40 1_555 1_555
C41 C42 1_555 1_555

#END
