
#######################################################################
#
#                 Cambridge Crystallographic Data Centre
#                                CCDC 
#
#######################################################################
#
# If this CIF has been generated from an entry in the Cambridge 
# Structural Database, then it will include bibliographic, chemical, 
# crystal, experimental, refinement or atomic coordinate data resulting 
# from the CCDC's data processing and validation procedures.
#
#######################################################################

data_MIKNAW
_symmetry_cell_setting           monoclinic
_symmetry_space_group_name_H-M   'P 21/c'
_symmetry_Int_Tables_number      14
_space_group_name_Hall           '-P 2ybc'
loop_
_symmetry_equiv_pos_site_id
_symmetry_equiv_pos_as_xyz
1 x,y,z
2 -x,1/2+y,1/2-z
3 -x,-y,-z
4 x,1/2-y,1/2+z
_cell_length_a                   8.084(2)
_cell_length_b                   8.805(2)
_cell_length_c                   23.260(6)
_cell_angle_alpha                90.00
_cell_angle_beta                 91.181(4)
_cell_angle_gamma                90.00
_cell_volume                     1655.29
loop_
_atom_site_label
_atom_site_type_symbol
_atom_site_fract_x
_atom_site_fract_y
_atom_site_fract_z
Pr1 Pr 0.45147(6) -0.08687(5) 0.168041(18)
O1 O 0.7453(7) -0.0470(6) 0.1451(2)
O2 O 0.6425(6) 0.0466(6) 0.2238(2)
O3 O 0.7164(7) 0.3827(6) 0.2479(2)
O4 O 0.8083(7) 0.2700(7) 0.3252(2)
O5 O 0.5521(7) -0.3144(6) 0.1966(3)
H1 H 0.624(8) -0.362(9) 0.181(4)
N1 N 0.3909(7) -0.1313(6) 0.0718(2)
N2 N 0.3398(7) 0.1333(6) 0.1267(2)
C1 C 0.7598(8) 0.0305(7) 0.1902(3)
C2 C 0.9233(9) 0.1030(8) 0.2036(3)
H2 H 1.0155 0.0654 0.1850
C3 C 0.9459(9) 0.2168(9) 0.2398(3)
H3 H 1.0536 0.2515 0.2455
C4 C 0.8136(8) 0.2948(8) 0.2727(3)
C5 C 0.4215(11) -0.2654(9) 0.0458(3)
H4 H 0.4845 -0.3377 0.0655
C6 C 0.3631(12) -0.2987(9) -0.0085(3)
H5 H 0.3853 -0.3924 -0.0252
C7 C 0.2721(12) -0.1924(10) -0.0376(3)
H6 H 0.2307 -0.2122 -0.0745
C8 C 0.2424(11) -0.0543(9) -0.0113(3)
H7 H 0.1818 0.0202 -0.0307
C9 C 0.3019(8) -0.0273(7) 0.0432(3)
C10 C 0.2754(8) 0.1198(7) 0.0734(3)
C11 C 0.1897(10) 0.2407(9) 0.0482(3)
H8 H 0.1422 0.2308 0.0116
C12 C 0.1763(12) 0.3747(9) 0.0779(4)
H9 H 0.1206 0.4565 0.0613
C13 C 0.2441(11) 0.3882(9) 0.1316(4)
H10 H 0.2354 0.4783 0.1522
C14 C 0.3250(10) 0.2664(8) 0.1545(3)
H11 H 0.3724 0.2755 0.1911
Pr1A Pr 0.54853(6) 0.41313(5) 0.331959(18)
O3A O 0.2836(7) -0.1173(6) 0.2521(2)
O4A O 0.1917(7) -0.2300(7) 0.1748(2)
O6 O 0.9343(9) 0.7223(8) 0.0967(3)
H12 H 1.012(7) 0.727(11) 0.120(3)
H13 H 0.864(6) 0.782(6) 0.107(3)
O7 O 0.2725(9) 0.5163(8) 0.8677(3)
H14 H 0.194(5) 0.460(6) 0.874(3)
H15 H 0.249(7) 0.564(7) 0.8385(19)
loop_
_geom_bond_atom_site_label_1
_geom_bond_atom_site_label_2
_geom_bond_site_symmetry_1
_geom_bond_site_symmetry_2
Pr1 O1 1_555 1_555
O1 C1 1_555 1_555
O2 Pr1 1_555 1_555
O3 C4 1_555 1_555
O4 C4 1_555 1_555
O5 Pr1 1_555 1_555
H1 O5 1_555 1_555
N1 Pr1 1_555 1_555
N2 Pr1 1_555 1_555
C1 O2 1_555 1_555
C2 C1 1_555 1_555
H2 C2 1_555 1_555
C3 C2 1_555 1_555
H3 C3 1_555 1_555
C4 C3 1_555 1_555
C5 N1 1_555 1_555
H4 C5 1_555 1_555
C6 C5 1_555 1_555
H5 C6 1_555 1_555
C7 C6 1_555 1_555
H6 C7 1_555 1_555
C8 C7 1_555 1_555
H7 C8 1_555 1_555
C9 N1 1_555 1_555
C10 N2 1_555 1_555
C11 C10 1_555 1_555
H8 C11 1_555 1_555
C12 C11 1_555 1_555
H9 C12 1_555 1_555
C13 C12 1_555 1_555
H10 C13 1_555 1_555
C14 N2 1_555 1_555
H11 C14 1_555 1_555
O6 H12 1_555 1_555
H13 O6 1_555 1_555
O7 H14 1_555 1_555
H15 O7 1_555 1_555
Pr1A O3 1_555 1_555
O3A Pr1 1_555 1_555
O4A Pr1 1_555 1_555
O4 Pr1A 1_555 1_555
C8 C9 1_555 1_555
C9 C10 1_555 1_555
C13 C14 1_555 1_555

#END
