
#######################################################################
#
#                 Cambridge Crystallographic Data Centre
#                                CCDC 
#
#######################################################################
#
# If this CIF has been generated from an entry in the Cambridge 
# Structural Database, then it will include bibliographic, chemical, 
# crystal, experimental, refinement or atomic coordinate data resulting 
# from the CCDC's data processing and validation procedures.
#
#######################################################################

data_MIKXOU01
_symmetry_cell_setting           orthorhombic
_symmetry_space_group_name_H-M   'P b c a'
_symmetry_Int_Tables_number      61
_space_group_name_Hall           '-P 2ac 2ab'
loop_
_symmetry_equiv_pos_site_id
_symmetry_equiv_pos_as_xyz
1 x,y,z
2 1/2-x,-y,1/2+z
3 -x,1/2+y,1/2-z
4 1/2+x,1/2-y,-z
5 -x,-y,-z
6 1/2+x,y,1/2-z
7 x,1/2-y,1/2+z
8 1/2-x,1/2+y,z
_cell_length_a                   8.7634(14)
_cell_length_b                   18.041(3)
_cell_length_c                   21.515(4)
_cell_angle_alpha                90
_cell_angle_beta                 90
_cell_angle_gamma                90
_cell_volume                     3401.53
loop_
_atom_site_label
_atom_site_type_symbol
_atom_site_fract_x
_atom_site_fract_y
_atom_site_fract_z
O1 O -0.1353(6) 0.0763(2) -0.4821(2)
Cu1 Cu 0.19508(10) -0.24918(4) -0.42111(4)
Cu2 Cu -0.05004(11) -0.15630(4) -0.48399(4)
N1 N 0.2817(6) -0.2473(3) -0.3399(2)
N2 N -0.1787(7) -0.0768(3) -0.4511(3)
N3 N 0.0912(8) -0.2414(3) -0.5018(3)
N4 N 0.0452(8) -0.2926(3) -0.5337(3)
N5 N 0.0018(9) -0.3392(3) -0.5650(3)
O2 O 0.3333(6) -0.3284(2) -0.4397(2)
O3 O 0.0637(6) -0.1646(2) -0.40417(19)
C1 C 0.3815(9) -0.3609(4) -0.3821(4)
H1 H 0.3020 -0.3953 -0.3668
H2 H 0.4764 -0.3896 -0.3887
C2 C 0.4093(9) -0.3011(4) -0.3345(3)
H3 H 0.5080 -0.2762 -0.3425
H4 H 0.4119 -0.3227 -0.2922
C3 C 0.2328(8) -0.2105(4) -0.2933(3)
H5 H 0.2795 -0.2197 -0.2542
C4 C 0.1120(8) -0.1558(3) -0.2951(3)
C5 C 0.0370(8) -0.1343(3) -0.3499(3)
C6 C -0.0753(8) -0.0778(3) -0.3450(3)
C7 C -0.1009(9) -0.0432(3) -0.2872(3)
H6 H -0.1713 -0.0032 -0.2853
C8 C -0.0292(8) -0.0646(3) -0.2340(3)
C9 C 0.0740(9) -0.1218(3) -0.2381(3)
H7 H 0.1216 -0.1391 -0.2012
C10 C -0.0656(10) -0.0263(4) -0.1733(3)
H8 H -0.1762 -0.0198 -0.1695
H9 H -0.0284 -0.0565 -0.1386
H10 H -0.0157 0.0223 -0.1723
C11 C -0.1718(8) -0.0522(3) -0.3956(3)
H11 H -0.2381 -0.0121 -0.3861
C12 C -0.2852(9) -0.0365(3) -0.4927(3)
H12 H -0.3290 -0.0712 -0.5235
H13 H -0.3699 -0.0153 -0.4680
C13 C -0.1999(9) 0.0250(3) -0.5258(3)
H14 H -0.2708 0.0517 -0.5538
H15 H -0.1175 0.0033 -0.5515
O1D O 0.1353(6) -0.0763(2) -0.5179(2)
Cu2C Cu 0.44996(11) -0.34370(4) -0.51601(4)
Cu2D Cu 0.05004(11) 0.15630(4) -0.51601(4)
O2C O -0.1667(6) -0.1716(2) -0.5603(2)
O4 O 0.7172(7) -0.7585(3) -0.3687(3)
O5 O 0.6174(8) -0.8593(3) -0.4238(3)
O6 O 0.5041(7) -0.8246(3) -0.3334(3)
O7 O 0.7440(8) -0.8792(3) -0.3317(3)
Cl1 Cl 0.6467(2) -0.83012(9) -0.36373(9)
loop_
_geom_bond_atom_site_label_1
_geom_bond_atom_site_label_2
_geom_bond_site_symmetry_1
_geom_bond_site_symmetry_2
O1 C13 1_555 1_555
Cu1 N1 1_555 1_555
Cu2 N2 1_555 1_555
N1 C2 1_555 1_555
N2 C11 1_555 1_555
N3 Cu1 1_555 1_555
N4 N3 1_555 1_555
N5 N4 1_555 1_555
O2 Cu1 1_555 1_555
O3 Cu1 1_555 1_555
C1 O2 1_555 1_555
H1 C1 1_555 1_555
H2 C1 1_555 1_555
C2 C1 1_555 1_555
H3 C2 1_555 1_555
H4 C2 1_555 1_555
C3 N1 1_555 1_555
H5 C3 1_555 1_555
C4 C3 1_555 1_555
C5 O3 1_555 1_555
C6 C5 1_555 1_555
C7 C6 1_555 1_555
H6 C7 1_555 1_555
C8 C7 1_555 1_555
C9 C4 1_555 1_555
H7 C9 1_555 1_555
C10 C8 1_555 1_555
H8 C10 1_555 1_555
H9 C10 1_555 1_555
H10 C10 1_555 1_555
C11 C6 1_555 1_555
H11 C11 1_555 1_555
C12 N2 1_555 1_555
H12 C12 1_555 1_555
H13 C12 1_555 1_555
C13 C12 1_555 1_555
H14 C13 1_555 1_555
H15 C13 1_555 1_555
O4 Cl1 1_555 1_555
O5 Cl1 1_555 1_555
O6 Cl1 1_555 1_555
O7 Cl1 1_555 1_555
O1D Cu2 1_555 1_555
Cu2C O2 1_555 1_555
Cu2D O1 1_555 1_555
O2C Cu2 1_555 1_555
Cu2 N3 1_555 1_555
Cu2 O3 1_555 1_555
C4 C5 1_555 1_555
C8 C9 1_555 1_555

#END
