
#######################################################################
#
#                 Cambridge Crystallographic Data Centre
#                                CCDC 
#
#######################################################################
#
# If this CIF has been generated from an entry in the Cambridge 
# Structural Database, then it will include bibliographic, chemical, 
# crystal, experimental, refinement or atomic coordinate data resulting 
# from the CCDC's data processing and validation procedures.
#
#######################################################################

data_MILDUI
_symmetry_cell_setting           triclinic
_symmetry_space_group_name_H-M   'P -1'
_symmetry_Int_Tables_number      2
_space_group_name_Hall           '-P 1'
loop_
_symmetry_equiv_pos_site_id
_symmetry_equiv_pos_as_xyz
1 x,y,z
2 -x,-y,-z
_cell_length_a                   9.952(2)
_cell_length_b                   10.373(2)
_cell_length_c                   14.617(3)
_cell_angle_alpha                69.914(4)
_cell_angle_beta                 84.309(4)
_cell_angle_gamma                72.206(4)
_cell_volume                     1349.34
loop_
_atom_site_label
_atom_site_type_symbol
_atom_site_fract_x
_atom_site_fract_y
_atom_site_fract_z
Co1 Co 0.78680(4) 0.75447(4) 0.39174(3)
Co2 Co 0.61160(5) 0.81845(5) 0.00199(3)
P1 P 0.66395(8) 0.65360(8) 0.22960(6)
O1 O 0.7269(3) 0.4909(2) 0.28540(18)
O2 O 0.7201(2) 0.7423(2) 0.26839(16)
O3 O 0.6895(3) 0.6650(2) 0.12383(16)
O4 O 0.2856(3) 1.0389(2) 0.08573(18)
O5 O 0.5128(2) 0.9342(2) 0.09743(16)
O6 O -0.0508(2) 0.8531(2) 0.30483(18)
O7 O 0.0012(2) 0.6251(2) 0.39203(17)
O8 O 0.2976(2) 0.3893(2) 0.49985(17)
O9 O 0.2399(3) 0.5949(2) 0.53297(16)
N1 N 0.6370(3) 0.9538(3) 0.3759(2)
N2 N 0.8371(3) 0.8185(3) 0.5061(2)
N3 N 0.4545(3) 0.7711(3) -0.0560(2)
N4 N 0.7281(3) 0.6730(3) -0.0717(2)
C1 C 0.4752(3) 0.6886(3) 0.2568(2)
C2 C 0.3645(3) 0.8062(3) 0.2043(2)
C3 C 0.2256(3) 0.8142(3) 0.2323(2)
H1 H 0.1536 0.8879 0.1937
C4 C 0.1907(3) 0.7174(3) 0.3147(2)
C5 C 0.2983(3) 0.6090(3) 0.3739(2)
C6 C 0.4368(3) 0.5924(3) 0.3420(2)
H2 H 0.5073 0.5142 0.3786
C7 C 0.3892(4) 0.9326(3) 0.1236(2)
C8 C 0.0366(3) 0.7327(3) 0.3391(2)
C9 C 0.2739(3) 0.5225(3) 0.4771(2)
C10 C 0.5250(4) 1.0078(4) 0.3173(3)
H3 H 0.5122 0.9553 0.2803
C11 C 0.4270(4) 1.1379(4) 0.3091(3)
H4 H 0.3472 1.1705 0.2699
C12 C 0.4500(4) 1.2184(4) 0.3601(3)
H5 H 0.3870 1.3079 0.3547
C13 C 0.5677(4) 1.1652(4) 0.4194(3)
H6 H 0.5856 1.2193 0.4534
C14 C 0.6587(4) 1.0311(3) 0.4279(2)
C15 C 0.7765(4) 0.9564(3) 0.4980(2)
C16 C 0.8201(4) 1.0191(4) 0.5557(3)
H7 H 0.7797 1.1159 0.5475
C17 C 0.9233(4) 0.9359(4) 0.6246(3)
H8 H 0.9544 0.9759 0.6635
C18 C 0.9802(4) 0.7930(4) 0.6356(3)
H9 H 1.0481 0.7342 0.6833
C19 C 0.9351(4) 0.7378(4) 0.5746(3)
H10 H 0.9745 0.6413 0.5816
C20 C 0.3197(5) 0.8438(5) -0.0637(3)
H11 H 0.2893 0.9195 -0.0391
C21 C 0.2203(5) 0.8123(6) -0.1072(4)
H12 H 0.1260 0.8665 -0.1127
C22 C 0.2667(6) 0.6988(6) -0.1414(4)
H13 H 0.2028 0.6724 -0.1683
C23 C 0.4074(5) 0.6238(5) -0.1360(3)
H14 H 0.4395 0.5473 -0.1597
C24 C 0.5012(5) 0.6637(4) -0.0948(3)
C25 C 0.6547(5) 0.6033(4) -0.0988(3)
C26 C 0.7209(6) 0.4928(5) -0.1359(3)
H15 H 0.6687 0.4435 -0.1526
C27 C 0.8640(6) 0.4582(5) -0.1473(4)
H16 H 0.9099 0.3851 -0.1725
C28 C 0.9401(5) 0.5306(5) -0.1219(3)
H17 H 1.0374 0.5088 -0.1300
C29 C 0.8679(5) 0.6373(5) -0.0838(3)
H18 H 0.9189 0.6865 -0.0657
H19 H 0.753(5) 0.465(5) 0.342(3)
Co1_2 Co -0.21320(4) 0.75447(4) 0.39174(3)
Co1A Co 0.21320(4) 0.24553(4) 0.60826(3)
Co2A Co 0.38840(5) 1.18155(5) -0.00199(3)
O4A O 0.7144(3) 0.9611(2) -0.08573(18)
O6_2 O 0.9492(2) 0.8531(2) 0.30483(18)
O7_2 O 1.0012(2) 0.6251(2) 0.39203(17)
O8A O 0.7024(2) 0.6107(2) 0.50015(17)
loop_
_geom_bond_atom_site_label_1
_geom_bond_atom_site_label_2
_geom_bond_site_symmetry_1
_geom_bond_site_symmetry_2
Co1 O2 1_555 1_555
Co2 O3 1_555 1_555
P1 O1 1_555 1_555
O1 H19 1_555 1_555
O2 P1 1_555 1_555
O3 P1 1_555 1_555
O4 C7 1_555 1_555
O5 Co2 1_555 1_555
O6 C8 1_555 1_555
O7 C8 1_555 1_555
O8 C9 1_555 1_555
O9 C9 1_555 1_555
N1 Co1 1_555 1_555
N2 Co1 1_555 1_555
N3 Co2 1_555 1_555
N4 Co2 1_555 1_555
C1 P1 1_555 1_555
C2 C1 1_555 1_555
C3 C2 1_555 1_555
H1 C3 1_555 1_555
C4 C3 1_555 1_555
C5 C4 1_555 1_555
C6 C1 1_555 1_555
H2 C6 1_555 1_555
C7 O5 1_555 1_555
C8 C4 1_555 1_555
C9 C5 1_555 1_555
C10 N1 1_555 1_555
H3 C10 1_555 1_555
C11 C10 1_555 1_555
H4 C11 1_555 1_555
C12 C11 1_555 1_555
H5 C12 1_555 1_555
C13 C12 1_555 1_555
H6 C13 1_555 1_555
C14 N1 1_555 1_555
C15 N2 1_555 1_555
C16 C15 1_555 1_555
H7 C16 1_555 1_555
C17 C16 1_555 1_555
H8 C17 1_555 1_555
C18 C17 1_555 1_555
H9 C18 1_555 1_555
C19 N2 1_555 1_555
H10 C19 1_555 1_555
C20 N3 1_555 1_555
H11 C20 1_555 1_555
C21 C20 1_555 1_555
H12 C21 1_555 1_555
C22 C21 1_555 1_555
H13 C22 1_555 1_555
C23 C22 1_555 1_555
H14 C23 1_555 1_555
C24 N3 1_555 1_555
C25 N4 1_555 1_555
C26 C25 1_555 1_555
H15 C26 1_555 1_555
C27 C26 1_555 1_555
H16 C27 1_555 1_555
C28 C27 1_555 1_555
H17 C28 1_555 1_555
C29 N4 1_555 1_555
H18 C29 1_555 1_555
Co1_2 O6 1_555 1_555
Co1A O8 1_555 1_555
Co2A O4 1_555 1_555
O4A Co2 1_555 1_555
O6_2 Co1 1_555 1_555
O7_2 Co1 1_555 1_555
O8A Co1 1_555 1_555
O7 Co1_2 1_555 1_555
C2 C7 1_555 1_555
C5 C6 1_555 1_555
C13 C14 1_555 1_555
C14 C15 1_555 1_555
C18 C19 1_555 1_555
C23 C24 1_555 1_555
C24 C25 1_555 1_555
C28 C29 1_555 1_555

#END
