
#######################################################################
#
#                 Cambridge Crystallographic Data Centre
#                                CCDC 
#
#######################################################################
#
# If this CIF has been generated from an entry in the Cambridge 
# Structural Database, then it will include bibliographic, chemical, 
# crystal, experimental, refinement or atomic coordinate data resulting 
# from the CCDC's data processing and validation procedures.
#
#######################################################################

data_MILDOC
_symmetry_cell_setting           triclinic
_symmetry_space_group_name_H-M   'P -1'
_symmetry_Int_Tables_number      2
_space_group_name_Hall           '-P 1'
loop_
_symmetry_equiv_pos_site_id
_symmetry_equiv_pos_as_xyz
1 x,y,z
2 -x,-y,-z
_cell_length_a                   9.951(4)
_cell_length_b                   10.372(5)
_cell_length_c                   14.719(6)
_cell_angle_alpha                69.37
_cell_angle_beta                 83.871(5)
_cell_angle_gamma                72.362(7)
_cell_volume                     1354.92
loop_
_atom_site_label
_atom_site_type_symbol
_atom_site_fract_x
_atom_site_fract_y
_atom_site_fract_z
Co1 Co 0.78653(7) 0.25493(7) 0.39180(5)
Co2 Co 0.61198(7) 0.31847(7) 0.00224(4)
P1 P 0.66447(14) 0.15306(14) 0.22976(9)
O1 O 0.7294(3) -0.0100(4) 0.2858(3)
O2 O 0.7198(3) 0.2429(3) 0.2687(2)
O3 O 0.6897(3) 0.1655(4) 0.1243(2)
O4 O 0.2869(3) 0.5387(4) 0.0864(2)
O5 O 0.5134(3) 0.4340(4) 0.0972(2)
O6 O -0.0504(3) 0.3522(4) 0.3060(2)
O7 O 0.0000(4) 0.1258(3) 0.3925(2)
O8 O 0.2978(3) -0.1101(3) 0.4990(2)
O9 O 0.2408(3) 0.0949(4) 0.5327(2)
N1 N 0.6361(4) 0.4531(5) 0.3766(3)
N2 N 0.8364(4) 0.3198(4) 0.5059(3)
N3 N 0.4537(4) 0.2711(4) -0.0563(3)
N4 N 0.7269(5) 0.1720(4) -0.0708(3)
C1 C 0.4754(5) 0.1880(5) 0.2573(3)
C2 C 0.3656(5) 0.3050(6) 0.2041(4)
C3 C 0.2257(5) 0.3133(5) 0.2320(4)
H1 H 0.1539 0.3859 0.1930
C4 C 0.1915(5) 0.2168(5) 0.3158(3)
C5 C 0.2984(5) 0.1086(6) 0.3743(4)
C6 C 0.4372(5) 0.0919(6) 0.3421(4)
H2 H 0.5073 0.0135 0.3785
C7 C 0.3888(5) 0.4332(5) 0.1227(3)
C8 C 0.0376(5) 0.2323(6) 0.3393(4)
C9 C 0.2736(5) 0.0247(6) 0.4772(4)
C10 C 0.5243(6) 0.5087(6) 0.3181(4)
H3 H 0.5114 0.4571 0.2810
C11 C 0.4277(6) 0.6382(5) 0.3101(4)
H4 H 0.3482 0.6709 0.2713
C12 C 0.4497(6) 0.7180(6) 0.3598(3)
H5 H 0.3865 0.8072 0.3544
C13 C 0.5678(5) 0.6647(5) 0.4189(3)
H6 H 0.5855 0.7186 0.4526
C14 C 0.6580(5) 0.5315(5) 0.4268(3)
C15 C 0.7770(6) 0.4556(6) 0.4983(4)
C16 C 0.8199(5) 0.5181(5) 0.5554(4)
H7 H 0.7799 0.6151 0.5468
C17 C 0.9215(5) 0.4353(5) 0.6244(4)
H8 H 0.9510 0.4753 0.6634
C18 C 0.9789(5) 0.2941(5) 0.6354(3)
H9 H 1.0458 0.2353 0.6834
C19 C 0.9363(4) 0.2387(5) 0.5736(3)
H10 H 0.9780 0.1429 0.5794
C20 C 0.3192(5) 0.3452(5) -0.0632(4)
H11 H 0.2895 0.4223 -0.0403
C21 C 0.2187(6) 0.3101(5) -0.1050(4)
H12 H 0.1237 0.3610 -0.1078
C22 C 0.2656(5) 0.1995(6) -0.1407(4)
H13 H 0.2021 0.1740 -0.1682
C23 C 0.4075(5) 0.1249(6) -0.1362(4)
H14 H 0.4398 0.0502 -0.1614
C24 C 0.5024(5) 0.1632(5) -0.0933(4)
C25 C 0.6536(5) 0.1044(5) -0.0976(4)
C26 C 0.7205(5) -0.0054(5) -0.1364(4)
H15 H 0.6676 -0.0527 -0.1543
C27 C 0.8602(6) -0.0411(6) -0.1473(4)
H16 H 0.9052 -0.1145 -0.1719
C28 C 0.9388(6) 0.0314(6) -0.1218(4)
H17 H 1.0360 0.0100 -0.1308
C29 C 0.8679(6) 0.1356(6) -0.0827(4)
H18 H 0.9195 0.1831 -0.0637
H19 H 0.743(5) -0.028(5) 0.346(4)
Co1_2 Co -0.21347(7) 0.25493(7) 0.39180(5)
Co1A Co 0.21347(7) -0.25493(7) 0.60820(5)
Co2A Co 0.38802(7) 0.68153(7) -0.00224(4)
O4A O 0.7131(3) 0.4613(4) -0.0864(2)
O6_2 O 0.9496(3) 0.3522(4) 0.3060(2)
O7_2 O 1.0000(4) 0.1258(3) 0.3925(2)
O8A O 0.7022(3) 0.1101(3) 0.5010(2)
O10 O 0.0000 0.5000 0.0000
H20 H 0.0702 0.4538 0.0380
H21 H 0.0022 0.5863 -0.0280
loop_
_geom_bond_atom_site_label_1
_geom_bond_atom_site_label_2
_geom_bond_site_symmetry_1
_geom_bond_site_symmetry_2
Co1 O2 1_555 1_555
Co2 O3 1_555 1_555
P1 O1 1_555 1_555
O1 H19 1_555 1_555
O2 P1 1_555 1_555
O3 P1 1_555 1_555
O4 C7 1_555 1_555
O5 Co2 1_555 1_555
O6 C8 1_555 1_555
O7 C8 1_555 1_555
O8 C9 1_555 1_555
O9 C9 1_555 1_555
N1 Co1 1_555 1_555
N2 Co1 1_555 1_555
N3 Co2 1_555 1_555
N4 Co2 1_555 1_555
C1 P1 1_555 1_555
C2 C1 1_555 1_555
C3 C2 1_555 1_555
H1 C3 1_555 1_555
C4 C3 1_555 1_555
C5 C4 1_555 1_555
C6 C1 1_555 1_555
H2 C6 1_555 1_555
C7 O5 1_555 1_555
C8 C4 1_555 1_555
C9 C5 1_555 1_555
C10 N1 1_555 1_555
H3 C10 1_555 1_555
C11 C10 1_555 1_555
H4 C11 1_555 1_555
C12 C11 1_555 1_555
H5 C12 1_555 1_555
C13 C12 1_555 1_555
H6 C13 1_555 1_555
C14 N1 1_555 1_555
C15 N2 1_555 1_555
C16 C15 1_555 1_555
H7 C16 1_555 1_555
C17 C16 1_555 1_555
H8 C17 1_555 1_555
C18 C17 1_555 1_555
H9 C18 1_555 1_555
C19 N2 1_555 1_555
H10 C19 1_555 1_555
C20 N3 1_555 1_555
H11 C20 1_555 1_555
C21 C20 1_555 1_555
H12 C21 1_555 1_555
C22 C21 1_555 1_555
H13 C22 1_555 1_555
C23 C22 1_555 1_555
H14 C23 1_555 1_555
C24 N3 1_555 1_555
C25 N4 1_555 1_555
C26 C25 1_555 1_555
H15 C26 1_555 1_555
C27 C26 1_555 1_555
H16 C27 1_555 1_555
C28 C27 1_555 1_555
H17 C28 1_555 1_555
C29 N4 1_555 1_555
H18 C29 1_555 1_555
O10 H20 1_555 1_555
H21 O10 1_555 1_555
Co1_2 O6 1_555 1_555
Co1A O8 1_555 1_555
Co2A O4 1_555 1_555
O4A Co2 1_555 1_555
O6_2 Co1 1_555 1_555
O7_2 Co1 1_555 1_555
O8A Co1 1_555 1_555
O7 Co1_2 1_555 1_555
C2 C7 1_555 1_555
C5 C6 1_555 1_555
C13 C14 1_555 1_555
C14 C15 1_555 1_555
C18 C19 1_555 1_555
C23 C24 1_555 1_555
C24 C25 1_555 1_555
C28 C29 1_555 1_555

#END
