
#######################################################################
#
#                 Cambridge Crystallographic Data Centre
#                                CCDC 
#
#######################################################################
#
# If this CIF has been generated from an entry in the Cambridge 
# Structural Database, then it will include bibliographic, chemical, 
# crystal, experimental, refinement or atomic coordinate data resulting 
# from the CCDC's data processing and validation procedures.
#
#######################################################################

data_MILFAQ
_symmetry_cell_setting           triclinic
_symmetry_space_group_name_H-M   'P -1'
_symmetry_Int_Tables_number      2
_space_group_name_Hall           '-P 1'
loop_
_symmetry_equiv_pos_site_id
_symmetry_equiv_pos_as_xyz
1 x,y,z
2 -x,-y,-z
_cell_length_a                   9.746(2)
_cell_length_b                   10.458(2)
_cell_length_c                   15.050(3)
_cell_angle_alpha                70.443(3)
_cell_angle_beta                 84.664(3)
_cell_angle_gamma                73.237(3)
_cell_volume                     1384.02
loop_
_atom_site_label
_atom_site_type_symbol
_atom_site_fract_x
_atom_site_fract_y
_atom_site_fract_z
Co1 Co -0.21702(3) 0.75319(3) 0.39473(2)
Co2 Co 0.68682(4) 0.80990(3) 0.01866(2)
P1 P 0.67649(7) 0.63334(6) 0.23912(4)
N1 N -0.3698(2) 0.9500(2) 0.37678(15)
N2 N -0.1680(2) 0.8199(2) 0.50454(15)
N3 N 0.7014(2) 0.6753(2) -0.06091(15)
N4 N 0.9048(2) 0.7668(2) -0.02035(16)
O1 O 0.7449(2) 0.47907(18) 0.29960(13)
O2 O 0.71698(19) 0.73908(19) 0.27282(12)
O3 O 0.71442(19) 0.64356(18) 0.13855(12)
O4 O 0.3519(2) 1.01331(18) 0.10360(12)
O5 O 0.46495(19) 0.83948(18) 0.04532(12)
O6 O -0.04942(19) 0.85284(19) 0.30779(14)
O7 O -0.00167(19) 0.62945(19) 0.39343(13)
O8 O 0.2990(2) 0.39293(19) 0.49980(13)
O9 O 0.2360(2) 0.59944(19) 0.52811(12)
O10 O 0.7057(2) 0.9412(2) 0.09822(14)
H1 H 0.7247 0.8926 0.1533
C1 C 0.4830(3) 0.6660(2) 0.25888(16)
C2 C 0.3773(3) 0.7803(2) 0.20408(16)
C3 C 0.2353(3) 0.8033(2) 0.23392(17)
H2 H 0.1660 0.8799 0.1971
C4 C 0.1941(3) 0.7145(2) 0.31757(16)
C5 C 0.3002(3) 0.6054(2) 0.37509(16)
C6 C 0.4413(3) 0.5818(3) 0.34481(17)
H3 H 0.5108 0.5072 0.3830
C7 C 0.4045(3) 0.8860(2) 0.11018(16)
C8 C 0.0371(3) 0.7351(3) 0.34102(17)
C9 C 0.2729(3) 0.5238(3) 0.47572(17)
C10 C -0.0698(3) 0.7424(3) 0.57159(19)
H4 H -0.0303 0.6473 0.5786
C11 C -0.0246(3) 0.7979(3) 0.6309(2)
H5 H 0.0438 0.7412 0.6774
C12 C -0.0825(4) 0.9394(3) 0.6204(2)
H6 H -0.0520 0.9797 0.6587
C13 C -0.1859(3) 1.0202(3) 0.5523(2)
H7 H -0.2268 1.1154 0.5442
C14 C -0.2282(3) 0.9562(3) 0.49566(18)
C15 C -0.3453(3) 1.0289(3) 0.42560(18)
C16 C -0.4321(4) 1.1640(3) 0.4138(2)
H8 H -0.4137 1.2173 0.4475
C17 C -0.5458(4) 1.2188(3) 0.3519(2)
H9 H -0.6049 1.3095 0.3434
C18 C -0.5709(3) 1.1387(3) 0.3031(2)
H10 H -0.6476 1.1735 0.2612
C19 C -0.4806(3) 1.0054(3) 0.3171(2)
H11 H -0.4975 0.9513 0.2834
C20 C 0.5950(3) 0.6267(3) -0.0734(2)
H12 H 0.5063 0.6561 -0.0470
C21 C 0.6099(4) 0.5349(4) -0.1237(2)
H13 H 0.5337 0.5024 -0.1311
C22 C 0.7411(5) 0.4932(4) -0.1624(2)
H14 H 0.7544 0.4325 -0.1976
C23 C 0.8528(4) 0.5403(3) -0.1497(2)
H15 H 0.9420 0.5114 -0.1757
C24 C 0.8314(3) 0.6319(3) -0.09747(18)
C25 C 0.9442(3) 0.6868(3) -0.07736(19)
C26 C 1.0808(3) 0.6603(4) -0.1141(2)
H16 H 1.1067 0.6037 -0.1525
C27 C 1.1775(4) 0.7184(5) -0.0933(3)
H17 H 1.2688 0.7042 -0.1192
C28 C 1.1389(4) 0.7983(4) -0.0334(3)
H18 H 1.2040 0.8368 -0.0173
C29 C 1.0019(3) 0.8193(3) 0.0016(3)
H19 H 0.9757 0.8723 0.0424
H20 H 0.758(4) 0.452(4) 0.365(3)
H21 H 0.615(6) 1.007(5) 0.086(3)
Co1_2 Co 0.78298(3) 0.75319(3) 0.39473(2)
Co1A Co 0.21702(3) 0.24681(3) 0.60527(2)
Co2A Co 0.31318(4) 1.19010(3) -0.01866(2)
O2_2 O -0.28302(19) 0.73908(19) 0.27282(12)
O4A O 0.6481(2) 0.98669(18) -0.10360(12)
O8A O -0.2990(2) 0.60707(19) 0.50020(13)
loop_
_geom_bond_atom_site_label_1
_geom_bond_atom_site_label_2
_geom_bond_site_symmetry_1
_geom_bond_site_symmetry_2
Co1 N1 1_555 1_555
Co2 N3 1_555 1_555
P1 O1 1_555 1_555
N1 C15 1_555 1_555
N2 Co1 1_555 1_555
N3 C20 1_555 1_555
N4 Co2 1_555 1_555
O1 H20 1_555 1_555
O2 P1 1_555 1_555
O3 Co2 1_555 1_555
O4 C7 1_555 1_555
O5 Co2 1_555 1_555
O6 Co1 1_555 1_555
O7 Co1 1_555 1_555
O8 C9 1_555 1_555
O9 C9 1_555 1_555
O10 Co2 1_555 1_555
H1 O10 1_555 1_555
C1 P1 1_555 1_555
C2 C1 1_555 1_555
C3 C2 1_555 1_555
H2 C3 1_555 1_555
C4 C3 1_555 1_555
C5 C4 1_555 1_555
C6 C1 1_555 1_555
H3 C6 1_555 1_555
C7 O5 1_555 1_555
C8 O6 1_555 1_555
C9 C5 1_555 1_555
C10 N2 1_555 1_555
H4 C10 1_555 1_555
C11 C10 1_555 1_555
H5 C11 1_555 1_555
C12 C11 1_555 1_555
H6 C12 1_555 1_555
C13 C12 1_555 1_555
H7 C13 1_555 1_555
C14 N2 1_555 1_555
C15 C14 1_555 1_555
C16 C15 1_555 1_555
H8 C16 1_555 1_555
C17 C16 1_555 1_555
H9 C17 1_555 1_555
C18 C17 1_555 1_555
H10 C18 1_555 1_555
C19 N1 1_555 1_555
H11 C19 1_555 1_555
C20 H12 1_555 1_555
C21 C20 1_555 1_555
H13 C21 1_555 1_555
C22 C21 1_555 1_555
H14 C22 1_555 1_555
C23 C22 1_555 1_555
H15 C23 1_555 1_555
C24 N3 1_555 1_555
C25 N4 1_555 1_555
C26 C25 1_555 1_555
H16 C26 1_555 1_555
C27 C26 1_555 1_555
H17 C27 1_555 1_555
C28 C27 1_555 1_555
H18 C28 1_555 1_555
C29 N4 1_555 1_555
H19 C29 1_555 1_555
H21 O10 1_555 1_555
Co1_2 O2 1_555 1_555
Co1A O8 1_555 1_555
Co2A O4 1_555 1_555
O2_2 Co1 1_555 1_555
O4A Co2 1_555 1_555
O8A Co1 1_555 1_555
P1 O3 1_555 1_555
O7 C8 1_555 1_555
C2 C7 1_555 1_555
C4 C8 1_555 1_555
C5 C6 1_555 1_555
C13 C14 1_555 1_555
C18 C19 1_555 1_555
C23 C24 1_555 1_555
C24 C25 1_555 1_555
C28 C29 1_555 1_555

#END
