
#######################################################################
#
#                 Cambridge Crystallographic Data Centre
#                                CCDC 
#
#######################################################################
#
# If this CIF has been generated from an entry in the Cambridge 
# Structural Database, then it will include bibliographic, chemical, 
# crystal, experimental, refinement or atomic coordinate data resulting 
# from the CCDC's data processing and validation procedures.
#
#######################################################################

data_MILKUN
_symmetry_cell_setting           monoclinic
_symmetry_space_group_name_H-M   'C 2/c'
_symmetry_Int_Tables_number      15
_space_group_name_Hall           '-C 2yn'
loop_
_symmetry_equiv_pos_site_id
_symmetry_equiv_pos_as_xyz
1 x,y,z
2 -x,y,1/2-z
3 1/2+x,1/2+y,z
4 1/2-x,1/2+y,1/2-z
5 -x,-y,-z
6 x,-y,1/2+z
7 1/2-x,1/2-y,-z
8 1/2+x,1/2-y,1/2+z
_cell_length_a                   31.5414(7)
_cell_length_b                   5.66960(10)
_cell_length_c                   7.7985(2)
_cell_angle_alpha                90
_cell_angle_beta                 101.7550(10)
_cell_angle_gamma                90
_cell_volume                     1365.34
loop_
_atom_site_label
_atom_site_type_symbol
_atom_site_fract_x
_atom_site_fract_y
_atom_site_fract_z
Ca1 Ca 0.5000 0.60905(9) 0.2500
P1 P 0.439389(15) 0.15998(8) 0.08170(6)
O1 O 0.46430(5) 0.3218(2) -0.01600(17)
O2 O 0.44885(4) 0.2718(2) 0.27328(17)
O3 O 0.45030(5) -0.1017(2) 0.08642(17)
C1 C 0.38192(6) 0.1963(3) -0.0044(2)
C2 C 0.35172(7) 0.0254(4) 0.0264(3)
H1 H 0.3615 -0.1128 0.0914
C3 C 0.29252(7) 0.2610(4) -0.1360(3)
H2 H 0.2624 0.2827 -0.1797
C4 C 0.32215(7) 0.4310(4) -0.1690(3)
H3 H 0.3122 0.5672 -0.2362
C5 C 0.30738(7) 0.0591(4) -0.0386(3)
H4 H 0.2872 -0.0558 -0.0164
C6 C 0.36670(7) 0.3994(4) -0.1023(3)
H5 H 0.3867 0.5157 -0.1234
H6 H 0.4456(11) 0.187(5) 0.352(3)
P1A P 0.560611(15) 0.15998(8) 0.41830(6)
O1A O 0.53570(5) 0.3218(2) 0.51600(17)
O2A O 0.55115(4) 0.2718(2) 0.22672(17)
O3A O 0.54970(5) -0.1017(2) 0.41358(17)
C1A C 0.61808(6) 0.1963(3) 0.5044(2)
C2A C 0.64828(7) 0.0254(4) 0.4736(3)
H1A H 0.6385 -0.1128 0.4086
C3A C 0.70748(7) 0.2610(4) 0.6360(3)
H2A H 0.7376 0.2827 0.6797
C4A C 0.67785(7) 0.4310(4) 0.6690(3)
H3A H 0.6878 0.5672 0.7362
C5A C 0.69262(7) 0.0591(4) 0.5386(3)
H4A H 0.7128 -0.0558 0.5164
C6A C 0.63330(7) 0.3994(4) 0.6023(3)
H5A H 0.6133 0.5157 0.6234
H6A H 0.5544(11) 0.187(5) 0.148(3)
O1D O 0.53570(5) 0.6782(2) 0.01600(17)
O1E O 0.46430(5) 0.6782(2) 0.48400(17)
O3_2 O 0.45030(5) 0.8983(2) 0.08642(17)
O3A_2 O 0.54970(5) 0.8983(2) 0.41358(17)
Ca1D Ca 0.5000 0.39095(9) -0.2500
Ca1_2 Ca 0.5000 -0.39095(9) 0.2500
Ca1D_2 Ca 0.5000 0.39095(9) 0.7500
loop_
_geom_bond_atom_site_label_1
_geom_bond_atom_site_label_2
_geom_bond_site_symmetry_1
_geom_bond_site_symmetry_2
Ca1 O1 1_555 1_555
P1 O1 1_555 1_555
O1 Ca1D 1_555 1_555
O2 Ca1 1_555 1_555
O3 P1 1_555 1_555
C1 P1 1_555 1_555
C2 C1 1_555 1_555
H1 C2 1_555 1_555
C3 H2 1_555 1_555
C4 C3 1_555 1_555
H3 C4 1_555 1_555
C5 C2 1_555 1_555
H4 C5 1_555 1_555
C6 C1 1_555 1_555
H5 C6 1_555 1_555
H6 O2 1_555 1_555
P1A O1A 1_555 1_555
O1A Ca1 1_555 1_555
O2A Ca1 1_555 1_555
O3A P1A 1_555 1_555
C1A P1A 1_555 1_555
C2A C1A 1_555 1_555
H1A C2A 1_555 1_555
C3A H2A 1_555 1_555
C4A C3A 1_555 1_555
H3A C4A 1_555 1_555
C5A C2A 1_555 1_555
H4A C5A 1_555 1_555
C6A C1A 1_555 1_555
H5A C6A 1_555 1_555
H6A O2A 1_555 1_555
O1D Ca1 1_555 1_555
O1E Ca1 1_555 1_555
O3_2 Ca1 1_555 1_555
O3A_2 Ca1 1_555 1_555
Ca1D O1D 1_555 1_555
Ca1_2 O3 1_555 1_555
Ca1D_2 O1A 1_555 1_555
P1 O2 1_555 1_555
C3 C5 1_555 1_555
C4 C6 1_555 1_555
P1A O2A 1_555 1_555
O3A Ca1_2 1_555 1_555
C3A C5A 1_555 1_555
C4A C6A 1_555 1_555
O1E Ca1D_2 1_555 1_555

#END
