
#######################################################################
#
#                 Cambridge Crystallographic Data Centre
#                                CCDC 
#
#######################################################################
#
# If this CIF has been generated from an entry in the Cambridge 
# Structural Database, then it will include bibliographic, chemical, 
# crystal, experimental, refinement or atomic coordinate data resulting 
# from the CCDC's data processing and validation procedures.
#
#######################################################################

data_MILROP01
_symmetry_cell_setting           monoclinic
_symmetry_space_group_name_H-M   'P 21/c'
_symmetry_Int_Tables_number      14
_space_group_name_Hall           '-P 2ybc'
loop_
_symmetry_equiv_pos_site_id
_symmetry_equiv_pos_as_xyz
1 x,y,z
2 -x,1/2+y,1/2-z
3 -x,-y,-z
4 x,1/2-y,1/2+z
_cell_length_a                   14.1751(9)
_cell_length_b                   12.1399(6)
_cell_length_c                   23.2134(17)
_cell_angle_alpha                90
_cell_angle_beta                 101.029(5)
_cell_angle_gamma                90
_cell_volume                     3920.88
loop_
_atom_site_label
_atom_site_type_symbol
_atom_site_fract_x
_atom_site_fract_y
_atom_site_fract_z
Ni1 Ni 0.82344(3) 0.59458(3) 0.734617(15)
Ni2 Ni 0.91312(3) 0.85735(3) 0.623433(15)
S1 S 0.69929(6) 0.70877(6) 0.76385(3)
S2 S 0.95911(6) 0.73248(6) 0.54898(3)
S3 S 0.87034(6) 1.00940(6) 0.68240(3)
S4 S 0.92959(6) 0.45810(6) 0.70481(3)
N1 N 0.78100(18) 0.66208(18) 0.65244(10)
N2 N 0.79641(17) 0.75956(18) 0.62543(10)
N3 N 0.71064(18) 0.48154(19) 0.70382(10)
N4 N 0.81622(18) 0.92901(18) 0.55100(10)
N5 N 0.93055(19) 0.70848(19) 0.76593(10)
N6 N 0.96774(18) 0.74384(17) 0.72818(10)
N7 N 1.00676(18) 0.77961(19) 0.69128(10)
N8 N 0.84576(19) 0.51195(19) 0.81607(11)
N9 N 0.91375(18) 0.49283(17) 0.85239(10)
N10 N 0.97982(18) 0.47204(19) 0.89024(10)
C1 C 0.6582(2) 0.6857(2) 0.57649(12)
H1 H 0.6013 0.6752 0.5496
C2 C 0.6987(2) 0.6182(2) 0.62304(12)
C3 C 0.7230(2) 0.7729(2) 0.57960(12)
C4 C 0.6677(2) 0.5071(2) 0.64072(12)
H2 H 0.6874 0.4512 0.6156
H3 H 0.5982 0.5051 0.6354
C5 C 0.7512(2) 0.3678(2) 0.70993(13)
H4 H 0.7018 0.3160 0.6926
H5 H 0.7698 0.3502 0.7513
C6 C 0.8377(2) 0.3540(2) 0.68097(14)
H6 H 0.8170 0.3586 0.6387
H7 H 0.8653 0.2815 0.6902
C7 C 0.9583(3) 0.5015(3) 0.63531(13)
H8 H 0.8993 0.5217 0.6088
H9 H 0.9986 0.5666 0.6418
C8 C 1.0095(3) 0.4135(3) 0.60644(15)
H10 H 1.0705 0.3975 0.6310
H11 H 1.0194 0.4395 0.5690
H12 H 0.9710 0.3479 0.6011
C9 C 0.6370(2) 0.4931(2) 0.74085(13)
H13 H 0.6639 0.4694 0.7805
H14 H 0.5829 0.4456 0.7257
C10 C 0.6018(2) 0.6111(3) 0.74241(14)
H15 H 0.5583 0.6160 0.7698
H16 H 0.5662 0.6308 0.7039
C11 C 0.7183(3) 0.7077(3) 0.84325(14)
H17 H 0.7078 0.6337 0.8564
H18 H 0.7846 0.7274 0.8589
C12 C 0.6542(4) 0.7844(4) 0.86682(17)
H19 H 0.6670 0.8585 0.8560
H20 H 0.6656 0.7785 0.9088
H21 H 0.5885 0.7662 0.8510
C13 C 0.7201(2) 0.8731(2) 0.54152(12)
H22 H 0.7016 0.8519 0.5006
H23 H 0.6723 0.9241 0.5505
C14 C 0.8613(2) 0.9187(2) 0.49856(12)
H24 H 0.9203 0.9612 0.5046
H25 H 0.8182 0.9488 0.4647
C15 C 0.8837(2) 0.7986(2) 0.48644(12)
H26 H 0.9159 0.7958 0.4532
H27 H 0.8239 0.7581 0.4761
C16 C 1.0786(2) 0.7713(3) 0.53894(14)
H28 H 1.0924 0.7366 0.5038
H29 H 1.0818 0.8505 0.5342
C17 C 1.1523(2) 0.7352(3) 0.59209(15)
H30 H 1.1409 0.7735 0.6263
H31 H 1.2157 0.7519 0.5858
H32 H 1.1467 0.6573 0.5977
C18 C 0.8062(2) 1.0482(2) 0.56450(13)
H33 H 0.7577 1.0813 0.5343
H34 H 0.8667 1.0855 0.5644
C19 C 0.7780(2) 1.0633(2) 0.62410(13)
H35 H 0.7179 1.0253 0.6244
H36 H 0.7684 1.1409 0.6309
C20 C 0.7973(2) 0.9640(3) 0.73384(13)
H37 H 0.7469 0.9161 0.7137
H38 H 0.8369 0.9214 0.7647
C21 C 0.7520(3) 1.0592(3) 0.76139(16)
H39 H 0.8016 1.1065 0.7818
H40 H 0.7147 1.0308 0.7885
H41 H 0.7110 1.1003 0.7312
Ni2A Ni 1.08688(3) 0.35735(3) 0.876567(15)
N10A N 1.02018(18) 0.97204(19) 0.60976(10)
Cl1 Cl 0.42928(7) 0.73348(6) 0.93416(3)
O1 O 0.4241(2) 0.7076(2) 0.87321(10)
O2 O 0.3349(2) 0.7637(2) 0.94408(13)
O3 O 0.4633(3) 0.6403(3) 0.96848(14)
O4 O 0.4912(2) 0.8266(2) 0.95042(13)
Cl2 Cl 0.77016(7) 0.00216(9) 0.98370(5)
Cl3 Cl 0.60868(7) 0.09846(8) 0.90099(4)
C22 C 0.6451(3) 0.0256(3) 0.96713(15)
H42 H 0.6120 -0.0446 0.9644
H43 H 0.6265 0.0669 0.9989
Cl4 Cl 0.64594(7) 0.43391(8) 0.90441(4)
Cl5 Cl 0.46076(7) 0.39038(9) 0.82970(4)
C23 C 0.5222(3) 0.4154(3) 0.90166(16)
H44 H 0.5125 0.3539 0.9265
H45 H 0.4960 0.4809 0.9168
loop_
_geom_bond_atom_site_label_1
_geom_bond_atom_site_label_2
_geom_bond_site_symmetry_1
_geom_bond_site_symmetry_2
Ni1 S1 1_555 1_555
Ni2 S2 1_555 1_555
S1 C10 1_555 1_555
S2 C15 1_555 1_555
S3 Ni2 1_555 1_555
S4 Ni1 1_555 1_555
Cl1 O1 1_555 1_555
Cl2 C22 1_555 1_555
Cl3 C22 1_555 1_555
Cl4 C23 1_555 1_555
Cl5 C23 1_555 1_555
N1 Ni1 1_555 1_555
N2 Ni2 1_555 1_555
N3 Ni1 1_555 1_555
N4 Ni2 1_555 1_555
N5 Ni1 1_555 1_555
N6 N5 1_555 1_555
N7 Ni2 1_555 1_555
N8 Ni1 1_555 1_555
N9 N8 1_555 1_555
N10 N9 1_555 1_555
O2 Cl1 1_555 1_555
O3 Cl1 1_555 1_555
O4 Cl1 1_555 1_555
C1 H1 1_555 1_555
C2 N1 1_555 1_555
C3 N2 1_555 1_555
C4 N3 1_555 1_555
H2 C4 1_555 1_555
H3 C4 1_555 1_555
C5 N3 1_555 1_555
H4 C5 1_555 1_555
H5 C5 1_555 1_555
C6 S4 1_555 1_555
H6 C6 1_555 1_555
H7 C6 1_555 1_555
C7 S4 1_555 1_555
H8 C7 1_555 1_555
H9 C7 1_555 1_555
C8 C7 1_555 1_555
H10 C8 1_555 1_555
H11 C8 1_555 1_555
H12 C8 1_555 1_555
C9 N3 1_555 1_555
H13 C9 1_555 1_555
H14 C9 1_555 1_555
C10 C9 1_555 1_555
H15 C10 1_555 1_555
H16 C10 1_555 1_555
C11 S1 1_555 1_555
H17 C11 1_555 1_555
H18 C11 1_555 1_555
C12 C11 1_555 1_555
H19 C12 1_555 1_555
H20 C12 1_555 1_555
H21 C12 1_555 1_555
C13 N4 1_555 1_555
H22 C13 1_555 1_555
H23 C13 1_555 1_555
C14 N4 1_555 1_555
H24 C14 1_555 1_555
H25 C14 1_555 1_555
C15 C14 1_555 1_555
H26 C15 1_555 1_555
H27 C15 1_555 1_555
C16 S2 1_555 1_555
H28 C16 1_555 1_555
H29 C16 1_555 1_555
C17 C16 1_555 1_555
H30 C17 1_555 1_555
H31 C17 1_555 1_555
H32 C17 1_555 1_555
C18 N4 1_555 1_555
H33 C18 1_555 1_555
H34 C18 1_555 1_555
C19 S3 1_555 1_555
H35 C19 1_555 1_555
H36 C19 1_555 1_555
C20 S3 1_555 1_555
H37 C20 1_555 1_555
H38 C20 1_555 1_555
C21 C20 1_555 1_555
H39 C21 1_555 1_555
H40 C21 1_555 1_555
H41 C21 1_555 1_555
C22 H42 1_555 1_555
H43 C22 1_555 1_555
C23 H44 1_555 1_555
H45 C23 1_555 1_555
Ni2A N10 1_555 1_555
N10A Ni2 1_555 1_555
N1 N2 1_555 1_555
N6 N7 1_555 1_555
C1 C2 1_555 1_555
C1 C3 1_555 1_555
C2 C4 1_555 1_555
C3 C13 1_555 1_555
C5 C6 1_555 1_555
C18 C19 1_555 1_555

#END
