
#######################################################################
#
#                 Cambridge Crystallographic Data Centre
#                                CCDC 
#
#######################################################################
#
# If this CIF has been generated from an entry in the Cambridge 
# Structural Database, then it will include bibliographic, chemical, 
# crystal, experimental, refinement or atomic coordinate data resulting 
# from the CCDC's data processing and validation procedures.
#
#######################################################################

data_MIMHIB
_symmetry_cell_setting           triclinic
_symmetry_space_group_name_H-M   'P -1'
_symmetry_Int_Tables_number      2
_space_group_name_Hall           '-P 1'
loop_
_symmetry_equiv_pos_site_id
_symmetry_equiv_pos_as_xyz
1 x,y,z
2 -x,-y,-z
_cell_length_a                   9.744(1)
_cell_length_b                   10.258(2)
_cell_length_c                   11.145(2)
_cell_angle_alpha                107.680(8)
_cell_angle_beta                 98.663(6)
_cell_angle_gamma                91.736(5)
_cell_volume                     1045.84
loop_
_atom_site_label
_atom_site_type_symbol
_atom_site_fract_x
_atom_site_fract_y
_atom_site_fract_z
Ag1 Ag 0.59263(2) 0.40800(2) 0.60038(2)
Ag2 Ag 0.44812(2) 0.16147(2) 0.61037(2)
F1 F 0.2073(2) 0.6612(2) 0.6775(2)
F2 F 0.0386(2) 0.2416(2) 0.3585(2)
F3 F 0.8063(2) 0.0096(2) 0.3015(2)
F4 F 0.9654(2) 0.1217(2) 0.7451(1)
O1 O 0.3766(2) 0.4586(2) 0.5499(2)
O2 O 0.2610(2) 0.2750(2) 0.5683(2)
O3 O 0.7705(2) 0.2728(2) 0.5994(2)
O4 O 0.6361(2) 0.0763(2) 0.5201(2)
N1 N 0.7419(3) 0.5678(3) 0.7745(3)
N2 N 0.4614(3) 0.1831(3) 0.8236(2)
C1 C 0.2686(3) 0.3873(3) 0.5482(3)
C2 C 0.1071(3) 0.5803(3) 0.5879(3)
C3 C 0.1312(3) 0.4469(3) 0.5204(3)
C4 C 0.0211(3) 0.3694(3) 0.4315(3)
C5 C 0.7501(3) 0.1467(3) 0.5507(2)
C6 C 0.9006(3) 0.0046(3) 0.4018(3)
C7 C 0.8794(3) 0.0700(2) 0.5244(3)
C8 C 0.9817(3) 0.0635(3) 0.6225(2)
C9 C 0.8561(4) 0.5714(3) 0.8184(3)
C10 C 0.9999(3) 0.5702(3) 0.8704(3)
C11 C 1.0662(4) 0.6798(3) 0.9728(3)
C12 C 1.2030(4) 0.6752(4) 1.0243(3)
C13 C 1.2733(4) 0.5619(4) 0.9718(4)
C14 C 1.2088(4) 0.4533(4) 0.8695(3)
C15 C 1.0715(4) 0.4566(3) 0.8187(3)
C16 C 0.4356(3) 0.1673(3) 0.9150(3)
C17 C 0.4019(3) 0.1480(3) 1.0300(3)
C18 C 0.4974(4) 0.1938(3) 1.1436(3)
C19 C 0.4628(4) 0.1745(4) 1.2531(3)
C20 C 0.3347(4) 0.1124(4) 1.2498(3)
C21 C 0.2408(4) 0.0676(4) 1.1378(4)
C22 C 0.2725(4) 0.0848(3) 1.0268(3)
H1 H 1.019(3) 0.749(3) 1.007(3)
H2 H 1.250(3) 0.748(3) 1.097(3)
H3 H 1.355(4) 0.565(3) 1.005(3)
H4 H 1.259(3) 0.381(3) 0.836(3)
H5 H 1.029(3) 0.388(3) 0.757(3)
H6 H 0.574(4) 0.240(3) 1.146(3)
H7 H 0.524(3) 0.214(3) 1.333(3)
H8 H 0.303(3) 0.094(3) 1.321(3)
H9 H 0.158(4) 0.029(3) 1.133(3)
H10 H 0.212(3) 0.053(3) 0.952(3)
F1A F -0.2073(2) 0.3388(2) 0.3225(2)
F2A F -0.0386(2) 0.7584(2) 0.6415(2)
O1A O -0.3766(2) 0.5414(2) 0.4501(2)
O2A O -0.2610(2) 0.7250(2) 0.4317(2)
C1A C -0.2686(3) 0.6127(3) 0.4518(3)
C2A C -0.1071(3) 0.4197(3) 0.4121(3)
C3A C -0.1312(3) 0.5531(3) 0.4796(3)
C4A C -0.0211(3) 0.6306(3) 0.5685(3)
F3A F 1.1937(2) -0.0096(2) 0.6985(2)
F4A F 1.0346(2) -0.1217(2) 0.2549(1)
O3A O 1.2295(2) -0.2728(2) 0.4006(2)
O4A O 1.3639(2) -0.0763(2) 0.4799(2)
C5A C 1.2499(3) -0.1467(3) 0.4493(2)
C6A C 1.0994(3) -0.0046(3) 0.5982(3)
C7A C 1.1206(3) -0.0700(2) 0.4756(3)
C8A C 1.0183(3) -0.0635(3) 0.3775(2)
Ag1A Ag -0.59263(2) 0.59200(2) 0.39962(2)
Ag2A Ag -0.44812(2) 0.83853(2) 0.38963(2)
N1A N -0.7419(3) 0.4322(3) 0.2255(3)
N2A N -0.4614(3) 0.8169(3) 0.1764(2)
C9A C -0.8561(4) 0.4286(3) 0.1816(3)
C10A C -0.9999(3) 0.4298(3) 0.1296(3)
C11A C -1.0662(4) 0.3202(3) 0.0272(3)
C12A C -1.2030(4) 0.3248(4) -0.0243(3)
C13A C -1.2733(4) 0.4381(4) 0.0282(4)
C14A C -1.2088(4) 0.5467(4) 0.1305(3)
C15A C -1.0715(4) 0.5434(3) 0.1813(3)
C16A C -0.4356(3) 0.8327(3) 0.0850(3)
C17A C -0.4019(3) 0.8520(3) -0.0300(3)
C18A C -0.4974(4) 0.8062(3) -0.1436(3)
C19A C -0.4628(4) 0.8255(4) -0.2531(3)
C20A C -0.3347(4) 0.8876(4) -0.2498(3)
C21A C -0.2408(4) 0.9324(4) -0.1378(4)
C22A C -0.2725(4) 0.9152(3) -0.0268(3)
H1A H -1.019(3) 0.251(3) -0.007(3)
H2A H -1.250(3) 0.252(3) -0.097(3)
H3A H -1.355(4) 0.435(3) -0.005(3)
H4A H -1.259(3) 0.619(3) 0.164(3)
H5A H -1.029(3) 0.612(3) 0.243(3)
H6A H -0.574(4) 0.760(3) -0.146(3)
H7A H -0.524(3) 0.786(3) -0.333(3)
H8A H -0.303(3) 0.906(3) -0.321(3)
H9A H -0.158(4) 0.971(3) -0.133(3)
H10A H -0.212(3) 0.947(3) 0.048(3)
Ag1_2 Ag -0.40737(2) 0.40800(2) 0.60038(2)
Ag1A_2 Ag 0.40737(2) 0.59200(2) 0.39962(2)
Ag1A_3 Ag 1.40737(2) -0.40800(2) 0.39962(2)
Ag2_2 Ag 1.44812(2) 0.16147(2) 0.61037(2)
Ag2A_2 Ag 0.55188(2) -0.16147(2) 0.38963(2)
Ag2A_3 Ag 1.55188(2) -0.16147(2) 0.38963(2)
O1_2 O -0.6234(2) 0.4586(2) 0.5499(2)
O1A_2 O 0.6234(2) 0.5414(2) 0.4501(2)
O3A_2 O -0.7705(2) 0.7272(2) 0.4006(2)
O4_2 O -0.3639(2) 1.0763(2) 0.5201(2)
O4A_2 O -0.6361(2) 0.9237(2) 0.4799(2)
O4A_3 O 0.3639(2) -0.0763(2) 0.4799(2)
loop_
_geom_bond_atom_site_label_1
_geom_bond_atom_site_label_2
_geom_bond_site_symmetry_1
_geom_bond_site_symmetry_2
Ag1 O1 1_555 1_555
Ag2 O2 1_555 1_555
F1 C2 1_555 1_555
F2 C4 1_555 1_555
F3 C6 1_555 1_555
F4 C8 1_555 1_555
O1 C1 1_555 1_555
O2 C1 1_555 1_555
O3 Ag1 1_555 1_555
O4 Ag2 1_555 1_555
N1 Ag1 1_555 1_555
N2 Ag2 1_555 1_555
C1 C3 1_555 1_555
C2 C3 1_555 1_555
C3 C4 1_555 1_555
C4 C2A 1_555 1_555
C5 O3 1_555 1_555
C6 C7 1_555 1_555
C7 C5 1_555 1_555
C8 C7 1_555 1_555
C9 N1 1_555 1_555
C10 C9 1_555 1_555
C11 C10 1_555 1_555
C12 C11 1_555 1_555
C13 C12 1_555 1_555
C14 C13 1_555 1_555
C15 C10 1_555 1_555
C16 N2 1_555 1_555
C17 C16 1_555 1_555
C18 C17 1_555 1_555
C19 C18 1_555 1_555
C20 C19 1_555 1_555
C21 C20 1_555 1_555
C22 C17 1_555 1_555
H1 C11 1_555 1_555
H2 C12 1_555 1_555
H3 C13 1_555 1_555
H4 C14 1_555 1_555
H5 C15 1_555 1_555
H6 C18 1_555 1_555
H7 C19 1_555 1_555
H8 C20 1_555 1_555
H9 C21 1_555 1_555
H10 C22 1_555 1_555
F1A C2A 1_555 1_555
F2A C4A 1_555 1_555
O1A C1A 1_555 1_555
O2A C1A 1_555 1_555
C1A C3A 1_555 1_555
C2A C3A 1_555 1_555
C3A C4A 1_555 1_555
C4A C2 1_555 1_555
F3A C6A 1_555 1_555
F4A C8A 1_555 1_555
O3A C5A 1_555 1_555
O4A C5A 1_555 1_555
C5A C7A 1_555 1_555
C6A C8 1_555 1_555
C7A C6A 1_555 1_555
C8A C6 1_555 1_555
Ag1A O1A 1_555 1_555
Ag2A O2A 1_555 1_555
N1A Ag1A 1_555 1_555
N2A Ag2A 1_555 1_555
C9A N1A 1_555 1_555
C10A C9A 1_555 1_555
C11A C10A 1_555 1_555
C12A C11A 1_555 1_555
C13A C12A 1_555 1_555
C14A C13A 1_555 1_555
C15A C10A 1_555 1_555
C16A N2A 1_555 1_555
C17A C16A 1_555 1_555
C18A C17A 1_555 1_555
C19A C18A 1_555 1_555
C20A C19A 1_555 1_555
C21A C20A 1_555 1_555
C22A C17A 1_555 1_555
H1A C11A 1_555 1_555
H2A C12A 1_555 1_555
H3A C13A 1_555 1_555
H4A C14A 1_555 1_555
H5A C15A 1_555 1_555
H6A C18A 1_555 1_555
H7A C19A 1_555 1_555
H8A C20A 1_555 1_555
H9A C21A 1_555 1_555
H10A C22A 1_555 1_555
Ag1_2 O1A 1_555 1_555
Ag1A_2 O1 1_555 1_555
Ag1A_3 O3A 1_555 1_555
Ag2_2 O4A 1_555 1_555
Ag2A_2 O4 1_555 1_555
Ag2A_3 O4A 1_555 1_555
O1_2 Ag1A 1_555 1_555
O1A_2 Ag1 1_555 1_555
O3A_2 Ag1A 1_555 1_555
O4_2 Ag2A 1_555 1_555
O4A_2 Ag2A 1_555 1_555
O4A_3 Ag2 1_555 1_555
O4 C5 1_555 1_555
C14 C15 1_555 1_555
C21 C22 1_555 1_555
C7A C8A 1_555 1_555
C14A C15A 1_555 1_555
C21A C22A 1_555 1_555
Ag1_2 O1_2 1_555 1_555
Ag1A_2 O1A_2 1_555 1_555
Ag2A_2 O4A_3 1_555 1_555

#END
