
#######################################################################
#
#                 Cambridge Crystallographic Data Centre
#                                CCDC 
#
#######################################################################
#
# If this CIF has been generated from an entry in the Cambridge 
# Structural Database, then it will include bibliographic, chemical, 
# crystal, experimental, refinement or atomic coordinate data resulting 
# from the CCDC's data processing and validation procedures.
#
#######################################################################

data_MIMJOJ
_symmetry_cell_setting           triclinic
_symmetry_space_group_name_H-M   'P -1'
_symmetry_Int_Tables_number      2
_space_group_name_Hall           '-P 1'
loop_
_symmetry_equiv_pos_site_id
_symmetry_equiv_pos_as_xyz
1 x,y,z
2 -x,-y,-z
_cell_length_a                   10.998(10)
_cell_length_b                   12.019(10)
_cell_length_c                   12.485(11)
_cell_angle_alpha                75.774(14)
_cell_angle_beta                 85.828(16)
_cell_angle_gamma                66.542(13)
_cell_volume                     1466.92
loop_
_atom_site_label
_atom_site_type_symbol
_atom_site_fract_x
_atom_site_fract_y
_atom_site_fract_z
C1 C 0.7253(6) 1.0756(5) 0.5038(5)
H1 H 0.6537 1.0897 0.5505
C2 C 0.7732(6) 1.1695(5) 0.4659(5)
H2 H 0.7345 1.2440 0.4885
C3 C 0.8762(7) 1.1520(5) 0.3963(5)
H3 H 0.9076 1.2149 0.3709
C4 C 0.9356(6) 1.0402(5) 0.3626(5)
C5 C 0.8826(5) 0.9487(4) 0.4051(4)
C6 C 0.9411(5) 0.8313(5) 0.3770(4)
C7 C 1.0516(6) 0.8046(5) 0.3102(4)
C8 C 1.1013(6) 0.8984(6) 0.2668(5)
H4 H 1.1737 0.8820 0.2209
C9 C 1.0454(7) 1.0107(6) 0.2911(5)
H5 H 1.0791 1.0710 0.2606
C10 C 1.1076(6) 0.6836(6) 0.2902(5)
H6 H 1.1816 0.6620 0.2464
C11 C 1.0550(6) 0.5995(5) 0.3339(5)
H7 H 1.0922 0.5193 0.3221
C12 C 0.9405(6) 0.6370(5) 0.3990(4)
H8 H 0.9014 0.5803 0.4269
C13 C 0.6063(5) 0.7349(4) 0.4271(4)
C14 C 0.5519(5) 0.6743(4) 0.3618(4)
C15 C 0.5843(5) 0.5479(5) 0.3967(4)
H9 H 0.6341 0.5030 0.4617
C16 C 0.5427(6) 0.4874(5) 0.3351(4)
H10 H 0.5623 0.4025 0.3606
C17 C 0.4731(5) 0.5514(4) 0.2369(4)
C18 C 0.4373(5) 0.6793(4) 0.2040(4)
H11 H 0.3853 0.7247 0.1401
C19 C 0.4784(5) 0.7399(5) 0.2653(4)
H12 H 0.4563 0.8254 0.2414
C20 C 0.4409(5) 0.4805(5) 0.1659(4)
C21 C 0.5333(5) 0.3603(5) 0.1670(4)
H13 H 0.6112 0.3260 0.2096
C22 C 0.5063(5) 0.2925(5) 0.1026(4)
C23 C 0.3907(5) 0.3506(4) 0.0412(4)
H14 H 0.3679 0.3076 -0.0010
C24 C 0.3068(5) 0.4724(4) 0.0406(4)
C25 C 0.3324(4) 0.5365(4) 0.1049(3)
H15 H 0.2747 0.6177 0.1055
C26 C 0.1869(5) 0.5388(4) -0.0320(4)
C27 C 0.1869(5) 0.5135(5) -0.1368(4)
H16 H 0.2611 0.4529 -0.1587
C28 C 0.0778(5) 0.5783(4) -0.2057(4)
H17 H 0.0803 0.5632 -0.2755
C29 C -0.0355(5) 0.6649(4) -0.1747(4)
C30 C -0.0376(5) 0.6877(5) -0.0705(4)
H18 H -0.1141 0.7449 -0.0474
C31 C 0.0732(5) 0.6260(5) -0.0015(4)
H19 H 0.0711 0.6436 0.0673
C32 C -0.1555(5) 0.7391(4) -0.2520(4)
C33 C 0.6039(5) 0.1657(5) 0.1003(4)
C34 C 0.5627(7) 0.0696(6) 0.1058(5)
H20 H 0.4729 0.0848 0.1094
C35 C 0.6558(9) -0.0497(6) 0.1060(7)
H21 H 0.6279 -0.1145 0.1117
C36 C 0.7849(9) -0.0723(7) 0.0980(7)
H22 H 0.8462 -0.1529 0.0996
C37 C 0.8276(8) 0.0220(8) 0.0874(6)
H23 H 0.9172 0.0065 0.0786
C38 C 0.7363(6) 0.1416(6) 0.0900(5)
H24 H 0.7656 0.2055 0.0846
N1 N 0.7785(4) 0.9666(4) 0.4753(3)
N2 N 0.8871(4) 0.7474(4) 0.4218(3)
Ni1 Ni 0.72879(6) 0.81345(5) 0.52273(5)
O1 O -0.2547(4) 0.8155(4) -0.2175(3)
O2 O -0.1421(3) 0.7214(3) -0.3481(3)
O3 O 0.5880(3) 0.8490(3) 0.3930(3)
O4 O 0.6721(4) 0.6707(3) 0.5150(3)
O5 O 0.5734(4) 0.8905(3) 0.6211(3)
H25 H 0.598(4) 0.872(5) 0.6858(13)
H26 H 0.509(4) 0.957(3) 0.603(3)
Ni1_2 Ni -0.27121(6) 0.81345(5) -0.47727(5)
O2_2 O 0.8579(3) 0.7214(3) 0.6519(3)
loop_
_geom_bond_atom_site_label_1
_geom_bond_atom_site_label_2
_geom_bond_site_symmetry_1
_geom_bond_site_symmetry_2
C1 H1 1_555 1_555
C2 C1 1_555 1_555
H2 C2 1_555 1_555
C3 C2 1_555 1_555
H3 C3 1_555 1_555
C4 C3 1_555 1_555
C5 C4 1_555 1_555
C6 C5 1_555 1_555
C7 C6 1_555 1_555
C8 C7 1_555 1_555
H4 C8 1_555 1_555
C9 C4 1_555 1_555
H5 C9 1_555 1_555
C10 C7 1_555 1_555
H6 C10 1_555 1_555
C11 C10 1_555 1_555
H7 C11 1_555 1_555
C12 C11 1_555 1_555
H8 C12 1_555 1_555
C13 C14 1_555 1_555
C14 C15 1_555 1_555
C15 H9 1_555 1_555
C16 C15 1_555 1_555
H10 C16 1_555 1_555
C17 C16 1_555 1_555
C18 C17 1_555 1_555
H11 C18 1_555 1_555
C19 C14 1_555 1_555
H12 C19 1_555 1_555
C20 C17 1_555 1_555
C21 C20 1_555 1_555
H13 C21 1_555 1_555
C22 C21 1_555 1_555
C23 C22 1_555 1_555
H14 C23 1_555 1_555
C24 C23 1_555 1_555
C25 C20 1_555 1_555
H15 C25 1_555 1_555
C26 C24 1_555 1_555
C27 C26 1_555 1_555
H16 C27 1_555 1_555
C28 C27 1_555 1_555
H17 C28 1_555 1_555
C29 C28 1_555 1_555
C30 C29 1_555 1_555
H18 C30 1_555 1_555
C31 C26 1_555 1_555
H19 C31 1_555 1_555
C32 C29 1_555 1_555
C33 C22 1_555 1_555
C34 C33 1_555 1_555
H20 C34 1_555 1_555
C35 C34 1_555 1_555
H21 C35 1_555 1_555
C36 C35 1_555 1_555
H22 C36 1_555 1_555
C37 C36 1_555 1_555
H23 C37 1_555 1_555
C38 C33 1_555 1_555
H24 C38 1_555 1_555
N1 C1 1_555 1_555
N2 C6 1_555 1_555
Ni1 N1 1_555 1_555
O1 C32 1_555 1_555
O2 C32 1_555 1_555
O3 C13 1_555 1_555
O4 C13 1_555 1_555
O5 Ni1 1_555 1_555
H25 O5 1_555 1_555
H26 O5 1_555 1_555
Ni1_2 O2 1_555 1_555
O2_2 Ni1 1_555 1_555
C5 N1 1_555 1_555
C8 C9 1_555 1_555
C12 N2 1_555 1_555
C18 C19 1_555 1_555
C24 C25 1_555 1_555
C30 C31 1_555 1_555
C37 C38 1_555 1_555
N2 Ni1 1_555 1_555
Ni1 O3 1_555 1_555
Ni1 O4 1_555 1_555

#END
