
#######################################################################
#
#                 Cambridge Crystallographic Data Centre
#                                CCDC 
#
#######################################################################
#
# If this CIF has been generated from an entry in the Cambridge 
# Structural Database, then it will include bibliographic, chemical, 
# crystal, experimental, refinement or atomic coordinate data resulting 
# from the CCDC's data processing and validation procedures.
#
#######################################################################

data_MIMKIE
_symmetry_cell_setting           triclinic
_symmetry_space_group_name_H-M   'P -1'
_symmetry_Int_Tables_number      2
_space_group_name_Hall           '-P 1'
loop_
_symmetry_equiv_pos_site_id
_symmetry_equiv_pos_as_xyz
1 x,y,z
2 -x,-y,-z
_cell_length_a                   9.5387(19)
_cell_length_b                   10.425(2)
_cell_length_c                   11.590(2)
_cell_angle_alpha                75.02(3)
_cell_angle_beta                 84.80(3)
_cell_angle_gamma                80.99(3)
_cell_volume                     1098.1
loop_
_atom_site_label
_atom_site_type_symbol
_atom_site_fract_x
_atom_site_fract_y
_atom_site_fract_z
Ca1 Ca 0.5000 1.0000 0.5000
Ca2 Ca 0.45791(6) 0.41304(6) 0.36061(5)
Ca3 Ca 0.5000 0.5000 0.0000
O1 O 1.2920(2) 0.6030(2) 0.0750(2)
O2 O 0.2447(3) 0.4091(3) 0.5024(3)
O3 O 1.2423(2) 0.4842(3) 0.2600(2)
O4 O 0.9610(2) 0.5196(2) 0.21455(18)
O5 O 0.7165(2) 0.4387(2) 0.34042(18)
O6 O 0.5995(2) 0.5057(2) 0.17438(18)
O7 O 0.4730(2) 0.7788(2) 0.48232(18)
O8 O 0.4410(2) 0.6249(2) 0.3906(2)
O9 O 0.4454(2) 0.97230(19) 0.29813(17)
O10 O 0.4712(3) 1.2136(2) 0.29618(19)
O11 O 0.4384(2) 1.2897(2) 0.09922(19)
O12 O 0.2639(3) 1.0486(3) 0.5354(3)
N1 N 0.0563(5) 1.1636(5) 0.5398(8)
C1 C 1.2085(3) 0.5541(3) 0.1594(3)
C2 C 1.0557(3) 0.5839(3) 0.1328(3)
C3 C 0.9884(3) 0.6600(4) 0.0354(3)
H1 H 1.0293 0.7140 -0.0319
C4 C 0.8439(3) 0.6416(4) 0.0559(3)
H2 H 0.7710 0.6812 0.0046
C5 C 0.8319(3) 0.5557(3) 0.1638(3)
C6 C 0.7094(3) 0.4953(3) 0.2314(3)
C7 C 0.4476(3) 0.7425(3) 0.3917(3)
C8 C 0.4239(3) 0.8508(3) 0.2823(3)
C9 C 0.3854(4) 0.8669(3) 0.1703(3)
H3 H 0.3644 0.8004 0.1370
C10 C 0.3828(4) 1.0052(3) 0.1125(3)
H4 H 0.3593 1.0463 0.0341
C11 C 0.4208(3) 1.0656(3) 0.1924(3)
C12 C 0.4454(3) 1.2014(3) 0.1948(3)
C13 C 0.1537(6) 1.1112(6) 0.5631(9)
C14 C 0.1405(8) 1.1145(8) 0.7136(6)
H5 H 0.1946 1.1804 0.7245
H6 H 0.1769 1.0279 0.7615
H7 H 0.0426 1.1371 0.7376
C15 C 0.0740(7) 1.1713(6) 0.3879(5)
H8 H 0.1175 1.2486 0.3465
H9 H -0.0181 1.1776 0.3581
H10 H 0.1324 1.0918 0.3752
C16 C -0.0722(6) 1.2436(7) 0.5725(7)
H11 H -0.1202 1.1913 0.6407
H12 H -0.1335 1.2712 0.5067
H13 H -0.0481 1.3214 0.5919
H14 H 0.245(5) 0.462(5) 0.545(4)
H15 H 0.178(5) 0.448(4) 0.454(4)
Ca2A Ca 0.54209(6) 0.58696(6) -0.36061(5)
O1A O -0.2920(2) 0.3970(2) -0.0750(2)
O2A O 0.7553(3) 0.5909(3) -0.5024(3)
O3A O -0.2423(2) 0.5158(3) -0.2600(2)
O4A O 0.0390(2) 0.4804(2) -0.21455(18)
O5A O 0.2835(2) 0.5613(2) -0.34042(18)
O6A O 0.4005(2) 0.4943(2) -0.17438(18)
O7A O 0.5270(2) 0.2212(2) -0.48232(18)
O8A O 0.5590(2) 0.3751(2) -0.3906(2)
O9A O 0.5546(2) 0.02770(19) -0.29813(17)
O10A O 0.5288(3) -0.2136(2) -0.29618(19)
O11A O 0.5616(2) -0.2897(2) -0.09922(19)
C1A C -0.2085(3) 0.4459(3) -0.1594(3)
C2A C -0.0557(3) 0.4161(3) -0.1328(3)
C3A C 0.0116(3) 0.3400(4) -0.0354(3)
H1A H -0.0293 0.2860 0.0319
C4A C 0.1561(3) 0.3584(4) -0.0559(3)
H2A H 0.2290 0.3188 -0.0046
C5A C 0.1681(3) 0.4443(3) -0.1638(3)
C6A C 0.2906(3) 0.5047(3) -0.2314(3)
C7A C 0.5524(3) 0.2575(3) -0.3917(3)
C8A C 0.5761(3) 0.1492(3) -0.2823(3)
C9A C 0.6146(4) 0.1331(3) -0.1703(3)
H3A H 0.6356 0.1996 -0.1370
C10A C 0.6172(4) -0.0052(3) -0.1125(3)
H4A H 0.6407 -0.0463 -0.0341
C11A C 0.5792(3) -0.0656(3) -0.1924(3)
C12A C 0.5546(3) -0.2014(3) -0.1948(3)
H14A H 0.755(5) 0.538(5) -0.545(4)
H15A H 0.822(5) 0.552(4) -0.454(4)
O12A O 0.7361(3) 0.9514(3) 0.4646(3)
N1A N 0.9437(5) 0.8364(5) 0.4602(8)
C13A C 0.8463(6) 0.8888(6) 0.4369(9)
C14A C 0.8595(8) 0.8855(8) 0.2864(6)
H5A H 0.8054 0.8196 0.2755
H6A H 0.8231 0.9721 0.2385
H7A H 0.9574 0.8629 0.2624
C15A C 0.9260(7) 0.8287(6) 0.6121(5)
H8A H 0.8825 0.7514 0.6535
H9A H 1.0181 0.8224 0.6419
H10A H 0.8676 0.9082 0.6248
C16A C 1.0722(6) 0.7564(7) 0.4275(7)
H11A H 1.1202 0.8087 0.3593
H12A H 1.1335 0.7288 0.4933
H13A H 1.0481 0.6786 0.4081
Ca1_2 Ca 0.5000 0.0000 -0.5000
Ca2_2 Ca 0.45791(6) 0.41304(6) -0.63939(5)
Ca2_3 Ca 0.45791(6) 1.41304(6) 0.36061(5)
Ca2_4 Ca 1.45791(6) 0.41304(6) 0.36061(5)
Ca2A_2 Ca -0.45791(6) 0.58696(6) -0.36061(5)
Ca2A_3 Ca 0.54209(6) -0.41304(6) -0.36061(5)
Ca2A_4 Ca 0.54209(6) 0.58696(6) 0.63939(5)
Ca3_2 Ca -0.5000 0.5000 0.0000
Ca3_3 Ca 0.5000 -0.5000 0.0000
Ca3_4 Ca 0.5000 1.5000 0.0000
Ca3_5 Ca 1.5000 0.5000 0.0000
O1_2 O 0.2920(2) 0.6030(2) 0.0750(2)
O1A_2 O 0.7080(2) 0.3970(2) -0.0750(2)
O3_2 O 0.2423(2) 0.4842(3) 0.2600(2)
O3A_2 O 0.7577(2) 0.5158(3) -0.2600(2)
O7_2 O 0.4730(2) 0.7788(2) -0.51768(18)
O7A_2 O 0.5270(2) 0.2212(2) 0.51768(18)
O7A_3 O 0.5270(2) 1.2212(2) 0.51768(18)
O9A_2 O 0.5546(2) 1.02770(19) 0.70187(17)
O10_2 O 0.4712(3) 0.2136(2) 0.29618(19)
O10A_2 O 0.5288(3) 0.7864(2) -0.29618(19)
O10A_3 O 0.5288(3) 0.7864(2) 0.70382(19)
O11_2 O 0.4384(2) 0.2897(2) 0.09922(19)
O11A_2 O 0.5616(2) 0.7103(2) -0.09922(19)
loop_
_geom_bond_atom_site_label_1
_geom_bond_atom_site_label_2
_geom_bond_site_symmetry_1
_geom_bond_site_symmetry_2
Ca1 O7 1_555 1_555
Ca2 O2 1_555 1_555
Ca3 O6 1_555 1_555
O1 C1 1_555 1_555
O2 H14 1_555 1_555
O3 C1 1_555 1_555
O4 C2 1_555 1_555
O5 Ca2 1_555 1_555
O6 Ca2 1_555 1_555
O7 C7 1_555 1_555
O8 Ca2 1_555 1_555
O9 Ca1 1_555 1_555
O10 Ca1 1_555 1_555
O11 C12 1_555 1_555
O12 Ca1 1_555 1_555
N1 C13 1_555 1_555
C1 C2 1_555 1_555
C2 C3 1_555 1_555
C3 H1 1_555 1_555
C4 C3 1_555 1_555
H2 C4 1_555 1_555
C5 O4 1_555 1_555
C6 O5 1_555 1_555
C7 O8 1_555 1_555
C8 O9 1_555 1_555
C9 C8 1_555 1_555
H3 C9 1_555 1_555
C10 C9 1_555 1_555
H4 C10 1_555 1_555
C11 O9 1_555 1_555
C12 O10 1_555 1_555
C13 O12 1_555 1_555
C14 C13 1_555 1_555
H5 C14 1_555 1_555
H6 C14 1_555 1_555
H7 C14 1_555 1_555
C15 N1 1_555 1_555
H8 C15 1_555 1_555
H9 C15 1_555 1_555
H10 C15 1_555 1_555
C16 N1 1_555 1_555
H11 C16 1_555 1_555
H12 C16 1_555 1_555
H13 C16 1_555 1_555
H15 O2 1_555 1_555
Ca2A O2A 1_555 1_555
O1A C1A 1_555 1_555
O2A H14A 1_555 1_555
O3A C1A 1_555 1_555
O4A C2A 1_555 1_555
O5A Ca2A 1_555 1_555
O6A Ca3 1_555 1_555
O7A C7A 1_555 1_555
O8A Ca2A 1_555 1_555
O9A C8A 1_555 1_555
O10A C12A 1_555 1_555
O11A C12A 1_555 1_555
C1A C2A 1_555 1_555
C2A C3A 1_555 1_555
C3A H1A 1_555 1_555
C4A C3A 1_555 1_555
H2A C4A 1_555 1_555
C5A O4A 1_555 1_555
C6A O5A 1_555 1_555
C7A O8A 1_555 1_555
C8A C7A 1_555 1_555
C9A C8A 1_555 1_555
H3A C9A 1_555 1_555
C10A C9A 1_555 1_555
H4A C10A 1_555 1_555
C11A O9A 1_555 1_555
C12A C11A 1_555 1_555
H15A O2A 1_555 1_555
O12A Ca1 1_555 1_555
N1A C13A 1_555 1_555
C13A O12A 1_555 1_555
C14A C13A 1_555 1_555
H5A C14A 1_555 1_555
H6A C14A 1_555 1_555
H7A C14A 1_555 1_555
C15A N1A 1_555 1_555
H8A C15A 1_555 1_555
H9A C15A 1_555 1_555
H10A C15A 1_555 1_555
C16A N1A 1_555 1_555
H11A C16A 1_555 1_555
H12A C16A 1_555 1_555
H13A C16A 1_555 1_555
Ca1_2 O7A 1_555 1_555
Ca2_2 O7A 1_555 1_555
Ca2_3 O10 1_555 1_555
Ca2_4 O3 1_555 1_555
Ca2A_2 O3A 1_555 1_555
Ca2A_3 O10A 1_555 1_555
Ca2A_4 O7 1_555 1_555
Ca3_2 O1A 1_555 1_555
Ca3_3 O11A 1_555 1_555
Ca3_4 O11 1_555 1_555
Ca3_5 O1 1_555 1_555
O1_2 Ca3 1_555 1_555
O1A_2 Ca3 1_555 1_555
O3_2 Ca2 1_555 1_555
O3A_2 Ca2A 1_555 1_555
O7_2 Ca2A 1_555 1_555
O7A_2 Ca2 1_555 1_555
O7A_3 Ca1 1_555 1_555
O9A_2 Ca1 1_555 1_555
O10_2 Ca2 1_555 1_555
O10A_2 Ca2A 1_555 1_555
O10A_3 Ca1 1_555 1_555
O11_2 Ca3 1_555 1_555
O11A_2 Ca3 1_555 1_555
O6 C6 1_555 1_555
C4 C5 1_555 1_555
C5 C6 1_555 1_555
C7 C8 1_555 1_555
C10 C11 1_555 1_555
C11 C12 1_555 1_555
Ca2A O6A 1_555 1_555
O6A C6A 1_555 1_555
O9A Ca1_2 1_555 1_555
O10A Ca1_2 1_555 1_555
C4A C5A 1_555 1_555
C5A C6A 1_555 1_555
C10A C11A 1_555 1_555
Ca2_3 O7A_3 1_555 1_555
Ca2A_4 O10A_3 1_555 1_555

#END
