
#######################################################################
#
#                 Cambridge Crystallographic Data Centre
#                                CCDC 
#
#######################################################################
#
# If this CIF has been generated from an entry in the Cambridge 
# Structural Database, then it will include bibliographic, chemical, 
# crystal, experimental, refinement or atomic coordinate data resulting 
# from the CCDC's data processing and validation procedures.
#
#######################################################################

data_MIMNUR
_symmetry_cell_setting           orthorhombic
_symmetry_space_group_name_H-M   'P 21 21 21'
_symmetry_Int_Tables_number      19
_space_group_name_Hall           'P 2ac 2ab'
loop_
_symmetry_equiv_pos_site_id
_symmetry_equiv_pos_as_xyz
1 x,y,z
2 1/2-x,-y,1/2+z
3 -x,1/2+y,1/2-z
4 1/2+x,1/2-y,-z
_cell_length_a                   11.558(2)
_cell_length_b                   12.415(3)
_cell_length_c                   18.681(4)
_cell_angle_alpha                90
_cell_angle_beta                 90
_cell_angle_gamma                90
_cell_volume                     2680.58
loop_
_atom_site_label
_atom_site_type_symbol
_atom_site_fract_x
_atom_site_fract_y
_atom_site_fract_z
Ga1 Ga -0.21041(4) -0.50857(4) -0.09202(3)
Co1 Co -0.37134(7) -0.59849(5) -0.15166(3)
Co2 Co -0.36165(6) -0.39410(5) -0.13600(3)
Co3 Co -0.12334(6) -0.53065(5) 0.02684(3)
Co4 Co -0.00548(6) -0.53860(6) -0.09007(4)
O1 O -0.5086(3) -0.5094(3) -0.0368(2)
C1 C -0.4437(4) -0.5039(4) -0.0862(3)
C2 C -0.5107(7) -0.6396(5) -0.1818(4)
O2 O -0.6012(5) -0.6698(5) -0.1979(4)
C3 C -0.3247(4) -0.7083(4) -0.1011(3)
O3 O -0.2999(4) -0.7846(3) -0.0700(2)
C4 C -0.2974(6) -0.5981(5) -0.2366(3)
O4 O -0.2552(5) -0.5987(5) -0.2919(2)
C5 C -0.2637(6) -0.3630(5) -0.2080(3)
O5 O -0.2027(5) -0.3444(4) -0.2544(3)
C6 C -0.3414(5) -0.3039(4) -0.0633(3)
O6 O -0.3365(4) -0.2414(4) -0.0189(2)
C7 C -0.4946(6) -0.3473(4) -0.1751(3)
O7 O -0.5800(4) -0.3165(4) -0.1969(2)
C8 C -0.2614(5) -0.5795(5) 0.0489(3)
O8 O -0.3484(4) -0.6117(4) 0.0687(2)
C9 C -0.1159(5) -0.3869(5) 0.0349(3)
O9 O -0.1078(4) -0.2949(4) 0.0417(3)
C10 C -0.0431(5) -0.5593(5) 0.1065(3)
O10 O 0.0021(5) -0.5783(5) 0.1587(3)
C11 C -0.0555(4) -0.6456(5) -0.0235(3)
O11 O -0.0476(3) -0.7412(3) -0.0178(2)
C12 C -0.0193(5) -0.6166(5) -0.1684(3)
O12 O -0.0236(5) -0.6670(4) -0.2198(3)
C13 C 0.1427(6) -0.5557(6) -0.0663(3)
O13 O 0.2397(4) -0.5685(6) -0.0546(4)
C14 C 0.0031(5) -0.3989(5) -0.1131(3)
O14 O 0.0120(5) -0.3104(4) -0.1293(3)
C15 C -0.6584(12) -0.4417(7) 0.1090(5)
H1 H -0.6001 -0.3841 0.1025
H2 H -0.7106 -0.4410 0.0670
Li1 Li -0.5308(16) -0.6105(10) 0.0416(8)
O15 O -0.6035(4) -0.5407(3) 0.1136(2)
C16 C -0.7212(9) -0.4227(8) 0.1702(5)
H3 H -0.8041 -0.4135 0.1582
H4 H -0.6936 -0.3559 0.1937
C17 C -0.7065(7) -0.5137(8) 0.2181(4)
H5 H -0.7774 -0.5584 0.2197
H6 H -0.6876 -0.4894 0.2672
C18 C -0.6083(8) -0.5746(6) 0.1860(4)
H7 H -0.5350 -0.5576 0.2111
H8 H -0.6221 -0.6532 0.1891
Li1C Li -0.0308(16) -0.8895(10) -0.0416(8)
O11C O -0.5476(3) -0.7588(3) 0.0178(2)
loop_
_geom_bond_atom_site_label_1
_geom_bond_atom_site_label_2
_geom_bond_site_symmetry_1
_geom_bond_site_symmetry_2
Ga1 Co1 1_555 1_555
Co1 Co2 1_555 1_555
Co2 Ga1 1_555 1_555
Co3 Ga1 1_555 1_555
Co4 Ga1 1_555 1_555
O1 C1 1_555 1_555
C1 Co1 1_555 1_555
C2 Co1 1_555 1_555
O2 C2 1_555 1_555
C3 Co1 1_555 1_555
O3 C3 1_555 1_555
C4 Co1 1_555 1_555
O4 C4 1_555 1_555
C5 Co2 1_555 1_555
O5 C5 1_555 1_555
C6 Co2 1_555 1_555
O6 C6 1_555 1_555
C7 Co2 1_555 1_555
O7 C7 1_555 1_555
C8 Co3 1_555 1_555
O8 C8 1_555 1_555
C9 Co3 1_555 1_555
O9 C9 1_555 1_555
C10 Co3 1_555 1_555
O10 C10 1_555 1_555
C11 Co3 1_555 1_555
O11 C11 1_555 1_555
C12 Co4 1_555 1_555
O12 C12 1_555 1_555
C13 Co4 1_555 1_555
O13 C13 1_555 1_555
C14 Co4 1_555 1_555
O14 C14 1_555 1_555
C15 H1 1_555 1_555
H2 C15 1_555 1_555
Li1 O1 1_555 1_555
O15 C15 1_555 1_555
C16 C15 1_555 1_555
H3 C16 1_555 1_555
H4 C16 1_555 1_555
C17 C16 1_555 1_555
H5 C17 1_555 1_555
H6 C17 1_555 1_555
C18 O15 1_555 1_555
H7 C18 1_555 1_555
H8 C18 1_555 1_555
Li1C O11 1_555 1_555
O11C Li1 1_555 1_555
Co2 C1 1_555 1_555
Co3 Co4 1_555 1_555
Co4 C11 1_555 1_555
O8 Li1 1_555 1_555
Li1 O15 1_555 1_555
C17 C18 1_555 1_555

#END
