
#######################################################################
#
#                 Cambridge Crystallographic Data Centre
#                                CCDC 
#
#######################################################################
#
# If this CIF has been generated from an entry in the Cambridge 
# Structural Database, then it will include bibliographic, chemical, 
# crystal, experimental, refinement or atomic coordinate data resulting 
# from the CCDC's data processing and validation procedures.
#
#######################################################################

data_MIMPII
_symmetry_cell_setting           trigonal
_symmetry_space_group_name_H-M   'P 31 2 1'
_symmetry_Int_Tables_number      152
_space_group_name_Hall           'P 31 2"'
loop_
_symmetry_equiv_pos_site_id
_symmetry_equiv_pos_as_xyz
1 x,y,z
2 -y,x-y,1/3+z
3 -x+y,-x,2/3+z
4 y,x,-z
5 x-y,-y,2/3-z
6 -x,-x+y,1/3-z
_cell_length_a                   9.61650(10)
_cell_length_b                   9.61650(10)
_cell_length_c                   25.2979(4)
_cell_angle_alpha                90
_cell_angle_beta                 90
_cell_angle_gamma                120
_cell_volume                     2026.05
loop_
_atom_site_label
_atom_site_type_symbol
_atom_site_fract_x
_atom_site_fract_y
_atom_site_fract_z
C1 C 0.5356(3) -0.3128(3) 0.27232(8)
C2 C 0.4185(3) -0.1852(3) 0.30183(8)
C3 C 0.5035(3) -0.1035(3) 0.25856(9)
C4 C 0.9917(3) 0.3021(3) 0.08285(8)
C5 C 0.8066(3) 0.3025(3) 0.13478(8)
C6 C 0.8908(3) 0.4453(3) 0.11049(9)
C7 C 0.8207(3) 0.0510(3) 0.13367(8)
C8 C 0.8645(3) -0.0455(3) 0.10631(9)
C9 C 0.8119(4) -0.1976(3) 0.12621(11)
C10 C 0.6793(3) -0.1427(3) 0.19444(8)
C11 C 0.7174(3) -0.2492(3) 0.17163(9)
Cl1 Cl 0.24183(7) -0.35414(7) 0.42443(2)
Cl2 Cl 0.20166(8) -0.72413(8) 0.35933(2)
N1 N 0.5779(2) -0.1858(2) 0.23992(7)
N2 N 0.4397(2) -0.3161(2) 0.31024(7)
N3 N 1.0064(2) 0.4451(2) 0.07776(7)
N4 N 0.8700(2) 0.2098(2) 0.11724(7)
N5 N 0.7296(2) 0.0056(2) 0.17711(7)
Zn1 Zn 0.35855(3) -0.46069(3) 0.373940(9)
H1 H 0.5549 -0.3947 0.2675
H2 H 0.3575 -0.1600 0.3238
H3 H 0.5289 -0.0023 0.2411
H4 H 1.0517 0.2667 0.0681
H5 H 0.7190 0.2594 0.1588
H6 H 0.8781 0.5392 0.1116
H7 H 0.9120 -0.0114 0.0741
H8 H 0.8430 -0.2758 0.1121
H9 H 0.6771 -0.3455 0.1837
N3A N 0.5549(2) -0.4387(3) 0.41109(7)
Zn1B Zn 1.18076(4) 0.64145(3) 0.040607(9)
O1 O 0.1542(7) 0.1542(7) 0.0000
loop_
_geom_bond_atom_site_label_1
_geom_bond_atom_site_label_2
_geom_bond_site_symmetry_1
_geom_bond_site_symmetry_2
C1 N1 1_555 1_555
C2 C3 1_555 1_555
C3 N1 1_555 1_555
C4 N3 1_555 1_555
C5 C6 1_555 1_555
C6 N3 1_555 1_555
C7 C8 1_555 1_555
C8 C9 1_555 1_555
C9 C11 1_555 1_555
C10 C11 1_555 1_555
C11 H9 1_555 1_555
Cl1 Zn1 1_555 1_555
Cl2 Zn1 1_555 1_555
N1 C10 1_555 1_555
N2 C1 1_555 1_555
N3 Zn1B 1_555 1_555
N4 C4 1_555 1_555
N5 C7 1_555 1_555
Zn1 N2 1_555 1_555
H1 C1 1_555 1_555
H2 C2 1_555 1_555
H3 C3 1_555 1_555
H4 C4 1_555 1_555
H5 C5 1_555 1_555
H6 C6 1_555 1_555
H7 C8 1_555 1_555
H8 C9 1_555 1_555
N3A Zn1 1_555 1_555
C2 N2 1_555 1_555
C5 N4 1_555 1_555
C7 N4 1_555 1_555
C10 N5 1_555 1_555

#END
