
#######################################################################
#
#                 Cambridge Crystallographic Data Centre
#                                CCDC 
#
#######################################################################
#
# If this CIF has been generated from an entry in the Cambridge 
# Structural Database, then it will include bibliographic, chemical, 
# crystal, experimental, refinement or atomic coordinate data resulting 
# from the CCDC's data processing and validation procedures.
#
#######################################################################

data_MIMRAB01
_symmetry_cell_setting           monoclinic
_symmetry_space_group_name_H-M   'C c'
_symmetry_Int_Tables_number      9
_space_group_name_Hall           'C -2yc'
loop_
_symmetry_equiv_pos_site_id
_symmetry_equiv_pos_as_xyz
1 x,y,z
2 x,-y,1/2+z
3 1/2+x,1/2+y,z
4 1/2+x,1/2-y,1/2+z
_cell_length_a                   22.721(2)
_cell_length_b                   6.3598(4)
_cell_length_c                   7.2424(5)
_cell_angle_alpha                90
_cell_angle_beta                 91.473(2)
_cell_angle_gamma                90
_cell_volume                     1046.19
loop_
_atom_site_label
_atom_site_type_symbol
_atom_site_fract_x
_atom_site_fract_y
_atom_site_fract_z
Zn1 Zn 0.17613(12) 0.31637(6) 0.8890(4)
O1 O 0.1405(4) 0.3015(12) 1.1632(12)
O2 O 0.1001(3) 0.5767(13) 1.2993(10)
O3 O -0.2467(3) -0.0733(15) 0.9762(11)
O4 O -0.2887(4) 0.2004(13) 1.1130(12)
O5 O 0.1749(6) 0.0041(4) 0.8823(16)
C1 C -0.0131(5) 0.4302(16) 1.2161(14)
H1 H -0.0094(5) 0.5629(16) 1.2691(14)
C2 C 0.0380(5) 0.3178(16) 1.1756(16)
C3 C 0.0281(6) 0.1093(20) 1.0917(18)
H2 H 0.0607(6) 0.0289(20) 1.0618(18)
C4 C -0.0244(4) 0.0319(16) 1.0572(13)
H3 H -0.0274(4) -0.1017(16) 1.0056(13)
C5 C -0.1341(4) 0.0674(19) 1.0597(15)
H4 H -0.1392(4) -0.0645(19) 1.0062(15)
C6 C -0.1808(5) 0.1836(18) 1.1024(17)
C7 C -0.1781(5) 0.3814(19) 1.1842(16)
H5 H -0.2120(5) 0.4555(19) 1.2127(16)
C8 C -0.1210(5) 0.4646(19) 1.2221(15)
H6 H -0.1166(5) 0.5967(19) 1.2759(15)
C9 C -0.0716(5) 0.3470(18) 1.1782(15)
C10 C -0.0777(6) 0.1445(18) 1.0958(18)
C11 C 0.0952(5) 0.4022(20) 1.2108(14)
C12 C -0.2443(4) 0.0948(18) 1.0595(14)
O2A O 0.1001(3) 0.4233(13) 0.7993(10)
O3B O 0.2533(3) 0.4267(15) 0.9762(11)
O4C O 0.2113(4) 0.2996(13) 0.6130(12)
Zn1A Zn 0.17613(12) 0.68363(6) 1.3890(4)
Zn1B Zn -0.32387(12) -0.18363(6) 0.8890(4)
Zn1C Zn -0.32387(12) 0.18363(6) 1.3890(4)
loop_
_geom_bond_atom_site_label_1
_geom_bond_atom_site_label_2
_geom_bond_site_symmetry_1
_geom_bond_site_symmetry_2
Zn1 O1 1_555 1_555
O1 C11 1_555 1_555
O2 C11 1_555 1_555
O3 C12 1_555 1_555
O4 C12 1_555 1_555
O5 Zn1 1_555 1_555
C1 H1 1_555 1_555
C2 C1 1_555 1_555
C3 C2 1_555 1_555
H2 C3 1_555 1_555
C4 C3 1_555 1_555
H3 C4 1_555 1_555
C5 H4 1_555 1_555
C6 C5 1_555 1_555
C7 C6 1_555 1_555
H5 C7 1_555 1_555
C8 C7 1_555 1_555
H6 C8 1_555 1_555
C9 C1 1_555 1_555
C10 C4 1_555 1_555
C11 C2 1_555 1_555
C12 C6 1_555 1_555
O2A Zn1 1_555 1_555
O3B Zn1 1_555 1_555
O4C Zn1 1_555 1_555
Zn1A O2 1_555 1_555
Zn1B O3 1_555 1_555
Zn1C O4 1_555 1_555
C5 C10 1_555 1_555
C8 C9 1_555 1_555
C9 C10 1_555 1_555

#END
