
#######################################################################
#
#                 Cambridge Crystallographic Data Centre
#                                CCDC 
#
#######################################################################
#
# If this CIF has been generated from an entry in the Cambridge 
# Structural Database, then it will include bibliographic, chemical, 
# crystal, experimental, refinement or atomic coordinate data resulting 
# from the CCDC's data processing and validation procedures.
#
#######################################################################

data_MINKAX01
_symmetry_cell_setting           orthorhombic
_symmetry_space_group_name_H-M   'P 21 21 21'
_symmetry_Int_Tables_number      19
_space_group_name_Hall           'P 2ac 2ab'
loop_
_symmetry_equiv_pos_site_id
_symmetry_equiv_pos_as_xyz
1 x,y,z
2 1/2-x,-y,1/2+z
3 -x,1/2+y,1/2-z
4 1/2+x,1/2-y,-z
_cell_length_a                   6.9573(8)
_cell_length_b                   13.2547(16)
_cell_length_c                   14.9774(18)
_cell_angle_alpha                90
_cell_angle_beta                 90
_cell_angle_gamma                90
_cell_volume                     1381.17
loop_
_atom_site_label
_atom_site_type_symbol
_atom_site_fract_x
_atom_site_fract_y
_atom_site_fract_z
K1 K 0.79431(5) 0.69552(3) 0.41949(2)
C1 C 0.6710(2) 0.35825(13) 0.67327(11)
C2 C 0.6824(2) 0.25711(13) 0.63262(11)
C3 C 0.6910(2) 0.24709(12) 0.53880(11)
C4 C 0.6965(2) 0.33329(12) 0.48328(10)
C5 C 0.7050(3) 0.43448(12) 0.52342(10)
C6 C 0.6823(3) 0.17209(13) 0.68587(11)
H1 H 0.6774 0.1789 0.7490
C7 C 0.6893(3) 0.07553(13) 0.64733(12)
H2 H 0.6901 0.0176 0.6846
C8 C 0.6950(3) 0.06426(12) 0.55646(12)
H3 H 0.6980 -0.0015 0.5313
C9 C 0.6965(3) 0.14940(13) 0.49963(11)
C10 C 0.7031(2) 0.14174(12) 0.40499(11)
H4 H 0.7083 0.0771 0.3777
C11 C 0.7020(3) 0.22637(13) 0.35276(11)
H5 H 0.7023 0.2199 0.2896
C12 C 0.7004(3) 0.32303(12) 0.39169(11)
H6 H 0.7020 0.3813 0.3548
C13 C 0.6944(3) 0.54330(12) 0.65639(10)
H7 H 0.6404 0.5372 0.7180
C14 C 0.9037(3) 0.57456(13) 0.66712(13)
H8 H 0.9709 0.5250 0.7043
H9 H 0.9100 0.6410 0.6957
H10 H 0.9650 0.5778 0.6083
C15 C 0.5648(2) 0.61921(12) 0.60594(10)
N1 N 0.6833(2) 0.44142(10) 0.61591(9)
O1 O 0.6537(2) 0.37133(9) 0.75364(8)
O2 O 0.73085(19) 0.51072(9) 0.47957(8)
O3 O 0.63367(17) 0.70531(9) 0.59087(8)
O4 O 0.39767(17) 0.59248(9) 0.58824(8)
O5 O 0.4208(2) 0.65906(12) 0.38864(12)
H11 H 0.328(4) 0.707(2) 0.387(2)
H12 H 0.407(5) 0.624(2) 0.439(2)
K1A K 0.70569(5) 0.30448(3) 0.91949(2)
K1C K 0.29431(5) 0.80448(3) 0.58051(2)
O1A O 0.8463(2) 0.62867(9) 0.25364(8)
O3C O 1.13367(17) 0.79469(9) 0.40913(8)
O4C O 0.89767(17) 0.90752(9) 0.41176(8)
loop_
_geom_bond_atom_site_label_1
_geom_bond_atom_site_label_2
_geom_bond_site_symmetry_1
_geom_bond_site_symmetry_2
K1 O2 1_555 1_555
C1 C2 1_555 1_555
C2 C3 1_555 1_555
C3 C4 1_555 1_555
C4 C5 1_555 1_555
C5 N1 1_555 1_555
C6 C2 1_555 1_555
H1 C6 1_555 1_555
C7 C6 1_555 1_555
H2 C7 1_555 1_555
C8 C7 1_555 1_555
H3 C8 1_555 1_555
C9 C3 1_555 1_555
C10 C9 1_555 1_555
H4 C10 1_555 1_555
C11 C10 1_555 1_555
H5 C11 1_555 1_555
C12 C4 1_555 1_555
H6 C12 1_555 1_555
C13 H7 1_555 1_555
C14 C13 1_555 1_555
H8 C14 1_555 1_555
H9 C14 1_555 1_555
H10 C14 1_555 1_555
C15 C13 1_555 1_555
N1 C1 1_555 1_555
O1 C1 1_555 1_555
O2 C5 1_555 1_555
O3 K1 1_555 1_555
O4 C15 1_555 1_555
O5 K1 1_555 1_555
H11 O5 1_555 1_555
H12 O5 1_555 1_555
K1A O1 1_555 1_555
K1C O3 1_555 1_555
O1A K1 1_555 1_555
O3C K1 1_555 1_555
O4C K1 1_555 1_555
C8 C9 1_555 1_555
C11 C12 1_555 1_555
C13 N1 1_555 1_555
C15 O3 1_555 1_555
O4 K1C 1_555 1_555

#END
