
#######################################################################
#
#                 Cambridge Crystallographic Data Centre
#                                CCDC 
#
#######################################################################
#
# If this CIF has been generated from an entry in the Cambridge 
# Structural Database, then it will include bibliographic, chemical, 
# crystal, experimental, refinement or atomic coordinate data resulting 
# from the CCDC's data processing and validation procedures.
#
#######################################################################

data_MINLOM
_symmetry_cell_setting           monoclinic
_symmetry_space_group_name_H-M   'P 21'
_symmetry_Int_Tables_number      4
_space_group_name_Hall           'P 2yb'
loop_
_symmetry_equiv_pos_site_id
_symmetry_equiv_pos_as_xyz
1 x,y,z
2 -x,1/2+y,-z
_cell_length_a                   9.0674(6)
_cell_length_b                   6.5650(5)
_cell_length_c                   11.2571(8)
_cell_angle_alpha                90
_cell_angle_beta                 95.2910(10)
_cell_angle_gamma                90
_cell_volume                     667.252
loop_
_atom_site_label
_atom_site_type_symbol
_atom_site_fract_x
_atom_site_fract_y
_atom_site_fract_z
Cs1 Cs 0.622666(15) 0.51869(4) 0.096183(13)
O1 O -0.09967(17) 0.5158(5) 0.25590(15)
O2 O 0.3943(2) 0.6190(4) 0.26395(18)
O3 O 0.3097(2) 0.4626(4) -0.01419(17)
O4 O 0.2974(3) 0.2400(3) 0.13471(18)
N1 N 0.1509(2) 0.5383(4) 0.26065(15)
C1 C 0.0193(2) 0.5307(5) 0.31560(18)
C2 C 0.0316(3) 0.5364(5) 0.44727(19)
C3 C 0.1727(3) 0.5498(4) 0.5116(2)
C4 C 0.3015(3) 0.5703(3) 0.4519(2)
C5 C 0.2897(3) 0.5783(4) 0.3200(2)
C6 C -0.0949(3) 0.5296(7) 0.5064(2)
H1 H -0.1894 0.5207 0.4626
C7 C -0.0835(4) 0.5360(6) 0.6327(2)
H2 H -0.1706 0.5356 0.6735
C8 C 0.0531(4) 0.5428(5) 0.6963(2)
H3 H 0.0592 0.5435 0.7810
C9 C 0.1853(4) 0.5488(4) 0.6381(2)
C10 C 0.3269(4) 0.5635(4) 0.7009(2)
H4 H 0.3363 0.5568 0.7855
C11 C 0.4507(4) 0.5873(4) 0.6416(3)
H5 H 0.5451 0.6009 0.6851
C12 C 0.4384(3) 0.5916(4) 0.5154(3)
H6 H 0.5244 0.6092 0.4743
C13 C 0.1383(2) 0.5298(6) 0.12888(17)
H7 H 0.0434 0.4569 0.1048
C14 C 0.1197(5) 0.7429(5) 0.0772(3)
H8 H 0.0269 0.8019 0.0995
H9 H 0.1171 0.7361 -0.0100
H10 H 0.2030 0.8282 0.1086
C15 C 0.2615(3) 0.4005(4) 0.0810(2)
Cs1_2 Cs -0.377334(15) 0.51869(4) 0.096183(13)
Cs1A Cs 0.377334(15) 0.01869(4) -0.096183(13)
O1_2 O 0.90033(17) 0.5158(5) 0.25590(15)
O3A O 0.6903(2) 0.9626(4) 0.01419(17)
O4A O 0.7026(3) 0.7400(3) -0.13471(18)
loop_
_geom_bond_atom_site_label_1
_geom_bond_atom_site_label_2
_geom_bond_site_symmetry_1
_geom_bond_site_symmetry_2
Cs1 O2 1_555 1_555
O1 C1 1_555 1_555
O2 C5 1_555 1_555
O3 Cs1 1_555 1_555
O4 Cs1 1_555 1_555
N1 C1 1_555 1_555
C1 C2 1_555 1_555
C2 C3 1_555 1_555
C3 C4 1_555 1_555
C4 C5 1_555 1_555
C5 N1 1_555 1_555
C6 C2 1_555 1_555
H1 C6 1_555 1_555
C7 C6 1_555 1_555
H2 C7 1_555 1_555
C8 C7 1_555 1_555
H3 C8 1_555 1_555
C9 C3 1_555 1_555
C10 C9 1_555 1_555
H4 C10 1_555 1_555
C11 C10 1_555 1_555
H5 C11 1_555 1_555
C12 C4 1_555 1_555
H6 C12 1_555 1_555
C13 N1 1_555 1_555
H7 C13 1_555 1_555
C14 C13 1_555 1_555
H8 C14 1_555 1_555
H9 C14 1_555 1_555
H10 C14 1_555 1_555
C15 O3 1_555 1_555
Cs1_2 O1 1_555 1_555
Cs1A O3 1_555 1_555
O1_2 Cs1 1_555 1_555
O3A Cs1 1_555 1_555
O4A Cs1 1_555 1_555
O4 C15 1_555 1_555
O4 Cs1A 1_555 1_555
C8 C9 1_555 1_555
C11 C12 1_555 1_555
C13 C15 1_555 1_555

#END
