
#######################################################################
#
#                 Cambridge Crystallographic Data Centre
#                                CCDC 
#
#######################################################################
#
# If this CIF has been generated from an entry in the Cambridge 
# Structural Database, then it will include bibliographic, chemical, 
# crystal, experimental, refinement or atomic coordinate data resulting 
# from the CCDC's data processing and validation procedures.
#
#######################################################################

data_MINQAC
_symmetry_cell_setting           monoclinic
_symmetry_space_group_name_H-M   'P 21'
_symmetry_Int_Tables_number      4
_space_group_name_Hall           'P 2yb'
loop_
_symmetry_equiv_pos_site_id
_symmetry_equiv_pos_as_xyz
1 x,y,z
2 -x,1/2+y,-z
_cell_length_a                   3.5152(3)
_cell_length_b                   12.3308(9)
_cell_length_c                   7.3381(5)
_cell_angle_alpha                90
_cell_angle_beta                 92.068(7)
_cell_angle_gamma                90
_cell_volume                     317.864
loop_
_atom_site_label
_atom_site_type_symbol
_atom_site_fract_x
_atom_site_fract_y
_atom_site_fract_z
O1 O -0.4612(9) 0.3822(2) -1.5665(4)
O2 O -0.5190(9) 0.2080(2) -1.5849(4)
O3 O -1.0092(8) 0.5695(2) -1.6448(4)
H1 H -0.9895 0.5446 -1.7387
N1 N -0.8530(9) 0.3693(3) -1.0621(4)
N2 N -0.8449(11) 0.4683(3) -0.9846(4)
N3 N -0.7112(11) 0.5347(3) -1.1035(5)
N4 N -0.6275(10) 0.4821(3) -1.2600(5)
N5 N -0.6985(9) 0.2848(3) -1.3335(4)
N6 N -0.5564(9) 0.2944(3) -1.4975(4)
C1 C -0.7196(11) 0.3782(3) -1.2324(5)
C2 C -0.9859(12) 0.2734(3) -0.9675(5)
H2 H -1.1225 0.2957 -0.8595
H3 H -0.7674 0.2283 -0.9298
H4 H -1.1572 0.2318 -1.0493
Li1 Li -0.499(2) 0.5472(6) -1.5039(10)
H5 H -1.076(13) 0.6383(15) -1.673(6)
O2A O -0.4810(9) 0.7080(2) -1.4151(4)
O3_2 O -0.0092(8) 0.5695(2) -1.6448(4)
H1_2 H 0.0105 0.5446 -1.7387
Li1A Li -0.501(2) 0.0472(6) -1.4961(10)
Li1_2 Li -1.499(2) 0.5472(6) -1.5039(10)
H5_2 H -0.076(13) 0.6383(15) -1.673(6)
loop_
_geom_bond_atom_site_label_1
_geom_bond_atom_site_label_2
_geom_bond_site_symmetry_1
_geom_bond_site_symmetry_2
O1 N6 1_555 1_555
O2 N6 1_555 1_555
O3 H1 1_555 1_555
N1 N2 1_555 1_555
N2 N3 1_555 1_555
N3 N4 1_555 1_555
N4 C1 1_555 1_555
N5 N6 1_555 1_555
C1 N1 1_555 1_555
C2 N1 1_555 1_555
H2 C2 1_555 1_555
H3 C2 1_555 1_555
H4 C2 1_555 1_555
Li1 O1 1_555 1_555
H5 O3 1_555 1_555
O2A Li1 1_555 1_555
O3_2 Li1 1_555 1_555
H1_2 O3_2 1_555 1_555
Li1A O2 1_555 1_555
Li1_2 O3 1_555 1_555
H5_2 O3_2 1_555 1_555
O3 Li1 1_555 1_555
N4 Li1 1_555 1_555
N5 C1 1_555 1_555

#END
