
#######################################################################
#
#                 Cambridge Crystallographic Data Centre
#                                CCDC 
#
#######################################################################
#
# If this CIF has been generated from an entry in the Cambridge 
# Structural Database, then it will include bibliographic, chemical, 
# crystal, experimental, refinement or atomic coordinate data resulting 
# from the CCDC's data processing and validation procedures.
#
#######################################################################

data_MINSIL
_symmetry_cell_setting           monoclinic
_symmetry_space_group_name_H-M   'C c'
_symmetry_Int_Tables_number      9
_space_group_name_Hall           'C -2yc'
loop_
_symmetry_equiv_pos_site_id
_symmetry_equiv_pos_as_xyz
1 x,y,z
2 x,-y,1/2+z
3 1/2+x,1/2+y,z
4 1/2+x,1/2-y,1/2+z
_cell_length_a                   15.949(3)
_cell_length_b                   8.2517(15)
_cell_length_c                   15.587(3)
_cell_angle_alpha                90
_cell_angle_beta                 113.713(2)
_cell_angle_gamma                90
_cell_volume                     1878.16
loop_
_atom_site_label
_atom_site_type_symbol
_atom_site_fract_x
_atom_site_fract_y
_atom_site_fract_z
Eu1 Eu 0.52155(10) 0.26009(2) -0.00225(9)
N1 N 0.2909(5) 0.6242(12) 0.1462(4)
N2 N 0.3797(5) 0.3710(9) 0.0145(4)
N3 N 0.0851(7) 0.2737(8) -0.0784(7)
N4 N 0.7410(5) 0.9118(8) 0.3115(4)
N5 N 0.5932(5) 0.5014(10) 0.0931(4)
N6 N 0.8764(6) 0.6631(13) 0.2232(6)
N7 N 0.8944(6) 0.3580(13) 0.0556(6)
N8 N 0.6500(5) 0.3429(9) -0.0459(4)
N9 N 0.7363(7) 0.7010(10) -0.2012(5)
O1 O 0.1400(3) 0.5936(5) 0.0799(3)
O2 O 0.5968(4) 0.8227(6) 0.2368(3)
O3 O 0.9287(3) 0.5409(6) -0.0329(4)
O4 O 0.4643(4) 0.4879(7) -0.1139(3)
O5 O 0.4976(4) 0.1437(7) -0.1528(3)
O6 O 0.5239(5) 0.2114(11) 0.1600(5)
C1 C 0.2164(4) 0.5526(7) 0.0840(4)
C2 C 0.2268(5) 0.4329(8) 0.0233(5)
C3 C 0.3098(5) 0.3985(9) 0.0189(4)
C4 C 0.1472(5) 0.3422(10) -0.0347(5)
C5 C 0.6784(6) 0.8158(10) 0.2507(5)
C6 C 0.7114(5) 0.6957(8) 0.2029(4)
C7 C 0.6462(5) 0.5899(7) 0.1417(4)
C8 C 0.8031(6) 0.6775(9) 0.2168(5)
C9 C 0.8689(5) 0.4623(7) -0.0149(4)
C10 C 0.7755(5) 0.4920(7) -0.0720(5)
C11 C 0.7056(5) 0.4086(9) -0.0576(4)
C12 C 0.7523(5) 0.6104(10) -0.1449(5)
H1 H 0.346(3) 0.578(9) 0.168(4)
H2 H 0.282(4) 0.686(8) 0.188(3)
H3 H 0.716(4) 0.994(5) 0.329(5)
H4 H 0.793(4) 0.936(9) 0.307(8)
H5 H 0.93(3) 0.34(4) 0.115(8)
H6 H 0.89(2) 0.28(2) 0.017(16)
H7 H 0.513(3) 0.542(8) -0.112(5)
H8 H 0.418(5) 0.494(17) -0.170(4)
H9 H 0.550(3) 0.162(11) -0.160(6)
H10 H 0.450(4) 0.19(2) -0.197(8)
H11 H 0.550(5) 0.115(4) 0.179(5)
H12 H 0.486(19) 0.24(2) 0.187(19)
O1B O 0.6400(3) 0.0936(5) 0.0799(3)
O3B O 0.4287(3) 0.0409(6) -0.0329(4)
Eu1B Eu 0.02155(10) 0.76009(2) -0.00225(9)
Eu1B_2 Eu 1.02155(10) 0.76009(2) -0.00225(9)
O7 O 0.9881(4) 0.9543(6) 0.7239(3)
H13 H 0.962(8) 1.028(14) 0.680(7)
H14 H 1.036(4) 0.907(9) 0.718(5)
loop_
_geom_bond_atom_site_label_1
_geom_bond_atom_site_label_2
_geom_bond_site_symmetry_1
_geom_bond_site_symmetry_2
Eu1 N2 1_555 1_555
N1 C1 1_555 1_555
N2 C3 1_555 1_555
N3 C4 1_555 1_555
N4 C5 1_555 1_555
N5 Eu1 1_555 1_555
N6 C8 1_555 1_555
N7 C9 1_555 1_555
N8 Eu1 1_555 1_555
N9 C12 1_555 1_555
O1 C1 1_555 1_555
O2 C5 1_555 1_555
O3 C9 1_555 1_555
O4 Eu1 1_555 1_555
O5 Eu1 1_555 1_555
O6 Eu1 1_555 1_555
O7 H13 1_555 1_555
C1 C2 1_555 1_555
C2 C3 1_555 1_555
C4 C2 1_555 1_555
C5 C6 1_555 1_555
C6 C7 1_555 1_555
C7 N5 1_555 1_555
C8 C6 1_555 1_555
C9 C10 1_555 1_555
C10 C11 1_555 1_555
C11 N8 1_555 1_555
C12 C10 1_555 1_555
H1 N1 1_555 1_555
H2 N1 1_555 1_555
H3 N4 1_555 1_555
H4 N4 1_555 1_555
H5 N7 1_555 1_555
H6 N7 1_555 1_555
H7 O4 1_555 1_555
H8 O4 1_555 1_555
H9 O5 1_555 1_555
H10 O5 1_555 1_555
H11 O6 1_555 1_555
H12 O6 1_555 1_555
H14 O7 1_555 1_555
O1B Eu1 1_555 1_555
O3B Eu1 1_555 1_555
Eu1B O1 1_555 1_555
Eu1B_2 O3 1_555 1_555

#END
