
#######################################################################
#
#                 Cambridge Crystallographic Data Centre
#                                CCDC 
#
#######################################################################
#
# If this CIF has been generated from an entry in the Cambridge 
# Structural Database, then it will include bibliographic, chemical, 
# crystal, experimental, refinement or atomic coordinate data resulting 
# from the CCDC's data processing and validation procedures.
#
#######################################################################

data_MINVUA
_symmetry_cell_setting           orthorhombic
_symmetry_space_group_name_H-M   'I m m a'
_symmetry_Int_Tables_number      74
_space_group_name_Hall           '-I 2b 2'
loop_
_symmetry_equiv_pos_site_id
_symmetry_equiv_pos_as_xyz
1 x,y,z
2 -x,1/2-y,z
3 x,-y,-z
4 -x,1/2+y,-z
5 1/2+x,1/2+y,1/2+z
6 1/2-x,-y,1/2+z
7 1/2+x,1/2-y,1/2-z
8 1/2-x,y,1/2-z
9 -x,-y,-z
10 x,1/2+y,-z
11 -x,y,z
12 x,1/2-y,z
13 1/2-x,1/2-y,1/2-z
14 1/2+x,y,1/2-z
15 1/2-x,1/2+y,1/2+z
16 1/2+x,-y,1/2+z
_cell_length_a                   6.812(1)
_cell_length_b                   16.733(1)
_cell_length_c                   13.038(1)
_cell_angle_alpha                90
_cell_angle_beta                 90
_cell_angle_gamma                90
_cell_volume                     1486.14
loop_
_atom_site_label
_atom_site_type_symbol
_atom_site_fract_x
_atom_site_fract_y
_atom_site_fract_z
Cr1 Cr 0.250 0.250 0.750
O1 O 0.000 0.250 0.686(1)
O2 O 0.150(1) 0.166(1) 0.843(1)
C1 C -0.196(1) 0.040(1) 0.982(1)
C2 C 0.000 0.054(1) 0.961(2)
C3 C 0.000 0.125(1) 0.888(2)
O2J O -0.150(1) 0.166(1) 0.843(1)
C1B C -0.196(1) -0.040(1) 1.018(1)
C2B C 0.000 -0.054(1) 1.039(2)
C1H C 0.196(1) -0.040(1) 1.018(1)
C1J C 0.196(1) 0.040(1) 0.982(1)
C3B C 0.000 -0.125(1) 1.112(2)
O2B O 0.150(1) -0.166(1) 1.157(1)
O2H O -0.150(1) -0.166(1) 1.157(1)
O1F O 0.500 0.250 0.814(1)
O2G O 0.350(1) 0.166(1) 0.657(1)
O2K O 0.150(1) 0.334(1) 0.843(1)
O2L O 0.350(1) 0.334(1) 0.657(1)
Cr1A Cr -0.250 0.250 0.750
Cr1B Cr 0.250 -0.250 1.250
Cr1C Cr -0.250 -0.250 1.250
loop_
_geom_bond_atom_site_label_1
_geom_bond_atom_site_label_2
_geom_bond_site_symmetry_1
_geom_bond_site_symmetry_2
Cr1 O1 1_555 1_555
O1 Cr1A 1_555 1_555
O2 Cr1 1_555 1_555
C1 C2 1_555 1_555
C2 C3 1_555 1_555
C3 O2 1_555 1_555
O2J C3 1_555 1_555
C1B C1 1_555 1_555
C2B C1B 1_555 1_555
C1H C2B 1_555 1_555
C1J C2 1_555 1_555
C3B C2B 1_555 1_555
O2B C3B 1_555 1_555
O2H C3B 1_555 1_555
O1F Cr1 1_555 1_555
O2G Cr1 1_555 1_555
O2K Cr1 1_555 1_555
O2L Cr1 1_555 1_555
Cr1A O2J 1_555 1_555
Cr1B O2B 1_555 1_555
Cr1C O2H 1_555 1_555
C1H C1J 1_555 1_555

#END
