
#######################################################################
#
#                 Cambridge Crystallographic Data Centre
#                                CCDC 
#
#######################################################################
#
# If this CIF has been generated from an entry in the Cambridge 
# Structural Database, then it will include bibliographic, chemical, 
# crystal, experimental, refinement or atomic coordinate data resulting 
# from the CCDC's data processing and validation procedures.
#
#######################################################################

data_MINVUA02
_symmetry_cell_setting           orthorhombic
_symmetry_space_group_name_H-M   'I m c m'
_symmetry_Int_Tables_number      74
_space_group_name_Hall           '-I 2 2a'
loop_
_symmetry_equiv_pos_site_id
_symmetry_equiv_pos_as_xyz
1 x,y,z
2 1/2-x,1/2-y,1/2+z
3 1/2+x,-y,-z
4 -x,1/2+y,1/2-z
5 1/2+x,1/2+y,1/2+z
6 -x,-y,z
7 x,1/2-y,1/2-z
8 1/2-x,y,-z
9 -x,-y,-z
10 1/2+x,1/2+y,1/2-z
11 1/2-x,y,z
12 x,1/2-y,1/2+z
13 1/2-x,1/2-y,1/2-z
14 x,y,-z
15 -x,1/2+y,1/2+z
16 1/2+x,-y,z
_cell_length_a                   16.772(8)
_cell_length_b                   13.145(5)
_cell_length_c                   6.847(5)
_cell_angle_alpha                90
_cell_angle_beta                 90
_cell_angle_gamma                90
_cell_volume                     1509.54
loop_
_atom_site_label
_atom_site_type_symbol
_atom_site_fract_x
_atom_site_fract_y
_atom_site_fract_z
O1 O 0.250 0.7 0.000
O2 O 0.165 0.843 0.154
C1 C 0.033 0.966 -0.168
C2 C 0.069 0.936 0.000
C3 C 0.142 0.869 0.000
Cr1 Cr 0.250 0.750 0.250
D1 D 0.056 0.943 -0.31
O2E O -0.165 1.157 0.154
C2H C -0.069 1.064 0.000
C3H C -0.142 1.131 0.000
C1E C -0.033 1.034 -0.168
D1E D -0.056 1.057 -0.31
O2M O 0.165 0.843 -0.154
C1M C 0.033 0.966 0.168
D1M D 0.056 0.943 0.31
O2H O -0.165 1.157 -0.154
C1H C -0.033 1.034 0.168
D1H D -0.056 1.057 0.31
O1K O 0.250 0.8 0.500
O2J O 0.335 0.843 0.154
O2L O 0.335 0.657 0.346
O2F O 0.165 0.657 0.346
Cr1K Cr 0.250 0.750 -0.250
Cr1H Cr -0.250 1.250 -0.250
Cr1C Cr -0.250 1.250 0.250
loop_
_geom_bond_atom_site_label_1
_geom_bond_atom_site_label_2
_geom_bond_site_symmetry_1
_geom_bond_site_symmetry_2
O1 Cr1 1_555 1_555
O2 C3 1_555 1_555
C1 C2 1_555 1_555
C2 C3 1_555 1_555
C3 O2M 1_555 1_555
Cr1 O2 1_555 1_555
D1 C1 1_555 1_555
O2E C3H 1_555 1_555
C2H C3H 1_555 1_555
C3H O2H 1_555 1_555
C1E C1 1_555 1_555
D1E C1E 1_555 1_555
O2M Cr1K 1_555 1_555
C1M C2 1_555 1_555
D1M C1M 1_555 1_555
O2H Cr1H 1_555 1_555
C1H C2H 1_555 1_555
D1H C1H 1_555 1_555
O1K Cr1 1_555 1_555
O2J Cr1 1_555 1_555
O2L Cr1 1_555 1_555
O2F Cr1 1_555 1_555
Cr1K O1 1_555 1_555
Cr1C O2E 1_555 1_555
C2H C1E 1_555 1_555
C1M C1H 1_555 1_555

#END
