
#######################################################################
#
#                 Cambridge Crystallographic Data Centre
#                                CCDC 
#
#######################################################################
#
# If this CIF has been generated from an entry in the Cambridge 
# Structural Database, then it will include bibliographic, chemical, 
# crystal, experimental, refinement or atomic coordinate data resulting 
# from the CCDC's data processing and validation procedures.
#
#######################################################################

data_MIPHIE
_symmetry_cell_setting           orthorhombic
_symmetry_space_group_name_H-M   'P 21 21 21'
_symmetry_Int_Tables_number      19
_space_group_name_Hall           'P 2ac 2ab'
loop_
_symmetry_equiv_pos_site_id
_symmetry_equiv_pos_as_xyz
1 x,y,z
2 1/2-x,-y,1/2+z
3 -x,1/2+y,1/2-z
4 1/2+x,1/2-y,-z
_cell_length_a                   6.5962(5)
_cell_length_b                   7.1987(7)
_cell_length_c                   32.446(2)
_cell_angle_alpha                90
_cell_angle_beta                 90
_cell_angle_gamma                90
_cell_volume                     1540.67
loop_
_atom_site_label
_atom_site_type_symbol
_atom_site_fract_x
_atom_site_fract_y
_atom_site_fract_z
C1 C 1.181(2) 0.270(2) 0.9393(4)
C2 C 1.146(2) 0.2501(19) 0.8949(3)
C3 C 1.292(2) 0.257(2) 0.8628(4)
H1 H 1.4306 0.2704 0.8669
C4 C 1.198(2) 0.2410(19) 0.8239(3)
H2 H 1.2696 0.2437 0.7992
C5 C 0.993(2) 0.221(2) 0.8259(3)
C6 C 0.860(3) 0.198(2) 0.7909(4)
C7 C 0.673(3) 0.102(2) 0.7888(4)
H3 H 0.6063 0.0508 0.8113
C8 C 0.602(3) 0.096(2) 0.7483(3)
H4 H 0.4826 0.0343 0.7420
C9 C 0.704(2) 0.177(2) 0.7200(4)
C10 C 0.675(3) 0.198(2) 0.6762(4)
C11 C 0.492(3) 0.173(2) 0.6554(4)
H5 H 0.3718 0.1439 0.6689
C12 C 0.502(3) 0.1942(19) 0.6137(4)
H6 H 0.3916 0.1839 0.5961
C13 C 0.705(2) 0.234(2) 0.6004(3)
C14 C 0.771(3) 0.276(2) 0.5575(4)
O1 O 1.0271(15) 0.2542(14) 0.9628(2)
O2 O 1.3624(15) 0.3004(13) 0.9516(2)
O3 O 0.6441(15) 0.2364(13) 0.5290(2)
O4 O 0.9474(17) 0.3357(12) 0.5523(2)
O5 O 1.2359(16) -0.0144(15) 1.0296(2)
O6 O 0.6563(15) 0.0108(15) 0.9641(2)
S1 S 0.9036(6) 0.2175(5) 0.87515(8)
S2 S 0.9251(6) 0.2758(5) 0.74241(8)
S3 S 0.8620(6) 0.2504(5) 0.64165(8)
Mn1 Mn 0.9420(4) 0.0143(3) 0.99774(5)
O2C O 0.8624(15) 0.1996(13) 1.0484(2)
O3A O 0.8559(15) -0.2364(13) 1.0290(2)
O4B O 1.0526(17) -0.1643(12) 0.9477(2)
Mn1A Mn 0.5580(4) -0.0143(3) 0.49774(5)
Mn1B Mn 1.0580(4) 0.5143(3) 0.50226(5)
Mn1C Mn 1.4420(4) 0.4857(3) 1.00226(5)
loop_
_geom_bond_atom_site_label_1
_geom_bond_atom_site_label_2
_geom_bond_site_symmetry_1
_geom_bond_site_symmetry_2
C1 C2 1_555 1_555
C2 C3 1_555 1_555
C3 H1 1_555 1_555
C4 C3 1_555 1_555
H2 C4 1_555 1_555
C5 C4 1_555 1_555
C6 C5 1_555 1_555
C7 C6 1_555 1_555
H3 C7 1_555 1_555
C8 C7 1_555 1_555
H4 C8 1_555 1_555
C9 C8 1_555 1_555
C10 C9 1_555 1_555
C11 C10 1_555 1_555
H5 C11 1_555 1_555
C12 C11 1_555 1_555
H6 C12 1_555 1_555
C13 C12 1_555 1_555
C14 C13 1_555 1_555
O1 C1 1_555 1_555
O2 C1 1_555 1_555
O3 C14 1_555 1_555
O4 C14 1_555 1_555
O5 Mn1 1_555 1_555
O6 Mn1 1_555 1_555
S1 C2 1_555 1_555
S2 C6 1_555 1_555
S3 C10 1_555 1_555
Mn1 O1 1_555 1_555
O2C Mn1 1_555 1_555
O3A Mn1 1_555 1_555
O4B Mn1 1_555 1_555
Mn1A O3 1_555 1_555
Mn1B O4 1_555 1_555
Mn1C O2 1_555 1_555
C5 S1 1_555 1_555
C9 S2 1_555 1_555
C13 S3 1_555 1_555

#END
