
#######################################################################
#
#                 Cambridge Crystallographic Data Centre
#                                CCDC 
#
#######################################################################
#
# If this CIF has been generated from an entry in the Cambridge 
# Structural Database, then it will include bibliographic, chemical, 
# crystal, experimental, refinement or atomic coordinate data resulting 
# from the CCDC's data processing and validation procedures.
#
#######################################################################

data_MIPHOK
_symmetry_cell_setting           monoclinic
_symmetry_space_group_name_H-M   'C 2/c'
_symmetry_Int_Tables_number      15
_space_group_name_Hall           '-C 2yn'
loop_
_symmetry_equiv_pos_site_id
_symmetry_equiv_pos_as_xyz
1 x,y,z
2 -x,y,1/2-z
3 1/2+x,1/2+y,z
4 1/2-x,1/2+y,1/2-z
5 -x,-y,-z
6 x,-y,1/2+z
7 1/2-x,1/2-y,-z
8 1/2+x,1/2-y,1/2+z
_cell_length_a                   35.442(8)
_cell_length_b                   7.6573(16)
_cell_length_c                   11.038(2)
_cell_angle_alpha                90
_cell_angle_beta                 97.618(4)
_cell_angle_gamma                90
_cell_volume                     2969.16
loop_
_atom_site_label
_atom_site_type_symbol
_atom_site_fract_x
_atom_site_fract_y
_atom_site_fract_z
C1 C 0.9380(2) 0.6509(8) 0.2132(7)
C2 C 0.8986(2) 0.6017(9) 0.1676(6)
C3 C 0.8837(2) 0.5191(10) 0.0633(7)
H1 H 0.8991 0.4719 0.0072
C4 C 0.8440(2) 0.5085(10) 0.0445(6)
H2 H 0.8297 0.4565 -0.0251
C5 C 0.8278(2) 0.5843(9) 0.1415(6)
C6 C 0.7886(2) 0.6055(8) 0.1534(6)
C7 C 0.7729(2) 0.6845(9) 0.2490(6)
H3 H 0.7880 0.7344 0.3179
C8 C 0.7331(2) 0.6842(9) 0.2349(6)
H4 H 0.7187 0.7346 0.2927
C9 C 0.7167(2) 0.6038(9) 0.1294(7)
C10 C 0.6766(2) 0.5750(9) 0.0912(6)
C11 C 0.6592(2) 0.4841(9) -0.0112(6)
H5 H 0.6729 0.4299 -0.0693
C12 C 0.6193(2) 0.4814(9) -0.0186(7)
H6 H 0.6032 0.4260 -0.0830
C13 C 0.6059(2) 0.5677(9) 0.0774(7)
C14 C 0.5669(2) 0.5907(9) 0.1023(6)
O1 O 0.96278(15) 0.6359(6) 0.1378(5)
O2 O 0.94537(15) 0.7064(7) 0.3221(5)
O3 O 0.56094(14) 0.6674(7) 0.1999(5)
O4 O 0.54023(14) 0.5262(6) 0.0229(4)
O5 O 1.0000 0.9812(8) 0.2500
H7 H 1.0192 1.0394 0.2342
O6 O 1.00621(15) 0.6740(6) -0.0852(5)
H8 H 1.0160 0.5768 -0.1015
H9 H 0.9859 0.7220 -0.1197
S1 S 0.86269(5) 0.6661(2) 0.25112(16)
S2 S 0.75175(5) 0.5292(2) 0.04568(15)
S3 S 0.64295(5) 0.6553(2) 0.17602(16)
Mn1 Mn 1.00402(3) 0.81417(13) 0.08319(10)
H7A H 0.9808 1.0394 0.2658
C1A C 1.0620(2) 0.6509(8) 0.2868(7)
C2A C 1.1014(2) 0.6017(9) 0.3324(6)
C3A C 1.1163(2) 0.5191(10) 0.4367(7)
H1A H 1.1009 0.4719 0.4928
C4A C 1.1560(2) 0.5085(10) 0.4555(6)
H2A H 1.1703 0.4565 0.5251
C5A C 1.1722(2) 0.5843(9) 0.3585(6)
C6A C 1.2114(2) 0.6055(8) 0.3466(6)
C7A C 1.2271(2) 0.6845(9) 0.2510(6)
H3A H 1.2120 0.7344 0.1821
C8A C 1.2669(2) 0.6842(9) 0.2651(6)
H4A H 1.2813 0.7346 0.2073
C9A C 1.2833(2) 0.6038(9) 0.3706(7)
C10A C 1.3234(2) 0.5750(9) 0.4088(6)
C11A C 1.3408(2) 0.4841(9) 0.5112(6)
H5A H 1.3271 0.4299 0.5693
C12A C 1.3807(2) 0.4814(9) 0.5186(7)
H6A H 1.3968 0.4260 0.5830
C13A C 1.3941(2) 0.5677(9) 0.4226(7)
C14A C 1.4331(2) 0.5907(9) 0.3977(6)
O1A O 1.03722(15) 0.6359(6) 0.3622(5)
O2A O 1.05463(15) 0.7064(7) 0.1779(5)
O3A O 1.43906(14) 0.6674(7) 0.3001(5)
O4A O 1.45977(14) 0.5262(6) 0.4771(4)
O6A O 0.99379(15) 0.6740(6) 0.5852(5)
H8A H 0.9840 0.5768 0.6015
H9A H 1.0141 0.7220 0.6197
S1A S 1.13731(5) 0.6661(2) 0.24888(16)
S2A S 1.24825(5) 0.5292(2) 0.45432(15)
S3A S 1.35705(5) 0.6553(2) 0.32398(16)
Mn1A Mn 0.99598(3) 0.81417(13) 0.41681(10)
O4B O 1.04023(14) 1.0262(6) 0.0229(4)
O4C O 0.95977(14) 1.0262(6) 0.4771(4)
O4F O 0.95977(14) 0.9738(6) -0.0229(4)
O4G O 1.04023(14) 0.9738(6) 0.5229(4)
Mn1B Mn 0.50402(3) 0.31417(13) 0.08319(10)
Mn1C Mn 1.49598(3) 0.31417(13) 0.41681(10)
Mn1F Mn 0.49598(3) 0.68583(13) -0.08319(10)
Mn1G Mn 1.50402(3) 0.68583(13) 0.58319(10)
loop_
_geom_bond_atom_site_label_1
_geom_bond_atom_site_label_2
_geom_bond_site_symmetry_1
_geom_bond_site_symmetry_2
C1 C2 1_555 1_555
C2 C3 1_555 1_555
C3 H1 1_555 1_555
C4 C3 1_555 1_555
H2 C4 1_555 1_555
C5 C4 1_555 1_555
C6 C5 1_555 1_555
C7 C6 1_555 1_555
H3 C7 1_555 1_555
C8 C7 1_555 1_555
H4 C8 1_555 1_555
C9 C8 1_555 1_555
C10 C9 1_555 1_555
C11 C10 1_555 1_555
H5 C11 1_555 1_555
C12 C11 1_555 1_555
H6 C12 1_555 1_555
C13 C12 1_555 1_555
C14 C13 1_555 1_555
O1 C1 1_555 1_555
O2 C1 1_555 1_555
O3 C14 1_555 1_555
O4 C14 1_555 1_555
O5 H7 1_555 1_555
O6 H8 1_555 1_555
H9 O6 1_555 1_555
S1 C2 1_555 1_555
S2 C6 1_555 1_555
S3 C10 1_555 1_555
Mn1 O1 1_555 1_555
H7A O5 1_555 1_555
C1A C2A 1_555 1_555
C2A C3A 1_555 1_555
C3A H1A 1_555 1_555
C4A C3A 1_555 1_555
H2A C4A 1_555 1_555
C5A C4A 1_555 1_555
C6A C5A 1_555 1_555
C7A C6A 1_555 1_555
H3A C7A 1_555 1_555
C8A C7A 1_555 1_555
H4A C8A 1_555 1_555
C9A C8A 1_555 1_555
C10A C9A 1_555 1_555
C11A C10A 1_555 1_555
H5A C11A 1_555 1_555
C12A C11A 1_555 1_555
H6A C12A 1_555 1_555
C13A C12A 1_555 1_555
C14A C13A 1_555 1_555
O1A C1A 1_555 1_555
O2A Mn1 1_555 1_555
O3A C14A 1_555 1_555
O4A C14A 1_555 1_555
O6A H8A 1_555 1_555
H9A O6A 1_555 1_555
S1A C2A 1_555 1_555
S2A C6A 1_555 1_555
S3A C10A 1_555 1_555
Mn1A O2 1_555 1_555
O4B Mn1 1_555 1_555
O4C Mn1A 1_555 1_555
O4F Mn1 1_555 1_555
O4G Mn1A 1_555 1_555
Mn1B O4 1_555 1_555
Mn1C O4A 1_555 1_555
Mn1F O4 1_555 1_555
Mn1G O4A 1_555 1_555
C5 S1 1_555 1_555
C9 S2 1_555 1_555
C13 S3 1_555 1_555
O5 Mn1 1_555 1_555
O5 Mn1A 1_555 1_555
O6 Mn1 1_555 1_555
C1A O2A 1_555 1_555
C5A S1A 1_555 1_555
C9A S2A 1_555 1_555
C13A S3A 1_555 1_555
O1A Mn1A 1_555 1_555
O6A Mn1A 1_555 1_555

#END
