
#######################################################################
#
#                 Cambridge Crystallographic Data Centre
#                                CCDC 
#
#######################################################################
#
# If this CIF has been generated from an entry in the Cambridge 
# Structural Database, then it will include bibliographic, chemical, 
# crystal, experimental, refinement or atomic coordinate data resulting 
# from the CCDC's data processing and validation procedures.
#
#######################################################################

data_MIPJOK
_symmetry_cell_setting           monoclinic
_symmetry_space_group_name_H-M   'P 21/c'
_symmetry_Int_Tables_number      14
_space_group_name_Hall           '-P 2ybc'
loop_
_symmetry_equiv_pos_site_id
_symmetry_equiv_pos_as_xyz
1 x,y,z
2 -x,1/2+y,1/2-z
3 -x,-y,-z
4 x,1/2-y,1/2+z
_cell_length_a                   11.3587(9)
_cell_length_b                   33.551(3)
_cell_length_c                   28.731(2)
_cell_angle_alpha                90
_cell_angle_beta                 92.277(4)
_cell_angle_gamma                90
_cell_volume                     10940.6
loop_
_atom_site_label
_atom_site_type_symbol
_atom_site_fract_x
_atom_site_fract_y
_atom_site_fract_z
F1 F 0.3138(18) 0.2264(5) 0.2758(7)
F2 F 0.3127(11) 0.2631(5) 0.3341(4)
F3 F 0.4124(13) 0.2819(6) 0.2788(5)
C89 C 0.3139(17) 0.2614(7) 0.2878(7)
C90 C 0.2070(15) 0.2877(5) 0.2651(6)
O5 O 0.1619(14) 0.2738(4) 0.2291(5)
O6 O 0.1806(15) 0.3189(4) 0.2859(5)
F4 F 0.601(2) 0.2247(5) 0.1927(7)
F5 F 0.4921(14) 0.2759(7) 0.1918(5)
F6 F 0.5851(12) 0.2620(5) 0.1321(5)
C91 C 0.5906(18) 0.2584(6) 0.1779(7)
C92 C 0.6958(16) 0.2870(6) 0.1977(7)
O7 O 0.6983(15) 0.3203(4) 0.1805(5)
O8 O 0.7481(15) 0.2724(4) 0.2331(5)
F7 F -0.186(2) 0.0801(7) -0.0206(9)
F8 F -0.248(3) 0.0507(11) 0.0352(12)
F9 F -0.078(2) 0.0311(8) 0.0131(10)
C93 C -0.151(3) 0.0629(9) 0.0146(10)
C94 C -0.075(3) 0.0920(11) 0.0501(10)
O9 O 0.022(3) 0.1002(10) 0.0341(11)
O10 O -0.100(3) 0.0902(11) 0.0925(9)
F10 F 0.109(3) 0.0681(17) 0.4421(18)
F11 F -0.026(4) 0.0329(8) 0.4167(18)
F12 F 0.023(5) 0.0786(15) 0.3710(10)
C95 C 0.0226(19) 0.0690(7) 0.4164(7)
C96 C -0.0741(19) 0.1016(7) 0.4338(9)
O11 O -0.1749(16) 0.0880(6) 0.4321(6)
O12 O -0.033(3) 0.1366(8) 0.434(2)
C97 C 0.484(3) 0.0864(8) -0.4100(11)
H77 H 0.4960 0.0630 -0.3900
H78 H 0.5576 0.0924 -0.4255
H79 H 0.4214 0.0811 -0.4335
C98 C 0.450(2) 0.1221(11) -0.3802(11)
C99 C 0.434(3) 0.1567(8) -0.4169(11)
H80 H 0.4118 0.1813 -0.4010
H81 H 0.3725 0.1495 -0.4401
H82 H 0.5086 0.1610 -0.4324
O13 O 0.438(3) 0.1238(14) -0.3395(12)
C100 C 0.387(5) 0.0752(16) -0.0089(16)
H83 H 0.4438 0.0852 0.0149
H84 H 0.3329 0.0565 0.0053
H85 H 0.3426 0.0976 -0.0226
C101 C 0.453(6) 0.054(2) -0.0471(19)
H86 H 0.4676 0.0257 -0.0380
H87 H 0.5306 0.0668 -0.0510
C102 C 0.380(9) 0.055(2) -0.0933(15)
H88 H 0.2949 0.0558 -0.0871
H89 H 0.3961 0.0316 -0.1124
C103 C 0.415(6) 0.0943(14) -0.1203(14)
H90 H 0.3542 0.1152 -0.1167
H91 H 0.4913 0.1046 -0.1080
C104 C 0.423(4) 0.0827(11) -0.1713(14)
H92 H 0.4878 0.0635 -0.1744
H93 H 0.3485 0.0693 -0.1817
C105 C 0.443(5) 0.1181(14) -0.2024(15)
H94 H 0.4489 0.1090 -0.2347
H95 H 0.5162 0.1315 -0.1923
H96 H 0.3769 0.1367 -0.2006
O14 O -0.446(4) 0.4178(15) -0.0344(16)
Au1 Au 0.03132(7) 0.36614(2) -0.30840(3)
Au2 Au -0.13154(7) 0.12946(3) 0.27089(3)
Au3 Au -0.22728(8) 0.33699(3) 0.01348(3)
Au4 Au 0.10944(8) 0.17316(3) -0.04833(3)
P1 P 0.1168(5) 0.07845(16) 0.2200(2)
P2 P -0.2152(5) 0.07586(16) 0.23677(19)
P3 P -0.2333(5) 0.28356(16) -0.03288(17)
P4 P 0.1201(5) 0.22825(18) -0.00422(18)
C1 C 0.0088(16) 0.0418(6) 0.2351(6)
H1 H 0.0420 0.0150 0.2297
H2 H -0.0046 0.0441 0.2688
C2 C -0.1094(14) 0.0446(5) 0.2089(6)
H3 H -0.1427 0.0175 0.2053
H4 H -0.0969 0.0552 0.1773
C3 C -0.0867(15) 0.2654(6) -0.0419(6)
H5 H -0.0906 0.2438 -0.0653
H6 H -0.0387 0.2873 -0.0544
C4 C -0.0260(15) 0.2497(5) 0.0034(6)
H7 H -0.0771 0.2291 0.0169
H8 H -0.0187 0.2719 0.0260
C5 C 0.2027(11) 0.0533(4) 0.1764(4)
C6 C 0.1569(9) 0.0509(4) 0.1309(5)
H9 H 0.0815 0.0618 0.1231
C7 C 0.2216(13) 0.0327(4) 0.0967(3)
H10 H 0.1904 0.0311 0.0656
C8 C 0.3321(12) 0.0168(4) 0.1081(4)
H11 H 0.3763 0.0044 0.0848
C9 C 0.3778(9) 0.0191(4) 0.1537(5)
H12 H 0.4533 0.0083 0.1614
C10 C 0.3131(11) 0.0374(4) 0.1878(4)
H13 H 0.3443 0.0389 0.2189
C11 C 0.2153(10) 0.0860(4) 0.2707(4)
C12 C 0.2437(11) 0.0543(3) 0.3002(5)
H14 H 0.2091 0.0289 0.2947
C13 C 0.3226(12) 0.0599(4) 0.3379(4)
H15 H 0.3420 0.0382 0.3581
C14 C 0.3731(11) 0.0971(4) 0.3460(4)
H16 H 0.4270 0.1009 0.3717
C15 C 0.3447(11) 0.1287(3) 0.3164(5)
H17 H 0.3792 0.1542 0.3219
C16 C 0.2658(12) 0.1232(3) 0.2787(4)
H18 H 0.2464 0.1448 0.2585
C17 C -0.2904(12) 0.0447(4) 0.2759(5)
C18 C -0.3724(13) 0.0168(5) 0.2593(4)
H19 H -0.3853 0.0132 0.2267
C19 C -0.4354(11) -0.0057(4) 0.2904(6)
H20 H -0.4914 -0.0247 0.2791
C20 C -0.4165(13) -0.0004(4) 0.3381(5)
H21 H -0.4595 -0.0157 0.3594
C21 C -0.3345(14) 0.0275(5) 0.3547(4)
H22 H -0.3215 0.0311 0.3873
C22 C -0.2714(11) 0.0500(4) 0.3236(5)
H23 H -0.2154 0.0690 0.3350
C23 C -0.3254(11) 0.0910(4) 0.1927(5)
C24 C -0.3255(11) 0.0799(4) 0.1461(5)
H24 H -0.2641 0.0636 0.1352
C25 C -0.4154(14) 0.0927(4) 0.1154(4)
H25 H -0.4154 0.0851 0.0836
C26 C -0.5052(11) 0.1166(4) 0.1314(5)
H26 H -0.5666 0.1254 0.1104
C27 C -0.5051(11) 0.1278(4) 0.1780(5)
H27 H -0.5664 0.1441 0.1889
C28 C -0.4152(14) 0.1150(5) 0.2086(4)
H28 H -0.4151 0.1226 0.2405
C29 C -0.2908(10) 0.2921(4) -0.0920(3)
C30 C -0.3230(11) 0.2605(3) -0.1212(4)
H29 H -0.3117 0.2339 -0.1108
C31 C -0.3716(11) 0.2680(4) -0.1654(4)
H30 H -0.3936 0.2465 -0.1854
C32 C -0.3880(11) 0.3071(4) -0.1806(3)
H31 H -0.4212 0.3122 -0.2108
C33 C -0.3558(11) 0.3386(3) -0.1514(4)
H32 H -0.3670 0.3653 -0.1617
C34 C -0.3072(11) 0.3311(3) -0.1071(4)
H33 H -0.2852 0.3527 -0.0871
C35 C -0.3141(11) 0.2419(4) -0.0113(4)
C36 C -0.2879(10) 0.2024(5) -0.0214(4)
H34 H -0.2225 0.1963 -0.0397
C37 C -0.3575(13) 0.1719(3) -0.0046(5)
H35 H -0.3396 0.1449 -0.0115
C38 C -0.4532(11) 0.1809(4) 0.0222(5)
H36 H -0.5008 0.1600 0.0336
C39 C -0.4794(9) 0.2203(5) 0.0322(4)
H37 H -0.5448 0.2265 0.0505
C40 C -0.4098(12) 0.2508(3) 0.0155(4)
H38 H -0.4277 0.2778 0.0224
C41 C 0.1790(10) 0.2181(4) 0.0543(3)
C42 C 0.1833(10) 0.1795(3) 0.0717(4)
H39 H 0.1537 0.1580 0.0532
C43 C 0.2310(11) 0.1723(3) 0.1162(4)
H40 H 0.2339 0.1459 0.1282
C44 C 0.2743(10) 0.2038(4) 0.1433(3)
H41 H 0.3068 0.1989 0.1738
C45 C 0.2700(10) 0.2424(3) 0.1259(4)
H42 H 0.2996 0.2639 0.1444
C46 C 0.2224(11) 0.2496(3) 0.0813(4)
H43 H 0.2194 0.2760 0.0694
C47 C 0.2092(10) 0.2676(4) -0.0286(4)
C48 C 0.1909(10) 0.3074(4) -0.0176(4)
H44 H 0.1250 0.3149 -0.0002
C49 C 0.2691(13) 0.3363(3) -0.0321(5)
H45 H 0.2566 0.3635 -0.0246
C50 C 0.3656(11) 0.3254(4) -0.0575(4)
H46 H 0.4191 0.3452 -0.0674
C51 C 0.3840(9) 0.2856(5) -0.0684(4)
H47 H 0.4499 0.2782 -0.0858
C52 C 0.3057(12) 0.2567(3) -0.0540(4)
H48 H 0.3183 0.2295 -0.0615
N1 N -0.0531(13) 0.3167(5) -0.3397(5)
C53 C -0.0025(15) 0.2795(5) -0.3296(6)
H49 H 0.0612 0.2767 -0.3074
C54 C -0.0504(15) 0.2462(5) -0.3540(6)
C55 C -0.1400(16) 0.2513(6) -0.3843(6)
H50 H -0.1729 0.2290 -0.4007
C56 C -0.1859(17) 0.2892(6) -0.3923(6)
H51 H -0.2511 0.2919 -0.4138
C57 C -0.1444(16) 0.3217(6) -0.3717(6)
H52 H -0.1762 0.3473 -0.3787
N2 N 0.0053(12) 0.2098(4) -0.3438(5)
H53 H 0.0314 0.2060 -0.3149
C58 C 0.0229(16) 0.1793(6) -0.3753(7)
O1 O -0.0133(12) 0.1837(4) -0.4162(5)
N3 N -0.0582(14) 0.1794(5) 0.3026(5)
C59 C -0.1028(16) 0.2157(6) 0.2934(6)
H54 H -0.1655 0.2189 0.2708
C60 C -0.0557(17) 0.2495(6) 0.3176(7)
C61 C 0.0441(15) 0.2436(6) 0.3494(6)
H55 H 0.0809 0.2656 0.3648
C62 C 0.0846(16) 0.2054(6) 0.3569(6)
H56 H 0.1494 0.2001 0.3779
C63 C 0.0251(17) 0.1739(6) 0.3318(6)
H57 H 0.0503 0.1473 0.3376
N4 N -0.1052(12) 0.2863(4) 0.3060(5)
H58 H -0.1260 0.2919 0.2769
C64 C -0.1215(16) 0.3146(6) 0.3411(7)
O2 O -0.0974(9) 0.3094(3) 0.3821(4)
N5 N -0.2132(13) 0.3846(5) 0.0600(5)
C65 C -0.2242(14) 0.3785(5) 0.1051(6)
H59 H -0.2440 0.3526 0.1158
C66 C -0.2080(17) 0.4083(7) 0.1364(7)
C67 C -0.1770(18) 0.4453(7) 0.1236(8)
H60 H -0.1644 0.4661 0.1456
C68 C -0.1641(18) 0.4514(7) 0.0748(8)
H61 H -0.1420 0.4770 0.0639
C69 C -0.1831(18) 0.4212(7) 0.0437(8)
H62 H -0.1755 0.4255 0.0113
N6 N -0.2168(12) 0.3970(5) 0.1844(5)
H63 H -0.2249 0.3714 0.1906
C70 C -0.2134(18) 0.4230(7) 0.2214(8)
O3 O -0.2018(13) 0.4593(5) 0.2184(5)
N7 N 0.1006(15) 0.1223(5) -0.0907(6)
C71 C 0.1145(17) 0.1270(7) -0.1351(7)
H64 H 0.1401 0.1522 -0.1461
C72 C 0.0930(17) 0.0962(7) -0.1670(7)
C73 C 0.0521(17) 0.0591(7) -0.1494(7)
H65 H 0.0327 0.0377 -0.1699
C74 C 0.0415(19) 0.0550(8) -0.1024(8)
H66 H 0.0198 0.0301 -0.0894
C75 C 0.063(2) 0.0876(8) -0.0742(9)
H67 H 0.0503 0.0853 -0.0418
N8 N 0.1062(12) 0.1037(5) -0.2141(5)
H68 H 0.1118 0.1289 -0.2223
C76 C 0.1114(16) 0.0764(6) -0.2487(7)
O4 O 0.1114(12) 0.0402(5) -0.2415(5)
C77 C -0.1735(16) 0.3527(6) 0.3252(7)
C78 C -0.1786(17) 0.3656(6) 0.2804(7)
H69 H -0.1543 0.3481 0.2566
C79 C -0.2191(15) 0.4045(6) 0.2678(6)
C80 C -0.2596(18) 0.4282(7) 0.3042(8)
H70 H -0.2882 0.4542 0.2972
C81 C -0.2593(18) 0.4145(7) 0.3509(8)
H71 H -0.2921 0.4305 0.3744
C82 C -0.2104(17) 0.3774(6) 0.3621(7)
H72 H -0.2019 0.3689 0.3936
C83 C 0.0713(15) 0.1415(5) -0.3576(6)
C84 C 0.0754(14) 0.1298(5) -0.3110(6)
H73 H 0.0531 0.1485 -0.2881
C85 C 0.1102(16) 0.0926(6) -0.2967(7)
C86 C 0.1464(17) 0.0660(6) -0.3304(7)
H74 H 0.1739 0.0404 -0.3208
C87 C 0.1439(17) 0.0755(6) -0.3780(7)
H75 H 0.1683 0.0572 -0.4009
C88 C 0.1038(16) 0.1131(6) -0.3895(7)
H76 H 0.0980 0.1201 -0.4215
Au1C Au 0.03132(7) 0.13386(2) 0.19160(3)
P1C P 0.1168(5) 0.42155(16) -0.2800(2)
F13? F -0.253(3) 0.0789(10) 0.0187(12)
F14? F -0.192(3) 0.0287(11) 0.0542(12)
F15? F -0.112(3) 0.0407(11) -0.0079(11)
C106? C -0.165(3) 0.0593(9) 0.0267(11)
C107? C -0.061(3) 0.0842(12) 0.0549(12)
O15? O -0.024(4) 0.1127(12) 0.0322(14)
O16? O -0.077(4) 0.0842(13) 0.0986(10)
F16? F 0.001(3) 0.0577(13) 0.3775(11)
F17? F 0.121(2) 0.0901(9) 0.4143(12)
F18? F 0.035(3) 0.0477(10) 0.4554(11)
C108? C 0.0226(19) 0.0690(7) 0.4164(7)
C109? C -0.0741(19) 0.1016(7) 0.4338(9)
O17? O -0.1749(16) 0.0880(6) 0.4321(6)
O18? O -0.021(3) 0.1276(9) 0.4582(13)
loop_
_geom_bond_atom_site_label_1
_geom_bond_atom_site_label_2
_geom_bond_site_symmetry_1
_geom_bond_site_symmetry_2
Au1 N1 1_555 1_555
Au2 P2 1_555 1_555
Au3 P3 1_555 1_555
Au4 P4 1_555 1_555
P1 C1 1_555 1_555
P2 C2 1_555 1_555
P3 C3 1_555 1_555
P4 C4 1_555 1_555
C1 H1 1_555 1_555
H2 C1 1_555 1_555
C2 C1 1_555 1_555
H3 C2 1_555 1_555
H4 C2 1_555 1_555
C3 H5 1_555 1_555
H6 C3 1_555 1_555
C4 C3 1_555 1_555
H7 C4 1_555 1_555
H8 C4 1_555 1_555
C5 P1 1_555 1_555
C6 C5 1_555 1_555
H9 C6 1_555 1_555
C7 C6 1_555 1_555
H10 C7 1_555 1_555
C8 C7 1_555 1_555
H11 C8 1_555 1_555
C9 C8 1_555 1_555
H12 C9 1_555 1_555
C10 C5 1_555 1_555
H13 C10 1_555 1_555
C11 P1 1_555 1_555
C12 C11 1_555 1_555
H14 C12 1_555 1_555
C13 C12 1_555 1_555
H15 C13 1_555 1_555
C14 C13 1_555 1_555
H16 C14 1_555 1_555
C15 C14 1_555 1_555
H17 C15 1_555 1_555
C16 C11 1_555 1_555
H18 C16 1_555 1_555
C17 P2 1_555 1_555
C18 C17 1_555 1_555
H19 C18 1_555 1_555
C19 C18 1_555 1_555
H20 C19 1_555 1_555
C20 C19 1_555 1_555
H21 C20 1_555 1_555
C21 C20 1_555 1_555
H22 C21 1_555 1_555
C22 C17 1_555 1_555
H23 C22 1_555 1_555
C23 P2 1_555 1_555
C24 C23 1_555 1_555
H24 C24 1_555 1_555
C25 C24 1_555 1_555
H25 C25 1_555 1_555
C26 C25 1_555 1_555
H26 C26 1_555 1_555
C27 C26 1_555 1_555
H27 C27 1_555 1_555
C28 C23 1_555 1_555
H28 C28 1_555 1_555
C29 P3 1_555 1_555
C30 C29 1_555 1_555
H29 C30 1_555 1_555
C31 C30 1_555 1_555
H30 C31 1_555 1_555
C32 C31 1_555 1_555
H31 C32 1_555 1_555
C33 C32 1_555 1_555
H32 C33 1_555 1_555
C34 C29 1_555 1_555
H33 C34 1_555 1_555
C35 P3 1_555 1_555
C36 C35 1_555 1_555
H34 C36 1_555 1_555
C37 C36 1_555 1_555
H35 C37 1_555 1_555
C38 C37 1_555 1_555
H36 C38 1_555 1_555
C39 C38 1_555 1_555
H37 C39 1_555 1_555
C40 C35 1_555 1_555
H38 C40 1_555 1_555
C41 P4 1_555 1_555
C42 C41 1_555 1_555
H39 C42 1_555 1_555
C43 C42 1_555 1_555
H40 C43 1_555 1_555
C44 C43 1_555 1_555
H41 C44 1_555 1_555
C45 C44 1_555 1_555
H42 C45 1_555 1_555
C46 C41 1_555 1_555
H43 C46 1_555 1_555
C47 P4 1_555 1_555
C48 C47 1_555 1_555
H44 C48 1_555 1_555
C49 C48 1_555 1_555
H45 C49 1_555 1_555
C50 C49 1_555 1_555
H46 C50 1_555 1_555
C51 C50 1_555 1_555
H47 C51 1_555 1_555
C52 C47 1_555 1_555
H48 C52 1_555 1_555
N1 C53 1_555 1_555
C53 H49 1_555 1_555
C54 C53 1_555 1_555
C55 C54 1_555 1_555
H50 C55 1_555 1_555
C56 C55 1_555 1_555
H51 C56 1_555 1_555
C57 N1 1_555 1_555
H52 C57 1_555 1_555
N2 C54 1_555 1_555
H53 N2 1_555 1_555
C58 N2 1_555 1_555
O1 C58 1_555 1_555
N3 Au2 1_555 1_555
C59 N3 1_555 1_555
H54 C59 1_555 1_555
C60 C59 1_555 1_555
C61 C60 1_555 1_555
H55 C61 1_555 1_555
C62 C61 1_555 1_555
H56 C62 1_555 1_555
C63 N3 1_555 1_555
H57 C63 1_555 1_555
N4 C60 1_555 1_555
H58 N4 1_555 1_555
C64 N4 1_555 1_555
O2 C64 1_555 1_555
N5 Au3 1_555 1_555
C65 N5 1_555 1_555
H59 C65 1_555 1_555
C66 C65 1_555 1_555
C67 C66 1_555 1_555
H60 C67 1_555 1_555
C68 C67 1_555 1_555
H61 C68 1_555 1_555
C69 N5 1_555 1_555
H62 C69 1_555 1_555
N6 C66 1_555 1_555
H63 N6 1_555 1_555
C70 N6 1_555 1_555
O3 C70 1_555 1_555
N7 Au4 1_555 1_555
C71 N7 1_555 1_555
H64 C71 1_555 1_555
C72 C71 1_555 1_555
C73 C72 1_555 1_555
H65 C73 1_555 1_555
C74 C73 1_555 1_555
H66 C74 1_555 1_555
C75 N7 1_555 1_555
H67 C75 1_555 1_555
N8 C72 1_555 1_555
H68 N8 1_555 1_555
C76 N8 1_555 1_555
O4 C76 1_555 1_555
C77 C64 1_555 1_555
C78 C77 1_555 1_555
H69 C78 1_555 1_555
C79 C70 1_555 1_555
C80 C79 1_555 1_555
H70 C80 1_555 1_555
C81 C80 1_555 1_555
H71 C81 1_555 1_555
C82 C77 1_555 1_555
H72 C82 1_555 1_555
C83 C58 1_555 1_555
C84 C83 1_555 1_555
H73 C84 1_555 1_555
C85 C76 1_555 1_555
C86 C85 1_555 1_555
H74 C86 1_555 1_555
C87 C86 1_555 1_555
H75 C87 1_555 1_555
C88 C83 1_555 1_555
H76 C88 1_555 1_555
F1 C89 1_555 1_555
F2 C89 1_555 1_555
F3 C89 1_555 1_555
C89 C90 1_555 1_555
C90 O5 1_555 1_555
O6 C90 1_555 1_555
F4 C91 1_555 1_555
F5 C91 1_555 1_555
F6 C91 1_555 1_555
C91 C92 1_555 1_555
C92 O7 1_555 1_555
O8 C92 1_555 1_555
F7 C93 1_555 1_555
F8 C93 1_555 1_555
F9 C93 1_555 1_555
C93 C94 1_555 1_555
C94 O9 1_555 1_555
O10 C94 1_555 1_555
F10 C95 1_555 1_555
F11 C95 1_555 1_555
F12 C95 1_555 1_555
C95 C96 1_555 1_555
C96 O11 1_555 1_555
O12 C96 1_555 1_555
C97 H77 1_555 1_555
H78 C97 1_555 1_555
H79 C97 1_555 1_555
C98 C97 1_555 1_555
C99 C98 1_555 1_555
H80 C99 1_555 1_555
H81 C99 1_555 1_555
H82 C99 1_555 1_555
O13 C98 1_555 1_555
C100 H83 1_555 1_555
H84 C100 1_555 1_555
H85 C100 1_555 1_555
C101 C100 1_555 1_555
H86 C101 1_555 1_555
H87 C101 1_555 1_555
C102 C101 1_555 1_555
H88 C102 1_555 1_555
H89 C102 1_555 1_555
C103 C102 1_555 1_555
H90 C103 1_555 1_555
H91 C103 1_555 1_555
C104 C103 1_555 1_555
H92 C104 1_555 1_555
H93 C104 1_555 1_555
C105 C104 1_555 1_555
H94 C105 1_555 1_555
H95 C105 1_555 1_555
H96 C105 1_555 1_555
Au1C P1 1_555 1_555
P1C Au1 1_555 1_555
C9 C10 1_555 1_555
C15 C16 1_555 1_555
C21 C22 1_555 1_555
C27 C28 1_555 1_555
C33 C34 1_555 1_555
C39 C40 1_555 1_555
C45 C46 1_555 1_555
C51 C52 1_555 1_555
C56 C57 1_555 1_555
C62 C63 1_555 1_555
C68 C69 1_555 1_555
C74 C75 1_555 1_555
C78 C79 1_555 1_555
C81 C82 1_555 1_555
C84 C85 1_555 1_555
C87 C88 1_555 1_555

#END
