
#######################################################################
#
#                 Cambridge Crystallographic Data Centre
#                                CCDC 
#
#######################################################################
#
# If this CIF has been generated from an entry in the Cambridge 
# Structural Database, then it will include bibliographic, chemical, 
# crystal, experimental, refinement or atomic coordinate data resulting 
# from the CCDC's data processing and validation procedures.
#
#######################################################################

data_MIPNEG
_symmetry_cell_setting           monoclinic
_symmetry_space_group_name_H-M   'C 2/c'
_symmetry_Int_Tables_number      15
_space_group_name_Hall           '-C 2yn'
loop_
_symmetry_equiv_pos_site_id
_symmetry_equiv_pos_as_xyz
1 x,y,z
2 -x,y,1/2-z
3 1/2+x,1/2+y,z
4 1/2-x,1/2+y,1/2-z
5 -x,-y,-z
6 x,-y,1/2+z
7 1/2-x,1/2-y,-z
8 1/2+x,1/2-y,1/2+z
_cell_length_a                   14.5638(16)
_cell_length_b                   18.863(2)
_cell_length_c                   13.3530(14)
_cell_angle_alpha                90
_cell_angle_beta                 113.3550(10)
_cell_angle_gamma                90
_cell_volume                     3367.74
loop_
_atom_site_label
_atom_site_type_symbol
_atom_site_fract_x
_atom_site_fract_y
_atom_site_fract_z
Zn1 Zn 0.5000 0.54519(3) 0.7500
N1 N 0.6560(2) 0.54571(15) 0.7617(3)
N2 N 0.8432(2) 0.57404(15) 0.7624(2)
C1 C 0.8395(2) 0.67355(18) 0.5733(3)
C2 C 1.0091(2) 0.61777(18) 0.5586(2)
N3 N 1.0000 0.7876(2) 0.7500
N4 N 1.0000 0.9345(2) 0.7500
N5 N 0.5557(3) 0.61427(19) 0.9440(3)
O1 O 0.90392(17) 0.59041(13) 0.94943(19)
O2 O 0.77848(18) 0.55542(13) 0.5760(2)
O3 O 0.89886(18) 0.79039(13) 0.56572(19)
O4 O 0.5234(4) 0.6482(3) 0.8553(6)
O5 O 0.5581(2) 0.54862(13) 0.9279(2)
O6 O 0.5838(3) 0.6374(3) 1.0336(5)
C3 C 0.7337(3) 0.56113(19) 0.8551(3)
H1 H 0.7252 0.5628 0.9221
C4 C 0.8271(2) 0.57475(17) 0.8529(3)
C5 C 0.6714(3) 0.54233(17) 0.6694(3)
H2 H 0.6183 0.5295 0.6027
C6 C 0.7652(3) 0.55770(18) 0.6717(3)
C7 C 0.8538(2) 0.60087(18) 0.5715(2)
C8 C 0.9378(2) 0.57140(18) 0.5647(3)
H3 H 0.9463 0.5215 0.5642
C9 C 0.9991(2) 0.69034(18) 0.5587(3)
H4 H 1.0486 0.7210 0.5533
C10 C 0.9134(2) 0.71669(17) 0.5669(3)
C11 C 0.9504(2) 0.82481(18) 0.6611(3)
C12 C 0.9471(3) 0.89848(19) 0.6593(3)
H5 H 0.9076 0.9229 0.5942
N1A N 1.3440(2) 0.54571(15) 0.7383(3)
N2A N 1.1568(2) 0.57404(15) 0.7376(2)
C1A C 1.1605(2) 0.67355(18) 0.9267(3)
C2A C 0.9909(2) 0.61777(18) 0.9414(2)
O1A O 1.09608(17) 0.59041(13) 0.55057(19)
O2A O 1.22152(18) 0.55542(13) 0.9240(2)
O3A O 1.10114(18) 0.79039(13) 0.93428(19)
C3A C 1.2663(3) 0.56113(19) 0.6449(3)
H1A H 1.2748 0.5628 0.5779
C4A C 1.1729(2) 0.57475(17) 0.6471(3)
C5A C 1.3286(3) 0.54233(17) 0.8306(3)
H2A H 1.3817 0.5295 0.8973
C6A C 1.2348(3) 0.55770(18) 0.8283(3)
C7A C 1.1462(2) 0.60087(18) 0.9285(2)
C8A C 1.0622(2) 0.57140(18) 0.9353(3)
H3A H 1.0537 0.5215 0.9358
C9A C 1.0009(2) 0.69034(18) 0.9413(3)
H4A H 0.9514 0.7210 0.9467
C10A C 1.0866(2) 0.71669(17) 0.9331(3)
C11A C 1.0496(2) 0.82481(18) 0.8389(3)
C12A C 1.0529(3) 0.89848(19) 0.8407(3)
H5A H 1.0924 0.9229 0.9058
N5A N 0.4443(3) 0.61427(19) 0.5560(3)
O4A O 0.4766(4) 0.6482(3) 0.6447(6)
O5A O 0.4419(2) 0.54862(13) 0.5721(2)
O6A O 0.4162(3) 0.6374(3) 0.4664(5)
Zn1_2 Zn 1.5000 0.54519(3) 0.7500
Zn1B Zn 1.0000 1.04519(3) 0.7500
N1A_2 N 0.3440(2) 0.54571(15) 0.7383(3)
N4B N 0.5000 0.4345(2) 0.7500
C13 C 0.7739(8) 0.6408(6) 0.2702(6)
H6 H 0.7086 0.6182 0.2278
H7 H 0.8034 0.6188 0.3434
O7 O 0.7631(8) 0.7154(6) 0.2781(9)
C14 C 0.7903(14) 0.7511(7) 0.205(2)
H8 H 0.8344 0.7916 0.2406
H9 H 0.7303 0.7696 0.1440
C15 C 0.8422(13) 0.7017(7) 0.1643(17)
H10 H 0.8083 0.6982 0.0839
H11 H 0.9116 0.7180 0.1829
C16 C 0.8428(9) 0.6345(6) 0.2122(13)
H12 H 0.9112 0.6222 0.2643
H13 H 0.8191 0.5972 0.1555
loop_
_geom_bond_atom_site_label_1
_geom_bond_atom_site_label_2
_geom_bond_site_symmetry_1
_geom_bond_site_symmetry_2
Zn1 N1 1_555 1_555
N1 C3 1_555 1_555
N2 C4 1_555 1_555
C1 C7 1_555 1_555
C2 C8 1_555 1_555
N3 C11 1_555 1_555
N4 C12 1_555 1_555
N5 O4 1_555 1_555
O1 C4 1_555 1_555
O2 C6 1_555 1_555
O3 C10 1_555 1_555
O4 Zn1 1_555 1_555
O5 Zn1 1_555 1_555
O6 N5 1_555 1_555
C3 H1 1_555 1_555
C4 C3 1_555 1_555
C5 N1 1_555 1_555
H2 C5 1_555 1_555
C6 N2 1_555 1_555
C7 O2 1_555 1_555
C8 C7 1_555 1_555
H3 C8 1_555 1_555
C9 C2 1_555 1_555
H4 C9 1_555 1_555
C10 C1 1_555 1_555
C11 O3 1_555 1_555
C12 C11 1_555 1_555
H5 C12 1_555 1_555
C13 H6 1_555 1_555
H7 C13 1_555 1_555
O7 C13 1_555 1_555
C14 O7 1_555 1_555
H8 C14 1_555 1_555
H9 C14 1_555 1_555
C15 C14 1_555 1_555
H10 C15 1_555 1_555
H11 C15 1_555 1_555
C16 C13 1_555 1_555
H12 C16 1_555 1_555
H13 C16 1_555 1_555
N1A C3A 1_555 1_555
N2A C4A 1_555 1_555
C1A C7A 1_555 1_555
C2A O1 1_555 1_555
O1A C2 1_555 1_555
O2A C6A 1_555 1_555
O3A C10A 1_555 1_555
C3A H1A 1_555 1_555
C4A O1A 1_555 1_555
C5A N1A 1_555 1_555
H2A C5A 1_555 1_555
C6A N2A 1_555 1_555
C7A O2A 1_555 1_555
C8A C2A 1_555 1_555
H3A C8A 1_555 1_555
C9A C2A 1_555 1_555
H4A C9A 1_555 1_555
C10A C1A 1_555 1_555
C11A N3 1_555 1_555
C12A N4 1_555 1_555
H5A C12A 1_555 1_555
N5A O4A 1_555 1_555
O4A Zn1 1_555 1_555
O5A Zn1 1_555 1_555
O6A N5A 1_555 1_555
Zn1_2 N1A 1_555 1_555
Zn1B N4 1_555 1_555
N1A_2 Zn1 1_555 1_555
N4B Zn1 1_555 1_555
N5 O5 1_555 1_555
C5 C6 1_555 1_555
C9 C10 1_555 1_555
C15 C16 1_555 1_555
O3A C11A 1_555 1_555
C3A C4A 1_555 1_555
C5A C6A 1_555 1_555
C7A C8A 1_555 1_555
C9A C10A 1_555 1_555
C11A C12A 1_555 1_555
N5A O5A 1_555 1_555

#END
