
#######################################################################
#
#                 Cambridge Crystallographic Data Centre
#                                CCDC 
#
#######################################################################
#
# If this CIF has been generated from an entry in the Cambridge 
# Structural Database, then it will include bibliographic, chemical, 
# crystal, experimental, refinement or atomic coordinate data resulting 
# from the CCDC's data processing and validation procedures.
#
#######################################################################

data_MIPNAC
_symmetry_cell_setting           monoclinic
_symmetry_space_group_name_H-M   'C 2/c'
_symmetry_Int_Tables_number      15
_space_group_name_Hall           '-C 2yn'
loop_
_symmetry_equiv_pos_site_id
_symmetry_equiv_pos_as_xyz
1 x,y,z
2 -x,y,1/2-z
3 1/2+x,1/2+y,z
4 1/2-x,1/2+y,1/2-z
5 -x,-y,-z
6 x,-y,1/2+z
7 1/2-x,1/2-y,-z
8 1/2+x,1/2-y,1/2+z
_cell_length_a                   15.3062(17)
_cell_length_b                   18.444(2)
_cell_length_c                   13.3803(15)
_cell_angle_alpha                90
_cell_angle_beta                 115.3070(10)
_cell_angle_gamma                90
_cell_volume                     3414.85
loop_
_atom_site_label
_atom_site_type_symbol
_atom_site_fract_x
_atom_site_fract_y
_atom_site_fract_z
O4 O 0.6644(10) 0.8699(7) 0.7725(9)
C13 C 0.7508(8) 0.7717(5) 0.7360(10)
H7 H 0.7185 0.7543 0.6587
H8 H 0.8185 0.7545 0.7691
C14 C 0.7057(12) 0.7490(9) 0.7923(13)
H9 H 0.7544 0.7322 0.8651
H10 H 0.6664 0.7064 0.7538
C15 C 0.6467(10) 0.7977(6) 0.8097(14)
H11 H 0.6610 0.7993 0.8892
H12 H 0.5782 0.7835 0.7674
C16 C 0.7473(5) 0.8484(4) 0.7399(5)
H13 H 0.7350 0.8691 0.6669
H14 H 0.8098 0.8674 0.7952
Zn1 Zn 0.96943(5) 1.05799(4) 0.74436(6)
I1 I 1.058083(17) 1.113558(13) 0.937018(17)
N1 N 1.0000 0.9469(2) 0.7500
N2 N 1.0000 0.7980(2) 0.7500
N3 N 0.6802(3) 0.5408(3) 0.7720(3)
N4 N 0.85344(19) 0.57817(14) 0.7678(2)
O1 O 1.07935(17) 0.59438(15) 0.5426(2)
O2 O 0.78246(17) 0.56033(13) 0.57814(19)
O3 O 0.89802(17) 0.80007(13) 0.56373(19)
C1 C 0.9478(3) 0.91091(19) 0.6564(3)
H1 H 0.9100 0.9362 0.5899
C2 C 0.9502(2) 0.83556(17) 0.6590(3)
C3 C 0.9105(3) 0.72532(17) 0.5646(3)
C4 C 0.9893(2) 0.69743(19) 0.5539(2)
H2 H 1.0363 0.7283 0.5474
C5 C 0.9978(3) 0.62292(18) 0.5528(3)
C6 C 0.9317(2) 0.5755(2) 0.5616(2)
H3 H 0.9395 0.5245 0.5611
C7 C 0.8529(3) 0.60684(18) 0.5713(3)
C8 C 0.8417(2) 0.68061(18) 0.5750(2)
H4 H 0.7884 0.7005 0.5845
C9 C 0.7757(2) 0.55996(17) 0.6776(3)
C10 C 0.6891(3) 0.5411(3) 0.6776(3)
H5 H 0.6357 0.5284 0.6105
C11 C 0.8437(2) 0.57573(18) 0.8603(3)
C12 C 0.7579(3) 0.5566(3) 0.8646(3)
H6 H 0.7544 0.5548 0.9338
N3A N 1.3198(3) 0.5408(3) 0.7280(3)
N4A N 1.14656(19) 0.57817(14) 0.7322(2)
O1A O 0.92065(17) 0.59438(15) 0.9574(2)
O2A O 1.21754(17) 0.56033(13) 0.92186(19)
O3A O 1.10198(17) 0.80007(13) 0.93627(19)
C1A C 1.0522(3) 0.91091(19) 0.8436(3)
H1A H 1.0900 0.9362 0.9101
C2A C 1.0498(2) 0.83556(17) 0.8410(3)
C3A C 1.0895(3) 0.72532(17) 0.9354(3)
C4A C 1.0107(2) 0.69743(19) 0.9461(2)
H2A H 0.9637 0.7283 0.9526
C5A C 1.0022(3) 0.62292(18) 0.9472(3)
C6A C 1.0683(2) 0.5755(2) 0.9384(2)
H3A H 1.0605 0.5245 0.9389
C7A C 1.1471(3) 0.60684(18) 0.9287(3)
C8A C 1.1583(2) 0.68061(18) 0.9250(2)
H4A H 1.2116 0.7005 0.9155
C9A C 1.2243(2) 0.55996(17) 0.8224(3)
C10A C 1.3109(3) 0.5411(3) 0.8224(3)
H5A H 1.3643 0.5284 0.8895
C11A C 1.1563(2) 0.57573(18) 0.6397(3)
C12A C 1.2421(3) 0.5566(3) 0.6354(3)
H6A H 1.2456 0.5548 0.5662
Zn1A Zn 1.03057(5) 1.05799(4) 0.75564(6)
I1A I 0.941917(17) 1.113558(13) 0.562982(17)
Zn1B Zn 1.46943(5) 0.55799(4) 0.74436(6)
Zn1C Zn 0.53057(5) 0.55799(4) 0.75564(6)
N3B N 1.1802(3) 1.0408(3) 0.7720(3)
N3C N 0.8198(3) 1.0408(3) 0.7280(3)
loop_
_geom_bond_atom_site_label_1
_geom_bond_atom_site_label_2
_geom_bond_site_symmetry_1
_geom_bond_site_symmetry_2
Zn1 I1 1_555 1_555
I1 Zn1A 1_555 1_555
N1 Zn1 1_555 1_555
N2 C2 1_555 1_555
N3 C10 1_555 1_555
N4 C9 1_555 1_555
O1 C5 1_555 1_555
O2 C7 1_555 1_555
O3 C2 1_555 1_555
C1 N1 1_555 1_555
H1 C1 1_555 1_555
C2 C1 1_555 1_555
C3 O3 1_555 1_555
C4 C3 1_555 1_555
H2 C4 1_555 1_555
C5 C4 1_555 1_555
C6 C5 1_555 1_555
H3 C6 1_555 1_555
C7 C6 1_555 1_555
C8 C3 1_555 1_555
H4 C8 1_555 1_555
C9 O2 1_555 1_555
C10 C9 1_555 1_555
H5 C10 1_555 1_555
C11 N4 1_555 1_555
C12 N3 1_555 1_555
H6 C12 1_555 1_555
O4 C15 1_555 1_555
C13 H7 1_555 1_555
H8 C13 1_555 1_555
C14 C13 1_555 1_555
H9 C14 1_555 1_555
H10 C14 1_555 1_555
C15 C14 1_555 1_555
H11 C15 1_555 1_555
H12 C15 1_555 1_555
C16 O4 1_555 1_555
H13 C16 1_555 1_555
H14 C16 1_555 1_555
N3A C10A 1_555 1_555
N4A C9A 1_555 1_555
O1A C11 1_555 1_555
O2A C7A 1_555 1_555
O3A C2A 1_555 1_555
C1A N1 1_555 1_555
H1A C1A 1_555 1_555
C2A N2 1_555 1_555
C3A O3A 1_555 1_555
C4A C3A 1_555 1_555
H2A C4A 1_555 1_555
C5A O1A 1_555 1_555
C6A C5A 1_555 1_555
H3A C6A 1_555 1_555
C7A C6A 1_555 1_555
C8A C3A 1_555 1_555
H4A C8A 1_555 1_555
C9A O2A 1_555 1_555
C10A C9A 1_555 1_555
H5A C10A 1_555 1_555
C11A O1 1_555 1_555
C12A N3A 1_555 1_555
H6A C12A 1_555 1_555
Zn1A Zn1 1_555 1_555
I1A Zn1 1_555 1_555
Zn1B N3A 1_555 1_555
Zn1C N3 1_555 1_555
N3B Zn1A 1_555 1_555
N3C Zn1 1_555 1_555
N1 Zn1A 1_555 1_555
C7 C8 1_555 1_555
C11 C12 1_555 1_555
C13 C16 1_555 1_555
N4A C11A 1_555 1_555
C1A C2A 1_555 1_555
C4A C5A 1_555 1_555
C7A C8A 1_555 1_555
C11A C12A 1_555 1_555
Zn1A I1A 1_555 1_555

#END
