
#######################################################################
#
#                 Cambridge Crystallographic Data Centre
#                                CCDC 
#
#######################################################################
#
# If this CIF has been generated from an entry in the Cambridge 
# Structural Database, then it will include bibliographic, chemical, 
# crystal, experimental, refinement or atomic coordinate data resulting 
# from the CCDC's data processing and validation procedures.
#
#######################################################################

data_MIPPEI
_symmetry_cell_setting           triclinic
_symmetry_space_group_name_H-M   'P -1'
_symmetry_Int_Tables_number      2
_space_group_name_Hall           '-P 1'
loop_
_symmetry_equiv_pos_site_id
_symmetry_equiv_pos_as_xyz
1 x,y,z
2 -x,-y,-z
_cell_length_a                   9.6503(6)
_cell_length_b                   12.7719(6)
_cell_length_c                   13.0096(7)
_cell_angle_alpha                102.8800(10)
_cell_angle_beta                 93.4560(10)
_cell_angle_gamma                107.4480(10)
_cell_volume                     1477.21
loop_
_atom_site_label
_atom_site_type_symbol
_atom_site_fract_x
_atom_site_fract_y
_atom_site_fract_z
I1 I 0.18535(2) 0.726271(16) 0.086366(16)
I2 I -0.24948(2) 0.585215(17) -0.113998(15)
Zn1 Zn -0.09148(4) 0.66334(3) 0.06773(3)
O1 O -0.0238(2) 1.04747(17) 0.36687(16)
O2 O -0.4421(2) 0.91546(16) 0.12064(16)
O3 O -0.2435(2) 1.27001(18) 0.61080(16)
O4 O -0.6806(2) 1.09457(19) 0.38448(17)
O5 O -0.0035(2) 1.42034(17) 0.33857(16)
O6 O -0.4564(2) 1.28932(17) 0.13289(17)
N1 N -0.1543(3) 0.79875(19) 0.14885(18)
N2 N -0.2345(3) 0.98403(19) 0.24523(18)
N3 N -0.4593(3) 1.1830(2) 0.49533(19)
N4 N -0.6135(3) 1.2325(2) 0.6634(2)
N5 N -0.2321(3) 1.35326(19) 0.23857(19)
N6 N -0.1552(3) 1.53968(19) 0.15361(19)
C1 C -0.1122(3) 0.9692(2) 0.2803(2)
C2 C -0.0687(3) 0.8773(2) 0.2333(2)
H1 H 0.0207 0.8702 0.2607
C3 C -0.2788(3) 0.8113(2) 0.1121(2)
H2 H -0.3414 0.7567 0.0524
C4 C -0.3156(3) 0.9053(2) 0.1625(2)
C5 C -0.4680(3) 1.2636(3) 0.6774(2)
H3 H -0.4149 1.3035 0.7459
C6 C -0.3931(3) 1.2382(2) 0.5925(2)
C7 C -0.6044(3) 1.1533(2) 0.4829(2)
C8 C -0.6835(3) 1.1771(3) 0.5653(2)
H4 H -0.7874 1.1541 0.5523
C9 C -0.0592(3) 1.5257(2) 0.2239(2)
H5 H 0.0366 1.5791 0.2445
C10 C -0.1020(3) 1.4320(2) 0.2664(2)
C11 C -0.3230(3) 1.3687(2) 0.1678(2)
C12 C -0.2890(3) 1.4622(2) 0.1249(2)
H6 H -0.3593 1.4711 0.0761
C13 C -0.0600(3) 1.1471(2) 0.4022(2)
C14 C -0.1357(3) 1.1563(2) 0.4885(2)
H7 H -0.1630 1.0971 0.5239
C15 C -0.1702(3) 1.2553(2) 0.5217(2)
C16 C -0.1296(3) 1.3434(2) 0.4721(2)
H8 H -0.1539 1.4108 0.4960
C17 C -0.0524(3) 1.3296(2) 0.3868(2)
C18 C -0.0157(3) 1.2328(2) 0.3505(2)
H9 H 0.0381 1.2251 0.2920
C19 C -0.4798(3) 1.0105(2) 0.1699(2)
C20 C -0.5582(3) 1.0054(2) 0.2552(2)
H10 H -0.5833 0.9399 0.2822
C21 C -0.5986(3) 1.0979(2) 0.2994(2)
C22 C -0.5651(3) 1.1935(2) 0.2603(2)
H11 H -0.5949 1.2567 0.2911
C23 C -0.4874(3) 1.1936(2) 0.1756(2)
C24 C -0.4427(3) 1.1039(2) 0.1282(2)
H12 H -0.3888 1.1061 0.0695
Zn1_2 Zn -0.09148(4) 1.66334(3) 0.06773(3)
N6_2 N -0.1552(3) 0.53968(19) 0.15361(19)
C25 C 0.4875(4) 1.4904(3) 0.6027(3)
H13 H 0.4783 1.4839 0.6735
C26 C 0.3643(4) 1.4547(3) 0.5283(3)
H14 H 0.2705 1.4231 0.5479
C27 C 0.3760(4) 1.4647(3) 0.4253(3)
H15 H 0.2907 1.4407 0.3744
C25A C 0.5125(4) 1.5096(3) 0.3973(3)
H13A H 0.5217 1.5161 0.3265
C26A C 0.6357(4) 1.5453(3) 0.4717(3)
H14A H 0.7295 1.5769 0.4521
C27A C 0.6240(4) 1.5353(3) 0.5747(3)
H15A H 0.7093 1.5593 0.6256
C28 C -0.0489(4) 1.0862(3) 0.0527(3)
H16 H -0.0827 1.1452 0.0889
C29 C -0.1362(3) 1.0039(3) -0.0347(3)
H17 H -0.2296 1.0067 -0.0587
C30 C -0.0876(3) 0.9181(3) -0.0867(3)
H18 H -0.1479 0.8616 -0.1461
C28A C 0.0489(4) 0.9138(3) -0.0527(3)
H16A H 0.0827 0.8548 -0.0889
C29A C 0.1362(3) 0.9961(3) 0.0347(3)
H17A H 0.2296 0.9933 0.0587
C30A C 0.0876(3) 1.0819(3) 0.0867(3)
H18A H 0.1479 1.1384 0.1461
loop_
_geom_bond_atom_site_label_1
_geom_bond_atom_site_label_2
_geom_bond_site_symmetry_1
_geom_bond_site_symmetry_2
I1 Zn1 1_555 1_555
I2 Zn1 1_555 1_555
Zn1 N1 1_555 1_555
O1 C1 1_555 1_555
O2 C4 1_555 1_555
O3 C6 1_555 1_555
O4 C7 1_555 1_555
O5 C10 1_555 1_555
O6 C11 1_555 1_555
N1 C2 1_555 1_555
N2 C1 1_555 1_555
N3 C6 1_555 1_555
N4 C5 1_555 1_555
N5 C10 1_555 1_555
N6 C9 1_555 1_555
C1 C2 1_555 1_555
C2 H1 1_555 1_555
C3 N1 1_555 1_555
H2 C3 1_555 1_555
C4 N2 1_555 1_555
C5 H3 1_555 1_555
C6 C5 1_555 1_555
C7 N3 1_555 1_555
C8 N4 1_555 1_555
H4 C8 1_555 1_555
C9 H5 1_555 1_555
C10 C9 1_555 1_555
C11 N5 1_555 1_555
C12 N6 1_555 1_555
H6 C12 1_555 1_555
C13 O1 1_555 1_555
C14 C13 1_555 1_555
H7 C14 1_555 1_555
C15 O3 1_555 1_555
C16 C15 1_555 1_555
H8 C16 1_555 1_555
C17 O5 1_555 1_555
C18 C13 1_555 1_555
H9 C18 1_555 1_555
C19 O2 1_555 1_555
C20 C19 1_555 1_555
H10 C20 1_555 1_555
C21 O4 1_555 1_555
C22 C21 1_555 1_555
H11 C22 1_555 1_555
C23 O6 1_555 1_555
C24 C19 1_555 1_555
H12 C24 1_555 1_555
C25 H13 1_555 1_555
C26 C25 1_555 1_555
H14 C26 1_555 1_555
C27 C26 1_555 1_555
H15 C27 1_555 1_555
C28 H16 1_555 1_555
C29 C28 1_555 1_555
H17 C29 1_555 1_555
C30 C29 1_555 1_555
H18 C30 1_555 1_555
Zn1_2 N6 1_555 1_555
N6_2 Zn1 1_555 1_555
C25A C27 1_555 1_555
H13A C25A 1_555 1_555
C26A C25A 1_555 1_555
H14A C26A 1_555 1_555
C27A C25 1_555 1_555
H15A C27A 1_555 1_555
C28A C30 1_555 1_555
H16A C28A 1_555 1_555
C29A C28A 1_555 1_555
H17A C29A 1_555 1_555
C30A C28 1_555 1_555
H18A C30A 1_555 1_555
C3 C4 1_555 1_555
C7 C8 1_555 1_555
C11 C12 1_555 1_555
C14 C15 1_555 1_555
C16 C17 1_555 1_555
C17 C18 1_555 1_555
C20 C21 1_555 1_555
C22 C23 1_555 1_555
C23 C24 1_555 1_555
C26A C27A 1_555 1_555
C29A C30A 1_555 1_555

#END
