
#######################################################################
#
#                 Cambridge Crystallographic Data Centre
#                                CCDC 
#
#######################################################################
#
# If this CIF has been generated from an entry in the Cambridge 
# Structural Database, then it will include bibliographic, chemical, 
# crystal, experimental, refinement or atomic coordinate data resulting 
# from the CCDC's data processing and validation procedures.
#
#######################################################################

data_MIQDAS
_symmetry_cell_setting           monoclinic
_symmetry_space_group_name_H-M   'P 21/c'
_symmetry_Int_Tables_number      14
_space_group_name_Hall           '-P 2ybc'
loop_
_symmetry_equiv_pos_site_id
_symmetry_equiv_pos_as_xyz
1 x,y,z
2 -x,1/2+y,1/2-z
3 -x,-y,-z
4 x,1/2-y,1/2+z
_cell_length_a                   16.902(6)
_cell_length_b                   10.506(4)
_cell_length_c                   9.062(3)
_cell_angle_alpha                90
_cell_angle_beta                 94.524(5)
_cell_angle_gamma                90
_cell_volume                     1604.15
loop_
_atom_site_label
_atom_site_type_symbol
_atom_site_fract_x
_atom_site_fract_y
_atom_site_fract_z
Mn1 Mn 0.38752(2) 0.16805(3) 0.48515(4)
O1 O 0.29236(10) 0.11953(18) 0.61427(19)
O2 O 0.31965(11) 0.2549(2) 0.7980(2)
O3 O -0.38314(10) 0.01681(17) 0.6211(2)
O4 O 0.49544(10) 0.19729(18) 0.3702(2)
O5 O 0.40675(14) 0.3654(2) 0.5669(2)
O6 O 0.47018(10) 0.09532(17) 0.67330(19)
O7 O -0.35883(13) 0.2008(2) 0.5142(3)
O8 O -0.03665(11) 0.1240(3) 0.9084(2)
C1 C 0.19005(14) 0.1656(2) 0.7689(3)
C2 C 0.15997(15) 0.2521(3) 0.8667(3)
H1 H 0.1917 0.3182 0.9056
C3 C 0.08252(16) 0.2395(3) 0.9062(3)
H2 H 0.0621 0.2979 0.9703
C4 C 0.03620(15) 0.1401(3) 0.8501(3)
C5 C 0.06436(16) 0.0545(3) 0.7525(3)
H3 H 0.0322 -0.0115 0.7144
C6 C 0.14169(15) 0.0675(3) 0.7112(3)
H4 H 0.1611 0.0103 0.6446
C7 C 0.27333(13) 0.1810(2) 0.7253(3)
C8 C -0.10623(14) 0.1159(3) 0.8178(3)
C9 C -0.11987(17) 0.1839(3) 0.6887(4)
H5 H -0.0794 0.2309 0.6511
C10 C -0.19529(17) 0.1809(3) 0.6152(4)
H6 H -0.2054 0.2275 0.5285
C11 C -0.25562(14) 0.1095(2) 0.6694(3)
C12 C -0.23908(15) 0.0400(3) 0.7979(3)
H7 H -0.2786 -0.0101 0.8340
C13 C -0.16493(16) 0.0436(3) 0.8734(3)
H8 H -0.1548 -0.0022 0.9606
C14 C -0.33762(15) 0.1100(3) 0.5944(3)
H9 H 0.390(3) 0.378(6) 0.663(3)
H10 H 0.395(3) 0.437(3) 0.506(4)
H11 H 0.5466(11) 0.189(4) 0.418(4)
H12 H 0.493(2) 0.267(2) 0.305(3)
H13 H 0.444(2) 0.033(3) 0.725(4)
H14 H 0.5194(12) 0.058(3) 0.657(4)
Mn1C Mn 0.38752(2) 0.33195(3) 0.98515(4)
Mn1B Mn -0.38752(2) -0.16805(3) 0.51485(4)
O2C O 0.31965(11) 0.2451(2) 0.2980(2)
O3B O 0.38314(10) -0.01681(17) 0.3789(2)
O9 O 0.3864(4) 0.5615(3) 0.3709(5)
loop_
_geom_bond_atom_site_label_1
_geom_bond_atom_site_label_2
_geom_bond_site_symmetry_1
_geom_bond_site_symmetry_2
Mn1 O1 1_555 1_555
O1 C7 1_555 1_555
O2 C7 1_555 1_555
O3 C14 1_555 1_555
O4 Mn1 1_555 1_555
O5 Mn1 1_555 1_555
O6 Mn1 1_555 1_555
O7 C14 1_555 1_555
O8 C4 1_555 1_555
C1 C2 1_555 1_555
C2 H1 1_555 1_555
C3 C2 1_555 1_555
H2 C3 1_555 1_555
C4 C3 1_555 1_555
C5 C4 1_555 1_555
H3 C5 1_555 1_555
C6 C1 1_555 1_555
H4 C6 1_555 1_555
C7 C1 1_555 1_555
C8 O8 1_555 1_555
C9 C8 1_555 1_555
H5 C9 1_555 1_555
C10 C9 1_555 1_555
H6 C10 1_555 1_555
C11 C10 1_555 1_555
C12 C11 1_555 1_555
H7 C12 1_555 1_555
C13 C8 1_555 1_555
H8 C13 1_555 1_555
C14 C11 1_555 1_555
H9 O5 1_555 1_555
H10 O5 1_555 1_555
H11 O4 1_555 1_555
H12 O4 1_555 1_555
H13 O6 1_555 1_555
H14 O6 1_555 1_555
Mn1C O2 1_555 1_555
Mn1B O3 1_555 1_555
O2C Mn1 1_555 1_555
O3B Mn1 1_555 1_555
C5 C6 1_555 1_555
C12 C13 1_555 1_555

#END
