
#######################################################################
#
#                 Cambridge Crystallographic Data Centre
#                                CCDC 
#
#######################################################################
#
# If this CIF has been generated from an entry in the Cambridge 
# Structural Database, then it will include bibliographic, chemical, 
# crystal, experimental, refinement or atomic coordinate data resulting 
# from the CCDC's data processing and validation procedures.
#
#######################################################################

data_MIQRAH
_symmetry_cell_setting           monoclinic
_symmetry_space_group_name_H-M   'P 21/n'
_symmetry_Int_Tables_number      14
_space_group_name_Hall           '-P 2yn'
loop_
_symmetry_equiv_pos_site_id
_symmetry_equiv_pos_as_xyz
1 x,y,z
2 1/2-x,1/2+y,1/2-z
3 -x,-y,-z
4 1/2+x,1/2-y,1/2+z
_cell_length_a                   9.2490(2)
_cell_length_b                   20.7220(4)
_cell_length_c                   18.0289(3)
_cell_angle_alpha                90
_cell_angle_beta                 92.4420(10)
_cell_angle_gamma                90
_cell_volume                     3452.24
loop_
_atom_site_label
_atom_site_type_symbol
_atom_site_fract_x
_atom_site_fract_y
_atom_site_fract_z
W1 W 0.340621(19) 0.181376(8) 0.863211(7)
Mn1 Mn 0.22830(8) 0.44024(3) 0.77828(3)
C1 C 0.3138(5) 0.2838(2) 0.8394(2)
C2 C 0.4729(5) 0.2070(2) 0.7720(2)
C3 C 0.4606(5) 0.2253(2) 0.9538(2)
C4 C 0.5461(6) 0.1348(2) 0.8832(2)
C5 C 0.2956(6) 0.1044(2) 0.9384(2)
C6 C 0.3423(5) 0.0928(2) 0.7995(2)
C7 C 0.1598(5) 0.2249(2) 1.0022(2)
H1 H 0.2499 0.2237 1.0271
C8 C 0.0397(6) 0.2401(3) 1.0419(3)
H2 H 0.0491 0.2502 1.0922
C9 C -0.0929(6) 0.2400(3) 1.0056(3)
H3 H -0.1758 0.2488 1.0311
C10 C -0.1026(5) 0.2267(3) 0.9309(3)
H4 H -0.1923 0.2270 0.9055
C11 C 0.0214(5) 0.2128(2) 0.8936(2)
C12 C 0.0193(5) 0.2001(2) 0.8139(2)
C13 C -0.1036(6) 0.2031(3) 0.7687(3)
H5 H -0.1930 0.2104 0.7888
C14 C -0.0936(7) 0.1950(3) 0.6931(3)
H6 H -0.1764 0.1968 0.6621
C15 C 0.0388(6) 0.1844(2) 0.6640(2)
H7 H 0.0474 0.1799 0.6130
C16 C 0.1577(6) 0.1805(2) 0.7113(2)
H8 H 0.2474 0.1728 0.6916
C17 C 0.2826(7) 0.4056(3) 0.6303(3)
H9 H 0.3148 0.4230 0.5838
H10 H 0.3108 0.3606 0.6329
C18 C 0.1248(7) 0.4102(3) 0.6311(3)
H11 H 0.0814 0.3756 0.6014
H12 H 0.0931 0.4510 0.6097
C19 C -0.0530(7) 0.3869(2) 0.7228(2)
C20 C -0.1556(7) 0.3662(3) 0.6588(3)
H13 H -0.1611 0.3996 0.6219
H14 H -0.2501 0.3586 0.6770
H15 H -0.1202 0.3273 0.6371
C21 C -0.1070(6) 0.3868(2) 0.7974(2)
C22 C -0.2450(6) 0.3615(3) 0.8129(3)
H16 H -0.3005 0.3430 0.7743
C23 C -0.2996(6) 0.3632(3) 0.8815(3)
H17 H -0.3907 0.3460 0.8892
C24 C -0.2185(6) 0.3909(2) 0.9407(3)
C25 C -0.1973(6) 0.4180(3) 1.0691(3)
H18 H -0.1126 0.3922 1.0793
H19 H -0.2550 0.4189 1.1121
H20 H -0.1689 0.4612 1.0570
C26 C -0.0852(5) 0.4171(2) 0.9285(2)
H21 H -0.0319 0.4358 0.9678
C27 C -0.0287(5) 0.4161(2) 0.8581(2)
C28 C 0.4981(5) 0.5012(2) 0.8228(2)
C29 C 0.5757(5) 0.5310(2) 0.8821(2)
H22 H 0.5369 0.5317 0.9289
C30 C 0.7082(6) 0.5590(2) 0.8721(3)
C31 C 0.7194(6) 0.6010(3) 0.9956(3)
H23 H 0.6274 0.6218 0.9871
H24 H 0.7808 0.6278 1.0270
H25 H 0.7055 0.5601 1.0193
C32 C 0.7664(6) 0.5574(3) 0.8027(3)
H26 H 0.8582 0.5743 0.7961
C33 C 0.6895(6) 0.5310(3) 0.7438(3)
H27 H 0.7294 0.5322 0.6973
C34 C 0.5522(5) 0.5019(2) 0.7500(2)
C35 C 0.4769(6) 0.4719(2) 0.6868(2)
C36 C 0.5401(7) 0.4780(3) 0.6108(3)
H28 H 0.5673 0.4360 0.5936
H29 H 0.6239 0.5054 0.6141
H30 H 0.4691 0.4964 0.5766
N1 N 0.2907(5) 0.3351(2) 0.8204(2)
N2 N 0.5423(5) 0.2218(2) 0.7242(2)
N3 N 0.5245(5) 0.2476(2) 1.0026(2)
N4 N 0.6571(5) 0.1105(2) 0.8942(2)
N5 N 0.2671(6) 0.0650(2) 0.9791(2)
N6 N 0.3368(5) 0.0472(2) 0.7652(2)
N7 N 0.1518(4) 0.21180(18) 0.92901(17)
N8 N 0.1504(4) 0.18727(16) 0.78585(17)
N9 N 0.0774(5) 0.40532(19) 0.70864(18)
N10 N 0.3552(5) 0.44102(19) 0.69280(19)
O1 O 0.0971(3) 0.44520(15) 0.85252(14)
O2 O 0.3747(3) 0.47394(15) 0.83949(15)
O3 O -0.2806(4) 0.39067(18) 1.0075(2)
O4 O 0.7852(4) 0.59118(19) 0.9265(2)
Mn1A Mn 0.27170(8) -0.05976(3) 0.72172(3)
N6A N 0.1632(5) 0.5472(2) 0.7348(2)
loop_
_geom_bond_atom_site_label_1
_geom_bond_atom_site_label_2
_geom_bond_site_symmetry_1
_geom_bond_site_symmetry_2
W1 C1 1_555 1_555
Mn1 N1 1_555 1_555
C1 N1 1_555 1_555
C2 W1 1_555 1_555
C3 W1 1_555 1_555
C4 W1 1_555 1_555
C5 W1 1_555 1_555
C6 W1 1_555 1_555
C7 H1 1_555 1_555
C8 C7 1_555 1_555
H2 C8 1_555 1_555
C9 C8 1_555 1_555
H3 C9 1_555 1_555
C10 C9 1_555 1_555
H4 C10 1_555 1_555
C11 C10 1_555 1_555
C12 C11 1_555 1_555
C13 C12 1_555 1_555
H5 C13 1_555 1_555
C14 C13 1_555 1_555
H6 C14 1_555 1_555
C15 C14 1_555 1_555
H7 C15 1_555 1_555
C16 C15 1_555 1_555
H8 C16 1_555 1_555
C17 H9 1_555 1_555
H10 C17 1_555 1_555
C18 C17 1_555 1_555
H11 C18 1_555 1_555
H12 C18 1_555 1_555
C19 C20 1_555 1_555
C20 H13 1_555 1_555
H14 C20 1_555 1_555
H15 C20 1_555 1_555
C21 C19 1_555 1_555
C22 C21 1_555 1_555
H16 C22 1_555 1_555
C23 C22 1_555 1_555
H17 C23 1_555 1_555
C24 C23 1_555 1_555
C25 H18 1_555 1_555
H19 C25 1_555 1_555
H20 C25 1_555 1_555
C26 C24 1_555 1_555
H21 C26 1_555 1_555
C27 C21 1_555 1_555
C28 C29 1_555 1_555
C29 H22 1_555 1_555
C30 C29 1_555 1_555
C31 H23 1_555 1_555
H24 C31 1_555 1_555
H25 C31 1_555 1_555
C32 C30 1_555 1_555
H26 C32 1_555 1_555
C33 C32 1_555 1_555
H27 C33 1_555 1_555
C34 C28 1_555 1_555
C35 C34 1_555 1_555
C36 C35 1_555 1_555
H28 C36 1_555 1_555
H29 C36 1_555 1_555
H30 C36 1_555 1_555
N2 C2 1_555 1_555
N3 C3 1_555 1_555
N4 C4 1_555 1_555
N5 C5 1_555 1_555
N6 C6 1_555 1_555
N7 W1 1_555 1_555
N8 W1 1_555 1_555
N9 Mn1 1_555 1_555
N10 Mn1 1_555 1_555
O1 Mn1 1_555 1_555
O2 Mn1 1_555 1_555
O3 C24 1_555 1_555
O4 C30 1_555 1_555
Mn1A N6 1_555 1_555
N6A Mn1 1_555 1_555
C7 N7 1_555 1_555
C11 N7 1_555 1_555
C12 N8 1_555 1_555
C16 N8 1_555 1_555
C17 N10 1_555 1_555
C18 N9 1_555 1_555
C19 N9 1_555 1_555
C25 O3 1_555 1_555
C26 C27 1_555 1_555
C27 O1 1_555 1_555
C28 O2 1_555 1_555
C31 O4 1_555 1_555
C33 C34 1_555 1_555
C35 N10 1_555 1_555

#END
