
#######################################################################
#
#                 Cambridge Crystallographic Data Centre
#                                CCDC 
#
#######################################################################
#
# If this CIF has been generated from an entry in the Cambridge 
# Structural Database, then it will include bibliographic, chemical, 
# crystal, experimental, refinement or atomic coordinate data resulting 
# from the CCDC's data processing and validation procedures.
#
#######################################################################

data_MIQRUB
_symmetry_cell_setting           orthorhombic
_symmetry_space_group_name_H-M   'P b c n'
_symmetry_Int_Tables_number      60
_space_group_name_Hall           '-P 2n 2ab'
loop_
_symmetry_equiv_pos_site_id
_symmetry_equiv_pos_as_xyz
1 x,y,z
2 1/2-x,1/2-y,1/2+z
3 -x,y,1/2-z
4 1/2+x,1/2-y,-z
5 -x,-y,-z
6 1/2+x,1/2+y,1/2-z
7 x,-y,1/2+z
8 1/2-x,1/2+y,z
_cell_length_a                   35.34(3)
_cell_length_b                   9.224(9)
_cell_length_c                   21.82(2)
_cell_angle_alpha                90
_cell_angle_beta                 90
_cell_angle_gamma                90
_cell_volume                     7112.8
loop_
_atom_site_label
_atom_site_type_symbol
_atom_site_fract_x
_atom_site_fract_y
_atom_site_fract_z
W1 W 0.39163(2) 1.02938(7) 0.41249(3)
Mn1 Mn 0.36130(8) 1.0275(3) 0.16435(13)
C1 C 0.3737(5) 1.0315(19) 0.5076(8)
C2 C 0.3483(5) 1.1898(19) 0.4221(8)
C3 C 0.4388(6) 1.106(2) 0.4653(9)
C4 C 0.4141(6) 1.225(2) 0.3734(10)
C5 C 0.4346(7) 0.956(2) 0.3513(10)
C6 C 0.3689(6) 1.0479(19) 0.3193(10)
C7 C 0.4462(7) 0.789(2) 0.4659(9)
H1 H 0.4634 0.8650 0.4673
C8 C 0.4583(6) 0.653(3) 0.4854(10)
H2 H 0.4820 0.6392 0.5030
C9 C 0.4337(7) 0.543(2) 0.4771(10)
H3 H 0.4420 0.4482 0.4831
C10 C 0.3972(7) 0.566(2) 0.4604(10)
H4 H 0.3801 0.4892 0.4591
C11 C 0.3860(7) 0.7048(19) 0.4455(8)
C12 C 0.3481(6) 0.737(2) 0.4276(7)
C13 C 0.3188(7) 0.645(2) 0.4288(10)
H5 H 0.3229 0.5492 0.4408
C14 C 0.2847(7) 0.684(2) 0.4137(10)
H6 H 0.2650 0.6177 0.4150
C15 C 0.2780(6) 0.825(2) 0.3957(9)
H7 H 0.2536 0.8560 0.3861
C16 C 0.3081(6) 0.9192(19) 0.3922(7)
H8 H 0.3039 1.0133 0.3785
C17 C 0.4701(9) 1.210(4) 0.1636(15)
H9 H 0.4759 1.1851 0.1220
H10 H 0.4912 1.1865 0.1894
H11 H 0.4649 1.3119 0.1663
C18 C 0.4375(7) 1.130(2) 0.1833(11)
H12 H 0.4364 1.1351 0.2281
C19 C 0.4403(6) 0.966(2) 0.1653(10)
H13 H 0.4449 0.9566 0.1217
H14 H 0.4608 0.9201 0.1873
C20 C 0.4030(6) 0.783(2) 0.2125(8)
H15 H 0.4258 0.7443 0.2259
C21 C 0.3707(7) 0.710(2) 0.2275(8)
C22 C 0.3727(8) 0.584(3) 0.2622(10)
H16 H 0.3964 0.5513 0.2745
C23 C 0.3424(7) 0.506(2) 0.2789(8)
H17 H 0.3451 0.4239 0.3035
C24 C 0.3057(7) 0.550(2) 0.2585(8)
C25 C 0.2381(7) 0.514(2) 0.2516(11)
H18 H 0.2328 0.6111 0.2642
H19 H 0.2188 0.4500 0.2668
H20 H 0.2388 0.5087 0.2077
C26 C 0.3011(7) 0.672(2) 0.2210(9)
H21 H 0.2776 0.6969 0.2054
C27 C 0.3334(6) 0.753(2) 0.2077(9)
C28 C 0.3247(6) 1.290(2) 0.1230(8)
C29 C 0.2915(6) 1.351(2) 0.0997(8)
H22 H 0.2688 1.3009 0.1031
C30 C 0.2921(7) 1.480(3) 0.0727(11)
C31 C 0.2274(6) 1.470(2) 0.0465(10)
H23 H 0.2319 1.3747 0.0299
H24 H 0.2090 1.5190 0.0216
H25 H 0.2180 1.4611 0.0876
C32 C 0.3270(7) 1.5604(19) 0.0712(8)
H26 H 0.3274 1.6525 0.0538
C33 C 0.3601(6) 1.502(3) 0.0954(10)
H27 H 0.3824 1.5559 0.0957
C34 C 0.3590(8) 1.360(2) 0.1198(10)
C35 C 0.3944(7) 1.306(2) 0.1399(10)
H28 H 0.4149 1.3689 0.1389
N1 N 0.3678(5) 1.0126(14) 0.5579(7)
N2 N 0.3256(5) 1.2753(16) 0.4257(7)
N3 N 0.4617(5) 1.1521(17) 0.4958(8)
N4 N 0.4258(6) 1.323(2) 0.3508(9)
N5 N 0.4571(6) 0.909(2) 0.3220(9)
N6 N 0.3584(5) 1.0586(17) 0.2703(7)
N7 N 0.4118(5) 0.8161(14) 0.4456(7)
N8 N 0.3432(4) 0.8800(15) 0.4077(7)
N9 N 0.4005(5) 1.176(2) 0.1595(8)
N10 N 0.4045(4) 0.9007(19) 0.1816(7)
O1 O 0.3230(4) 1.1605(13) 0.1479(6)
O2 O 0.3285(4) 0.8673(13) 0.1710(5)
O3 O 0.2616(5) 1.5494(16) 0.0467(7)
O4 O 0.2741(5) 0.4697(16) 0.2758(7)
Mn1F Mn 0.36130(8) 0.9725(3) 0.66435(13)
N1F N 0.3678(5) 0.9874(14) 0.0579(7)
O5 O 0.4610(7) 0.598(3) 0.1160(11)
O6 O 0.4807(7) 1.5714(18) 0.3175(10)
loop_
_geom_bond_atom_site_label_1
_geom_bond_atom_site_label_2
_geom_bond_site_symmetry_1
_geom_bond_site_symmetry_2
W1 C1 1_555 1_555
Mn1 N6 1_555 1_555
C1 N1 1_555 1_555
C2 W1 1_555 1_555
C3 W1 1_555 1_555
C4 W1 1_555 1_555
C5 W1 1_555 1_555
C6 W1 1_555 1_555
C7 H1 1_555 1_555
C8 C7 1_555 1_555
H2 C8 1_555 1_555
C9 C8 1_555 1_555
H3 C9 1_555 1_555
C10 C9 1_555 1_555
H4 C10 1_555 1_555
C11 C10 1_555 1_555
C12 C11 1_555 1_555
C13 C12 1_555 1_555
H5 C13 1_555 1_555
C14 C13 1_555 1_555
H6 C14 1_555 1_555
C15 C14 1_555 1_555
H7 C15 1_555 1_555
C16 C15 1_555 1_555
H8 C16 1_555 1_555
C17 H9 1_555 1_555
H10 C17 1_555 1_555
H11 C17 1_555 1_555
C18 C17 1_555 1_555
H12 C18 1_555 1_555
C19 C18 1_555 1_555
H13 C19 1_555 1_555
H14 C19 1_555 1_555
C20 H15 1_555 1_555
C21 C20 1_555 1_555
C22 C21 1_555 1_555
H16 C22 1_555 1_555
C23 C22 1_555 1_555
H17 C23 1_555 1_555
C24 C23 1_555 1_555
C25 H18 1_555 1_555
H19 C25 1_555 1_555
H20 C25 1_555 1_555
C26 C24 1_555 1_555
H21 C26 1_555 1_555
C27 C21 1_555 1_555
C28 C29 1_555 1_555
C29 H22 1_555 1_555
C30 C29 1_555 1_555
C31 H23 1_555 1_555
H24 C31 1_555 1_555
H25 C31 1_555 1_555
C32 C30 1_555 1_555
H26 C32 1_555 1_555
C33 C32 1_555 1_555
H27 C33 1_555 1_555
C34 C28 1_555 1_555
C35 C34 1_555 1_555
H28 C35 1_555 1_555
N1 Mn1F 1_555 1_555
N2 C2 1_555 1_555
N3 C3 1_555 1_555
N4 C4 1_555 1_555
N5 C5 1_555 1_555
N6 C6 1_555 1_555
N7 W1 1_555 1_555
N8 W1 1_555 1_555
N9 Mn1 1_555 1_555
N10 Mn1 1_555 1_555
O1 Mn1 1_555 1_555
O2 Mn1 1_555 1_555
O3 C30 1_555 1_555
O4 C24 1_555 1_555
N1F Mn1 1_555 1_555
C7 N7 1_555 1_555
C11 N7 1_555 1_555
C12 N8 1_555 1_555
C16 N8 1_555 1_555
C18 N9 1_555 1_555
C19 N10 1_555 1_555
C20 N10 1_555 1_555
C25 O4 1_555 1_555
C26 C27 1_555 1_555
C27 O2 1_555 1_555
C28 O1 1_555 1_555
C31 O3 1_555 1_555
C33 C34 1_555 1_555
C35 N9 1_555 1_555

#END
