
#######################################################################
#
#                 Cambridge Crystallographic Data Centre
#                                CCDC 
#
#######################################################################
#
# If this CIF has been generated from an entry in the Cambridge 
# Structural Database, then it will include bibliographic, chemical, 
# crystal, experimental, refinement or atomic coordinate data resulting 
# from the CCDC's data processing and validation procedures.
#
#######################################################################

data_MIQTUD
_symmetry_cell_setting           orthorhombic
_symmetry_space_group_name_H-M   'P 21 21 21'
_symmetry_Int_Tables_number      19
_space_group_name_Hall           'P 2ac 2ab'
loop_
_symmetry_equiv_pos_site_id
_symmetry_equiv_pos_as_xyz
1 x,y,z
2 1/2-x,-y,1/2+z
3 -x,1/2+y,1/2-z
4 1/2+x,1/2-y,-z
_cell_length_a                   7.107(2)
_cell_length_b                   8.357(3)
_cell_length_c                   26.572(9)
_cell_angle_alpha                90
_cell_angle_beta                 90
_cell_angle_gamma                90
_cell_volume                     1578.2
loop_
_atom_site_label
_atom_site_type_symbol
_atom_site_fract_x
_atom_site_fract_y
_atom_site_fract_z
Zn1 Zn 0.27933(4) 0.95691(3) 0.002416(11)
O1 O 0.0815(3) 0.7681(2) 0.00560(8)
O2 O -0.0968(3) 0.6305(2) 0.05870(7)
N1 N 0.1239(3) 1.1430(3) -0.02398(8)
N2 N 0.0999(4) 1.1924(3) -0.07167(9)
N3 N 0.0271(4) 1.3355(3) -0.07069(9)
N4 N 0.0022(3) 1.3821(3) -0.02211(9)
N5 N 0.1813(3) 0.9732(3) 0.07851(7)
H1 H 0.2775 1.0067 0.0985
N6 N 0.5607(5) 0.9214(5) 0.21084(14)
H2 H 0.6547 0.9760 0.2218
C1 C 0.0637(3) 1.2601(3) 0.00553(12)
C2 C 0.0656(5) 1.2537(3) 0.06237(11)
H3 H -0.0268 1.3286 0.0753
H4 H 0.1883 1.2873 0.0744
C3 C 0.0227(4) 1.0875(3) 0.08296(11)
H5 H -0.0116 1.0970 0.1182
H6 H -0.0850 1.0443 0.0651
C4 C 0.1242(4) 0.8114(3) 0.09397(10)
H7 H 0.0332 0.8196 0.1216
C5 C 0.0296(4) 0.7319(3) 0.04900(11)
C6 C 0.2947(5) 0.7132(3) 0.11176(11)
H8 H 0.2558 0.6040 0.1184
H9 H 0.3890 0.7109 0.0854
C7 C 0.3776(5) 0.7839(4) 0.15828(12)
C8 C 0.5411(6) 0.8678(6) 0.16268(16)
H10 H 0.6264 0.8858 0.1368
C9 C 0.2925(5) 0.7870(4) 0.20649(11)
C10 C 0.1271(7) 0.7261(6) 0.22648(13)
H11 H 0.0463 0.6671 0.2061
C11 C 0.0811(9) 0.7524(7) 0.27668(17)
H12 H -0.0301 0.7113 0.2898
C12 C 0.2005(9) 0.8394(7) 0.30674(17)
H13 H 0.1679 0.8557 0.3402
C13 C 0.3630(9) 0.9021(6) 0.28965(17)
H14 H 0.4417 0.9606 0.3107
C14 C 0.4096(7) 0.8762(5) 0.23908(15)
Zn1C Zn -0.22067(4) 0.54309(3) -0.002416(11)
Zn1C_2 Zn -0.22067(4) 1.54309(3) -0.002416(11)
O2C O 0.4032(3) 0.8695(2) -0.05870(7)
N4C N 0.5022(3) 1.1179(3) 0.02211(9)
loop_
_geom_bond_atom_site_label_1
_geom_bond_atom_site_label_2
_geom_bond_site_symmetry_1
_geom_bond_site_symmetry_2
Zn1 O1 1_555 1_555
O1 C5 1_555 1_555
O2 C5 1_555 1_555
N1 Zn1 1_555 1_555
N2 N1 1_555 1_555
N3 N2 1_555 1_555
N4 N3 1_555 1_555
N5 Zn1 1_555 1_555
H1 N5 1_555 1_555
N6 H2 1_555 1_555
C1 N1 1_555 1_555
C2 C1 1_555 1_555
H3 C2 1_555 1_555
H4 C2 1_555 1_555
C3 N5 1_555 1_555
H5 C3 1_555 1_555
H6 C3 1_555 1_555
C4 N5 1_555 1_555
H7 C4 1_555 1_555
C5 C4 1_555 1_555
C6 C4 1_555 1_555
H8 C6 1_555 1_555
H9 C6 1_555 1_555
C7 C6 1_555 1_555
C8 N6 1_555 1_555
H10 C8 1_555 1_555
C9 C7 1_555 1_555
C10 C9 1_555 1_555
H11 C10 1_555 1_555
C11 C10 1_555 1_555
H12 C11 1_555 1_555
C12 C11 1_555 1_555
H13 C12 1_555 1_555
C13 C12 1_555 1_555
H14 C13 1_555 1_555
C14 N6 1_555 1_555
Zn1C O2 1_555 1_555
Zn1C_2 N4 1_555 1_555
O2C Zn1 1_555 1_555
N4C Zn1 1_555 1_555
N4 C1 1_555 1_555
C2 C3 1_555 1_555
C7 C8 1_555 1_555
C9 C14 1_555 1_555
C13 C14 1_555 1_555

#END
