
#######################################################################
#
#                 Cambridge Crystallographic Data Centre
#                                CCDC 
#
#######################################################################
#
# If this CIF has been generated from an entry in the Cambridge 
# Structural Database, then it will include bibliographic, chemical, 
# crystal, experimental, refinement or atomic coordinate data resulting 
# from the CCDC's data processing and validation procedures.
#
#######################################################################

data_MIQWOZ
_symmetry_cell_setting           monoclinic
_symmetry_space_group_name_H-M   'P 21/c'
_symmetry_Int_Tables_number      14
_space_group_name_Hall           '-P 2ybc'
loop_
_symmetry_equiv_pos_site_id
_symmetry_equiv_pos_as_xyz
1 x,y,z
2 -x,1/2+y,1/2-z
3 -x,-y,-z
4 x,1/2-y,1/2+z
_cell_length_a                   9.6365(19)
_cell_length_b                   17.140(3)
_cell_length_c                   8.4144(17)
_cell_angle_alpha                90
_cell_angle_beta                 90.68(3)
_cell_angle_gamma                90
_cell_volume                     1389.71
loop_
_atom_site_label
_atom_site_type_symbol
_atom_site_fract_x
_atom_site_fract_y
_atom_site_fract_z
Cd1 Cd 0.216980(16) 0.149141(9) 0.29728(2)
O1 O 0.04393(18) 0.05514(11) 0.2587(2)
O2 O 0.22377(18) 0.01572(10) 0.4022(2)
O3 O -0.20190(18) -0.20600(10) 0.4529(2)
O4 O -0.06832(19) -0.25630(11) 0.2651(2)
N1 N 0.3193(2) 0.11138(11) 0.0587(2)
N2 N 0.45379(19) 0.16375(11) 0.3256(2)
C1 C 0.2543(3) 0.08390(16) -0.0704(3)
H1 H 0.1581 0.0797 -0.0696
C2 C 0.3253(4) 0.06101(18) -0.2075(3)
H2 H 0.2767 0.0420 -0.2954
C3 C 0.4649(3) 0.06691(16) -0.2103(3)
H3 H 0.5130 0.0520 -0.3006
C4 C 0.5380(3) 0.09571(14) -0.0763(3)
C5 C 0.6862(3) 0.10271(18) -0.0697(4)
H4 H 0.7373 0.0912 -0.1599
C6 C 0.7533(3) 0.12547(19) 0.0633(4)
H5 H 0.8497 0.1287 0.0648
C7 C 0.6766(3) 0.14488(14) 0.2034(3)
C8 C 0.7421(3) 0.16644(18) 0.3470(4)
H6 H 0.8384 0.1681 0.3543
C9 C 0.6646(3) 0.18468(17) 0.4740(4)
H7 H 0.7070 0.1975 0.5703
C10 C 0.5198(3) 0.18415(14) 0.4597(3)
H8 H 0.4675 0.1986 0.5470
C11 C 0.5307(2) 0.14312(12) 0.1989(3)
C12 C 0.4596(2) 0.11687(13) 0.0562(3)
C13 C 0.1090(2) 0.00483(13) 0.3364(3)
C14 C 0.0436(2) -0.07199(14) 0.3495(3)
C15 C -0.0146(2) -0.13369(14) 0.3593(3)
C16 C -0.1001(2) -0.20456(13) 0.3621(3)
Cd1B Cd -0.216980(16) -0.149141(9) 0.70272(2)
Cd1A Cd -0.216980(16) -0.350859(9) 0.20272(2)
O3B O 0.20190(18) 0.20600(10) 0.5471(2)
O4A O 0.06832(19) 0.24370(11) 0.2349(2)
loop_
_geom_bond_atom_site_label_1
_geom_bond_atom_site_label_2
_geom_bond_site_symmetry_1
_geom_bond_site_symmetry_2
Cd1 O1 1_555 1_555
O1 C13 1_555 1_555
O2 Cd1 1_555 1_555
O3 C16 1_555 1_555
O4 C16 1_555 1_555
N1 Cd1 1_555 1_555
N2 Cd1 1_555 1_555
C1 N1 1_555 1_555
H1 C1 1_555 1_555
C2 C1 1_555 1_555
H2 C2 1_555 1_555
C3 C2 1_555 1_555
H3 C3 1_555 1_555
C4 C3 1_555 1_555
C5 C4 1_555 1_555
H4 C5 1_555 1_555
C6 C5 1_555 1_555
H5 C6 1_555 1_555
C7 C6 1_555 1_555
C8 C7 1_555 1_555
H6 C8 1_555 1_555
C9 C8 1_555 1_555
H7 C9 1_555 1_555
C10 N2 1_555 1_555
H8 C10 1_555 1_555
C11 N2 1_555 1_555
C12 N1 1_555 1_555
C13 O2 1_555 1_555
C14 C13 1_555 1_555
C15 C14 1_555 1_555
C16 C15 1_555 1_555
Cd1B O3 1_555 1_555
Cd1A O4 1_555 1_555
O3B Cd1 1_555 1_555
O4A Cd1 1_555 1_555
C4 C12 1_555 1_555
C7 C11 1_555 1_555
C9 C10 1_555 1_555
C11 C12 1_555 1_555

#END
