
#######################################################################
#
#                 Cambridge Crystallographic Data Centre
#                                CCDC 
#
#######################################################################
#
# If this CIF has been generated from an entry in the Cambridge 
# Structural Database, then it will include bibliographic, chemical, 
# crystal, experimental, refinement or atomic coordinate data resulting 
# from the CCDC's data processing and validation procedures.
#
#######################################################################

data_MIQXAN
_symmetry_cell_setting           monoclinic
_symmetry_space_group_name_H-M   'C 2/c'
_symmetry_Int_Tables_number      15
_space_group_name_Hall           '-C 2yn'
loop_
_symmetry_equiv_pos_site_id
_symmetry_equiv_pos_as_xyz
1 x,y,z
2 -x,y,1/2-z
3 1/2+x,1/2+y,z
4 1/2-x,1/2+y,1/2-z
5 -x,-y,-z
6 x,-y,1/2+z
7 1/2-x,1/2-y,-z
8 1/2+x,1/2-y,1/2+z
_cell_length_a                   24.1725(15)
_cell_length_b                   9.3476(6)
_cell_length_c                   15.7257(10)
_cell_angle_alpha                90
_cell_angle_beta                 126.4680(10)
_cell_angle_gamma                90
_cell_volume                     2857.52
loop_
_atom_site_label
_atom_site_type_symbol
_atom_site_fract_x
_atom_site_fract_y
_atom_site_fract_z
Cu1 Cu 0.0000 0.0000 0.5000
O1 O -0.00054(11) -0.1533(2) 0.58701(16)
N1 N 0.08493(12) -0.0849(3) 0.52217(19)
C1 C 0.08639(17) -0.1134(4) 0.4400(3)
H1 H 0.0481 -0.0904 0.3723
O2 O -0.06889(12) -0.1553(3) 0.34443(19)
H2 H -0.1079 -0.1682 0.3319
H3 H -0.0750 -0.0963 0.2985
O3 O 0.06531(13) -0.0738(3) 0.75418(18)
N2 N 0.28185(14) -0.1033(3) 0.8184(2)
H4 H 0.2606 -0.0227 0.7973
C2 C 0.1420(2) -0.1752(5) 0.4518(3)
H5 H 0.1410 -0.1948 0.3929
O4 O 0.29215(12) -0.3211(3) 0.7655(2)
C3 C 0.19905(18) -0.2078(5) 0.5513(3)
H6 H 0.2366 -0.2527 0.5606
C4 C 0.19996(15) -0.1729(3) 0.6378(2)
C5 C 0.14135(15) -0.1138(3) 0.6192(2)
H7 H 0.1411 -0.0931 0.6768
C6 C 0.26207(15) -0.2050(4) 0.7471(3)
C7 C 0.33784(19) -0.1200(5) 0.9313(3)
H8 H 0.3669 -0.0357 0.9567
H9 H 0.3658 -0.2019 0.9413
C8 C 0.3099(3) -0.1408(11) 0.9933(4)
H10 H 0.3492 -0.1560 1.0661
H11 H 0.2897 -0.0501 0.9917
C9 C 0.2646(4) -0.2403(12) 0.9715(5)
H12 H 0.2854 -0.3310 0.9753
H13 H 0.2260 -0.2269 0.8979
C10 C 0.01176(15) -0.2997(3) 0.7184(2)
C11 C 0.02217(19) -0.4303(4) 0.6881(3)
C12 C 0.0114(2) -0.5589(4) 0.7185(3)
H14 H 0.0191 -0.6446 0.6972
C13 C 0.02721(15) -0.1626(3) 0.6852(2)
N3 N 0.0480(4) -0.4434(7) 0.6301(5)
O5 O 0.1041(3) -0.3896(7) 0.6679(6)
O6 O 0.0153(5) -0.5111(10) 0.5474(6)
O1A O 0.00054(11) -0.1533(2) 0.91299(16)
O3A O -0.06531(13) -0.0738(3) 0.74582(18)
C10A C -0.01176(15) -0.2997(3) 0.7816(2)
C11A C -0.02217(19) -0.4303(4) 0.8119(3)
C12A C -0.0114(2) -0.5589(4) 0.7815(3)
H14A H -0.0191 -0.6446 0.8028
C13A C -0.02721(15) -0.1626(3) 0.8148(2)
N3A N -0.0480(4) -0.4434(7) 0.8699(5)
O5A O -0.1041(3) -0.3896(7) 0.8321(6)
O6A O -0.0153(5) -0.5111(10) 0.9526(6)
N1F N 0.41507(12) -0.4151(3) 1.47783(19)
C1F C 0.41361(17) -0.3866(4) 1.5600(3)
H1F H 0.4519 -0.4096 1.6277
N2F N 0.21815(14) -0.3967(3) 1.1816(2)
H4F H 0.2394 -0.4773 1.2027
C2F C 0.3580(2) -0.3248(5) 1.5482(3)
H5F H 0.3590 -0.3052 1.6071
O4F O 0.20785(12) -0.1789(3) 1.2345(2)
C3F C 0.30095(18) -0.2922(5) 1.4487(3)
H6F H 0.2634 -0.2473 1.4394
C4F C 0.30004(15) -0.3271(3) 1.3622(2)
C5F C 0.35865(15) -0.3862(3) 1.3808(2)
H7F H 0.3589 -0.4069 1.3232
C6F C 0.23793(15) -0.2950(4) 1.2529(3)
C7F C 0.16216(19) -0.3800(5) 1.0687(3)
H8F H 0.1331 -0.4643 1.0433
H9F H 0.1342 -0.2981 1.0587
C8F C 0.1901(3) -0.3592(11) 1.0067(4)
H10F H 0.1508 -0.3440 0.9339
H11F H 0.2103 -0.4499 1.0083
C9F C 0.2354(4) -0.2597(12) 1.0285(5)
H12F H 0.2146 -0.1690 1.0247
H13F H 0.2740 -0.2731 1.1021
O2D O 0.06889(12) 0.1553(3) 0.65557(19)
H2D H 0.1079 0.1682 0.6681
H3D H 0.0750 0.0963 0.7015
Cu1A Cu 0.0000 0.0000 1.0000
Cu1B Cu 0.5000 -0.5000 1.5000
O1D O 0.00054(11) 0.1533(2) 0.41299(16)
N1D N -0.08493(12) 0.0849(3) 0.47783(19)
O6D O -0.0153(5) -0.4889(10) 0.4526(6)
O6E O 0.0153(5) -0.4889(10) 1.0474(6)
loop_
_geom_bond_atom_site_label_1
_geom_bond_atom_site_label_2
_geom_bond_site_symmetry_1
_geom_bond_site_symmetry_2
Cu1 O1 1_555 1_555
O1 C13 1_555 1_555
N1 Cu1 1_555 1_555
C1 N1 1_555 1_555
H1 C1 1_555 1_555
O2 Cu1 1_555 1_555
H2 O2 1_555 1_555
H3 O2 1_555 1_555
O3 C13 1_555 1_555
N2 H4 1_555 1_555
C2 C1 1_555 1_555
H5 C2 1_555 1_555
O4 C6 1_555 1_555
C3 C2 1_555 1_555
H6 C3 1_555 1_555
C4 C3 1_555 1_555
C5 N1 1_555 1_555
H7 C5 1_555 1_555
C6 N2 1_555 1_555
C7 N2 1_555 1_555
H8 C7 1_555 1_555
H9 C7 1_555 1_555
C8 C7 1_555 1_555
H10 C8 1_555 1_555
H11 C8 1_555 1_555
C9 C8 1_555 1_555
H12 C9 1_555 1_555
H13 C9 1_555 1_555
C10 C11 1_555 1_555
C11 C12 1_555 1_555
C12 H14 1_555 1_555
C13 C10 1_555 1_555
N3 C11 1_555 1_555
O5 N3 1_555 1_555
O6 N3 1_555 1_555
O1A C13A 1_555 1_555
O3A C13A 1_555 1_555
C10A C10 1_555 1_555
C11A C10A 1_555 1_555
C12A C12 1_555 1_555
H14A C12A 1_555 1_555
C13A C10A 1_555 1_555
N3A C11A 1_555 1_555
O5A N3A 1_555 1_555
O6A N3A 1_555 1_555
N1F C1F 1_555 1_555
C1F H1F 1_555 1_555
N2F H4F 1_555 1_555
C2F C1F 1_555 1_555
H5F C2F 1_555 1_555
O4F C6F 1_555 1_555
C3F C2F 1_555 1_555
H6F C3F 1_555 1_555
C4F C3F 1_555 1_555
C5F N1F 1_555 1_555
H7F C5F 1_555 1_555
C6F N2F 1_555 1_555
C7F N2F 1_555 1_555
H8F C7F 1_555 1_555
H9F C7F 1_555 1_555
C8F C7F 1_555 1_555
H10F C8F 1_555 1_555
H11F C8F 1_555 1_555
C9F C9 1_555 1_555
H12F C9F 1_555 1_555
H13F C9F 1_555 1_555
O2D Cu1 1_555 1_555
H2D O2D 1_555 1_555
H3D O2D 1_555 1_555
Cu1A O1A 1_555 1_555
Cu1B N1F 1_555 1_555
O1D Cu1 1_555 1_555
N1D Cu1 1_555 1_555
O6D O6 1_555 1_555
O6E O6A 1_555 1_555
C4 C5 1_555 1_555
C4 C6 1_555 1_555
C11A C12A 1_555 1_555
C4F C5F 1_555 1_555
C4F C6F 1_555 1_555
C8F C9F 1_555 1_555

#END
