
#######################################################################
#
#                 Cambridge Crystallographic Data Centre
#                                CCDC 
#
#######################################################################
#
# If this CIF has been generated from an entry in the Cambridge 
# Structural Database, then it will include bibliographic, chemical, 
# crystal, experimental, refinement or atomic coordinate data resulting 
# from the CCDC's data processing and validation procedures.
#
#######################################################################

data_MIQXUG
_symmetry_cell_setting           monoclinic
_symmetry_space_group_name_H-M   'P 21/c'
_symmetry_Int_Tables_number      14
_space_group_name_Hall           '-P 2ybc'
loop_
_symmetry_equiv_pos_site_id
_symmetry_equiv_pos_as_xyz
1 x,y,z
2 -x,1/2+y,1/2-z
3 -x,-y,-z
4 x,1/2-y,1/2+z
_cell_length_a                   12.833(5)
_cell_length_b                   11.445(5)
_cell_length_c                   24.888(10)
_cell_angle_alpha                90
_cell_angle_beta                 93.696(6)
_cell_angle_gamma                90
_cell_volume                     3647.79
loop_
_atom_site_label
_atom_site_type_symbol
_atom_site_fract_x
_atom_site_fract_y
_atom_site_fract_z
Na1 Na 0.39048(15) 0.29514(18) 0.25029(8)
Na2 Na 0.69832(15) 0.45126(19) 0.26998(9)
N1 N 0.2206(3) 0.2379(4) 0.20115(18)
N2 N 0.3897(3) 0.3228(4) 0.15218(17)
N3 N 0.6562(3) 0.4975(4) 0.36179(18)
N4 N 0.8426(3) 0.4056(4) 0.33425(19)
O1 O 0.5907(2) 0.2818(3) 0.26352(15)
H1 H 0.6010 0.2396 0.2915
H2 H 0.6015 0.2375 0.2370
O2 O 0.3959(2) 0.5093(3) 0.24641(14)
H3 H 0.3860 0.5352 0.2777
H4 H 0.3525 0.5385 0.2229
O3 O 0.4043(2) 0.0894(3) 0.27973(14)
H5 H 0.4668 0.0645 0.2822
H6 H 0.3934 0.0904 0.3131
O4 O 0.3149(3) 0.3385(4) 0.33216(17)
H7 H 0.2852 0.2771 0.3428
H8 H 0.2891 0.4022 0.3428
O5 O 0.7918(3) 0.3920(4) 0.19641(17)
H9 H 0.7634 0.3287 0.1852
H10 H 0.7714 0.4131 0.1647
C1 C 0.1379(5) 0.1980(5) 0.2253(3)
H11 H 0.1443 0.1824 0.2621
C2 C 0.0410(4) 0.1790(5) 0.1967(3)
H12 H -0.0154 0.1515 0.2147
C3 C 0.0295(4) 0.2006(5) 0.1431(3)
H13 H -0.0345 0.1881 0.1243
C4 C 0.1144(4) 0.2419(5) 0.1165(2)
C5 C 0.2100(4) 0.2599(4) 0.1478(2)
C6 C 0.2977(4) 0.3069(4) 0.1214(2)
C7 C 0.2886(4) 0.3349(4) 0.0668(2)
C8 C 0.3746(4) 0.3851(5) 0.0433(2)
H14 H 0.3701 0.4057 0.0071
C9 C 0.4642(4) 0.4031(5) 0.0740(3)
H15 H 0.5219 0.4371 0.0595
C10 C 0.4678(4) 0.3695(5) 0.1279(3)
H16 H 0.5302 0.3809 0.1483
C11 C 0.1097(4) 0.2689(5) 0.0603(2)
H17 H 0.0482 0.2545 0.0396
C12 C 0.1908(4) 0.3140(5) 0.0370(2)
H18 H 0.1841 0.3324 0.0006
C13 C 0.5678(4) 0.5410(5) 0.3758(3)
H19 H 0.5160 0.5541 0.3486
C14 C 0.5449(5) 0.5694(5) 0.4282(3)
H20 H 0.4809 0.6017 0.4355
C15 C 0.6198(5) 0.5479(5) 0.4681(3)
H21 H 0.6072 0.5649 0.5036
C16 C 0.7162(4) 0.5002(5) 0.4557(2)
C17 C 0.7323(4) 0.4761(4) 0.4011(2)
C18 C 0.8299(4) 0.4284(4) 0.3866(2)
C19 C 0.9086(4) 0.4064(5) 0.4284(2)
C20 C 1.0038(5) 0.3614(5) 0.4122(3)
H22 H 1.0580 0.3460 0.4378
C21 C 1.0167(4) 0.3404(5) 0.3599(3)
H23 H 1.0796 0.3110 0.3491
C22 C 0.9332(5) 0.3640(5) 0.3217(3)
H24 H 0.9430 0.3493 0.2856
C23 C 0.7965(5) 0.4725(5) 0.4960(2)
H25 H 0.7852 0.4851 0.5321
C24 C 0.8876(5) 0.4289(5) 0.4826(3)
H26 H 0.9389 0.4127 0.5097
Na2A Na 0.30168(15) -0.04874(19) 0.23002(9)
O3A O 0.5957(2) 0.5894(3) 0.22027(14)
H5A H 0.5332 0.5645 0.2178
H6A H 0.6066 0.5904 0.1869
Br1 Br 0.27305(5) 0.09245(6) 0.39440(3)
Br2 Br 0.72128(5) 0.12723(6) 0.14815(3)
N5 N 0.6283(3) 0.1801(4) 0.37083(17)
N6 N 0.7845(3) 0.0744(4) 0.31736(18)
C25 C 0.5517(4) 0.2223(5) 0.3984(3)
H27 H 0.4899 0.2447 0.3796
C26 C 0.5591(5) 0.2346(5) 0.4542(3)
H28 H 0.5020 0.2608 0.4720
C27 C 0.6503(5) 0.2081(5) 0.4823(2)
H29 H 0.6571 0.2193 0.5193
C28 C 0.7335(4) 0.1641(5) 0.4552(2)
C29 C 0.7192(4) 0.1479(4) 0.3996(2)
C30 C 0.8015(4) 0.0986(4) 0.3698(2)
C31 C 0.8991(4) 0.0763(5) 0.3987(3)
C32 C 0.9783(4) 0.0304(5) 0.3684(3)
H30 H 1.0435 0.0147 0.3853
C33 C 0.9615(4) 0.0087(5) 0.3154(3)
H31 H 1.0147 -0.0198 0.2954
C34 C 0.8624(4) 0.0300(5) 0.2914(2)
H32 H 0.8501 0.0121 0.2550
C35 C 0.8314(5) 0.1364(5) 0.4821(2)
H33 H 0.8407 0.1462 0.5191
C36 C 0.9105(5) 0.0961(5) 0.4546(3)
H34 H 0.9746 0.0809 0.4729
loop_
_geom_bond_atom_site_label_1
_geom_bond_atom_site_label_2
_geom_bond_site_symmetry_1
_geom_bond_site_symmetry_2
Na1 N1 1_555 1_555
Na2 N3 1_555 1_555
N1 C1 1_555 1_555
N2 Na1 1_555 1_555
N3 C13 1_555 1_555
N4 Na2 1_555 1_555
N5 C25 1_555 1_555
N6 C30 1_555 1_555
O1 Na1 1_555 1_555
H1 O1 1_555 1_555
H2 O1 1_555 1_555
O2 Na1 1_555 1_555
H3 O2 1_555 1_555
H4 O2 1_555 1_555
O3 Na1 1_555 1_555
H5 O3 1_555 1_555
H6 O3 1_555 1_555
O4 Na1 1_555 1_555
H7 O4 1_555 1_555
H8 O4 1_555 1_555
O5 Na2 1_555 1_555
H9 O5 1_555 1_555
H10 O5 1_555 1_555
C1 H11 1_555 1_555
C2 C1 1_555 1_555
H12 C2 1_555 1_555
C3 C2 1_555 1_555
H13 C3 1_555 1_555
C4 C3 1_555 1_555
C5 N1 1_555 1_555
C6 N2 1_555 1_555
C7 C6 1_555 1_555
C8 C7 1_555 1_555
H14 C8 1_555 1_555
C9 C8 1_555 1_555
H15 C9 1_555 1_555
C10 N2 1_555 1_555
H16 C10 1_555 1_555
C11 C4 1_555 1_555
H17 C11 1_555 1_555
C12 C7 1_555 1_555
H18 C12 1_555 1_555
C13 H19 1_555 1_555
C14 C13 1_555 1_555
H20 C14 1_555 1_555
C15 C14 1_555 1_555
H21 C15 1_555 1_555
C16 C15 1_555 1_555
C17 N3 1_555 1_555
C18 N4 1_555 1_555
C19 C18 1_555 1_555
C20 C19 1_555 1_555
H22 C20 1_555 1_555
C21 C20 1_555 1_555
H23 C21 1_555 1_555
C22 N4 1_555 1_555
H24 C22 1_555 1_555
C23 C16 1_555 1_555
H25 C23 1_555 1_555
C24 C19 1_555 1_555
H26 C24 1_555 1_555
C25 H27 1_555 1_555
C26 C25 1_555 1_555
H28 C26 1_555 1_555
C27 C26 1_555 1_555
H29 C27 1_555 1_555
C28 C27 1_555 1_555
C29 N5 1_555 1_555
C30 C29 1_555 1_555
C31 C30 1_555 1_555
C32 C31 1_555 1_555
H30 C32 1_555 1_555
C33 C32 1_555 1_555
H31 C33 1_555 1_555
C34 N6 1_555 1_555
H32 C34 1_555 1_555
C35 C28 1_555 1_555
H33 C35 1_555 1_555
C36 C31 1_555 1_555
H34 C36 1_555 1_555
Na2A O3 1_555 1_555
O3A Na2 1_555 1_555
H5A O3A 1_555 1_555
H6A O3A 1_555 1_555
Na2 O1 1_555 1_555
C4 C5 1_555 1_555
C5 C6 1_555 1_555
C9 C10 1_555 1_555
C11 C12 1_555 1_555
C16 C17 1_555 1_555
C17 C18 1_555 1_555
C21 C22 1_555 1_555
C23 C24 1_555 1_555
C28 C29 1_555 1_555
C33 C34 1_555 1_555
C35 C36 1_555 1_555

#END
