
#######################################################################
#
#                 Cambridge Crystallographic Data Centre
#                                CCDC 
#
#######################################################################
#
# If this CIF has been generated from an entry in the Cambridge 
# Structural Database, then it will include bibliographic, chemical, 
# crystal, experimental, refinement or atomic coordinate data resulting 
# from the CCDC's data processing and validation procedures.
#
#######################################################################

data_MIRCUM
_symmetry_cell_setting           triclinic
_symmetry_space_group_name_H-M   'P -1'
_symmetry_Int_Tables_number      2
_space_group_name_Hall           '-P 1'
loop_
_symmetry_equiv_pos_site_id
_symmetry_equiv_pos_as_xyz
1 x,y,z
2 -x,-y,-z
_cell_length_a                   8.175(1)
_cell_length_b                   8.201(1)
_cell_length_c                   10.346(1)
_cell_angle_alpha                89.003(2)
_cell_angle_beta                 73.059(2)
_cell_angle_gamma                60.284(2)
_cell_volume                     569.493
loop_
_atom_site_label
_atom_site_type_symbol
_atom_site_fract_x
_atom_site_fract_y
_atom_site_fract_z
Y1 Y 0.22462(3) -0.03754(3) -0.19348(2)
Cl1 Cl -0.13526(8) -0.00401(8) -0.08980(5)
O1 O 0.0866(2) -0.0207(2) -0.39336(15)
C1 C 0.6073(3) -0.3079(3) -0.2869(2)
H1 H 0.7189 -0.2873 -0.3261
C2 C 0.5115(3) -0.3523(3) -0.3617(2)
H2 H 0.5470 -0.3690 -0.4615
C3 C 0.3859(3) -0.4072(3) -0.2708(2)
H3 H 0.3197 -0.4667 -0.2974
C4 C 0.4022(3) -0.3924(3) -0.1420(2)
H4 H 0.3476 -0.4389 -0.0628
C5 C 0.5377(4) -0.3296(3) -0.1501(3)
H5 H 0.5933 -0.3274 -0.0785
C6 C 0.4124(3) 0.1351(3) -0.3246(2)
H6 H 0.5375 0.0740 -0.4015
C7 C 0.3964(3) 0.1607(3) -0.1854(2)
H7 H 0.5077 0.1233 -0.1507
C8 C 0.1935(4) 0.2852(3) -0.1116(2)
H8 H 0.1415 0.3450 -0.0163
C9 C 0.0828(3) 0.3354(3) -0.2026(2)
H9 H -0.0578 0.4342 -0.1812
C10 C 0.2210(3) 0.2424(3) -0.3361(2)
H10 H 0.1907 0.2656 -0.4219
C11 C -0.1026(3) 0.1417(3) -0.3876(2)
H11 H -0.1224 0.2469 -0.3381
H12 H -0.2181 0.1245 -0.3321
C12 C 0.1115(3) -0.1806(3) -0.4709(2)
H13 H 0.0142 -0.2095 -0.4129
H14 H 0.2447 -0.2931 -0.4731
Y1A Y -0.22462(3) 0.03754(3) 0.19348(2)
Y1A_2 Y -0.22462(3) 0.03754(3) -0.80652(2)
Cl1A Cl 0.13526(8) 0.00401(8) 0.08980(5)
O1A O -0.0866(2) 0.0207(2) -0.60664(15)
O1A_2 O -0.0866(2) 0.0207(2) 0.39336(15)
C1A C -0.6073(3) 0.3079(3) 0.2869(2)
H1A H -0.7189 0.2873 0.3261
C2A C -0.5115(3) 0.3523(3) 0.3617(2)
H2A H -0.5470 0.3690 0.4615
C3A C -0.3859(3) 0.4072(3) 0.2708(2)
H3A H -0.3197 0.4667 0.2974
C4A C -0.4022(3) 0.3924(3) 0.1420(2)
H4A H -0.3476 0.4389 0.0628
C5A C -0.5377(4) 0.3296(3) 0.1501(3)
H5A H -0.5933 0.3274 0.0785
C6A C -0.4124(3) -0.1351(3) 0.3246(2)
H6A H -0.5375 -0.0740 0.4015
C7A C -0.3964(3) -0.1607(3) 0.1854(2)
H7A H -0.5077 -0.1233 0.1507
C8A C -0.1935(4) -0.2852(3) 0.1116(2)
H8A H -0.1415 -0.3450 0.0163
C9A C -0.0828(3) -0.3354(3) 0.2026(2)
H9A H 0.0578 -0.4342 0.1812
C10A C -0.2210(3) -0.2424(3) 0.3361(2)
H10A H -0.1907 -0.2656 0.4219
C11A C 0.1026(3) -0.1417(3) -0.6124(2)
H11A H 0.1224 -0.2469 -0.6619
H12A H 0.2181 -0.1245 -0.6679
C12A C -0.1115(3) 0.1806(3) -0.5291(2)
H13A H -0.0142 0.2095 -0.5871
H14A H -0.2447 0.2931 -0.5269
loop_
_geom_bond_atom_site_label_1
_geom_bond_atom_site_label_2
_geom_bond_site_symmetry_1
_geom_bond_site_symmetry_2
Y1 Cl1 1_555 1_555
Cl1 Y1A 1_555 1_555
O1 Y1 1_555 1_555
C1 Y1 1_555 1_555
H1 C1 1_555 1_555
C2 Y1 1_555 1_555
H2 C2 1_555 1_555
C3 Y1 1_555 1_555
H3 C3 1_555 1_555
C4 Y1 1_555 1_555
H4 C4 1_555 1_555
C5 Y1 1_555 1_555
H5 C5 1_555 1_555
C6 Y1 1_555 1_555
H6 C6 1_555 1_555
C7 Y1 1_555 1_555
H7 C7 1_555 1_555
C8 Y1 1_555 1_555
H8 C8 1_555 1_555
C9 Y1 1_555 1_555
H9 C9 1_555 1_555
C10 Y1 1_555 1_555
H10 C10 1_555 1_555
C11 O1 1_555 1_555
H11 C11 1_555 1_555
H12 C11 1_555 1_555
C12 O1 1_555 1_555
H13 C12 1_555 1_555
H14 C12 1_555 1_555
Y1A Cl1A 1_555 1_555
Y1A_2 O1A 1_555 1_555
Cl1A Y1 1_555 1_555
O1A C11A 1_555 1_555
O1A_2 Y1A 1_555 1_555
C1A Y1A 1_555 1_555
H1A C1A 1_555 1_555
C2A Y1A 1_555 1_555
H2A C2A 1_555 1_555
C3A Y1A 1_555 1_555
H3A C3A 1_555 1_555
C4A Y1A 1_555 1_555
H4A C4A 1_555 1_555
C5A Y1A 1_555 1_555
H5A C5A 1_555 1_555
C6A Y1A 1_555 1_555
H6A C6A 1_555 1_555
C7A Y1A 1_555 1_555
H7A C7A 1_555 1_555
C8A Y1A 1_555 1_555
H8A C8A 1_555 1_555
C9A Y1A 1_555 1_555
H9A C9A 1_555 1_555
C10A Y1A 1_555 1_555
H10A C10A 1_555 1_555
C11A C12 1_555 1_555
H11A C11A 1_555 1_555
H12A C11A 1_555 1_555
C12A C11 1_555 1_555
H13A C12A 1_555 1_555
H14A C12A 1_555 1_555
C1 C2 1_555 1_555
C1 C5 1_555 1_555
C2 C3 1_555 1_555
C3 C4 1_555 1_555
C4 C5 1_555 1_555
C6 C7 1_555 1_555
C6 C10 1_555 1_555
C7 C8 1_555 1_555
C8 C9 1_555 1_555
C9 C10 1_555 1_555
O1A C12A 1_555 1_555
C1A C2A 1_555 1_555
C1A C5A 1_555 1_555
C2A C3A 1_555 1_555
C3A C4A 1_555 1_555
C4A C5A 1_555 1_555
C6A C7A 1_555 1_555
C6A C10A 1_555 1_555
C7A C8A 1_555 1_555
C8A C9A 1_555 1_555
C9A C10A 1_555 1_555

#END
