
#######################################################################
#
#                 Cambridge Crystallographic Data Centre
#                                CCDC 
#
#######################################################################
#
# If this CIF has been generated from an entry in the Cambridge 
# Structural Database, then it will include bibliographic, chemical, 
# crystal, experimental, refinement or atomic coordinate data resulting 
# from the CCDC's data processing and validation procedures.
#
#######################################################################

data_MIRHEC
_symmetry_cell_setting           triclinic
_symmetry_space_group_name_H-M   'P -1'
_symmetry_Int_Tables_number      2
_space_group_name_Hall           '-P 1'
loop_
_symmetry_equiv_pos_site_id
_symmetry_equiv_pos_as_xyz
1 x,y,z
2 -x,-y,-z
_cell_length_a                   11.6821(18)
_cell_length_b                   13.382(2)
_cell_length_c                   17.527(3)
_cell_angle_alpha                82.875(3)
_cell_angle_beta                 78.515(3)
_cell_angle_gamma                86.809(4)
_cell_volume                     2663.04
loop_
_atom_site_label
_atom_site_type_symbol
_atom_site_fract_x
_atom_site_fract_y
_atom_site_fract_z
C1 C 0.6168(7) 0.5650(6) 0.3682(5)
C2 C 0.4964(7) 0.5971(6) 0.4066(5)
C3 C 0.4856(8) 0.6896(7) 0.4340(5)
H1 H 0.5521 0.7266 0.4295
C4 C 0.3795(10) 0.7288(7) 0.4679(6)
H2 H 0.3741 0.7914 0.4864
C5 C 0.2796(9) 0.6733(8) 0.4743(6)
H3 H 0.2067 0.7000 0.4955
C6 C 0.2887(8) 0.5809(8) 0.4495(6)
H4 H 0.2216 0.5443 0.4551
C7 C 0.3940(7) 0.5401(6) 0.4166(5)
C8 C 0.3070(7) 0.3882(8) 0.3958(7)
H5 H 0.2513 0.4257 0.3680
H6 H 0.2695 0.3736 0.4503
C9 C 0.3426(7) 0.2930(7) 0.3616(7)
C10 C 0.3325(8) 0.2058(8) 0.4142(6)
H7 H 0.3089 0.2116 0.4674
C11 C 0.3562(8) 0.1112(8) 0.3906(7)
C12 C 0.3922(7) 0.1050(7) 0.3108(6)
C13 C 0.4042(9) 0.1905(8) 0.2591(7)
H8 H 0.4282 0.1848 0.2060
C14 C 0.3818(9) 0.2860(8) 0.2832(6)
C15 C 0.3946(15) 0.3792(10) 0.2243(8)
H9 H 0.3187 0.4042 0.2164
H10 H 0.4407 0.3627 0.1755
H11 H 0.4325 0.4298 0.2437
C16 C 0.3415(12) 0.0197(9) 0.4494(7)
H12 H 0.2969 -0.0284 0.4324
H13 H 0.3014 0.0383 0.4992
H14 H 0.4169 -0.0096 0.4544
C17 C 0.4190(7) 0.0063(7) 0.2809(7)
H15 H 0.4570 0.0153 0.2262
H16 H 0.4708 -0.0339 0.3104
C18 C 0.3090(7) -0.1394(6) 0.2713(5)
C19 C 0.4098(8) -0.1915(7) 0.2423(6)
H17 H 0.4813 -0.1604 0.2334
C20 C 0.4059(8) -0.2888(7) 0.2263(6)
H18 H 0.4750 -0.3240 0.2083
C21 C 0.3020(9) -0.3344(8) 0.2367(6)
H19 H 0.2994 -0.4002 0.2253
C22 C 0.2001(8) -0.2817(7) 0.2643(6)
H20 H 0.1290 -0.3126 0.2705
C23 C 0.2010(7) -0.1848(6) 0.2827(5)
C24 C 0.0861(7) -0.1354(6) 0.3090(5)
C25 C -0.0312(8) 0.0145(7) 0.3498(7)
H21 H -0.0801 -0.0209 0.3953
H22 H -0.0727 0.0210 0.3066
C26 C -0.0060(7) 0.1173(8) 0.3676(7)
C27 C 0.0166(9) 0.2050(8) 0.3120(8)
H23 H 0.0211 0.2072 0.2583
C28 C 0.0307(10) 0.2859(10) 0.3507(10)
H24 H 0.0416 0.3506 0.3248
C29 C 0.0279(9) 0.2663(9) 0.4259(10)
H25 H 0.0389 0.3139 0.4579
C30 C 0.7530(7) 0.4282(7) 0.3248(6)
H26 H 0.7915 0.4027 0.3678
H27 H 0.7991 0.4821 0.2934
C31 C 0.7487(7) 0.3451(6) 0.2753(6)
C32 C 0.7913(11) 0.3554(9) 0.1909(7)
H28 H 0.8725 0.3742 0.1776
H29 H 0.7448 0.4050 0.1641
C33 C 0.7778(14) 0.2542(12) 0.1713(9)
H30 H 0.7998 0.2383 0.1201
C34 C 0.7321(12) 0.1850(10) 0.2304(8)
H31 H 0.7176 0.1194 0.2234
C35 C 1.0626(8) 0.7848(7) 0.1200(5)
C36 C 1.1326(8) 0.6989(7) 0.0863(5)
C37 C 1.0796(11) 0.6067(9) 0.0968(7)
H32 H 1.0041 0.6006 0.1260
C38 C 1.1352(13) 0.5253(9) 0.0655(10)
H33 H 1.0968 0.4649 0.0726
C39 C 1.2457(12) 0.5310(9) 0.0243(9)
H34 H 1.2815 0.4751 0.0017
C40 C 1.3056(11) 0.6180(8) 0.0154(8)
H35 H 1.3839 0.6199 -0.0091
C41 C 1.2481(9) 0.7028(7) 0.0432(6)
C42 C 1.4212(8) 0.8005(7) -0.0050(7)
H36 H 1.4281 0.7870 -0.0589
H37 H 1.4694 0.7511 0.0206
C43 C 1.4608(8) 0.9061(7) -0.0026(6)
C44 C 1.5444(7) 0.9159(7) 0.0406(5)
C45 C 1.4132(7) 0.9878(7) -0.0438(6)
C46 C 1.3206(10) 0.9835(11) -0.0911(7)
H38 H 1.3257 0.9193 -0.1108
H39 H 1.3315 1.0362 -0.1341
H40 H 1.2451 0.9923 -0.0586
C47 C 1.0285(8) 0.9648(7) 0.1271(6)
H41 H 0.9585 0.9686 0.1049
H42 H 1.0048 0.9558 0.1838
C48 C 1.0901(8) 1.0592(8) 0.1031(6)
C49 C 1.0578(8) 1.1448(6) 0.0425(5)
H43 H 0.9995 1.1459 0.0132
C50 C 1.1373(14) 1.2211(12) 0.0418(10)
H44 H 1.1324 1.2830 0.0117
C51 C 1.2218(13) 1.2018(10) 0.0864(9)
H45 H 1.2789 1.2460 0.0896
N1 N 0.6370(6) 0.4685(5) 0.3565(5)
N2 N 0.0803(6) -0.0428(6) 0.3290(5)
N3 N 1.1014(7) 0.8779(6) 0.1019(5)
N4 N 0.7236(7) 0.6759(7) 0.1620(5)
N5 N 0.7189(6) 0.9131(6) 0.3302(6)
N6 N 0.9578(8) 0.5842(7) 0.3730(6)
O1 O 0.6930(5) 0.6272(5) 0.3479(4)
O2 O 0.9642(5) 0.7710(5) 0.1622(4)
O3 O 0.6995(5) 0.7547(5) 0.1937(4)
O4 O 0.8007(6) 0.6181(5) 0.1858(4)
O5 O 0.6737(7) 0.6539(7) 0.1130(5)
O6 O 0.7260(6) 0.8332(5) 0.3761(4)
O7 O 0.7723(7) 0.9106(5) 0.2609(4)
O8 O 0.6620(6) 0.9872(6) 0.3514(5)
O9 O 0.8950(7) 0.6508(6) 0.4064(4)
O10 O 0.9651(5) 0.5861(4) 0.2997(4)
O11 O 1.0123(10) 0.5209(7) 0.4078(6)
O12 O 0.4081(5) 0.4476(4) 0.3900(4)
O13 O 0.3080(5) -0.0437(5) 0.2902(4)
O14 O 1.3001(6) 0.7947(5) 0.0356(4)
O15 O -0.0079(5) -0.1779(5) 0.3107(4)
S1 S 0.7041(3) 0.2295(2) 0.3184(2)
S2 S 0.0013(3) 0.1428(3) 0.4584(2)
S3 S 1.2053(5) 1.0868(5) 0.1337(4)
Tb1 Tb 0.83993(3) 0.73231(3) 0.28217(2)
C35A C 1.9374(8) 1.2152(7) -0.1200(5)
C36A C 1.8674(8) 1.3011(7) -0.0863(5)
C37A C 1.9204(11) 1.3933(9) -0.0968(7)
H32A H 1.9959 1.3994 -0.1260
C38A C 1.8648(13) 1.4747(9) -0.0655(10)
H33A H 1.9032 1.5351 -0.0726
C39A C 1.7543(12) 1.4690(9) -0.0243(9)
H34A H 1.7185 1.5249 -0.0017
C40A C 1.6944(11) 1.3820(8) -0.0154(8)
H35A H 1.6161 1.3801 0.0091
C41A C 1.7519(9) 1.2972(7) -0.0432(6)
C42A C 1.5788(8) 1.1995(7) 0.0050(7)
H36A H 1.5719 1.2130 0.0589
H37A H 1.5306 1.2489 -0.0206
C43A C 1.5392(8) 1.0939(7) 0.0026(6)
C44A C 1.4556(7) 1.0841(7) -0.0406(5)
C45A C 1.5868(7) 1.0122(7) 0.0438(6)
C46A C 1.6794(10) 1.0165(11) 0.0911(7)
H38A H 1.6743 1.0807 0.1108
H39A H 1.6685 0.9638 0.1341
H40A H 1.7549 1.0077 0.0586
C47A C 1.9715(8) 1.0352(7) -0.1271(6)
H41A H 2.0415 1.0314 -0.1049
H42A H 1.9952 1.0442 -0.1838
C48A C 1.9099(8) 0.9408(8) -0.1031(6)
C49A C 1.9422(8) 0.8552(6) -0.0425(5)
H43A H 2.0005 0.8541 -0.0132
C50A C 1.8627(14) 0.7789(12) -0.0418(10)
H44A H 1.8676 0.7170 -0.0117
C51A C 1.7782(13) 0.7982(10) -0.0864(9)
H45A H 1.7211 0.7540 -0.0896
N3A N 1.8986(7) 1.1221(6) -0.1019(5)
O2A O 2.0358(5) 1.2290(5) -0.1622(4)
O14A O 1.6999(6) 1.2053(5) -0.0356(4)
S3A S 1.7947(5) 0.9132(5) -0.1337(4)
C1A C 2.3832(7) 1.4350(6) -0.3682(5)
C2A C 2.5036(7) 1.4029(6) -0.4066(5)
C3A C 2.5144(8) 1.3104(7) -0.4340(5)
H1A H 2.4479 1.2734 -0.4295
C4A C 2.6205(10) 1.2712(7) -0.4679(6)
H2A H 2.6259 1.2086 -0.4864
C5A C 2.7204(9) 1.3267(8) -0.4743(6)
H3A H 2.7933 1.3000 -0.4955
C6A C 2.7113(8) 1.4191(8) -0.4495(6)
H4A H 2.7784 1.4557 -0.4551
C7A C 2.6060(7) 1.4599(6) -0.4166(5)
C8A C 2.6930(7) 1.6118(8) -0.3958(7)
H5A H 2.7487 1.5743 -0.3680
H6A H 2.7305 1.6264 -0.4503
C9A C 2.6574(7) 1.7070(7) -0.3616(7)
C10A C 2.6675(8) 1.7942(8) -0.4142(6)
H7A H 2.6911 1.7884 -0.4674
C11A C 2.6438(8) 1.8888(8) -0.3906(7)
C12A C 2.6078(7) 1.8950(7) -0.3108(6)
C13A C 2.5958(9) 1.8095(8) -0.2591(7)
H8A H 2.5718 1.8152 -0.2060
C14A C 2.6182(9) 1.7140(8) -0.2832(6)
C15A C 2.6054(15) 1.6208(10) -0.2243(8)
H9A H 2.6813 1.5958 -0.2164
H10A H 2.5593 1.6373 -0.1755
H11A H 2.5675 1.5702 -0.2437
C16A C 2.6585(12) 1.9803(9) -0.4494(7)
H12A H 2.7031 2.0284 -0.4324
H13A H 2.6986 1.9617 -0.4992
H14A H 2.5831 2.0096 -0.4544
C17A C 2.5810(7) 1.9937(7) -0.2809(7)
H15A H 2.5430 1.9847 -0.2262
H16A H 2.5292 2.0339 -0.3104
C18A C 2.6910(7) 2.1394(6) -0.2713(5)
C19A C 2.5902(8) 2.1915(7) -0.2423(6)
H17A H 2.5187 2.1604 -0.2334
C20A C 2.5941(8) 2.2888(7) -0.2263(6)
H18A H 2.5250 2.3240 -0.2083
C21A C 2.6980(9) 2.3344(8) -0.2367(6)
H19A H 2.7006 2.4002 -0.2253
C22A C 2.7999(8) 2.2817(7) -0.2643(6)
H20A H 2.8710 2.3126 -0.2705
C23A C 2.7990(7) 2.1848(6) -0.2827(5)
C24A C 2.9139(7) 2.1354(6) -0.3090(5)
C25A C 3.0312(8) 1.9855(7) -0.3498(7)
H21A H 3.0801 2.0209 -0.3953
H22A H 3.0727 1.9790 -0.3066
C26A C 3.0060(7) 1.8827(8) -0.3676(7)
C27A C 2.9834(9) 1.7950(8) -0.3120(8)
H23A H 2.9789 1.7928 -0.2583
C28A C 2.9693(10) 1.7141(10) -0.3507(10)
H24A H 2.9584 1.6494 -0.3248
C29A C 2.9721(9) 1.7337(9) -0.4259(10)
H25A H 2.9611 1.6861 -0.4579
C30A C 2.2470(7) 1.5718(7) -0.3248(6)
H26A H 2.2085 1.5973 -0.3678
H27A H 2.2009 1.5179 -0.2934
C31A C 2.2513(7) 1.6549(6) -0.2753(6)
C32A C 2.2087(11) 1.6446(9) -0.1909(7)
H28A H 2.1275 1.6258 -0.1776
H29A H 2.2552 1.5950 -0.1641
C33A C 2.2222(14) 1.7458(12) -0.1713(9)
H30A H 2.2002 1.7617 -0.1201
C34A C 2.2679(12) 1.8150(10) -0.2304(8)
H31A H 2.2824 1.8806 -0.2234
N1A N 2.3630(6) 1.5315(5) -0.3565(5)
N2A N 2.9197(6) 2.0428(6) -0.3290(5)
N4A N 2.2764(7) 1.3241(7) -0.1620(5)
N5A N 2.2811(6) 1.0869(6) -0.3302(6)
N6A N 2.0422(8) 1.4158(7) -0.3730(6)
O1A O 2.3070(5) 1.3728(5) -0.3479(4)
O3A O 2.3005(5) 1.2453(5) -0.1937(4)
O4A O 2.1993(6) 1.3819(5) -0.1858(4)
O5A O 2.3263(7) 1.3461(7) -0.1130(5)
O6A O 2.2740(6) 1.1668(5) -0.3761(4)
O7A O 2.2277(7) 1.0894(5) -0.2609(4)
O8A O 2.3380(6) 1.0128(6) -0.3514(5)
O9A O 2.1050(7) 1.3492(6) -0.4064(4)
O10A O 2.0349(5) 1.4139(4) -0.2997(4)
O11A O 1.9877(10) 1.4791(7) -0.4078(6)
O12A O 2.5919(5) 1.5524(4) -0.3900(4)
O13A O 2.6920(5) 2.0437(5) -0.2902(4)
O15A O 3.0079(5) 2.1779(5) -0.3107(4)
S1A S 2.2959(3) 1.7705(2) -0.3184(2)
S2A S 2.9987(3) 1.8572(3) -0.4584(2)
Tb1A Tb 2.16007(3) 1.26769(3) -0.28217(2)
O15_2 O 0.9921(5) 0.8221(5) 0.3107(4)
O15A_2 O 2.0079(5) 1.1779(5) -0.3107(4)
Tb1_2 Tb -0.16007(3) -0.26769(3) 0.28217(2)
Tb1A_2 Tb 3.16007(3) 2.26769(3) -0.28217(2)
loop_
_geom_bond_atom_site_label_1
_geom_bond_atom_site_label_2
_geom_bond_site_symmetry_1
_geom_bond_site_symmetry_2
C1 C2 1_555 1_555
C2 C3 1_555 1_555
C3 H1 1_555 1_555
C4 C3 1_555 1_555
H2 C4 1_555 1_555
C5 C4 1_555 1_555
H3 C5 1_555 1_555
C6 C5 1_555 1_555
H4 C6 1_555 1_555
C7 C2 1_555 1_555
C8 H5 1_555 1_555
H6 C8 1_555 1_555
C9 C8 1_555 1_555
C10 C9 1_555 1_555
H7 C10 1_555 1_555
C11 C10 1_555 1_555
C12 C11 1_555 1_555
C13 C12 1_555 1_555
H8 C13 1_555 1_555
C14 C9 1_555 1_555
C15 C14 1_555 1_555
H9 C15 1_555 1_555
H10 C15 1_555 1_555
H11 C15 1_555 1_555
C16 C11 1_555 1_555
H12 C16 1_555 1_555
H13 C16 1_555 1_555
H14 C16 1_555 1_555
C17 C12 1_555 1_555
H15 C17 1_555 1_555
H16 C17 1_555 1_555
C18 C19 1_555 1_555
C19 H17 1_555 1_555
C20 C19 1_555 1_555
H18 C20 1_555 1_555
C21 C20 1_555 1_555
H19 C21 1_555 1_555
C22 C21 1_555 1_555
H20 C22 1_555 1_555
C23 C18 1_555 1_555
C24 C23 1_555 1_555
C25 H21 1_555 1_555
H22 C25 1_555 1_555
C26 C25 1_555 1_555
C27 C26 1_555 1_555
H23 C27 1_555 1_555
C28 C27 1_555 1_555
H24 C28 1_555 1_555
C29 C28 1_555 1_555
H25 C29 1_555 1_555
C30 H26 1_555 1_555
H27 C30 1_555 1_555
C31 C30 1_555 1_555
C32 C31 1_555 1_555
H28 C32 1_555 1_555
H29 C32 1_555 1_555
C33 C32 1_555 1_555
H30 C33 1_555 1_555
C34 C33 1_555 1_555
H31 C34 1_555 1_555
C35 C36 1_555 1_555
C36 C37 1_555 1_555
C37 H32 1_555 1_555
C38 C37 1_555 1_555
H33 C38 1_555 1_555
C39 C38 1_555 1_555
H34 C39 1_555 1_555
C40 C39 1_555 1_555
H35 C40 1_555 1_555
C41 C36 1_555 1_555
C42 H36 1_555 1_555
H37 C42 1_555 1_555
C43 C42 1_555 1_555
C44 C43 1_555 1_555
C45 C43 1_555 1_555
C46 C45 1_555 1_555
H38 C46 1_555 1_555
H39 C46 1_555 1_555
H40 C46 1_555 1_555
C47 H41 1_555 1_555
H42 C47 1_555 1_555
C48 C47 1_555 1_555
C49 C48 1_555 1_555
H43 C49 1_555 1_555
C50 C49 1_555 1_555
H44 C50 1_555 1_555
C51 C50 1_555 1_555
H45 C51 1_555 1_555
N1 C1 1_555 1_555
N2 C24 1_555 1_555
N3 C35 1_555 1_555
N4 O3 1_555 1_555
N5 O6 1_555 1_555
N6 O9 1_555 1_555
O1 C1 1_555 1_555
O2 C35 1_555 1_555
O3 Tb1 1_555 1_555
O4 N4 1_555 1_555
O5 N4 1_555 1_555
O6 Tb1 1_555 1_555
O7 N5 1_555 1_555
O8 N5 1_555 1_555
O9 Tb1 1_555 1_555
O10 N6 1_555 1_555
O11 N6 1_555 1_555
O12 C7 1_555 1_555
O13 C17 1_555 1_555
O14 C41 1_555 1_555
O15 C24 1_555 1_555
S1 C31 1_555 1_555
S2 C26 1_555 1_555
S3 C48 1_555 1_555
Tb1 O1 1_555 1_555
C35A C36A 1_555 1_555
C36A C37A 1_555 1_555
C37A H32A 1_555 1_555
C38A C37A 1_555 1_555
H33A C38A 1_555 1_555
C39A C38A 1_555 1_555
H34A C39A 1_555 1_555
C40A C39A 1_555 1_555
H35A C40A 1_555 1_555
C41A C36A 1_555 1_555
C42A H36A 1_555 1_555
H37A C42A 1_555 1_555
C43A C42A 1_555 1_555
C44A C45 1_555 1_555
C45A C44 1_555 1_555
C46A C45A 1_555 1_555
H38A C46A 1_555 1_555
H39A C46A 1_555 1_555
H40A C46A 1_555 1_555
C47A H41A 1_555 1_555
H42A C47A 1_555 1_555
C48A C47A 1_555 1_555
C49A C48A 1_555 1_555
H43A C49A 1_555 1_555
C50A C49A 1_555 1_555
H44A C50A 1_555 1_555
C51A C50A 1_555 1_555
H45A C51A 1_555 1_555
N3A C35A 1_555 1_555
O2A C35A 1_555 1_555
O14A C41A 1_555 1_555
S3A C48A 1_555 1_555
C1A C2A 1_555 1_555
C2A C3A 1_555 1_555
C3A H1A 1_555 1_555
C4A C3A 1_555 1_555
H2A C4A 1_555 1_555
C5A C4A 1_555 1_555
H3A C5A 1_555 1_555
C6A C5A 1_555 1_555
H4A C6A 1_555 1_555
C7A C2A 1_555 1_555
C8A H5A 1_555 1_555
H6A C8A 1_555 1_555
C9A C8A 1_555 1_555
C10A C9A 1_555 1_555
H7A C10A 1_555 1_555
C11A C10A 1_555 1_555
C12A C11A 1_555 1_555
C13A C12A 1_555 1_555
H8A C13A 1_555 1_555
C14A C9A 1_555 1_555
C15A C14A 1_555 1_555
H9A C15A 1_555 1_555
H10A C15A 1_555 1_555
H11A C15A 1_555 1_555
C16A C11A 1_555 1_555
H12A C16A 1_555 1_555
H13A C16A 1_555 1_555
H14A C16A 1_555 1_555
C17A C12A 1_555 1_555
H15A C17A 1_555 1_555
H16A C17A 1_555 1_555
C18A C19A 1_555 1_555
C19A H17A 1_555 1_555
C20A C19A 1_555 1_555
H18A C20A 1_555 1_555
C21A C20A 1_555 1_555
H19A C21A 1_555 1_555
C22A C21A 1_555 1_555
H20A C22A 1_555 1_555
C23A C18A 1_555 1_555
C24A C23A 1_555 1_555
C25A H21A 1_555 1_555
H22A C25A 1_555 1_555
C26A C25A 1_555 1_555
C27A C26A 1_555 1_555
H23A C27A 1_555 1_555
C28A C27A 1_555 1_555
H24A C28A 1_555 1_555
C29A C28A 1_555 1_555
H25A C29A 1_555 1_555
C30A H26A 1_555 1_555
H27A C30A 1_555 1_555
C31A C30A 1_555 1_555
C32A C31A 1_555 1_555
H28A C32A 1_555 1_555
H29A C32A 1_555 1_555
C33A C32A 1_555 1_555
H30A C33A 1_555 1_555
C34A C33A 1_555 1_555
H31A C34A 1_555 1_555
N1A C1A 1_555 1_555
N2A C24A 1_555 1_555
N4A O3A 1_555 1_555
N5A O6A 1_555 1_555
N6A O9A 1_555 1_555
O1A C1A 1_555 1_555
O3A Tb1A 1_555 1_555
O4A N4A 1_555 1_555
O5A N4A 1_555 1_555
O6A Tb1A 1_555 1_555
O7A N5A 1_555 1_555
O8A N5A 1_555 1_555
O9A Tb1A 1_555 1_555
O10A N6A 1_555 1_555
O11A N6A 1_555 1_555
O12A C7A 1_555 1_555
O13A C17A 1_555 1_555
O15A C24A 1_555 1_555
S1A C31A 1_555 1_555
S2A C26A 1_555 1_555
Tb1A O2A 1_555 1_555
O15_2 Tb1 1_555 1_555
O15A_2 Tb1A 1_555 1_555
Tb1_2 O15 1_555 1_555
Tb1A_2 O15A 1_555 1_555
C6 C7 1_555 1_555
C8 O12 1_555 1_555
C13 C14 1_555 1_555
C18 O13 1_555 1_555
C22 C23 1_555 1_555
C25 N2 1_555 1_555
C29 S2 1_555 1_555
C30 N1 1_555 1_555
C34 S1 1_555 1_555
C40 C41 1_555 1_555
C42 O14 1_555 1_555
C47 N3 1_555 1_555
C51 S3 1_555 1_555
O2 Tb1 1_555 1_555
O4 Tb1 1_555 1_555
O7 Tb1 1_555 1_555
O10 Tb1 1_555 1_555
C40A C41A 1_555 1_555
C42A O14A 1_555 1_555
C43A C44A 1_555 1_555
C43A C45A 1_555 1_555
C47A N3A 1_555 1_555
C51A S3A 1_555 1_555
C6A C7A 1_555 1_555
C8A O12A 1_555 1_555
C13A C14A 1_555 1_555
C18A O13A 1_555 1_555
C22A C23A 1_555 1_555
C25A N2A 1_555 1_555
C29A S2A 1_555 1_555
C30A N1A 1_555 1_555
C34A S1A 1_555 1_555
O1A Tb1A 1_555 1_555
O4A Tb1A 1_555 1_555
O7A Tb1A 1_555 1_555
O10A Tb1A 1_555 1_555

#END
