
#######################################################################
#
#                 Cambridge Crystallographic Data Centre
#                                CCDC 
#
#######################################################################
#
# If this CIF has been generated from an entry in the Cambridge 
# Structural Database, then it will include bibliographic, chemical, 
# crystal, experimental, refinement or atomic coordinate data resulting 
# from the CCDC's data processing and validation procedures.
#
#######################################################################

data_MIRNOR01
_symmetry_cell_setting           monoclinic
_symmetry_space_group_name_H-M   'P 21/n'
_symmetry_Int_Tables_number      14
_space_group_name_Hall           '-P 2yn'
loop_
_symmetry_equiv_pos_site_id
_symmetry_equiv_pos_as_xyz
1 x,y,z
2 1/2-x,1/2+y,1/2-z
3 -x,-y,-z
4 1/2+x,1/2-y,1/2+z
_cell_length_a                   8.857(4)
_cell_length_b                   8.002(3)
_cell_length_c                   9.246(4)
_cell_angle_alpha                90
_cell_angle_beta                 112.314(6)
_cell_angle_gamma                90
_cell_volume                     606.228
loop_
_atom_site_label
_atom_site_type_symbol
_atom_site_fract_x
_atom_site_fract_y
_atom_site_fract_z
Cu1 Cu 0.56560(5) 0.13626(5) -0.37864(5)
C1 C 0.3678(4) 0.4305(4) -0.3843(4)
H1 H 0.4682 0.4847 -0.3459
C2 C 0.2284(4) 0.5252(4) -0.4208(4)
H2 H 0.2368 0.6404 -0.4062
C3 C 0.0769(4) 0.4510(4) -0.4786(3)
C4 C 0.0755(4) 0.2780(4) -0.4957(4)
H3 H -0.0232 0.2208 -0.5338
C5 C 0.2195(4) 0.1920(4) -0.4566(4)
H4 H 0.2148 0.0766 -0.4695
N1 N 0.3664(3) 0.2650(3) -0.4010(3)
N2 N -0.4831(4) 0.8868(3) -0.3459(3)
N3 N -0.3846(3) 0.7898(3) -0.2698(3)
N4 N -0.7945(3) 0.8141(4) -0.6961(4)
Cu1B Cu -0.56560(5) 0.86374(5) -0.62136(5)
Cu1_2 Cu -0.43440(5) 1.13626(5) -0.37864(5)
Cu1A Cu -0.06560(5) 0.63626(5) -0.12136(5)
Cu1C Cu -0.93440(5) 0.36374(5) -0.87864(5)
Cu1A_2 Cu -1.06560(5) 0.63626(5) -1.12136(5)
C1B C -0.3678(4) 0.5695(4) -0.6157(4)
H1B H -0.4682 0.5153 -0.6541
C2B C -0.2284(4) 0.4748(4) -0.5792(4)
H2B H -0.2368 0.3596 -0.5938
C3B C -0.0769(4) 0.5490(4) -0.5214(3)
C4B C -0.0755(4) 0.7220(4) -0.5043(4)
H3B H 0.0232 0.7792 -0.4662
C5B C -0.2195(4) 0.8080(4) -0.5434(4)
H4B H -0.2148 0.9234 -0.5305
N1B N -0.3664(3) 0.7350(3) -0.5990(3)
N2B N 0.4831(4) 0.1132(3) -0.6541(3)
N2_2 N 0.5169(4) -0.1132(3) -0.3459(3)
N2B_2 N -0.5169(4) 1.1132(3) -0.6541(3)
N2C N -0.9831(4) 0.6132(3) -0.8459(3)
N3C N -0.8846(3) 0.7102(3) -0.7698(3)
N4B N 0.7945(3) 0.1859(4) -0.3039(4)
N4C N -0.2945(3) 0.6859(4) -0.1961(4)
loop_
_geom_bond_atom_site_label_1
_geom_bond_atom_site_label_2
_geom_bond_site_symmetry_1
_geom_bond_site_symmetry_2
Cu1 N1 1_555 1_555
C1 H1 1_555 1_555
C2 C1 1_555 1_555
H2 C2 1_555 1_555
C3 C2 1_555 1_555
C4 C3 1_555 1_555
H3 C4 1_555 1_555
C5 C4 1_555 1_555
H4 C5 1_555 1_555
N1 C1 1_555 1_555
N2 N3 1_555 1_555
N3 N4C 1_555 1_555
N4 Cu1B 1_555 1_555
Cu1B N2 1_555 1_555
Cu1_2 N2 1_555 1_555
Cu1A N4C 1_555 1_555
Cu1C N2C 1_555 1_555
Cu1A_2 N2C 1_555 1_555
C1B H1B 1_555 1_555
C2B C1B 1_555 1_555
H2B C2B 1_555 1_555
C3B C3 1_555 1_555
C4B C3B 1_555 1_555
H3B C4B 1_555 1_555
C5B C4B 1_555 1_555
H4B C5B 1_555 1_555
N1B Cu1B 1_555 1_555
N2B Cu1 1_555 1_555
N2_2 Cu1 1_555 1_555
N2B_2 Cu1B 1_555 1_555
N2C N3C 1_555 1_555
N3C N4 1_555 1_555
N4B Cu1 1_555 1_555
C5 N1 1_555 1_555
Cu1_2 N2B_2 1_555 1_555
C1B N1B 1_555 1_555
C2B C3B 1_555 1_555
C5B N1B 1_555 1_555

#END
