
#######################################################################
#
#                 Cambridge Crystallographic Data Centre
#                                CCDC 
#
#######################################################################
#
# If this CIF has been generated from an entry in the Cambridge 
# Structural Database, then it will include bibliographic, chemical, 
# crystal, experimental, refinement or atomic coordinate data resulting 
# from the CCDC's data processing and validation procedures.
#
#######################################################################

data_MIRQIO
_symmetry_cell_setting           triclinic
_symmetry_space_group_name_H-M   'P -1'
_symmetry_Int_Tables_number      2
_space_group_name_Hall           '-P 1'
loop_
_symmetry_equiv_pos_site_id
_symmetry_equiv_pos_as_xyz
1 x,y,z
2 -x,-y,-z
_cell_length_a                   10.105(2)
_cell_length_b                   12.230(2)
_cell_length_c                   13.052(3)
_cell_angle_alpha                72.50(3)
_cell_angle_beta                 73.13(3)
_cell_angle_gamma                77.57(3)
_cell_volume                     1457.62
loop_
_atom_site_label
_atom_site_type_symbol
_atom_site_fract_x
_atom_site_fract_y
_atom_site_fract_z
Ni1 Ni 0.55118(3) 0.06895(3) 0.29346(3)
F1 F 0.11227(19) 0.57062(15) 0.2085(2)
C1 C 0.1138(3) 0.1404(2) 0.3988(2)
C2 C -0.0181(3) 0.1367(3) 0.3899(3)
H1 H -0.0297 0.0864 0.3532
C3 C -0.1329(3) 0.2070(3) 0.4349(3)
H2 H -0.2216 0.2037 0.4295
C4 C -0.1139(3) 0.2818(2) 0.4879(2)
C5 C 0.0162(3) 0.2876(2) 0.4971(3)
H3 H 0.0276 0.3396 0.5322
C6 C 0.1296(3) 0.2156(2) 0.4539(2)
H4 H 0.2175 0.2175 0.4618
C7 C 0.2412(3) 0.0689(2) 0.3475(2)
C8 C -0.2530(3) 0.4649(2) 0.4784(2)
C9 C -0.3601(3) 0.5352(2) 0.5311(2)
H5 H -0.4120 0.5051 0.6021
C10 C -0.3900(3) 0.6506(2) 0.4779(3)
H6 H -0.4615 0.6979 0.5139
C11 C -0.3143(3) 0.6967(2) 0.3712(2)
C12 C -0.2076(3) 0.6244(2) 0.3210(2)
H7 H -0.1554 0.6541 0.2500
C13 C -0.1759(3) 0.5093(2) 0.3730(3)
H8 H -0.1035 0.4622 0.3375
C14 C -0.3468(3) 0.8187(2) 0.3084(2)
C15 C 0.7543(3) 0.4092(2) 0.1121(3)
H9 H 0.8511 0.4014 0.0884
C16 C 0.6950(3) 0.3094(2) 0.1539(2)
C17 C 0.5467(3) 0.3187(2) 0.1938(2)
C18 C 0.4717(3) 0.4358(2) 0.1767(2)
C19 C 0.5390(3) 0.5341(2) 0.1316(2)
C20 C 0.7920(3) 0.1960(2) 0.1557(2)
C21 C 0.3258(3) 0.4520(2) 0.2061(3)
H10 H 0.2780 0.3882 0.2377
C22 C 0.2540(3) 0.5596(2) 0.1887(3)
C23 C 0.3163(3) 0.6614(2) 0.1475(2)
C24 C 0.4612(3) 0.6458(2) 0.1191(2)
H11 H 0.5080 0.7102 0.0914
C25 C 0.1290(3) 0.7917(2) 0.2333(2)
H12 H 0.1751 0.8083 0.2815
H13 H 0.0842 0.7233 0.2734
C26 C 0.0199(3) 0.8933(2) 0.2016(3)
H14 H -0.0283 0.8761 0.1552
H15 H -0.0483 0.9074 0.2676
C27 C 0.1966(3) 0.9750(2) 0.0411(2)
H16 H 0.2439 1.0425 0.0034
H17 H 0.1515 0.9616 -0.0095
C28 C 0.3032(3) 0.8699(2) 0.0731(2)
H18 H 0.3698 0.8545 0.0069
H19 H 0.3539 0.8856 0.1186
C29 C 0.7665(4) 0.6173(3) 0.0620(3)
H20 H 0.7179 0.6750 0.1024
H21 H 0.8569 0.5905 0.0795
C30 C 0.7883(5) 0.6721(4) -0.0552(4)
H22 H 0.8412 0.7348 -0.0738
H23 H 0.6996 0.7015 -0.0733
H24 H 0.8385 0.6165 -0.0963
N1 N 0.6856(3) 0.51763(19) 0.1020(2)
N2 N 0.2331(2) 0.76972(18) 0.13355(19)
N3 N 0.0891(2) 0.99712(18) 0.14108(18)
H25 H 0.1298 1.0151 0.1856
H26 H 0.0252 1.0575 0.1207
O1 O 0.34733(19) 0.05291(16) 0.38500(15)
O2 O 0.2384(2) 0.0318(2) 0.26830(19)
O3 O -0.2308(2) 0.35044(16) 0.53603(17)
O4 O -0.3916(2) 0.89556(15) 0.36257(16)
O5 O -0.3263(3) 0.83834(18) 0.20552(17)
O6 O 0.4769(2) 0.23599(15) 0.23930(18)
O7 O 0.7459(2) 0.10163(15) 0.20642(17)
O8 O 0.9162(2) 0.20092(16) 0.10377(18)
O9 O 0.5830(2) 0.10404(15) 0.43009(15)
H27 H 0.6392 0.0565 0.4655
H28 H 0.5204 0.1036 0.4899
O10 O 0.5096(2) 0.03404(17) 0.16040(15)
H29 H 0.5639 -0.0287 0.1553
H30 H 0.4342 0.0066 0.1966
Ni1_2 Ni -0.44882(3) 1.06895(3) 0.29346(3)
O4_2 O 0.6084(2) -0.10444(15) 0.36257(16)
loop_
_geom_bond_atom_site_label_1
_geom_bond_atom_site_label_2
_geom_bond_site_symmetry_1
_geom_bond_site_symmetry_2
Ni1 O1 1_555 1_555
F1 C22 1_555 1_555
C1 C2 1_555 1_555
C2 H1 1_555 1_555
C3 C2 1_555 1_555
H2 C3 1_555 1_555
C4 C3 1_555 1_555
C5 C4 1_555 1_555
H3 C5 1_555 1_555
C6 C1 1_555 1_555
H4 C6 1_555 1_555
C7 C1 1_555 1_555
C8 C9 1_555 1_555
C9 H5 1_555 1_555
C10 C9 1_555 1_555
H6 C10 1_555 1_555
C11 C10 1_555 1_555
C12 C11 1_555 1_555
H7 C12 1_555 1_555
C13 C8 1_555 1_555
H8 C13 1_555 1_555
C14 C11 1_555 1_555
C15 H9 1_555 1_555
C16 C15 1_555 1_555
C17 C16 1_555 1_555
C18 C17 1_555 1_555
C19 C18 1_555 1_555
C20 C16 1_555 1_555
C21 C18 1_555 1_555
H10 C21 1_555 1_555
C22 C21 1_555 1_555
C23 C22 1_555 1_555
C24 C19 1_555 1_555
H11 C24 1_555 1_555
C25 H12 1_555 1_555
H13 C25 1_555 1_555
C26 C25 1_555 1_555
H14 C26 1_555 1_555
H15 C26 1_555 1_555
C27 H16 1_555 1_555
H17 C27 1_555 1_555
C28 C27 1_555 1_555
H18 C28 1_555 1_555
H19 C28 1_555 1_555
C29 H20 1_555 1_555
H21 C29 1_555 1_555
C30 C29 1_555 1_555
H22 C30 1_555 1_555
H23 C30 1_555 1_555
H24 C30 1_555 1_555
N1 C15 1_555 1_555
N2 C23 1_555 1_555
N3 C26 1_555 1_555
H25 N3 1_555 1_555
H26 N3 1_555 1_555
O1 C7 1_555 1_555
O2 C7 1_555 1_555
O3 C4 1_555 1_555
O4 C14 1_555 1_555
O5 C14 1_555 1_555
O6 Ni1 1_555 1_555
O7 Ni1 1_555 1_555
O8 C20 1_555 1_555
O9 Ni1 1_555 1_555
H27 O9 1_555 1_555
H28 O9 1_555 1_555
O10 Ni1 1_555 1_555
H29 O10 1_555 1_555
H30 O10 1_555 1_555
Ni1_2 O4 1_555 1_555
O4_2 Ni1 1_555 1_555
C5 C6 1_555 1_555
C8 O3 1_555 1_555
C12 C13 1_555 1_555
C17 O6 1_555 1_555
C19 N1 1_555 1_555
C20 O7 1_555 1_555
C23 C24 1_555 1_555
C25 N2 1_555 1_555
C27 N3 1_555 1_555
C28 N2 1_555 1_555
C29 N1 1_555 1_555

#END
