
#######################################################################
#
#                 Cambridge Crystallographic Data Centre
#                                CCDC 
#
#######################################################################
#
# If this CIF has been generated from an entry in the Cambridge 
# Structural Database, then it will include bibliographic, chemical, 
# crystal, experimental, refinement or atomic coordinate data resulting 
# from the CCDC's data processing and validation procedures.
#
#######################################################################

data_MIRXIU
_symmetry_cell_setting           triclinic
_symmetry_space_group_name_H-M   'P -1'
_symmetry_Int_Tables_number      2
_space_group_name_Hall           '-P 1'
loop_
_symmetry_equiv_pos_site_id
_symmetry_equiv_pos_as_xyz
1 x,y,z
2 -x,-y,-z
_cell_length_a                   10.2057(1)
_cell_length_b                   12.8715(2)
_cell_length_c                   16.6340(3)
_cell_angle_alpha                72.597(1)
_cell_angle_beta                 85.361(1)
_cell_angle_gamma                81.907(1)
_cell_volume                     2062.56
loop_
_atom_site_label
_atom_site_type_symbol
_atom_site_fract_x
_atom_site_fract_y
_atom_site_fract_z
Cu1 Cu 0.30827(10) 0.69287(7) 0.46814(6)
Cu2 Cu 0.23206(12) 1.31394(8) 0.82611(6)
O1 O 0.4985(6) 0.6340(5) 0.4759(4)
O2 O 0.4036(7) 1.3740(5) 0.8082(4)
O3 O 0.2942(7) 1.2047(5) 0.7690(4)
O4 O 0.3003(7) 1.3286(5) 0.6426(4)
O5 O 0.3382(7) 0.8007(5) 0.3601(3)
O6 O 0.3818(8) 0.6787(5) 0.2886(4)
N1 N 0.2690(7) 0.8087(5) 0.5465(4)
N2 N 0.2624(8) 0.5807(6) 0.5773(4)
H1 H 0.3127 0.5138 0.5795
N3 N 0.1092(7) 0.7249(6) 0.4532(5)
H2 H 0.0921 0.7475 0.3961
N4 N 0.2195(8) 1.1956(6) -0.0440(4)
N5 N 0.1506(11) 1.4266(7) -0.1157(5)
H3 H 0.184 1.4929 -0.1409
N6 N 0.0435(9) 1.2825(8) -0.1790(6)
H4 H 0.0369 1.2616 -0.2273
C1 C 0.3826(8) 0.8699(6) 0.5400(5)
H5 H 0.4083 0.899 0.4795
H6 H 0.458 0.8176 0.5673
C2 C 0.2412(9) 0.7398(7) 0.6334(5)
H7 H 0.1443 0.7428 0.6447
H8 H 0.2785 0.769 0.6741
C3 C 0.3012(10) 0.6210(7) 0.6455(5)
H9 H 0.3989 0.6158 0.6453
H10 H 0.2701 0.5746 0.7008
C4 C 0.1184(10) 0.5672(7) 0.5801(6)
H11 H 0.0694 0.6033 0.6204
H12 H 0.1078 0.4881 0.6005
C5 C 0.0610(10) 0.6166(7) 0.4941(6)
H13 H 0.0882 0.5668 0.4588
H14 H -0.037 0.6261 0.4998
C6 C 0.0499(8) 0.8122(7) 0.4928(6)
H15 H 0.0073 0.7774 0.5481
H16 H -0.0196 0.8612 0.4565
C7 C 0.1532(8) 0.8806(6) 0.5054(6)
H17 H 0.1813 0.9287 0.45
H18 H 0.1136 0.9277 0.5406
C8 C 0.3480(9) 1.1301(7) -0.0211(5)
H19 H 0.4115 1.1798 -0.0173
H20 H 0.3811 1.0979 -0.0671
C9 C 0.1651(14) 1.2616(9) 0.0105(6)
H21 H 0.2054 1.2309 0.0661
H22 H 0.0685 1.2582 0.0191
C10 C 0.1906(15) 1.3822(9) -0.0268(6)
H23 H 0.1399 1.4267 0.0073
H24 H 0.2859 1.3876 -0.0241
C11 C 0.0023(15) 1.4416(12) -0.1236(8)
H25 H -0.0299 1.521 -0.1405
H26 H -0.0397 1.4079 -0.0679
C12 C -0.0400(15) 1.3910(12) -0.1876(8)
H27 H -0.1347 1.3801 -0.1773
H28 H -0.0284 1.4405 -0.2453
C13 C 0.0060(12) 1.1935(11) -0.1041(7)
H29 H -0.0454 1.1453 -0.1222
H30 H -0.0516 1.2262 -0.0649
C14 C 0.1254(11) 1.1254(9) -0.0583(6)
H31 H 0.096 1.0771 -0.0034
H32 H 0.1711 1.0782 -0.0919
C15 C 0.3617(5) 0.9653(3) 0.5786(3)
C16 C 0.3835(5) 0.9455(3) 0.6636(3)
H33 H 0.4121 0.8732 0.6972
C17 C 0.3634(6) 1.0315(4) 0.6994(2)
H34 H 0.3783 1.018 0.7575
C18 C 0.3216(5) 1.1373(3) 0.6502(3)
C19 C 0.2998(5) 1.1571(3) 0.5652(3)
H35 H 0.2712 1.2294 0.5316
C20 C 0.3198(5) 1.0711(4) 0.5294(2)
H36 H 0.3049 1.0846 0.4714
C21 C 0.3042(8) 1.2320(6) 0.6883(5)
C22 C 0.3466(6) 1.0374(3) 0.0618(2)
C23 C 0.3340(6) 0.9317(4) 0.0609(2)
H37 H 0.3241 0.9175 0.009
C24 C 0.3359(6) 0.8468(3) 0.1358(3)
H38 H 0.3273 0.7745 0.1351
C25 C 0.3504(6) 0.8676(3) 0.2117(2)
C26 C 0.3630(6) 0.9733(4) 0.2127(2)
H39 H 0.3729 0.9875 0.2646
C27 C 0.3611(6) 1.0582(3) 0.1378(3)
H40 H 0.3697 1.1305 0.1384
C28 C 0.3583(8) 0.7747(6) 0.2918(5)
N4_2 N 0.2195(8) 1.1956(6) 0.9560(4)
N5_2 N 0.1506(11) 1.4266(7) 0.8843(5)
N6_2 N 0.0435(9) 1.2825(8) 0.8210(6)
Cu2_2 Cu 0.23206(12) 1.31394(8) -0.17389(6)
H3_2 H 0.184 1.4929 0.8591
H4_2 H 0.0369 1.2616 0.7727
P1 P 0.2402(4) 0.2979(3) 0.28035(19)
F1 F 0.0826(11) 0.3187(9) 0.2730(7)
F2 F 0.3889(14) 0.2838(17) 0.2962(11)
F3 F 0.2460(10) 0.4234(8) 0.2554(6)
F4 F 0.249(2) 0.1726(8) 0.3047(10)
F5 F 0.2522(18) 0.3086(15) 0.1859(7)
F6 F 0.2166(12) 0.2962(8) 0.3765(5)
P2 P 0.2575(7) 0.7193(5) 0.8985(3)
F7 F 0.3106(12) 0.6493(11) 0.8365(7)
F8 F 0.187(2) 0.8003(18) 0.9489(11)
F9 F 0.1166(13) 0.6747(11) 0.9038(9)
F10 F 0.3849(17) 0.767(2) 0.8916(13)
F11 F 0.2186(16) 0.8155(12) 0.8157(9)
F12 F 0.274(2) 0.6206(19) 0.9789(9)
O7 O 0.5243(17) 1.4682(13) -0.1011(11)
O8 O 0.9974(13) 0.8565(10) 0.2901(7)
O9 O 0.6587(7) 0.5152(5) 0.5979(4)
loop_
_geom_bond_atom_site_label_1
_geom_bond_atom_site_label_2
_geom_bond_site_symmetry_1
_geom_bond_site_symmetry_2
Cu1 O1 1_555 1_555
Cu2 O2 1_555 1_555
O3 Cu2 1_555 1_555
O4 C21 1_555 1_555
O5 Cu1 1_555 1_555
O6 C28 1_555 1_555
N1 Cu1 1_555 1_555
N2 Cu1 1_555 1_555
H1 N2 1_555 1_555
N3 Cu1 1_555 1_555
H2 N3 1_555 1_555
N4 C8 1_555 1_555
N5 H3 1_555 1_555
N6 H4 1_555 1_555
C1 N1 1_555 1_555
H5 C1 1_555 1_555
H6 C1 1_555 1_555
C2 N1 1_555 1_555
H7 C2 1_555 1_555
H8 C2 1_555 1_555
C3 N2 1_555 1_555
H9 C3 1_555 1_555
H10 C3 1_555 1_555
C4 N2 1_555 1_555
H11 C4 1_555 1_555
H12 C4 1_555 1_555
C5 N3 1_555 1_555
H13 C5 1_555 1_555
H14 C5 1_555 1_555
C6 N3 1_555 1_555
H15 C6 1_555 1_555
H16 C6 1_555 1_555
C7 N1 1_555 1_555
H17 C7 1_555 1_555
H18 C7 1_555 1_555
C8 H19 1_555 1_555
H20 C8 1_555 1_555
C9 N4 1_555 1_555
H21 C9 1_555 1_555
H22 C9 1_555 1_555
C10 N5 1_555 1_555
H23 C10 1_555 1_555
H24 C10 1_555 1_555
C11 N5 1_555 1_555
H25 C11 1_555 1_555
H26 C11 1_555 1_555
C12 N6 1_555 1_555
H27 C12 1_555 1_555
H28 C12 1_555 1_555
C13 N6 1_555 1_555
H29 C13 1_555 1_555
H30 C13 1_555 1_555
C14 N4 1_555 1_555
H31 C14 1_555 1_555
H32 C14 1_555 1_555
C15 C1 1_555 1_555
C16 C15 1_555 1_555
H33 C16 1_555 1_555
C17 C16 1_555 1_555
H34 C17 1_555 1_555
C18 C17 1_555 1_555
C19 C18 1_555 1_555
H35 C19 1_555 1_555
C20 C15 1_555 1_555
H36 C20 1_555 1_555
C21 O3 1_555 1_555
C22 C8 1_555 1_555
C23 C22 1_555 1_555
H37 C23 1_555 1_555
C24 C23 1_555 1_555
H38 C24 1_555 1_555
C25 C24 1_555 1_555
C26 C25 1_555 1_555
H39 C26 1_555 1_555
C27 C22 1_555 1_555
H40 C27 1_555 1_555
C28 O5 1_555 1_555
P1 F1 1_555 1_555
F2 P1 1_555 1_555
F3 P1 1_555 1_555
F4 P1 1_555 1_555
F5 P1 1_555 1_555
F6 P1 1_555 1_555
P2 F7 1_555 1_555
F8 P2 1_555 1_555
F9 P2 1_555 1_555
F10 P2 1_555 1_555
F11 P2 1_555 1_555
F12 P2 1_555 1_555
N4_2 Cu2 1_555 1_555
N5_2 Cu2 1_555 1_555
N6_2 Cu2 1_555 1_555
Cu2_2 N4 1_555 1_555
H3_2 N5_2 1_555 1_555
H4_2 N6_2 1_555 1_555
N5 Cu2_2 1_555 1_555
N6 Cu2_2 1_555 1_555
C2 C3 1_555 1_555
C4 C5 1_555 1_555
C6 C7 1_555 1_555
C9 C10 1_555 1_555
C11 C12 1_555 1_555
C13 C14 1_555 1_555
C18 C21 1_555 1_555
C19 C20 1_555 1_555
C25 C28 1_555 1_555
C26 C27 1_555 1_555

#END
