
#######################################################################
#
#                 Cambridge Crystallographic Data Centre
#                                CCDC 
#
#######################################################################
#
# If this CIF has been generated from an entry in the Cambridge 
# Structural Database, then it will include bibliographic, chemical, 
# crystal, experimental, refinement or atomic coordinate data resulting 
# from the CCDC's data processing and validation procedures.
#
#######################################################################

data_MIRZUK
_symmetry_cell_setting           triclinic
_symmetry_space_group_name_H-M   'P -1'
_symmetry_Int_Tables_number      2
_space_group_name_Hall           '-P 1'
loop_
_symmetry_equiv_pos_site_id
_symmetry_equiv_pos_as_xyz
1 x,y,z
2 -x,-y,-z
_cell_length_a                   12.2241(11)
_cell_length_b                   12.6089(11)
_cell_length_c                   13.5299(12)
_cell_angle_alpha                66.998(2)
_cell_angle_beta                 88.220(2)
_cell_angle_gamma                68.970(2)
_cell_volume                     1777.21
loop_
_atom_site_label
_atom_site_type_symbol
_atom_site_fract_x
_atom_site_fract_y
_atom_site_fract_z
Co1 Co 0.47288(3) 0.05454(3) 0.37692(2)
O1 O 0.1647(3) -0.2198(2) -0.2146(2)
N1 N 0.0575(3) -0.3791(3) -0.3930(3)
C1 C 0.0729(3) -0.5001(4) -0.3407(3)
H1 H 0.0428 -0.5358 -0.3761
O2 O 0.6615(2) -0.1806(2) 0.01099(19)
N2 N 0.3058(2) -0.4034(2) -0.1131(2)
H2 H 0.3359 -0.4819 -0.0974
C2 C 0.1306(3) -0.5726(3) -0.2379(3)
H3 H 0.1378 -0.6552 -0.2038
O3 O 0.53224(15) 0.18012(15) 0.39369(13)
N3 N 0.50439(19) -0.1974(2) 0.10032(16)
H4 H 0.4678 -0.1852 0.1526
C3 C 0.1779(3) -0.5216(3) -0.1856(3)
H5 H 0.2190 -0.5697 -0.1164
O4 O 0.57182(14) 0.09991(14) 0.57485(12)
N4 N 0.57506(17) 0.00877(18) 0.26110(15)
C4 C 0.1635(2) -0.3977(3) -0.2374(2)
O5 O 0.36732(14) 0.07983(15) 0.50630(13)
H6 H 0.3400 0.1585 0.4718
H7 H 0.3200 0.0613 0.5512
O6 O 0.65214(18) 0.17149(19) 0.74010(14)
N5 N 0.7496(2) 0.4000(2) 0.62333(19)
C5 C 0.1023(3) -0.3309(3) -0.3404(3)
H8 H 0.0918 -0.2474 -0.3751
O7 O 0.80196(15) 0.08197(16) 0.66583(15)
N6 N 0.32034(17) 0.19174(18) 0.26886(15)
C6 C 0.2103(3) -0.3319(3) -0.1885(2)
N7 N 0.09430(17) 0.10900(18) 0.10398(16)
H9 H 0.1405 0.0566 0.1629
O8 O 0.8113(3) 0.3078(2) 0.6938(2)
C7 C 0.3593(2) -0.3539(2) -0.0578(2)
O9 O 0.7367(4) 0.5008(3) 0.6198(3)
C8 C 0.3045(3) -0.3185(3) 0.0211(2)
H10 H 0.2335 -0.3277 0.0392
O10 O 0.0110(2) 0.31592(17) -0.00414(17)
C9 C 0.3554(3) -0.2689(3) 0.0737(2)
H11 H 0.3182 -0.2453 0.1270
C10 C 0.4616(2) -0.2543(2) 0.04705(19)
C11 C 0.5180(2) -0.2930(2) -0.0316(2)
H12 H 0.5900 -0.2861 -0.0492
C12 C 0.4651(3) -0.3417(3) -0.0829(2)
H13 H 0.5021 -0.3666 -0.1356
C13 C 0.5971(2) -0.1599(2) 0.0779(2)
C14 C 0.5511(2) -0.0557(2) 0.21169(18)
H14 H 0.4859 -0.0781 0.2277
C15 C 0.6199(2) -0.0904(2) 0.13745(18)
C16 C 0.7174(2) -0.0564(3) 0.1155(2)
H15 H 0.7650 -0.0772 0.0657
C17 C 0.7435(2) 0.0078(3) 0.1673(2)
H16 H 0.8095 0.0293 0.1543
C18 C 0.6699(2) 0.0398(2) 0.2389(2)
H17 H 0.6865 0.0846 0.2730
C19 C 0.56640(19) 0.1794(2) 0.48124(17)
C20 C 0.5996(2) 0.2868(2) 0.47126(18)
C21 C 0.5590(2) 0.3937(2) 0.3740(2)
H18 H 0.5176 0.3932 0.3178
C22 C 0.5789(3) 0.4991(2) 0.3596(2)
H19 H 0.5509 0.5690 0.2945
C23 C 0.6403(3) 0.5005(2) 0.4420(2)
H20 H 0.6532 0.5716 0.4341
C24 C 0.6828(2) 0.3940(2) 0.5372(2)
C25 C 0.66445(19) 0.2849(2) 0.55595(18)
C26 C 0.7094(2) 0.1697(2) 0.66349(18)
C27 C 0.2842(2) 0.3092(2) 0.2611(2)
H21 H 0.3291 0.3278 0.3016
C28 C 0.1839(3) 0.4031(2) 0.1959(2)
H22 H 0.1613 0.4833 0.1927
C29 C 0.1173(2) 0.3759(2) 0.1353(2)
H23 H 0.0502 0.4383 0.0893
C30 C 0.1512(2) 0.2549(2) 0.14361(18)
C31 C 0.0787(2) 0.2294(2) 0.0741(2)
C32 C 0.04325(19) 0.0593(2) 0.04936(18)
C33 C 0.2546(2) 0.1660(2) 0.21059(18)
H24 H 0.2792 0.0851 0.2152
C34 C -0.0137(2) 0.1238(2) -0.05708(19)
H25 H -0.0231 0.2065 -0.0959
C35 C -0.0557(2) 0.0643(2) -0.10425(19)
H26 H -0.0935 0.1083 -0.1749
N6A N -0.32034(17) -0.19174(18) -0.26886(15)
N7A N -0.09430(17) -0.10900(18) -0.10398(16)
H9A H -0.1405 -0.0566 -0.1629
O10A O -0.0110(2) -0.31592(17) 0.00414(17)
C27A C -0.2842(2) -0.3092(2) -0.2611(2)
H21A H -0.3291 -0.3278 -0.3016
C28A C -0.1839(3) -0.4031(2) -0.1959(2)
H22A H -0.1613 -0.4833 -0.1927
C29A C -0.1173(2) -0.3759(2) -0.1353(2)
H23A H -0.0502 -0.4383 -0.0893
C30A C -0.1512(2) -0.2549(2) -0.14361(18)
C31A C -0.0787(2) -0.2294(2) -0.0741(2)
C32A C -0.04325(19) -0.0593(2) -0.04936(18)
C33A C -0.2546(2) -0.1660(2) -0.21059(18)
H24A H -0.2792 -0.0851 -0.2152
C34A C 0.0137(2) -0.1238(2) 0.05708(19)
H25A H 0.0231 -0.2065 0.0959
C35A C 0.0557(2) -0.0643(2) 0.10425(19)
H26A H 0.0935 -0.1083 0.1749
Co1A Co -0.47288(3) -0.05454(3) -0.37692(2)
O1A O -0.1647(3) 0.2198(2) 0.2146(2)
N1A N -0.0575(3) 0.3791(3) 0.3930(3)
C1A C -0.0729(3) 0.5001(4) 0.3407(3)
H1A H -0.0428 0.5358 0.3761
O2A O -0.6615(2) 0.1806(2) -0.01099(19)
N2A N -0.3058(2) 0.4034(2) 0.1131(2)
H2A H -0.3359 0.4819 0.0974
C2A C -0.1306(3) 0.5726(3) 0.2379(3)
H3A H -0.1378 0.6552 0.2038
O3A O -0.53224(15) -0.18012(15) -0.39369(13)
N3A N -0.50439(19) 0.1974(2) -0.10032(16)
H4A H -0.4678 0.1852 -0.1526
C3A C -0.1779(3) 0.5216(3) 0.1856(3)
H5A H -0.2190 0.5697 0.1164
O4A O -0.57182(14) -0.09991(14) -0.57485(12)
N4A N -0.57506(17) -0.00877(18) -0.26110(15)
C4A C -0.1635(2) 0.3977(3) 0.2374(2)
O5A O -0.36732(14) -0.07983(15) -0.50630(13)
H6A H -0.3400 -0.1585 -0.4718
H7A H -0.3200 -0.0613 -0.5512
O6A O -0.65214(18) -0.17149(19) -0.74010(14)
N5A N -0.7496(2) -0.4000(2) -0.62333(19)
C5A C -0.1023(3) 0.3309(3) 0.3404(3)
H8A H -0.0918 0.2474 0.3751
O7A O -0.80196(15) -0.08197(16) -0.66583(15)
C6A C -0.2103(3) 0.3319(3) 0.1885(2)
O8A O -0.8113(3) -0.3078(2) -0.6938(2)
C7A C -0.3593(2) 0.3539(2) 0.0578(2)
O9A O -0.7367(4) -0.5008(3) -0.6198(3)
C8A C -0.3045(3) 0.3185(3) -0.0211(2)
H10A H -0.2335 0.3277 -0.0392
C9A C -0.3554(3) 0.2689(3) -0.0737(2)
H11A H -0.3182 0.2453 -0.1270
C10A C -0.4616(2) 0.2543(2) -0.04705(19)
C11A C -0.5180(2) 0.2930(2) 0.0316(2)
H12A H -0.5900 0.2861 0.0492
C12A C -0.4651(3) 0.3417(3) 0.0829(2)
H13A H -0.5021 0.3666 0.1356
C13A C -0.5971(2) 0.1599(2) -0.0779(2)
C14A C -0.5511(2) 0.0557(2) -0.21169(18)
H14A H -0.4859 0.0781 -0.2277
C15A C -0.6199(2) 0.0904(2) -0.13745(18)
C16A C -0.7174(2) 0.0564(3) -0.1155(2)
H15A H -0.7650 0.0772 -0.0657
C17A C -0.7435(2) -0.0078(3) -0.1673(2)
H16A H -0.8095 -0.0293 -0.1543
C18A C -0.6699(2) -0.0398(2) -0.2389(2)
H17A H -0.6865 -0.0846 -0.2730
C19A C -0.56640(19) -0.1794(2) -0.48124(17)
C20A C -0.5996(2) -0.2868(2) -0.47126(18)
C21A C -0.5590(2) -0.3937(2) -0.3740(2)
H18A H -0.5176 -0.3932 -0.3178
C22A C -0.5789(3) -0.4991(2) -0.3596(2)
H19A H -0.5509 -0.5690 -0.2945
C23A C -0.6403(3) -0.5005(2) -0.4420(2)
H20A H -0.6532 -0.5716 -0.4341
C24A C -0.6828(2) -0.3940(2) -0.5372(2)
C25A C -0.66445(19) -0.2849(2) -0.55595(18)
C26A C -0.7094(2) -0.1697(2) -0.66349(18)
Co1_2 Co -0.52712(3) 0.05454(3) -0.62308(2)
Co1A_2 Co 0.52712(3) -0.05454(3) 0.62308(2)
O4_2 O -0.42818(14) 0.09991(14) -0.42515(12)
O4A_2 O 0.42818(14) -0.09991(14) 0.42515(12)
O5_2 O -0.63268(14) 0.07983(15) -0.49370(13)
O5A_2 O 0.63268(14) -0.07983(15) 0.49370(13)
O11 O -0.0644(3) -0.2550(3) -0.6041(3)
H27 H 0.0085 -0.2962 -0.5802
H28 H -0.0706 -0.2252 -0.6728
O12 O 0.2681(3) 0.2752(3) 0.5513(3)
H29 H 0.2347 0.3539 0.5197
H30 H 0.2889 0.2569 0.6172
O13 O 0.1817(2) 0.0328(3) 0.4804(3)
H31 H 0.1394 0.0801 0.4195
H32 H 0.1938 -0.0418 0.4910
O14 O 0.03804(19) 0.0249(2) -0.35893(19)
H33 H 0.0790 -0.0405 -0.3048
H34 H -0.0302 0.0539 -0.3413
loop_
_geom_bond_atom_site_label_1
_geom_bond_atom_site_label_2
_geom_bond_site_symmetry_1
_geom_bond_site_symmetry_2
Co1 O3 1_555 1_555
O1 C6 1_555 1_555
N1 C1 1_555 1_555
C1 H1 1_555 1_555
O2 C13 1_555 1_555
N2 H2 1_555 1_555
C2 C1 1_555 1_555
H3 C2 1_555 1_555
O3 C19 1_555 1_555
N3 H4 1_555 1_555
C3 C2 1_555 1_555
H5 C3 1_555 1_555
O4 C19 1_555 1_555
N4 Co1 1_555 1_555
C4 C3 1_555 1_555
O5 Co1 1_555 1_555
H6 O5 1_555 1_555
H7 O5 1_555 1_555
O6 C26 1_555 1_555
N5 O8 1_555 1_555
C5 N1 1_555 1_555
H8 C5 1_555 1_555
O7 C26 1_555 1_555
N6 Co1 1_555 1_555
C6 N2 1_555 1_555
N7 H9 1_555 1_555
C7 N2 1_555 1_555
O9 N5 1_555 1_555
C8 C7 1_555 1_555
H10 C8 1_555 1_555
O10 C31 1_555 1_555
C9 C8 1_555 1_555
H11 C9 1_555 1_555
C10 N3 1_555 1_555
C11 C10 1_555 1_555
H12 C11 1_555 1_555
C12 C7 1_555 1_555
H13 C12 1_555 1_555
C13 N3 1_555 1_555
C14 N4 1_555 1_555
H14 C14 1_555 1_555
C15 C13 1_555 1_555
C16 C15 1_555 1_555
H15 C16 1_555 1_555
C17 C16 1_555 1_555
H16 C17 1_555 1_555
C18 N4 1_555 1_555
H17 C18 1_555 1_555
C19 C20 1_555 1_555
C20 C21 1_555 1_555
C21 H18 1_555 1_555
C22 C21 1_555 1_555
H19 C22 1_555 1_555
C23 C22 1_555 1_555
H20 C23 1_555 1_555
C24 N5 1_555 1_555
C25 C20 1_555 1_555
C26 C25 1_555 1_555
C27 N6 1_555 1_555
H21 C27 1_555 1_555
C28 C27 1_555 1_555
H22 C28 1_555 1_555
C29 C28 1_555 1_555
H23 C29 1_555 1_555
C30 C29 1_555 1_555
C31 N7 1_555 1_555
C32 N7 1_555 1_555
C33 N6 1_555 1_555
H24 C33 1_555 1_555
C34 C32 1_555 1_555
H25 C34 1_555 1_555
C35 C34 1_555 1_555
H26 C35 1_555 1_555
O11 H27 1_555 1_555
H28 O11 1_555 1_555
O12 H29 1_555 1_555
H30 O12 1_555 1_555
O13 H31 1_555 1_555
H32 O13 1_555 1_555
O14 H33 1_555 1_555
H34 O14 1_555 1_555
N6A C27A 1_555 1_555
N7A H9A 1_555 1_555
O10A C31A 1_555 1_555
C27A H21A 1_555 1_555
C28A C27A 1_555 1_555
H22A C28A 1_555 1_555
C29A C28A 1_555 1_555
H23A C29A 1_555 1_555
C30A C29A 1_555 1_555
C31A N7A 1_555 1_555
C32A C35 1_555 1_555
C33A N6A 1_555 1_555
H24A C33A 1_555 1_555
C34A C32A 1_555 1_555
H25A C34A 1_555 1_555
C35A C32 1_555 1_555
H26A C35A 1_555 1_555
Co1A N6A 1_555 1_555
O1A C6A 1_555 1_555
N1A C1A 1_555 1_555
C1A H1A 1_555 1_555
O2A C13A 1_555 1_555
N2A H2A 1_555 1_555
C2A C1A 1_555 1_555
H3A C2A 1_555 1_555
O3A Co1A 1_555 1_555
N3A H4A 1_555 1_555
C3A C2A 1_555 1_555
H5A C3A 1_555 1_555
O4A C19A 1_555 1_555
N4A Co1A 1_555 1_555
C4A C3A 1_555 1_555
O5A Co1A 1_555 1_555
H6A O5A 1_555 1_555
H7A O5A 1_555 1_555
O6A C26A 1_555 1_555
N5A O8A 1_555 1_555
C5A N1A 1_555 1_555
H8A C5A 1_555 1_555
O7A C26A 1_555 1_555
C6A N2A 1_555 1_555
C7A N2A 1_555 1_555
O9A N5A 1_555 1_555
C8A C7A 1_555 1_555
H10A C8A 1_555 1_555
C9A C8A 1_555 1_555
H11A C9A 1_555 1_555
C10A N3A 1_555 1_555
C11A C10A 1_555 1_555
H12A C11A 1_555 1_555
C12A C7A 1_555 1_555
H13A C12A 1_555 1_555
C13A N3A 1_555 1_555
C14A N4A 1_555 1_555
H14A C14A 1_555 1_555
C15A C13A 1_555 1_555
C16A C15A 1_555 1_555
H15A C16A 1_555 1_555
C17A C16A 1_555 1_555
H16A C17A 1_555 1_555
C18A N4A 1_555 1_555
H17A C18A 1_555 1_555
C19A O3A 1_555 1_555
C20A C19A 1_555 1_555
C21A C20A 1_555 1_555
H18A C21A 1_555 1_555
C22A C21A 1_555 1_555
H19A C22A 1_555 1_555
C23A C22A 1_555 1_555
H20A C23A 1_555 1_555
C24A N5A 1_555 1_555
C25A C20A 1_555 1_555
C26A C25A 1_555 1_555
Co1_2 Co1A 1_555 1_555
Co1A_2 Co1 1_555 1_555
O4_2 Co1A 1_555 1_555
O4A_2 Co1 1_555 1_555
O5_2 Co1A 1_555 1_555
O5A_2 Co1 1_555 1_555
O4 Co1A_2 1_555 1_555
C4 C5 1_555 1_555
C4 C6 1_555 1_555
O5 Co1A_2 1_555 1_555
C9 C10 1_555 1_555
C11 C12 1_555 1_555
C14 C15 1_555 1_555
C17 C18 1_555 1_555
C23 C24 1_555 1_555
C24 C25 1_555 1_555
C30 C31 1_555 1_555
C30 C33 1_555 1_555
N7A C32A 1_555 1_555
C30A C31A 1_555 1_555
C30A C33A 1_555 1_555
C34A C35A 1_555 1_555
O4A Co1_2 1_555 1_555
C4A C5A 1_555 1_555
C4A C6A 1_555 1_555
O5A Co1_2 1_555 1_555
C9A C10A 1_555 1_555
C11A C12A 1_555 1_555
C14A C15A 1_555 1_555
C17A C18A 1_555 1_555
C23A C24A 1_555 1_555
C24A C25A 1_555 1_555
Co1_2 O5_2 1_555 1_555
Co1A_2 O5A_2 1_555 1_555

#END
