
#######################################################################
#
#                 Cambridge Crystallographic Data Centre
#                                CCDC 
#
#######################################################################
#
# If this CIF has been generated from an entry in the Cambridge 
# Structural Database, then it will include bibliographic, chemical, 
# crystal, experimental, refinement or atomic coordinate data resulting 
# from the CCDC's data processing and validation procedures.
#
#######################################################################

data_MIRZEU
_symmetry_cell_setting           monoclinic
_symmetry_space_group_name_H-M   'P 21/c'
_symmetry_Int_Tables_number      14
_space_group_name_Hall           '-P 2ybc'
loop_
_symmetry_equiv_pos_site_id
_symmetry_equiv_pos_as_xyz
1 x,y,z
2 -x,1/2+y,1/2-z
3 -x,-y,-z
4 x,1/2-y,1/2+z
_cell_length_a                   15.0223(7)
_cell_length_b                   7.6777(2)
_cell_length_c                   15.9058(6)
_cell_angle_alpha                90
_cell_angle_beta                 116.907(6)
_cell_angle_gamma                90
_cell_volume                     1635.92
loop_
_atom_site_label
_atom_site_type_symbol
_atom_site_fract_x
_atom_site_fract_y
_atom_site_fract_z
C1 C 0.1482(3) 0.2722(5) 0.2025(3)
N1 N 0.0332(3) 0.8779(4) 0.1832(2)
H1 H 0.0311 0.8623 0.2358
H2 H 0.0173 0.9774 0.1554
O1 O 0.1373(2) 0.2520(4) 0.27651(19)
Co1 Co 0.16186(4) -0.00870(7) 0.29194(4)
C2 C 0.1242(3) 0.4446(5) 0.1533(3)
N2 N 0.2752(2) -0.1728(4) 0.3034(2)
O2 O 0.1759(3) 0.1472(4) 0.1696(2)
C3 C 0.0885(3) 0.5800(5) 0.1879(3)
H3 H 0.0815 0.5635 0.2426
N3 N 0.4228(3) -0.4650(4) 0.1309(2)
H4 H 0.4159 -0.5581 0.1574
O3 O 0.1590(2) 0.5305(4) -0.08770(19)
C4 C 0.0632(3) 0.7386(5) 0.1419(3)
O4 O 0.0929(3) 0.7960(4) -0.1071(2)
C5 C 0.0746(3) 0.7637(5) 0.0607(3)
H5 H 0.0580 0.8704 0.0297
O5 O 0.3971(2) -0.1723(4) 0.1164(2)
C6 C 0.1108(3) 0.6300(5) 0.0257(3)
C7 C 0.1204(3) 0.6578(5) -0.0635(3)
C8 C 0.1361(3) 0.4706(5) 0.0722(3)
H6 H 0.1609 0.3815 0.0491
C9 C 0.3027(3) -0.1878(5) 0.2341(3)
H7 H 0.2774 -0.1083 0.1846
C10 C 0.3669(3) -0.3164(5) 0.2330(3)
C11 C 0.3963(3) -0.3114(5) 0.1545(3)
C12 C 0.4617(3) -0.4809(5) 0.0639(3)
C13 C 0.5420(3) -0.3823(5) 0.0728(3)
H8 H 0.5708 -0.3032 0.1221
C14 C 0.4198(3) -0.5999(5) -0.0088(3)
H9 H 0.3661 -0.6678 -0.0147
C15 C 0.4047(3) -0.4342(6) 0.3070(3)
H10 H 0.4475 -0.5228 0.3082
C16 C 0.3777(3) -0.4177(6) 0.3789(3)
H11 H 0.4025 -0.4951 0.4294
C17 C 0.3141(3) -0.2869(5) 0.3755(3)
H12 H 0.2971 -0.2765 0.4247
N2B N 0.7248(2) -0.8272(4) -0.3034(2)
N3B N 0.5772(3) -0.5350(4) -0.1309(2)
H4B H 0.5841 -0.4419 -0.1574
O5B O 0.6029(2) -0.8277(4) -0.1164(2)
C9B C 0.6973(3) -0.8122(5) -0.2341(3)
H7B H 0.7226 -0.8917 -0.1846
C10B C 0.6331(3) -0.6836(5) -0.2330(3)
C11B C 0.6037(3) -0.6886(5) -0.1545(3)
C12B C 0.5383(3) -0.5191(5) -0.0639(3)
C13B C 0.4580(3) -0.6177(5) -0.0728(3)
H8B H 0.4292 -0.6968 -0.1221
C14B C 0.5802(3) -0.4001(5) 0.0088(3)
H9B H 0.6339 -0.3322 0.0147
C15B C 0.5953(3) -0.5658(6) -0.3070(3)
H10B H 0.5525 -0.4772 -0.3082
C16B C 0.6223(3) -0.5823(6) -0.3789(3)
H11B H 0.5975 -0.5049 -0.4294
C17B C 0.6859(3) -0.7131(5) -0.3755(3)
H12B H 0.7029 -0.7235 -0.4247
C1B C 0.8518(3) -1.2722(5) -0.2025(3)
N1B N 0.9668(3) -1.8779(4) -0.1832(2)
H1B H 0.9689 -1.8623 -0.2358
H2B H 0.9827 -1.9774 -0.1554
O1B O 0.8627(2) -1.2520(4) -0.27651(19)
Co1B Co 0.83814(4) -0.99130(7) -0.29194(4)
C2B C 0.8758(3) -1.4446(5) -0.1533(3)
O2B O 0.8241(3) -1.1472(4) -0.1696(2)
C3B C 0.9115(3) -1.5800(5) -0.1879(3)
H3B H 0.9185 -1.5635 -0.2426
O3B O 0.8410(2) -1.5305(4) 0.08770(19)
C4B C 0.9368(3) -1.7386(5) -0.1419(3)
O4B O 0.9071(3) -1.7960(4) 0.1071(2)
C5B C 0.9254(3) -1.7637(5) -0.0607(3)
H5B H 0.9420 -1.8704 -0.0297
C6B C 0.8892(3) -1.6300(5) -0.0257(3)
C7B C 0.8796(3) -1.6578(5) 0.0635(3)
C8B C 0.8639(3) -1.4706(5) -0.0722(3)
H6B H 0.8391 -1.3815 -0.0491
N1_2 N 0.0332(3) -0.1221(4) 0.1832(2)
N1B_2 N 0.9668(3) -0.8779(4) -0.1832(2)
Co1_2 Co 0.16186(4) 0.99130(7) 0.29194(4)
Co1A Co 0.83814(4) -1.50870(7) 0.20806(4)
Co1B_2 Co 0.83814(4) -1.99130(7) -0.29194(4)
Co1C Co 0.16186(4) 0.50870(7) -0.20806(4)
O3A O 0.8410(2) -0.9695(4) -0.41230(19)
O3C O 0.1590(2) -0.0305(4) 0.41230(19)
O6 O 0.3647(3) -0.8036(4) 0.1634(3)
H13 H 0.4013 -0.8709 0.2082
H14 H 0.3069 -0.8030 0.1608
O7 O 0.2181(9) -0.8846(13) -0.0254(8)
H15 H 0.2424 -0.8224 -0.0542
H16 H 0.2309 -0.9904 -0.0313
loop_
_geom_bond_atom_site_label_1
_geom_bond_atom_site_label_2
_geom_bond_site_symmetry_1
_geom_bond_site_symmetry_2
C1 O1 1_555 1_555
N1 H1 1_555 1_555
H2 N1 1_555 1_555
O1 Co1 1_555 1_555
Co1 N2 1_555 1_555
C2 C1 1_555 1_555
N2 C9 1_555 1_555
O2 C1 1_555 1_555
C3 C2 1_555 1_555
H3 C3 1_555 1_555
N3 H4 1_555 1_555
O3 C7 1_555 1_555
C4 N1 1_555 1_555
O4 C7 1_555 1_555
C5 C4 1_555 1_555
H5 C5 1_555 1_555
O5 C11 1_555 1_555
C6 C5 1_555 1_555
C7 C6 1_555 1_555
C8 C2 1_555 1_555
H6 C8 1_555 1_555
C9 H7 1_555 1_555
C10 C9 1_555 1_555
C11 N3 1_555 1_555
C12 N3 1_555 1_555
C13 C12 1_555 1_555
H8 C13 1_555 1_555
C14 C12 1_555 1_555
H9 C14 1_555 1_555
C15 C10 1_555 1_555
H10 C15 1_555 1_555
C16 C15 1_555 1_555
H11 C16 1_555 1_555
C17 N2 1_555 1_555
H12 C17 1_555 1_555
O6 H13 1_555 1_555
H14 O6 1_555 1_555
O7 H15 1_555 1_555
H16 O7 1_555 1_555
N2B C9B 1_555 1_555
N3B H4B 1_555 1_555
O5B C11B 1_555 1_555
C9B H7B 1_555 1_555
C10B C9B 1_555 1_555
C11B N3B 1_555 1_555
C12B N3B 1_555 1_555
C13B C14 1_555 1_555
H8B C13B 1_555 1_555
C14B C13 1_555 1_555
H9B C14B 1_555 1_555
C15B C10B 1_555 1_555
H10B C15B 1_555 1_555
C16B C15B 1_555 1_555
H11B C16B 1_555 1_555
C17B N2B 1_555 1_555
H12B C17B 1_555 1_555
C1B O1B 1_555 1_555
N1B H1B 1_555 1_555
H2B N1B 1_555 1_555
O1B Co1B 1_555 1_555
Co1B N2B 1_555 1_555
C2B C1B 1_555 1_555
O2B C1B 1_555 1_555
C3B C2B 1_555 1_555
H3B C3B 1_555 1_555
O3B C7B 1_555 1_555
C4B N1B 1_555 1_555
O4B C7B 1_555 1_555
C5B C4B 1_555 1_555
H5B C5B 1_555 1_555
C6B C5B 1_555 1_555
C7B C6B 1_555 1_555
C8B C2B 1_555 1_555
H6B C8B 1_555 1_555
N1_2 Co1 1_555 1_555
N1B_2 Co1B 1_555 1_555
Co1_2 N1 1_555 1_555
Co1A O3B 1_555 1_555
Co1B_2 N1B 1_555 1_555
Co1C O3 1_555 1_555
O3A Co1B 1_555 1_555
O3C Co1 1_555 1_555
Co1 O2 1_555 1_555
C3 C4 1_555 1_555
C6 C8 1_555 1_555
C10 C11 1_555 1_555
C16 C17 1_555 1_555
C10B C11B 1_555 1_555
C12B C13B 1_555 1_555
C12B C14B 1_555 1_555
C16B C17B 1_555 1_555
Co1B O2B 1_555 1_555
C3B C4B 1_555 1_555
C6B C8B 1_555 1_555

#END
