
#######################################################################
#
#                 Cambridge Crystallographic Data Centre
#                                CCDC 
#
#######################################################################
#
# If this CIF has been generated from an entry in the Cambridge 
# Structural Database, then it will include bibliographic, chemical, 
# crystal, experimental, refinement or atomic coordinate data resulting 
# from the CCDC's data processing and validation procedures.
#
#######################################################################

data_MISHAY
_symmetry_cell_setting           monoclinic
_symmetry_space_group_name_H-M   'C 2/c'
_symmetry_Int_Tables_number      15
_space_group_name_Hall           '-C 2yn'
loop_
_symmetry_equiv_pos_site_id
_symmetry_equiv_pos_as_xyz
1 x,y,z
2 1/2+x,1/2+y,z
3 -x,y,1/2-z
4 1/2-x,1/2+y,1/2-z
5 -x,-y,-z
6 1/2-x,1/2-y,-z
7 x,-y,1/2+z
8 1/2+x,1/2-y,1/2+z
_cell_length_a                   13.520(4)
_cell_length_b                   10.625(3)
_cell_length_c                   8.877(3)
_cell_angle_alpha                90
_cell_angle_beta                 105.808(5)
_cell_angle_gamma                90
_cell_volume                     1226.95
loop_
_atom_site_label
_atom_site_type_symbol
_atom_site_fract_x
_atom_site_fract_y
_atom_site_fract_z
Cd1 Cd 0.5000 0.202071(15) 0.2500
O1 O 0.49688(11) 0.31422(12) 0.46619(18)
O2 O 0.35308(10) 0.35004(13) 0.28019(15)
N1 N 0.76063(11) -0.03566(14) 0.48255(18)
N2 N 0.67720(12) -0.10620(15) 0.4885(2)
N3 N 0.59751(12) -0.04390(16) 0.4179(2)
N4 N 0.62502(11) 0.06785(15) 0.36296(19)
N5 N 0.78777(12) 0.16021(15) 0.37108(19)
H1 H 0.8551 0.1522 0.4020
H2 H 0.7600 0.2275 0.3185
C1 C 0.72796(14) 0.07057(17) 0.4038(2)
C2 C 0.86433(14) -0.08251(18) 0.5428(2)
H3 H 0.8656 -0.1451 0.6260
H4 H 0.9098 -0.0119 0.5909
C3 C 0.40614(13) 0.35699(16) 0.4187(2)
Cd1A Cd 1.0000 -0.297929(15) 0.2500
Cd1A_2 Cd 0.0000 0.702071(15) 0.2500
O1B O 0.50312(11) 0.31422(12) 0.03381(18)
O1A O 0.99688(11) -0.18578(12) 0.46619(18)
O2B O 0.64692(10) 0.35004(13) 0.21981(15)
O2A O 0.85308(10) -0.14996(13) 0.28019(15)
N1A N 0.26063(11) 0.46434(14) 0.48255(18)
N2A N 0.17720(12) 0.39380(15) 0.4885(2)
N3A N 0.09751(12) 0.45610(16) 0.4179(2)
N4B N 0.37498(11) 0.06785(15) 0.13704(19)
N4A N 0.12502(11) 0.56785(15) 0.36296(19)
N5A N 0.28777(12) 0.66021(15) 0.37108(19)
H1A H 0.3551 0.6522 0.4020
H2A H 0.2600 0.7275 0.3185
C1A C 0.22796(14) 0.57057(17) 0.4038(2)
C2A C 0.36433(14) 0.41749(18) 0.5428(2)
H3A H 0.3656 0.3549 0.6260
H4A H 0.4098 0.4881 0.5909
C3A C 0.90614(13) -0.14301(16) 0.4187(2)
loop_
_geom_bond_atom_site_label_1
_geom_bond_atom_site_label_2
_geom_bond_site_symmetry_1
_geom_bond_site_symmetry_2
Cd1 O1 1_555 1_555
O1 C3 1_555 1_555
O2 Cd1 1_555 1_555
N1 N2 1_555 1_555
N2 N3 1_555 1_555
N3 N4 1_555 1_555
N4 Cd1 1_555 1_555
N5 H1 1_555 1_555
H2 N5 1_555 1_555
C1 N1 1_555 1_555
C2 N1 1_555 1_555
H3 C2 1_555 1_555
H4 C2 1_555 1_555
C3 O2 1_555 1_555
Cd1A O1A 1_555 1_555
Cd1A_2 N4A 1_555 1_555
O1B Cd1 1_555 1_555
O1A C3A 1_555 1_555
O2B Cd1 1_555 1_555
O2A Cd1A 1_555 1_555
N1A N2A 1_555 1_555
N2A N3A 1_555 1_555
N3A N4A 1_555 1_555
N4B Cd1 1_555 1_555
N4A C1A 1_555 1_555
N5A H1A 1_555 1_555
H2A N5A 1_555 1_555
C1A N1A 1_555 1_555
C2A C3 1_555 1_555
H3A C2A 1_555 1_555
H4A C2A 1_555 1_555
C3A C2 1_555 1_555
N4 C1 1_555 1_555
N5 C1 1_555 1_555
O2A C3A 1_555 1_555
N1A C2A 1_555 1_555
N5A C1A 1_555 1_555

#END
