
#######################################################################
#
#                 Cambridge Crystallographic Data Centre
#                                CCDC 
#
#######################################################################
#
# If this CIF has been generated from an entry in the Cambridge 
# Structural Database, then it will include bibliographic, chemical, 
# crystal, experimental, refinement or atomic coordinate data resulting 
# from the CCDC's data processing and validation procedures.
#
#######################################################################

data_MISPAH
_symmetry_cell_setting           monoclinic
_symmetry_space_group_name_H-M   'P 21/c'
_symmetry_Int_Tables_number      14
_space_group_name_Hall           '-P 2ybc'
loop_
_symmetry_equiv_pos_site_id
_symmetry_equiv_pos_as_xyz
1 x,y,z
2 -x,1/2+y,1/2-z
3 -x,-y,-z
4 x,1/2-y,1/2+z
_cell_length_a                   8.5454(3)
_cell_length_b                   20.1967(6)
_cell_length_c                   8.5732(3)
_cell_angle_alpha                90
_cell_angle_beta                 100.7910(10)
_cell_angle_gamma                90
_cell_volume                     1453.47
loop_
_atom_site_label
_atom_site_type_symbol
_atom_site_fract_x
_atom_site_fract_y
_atom_site_fract_z
Fe1 Fe 0.0000 0.0000 1.0000
N1 N -0.10255(15) 0.08015(6) 1.43846(15)
N2 N -0.00630(14) 0.04295(6) 1.23429(15)
N3 N -0.88223(15) 0.40702(6) 1.44508(16)
N4 N -0.72544(15) 0.34010(6) 1.34196(16)
N5 N 0.22895(15) -0.04595(7) 1.08022(17)
N6 N 0.34964(15) -0.02713(6) 1.15400(16)
C1 C -0.50096(19) 0.26232(8) 1.3398(2)
C2 C -0.2190(2) 0.09621(9) 1.5387(2)
H1 H -0.1633 0.1059 1.6455
H2 H -0.2872 0.0582 1.5438
C3 C -0.31989(19) 0.15495(8) 1.47456(19)
C4 C -0.74850(18) 0.40167(8) 1.39140(19)
H3 H -0.6781 0.4365 1.3881
C5 C -0.13405(18) 0.04940(8) 1.29797(19)
H4 H -0.2346 0.0343 1.2507
N7 N 0.47015(19) -0.01050(9) 1.2295(3)
C6 C -0.8521(2) 0.30335(8) 1.3675(2)
H5 H -0.8698 0.2586 1.3455
C7 C -0.5957(2) 0.31995(9) 1.2607(2)
H6 H -0.5248 0.3573 1.2580
H7 H -0.6407 0.3081 1.1519
C8 C -0.94655(19) 0.34488(8) 1.4308(2)
H8 H -1.0419 0.3330 1.4607
C9 C -0.4546(2) 0.14539(8) 1.3604(2)
H9 H -0.4859 0.1026 1.3284
C10 C -0.3685(2) 0.27214(8) 1.4558(2)
H10 H -0.3390 0.3149 1.4893
C11 C 0.0554(2) 0.09465(10) 1.4655(2)
H11 H 0.1128 0.1164 1.5535
C12 C -0.2784(2) 0.21884(9) 1.5231(2)
H12 H -0.1892 0.2261 1.6017
C13 C -0.5434(2) 0.19849(9) 1.2933(2)
H13 H -0.6332 0.1912 1.2154
C14 C 0.11248(19) 0.07143(9) 1.3402(2)
H14 H 0.2181 0.0745 1.3280
N1B N 0.10255(15) -0.08015(6) 0.56154(15)
N2B N 0.00630(14) -0.04295(6) 0.76571(15)
N3B N 0.88223(15) -0.40702(6) 0.55492(16)
N4B N 0.72544(15) -0.34010(6) 0.65804(16)
N5B N -0.22895(15) 0.04595(7) 0.91978(17)
N6B N -0.34964(15) 0.02713(6) 0.84600(16)
C1B C 0.50096(19) -0.26232(8) 0.6602(2)
C2B C 0.2190(2) -0.09621(9) 0.4613(2)
H1B H 0.1633 -0.1059 0.3545
H2B H 0.2872 -0.0582 0.4562
C3B C 0.31989(19) -0.15495(8) 0.52544(19)
C4B C 0.74850(18) -0.40167(8) 0.60860(19)
H3B H 0.6781 -0.4365 0.6119
C5B C 0.13405(18) -0.04940(8) 0.70203(19)
H4B H 0.2346 -0.0343 0.7493
N7B N -0.47015(19) 0.01050(9) 0.7705(3)
C6B C 0.8521(2) -0.30335(8) 0.6325(2)
H5B H 0.8698 -0.2586 0.6545
C7B C 0.5957(2) -0.31995(9) 0.7393(2)
H6B H 0.5248 -0.3573 0.7420
H7B H 0.6407 -0.3081 0.8481
C8B C 0.94655(19) -0.34488(8) 0.5692(2)
H8B H 1.0419 -0.3330 0.5393
C9B C 0.4546(2) -0.14539(8) 0.6396(2)
H9B H 0.4859 -0.1026 0.6716
C10B C 0.3685(2) -0.27214(8) 0.5442(2)
H10B H 0.3390 -0.3149 0.5107
C11B C -0.0554(2) -0.09465(10) 0.5345(2)
H11B H -0.1128 -0.1164 0.4465
C12B C 0.2784(2) -0.21884(9) 0.4769(2)
H12B H 0.1892 -0.2261 0.3983
C13B C 0.5434(2) -0.19849(9) 0.7067(2)
H13B H 0.6332 -0.1912 0.7846
C14B C -0.11248(19) -0.07143(9) 0.6598(2)
H14B H -0.2181 -0.0745 0.6720
Fe1A Fe -1.0000 0.5000 1.5000
Fe1A_2 Fe 1.0000 -0.5000 0.5000
N3A N -0.11777(15) -0.09298(6) 1.05492(16)
N3C N 0.11777(15) 0.09298(6) 0.94508(16)
loop_
_geom_bond_atom_site_label_1
_geom_bond_atom_site_label_2
_geom_bond_site_symmetry_1
_geom_bond_site_symmetry_2
Fe1 N2 1_555 1_555
N1 C2 1_555 1_555
N2 C5 1_555 1_555
N3 C4 1_555 1_555
N4 C4 1_555 1_555
N5 Fe1 1_555 1_555
N6 N5 1_555 1_555
C1 C7 1_555 1_555
C2 H1 1_555 1_555
H2 C2 1_555 1_555
C3 C2 1_555 1_555
C4 H3 1_555 1_555
C5 N1 1_555 1_555
H4 C5 1_555 1_555
N7 N6 1_555 1_555
C6 N4 1_555 1_555
H5 C6 1_555 1_555
C7 N4 1_555 1_555
H6 C7 1_555 1_555
H7 C7 1_555 1_555
C8 N3 1_555 1_555
H8 C8 1_555 1_555
C9 C3 1_555 1_555
H9 C9 1_555 1_555
C10 C1 1_555 1_555
H10 C10 1_555 1_555
C11 N1 1_555 1_555
H11 C11 1_555 1_555
C12 C3 1_555 1_555
H12 C12 1_555 1_555
C13 C1 1_555 1_555
H13 C13 1_555 1_555
C14 N2 1_555 1_555
H14 C14 1_555 1_555
N1B C2B 1_555 1_555
N2B Fe1 1_555 1_555
N3B C4B 1_555 1_555
N4B C4B 1_555 1_555
N5B Fe1 1_555 1_555
N6B N5B 1_555 1_555
C1B C7B 1_555 1_555
C2B H1B 1_555 1_555
H2B C2B 1_555 1_555
C3B C2B 1_555 1_555
C4B H3B 1_555 1_555
C5B N1B 1_555 1_555
H4B C5B 1_555 1_555
N7B N6B 1_555 1_555
C6B N4B 1_555 1_555
H5B C6B 1_555 1_555
C7B N4B 1_555 1_555
H6B C7B 1_555 1_555
H7B C7B 1_555 1_555
C8B N3B 1_555 1_555
H8B C8B 1_555 1_555
C9B C3B 1_555 1_555
H9B C9B 1_555 1_555
C10B C1B 1_555 1_555
H10B C10B 1_555 1_555
C11B N1B 1_555 1_555
H11B C11B 1_555 1_555
C12B C3B 1_555 1_555
H12B C12B 1_555 1_555
C13B C1B 1_555 1_555
H13B C13B 1_555 1_555
C14B N2B 1_555 1_555
H14B C14B 1_555 1_555
Fe1A N3 1_555 1_555
Fe1A_2 N3B 1_555 1_555
N3A Fe1 1_555 1_555
N3C Fe1 1_555 1_555
C6 C8 1_555 1_555
C9 C13 1_555 1_555
C10 C12 1_555 1_555
C11 C14 1_555 1_555
N2B C5B 1_555 1_555
C6B C8B 1_555 1_555
C9B C13B 1_555 1_555
C10B C12B 1_555 1_555
C11B C14B 1_555 1_555

#END
