
#######################################################################
#
#                 Cambridge Crystallographic Data Centre
#                                CCDC 
#
#######################################################################
#
# If this CIF has been generated from an entry in the Cambridge 
# Structural Database, then it will include bibliographic, chemical, 
# crystal, experimental, refinement or atomic coordinate data resulting 
# from the CCDC's data processing and validation procedures.
#
#######################################################################

data_MITGUR
_symmetry_cell_setting           monoclinic
_symmetry_space_group_name_H-M   'P 21/n'
_symmetry_Int_Tables_number      14
_space_group_name_Hall           '-P 2yn'
loop_
_symmetry_equiv_pos_site_id
_symmetry_equiv_pos_as_xyz
1 x,y,z
2 1/2+x,1/2-y,1/2+z
3 -x,-y,-z
4 1/2-x,1/2+y,1/2-z
_cell_length_a                   10.7246(12)
_cell_length_b                   7.1693(9)
_cell_length_c                   17.158(2)
_cell_angle_alpha                90
_cell_angle_beta                 97.109(2)
_cell_angle_gamma                90
_cell_volume                     1309.1
loop_
_atom_site_label
_atom_site_type_symbol
_atom_site_fract_x
_atom_site_fract_y
_atom_site_fract_z
Tb1 Tb 0.17571(5) -0.47995(7) 0.74673(3)
O1 O -0.0105(8) -0.6159(12) 0.7825(5)
O3 O 0.0836(8) -0.5761(10) 0.6139(5)
O4 O 0.1465(7) -0.8096(9) 0.6917(4)
O6 O 0.2051(7) -1.1920(11) 0.6701(4)
O7 O 0.0062(7) -1.2521(10) 0.6850(4)
O8 O 0.3452(7) -0.5288(11) 0.6763(4)
O9 O 0.3861(7) -0.8212(10) 0.6432(4)
O10 O 0.6520(8) -0.8194(11) 0.6495(5)
O11 O 0.6503(9) -0.9560(12) 0.5323(5)
C1 C 0.0069(11) -0.8127(15) 0.4889(7)
H1 H 0.0099 -0.6845 0.4812
C2 C 0.0495(11) -0.8820(14) 0.5622(7)
C3 C 0.0406(11) -1.0758(14) 0.5741(7)
C4 C 0.0951(10) -0.7485(16) 0.6267(7)
C5 C 0.0860(12) -1.1724(15) 0.6488(7)
C6 C 0.4016(11) -0.4108(15) 0.5299(7)
H2 H 0.3355 -0.3502 0.5496
C7 C 0.4520(11) -0.5717(15) 0.5677(7)
C8 C 0.5531(11) -0.6611(16) 0.5361(7)
C9 C 0.3891(10) -0.6475(16) 0.6359(7)
C10 C 0.6203(11) -0.8194(17) 0.5778(7)
C3B C -0.0406(11) -0.9242(14) 0.4259(7)
C2B C -0.0495(11) -1.1180(14) 0.4378(7)
C1B C -0.0069(11) -1.1873(15) 0.5111(7)
H1B H -0.0099 -1.3155 0.5188
C4B C -0.0951(10) -1.2515(16) 0.3733(7)
O3B O -0.0836(8) -1.4239(10) 0.3861(5)
O4B O -0.1465(7) -1.1904(9) 0.3083(4)
C5B C -0.0860(12) -0.8276(15) 0.3512(7)
O6B O -0.2051(7) -0.8080(11) 0.3299(4)
O7B O -0.0062(7) -0.7479(10) 0.3150(4)
C8B C 0.4469(11) -0.3389(16) 0.4639(7)
C7B C 0.5480(11) -0.4283(15) 0.4323(7)
C6B C 0.5984(11) -0.5892(15) 0.4701(7)
H2B H 0.6645 -0.6498 0.4504
C9B C 0.6109(10) -0.3525(16) 0.3641(7)
O8B O 0.6548(7) -0.4712(11) 0.3237(4)
O9B O 0.6139(7) -0.1788(10) 0.3568(4)
C10B C 0.3797(11) -0.1806(17) 0.4222(7)
O10B O 0.3480(8) -0.1806(11) 0.3505(5)
O11B O 0.3497(9) -0.0440(12) 0.4677(5)
Tb1B Tb -0.17571(5) -1.52005(7) 0.25327(3)
O1B O 0.0105(8) -1.3841(12) 0.2175(5)
O4C O 0.3535(7) -0.3096(9) 0.8083(4)
O6_2 O 0.2051(7) -0.1920(11) 0.6701(4)
O6C O 0.2949(7) -0.6920(11) 0.8299(4)
O7_2 O 0.0062(7) -0.2521(10) 0.6850(4)
O9C O 0.1139(7) -0.3212(10) 0.8568(4)
Tb1C Tb 0.32429(5) -0.97995(7) 0.75327(3)
Tb1_2 Tb 0.17571(5) -1.47995(7) 0.74673(3)
Tb1A Tb -0.32429(5) -1.02005(7) 0.24673(3)
Tb1B_2 Tb -0.17571(5) -0.52005(7) 0.25327(3)
Tb1B_3 Tb 0.82429(5) -0.52005(7) 0.25327(3)
Tb1A_2 Tb 0.67571(5) -0.02005(7) 0.24673(3)
O4A O -0.3535(7) -1.6904(9) 0.1917(4)
O6A O -0.2949(7) -1.3080(11) 0.1701(4)
O6B_2 O -0.2051(7) -1.8080(11) 0.3299(4)
O7B_2 O -0.0062(7) -1.7479(10) 0.3150(4)
O8B_2 O -0.3452(7) -1.4712(11) 0.3237(4)
O9A O -0.1139(7) -1.6788(10) 0.1432(4)
O2 O 0.2471(8) 0.2442(14) 0.3865(6)
O5 O 0.6485(8) -0.4409(12) 0.7334(6)
loop_
_geom_bond_atom_site_label_1
_geom_bond_atom_site_label_2
_geom_bond_site_symmetry_1
_geom_bond_site_symmetry_2
Tb1 O1 1_555 1_555
O3 Tb1 1_555 1_555
O4 Tb1 1_555 1_555
O6 C5 1_555 1_555
O7 C5 1_555 1_555
O8 Tb1 1_555 1_555
O9 C9 1_555 1_555
O10 C10 1_555 1_555
O11 C10 1_555 1_555
C1 H1 1_555 1_555
C2 C1 1_555 1_555
C3 C2 1_555 1_555
C4 O3 1_555 1_555
C5 C3 1_555 1_555
C6 H2 1_555 1_555
C7 C6 1_555 1_555
C8 C7 1_555 1_555
C9 O8 1_555 1_555
C10 C8 1_555 1_555
C3B C1 1_555 1_555
C2B C3B 1_555 1_555
C1B C3 1_555 1_555
H1B C1B 1_555 1_555
C4B C2B 1_555 1_555
O3B C4B 1_555 1_555
O4B C4B 1_555 1_555
C5B C3B 1_555 1_555
O6B C5B 1_555 1_555
O7B C5B 1_555 1_555
C8B C6 1_555 1_555
C7B C8B 1_555 1_555
C6B C8 1_555 1_555
H2B C6B 1_555 1_555
C9B C7B 1_555 1_555
O8B C9B 1_555 1_555
O9B C9B 1_555 1_555
C10B C8B 1_555 1_555
O10B C10B 1_555 1_555
O11B C10B 1_555 1_555
Tb1B O3B 1_555 1_555
O1B Tb1B 1_555 1_555
O4C Tb1 1_555 1_555
O6_2 Tb1 1_555 1_555
O6C Tb1 1_555 1_555
O7_2 Tb1 1_555 1_555
O9C Tb1 1_555 1_555
Tb1C O4 1_555 1_555
Tb1_2 O6 1_555 1_555
Tb1A O4B 1_555 1_555
Tb1B_2 O6B 1_555 1_555
Tb1B_3 O8B 1_555 1_555
Tb1A_2 O9B 1_555 1_555
O4A Tb1B 1_555 1_555
O6A Tb1B 1_555 1_555
O6B_2 Tb1B 1_555 1_555
O7B_2 Tb1B 1_555 1_555
O8B_2 Tb1B 1_555 1_555
O9A Tb1B 1_555 1_555
O4 C4 1_555 1_555
O6 Tb1C 1_555 1_555
O7 Tb1_2 1_555 1_555
O9 Tb1C 1_555 1_555
C2 C4 1_555 1_555
C7 C9 1_555 1_555
C2B C1B 1_555 1_555
O4B Tb1B 1_555 1_555
O6B Tb1A 1_555 1_555
O7B Tb1B_2 1_555 1_555
C7B C6B 1_555 1_555
O6C Tb1C 1_555 1_555
Tb1A O6A 1_555 1_555

#END
