
#######################################################################
#
#                 Cambridge Crystallographic Data Centre
#                                CCDC 
#
#######################################################################
#
# If this CIF has been generated from an entry in the Cambridge 
# Structural Database, then it will include bibliographic, chemical, 
# crystal, experimental, refinement or atomic coordinate data resulting 
# from the CCDC's data processing and validation procedures.
#
#######################################################################

data_MITHUT
_symmetry_cell_setting           orthorhombic
_symmetry_space_group_name_H-M   'P b c m'
_symmetry_Int_Tables_number      57
_space_group_name_Hall           '-P 2c 2b'
loop_
_symmetry_equiv_pos_site_id
_symmetry_equiv_pos_as_xyz
1 x,y,z
2 -x,-y,1/2+z
3 -x,1/2+y,1/2-z
4 x,1/2-y,-z
5 -x,-y,-z
6 x,y,1/2-z
7 x,1/2-y,1/2+z
8 -x,1/2+y,z
_cell_length_a                   8.7394(4)
_cell_length_b                   27.7882(16)
_cell_length_c                   31.3773(16)
_cell_angle_alpha                90
_cell_angle_beta                 90
_cell_angle_gamma                90
_cell_volume                     7620.05
loop_
_atom_site_label
_atom_site_type_symbol
_atom_site_fract_x
_atom_site_fract_y
_atom_site_fract_z
N1 N 0.5682(9) 0.8626(3) 0.3018(3)
C1 C 0.6676(13) 0.8871(5) 0.3260(4)
C2 C 0.4232(13) 0.8746(5) 0.3079(4)
Cd1 Cd 0.64990(12) 0.80597(4) 0.2500
Cu1 Cu 0.24290(15) 1.04230(5) 0.46686(4)
N2 N 0.1759(10) 1.1105(3) 0.4665(2)
N3 N 0.3032(9) 1.0475(3) 0.4063(3)
N4 N 0.3324(9) 0.9773(3) 0.4695(2)
N5 N 0.1611(10) 1.0342(3) 0.5251(2)
C3 C 0.1130(12) 1.1355(4) 0.5000(3)
C4 C 0.0970(15) 1.1856(4) 0.4895(3)
H1 H 0.0564 1.2102 0.5073
C5 C 0.1520(14) 1.1907(4) 0.4491(3)
H2 H 0.1584 1.2199 0.4333
C6 C 0.1982(13) 1.1439(4) 0.4348(3)
C7 C 0.2512(12) 1.1337(4) 0.3939(3)
C8 C 0.2899(12) 1.0885(4) 0.3797(3)
C9 C 0.3304(12) 1.0747(4) 0.3364(3)
H3 H 0.3288 1.0952 0.3121
C10 C 0.3705(12) 1.0282(4) 0.3368(3)
H4 H 0.4022 1.0098 0.3129
C11 C 0.3569(11) 1.0110(4) 0.3801(3)
C12 C 0.4126(12) 0.9676(4) 0.3953(3)
C13 C 0.4135(12) 0.9533(4) 0.4377(3)
C14 C 0.4852(14) 0.9118(4) 0.4543(4)
H5 H 0.5507 0.8903 0.4394
C15 C 0.4419(13) 0.9088(4) 0.4960(4)
H6 H 0.4730 0.8847 0.5156
C16 C 0.3438(13) 0.9472(4) 0.5048(3)
C17 C 0.2547(13) 0.9516(4) 0.5424(3)
C18 C 0.1631(12) 0.9933(4) 0.5499(3)
C19 C 0.0674(12) 0.9979(4) 0.5869(3)
H7 H 0.0460 0.9743 0.6079
C20 C 0.0147(12) 1.0436(5) 0.5849(3)
H8 H -0.0520 1.0578 0.6053
C21 C 0.0729(12) 1.0678(4) 0.5480(3)
C22 C 0.0573(12) 1.1155(4) 0.5374(3)
C23 C 0.3872(14) 1.2046(4) 0.3636(3)
H9 H 0.4662 1.1998 0.3840
C24 C 0.3996(13) 1.2423(4) 0.3342(3)
H10 H 0.4857 1.2631 0.3360
N6 N 0.2969(9) 1.2504(3) 0.3040(3)
C25 C 0.1751(13) 1.2204(5) 0.3043(4)
H11 H 0.0994 1.2256 0.2831
C26 C 0.1501(14) 1.1838(5) 0.3316(4)
H12 H 0.0601 1.1647 0.3298
C27 C 0.2640(13) 1.1746(4) 0.3635(3)
C28 C 0.4692(13) 0.9312(4) 0.3626(3)
C29 C 0.6262(14) 0.9213(6) 0.3569(4)
H13 H 0.7017 0.9372 0.3736
H14 H 0.3510 0.8580 0.2908
H15 H 0.7737 0.8809 0.3215
C30 C 0.3693(14) 0.9078(5) 0.3362(4)
H16 H 0.2629 0.9147 0.3376
C31 C 0.2586(12) 0.9151(4) 0.5751(3)
C32 C 0.2984(12) 0.9245(5) 0.6167(3)
H17 H 0.3308 0.9561 0.6239
C33 C 0.2935(14) 0.8901(5) 0.6485(4)
H18 H 0.3219 0.8980 0.6769
C34 C 0.2473(14) 0.8448(6) 0.6385(4)
H19 H 0.2423 0.8208 0.6599
C35 C 0.2075(15) 0.8338(5) 0.5968(4)
H20 H 0.1759 0.8021 0.5899
C36 C 0.2130(13) 0.8684(5) 0.5653(4)
H21 H 0.1855 0.8603 0.5369
C37 C -0.0181(18) 1.1466(6) 0.5704(4)
C38 C 0.0631(18) 1.1619(6) 0.6046(4)
H22 H 0.1671 1.1525 0.6076
C39 C -0.0054(18) 1.1922(6) 0.6366(4)
H23 H 0.0535 1.2030 0.6602
C40 C -0.1469(18) 1.2047(6) 0.6331(4)
H24 H -0.1918 1.2245 0.6544
C41 C -0.2350(18) 1.1896(6) 0.5987(4)
H25 H -0.3393 1.1987 0.5963
C42 C -0.1678(18) 1.1611(6) 0.5682(4)
H26 H -0.2277 1.1510 0.5446
N7 N 1.0082(16) 0.8368(6) 0.2500
O1 O 0.8717(14) 0.8510(5) 0.2500
O2 O 1.044(2) 0.7933(6) 0.2500
O3 O 1.1076(15) 0.8684(6) 0.2500
N1E N 0.5682(9) 0.8626(3) 0.1982(3)
C1E C 0.6676(13) 0.8871(5) 0.1740(4)
C2E C 0.4232(13) 0.8746(5) 0.1921(4)
Cd1G Cd 0.35010(12) 1.30597(4) 0.2500
Cu1E Cu 0.24290(15) 1.04230(5) 0.03314(4)
N2E N 0.1759(10) 1.1105(3) 0.0335(2)
N3E N 0.3032(9) 1.0475(3) 0.0937(3)
N4E N 0.3324(9) 0.9773(3) 0.0305(2)
N5E N 0.1611(10) 1.0342(3) -0.0251(2)
C3E C 0.1130(12) 1.1355(4) 0.0000(3)
C4E C 0.0970(15) 1.1856(4) 0.0105(3)
H1E H 0.0564 1.2102 -0.0073
C5E C 0.1520(14) 1.1907(4) 0.0509(3)
H2E H 0.1584 1.2199 0.0667
C6E C 0.1982(13) 1.1439(4) 0.0652(3)
C7E C 0.2512(12) 1.1337(4) 0.1061(3)
C8E C 0.2899(12) 1.0885(4) 0.1203(3)
C9E C 0.3304(12) 1.0747(4) 0.1636(3)
H3E H 0.3288 1.0952 0.1879
C10E C 0.3705(12) 1.0282(4) 0.1632(3)
H4E H 0.4022 1.0098 0.1871
C11E C 0.3569(11) 1.0110(4) 0.1199(3)
C12E C 0.4126(12) 0.9676(4) 0.1047(3)
C13E C 0.4135(12) 0.9533(4) 0.0623(3)
C14E C 0.4852(14) 0.9118(4) 0.0457(4)
H5E H 0.5507 0.8903 0.0606
C15E C 0.4419(13) 0.9088(4) 0.0040(4)
H6E H 0.4730 0.8847 -0.0156
C16E C 0.3438(13) 0.9472(4) -0.0048(3)
C17E C 0.2547(13) 0.9516(4) -0.0424(3)
C18E C 0.1631(12) 0.9933(4) -0.0499(3)
C19E C 0.0674(12) 0.9979(4) -0.0869(3)
H7E H 0.0460 0.9743 -0.1079
C20E C 0.0147(12) 1.0436(5) -0.0849(3)
H8E H -0.0520 1.0578 -0.1053
C21E C 0.0729(12) 1.0678(4) -0.0480(3)
C22E C 0.0573(12) 1.1155(4) -0.0374(3)
C23E C 0.3872(14) 1.2046(4) 0.1364(3)
H9E H 0.4662 1.1998 0.1160
C24E C 0.3996(13) 1.2423(4) 0.1658(3)
H10E H 0.4857 1.2631 0.1640
N6E N 0.2969(9) 1.2504(3) 0.1960(3)
N6G N 0.7031(9) 0.7504(3) 0.3040(3)
N6B N 0.7031(9) 0.7504(3) 0.1960(3)
C25E C 0.1751(13) 1.2204(5) 0.1957(4)
H11E H 0.0994 1.2256 0.2169
C26E C 0.1501(14) 1.1838(5) 0.1684(4)
H12E H 0.0601 1.1647 0.1702
C27E C 0.2640(13) 1.1746(4) 0.1365(3)
C28E C 0.4692(13) 0.9312(4) 0.1374(3)
C29E C 0.6262(14) 0.9213(6) 0.1431(4)
H13E H 0.7017 0.9372 0.1264
H14E H 0.3510 0.8580 0.2092
H15E H 0.7737 0.8809 0.1785
C30E C 0.3693(14) 0.9078(5) 0.1638(4)
H16E H 0.2629 0.9147 0.1624
C31E C 0.2586(12) 0.9151(4) -0.0751(3)
C32E C 0.2984(12) 0.9245(5) -0.1167(3)
H17E H 0.3308 0.9561 -0.1239
C33E C 0.2935(14) 0.8901(5) -0.1485(4)
H18E H 0.3219 0.8980 -0.1769
C34E C 0.2473(14) 0.8448(6) -0.1385(4)
H19E H 0.2423 0.8208 -0.1599
C35E C 0.2075(15) 0.8338(5) -0.0968(4)
H20E H 0.1759 0.8021 -0.0899
C36E C 0.2130(13) 0.8684(5) -0.0653(4)
H21E H 0.1855 0.8603 -0.0369
C37E C -0.0181(18) 1.1466(6) -0.0704(4)
C38E C 0.0631(18) 1.1619(6) -0.1046(4)
H22E H 0.1671 1.1525 -0.1076
C39E C -0.0054(18) 1.1922(6) -0.1366(4)
H23E H 0.0535 1.2030 -0.1602
C40E C -0.1469(18) 1.2047(6) -0.1331(4)
H24E H -0.1918 1.2245 -0.1544
C41E C -0.2350(18) 1.1896(6) -0.0987(4)
H25E H -0.3393 1.1987 -0.0963
C42E C -0.1678(18) 1.1611(6) -0.0682(4)
H26E H -0.2277 1.1510 -0.0446
N9 N 0.529(2) 0.1462(7) 0.2500
O6 O 0.626(2) 0.1794(7) 0.2500
O7 O 0.397(2) 0.1592(7) 0.2500
O8 O 0.562(2) 0.1031(7) 0.2500
C43 C 0.892(4) 0.9659(13) 0.2500
Cl1 Cl 0.9950(7) 0.9832(2) 0.20346(18)
Cl2 Cl 0.7201(10) 0.9957(3) 0.2500
Cl1E Cl 0.9950(7) 0.9832(2) 0.29654(18)
C44 C 0.975(3) 0.1115(12) 0.2500
O9 O 0.933(2) 0.1573(8) 0.2500
N8? N 0.354(6) 0.7582(17) 0.2500
O4? O 0.392(6) 0.7787(17) 0.2500
O5? O 0.284(3) 0.7371(9) 0.2826(3)
Cl3? Cl 0.5602(11) 0.7184(4) 0.5386(3)
Cl4? Cl 0.457(2) 0.7059(7) 0.4637(5)
C45? C 0.472(2) 0.7500 0.5000
Cl5? Cl 0.2790(15) 0.7552(8) 0.5097(6)
loop_
_geom_bond_atom_site_label_1
_geom_bond_atom_site_label_2
_geom_bond_site_symmetry_1
_geom_bond_site_symmetry_2
N1 C1 1_555 1_555
C1 C29 1_555 1_555
C2 N1 1_555 1_555
Cd1 N1 1_555 1_555
Cu1 N2 1_555 1_555
N2 C3 1_555 1_555
N3 Cu1 1_555 1_555
N4 Cu1 1_555 1_555
N5 Cu1 1_555 1_555
C3 C4 1_555 1_555
C4 H1 1_555 1_555
C5 C4 1_555 1_555
H2 C5 1_555 1_555
C6 N2 1_555 1_555
C7 C6 1_555 1_555
C8 N3 1_555 1_555
C9 C8 1_555 1_555
H3 C9 1_555 1_555
C10 C9 1_555 1_555
H4 C10 1_555 1_555
C11 N3 1_555 1_555
C12 C11 1_555 1_555
C13 N4 1_555 1_555
C14 C13 1_555 1_555
H5 C14 1_555 1_555
C15 C14 1_555 1_555
H6 C15 1_555 1_555
C16 N4 1_555 1_555
C17 C16 1_555 1_555
C18 N5 1_555 1_555
C19 C18 1_555 1_555
H7 C19 1_555 1_555
C20 C19 1_555 1_555
H8 C20 1_555 1_555
C21 N5 1_555 1_555
C22 C3 1_555 1_555
C23 H9 1_555 1_555
C24 C23 1_555 1_555
H10 C24 1_555 1_555
N6 C24 1_555 1_555
C25 N6 1_555 1_555
H11 C25 1_555 1_555
C26 C25 1_555 1_555
H12 C26 1_555 1_555
C27 C7 1_555 1_555
C28 C12 1_555 1_555
C29 C28 1_555 1_555
H13 C29 1_555 1_555
H14 C2 1_555 1_555
H15 C1 1_555 1_555
C30 C2 1_555 1_555
H16 C30 1_555 1_555
C31 C17 1_555 1_555
C32 C31 1_555 1_555
H17 C32 1_555 1_555
C33 C32 1_555 1_555
H18 C33 1_555 1_555
C34 C33 1_555 1_555
H19 C34 1_555 1_555
C35 C34 1_555 1_555
H20 C35 1_555 1_555
C36 C31 1_555 1_555
H21 C36 1_555 1_555
C37 C22 1_555 1_555
C38 C37 1_555 1_555
H22 C38 1_555 1_555
C39 C38 1_555 1_555
H23 C39 1_555 1_555
C40 C39 1_555 1_555
H24 C40 1_555 1_555
C41 C40 1_555 1_555
H25 C41 1_555 1_555
C42 C37 1_555 1_555
H26 C42 1_555 1_555
N7 O1 1_555 1_555
O1 Cd1 1_555 1_555
O2 N7 1_555 1_555
O3 N7 1_555 1_555
N9 O6 1_555 1_555
O7 N9 1_555 1_555
O8 N9 1_555 1_555
C43 Cl1 1_555 1_555
Cl2 C43 1_555 1_555
C44 O9 1_555 1_555
N1E Cd1 1_555 1_555
C1E N1E 1_555 1_555
C2E N1E 1_555 1_555
Cd1G N6 1_555 1_555
Cu1E N2E 1_555 1_555
N2E C3E 1_555 1_555
N3E Cu1E 1_555 1_555
N4E Cu1E 1_555 1_555
N5E Cu1E 1_555 1_555
C3E C4E 1_555 1_555
C4E H1E 1_555 1_555
C5E C4E 1_555 1_555
H2E C5E 1_555 1_555
C6E N2E 1_555 1_555
C7E C6E 1_555 1_555
C8E N3E 1_555 1_555
C9E C8E 1_555 1_555
H3E C9E 1_555 1_555
C10E C9E 1_555 1_555
H4E C10E 1_555 1_555
C11E N3E 1_555 1_555
C12E C11E 1_555 1_555
C13E N4E 1_555 1_555
C14E C13E 1_555 1_555
H5E C14E 1_555 1_555
C15E C14E 1_555 1_555
H6E C15E 1_555 1_555
C16E N4E 1_555 1_555
C17E C16E 1_555 1_555
C18E N5E 1_555 1_555
C19E C18E 1_555 1_555
H7E C19E 1_555 1_555
C20E C19E 1_555 1_555
H8E C20E 1_555 1_555
C21E N5E 1_555 1_555
C22E C3E 1_555 1_555
C23E H9E 1_555 1_555
C24E C23E 1_555 1_555
H10E C24E 1_555 1_555
N6E Cd1G 1_555 1_555
N6G Cd1 1_555 1_555
N6B Cd1 1_555 1_555
C25E N6E 1_555 1_555
H11E C25E 1_555 1_555
C26E C25E 1_555 1_555
H12E C26E 1_555 1_555
C27E C7E 1_555 1_555
C28E C12E 1_555 1_555
C29E C1E 1_555 1_555
H13E C29E 1_555 1_555
H14E C2E 1_555 1_555
H15E C1E 1_555 1_555
C30E C2E 1_555 1_555
H16E C30E 1_555 1_555
C31E C17E 1_555 1_555
C32E C31E 1_555 1_555
H17E C32E 1_555 1_555
C33E C32E 1_555 1_555
H18E C33E 1_555 1_555
C34E C33E 1_555 1_555
H19E C34E 1_555 1_555
C35E C34E 1_555 1_555
H20E C35E 1_555 1_555
C36E C31E 1_555 1_555
H21E C36E 1_555 1_555
C37E C22E 1_555 1_555
C38E C37E 1_555 1_555
H22E C38E 1_555 1_555
C39E C38E 1_555 1_555
H23E C39E 1_555 1_555
C40E C39E 1_555 1_555
H24E C40E 1_555 1_555
C41E C40E 1_555 1_555
H25E C41E 1_555 1_555
C42E C37E 1_555 1_555
H26E C42E 1_555 1_555
Cl1E C43 1_555 1_555
C5 C6 1_555 1_555
C7 C8 1_555 1_555
C10 C11 1_555 1_555
C12 C13 1_555 1_555
C15 C16 1_555 1_555
C17 C18 1_555 1_555
C20 C21 1_555 1_555
C21 C22 1_555 1_555
C23 C27 1_555 1_555
C26 C27 1_555 1_555
C28 C30 1_555 1_555
C35 C36 1_555 1_555
C41 C42 1_555 1_555
C5E C6E 1_555 1_555
C7E C8E 1_555 1_555
C10E C11E 1_555 1_555
C12E C13E 1_555 1_555
C15E C16E 1_555 1_555
C17E C18E 1_555 1_555
C20E C21E 1_555 1_555
C21E C22E 1_555 1_555
C23E C27E 1_555 1_555
C24E N6E 1_555 1_555
C26E C27E 1_555 1_555
C28E C29E 1_555 1_555
C28E C30E 1_555 1_555
C35E C36E 1_555 1_555
C41E C42E 1_555 1_555

#END
