
#######################################################################
#
#                 Cambridge Crystallographic Data Centre
#                                CCDC 
#
#######################################################################
#
# If this CIF has been generated from an entry in the Cambridge 
# Structural Database, then it will include bibliographic, chemical, 
# crystal, experimental, refinement or atomic coordinate data resulting 
# from the CCDC's data processing and validation procedures.
#
#######################################################################

data_MITQEM
_symmetry_cell_setting           monoclinic
_symmetry_space_group_name_H-M   'P 21/n'
_symmetry_Int_Tables_number      14
_space_group_name_Hall           '-P 2yn'
loop_
_symmetry_equiv_pos_site_id
_symmetry_equiv_pos_as_xyz
1 x,y,z
2 1/2-x,1/2+y,1/2-z
3 -x,-y,-z
4 1/2+x,1/2-y,1/2+z
_cell_length_a                   9.412(5)
_cell_length_b                   8.372(4)
_cell_length_c                   16.858(8)
_cell_angle_alpha                90
_cell_angle_beta                 105.969(5)
_cell_angle_gamma                90
_cell_volume                     1277.1
loop_
_atom_site_label
_atom_site_type_symbol
_atom_site_fract_x
_atom_site_fract_y
_atom_site_fract_z
Nd1 Nd 0.166434(19) 0.06730(2) 0.098850(11)
O1 O 0.2320(3) 0.2803(4) 0.20172(17)
O2 O 0.3784(4) 0.4687(4) 0.27358(19)
O3 O 0.7433(3) 0.0369(4) 0.01525(18)
O4 O 0.9254(3) 0.1659(4) 0.10547(17)
O5 O -0.0062(3) 0.1547(3) -0.04831(17)
O6 O 0.1668(4) 0.3188(4) 0.01589(19)
O7 O 0.3464(4) -0.1551(4) 0.1546(2)
N1 N 0.4386(3) 0.1824(4) 0.1333(2)
C1 C 0.5415(4) 0.1293(5) 0.1000(2)
H1 H 0.5156 0.0466 0.0600
C2 C 0.6853(4) 0.1877(5) 0.1200(2)
C3 C 0.7229(4) 0.3044(5) 0.1800(3)
H2 H 0.8214 0.3435 0.1975
C4 C 0.6160(5) 0.3641(6) 0.2144(3)
H3 H 0.6390 0.4465 0.2546
C5 C 0.4748(4) 0.3006(5) 0.1886(2)
C6 C 0.3526(4) 0.3562(5) 0.2242(2)
C7 C 0.7944(4) 0.1253(5) 0.0766(2)
C8 C 0.0592(4) 0.2864(5) -0.0453(2)
C9 C 0.0098(6) 0.4037(6) -0.1138(3)
H4 H 0.0413 0.5112 -0.0933
H5 H -0.0982 0.4008 -0.1346
H6 H 0.0537 0.3764 -0.1584
H7 H 0.4043 -0.1149 0.1968
H9 H 0.3738 -0.2240 0.1258
Nd1A Nd 0.333566(19) 0.56730(2) 0.401150(11)
Nd1B Nd 0.833566(19) -0.06730(2) -0.098850(11)
Nd1_2 Nd 1.166434(19) 0.06730(2) 0.098850(11)
Nd1B_2 Nd -0.166434(19) -0.06730(2) -0.098850(11)
O2A O 0.1216(4) -0.0313(4) 0.22642(19)
O3B O 0.2567(3) -0.0369(4) -0.01525(18)
O4_2 O -0.0746(3) 0.1659(4) 0.10547(17)
O5B O 0.0062(3) -0.1547(3) 0.04831(17)
O8 O 0.3644(9) 0.5699(8) 0.0412(5)
H8 H 0.3087 0.4880 0.0260
H10 H 0.4284 0.6059 0.0141
O9 O 0.6009(10) 0.7462(9) 0.1067(5)
H11 H 0.6380 0.7605 0.1601
H12 H 0.6732 0.7196 0.0896
loop_
_geom_bond_atom_site_label_1
_geom_bond_atom_site_label_2
_geom_bond_site_symmetry_1
_geom_bond_site_symmetry_2
Nd1 O1 1_555 1_555
O1 C6 1_555 1_555
O2 C6 1_555 1_555
O3 C7 1_555 1_555
O4 C7 1_555 1_555
O5 Nd1 1_555 1_555
O6 Nd1 1_555 1_555
O7 Nd1 1_555 1_555
O8 H8 1_555 1_555
N1 Nd1 1_555 1_555
C1 N1 1_555 1_555
H1 C1 1_555 1_555
C2 C1 1_555 1_555
C3 C2 1_555 1_555
H2 C3 1_555 1_555
C4 C3 1_555 1_555
H3 C4 1_555 1_555
C5 N1 1_555 1_555
C6 C5 1_555 1_555
C7 C2 1_555 1_555
C8 O5 1_555 1_555
C9 C8 1_555 1_555
H4 C9 1_555 1_555
H5 C9 1_555 1_555
H6 C9 1_555 1_555
H7 O7 1_555 1_555
H9 O7 1_555 1_555
H10 O8 1_555 1_555
O9 H11 1_555 1_555
H12 O9 1_555 1_555
Nd1A O2 1_555 1_555
Nd1B O3 1_555 1_555
Nd1_2 O4 1_555 1_555
Nd1B_2 O5 1_555 1_555
O2A Nd1 1_555 1_555
O3B Nd1 1_555 1_555
O4_2 Nd1 1_555 1_555
O5B Nd1 1_555 1_555
O6 C8 1_555 1_555
C4 C5 1_555 1_555
Nd1B_2 O5B 1_555 1_555

#END
