
#######################################################################
#
#                 Cambridge Crystallographic Data Centre
#                                CCDC 
#
#######################################################################
#
# If this CIF has been generated from an entry in the Cambridge 
# Structural Database, then it will include bibliographic, chemical, 
# crystal, experimental, refinement or atomic coordinate data resulting 
# from the CCDC's data processing and validation procedures.
#
#######################################################################

data_MIVDIF
_symmetry_cell_setting           monoclinic
_symmetry_space_group_name_H-M   'P 21'
_symmetry_Int_Tables_number      4
_space_group_name_Hall           'P 2yb'
loop_
_symmetry_equiv_pos_site_id
_symmetry_equiv_pos_as_xyz
1 x,y,z
2 -x,1/2+y,-z
_cell_length_a                   10.021(2)
_cell_length_b                   15.540(3)
_cell_length_c                   10.345(2)
_cell_angle_alpha                90
_cell_angle_beta                 98.24(3)
_cell_angle_gamma                90
_cell_volume                     1594.36
loop_
_atom_site_label
_atom_site_type_symbol
_atom_site_fract_x
_atom_site_fract_y
_atom_site_fract_z
Zn1 Zn 0.04076(10) 0.01523(7) 0.86568(9)
Zn2 Zn -0.45118(10) -0.04234(7) 0.93252(10)
O1 O -0.2807(5) -0.0508(5) 1.0474(6)
O2 O 0.4121(6) -0.0515(5) 1.0502(5)
C1 C 0.2107(8) 0.0123(7) 1.3658(7)
C2 C 0.0811(9) -0.0246(6) 1.5810(8)
N1 N 0.0689(6) 0.0086(5) 1.0729(6)
H1 H 0.0662 0.0638 1.1018
C3 C 0.2032(8) -0.0242(6) 1.1241(7)
H2 H 0.1926 -0.0838 1.1521
C4 C -0.1706(8) -0.0305(7) 1.0097(9)
O3 O 0.2477(6) -0.0047(4) 0.9017(6)
N2 N 0.0071(7) -0.0473(6) 1.6869(6)
H3 H 0.0212 -0.1037 1.7030
H4 H -0.0811 -0.0412 1.6563
C5 C 0.1877(10) -0.0742(6) 1.5551(10)
H5 H 0.2172 -0.1200 1.6095
N3 N -0.4742(9) -0.1465(5) 0.8138(8)
O4 O -0.1571(6) -0.0115(4) 0.8957(6)
C6 C 0.2936(8) -0.0257(6) 1.0162(8)
C7 C -0.0488(7) -0.0352(8) 1.1135(8)
H6 H -0.0702 -0.0087 1.1930
H7 H -0.0266 -0.0950 1.1325
C8 C 0.1062(9) 0.0645(7) 1.3973(9)
H8 H 0.0794 0.1124 1.3461
N4 N 0.0250(9) 0.1390(5) 0.8006(8)
C9 C 0.0422(9) 0.0457(6) 1.5040(9)
H9 H -0.0275 0.0807 1.5236
C10 C 0.1327(12) 0.1870(8) 0.7998(11)
H10 H 0.2137 0.1687 0.8470
C11 C -0.5862(11) -0.1952(8) 0.8045(11)
H11 H -0.6563 -0.1783 0.8488
C12 C -0.3860(14) -0.2411(10) 0.6716(14)
H12 H -0.3174 -0.2547 0.6234
C13 C 0.2513(9) -0.0558(7) 1.4479(9)
H13 H 0.3228 -0.0900 1.4309
C14 C -0.4967(15) -0.2923(9) 0.6641(13)
H14 H -0.5032 -0.3424 0.6145
C15 C 0.2724(8) 0.0259(8) 1.2419(7)
H15 H 0.3665 0.0092 1.2582
H16 H 0.2689 0.0868 1.2208
C16 C -0.5993(13) -0.2680(9) 0.7321(12)
H17 H -0.6768 -0.3014 0.7283
N5 N -0.4699(9) 0.0721(6) 0.8423(8)
C17 C -0.1028(13) 0.2419(8) 0.6688(12)
H18 H -0.1858 0.2602 0.6256
C18 C 0.0112(14) 0.2904(8) 0.6642(11)
H19 H 0.0063 0.3409 0.6153
C19 C -0.0929(12) 0.1661(8) 0.7379(11)
H20 H -0.1698 0.1332 0.7410
C20 C 0.1308(13) 0.2647(8) 0.7310(12)
H21 H 0.2086 0.2973 0.7310
C21 C -0.3751(13) -0.1707(9) 0.7488(12)
H22 H -0.2963 -0.1383 0.7568
C22 C -0.5430(13) 0.0822(9) 0.7262(12)
H23 H -0.5824 0.0334 0.6850
C23 C -0.4124(15) 0.1426(9) 0.8976(14)
H24 H -0.3588 0.1380 0.9784
C24 C -0.4298(17) 0.2236(10) 0.839(2)
H25 H -0.3899 0.2725 0.8794
C25 C -0.508(2) 0.2285(14) 0.719(2)
H26 H -0.5200 0.2814 0.6769
C26 C -0.5650(18) 0.1591(13) 0.6624(19)
H27 H -0.6190 0.1624 0.5815
Zn1_2 Zn 0.04076(10) 0.01523(7) 1.86568(9)
Zn2_2 Zn 0.54882(10) -0.04234(7) 0.93252(10)
O2_2 O -0.5879(6) -0.0515(5) 1.0502(5)
N2_2 N 0.0071(7) -0.0473(6) 0.6869(6)
H3_2 H 0.0212 -0.1037 0.7030
H4_2 H -0.0811 -0.0412 0.6563
Cl1 Cl 0.0393(3) -0.25390(19) 0.8770(3)
O5 O 0.0437(12) -0.2359(6) 0.7439(9)
O6 O -0.0895(9) -0.2757(9) 0.8997(11)
O7 O 0.1211(11) -0.3264(7) 0.9123(11)
O8 O 0.0886(12) -0.1830(7) 0.9503(10)
Cl2 Cl -0.3211(3) -0.0264(3) 0.4556(3)
O9 O -0.2830(11) 0.0131(10) 0.5774(10)
O10 O -0.2949(19) 0.0322(13) 0.3608(14)
O11 O -0.2330(12) -0.0909(9) 0.4591(16)
O12 O -0.4461(11) -0.0540(18) 0.4396(17)
loop_
_geom_bond_atom_site_label_1
_geom_bond_atom_site_label_2
_geom_bond_site_symmetry_1
_geom_bond_site_symmetry_2
Zn1 N1 1_555 1_555
Zn2 O1 1_555 1_555
O1 C4 1_555 1_555
O2 C6 1_555 1_555
C1 C8 1_555 1_555
C2 N2 1_555 1_555
N1 H1 1_555 1_555
C3 N1 1_555 1_555
H2 C3 1_555 1_555
C4 O4 1_555 1_555
O3 Zn1 1_555 1_555
N2 H3 1_555 1_555
H4 N2 1_555 1_555
C5 C2 1_555 1_555
H5 C5 1_555 1_555
N3 Zn2 1_555 1_555
O4 Zn1 1_555 1_555
C6 C3 1_555 1_555
C7 N1 1_555 1_555
H6 C7 1_555 1_555
H7 C7 1_555 1_555
C8 H8 1_555 1_555
N4 Zn1 1_555 1_555
C9 C2 1_555 1_555
H9 C9 1_555 1_555
C10 N4 1_555 1_555
H10 C10 1_555 1_555
C11 N3 1_555 1_555
H11 C11 1_555 1_555
C12 H12 1_555 1_555
C13 C1 1_555 1_555
H13 C13 1_555 1_555
C14 C12 1_555 1_555
H14 C14 1_555 1_555
C15 C1 1_555 1_555
H15 C15 1_555 1_555
H16 C15 1_555 1_555
C16 C11 1_555 1_555
H17 C16 1_555 1_555
N5 Zn2 1_555 1_555
C17 H18 1_555 1_555
C18 C17 1_555 1_555
H19 C18 1_555 1_555
C19 N4 1_555 1_555
H20 C19 1_555 1_555
C20 C10 1_555 1_555
H21 C20 1_555 1_555
C21 N3 1_555 1_555
H22 C21 1_555 1_555
Cl1 O5 1_555 1_555
O6 Cl1 1_555 1_555
C22 N5 1_555 1_555
H23 C22 1_555 1_555
C23 N5 1_555 1_555
H24 C23 1_555 1_555
O7 Cl1 1_555 1_555
O8 Cl1 1_555 1_555
C24 C23 1_555 1_555
H25 C24 1_555 1_555
C25 C24 1_555 1_555
H26 C25 1_555 1_555
Cl2 O9 1_555 1_555
C26 C22 1_555 1_555
H27 C26 1_555 1_555
O10 Cl2 1_555 1_555
O11 Cl2 1_555 1_555
O12 Cl2 1_555 1_555
Zn1_2 N2 1_555 1_555
Zn2_2 O2 1_555 1_555
O2_2 Zn2 1_555 1_555
N2_2 Zn1 1_555 1_555
H3_2 N2_2 1_555 1_555
H4_2 N2_2 1_555 1_555
C3 C15 1_555 1_555
C4 C7 1_555 1_555
O3 C6 1_555 1_555
C5 C13 1_555 1_555
C8 C9 1_555 1_555
C12 C21 1_555 1_555
C14 C16 1_555 1_555
C17 C19 1_555 1_555
C18 C20 1_555 1_555
C25 C26 1_555 1_555

#END
