
#######################################################################
#
#                 Cambridge Crystallographic Data Centre
#                                CCDC 
#
#######################################################################
#
# If this CIF has been generated from an entry in the Cambridge 
# Structural Database, then it will include bibliographic, chemical, 
# crystal, experimental, refinement or atomic coordinate data resulting 
# from the CCDC's data processing and validation procedures.
#
#######################################################################

data_MIVMUA
_symmetry_cell_setting           orthorhombic
_symmetry_space_group_name_H-M   'P 21 21 21'
_symmetry_Int_Tables_number      19
_space_group_name_Hall           'P 2ac 2ab'
loop_
_symmetry_equiv_pos_site_id
_symmetry_equiv_pos_as_xyz
1 x,y,z
2 1/2-x,-y,1/2+z
3 -x,1/2+y,1/2-z
4 1/2+x,1/2-y,-z
_cell_length_a                   6.9362(5)
_cell_length_b                   10.7806(8)
_cell_length_c                   17.9915(14)
_cell_angle_alpha                90
_cell_angle_beta                 90
_cell_angle_gamma                90
_cell_volume                     1345.34
loop_
_atom_site_label
_atom_site_type_symbol
_atom_site_fract_x
_atom_site_fract_y
_atom_site_fract_z
Th1 Th 0.634047(18) 0.843772(12) 0.269102(7)
C1 C 0.4771(6) 0.7369(4) 0.5271(2)
C2 C 0.4614(6) 0.6230(4) 0.4927(2)
H1 H 0.4352 0.5467 0.5145
C3 C 0.4940(5) 0.6484(4) 0.4173(2)
C4 C 0.4069(6) 0.6668(4) 0.0579(2)
C5 C 0.3944(6) 0.7798(4) 0.0194(2)
H2 H 0.3894 0.8592 0.0395
C6 C 0.3911(6) 0.7472(3) -0.0544(2)
C7 C 0.4129(6) 0.6407(4) 0.1387(2)
C8 C 0.3743(6) 0.8174(4) -0.1251(2)
N1 N 0.5252(5) 0.7706(3) 0.40655(19)
N2 N 0.5130(5) 0.8213(3) 0.4741(2)
N3 N 0.4150(7) 0.5713(3) 0.0104(2)
N4 N 0.4047(7) 0.6216(3) -0.0568(2)
O1 O 0.9050(5) 0.9963(3) 0.24723(18)
O2 O 0.2868(5) 0.8818(3) 0.2897(2)
O3 O 0.5986(5) 0.6235(3) 0.29615(16)
O4 O 0.5211(6) 0.8817(3) 0.62239(18)
O5 O 0.4159(5) 0.7321(3) 0.18181(18)
O6 O 0.4121(4) 0.5278(3) 0.15751(17)
O7 O 0.3926(6) 0.9304(3) -0.12475(18)
H3 H 0.930(11) 1.056(5) 0.222(4)
H4 H 0.919(11) 1.019(7) 0.2892(19)
H5 H 0.253(8) 0.932(4) 0.320(3)
H6 H 0.204(5) 0.852(4) 0.264(2)
H7 H 0.396(8) 0.575(5) -0.100(3)
H8 H 0.525(10) 0.883(6) 0.478(4)
O8 O 0.3435(5) 0.7510(3) -0.18311(17)
C9 C 0.5076(6) 0.5734(4) 0.3486(2)
O9 O 0.4275(4) 0.4684(3) 0.34475(16)
C10 C 0.4657(6) 0.7760(4) 0.6063(2)
O10 O 0.4036(4) 0.6959(3) 0.65296(16)
Th1B Th 0.365953(18) 0.343772(12) 0.230898(7)
Th1C Th 0.134047(18) 0.656228(12) -0.269102(7)
Th1C_2 Th 0.134047(18) 0.656228(12) 0.730898(7)
O6B O 0.5879(4) 1.0278(3) 0.34249(17)
O8C O 0.8435(5) 0.7490(3) 0.18311(17)
O9B O 0.5725(4) 0.9684(3) 0.15525(16)
O10C O 0.9036(4) 0.8041(3) 0.34704(16)
loop_
_geom_bond_atom_site_label_1
_geom_bond_atom_site_label_2
_geom_bond_site_symmetry_1
_geom_bond_site_symmetry_2
Th1 N1 1_555 1_555
C1 C2 1_555 1_555
C2 H1 1_555 1_555
C3 C2 1_555 1_555
C4 C5 1_555 1_555
C5 H2 1_555 1_555
C6 C5 1_555 1_555
C7 C4 1_555 1_555
C8 C6 1_555 1_555
N1 C3 1_555 1_555
N2 C1 1_555 1_555
N3 C4 1_555 1_555
N4 C6 1_555 1_555
O1 Th1 1_555 1_555
O2 Th1 1_555 1_555
O3 Th1 1_555 1_555
O4 C10 1_555 1_555
O5 Th1 1_555 1_555
O6 C7 1_555 1_555
O7 C8 1_555 1_555
H3 O1 1_555 1_555
H4 O1 1_555 1_555
H5 O2 1_555 1_555
H6 O2 1_555 1_555
H7 N4 1_555 1_555
H8 N2 1_555 1_555
O8 C8 1_555 1_555
C9 C3 1_555 1_555
O9 C9 1_555 1_555
C10 C1 1_555 1_555
O10 C10 1_555 1_555
Th1B O6 1_555 1_555
Th1C O8 1_555 1_555
Th1C_2 O10 1_555 1_555
O6B Th1 1_555 1_555
O8C Th1 1_555 1_555
O9B Th1 1_555 1_555
O10C Th1 1_555 1_555
C7 O5 1_555 1_555
N1 N2 1_555 1_555
N3 N4 1_555 1_555
O3 C9 1_555 1_555
O9 Th1B 1_555 1_555

#END
