
#######################################################################
#
#                 Cambridge Crystallographic Data Centre
#                                CCDC 
#
#######################################################################
#
# If this CIF has been generated from an entry in the Cambridge 
# Structural Database, then it will include bibliographic, chemical, 
# crystal, experimental, refinement or atomic coordinate data resulting 
# from the CCDC's data processing and validation procedures.
#
#######################################################################

data_MIVPEN
_symmetry_cell_setting           monoclinic
_symmetry_space_group_name_H-M   'P 21/n'
_symmetry_Int_Tables_number      14
_space_group_name_Hall           '-P 2yn'
loop_
_symmetry_equiv_pos_site_id
_symmetry_equiv_pos_as_xyz
1 x,y,z
2 1/2-x,1/2+y,1/2-z
3 -x,-y,-z
4 1/2+x,1/2-y,1/2+z
_cell_length_a                   7.5716(7)
_cell_length_b                   9.7891(9)
_cell_length_c                   14.6702(13)
_cell_angle_alpha                90
_cell_angle_beta                 97.9330(10)
_cell_angle_gamma                90
_cell_volume                     1076.94
loop_
_atom_site_label
_atom_site_type_symbol
_atom_site_fract_x
_atom_site_fract_y
_atom_site_fract_z
Tm1 Tm 0.151886(15) 0.544293(11) 0.361274(8)
O1 O -0.1505(3) 0.4703(2) 0.31217(16)
O2 O 0.2943(3) 0.5639(2) 0.52053(14)
O3 O 0.3343(3) -0.26786(19) 0.35300(13)
C1 C 0.2791(4) -0.0588(3) 0.42508(19)
O4 O 0.0211(3) 0.6816(2) 0.23369(14)
C2 C 0.3071(3) -0.1396(3) 0.34155(18)
N1 N 0.3103(3) -0.0514(2) 0.59098(18)
C3 C 0.2009(4) 0.0708(3) 0.4197(2)
H1 H 0.1688 0.1132 0.3631
C4 C 0.4559(4) 0.5312(3) 0.53988(19)
C5 C 0.3327(4) -0.1136(3) 0.51224(19)
H2 H 0.3874 -0.1988 0.5158
O5 O 0.0941(3) 0.3461(2) 0.42924(14)
C6 C 0.0873(3) 0.2745(3) 0.49942(19)
C7 C 0.1723(3) 0.1351(3) 0.50124(18)
C8 C 0.2258(4) 0.0706(3) 0.5846(2)
H3 H 0.2025 0.1130 0.6385
O6 O 0.3019(3) -0.0801(2) 0.26595(14)
O7 O 0.0166(3) 0.3095(2) 0.56867(14)
O8 O 0.5529(3) 0.5465(2) 0.61558(15)
H4 H -0.086(6) 0.645(5) 0.186(3)
H5 H -0.225(6) 0.547(4) 0.284(3)
H6 H -0.197(6) 0.439(4) 0.361(3)
H7 H 0.055(6) 0.748(5) 0.208(3)
Tm1B Tm 0.848114(15) 0.455707(11) 0.638726(8)
Tm1A Tm 0.348114(15) 1.044293(11) 0.138726(8)
Tm1_2 Tm 0.151886(15) -0.455707(11) 0.361274(8)
Tm1A_2 Tm 0.348114(15) 0.044293(11) 0.138726(8)
Tm1B_2 Tm -0.151886(15) 0.455707(11) 0.638726(8)
Tm1C Tm 0.651886(15) 0.955707(11) -0.138726(8)
O1B O 0.1505(3) 0.5297(2) 0.68783(16)
O2B O 0.7057(3) 0.4361(2) 0.47947(14)
O2B_2 O -0.2943(3) 0.4361(2) 0.47947(14)
O3_2 O 0.3343(3) 0.73214(19) 0.35300(13)
O3A O 0.1657(3) 0.23214(19) 0.14700(13)
O3B O -0.3343(3) 0.26786(19) 0.64700(13)
C1A C 0.2209(4) 0.4412(3) 0.07492(19)
O4B O -0.0211(3) 0.3184(2) 0.76631(14)
C2A C 0.1929(3) 0.3604(3) 0.15845(18)
N1A N 0.1897(3) 0.4486(2) -0.09098(18)
C3A C 0.2991(4) 0.5708(3) 0.0803(2)
H1A H 0.3312 0.6132 0.1369
C4B C 0.5441(4) 0.4688(3) 0.46012(19)
C5A C 0.1673(4) 0.3864(3) -0.01224(19)
H2A H 0.1126 0.3012 -0.0158
O5A O 0.4059(3) 0.8461(2) 0.07076(14)
O5B O -0.0941(3) 0.6539(2) 0.57076(14)
C6A C 0.4127(3) 0.7745(3) 0.00058(19)
C7A C 0.3277(3) 0.6351(3) -0.00124(18)
C8A C 0.2742(4) 0.5706(3) -0.0846(2)
H3A H 0.2975 0.6130 -0.1385
O6A O 0.1981(3) 0.4199(2) 0.23405(14)
O6C O -0.1981(3) 0.5801(2) 0.76595(14)
O7B O -0.0166(3) 0.6905(2) 0.43133(14)
O7A O 0.4834(3) 0.8095(2) -0.06867(14)
O8B O 0.4471(3) 0.4535(2) 0.38442(15)
O8_2 O -0.4471(3) 0.5465(2) 0.61558(15)
H4B H 0.086(6) 0.355(5) 0.814(3)
H5B H 0.225(6) 0.453(4) 0.716(3)
H6B H 0.197(6) 0.561(4) 0.639(3)
H7B H -0.055(6) 0.252(5) 0.792(3)
O9 O -0.3870(3) 0.6694(3) 0.25194(17)
H8 H -0.368(7) 0.747(5) 0.218(4)
H9 H -0.484(7) 0.696(5) 0.283(4)
loop_
_geom_bond_atom_site_label_1
_geom_bond_atom_site_label_2
_geom_bond_site_symmetry_1
_geom_bond_site_symmetry_2
Tm1 O1 1_555 1_555
O1 H5 1_555 1_555
O2 Tm1 1_555 1_555
O3 C2 1_555 1_555
C1 C2 1_555 1_555
O4 Tm1 1_555 1_555
C2 O6 1_555 1_555
N1 C5 1_555 1_555
C3 C1 1_555 1_555
H1 C3 1_555 1_555
C4 O2 1_555 1_555
C5 C1 1_555 1_555
H2 C5 1_555 1_555
O5 Tm1 1_555 1_555
C6 O5 1_555 1_555
C7 C3 1_555 1_555
C8 N1 1_555 1_555
H3 C8 1_555 1_555
O6 Tm1A_2 1_555 1_555
O7 C6 1_555 1_555
O8 C4 1_555 1_555
H4 O4 1_555 1_555
H6 O1 1_555 1_555
H7 O4 1_555 1_555
O9 H8 1_555 1_555
H9 O9 1_555 1_555
Tm1B O8 1_555 1_555
Tm1A O5A 1_555 1_555
Tm1_2 O3 1_555 1_555
Tm1A_2 O3A 1_555 1_555
Tm1B_2 O7 1_555 1_555
Tm1C O7A 1_555 1_555
O1B Tm1B_2 1_555 1_555
O2B Tm1B 1_555 1_555
O2B_2 Tm1B_2 1_555 1_555
O3_2 Tm1 1_555 1_555
O3A C2A 1_555 1_555
O3B Tm1B_2 1_555 1_555
C1A C2A 1_555 1_555
O4B Tm1B_2 1_555 1_555
C2A O6A 1_555 1_555
N1A C5A 1_555 1_555
C3A C1A 1_555 1_555
H1A C3A 1_555 1_555
C4B C4 1_555 1_555
C5A C1A 1_555 1_555
H2A C5A 1_555 1_555
O5A C6A 1_555 1_555
O5B Tm1B_2 1_555 1_555
C6A C7A 1_555 1_555
C7A C3A 1_555 1_555
C8A N1A 1_555 1_555
H3A C8A 1_555 1_555
O6A Tm1 1_555 1_555
O6C Tm1B_2 1_555 1_555
O7B Tm1 1_555 1_555
O7A C6A 1_555 1_555
O8B Tm1 1_555 1_555
O8_2 Tm1B_2 1_555 1_555
H4B O4B 1_555 1_555
H5B O1B 1_555 1_555
H6B O1B 1_555 1_555
H7B O4B 1_555 1_555
C6 C7 1_555 1_555
C7 C8 1_555 1_555
O2B C4B 1_555 1_555
C4B O8B 1_555 1_555
C7A C8A 1_555 1_555

#END
