
#######################################################################
#
#                 Cambridge Crystallographic Data Centre
#                                CCDC 
#
#######################################################################
#
# If this CIF has been generated from an entry in the Cambridge 
# Structural Database, then it will include bibliographic, chemical, 
# crystal, experimental, refinement or atomic coordinate data resulting 
# from the CCDC's data processing and validation procedures.
#
#######################################################################

data_MIVZUM
_symmetry_cell_setting           monoclinic
_symmetry_space_group_name_H-M   'C 2/c'
_symmetry_Int_Tables_number      15
_space_group_name_Hall           '-C 2yn'
loop_
_symmetry_equiv_pos_site_id
_symmetry_equiv_pos_as_xyz
1 x,y,z
2 x,-y,1/2+z
3 1/2+x,1/2+y,z
4 1/2+x,1/2-y,1/2+z
5 -x,-y,-z
6 -x,y,1/2-z
7 1/2-x,1/2-y,-z
8 1/2-x,1/2+y,1/2-z
_cell_length_a                   14.0331(8)
_cell_length_b                   15.415(1)
_cell_length_c                   7.9596(5)
_cell_angle_alpha                90
_cell_angle_beta                 110.870(5)
_cell_angle_gamma                90
_cell_volume                     1608.86
loop_
_atom_site_label
_atom_site_type_symbol
_atom_site_fract_x
_atom_site_fract_y
_atom_site_fract_z
Co1 Co 0.0000 0.35250(2) 0.2500
O1 O 0.0705(1) 0.45435(8) 0.1720(2)
O2 O 0.3136(1) 0.06193(9) 0.0499(2)
O3 O 0.1671(1) 0.12870(8) -0.1136(2)
N1 N 0.0929(1) 0.2619(1) 0.1821(2)
N2 N 0.3861(1) 0.1488(1) 0.4894(2)
C1 C 0.1567(1) 0.2157(1) 0.1796(2)
C2 C 0.3199(2) 0.1536(1) 0.3551(3)
C3 C 0.2379(2) 0.1604(1) 0.1896(3)
C4 C 0.2445(2) 0.1128(1) 0.0390(3)
C5 C 0.1693(2) 0.0828(2) -0.2721(3)
C6 C 0.0842(2) 0.1093(2) -0.4265(3)
H1 H 0.098(1) 0.452(1) 0.105(2)
H2 H 0.105(1) 0.486(1) 0.246(3)
H3 H 0.1655 0.0221 -0.2548
H4 H 0.2310 0.0959 -0.2906
H5 H 0.0858 0.0793 -0.5298
H6 H 0.0225 0.0962 -0.4081
H7 H 0.0879 0.1700 -0.4440
O1E O -0.0705(1) 0.45435(8) 0.3280(2)
H1E H -0.098(1) 0.452(1) 0.395(2)
H2E H -0.105(1) 0.486(1) 0.254(3)
O2E O -0.3136(1) 0.06193(9) 0.4501(2)
O3E O -0.1671(1) 0.12870(8) 0.6136(2)
N1E N -0.0929(1) 0.2619(1) 0.3179(2)
N2E N -0.3861(1) 0.1488(1) 0.0106(2)
C1E C -0.1567(1) 0.2157(1) 0.3204(2)
C2E C -0.3199(2) 0.1536(1) 0.1449(3)
C3E C -0.2379(2) 0.1604(1) 0.3104(3)
C4E C -0.2445(2) 0.1128(1) 0.4610(3)
C5E C -0.1693(2) 0.0828(2) 0.7721(3)
C6E C -0.0842(2) 0.1093(2) 0.9265(3)
H3E H -0.1655 0.0221 0.7548
H4E H -0.2310 0.0959 0.7906
H5E H -0.0858 0.0793 1.0298
H6E H -0.0225 0.0962 0.9081
H7E H -0.0879 0.1700 0.9440
N2C N -0.1139(1) 0.3512(1) -0.0106(2)
N2F N 0.1139(1) 0.3512(1) 0.5106(2)
Co1C Co 0.5000 0.14750(2) 0.7500
Co1C_2 Co -0.5000 0.14750(2) -0.2500
loop_
_geom_bond_atom_site_label_1
_geom_bond_atom_site_label_2
_geom_bond_site_symmetry_1
_geom_bond_site_symmetry_2
Co1 O1 1_555 1_555
O1 H1 1_555 1_555
O2 C4 1_555 1_555
O3 C4 1_555 1_555
N1 Co1 1_555 1_555
N2 C2 1_555 1_555
C1 N1 1_555 1_555
C2 C3 1_555 1_555
C3 C1 1_555 1_555
C4 C3 1_555 1_555
C5 O3 1_555 1_555
C6 C5 1_555 1_555
H2 O1 1_555 1_555
H3 C5 1_555 1_555
H4 C5 1_555 1_555
H5 C6 1_555 1_555
H6 C6 1_555 1_555
H7 C6 1_555 1_555
O1E Co1 1_555 1_555
H1E O1E 1_555 1_555
H2E O1E 1_555 1_555
O2E C4E 1_555 1_555
O3E C4E 1_555 1_555
N1E Co1 1_555 1_555
N2E C2E 1_555 1_555
C1E N1E 1_555 1_555
C2E C3E 1_555 1_555
C3E C1E 1_555 1_555
C4E C3E 1_555 1_555
C5E O3E 1_555 1_555
C6E C5E 1_555 1_555
H3E C5E 1_555 1_555
H4E C5E 1_555 1_555
H5E C6E 1_555 1_555
H6E C6E 1_555 1_555
H7E C6E 1_555 1_555
N2C Co1 1_555 1_555
N2F Co1 1_555 1_555
Co1C N2 1_555 1_555
Co1C_2 N2E 1_555 1_555

#END
