
#######################################################################
#
#                 Cambridge Crystallographic Data Centre
#                                CCDC 
#
#######################################################################
#
# If this CIF has been generated from an entry in the Cambridge 
# Structural Database, then it will include bibliographic, chemical, 
# crystal, experimental, refinement or atomic coordinate data resulting 
# from the CCDC's data processing and validation procedures.
#
#######################################################################

data_MIWDOM
_symmetry_cell_setting           triclinic
_symmetry_space_group_name_H-M   'P -1'
_symmetry_Int_Tables_number      2
_space_group_name_Hall           '-P 1'
loop_
_symmetry_equiv_pos_site_id
_symmetry_equiv_pos_as_xyz
1 x,y,z
2 -x,-y,-z
_cell_length_a                   6.8807(8)
_cell_length_b                   7.0658(9)
_cell_length_c                   21.492(2)
_cell_angle_alpha                92.379(9)
_cell_angle_beta                 92.662(9)
_cell_angle_gamma                99.220(10)
_cell_volume                     1029.01
loop_
_atom_site_label
_atom_site_type_symbol
_atom_site_fract_x
_atom_site_fract_y
_atom_site_fract_z
C1 C -0.2170(7) -0.5562(7) 0.3540(2)
C2 C -0.2371(7) -0.5505(7) 0.4221(2)
C3 C -0.2601(8) -0.7013(8) 0.4614(3)
H1 H -0.2658 -0.8270 0.4458
C4 C -0.2742(8) -0.6620(9) 0.5238(3)
H2 H -0.2896 -0.7629 0.5505
C5 C -0.2662(8) -0.4786(10) 0.5479(3)
H3 H -0.2767 -0.4567 0.5905
C6 C -0.2425(8) -0.3241(9) 0.5091(2)
H4 H -0.2359 -0.1984 0.5247
C7 C -0.2294(7) -0.3664(7) 0.4468(2)
C8 C -0.2171(7) -0.3301(7) 0.0990(2)
C9 C -0.2398(7) -0.4596(7) 0.0408(2)
C10 C -0.2417(7) -0.4078(8) -0.0204(2)
H5 H -0.2255 -0.2798 -0.0306
C11 C -0.2690(8) -0.5559(8) -0.0662(2)
H6 H -0.2758 -0.5255 -0.1078
C12 C -0.2862(8) -0.7454(9) -0.0521(3)
H7 H -0.3007 -0.8399 -0.0842
C13 C -0.2823(8) -0.7977(8) 0.0092(2)
H8 H -0.2960 -0.9256 0.0194
C14 C -0.2572(7) -0.6499(7) 0.0548(2)
C15 C -0.5736(7) -0.1898(7) 0.2172(2)
H9 H -0.4926 -0.0865 0.2015
C16 C -0.7731(7) -0.1871(7) 0.2183(2)
H10 H -0.8248 -0.0821 0.2040
C17 C -0.8139(7) -0.4819(7) 0.2589(2)
H11 H -0.8958 -0.5876 0.2729
C18 C -0.6143(7) -0.4822(7) 0.2585(2)
H12 H -0.5631 -0.5874 0.2728
N1 N -0.1907(6) -0.3753(5) 0.33079(17)
N2 N -0.2210(6) -0.4354(5) 0.15140(18)
N3 N -0.4937(5) -0.3363(5) 0.23799(16)
N4 N -0.8911(5) -0.3332(5) 0.23970(16)
O1 O -0.2173(6) -0.6999(5) 0.32013(17)
O2 O -0.0242(6) -0.0781(5) 0.39245(18)
O3 O -0.1384(5) -0.0184(5) 0.2454(2)
O4 O -0.3819(6) -0.1298(5) 0.37454(17)
O5 O -0.1993(6) -0.1567(5) 0.10013(17)
O6 O -0.4330(5) -0.7606(5) 0.15727(17)
O7 O -0.0764(5) -0.7369(5) 0.15778(16)
S1 S -0.20443(19) -0.21079(18) 0.38512(6)
S2 S -0.24858(19) -0.66443(18) 0.13565(6)
Cu1 Cu -0.19344(8) -0.33363(9) 0.23944(3)
H13 H -0.127(11) 0.057(7) 0.2170(19)
H14 H -0.178(8) 0.035(7) 0.2764(15)
N4_2 N 0.1089(5) -0.3332(5) 0.23970(16)
Cu1_2 Cu -1.19344(8) -0.33363(9) 0.23944(3)
O8 O -0.6766(9) -0.8625(7) 0.3365(3)
H15 H -0.769(9) -0.934(11) 0.351(5)
H16 H -0.575(8) -0.912(15) 0.340(6)
loop_
_geom_bond_atom_site_label_1
_geom_bond_atom_site_label_2
_geom_bond_site_symmetry_1
_geom_bond_site_symmetry_2
C1 C2 1_555 1_555
C2 C3 1_555 1_555
C3 H1 1_555 1_555
C4 C3 1_555 1_555
H2 C4 1_555 1_555
C5 C4 1_555 1_555
H3 C5 1_555 1_555
C6 C5 1_555 1_555
H4 C6 1_555 1_555
C7 C2 1_555 1_555
C8 C9 1_555 1_555
C9 C10 1_555 1_555
C10 H5 1_555 1_555
C11 C10 1_555 1_555
H6 C11 1_555 1_555
C12 C11 1_555 1_555
H7 C12 1_555 1_555
C13 C12 1_555 1_555
H8 C13 1_555 1_555
C14 C9 1_555 1_555
C15 H9 1_555 1_555
C16 C15 1_555 1_555
H10 C16 1_555 1_555
C17 H11 1_555 1_555
C18 C17 1_555 1_555
H12 C18 1_555 1_555
N1 C1 1_555 1_555
N2 C8 1_555 1_555
N3 C15 1_555 1_555
N4 C16 1_555 1_555
O1 C1 1_555 1_555
O2 S1 1_555 1_555
O3 Cu1 1_555 1_555
O4 S1 1_555 1_555
O5 C8 1_555 1_555
O6 S2 1_555 1_555
O7 S2 1_555 1_555
S1 C7 1_555 1_555
S2 C14 1_555 1_555
Cu1 N1 1_555 1_555
H13 O3 1_555 1_555
H14 O3 1_555 1_555
O8 H15 1_555 1_555
H16 O8 1_555 1_555
N4_2 Cu1 1_555 1_555
Cu1_2 N4 1_555 1_555
C6 C7 1_555 1_555
C13 C14 1_555 1_555
C17 N4 1_555 1_555
C18 N3 1_555 1_555
N1 S1 1_555 1_555
N2 S2 1_555 1_555
N2 Cu1 1_555 1_555
N3 Cu1 1_555 1_555

#END
