
#######################################################################
#
#                 Cambridge Crystallographic Data Centre
#                                CCDC 
#
#######################################################################
#
# If this CIF has been generated from an entry in the Cambridge 
# Structural Database, then it will include bibliographic, chemical, 
# crystal, experimental, refinement or atomic coordinate data resulting 
# from the CCDC's data processing and validation procedures.
#
#######################################################################

data_MIWJEI
_symmetry_cell_setting           monoclinic
_symmetry_space_group_name_H-M   'C 2/c'
_symmetry_Int_Tables_number      15
_space_group_name_Hall           '-C 2yn'
loop_
_symmetry_equiv_pos_site_id
_symmetry_equiv_pos_as_xyz
1 x,y,z
2 1/2+x,1/2+y,z
3 -x,y,1/2-z
4 1/2-x,1/2+y,1/2-z
5 -x,-y,-z
6 1/2-x,1/2-y,-z
7 x,-y,1/2+z
8 1/2+x,1/2-y,1/2+z
_cell_length_a                   24.194(3)
_cell_length_b                   20.792(3)
_cell_length_c                   15.289(4)
_cell_angle_alpha                90
_cell_angle_beta                 128.393(18)
_cell_angle_gamma                90
_cell_volume                     6027.97
loop_
_atom_site_label
_atom_site_type_symbol
_atom_site_fract_x
_atom_site_fract_y
_atom_site_fract_z
Hg2 Hg -0.013972(16) 0.20890(2) -0.22904(3)
Cl5 Cl 0.0000 0.32474(12) -0.2500
Cl6 Cl -0.03657(9) 0.23712(10) -0.09783(17)
Cl7 Cl -0.10591(6) 0.14932(8) -0.37073(13)
Hg2B Hg 0.013972(16) 0.20890(2) -0.27096(3)
Cl6B Cl 0.03657(9) 0.23712(10) -0.40217(17)
Cl7B Cl 0.10591(6) 0.14932(8) -0.12927(13)
Er1 Er 0.117859(6) 0.244293(7) 0.381667(10)
O1 O 0.06006(10) 0.18608(12) 0.21620(18)
O2 O -0.05567(9) 0.16568(12) 0.10229(18)
O3 O 0.20349(9) 0.25037(12) 0.36027(17)
O4 O 0.31478(10) 0.26136(12) 0.42585(17)
O5 O 0.04385(9) 0.30224(12) 0.40047(17)
O6 O -0.06979(10) 0.32042(12) 0.25832(17)
C1 C 0.08273(16) 0.0994(2) 0.1040(3)
H1 H 0.1224 0.1111 0.1750
C2 C 0.0883(2) 0.0641(3) 0.0346(4)
H2 H 0.1328 0.0515 0.0596
C3 C -0.0313(2) 0.0625(2) -0.1049(3)
H3 H -0.0693 0.0496 -0.1764
C4 C -0.04172(19) 0.0972(2) -0.0401(3)
H4 H -0.0872 0.1072 -0.0666
C5 C 0.01529(14) 0.11725(17) 0.0641(3)
C6 C 0.00629(14) 0.16037(17) 0.1345(2)
C7 C 0.27220(15) 0.2939(2) 0.2169(3)
H5 H 0.3197 0.2993 0.2768
C8 C 0.24647(18) 0.3074(2) 0.1085(3)
H6 H 0.2770 0.3219 0.0952
C9 C 0.1342(2) 0.2785(2) 0.0376(3)
H7 H 0.0871 0.2732 -0.0241
C10 C 0.15641(17) 0.2642(2) 0.1416(3)
H8 H 0.1243 0.2485 0.1509
C11 C 0.22571(14) 0.27258(17) 0.2333(2)
C12 C 0.24982(14) 0.25992(16) 0.3491(2)
C13 C -0.08211(15) 0.40576(19) 0.3830(3)
H9 H -0.1206 0.4019 0.3079
C14 C -0.08678(17) 0.4426(2) 0.4529(3)
H10 H -0.1286 0.4639 0.4249
C15 C 0.02838(19) 0.4210(2) 0.6029(3)
H11 H 0.0659 0.4278 0.6778
C16 C 0.03738(17) 0.3820(2) 0.5385(3)
H12 H 0.0802 0.3616 0.5700
C17 C -0.01911(14) 0.37426(17) 0.4260(2)
C18 C -0.01386(13) 0.32888(16) 0.3553(2)
N1 N 0.03444(17) 0.04767(19) -0.0636(3)
H13 H 0.0410 0.0262 -0.1046
N2 N 0.17948(16) 0.29974(18) 0.0251(2)
H14 H 0.1647 0.3092 -0.0410
N3 N -0.03247(15) 0.44794(16) 0.5586(3)
H15 H -0.0371 0.4703 0.6010
O9 O 0.17972(10) 0.14232(12) 0.43779(19)
H16 H 0.2211 0.1485 0.4654
O10 O 0.17363(9) 0.34910(11) 0.46137(17)
H17 H 0.1850 0.3523 0.5241
Er1B Er -0.117859(6) 0.244293(7) 0.118333(10)
Er1E Er 0.382141(6) 0.255707(7) 0.618333(10)
O1B O -0.06006(10) 0.18608(12) 0.28380(18)
O2B O 0.05567(9) 0.16568(12) 0.39771(18)
O3E O 0.29651(9) 0.24963(12) 0.63973(17)
O3B O -0.20349(9) 0.25037(12) 0.13973(17)
O4E O 0.18522(10) 0.23864(12) 0.57415(17)
O4G O -0.18522(10) 0.23864(12) -0.07415(17)
O5B O -0.04385(9) 0.30224(12) 0.09953(17)
O6B O 0.06979(10) 0.32042(12) 0.24168(17)
C1B C -0.08273(16) 0.0994(2) 0.3960(3)
H1B H -0.1224 0.1111 0.3250
C2B C -0.0883(2) 0.0641(3) 0.4654(4)
H2B H -0.1328 0.0515 0.4404
C3B C 0.0313(2) 0.0625(2) 0.6049(3)
H3B H 0.0693 0.0496 0.6764
C4B C 0.04172(19) 0.0972(2) 0.5401(3)
H4B H 0.0872 0.1072 0.5666
C5B C -0.01529(14) 0.11725(17) 0.4359(3)
C6B C -0.00629(14) 0.16037(17) 0.3655(2)
C7E C 0.22780(15) 0.2061(2) 0.7831(3)
H5E H 0.1803 0.2007 0.7232
C8E C 0.25353(18) 0.1926(2) 0.8915(3)
H6E H 0.2230 0.1781 0.9048
C9E C 0.3658(2) 0.2215(2) 0.9624(3)
H7E H 0.4129 0.2268 1.0241
C10E C 0.34359(17) 0.2358(2) 0.8584(3)
H8E H 0.3757 0.2515 0.8491
C11E C 0.27429(14) 0.22742(17) 0.7667(2)
C12E C 0.25018(14) 0.24008(16) 0.6509(2)
C13B C 0.08211(15) 0.40576(19) 0.1170(3)
H9B H 0.1206 0.4019 0.1921
C14B C 0.08678(17) 0.4426(2) 0.0471(3)
H10B H 0.1286 0.4639 0.0751
C15B C -0.02838(19) 0.4210(2) -0.1029(3)
H11B H -0.0659 0.4278 -0.1778
C16B C -0.03738(17) 0.3820(2) -0.0385(3)
H12B H -0.0802 0.3616 -0.0700
C17B C 0.01911(14) 0.37426(17) 0.0740(2)
C18B C 0.01386(13) 0.32888(16) 0.1447(2)
N1B N -0.03444(17) 0.04767(19) 0.5636(3)
H13B H -0.0410 0.0262 0.6046
N2E N 0.32052(16) 0.20026(18) 0.9749(2)
H14E H 0.3353 0.1908 1.0410
N3B N 0.03247(15) 0.44794(16) -0.0586(3)
H15B H 0.0371 0.4703 -0.1010
O9B O -0.17972(10) 0.14232(12) 0.06221(19)
H16B H -0.2211 0.1485 0.0346
O10B O -0.17363(9) 0.34910(11) 0.03863(17)
H17B H -0.1850 0.3523 -0.0241
O7 O 0.07915(13) 0.02539(15) 0.3324(2)
H19 H 0.0383(9) 0.0096(19) 0.283(6)
O8 O 0.22283(15) 0.39262(17) 0.6684(2)
H18 H 0.229(3) 0.4326(6) 0.684(4)
Hg1 Hg 0.218455(7) 0.474958(9) -0.071904(12)
Cl1 Cl 0.27699(5) 0.47741(6) 0.12831(8)
Cl2 Cl 0.26503(4) 0.54614(6) -0.14116(8)
Cl3 Cl 0.09459(4) 0.51861(5) -0.16169(7)
Cl4 Cl 0.20054(5) 0.36526(6) -0.14897(8)
loop_
_geom_bond_atom_site_label_1
_geom_bond_atom_site_label_2
_geom_bond_site_symmetry_1
_geom_bond_site_symmetry_2
Hg1 Cl1 1_555 1_555
Hg2 Cl5 1_555 1_555
Er1 O1 1_555 1_555
Cl2 Hg1 1_555 1_555
Cl3 Hg1 1_555 1_555
Cl4 Hg1 1_555 1_555
Cl5 Hg2B 1_555 1_555
Cl6 Hg2 1_555 1_555
Cl7 Hg2 1_555 1_555
O1 C6 1_555 1_555
O2 C6 1_555 1_555
O3 Er1 1_555 1_555
O4 C12 1_555 1_555
O5 Er1 1_555 1_555
O6 C18 1_555 1_555
C1 H1 1_555 1_555
C2 C1 1_555 1_555
H2 C2 1_555 1_555
C3 H3 1_555 1_555
C4 C3 1_555 1_555
H4 C4 1_555 1_555
C5 C1 1_555 1_555
C6 C5 1_555 1_555
C7 H5 1_555 1_555
C8 C7 1_555 1_555
H6 C8 1_555 1_555
C9 H7 1_555 1_555
C10 C9 1_555 1_555
H8 C10 1_555 1_555
C11 C7 1_555 1_555
C12 O3 1_555 1_555
C13 H9 1_555 1_555
C14 C13 1_555 1_555
H10 C14 1_555 1_555
C15 H11 1_555 1_555
C16 C15 1_555 1_555
H12 C16 1_555 1_555
C17 C13 1_555 1_555
C18 O5 1_555 1_555
N1 C2 1_555 1_555
H13 N1 1_555 1_555
N2 C8 1_555 1_555
H14 N2 1_555 1_555
N3 C14 1_555 1_555
H15 N3 1_555 1_555
O7 H19 1_555 1_555
O8 H18 1_555 1_555
O9 Er1 1_555 1_555
H16 O9 1_555 1_555
O10 Er1 1_555 1_555
H17 O10 1_555 1_555
Hg2B Hg2 1_555 1_555
Er1B O2 1_555 1_555
Er1E O4 1_555 1_555
Cl6B Hg2B 1_555 1_555
Cl7B Hg2 1_555 1_555
O1B Er1B 1_555 1_555
O2B Er1 1_555 1_555
O3E Er1E 1_555 1_555
O3B Er1B 1_555 1_555
O4E Er1 1_555 1_555
O4G Er1B 1_555 1_555
O5B Er1B 1_555 1_555
O6B Er1 1_555 1_555
C1B H1B 1_555 1_555
C2B C1B 1_555 1_555
H2B C2B 1_555 1_555
C3B H3B 1_555 1_555
C4B C3B 1_555 1_555
H4B C4B 1_555 1_555
C5B C1B 1_555 1_555
C6B O1B 1_555 1_555
C7E H5E 1_555 1_555
C8E C7E 1_555 1_555
H6E C8E 1_555 1_555
C9E H7E 1_555 1_555
C10E C9E 1_555 1_555
H8E C10E 1_555 1_555
C11E C7E 1_555 1_555
C12E O3E 1_555 1_555
C13B H9B 1_555 1_555
C14B C13B 1_555 1_555
H10B C14B 1_555 1_555
C15B H11B 1_555 1_555
C16B C15B 1_555 1_555
H12B C16B 1_555 1_555
C17B C13B 1_555 1_555
C18B O5B 1_555 1_555
N1B C2B 1_555 1_555
H13B N1B 1_555 1_555
N2E C8E 1_555 1_555
H14E N2E 1_555 1_555
N3B C14B 1_555 1_555
H15B N3B 1_555 1_555
O9B Er1B 1_555 1_555
H16B O9B 1_555 1_555
O10B Er1B 1_555 1_555
H17B O10B 1_555 1_555
Cl7 Hg2B 1_555 1_555
O6 Er1B 1_555 1_555
C3 N1 1_555 1_555
C4 C5 1_555 1_555
C9 N2 1_555 1_555
C10 C11 1_555 1_555
C11 C12 1_555 1_555
C15 N3 1_555 1_555
C16 C17 1_555 1_555
C17 C18 1_555 1_555
Hg2B Cl7B 1_555 1_555
O2B C6B 1_555 1_555
O4E C12E 1_555 1_555
O6B C18B 1_555 1_555
C3B N1B 1_555 1_555
C4B C5B 1_555 1_555
C5B C6B 1_555 1_555
C9E N2E 1_555 1_555
C10E C11E 1_555 1_555
C11E C12E 1_555 1_555
C15B N3B 1_555 1_555
C16B C17B 1_555 1_555
C17B C18B 1_555 1_555

#END
