
#######################################################################
#
#                 Cambridge Crystallographic Data Centre
#                                CCDC 
#
#######################################################################
#
# If this CIF has been generated from an entry in the Cambridge 
# Structural Database, then it will include bibliographic, chemical, 
# crystal, experimental, refinement or atomic coordinate data resulting 
# from the CCDC's data processing and validation procedures.
#
#######################################################################

data_MIWSIW
_symmetry_cell_setting           monoclinic
_symmetry_space_group_name_H-M   'P 21/n'
_symmetry_Int_Tables_number      14
_space_group_name_Hall           '-P 2yn'
loop_
_symmetry_equiv_pos_site_id
_symmetry_equiv_pos_as_xyz
1 x,y,z
2 1/2-x,1/2+y,1/2-z
3 -x,-y,-z
4 1/2+x,1/2-y,1/2+z
_cell_length_a                   8.764(2)
_cell_length_b                   15.381(4)
_cell_length_c                   11.395(2)
_cell_angle_alpha                90
_cell_angle_beta                 106.617(10)
_cell_angle_gamma                90
_cell_volume                     1471.89
loop_
_atom_site_label
_atom_site_type_symbol
_atom_site_fract_x
_atom_site_fract_y
_atom_site_fract_z
Zn1 Zn 0.57507(3) 0.050771(18) 0.90995(3)
N1 N 0.5998(2) 0.04702(13) 0.73333(18)
N2 N -0.2859(2) 0.17011(13) 0.94935(18)
N3 N -0.1115(2) 0.27006(14) 0.60262(18)
O1 O 0.5580(2) 0.07510(10) 1.11255(15)
O2 O 0.35301(19) 0.10018(10) 0.86996(15)
O3 O 0.24598(19) 0.02733(10) 0.99861(15)
C1 C 0.7267(3) 0.00917(18) 0.7108(2)
H1 H 0.7896 -0.0278 0.7697
C2 C 0.7675(4) 0.0227(2) 0.6046(3)
H2 H 0.8569 -0.004 0.5924
C3 C 0.6736(4) 0.0765(2) 0.5162(3)
H3 H 0.6988 0.0868 0.4435
C4 C 0.5425(4) 0.11459(19) 0.5375(3)
H4 H 0.477 0.1508 0.4791
C5 C 0.5091(3) 0.09860(17) 0.6465(2)
H5 H 0.4201 0.1247 0.6603
C6 C 0.2414(3) 0.08243(15) 0.9154(2)
C7 C 0.0891(3) 0.13258(15) 0.8680(2)
C8 C 0.0616(3) 0.17969(15) 0.7598(2)
H6 H 0.1384 0.1814 0.718
C9 C -0.0810(3) 0.22408(15) 0.7146(2)
C10 C -0.1916(3) 0.22457(15) 0.7809(2)
H7 H -0.2848 0.2568 0.7528
C11 C -0.1641(3) 0.17733(14) 0.8887(2)
C12 C -0.0240(3) 0.13086(15) 0.9323(2)
H8 H -0.0056 0.0987 1.0041
H9 H -0.3429 0.2107 0.9358
H10 H -0.2414 0.1695 1.0297
H11 H -0.0784 0.2443 0.557
H12 H -0.214 0.2799 0.5724
H13 H 0.6421 0.0802 1.1662
H14 H 0.5034 0.1229 1.124
Zn1_2 Zn -0.42493(3) 0.050771(18) 0.90995(3)
Zn1B Zn 0.42493(3) -0.050771(18) 1.09005(3)
N2_2 N 0.7141(2) 0.17011(13) 0.94935(18)
O1B O 0.4420(2) -0.07510(10) 0.88745(15)
O3B O 0.75402(19) -0.02733(10) 1.00139(15)
N4 N 0.9203(3) 0.15067(15) 1.3025(2)
O4 O 0.9112(3) 0.19771(14) 1.21234(19)
O5 O 0.8416(3) 0.08193(14) 1.29032(19)
O6 O 1.0088(2) 0.17115(13) 1.40648(17)
loop_
_geom_bond_atom_site_label_1
_geom_bond_atom_site_label_2
_geom_bond_site_symmetry_1
_geom_bond_site_symmetry_2
Zn1 N1 1_555 1_555
N1 C1 1_555 1_555
N2 C11 1_555 1_555
N3 C9 1_555 1_555
O1 Zn1 1_555 1_555
O2 Zn1 1_555 1_555
O3 C6 1_555 1_555
C1 H1 1_555 1_555
C2 C1 1_555 1_555
H2 C2 1_555 1_555
C3 C2 1_555 1_555
H3 C3 1_555 1_555
C4 C3 1_555 1_555
H4 C4 1_555 1_555
C5 N1 1_555 1_555
H5 C5 1_555 1_555
C6 O2 1_555 1_555
C7 C6 1_555 1_555
C8 C7 1_555 1_555
H6 C8 1_555 1_555
C9 C8 1_555 1_555
C10 C9 1_555 1_555
H7 C10 1_555 1_555
C11 C10 1_555 1_555
C12 C7 1_555 1_555
H8 C12 1_555 1_555
H9 N2 1_555 1_555
H10 N2 1_555 1_555
H11 N3 1_555 1_555
H12 N3 1_555 1_555
H13 O1 1_555 1_555
H14 O1 1_555 1_555
N4 O4 1_555 1_555
O5 N4 1_555 1_555
O6 N4 1_555 1_555
Zn1_2 N2 1_555 1_555
Zn1B O1 1_555 1_555
N2_2 Zn1 1_555 1_555
O1B Zn1 1_555 1_555
O3B Zn1 1_555 1_555
O3 Zn1B 1_555 1_555
C4 C5 1_555 1_555
C11 C12 1_555 1_555
Zn1B O1B 1_555 1_555

#END
