
#######################################################################
#
#                 Cambridge Crystallographic Data Centre
#                                CCDC 
#
#######################################################################
#
# If this CIF has been generated from an entry in the Cambridge 
# Structural Database, then it will include bibliographic, chemical, 
# crystal, experimental, refinement or atomic coordinate data resulting 
# from the CCDC's data processing and validation procedures.
#
#######################################################################

data_MIWZID
_symmetry_cell_setting           triclinic
_symmetry_space_group_name_H-M   'P -1'
_symmetry_Int_Tables_number      2
_space_group_name_Hall           '-P 1'
loop_
_symmetry_equiv_pos_site_id
_symmetry_equiv_pos_as_xyz
1 x,y,z
2 -x,-y,-z
_cell_length_a                   8.0113(11)
_cell_length_b                   9.7940(13)
_cell_length_c                   14.0800(18)
_cell_angle_alpha                85.055(3)
_cell_angle_beta                 74.103(3)
_cell_angle_gamma                79.196(3)
_cell_volume                     1042.96
loop_
_atom_site_label
_atom_site_type_symbol
_atom_site_fract_x
_atom_site_fract_y
_atom_site_fract_z
O9 O 0.0402(8) 0.0691(5) 0.8038(5)
N1 N 0.1659(9) 0.0491(6) 0.7245(6)
C21 C 0.2608(11) -0.0760(7) 0.7006(7)
H14 H 0.2376 -0.1515 0.7440
C22 C 0.3910(11) -0.0975(8) 0.6149(7)
H15 H 0.4544 -0.1867 0.6017
C23 C 0.4310(10) 0.0103(8) 0.5469(7)
C24 C 0.3332(12) 0.1394(8) 0.5766(8)
H16 H 0.3577 0.2170 0.5357
C25 C 0.2060(12) 0.1582(8) 0.6606(8)
H17 H 0.1436 0.2471 0.6759
O9A O 0.9598(8) -0.0691(5) 0.1962(5)
N1A N 0.8341(9) -0.0491(6) 0.2755(6)
C21A C 0.7392(11) 0.0760(7) 0.2994(7)
H14A H 0.7624 0.1515 0.2560
C22A C 0.6090(11) 0.0975(8) 0.3851(7)
H15A H 0.5456 0.1867 0.3983
C23A C 0.5690(10) -0.0103(8) 0.4531(7)
C24A C 0.6668(12) -0.1394(8) 0.4234(8)
H16A H 0.6423 -0.2170 0.4643
C25A C 0.7940(12) -0.1582(8) 0.3394(8)
H17A H 0.8564 -0.2471 0.3241
O10 O -0.0364(10) 0.1530(7) 1.0708(9)
H18 H -0.0387 0.0823 1.1103
H19 H 0.0205 0.1289 1.0127
Zn1 Zn 0.38082(7) 0.51799(6) 0.90458(4)
Zn2 Zn 0.01255(7) 0.45902(6) 0.89036(4)
O1 O 0.4696(5) 0.3211(4) 0.8719(3)
O2 O 0.1976(5) 0.2740(4) 0.9061(3)
O3 O 0.5960(4) -0.4324(4) 0.9227(3)
O4 O 0.8514(4) -0.3621(4) 0.8558(3)
O5 O 0.1928(5) 0.4788(4) 0.7459(3)
O6 O 0.4060(5) 0.5883(4) 0.7615(3)
O7 O 0.1330(4) 0.5762(3) 0.9625(2)
H1 H 0.1017 0.6746 0.9443
O8 O -0.1139(5) 0.3302(4) 0.8350(3)
H2 H -0.2240 0.3513 0.8612
H3 H -0.0922 0.2466 0.8169
C1 C 0.3600(7) 0.2386(5) 0.8816(4)
C2 C 0.6855(6) -0.3386(5) 0.8789(3)
C3 C 0.4359(7) 0.0870(5) 0.8659(4)
C4 C 0.3605(7) -0.0076(5) 0.9327(4)
H4 H 0.2554 0.0215 0.9796
C5 C 0.4393(7) -0.1489(5) 0.9317(4)
H5 H 0.3864 -0.2114 0.9787
C6 C 0.5925(7) -0.1956(5) 0.8627(4)
C7 C 0.6666(6) -0.1024(5) 0.7842(4)
C8 C 0.8087(8) -0.1471(6) 0.7035(4)
H6 H 0.8623 -0.2400 0.7012
C9 C 0.8692(9) -0.0571(6) 0.6287(4)
H7 H 0.9620 -0.0895 0.5753
C10 C 0.7939(9) 0.0830(6) 0.6309(4)
H8 H 0.8375 0.1440 0.5796
C11 C 0.6560(8) 0.1310(6) 0.7085(4)
H9 H 0.6070 0.2250 0.7094
C12 C 0.5866(7) 0.0421(5) 0.7870(4)
C13 C 0.3291(7) 0.5291(5) 0.7115(4)
C14 C 0.3153(7) 0.5340(6) 0.5338(4)
C15 C 0.4183(7) 0.5167(5) 0.6034(4)
C16 C 0.6033(7) 0.4847(6) 0.5680(4)
C17 C 0.7202(13) 0.4754(10) 0.6327(8)
H10 H 0.6709 0.4941 0.6992
C18 C 0.9001(15) 0.4400(12) 0.5991(9)
H11 H 0.9699 0.4346 0.6427
C19 C 0.9789(15) 0.4121(12) 0.4990(9)
H12 H 1.0999 0.3828 0.4768
C20 C 0.8763(14) 0.4285(11) 0.4354(8)
H13 H 0.9307 0.4151 0.3687
O5A O 0.8072(5) 0.5212(4) 0.2541(3)
O6A O 0.5940(5) 0.4117(4) 0.2385(3)
C13A C 0.6709(7) 0.4709(5) 0.2885(4)
C14A C 0.6847(7) 0.4660(6) 0.4662(4)
C15A C 0.5817(7) 0.4833(5) 0.3966(4)
C16A C 0.3967(7) 0.5153(6) 0.4320(4)
C17A C 0.2798(13) 0.5246(10) 0.3673(8)
H10A H 0.3291 0.5059 0.3008
C18A C 0.0999(15) 0.5600(12) 0.4009(9)
H11A H 0.0301 0.5654 0.3573
C19A C 0.0211(15) 0.5879(12) 0.5010(9)
H12A H -0.0999 0.6172 0.5232
C20A C 0.1237(14) 0.5715(11) 0.5646(8)
H13A H 0.0693 0.5849 0.6313
Zn1A Zn -0.38082(7) 0.48201(6) 1.09542(4)
Zn2A Zn -0.01255(7) 0.54098(6) 1.10964(4)
O1A O -0.4696(5) 0.6789(4) 1.1281(3)
O2A O -0.1976(5) 0.7260(4) 1.0939(3)
O3A O -0.5960(4) 1.4324(4) 1.0773(3)
O4A O -0.8514(4) 1.3621(4) 1.1442(3)
O7A O -0.1330(4) 0.4238(3) 1.0375(2)
H1A H -0.1017 0.3254 1.0557
O8A O 0.1139(5) 0.6698(4) 1.1650(3)
H2A H 0.2240 0.6487 1.1388
H3A H 0.0922 0.7534 1.1831
C1A C -0.3600(7) 0.7614(5) 1.1184(4)
C2A C -0.6855(6) 1.3386(5) 1.1211(3)
C3A C -0.4359(7) 0.9130(5) 1.1341(4)
C4A C -0.3605(7) 1.0076(5) 1.0673(4)
H4A H -0.2554 0.9785 1.0204
C5A C -0.4393(7) 1.1489(5) 1.0683(4)
H5A H -0.3864 1.2114 1.0213
C6A C -0.5925(7) 1.1956(5) 1.1373(4)
C7A C -0.6666(6) 1.1024(5) 1.2158(4)
C8A C -0.8087(8) 1.1471(6) 1.2965(4)
H6A H -0.8623 1.2400 1.2988
C9A C -0.8692(9) 1.0571(6) 1.3713(4)
H7A H -0.9620 1.0895 1.4247
C10A C -0.7939(9) 0.9170(6) 1.3691(4)
H8A H -0.8375 0.8560 1.4204
C11A C -0.6560(8) 0.8690(6) 1.2915(4)
H9A H -0.6070 0.7750 1.2906
C12A C -0.5866(7) 0.9579(5) 1.2130(4)
Zn1_2 Zn -0.61918(7) 1.51799(6) 0.90458(4)
Zn1_3 Zn 0.38082(7) -0.48201(6) 0.90458(4)
Zn1A_2 Zn -0.38082(7) 1.48201(6) 1.09542(4)
Zn1A_3 Zn 0.61918(7) -0.51799(6) 1.09542(4)
Zn1A_4 Zn 0.61918(7) 0.48201(6) 0.09542(4)
Zn2_2 Zn 1.01255(7) -0.54098(6) 0.89036(4)
Zn2A_2 Zn -1.01255(7) 1.54098(6) 1.10964(4)
Zn2A_3 Zn 0.98745(7) 0.54098(6) 0.10964(4)
O3_2 O -0.4040(4) 0.5676(4) 0.9227(3)
O3_3 O 0.5960(4) 0.5676(4) 0.9227(3)
O3A_2 O -0.5960(4) 0.4324(4) 1.0773(3)
O3A_3 O 0.4040(4) 0.4324(4) 1.0773(3)
O4_2 O -0.1486(4) 0.6379(4) 0.8558(3)
O4A_2 O 0.1486(4) 0.3621(4) 1.1442(3)
O5A_2 O -0.1928(5) 0.5212(4) 1.2541(3)
O6A_2 O -0.4060(5) 0.4117(4) 1.2385(3)
loop_
_geom_bond_atom_site_label_1
_geom_bond_atom_site_label_2
_geom_bond_site_symmetry_1
_geom_bond_site_symmetry_2
Zn1 O1 1_555 1_555
Zn2 O2 1_555 1_555
O1 C1 1_555 1_555
O2 C1 1_555 1_555
O3 C2 1_555 1_555
O4 C2 1_555 1_555
O5 Zn2 1_555 1_555
O6 Zn1 1_555 1_555
O7 Zn1 1_555 1_555
H1 O7 1_555 1_555
O8 Zn2 1_555 1_555
H2 O8 1_555 1_555
H3 O8 1_555 1_555
C1 C3 1_555 1_555
C2 C6 1_555 1_555
C3 C4 1_555 1_555
C4 H4 1_555 1_555
C5 C4 1_555 1_555
H5 C5 1_555 1_555
C6 C5 1_555 1_555
C7 C6 1_555 1_555
C8 C7 1_555 1_555
H6 C8 1_555 1_555
C9 C8 1_555 1_555
H7 C9 1_555 1_555
C10 C9 1_555 1_555
H8 C10 1_555 1_555
C11 C10 1_555 1_555
H9 C11 1_555 1_555
C12 C3 1_555 1_555
C13 O5 1_555 1_555
C14 C15 1_555 1_555
C15 C13 1_555 1_555
C16 C15 1_555 1_555
C17 C16 1_555 1_555
H10 C17 1_555 1_555
C18 C17 1_555 1_555
H11 C18 1_555 1_555
C19 C18 1_555 1_555
H12 C19 1_555 1_555
C20 C19 1_555 1_555
H13 C20 1_555 1_555
O9 N1 1_555 1_555
N1 C21 1_555 1_555
C21 H14 1_555 1_555
C22 C21 1_555 1_555
H15 C22 1_555 1_555
C23 C22 1_555 1_555
C24 C23 1_555 1_555
H16 C24 1_555 1_555
C25 N1 1_555 1_555
H17 C25 1_555 1_555
O10 H18 1_555 1_555
H19 O10 1_555 1_555
O5A C13A 1_555 1_555
O6A C13A 1_555 1_555
C13A C15A 1_555 1_555
C14A C16 1_555 1_555
C15A C14A 1_555 1_555
C16A C14 1_555 1_555
C17A C16A 1_555 1_555
H10A C17A 1_555 1_555
C18A C17A 1_555 1_555
H11A C18A 1_555 1_555
C19A C18A 1_555 1_555
H12A C19A 1_555 1_555
C20A C14 1_555 1_555
H13A C20A 1_555 1_555
Zn1A O1A 1_555 1_555
Zn2A O7 1_555 1_555
O1A C1A 1_555 1_555
O2A Zn2A 1_555 1_555
O3A C2A 1_555 1_555
O4A C2A 1_555 1_555
O7A Zn2 1_555 1_555
H1A O7A 1_555 1_555
O8A Zn2A 1_555 1_555
H2A O8A 1_555 1_555
H3A O8A 1_555 1_555
C1A O2A 1_555 1_555
C2A C6A 1_555 1_555
C3A C1A 1_555 1_555
C4A C3A 1_555 1_555
H4A C4A 1_555 1_555
C5A C4A 1_555 1_555
H5A C5A 1_555 1_555
C6A C5A 1_555 1_555
C7A C6A 1_555 1_555
C8A C7A 1_555 1_555
H6A C8A 1_555 1_555
C9A C8A 1_555 1_555
H7A C9A 1_555 1_555
C10A C9A 1_555 1_555
H8A C10A 1_555 1_555
C11A C10A 1_555 1_555
H9A C11A 1_555 1_555
C12A C3A 1_555 1_555
Zn1_2 O3A 1_555 1_555
Zn1_3 O3 1_555 1_555
Zn1A_2 O3A 1_555 1_555
Zn1A_3 O3 1_555 1_555
Zn1A_4 O6A 1_555 1_555
Zn2_2 O4 1_555 1_555
Zn2A_2 O4A 1_555 1_555
Zn2A_3 O5A 1_555 1_555
O3_2 Zn1A 1_555 1_555
O3_3 Zn1 1_555 1_555
O3A_2 Zn1A 1_555 1_555
O3A_3 Zn1 1_555 1_555
O4_2 Zn2 1_555 1_555
O4A_2 Zn2A 1_555 1_555
O5A_2 Zn2A 1_555 1_555
O6A_2 Zn1A 1_555 1_555
O9A N1A 1_555 1_555
N1A C21A 1_555 1_555
C21A H14A 1_555 1_555
C22A C21A 1_555 1_555
H15A C22A 1_555 1_555
C23A C23 1_555 1_555
C24A C23A 1_555 1_555
H16A C24A 1_555 1_555
C25A N1A 1_555 1_555
H17A C25A 1_555 1_555
Zn2 O7 1_555 1_555
O6 C13 1_555 1_555
C7 C12 1_555 1_555
C11 C12 1_555 1_555
C20 C14A 1_555 1_555
C24 C25 1_555 1_555
C15A C16A 1_555 1_555
C19A C20A 1_555 1_555
Zn1A O7A 1_555 1_555
Zn2A O7A 1_555 1_555
C7A C12A 1_555 1_555
C11A C12A 1_555 1_555
C22A C23A 1_555 1_555
C24A C25A 1_555 1_555

#END
