
#######################################################################
#
#                 Cambridge Crystallographic Data Centre
#                                CCDC 
#
#######################################################################
#
# If this CIF has been generated from an entry in the Cambridge 
# Structural Database, then it will include bibliographic, chemical, 
# crystal, experimental, refinement or atomic coordinate data resulting 
# from the CCDC's data processing and validation procedures.
#
#######################################################################

data_MIXKAG
_symmetry_cell_setting           monoclinic
_symmetry_space_group_name_H-M   'P 21/c'
_symmetry_Int_Tables_number      14
_space_group_name_Hall           '-P 2ybc'
loop_
_symmetry_equiv_pos_site_id
_symmetry_equiv_pos_as_xyz
1 x,y,z
2 -x,1/2+y,1/2-z
3 -x,-y,-z
4 x,1/2-y,1/2+z
_cell_length_a                   10.1626(11)
_cell_length_b                   13.5816(11)
_cell_length_c                   14.6658(19)
_cell_angle_alpha                90
_cell_angle_beta                 102.428(8)
_cell_angle_gamma                90
_cell_volume                     1976.8
loop_
_atom_site_label
_atom_site_type_symbol
_atom_site_fract_x
_atom_site_fract_y
_atom_site_fract_z
Ag1 Ag -0.03393(3) 0.63141(2) -0.21952(2)
N1 N 0.1698(3) 0.6173(2) -0.1359(2)
N2 N 0.1302(4) 0.1781(2) -0.4150(2)
N3 N 0.2011(3) 0.1117(2) -0.1633(2)
C1 C 0.2665(4) 0.5644(3) -0.1493(2)
C2 C -0.2226(4) 0.1849(3) -0.4419(3)
H1 H -0.2045 0.2529 -0.4232
H2 H -0.1830 0.1711 -0.4951
C3 C -0.3730(4) 0.1642(4) -0.4647(3)
H3 H -0.4038 0.1477 -0.5302
H4 H -0.4231 0.2209 -0.4504
C4 C 0.2561(4) 0.4824(3) -0.2168(2)
C5 C 0.1338(3) 0.4346(3) -0.2471(2)
H5 H 0.0589 0.4547 -0.2250
C6 C 0.1219(4) 0.3580(3) -0.3093(2)
H6 H 0.0396 0.3264 -0.3293
C7 C 0.2345(4) 0.3280(3) -0.3423(2)
C8 C 0.3568(4) 0.3742(3) -0.3120(3)
H7 H 0.4317 0.3542 -0.3341
C9 C 0.3678(4) 0.4510(3) -0.2481(3)
H8 H 0.4507 0.4813 -0.2263
C10 C 0.2182(4) 0.2439(3) -0.4080(2)
C11 C -0.1484(5) -0.3887(3) -0.0100(3)
H9 H -0.1644 -0.4556 -0.0329
H10 H -0.0700 -0.3880 0.0411
C12 C -0.2680(6) -0.3487(4) 0.0197(5)
H11 H -0.2461 -0.3326 0.0856
H12 H -0.3407 -0.3964 0.0086
C13 C 0.2122(4) 0.0646(3) -0.0867(2)
C14 C -0.3386(4) -0.1272(4) 0.1782(3)
H13 H -0.3498 -0.0957 0.2354
H14 H -0.3580 -0.1969 0.1815
C15 C -0.4294(4) -0.0803(4) 0.0939(3)
H15 H -0.4892 -0.1287 0.0580
H16 H -0.4831 -0.0281 0.1126
C16 C 0.1023(4) 0.0321(3) -0.0427(2)
C17 C 0.1222(4) -0.0491(3) 0.0177(2)
H17 H 0.2045 -0.0819 0.0296
C18 C 0.0208(4) -0.0807(3) 0.0595(2)
H18 H -0.0348 0.1349 -0.0992
O1 O -0.3889(3) 0.0804(2) -0.40515(19)
O2 O -0.3068(3) -0.2609(2) -0.0358(2)
O3 O -0.3371(3) -0.0414(2) 0.04037(17)
Ag1A Ag 0.03393(3) 0.13141(2) -0.28048(2)
Ag1_2 Ag -0.03393(3) -0.36859(2) -0.21952(2)
Ag1C Ag -0.03393(3) -0.13141(2) 0.28048(2)
N1A N -0.1698(3) 0.1173(2) -0.3641(2)
N2A N -0.1302(4) -0.3219(2) -0.0850(2)
N2A_2 N -0.1302(4) 0.6781(2) -0.0850(2)
N3A N -0.2011(3) 0.6117(2) -0.3367(2)
N3B N -0.2011(3) -0.1117(2) 0.1633(2)
C1A C -0.2665(4) 0.0644(3) -0.3507(2)
C2A C 0.2226(4) 0.6849(3) -0.0581(3)
H1A H 0.2045 0.7529 -0.0768
H2A H 0.1830 0.6711 -0.0049
C3A C 0.3730(4) 0.6642(4) -0.0353(3)
H3A H 0.4038 0.6477 0.0302
H4A H 0.4231 0.7209 -0.0496
C4A C -0.2561(4) -0.0176(3) -0.2832(2)
C5A C -0.1338(3) -0.0654(3) -0.2529(2)
H5A H -0.0589 -0.0453 -0.2750
C6A C -0.1219(4) -0.1420(3) -0.1907(2)
H6A H -0.0396 -0.1736 -0.1707
C7A C -0.2345(4) -0.1720(3) -0.1577(2)
C8A C -0.3568(4) -0.1258(3) -0.1880(3)
H7A H -0.4317 -0.1458 -0.1659
C9A C -0.3678(4) -0.0490(3) -0.2519(3)
H8A H -0.4507 -0.0187 -0.2737
C10A C -0.2182(4) -0.2561(3) -0.0920(2)
C11A C 0.1484(5) 0.1113(3) -0.4900(3)
H9A H 0.1644 0.0444 -0.4671
H10A H 0.0700 0.1120 -0.5411
C12A C 0.2680(6) 0.1513(4) -0.5197(5)
H11A H 0.2461 0.1674 -0.5856
H12A H 0.3407 0.1036 -0.5086
C13B C -0.2122(4) -0.0646(3) 0.0867(2)
C14B C 0.3386(4) 0.1272(4) -0.1782(3)
H13B H 0.3498 0.0957 -0.2354
H14B H 0.3580 0.1969 -0.1815
C15B C 0.4294(4) 0.0803(4) -0.0939(3)
H15B H 0.4892 0.1287 -0.0580
H16B H 0.4831 0.0281 -0.1126
C16B C -0.1023(4) -0.0321(3) 0.0427(2)
C17B C -0.1222(4) 0.0491(3) -0.0177(2)
H17B H -0.2045 0.0819 -0.0296
C18B C -0.0208(4) 0.0807(3) -0.0595(2)
H18B H 0.0348 -0.1349 0.0992
O1A O 0.3889(3) 0.5804(2) -0.09485(19)
O2A O 0.3068(3) 0.2391(2) -0.4642(2)
O3B O 0.3371(3) 0.0414(2) -0.04037(17)
O4 O -0.2845(7) -0.8623(4) -0.8078(3)
O5 O -0.1150(4) -0.8036(4) -0.6905(4)
O6 O -0.3284(5) -0.7664(4) -0.6879(4)
O7 O -0.2616(7) -0.9224(4) -0.6617(3)
Cl1 Cl -0.24610(13) -0.83961(10) -0.71187(8)
loop_
_geom_bond_atom_site_label_1
_geom_bond_atom_site_label_2
_geom_bond_site_symmetry_1
_geom_bond_site_symmetry_2
Ag1 N1 1_555 1_555
N1 C1 1_555 1_555
N2 C10 1_555 1_555
N3 C13 1_555 1_555
C1 C4 1_555 1_555
C2 H1 1_555 1_555
H2 C2 1_555 1_555
C3 C2 1_555 1_555
H3 C3 1_555 1_555
H4 C3 1_555 1_555
C4 C5 1_555 1_555
C5 H5 1_555 1_555
C6 C5 1_555 1_555
H6 C6 1_555 1_555
C7 C6 1_555 1_555
C8 C7 1_555 1_555
H7 C8 1_555 1_555
C9 C4 1_555 1_555
H8 C9 1_555 1_555
C10 C7 1_555 1_555
C11 H9 1_555 1_555
H10 C11 1_555 1_555
C12 C11 1_555 1_555
H11 C12 1_555 1_555
H12 C12 1_555 1_555
C13 C16 1_555 1_555
C14 H13 1_555 1_555
H14 C14 1_555 1_555
C15 C14 1_555 1_555
H15 C15 1_555 1_555
H16 C15 1_555 1_555
C16 C17 1_555 1_555
C17 H17 1_555 1_555
C18 C17 1_555 1_555
H18 C18B 1_555 1_555
O1 C3 1_555 1_555
O2 C12 1_555 1_555
O3 C15 1_555 1_555
O4 Cl1 1_555 1_555
O5 Cl1 1_555 1_555
O6 Cl1 1_555 1_555
O7 Cl1 1_555 1_555
Ag1A N2 1_555 1_555
Ag1_2 N2A 1_555 1_555
Ag1C N3B 1_555 1_555
N1A C2 1_555 1_555
N2A C11 1_555 1_555
N2A_2 Ag1 1_555 1_555
N3A Ag1 1_555 1_555
N3B C14 1_555 1_555
C1A O1 1_555 1_555
C2A N1 1_555 1_555
H1A C2A 1_555 1_555
H2A C2A 1_555 1_555
C3A C2A 1_555 1_555
H3A C3A 1_555 1_555
H4A C3A 1_555 1_555
C4A C1A 1_555 1_555
C5A C4A 1_555 1_555
H5A C5A 1_555 1_555
C6A C5A 1_555 1_555
H6A C6A 1_555 1_555
C7A C6A 1_555 1_555
C8A C7A 1_555 1_555
H7A C8A 1_555 1_555
C9A C4A 1_555 1_555
H8A C9A 1_555 1_555
C10A O2 1_555 1_555
C11A N2 1_555 1_555
H9A C11A 1_555 1_555
H10A C11A 1_555 1_555
C12A C11A 1_555 1_555
H11A C12A 1_555 1_555
H12A C12A 1_555 1_555
C13B O3 1_555 1_555
C14B N3 1_555 1_555
H13B C14B 1_555 1_555
H14B C14B 1_555 1_555
C15B C14B 1_555 1_555
H15B C15B 1_555 1_555
H16B C15B 1_555 1_555
C16B C18 1_555 1_555
C17B C16B 1_555 1_555
H17B C17B 1_555 1_555
C18B C16 1_555 1_555
H18B C18 1_555 1_555
O1A C1 1_555 1_555
O2A C10 1_555 1_555
O3B C13 1_555 1_555
N3 Ag1A 1_555 1_555
C8 C9 1_555 1_555
Ag1A N1A 1_555 1_555
N1A C1A 1_555 1_555
N2A C10A 1_555 1_555
N3B C13B 1_555 1_555
C3A O1A 1_555 1_555
C7A C10A 1_555 1_555
C8A C9A 1_555 1_555
C12A O2A 1_555 1_555
C13B C16B 1_555 1_555
C15B O3B 1_555 1_555
C17B C18B 1_555 1_555

#END
