
#######################################################################
#
#                 Cambridge Crystallographic Data Centre
#                                CCDC 
#
#######################################################################
#
# If this CIF has been generated from an entry in the Cambridge 
# Structural Database, then it will include bibliographic, chemical, 
# crystal, experimental, refinement or atomic coordinate data resulting 
# from the CCDC's data processing and validation procedures.
#
#######################################################################

data_MIXQIU
_symmetry_cell_setting           monoclinic
_symmetry_space_group_name_H-M   'P 21/n'
_symmetry_Int_Tables_number      14
_space_group_name_Hall           '-P 2yn'
loop_
_symmetry_equiv_pos_site_id
_symmetry_equiv_pos_as_xyz
1 x,y,z
2 1/2-x,1/2+y,1/2-z
3 -x,-y,-z
4 1/2+x,1/2-y,1/2+z
_cell_length_a                   8.4727(4)
_cell_length_b                   14.4634(7)
_cell_length_c                   18.4388(10)
_cell_angle_alpha                90
_cell_angle_beta                 94.748(1)
_cell_angle_gamma                90
_cell_volume                     2251.81
loop_
_atom_site_label
_atom_site_type_symbol
_atom_site_fract_x
_atom_site_fract_y
_atom_site_fract_z
Co1 Co 0.5000 0.5000 0.0000
Co2 Co 1.0000 0.5000 0.5000
O1 O 0.58128(15) 0.57890(8) 0.08881(6)
O2 O 0.53644(18) 0.49555(8) 0.18690(7)
O3 O 0.97901(17) 0.71296(8) 0.42763(7)
O4 O 0.90573(15) 0.56688(8) 0.40518(6)
O5 O 0.82622(16) 0.39273(9) 0.48280(7)
H1 H 0.7465 0.4086 0.5050
H2 H 0.8873 0.3521 0.5032
O6 O 0.42101(14) 0.39625(8) 0.07057(6)
H3 H 0.4480 0.3399 0.0674
H4 H 0.4415 0.4226 0.1114
N1 N 0.72935(17) 0.43437(9) -0.00048(7)
N2 N 1.1076(2) 0.25511(10) 0.14243(8)
N3 N 1.1695(2) 0.24822(10) 0.21415(8)
N4 N 1.04073(16) 0.37830(9) 0.20011(7)
N5 N 0.9819(2) 0.46823(10) 0.20933(8)
H5 H 1.0597 0.5002 0.2343
H6 H 0.8974 0.4590 0.2349
N6 N 1.14462(18) 0.41833(9) 0.43700(7)
C1 C 0.9554(2) 0.36788(11) 0.06602(9)
C2 C 0.8045(2) 0.40438(11) 0.06160(9)
H7 H 0.7525 0.4083 0.1040
C3 C 0.8064(2) 0.42780(12) -0.06081(9)
H8 H 0.7552 0.4478 -0.1046
C4 C 0.9570(2) 0.39298(13) -0.06132(10)
H9 H 1.0062 0.3899 -0.1045
C5 C 1.0346(2) 0.36249(12) 0.00311(9)
H10 H 1.1370 0.3390 0.0043
C6 C 1.0328(2) 0.33361(11) 0.13509(9)
C7 C 1.1285(2) 0.32276(11) 0.24785(9)
C8 C 1.1825(2) 0.34519(11) 0.32338(9)
C9 C 1.0920(2) 0.39467(11) 0.36921(9)
H11 H 0.9901 0.4122 0.3520
C10 C 1.2910(2) 0.39242(12) 0.46162(10)
H12 H 1.3289 0.4092 0.5086
C11 C 1.3874(2) 0.34191(14) 0.42007(10)
H13 H 1.4882 0.3244 0.4389
C12 C 1.3327(2) 0.31762(13) 0.35035(10)
H14 H 1.3959 0.2830 0.3216
C13 C 0.5915(2) 0.56480(11) 0.15659(9)
C14 C 0.6791(2) 0.63652(11) 0.20301(9)
C15 C 0.7080(2) 0.72319(12) 0.17449(9)
H15 H 0.6693 0.7377 0.1272
C16 C 0.7939(2) 0.78780(12) 0.21616(9)
H16 H 0.8090 0.8467 0.1977
C17 C 0.8580(2) 0.76511(12) 0.28558(10)
H17 H 0.9187 0.8084 0.3128
C18 C 0.8324(2) 0.67860(11) 0.31486(8)
C19 C 0.7384(2) 0.61559(11) 0.27377(9)
H18 H 0.7149 0.5588 0.2939
C20 C 0.9115(2) 0.65172(11) 0.38847(9)
Co2_2 Co 0.0000 0.5000 -0.5000
O1B O 0.41872(15) 0.42110(8) -0.08881(6)
O2B O 0.46356(18) 0.50445(8) -0.18690(7)
O3B O 0.02099(17) 0.28704(8) -0.42763(7)
O4B O 0.09427(15) 0.43312(8) -0.40518(6)
O4B_2 O 1.09427(15) 0.43312(8) 0.59482(6)
O5B O 1.17378(16) 0.60727(9) 0.51720(7)
H1B H 1.2535 0.5914 0.4950
H2B H 1.1127 0.6479 0.4968
O6B O 0.57899(14) 0.60375(8) -0.07057(6)
H3B H 0.5520 0.6601 -0.0674
H4B H 0.5585 0.5774 -0.1114
N1B N 0.27065(17) 0.56563(9) 0.00048(7)
N2B N -0.1076(2) 0.74489(10) -0.14243(8)
N3B N -0.1695(2) 0.75178(10) -0.21415(8)
N4B N -0.04073(16) 0.62170(9) -0.20011(7)
N5B N 0.0181(2) 0.53177(10) -0.20933(8)
H5B H -0.0597 0.4998 -0.2343
H6B H 0.1026 0.5410 -0.2349
N6B N -0.14462(18) 0.58167(9) -0.43700(7)
N6B_2 N 0.85538(18) 0.58167(9) 0.56300(7)
C1B C 0.0446(2) 0.63212(11) -0.06602(9)
C2B C 0.1955(2) 0.59562(11) -0.06160(9)
H7B H 0.2475 0.5917 -0.1040
C3B C 0.1936(2) 0.57220(12) 0.06081(9)
H8B H 0.2448 0.5522 0.1046
C4B C 0.0430(2) 0.60702(13) 0.06132(10)
H9B H -0.0062 0.6101 0.1045
C5B C -0.0346(2) 0.63751(12) -0.00311(9)
H10B H -0.1370 0.6610 -0.0043
C6B C -0.0328(2) 0.66639(11) -0.13509(9)
C7B C -0.1285(2) 0.67724(11) -0.24785(9)
C8B C -0.1825(2) 0.65481(11) -0.32338(9)
C9B C -0.0920(2) 0.60533(11) -0.36921(9)
H11B H 0.0099 0.5878 -0.3520
C10B C -0.2910(2) 0.60758(12) -0.46162(10)
H12B H -0.3289 0.5908 -0.5086
C11B C -0.3874(2) 0.65809(14) -0.42007(10)
H13B H -0.4882 0.6756 -0.4389
C12B C -0.3327(2) 0.68238(13) -0.35035(10)
H14B H -0.3959 0.7170 -0.3216
C13B C 0.4085(2) 0.43520(11) -0.15659(9)
C14B C 0.3209(2) 0.36348(11) -0.20301(9)
C15B C 0.2920(2) 0.27681(12) -0.17449(9)
H15B H 0.3307 0.2623 -0.1272
C16B C 0.2061(2) 0.21220(12) -0.21616(9)
H16B H 0.1910 0.1533 -0.1977
C17B C 0.1420(2) 0.23489(12) -0.28558(10)
H17B H 0.0813 0.1916 -0.3128
C18B C 0.1676(2) 0.32140(11) -0.31486(8)
C19B C 0.2616(2) 0.38441(11) -0.27377(9)
H18B H 0.2851 0.4412 -0.2939
C20B C 0.0885(2) 0.34828(11) -0.38847(9)
O7 O 0.09353(19) 0.08411(10) 0.07642(8)
H19 H 0.1060 0.1405 0.0885
H20 H 0.1294 0.0437 0.1070
O8 O 0.2792(2) 0.55305(10) 0.26637(8)
H21 H 0.2710 0.6115 0.2630
H22 H 0.3572 0.5281 0.2477
loop_
_geom_bond_atom_site_label_1
_geom_bond_atom_site_label_2
_geom_bond_site_symmetry_1
_geom_bond_site_symmetry_2
Co1 O1 1_555 1_555
Co2 O4 1_555 1_555
O1 C13 1_555 1_555
O2 C13 1_555 1_555
O3 C20 1_555 1_555
O4 C20 1_555 1_555
O5 Co2 1_555 1_555
H1 O5 1_555 1_555
H2 O5 1_555 1_555
O6 Co1 1_555 1_555
H3 O6 1_555 1_555
H4 O6 1_555 1_555
N1 Co1 1_555 1_555
N2 N3 1_555 1_555
N3 C7 1_555 1_555
N4 N5 1_555 1_555
N5 H5 1_555 1_555
H6 N5 1_555 1_555
N6 Co2 1_555 1_555
C1 C2 1_555 1_555
C2 N1 1_555 1_555
H7 C2 1_555 1_555
C3 N1 1_555 1_555
H8 C3 1_555 1_555
C4 C3 1_555 1_555
H9 C4 1_555 1_555
C5 C1 1_555 1_555
H10 C5 1_555 1_555
C6 N2 1_555 1_555
C7 N4 1_555 1_555
C8 C7 1_555 1_555
C9 N6 1_555 1_555
H11 C9 1_555 1_555
C10 N6 1_555 1_555
H12 C10 1_555 1_555
C11 C10 1_555 1_555
H13 C11 1_555 1_555
C12 C8 1_555 1_555
H14 C12 1_555 1_555
C13 C14 1_555 1_555
C14 C15 1_555 1_555
C15 H15 1_555 1_555
C16 C15 1_555 1_555
H16 C16 1_555 1_555
C17 C16 1_555 1_555
H17 C17 1_555 1_555
C18 C17 1_555 1_555
C19 C14 1_555 1_555
H18 C19 1_555 1_555
C20 C18 1_555 1_555
O7 H19 1_555 1_555
H20 O7 1_555 1_555
O8 H21 1_555 1_555
H22 O8 1_555 1_555
Co2_2 O4B 1_555 1_555
O1B Co1 1_555 1_555
O2B C13B 1_555 1_555
O3B C20B 1_555 1_555
O4B C20B 1_555 1_555
O4B_2 Co2 1_555 1_555
O5B Co2 1_555 1_555
H1B O5B 1_555 1_555
H2B O5B 1_555 1_555
O6B Co1 1_555 1_555
H3B O6B 1_555 1_555
H4B O6B 1_555 1_555
N1B Co1 1_555 1_555
N2B N3B 1_555 1_555
N3B C7B 1_555 1_555
N4B N5B 1_555 1_555
N5B H5B 1_555 1_555
H6B N5B 1_555 1_555
N6B Co2_2 1_555 1_555
N6B_2 Co2 1_555 1_555
C1B C2B 1_555 1_555
C2B N1B 1_555 1_555
H7B C2B 1_555 1_555
C3B N1B 1_555 1_555
H8B C3B 1_555 1_555
C4B C3B 1_555 1_555
H9B C4B 1_555 1_555
C5B C1B 1_555 1_555
H10B C5B 1_555 1_555
C6B N2B 1_555 1_555
C7B N4B 1_555 1_555
C8B C7B 1_555 1_555
C9B N6B 1_555 1_555
H11B C9B 1_555 1_555
C10B N6B 1_555 1_555
H12B C10B 1_555 1_555
C11B C10B 1_555 1_555
H13B C11B 1_555 1_555
C12B C8B 1_555 1_555
H14B C12B 1_555 1_555
C13B O1B 1_555 1_555
C14B C13B 1_555 1_555
C15B C14B 1_555 1_555
H15B C15B 1_555 1_555
C16B C15B 1_555 1_555
H16B C16B 1_555 1_555
C17B C16B 1_555 1_555
H17B C17B 1_555 1_555
C18B C17B 1_555 1_555
C19B C14B 1_555 1_555
H18B C19B 1_555 1_555
C20B C18B 1_555 1_555
N4 C6 1_555 1_555
C1 C6 1_555 1_555
C4 C5 1_555 1_555
C8 C9 1_555 1_555
C11 C12 1_555 1_555
C18 C19 1_555 1_555
N4B C6B 1_555 1_555
C1B C6B 1_555 1_555
C4B C5B 1_555 1_555
C8B C9B 1_555 1_555
C11B C12B 1_555 1_555
C18B C19B 1_555 1_555

#END
