
#######################################################################
#
#                 Cambridge Crystallographic Data Centre
#                                CCDC 
#
#######################################################################
#
# If this CIF has been generated from an entry in the Cambridge 
# Structural Database, then it will include bibliographic, chemical, 
# crystal, experimental, refinement or atomic coordinate data resulting 
# from the CCDC's data processing and validation procedures.
#
#######################################################################

data_MIXQIU01
_symmetry_cell_setting           monoclinic
_symmetry_space_group_name_H-M   'P 21/c'
_symmetry_Int_Tables_number      14
_space_group_name_Hall           '-P 2ybc'
loop_
_symmetry_equiv_pos_site_id
_symmetry_equiv_pos_as_xyz
1 x,y,z
2 -x,1/2+y,1/2-z
3 -x,-y,-z
4 x,1/2-y,1/2+z
_cell_length_a                   8.462(7)
_cell_length_b                   14.457(12)
_cell_length_c                   19.669(15)
_cell_angle_alpha                90.00
_cell_angle_beta                 110.76(3)
_cell_angle_gamma                90.00
_cell_volume                     2249.98
loop_
_atom_site_label
_atom_site_type_symbol
_atom_site_fract_x
_atom_site_fract_y
_atom_site_fract_z
Co1 Co 1.0000 0.5000 0.5000
Co2 Co 1.0000 0.5000 0.0000
O1 O 1.1501(4) 0.49537(18) 0.1865(2)
O3 O 1.0078(4) 0.57885(18) 0.08877(18)
O5 O 0.9484(4) 0.71335(18) 0.42740(18)
O6 O 0.9997(3) 0.56719(17) 0.40547(17)
O7 O 1.1485(3) 0.39629(17) 0.07074(17)
O8 O 0.8441(3) 0.60699(18) 0.51610(18)
N1 N 0.7913(4) 0.4180(2) 0.4367(2)
N2 N 0.6586(3) 0.37859(19) 0.19981(19)
N3 N 0.5436(5) 0.2480(2) 0.2143(2)
N4 N 0.5330(5) 0.2553(2) 0.1424(2)
N5 N 0.7253(5) 0.4685(2) 0.2099(2)
H1 H 0.7322 0.4991 0.1736
H2 H 0.7594 0.4931 0.2525
N6 N 0.7698(4) 0.4346(2) -0.0004(2)
C1 C 0.6700(5) 0.3923(3) 0.4617(3)
H3 H 0.6789 0.4092 0.5085
C2 C 0.5322(5) 0.3412(3) 0.4197(3)
H4 H 0.4504 0.3230 0.4385
C3 C 0.5169(5) 0.3175(3) 0.3505(3)
H5 H 0.4246 0.2830 0.3219
C4 C 0.6390(4) 0.3450(2) 0.3232(2)
C5 C 0.7761(4) 0.3952(2) 0.3694(2)
H6 H 0.8604 0.4134 0.3521
C6 C 0.6181(4) 0.3237(2) 0.2483(2)
C7 C 0.6020(4) 0.3344(2) 0.1348(2)
C8 C 0.6098(4) 0.3682(2) 0.0665(2)
C9 C 0.4690(5) 0.3625(3) 0.0037(2)
H7 H 0.3679 0.3387 0.0048
C10 C 0.4814(5) 0.3925(3) -0.0607(3)
H8 H 0.3884 0.3891 -0.1037
C11 C 0.6321(5) 0.4278(3) -0.0608(3)
H9 H 0.6389 0.4478 -0.1047
C12 C 0.7570(4) 0.4051(2) 0.0615(3)
H10 H 0.8517 0.4093 0.1037
C13 C 0.9672(5) 0.7235(3) 0.1743(2)
H11 H 0.9588 0.7380 0.1271
C14 C 0.9236(5) 0.7882(2) 0.2166(3)
H12 H 0.8907 0.8473 0.1983
C15 C 0.9285(5) 0.7656(3) 0.2857(3)
H13 H 0.8954 0.8092 0.3128
C16 C 0.9824(4) 0.6787(2) 0.3151(2)
C17 C 1.0347(4) 0.6158(2) 0.2733(2)
H14 H 1.0779 0.5588 0.2933
C18 C 1.0238(4) 0.6363(2) 0.2032(2)
C19 C 1.0645(5) 0.5649(2) 0.1562(2)
C20 C 0.9777(4) 0.6518(2) 0.3882(2)
Co2_2 Co 1.0000 0.5000 1.0000
O1B O 0.8499(4) 0.50463(18) 0.8135(2)
O3B O 0.9922(4) 0.42115(18) 0.91123(18)
O3B_2 O 0.9922(4) 0.42115(18) -0.08877(18)
O5B O 1.0516(4) 0.28665(18) 0.57260(18)
O6B O 1.0003(3) 0.43281(17) 0.59453(17)
O7B O 0.8515(3) 0.60371(17) -0.07074(17)
O8B O 1.1559(3) 0.39301(18) 0.48390(18)
N1B N 1.2087(4) 0.5820(2) 0.5633(2)
N2B N 1.3414(3) 0.62141(19) 0.80019(19)
N3B N 1.4564(5) 0.7520(2) 0.7857(2)
N4B N 1.4670(5) 0.7447(2) 0.8576(2)
N5B N 1.2747(5) 0.5315(2) 0.7901(2)
H1B H 1.2678 0.5009 0.8264
H2B H 1.2406 0.5069 0.7475
N6B N 1.2302(4) 0.5654(2) 1.0004(2)
N6B_2 N 1.2302(4) 0.5654(2) 0.0004(2)
C1B C 1.3300(5) 0.6077(3) 0.5383(3)
H3B H 1.3211 0.5908 0.4915
C2B C 1.4678(5) 0.6588(3) 0.5803(3)
H4B H 1.5496 0.6770 0.5615
C3B C 1.4831(5) 0.6825(3) 0.6495(3)
H5B H 1.5754 0.7170 0.6781
C4B C 1.3610(4) 0.6550(2) 0.6768(2)
C5B C 1.2239(4) 0.6048(2) 0.6306(2)
H6B H 1.1396 0.5866 0.6479
C6B C 1.3819(4) 0.6763(2) 0.7517(2)
C7B C 1.3980(4) 0.6656(2) 0.8652(2)
C8B C 1.3902(4) 0.6318(2) 0.9335(2)
C9B C 1.5310(5) 0.6375(3) 0.9963(2)
H7B H 1.6321 0.6613 0.9952
C10B C 1.5186(5) 0.6075(3) 1.0607(3)
H8B H 1.6116 0.6109 1.1037
C11B C 1.3679(5) 0.5722(3) 1.0608(3)
H9B H 1.3611 0.5522 1.1047
C12B C 1.2430(4) 0.5949(2) 0.9385(3)
H10B H 1.1483 0.5907 0.8963
C13B C 1.0328(5) 0.2765(3) 0.8257(2)
H11B H 1.0412 0.2620 0.8729
C14B C 1.0764(5) 0.2118(2) 0.7834(3)
H12B H 1.1093 0.1527 0.8017
C15B C 1.0715(5) 0.2344(3) 0.7143(3)
H13B H 1.1046 0.1908 0.6872
C16B C 1.0176(4) 0.3213(2) 0.6849(2)
C17B C 0.9653(4) 0.3842(2) 0.7267(2)
H14B H 0.9221 0.4412 0.7067
C18B C 0.9762(4) 0.3637(2) 0.7968(2)
C19B C 0.9355(5) 0.4351(2) 0.8438(2)
C20B C 1.0223(4) 0.3482(2) 0.6118(2)
O2 O 0.5154(4) 0.0536(2) 0.2348(2)
O4 O 0.4816(4) 0.0843(2) 0.0772(2)
loop_
_geom_bond_atom_site_label_1
_geom_bond_atom_site_label_2
_geom_bond_site_symmetry_1
_geom_bond_site_symmetry_2
Co1 O6 1_555 1_555
Co2 O3 1_555 1_555
O1 C19 1_555 1_555
O3 C19 1_555 1_555
O5 C20 1_555 1_555
O6 C20 1_555 1_555
O7 Co2 1_555 1_555
O8 Co1 1_555 1_555
N1 Co1 1_555 1_555
N2 N5 1_555 1_555
N3 N4 1_555 1_555
N4 C7 1_555 1_555
N5 H1 1_555 1_555
H2 N5 1_555 1_555
N6 Co2 1_555 1_555
C1 N1 1_555 1_555
H3 C1 1_555 1_555
C2 C1 1_555 1_555
H4 C2 1_555 1_555
C3 C2 1_555 1_555
H5 C3 1_555 1_555
C4 C3 1_555 1_555
C5 N1 1_555 1_555
H6 C5 1_555 1_555
C6 N2 1_555 1_555
C7 N2 1_555 1_555
C8 C7 1_555 1_555
C9 C8 1_555 1_555
H7 C9 1_555 1_555
C10 C9 1_555 1_555
H8 C10 1_555 1_555
C11 N6 1_555 1_555
H9 C11 1_555 1_555
C12 N6 1_555 1_555
H10 C12 1_555 1_555
C13 H11 1_555 1_555
C14 C13 1_555 1_555
H12 C14 1_555 1_555
C15 C14 1_555 1_555
H13 C15 1_555 1_555
C16 C15 1_555 1_555
C17 C16 1_555 1_555
H14 C17 1_555 1_555
C18 C13 1_555 1_555
C19 C18 1_555 1_555
C20 C16 1_555 1_555
Co2_2 O3B 1_555 1_555
O1B C19B 1_555 1_555
O3B C19B 1_555 1_555
O3B_2 Co2 1_555 1_555
O5B C20B 1_555 1_555
O6B Co1 1_555 1_555
O7B Co2 1_555 1_555
O8B Co1 1_555 1_555
N1B Co1 1_555 1_555
N2B N5B 1_555 1_555
N3B N4B 1_555 1_555
N4B C7B 1_555 1_555
N5B H1B 1_555 1_555
H2B N5B 1_555 1_555
N6B Co2_2 1_555 1_555
N6B_2 Co2 1_555 1_555
C1B N1B 1_555 1_555
H3B C1B 1_555 1_555
C2B C1B 1_555 1_555
H4B C2B 1_555 1_555
C3B C2B 1_555 1_555
H5B C3B 1_555 1_555
C4B C3B 1_555 1_555
C5B N1B 1_555 1_555
H6B C5B 1_555 1_555
C6B N2B 1_555 1_555
C7B N2B 1_555 1_555
C8B C7B 1_555 1_555
C9B C8B 1_555 1_555
H7B C9B 1_555 1_555
C10B C9B 1_555 1_555
H8B C10B 1_555 1_555
C11B N6B 1_555 1_555
H9B C11B 1_555 1_555
C12B N6B 1_555 1_555
H10B C12B 1_555 1_555
C13B H11B 1_555 1_555
C14B C13B 1_555 1_555
H12B C14B 1_555 1_555
C15B C14B 1_555 1_555
H13B C15B 1_555 1_555
C16B C15B 1_555 1_555
C17B C16B 1_555 1_555
H14B C17B 1_555 1_555
C18B C13B 1_555 1_555
C19B C18B 1_555 1_555
C20B O6B 1_555 1_555
N3 C6 1_555 1_555
C4 C5 1_555 1_555
C4 C6 1_555 1_555
C8 C12 1_555 1_555
C10 C11 1_555 1_555
C17 C18 1_555 1_555
N3B C6B 1_555 1_555
C4B C5B 1_555 1_555
C4B C6B 1_555 1_555
C8B C12B 1_555 1_555
C10B C11B 1_555 1_555
C16B C20B 1_555 1_555
C17B C18B 1_555 1_555

#END
