
#######################################################################
#
#                 Cambridge Crystallographic Data Centre
#                                CCDC 
#
#######################################################################
#
# If this CIF has been generated from an entry in the Cambridge 
# Structural Database, then it will include bibliographic, chemical, 
# crystal, experimental, refinement or atomic coordinate data resulting 
# from the CCDC's data processing and validation procedures.
#
#######################################################################

data_MIXRUH
_symmetry_cell_setting           triclinic
_symmetry_space_group_name_H-M   'P -1'
_symmetry_Int_Tables_number      2
_space_group_name_Hall           '-P 1'
loop_
_symmetry_equiv_pos_site_id
_symmetry_equiv_pos_as_xyz
1 x,y,z
2 -x,-y,-z
_cell_length_a                   9.1396(16)
_cell_length_b                   13.754(2)
_cell_length_c                   18.779(3)
_cell_angle_alpha                78.625(2)
_cell_angle_beta                 87.997(2)
_cell_angle_gamma                84.394(1)
_cell_volume                     2302.9
loop_
_atom_site_label
_atom_site_type_symbol
_atom_site_fract_x
_atom_site_fract_y
_atom_site_fract_z
Cd1 Cd -0.00846(3) 0.73796(3) 0.269617(17)
Cd2 Cd 0.05964(4) 0.81398(3) -0.219402(17)
O1 O -0.1336(4) 0.5113(3) 0.22201(17)
O2 O -0.0503(4) 0.6578(2) 0.17464(16)
O3 O -0.4311(5) 0.3760(3) 0.0517(2)
O4 O -0.3531(6) 0.3899(4) -0.0568(2)
O5 O -0.0113(4) 0.7735(3) -0.08635(18)
O6 O -0.0866(4) 0.6892(3) -0.16270(17)
O7 O 0.1518(4) 0.9148(3) 0.67944(17)
O8 O 0.0019(4) 0.8135(3) 0.65152(18)
O9 O 0.4123(5) 1.1306(3) 0.4932(2)
O10 O 0.4178(5) 1.1109(3) 0.3828(2)
O11 O 0.0992(4) 0.8820(2) 0.30518(16)
O12 O -0.0065(4) 0.7766(3) 0.39091(18)
O13 O -0.0614(4) 0.5837(3) 0.33905(18)
H1 H -0.0777 0.5488 0.3081
H2 H -0.1331 0.5971 0.3671
O14 O 0.0312(4) 0.8552(3) 0.15556(19)
H3 H 0.0777 0.9105 0.1658
H4 H -0.0620 0.8788 0.1334
O15 O -0.1148(4) 0.9472(3) -0.2137(2)
H5 H -0.2022 0.9383 -0.2377
H6 H -0.1377 0.9496 -0.1637
O16 O 0.2160(4) 0.6770(2) -0.23138(19)
H7 H 0.3087 0.6742 -0.2378
H8 H 0.1750 0.6242 -0.2318
N1 N 0.2329(4) 0.6724(3) 0.27605(19)
N2 N 0.6573(5) 0.5541(4) 0.4249(2)
N3 N 0.7035(5) 0.5557(4) 0.4948(2)
N4 N 0.4945(4) 0.6473(3) 0.4751(2)
N5 N 0.3741(4) 0.7184(3) 0.4795(2)
H9 H 0.3118 0.6828 0.5098
H10 H 0.4137 0.7585 0.5046
N6 N 0.4977(5) 0.6579(3) 0.7091(2)
N7 N -0.2491(4) 0.8092(3) 0.26458(19)
N8 N -0.6666(4) 0.9384(3) 0.1127(2)
N9 N -0.7008(4) 0.9426(3) 0.0402(2)
N10 N -0.5017(4) 0.8418(3) 0.06655(19)
N11 N -0.3930(4) 0.7613(3) 0.0649(2)
H11 H -0.3086 0.7853 0.0484
H12 H -0.4217 0.7238 0.0354
N12 N -0.7310(4) 0.8597(3) -0.1660(2)
N13 N -0.3537(5) 0.4131(3) 0.0019(2)
N14 N 0.3730(5) 1.0907(3) 0.4456(3)
C1 C 0.4530(5) 0.6246(3) 0.3459(2)
C2 C 0.3050(5) 0.6592(3) 0.3387(3)
H13 H 0.2535 0.6739 0.3794
C3 C 0.3061(5) 0.6469(4) 0.2189(3)
H14 H 0.2567 0.6545 0.1754
C4 C 0.4522(5) 0.6097(4) 0.2215(3)
H15 H 0.4992 0.5920 0.1805
C5 C 0.5277(5) 0.5989(4) 0.2850(3)
H16 H 0.6265 0.5750 0.2874
C6 C 0.5326(5) 0.6100(4) 0.4143(2)
C7 C 0.6035(5) 0.6120(4) 0.5243(3)
C8 C 0.6130(5) 0.6293(4) 0.5980(3)
C9 C 0.4894(5) 0.6464(4) 0.6416(3)
H17 H 0.3968 0.6498 0.6218
C10 C 0.6312(6) 0.6512(4) 0.7378(3)
H18 H 0.6373 0.6599 0.7855
C11 C 0.7603(6) 0.6319(5) 0.7005(3)
H19 H 0.8509 0.6264 0.7228
C12 C 0.7510(6) 0.6211(5) 0.6293(3)
H20 H 0.8358 0.6085 0.6025
C13 C -0.4689(5) 0.8591(3) 0.1962(2)
C14 C -0.3220(5) 0.8239(4) 0.2029(2)
H21 H -0.2713 0.8098 0.1618
C15 C -0.3218(5) 0.8313(4) 0.3235(3)
H22 H -0.2715 0.8222 0.3669
C16 C -0.4678(5) 0.8667(4) 0.3223(3)
H23 H -0.5154 0.8810 0.3641
C17 C -0.5427(5) 0.8808(4) 0.2578(3)
H24 H -0.6416 0.9046 0.2557
C18 C -0.5473(5) 0.8775(3) 0.1270(2)
C19 C -0.5996(5) 0.8839(3) 0.0134(2)
C20 C -0.5936(5) 0.8707(3) -0.0619(2)
C21 C -0.7242(5) 0.8677(4) -0.0965(2)
H25 H -0.8117 0.8715 -0.0699
C22 C -0.6046(5) 0.8560(4) -0.2038(3)
H26 H -0.6076 0.8528 -0.2527
C23 C -0.4701(5) 0.8567(4) -0.1733(3)
H27 H -0.3842 0.8534 -0.2012
C24 C -0.4645(5) 0.8623(4) -0.1017(3)
H28 H -0.3742 0.8605 -0.0798
C25 C -0.1045(5) 0.5794(3) 0.1703(2)
C26 C -0.1420(5) 0.5677(3) 0.0942(2)
C27 C -0.2310(5) 0.4961(3) 0.0834(2)
H29 H -0.2704 0.4535 0.1225
C28 C -0.2597(5) 0.4898(3) 0.0128(2)
C29 C -0.2097(5) 0.5533(3) -0.0470(2)
H30 H -0.2315 0.5464 -0.0937
C30 C -0.1263(4) 0.6278(3) -0.0363(2)
C31 C -0.0707(5) 0.7021(4) -0.0996(2)
C32 C -0.0901(5) 0.6332(3) 0.0348(2)
H31 H -0.0307 0.6813 0.0422
C33 C 0.0922(5) 0.8766(4) 0.6344(2)
C34 C 0.1352(5) 0.9095(3) 0.5552(2)
C35 C 0.0789(5) 0.8684(3) 0.5011(2)
H32 H 0.0141 0.8195 0.5133
C36 C 0.1199(5) 0.9008(3) 0.4281(2)
C37 C 0.0655(5) 0.8506(3) 0.3705(3)
C38 C 0.2138(5) 0.9752(3) 0.4095(2)
H33 H 0.2394 0.9984 0.3612
C39 C 0.2686(5) 1.0139(3) 0.4645(2)
C40 C 0.2320(5) 0.9827(3) 0.5364(2)
H34 H 0.2716 1.0101 0.5721
Cd2_2 Cd 0.05964(4) 0.81398(3) 0.780598(17)
Cd2_3 Cd -0.94036(4) 0.81398(3) -0.219402(17)
O7_2 O 0.1518(4) 0.9148(3) -0.32056(17)
O8_2 O 0.0019(4) 0.8135(3) -0.34848(18)
N12_2 N 0.2690(4) 0.8597(3) -0.1660(2)
O17 O 0.8737(4) 0.8776(3) 0.02183(19)
H35 H 0.8474 0.9389 0.0056
H36 H 0.9087 0.8433 -0.0089
O18 O 0.1396(7) 0.6408(5) 0.5895(4)
O19? O 0.0153(16) 0.5457(14) 0.4889(7)
O20? O 0.0937(14) 0.6175(8) 0.5120(7)
loop_
_geom_bond_atom_site_label_1
_geom_bond_atom_site_label_2
_geom_bond_site_symmetry_1
_geom_bond_site_symmetry_2
Cd1 O2 1_555 1_555
Cd2 O5 1_555 1_555
O1 C25 1_555 1_555
O2 C25 1_555 1_555
O3 N13 1_555 1_555
O4 N13 1_555 1_555
O5 C31 1_555 1_555
O6 Cd2 1_555 1_555
O7 C33 1_555 1_555
O8 C33 1_555 1_555
O9 N14 1_555 1_555
O10 N14 1_555 1_555
O11 Cd1 1_555 1_555
O12 Cd1 1_555 1_555
O13 Cd1 1_555 1_555
H1 O13 1_555 1_555
H2 O13 1_555 1_555
O14 Cd1 1_555 1_555
H3 O14 1_555 1_555
H4 O14 1_555 1_555
O15 Cd2 1_555 1_555
H5 O15 1_555 1_555
H6 O15 1_555 1_555
O16 Cd2 1_555 1_555
H7 O16 1_555 1_555
H8 O16 1_555 1_555
N1 Cd1 1_555 1_555
N2 N3 1_555 1_555
N3 C7 1_555 1_555
N4 N5 1_555 1_555
N5 H9 1_555 1_555
H10 N5 1_555 1_555
N6 C9 1_555 1_555
N7 Cd1 1_555 1_555
N8 N9 1_555 1_555
N9 C19 1_555 1_555
N10 N11 1_555 1_555
N11 H11 1_555 1_555
H12 N11 1_555 1_555
N12 C21 1_555 1_555
N13 C28 1_555 1_555
N14 C39 1_555 1_555
C1 C2 1_555 1_555
C2 N1 1_555 1_555
H13 C2 1_555 1_555
C3 N1 1_555 1_555
H14 C3 1_555 1_555
C4 C3 1_555 1_555
H15 C4 1_555 1_555
C5 C1 1_555 1_555
H16 C5 1_555 1_555
C6 N2 1_555 1_555
C7 N4 1_555 1_555
C8 C7 1_555 1_555
C9 C8 1_555 1_555
H17 C9 1_555 1_555
C10 N6 1_555 1_555
H18 C10 1_555 1_555
C11 C10 1_555 1_555
H19 C11 1_555 1_555
C12 C8 1_555 1_555
H20 C12 1_555 1_555
C13 C14 1_555 1_555
C14 N7 1_555 1_555
H21 C14 1_555 1_555
C15 N7 1_555 1_555
H22 C15 1_555 1_555
C16 C15 1_555 1_555
H23 C16 1_555 1_555
C17 C13 1_555 1_555
H24 C17 1_555 1_555
C18 N8 1_555 1_555
C19 N10 1_555 1_555
C20 C19 1_555 1_555
C21 C20 1_555 1_555
H25 C21 1_555 1_555
C22 N12 1_555 1_555
H26 C22 1_555 1_555
C23 C22 1_555 1_555
H27 C23 1_555 1_555
C24 C20 1_555 1_555
H28 C24 1_555 1_555
C25 C26 1_555 1_555
C26 C27 1_555 1_555
C27 H29 1_555 1_555
C28 C27 1_555 1_555
C29 C28 1_555 1_555
H30 C29 1_555 1_555
C30 C29 1_555 1_555
C31 O6 1_555 1_555
C32 C26 1_555 1_555
H31 C32 1_555 1_555
C33 C34 1_555 1_555
C34 C35 1_555 1_555
C35 H32 1_555 1_555
C36 C35 1_555 1_555
C37 O11 1_555 1_555
C38 C36 1_555 1_555
H33 C38 1_555 1_555
C39 C38 1_555 1_555
C40 C34 1_555 1_555
H34 C40 1_555 1_555
O17 H35 1_555 1_555
H36 O17 1_555 1_555
Cd2_2 O7 1_555 1_555
Cd2_3 N12 1_555 1_555
O7_2 Cd2 1_555 1_555
O8_2 Cd2 1_555 1_555
N12_2 Cd2 1_555 1_555
O8 Cd2_2 1_555 1_555
O12 C37 1_555 1_555
N4 C6 1_555 1_555
N10 C18 1_555 1_555
C1 C6 1_555 1_555
C4 C5 1_555 1_555
C11 C12 1_555 1_555
C13 C18 1_555 1_555
C16 C17 1_555 1_555
C23 C24 1_555 1_555
C30 C31 1_555 1_555
C30 C32 1_555 1_555
C36 C37 1_555 1_555
C39 C40 1_555 1_555

#END
