
#######################################################################
#
#                 Cambridge Crystallographic Data Centre
#                                CCDC 
#
#######################################################################
#
# If this CIF has been generated from an entry in the Cambridge 
# Structural Database, then it will include bibliographic, chemical, 
# crystal, experimental, refinement or atomic coordinate data resulting 
# from the CCDC's data processing and validation procedures.
#
#######################################################################

data_MIXSOC
_symmetry_cell_setting           monoclinic
_symmetry_space_group_name_H-M   'C 2/c'
_symmetry_Int_Tables_number      15
_space_group_name_Hall           '-C 2yn'
loop_
_symmetry_equiv_pos_site_id
_symmetry_equiv_pos_as_xyz
1 x,y,z
2 1/2+x,1/2+y,z
3 -x,y,1/2-z
4 1/2-x,1/2+y,1/2-z
5 -x,-y,-z
6 1/2-x,1/2-y,-z
7 x,-y,1/2+z
8 1/2+x,1/2-y,1/2+z
_cell_length_a                   18.881(5)
_cell_length_b                   14.216(4)
_cell_length_c                   30.413(8)
_cell_angle_alpha                90
_cell_angle_beta                 104.350(4)
_cell_angle_gamma                90
_cell_volume                     7908.53
loop_
_atom_site_label
_atom_site_type_symbol
_atom_site_fract_x
_atom_site_fract_y
_atom_site_fract_z
Zn1 Zn 0.205809(19) 0.92089(3) -0.059431(12)
N1 N 0.14865(13) 0.88411(18) -0.01023(8)
O1 O 0.18197(12) 0.11184(17) -0.16995(8)
C1 C 0.1505(2) 1.2201(3) -0.04325(13)
H1 H 0.1581 1.2778 -0.0557
Zn2 Zn 0.29050(2) 0.18857(3) -0.185413(12)
N2 N 0.16721(13) 1.05483(18) -0.04165(8)
O2 O 0.31544(11) 1.01351(16) -0.07605(7)
C2 C 0.41535(17) 0.1716(3) -0.28540(11)
O3 O 0.23843(13) 0.80905(16) -0.14305(8)
N3 N 0.02758(15) 1.0153(2) 0.09710(9)
C3 C 0.04788(19) 0.1241(3) -0.27726(12)
H2 H 0.0801 0.1241 -0.2960
O4 O 0.15946(13) 0.9498(2) -0.12722(8)
N4 N 0.03901(15) 1.1946(2) 0.06033(9)
C4 C 0.02631(19) 0.1222(3) -0.20364(11)
H3 H 0.0437 0.1184 -0.1723
O5 O 0.26845(14) 0.30601(16) -0.09856(8)
N5 N 0.35538(14) 0.2281(2) -0.22914(9)
C5 C 0.37846(16) 0.1568(2) -0.25162(10)
O6 O 0.34267(14) 0.1646(2) -0.12004(9)
N6 N 0.32717(13) 0.05379(18) -0.20583(8)
C6 C 0.00270(19) 1.0927(3) 0.11237(12)
H4 H -0.0195 1.0878 0.1364
N7 N 0.47544(18) 0.1079(3) -0.33928(11)
O7 O 0.27723(13) 0.32623(15) -0.16981(7)
C7 C 0.33074(19) -0.1123(2) -0.21342(13)
H5 H 0.3190 -0.1712 -0.2040
N8 N 0.44174(18) -0.0762(3) -0.31639(11)
O8 O 0.19312(12) 0.17478(16) -0.23362(9)
C8 C 0.38427(17) -0.0154(3) -0.26030(11)
O9 O 0.20632(12) 0.78358(15) -0.07869(7)
C9 C 0.10229(16) 1.1287(2) 0.00828(10)
O10 O 0.30914(11) 0.92305(15) -0.01931(7)
C10 C 0.0085(2) 1.1804(3) 0.09401(13)
H6 H -0.0102 1.2320 0.1062
C11 C 0.05933(16) 1.0284(2) 0.06248(10)
C12 C 0.12093(15) 0.9573(2) 0.00867(10)
C13 C 0.26243(16) 0.6179(2) -0.15418(10)
H7 H 0.2748 0.6594 -0.1747
C14 C 0.06573(16) 1.1169(2) 0.04441(11)
C15 C 0.36301(16) 0.0617(2) -0.23880(10)
C16 C 0.23461(15) 0.6526(2) -0.11894(10)
C17 C 0.22601(16) 0.7560(2) -0.11345(11)
C18 C 0.15485(19) 0.1369(2) -0.21003(13)
C19 C 0.31212(18) -0.0319(2) -0.19335(11)
H8 H 0.2881 -0.0381 -0.1702
C20 C 0.25427(16) 0.4592(2) -0.12864(10)
C21 C 0.27171(17) 0.5224(2) -0.15886(10)
H9 H 0.2899 0.5003 -0.1827
C22 C 0.46207(16) 0.9305(2) 0.01587(10)
H10 H 0.4368 0.8837 0.0270
C23 C 0.46358(16) 1.0594(2) -0.03368(10)
H11 H 0.4393 1.1003 -0.0563
C24 C 0.17668(19) 1.1390(2) -0.05818(12)
H12 H 0.2020 1.1433 -0.0807
C25 C 0.14289(17) 0.7987(2) 0.00623(11)
H13 H 0.1617 0.7479 -0.0065
C26 C 0.21586(17) 0.5887(2) -0.08907(10)
H14 H 0.1961 0.6103 -0.0658
C27 C 0.13037(15) 1.0500(2) -0.00880(10)
C28 C 0.36940(19) 0.3157(3) -0.23991(12)
H15 H 0.3539 0.3652 -0.2246
C29 C 0.26692(17) 0.3556(2) -0.13250(12)
C30 C 0.07504(18) 0.1260(2) -0.23074(11)
C31 C 0.42475(16) 0.9894(2) -0.01841(10)
C32 C 0.34487(16) 0.9755(2) -0.03956(11)
C33 C 0.08725(16) 0.9459(2) 0.04402(10)
C34 C 0.4950(3) 0.0322(5) -0.35809(15)
H16 H 0.5221 0.0398 -0.3796
C35 C 0.4778(3) -0.0575(5) -0.34780(16)
H17 H 0.4919 -0.1074 -0.3635
C36 C 0.4059(2) 0.3361(3) -0.27271(14)
H18 H 0.4150 0.3982 -0.2791
C37 C 0.36649(19) -0.1051(3) -0.24721(13)
H19 H 0.3788 -0.1587 -0.2612
C38 C 0.42221(18) -0.0001(3) -0.29592(11)
C39 C 0.1132(2) 1.2158(2) -0.01006(12)
H20 H 0.0953 1.2704 0.0002
C40 C 0.4284(2) 0.2648(3) -0.29567(13)
H21 H 0.4524 0.2779 -0.3182
C41 C 0.22642(17) 0.4935(2) -0.09373(10)
H22 H 0.2146 0.4517 -0.0731
C42 C 0.11042(18) 0.7820(2) 0.04120(11)
H23 H 0.1077 0.7210 0.0517
C43 C 0.43789(18) 0.0912(3) -0.30761(11)
C44 C 0.08220(17) 0.8549(2) 0.06040(10)
H24 H 0.0599 0.8443 0.0840
H25 H 0.3204(19) 0.207(3) -0.1077(12)
H26 H 0.190(2) 0.904(3) -0.1367(14)
H27 H 0.1648(17) 0.997(2) -0.1382(10)
H28 H 0.335(2) 0.112(3) -0.1102(13)
Zn1D Zn 0.794191(19) 1.07911(3) 0.059431(12)
N1D N 0.85135(13) 1.11589(18) 0.01023(8)
O1B O -0.18197(12) 0.11184(17) -0.33005(8)
C1D C 0.8495(2) 0.7799(3) 0.04325(13)
H1D H 0.8419 0.7222 0.0557
Zn2B Zn -0.29050(2) 0.18857(3) -0.314587(12)
Zn2D Zn 0.70950(2) 1.81143(3) 0.185413(12)
N2D N 0.83279(13) 0.94517(18) 0.04165(8)
O2D O 0.68456(11) 0.98649(16) 0.07605(7)
C2B C -0.41535(17) 0.1716(3) -0.21460(11)
O3D O 0.76157(13) 1.19095(16) 0.14305(8)
N3D N 0.97242(15) 0.9847(2) -0.09710(9)
C3B C -0.04788(19) 0.1241(3) -0.22274(12)
H2B H -0.0801 0.1241 -0.2040
O4D O 0.84054(13) 1.0502(2) 0.12722(8)
N4D N 0.96099(15) 0.8054(2) -0.06033(9)
C4B C -0.02631(19) 0.1222(3) -0.29636(11)
H3B H -0.0437 0.1184 -0.3277
O5D O 0.73155(14) 1.69399(16) 0.09856(8)
N5B N -0.35538(14) 0.2281(2) -0.27086(9)
C5B C -0.37846(16) 0.1568(2) -0.24838(10)
O6B O -0.34267(14) 0.1646(2) -0.37996(9)
N6B N -0.32717(13) 0.05379(18) -0.29417(8)
C6D C 0.99730(19) 0.9073(3) -0.11237(12)
H4D H 1.0195 0.9122 -0.1364
N7B N -0.47544(18) 0.1079(3) -0.16072(11)
O7D O 0.72277(13) 1.67377(15) 0.16981(7)
O7B O -0.27723(13) 0.32623(15) -0.33019(7)
C7B C -0.33074(19) -0.1123(2) -0.28658(13)
H5B H -0.3190 -0.1712 -0.2960
N8B N -0.44174(18) -0.0762(3) -0.18361(11)
O8B O -0.19312(12) 0.17478(16) -0.26638(9)
C8B C -0.38427(17) -0.0154(3) -0.23970(11)
O9D O 0.79368(12) 1.21642(15) 0.07869(7)
C9D C 0.89771(16) 0.8713(2) -0.00828(10)
O10D O 0.69086(11) 1.07695(15) 0.01931(7)
C10D C 0.9915(2) 0.8196(3) -0.09401(13)
H6D H 1.0102 0.7680 -0.1062
C11D C 0.94067(16) 0.9716(2) -0.06248(10)
C12D C 0.87907(15) 1.0427(2) -0.00867(10)
C13D C 0.73757(16) 1.3821(2) 0.15418(10)
H7D H 0.7252 1.3406 0.1747
C14D C 0.93427(16) 0.8831(2) -0.04441(11)
C15B C -0.36301(16) 0.0617(2) -0.26120(10)
C16D C 0.76539(15) 1.3474(2) 0.11894(10)
C17D C 0.77399(16) 1.2440(2) 0.11345(11)
C18B C -0.15485(19) 0.1369(2) -0.28997(13)
C19B C -0.31212(18) -0.0319(2) -0.30665(11)
H8B H -0.2881 -0.0381 -0.3298
C20D C 0.74573(16) 1.5408(2) 0.12864(10)
C21D C 0.72829(17) 1.4776(2) 0.15886(10)
H9D H 0.7101 1.4997 0.1827
C22D C 0.53793(16) 1.0695(2) -0.01587(10)
H10D H 0.5632 1.1163 -0.0270
C23D C 0.53642(16) 0.9406(2) 0.03368(10)
H11D H 0.5607 0.8997 0.0563
C24D C 0.82332(19) 0.8610(2) 0.05818(12)
H12D H 0.7980 0.8567 0.0807
C25D C 0.85711(17) 1.2013(2) -0.00623(11)
H13D H 0.8383 1.2521 0.0065
C26D C 0.78414(17) 1.4113(2) 0.08907(10)
H14D H 0.8039 1.3897 0.0658
C27D C 0.86963(15) 0.9500(2) 0.00880(10)
C28B C -0.36940(19) 0.3157(3) -0.26009(12)
H15B H -0.3539 0.3652 -0.2754
C29D C 0.73308(17) 1.6444(2) 0.13250(12)
C30B C -0.07504(18) 0.1260(2) -0.26926(11)
C31D C 0.57525(16) 1.0106(2) 0.01841(10)
C32D C 0.65513(16) 1.0245(2) 0.03956(11)
C33D C 0.91275(16) 1.0541(2) -0.04402(10)
C34B C -0.4950(3) 0.0322(5) -0.14191(15)
H16B H -0.5221 0.0398 -0.1204
C35B C -0.4778(3) -0.0575(5) -0.15220(16)
H17B H -0.4919 -0.1074 -0.1365
C36B C -0.4059(2) 0.3361(3) -0.22729(14)
H18B H -0.4150 0.3982 -0.2209
C37B C -0.36649(19) -0.1051(3) -0.25279(13)
H19B H -0.3788 -0.1587 -0.2388
C38B C -0.42221(18) -0.0001(3) -0.20408(11)
C39D C 0.8868(2) 0.7842(2) 0.01006(12)
H20D H 0.9047 0.7296 -0.0002
C40B C -0.4284(2) 0.2648(3) -0.20433(13)
H21B H -0.4524 0.2779 -0.1818
C41D C 0.77358(17) 1.5065(2) 0.09373(10)
H22D H 0.7854 1.5483 0.0731
C42D C 0.88958(18) 1.2180(2) -0.04120(11)
H23D H 0.8923 1.2790 -0.0517
C43B C -0.43789(18) 0.0912(3) -0.19239(11)
C44D C 0.91780(17) 1.1451(2) -0.06040(10)
H24D H 0.9401 1.1557 -0.0840
H25B H -0.3204(19) 0.207(3) -0.3923(12)
H26D H 0.810(2) 1.096(3) 0.1367(14)
H27D H 0.8352(17) 1.003(2) 0.1382(10)
H28B H -0.335(2) 0.112(3) -0.3898(13)
loop_
_geom_bond_atom_site_label_1
_geom_bond_atom_site_label_2
_geom_bond_site_symmetry_1
_geom_bond_site_symmetry_2
Zn1 N1 1_555 1_555
N1 C12 1_555 1_555
O1 Zn2 1_555 1_555
C1 H1 1_555 1_555
Zn2 N5 1_555 1_555
N2 Zn1 1_555 1_555
O2 C32 1_555 1_555
C2 C5 1_555 1_555
O3 C17 1_555 1_555
N3 C6 1_555 1_555
C3 H2 1_555 1_555
O4 Zn1 1_555 1_555
N4 C10 1_555 1_555
C4 H3 1_555 1_555
O5 C29 1_555 1_555
N5 C5 1_555 1_555
C5 C15 1_555 1_555
O6 Zn2 1_555 1_555
N6 Zn2 1_555 1_555
C6 H4 1_555 1_555
N7 C34 1_555 1_555
O7 Zn2 1_555 1_555
C7 H5 1_555 1_555
N8 C35 1_555 1_555
O8 Zn2 1_555 1_555
C8 C15 1_555 1_555
O9 Zn1 1_555 1_555
C9 C14 1_555 1_555
O10 Zn1 1_555 1_555
C10 C6 1_555 1_555
H6 C10 1_555 1_555
C11 N3 1_555 1_555
C12 C27 1_555 1_555
C13 H7 1_555 1_555
C14 N4 1_555 1_555
C15 N6 1_555 1_555
C16 C13 1_555 1_555
C17 O9 1_555 1_555
C18 O1 1_555 1_555
C19 N6 1_555 1_555
H8 C19 1_555 1_555
C20 C21 1_555 1_555
C21 C13 1_555 1_555
H9 C21 1_555 1_555
C22 H10 1_555 1_555
C23 H11 1_555 1_555
C24 C1 1_555 1_555
H12 C24 1_555 1_555
C25 N1 1_555 1_555
H13 C25 1_555 1_555
C26 C16 1_555 1_555
H14 C26 1_555 1_555
C27 N2 1_555 1_555
C28 N5 1_555 1_555
H15 C28 1_555 1_555
C29 O7 1_555 1_555
C30 C3 1_555 1_555
C31 C22 1_555 1_555
C32 O10 1_555 1_555
C33 C11 1_555 1_555
C34 H16 1_555 1_555
C35 C34 1_555 1_555
H17 C35 1_555 1_555
C36 C28 1_555 1_555
H18 C36 1_555 1_555
C37 C7 1_555 1_555
H19 C37 1_555 1_555
C38 N8 1_555 1_555
C39 C1 1_555 1_555
H20 C39 1_555 1_555
C40 C2 1_555 1_555
H21 C40 1_555 1_555
C41 C20 1_555 1_555
H22 C41 1_555 1_555
C42 C25 1_555 1_555
H23 C42 1_555 1_555
C43 C2 1_555 1_555
C44 C33 1_555 1_555
H24 C44 1_555 1_555
H25 O6 1_555 1_555
H26 O4 1_555 1_555
H27 O4 1_555 1_555
H28 O6 1_555 1_555
Zn1D N1D 1_555 1_555
N1D C12D 1_555 1_555
O1B Zn2B 1_555 1_555
C1D H1D 1_555 1_555
Zn2B N5B 1_555 1_555
Zn2D O7D 1_555 1_555
N2D Zn1D 1_555 1_555
O2D C32D 1_555 1_555
C2B C5B 1_555 1_555
O3D C17D 1_555 1_555
N3D C6D 1_555 1_555
C3B C4 1_555 1_555
H2B C3B 1_555 1_555
O4D Zn1D 1_555 1_555
N4D C10D 1_555 1_555
C4B C3 1_555 1_555
H3B C4B 1_555 1_555
O5D C29D 1_555 1_555
N5B C5B 1_555 1_555
C5B C15B 1_555 1_555
O6B Zn2B 1_555 1_555
N6B Zn2B 1_555 1_555
C6D H4D 1_555 1_555
N7B C34B 1_555 1_555
O7D C29D 1_555 1_555
O7B Zn2B 1_555 1_555
C7B H5B 1_555 1_555
N8B C35B 1_555 1_555
O8B Zn2B 1_555 1_555
C8B C15B 1_555 1_555
O9D Zn1D 1_555 1_555
C9D C14D 1_555 1_555
O10D Zn1D 1_555 1_555
C10D C6D 1_555 1_555
H6D C10D 1_555 1_555
C11D N3D 1_555 1_555
C12D C27D 1_555 1_555
C13D H7D 1_555 1_555
C14D N4D 1_555 1_555
C15B N6B 1_555 1_555
C16D C13D 1_555 1_555
C17D O9D 1_555 1_555
C18B O1B 1_555 1_555
C19B N6B 1_555 1_555
H8B C19B 1_555 1_555
C20D C21D 1_555 1_555
C21D C13D 1_555 1_555
H9D C21D 1_555 1_555
C22D C23 1_555 1_555
H10D C22D 1_555 1_555
C23D C22 1_555 1_555
H11D C23D 1_555 1_555
C24D C1D 1_555 1_555
H12D C24D 1_555 1_555
C25D N1D 1_555 1_555
H13D C25D 1_555 1_555
C26D C16D 1_555 1_555
H14D C26D 1_555 1_555
C27D N2D 1_555 1_555
C28B N5B 1_555 1_555
H15B C28B 1_555 1_555
C29D C20D 1_555 1_555
C30B C3B 1_555 1_555
C31D C22D 1_555 1_555
C32D O10D 1_555 1_555
C33D C11D 1_555 1_555
C34B H16B 1_555 1_555
C35B C34B 1_555 1_555
H17B C35B 1_555 1_555
C36B C28B 1_555 1_555
H18B C36B 1_555 1_555
C37B C7B 1_555 1_555
H19B C37B 1_555 1_555
C38B N8B 1_555 1_555
C39D C1D 1_555 1_555
H20D C39D 1_555 1_555
C40B C2B 1_555 1_555
H21B C40B 1_555 1_555
C41D C20D 1_555 1_555
H22D C41D 1_555 1_555
C42D C25D 1_555 1_555
H23D C42D 1_555 1_555
C43B C2B 1_555 1_555
C44D C33D 1_555 1_555
H24D C44D 1_555 1_555
H25B O6B 1_555 1_555
H26D O4D 1_555 1_555
H27D O4D 1_555 1_555
H28B O6B 1_555 1_555
N2 C24 1_555 1_555
C4 C30 1_555 1_555
N7 C43 1_555 1_555
C7 C19 1_555 1_555
O8 C18 1_555 1_555
C8 C37 1_555 1_555
C8 C38 1_555 1_555
C9 C27 1_555 1_555
C9 C39 1_555 1_555
C11 C14 1_555 1_555
C12 C33 1_555 1_555
C16 C17 1_555 1_555
C18 C30 1_555 1_555
C20 C29 1_555 1_555
C23 C31 1_555 1_555
C26 C41 1_555 1_555
C31 C32 1_555 1_555
C36 C40 1_555 1_555
C38 C43 1_555 1_555
C42 C44 1_555 1_555
N2D C24D 1_555 1_555
C4B C30B 1_555 1_555
N7B C43B 1_555 1_555
C7B C19B 1_555 1_555
O8B C18B 1_555 1_555
C8B C37B 1_555 1_555
C8B C38B 1_555 1_555
C9D C27D 1_555 1_555
C9D C39D 1_555 1_555
C11D C14D 1_555 1_555
C12D C33D 1_555 1_555
C16D C17D 1_555 1_555
C18B C30B 1_555 1_555
C23D C31D 1_555 1_555
C26D C41D 1_555 1_555
C31D C32D 1_555 1_555
C36B C40B 1_555 1_555
C38B C43B 1_555 1_555
C42D C44D 1_555 1_555

#END
