
#######################################################################
#
#                 Cambridge Crystallographic Data Centre
#                                CCDC 
#
#######################################################################
#
# If this CIF has been generated from an entry in the Cambridge 
# Structural Database, then it will include bibliographic, chemical, 
# crystal, experimental, refinement or atomic coordinate data resulting 
# from the CCDC's data processing and validation procedures.
#
#######################################################################

data_MIXSES
_symmetry_cell_setting           monoclinic
_symmetry_space_group_name_H-M   'P 2/c'
_symmetry_Int_Tables_number      13
_space_group_name_Hall           '-P 2yc'
loop_
_symmetry_equiv_pos_site_id
_symmetry_equiv_pos_as_xyz
1 x,y,z
2 -x,y,1/2-z
3 -x,-y,-z
4 x,-y,1/2+z
_cell_length_a                   13.222(3)
_cell_length_b                   5.8829(1)
_cell_length_c                   26.351(5)
_cell_angle_alpha                90
_cell_angle_beta                 114.443(9)
_cell_angle_gamma                90
_cell_volume                     1865.97
loop_
_atom_site_label
_atom_site_type_symbol
_atom_site_fract_x
_atom_site_fract_y
_atom_site_fract_z
Zn1 Zn 0.42903(3) 0.80423(7) 0.049464(18)
O1 O 0.5632(2) 0.6153(4) 0.08245(10)
O2 O 0.64349(19) 0.1644(4) 0.03380(10)
O3 O 0.50393(19) 0.1200(4) 0.06115(10)
O4 O 0.5555(3) 0.6637(7) 0.16362(14)
N1 N 0.3443(2) 0.8957(5) 0.09932(13)
N2 N 0.3031(2) 0.5363(5) 0.03180(12)
N3 N 0.0450(3) 0.6821(6) 0.14914(14)
N4 N -0.0058(3) 0.3178(6) 0.07326(15)
C1 C 0.3725(3) 1.0639(7) 0.13570(18)
H1 H 0.4296 1.1611 0.1378
C2 C 0.3195(4) 1.1013(8) 0.17132(19)
H2 H 0.3437 1.2164 0.1979
C3 C 0.2322(4) 0.9674(7) 0.16660(18)
H3 H 0.1944 0.9943 0.1889
C4 C 0.1994(3) 0.7885(7) 0.12793(16)
C5 C 0.1058(3) 0.6404(7) 0.11969(17)
C6 C -0.0392(4) 0.5424(9) 0.1392(2)
H4 H -0.0834 0.5650 0.1586
C7 C -0.0655(4) 0.3636(8) 0.1016(2)
H5 H -0.1269 0.2734 0.0962
C8 C 0.0808(3) 0.4573(7) 0.08217(17)
C9 C 0.1488(3) 0.4163(6) 0.05149(16)
C10 C 0.1308(3) 0.2340(6) 0.01392(17)
H6 H 0.0730 0.1323 0.0076
C11 C 0.1986(3) 0.2076(7) -0.01299(17)
H7 H 0.1874 0.0880 -0.0378
C12 C 0.2845(3) 0.3611(6) -0.00298(17)
H8 H 0.3308 0.3410 -0.0212
C13 C 0.2363(3) 0.5647(6) 0.05852(15)
C14 C 0.2600(3) 0.7553(6) 0.09621(15)
C15 C 0.5927(3) 0.5688(7) 0.13381(18)
C16 C 0.6820(3) 0.3902(6) 0.15884(15)
C17 C 0.7615(3) 0.4191(7) 0.21336(16)
H9 H 0.7591 0.5458 0.2339
C18 C 0.8440(3) 0.2567(8) 0.23653(18)
H10 H 0.8988 0.2782 0.2723
C19 C 0.8459(3) 0.0655(8) 0.20739(18)
H11 H 0.9001 -0.0447 0.2238
C20 C 0.7673(3) 0.0366(7) 0.15364(16)
H12 H 0.7688 -0.0935 0.1339
C21 C 0.6860(3) 0.1998(7) 0.12859(14)
C22 C 0.6030(3) 0.1601(6) 0.06958(15)
Zn1B Zn 0.57097(3) 0.19577(7) -0.049464(18)
Zn1_2 Zn 0.42903(3) -0.19577(7) 0.049464(18)
Zn1B_2 Zn 0.57097(3) 1.19577(7) -0.049464(18)
O1B O 0.4368(2) 0.3847(4) -0.08245(10)
O2B O 0.35651(19) 0.8356(4) -0.03380(10)
O3B O 0.49607(19) 0.8800(4) -0.06115(10)
O3_2 O 0.50393(19) 1.1200(4) 0.06115(10)
O3B_2 O 0.49607(19) -0.1200(4) -0.06115(10)
O4B O 0.4445(3) 0.3363(7) -0.16362(14)
N1B N 0.6557(2) 0.1043(5) -0.09932(13)
N2B N 0.6969(2) 0.4637(5) -0.03180(12)
N3B N 0.9550(3) 0.3179(6) -0.14914(14)
N4B N 1.0058(3) 0.6822(6) -0.07326(15)
C1B C 0.6275(3) -0.0639(7) -0.13570(18)
H1B H 0.5704 -0.1611 -0.1378
C2B C 0.6805(4) -0.1013(8) -0.17132(19)
H2B H 0.6563 -0.2164 -0.1979
C3B C 0.7678(4) 0.0326(7) -0.16660(18)
H3B H 0.8056 0.0057 -0.1889
C4B C 0.8006(3) 0.2115(7) -0.12793(16)
C5B C 0.8942(3) 0.3596(7) -0.11969(17)
C6B C 1.0392(4) 0.4576(9) -0.1392(2)
H4B H 1.0834 0.4350 -0.1586
C7B C 1.0655(4) 0.6364(8) -0.1016(2)
H5B H 1.1269 0.7266 -0.0962
C8B C 0.9192(3) 0.5427(7) -0.08217(17)
C9B C 0.8512(3) 0.5837(6) -0.05149(16)
C10B C 0.8692(3) 0.7660(6) -0.01392(17)
H6B H 0.9270 0.8677 -0.0076
C11B C 0.8014(3) 0.7924(7) 0.01299(17)
H7B H 0.8126 0.9120 0.0378
C12B C 0.7155(3) 0.6389(6) 0.00298(17)
H8B H 0.6692 0.6590 0.0212
C13B C 0.7637(3) 0.4353(6) -0.05852(15)
C14B C 0.7400(3) 0.2447(6) -0.09621(15)
C15B C 0.4073(3) 0.4312(7) -0.13381(18)
C16B C 0.3180(3) 0.6098(6) -0.15884(15)
C17B C 0.2385(3) 0.5809(7) -0.21336(16)
H9B H 0.2409 0.4542 -0.2339
C18B C 0.1560(3) 0.7433(8) -0.23653(18)
H10B H 0.1012 0.7218 -0.2723
C19B C 0.1541(3) 0.9345(8) -0.20739(18)
H11B H 0.0999 1.0447 -0.2238
C20B C 0.2327(3) 0.9634(7) -0.15364(16)
H12B H 0.2312 1.0935 -0.1339
C21B C 0.3140(3) 0.8002(7) -0.12859(14)
C22B C 0.3970(3) 0.8399(6) -0.06958(15)
O5 O 0.5000 1.5006(16) 0.2500
H13 H 0.560(3) 1.583(8) 0.2700(18)
H13A H 0.440(3) 1.583(8) 0.2300(18)
loop_
_geom_bond_atom_site_label_1
_geom_bond_atom_site_label_2
_geom_bond_site_symmetry_1
_geom_bond_site_symmetry_2
Zn1 O1 1_555 1_555
O1 C15 1_555 1_555
O2 C22 1_555 1_555
O3 C22 1_555 1_555
O4 C15 1_555 1_555
N1 Zn1 1_555 1_555
N2 Zn1 1_555 1_555
N3 C5 1_555 1_555
N4 C7 1_555 1_555
C1 N1 1_555 1_555
H1 C1 1_555 1_555
C2 C1 1_555 1_555
H2 C2 1_555 1_555
C3 C2 1_555 1_555
H3 C3 1_555 1_555
C4 C3 1_555 1_555
C5 C4 1_555 1_555
C6 N3 1_555 1_555
H4 C6 1_555 1_555
C7 C6 1_555 1_555
H5 C7 1_555 1_555
C8 N4 1_555 1_555
C9 C8 1_555 1_555
C10 C9 1_555 1_555
H6 C10 1_555 1_555
C11 C10 1_555 1_555
H7 C11 1_555 1_555
C12 N2 1_555 1_555
H8 C12 1_555 1_555
C13 N2 1_555 1_555
C14 N1 1_555 1_555
C15 C16 1_555 1_555
C16 C17 1_555 1_555
C17 H9 1_555 1_555
C18 C17 1_555 1_555
H10 C18 1_555 1_555
C19 C18 1_555 1_555
H11 C19 1_555 1_555
C20 C19 1_555 1_555
H12 C20 1_555 1_555
C21 C16 1_555 1_555
C22 C21 1_555 1_555
O5 H13 1_555 1_555
Zn1B O2 1_555 1_555
Zn1_2 O3 1_555 1_555
Zn1B_2 O3B 1_555 1_555
O1B Zn1B 1_555 1_555
O2B Zn1 1_555 1_555
O3B C22B 1_555 1_555
O3_2 Zn1 1_555 1_555
O3B_2 Zn1B 1_555 1_555
O4B C15B 1_555 1_555
N1B Zn1B 1_555 1_555
N2B Zn1B 1_555 1_555
N3B C5B 1_555 1_555
N4B C7B 1_555 1_555
C1B N1B 1_555 1_555
H1B C1B 1_555 1_555
C2B C1B 1_555 1_555
H2B C2B 1_555 1_555
C3B C2B 1_555 1_555
H3B C3B 1_555 1_555
C4B C3B 1_555 1_555
C5B C4B 1_555 1_555
C6B N3B 1_555 1_555
H4B C6B 1_555 1_555
C7B C6B 1_555 1_555
H5B C7B 1_555 1_555
C8B N4B 1_555 1_555
C9B C8B 1_555 1_555
C10B C9B 1_555 1_555
H6B C10B 1_555 1_555
C11B C10B 1_555 1_555
H7B C11B 1_555 1_555
C12B N2B 1_555 1_555
H8B C12B 1_555 1_555
C13B N2B 1_555 1_555
C14B N1B 1_555 1_555
C15B O1B 1_555 1_555
C16B C15B 1_555 1_555
C17B C16B 1_555 1_555
H9B C17B 1_555 1_555
C18B C17B 1_555 1_555
H10B C18B 1_555 1_555
C19B C18B 1_555 1_555
H11B C19B 1_555 1_555
C20B C19B 1_555 1_555
H12B C20B 1_555 1_555
C21B C16B 1_555 1_555
C22B O2B 1_555 1_555
H13A O5 1_555 1_555
C4 C14 1_555 1_555
C5 C8 1_555 1_555
C9 C13 1_555 1_555
C11 C12 1_555 1_555
C13 C14 1_555 1_555
C20 C21 1_555 1_555
C4B C14B 1_555 1_555
C5B C8B 1_555 1_555
C9B C13B 1_555 1_555
C11B C12B 1_555 1_555
C13B C14B 1_555 1_555
C20B C21B 1_555 1_555
C21B C22B 1_555 1_555

#END
