
#######################################################################
#
#                 Cambridge Crystallographic Data Centre
#                                CCDC 
#
#######################################################################
#
# If this CIF has been generated from an entry in the Cambridge 
# Structural Database, then it will include bibliographic, chemical, 
# crystal, experimental, refinement or atomic coordinate data resulting 
# from the CCDC's data processing and validation procedures.
#
#######################################################################

data_MIYGIL
_symmetry_cell_setting           monoclinic
_symmetry_space_group_name_H-M   'C 2/c'
_symmetry_Int_Tables_number      15
_space_group_name_Hall           '-C 2yn'
loop_
_symmetry_equiv_pos_site_id
_symmetry_equiv_pos_as_xyz
1 x,y,z
2 1/2+x,1/2+y,z
3 -x,y,1/2-z
4 1/2-x,1/2+y,1/2-z
5 -x,-y,-z
6 1/2-x,1/2-y,-z
7 x,-y,1/2+z
8 1/2+x,1/2-y,1/2+z
_cell_length_a                   13.8507(12)
_cell_length_b                   7.8719(7)
_cell_length_c                   10.7961(16)
_cell_angle_alpha                90
_cell_angle_beta                 118.0310(10)
_cell_angle_gamma                90
_cell_volume                     1039.03
loop_
_atom_site_label
_atom_site_type_symbol
_atom_site_fract_x
_atom_site_fract_y
_atom_site_fract_z
Th1 Th 0.0000 0.237577(16) 0.2500
O1 O 0.06160(18) 0.1953(3) 0.0618(2)
O2 O 0.0810(2) 0.4874(3) 0.1991(3)
O3 O -0.13404(17) 0.3545(3) 0.0158(2)
O4 O 0.06111(19) 0.0279(3) -0.1060(2)
O5 O -0.30313(17) 0.3438(3) -0.1644(2)
C1 C -0.2322(2) 0.3072(4) -0.0437(3)
C2 C 0.0355(2) 0.0658(3) -0.0121(3)
H1 H 0.095(4) 0.505(7) 0.137(4)
H2 H 0.113(4) 0.569(4) 0.246(5)
Th1F Th 0.0000 -0.237577(16) -0.2500
Th1G Th -0.5000 0.262423(16) -0.2500
O1D O -0.06160(18) -0.1953(3) -0.0618(2)
O1B O -0.06160(18) 0.1953(3) 0.4382(2)
O2B O -0.0810(2) 0.4874(3) 0.3009(3)
O3E O -0.36596(17) 0.1455(3) -0.0158(2)
O3B O 0.13404(17) 0.3545(3) 0.4842(2)
O4D O -0.06111(19) -0.0279(3) 0.1060(2)
O4F O 0.06111(19) -0.0279(3) 0.3940(2)
O5E O -0.19687(17) 0.1562(3) 0.1644(2)
O5G O 0.19687(17) 0.1562(3) 0.3356(2)
C1E C -0.2678(2) 0.1928(4) 0.0437(3)
C2D C -0.0355(2) -0.0658(3) 0.0121(3)
H1B H -0.095(4) 0.505(7) 0.363(4)
H2B H -0.113(4) 0.569(4) 0.254(5)
O6 O 0.3092(4) 0.2451(6) 0.1635(8)
H3 H 0.252(5) 0.248(9) 0.164(12)
H4 H 0.330(8) 0.308(10) 0.123(9)
loop_
_geom_bond_atom_site_label_1
_geom_bond_atom_site_label_2
_geom_bond_site_symmetry_1
_geom_bond_site_symmetry_2
Th1 O1 1_555 1_555
O1 C2 1_555 1_555
O2 Th1 1_555 1_555
O3 Th1 1_555 1_555
O4 C2 1_555 1_555
O5 C1 1_555 1_555
C1 O3 1_555 1_555
C2 C2D 1_555 1_555
O6 H3 1_555 1_555
H1 O2 1_555 1_555
H2 O2 1_555 1_555
H4 O6 1_555 1_555
Th1F O4 1_555 1_555
Th1G O5 1_555 1_555
O1D Th1F 1_555 1_555
O1B Th1 1_555 1_555
O2B Th1 1_555 1_555
O3E Th1G 1_555 1_555
O3B Th1 1_555 1_555
O4D Th1 1_555 1_555
O4F Th1 1_555 1_555
O5E Th1 1_555 1_555
O5G Th1 1_555 1_555
C1E C1 1_555 1_555
C2D O1D 1_555 1_555
H1B O2B 1_555 1_555
H2B O2B 1_555 1_555
O3E C1E 1_555 1_555
O4D C2D 1_555 1_555
O5E C1E 1_555 1_555

#END
