
#######################################################################
#
#                 Cambridge Crystallographic Data Centre
#                                CCDC 
#
#######################################################################
#
# If this CIF has been generated from an entry in the Cambridge 
# Structural Database, then it will include bibliographic, chemical, 
# crystal, experimental, refinement or atomic coordinate data resulting 
# from the CCDC's data processing and validation procedures.
#
#######################################################################

data_MIYHOS
_symmetry_cell_setting           cubic
_symmetry_space_group_name_H-M   'I a -3'
_symmetry_Int_Tables_number      206
_space_group_name_Hall           '-I 2b 2c 3'
loop_
_symmetry_equiv_pos_site_id
_symmetry_equiv_pos_as_xyz
1 x,y,z
2 z,x,y
3 y,z,x
4 1/2+x,1/2+y,1/2+z
5 1/2+z,1/2+x,1/2+y
6 1/2+y,1/2+z,1/2+x
7 1/2-x,-y,1/2+z
8 -x,1/2+y,1/2-z
9 1/2+x,1/2-y,-z
10 1/2+z,1/2-x,-y
11 1/2-z,-x,1/2+y
12 -z,1/2+x,1/2-y
13 -y,1/2+z,1/2-x
14 1/2+y,1/2-z,-x
15 1/2-y,-z,1/2+x
16 -x,1/2-y,z
17 1/2-x,y,-z
18 x,-y,1/2-z
19 z,-x,1/2-y
20 -z,1/2-x,y
21 1/2-z,x,-y
22 1/2-y,z,-x
23 y,-z,1/2-x
24 -y,1/2-z,x
25 -x,-y,-z
26 -z,-x,-y
27 -y,-z,-x
28 1/2-x,1/2-y,1/2-z
29 1/2-z,1/2-x,1/2-y
30 1/2-y,1/2-z,1/2-x
31 1/2+x,y,1/2-z
32 x,1/2-y,1/2+z
33 1/2-x,1/2+y,z
34 1/2-z,1/2+x,y
35 1/2+z,x,1/2-y
36 z,1/2-x,1/2+y
37 y,1/2-z,1/2+x
38 1/2-y,1/2+z,x
39 1/2+y,z,1/2-x
40 x,1/2+y,-z
41 1/2+x,-y,z
42 -x,y,1/2+z
43 -z,x,1/2+y
44 z,1/2+x,-y
45 1/2+z,-x,y
46 1/2+y,-z,x
47 -y,z,1/2+x
48 y,1/2+z,-x
_cell_length_a                   20.9687(9)
_cell_length_b                   20.9687(9)
_cell_length_c                   20.9687(9)
_cell_angle_alpha                90
_cell_angle_beta                 90
_cell_angle_gamma                90
_cell_volume                     9219.65
loop_
_atom_site_label
_atom_site_type_symbol
_atom_site_fract_x
_atom_site_fract_y
_atom_site_fract_z
Zn1 Zn 0.152098(12) 0.347902(12) 0.652098(12)
Zn2 Zn 0.2500 0.2500 0.7500
O1 O 0.20278(10) 0.33044(9) 0.78145(11)
O2 O 0.17532(11) 0.40912(9) 0.71704(10)
C1 C 0.20315(12) 0.38756(12) 0.76544(13)
C2 C 0.23832(14) 0.43368(13) 0.80633(14)
C3 C 0.24633(19) 0.41789(19) 0.86973(18)
H1 H 0.2300 0.3796 0.8849
C4 C 0.2779(3) 0.4576(2) 0.9104(2)
H2 H 0.2840 0.4456 0.9526
C5 C 0.3005(3) 0.5149(3) 0.8894(2)
H3 H 0.3201 0.5430 0.9176
C6 C 0.2941(2) 0.53060(18) 0.82671(19)
H4 H 0.3110 0.5690 0.8123
C7 C 0.26329(15) 0.49099(13) 0.78394(14)
N1 N 0.09620(10) 0.40380(10) 0.59620(10)
C8 C 0.1117(4) 0.4629(3) 0.5833(5)
H5 H 0.1487 0.4792 0.6014
C9 C 0.0764(4) 0.5021(4) 0.5445(5)
H6 H 0.0904 0.5431 0.5349
C10 C 0.02035(14) 0.47965(14) 0.52035(14)
Zn1D Zn 0.152098(12) 0.652098(12) 0.847902(12)
Zn1GA Zn -0.152098(12) 0.652098(12) 0.347902(12)
Zn1PA Zn 0.347902(12) 0.152098(12) 0.847902(12)
Zn1EA Zn 0.152098(12) 0.152098(12) 1.152098(12)
Zn1DA Zn 0.652098(12) 0.347902(12) 0.847902(12)
Zn2D Zn 0.2500 0.7500 0.7500
Zn2EA Zn 0.2500 0.2500 1.2500
Zn2E Zn 0.7500 0.2500 0.7500
O1Q O 0.20278(10) 0.66956(9) 0.71855(11)
O1PA O 0.21855(11) 0.20278(10) 0.83044(9)
O1HA O 0.28145(11) 0.20278(10) 1.16956(9)
O1UA O 0.33044(9) 0.28145(11) 0.79722(10)
O1Z O 0.66956(9) 0.21855(11) 0.79722(10)
O1AA O 0.29722(10) 0.16956(9) 0.71855(11)
O1I O 0.28145(11) 0.29722(10) 0.66956(9)
O1N O 0.16956(9) 0.21855(11) 0.70278(10)
O2Q O 0.17532(11) 0.59088(9) 0.78296(10)
O2PA O 0.28296(10) 0.17532(11) 0.90912(9)
O2HA O 0.21704(10) 0.17532(11) 1.09088(9)
O2UA O 0.40912(9) 0.21704(10) 0.82468(11)
O2Z O 0.59088(9) 0.28296(10) 0.82468(11)
O2I O 0.21704(10) 0.32468(11) 0.59088(9)
O2N O 0.09088(9) 0.28296(10) 0.67532(11)
O2D O 0.21704(10) 0.67532(11) 0.90912(9)
O2U O 0.09088(9) 0.71704(10) 0.82468(11)
C1Q C 0.20315(12) 0.61244(12) 0.73456(13)
C1PA C 0.23456(13) 0.20315(12) 0.88756(12)
C1HA C 0.26544(13) 0.20315(12) 1.11244(12)
C1UA C 0.38756(12) 0.26544(13) 0.79685(12)
C1Z C 0.61244(12) 0.23456(13) 0.79685(12)
C2Q C 0.23832(14) 0.56632(13) 0.69367(14)
C2PA C 0.19367(14) 0.23832(14) 0.93368(13)
C2HA C 0.30633(14) 0.23832(14) 1.06632(13)
C2UA C 0.43368(13) 0.30633(14) 0.76168(14)
C2Z C 0.56632(13) 0.19367(14) 0.76168(14)
C3Q C 0.24633(19) 0.58211(19) 0.63027(18)
C3PA C 0.13027(18) 0.24633(19) 0.91789(19)
C3HA C 0.36973(18) 0.24633(19) 1.08211(19)
C3UA C 0.41789(19) 0.36973(18) 0.75367(19)
C3Z C 0.58211(19) 0.13027(18) 0.75367(19)
H1Q H 0.2300 0.6204 0.6151
H1PA H 0.1151 0.2300 0.8796
H1HA H 0.3849 0.2300 1.1204
H1UA H 0.3796 0.3849 0.7700
H1Z H 0.6204 0.1151 0.7700
C4Q C 0.2779(3) 0.5424(2) 0.5896(2)
C4PA C 0.0896(2) 0.2779(3) 0.9576(2)
C4HA C 0.4104(2) 0.2779(3) 1.0424(2)
C4UA C 0.4576(2) 0.4104(2) 0.7221(3)
C4Z C 0.5424(2) 0.0896(2) 0.7221(3)
H2Q H 0.2840 0.5544 0.5474
H2PA H 0.0474 0.2840 0.9456
H2HA H 0.4526 0.2840 1.0544
H2UA H 0.4456 0.4526 0.7160
H2Z H 0.5544 0.0474 0.7160
C5Q C 0.3005(3) 0.4851(3) 0.6106(2)
C5PA C 0.1106(2) 0.3005(3) 1.0149(3)
C5HA C 0.3894(2) 0.3005(3) 0.9851(3)
C5UA C 0.5149(3) 0.3894(2) 0.6995(3)
C5Z C 0.4851(3) 0.1106(2) 0.6995(3)
H3Q H 0.3201 0.4570 0.5824
H3PA H 0.0824 0.3201 1.0430
H3HA H 0.4176 0.3201 0.9570
H3UA H 0.5430 0.4176 0.6799
H3Z H 0.4570 0.0824 0.6799
C6Q C 0.2941(2) 0.46940(18) 0.67329(19)
C6PA C 0.17329(19) 0.2941(2) 1.03060(18)
C6HA C 0.32671(19) 0.2941(2) 0.96940(18)
C6UA C 0.53060(18) 0.32671(19) 0.7059(2)
C6Z C 0.46940(18) 0.17329(19) 0.7059(2)
H4Q H 0.3110 0.4310 0.6877
H4PA H 0.1877 0.3110 1.0690
H4HA H 0.3123 0.3110 0.9310
H4UA H 0.5690 0.3123 0.6890
H4Z H 0.4310 0.1877 0.6890
C7Q C 0.26329(15) 0.50901(13) 0.71606(14)
C7PA C 0.21606(14) 0.26329(15) 0.99099(13)
C7HA C 0.28394(14) 0.26329(15) 1.00901(13)
C7UA C 0.49099(13) 0.28394(14) 0.73671(15)
C7Z C 0.50901(13) 0.21606(14) 0.73671(15)
N1GA N -0.09620(10) 0.59620(10) 0.40380(10)
N1D N 0.09620(10) 0.59620(10) 0.90380(10)
C8N C 0.0371(3) 0.4167(5) 0.6117(4)
C8I C 0.0833(5) 0.3883(4) 0.5371(3)
C8GA C -0.0833(5) 0.6117(4) 0.4629(3)
C8LA C -0.0371(3) 0.5833(5) 0.3883(4)
C8X C -0.1117(4) 0.5371(3) 0.4167(5)
H5I H 0.1014 0.3513 0.5208
H5LA H -0.0208 0.6014 0.3513
H5X H -0.1487 0.5208 0.3986
H5GA H -0.1014 0.6487 0.4792
H5N H 0.0208 0.3986 0.6487
C9N C -0.0021(4) 0.4555(5) 0.5764(4)
C9I C 0.0445(5) 0.4236(4) 0.4979(4)
C9GA C -0.0445(5) 0.5764(4) 0.5021(4)
C9LA C 0.0021(4) 0.5445(5) 0.4236(4)
C9X C -0.0764(4) 0.4979(4) 0.4555(5)
H6I H 0.0349 0.4096 0.4569
H6LA H 0.0431 0.5349 0.4096
H6X H -0.0904 0.4569 0.4651
H6GA H -0.0349 0.5904 0.5431
H6N H -0.0431 0.4651 0.5904
C10GA C -0.02035(14) 0.52035(14) 0.47965(14)
loop_
_geom_bond_atom_site_label_1
_geom_bond_atom_site_label_2
_geom_bond_site_symmetry_1
_geom_bond_site_symmetry_2
Zn1 O2 1_555 1_555
Zn2 O1 1_555 1_555
O1 C1 1_555 1_555
O2 C1 1_555 1_555
C1 C2 1_555 1_555
C2 C3 1_555 1_555
C3 H1 1_555 1_555
C4 C3 1_555 1_555
H2 C4 1_555 1_555
C5 C4 1_555 1_555
H3 C5 1_555 1_555
C6 C5 1_555 1_555
H4 C6 1_555 1_555
C7 C2 1_555 1_555
N1 Zn1 1_555 1_555
C8 N1 1_555 1_555
H5 C8 1_555 1_555
C9 C8 1_555 1_555
H6 C9 1_555 1_555
C10 C9 1_555 1_555
Zn1D O2Q 1_555 1_555
Zn1GA N1GA 1_555 1_555
Zn1PA O2PA 1_555 1_555
Zn1EA O2HA 1_555 1_555
Zn1DA O2Z 1_555 1_555
Zn2D O1Q 1_555 1_555
Zn2EA O1HA 1_555 1_555
Zn2E O1Z 1_555 1_555
O1Q C1Q 1_555 1_555
O1PA Zn2 1_555 1_555
O1HA C1HA 1_555 1_555
O1UA Zn2 1_555 1_555
O1Z C1Z 1_555 1_555
O1AA Zn2 1_555 1_555
O1I Zn2 1_555 1_555
O1N Zn2 1_555 1_555
O2Q C1Q 1_555 1_555
O2PA C1PA 1_555 1_555
O2HA C1HA 1_555 1_555
O2UA Zn1PA 1_555 1_555
O2Z C1Z 1_555 1_555
O2I Zn1 1_555 1_555
O2N Zn1 1_555 1_555
O2D Zn1D 1_555 1_555
O2U Zn1D 1_555 1_555
C1Q C2Q 1_555 1_555
C1PA O1PA 1_555 1_555
C1HA C2HA 1_555 1_555
C1UA O1UA 1_555 1_555
C1Z C2Z 1_555 1_555
C2Q C3Q 1_555 1_555
C2PA C1PA 1_555 1_555
C2HA C3HA 1_555 1_555
C2UA C1UA 1_555 1_555
C2Z C3Z 1_555 1_555
C3Q H1Q 1_555 1_555
C3PA C2PA 1_555 1_555
C3HA H1HA 1_555 1_555
C3UA C2UA 1_555 1_555
C3Z H1Z 1_555 1_555
H1PA C3PA 1_555 1_555
H1UA C3UA 1_555 1_555
C4Q C3Q 1_555 1_555
C4PA C3PA 1_555 1_555
C4HA C3HA 1_555 1_555
C4UA C3UA 1_555 1_555
C4Z C3Z 1_555 1_555
H2Q C4Q 1_555 1_555
H2PA C4PA 1_555 1_555
H2HA C4HA 1_555 1_555
H2UA C4UA 1_555 1_555
H2Z C4Z 1_555 1_555
C5Q C4Q 1_555 1_555
C5PA C4PA 1_555 1_555
C5HA C4HA 1_555 1_555
C5UA C4UA 1_555 1_555
C5Z C4Z 1_555 1_555
H3Q C5Q 1_555 1_555
H3PA C5PA 1_555 1_555
H3HA C5HA 1_555 1_555
H3UA C5UA 1_555 1_555
H3Z C5Z 1_555 1_555
C6Q C5Q 1_555 1_555
C6PA C5PA 1_555 1_555
C6HA C5HA 1_555 1_555
C6UA C5UA 1_555 1_555
C6Z C5Z 1_555 1_555
H4Q C6Q 1_555 1_555
H4PA C6PA 1_555 1_555
H4HA C6HA 1_555 1_555
H4UA C6UA 1_555 1_555
H4Z C6Z 1_555 1_555
C7Q C7 1_555 1_555
C7PA C2PA 1_555 1_555
C7HA C2HA 1_555 1_555
C7UA C2UA 1_555 1_555
C7Z C2Z 1_555 1_555
N1GA C8GA 1_555 1_555
N1D Zn1D 1_555 1_555
C8N N1 1_555 1_555
C8I N1 1_555 1_555
C8GA H5GA 1_555 1_555
C8LA N1GA 1_555 1_555
C8X N1GA 1_555 1_555
H5I C8I 1_555 1_555
H5LA C8LA 1_555 1_555
H5X C8X 1_555 1_555
H5N C8N 1_555 1_555
C9N C10 1_555 1_555
C9I C10 1_555 1_555
C9GA C8GA 1_555 1_555
C9LA C8LA 1_555 1_555
C9X C8X 1_555 1_555
H6I C9I 1_555 1_555
H6LA C9LA 1_555 1_555
H6X C9X 1_555 1_555
H6GA C9GA 1_555 1_555
H6N C9N 1_555 1_555
C10GA C10 1_555 1_555
C6 C7 1_555 1_555
O2UA C1UA 1_555 1_555
C2Q C7Q 1_555 1_555
C6Q C7Q 1_555 1_555
C6PA C7PA 1_555 1_555
C6HA C7HA 1_555 1_555
C6UA C7UA 1_555 1_555
C6Z C7Z 1_555 1_555
C7PA C7HA 1_555 1_555
C7UA C7Z 1_555 1_555
C8N C9N 1_555 1_555
C8I C9I 1_555 1_555
C9GA C10GA 1_555 1_555
C9LA C10GA 1_555 1_555
C9X C10GA 1_555 1_555

#END
