
#######################################################################
#
#                 Cambridge Crystallographic Data Centre
#                                CCDC 
#
#######################################################################
#
# If this CIF has been generated from an entry in the Cambridge 
# Structural Database, then it will include bibliographic, chemical, 
# crystal, experimental, refinement or atomic coordinate data resulting 
# from the CCDC's data processing and validation procedures.
#
#######################################################################

data_MIYMUC
_symmetry_cell_setting           monoclinic
_symmetry_space_group_name_H-M   'P 21/n'
_symmetry_Int_Tables_number      14
_space_group_name_Hall           '-P 2yn'
loop_
_symmetry_equiv_pos_site_id
_symmetry_equiv_pos_as_xyz
1 x,y,z
2 1/2-x,1/2+y,1/2-z
3 -x,-y,-z
4 1/2+x,1/2-y,1/2+z
_cell_length_a                   6.7380(10)
_cell_length_b                   25.636(3)
_cell_length_c                   10.3740(10)
_cell_angle_alpha                90
_cell_angle_beta                 106.130(10)
_cell_angle_gamma                90
_cell_volume                     1721.41
loop_
_atom_site_label
_atom_site_type_symbol
_atom_site_fract_x
_atom_site_fract_y
_atom_site_fract_z
Zn1 Zn 0.58183(7) 0.099029(17) 0.45054(4)
N1 N 0.8080(5) 0.16085(12) 0.5123(3)
N2 N 0.4007(5) 0.16563(12) 0.3838(3)
C1 C 1.0066(7) 0.15834(16) 0.5767(4)
C2 C 1.1317(7) 0.20272(18) 0.6142(4)
C3 C 1.0455(7) 0.25066(18) 0.5832(4)
C4 C 0.8354(6) 0.25537(15) 0.5142(4)
C5 C 0.7325(7) 0.30435(17) 0.4776(4)
C6 C 0.5308(7) 0.30643(17) 0.4109(4)
C7 C 0.4098(6) 0.26000(15) 0.3759(4)
C8 C 0.2006(7) 0.26008(18) 0.3045(4)
C9 C 0.0978(7) 0.2140(2) 0.2746(5)
C10 C 0.2019(6) 0.16740(18) 0.3160(4)
C11 C 0.5061(6) 0.21118(15) 0.4120(3)
C12 C 0.7222(6) 0.20878(14) 0.4811(3)
C13 C 0.6829(6) 0.08649(15) 0.2065(4)
C14 C 0.7377(8) 0.05552(19) 0.0956(4)
C15 C 0.6544(8) 0.07991(19) -0.0418(4)
C16 C 0.7227(8) 0.05191(18) -0.1510(4)
C17 C 0.6540(6) 0.07729(15) -0.2887(4)
O1 O 0.6680(5) 0.06054(10) 0.3083(2)
O2 O 0.6662(6) 0.13406(12) 0.1967(3)
O3 O 0.5512(5) 0.11790(11) -0.3077(3)
O4 O 0.7072(5) 0.05393(11) -0.3833(2)
O5 O 0.2980(5) 0.05452(13) 0.4161(3)
H1 H 1.066(6) 0.1242(16) 0.595(3)
H2 H 1.261(7) 0.1955(18) 0.651(4)
H3 H 1.119(6) 0.2794(16) 0.596(4)
H4 H 0.810(7) 0.3328(18) 0.489(5)
H5 H 0.451(7) 0.3404(18) 0.387(4)
H6 H 0.124(7) 0.2916(19) 0.271(4)
H7 H -0.027(8) 0.2117(19) 0.225(5)
H8 H 0.141(6) 0.1348(15) 0.295(3)
H9 H 0.897(8) 0.0543(19) 0.114(4)
H10 H 0.680(8) 0.022(2) 0.092(5)
H11 H 0.692(7) 0.1175(19) -0.040(4)
H12 H 0.516(7) 0.0792(16) -0.071(4)
H13 H 0.891(7) 0.0531(18) -0.130(4)
H14 H 0.669(7) 0.0164(19) -0.161(4)
H15 H 0.244(7) 0.0515(17) 0.478(4)
H16 H 0.322(11) 0.025(3) 0.397(7)
O4_2 O 0.7072(5) 0.05393(11) 0.6167(2)
Zn1_2 Zn 0.58183(7) 0.099029(17) -0.54946(4)
O6 O 0.1486(7) 0.03545(15) 0.6355(4)
H17 H 0.189(7) 0.0036(19) 0.655(4)
H18 H 0.044(8) 0.035(2) 0.617(5)
loop_
_geom_bond_atom_site_label_1
_geom_bond_atom_site_label_2
_geom_bond_site_symmetry_1
_geom_bond_site_symmetry_2
Zn1 N1 1_555 1_555
N1 C1 1_555 1_555
N2 Zn1 1_555 1_555
C1 C2 1_555 1_555
C2 C3 1_555 1_555
C3 C4 1_555 1_555
C4 C5 1_555 1_555
C5 C6 1_555 1_555
C6 C7 1_555 1_555
C7 C8 1_555 1_555
C8 C9 1_555 1_555
C9 C10 1_555 1_555
C10 N2 1_555 1_555
C11 N2 1_555 1_555
C12 N1 1_555 1_555
C13 C14 1_555 1_555
C14 C15 1_555 1_555
C15 C16 1_555 1_555
C16 C17 1_555 1_555
C17 O3 1_555 1_555
O1 Zn1 1_555 1_555
O2 C13 1_555 1_555
O4 C17 1_555 1_555
O5 Zn1 1_555 1_555
H1 C1 1_555 1_555
H2 C2 1_555 1_555
H3 C3 1_555 1_555
H4 C5 1_555 1_555
H5 C6 1_555 1_555
H6 C8 1_555 1_555
H7 C9 1_555 1_555
H8 C10 1_555 1_555
H9 C14 1_555 1_555
H10 C14 1_555 1_555
H11 C15 1_555 1_555
H12 C15 1_555 1_555
H13 C16 1_555 1_555
H14 C16 1_555 1_555
H15 O5 1_555 1_555
H16 O5 1_555 1_555
O6 H17 1_555 1_555
H18 O6 1_555 1_555
O4_2 Zn1 1_555 1_555
Zn1_2 O4 1_555 1_555
C4 C12 1_555 1_555
C7 C11 1_555 1_555
C11 C12 1_555 1_555
C13 O1 1_555 1_555

#END
