
#######################################################################
#
#                 Cambridge Crystallographic Data Centre
#                                CCDC 
#
#######################################################################
#
# If this CIF has been generated from an entry in the Cambridge 
# Structural Database, then it will include bibliographic, chemical, 
# crystal, experimental, refinement or atomic coordinate data resulting 
# from the CCDC's data processing and validation procedures.
#
#######################################################################

data_MIYNAJ
_symmetry_cell_setting           monoclinic
_symmetry_space_group_name_H-M   'C 2/c'
_symmetry_Int_Tables_number      15
_space_group_name_Hall           '-C 2yn'
loop_
_symmetry_equiv_pos_site_id
_symmetry_equiv_pos_as_xyz
1 x,y,z
2 1/2+x,1/2+y,z
3 x,-y,1/2+z
4 1/2+x,1/2-y,1/2+z
5 -x,-y,-z
6 1/2-x,1/2-y,-z
7 -x,y,1/2-z
8 1/2-x,1/2+y,1/2-z
_cell_length_a                   22.451(4)
_cell_length_b                   9.0410(10)
_cell_length_c                   17.440(3)
_cell_angle_alpha                90
_cell_angle_beta                 103.410(10)
_cell_angle_gamma                90
_cell_volume                     3443.45
loop_
_atom_site_label
_atom_site_type_symbol
_atom_site_fract_x
_atom_site_fract_y
_atom_site_fract_z
Ni1 Ni 0.64145(4) 0.67572(11) 0.51728(6)
N1 N 0.5552(3) 0.7375(7) 0.5288(4)
N2 N 0.6648(2) 0.8280(7) 0.6090(3)
C1 C 0.5015(3) 0.6886(9) 0.4889(4)
H1 H 0.5002 0.6113 0.4534
C2 C 0.4474(3) 0.7489(10) 0.4984(5)
H2 H 0.4102 0.7122 0.4696
C3 C 0.4484(3) 0.8622(10) 0.5498(5)
H3 H 0.4119 0.9041 0.5557
C4 C 0.5045(3) 0.9159(9) 0.5938(4)
C5 C 0.5119(4) 1.0369(10) 0.6487(5)
H4 H 0.4770 1.0835 0.6572
C6 C 0.5661(4) 1.0848(10) 0.6876(5)
H5 H 0.5688 1.1649 0.7217
C7 C 0.6199(3) 1.0149(9) 0.6777(4)
C8 C 0.6770(4) 1.0601(10) 0.7160(5)
H6 H 0.6819 1.1374 0.7521
C9 C 0.7277(4) 0.9894(9) 0.7006(5)
H7 H 0.7669 1.0199 0.7261
C10 C 0.7201(4) 0.8710(9) 0.6462(4)
H8 H 0.7543 0.8231 0.6366
C11 C 0.6160(3) 0.8973(8) 0.6240(4)
C12 C 0.5569(3) 0.8506(8) 0.5810(4)
O1 O 0.7300(2) 0.5897(6) 0.5340(3)
O2 O 0.6627(2) 0.4864(6) 0.5909(3)
C13 C 0.7164(3) 0.4820(9) 0.5740(4)
C14 C 0.7597(3) 0.3560(9) 0.5983(4)
H9 H 0.7972 0.3929 0.6323
H10 H 0.7416 0.2858 0.6285
C15 C 0.7744(4) 0.2790(10) 0.5301(5)
H11 H 0.7973 0.3475 0.5052
H12 H 0.8017 0.1977 0.5505
O3 O 0.6098(2) 0.5343(6) 0.4242(3)
O4 O 0.6268(3) 0.6675(8) 0.3241(3)
C16 C 0.6103(4) 0.5492(11) 0.3522(5)
C17 C 0.5895(5) 0.4236(12) 0.3005(5)
H13 H 0.6039 0.3327 0.3282
H14 H 0.6071 0.4300 0.2548
C18 C 0.5184(12) 0.418(3) 0.2727(7)
H15 H 0.5100 0.3305 0.3002
H16 H 0.5077 0.4995 0.3034
O5 O 0.6498(3) 0.8467(7) 0.4433(5)
H17 H 0.644(3) 0.813(8) 0.407(3)
H18 H 0.687(4) 0.856(11) 0.449(5)
C15E C 0.7256(4) 0.2210(10) 0.4699(5)
C14E C 0.7403(3) 0.1440(9) 0.4017(4)
C13E C 0.7836(3) 0.0180(9) 0.4260(4)
O1E O 0.7700(2) -0.0897(6) 0.4660(3)
O2E O 0.8373(2) 0.0136(6) 0.4091(3)
H9E H 0.7028 0.1071 0.3677
H10E H 0.7584 0.2142 0.3715
H11E H 0.7027 0.1525 0.4948
H12E H 0.6983 0.3023 0.4495
C18F C 0.4816(12) 0.418(3) 0.2273(7)
C17F C 0.4105(5) 0.4236(12) 0.1995(5)
C16F C 0.3897(4) 0.5492(11) 0.1478(5)
O3F O 0.3902(2) 0.5343(6) 0.0758(3)
O4F O 0.3732(3) 0.6675(8) 0.1759(3)
H13F H 0.3961 0.3327 0.1718
H14F H 0.3929 0.4300 0.2452
H15F H 0.4900 0.3305 0.1998
H16F H 0.4923 0.4995 0.1966
Ni1E Ni 0.85855(4) -0.17572(11) 0.48272(6)
N1E N 0.9448(3) -0.2375(7) 0.4712(4)
N2E N 0.8352(2) -0.3280(7) 0.3910(3)
C1E C 0.9985(3) -0.1886(9) 0.5111(4)
H1E H 0.9998 -0.1113 0.5466
C2E C 1.0526(3) -0.2489(10) 0.5016(5)
H2E H 1.0898 -0.2122 0.5304
C3E C 1.0516(3) -0.3622(10) 0.4502(5)
H3E H 1.0881 -0.4041 0.4443
C4E C 0.9955(3) -0.4159(9) 0.4062(4)
C5E C 0.9881(4) -0.5369(10) 0.3513(5)
H4E H 1.0230 -0.5835 0.3428
C6E C 0.9339(4) -0.5848(10) 0.3124(5)
H5E H 0.9312 -0.6649 0.2783
C7E C 0.8801(3) -0.5149(9) 0.3223(4)
C8E C 0.8230(4) -0.5601(10) 0.2840(5)
H6E H 0.8181 -0.6374 0.2479
C9E C 0.7723(4) -0.4894(9) 0.2994(5)
H7E H 0.7331 -0.5199 0.2739
C10E C 0.7799(4) -0.3710(9) 0.3538(4)
H8E H 0.7457 -0.3231 0.3634
C11E C 0.8840(3) -0.3973(8) 0.3760(4)
C12E C 0.9431(3) -0.3506(8) 0.4190(4)
O5E O 0.8502(3) -0.3467(7) 0.5567(5)
H17E H 0.856(3) -0.313(8) 0.593(3)
H18E H 0.813(4) -0.356(11) 0.551(5)
Ni1F Ni 0.35855(4) 0.67572(11) -0.01728(6)
O3E O 0.8902(2) -0.0343(6) 0.5758(3)
loop_
_geom_bond_atom_site_label_1
_geom_bond_atom_site_label_2
_geom_bond_site_symmetry_1
_geom_bond_site_symmetry_2
Ni1 N1 1_555 1_555
N1 C1 1_555 1_555
N2 Ni1 1_555 1_555
C1 H1 1_555 1_555
C2 C1 1_555 1_555
H2 C2 1_555 1_555
C3 C2 1_555 1_555
H3 C3 1_555 1_555
C4 C3 1_555 1_555
C5 C4 1_555 1_555
H4 C5 1_555 1_555
C6 C5 1_555 1_555
H5 C6 1_555 1_555
C7 C6 1_555 1_555
C8 C7 1_555 1_555
H6 C8 1_555 1_555
C9 C8 1_555 1_555
H7 C9 1_555 1_555
C10 N2 1_555 1_555
H8 C10 1_555 1_555
C11 N2 1_555 1_555
C12 N1 1_555 1_555
O1 Ni1 1_555 1_555
O2 Ni1 1_555 1_555
C13 O1 1_555 1_555
C14 C13 1_555 1_555
H9 C14 1_555 1_555
H10 C14 1_555 1_555
C15 C14 1_555 1_555
H11 C15 1_555 1_555
H12 C15 1_555 1_555
O3 Ni1 1_555 1_555
O4 C16 1_555 1_555
C16 O3 1_555 1_555
C17 C16 1_555 1_555
H13 C17 1_555 1_555
H14 C17 1_555 1_555
C18 C17 1_555 1_555
H15 C18 1_555 1_555
H16 C18 1_555 1_555
O5 Ni1 1_555 1_555
H17 O5 1_555 1_555
H18 O5 1_555 1_555
C15E C15 1_555 1_555
C14E C15E 1_555 1_555
C13E C14E 1_555 1_555
O1E C13E 1_555 1_555
O2E C13E 1_555 1_555
H9E C14E 1_555 1_555
H10E C14E 1_555 1_555
H11E C15E 1_555 1_555
H12E C15E 1_555 1_555
C18F C18 1_555 1_555
C17F C18F 1_555 1_555
C16F C17F 1_555 1_555
O3F C16F 1_555 1_555
O4F C16F 1_555 1_555
H13F C17F 1_555 1_555
H14F C17F 1_555 1_555
H15F C18F 1_555 1_555
H16F C18F 1_555 1_555
Ni1E O1E 1_555 1_555
N1E Ni1E 1_555 1_555
N2E Ni1E 1_555 1_555
C1E N1E 1_555 1_555
H1E C1E 1_555 1_555
C2E C1E 1_555 1_555
H2E C2E 1_555 1_555
C3E C2E 1_555 1_555
H3E C3E 1_555 1_555
C4E C3E 1_555 1_555
C5E C4E 1_555 1_555
H4E C5E 1_555 1_555
C6E C5E 1_555 1_555
H5E C6E 1_555 1_555
C7E C6E 1_555 1_555
C8E C7E 1_555 1_555
H6E C8E 1_555 1_555
C9E C8E 1_555 1_555
H7E C9E 1_555 1_555
C10E N2E 1_555 1_555
H8E C10E 1_555 1_555
C11E N2E 1_555 1_555
C12E N1E 1_555 1_555
O5E Ni1E 1_555 1_555
H17E O5E 1_555 1_555
H18E O5E 1_555 1_555
Ni1F O3F 1_555 1_555
O3E Ni1E 1_555 1_555
C4 C12 1_555 1_555
C7 C11 1_555 1_555
C9 C10 1_555 1_555
C11 C12 1_555 1_555
O2 C13 1_555 1_555
O2E Ni1E 1_555 1_555
C4E C12E 1_555 1_555
C7E C11E 1_555 1_555
C9E C10E 1_555 1_555
C11E C12E 1_555 1_555

#END
