
#######################################################################
#
#                 Cambridge Crystallographic Data Centre
#                                CCDC 
#
#######################################################################
#
# If this CIF has been generated from an entry in the Cambridge 
# Structural Database, then it will include bibliographic, chemical, 
# crystal, experimental, refinement or atomic coordinate data resulting 
# from the CCDC's data processing and validation procedures.
#
#######################################################################

data_MIYYIE
_symmetry_cell_setting           monoclinic
_symmetry_space_group_name_H-M   'P 21/n'
_symmetry_Int_Tables_number      14
_space_group_name_Hall           '-P 2yn'
loop_
_symmetry_equiv_pos_site_id
_symmetry_equiv_pos_as_xyz
1 x,y,z
2 1/2-x,1/2+y,1/2-z
3 -x,-y,-z
4 1/2+x,1/2-y,1/2+z
_cell_length_a                   8.2622(3)
_cell_length_b                   12.1100(6)
_cell_length_c                   19.6599(9)
_cell_angle_alpha                90
_cell_angle_beta                 95.452(4)
_cell_angle_gamma                90
_cell_volume                     1958.18
loop_
_atom_site_label
_atom_site_type_symbol
_atom_site_fract_x
_atom_site_fract_y
_atom_site_fract_z
Ni1 Ni 0.98794(15) 0.96556(10) 0.77081(6)
O1 O 1.2364(9) 0.9796(7) 0.7815(4)
O2 O 1.4230(10) 1.0670(7) 0.7279(3)
O3 O 1.7267(9) 1.2398(6) 0.7730(4)
O4 O 1.4846(8) 1.3156(5) 0.7804(3)
O5 O 0.9719(10) 1.1122(6) 0.8242(4)
H1 H 0.898(10) 1.157(7) 0.808(3)
H2 H 0.968(14) 1.106(6) 0.8671(11)
O6 O 0.7370(9) 0.9511(6) 0.7656(4)
H3 H 0.685(4) 0.898(5) 0.745(6)
H4 H 0.673(4) 1.005(3) 0.769(6)
N1 N 0.9805(11) 0.8787(7) 0.8634(4)
N2 N 1.1818(11) 0.5897(7) 1.0150(4)
N3 N 1.2473(12) 0.4573(8) 0.9401(4)
N4 N 1.1600(11) 0.5417(7) 0.9071(4)
H5 H 1.1315 0.5440 0.8639
N5 N 1.4636(10) 0.4457(7) 1.1781(4)
C1 C 1.3592(11) 1.0399(8) 0.7805(4)
C2 C 1.4475(11) 1.0768(8) 0.8470(5)
C3 C 1.4225(12) 1.0156(8) 0.9061(5)
H6 H 1.3442 0.9602 0.9032
C4 C 1.5123(11) 1.0359(8) 0.9698(4)
C5 C 1.6251(12) 1.1201(8) 0.9724(4)
H7 H 1.6881 1.1342 1.0132
C6 C 1.6470(12) 1.1845(8) 0.9153(5)
H8 H 1.7215 1.2422 0.9189
C7 C 1.5579(11) 1.1632(8) 0.8525(5)
C8 C 1.5908(11) 1.2440(8) 0.7954(5)
C9 C 0.9023(14) 0.9240(10) 0.9128(6)
H9 H 0.8526 0.9922 0.9043
C10 C 0.8910(15) 0.8752(10) 0.9758(6)
H10 H 0.8358 0.9102 1.0088
C11 C 0.9627(14) 0.7744(9) 0.9885(5)
H11 H 0.9601 0.7407 1.0309
C12 C 1.0407(12) 0.7228(8) 0.9362(5)
C13 C 1.0472(12) 0.7792(8) 0.8751(5)
H12 H 1.1003 0.7462 0.8407
C14 C 1.1258(13) 0.6194(8) 0.9517(5)
C15 C 1.2573(13) 0.4927(8) 1.0045(5)
C16 C 1.3494(13) 0.4342(9) 1.0621(5)
C17 C 1.3767(13) 0.4870(8) 1.1235(5)
H13 H 1.3315 0.5568 1.1275
C18 C 1.5258(14) 0.3434(9) 1.1722(5)
H14 H 1.5853 0.3117 1.2098
C19 C 1.5034(16) 0.2848(10) 1.1122(6)
H15 H 1.5459 0.2139 1.1097
C20 C 1.4176(15) 0.3314(10) 1.0554(6)
H16 H 1.4062 0.2943 1.0138
O1B O 1.7636(9) 1.0204(7) 1.2185(4)
O2B O 1.5770(10) 0.9330(7) 1.2721(3)
O3B O 1.2733(9) 0.7602(6) 1.2270(4)
O4B O 1.5154(8) 0.6844(5) 1.2196(3)
C1B C 1.6408(11) 0.9601(8) 1.2195(4)
C2B C 1.5525(11) 0.9232(8) 1.1530(5)
C3B C 1.5775(12) 0.9844(8) 1.0939(5)
H6B H 1.6558 1.0398 1.0968
C4B C 1.4877(11) 0.9641(8) 1.0302(4)
C5B C 1.3749(12) 0.8799(8) 1.0276(4)
H7B H 1.3119 0.8658 0.9868
C6B C 1.3530(12) 0.8155(8) 1.0847(5)
H8B H 1.2785 0.7578 1.0811
C7B C 1.4421(11) 0.8368(8) 1.1475(5)
C8B C 1.4092(11) 0.7560(8) 1.2046(5)
Ni1B Ni 2.01206(15) 1.03444(10) 1.22919(6)
O5B O 2.0281(10) 0.8878(6) 1.1758(4)
H1B H 2.102(10) 0.843(7) 1.192(3)
H2B H 2.032(14) 0.894(6) 1.1329(11)
O6B O 2.2630(9) 1.0489(6) 1.2344(4)
H3B H 2.315(4) 1.102(5) 1.255(6)
H4B H 2.327(4) 0.995(3) 1.231(6)
N1B N 2.0195(11) 1.1213(7) 1.1366(4)
N2B N 1.8182(11) 1.4103(7) 0.9850(4)
N3B N 1.7527(12) 1.5427(8) 1.0599(4)
N4B N 1.8400(11) 1.4583(7) 1.0929(4)
H5B H 1.8685 1.4560 1.1361
N5B N 1.5364(10) 1.5543(7) 0.8219(4)
C9B C 2.0977(14) 1.0760(10) 1.0872(6)
H9B H 2.1474 1.0078 1.0957
C10B C 2.1090(15) 1.1248(10) 1.0242(6)
H10B H 2.1642 1.0898 0.9912
C11B C 2.0373(14) 1.2256(9) 1.0115(5)
H11B H 2.0399 1.2593 0.9691
C12B C 1.9593(12) 1.2772(8) 1.0638(5)
C13B C 1.9528(12) 1.2208(8) 1.1249(5)
H12B H 1.8997 1.2538 1.1593
C14B C 1.8742(13) 1.3806(8) 1.0483(5)
C15B C 1.7427(13) 1.5073(8) 0.9955(5)
C16B C 1.6506(13) 1.5658(9) 0.9379(5)
C17B C 1.6233(13) 1.5130(8) 0.8765(5)
H13B H 1.6685 1.4432 0.8725
C18B C 1.4742(14) 1.6566(9) 0.8278(5)
H14B H 1.4147 1.6883 0.7902
C19B C 1.4966(16) 1.7152(10) 0.8878(6)
H15B H 1.4541 1.7861 0.8903
C20B C 1.5824(15) 1.6686(10) 0.9446(6)
H16B H 1.5938 1.7057 0.9862
Ni1A Ni 1.51206(15) 1.46556(10) 0.72919(6)
Ni1C Ni 1.48794(15) 0.53444(10) 1.27081(6)
O4A O 1.0154(8) 0.8156(5) 0.7196(3)
O4C O 1.9846(8) 1.1844(5) 1.2804(3)
N5A N 2.0364(10) 0.9457(7) 1.3219(4)
N5C N 0.9636(10) 1.0543(7) 0.6781(4)
O7 O 1.1885(12) 1.2836(9) 0.8368(6)
H17 H 1.102(11) 1.285(16) 0.810(6)
H18 H 1.168(17) 1.306(15) 0.876(3)
loop_
_geom_bond_atom_site_label_1
_geom_bond_atom_site_label_2
_geom_bond_site_symmetry_1
_geom_bond_site_symmetry_2
Ni1 O1 1_555 1_555
O1 C1 1_555 1_555
O2 C1 1_555 1_555
O3 C8 1_555 1_555
O4 C8 1_555 1_555
O5 Ni1 1_555 1_555
H1 O5 1_555 1_555
H2 O5 1_555 1_555
O6 Ni1 1_555 1_555
H3 O6 1_555 1_555
H4 O6 1_555 1_555
N1 Ni1 1_555 1_555
N2 C14 1_555 1_555
N3 N4 1_555 1_555
N4 H5 1_555 1_555
N5 C17 1_555 1_555
C1 C2 1_555 1_555
C2 C3 1_555 1_555
C3 H6 1_555 1_555
C4 C3 1_555 1_555
C5 C4 1_555 1_555
H7 C5 1_555 1_555
C6 C5 1_555 1_555
H8 C6 1_555 1_555
C7 C2 1_555 1_555
C8 C7 1_555 1_555
C9 N1 1_555 1_555
H9 C9 1_555 1_555
C10 C9 1_555 1_555
H10 C10 1_555 1_555
C11 C10 1_555 1_555
H11 C11 1_555 1_555
C12 C11 1_555 1_555
C13 N1 1_555 1_555
H12 C13 1_555 1_555
C14 N4 1_555 1_555
C15 N2 1_555 1_555
C16 C15 1_555 1_555
C17 C16 1_555 1_555
H13 C17 1_555 1_555
C18 N5 1_555 1_555
H14 C18 1_555 1_555
C19 C18 1_555 1_555
H15 C19 1_555 1_555
C20 C16 1_555 1_555
H16 C20 1_555 1_555
O7 H17 1_555 1_555
H18 O7 1_555 1_555
O1B C1B 1_555 1_555
O2B C1B 1_555 1_555
O3B C8B 1_555 1_555
O4B C8B 1_555 1_555
C1B C2B 1_555 1_555
C2B C3B 1_555 1_555
C3B H6B 1_555 1_555
C4B C4 1_555 1_555
C5B C4B 1_555 1_555
H7B C5B 1_555 1_555
C6B C5B 1_555 1_555
H8B C6B 1_555 1_555
C7B C2B 1_555 1_555
C8B C7B 1_555 1_555
Ni1B O1B 1_555 1_555
O5B Ni1B 1_555 1_555
H1B O5B 1_555 1_555
H2B O5B 1_555 1_555
O6B Ni1B 1_555 1_555
H3B O6B 1_555 1_555
H4B O6B 1_555 1_555
N1B Ni1B 1_555 1_555
N2B C14B 1_555 1_555
N3B N4B 1_555 1_555
N4B H5B 1_555 1_555
N5B C17B 1_555 1_555
C9B N1B 1_555 1_555
H9B C9B 1_555 1_555
C10B C9B 1_555 1_555
H10B C10B 1_555 1_555
C11B C10B 1_555 1_555
H11B C11B 1_555 1_555
C12B C11B 1_555 1_555
C13B N1B 1_555 1_555
H12B C13B 1_555 1_555
C14B N4B 1_555 1_555
C15B N2B 1_555 1_555
C16B C15B 1_555 1_555
C17B C16B 1_555 1_555
H13B C17B 1_555 1_555
C18B N5B 1_555 1_555
H14B C18B 1_555 1_555
C19B C18B 1_555 1_555
H15B C19B 1_555 1_555
C20B C16B 1_555 1_555
H16B C20B 1_555 1_555
Ni1A O4 1_555 1_555
Ni1C N5 1_555 1_555
O4A Ni1 1_555 1_555
O4C Ni1B 1_555 1_555
N5A Ni1B 1_555 1_555
N5C Ni1 1_555 1_555
N3 C15 1_555 1_555
C6 C7 1_555 1_555
C12 C13 1_555 1_555
C12 C14 1_555 1_555
C19 C20 1_555 1_555
O4B Ni1C 1_555 1_555
C3B C4B 1_555 1_555
C6B C7B 1_555 1_555
N3B C15B 1_555 1_555
N5B Ni1A 1_555 1_555
C12B C13B 1_555 1_555
C12B C14B 1_555 1_555
C19B C20B 1_555 1_555

#END
