
#######################################################################
#
#                 Cambridge Crystallographic Data Centre
#                                CCDC 
#
#######################################################################
#
# If this CIF has been generated from an entry in the Cambridge 
# Structural Database, then it will include bibliographic, chemical, 
# crystal, experimental, refinement or atomic coordinate data resulting 
# from the CCDC's data processing and validation procedures.
#
#######################################################################

data_MIYYEA
_symmetry_cell_setting           monoclinic
_symmetry_space_group_name_H-M   'C 2/c'
_symmetry_Int_Tables_number      15
_space_group_name_Hall           '-C 2yn'
loop_
_symmetry_equiv_pos_site_id
_symmetry_equiv_pos_as_xyz
1 x,y,z
2 -x,y,1/2-z
3 1/2+x,1/2+y,z
4 1/2-x,1/2+y,1/2-z
5 -x,-y,-z
6 x,-y,1/2+z
7 1/2-x,1/2-y,-z
8 1/2+x,1/2-y,1/2+z
_cell_length_a                   25.0845(8)
_cell_length_b                   10.3487(2)
_cell_length_c                   16.3895(7)
_cell_angle_alpha                90
_cell_angle_beta                 114.587(5)
_cell_angle_gamma                90
_cell_volume                     3868.82
loop_
_atom_site_label
_atom_site_type_symbol
_atom_site_fract_x
_atom_site_fract_y
_atom_site_fract_z
Zn1 Zn 0.193250(17) 0.47397(4) 0.25910(3)
O1 O 0.13634(17) 0.3525(3) 0.2921(2)
O2 O 0.18064(11) 0.2742(2) 0.2179(2)
O3 O 0.17316(12) 0.0103(3) 0.10720(17)
O4 O 0.23183(9) 0.0018(2) 0.25179(16)
N1 N 0.13818(12) 0.5524(3) 0.1340(2)
N2 N -0.04065(12) 0.6513(3) 0.08220(19)
N3 N -0.08819(13) 0.8037(4) -0.0121(2)
H1 H -0.1149 0.8598 -0.0398
N4 N -0.03999(13) 0.7823(4) -0.0277(2)
N5 N -0.18400(11) 0.6262(3) 0.16497(19)
C1 C 0.14587(14) 0.2600(3) 0.2519(2)
C2 C 0.11297(13) 0.1362(3) 0.2414(2)
C3 C 0.06223(14) 0.1360(3) 0.2568(2)
H2 H 0.0514 0.2112 0.2771
C4 C 0.02743(12) 0.0264(3) 0.2425(2)
C5 C 0.04478(13) -0.0844(3) 0.2114(2)
H3 H 0.0224 -0.1592 0.2016
C6 C 0.09458(13) -0.0850(3) 0.1951(2)
H4 H 0.1048 -0.1599 0.1736
C7 C 0.12957(12) 0.0243(3) 0.2100(2)
C8 C 0.18236(13) 0.0136(3) 0.1875(2)
C9 C 0.15864(17) 0.5934(4) 0.0751(3)
H5 H 0.1978 0.5783 0.0875
C10 C 0.12451(19) 0.6567(4) -0.0029(3)
H6 H 0.1398 0.6796 -0.0437
C11 C 0.06759(17) 0.6856(4) -0.0195(3)
H7 H 0.0441 0.7307 -0.0711
C12 C 0.04544(15) 0.6470(3) 0.0413(2)
C13 C 0.08186(14) 0.5784(3) 0.1162(2)
H8 H 0.0668 0.5489 0.1559
C14 C -0.01290(14) 0.6900(4) 0.0304(2)
C15 C -0.08828(14) 0.7250(4) 0.0525(2)
C16 C -0.13479(13) 0.7284(3) 0.0849(2)
C17 C -0.17118(15) 0.8350(4) 0.0695(2)
H9 H -0.1669 0.9056 0.0377
C18 C -0.21375(15) 0.8349(3) 0.1021(2)
H10 H -0.2389 0.9051 0.0918
C19 C -0.21857(14) 0.7301(3) 0.1498(2)
H11 H -0.2470 0.7312 0.1724
C20 C -0.14260(13) 0.6257(3) 0.1327(2)
H12 H -0.1185 0.5538 0.1428
O1A O -0.13634(17) 0.3525(3) 0.2079(2)
O2A O -0.18064(11) 0.2742(2) 0.2821(2)
O3A O -0.17316(12) 0.0103(3) 0.39280(17)
O4A O -0.23183(9) 0.0018(2) 0.24821(16)
C1A C -0.14587(14) 0.2600(3) 0.2481(2)
C2A C -0.11297(13) 0.1362(3) 0.2586(2)
C3A C -0.06223(14) 0.1360(3) 0.2432(2)
H2A H -0.0514 0.2112 0.2229
C4A C -0.02743(12) 0.0264(3) 0.2575(2)
C5A C -0.04478(13) -0.0844(3) 0.2886(2)
H3A H -0.0224 -0.1592 0.2984
C6A C -0.09458(13) -0.0850(3) 0.3049(2)
H4A H -0.1048 -0.1599 0.3264
C7A C -0.12957(12) 0.0243(3) 0.2900(2)
C8A C -0.18236(13) 0.0136(3) 0.3125(2)
Zn1A Zn -0.193250(17) 0.47397(4) 0.24090(3)
N1A N -0.13818(12) 0.5524(3) 0.3660(2)
N2A N 0.04065(12) 0.6513(3) 0.41780(19)
N3A N 0.08819(13) 0.8037(4) 0.5121(2)
H1A H 0.1149 0.8598 0.5398
N4A N 0.03999(13) 0.7823(4) 0.5277(2)
N5A N 0.18400(11) 0.6262(3) 0.33503(19)
C9A C -0.15864(17) 0.5934(4) 0.4249(3)
H5A H -0.1978 0.5783 0.4125
C10A C -0.12451(19) 0.6567(4) 0.5029(3)
H6A H -0.1398 0.6796 0.5437
C11A C -0.06759(17) 0.6856(4) 0.5195(3)
H7A H -0.0441 0.7307 0.5711
C12A C -0.04544(15) 0.6470(3) 0.4587(2)
C13A C -0.08186(14) 0.5784(3) 0.3838(2)
H8A H -0.0668 0.5489 0.3441
C14A C 0.01290(14) 0.6900(4) 0.4696(2)
C15A C 0.08828(14) 0.7250(4) 0.4475(2)
C16A C 0.13479(13) 0.7284(3) 0.4151(2)
C17A C 0.17118(15) 0.8350(4) 0.4305(2)
H9A H 0.1669 0.9056 0.4623
C18A C 0.21375(15) 0.8349(3) 0.3979(2)
H10A H 0.2389 0.9051 0.4082
C19A C 0.21857(14) 0.7301(3) 0.3502(2)
H11A H 0.2470 0.7312 0.3276
C20A C 0.14260(13) 0.6257(3) 0.3673(2)
H12A H 0.1185 0.5538 0.3572
Zn1B Zn -0.306750(17) -0.02603(4) 0.25910(3)
Zn1C Zn 0.306750(17) -0.02603(4) 0.24090(3)
O4B O -0.26817(9) 0.5018(2) 0.25179(16)
O4C O 0.26817(9) 0.5018(2) 0.24821(16)
O5 O 0.0000 0.4790(7) 0.2500
H13 H -0.011(7) 0.527(12) 0.204(6)
H13A H 0.011(7) 0.527(12) 0.296(6)
O6 O 0.2478(2) -0.1265(6) 0.0482(5)
H14 H 0.259(4) -0.204(3) 0.062(6)
H15 H 0.218(3) -0.127(9) -0.003(4)
loop_
_geom_bond_atom_site_label_1
_geom_bond_atom_site_label_2
_geom_bond_site_symmetry_1
_geom_bond_site_symmetry_2
Zn1 O1 1_555 1_555
O1 C1 1_555 1_555
O2 Zn1 1_555 1_555
O3 C8 1_555 1_555
O4 C8 1_555 1_555
N1 Zn1 1_555 1_555
N2 C14 1_555 1_555
N3 H1 1_555 1_555
N4 N3 1_555 1_555
N5 C19 1_555 1_555
C1 O2 1_555 1_555
C2 C1 1_555 1_555
C3 C2 1_555 1_555
H2 C3 1_555 1_555
C4 C3 1_555 1_555
C5 C4 1_555 1_555
H3 C5 1_555 1_555
C6 C5 1_555 1_555
H4 C6 1_555 1_555
C7 C2 1_555 1_555
C8 C7 1_555 1_555
C9 N1 1_555 1_555
H5 C9 1_555 1_555
C10 C9 1_555 1_555
H6 C10 1_555 1_555
C11 C10 1_555 1_555
H7 C11 1_555 1_555
C12 C11 1_555 1_555
C13 N1 1_555 1_555
H8 C13 1_555 1_555
C14 N4 1_555 1_555
C15 N2 1_555 1_555
C16 C15 1_555 1_555
C17 C16 1_555 1_555
H9 C17 1_555 1_555
C18 C17 1_555 1_555
H10 C18 1_555 1_555
C19 C18 1_555 1_555
H11 C19 1_555 1_555
C20 N5 1_555 1_555
H12 C20 1_555 1_555
O5 H13 1_555 1_555
O6 H14 1_555 1_555
H15 O6 1_555 1_555
O1A C1A 1_555 1_555
O2A C1A 1_555 1_555
O3A C8A 1_555 1_555
O4A C8A 1_555 1_555
C1A C2A 1_555 1_555
C2A C3A 1_555 1_555
C3A H2A 1_555 1_555
C4A C4 1_555 1_555
C5A C4A 1_555 1_555
H3A C5A 1_555 1_555
C6A C5A 1_555 1_555
H4A C6A 1_555 1_555
C7A C2A 1_555 1_555
C8A C7A 1_555 1_555
Zn1A N5 1_555 1_555
N1A Zn1A 1_555 1_555
N2A C14A 1_555 1_555
N3A H1A 1_555 1_555
N4A N3A 1_555 1_555
N5A Zn1 1_555 1_555
C9A N1A 1_555 1_555
H5A C9A 1_555 1_555
C10A C9A 1_555 1_555
H6A C10A 1_555 1_555
C11A C10A 1_555 1_555
H7A C11A 1_555 1_555
C12A C11A 1_555 1_555
C13A N1A 1_555 1_555
H8A C13A 1_555 1_555
C14A N4A 1_555 1_555
C15A N2A 1_555 1_555
C16A C15A 1_555 1_555
C17A C16A 1_555 1_555
H9A C17A 1_555 1_555
C18A C17A 1_555 1_555
H10A C18A 1_555 1_555
C19A N5A 1_555 1_555
H11A C19A 1_555 1_555
C20A N5A 1_555 1_555
H12A C20A 1_555 1_555
Zn1B O4A 1_555 1_555
Zn1C O4 1_555 1_555
O4B Zn1A 1_555 1_555
O4C Zn1 1_555 1_555
H13A O5 1_555 1_555
N3 C15 1_555 1_555
C6 C7 1_555 1_555
C12 C13 1_555 1_555
C12 C14 1_555 1_555
C16 C20 1_555 1_555
O1A Zn1A 1_555 1_555
O2A Zn1A 1_555 1_555
C3A C4A 1_555 1_555
C6A C7A 1_555 1_555
N3A C15A 1_555 1_555
C12A C13A 1_555 1_555
C12A C14A 1_555 1_555
C16A C20A 1_555 1_555
C18A C19A 1_555 1_555

#END
