
#######################################################################
#
#                 Cambridge Crystallographic Data Centre
#                                CCDC 
#
#######################################################################
#
# If this CIF has been generated from an entry in the Cambridge 
# Structural Database, then it will include bibliographic, chemical, 
# crystal, experimental, refinement or atomic coordinate data resulting 
# from the CCDC's data processing and validation procedures.
#
#######################################################################

data_MIYYOK
_symmetry_cell_setting           monoclinic
_symmetry_space_group_name_H-M   'P 21/n'
_symmetry_Int_Tables_number      14
_space_group_name_Hall           '-P 2yn'
loop_
_symmetry_equiv_pos_site_id
_symmetry_equiv_pos_as_xyz
1 x,y,z
2 1/2-x,1/2+y,1/2-z
3 -x,-y,-z
4 1/2+x,1/2-y,1/2+z
_cell_length_a                   8.2637(5)
_cell_length_b                   12.2275(9)
_cell_length_c                   19.7018(19)
_cell_angle_alpha                90
_cell_angle_beta                 95.421(8)
_cell_angle_gamma                90
_cell_volume                     1981.85
loop_
_atom_site_label
_atom_site_type_symbol
_atom_site_fract_x
_atom_site_fract_y
_atom_site_fract_z
Co1 Co 0.49224(5) 0.53439(4) 0.27091(2)
O1 O 0.2359(3) 0.5510(2) 0.26436(14)
H1 H 0.199(3) 0.6130(13) 0.2501(19)
H2 H 0.175(3) 0.5011(16) 0.2472(18)
O2 O 0.4716(3) 0.3859(2) 0.32459(11)
H3 H 0.446(4) 0.390(2) 0.3645(8)
H4 H 0.544(3) 0.3376(19) 0.3216(14)
O3 O 0.7391(3) 0.5183(2) 0.28211(11)
O4 O 0.9298(3) 0.4341(2) 0.22808(10)
O5 O 0.9823(2) 0.1873(2) 0.28013(10)
O6 O 1.2278(3) 0.2595(2) 0.27450(12)
N1 N 0.4815(3) 0.6236(3) 0.36525(13)
N2 N 0.6593(3) 0.9581(3) 0.40735(13)
H5 H 0.6319 0.9548 0.3642
N3 N 0.7440(3) 1.0416(3) 0.43947(13)
N4 N 0.6842(3) 0.9115(3) 0.51449(12)
N5 N 0.9640(3) 1.0571(3) 0.67712(13)
C1 C 0.4037(4) 0.5779(3) 0.41517(17)
H6 H 0.3543 0.5101 0.4074
C2 C 0.3948(4) 0.6279(4) 0.47715(17)
H7 H 0.3411 0.5937 0.5107
C3 C 0.4650(4) 0.7281(3) 0.48934(17)
H8 H 0.4614 0.7622 0.5314
C4 C 0.5418(4) 0.7782(3) 0.43803(15)
C5 C 0.5463(4) 0.7225(3) 0.37666(16)
H9 H 0.5970 0.7559 0.3419
C6 C 0.6248(4) 0.8820(3) 0.45220(16)
C7 C 0.7575(4) 1.0079(3) 0.50451(16)
C8 C 0.8502(4) 1.0669(3) 0.55989(16)
C9 C 0.9143(4) 1.1701(4) 0.55418(18)
H10 H 0.9006 1.2079 0.5131
C10 C 0.9992(5) 1.2161(4) 0.61059(19)
H11 H 1.0416 1.2863 0.6081
C11 C 1.0210(4) 1.1587(3) 0.67037(18)
H12 H 1.0779 1.1916 0.7079
C12 C 0.8776(4) 1.0137(3) 0.62275(15)
H13 H 0.8335 0.9443 0.6270
C13 C 0.8635(4) 0.4607(3) 0.28076(15)
C14 C 0.9501(3) 0.4240(3) 0.34808(14)
C15 C 0.9248(4) 0.4844(3) 0.40598(15)
H14 H 0.8465 0.5392 0.4024
C16 C 1.0127(4) 0.4661(3) 0.46967(14)
C17 C 1.1248(4) 0.3810(3) 0.47231(16)
H15 H 1.1869 0.3663 0.5132
C18 C 1.1463(4) 0.3176(3) 0.41581(15)
H16 H 1.2201 0.2600 0.4199
C19 C 1.0607(3) 0.3379(3) 0.35317(14)
C20 C 1.0901(4) 0.2574(3) 0.29680(15)
O3B O 1.2609(3) 0.4817(2) 0.71789(11)
O4B O 1.0702(3) 0.5659(2) 0.77192(10)
O5B O 1.0177(2) 0.8127(2) 0.71987(10)
O6B O 0.7722(3) 0.7405(2) 0.72550(12)
C13B C 1.1365(4) 0.5393(3) 0.71924(15)
C14B C 1.0499(3) 0.5760(3) 0.65192(14)
C15B C 1.0752(4) 0.5156(3) 0.59402(15)
H14B H 1.1535 0.4608 0.5976
C16B C 0.9873(4) 0.5339(3) 0.53033(14)
C17B C 0.8752(4) 0.6190(3) 0.52769(16)
H15B H 0.8131 0.6337 0.4868
C18B C 0.8537(4) 0.6824(3) 0.58419(15)
H16B H 0.7799 0.7400 0.5801
C19B C 0.9393(3) 0.6621(3) 0.64683(14)
C20B C 0.9099(4) 0.7426(3) 0.70320(15)
Co1B Co 1.50776(5) 0.46561(4) 0.72909(2)
O1B O 1.7641(3) 0.4490(2) 0.73564(14)
H1B H 1.801(3) 0.3870(13) 0.7499(19)
H2B H 1.825(3) 0.4989(16) 0.7528(18)
O2B O 1.5284(3) 0.6141(2) 0.67541(11)
H3B H 1.554(4) 0.610(2) 0.6355(8)
H4B H 1.456(3) 0.6624(19) 0.6784(14)
N1B N 1.5185(3) 0.3764(3) 0.63475(13)
N2B N 1.3407(3) 0.0419(3) 0.59265(13)
H5B H 1.3681 0.0452 0.6358
N3B N 1.2560(3) -0.0416(3) 0.56053(13)
N4B N 1.3158(3) 0.0885(3) 0.48551(12)
N5B N 1.0360(3) -0.0571(3) 0.32288(13)
C1B C 1.5963(4) 0.4221(3) 0.58483(17)
H6B H 1.6457 0.4899 0.5926
C2B C 1.6052(4) 0.3721(4) 0.52285(17)
H7B H 1.6589 0.4063 0.4893
C3B C 1.5350(4) 0.2719(3) 0.51066(17)
H8B H 1.5386 0.2378 0.4686
C4B C 1.4582(4) 0.2218(3) 0.56197(15)
C5B C 1.4537(4) 0.2775(3) 0.62334(16)
H9B H 1.4030 0.2441 0.6581
C6B C 1.3752(4) 0.1180(3) 0.54780(16)
C7B C 1.2425(4) -0.0079(3) 0.49549(16)
C8B C 1.1498(4) -0.0669(3) 0.44011(16)
C9B C 1.0857(4) -0.1701(4) 0.44582(18)
H10B H 1.0994 -0.2079 0.4869
C10B C 1.0008(5) -0.2161(4) 0.38941(19)
H11B H 0.9584 -0.2863 0.3919
C11B C 0.9790(4) -0.1587(3) 0.32963(18)
H12B H 0.9221 -0.1916 0.2921
C12B C 1.1224(4) -0.0137(3) 0.37725(15)
H13B H 1.1665 0.0557 0.3730
Co1A Co 1.00776(5) 0.03439(4) 0.22909(2)
Co1C Co 0.99224(5) 0.96561(4) 0.77091(2)
O5A O 0.5177(2) 0.6873(2) 0.21987(10)
O5C O 1.4823(2) 0.3127(2) 0.78013(10)
N5A N 1.5360(3) 0.5571(3) 0.82288(13)
N5C N 0.4640(3) 0.4429(3) 0.17712(13)
O7 O 0.3112(3) 0.7818(3) 0.66105(17)
H17 H 0.300(5) 0.828(3) 0.6290(18)
H18 H 0.231(4) 0.784(4) 0.6850(18)
loop_
_geom_bond_atom_site_label_1
_geom_bond_atom_site_label_2
_geom_bond_site_symmetry_1
_geom_bond_site_symmetry_2
Co1 O1 1_555 1_555
O1 H1 1_555 1_555
H2 O1 1_555 1_555
O2 Co1 1_555 1_555
H3 O2 1_555 1_555
H4 O2 1_555 1_555
O3 Co1 1_555 1_555
O4 C13 1_555 1_555
O5 C20 1_555 1_555
O6 C20 1_555 1_555
N1 Co1 1_555 1_555
N2 H5 1_555 1_555
N3 N2 1_555 1_555
N4 C6 1_555 1_555
N5 C11 1_555 1_555
C1 N1 1_555 1_555
H6 C1 1_555 1_555
C2 C1 1_555 1_555
H7 C2 1_555 1_555
C3 C2 1_555 1_555
H8 C3 1_555 1_555
C4 C3 1_555 1_555
C5 N1 1_555 1_555
H9 C5 1_555 1_555
C6 N2 1_555 1_555
C7 N3 1_555 1_555
C8 C7 1_555 1_555
C9 C8 1_555 1_555
H10 C9 1_555 1_555
C10 C9 1_555 1_555
H11 C10 1_555 1_555
C11 C10 1_555 1_555
H12 C11 1_555 1_555
C12 N5 1_555 1_555
H13 C12 1_555 1_555
C13 O3 1_555 1_555
C14 C13 1_555 1_555
C15 C14 1_555 1_555
H14 C15 1_555 1_555
C16 C15 1_555 1_555
C17 C16 1_555 1_555
H15 C17 1_555 1_555
C18 C17 1_555 1_555
H16 C18 1_555 1_555
C19 C14 1_555 1_555
C20 C19 1_555 1_555
O7 H17 1_555 1_555
H18 O7 1_555 1_555
O3B C13B 1_555 1_555
O4B C13B 1_555 1_555
O5B C20B 1_555 1_555
O6B C20B 1_555 1_555
C13B C14B 1_555 1_555
C14B C15B 1_555 1_555
C15B H14B 1_555 1_555
C16B C16 1_555 1_555
C17B C16B 1_555 1_555
H15B C17B 1_555 1_555
C18B C17B 1_555 1_555
H16B C18B 1_555 1_555
C19B C14B 1_555 1_555
C20B C19B 1_555 1_555
Co1B O3B 1_555 1_555
O1B Co1B 1_555 1_555
H1B O1B 1_555 1_555
H2B O1B 1_555 1_555
O2B Co1B 1_555 1_555
H3B O2B 1_555 1_555
H4B O2B 1_555 1_555
N1B Co1B 1_555 1_555
N2B H5B 1_555 1_555
N3B N2B 1_555 1_555
N4B C6B 1_555 1_555
N5B C11B 1_555 1_555
C1B N1B 1_555 1_555
H6B C1B 1_555 1_555
C2B C1B 1_555 1_555
H7B C2B 1_555 1_555
C3B C2B 1_555 1_555
H8B C3B 1_555 1_555
C4B C3B 1_555 1_555
C5B N1B 1_555 1_555
H9B C5B 1_555 1_555
C6B N2B 1_555 1_555
C7B N3B 1_555 1_555
C8B C7B 1_555 1_555
C9B C8B 1_555 1_555
H10B C9B 1_555 1_555
C10B C9B 1_555 1_555
H11B C10B 1_555 1_555
C11B C10B 1_555 1_555
H12B C11B 1_555 1_555
C12B N5B 1_555 1_555
H13B C12B 1_555 1_555
Co1A O5 1_555 1_555
Co1C N5 1_555 1_555
O5A Co1 1_555 1_555
O5C Co1B 1_555 1_555
N5A Co1B 1_555 1_555
N5C Co1 1_555 1_555
N4 C7 1_555 1_555
C4 C5 1_555 1_555
C4 C6 1_555 1_555
C8 C12 1_555 1_555
C18 C19 1_555 1_555
O5B Co1C 1_555 1_555
C15B C16B 1_555 1_555
C18B C19B 1_555 1_555
N4B C7B 1_555 1_555
N5B Co1A 1_555 1_555
C4B C5B 1_555 1_555
C4B C6B 1_555 1_555
C8B C12B 1_555 1_555

#END
