
#######################################################################
#
#                 Cambridge Crystallographic Data Centre
#                                CCDC 
#
#######################################################################
#
# If this CIF has been generated from an entry in the Cambridge 
# Structural Database, then it will include bibliographic, chemical, 
# crystal, experimental, refinement or atomic coordinate data resulting 
# from the CCDC's data processing and validation procedures.
#
#######################################################################

data_MIYZEZ
_symmetry_cell_setting           orthorhombic
_symmetry_space_group_name_H-M   'P b c a'
_symmetry_Int_Tables_number      61
_space_group_name_Hall           '-P 2ac 2ab'
loop_
_symmetry_equiv_pos_site_id
_symmetry_equiv_pos_as_xyz
1 x,y,z
2 1/2+x,y,1/2-z
3 x,1/2-y,1/2+z
4 1/2-x,1/2+y,z
5 -x,-y,-z
6 1/2-x,-y,1/2+z
7 -x,1/2+y,1/2-z
8 1/2+x,1/2-y,-z
_cell_length_a                   12.4823(6)
_cell_length_b                   9.1699(4)
_cell_length_c                   19.5647(9)
_cell_angle_alpha                90
_cell_angle_beta                 90
_cell_angle_gamma                90
_cell_volume                     2239.4
loop_
_atom_site_label
_atom_site_type_symbol
_atom_site_fract_x
_atom_site_fract_y
_atom_site_fract_z
Cu1 Cu 0.82952(3) 0.02709(4) 0.247505(18)
Mo1 Mo 1.09232(2) 0.13718(3) 0.318830(13)
O1 O 0.96382(17) 0.0756(2) 0.29181(11)
O2 O 0.87863(18) -0.1975(3) 0.22054(12)
O3 O 0.69084(17) 0.0046(2) 0.20353(11)
O4 O 1.09078(18) 0.1595(3) 0.40661(11)
C1 C 0.8503(2) 0.0547(4) 0.09687(16)
C2 C 0.8821(2) 0.1127(3) 0.03438(16)
C3 C 0.9566(3) 0.2270(4) 0.03540(17)
C4 C 0.9903(3) 0.2813(4) 0.09735(16)
C5 C 0.9515(3) 0.2215(4) 0.15720(16)
C6 C 0.6964(3) -0.0413(4) -0.09917(16)
C7 C 0.7389(3) -0.0105(4) -0.03642(16)
C8 C 0.8369(2) 0.0616(3) -0.03150(16)
C9 C 0.8880(3) 0.0933(4) -0.09285(16)
C10 C 0.8396(3) 0.0636(4) -0.15452(16)
N1 N 0.8835(2) 0.1080(3) 0.15725(13)
N2 N 0.7429(2) -0.0029(3) -0.15929(13)
H1 H 0.802(2) -0.027(3) 0.1025(15)
H2 H 0.977(3) 0.268(4) -0.0036(18)
H3 H 1.037(3) 0.356(3) 0.1015(15)
H4 H 0.972(3) 0.256(4) 0.1995(16)
H5 H 0.631(3) -0.079(4) -0.1045(16)
H6 H 0.702(3) -0.034(4) -0.002(2)
H7 H 0.951(4) 0.135(5) -0.091(2)
H8 H 0.877(3) 0.087(4) -0.1978(16)
N2E N 0.7571(2) 0.0029(3) 0.34071(13)
O2F O 1.12137(18) 0.3025(3) 0.27946(12)
O3A O 1.19084(17) 0.0046(2) 0.29647(11)
Mo1F Mo 0.90768(2) -0.36282(3) 0.181170(13)
Mo1A Mo 0.59232(2) 0.13718(3) 0.181170(13)
Cu1E Cu 0.67048(3) -0.02709(4) -0.252495(18)
loop_
_geom_bond_atom_site_label_1
_geom_bond_atom_site_label_2
_geom_bond_site_symmetry_1
_geom_bond_site_symmetry_2
Cu1 O1 1_555 1_555
Mo1 O1 1_555 1_555
O2 Cu1 1_555 1_555
O3 Cu1 1_555 1_555
O4 Mo1 1_555 1_555
C1 C2 1_555 1_555
C2 C3 1_555 1_555
C3 C4 1_555 1_555
C4 C5 1_555 1_555
C5 N1 1_555 1_555
C6 C7 1_555 1_555
C7 C8 1_555 1_555
C8 C2 1_555 1_555
C9 C8 1_555 1_555
C10 C9 1_555 1_555
N1 Cu1 1_555 1_555
N2 C6 1_555 1_555
H1 C1 1_555 1_555
H2 C3 1_555 1_555
H3 C4 1_555 1_555
H4 C5 1_555 1_555
H5 C6 1_555 1_555
H6 C7 1_555 1_555
H7 C9 1_555 1_555
H8 C10 1_555 1_555
N2E Cu1 1_555 1_555
O2F Mo1 1_555 1_555
O3A Mo1 1_555 1_555
Mo1F O2 1_555 1_555
Mo1A O3 1_555 1_555
Cu1E N2 1_555 1_555
C1 N1 1_555 1_555
C10 N2 1_555 1_555

#END
