
#######################################################################
#
#                 Cambridge Crystallographic Data Centre
#                                CCDC 
#
#######################################################################
#
# If this CIF has been generated from an entry in the Cambridge 
# Structural Database, then it will include bibliographic, chemical, 
# crystal, experimental, refinement or atomic coordinate data resulting 
# from the CCDC's data processing and validation procedures.
#
#######################################################################

data_MIZJEL
_symmetry_cell_setting           monoclinic
_symmetry_space_group_name_H-M   'P 21/n'
_symmetry_Int_Tables_number      14
_space_group_name_Hall           '-P 2yn'
loop_
_symmetry_equiv_pos_site_id
_symmetry_equiv_pos_as_xyz
1 x,y,z
2 1/2-x,1/2+y,1/2-z
3 -x,-y,-z
4 1/2+x,1/2-y,1/2+z
_cell_length_a                   9.495(2)
_cell_length_b                   19.037(4)
_cell_length_c                   22.987(5)
_cell_angle_alpha                90
_cell_angle_beta                 99.87(3)
_cell_angle_gamma                90
_cell_volume                     4093.55
loop_
_atom_site_label
_atom_site_type_symbol
_atom_site_fract_x
_atom_site_fract_y
_atom_site_fract_z
Gd1 Gd -1.2424(1) 0.9924(1) 0.9853(1)
O1 O -1.3194(5) 0.9201(3) 1.0583(2)
O2 O -1.5452(5) 0.9500(3) 1.0572(2)
O3 O -1.6571(14) 0.9529(13) 1.2784(5)
O4 O -1.6181(17) 0.8251(7) 1.2652(4)
O5 O -1.0241(6) 0.9880(3) 1.0562(2)
O6 O -0.8149(6) 0.9863(3) 1.1125(3)
O7 O -1.0953(7) 0.7418(3) 1.0521(3)
O8 O -0.8644(6) 0.7587(4) 1.1183(3)
O9 O -1.1699(5) 1.1190(2) 0.9989(2)
O10 O -1.3014(5) 1.0753(3) 1.0595(2)
O11 O -1.4804(8) 1.3350(4) 1.0076(4)
O12 O -1.4662(8) 1.3153(4) 0.9035(4)
O13 O -1.1253(5) 0.8813(3) 0.9711(3)
O14 O -1.4104(5) 0.9099(3) 0.9279(2)
C1 C -1.4359(7) 0.9144(4) 1.0762(3)
C2 C -1.4430(8) 0.8593(5) 1.1237(6)
C3 C -1.5781(8) 0.8548(5) 1.1480(4)
C4 C -1.4108(14) 0.8872(11) 1.2898(6)
C5 C -1.3342(21) 0.8255(10) 1.2883(5)
C6 C -1.1859(20) 0.8243(8) 1.3074(6)
C7 C -1.1173(12) 0.8874(10) 1.3307(5)
C8 C -1.2035(17) 0.9447(9) 1.3325(6)
C9 C -1.3435(18) 0.9442(10) 1.3113(6)
C10 C -0.9569(14) 0.8889(13) 1.3517(8)
C11 C -0.9497(7) 0.9798(4) 1.1057(3)
C12 C -1.0179(9) 0.9600(4) 1.1577(4)
C13 C -1.0027(9) 0.8823(4) 1.1706(4)
C14 C -1.0734(9) 0.7098(4) 1.1630(4)
C15 C -1.2094(9) 0.6837(5) 1.1544(5)
C16 C -1.2493(12) 0.6405(6) 1.1965(5)
C17 C -1.1607(15) 0.6237(5) 1.2474(5)
C18 C -1.0195(14) 0.6502(7) 1.2555(5)
C19 C -0.9810(12) 0.6936(6) 1.2141(5)
C20 C -1.2036(20) 0.5752(8) 1.2949(6)
C21 C -1.2375(7) 1.1266(4) 1.0410(3)
C22 C -1.2437(10) 1.1970(4) 1.0711(4)
C23 C -1.2002(10) 1.2598(4) 1.0376(4)
C24 C -1.3026(9) 1.4086(4) 0.9623(4)
C25 C -1.2203(12) 1.4181(5) 0.9182(5)
C26 C -1.1470(13) 1.4820(5) 0.9163(6)
C27 C -1.1583(11) 1.5355(5) 0.9555(5)
C28 C -1.2427(11) 1.5251(6) 0.9990(6)
C29 C -1.3137(12) 1.4613(5) 1.0035(5)
C30 C -1.0814(13) 1.6030(6) 0.9483(6)
S1 S -1.5960(4) 0.8936(4) 1.2577(2)
S2 S -1.0184(2) 0.7628(1) 1.1085(1)
S3 S -1.3972(2) 1.3293(1) 0.9623(1)
N1 N -1.5969(11) 0.9095(7) 1.1877(5)
N2 N -1.0649(7) 0.8421(3) 1.1187(3)
N3 N -1.2856(8) 1.2664(4) 0.9793(3)
Gd1B Gd -1.7576(1) 1.0076(1) 1.0147(1)
Gd1B_2 Gd -0.7576(1) 1.0076(1) 1.0147(1)
O2B O -1.4548(5) 1.0500(3) 0.9428(2)
O5B O -0.9759(6) 1.0120(3) 0.9438(2)
O6B O -1.1851(6) 1.0137(3) 0.8875(3)
O15 O -0.3472(8) 0.7702(4) 0.9512(5)
loop_
_geom_bond_atom_site_label_1
_geom_bond_atom_site_label_2
_geom_bond_site_symmetry_1
_geom_bond_site_symmetry_2
Gd1 O1 1_555 1_555
O1 C1 1_555 1_555
O2 C1 1_555 1_555
O3 S1 1_555 1_555
O4 S1 1_555 1_555
O5 Gd1 1_555 1_555
O6 C11 1_555 1_555
O7 S2 1_555 1_555
O8 S2 1_555 1_555
O9 Gd1 1_555 1_555
O10 Gd1 1_555 1_555
O11 S3 1_555 1_555
O12 S3 1_555 1_555
O13 Gd1 1_555 1_555
O14 Gd1 1_555 1_555
C1 C2 1_555 1_555
C2 C3 1_555 1_555
C3 N1 1_555 1_555
C4 C5 1_555 1_555
C5 C6 1_555 1_555
C6 C7 1_555 1_555
C7 C8 1_555 1_555
C8 C9 1_555 1_555
C9 C4 1_555 1_555
C10 C7 1_555 1_555
C11 O5 1_555 1_555
C12 C11 1_555 1_555
C13 C12 1_555 1_555
C14 C15 1_555 1_555
C15 C16 1_555 1_555
C16 C17 1_555 1_555
C17 C18 1_555 1_555
C18 C19 1_555 1_555
C19 C14 1_555 1_555
C20 C17 1_555 1_555
C21 O9 1_555 1_555
C22 C21 1_555 1_555
C23 C22 1_555 1_555
C24 C25 1_555 1_555
C25 C26 1_555 1_555
C26 C27 1_555 1_555
C27 C28 1_555 1_555
C28 C29 1_555 1_555
C29 C24 1_555 1_555
C30 C27 1_555 1_555
S1 C4 1_555 1_555
S2 C14 1_555 1_555
S3 C24 1_555 1_555
N1 S1 1_555 1_555
N2 C13 1_555 1_555
N3 C23 1_555 1_555
Gd1B O2 1_555 1_555
Gd1B_2 O5 1_555 1_555
O2B Gd1 1_555 1_555
O5B Gd1 1_555 1_555
O6B Gd1 1_555 1_555
O6 Gd1B_2 1_555 1_555
O10 C21 1_555 1_555
S2 N2 1_555 1_555
S3 N3 1_555 1_555
Gd1B_2 O5B 1_555 1_555

#END
