
#######################################################################
#
#                 Cambridge Crystallographic Data Centre
#                                CCDC 
#
#######################################################################
#
# If this CIF has been generated from an entry in the Cambridge 
# Structural Database, then it will include bibliographic, chemical, 
# crystal, experimental, refinement or atomic coordinate data resulting 
# from the CCDC's data processing and validation procedures.
#
#######################################################################

data_MIZLIR01
_symmetry_cell_setting           monoclinic
_symmetry_space_group_name_H-M   'P 21/c'
_symmetry_Int_Tables_number      14
_space_group_name_Hall           '-P 2ybc'
loop_
_symmetry_equiv_pos_site_id
_symmetry_equiv_pos_as_xyz
1 x,y,z
2 -x,1/2+y,1/2-z
3 -x,-y,-z
4 x,1/2-y,1/2+z
_cell_length_a                   7.5969(6)
_cell_length_b                   20.2299(15)
_cell_length_c                   9.0204(7)
_cell_angle_alpha                90
_cell_angle_beta                 112.245(1)
_cell_angle_gamma                90
_cell_volume                     1283.12
loop_
_atom_site_label
_atom_site_type_symbol
_atom_site_fract_x
_atom_site_fract_y
_atom_site_fract_z
I1 I 0.36515(3) 0.465398(11) 0.66244(3)
Cu1 Cu 0.45382(6) 0.43253(2) 0.41725(6)
S1 S 0.43455(13) 0.36294(5) 0.09412(12)
S2 S 0.37334(14) 0.22533(5) -0.05484(15)
N1 N 0.2124(4) 0.42076(13) 0.2167(4)
N2 N 0.6526(4) 0.14204(13) -0.0119(3)
N3 N 0.0600(4) 0.38433(15) -0.0531(4)
N4 N 0.7358(5) 0.25590(16) 0.0199(5)
C1 C 0.0427(5) 0.44368(17) 0.2090(5)
H1 H 0.0364 0.4640 0.2993
C2 C -0.1200(5) 0.43877(19) 0.0765(5)
H2 H -0.2350 0.4555 0.0742
C3 C -0.1055(5) 0.40796(19) -0.0533(5)
H3 H -0.2145 0.4031 -0.1454
C4 C 0.2113(5) 0.39204(16) 0.0818(4)
C5 C 0.3702(6) 0.31314(17) -0.0839(5)
H4 H 0.2433 0.3258 -0.1557
H5 H 0.4563 0.3236 -0.1371
C6 C 0.6130(5) 0.20710(17) -0.0113(4)
C7 C 0.8348(5) 0.12742(18) 0.0175(4)
H6 H 0.8698 0.0833 0.0191
C8 C 0.9703(5) 0.1749(2) 0.0453(6)
H7 H 1.0957 0.1641 0.0629
C9 C 0.9153(6) 0.2381(2) 0.0462(8)
H8 H 1.0065 0.2712 0.0660
I1B I 0.63485(3) 0.534602(11) 0.33756(3)
Cu1B Cu 0.54618(6) 0.56747(2) 0.58275(6)
Cu1C Cu 0.45382(6) 0.06747(2) -0.08275(6)
N2C N 0.6526(4) 0.35796(13) 0.4881(3)
loop_
_geom_bond_atom_site_label_1
_geom_bond_atom_site_label_2
_geom_bond_site_symmetry_1
_geom_bond_site_symmetry_2
I1 Cu1 1_555 1_555
Cu1 N1 1_555 1_555
S1 C4 1_555 1_555
S2 C5 1_555 1_555
N1 C1 1_555 1_555
N2 C6 1_555 1_555
N3 C3 1_555 1_555
N4 C6 1_555 1_555
C1 H1 1_555 1_555
C2 C1 1_555 1_555
H2 C2 1_555 1_555
C3 C2 1_555 1_555
H3 C3 1_555 1_555
C4 N1 1_555 1_555
C5 S1 1_555 1_555
H4 C5 1_555 1_555
H5 C5 1_555 1_555
C6 S2 1_555 1_555
C7 N2 1_555 1_555
H6 C7 1_555 1_555
C8 C7 1_555 1_555
H7 C8 1_555 1_555
C9 N4 1_555 1_555
H8 C9 1_555 1_555
I1B Cu1 1_555 1_555
Cu1B I1 1_555 1_555
Cu1C N2 1_555 1_555
N2C Cu1 1_555 1_555
N3 C4 1_555 1_555
C8 C9 1_555 1_555
I1B Cu1B 1_555 1_555

#END
