
#######################################################################
#
#                 Cambridge Crystallographic Data Centre
#                                CCDC 
#
#######################################################################
#
# If this CIF has been generated from an entry in the Cambridge 
# Structural Database, then it will include bibliographic, chemical, 
# crystal, experimental, refinement or atomic coordinate data resulting 
# from the CCDC's data processing and validation procedures.
#
#######################################################################

data_MIZLUD
_symmetry_cell_setting           triclinic
_symmetry_space_group_name_H-M   'P -1'
_symmetry_Int_Tables_number      2
_space_group_name_Hall           '-P 1'
loop_
_symmetry_equiv_pos_site_id
_symmetry_equiv_pos_as_xyz
1 x,y,z
2 -x,-y,-z
_cell_length_a                   8.8050(10)
_cell_length_b                   9.0434(10)
_cell_length_c                   12.5826(14)
_cell_angle_alpha                87.137(2)
_cell_angle_beta                 85.596(2)
_cell_angle_gamma                88.277(2)
_cell_volume                     997.365
loop_
_atom_site_label
_atom_site_type_symbol
_atom_site_fract_x
_atom_site_fract_y
_atom_site_fract_z
I1 I 0.69219(3) 0.51009(3) -0.108048(19)
Cu1 Cu 0.59196(5) 0.58697(5) 0.08591(4)
S1 S 0.55193(11) 0.60691(10) 0.33997(7)
S2 S 0.87348(10) 0.80342(10) 0.06441(9)
C1 C 0.9392(4) 0.3189(4) 0.2314(4)
H1 H 1.0234 0.2615 0.2080
N1 N 0.7291(3) 0.4800(3) 0.1935(2)
N2 N 0.5795(3) 0.8120(3) 0.1070(2)
C2 C 0.7019(4) 0.4855(4) 0.2996(3)
N5 N 0.7798(4) 0.4128(4) 0.3738(3)
C3 C 0.7017(4) 0.8976(4) 0.0993(3)
N6 N 0.7017(4) 1.0423(3) 0.1156(3)
C5 C 0.4456(4) 0.8809(4) 0.1329(3)
H2 H 0.3576 0.8258 0.1398
C6 C 1.0062(4) 0.9530(4) 0.0503(3)
H3 H 0.9882 1.0150 0.1110
H4 H 1.1091 0.9118 0.0513
C7 C 0.5659(5) 1.1058(4) 0.1399(3)
H5 H 0.5610 1.2068 0.1509
C8 C 0.8515(4) 0.3960(4) 0.1606(3)
H6 H 0.8773 0.3902 0.0878
C9 C 0.4337(4) 1.0297(4) 0.1496(3)
H7 H 0.3401 1.0764 0.1666
C11 C 0.8980(5) 0.3298(5) 0.3369(4)
H9 H 0.9551 0.2769 0.3859
C15 C 0.5366(4) 0.5722(4) 0.4833(3)
H14 H 0.6376 0.5719 0.5091
H15 H 0.4771 0.6521 0.5161
I1A I 0.30781(3) 0.48991(3) 0.108048(19)
Cu1A Cu 0.40804(5) 0.41303(5) -0.08591(4)
Cu1A_2 Cu 0.40804(5) 0.41303(5) 0.91409(4)
Cu1A_3 Cu 1.40804(5) 1.41303(5) -0.08591(4)
S1A S 0.44807(11) 0.39309(10) 0.66003(7)
S2A S 1.12652(10) 1.19658(10) -0.06441(9)
C1A C 0.0608(4) 0.6811(4) 0.7686(4)
H1A H -0.0234 0.7385 0.7920
N1A N 0.2709(3) 0.5200(3) 0.8065(2)
N1A_2 N 0.2709(3) 0.5200(3) -0.1935(2)
N2A N 1.4205(3) 1.1880(3) -0.1070(2)
N2A_2 N 0.4205(3) 0.1880(3) -0.1070(2)
C2A C 0.2981(4) 0.5145(4) 0.7004(3)
N5A N 0.2202(4) 0.5872(4) 0.6262(3)
C3A C 1.2983(4) 1.1024(4) -0.0993(3)
N6A N 1.2983(4) 0.9577(3) -0.1156(3)
C5A C 1.5544(4) 1.1191(4) -0.1329(3)
H2A H 1.6424 1.1742 -0.1398
C6A C 0.9938(4) 1.0470(4) -0.0503(3)
H3A H 1.0118 0.9850 -0.1110
H4A H 0.8909 1.0882 -0.0513
C7A C 1.4341(5) 0.8942(4) -0.1399(3)
H5A H 1.4390 0.7932 -0.1509
C8A C 0.1485(4) 0.6040(4) 0.8394(3)
H6A H 0.1227 0.6098 0.9122
C9A C 1.5663(4) 0.9703(4) -0.1496(3)
H7A H 1.6599 0.9236 -0.1666
C11A C 0.1020(5) 0.6702(5) 0.6631(4)
H9A H 0.0449 0.7231 0.6141
C15A C 0.4634(4) 0.4278(4) 0.5167(3)
H14A H 0.3624 0.4281 0.4909
H15A H 0.5229 0.3479 0.4839
S3 S 0.31019(16) 1.11249(13) 0.42109(12)
N3 N 0.2587(4) 0.8262(4) 0.3994(3)
N4 N 0.0630(4) 1.0043(4) 0.3661(4)
C4 C 0.2015(4) 0.9617(4) 0.3930(3)
C10 C 0.1667(6) 0.7218(5) 0.3731(4)
H8 H 0.2019 0.6238 0.3754
C12 C 0.0241(6) 0.7520(6) 0.3433(4)
H10 H -0.0384 0.6776 0.3251
C13 C -0.0231(6) 0.8961(6) 0.3413(4)
H11 H -0.1208 0.9199 0.3214
C14 C 0.4969(6) 1.0266(5) 0.4434(4)
H12 H 0.5158 0.9440 0.3975
H13 H 0.5757 1.0982 0.4252
S3A S 0.68981(16) 0.88751(13) 0.57891(12)
N3A N 0.7413(4) 1.1738(4) 0.6006(3)
N4A N 0.9370(4) 0.9957(4) 0.6339(4)
C4A C 0.7985(4) 1.0383(4) 0.6070(3)
C10A C 0.8333(6) 1.2782(5) 0.6269(4)
H8A H 0.7981 1.3762 0.6246
C12A C 0.9759(6) 1.2480(6) 0.6567(4)
H10A H 1.0384 1.3224 0.6749
C13A C 1.0231(6) 1.1039(6) 0.6587(4)
H11A H 1.1208 1.0801 0.6786
C14A C 0.5031(6) 0.9734(5) 0.5566(4)
H12A H 0.4842 1.0560 0.6025
H13A H 0.4243 0.9018 0.5748
loop_
_geom_bond_atom_site_label_1
_geom_bond_atom_site_label_2
_geom_bond_site_symmetry_1
_geom_bond_site_symmetry_2
I1 Cu1 1_555 1_555
Cu1 N1 1_555 1_555
S1 C2 1_555 1_555
S2 C3 1_555 1_555
S3 C4 1_555 1_555
C1 H1 1_555 1_555
N1 C2 1_555 1_555
N2 Cu1 1_555 1_555
C2 N5 1_555 1_555
N3 C4 1_555 1_555
N4 C4 1_555 1_555
N5 C11 1_555 1_555
C3 N2 1_555 1_555
N6 C3 1_555 1_555
C5 N2 1_555 1_555
H2 C5 1_555 1_555
C6 S2 1_555 1_555
H3 C6 1_555 1_555
H4 C6 1_555 1_555
C7 N6 1_555 1_555
H5 C7 1_555 1_555
C8 C1 1_555 1_555
H6 C8 1_555 1_555
C9 C5 1_555 1_555
H7 C9 1_555 1_555
C10 N3 1_555 1_555
H8 C10 1_555 1_555
C11 C1 1_555 1_555
H9 C11 1_555 1_555
C12 C10 1_555 1_555
H10 C12 1_555 1_555
C13 N4 1_555 1_555
H11 C13 1_555 1_555
C14 S3 1_555 1_555
H12 C14 1_555 1_555
H13 C14 1_555 1_555
C15 S1 1_555 1_555
H14 C15 1_555 1_555
H15 C15 1_555 1_555
I1A Cu1 1_555 1_555
Cu1A I1 1_555 1_555
Cu1A_2 N1A 1_555 1_555
Cu1A_3 N2A 1_555 1_555
S1A C2A 1_555 1_555
S2A C3A 1_555 1_555
S3A C4A 1_555 1_555
C1A H1A 1_555 1_555
N1A C2A 1_555 1_555
N1A_2 Cu1A 1_555 1_555
N2A C3A 1_555 1_555
N2A_2 Cu1A 1_555 1_555
C2A N5A 1_555 1_555
N3A C4A 1_555 1_555
N4A C4A 1_555 1_555
N5A C11A 1_555 1_555
C3A N6A 1_555 1_555
N6A C7A 1_555 1_555
C5A N2A 1_555 1_555
H2A C5A 1_555 1_555
C6A C6 1_555 1_555
H3A C6A 1_555 1_555
H4A C6A 1_555 1_555
C7A H5A 1_555 1_555
C8A C1A 1_555 1_555
H6A C8A 1_555 1_555
C9A C5A 1_555 1_555
H7A C9A 1_555 1_555
C10A N3A 1_555 1_555
H8A C10A 1_555 1_555
C11A C1A 1_555 1_555
H9A C11A 1_555 1_555
C12A C10A 1_555 1_555
H10A C12A 1_555 1_555
C13A N4A 1_555 1_555
H11A C13A 1_555 1_555
C14A C14 1_555 1_555
H12A C14A 1_555 1_555
H13A C14A 1_555 1_555
C15A C15 1_555 1_555
H14A C15A 1_555 1_555
H15A C15A 1_555 1_555
N1 C8 1_555 1_555
C7 C9 1_555 1_555
C12 C13 1_555 1_555
I1A Cu1A 1_555 1_555
S1A C15A 1_555 1_555
S2A C6A 1_555 1_555
S3A C14A 1_555 1_555
N1A C8A 1_555 1_555
C7A C9A 1_555 1_555
C12A C13A 1_555 1_555

#END
