
#######################################################################
#
#                 Cambridge Crystallographic Data Centre
#                                CCDC 
#
#######################################################################
#
# If this CIF has been generated from an entry in the Cambridge 
# Structural Database, then it will include bibliographic, chemical, 
# crystal, experimental, refinement or atomic coordinate data resulting 
# from the CCDC's data processing and validation procedures.
#
#######################################################################

data_MIZZEA
_symmetry_cell_setting           triclinic
_symmetry_space_group_name_H-M   'P -1'
_symmetry_Int_Tables_number      2
_space_group_name_Hall           '-P 1'
loop_
_symmetry_equiv_pos_site_id
_symmetry_equiv_pos_as_xyz
1 x,y,z
2 -x,-y,-z
_cell_length_a                   9.324(2)
_cell_length_b                   9.882(2)
_cell_length_c                   11.238(2)
_cell_angle_alpha                76.91(2)
_cell_angle_beta                 77.51(2)
_cell_angle_gamma                75.08(2)
_cell_volume                     960.735
loop_
_atom_site_label
_atom_site_type_symbol
_atom_site_fract_x
_atom_site_fract_y
_atom_site_fract_z
Y1 Y 0.23571(4) 0.33931(3) 0.31639(3)
Cl1 Cl -0.23490(12) 0.21222(10) 0.65897(10)
O1 O 0.0437(3) 0.2654(2) 0.4765(2)
O2 O 0.2279(3) 0.0902(2) 0.3416(2)
C1 C 0.0137(4) 0.1439(3) 0.4918(3)
C2 C 0.1252(4) 0.0417(3) 0.4138(3)
C3 C -0.1054(4) 0.0976(3) 0.5714(3)
Cl2 Cl 0.29307(10) 0.41667(11) 0.75652(8)
O3 O 0.2475(3) 0.4179(3) 0.5027(2)
O4 O 0.4196(3) 0.4763(2) 0.2906(2)
C4 C 0.3642(4) 0.4538(3) 0.5085(3)
C5 C 0.4651(4) 0.4898(3) 0.3839(3)
C6 C 0.4061(4) 0.4635(3) 0.6173(3)
Cl3 Cl 0.18912(12) 0.73902(11) -0.10731(9)
O5 O 0.2192(3) 0.5067(2) 0.1188(2)
O6 O 0.0555(3) 0.3161(3) 0.2082(2)
C7 C 0.1173(4) 0.5119(3) 0.0597(3)
C8 C 0.0252(4) 0.3973(3) 0.1093(3)
C9 C 0.0837(4) 0.6112(4) -0.0457(3)
O7 O 0.0375(3) 0.5514(3) 0.3433(2)
H1 H -0.0499(25) 0.5438(51) 0.3672(43)
H2 H 0.0551(54) 0.5999(45) 0.3860(38)
O8 O 0.4087(3) 0.2331(3) 0.1619(2)
H3 H 0.4542(56) 0.2753(52) 0.0996(32)
H4 H 0.4359(61) 0.1494(24) 0.1548(51)
O9 O 0.4385(3) 0.1871(3) 0.4225(3)
H5 H 0.5000(53) 0.1227(45) 0.3934(53)
H6 H 0.4054(67) 0.1414(58) 0.4878(32)
C3A C 0.1054(4) -0.0976(3) 0.4286(3)
C2A C -0.1252(4) -0.0417(3) 0.5862(3)
C6A C 0.5939(4) 0.5365(3) 0.3827(3)
C5A C 0.5349(4) 0.5102(3) 0.6161(3)
C9A C -0.0837(4) 0.3888(4) 0.0457(3)
C8A C -0.0252(4) 0.6027(3) -0.1093(3)
Cl1A Cl 0.23490(12) -0.21222(10) 0.34103(10)
C1A C -0.0137(4) -0.1439(3) 0.5082(3)
O2A O -0.2279(3) -0.0902(2) 0.6584(2)
Cl2A Cl 0.70693(10) 0.58333(11) 0.24348(8)
C4A C 0.6358(4) 0.5462(3) 0.4915(3)
O4A O 0.5804(3) 0.5237(2) 0.7094(2)
Cl3A Cl -0.18912(12) 0.26098(11) 0.10731(9)
C7A C -0.1173(4) 0.4881(3) -0.0597(3)
O6A O -0.0555(3) 0.6839(3) -0.2082(2)
O1A O -0.0437(3) -0.2654(2) 0.5235(2)
Y1A Y -0.23571(4) -0.33931(3) 0.68361(3)
O3A O 0.7525(3) 0.5821(3) 0.4973(2)
Y1A_2 Y 0.76429(4) 0.66069(3) 0.68361(3)
O5A O -0.2192(3) 0.4933(2) -0.1188(2)
Y1A_3 Y -0.23571(4) 0.66069(3) -0.31639(3)
O3A_2 O -0.2475(3) -0.4179(3) 0.4973(2)
O4A_2 O -0.4196(3) -0.4763(2) 0.7094(2)
O5A_2 O -0.2192(3) -0.5067(2) 0.8812(2)
O6A_2 O -0.0555(3) -0.3161(3) 0.7918(2)
O7A O -0.0375(3) -0.5514(3) 0.6567(2)
O8A O -0.4087(3) -0.2331(3) 0.8381(2)
O9A O -0.4385(3) -0.1871(3) 0.5775(3)
H1A H 0.0499(25) -0.5438(51) 0.6328(43)
H2A H -0.0551(54) -0.5999(45) 0.6140(38)
H3A H -0.4542(56) -0.2753(52) 0.9004(32)
H4A H -0.4359(61) -0.1494(24) 0.8452(51)
H5A H -0.5000(53) -0.1227(45) 0.6066(53)
H6A H -0.4054(67) -0.1414(58) 0.5122(32)
O10 O 0.5529(4) 0.3187(4) -0.0661(3)
H7 H 0.6367(35) 0.3354(68) -0.0785(59)
H8 H 0.5074(63) 0.3918(41) -0.1046(53)
O11 O 0.3591(6) 0.0548(5) 0.6650(4)
H9 H 0.4178(58) 0.0619(69) 0.7073(51)
H10 H 0.2715(28) 0.0776(64) 0.6979(53)
O12 O 0.5134(7) -0.0574(5) 0.1351(5)
H11 H 0.5905(33) -0.0547(50) 0.0841(35)
H12 H 0.4384(39) -0.0684(55) 0.1110(47)
O13 O 0.0605(7) 0.1372(5) 0.8236(5)
H13 H 0.0166(89) 0.2199(35) 0.8035(77)
H14 H 0.1394(54) 0.0941(81) 0.8482(79)
O14 O 0.1771(6) 0.0519(5) 0.0592(5)
loop_
_geom_bond_atom_site_label_1
_geom_bond_atom_site_label_2
_geom_bond_site_symmetry_1
_geom_bond_site_symmetry_2
Y1 O1 1_555 1_555
Cl1 C3 1_555 1_555
O1 C1 1_555 1_555
O2 Y1 1_555 1_555
C1 C2 1_555 1_555
C2 O2 1_555 1_555
C3 C1 1_555 1_555
Cl2 C6 1_555 1_555
O3 Y1 1_555 1_555
O4 Y1 1_555 1_555
C4 O3 1_555 1_555
C5 O4 1_555 1_555
C6 C4 1_555 1_555
Cl3 C9 1_555 1_555
O5 Y1 1_555 1_555
O6 Y1 1_555 1_555
C7 O5 1_555 1_555
C8 O6 1_555 1_555
C9 C7 1_555 1_555
O7 Y1 1_555 1_555
H1 O7 1_555 1_555
H2 O7 1_555 1_555
O8 Y1 1_555 1_555
H3 O8 1_555 1_555
H4 O8 1_555 1_555
O9 Y1 1_555 1_555
H5 O9 1_555 1_555
H6 O9 1_555 1_555
O10 H7 1_555 1_555
H8 O10 1_555 1_555
O11 H9 1_555 1_555
H10 O11 1_555 1_555
O12 H11 1_555 1_555
H12 O12 1_555 1_555
O13 H13 1_555 1_555
H14 O13 1_555 1_555
C3A C2 1_555 1_555
C2A C3 1_555 1_555
C6A C5 1_555 1_555
C5A C6 1_555 1_555
C9A C8 1_555 1_555
C8A C9 1_555 1_555
Cl1A C3A 1_555 1_555
C1A C3A 1_555 1_555
O2A C2A 1_555 1_555
Cl2A C6A 1_555 1_555
C4A C6A 1_555 1_555
O4A C5A 1_555 1_555
Cl3A C9A 1_555 1_555
C7A C9A 1_555 1_555
O6A C8A 1_555 1_555
O1A C1A 1_555 1_555
Y1A O2A 1_555 1_555
O3A C4A 1_555 1_555
Y1A_2 O4A 1_555 1_555
O5A C7A 1_555 1_555
Y1A_3 O6A 1_555 1_555
O3A_2 Y1A 1_555 1_555
O4A_2 Y1A 1_555 1_555
O5A_2 Y1A 1_555 1_555
O6A_2 Y1A 1_555 1_555
O7A Y1A 1_555 1_555
O8A Y1A 1_555 1_555
O9A Y1A 1_555 1_555
H1A O7A 1_555 1_555
H2A O7A 1_555 1_555
H3A O8A 1_555 1_555
H4A O8A 1_555 1_555
H5A O9A 1_555 1_555
H6A O9A 1_555 1_555
C4 C5 1_555 1_555
C7 C8 1_555 1_555
C2A C1A 1_555 1_555
C5A C4A 1_555 1_555
C8A C7A 1_555 1_555
O1A Y1A 1_555 1_555
O3A Y1A_2 1_555 1_555
O5A Y1A_3 1_555 1_555

#END
