
#######################################################################
#
#                 Cambridge Crystallographic Data Centre
#                                CCDC 
#
#######################################################################
#
# If this CIF has been generated from an entry in the Cambridge 
# Structural Database, then it will include bibliographic, chemical, 
# crystal, experimental, refinement or atomic coordinate data resulting 
# from the CCDC's data processing and validation procedures.
#
#######################################################################

data_MIZZUQ
_symmetry_cell_setting           monoclinic
_symmetry_space_group_name_H-M   'C 2/m'
_symmetry_Int_Tables_number      12
_space_group_name_Hall           '-C 2y'
loop_
_symmetry_equiv_pos_site_id
_symmetry_equiv_pos_as_xyz
1 x,y,z
2 x,-y,z
3 1/2+x,1/2+y,z
4 1/2+x,1/2-y,z
5 -x,-y,-z
6 -x,y,-z
7 1/2-x,1/2-y,-z
8 1/2-x,1/2+y,-z
_cell_length_a                   18.956(8)
_cell_length_b                   16.680(5)
_cell_length_c                   10.970(4)
_cell_angle_alpha                90
_cell_angle_beta                 110.97(3)
_cell_angle_gamma                90
_cell_volume                     3238.83
loop_
_atom_site_label
_atom_site_type_symbol
_atom_site_fract_x
_atom_site_fract_y
_atom_site_fract_z
Lu2 Lu 0.31037(8) 0.5000 0.50321(15)
Cl3 Cl 0.0858(3) 0.2988(4) 0.4889(7)
O9 O 0.2150(9) 0.4061(8) 0.4989(15)
O10 O 0.3462(9) 0.3649(9) 0.5002(19)
C7 C 0.2262(12) 0.3329(13) 0.494(2)
C8 C 0.3063(10) 0.3081(11) 0.4996(19)
C9 C 0.1745(12) 0.2735(12) 0.498(2)
O11 O 0.4310(16) 0.5220(19) 0.643(3)
O12 O 0.3081(12) 0.5000 0.712(2)
O13 O 0.3845(15) 0.5000 0.374(3)
O14 O 0.2296(15) 0.5000 0.294(2)
O9A O 0.2150(9) 0.5939(8) 0.4989(15)
O10A O 0.3462(9) 0.6351(9) 0.5002(19)
O11A O 0.4310(16) 0.4780(19) 0.643(3)
C9F C 0.3255(12) 0.2265(12) 0.502(2)
C8F C 0.1937(10) 0.1919(11) 0.5004(19)
O15 O 0.531(2) 0.5000 0.899(4)
O16 O 0.5000 0.6152(17) 0.5000
O17 O 0.4307(9) 0.1186(11) -0.157(2)
Lu1 Lu 0.11592(8) 0.5000 -0.18417(15)
Cl1 Cl 0.3390(3) 0.3107(4) -0.1821(7)
Cl2 Cl 0.0246(4) 0.7958(4) -0.1540(9)
O1 O 0.2033(8) 0.4118(9) -0.2102(18)
O2 O 0.0806(9) 0.6296(9) -0.1817(17)
C1 C 0.2006(13) 0.3374(14) -0.188(2)
C2 C 0.1227(14) 0.6865(16) -0.175(3)
C3 C 0.1088(14) 0.7658(14) -0.167(3)
C4 C 0.1644(13) 0.8273(14) -0.152(2)
C5 C 0.2428(13) 0.8023(13) -0.159(2)
C6 C 0.2539(15) 0.2797(15) -0.173(3)
O3 O 0.1555(10) 0.8983(11) -0.1360(19)
O4 O 0.2849(10) 0.8553(9) -0.161(2)
O5 O 0.0969(15) 0.5000 -0.408(3)
O6 O -0.0215(13) 0.5000 -0.293(3)
O7 O 0.0720(12) 0.5000 -0.014(3)
O8 O 0.2189(16) 0.5000 0.007(2)
O1A O 0.2033(8) 0.5882(9) -0.2102(18)
O2A O 0.0806(9) 0.3704(9) -0.1817(17)
C2A C 0.1227(14) 0.3135(16) -0.175(3)
C1A C 0.2006(13) 0.6626(14) -0.188(2)
C6A C 0.2539(15) 0.7203(15) -0.173(3)
C5A C 0.2428(13) 0.1977(13) -0.159(2)
loop_
_geom_bond_atom_site_label_1
_geom_bond_atom_site_label_2
_geom_bond_site_symmetry_1
_geom_bond_site_symmetry_2
Lu1 O1 1_555 1_555
Cl1 C6 1_555 1_555
Cl2 C3 1_555 1_555
O1 C1 1_555 1_555
O2 Lu1 1_555 1_555
C1 C6 1_555 1_555
C2 O2 1_555 1_555
C3 C2 1_555 1_555
C4 C3 1_555 1_555
C5 C4 1_555 1_555
C6 C5A 1_555 1_555
O3 C4 1_555 1_555
O4 C5 1_555 1_555
O5 Lu1 1_555 1_555
O6 Lu1 1_555 1_555
O7 Lu1 1_555 1_555
O8 Lu1 1_555 1_555
Lu2 O9 1_555 1_555
Cl3 C9 1_555 1_555
O9 C7 1_555 1_555
O10 Lu2 1_555 1_555
C7 C8 1_555 1_555
C8 O10 1_555 1_555
C9 C7 1_555 1_555
O11 Lu2 1_555 1_555
O12 Lu2 1_555 1_555
O13 Lu2 1_555 1_555
O14 Lu2 1_555 1_555
O1A Lu1 1_555 1_555
O2A Lu1 1_555 1_555
C2A C1 1_555 1_555
C1A C2 1_555 1_555
C6A C5 1_555 1_555
O9A Lu2 1_555 1_555
O10A Lu2 1_555 1_555
O11A Lu2 1_555 1_555
C9F C8 1_555 1_555
C8F C9 1_555 1_555
O11 O11A 1_555 1_555
O1A C1A 1_555 1_555
O2A C2A 1_555 1_555
C1A C6A 1_555 1_555

#END
