
#######################################################################
#
#                 Cambridge Crystallographic Data Centre
#                                CCDC 
#
#######################################################################
#
# If this CIF has been generated from an entry in the Cambridge 
# Structural Database, then it will include bibliographic, chemical, 
# crystal, experimental, refinement or atomic coordinate data resulting 
# from the CCDC's data processing and validation procedures.
#
#######################################################################

data_MNCROH01
_symmetry_cell_setting           orthorhombic
_symmetry_space_group_name_H-M   'P b c a'
_symmetry_Int_Tables_number      61
_space_group_name_Hall           '-P 2ac 2ab'
loop_
_symmetry_equiv_pos_site_id
_symmetry_equiv_pos_as_xyz
1 x,y,z
2 1/2-x,-y,1/2+z
3 1/2+x,1/2-y,-z
4 -x,1/2+y,1/2-z
5 -x,-y,-z
6 1/2+x,y,1/2-z
7 1/2-x,1/2+y,z
8 x,1/2-y,1/2+z
_cell_length_a                   12.063(3)
_cell_length_b                   8.213(2)
_cell_length_c                   15.652(3)
_cell_angle_alpha                90
_cell_angle_beta                 90
_cell_angle_gamma                90
_cell_volume                     1550.7
loop_
_atom_site_label
_atom_site_type_symbol
_atom_site_fract_x
_atom_site_fract_y
_atom_site_fract_z
Mn1 Mn 0.12367(2) 0.11598(3) 0.18594(2)
O1 O 0.1347(1) 0.3055(2) 0.2848(1)
O2 O 0.1151(1) -0.0287(2) 0.3082(1)
O3 O 0.1372(1) 0.2943(2) 0.0841(1)
O4 O 0.1095(1) -0.1006(2) 0.1136(1)
O5 O -0.0559(1) 0.1525(1) 0.1779(1)
O6 O 0.3080(1) 0.0993(2) 0.1781(1)
O7 O 0.1195(1) -0.1020(2) 0.4961(1)
O8 O 0.1329(1) 0.4717(2) 0.4543(1)
C1 C 0.1313(2) 0.2421(2) 0.3576(1)
C2 C 0.1230(2) 0.0685(2) 0.3699(1)
C3 C 0.1240(2) 0.0313(2) 0.4612(1)
C4 C 0.1324(2) 0.3088(2) 0.0048(1)
C5 C 0.1327(2) 0.3219(2) 0.4404(1)
H1 H 0.127 -0.188 0.128
H2 H 0.116 -0.094 0.066
H3 H -0.075 0.244 0.175
H4 H -0.085 0.096 0.131
H5 H 0.353 0.082 0.222
H6 H 0.326 0.041 0.144
C4G C 0.1324(2) 0.1912(2) 0.5048(1)
C3G C 0.1240(2) 0.4687(2) -0.0388(1)
C5G C 0.1327(2) 0.1781(2) -0.0596(1)
O3G O 0.1372(1) 0.2057(2) 0.5841(1)
O7G O 0.1195(1) 0.6020(2) -0.0039(1)
C2G C 0.1230(2) 0.4315(2) -0.1301(1)
O8G O 0.1329(1) 0.0283(2) -0.0457(1)
C1G C 0.1313(2) 0.2579(2) -0.1424(1)
Mn1G Mn 0.12367(2) 0.38402(3) 0.68594(2)
O2G O 0.1151(1) 0.5287(2) -0.1918(1)
O1G O 0.1347(1) 0.1945(2) -0.2152(1)
O1G_2 O 0.1347(1) 0.1945(2) 0.7848(1)
O2G_2 O 0.1151(1) 0.5287(2) 0.8082(1)
O4G O 0.1095(1) 0.6006(2) 0.6136(1)
O5G O -0.0559(1) 0.3475(1) 0.6779(1)
O6G O 0.3080(1) 0.4007(2) 0.6781(1)
Mn1G_2 Mn 0.12367(2) 0.38402(3) -0.31406(2)
H1G H 0.127 0.688 0.628
H2G H 0.116 0.594 0.566
H3G H -0.075 0.256 0.675
H4G H -0.085 0.404 0.631
H5G H 0.353 0.418 0.722
H6G H 0.326 0.459 0.644
loop_
_geom_bond_atom_site_label_1
_geom_bond_atom_site_label_2
_geom_bond_site_symmetry_1
_geom_bond_site_symmetry_2
Mn1 O1 1_555 1_555
O1 C1 1_555 1_555
O2 Mn1 1_555 1_555
O3 Mn1 1_555 1_555
O4 Mn1 1_555 1_555
O5 Mn1 1_555 1_555
O6 Mn1 1_555 1_555
O7 C3 1_555 1_555
O8 C5 1_555 1_555
C1 C2 1_555 1_555
C2 O2 1_555 1_555
C3 C2 1_555 1_555
C4 O3 1_555 1_555
C5 C1 1_555 1_555
H1 O4 1_555 1_555
H2 O4 1_555 1_555
H3 O5 1_555 1_555
H4 O5 1_555 1_555
H5 O6 1_555 1_555
H6 O6 1_555 1_555
C4G C3 1_555 1_555
C3G C4 1_555 1_555
C5G C4 1_555 1_555
O3G C4G 1_555 1_555
O7G C3G 1_555 1_555
C2G C3G 1_555 1_555
O8G C5G 1_555 1_555
C1G C5G 1_555 1_555
Mn1G O3G 1_555 1_555
O2G C2G 1_555 1_555
O1G C1G 1_555 1_555
O1G_2 Mn1G 1_555 1_555
O2G_2 Mn1G 1_555 1_555
O4G Mn1G 1_555 1_555
O5G Mn1G 1_555 1_555
O6G Mn1G 1_555 1_555
Mn1G_2 O2G 1_555 1_555
H1G O4G 1_555 1_555
H2G O4G 1_555 1_555
H3G O5G 1_555 1_555
H4G O5G 1_555 1_555
H5G O6G 1_555 1_555
H6G O6G 1_555 1_555
C5 C4G 1_555 1_555
C2G C1G 1_555 1_555
O1G Mn1G_2 1_555 1_555

#END
