
#######################################################################
#
#                 Cambridge Crystallographic Data Centre
#                                CCDC 
#
#######################################################################
#
# If this CIF has been generated from an entry in the Cambridge 
# Structural Database, then it will include bibliographic, chemical, 
# crystal, experimental, refinement or atomic coordinate data resulting 
# from the CCDC's data processing and validation procedures.
#
#######################################################################

data_MOCGIV
_symmetry_cell_setting           monoclinic
_symmetry_space_group_name_H-M   'P 21/c'
_symmetry_Int_Tables_number      14
_space_group_name_Hall           '-P 2ybc'
loop_
_symmetry_equiv_pos_site_id
_symmetry_equiv_pos_as_xyz
1 x,y,z
2 -x,1/2+y,1/2-z
3 -x,-y,-z
4 x,1/2-y,1/2+z
_cell_length_a                   8.8374(10)
_cell_length_b                   22.301(3)
_cell_length_c                   10.4039(12)
_cell_angle_alpha                90
_cell_angle_beta                 91.787(2)
_cell_angle_gamma                90
_cell_volume                     2049.43
loop_
_atom_site_label
_atom_site_type_symbol
_atom_site_fract_x
_atom_site_fract_y
_atom_site_fract_z
La1 La 0.240539(17) 0.501487(7) 0.969575(16)
O1 O 0.0773(2) 0.54019(11) 0.7842(2)
O2 O -0.1725(2) 0.54822(10) 0.8148(2)
O3 O 0.3276(2) 0.60617(9) 0.8771(2)
O4 O 0.5267(2) 0.55524(9) 0.9479(2)
O5 O 0.1829(2) 0.38740(9) 0.9212(2)
O6 O -0.0230(2) 0.44191(9) 0.9412(2)
O7 O 0.3335(2) 0.56803(10) 1.1548(2)
H1 H 0.2756 0.5781 1.2154
H2 H 0.4284 0.5690 1.1740
O8 O 0.3676(2) 0.46888(11) 0.7618(2)
H3 H 0.3449 0.4359 0.7246
H4 H 0.4099 0.4953 0.7162
N1 N 0.0549(3) 0.59500(13) 0.5502(3)
N2 N 0.0578(4) 0.57827(17) 0.4272(3)
N3 N 0.1879(4) 0.59456(17) 0.3863(3)
N4 N 0.2714(3) 0.62091(18) 0.4803(3)
N5 N 0.5013(3) 0.70137(11) 0.8026(3)
N6 N 0.5552(5) 0.70836(17) 0.6852(3)
N7 N 0.4699(6) 0.7482(2) 0.6291(4)
N8 N 0.3630(5) 0.76798(18) 0.7083(5)
N9 N 0.0237(3) 0.28675(12) 0.9935(3)
N10 N -0.0013(5) 0.27371(17) 1.1161(4)
N11 N 0.0920(5) 0.23092(17) 1.1477(4)
N12 N 0.1778(4) 0.21625(13) 1.0488(3)
C1 C -0.0540(3) 0.55465(14) 0.7525(3)
C2 C -0.0808(4) 0.58448(19) 0.6229(4)
H5 H -0.1495 0.5596 0.5716
H6 H -0.1306 0.6226 0.6363
C3 C 0.1857(4) 0.62000(19) 0.5812(4)
H7 H 0.2134 0.6348 0.6622
C4 C 0.4648(3) 0.60271(13) 0.9041(3)
C5 C 0.5664(3) 0.65679(13) 0.8891(3)
H8 H 0.5855 0.6749 0.9728
H9 H 0.6628 0.6437 0.8568
C6 C 0.3847(5) 0.73768(18) 0.8148(4)
H10 H 0.3271 0.7412 0.8877
C7 C 0.0439(3) 0.39201(13) 0.9307(3)
C8 C -0.0539(4) 0.33606(14) 0.9294(4)
H11 H -0.1475 0.3444 0.9722
H12 H -0.0790 0.3249 0.8412
C9 C 0.1344(4) 0.25182(15) 0.9559(4)
H13 H 0.1754 0.2526 0.8747
La1B La -0.240539(17) 0.498513(7) 1.030425(16)
La1B_2 La 0.759461(17) 0.498513(7) 1.030425(16)
O2B O 0.1725(2) 0.45178(10) 1.1852(2)
O4B O 0.4733(2) 0.44476(9) 1.0521(2)
O6B O 0.0230(2) 0.55809(9) 1.0588(2)
O9 O 0.3992(3) 0.38004(11) 0.5781(3)
H14 H 0.3348 0.3519 0.5871
H15 H 0.4904 0.3688 0.5673
O10 O 0.5547(3) 0.54482(15) 0.6477(3)
H16 H 0.5774 0.5142 0.6073
H17 H 0.6204 0.5622 0.6979
loop_
_geom_bond_atom_site_label_1
_geom_bond_atom_site_label_2
_geom_bond_site_symmetry_1
_geom_bond_site_symmetry_2
La1 O1 1_555 1_555
O1 C1 1_555 1_555
O2 C1 1_555 1_555
O3 La1 1_555 1_555
O4 La1 1_555 1_555
O5 La1 1_555 1_555
O6 La1 1_555 1_555
O7 La1 1_555 1_555
H1 O7 1_555 1_555
H2 O7 1_555 1_555
O8 La1 1_555 1_555
H3 O8 1_555 1_555
H4 O8 1_555 1_555
N1 N2 1_555 1_555
N2 N3 1_555 1_555
N3 N4 1_555 1_555
N4 C3 1_555 1_555
N5 N6 1_555 1_555
N6 N7 1_555 1_555
N7 N8 1_555 1_555
N8 C6 1_555 1_555
N9 N10 1_555 1_555
N10 N11 1_555 1_555
N11 N12 1_555 1_555
N12 C9 1_555 1_555
C1 C2 1_555 1_555
C2 N1 1_555 1_555
H5 C2 1_555 1_555
H6 C2 1_555 1_555
C3 N1 1_555 1_555
H7 C3 1_555 1_555
C4 O3 1_555 1_555
C5 N5 1_555 1_555
H8 C5 1_555 1_555
H9 C5 1_555 1_555
C6 N5 1_555 1_555
H10 C6 1_555 1_555
C7 O5 1_555 1_555
C8 N9 1_555 1_555
H11 C8 1_555 1_555
H12 C8 1_555 1_555
C9 N9 1_555 1_555
H13 C9 1_555 1_555
O9 H14 1_555 1_555
H15 O9 1_555 1_555
O10 H16 1_555 1_555
H17 O10 1_555 1_555
La1B O2 1_555 1_555
La1B_2 O4 1_555 1_555
O2B La1 1_555 1_555
O4B La1 1_555 1_555
O6B La1 1_555 1_555
O4 C4 1_555 1_555
O6 C7 1_555 1_555
O6 La1B 1_555 1_555
C4 C5 1_555 1_555
C7 C8 1_555 1_555
La1B O6B 1_555 1_555
La1B_2 O4B 1_555 1_555

#END
