
#######################################################################
#
#                 Cambridge Crystallographic Data Centre
#                                CCDC 
#
#######################################################################
#
# If this CIF has been generated from an entry in the Cambridge 
# Structural Database, then it will include bibliographic, chemical, 
# crystal, experimental, refinement or atomic coordinate data resulting 
# from the CCDC's data processing and validation procedures.
#
#######################################################################

data_MODBOX01
_symmetry_cell_setting           monoclinic
_symmetry_space_group_name_H-M   'P 21/c'
_symmetry_Int_Tables_number      14
_space_group_name_Hall           '-P 2ybc'
loop_
_symmetry_equiv_pos_site_id
_symmetry_equiv_pos_as_xyz
1 x,y,z
2 -x,1/2+y,1/2-z
3 -x,-y,-z
4 x,1/2-y,1/2+z
_cell_length_a                   12.640(2)
_cell_length_b                   12.935(2)
_cell_length_c                   16.6538(18)
_cell_angle_alpha                90
_cell_angle_beta                 127.782(8)
_cell_angle_gamma                90
_cell_volume                     2152.01
loop_
_atom_site_label
_atom_site_type_symbol
_atom_site_fract_x
_atom_site_fract_y
_atom_site_fract_z
La1 La -0.02227(3) 0.686253(19) 0.770960(19)
La2 La 0.45240(3) 0.762001(19) 1.225881(19)
C1 C 0.0356(5) 0.4768(4) 0.9191(4)
C2 C 0.1837(5) 0.5008(4) 0.9764(4)
H1 H 0.2244 0.4406 0.9693
C3 C 0.2639(5) 0.5221(3) 1.0915(4)
H2 H 0.2345 0.4736 1.1195
C4 C 0.4149(5) 0.5055(4) 1.1461(3)
C5 C -0.2143(5) 0.7336(3) 0.3475(4)
C6 C -0.2318(4) 0.6546(4) 0.4083(3)
H3 H -0.2443 0.5865 0.3778
C7 C -0.1078(5) 0.6480(3) 0.5203(3)
H4 H -0.0294 0.6580 0.5223
C8 C -0.0910(4) 0.5439(3) 0.5692(3)
C9 C 0.4100(4) 0.9432(3) 1.0582(3)
C10 C 0.3975(4) 0.8505(3) 0.9976(3)
H5 H 0.4679 0.8554 0.9895
C11 C 0.2623(4) 0.8472(4) 0.8914(3)
H6 H 0.2413 0.9166 0.8618
C12 C 0.2703(5) 0.7733(4) 0.8237(3)
O1 O -0.0497(3) 0.5366(3) 0.8485(3)
O2 O 0.0077(4) 0.3959(3) 0.9437(3)
O3 O 0.1946(4) 0.5861(3) 0.9265(3)
H7 H 0.2790 0.6070 0.9486
O4 O 0.2455(3) 0.6245(3) 1.1114(3)
H8 H 0.1593 0.6460 1.0845
O5 O 0.4896(3) 0.5836(2) 1.1846(3)
O6 O 0.4527(4) 0.4159(2) 1.1461(3)
O7 O -0.1034(3) 0.7385(3) 0.3650(3)
O8 O -0.3178(3) 0.7832(3) 0.2793(3)
O9 O -0.3517(3) 0.6794(2) 0.3941(2)
H9 H -0.3594 0.6659 0.4452
O10 O -0.1035(3) 0.7260(2) 0.5818(2)
H10 H -0.1293 0.7928 0.5563
O11 O -0.0457(4) 0.5431(2) 0.6620(2)
O12 O -0.1145(3) 0.4628(2) 0.5207(2)
O13 O 0.4456(4) 0.9281(3) 1.1459(2)
O14 O 0.4190(4) 0.7580(2) 1.0525(3)
H11 H 0.4213 0.6949 1.0269
O15 O 0.3839(3) 1.0303(2) 1.0163(2)
O16 O 0.1585(3) 0.8147(2) 0.8950(3)
H12 H 0.1562 0.8419 0.9457
O17 O 0.3682(3) 0.7820(3) 0.8237(3)
O18 O 0.1760(4) 0.7095(3) 0.7716(3)
O19 O 0.2357(4) 0.8529(4) 1.1501(3)
O20 O -0.1028(4) 0.8730(3) 0.7130(3)
H13 H -0.0433 0.9169 0.7536
H14 H -0.1785 0.8969 0.6921
O21 O -0.2688(4) 0.6517(3) 0.6525(3)
H15 H -0.3205 0.6121 0.6021
H16 H -0.3030 0.6628 0.6825
H19 H 0.199(6) 0.853(5) 1.175(5)
H20 H 0.186(6) 0.893(5) 1.103(5)
La1C La -0.02227(3) 0.813747(19) 0.270960(19)
La2A La 0.54760(3) 0.262001(19) 1.274119(19)
La2_2 La -0.54760(3) 0.762001(19) 0.225881(19)
La2C La 0.45240(3) 0.737999(19) 0.725881(19)
O6A O 0.5473(4) 0.9159(2) 1.3539(3)
O7C O -0.1034(3) 0.7615(3) 0.8650(3)
O8_2 O 0.6822(3) 0.7832(3) 1.2793(3)
O9_2 O 0.6483(3) 0.6794(2) 1.3941(2)
H9_2 H 0.6406 0.6659 1.4452
O17C O 0.3682(3) 0.7180(3) 1.3237(3)
O22 O 0.3081(8) 0.4814(6) 0.8258(8)
H17 H 0.3737 0.5138 0.8358
H18 H 0.2816 0.5142 0.8548
O23 O 0.4055(11) 0.3437(9) 0.9645(8)
O24? O 0.5380(12) 0.4036(7) 1.0230(8)
loop_
_geom_bond_atom_site_label_1
_geom_bond_atom_site_label_2
_geom_bond_site_symmetry_1
_geom_bond_site_symmetry_2
La1 O1 1_555 1_555
La2 O4 1_555 1_555
C1 C2 1_555 1_555
C2 H1 1_555 1_555
C3 C2 1_555 1_555
H2 C3 1_555 1_555
C4 C3 1_555 1_555
C5 C6 1_555 1_555
C6 H3 1_555 1_555
C7 C6 1_555 1_555
H4 C7 1_555 1_555
C8 C7 1_555 1_555
C9 C10 1_555 1_555
C10 H5 1_555 1_555
C11 C10 1_555 1_555
H6 C11 1_555 1_555
C12 C11 1_555 1_555
O1 C1 1_555 1_555
O2 C1 1_555 1_555
O3 La1 1_555 1_555
H7 O3 1_555 1_555
O4 C3 1_555 1_555
H8 O4 1_555 1_555
O5 La2 1_555 1_555
O6 C4 1_555 1_555
O7 C5 1_555 1_555
O8 C5 1_555 1_555
O9 C6 1_555 1_555
H9 O9 1_555 1_555
O10 La1 1_555 1_555
H10 O10 1_555 1_555
O11 La1 1_555 1_555
O12 C8 1_555 1_555
O13 La2 1_555 1_555
O14 La2 1_555 1_555
H11 O14 1_555 1_555
O15 C9 1_555 1_555
O16 La1 1_555 1_555
H12 O16 1_555 1_555
O17 C12 1_555 1_555
O18 La1 1_555 1_555
O19 La2 1_555 1_555
O20 La1 1_555 1_555
H13 O20 1_555 1_555
H14 O20 1_555 1_555
O21 La1 1_555 1_555
H15 O21 1_555 1_555
H16 O21 1_555 1_555
O22 H17 1_555 1_555
H18 O22 1_555 1_555
H19 O19 1_555 1_555
H20 O19 1_555 1_555
La1C O7 1_555 1_555
La2A O6 1_555 1_555
La2_2 O8 1_555 1_555
La2C O17 1_555 1_555
O6A La2 1_555 1_555
O7C La1 1_555 1_555
O8_2 La2 1_555 1_555
O9_2 La2 1_555 1_555
H9_2 O9_2 1_555 1_555
O17C La2 1_555 1_555
C2 O3 1_555 1_555
C4 O5 1_555 1_555
C7 O10 1_555 1_555
C8 O11 1_555 1_555
C9 O13 1_555 1_555
C10 O14 1_555 1_555
C11 O16 1_555 1_555
C12 O18 1_555 1_555
O9 La2_2 1_555 1_555

#END
