
#######################################################################
#
#                 Cambridge Crystallographic Data Centre
#                                CCDC 
#
#######################################################################
#
# If this CIF has been generated from an entry in the Cambridge 
# Structural Database, then it will include bibliographic, chemical, 
# crystal, experimental, refinement or atomic coordinate data resulting 
# from the CCDC's data processing and validation procedures.
#
#######################################################################

data_MODBEN
_symmetry_cell_setting           monoclinic
_symmetry_space_group_name_H-M   'C 2/c'
_symmetry_Int_Tables_number      15
_space_group_name_Hall           '-C 2yn'
loop_
_symmetry_equiv_pos_site_id
_symmetry_equiv_pos_as_xyz
1 x,y,z
2 1/2+x,1/2+y,z
3 -x,y,1/2-z
4 1/2-x,1/2+y,1/2-z
5 -x,-y,-z
6 1/2-x,1/2-y,-z
7 x,-y,1/2+z
8 1/2+x,1/2-y,1/2+z
_cell_length_a                   17.270(3)
_cell_length_b                   12.040(2)
_cell_length_c                   13.064(3)
_cell_angle_alpha                90
_cell_angle_beta                 127.94(3)
_cell_angle_gamma                90
_cell_volume                     2142.31
loop_
_atom_site_label
_atom_site_type_symbol
_atom_site_fract_x
_atom_site_fract_y
_atom_site_fract_z
Cu1 Cu 0.39314(3) 0.49203(3) 0.59806(4)
Cl1 Cl 0.57394(6) 0.49142(6) 0.69868(8)
N1 N 0.3855(2) -0.1521(2) 0.3785(3)
N2 N 0.40548(19) -0.08908(19) 0.5524(3)
N3 N 0.3659(2) -0.0448(2) 0.3613(3)
N4 N 0.40899(19) -0.17591(19) 0.4924(3)
N5 N 0.36588(18) 0.33219(19) 0.5431(2)
C1 C 0.2946(2) -0.4169(2) 0.4346(3)
H1 H 0.2411 -0.4528 0.4259
H2 H 0.3062 -0.4317 0.3729
C2 C 0.3534(2) -0.3451(2) 0.5330(3)
H3 H 0.3419 -0.3302 0.5948
C3 C 0.4367(2) -0.2879(2) 0.5475(3)
H4 H 0.4545 -0.3305 0.5027
H5 H 0.4928 -0.2837 0.6374
C4 C 0.3685(2) 0.1086(2) 0.4905(3)
C5 C 0.3489(2) 0.2998(2) 0.4331(3)
H6 H 0.3356 0.3559 0.3720
C6 C 0.3829(2) 0.1409(2) 0.6025(3)
H7 H 0.3937 0.0860 0.6633
C7 C 0.3811(2) 0.2523(2) 0.6256(3)
H8 H 0.3911 0.2741 0.7037
C8 C 0.3495(2) 0.1902(2) 0.4032(3)
H9 H 0.3371 0.1704 0.3231
C9 C 0.3785(2) -0.0083(2) 0.4676(3)
Cu1B Cu 0.60686(3) 0.49203(3) 0.90194(4)
Cu1_2 Cu 0.39314(3) -0.50797(3) 0.59806(4)
Cl1B Cl 0.42606(6) 0.49142(6) 0.80132(8)
C1_2 C 0.2946(2) 0.5831(2) 0.4346(3)
H1_2 H 0.2411 0.5472 0.4259
H2_2 H 0.3062 0.5683 0.3729
C2_2 C 0.3534(2) 0.6549(2) 0.5330(3)
H3_2 H 0.3419 0.6698 0.5948
loop_
_geom_bond_atom_site_label_1
_geom_bond_atom_site_label_2
_geom_bond_site_symmetry_1
_geom_bond_site_symmetry_2
Cu1 Cl1 1_555 1_555
Cl1 Cu1B 1_555 1_555
N1 N3 1_555 1_555
N2 N4 1_555 1_555
N3 C9 1_555 1_555
N4 N1 1_555 1_555
N5 Cu1 1_555 1_555
C1 H1 1_555 1_555
H2 C1 1_555 1_555
C2 C1 1_555 1_555
H3 C2 1_555 1_555
C3 N4 1_555 1_555
H4 C3 1_555 1_555
H5 C3 1_555 1_555
C4 C6 1_555 1_555
C5 N5 1_555 1_555
H6 C5 1_555 1_555
C6 H7 1_555 1_555
C7 N5 1_555 1_555
H8 C7 1_555 1_555
C8 C4 1_555 1_555
H9 C8 1_555 1_555
C9 N2 1_555 1_555
Cu1B Cl1B 1_555 1_555
Cu1_2 C1 1_555 1_555
Cl1B Cu1 1_555 1_555
C1_2 Cu1 1_555 1_555
H1_2 C1_2 1_555 1_555
H2_2 C1_2 1_555 1_555
C2_2 Cu1 1_555 1_555
H3_2 C2_2 1_555 1_555
C2 C3 1_555 1_555
C2 Cu1_2 1_555 1_555
C4 C9 1_555 1_555
C5 C8 1_555 1_555
C6 C7 1_555 1_555
C1_2 C2_2 1_555 1_555

#END
