
#######################################################################
#
#                 Cambridge Crystallographic Data Centre
#                                CCDC 
#
#######################################################################
#
# If this CIF has been generated from an entry in the Cambridge 
# Structural Database, then it will include bibliographic, chemical, 
# crystal, experimental, refinement or atomic coordinate data resulting 
# from the CCDC's data processing and validation procedures.
#
#######################################################################

data_MODDEP
_symmetry_cell_setting           monoclinic
_symmetry_space_group_name_H-M   'P 21/c'
_symmetry_Int_Tables_number      14
_space_group_name_Hall           '-P 2ybc'
loop_
_symmetry_equiv_pos_site_id
_symmetry_equiv_pos_as_xyz
1 x,y,z
2 -x,1/2+y,1/2-z
3 -x,-y,-z
4 x,1/2-y,1/2+z
_cell_length_a                   12.080(2)
_cell_length_b                   16.615(3)
_cell_length_c                   8.8802(18)
_cell_angle_alpha                90
_cell_angle_beta                 109.32(3)
_cell_angle_gamma                90
_cell_volume                     1681.97
loop_
_atom_site_label
_atom_site_type_symbol
_atom_site_fract_x
_atom_site_fract_y
_atom_site_fract_z
Dy1 Dy 0.047406(15) 0.117791(10) 0.06685(2)
O1 O -0.1292(2) 0.11347(17) -0.1593(3)
O2 O -0.0933(3) 0.2099(2) 0.1170(4)
H1 H -0.051(5) 0.246(3) 0.161(7)
H2 H -0.145(4) 0.228(3) 0.046(6)
O3 O -0.1802(2) -0.01721(17) -0.1976(3)
O4 O -0.3483(2) 0.15102(17) -0.3735(3)
O5 O -0.7742(2) 0.21741(16) -0.8419(3)
O6 O -0.8998(3) 0.35594(17) -1.1500(3)
O7 O -0.9551(3) 0.23500(18) -1.0955(4)
O8 O 0.1721(3) 0.09109(18) -0.0991(4)
O9 O 0.0580(3) -0.0133(2) -0.1313(4)
O10 O 0.3019(3) 0.0217(2) -0.2669(4)
C1 C -0.1940(3) 0.0565(2) -0.2298(5)
C2 C -0.3012(3) 0.0727(2) -0.3743(5)
H3 H -0.2803 0.0664 -0.4701
H4 H -0.3611 0.0331 -0.3778
C3 C -0.4522(3) 0.1666(2) -0.4950(5)
C4 C -0.5023(3) 0.1140(2) -0.6214(4)
H5 H -0.4650 0.0660 -0.6286
C5 C -0.5082(4) 0.2383(3) -0.4866(5)
H6 H -0.4742 0.2739 -0.4033
C6 C -0.6087(3) 0.1338(2) -0.7369(5)
H7 H -0.6418 0.0991 -0.8222
C7 C -0.6154(4) 0.2576(3) -0.6023(5)
H8 H -0.6530 0.3058 -0.5967
C8 C -0.6648(3) 0.2037(2) -0.7256(4)
C9 C -0.7965(3) 0.2992(2) -0.9002(5)
H9 H -0.7255 0.3229 -0.9092
H10 H -0.8222 0.3317 -0.8272
C10 C -0.8909(3) 0.2962(2) -1.0620(4)
C11 C 0.1401(3) 0.0239(3) -0.1581(5)
C12 C 0.1937(4) -0.0131(3) -0.2737(6)
H11 H 0.2054 -0.0702 -0.2510
H12 H 0.1389 -0.0075 -0.3812
C13 C 0.3980(4) 0.0092(3) -0.1300(6)
C14 C 0.4975(4) 0.0529(3) -0.1204(6)
H13 H 0.4960 0.0887 -0.2014
C15 C 0.4008(4) -0.0437(3) -0.0085(6)
H14 H 0.3342 -0.0731 -0.0135
Dy1B Dy -0.047406(15) -0.117791(10) -0.06685(2)
Dy1_2 Dy -0.952594(15) 0.117791(10) -0.93315(2)
Dy1C Dy -0.952594(15) 0.382209(10) -1.43315(2)
Dy1B_2 Dy 0.952594(15) -0.117791(10) -0.06685(2)
Dy1_3 Dy 1.047406(15) 0.117791(10) 0.06685(2)
Dy1B_3 Dy 0.952594(15) -0.117791(10) 0.93315(2)
Dy1A Dy 0.952594(15) -0.382209(10) 1.43315(2)
O1B O 0.1292(2) -0.11347(17) 0.1593(3)
O2B O 0.0933(3) -0.2099(2) -0.1170(4)
H1B H 0.051(5) -0.246(3) -0.161(7)
H2B H 0.145(4) -0.228(3) -0.046(6)
O3B O 0.1802(2) 0.01721(17) 0.1976(3)
O4B O 0.3483(2) -0.15102(17) 0.3735(3)
O5B O 0.7742(2) -0.21741(16) 0.8419(3)
O5_2 O 0.2258(2) 0.21741(16) 0.1581(3)
O5B_2 O -0.2258(2) -0.21741(16) -0.1581(3)
O6B O 0.8998(3) -0.35594(17) 1.1500(3)
O6C O 0.1002(3) 0.14406(17) 0.3500(3)
O6A O -0.1002(3) -0.14406(17) -0.3500(3)
O7B O 0.9551(3) -0.23500(18) 1.0955(4)
O7_2 O 0.0449(3) 0.23500(18) -0.0955(4)
O7B_2 O -0.0449(3) -0.23500(18) 0.0955(4)
O8B O 0.8279(3) -0.09109(18) 0.0991(4)
O8B_2 O -0.1721(3) -0.09109(18) 0.0991(4)
O9B O 0.9420(3) 0.0133(2) 0.1313(4)
O9B_2 O -0.0580(3) 0.0133(2) 0.1313(4)
O10B O 0.6981(3) -0.0217(2) 0.2669(4)
C1B C 0.1940(3) -0.0565(2) 0.2298(5)
C2B C 0.3012(3) -0.0727(2) 0.3743(5)
H3B H 0.2803 -0.0664 0.4701
H4B H 0.3611 -0.0331 0.3778
C3B C 0.4522(3) -0.1666(2) 0.4950(5)
C4B C 0.5023(3) -0.1140(2) 0.6214(4)
H5B H 0.4650 -0.0660 0.6286
C5B C 0.5082(4) -0.2383(3) 0.4866(5)
H6B H 0.4742 -0.2739 0.4033
C6B C 0.6087(3) -0.1338(2) 0.7369(5)
H7B H 0.6418 -0.0991 0.8222
C7B C 0.6154(4) -0.2576(3) 0.6023(5)
H8B H 0.6530 -0.3058 0.5967
C8B C 0.6648(3) -0.2037(2) 0.7256(4)
C9B C 0.7965(3) -0.2992(2) 0.9002(5)
H9B H 0.7255 -0.3229 0.9092
H10B H 0.8222 -0.3317 0.8272
C10B C 0.8909(3) -0.2962(2) 1.0620(4)
C11B C 0.8599(3) -0.0239(3) 0.1581(5)
C12B C 0.8063(4) 0.0131(3) 0.2737(6)
H11B H 0.7946 0.0702 0.2510
H12B H 0.8611 0.0075 0.3812
C13B C 0.6020(4) -0.0092(3) 0.1300(6)
C14B C 0.5025(4) -0.0529(3) 0.1204(6)
H13B H 0.5040 -0.0887 0.2014
C15B C 0.5992(4) 0.0437(3) 0.0085(6)
H14B H 0.6658 0.0731 0.0135
O11 O -0.2446(4) 0.2835(3) -0.1500(5)
H15 H -0.229(6) 0.258(4) -0.219(7)
H16 H -0.303(5) 0.260(4) -0.133(8)
loop_
_geom_bond_atom_site_label_1
_geom_bond_atom_site_label_2
_geom_bond_site_symmetry_1
_geom_bond_site_symmetry_2
Dy1 O1 1_555 1_555
O1 C1 1_555 1_555
O2 Dy1 1_555 1_555
H1 O2 1_555 1_555
H2 O2 1_555 1_555
O3 C1 1_555 1_555
O4 C2 1_555 1_555
O5 C8 1_555 1_555
O6 C10 1_555 1_555
O7 C10 1_555 1_555
O8 Dy1 1_555 1_555
O9 Dy1 1_555 1_555
O10 C12 1_555 1_555
C1 C2 1_555 1_555
C2 H3 1_555 1_555
H4 C2 1_555 1_555
C3 O4 1_555 1_555
C4 C3 1_555 1_555
H5 C4 1_555 1_555
C5 C3 1_555 1_555
H6 C5 1_555 1_555
C6 C4 1_555 1_555
H7 C6 1_555 1_555
C7 C5 1_555 1_555
H8 C7 1_555 1_555
C8 C6 1_555 1_555
C9 O5 1_555 1_555
H9 C9 1_555 1_555
H10 C9 1_555 1_555
C10 C9 1_555 1_555
C11 O8 1_555 1_555
C12 C11 1_555 1_555
H11 C12 1_555 1_555
H12 C12 1_555 1_555
C13 O10 1_555 1_555
C14 C13 1_555 1_555
H13 C14 1_555 1_555
C15 C13 1_555 1_555
H14 C15 1_555 1_555
O11 H15 1_555 1_555
H16 O11 1_555 1_555
Dy1B O3 1_555 1_555
Dy1_2 O5 1_555 1_555
Dy1C O6 1_555 1_555
Dy1B_2 O8B 1_555 1_555
Dy1_3 O9B 1_555 1_555
Dy1B_3 O5B 1_555 1_555
Dy1A O6B 1_555 1_555
O1B Dy1B 1_555 1_555
O2B Dy1B 1_555 1_555
H1B O2B 1_555 1_555
H2B O2B 1_555 1_555
O3B Dy1 1_555 1_555
O4B C2B 1_555 1_555
O5B C8B 1_555 1_555
O5_2 Dy1 1_555 1_555
O5B_2 Dy1B 1_555 1_555
O6B C10B 1_555 1_555
O6C Dy1 1_555 1_555
O6A Dy1B 1_555 1_555
O7B Dy1B_3 1_555 1_555
O7_2 Dy1 1_555 1_555
O7B_2 Dy1B 1_555 1_555
O8B C11B 1_555 1_555
O8B_2 Dy1B 1_555 1_555
O9B Dy1B_2 1_555 1_555
O9B_2 Dy1 1_555 1_555
O10B C12B 1_555 1_555
C1B O1B 1_555 1_555
C2B C1B 1_555 1_555
H3B C2B 1_555 1_555
H4B C2B 1_555 1_555
C3B O4B 1_555 1_555
C4B C3B 1_555 1_555
H5B C4B 1_555 1_555
C5B C3B 1_555 1_555
H6B C5B 1_555 1_555
C6B C4B 1_555 1_555
H7B C6B 1_555 1_555
C7B C5B 1_555 1_555
H8B C7B 1_555 1_555
C8B C6B 1_555 1_555
C9B O5B 1_555 1_555
H9B C9B 1_555 1_555
H10B C9B 1_555 1_555
C10B O7B 1_555 1_555
C11B O9B 1_555 1_555
C12B C11B 1_555 1_555
H11B C12B 1_555 1_555
H12B C12B 1_555 1_555
C13B O10B 1_555 1_555
C14B C15 1_555 1_555
H13B C14B 1_555 1_555
C15B C14 1_555 1_555
H14B C15B 1_555 1_555
O7 Dy1_2 1_555 1_555
O9 C11 1_555 1_555
O9 Dy1B 1_555 1_555
C7 C8 1_555 1_555
Dy1B O9B_2 1_555 1_555
O3B C1B 1_555 1_555
C7B C8B 1_555 1_555
C9B C10B 1_555 1_555
C13B C14B 1_555 1_555
C13B C15B 1_555 1_555

#END
