
#######################################################################
#
#                 Cambridge Crystallographic Data Centre
#                                CCDC 
#
#######################################################################
#
# If this CIF has been generated from an entry in the Cambridge 
# Structural Database, then it will include bibliographic, chemical, 
# crystal, experimental, refinement or atomic coordinate data resulting 
# from the CCDC's data processing and validation procedures.
#
#######################################################################

data_MODWOT
_symmetry_cell_setting           monoclinic
_symmetry_space_group_name_H-M   'C 2/c'
_symmetry_Int_Tables_number      15
_space_group_name_Hall           '-C 2yn'
loop_
_symmetry_equiv_pos_site_id
_symmetry_equiv_pos_as_xyz
1 x,y,z
2 -x,y,1/2-z
3 1/2+x,1/2+y,z
4 1/2-x,1/2+y,1/2-z
5 -x,-y,-z
6 x,-y,1/2+z
7 1/2-x,1/2-y,-z
8 1/2+x,1/2-y,1/2+z
_cell_length_a                   16.3353(12)
_cell_length_b                   16.0464(12)
_cell_length_c                   18.4433(15)
_cell_angle_alpha                90
_cell_angle_beta                 101.6790(10)
_cell_angle_gamma                90
_cell_volume                     4734.32
loop_
_atom_site_label
_atom_site_type_symbol
_atom_site_fract_x
_atom_site_fract_y
_atom_site_fract_z
C1 C 0.70401(12) 0.13995(12) 0.77025(10)
C2 C 0.78841(11) 0.12569(11) 0.77599(10)
H1 H 0.8260 0.1526 0.8132
C3 C 0.81946(11) 0.07260(11) 0.72817(10)
C4 C 0.76133(12) 0.03345(11) 0.67177(10)
C5 C 0.67681(12) 0.04778(14) 0.66633(12)
H2 H 0.6388 0.0217 0.6288
C6 C 0.64728(12) 0.09985(14) 0.71517(12)
H3 H 0.5901 0.1078 0.7111
C7 C 0.78624(12) -0.02644(12) 0.61660(11)
C8 C 0.95279(12) 0.06120(12) 0.67891(10)
H4 H 0.9217 0.0594 0.6307
C9 C 0.96129(12) 0.06186(12) 0.80938(11)
H5 H 0.9356 0.0615 0.8500
C10 C 0.91152(11) 0.06312(11) 0.73821(10)
C11 C -0.02915(19) 0.35483(18) 1.05288(17)
H6 H -0.0150 0.3668 1.1032
C12 C 0.0086(2) 0.38754(19) 1.00103(18)
H7 H 0.0533 0.4246 1.0087
C13 C -0.09005(14) 0.30475(15) 0.95081(14)
H8 H -0.1264 0.2746 0.9149
C14 C -0.00337(16) 0.3637(2) 0.86529(15)
H9 H -0.0425 0.3352 0.8267
H10 H -0.0026 0.4221 0.8518
C15 C 0.08291(14) 0.32705(16) 0.87087(13)
C16 C 0.10458(16) 0.25217(16) 0.90673(14)
H11 H 0.0651 0.2232 0.9267
C17 C 0.43784(13) 0.34863(14) 0.84551(12)
H12 H 0.4394 0.3222 0.8009
C18 C 0.39135(14) 0.41549(14) 0.93141(12)
H13 H 0.3568 0.4436 0.9576
C19 C 0.47291(13) 0.39849(13) 0.95460(12)
H14 H 0.5046 0.4130 1.0006
C20 C 0.28591(13) 0.38536(17) 0.81450(13)
H15 H 0.2885 0.3621 0.7665
H16 H 0.2678 0.4429 0.8072
C21 C 0.22255(13) 0.33721(14) 0.84718(12)
C22 C 0.24258(15) 0.26203(14) 0.88328(12)
H17 H 0.2959 0.2398 0.8873
C23 C 0.18370(16) 0.22006(15) 0.91331(14)
H18 H 0.1976 0.1699 0.9381
C24 C 0.14286(13) 0.36897(15) 0.84159(12)
H19 H 0.1292 0.4196 0.8176
C25 C 0.67460(12) 0.19987(12) 0.82170(11)
H20 H 0.7021(11) 0.4111(7) 1.0086(4)
H21 H 0.7069(11) 0.3358(4) 1.0453(5)
Mn1 Mn 0.628962(17) 0.306734(18) 0.912974(16)
N1 N 0.50263(10) 0.35652(11) 0.90025(10)
N2 N 0.36926(10) 0.38318(11) 0.86172(10)
N3 N -0.03120(12) 0.35589(13) 0.93570(12)
N4 N -0.09119(12) 0.30159(11) 1.02114(11)
O1 O 0.82325(9) -0.09157(9) 0.64207(7)
O2 O 0.76659(12) -0.00636(10) 0.54985(8)
O3 O 0.72666(8) 0.22604(8) 0.87772(7)
O4 O 0.60046(8) 0.22501(10) 0.80806(8)
O5 O 0.67787(9) 0.36858(9) 1.01709(8)
C1A C 1.29599(12) 0.13995(12) 0.72975(10)
C2A C 1.21159(11) 0.12569(11) 0.72401(10)
H1A H 1.1740 0.1526 0.6868
C3A C 1.18054(11) 0.07260(11) 0.77183(10)
C4A C 1.23867(12) 0.03345(11) 0.82823(10)
C5A C 1.32319(12) 0.04778(14) 0.83367(12)
H2A H 1.3612 0.0217 0.8712
C6A C 1.35272(12) 0.09985(14) 0.78483(12)
H3A H 1.4099 0.1078 0.7889
C7A C 1.21376(12) -0.02644(12) 0.88340(11)
C8A C 1.04721(12) 0.06120(12) 0.82109(10)
H4A H 1.0783 0.0594 0.8693
C9A C 1.03871(12) 0.06186(12) 0.69062(11)
H5A H 1.0644 0.0615 0.6500
C10A C 1.08848(11) 0.06312(11) 0.76179(10)
C25A C 1.32540(12) 0.19987(12) 0.67830(11)
O1A O 1.17675(9) -0.09157(9) 0.85793(7)
O2A O 1.23341(12) -0.00636(10) 0.95015(8)
O3A O 1.27334(8) 0.22604(8) 0.62228(7)
O4A O 1.39954(8) 0.22501(10) 0.69194(8)
C11A C 2.02915(19) 0.35483(18) 0.44712(17)
H6A H 2.0150 0.3668 0.3968
C12A C 1.9914(2) 0.38754(19) 0.49897(18)
H7A H 1.9467 0.4246 0.4913
C13A C 2.09005(14) 0.30475(15) 0.54919(14)
H8A H 2.1264 0.2746 0.5851
C14A C 2.00337(16) 0.3637(2) 0.63471(15)
H9A H 2.0425 0.3352 0.6733
H10A H 2.0026 0.4221 0.6482
C15A C 1.91709(14) 0.32705(16) 0.62913(13)
C16A C 1.89542(16) 0.25217(16) 0.59327(14)
H11A H 1.9349 0.2232 0.5733
C17A C 1.56216(13) 0.34863(14) 0.65449(12)
H12A H 1.5606 0.3222 0.6991
C18A C 1.60865(14) 0.41549(14) 0.56859(12)
H13A H 1.6432 0.4436 0.5424
C19A C 1.52709(13) 0.39849(13) 0.54540(12)
H14A H 1.4954 0.4130 0.4994
C20A C 1.71409(13) 0.38536(17) 0.68550(13)
H15A H 1.7115 0.3621 0.7335
H16A H 1.7322 0.4429 0.6928
C21A C 1.77745(13) 0.33721(14) 0.65282(12)
C22A C 1.75742(15) 0.26203(14) 0.61672(12)
H17A H 1.7041 0.2398 0.6127
C23A C 1.81630(16) 0.22006(15) 0.58669(14)
H18A H 1.8024 0.1699 0.5619
C24A C 1.85714(13) 0.36897(15) 0.65841(12)
H19A H 1.8708 0.4196 0.6824
H20A H 1.2979(11) 0.4111(7) 0.4914(4)
H21A H 1.2931(11) 0.3358(4) 0.4547(5)
Mn1A Mn 1.371038(17) 0.306734(18) 0.587026(16)
N1A N 1.49737(10) 0.35652(11) 0.59975(10)
N2A N 1.63074(10) 0.38318(11) 0.63828(10)
N3A N 2.03120(12) 0.35589(13) 0.56430(12)
N4A N 2.09119(12) 0.30159(11) 0.47886(11)
O5A O 1.32213(9) 0.36858(9) 0.48291(8)
Mn1B Mn 1.128962(17) -0.193266(18) 0.912974(16)
Mn1C Mn 0.871038(17) -0.193266(18) 0.587026(16)
Mn1F Mn -0.128962(17) 0.193266(18) 1.087026(16)
Mn1G Mn 2.128962(17) 0.193266(18) 0.412974(16)
N4F N 0.59119(12) 0.19841(11) 0.97886(11)
N4G N 1.40881(12) 0.19841(11) 0.52114(11)
O1B O 1.32325(9) 0.40843(9) 0.64207(7)
O1C O 0.67675(9) 0.40843(9) 0.85793(7)
loop_
_geom_bond_atom_site_label_1
_geom_bond_atom_site_label_2
_geom_bond_site_symmetry_1
_geom_bond_site_symmetry_2
C1 C2 1_555 1_555
C2 H1 1_555 1_555
C3 C2 1_555 1_555
C4 C3 1_555 1_555
C5 C4 1_555 1_555
H2 C5 1_555 1_555
C6 C1 1_555 1_555
H3 C6 1_555 1_555
C7 C4 1_555 1_555
C8 H4 1_555 1_555
C9 H5 1_555 1_555
C10 C3 1_555 1_555
C11 H6 1_555 1_555
C12 C11 1_555 1_555
H7 C12 1_555 1_555
C13 H8 1_555 1_555
C14 H9 1_555 1_555
H10 C14 1_555 1_555
C15 C14 1_555 1_555
C16 C15 1_555 1_555
H11 C16 1_555 1_555
C17 H12 1_555 1_555
C18 H13 1_555 1_555
C19 C18 1_555 1_555
H14 C19 1_555 1_555
C20 H15 1_555 1_555
H16 C20 1_555 1_555
C21 C20 1_555 1_555
C22 C21 1_555 1_555
H17 C22 1_555 1_555
C23 C16 1_555 1_555
H18 C23 1_555 1_555
C24 C15 1_555 1_555
H19 C24 1_555 1_555
C25 C1 1_555 1_555
H20 O5 1_555 1_555
H21 O5 1_555 1_555
Mn1 N1 1_555 1_555
N1 C17 1_555 1_555
N2 C17 1_555 1_555
N3 C12 1_555 1_555
N4 C11 1_555 1_555
O1 C7 1_555 1_555
O2 C7 1_555 1_555
O3 C25 1_555 1_555
O4 C25 1_555 1_555
O5 Mn1 1_555 1_555
C1A C2A 1_555 1_555
C2A H1A 1_555 1_555
C3A C2A 1_555 1_555
C4A C3A 1_555 1_555
C5A C4A 1_555 1_555
H2A C5A 1_555 1_555
C6A C1A 1_555 1_555
H3A C6A 1_555 1_555
C7A C4A 1_555 1_555
C8A C9 1_555 1_555
H4A C8A 1_555 1_555
C9A C8 1_555 1_555
H5A C9A 1_555 1_555
C10A C3A 1_555 1_555
C25A C1A 1_555 1_555
O1A C7A 1_555 1_555
O2A C7A 1_555 1_555
O3A C25A 1_555 1_555
O4A C25A 1_555 1_555
C11A H6A 1_555 1_555
C12A C11A 1_555 1_555
H7A C12A 1_555 1_555
C13A H8A 1_555 1_555
C14A H9A 1_555 1_555
H10A C14A 1_555 1_555
C15A C14A 1_555 1_555
C16A C15A 1_555 1_555
H11A C16A 1_555 1_555
C17A H12A 1_555 1_555
C18A H13A 1_555 1_555
C19A C18A 1_555 1_555
H14A C19A 1_555 1_555
C20A H15A 1_555 1_555
H16A C20A 1_555 1_555
C21A C20A 1_555 1_555
C22A C21A 1_555 1_555
H17A C22A 1_555 1_555
C23A C16A 1_555 1_555
H18A C23A 1_555 1_555
C24A C15A 1_555 1_555
H19A C24A 1_555 1_555
H20A O5A 1_555 1_555
H21A O5A 1_555 1_555
Mn1A O3A 1_555 1_555
N1A C17A 1_555 1_555
N2A C17A 1_555 1_555
N3A C12A 1_555 1_555
N4A C11A 1_555 1_555
O5A Mn1A 1_555 1_555
Mn1B O1A 1_555 1_555
Mn1C O1 1_555 1_555
Mn1F N4 1_555 1_555
Mn1G N4A 1_555 1_555
N4F Mn1 1_555 1_555
N4G Mn1A 1_555 1_555
O1B Mn1A 1_555 1_555
O1C Mn1 1_555 1_555
C5 C6 1_555 1_555
C8 C10 1_555 1_555
C9 C10 1_555 1_555
C13 N3 1_555 1_555
C13 N4 1_555 1_555
C14 N3 1_555 1_555
C18 N2 1_555 1_555
C19 N1 1_555 1_555
C20 N2 1_555 1_555
C21 C24 1_555 1_555
C22 C23 1_555 1_555
Mn1 O3 1_555 1_555
Mn1 O4 1_555 1_555
C5A C6A 1_555 1_555
C8A C10A 1_555 1_555
C9A C10A 1_555 1_555
O4A Mn1A 1_555 1_555
C13A N3A 1_555 1_555
C13A N4A 1_555 1_555
C14A N3A 1_555 1_555
C18A N2A 1_555 1_555
C19A N1A 1_555 1_555
C20A N2A 1_555 1_555
C21A C24A 1_555 1_555
C22A C23A 1_555 1_555
Mn1A N1A 1_555 1_555

#END
