
#######################################################################
#
#                 Cambridge Crystallographic Data Centre
#                                CCDC 
#
#######################################################################
#
# If this CIF has been generated from an entry in the Cambridge 
# Structural Database, then it will include bibliographic, chemical, 
# crystal, experimental, refinement or atomic coordinate data resulting 
# from the CCDC's data processing and validation procedures.
#
#######################################################################

data_MODWUZ
_symmetry_cell_setting           monoclinic
_symmetry_space_group_name_H-M   'C 2/c'
_symmetry_Int_Tables_number      15
_space_group_name_Hall           '-C 2yn'
loop_
_symmetry_equiv_pos_site_id
_symmetry_equiv_pos_as_xyz
1 x,y,z
2 -x,y,1/2-z
3 1/2+x,1/2+y,z
4 1/2-x,1/2+y,1/2-z
5 -x,-y,-z
6 x,-y,1/2+z
7 1/2-x,1/2-y,-z
8 1/2+x,1/2-y,1/2+z
_cell_length_a                   16.388(7)
_cell_length_b                   16.225(7)
_cell_length_c                   19.438(8)
_cell_angle_alpha                90
_cell_angle_beta                 95.373(7)
_cell_angle_gamma                90
_cell_volume                     5145.76
loop_
_atom_site_label
_atom_site_type_symbol
_atom_site_fract_x
_atom_site_fract_y
_atom_site_fract_z
C1 C 0.26483(16) 0.44261(17) 0.43477(13)
C2 C 0.26720(16) 0.47359(17) 0.50804(13)
C3 C 0.19261(18) 0.4750(2) 0.53554(15)
H1 H 0.1456 0.4595 0.5080
C4 C 0.18597(18) 0.4987(2) 0.60322(15)
H2 H 0.1354 0.4977 0.6213
C5 C 0.25501(17) 0.52395(18) 0.64355(14)
C6 C 0.33002(17) 0.52352(18) 0.61674(13)
H3 H 0.3763 0.5407 0.6444
C7 C 0.33847(15) 0.49781(16) 0.54875(13)
C8 C 0.42071(16) 0.49840(16) 0.52289(13)
C9 C 0.48995(17) 0.48016(18) 0.56734(14)
H4 H 0.4838 0.4666 0.6130
C10 C 0.56738(17) 0.48177(18) 0.54514(14)
H5 H 0.6124 0.4694 0.5761
C11 C 0.24845(17) 0.55568(18) 0.71558(14)
C12 C 0.04448(19) 0.38605(19) 0.33385(17)
H6 H 0.0419 0.4300 0.3030
C13 C -0.0196(2) 0.3526(2) 0.3602(2)
H7 H -0.0742 0.3676 0.3508
C14 C 0.09318(19) 0.28926(19) 0.40140(15)
C15 C 0.1488(3) 0.2301(3) 0.4390(2)
H8 H 0.1373 0.1756 0.4216
H9 H 0.1409 0.2319 0.4873
H10 H 0.2045 0.2443 0.4328
C16 C -0.0384(3) 0.2407(2) 0.4451(2)
H11 H -0.0096 0.1892 0.4554
H12 H -0.0892 0.2276 0.4177
C17 C -0.0588(2) 0.2788(2) 0.51220(18)
C18 C -0.1060(3) 0.2348(2) 0.5538(2)
H13 H -0.1236 0.1823 0.5403
C19 C -0.0331(2) 0.3554(2) 0.5353(2)
H14 H -0.0002 0.3867 0.5088
C20 C -0.3096(2) 0.2850(2) 0.74781(18)
H15 H -0.3660 0.2772 0.7447
C21 C -0.2714(2) 0.3458(2) 0.71704(18)
H16 H -0.2959 0.3868 0.6887
C22 C -0.18049(19) 0.26779(19) 0.77675(15)
C23 C -0.1010(2) 0.2361(3) 0.8078(2)
H17 H -0.1100 0.1889 0.8358
H18 H -0.0677 0.2207 0.7718
H19 H -0.0736 0.2782 0.8360
C24 C -0.1246(2) 0.38055(19) 0.70561(18)
H20 H -0.1419 0.4371 0.6974
H21 H -0.0762 0.3813 0.7384
C25 C -0.1023(2) 0.34298(19) 0.63777(17)
C26 C -0.1282(3) 0.2667(2) 0.6156(2)
H22 H -0.1612 0.2358 0.6422
C27 C -0.0551(2) 0.3867(2) 0.5967(2)
H23 H -0.0372 0.4390 0.6106
N1 N -0.25249(15) 0.23549(15) 0.78502(12)
N2 N -0.18934(16) 0.33563(15) 0.73543(13)
N3 N 0.11570(14) 0.34613(15) 0.35886(11)
N4 N 0.01089(16) 0.29109(17) 0.40403(14)
Ni1 Ni 0.22598(2) 0.37663(2) 0.325280(16)
O1 O 0.22804(12) 0.48457(12) 0.38779(9)
O2 O 0.29227(13) 0.37221(12) 0.42328(10)
O3 O 0.31088(12) 0.56840(13) 0.75575(10)
O4 O 0.17794(12) 0.57152(13) 0.73311(9)
C1D C 0.73517(16) 0.55739(17) 0.56523(13)
C2D C 0.73280(16) 0.52641(17) 0.49196(13)
C3D C 0.80739(18) 0.5250(2) 0.46446(15)
H1D H 0.8544 0.5405 0.4920
C4D C 0.81403(18) 0.5013(2) 0.39678(15)
H2D H 0.8646 0.5023 0.3787
C5D C 0.74499(17) 0.47605(18) 0.35645(14)
C6D C 0.66998(17) 0.47648(18) 0.38326(13)
H3D H 0.6237 0.4593 0.3556
C7D C 0.66153(15) 0.50219(16) 0.45125(13)
C8D C 0.57929(16) 0.50160(16) 0.47711(13)
C9D C 0.51005(17) 0.51984(18) 0.43266(14)
H4D H 0.5162 0.5334 0.3870
C10D C 0.43262(17) 0.51823(18) 0.45486(14)
H5D H 0.3876 0.5306 0.4239
C11D C 0.75155(17) 0.44432(18) 0.28442(14)
O1D O 0.77196(12) 0.51543(12) 0.61221(9)
O2D O 0.70773(13) 0.62779(12) 0.57672(10)
O3D O 0.68912(12) 0.43160(13) 0.24425(10)
O4D O 0.82206(12) 0.42848(13) 0.26689(9)
C12A C 0.95552(19) 0.38605(19) 0.16615(17)
H6A H 0.9581 0.4300 0.1970
C13A C 1.0196(2) 0.3526(2) 0.1398(2)
H7A H 1.0742 0.3676 0.1492
C14A C 0.90682(19) 0.28926(19) 0.09860(15)
C15A C 0.8512(3) 0.2301(3) 0.0610(2)
H8A H 0.8627 0.1756 0.0784
H9A H 0.8591 0.2319 0.0127
H10A H 0.7955 0.2443 0.0672
C16A C 1.0384(3) 0.2407(2) 0.0549(2)
H11A H 1.0096 0.1892 0.0446
H12A H 1.0892 0.2276 0.0823
C17A C 1.0588(2) 0.2788(2) -0.01220(18)
C18A C 1.1060(3) 0.2348(2) -0.0538(2)
H13A H 1.1236 0.1823 -0.0403
C19A C 1.0331(2) 0.3554(2) -0.0353(2)
H14A H 1.0002 0.3867 -0.0088
C20A C 1.3096(2) 0.2850(2) -0.24781(18)
H15A H 1.3660 0.2772 -0.2447
C21A C 1.2714(2) 0.3458(2) -0.21704(18)
H16A H 1.2959 0.3868 -0.1887
C22A C 1.18049(19) 0.26779(19) -0.27675(15)
C23A C 1.1010(2) 0.2361(3) -0.3078(2)
H17A H 1.1100 0.1889 -0.3358
H18A H 1.0677 0.2207 -0.2718
H19A H 1.0736 0.2782 -0.3360
C24A C 1.1246(2) 0.38055(19) -0.20561(18)
H20A H 1.1419 0.4371 -0.1974
H21A H 1.0762 0.3813 -0.2384
C25A C 1.1023(2) 0.34298(19) -0.13777(17)
C26A C 1.1282(3) 0.2667(2) -0.1156(2)
H22A H 1.1612 0.2358 -0.1422
C27A C 1.0551(2) 0.3867(2) -0.0967(2)
H23A H 1.0372 0.4390 -0.1106
N1A N 1.25249(15) 0.23549(15) -0.28502(12)
N2A N 1.18934(16) 0.33563(15) -0.23543(13)
N3A N 0.88430(14) 0.34613(15) 0.14114(11)
N4A N 0.98911(16) 0.29109(17) 0.09597(14)
Ni1A Ni 0.77402(2) 0.37663(2) 0.174720(16)
N1F N 0.75249(15) 0.26451(15) 0.21498(12)
N1G N 0.24751(15) 0.26451(15) 0.28502(12)
Ni1D Ni 0.77402(2) 0.62337(2) 0.674720(16)
Ni1E Ni 0.22598(2) 0.62337(2) 0.825280(16)
Ni1F Ni 1.27402(2) 0.12337(2) -0.325280(16)
Ni1G Ni -0.27402(2) 0.12337(2) 0.825280(16)
O1A O 0.77196(12) 0.48457(12) 0.11221(9)
O2A O 0.70773(13) 0.37221(12) 0.07672(10)
O3E O 0.31088(12) 0.43160(13) 0.25575(10)
O4E O 0.17794(12) 0.42848(13) 0.23311(9)
O5 O 0.5000 0.5099(9) 0.7500
H24 H 0.4628 0.5401 0.7645
H24A H 0.5372 0.5401 0.7355
loop_
_geom_bond_atom_site_label_1
_geom_bond_atom_site_label_2
_geom_bond_site_symmetry_1
_geom_bond_site_symmetry_2
C1 C2 1_555 1_555
C2 C3 1_555 1_555
C3 H1 1_555 1_555
C4 C3 1_555 1_555
H2 C4 1_555 1_555
C5 C4 1_555 1_555
C6 C5 1_555 1_555
H3 C6 1_555 1_555
C7 C2 1_555 1_555
C8 C7 1_555 1_555
C9 C8 1_555 1_555
H4 C9 1_555 1_555
C10 C9 1_555 1_555
H5 C10 1_555 1_555
C11 C5 1_555 1_555
C12 H6 1_555 1_555
C13 C12 1_555 1_555
H7 C13 1_555 1_555
C14 C15 1_555 1_555
C15 H8 1_555 1_555
H9 C15 1_555 1_555
H10 C15 1_555 1_555
C16 H11 1_555 1_555
H12 C16 1_555 1_555
C17 C16 1_555 1_555
C18 C17 1_555 1_555
H13 C18 1_555 1_555
C19 C17 1_555 1_555
H14 C19 1_555 1_555
C20 H15 1_555 1_555
C21 C20 1_555 1_555
H16 C21 1_555 1_555
C22 C23 1_555 1_555
C23 H17 1_555 1_555
H18 C23 1_555 1_555
H19 C23 1_555 1_555
C24 H20 1_555 1_555
H21 C24 1_555 1_555
C25 C24 1_555 1_555
C26 C18 1_555 1_555
H22 C26 1_555 1_555
C27 C19 1_555 1_555
H23 C27 1_555 1_555
N1 C20 1_555 1_555
N2 C21 1_555 1_555
N3 C12 1_555 1_555
N4 C13 1_555 1_555
Ni1 N3 1_555 1_555
O1 C1 1_555 1_555
O2 C1 1_555 1_555
O3 C11 1_555 1_555
O4 C11 1_555 1_555
O5 H24 1_555 1_555
C1D C2D 1_555 1_555
C2D C3D 1_555 1_555
C3D H1D 1_555 1_555
C4D C3D 1_555 1_555
H2D C4D 1_555 1_555
C5D C4D 1_555 1_555
C6D C5D 1_555 1_555
H3D C6D 1_555 1_555
C7D C2D 1_555 1_555
C8D C10 1_555 1_555
C9D C8D 1_555 1_555
H4D C9D 1_555 1_555
C10D C8 1_555 1_555
H5D C10D 1_555 1_555
C11D C5D 1_555 1_555
O1D C1D 1_555 1_555
O2D C1D 1_555 1_555
O3D C11D 1_555 1_555
O4D C11D 1_555 1_555
C12A H6A 1_555 1_555
C13A C12A 1_555 1_555
H7A C13A 1_555 1_555
C14A C15A 1_555 1_555
C15A H8A 1_555 1_555
H9A C15A 1_555 1_555
H10A C15A 1_555 1_555
C16A H11A 1_555 1_555
H12A C16A 1_555 1_555
C17A C16A 1_555 1_555
C18A C17A 1_555 1_555
H13A C18A 1_555 1_555
C19A C17A 1_555 1_555
H14A C19A 1_555 1_555
C20A H15A 1_555 1_555
C21A C20A 1_555 1_555
H16A C21A 1_555 1_555
C22A C23A 1_555 1_555
C23A H17A 1_555 1_555
H18A C23A 1_555 1_555
H19A C23A 1_555 1_555
C24A H20A 1_555 1_555
H21A C24A 1_555 1_555
C25A C24A 1_555 1_555
C26A C18A 1_555 1_555
H22A C26A 1_555 1_555
C27A C19A 1_555 1_555
H23A C27A 1_555 1_555
N1A C20A 1_555 1_555
N2A C21A 1_555 1_555
N3A C12A 1_555 1_555
N4A C13A 1_555 1_555
Ni1A O3D 1_555 1_555
N1F Ni1A 1_555 1_555
N1G Ni1 1_555 1_555
Ni1D O1D 1_555 1_555
Ni1E O3 1_555 1_555
Ni1F N1A 1_555 1_555
Ni1G N1 1_555 1_555
O1A Ni1A 1_555 1_555
O2A Ni1A 1_555 1_555
O3E Ni1 1_555 1_555
O4E Ni1 1_555 1_555
H24A O5 1_555 1_555
C6 C7 1_555 1_555
C14 N3 1_555 1_555
C14 N4 1_555 1_555
C16 N4 1_555 1_555
C22 N1 1_555 1_555
C22 N2 1_555 1_555
C24 N2 1_555 1_555
C25 C26 1_555 1_555
C25 C27 1_555 1_555
Ni1 O1 1_555 1_555
Ni1 O2 1_555 1_555
O4 Ni1E 1_555 1_555
C6D C7D 1_555 1_555
C7D C8D 1_555 1_555
C9D C10D 1_555 1_555
O2D Ni1D 1_555 1_555
O4D Ni1A 1_555 1_555
C14A N3A 1_555 1_555
C14A N4A 1_555 1_555
C16A N4A 1_555 1_555
C22A N1A 1_555 1_555
C22A N2A 1_555 1_555
C24A N2A 1_555 1_555
C25A C26A 1_555 1_555
C25A C27A 1_555 1_555
N3A Ni1A 1_555 1_555

#END
