
#######################################################################
#
#                 Cambridge Crystallographic Data Centre
#                                CCDC 
#
#######################################################################
#
# If this CIF has been generated from an entry in the Cambridge 
# Structural Database, then it will include bibliographic, chemical, 
# crystal, experimental, refinement or atomic coordinate data resulting 
# from the CCDC's data processing and validation procedures.
#
#######################################################################

data_MOFBEQ
_symmetry_cell_setting           triclinic
_symmetry_space_group_name_H-M   'P -1'
_symmetry_Int_Tables_number      2
_space_group_name_Hall           '-P 1'
loop_
_symmetry_equiv_pos_site_id
_symmetry_equiv_pos_as_xyz
1 x,y,z
2 -x,-y,-z
_cell_length_a                   11.0653(6)
_cell_length_b                   11.7777(9)
_cell_length_c                   15.7955(17)
_cell_angle_alpha                103.183(8)
_cell_angle_beta                 107.916(8)
_cell_angle_gamma                104.886(6)
_cell_volume                     1784.3
loop_
_atom_site_label
_atom_site_type_symbol
_atom_site_fract_x
_atom_site_fract_y
_atom_site_fract_z
Ni1 Ni 0.85642(3) 0.81231(3) 0.74033(3)
O1 O 0.95133(18) 0.74439(18) 0.84301(15)
H1 H 0.9381 0.7719 0.8928
H2 H 0.9179 0.6652 0.8225
O2 O 1.67205(17) 1.70710(16) 0.73600(15)
O3 O 0.87412(18) 0.96107(17) 0.84857(15)
H3 H 0.8163 0.9381 0.8740
H4 H 0.9556 0.9913 0.8927
N1 N 0.8309(2) 0.65677(19) 0.63206(17)
O4 O 1.04548(17) 0.90808(16) 0.74038(15)
N2 N 0.7704(2) -0.1015(2) 0.64784(17)
O5 O 1.13478(17) 1.05975(17) 0.66376(14)
H5 H 1.0811 1.0013 0.6684
O6 O 1.5525(2) 1.47340(17) 0.68584(16)
H6 H 1.6074 1.5395 0.6918
C1 C 1.3599(2) 1.3979(2) 0.72076(19)
C2 C 1.3687(2) 1.1822(2) 0.7307(2)
O7 O 1.18929(19) 0.8642(2) 0.84967(18)
C3 C 1.2623(2) 1.0857(2) 0.7275(2)
C4 C 1.6029(3) 1.7325(3) 0.7853(2)
C5 C 1.4651(2) 1.4969(2) 0.7268(2)
O8 O 1.62733(19) 1.83632(18) 0.83870(18)
C6 C 1.5030(3) 1.1984(2) 0.7907(2)
C7 C 0.6881(3) 0.4860(3) 0.4904(2)
H7 H 0.6047 0.4482 0.4396
C8 C 0.9245(3) 0.6039(3) 0.6408(2)
H8 H 1.0069 0.6437 0.6924
C9 C 0.8141(3) -0.0842(3) 0.5804(2)
H9 H 0.8620 -0.1327 0.5622
C10 C 1.1652(3) 0.9204(2) 0.7935(2)
C11 C 1.4849(2) 1.6232(2) 0.7742(2)
C12 C 1.5244(3) 1.1223(2) 0.8475(2)
C13 C 1.2808(3) 1.5503(3) 0.8019(2)
C14 C 1.2620(2) 1.4247(2) 0.7559(2)
C15 C 0.7194(3) 0.0715(3) 0.5599(2)
C16 C 1.2822(3) 1.0124(2) 0.7869(2)
C17 C 1.3428(3) 1.2643(2) 0.6703(2)
H10 H 1.2509 1.2238 0.6231
H11 H 1.4036 1.2676 0.6371
C18 C 0.7144(3) 0.5978(3) 0.5569(2)
H12 H 0.6478 0.6336 0.5489
C19 C 1.4105(3) 1.0304(2) 0.8444(2)
H13 H 1.4236 0.9813 0.8825
C20 C 1.3942(2) 1.6468(2) 0.8109(2)
H14 H 1.4076 1.7287 0.8426
C21 C 0.7832(4) 0.4303(3) 0.4983(2)
C22 C 0.6941(3) -0.0362(3) 0.6680(2)
H15 H 0.6579 -0.0492 0.7124
C23 C 1.6578(3) 1.1379(3) 0.9064(3)
H16 H 1.6704 1.0879 0.9438
C24 C 0.7927(3) 0.0007(3) 0.5363(2)
H17 H 0.8276 0.0102 0.4907
C25 C 0.9050(4) 0.4924(3) 0.5766(3)
H18 H 0.9735 0.4588 0.5859
C26 C 0.6670(3) 0.0496(3) 0.6257(3)
H19 H 0.6132 0.0928 0.6416
C27 C 0.7850(4) 0.2102(3) 0.4653(3)
H20 H 0.8795 0.2414 0.5083
H21 H 0.7710 0.1377 0.4144
C28 C 0.6962(4) 0.1712(3) 0.5174(3)
H22 H 0.6021 0.1412 0.4740
H23 H 0.7104 0.2445 0.5677
C29 C 0.7561(4) 0.3089(3) 0.4252(3)
H24 H 0.6617 0.2771 0.3820
H25 H 0.8113 0.3253 0.3890
C30 C 1.1431(2) 1.3310(3) 0.7456(2)
H26 H 1.1268 1.2478 0.7151
C31 C 1.6210(3) 1.2886(2) 0.7957(2)
H27 H 1.6115 1.3407 0.7598
C32 C 1.1853(3) 1.5771(3) 0.8382(3)
H28 H 1.2001 1.6591 0.8708
C33 C 1.7462(3) 1.2999(3) 0.8516(3)
H29 H 1.8213 1.3589 0.8524
C34 C 1.0726(3) 1.4845(3) 0.8262(3)
H30 H 1.0092 1.5032 0.8487
C35 C 1.0527(3) 1.3617(3) 0.7798(3)
H31 H 0.9754 1.2986 0.7720
C36 C 1.7668(3) 1.2252(3) 0.9086(3)
H32 H 1.8542 1.2356 0.9473
Ni1_2 Ni 0.85642(3) -0.18769(3) 0.74033(3)
Ni1_3 Ni 1.85642(3) 1.81231(3) 0.74033(3)
O2_2 O 0.67205(17) 0.70710(16) 0.73600(15)
N2_2 N 0.7704(2) 0.8985(2) 0.64784(17)
C37 C 1.7606(4) 1.5882(3) 0.9627(3)
H33 H 1.7605 1.5325 0.9986
H34 H 1.8481 1.6171 0.9597
H35 H 1.6926 1.5452 0.8999
N3 N 1.7315(2) 1.6930(2) 1.00739(18)
C38 C 1.6123(3) 1.6677(3) 1.0307(3)
H36 H 1.5333 1.6167 0.9746
H37 H 1.6020 1.7449 1.0570
H38 H 1.6229 1.6250 1.0760
O9 O 1.9169(2) 1.8348(2) 1.01311(18)
C39 C 1.8126(3) 1.8057(3) 1.0288(2)
H39 H 1.7903 1.8703 1.0586
loop_
_geom_bond_atom_site_label_1
_geom_bond_atom_site_label_2
_geom_bond_site_symmetry_1
_geom_bond_site_symmetry_2
Ni1 O1 1_555 1_555
O1 H1 1_555 1_555
H2 O1 1_555 1_555
O2 C4 1_555 1_555
O3 Ni1 1_555 1_555
H3 O3 1_555 1_555
H4 O3 1_555 1_555
N1 Ni1 1_555 1_555
O4 Ni1 1_555 1_555
N2 C9 1_555 1_555
O5 H5 1_555 1_555
O6 H6 1_555 1_555
C1 C5 1_555 1_555
C2 C3 1_555 1_555
O7 C10 1_555 1_555
C3 O5 1_555 1_555
C4 O8 1_555 1_555
C5 O6 1_555 1_555
C6 C2 1_555 1_555
C7 H7 1_555 1_555
C8 N1 1_555 1_555
H8 C8 1_555 1_555
C9 H9 1_555 1_555
C10 O4 1_555 1_555
C11 C4 1_555 1_555
C12 C6 1_555 1_555
C13 C14 1_555 1_555
C14 C1 1_555 1_555
C15 C24 1_555 1_555
C16 C3 1_555 1_555
C17 C1 1_555 1_555
H10 C17 1_555 1_555
H11 C17 1_555 1_555
C18 N1 1_555 1_555
H12 C18 1_555 1_555
C19 C12 1_555 1_555
H13 C19 1_555 1_555
C20 C11 1_555 1_555
H14 C20 1_555 1_555
C21 C7 1_555 1_555
C22 N2 1_555 1_555
H15 C22 1_555 1_555
C23 C12 1_555 1_555
H16 C23 1_555 1_555
C24 C9 1_555 1_555
H17 C24 1_555 1_555
C25 C8 1_555 1_555
H18 C25 1_555 1_555
C26 C15 1_555 1_555
H19 C26 1_555 1_555
C27 H20 1_555 1_555
H21 C27 1_555 1_555
C28 C15 1_555 1_555
H22 C28 1_555 1_555
H23 C28 1_555 1_555
C29 C21 1_555 1_555
H24 C29 1_555 1_555
H25 C29 1_555 1_555
C30 C14 1_555 1_555
H26 C30 1_555 1_555
C31 C6 1_555 1_555
H27 C31 1_555 1_555
C32 C13 1_555 1_555
H28 C32 1_555 1_555
C33 C31 1_555 1_555
H29 C33 1_555 1_555
C34 C32 1_555 1_555
H30 C34 1_555 1_555
C35 C30 1_555 1_555
H31 C35 1_555 1_555
C36 C23 1_555 1_555
H32 C36 1_555 1_555
C37 H33 1_555 1_555
H34 C37 1_555 1_555
H35 C37 1_555 1_555
N3 C37 1_555 1_555
C38 N3 1_555 1_555
H36 C38 1_555 1_555
H37 C38 1_555 1_555
H38 C38 1_555 1_555
O9 C39 1_555 1_555
C39 N3 1_555 1_555
H39 C39 1_555 1_555
Ni1_2 N2 1_555 1_555
Ni1_3 O2 1_555 1_555
O2_2 Ni1 1_555 1_555
N2_2 Ni1 1_555 1_555
C2 C17 1_555 1_555
C5 C11 1_555 1_555
C7 C18 1_555 1_555
C10 C16 1_555 1_555
C13 C20 1_555 1_555
C16 C19 1_555 1_555
C21 C25 1_555 1_555
C22 C26 1_555 1_555
C27 C28 1_555 1_555
C27 C29 1_555 1_555
C33 C36 1_555 1_555
C34 C35 1_555 1_555

#END
