
#######################################################################
#
#                 Cambridge Crystallographic Data Centre
#                                CCDC 
#
#######################################################################
#
# If this CIF has been generated from an entry in the Cambridge 
# Structural Database, then it will include bibliographic, chemical, 
# crystal, experimental, refinement or atomic coordinate data resulting 
# from the CCDC's data processing and validation procedures.
#
#######################################################################

data_MOFFAO
_symmetry_cell_setting           orthorhombic
_symmetry_space_group_name_H-M   'C m m m'
_symmetry_Int_Tables_number      65
_space_group_name_Hall           '-C 2 2'
loop_
_symmetry_equiv_pos_site_id
_symmetry_equiv_pos_as_xyz
1 x,y,z
2 1/2+x,1/2+y,z
3 x,y,-z
4 x,-y,z
5 -x,y,z
6 1/2+x,1/2+y,-z
7 1/2+x,1/2-y,z
8 1/2-x,1/2+y,z
9 -x,-y,-z
10 1/2-x,1/2-y,-z
11 -x,-y,z
12 -x,y,-z
13 x,-y,-z
14 1/2-x,1/2-y,z
15 1/2-x,1/2+y,-z
16 1/2+x,1/2-y,-z
_cell_length_a                   11.444(2)
_cell_length_b                   15.181(3)
_cell_length_c                   3.4580(10)
_cell_angle_alpha                90
_cell_angle_beta                 90
_cell_angle_gamma                90
_cell_volume                     600.763
loop_
_atom_site_label
_atom_site_type_symbol
_atom_site_fract_x
_atom_site_fract_y
_atom_site_fract_z
Fe1 Fe 0.0000 0.5000 0.5000
N1 N 0.1916(10) 0.5000 0.5000
N2 N 0.0000 0.4095(6) 0.0000
N3 N 0.0000 0.3341(7) 0.0000
N4 N 0.035(6) 0.2590(10) 0.0000
C1 C 0.2505(11) 0.4272(6) 0.5000
H1 H 0.2094 0.3743 0.5000
C2 C 0.3714(11) 0.4238(6) 0.5000
H2 H 0.4096 0.3697 0.5000
C3 C 0.4344(12) 0.5000 0.5000
N1D N -0.1916(10) 0.5000 0.5000
N2_2 N 0.0000 0.4095(6) 1.0000
N2C N 0.0000 0.5905(6) 0.0000
N2C_2 N 0.0000 0.5905(6) 1.0000
C1C C 0.2505(11) 0.5728(6) 0.5000
Fe1_2 Fe 0.0000 0.5000 -0.5000
N4D N -0.035(6) 0.2590(10) 0.0000
C3D C 0.5656(12) 0.5000 0.5000
C2C C 0.3714(11) 0.5762(6) 0.5000
loop_
_geom_bond_atom_site_label_1
_geom_bond_atom_site_label_2
_geom_bond_site_symmetry_1
_geom_bond_site_symmetry_2
Fe1 N1 1_555 1_555
N1 C1 1_555 1_555
N2 Fe1 1_555 1_555
N3 N2 1_555 1_555
N4 N3 1_555 1_555
C1 H1 1_555 1_555
C2 C1 1_555 1_555
H2 C2 1_555 1_555
C3 C2 1_555 1_555
N1D Fe1 1_555 1_555
N2_2 Fe1 1_555 1_555
N2C Fe1 1_555 1_555
N2C_2 Fe1 1_555 1_555
C1C N1 1_555 1_555
Fe1_2 N2 1_555 1_555
N4D N3 1_555 1_555
C3D C3 1_555 1_555
C2C C3 1_555 1_555
N4 N4D 1_555 1_555
N2C Fe1_2 1_555 1_555
C1C C2C 1_555 1_555

#END
