
#######################################################################
#
#                 Cambridge Crystallographic Data Centre
#                                CCDC 
#
#######################################################################
#
# If this CIF has been generated from an entry in the Cambridge 
# Structural Database, then it will include bibliographic, chemical, 
# crystal, experimental, refinement or atomic coordinate data resulting 
# from the CCDC's data processing and validation procedures.
#
#######################################################################

data_MOFFAQ
_symmetry_cell_setting           monoclinic
_symmetry_space_group_name_H-M   'P 21/c'
_symmetry_Int_Tables_number      14
_space_group_name_Hall           '-P 2ybc'
loop_
_symmetry_equiv_pos_site_id
_symmetry_equiv_pos_as_xyz
1 x,y,z
2 -x,1/2+y,1/2-z
3 -x,-y,-z
4 x,1/2-y,1/2+z
_cell_length_a                   12.308(3)
_cell_length_b                   7.8806(18)
_cell_length_c                   13.049(3)
_cell_angle_alpha                90
_cell_angle_beta                 90.00
_cell_angle_gamma                90
_cell_volume                     1265.68
loop_
_atom_site_label
_atom_site_type_symbol
_atom_site_fract_x
_atom_site_fract_y
_atom_site_fract_z
C1 C 0.9381(2) 0.9175(3) 0.6075(2)
H1 H 0.9285 1.0336 0.5986
C2 C 1.04229(19) 0.8539(3) 0.6181(2)
H2 H 1.1020 0.9262 0.6171
C3 C 1.05610(17) 0.6808(3) 0.63016(18)
C4 C 0.96699(18) 0.5721(3) 0.6335(2)
H3 H 0.9766 0.4558 0.6417
C5 C 0.86342(17) 0.6407(3) 0.62456(18)
C6 C 0.84787(18) 0.8130(3) 0.6098(2)
H4 H 0.7784 0.8574 0.6016
C7 C 0.78184(17) 0.3672(3) 0.63110(19)
H5 H 0.8259 0.3354 0.6897
H6 H 0.8184 0.3283 0.5696
C8 C 0.67196(15) 0.2845(3) 0.63903(14)
C9 C 1.18240(17) 0.4498(3) 0.64312(19)
H7 H 1.1638 0.4000 0.5775
H8 H 1.1372 0.3973 0.6951
C10 C 1.30113(16) 0.4156(2) 0.66668(16)
C11 C 0.44622(17) 0.2694(3) 0.43572(15)
H9 H 0.4336 0.3805 0.4565
Ce1 Ce 0.476875(8) 0.070749(12) 0.686301(7)
H10 H 0.318(3) -0.104(3) 0.5469(8)
H11 H 0.319(3) -0.2024(19) 0.6328(19)
O1 O 0.77024(13) 0.5448(2) 0.62788(17)
O2 O 0.59287(11) 0.35988(18) 0.68129(11)
O3 O 0.66400(11) 0.13539(19) 0.60620(11)
O4 O 1.16174(12) 0.6266(2) 0.64042(16)
O5 O 1.36529(12) 0.5361(2) 0.68471(13)
O6 O 1.32396(13) 0.2613(2) 0.66709(14)
O7 O 0.45522(14) 0.1595(2) 0.50191(12)
O8 O 0.32454(13) -0.1048(2) 0.61031(12)
O9 O 0.45316(11) 0.23907(18) 0.34108(11)
Ce1_2 Ce 1.476875(8) 0.070749(12) 0.686301(7)
Ce1A Ce 0.523125(8) 0.570749(12) 0.813699(7)
Ce1A_2 Ce 1.523125(8) 0.570749(12) 0.813699(7)
Ce1B Ce 0.523125(8) -0.070749(12) 0.313699(7)
Ce1C Ce 0.476875(8) 0.429251(12) 0.186301(7)
O2A O 0.40713(11) -0.14012(18) 0.81871(11)
O5A O 0.63471(12) 0.0361(2) 0.81529(13)
O6_2 O 0.32396(13) 0.2613(2) 0.66709(14)
O9B O 0.54684(11) -0.23907(18) 0.65892(11)
O9C O 0.45316(11) 0.26093(18) 0.84108(11)
loop_
_geom_bond_atom_site_label_1
_geom_bond_atom_site_label_2
_geom_bond_site_symmetry_1
_geom_bond_site_symmetry_2
C1 H1 1_555 1_555
C2 C1 1_555 1_555
H2 C2 1_555 1_555
C3 C2 1_555 1_555
C4 C3 1_555 1_555
H3 C4 1_555 1_555
C5 C4 1_555 1_555
C6 C1 1_555 1_555
H4 C6 1_555 1_555
C7 H5 1_555 1_555
H6 C7 1_555 1_555
C8 C7 1_555 1_555
C9 H7 1_555 1_555
H8 C9 1_555 1_555
C10 C9 1_555 1_555
C11 H9 1_555 1_555
Ce1 O2 1_555 1_555
H10 O8 1_555 1_555
H11 O8 1_555 1_555
O1 C5 1_555 1_555
O2 C8 1_555 1_555
O3 C8 1_555 1_555
O4 C3 1_555 1_555
O5 C10 1_555 1_555
O6 C10 1_555 1_555
O7 C11 1_555 1_555
O8 Ce1 1_555 1_555
O9 C11 1_555 1_555
Ce1_2 O6 1_555 1_555
Ce1A O2 1_555 1_555
Ce1A_2 O5 1_555 1_555
Ce1B O9 1_555 1_555
Ce1C O9 1_555 1_555
O2A Ce1 1_555 1_555
O5A Ce1 1_555 1_555
O6_2 Ce1 1_555 1_555
O9B Ce1 1_555 1_555
O9C Ce1 1_555 1_555
C5 C6 1_555 1_555
C7 O1 1_555 1_555
C9 O4 1_555 1_555
Ce1 O3 1_555 1_555
Ce1 O7 1_555 1_555
Ce1A O9C 1_555 1_555

#END
