
#######################################################################
#
#                 Cambridge Crystallographic Data Centre
#                                CCDC 
#
#######################################################################
#
# If this CIF has been generated from an entry in the Cambridge 
# Structural Database, then it will include bibliographic, chemical, 
# crystal, experimental, refinement or atomic coordinate data resulting 
# from the CCDC's data processing and validation procedures.
#
#######################################################################

data_MOFGOE
_symmetry_cell_setting           hexagonal
_symmetry_space_group_name_H-M   'P 63/m'
_symmetry_Int_Tables_number      176
_space_group_name_Hall           '-P 6c'
loop_
_symmetry_equiv_pos_site_id
_symmetry_equiv_pos_as_xyz
1 x,y,z
2 -y,x-y,z
3 -x+y,-x,z
4 y,-x+y,1/2+z
5 x-y,x,1/2+z
6 -x,-y,1/2+z
7 -x,-y,-z
8 y,-x+y,-z
9 x-y,x,-z
10 -y,x-y,1/2-z
11 -x+y,-x,1/2-z
12 x,y,1/2-z
_cell_length_a                   9.1081(2)
_cell_length_b                   9.1081(2)
_cell_length_c                   15.9432(5)
_cell_angle_alpha                90
_cell_angle_beta                 90
_cell_angle_gamma                120
_cell_volume                     1145.41
loop_
_atom_site_label
_atom_site_type_symbol
_atom_site_fract_x
_atom_site_fract_y
_atom_site_fract_z
Cu1 Cu 0.5000 0.0000 0.0000
O1 O 0.63603(11) 0.05703(11) 0.10016(5)
O2 O 0.83859(12) 0.26481(11) 0.02614(6)
C1 C 0.78277(15) 0.18668(15) 0.09498(7)
C2 C 0.88392(15) 0.24043(15) 0.17411(7)
C3 C 1.06102(15) 0.33622(15) 0.17399(8)
H1 H 1.1214 0.3693 0.1224
C4 C 1.1485(2) 0.3829(2) 0.2500
H2 H 1.2689 0.4472 0.2500
C5 C 0.7962(2) 0.1915(2) 0.2500
H3 H 0.6760 0.1246 0.2500
Cu1A Cu 1.0000 0.5000 0.0000
Cu1K Cu 0.5000 0.0000 0.5000
Cu1C Cu 1.0000 0.5000 0.5000
O1K O 0.63603(11) 0.05703(11) 0.39984(5)
O1F O 0.36397(11) -0.05703(11) -0.10016(5)
O2K O 0.83859(12) 0.26481(11) 0.47386(6)
O2B O 0.42622(16) 0.16141(12) 0.02614(6)
O2H O 0.57378(16) -0.16141(12) -0.02614(6)
C1K C 0.78277(15) 0.18668(15) 0.40502(7)
C2K C 0.88392(15) 0.24043(15) 0.32589(7)
C3K C 1.06102(15) 0.33622(15) 0.32601(8)
H1K H 1.1214 0.3693 0.3776
loop_
_geom_bond_atom_site_label_1
_geom_bond_atom_site_label_2
_geom_bond_site_symmetry_1
_geom_bond_site_symmetry_2
Cu1 O1 1_555 1_555
O1 C1 1_555 1_555
O2 C1 1_555 1_555
C1 C2 1_555 1_555
C2 C3 1_555 1_555
C3 H1 1_555 1_555
C4 C3 1_555 1_555
H2 C4 1_555 1_555
C5 C2 1_555 1_555
H3 C5 1_555 1_555
Cu1A O2 1_555 1_555
Cu1K O1K 1_555 1_555
Cu1C O2K 1_555 1_555
O1K C1K 1_555 1_555
O1F Cu1 1_555 1_555
O2K C1K 1_555 1_555
O2B Cu1 1_555 1_555
O2H Cu1 1_555 1_555
C1K C2K 1_555 1_555
C2K C5 1_555 1_555
C3K C4 1_555 1_555
H1K C3K 1_555 1_555
C2K C3K 1_555 1_555

#END
