
#######################################################################
#
#                 Cambridge Crystallographic Data Centre
#                                CCDC 
#
#######################################################################
#
# If this CIF has been generated from an entry in the Cambridge 
# Structural Database, then it will include bibliographic, chemical, 
# crystal, experimental, refinement or atomic coordinate data resulting 
# from the CCDC's data processing and validation procedures.
#
#######################################################################

data_MOFPUU
_symmetry_cell_setting           triclinic
_symmetry_space_group_name_H-M   'P -1'
_symmetry_Int_Tables_number      2
_space_group_name_Hall           '-P 1'
loop_
_symmetry_equiv_pos_site_id
_symmetry_equiv_pos_as_xyz
1 x,y,z
2 -x,-y,-z
_cell_length_a                   10.1450(7)
_cell_length_b                   10.8858(7)
_cell_length_c                   13.8515(10)
_cell_angle_alpha                78.7060(10)
_cell_angle_beta                 79.297(2)
_cell_angle_gamma                86.2530(10)
_cell_volume                     1473.32
loop_
_atom_site_label
_atom_site_type_symbol
_atom_site_fract_x
_atom_site_fract_y
_atom_site_fract_z
Mn1 Mn 0.0000 0.5000 0.5000
Tb1 Tb 0.31989(3) 0.92335(3) 0.29664(2)
C1 C 0.5953(6) 0.9009(6) 0.2142(5)
C2 C 0.7378(7) 0.8855(7) 0.1669(5)
C3 C 0.8437(7) 0.8959(6) 0.2143(5)
H1 H 0.8268 0.9135 0.2786
C4 C 0.9725(7) 0.8808(6) 0.1679(5)
C5 C 1.0003(7) 0.8543(6) 0.0720(5)
H2 H 1.0885 0.8470 0.0395
C6 C 0.8939(7) 0.8389(7) 0.0253(5)
C7 C 0.7642(7) 0.8583(6) 0.0705(5)
H3 H 0.6938 0.8534 0.0371
C8 C 1.0921(6) 0.8932(6) 0.2157(5)
C9 C 1.0039(7) 0.7062(7) -0.0890(5)
C10 C 1.0089(7) 0.6661(7) -0.1866(5)
C11 C 1.0149(7) 0.7474(7) -0.2778(5)
H4 H 1.0121 0.8336 -0.2812
C12 C 1.0252(8) 0.6977(8) -0.3639(5)
H5 H 1.0346 0.7524 -0.4252
C13 C 1.0161(8) 0.4968(8) -0.2742(5)
H6 H 1.0154 0.4110 -0.2725
C14 C 1.0109(8) 0.5380(8) -0.1847(6)
H7 H 1.0087 0.4810 -0.1249
C15 C 0.2718(7) 0.6050(6) 0.3531(5)
C16 C 0.2998(7) 0.5281(6) 0.2732(5)
C17 C 0.3231(7) 0.5827(6) 0.1719(5)
H8 H 0.3296 0.6692 0.1533
C18 C 0.3366(7) 0.5108(6) 0.0986(5)
C19 C 0.3354(7) 0.3812(7) 0.1259(5)
H9 H 0.3469 0.3318 0.0771
C20 C 0.3169(6) 0.3252(6) 0.2274(5)
C21 C 0.2988(7) 0.3986(6) 0.2997(5)
H10 H 0.2857 0.3607 0.3669
C22 C 0.3126(7) 0.1891(6) 0.2525(5)
C23 C 0.3337(8) 0.5191(7) -0.0792(5)
C24 C 0.3482(7) 0.6019(7) -0.1811(5)
C25 C 0.3480(8) 0.7310(8) -0.1992(6)
H11 H 0.3444 0.7743 -0.1472
C26 C 0.3535(8) 0.7953(8) -0.2976(6)
H12 H 0.3531 0.8824 -0.3095
C27 C 0.3591(9) 0.6145(9) -0.3573(5)
H13 H 0.3621 0.5740 -0.4109
C28 C 0.3550(9) 0.5433(8) -0.2633(6)
H14 H 0.3566 0.4564 -0.2543
N1 N 0.9180(6) 0.8022(6) -0.0698(4)
H15 H 0.8769 0.8420 -0.1161
N2 N 1.0223(6) 0.5743(6) -0.3626(4)
N3 N 0.3542(5) 0.5707(5) -0.0030(4)
H16 H 0.3803 0.6468 -0.0171
N4 N 0.3591(8) 0.7387(6) -0.3747(5)
O1 O 0.5621(5) 0.9011(6) 0.3079(4)
O2 O 0.5056(5) 0.9143(7) 0.1621(4)
O3 O 1.0725(5) 0.9053(6) 0.3078(4)
O4 O 1.2053(5) 0.8888(5) 0.1663(4)
O5 O 1.0763(6) 0.6526(6) -0.0313(4)
O6 O 0.3215(6) 0.7122(5) 0.3334(4)
O7 O 0.1993(5) 0.5627(5) 0.4334(4)
O8 O 0.3258(5) 0.1306(5) 0.3390(4)
O9 O 0.2956(6) 0.1264(4) 0.1890(4)
O10 O 0.3055(8) 0.4119(6) -0.0713(4)
O11 O 0.0708(6) 0.3101(5) 0.5693(4)
H17 H 0.0120 0.2545 0.5862
H18 H 0.1476 0.2869 0.5417
O12 O 0.2807(7) 0.9023(5) 0.4739(4)
H19 H 0.3410 0.8551 0.4983
H20 H 0.2812 0.9749 0.4873
Tb1A Tb -0.31989(3) 0.07665(3) 0.70336(2)
C1A C -0.5953(6) 0.0991(6) 0.7858(5)
C2A C -0.7378(7) 0.1145(7) 0.8331(5)
C3A C -0.8437(7) 0.1041(6) 0.7857(5)
H1A H -0.8268 0.0865 0.7214
C4A C -0.9725(7) 0.1192(6) 0.8321(5)
C5A C -1.0003(7) 0.1457(6) 0.9280(5)
H2A H -1.0885 0.1530 0.9605
C6A C -0.8939(7) 0.1611(7) 0.9747(5)
C7A C -0.7642(7) 0.1417(6) 0.9295(5)
H3A H -0.6938 0.1466 0.9629
C8A C -1.0921(6) 0.1068(6) 0.7843(5)
C9A C -1.0039(7) 0.2938(7) 1.0890(5)
C10A C -1.0089(7) 0.3339(7) 1.1866(5)
C11A C -1.0149(7) 0.2526(7) 1.2778(5)
H4A H -1.0121 0.1664 1.2812
C12A C -1.0252(8) 0.3023(8) 1.3639(5)
H5A H -1.0346 0.2476 1.4252
C13A C -1.0161(8) 0.5032(8) 1.2742(5)
H6A H -1.0154 0.5890 1.2725
C14A C -1.0109(8) 0.4620(8) 1.1847(6)
H7A H -1.0087 0.5190 1.1249
C15A C -0.2718(7) 0.3950(6) 0.6469(5)
C16A C -0.2998(7) 0.4719(6) 0.7268(5)
C17A C -0.3231(7) 0.4173(6) 0.8281(5)
H8A H -0.3296 0.3308 0.8467
C18A C -0.3366(7) 0.4892(6) 0.9014(5)
C19A C -0.3354(7) 0.6188(7) 0.8741(5)
H9A H -0.3469 0.6682 0.9229
C20A C -0.3169(6) 0.6748(6) 0.7726(5)
C21A C -0.2988(7) 0.6014(6) 0.7003(5)
H10A H -0.2857 0.6393 0.6331
C22A C -0.3126(7) 0.8109(6) 0.7475(5)
C23A C -0.3337(8) 0.4809(7) 1.0792(5)
C24A C -0.3482(7) 0.3981(7) 1.1811(5)
C25A C -0.3480(8) 0.2690(8) 1.1992(6)
H11A H -0.3444 0.2257 1.1472
C26A C -0.3535(8) 0.2047(8) 1.2976(6)
H12A H -0.3531 0.1176 1.3095
C27A C -0.3591(9) 0.3855(9) 1.3573(5)
H13A H -0.3621 0.4260 1.4109
C28A C -0.3550(9) 0.4567(8) 1.2633(6)
H14A H -0.3566 0.5436 1.2543
N1A N -0.9180(6) 0.1978(6) 1.0698(4)
H15A H -0.8769 0.1580 1.1161
N2A N -1.0223(6) 0.4257(6) 1.3626(4)
N3A N -0.3542(5) 0.4293(5) 1.0030(4)
H16A H -0.3803 0.3532 1.0171
N4A N -0.3591(8) 0.2613(6) 1.3747(5)
O1A O -0.5621(5) 0.0989(6) 0.6921(4)
O2A O -0.5056(5) 0.0857(7) 0.8379(4)
O3A O -1.0725(5) 0.0947(6) 0.6922(4)
O4A O -1.2053(5) 0.1112(5) 0.8337(4)
O5A O -1.0763(6) 0.3474(6) 1.0313(4)
O6A O -0.3215(6) 0.2878(5) 0.6666(4)
O7A O -0.1993(5) 0.4373(5) 0.5666(4)
O8A O -0.3258(5) 0.8694(5) 0.6610(4)
O9A O -0.2956(6) 0.8736(4) 0.8110(4)
O10A O -0.3055(8) 0.5881(6) 1.0713(4)
O11A O -0.0708(6) 0.6899(5) 0.4307(4)
H17A H -0.0120 0.7455 0.4138
H18A H -0.1476 0.7131 0.4583
O12A O -0.2807(7) 0.0977(5) 0.5261(4)
H19A H -0.3410 0.1449 0.5017
H20A H -0.2812 0.0251 0.5127
Mn1_2 Mn -1.0000 0.5000 1.5000
Mn1_3 Mn 1.0000 0.5000 -0.5000
Tb1_2 Tb 0.31989(3) -0.07665(3) 0.29664(2)
Tb1_3 Tb 1.31989(3) 0.92335(3) 0.29664(2)
Tb1A_2 Tb -1.31989(3) 0.07665(3) 0.70336(2)
Tb1A_3 Tb -0.31989(3) 1.07665(3) 0.70336(2)
N2_2 N 0.0223(6) 0.5743(6) 0.6374(4)
N2A_2 N -0.0223(6) 0.4257(6) 0.3626(4)
O3_2 O 0.0725(5) 0.9053(6) 0.3078(4)
O3A_2 O -0.0725(5) 0.0947(6) 0.6922(4)
O4_2 O 0.2053(5) 0.8888(5) 0.1663(4)
O4A_2 O -0.2053(5) 0.1112(5) 0.8337(4)
O8_2 O 0.3258(5) 1.1306(5) 0.3390(4)
O8A_2 O -0.3258(5) -0.1306(5) 0.6610(4)
O9_2 O 0.2956(6) 1.1264(4) 0.1890(4)
O9A_2 O -0.2956(6) -0.1264(4) 0.8110(4)
O13 O 0.2979(8) 0.1564(8) 0.5349(5)
H21 H 0.3562 0.1311 0.5716
H22 H 0.3264 0.1395 0.4772
O14 O 0.4137(10) 0.8411(6) 0.9852(5)
H23 H 0.4335 0.9064 0.9414
H24 H 0.4379 0.8494 1.0390
loop_
_geom_bond_atom_site_label_1
_geom_bond_atom_site_label_2
_geom_bond_site_symmetry_1
_geom_bond_site_symmetry_2
Mn1 O7 1_555 1_555
Tb1 O1 1_555 1_555
C1 C2 1_555 1_555
C2 C3 1_555 1_555
C3 H1 1_555 1_555
C4 C3 1_555 1_555
C5 C4 1_555 1_555
H2 C5 1_555 1_555
C6 C5 1_555 1_555
C7 C2 1_555 1_555
H3 C7 1_555 1_555
C8 C4 1_555 1_555
C9 C10 1_555 1_555
C10 C11 1_555 1_555
C11 H4 1_555 1_555
C12 C11 1_555 1_555
H5 C12 1_555 1_555
C13 H6 1_555 1_555
C14 C10 1_555 1_555
H7 C14 1_555 1_555
C15 C16 1_555 1_555
C16 C17 1_555 1_555
C17 H8 1_555 1_555
C18 C17 1_555 1_555
C19 C18 1_555 1_555
H9 C19 1_555 1_555
C20 C19 1_555 1_555
C21 C16 1_555 1_555
H10 C21 1_555 1_555
C22 C20 1_555 1_555
C23 C24 1_555 1_555
C24 C25 1_555 1_555
C25 H11 1_555 1_555
C26 C25 1_555 1_555
H12 C26 1_555 1_555
C27 H13 1_555 1_555
C28 C24 1_555 1_555
H14 C28 1_555 1_555
N1 C6 1_555 1_555
H15 N1 1_555 1_555
N2 C12 1_555 1_555
N3 C18 1_555 1_555
H16 N3 1_555 1_555
N4 C26 1_555 1_555
O1 C1 1_555 1_555
O2 Tb1 1_555 1_555
O3 C8 1_555 1_555
O4 C8 1_555 1_555
O5 C9 1_555 1_555
O6 Tb1 1_555 1_555
O7 C15 1_555 1_555
O8 C22 1_555 1_555
O9 C22 1_555 1_555
O10 C23 1_555 1_555
O11 Mn1 1_555 1_555
H17 O11 1_555 1_555
H18 O11 1_555 1_555
O12 Tb1 1_555 1_555
H19 O12 1_555 1_555
H20 O12 1_555 1_555
O13 H21 1_555 1_555
H22 O13 1_555 1_555
O14 H23 1_555 1_555
H24 O14 1_555 1_555
Tb1A O1A 1_555 1_555
C1A C2A 1_555 1_555
C2A C3A 1_555 1_555
C3A H1A 1_555 1_555
C4A C3A 1_555 1_555
C5A C4A 1_555 1_555
H2A C5A 1_555 1_555
C6A C5A 1_555 1_555
C7A C2A 1_555 1_555
H3A C7A 1_555 1_555
C8A C4A 1_555 1_555
C9A C10A 1_555 1_555
C10A C11A 1_555 1_555
C11A H4A 1_555 1_555
C12A C11A 1_555 1_555
H5A C12A 1_555 1_555
C13A H6A 1_555 1_555
C14A C10A 1_555 1_555
H7A C14A 1_555 1_555
C15A C16A 1_555 1_555
C16A C17A 1_555 1_555
C17A H8A 1_555 1_555
C18A C17A 1_555 1_555
C19A C18A 1_555 1_555
H9A C19A 1_555 1_555
C20A C19A 1_555 1_555
C21A C16A 1_555 1_555
H10A C21A 1_555 1_555
C22A C20A 1_555 1_555
C23A C24A 1_555 1_555
C24A C25A 1_555 1_555
C25A H11A 1_555 1_555
C26A C25A 1_555 1_555
H12A C26A 1_555 1_555
C27A H13A 1_555 1_555
C28A C24A 1_555 1_555
H14A C28A 1_555 1_555
N1A C6A 1_555 1_555
H15A N1A 1_555 1_555
N2A C12A 1_555 1_555
N3A C18A 1_555 1_555
H16A N3A 1_555 1_555
N4A C26A 1_555 1_555
O1A C1A 1_555 1_555
O2A Tb1A 1_555 1_555
O3A C8A 1_555 1_555
O4A C8A 1_555 1_555
O5A C9A 1_555 1_555
O6A Tb1A 1_555 1_555
O7A Mn1 1_555 1_555
O8A C22A 1_555 1_555
O9A C22A 1_555 1_555
O10A C23A 1_555 1_555
O11A Mn1 1_555 1_555
H17A O11A 1_555 1_555
H18A O11A 1_555 1_555
O12A Tb1A 1_555 1_555
H19A O12A 1_555 1_555
H20A O12A 1_555 1_555
Mn1_2 N2A 1_555 1_555
Mn1_3 N2 1_555 1_555
Tb1_2 O8 1_555 1_555
Tb1_3 O3 1_555 1_555
Tb1A_2 O3A 1_555 1_555
Tb1A_3 O8A 1_555 1_555
N2_2 Mn1 1_555 1_555
N2A_2 Mn1 1_555 1_555
O3_2 Tb1 1_555 1_555
O3A_2 Tb1A 1_555 1_555
O4_2 Tb1 1_555 1_555
O4A_2 Tb1A 1_555 1_555
O8_2 Tb1 1_555 1_555
O8A_2 Tb1A 1_555 1_555
O9_2 Tb1 1_555 1_555
O9A_2 Tb1A 1_555 1_555
C1 O2 1_555 1_555
C6 C7 1_555 1_555
C9 N1 1_555 1_555
C13 C14 1_555 1_555
C13 N2 1_555 1_555
C15 O6 1_555 1_555
C20 C21 1_555 1_555
C23 N3 1_555 1_555
C27 C28 1_555 1_555
C27 N4 1_555 1_555
O4 Tb1_3 1_555 1_555
O9 Tb1_2 1_555 1_555
C1A O2A 1_555 1_555
C6A C7A 1_555 1_555
C9A N1A 1_555 1_555
C13A C14A 1_555 1_555
C13A N2A 1_555 1_555
C15A O6A 1_555 1_555
C15A O7A 1_555 1_555
C20A C21A 1_555 1_555
C23A N3A 1_555 1_555
C27A C28A 1_555 1_555
C27A N4A 1_555 1_555
O4A Tb1A_2 1_555 1_555
O9A Tb1A_3 1_555 1_555

#END
