
#######################################################################
#
#                 Cambridge Crystallographic Data Centre
#                                CCDC 
#
#######################################################################
#
# If this CIF has been generated from an entry in the Cambridge 
# Structural Database, then it will include bibliographic, chemical, 
# crystal, experimental, refinement or atomic coordinate data resulting 
# from the CCDC's data processing and validation procedures.
#
#######################################################################

data_MOFVOU
_symmetry_cell_setting           monoclinic
_symmetry_space_group_name_H-M   'P 21/n'
_symmetry_Int_Tables_number      14
_space_group_name_Hall           '-P 2yn'
loop_
_symmetry_equiv_pos_site_id
_symmetry_equiv_pos_as_xyz
1 x,y,z
2 1/2-x,1/2+y,1/2-z
3 -x,-y,-z
4 1/2+x,1/2-y,1/2+z
_cell_length_a                   11.3256(3)
_cell_length_b                   8.9352(2)
_cell_length_c                   15.1672(4)
_cell_angle_alpha                90
_cell_angle_beta                 93.037(3)
_cell_angle_gamma                90
_cell_volume                     1532.71
loop_
_atom_site_label
_atom_site_type_symbol
_atom_site_fract_x
_atom_site_fract_y
_atom_site_fract_z
Cu1 Cu 0.02331(4) 0.68505(5) 0.81995(3)
C1 C 0.1231(3) 0.9711(4) 0.7485(2)
H1 H 0.1987 0.9248 0.7526
C2 C 0.1121(3) 1.1110(3) 0.7088(2)
C3 C 0.0015(3) 1.1772(4) 0.7027(2)
H2 H -0.0099 1.2712 0.6743
C4 C -0.0932(3) 1.1037(4) 0.7392(2)
H3 H -0.1693 1.1485 0.7376
C5 C -0.0748(3) 0.9659(4) 0.7773(2)
C6 C -0.1684(3) 0.8753(4) 0.8203(2)
C7 C 0.2204(3) 1.1821(3) 0.6729(2)
C8 C -0.1043(3) 0.4319(4) 0.8955(2)
H4 H -0.1713 0.4929 0.8811
C9 C -0.1216(4) 0.2927(4) 0.9337(3)
H5 H -0.1991 0.2608 0.9458
C10 C -0.0243(4) 0.1996(4) 0.9543(2)
C11 C 0.0867(4) 0.2546(4) 0.9359(2)
H6 H 0.1552 0.1955 0.9485
C12 C 0.0970(3) 0.3949(4) 0.8996(2)
H7 H 0.1738 0.4313 0.889
C13 C -0.0419(4) 0.0513(4) 0.9935(2)
H8 H -0.119 0.0272 1.0109
N1 N 0.0324(2) 0.8995(3) 0.78084(18)
N2 N 0.0028(3) 0.4832(3) 0.87824(18)
O1 O -0.13529(19) 0.7475(3) 0.85045(15)
O2 O -0.2690(2) 0.9257(3) 0.8245(2)
O3 O 0.3168(2) 1.1361(3) 0.71074(16)
O4 O 0.2109(2) 1.2733(3) 0.61200(17)
O5 O -0.0520(3) 0.6282(3) 0.68415(18)
H9 H -0.110(3) 0.574(4) 0.684(4)
H10 H 0.001(3) 0.590(5) 0.658(3)
C8B C 0.1043(3) -0.4319(4) 1.1045(2)
H4B H 0.1713 -0.4929 1.1189
C9B C 0.1216(4) -0.2927(4) 1.0663(3)
H5B H 0.1991 -0.2608 1.0542
C10B C 0.0243(4) -0.1996(4) 1.0457(2)
C11B C -0.0867(4) -0.2546(4) 1.0641(2)
H6B H -0.1552 -0.1955 1.0515
C12B C -0.0970(3) -0.3949(4) 1.1004(2)
H7B H -0.1738 -0.4313 1.111
C13B C 0.0419(4) -0.0513(4) 1.0065(2)
H8B H 0.119 -0.0272 0.9891
N2B N -0.0028(3) -0.4832(3) 1.12176(18)
Cu1B Cu -0.02331(4) -0.68505(5) 1.18005(3)
C1B C -0.1231(3) -0.9711(4) 1.2515(2)
H1B H -0.1987 -0.9248 1.2474
C2B C -0.1121(3) -1.1110(3) 1.2912(2)
C3B C -0.0015(3) -1.1772(4) 1.2973(2)
H2B H 0.0099 -1.2712 1.3257
C4B C 0.0932(3) -1.1037(4) 1.2608(2)
H3B H 0.1693 -1.1485 1.2624
C5B C 0.0748(3) -0.9659(4) 1.2227(2)
C6B C 0.1684(3) -0.8753(4) 1.1797(2)
C7B C -0.2204(3) -1.1821(3) 1.3271(2)
N1B N -0.0324(2) -0.8995(3) 1.21916(18)
O1B O 0.13529(19) -0.7475(3) 1.14955(15)
O2B O 0.2690(2) -0.9257(3) 1.1755(2)
O3B O -0.3168(2) -1.1361(3) 1.28926(16)
O4B O -0.2109(2) -1.2733(3) 1.38800(17)
O5B O 0.0520(3) -0.6282(3) 1.31585(18)
H9B H 0.110(3) -0.574(4) 1.316(4)
H10B H -0.001(3) -0.590(5) 1.342(3)
Cu1A Cu 0.47669(4) 1.18505(5) 0.68005(3)
Cu1C Cu -0.47669(4) -1.18505(5) 1.31995(3)
O3A O 0.1832(2) 0.6361(3) 0.78926(16)
O3C O -0.1832(2) -0.6361(3) 1.21074(16)
O6 O 0.0988(10) 1.5304(8) 0.5600(4)
O7 O -0.0841(9) 0.8733(11) 0.5538(6)
O8 O -0.0245(10) 0.6538(12) 0.5061(7)
O9 O 0.3396(5) 0.3205(10) 1.0200(4)
loop_
_geom_bond_atom_site_label_1
_geom_bond_atom_site_label_2
_geom_bond_site_symmetry_1
_geom_bond_site_symmetry_2
Cu1 N1 1_555 1_555
C1 H1 1_555 1_555
C2 C1 1_555 1_555
C3 C2 1_555 1_555
H2 C3 1_555 1_555
C4 C3 1_555 1_555
H3 C4 1_555 1_555
C5 C4 1_555 1_555
C6 C5 1_555 1_555
C7 C2 1_555 1_555
C8 H4 1_555 1_555
C9 C8 1_555 1_555
H5 C9 1_555 1_555
C10 C9 1_555 1_555
C11 C10 1_555 1_555
H6 C11 1_555 1_555
C12 C11 1_555 1_555
H7 C12 1_555 1_555
C13 C10 1_555 1_555
H8 C13 1_555 1_555
N1 C1 1_555 1_555
N2 Cu1 1_555 1_555
O1 Cu1 1_555 1_555
O2 C6 1_555 1_555
O3 C7 1_555 1_555
O4 C7 1_555 1_555
O5 Cu1 1_555 1_555
H9 O5 1_555 1_555
H10 O5 1_555 1_555
C8B H4B 1_555 1_555
C9B C8B 1_555 1_555
H5B C9B 1_555 1_555
C10B C9B 1_555 1_555
C11B C10B 1_555 1_555
H6B C11B 1_555 1_555
C12B C11B 1_555 1_555
H7B C12B 1_555 1_555
C13B C13 1_555 1_555
H8B C13B 1_555 1_555
N2B C8B 1_555 1_555
Cu1B N2B 1_555 1_555
C1B H1B 1_555 1_555
C2B C1B 1_555 1_555
C3B C2B 1_555 1_555
H2B C3B 1_555 1_555
C4B C3B 1_555 1_555
H3B C4B 1_555 1_555
C5B C4B 1_555 1_555
C6B C5B 1_555 1_555
C7B C2B 1_555 1_555
N1B Cu1B 1_555 1_555
O1B Cu1B 1_555 1_555
O2B C6B 1_555 1_555
O3B C7B 1_555 1_555
O4B C7B 1_555 1_555
O5B Cu1B 1_555 1_555
H9B O5B 1_555 1_555
H10B O5B 1_555 1_555
Cu1A O3 1_555 1_555
Cu1C O3B 1_555 1_555
O3A Cu1 1_555 1_555
O3C Cu1B 1_555 1_555
C5 N1 1_555 1_555
C6 O1 1_555 1_555
C8 N2 1_555 1_555
C12 N2 1_555 1_555
C10B C13B 1_555 1_555
C12B N2B 1_555 1_555
C1B N1B 1_555 1_555
C5B N1B 1_555 1_555
C6B O1B 1_555 1_555

#END
