
#######################################################################
#
#                 Cambridge Crystallographic Data Centre
#                                CCDC 
#
#######################################################################
#
# If this CIF has been generated from an entry in the Cambridge 
# Structural Database, then it will include bibliographic, chemical, 
# crystal, experimental, refinement or atomic coordinate data resulting 
# from the CCDC's data processing and validation procedures.
#
#######################################################################

data_MOFWUA
_symmetry_cell_setting           triclinic
_symmetry_space_group_name_H-M   'P -1'
_symmetry_Int_Tables_number      2
_space_group_name_Hall           '-P 1'
loop_
_symmetry_equiv_pos_site_id
_symmetry_equiv_pos_as_xyz
1 x,y,z
2 -x,-y,-z
_cell_length_a                   5.4255(1)
_cell_length_b                   11.1971(8)
_cell_length_c                   11.5837(4)
_cell_angle_alpha                92.962(10)
_cell_angle_beta                 100.739(9)
_cell_angle_gamma                103.467(8)
_cell_volume                     669.037
loop_
_atom_site_label
_atom_site_type_symbol
_atom_site_fract_x
_atom_site_fract_y
_atom_site_fract_z
Zn1 Zn 0.17804(6) 0.24931(3) 0.15257(3)
O1 O -0.1468(4) 0.1343(2) 0.22412(18)
O2 O 0.5500(4) 0.38060(19) 0.17129(17)
O3 O -0.2427(5) 0.0779(3) 0.3957(2)
O4 O 0.8792(5) 0.4914(2) 0.3096(2)
N1 N 0.3014(4) 0.2805(2) 0.32816(19)
N2 N -0.0385(4) 0.3386(2) 0.0471(2)
H7 H -0.092(8) 0.298(4) -0.026(2)
H8 H -0.180(5) 0.338(3) 0.072(3)
N3 N 0.3055(5) 0.1136(2) 0.0782(2)
H9 H 0.360(7) 0.145(3) 0.019(2)
H10 H 0.439(6) 0.099(4) 0.141(3)
C1 C -0.0994(5) 0.1368(3) 0.3353(3)
C2 C 0.1582(5) 0.2201(3) 0.3992(2)
C3 C 0.5321(5) 0.3567(2) 0.3712(2)
C4 C 0.6332(6) 0.3780(3) 0.4914(3)
H11 H 0.7935 0.4322 0.5213
C5 C 0.4854(7) 0.3150(3) 0.5660(3)
H12 H 0.5479 0.3267 0.6473
C6 C 0.2491(6) 0.2359(3) 0.5208(3)
H13 H 0.1511 0.1936 0.5705
C7 C 0.6687(5) 0.4159(3) 0.2773(2)
C8 C 0.0921(5) 0.4678(2) 0.0361(3)
H14 H 0.2380 0.4690 -0.0015
H15 H 0.1578 0.5120 0.1141
C9 C 0.1173(5) -0.0074(3) 0.0433(3)
H16 H 0.0641 -0.0412 0.1128
H17 H 0.1977 -0.0643 0.0073
Zn1A Zn -0.17804(6) 0.75069(3) -0.15257(3)
Zn1A_2 Zn -0.17804(6) -0.24931(3) -0.15257(3)
O1A O 0.1468(4) 0.8657(2) -0.22412(18)
O2A O -0.5500(4) 0.61940(19) -0.17129(17)
O3A O 0.2427(5) 0.9221(3) -0.3957(2)
O4A O -0.8792(5) 0.5086(2) -0.3096(2)
N1A N -0.3014(4) 0.7195(2) -0.32816(19)
N2A N 0.0385(4) 0.6614(2) -0.0471(2)
H7A H 0.092(8) 0.702(4) 0.026(2)
H8A H 0.180(5) 0.662(3) -0.072(3)
N3A N -0.3055(5) -0.1136(2) -0.0782(2)
N3A_2 N -0.3055(5) 0.8864(2) -0.0782(2)
H9A H -0.360(7) -0.145(3) -0.019(2)
H9A_2 H -0.360(7) 0.855(3) -0.019(2)
H10A H -0.439(6) -0.099(4) -0.141(3)
H10A_2 H -0.439(6) 0.901(4) -0.141(3)
C1A C 0.0994(5) 0.8632(3) -0.3353(3)
C2A C -0.1582(5) 0.7799(3) -0.3992(2)
C3A C -0.5321(5) 0.6433(2) -0.3712(2)
C4A C -0.6332(6) 0.6220(3) -0.4914(3)
H11A H -0.7935 0.5678 -0.5213
C5A C -0.4854(7) 0.6850(3) -0.5660(3)
H12A H -0.5479 0.6733 -0.6473
C6A C -0.2491(6) 0.7641(3) -0.5208(3)
H13A H -0.1511 0.8064 -0.5705
C7A C -0.6687(5) 0.5841(3) -0.2773(2)
C8A C -0.0921(5) 0.5322(2) -0.0361(3)
H14A H -0.2380 0.5310 0.0015
H15A H -0.1578 0.4880 -0.1141
C9A C -0.1173(5) 0.0074(3) -0.0433(3)
H16A H -0.0641 0.0412 -0.1128
H17A H -0.1977 0.0643 -0.0073
O5 O 0.9575(6) 0.7167(3) 0.2068(2)
H1 H 0.917(9) 0.641(3) 0.245(4)
H2 H 1.094(9) 0.768(4) 0.256(4)
O6 O -0.2597(6) 0.0706(3) 0.6445(2)
H3 H -0.280(11) 0.062(5) 0.5581(18)
H4 H -0.25(3) 0.155(4) 0.667(8)
O7 O -0.4468(7) -0.1706(5) 0.1524(3)
H5 H -0.336(10) -0.224(4) 0.175(5)
H6 H -0.382(15) -0.100(4) 0.202(6)
loop_
_geom_bond_atom_site_label_1
_geom_bond_atom_site_label_2
_geom_bond_site_symmetry_1
_geom_bond_site_symmetry_2
Zn1 O1 1_555 1_555
O1 C1 1_555 1_555
O2 Zn1 1_555 1_555
O3 C1 1_555 1_555
O4 C7 1_555 1_555
O5 H1 1_555 1_555
H2 O5 1_555 1_555
O6 H3 1_555 1_555
H4 O6 1_555 1_555
O7 H5 1_555 1_555
H6 O7 1_555 1_555
N1 Zn1 1_555 1_555
N2 Zn1 1_555 1_555
H7 N2 1_555 1_555
H8 N2 1_555 1_555
N3 Zn1 1_555 1_555
H9 N3 1_555 1_555
H10 N3 1_555 1_555
C1 C2 1_555 1_555
C2 N1 1_555 1_555
C3 N1 1_555 1_555
C4 C3 1_555 1_555
H11 C4 1_555 1_555
C5 C4 1_555 1_555
H12 C5 1_555 1_555
C6 C2 1_555 1_555
H13 C6 1_555 1_555
C7 O2 1_555 1_555
C8 N2 1_555 1_555
H14 C8 1_555 1_555
H15 C8 1_555 1_555
C9 N3 1_555 1_555
H16 C9 1_555 1_555
H17 C9 1_555 1_555
Zn1A O1A 1_555 1_555
Zn1A_2 N3A 1_555 1_555
O1A C1A 1_555 1_555
O2A Zn1A 1_555 1_555
O3A C1A 1_555 1_555
O4A C7A 1_555 1_555
N1A Zn1A 1_555 1_555
N2A Zn1A 1_555 1_555
H7A N2A 1_555 1_555
H8A N2A 1_555 1_555
N3A H9A 1_555 1_555
N3A_2 Zn1A 1_555 1_555
H9A_2 N3A_2 1_555 1_555
H10A N3A 1_555 1_555
H10A_2 N3A_2 1_555 1_555
C1A C2A 1_555 1_555
C2A N1A 1_555 1_555
C3A N1A 1_555 1_555
C4A C3A 1_555 1_555
H11A C4A 1_555 1_555
C5A C4A 1_555 1_555
H12A C5A 1_555 1_555
C6A C2A 1_555 1_555
H13A C6A 1_555 1_555
C7A O2A 1_555 1_555
C8A C8 1_555 1_555
H14A C8A 1_555 1_555
H15A C8A 1_555 1_555
C9A C9 1_555 1_555
H16A C9A 1_555 1_555
H17A C9A 1_555 1_555
C3 C7 1_555 1_555
C5 C6 1_555 1_555
N2A C8A 1_555 1_555
N3A C9A 1_555 1_555
C3A C7A 1_555 1_555
C5A C6A 1_555 1_555

#END
