
#######################################################################
#
#                 Cambridge Crystallographic Data Centre
#                                CCDC 
#
#######################################################################
#
# If this CIF has been generated from an entry in the Cambridge 
# Structural Database, then it will include bibliographic, chemical, 
# crystal, experimental, refinement or atomic coordinate data resulting 
# from the CCDC's data processing and validation procedures.
#
#######################################################################

data_MOGNUR
_symmetry_cell_setting           monoclinic
_symmetry_space_group_name_H-M   'C 2/c'
_symmetry_Int_Tables_number      15
_space_group_name_Hall           '-C 2yn'
loop_
_symmetry_equiv_pos_site_id
_symmetry_equiv_pos_as_xyz
1 x,y,z
2 1/2+x,1/2+y,z
3 x,-y,1/2+z
4 1/2+x,1/2-y,1/2+z
5 -x,-y,-z
6 1/2-x,1/2-y,-z
7 -x,y,1/2-z
8 1/2-x,1/2+y,1/2-z
_cell_length_a                   18.930(4)
_cell_length_b                   9.559(2)
_cell_length_c                   16.025(3)
_cell_angle_alpha                90.00
_cell_angle_beta                 96.97(3)
_cell_angle_gamma                90.00
_cell_volume                     2878.32
loop_
_atom_site_label
_atom_site_type_symbol
_atom_site_fract_x
_atom_site_fract_y
_atom_site_fract_z
Ag1 Ag 0.43119(4) 0.06407(8) 0.47567(5)
Ag2 Ag 0.53084(4) 0.05832(10) 0.34392(5)
S1 S 0.40357(12) 0.1254(2) 0.3231(2)
S2 S 0.38571(13) -0.1683(3) 0.5248(2)
S3 S 0.50951(14) -0.2441(3) 0.4286(2)
N1 N 0.3728(4) -0.0576(8) 0.1982(5)
N2 N 0.3924(4) -0.3909(9) 0.4280(5)
C1 C 0.3563(5) -0.0161(10) 0.2742(5)
C2 C 0.3000(4) -0.0799(10) 0.3076(6)
H1 H 0.2900(4) -0.0529(10) 0.3607(6)
C3 C 0.2576(5) -0.1840(11) 0.2640(7)
H2 H 0.2205(5) -0.2277(11) 0.2868(7)
C4 C 0.2752(6) -0.2169(12) 0.1843(7)
H3 H 0.2477(6) -0.2812(12) 0.1511(7)
C5 C 0.3322(6) -0.1562(11) 0.1547(7)
H4 H 0.3437(6) -0.1834(11) 0.1023(7)
C6 C 0.4262(5) -0.2790(9) 0.4590(5)
C7 C 0.3192(6) -0.4221(13) 0.4418(7)
H5 H 0.2943(6) -0.4612(13) 0.3906(7)
H6 H 0.2955(6) -0.3356(13) 0.4536(7)
C8 C 0.3139(8) -0.5212(13) 0.5117(9)
H7 H 0.2647(8) -0.5364(13) 0.5180(9)
H8 H 0.3379(8) -0.4829(13) 0.5628(9)
H9 H 0.3355(8) -0.6085(13) 0.4996(9)
C9 C 0.4247(5) -0.4964(11) 0.3764(6)
H10 H 0.4058(5) -0.5881(11) 0.3868(6)
H11 H 0.4758(5) -0.4989(11) 0.3926(6)
C10 C 0.4095(7) -0.4620(15) 0.2824(8)
H12 H 0.4310(7) -0.5316(15) 0.2505(8)
H13 H 0.4288(7) -0.3718(15) 0.2719(8)
H14 H 0.3590(7) -0.4612(15) 0.2660(8)
Ag1D Ag 0.56881(4) -0.06407(8) 0.52433(5)
Ag2D Ag 0.46916(4) -0.05832(10) 0.65608(5)
S3D S 0.49049(14) 0.2441(3) 0.5714(2)
Ag2F Ag 0.46916(4) 0.05832(10) 0.15608(5)
S2D S 0.61429(13) 0.1683(3) 0.4752(2)
N1F N 0.6272(4) -0.0576(8) 0.3018(5)
loop_
_geom_bond_atom_site_label_1
_geom_bond_atom_site_label_2
_geom_bond_site_symmetry_1
_geom_bond_site_symmetry_2
Ag1 Ag2 1_555 1_555
Ag2 S1 1_555 1_555
S1 Ag1 1_555 1_555
S2 Ag1 1_555 1_555
S3 C6 1_555 1_555
N1 C1 1_555 1_555
N2 C6 1_555 1_555
C1 S1 1_555 1_555
C2 C1 1_555 1_555
H1 C2 1_555 1_555
C3 C2 1_555 1_555
H2 C3 1_555 1_555
C4 C3 1_555 1_555
H3 C4 1_555 1_555
C5 N1 1_555 1_555
H4 C5 1_555 1_555
C6 S2 1_555 1_555
C7 N2 1_555 1_555
H5 C7 1_555 1_555
H6 C7 1_555 1_555
C8 C7 1_555 1_555
H7 C8 1_555 1_555
H8 C8 1_555 1_555
H9 C8 1_555 1_555
C9 N2 1_555 1_555
H10 C9 1_555 1_555
H11 C9 1_555 1_555
C10 C9 1_555 1_555
H12 C10 1_555 1_555
H13 C10 1_555 1_555
H14 C10 1_555 1_555
Ag1D Ag1 1_555 1_555
Ag2D Ag1 1_555 1_555
S3D Ag1 1_555 1_555
Ag2F Ag2 1_555 1_555
S2D Ag2 1_555 1_555
N1F Ag2 1_555 1_555
Ag2 Ag1D 1_555 1_555
S2 Ag2D 1_555 1_555
S3 Ag1D 1_555 1_555
N1 Ag2F 1_555 1_555
C4 C5 1_555 1_555
Ag1D Ag2D 1_555 1_555
Ag1D S2D 1_555 1_555

#END
