
#######################################################################
#
#                 Cambridge Crystallographic Data Centre
#                                CCDC 
#
#######################################################################
#
# If this CIF has been generated from an entry in the Cambridge 
# Structural Database, then it will include bibliographic, chemical, 
# crystal, experimental, refinement or atomic coordinate data resulting 
# from the CCDC's data processing and validation procedures.
#
#######################################################################

data_MOGNIF
_symmetry_cell_setting           orthorhombic
_symmetry_space_group_name_H-M   'C m c 21'
_symmetry_Int_Tables_number      36
_space_group_name_Hall           'C 2n -2'
loop_
_symmetry_equiv_pos_site_id
_symmetry_equiv_pos_as_xyz
1 x,y,z
2 -x,-y,1/2+z
3 x,-y,1/2+z
4 -x,y,z
5 1/2+x,1/2+y,z
6 1/2-x,1/2-y,1/2+z
7 1/2+x,1/2-y,1/2+z
8 1/2-x,1/2+y,z
_cell_length_a                   32.59790(10)
_cell_length_b                   9.75070(10)
_cell_length_c                   6.55980(10)
_cell_angle_alpha                90
_cell_angle_beta                 90
_cell_angle_gamma                90
_cell_volume                     2085.05
loop_
_atom_site_label
_atom_site_type_symbol
_atom_site_fract_x
_atom_site_fract_y
_atom_site_fract_z
N3 N 0.3571(4) 0.6370(15) 1.136(2)
O1 O 0.3762(5) 0.7413(11) 1.073(3)
O2 O 0.3769(3) 0.5414(9) 1.2135(17)
O3 O 0.3208(5) 0.6277(19) 1.120(2)
Ag1 Ag 0.43872(2) 0.01622(9) 0.8023(3)
S1 S 0.41521(6) 0.1756(2) 1.0758(5)
S2 S 0.5000 0.1069(3) 0.5571(7)
C1 C 0.3622(3) 0.1696(9) 1.082(2)
C2 C 0.3378(3) 0.0521(12) 1.042(2)
H1 H 0.3508 -0.0340 1.0130
C3 C 0.2960(4) 0.0632(16) 1.054(3)
H2 H 0.2793 -0.0166 1.0320
C4 C 0.2767(4) 0.188(2) 1.096(3)
H3 H 0.2473 0.1960 1.0981
C5 C 0.3021(4) 0.2974(16) 1.132(2)
H4 H 0.2901 0.3844 1.1653
N1 N 0.3418(3) 0.2851(9) 1.1221(14)
H5 H 0.3580 0.3659 1.1444
C6 C 0.5000 0.2846(14) 0.5277(15)
N2 N 0.4647(3) 0.3562(8) 0.5207(13)
H6 H 0.4392 0.3072 0.5314
C7 C 0.4637(3) 0.4964(10) 0.5022(13)
H7 H 0.4381 0.5446 0.4900
C8 C 0.5000 0.5667(14) 0.496(2)
H8 H 0.5000 0.6651 0.4908
Ag1B Ag 0.43872(2) -0.01622(9) 0.3023(3)
Ag1B_2 Ag 0.43872(2) -0.01622(9) 1.3023(3)
S1B S 0.41521(6) -0.1756(2) 0.5758(5)
S2A S 0.5000 -0.1069(3) 1.0571(7)
Ag1A Ag 0.56128(2) -0.01622(9) 0.3023(3)
Ag1C Ag 0.56128(2) 0.01622(9) 0.8023(3)
N2C N 0.5353(3) 0.3562(8) 0.5207(13)
C7C C 0.5363(3) 0.4964(10) 0.5022(13)
loop_
_geom_bond_atom_site_label_1
_geom_bond_atom_site_label_2
_geom_bond_site_symmetry_1
_geom_bond_site_symmetry_2
Ag1 S1 1_555 1_555
S1 C1 1_555 1_555
S2 Ag1 1_555 1_555
C1 C2 1_555 1_555
C2 H1 1_555 1_555
C3 C2 1_555 1_555
H2 C3 1_555 1_555
C4 C3 1_555 1_555
H3 C4 1_555 1_555
C5 C4 1_555 1_555
H4 C5 1_555 1_555
N1 C1 1_555 1_555
H5 N1 1_555 1_555
C6 S2 1_555 1_555
N2 C6 1_555 1_555
H6 N2 1_555 1_555
C7 N2 1_555 1_555
H7 C7 1_555 1_555
C8 C7 1_555 1_555
H8 C8 1_555 1_555
N3 O1 1_555 1_555
O2 N3 1_555 1_555
O3 N3 1_555 1_555
Ag1B Ag1 1_555 1_555
Ag1B_2 Ag1 1_555 1_555
S1B Ag1 1_555 1_555
S2A Ag1 1_555 1_555
Ag1A S2 1_555 1_555
Ag1C S2 1_555 1_555
N2C C6 1_555 1_555
C7C C8 1_555 1_555
S1 Ag1B_2 1_555 1_555
S2 Ag1B 1_555 1_555
C5 N1 1_555 1_555
Ag1B S1B 1_555 1_555
Ag1B_2 S2A 1_555 1_555
S2A Ag1C 1_555 1_555
Ag1A Ag1C 1_555 1_555
N2C C7C 1_555 1_555

#END
