
#######################################################################
#
#                 Cambridge Crystallographic Data Centre
#                                CCDC 
#
#######################################################################
#
# If this CIF has been generated from an entry in the Cambridge 
# Structural Database, then it will include bibliographic, chemical, 
# crystal, experimental, refinement or atomic coordinate data resulting 
# from the CCDC's data processing and validation procedures.
#
#######################################################################

data_MOGVEK
_symmetry_cell_setting           orthorhombic
_symmetry_space_group_name_H-M   'P 21 21 21'
_symmetry_Int_Tables_number      19
_space_group_name_Hall           'P 2ac 2ab'
loop_
_symmetry_equiv_pos_site_id
_symmetry_equiv_pos_as_xyz
1 x,y,z
2 1/2-x,-y,1/2+z
3 -x,1/2+y,1/2-z
4 1/2+x,1/2-y,-z
_cell_length_a                   6.4715(11)
_cell_length_b                   7.9554(10)
_cell_length_c                   10.4171(18)
_cell_angle_alpha                90
_cell_angle_beta                 90
_cell_angle_gamma                90
_cell_volume                     536.307
loop_
_atom_site_label
_atom_site_type_symbol
_atom_site_fract_x
_atom_site_fract_y
_atom_site_fract_z
Cd1 Cd -0.00890(13) 0.68370(11) 0.75154(13)
Br1 Br 0.3008(2) 0.43703(19) 0.7459(3)
N1 N -0.157(2) 0.5193(18) 0.9016(12)
N2 N -0.329(2) 0.4090(18) 1.0662(12)
N3 N -0.253(2) 0.7037(19) 1.0789(12)
H1 H -0.2622 0.7752 1.0169
H2 H -0.1335 0.7186 1.1136
C1 C -0.282(3) 0.288(2) 0.9749(14)
H3 H -0.3181 0.1733 0.9832
C2 C -0.242(2) 0.545(2) 1.0162(13)
N4 N -0.189(2) 0.3450(18) 0.8830(12)
Cd1B Cd 0.00890(13) 0.18370(11) 0.74846(13)
Cd1A Cd -0.49110(13) 0.31630(11) 1.25154(13)
Cd1C Cd -0.50890(13) 0.81630(11) 1.24846(13)
Br1B Br -0.3008(2) 0.93703(19) 0.7541(3)
N2A N -0.171(2) 0.5910(18) 0.5662(12)
N3C N 0.247(2) 0.7963(19) 0.9211(12)
H1C H 0.2378 0.7248 0.9831
H2C H 0.3665 0.7814 0.8864
N4B N 0.189(2) 0.8450(18) 0.6170(12)
loop_
_geom_bond_atom_site_label_1
_geom_bond_atom_site_label_2
_geom_bond_site_symmetry_1
_geom_bond_site_symmetry_2
Cd1 Br1 1_555 1_555
Br1 Cd1B 1_555 1_555
N1 Cd1 1_555 1_555
N2 C1 1_555 1_555
N3 H1 1_555 1_555
H2 N3 1_555 1_555
C1 H3 1_555 1_555
C2 N1 1_555 1_555
N4 N1 1_555 1_555
Cd1B N4 1_555 1_555
Cd1A N2 1_555 1_555
Cd1C N3 1_555 1_555
Br1B Cd1 1_555 1_555
N2A Cd1 1_555 1_555
N3C Cd1 1_555 1_555
H1C N3C 1_555 1_555
H2C N3C 1_555 1_555
N4B Cd1 1_555 1_555
N2 C2 1_555 1_555
N3 C2 1_555 1_555
C1 N4 1_555 1_555

#END
