
#######################################################################
#
#                 Cambridge Crystallographic Data Centre
#                                CCDC 
#
#######################################################################
#
# If this CIF has been generated from an entry in the Cambridge 
# Structural Database, then it will include bibliographic, chemical, 
# crystal, experimental, refinement or atomic coordinate data resulting 
# from the CCDC's data processing and validation procedures.
#
#######################################################################

data_MOGVIO
_symmetry_cell_setting           orthorhombic
_symmetry_space_group_name_H-M   'P b a 2'
_symmetry_Int_Tables_number      32
_space_group_name_Hall           'P 2 -2ab'
loop_
_symmetry_equiv_pos_site_id
_symmetry_equiv_pos_as_xyz
1 x,y,z
2 -x,-y,z
3 1/2+x,1/2-y,z
4 1/2-x,1/2+y,z
_cell_length_a                   13.973(4)
_cell_length_b                   6.6440(17)
_cell_length_c                   6.7133(17)
_cell_angle_alpha                90
_cell_angle_beta                 90
_cell_angle_gamma                90
_cell_volume                     623.24
loop_
_atom_site_label
_atom_site_type_symbol
_atom_site_fract_x
_atom_site_fract_y
_atom_site_fract_z
Cd1 Cd 0.613570(14) 0.17032(3) 0.5626(3)
S1 S 0.62549(5) 0.65718(10) 0.5604(9)
O1 O 0.6141(5) 0.5150(11) 0.7233(18)
O2 O 0.71975(14) 0.7552(4) 0.5619(11)
O3 O 0.6129(5) 0.5452(14) 0.3737(17)
O4 O 0.55231(17) 0.8184(3) 0.5452(15)
N1 N 0.6291(5) 0.1153(11) 0.2309(9)
N2 N 0.7098(5) 0.0044(10) 0.1532(10)
H1 H 0.7511 -0.0601 0.2237
N3 N 0.6321(5) 0.1092(12) -0.1049(11)
N4 N 0.5024(2) 0.2635(4) 0.0475(13)
H2 H 0.5052 0.3639 0.1312
H3 H 0.4964 0.3063 -0.0754
C1 C 0.7103(6) 0.0171(9) -0.0386(10)
H4 H 0.7590 -0.0317 -0.1197
C2 C 0.5858(2) 0.1677(4) 0.058(2)
Cd1C Cd 0.886430(14) 0.67032(3) 0.5626(3)
Cd1_2 Cd 0.613570(14) 1.17032(3) 0.5626(3)
Cd1A Cd 0.386430(14) 0.82968(3) 0.5626(3)
Cd1_3 Cd 0.613570(14) 0.17032(3) -0.4374(3)
O2C O 0.78025(14) 0.2552(4) 0.5619(11)
O4_2 O 0.55231(17) -0.1816(3) 0.5452(15)
O4A O 0.44769(17) 0.1816(3) 0.5452(15)
N3_2 N 0.6321(5) 0.1092(12) 0.8951(11)
loop_
_geom_bond_atom_site_label_1
_geom_bond_atom_site_label_2
_geom_bond_site_symmetry_1
_geom_bond_site_symmetry_2
Cd1 O1 1_555 1_555
S1 O1 1_555 1_555
O2 S1 1_555 1_555
O3 S1 1_555 1_555
O4 S1 1_555 1_555
N1 Cd1 1_555 1_555
N2 N1 1_555 1_555
H1 N2 1_555 1_555
N3 C1 1_555 1_555
N4 H2 1_555 1_555
H3 N4 1_555 1_555
C1 N2 1_555 1_555
H4 C1 1_555 1_555
C2 N1 1_555 1_555
Cd1C O2 1_555 1_555
Cd1_2 O4 1_555 1_555
Cd1A O4 1_555 1_555
Cd1_3 N3 1_555 1_555
O2C Cd1 1_555 1_555
O4_2 Cd1 1_555 1_555
O4A Cd1 1_555 1_555
N3_2 Cd1 1_555 1_555
N3 C2 1_555 1_555
N4 C2 1_555 1_555

#END
