
#######################################################################
#
#                 Cambridge Crystallographic Data Centre
#                                CCDC 
#
#######################################################################
#
# If this CIF has been generated from an entry in the Cambridge 
# Structural Database, then it will include bibliographic, chemical, 
# crystal, experimental, refinement or atomic coordinate data resulting 
# from the CCDC's data processing and validation procedures.
#
#######################################################################

data_MOHDOD
_symmetry_cell_setting           monoclinic
_symmetry_space_group_name_H-M   'P 21/c'
_symmetry_Int_Tables_number      14
_space_group_name_Hall           '-P 2ybc'
loop_
_symmetry_equiv_pos_site_id
_symmetry_equiv_pos_as_xyz
1 x,y,z
2 -x,1/2+y,1/2-z
3 -x,-y,-z
4 x,1/2-y,1/2+z
_cell_length_a                   7.0292(14)
_cell_length_b                   19.316(4)
_cell_length_c                   10.558(2)
_cell_angle_alpha                90
_cell_angle_beta                 107.40(3)
_cell_angle_gamma                90
_cell_volume                     1367.93
loop_
_atom_site_label
_atom_site_type_symbol
_atom_site_fract_x
_atom_site_fract_y
_atom_site_fract_z
C1 C 0.3197(5) 0.57825(16) 0.2746(3)
H1 H 0.3406 0.5989 0.2003
C2 C 0.3601(6) 0.61530(18) 0.3906(4)
H2 H 0.4081 0.6604 0.3946
C3 C 0.3287(5) 0.58526(18) 0.5011(4)
H3 H 0.3548 0.6098 0.5803
C4 C 0.2586(5) 0.51862(18) 0.4927(3)
H4 H 0.2362 0.4974 0.5660
C5 C 0.2215(4) 0.48337(15) 0.3731(3)
C6 C 0.1490(4) 0.41146(14) 0.3526(2)
C7 C 0.1099(6) 0.37081(18) 0.4491(3)
H5 H 0.1339 0.3873 0.5352
C8 C 0.0344(7) 0.3053(2) 0.4158(4)
H6 H 0.0099 0.2768 0.4802
C9 C -0.0042(6) 0.28215(17) 0.2900(4)
H7 H -0.0595 0.2386 0.2660
C10 C 0.0401(6) 0.32453(16) 0.1983(3)
H8 H 0.0150 0.3088 0.1116
Cu1 Cu 0.18449(6) 0.452469(17) 0.10260(3)
Cu2 Cu 0.46960(8) 0.31501(3) 0.08103(4)
N1 N 0.2178(5) 0.37577(13) -0.0130(2)
N2 N 0.1942(4) 0.38679(14) -0.1294(2)
N3 N 0.1722(7) 0.3953(2) -0.2388(3)
N4 N 0.1821(4) 0.52856(14) -0.0202(3)
N5 N 0.2845(4) 0.54376(15) -0.0861(3)
N6 N 0.3756(6) 0.5633(2) -0.1529(4)
N7 N 0.5851(5) 0.28568(18) -0.0574(3)
N8 N 0.5330(4) 0.25500(14) -0.1563(3)
N9 N 0.4892(6) 0.2243(2) -0.2528(4)
N10 N 0.1180(4) 0.38752(12) 0.2295(2)
N11 N 0.2512(4) 0.51317(12) 0.2655(2)
Cu1B Cu -0.18449(6) 0.547531(17) -0.10260(3)
Cu2C Cu 0.46960(8) 0.18499(3) -0.41897(4)
N4B N -0.1821(4) 0.47144(14) 0.0202(3)
N9C N 0.4892(6) 0.2757(2) 0.2472(4)
loop_
_geom_bond_atom_site_label_1
_geom_bond_atom_site_label_2
_geom_bond_site_symmetry_1
_geom_bond_site_symmetry_2
C1 H1 1_555 1_555
C2 C1 1_555 1_555
H2 C2 1_555 1_555
C3 C2 1_555 1_555
H3 C3 1_555 1_555
C4 C3 1_555 1_555
H4 C4 1_555 1_555
C5 C4 1_555 1_555
C6 C5 1_555 1_555
C7 C6 1_555 1_555
H5 C7 1_555 1_555
C8 C7 1_555 1_555
H6 C8 1_555 1_555
C9 C8 1_555 1_555
H7 C9 1_555 1_555
C10 C9 1_555 1_555
H8 C10 1_555 1_555
Cu1 N1 1_555 1_555
Cu2 N1 1_555 1_555
N1 N2 1_555 1_555
N2 N3 1_555 1_555
N4 Cu1 1_555 1_555
N5 N4 1_555 1_555
N6 N5 1_555 1_555
N7 Cu2 1_555 1_555
N8 N7 1_555 1_555
N9 N8 1_555 1_555
N10 C6 1_555 1_555
N11 C1 1_555 1_555
Cu1B N4 1_555 1_555
Cu2C N9 1_555 1_555
N4B Cu1 1_555 1_555
N9C Cu2 1_555 1_555
C5 N11 1_555 1_555
C10 N10 1_555 1_555
Cu1 N10 1_555 1_555
Cu1 N11 1_555 1_555
Cu1B N4B 1_555 1_555

#END
