
#######################################################################
#
#                 Cambridge Crystallographic Data Centre
#                                CCDC 
#
#######################################################################
#
# If this CIF has been generated from an entry in the Cambridge 
# Structural Database, then it will include bibliographic, chemical, 
# crystal, experimental, refinement or atomic coordinate data resulting 
# from the CCDC's data processing and validation procedures.
#
#######################################################################

data_MOHHUN
_symmetry_cell_setting           monoclinic
_symmetry_space_group_name_H-M   'P 21/c'
_symmetry_Int_Tables_number      14
_space_group_name_Hall           '-P 2ybc'
loop_
_symmetry_equiv_pos_site_id
_symmetry_equiv_pos_as_xyz
1 x,y,z
2 -x,1/2+y,1/2-z
3 -x,-y,-z
4 x,1/2-y,1/2+z
_cell_length_a                   9.0075(7)
_cell_length_b                   8.2037(6)
_cell_length_c                   11.9721(7)
_cell_angle_alpha                90
_cell_angle_beta                 131.358(4)
_cell_angle_gamma                90
_cell_volume                     664.034
loop_
_atom_site_label
_atom_site_type_symbol
_atom_site_fract_x
_atom_site_fract_y
_atom_site_fract_z
Ag1 Ag -0.33293(2) -0.677350(18) 0.609980(17)
P1 P -0.18867(7) -0.36011(6) 0.51125(6)
O1 O 0.0347(2) -0.38500(18) 0.64159(16)
O2 O -0.2535(2) -0.44425(17) 0.37094(16)
O3 O -0.3083(2) -0.39993(18) 0.55347(17)
N1 N -0.2980(2) 0.1243(2) 0.49882(19)
N2 N -0.2832(2) 0.0754(2) 0.31096(18)
C1 C -0.3104(3) 0.1711(2) 0.3859(2)
H1 H -0.3410 0.2810 0.3570
C2 C -0.2584(3) -0.0342(2) 0.5376(2)
H2 H -0.2498 -0.0712 0.6161
C3 C -0.2437(3) -0.0818(2) 0.3504(2)
H3 H -0.2246 -0.1523 0.2990
C4 C -0.2300(3) -0.1446(2) 0.4652(2)
Ag1C Ag -0.33293(2) 0.177350(18) 0.109980(17)
Ag1B Ag -0.66707(2) -0.322650(18) 0.390020(17)
Ag1_2 Ag -0.33293(2) 0.322650(18) 0.609980(17)
O3B O -0.6917(2) -0.60007(18) 0.44653(17)
N1_2 N -0.2980(2) -0.8757(2) 0.49882(19)
N2C N -0.2832(2) -0.5754(2) 0.81096(18)
loop_
_geom_bond_atom_site_label_1
_geom_bond_atom_site_label_2
_geom_bond_site_symmetry_1
_geom_bond_site_symmetry_2
Ag1 O3 1_555 1_555
P1 O1 1_555 1_555
O2 P1 1_555 1_555
O3 P1 1_555 1_555
N1 C1 1_555 1_555
N2 C1 1_555 1_555
C1 H1 1_555 1_555
C2 N1 1_555 1_555
H2 C2 1_555 1_555
C3 N2 1_555 1_555
H3 C3 1_555 1_555
C4 P1 1_555 1_555
Ag1C N2 1_555 1_555
Ag1B O3 1_555 1_555
Ag1_2 N1 1_555 1_555
O3B Ag1 1_555 1_555
N1_2 Ag1 1_555 1_555
N2C Ag1 1_555 1_555
C2 C4 1_555 1_555
C3 C4 1_555 1_555
Ag1B O3B 1_555 1_555

#END
