
#######################################################################
#
#                 Cambridge Crystallographic Data Centre
#                                CCDC 
#
#######################################################################
#
# If this CIF has been generated from an entry in the Cambridge 
# Structural Database, then it will include bibliographic, chemical, 
# crystal, experimental, refinement or atomic coordinate data resulting 
# from the CCDC's data processing and validation procedures.
#
#######################################################################

data_MOHJEZ
_symmetry_cell_setting           monoclinic
_symmetry_space_group_name_H-M   'P 21/c'
_symmetry_Int_Tables_number      14
_space_group_name_Hall           '-P 2ybc'
loop_
_symmetry_equiv_pos_site_id
_symmetry_equiv_pos_as_xyz
1 x,y,z
2 -x,1/2+y,1/2-z
3 -x,-y,-z
4 x,1/2-y,1/2+z
_cell_length_a                   13.9181(15)
_cell_length_b                   11.6269(13)
_cell_length_c                   18.8112(16)
_cell_angle_alpha                90
_cell_angle_beta                 116.025(6)
_cell_angle_gamma                90
_cell_volume                     2735.45
loop_
_atom_site_label
_atom_site_type_symbol
_atom_site_fract_x
_atom_site_fract_y
_atom_site_fract_z
Cu1 Cu -0.23613(3) -0.07326(3) 0.51320(2)
Cu2 Cu 0.23860(3) -0.42977(3) 0.49833(2)
P1 P 0.00311(6) -0.31037(6) 0.37363(4)
P2 P -0.46826(6) -0.19665(6) 0.41547(4)
O1 O 0.09592(15) -0.38274(17) 0.42601(12)
O2 O 0.02080(16) -0.18665(16) 0.36126(12)
O3 O -0.05588(16) -0.37290(18) 0.29166(12)
O4 O 0.25390(17) -0.51092(18) 0.39043(13)
O5 O 0.38394(16) -0.47397(17) 0.57108(13)
H1 H 0.4021 -0.5446 0.5792
O6 O -0.37811(15) -0.13546(18) 0.48185(13)
O7 O -0.50730(19) -0.12079(19) 0.33961(13)
O8 O -0.45172(16) -0.31843(17) 0.40199(13)
O9 O -0.20360(19) -0.1685(2) 0.63158(13)
H2 H -0.1572 -0.1606 0.6812
O10 O -0.08639(15) -0.01222(17) 0.56050(13)
O11 O -0.26942(18) 0.00344(18) 0.39148(13)
N1 N -0.18271(18) -0.42198(19) 0.47600(13)
N2 N -0.69943(18) -0.2814(2) 0.48138(14)
N3 N -0.70791(18) -0.07969(19) 0.46598(13)
N4 N -0.18309(18) -0.2186(2) 0.48046(14)
C1 C -0.1217(2) -0.4183(2) 0.43726(16)
H3 H -0.1006 -0.4877 0.4227
C2 C -0.0888(2) -0.3151(2) 0.41794(16)
C3 C -0.2103(2) -0.3215(2) 0.49633(17)
H4 H -0.2523 -0.3239 0.5241
C4 C -0.6185(2) -0.2853(2) 0.46048(17)
H5 H -0.5876 -0.3567 0.4593
C5 C -0.7399(2) -0.1787(2) 0.48400(17)
H6 H -0.7953 -0.1759 0.4998
C6 C -0.6283(2) -0.0841(2) 0.44375(16)
H7 H -0.6050 -0.0155 0.4299
C7 C -0.1230(2) -0.2158(2) 0.44052(16)
H8 H -0.1037 -0.1441 0.4276
C8 C -0.5797(2) -0.1869(2) 0.44068(16)
H9 H -0.0282 -0.4375 0.2934
H12 H -0.2658 -0.1981 0.6217
H13 H -0.0672 0.0499 0.5895
H14 H -0.0286 -0.0498 0.5734
H15 H -0.2198 0.0441 0.3807
H16 H -0.2939 -0.0400 0.3475
H17 H 0.1906 -0.5272 0.3503
H18 H 0.2852 -0.5573 0.3695
H19 H 0.4183 -0.4268 0.6162
H20 H -0.4847 -0.1422 0.3091
Cu1B Cu -0.76387(3) 0.07326(3) 0.48680(2)
Cu2B Cu -0.23860(3) -0.57023(3) 0.50167(2)
Cu2_2 Cu -0.76140(3) -0.42977(3) 0.49833(2)
N1B N 0.18271(18) -0.57802(19) 0.52400(13)
N2_2 N 0.30057(18) -0.2814(2) 0.48138(14)
N3B N -0.29209(18) 0.07969(19) 0.53402(13)
S1 S -0.87381(6) -0.26363(6) 0.62738(4)
F1 F -0.8567(2) -0.1987(3) 0.76387(16)
F2 F -0.70959(18) -0.1903(2) 0.75305(13)
F3 F -0.7731(2) -0.3533(3) 0.76674(14)
O12 O -0.90038(18) -0.1460(2) 0.60074(16)
O13 O -0.96522(17) -0.33300(19) 0.61682(13)
O14 O -0.79971(19) -0.31661(19) 0.60322(14)
C9 C -0.7989(3) -0.2511(4) 0.7339(2)
S2 S -0.60255(6) -0.70536(7) 0.29264(5)
F4 F -0.5368(2) -0.8920(2) 0.24977(14)
F5 F -0.66062(18) -0.91897(18) 0.28673(15)
F6 F -0.50087(18) -0.88317(19) 0.37285(12)
O15 O -0.6240(2) -0.6842(2) 0.35966(15)
O16 O -0.50224(19) -0.6559(2) 0.30011(13)
O17 O -0.6898(2) -0.6899(2) 0.21632(16)
C10 C -0.5731(3) -0.8591(3) 0.29989(19)
O18 O -0.96262(16) -0.56680(17) 0.28048(12)
H10 H -0.9824 -0.6046 0.2377
H11 H -0.9881 -0.6188 0.3014
loop_
_geom_bond_atom_site_label_1
_geom_bond_atom_site_label_2
_geom_bond_site_symmetry_1
_geom_bond_site_symmetry_2
Cu1 O6 1_555 1_555
Cu2 O1 1_555 1_555
S1 O12 1_555 1_555
P1 O1 1_555 1_555
P2 O6 1_555 1_555
F1 C9 1_555 1_555
F2 C9 1_555 1_555
F3 C9 1_555 1_555
O2 P1 1_555 1_555
O3 P1 1_555 1_555
O4 Cu2 1_555 1_555
O5 Cu2 1_555 1_555
H1 O5 1_555 1_555
O7 P2 1_555 1_555
O8 P2 1_555 1_555
O9 Cu1 1_555 1_555
H2 O9 1_555 1_555
O10 Cu1 1_555 1_555
O11 Cu1 1_555 1_555
O13 S1 1_555 1_555
O14 S1 1_555 1_555
N1 C1 1_555 1_555
N2 C4 1_555 1_555
N3 C5 1_555 1_555
N4 Cu1 1_555 1_555
C1 H3 1_555 1_555
C2 P1 1_555 1_555
C3 N1 1_555 1_555
H4 C3 1_555 1_555
C4 H5 1_555 1_555
C5 N2 1_555 1_555
H6 C5 1_555 1_555
C6 N3 1_555 1_555
H7 C6 1_555 1_555
C7 N4 1_555 1_555
H8 C7 1_555 1_555
C8 P2 1_555 1_555
C9 S1 1_555 1_555
S2 O15 1_555 1_555
F4 C10 1_555 1_555
F5 C10 1_555 1_555
F6 C10 1_555 1_555
O16 S2 1_555 1_555
O17 S2 1_555 1_555
C10 S2 1_555 1_555
O18 H10 1_555 1_555
H9 O3 1_555 1_555
H11 O18 1_555 1_555
H12 O9 1_555 1_555
H13 O10 1_555 1_555
H14 O10 1_555 1_555
H15 O11 1_555 1_555
H16 O11 1_555 1_555
H17 O4 1_555 1_555
H18 O4 1_555 1_555
H19 O5 1_555 1_555
H20 O7 1_555 1_555
Cu1B N3 1_555 1_555
Cu2B N1 1_555 1_555
Cu2_2 N2 1_555 1_555
N1B Cu2 1_555 1_555
N2_2 Cu2 1_555 1_555
N3B Cu1 1_555 1_555
N4 C3 1_555 1_555
C1 C2 1_555 1_555
C2 C7 1_555 1_555
C4 C8 1_555 1_555
C6 C8 1_555 1_555

#END
