
#######################################################################
#
#                 Cambridge Crystallographic Data Centre
#                                CCDC 
#
#######################################################################
#
# If this CIF has been generated from an entry in the Cambridge 
# Structural Database, then it will include bibliographic, chemical, 
# crystal, experimental, refinement or atomic coordinate data resulting 
# from the CCDC's data processing and validation procedures.
#
#######################################################################

data_MOHJID
_symmetry_cell_setting           orthorhombic
_symmetry_space_group_name_H-M   'P b c a'
_symmetry_Int_Tables_number      61
_space_group_name_Hall           '-P 2ac 2ab'
loop_
_symmetry_equiv_pos_site_id
_symmetry_equiv_pos_as_xyz
1 x,y,z
2 1/2-x,-y,1/2+z
3 1/2+x,1/2-y,-z
4 -x,1/2+y,1/2-z
5 -x,-y,-z
6 1/2+x,y,1/2-z
7 1/2-x,1/2+y,z
8 x,1/2-y,1/2+z
_cell_length_a                   12.701(6)
_cell_length_b                   7.208(4)
_cell_length_c                   15.998(8)
_cell_angle_alpha                90
_cell_angle_beta                 90
_cell_angle_gamma                90
_cell_volume                     1464.6
loop_
_atom_site_label
_atom_site_type_symbol
_atom_site_fract_x
_atom_site_fract_y
_atom_site_fract_z
Cd1 Cd -0.5000 0.0000 -0.5000
P1 P -0.36080(4) 0.24504(8) -0.15897(3)
O1 O -0.38856(13) 0.0340(2) -0.15359(10)
N1 N -0.36123(17) 0.5224(3) -0.38047(12)
C1 C -0.37603(17) 0.3017(3) -0.26860(13)
N2 N -0.42736(15) 0.2195(2) -0.40776(11)
C2 C -0.35199(18) 0.4771(3) -0.29943(14)
H1 H -0.3282 0.5681 -0.2618
C3 C -0.39903(19) 0.3905(3) -0.43030(14)
H2 H -0.4065 0.4208 -0.4871
C4 C -0.41426(18) 0.1760(3) -0.32671(14)
H3 H -0.4317 0.0557 -0.3088
O2 O -0.24718(13) 0.2761(2) -0.13600(10)
O3 O -0.44285(14) 0.3528(2) -0.11359(10)
O4 O -0.65552(15) 0.1629(2) -0.51278(12)
H4 H -0.680(3) 0.196(4) -0.471(2)
H5 H -0.656(3) 0.250(5) -0.548(2)
H6 H -0.329(3) -0.045(6) -0.152(3)
Cd1G Cd -0.5000 0.5000 0.0000
Cd1G_2 Cd -0.5000 -0.5000 -1.0000
P1D P -0.63920(4) -0.24504(8) -0.84103(3)
O1D O -0.61144(13) -0.0340(2) -0.84641(10)
N1D N -0.63877(17) -0.5224(3) -0.61953(12)
C1D C -0.62397(17) -0.3017(3) -0.73140(13)
N2D N -0.57264(15) -0.2195(2) -0.59224(11)
C2D C -0.64801(18) -0.4771(3) -0.70057(14)
H1D H -0.6718 -0.5681 -0.7382
C3D C -0.60097(19) -0.3905(3) -0.56970(14)
H2D H -0.5935 -0.4208 -0.5129
C4D C -0.58574(18) -0.1760(3) -0.67329(14)
H3D H -0.5683 -0.0557 -0.6912
O2D O -0.75282(13) -0.2761(2) -0.86400(10)
O3G O -0.44285(14) 0.1472(2) -0.61359(10)
O3C O -0.55715(14) -0.1472(2) -0.38641(10)
O3D O -0.55715(14) -0.3528(2) -0.88641(10)
O4D O -0.34448(15) -0.1629(2) -0.48722(12)
H4D H -0.320(3) -0.196(4) -0.529(2)
H5D H -0.344(3) -0.250(5) -0.452(2)
H6D H -0.671(3) 0.045(6) -0.848(3)
loop_
_geom_bond_atom_site_label_1
_geom_bond_atom_site_label_2
_geom_bond_site_symmetry_1
_geom_bond_site_symmetry_2
Cd1 N2 1_555 1_555
P1 O1 1_555 1_555
O1 H6 1_555 1_555
N1 C2 1_555 1_555
C1 P1 1_555 1_555
N2 C3 1_555 1_555
C2 C1 1_555 1_555
H1 C2 1_555 1_555
C3 N1 1_555 1_555
H2 C3 1_555 1_555
C4 C1 1_555 1_555
H3 C4 1_555 1_555
O2 P1 1_555 1_555
O3 P1 1_555 1_555
O4 Cd1 1_555 1_555
H4 O4 1_555 1_555
H5 O4 1_555 1_555
Cd1G O3 1_555 1_555
Cd1G_2 O3D 1_555 1_555
P1D O1D 1_555 1_555
O1D H6D 1_555 1_555
N1D C2D 1_555 1_555
C1D P1D 1_555 1_555
N2D Cd1 1_555 1_555
C2D C1D 1_555 1_555
H1D C2D 1_555 1_555
C3D N1D 1_555 1_555
H2D C3D 1_555 1_555
C4D C1D 1_555 1_555
H3D C4D 1_555 1_555
O2D P1D 1_555 1_555
O3G Cd1 1_555 1_555
O3C Cd1 1_555 1_555
O3D P1D 1_555 1_555
O4D Cd1 1_555 1_555
H4D O4D 1_555 1_555
H5D O4D 1_555 1_555
N2 C4 1_555 1_555
N2D C3D 1_555 1_555
N2D C4D 1_555 1_555

#END
