
#######################################################################
#
#                 Cambridge Crystallographic Data Centre
#                                CCDC 
#
#######################################################################
#
# If this CIF has been generated from an entry in the Cambridge 
# Structural Database, then it will include bibliographic, chemical, 
# crystal, experimental, refinement or atomic coordinate data resulting 
# from the CCDC's data processing and validation procedures.
#
#######################################################################

data_MOHKUQ
_symmetry_cell_setting           triclinic
_symmetry_space_group_name_H-M   'P -1'
_symmetry_Int_Tables_number      2
_space_group_name_Hall           '-P 1'
loop_
_symmetry_equiv_pos_site_id
_symmetry_equiv_pos_as_xyz
1 x,y,z
2 -x,-y,-z
_cell_length_a                   9.8622(3)
_cell_length_b                   10.0043(2)
_cell_length_c                   14.8619(4)
_cell_angle_alpha                83.7380(10)
_cell_angle_beta                 83.711(3)
_cell_angle_gamma                80.314(2)
_cell_volume                     1430.58
loop_
_atom_site_label
_atom_site_type_symbol
_atom_site_fract_x
_atom_site_fract_y
_atom_site_fract_z
Cd1 Cd 0.19708(3) 0.25144(3) 0.15921(2)
Cd2 Cd -0.00683(3) -0.00555(3) 0.31547(2)
C1 C 0.1292(4) 0.3291(4) 0.4121(3)
C2 C 0.0852(4) 0.4577(4) 0.3680(3)
H1 H 0.0335 0.4649 0.3185
C3 C 0.1178(4) 0.5735(4) 0.3969(3)
C4 C 0.1947(4) 0.5618(5) 0.4703(3)
H2 H 0.2166 0.6399 0.4902
C5 C 0.2405(4) 0.4344(4) 0.5153(3)
C6 C 0.2060(4) 0.3224(4) 0.4859(3)
H3 H 0.2348 0.2378 0.5161
C7 C 0.0920(4) 0.2069(4) 0.3787(3)
C8 C 0.0637(4) 0.7134(4) 0.3520(3)
C9 C 0.6248(4) 0.4151(4) 0.7730(3)
C10 C 0.6824(4) 0.2833(4) 0.8059(3)
H4 H 0.7505 0.2711 0.8460
C11 C 0.6366(4) 0.1688(4) 0.7780(3)
C12 C 0.5369(4) 0.1895(4) 0.7168(2)
H5 H 0.5062 0.1149 0.6982
C13 C 0.4829(4) 0.3183(4) 0.6832(3)
C14 C 0.5251(4) 0.4325(4) 0.7112(3)
H6 H 0.4870 0.5196 0.6888
C15 C 0.6781(4) 0.5366(5) 0.7982(3)
C16 C 0.7027(4) 0.0262(4) 0.8101(3)
C17 C 0.3018(4) 0.2446(4) -0.0789(3)
H7 H 0.3969 0.2173 -0.0805
C18 C 0.2278(4) 0.2682(4) -0.1528(3)
H8 H 0.2637 0.2598 -0.2128
C19 C 0.0889(4) 0.3048(4) -0.0311(3)
C20 C -0.0326(4) 0.3400(4) 0.0291(3)
C21 C -0.2413(4) 0.4074(4) 0.0916(2)
H9 H -0.3353 0.4405 0.0994
C22 C -0.1534(4) 0.3652(4) 0.1592(3)
H10 H -0.1779 0.3637 0.2215
C23 C -0.1305(4) 0.0383(4) 0.1038(3)
H11 H -0.0482 0.0197 0.0670
C24 C -0.2561(5) 0.0683(4) 0.0729(3)
H12 H -0.2761 0.0727 0.0128
C25 C -0.2727(4) 0.0747(4) 0.2193(3)
C26 C -0.3174(4) 0.0989(4) 0.3130(3)
C27 C -0.4322(4) 0.1597(4) 0.4391(3)
H13 H -0.5016 0.1944 0.4818
C28 C -0.3055(4) 0.1009(4) 0.4561(3)
H14 H -0.2717 0.0880 0.5130
N1 N 0.3203(3) 0.4373(3) 0.5929(2)
N2 N 0.3848(3) 0.3234(4) 0.6152(2)
N3 N -0.0214(3) 0.3254(3) 0.1171(2)
N4 N 0.2144(3) 0.2672(3) -0.0020(2)
N5 N -0.1618(3) 0.3907(3) 0.0108(2)
H15 H -0.1902 0.4097 -0.0425
N6 N 0.0926(4) 0.3061(3) -0.1239(2)
H16 H 0.0241 0.3265 -0.1567
N7 N -0.2311(3) 0.0618(4) 0.3761(2)
N8 N -0.1390(3) 0.0385(3) 0.1949(2)
N9 N -0.4436(3) 0.1605(3) 0.3478(2)
H17 H -0.5146 0.1928 0.3188
N10 N -0.3509(4) 0.0914(3) 0.1489(2)
H18 H -0.4394 0.1118 0.1503
O1 O 0.0679(3) 0.2098(3) 0.29625(18)
O2 O 0.0861(3) 0.1014(3) 0.43219(18)
O3 O -0.0128(3) 0.7232(3) 0.29095(17)
O4 O 0.1107(3) 0.8104(3) 0.37850(19)
O5 O 0.6243(3) 0.6531(3) 0.77064(18)
O6 O 0.7792(3) 0.5151(3) 0.84638(17)
O7 O 0.6331(3) -0.0682(3) 0.8147(2)
O8 O 0.8218(3) 0.0088(3) 0.82893(18)
Cd1A Cd 0.80292(3) 0.74856(3) 0.84079(2)
Cd1A_2 Cd 0.80292(3) -0.25144(3) 0.84079(2)
Cd2A Cd 1.00683(3) 0.00555(3) 0.68453(2)
Cd2_2 Cd -0.00683(3) 0.99445(3) 0.31547(2)
O4_2 O 0.1107(3) -0.1896(3) 0.37850(19)
O5A O 0.3757(3) 0.3469(3) 0.22936(18)
O6A O 0.2208(3) 0.4849(3) 0.15362(17)
O7A O 0.3669(3) 0.0682(3) 0.1853(2)
O8A O 0.1782(3) -0.0088(3) 0.17107(18)
loop_
_geom_bond_atom_site_label_1
_geom_bond_atom_site_label_2
_geom_bond_site_symmetry_1
_geom_bond_site_symmetry_2
Cd1 N3 1_555 1_555
Cd2 N7 1_555 1_555
C1 C2 1_555 1_555
C2 H1 1_555 1_555
C3 C2 1_555 1_555
C4 C3 1_555 1_555
H2 C4 1_555 1_555
C5 C4 1_555 1_555
C6 C1 1_555 1_555
H3 C6 1_555 1_555
C7 C1 1_555 1_555
C8 C3 1_555 1_555
C9 C10 1_555 1_555
C10 H4 1_555 1_555
C11 C10 1_555 1_555
C12 C11 1_555 1_555
H5 C12 1_555 1_555
C13 C12 1_555 1_555
C14 C9 1_555 1_555
H6 C14 1_555 1_555
C15 C9 1_555 1_555
C16 C11 1_555 1_555
C17 H7 1_555 1_555
C18 C17 1_555 1_555
H8 C18 1_555 1_555
C19 C20 1_555 1_555
C20 N3 1_555 1_555
C21 H9 1_555 1_555
C22 C21 1_555 1_555
H10 C22 1_555 1_555
C23 H11 1_555 1_555
C24 C23 1_555 1_555
H12 C24 1_555 1_555
C25 C26 1_555 1_555
C26 N7 1_555 1_555
C27 H13 1_555 1_555
C28 C27 1_555 1_555
H14 C28 1_555 1_555
N1 C5 1_555 1_555
N2 C13 1_555 1_555
N3 C22 1_555 1_555
N4 Cd1 1_555 1_555
N5 C20 1_555 1_555
H15 N5 1_555 1_555
N6 C18 1_555 1_555
H16 N6 1_555 1_555
N7 C28 1_555 1_555
N8 Cd2 1_555 1_555
N9 C26 1_555 1_555
H17 N9 1_555 1_555
N10 C24 1_555 1_555
H18 N10 1_555 1_555
O1 Cd1 1_555 1_555
O2 Cd2 1_555 1_555
O3 C8 1_555 1_555
O4 C8 1_555 1_555
O5 C15 1_555 1_555
O6 C15 1_555 1_555
O7 C16 1_555 1_555
O8 C16 1_555 1_555
Cd1A O5 1_555 1_555
Cd1A_2 O7 1_555 1_555
Cd2A O8 1_555 1_555
Cd2_2 O4 1_555 1_555
O4_2 Cd2 1_555 1_555
O5A Cd1 1_555 1_555
O6A Cd1 1_555 1_555
O7A Cd1 1_555 1_555
O8A Cd1 1_555 1_555
Cd2 O1 1_555 1_555
Cd2 O8A 1_555 1_555
C5 C6 1_555 1_555
C7 O1 1_555 1_555
C7 O2 1_555 1_555
C13 C14 1_555 1_555
C17 N4 1_555 1_555
C19 N4 1_555 1_555
C19 N6 1_555 1_555
C21 N5 1_555 1_555
C23 N8 1_555 1_555
C25 N8 1_555 1_555
C25 N10 1_555 1_555
C27 N9 1_555 1_555
N1 N2 1_555 1_555
O6 Cd1A 1_555 1_555
O8 Cd1A_2 1_555 1_555

#END
