
#######################################################################
#
#                 Cambridge Crystallographic Data Centre
#                                CCDC 
#
#######################################################################
#
# If this CIF has been generated from an entry in the Cambridge 
# Structural Database, then it will include bibliographic, chemical, 
# crystal, experimental, refinement or atomic coordinate data resulting 
# from the CCDC's data processing and validation procedures.
#
#######################################################################

data_MOHLEB
_symmetry_cell_setting           monoclinic
_symmetry_space_group_name_H-M   'C 2/c'
_symmetry_Int_Tables_number      15
_space_group_name_Hall           '-C 2yn'
loop_
_symmetry_equiv_pos_site_id
_symmetry_equiv_pos_as_xyz
1 x,y,z
2 1/2+x,1/2+y,z
3 -x,y,1/2-z
4 1/2-x,1/2+y,1/2-z
5 -x,-y,-z
6 1/2-x,1/2-y,-z
7 x,-y,1/2+z
8 1/2+x,1/2-y,1/2+z
_cell_length_a                   20.9780(3)
_cell_length_b                   13.1721(2)
_cell_length_c                   16.6474(4)
_cell_angle_alpha                90
_cell_angle_beta                 129.015(2)
_cell_angle_gamma                90
_cell_volume                     3574.18
loop_
_atom_site_label
_atom_site_type_symbol
_atom_site_fract_x
_atom_site_fract_y
_atom_site_fract_z
C1 C 0.1375(2) 0.6571(3) 0.6978(3)
C2 C 0.1099(3) 0.5641(3) 0.7029(3)
H1 H 0.0811 0.5214 0.6456
C3 C 0.1251(2) 0.5340(3) 0.7942(3)
C4 C 0.1673(2) 0.5974(3) 0.8802(3)
H2 H 0.1752 0.5790 0.9398
C5 C 0.1977(2) 0.6894(3) 0.8749(3)
C6 C 0.1833(3) 0.7198(3) 0.7858(3)
H3 H 0.2037 0.7815 0.7837
C7 C 0.1210(2) 0.6918(3) 0.5997(3)
C8 C 0.0959(2) 0.4319(3) 0.8005(3)
C9 C 0.1617(2) 0.8175(3) 0.3867(3)
H4 H 0.1823 0.7545 0.3879
C10 C 0.2011(2) 0.9059(3) 0.3898(3)
H5 H 0.2475 0.9012 0.3944
C11 C 0.1699(2) 0.9995(3) 0.3860(3)
H6 H 0.1942 1.0585 0.3861
C12 C 0.1007(2) 1.0050(3) 0.3820(3)
C13 C 0.0645(2) 1.0998(3) 0.3784(3)
H7 H 0.0870 1.1608 0.3788
C14 C -0.0019(2) 1.1006(3) 0.3745(3)
H8 H -0.0240 1.1625 0.3727
C15 C -0.0390(2) 1.0086(3) 0.3729(3)
C16 C -0.1090(2) 1.0058(3) 0.3679(3)
H9 H -0.1333 1.0658 0.3658
C17 C -0.1399(2) 0.9152(3) 0.3661(3)
H10 H -0.1859 0.9123 0.3627
C18 C -0.1022(2) 0.8251(3) 0.3696(3)
H11 H -0.1246 0.7635 0.3678
C19 C -0.0052(2) 0.9152(3) 0.3766(3)
C20 C 0.0658(2) 0.9132(3) 0.3809(3)
N1 N 0.2487(2) 0.7574(3) 0.9623(2)
N2 N -0.0360(2) 0.8236(2) 0.3753(3)
N3 N 0.0960(2) 0.8209(3) 0.3821(3)
O1 O 0.06529(16) 0.6405(2) 0.5178(2)
O2 O 0.15667(16) 0.7641(2) 0.5999(2)
O3 O 0.06871(16) 0.3706(2) 0.7270(2)
O4 O 0.10022(17) 0.4152(2) 0.8783(2)
Zn1 Zn 0.03716(3) 0.69732(3) 0.38886(3)
C1E C 0.3625(2) 0.8429(3) 1.3022(3)
C2E C 0.3901(3) 0.9359(3) 1.2971(3)
H1E H 0.4189 0.9786 1.3544
C3E C 0.3749(2) 0.9660(3) 1.2058(3)
C4E C 0.3327(2) 0.9026(3) 1.1198(3)
H2E H 0.3248 0.9210 1.0602
C5E C 0.3023(2) 0.8106(3) 1.1251(3)
C6E C 0.3167(3) 0.7802(3) 1.2142(3)
H3E H 0.2963 0.7185 1.2163
C7E C 0.3790(2) 0.8082(3) 1.4003(3)
C8E C 0.4041(2) 1.0681(3) 1.1995(3)
C9E C 0.3383(2) 0.6825(3) 1.6133(3)
H4E H 0.3177 0.7455 1.6121
C10E C 0.2989(2) 0.5941(3) 1.6102(3)
H5E H 0.2525 0.5988 1.6056
C11E C 0.3301(2) 0.5005(3) 1.6140(3)
H6E H 0.3058 0.4415 1.6139
C12E C 0.3993(2) 0.4950(3) 1.6180(3)
C13E C 0.4355(2) 0.4002(3) 1.6216(3)
H7E H 0.4130 0.3392 1.6212
C14E C 0.5019(2) 0.3994(3) 1.6255(3)
H8E H 0.5240 0.3375 1.6273
C15E C 0.5390(2) 0.4914(3) 1.6271(3)
C16E C 0.6090(2) 0.4942(3) 1.6321(3)
H9E H 0.6333 0.4342 1.6342
C17E C 0.6399(2) 0.5848(3) 1.6339(3)
H10E H 0.6859 0.5877 1.6373
C18E C 0.6022(2) 0.6749(3) 1.6304(3)
H11E H 0.6246 0.7365 1.6322
C19E C 0.5052(2) 0.5848(3) 1.6234(3)
C20E C 0.4342(2) 0.5868(3) 1.6191(3)
N1E N 0.2513(2) 0.7426(3) 1.0377(2)
N2E N 0.5360(2) 0.6764(2) 1.6247(3)
N3E N 0.4040(2) 0.6791(3) 1.6179(3)
O1E O 0.43471(16) 0.8595(2) 1.4822(2)
O2E O 0.34333(16) 0.7359(2) 1.4001(2)
O3E O 0.43129(16) 1.1294(2) 1.2730(2)
O3D O -0.06871(16) 0.6294(2) 0.2730(2)
O3A O 0.56871(16) 0.8706(2) 1.7270(2)
O4E O 0.39978(17) 1.0848(2) 1.1217(2)
O4F O 0.10022(17) 0.5848(2) 0.3783(2)
O4C O 0.39978(17) 0.9152(2) 1.6217(2)
Zn1E Zn 0.46284(3) 0.80268(3) 1.61114(3)
Zn1D Zn -0.03716(3) 0.30268(3) 0.61114(3)
Zn1F Zn 0.03716(3) 0.30268(3) 0.88886(3)
Zn1A Zn 0.53716(3) 1.19732(3) 1.38886(3)
Zn1C Zn 0.46284(3) 1.19732(3) 1.11114(3)
O5 O 0.0866(4) 0.5992(5) 1.0059(5)
H12 H 0.100(7) 0.540(9) 1.001(8)
H13 H 0.038(7) 0.612(8) 0.953(9)
loop_
_geom_bond_atom_site_label_1
_geom_bond_atom_site_label_2
_geom_bond_site_symmetry_1
_geom_bond_site_symmetry_2
C1 C2 1_555 1_555
C2 H1 1_555 1_555
C3 C2 1_555 1_555
C4 C3 1_555 1_555
H2 C4 1_555 1_555
C5 C4 1_555 1_555
C6 C1 1_555 1_555
H3 C6 1_555 1_555
C7 C1 1_555 1_555
C8 C3 1_555 1_555
C9 H4 1_555 1_555
C10 C9 1_555 1_555
H5 C10 1_555 1_555
C11 C10 1_555 1_555
H6 C11 1_555 1_555
C12 C11 1_555 1_555
C13 C12 1_555 1_555
H7 C13 1_555 1_555
C14 C13 1_555 1_555
H8 C14 1_555 1_555
C15 C14 1_555 1_555
C16 C15 1_555 1_555
H9 C16 1_555 1_555
C17 C16 1_555 1_555
H10 C17 1_555 1_555
C18 C17 1_555 1_555
H11 C18 1_555 1_555
C19 C15 1_555 1_555
C20 C12 1_555 1_555
N1 C5 1_555 1_555
N2 C18 1_555 1_555
N3 C9 1_555 1_555
O1 C7 1_555 1_555
O2 C7 1_555 1_555
O3 C8 1_555 1_555
O4 C8 1_555 1_555
O5 H12 1_555 1_555
H13 O5 1_555 1_555
Zn1 N2 1_555 1_555
C1E C2E 1_555 1_555
C2E H1E 1_555 1_555
C3E C2E 1_555 1_555
C4E C3E 1_555 1_555
H2E C4E 1_555 1_555
C5E C4E 1_555 1_555
C6E C1E 1_555 1_555
H3E C6E 1_555 1_555
C7E C1E 1_555 1_555
C8E C3E 1_555 1_555
C9E H4E 1_555 1_555
C10E C9E 1_555 1_555
H5E C10E 1_555 1_555
C11E C10E 1_555 1_555
H6E C11E 1_555 1_555
C12E C11E 1_555 1_555
C13E C12E 1_555 1_555
H7E C13E 1_555 1_555
C14E C13E 1_555 1_555
H8E C14E 1_555 1_555
C15E C14E 1_555 1_555
C16E C15E 1_555 1_555
H9E C16E 1_555 1_555
C17E C16E 1_555 1_555
H10E C17E 1_555 1_555
C18E C17E 1_555 1_555
H11E C18E 1_555 1_555
C19E C15E 1_555 1_555
C20E C12E 1_555 1_555
N1E N1 1_555 1_555
N2E C18E 1_555 1_555
N3E C9E 1_555 1_555
O1E C7E 1_555 1_555
O2E C7E 1_555 1_555
O3E C8E 1_555 1_555
O3D Zn1 1_555 1_555
O3A Zn1E 1_555 1_555
O4E C8E 1_555 1_555
O4F Zn1 1_555 1_555
O4C Zn1E 1_555 1_555
Zn1E N2E 1_555 1_555
Zn1D O3 1_555 1_555
Zn1F O4 1_555 1_555
Zn1A O3E 1_555 1_555
Zn1C O4E 1_555 1_555
C5 C6 1_555 1_555
C19 C20 1_555 1_555
C19 N2 1_555 1_555
C20 N3 1_555 1_555
N3 Zn1 1_555 1_555
O1 Zn1 1_555 1_555
C5E C6E 1_555 1_555
C5E N1E 1_555 1_555
C19E C20E 1_555 1_555
C19E N2E 1_555 1_555
C20E N3E 1_555 1_555
N3E Zn1E 1_555 1_555
O1E Zn1E 1_555 1_555

#END
