
#######################################################################
#
#                 Cambridge Crystallographic Data Centre
#                                CCDC 
#
#######################################################################
#
# If this CIF has been generated from an entry in the Cambridge 
# Structural Database, then it will include bibliographic, chemical, 
# crystal, experimental, refinement or atomic coordinate data resulting 
# from the CCDC's data processing and validation procedures.
#
#######################################################################

data_MOHLIF
_symmetry_cell_setting           monoclinic
_symmetry_space_group_name_H-M   'C 2/c'
_symmetry_Int_Tables_number      15
_space_group_name_Hall           '-C 2yn'
loop_
_symmetry_equiv_pos_site_id
_symmetry_equiv_pos_as_xyz
1 x,y,z
2 1/2+x,1/2+y,z
3 -x,y,1/2-z
4 1/2-x,1/2+y,1/2-z
5 -x,-y,-z
6 1/2-x,1/2-y,-z
7 x,-y,1/2+z
8 1/2+x,1/2-y,1/2+z
_cell_length_a                   30.264(4)
_cell_length_b                   5.8069(7)
_cell_length_c                   21.163(3)
_cell_angle_alpha                90
_cell_angle_beta                 112.1500(10)
_cell_angle_gamma                90
_cell_volume                     3444.71
loop_
_atom_site_label
_atom_site_type_symbol
_atom_site_fract_x
_atom_site_fract_y
_atom_site_fract_z
Zn1 Zn 0.0000 0.08886(11) 0.2500
Zn2 Zn 0.233718(15) 0.82219(7) 0.69744(2)
O1 O 0.00926(9) 0.2885(4) 0.32807(14)
O2 O 0.07216(10) 0.0804(5) 0.39019(14)
O3 O 0.16706(9) 0.7596(5) 0.64094(13)
O4 O 0.18536(10) 0.4176(5) 0.60877(14)
O5 O 0.26058(9) 0.6467(4) 0.77988(14)
H1 H 0.2777 0.7195 0.8142
N1 N -0.00347(12) 0.9300(6) 0.47561(17)
N2 N 0.05305(11) -0.1183(6) 0.24584(17)
N3 N 0.27162(10) 0.7764(5) 0.63557(15)
C1 C 0.05462(13) 0.4198(7) 0.43980(19)
C2 C 0.09773(14) 0.4068(7) 0.4961(2)
H2 H 0.1186 0.2849 0.5005
C3 C 0.10894(14) 0.5787(7) 0.5454(2)
C4 C 0.07672(13) 0.7543(7) 0.54007(19)
H3 H 0.0844 0.8695 0.5730
C5 C 0.03310(13) 0.7590(7) 0.4859(2)
C6 C 0.02230(13) 0.5913(6) 0.43486(19)
H4 H -0.0066 0.5960 0.3978
C7 C 0.04491(13) 0.2457(7) 0.3822(2)
C8 C 0.15785(13) 0.5818(7) 0.60322(19)
C9 C 0.07683(15) -0.0665(7) 0.2059(2)
H5 H 0.0696 0.0703 0.1812
C10 C 0.11218(14) -0.2094(8) 0.1996(2)
H6 H 0.1286 -0.1683 0.1719
C11 C 0.12184(14) -0.4117(7) 0.2354(2)
H7 H 0.1445 -0.5127 0.2313
C12 C 0.09802(15) -0.4654(7) 0.2775(2)
H8 H 0.1047 -0.6005 0.3030
C13 C 0.06395(15) -0.3137(7) 0.2807(2)
H9 H 0.0477 -0.3503 0.3090
C14 C 0.27370(15) 0.9354(7) 0.5922(2)
H10 H 0.2559 1.0693 0.5876
C15 C 0.30196(16) 0.9102(8) 0.5528(2)
H11 H 0.3029 1.0250 0.5227
C16 C 0.32790(15) 0.7132(7) 0.5599(2)
H12 H 0.3474 0.6938 0.5352
C17 C 0.32533(15) 0.5448(8) 0.6032(2)
H13 H 0.3424 0.4084 0.6077
C18 C 0.29647(14) 0.5814(7) 0.6408(2)
H14 H 0.2945 0.4666 0.6703
Zn1F Zn 0.0000 1.91114(11) 0.7500
Zn2D Zn -0.233718(15) 1.17781(7) 0.30256(2)
Zn2C Zn 0.266282(15) 0.32219(7) 0.80256(2)
Zn2C_2 Zn 0.266282(15) 1.32219(7) 0.80256(2)
O1D O -0.00926(9) 1.7115(4) 0.67193(14)
O1B O -0.00926(9) 0.2885(4) 0.17193(14)
O2D O -0.07216(10) 1.9196(5) 0.60981(14)
O3D O -0.16706(9) 1.2404(5) 0.35906(13)
O4D O -0.18536(10) 1.5824(5) 0.39123(14)
O5C O 0.23942(9) 1.1467(4) 0.72012(14)
O5G O -0.23942(9) 0.8533(4) 0.27988(14)
O5D O -0.26058(9) 1.3533(4) 0.22012(14)
H1C H 0.2223 1.2195 0.6858
H1G H -0.2223 0.7805 0.3142
H1D H -0.2777 1.2805 0.1858
N1D N 0.00347(12) 1.0700(6) 0.52439(17)
N2B N -0.05305(11) -0.1183(6) 0.25416(17)
N3D N -0.27162(10) 1.2236(5) 0.36443(15)
C1D C -0.05462(13) 1.5802(7) 0.56020(19)
C2D C -0.09773(14) 1.5932(7) 0.5039(2)
H2D H -0.1186 1.7151 0.4995
C3D C -0.10894(14) 1.4213(7) 0.4546(2)
C4D C -0.07672(13) 1.2457(7) 0.45993(19)
H3D H -0.0844 1.1305 0.4270
C5D C -0.03310(13) 1.2410(7) 0.5141(2)
C6D C -0.02230(13) 1.4087(6) 0.56514(19)
H4D H 0.0066 1.4040 0.6022
C7D C -0.04491(13) 1.7543(7) 0.6178(2)
C8D C -0.15785(13) 1.4182(7) 0.39678(19)
C9B C -0.07683(15) -0.0665(7) 0.2941(2)
H5B H -0.0696 0.0703 0.3188
C10B C -0.11218(14) -0.2094(8) 0.3004(2)
H6B H -0.1286 -0.1683 0.3281
C11B C -0.12184(14) -0.4117(7) 0.2646(2)
H7B H -0.1445 -0.5127 0.2687
C12B C -0.09802(15) -0.4654(7) 0.2225(2)
H8B H -0.1047 -0.6005 0.1970
C13B C -0.06395(15) -0.3137(7) 0.2193(2)
H9B H -0.0477 -0.3503 0.1910
C14D C -0.27370(15) 1.0646(7) 0.4078(2)
H10D H -0.2559 0.9307 0.4124
C15D C -0.30196(16) 1.0898(8) 0.4472(2)
H11D H -0.3029 0.9750 0.4773
C16D C -0.32790(15) 1.2868(7) 0.4401(2)
H12D H -0.3474 1.3062 0.4648
C17D C -0.32533(15) 1.4552(8) 0.3968(2)
H13D H -0.3424 1.5916 0.3923
C18D C -0.29647(14) 1.4186(7) 0.3592(2)
H14D H -0.2945 1.5334 0.3297
loop_
_geom_bond_atom_site_label_1
_geom_bond_atom_site_label_2
_geom_bond_site_symmetry_1
_geom_bond_site_symmetry_2
Zn1 O1 1_555 1_555
Zn2 O3 1_555 1_555
O1 C7 1_555 1_555
O2 C7 1_555 1_555
O3 C8 1_555 1_555
O4 C8 1_555 1_555
O5 Zn2 1_555 1_555
H1 O5 1_555 1_555
N1 C5 1_555 1_555
N2 Zn1 1_555 1_555
N3 Zn2 1_555 1_555
C1 C2 1_555 1_555
C2 H2 1_555 1_555
C3 C2 1_555 1_555
C4 C3 1_555 1_555
H3 C4 1_555 1_555
C5 C4 1_555 1_555
C6 C1 1_555 1_555
H4 C6 1_555 1_555
C7 C1 1_555 1_555
C8 C3 1_555 1_555
C9 N2 1_555 1_555
H5 C9 1_555 1_555
C10 C9 1_555 1_555
H6 C10 1_555 1_555
C11 C10 1_555 1_555
H7 C11 1_555 1_555
C12 C11 1_555 1_555
H8 C12 1_555 1_555
C13 N2 1_555 1_555
H9 C13 1_555 1_555
C14 N3 1_555 1_555
H10 C14 1_555 1_555
C15 C14 1_555 1_555
H11 C15 1_555 1_555
C16 C15 1_555 1_555
H12 C16 1_555 1_555
C17 C16 1_555 1_555
H13 C17 1_555 1_555
C18 N3 1_555 1_555
H14 C18 1_555 1_555
Zn1F O1D 1_555 1_555
Zn2D O3D 1_555 1_555
Zn2C O5 1_555 1_555
Zn2C_2 O5C 1_555 1_555
O1D C7D 1_555 1_555
O1B Zn1 1_555 1_555
O2D C7D 1_555 1_555
O3D C8D 1_555 1_555
O4D C8D 1_555 1_555
O5C Zn2 1_555 1_555
O5G Zn2D 1_555 1_555
O5D Zn2D 1_555 1_555
H1C O5C 1_555 1_555
H1G O5G 1_555 1_555
H1D O5D 1_555 1_555
N1D N1 1_555 1_555
N2B Zn1 1_555 1_555
N3D Zn2D 1_555 1_555
C1D C2D 1_555 1_555
C2D H2D 1_555 1_555
C3D C2D 1_555 1_555
C4D C3D 1_555 1_555
H3D C4D 1_555 1_555
C5D N1D 1_555 1_555
C6D C1D 1_555 1_555
H4D C6D 1_555 1_555
C7D C1D 1_555 1_555
C8D C3D 1_555 1_555
C9B N2B 1_555 1_555
H5B C9B 1_555 1_555
C10B C9B 1_555 1_555
H6B C10B 1_555 1_555
C11B C10B 1_555 1_555
H7B C11B 1_555 1_555
C12B C11B 1_555 1_555
H8B C12B 1_555 1_555
C13B N2B 1_555 1_555
H9B C13B 1_555 1_555
C14D N3D 1_555 1_555
H10D C14D 1_555 1_555
C15D C14D 1_555 1_555
H11D C15D 1_555 1_555
C16D C15D 1_555 1_555
H12D C16D 1_555 1_555
C17D C16D 1_555 1_555
H13D C17D 1_555 1_555
C18D N3D 1_555 1_555
H14D C18D 1_555 1_555
C5 C6 1_555 1_555
C12 C13 1_555 1_555
C17 C18 1_555 1_555
C4D C5D 1_555 1_555
C5D C6D 1_555 1_555
C12B C13B 1_555 1_555
C17D C18D 1_555 1_555

#END
