
#######################################################################
#
#                 Cambridge Crystallographic Data Centre
#                                CCDC 
#
#######################################################################
#
# If this CIF has been generated from an entry in the Cambridge 
# Structural Database, then it will include bibliographic, chemical, 
# crystal, experimental, refinement or atomic coordinate data resulting 
# from the CCDC's data processing and validation procedures.
#
#######################################################################

data_MOHMIG
_symmetry_cell_setting           monoclinic
_symmetry_space_group_name_H-M   'C 2/c'
_symmetry_Int_Tables_number      15
_space_group_name_Hall           '-C 2yn'
loop_
_symmetry_equiv_pos_site_id
_symmetry_equiv_pos_as_xyz
1 x,y,z
2 1/2+x,1/2+y,z
3 -x,y,1/2-z
4 1/2-x,1/2+y,1/2-z
5 -x,-y,-z
6 1/2-x,1/2-y,-z
7 x,-y,1/2+z
8 1/2+x,1/2-y,1/2+z
_cell_length_a                   17.302(8)
_cell_length_b                   13.499(7)
_cell_length_c                   13.768(6)
_cell_angle_alpha                90
_cell_angle_beta                 102.085(16)
_cell_angle_gamma                90
_cell_volume                     3144.38
loop_
_atom_site_label
_atom_site_type_symbol
_atom_site_fract_x
_atom_site_fract_y
_atom_site_fract_z
C1 C 0.3525(4) -0.0409(6) 0.3383(6)
H1 H 0.3296 0.0212 0.3405
C2 C 0.3187(4) -0.1177(6) 0.2832(6)
H2 H 0.2691 -0.1184 0.2411
C3 C 0.4346(4) -0.1620(5) 0.3652(5)
H3 H 0.4793 -0.2003 0.3889
C4 C 0.3580(4) -0.2967(5) 0.2678(6)
H4 H 0.4087 -0.3290 0.2724
H5 H 0.3308 -0.2975 0.1986
C5 C 0.3099(4) -0.3540(5) 0.3287(6)
H6 H 0.3104 -0.4241 0.3132
H7 H 0.3318 -0.3454 0.3990
C6 C 0.1813(4) -0.3574(5) 0.3641(6)
H8 H 0.1988 -0.3363 0.4325
H9 H 0.1832 -0.4292 0.3621
C7 C 0.0987(4) -0.3223(5) 0.3244(6)
H10 H 0.0852 -0.3346 0.2535
H11 H 0.0627 -0.3607 0.3549
C8 C 0.1073(5) -0.1354(6) 0.2921(6)
H12 H 0.1310 -0.1368 0.2374
C9 C 0.0870(4) -0.0554(6) 0.3363(6)
H13 H 0.0946 0.0095 0.3179
C10 C 0.0536(4) -0.1794(5) 0.4141(5)
H14 H 0.0334 -0.2182 0.4588
C11 C 0.8950(3) -0.1390(4) 0.5074(5)
C12 C 0.8202(3) -0.1986(4) 0.4968(5)
C13 C 0.7498(3) -0.1475(4) 0.4956(4)
H15 H 0.7495 -0.0787 0.4919
C14 C 0.6797(3) -0.1976(4) 0.4999(5)
C15 C 0.8928(3) -0.3596(5) 0.4915(5)
N1 N 0.4267(3) -0.0686(4) 0.3915(4)
N2 N 0.3711(3) -0.1946(4) 0.3006(4)
N3 N 0.0868(3) -0.2162(4) 0.3424(5)
N4 N 0.0527(3) -0.0831(4) 0.4140(4)
O1 O 0.2313(3) -0.3166(3) 0.3043(4)
O2 O 0.8948(2) -0.0672(3) 0.4460(4)
O3 O 0.5488(2) -0.3416(3) 0.4242(3)
O4 O 0.9067(2) -0.4394(3) 0.5430(4)
O5 O 0.9327(2) -0.3336(3) 0.4314(3)
Cu1 Cu 0.5000 0.0000 0.5000
Cu2 Cu 0.0000 0.0000 0.5000
C1D C 0.6475(4) 0.0409(6) 0.6617(6)
H1D H 0.6704 -0.0212 0.6595
C2D C 0.6813(4) 0.1177(6) 0.7168(6)
H2D H 0.7309 0.1184 0.7589
C3D C 0.5654(4) 0.1620(5) 0.6348(5)
H3D H 0.5207 0.2003 0.6111
C4D C 0.6420(4) 0.2967(5) 0.7322(6)
H4D H 0.5913 0.3290 0.7276
H5D H 0.6692 0.2975 0.8014
C5D C 0.6901(4) 0.3540(5) 0.6713(6)
H6D H 0.6896 0.4241 0.6868
H7D H 0.6682 0.3454 0.6010
C6D C 0.8187(4) 0.3574(5) 0.6359(6)
H8D H 0.8012 0.3363 0.5675
H9D H 0.8168 0.4292 0.6379
C7D C 0.9013(4) 0.3223(5) 0.6756(6)
H10D H 0.9148 0.3346 0.7465
H11D H 0.9373 0.3607 0.6451
C8D C 0.8927(5) 0.1354(6) 0.7079(6)
H12D H 0.8690 0.1368 0.7626
C9D C 0.9130(4) 0.0554(6) 0.6637(6)
H13D H 0.9054 -0.0095 0.6821
C10D C 0.9464(4) 0.1794(5) 0.5859(5)
H14D H 0.9666 0.2182 0.5412
C11E C 0.6050(3) -0.3610(4) 0.4926(5)
C12E C 0.6798(3) -0.3014(4) 0.5032(5)
C13E C 0.7502(3) -0.3525(4) 0.5044(4)
H15E H 0.7505 -0.4213 0.5081
C14E C 0.8203(3) -0.3024(4) 0.5001(5)
C15E C 0.6072(3) -0.1404(5) 0.5085(5)
N1D N 0.5733(3) 0.0686(4) 0.6085(4)
N2D N 0.6289(3) 0.1946(4) 0.6994(4)
N3D N 0.9132(3) 0.2162(4) 0.6576(5)
N4D N 0.9473(3) 0.0831(4) 0.5860(4)
N4D_2 N -0.0527(3) 0.0831(4) 0.5860(4)
O1D O 0.7687(3) 0.3166(3) 0.6957(4)
O2E O 0.6052(2) -0.4328(3) 0.5540(4)
O2D O 0.1052(2) 0.0672(3) 0.5540(4)
O2_2 O -0.1052(2) -0.0672(3) 0.4460(4)
O3E O 0.9512(2) -0.1584(3) 0.5758(3)
O3A O 0.0488(2) 0.1584(3) 0.4242(3)
O3E_2 O -0.0488(2) -0.1584(3) 0.5758(3)
O4A O 0.4067(2) 0.0606(3) 0.5430(4)
O4E O 0.5933(2) -0.0606(3) 0.4570(4)
O5E O 0.5673(2) -0.1664(3) 0.5686(3)
Cu1A Cu 1.0000 -0.5000 0.5000
Cu2_2 Cu 1.0000 0.0000 0.5000
Cu2A Cu 0.5000 -0.5000 0.5000
loop_
_geom_bond_atom_site_label_1
_geom_bond_atom_site_label_2
_geom_bond_site_symmetry_1
_geom_bond_site_symmetry_2
C1 H1 1_555 1_555
C2 C1 1_555 1_555
H2 C2 1_555 1_555
C3 H3 1_555 1_555
C4 H4 1_555 1_555
H5 C4 1_555 1_555
C5 C4 1_555 1_555
H6 C5 1_555 1_555
H7 C5 1_555 1_555
C6 H8 1_555 1_555
H9 C6 1_555 1_555
C7 C6 1_555 1_555
H10 C7 1_555 1_555
H11 C7 1_555 1_555
C8 H12 1_555 1_555
C9 C8 1_555 1_555
H13 C9 1_555 1_555
C10 H14 1_555 1_555
C11 C12 1_555 1_555
C12 C13 1_555 1_555
C13 H15 1_555 1_555
C14 C13 1_555 1_555
C15 O4 1_555 1_555
N1 C1 1_555 1_555
N2 C2 1_555 1_555
N3 C7 1_555 1_555
N4 C9 1_555 1_555
O1 C5 1_555 1_555
O2 C11 1_555 1_555
O3 C11E 1_555 1_555
O4 Cu1A 1_555 1_555
O5 C15 1_555 1_555
Cu1 N1 1_555 1_555
Cu2 N4 1_555 1_555
C1D H1D 1_555 1_555
C2D C1D 1_555 1_555
H2D C2D 1_555 1_555
C3D H3D 1_555 1_555
C4D H4D 1_555 1_555
H5D C4D 1_555 1_555
C5D C4D 1_555 1_555
H6D C5D 1_555 1_555
H7D C5D 1_555 1_555
C6D H8D 1_555 1_555
H9D C6D 1_555 1_555
C7D C6D 1_555 1_555
H10D C7D 1_555 1_555
H11D C7D 1_555 1_555
C8D H12D 1_555 1_555
C9D C8D 1_555 1_555
H13D C9D 1_555 1_555
C10D H14D 1_555 1_555
C11E C12E 1_555 1_555
C12E C14 1_555 1_555
C13E C12E 1_555 1_555
H15E C13E 1_555 1_555
C14E C12 1_555 1_555
C15E C14 1_555 1_555
N1D Cu1 1_555 1_555
N2D C2D 1_555 1_555
N3D C7D 1_555 1_555
N4D C9D 1_555 1_555
N4D_2 Cu2 1_555 1_555
O1D C5D 1_555 1_555
O2E C11E 1_555 1_555
O2D Cu2 1_555 1_555
O2_2 Cu2 1_555 1_555
O3E C11 1_555 1_555
O3A Cu2 1_555 1_555
O3E_2 Cu2 1_555 1_555
O4A Cu1 1_555 1_555
O4E Cu1 1_555 1_555
O5E C15E 1_555 1_555
Cu2_2 O2 1_555 1_555
Cu2A O3 1_555 1_555
C3 N1 1_555 1_555
C3 N2 1_555 1_555
C4 N2 1_555 1_555
C6 O1 1_555 1_555
C8 N3 1_555 1_555
C10 N3 1_555 1_555
C10 N4 1_555 1_555
C15 C14E 1_555 1_555
C1D N1D 1_555 1_555
C3D N1D 1_555 1_555
C3D N2D 1_555 1_555
C4D N2D 1_555 1_555
C6D O1D 1_555 1_555
C8D N3D 1_555 1_555
C10D N3D 1_555 1_555
C10D N4D 1_555 1_555
C13E C14E 1_555 1_555
C15E O4E 1_555 1_555
N4D Cu2_2 1_555 1_555
O2E Cu2A 1_555 1_555
O3E Cu2_2 1_555 1_555

#END
