
#######################################################################
#
#                 Cambridge Crystallographic Data Centre
#                                CCDC 
#
#######################################################################
#
# If this CIF has been generated from an entry in the Cambridge 
# Structural Database, then it will include bibliographic, chemical, 
# crystal, experimental, refinement or atomic coordinate data resulting 
# from the CCDC's data processing and validation procedures.
#
#######################################################################

data_MOHNEC
_symmetry_cell_setting           monoclinic
_symmetry_space_group_name_H-M   'C 2'
_symmetry_Int_Tables_number      5
_space_group_name_Hall           'C 2y'
loop_
_symmetry_equiv_pos_site_id
_symmetry_equiv_pos_as_xyz
1 x,y,z
2 -x,y,-z
3 1/2+x,1/2+y,z
4 1/2-x,1/2+y,-z
_cell_length_a                   19.847(4)
_cell_length_b                   14.801(3)
_cell_length_c                   6.8670(14)
_cell_angle_alpha                90
_cell_angle_beta                 94.35(3)
_cell_angle_gamma                90
_cell_volume                     2011.41
loop_
_atom_site_label
_atom_site_type_symbol
_atom_site_fract_x
_atom_site_fract_y
_atom_site_fract_z
Pt1 Pt 0.48029(6) 0.5287(13) 0.23617(13)
N1 N 0.5711(7) 0.4890(16) 0.277(3)
C1 C 0.5867(11) 0.3976(16) 0.294(3)
H1 H 0.5528 0.3546 0.2726
C2 C 0.6530(13) 0.3706(18) 0.342(4)
H2 H 0.6634 0.3095 0.3532
C3 C 0.7036(9) 0.435(2) 0.374(4)
H3 H 0.7479 0.4169 0.4061
C4 C 0.6880(8) 0.526(2) 0.357(3)
H4 H 0.7219 0.5694 0.3785
C5 C 0.6218(10) 0.5534(16) 0.309(3)
N2 N 0.5305(8) 0.6468(16) 0.261(3)
C6 C 0.6003(8) 0.6446(17) 0.299(3)
C7 C 0.6362(7) 0.725(2) 0.328(4)
H5 H 0.6829 0.7232 0.3537
C8 C 0.6023(11) 0.8070(17) 0.320(4)
H6 H 0.6264 0.8606 0.3392
C9 C 0.5326(11) 0.8092(16) 0.282(3)
H7 H 0.5099 0.8643 0.2760
C10 C 0.4966(7) 0.7291(18) 0.253(3)
N3 N 0.4078(11) 0.6318(16) 0.203(3)
C11 C 0.4298(10) 0.7209(17) 0.201(4)
C12 C 0.3830(14) 0.7909(16) 0.183(4)
H8 H 0.3977 0.8505 0.1817
C13 C 0.3143(12) 0.772(2) 0.168(5)
H9 H 0.2830 0.8186 0.1561
C14 C 0.2922(9) 0.683(3) 0.170(6)
H10 H 0.2462 0.6698 0.1601
C15 C 0.3390(12) 0.6126(19) 0.188(5)
H11 H 0.3243 0.5530 0.1896
C16 C 0.4081(15) 0.3435(15) 0.194(4)
C17 C 0.4385 0.4136 0.2155
C18 C 0.386(4) 0.253(2) 0.195(11)
C19 C 0.376(2) 0.171(2) 0.186(8)
H12 H 0.3683 0.1089 0.1792
Pt1A Pt 0.51971(6) 0.5287(13) -0.23617(13)
Pt1A_2 Pt 0.51971(6) 0.5287(13) 0.76383(13)
S1 S 0.1662(6) 0.5860(15) 0.2679(19)
O1 O 0.1982(17) 0.660(2) 0.374(4)
O2 O 0.1728(18) 0.4957(18) 0.349(4)
O3 O 0.168(2) 0.590(3) 0.057(3)
C20 C 0.0763(12) 0.604(3) 0.316(5)
F1 F 0.078(5) 0.602(4) 0.516(5)
F2 F 0.041(2) 0.533(3) 0.226(6)
F3 F 0.059(2) 0.687(2) 0.235(5)
loop_
_geom_bond_atom_site_label_1
_geom_bond_atom_site_label_2
_geom_bond_site_symmetry_1
_geom_bond_site_symmetry_2
Pt1 N1 1_555 1_555
N1 C1 1_555 1_555
C1 H1 1_555 1_555
C2 C1 1_555 1_555
H2 C2 1_555 1_555
C3 C2 1_555 1_555
H3 C3 1_555 1_555
C4 C3 1_555 1_555
H4 C4 1_555 1_555
C5 N1 1_555 1_555
N2 Pt1 1_555 1_555
C6 C5 1_555 1_555
C7 C6 1_555 1_555
H5 C7 1_555 1_555
C8 C7 1_555 1_555
H6 C8 1_555 1_555
C9 C8 1_555 1_555
H7 C9 1_555 1_555
C10 N2 1_555 1_555
N3 Pt1 1_555 1_555
C11 C10 1_555 1_555
C12 C11 1_555 1_555
H8 C12 1_555 1_555
C13 C12 1_555 1_555
H9 C13 1_555 1_555
C14 C13 1_555 1_555
H10 C14 1_555 1_555
C15 N3 1_555 1_555
H11 C15 1_555 1_555
C16 C17 1_555 1_555
C17 Pt1 1_555 1_555
C18 C16 1_555 1_555
C19 C18 1_555 1_555
H12 C19 1_555 1_555
S1 O1 1_555 1_555
O2 S1 1_555 1_555
O3 S1 1_555 1_555
C20 S1 1_555 1_555
F1 C20 1_555 1_555
F2 C20 1_555 1_555
F3 C20 1_555 1_555
Pt1A Pt1 1_555 1_555
Pt1A_2 Pt1 1_555 1_555
C4 C5 1_555 1_555
N2 C6 1_555 1_555
C9 C10 1_555 1_555
N3 C11 1_555 1_555
C14 C15 1_555 1_555

#END
