
#######################################################################
#
#                 Cambridge Crystallographic Data Centre
#                                CCDC 
#
#######################################################################
#
# If this CIF has been generated from an entry in the Cambridge 
# Structural Database, then it will include bibliographic, chemical, 
# crystal, experimental, refinement or atomic coordinate data resulting 
# from the CCDC's data processing and validation procedures.
#
#######################################################################

data_MOJCUJ
_symmetry_cell_setting           monoclinic
_symmetry_space_group_name_H-M   'C 2/c'
_symmetry_Int_Tables_number      15
_space_group_name_Hall           '-C 2yn'
loop_
_symmetry_equiv_pos_site_id
_symmetry_equiv_pos_as_xyz
1 x,y,z
2 x,-y,1/2+z
3 1/2+x,1/2+y,z
4 1/2+x,1/2-y,1/2+z
5 -x,-y,-z
6 -x,y,1/2-z
7 1/2-x,1/2-y,-z
8 1/2-x,1/2+y,1/2-z
_cell_length_a                   30.149(5)
_cell_length_b                   12.910(7)
_cell_length_c                   16.530(1)
_cell_angle_alpha                90
_cell_angle_beta                 121.575(2)
_cell_angle_gamma                90
_cell_volume                     5481.37
loop_
_atom_site_label
_atom_site_type_symbol
_atom_site_fract_x
_atom_site_fract_y
_atom_site_fract_z
Ag1 Ag 0.41177(1) -0.31055(2) 0.45766(2)
Ag2 Ag 0.48091(1) -0.18959(2) 0.31678(2)
F1 F 0.3452(1) 0.0527(2) 0.3119(2)
F2 F 0.3035(1) -0.0732(4) 0.2174(4)
F3 F 0.3324(2) -0.0907(4) 0.3621(4)
F4 F 0.6838(2) -0.2431(8) 0.4619(4)
F5 F 0.6695(2) -0.0908(5) 0.4853(4)
F6 F 0.6631(1) -0.2115(3) 0.5613(2)
O1 O 0.50969(9) -0.3058(2) 0.4915(2)
O2 O 0.44009(8) -0.4067(2) 0.3488(2)
O3 O 0.33653(8) -0.4101(2) 0.3015(2)
O4 O 0.31385(9) -0.3201(2) 0.4306(2)
O5 O 0.38022(9) -0.2043(2) 0.5661(2)
O6 O 0.4807(1) -0.1861(2) 0.5990(2)
O7 O 0.4110(1) -0.1749(2) 0.3601(2)
O8 O 0.4141(1) -0.0438(2) 0.2779(3)
O9 O 0.5652(1) -0.1549(2) 0.4166(2)
O10 O 0.5864(1) -0.2481(2) 0.3267(2)
C1 C 0.5282(1) -0.3893(2) 0.4671(2)
C2 C 0.5795(1) -0.4193(3) 0.5104(3)
C3 C 0.5930(1) -0.5041(3) 0.4751(3)
C4 C 0.5555(2) -0.5595(3) 0.3990(3)
C5 C 0.5028(1) -0.5307(3) 0.3550(3)
C6 C 0.4893(1) -0.4453(2) 0.3877(2)
C7 C 0.3994(1) -0.4536(3) 0.2622(2)
C8 C 0.3502(1) -0.3948(3) 0.2316(2)
C9 C 0.2873(1) -0.3659(3) 0.2735(2)
C10 C 0.2774(1) -0.3828(3) 0.3525(3)
C11 C 0.3109(1) -0.3219(3) 0.5113(3)
C12 C 0.2759(2) -0.3800(3) 0.5218(3)
C13 C 0.2772(2) -0.3733(4) 0.6083(4)
C14 C 0.3124(2) -0.3102(4) 0.6794(3)
C15 C 0.3474(2) -0.2520(4) 0.6689(3)
C16 C 0.3473(1) -0.2567(3) 0.5849(2)
C17 C 0.4189(2) -0.1394(3) 0.6398(3)
C18 C 0.4534(2) -0.0997(3) 0.6068(3)
C19 C 0.5189(1) -0.1532(3) 0.5783(3)
C20 C 0.5467(1) -0.2468(3) 0.5729(2)
C21 C 0.3940(1) -0.0939(2) 0.3149(2)
C22 C 0.3434(2) -0.0487(3) 0.2984(4)
C23 C 0.5954(1) -0.1990(3) 0.3976(3)
C24 C 0.6536(2) -0.1885(5) 0.4758(3)
H1 H 0.607(2) -0.383(4) 0.563(3)
H2 H 0.630(2) -0.519(3) 0.506(3)
H3 H 0.563(2) -0.615(4) 0.374(3)
H4 H 0.477(2) -0.567(4) 0.304(3)
H5 H 0.408(2) -0.444(3) 0.214(3)
H6 H 0.395(2) -0.529(4) 0.273(3)
H7 H 0.354(2) -0.319(4) 0.225(3)
H8 H 0.324(2) -0.425(3) 0.174(3)
H9 H 0.284(2) -0.289(4) 0.260(3)
H10 H 0.262(2) -0.399(4) 0.217(3)
H11 H 0.245(2) -0.366(4) 0.337(3)
H12 H 0.284(2) -0.459(4) 0.374(3)
H13 H 0.253(2) -0.420(4) 0.475(3)
H14 H 0.252(2) -0.407(4) 0.611(3)
H15 H 0.313(2) -0.313(3) 0.734(3)
H16 H 0.371(2) -0.205(3) 0.722(3)
H17 H 0.404(2) -0.085(4) 0.651(3)
H18 H 0.436(2) -0.172(4) 0.694(4)
H19 H 0.475(2) -0.048(4) 0.652(3)
H20 H 0.434(2) -0.065(4) 0.552(3)
H21 H 0.544(2) -0.114(4) 0.630(3)
H22 H 0.502(2) -0.119(4) 0.519(3)
H23 H 0.560(2) -0.287(4) 0.629(3)
H24 H 0.574(2) -0.225(4) 0.566(3)
C3D C 0.4070(1) -0.4959(3) 0.5249(3)
C4D C 0.4445(2) -0.4405(3) 0.6010(3)
Ag2E Ag 0.51909(1) -0.18959(2) 0.18322(2)
O10E O 0.4136(1) -0.2481(2) 0.1733(2)
Ag1D Ag 0.58823(1) -0.68945(2) 0.54234(2)
H2D H 0.370(2) -0.481(3) 0.494(3)
H3D H 0.437(2) -0.385(4) 0.626(3)
loop_
_geom_bond_atom_site_label_1
_geom_bond_atom_site_label_2
_geom_bond_site_symmetry_1
_geom_bond_site_symmetry_2
Ag1 O1 1_555 1_555
Ag2 O7 1_555 1_555
F1 C22 1_555 1_555
F2 C22 1_555 1_555
F3 C22 1_555 1_555
F4 C24 1_555 1_555
F5 C24 1_555 1_555
F6 C24 1_555 1_555
O1 C1 1_555 1_555
O2 Ag1 1_555 1_555
O3 Ag1 1_555 1_555
O4 Ag1 1_555 1_555
O5 Ag1 1_555 1_555
O6 Ag1 1_555 1_555
O7 Ag1 1_555 1_555
O8 Ag2 1_555 1_555
O9 Ag2 1_555 1_555
O10 C23 1_555 1_555
C1 C2 1_555 1_555
C2 C3 1_555 1_555
C3 C4 1_555 1_555
C4 C5 1_555 1_555
C5 C6 1_555 1_555
C6 O2 1_555 1_555
C7 O2 1_555 1_555
C8 O3 1_555 1_555
C9 O3 1_555 1_555
C10 O4 1_555 1_555
C11 O4 1_555 1_555
C12 C11 1_555 1_555
C13 C12 1_555 1_555
C14 C13 1_555 1_555
C15 C14 1_555 1_555
C16 O5 1_555 1_555
C17 O5 1_555 1_555
C18 O6 1_555 1_555
C19 O6 1_555 1_555
C20 O1 1_555 1_555
C21 O7 1_555 1_555
C22 C21 1_555 1_555
C23 O9 1_555 1_555
C24 C23 1_555 1_555
H1 C2 1_555 1_555
H2 C3 1_555 1_555
H3 C4 1_555 1_555
H4 C5 1_555 1_555
H5 C7 1_555 1_555
H6 C7 1_555 1_555
H7 C8 1_555 1_555
H8 C8 1_555 1_555
H9 C9 1_555 1_555
H10 C9 1_555 1_555
H11 C10 1_555 1_555
H12 C10 1_555 1_555
H13 C12 1_555 1_555
H14 C13 1_555 1_555
H15 C14 1_555 1_555
H16 C15 1_555 1_555
H17 C17 1_555 1_555
H18 C17 1_555 1_555
H19 C18 1_555 1_555
H20 C18 1_555 1_555
H21 C19 1_555 1_555
H22 C19 1_555 1_555
H23 C20 1_555 1_555
H24 C20 1_555 1_555
C3D Ag1 1_555 1_555
C4D Ag1 1_555 1_555
Ag2E Ag2 1_555 1_555
O10E Ag2 1_555 1_555
Ag1D C3 1_555 1_555
H2D C3D 1_555 1_555
H3D C4D 1_555 1_555
O8 C21 1_555 1_555
O10 Ag2E 1_555 1_555
C1 C6 1_555 1_555
C4 Ag1D 1_555 1_555
C7 C8 1_555 1_555
C9 C10 1_555 1_555
C11 C16 1_555 1_555
C15 C16 1_555 1_555
C17 C18 1_555 1_555
C19 C20 1_555 1_555
C3D C4D 1_555 1_555

#END
