
#######################################################################
#
#                 Cambridge Crystallographic Data Centre
#                                CCDC 
#
#######################################################################
#
# If this CIF has been generated from an entry in the Cambridge 
# Structural Database, then it will include bibliographic, chemical, 
# crystal, experimental, refinement or atomic coordinate data resulting 
# from the CCDC's data processing and validation procedures.
#
#######################################################################

data_MOJJUR
_symmetry_cell_setting           monoclinic
_symmetry_space_group_name_H-M   'P 21/c'
_symmetry_Int_Tables_number      14
_space_group_name_Hall           '-P 2ybc'
loop_
_symmetry_equiv_pos_site_id
_symmetry_equiv_pos_as_xyz
1 x,y,z
2 -x,1/2+y,1/2-z
3 -x,-y,-z
4 x,1/2-y,1/2+z
_cell_length_a                   12.348(5)
_cell_length_b                   14.802(5)
_cell_length_c                   16.848(4)
_cell_angle_alpha                90
_cell_angle_beta                 116.28(2)
_cell_angle_gamma                90
_cell_volume                     2761.11
loop_
_atom_site_label
_atom_site_type_symbol
_atom_site_fract_x
_atom_site_fract_y
_atom_site_fract_z
Nb1 Nb 0.253109(16) -0.208205(11) -0.001454(12)
Mn1 Mn 0.47779(3) -0.08040(2) -0.20383(2)
Mn2 Mn 0.03245(3) -0.07837(2) 0.20224(2)
O1 O 0.5178(3) -0.02498(16) -0.31296(15)
H1 H 0.4846 -0.056 -0.3668
H2 H 0.5002 0.0383 -0.3247
O2 O 0.3054(2) -0.00713(18) -0.27296(17)
H3 H 0.3295 0.0221 -0.3148
H4 H 0.2198 -0.0206 -0.2975
O3 O 0.2010(2) -0.00118(17) 0.26601(16)
H5 H 0.2305 0.0137 0.3203
H6 H 0.252 -0.0166 0.2409
O4 O -0.0002(2) -0.02773(15) 0.31371(14)
H7 H 0.0212 -0.0571 0.3667
H8 H -0.0335 0.0259 0.3172
N1 N 0.6540(2) -0.14908(18) -0.15713(17)
N2 N 0.8485(3) -0.1686(3) -0.0919(3)
H9 H 0.9226 -0.1628 -0.0534
N3 N -0.1404(2) -0.15218(17) 0.14462(17)
N4 N -0.2770(3) -0.2582(2) 0.0904(2)
H10 H -0.3087 -0.3108 0.074
N5 N 0.40292(19) -0.12826(15) -0.11488(14)
N6 N 0.09907(19) -0.12530(15) 0.10769(14)
N7 N 0.0657(2) -0.04263(15) -0.12763(15)
N8 N 0.1231(2) -0.30549(15) -0.20500(14)
N9 N 0.0477(3) -0.36705(19) -0.01556(18)
N10 N 0.4336(2) -0.03966(16) 0.12447(15)
N11 N 0.4479(2) -0.37568(17) 0.01283(18)
N12 N 0.3880(2) -0.30273(15) 0.20341(15)
C1 C 0.6870(4) -0.2115(3) -0.2022(3)
H11 H 0.6338 -0.2408 -0.2536
C2 C 0.8069(4) -0.2246(4) -0.1618(4)
H12 H 0.8517 -0.264 -0.1786
C3 C 0.7559(3) -0.1243(3) -0.0926(3)
H13 H 0.7625 -0.08 -0.0516
C4 C -0.2524(3) -0.1180(2) 0.1210(3)
H14 H -0.2674 -0.0576 0.1278
C5 C -0.3370(3) -0.1795(3) 0.0876(3)
H15 H -0.4198 -0.1715 0.0666
C6 C -0.1595(3) -0.2375(3) 0.1239(3)
H16 H -0.0989 -0.2788 0.1315
C7 C 0.3521(2) -0.15365(15) -0.07620(15)
C8 C 0.1531(2) -0.15174(15) 0.07195(15)
C9 C 0.1284(2) -0.09897(16) -0.08596(16)
C10 C 0.1679(2) -0.26986(15) -0.13765(15)
C11 C 0.1196(2) -0.31489(17) -0.00919(17)
C12 C 0.3740(2) -0.09658(16) 0.08133(16)
C13 C 0.3817(2) -0.31872(17) 0.00656(16)
C14 C 0.3400(2) -0.26752(16) 0.13583(15)
Mn1B Mn 0.52221(3) 0.08040(2) 0.20383(2)
Mn1C Mn 0.47779(3) -0.41960(2) 0.29617(2)
Mn2B Mn -0.03245(3) 0.07837(2) -0.20224(2)
Mn2C Mn 0.03245(3) -0.42163(2) -0.29776(2)
N7B N -0.0657(2) 0.04263(15) 0.12763(15)
N8C N 0.1231(2) -0.19451(15) 0.29500(14)
N10B N 0.5664(2) 0.03966(16) -0.12447(15)
N12C N 0.3880(2) -0.19727(15) -0.29659(15)
O5 O -0.2956(3) -0.0478(2) -0.44259(19)
O6 O 0.1032(2) -0.13531(15) -0.31732(16)
O7 O -0.1960(4) -0.0671(4) -0.5593(3)
O8 O 0.4747(6) -0.3517(2) -0.1569(3)
loop_
_geom_bond_atom_site_label_1
_geom_bond_atom_site_label_2
_geom_bond_site_symmetry_1
_geom_bond_site_symmetry_2
Nb1 C7 1_555 1_555
Mn1 O1 1_555 1_555
Mn2 O3 1_555 1_555
O1 H1 1_555 1_555
H2 O1 1_555 1_555
O2 Mn1 1_555 1_555
H3 O2 1_555 1_555
H4 O2 1_555 1_555
O3 H5 1_555 1_555
H6 O3 1_555 1_555
O4 Mn2 1_555 1_555
H7 O4 1_555 1_555
H8 O4 1_555 1_555
N1 Mn1 1_555 1_555
N2 H9 1_555 1_555
N3 Mn2 1_555 1_555
N4 H10 1_555 1_555
N5 Mn1 1_555 1_555
N6 Mn2 1_555 1_555
N7 C9 1_555 1_555
N8 C10 1_555 1_555
N9 C11 1_555 1_555
N10 C12 1_555 1_555
N11 C13 1_555 1_555
N12 C14 1_555 1_555
C1 N1 1_555 1_555
H11 C1 1_555 1_555
C2 N2 1_555 1_555
H12 C2 1_555 1_555
C3 N1 1_555 1_555
H13 C3 1_555 1_555
C4 N3 1_555 1_555
H14 C4 1_555 1_555
C5 N4 1_555 1_555
H15 C5 1_555 1_555
C6 N3 1_555 1_555
H16 C6 1_555 1_555
C7 N5 1_555 1_555
C8 Nb1 1_555 1_555
C9 Nb1 1_555 1_555
C10 Nb1 1_555 1_555
C11 Nb1 1_555 1_555
C12 Nb1 1_555 1_555
C13 Nb1 1_555 1_555
C14 Nb1 1_555 1_555
Mn1B N10 1_555 1_555
Mn1C N12 1_555 1_555
Mn2B N7 1_555 1_555
Mn2C N8 1_555 1_555
N7B Mn2 1_555 1_555
N8C Mn2 1_555 1_555
N10B Mn1 1_555 1_555
N12C Mn1 1_555 1_555
N2 C3 1_555 1_555
N4 C6 1_555 1_555
N6 C8 1_555 1_555
C1 C2 1_555 1_555
C4 C5 1_555 1_555

#END
