
#######################################################################
#
#                 Cambridge Crystallographic Data Centre
#                                CCDC 
#
#######################################################################
#
# If this CIF has been generated from an entry in the Cambridge 
# Structural Database, then it will include bibliographic, chemical, 
# crystal, experimental, refinement or atomic coordinate data resulting 
# from the CCDC's data processing and validation procedures.
#
#######################################################################

data_MOJPOS
_symmetry_cell_setting           triclinic
_symmetry_space_group_name_H-M   'P -1'
_symmetry_Int_Tables_number      2
_space_group_name_Hall           '-P 1'
loop_
_symmetry_equiv_pos_site_id
_symmetry_equiv_pos_as_xyz
1 x,y,z
2 -x,-y,-z
_cell_length_a                   9.1439(3)
_cell_length_b                   9.2915(3)
_cell_length_c                   12.0125(4)
_cell_angle_alpha                110.1260(10)
_cell_angle_beta                 90.0200(10)
_cell_angle_gamma                99.3210(10)
_cell_volume                     943.883
loop_
_atom_site_label
_atom_site_type_symbol
_atom_site_fract_x
_atom_site_fract_y
_atom_site_fract_z
Zn1 Zn 0.25344(2) 0.06261(2) 0.981787(17)
C1 C 0.4865(2) 0.2466(2) 0.45101(16)
C2 C 0.4560(2) 0.2100(2) 0.55224(17)
H1 H 0.3771 0.1316 0.5495
C3 C 0.5423(2) 0.2892(2) 0.65829(16)
C4 C 0.6594(2) 0.4064(2) 0.66170(17)
H2 H 0.7172 0.4605 0.7319
C5 C 0.6906(2) 0.4434(2) 0.56096(18)
H3 H 0.7691 0.5222 0.5638
C6 C 0.6058(2) 0.3637(2) 0.45641(18)
H4 H 0.6283 0.3882 0.3889
C7 C 0.2209(2) 0.0145(3) 0.20733(18)
H5 H 0.1398 -0.0633 0.1727
C8 C 0.4064(2) 0.1981(2) 0.23504(17)
H6 H 0.4780 0.2723 0.2212
C9 C 0.3952(2) 0.1709(2) 0.33882(16)
C10 C 0.5258(2) 0.2658(3) 0.95105(17)
H7 H 0.5574 0.3003 1.0309
C11 C 0.4084(2) 0.1343(2) 0.78235(16)
H8 H 0.3424 0.0595 0.7242
C12 C 0.5083(2) 0.2486(2) 0.76422(16)
C13 C 0.1132(2) 0.5877(2) 0.79561(16)
C14 C 0.1327(2) 0.5265(2) 0.88419(16)
H9 H 0.1646 0.5937 0.9606
C15 C 0.10558(19) 0.3673(2) 0.86084(16)
C16 C 0.0520(2) 0.2674(2) 0.74748(16)
H10 H 0.0328 0.1605 0.7308
C17 C 0.0272(2) 0.3271(2) 0.65931(16)
C18 C 0.0615(2) 0.4864(2) 0.68238(16)
H11 H 0.0498 0.5254 0.6218
C19 C 0.1517(2) 0.7602(2) 0.82358(16)
C20 C 0.1442(2) 0.3041(2) 0.95484(16)
C21 C -0.0410(2) 0.2202(2) 0.53996(16)
H12 H -0.046(4) 0.233(4) 0.387(3)
N1 N 0.27560(19) 0.0534(2) 0.31922(14)
H13 H 0.2416 0.0119 0.3699
N2 N 0.29656(18) 0.10012(19) 0.15305(14)
N3 N 0.58198(18) 0.3313(2) 0.87428(14)
H14 H 0.6517 0.4108 0.8901
N4 N 0.41990(17) 0.14583(19) 0.89977(14)
O1 O 0.1344(2) 0.82179(17) 0.74890(13)
O2 O 0.20688(17) 0.83720(15) 0.92848(12)
O3 O 0.21966(16) 0.39192(16) 1.04609(12)
O4 O 0.10146(14) 0.15896(15) 0.93122(12)
O5 O 0.00147(18) 0.27402(18) 0.45540(13)
O6 O -0.12676(17) 0.10012(16) 0.52465(12)
Zn1_2 Zn 0.25344(2) 0.06261(2) -0.018213(17)
Zn1_3 Zn 0.25344(2) 1.06261(2) 0.981787(17)
N2_2 N 0.29656(18) 0.10012(19) 1.15305(14)
O2_2 O 0.20688(17) -0.16280(15) 0.92848(12)
loop_
_geom_bond_atom_site_label_1
_geom_bond_atom_site_label_2
_geom_bond_site_symmetry_1
_geom_bond_site_symmetry_2
Zn1 N4 1_555 1_555
C1 C2 1_555 1_555
C2 H1 1_555 1_555
C3 C2 1_555 1_555
C4 C3 1_555 1_555
H2 C4 1_555 1_555
C5 C4 1_555 1_555
H3 C5 1_555 1_555
C6 C1 1_555 1_555
H4 C6 1_555 1_555
C7 H5 1_555 1_555
C8 H6 1_555 1_555
C9 C1 1_555 1_555
C10 H7 1_555 1_555
C11 H8 1_555 1_555
C12 C3 1_555 1_555
C13 C14 1_555 1_555
C14 H9 1_555 1_555
C15 C14 1_555 1_555
C16 C15 1_555 1_555
H10 C16 1_555 1_555
C17 C16 1_555 1_555
C18 C13 1_555 1_555
H11 C18 1_555 1_555
C19 C13 1_555 1_555
C20 C15 1_555 1_555
C21 C17 1_555 1_555
H12 O5 1_555 1_555
N1 C7 1_555 1_555
H13 N1 1_555 1_555
N2 C7 1_555 1_555
N3 C10 1_555 1_555
H14 N3 1_555 1_555
N4 C10 1_555 1_555
O1 C19 1_555 1_555
O2 C19 1_555 1_555
O3 C20 1_555 1_555
O4 Zn1 1_555 1_555
O5 C21 1_555 1_555
O6 C21 1_555 1_555
Zn1_2 N2 1_555 1_555
Zn1_3 O2 1_555 1_555
N2_2 Zn1 1_555 1_555
O2_2 Zn1 1_555 1_555
C5 C6 1_555 1_555
C8 C9 1_555 1_555
C8 N2 1_555 1_555
C9 N1 1_555 1_555
C11 C12 1_555 1_555
C11 N4 1_555 1_555
C12 N3 1_555 1_555
C17 C18 1_555 1_555
C20 O4 1_555 1_555

#END
