
#######################################################################
#
#                 Cambridge Crystallographic Data Centre
#                                CCDC 
#
#######################################################################
#
# If this CIF has been generated from an entry in the Cambridge 
# Structural Database, then it will include bibliographic, chemical, 
# crystal, experimental, refinement or atomic coordinate data resulting 
# from the CCDC's data processing and validation procedures.
#
#######################################################################

data_MOJPAE
_symmetry_cell_setting           triclinic
_symmetry_space_group_name_H-M   'P -1'
_symmetry_Int_Tables_number      2
_space_group_name_Hall           '-P 1'
loop_
_symmetry_equiv_pos_site_id
_symmetry_equiv_pos_as_xyz
1 x,y,z
2 -x,-y,-z
_cell_length_a                   6.7057(7)
_cell_length_b                   7.0715(4)
_cell_length_c                   10.1462(7)
_cell_angle_alpha                83.145(5)
_cell_angle_beta                 87.728(7)
_cell_angle_gamma                62.148(8)
_cell_volume                     422.279
loop_
_atom_site_label
_atom_site_type_symbol
_atom_site_fract_x
_atom_site_fract_y
_atom_site_fract_z
Ba1 Ba 0.32353(5) 0.35032(5) 0.38191(3)
C1 C -0.1305(9) 0.7933(9) 0.1624(6)
C2 C -0.2589(10) 0.9428(10) 0.0576(7)
H1 H -0.3978 1.0578 0.0729
C3 C -0.1755(10) 0.9170(10) -0.0703(6)
H2 H -0.2628 1.0101 -0.1420
C4 C 0.0368(9) 0.7530(9) -0.0907(6)
C5 C 0.1590(10) 0.6175(9) 0.0227(6)
H3 H 0.3047 0.5098 0.0113
C6 C -0.2252(10) 0.8054(9) 0.3008(6)
C7 C 0.1372(11) 0.7209(10) -0.2261(7)
N1 N 0.0784(8) 0.6345(8) 0.1443(5)
O1 O -0.1081(7) 0.6618(8) 0.3893(5)
O2 O -0.4173(8) 0.9548(7) 0.3191(5)
O3 O 0.3447(8) 0.6132(9) -0.2328(5)
O4 O -0.0020(7) 0.8081(8) -0.3240(5)
O5 O 0.2854(7) 0.7472(7) 0.4645(5)
H4 H 0.2458 0.8297 0.3918
H5 H 0.1755 0.8159 0.5137
Ba1_2 Ba -0.67647(5) 1.35032(5) 0.38191(3)
Ba1A Ba -0.32353(5) 0.64968(5) -0.38191(3)
Ba1A_2 Ba -0.32353(5) 0.64968(5) 0.61809(3)
Ba1A_3 Ba 0.67647(5) 0.64968(5) -0.38191(3)
Ba1A_4 Ba 0.67647(5) 0.64968(5) 0.61809(3)
O1A O 0.1081(7) 0.3382(8) 0.6107(5)
O2_2 O 0.5827(8) -0.0452(7) 0.3191(5)
O3A O 0.6553(8) 0.3868(9) 0.2328(5)
O4A O 0.0020(7) 0.1919(8) 0.3240(5)
O5A O 0.7146(7) 0.2528(7) 0.5355(5)
loop_
_geom_bond_atom_site_label_1
_geom_bond_atom_site_label_2
_geom_bond_site_symmetry_1
_geom_bond_site_symmetry_2
Ba1 N1 1_555 1_555
C1 C2 1_555 1_555
C2 H1 1_555 1_555
C3 C2 1_555 1_555
H2 C3 1_555 1_555
C4 C3 1_555 1_555
C5 C4 1_555 1_555
H3 C5 1_555 1_555
C6 C1 1_555 1_555
C7 C4 1_555 1_555
N1 C1 1_555 1_555
O1 Ba1 1_555 1_555
O2 C6 1_555 1_555
O3 C7 1_555 1_555
O4 C7 1_555 1_555
O5 Ba1 1_555 1_555
H4 O5 1_555 1_555
H5 O5 1_555 1_555
Ba1_2 O2 1_555 1_555
Ba1A O4 1_555 1_555
Ba1A_2 O1 1_555 1_555
Ba1A_3 O3 1_555 1_555
Ba1A_4 O5 1_555 1_555
O1A Ba1 1_555 1_555
O2_2 Ba1 1_555 1_555
O3A Ba1 1_555 1_555
O4A Ba1 1_555 1_555
O5A Ba1 1_555 1_555
C5 N1 1_555 1_555
C6 O1 1_555 1_555
Ba1A_2 O1A 1_555 1_555
Ba1A_4 O5A 1_555 1_555

#END
