
#######################################################################
#
#                 Cambridge Crystallographic Data Centre
#                                CCDC 
#
#######################################################################
#
# If this CIF has been generated from an entry in the Cambridge 
# Structural Database, then it will include bibliographic, chemical, 
# crystal, experimental, refinement or atomic coordinate data resulting 
# from the CCDC's data processing and validation procedures.
#
#######################################################################

data_MOJWEO
_symmetry_cell_setting           monoclinic
_symmetry_space_group_name_H-M   'P 21/c'
_symmetry_Int_Tables_number      14
_space_group_name_Hall           '-P 2ybc'
loop_
_symmetry_equiv_pos_site_id
_symmetry_equiv_pos_as_xyz
1 x,y,z
2 -x,1/2+y,1/2-z
3 -x,-y,-z
4 x,1/2-y,1/2+z
_cell_length_a                   5.1084(7)
_cell_length_b                   17.642(3)
_cell_length_c                   9.0716(13)
_cell_angle_alpha                90.00
_cell_angle_beta                 94.063(2)
_cell_angle_gamma                90.00
_cell_volume                     815.5
loop_
_atom_site_label
_atom_site_type_symbol
_atom_site_fract_x
_atom_site_fract_y
_atom_site_fract_z
U1 U 0.0000 0.5000 0.5000
Br1 Br 0.22234(15) 0.90749(3) 0.56778(8)
O1 O 0.2772(8) 0.6035(2) 0.4997(5)
O2 O 0.0594(9) 0.4780(2) 0.3167(5)
O3 O 0.6656(8) 0.5790(2) 0.4173(5)
C1 C 0.4855(11) 0.6241(3) 0.4466(7)
C2 C 0.5251(10) 0.7064(3) 0.4184(6)
C3 C 0.3725(12) 0.7596(3) 0.4865(6)
H1 H 0.2442 0.7437 0.5474
C4 C 0.4116(13) 0.8350(3) 0.4637(6)
C5 C 0.5987(12) 0.8597(3) 0.3718(7)
H2 H 0.6230 0.9113 0.3560
C6 C 0.7491(13) 0.8069(3) 0.3037(7)
H3 H 0.8744 0.8231 0.2411
C7 C 0.7151(11) 0.7309(3) 0.3276(6)
H4 H 0.8197 0.6957 0.2829
U1_2 U 1.0000 0.5000 0.5000
U1_3 U -1.0000 0.5000 0.5000
Br1B Br -0.22234(15) 0.09251(3) 0.43222(8)
O1B O -0.2772(8) 0.3965(2) 0.5003(5)
O2B O -0.0594(9) 0.5220(2) 0.6833(5)
O3B O -0.6656(8) 0.4210(2) 0.5827(5)
O3_2 O -0.3344(8) 0.5790(2) 0.4173(5)
O3B_2 O 0.3344(8) 0.4210(2) 0.5827(5)
C1B C -0.4855(11) 0.3759(3) 0.5534(7)
C2B C -0.5251(10) 0.2936(3) 0.5816(6)
C3B C -0.3725(12) 0.2404(3) 0.5135(6)
H1B H -0.2442 0.2563 0.4526
C4B C -0.4116(13) 0.1650(3) 0.5363(6)
C5B C -0.5987(12) 0.1403(3) 0.6282(7)
H2B H -0.6230 0.0887 0.6440
C6B C -0.7491(13) 0.1931(3) 0.6963(7)
H3B H -0.8744 0.1769 0.7589
C7B C -0.7151(11) 0.2691(3) 0.6724(6)
H4B H -0.8197 0.3043 0.7171
loop_
_geom_bond_atom_site_label_1
_geom_bond_atom_site_label_2
_geom_bond_site_symmetry_1
_geom_bond_site_symmetry_2
U1 O1 1_555 1_555
Br1 C4 1_555 1_555
O1 C1 1_555 1_555
O2 U1 1_555 1_555
O3 C1 1_555 1_555
C1 C2 1_555 1_555
C2 C3 1_555 1_555
C3 H1 1_555 1_555
C4 C3 1_555 1_555
C5 C4 1_555 1_555
H2 C5 1_555 1_555
C6 C5 1_555 1_555
H3 C6 1_555 1_555
C7 C2 1_555 1_555
H4 C7 1_555 1_555
U1_2 O3 1_555 1_555
U1_3 O3B 1_555 1_555
Br1B C4B 1_555 1_555
O1B U1 1_555 1_555
O2B U1 1_555 1_555
O3B C1B 1_555 1_555
O3_2 U1 1_555 1_555
O3B_2 U1 1_555 1_555
C1B O1B 1_555 1_555
C2B C1B 1_555 1_555
C3B C2B 1_555 1_555
H1B C3B 1_555 1_555
C4B C3B 1_555 1_555
C5B C4B 1_555 1_555
H2B C5B 1_555 1_555
C6B C5B 1_555 1_555
H3B C6B 1_555 1_555
C7B C2B 1_555 1_555
H4B C7B 1_555 1_555
C6 C7 1_555 1_555
C6B C7B 1_555 1_555

#END
