
#######################################################################
#
#                 Cambridge Crystallographic Data Centre
#                                CCDC 
#
#######################################################################
#
# If this CIF has been generated from an entry in the Cambridge 
# Structural Database, then it will include bibliographic, chemical, 
# crystal, experimental, refinement or atomic coordinate data resulting 
# from the CCDC's data processing and validation procedures.
#
#######################################################################

data_MOJYUH
_symmetry_cell_setting           triclinic
_symmetry_space_group_name_H-M   'P -1'
_symmetry_Int_Tables_number      2
_space_group_name_Hall           '-P 1'
loop_
_symmetry_equiv_pos_site_id
_symmetry_equiv_pos_as_xyz
1 x,y,z
2 -x,-y,-z
_cell_length_a                   7.7615(16)
_cell_length_b                   9.154(2)
_cell_length_c                   10.247(2)
_cell_angle_alpha                70.86(2)
_cell_angle_beta                 74.534(18)
_cell_angle_gamma                66.12(2)
_cell_volume                     621.308
loop_
_atom_site_label
_atom_site_type_symbol
_atom_site_fract_x
_atom_site_fract_y
_atom_site_fract_z
Mn1 Mn 1.13222(5) -0.35812(4) 0.60307(4)
O1 O 0.0262(2) 0.52599(19) 1.34335(18)
O2 O 0.2591(2) 0.56603(18) 1.40058(18)
O3 O 0.3959(2) 0.19992(19) 1.55348(18)
O4 O 0.6940(2) 0.19790(19) 1.47835(18)
O5 O 1.0413(3) -0.3145(2) 0.80740(19)
O6 O 1.3749(2) -0.57299(19) 0.68561(18)
H1 H 1.4851 -0.5653 0.6596
H2 H 1.3934 -0.6589 0.6610
O7 O 0.8940(2) -0.15389(19) 0.5103(2)
H3 H 0.8429 -0.0573 0.5233
H4 H 0.8091 -0.1716 0.4861
N1 N 0.7273(3) 0.0460(2) 1.0173(2)
C1 C 0.1982(3) 0.4999(3) 1.3404(3)
C2 C 0.5324(3) 0.2158(3) 1.4574(3)
C3 C 0.5034(3) 0.2550(3) 1.3085(3)
C4 C 0.6315(3) 0.1478(3) 1.2274(3)
H5 H 0.7354 0.0614 1.2636
C5 C 0.6044(3) 0.1698(3) 1.0937(3)
C6 C 0.4576(3) 0.3037(3) 1.0345(3)
H6 H 0.4444 0.3223 0.9423
C7 C 0.3302(3) 0.4098(3) 1.1164(3)
H7 H 0.2308 0.4997 1.0777
C8 C 0.3473(3) 0.3851(3) 1.2533(3)
C9 C 0.7836(3) -0.1172(3) 1.0871(3)
H8 H 0.7494 -0.1461 1.1836
C10 C 0.8885(3) -0.2385(3) 1.0190(3)
H9 H 0.9244 -0.3481 1.0702
C11 C 0.9444(3) -0.2012(3) 0.8712(3)
C12 C 0.8813(4) -0.0288(3) 0.8021(3)
H10 H 0.9120 0.0043 0.7055
C13 C 0.7772(4) 0.0870(3) 0.8756(3)
H11 H 0.7389 0.1977 0.8277
Mn1_2 Mn 0.13222(5) 0.64188(4) 1.60307(4)
Mn1A Mn -0.13222(5) 0.35812(4) 1.39693(4)
Mn1A_2 Mn 0.86778(5) 0.35812(4) 1.39693(4)
O1A O 0.9738(2) -0.52599(19) 0.65665(18)
O2_2 O 1.2591(2) -0.43397(18) 0.40058(18)
O4A O 1.3060(2) -0.19790(19) 0.52165(18)
loop_
_geom_bond_atom_site_label_1
_geom_bond_atom_site_label_2
_geom_bond_site_symmetry_1
_geom_bond_site_symmetry_2
Mn1 O5 1_555 1_555
O1 C1 1_555 1_555
O2 C1 1_555 1_555
O3 C2 1_555 1_555
O4 C2 1_555 1_555
O5 C11 1_555 1_555
O6 Mn1 1_555 1_555
H1 O6 1_555 1_555
H2 O6 1_555 1_555
O7 Mn1 1_555 1_555
H3 O7 1_555 1_555
H4 O7 1_555 1_555
N1 C5 1_555 1_555
C1 C8 1_555 1_555
C2 C3 1_555 1_555
C3 C4 1_555 1_555
C4 H5 1_555 1_555
C5 C4 1_555 1_555
C6 C5 1_555 1_555
H6 C6 1_555 1_555
C7 C6 1_555 1_555
H7 C7 1_555 1_555
C8 C3 1_555 1_555
C9 N1 1_555 1_555
H8 C9 1_555 1_555
C10 C9 1_555 1_555
H9 C10 1_555 1_555
C11 C10 1_555 1_555
C12 C11 1_555 1_555
H10 C12 1_555 1_555
C13 N1 1_555 1_555
H11 C13 1_555 1_555
Mn1_2 O2 1_555 1_555
Mn1A O1 1_555 1_555
Mn1A_2 O4 1_555 1_555
O1A Mn1 1_555 1_555
O2_2 Mn1 1_555 1_555
O4A Mn1 1_555 1_555
C7 C8 1_555 1_555
C12 C13 1_555 1_555

#END
