
#######################################################################
#
#                 Cambridge Crystallographic Data Centre
#                                CCDC 
#
#######################################################################
#
# If this CIF has been generated from an entry in the Cambridge 
# Structural Database, then it will include bibliographic, chemical, 
# crystal, experimental, refinement or atomic coordinate data resulting 
# from the CCDC's data processing and validation procedures.
#
#######################################################################

data_MOKKUU
_symmetry_cell_setting           monoclinic
_symmetry_space_group_name_H-M   'P 21/n'
_symmetry_Int_Tables_number      14
_space_group_name_Hall           '-P 2yn'
loop_
_symmetry_equiv_pos_site_id
_symmetry_equiv_pos_as_xyz
1 x,y,z
2 1/2-x,1/2+y,1/2-z
3 -x,-y,-z
4 1/2+x,1/2-y,1/2+z
_cell_length_a                   8.94447(19)
_cell_length_b                   4.92209(8)
_cell_length_c                   23.5863(5)
_cell_angle_alpha                90
_cell_angle_beta                 92.5552(18)
_cell_angle_gamma                90
_cell_volume                     1037.37
loop_
_atom_site_label
_atom_site_type_symbol
_atom_site_fract_x
_atom_site_fract_y
_atom_site_fract_z
Pb1 Pb 0.51423(3) 0.46983(7) 0.25847(2)
S1 S 0.3165(3) 0.0776(5) 0.29849(10)
S2 S 0.7316(2) 0.1740(4) 0.31647(9)
N1 N 0.3760(9) -0.0315(14) 0.4112(3)
N2 N 0.8799(9) 0.4208(16) 0.4051(3)
C1 C 0.8504(9) 0.4087(19) 0.3477(4)
N3 N 0.9832(8) 0.6139(16) 0.4167(3)
N4 N 1.0171(8) 0.7197(15) 0.3687(3)
N5 N 0.9388(9) 0.5953(15) 0.3254(3)
C2 C 0.3954(10) -0.0867(19) 0.3567(4)
N6 N 0.5272(8) -0.3622(16) 0.4108(3)
N7 N 0.4571(8) -0.2049(16) 0.4447(3)
C3 C 0.8176(10) 0.2558(18) 0.4497(4)
H1 H 0.7123 0.2915 0.4513
H2 H 0.8666 0.3005 0.4856
H3 H 0.8328 0.0670 0.4416
C4 C 0.2769(10) 0.1696(18) 0.4354(4)
H4 H 0.2676 0.3237 0.4106
H5 H 0.3179 0.2267 0.4718
H6 H 0.1800 0.0904 0.4399
N8 N 0.4916(8) -0.2969(15) 0.3561(3)
Pb1_2 Pb 0.51423(3) -0.53017(7) 0.25847(2)
Pb1A Pb 0.98577(3) 0.96983(7) 0.24153(2)
N5A N 0.5612(9) 0.0953(15) 0.1746(3)
N8_2 N 0.4916(8) 0.7031(15) 0.3561(3)
loop_
_geom_bond_atom_site_label_1
_geom_bond_atom_site_label_2
_geom_bond_site_symmetry_1
_geom_bond_site_symmetry_2
Pb1 S1 1_555 1_555
S1 C2 1_555 1_555
S2 Pb1 1_555 1_555
N1 C2 1_555 1_555
N2 C1 1_555 1_555
C1 S2 1_555 1_555
N3 N2 1_555 1_555
N4 N3 1_555 1_555
N5 C1 1_555 1_555
C2 N8 1_555 1_555
N6 N7 1_555 1_555
N7 N1 1_555 1_555
C3 N2 1_555 1_555
H1 C3 1_555 1_555
H2 C3 1_555 1_555
H3 C3 1_555 1_555
C4 N1 1_555 1_555
H4 C4 1_555 1_555
H5 C4 1_555 1_555
H6 C4 1_555 1_555
N8 N6 1_555 1_555
Pb1_2 N8 1_555 1_555
Pb1A N5 1_555 1_555
N5A Pb1 1_555 1_555
N8_2 Pb1 1_555 1_555
N4 N5 1_555 1_555

#END
