
#######################################################################
#
#                 Cambridge Crystallographic Data Centre
#                                CCDC 
#
#######################################################################
#
# If this CIF has been generated from an entry in the Cambridge 
# Structural Database, then it will include bibliographic, chemical, 
# crystal, experimental, refinement or atomic coordinate data resulting 
# from the CCDC's data processing and validation procedures.
#
#######################################################################

data_MOKQUA
_symmetry_cell_setting           monoclinic
_symmetry_space_group_name_H-M   'P 21/c'
_symmetry_Int_Tables_number      14
_space_group_name_Hall           '-P 2ybc'
loop_
_symmetry_equiv_pos_site_id
_symmetry_equiv_pos_as_xyz
1 x,y,z
2 -x,1/2+y,1/2-z
3 -x,-y,-z
4 x,1/2-y,1/2+z
_cell_length_a                   10.744(2)
_cell_length_b                   15.449(3)
_cell_length_c                   21.900(4)
_cell_angle_alpha                90
_cell_angle_beta                 90.01(3)
_cell_angle_gamma                90
_cell_volume                     3635.05
loop_
_atom_site_label
_atom_site_type_symbol
_atom_site_fract_x
_atom_site_fract_y
_atom_site_fract_z
Mn1 Mn 0.12777(13) 0.84658(10) 0.26503(6)
Cr1 Cr 0.62771(13) 0.84673(10) 0.23499(6)
O1 O 0.0699(7) 0.8404(5) 0.4487(3)
O2 O 0.1969(7) 1.0762(5) 0.1813(3)
O3 O 0.6958(7) 1.0776(5) 0.3188(3)
O4 O 0.5689(7) 0.8402(5) 0.0512(3)
N1 N 0.3357(10) 0.8428(6) 0.2747(4)
N2 N 0.9320(9) 0.8407(6) 0.2349(4)
N3 N 0.1788(6) 0.8466(5) 0.1735(3)
N4 N 0.1324(6) 0.9692(5) 0.2533(3)
N5 N 0.0873(7) 0.8857(5) 0.3477(3)
N6 N 0.1114(7) 0.7268(6) 0.3087(3)
N7 N 0.6800(7) 0.8471(6) 0.3269(3)
N8 N 0.6321(6) 0.9688(5) 0.2475(3)
N9 N 0.5873(7) 0.8858(5) 0.1521(3)
N10 N 0.6105(7) 0.7277(5) 0.1905(4)
C1 C 0.4357(9) 0.8384(6) 0.2643(4)
C2 C 0.8325(8) 0.8412(6) 0.2256(4)
C3 C 0.1203(9) 0.6468(7) 0.2867(5)
H1 H 0.1351 0.6394 0.2451
C4 C 0.1083(11) 0.5738(7) 0.3232(6)
H2 H 0.1155 0.5187 0.3066
C5 C 0.0858(11) 0.5848(8) 0.3841(6)
H3 H 0.0781 0.5368 0.4094
C6 C 0.0745(10) 0.6665(7) 0.4078(5)
H4 H 0.0572 0.6752 0.4490
C7 C 0.0896(9) 0.7354(6) 0.3686(5)
C8 C 0.0796(9) 0.8259(7) 0.3927(5)
C9 C 0.0767(8) 0.9749(6) 0.3557(4)
C10 C 0.0497(9) 1.0197(7) 0.4095(5)
H5 H 0.0387 0.9888 0.4455
C11 C 0.0392(7) 1.1077(5) 0.4104(3)
H6 H 0.0141 1.1361 0.4457
C12 C 0.0662(7) 1.1534(5) 0.3587(3)
H7 H 0.0622 1.2135 0.3595
C13 C 0.0993(9) 1.1121(6) 0.3049(4)
H8 H 0.1196 1.1447 0.2706
C14 C 0.1022(8) 1.0242(5) 0.3020(4)
C15 C 0.1757(9) 0.9992(6) 0.1970(5)
C16 C 0.1950(8) 0.9272(7) 0.1517(4)
C17 C 0.2336(10) 0.9437(8) 0.0916(5)
H9 H 0.2426 1.0001 0.0774
C18 C 0.2576(10) 0.8747(9) 0.0547(5)
H10 H 0.2838 0.8834 0.0147
C19 C 0.2431(12) 0.7933(9) 0.0768(6)
H11 H 0.2594 0.7462 0.0516
C20 C 0.2041(9) 0.7794(7) 0.1366(5)
H12 H 0.1956 0.7232 0.1512
C21 C 0.7051(10) 0.7791(8) 0.3637(5)
H13 H 0.6964 0.7234 0.3481
C22 C 0.7430(10) 0.7890(8) 0.4231(5)
H14 H 0.7596 0.7413 0.4477
C23 C 0.7555(11) 0.8735(9) 0.4453(5)
H15 H 0.7795 0.8823 0.4856
C24 C 0.7329(10) 0.9440(7) 0.4081(5)
H16 H 0.7422 1.0003 0.4224
C25 C 0.6957(8) 0.9277(7) 0.3482(4)
C26 C 0.6755(10) 1.0026(7) 0.3029(4)
C27 C 0.6049(8) 1.0258(7) 0.1984(4)
C28 C 0.5981(9) 1.1126(6) 0.1951(4)
H17 H 0.6143 1.1454 0.2298
C29 C 0.5676(9) 1.1538(7) 0.1415(5)
H18 H 0.5654 1.2140 0.1405
C30 C 0.5404(5) 1.1079(4) 0.0895(2)
H19 H 0.5176 1.1367 0.0540
C31 C 0.5472(5) 1.0180(4) 0.0904(2)
H20 H 0.5317 0.9865 0.0550
C32 C 0.5771(5) 0.9756(4) 0.1439(2)
C33 C 0.5786(10) 0.8271(7) 0.1073(5)
C34 C 0.5887(9) 0.7350(7) 0.1320(4)
C35 C 0.5736(10) 0.6661(7) 0.0925(5)
H21 H 0.5539 0.6749 0.0516
C36 C 0.5881(11) 0.5860(9) 0.1149(6)
H22 H 0.5850 0.5385 0.0889
C37 C 0.6077(10) 0.5742(8) 0.1770(6)
H23 H 0.6124 0.5188 0.1935
C38 C 0.6200(9) 0.6456(8) 0.2134(5)
H24 H 0.6353 0.6381 0.2549
Mn1_2 Mn 1.12777(13) 0.84658(10) 0.26503(6)
N2_2 N -0.0680(9) 0.8407(6) 0.2349(4)
O5 O 0.3062(10) 0.9044(7) 0.4872(4)
H25 H 0.2326 0.8931 0.4812
C39 C 0.3793(12) 0.8591(8) 0.4455(6)
H26 H 0.4651 0.8745 0.4511
H27 H 0.3541 0.8736 0.4047
H28 H 0.3691 0.7981 0.4519
O6 O 0.8070(9) 0.9046(6) 0.0121(4)
H29 H 0.734(5) 0.897(11) 0.022(7)
C40 C 0.8792(12) 0.8568(8) 0.0536(5)
H30 H 0.9658 0.8688 0.0467
H31 H 0.8639 0.7962 0.0478
H32 H 0.8573 0.8729 0.0945
loop_
_geom_bond_atom_site_label_1
_geom_bond_atom_site_label_2
_geom_bond_site_symmetry_1
_geom_bond_site_symmetry_2
Mn1 N1 1_555 1_555
Cr1 N7 1_555 1_555
O1 C8 1_555 1_555
O2 C15 1_555 1_555
O3 C26 1_555 1_555
O4 C33 1_555 1_555
N1 C1 1_555 1_555
N2 C2 1_555 1_555
N3 Mn1 1_555 1_555
N4 Mn1 1_555 1_555
N5 Mn1 1_555 1_555
N6 Mn1 1_555 1_555
N7 C21 1_555 1_555
N8 Cr1 1_555 1_555
N9 Cr1 1_555 1_555
N10 Cr1 1_555 1_555
C1 Cr1 1_555 1_555
C2 Cr1 1_555 1_555
C3 N6 1_555 1_555
H1 C3 1_555 1_555
C4 C3 1_555 1_555
H2 C4 1_555 1_555
C5 C4 1_555 1_555
H3 C5 1_555 1_555
C6 C5 1_555 1_555
H4 C6 1_555 1_555
C7 N6 1_555 1_555
C8 N5 1_555 1_555
C9 N5 1_555 1_555
C10 C9 1_555 1_555
H5 C10 1_555 1_555
C11 C10 1_555 1_555
H6 C11 1_555 1_555
C12 C11 1_555 1_555
H7 C12 1_555 1_555
C13 C12 1_555 1_555
H8 C13 1_555 1_555
C14 N4 1_555 1_555
C15 N4 1_555 1_555
C16 N3 1_555 1_555
C17 C16 1_555 1_555
H9 C17 1_555 1_555
C18 C17 1_555 1_555
H10 C18 1_555 1_555
C19 C18 1_555 1_555
H11 C19 1_555 1_555
C20 N3 1_555 1_555
H12 C20 1_555 1_555
C21 H13 1_555 1_555
C22 C21 1_555 1_555
H14 C22 1_555 1_555
C23 C22 1_555 1_555
H15 C23 1_555 1_555
C24 C23 1_555 1_555
H16 C24 1_555 1_555
C25 N7 1_555 1_555
C26 N8 1_555 1_555
C27 N8 1_555 1_555
C28 C27 1_555 1_555
H17 C28 1_555 1_555
C29 C28 1_555 1_555
H18 C29 1_555 1_555
C30 C29 1_555 1_555
H19 C30 1_555 1_555
C31 C30 1_555 1_555
H20 C31 1_555 1_555
C32 N9 1_555 1_555
C33 N9 1_555 1_555
C34 N10 1_555 1_555
C35 C34 1_555 1_555
H21 C35 1_555 1_555
C36 C35 1_555 1_555
H22 C36 1_555 1_555
C37 C36 1_555 1_555
H23 C37 1_555 1_555
C38 N10 1_555 1_555
H24 C38 1_555 1_555
O5 H25 1_555 1_555
C39 O5 1_555 1_555
H26 C39 1_555 1_555
H27 C39 1_555 1_555
H28 C39 1_555 1_555
O6 H29 1_555 1_555
C40 O6 1_555 1_555
H30 C40 1_555 1_555
H31 C40 1_555 1_555
H32 C40 1_555 1_555
Mn1_2 N2 1_555 1_555
N2_2 Mn1 1_555 1_555
C6 C7 1_555 1_555
C7 C8 1_555 1_555
C9 C14 1_555 1_555
C13 C14 1_555 1_555
C15 C16 1_555 1_555
C19 C20 1_555 1_555
C24 C25 1_555 1_555
C25 C26 1_555 1_555
C27 C32 1_555 1_555
C31 C32 1_555 1_555
C33 C34 1_555 1_555
C37 C38 1_555 1_555

#END
