
#######################################################################
#
#                 Cambridge Crystallographic Data Centre
#                                CCDC 
#
#######################################################################
#
# If this CIF has been generated from an entry in the Cambridge 
# Structural Database, then it will include bibliographic, chemical, 
# crystal, experimental, refinement or atomic coordinate data resulting 
# from the CCDC's data processing and validation procedures.
#
#######################################################################

data_MOKSIQ
_symmetry_cell_setting           orthorhombic
_symmetry_space_group_name_H-M   'P c c n'
_symmetry_Int_Tables_number      56
_space_group_name_Hall           '-P 2ab 2ac'
loop_
_symmetry_equiv_pos_site_id
_symmetry_equiv_pos_as_xyz
1 x,y,z
2 1/2-x,1/2-y,z
3 1/2+x,-y,1/2-z
4 -x,1/2+y,1/2-z
5 -x,-y,-z
6 1/2+x,1/2+y,-z
7 1/2-x,y,1/2+z
8 x,1/2-y,1/2+z
_cell_length_a                   25.794(5)
_cell_length_b                   13.613(3)
_cell_length_c                   21.624(4)
_cell_angle_alpha                90
_cell_angle_beta                 90
_cell_angle_gamma                90
_cell_volume                     7592.92
loop_
_atom_site_label
_atom_site_type_symbol
_atom_site_fract_x
_atom_site_fract_y
_atom_site_fract_z
Cd1 Cd 0.517652(12) -0.07321(3) 0.349106(15)
Cd2 Cd 0.519054(12) -0.18501(3) 0.148721(15)
C1 C 0.66721(18) -0.3126(3) 0.4102(2)
C2 C 0.64805(17) -0.2712(3) 0.35527(18)
C3 C 0.67284(16) -0.2910(3) 0.2994(2)
H1 H 0.6597 -0.2659 0.2626
C4 C 0.71753(16) -0.3489(3) 0.29923(19)
C5 C 0.73851(18) -0.3840(4) 0.3534(2)
H2 H 0.7697 -0.4184 0.3528
C6 C 0.71290(18) -0.3678(3) 0.4088(2)
H3 H 0.7262 -0.3938 0.4453
C7 C 0.67305(17) -0.4320(3) 0.07977(19)
C8 C 0.64979(15) -0.4635(3) 0.13501(19)
C9 C 0.67293(16) -0.4416(3) 0.19142(19)
H4 H 0.6573 -0.4605 0.2283
C10 C 0.71975(16) -0.3910(3) 0.19199(19)
C11 C 0.74481(17) -0.3652(3) 0.1376(2)
H5 H 0.7773 -0.3354 0.1387
C12 C 0.72102(17) -0.3842(3) 0.0819(2)
H6 H 0.7370 -0.3650 0.0453
C13 C 0.63776(19) -0.3061(4) 0.4693(2)
C14 C 0.6040(2) -0.1977(4) 0.35411(18)
C15 C 0.64478(18) -0.4424(3) 0.0205(2)
C16 C 0.60240(17) -0.5286(3) 0.13609(19)
C17 C 0.64592(16) 0.0194(3) 0.14423(18)
C18 C 0.66484(17) 0.0628(3) 0.0898(2)
C19 C 0.71074(18) 0.1168(3) 0.0925(2)
H7 H 0.7245 0.1432 0.0563
C20 C 0.73623(19) 0.1317(4) 0.1481(2)
H8 H 0.7678 0.1647 0.1491
C21 C 0.71442(16) 0.0971(3) 0.2019(2)
C22 C 0.66999(16) 0.0389(3) 0.2008(2)
H9 H 0.6565 0.0133 0.2373
C23 C 0.67207(16) 0.1796(3) 0.42405(19)
C24 C 0.64723(15) 0.2096(3) 0.36962(19)
C25 C 0.66908(17) 0.1877(3) 0.3121(2)
H10 H 0.6521 0.2050 0.2758
C26 C 0.71684(16) 0.1394(3) 0.3100(2)
C27 C 0.74364(17) 0.1173(3) 0.3639(2)
H11 H 0.7768 0.0908 0.3620
C28 C 0.72059(17) 0.1352(3) 0.4203(2)
H12 H 0.7377 0.1173 0.4564
C29 C 0.60238(19) -0.0547(4) 0.14404(19)
C30 C 0.63395(18) 0.0611(3) 0.0313(2)
C31 C 0.64394(18) 0.1862(3) 0.4837(2)
C32 C 0.59855(15) 0.2714(3) 0.37044(18)
O1 O 0.66434(15) -0.3328(3) 0.51791(15)
H13 H 0.6458 -0.3448 0.5456
O2 O 0.49140(17) -0.1716(4) 0.4327(2)
H14 H 0.4924 -0.2296 0.4226
H15 H 0.4582 -0.1705 0.4453
O3 O 0.59239(16) -0.2809(4) 0.47114(18)
O4 O 0.53456(17) 0.0393(3) 0.42767(18)
H16 H 0.5541 0.0143 0.4532
H17 H 0.5341 0.0968 0.4215
O5 O 0.60878(15) -0.1169(3) 0.38079(18)
O6 O 0.5501(2) 0.0469(3) 0.28859(19)
H18 H 0.5583 0.1043 0.3006
H19 H 0.5572 0.0364 0.2508
O7 O 0.56389(14) -0.2177(3) 0.32410(17)
O8 O 0.49846(17) -0.0903(4) 0.0611(2)
H20 H 0.5229 -0.0543 0.0526
H21 H 0.4670 -0.0931 0.0411
O9 O 0.59980(14) -0.4698(3) 0.01815(15)
O10 O 0.55522(18) -0.3009(3) 0.20940(19)
H22 H 0.5578 -0.3617 0.2011
H23 H 0.5565 -0.2929 0.2484
O11 O 0.67158(14) -0.4167(3) -0.02869(15)
H24 H 0.6495 -0.4074 -0.0644
O12 O 0.53775(16) -0.3008(3) 0.06966(19)
H25 H 0.5538 -0.2737 0.0417
H26 H 0.5431 -0.3781 0.0867
O13 O 0.60839(13) -0.6176(2) 0.12248(16)
O14 O 0.48162(14) -0.1290(2) 0.24883(14)
H27 H 0.4589 -0.0755 0.2368
H28 H 0.4587 -0.1824 0.2604
O15 O 0.56031(12) -0.4911(3) 0.15364(14)
O16 O 0.74550(14) -0.3675(2) 0.24600(13)
O17 O 0.56351(14) -0.0405(3) 0.17734(18)
O18 O 0.60637(14) -0.1312(3) 0.11279(17)
O19 O 0.58805(15) 0.0430(3) 0.02919(18)
O20 O 0.66157(14) 0.0860(3) -0.01796(15)
H29 H 0.6450 0.0987 -0.0424
O21 O 0.67274(13) 0.1643(3) 0.53268(15)
H30 H 0.6543 0.1575 0.5622
O22 O 0.59821(13) 0.2070(3) 0.48762(16)
O23 O 0.60232(13) 0.3586(2) 0.38800(15)
O24 O 0.55761(12) 0.2328(3) 0.34964(14)
O25 O 0.74199(13) 0.1157(3) 0.25576(14)
Cd1C Cd 0.482348(12) -0.57321(3) 0.150894(15)
Cd2C Cd 0.480946(12) 0.31499(3) 0.351279(15)
O15C O 0.43969(12) 0.0089(3) 0.34636(14)
O24C O 0.44239(12) -0.2672(3) 0.15036(14)
O26 O 0.4250(2) 1.0143(4) 0.1917(2)
O27 O 0.4996(3) 0.6231(4) 0.3786(6)
O28 O 0.4257(2) 0.7266(4) 0.3040(2)
loop_
_geom_bond_atom_site_label_1
_geom_bond_atom_site_label_2
_geom_bond_site_symmetry_1
_geom_bond_site_symmetry_2
Cd1 O2 1_555 1_555
Cd2 O8 1_555 1_555
C1 C2 1_555 1_555
C2 C3 1_555 1_555
C3 H1 1_555 1_555
C4 C3 1_555 1_555
C5 C4 1_555 1_555
H2 C5 1_555 1_555
C6 C1 1_555 1_555
H3 C6 1_555 1_555
C7 C8 1_555 1_555
C8 C9 1_555 1_555
C9 H4 1_555 1_555
C10 C9 1_555 1_555
C11 C10 1_555 1_555
H5 C11 1_555 1_555
C12 C7 1_555 1_555
H6 C12 1_555 1_555
C13 C1 1_555 1_555
C14 C2 1_555 1_555
C15 C7 1_555 1_555
C16 C8 1_555 1_555
C17 C18 1_555 1_555
C18 C19 1_555 1_555
C19 H7 1_555 1_555
C20 C19 1_555 1_555
H8 C20 1_555 1_555
C21 C20 1_555 1_555
C22 C17 1_555 1_555
H9 C22 1_555 1_555
C23 C24 1_555 1_555
C24 C25 1_555 1_555
C25 H10 1_555 1_555
C26 C25 1_555 1_555
C27 C26 1_555 1_555
H11 C27 1_555 1_555
C28 C23 1_555 1_555
H12 C28 1_555 1_555
C29 C17 1_555 1_555
C30 C18 1_555 1_555
C31 C23 1_555 1_555
C32 C24 1_555 1_555
O1 C13 1_555 1_555
H13 O1 1_555 1_555
O2 H14 1_555 1_555
H15 O2 1_555 1_555
O3 C13 1_555 1_555
O4 Cd1 1_555 1_555
H16 O4 1_555 1_555
H17 O4 1_555 1_555
O5 Cd1 1_555 1_555
O6 Cd1 1_555 1_555
H18 O6 1_555 1_555
H19 O6 1_555 1_555
O7 Cd1 1_555 1_555
O8 H20 1_555 1_555
H21 O8 1_555 1_555
O9 C15 1_555 1_555
O10 Cd2 1_555 1_555
H22 O10 1_555 1_555
H23 O10 1_555 1_555
O11 C15 1_555 1_555
H24 O11 1_555 1_555
O12 Cd2 1_555 1_555
H25 O12 1_555 1_555
H26 O12 1_555 1_555
O13 C16 1_555 1_555
O14 Cd1 1_555 1_555
H27 O14 1_555 1_555
H28 O14 1_555 1_555
O15 C16 1_555 1_555
O16 C4 1_555 1_555
O17 Cd2 1_555 1_555
O18 Cd2 1_555 1_555
O19 C30 1_555 1_555
O20 C30 1_555 1_555
H29 O20 1_555 1_555
O21 C31 1_555 1_555
H30 O21 1_555 1_555
O22 C31 1_555 1_555
O23 C32 1_555 1_555
O24 C32 1_555 1_555
O25 C21 1_555 1_555
Cd1C O15 1_555 1_555
Cd2C O24 1_555 1_555
O15C Cd1 1_555 1_555
O24C Cd2 1_555 1_555
Cd2 O14 1_555 1_555
C5 C6 1_555 1_555
C10 O16 1_555 1_555
C11 C12 1_555 1_555
C14 O5 1_555 1_555
C14 O7 1_555 1_555
C21 C22 1_555 1_555
C26 O25 1_555 1_555
C27 C28 1_555 1_555
C29 O17 1_555 1_555
C29 O18 1_555 1_555

#END
