
#######################################################################
#
#                 Cambridge Crystallographic Data Centre
#                                CCDC 
#
#######################################################################
#
# If this CIF has been generated from an entry in the Cambridge 
# Structural Database, then it will include bibliographic, chemical, 
# crystal, experimental, refinement or atomic coordinate data resulting 
# from the CCDC's data processing and validation procedures.
#
#######################################################################

data_MOKTEN
_symmetry_cell_setting           orthorhombic
_symmetry_space_group_name_H-M   'P c c n'
_symmetry_Int_Tables_number      56
_space_group_name_Hall           '-P 2ab 2ac'
loop_
_symmetry_equiv_pos_site_id
_symmetry_equiv_pos_as_xyz
1 x,y,z
2 1/2-x,1/2-y,z
3 1/2+x,-y,1/2-z
4 -x,1/2+y,1/2-z
5 -x,-y,-z
6 1/2+x,1/2+y,-z
7 1/2-x,y,1/2+z
8 x,1/2-y,1/2+z
_cell_length_a                   17.903(4)
_cell_length_b                   8.7996(18)
_cell_length_c                   16.737(3)
_cell_angle_alpha                90
_cell_angle_beta                 90
_cell_angle_gamma                90
_cell_volume                     2636.73
loop_
_atom_site_label
_atom_site_type_symbol
_atom_site_fract_x
_atom_site_fract_y
_atom_site_fract_z
Se1 Se 0.56252(4) 0.84422(7) 0.07809(4)
Fe1 Fe 0.7500 1.2500 0.07635(6)
S1 S 0.51908(9) 1.75977(18) -0.16562(9)
N1 N 0.6728(3) 1.0916(5) 0.0766(3)
C1 C 0.6294(3) 0.9947(7) 0.0769(4)
N2 N 0.6901(3) 1.3639(5) -0.0089(3)
N3 N 0.6947(3) 2.1310(5) -0.3372(3)
C2 C 0.6149(3) 1.3663(6) -0.0073(4)
H1 H 0.5898 1.3172 0.0355
C3 C 0.5730(3) 1.4372(6) -0.0652(3)
H2 H 0.5201 1.4373 -0.0611
C4 C 0.6071(3) 1.5092(6) -0.1301(4)
C5 C 0.6842(4) 1.5070(7) -0.1305(4)
H3 H 0.7105 1.5551 -0.1728
C6 C 0.7235(3) 1.4358(7) -0.0703(3)
H4 H 0.7766 1.4377 -0.0722
C7 C 0.5617(4) 1.5802(7) -0.1953(4)
H5 H 0.5218 1.5085 -0.2116
H6 H 0.5941 1.5979 -0.2423
C8 C 0.5991(3) 1.8775(7) -0.1407(3)
H7 H 0.5843 1.9504 -0.0986
H8 H 0.6390 1.8120 -0.1186
C9 C 0.6300(3) 1.9646(7) -0.2106(3)
C10 C 0.6635(3) 1.8939(7) -0.2763(4)
H9 H 0.6657 1.7861 -0.2785
C11 C 0.6934(3) 1.9778(7) -0.3377(4)
H10 H 0.7139 1.9257 -0.3823
C12 C 0.6610(3) 2.2004(7) -0.2751(3)
H11 H 0.6595 2.3083 -0.2744
C13 C 0.6288(3) 2.1226(6) -0.2126(4)
H12 H 0.6056 2.1774 -0.1704
Se1A Se 0.93748(4) 1.65578(7) 0.07809(4)
S1A S 0.98092(9) 0.74023(18) -0.16562(9)
N1A N 0.8272(3) 1.4084(5) 0.0766(3)
C1A C 0.8706(3) 1.5053(7) 0.0769(4)
N2A N 0.8099(3) 1.1361(5) -0.0089(3)
N3A N 0.8053(3) 0.3690(5) -0.3372(3)
C2A C 0.8851(3) 1.1337(6) -0.0073(4)
H1A H 0.9102 1.1828 0.0355
C3A C 0.9270(3) 1.0628(6) -0.0652(3)
H2A H 0.9799 1.0627 -0.0611
C4A C 0.8929(3) 0.9908(6) -0.1301(4)
C5A C 0.8158(4) 0.9930(7) -0.1305(4)
H3A H 0.7895 0.9449 -0.1728
C6A C 0.7765(3) 1.0642(7) -0.0703(3)
H4A H 0.7234 1.0623 -0.0722
C7A C 0.9383(4) 0.9198(7) -0.1953(4)
H5A H 0.9782 0.9915 -0.2116
H6A H 0.9059 0.9021 -0.2423
C8A C 0.9009(3) 0.6225(7) -0.1407(3)
H7A H 0.9157 0.5496 -0.0986
H8A H 0.8610 0.6880 -0.1186
C9A C 0.8700(3) 0.5354(7) -0.2106(3)
C10A C 0.8365(3) 0.6061(7) -0.2763(4)
H9A H 0.8343 0.7139 -0.2785
C11A C 0.8066(3) 0.5222(7) -0.3377(4)
H10A H 0.7861 0.5743 -0.3823
C12A C 0.8390(3) 0.2996(7) -0.2751(3)
H11A H 0.8405 0.1917 -0.2744
C13A C 0.8712(3) 0.3774(6) -0.2126(4)
H12A H 0.8944 0.3226 -0.1704
Fe1F Fe 0.7500 0.2500 -0.42365(6)
Fe1F_2 Fe 0.7500 2.2500 -0.42365(6)
N3F N 0.8053(3) 1.1310(5) 0.1628(3)
N3G N 0.6947(3) 1.3690(5) 0.1628(3)
loop_
_geom_bond_atom_site_label_1
_geom_bond_atom_site_label_2
_geom_bond_site_symmetry_1
_geom_bond_site_symmetry_2
Se1 C1 1_555 1_555
Fe1 N1 1_555 1_555
S1 C7 1_555 1_555
N1 C1 1_555 1_555
N2 Fe1 1_555 1_555
N3 C11 1_555 1_555
C2 N2 1_555 1_555
H1 C2 1_555 1_555
C3 C2 1_555 1_555
H2 C3 1_555 1_555
C4 C3 1_555 1_555
C5 C4 1_555 1_555
H3 C5 1_555 1_555
C6 N2 1_555 1_555
H4 C6 1_555 1_555
C7 C4 1_555 1_555
H5 C7 1_555 1_555
H6 C7 1_555 1_555
C8 S1 1_555 1_555
H7 C8 1_555 1_555
H8 C8 1_555 1_555
C9 C8 1_555 1_555
C10 C9 1_555 1_555
H9 C10 1_555 1_555
C11 C10 1_555 1_555
H10 C11 1_555 1_555
C12 N3 1_555 1_555
H11 C12 1_555 1_555
C13 C9 1_555 1_555
H12 C13 1_555 1_555
Se1A C1A 1_555 1_555
S1A C7A 1_555 1_555
N1A Fe1 1_555 1_555
C1A N1A 1_555 1_555
N2A Fe1 1_555 1_555
N3A C11A 1_555 1_555
C2A N2A 1_555 1_555
H1A C2A 1_555 1_555
C3A C2A 1_555 1_555
H2A C3A 1_555 1_555
C4A C3A 1_555 1_555
C5A C4A 1_555 1_555
H3A C5A 1_555 1_555
C6A N2A 1_555 1_555
H4A C6A 1_555 1_555
C7A C4A 1_555 1_555
H5A C7A 1_555 1_555
H6A C7A 1_555 1_555
C8A S1A 1_555 1_555
H7A C8A 1_555 1_555
H8A C8A 1_555 1_555
C9A C8A 1_555 1_555
C10A C9A 1_555 1_555
H9A C10A 1_555 1_555
C11A C10A 1_555 1_555
H10A C11A 1_555 1_555
C12A N3A 1_555 1_555
H11A C12A 1_555 1_555
C13A C9A 1_555 1_555
H12A C13A 1_555 1_555
Fe1F N3A 1_555 1_555
Fe1F_2 N3 1_555 1_555
N3F Fe1 1_555 1_555
N3G Fe1 1_555 1_555
C5 C6 1_555 1_555
C12 C13 1_555 1_555
C5A C6A 1_555 1_555
C12A C13A 1_555 1_555

#END
