
#######################################################################
#
#                 Cambridge Crystallographic Data Centre
#                                CCDC 
#
#######################################################################
#
# If this CIF has been generated from an entry in the Cambridge 
# Structural Database, then it will include bibliographic, chemical, 
# crystal, experimental, refinement or atomic coordinate data resulting 
# from the CCDC's data processing and validation procedures.
#
#######################################################################

data_MOKTOX
_symmetry_cell_setting           orthorhombic
_symmetry_space_group_name_H-M   'P c c n'
_symmetry_Int_Tables_number      56
_space_group_name_Hall           '-P 2ab 2ac'
loop_
_symmetry_equiv_pos_site_id
_symmetry_equiv_pos_as_xyz
1 x,y,z
2 1/2-x,1/2-y,z
3 1/2+x,-y,1/2-z
4 -x,1/2+y,1/2-z
5 -x,-y,-z
6 1/2+x,1/2+y,-z
7 1/2-x,y,1/2+z
8 x,1/2-y,1/2+z
_cell_length_a                   18.147(3)
_cell_length_b                   8.9231(17)
_cell_length_c                   16.955(3)
_cell_angle_alpha                90
_cell_angle_beta                 90
_cell_angle_gamma                90
_cell_volume                     2745.48
loop_
_atom_site_label
_atom_site_type_symbol
_atom_site_fract_x
_atom_site_fract_y
_atom_site_fract_z
Fe1 Fe 0.7500 1.2500 0.07772(5)
S1 S 0.51579(7) 1.76031(16) -0.16305(8)
S2 S 0.56694(10) 0.8511(2) 0.08141(10)
N1 N 0.6695(2) 1.0816(5) 0.0773(3)
C1 C 0.6275(3) 0.9852(6) 0.0785(3)
N2 N 0.6908(2) 2.1228(4) -0.3290(2)
N3 N 0.6843(2) 1.3694(4) -0.0136(2)
C2 C 0.6574(3) 2.1894(6) -0.2683(3)
H1 H 0.6553 2.2946 -0.2680
C3 C 0.6259(3) 2.1138(5) -0.2063(3)
H2 H 0.6031 2.1673 -0.1653
C4 C 0.6279(3) 1.9597(5) -0.2043(3)
C5 C 0.6617(3) 1.8887(6) -0.2678(3)
H3 H 0.6643 1.7836 -0.2695
C6 C 0.6910(3) 1.9722(6) -0.3277(3)
H4 H 0.7125 1.9213 -0.3705
C7 C 0.5948(3) 1.8733(6) -0.1362(3)
H5 H 0.5800 1.9444 -0.0951
H6 H 0.6328 1.8078 -0.1137
C8 C 0.5559(3) 1.5852(6) -0.1948(3)
H7 H 0.5163 1.5172 -0.2110
H8 H 0.5871 1.6038 -0.2409
C9 C 0.6011(3) 1.5101(5) -0.1322(3)
C10 C 0.5675(3) 1.4349(5) -0.0698(3)
H9 H 0.5158 1.4309 -0.0663
C11 C 0.6102(3) 1.3667(6) -0.0134(3)
H10 H 0.5864 1.3153 0.0277
C12 C 0.7164(3) 1.4422(6) -0.0733(3)
H11 H 0.7681 1.4466 -0.0747
C13 C 0.6773(3) 1.5111(6) -0.1329(3)
H12 H 0.7026 1.5590 -0.1741
S1A S 0.98421(7) 0.73969(16) -0.16305(8)
S2A S 0.93306(10) 1.6489(2) 0.08141(10)
N1A N 0.8305(2) 1.4184(5) 0.0773(3)
C1A C 0.8725(3) 1.5148(6) 0.0785(3)
N2A N 0.8092(2) 0.3772(4) -0.3290(2)
N3A N 0.8157(2) 1.1306(4) -0.0136(2)
C2A C 0.8426(3) 0.3106(6) -0.2683(3)
H1A H 0.8447 0.2054 -0.2680
C3A C 0.8741(3) 0.3862(5) -0.2063(3)
H2A H 0.8969 0.3327 -0.1653
C4A C 0.8721(3) 0.5403(5) -0.2043(3)
C5A C 0.8383(3) 0.6113(6) -0.2678(3)
H3A H 0.8357 0.7164 -0.2695
C6A C 0.8090(3) 0.5278(6) -0.3277(3)
H4A H 0.7875 0.5787 -0.3705
C7A C 0.9052(3) 0.6267(6) -0.1362(3)
H5A H 0.9200 0.5556 -0.0951
H6A H 0.8672 0.6922 -0.1137
C8A C 0.9441(3) 0.9148(6) -0.1948(3)
H7A H 0.9837 0.9828 -0.2110
H8A H 0.9129 0.8962 -0.2409
C9A C 0.8989(3) 0.9899(5) -0.1322(3)
C10A C 0.9325(3) 1.0651(5) -0.0698(3)
H9A H 0.9842 1.0691 -0.0663
C11A C 0.8898(3) 1.1333(6) -0.0134(3)
H10A H 0.9136 1.1847 0.0277
C12A C 0.7836(3) 1.0578(6) -0.0733(3)
H11A H 0.7319 1.0534 -0.0747
C13A C 0.8227(3) 0.9889(6) -0.1329(3)
H12A H 0.7974 0.9410 -0.1741
Fe1F Fe 0.7500 0.2500 -0.42228(5)
Fe1F_2 Fe 0.7500 2.2500 -0.42228(5)
N2F N 0.8092(2) 1.1228(4) 0.1710(2)
N2G N 0.6908(2) 1.3772(4) 0.1710(2)
loop_
_geom_bond_atom_site_label_1
_geom_bond_atom_site_label_2
_geom_bond_site_symmetry_1
_geom_bond_site_symmetry_2
Fe1 N1 1_555 1_555
S1 C7 1_555 1_555
S2 C1 1_555 1_555
N1 C1 1_555 1_555
N2 C2 1_555 1_555
N3 Fe1 1_555 1_555
C2 H1 1_555 1_555
C3 C2 1_555 1_555
H2 C3 1_555 1_555
C4 C3 1_555 1_555
C5 C4 1_555 1_555
H3 C5 1_555 1_555
C6 N2 1_555 1_555
H4 C6 1_555 1_555
C7 C4 1_555 1_555
H5 C7 1_555 1_555
H6 C7 1_555 1_555
C8 S1 1_555 1_555
H7 C8 1_555 1_555
H8 C8 1_555 1_555
C9 C8 1_555 1_555
C10 C9 1_555 1_555
H9 C10 1_555 1_555
C11 N3 1_555 1_555
H10 C11 1_555 1_555
C12 N3 1_555 1_555
H11 C12 1_555 1_555
C13 C9 1_555 1_555
H12 C13 1_555 1_555
S1A C7A 1_555 1_555
S2A C1A 1_555 1_555
N1A Fe1 1_555 1_555
C1A N1A 1_555 1_555
N2A C2A 1_555 1_555
N3A Fe1 1_555 1_555
C2A H1A 1_555 1_555
C3A C2A 1_555 1_555
H2A C3A 1_555 1_555
C4A C3A 1_555 1_555
C5A C4A 1_555 1_555
H3A C5A 1_555 1_555
C6A N2A 1_555 1_555
H4A C6A 1_555 1_555
C7A C4A 1_555 1_555
H5A C7A 1_555 1_555
H6A C7A 1_555 1_555
C8A S1A 1_555 1_555
H7A C8A 1_555 1_555
H8A C8A 1_555 1_555
C9A C8A 1_555 1_555
C10A C9A 1_555 1_555
H9A C10A 1_555 1_555
C11A N3A 1_555 1_555
H10A C11A 1_555 1_555
C12A N3A 1_555 1_555
H11A C12A 1_555 1_555
C13A C9A 1_555 1_555
H12A C13A 1_555 1_555
Fe1F N2A 1_555 1_555
Fe1F_2 N2 1_555 1_555
N2F Fe1 1_555 1_555
N2G Fe1 1_555 1_555
C5 C6 1_555 1_555
C10 C11 1_555 1_555
C12 C13 1_555 1_555
C5A C6A 1_555 1_555
C10A C11A 1_555 1_555
C12A C13A 1_555 1_555

#END
