
#######################################################################
#
#                 Cambridge Crystallographic Data Centre
#                                CCDC 
#
#######################################################################
#
# If this CIF has been generated from an entry in the Cambridge 
# Structural Database, then it will include bibliographic, chemical, 
# crystal, experimental, refinement or atomic coordinate data resulting 
# from the CCDC's data processing and validation procedures.
#
#######################################################################

data_MOKXOB
_symmetry_cell_setting           monoclinic
_symmetry_space_group_name_H-M   'P 21/c'
_symmetry_Int_Tables_number      14
_space_group_name_Hall           '-P 2ybc'
loop_
_symmetry_equiv_pos_site_id
_symmetry_equiv_pos_as_xyz
1 x,y,z
2 -x,1/2+y,1/2-z
3 -x,-y,-z
4 x,1/2-y,1/2+z
_cell_length_a                   9.8685(16)
_cell_length_b                   9.5552(15)
_cell_length_c                   22.722(4)
_cell_angle_alpha                90
_cell_angle_beta                 99.109(3)
_cell_angle_gamma                90
_cell_volume                     2115.56
loop_
_atom_site_label
_atom_site_type_symbol
_atom_site_fract_x
_atom_site_fract_y
_atom_site_fract_z
O1 O 0.3045(3) 0.9091(2) 0.29632(11)
O2 O 0.1314(3) 1.0167(2) 0.24148(11)
C1 C 0.1862(4) 0.9101(4) 0.26682(15)
Cd1 Cd 0.33494(3) 0.14844(3) 0.274319(11)
O3 O 0.1668(2) 0.6545(2) 0.28422(10)
N1 N 0.3603(3) 0.1618(3) 0.17785(12)
C2 C 0.2327(4) 0.3699(4) 0.32665(16)
N2 N 0.5544(3) 0.1694(3) 0.32029(12)
O4 O 0.2747(3) 0.3904(2) 0.27924(12)
N3 N 0.7668(3) 0.1189(3) 0.36067(12)
C3 C 0.5143(3) 0.3655(4) 0.02377(15)
N4 N 0.4372(3) 0.1912(3) 0.09298(13)
C4 C 0.1689(4) 0.4570(4) 0.42083(16)
H1 H 0.1873 0.3666 0.4350
C5 C 0.1834(3) 0.4871(3) 0.36248(15)
C6 C 0.4692(4) 0.1883(3) 0.15246(16)
H2 H 0.5570 0.2031 0.1733
C7 C 0.6516(4) 0.0741(4) 0.32726(16)
H3 H 0.6412 -0.0149 0.3107
C8 C 0.5564(4) 0.4803(4) 0.05877(16)
H4 H 0.5946 0.4681 0.0985
C9 C 0.1156(4) 0.7231(3) 0.38047(17)
H5 H 0.0976 0.8143 0.3672
C10 C 0.1545(3) 0.6241(3) 0.34131(15)
O5 O 0.2313(3) 0.2492(2) 0.34849(11)
C11 C 0.8628(4) -0.0218(3) 0.47863(16)
H6 H 0.7699 -0.0358 0.4648
C12 C 0.5303(4) 0.2194(4) 0.05018(17)
H7 H 0.5134 0.1514 0.0181
H8 H 0.6241 0.2073 0.0699
C13 C 0.9477(4) 0.0249(3) 0.43999(15)
C14 C 0.9147(4) -0.0479(3) 0.53767(16)
H9 H 0.8566 -0.0814 0.5629
C15 C 0.8957(4) 0.0422(4) 0.37421(16)
H10 H 0.9650 0.0907 0.3561
H11 H 0.8835 -0.0498 0.3561
C16 C 0.2543(4) 0.1472(4) 0.13189(16)
H12 H 0.1641 0.1268 0.1359
C17 C 0.1031(4) 0.6896(4) 0.43804(17)
H13 H 0.0774 0.7580 0.4632
C18 C 0.1282(4) 0.5559(4) 0.45870(17)
H14 H 0.1181 0.5323 0.4975
C19 C 0.6121(4) 0.2832(4) 0.35076(17)
H15 H 0.5682 0.3684 0.3538
C20 C 0.2999(4) 0.1667(4) 0.07986(16)
H16 H 0.2476 0.1641 0.0420
C21 C 0.4582(4) 0.3861(4) -0.03481(16)
H17 H 0.4295 0.3094 -0.0588
C22 C 0.7426(4) 0.2540(4) 0.37586(17)
H18 H 0.8038 0.3139 0.3989
C23 C 0.1009(4) 0.7777(3) 0.25807(15)
H19 H 0.0174 0.7924 0.2747
H20 H 0.0746 0.7618 0.2156
N1B N 0.6397(3) 0.8382(3) -0.17785(12)
C3B C 0.4857(3) 0.6345(4) -0.02377(15)
N4B N 0.5628(3) 0.8088(3) -0.09298(13)
C6B C 0.5308(4) 0.8117(3) -0.15246(16)
H2B H 0.4430 0.7969 -0.1733
C8B C 0.4436(4) 0.5197(4) -0.05877(16)
H4B H 0.4054 0.5319 -0.0985
C12B C 0.4697(4) 0.7806(4) -0.05018(17)
H7B H 0.4866 0.8486 -0.0181
H8B H 0.3759 0.7927 -0.0699
C16B C 0.7457(4) 0.8528(4) -0.13189(16)
H12B H 0.8359 0.8732 -0.1359
C20B C 0.7001(4) 0.8333(4) -0.07986(16)
H16B H 0.7524 0.8359 -0.0420
C21B C 0.5418(4) 0.6139(4) 0.03481(16)
H17B H 0.5705 0.6906 0.0588
N2B N 1.4456(3) -0.1694(3) 0.67971(12)
N3B N 1.2332(3) -0.1189(3) 0.63933(12)
C7B C 1.3484(4) -0.0741(4) 0.67274(16)
H3B H 1.3588 0.0149 0.6893
C11B C 1.1372(4) 0.0218(3) 0.52137(16)
H6B H 1.2301 0.0358 0.5352
C13B C 1.0523(4) -0.0249(3) 0.56001(15)
C14B C 1.0853(4) 0.0479(3) 0.46233(16)
H9B H 1.1434 0.0814 0.4371
C15B C 1.1043(4) -0.0422(4) 0.62579(16)
H10B H 1.0350 -0.0907 0.6439
H11B H 1.1165 0.0498 0.6439
C19B C 1.3879(4) -0.2832(4) 0.64924(17)
H15B H 1.4318 -0.3684 0.6462
C22B C 1.2574(4) -0.2540(4) 0.62414(17)
H18B H 1.1962 -0.3139 0.6011
O1B O 0.6955(3) 0.0909(2) -0.29632(11)
O2B O 0.8686(3) -0.0167(2) -0.24148(11)
C1B C 0.8138(4) 0.0899(4) -0.26682(15)
Cd1B Cd 0.66506(3) 0.85156(3) -0.274319(11)
O3B O 0.8332(2) 0.3455(2) -0.28422(10)
C2B C 0.7673(4) 0.6301(4) -0.32665(16)
O4B O 0.7253(3) 0.6096(2) -0.27924(12)
C4B C 0.8311(4) 0.5430(4) -0.42083(16)
H1B H 0.8127 0.6334 -0.4350
C5B C 0.8166(3) 0.5129(3) -0.36248(15)
C9B C 0.8844(4) 0.2769(3) -0.38047(17)
H5B H 0.9024 0.1857 -0.3672
C10B C 0.8455(3) 0.3759(3) -0.34131(15)
O5B O 0.7687(3) 0.7508(2) -0.34849(11)
C17B C 0.8969(4) 0.3104(4) -0.43804(17)
H13B H 0.9226 0.2420 -0.4632
C18B C 0.8718(4) 0.4441(4) -0.45870(17)
H14B H 0.8819 0.4677 -0.4975
C23B C 0.8991(4) 0.2223(3) -0.25807(15)
H19B H 0.9826 0.2076 -0.2747
H20B H 0.9254 0.2382 -0.2156
O1_2 O 0.3045(3) -0.0909(2) 0.29632(11)
O1B_2 O 0.6955(3) 1.0909(2) -0.29632(11)
O2_2 O 0.1314(3) 0.0167(2) 0.24148(11)
O2B_2 O 0.8686(3) 0.9833(2) -0.24148(11)
Cd1_2 Cd 0.33494(3) 1.14844(3) 0.274319(11)
Cd1B_2 Cd 0.66506(3) -0.14844(3) -0.274319(11)
Cd1B_3 Cd 1.66506(3) -0.14844(3) 0.725681(11)
N2B_2 N 0.4456(3) 0.8306(3) -0.32029(12)
loop_
_geom_bond_atom_site_label_1
_geom_bond_atom_site_label_2
_geom_bond_site_symmetry_1
_geom_bond_site_symmetry_2
O1 C1 1_555 1_555
O2 C1 1_555 1_555
C1 C23 1_555 1_555
Cd1 N1 1_555 1_555
O3 C10 1_555 1_555
N1 C6 1_555 1_555
C2 O4 1_555 1_555
N2 Cd1 1_555 1_555
O4 Cd1 1_555 1_555
N3 C7 1_555 1_555
C3 C8 1_555 1_555
N4 C6 1_555 1_555
C4 H1 1_555 1_555
C5 C2 1_555 1_555
C6 H2 1_555 1_555
C7 N2 1_555 1_555
H3 C7 1_555 1_555
C8 H4 1_555 1_555
C9 H5 1_555 1_555
C10 C5 1_555 1_555
O5 Cd1 1_555 1_555
C11 H6 1_555 1_555
C12 C3 1_555 1_555
H7 C12 1_555 1_555
H8 C12 1_555 1_555
C13 C11 1_555 1_555
C14 C11 1_555 1_555
H9 C14 1_555 1_555
C15 N3 1_555 1_555
H10 C15 1_555 1_555
H11 C15 1_555 1_555
C16 N1 1_555 1_555
H12 C16 1_555 1_555
C17 C9 1_555 1_555
H13 C17 1_555 1_555
C18 C4 1_555 1_555
H14 C18 1_555 1_555
C19 N2 1_555 1_555
H15 C19 1_555 1_555
C20 N4 1_555 1_555
H16 C20 1_555 1_555
C21 C3 1_555 1_555
H17 C21 1_555 1_555
C22 N3 1_555 1_555
H18 C22 1_555 1_555
C23 O3 1_555 1_555
H19 C23 1_555 1_555
H20 C23 1_555 1_555
N1B C6B 1_555 1_555
C3B C8B 1_555 1_555
N4B C6B 1_555 1_555
C6B H2B 1_555 1_555
C8B C21 1_555 1_555
H4B C8B 1_555 1_555
C12B C3B 1_555 1_555
H7B C12B 1_555 1_555
H8B C12B 1_555 1_555
C16B N1B 1_555 1_555
H12B C16B 1_555 1_555
C20B N4B 1_555 1_555
H16B C20B 1_555 1_555
C21B C8 1_555 1_555
H17B C21B 1_555 1_555
N2B C7B 1_555 1_555
N3B C7B 1_555 1_555
C7B H3B 1_555 1_555
C11B H6B 1_555 1_555
C13B C14 1_555 1_555
C14B C13 1_555 1_555
H9B C14B 1_555 1_555
C15B N3B 1_555 1_555
H10B C15B 1_555 1_555
H11B C15B 1_555 1_555
C19B N2B 1_555 1_555
H15B C19B 1_555 1_555
C22B N3B 1_555 1_555
H18B C22B 1_555 1_555
O1B C1B 1_555 1_555
O2B C1B 1_555 1_555
C1B C23B 1_555 1_555
Cd1B N1B 1_555 1_555
O3B C10B 1_555 1_555
C2B O4B 1_555 1_555
O4B Cd1B 1_555 1_555
C4B H1B 1_555 1_555
C5B C2B 1_555 1_555
C9B H5B 1_555 1_555
C10B C5B 1_555 1_555
O5B Cd1B 1_555 1_555
C17B C9B 1_555 1_555
H13B C17B 1_555 1_555
C18B C4B 1_555 1_555
H14B C18B 1_555 1_555
C23B O3B 1_555 1_555
H19B C23B 1_555 1_555
H20B C23B 1_555 1_555
O1_2 Cd1 1_555 1_555
O1B_2 Cd1B 1_555 1_555
O2_2 Cd1 1_555 1_555
O2B_2 Cd1B 1_555 1_555
Cd1_2 O1 1_555 1_555
Cd1B_2 O1B 1_555 1_555
Cd1B_3 N2B 1_555 1_555
N2B_2 Cd1B 1_555 1_555
O2 Cd1_2 1_555 1_555
C2 O5 1_555 1_555
N4 C12 1_555 1_555
C4 C5 1_555 1_555
C9 C10 1_555 1_555
C13 C15 1_555 1_555
C16 C20 1_555 1_555
C17 C18 1_555 1_555
C19 C22 1_555 1_555
C3B C21B 1_555 1_555
N4B C12B 1_555 1_555
C16B C20B 1_555 1_555
C11B C13B 1_555 1_555
C11B C14B 1_555 1_555
C13B C15B 1_555 1_555
C19B C22B 1_555 1_555
O2B Cd1B_2 1_555 1_555
C2B O5B 1_555 1_555
C4B C5B 1_555 1_555
C9B C10B 1_555 1_555
C17B C18B 1_555 1_555

#END
