
#######################################################################
#
#                 Cambridge Crystallographic Data Centre
#                                CCDC 
#
#######################################################################
#
# If this CIF has been generated from an entry in the Cambridge 
# Structural Database, then it will include bibliographic, chemical, 
# crystal, experimental, refinement or atomic coordinate data resulting 
# from the CCDC's data processing and validation procedures.
#
#######################################################################

data_MOKZOC01
_symmetry_cell_setting           monoclinic
_symmetry_space_group_name_H-M   'P 21/c'
_symmetry_Int_Tables_number      14
_space_group_name_Hall           '-P 2ybc'
loop_
_symmetry_equiv_pos_site_id
_symmetry_equiv_pos_as_xyz
1 x,y,z
2 -x,1/2+y,1/2-z
3 -x,-y,-z
4 x,1/2-y,1/2+z
_cell_length_a                   10.4643(5)
_cell_length_b                   5.1867(3)
_cell_length_c                   12.0396(6)
_cell_angle_alpha                90
_cell_angle_beta                 106.110(3)
_cell_angle_gamma                90
_cell_volume                     627.791
loop_
_atom_site_label
_atom_site_type_symbol
_atom_site_fract_x
_atom_site_fract_y
_atom_site_fract_z
C1 C 0.6226(3) 0.7052(5) 0.2193(3)
Cd1 Cd 0.76861(2) 0.21548(4) 0.231322(17)
N1 N 0.60810(2) 0.3902(4) 0.07534(19)
O1 O 0.68780(2) 0.5609(4) 0.29225(17)
C2 C 0.55530(3) 0.5977(5) 0.10240(2)
N2 N 0.90300(2) 0.0794(4) 0.40569(19)
O2 O 0.60590(2) 0.9299(4) 0.23135(18)
C3 C 0.44770(3) 0.7072(5) 0.0269(3)
H1 H 0.41320 0.8515 0.0474
O3 O 0.95910(2) 0.4518(4) 0.27813(17)
C4 C 1.05100(3) 0.3850(5) 0.3608(2)
O4 O 1.16750(2) 0.4685(4) 0.39035(17)
C5 C 1.02370(3) 0.1815(5) 0.4355(2)
C6 C 0.87950(3) -0.1032(5) 0.4697(2)
H2 H 0.79670 -0.1789 0.4503
C1B C 0.3774(3) 0.2948(5) -0.2193(3)
Cd1B Cd 0.23139(2) 0.78452(4) -0.231322(17)
Cd1_2 Cd 0.76861(2) 1.21548(4) 0.231322(17)
Cd1A Cd 1.23139(2) 0.71548(4) 0.268678(17)
Cd1B_2 Cd 0.23139(2) -0.21548(4) -0.231322(17)
Cd1B_3 Cd 1.23139(2) -0.21548(4) 0.768678(17)
Cd1C Cd 0.76861(2) -0.71548(4) 0.731322(17)
N1B N 0.39190(2) 0.6098(4) -0.07534(19)
O1B O 0.31220(2) 0.4391(4) -0.29225(17)
C2B C 0.44470(3) 0.4023(5) -0.10240(2)
N2B N 1.09700(2) -0.0794(4) 0.59431(19)
N2B_2 N 0.09700(2) 0.9206(4) -0.40569(19)
O2B O 0.39410(2) 0.0701(4) -0.23135(18)
O2_2 O 0.60590(2) -0.0701(4) 0.23135(18)
O2B_2 O 0.39410(2) 1.0701(4) -0.23135(18)
C3B C 0.55230(3) 0.2928(5) -0.0269(3)
H1B H 0.58680 0.1485 -0.0474
O3B O 1.04090(2) -0.4518(4) 0.72187(17)
O3B_2 O 0.04090(2) 0.5482(4) -0.27813(17)
C4B C 0.94900(3) -0.3850(5) 0.6392(2)
O4B O 0.83250(2) -0.4685(4) 0.60965(17)
O4A O 0.83250(2) -0.0315(4) 0.10965(17)
O4C O 0.16750(2) 1.0315(4) -0.10965(17)
C5B C 0.97630(3) -0.1815(5) 0.5645(2)
C6B C 1.12050(3) 0.1032(5) 0.5303(2)
H2B H 1.20330 0.1789 0.5497
loop_
_geom_bond_atom_site_label_1
_geom_bond_atom_site_label_2
_geom_bond_site_symmetry_1
_geom_bond_site_symmetry_2
C1 O1 1_555 1_555
Cd1 N1 1_555 1_555
N1 C2 1_555 1_555
O1 Cd1 1_555 1_555
C2 C1 1_555 1_555
N2 Cd1 1_555 1_555
O2 C1 1_555 1_555
C3 C2 1_555 1_555
H1 C3 1_555 1_555
O3 Cd1 1_555 1_555
C4 O3 1_555 1_555
O4 C4 1_555 1_555
C5 N2 1_555 1_555
C6 N2 1_555 1_555
H2 C6 1_555 1_555
C1B O1B 1_555 1_555
Cd1B N1B 1_555 1_555
Cd1_2 O2 1_555 1_555
Cd1A O4 1_555 1_555
Cd1B_2 O2B 1_555 1_555
Cd1B_3 N2B 1_555 1_555
Cd1C O4B 1_555 1_555
N1B C3 1_555 1_555
O1B Cd1B 1_555 1_555
C2B C1B 1_555 1_555
N2B C5B 1_555 1_555
N2B_2 Cd1B 1_555 1_555
O2B C1B 1_555 1_555
O2_2 Cd1 1_555 1_555
O2B_2 Cd1B 1_555 1_555
C3B N1 1_555 1_555
H1B C3B 1_555 1_555
O3B Cd1B_3 1_555 1_555
O3B_2 Cd1B 1_555 1_555
C4B O3B 1_555 1_555
O4B C4B 1_555 1_555
O4A Cd1 1_555 1_555
O4C Cd1B 1_555 1_555
C5B C6 1_555 1_555
C6B C5 1_555 1_555
H2B C6B 1_555 1_555
C4 C5 1_555 1_555
N1B C2B 1_555 1_555
C2B C3B 1_555 1_555
N2B C6B 1_555 1_555
C4B C5B 1_555 1_555

#END
