
#######################################################################
#
#                 Cambridge Crystallographic Data Centre
#                                CCDC 
#
#######################################################################
#
# If this CIF has been generated from an entry in the Cambridge 
# Structural Database, then it will include bibliographic, chemical, 
# crystal, experimental, refinement or atomic coordinate data resulting 
# from the CCDC's data processing and validation procedures.
#
#######################################################################

data_MOLBEV
_symmetry_cell_setting           monoclinic
_symmetry_space_group_name_H-M   'P 21/c'
_symmetry_Int_Tables_number      14
_space_group_name_Hall           '-P 2ybc'
loop_
_symmetry_equiv_pos_site_id
_symmetry_equiv_pos_as_xyz
1 x,y,z
2 -x,1/2+y,1/2-z
3 -x,-y,-z
4 x,1/2-y,1/2+z
_cell_length_a                   13.3646(5)
_cell_length_b                   10.2517(5)
_cell_length_c                   22.0744(11)
_cell_angle_alpha                90
_cell_angle_beta                 101.920(3)
_cell_angle_gamma                90
_cell_volume                     2959.2
loop_
_atom_site_label
_atom_site_type_symbol
_atom_site_fract_x
_atom_site_fract_y
_atom_site_fract_z
Co1 Co 0.5000 0.5000 0.5000
O1 O 0.54485(16) 0.6287(2) 0.44000(10)
O2 O 0.4306(2) 0.3875(3) 0.42348(14)
O3 O 0.35165(19) 0.5880(2) 0.48968(13)
P1 P 0.57808(6) 0.75211(8) 0.41424(4)
C1 C 0.4865(2) 0.7956(3) 0.34467(14)
C2 C 0.4853(3) 0.9172(3) 0.31660(15)
H1 H 0.5322 0.9829 0.3347
C3 C 0.4150(3) 0.9421(4) 0.26199(16)
H2 H 0.4132 1.0258 0.2433
C4 C 0.3482(3) 0.8470(4) 0.23466(16)
H3 H 0.3011 0.8650 0.1971
C5 C 0.3494(3) 0.7253(4) 0.26164(17)
H4 H 0.3040 0.6592 0.2423
C6 C 0.4174(2) 0.7000(3) 0.31727(16)
H5 H 0.4168 0.6173 0.3366
C7 C 0.6986(2) 0.7318(3) 0.39050(14)
C8 C 0.7564(3) 0.8375(3) 0.37793(16)
H6 H 0.7341 0.9238 0.3835
C9 C 0.8462(3) 0.8176(4) 0.35742(18)
H7 H 0.8856 0.8901 0.3492
C10 C 0.8787(3) 0.6921(4) 0.34885(17)
H8 H 0.9394 0.6786 0.3337
C11 C 0.8234(3) 0.5869(4) 0.36224(16)
H9 H 0.8468 0.5009 0.3571
C12 C 0.7328(2) 0.6060(3) 0.38335(15)
H10 H 0.6948 0.5331 0.3928
C13 C 0.5917(2) 0.8894(3) 0.46526(15)
H11 H 0.6374 0.8647 0.5048
H12 H 0.6253 0.9608 0.4468
C14 C 0.4915(2) 0.9404(3) 0.47897(15)
H13 H 0.4446 0.9635 0.4396
H14 H 0.4587 0.8707 0.4991
C15 C 0.4691(4) 0.3186(5) 0.3773(2)
H15 H 0.4865 0.2290 0.3926
H16 H 0.5336 0.3611 0.3724
C16 C 0.4003(4) 0.3090(5) 0.3144(2)
H17 H 0.3351 0.2694 0.3182
H18 H 0.4330 0.2549 0.2874
H19 H 0.3878 0.3964 0.2965
H34 H 0.387(4) 0.366(5) 0.431(2)
H35 H 0.312(4) 0.527(5) 0.480(2)
H36 H 0.332(4) 0.630(5) 0.512(2)
Co1_2 Co 0.5000 1.5000 0.5000
O1B O 0.45515(16) 1.3713(2) 0.56000(10)
O1B_2 O 0.45515(16) 0.3713(2) 0.56000(10)
O2B O 0.5694(2) 0.6125(3) 0.57652(14)
O3B O 0.64835(19) 0.4120(2) 0.51032(13)
P1B P 0.42192(6) 1.24789(8) 0.58576(4)
C1B C 0.5135(2) 1.2044(3) 0.65533(14)
C2B C 0.5147(3) 1.0828(3) 0.68340(15)
H1B H 0.4678 1.0171 0.6653
C3B C 0.5850(3) 1.0579(4) 0.73801(16)
H2B H 0.5868 0.9742 0.7567
C4B C 0.6518(3) 1.1530(4) 0.76534(16)
H3B H 0.6989 1.1350 0.8029
C5B C 0.6506(3) 1.2747(4) 0.73836(17)
H4B H 0.6960 1.3408 0.7577
C6B C 0.5826(2) 1.3000(3) 0.68273(16)
H5B H 0.5832 1.3827 0.6634
C7B C 0.3014(2) 1.2682(3) 0.60950(14)
C8B C 0.2436(3) 1.1625(3) 0.62207(16)
H6B H 0.2659 1.0762 0.6165
C9B C 0.1538(3) 1.1824(4) 0.64258(18)
H7B H 0.1144 1.1099 0.6508
C10B C 0.1213(3) 1.3079(4) 0.65115(17)
H8B H 0.0606 1.3214 0.6663
C11B C 0.1766(3) 1.4131(4) 0.63776(16)
H9B H 0.1532 1.4991 0.6429
C12B C 0.2672(2) 1.3940(3) 0.61665(15)
H10B H 0.3052 1.4669 0.6072
C13B C 0.4083(2) 1.1106(3) 0.53474(15)
H11B H 0.3626 1.1353 0.4952
H12B H 0.3747 1.0392 0.5532
C14B C 0.5085(2) 1.0596(3) 0.52103(15)
H13B H 0.5554 1.0365 0.5604
H14B H 0.5413 1.1293 0.5009
C15B C 0.5309(4) 0.6814(5) 0.6227(2)
H15B H 0.5135 0.7710 0.6074
H16B H 0.4664 0.6389 0.6276
C16B C 0.5997(4) 0.6910(5) 0.6856(2)
H17B H 0.6649 0.7306 0.6818
H18B H 0.5670 0.7451 0.7126
H19B H 0.6122 0.6036 0.7035
H34B H 0.613(4) 0.634(5) 0.569(2)
H35B H 0.688(4) 0.473(5) 0.520(2)
H36B H 0.668(4) 0.370(5) 0.488(2)
O4 O 0.3272(2) 0.8543(3) 0.60046(15)
O5 O 0.1757(2) 0.8484(3) 0.61870(14)
O6 O 0.2302(2) 0.6910(3) 0.56933(13)
N1 N 0.2435(2) 0.7981(3) 0.59612(14)
O7 O 0.24660(16) 0.3599(2) 0.45024(10)
P2 P 0.14325(6) 0.30089(8) 0.42649(4)
C17 C 0.1521(2) 0.1263(3) 0.42010(15)
C18 C 0.1122(3) 0.0406(3) 0.45741(18)
H20 H 0.0718 0.0727 0.4849
C19 C 0.1310(3) -0.0914(4) 0.4548(2)
H21 H 0.1028 -0.1496 0.4803
C20 C 0.1899(3) -0.1399(4) 0.41594(18)
H22 H 0.2028 -0.2309 0.4148
C21 C 0.2303(3) -0.0557(4) 0.37860(18)
H23 H 0.2711 -0.0886 0.3516
C22 C 0.2112(3) 0.0762(3) 0.38053(16)
H24 H 0.2388 0.1337 0.3545
C23 C 0.0881(2) 0.3648(3) 0.35034(15)
C24 C -0.0060(2) 0.3220(3) 0.31819(16)
H25 H -0.0412 0.2547 0.3348
C25 C -0.0487(3) 0.3779(3) 0.26152(16)
H26 H -0.1134 0.3489 0.2392
C26 C 0.0026(3) 0.4757(3) 0.23738(17)
H27 H -0.0269 0.5138 0.1986
C27 C 0.0963(3) 0.5177(4) 0.26960(17)
H28 H 0.1315 0.5846 0.2527
C28 C 0.1399(3) 0.4638(3) 0.32624(16)
H29 H 0.2044 0.4937 0.3485
C29 C 0.0525(2) 0.3377(3) 0.47389(15)
H30 H -0.0149 0.3005 0.4546
H31 H 0.0750 0.2966 0.5150
C30 C 0.0416(2) 0.4846(3) 0.48197(15)
H32 H 0.0244 0.5267 0.4408
H33 H 0.1076 0.5209 0.5043
O7B O -0.24660(16) 0.6401(2) 0.54976(10)
P2B P -0.14325(6) 0.69911(8) 0.57351(4)
C17B C -0.1521(2) 0.8737(3) 0.57990(15)
C18B C -0.1122(3) 0.9594(3) 0.54259(18)
H20B H -0.0718 0.9273 0.5151
C19B C -0.1310(3) 1.0914(4) 0.5452(2)
H21B H -0.1028 1.1496 0.5197
C20B C -0.1899(3) 1.1399(4) 0.58406(18)
H22B H -0.2028 1.2309 0.5852
C21B C -0.2303(3) 1.0557(4) 0.62140(18)
H23B H -0.2711 1.0886 0.6484
C22B C -0.2112(3) 0.9238(3) 0.61947(16)
H24B H -0.2388 0.8663 0.6455
C23B C -0.0881(2) 0.6352(3) 0.64966(15)
C24B C 0.0060(2) 0.6780(3) 0.68181(16)
H25B H 0.0412 0.7453 0.6652
C25B C 0.0487(3) 0.6221(3) 0.73848(16)
H26B H 0.1134 0.6511 0.7608
C26B C -0.0026(3) 0.5243(3) 0.76262(17)
H27B H 0.0269 0.4862 0.8014
C27B C -0.0963(3) 0.4823(4) 0.73040(17)
H28B H -0.1315 0.4154 0.7473
C28B C -0.1399(3) 0.5362(3) 0.67376(16)
H29B H -0.2044 0.5063 0.6515
C29B C -0.0525(2) 0.6623(3) 0.52611(15)
H30B H 0.0149 0.6995 0.5454
H31B H -0.0750 0.7034 0.4850
C30B C -0.0416(2) 0.5154(3) 0.51803(15)
H32B H -0.0244 0.4733 0.5592
H33B H -0.1076 0.4791 0.4957
loop_
_geom_bond_atom_site_label_1
_geom_bond_atom_site_label_2
_geom_bond_site_symmetry_1
_geom_bond_site_symmetry_2
Co1 O1 1_555 1_555
O1 P1 1_555 1_555
O2 Co1 1_555 1_555
O3 Co1 1_555 1_555
O4 N1 1_555 1_555
O5 N1 1_555 1_555
O6 N1 1_555 1_555
O7 P2 1_555 1_555
P1 C1 1_555 1_555
P2 C17 1_555 1_555
C1 C2 1_555 1_555
C2 H1 1_555 1_555
C3 C2 1_555 1_555
H2 C3 1_555 1_555
C4 C3 1_555 1_555
H3 C4 1_555 1_555
C5 C4 1_555 1_555
H4 C5 1_555 1_555
C6 C1 1_555 1_555
H5 C6 1_555 1_555
C7 P1 1_555 1_555
C8 C7 1_555 1_555
H6 C8 1_555 1_555
C9 C8 1_555 1_555
H7 C9 1_555 1_555
C10 C9 1_555 1_555
H8 C10 1_555 1_555
C11 C10 1_555 1_555
H9 C11 1_555 1_555
C12 C7 1_555 1_555
H10 C12 1_555 1_555
C13 P1 1_555 1_555
H11 C13 1_555 1_555
H12 C13 1_555 1_555
C14 C13 1_555 1_555
H13 C14 1_555 1_555
H14 C14 1_555 1_555
C15 O2 1_555 1_555
H15 C15 1_555 1_555
H16 C15 1_555 1_555
C16 C15 1_555 1_555
H17 C16 1_555 1_555
H18 C16 1_555 1_555
H19 C16 1_555 1_555
C17 C18 1_555 1_555
C18 H20 1_555 1_555
C19 C18 1_555 1_555
H21 C19 1_555 1_555
C20 C19 1_555 1_555
H22 C20 1_555 1_555
C21 C20 1_555 1_555
H23 C21 1_555 1_555
C22 C17 1_555 1_555
H24 C22 1_555 1_555
C23 P2 1_555 1_555
C24 C23 1_555 1_555
H25 C24 1_555 1_555
C25 C24 1_555 1_555
H26 C25 1_555 1_555
C26 C25 1_555 1_555
H27 C26 1_555 1_555
C27 C26 1_555 1_555
H28 C27 1_555 1_555
C28 C23 1_555 1_555
H29 C28 1_555 1_555
C29 P2 1_555 1_555
H30 C29 1_555 1_555
H31 C29 1_555 1_555
C30 C29 1_555 1_555
H32 C30 1_555 1_555
H33 C30 1_555 1_555
H34 O2 1_555 1_555
H35 O3 1_555 1_555
H36 O3 1_555 1_555
Co1_2 O1B 1_555 1_555
O1B P1B 1_555 1_555
O1B_2 Co1 1_555 1_555
O2B Co1 1_555 1_555
O3B Co1 1_555 1_555
O7B P2B 1_555 1_555
P1B C1B 1_555 1_555
P2B C17B 1_555 1_555
C1B C2B 1_555 1_555
C2B H1B 1_555 1_555
C3B C2B 1_555 1_555
H2B C3B 1_555 1_555
C4B C3B 1_555 1_555
H3B C4B 1_555 1_555
C5B C4B 1_555 1_555
H4B C5B 1_555 1_555
C6B C1B 1_555 1_555
H5B C6B 1_555 1_555
C7B P1B 1_555 1_555
C8B C7B 1_555 1_555
H6B C8B 1_555 1_555
C9B C8B 1_555 1_555
H7B C9B 1_555 1_555
C10B C9B 1_555 1_555
H8B C10B 1_555 1_555
C11B C10B 1_555 1_555
H9B C11B 1_555 1_555
C12B C7B 1_555 1_555
H10B C12B 1_555 1_555
C13B P1B 1_555 1_555
H11B C13B 1_555 1_555
H12B C13B 1_555 1_555
C14B C14 1_555 1_555
H13B C14B 1_555 1_555
H14B C14B 1_555 1_555
C15B O2B 1_555 1_555
H15B C15B 1_555 1_555
H16B C15B 1_555 1_555
C16B C15B 1_555 1_555
H17B C16B 1_555 1_555
H18B C16B 1_555 1_555
H19B C16B 1_555 1_555
C17B C18B 1_555 1_555
C18B H20B 1_555 1_555
C19B C18B 1_555 1_555
H21B C19B 1_555 1_555
C20B C19B 1_555 1_555
H22B C20B 1_555 1_555
C21B C20B 1_555 1_555
H23B C21B 1_555 1_555
C22B C17B 1_555 1_555
H24B C22B 1_555 1_555
C23B P2B 1_555 1_555
C24B C23B 1_555 1_555
H25B C24B 1_555 1_555
C25B C24B 1_555 1_555
H26B C25B 1_555 1_555
C26B C25B 1_555 1_555
H27B C26B 1_555 1_555
C27B C26B 1_555 1_555
H28B C27B 1_555 1_555
C28B C23B 1_555 1_555
H29B C28B 1_555 1_555
C29B P2B 1_555 1_555
H30B C29B 1_555 1_555
H31B C29B 1_555 1_555
C30B C30 1_555 1_555
H32B C30B 1_555 1_555
H33B C30B 1_555 1_555
H34B O2B 1_555 1_555
H35B O3B 1_555 1_555
H36B O3B 1_555 1_555
C5 C6 1_555 1_555
C11 C12 1_555 1_555
C21 C22 1_555 1_555
C27 C28 1_555 1_555
C5B C6B 1_555 1_555
C11B C12B 1_555 1_555
C13B C14B 1_555 1_555
C21B C22B 1_555 1_555
C27B C28B 1_555 1_555
C29B C30B 1_555 1_555

#END
