
#######################################################################
#
#                 Cambridge Crystallographic Data Centre
#                                CCDC 
#
#######################################################################
#
# If this CIF has been generated from an entry in the Cambridge 
# Structural Database, then it will include bibliographic, chemical, 
# crystal, experimental, refinement or atomic coordinate data resulting 
# from the CCDC's data processing and validation procedures.
#
#######################################################################

data_MOLCOH
_symmetry_cell_setting           monoclinic
_symmetry_space_group_name_H-M   'P 21/c'
_symmetry_Int_Tables_number      14
_space_group_name_Hall           '-P 2ybc'
loop_
_symmetry_equiv_pos_site_id
_symmetry_equiv_pos_as_xyz
1 x,y,z
2 -x,1/2+y,1/2-z
3 -x,-y,-z
4 x,1/2-y,1/2+z
_cell_length_a                   18.7463(10)
_cell_length_b                   10.4921(5)
_cell_length_c                   7.5090(3)
_cell_angle_alpha                90
_cell_angle_beta                 99.420(2)
_cell_angle_gamma                90
_cell_volume                     1457.01
loop_
_atom_site_label
_atom_site_type_symbol
_atom_site_fract_x
_atom_site_fract_y
_atom_site_fract_z
C1 C 0.29046(11) 0.37720(18) 0.0265(2)
C2 C 0.28922(11) 0.24502(19) 0.0366(3)
H1 H 0.3309 0.1975 0.0213
C3 C 0.22798(12) 0.1824(2) 0.0686(3)
H2 H 0.2276 0.0920 0.0757
C4 C 0.16748(12) 0.2507(2) 0.0904(3)
H3 H 0.1257 0.2070 0.1145
C5 C 0.16657(12) 0.3824(2) 0.0775(3)
H4 H 0.1242 0.4289 0.0904
C6 C 0.22837(11) 0.44564(18) 0.0456(3)
C7 C 0.17529(11) 0.76945(19) 0.0597(3)
C8 C 0.23565(11) 0.83477(19) 0.0046(3)
C9 C 0.11515(12) 0.8465(2) 0.1061(3)
C10 C 0.00483(13) 0.8474(3) 0.2149(4)
H5 H -0.0305 0.7882 0.2519
H6 H -0.0187 0.8995 0.1138
H7 H 0.0240 0.9028 0.3166
N1 N 0.22849(9) 0.57939(16) 0.0317(2)
H8 H 0.2652 0.6187 -0.0037
N2 N 0.17392(9) 0.64544(16) 0.0715(2)
N3 N 0.28687(10) 0.87487(18) -0.0393(3)
O1 O 0.41060(8) 0.47351(13) 0.18670(18)
O2 O 0.35551(7) 0.56896(13) -0.09469(18)
O3 O 0.41202(7) 0.36130(13) -0.09487(18)
O4 O 0.11388(9) 0.96062(14) 0.0971(3)
O5 O 0.06364(8) 0.77562(15) 0.1592(2)
O6 O 0.54853(7) 0.23098(13) 0.19416(18)
O7 O 0.42967(8) 0.48886(13) 0.57854(18)
Na1 Na 0.48174(4) 0.33757(7) 0.40132(10)
S1 S 0.37395(3) 0.45048(4) 0.00428(6)
H9 H 0.3900(9) 0.518(2) 0.533(3)
H10 H 0.4242 0.4592 0.6784
H11 H 0.5688 0.1618 0.2392
H12 H 0.5798 0.2815 0.1649
O3C O 0.41202(7) 0.13870(13) 0.40513(18)
O6C O 0.54853(7) 0.26902(13) 0.69416(18)
O7B O 0.57033(8) 0.51114(13) 0.42146(18)
Na1B Na 0.51826(4) 0.66243(7) 0.59868(10)
Na1C Na 0.48174(4) 0.16243(7) -0.09868(10)
loop_
_geom_bond_atom_site_label_1
_geom_bond_atom_site_label_2
_geom_bond_site_symmetry_1
_geom_bond_site_symmetry_2
C1 C2 1_555 1_555
C2 H1 1_555 1_555
C3 C2 1_555 1_555
H2 C3 1_555 1_555
C4 C3 1_555 1_555
H3 C4 1_555 1_555
C5 C4 1_555 1_555
H4 C5 1_555 1_555
C6 C1 1_555 1_555
C7 C8 1_555 1_555
C8 N3 1_555 1_555
C9 C7 1_555 1_555
C10 H5 1_555 1_555
H6 C10 1_555 1_555
H7 C10 1_555 1_555
N1 C6 1_555 1_555
H8 N1 1_555 1_555
N2 C7 1_555 1_555
O1 Na1 1_555 1_555
O2 S1 1_555 1_555
O3 S1 1_555 1_555
O4 C9 1_555 1_555
O5 C9 1_555 1_555
O6 Na1 1_555 1_555
O7 Na1 1_555 1_555
Na1 O3C 1_555 1_555
S1 C1 1_555 1_555
H9 O7 1_555 1_555
H10 O7 1_555 1_555
H11 O6 1_555 1_555
H12 O6 1_555 1_555
O6C Na1 1_555 1_555
O7B Na1 1_555 1_555
Na1B O7 1_555 1_555
Na1C O3 1_555 1_555
C5 C6 1_555 1_555
C10 O5 1_555 1_555
N1 N2 1_555 1_555
O1 S1 1_555 1_555
O6 Na1C 1_555 1_555
O7B Na1B 1_555 1_555

#END
