
#######################################################################
#
#                 Cambridge Crystallographic Data Centre
#                                CCDC 
#
#######################################################################
#
# If this CIF has been generated from an entry in the Cambridge 
# Structural Database, then it will include bibliographic, chemical, 
# crystal, experimental, refinement or atomic coordinate data resulting 
# from the CCDC's data processing and validation procedures.
#
#######################################################################

data_MOLCEW
_symmetry_cell_setting           triclinic
_symmetry_space_group_name_H-M   'P -1'
_symmetry_Int_Tables_number      2
_space_group_name_Hall           '-P 1'
loop_
_symmetry_equiv_pos_site_id
_symmetry_equiv_pos_as_xyz
1 x,y,z
2 -x,-y,-z
_cell_length_a                   9.0933(4)
_cell_length_b                   9.5887(5)
_cell_length_c                   10.0058(5)
_cell_angle_alpha                92.2999(7)
_cell_angle_beta                 111.9705(6)
_cell_angle_gamma                105.6443(7)
_cell_volume                     769.328
loop_
_atom_site_label
_atom_site_type_symbol
_atom_site_fract_x
_atom_site_fract_y
_atom_site_fract_z
Co1 Co 1.0000 0.5000 0.5000
N1 N 1.00772(14) 0.64830(12) 0.66911(12)
C1 C 1.01890(18) 0.60773(15) 0.79794(15)
H1 H 1.0145 0.5091 0.8099
C2 C 1.03664(18) 0.70288(15) 0.91484(15)
H2 H 1.0469 0.6699 1.0052
C3 C 1.03933(18) 0.84696(15) 0.89905(15)
C4 C 1.02532(19) 0.88863(15) 0.76420(15)
H3 H 1.0255 0.9856 0.7480
C5 C 1.01111(18) 0.78745(15) 0.65403(15)
H4 H 1.0034 0.8180 0.5631
C6 C 1.0565(2) 0.95237(17) 1.02381(15)
H5 H 1.1736 1.0161 1.0712
H6 H 1.0303 0.8960 1.0971
C13 C 0.65325(16) 0.11282(13) 0.55581(13)
C14 C 0.51056(16) 0.13905(13) 0.56013(14)
C15 C 0.64049(16) -0.02621(14) 0.49690(14)
H13 H 0.7375 -0.0447 0.4955
C16 C 0.81693(16) 0.23255(13) 0.59562(13)
C17 C 0.51163(17) 0.28302(14) 0.62758(15)
O1 O 0.80913(11) 0.34027(10) 0.52823(10)
O2 O 0.94715(12) 0.21110(11) 0.68265(11)
O3 O 0.64417(12) 0.35290(11) 0.74026(11)
H14 H 0.636(3) 0.468(3) 0.791(3)
O4 O 0.38682(13) 0.32279(12) 0.57544(13)
O5 O 1.17975(12) 0.42847(11) 0.65954(10)
H15 H 1.248(3) 0.402(2) 0.632(2)
H16 H 1.124(3) 0.356(2) 0.672(2)
Co1_2 Co 1.0000 1.5000 1.5000
Co1_3 Co 0.0000 -0.5000 0.5000
N1A N 0.99228(14) 1.35170(12) 1.33089(12)
N1A_2 N 0.99228(14) 0.35170(12) 0.33089(12)
C1A C 0.98110(18) 1.39227(15) 1.20206(15)
H1A H 0.9855 1.4909 1.1901
C2A C 0.96336(18) 1.29712(15) 1.08516(15)
H2A H 0.9531 1.3301 0.9948
C3A C 0.96067(18) 1.15304(15) 1.10095(15)
C4A C 0.97468(19) 1.11137(15) 1.23580(15)
H3A H 0.9745 1.0144 1.2520
C5A C 0.98889(18) 1.21255(15) 1.34597(15)
H4A H 0.9966 1.1820 1.4369
C6A C 0.9435(2) 1.04763(17) 0.97619(15)
H5A H 0.8264 0.9839 0.9288
H6A H 0.9697 1.1040 0.9029
C13A C 0.34675(16) -0.11282(13) 0.44419(13)
C14A C 0.48944(16) -0.13905(13) 0.43987(14)
C15A C 0.35951(16) 0.02621(14) 0.50310(14)
H13A H 0.2625 0.0447 0.5045
C16A C 0.18307(16) -0.23255(13) 0.40438(13)
C17A C 0.48837(17) -0.28302(14) 0.37242(15)
O1A O 0.19087(11) -0.34027(10) 0.47177(10)
O1A_2 O 1.19087(11) 0.65973(10) 0.47177(10)
O2A O 0.05285(12) -0.21110(11) 0.31735(11)
O3A O 0.35583(12) -0.35290(11) 0.25974(11)
H14A H 0.364(3) -0.468(3) 0.209(3)
O4A O 0.61318(13) -0.32279(12) 0.42456(13)
O5A O 0.82025(12) 0.57153(11) 0.34046(10)
H15A H 0.752(3) 0.598(2) 0.368(2)
H16A H 0.876(3) 0.644(2) 0.328(2)
N2 N 0.61075(15) 0.58527(13) 0.84643(13)
C7 C 0.52451(19) 0.66391(16) 0.76178(16)
H7 H 0.4868 0.6408 0.6589
C8 C 0.4878(2) 0.77847(16) 0.81846(16)
H8 H 0.4253 0.8319 0.7549
C9 C 0.54274(17) 0.81441(15) 0.96850(15)
C10 C 0.6322(2) 0.73079(16) 1.05508(15)
H9 H 0.6719 0.7515 1.1583
C11 C 0.6632(2) 0.61772(16) 0.99128(16)
H10 H 0.7237 0.5612 1.0521
C12 C 0.5060(2) 0.93506(16) 1.04066(16)
H11 H 0.5948 0.9711 1.1400
H12 H 0.3996 0.8928 1.0511
N2A N 0.38925(15) 1.41473(13) 1.15357(13)
C7A C 0.47549(19) 1.33609(16) 1.23822(16)
H7A H 0.5132 1.3592 1.3411
C8A C 0.5122(2) 1.22153(16) 1.18154(16)
H8A H 0.5747 1.1681 1.2451
C9A C 0.45726(17) 1.18559(15) 1.03150(15)
C10A C 0.3678(2) 1.26921(16) 0.94492(15)
H9A H 0.3281 1.2485 0.8417
C11A C 0.3368(2) 1.38228(16) 1.00872(16)
H10A H 0.2763 1.4388 0.9479
C12A C 0.4940(2) 1.06494(16) 0.95934(16)
H11A H 0.4052 1.0289 0.8600
H12A H 0.6004 1.1072 0.9489
loop_
_geom_bond_atom_site_label_1
_geom_bond_atom_site_label_2
_geom_bond_site_symmetry_1
_geom_bond_site_symmetry_2
Co1 N1 1_555 1_555
N1 C1 1_555 1_555
C1 H1 1_555 1_555
C2 C1 1_555 1_555
H2 C2 1_555 1_555
C3 C2 1_555 1_555
C4 C3 1_555 1_555
H3 C4 1_555 1_555
C5 N1 1_555 1_555
H4 C5 1_555 1_555
C6 C3 1_555 1_555
H5 C6 1_555 1_555
H6 C6 1_555 1_555
N2 C7 1_555 1_555
C7 H7 1_555 1_555
C8 C7 1_555 1_555
H8 C8 1_555 1_555
C9 C8 1_555 1_555
C10 C9 1_555 1_555
H9 C10 1_555 1_555
C11 N2 1_555 1_555
H10 C11 1_555 1_555
C12 C9 1_555 1_555
H11 C12 1_555 1_555
H12 C12 1_555 1_555
C13 C14 1_555 1_555
C14 C17 1_555 1_555
C15 C13 1_555 1_555
H13 C15 1_555 1_555
C16 C13 1_555 1_555
C17 O3 1_555 1_555
O1 Co1 1_555 1_555
O2 C16 1_555 1_555
O3 H14 1_555 1_555
O4 C17 1_555 1_555
O5 Co1 1_555 1_555
H15 O5 1_555 1_555
H16 O5 1_555 1_555
Co1_2 N1A 1_555 1_555
Co1_3 O1A 1_555 1_555
N1A C1A 1_555 1_555
N1A_2 Co1 1_555 1_555
C1A H1A 1_555 1_555
C2A C1A 1_555 1_555
H2A C2A 1_555 1_555
C3A C2A 1_555 1_555
C4A C3A 1_555 1_555
H3A C4A 1_555 1_555
C5A N1A 1_555 1_555
H4A C5A 1_555 1_555
C6A C6 1_555 1_555
H5A C6A 1_555 1_555
H6A C6A 1_555 1_555
N2A C7A 1_555 1_555
C7A H7A 1_555 1_555
C8A C7A 1_555 1_555
H8A C8A 1_555 1_555
C9A C8A 1_555 1_555
C10A C9A 1_555 1_555
H9A C10A 1_555 1_555
C11A N2A 1_555 1_555
H10A C11A 1_555 1_555
C12A C12 1_555 1_555
H11A C12A 1_555 1_555
H12A C12A 1_555 1_555
C13A C14A 1_555 1_555
C14A C15 1_555 1_555
C15A C14 1_555 1_555
H13A C15A 1_555 1_555
C16A C13A 1_555 1_555
C17A C14A 1_555 1_555
O1A C16A 1_555 1_555
O1A_2 Co1 1_555 1_555
O2A C16A 1_555 1_555
O3A C17A 1_555 1_555
H14A O3A 1_555 1_555
O4A C17A 1_555 1_555
O5A Co1 1_555 1_555
H15A O5A 1_555 1_555
H16A O5A 1_555 1_555
C4 C5 1_555 1_555
C10 C11 1_555 1_555
C16 O1 1_555 1_555
C3A C6A 1_555 1_555
C4A C5A 1_555 1_555
C9A C12A 1_555 1_555
C10A C11A 1_555 1_555
C13A C15A 1_555 1_555

#END
