
#######################################################################
#
#                 Cambridge Crystallographic Data Centre
#                                CCDC 
#
#######################################################################
#
# If this CIF has been generated from an entry in the Cambridge 
# Structural Database, then it will include bibliographic, chemical, 
# crystal, experimental, refinement or atomic coordinate data resulting 
# from the CCDC's data processing and validation procedures.
#
#######################################################################

data_MOLCIA
_symmetry_cell_setting           triclinic
_symmetry_space_group_name_H-M   'P -1'
_symmetry_Int_Tables_number      2
_space_group_name_Hall           '-P 1'
loop_
_symmetry_equiv_pos_site_id
_symmetry_equiv_pos_as_xyz
1 x,y,z
2 -x,-y,-z
_cell_length_a                   8.954(2)
_cell_length_b                   11.371(3)
_cell_length_c                   17.066(4)
_cell_angle_alpha                73.45(2)
_cell_angle_beta                 85.55(2)
_cell_angle_gamma                74.93(2)
_cell_volume                     1608.31
loop_
_atom_site_label
_atom_site_type_symbol
_atom_site_fract_x
_atom_site_fract_y
_atom_site_fract_z
Co1 Co 0.20784(5) 0.87358(4) 0.68868(3)
N1 N 0.2500(3) 0.9471(2) 0.78647(16)
N2 N 0.4177(3) 0.9272(3) 0.65006(17)
N3 N 0.3405(3) 0.7030(2) 0.76702(16)
N4 N 0.0174(3) 0.8473(2) 0.76802(16)
N5 N 0.0826(3) 1.0534(2) 0.61974(17)
N6 N -0.1746(3) 1.2062(2) 0.39804(17)
C1 C 0.3325(4) 1.0465(3) 0.7486(2)
H1 H 0.3806 1.0673 0.7916
H2 H 0.2587 1.1243 0.7179
C2 C 0.4555(4) 0.9991(3) 0.6916(2)
C3 C 0.5972(5) 1.0314(4) 0.6789(3)
H3 H 0.6232 1.0813 0.7094
C4 C 0.6986(5) 0.9902(5) 0.6221(3)
H4 H 0.7949 1.0124 0.6121
C5 C 0.6594(5) 0.9164(5) 0.5798(3)
H5 H 0.7280 0.8868 0.5403
C6 C 0.5186(4) 0.8861(4) 0.5957(2)
H6 H 0.4922 0.8340 0.5669
C7 C 0.3458(4) 0.8432(3) 0.8514(2)
H7 H 0.2869 0.8351 0.9034
H8 H 0.4404 0.8682 0.8591
C8 C 0.3932(3) 0.7154(3) 0.8348(2)
C9 C 0.4869(4) 0.6146(3) 0.8900(2)
H9 H 0.5249 0.6262 0.9370
C10 C 0.5241(4) 0.4972(3) 0.8758(2)
H10 H 0.5871 0.4263 0.9132
C11 C 0.4690(4) 0.4835(3) 0.8068(2)
H11 H 0.4928 0.4032 0.7961
C12 C 0.3788(4) 0.5884(3) 0.7534(2)
H12 H 0.3424 0.5792 0.7052
C13 C 0.0963(4) 0.9988(3) 0.8189(2)
H13 H 0.0479 1.0827 0.7819
H14 H 0.1082 1.0100 0.8733
C14 C -0.0057(4) 0.9101(3) 0.8259(2)
C15 C -0.1190(4) 0.8950(3) 0.8857(2)
H15 H -0.1330 0.9394 0.9262
C16 C -0.2100(4) 0.8156(4) 0.8855(2)
H16 H -0.2881 0.8042 0.9259
C17 C -0.1873(4) 0.7523(4) 0.8263(2)
H17 H -0.2502 0.6973 0.8250
C18 C -0.0717(4) 0.7697(3) 0.7686(2)
H18 H -0.0554 0.7249 0.7282
C19 C -0.0781(4) 1.4850(3) 0.43865(19)
H19 H -0.1324 1.4755 0.3961
C20 C 0.0595(4) 1.3975(3) 0.56439(19)
H20 H 0.1009 1.3273 0.6093
C21 C -0.0179(4) 1.3789(3) 0.50363(19)
C22 C -0.0370(4) 1.2525(3) 0.50693(19)
C23 C 0.0284(4) 1.1444(3) 0.5697(2)
C24 C -0.1122(4) 1.2293(3) 0.4470(2)
Co1A Co -0.20784(5) 2.12642(4) 0.31132(3)
Co1A_2 Co -0.20784(5) 1.12642(4) 0.31132(3)
Co1_2 Co 0.20784(5) 1.87358(4) 0.68868(3)
N1A N -0.2500(3) 2.0529(2) 0.21353(16)
N2A N -0.4177(3) 2.0728(3) 0.34994(17)
N3A N -0.3405(3) 2.2970(2) 0.23298(16)
N4A N -0.0174(3) 2.1527(2) 0.23198(16)
N5A N -0.0826(3) 1.9466(2) 0.38026(17)
N6A N 0.1746(3) 1.7938(2) 0.60196(17)
N6A_2 N 0.1746(3) 0.7938(2) 0.60196(17)
N6_2 N -0.1746(3) 2.2062(2) 0.39804(17)
C1A C -0.3325(4) 1.9535(3) 0.2514(2)
H1A H -0.3806 1.9327 0.2084
H2A H -0.2587 1.8757 0.2821
C2A C -0.4555(4) 2.0009(3) 0.3084(2)
C3A C -0.5972(5) 1.9686(4) 0.3211(3)
H3A H -0.6232 1.9187 0.2906
C4A C -0.6986(5) 2.0098(5) 0.3779(3)
H4A H -0.7949 1.9876 0.3879
C5A C -0.6594(5) 2.0836(5) 0.4202(3)
H5A H -0.7280 2.1132 0.4597
C6A C -0.5186(4) 2.1139(4) 0.4043(2)
H6A H -0.4922 2.1660 0.4331
C7A C -0.3458(4) 2.1568(3) 0.1486(2)
H7A H -0.2869 2.1649 0.0966
H8A H -0.4404 2.1318 0.1409
C8A C -0.3932(3) 2.2846(3) 0.1652(2)
C9A C -0.4869(4) 2.3854(3) 0.1100(2)
H9A H -0.5249 2.3738 0.0630
C10A C -0.5241(4) 2.5028(3) 0.1242(2)
H10A H -0.5871 2.5737 0.0868
C11A C -0.4690(4) 2.5165(3) 0.1932(2)
H11A H -0.4928 2.5968 0.2039
C12A C -0.3788(4) 2.4116(3) 0.2466(2)
H12A H -0.3424 2.4208 0.2948
C13A C -0.0963(4) 2.0012(3) 0.1811(2)
H13A H -0.0479 1.9173 0.2181
H14A H -0.1082 1.9900 0.1267
C14A C 0.0057(4) 2.0899(3) 0.1741(2)
C15A C 0.1190(4) 2.1050(3) 0.1143(2)
H15A H 0.1330 2.0606 0.0738
C16A C 0.2100(4) 2.1844(4) 0.1145(2)
H16A H 0.2881 2.1958 0.0741
C17A C 0.1873(4) 2.2477(4) 0.1737(2)
H17A H 0.2502 2.3027 0.1750
C18A C 0.0717(4) 2.2303(3) 0.2314(2)
H18A H 0.0554 2.2751 0.2718
C19A C 0.0781(4) 1.5150(3) 0.56135(19)
H19A H 0.1324 1.5245 0.6039
C20A C -0.0595(4) 1.6025(3) 0.43561(19)
H20A H -0.1009 1.6727 0.3907
C21A C 0.0179(4) 1.6211(3) 0.49637(19)
C22A C 0.0370(4) 1.7475(3) 0.49307(19)
C23A C -0.0284(4) 1.8556(3) 0.4303(2)
C24A C 0.1122(4) 1.7707(3) 0.5530(2)
N7 N 0.2256(4) 0.7811(3) 0.2649(2)
N8 N 0.2310(4) 0.3843(3) 0.3167(2)
C25 C 0.4473(4) 0.4053(3) 0.4844(2)
H21 H 0.4106 0.3399 0.4741
C26 C 0.4047(4) 0.5287(3) 0.4305(2)
C27 C 0.4613(4) 0.6228(3) 0.4496(2)
H22 H 0.4346 0.7073 0.4155
C28 C 0.3111(4) 0.5569(3) 0.3610(2)
C29 C 0.2624(4) 0.6803(4) 0.3085(3)
C30 C 0.2652(4) 0.4610(4) 0.3379(2)
N7A N 0.7744(4) 0.2189(3) 0.7351(2)
N8A N 0.7690(4) 0.6157(3) 0.6833(2)
C25A C 0.5527(4) 0.5947(3) 0.5156(2)
H21A H 0.5894 0.6601 0.5259
C26A C 0.5953(4) 0.4713(3) 0.5695(2)
C27A C 0.5387(4) 0.3772(3) 0.5504(2)
H22A H 0.5654 0.2927 0.5845
C28A C 0.6889(4) 0.4431(3) 0.6390(2)
C29A C 0.7376(4) 0.3197(4) 0.6915(3)
C30A C 0.7348(4) 0.5390(4) 0.6621(2)
N9 N 0.1751(4) 0.8205(3) 0.05181(19)
N10 N -0.1577(4) 0.6569(3) 0.2295(2)
C31 C 0.1037(4) 0.5759(3) -0.0188(2)
H23 H 0.1748 0.6279 -0.0320
C32 C 0.0048(4) 0.5800(3) 0.0500(2)
C33 C -0.0986(4) 0.5012(3) 0.0663(2)
H24 H -0.1668 0.5018 0.1117
C34 C 0.0084(4) 0.6611(3) 0.0991(2)
C35 C 0.0995(4) 0.7496(3) 0.0755(2)
C36 C -0.0819(4) 0.6593(3) 0.1715(2)
N9A N -0.1751(4) 0.1795(3) -0.05181(19)
N10A N 0.1577(4) 0.3431(3) -0.2295(2)
C31A C -0.1037(4) 0.4241(3) 0.0188(2)
H23A H -0.1748 0.3721 0.0320
C32A C -0.0048(4) 0.4200(3) -0.0500(2)
C33A C 0.0986(4) 0.4988(3) -0.0663(2)
H24A H 0.1668 0.4982 -0.1117
C34A C -0.0084(4) 0.3389(3) -0.0991(2)
C35A C -0.0995(4) 0.2504(3) -0.0755(2)
C36A C 0.0819(4) 0.3407(3) -0.1715(2)
O1 O 0.4918(4) 0.8168(4) 0.0244(2)
H25 H 0.3959 0.8258 0.0308
C37 C 0.5486(6) 0.8571(4) 0.0831(3)
H26 H 0.6197 0.9096 0.0572
H27 H 0.6038 0.7833 0.1251
H28 H 0.4624 0.9068 0.1083
loop_
_geom_bond_atom_site_label_1
_geom_bond_atom_site_label_2
_geom_bond_site_symmetry_1
_geom_bond_site_symmetry_2
Co1 N1 1_555 1_555
N1 C1 1_555 1_555
N2 Co1 1_555 1_555
N3 Co1 1_555 1_555
N4 Co1 1_555 1_555
N5 Co1 1_555 1_555
N6 C24 1_555 1_555
N7 C29 1_555 1_555
N8 C30 1_555 1_555
N9 C35 1_555 1_555
N10 C36 1_555 1_555
C1 H1 1_555 1_555
H2 C1 1_555 1_555
C2 N2 1_555 1_555
C3 C2 1_555 1_555
H3 C3 1_555 1_555
C4 C3 1_555 1_555
H4 C4 1_555 1_555
C5 C4 1_555 1_555
H5 C5 1_555 1_555
C6 N2 1_555 1_555
H6 C6 1_555 1_555
C7 N1 1_555 1_555
H7 C7 1_555 1_555
H8 C7 1_555 1_555
C8 N3 1_555 1_555
C9 C8 1_555 1_555
H9 C9 1_555 1_555
C10 C9 1_555 1_555
H10 C10 1_555 1_555
C11 C10 1_555 1_555
H11 C11 1_555 1_555
C12 N3 1_555 1_555
H12 C12 1_555 1_555
C13 N1 1_555 1_555
H13 C13 1_555 1_555
H14 C13 1_555 1_555
C14 N4 1_555 1_555
C15 C14 1_555 1_555
H15 C15 1_555 1_555
C16 C15 1_555 1_555
H16 C16 1_555 1_555
C17 C16 1_555 1_555
H17 C17 1_555 1_555
C18 N4 1_555 1_555
H18 C18 1_555 1_555
C19 H19 1_555 1_555
C20 H20 1_555 1_555
C21 C19 1_555 1_555
C22 C21 1_555 1_555
C23 N5 1_555 1_555
C24 C22 1_555 1_555
C25 H21 1_555 1_555
C26 C25 1_555 1_555
C27 C26 1_555 1_555
H22 C27 1_555 1_555
C28 C26 1_555 1_555
C29 C28 1_555 1_555
C30 C28 1_555 1_555
C31 H23 1_555 1_555
C32 C31 1_555 1_555
C33 C32 1_555 1_555
H24 C33 1_555 1_555
C34 C32 1_555 1_555
C35 C34 1_555 1_555
C36 C34 1_555 1_555
O1 H25 1_555 1_555
C37 O1 1_555 1_555
H26 C37 1_555 1_555
H27 C37 1_555 1_555
H28 C37 1_555 1_555
Co1A N1A 1_555 1_555
Co1A_2 N6 1_555 1_555
Co1_2 N6A 1_555 1_555
N1A C1A 1_555 1_555
N2A Co1A 1_555 1_555
N3A Co1A 1_555 1_555
N4A Co1A 1_555 1_555
N5A Co1A 1_555 1_555
N6A C24A 1_555 1_555
N6A_2 Co1 1_555 1_555
N6_2 Co1A 1_555 1_555
N7A C29A 1_555 1_555
N8A C30A 1_555 1_555
N9A C35A 1_555 1_555
N10A C36A 1_555 1_555
C1A H1A 1_555 1_555
H2A C1A 1_555 1_555
C2A N2A 1_555 1_555
C3A C2A 1_555 1_555
H3A C3A 1_555 1_555
C4A C3A 1_555 1_555
H4A C4A 1_555 1_555
C5A C4A 1_555 1_555
H5A C5A 1_555 1_555
C6A N2A 1_555 1_555
H6A C6A 1_555 1_555
C7A N1A 1_555 1_555
H7A C7A 1_555 1_555
H8A C7A 1_555 1_555
C8A N3A 1_555 1_555
C9A C8A 1_555 1_555
H9A C9A 1_555 1_555
C10A C9A 1_555 1_555
H10A C10A 1_555 1_555
C11A C10A 1_555 1_555
H11A C11A 1_555 1_555
C12A N3A 1_555 1_555
H12A C12A 1_555 1_555
C13A N1A 1_555 1_555
H13A C13A 1_555 1_555
H14A C13A 1_555 1_555
C14A N4A 1_555 1_555
C15A C14A 1_555 1_555
H15A C15A 1_555 1_555
C16A C15A 1_555 1_555
H16A C16A 1_555 1_555
C17A C16A 1_555 1_555
H17A C17A 1_555 1_555
C18A N4A 1_555 1_555
H18A C18A 1_555 1_555
C19A C20 1_555 1_555
H19A C19A 1_555 1_555
C20A C19 1_555 1_555
H20A C20A 1_555 1_555
C21A C19A 1_555 1_555
C22A C21A 1_555 1_555
C23A N5A 1_555 1_555
C24A C22A 1_555 1_555
C25A C27 1_555 1_555
H21A C25A 1_555 1_555
C26A C25A 1_555 1_555
C27A C25 1_555 1_555
H22A C27A 1_555 1_555
C28A C26A 1_555 1_555
C29A C28A 1_555 1_555
C30A C28A 1_555 1_555
C31A C33 1_555 1_555
H23A C31A 1_555 1_555
C32A C31A 1_555 1_555
C33A C31 1_555 1_555
H24A C33A 1_555 1_555
C34A C32A 1_555 1_555
C35A C34A 1_555 1_555
C36A C34A 1_555 1_555
C1 C2 1_555 1_555
C5 C6 1_555 1_555
C7 C8 1_555 1_555
C11 C12 1_555 1_555
C13 C14 1_555 1_555
C17 C18 1_555 1_555
C20 C21 1_555 1_555
C22 C23 1_555 1_555
C1A C2A 1_555 1_555
C5A C6A 1_555 1_555
C7A C8A 1_555 1_555
C11A C12A 1_555 1_555
C13A C14A 1_555 1_555
C17A C18A 1_555 1_555
C20A C21A 1_555 1_555
C22A C23A 1_555 1_555
C26A C27A 1_555 1_555
C32A C33A 1_555 1_555

#END
