
#######################################################################
#
#                 Cambridge Crystallographic Data Centre
#                                CCDC 
#
#######################################################################
#
# If this CIF has been generated from an entry in the Cambridge 
# Structural Database, then it will include bibliographic, chemical, 
# crystal, experimental, refinement or atomic coordinate data resulting 
# from the CCDC's data processing and validation procedures.
#
#######################################################################

data_MOLJIH01
_symmetry_cell_setting           monoclinic
_symmetry_space_group_name_H-M   'C 2/c'
_symmetry_Int_Tables_number      15
_space_group_name_Hall           '-C 2yn'
loop_
_symmetry_equiv_pos_site_id
_symmetry_equiv_pos_as_xyz
1 x,y,z
2 -x,y,1/2-z
3 1/2+x,1/2+y,z
4 1/2-x,1/2+y,1/2-z
5 -x,-y,-z
6 x,-y,1/2+z
7 1/2-x,1/2-y,-z
8 1/2+x,1/2-y,1/2+z
_cell_length_a                   23.490(2)
_cell_length_b                   9.4719(9)
_cell_length_c                   19.8459(18)
_cell_angle_alpha                90
_cell_angle_beta                 123.639(2)
_cell_angle_gamma                90
_cell_volume                     3676.19
loop_
_atom_site_label
_atom_site_type_symbol
_atom_site_fract_x
_atom_site_fract_y
_atom_site_fract_z
Cu1 Cu 0.2500 0.7500 0.5000
Cl1 Cl 0.17796(6) 0.99772(13) 0.49096(8)
F1 F -0.00119(13) 0.7769(3) 0.0612(2)
F2 F 0.03674(19) 1.2518(3) 0.1339(2)
N1 N 0.12864(17) 0.6478(4) 0.2581(2)
N2 N 0.0773(2) 0.6970(6) 0.2639(2)
N3 N 0.17775(18) 0.7134(4) 0.3828(2)
N4 N 0.14317(17) 0.5327(4) 0.0518(2)
N5 N 0.1127(2) 0.4123(5) 0.0539(3)
N6 N 0.19448(17) 0.3631(4) 0.03197(19)
O1 O 0.21231(14) 0.7032(3) 0.19785(17)
H1 H 0.2277 0.6485 0.1797
C1 C 0.1095(3) 0.7344(6) 0.3396(3)
H2 H 0.0872 0.7725 0.3622
C2 C 0.1874(2) 0.6593(5) 0.3287(2)
H3 H 0.2296 0.6329 0.3389
C3 C 0.1454(2) 0.3136(5) 0.0416(3)
H4 H 0.1356 0.2180 0.0397
C4 C 0.1915(2) 0.5012(5) 0.0390(3)
H5 H 0.2192 0.5668 0.0355
C5 C 0.1153(2) 0.5985(5) 0.1808(2)
H6 H 0.0666 0.5831 0.1431
H7 H 0.1385 0.5093 0.1887
C6 C 0.1404(2) 0.7072(5) 0.1455(2)
C7 C 0.1180(2) 0.6685(5) 0.0584(2)
H8 H 0.0684 0.6679 0.0239
H9 H 0.1341 0.7412 0.0383
C8 C 0.1129(2) 0.8550(5) 0.1432(2)
C9 C 0.0436(2) 0.8836(5) 0.1013(3)
C10 C 0.0165(2) 1.0142(5) 0.0977(3)
H10 H -0.0304 1.0286 0.0692
C11 C 0.0616(3) 1.1211(5) 0.1376(3)
C12 C 0.1304(3) 1.1024(5) 0.1798(3)
H11 H 0.1600 1.1777 0.2061
C13 C 0.1552(2) 0.9688(5) 0.1828(3)
H12 H 0.2022 0.9550 0.2128
Cl1F Cl 0.32204(6) 0.50228(13) 0.50904(8)
F1F F 0.50119(13) 0.7231(3) 0.9388(2)
F2F F 0.46326(19) 0.2482(3) 0.8661(2)
N1F N 0.37136(17) 0.8522(4) 0.7419(2)
N2F N 0.4227(2) 0.8030(6) 0.7361(2)
N3F N 0.32225(18) 0.7866(4) 0.6172(2)
N4F N 0.35683(17) 0.9673(4) 0.9482(2)
N5F N 0.3873(2) 1.0877(5) 0.9461(3)
N6F N 0.30552(17) 1.1369(4) 0.96803(19)
O1F O 0.28769(14) 0.7968(3) 0.80215(17)
H1F H 0.2723 0.8515 0.8203
C1F C 0.3905(3) 0.7656(6) 0.6604(3)
H2F H 0.4128 0.7275 0.6378
C2F C 0.3126(2) 0.8407(5) 0.6713(2)
H3F H 0.2704 0.8671 0.6611
C3F C 0.3546(2) 1.1864(5) 0.9584(3)
H4F H 0.3644 1.2820 0.9603
C4F C 0.3085(2) 0.9988(5) 0.9610(3)
H5F H 0.2808 0.9332 0.9645
C5F C 0.3847(2) 0.9015(5) 0.8192(2)
H6F H 0.4334 0.9169 0.8569
H7F H 0.3615 0.9907 0.8113
C6F C 0.3596(2) 0.7928(5) 0.8545(2)
C7F C 0.3820(2) 0.8315(5) 0.9416(2)
H8F H 0.4316 0.8321 0.9761
H9F H 0.3659 0.7588 0.9617
C8F C 0.3871(2) 0.6450(5) 0.8568(2)
C9F C 0.4564(2) 0.6164(5) 0.8987(3)
C10F C 0.4835(2) 0.4858(5) 0.9023(3)
H10F H 0.5304 0.4714 0.9308
C11F C 0.4384(3) 0.3789(5) 0.8624(3)
C12F C 0.3696(3) 0.3976(5) 0.8202(3)
H11F H 0.3400 0.3223 0.7939
C13F C 0.3448(2) 0.5312(5) 0.8172(3)
H12F H 0.2978 0.5450 0.7872
Cu1C Cu 0.2500 0.2500 0.0000
Cu1C_2 Cu 0.2500 1.2500 1.0000
N6C N 0.30552(17) 0.8631(4) 0.46803(19)
N6E N 0.19448(17) 0.6369(4) 0.53197(19)
O2 O 0.2798(2) 0.1685(5) 0.6431(3)
H13 H 0.2581 0.2098 0.6602
H14 H 0.2514 0.1216 0.6010
O3 O 0.1133(7) 0.2617(11) 0.3642(8)
H15 H 0.1455 0.2885 0.3596
H16 H 0.1275 0.1923 0.3968
loop_
_geom_bond_atom_site_label_1
_geom_bond_atom_site_label_2
_geom_bond_site_symmetry_1
_geom_bond_site_symmetry_2
Cu1 Cl1 1_555 1_555
F1 C9 1_555 1_555
F2 C11 1_555 1_555
N1 N2 1_555 1_555
N2 C1 1_555 1_555
N3 Cu1 1_555 1_555
N4 N5 1_555 1_555
N5 C3 1_555 1_555
N6 C3 1_555 1_555
O1 H1 1_555 1_555
C1 N3 1_555 1_555
H2 C1 1_555 1_555
C2 N1 1_555 1_555
H3 C2 1_555 1_555
C3 H4 1_555 1_555
C4 N4 1_555 1_555
H5 C4 1_555 1_555
C5 N1 1_555 1_555
H6 C5 1_555 1_555
H7 C5 1_555 1_555
C6 O1 1_555 1_555
C7 N4 1_555 1_555
H8 C7 1_555 1_555
H9 C7 1_555 1_555
C8 C6 1_555 1_555
C9 C8 1_555 1_555
C10 C9 1_555 1_555
H10 C10 1_555 1_555
C11 C10 1_555 1_555
C12 C11 1_555 1_555
H11 C12 1_555 1_555
C13 C8 1_555 1_555
H12 C13 1_555 1_555
O2 H13 1_555 1_555
H14 O2 1_555 1_555
O3 H15 1_555 1_555
H16 O3 1_555 1_555
Cl1F Cu1 1_555 1_555
F1F C9F 1_555 1_555
F2F C11F 1_555 1_555
N1F N2F 1_555 1_555
N2F C1F 1_555 1_555
N3F Cu1 1_555 1_555
N4F N5F 1_555 1_555
N5F C3F 1_555 1_555
N6F C3F 1_555 1_555
O1F H1F 1_555 1_555
C1F N3F 1_555 1_555
H2F C1F 1_555 1_555
C2F N1F 1_555 1_555
H3F C2F 1_555 1_555
C3F H4F 1_555 1_555
C4F N4F 1_555 1_555
H5F C4F 1_555 1_555
C5F N1F 1_555 1_555
H6F C5F 1_555 1_555
H7F C5F 1_555 1_555
C6F O1F 1_555 1_555
C7F N4F 1_555 1_555
H8F C7F 1_555 1_555
H9F C7F 1_555 1_555
C8F C6F 1_555 1_555
C9F C8F 1_555 1_555
C10F C9F 1_555 1_555
H10F C10F 1_555 1_555
C11F C10F 1_555 1_555
C12F C11F 1_555 1_555
H11F C12F 1_555 1_555
C13F C8F 1_555 1_555
H12F C13F 1_555 1_555
Cu1C N6 1_555 1_555
Cu1C_2 N6F 1_555 1_555
N6C Cu1 1_555 1_555
N6E Cu1 1_555 1_555
N3 C2 1_555 1_555
N6 C4 1_555 1_555
C5 C6 1_555 1_555
C6 C7 1_555 1_555
C12 C13 1_555 1_555
N3F C2F 1_555 1_555
N6F C4F 1_555 1_555
C5F C6F 1_555 1_555
C6F C7F 1_555 1_555
C12F C13F 1_555 1_555

#END
