
#######################################################################
#
#                 Cambridge Crystallographic Data Centre
#                                CCDC 
#
#######################################################################
#
# If this CIF has been generated from an entry in the Cambridge 
# Structural Database, then it will include bibliographic, chemical, 
# crystal, experimental, refinement or atomic coordinate data resulting 
# from the CCDC's data processing and validation procedures.
#
#######################################################################

data_MOLKEF
_symmetry_cell_setting           triclinic
_symmetry_space_group_name_H-M   'P -1'
_symmetry_Int_Tables_number      2
_space_group_name_Hall           '-P 1'
loop_
_symmetry_equiv_pos_site_id
_symmetry_equiv_pos_as_xyz
1 x,y,z
2 -x,-y,-z
_cell_length_a                   7.02487(15)
_cell_length_b                   18.1060(4)
_cell_length_c                   24.2467(5)
_cell_angle_alpha                69.8248(18)
_cell_angle_beta                 85.8859(17)
_cell_angle_gamma                88.2437(17)
_cell_volume                     2887.25
loop_
_atom_site_label
_atom_site_type_symbol
_atom_site_fract_x
_atom_site_fract_y
_atom_site_fract_z
Ag1 Ag 0.98645(3) 0.746836(14) 0.479633(10)
Ag2 Ag 0.55428(3) 0.249249(14) 1.481016(10)
Ag3 Ag 0.27221(3) -0.004410(14) 1.980673(10)
Ag4 Ag 0.76628(3) 0.502513(14) 0.979897(9)
O1 O 0.6676(3) 0.38619(12) 1.48761(10)
H1 H 0.585(3) 0.4229(12) 1.4809(17)
H2 H 0.770(2) 0.4016(16) 1.4969(16)
C1 C 0.7985(4) 0.53208(17) 0.79131(13)
H3 H 0.7801(4) 0.49910(17) 0.77006(13)
C2 C 0.8497(4) 0.61036(16) 0.76154(12)
C3 C 0.6666(4) 0.38291(17) 1.10147(13)
H4 H 0.6529(4) 0.35140(17) 1.07878(13)
C4 C 0.6384(4) 0.34970(17) 1.16184(12)
H5 H 0.6047(4) 0.29701(17) 1.17902(12)
N1 N 0.7130(3) 0.45861(15) 1.07413(11)
N2 N 0.5945(3) 0.29517(14) 1.38557(10)
C5 C 0.0455(4) -0.22003(16) 2.29092(12)
H6 H 0.0295(4) -0.25255(16) 2.26914(12)
C6 C 0.3157(4) 0.12151(17) 1.85810(13)
H7 H 0.2906(4) 0.15391(17) 1.88036(13)
C7 C 0.3417(4) 0.15586(17) 1.79767(13)
H8 H 0.3325(4) 0.21023(17) 1.78021(13)
C8 C 0.4619(4) 0.22263(17) 1.66912(12)
H9 H 0.4732(4) 0.25572(17) 1.69073(12)
C9 C 0.3974(4) 0.09813(17) 1.66221(13)
H10 H 0.3621(4) 0.04561(17) 1.67907(13)
C10 C 0.0899(4) -0.13014(17) 2.35827(13)
H11 H 0.1066(4) -0.09918(17) 2.38119(13)
C11 C 0.7081(4) 0.47426(17) 1.16814(13)
H12 H 0.7234(4) 0.50713(17) 1.18967(13)
C12 C 0.1210(4) -0.09664(17) 2.29783(13)
H13 H 0.1559(4) -0.04407(17) 2.28088(13)
N3 N 0.9270(3) 0.70343(14) 0.57318(10)
C13 C 0.4939(4) 0.25164(17) 1.60846(13)
H14 H 0.5251(4) 0.30445(17) 1.59021(13)
N4 N 0.0366(3) -0.20530(14) 2.38538(10)
C14 C 0.8539(4) 0.72282(17) 0.66537(13)
H15 H 0.8216(4) 0.75758(17) 0.68526(13)
C15 C 0.6336(4) 0.24964(18) 1.35245(13)
H16 H 0.6460(4) 0.19561(18) 1.37119(13)
N5 N 0.3250(3) 0.04317(14) 1.88628(10)
C16 C 0.6561(4) 0.27992(17) 1.29185(13)
H17 H 0.6845(4) 0.24647(17) 1.27061(13)
C17 C 0.3926(4) 0.02842(17) 1.79231(13)
H18 H 0.4196(4) -0.00529(17) 1.77119(13)
C18 C 0.9234(4) 0.59419(17) 0.66388(13)
H19 H 0.9390(4) 0.54036(17) 0.68283(13)
C19 C 0.0998(4) -0.14194(17) 2.26231(12)
N6 N 0.8027(3) 0.54733(14) 0.88543(10)
C20 C 0.0155(4) -0.24930(17) 2.35159(13)
H20 H -0.0209(4) -0.30155(17) 2.36969(13)
C21 C 0.8533(4) 0.62319(17) 0.85716(12)
H21 H 0.8733(4) 0.65456(17) 0.87953(12)
C22 C 0.9473(4) 0.62609(18) 0.60311(13)
H22 H 0.9788(4) 0.59263(18) 0.58208(13)
C23 C 0.6364(4) 0.36065(16) 1.26228(12)
C24 C 0.6602(4) 0.39517(16) 1.19711(12)
C25 C 0.2099(4) -0.12612(17) 2.10398(13)
H23 H 0.2394(4) -0.15969(17) 2.08290(13)
C26 C 0.8756(4) 0.64308(17) 0.69685(12)
C27 C 0.4127(4) 0.14388(16) 1.69796(12)
N7 N 0.4819(3) 0.20660(14) 1.57479(10)
C28 C 0.7325(4) 0.50319(17) 1.10764(13)
H24 H 0.7639(4) 0.55593(17) 1.08913(13)
C29 C 0.5762(4) 0.37277(17) 1.35765(13)
H25 H 0.5493(4) 0.40483(17) 1.38008(13)
C30 C 0.8800(4) 0.75077(18) 0.60439(13)
H26 H 0.8645(4) 0.80433(18) 0.58432(13)
C31 C 0.7749(4) 0.50312(17) 0.85200(13)
H27 H 0.7383(4) 0.45099(17) 0.87057(13)
N8 N 0.1989(3) -0.04811(15) 2.07443(11)
C32 C 0.4346(4) 0.13084(18) 1.60192(13)
H28 H 0.4265(4) 0.09894(18) 1.57924(13)
C33 C 0.1790(4) -0.15798(17) 2.16447(13)
H29 H 0.1888(4) -0.21208(17) 2.18340(13)
C34 C 0.5954(4) 0.40745(17) 1.29705(13)
H30 H 0.5811(4) 0.46160(17) 1.27951(13)
C35 C 0.3637(4) -0.00198(18) 1.85279(13)
H31 H 0.3713(4) -0.05621(18) 1.87133(13)
C36 C 0.8766(4) 0.65621(17) 0.79658(12)
H32 H 0.9102(4) 0.70886(17) 0.77903(12)
C37 C 0.3816(4) 0.10944(17) 1.76256(12)
C38 C 0.1198(4) -0.02857(17) 2.16600(13)
H33 H 0.0881(4) 0.00640(17) 2.18576(13)
C39 C 0.1330(4) -0.10890(17) 2.19733(12)
C40 C 0.1537(4) -0.00099(18) 2.10560(13)
H34 H 0.1448(4) 0.05288(18) 2.08558(13)
Ag1_2 Ag -0.01355(3) -0.253164(14) 2.479633(10)
N4_2 N 1.0366(3) 0.79470(14) 0.38538(10)
O2 O 0.6212(3) 0.73481(12) 0.94968(9)
O3 O 0.3905(3) 0.79996(12) 0.89271(9)
O4 O 1.3655(3) 0.94999(12) 0.60679(9)
O5 O 1.1375(3) 1.01799(13) 0.55009(9)
C41 C 1.0362(4) 0.84245(16) 0.81291(12)
H35 H 1.1653(4) 0.84114(16) 0.81950(12)
C42 C 0.7074(4) 0.81486(16) 0.85062(12)
C43 C 0.9771(4) 0.87467(16) 0.75454(13)
C44 C 0.6477(4) 0.84671(16) 0.79457(12)
H36 H 0.5178(4) 0.84837(16) 0.78897(12)
C45 C 1.0490(4) 0.93711(16) 0.64873(13)
C46 C 0.7196(4) 0.90951(16) 0.68642(12)
H37 H 0.5907(4) 0.91057(16) 0.67973(12)
C47 C 0.5616(4) 0.78071(17) 0.90221(12)
C48 C 0.7788(4) 0.87728(16) 0.74480(12)
C49 C 0.9051(4) 0.81327(16) 0.85965(12)
H38 H 0.9460(4) 0.79223(16) 0.89762(12)
C50 C 1.1083(4) 0.90504(16) 0.70470(13)
H39 H 1.2382(4) 0.90304(16) 0.71032(13)
C51 C 0.8515(4) 0.93914(16) 0.63975(13)
H40 H 0.8107(4) 0.96080(16) 0.60180(13)
C52 C 1.1953(4) 0.97096(17) 0.59739(13)
O6 O -0.1243(3) 0.30644(12) 0.89136(9)
O7 O 0.8700(3) 0.44364(12) 0.60936(9)
O8 O 0.6445(3) 0.51281(13) 0.55216(9)
O9 O 0.0989(3) 0.23456(12) 0.94825(9)
C53 C 0.2737(4) 0.37679(16) 0.74515(12)
C54 C 0.6070(4) 0.40023(16) 0.70711(13)
H41 H 0.7364(4) 0.39640(16) 0.71364(13)
C55 C 0.3904(4) 0.31277(16) 0.86090(12)
H42 H 0.4285(4) 0.29096(16) 0.89917(12)
C56 C 0.1381(4) 0.34907(16) 0.79392(12)
H43 H 0.0088(4) 0.35296(16) 0.78733(12)
C57 C 0.4716(4) 0.37250(16) 0.75601(12)
C58 C 0.0440(4) 0.28372(17) 0.90120(12)
C59 C 0.2201(4) 0.40855(16) 0.68606(12)
H44 H 0.0918(4) 0.41078(16) 0.67848(12)
C60 C 0.3549(4) 0.43595(16) 0.64003(13)
H45 H 0.3169(4) 0.45694(16) 0.60170(13)
C61 C 0.5253(4) 0.34089(16) 0.81496(13)
H46 H 0.6536(4) 0.33920(16) 0.82257(13)
C62 C 0.7005(4) 0.46568(16) 0.59964(12)
C63 C 0.1930(4) 0.31667(16) 0.85054(12)
C64 C 0.5519(4) 0.43251(16) 0.65050(12)
O10 O 0.3179(3) 0.64925(13) 1.02401(10)
H47 H 0.269(4) 0.6708(16) 1.0478(12)
H48 H 0.408(3) 0.6777(15) 1.0028(12)
O11 O 0.9452(3) 0.59787(13) 0.47786(10)
H49 H 0.850(3) 0.5712(16) 0.4973(13)
H50 H 0.994(4) 0.5765(17) 0.4539(12)
O12 O 0.4034(3) 0.13185(13) 1.99138(10)
H51 H 0.505(2) 0.1509(16) 1.9978(17)
H52 H 0.319(3) 0.1679(12) 1.9812(17)
O13 O 1.0662(3) 0.36531(12) 1.01291(10)
H53 H 1.157(3) 0.3297(12) 1.0211(16)
H54 H 0.962(2) 0.3511(15) 1.0046(16)
O14 O 0.4389(3) 0.10119(13) 1.47449(10)
H55 H 0.354(4) 0.0721(14) 1.4979(12)
H56 H 0.490(4) 0.0775(16) 1.4524(12)
O15 O 0.2029(3) -0.15171(13) 1.97659(10)
H57 H 0.110(3) -0.1777(16) 1.9980(13)
H58 H 0.244(4) -0.1739(17) 1.9524(12)
O16 O 1.1702(3) 0.88046(13) 0.49190(12)
H59 H 1.096(3) 0.9065(12) 0.4841(19)
H60 H 1.283(3) 0.8968(19) 0.5003(17)
loop_
_geom_bond_atom_site_label_1
_geom_bond_atom_site_label_2
_geom_bond_site_symmetry_1
_geom_bond_site_symmetry_2
Ag1 N3 1_555 1_555
Ag2 O1 1_555 1_555
Ag3 N5 1_555 1_555
Ag4 N1 1_555 1_555
O1 H1 1_555 1_555
H2 O1 1_555 1_555
C1 H3 1_555 1_555
C2 C1 1_555 1_555
C3 H4 1_555 1_555
C4 C3 1_555 1_555
H5 C4 1_555 1_555
N1 C3 1_555 1_555
N2 Ag2 1_555 1_555
C5 H6 1_555 1_555
C6 H7 1_555 1_555
C7 C6 1_555 1_555
H8 C7 1_555 1_555
C8 H9 1_555 1_555
C9 H10 1_555 1_555
C10 H11 1_555 1_555
C11 H12 1_555 1_555
C12 C10 1_555 1_555
H13 C12 1_555 1_555
N3 C22 1_555 1_555
C13 C8 1_555 1_555
H14 C13 1_555 1_555
N4 C10 1_555 1_555
C14 H15 1_555 1_555
C15 N2 1_555 1_555
H16 C15 1_555 1_555
N5 C6 1_555 1_555
C16 C15 1_555 1_555
H17 C16 1_555 1_555
C17 H18 1_555 1_555
C18 H19 1_555 1_555
C19 C5 1_555 1_555
N6 Ag4 1_555 1_555
C20 C5 1_555 1_555
H20 C20 1_555 1_555
C21 N6 1_555 1_555
H21 C21 1_555 1_555
C22 C18 1_555 1_555
H22 C22 1_555 1_555
C23 C16 1_555 1_555
C24 C4 1_555 1_555
C25 H23 1_555 1_555
C26 C2 1_555 1_555
C27 C8 1_555 1_555
N7 Ag2 1_555 1_555
C28 N1 1_555 1_555
H24 C28 1_555 1_555
C29 N2 1_555 1_555
H25 C29 1_555 1_555
C30 N3 1_555 1_555
H26 C30 1_555 1_555
C31 C1 1_555 1_555
H27 C31 1_555 1_555
N8 Ag3 1_555 1_555
C32 C9 1_555 1_555
H28 C32 1_555 1_555
C33 C25 1_555 1_555
H29 C33 1_555 1_555
C34 C23 1_555 1_555
H30 C34 1_555 1_555
C35 N5 1_555 1_555
H31 C35 1_555 1_555
C36 C2 1_555 1_555
H32 C36 1_555 1_555
C37 C7 1_555 1_555
C38 H33 1_555 1_555
C39 C19 1_555 1_555
C40 N8 1_555 1_555
H34 C40 1_555 1_555
O2 C47 1_555 1_555
O3 C47 1_555 1_555
O4 C52 1_555 1_555
O5 C52 1_555 1_555
C41 H35 1_555 1_555
C42 C44 1_555 1_555
C43 C41 1_555 1_555
C44 H36 1_555 1_555
C45 C50 1_555 1_555
C46 H37 1_555 1_555
C47 C42 1_555 1_555
C48 C43 1_555 1_555
C49 C41 1_555 1_555
H38 C49 1_555 1_555
C50 C43 1_555 1_555
H39 C50 1_555 1_555
C51 C45 1_555 1_555
H40 C51 1_555 1_555
C52 C45 1_555 1_555
O6 C58 1_555 1_555
O7 C62 1_555 1_555
O8 C62 1_555 1_555
O9 C58 1_555 1_555
C53 C56 1_555 1_555
C54 H41 1_555 1_555
C55 H42 1_555 1_555
C56 H43 1_555 1_555
C57 C53 1_555 1_555
C58 C63 1_555 1_555
C59 C53 1_555 1_555
H44 C59 1_555 1_555
C60 C59 1_555 1_555
H45 C60 1_555 1_555
C61 C55 1_555 1_555
H46 C61 1_555 1_555
C62 C64 1_555 1_555
C63 C55 1_555 1_555
C64 C54 1_555 1_555
O10 H47 1_555 1_555
H48 O10 1_555 1_555
O11 H49 1_555 1_555
H50 O11 1_555 1_555
O12 H51 1_555 1_555
H52 O12 1_555 1_555
O13 H53 1_555 1_555
H54 O13 1_555 1_555
O14 H55 1_555 1_555
H56 O14 1_555 1_555
O15 H57 1_555 1_555
H58 O15 1_555 1_555
O16 H59 1_555 1_555
H60 O16 1_555 1_555
Ag1_2 N4 1_555 1_555
N4_2 Ag1 1_555 1_555
C9 C27 1_555 1_555
C11 C24 1_555 1_555
C11 C28 1_555 1_555
C12 C19 1_555 1_555
C13 N7 1_555 1_555
N4 C20 1_555 1_555
C14 C26 1_555 1_555
C14 C30 1_555 1_555
C17 C35 1_555 1_555
C17 C37 1_555 1_555
C18 C26 1_555 1_555
N6 C31 1_555 1_555
C21 C36 1_555 1_555
C23 C24 1_555 1_555
C25 N8 1_555 1_555
C27 C37 1_555 1_555
N7 C32 1_555 1_555
C29 C34 1_555 1_555
C33 C39 1_555 1_555
C38 C39 1_555 1_555
C38 C40 1_555 1_555
C42 C49 1_555 1_555
C44 C48 1_555 1_555
C46 C48 1_555 1_555
C46 C51 1_555 1_555
C54 C57 1_555 1_555
C56 C63 1_555 1_555
C57 C61 1_555 1_555
C60 C64 1_555 1_555

#END
