
#######################################################################
#
#                 Cambridge Crystallographic Data Centre
#                                CCDC 
#
#######################################################################
#
# If this CIF has been generated from an entry in the Cambridge 
# Structural Database, then it will include bibliographic, chemical, 
# crystal, experimental, refinement or atomic coordinate data resulting 
# from the CCDC's data processing and validation procedures.
#
#######################################################################

data_MOLLAC
_symmetry_cell_setting           orthorhombic
_symmetry_space_group_name_H-M   'P n a 21'
_symmetry_Int_Tables_number      33
_space_group_name_Hall           'P 2c -2n'
loop_
_symmetry_equiv_pos_site_id
_symmetry_equiv_pos_as_xyz
1 x,y,z
2 -x,-y,1/2+z
3 1/2-x,1/2+y,1/2+z
4 1/2+x,1/2-y,z
_cell_length_a                   20.245(4)
_cell_length_b                   18.969(4)
_cell_length_c                   5.0320(10)
_cell_angle_alpha                90
_cell_angle_beta                 90
_cell_angle_gamma                90
_cell_volume                     1932.43
loop_
_atom_site_label
_atom_site_type_symbol
_atom_site_fract_x
_atom_site_fract_y
_atom_site_fract_z
Mn1 Mn 0.56287(2) 0.53227(2) 0.17358(13)
O1 O 0.54014(11) 0.46308(12) 0.5293(5)
O2 O 0.58219(12) 0.44084(13) 0.9296(5)
O3 O 0.75822(18) 0.2584(2) 0.7536(8)
O4 O 0.66896(12) 0.52887(14) 0.2507(5)
O5 O 0.70763(12) 0.56355(16) 0.6455(7)
H1 H 0.666(2) 0.571(2) 0.694(11)
O6 O 0.91146(14) 0.46323(18) 0.2207(9)
O7 O 0.59200(11) 0.59562(12) -0.1825(5)
O8 O 0.55409(12) 0.62440(13) -0.5848(5)
O9 O 0.44255(13) 0.80750(17) -0.0028(7)
C1 C 0.58282(14) 0.43430(15) 0.6840(9)
C2 C 0.63486(16) 0.38945(19) 0.5597(8)
H2 H 0.6394 0.3896 0.3757
C3 C 0.67446(15) 0.34974(19) 0.7022(10)
H3 H 0.6668 0.3483 0.8844
C4 C 0.72913(18) 0.3078(2) 0.6019(9)
C5 C 0.75956(18) 0.3134(2) 0.3725(9)
H4 H 0.7492 0.3445 0.2356
C6 C 0.8111(3) 0.2631(3) 0.3738(13)
H5 H 0.8408 0.2546 0.2364
C7 C 0.8095(2) 0.2305(3) 0.6037(12)
H6 H 0.8380 0.1947 0.6572
C8 C 0.71402(17) 0.5364(2) 0.4078(8)
C9 C 0.78227(17) 0.5135(2) 0.3492(9)
H7 H 0.8160 0.5242 0.4680
C10 C 0.79591(18) 0.47808(19) 0.1313(9)
H8 H 0.7615 0.4710 0.0120
C11 C 0.8593(2) 0.4493(2) 0.0609(9)
C12 C 0.8770(2) 0.4067(3) -0.1387(12)
H9 H 0.8503 0.3901 -0.2754
C13 C 0.9452(3) 0.3918(3) -0.0987(16)
H10 H 0.9716 0.3627 -0.2028
C14 C 0.9637(3) 0.4269(4) 0.1124(16)
H11 H 1.0064 0.4273 0.1801
C15 C 0.55617(14) 0.63276(16) -0.3403(10)
C16 C 0.51622(16) 0.68930(19) -0.2134(8)
H12 H 0.5256 0.7022 -0.0392
C17 C 0.46787(17) 0.72188(17) -0.3395(10)
H13 H 0.4603 0.7080 -0.5141
C18 C 0.42593(18) 0.7760(2) -0.2378(8)
C19 C 0.36903(18) 0.8042(2) -0.3266(12)
H14 H 0.3468 0.7919 -0.4817
C20 C 0.3494(2) 0.8556(2) -0.1417(11)
H15 H 0.3116 0.8833 -0.1501
C21 C 0.3948(2) 0.8568(3) 0.0459(11)
H16 H 0.3944 0.8871 0.1914
Mn1_2 Mn 0.56287(2) 0.53227(2) -0.82642(13)
Mn1_3 Mn 0.56287(2) 0.53227(2) 1.17358(13)
Mn1A Mn 0.43713(2) 0.46773(2) 0.67358(13)
O1A O 0.45986(11) 0.53692(12) 0.0293(5)
O2_2 O 0.58219(12) 0.44084(13) -0.0704(5)
O8_2 O 0.55409(12) 0.62440(13) 0.4152(5)
loop_
_geom_bond_atom_site_label_1
_geom_bond_atom_site_label_2
_geom_bond_site_symmetry_1
_geom_bond_site_symmetry_2
Mn1 O1 1_555 1_555
O1 C1 1_555 1_555
O2 C1 1_555 1_555
O3 C4 1_555 1_555
O4 Mn1 1_555 1_555
O5 H1 1_555 1_555
O6 C11 1_555 1_555
O7 Mn1 1_555 1_555
O8 C15 1_555 1_555
O9 C18 1_555 1_555
C1 C2 1_555 1_555
C2 H2 1_555 1_555
C3 C2 1_555 1_555
H3 C3 1_555 1_555
C4 C3 1_555 1_555
C5 C4 1_555 1_555
H4 C5 1_555 1_555
C6 C5 1_555 1_555
H5 C6 1_555 1_555
C7 O3 1_555 1_555
H6 C7 1_555 1_555
C8 O4 1_555 1_555
C9 C8 1_555 1_555
H7 C9 1_555 1_555
C10 C9 1_555 1_555
H8 C10 1_555 1_555
C11 C10 1_555 1_555
C12 C11 1_555 1_555
H9 C12 1_555 1_555
C13 C12 1_555 1_555
H10 C13 1_555 1_555
C14 O6 1_555 1_555
H11 C14 1_555 1_555
C15 O7 1_555 1_555
C16 C15 1_555 1_555
H12 C16 1_555 1_555
C17 C16 1_555 1_555
H13 C17 1_555 1_555
C18 C17 1_555 1_555
C19 C18 1_555 1_555
H14 C19 1_555 1_555
C20 C19 1_555 1_555
H15 C20 1_555 1_555
C21 O9 1_555 1_555
H16 C21 1_555 1_555
Mn1_2 O8 1_555 1_555
Mn1_3 O2 1_555 1_555
Mn1A O1 1_555 1_555
O1A Mn1 1_555 1_555
O2_2 Mn1 1_555 1_555
O8_2 Mn1 1_555 1_555
O5 C8 1_555 1_555
C6 C7 1_555 1_555
C13 C14 1_555 1_555
C20 C21 1_555 1_555

#END
