
#######################################################################
#
#                 Cambridge Crystallographic Data Centre
#                                CCDC 
#
#######################################################################
#
# If this CIF has been generated from an entry in the Cambridge 
# Structural Database, then it will include bibliographic, chemical, 
# crystal, experimental, refinement or atomic coordinate data resulting 
# from the CCDC's data processing and validation procedures.
#
#######################################################################

data_MOLLUU
_symmetry_cell_setting           monoclinic
_symmetry_space_group_name_H-M   'P 21/n'
_symmetry_Int_Tables_number      14
_space_group_name_Hall           '-P 2yn'
loop_
_symmetry_equiv_pos_site_id
_symmetry_equiv_pos_as_xyz
1 x,y,z
2 1/2-x,1/2+y,1/2-z
3 -x,-y,-z
4 1/2+x,1/2-y,1/2+z
_cell_length_a                   9.5175(15)
_cell_length_b                   11.380(2)
_cell_length_c                   13.2043(15)
_cell_angle_alpha                90
_cell_angle_beta                 95.180(12)
_cell_angle_gamma                90
_cell_volume                     1424.31
loop_
_atom_site_label
_atom_site_type_symbol
_atom_site_fract_x
_atom_site_fract_y
_atom_site_fract_z
Ag1 Ag -0.72333(8) 0.32678(7) -0.17361(5)
Fe1 Fe 0.5000 0.5000 0.5000
N1 N 0.4175(8) 0.6703(8) 0.5394(5)
N2 N 0.3077(7) 0.4721(8) 0.3930(5)
N3 N -0.4937(8) 0.3389(9) -0.0650(6)
C1 C 0.3554(10) 0.7366(9) 0.5834(6)
N4 N 0.3957(7) 0.4300(7) 0.6227(6)
C2 C 0.3471(9) 0.3964(9) 0.6925(6)
C3 C -0.2367(10) 0.3731(10) 0.0535(8)
C4 C -0.3728(11) 0.3549(11) -0.1056(8)
H1 H -0.3745 0.3573 -0.1761
C5 C 0.0563(10) 0.4360(11) 0.2658(8)
C6 C 0.0577(11) 0.4954(12) 0.3562(9)
H2 H -0.0259 0.5254 0.3771
C7 C 0.1835(11) 0.5110(13) 0.4168(8)
H3 H 0.1804 0.5513 0.4779
C8 C -0.2456(11) 0.3681(11) -0.0494(9)
H4 H -0.1636 0.3737 -0.0826
C9 C -0.3610(14) 0.3595(12) 0.0970(8)
H5 H -0.3609 0.3626 0.1674
C10 C 0.1865(12) 0.3964(11) 0.2401(8)
H6 H 0.1925 0.3568 0.1791
C11 C 0.3089(10) 0.4156(11) 0.3052(7)
H7 H 0.3945 0.3877 0.2861
C12 C -0.4887(11) 0.3409(13) 0.0373(7)
H8 H -0.5712 0.3297 0.0688
C13 C -0.0837(13) 0.4175(10) 0.2039(9)
H9 H -0.1659 0.4269 0.2362
C14 C -0.0947(13) 0.3906(11) 0.1131(9)
H10 H -0.0132 0.3808 0.0802
N1B N 0.5825(8) 0.3297(8) 0.4606(5)
C1B C 0.6446(10) 0.2634(9) 0.4166(6)
N2B N 0.6923(7) 0.5279(8) 0.6070(5)
N3B N 1.4937(8) 0.6611(9) 1.0650(6)
C3B C 1.2367(10) 0.6269(10) 0.9465(8)
C4B C 1.3728(11) 0.6451(11) 1.1056(8)
H1B H 1.3745 0.6427 1.1761
C5B C 0.9437(10) 0.5640(11) 0.7342(8)
C6B C 0.9423(11) 0.5046(12) 0.6438(9)
H2B H 1.0259 0.4746 0.6229
C7B C 0.8165(11) 0.4890(13) 0.5832(8)
H3B H 0.8196 0.4487 0.5221
C8B C 1.2456(11) 0.6319(11) 1.0494(9)
H4B H 1.1636 0.6263 1.0826
C9B C 1.3610(14) 0.6405(12) 0.9030(8)
H5B H 1.3609 0.6374 0.8326
C10B C 0.8135(12) 0.6036(11) 0.7599(8)
H6B H 0.8075 0.6432 0.8209
C11B C 0.6911(10) 0.5844(11) 0.6948(7)
H7B H 0.6055 0.6123 0.7139
C12B C 1.4887(11) 0.6591(13) 0.9627(7)
H8B H 1.5712 0.6703 0.9312
C13B C 1.0837(13) 0.5825(10) 0.7961(9)
H9B H 1.1659 0.5731 0.7638
C14B C 1.0947(13) 0.6094(11) 0.8869(9)
H10B H 1.0132 0.6192 0.9198
N4B N 0.6043(7) 0.5700(7) 0.3773(6)
C2B C 0.6529(9) 0.6036(9) 0.3075(6)
Ag1B Ag 1.72333(8) 0.67322(7) 1.17361(5)
C1A C -0.8554(10) 0.2366(9) -0.0834(6)
C2_2 C -0.6529(9) 0.3964(9) -0.3075(6)
Ag1A Ag 0.22333(8) 0.82678(7) 0.67361(5)
Ag1_2 Ag 0.27667(8) 0.32678(7) 0.82639(5)
Ag1C Ag 0.77667(8) 0.17322(7) 0.32639(5)
Ag1B_2 Ag 0.72333(8) 0.67322(7) 0.17361(5)
C1C C 1.8554(10) 0.7634(9) 1.0834(6)
C2B_2 C 1.6529(9) 0.6036(9) 1.3075(6)
loop_
_geom_bond_atom_site_label_1
_geom_bond_atom_site_label_2
_geom_bond_site_symmetry_1
_geom_bond_site_symmetry_2
Ag1 N3 1_555 1_555
Fe1 N1 1_555 1_555
N1 C1 1_555 1_555
N2 Fe1 1_555 1_555
N3 C4 1_555 1_555
C1 Ag1A 1_555 1_555
N4 Fe1 1_555 1_555
C2 N4 1_555 1_555
C3 C8 1_555 1_555
C4 H1 1_555 1_555
C5 C6 1_555 1_555
C6 H2 1_555 1_555
C7 N2 1_555 1_555
H3 C7 1_555 1_555
C8 C4 1_555 1_555
H4 C8 1_555 1_555
C9 C3 1_555 1_555
H5 C9 1_555 1_555
C10 C5 1_555 1_555
H6 C10 1_555 1_555
C11 N2 1_555 1_555
H7 C11 1_555 1_555
C12 N3 1_555 1_555
H8 C12 1_555 1_555
C13 C5 1_555 1_555
H9 C13 1_555 1_555
C14 C3 1_555 1_555
H10 C14 1_555 1_555
N1B Fe1 1_555 1_555
C1B N1B 1_555 1_555
N2B Fe1 1_555 1_555
N3B C4B 1_555 1_555
C3B C8B 1_555 1_555
C4B H1B 1_555 1_555
C5B C6B 1_555 1_555
C6B H2B 1_555 1_555
C7B N2B 1_555 1_555
H3B C7B 1_555 1_555
C8B C4B 1_555 1_555
H4B C8B 1_555 1_555
C9B C3B 1_555 1_555
H5B C9B 1_555 1_555
C10B C5B 1_555 1_555
H6B C10B 1_555 1_555
C11B N2B 1_555 1_555
H7B C11B 1_555 1_555
C12B N3B 1_555 1_555
H8B C12B 1_555 1_555
C13B C5B 1_555 1_555
H9B C13B 1_555 1_555
C14B C3B 1_555 1_555
H10B C14B 1_555 1_555
N4B Fe1 1_555 1_555
C2B N4B 1_555 1_555
Ag1B N3B 1_555 1_555
C1A Ag1 1_555 1_555
C2_2 Ag1 1_555 1_555
Ag1_2 C2 1_555 1_555
Ag1C C1B 1_555 1_555
Ag1B_2 C2B 1_555 1_555
C1C Ag1B 1_555 1_555
C2B_2 Ag1B 1_555 1_555
C6 C7 1_555 1_555
C9 C12 1_555 1_555
C10 C11 1_555 1_555
C13 C14 1_555 1_555
C6B C7B 1_555 1_555
C9B C12B 1_555 1_555
C10B C11B 1_555 1_555
C13B C14B 1_555 1_555

#END
