
#######################################################################
#
#                 Cambridge Crystallographic Data Centre
#                                CCDC 
#
#######################################################################
#
# If this CIF has been generated from an entry in the Cambridge 
# Structural Database, then it will include bibliographic, chemical, 
# crystal, experimental, refinement or atomic coordinate data resulting 
# from the CCDC's data processing and validation procedures.
#
#######################################################################

data_MOLQOV
_symmetry_cell_setting           monoclinic
_symmetry_space_group_name_H-M   'C 2/c'
_symmetry_Int_Tables_number      15
_space_group_name_Hall           '-C 2yn'
loop_
_symmetry_equiv_pos_site_id
_symmetry_equiv_pos_as_xyz
1 x,y,z
2 -x,y,1/2-z
3 1/2+x,1/2+y,z
4 1/2-x,1/2+y,1/2-z
5 -x,-y,-z
6 x,-y,1/2+z
7 1/2-x,1/2-y,-z
8 1/2+x,1/2-y,1/2+z
_cell_length_a                   17.370(5)
_cell_length_b                   12.694(4)
_cell_length_c                   12.332(4)
_cell_angle_alpha                90
_cell_angle_beta                 92.587(6)
_cell_angle_gamma                90
_cell_volume                     2716.37
loop_
_atom_site_label
_atom_site_type_symbol
_atom_site_fract_x
_atom_site_fract_y
_atom_site_fract_z
Zn1 Zn -0.163539(16) 0.25618(2) 0.99275(2)
C1 C -0.20855(16) 0.11385(19) 1.1501(2)
C2 C -0.20144(16) 0.0319(2) 1.2369(2)
H1 H -0.1527 0.0152 1.2661
C3 C -0.26147(16) -0.0175(2) 1.2736(2)
H2 H -0.3098 0.0005 1.2438
C4 C -0.25763(15) -0.10058(19) 1.3598(2)
C5 C -0.03922(16) 0.3973(2) 0.9210(2)
H3 H -0.0687 0.4565 0.9348
C6 C 0.02997(16) 0.3987(2) 0.8782(2)
H4 H 0.0571 0.4580 0.8575
C7 C -0.00260(16) 0.2347(2) 0.9107(2)
C8 C 0.00113(19) 0.1197(2) 0.9207(3)
H5 H -0.0452 0.0943 0.9514
H6 H 0.0448 0.1005 0.9670
H7 H 0.0062 0.0890 0.8503
C9 C 0.12707(17) 0.2605(2) 0.8322(2)
H8 H 0.1429 0.3077 0.7754
H9 H 0.1205 0.1909 0.8006
C10 C 0.19011(18) 0.25613(18) 0.9206(2)
C11 C 0.26474(18) 0.2405(2) 0.8922(2)
H10 H 0.2753 0.2340 0.8192
C12 C 0.32476(17) 0.2341(2) 0.9700(3)
H11 H 0.3749 0.2232 0.9490
N1 N -0.06004(12) 0.29599(16) 0.94127(15)
N2 N 0.05325(12) 0.29620(19) 0.87065(17)
O1 O -0.14627(12) 0.14897(15) 1.11538(16)
O2 O -0.27426(12) 0.14282(14) 1.11791(15)
O3 O -0.19245(11) -0.13556(14) 1.38954(15)
O4 O -0.32131(11) -0.12989(15) 1.39400(15)
C5F C 0.53922(16) 0.1027(2) 1.0790(2)
H3F H 0.5687 0.0435 1.0652
C6F C 0.47003(16) 0.1013(2) 1.1218(2)
H4F H 0.4429 0.0420 1.1425
C7F C 0.50260(16) 0.2653(2) 1.0893(2)
C8F C 0.49887(19) 0.3803(2) 1.0793(3)
H5F H 0.5452 0.4057 1.0486
H6F H 0.4552 0.3995 1.0330
H7F H 0.4938 0.4110 1.1497
C9F C 0.37293(17) 0.2395(2) 1.1678(2)
H8F H 0.3571 0.1923 1.2246
H9F H 0.3795 0.3091 1.1994
C10F C 0.30989(18) 0.24387(18) 1.0794(2)
C11F C 0.23526(18) 0.2595(2) 1.1078(2)
H10F H 0.2247 0.2660 1.1808
C12F C 0.17524(17) 0.2659(2) 1.0300(3)
H11F H 0.1251 0.2768 1.0510
N1F N 0.56004(12) 0.20401(16) 1.05873(15)
N2F N 0.44675(12) 0.20380(19) 1.12935(17)
Zn1F Zn -0.336461(16) 0.24382(2) 1.00725(2)
C1F C -0.29145(16) 0.38615(19) 0.8499(2)
C2F C -0.29856(16) 0.4681(2) 0.7631(2)
H1F H -0.3473 0.4848 0.7339
C3F C -0.23853(16) 0.5175(2) 0.7264(2)
H2F H -0.1902 0.4995 0.7562
C4F C -0.24237(15) 0.60058(19) 0.6402(2)
O1F O -0.35373(12) 0.35103(15) 0.88462(16)
O2F O -0.22574(12) 0.35718(14) 0.88209(15)
O3F O -0.30755(11) 0.63556(14) 0.61046(15)
O4F O -0.17869(11) 0.62989(15) 0.60600(15)
Zn1C Zn -0.336461(16) -0.24382(2) 1.50725(2)
Zn1C_2 Zn -0.336461(16) 0.75618(2) 0.50725(2)
Zn1E Zn -0.163539(16) -0.25618(2) 1.49275(2)
Zn1E_2 Zn -0.163539(16) 0.74382(2) 0.49275(2)
Zn1F_2 Zn 0.663539(16) 0.24382(2) 1.00725(2)
N1F_2 N -0.43996(12) 0.20401(16) 1.05873(15)
O3C O -0.30755(11) 0.36444(14) 1.11046(15)
O3E O -0.19245(11) 0.13556(14) 0.88954(15)
O4C O -0.17869(11) 0.37011(15) 1.10600(15)
O4E O -0.32131(11) 0.12989(15) 0.89400(15)
O5 O 0.5000 0.3941(6) 0.7500
O6 O 0.0463(10) 0.6276(14) 0.7358(16)
O6A O -0.0463(10) 0.6276(14) 0.7642(16)
loop_
_geom_bond_atom_site_label_1
_geom_bond_atom_site_label_2
_geom_bond_site_symmetry_1
_geom_bond_site_symmetry_2
Zn1 N1 1_555 1_555
C1 C2 1_555 1_555
C2 H1 1_555 1_555
C3 C2 1_555 1_555
H2 C3 1_555 1_555
C4 C3 1_555 1_555
C5 H3 1_555 1_555
C6 C5 1_555 1_555
H4 C6 1_555 1_555
C7 C8 1_555 1_555
C8 H5 1_555 1_555
H6 C8 1_555 1_555
H7 C8 1_555 1_555
C9 H8 1_555 1_555
H9 C9 1_555 1_555
C10 C9 1_555 1_555
C11 C10 1_555 1_555
H10 C11 1_555 1_555
C12 C11 1_555 1_555
H11 C12 1_555 1_555
N1 C5 1_555 1_555
N2 C6 1_555 1_555
O1 Zn1 1_555 1_555
O2 C1 1_555 1_555
O3 C4 1_555 1_555
O4 C4 1_555 1_555
C5F H3F 1_555 1_555
C6F C5F 1_555 1_555
H4F C6F 1_555 1_555
C7F C8F 1_555 1_555
C8F H5F 1_555 1_555
H6F C8F 1_555 1_555
H7F C8F 1_555 1_555
C9F H8F 1_555 1_555
H9F C9F 1_555 1_555
C10F C12 1_555 1_555
C11F C10F 1_555 1_555
H10F C11F 1_555 1_555
C12F C10 1_555 1_555
H11F C12F 1_555 1_555
N1F C5F 1_555 1_555
N2F C6F 1_555 1_555
Zn1F O2 1_555 1_555
C1F C2F 1_555 1_555
C2F H1F 1_555 1_555
C3F C2F 1_555 1_555
H2F C3F 1_555 1_555
C4F C3F 1_555 1_555
O1F Zn1F 1_555 1_555
O2F Zn1 1_555 1_555
O3F C4F 1_555 1_555
O4F C4F 1_555 1_555
Zn1C O4 1_555 1_555
Zn1C_2 O3F 1_555 1_555
Zn1E O3 1_555 1_555
Zn1E_2 O4F 1_555 1_555
Zn1F_2 N1F 1_555 1_555
N1F_2 Zn1F 1_555 1_555
O3C Zn1F 1_555 1_555
O3E Zn1 1_555 1_555
O4C Zn1 1_555 1_555
O4E Zn1F 1_555 1_555
C1 O1 1_555 1_555
C7 N1 1_555 1_555
C7 N2 1_555 1_555
C9 N2 1_555 1_555
C7F N1F 1_555 1_555
C7F N2F 1_555 1_555
C9F C10F 1_555 1_555
C9F N2F 1_555 1_555
C11F C12F 1_555 1_555
C1F O1F 1_555 1_555
C1F O2F 1_555 1_555

#END
