
#######################################################################
#
#                 Cambridge Crystallographic Data Centre
#                                CCDC 
#
#######################################################################
#
# If this CIF has been generated from an entry in the Cambridge 
# Structural Database, then it will include bibliographic, chemical, 
# crystal, experimental, refinement or atomic coordinate data resulting 
# from the CCDC's data processing and validation procedures.
#
#######################################################################

data_MOLRUC
_symmetry_cell_setting           triclinic
_symmetry_space_group_name_H-M   'P -1'
_symmetry_Int_Tables_number      2
_space_group_name_Hall           '-P 1'
loop_
_symmetry_equiv_pos_site_id
_symmetry_equiv_pos_as_xyz
1 x,y,z
2 -x,-y,-z
_cell_length_a                   8.8167(12)
_cell_length_b                   9.5003(13)
_cell_length_c                   14.685(2)
_cell_angle_alpha                83.607(2)
_cell_angle_beta                 81.746(2)
_cell_angle_gamma                66.7110(10)
_cell_volume                     1116.09
loop_
_atom_site_label
_atom_site_type_symbol
_atom_site_fract_x
_atom_site_fract_y
_atom_site_fract_z
C1 C 0.3504(3) 0.3904(2) 0.32064(15)
C2 C 0.2422(3) 0.4923(2) 0.26081(16)
C3 C 0.2833(3) 0.4825(3) 0.16605(17)
H1 H 0.2115 0.5492 0.1254
C4 C 0.4335(3) 0.3712(3) 0.13324(17)
C5 C 0.5462(3) 0.2751(3) 0.19082(19)
H2 H 0.6490 0.2057 0.1671
C6 C 0.5030(3) 0.2843(3) 0.28462(18)
H3 H 0.5768 0.2185 0.3246
C7 C 0.3121(3) 0.3866(2) 0.42452(15)
C8 C 0.0785(3) 0.6151(3) 0.29521(17)
C9 C 0.3947(3) 0.1268(3) 0.74399(17)
H4 H 0.3373 0.0624 0.7603
C10 C 0.4778(3) 0.2985(3) 0.67304(18)
H5 H 0.4881 0.3757 0.6308
C11 C 0.5681(3) 0.2373(3) 0.7449(2)
H6 H 0.6512 0.2640 0.7609
C12 C 0.5806(3) 0.0257(3) 0.86852(17)
H7 H 0.5034 -0.0220 0.8941
H8 H 0.5880 0.0860 0.9156
C13 C 0.7492(3) -0.0987(3) 0.84625(18)
C14 C 0.8378(4) -0.1835(4) 0.9187(2)
H9 H 0.7927 -0.1621 0.9792
C15 C 0.9922(4) -0.2991(5) 0.9011(3)
H10 H 1.0492 -0.3561 0.9501
C16 C 1.0632(4) -0.3314(4) 0.8120(3)
H11 H 1.1675 -0.4093 0.8010
C17 C 0.9780(3) -0.2467(3) 0.7385(2)
C18 C 0.8199(3) -0.1334(3) 0.75688(18)
H12 H 0.7606 -0.0797 0.7080
C19 C 1.0541(3) -0.2746(3) 0.6407(2)
H13 H 1.1407 -0.3768 0.6383
H14 H 0.9700 -0.2699 0.6032
C20 C 1.2319(3) -0.1777(3) 0.52271(18)
H15 H 1.2709 -0.2600 0.4851
C21 C 1.2690(3) -0.0515(3) 0.50976(18)
H16 H 1.3394 -0.0325 0.4609
C22 C 1.1013(3) -0.0255(3) 0.63424(17)
H17 H 1.0334 0.0136 0.6876
N1 N 0.4734(4) 0.3512(3) 0.03450(17)
N2 N 0.3681(2) 0.2283(2) 0.67237(13)
N3 N 0.5140(2) 0.1285(2) 0.78969(14)
N4 N 1.1258(2) -0.1605(2) 0.60207(14)
N5 N 1.1867(2) 0.0447(2) 0.57990(13)
O1 O 0.2729(2) 0.27320(18) 0.45688(11)
O2 O 0.3277(2) 0.4801(2) 0.46924(12)
O3 O 0.01089(19) 0.58473(18) 0.37326(12)
O4 O 0.0214(2) 0.7363(2) 0.24796(14)
O5 O 0.3678(4) 0.4233(3) -0.01635(16)
O6 O 0.6154(4) 0.2592(3) 0.00736(18)
Zn1 Zn 0.19981(3) 0.25155(3) 0.587084(17)
N5_2 N 0.1867(2) 0.0447(2) 0.57990(13)
O3A O -0.01089(19) 0.41527(18) 0.62674(12)
Zn1_2 Zn 1.19981(3) 0.25155(3) 0.587084(17)
Zn1A Zn -0.19981(3) 0.74845(3) 0.412916(17)
O7 O 0.8983(5) 0.9625(4) 0.1117(2)
H18 H 0.9136 0.9364 0.0566
H19 H 0.9911 0.9373 0.1327
loop_
_geom_bond_atom_site_label_1
_geom_bond_atom_site_label_2
_geom_bond_site_symmetry_1
_geom_bond_site_symmetry_2
C1 C2 1_555 1_555
C2 C3 1_555 1_555
C3 H1 1_555 1_555
C4 C3 1_555 1_555
C5 C4 1_555 1_555
H2 C5 1_555 1_555
C6 C1 1_555 1_555
H3 C6 1_555 1_555
C7 C1 1_555 1_555
C8 C2 1_555 1_555
C9 H4 1_555 1_555
C10 H5 1_555 1_555
C11 C10 1_555 1_555
H6 C11 1_555 1_555
C12 H7 1_555 1_555
H8 C12 1_555 1_555
C13 C12 1_555 1_555
C14 C13 1_555 1_555
H9 C14 1_555 1_555
C15 C14 1_555 1_555
H10 C15 1_555 1_555
C16 C15 1_555 1_555
H11 C16 1_555 1_555
C17 C16 1_555 1_555
C18 C13 1_555 1_555
H12 C18 1_555 1_555
C19 C17 1_555 1_555
H13 C19 1_555 1_555
H14 C19 1_555 1_555
C20 H15 1_555 1_555
C21 C20 1_555 1_555
H16 C21 1_555 1_555
C22 H17 1_555 1_555
N1 C4 1_555 1_555
N2 C9 1_555 1_555
N3 C9 1_555 1_555
N4 C19 1_555 1_555
N5 C21 1_555 1_555
O1 C7 1_555 1_555
O2 C7 1_555 1_555
O3 C8 1_555 1_555
O4 C8 1_555 1_555
O5 N1 1_555 1_555
O6 N1 1_555 1_555
Zn1 N2 1_555 1_555
O7 H18 1_555 1_555
H19 O7 1_555 1_555
N5_2 Zn1 1_555 1_555
O3A Zn1 1_555 1_555
Zn1_2 N5 1_555 1_555
Zn1A O3 1_555 1_555
C5 C6 1_555 1_555
C10 N2 1_555 1_555
C11 N3 1_555 1_555
C12 N3 1_555 1_555
C17 C18 1_555 1_555
C20 N4 1_555 1_555
C22 N4 1_555 1_555
C22 N5 1_555 1_555
O1 Zn1 1_555 1_555

#END
