
#######################################################################
#
#                 Cambridge Crystallographic Data Centre
#                                CCDC 
#
#######################################################################
#
# If this CIF has been generated from an entry in the Cambridge 
# Structural Database, then it will include bibliographic, chemical, 
# crystal, experimental, refinement or atomic coordinate data resulting 
# from the CCDC's data processing and validation procedures.
#
#######################################################################

data_MOLTIR
_symmetry_cell_setting           triclinic
_symmetry_space_group_name_H-M   'P -1'
_symmetry_Int_Tables_number      2
_space_group_name_Hall           '-P 1'
loop_
_symmetry_equiv_pos_site_id
_symmetry_equiv_pos_as_xyz
1 x,y,z
2 -x,-y,-z
_cell_length_a                   13.98060(17)
_cell_length_b                   6.95884(6)
_cell_length_c                   6.39667(5)
_cell_angle_alpha                73.0497(6)
_cell_angle_beta                 94.5080(9)
_cell_angle_gamma                92.1684(9)
_cell_volume                     593.375
loop_
_atom_site_label
_atom_site_type_symbol
_atom_site_fract_x
_atom_site_fract_y
_atom_site_fract_z
Co1 Co 0.00000 1.00000 1.00000
Co2 Co 0.9617(2) 0.7992(4) 1.6604(5)
Co3 Co 0.93044(20) 0.6082(4) 1.3040(4)
C1 C 0.7556(3) 0.796(2) 1.444(2)
C2 C 0.6464(4) 0.845(2) 1.425(2)
C3 C 0.5876(3) 0.735(2) 1.276(2)
C4 C 0.4795(3) 0.780(2) 1.271(2)
C5 C 0.4197(4) 0.678(2) 1.118(2)
C6 C 0.3122(4) 0.731(3) 1.110(2)
C7 C 0.2568(4) 0.668(2) 0.9209(19)
C8 C 0.1469(4) 0.7108(17) 0.9103(16)
O1 O 0.7857(6) 0.6980(15) 1.3215(15)
O2 O 0.8158(5) 0.8712(14) 1.5641(15)
O3 O 0.1275(5) 0.8467(11) 1.0033(14)
O4 O 0.0986(5) 0.6773(11) 0.7414(11)
O5 O -0.0896(6) 0.7555(11) 0.9728(10)
O6 O 0.9333(5) 0.4993(10) 1.6503(11)
O7 O -0.0001(7) 0.8931(7) 1.3379(7)
Co2A Co -0.9617(2) 1.2008(4) 0.3396(5)
Co2_2 Co -0.0383(2) 0.7992(4) 0.6604(5)
Co2_3 Co -0.0383(2) 0.7992(4) 1.6604(5)
Co2A_2 Co 0.0383(2) 1.2008(4) 1.3396(5)
Co2A_3 Co 0.0383(2) 1.2008(4) 0.3396(5)
Co2A_4 Co 1.0383(2) 0.2008(4) 1.3396(5)
Co3A Co -0.93044(20) 1.3918(4) 0.6960(4)
Co3A_2 Co 0.06956(20) 0.3918(4) 0.6960(4)
Co3_2 Co -0.06956(20) 0.6082(4) 1.3040(4)
Co3A_3 Co 1.06956(20) 0.3918(4) 1.6960(4)
Co3_3 Co -0.06956(20) 1.6082(4) 1.3040(4)
Co3A_4 Co 0.06956(20) 1.3918(4) 0.6960(4)
C1A C -0.7556(3) 1.204(2) 0.556(2)
C2A C -0.6464(4) 1.155(2) 0.575(2)
C3A C -0.5876(3) 1.265(2) 0.724(2)
C4A C -0.4795(3) 1.220(2) 0.729(2)
C5A C -0.4197(4) 1.322(2) 0.882(2)
C6A C -0.3122(4) 1.269(3) 0.890(2)
C7A C -0.2568(4) 1.332(2) 1.0791(19)
C8A C -0.1469(4) 1.2892(17) 1.0897(16)
O1A O -0.7857(6) 1.3020(15) 0.6785(15)
O2A O -0.8158(5) 1.1288(14) 0.4359(15)
O3A O -0.1275(5) 1.1533(11) 0.9967(14)
O4A O -0.0986(5) 1.3227(11) 1.2586(11)
O4_2 O 1.0986(5) 0.6773(11) 1.7414(11)
O4A_2 O 0.9014(5) 0.3227(11) 1.2586(11)
O4A_3 O -1.0986(5) 1.3227(11) 0.2586(11)
O4_3 O -0.9014(5) 1.6773(11) 0.7414(11)
O5A O 0.0896(6) 1.2445(11) 1.0272(10)
O5_2 O 0.9104(6) 0.7555(11) 1.9728(10)
O5_3 O 0.9104(6) 0.7555(11) 0.9728(10)
O5A_2 O -0.9104(6) 1.2445(11) 0.0272(10)
O5A_3 O -0.9104(6) 1.2445(11) 1.0272(10)
O6A O 1.0667(5) 0.5007(10) 1.3497(11)
O6A_2 O -0.9333(5) 1.5007(10) 0.3497(11)
O6_2 O -1.0667(5) 1.4993(10) 0.6503(11)
O7A O 0.0001(7) 1.1069(7) 0.6621(7)
O7_2 O 0.9999(7) 0.8931(7) 1.3379(7)
O7A_2 O 1.0001(7) 1.1069(7) 1.6621(7)
O7A_3 O -0.9999(7) 1.1069(7) 0.6621(7)
O7_3 O -1.0001(7) 0.8931(7) 0.3379(7)
loop_
_geom_bond_atom_site_label_1
_geom_bond_atom_site_label_2
_geom_bond_site_symmetry_1
_geom_bond_site_symmetry_2
Co1 O3 1_555 1_555
Co2 O2 1_555 1_555
Co3 O1 1_555 1_555
C1 C2 1_555 1_555
C2 C3 1_555 1_555
C3 C4 1_555 1_555
C4 C5 1_555 1_555
C5 C6 1_555 1_555
C6 C7 1_555 1_555
C7 C8 1_555 1_555
C8 O3 1_555 1_555
O1 C1 1_555 1_555
O2 C1 1_555 1_555
O4 C8 1_555 1_555
O5 Co1 1_555 1_555
O6 Co2 1_555 1_555
O7 Co1 1_555 1_555
Co2A O2A 1_555 1_555
Co2_2 O4 1_555 1_555
Co2_3 O7 1_555 1_555
Co2A_2 O7 1_555 1_555
Co2A_3 O7A 1_555 1_555
Co2A_4 O4A_2 1_555 1_555
Co3A O1A 1_555 1_555
Co3A_2 O4 1_555 1_555
Co3_2 O5 1_555 1_555
Co3A_3 O6 1_555 1_555
Co3_3 O4A 1_555 1_555
Co3A_4 O5A 1_555 1_555
C1A C2A 1_555 1_555
C2A C3A 1_555 1_555
C3A C4A 1_555 1_555
C4A C5A 1_555 1_555
C5A C6A 1_555 1_555
C6A C7A 1_555 1_555
C7A C8A 1_555 1_555
C8A O3A 1_555 1_555
O1A C1A 1_555 1_555
O2A C1A 1_555 1_555
O3A Co1 1_555 1_555
O4A Co2A_2 1_555 1_555
O4_2 Co2 1_555 1_555
O4A_2 Co3 1_555 1_555
O4A_3 Co2A 1_555 1_555
O4_3 Co3A 1_555 1_555
O5A Co1 1_555 1_555
O5_2 Co2 1_555 1_555
O5_3 Co3 1_555 1_555
O5A_2 Co2A 1_555 1_555
O5A_3 Co3A 1_555 1_555
O6A Co3 1_555 1_555
O6A_2 Co2A 1_555 1_555
O6_2 Co3A 1_555 1_555
O7A Co1 1_555 1_555
O7_2 Co2 1_555 1_555
O7A_2 Co2 1_555 1_555
O7A_3 Co2A 1_555 1_555
O7_3 Co2A 1_555 1_555
Co3 O6 1_555 1_555
Co3 O7_2 1_555 1_555
O5 Co2_2 1_555 1_555
O7 Co3_2 1_555 1_555
Co2_2 O7A 1_555 1_555
Co2A_2 O5A 1_555 1_555
Co2A_4 O6A 1_555 1_555
Co3A O6A_2 1_555 1_555
Co3A O7A_3 1_555 1_555
Co3A_3 O4_2 1_555 1_555
Co3A_3 O6A 1_555 1_555
Co3A_4 O7A 1_555 1_555
C8A O4A 1_555 1_555

#END
