
#######################################################################
#
#                 Cambridge Crystallographic Data Centre
#                                CCDC 
#
#######################################################################
#
# If this CIF has been generated from an entry in the Cambridge 
# Structural Database, then it will include bibliographic, chemical, 
# crystal, experimental, refinement or atomic coordinate data resulting 
# from the CCDC's data processing and validation procedures.
#
#######################################################################

data_MOLTUD
_symmetry_cell_setting           orthorhombic
_symmetry_space_group_name_H-M   'P b c a'
_symmetry_Int_Tables_number      61
_space_group_name_Hall           '-P 2ac 2ab'
loop_
_symmetry_equiv_pos_site_id
_symmetry_equiv_pos_as_xyz
1 x,y,z
2 1/2-x,-y,1/2+z
3 -x,1/2+y,1/2-z
4 1/2+x,1/2-y,-z
5 -x,-y,-z
6 1/2+x,y,1/2-z
7 x,1/2-y,1/2+z
8 1/2-x,1/2+y,z
_cell_length_a                   9.5053(8)
_cell_length_b                   9.9892(8)
_cell_length_c                   13.3019(11)
_cell_angle_alpha                90
_cell_angle_beta                 90
_cell_angle_gamma                90
_cell_volume                     1263.02
loop_
_atom_site_label
_atom_site_type_symbol
_atom_site_fract_x
_atom_site_fract_y
_atom_site_fract_z
Zn1 Zn 0.57477(7) 0.61468(6) 0.90133(5)
N1 N 0.8488(5) 0.9349(4) 0.9410(4)
C1 C 0.7444(7) 0.8698(5) 0.8995(5)
H1 H 0.6938 0.9012 0.8445
N2 N 0.7183(5) 0.7516(4) 0.9457(4)
I1 I 0.53159(6) 0.64733(6) 0.71420(3)
N3 N 0.8977(5) 0.8550(4) 1.0188(4)
C2 C 0.8167(6) 0.7474(6) 1.0183(4)
N4 N 0.8336(8) 0.6429(6) 1.0826(5)
H2 H 0.8998 0.6446 1.1267
H3 H 0.7780 0.5751 1.0793
Zn1C Zn 1.07477(7) 0.88532(6) 1.09867(5)
Zn1G Zn 0.92523(7) 1.11468(6) 0.90133(5)
N1G N 0.6512(5) 0.4349(4) 0.9410(4)
N3C N 0.3977(5) 0.6450(4) 0.9812(4)
loop_
_geom_bond_atom_site_label_1
_geom_bond_atom_site_label_2
_geom_bond_site_symmetry_1
_geom_bond_site_symmetry_2
Zn1 N2 1_555 1_555
N1 C1 1_555 1_555
C1 H1 1_555 1_555
N2 C1 1_555 1_555
I1 Zn1 1_555 1_555
N3 N1 1_555 1_555
C2 N2 1_555 1_555
N4 C2 1_555 1_555
H2 N4 1_555 1_555
H3 N4 1_555 1_555
Zn1C N3 1_555 1_555
Zn1G N1 1_555 1_555
N1G Zn1 1_555 1_555
N3C Zn1 1_555 1_555
N3 C2 1_555 1_555

#END
