
#######################################################################
#
#                 Cambridge Crystallographic Data Centre
#                                CCDC 
#
#######################################################################
#
# If this CIF has been generated from an entry in the Cambridge 
# Structural Database, then it will include bibliographic, chemical, 
# crystal, experimental, refinement or atomic coordinate data resulting 
# from the CCDC's data processing and validation procedures.
#
#######################################################################

data_MOLVOZ
_symmetry_cell_setting           triclinic
_symmetry_space_group_name_H-M   'P -1'
_symmetry_Int_Tables_number      2
_space_group_name_Hall           '-P 1'
loop_
_symmetry_equiv_pos_site_id
_symmetry_equiv_pos_as_xyz
1 x,y,z
2 -x,-y,-z
_cell_length_a                   4.1844(8)
_cell_length_b                   13.460(3)
_cell_length_c                   15.998(3)
_cell_angle_alpha                113.74(3)
_cell_angle_beta                 92.58(3)
_cell_angle_gamma                98.12(3)
_cell_volume                     811.35
loop_
_atom_site_label
_atom_site_type_symbol
_atom_site_fract_x
_atom_site_fract_y
_atom_site_fract_z
I1 I 1.53440(9) 0.91519(3) 0.29113(3)
I2 I 1.95256(8) 0.85977(3) 0.04195(2)
I3 I 1.62349(9) 1.17446(3) 0.20089(2)
Cu1 Cu 1.0124(2) 0.80796(7) 0.30162(6)
Cu2 Cu 1.5144(2) 0.95951(7) 0.14724(6)
Cu3 Cu 2.0617(2) 1.07906(7) 0.09785(6)
N1 N 0.8849(12) 0.7722(4) 0.4105(3)
N2 N 0.8185(14) 0.6427(4) 0.2299(4)
C1 C 0.9210(19) 0.8355(5) 0.4998(5)
H1 H 1.0588 0.9052 0.5210
C2 C 0.771(2) 0.8070(7) 0.5650(5)
H2 H 0.8037 0.8562 0.6282
C3 C 0.574(2) 0.7048(6) 0.5348(5)
H3 H 0.4681 0.6823 0.5771
C4 C 0.5333(16) 0.6352(5) 0.4411(5)
C5 C 0.3362(18) 0.5280(6) 0.4039(6)
H4 H 0.2220 0.5033 0.4439
C6 C 0.3081(19) 0.4610(6) 0.3135(6)
H5 H 0.1780 0.3898 0.2911
C7 C 0.4719(18) 0.4964(5) 0.2517(5)
C8 C 0.455(2) 0.4307(6) 0.1576(6)
H6 H 0.3321 0.3581 0.1321
C9 C 0.612(3) 0.4709(7) 0.1037(6)
H7 H 0.6002 0.4268 0.0396
C10 C 0.792(2) 0.5771(7) 0.1415(5)
H8 H 0.9012 0.6037 0.1019
C11 C 0.6626(15) 0.6024(5) 0.2844(4)
C12 C 0.6917(14) 0.6715(4) 0.3814(4)
I1_2 I 0.53440(9) 0.91519(3) 0.29113(3)
I2_2 I 0.95256(8) 0.85977(3) 0.04195(2)
I2A I 2.04744(8) 1.14023(3) -0.04195(2)
I3_2 I 2.62349(9) 1.17446(3) 0.20089(2)
Cu1_2 Cu 2.0124(2) 0.80796(7) 0.30162(6)
Cu2_2 Cu 2.5144(2) 0.95951(7) 0.14724(6)
Cu3A Cu 1.9383(2) 0.92094(7) -0.09785(6)
Cu3_2 Cu 1.0617(2) 1.07906(7) 0.09785(6)
loop_
_geom_bond_atom_site_label_1
_geom_bond_atom_site_label_2
_geom_bond_site_symmetry_1
_geom_bond_site_symmetry_2
I1 Cu1 1_555 1_555
I2 Cu2 1_555 1_555
I3 Cu2 1_555 1_555
Cu1 N1 1_555 1_555
Cu2 I1 1_555 1_555
Cu3 I2 1_555 1_555
N1 C1 1_555 1_555
N2 Cu1 1_555 1_555
C1 H1 1_555 1_555
C2 C1 1_555 1_555
H2 C2 1_555 1_555
C3 C2 1_555 1_555
H3 C3 1_555 1_555
C4 C3 1_555 1_555
C5 C4 1_555 1_555
H4 C5 1_555 1_555
C6 C5 1_555 1_555
H5 C6 1_555 1_555
C7 C6 1_555 1_555
C8 C7 1_555 1_555
H6 C8 1_555 1_555
C9 C8 1_555 1_555
H7 C9 1_555 1_555
C10 N2 1_555 1_555
H8 C10 1_555 1_555
C11 N2 1_555 1_555
C12 N1 1_555 1_555
I1_2 Cu1 1_555 1_555
I2_2 Cu2 1_555 1_555
I2A Cu3 1_555 1_555
I3_2 Cu3 1_555 1_555
Cu1_2 I1 1_555 1_555
Cu2_2 I2 1_555 1_555
Cu3A I2 1_555 1_555
Cu3_2 I3 1_555 1_555
I3 Cu3 1_555 1_555
C4 C12 1_555 1_555
C7 C11 1_555 1_555
C9 C10 1_555 1_555
C11 C12 1_555 1_555
I2_2 Cu3_2 1_555 1_555
I2A Cu3A 1_555 1_555
I3_2 Cu2_2 1_555 1_555

#END
