
#######################################################################
#
#                 Cambridge Crystallographic Data Centre
#                                CCDC 
#
#######################################################################
#
# If this CIF has been generated from an entry in the Cambridge 
# Structural Database, then it will include bibliographic, chemical, 
# crystal, experimental, refinement or atomic coordinate data resulting 
# from the CCDC's data processing and validation procedures.
#
#######################################################################

data_MOMCOG
_symmetry_cell_setting           triclinic
_symmetry_space_group_name_H-M   'P -1'
_symmetry_Int_Tables_number      2
_space_group_name_Hall           '-P 1'
loop_
_symmetry_equiv_pos_site_id
_symmetry_equiv_pos_as_xyz
1 x,y,z
2 -x,-y,-z
_cell_length_a                   10.294(2)
_cell_length_b                   11.974(2)
_cell_length_c                   12.262(3)
_cell_angle_alpha                97.93(3)
_cell_angle_beta                 91.71(3)
_cell_angle_gamma                111.36(3)
_cell_volume                     1388.87
loop_
_atom_site_label
_atom_site_type_symbol
_atom_site_fract_x
_atom_site_fract_y
_atom_site_fract_z
Cu1 Cu 0.67170(6) 0.29927(5) 0.06264(4)
Cu2 Cu 0.77846(6) 0.75888(5) 0.03286(4)
Cl1 Cl 0.77000(14) 0.70098(11) -0.33591(10)
Cl2 Cl 0.66520(14) 0.53701(12) -0.56321(9)
Cl3 Cl 0.55616(13) 0.25480(12) -0.58043(9)
Cl4 Cl 0.57697(13) 0.14022(10) -0.37284(10)
Cl5 Cl 0.76235(13) -0.16324(10) 0.40390(10)
Cl6 Cl 0.86463(14) 0.02348(12) 0.62181(9)
Cl7 Cl 0.96301(13) 0.30064(11) 0.61175(9)
Cl8 Cl 0.93290(12) 0.38744(9) 0.38887(9)
O1 O 0.5719(3) 0.4248(3) 0.1699(3)
H1 H 0.5995 0.4322 0.2375
H2 H 0.4834 0.3882 0.1632
O2 O 0.7646(4) 0.2553(3) -0.1495(3)
O3 O 0.6307(3) 0.3482(3) -0.0754(2)
O4 O 0.4815(4) 0.1774(3) 0.0425(3)
H3 H 0.4281 0.2105 0.0720
H4 H 0.4800 0.1212 0.0785
O5 O 0.8523(3) 0.4369(3) 0.0897(3)
H5 H 0.9187 0.4113 0.0960
H6 H 0.8535 0.4826 0.1496
O6 O 0.8884(3) 0.5753(3) -0.0971(3)
O7 O 0.7093(3) 0.6354(3) -0.0987(3)
O9 O 0.6250(4) -0.0781(3) 0.1551(3)
O10 O 0.9041(4) 0.8709(5) -0.0575(4)
H9 H 0.9573 0.8434 -0.0868
H10 H 0.9241 0.9194 -0.0273
O11 O 0.8266(3) -0.1073(3) 0.1545(3)
O12 O 0.9441(4) 0.7128(5) 0.1259(4)
H11 H 0.9850 0.6803 0.0796
H12 H 1.0038 0.7775 0.1627
O13 O 0.6335(4) 0.6569(3) 0.1166(3)
H13 H 0.5644 0.6512 0.1053
H14 H 0.6237 0.5841 0.1376
O14 O 0.8684(4) 0.1753(3) 0.1102(3)
O15 O 0.7129(3) 0.2379(3) 0.1907(2)
C1 C 0.7148(4) 0.5458(4) -0.3447(3)
C2 C 0.6677(5) 0.4728(4) -0.4471(3)
C3 C 0.6213(4) 0.3462(4) -0.4553(3)
C4 C 0.6306(4) 0.2957(4) -0.3606(3)
C5 C 0.6810(4) 0.3697(4) -0.2587(3)
C6 C 0.7209(4) 0.4944(4) -0.2504(3)
C7 C 0.6954(5) 0.3177(4) -0.1553(3)
C8 C 0.7795(5) 0.5748(4) -0.1403(3)
C9 C 0.8089(4) -0.0099(4) 0.4002(3)
C10 C 0.8574(4) 0.0727(4) 0.4970(3)
C11 C 0.8971(4) 0.1964(4) 0.4934(3)
C12 C 0.8828(4) 0.2351(4) 0.3941(3)
C13 C 0.8301(4) 0.1521(4) 0.2972(3)
C14 C 0.7971(4) 0.0285(4) 0.2999(3)
C15 C 0.7432(5) -0.0607(4) 0.1945(3)
C16 C 0.8044(4) 0.1920(4) 0.1900(3)
O11_2 O 0.8266(3) 0.8927(3) 0.1545(3)
Cu2_2 Cu 0.77846(6) -0.24112(5) 0.03286(4)
O8 O 0.4249(7) 0.0322(5) 0.1921(5)
H7 H 0.3418 -0.0200 0.1803
H8 H 0.4369 0.0715 0.2572
O16 O 0.8113(18) 1.0312(9) -0.1084(8)
H15 H 0.8660 1.0705 -0.1523
H16 H 0.8185 1.0810 -0.0499
loop_
_geom_bond_atom_site_label_1
_geom_bond_atom_site_label_2
_geom_bond_site_symmetry_1
_geom_bond_site_symmetry_2
Cu1 O1 1_555 1_555
Cu2 O7 1_555 1_555
Cl1 C1 1_555 1_555
Cl2 C2 1_555 1_555
Cl3 C3 1_555 1_555
Cl4 C4 1_555 1_555
Cl5 C9 1_555 1_555
Cl6 C10 1_555 1_555
Cl7 C11 1_555 1_555
Cl8 C12 1_555 1_555
O1 H1 1_555 1_555
H2 O1 1_555 1_555
O2 C7 1_555 1_555
O3 Cu1 1_555 1_555
O4 Cu1 1_555 1_555
H3 O4 1_555 1_555
H4 O4 1_555 1_555
O5 Cu1 1_555 1_555
H5 O5 1_555 1_555
H6 O5 1_555 1_555
O6 C8 1_555 1_555
O7 C8 1_555 1_555
O8 H7 1_555 1_555
H8 O8 1_555 1_555
O9 C15 1_555 1_555
O10 Cu2 1_555 1_555
H9 O10 1_555 1_555
H10 O10 1_555 1_555
O11 C15 1_555 1_555
O12 Cu2 1_555 1_555
H11 O12 1_555 1_555
H12 O12 1_555 1_555
O13 Cu2 1_555 1_555
H13 O13 1_555 1_555
H14 O13 1_555 1_555
O14 C16 1_555 1_555
O15 Cu1 1_555 1_555
O16 H15 1_555 1_555
H16 O16 1_555 1_555
C1 C2 1_555 1_555
C2 C3 1_555 1_555
C3 C4 1_555 1_555
C4 C5 1_555 1_555
C5 C6 1_555 1_555
C6 C1 1_555 1_555
C7 O3 1_555 1_555
C8 C6 1_555 1_555
C9 C10 1_555 1_555
C10 C11 1_555 1_555
C11 C12 1_555 1_555
C12 C13 1_555 1_555
C13 C14 1_555 1_555
C14 C9 1_555 1_555
C15 C14 1_555 1_555
C16 O15 1_555 1_555
O11_2 Cu2 1_555 1_555
Cu2_2 O11 1_555 1_555
C5 C7 1_555 1_555
C13 C16 1_555 1_555

#END
