
#######################################################################
#
#                 Cambridge Crystallographic Data Centre
#                                CCDC 
#
#######################################################################
#
# If this CIF has been generated from an entry in the Cambridge 
# Structural Database, then it will include bibliographic, chemical, 
# crystal, experimental, refinement or atomic coordinate data resulting 
# from the CCDC's data processing and validation procedures.
#
#######################################################################

data_MOMMIM
_symmetry_cell_setting           monoclinic
_symmetry_space_group_name_H-M   'C 2/c'
_symmetry_Int_Tables_number      15
_space_group_name_Hall           '-C 2yn'
loop_
_symmetry_equiv_pos_site_id
_symmetry_equiv_pos_as_xyz
1 x,y,z
2 -x,y,1/2-z
3 1/2+x,1/2+y,z
4 1/2-x,1/2+y,1/2-z
5 -x,-y,-z
6 x,-y,1/2+z
7 1/2-x,1/2-y,-z
8 1/2+x,1/2-y,1/2+z
_cell_length_a                   14.3003(4)
_cell_length_b                   13.6806(4)
_cell_length_c                   20.4834(6)
_cell_angle_alpha                90
_cell_angle_beta                 101.695(3)
_cell_angle_gamma                90
_cell_volume                     3924.11
loop_
_atom_site_label
_atom_site_type_symbol
_atom_site_fract_x
_atom_site_fract_y
_atom_site_fract_z
Zn1 Zn 0.79883(2) 0.02539(2) 1.041449(16)
C1 C 0.7051(2) 0.01467(19) 0.83591(14)
C2 C 0.7536(2) 0.00684(18) 0.78346(14)
H1 H 0.8200 0.0082 0.7922
C3 C 0.7036(2) -0.00286(19) 0.71855(14)
C4 C 0.6040(2) -0.00522(19) 0.70598(15)
H2 H 0.5705 -0.0125 0.6623
C5 C 0.55361(19) 0.00304(19) 0.75701(15)
C6 C 0.6061(2) 0.01297(19) 0.82212(14)
H3 H 0.5739 0.0186 0.8570
C7 C 0.7602(2) 0.02768(19) 0.90629(14)
C8 C 0.7556(2) -0.01198(19) 0.66221(14)
C9 C 0.8851(2) 0.2170(2) 1.01263(15)
H4 H 0.8587 0.2132 0.9673
C10 C 0.9252(2) 0.1885(2) 1.11554(16)
H5 H 0.9300 0.1575 1.1565
C11 C 0.9846(2) 0.3680(2) 1.01121(15)
H6 H 0.9826 0.4276 1.0366
H7 H 0.9485 0.3790 0.9664
C12 C 1.0877(2) 0.3439(2) 1.00868(15)
H8 H 1.1132 0.3937 0.9835
H9 H 1.1261 0.3429 1.0535
C13 C 1.0562(2) 0.1372(2) 0.90694(15)
H10 H 1.0270 0.1017 0.8697
C14 C 1.1476(2) 0.1727(2) 0.99882(14)
H11 H 1.1932 0.1706 1.0383
N1 N 0.87231(17) 0.15214(16) 1.05789(12)
N2 N 0.94143(17) 0.28843(16) 1.04195(12)
N3 N 0.96887(19) 0.27104(18) 1.10841(13)
N4 N 1.09220(17) 0.24876(17) 0.97728(12)
N5 N 1.03276(17) 0.22711(18) 0.91816(12)
N6 N 1.12778(17) 0.10028(17) 0.95506(12)
O1 O 0.71111(14) 0.02440(14) 0.95285(9)
O2 O 0.84703(15) 0.04207(15) 0.91701(10)
O3 O 0.84487(14) -0.01288(14) 0.67440(10)
O4 O 0.70587(14) -0.02010(14) 0.60291(10)
C1A C 0.2949(2) 0.01467(19) 0.66409(14)
C2A C 0.2464(2) 0.00684(18) 0.71654(14)
H1A H 0.1800 0.0082 0.7078
C3A C 0.2964(2) -0.00286(19) 0.78145(14)
C4A C 0.3960(2) -0.00522(19) 0.79402(15)
H2A H 0.4295 -0.0125 0.8377
C5A C 0.44639(19) 0.00304(19) 0.74299(15)
C6A C 0.3939(2) 0.01297(19) 0.67788(14)
H3A H 0.4261 0.0186 0.6430
C7A C 0.2398(2) 0.02768(19) 0.59371(14)
C8A C 0.2444(2) -0.01198(19) 0.83779(14)
O1A O 0.28889(14) 0.02440(14) 0.54715(9)
O2A O 0.15297(15) 0.04207(15) 0.58299(10)
O3A O 0.15513(14) -0.01288(14) 0.82560(10)
O4A O 0.29413(14) -0.02010(14) 0.89709(10)
Zn1A Zn 0.20117(2) 0.02539(2) 0.458551(16)
C9A C 0.1149(2) 0.2170(2) 0.48737(15)
H4A H 0.1413 0.2132 0.5327
C10A C 0.0748(2) 0.1885(2) 0.38446(16)
H5A H 0.0700 0.1575 0.3435
C11A C 0.0154(2) 0.3680(2) 0.48879(15)
H6A H 0.0174 0.4276 0.4634
H7A H 0.0515 0.3790 0.5336
C12A C -0.0877(2) 0.3439(2) 0.49132(15)
H8A H -0.1132 0.3937 0.5165
H9A H -0.1261 0.3429 0.4465
C13A C -0.0562(2) 0.1372(2) 0.59306(15)
H10A H -0.0270 0.1017 0.6303
C14A C -0.1476(2) 0.1727(2) 0.50118(14)
H11A H -0.1932 0.1706 0.4617
N1A N 0.12769(17) 0.15214(16) 0.44211(12)
N2A N 0.05857(17) 0.28843(16) 0.45805(12)
N3A N 0.03113(19) 0.27104(18) 0.39159(13)
N4A N -0.09220(17) 0.24876(17) 0.52272(12)
N5A N -0.03276(17) 0.22711(18) 0.58184(12)
N6A N -0.12778(17) 0.10028(17) 0.54494(12)
Zn1D Zn 0.20117(2) -0.02539(2) 0.958551(16)
Zn1D_2 Zn 1.20117(2) -0.02539(2) 0.958551(16)
Zn1E Zn -0.20117(2) -0.02539(2) 0.541449(16)
Zn1E_2 Zn 0.79883(2) -0.02539(2) 0.541449(16)
N6D N 0.87222(17) -0.10028(17) 1.04494(12)
N6E N 0.12778(17) -0.10028(17) 0.45506(12)
O4D O 0.29413(14) 0.02010(14) 0.39709(10)
O4E O 0.70587(14) 0.02010(14) 1.10291(10)
C15 C 0.8122(3) 0.2539(2) 0.68555(17)
H12 H 0.8782 0.2549 0.6901
C16 C 0.6746(2) 0.2520(2) 0.73673(18)
H13 H 0.6552 0.3159 0.7480
H14 H 0.6580 0.2049 0.7672
H15 H 0.6428 0.2360 0.6921
C17 C 0.8391(3) 0.2482(2) 0.80605(16)
H16 H 0.9047 0.2516 0.8018
H17 H 0.8286 0.1884 0.8280
H18 H 0.8247 0.3027 0.8318
N7 N 0.77839(19) 0.25084(17) 0.74106(13)
O5 O 0.76387(17) 0.25537(16) 0.62828(11)
O6 O 1.0000 0.0840(2) 0.7500
H19 H 0.9491 0.0548 0.7318
H19A H 1.0509 0.0548 0.7682
H20? H 1.0000 0.1457 0.7500
loop_
_geom_bond_atom_site_label_1
_geom_bond_atom_site_label_2
_geom_bond_site_symmetry_1
_geom_bond_site_symmetry_2
Zn1 N1 1_555 1_555
C1 C2 1_555 1_555
C2 H1 1_555 1_555
C3 C2 1_555 1_555
C4 C3 1_555 1_555
H2 C4 1_555 1_555
C5 C4 1_555 1_555
C6 C1 1_555 1_555
H3 C6 1_555 1_555
C7 C1 1_555 1_555
C8 C3 1_555 1_555
C9 H4 1_555 1_555
C10 H5 1_555 1_555
C11 H6 1_555 1_555
H7 C11 1_555 1_555
C12 C11 1_555 1_555
H8 C12 1_555 1_555
H9 C12 1_555 1_555
C13 H10 1_555 1_555
C14 H11 1_555 1_555
N1 C9 1_555 1_555
N2 C9 1_555 1_555
N3 C10 1_555 1_555
N4 C12 1_555 1_555
N5 C13 1_555 1_555
N6 C13 1_555 1_555
O1 Zn1 1_555 1_555
O2 C7 1_555 1_555
O3 C8 1_555 1_555
O4 C8 1_555 1_555
C15 H12 1_555 1_555
C16 H13 1_555 1_555
H14 C16 1_555 1_555
H15 C16 1_555 1_555
C17 H16 1_555 1_555
H17 C17 1_555 1_555
H18 C17 1_555 1_555
N7 C15 1_555 1_555
O5 C15 1_555 1_555
O6 H19 1_555 1_555
C1A C2A 1_555 1_555
C2A H1A 1_555 1_555
C3A C2A 1_555 1_555
C4A C3A 1_555 1_555
H2A C4A 1_555 1_555
C5A C5 1_555 1_555
C6A C1A 1_555 1_555
H3A C6A 1_555 1_555
C7A C1A 1_555 1_555
C8A C3A 1_555 1_555
O1A C7A 1_555 1_555
O2A C7A 1_555 1_555
O3A C8A 1_555 1_555
O4A C8A 1_555 1_555
Zn1A O1A 1_555 1_555
C9A H4A 1_555 1_555
C10A H5A 1_555 1_555
C11A H6A 1_555 1_555
H7A C11A 1_555 1_555
C12A C11A 1_555 1_555
H8A C12A 1_555 1_555
H9A C12A 1_555 1_555
C13A H10A 1_555 1_555
C14A H11A 1_555 1_555
N1A Zn1A 1_555 1_555
N2A C9A 1_555 1_555
N3A C10A 1_555 1_555
N4A C12A 1_555 1_555
N5A C13A 1_555 1_555
N6A C13A 1_555 1_555
Zn1D O4A 1_555 1_555
Zn1D_2 N6 1_555 1_555
Zn1E N6A 1_555 1_555
Zn1E_2 O4 1_555 1_555
N6D Zn1 1_555 1_555
N6E Zn1A 1_555 1_555
O4D Zn1A 1_555 1_555
O4E Zn1 1_555 1_555
H19A O6 1_555 1_555
C5 C6 1_555 1_555
C7 O1 1_555 1_555
C10 N1 1_555 1_555
C11 N2 1_555 1_555
C14 N4 1_555 1_555
C14 N6 1_555 1_555
N2 N3 1_555 1_555
N4 N5 1_555 1_555
C16 N7 1_555 1_555
C17 N7 1_555 1_555
C4A C5A 1_555 1_555
C5A C6A 1_555 1_555
C9A N1A 1_555 1_555
C10A N1A 1_555 1_555
C11A N2A 1_555 1_555
C14A N4A 1_555 1_555
C14A N6A 1_555 1_555
N2A N3A 1_555 1_555
N4A N5A 1_555 1_555

#END
