
#######################################################################
#
#                 Cambridge Crystallographic Data Centre
#                                CCDC 
#
#######################################################################
#
# If this CIF has been generated from an entry in the Cambridge 
# Structural Database, then it will include bibliographic, chemical, 
# crystal, experimental, refinement or atomic coordinate data resulting 
# from the CCDC's data processing and validation procedures.
#
#######################################################################

data_MOMREN
_symmetry_cell_setting           monoclinic
_symmetry_space_group_name_H-M   'P 21/c'
_symmetry_Int_Tables_number      14
_space_group_name_Hall           '-P 2ybc'
loop_
_symmetry_equiv_pos_site_id
_symmetry_equiv_pos_as_xyz
1 x,y,z
2 -x,1/2+y,1/2-z
3 -x,-y,-z
4 x,1/2-y,1/2+z
_cell_length_a                   9.2751(19)
_cell_length_b                   16.490(3)
_cell_length_c                   15.865(5)
_cell_angle_alpha                90
_cell_angle_beta                 118.98(2)
_cell_angle_gamma                90
_cell_volume                     2122.67
loop_
_atom_site_label
_atom_site_type_symbol
_atom_site_fract_x
_atom_site_fract_y
_atom_site_fract_z
Tb1 Tb 0.22538(4) 1.03302(2) 0.52723(3)
S1 S 0.6341(3) 0.86747(15) 0.78627(17)
S2 S 0.0270(3) 0.68853(14) 0.58272(17)
S3 S -0.3144(3) 0.95543(16) 0.11616(15)
O1 O 0.2011(6) 0.8908(3) 0.5404(4)
O2 O -0.0352(6) 0.9983(3) 0.3930(3)
O3 O -0.2801(6) 0.9407(3) 0.3118(3)
O4 O 0.3911(6) 1.1546(3) 0.5580(4)
O5 O -0.0537(6) 0.8554(3) 0.5094(4)
O6 O 0.4966(6) 0.9899(3) 0.6266(3)
O7 O 0.6955(6) 0.9715(3) 0.5879(4)
N1 N 0.6187(8) 1.2300(4) 0.5981(5)
C1 C 0.7278(11) 0.7749(5) 0.8156(7)
H1 H 0.7396 0.7435 0.8673
C2 C 0.7824(10) 0.7530(5) 0.7541(7)
H2 H 0.8366 0.7042 0.7596
C3 C 0.7513(9) 0.8098(5) 0.6806(6)
H3 H 0.7809 0.8033 0.6328
C4 C 0.6695(8) 0.8771(4) 0.6904(5)
C5 C 0.6150(8) 0.9506(4) 0.6297(5)
C6 C 0.1001(10) 0.8414(5) 0.5403(5)
C7 C 0.1609(9) 0.7600(4) 0.5819(5)
C8 C 0.3234(9) 0.7311(4) 0.6253(5)
H4 H 0.4133 0.7604 0.6308
C9 C 0.3314(11) 0.6518(5) 0.6595(6)
H5 H 0.4293 0.6228 0.6918
C10 C 0.1846(12) 0.6217(5) 0.6411(6)
H6 H 0.1705 0.5697 0.6585
C11 C -0.1585(8) 0.9753(4) 0.3135(5)
C12 C -0.1611(9) 0.9936(4) 0.2217(5)
C13 C -0.2365(12) 1.0029(6) 0.0511(6)
H7 H -0.2840 0.9996 -0.0156
C14 C -0.1022(11) 1.0447(6) 0.1055(6)
H8 H -0.0432 1.0733 0.0817
C15 C 0.5450(9) 1.1614(5) 0.5952(5)
C16 C 0.7981(10) 1.2334(6) 0.6448(6)
H9 H 0.8420 1.1794 0.6598
H10 H 0.8393 1.2645 0.7031
H11 H 0.8310 1.2585 0.6022
C17 C 0.5285(11) 1.3052(5) 0.5586(7)
H12 H 0.5605 1.3444 0.6092
H13 H 0.4123 1.2950 0.5302
H14 H 0.5531 1.3256 0.5104
C18 C -0.0572(9) 1.0410(5) 0.2050(5)
H15 H 0.0332 1.0680 0.2533
Tb1B Tb -0.22538(4) 0.96698(2) 0.47277(3)
Tb1B_2 Tb 0.77462(4) 0.96698(2) 0.47277(3)
O2B O 0.0352(6) 1.0017(3) 0.6070(3)
O3B O 0.2801(6) 1.0593(3) 0.6882(3)
O5B O 0.0537(6) 1.1446(3) 0.4906(4)
O7B O 0.3045(6) 1.0285(3) 0.4121(4)
loop_
_geom_bond_atom_site_label_1
_geom_bond_atom_site_label_2
_geom_bond_site_symmetry_1
_geom_bond_site_symmetry_2
Tb1 O1 1_555 1_555
S1 C1 1_555 1_555
S2 C7 1_555 1_555
S3 C12 1_555 1_555
O1 C6 1_555 1_555
O2 Tb1 1_555 1_555
O3 C11 1_555 1_555
O4 Tb1 1_555 1_555
O5 C6 1_555 1_555
O6 Tb1 1_555 1_555
O7 C5 1_555 1_555
N1 C15 1_555 1_555
C1 H1 1_555 1_555
C2 C1 1_555 1_555
H2 C2 1_555 1_555
C3 C2 1_555 1_555
H3 C3 1_555 1_555
C4 S1 1_555 1_555
C5 O6 1_555 1_555
C6 C7 1_555 1_555
C7 C8 1_555 1_555
C8 H4 1_555 1_555
C9 C8 1_555 1_555
H5 C9 1_555 1_555
C10 S2 1_555 1_555
H6 C10 1_555 1_555
C11 O2 1_555 1_555
C12 C11 1_555 1_555
C13 S3 1_555 1_555
H7 C13 1_555 1_555
C14 C13 1_555 1_555
H8 C14 1_555 1_555
C15 O4 1_555 1_555
C16 N1 1_555 1_555
H9 C16 1_555 1_555
H10 C16 1_555 1_555
H11 C16 1_555 1_555
C17 N1 1_555 1_555
H12 C17 1_555 1_555
H13 C17 1_555 1_555
H14 C17 1_555 1_555
C18 C12 1_555 1_555
H15 C18 1_555 1_555
Tb1B O2 1_555 1_555
Tb1B_2 O7 1_555 1_555
O2B Tb1 1_555 1_555
O3B Tb1 1_555 1_555
O5B Tb1 1_555 1_555
O7B Tb1 1_555 1_555
O3 Tb1B 1_555 1_555
O5 Tb1B 1_555 1_555
C3 C4 1_555 1_555
C4 C5 1_555 1_555
C9 C10 1_555 1_555
C14 C18 1_555 1_555
Tb1B O2B 1_555 1_555

#END
