
#######################################################################
#
#                 Cambridge Crystallographic Data Centre
#                                CCDC 
#
#######################################################################
#
# If this CIF has been generated from an entry in the Cambridge 
# Structural Database, then it will include bibliographic, chemical, 
# crystal, experimental, refinement or atomic coordinate data resulting 
# from the CCDC's data processing and validation procedures.
#
#######################################################################

data_MOMTUF
_symmetry_cell_setting           monoclinic
_symmetry_space_group_name_H-M   'C 2/c'
_symmetry_Int_Tables_number      15
_space_group_name_Hall           '-C 2yn'
loop_
_symmetry_equiv_pos_site_id
_symmetry_equiv_pos_as_xyz
1 x,y,z
2 -x,y,1/2-z
3 1/2+x,1/2+y,z
4 1/2-x,1/2+y,1/2-z
5 -x,-y,-z
6 x,-y,1/2+z
7 1/2-x,1/2-y,-z
8 1/2+x,1/2-y,1/2+z
_cell_length_a                   25.424(6)
_cell_length_b                   10.269(2)
_cell_length_c                   15.747(4)
_cell_angle_alpha                90
_cell_angle_beta                 111.456(2)
_cell_angle_gamma                90
_cell_volume                     3826.3
loop_
_atom_site_label
_atom_site_type_symbol
_atom_site_fract_x
_atom_site_fract_y
_atom_site_fract_z
Cd1 Cd 0.177478(8) -0.044382(17) 0.204115(13)
S1 S 0.45682(3) -0.12428(7) 0.37690(5)
O1 O 0.26647(8) 0.0054(2) 0.21165(14)
O2 O 0.26846(9) -0.0719(2) 0.34248(15)
O3 O 0.32641(8) 0.24250(18) 0.32175(16)
O4 O 0.41115(9) 0.30130(18) 0.32930(15)
N1 N 0.13696(9) 0.0668(2) 0.28800(15)
N2 N 0.11803(9) 0.2155(2) 0.37307(15)
N3 N 0.10055(10) 0.8107(2) 0.45184(15)
N4 N 0.12847(9) 0.9533(2) 0.56415(15)
C1 C 0.29230(11) -0.0313(2) 0.29233(19)
C2 C 0.35640(10) -0.0330(2) 0.32632(16)
C3 C 0.38553(11) -0.1471(3) 0.34419(17)
H1 H 0.3686 -0.2285 0.3392
C4 C 0.44840(11) 0.0405(3) 0.36700(18)
H2 H 0.4782 0.0989 0.3789
C5 C 0.39335(11) 0.0769(2) 0.33980(17)
C6 C 0.37646(11) 0.2178(2) 0.32936(17)
C7 C 0.08174(12) 0.0526(3) 0.2812(2)
H3 H 0.0567 -0.0100 0.2463
C8 C 0.06976(13) 0.1434(3) 0.3326(2)
H4 H 0.0353 0.1553 0.3396
C9 C 0.15782(12) 0.1658(3) 0.34396(18)
C10 C 0.21672(12) 0.2147(3) 0.3725(2)
H5 H 0.2401 0.1690 0.4262
H6 H 0.2174 0.3062 0.3855
H7 H 0.2307 0.2006 0.3243
C11 C 0.12281(13) 0.3299(3) 0.43157(19)
H8 H 0.1605 0.3320 0.4781
H9 H 0.0960 0.3211 0.4621
C12 C 0.11190(13) 0.4575(3) 0.37961(19)
H10 H 0.0754 0.4535 0.3301
H11 H 0.1405 0.4701 0.3531
C13 C 0.11276(13) 0.5727(3) 0.44064(19)
H12 H 0.1491 0.5752 0.4906
H13 H 0.0839 0.5598 0.4666
C14 C 0.10270(14) 0.7030(3) 0.3912(2)
H14 H 0.1328 0.7192 0.3686
H15 H 0.0673 0.6997 0.3392
C15 C 0.05275(12) 0.8552(3) 0.46410(19)
H16 H 0.0156 0.8303 0.4314
C16 C 0.07045(11) 0.9422(3) 0.53286(19)
H17 H 0.0470 0.9880 0.5558
C17 C 0.14545(12) 0.8729(3) 0.51317(19)
C18 C 0.20460(13) 0.8537(3) 0.5201(2)
H18 H 0.2282 0.9189 0.5596
H19 H 0.2066 0.8610 0.4606
H20 H 0.2173 0.7689 0.5446
Cd1C Cd 0.322522(8) 0.455618(17) 0.295885(13)
Cd1E Cd 0.177478(8) 1.044382(17) 0.704115(13)
O3C O 0.17359(8) -0.25750(18) 0.17825(16)
O4C O 0.08885(9) -0.19870(18) 0.17070(15)
N4E N 0.12847(9) 0.0467(2) 0.06415(15)
loop_
_geom_bond_atom_site_label_1
_geom_bond_atom_site_label_2
_geom_bond_site_symmetry_1
_geom_bond_site_symmetry_2
Cd1 O1 1_555 1_555
S1 C3 1_555 1_555
O1 C1 1_555 1_555
O2 Cd1 1_555 1_555
O3 C6 1_555 1_555
O4 C6 1_555 1_555
N1 Cd1 1_555 1_555
N2 C8 1_555 1_555
N3 C14 1_555 1_555
N4 C16 1_555 1_555
C1 O2 1_555 1_555
C2 C1 1_555 1_555
C3 C2 1_555 1_555
H1 C3 1_555 1_555
C4 S1 1_555 1_555
H2 C4 1_555 1_555
C5 C2 1_555 1_555
C6 C5 1_555 1_555
C7 N1 1_555 1_555
H3 C7 1_555 1_555
C8 C7 1_555 1_555
H4 C8 1_555 1_555
C9 N1 1_555 1_555
C10 C9 1_555 1_555
H5 C10 1_555 1_555
H6 C10 1_555 1_555
H7 C10 1_555 1_555
C11 N2 1_555 1_555
H8 C11 1_555 1_555
H9 C11 1_555 1_555
C12 C11 1_555 1_555
H10 C12 1_555 1_555
H11 C12 1_555 1_555
C13 C12 1_555 1_555
H12 C13 1_555 1_555
H13 C13 1_555 1_555
C14 C13 1_555 1_555
H14 C14 1_555 1_555
H15 C14 1_555 1_555
C15 N3 1_555 1_555
H16 C15 1_555 1_555
C16 C15 1_555 1_555
H17 C16 1_555 1_555
C17 N3 1_555 1_555
C18 C17 1_555 1_555
H18 C18 1_555 1_555
H19 C18 1_555 1_555
H20 C18 1_555 1_555
Cd1C O3 1_555 1_555
Cd1E N4 1_555 1_555
O3C Cd1 1_555 1_555
O4C Cd1 1_555 1_555
N4E Cd1 1_555 1_555
O4 Cd1C 1_555 1_555
N2 C9 1_555 1_555
N4 C17 1_555 1_555
C4 C5 1_555 1_555

#END
