
#######################################################################
#
#                 Cambridge Crystallographic Data Centre
#                                CCDC 
#
#######################################################################
#
# If this CIF has been generated from an entry in the Cambridge 
# Structural Database, then it will include bibliographic, chemical, 
# crystal, experimental, refinement or atomic coordinate data resulting 
# from the CCDC's data processing and validation procedures.
#
#######################################################################

data_MOMTOZ
_symmetry_cell_setting           monoclinic
_symmetry_space_group_name_H-M   'C 2/c'
_symmetry_Int_Tables_number      15
_space_group_name_Hall           '-C 2yn'
loop_
_symmetry_equiv_pos_site_id
_symmetry_equiv_pos_as_xyz
1 x,y,z
2 -x,y,1/2-z
3 1/2+x,1/2+y,z
4 1/2-x,1/2+y,1/2-z
5 -x,-y,-z
6 x,-y,1/2+z
7 1/2-x,1/2-y,-z
8 1/2+x,1/2-y,1/2+z
_cell_length_a                   27.267(19)
_cell_length_b                   11.230(8)
_cell_length_c                   19.696(14)
_cell_angle_alpha                90
_cell_angle_beta                 132.460(5)
_cell_angle_gamma                90
_cell_volume                     4449.42
loop_
_atom_site_label
_atom_site_type_symbol
_atom_site_fract_x
_atom_site_fract_y
_atom_site_fract_z
Cd1 Cd 0.189719(12) 0.48497(2) 0.590351(16)
S1 S 0.44818(6) 0.45306(10) 1.03342(7)
O1 O 0.23731(11) 0.5790(2) 0.73838(16)
O2 O 0.30150(14) 0.4888(2) 0.72384(18)
O3 O 0.31825(13) 0.8026(2) 0.85335(17)
O4 O 0.33708(16) 0.7955(3) 0.98058(18)
C1 C 0.29248(17) 0.5394(3) 0.7727(2)
C2 C 0.35052(16) 0.5403(3) 0.8750(2)
C3 C 0.39213(19) 0.4446(4) 0.9166(2)
H1 H 0.3900 0.3811 0.8844
C4 C 0.4175(2) 0.5872(4) 1.0301(2)
H2 H 0.4344 0.6304 1.0823
C5 C 0.36471(16) 0.6248(3) 0.9413(2)
C6 C 0.33698(16) 0.7473(3) 0.9228(2)
C7 C 0.2356(3) 0.4797(4) 0.4731(3)
H3 H 0.2572 0.4075 0.5002
C8 C 0.2265(3) 0.5332(5) 0.4053(4)
H4 H 0.2395 0.5051 0.3750
C9 C 0.18264(19) 0.6463(4) 0.4440(3)
C10 C 0.1492(2) 0.7442(4) 0.4469(3)
H5 H 0.1022 0.7390 0.3949
H6 H 0.1657 0.8185 0.4450
H7 H 0.1576 0.7396 0.5027
C11 C 0.1769(2) 0.7262(4) 0.3188(3)
H8 H 0.2045 0.7103 0.3053
H9 H 0.1868 0.8062 0.3437
C12 C 0.1022(2) 0.7197(4) 0.2276(3)
H10 H 0.0742 0.7305 0.2411
H11 H 0.0924 0.7833 0.1867
C13 C 0.0873(2) 0.6047(4) 0.1821(3)
H12 H 0.0937 0.5413 0.2209
H13 H 0.1173 0.5911 0.1724
C14 C -0.00529(18) 0.6635(4) 0.0140(3)
H14 H 0.0188 0.7143 0.0084
C15 C -0.06940(18) 0.6321(3) -0.0522(2)
H15 H -0.0974 0.6572 -0.1131
C16 C -0.03350(19) 0.5431(4) 0.0709(3)
C17 C -0.0286(3) 0.4657(7) 0.1365(4)
H16 H -0.0666 0.4141 0.1030
H17 H -0.0272 0.5143 0.1779
H18 H 0.0112 0.4186 0.1710
N1 N 0.20583(16) 0.5534(3) 0.4976(2)
N2 N 0.19359(14) 0.6409(3) 0.38837(18)
N3 N 0.01732(14) 0.6042(3) 0.0921(2)
N4 N -0.08779(14) 0.5578(3) -0.01737(19)
Cd1A Cd -0.189719(12) 0.48497(2) -0.090351(16)
Cd1C Cd 0.310281(12) 0.98497(2) 0.909649(16)
O3C O 0.18175(13) 0.3026(2) 0.64665(17)
O4C O 0.16292(16) 0.2955(3) 0.51942(18)
N4A N 0.08779(14) 0.5578(3) 0.51737(19)
O5 O 0.17288(14) 0.7326(3) 0.7705(2)
H19 H 0.1894 0.6735 0.7649
H20 H 0.1843 0.8049 0.7864
O6 O 1.0000 0.8640(6) 0.2500
H21 H 0.9724 0.9137 0.2404
H21A H 1.0276 0.9137 0.2596
O7 O 0.4140(3) 0.4825(4) 0.7362(5)
H22 H 0.4224 0.4105 0.7338
H23 H 0.3774 0.4677 0.7218
O8 O 0.1099(2) 0.2509(5) 0.3377(3)
H24 H 0.1238 0.2885 0.3160
H25 H 0.1293 0.2540 0.3941
loop_
_geom_bond_atom_site_label_1
_geom_bond_atom_site_label_2
_geom_bond_site_symmetry_1
_geom_bond_site_symmetry_2
Cd1 O1 1_555 1_555
S1 C3 1_555 1_555
O1 C1 1_555 1_555
O2 Cd1 1_555 1_555
O3 C6 1_555 1_555
O4 C6 1_555 1_555
C1 O2 1_555 1_555
C2 C1 1_555 1_555
C3 C2 1_555 1_555
H1 C3 1_555 1_555
C4 S1 1_555 1_555
H2 C4 1_555 1_555
C5 C2 1_555 1_555
C6 C5 1_555 1_555
C7 H3 1_555 1_555
C8 C7 1_555 1_555
H4 C8 1_555 1_555
C9 C10 1_555 1_555
C10 H5 1_555 1_555
H6 C10 1_555 1_555
H7 C10 1_555 1_555
C11 H8 1_555 1_555
H9 C11 1_555 1_555
C12 C11 1_555 1_555
H10 C12 1_555 1_555
H11 C12 1_555 1_555
C13 C12 1_555 1_555
H12 C13 1_555 1_555
H13 C13 1_555 1_555
C14 H14 1_555 1_555
C15 C14 1_555 1_555
H15 C15 1_555 1_555
C16 C17 1_555 1_555
C17 H16 1_555 1_555
H17 C17 1_555 1_555
H18 C17 1_555 1_555
N1 Cd1 1_555 1_555
N2 C8 1_555 1_555
N3 C13 1_555 1_555
N4 C15 1_555 1_555
O5 H19 1_555 1_555
H20 O5 1_555 1_555
O6 H21 1_555 1_555
O7 H22 1_555 1_555
H23 O7 1_555 1_555
O8 H24 1_555 1_555
H25 O8 1_555 1_555
Cd1A N4 1_555 1_555
Cd1C O3 1_555 1_555
O3C Cd1 1_555 1_555
O4C Cd1 1_555 1_555
N4A Cd1 1_555 1_555
H21A O6 1_555 1_555
O4 Cd1C 1_555 1_555
C4 C5 1_555 1_555
C7 N1 1_555 1_555
C9 N1 1_555 1_555
C9 N2 1_555 1_555
C11 N2 1_555 1_555
C14 N3 1_555 1_555
C16 N3 1_555 1_555
C16 N4 1_555 1_555

#END
