
#######################################################################
#
#                 Cambridge Crystallographic Data Centre
#                                CCDC 
#
#######################################################################
#
# If this CIF has been generated from an entry in the Cambridge 
# Structural Database, then it will include bibliographic, chemical, 
# crystal, experimental, refinement or atomic coordinate data resulting 
# from the CCDC's data processing and validation procedures.
#
#######################################################################

data_MONBEW
_symmetry_cell_setting           triclinic
_symmetry_space_group_name_H-M   'P -1'
_symmetry_Int_Tables_number      2
_space_group_name_Hall           '-P 1'
loop_
_symmetry_equiv_pos_site_id
_symmetry_equiv_pos_as_xyz
1 x,y,z
2 -x,-y,-z
_cell_length_a                   11.359(2)
_cell_length_b                   11.765(2)
_cell_length_c                   11.928(2)
_cell_angle_alpha                112.498(2)
_cell_angle_beta                 93.738(2)
_cell_angle_gamma                112.770(2)
_cell_volume                     1314.7
loop_
_atom_site_label
_atom_site_type_symbol
_atom_site_fract_x
_atom_site_fract_y
_atom_site_fract_z
Co1 Co -0.11032(18) 0.34747(17) 0.70951(17)
N1 N -0.2107(12) 0.1293(11) 0.6053(11)
C1 C -0.3225(19) 0.0523(17) 0.6204(18)
H1 H -0.3571 0.0958 0.6823
C2 C -0.3929(18) -0.0901(17) 0.5500(17)
H2 H -0.4708 -0.1408 0.5650
C3 C -0.3415(16) -0.1512(14) 0.4578(14)
C4 C -0.230(2) -0.0753(15) 0.436(2)
H3 H -0.1953 -0.1160 0.3727
C5 C -0.1693(16) 0.0656(16) 0.5107(16)
H4 H -0.0947 0.1187 0.4932
C6 C -0.4714(13) -0.3536(14) 0.2743(14)
C7 C -0.5292(13) -0.5089(13) 0.2166(13)
C8 C -0.4893(15) -0.5737(14) 0.2778(14)
H5 H -0.4266 -0.5224 0.3543
C9 C -0.5452(15) -0.7146(14) 0.2222(14)
H6 H -0.5181 -0.7596 0.2598
C10 C -0.6419(14) -0.7907(13) 0.1098(14)
C11 C -0.6809(15) -0.7276(14) 0.0495(14)
H7 H -0.7452 -0.7794 -0.0259
C12 C -0.6219(14) -0.5840(14) 0.1038(15)
H8 H -0.6454 -0.5393 0.0635
C13 C -0.6977(17) -0.9431(16) 0.0571(16)
C14 C -0.8677(17) -1.1534(14) -0.0979(15)
C15 C -0.9511(17) -1.2131(16) -0.0386(16)
H9 H -0.9624 -1.1616 0.0377
C16 C -1.0173(16) -1.3533(14) -0.0977(14)
H10 H -1.0747 -1.3959 -0.0582
C17 C -0.9231(15) -1.3690(15) -0.2601(14)
H11 H -0.9122 -1.4224 -0.3357
C18 C -0.8519(17) -1.2273(15) -0.2095(14)
H12 H -0.7962 -1.1852 -0.2503
N2 N -0.2458(10) 0.3499(9) 0.5235(10)
O1 O -0.4838(10) -0.2907(9) 0.2179(10)
O2 O -0.6639(13) -1.0067(11) 0.1018(12)
O3 O -0.4012(11) -0.2946(9) 0.3939(9)
O4 O -0.8018(12) -1.0101(9) -0.0464(9)
N3 N -0.2074(13) 0.3420(12) 0.8535(12)
C19 C -0.2638(15) 0.3267(15) 0.9219(15)
C20 C -0.3465(16) 0.3051(17) 1.0097(16)
H13 H -0.4301 0.3004 0.9814
H14 H -0.3030 0.3803 1.0918
H15 H -0.3601 0.2207 1.0128
N5 N 0.1235(13) 0.3455(12) 0.7682(13)
O5 O 0.0395(11) 0.3468(11) 0.8371(14)
O6 O 0.0857(12) 0.3435(11) 0.6621(12)
O7 O 0.2255(11) 0.3491(12) 0.8053(13)
N6 N -1.0072(12) -1.4333(11) -0.2052(11)
O8 O -0.2810(11) 0.3577(11) 0.6226(10)
O9 O -0.1321(11) 0.3516(10) 0.5256(9)
O10 O -0.3070(14) 0.3514(16) 0.4366(13)
N6_2 N -0.0072(12) 0.5667(11) 0.7948(11)
Co1_2 Co -1.11032(18) -1.65253(17) -0.29049(17)
N4 N 0.032(3) -0.962(2) 0.255(3)
C21 C 0.101(2) -0.854(2) 0.310(2)
C22 C 0.178(2) -0.7043(18) 0.3881(19)
H16 H 0.1328 -0.6733 0.4499
H17 H 0.1861 -0.6578 0.3360
H18 H 0.2636 -0.6844 0.4292
loop_
_geom_bond_atom_site_label_1
_geom_bond_atom_site_label_2
_geom_bond_site_symmetry_1
_geom_bond_site_symmetry_2
Co1 N1 1_555 1_555
N1 C1 1_555 1_555
C1 H1 1_555 1_555
C2 C1 1_555 1_555
H2 C2 1_555 1_555
C3 C2 1_555 1_555
C4 C3 1_555 1_555
H3 C4 1_555 1_555
C5 N1 1_555 1_555
H4 C5 1_555 1_555
C6 C7 1_555 1_555
C7 C8 1_555 1_555
C8 H5 1_555 1_555
C9 C8 1_555 1_555
H6 C9 1_555 1_555
C10 C9 1_555 1_555
C11 C10 1_555 1_555
H7 C11 1_555 1_555
C12 C7 1_555 1_555
H8 C12 1_555 1_555
C13 C10 1_555 1_555
C14 C15 1_555 1_555
C15 H9 1_555 1_555
C16 C15 1_555 1_555
H10 C16 1_555 1_555
C17 H11 1_555 1_555
C18 C14 1_555 1_555
H12 C18 1_555 1_555
N2 O8 1_555 1_555
O1 C6 1_555 1_555
O2 C13 1_555 1_555
O3 C3 1_555 1_555
O4 C13 1_555 1_555
N3 Co1 1_555 1_555
C19 N3 1_555 1_555
C20 C19 1_555 1_555
H13 C20 1_555 1_555
H14 C20 1_555 1_555
H15 C20 1_555 1_555
N4 C21 1_555 1_555
C21 C22 1_555 1_555
C22 H16 1_555 1_555
H17 C22 1_555 1_555
H18 C22 1_555 1_555
N5 O5 1_555 1_555
O5 Co1 1_555 1_555
O6 Co1 1_555 1_555
O7 N5 1_555 1_555
N6 C16 1_555 1_555
O8 Co1 1_555 1_555
O9 Co1 1_555 1_555
O10 N2 1_555 1_555
N6_2 Co1 1_555 1_555
Co1_2 N6 1_555 1_555
C4 C5 1_555 1_555
C6 O3 1_555 1_555
C11 C12 1_555 1_555
C14 O4 1_555 1_555
C17 N6 1_555 1_555
C17 C18 1_555 1_555
N2 O9 1_555 1_555
N5 O6 1_555 1_555

#END
