
#######################################################################
#
#                 Cambridge Crystallographic Data Centre
#                                CCDC 
#
#######################################################################
#
# If this CIF has been generated from an entry in the Cambridge 
# Structural Database, then it will include bibliographic, chemical, 
# crystal, experimental, refinement or atomic coordinate data resulting 
# from the CCDC's data processing and validation procedures.
#
#######################################################################

data_MONCAT
_symmetry_cell_setting           triclinic
_symmetry_space_group_name_H-M   'P -1'
_symmetry_Int_Tables_number      2
_space_group_name_Hall           '-P 1'
loop_
_symmetry_equiv_pos_site_id
_symmetry_equiv_pos_as_xyz
1 x,y,z
2 -x,-y,-z
_cell_length_a                   8.172(5)
_cell_length_b                   8.482(5)
_cell_length_c                   17.977(5)
_cell_angle_alpha                81.230(5)
_cell_angle_beta                 89.940(5)
_cell_angle_gamma                75.460(5)
_cell_volume                     1191.16
loop_
_atom_site_label
_atom_site_type_symbol
_atom_site_fract_x
_atom_site_fract_y
_atom_site_fract_z
Co1 Co 0.4035(2) 0.3896(3) 0.73396(10)
N1 N 0.1560(14) 0.3029(14) 0.6745(7)
O1 O 0.0419(11) 0.2770(12) 0.6409(6)
O2 O 0.1752(11) 0.2815(12) 0.7463(5)
O3 O 0.2744(11) 0.3575(11) 0.6422(5)
N2 N 0.3062(17) 0.6222(19) 0.8114(7)
O4 O 0.2576(14) 0.7494(17) 0.8403(8)
O5 O 0.2212(12) 0.6104(14) 0.7521(5)
O6 O 0.4284(14) 0.5023(16) 0.8343(5)
C1 C 1.1592(14) 0.8342(15) 0.5675(7)
C2 C 0.9394(13) 0.7053(14) 0.5528(6)
H1 H 1.0183 0.6153 0.5341
H2 H 0.8861 0.7851 0.5097
C3 C 0.8048(15) 0.6305(17) 0.6740(7)
H3 H 0.8815 0.6683 0.7002
C4 C 0.9681(17) -0.9141(15) 0.9851(7)
C5 C 0.6884(16) 0.5650(16) 0.7120(6)
H4 H 0.6865 0.5619 0.7640
C6 C 1.2490(15) 0.8989(16) 0.6133(7)
H5 H 1.2173 0.9019 0.6629
C7 C 1.3322(15) 0.9027(14) 0.4683(7)
H6 H 1.3588 0.9041 0.4179
C8 C 0.5016(17) 0.0426(18) 0.8191(8)
H7 H 0.3868 0.0667 0.8287
C9 C 0.6969(15) 0.5806(16) 0.5602(6)
H8 H 0.6988 0.5823 0.5084
C10 C 0.8110(14) 0.6420(14) 0.5943(6)
C11 C 0.8523(18) -0.5721(18) 0.9279(7)
C12 C 1.4321(13) 0.9646(15) 0.5122(6)
C13 C 0.5789(14) 0.5161(16) 0.6006(7)
H9 H 0.5007 0.4805 0.5743
C14 C 0.7714(17) -0.1402(18) 0.8410(7)
C15 C 1.3859(18) 0.9605(17) 0.5893(6)
H10 H 1.4470 0.9988 0.6231
C16 C 0.5986(17) -0.1106(18) 0.8471(8)
H11 H 0.5497 -0.1928 0.8697
C17 C 0.8819(15) -0.3119(15) 0.8699(7)
H12 H 0.9415 -0.3597 0.8288
H13 H 0.9649 -0.3060 0.9073
C18 C 0.7442(18) -0.6629(19) 0.9625(8)
H14 H 0.6303 -0.6115 0.9659
C19 C 0.805(2) -0.8306(19) 0.9923(9)
H15 H 0.7321 -0.8861 1.0178
C20 C 1.1977(15) 0.8394(17) 0.4908(6)
H16 H 1.1353 0.8019 0.4573
C21 C 1.017(2) -0.652(2) 0.9221(10)
H17 H 1.0919 -0.5955 0.8992
C22 C 1.073(2) -0.8219(18) 0.9511(9)
H18 H 1.1868 -0.8743 0.9471
C23 C 0.7294(14) 0.1266(19) 0.7707(7)
H19 H 0.7773 0.2067 0.7450
C24 C 0.8370(16) -0.0272(17) 0.8002(7)
H20 H 0.9521 -0.0502 0.7914
O7 O 1.0270(10) 0.7789(10) 0.5966(4)
O8 O 0.7768(11) -0.4090(11) 0.9020(5)
N3 N 0.5701(11) 0.5014(12) 0.6774(5)
N4 N 0.5630(12) 0.1639(13) 0.7775(6)
C12A C 1.5679(13) 1.0354(15) 0.4878(6)
C7A C 1.6678(15) 1.0973(14) 0.5317(7)
H6A H 1.6412 1.0959 0.5821
C20A C 1.8023(15) 1.1606(17) 0.5092(6)
C1A C 1.8408(14) 1.1658(15) 0.4325(7)
C6A C 1.7510(15) 1.1011(16) 0.3867(7)
H5A H 1.7827 1.0981 0.3371
C15A C 1.6141(18) 1.0395(17) 0.4107(6)
H10A H 1.5530 1.0012 0.3769
O7A O 1.9730(10) 1.2211(10) 0.4034(4)
C2A C 2.0606(13) 1.2947(14) 0.4472(6)
H1A H 1.9817 1.3847 0.4659
H2A H 2.1139 1.2149 0.4903
C10A C 2.1890(14) 1.3580(14) 0.4057(6)
C3A C 2.1952(15) 1.3695(17) 0.3260(7)
H3A H 2.1185 1.3317 0.2998
C5A C 2.3116(16) 1.4350(16) 0.2880(6)
H4A H 2.3135 1.4381 0.2360
N3A N 2.4299(11) 1.4986(12) 0.3226(5)
C13A C 2.4211(14) 1.4839(16) 0.3994(7)
C9A C 2.3031(15) 1.4194(16) 0.4398(6)
H8A H 2.3012 1.4177 0.4916
H9A H 2.4993 1.5195 0.4257
H16A H 1.8647 1.1981 0.5427
C4A C 1.0319(17) -1.0859(15) 1.0149(7)
C19A C 1.195(2) -1.1694(19) 1.0077(9)
C18A C 1.2558(18) -1.3371(19) 1.0375(8)
C11A C 1.1477(18) -1.4279(18) 1.0721(7)
C21A C 0.983(2) -1.348(2) 1.0779(10)
H17A H 0.9081 -1.4045 1.1008
C22A C 0.927(2) -1.1781(18) 1.0489(9)
H18A H 0.8132 -1.1257 1.0529
O8A O 1.2232(11) -1.5910(11) 1.0980(5)
C17A C 1.1181(15) -1.6881(15) 1.1301(7)
C14A C 1.2286(17) -1.8598(18) 1.1590(7)
C16A C 1.4014(17) -1.8894(18) 1.1529(8)
C8A C 1.4984(17) -2.0426(18) 1.1809(8)
H7A H 1.6132 -2.0667 1.1713
N4A N 1.4370(12) -2.1639(13) 1.2225(6)
C23A C 1.2706(14) -2.1266(19) 1.2293(7)
H19A H 1.2227 -2.2067 1.2550
C24A C 1.1630(16) -1.9728(17) 1.1998(7)
H20A H 1.0479 -1.9498 1.2086
H11A H 1.4503 -1.8072 1.1303
H12A H 1.0585 -1.6403 1.1712
H13A H 1.0351 -1.6940 1.0927
H14A H 1.3697 -1.3885 1.0341
H15A H 1.2679 -1.1139 0.9822
Co1A Co 2.5965(2) 1.6104(3) 0.26604(10)
N1A N 2.8440(14) 1.6971(14) 0.3255(7)
O1A O 2.9581(11) 1.7230(12) 0.3591(6)
O2A O 2.8248(11) 1.7185(12) 0.2537(5)
O3A O 2.7256(11) 1.6425(11) 0.3578(5)
N2A N 2.6938(17) 1.3778(19) 0.1886(7)
O4A O 2.7424(14) 1.2506(17) 0.1597(8)
O5A O 2.7788(12) 1.3896(14) 0.2479(5)
O6A O 2.5716(14) 1.4977(16) 0.1657(5)
Co1A_2 Co 1.5965(2) -2.3896(3) 1.26604(10)
N4A_2 N 2.4370(12) 1.8361(13) 0.2225(6)
loop_
_geom_bond_atom_site_label_1
_geom_bond_atom_site_label_2
_geom_bond_site_symmetry_1
_geom_bond_site_symmetry_2
Co1 O2 1_555 1_555
N1 O1 1_555 1_555
O2 N1 1_555 1_555
O3 Co1 1_555 1_555
N2 O4 1_555 1_555
O5 Co1 1_555 1_555
O6 Co1 1_555 1_555
C1 C6 1_555 1_555
C2 H1 1_555 1_555
H2 C2 1_555 1_555
C3 H3 1_555 1_555
C4 C19 1_555 1_555
C5 C3 1_555 1_555
H4 C5 1_555 1_555
C6 H5 1_555 1_555
C7 H6 1_555 1_555
C8 H7 1_555 1_555
C9 H8 1_555 1_555
C10 C2 1_555 1_555
C11 C18 1_555 1_555
C12 C7 1_555 1_555
C13 C9 1_555 1_555
H9 C13 1_555 1_555
C14 C16 1_555 1_555
C15 C6 1_555 1_555
H10 C15 1_555 1_555
C16 C8 1_555 1_555
H11 C16 1_555 1_555
C17 C14 1_555 1_555
H12 C17 1_555 1_555
H13 C17 1_555 1_555
C18 H14 1_555 1_555
C19 C18 1_555 1_555
H15 C19 1_555 1_555
C20 C1 1_555 1_555
H16 C20 1_555 1_555
C21 C11 1_555 1_555
H17 C21 1_555 1_555
C22 C4 1_555 1_555
H18 C22 1_555 1_555
C23 H19 1_555 1_555
C24 C14 1_555 1_555
H20 C24 1_555 1_555
O7 C1 1_555 1_555
O8 C11 1_555 1_555
N3 Co1 1_555 1_555
N4 Co1 1_555 1_555
C12A C12 1_555 1_555
C7A C12A 1_555 1_555
H6A C7A 1_555 1_555
C20A C7A 1_555 1_555
C1A C20A 1_555 1_555
C6A C1A 1_555 1_555
H5A C6A 1_555 1_555
C15A C12A 1_555 1_555
H10A C15A 1_555 1_555
O7A C1A 1_555 1_555
C2A O7A 1_555 1_555
H1A C2A 1_555 1_555
H2A C2A 1_555 1_555
C10A C2A 1_555 1_555
C3A C10A 1_555 1_555
H3A C3A 1_555 1_555
C5A C3A 1_555 1_555
H4A C5A 1_555 1_555
N3A C5A 1_555 1_555
C13A N3A 1_555 1_555
C9A C10A 1_555 1_555
H8A C9A 1_555 1_555
H9A C13A 1_555 1_555
H16A C20A 1_555 1_555
C4A C4 1_555 1_555
C19A C4A 1_555 1_555
C18A C19A 1_555 1_555
C11A C18A 1_555 1_555
C21A C11A 1_555 1_555
H17A C21A 1_555 1_555
C22A C4A 1_555 1_555
H18A C22A 1_555 1_555
O8A C11A 1_555 1_555
C17A O8A 1_555 1_555
C14A C17A 1_555 1_555
C16A C14A 1_555 1_555
C8A C16A 1_555 1_555
H7A C8A 1_555 1_555
N4A C8A 1_555 1_555
C23A N4A 1_555 1_555
H19A C23A 1_555 1_555
C24A C14A 1_555 1_555
H20A C24A 1_555 1_555
H11A C16A 1_555 1_555
H12A C17A 1_555 1_555
H13A C17A 1_555 1_555
H14A C18A 1_555 1_555
H15A C19A 1_555 1_555
Co1A N3A 1_555 1_555
N1A O1A 1_555 1_555
O2A Co1A 1_555 1_555
O3A Co1A 1_555 1_555
N2A O4A 1_555 1_555
O5A Co1A 1_555 1_555
O6A Co1A 1_555 1_555
Co1A_2 N4A 1_555 1_555
N4A_2 Co1A 1_555 1_555
N1 O3 1_555 1_555
N2 O5 1_555 1_555
N2 O6 1_555 1_555
C2 O7 1_555 1_555
C3 C10 1_555 1_555
C5 N3 1_555 1_555
C7 C20 1_555 1_555
C8 N4 1_555 1_555
C9 C10 1_555 1_555
C12 C15 1_555 1_555
C13 N3 1_555 1_555
C17 O8 1_555 1_555
C21 C22 1_555 1_555
C23 N4 1_555 1_555
C23 C24 1_555 1_555
C6A C15A 1_555 1_555
C13A C9A 1_555 1_555
C21A C22A 1_555 1_555
C23A C24A 1_555 1_555
N1A O2A 1_555 1_555
N1A O3A 1_555 1_555
N2A O5A 1_555 1_555
N2A O6A 1_555 1_555

#END
