
#######################################################################
#
#                 Cambridge Crystallographic Data Centre
#                                CCDC 
#
#######################################################################
#
# If this CIF has been generated from an entry in the Cambridge 
# Structural Database, then it will include bibliographic, chemical, 
# crystal, experimental, refinement or atomic coordinate data resulting 
# from the CCDC's data processing and validation procedures.
#
#######################################################################

data_MONDAW
_symmetry_cell_setting           triclinic
_symmetry_space_group_name_H-M   'P -1'
_symmetry_Int_Tables_number      2
_space_group_name_Hall           '-P 1'
loop_
_symmetry_equiv_pos_site_id
_symmetry_equiv_pos_as_xyz
1 x,y,z
2 -x,-y,-z
_cell_length_a                   5.9382(10)
_cell_length_b                   13.478(2)
_cell_length_c                   18.868(3)
_cell_angle_alpha                78.385(2)
_cell_angle_beta                 86.460(2)
_cell_angle_gamma                81.079(2)
_cell_volume                     1460.56
loop_
_atom_site_label
_atom_site_type_symbol
_atom_site_fract_x
_atom_site_fract_y
_atom_site_fract_z
Tb1 Tb 0.74496(7) 0.05855(3) 0.35111(2)
C1 C 0.6796(15) 0.1870(6) 0.4548(5)
C2 C 0.6450(15) 0.2672(7) 0.5007(5)
C3 C 0.8163(15) 0.3248(7) 0.5040(5)
H1 H 0.9552 0.3117 0.4795
C4 C 0.7810(16) 0.4022(7) 0.5438(5)
H2 H 0.8943 0.4422 0.5453
C5 C 0.5753(16) 0.4194(6) 0.5814(4)
C6 C 0.4043(16) 0.3612(7) 0.5789(5)
H3 H 0.2677 0.3724 0.6049
C7 C 0.4383(15) 0.2867(7) 0.5375(5)
H4 H 0.3219 0.2492 0.5342
C8 C 0.611(3) 0.6164(8) 0.6702(7)
H5 H 0.6878 0.6620 0.6867
C9 C 0.349(2) 0.5396(8) 0.6533(6)
H6 H 0.2082 0.5178 0.6534
C10 C 0.6823(15) 0.0262(7) 0.1818(5)
C11 C 0.7852(15) -0.0368(7) 0.1278(5)
C12 C 1.0139(16) -0.0747(7) 0.1252(5)
H7 H 1.1104 -0.0618 0.1582
C13 C 1.1013(17) -0.1320(8) 0.0739(5)
H8 H 1.2567 -0.1558 0.0719
C14 C 0.9611(16) -0.1537(7) 0.0264(5)
C15 C 0.7301(18) -0.1207(11) 0.0296(6)
H9 H 0.6329 -0.1381 -0.0012
C16 C 0.6448(17) -0.0603(10) 0.0801(6)
H10 H 0.4898 -0.0354 0.0816
C17 C 1.291(2) -0.2938(10) -0.0872(6)
H11 H 1.4190 -0.3370 -0.0994
C18 C 0.9719(18) -0.2050(8) -0.0930(5)
H12 H 0.8291 -0.1713 -0.1081
C19 C 1.3008(13) -0.0715(6) 0.3402(4)
C20 C 1.2757(14) -0.1576(6) 0.3037(4)
C21 C 1.4597(15) -0.1965(7) 0.2612(5)
H13 H 1.5960 -0.1696 0.2572
C22 C 1.4378(17) -0.2745(7) 0.2255(5)
H14 H 1.5586 -0.2993 0.1971
C23 C 1.2367(15) -0.3153(7) 0.2321(5)
C24 C 1.0566(15) -0.2793(7) 0.2746(5)
H15 H 0.9220 -0.3077 0.2794
C25 C 1.0780(14) -0.2009(7) 0.3099(5)
H16 H 0.9564 -0.1768 0.3384
C26 C 1.067(2) -0.5097(11) 0.1634(9)
H17 H 0.9623 -0.5524 0.1582
C27 C 1.358(2) -0.4424(11) 0.1507(8)
H18 H 1.5025 -0.4255 0.1368
N1 N 0.5419(15) 0.4986(6) 0.6223(4)
N2 N 0.7179(17) 0.5482(7) 0.6316(5)
N3 N 0.3886(19) 0.6150(7) 0.6835(5)
N4 N 1.0563(14) -0.2065(6) -0.0294(4)
N5 N 1.2666(16) -0.2635(8) -0.0247(5)
N6 N 1.1176(17) -0.2578(7) -0.1320(5)
N7 N 1.2121(15) -0.3960(6) 0.1952(5)
N8 N 1.0208(18) -0.4405(9) 0.2051(7)
N9 N 1.270(2) -0.5149(9) 0.1292(7)
O1 O 0.8808(10) 0.1576(4) 0.4328(3)
O2 O 0.7937(11) -0.0607(5) 0.4647(3)
H19 H 0.6595 -0.0742 0.4760
H20 H 0.8809 -0.0950 0.4979
O3 O 0.5121(10) 0.1506(5) 0.4365(3)
O4 O 0.4161(11) 0.1600(5) 0.2874(4)
H21 H 0.430(15) 0.137(8) 0.249(3)
H22 H 0.288(9) 0.149(8) 0.307(4)
O5 O 0.8925(11) 0.2082(5) 0.2833(3)
H23 H 0.8851 0.2160 0.2376
H24 H 0.8511 0.2664 0.2946
O6 O 0.8037(10) 0.0258(5) 0.2348(3)
O7 O 0.4863(12) 0.0740(6) 0.1725(4)
O8 O 1.1221(10) -0.0155(5) 0.3571(3)
O9 O 1.4984(10) -0.0587(4) 0.3536(3)
Tb1_2 Tb 1.74496(7) 0.05855(3) 0.35111(2)
O9_2 O 0.4984(10) -0.0587(4) 0.3536(3)
loop_
_geom_bond_atom_site_label_1
_geom_bond_atom_site_label_2
_geom_bond_site_symmetry_1
_geom_bond_site_symmetry_2
Tb1 O1 1_555 1_555
C1 C2 1_555 1_555
C2 C3 1_555 1_555
C3 H1 1_555 1_555
C4 C3 1_555 1_555
H2 C4 1_555 1_555
C5 C4 1_555 1_555
C6 C5 1_555 1_555
H3 C6 1_555 1_555
C7 C2 1_555 1_555
H4 C7 1_555 1_555
C8 H5 1_555 1_555
C9 H6 1_555 1_555
C10 C11 1_555 1_555
C11 C12 1_555 1_555
C12 H7 1_555 1_555
C13 C12 1_555 1_555
H8 C13 1_555 1_555
C14 C13 1_555 1_555
C15 C14 1_555 1_555
H9 C15 1_555 1_555
C16 C11 1_555 1_555
H10 C16 1_555 1_555
C17 H11 1_555 1_555
C18 H12 1_555 1_555
C19 C20 1_555 1_555
C20 C21 1_555 1_555
C21 H13 1_555 1_555
C22 C21 1_555 1_555
H14 C22 1_555 1_555
C23 C22 1_555 1_555
C24 C23 1_555 1_555
H15 C24 1_555 1_555
C25 C20 1_555 1_555
H16 C25 1_555 1_555
C26 H17 1_555 1_555
C27 H18 1_555 1_555
N1 C5 1_555 1_555
N2 C8 1_555 1_555
N3 C8 1_555 1_555
N4 C14 1_555 1_555
N5 C17 1_555 1_555
N6 C17 1_555 1_555
N7 C23 1_555 1_555
N8 C26 1_555 1_555
N9 C26 1_555 1_555
O1 C1 1_555 1_555
O2 Tb1 1_555 1_555
H19 O2 1_555 1_555
H20 O2 1_555 1_555
O3 Tb1 1_555 1_555
O4 Tb1 1_555 1_555
H21 O4 1_555 1_555
H22 O4 1_555 1_555
O5 Tb1 1_555 1_555
H23 O5 1_555 1_555
H24 O5 1_555 1_555
O6 Tb1 1_555 1_555
O7 C10 1_555 1_555
O8 Tb1 1_555 1_555
O9 C19 1_555 1_555
Tb1_2 O9 1_555 1_555
O9_2 Tb1 1_555 1_555
C1 O3 1_555 1_555
C6 C7 1_555 1_555
C9 N1 1_555 1_555
C9 N3 1_555 1_555
C10 O6 1_555 1_555
C15 C16 1_555 1_555
C18 N4 1_555 1_555
C18 N6 1_555 1_555
C19 O8 1_555 1_555
C24 C25 1_555 1_555
C27 N7 1_555 1_555
C27 N9 1_555 1_555
N1 N2 1_555 1_555
N4 N5 1_555 1_555
N7 N8 1_555 1_555

#END
