
#######################################################################
#
#                 Cambridge Crystallographic Data Centre
#                                CCDC 
#
#######################################################################
#
# If this CIF has been generated from an entry in the Cambridge 
# Structural Database, then it will include bibliographic, chemical, 
# crystal, experimental, refinement or atomic coordinate data resulting 
# from the CCDC's data processing and validation procedures.
#
#######################################################################

data_MONHOO
_symmetry_cell_setting           monoclinic
_symmetry_space_group_name_H-M   'P 21/c'
_symmetry_Int_Tables_number      14
_space_group_name_Hall           '-P 2ybc'
loop_
_symmetry_equiv_pos_site_id
_symmetry_equiv_pos_as_xyz
1 x,y,z
2 -x,1/2+y,1/2-z
3 -x,-y,-z
4 x,1/2-y,1/2+z
_cell_length_a                   12.654(2)
_cell_length_b                   10.1732(16)
_cell_length_c                   15.843(3)
_cell_angle_alpha                90
_cell_angle_beta                 112.389(2)
_cell_angle_gamma                90
_cell_volume                     1885.76
loop_
_atom_site_label
_atom_site_type_symbol
_atom_site_fract_x
_atom_site_fract_y
_atom_site_fract_z
Br1 Br 1.017480(19) 0.79702(2) 0.773377(18)
C1 C 0.67127(17) 0.74903(19) 0.61792(13)
C2 C 0.63113(17) 0.87766(19) 0.60405(14)
H1 H 0.5539 0.8939 0.5715
C3 C 0.70637(17) 0.98257(19) 0.63877(13)
C4 C 0.82166(17) 0.95895(19) 0.68873(14)
H2 H 0.8721 1.0283 0.7127
C5 C 0.85994(18) 0.8300(2) 0.70215(15)
C6 C 0.78727(18) 0.7255(2) 0.66680(15)
H3 H 0.8153 0.6399 0.6754
C7 C 0.58914(17) 0.63440(18) 0.58446(13)
C8 C 0.66233(17) 1.12265(19) 0.62356(13)
C9 C 0.25385(18) 0.5964(2) 0.21114(14)
H4 H 0.2139 0.5614 0.2445
C10 C 0.3820(2) 0.6898(3) 0.17622(17)
H5 H 0.4497 0.7315 0.1817
C11 C 0.2962(2) 0.6608(3) 0.09643(17)
H6 H 0.2934 0.6790 0.0381
C12 C 0.10519(17) 0.5488(2) 0.05878(13)
C13 C 0.03350(19) 0.4837(2) 0.09276(14)
H7 H 0.0560 0.4728 0.1555
C14 C 0.07116(19) 0.5653(2) -0.03481(14)
H8 H 0.1183 0.6091 -0.0585
C15 C 0.67984(17) 0.5596(2) 0.42681(15)
H9 H 0.6709 0.4761 0.4471
C16 C 0.6455(2) 0.7555(2) 0.37029(19)
H10 H 0.6066 0.8322 0.3444
C17 C 0.7573(2) 0.7339(3) 0.3914(2)
H11 H 0.8094 0.7918 0.3831
C18 C 0.89139(18) 0.5512(2) 0.46525(17)
C19 C 0.9790(2) 0.6221(2) 0.52902(19)
H12 H 0.9642 0.7040 0.5482
C20 C 0.9116(2) 0.4291(2) 0.43584(18)
H13 H 0.8523 0.3820 0.3930
N1 N 0.35502(15) 0.64888(17) 0.24808(11)
N2 N 0.21337(15) 0.59850(18) 0.11885(11)
N3 N 0.59710(15) 0.64628(17) 0.39291(12)
N4 N 0.77986(15) 0.60897(19) 0.42795(14)
Ni1 Ni 0.43381(2) 0.65832(2) 0.389898(16)
O1 O 0.63063(13) 0.52383(13) 0.61382(10)
O2 O 0.48741(12) 0.65799(14) 0.53277(9)
O3 O 0.56021(12) 1.13988(13) 0.61379(10)
O4 O 0.72731(13) 1.21463(13) 0.62150(10)
C9B C -0.25385(18) 0.4036(2) -0.21114(14)
H4B H -0.2139 0.4386 -0.2445
C10B C -0.3820(2) 0.3102(3) -0.17622(17)
H5B H -0.4497 0.2685 -0.1817
C11B C -0.2962(2) 0.3392(3) -0.09643(17)
H6B H -0.2934 0.3210 -0.0381
C12B C -0.10519(17) 0.4512(2) -0.05878(13)
C13B C -0.03350(19) 0.5163(2) -0.09276(14)
H7B H -0.0560 0.5272 -0.1555
C14B C -0.07116(19) 0.4347(2) 0.03481(14)
H8B H -0.1183 0.3909 0.0585
N1B N -0.35502(15) 0.35112(17) -0.24808(11)
N2B N -0.21337(15) 0.40150(18) -0.11885(11)
C15B C 1.32016(17) 0.4404(2) 0.57319(15)
H9B H 1.3291 0.5239 0.5529
C16B C 1.3545(2) 0.2445(2) 0.62971(19)
H10B H 1.3934 0.1678 0.6556
C17B C 1.2427(2) 0.2661(3) 0.6086(2)
H11B H 1.1906 0.2082 0.6169
C18B C 1.10861(18) 0.4488(2) 0.53475(17)
C19B C 1.0210(2) 0.3779(2) 0.47098(19)
H12B H 1.0358 0.2960 0.4518
C20B C 1.0884(2) 0.5709(2) 0.56416(18)
H13B H 1.1477 0.6180 0.6070
N3B N 1.40290(15) 0.35372(17) 0.60709(12)
N4B N 1.22014(15) 0.39103(19) 0.57205(14)
Br1B Br -1.017480(19) 0.20298(2) -0.773377(18)
C1B C -0.67127(17) 0.25097(19) -0.61792(13)
C2B C -0.63113(17) 0.12234(19) -0.60405(14)
H1B H -0.5539 0.1061 -0.5715
C3B C -0.70637(17) 0.01743(19) -0.63877(13)
C4B C -0.82166(17) 0.04105(19) -0.68873(14)
H2B H -0.8721 -0.0283 -0.7127
C5B C -0.85994(18) 0.1700(2) -0.70215(15)
C6B C -0.78727(18) 0.2745(2) -0.66680(15)
H3B H -0.8153 0.3601 -0.6754
C7B C -0.58914(17) 0.36560(18) -0.58446(13)
C8B C -0.66233(17) -0.12265(19) -0.62356(13)
Ni1B Ni -0.43381(2) 0.34168(2) -0.389898(16)
O1B O -0.63063(13) 0.47617(13) -0.61382(10)
O2B O -0.48741(12) 0.34201(14) -0.53277(9)
O3B O -0.56021(12) -0.13988(13) -0.61379(10)
O4B O -0.72731(13) -0.21463(13) -0.62150(10)
N3B_2 N -0.59710(15) 0.35372(17) -0.39291(12)
Ni1_2 Ni -0.56619(2) -0.34168(2) -0.610102(16)
Ni1_3 Ni -0.56619(2) 0.65832(2) -0.610102(16)
Ni1B_2 Ni 0.56619(2) 0.34168(2) 0.610102(16)
Ni1B_3 Ni 0.56619(2) 1.34168(2) 0.610102(16)
Ni1B_4 Ni 1.56619(2) 0.34168(2) 0.610102(16)
O1_2 O -0.36937(13) 0.52383(13) -0.38618(10)
O1B_2 O 0.36937(13) 0.47617(13) 0.38618(10)
O3_2 O -0.43979(12) 0.13988(13) -0.38621(10)
O3B_2 O 0.43979(12) 0.86012(13) 0.38621(10)
O4_2 O -0.27269(13) 0.21463(13) -0.37850(10)
O4B_2 O 0.27269(13) 0.78537(13) 0.37850(10)
loop_
_geom_bond_atom_site_label_1
_geom_bond_atom_site_label_2
_geom_bond_site_symmetry_1
_geom_bond_site_symmetry_2
Br1 C5 1_555 1_555
C1 C2 1_555 1_555
C2 H1 1_555 1_555
C3 C2 1_555 1_555
C4 C3 1_555 1_555
H2 C4 1_555 1_555
C5 C4 1_555 1_555
C6 C1 1_555 1_555
H3 C6 1_555 1_555
C7 C1 1_555 1_555
C8 C3 1_555 1_555
C9 H4 1_555 1_555
C10 H5 1_555 1_555
C11 C10 1_555 1_555
H6 C11 1_555 1_555
C12 C13 1_555 1_555
C13 H7 1_555 1_555
C14 C12 1_555 1_555
H8 C14 1_555 1_555
C15 H9 1_555 1_555
C16 H10 1_555 1_555
C17 C16 1_555 1_555
H11 C17 1_555 1_555
C18 C19 1_555 1_555
C19 H12 1_555 1_555
C20 C18 1_555 1_555
H13 C20 1_555 1_555
N1 C9 1_555 1_555
N2 C9 1_555 1_555
N3 C15 1_555 1_555
N4 C15 1_555 1_555
Ni1 N1 1_555 1_555
O1 C7 1_555 1_555
O2 C7 1_555 1_555
O3 C8 1_555 1_555
O4 C8 1_555 1_555
C9B H4B 1_555 1_555
C10B H5B 1_555 1_555
C11B C10B 1_555 1_555
H6B C11B 1_555 1_555
C12B C13B 1_555 1_555
C13B C14 1_555 1_555
H7B C13B 1_555 1_555
C14B C13 1_555 1_555
H8B C14B 1_555 1_555
N1B C9B 1_555 1_555
N2B C9B 1_555 1_555
C15B H9B 1_555 1_555
C16B H10B 1_555 1_555
C17B C16B 1_555 1_555
H11B C17B 1_555 1_555
C18B C19B 1_555 1_555
C19B C20 1_555 1_555
H12B C19B 1_555 1_555
C20B C19 1_555 1_555
H13B C20B 1_555 1_555
N3B C15B 1_555 1_555
N4B C15B 1_555 1_555
Br1B C5B 1_555 1_555
C1B C2B 1_555 1_555
C2B H1B 1_555 1_555
C3B C2B 1_555 1_555
C4B C3B 1_555 1_555
H2B C4B 1_555 1_555
C5B C4B 1_555 1_555
C6B C1B 1_555 1_555
H3B C6B 1_555 1_555
C7B C1B 1_555 1_555
C8B C3B 1_555 1_555
Ni1B N1B 1_555 1_555
O1B C7B 1_555 1_555
O2B C7B 1_555 1_555
O3B C8B 1_555 1_555
O4B C8B 1_555 1_555
N3B_2 Ni1B 1_555 1_555
Ni1_2 O3B 1_555 1_555
Ni1_3 O1B 1_555 1_555
Ni1B_2 O1 1_555 1_555
Ni1B_3 O3 1_555 1_555
Ni1B_4 N3B 1_555 1_555
O1_2 Ni1B 1_555 1_555
O1B_2 Ni1 1_555 1_555
O3_2 Ni1B 1_555 1_555
O3B_2 Ni1 1_555 1_555
O4_2 Ni1B 1_555 1_555
O4B_2 Ni1 1_555 1_555
C5 C6 1_555 1_555
C10 N1 1_555 1_555
C11 N2 1_555 1_555
C12 N2 1_555 1_555
C16 N3 1_555 1_555
C17 N4 1_555 1_555
C18 N4 1_555 1_555
N3 Ni1 1_555 1_555
Ni1 O2 1_555 1_555
O4 Ni1B_3 1_555 1_555
C10B N1B 1_555 1_555
C11B N2B 1_555 1_555
C12B C14B 1_555 1_555
C12B N2B 1_555 1_555
C16B N3B 1_555 1_555
C17B N4B 1_555 1_555
C18B C20B 1_555 1_555
C18B N4B 1_555 1_555
C5B C6B 1_555 1_555
Ni1B O2B 1_555 1_555
O4B Ni1_2 1_555 1_555

#END
