
#######################################################################
#
#                 Cambridge Crystallographic Data Centre
#                                CCDC 
#
#######################################################################
#
# If this CIF has been generated from an entry in the Cambridge 
# Structural Database, then it will include bibliographic, chemical, 
# crystal, experimental, refinement or atomic coordinate data resulting 
# from the CCDC's data processing and validation procedures.
#
#######################################################################

data_MONLUX
_symmetry_cell_setting           monoclinic
_symmetry_space_group_name_H-M   'P 21/c'
_symmetry_Int_Tables_number      14
_space_group_name_Hall           '-P 2ybc'
loop_
_symmetry_equiv_pos_site_id
_symmetry_equiv_pos_as_xyz
1 x,y,z
2 -x,1/2+y,1/2-z
3 -x,-y,-z
4 x,1/2-y,1/2+z
_cell_length_a                   9.3989(18)
_cell_length_b                   14.968(3)
_cell_length_c                   27.518(5)
_cell_angle_alpha                90
_cell_angle_beta                 90.105(3)
_cell_angle_gamma                90
_cell_volume                     3871.3
loop_
_atom_site_label
_atom_site_type_symbol
_atom_site_fract_x
_atom_site_fract_y
_atom_site_fract_z
Zn1 Zn 0.02101(7) 0.19975(4) 0.32876(2)
Zn2 Zn 0.52330(6) 0.25928(3) 0.41884(2)
O1 O 0.2248(4) 0.2187(3) 0.36057(13)
O2 O 0.4532(4) 0.2547(2) 0.34938(13)
O3 O -0.1855(4) 0.1845(3) 0.29930(14)
H1 H -0.239(7) 0.208(4) 0.326(2)
H2 H -0.209(9) 0.187(5) 0.269(3)
O4 O -0.0470(4) 0.2072(3) 0.39808(13)
O5 O -0.2733(4) 0.2449(2) 0.38621(13)
O6 O 0.3205(4) 0.2699(3) 0.44885(14)
H3 H 0.2620 0.2419 0.4314
H4 H 0.3177 0.2478 0.4786
C1 C 0.0407(5) 0.4155(3) 0.3316(2)
C2 C 0.1271(6) 0.4753(4) 0.3063(2)
H5 H 0.1497 0.5348 0.3156
C3 C 0.1727(6) 0.4318(4) 0.2658(2)
C4 C -0.0329(7) 0.4293(4) 0.3791(2)
H6 H -0.0126 0.4896 0.3911
H7 H 0.0014 0.3852 0.4026
H8 H -0.1357 0.4222 0.3746
C5 C 0.2711(6) 0.4630(4) 0.2269(2)
H9 H 0.3021 0.5242 0.2341
H10 H 0.2217 0.4619 0.1955
H11 H 0.3542 0.4236 0.2256
C6 C 0.1253(6) 0.2757(4) 0.23367(18)
H12 H 0.1936 0.2901 0.2075
H13 H 0.0319 0.2620 0.2188
C7 C 0.1530(6) 0.1129(3) 0.23879(17)
H14 H 0.0626 0.1134 0.2203
H15 H 0.2317 0.0996 0.2160
C8 C 0.1958(6) -0.0392(4) 0.27727(19)
C9 C 0.1411(6) -0.0782(4) 0.31902(19)
H16 H 0.1574 -0.1372 0.3304
C10 C 0.0570(5) -0.0124(4) 0.34089(19)
C11 C 0.2936(6) -0.0755(4) 0.2398(2)
H17 H 0.3117 -0.0297 0.2151
H18 H 0.2499 -0.1279 0.2244
H19 H 0.3836 -0.0930 0.2551
C12 C -0.0294(7) -0.0197(5) 0.3862(2)
H20 H -0.0750 0.0378 0.3930
H21 H 0.0326 -0.0360 0.4135
H22 H -0.1026 -0.0657 0.3819
C13 C 0.3222(5) 0.2126(3) 0.28057(18)
H23 H 0.3657 0.2635 0.2631
H24 H 0.3787 0.1586 0.2729
C14 C 0.3321(5) 0.2303(4) 0.33484(18)
C15 C -0.4411(5) 0.4749(4) 0.41146(19)
C16 C -0.3562(6) 0.5363(4) 0.4361(2)
H25 H -0.3378 0.5963 0.4268
C17 C -0.3042(5) 0.4932(3) 0.47663(19)
C18 C -0.5256(7) 0.4867(4) 0.3659(2)
H26 H -0.5721 0.4302 0.3575
H27 H -0.4622 0.5048 0.3395
H28 H -0.5980 0.5329 0.3710
C19 C -0.2056(6) 0.5243(4) 0.5161(2)
H29 H -0.1916 0.4761 0.5397
H30 H -0.2472 0.5763 0.5325
H31 H -0.1138 0.5410 0.5020
C20 C -0.3517(6) 0.3382(3) 0.51099(17)
H32 H -0.4435 0.3345 0.5284
H33 H -0.2754 0.3502 0.5350
C21 C -0.3680(6) 0.1755(3) 0.51197(18)
H34 H -0.4609 0.1860 0.5279
H35 H -0.2971 0.1602 0.5373
C22 C -0.3261(6) 0.0191(4) 0.47740(19)
C23 C -0.3763(5) -0.0226(3) 0.4361(2)
H36 H -0.3585 -0.0824 0.4262
C24 C -0.4584(5) 0.0409(3) 0.41179(18)
C25 C -0.2262(6) -0.0116(4) 0.5157(2)
H37 H -0.1991 -0.0738 0.5095
H38 H -0.2725 -0.0074 0.5475
H39 H -0.1409 0.0261 0.5155
C26 C -0.5329(7) 0.0306(3) 0.3642(2)
H40 H -0.5842 0.0858 0.3564
H41 H -0.6005 -0.0191 0.3661
H42 H -0.4629 0.0183 0.3387
C27 C -0.1766(5) 0.2478(3) 0.46779(17)
H43 H -0.1281 0.1986 0.4853
H44 H -0.1256 0.3039 0.4755
C28 C -0.1665(5) 0.2305(3) 0.41278(17)
N1 N 0.0311(5) 0.3372(3) 0.30789(15)
N2 N 0.1129(5) 0.3497(3) 0.26699(15)
N3 N 0.1761(5) 0.1997(3) 0.26221(15)
N4 N 0.1475(5) 0.0462(3) 0.27674(15)
N5 N 0.0615(5) 0.0634(3) 0.31572(15)
N6 N -0.4415(4) 0.3961(3) 0.43505(15)
N7 N -0.3566(5) 0.4088(3) 0.47492(15)
N8 N -0.3236(5) 0.2547(3) 0.48545(15)
N9 N -0.3795(5) 0.1035(3) 0.47661(15)
N10 N -0.4629(5) 0.1167(3) 0.43655(16)
Zn2_2 Zn -0.47670(6) 0.25928(3) 0.41884(2)
O5_2 O 0.7267(4) 0.2449(2) 0.38621(13)
N6_2 N 0.5585(4) 0.3961(3) 0.43505(15)
N8_2 N 0.6764(5) 0.2547(3) 0.48545(15)
N10_2 N 0.5371(5) 0.1167(3) 0.43655(16)
O7 O -0.5415(11) 0.2457(10) 0.6832(2)
O8 O -0.6906(8) 0.2078(5) 0.63030(19)
O9 O -0.4872(8) 0.2593(5) 0.6102(2)
N11 N -0.5727(8) 0.2396(5) 0.6414(2)
O10 O -0.1141(11) 0.2276(6) 0.5908(3)
O11 O -0.066(2) 0.3332(7) 0.6360(3)
O12 O -0.0122(6) 0.3400(4) 0.56272(17)
N12 N -0.0609(6) 0.3089(4) 0.60074(19)
O13 O -0.7875(6) 0.2307(4) 0.53610(18)
H46 H -0.726(7) 0.241(5) 0.560(2)
H47 H -0.881(3) 0.219(5) 0.535(3)
O14 O -0.2737(6) 0.2008(4) 0.20732(17)
H45 H -0.224(9) 0.195(5) 0.178(3)
H48 H -0.350(6) 0.219(5) 0.190(3)
loop_
_geom_bond_atom_site_label_1
_geom_bond_atom_site_label_2
_geom_bond_site_symmetry_1
_geom_bond_site_symmetry_2
Zn1 O1 1_555 1_555
Zn2 O2 1_555 1_555
O1 C14 1_555 1_555
O2 C14 1_555 1_555
O3 Zn1 1_555 1_555
H1 O3 1_555 1_555
H2 O3 1_555 1_555
O4 Zn1 1_555 1_555
O5 C28 1_555 1_555
O6 Zn2 1_555 1_555
H3 O6 1_555 1_555
H4 O6 1_555 1_555
O7 N11 1_555 1_555
O8 N11 1_555 1_555
O9 N11 1_555 1_555
O10 N12 1_555 1_555
O11 N12 1_555 1_555
O12 N12 1_555 1_555
O13 H46 1_555 1_555
O14 H45 1_555 1_555
C1 C2 1_555 1_555
C2 H5 1_555 1_555
C3 C2 1_555 1_555
C4 C1 1_555 1_555
H6 C4 1_555 1_555
H7 C4 1_555 1_555
H8 C4 1_555 1_555
C5 C3 1_555 1_555
H9 C5 1_555 1_555
H10 C5 1_555 1_555
H11 C5 1_555 1_555
C6 H12 1_555 1_555
H13 C6 1_555 1_555
C7 H14 1_555 1_555
H15 C7 1_555 1_555
C8 C9 1_555 1_555
C9 H16 1_555 1_555
C10 C9 1_555 1_555
C11 C8 1_555 1_555
H17 C11 1_555 1_555
H18 C11 1_555 1_555
H19 C11 1_555 1_555
C12 C10 1_555 1_555
H20 C12 1_555 1_555
H21 C12 1_555 1_555
H22 C12 1_555 1_555
C13 H23 1_555 1_555
H24 C13 1_555 1_555
C14 C13 1_555 1_555
C15 C16 1_555 1_555
C16 H25 1_555 1_555
C17 C16 1_555 1_555
C18 C15 1_555 1_555
H26 C18 1_555 1_555
H27 C18 1_555 1_555
H28 C18 1_555 1_555
C19 C17 1_555 1_555
H29 C19 1_555 1_555
H30 C19 1_555 1_555
H31 C19 1_555 1_555
C20 H32 1_555 1_555
H33 C20 1_555 1_555
C21 H34 1_555 1_555
H35 C21 1_555 1_555
C22 C23 1_555 1_555
C23 H36 1_555 1_555
C24 C23 1_555 1_555
C25 C22 1_555 1_555
H37 C25 1_555 1_555
H38 C25 1_555 1_555
H39 C25 1_555 1_555
C26 C24 1_555 1_555
H40 C26 1_555 1_555
H41 C26 1_555 1_555
H42 C26 1_555 1_555
C27 H43 1_555 1_555
H44 C27 1_555 1_555
C28 O4 1_555 1_555
N1 Zn1 1_555 1_555
N2 C3 1_555 1_555
N3 Zn1 1_555 1_555
N4 C7 1_555 1_555
N5 Zn1 1_555 1_555
N6 C15 1_555 1_555
N7 C17 1_555 1_555
N8 C20 1_555 1_555
N9 C21 1_555 1_555
N10 C24 1_555 1_555
H47 O13 1_555 1_555
H48 O14 1_555 1_555
Zn2_2 O5 1_555 1_555
O5_2 Zn2 1_555 1_555
N6_2 Zn2 1_555 1_555
N8_2 Zn2 1_555 1_555
N10_2 Zn2 1_555 1_555
C1 N1 1_555 1_555
C6 N2 1_555 1_555
C6 N3 1_555 1_555
C7 N3 1_555 1_555
C8 N4 1_555 1_555
C10 N5 1_555 1_555
C13 N3 1_555 1_555
C20 N7 1_555 1_555
C21 N8 1_555 1_555
C22 N9 1_555 1_555
C27 C28 1_555 1_555
C27 N8 1_555 1_555
N1 N2 1_555 1_555
N4 N5 1_555 1_555
N6 N7 1_555 1_555
N6 Zn2_2 1_555 1_555
N8 Zn2_2 1_555 1_555
N9 N10 1_555 1_555
N10 Zn2_2 1_555 1_555

#END
