
#######################################################################
#
#                 Cambridge Crystallographic Data Centre
#                                CCDC 
#
#######################################################################
#
# If this CIF has been generated from an entry in the Cambridge 
# Structural Database, then it will include bibliographic, chemical, 
# crystal, experimental, refinement or atomic coordinate data resulting 
# from the CCDC's data processing and validation procedures.
#
#######################################################################

data_MONWOD
_symmetry_cell_setting           monoclinic
_symmetry_space_group_name_H-M   'P 21'
_symmetry_Int_Tables_number      4
_space_group_name_Hall           'P 2yb'
loop_
_symmetry_equiv_pos_site_id
_symmetry_equiv_pos_as_xyz
1 x,y,z
2 -x,1/2+y,-z
_cell_length_a                   10.886(5)
_cell_length_b                   43.861(20)
_cell_length_c                   10.945(5)
_cell_angle_alpha                90
_cell_angle_beta                 118.964(4)
_cell_angle_gamma                90
_cell_volume                     4572.28
loop_
_atom_site_label
_atom_site_type_symbol
_atom_site_fract_x
_atom_site_fract_y
_atom_site_fract_z
Mn1 Mn 1.32342(7) 0.34416(2) 1.35005(7)
Mn2 Mn 1.02503(7) 0.34372(2) 1.35406(7)
Mn3 Mn 1.02820(7) 0.34337(2) 1.05448(7)
Na1 Na 0.8227(2) 0.26076(5) 0.7428(2)
O1 O 1.4079(4) 0.37176(8) 1.2822(4)
O2 O 1.2167(3) 0.32319(8) 1.4208(3)
O3 O 1.1683(4) 0.27014(9) 1.6390(5)
O4 O 1.0258(4) 0.30512(8) 1.4832(4)
O5 O 1.0947(4) 0.37128(8) 1.5043(4)
O6 O 0.9547(3) 0.32243(7) 1.1797(3)
O7 O 0.7209(4) 0.27522(8) 0.8967(4)
O8 O 0.9011(4) 0.30530(8) 0.9312(4)
O9 O 0.8778(4) 0.37121(8) 0.9755(4)
O10 O 1.2041(3) 0.32245(7) 1.1571(3)
O11 O 1.4940(4) 0.27511(8) 1.2105(4)
O12 O 1.4508(4) 0.30535(8) 1.3516(4)
O13 O 1.1271(3) 0.36904(7) 1.2525(3)
N1 N 1.4712(4) 0.35506(9) 1.5518(4)
N2 N 0.8249(4) 0.35676(9) 1.2989(4)
N3 N 1.0839(4) 0.35525(9) 0.9077(5)
C1 C 1.4535(5) 0.39958(12) 1.3388(6)
C2 C 1.4375(6) 0.42355(13) 1.2481(7)
H1 H 1.3940 0.4203 1.1501
C3 C 1.4883(7) 0.45335(14) 1.3064(8)
H2 H 1.4737 0.4700 1.2455
C4 C 1.5586(8) 0.45826(14) 1.4508(8)
H3 H 1.5956 0.4778 1.4886
C5 C 1.5726(7) 0.43406(14) 1.5364(7)
H4 H 1.6206 0.4372 1.6346
C6 C 1.5191(6) 0.40489(12) 1.4854(6)
C7 C 1.5363(6) 0.38051(12) 1.5838(6)
H5 H 1.6015 0.3839 1.6795
C8 C 1.5065(5) 0.33231(12) 1.6651(5)
H6 H 1.5729 0.3417 1.7557
H7 H 1.5542 0.3147 1.6496
C9 C 1.3773(6) 0.32087(13) 1.6729(5)
H8 H 1.3302 0.3385 1.6892
H9 H 1.4086 0.3070 1.7538
C10 C 1.2705(5) 0.30402(12) 1.5403(5)
H10 H 1.3188 0.2863 1.5243
C11 C 1.1452(6) 0.29191(12) 1.5550(6)
C12 C 1.0459(6) 0.39992(12) 1.4941(5)
C13 C 1.1384(6) 0.42370(14) 1.5690(6)
H11 H 1.2360 0.4196 1.6231
C14 C 1.0897(8) 0.45277(16) 1.5651(7)
H12 H 1.1541 0.4684 1.6172
C15 C 0.9445(8) 0.45980(14) 1.4843(7)
H13 H 0.9114 0.4800 1.4812
C16 C 0.8537(7) 0.43688(14) 1.4112(7)
H14 H 0.7562 0.4413 1.3596
C17 C 0.8996(6) 0.40693(12) 1.4096(6)
C18 C 0.7966(6) 0.38356(12) 1.3292(6)
H15 H 0.7005 0.3884 1.2960
C19 C 0.7081(5) 0.33529(12) 1.2230(5)
H16 H 0.6188 0.3453 1.2032
H17 H 0.7211 0.3173 1.2826
C20 C 0.6989(5) 0.32460(12) 1.0826(6)
H18 H 0.6129 0.3122 1.0299
H19 H 0.6918 0.3427 1.0254
C21 C 0.8284(5) 0.30556(11) 1.1079(5)
H20 H 0.8342 0.2873 1.1653
C22 C 0.8144(6) 0.29451(11) 0.9673(6)
C23 C 0.8889(5) 0.39913(12) 0.9311(6)
C24 C 0.8135(6) 0.42333(14) 0.9479(6)
H21 H 0.7583 0.4198 0.9923
C25 C 0.8195(7) 0.45257(15) 0.8992(7)
H22 H 0.7700 0.4688 0.9134
C26 C 0.8969(7) 0.45847(14) 0.8300(8)
H23 H 0.8980 0.4783 0.7956
C27 C 0.9724(6) 0.43463(13) 0.8126(7)
H24 H 1.0257 0.4383 0.7664
C28 C 0.9700(6) 0.40513(12) 0.8630(6)
C29 C 1.0525(6) 0.38091(12) 0.8432(6)
H25 H 1.0848 0.3845 0.7780
C30 C 1.1629(6) 0.33244(12) 0.8710(5)
H26 H 1.1820 0.3412 0.7985
H27 H 1.1039 0.3141 0.8312
C31 C 1.3016(5) 0.32310(12) 0.9967(5)
H28 H 1.3576 0.3416 1.0415
H29 H 1.3556 0.3104 0.9645
C32 C 1.2784(5) 0.30504(11) 1.1049(5)
H30 H 1.2213 0.2865 1.0578
C33 C 1.4193(5) 0.29435(11) 1.2318(6)
C34 C 1.1279(6) 0.40200(11) 1.2513(6)
H31 H 1.1559 0.4092 1.1835
H32 H 1.1946 0.4096 1.3445
H33 H 1.0337 0.4096 1.2250
Mn4 Mn 0.25831(8) 0.10924(2) 0.59551(8)
Mn5 Mn 0.00443(7) 0.10881(2) 0.26635(8)
Mn6 Mn 0.33580(7) 0.10687(2) 0.34276(7)
O14 O 0.1616(4) 0.08336(8) 0.6579(4)
O15 O 0.3618(3) 0.12922(7) 0.5193(3)
O16 O 0.6113(4) 0.18037(9) 0.5118(4)
O17 O 0.4677(4) 0.14530(8) 0.3615(4)
O18 O -0.0498(4) 0.08243(8) 0.1107(4)
O19 O 0.0738(4) 0.13007(7) 0.4396(4)
O20 O 0.0605(5) 0.17692(10) 0.6991(5)
O21 O 0.2272(4) 0.14692(9) 0.6984(4)
O22 O 0.4936(4) 0.08160(8) 0.4465(4)
O23 O 0.1614(3) 0.12721(7) 0.2380(4)
O24 O -0.0713(5) 0.17805(10) -0.0232(5)
O25 O -0.0956(4) 0.14711(8) 0.1267(4)
O26 O 0.1995(4) 0.08175(7) 0.4058(4)
N4 N 0.4466(5) 0.09560(10) 0.7610(5)
N5 N -0.1616(4) 0.09397(10) 0.2867(5)
N6 N 0.3218(4) 0.09102(10) 0.1606(5)
C35 C 0.2021(6) 0.05652(12) 0.7208(6)
C36 C 0.1050(7) 0.03651(13) 0.7234(7)
H34 H 0.0093 0.0425 0.6810
C37 C 0.1428(8) 0.00778(14) 0.7860(7)
H35 H 0.0726 -0.0053 0.7844
C38 C 0.2850(8) -0.00204(13) 0.8521(7)
H36 H 0.3107 -0.0218 0.8924
C39 C 0.3838(7) 0.01783(13) 0.8557(6)
H37 H 0.4794 0.0117 0.9016
C40 C 0.3489(6) 0.04777(12) 0.7929(6)
C41 C 0.4614(6) 0.06884(12) 0.8186(6)
H38 H 0.5542 0.0626 0.8831
C42 C 0.5686(6) 0.11726(13) 0.8187(6)
H39 H 0.6514 0.1069 0.8942
H40 H 0.5460 0.1349 0.8605
C43 C 0.6066(6) 0.12884(12) 0.7090(6)
H41 H 0.6299 0.1112 0.6677
H42 H 0.6913 0.1418 0.7556
C44 C 0.4865(5) 0.14743(11) 0.5899(5)
H43 H 0.4650 0.1655 0.6323
C45 C 0.5252(5) 0.15893(11) 0.4804(6)
C46 C -0.1104(6) 0.05492(12) 0.0916(6)
C47 C -0.1030(7) 0.03491(13) -0.0048(7)
H44 H -0.0574 0.0412 -0.0558
C48 C -0.1623(7) 0.00598(15) -0.0259(8)
H45 H -0.1565 -0.0073 -0.0915
C49 C -0.2315(7) -0.00417(14) 0.0490(8)
H46 H -0.2685 -0.0242 0.0369
C50 C -0.2429(6) 0.01574(13) 0.1384(7)
H47 H -0.2920 0.0094 0.1860
C51 C -0.1844(6) 0.04576(13) 0.1641(6)
C52 C -0.2152(6) 0.06711(12) 0.2473(6)
H48 H -0.2811 0.0607 0.2754
C53 C -0.2252(6) 0.11522(14) 0.3491(7)
H49 H -0.3007 0.1042 0.3566
H50 H -0.2690 0.1326 0.2844
C54 C -0.1207(6) 0.12786(13) 0.4938(6)
H51 H -0.1724 0.1406 0.5285
H52 H -0.0783 0.1106 0.5594
C55 C -0.0039(6) 0.14683(11) 0.4936(6)
H53 H -0.0468 0.1651 0.4331
C56 C 0.1035(6) 0.15790(12) 0.6424(6)
C57 C 0.5159(6) 0.05385(12) 0.4090(6)
C58 C 0.6146(6) 0.03477(14) 0.5164(7)
H54 H 0.6637 0.0420 0.6099
C59 C 0.6397(7) 0.00516(15) 0.4842(8)
H55 H 0.7048 -0.0077 0.5562
C60 C 0.5682(7) -0.00543(13) 0.3452(8)
H56 H 0.5837 -0.0256 0.3242
C61 C 0.4766(6) 0.01330(13) 0.2402(7)
H57 H 0.4305 0.0060 0.1468
C62 C 0.4491(6) 0.04373(12) 0.2690(6)
C63 C 0.3650(6) 0.06355(12) 0.1528(6)
H58 H 0.3385 0.0560 0.0620
C64 C 0.2628(6) 0.11116(13) 0.0356(5)
H59 H 0.2551 0.0993 -0.0448
H60 H 0.3296 0.1281 0.0529
C65 C 0.1177(6) 0.12490(12) -0.0044(6)
H61 H 0.0861 0.1376 -0.0892
H62 H 0.0490 0.1082 -0.0268
C66 C 0.1200(5) 0.14453(11) 0.1130(5)
H63 H 0.1876 0.1617 0.1338
C67 C -0.0282(6) 0.15784(12) 0.0682(6)
C68 C 0.1983(6) 0.04905(11) 0.4084(6)
H64 H 0.1349 0.0421 0.4426
H65 H 0.2934 0.0415 0.4705
H66 H 0.1658 0.0412 0.3138
Na2 Na 0.5919(2) 0.23151(4) 0.8707(2)
Na3 Na 0.5613(3) 0.22311(5) 0.3471(3)
O27 O 0.4455(5) 0.24911(10) 0.9561(5)
O28 O 0.6885(5) 0.19324(11) 1.0486(5)
O29 O 0.3814(4) 0.23059(9) 0.6474(4)
O30 O 0.7206(4) 0.21090(8) 0.7653(4)
O31 O 1.0349(5) 0.23630(12) 0.9643(5)
O32 O 0.8350(6) 0.29990(11) 0.5869(6)
C69 C 0.7987(9) 0.3306(2) 0.5885(9)
H67 H 0.7000 0.3319 0.5656
H68 H 0.8127 0.3421 0.5194
H69 H 0.8581 0.3391 0.6816
O33 O 0.9528(6) 0.23592(12) 0.6376(7)
O34 O 0.5778(4) 0.25614(8) 0.5400(4)
O35 O 0.7669(6) 0.24349(13) 0.3703(7)
O36 O 0.5165(5) 0.18226(10) 0.1725(5)
O37 O 0.3197(5) 0.21847(10) 0.2699(6)
O11_2 O 0.4940(4) 0.27511(8) 0.2105(4)
Na3_2 Na 1.5613(3) 0.22311(5) 1.3471(3)
Cl1 Cl 0.46122(15) 0.41643(4) 0.92031(16)
O38 O 0.4734(12) 0.44777(18) 0.9241(12)
O39 O 0.3280(6) 0.4115(2) 0.9078(6)
O40 O 0.5716(7) 0.4070(2) 1.0473(7)
O41 O 0.4728(7) 0.4079(3) 0.8045(7)
O42 O 0.9384(4) 0.22325(9) 1.2734(5)
O43 O 1.1193(5) 0.26291(9) 1.2336(5)
O44 O 0.2574(5) 0.20271(12) 0.9496(6)
O45 O 0.1985(4) 0.19040(8) 0.4157(4)
loop_
_geom_bond_atom_site_label_1
_geom_bond_atom_site_label_2
_geom_bond_site_symmetry_1
_geom_bond_site_symmetry_2
Mn1 O1 1_555 1_555
Mn2 O2 1_555 1_555
Mn3 O6 1_555 1_555
Na1 O7 1_555 1_555
O1 C1 1_555 1_555
O2 Mn1 1_555 1_555
O3 C11 1_555 1_555
O4 Mn2 1_555 1_555
O5 Mn2 1_555 1_555
O6 Mn2 1_555 1_555
O7 C22 1_555 1_555
O8 Mn3 1_555 1_555
O9 Mn3 1_555 1_555
O10 Mn1 1_555 1_555
O11 C33 1_555 1_555
O12 Mn1 1_555 1_555
O13 Mn1 1_555 1_555
N1 Mn1 1_555 1_555
N2 Mn2 1_555 1_555
N3 Mn3 1_555 1_555
C1 C2 1_555 1_555
C2 H1 1_555 1_555
C3 C2 1_555 1_555
H2 C3 1_555 1_555
C4 C3 1_555 1_555
H3 C4 1_555 1_555
C5 C4 1_555 1_555
H4 C5 1_555 1_555
C6 C1 1_555 1_555
C7 N1 1_555 1_555
H5 C7 1_555 1_555
C8 N1 1_555 1_555
H6 C8 1_555 1_555
H7 C8 1_555 1_555
C9 C8 1_555 1_555
H8 C9 1_555 1_555
H9 C9 1_555 1_555
C10 O2 1_555 1_555
H10 C10 1_555 1_555
C11 O4 1_555 1_555
C12 O5 1_555 1_555
C13 C12 1_555 1_555
H11 C13 1_555 1_555
C14 C13 1_555 1_555
H12 C14 1_555 1_555
C15 C14 1_555 1_555
H13 C15 1_555 1_555
C16 C15 1_555 1_555
H14 C16 1_555 1_555
C17 C12 1_555 1_555
C18 N2 1_555 1_555
H15 C18 1_555 1_555
C19 N2 1_555 1_555
H16 C19 1_555 1_555
H17 C19 1_555 1_555
C20 C19 1_555 1_555
H18 C20 1_555 1_555
H19 C20 1_555 1_555
C21 O6 1_555 1_555
H20 C21 1_555 1_555
C22 O8 1_555 1_555
C23 O9 1_555 1_555
C24 C23 1_555 1_555
H21 C24 1_555 1_555
C25 C24 1_555 1_555
H22 C25 1_555 1_555
C26 C25 1_555 1_555
H23 C26 1_555 1_555
C27 C26 1_555 1_555
H24 C27 1_555 1_555
C28 C23 1_555 1_555
C29 N3 1_555 1_555
H25 C29 1_555 1_555
C30 N3 1_555 1_555
H26 C30 1_555 1_555
H27 C30 1_555 1_555
C31 C30 1_555 1_555
H28 C31 1_555 1_555
H29 C31 1_555 1_555
C32 O10 1_555 1_555
H30 C32 1_555 1_555
C33 O12 1_555 1_555
C34 O13 1_555 1_555
H31 C34 1_555 1_555
H32 C34 1_555 1_555
H33 C34 1_555 1_555
Mn4 O14 1_555 1_555
Mn5 O18 1_555 1_555
Mn6 O15 1_555 1_555
O14 C35 1_555 1_555
O15 Mn4 1_555 1_555
O16 C45 1_555 1_555
O17 Mn6 1_555 1_555
O18 C46 1_555 1_555
O19 Mn4 1_555 1_555
O20 C56 1_555 1_555
O21 Mn4 1_555 1_555
O22 Mn6 1_555 1_555
O23 Mn5 1_555 1_555
O24 C67 1_555 1_555
O25 Mn5 1_555 1_555
O26 Mn4 1_555 1_555
N4 Mn4 1_555 1_555
N5 Mn5 1_555 1_555
N6 Mn6 1_555 1_555
C35 C36 1_555 1_555
C36 H34 1_555 1_555
C37 C36 1_555 1_555
H35 C37 1_555 1_555
C38 C37 1_555 1_555
H36 C38 1_555 1_555
C39 C38 1_555 1_555
H37 C39 1_555 1_555
C40 C35 1_555 1_555
C41 N4 1_555 1_555
H38 C41 1_555 1_555
C42 N4 1_555 1_555
H39 C42 1_555 1_555
H40 C42 1_555 1_555
C43 C42 1_555 1_555
H41 C43 1_555 1_555
H42 C43 1_555 1_555
C44 O15 1_555 1_555
H43 C44 1_555 1_555
C45 O17 1_555 1_555
C46 C47 1_555 1_555
C47 H44 1_555 1_555
C48 C47 1_555 1_555
H45 C48 1_555 1_555
C49 C48 1_555 1_555
H46 C49 1_555 1_555
C50 C49 1_555 1_555
H47 C50 1_555 1_555
C51 C46 1_555 1_555
C52 N5 1_555 1_555
H48 C52 1_555 1_555
C53 N5 1_555 1_555
H49 C53 1_555 1_555
H50 C53 1_555 1_555
C54 C53 1_555 1_555
H51 C54 1_555 1_555
H52 C54 1_555 1_555
C55 O19 1_555 1_555
H53 C55 1_555 1_555
C56 O21 1_555 1_555
C57 O22 1_555 1_555
C58 C57 1_555 1_555
H54 C58 1_555 1_555
C59 C58 1_555 1_555
H55 C59 1_555 1_555
C60 C59 1_555 1_555
H56 C60 1_555 1_555
C61 C60 1_555 1_555
H57 C61 1_555 1_555
C62 C57 1_555 1_555
C63 N6 1_555 1_555
H58 C63 1_555 1_555
C64 N6 1_555 1_555
H59 C64 1_555 1_555
H60 C64 1_555 1_555
C65 C64 1_555 1_555
H61 C65 1_555 1_555
H62 C65 1_555 1_555
C66 O23 1_555 1_555
H63 C66 1_555 1_555
C67 O25 1_555 1_555
C68 O26 1_555 1_555
H64 C68 1_555 1_555
H65 C68 1_555 1_555
H66 C68 1_555 1_555
Na2 O7 1_555 1_555
Na3 O16 1_555 1_555
O27 Na2 1_555 1_555
O28 Na2 1_555 1_555
O29 Na2 1_555 1_555
O30 Na1 1_555 1_555
O31 Na1 1_555 1_555
O32 Na1 1_555 1_555
C69 O32 1_555 1_555
H67 C69 1_555 1_555
H68 C69 1_555 1_555
H69 C69 1_555 1_555
O33 Na1 1_555 1_555
O34 Na1 1_555 1_555
O35 Na3 1_555 1_555
O36 Na3 1_555 1_555
O37 Na3 1_555 1_555
Cl1 O38 1_555 1_555
O39 Cl1 1_555 1_555
O40 Cl1 1_555 1_555
O41 Cl1 1_555 1_555
O11_2 Na3 1_555 1_555
Na3_2 O11 1_555 1_555
Mn2 O13 1_555 1_555
Mn3 O10 1_555 1_555
Mn3 O13 1_555 1_555
Na1 O8 1_555 1_555
C5 C6 1_555 1_555
C6 C7 1_555 1_555
C9 C10 1_555 1_555
C10 C11 1_555 1_555
C16 C17 1_555 1_555
C17 C18 1_555 1_555
C20 C21 1_555 1_555
C21 C22 1_555 1_555
C27 C28 1_555 1_555
C28 C29 1_555 1_555
C31 C32 1_555 1_555
C32 C33 1_555 1_555
Mn5 O19 1_555 1_555
Mn5 O26 1_555 1_555
Mn6 O23 1_555 1_555
Mn6 O26 1_555 1_555
C39 C40 1_555 1_555
C40 C41 1_555 1_555
C43 C44 1_555 1_555
C44 C45 1_555 1_555
C50 C51 1_555 1_555
C51 C52 1_555 1_555
C54 C55 1_555 1_555
C55 C56 1_555 1_555
C61 C62 1_555 1_555
C62 C63 1_555 1_555
C65 C66 1_555 1_555
C66 C67 1_555 1_555
Na2 O30 1_555 1_555
Na3 O34 1_555 1_555

#END
