
#######################################################################
#
#                 Cambridge Crystallographic Data Centre
#                                CCDC 
#
#######################################################################
#
# If this CIF has been generated from an entry in the Cambridge 
# Structural Database, then it will include bibliographic, chemical, 
# crystal, experimental, refinement or atomic coordinate data resulting 
# from the CCDC's data processing and validation procedures.
#
#######################################################################

data_MOPFII
_symmetry_cell_setting           monoclinic
_symmetry_space_group_name_H-M   'P 21/c'
_symmetry_Int_Tables_number      14
_space_group_name_Hall           '-P 2ybc'
loop_
_symmetry_equiv_pos_site_id
_symmetry_equiv_pos_as_xyz
1 x,y,z
2 -x,1/2+y,1/2-z
3 -x,-y,-z
4 x,1/2-y,1/2+z
_cell_length_a                   9.545(6)
_cell_length_b                   18.474(4)
_cell_length_c                   6.772(4)
_cell_angle_alpha                90
_cell_angle_beta                 94.913(5)
_cell_angle_gamma                90
_cell_volume                     1189.75
loop_
_atom_site_label
_atom_site_type_symbol
_atom_site_fract_x
_atom_site_fract_y
_atom_site_fract_z
Cd1 Cd 0.44808(2) 0.302773(9) 0.47907(3)
C1 C 0.1390(3) 0.30390(15) 0.6314(6)
H1 H 0.1342 0.2537 0.6229
C2 C 0.2100(3) 0.41409(14) 0.6092(4)
C3 C 0.2832(3) 0.47753(14) 0.5798(4)
H2 H 0.3671 0.4769 0.5195
C4 C 0.2272(3) 0.54178(13) 0.6434(4)
C5 C 0.0986(3) 0.54260(15) 0.7320(4)
H3 H 0.0625 0.5866 0.7709
C6 C 0.0255(3) 0.48007(15) 0.7623(4)
H4 H -0.0591 0.4807 0.8209
C7 C 0.0846(3) 0.41530(14) 0.7009(4)
C8 C 0.3075(3) 0.61092(14) 0.6233(4)
C9 C 0.4561(3) 0.15446(14) 0.4957(4)
C10 C 0.4782(3) 0.07437(14) 0.4966(4)
C11 C 0.3881(3) 0.02935(14) 0.5906(4)
H5 H 0.3133 0.0491 0.6516
C12 C 0.4093(3) -0.04465(14) 0.5941(4)
H6 H 0.3486 -0.0746 0.6569
N1 N 0.2421(2) 0.34257(12) 0.5658(4)
N2 N 0.0426(3) 0.34438(13) 0.7111(4)
O1 O 0.2731(2) 0.66686(11) 0.7075(4)
O2 O 0.4127(2) 0.60673(11) 0.5195(3)
O3 O 0.3856(2) 0.18323(10) 0.6251(3)
O4 O 0.5081(2) 0.19291(9) 0.3652(3)
H7 H -0.019(4) 0.330(2) 0.763(6)
C9B C 0.5439(3) -0.15446(14) 0.5043(4)
C10B C 0.5218(3) -0.07437(14) 0.5034(4)
C11B C 0.6119(3) -0.02935(14) 0.4094(4)
H5B H 0.6867 -0.0491 0.3484
C12B C 0.5907(3) 0.04465(14) 0.4059(4)
H6B H 0.6514 0.0746 0.3431
O3B O 0.6144(2) -0.18323(10) 0.3749(3)
O4B O 0.4919(2) -0.19291(9) 0.6348(3)
Cd1B Cd 0.55192(2) -0.302773(9) 0.52093(3)
C1B C 0.8610(3) -0.30390(15) 0.3686(6)
H1B H 0.8658 -0.2537 0.3771
C2B C 0.7900(3) -0.41409(14) 0.3908(4)
C3B C 0.7168(3) -0.47753(14) 0.4202(4)
H2B H 0.6329 -0.4769 0.4805
C4B C 0.7728(3) -0.54178(13) 0.3566(4)
C5B C 0.9014(3) -0.54260(15) 0.2680(4)
H3B H 0.9375 -0.5866 0.2291
C6B C 0.9745(3) -0.48007(15) 0.2377(4)
H4B H 1.0591 -0.4807 0.1791
C7B C 0.9154(3) -0.41530(14) 0.2991(4)
C8B C 0.6925(3) -0.61092(14) 0.3767(4)
N1B N 0.7579(2) -0.34257(12) 0.4342(4)
N2B N 0.9574(3) -0.34438(13) 0.2889(4)
O1B O 0.7269(2) -0.66686(11) 0.2925(4)
O2B O 0.5873(2) -0.60673(11) 0.4805(3)
H7B H 1.019(4) -0.330(2) 0.237(6)
Cd1_2 Cd 0.44808(2) -0.697227(9) 0.47907(3)
Cd1A Cd 0.55192(2) -0.197227(9) 0.02093(3)
Cd1A_2 Cd 0.55192(2) -0.197227(9) 1.02093(3)
Cd1B_2 Cd 0.55192(2) 0.697227(9) 0.52093(3)
Cd1C Cd 0.44808(2) 0.197227(9) -0.02093(3)
Cd1C_2 Cd 0.44808(2) 0.197227(9) 0.97907(3)
O2_2 O 0.4127(2) -0.39327(11) 0.5195(3)
O2B_2 O 0.5873(2) 0.39327(11) 0.4805(3)
O3A O 0.6144(2) -0.31677(10) 0.8749(3)
O3C O 0.3856(2) 0.31677(10) 0.1251(3)
O4A O 0.4919(2) -0.30709(9) 0.1348(3)
O4C O 0.5081(2) 0.30709(9) 0.8652(3)
O5 O 0.8509(3) 0.29273(15) 0.9526(5)
H8 H 0.802(5) 0.314(2) 1.034(6)
H9 H 0.809(4) 0.2565(15) 0.911(6)
loop_
_geom_bond_atom_site_label_1
_geom_bond_atom_site_label_2
_geom_bond_site_symmetry_1
_geom_bond_site_symmetry_2
Cd1 N1 1_555 1_555
C1 H1 1_555 1_555
C2 C3 1_555 1_555
C3 H2 1_555 1_555
C4 C3 1_555 1_555
C5 C4 1_555 1_555
H3 C5 1_555 1_555
C6 C5 1_555 1_555
H4 C6 1_555 1_555
C7 C2 1_555 1_555
C8 C4 1_555 1_555
C9 C10 1_555 1_555
C10 C11 1_555 1_555
C11 H5 1_555 1_555
C12 C11 1_555 1_555
H6 C12 1_555 1_555
N1 C1 1_555 1_555
N2 C1 1_555 1_555
O1 C8 1_555 1_555
O2 C8 1_555 1_555
O3 Cd1 1_555 1_555
O4 Cd1 1_555 1_555
H7 N2 1_555 1_555
O5 H8 1_555 1_555
H9 O5 1_555 1_555
C9B C10B 1_555 1_555
C10B C12 1_555 1_555
C11B C10B 1_555 1_555
H5B C11B 1_555 1_555
C12B C10 1_555 1_555
H6B C12B 1_555 1_555
O3B C9B 1_555 1_555
O4B C9B 1_555 1_555
Cd1B O3B 1_555 1_555
C1B H1B 1_555 1_555
C2B C3B 1_555 1_555
C3B H2B 1_555 1_555
C4B C3B 1_555 1_555
C5B C4B 1_555 1_555
H3B C5B 1_555 1_555
C6B C5B 1_555 1_555
H4B C6B 1_555 1_555
C7B C2B 1_555 1_555
C8B C4B 1_555 1_555
N1B Cd1B 1_555 1_555
N2B C1B 1_555 1_555
O1B C8B 1_555 1_555
O2B C8B 1_555 1_555
H7B N2B 1_555 1_555
Cd1_2 O2B 1_555 1_555
Cd1A O3B 1_555 1_555
Cd1A_2 O4B 1_555 1_555
Cd1B_2 O2 1_555 1_555
Cd1C O4 1_555 1_555
Cd1C_2 O3 1_555 1_555
O2_2 Cd1B 1_555 1_555
O2B_2 Cd1 1_555 1_555
O3A Cd1B 1_555 1_555
O3C Cd1 1_555 1_555
O4A Cd1B 1_555 1_555
O4C Cd1 1_555 1_555
C2 N1 1_555 1_555
C6 C7 1_555 1_555
C7 N2 1_555 1_555
C9 O3 1_555 1_555
C9 O4 1_555 1_555
C11B C12B 1_555 1_555
O4B Cd1B 1_555 1_555
C1B N1B 1_555 1_555
C2B N1B 1_555 1_555
C6B C7B 1_555 1_555
C7B N2B 1_555 1_555
Cd1A O4A 1_555 1_555
Cd1A_2 O3A 1_555 1_555
Cd1C O3C 1_555 1_555
Cd1C_2 O4C 1_555 1_555

#END
