
#######################################################################
#
#                 Cambridge Crystallographic Data Centre
#                                CCDC 
#
#######################################################################
#
# If this CIF has been generated from an entry in the Cambridge 
# Structural Database, then it will include bibliographic, chemical, 
# crystal, experimental, refinement or atomic coordinate data resulting 
# from the CCDC's data processing and validation procedures.
#
#######################################################################

data_MOPLEK
_symmetry_cell_setting           monoclinic
_symmetry_space_group_name_H-M   'C 2/c'
_symmetry_Int_Tables_number      15
_space_group_name_Hall           '-C 2yn'
loop_
_symmetry_equiv_pos_site_id
_symmetry_equiv_pos_as_xyz
1 x,y,z
2 -x,y,1/2-z
3 1/2+x,1/2+y,z
4 1/2-x,1/2+y,1/2-z
5 -x,-y,-z
6 x,-y,1/2+z
7 1/2-x,1/2-y,-z
8 1/2+x,1/2-y,1/2+z
_cell_length_a                   24.330(2)
_cell_length_b                   19.815(2)
_cell_length_c                   17.257(2)
_cell_angle_alpha                90
_cell_angle_beta                 130.627(2)
_cell_angle_gamma                90
_cell_volume                     6314.27
loop_
_atom_site_label
_atom_site_type_symbol
_atom_site_fract_x
_atom_site_fract_y
_atom_site_fract_z
C1 C -0.1115(4) -0.5574(3) -0.1938(6)
H1 H -0.1486 -0.5745 -0.2652
Cl1 Cl -0.1079(2) -0.61451(15) -0.1118(2)
Cl2 Cl -0.13764(16) -0.47688(12) -0.1896(2)
Cl3 Cl -0.02694(13) -0.55328(13) -0.1660(2)
C2 C -0.2322(5) -0.4856(5) -0.1047(8)
O1 O -0.2694(5) -0.5023(5) -0.0689(6)
Co1 Co 0.2500 0.2500 0.0000
Cl4 Cl 0.23427(5) 0.37147(4) -0.06576(6)
N1 N 0.15192(15) 0.22500(15) -0.1462(2)
C3 C 0.09822(19) 0.26499(19) -0.2259(3)
H2 H 0.0992 0.3129 -0.2262
C4 C 0.0437(2) 0.22636(19) -0.3038(3)
H3 H 0.0002 0.2416 -0.3674
N2 N 0.06427(15) 0.16052(14) -0.2721(2)
C5 C 0.12981(18) 0.16317(18) -0.1768(2)
H4 H 0.1566 0.1245 -0.1369
C6 C 0.02542(18) 0.10000(18) -0.3276(2)
C7 C -0.04784(18) 0.10252(18) -0.4096(2)
H5 H -0.0731 0.1443 -0.4309
C8 C -0.08423(18) 0.04333(19) -0.4608(3)
H6 H -0.1347 0.0452 -0.5176
C9 C -0.04899(18) -0.01886(18) -0.4315(2)
C10 C 0.02538(19) -0.01805(19) -0.3490(3)
H7 H 0.0514 -0.0594 -0.3274
C11 C 0.06226(19) 0.03956(18) -0.2981(3)
H8 H 0.1130 0.0382 -0.2428
N3 N -0.18939(15) -0.27536(15) -0.0452(2)
C12 C -0.19645(18) -0.24473(17) -0.1189(3)
H9 H -0.2313 -0.2106 -0.1611
N4 N -0.14835(14) -0.26749(14) -0.1275(2)
C13 C -0.1079(2) -0.31658(19) -0.0531(3)
H10 H -0.0695 -0.3424 -0.0394
C14 C -0.1340(2) -0.32044(19) -0.0040(3)
H11 H -0.1164 -0.3501 0.0511
C15 C -0.14269(18) -0.24661(17) -0.2017(2)
C16 C -0.17005(17) -0.18457(17) -0.2491(2)
H12 H -0.1904 -0.1550 -0.2303
C17 C -0.16762(18) -0.16588(17) -0.3240(2)
H13 H -0.1879 -0.1238 -0.3578
C18 C -0.13600(17) -0.20738(17) -0.3514(2)
C19 C -0.10788(17) -0.26820(18) -0.3009(2)
H14 H -0.0854 -0.2971 -0.3170
C20 C -0.11136(17) -0.28851(18) -0.2270(2)
H15 H -0.0922 -0.3310 -0.1942
C21 C -0.08847(17) -0.08580(18) -0.4763(2)
C22 C -0.04773(19) -0.13687(18) -0.4891(3)
H16 H -0.0439 -0.1194 -0.5392
H17 H 0.0019 -0.1429 -0.4230
C23 C -0.16597(18) -0.07804(19) -0.5791(2)
H18 H -0.1933 -0.0461 -0.5713
H19 H -0.1642 -0.0593 -0.6306
C24 C -0.09415(17) -0.11475(17) -0.3984(2)
H20 H -0.0449 -0.1199 -0.3313
H21 H -0.1211 -0.0826 -0.3900
C25 C -0.13269(17) -0.18339(17) -0.4325(2)
C26 C -0.20462(18) -0.1463(2) -0.6158(2)
H22 H -0.2547 -0.1402 -0.6827
C27 C -0.08654(18) -0.2047(2) -0.5256(2)
H23 H -0.0589 -0.2370 -0.5335
C28 C -0.09093(18) -0.23280(18) -0.4465(3)
H24 H -0.1158 -0.2771 -0.4698
H25 H -0.0415 -0.2395 -0.3804
C29 C -0.20918(18) -0.17416(19) -0.5366(2)
H26 H -0.2371 -0.1425 -0.5294
H27 H -0.2347 -0.2181 -0.5605
C30 C -0.16326(19) -0.1961(2) -0.6288(3)
H28 H -0.1608 -0.1790 -0.6804
H29 H -0.1885 -0.2402 -0.6526
N1D N -0.15192(15) -0.22500(15) 0.1462(2)
C3D C -0.09822(19) -0.26499(19) 0.2259(3)
H2D H -0.0992 -0.3129 0.2262
C4D C -0.0437(2) -0.22636(19) 0.3038(3)
H3D H -0.0002 -0.2416 0.3674
N2D N -0.06427(15) -0.16052(14) 0.2721(2)
C5D C -0.12981(18) -0.16317(18) 0.1768(2)
H4D H -0.1566 -0.1245 0.1369
C6D C -0.02542(18) -0.10000(18) 0.3276(2)
C7D C 0.04784(18) -0.10252(18) 0.4096(2)
H5D H 0.0731 -0.1443 0.4309
C8D C 0.08423(18) -0.04333(19) 0.4608(3)
H6D H 0.1347 -0.0452 0.5176
C9D C 0.04899(18) 0.01886(18) 0.4315(2)
C10D C -0.02538(19) 0.01805(19) 0.3490(3)
H7D H -0.0514 0.0594 0.3274
C11D C -0.06226(19) -0.03956(18) 0.2981(3)
H8D H -0.1130 -0.0382 0.2428
N3D N 0.18939(15) 0.27536(15) 0.0452(2)
C12D C 0.19645(18) 0.24473(17) 0.1189(3)
H9D H 0.2313 0.2106 0.1611
N4D N 0.14835(14) 0.26749(14) 0.1275(2)
C13D C 0.1079(2) 0.31658(19) 0.0531(3)
H10D H 0.0695 0.3424 0.0394
C14D C 0.1340(2) 0.32044(19) 0.0040(3)
H11D H 0.1164 0.3501 -0.0511
C15D C 0.14269(18) 0.24661(17) 0.2017(2)
C16D C 0.17005(17) 0.18457(17) 0.2491(2)
H12D H 0.1904 0.1550 0.2303
C17D C 0.16762(18) 0.16588(17) 0.3240(2)
H13D H 0.1879 0.1238 0.3578
C18D C 0.13600(17) 0.20738(17) 0.3514(2)
C19D C 0.10788(17) 0.26820(18) 0.3009(2)
H14D H 0.0854 0.2971 0.3170
C20D C 0.11136(17) 0.28851(18) 0.2270(2)
H15D H 0.0922 0.3310 0.1942
C21D C 0.08847(17) 0.08580(18) 0.4763(2)
C22D C 0.04773(19) 0.13687(18) 0.4891(3)
H16D H 0.0439 0.1194 0.5392
H17D H -0.0019 0.1429 0.4230
C23D C 0.16597(18) 0.07804(19) 0.5791(2)
H18D H 0.1933 0.0461 0.5713
H19D H 0.1642 0.0593 0.6306
C24D C 0.09415(17) 0.11475(17) 0.3984(2)
H20D H 0.0449 0.1199 0.3313
H21D H 0.1211 0.0826 0.3900
C25D C 0.13269(17) 0.18339(17) 0.4325(2)
C26D C 0.20462(18) 0.1463(2) 0.6158(2)
H22D H 0.2547 0.1402 0.6827
C27D C 0.08654(18) 0.2047(2) 0.5256(2)
H23D H 0.0589 0.2370 0.5335
C28D C 0.09093(18) 0.23280(18) 0.4465(3)
H24D H 0.1158 0.2771 0.4698
H25D H 0.0415 0.2395 0.3804
C29D C 0.20918(18) 0.17416(19) 0.5366(2)
H26D H 0.2371 0.1425 0.5294
H27D H 0.2347 0.2181 0.5605
C30D C 0.16326(19) 0.1961(2) 0.6288(3)
H28D H 0.1608 0.1790 0.6804
H29D H 0.1885 0.2402 0.6526
Cl4F Cl 0.26573(5) 0.12853(4) 0.06576(6)
Co1B Co -0.2500 -0.2500 0.0000
N1F N 0.34808(15) 0.27500(15) 0.1462(2)
N3B N 0.31061(15) 0.22464(15) -0.0452(2)
C31? C -0.1636(15) -0.5528(12) -0.2055(19)
H30? H -0.1904 -0.5689 -0.2769
Cl5? Cl -0.2155(5) -0.5185(4) -0.1827(6)
Cl6? Cl -0.1057(13) -0.6099(9) -0.1118(15)
Cl7? Cl -0.0861(12) -0.4958(9) -0.1542(19)
C32? C -0.1730(7) -0.5348(6) 0.0423(12)
O2? O -0.2433(9) -0.5070(11) -0.0251(11)
C33? C -0.013(2) -0.5700(14) -0.248(4)
O3? O 0.0438(19) -0.5251(14) -0.195(2)
C34? C 0.012(2) -0.4169(10) -0.274(2)
O4? O 0.0649(15) -0.4477(8) -0.1621(12)
loop_
_geom_bond_atom_site_label_1
_geom_bond_atom_site_label_2
_geom_bond_site_symmetry_1
_geom_bond_site_symmetry_2
C1 H1 1_555 1_555
Cl1 C1 1_555 1_555
Cl2 C1 1_555 1_555
Cl3 C1 1_555 1_555
C2 O1 1_555 1_555
Co1 Cl4 1_555 1_555
N1 Co1 1_555 1_555
C3 N1 1_555 1_555
H2 C3 1_555 1_555
C4 C3 1_555 1_555
H3 C4 1_555 1_555
N2 C4 1_555 1_555
C5 N1 1_555 1_555
H4 C5 1_555 1_555
C6 N2 1_555 1_555
C7 C6 1_555 1_555
H5 C7 1_555 1_555
C8 C7 1_555 1_555
H6 C8 1_555 1_555
C9 C8 1_555 1_555
C10 C9 1_555 1_555
H7 C10 1_555 1_555
C11 C6 1_555 1_555
H8 C11 1_555 1_555
N3 C12 1_555 1_555
C12 H9 1_555 1_555
N4 C12 1_555 1_555
C13 N4 1_555 1_555
H10 C13 1_555 1_555
C14 N3 1_555 1_555
H11 C14 1_555 1_555
C15 N4 1_555 1_555
C16 C15 1_555 1_555
H12 C16 1_555 1_555
C17 C16 1_555 1_555
H13 C17 1_555 1_555
C18 C17 1_555 1_555
C19 C18 1_555 1_555
H14 C19 1_555 1_555
C20 C15 1_555 1_555
H15 C20 1_555 1_555
C21 C9 1_555 1_555
C22 C21 1_555 1_555
H16 C22 1_555 1_555
H17 C22 1_555 1_555
C23 C21 1_555 1_555
H18 C23 1_555 1_555
H19 C23 1_555 1_555
C24 C21 1_555 1_555
H20 C24 1_555 1_555
H21 C24 1_555 1_555
C25 C18 1_555 1_555
C26 C23 1_555 1_555
H22 C26 1_555 1_555
C27 C22 1_555 1_555
H23 C27 1_555 1_555
C28 C25 1_555 1_555
H24 C28 1_555 1_555
H25 C28 1_555 1_555
C29 C25 1_555 1_555
H26 C29 1_555 1_555
H27 C29 1_555 1_555
C30 C26 1_555 1_555
H28 C30 1_555 1_555
H29 C30 1_555 1_555
N1D C3D 1_555 1_555
C3D H2D 1_555 1_555
C4D C3D 1_555 1_555
H3D C4D 1_555 1_555
N2D C4D 1_555 1_555
C5D N1D 1_555 1_555
H4D C5D 1_555 1_555
C6D N2D 1_555 1_555
C7D C6D 1_555 1_555
H5D C7D 1_555 1_555
C8D C7D 1_555 1_555
H6D C8D 1_555 1_555
C9D C8D 1_555 1_555
C10D C9D 1_555 1_555
H7D C10D 1_555 1_555
C11D C6D 1_555 1_555
H8D C11D 1_555 1_555
N3D Co1 1_555 1_555
C12D N3D 1_555 1_555
H9D C12D 1_555 1_555
N4D C12D 1_555 1_555
C13D N4D 1_555 1_555
H10D C13D 1_555 1_555
C14D N3D 1_555 1_555
H11D C14D 1_555 1_555
C15D N4D 1_555 1_555
C16D C15D 1_555 1_555
H12D C16D 1_555 1_555
C17D C16D 1_555 1_555
H13D C17D 1_555 1_555
C18D C17D 1_555 1_555
C19D C18D 1_555 1_555
H14D C19D 1_555 1_555
C20D C15D 1_555 1_555
H15D C20D 1_555 1_555
C21D C9D 1_555 1_555
C22D C21D 1_555 1_555
H16D C22D 1_555 1_555
H17D C22D 1_555 1_555
C23D C21D 1_555 1_555
H18D C23D 1_555 1_555
H19D C23D 1_555 1_555
C24D C21D 1_555 1_555
H20D C24D 1_555 1_555
H21D C24D 1_555 1_555
C25D C18D 1_555 1_555
C26D C23D 1_555 1_555
H22D C26D 1_555 1_555
C27D C22D 1_555 1_555
H23D C27D 1_555 1_555
C28D C25D 1_555 1_555
H24D C28D 1_555 1_555
H25D C28D 1_555 1_555
C29D C25D 1_555 1_555
H26D C29D 1_555 1_555
H27D C29D 1_555 1_555
C30D C26D 1_555 1_555
H28D C30D 1_555 1_555
H29D C30D 1_555 1_555
Cl4F Co1 1_555 1_555
Co1B N3 1_555 1_555
N1F Co1 1_555 1_555
N3B Co1 1_555 1_555
N2 C5 1_555 1_555
C10 C11 1_555 1_555
C13 C14 1_555 1_555
C19 C20 1_555 1_555
C24 C25 1_555 1_555
C26 C29 1_555 1_555
C27 C28 1_555 1_555
C27 C30 1_555 1_555
N1D Co1B 1_555 1_555
N2D C5D 1_555 1_555
C10D C11D 1_555 1_555
C13D C14D 1_555 1_555
C19D C20D 1_555 1_555
C24D C25D 1_555 1_555
C26D C29D 1_555 1_555
C27D C28D 1_555 1_555
C27D C30D 1_555 1_555

#END
