
#######################################################################
#
#                 Cambridge Crystallographic Data Centre
#                                CCDC 
#
#######################################################################
#
# If this CIF has been generated from an entry in the Cambridge 
# Structural Database, then it will include bibliographic, chemical, 
# crystal, experimental, refinement or atomic coordinate data resulting 
# from the CCDC's data processing and validation procedures.
#
#######################################################################

data_MOPNAI
_symmetry_cell_setting           triclinic
_symmetry_space_group_name_H-M   'P -1'
_symmetry_Int_Tables_number      2
_space_group_name_Hall           '-P 1'
loop_
_symmetry_equiv_pos_site_id
_symmetry_equiv_pos_as_xyz
1 x,y,z
2 -x,-y,-z
_cell_length_a                   4.970(2)
_cell_length_b                   7.113(3)
_cell_length_c                   11.778(5)
_cell_angle_alpha                97.779(7)
_cell_angle_beta                 92.103(7)
_cell_angle_gamma                107.217(6)
_cell_volume                     392.756
loop_
_atom_site_label
_atom_site_type_symbol
_atom_site_fract_x
_atom_site_fract_y
_atom_site_fract_z
Co1 Co 1.0000 0.0000 1.0000
P1 P 0.7907(2) 0.26496(15) 0.80287(9)
O1 O 0.5953(6) 0.3807(4) 0.8492(3)
O2 O 0.8225(7) 0.1093(4) 0.8703(3)
O3 O 1.0839(6) 0.4270(4) 0.7946(3)
H1 H 1.2133 0.3834 0.8110
O4 O 0.7861(6) 0.1267(5) 1.1296(3)
H2 H 0.6179 0.0974 1.1083
H3 H 0.8466 0.2447 1.1337
O5 O 1.3409(6) 0.2550(4) 1.0353(3)
H4 H 1.4277 0.2712 0.9777
H5 H 1.3472 0.3644 1.0713
C1 C 1.0034(9) 0.1929(6) 0.5096(4)
H6 H 1.0043 0.3248 0.5157
C2 C 0.8293(9) -0.1280(6) 0.5689(4)
C3 C 0.6494(9) 0.1577(7) 0.6573(4)
H7 H 0.4745 0.0527 0.6607
H8 H 0.6017 0.2596 0.6212
C4 C 0.8337(9) 0.0718(6) 0.5799(4)
C5 C 0.6501(12) -0.2703(7) 0.6396(5)
H9 H 0.6757 -0.3990 0.6202
H10 H 0.4549 -0.2805 0.6240
H11 H 0.7052 -0.2221 0.7197
P1A P 1.2093(2) -0.26496(15) 0.19713(9)
O1A O 1.4047(6) -0.3807(4) 0.1508(3)
O2A O 1.1775(7) -0.1093(4) 0.1297(3)
O3A O 0.9161(6) -0.4270(4) 0.2054(3)
H1A H 0.7867 -0.3834 0.1890
C1A C 0.9966(9) -0.1929(6) 0.4904(4)
H6A H 0.9957 -0.3248 0.4843
C2A C 1.1707(9) 0.1280(6) 0.4311(4)
C3A C 1.3506(9) -0.1577(7) 0.3427(4)
H7A H 1.5255 -0.0527 0.3393
H8A H 1.3983 -0.2596 0.3788
C4A C 1.1663(9) -0.0718(6) 0.4201(4)
C5A C 1.3499(12) 0.2703(7) 0.3604(5)
H9A H 1.3243 0.3990 0.3798
H10A H 1.5451 0.2805 0.3760
H11A H 1.2948 0.2221 0.2803
O4A O 1.2139(6) -0.1267(5) 0.8704(3)
H2A H 1.3821 -0.0974 0.8917
H3A H 1.1534 -0.2447 0.8663
O5A O 0.6591(6) -0.2550(4) 0.9647(3)
H4A H 0.5723 -0.2712 1.0223
H5A H 0.6528 -0.3644 0.9287
Co1_2 Co 1.0000 0.0000 0.0000
O2A_2 O 1.1775(7) -0.1093(4) 1.1297(3)
loop_
_geom_bond_atom_site_label_1
_geom_bond_atom_site_label_2
_geom_bond_site_symmetry_1
_geom_bond_site_symmetry_2
Co1 O2 1_555 1_555
P1 O1 1_555 1_555
O2 P1 1_555 1_555
O3 P1 1_555 1_555
H1 O3 1_555 1_555
O4 Co1 1_555 1_555
H2 O4 1_555 1_555
H3 O4 1_555 1_555
O5 Co1 1_555 1_555
H4 O5 1_555 1_555
H5 O5 1_555 1_555
C1 H6 1_555 1_555
C2 C4 1_555 1_555
C3 P1 1_555 1_555
H7 C3 1_555 1_555
H8 C3 1_555 1_555
C4 C1 1_555 1_555
C5 C2 1_555 1_555
H9 C5 1_555 1_555
H10 C5 1_555 1_555
H11 C5 1_555 1_555
P1A O1A 1_555 1_555
O2A P1A 1_555 1_555
O3A P1A 1_555 1_555
H1A O3A 1_555 1_555
C1A C2 1_555 1_555
H6A C1A 1_555 1_555
C2A C1 1_555 1_555
C3A P1A 1_555 1_555
H7A C3A 1_555 1_555
H8A C3A 1_555 1_555
C4A C1A 1_555 1_555
C5A C2A 1_555 1_555
H9A C5A 1_555 1_555
H10A C5A 1_555 1_555
H11A C5A 1_555 1_555
O4A Co1 1_555 1_555
H2A O4A 1_555 1_555
H3A O4A 1_555 1_555
O5A Co1 1_555 1_555
H4A O5A 1_555 1_555
H5A O5A 1_555 1_555
Co1_2 O2A 1_555 1_555
O2A_2 Co1 1_555 1_555
C3 C4 1_555 1_555
C2A C4A 1_555 1_555
C3A C4A 1_555 1_555

#END
