
#######################################################################
#
#                 Cambridge Crystallographic Data Centre
#                                CCDC 
#
#######################################################################
#
# If this CIF has been generated from an entry in the Cambridge 
# Structural Database, then it will include bibliographic, chemical, 
# crystal, experimental, refinement or atomic coordinate data resulting 
# from the CCDC's data processing and validation procedures.
#
#######################################################################

data_MOPROA
_symmetry_cell_setting           triclinic
_symmetry_space_group_name_H-M   'P -1'
_symmetry_Int_Tables_number      2
_space_group_name_Hall           '-P 1'
loop_
_symmetry_equiv_pos_site_id
_symmetry_equiv_pos_as_xyz
1 x,y,z
2 -x,-y,-z
_cell_length_a                   6.8534(2)
_cell_length_b                   8.9785(2)
_cell_length_c                   12.5975(3)
_cell_angle_alpha                72.683(3)
_cell_angle_beta                 79.271(3)
_cell_angle_gamma                68.084(2)
_cell_volume                     684.078
loop_
_atom_site_label
_atom_site_type_symbol
_atom_site_fract_x
_atom_site_fract_y
_atom_site_fract_z
Cd1 Cd 0.08730(2) 0.136941(16) 0.259749(11)
Ni1 Ni 0.5000 0.5000 0.0000
Ni2 Ni -0.5000 0.5000 0.5000
O1 O 0.0407(2) -0.12259(19) 0.30910(14)
H1 H -0.060(4) -0.156(5) 0.339(3)
O2 O 0.2812(3) 0.0591(3) 0.41236(16)
H2 H 0.259(6) 0.144(4) 0.448(3)
H3 H 0.430(3) 0.010(4) 0.396(3)
N1 N 0.2143(3) 0.3515(2) 0.17472(15)
N2 N 0.1278(3) 0.7662(2) -0.11523(15)
N3 N -0.1975(3) 0.2573(2) 0.37249(15)
N4 N -0.7349(3) 0.2577(2) 0.58996(17)
N5 N 0.3750(3) -0.0562(2) 0.18648(14)
C1 C 0.3211(3) 0.4118(2) 0.10916(17)
C2 C 0.2680(3) 0.6678(3) -0.06772(16)
C3 C -0.3102(3) 0.3512(3) 0.42085(17)
C4 C -0.6498(3) 0.3531(3) 0.55635(17)
C5 C 0.1907(3) -0.2560(3) 0.26882(19)
H4 H 0.1268 -0.2835 0.2181
H5 H 0.2338 -0.3526 0.3308
C6 C 0.3811(3) -0.2129(2) 0.20924(16)
C7 C 0.5588(3) -0.3370(3) 0.17979(18)
H6 H 0.5597 -0.4454 0.1975
C8 C 0.7348(3) -0.2983(3) 0.12386(18)
H7 H 0.8542 -0.3796 0.1023
C9 C 0.7290(3) -0.1365(3) 0.10081(19)
H8 H 0.8448 -0.1067 0.0638
C10 C 0.5482(3) -0.0201(3) 0.13373(18)
H9 H 0.5454 0.0885 0.1189
Cd1A Cd -1.08730(2) 0.863059(16) 0.740251(11)
O1A O -1.0407(2) 1.12259(19) 0.69090(14)
H1A H -0.940(4) 1.156(5) 0.661(3)
O2A O -1.2812(3) 0.9409(3) 0.58764(16)
H2A H -1.259(6) 0.856(4) 0.552(3)
H3A H -1.430(3) 0.990(4) 0.604(3)
N1A N -1.2143(3) 0.6485(2) 0.82528(15)
N3A N -0.8025(3) 0.7427(2) 0.62751(15)
N4A N -0.2651(3) 0.7423(2) 0.41004(17)
N5A N -1.3750(3) 1.0562(2) 0.81352(14)
C1A C -1.3211(3) 0.5882(2) 0.89084(17)
C3A C -0.6898(3) 0.6488(3) 0.57915(17)
C4A C -0.3502(3) 0.6469(3) 0.44365(17)
C5A C -1.1907(3) 1.2560(3) 0.73118(19)
H4A H -1.1268 1.2835 0.7819
H5A H -1.2338 1.3526 0.6692
C6A C -1.3811(3) 1.2129(2) 0.79076(16)
C7A C -1.5588(3) 1.3370(3) 0.82021(18)
H6A H -1.5597 1.4454 0.8025
C8A C -1.7348(3) 1.2983(3) 0.87614(18)
H7A H -1.8542 1.3796 0.8977
C9A C -1.7290(3) 1.1365(3) 0.89919(19)
H8A H -1.8448 1.1067 0.9362
C10A C -1.5482(3) 1.0201(3) 0.86627(18)
H9A H -1.5454 0.9115 0.8811
N2A N -0.1278(3) 0.2338(2) 0.11523(15)
C2A C -0.2680(3) 0.3322(3) 0.06772(16)
Cd1A_2 Cd -0.08730(2) 0.863059(16) -0.259749(11)
Ni1_2 Ni -1.5000 0.5000 1.0000
Ni1_3 Ni -0.5000 0.5000 0.0000
N2_2 N -0.8722(3) 0.7662(2) 0.88477(15)
C1A_2 C 0.6789(3) 0.5882(2) -0.10916(17)
C2A_2 C 0.7320(3) 0.3322(3) 0.06772(16)
loop_
_geom_bond_atom_site_label_1
_geom_bond_atom_site_label_2
_geom_bond_site_symmetry_1
_geom_bond_site_symmetry_2
Cd1 O1 1_555 1_555
Ni1 C1 1_555 1_555
Ni2 C3 1_555 1_555
O1 H1 1_555 1_555
O2 Cd1 1_555 1_555
H2 O2 1_555 1_555
H3 O2 1_555 1_555
N1 Cd1 1_555 1_555
N2 C2 1_555 1_555
N3 Cd1 1_555 1_555
N4 C4 1_555 1_555
N5 Cd1 1_555 1_555
C1 N1 1_555 1_555
C2 Ni1 1_555 1_555
C3 N3 1_555 1_555
C4 Ni2 1_555 1_555
C5 O1 1_555 1_555
H4 C5 1_555 1_555
H5 C5 1_555 1_555
C6 N5 1_555 1_555
C7 C6 1_555 1_555
H6 C7 1_555 1_555
C8 C7 1_555 1_555
H7 C8 1_555 1_555
C9 C8 1_555 1_555
H8 C9 1_555 1_555
C10 N5 1_555 1_555
H9 C10 1_555 1_555
Cd1A O1A 1_555 1_555
O1A H1A 1_555 1_555
O2A Cd1A 1_555 1_555
H2A O2A 1_555 1_555
H3A O2A 1_555 1_555
N1A Cd1A 1_555 1_555
N3A Cd1A 1_555 1_555
N4A C4A 1_555 1_555
N5A Cd1A 1_555 1_555
C1A N1A 1_555 1_555
C3A Ni2 1_555 1_555
C4A Ni2 1_555 1_555
C5A O1A 1_555 1_555
H4A C5A 1_555 1_555
H5A C5A 1_555 1_555
C6A N5A 1_555 1_555
C7A C6A 1_555 1_555
H6A C7A 1_555 1_555
C8A C7A 1_555 1_555
H7A C8A 1_555 1_555
C9A C8A 1_555 1_555
H8A C9A 1_555 1_555
C10A N5A 1_555 1_555
H9A C10A 1_555 1_555
N2A Cd1 1_555 1_555
C2A N2A 1_555 1_555
Cd1A_2 N2 1_555 1_555
Ni1_2 C1A 1_555 1_555
Ni1_3 C2A 1_555 1_555
N2_2 Cd1A 1_555 1_555
C1A_2 Ni1 1_555 1_555
C2A_2 Ni1 1_555 1_555
C5 C6 1_555 1_555
C9 C10 1_555 1_555
N3A C3A 1_555 1_555
C5A C6A 1_555 1_555
C9A C10A 1_555 1_555

#END
