
#######################################################################
#
#                 Cambridge Crystallographic Data Centre
#                                CCDC 
#
#######################################################################
#
# If this CIF has been generated from an entry in the Cambridge 
# Structural Database, then it will include bibliographic, chemical, 
# crystal, experimental, refinement or atomic coordinate data resulting 
# from the CCDC's data processing and validation procedures.
#
#######################################################################

data_MOPSUH
_symmetry_cell_setting           monoclinic
_symmetry_space_group_name_H-M   'C 2/c'
_symmetry_Int_Tables_number      15
_space_group_name_Hall           '-C 2yn'
loop_
_symmetry_equiv_pos_site_id
_symmetry_equiv_pos_as_xyz
1 x,y,z
2 -x,y,1/2-z
3 1/2+x,1/2+y,z
4 1/2-x,1/2+y,1/2-z
5 -x,-y,-z
6 x,-y,1/2+z
7 1/2-x,1/2-y,-z
8 1/2+x,1/2-y,1/2+z
_cell_length_a                   14.2168(3)
_cell_length_b                   24.4687(5)
_cell_length_c                   14.8074(3)
_cell_angle_alpha                90
_cell_angle_beta                 96.44
_cell_angle_gamma                90
_cell_volume                     5118.5
loop_
_atom_site_label
_atom_site_type_symbol
_atom_site_fract_x
_atom_site_fract_y
_atom_site_fract_z
C1 C 0.83776(11) 0.53026(6) 0.23791(11)
C2 C 0.65834(11) 0.52470(6) 0.25751(11)
C3 C 0.65443(11) 0.63467(6) 0.26469(11)
C4 C 0.82844(12) 0.63874(7) 0.24022(12)
C5 C 1.14751(13) 0.38409(7) 0.15205(12)
H1 H 1.1716 0.3485 0.1370
H2 H 1.1993 0.4101 0.1540
C6 C 1.07015(12) 0.40107(6) 0.07912(12)
C7 C 1.07689(14) 0.39329(8) -0.01292(13)
H3 H 1.1303 0.3770 -0.0321
C8 C 1.00323(15) 0.41013(8) -0.07549(13)
H4 H 1.0063 0.4054 -0.1374
C9 C 0.92494(15) 0.43416(8) -0.04456(13)
H5 H 0.8742 0.4455 -0.0853
C10 C 0.92326(13) 0.44097(7) 0.04716(12)
H6 H 0.8706 0.4574 0.0677
C11 C 0.35452(13) 0.37533(8) 0.35695(12)
H7 H 0.3314 0.3408 0.3780
H8 H 0.3027 0.4013 0.3522
C12 C 0.43404(12) 0.39591(6) 0.42383(12)
C13 C 0.42894(13) 0.39369(8) 0.51666(12)
H9 H 0.3759 0.3790 0.5392
C14 C 0.50354(14) 0.41355(8) 0.57527(13)
H10 H 0.5013 0.4127 0.6378
C15 C 0.58138(14) 0.43462(8) 0.53949(13)
H11 H 0.6327 0.4480 0.5775
C16 C 0.58193(13) 0.43555(8) 0.44674(12)
H12 H 0.6347 0.4496 0.4229
C17 C 0.36087(12) 0.78521(7) 0.11359(12)
H13 H 0.3409 0.8214 0.0929
H14 H 0.3073 0.7608 0.1005
C18 C 0.43995(12) 0.76647(6) 0.06068(12)
C19 C 0.43469(14) 0.77178(7) -0.03298(12)
H15 H 0.3812 0.7870 -0.0654
C20 C 0.50894(15) 0.75440(8) -0.07774(13)
H16 H 0.5064 0.7577 -0.1405
C21 C 0.58795(14) 0.73172(8) -0.02742(13)
H17 H 0.6394 0.7199 -0.0558
C22 C 0.58813(13) 0.72722(7) 0.06536(13)
H18 H 0.6406 0.7118 0.0990
N1 N 0.89560(10) 0.49778(6) 0.23523(10)
N2 N 0.60605(10) 0.48882(6) 0.25759(9)
N3 N 0.60125(10) 0.66931(6) 0.27093(10)
N4 N 0.87587(11) 0.67632(6) 0.23370(12)
N5 N 0.99462(10) 0.42478(5) 0.10867(10)
N6 N 0.50909(10) 0.41692(5) 0.38904(9)
N7 N 0.51581(10) 0.74416(5) 0.10926(9)
O1 O 1.11451(9) 0.38154(5) 0.23824(8)
O2 O 0.38680(10) 0.36810(5) 0.27056(9)
O3 O 0.38602(8) 0.78674(4) 0.20749(8)
Ni1 Ni 0.74449(2) 0.58146(2) 0.25054(2)
Zn1 Zn 1.0000 0.43602(2) 0.2500
Zn2 Zn 0.5000 0.42785(2) 0.2500
Zn3 Zn 0.5000 0.73569(2) 0.2500
H19 H 0.3589(16) 0.3415(7) 0.2480(16)
H20 H 1.111(2) 0.3492(5) 0.2571(18)
C1A C 0.16224(11) 0.53026(6) 0.26209(11)
C2A C 0.34166(11) 0.52470(6) 0.24249(11)
C3A C 0.34557(11) 0.63467(6) 0.23531(11)
C4A C 0.17156(12) 0.63874(7) 0.25978(12)
C11A C 0.64548(13) 0.37533(8) 0.14305(12)
H7A H 0.6686 0.3408 0.1220
H8A H 0.6973 0.4013 0.1478
C12A C 0.56596(12) 0.39591(6) 0.07617(12)
C13A C 0.57106(13) 0.39369(8) -0.01666(12)
H9A H 0.6241 0.3790 -0.0392
C14A C 0.49646(14) 0.41355(8) -0.07527(13)
H10A H 0.4987 0.4127 -0.1378
C15A C 0.41862(14) 0.43462(8) -0.03949(13)
H11A H 0.3673 0.4480 -0.0775
C16A C 0.41807(13) 0.43555(8) 0.05326(12)
H12A H 0.3653 0.4496 0.0771
C17A C 0.63913(12) 0.78521(7) 0.38641(12)
H13A H 0.6591 0.8214 0.4071
H14A H 0.6927 0.7608 0.3995
C18A C 0.56005(12) 0.76647(6) 0.43932(12)
C19A C 0.56531(14) 0.77178(7) 0.53298(12)
H15A H 0.6188 0.7870 0.5654
C20A C 0.49106(15) 0.75440(8) 0.57774(13)
H16A H 0.4936 0.7577 0.6405
C21A C 0.41205(14) 0.73172(8) 0.52742(13)
H17A H 0.3606 0.7199 0.5558
C22A C 0.41187(13) 0.72722(7) 0.43464(13)
H18A H 0.3594 0.7118 0.4010
N1A N 0.10440(10) 0.49778(6) 0.26477(10)
N2A N 0.39395(10) 0.48882(6) 0.24241(9)
N3A N 0.39875(10) 0.66931(6) 0.22907(10)
N4A N 0.12413(11) 0.67632(6) 0.26630(12)
N6A N 0.49091(10) 0.41692(5) 0.11096(9)
N7A N 0.48419(10) 0.74416(5) 0.39074(9)
O2A O 0.61320(10) 0.36810(5) 0.22944(9)
O3A O 0.61398(8) 0.78674(4) 0.29251(8)
Ni1A Ni 0.25551(2) 0.58146(2) 0.24946(2)
H19A H 0.6411(16) 0.3415(7) 0.2520(16)
C5A C 0.85249(13) 0.38409(7) 0.34795(12)
H1A H 0.8284 0.3485 0.3630
H2A H 0.8007 0.4101 0.3460
C6A C 0.92985(12) 0.40107(6) 0.42088(12)
C7A C 0.92311(14) 0.39329(8) 0.51292(13)
H3A H 0.8697 0.3770 0.5321
C8A C 0.99677(15) 0.41013(8) 0.57549(13)
H4A H 0.9937 0.4054 0.6374
C9A C 1.07506(15) 0.43416(8) 0.54456(13)
H5A H 1.1258 0.4455 0.5853
C10A C 1.07674(13) 0.44097(7) 0.45284(12)
H6A H 1.1294 0.4574 0.4323
N5A N 1.00538(10) 0.42478(5) 0.39133(10)
O1A O 0.88549(9) 0.38154(5) 0.26176(8)
H20A H 0.889(2) 0.3492(5) 0.2429(18)
N1A_2 N 1.10440(10) 0.49778(6) 0.26477(10)
Zn1_2 Zn 0.0000 0.43602(2) 0.2500
O4 O 0.28539(10) 0.28064(5) 0.21899(9)
H21 H 0.2341(12) 0.2786(9) 0.2423(14)
H22 H 0.3122(15) 0.2512(8) 0.2246(17)
loop_
_geom_bond_atom_site_label_1
_geom_bond_atom_site_label_2
_geom_bond_site_symmetry_1
_geom_bond_site_symmetry_2
C1 N1 1_555 1_555
C2 N2 1_555 1_555
C3 N3 1_555 1_555
C4 N4 1_555 1_555
C5 H1 1_555 1_555
H2 C5 1_555 1_555
C6 C5 1_555 1_555
C7 C6 1_555 1_555
H3 C7 1_555 1_555
C8 C7 1_555 1_555
H4 C8 1_555 1_555
C9 C8 1_555 1_555
H5 C9 1_555 1_555
C10 C9 1_555 1_555
H6 C10 1_555 1_555
C11 H7 1_555 1_555
H8 C11 1_555 1_555
C12 C11 1_555 1_555
C13 C12 1_555 1_555
H9 C13 1_555 1_555
C14 C13 1_555 1_555
H10 C14 1_555 1_555
C15 C14 1_555 1_555
H11 C15 1_555 1_555
C16 C15 1_555 1_555
H12 C16 1_555 1_555
C17 H13 1_555 1_555
H14 C17 1_555 1_555
C18 C17 1_555 1_555
C19 C18 1_555 1_555
H15 C19 1_555 1_555
C20 C19 1_555 1_555
H16 C20 1_555 1_555
C21 C20 1_555 1_555
H17 C21 1_555 1_555
C22 C21 1_555 1_555
H18 C22 1_555 1_555
N1 Zn1 1_555 1_555
N2 Zn2 1_555 1_555
N3 Zn3 1_555 1_555
N5 C6 1_555 1_555
N6 C12 1_555 1_555
N7 C18 1_555 1_555
O1 C5 1_555 1_555
O2 C11 1_555 1_555
O3 C17 1_555 1_555
Ni1 C1 1_555 1_555
Zn1 N5 1_555 1_555
Zn2 N6 1_555 1_555
Zn3 N7 1_555 1_555
H19 O2 1_555 1_555
H20 O1 1_555 1_555
O4 H21 1_555 1_555
H22 O4 1_555 1_555
C1A N1A 1_555 1_555
C2A N2A 1_555 1_555
C3A N3A 1_555 1_555
C4A N4A 1_555 1_555
C11A H7A 1_555 1_555
H8A C11A 1_555 1_555
C12A C11A 1_555 1_555
C13A C12A 1_555 1_555
H9A C13A 1_555 1_555
C14A C13A 1_555 1_555
H10A C14A 1_555 1_555
C15A C14A 1_555 1_555
H11A C15A 1_555 1_555
C16A C15A 1_555 1_555
H12A C16A 1_555 1_555
C17A H13A 1_555 1_555
H14A C17A 1_555 1_555
C18A C17A 1_555 1_555
C19A C18A 1_555 1_555
H15A C19A 1_555 1_555
C20A C19A 1_555 1_555
H16A C20A 1_555 1_555
C21A C20A 1_555 1_555
H17A C21A 1_555 1_555
C22A C21A 1_555 1_555
H18A C22A 1_555 1_555
N1A Zn1_2 1_555 1_555
N2A Zn2 1_555 1_555
N3A Zn3 1_555 1_555
N6A Zn2 1_555 1_555
N7A Zn3 1_555 1_555
O2A Zn2 1_555 1_555
O3A Zn3 1_555 1_555
Ni1A C1A 1_555 1_555
H19A O2A 1_555 1_555
C5A H1A 1_555 1_555
H2A C5A 1_555 1_555
C6A C5A 1_555 1_555
C7A C6A 1_555 1_555
H3A C7A 1_555 1_555
C8A C7A 1_555 1_555
H4A C8A 1_555 1_555
C9A C8A 1_555 1_555
H5A C9A 1_555 1_555
C10A C9A 1_555 1_555
H6A C10A 1_555 1_555
N5A Zn1 1_555 1_555
O1A Zn1 1_555 1_555
H20A O1A 1_555 1_555
N1A_2 Zn1 1_555 1_555
C2 Ni1 1_555 1_555
C3 Ni1 1_555 1_555
C4 Ni1 1_555 1_555
C10 N5 1_555 1_555
C16 N6 1_555 1_555
C22 N7 1_555 1_555
O1 Zn1 1_555 1_555
O2 Zn2 1_555 1_555
O3 Zn3 1_555 1_555
C2A Ni1A 1_555 1_555
C3A Ni1A 1_555 1_555
C4A Ni1A 1_555 1_555
C11A O2A 1_555 1_555
C12A N6A 1_555 1_555
C16A N6A 1_555 1_555
C17A O3A 1_555 1_555
C18A N7A 1_555 1_555
C22A N7A 1_555 1_555
C5A O1A 1_555 1_555
C6A N5A 1_555 1_555
C10A N5A 1_555 1_555

#END
