
#######################################################################
#
#                 Cambridge Crystallographic Data Centre
#                                CCDC 
#
#######################################################################
#
# If this CIF has been generated from an entry in the Cambridge 
# Structural Database, then it will include bibliographic, chemical, 
# crystal, experimental, refinement or atomic coordinate data resulting 
# from the CCDC's data processing and validation procedures.
#
#######################################################################

data_MOPTES
_symmetry_cell_setting           triclinic
_symmetry_space_group_name_H-M   'P -1'
_symmetry_Int_Tables_number      2
_space_group_name_Hall           '-P 1'
loop_
_symmetry_equiv_pos_site_id
_symmetry_equiv_pos_as_xyz
1 x,y,z
2 -x,-y,-z
_cell_length_a                   10.4203(11)
_cell_length_b                   11.5510(12)
_cell_length_c                   12.7432(15)
_cell_angle_alpha                68.925(8)
_cell_angle_beta                 81.452(9)
_cell_angle_gamma                70.173(8)
_cell_volume                     1345.77
loop_
_atom_site_label
_atom_site_type_symbol
_atom_site_fract_x
_atom_site_fract_y
_atom_site_fract_z
C1 C 0.3922(8) 0.8931(9) 0.5670(9)
C2 C 0.5826(11) 0.9030(11) 0.4080(11)
C3 C 0.3981(9) 0.5484(9) 0.8727(8)
C4 C 0.6225(11) 0.3598(11) 0.9627(9)
C5 C -0.0900(10) 0.8787(10) 0.5856(9)
H1 H -0.1345 0.8122 0.6040
H2 H -0.1515 0.9609 0.5412
C6 C -0.0578(8) 0.8907(8) 0.6925(8)
C7 C -0.1533(10) 0.9718(10) 0.7425(11)
H3 H -0.2375 1.0216 0.7103
C8 C -0.1220(12) 0.9785(11) 0.8423(12)
H4 H -0.1859 1.0311 0.8788
C9 C 0.0030(11) 0.9070(11) 0.8854(10)
H5 H 0.0279 0.9117 0.9506
C10 C 0.0925(10) 0.8273(9) 0.8302(9)
H6 H 0.1776 0.7777 0.8610
C11 C 0.1318(11) 0.4995(11) 0.6166(9)
H7 H 0.0488 0.5111 0.5828
H8 H 0.1676 0.4082 0.6614
C12 C 0.2344(8) 0.5356(8) 0.5253(7)
C13 C 0.2694(10) 0.4831(10) 0.4392(9)
H9 H 0.2318 0.4211 0.4384
C14 C 0.3587(11) 0.5221(12) 0.3559(10)
H10 H 0.3816 0.4876 0.2976
C15 C 0.4153(9) 0.6128(11) 0.3578(9)
H11 H 0.4772 0.6404 0.3019
C16 C 0.3772(9) 0.6610(9) 0.4454(9)
H12 H 0.4164 0.7211 0.4484
N1 N 0.3212(8) 0.8296(7) 0.6033(7)
N2 N 0.6335(12) 0.8426(11) 0.3486(12)
N3 N 0.3342(8) 0.5793(7) 0.7976(8)
N4 N 0.6964(10) 0.2714(10) 0.9399(10)
N5 N 0.0658(7) 0.8165(6) 0.7365(7)
N6 N 0.2862(6) 0.6266(6) 0.5275(6)
O1 O 0.0334(7) 0.8449(7) 0.5229(6)
O2 O 0.1007(6) 0.5764(6) 0.6871(6)
Ni1 Ni 0.5000 1.0000 0.5000
Ni2 Ni 0.5000 0.5000 1.0000
Cu1 Cu 0.20420(10) 0.70923(10) 0.64910(10)
H13 H 0.016(9) 0.819(9) 0.475(6)
H14 H 0.077(9) 0.530(7) 0.748(4)
C1A C 0.6078(8) 0.1069(9) 1.4330(9)
C3A C 0.6019(9) 0.4516(9) 1.1273(8)
C4A C 0.3775(11) 0.6402(11) 1.0373(9)
C5A C 1.0900(10) 0.1213(10) 1.4144(9)
H1A H 1.1345 0.1878 1.3960
H2A H 1.1515 0.0391 1.4588
C6A C 1.0578(8) 0.1093(8) 1.3075(8)
C7A C 1.1533(10) 0.0282(10) 1.2575(11)
H3A H 1.2375 -0.0216 1.2897
C8A C 1.1220(12) 0.0215(11) 1.1577(12)
H4A H 1.1859 -0.0311 1.1212
C9A C 0.9970(11) 0.0930(11) 1.1146(10)
H5A H 0.9721 0.0883 1.0494
C10A C 0.9075(10) 0.1727(9) 1.1698(9)
H6A H 0.8224 0.2223 1.1390
C11A C 0.8682(11) 0.5005(11) 1.3834(9)
H7A H 0.9512 0.4889 1.4172
H8A H 0.8324 0.5918 1.3386
C12A C 0.7656(8) 0.4644(8) 1.4747(7)
C13A C 0.7306(10) 0.5169(10) 1.5608(9)
H9A H 0.7682 0.5789 1.5616
C14A C 0.6413(11) 0.4779(12) 1.6441(10)
H10A H 0.6184 0.5124 1.7024
C15A C 0.5847(9) 0.3872(11) 1.6422(9)
H11A H 0.5228 0.3596 1.6981
C16A C 0.6228(9) 0.3390(9) 1.5546(9)
H12A H 0.5836 0.2789 1.5516
N1A N 0.6788(8) 0.1704(7) 1.3967(7)
N3A N 0.6658(8) 0.4207(7) 1.2024(8)
N4A N 0.3036(10) 0.7286(10) 1.0601(10)
N5A N 0.9342(7) 0.1835(6) 1.2635(7)
N6A N 0.7138(6) 0.3734(6) 1.4725(6)
O1A O 0.9666(7) 0.1551(7) 1.4771(6)
O2A O 0.8993(6) 0.4236(6) 1.3129(6)
Cu1A Cu 0.79580(10) 0.29077(10) 1.35090(10)
H13A H 0.984(9) 0.181(9) 1.525(6)
H14A H 0.923(9) 0.470(7) 1.252(4)
C2A C 0.4174(11) 1.0970(11) 0.5920(11)
N2A N 0.3665(12) 1.1574(11) 0.6514(12)
C1A_2 C 0.6078(8) 1.1069(9) 0.4330(9)
Ni1_2 Ni 0.5000 0.0000 1.5000
C17 C 0.1982(12) 0.3229(11) -0.0915(11)
H15 H 0.2654 0.3442 -0.1503
H16 H 0.1863 0.2426 -0.0902
C18 C 0.2483(11) 0.3033(10) 0.0196(11)
C19 C 0.3773(11) 0.2088(10) 0.0650(11)
H17 H 0.4330 0.1557 0.0252
C20 C 0.4149(12) 0.1988(11) 0.1637(12)
H18 H 0.4952 0.1356 0.1945
C21 C 0.3373(12) 0.2799(11) 0.2206(11)
H19 H 0.3663 0.2741 0.2884
C22 C 0.2162(10) 0.3701(11) 0.1775(10)
H20 H 0.1638 0.4260 0.2160
N7 N 0.1719(8) 0.3787(7) 0.0781(7)
O3 O 0.0718(6) 0.4251(6) -0.1158(6)
Cu2 Cu 0.0000 0.5000 0.0000
C17A C -0.1982(12) 0.6771(11) 0.0915(11)
H15A H -0.2654 0.6558 0.1503
H16A H -0.1863 0.7574 0.0902
C18A C -0.2483(11) 0.6967(10) -0.0196(11)
C19A C -0.3773(11) 0.7912(10) -0.0650(11)
H17A H -0.4330 0.8443 -0.0252
C20A C -0.4149(12) 0.8012(11) -0.1637(12)
H18A H -0.4952 0.8644 -0.1945
C21A C -0.3373(12) 0.7201(11) -0.2206(11)
H19A H -0.3663 0.7259 -0.2884
C22A C -0.2162(10) 0.6299(11) -0.1775(10)
H20A H -0.1638 0.5740 -0.2160
N7A N -0.1719(8) 0.6213(7) -0.0781(7)
O3A O -0.0718(6) 0.5749(6) 0.1158(6)
O4 O 0.9392(8) 0.7782(10) 0.3746(9)
O5 O 0.9416(8) 0.2951(9) 0.8057(8)
loop_
_geom_bond_atom_site_label_1
_geom_bond_atom_site_label_2
_geom_bond_site_symmetry_1
_geom_bond_site_symmetry_2
C1 N1 1_555 1_555
C2 N2 1_555 1_555
C3 N3 1_555 1_555
C4 N4 1_555 1_555
C5 H1 1_555 1_555
H2 C5 1_555 1_555
C6 C5 1_555 1_555
C7 C6 1_555 1_555
H3 C7 1_555 1_555
C8 C7 1_555 1_555
H4 C8 1_555 1_555
C9 C8 1_555 1_555
H5 C9 1_555 1_555
C10 C9 1_555 1_555
H6 C10 1_555 1_555
C11 H7 1_555 1_555
H8 C11 1_555 1_555
C12 C11 1_555 1_555
C13 C12 1_555 1_555
H9 C13 1_555 1_555
C14 C13 1_555 1_555
H10 C14 1_555 1_555
C15 C14 1_555 1_555
H11 C15 1_555 1_555
C16 C15 1_555 1_555
H12 C16 1_555 1_555
N1 Cu1 1_555 1_555
N3 Cu1 1_555 1_555
N5 C6 1_555 1_555
N6 C12 1_555 1_555
O1 C5 1_555 1_555
O2 C11 1_555 1_555
Ni1 C1 1_555 1_555
Ni2 C3 1_555 1_555
Cu1 N5 1_555 1_555
H13 O1 1_555 1_555
H14 O2 1_555 1_555
C17 H15 1_555 1_555
H16 C17 1_555 1_555
C18 C17 1_555 1_555
C19 C18 1_555 1_555
H17 C19 1_555 1_555
C20 C19 1_555 1_555
H18 C20 1_555 1_555
C21 C20 1_555 1_555
H19 C21 1_555 1_555
C22 C21 1_555 1_555
H20 C22 1_555 1_555
N7 C18 1_555 1_555
O3 C17 1_555 1_555
Cu2 N7 1_555 1_555
C1A N1A 1_555 1_555
C3A Ni2 1_555 1_555
C4A Ni2 1_555 1_555
C5A H1A 1_555 1_555
H2A C5A 1_555 1_555
C6A C5A 1_555 1_555
C7A C6A 1_555 1_555
H3A C7A 1_555 1_555
C8A C7A 1_555 1_555
H4A C8A 1_555 1_555
C9A C8A 1_555 1_555
H5A C9A 1_555 1_555
C10A C9A 1_555 1_555
H6A C10A 1_555 1_555
C11A H7A 1_555 1_555
H8A C11A 1_555 1_555
C12A C11A 1_555 1_555
C13A C12A 1_555 1_555
H9A C13A 1_555 1_555
C14A C13A 1_555 1_555
H10A C14A 1_555 1_555
C15A C14A 1_555 1_555
H11A C15A 1_555 1_555
C16A C15A 1_555 1_555
H12A C16A 1_555 1_555
N1A Cu1A 1_555 1_555
N3A C3A 1_555 1_555
N4A C4A 1_555 1_555
N5A C6A 1_555 1_555
N6A C12A 1_555 1_555
O1A C5A 1_555 1_555
O2A C11A 1_555 1_555
Cu1A N3A 1_555 1_555
H13A O1A 1_555 1_555
H14A O2A 1_555 1_555
C2A Ni1 1_555 1_555
N2A C2A 1_555 1_555
C1A_2 Ni1 1_555 1_555
Ni1_2 C1A 1_555 1_555
C17A H15A 1_555 1_555
H16A C17A 1_555 1_555
C18A C17A 1_555 1_555
C19A C18A 1_555 1_555
H17A C19A 1_555 1_555
C20A C19A 1_555 1_555
H18A C20A 1_555 1_555
C21A C20A 1_555 1_555
H19A C21A 1_555 1_555
C22A C21A 1_555 1_555
H20A C22A 1_555 1_555
N7A Cu2 1_555 1_555
O3A Cu2 1_555 1_555
C2 Ni1 1_555 1_555
C4 Ni2 1_555 1_555
C10 N5 1_555 1_555
C16 N6 1_555 1_555
N6 Cu1 1_555 1_555
O1 Cu1 1_555 1_555
O2 Cu1 1_555 1_555
C22 N7 1_555 1_555
O3 Cu2 1_555 1_555
C10A N5A 1_555 1_555
C16A N6A 1_555 1_555
N5A Cu1A 1_555 1_555
N6A Cu1A 1_555 1_555
O1A Cu1A 1_555 1_555
O2A Cu1A 1_555 1_555
C17A O3A 1_555 1_555
C18A N7A 1_555 1_555
C22A N7A 1_555 1_555

#END
