
#######################################################################
#
#                 Cambridge Crystallographic Data Centre
#                                CCDC 
#
#######################################################################
#
# If this CIF has been generated from an entry in the Cambridge 
# Structural Database, then it will include bibliographic, chemical, 
# crystal, experimental, refinement or atomic coordinate data resulting 
# from the CCDC's data processing and validation procedures.
#
#######################################################################

data_MOPTAN
_symmetry_cell_setting           monoclinic
_symmetry_space_group_name_H-M   'P 21/c'
_symmetry_Int_Tables_number      14
_space_group_name_Hall           '-P 2ybc'
loop_
_symmetry_equiv_pos_site_id
_symmetry_equiv_pos_as_xyz
1 x,y,z
2 -x,1/2+y,1/2-z
3 -x,-y,-z
4 x,1/2-y,1/2+z
_cell_length_a                   14.091(2)
_cell_length_b                   7.7577(12)
_cell_length_c                   23.456(4)
_cell_angle_alpha                90
_cell_angle_beta                 95.322(3)
_cell_angle_gamma                90
_cell_volume                     2553.01
loop_
_atom_site_label
_atom_site_type_symbol
_atom_site_fract_x
_atom_site_fract_y
_atom_site_fract_z
Mn1 Mn 0.51010(2) 0.93901(4) 0.779709(14)
C1 C 0.52571(14) 1.0709(3) 0.67492(9)
C2 C 0.51659(16) 1.1369(3) 0.61473(9)
C3 C 0.43287(17) 1.1025(3) 0.57882(10)
C4 C 0.35368(18) 1.0098(3) 0.59758(11)
H1 H 0.3558 0.9709 0.6352
C5 C 0.2753(2) 0.9783(4) 0.56073(14)
H2 H 0.2247 0.9162 0.5732
C6 C 0.2699(2) 1.0387(4) 0.50379(14)
H3 H 0.2160 1.0150 0.4791
C7 C 0.3417(2) 1.1301(4) 0.48489(13)
H4 H 0.3366 1.1699 0.4473
C8 C 0.42556(19) 1.1669(3) 0.52167(11)
C9 C 0.5003(2) 1.2606(3) 0.50254(12)
H5 H 0.4949 1.3017 0.4651
C10 C 0.5829(2) 1.2948(3) 0.53760(11)
C11 C 0.6598(3) 1.3898(4) 0.51759(14)
H6 H 0.6544 1.4329 0.4804
C12 C 0.7402(3) 1.4176(4) 0.55207(17)
H7 H 0.7896 1.4804 0.5385
C13 C 0.7505(2) 1.3533(4) 0.60816(14)
H8 H 0.8067 1.3739 0.6312
C14 C 0.67954(18) 1.2612(3) 0.62936(12)
H9 H 0.6880 1.2175 0.6664
C15 C 0.59257(17) 1.2314(3) 0.59509(10)
C16 C 0.72859(16) 0.9232(3) 0.81405(11)
C17 C 0.82315(15) 0.8331(3) 0.81056(10)
C18 C 0.88207(16) 0.7984(3) 0.86124(10)
C19 C 0.85936(19) 0.8490(4) 0.91691(12)
H10 H 0.8030 0.9083 0.9209
C20 C 0.9192(2) 0.8114(4) 0.96410(13)
H11 H 0.9040 0.8483 0.9998
C21 C 1.0037(2) 0.7178(4) 0.95997(13)
H12 H 1.0431 0.6913 0.9928
C22 C 1.02703(19) 0.6672(4) 0.90890(13)
H13 H 1.0828 0.6046 0.9066
C23 C 0.96886(17) 0.7063(3) 0.85752(11)
C24 C 0.99592(17) 0.6594(3) 0.80424(11)
H14 H 1.0527 0.5994 0.8024
C25 C 0.94136(16) 0.6989(3) 0.75357(11)
C26 C 0.9719(2) 0.6562(3) 0.69908(12)
H15 H 1.0290 0.5975 0.6971
C27 C 0.9187(2) 0.6999(4) 0.65000(13)
H16 H 0.9399 0.6733 0.6147
C28 C 0.8311(2) 0.7861(4) 0.65289(12)
H17 H 0.7948 0.8147 0.6191
C29 C 0.79820(18) 0.8283(3) 0.70361(11)
H18 H 0.7401 0.8849 0.7039
C30 C 0.85173(16) 0.7871(3) 0.75656(10)
O1 O 0.53522(10) 1.17680(17) 0.71670(6)
O3 O 0.52337(11) 0.91330(18) 0.68475(7)
O4 O 0.36614(12) 1.0289(2) 0.76343(9)
O5 O 0.54000(14) 1.0972(2) 0.85392(7)
O6 O 0.72787(12) 1.0691(2) 0.83695(9)
O7 O 0.65449(10) 0.84326(19) 0.79395(7)
H19 H 0.3188(15) 0.967(3) 0.7555(14)
H20 H 0.518(2) 1.196(2) 0.8519(14)
H21 H 0.356(2) 1.123(2) 0.7469(12)
H22 H 0.5984(8) 1.111(4) 0.8562(12)
Mn1A Mn 0.48990(2) 1.43901(4) 0.720291(14)
O1A O 0.46478(10) 0.67680(17) 0.78330(6)
O2 O 0.2066(2) 0.8389(4) 0.72929(17)
H23 H 0.216(3) 0.757(4) 0.7077(17)
H24 H 0.173(3) 0.891(6) 0.7041(18)
loop_
_geom_bond_atom_site_label_1
_geom_bond_atom_site_label_2
_geom_bond_site_symmetry_1
_geom_bond_site_symmetry_2
Mn1 O1 1_555 1_555
C1 C2 1_555 1_555
C2 C3 1_555 1_555
C3 C4 1_555 1_555
C4 H1 1_555 1_555
C5 C4 1_555 1_555
H2 C5 1_555 1_555
C6 C5 1_555 1_555
H3 C6 1_555 1_555
C7 C6 1_555 1_555
H4 C7 1_555 1_555
C8 C3 1_555 1_555
C9 C8 1_555 1_555
H5 C9 1_555 1_555
C10 C9 1_555 1_555
C11 C10 1_555 1_555
H6 C11 1_555 1_555
C12 C11 1_555 1_555
H7 C12 1_555 1_555
C13 C12 1_555 1_555
H8 C13 1_555 1_555
C14 C13 1_555 1_555
H9 C14 1_555 1_555
C15 C2 1_555 1_555
C16 C17 1_555 1_555
C17 C18 1_555 1_555
C18 C19 1_555 1_555
C19 H10 1_555 1_555
C20 C19 1_555 1_555
H11 C20 1_555 1_555
C21 C20 1_555 1_555
H12 C21 1_555 1_555
C22 C21 1_555 1_555
H13 C22 1_555 1_555
C23 C18 1_555 1_555
C24 C23 1_555 1_555
H14 C24 1_555 1_555
C25 C24 1_555 1_555
C26 C25 1_555 1_555
H15 C26 1_555 1_555
C27 C26 1_555 1_555
H16 C27 1_555 1_555
C28 C27 1_555 1_555
H17 C28 1_555 1_555
C29 C28 1_555 1_555
H18 C29 1_555 1_555
C30 C17 1_555 1_555
O1 C1 1_555 1_555
O2 H23 1_555 1_555
O3 Mn1 1_555 1_555
O4 Mn1 1_555 1_555
O5 Mn1 1_555 1_555
O6 C16 1_555 1_555
O7 Mn1 1_555 1_555
H19 O4 1_555 1_555
H20 O5 1_555 1_555
H21 O4 1_555 1_555
H22 O5 1_555 1_555
H24 O2 1_555 1_555
Mn1A O1 1_555 1_555
O1A Mn1 1_555 1_555
C1 O3 1_555 1_555
C7 C8 1_555 1_555
C10 C15 1_555 1_555
C14 C15 1_555 1_555
C16 O7 1_555 1_555
C22 C23 1_555 1_555
C25 C30 1_555 1_555
C29 C30 1_555 1_555

#END
