
#######################################################################
#
#                 Cambridge Crystallographic Data Centre
#                                CCDC 
#
#######################################################################
#
# If this CIF has been generated from an entry in the Cambridge 
# Structural Database, then it will include bibliographic, chemical, 
# crystal, experimental, refinement or atomic coordinate data resulting 
# from the CCDC's data processing and validation procedures.
#
#######################################################################

data_MOPWET02
_symmetry_cell_setting           triclinic
_symmetry_space_group_name_H-M   'P -1'
_symmetry_Int_Tables_number      2
_space_group_name_Hall           '-P 1'
loop_
_symmetry_equiv_pos_site_id
_symmetry_equiv_pos_as_xyz
1 x,y,z
2 -x,-y,-z
_cell_length_a                   8.0850(7)
_cell_length_b                   8.1420(7)
_cell_length_c                   13.6800(12)
_cell_angle_alpha                81.0400(10)
_cell_angle_beta                 87.130(2)
_cell_angle_gamma                77.910(2)
_cell_volume                     869.667
loop_
_atom_site_label
_atom_site_type_symbol
_atom_site_fract_x
_atom_site_fract_y
_atom_site_fract_z
Mn1 Mn 0.33484(10) 0.26646(9) 0.27469(5)
C1 C -0.0371(7) 0.4178(6) 0.3289(4)
C2 C -0.1578(7) 0.5507(7) 0.3727(4)
H1 H -0.1187 0.6446 0.3857
C3 C -0.3173(7) 0.5447(7) 0.3946(4)
H2 H -0.3826 0.6394 0.4179
C4 C -0.4053(7) 0.4036(6) 0.3862(4)
C5 C 0.6768(8) -0.0064(8) 0.2358(4)
H3 H 0.6745 -0.0348 0.3043
C6 C 0.8084(8) -0.0923(8) 0.1834(5)
H4 H 0.8933 -0.1745 0.2161
C7 C 0.8114(8) -0.0537(7) 0.0816(5)
H5 H 0.8979 -0.1120 0.0449
C8 C 0.6857(7) 0.0720(7) 0.0335(4)
C9 C 0.6818(9) 0.1207(7) -0.0725(4)
H6 H 0.7639 0.0634 -0.1121
C10 C 0.5610(8) 0.2475(7) -0.1146(4)
H7 H 0.5607 0.2777 -0.1830
C11 C 0.4333(8) 0.3363(7) -0.0555(4)
C12 C 0.3077(8) 0.4726(7) -0.0968(4)
H8 H 0.3044 0.5071 -0.1649
C13 C 0.1904(8) 0.5538(7) -0.0357(4)
H9 H 0.1065 0.6447 -0.0615
C14 C 0.1986(8) 0.4976(7) 0.0676(4)
H10 H 0.1179 0.5534 0.1086
C15 C 0.5601(7) 0.1547(6) 0.0932(4)
C16 C 0.4297(7) 0.2903(6) 0.0486(4)
N1 N 0.5536(6) 0.1140(5) 0.1943(3)
N2 N 0.3140(6) 0.3710(5) 0.1083(3)
O1 O 0.1127(5) 0.4437(5) 0.3110(3)
O2 O -0.0875(5) 0.2918(5) 0.3102(3)
O3 O -0.3865(5) 0.2825(5) 0.4551(3)
O4 O -0.5012(5) 0.4237(4) 0.3142(3)
O5 O 0.3867(6) 0.1086(6) 0.4159(3)
O6 O 0.1753(5) 0.0802(5) 0.2524(3)
H15 H 0.085(5) 0.148(6) 0.265(5)
H16 H 0.454(6) 0.156(8) 0.442(4)
H17 H 0.185(8) -0.013(4) 0.291(4)
H18 H 0.298(5) 0.108(9) 0.452(4)
Mn1_2 Mn -0.66516(10) 0.26646(9) 0.27469(5)
O4_2 O 0.4988(5) 0.4237(4) 0.3142(3)
O7 O 0.1865(6) 0.7622(5) 0.3776(3)
H12 H 0.256(7) 0.742(6) 0.425(4)
H14 H 0.178(8) 0.669(4) 0.359(4)
O8 O 0.1423(6) 0.0396(6) 0.5557(3)
H11 H 0.046(4) 0.105(6) 0.560(5)
H13 H 0.135(7) -0.063(3) 0.576(5)
loop_
_geom_bond_atom_site_label_1
_geom_bond_atom_site_label_2
_geom_bond_site_symmetry_1
_geom_bond_site_symmetry_2
Mn1 N1 1_555 1_555
C1 C2 1_555 1_555
C2 H1 1_555 1_555
C3 C2 1_555 1_555
H2 C3 1_555 1_555
C4 C3 1_555 1_555
C5 H3 1_555 1_555
C6 C5 1_555 1_555
H4 C6 1_555 1_555
C7 C6 1_555 1_555
H5 C7 1_555 1_555
C8 C7 1_555 1_555
C9 C8 1_555 1_555
H6 C9 1_555 1_555
C10 C9 1_555 1_555
H7 C10 1_555 1_555
C11 C10 1_555 1_555
C12 C11 1_555 1_555
H8 C12 1_555 1_555
C13 C12 1_555 1_555
H9 C13 1_555 1_555
C14 C13 1_555 1_555
H10 C14 1_555 1_555
C15 C8 1_555 1_555
C16 C11 1_555 1_555
N1 C5 1_555 1_555
N2 Mn1 1_555 1_555
O1 Mn1 1_555 1_555
O2 C1 1_555 1_555
O3 C4 1_555 1_555
O4 C4 1_555 1_555
O5 Mn1 1_555 1_555
O6 Mn1 1_555 1_555
O7 H12 1_555 1_555
O8 H11 1_555 1_555
H13 O8 1_555 1_555
H14 O7 1_555 1_555
H15 O6 1_555 1_555
H16 O5 1_555 1_555
H17 O6 1_555 1_555
H18 O5 1_555 1_555
Mn1_2 O4 1_555 1_555
O4_2 Mn1 1_555 1_555
C1 O1 1_555 1_555
C14 N2 1_555 1_555
C15 C16 1_555 1_555
C15 N1 1_555 1_555
C16 N2 1_555 1_555

#END
