
#######################################################################
#
#                 Cambridge Crystallographic Data Centre
#                                CCDC 
#
#######################################################################
#
# If this CIF has been generated from an entry in the Cambridge 
# Structural Database, then it will include bibliographic, chemical, 
# crystal, experimental, refinement or atomic coordinate data resulting 
# from the CCDC's data processing and validation procedures.
#
#######################################################################

data_MOQBAW
_symmetry_cell_setting           triclinic
_symmetry_space_group_name_H-M   'P -1'
_symmetry_Int_Tables_number      2
_space_group_name_Hall           '-P 1'
loop_
_symmetry_equiv_pos_site_id
_symmetry_equiv_pos_as_xyz
1 x,y,z
2 -x,-y,-z
_cell_length_a                   7.763(3)
_cell_length_b                   8.931(3)
_cell_length_c                   12.717(4)
_cell_angle_alpha                67.952(7)
_cell_angle_beta                 82.638(14)
_cell_angle_gamma                84.101(13)
_cell_volume                     809.037
loop_
_atom_site_label
_atom_site_type_symbol
_atom_site_fract_x
_atom_site_fract_y
_atom_site_fract_z
Mn1 Mn 0.19908(3) 0.34788(3) 0.35960(2)
N1 N -0.37351(17) 0.54841(16) 0.54649(11)
N2 N 0.13896(18) 0.27769(17) 0.21703(11)
N3 N 0.26550(18) 0.55981(17) 0.19624(11)
O1 O -0.04676(14) 0.43160(14) 0.41547(9)
O2 O -0.11979(15) 0.24700(15) 0.59070(10)
O3 O -0.45620(14) 0.76617(14) 0.64826(10)
O4 O -0.72072(15) 0.81577(15) 0.58710(11)
C1 C -0.1505(2) 0.36307(19) 0.50195(13)
C2 C -0.3352(2) 0.43628(19) 0.49881(12)
C3 C -0.5372(2) 0.61276(19) 0.54746(13)
C4 C -0.5763(2) 0.74342(19) 0.59819(13)
C5 C 0.0734(2) 0.1406(2) 0.22793(15)
H1 H 0.0361 0.0686 0.3023
C6 C 0.0564(2) 0.0969(2) 0.13479(16)
H2 H 0.0085 -0.0024 0.1463
C7 C 0.1096(2) 0.1989(2) 0.02747(16)
H3 H 0.1007 0.1704 -0.0364
C8 C 0.1777(2) 0.3467(2) 0.01210(14)
C9 C 0.2324(2) 0.4626(2) -0.09781(14)
H4 H 0.2242 0.4400 -0.1642
C10 C 0.2957(2) 0.6037(2) -0.10808(14)
H5 H 0.3308 0.6790 -0.1817
C11 C 0.3104(2) 0.6408(2) -0.00959(14)
C12 C 0.3744(2) 0.7872(2) -0.01723(14)
H6 H 0.4115 0.8653 -0.0893
C13 C 0.3822(2) 0.8148(2) 0.08098(15)
H7 H 0.4253 0.9123 0.0778
C14 C 0.3264(2) 0.6987(2) 0.18531(14)
H8 H 0.3322 0.7203 0.2524
C15 C 0.2577(2) 0.5306(2) 0.09909(13)
C16 C 0.1903(2) 0.3803(2) 0.11027(13)
O5 O 0.1519(2) 0.12409(18) 0.49682(14)
H9 H 0.077(4) 0.145(4) 0.542(2)
H10 H 0.192(4) 0.033(4) 0.528(2)
Mn1A Mn -1.19908(3) 0.65212(3) 0.64040(2)
Mn1_2 Mn -0.80092(3) 0.34788(3) 0.35960(2)
Mn1A_2 Mn -0.19908(3) 0.65212(3) 0.64040(2)
N1A N -0.62649(17) 0.45159(16) 0.45351(11)
N1_2 N -1.37351(17) 0.54841(16) 0.54649(11)
N1A_2 N 0.37351(17) 0.45159(16) 0.45351(11)
N2A N -1.13896(18) 0.72231(17) 0.78297(11)
N3A N -1.26550(18) 0.44019(17) 0.80376(11)
O1A O -0.95324(14) 0.56840(14) 0.58453(9)
O2A O -0.88021(15) 0.75300(15) 0.40930(10)
O3A O -0.54380(14) 0.23383(14) 0.35174(10)
O3_2 O -1.45620(14) 0.76617(14) 0.64826(10)
O3A_2 O 0.45620(14) 0.23383(14) 0.35174(10)
O4A O -0.27928(15) 0.18423(15) 0.41290(11)
C1A C -0.8495(2) 0.63693(19) 0.49805(13)
C2A C -0.6648(2) 0.56372(19) 0.50119(12)
C3A C -0.4628(2) 0.38724(19) 0.45254(13)
C4A C -0.4237(2) 0.25658(19) 0.40181(13)
C5A C -1.0734(2) 0.8594(2) 0.77207(15)
H1A H -1.0361 0.9314 0.6977
C6A C -1.0564(2) 0.9031(2) 0.86521(16)
H2A H -1.0085 1.0024 0.8537
C7A C -1.1096(2) 0.8011(2) 0.97253(16)
H3A H -1.1007 0.8296 1.0364
C8A C -1.1777(2) 0.6533(2) 0.98790(14)
C9A C -1.2324(2) 0.5374(2) 1.09781(14)
H4A H -1.2242 0.5600 1.1642
C10A C -1.2957(2) 0.3963(2) 1.10808(14)
H5A H -1.3308 0.3210 1.1817
C11A C -1.3104(2) 0.3592(2) 1.00959(14)
C12A C -1.3744(2) 0.2128(2) 1.01723(14)
H6A H -1.4115 0.1347 1.0893
C13A C -1.3822(2) 0.1852(2) 0.91902(15)
H7A H -1.4253 0.0877 0.9222
C14A C -1.3264(2) 0.3013(2) 0.81469(14)
H8A H -1.3322 0.2797 0.7476
C15A C -1.2577(2) 0.4694(2) 0.90091(13)
C16A C -1.1903(2) 0.6197(2) 0.88973(13)
O5A O -1.1519(2) 0.87591(18) 0.50318(14)
H9A H -1.077(4) 0.855(4) 0.458(2)
H10A H -1.192(4) 0.967(4) 0.472(2)
O6 O 0.2150(2) 0.2235(2) 0.74631(12)
H11 H 0.307(3) 0.187(3) 0.713(2)
H12 H 0.150(3) 0.281(3) 0.690(2)
O7 O 0.46351(19) 0.94106(18) 0.31069(12)
H13 H 0.468(3) 1.023(3) 0.328(2)
H14 H 0.376(3) 0.901(3) 0.343(2)
loop_
_geom_bond_atom_site_label_1
_geom_bond_atom_site_label_2
_geom_bond_site_symmetry_1
_geom_bond_site_symmetry_2
Mn1 N2 1_555 1_555
N1 C2 1_555 1_555
N2 C5 1_555 1_555
N3 Mn1 1_555 1_555
O1 Mn1 1_555 1_555
O2 C1 1_555 1_555
O3 C4 1_555 1_555
O4 C4 1_555 1_555
C1 O1 1_555 1_555
C2 C1 1_555 1_555
C3 N1 1_555 1_555
C4 C3 1_555 1_555
C5 H1 1_555 1_555
C6 C5 1_555 1_555
H2 C6 1_555 1_555
C7 C6 1_555 1_555
H3 C7 1_555 1_555
C8 C7 1_555 1_555
C9 C8 1_555 1_555
H4 C9 1_555 1_555
C10 C9 1_555 1_555
H5 C10 1_555 1_555
C11 C10 1_555 1_555
C12 C11 1_555 1_555
H6 C12 1_555 1_555
C13 C12 1_555 1_555
H7 C13 1_555 1_555
C14 N3 1_555 1_555
H8 C14 1_555 1_555
C15 N3 1_555 1_555
C16 N2 1_555 1_555
O5 Mn1 1_555 1_555
H9 O5 1_555 1_555
H10 O5 1_555 1_555
O6 H11 1_555 1_555
H12 O6 1_555 1_555
O7 H13 1_555 1_555
H14 O7 1_555 1_555
Mn1A N1_2 1_555 1_555
Mn1_2 N1A 1_555 1_555
Mn1A_2 N1 1_555 1_555
N1A C2A 1_555 1_555
N1A_2 Mn1 1_555 1_555
N2A Mn1A 1_555 1_555
N3A Mn1A 1_555 1_555
O1A Mn1A 1_555 1_555
O2A C1A 1_555 1_555
O3A Mn1_2 1_555 1_555
O3_2 Mn1A 1_555 1_555
O3A_2 Mn1 1_555 1_555
O4A C4A 1_555 1_555
C1A O1A 1_555 1_555
C2A C3 1_555 1_555
C3A C2 1_555 1_555
C4A O3A 1_555 1_555
C5A N2A 1_555 1_555
H1A C5A 1_555 1_555
C6A C5A 1_555 1_555
H2A C6A 1_555 1_555
C7A C6A 1_555 1_555
H3A C7A 1_555 1_555
C8A C7A 1_555 1_555
C9A C8A 1_555 1_555
H4A C9A 1_555 1_555
C10A C9A 1_555 1_555
H5A C10A 1_555 1_555
C11A C10A 1_555 1_555
C12A C11A 1_555 1_555
H6A C12A 1_555 1_555
C13A C12A 1_555 1_555
H7A C13A 1_555 1_555
C14A N3A 1_555 1_555
H8A C14A 1_555 1_555
C15A N3A 1_555 1_555
C16A N2A 1_555 1_555
O5A Mn1A 1_555 1_555
H9A O5A 1_555 1_555
H10A O5A 1_555 1_555
O3 Mn1A_2 1_555 1_555
C8 C16 1_555 1_555
C11 C15 1_555 1_555
C13 C14 1_555 1_555
C15 C16 1_555 1_555
N1A C3A 1_555 1_555
C1A C2A 1_555 1_555
C3A C4A 1_555 1_555
C8A C16A 1_555 1_555
C11A C15A 1_555 1_555
C13A C14A 1_555 1_555
C15A C16A 1_555 1_555

#END
