
#######################################################################
#
#                 Cambridge Crystallographic Data Centre
#                                CCDC 
#
#######################################################################
#
# If this CIF has been generated from an entry in the Cambridge 
# Structural Database, then it will include bibliographic, chemical, 
# crystal, experimental, refinement or atomic coordinate data resulting 
# from the CCDC's data processing and validation procedures.
#
#######################################################################

data_MORAGI10
_symmetry_cell_setting           monoclinic
_symmetry_space_group_name_H-M   'C 2'
_symmetry_Int_Tables_number      5
_space_group_name_Hall           'C 2y'
loop_
_symmetry_equiv_pos_site_id
_symmetry_equiv_pos_as_xyz
1 x,y,z
2 1/2+x,1/2+y,z
3 -x,y,-z
4 1/2-x,1/2+y,-z
_cell_length_a                   18.14(3)
_cell_length_b                   4.528(10)
_cell_length_c                   9.180(20)
_cell_angle_alpha                90
_cell_angle_beta                 95.9(1)
_cell_angle_gamma                90
_cell_volume                     750.032
loop_
_atom_site_label
_atom_site_type_symbol
_atom_site_fract_x
_atom_site_fract_y
_atom_site_fract_z
Ag1 Ag 0.23950 0.49750 0.12730
C1 C 0.08590 0.15090 0.16070
C2 C 0.02880 0.05980 0.24780
C3 C 0.10070 0.03750 0.46310
C4 C 0.16370 0.17060 0.39120
H1 H 0.06820 0.27630 0.06410
H2 H 0.11630 -0.02580 0.12010
H3 H -0.01490 -0.03190 0.18160
H4 H 0.00850 0.26100 0.29460
H5 H 0.06910 0.21890 0.49870
H6 H 0.11980 -0.08570 0.55650
H7 H 0.20500 -0.00430 0.36540
H8 H 0.20100 0.31240 0.46570
H9 H 0.11100 0.51780 0.28970
I1 I 0.33330 0.00000 0.17000
N1 N 0.14140 0.32960 0.25880
O1 O 0.05630 -0.12980 0.36470
Ag1C Ag 0.26050 -0.00250 -0.12730
I1_2 I 0.33330 1.00000 0.17000
I1C I 0.16670 0.50000 -0.17000
Ag1_2 Ag 0.23950 -0.50250 0.12730
loop_
_geom_bond_atom_site_label_1
_geom_bond_atom_site_label_2
_geom_bond_site_symmetry_1
_geom_bond_site_symmetry_2
Ag1 I1 1_555 1_555
C1 C2 1_555 1_555
C2 H3 1_555 1_555
C3 C4 1_555 1_555
C4 H7 1_555 1_555
H1 C1 1_555 1_555
H2 C1 1_555 1_555
H4 C2 1_555 1_555
H5 C3 1_555 1_555
H6 C3 1_555 1_555
H8 C4 1_555 1_555
H9 N1 1_555 1_555
I1 Ag1C 1_555 1_555
N1 Ag1 1_555 1_555
O1 C2 1_555 1_555
Ag1C I1C 1_555 1_555
I1_2 Ag1 1_555 1_555
I1C Ag1 1_555 1_555
Ag1_2 I1 1_555 1_555
C1 N1 1_555 1_555
C3 O1 1_555 1_555
C4 N1 1_555 1_555

#END
