
#######################################################################
#
#                 Cambridge Crystallographic Data Centre
#                                CCDC 
#
#######################################################################
#
# If this CIF has been generated from an entry in the Cambridge 
# Structural Database, then it will include bibliographic, chemical, 
# crystal, experimental, refinement or atomic coordinate data resulting 
# from the CCDC's data processing and validation procedures.
#
#######################################################################

data_MORCUS
_symmetry_cell_setting           orthorhombic
_symmetry_space_group_name_H-M   'P 21 21 21'
_symmetry_Int_Tables_number      19
_space_group_name_Hall           'P 2ac 2ab'
loop_
_symmetry_equiv_pos_site_id
_symmetry_equiv_pos_as_xyz
1 x,y,z
2 1/2-x,-y,1/2+z
3 -x,1/2+y,1/2-z
4 1/2+x,1/2-y,-z
_cell_length_a                   11.24920(10)
_cell_length_b                   12.9812(2)
_cell_length_c                   16.7710(2)
_cell_angle_alpha                90
_cell_angle_beta                 90
_cell_angle_gamma                90
_cell_volume                     2449.04
loop_
_atom_site_label
_atom_site_type_symbol
_atom_site_fract_x
_atom_site_fract_y
_atom_site_fract_z
Cd1 Cd -0.007633(12) 0.232644(11) 0.117776(9)
O1 O 0.09169(13) 0.34168(12) 0.01920(9)
O3 O 0.12447(15) 0.37007(13) 0.14694(11)
O5 O 0.38597(14) 0.35145(12) -0.01227(10)
O6 O 0.35600(14) 0.40685(13) -0.13486(10)
O7 O 0.01315(16) 0.21385(16) 0.25725(10)
H5 H 0.070(2) 0.234(2) 0.2838(17)
N1 N 0.14687(16) 0.11346(15) 0.10249(12)
N2 N 0.42195(16) -0.19610(15) 0.07246(11)
N3 N 0.55316(17) -0.34775(15) 0.16207(11)
N4 N 0.83332(17) -0.65418(15) 0.14115(11)
C1 C 0.1259(2) 0.01163(17) 0.10087(14)
H6 H 0.0493 -0.0121 0.1160
C2 C 0.2093(2) -0.05990(18) 0.07855(13)
H7 H 0.1902 -0.1312 0.0784
C3 C 0.3221(2) -0.02682(18) 0.05618(13)
C4 C 0.3453(2) 0.07689(18) 0.06064(14)
H8 H 0.4224 0.1022 0.0482
C5 C 0.25669(19) 0.14451(18) 0.08321(14)
H9 H 0.2744 0.2160 0.0851
C6 C 0.4137(2) -0.10203(19) 0.02494(15)
H10 H 0.3931 -0.1206 -0.0306
H11 H 0.4924 -0.0679 0.0241
C7 C 0.4673(2) -0.17437(17) 0.15263(14)
H12 H 0.4141 -0.1248 0.1798
H13 H 0.5473 -0.1429 0.1488
C8 C 0.4744(2) -0.27293(19) 0.20077(13)
H14 H 0.5047 -0.2573 0.2549
H15 H 0.3939 -0.3029 0.2063
C9 C 0.5091(2) -0.36795(15) 0.08174(12)
H16 H 0.4294 -0.4000 0.0850
H17 H 0.5629 -0.4170 0.0546
C10 C 0.5014(2) -0.26928(16) 0.03331(13)
H18 H 0.5815 -0.2386 0.0279
H19 H 0.4712 -0.2850 -0.0208
C11 C 0.5533(2) -0.44478(18) 0.20835(14)
H20 H 0.4752 -0.4792 0.2022
H21 H 0.5643 -0.4287 0.2656
C12 C 0.8546(2) -0.56960(18) 0.18471(14)
H22 H 0.9337 -0.5568 0.2020
C13 C 0.7671(2) -0.50020(19) 0.20562(15)
H23 H 0.7864 -0.4410 0.2362
C14 C 0.6502(2) -0.51738(18) 0.18164(13)
C15 C 0.6286(2) -0.60370(17) 0.13540(14)
H24 H 0.5506 -0.6176 0.1164
C16 C 0.72137(19) -0.66977(16) 0.11697(14)
H25 H 0.7047 -0.7290 0.0857
C17 C 0.14015(19) 0.39207(17) 0.07436(15)
C18 C 0.2190(2) 0.48312(17) 0.05599(14)
H26 H 0.2925 0.4771 0.0881
H27 H 0.1776 0.5467 0.0731
C19 C 0.2536(2) 0.49445(18) -0.03118(14)
H28 H 0.1805 0.4936 -0.0640
H29 H 0.2923 0.5622 -0.0387
C20 C 0.3367(2) 0.41095(17) -0.06088(15)
C21 C -0.0732(2) 0.1774(3) 0.30957(16)
H30 H -0.1521 0.1872 0.2860
H31 H -0.0683 0.2155 0.3599
H32 H -0.0599 0.1040 0.3196
Cd1_2 Cd 0.992367(12) -0.767356(11) 0.117776(9)
Cd1C Cd 0.492367(12) 0.267356(11) -0.117776(9)
O5C O -0.11403(14) 0.14855(12) 0.01227(10)
O6C O -0.14400(14) 0.09315(13) 0.13486(10)
N4_2 N -0.16668(17) 0.34582(15) 0.14115(11)
O2 O 0.21039(16) 0.25593(15) 0.34304(12)
H1 H 0.224(2) 0.3137(14) 0.3261(16)
H2 H 0.2712(18) 0.2218(19) 0.3377(16)
O4 O 0.25733(18) 0.44340(15) 0.27268(11)
H3 H 0.219(2) 0.4959(17) 0.2897(16)
H4 H 0.220(2) 0.430(2) 0.2289(11)
loop_
_geom_bond_atom_site_label_1
_geom_bond_atom_site_label_2
_geom_bond_site_symmetry_1
_geom_bond_site_symmetry_2
Cd1 O1 1_555 1_555
O1 C17 1_555 1_555
O2 H1 1_555 1_555
H2 O2 1_555 1_555
O3 Cd1 1_555 1_555
O4 H3 1_555 1_555
H4 O4 1_555 1_555
O5 C20 1_555 1_555
O6 C20 1_555 1_555
O7 Cd1 1_555 1_555
H5 O7 1_555 1_555
N1 Cd1 1_555 1_555
N2 C6 1_555 1_555
N3 C8 1_555 1_555
N4 C12 1_555 1_555
C1 N1 1_555 1_555
H6 C1 1_555 1_555
C2 C1 1_555 1_555
H7 C2 1_555 1_555
C3 C2 1_555 1_555
C4 C3 1_555 1_555
H8 C4 1_555 1_555
C5 N1 1_555 1_555
H9 C5 1_555 1_555
C6 C3 1_555 1_555
H10 C6 1_555 1_555
H11 C6 1_555 1_555
C7 N2 1_555 1_555
H12 C7 1_555 1_555
H13 C7 1_555 1_555
C8 C7 1_555 1_555
H14 C8 1_555 1_555
H15 C8 1_555 1_555
C9 N3 1_555 1_555
H16 C9 1_555 1_555
H17 C9 1_555 1_555
C10 N2 1_555 1_555
H18 C10 1_555 1_555
H19 C10 1_555 1_555
C11 N3 1_555 1_555
H20 C11 1_555 1_555
H21 C11 1_555 1_555
C12 H22 1_555 1_555
C13 C12 1_555 1_555
H23 C13 1_555 1_555
C14 C11 1_555 1_555
C15 C14 1_555 1_555
H24 C15 1_555 1_555
C16 N4 1_555 1_555
H25 C16 1_555 1_555
C17 O3 1_555 1_555
C18 C17 1_555 1_555
H26 C18 1_555 1_555
H27 C18 1_555 1_555
C19 C18 1_555 1_555
H28 C19 1_555 1_555
H29 C19 1_555 1_555
C20 C19 1_555 1_555
C21 O7 1_555 1_555
H30 C21 1_555 1_555
H31 C21 1_555 1_555
H32 C21 1_555 1_555
Cd1_2 N4 1_555 1_555
Cd1C O5 1_555 1_555
O5C Cd1 1_555 1_555
O6C Cd1 1_555 1_555
N4_2 Cd1 1_555 1_555
O6 Cd1C 1_555 1_555
C4 C5 1_555 1_555
C9 C10 1_555 1_555
C13 C14 1_555 1_555
C15 C16 1_555 1_555

#END
