
#######################################################################
#
#                 Cambridge Crystallographic Data Centre
#                                CCDC 
#
#######################################################################
#
# If this CIF has been generated from an entry in the Cambridge 
# Structural Database, then it will include bibliographic, chemical, 
# crystal, experimental, refinement or atomic coordinate data resulting 
# from the CCDC's data processing and validation procedures.
#
#######################################################################

data_MORGUW
_symmetry_cell_setting           orthorhombic
_symmetry_space_group_name_H-M   'C m c 21'
_symmetry_Int_Tables_number      36
_space_group_name_Hall           'C 2n -2'
loop_
_symmetry_equiv_pos_site_id
_symmetry_equiv_pos_as_xyz
1 x,y,z
2 -x,-y,1/2+z
3 x,-y,1/2+z
4 -x,y,z
5 1/2+x,1/2+y,z
6 1/2-x,1/2-y,1/2+z
7 1/2+x,1/2-y,1/2+z
8 1/2-x,1/2+y,z
_cell_length_a                   18.1044(1)
_cell_length_b                   12.8473(1)
_cell_length_c                   11.0620(2)
_cell_angle_alpha                90
_cell_angle_beta                 90
_cell_angle_gamma                90
_cell_volume                     2572.94
loop_
_atom_site_label
_atom_site_type_symbol
_atom_site_fract_x
_atom_site_fract_y
_atom_site_fract_z
Cu1 Cu 0.08499(4) 0.14404(5) 0.88036(9)
O1 O 0.3566(3) 0.5102(5) 1.0586(5)
O2 O 0.3399(2) 0.5376(3) 0.8625(5)
O3 O 0.0833(3) 0.1612(5) 0.6697(6)
N1 N 0.0000 0.0461(5) 0.8727(14)
N2 N 0.0000 -0.0443(7) 0.8502(11)
N3 N 0.0000 -0.1290(10) 0.8277(14)
N4 N 0.0000 0.2432(6) 0.8949(11)
N5 N 0.0000 0.3376(6) 0.8960(11)
N6 N 0.0000 0.4245(8) 0.8974(14)
N7 N 0.1624(3) 0.2506(5) 0.9220(6)
C1 C 0.2139(4) 0.2687(6) 0.8407(7)
H1 H 0.2151 0.2261 0.7705
C2 C 0.2669(4) 0.3471(6) 0.8520(6)
H2 H 0.3024 0.3579 0.7901
C3 C 0.2670(4) 0.4072(6) 0.9519(7)
C4 C 0.2137(4) 0.3904(6) 1.0453(7)
C5 C 0.2081(4) 0.4505(6) 1.1539(8)
H3 H 0.2411 0.5068 1.1677
C6 C 0.1556(5) 0.4269(7) 1.2374(8)
H4 H 0.1525 0.4663 1.3099
C7 C 0.1051(5) 0.3438(6) 1.2172(7)
H5 H 0.0674 0.3309 1.2751
C8 C 0.1091(4) 0.2834(6) 1.1194(7)
H6 H 0.0776 0.2246 1.1114
C9 C 0.1609(4) 0.3078(5) 1.0276(6)
C10 C 0.3262(4) 0.4926(6) 0.9610(8)
Cu1G Cu 0.41501(4) -0.35596(5) 0.88036(9)
Cu1G_2 Cu 0.41501(4) 0.64404(5) 0.88036(9)
Cu1C Cu -0.08499(4) 0.14404(5) 0.88036(9)
O1G O 0.1434(3) 0.0102(5) 1.0586(5)
O2G O 0.1601(2) 0.0376(3) 0.8625(5)
O2_2 O 0.3399(2) -0.4624(3) 0.8625(5)
O3G O 0.4167(3) -0.3388(5) 0.6697(6)
N1D N 0.5000 -0.4539(5) 0.8727(14)
N4D N 0.5000 -0.2568(6) 0.8949(11)
N7G N 0.3376(3) -0.2494(5) 0.9220(6)
C1G C 0.2861(4) -0.2313(6) 0.8407(7)
H1G H 0.2849 -0.2739 0.7705
C2G C 0.2331(4) -0.1529(6) 0.8520(6)
H2G H 0.1976 -0.1421 0.7901
C3G C 0.2330(4) -0.0928(6) 0.9519(7)
C4G C 0.2863(4) -0.1096(6) 1.0453(7)
C5G C 0.2919(4) -0.0495(6) 1.1539(8)
H3G H 0.2589 0.0068 1.1677
C6G C 0.3444(5) -0.0731(7) 1.2374(8)
H4G H 0.3475 -0.0337 1.3099
C7G C 0.3949(5) -0.1562(6) 1.2172(7)
H5G H 0.4326 -0.1691 1.2751
C8G C 0.3909(4) -0.2166(6) 1.1194(7)
H6G H 0.4224 -0.2754 1.1114
C9G C 0.3391(4) -0.1922(5) 1.0276(6)
C10G C 0.1738(4) -0.0074(6) 0.9610(8)
loop_
_geom_bond_atom_site_label_1
_geom_bond_atom_site_label_2
_geom_bond_site_symmetry_1
_geom_bond_site_symmetry_2
Cu1 O3 1_555 1_555
O1 C10 1_555 1_555
O2 C10 1_555 1_555
N1 Cu1 1_555 1_555
N2 N1 1_555 1_555
N3 N2 1_555 1_555
N4 Cu1 1_555 1_555
N5 N4 1_555 1_555
N6 N5 1_555 1_555
N7 Cu1 1_555 1_555
C1 N7 1_555 1_555
H1 C1 1_555 1_555
C2 C1 1_555 1_555
H2 C2 1_555 1_555
C3 C2 1_555 1_555
C4 C3 1_555 1_555
C5 C4 1_555 1_555
H3 C5 1_555 1_555
C6 C5 1_555 1_555
H4 C6 1_555 1_555
C7 C6 1_555 1_555
H5 C7 1_555 1_555
C8 C7 1_555 1_555
H6 C8 1_555 1_555
C9 N7 1_555 1_555
C10 C3 1_555 1_555
Cu1G O2_2 1_555 1_555
Cu1G_2 O2 1_555 1_555
Cu1C N1 1_555 1_555
O1G C10G 1_555 1_555
O2G Cu1 1_555 1_555
O3G Cu1G 1_555 1_555
N1D Cu1G 1_555 1_555
N4D Cu1G 1_555 1_555
N7G Cu1G 1_555 1_555
C1G N7G 1_555 1_555
H1G C1G 1_555 1_555
C2G C1G 1_555 1_555
H2G C2G 1_555 1_555
C3G C2G 1_555 1_555
C4G C3G 1_555 1_555
C5G C4G 1_555 1_555
H3G C5G 1_555 1_555
C6G C5G 1_555 1_555
H4G C6G 1_555 1_555
C7G C6G 1_555 1_555
H5G C7G 1_555 1_555
C8G C7G 1_555 1_555
H6G C8G 1_555 1_555
C9G N7G 1_555 1_555
C10G O2G 1_555 1_555
N4 Cu1C 1_555 1_555
C4 C9 1_555 1_555
C8 C9 1_555 1_555
C3G C10G 1_555 1_555
C4G C9G 1_555 1_555
C8G C9G 1_555 1_555

#END
