
#######################################################################
#
#                 Cambridge Crystallographic Data Centre
#                                CCDC 
#
#######################################################################
#
# If this CIF has been generated from an entry in the Cambridge 
# Structural Database, then it will include bibliographic, chemical, 
# crystal, experimental, refinement or atomic coordinate data resulting 
# from the CCDC's data processing and validation procedures.
#
#######################################################################

data_MORHAD
_symmetry_cell_setting           monoclinic
_symmetry_space_group_name_H-M   'C 2/m'
_symmetry_Int_Tables_number      12
_space_group_name_Hall           '-C 2y'
loop_
_symmetry_equiv_pos_site_id
_symmetry_equiv_pos_as_xyz
1 x,y,z
2 -x,y,-z
3 1/2+x,1/2+y,z
4 1/2-x,1/2+y,-z
5 -x,-y,-z
6 x,-y,z
7 1/2-x,1/2-y,-z
8 1/2+x,1/2-y,z
_cell_length_a                   13.4100(2)
_cell_length_b                   6.8184(1)
_cell_length_c                   12.5952(2)
_cell_angle_alpha                90
_cell_angle_beta                 114.722(1)
_cell_angle_gamma                90
_cell_volume                     1046.09
loop_
_atom_site_label
_atom_site_type_symbol
_atom_site_fract_x
_atom_site_fract_y
_atom_site_fract_z
Cu1 Cu 0.47895(2) 0.0000 0.18776(2)
C1 C 0.42971(13) 0.3963(2) 0.09761(14)
H1 H 0.3929 0.3283 0.0258
N1 N 0.47948(10) 0.2950(2) 0.19469(11)
C2 C 0.53040(12) 0.3962(2) 0.29823(13)
C3 C 0.58263(14) 0.2954(2) 0.40534(15)
H2 H 0.5824 0.1560 0.4062
C4 C 0.63374(14) 0.3967(3) 0.50804(14)
H3 H 0.6693 0.3273 0.5795
O1 O 0.31669(14) 0.0000 0.11799(15)
N2 N 0.28897(18) 0.0000 0.20577(19)
O2 O 0.19110(17) 0.0000 0.1841(2)
O3 O 0.36434(17) 0.0000 0.30631(16)
O4 O 0.64170(14) 0.0000 0.25981(15)
N3 N 0.67472(18) 0.0000 0.17685(19)
O5 O 0.77299(19) 0.0000 0.2033(2)
O6 O 0.6016(2) 0.0000 0.07549(18)
Cu1_2 Cu 0.47895(2) 1.0000 0.18776(2)
C1E C 0.42971(13) 0.6037(2) 0.09761(14)
H1E H 0.3929 0.6717 0.0258
N1E N 0.47948(10) 0.7050(2) 0.19469(11)
N1E_2 N 0.47948(10) -0.2950(2) 0.19469(11)
C2E C 0.53040(12) 0.6038(2) 0.29823(13)
C3E C 0.58263(14) 0.7046(2) 0.40534(15)
H2E H 0.5824 0.8440 0.4062
C4E C 0.63374(14) 0.6033(3) 0.50804(14)
H3E H 0.6693 0.6727 0.5795
loop_
_geom_bond_atom_site_label_1
_geom_bond_atom_site_label_2
_geom_bond_site_symmetry_1
_geom_bond_site_symmetry_2
Cu1 N1 1_555 1_555
C1 H1 1_555 1_555
N1 C1 1_555 1_555
C2 N1 1_555 1_555
C3 C2 1_555 1_555
H2 C3 1_555 1_555
C4 C3 1_555 1_555
H3 C4 1_555 1_555
O1 Cu1 1_555 1_555
N2 O1 1_555 1_555
O2 N2 1_555 1_555
O3 Cu1 1_555 1_555
O4 Cu1 1_555 1_555
N3 O4 1_555 1_555
O5 N3 1_555 1_555
O6 Cu1 1_555 1_555
Cu1_2 N1E 1_555 1_555
C1E C1 1_555 1_555
H1E C1E 1_555 1_555
N1E C1E 1_555 1_555
N1E_2 Cu1 1_555 1_555
C2E C2 1_555 1_555
C3E C2E 1_555 1_555
H2E C3E 1_555 1_555
C4E C4 1_555 1_555
H3E C4E 1_555 1_555
N2 O3 1_555 1_555
N3 O6 1_555 1_555
N1E C2E 1_555 1_555
C3E C4E 1_555 1_555

#END
