
#######################################################################
#
#                 Cambridge Crystallographic Data Centre
#                                CCDC 
#
#######################################################################
#
# If this CIF has been generated from an entry in the Cambridge 
# Structural Database, then it will include bibliographic, chemical, 
# crystal, experimental, refinement or atomic coordinate data resulting 
# from the CCDC's data processing and validation procedures.
#
#######################################################################

data_MORVUM
_symmetry_cell_setting           triclinic
_symmetry_space_group_name_H-M   'P -1'
_symmetry_Int_Tables_number      2
_space_group_name_Hall           '-P 1'
loop_
_symmetry_equiv_pos_site_id
_symmetry_equiv_pos_as_xyz
1 x,y,z
2 -x,-y,-z
_cell_length_a                   10.659(4)
_cell_length_b                   15.241(5)
_cell_length_c                   15.261(5)
_cell_angle_alpha                60.359(4)
_cell_angle_beta                 73.268(5)
_cell_angle_gamma                87.246(5)
_cell_volume                     2050.26
loop_
_atom_site_label
_atom_site_type_symbol
_atom_site_fract_x
_atom_site_fract_y
_atom_site_fract_z
Cl2 Cl 0.3489(5) 0.1020(6) -0.0917(4)
O1 O -0.4899(6) 0.1612(5) 0.3771(6)
O2 O -0.4629(7) 0.3641(5) 0.4249(6)
O3 O -0.5217(6) 0.0084(5) 0.7117(6)
O4 O -0.3292(7) 0.0206(6) 0.5152(6)
O5 O -0.5607(8) 0.2397(6) 0.6638(6)
Sr1 Sr -0.44977(7) 0.17164(7) 0.53072(7)
C1 C -0.1740(8) 0.1927(6) 0.6217(7)
C2 C -0.0037(7) 0.1966(7) 0.6867(7)
C3 C 0.0216(7) 0.2873(7) 0.5742(7)
C4 C 0.1946(8) 0.1855(7) 0.5785(7)
C5 C -0.1245(8) 0.3528(7) 0.4558(7)
H1 H -0.0968 0.4198 0.4426
H2 H -0.2206 0.3466 0.4715
C6 C 0.2169(8) 0.3423(7) 0.4040(7)
H3 H 0.2124 0.4105 0.3951
H4 H 0.3096 0.3295 0.3919
C7 C -0.1278(8) 0.3003(7) 0.3269(7)
C8 C 0.0639(7) 0.3950(7) 0.2879(7)
C9 C 0.0692(8) 0.3785(6) 0.1935(7)
C10 C 0.2428(8) 0.3045(6) 0.2589(6)
C11 C -0.1070(8) 0.2885(7) 0.1707(7)
H5 H -0.0811 0.3451 0.0975
H6 H -0.2035 0.2793 0.1977
C12 C 0.2378(8) 0.3014(7) 0.1030(7)
H7 H 0.3324 0.2970 0.0931
H8 H 0.2277 0.3568 0.0365
C13 C -0.1430(7) 0.1069(7) 0.2244(7)
C14 C 0.0620(7) 0.1976(6) 0.0967(6)
C15 C 0.0508(7) 0.0832(7) 0.1241(7)
C16 C 0.2319(8) 0.1188(7) 0.1643(7)
C17 C -0.1459(7) -0.0570(7) 0.2357(7)
H9 H -0.1244 -0.0685 0.1755
H10 H -0.2412 -0.0540 0.2571
C18 C 0.2011(7) -0.0557(6) 0.1943(7)
H11 H 0.2933 -0.0542 0.1934
H12 H 0.1976 -0.0678 0.1377
C19 C -0.0181(9) 0.2221(7) 0.7704(7)
H13 H -0.0964 0.2564 0.7769
H14 H 0.0588 0.2664 0.7521
H15 H -0.0263 0.1602 0.8372
C20 C 0.0830(8) 0.4972(6) 0.2618(7)
H16 H 0.0123 0.5331 0.2359
H17 H 0.1668 0.5292 0.2073
H18 H 0.0830 0.4995 0.3242
C21 C 0.0635(7) 0.0656(6) 0.0410(6)
H19 H 0.1507 0.0932 -0.0095
H20 H -0.0025 0.0982 0.0064
H21 H 0.0509 -0.0070 0.0683
N1 N -0.1241(6) 0.1395(5) 0.7052(5)
N2 N -0.0930(6) 0.2782(5) 0.5459(5)
N3 N 0.1126(6) 0.1440(5) 0.6762(5)
N4 N 0.1418(6) 0.2680(5) 0.5125(5)
N5 N -0.0658(6) 0.3489(5) 0.3592(5)
N6 N -0.0551(6) 0.3144(5) 0.2331(5)
N7 N 0.1702(6) 0.3394(6) 0.3263(5)
N8 N 0.1858(6) 0.3265(5) 0.1831(5)
N9 N -0.0613(6) 0.1961(5) 0.1717(5)
N10 N -0.0793(6) 0.0392(5) 0.2017(5)
N11 N 0.1779(6) 0.2082(5) 0.1236(6)
N12 N 0.1582(6) 0.0414(5) 0.1723(5)
O6 O -0.2816(5) 0.1663(5) 0.6215(5)
O7 O -0.2390(5) 0.2530(5) 0.3755(5)
O8 O -0.2543(5) 0.0927(5) 0.2846(5)
O9 O 0.3043(5) 0.1605(4) 0.5485(5)
O10 O 0.3418(6) 0.2637(6) 0.2693(5)
O11 O 0.3351(5) 0.1059(5) 0.1886(5)
O12 O 0.0337(7) 0.3856(6) 0.5612(6)
H22 H 0.0993 0.3926 0.5771
O13 O 0.0771(7) 0.4708(6) 0.0940(6)
H23 H 0.0826 0.4561 0.0475
O14 O 0.0707(9) 0.2712(8) -0.0085(7)
H24 H 0.0597 0.2425 -0.0404
C1A C 0.1740(8) -0.1927(6) 0.3783(7)
C2A C 0.0037(7) -0.1966(7) 0.3133(7)
C3A C -0.0216(7) -0.2873(7) 0.4258(7)
C4A C -0.1946(8) -0.1855(7) 0.4215(7)
C5A C 0.1245(8) -0.3528(7) 0.5442(7)
H1A H 0.0968 -0.4198 0.5574
H2A H 0.2206 -0.3466 0.5285
C6A C -0.2169(8) -0.3423(7) 0.5960(7)
H3A H -0.2124 -0.4105 0.6049
H4A H -0.3096 -0.3295 0.6081
C7A C 0.1278(8) -0.3003(7) 0.6731(7)
C8A C -0.0639(7) -0.3950(7) 0.7121(7)
C9A C -0.0692(8) -0.3785(6) 0.8065(7)
C10A C -0.2428(8) -0.3045(6) 0.7411(6)
C11A C 0.1070(8) -0.2885(7) 0.8293(7)
H5A H 0.0811 -0.3451 0.9025
H6A H 0.2035 -0.2793 0.8023
C12A C -0.2378(8) -0.3014(7) 0.8970(7)
H7A H -0.3324 -0.2970 0.9069
H8A H -0.2277 -0.3568 0.9635
C13A C 0.1430(7) -0.1069(7) 0.7756(7)
C14A C -0.0620(7) -0.1976(6) 0.9033(6)
C15A C -0.0508(7) -0.0832(7) 0.8759(7)
C16A C -0.2319(8) -0.1188(7) 0.8357(7)
C17A C 0.1459(7) 0.0570(7) 0.7643(7)
H9A H 0.1244 0.0685 0.8245
H10A H 0.2412 0.0540 0.7429
C18A C -0.2011(7) 0.0557(6) 0.8057(7)
H11A H -0.2933 0.0542 0.8066
H12A H -0.1976 0.0678 0.8623
C19A C 0.0181(9) -0.2221(7) 0.2296(7)
H13A H 0.0964 -0.2564 0.2231
H14A H -0.0588 -0.2664 0.2479
H15A H 0.0263 -0.1602 0.1628
C20A C -0.0830(8) -0.4972(6) 0.7382(7)
H16A H -0.0123 -0.5331 0.7641
H17A H -0.1668 -0.5292 0.7927
H18A H -0.0830 -0.4995 0.6758
C21A C -0.0635(7) -0.0656(6) 0.9590(6)
H19A H -0.1507 -0.0932 1.0095
H20A H 0.0025 -0.0982 0.9936
H21A H -0.0509 0.0070 0.9317
N1A N 0.1241(6) -0.1395(5) 0.2948(5)
N2A N 0.0930(6) -0.2782(5) 0.4541(5)
N3A N -0.1126(6) -0.1440(5) 0.3238(5)
N4A N -0.1418(6) -0.2680(5) 0.4875(5)
N5A N 0.0658(6) -0.3489(5) 0.6408(5)
N6A N 0.0551(6) -0.3144(5) 0.7669(5)
N7A N -0.1702(6) -0.3394(6) 0.6737(5)
N8A N -0.1858(6) -0.3265(5) 0.8169(5)
N9A N 0.0613(6) -0.1961(5) 0.8283(5)
N10A N 0.0793(6) -0.0392(5) 0.7983(5)
N11A N -0.1779(6) -0.2082(5) 0.8764(6)
N12A N -0.1582(6) -0.0414(5) 0.8277(5)
O6A O 0.2816(5) -0.1663(5) 0.3785(5)
O7A O 0.2390(5) -0.2530(5) 0.6245(5)
O8A O 0.2543(5) -0.0927(5) 0.7154(5)
O9A O -0.3043(5) -0.1605(4) 0.4515(5)
O10A O -0.3418(6) -0.2637(6) 0.7307(5)
O11A O -0.3351(5) -0.1059(5) 0.8114(5)
O12A O -0.0337(7) -0.3856(6) 0.4388(6)
H22A H -0.0993 -0.3926 0.4229
O13A O -0.0771(7) -0.4708(6) 0.9060(6)
H23A H -0.0826 -0.4561 0.9525
O14A O -0.0707(9) -0.2712(8) 1.0085(7)
H24A H -0.0597 -0.2425 1.0404
O1A O -0.5101(6) -0.1612(5) 0.6229(6)
O2A O -0.5371(7) -0.3641(5) 0.5751(6)
O3A O -0.4783(6) -0.0084(5) 0.2883(6)
O4A O -0.6708(7) -0.0206(6) 0.4848(6)
O5A O -0.4393(8) -0.2397(6) 0.3362(6)
Sr1A Sr -0.55023(7) -0.17164(7) 0.46928(7)
Sr1_2 Sr 0.55023(7) 0.17164(7) 0.53072(7)
Sr1A_2 Sr 0.44977(7) -0.17164(7) 0.46928(7)
O6A_2 O -0.7184(5) -0.1663(5) 0.3785(5)
O7A_2 O -0.7610(5) -0.2530(5) 0.6245(5)
O9_2 O -0.6957(5) 0.1605(4) 0.5485(5)
Cl1 Cl 0.3026(6) 0.4279(5) 0.5707(7)
loop_
_geom_bond_atom_site_label_1
_geom_bond_atom_site_label_2
_geom_bond_site_symmetry_1
_geom_bond_site_symmetry_2
O1 Sr1 1_555 1_555
O2 Sr1 1_555 1_555
O3 Sr1 1_555 1_555
O4 Sr1 1_555 1_555
O5 Sr1 1_555 1_555
Sr1 O6 1_555 1_555
C1 N1 1_555 1_555
C2 C3 1_555 1_555
C3 N2 1_555 1_555
C4 N3 1_555 1_555
C5 H1 1_555 1_555
H2 C5 1_555 1_555
C6 H3 1_555 1_555
H4 C6 1_555 1_555
C7 N5 1_555 1_555
C8 C9 1_555 1_555
C9 N6 1_555 1_555
C10 N7 1_555 1_555
C11 H5 1_555 1_555
H6 C11 1_555 1_555
C12 H7 1_555 1_555
H8 C12 1_555 1_555
C13 N9 1_555 1_555
C14 C15 1_555 1_555
C15 C21 1_555 1_555
C16 N11 1_555 1_555
C17 H9 1_555 1_555
H10 C17 1_555 1_555
C18 H11 1_555 1_555
H12 C18 1_555 1_555
C19 C2 1_555 1_555
H13 C19 1_555 1_555
H14 C19 1_555 1_555
H15 C19 1_555 1_555
C20 C8 1_555 1_555
H16 C20 1_555 1_555
H17 C20 1_555 1_555
H18 C20 1_555 1_555
C21 H19 1_555 1_555
H20 C21 1_555 1_555
H21 C21 1_555 1_555
N1 C2 1_555 1_555
N2 C1 1_555 1_555
N3 C2 1_555 1_555
N4 C3 1_555 1_555
N5 C5 1_555 1_555
N6 C7 1_555 1_555
N7 C6 1_555 1_555
N8 C9 1_555 1_555
N9 C11 1_555 1_555
N10 C13 1_555 1_555
N11 C12 1_555 1_555
N12 C15 1_555 1_555
O6 C1 1_555 1_555
O7 Sr1 1_555 1_555
O8 C13 1_555 1_555
O9 C4 1_555 1_555
O10 C10 1_555 1_555
O11 C16 1_555 1_555
O12 C3 1_555 1_555
H22 O12 1_555 1_555
O13 C9 1_555 1_555
H23 O13 1_555 1_555
O14 C14 1_555 1_555
H24 O14 1_555 1_555
C1A N1A 1_555 1_555
C2A C3A 1_555 1_555
C3A N2A 1_555 1_555
C4A N3A 1_555 1_555
C5A H1A 1_555 1_555
H2A C5A 1_555 1_555
C6A H3A 1_555 1_555
H4A C6A 1_555 1_555
C7A N5A 1_555 1_555
C8A C9A 1_555 1_555
C9A N6A 1_555 1_555
C10A N7A 1_555 1_555
C11A H5A 1_555 1_555
H6A C11A 1_555 1_555
C12A H7A 1_555 1_555
H8A C12A 1_555 1_555
C13A N9A 1_555 1_555
C14A C15A 1_555 1_555
C15A C21A 1_555 1_555
C16A N11A 1_555 1_555
C17A N3 1_555 1_555
H9A C17A 1_555 1_555
H10A C17A 1_555 1_555
C18A N1 1_555 1_555
H11A C18A 1_555 1_555
H12A C18A 1_555 1_555
C19A C2A 1_555 1_555
H13A C19A 1_555 1_555
H14A C19A 1_555 1_555
H15A C19A 1_555 1_555
C20A C8A 1_555 1_555
H16A C20A 1_555 1_555
H17A C20A 1_555 1_555
H18A C20A 1_555 1_555
C21A H19A 1_555 1_555
H20A C21A 1_555 1_555
H21A C21A 1_555 1_555
N1A C18 1_555 1_555
N2A C1A 1_555 1_555
N3A C17 1_555 1_555
N4A C3A 1_555 1_555
N5A C5A 1_555 1_555
N6A C7A 1_555 1_555
N7A C6A 1_555 1_555
N8A C9A 1_555 1_555
N9A C11A 1_555 1_555
N10A C13A 1_555 1_555
N11A C12A 1_555 1_555
N12A C15A 1_555 1_555
O6A C1A 1_555 1_555
O7A C7A 1_555 1_555
O8A C13A 1_555 1_555
O9A C4A 1_555 1_555
O10A C10A 1_555 1_555
O11A C16A 1_555 1_555
O12A C3A 1_555 1_555
H22A O12A 1_555 1_555
O13A C9A 1_555 1_555
H23A O13A 1_555 1_555
O14A C14A 1_555 1_555
H24A O14A 1_555 1_555
O1A Sr1A 1_555 1_555
O2A Sr1A 1_555 1_555
O3A Sr1A 1_555 1_555
O4A Sr1A 1_555 1_555
O5A Sr1A 1_555 1_555
Sr1A O9A 1_555 1_555
Sr1_2 O9 1_555 1_555
Sr1A_2 O6A 1_555 1_555
O6A_2 Sr1A 1_555 1_555
O7A_2 Sr1A 1_555 1_555
O9_2 Sr1 1_555 1_555
C4 N4 1_555 1_555
C5 N2 1_555 1_555
C6 N4 1_555 1_555
C7 O7 1_555 1_555
C8 N5 1_555 1_555
C8 N7 1_555 1_555
C10 N8 1_555 1_555
C11 N6 1_555 1_555
C12 N8 1_555 1_555
C14 N9 1_555 1_555
C14 N11 1_555 1_555
C15 N10 1_555 1_555
C16 N12 1_555 1_555
C17 N10 1_555 1_555
C18 N12 1_555 1_555
C2A N1A 1_555 1_555
C2A N3A 1_555 1_555
C4A N4A 1_555 1_555
C5A N2A 1_555 1_555
C6A N4A 1_555 1_555
C8A N5A 1_555 1_555
C8A N7A 1_555 1_555
C10A N8A 1_555 1_555
C11A N6A 1_555 1_555
C12A N8A 1_555 1_555
C14A N9A 1_555 1_555
C14A N11A 1_555 1_555
C15A N10A 1_555 1_555
C16A N12A 1_555 1_555
C17A N10A 1_555 1_555
C18A N12A 1_555 1_555
O7A Sr1A_2 1_555 1_555

#END
