
#######################################################################
#
#                 Cambridge Crystallographic Data Centre
#                                CCDC 
#
#######################################################################
#
# If this CIF has been generated from an entry in the Cambridge 
# Structural Database, then it will include bibliographic, chemical, 
# crystal, experimental, refinement or atomic coordinate data resulting 
# from the CCDC's data processing and validation procedures.
#
#######################################################################

data_MORVOG
_symmetry_cell_setting           triclinic
_symmetry_space_group_name_H-M   'P -1'
_symmetry_Int_Tables_number      2
_space_group_name_Hall           '-P 1'
loop_
_symmetry_equiv_pos_site_id
_symmetry_equiv_pos_as_xyz
1 x,y,z
2 -x,-y,-z
_cell_length_a                   10.3914(5)
_cell_length_b                   15.1080(8)
_cell_length_c                   15.2646(11)
_cell_angle_alpha                60.493(3)
_cell_angle_beta                 76.042(5)
_cell_angle_gamma                72.313(3)
_cell_volume                     1974.87
loop_
_atom_site_label
_atom_site_type_symbol
_atom_site_fract_x
_atom_site_fract_y
_atom_site_fract_z
Cl2 Cl 0.3752(4) 0.0040(4) 0.3995(4)
O1 O 0.5607(4) 0.1037(3) 0.7312(4)
O2 O 0.4676(3) 0.2172(3) 0.8543(3)
O3 O 0.4880(4) 0.4566(3) 0.6517(3)
O4 O 0.5195(3) 0.2882(3) 0.5180(3)
Ca1 Ca 0.45306(8) 0.29181(9) 0.67576(8)
C1 C 0.1339(4) 0.3730(4) 0.7988(3)
C2 C -0.0734(4) 0.4312(4) 0.8759(3)
C3 C -0.0631(4) 0.3178(4) 0.8937(3)
C4 C -0.2485(4) 0.4354(4) 0.8022(4)
C5 C 0.1351(4) 0.1887(4) 0.8529(3)
H1 H 0.2339 0.1789 0.8470
H2 H 0.1070 0.1350 0.9193
C6 C -0.2169(4) 0.2526(4) 0.8400(4)
H3 H -0.3123 0.2784 0.8268
H4 H -0.2126 0.1943 0.9084
C7 C 0.1863(4) 0.1845(3) 0.6907(4)
C8 C -0.0146(4) 0.1348(3) 0.7870(3)
C9 C 0.0144(4) 0.1113(3) 0.6935(3)
C10 C -0.1946(4) 0.2305(3) 0.6863(3)
C11 C 0.2182(4) 0.1359(4) 0.5539(3)
H5 H 0.3120 0.1383 0.5523
H6 H 0.2189 0.0659 0.5656
C12 C -0.1366(4) 0.1699(4) 0.5553(3)
H7 H -0.1084 0.0975 0.5661
H8 H -0.2352 0.1915 0.5532
C13 C 0.2450(4) 0.2797(4) 0.3847(4)
C14 C 0.0623(4) 0.2023(4) 0.4163(3)
C15 C 0.0715(4) 0.2897(4) 0.3044(4)
C16 C -0.1365(4) 0.3276(4) 0.3936(4)
C17 C -0.2497(4) 0.6002(4) 0.7990(4)
H9 H -0.2394 0.6134 0.8535
H10 H -0.3473 0.6140 0.7956
C18 C 0.1046(5) 0.5459(4) 0.7856(4)
H11 H 0.0770 0.5632 0.8424
H12 H 0.2041 0.5281 0.7762
C19 C -0.0820(5) 0.2418(4) 0.9982(4)
H13 H -0.0098 0.2333 1.0337
H14 H -0.0796 0.1756 1.0013
H15 H -0.1691 0.2654 1.0297
C20 C 0.0354(5) 0.0033(4) 0.7188(4)
H16 H 0.1161 -0.0359 0.7536
H17 H 0.0469 -0.0036 0.6573
H18 H -0.0428 -0.0236 0.7625
C21 C 0.0777(5) 0.2565(5) 0.2294(4)
H19 H 0.1626 0.2067 0.2294
H20 H 0.0726 0.3164 0.1631
H21 H 0.0021 0.2241 0.2452
N1 N 0.0536(3) 0.4550(3) 0.8114(3)
N2 N 0.0708(3) 0.2916(3) 0.8486(3)
N3 N -0.1918(3) 0.4914(3) 0.8253(3)
N4 N -0.1697(3) 0.3346(3) 0.8367(3)
N5 N 0.1028(3) 0.1741(3) 0.7767(3)
N6 N 0.1356(3) 0.1534(3) 0.6382(3)
N7 N -0.1400(3) 0.2143(3) 0.7680(3)
N8 N -0.1057(3) 0.1741(3) 0.6410(3)
N9 N 0.1711(3) 0.2108(3) 0.4567(3)
N10 N 0.1898(3) 0.3264(3) 0.2967(3)
N11 N -0.0721(3) 0.2341(3) 0.4592(3)
N12 N -0.0566(3) 0.3638(3) 0.3046(3)
O5 O 0.2467(3) 0.3716(3) 0.7494(3)
O6 O 0.2908(3) 0.2150(3) 0.6651(2)
O7 O 0.3471(3) 0.2962(3) 0.3955(3)
O8 O -0.3492(3) 0.4671(3) 0.7602(3)
O9 O -0.3058(3) 0.2849(3) 0.6601(2)
O10 O -0.2546(3) 0.3733(3) 0.4099(3)
O11 O -0.0803(5) 0.4419(4) 0.9662(3)
H22 H -0.062(8) 0.493(7) 0.9517(18)
O12 O -0.0250(4) 0.0491(3) 0.8826(3)
H23 H -0.115(8) 0.031(4) 0.896(2)
O13 O 0.0821(4) 0.0980(3) 0.4320(3)
H24 H 0.1626 0.0771 0.4139
C1A C -0.1339(4) 0.6270(4) 0.2012(3)
C2A C 0.0734(4) 0.5688(4) 0.1241(3)
C3A C 0.0631(4) 0.6822(4) 0.1063(3)
C4A C 0.2485(4) 0.5646(4) 0.1978(4)
C5A C -0.1351(4) 0.8113(4) 0.1471(3)
H1A H -0.2339 0.8211 0.1530
H2A H -0.1070 0.8650 0.0807
C6A C 0.2169(4) 0.7474(4) 0.1600(4)
H3A H 0.3123 0.7216 0.1732
H4A H 0.2126 0.8057 0.0916
C7A C -0.1863(4) 0.8155(3) 0.3093(4)
C8A C 0.0146(4) 0.8652(3) 0.2130(3)
C9A C -0.0144(4) 0.8887(3) 0.3065(3)
C10A C 0.1946(4) 0.7695(3) 0.3137(3)
C11A C -0.2182(4) 0.8641(4) 0.4461(3)
H5A H -0.3120 0.8617 0.4477
H6A H -0.2189 0.9341 0.4344
C12A C 0.1366(4) 0.8301(4) 0.4447(3)
H7A H 0.1084 0.9025 0.4339
H8A H 0.2352 0.8085 0.4468
C13A C -0.2450(4) 0.7203(4) 0.6153(4)
C14A C -0.0623(4) 0.7977(4) 0.5837(3)
C15A C -0.0715(4) 0.7103(4) 0.6956(4)
C16A C 0.1365(4) 0.6724(4) 0.6064(4)
C17A C 0.2497(4) 0.3998(4) 0.2010(4)
H9A H 0.2394 0.3866 0.1465
H10A H 0.3473 0.3860 0.2044
C18A C -0.1046(5) 0.4541(4) 0.2144(4)
H11A H -0.0770 0.4368 0.1576
H12A H -0.2041 0.4719 0.2238
C19A C 0.0820(5) 0.7582(4) 0.0018(4)
H13A H 0.0098 0.7667 -0.0337
H14A H 0.0796 0.8244 -0.0013
H15A H 0.1691 0.7346 -0.0297
C20A C -0.0354(5) 0.9967(4) 0.2812(4)
H16A H -0.1161 1.0359 0.2464
H17A H -0.0469 1.0036 0.3427
H18A H 0.0428 1.0236 0.2375
C21A C -0.0777(5) 0.7435(5) 0.7706(4)
H19A H -0.1626 0.7933 0.7706
H20A H -0.0726 0.6836 0.8369
H21A H -0.0021 0.7759 0.7548
N1A N -0.0536(3) 0.5450(3) 0.1886(3)
N2A N -0.0708(3) 0.7084(3) 0.1514(3)
N3A N 0.1918(3) 0.5086(3) 0.1747(3)
N4A N 0.1697(3) 0.6654(3) 0.1633(3)
N5A N -0.1028(3) 0.8259(3) 0.2233(3)
N6A N -0.1356(3) 0.8466(3) 0.3618(3)
N7A N 0.1400(3) 0.7857(3) 0.2320(3)
N8A N 0.1057(3) 0.8259(3) 0.3590(3)
N9A N -0.1711(3) 0.7892(3) 0.5433(3)
N10A N -0.1898(3) 0.6736(3) 0.7033(3)
N11A N 0.0721(3) 0.7659(3) 0.5408(3)
N12A N 0.0566(3) 0.6362(3) 0.6954(3)
O5A O -0.2467(3) 0.6284(3) 0.2506(3)
O6A O -0.2908(3) 0.7850(3) 0.3349(2)
O7A O -0.3471(3) 0.7038(3) 0.6045(3)
O8A O 0.3492(3) 0.5329(3) 0.2398(3)
O9A O 0.3058(3) 0.7151(3) 0.3399(2)
O10A O 0.2546(3) 0.6267(3) 0.5901(3)
O11A O 0.0803(5) 0.5581(4) 0.0338(3)
H22A H 0.062(8) 0.507(7) 0.0483(18)
O12A O 0.0250(4) 0.9509(3) 0.1174(3)
H23A H 0.115(8) 0.969(4) 0.104(2)
O13A O -0.0821(4) 0.9020(3) 0.5680(3)
H24A H -0.1626 0.9229 0.5861
O1A O -0.5607(4) 0.8963(3) 0.2688(4)
O2A O -0.4676(3) 0.7828(3) 0.1457(3)
O3A O -0.4880(4) 0.5434(3) 0.3483(3)
O4A O -0.5195(3) 0.7118(3) 0.4820(3)
Ca1A Ca -0.45306(8) 0.70819(9) 0.32424(8)
Ca1_2 Ca -0.54694(8) 0.29181(9) 0.67576(8)
Ca1A_2 Ca 0.54694(8) 0.70819(9) 0.32424(8)
O9_2 O 0.6942(3) 0.2849(3) 0.6601(2)
O9A_2 O -0.6942(3) 0.7151(3) 0.3399(2)
Cl1 Cl -0.2945(3) -0.0030(3) 0.9228(3)
loop_
_geom_bond_atom_site_label_1
_geom_bond_atom_site_label_2
_geom_bond_site_symmetry_1
_geom_bond_site_symmetry_2
O1 Ca1 1_555 1_555
O2 Ca1 1_555 1_555
O3 Ca1 1_555 1_555
O4 Ca1 1_555 1_555
Ca1 O5 1_555 1_555
C1 N1 1_555 1_555
C2 C3 1_555 1_555
C3 C19 1_555 1_555
C4 N3 1_555 1_555
C5 H1 1_555 1_555
H2 C5 1_555 1_555
C6 H3 1_555 1_555
H4 C6 1_555 1_555
C7 N5 1_555 1_555
C8 C9 1_555 1_555
C9 C20 1_555 1_555
C10 N7 1_555 1_555
C11 H5 1_555 1_555
H6 C11 1_555 1_555
C12 H7 1_555 1_555
H8 C12 1_555 1_555
C13 N9 1_555 1_555
C14 C15 1_555 1_555
C15 C21 1_555 1_555
C16 N11 1_555 1_555
C17 H9 1_555 1_555
H10 C17 1_555 1_555
C18 H11 1_555 1_555
H12 C18 1_555 1_555
C19 H13 1_555 1_555
H14 C19 1_555 1_555
H15 C19 1_555 1_555
C20 H16 1_555 1_555
H17 C20 1_555 1_555
H18 C20 1_555 1_555
C21 H19 1_555 1_555
H20 C21 1_555 1_555
H21 C21 1_555 1_555
N1 C2 1_555 1_555
N2 C1 1_555 1_555
N3 C2 1_555 1_555
N4 C3 1_555 1_555
N5 C5 1_555 1_555
N6 C7 1_555 1_555
N7 C6 1_555 1_555
N8 C9 1_555 1_555
N9 C11 1_555 1_555
N10 C13 1_555 1_555
N11 C12 1_555 1_555
N12 C15 1_555 1_555
O5 C1 1_555 1_555
O6 Ca1 1_555 1_555
O7 C13 1_555 1_555
O8 C4 1_555 1_555
O9 C10 1_555 1_555
O10 C16 1_555 1_555
O11 C2 1_555 1_555
H22 O11 1_555 1_555
O12 C8 1_555 1_555
H23 O12 1_555 1_555
O13 C14 1_555 1_555
H24 O13 1_555 1_555
C1A N1A 1_555 1_555
C2A C3A 1_555 1_555
C3A C19A 1_555 1_555
C4A N3A 1_555 1_555
C5A H1A 1_555 1_555
H2A C5A 1_555 1_555
C6A H3A 1_555 1_555
H4A C6A 1_555 1_555
C7A N5A 1_555 1_555
C8A C9A 1_555 1_555
C9A C20A 1_555 1_555
C10A N7A 1_555 1_555
C11A H5A 1_555 1_555
H6A C11A 1_555 1_555
C12A H7A 1_555 1_555
H8A C12A 1_555 1_555
C13A N9A 1_555 1_555
C14A C15A 1_555 1_555
C15A C21A 1_555 1_555
C16A N11A 1_555 1_555
C17A N10 1_555 1_555
H9A C17A 1_555 1_555
H10A C17A 1_555 1_555
C18A N12 1_555 1_555
H11A C18A 1_555 1_555
H12A C18A 1_555 1_555
C19A H13A 1_555 1_555
H14A C19A 1_555 1_555
H15A C19A 1_555 1_555
C20A H16A 1_555 1_555
H17A C20A 1_555 1_555
H18A C20A 1_555 1_555
C21A H19A 1_555 1_555
H20A C21A 1_555 1_555
H21A C21A 1_555 1_555
N1A C2A 1_555 1_555
N2A C1A 1_555 1_555
N3A C2A 1_555 1_555
N4A C3A 1_555 1_555
N5A C5A 1_555 1_555
N6A C7A 1_555 1_555
N7A C6A 1_555 1_555
N8A C9A 1_555 1_555
N9A C11A 1_555 1_555
N10A C17 1_555 1_555
N11A C12A 1_555 1_555
N12A C18 1_555 1_555
O5A C1A 1_555 1_555
O6A C7A 1_555 1_555
O7A C13A 1_555 1_555
O8A C4A 1_555 1_555
O9A C10A 1_555 1_555
O10A C16A 1_555 1_555
O11A C2A 1_555 1_555
H22A O11A 1_555 1_555
O12A C8A 1_555 1_555
H23A O12A 1_555 1_555
O13A C14A 1_555 1_555
H24A O13A 1_555 1_555
O1A Ca1A 1_555 1_555
O2A Ca1A 1_555 1_555
O3A Ca1A 1_555 1_555
O4A Ca1A 1_555 1_555
Ca1A O5A 1_555 1_555
Ca1_2 O9 1_555 1_555
Ca1A_2 O9A 1_555 1_555
O9_2 Ca1 1_555 1_555
O9A_2 Ca1A 1_555 1_555
C3 N2 1_555 1_555
C4 N4 1_555 1_555
C5 N2 1_555 1_555
C6 N4 1_555 1_555
C7 O6 1_555 1_555
C8 N5 1_555 1_555
C8 N7 1_555 1_555
C9 N6 1_555 1_555
C10 N8 1_555 1_555
C11 N6 1_555 1_555
C12 N8 1_555 1_555
C14 N9 1_555 1_555
C14 N11 1_555 1_555
C15 N10 1_555 1_555
C16 N12 1_555 1_555
C17 N3 1_555 1_555
C18 N1 1_555 1_555
C3A N2A 1_555 1_555
C4A N4A 1_555 1_555
C5A N2A 1_555 1_555
C6A N4A 1_555 1_555
C8A N5A 1_555 1_555
C8A N7A 1_555 1_555
C9A N6A 1_555 1_555
C10A N8A 1_555 1_555
C11A N6A 1_555 1_555
C12A N8A 1_555 1_555
C13A N10A 1_555 1_555
C14A N9A 1_555 1_555
C14A N11A 1_555 1_555
C15A N10A 1_555 1_555
C15A N12A 1_555 1_555
C16A N12A 1_555 1_555
C17A N3A 1_555 1_555
C18A N1A 1_555 1_555
O6A Ca1A 1_555 1_555

#END
