
#######################################################################
#
#                 Cambridge Crystallographic Data Centre
#                                CCDC 
#
#######################################################################
#
# If this CIF has been generated from an entry in the Cambridge 
# Structural Database, then it will include bibliographic, chemical, 
# crystal, experimental, refinement or atomic coordinate data resulting 
# from the CCDC's data processing and validation procedures.
#
#######################################################################

data_MOSHAF
_symmetry_cell_setting           monoclinic
_symmetry_space_group_name_H-M   'C 2/c'
_symmetry_Int_Tables_number      15
_space_group_name_Hall           '-C 2yn'
loop_
_symmetry_equiv_pos_site_id
_symmetry_equiv_pos_as_xyz
1 x,y,z
2 -x,y,1/2-z
3 1/2+x,1/2+y,z
4 1/2-x,1/2+y,1/2-z
5 -x,-y,-z
6 x,-y,1/2+z
7 1/2-x,1/2-y,-z
8 1/2+x,1/2-y,1/2+z
_cell_length_a                   37.254(2)
_cell_length_b                   4.3589(3)
_cell_length_c                   13.2378(10)
_cell_angle_alpha                90
_cell_angle_beta                 103.231(7)
_cell_angle_gamma                90
_cell_volume                     2092.58
loop_
_atom_site_label
_atom_site_type_symbol
_atom_site_fract_x
_atom_site_fract_y
_atom_site_fract_z
Rb1 Rb 0.46619(1) 0.24997(5) 0.37141(2)
Cl1 Cl 0.37833(2) 0.43136(18) 0.27103(5)
Cl2 Cl 0.24780(2) 0.67498(18) 0.36032(6)
O1 O 0.50000 -0.1821(6) 0.25000
O2 O 0.39401(4) 0.0914(4) 0.46469(12)
O3 O 0.45789(5) -0.2380(3) 0.50066(15)
O4 O 0.44783(5) -0.4161(4) 0.65027(13)
C1 C 0.36003(7) 0.2255(5) 0.4462(2)
C2 C 0.34901(7) 0.3967(6) 0.35509(18)
C3 C 0.31509(7) 0.5390(6) 0.32949(18)
C4 C 0.29135(7) 0.5079(6) 0.3946(2)
C5 C 0.30147(7) 0.3470(6) 0.4854(2)
C6 C 0.33576(8) 0.2060(6) 0.5112(2)
C7 C 0.40380(6) -0.0845(6) 0.55864(18)
C8 C 0.43981(8) -0.2602(5) 0.5690(2)
H1 H 0.34270 0.09430 0.57430
H2 H 0.5182(8) -0.287(6) 0.289(2)
H3 H 0.30820 0.65690 0.26770
H4 H 0.28510 0.33190 0.53070
H5 H 0.38370 -0.23190 0.56050
H6 H 0.40610 0.05530 0.61870
H2A H 0.4818(8) -0.287(6) 0.211(2)
Rb1A Rb 0.53381(1) 0.24997(5) 0.12859(2)
Cl1A Cl 0.62167(2) 0.43136(18) 0.22897(5)
Cl2A Cl 0.75220(2) 0.67498(18) 0.13968(6)
O2A O 0.60599(4) 0.0914(4) 0.03531(12)
O3A O 0.54211(5) -0.2380(3) -0.00066(15)
O4A O 0.55217(5) -0.4161(4) -0.15027(13)
C1A C 0.63997(7) 0.2255(5) 0.0538(2)
C2A C 0.65099(7) 0.3967(6) 0.14491(18)
C3A C 0.68491(7) 0.5390(6) 0.17051(18)
C4A C 0.70865(7) 0.5079(6) 0.1054(2)
C5A C 0.69853(7) 0.3470(6) 0.0146(2)
C6A C 0.66424(8) 0.2060(6) -0.0112(2)
C7A C 0.59620(6) -0.0845(6) -0.05864(18)
C8A C 0.56019(8) -0.2602(5) -0.0690(2)
H1A H 0.65730 0.09430 -0.07430
H3A H 0.69180 0.65690 0.23230
H4A H 0.71490 0.33190 -0.03070
H5A H 0.61630 -0.23190 -0.06050
H6A H 0.59390 0.05530 -0.11870
Rb1_2 Rb 0.46619(1) -0.75003(5) 0.37141(2)
Rb1A_2 Rb 0.53381(1) -0.75003(5) 0.12859(2)
Rb1D Rb 0.53381(1) -0.24997(5) -0.37141(2)
Rb1D_2 Rb 0.53381(1) -0.24997(5) 0.62859(2)
Rb1E Rb 0.46619(1) -0.24997(5) -0.12859(2)
Rb1E_2 Rb 0.46619(1) -0.24997(5) 0.87141(2)
O1_2 O 0.50000 0.8179(6) 0.25000
O3_2 O 0.45789(5) 0.7620(3) 0.50066(15)
O3A_2 O 0.54211(5) 0.7620(3) -0.00066(15)
O3D O 0.54211(5) 0.2380(3) 0.49934(15)
O3E O 0.45789(5) 0.2380(3) 0.00066(15)
O4D O 0.55217(5) 0.4161(4) 0.34973(13)
O4E O 0.44783(5) 0.4161(4) 0.15027(13)
loop_
_geom_bond_atom_site_label_1
_geom_bond_atom_site_label_2
_geom_bond_site_symmetry_1
_geom_bond_site_symmetry_2
Rb1 Cl1 1_555 1_555
Cl1 C2 1_555 1_555
Cl2 C4 1_555 1_555
O1 Rb1 1_555 1_555
O2 Rb1 1_555 1_555
O3 Rb1 1_555 1_555
O4 C8 1_555 1_555
C1 O2 1_555 1_555
C2 C1 1_555 1_555
C3 C2 1_555 1_555
C4 C3 1_555 1_555
C5 C4 1_555 1_555
C6 C1 1_555 1_555
C7 O2 1_555 1_555
C8 O3 1_555 1_555
H1 C6 1_555 1_555
H2 O1 1_555 1_555
H3 C3 1_555 1_555
H4 C5 1_555 1_555
H5 C7 1_555 1_555
H6 C7 1_555 1_555
H2A O1 1_555 1_555
Rb1A O1 1_555 1_555
Cl1A Rb1A 1_555 1_555
Cl2A C4A 1_555 1_555
O2A Rb1A 1_555 1_555
O3A Rb1A 1_555 1_555
O4A C8A 1_555 1_555
C1A O2A 1_555 1_555
C2A Cl1A 1_555 1_555
C3A C2A 1_555 1_555
C4A C3A 1_555 1_555
C5A C4A 1_555 1_555
C6A C1A 1_555 1_555
C7A O2A 1_555 1_555
C8A O3A 1_555 1_555
H1A C6A 1_555 1_555
H3A C3A 1_555 1_555
H4A C5A 1_555 1_555
H5A C7A 1_555 1_555
H6A C7A 1_555 1_555
Rb1_2 O1 1_555 1_555
Rb1A_2 O1 1_555 1_555
Rb1D O4A 1_555 1_555
Rb1D_2 O3 1_555 1_555
Rb1E O3A 1_555 1_555
Rb1E_2 O4 1_555 1_555
O1_2 Rb1 1_555 1_555
O3_2 Rb1 1_555 1_555
O3A_2 Rb1A 1_555 1_555
O3D Rb1 1_555 1_555
O3E Rb1A 1_555 1_555
O4D Rb1 1_555 1_555
O4E Rb1 1_555 1_555
O3 Rb1_2 1_555 1_555
O4 Rb1D_2 1_555 1_555
C5 C6 1_555 1_555
C7 C8 1_555 1_555
Rb1A O1_2 1_555 1_555
Rb1A O4D 1_555 1_555
Rb1A O4E 1_555 1_555
O3A Rb1A_2 1_555 1_555
O4A Rb1E 1_555 1_555
C1A C2A 1_555 1_555
C5A C6A 1_555 1_555
C7A C8A 1_555 1_555
Rb1D_2 O3D 1_555 1_555
Rb1E O3E 1_555 1_555

#END
