
#######################################################################
#
#                 Cambridge Crystallographic Data Centre
#                                CCDC 
#
#######################################################################
#
# If this CIF has been generated from an entry in the Cambridge 
# Structural Database, then it will include bibliographic, chemical, 
# crystal, experimental, refinement or atomic coordinate data resulting 
# from the CCDC's data processing and validation procedures.
#
#######################################################################

data_MOSSUI
_symmetry_cell_setting           monoclinic
_symmetry_space_group_name_H-M   'C 2/c'
_symmetry_Int_Tables_number      15
_space_group_name_Hall           '-C 2yn'
loop_
_symmetry_equiv_pos_site_id
_symmetry_equiv_pos_as_xyz
1 x,y,z
2 1/2+x,1/2+y,z
3 x,-y,1/2+z
4 1/2+x,1/2-y,1/2+z
5 -x,-y,-z
6 1/2-x,1/2-y,-z
7 -x,y,1/2-z
8 1/2-x,1/2+y,1/2-z
_cell_length_a                   8.1506(3)
_cell_length_b                   12.6953(5)
_cell_length_c                   18.0744(7)
_cell_angle_alpha                90
_cell_angle_beta                 94.2720(10)
_cell_angle_gamma                90
_cell_volume                     1865.04
loop_
_atom_site_label
_atom_site_type_symbol
_atom_site_fract_x
_atom_site_fract_y
_atom_site_fract_z
Hg1 Hg 1.0000 0.037061(8) 0.2500
O1 O 1.0000 0.23332(19) 0.2500
H1 H 1.0796(13) 0.270(2) 0.256(2)
O2 O 1.2803(2) 0.09581(17) 0.19518(13)
H2 H 1.357(4) 0.054(2) 0.199(3)
H3 H 1.320(4) 0.1522(17) 0.184(2)
N1 N 0.8698(2) 0.01855(14) 0.14788(11)
S1 S 0.72452(7) -0.06815(4) 0.13546(3)
O3 O 0.5830(2) -0.04486(14) 0.17395(13)
O4 O 0.7848(2) -0.17301(13) 0.14280(11)
O5 O 0.6804(3) -0.04620(14) 0.04837(10)
O6 O 0.9129(3) 0.29734(15) -0.13757(11)
O7 O 0.7994(3) 0.15450(18) -0.18308(11)
N2 N 0.8603(3) 0.20767(17) -0.13061(12)
C1 C 0.8833(3) 0.07524(17) 0.08246(11)
C2 C 0.9856(3) 0.15957(18) 0.06913(13)
H4 H 1.0587 0.1860 0.1065
C3 C 0.9758(3) 0.20346(17) -0.00142(13)
H5 H 1.0410 0.2611 -0.0116
C4 C 0.8682(3) 0.16092(18) -0.05688(12)
C5 C 0.7654(3) 0.0758(2) -0.04533(13)
H6 H 0.6948 0.0475 -0.0830
C6 C 0.7760(3) 0.03709(16) 0.02513(13)
H1F H 0.9204(13) 0.270(2) 0.244(2)
O2F O 0.7197(2) 0.09581(17) 0.30482(13)
H2F H 0.643(4) 0.054(2) 0.301(3)
H3F H 0.680(4) 0.1522(17) 0.316(2)
N1F N 1.1302(2) 0.01855(14) 0.35212(11)
S1F S 1.27548(7) -0.06815(4) 0.36454(3)
O3F O 1.4170(2) -0.04486(14) 0.32605(13)
O4F O 1.2152(2) -0.17301(13) 0.35720(11)
O5F O 1.3196(3) -0.04620(14) 0.45163(10)
O6F O 1.0871(3) 0.29734(15) 0.63757(11)
O7F O 1.2006(3) 0.15450(18) 0.68308(11)
N2F N 1.1397(3) 0.20767(17) 0.63061(12)
C1F C 1.1167(3) 0.07524(17) 0.41754(11)
C2F C 1.0144(3) 0.15957(18) 0.43087(13)
H4F H 0.9413 0.1860 0.3935
C3F C 1.0242(3) 0.20346(17) 0.50142(13)
H5F H 0.9590 0.2611 0.5116
C4F C 1.1318(3) 0.16092(18) 0.55688(12)
C5F C 1.2346(3) 0.0758(2) 0.54533(13)
H6F H 1.3052 0.0475 0.5830
C6F C 1.2240(3) 0.03709(16) 0.47487(13)
O7B O 0.7994(3) -0.15450(18) 0.31692(11)
O7D O 1.2006(3) -0.15450(18) 0.18308(11)
Hg1B Hg 1.0000 -0.037061(8) -0.2500
Hg1B_2 Hg 1.0000 -0.037061(8) 0.7500
loop_
_geom_bond_atom_site_label_1
_geom_bond_atom_site_label_2
_geom_bond_site_symmetry_1
_geom_bond_site_symmetry_2
Hg1 O1 1_555 1_555
O1 H1 1_555 1_555
O2 Hg1 1_555 1_555
H2 O2 1_555 1_555
H3 O2 1_555 1_555
N1 Hg1 1_555 1_555
S1 N1 1_555 1_555
O3 S1 1_555 1_555
O4 S1 1_555 1_555
O5 S1 1_555 1_555
O6 N2 1_555 1_555
O7 N2 1_555 1_555
N2 C4 1_555 1_555
C1 N1 1_555 1_555
C2 C1 1_555 1_555
H4 C2 1_555 1_555
C3 C2 1_555 1_555
H5 C3 1_555 1_555
C4 C3 1_555 1_555
C5 C4 1_555 1_555
H6 C5 1_555 1_555
C6 O5 1_555 1_555
H1F O1 1_555 1_555
O2F Hg1 1_555 1_555
H2F O2F 1_555 1_555
H3F O2F 1_555 1_555
N1F Hg1 1_555 1_555
S1F N1F 1_555 1_555
O3F S1F 1_555 1_555
O4F S1F 1_555 1_555
O5F S1F 1_555 1_555
O6F N2F 1_555 1_555
O7F N2F 1_555 1_555
N2F C4F 1_555 1_555
C1F N1F 1_555 1_555
C2F C1F 1_555 1_555
H4F C2F 1_555 1_555
C3F C2F 1_555 1_555
H5F C3F 1_555 1_555
C4F C3F 1_555 1_555
C5F C4F 1_555 1_555
H6F C5F 1_555 1_555
C6F O5F 1_555 1_555
O7B Hg1 1_555 1_555
O7D Hg1 1_555 1_555
Hg1B O7 1_555 1_555
Hg1B_2 O7F 1_555 1_555
C1 C6 1_555 1_555
C5 C6 1_555 1_555
C1F C6F 1_555 1_555
C5F C6F 1_555 1_555

#END
