
#######################################################################
#
#                 Cambridge Crystallographic Data Centre
#                                CCDC 
#
#######################################################################
#
# If this CIF has been generated from an entry in the Cambridge 
# Structural Database, then it will include bibliographic, chemical, 
# crystal, experimental, refinement or atomic coordinate data resulting 
# from the CCDC's data processing and validation procedures.
#
#######################################################################

data_MOTLUD
_symmetry_cell_setting           orthorhombic
_symmetry_space_group_name_H-M   'P b c a'
_symmetry_Int_Tables_number      61
_space_group_name_Hall           '-P 2ac 2ab'
loop_
_symmetry_equiv_pos_site_id
_symmetry_equiv_pos_as_xyz
1 x,y,z
2 1/2-x,-y,1/2+z
3 -x,1/2+y,1/2-z
4 1/2+x,1/2-y,-z
5 -x,-y,-z
6 1/2+x,y,1/2-z
7 x,1/2-y,1/2+z
8 1/2-x,1/2+y,z
_cell_length_a                   13.400(4)
_cell_length_b                   15.524(4)
_cell_length_c                   27.199(5)
_cell_angle_alpha                90
_cell_angle_beta                 90
_cell_angle_gamma                90
_cell_volume                     5657.98
loop_
_atom_site_label
_atom_site_type_symbol
_atom_site_fract_x
_atom_site_fract_y
_atom_site_fract_z
Cu1 Cu 0.31505(3) 0.247007(17) 0.424248(9)
Cu2 Cu 0.41682(3) 0.506372(17) 0.176824(9)
O1 O 0.32981(16) 0.12467(11) 0.43865(6)
O2 O 0.3573(2) 0.03464(12) 0.50043(7)
O3 O 0.40487(14) 0.07890(11) 0.62419(6)
O4 O 0.24947(16) 0.05569(13) 0.59844(7)
O5 O 0.33153(16) 0.36840(10) 0.41047(6)
O6 O 0.34191(17) 0.46299(11) 0.34969(6)
O7 O 0.38463(14) 0.41786(10) 0.22523(6)
O8 O 0.23422(15) 0.45653(12) 0.25322(6)
O9 O 0.1474(2) 0.23882(17) 0.43358(11)
H1 H 0.112(2) 0.1988(17) 0.4323(13)
H2 H 0.118(3) 0.2812(17) 0.4274(13)
O10 O 0.58480(17) 0.46870(17) 0.17481(8)
H3 H 0.606(3) 0.451(3) 0.1491(8)
H4 H 0.633(3) 0.461(2) 0.1934(10)
N1 N 0.33595(18) 0.25913(13) 0.49533(7)
N2 N 0.30988(17) 0.23844(12) 0.35200(7)
N3 N 0.43742(16) 0.59989(13) 0.22646(7)
N4 N 0.42457(16) 0.60581(13) 0.12972(7)
C1 C 0.3360(2) 0.18263(15) 0.51873(8)
C2 C 0.3366(2) 0.17823(16) 0.56962(8)
C3 C 0.3438(2) 0.25508(17) 0.59548(9)
H5 H 0.3474 0.2541 0.6296
C4 C 0.3457(3) 0.33271(18) 0.57111(9)
H6 H 0.3507 0.3842 0.5884
C5 C 0.3401(3) 0.33262(17) 0.52072(9)
H7 H 0.3391 0.3848 0.5039
C6 C 0.3404(2) 0.10644(16) 0.48391(8)
C7 C 0.3280(2) 0.09594(16) 0.59871(8)
C8 C 0.3129(2) 0.31590(15) 0.32973(8)
C9 C 0.30559(18) 0.32326(14) 0.27913(8)
C10 C 0.2966(2) 0.24762(16) 0.25214(9)
H8 H 0.2927 0.2501 0.2180
C11 C 0.2936(2) 0.16878(16) 0.27558(9)
H9 H 0.2875 0.1182 0.2575
C12 C 0.2998(2) 0.16608(16) 0.32588(8)
H10 H 0.2969 0.1133 0.3420
C13 C 0.3299(2) 0.39038(15) 0.36522(8)
C14 C 0.3070(2) 0.40836(15) 0.25116(8)
C15 C 0.4481(2) 0.59482(17) 0.27483(9)
H11 H 0.4481 0.5408 0.2896
C16 C 0.4594(2) 0.66793(19) 0.30456(9)
H12 H 0.4676 0.6618 0.3383
C17 C 0.4583(2) 0.74784(18) 0.28412(9)
H13 H 0.4655 0.7965 0.3037
C18 C 0.4426(2) 0.83665(17) 0.20699(10)
H14 H 0.4458 0.8879 0.2246
C19 C 0.4347(2) 0.83952(17) 0.15758(11)
H15 H 0.4325 0.8927 0.1419
C20 C 0.4259(2) 0.75972(18) 0.07701(10)
H16 H 0.4269 0.8106 0.0589
C21 C 0.4209(2) 0.68274(19) 0.05378(10)
H17 H 0.4183 0.6807 0.0196
C22 C 0.4196(2) 0.60654(17) 0.08079(9)
H18 H 0.4151 0.5544 0.0641
C23 C 0.43773(19) 0.67989(15) 0.20563(8)
C24 C 0.4462(2) 0.75608(16) 0.23300(9)
C25 C 0.4295(2) 0.76236(16) 0.12877(9)
C26 C 0.42946(18) 0.68310(15) 0.15320(9)
Cu2F Cu 0.41682(3) -0.006372(17) 0.676824(9)
O3F O 0.40487(14) 0.42110(11) 0.12419(6)
O11 O 0.0924(2) 0.03753(16) 0.53176(9)
H19 H 0.1452(18) 0.039(2) 0.5455(12)
O12 O 0.0709(2) 0.06573(17) 0.42859(11)
H20 H 0.100(3) 0.038(2) 0.4087(12)
H21 H 0.058(6) 0.036(4) 0.4523(18)
O13 O 0.2006(3) -0.06001(18) 0.67173(9)
H22 H 0.195(4) -0.025(2) 0.6952(10)
H23 H 0.207(5) -0.027(3) 0.6474(10)
O14 O 0.0931(3) 0.41050(17) 0.42701(10)
H24 H 0.112(3) 0.447(2) 0.4452(14)
H25 H 0.0351(16) 0.416(3) 0.4227(18)
loop_
_geom_bond_atom_site_label_1
_geom_bond_atom_site_label_2
_geom_bond_site_symmetry_1
_geom_bond_site_symmetry_2
Cu1 O1 1_555 1_555
Cu2 O7 1_555 1_555
O1 C6 1_555 1_555
O2 C6 1_555 1_555
O3 C7 1_555 1_555
O4 C7 1_555 1_555
O5 Cu1 1_555 1_555
O6 C13 1_555 1_555
O7 C14 1_555 1_555
O8 C14 1_555 1_555
O9 Cu1 1_555 1_555
H1 O9 1_555 1_555
H2 O9 1_555 1_555
O10 Cu2 1_555 1_555
H3 O10 1_555 1_555
H4 O10 1_555 1_555
N1 Cu1 1_555 1_555
N2 Cu1 1_555 1_555
N3 Cu2 1_555 1_555
N4 Cu2 1_555 1_555
C1 N1 1_555 1_555
C2 C1 1_555 1_555
C3 C2 1_555 1_555
H5 C3 1_555 1_555
C4 C3 1_555 1_555
H6 C4 1_555 1_555
C5 N1 1_555 1_555
H7 C5 1_555 1_555
C6 C1 1_555 1_555
C7 C2 1_555 1_555
C8 N2 1_555 1_555
C9 C8 1_555 1_555
C10 C9 1_555 1_555
H8 C10 1_555 1_555
C11 C10 1_555 1_555
H9 C11 1_555 1_555
C12 N2 1_555 1_555
H10 C12 1_555 1_555
C13 O5 1_555 1_555
C14 C9 1_555 1_555
C15 N3 1_555 1_555
H11 C15 1_555 1_555
C16 C15 1_555 1_555
H12 C16 1_555 1_555
C17 C16 1_555 1_555
H13 C17 1_555 1_555
C18 H14 1_555 1_555
C19 C18 1_555 1_555
H15 C19 1_555 1_555
C20 H16 1_555 1_555
C21 C20 1_555 1_555
H17 C21 1_555 1_555
C22 N4 1_555 1_555
H18 C22 1_555 1_555
C23 N3 1_555 1_555
C24 C17 1_555 1_555
C25 C19 1_555 1_555
C26 N4 1_555 1_555
O11 H19 1_555 1_555
O12 H20 1_555 1_555
H21 O12 1_555 1_555
O13 H22 1_555 1_555
H23 O13 1_555 1_555
O14 H24 1_555 1_555
H25 O14 1_555 1_555
Cu2F O3 1_555 1_555
O3F Cu2 1_555 1_555
C4 C5 1_555 1_555
C8 C13 1_555 1_555
C11 C12 1_555 1_555
C18 C24 1_555 1_555
C20 C25 1_555 1_555
C21 C22 1_555 1_555
C23 C24 1_555 1_555
C23 C26 1_555 1_555
C25 C26 1_555 1_555

#END
