
#######################################################################
#
#                 Cambridge Crystallographic Data Centre
#                                CCDC 
#
#######################################################################
#
# If this CIF has been generated from an entry in the Cambridge 
# Structural Database, then it will include bibliographic, chemical, 
# crystal, experimental, refinement or atomic coordinate data resulting 
# from the CCDC's data processing and validation procedures.
#
#######################################################################

data_MOTSET
_symmetry_cell_setting           orthorhombic
_symmetry_space_group_name_H-M   'I b a m'
_symmetry_Int_Tables_number      72
_space_group_name_Hall           '-I 2 2c'
loop_
_symmetry_equiv_pos_site_id
_symmetry_equiv_pos_as_xyz
1 x,y,z
2 -x,-y,z
3 x,-y,1/2-z
4 -x,y,1/2-z
5 1/2+x,1/2+y,1/2+z
6 1/2-x,1/2-y,1/2+z
7 1/2+x,1/2-y,-z
8 1/2-x,1/2+y,-z
9 -x,-y,-z
10 x,y,-z
11 -x,y,1/2+z
12 x,-y,1/2+z
13 1/2-x,1/2-y,1/2-z
14 1/2+x,1/2+y,1/2-z
15 1/2-x,1/2+y,z
16 1/2+x,1/2-y,z
_cell_length_a                   20.0500(8)
_cell_length_b                   7.4325(3)
_cell_length_c                   7.9198(3)
_cell_angle_alpha                90
_cell_angle_beta                 90
_cell_angle_gamma                90
_cell_volume                     1180.22
loop_
_atom_site_label
_atom_site_type_symbol
_atom_site_fract_x
_atom_site_fract_y
_atom_site_fract_z
Pb1 Pb 0.327847 0.203782 0.500000
Br1 Br 0.286720 0.500000 0.250000
Br2 Br 0.404638 0.000000 0.250000
N1 N 0.440921 0.400671 0.500000
C1 C 0.500153 0.320875 0.500000
H1 H 0.502522 0.195912 0.500000
C2 C 0.441235 0.578818 0.500000
H2 H 0.400644 0.639367 0.500000
C2A C 0.558765 0.421182 0.500000
N1A N 0.559079 0.599329 0.500000
C1A C 0.499847 0.679125 0.500000
H1A H 0.497478 0.804088 0.500000
H2A H 0.599356 0.360633 0.500000
Br1I Br 0.286720 0.500000 0.750000
Br2I Br 0.404638 0.000000 0.750000
Pb1B Pb 0.327847 0.796218 0.000000
Pb1B_2 Pb 0.327847 -0.203782 0.000000
Pb1A Pb 0.672153 0.796218 0.500000
Pb1B_3 Pb 0.327847 0.796218 1.000000
Pb1B_4 Pb 0.327847 -0.203782 1.000000
Br1I_2 Br 0.286720 0.500000 -0.250000
Br2_2 Br 0.404638 1.000000 0.250000
Br2I_2 Br 0.404638 1.000000 -0.250000
N1B N 0.440921 0.599329 0.000000
loop_
_geom_bond_atom_site_label_1
_geom_bond_atom_site_label_2
_geom_bond_site_symmetry_1
_geom_bond_site_symmetry_2
Pb1 Br1 1_555 1_555
Br1 Pb1B 1_555 1_555
Br2 Pb1 1_555 1_555
N1 Pb1 1_555 1_555
C1 N1 1_555 1_555
H1 C1 1_555 1_555
C2 N1 1_555 1_555
H2 C2 1_555 1_555
C2A C1 1_555 1_555
N1A C2A 1_555 1_555
C1A C2 1_555 1_555
H1A C1A 1_555 1_555
H2A C2A 1_555 1_555
Br1I Pb1 1_555 1_555
Br2I Pb1 1_555 1_555
Pb1B Br1I_2 1_555 1_555
Pb1B_2 Br2 1_555 1_555
Pb1A N1A 1_555 1_555
Pb1B_3 Br1I 1_555 1_555
Pb1B_4 Br2I 1_555 1_555
Br2_2 Pb1B 1_555 1_555
Br2I_2 Pb1B 1_555 1_555
N1B Pb1B 1_555 1_555
N1A C1A 1_555 1_555

#END
