
#######################################################################
#
#                 Cambridge Crystallographic Data Centre
#                                CCDC 
#
#######################################################################
#
# If this CIF has been generated from an entry in the Cambridge 
# Structural Database, then it will include bibliographic, chemical, 
# crystal, experimental, refinement or atomic coordinate data resulting 
# from the CCDC's data processing and validation procedures.
#
#######################################################################

data_MOTXIC
_symmetry_cell_setting           monoclinic
_symmetry_space_group_name_H-M   'P 21/n'
_symmetry_Int_Tables_number      14
_space_group_name_Hall           '-P 2yn'
loop_
_symmetry_equiv_pos_site_id
_symmetry_equiv_pos_as_xyz
1 x,y,z
2 1/2+x,1/2-y,1/2+z
3 -x,-y,-z
4 1/2-x,1/2+y,1/2-z
_cell_length_a                   8.1036(11)
_cell_length_b                   10.7607(14)
_cell_length_c                   15.554(2)
_cell_angle_alpha                90
_cell_angle_beta                 102.276(3)
_cell_angle_gamma                90
_cell_volume                     1325.3
loop_
_atom_site_label
_atom_site_type_symbol
_atom_site_fract_x
_atom_site_fract_y
_atom_site_fract_z
Cu1 Cu 0.44824(6) 0.37973(5) 0.12841(3)
O1 O 0.2768(5) 0.3715(4) 0.2231(2)
H1 H 0.2910 0.4552 0.2738
H2 H 0.1996 0.3116 0.2230
N1 N 0.2693(4) 0.3526(3) 0.0161(2)
N2 N 0.4038(5) 0.5554(3) 0.0932(2)
N3 N 0.2624(5) 0.6899(3) -0.0015(3)
H3 H 0.1932 0.7200 -0.0482
N4 N 0.5147(5) 0.2039(3) 0.1358(3)
N5 N 0.5994(6) -0.0110(4) 0.1728(3)
N6 N 0.8515(5) -0.0754(4) 0.2799(3)
C1 C 0.2049(6) 0.2439(4) -0.0178(3)
H4 H 0.2488 0.1687 0.0101
C2 C 0.0763(6) 0.2382(4) -0.0922(3)
H5 H 0.0323 0.1600 -0.1145
C3 C 0.0129(6) 0.3455(5) -0.1336(3)
H6 H -0.0757 0.3422 -0.1846
C4 C 0.0786(6) 0.4587(4) -0.1010(3)
H7 H 0.0370 0.5342 -0.1291
C5 C 0.2080(5) 0.4590(4) -0.0254(3)
C6 C 0.2889(5) 0.5695(4) 0.0191(3)
C7 C 0.4521(6) 0.6739(4) 0.1227(3)
H8 H 0.5329 0.6936 0.1747
C8 C 0.3645(6) 0.7579(4) 0.0647(3)
H9 H 0.3721 0.8459 0.0689
C9 C 0.5620(5) 0.1055(4) 0.1558(3)
C10 C 0.7361(6) -0.0403(4) 0.2304(3)
N6C N 0.6485(5) 0.4246(4) 0.2201(3)
Cu1C Cu 1.05176(6) -0.12027(5) 0.37159(3)
O2 O 0.5789(11) 0.5667(7) 0.4172(6)
O3 O 0.3271(8) 0.5671(7) 0.3289(4)
O4 O 0.5225(7) 0.7276(6) 0.3502(4)
N7 N 0.4687(10) 0.6230(6) 0.3614(4)
loop_
_geom_bond_atom_site_label_1
_geom_bond_atom_site_label_2
_geom_bond_site_symmetry_1
_geom_bond_site_symmetry_2
Cu1 O1 1_555 1_555
O1 H1 1_555 1_555
H2 O1 1_555 1_555
O2 N7 1_555 1_555
O3 N7 1_555 1_555
O4 N7 1_555 1_555
N1 Cu1 1_555 1_555
N2 Cu1 1_555 1_555
N3 H3 1_555 1_555
N4 Cu1 1_555 1_555
N5 C9 1_555 1_555
N6 C10 1_555 1_555
C1 N1 1_555 1_555
H4 C1 1_555 1_555
C2 C1 1_555 1_555
H5 C2 1_555 1_555
C3 C2 1_555 1_555
H6 C3 1_555 1_555
C4 C3 1_555 1_555
H7 C4 1_555 1_555
C5 N1 1_555 1_555
C6 N2 1_555 1_555
C7 N2 1_555 1_555
H8 C7 1_555 1_555
C8 N3 1_555 1_555
H9 C8 1_555 1_555
C9 N4 1_555 1_555
C10 N5 1_555 1_555
N6C Cu1 1_555 1_555
Cu1C N6 1_555 1_555
N3 C6 1_555 1_555
C4 C5 1_555 1_555
C5 C6 1_555 1_555
C7 C8 1_555 1_555

#END
