
#######################################################################
#
#                 Cambridge Crystallographic Data Centre
#                                CCDC 
#
#######################################################################
#
# If this CIF has been generated from an entry in the Cambridge 
# Structural Database, then it will include bibliographic, chemical, 
# crystal, experimental, refinement or atomic coordinate data resulting 
# from the CCDC's data processing and validation procedures.
#
#######################################################################

data_MOVQAR
_symmetry_cell_setting           orthorhombic
_symmetry_space_group_name_H-M   'P 21 21 2'
_symmetry_Int_Tables_number      18
_space_group_name_Hall           'P 2 2ab'
loop_
_symmetry_equiv_pos_site_id
_symmetry_equiv_pos_as_xyz
1 x,y,z
2 -x,-y,z
3 1/2+x,1/2-y,-z
4 1/2-x,1/2+y,-z
_cell_length_a                   24.8423(8)
_cell_length_b                   29.7383(7)
_cell_length_c                   14.8381(2)
_cell_angle_alpha                90
_cell_angle_beta                 90
_cell_angle_gamma                90
_cell_volume                     10961.9
loop_
_atom_site_label
_atom_site_type_symbol
_atom_site_fract_x
_atom_site_fract_y
_atom_site_fract_z
Au1 Au 0.14323(8) 0.19624(6) 0.89472(11)
S1 S 0.1655(6) 0.1437(4) 1.0007(7)
P1 P 0.1183(6) 0.2510(4) 0.7968(7)
Cu1 Cu 0.2089(3) 0.0935(2) 0.9066(4)
C1 C 0.1059(18) 0.1076(12) 1.023(3)
C2 C 0.0534(13) 0.2420(15) 0.742(2)
C3 C 0.1078(15) 0.3033(9) 0.854(2)
C4 C 0.1634(19) 0.2618(15) 0.707(3)
O1 O 0.2091(17) 0.0454(15) 1.019(3)
N1 N 0.140(2) 0.0618(13) 0.898(3)
S2 S 0.2878(6) 0.1331(4) 0.9051(10)
N2 N 0.242(2) 0.0516(12) 0.810(3)
C5 C 0.113(2) 0.064(2) 0.988(3)
C6 C 0.102(3) 0.102(3) 1.123(4)
C7 C 0.059(3) 0.127(2) 0.968(6)
C8 C 0.0194(18) 0.2766(11) 0.715(2)
C9 C 0.0406(15) 0.1976(13) 0.721(2)
C10 C 0.1359(14) 0.3414(11) 0.8269(19)
C11 C 0.0710(15) 0.3059(10) 0.924(2)
H1 H 0.1495 0.2881 0.6733
H2 H 0.1983 0.2709 0.7337
C12 C 0.174(2) 0.2267(19) 0.643(3)
C13 C 0.1587(18) 0.0388(12) 1.036(2)
H3 H 0.1190 0.0750 0.8557
H4 H 0.1458 0.0327 0.8819
H5 H 0.0786 0.0460 0.9881
H6 H 0.0969 0.1321 1.1506
H7 H 0.0708 0.0833 1.1376
H8 H 0.1347 0.0887 1.1462
H9 H 0.0515 0.1574 0.9883
H10 H 0.0691 0.1271 0.9042
H11 H 0.0273 0.1078 0.9766
H12 H 0.0282 0.3069 0.7293
C14 C -0.0275(16) 0.2669(14) 0.668(2)
C15 C -0.0063(17) 0.1879(12) 0.674(2)
H13 H 0.0638 0.1740 0.7398
H14 H 0.1611 0.3397 0.7788
C16 C 0.1273(17) 0.3821(9) 0.871(2)
C17 C 0.0623(15) 0.3466(13) 0.968(2)
H15 H 0.0517 0.2798 0.9422
H16 H 0.1413 0.2231 0.6054
H17 H 0.1788 0.1984 0.6768
C18 C 0.2205(16) 0.2307(11) 0.580(2)
O2 O 0.148(2) 0.0086(14) 1.096(3)
H18 H -0.0507 0.2905 0.6496
C19 C -0.0403(13) 0.2226(16) 0.647(2)
H19 H -0.0150 0.1576 0.6600
H20 H 0.1466 0.4082 0.8524
C20 C 0.0905(17) 0.3847(9) 0.941(2)
H21 H 0.0372 0.3484 1.0158
H22 H 0.2189 0.2610 0.5520
H23 H 0.2538 0.2296 0.6163
C21 C 0.226(2) 0.1984(14) 0.507(2)
H24 H -0.0723 0.2159 0.6149
H25 H 0.0846 0.4126 0.9709
P2 P 0.2794(5) 0.2157(4) 0.4284(6)
H26 H 0.1917 0.1956 0.4747
H27 H 0.2353 0.1686 0.5330
Au2 Au 0.26515(7) 0.28543(5) 0.37670(10)
C22 C 0.2812(13) 0.1753(8) 0.3378(15)
C23 C 0.3440(11) 0.2132(11) 0.4890(17)
Au3 Au 0.13913(8) 0.30233(5) 0.39674(10)
S3 S 0.2529(5) 0.3566(3) 0.3170(7)
C24 C 0.2545(15) 0.1345(9) 0.3484(17)
C25 C 0.3025(12) 0.1870(7) 0.2544(18)
C26 C 0.3676(14) 0.2512(8) 0.526(2)
C27 C 0.3665(13) 0.1710(9) 0.5039(19)
S4 S 0.1615(5) 0.3551(3) 0.5020(7)
P3 P 0.1145(5) 0.2485(3) 0.2989(7)
Cu2 Cu 0.2067(3) 0.40557(18) 0.4047(4)
C28 C 0.325(3) 0.3848(18) 0.313(4)
H28 H 0.2400 0.1265 0.4054
C29 C 0.2492(14) 0.1054(8) 0.276(2)
C30 C 0.2971(13) 0.1579(9) 0.1816(14)
H29 H 0.3207 0.2148 0.2471
H30 H 0.3523 0.2800 0.5161
C31 C 0.4138(14) 0.2471(9) 0.579(2)
C32 C 0.4126(14) 0.1669(9) 0.556(2)
H31 H 0.3503 0.1451 0.4784
C33 C 0.0965(19) 0.3949(12) 0.519(2)
C34 C 0.0561(10) 0.2622(10) 0.2390(18)
C35 C 0.1062(16) 0.1933(8) 0.355(2)
C36 C 0.163(2) 0.2331(14) 0.215(2)
O3 O 0.1325(14) 0.4056(10) 0.3108(19)
N3 N 0.2698(15) 0.4465(12) 0.383(3)
N4 N 0.155(2) 0.4545(12) 0.463(3)
C37 C 0.308(3) 0.432(2) 0.315(5)
C38 C 0.349(2) 0.3735(17) 0.407(4)
C39 C 0.352(2) 0.3693(19) 0.240(4)
H32 H 0.2310 0.0776 0.2829
C40 C 0.2705(14) 0.1171(8) 0.1922(17)
H33 H 0.3117 0.1659 0.1246
H34 H 0.4300 0.2731 0.6042
C41 C 0.4363(11) 0.2050(12) 0.594(2)
H35 H 0.4280 0.1381 0.5665
C42 C 0.0979(18) 0.4308(12) 0.451(2)
C43 C 0.103(2) 0.4109(12) 0.616(2)
C44 C 0.051(2) 0.3628(14) 0.510(3)
C45 C 0.0239(13) 0.2283(7) 0.2033(19)
C46 C 0.0412(12) 0.3070(8) 0.2289(18)
C47 C 0.1276(15) 0.1533(10) 0.323(2)
C48 C 0.0753(16) 0.1932(9) 0.433(2)
H36 H 0.1958 0.2207 0.2447
H37 H 0.1483 0.2093 0.1756
C49 C 0.1804(17) 0.2740(10) 0.155(2)
C50 C 0.0913(16) 0.4159(10) 0.355(2)
H38 H 0.2569 0.4740 0.3668
H39 H 0.2878 0.4500 0.4358
H40 H 0.1635 0.4593 0.5218
H41 H 0.1571 0.4810 0.4324
H42 H 0.2837 0.4327 0.2611
C51 C 0.3516(18) 0.4625(12) 0.282(3)
H43 H 0.3261 0.3862 0.4546
H44 H 0.3510 0.3408 0.4146
H45 H 0.3852 0.3863 0.4117
H46 H 0.3603 0.3374 0.2478
H47 H 0.3295 0.3731 0.1857
H48 H 0.3853 0.3864 0.2325
H49 H 0.2668 0.0972 0.1425
H50 H 0.4678 0.2022 0.6294
H51 H 0.0691 0.4531 0.4656
H52 H 0.1020 0.3850 0.6564
H53 H 0.1382 0.4261 0.6220
H54 H 0.0744 0.4319 0.6308
H55 H 0.0533 0.3402 0.5583
H56 H 0.0167 0.3792 0.5162
H57 H 0.0523 0.3479 0.4516
H58 H 0.0341 0.1977 0.2102
C52 C -0.0231(12) 0.2393(9) 0.1575(18)
C53 C -0.0058(13) 0.3179(8) 0.1831(19)
H59 H 0.0632 0.3301 0.2533
H60 H 0.1487 0.1533 0.2692
C54 C 0.1180(16) 0.1132(8) 0.368(2)
C55 C 0.0658(16) 0.1531(12) 0.479(2)
H61 H 0.0607 0.2206 0.4556
H62 H 0.1484 0.2853 0.1222
H63 H 0.1938 0.2984 0.1940
C56 C 0.222(2) 0.2623(13) 0.089(2)
O4 O 0.0437(14) 0.4144(12) 0.329(2)
O5 O 0.372(2) 0.4770(13) 0.353(3)
O6 O 0.364(2) 0.4710(14) 0.202(3)
H64 H -0.0451 0.2161 0.1331
C57 C -0.0380(11) 0.2840(11) 0.1474(17)
H65 H -0.0160 0.3485 0.1762
H66 H 0.1327 0.0858 0.3458
C58 C 0.0872(17) 0.1131(9) 0.446(2)
H67 H 0.0447 0.1531 0.5322
H68 H 0.2119 0.2343 0.0572
H69 H 0.2565 0.2563 0.1213
C59 C 0.2329(19) 0.3012(13) 0.015(2)
H70 H -0.0701 0.2915 0.1161
H71 H 0.0807 0.0857 0.4773
P4 P 0.2841(5) 0.2836(4) -0.0619(7)
H72 H 0.2441 0.3293 0.0454
H73 H 0.1992 0.3074 -0.0186
Au4 Au 0.27768(9) 0.20941(6) -0.09629(14)
C60 C 0.3475(12) 0.2906(15) -0.006(2)
C61 C 0.2782(14) 0.3195(10) -0.1585(15)
C62 C 0.3741(16) 0.3317(12) -0.006(2)
C63 C 0.3687(16) 0.2542(11) 0.041(2)
C64 C 0.2983(16) 0.3050(9) -0.2409(18)
C65 C 0.2647(16) 0.3645(11) -0.1464(17)
C66 C 0.3133(16) 0.1124(11) -0.205(3)
H74 H 0.3596 0.3565 -0.0377
C67 C 0.4220(16) 0.3365(12) 0.042(2)
C68 C 0.4166(16) 0.2590(12) 0.089(2)
H75 H 0.3506 0.2261 0.0407
H76 H 0.3075 0.2742 -0.2492
C69 C 0.3050(18) 0.3354(12) -0.3112(16)
C70 C 0.2714(19) 0.3949(9) -0.217(2)
H77 H 0.2510 0.3744 -0.0901
C71 C 0.304(2) 0.0608(12) -0.204(3)
C72 C 0.3729(16) 0.1197(18) -0.195(5)
C73 C 0.288(2) 0.1407(17) -0.276(3)
H78 H 0.4402 0.3646 0.0424
C74 C 0.4432(12) 0.3002(16) 0.089(2)
H79 H 0.4311 0.2342 0.1208
H80 H 0.3188 0.3254 -0.3675
C75 C 0.2916(19) 0.3803(11) -0.299(2)
H81 H 0.2622 0.4256 -0.2084
H82 H 0.3246 0.0477 -0.1523
C76 C 0.3229(16) 0.0379(10) -0.289(2)
H83 H 0.3869 0.1001 -0.1476
H84 H 0.3909 0.1126 -0.2523
H85 H 0.3798 0.1512 -0.1795
H86 H 0.2494 0.1343 -0.2791
H87 H 0.2935 0.1726 -0.2618
H88 H 0.3046 0.1340 -0.3346
H89 H 0.2369 0.0225 -0.1736
H90 H 0.2243 0.0560 -0.2436
H91 H 0.4759 0.3034 0.1217
H92 H 0.2962 0.4011 -0.3471
O7 O 0.2894(15) 0.0325(14) -0.352(3)
O8 O 0.3716(16) 0.0264(13) -0.292(3)
S2_2 S 0.2878(6) 0.1331(4) -0.0949(10)
Cu1_2 Cu 0.2089(3) 0.0935(2) -0.0934(4)
N2_2 N 0.242(2) 0.0516(12) -0.190(3)
O9 O 0.046(2) 0.5502(13) 0.400(3)
O10 O 0.284(2) 0.5787(14) 0.464(3)
O11 O 0.031(2) 0.4276(13) 0.148(3)
O12 O 0.293(3) 0.4959(17) 0.572(3)
O13 O 0.135(4) 0.390(2) 0.142(5)
O14 O 0.078(3) 0.5087(16) 0.139(3)
O15 O 0.306(4) 0.440(2) 0.044(5)
O16 O 0.353(3) 0.5947(19) 0.318(4)
loop_
_geom_bond_atom_site_label_1
_geom_bond_atom_site_label_2
_geom_bond_site_symmetry_1
_geom_bond_site_symmetry_2
Au1 S1 1_555 1_555
S1 Cu1 1_555 1_555
P1 Au1 1_555 1_555
Cu1 O1 1_555 1_555
C1 S1 1_555 1_555
C2 P1 1_555 1_555
C3 P1 1_555 1_555
C4 P1 1_555 1_555
O1 C13 1_555 1_555
N1 Cu1 1_555 1_555
S2 Cu1 1_555 1_555
N2 Cu1 1_555 1_555
C5 C1 1_555 1_555
C6 C1 1_555 1_555
C7 C1 1_555 1_555
C8 C2 1_555 1_555
C9 C2 1_555 1_555
C10 C3 1_555 1_555
C11 C3 1_555 1_555
H1 C4 1_555 1_555
H2 C4 1_555 1_555
C12 C4 1_555 1_555
C13 C5 1_555 1_555
H3 N1 1_555 1_555
H4 N1 1_555 1_555
H5 C5 1_555 1_555
H6 C6 1_555 1_555
H7 C6 1_555 1_555
H8 C6 1_555 1_555
H9 C7 1_555 1_555
H10 C7 1_555 1_555
H11 C7 1_555 1_555
H12 C8 1_555 1_555
C14 C8 1_555 1_555
C15 C9 1_555 1_555
H13 C9 1_555 1_555
H14 C10 1_555 1_555
C16 C10 1_555 1_555
C17 C11 1_555 1_555
H15 C11 1_555 1_555
H16 C12 1_555 1_555
H17 C12 1_555 1_555
C18 C12 1_555 1_555
O2 C13 1_555 1_555
H18 C14 1_555 1_555
C19 C14 1_555 1_555
H19 C15 1_555 1_555
H20 C16 1_555 1_555
C20 C16 1_555 1_555
H21 C17 1_555 1_555
H22 C18 1_555 1_555
H23 C18 1_555 1_555
C21 C18 1_555 1_555
H24 C19 1_555 1_555
H25 C20 1_555 1_555
P2 C21 1_555 1_555
H26 C21 1_555 1_555
H27 C21 1_555 1_555
Au2 P2 1_555 1_555
C22 P2 1_555 1_555
C23 P2 1_555 1_555
Au3 Au2 1_555 1_555
S3 Au2 1_555 1_555
C24 C22 1_555 1_555
C25 C22 1_555 1_555
C26 C23 1_555 1_555
C27 C23 1_555 1_555
S4 Au3 1_555 1_555
P3 Au3 1_555 1_555
Cu2 S3 1_555 1_555
C28 S3 1_555 1_555
H28 C24 1_555 1_555
C29 C24 1_555 1_555
C30 C25 1_555 1_555
H29 C25 1_555 1_555
H30 C26 1_555 1_555
C31 C26 1_555 1_555
C32 C27 1_555 1_555
H31 C27 1_555 1_555
C33 S4 1_555 1_555
C34 P3 1_555 1_555
C35 P3 1_555 1_555
C36 P3 1_555 1_555
O3 Cu2 1_555 1_555
N3 Cu2 1_555 1_555
N4 Cu2 1_555 1_555
C37 C28 1_555 1_555
C38 C28 1_555 1_555
C39 C28 1_555 1_555
H32 C29 1_555 1_555
C40 C29 1_555 1_555
H33 C30 1_555 1_555
H34 C31 1_555 1_555
C41 C31 1_555 1_555
H35 C32 1_555 1_555
C42 C33 1_555 1_555
C43 C33 1_555 1_555
C44 C33 1_555 1_555
C45 C34 1_555 1_555
C46 C34 1_555 1_555
C47 C35 1_555 1_555
C48 C35 1_555 1_555
H36 C36 1_555 1_555
H37 C36 1_555 1_555
C49 C36 1_555 1_555
C50 O3 1_555 1_555
H38 N3 1_555 1_555
H39 N3 1_555 1_555
H40 N4 1_555 1_555
H41 N4 1_555 1_555
H42 C37 1_555 1_555
C51 C37 1_555 1_555
H43 C38 1_555 1_555
H44 C38 1_555 1_555
H45 C38 1_555 1_555
H46 C39 1_555 1_555
H47 C39 1_555 1_555
H48 C39 1_555 1_555
H49 C40 1_555 1_555
H50 C41 1_555 1_555
H51 C42 1_555 1_555
H52 C43 1_555 1_555
H53 C43 1_555 1_555
H54 C43 1_555 1_555
H55 C44 1_555 1_555
H56 C44 1_555 1_555
H57 C44 1_555 1_555
H58 C45 1_555 1_555
C52 C45 1_555 1_555
C53 C46 1_555 1_555
H59 C46 1_555 1_555
H60 C47 1_555 1_555
C54 C47 1_555 1_555
C55 C48 1_555 1_555
H61 C48 1_555 1_555
H62 C49 1_555 1_555
H63 C49 1_555 1_555
C56 C49 1_555 1_555
O4 C50 1_555 1_555
O5 C51 1_555 1_555
O6 C51 1_555 1_555
H64 C52 1_555 1_555
C57 C52 1_555 1_555
H65 C53 1_555 1_555
H66 C54 1_555 1_555
C58 C54 1_555 1_555
H67 C55 1_555 1_555
H68 C56 1_555 1_555
H69 C56 1_555 1_555
C59 C56 1_555 1_555
H70 C57 1_555 1_555
H71 C58 1_555 1_555
P4 C59 1_555 1_555
H72 C59 1_555 1_555
H73 C59 1_555 1_555
Au4 P4 1_555 1_555
C60 P4 1_555 1_555
C61 P4 1_555 1_555
C62 C60 1_555 1_555
C63 C60 1_555 1_555
C64 C61 1_555 1_555
C65 C61 1_555 1_555
C66 C71 1_555 1_555
H74 C62 1_555 1_555
C67 C62 1_555 1_555
C68 C63 1_555 1_555
H75 C63 1_555 1_555
H76 C64 1_555 1_555
C69 C64 1_555 1_555
C70 C65 1_555 1_555
H77 C65 1_555 1_555
C71 H82 1_555 1_555
C72 C66 1_555 1_555
C73 C66 1_555 1_555
H78 C67 1_555 1_555
C74 C67 1_555 1_555
H79 C68 1_555 1_555
H80 C69 1_555 1_555
C75 C69 1_555 1_555
H81 C70 1_555 1_555
C76 C71 1_555 1_555
H83 C72 1_555 1_555
H84 C72 1_555 1_555
H85 C72 1_555 1_555
H86 C73 1_555 1_555
H87 C73 1_555 1_555
H88 C73 1_555 1_555
H89 N2_2 1_555 1_555
H90 N2_2 1_555 1_555
H91 C74 1_555 1_555
H92 C75 1_555 1_555
O7 C76 1_555 1_555
O8 C76 1_555 1_555
S2_2 Au4 1_555 1_555
Cu1_2 S2_2 1_555 1_555
N2_2 C71 1_555 1_555
N1 C5 1_555 1_555
C15 C19 1_555 1_555
C17 C20 1_555 1_555
S4 Cu2 1_555 1_555
C30 C40 1_555 1_555
C32 C41 1_555 1_555
N3 C37 1_555 1_555
N4 C42 1_555 1_555
C42 C50 1_555 1_555
C53 C57 1_555 1_555
C55 C58 1_555 1_555
C66 S2_2 1_555 1_555
C68 C74 1_555 1_555
C70 C75 1_555 1_555
Cu1_2 N2_2 1_555 1_555

#END
