
#######################################################################
#
#                 Cambridge Crystallographic Data Centre
#                                CCDC 
#
#######################################################################
#
# If this CIF has been generated from an entry in the Cambridge 
# Structural Database, then it will include bibliographic, chemical, 
# crystal, experimental, refinement or atomic coordinate data resulting 
# from the CCDC's data processing and validation procedures.
#
#######################################################################

data_MOVSAR01
_symmetry_cell_setting           monoclinic
_symmetry_space_group_name_H-M   'C 2/c'
_symmetry_Int_Tables_number      15
_space_group_name_Hall           '-C 2yn'
loop_
_symmetry_equiv_pos_site_id
_symmetry_equiv_pos_as_xyz
1 x,y,z
2 -x,y,1/2-z
3 1/2+x,1/2+y,z
4 1/2-x,1/2+y,1/2-z
5 -x,-y,-z
6 x,-y,1/2+z
7 1/2-x,1/2-y,-z
8 1/2+x,1/2-y,1/2+z
_cell_length_a                   16.1695
_cell_length_b                   11.8116
_cell_length_c                   7.0266
_cell_angle_alpha                90.0
_cell_angle_beta                 99.53
_cell_angle_gamma                90.0
_cell_volume                     1323.47
loop_
_atom_site_label
_atom_site_type_symbol
_atom_site_fract_x
_atom_site_fract_y
_atom_site_fract_z
Cu1 Cu 0.50000 0.24700 0.25000
N1 N 0.50000 0.52230 0.25000
N2 N 0.40860 0.36445 0.22115
C1 C 0.42110 0.47745 0.22000
C2 C 0.32730 0.32860 0.18860
C3 C 0.25975 0.39880 0.15785
C4 C 0.27375 0.51510 0.15700
C5 C 0.35385 0.55400 0.18840
O1 O 0.41780 0.12335 0.27735
S1 S 0.50000 0.16330 0.75000
O2 O 0.43115 0.08990 0.65230
O3 O 0.52975 0.23405 0.60460
H1 H 0.31775 0.24840 0.19270
H2 H 0.20650 0.37195 0.13890
H3 H 0.23155 0.56185 0.13460
H4 H 0.36730 0.62890 0.19220
H5 H 0.50000 0.58120 0.25000
C1A C 0.57890 0.47745 0.28000
N2A N 0.59140 0.36445 0.27885
C2A C 0.67270 0.32860 0.31140
C3A C 0.74025 0.39880 0.34215
C4A C 0.72625 0.51510 0.34300
C5A C 0.64615 0.55400 0.31160
H4A H 0.63270 0.62890 0.30780
H3A H 0.76845 0.56185 0.36540
H2A H 0.79350 0.37195 0.36110
H1A H 0.68225 0.24840 0.30730
O2A O 0.56885 0.08990 0.84770
O3A O 0.47025 0.23405 0.89540
O1A O 0.58220 0.12335 0.22265
O3A_2 O 0.47025 0.23405 -0.10460
Cu1_2 Cu 0.50000 0.24700 1.25000
loop_
_geom_bond_atom_site_label_1
_geom_bond_atom_site_label_2
_geom_bond_site_symmetry_1
_geom_bond_site_symmetry_2
Cu1 N2 1_555 1_555
N1 C1 1_555 1_555
N2 C1 1_555 1_555
C1 C5 1_555 1_555
C2 N2 1_555 1_555
C3 C2 1_555 1_555
C4 C3 1_555 1_555
C5 C4 1_555 1_555
O1 Cu1 1_555 1_555
S1 O2 1_555 1_555
O3 Cu1 1_555 1_555
H1 C2 1_555 1_555
H2 C3 1_555 1_555
H3 C4 1_555 1_555
H4 C5 1_555 1_555
H5 N1 1_555 1_555
C1A N1 1_555 1_555
N2A Cu1 1_555 1_555
C2A N2A 1_555 1_555
C3A C2A 1_555 1_555
C4A C3A 1_555 1_555
C5A C1A 1_555 1_555
H4A C5A 1_555 1_555
H3A C4A 1_555 1_555
H2A C3A 1_555 1_555
H1A C2A 1_555 1_555
O2A S1 1_555 1_555
O3A S1 1_555 1_555
O1A Cu1 1_555 1_555
O3A_2 Cu1 1_555 1_555
Cu1_2 O3A 1_555 1_555
S1 O3 1_555 1_555
C1A N2A 1_555 1_555
C4A C5A 1_555 1_555

#END
