
#######################################################################
#
#                 Cambridge Crystallographic Data Centre
#                                CCDC 
#
#######################################################################
#
# If this CIF has been generated from an entry in the Cambridge 
# Structural Database, then it will include bibliographic, chemical, 
# crystal, experimental, refinement or atomic coordinate data resulting 
# from the CCDC's data processing and validation procedures.
#
#######################################################################

data_MOVXOM
_symmetry_cell_setting           monoclinic
_symmetry_space_group_name_H-M   'P 21/n'
_symmetry_Int_Tables_number      14
_space_group_name_Hall           '-P 2yn'
loop_
_symmetry_equiv_pos_site_id
_symmetry_equiv_pos_as_xyz
1 x,y,z
2 1/2-x,1/2+y,1/2-z
3 -x,-y,-z
4 1/2+x,1/2-y,1/2+z
_cell_length_a                   13.667(3)
_cell_length_b                   8.6263(17)
_cell_length_c                   18.669(4)
_cell_angle_alpha                90
_cell_angle_beta                 92.34(3)
_cell_angle_gamma                90
_cell_volume                     2199.16
loop_
_atom_site_label
_atom_site_type_symbol
_atom_site_fract_x
_atom_site_fract_y
_atom_site_fract_z
S1 S 0.28375(8) 0.80506(13) 0.50779(5)
Cd1 Cd 0.273986(17) 0.88981(3) 0.691189(14)
C1 C 0.0519(3) 0.9608(7) 0.6333(3)
H1 H 0.0866 1.0131 0.5990
C2 C -0.0497(4) 0.9688(8) 0.6296(3)
H2 H -0.0825 1.0247 0.5934
C3 C -0.1007(3) 0.8913(6) 0.6810(3)
C4 C -0.0501(3) 0.8097(6) 0.7329(3)
H3 H -0.0827 0.7568 0.7682
C5 C 0.0508(3) 0.8076(6) 0.7316(2)
H4 H 0.0853 0.7506 0.7665
C6 C -0.3520(3) 0.8826(5) 0.7186(3)
C7 C -0.4003(3) 0.9356(6) 0.6569(2)
H5 H -0.3656 0.9659 0.6174
C8 C -0.5005(3) 0.9426(5) 0.6553(2)
H6 H -0.5329 0.9776 0.6136
C9 C -0.5074(3) 0.8515(7) 0.7692(3)
H7 H -0.5441 0.8232 0.8080
C10 C -0.4060(3) 0.8385(8) 0.7760(3)
H8 H -0.3755 0.8013 0.8180
C11 C 0.4627(4) 0.7165(6) 0.4609(3)
H9 H 0.4873 0.8007 0.4870
C12 C 0.5250(5) 0.6252(7) 0.4262(3)
H10 H 0.5917 0.6465 0.4272
C13 C 0.4887(6) 0.5044(9) 0.3905(4)
H11 H 0.5323 0.4406 0.3674
C14 C 0.3298(5) 0.5627(7) 0.4193(3)
H12 H 0.2630 0.5428 0.4157
C15 C 0.3645(3) 0.6884(5) 0.4588(2)
C16 C 0.2454(3) 0.5880(5) 0.5940(2)
H13 H 0.2823 0.5158 0.5659
H14 H 0.1782 0.5875 0.5753
C17 C 0.2481(3) 0.5347(4) 0.6711(2)
N1 N 0.1011(2) 0.8827(4) 0.6831(2)
N2 N -0.2051(3) 0.9056(6) 0.6751(3)
N3 N -0.2478(3) 0.8656(5) 0.7264(2)
N4 N -0.5542(2) 0.9020(4) 0.7103(2)
N5 N 0.2863(3) 0.7440(4) 0.58641(17)
N6 N 0.3935(6) 0.4676(7) 0.3855(3)
O1 O 0.2655(2) 0.6282(3) 0.72094(15)
O2 O 0.2280(2) 0.3949(3) 0.68214(16)
O3 O 0.1901(3) 0.7887(5) 0.47060(19)
O4 O 0.3262(3) 0.9588(4) 0.50752(17)
O5 O 0.2778(3) 1.1178(3) 0.62689(18)
Cd1_2 Cd -0.726014(17) 0.88981(3) 0.691189(14)
Cd1A Cd 0.226014(17) 0.38981(3) 0.808811(14)
N4_2 N 0.4458(2) 0.9020(4) 0.7103(2)
O1A O 0.2345(2) 1.1282(3) 0.77906(15)
O2A O 0.2720(2) 0.8949(3) 0.81786(16)
O6 O 0.8196(18) 0.767(3) 0.5086(13)
H15 H 0.7575 0.7607 0.5074
H16 H 0.8437 0.6777 0.5175
O7 O 0.9849(12) 0.6430(19) 0.4846(10)
H17 H 1.0209 0.6010 0.4539
H18 H 0.9732 0.5757 0.5164
loop_
_geom_bond_atom_site_label_1
_geom_bond_atom_site_label_2
_geom_bond_site_symmetry_1
_geom_bond_site_symmetry_2
S1 C15 1_555 1_555
Cd1 N1 1_555 1_555
C1 H1 1_555 1_555
C2 C1 1_555 1_555
H2 C2 1_555 1_555
C3 C2 1_555 1_555
C4 C3 1_555 1_555
H3 C4 1_555 1_555
C5 C4 1_555 1_555
H4 C5 1_555 1_555
C6 C7 1_555 1_555
C7 H5 1_555 1_555
C8 C7 1_555 1_555
H6 C8 1_555 1_555
C9 H7 1_555 1_555
C10 C6 1_555 1_555
H8 C10 1_555 1_555
C11 H9 1_555 1_555
C12 C11 1_555 1_555
H10 C12 1_555 1_555
C13 C12 1_555 1_555
H11 C13 1_555 1_555
C14 H12 1_555 1_555
C15 C11 1_555 1_555
C16 H13 1_555 1_555
H14 C16 1_555 1_555
C17 C16 1_555 1_555
N1 C1 1_555 1_555
N2 C3 1_555 1_555
N3 C6 1_555 1_555
N4 C8 1_555 1_555
N5 S1 1_555 1_555
N6 C13 1_555 1_555
O1 Cd1 1_555 1_555
O2 C17 1_555 1_555
O3 S1 1_555 1_555
O4 S1 1_555 1_555
O5 Cd1 1_555 1_555
O6 H15 1_555 1_555
H16 O6 1_555 1_555
O7 H17 1_555 1_555
H18 O7 1_555 1_555
Cd1_2 N4 1_555 1_555
Cd1A O1 1_555 1_555
N4_2 Cd1 1_555 1_555
O1A Cd1 1_555 1_555
O2A Cd1 1_555 1_555
Cd1 N5 1_555 1_555
C5 N1 1_555 1_555
C9 C10 1_555 1_555
C9 N4 1_555 1_555
C14 C15 1_555 1_555
C14 N6 1_555 1_555
C16 N5 1_555 1_555
C17 O1 1_555 1_555
N2 N3 1_555 1_555
O2 Cd1A 1_555 1_555

#END
