
#######################################################################
#
#                 Cambridge Crystallographic Data Centre
#                                CCDC 
#
#######################################################################
#
# If this CIF has been generated from an entry in the Cambridge 
# Structural Database, then it will include bibliographic, chemical, 
# crystal, experimental, refinement or atomic coordinate data resulting 
# from the CCDC's data processing and validation procedures.
#
#######################################################################

data_MOWLUG
_symmetry_cell_setting           triclinic
_symmetry_space_group_name_H-M   'P -1'
_symmetry_Int_Tables_number      2
_space_group_name_Hall           '-P 1'
loop_
_symmetry_equiv_pos_site_id
_symmetry_equiv_pos_as_xyz
1 x,y,z
2 -x,-y,-z
_cell_length_a                   8.8027(16)
_cell_length_b                   9.0361(17)
_cell_length_c                   11.563(2)
_cell_angle_alpha                101.675(4)
_cell_angle_beta                 101.566(4)
_cell_angle_gamma                114.559(3)
_cell_volume                     776.287
loop_
_atom_site_label
_atom_site_type_symbol
_atom_site_fract_x
_atom_site_fract_y
_atom_site_fract_z
Ti1 Ti 0.67483(6) 0.65184(6) 0.61704(4)
O1 O 0.5104(2) 0.6036(2) 0.44574(16)
O2 O 0.7947(2) 0.6352(2) 0.75457(17)
O3 O 0.5416(2) 0.7331(3) 0.68672(17)
O4 O 0.8437(3) 0.8553(2) 0.61013(18)
N1 N 0.8047(3) 0.5443(3) 0.4935(2)
H1 H 0.7206 0.4344 0.4447
H2 H 0.8290 0.6082 0.4406
C1 C 0.9653(3) 0.5356(3) 0.5475(2)
H3 H 0.9411 0.4630 0.6021
H4 H 1.0584 0.6525 0.6004
C2 C 1.0573(6) 0.7819(6) 0.9267(4)
H5 H 1.1220 0.8221 0.8700
H6 H 1.1314 0.7640 0.9920
H7 H 1.0264 0.8680 0.9649
C3 C 0.8945(4) 0.6179(4) 0.8561(3)
H8 H 0.9302 0.5307 0.8228
C4 C 0.7864(7) 0.5524(7) 0.9371(4)
H9 H 0.7581 0.6398 0.9768
H10 H 0.8535 0.5269 1.0015
H11 H 0.6771 0.4475 0.8861
C5 C 0.5490(4) 0.8044(4) 0.8093(3)
H12 H 0.6710 0.8497 0.8666
C6 C 0.4207(5) 0.6646(5) 0.8480(3)
H13 H 0.2996 0.6288 0.7987
H14 H 0.4369 0.7093 0.9367
H15 H 0.4428 0.5659 0.8334
C7 C 0.5075(6) 0.9498(5) 0.8143(4)
H16 H 0.5896 1.0343 0.7852
H17 H 0.5193 1.0045 0.9003
H18 H 0.3866 0.9058 0.7607
C8 C 0.4817(4) 0.7349(4) 0.4129(3)
H19 H 0.4246 0.7741 0.4675
H20 H 0.4057 0.6899 0.3261
H21 H 0.5949 0.8314 0.4225
C9 C 1.1324(5) 1.0870(5) 0.7122(4)
H22 H 1.1733 1.0110 0.7408
H23 H 1.2005 1.2029 0.7729
H24 H 1.1486 1.0908 0.6313
C10 C 0.9421(4) 1.0207(4) 0.6996(3)
H25 H 0.9258 1.0132 0.7818
C11 C 0.8748(6) 1.1369(5) 0.6591(4)
H26 H 0.8959 1.1494 0.5808
H27 H 0.9367 1.2499 0.7235
H28 H 0.7480 1.0868 0.6469
Ti1A Ti 0.32517(6) 0.34816(6) 0.38296(4)
Ti1A_2 Ti 1.32517(6) 0.34816(6) 0.38296(4)
O1A O 0.4896(2) 0.3964(2) 0.55426(16)
O2A O 0.2053(2) 0.3648(2) 0.24543(17)
O3A O 0.4584(2) 0.2669(3) 0.31328(17)
O4A O 0.1563(3) 0.1447(2) 0.38987(18)
N1A N 1.1953(3) 0.4557(3) 0.5065(2)
N1A_2 N 0.1953(3) 0.4557(3) 0.5065(2)
H1A H 1.2794 0.5656 0.5553
H1A_2 H 0.2794 0.5656 0.5553
H2A H 1.1710 0.3918 0.5594
H2A_2 H 0.1710 0.3918 0.5594
C1A C 1.0347(3) 0.4644(3) 0.4525(2)
H3A H 1.0589 0.5370 0.3979
H4A H 0.9416 0.3475 0.3996
C2A C -0.0573(6) 0.2181(6) 0.0733(4)
H5A H -0.1220 0.1779 0.1300
H6A H -0.1314 0.2360 0.0080
H7A H -0.0264 0.1320 0.0351
C3A C 0.1055(4) 0.3821(4) 0.1439(3)
H8A H 0.0698 0.4693 0.1772
C4A C 0.2136(7) 0.4476(7) 0.0629(4)
H9A H 0.2419 0.3602 0.0232
H10A H 0.1465 0.4731 -0.0015
H11A H 0.3229 0.5525 0.1139
C5A C 0.4510(4) 0.1956(4) 0.1907(3)
H12A H 0.3290 0.1503 0.1334
C6A C 0.5793(5) 0.3354(5) 0.1520(3)
H13A H 0.7004 0.3712 0.2013
H14A H 0.5631 0.2907 0.0633
H15A H 0.5572 0.4341 0.1666
C7A C 0.4925(6) 0.0502(5) 0.1857(4)
H16A H 0.4104 -0.0343 0.2148
H17A H 0.4807 -0.0045 0.0997
H18A H 0.6134 0.0942 0.2393
C8A C 0.5183(4) 0.2651(4) 0.5871(3)
H19A H 0.5754 0.2259 0.5325
H20A H 0.5943 0.3101 0.6739
H21A H 0.4051 0.1686 0.5775
C9A C -0.1324(5) -0.0870(5) 0.2878(4)
H22A H -0.1733 -0.0110 0.2592
H23A H -0.2005 -0.2029 0.2271
H24A H -0.1486 -0.0908 0.3687
C10A C 0.0579(4) -0.0207(4) 0.3004(3)
H25A H 0.0742 -0.0132 0.2182
C11A C 0.1252(6) -0.1369(5) 0.3409(4)
H26A H 0.1041 -0.1494 0.4192
H27A H 0.0633 -0.2499 0.2765
H28A H 0.2520 -0.0868 0.3531
loop_
_geom_bond_atom_site_label_1
_geom_bond_atom_site_label_2
_geom_bond_site_symmetry_1
_geom_bond_site_symmetry_2
Ti1 O1 1_555 1_555
O1 C8 1_555 1_555
O2 Ti1 1_555 1_555
O3 Ti1 1_555 1_555
O4 Ti1 1_555 1_555
N1 Ti1 1_555 1_555
H1 N1 1_555 1_555
H2 N1 1_555 1_555
C1 N1 1_555 1_555
H3 C1 1_555 1_555
H4 C1 1_555 1_555
C2 H5 1_555 1_555
H6 C2 1_555 1_555
H7 C2 1_555 1_555
C3 O2 1_555 1_555
H8 C3 1_555 1_555
C4 C3 1_555 1_555
H9 C4 1_555 1_555
H10 C4 1_555 1_555
H11 C4 1_555 1_555
C5 O3 1_555 1_555
H12 C5 1_555 1_555
C6 C5 1_555 1_555
H13 C6 1_555 1_555
H14 C6 1_555 1_555
H15 C6 1_555 1_555
C7 C5 1_555 1_555
H16 C7 1_555 1_555
H17 C7 1_555 1_555
H18 C7 1_555 1_555
C8 H19 1_555 1_555
H20 C8 1_555 1_555
H21 C8 1_555 1_555
C9 H22 1_555 1_555
H23 C9 1_555 1_555
H24 C9 1_555 1_555
C10 O4 1_555 1_555
H25 C10 1_555 1_555
C11 C10 1_555 1_555
H26 C11 1_555 1_555
H27 C11 1_555 1_555
H28 C11 1_555 1_555
Ti1A O1 1_555 1_555
Ti1A_2 N1A 1_555 1_555
O1A Ti1 1_555 1_555
O2A Ti1A 1_555 1_555
O3A Ti1A 1_555 1_555
O4A Ti1A 1_555 1_555
N1A H1A 1_555 1_555
N1A_2 Ti1A 1_555 1_555
H1A_2 N1A_2 1_555 1_555
H2A N1A 1_555 1_555
H2A_2 N1A_2 1_555 1_555
C1A C1 1_555 1_555
H3A C1A 1_555 1_555
H4A C1A 1_555 1_555
C2A H5A 1_555 1_555
H6A C2A 1_555 1_555
H7A C2A 1_555 1_555
C3A O2A 1_555 1_555
H8A C3A 1_555 1_555
C4A C3A 1_555 1_555
H9A C4A 1_555 1_555
H10A C4A 1_555 1_555
H11A C4A 1_555 1_555
C5A O3A 1_555 1_555
H12A C5A 1_555 1_555
C6A C5A 1_555 1_555
H13A C6A 1_555 1_555
H14A C6A 1_555 1_555
H15A C6A 1_555 1_555
C7A C5A 1_555 1_555
H16A C7A 1_555 1_555
H17A C7A 1_555 1_555
H18A C7A 1_555 1_555
C8A O1A 1_555 1_555
H19A C8A 1_555 1_555
H20A C8A 1_555 1_555
H21A C8A 1_555 1_555
C9A H22A 1_555 1_555
H23A C9A 1_555 1_555
H24A C9A 1_555 1_555
C10A O4A 1_555 1_555
H25A C10A 1_555 1_555
C11A C10A 1_555 1_555
H26A C11A 1_555 1_555
H27A C11A 1_555 1_555
H28A C11A 1_555 1_555
C2 C3 1_555 1_555
C9 C10 1_555 1_555
Ti1A O1A 1_555 1_555
N1A C1A 1_555 1_555
C2A C3A 1_555 1_555
C9A C10A 1_555 1_555

#END
