
#######################################################################
#
#                 Cambridge Crystallographic Data Centre
#                                CCDC 
#
#######################################################################
#
# If this CIF has been generated from an entry in the Cambridge 
# Structural Database, then it will include bibliographic, chemical, 
# crystal, experimental, refinement or atomic coordinate data resulting 
# from the CCDC's data processing and validation procedures.
#
#######################################################################

data_MOWNAN01
_symmetry_cell_setting           monoclinic
_symmetry_space_group_name_H-M   'P 21/n'
_symmetry_Int_Tables_number      14
_space_group_name_Hall           '-P 2yn'
loop_
_symmetry_equiv_pos_site_id
_symmetry_equiv_pos_as_xyz
1 x,y,z
2 1/2-x,1/2+y,1/2-z
3 -x,-y,-z
4 1/2+x,1/2-y,1/2+z
_cell_length_a                   11.4055(6)
_cell_length_b                   14.1242(7)
_cell_length_c                   12.4671(6)
_cell_angle_alpha                90
_cell_angle_beta                 115.2240(10)
_cell_angle_gamma                90
_cell_volume                     1816.87
loop_
_atom_site_label
_atom_site_type_symbol
_atom_site_fract_x
_atom_site_fract_y
_atom_site_fract_z
Mn1 Mn 0.02780(2) 0.219804(16) 0.159182(19)
O1 O -0.04379(11) 0.14608(7) 0.24171(10)
O2 O -0.05152(10) 0.33024(8) 0.18008(10)
O3 O -0.12816(10) 0.19286(9) -0.02003(10)
O4 O -0.28711(11) 0.25081(10) -0.18033(10)
N1 N 0.11152(12) 0.10855(10) 0.12134(11)
N2 N 0.12335(12) 0.28984(10) 0.08192(11)
C1 C -0.03162(15) 0.05450(11) 0.26347(13)
C2 C -0.08869(19) 0.01647(12) 0.33407(16)
C3 C -0.0817(2) -0.07912(13) 0.35866(18)
C4 C -0.01870(19) -0.14092(12) 0.31387(19)
C5 C 0.03804(17) -0.10649(12) 0.24504(17)
C6 C 0.03424(15) -0.00815(11) 0.21893(14)
C7 C 0.09927(15) 0.02154(12) 0.14901(14)
C8 C 0.18195(15) 0.13271(13) 0.05486(13)
C9 C 0.24678(18) 0.06767(15) 0.01494(16)
C10 C 0.31244(19) 0.09914(18) -0.04891(17)
C11 C 0.31355(18) 0.19454(19) -0.07549(17)
C12 C 0.25147(17) 0.25972(16) -0.03501(16)
C13 C 0.18669(15) 0.22913(13) 0.03203(14)
C14 C 0.13983(14) 0.38099(12) 0.08878(13)
C15 C 0.08130(15) 0.44565(11) 0.13966(13)
C16 C 0.11475(16) 0.54268(12) 0.14429(14)
C17 C 0.06079(18) 0.60989(12) 0.18815(15)
C18 C -0.03142(18) 0.58232(12) 0.22806(16)
C19 C -0.06819(16) 0.48875(12) 0.22346(15)
C20 C -0.01246(15) 0.41795(11) 0.18118(13)
C21 C -0.24352(15) 0.22098(10) -0.07637(14)
C22 C -0.33341(19) 0.21447(15) -0.01617(17)
H1 H -0.1326 0.0572 0.3653
H2 H -0.1206 -0.1032 0.4070
H3 H -0.0153 -0.2065 0.3309
H4 H 0.0806 -0.1488 0.2141
H5 H 0.1368 -0.0263 0.1202
H6 H 0.2457 0.0022 0.0316
H7 H 0.3574 0.0551 -0.0751
H8 H 0.3570 0.2149 -0.1215
H9 H 0.2528 0.3251 -0.0526
H10 H 0.1955 0.4069 0.0573
H11 H 0.1764 0.5615 0.1161
H12 H 0.0857 0.6745 0.1915
H13 H -0.0693 0.6286 0.2587
H14 H -0.1325 0.4721 0.2494
H15 H -0.2844 0.2191 0.0672
H16 H -0.3945 0.2648 -0.0429
H17 H -0.3778 0.1556 -0.0351
Mn1C Mn -0.47220(2) 0.280196(16) -0.340818(19)
O4C O 0.21289(11) 0.24919(10) 0.31967(10)
loop_
_geom_bond_atom_site_label_1
_geom_bond_atom_site_label_2
_geom_bond_site_symmetry_1
_geom_bond_site_symmetry_2
Mn1 O1 1_555 1_555
O1 C1 1_555 1_555
O2 Mn1 1_555 1_555
O3 Mn1 1_555 1_555
O4 C21 1_555 1_555
N1 Mn1 1_555 1_555
N2 Mn1 1_555 1_555
C1 C2 1_555 1_555
C2 C3 1_555 1_555
C3 C4 1_555 1_555
C4 C5 1_555 1_555
C5 C6 1_555 1_555
C6 C1 1_555 1_555
C7 N1 1_555 1_555
C8 N1 1_555 1_555
C9 C8 1_555 1_555
C10 C9 1_555 1_555
C11 C10 1_555 1_555
C12 C11 1_555 1_555
C13 N2 1_555 1_555
C14 N2 1_555 1_555
C15 C14 1_555 1_555
C16 C15 1_555 1_555
C17 C16 1_555 1_555
C18 C17 1_555 1_555
C19 C18 1_555 1_555
C20 O2 1_555 1_555
C21 O3 1_555 1_555
C22 C21 1_555 1_555
H1 C2 1_555 1_555
H2 C3 1_555 1_555
H3 C4 1_555 1_555
H4 C5 1_555 1_555
H5 C7 1_555 1_555
H6 C9 1_555 1_555
H7 C10 1_555 1_555
H8 C11 1_555 1_555
H9 C12 1_555 1_555
H10 C14 1_555 1_555
H11 C16 1_555 1_555
H12 C17 1_555 1_555
H13 C18 1_555 1_555
H14 C19 1_555 1_555
H15 C22 1_555 1_555
H16 C22 1_555 1_555
H17 C22 1_555 1_555
Mn1C O4 1_555 1_555
O4C Mn1 1_555 1_555
C6 C7 1_555 1_555
C8 C13 1_555 1_555
C12 C13 1_555 1_555
C15 C20 1_555 1_555
C19 C20 1_555 1_555

#END
