
#######################################################################
#
#                 Cambridge Crystallographic Data Centre
#                                CCDC 
#
#######################################################################
#
# If this CIF has been generated from an entry in the Cambridge 
# Structural Database, then it will include bibliographic, chemical, 
# crystal, experimental, refinement or atomic coordinate data resulting 
# from the CCDC's data processing and validation procedures.
#
#######################################################################

data_MOWQOF01
_symmetry_cell_setting           tetragonal
_symmetry_space_group_name_H-M   'P 41 21 2'
_symmetry_Int_Tables_number      92
_space_group_name_Hall           'P 4abw 2nw'
loop_
_symmetry_equiv_pos_site_id
_symmetry_equiv_pos_as_xyz
1 x,y,z
2 -x,-y,1/2+z
3 1/2-y,1/2+x,1/4+z
4 1/2+y,1/2-x,3/4+z
5 1/2-x,1/2+y,1/4-z
6 1/2+x,1/2-y,3/4-z
7 y,x,-z
8 -y,-x,1/2-z
_cell_length_a                   8.1172(11)
_cell_length_b                   8.1172(11)
_cell_length_c                   16.652(3)
_cell_angle_alpha                90
_cell_angle_beta                 90
_cell_angle_gamma                90
_cell_volume                     1097.18
loop_
_atom_site_label
_atom_site_type_symbol
_atom_site_fract_x
_atom_site_fract_y
_atom_site_fract_z
Co1 Co -0.28838(3) 1.28838(3) 0.2500
N1 N -0.1581(3) 1.4199(3) 0.34065(13)
N2 N -0.0401(2) 1.3784(2) 0.37630(10)
N3 N 0.0801(3) 1.3465(3) 0.41060(13)
N4 N -0.09652(18) 1.09652(18) 0.2500
N5 N 0.52407(18) 0.47593(18) 0.2500
C1 C -0.1187(3) 0.9505(2) 0.28695(14)
H1 H -0.2178 0.9322 0.3135
C2 C -0.0021(3) 0.8262(3) 0.28751(13)
H2 H -0.0247 0.7267 0.3129
C3 C 0.1493(2) 0.8507(2) 0.2500
C4 C 0.2794(2) 0.7206(2) 0.2500
C5 C 0.2380(2) 0.5538(2) 0.24990(15)
H3 H 0.1282 0.5211 0.2499
C6 C 0.3630(2) 0.4373(2) 0.24981(16)
H4 H 0.3338 0.3265 0.2496
C1G C 0.0495(2) 1.1187(3) 0.21305(14)
H1G H 0.0678 1.2178 0.1865
C2G C 0.1738(3) 1.0021(3) 0.21249(13)
H2G H 0.2733 1.0247 0.1871
C5G C 0.4462(2) 0.7620(2) 0.25010(15)
H3G H 0.4789 0.8718 0.2501
C6G C 0.5627(2) 0.6370(2) 0.25019(16)
H4G H 0.6735 0.6662 0.2504
N1G N -0.4199(3) 1.1581(3) 0.15935(13)
N2G N -0.3784(2) 1.0401(2) 0.12370(10)
N3G N -0.3465(3) 0.9199(3) 0.08940(13)
Co1_2 Co 0.71162(3) 0.28838(3) 0.2500
Co1B Co 0.21162(3) 1.21162(3) 0.5000
Co1C Co -0.21162(3) 0.78838(3) 0.0000
N3C N -0.1535(3) 1.4199(3) 0.16060(13)
N3E N -0.4199(3) 1.1535(3) 0.33940(13)
N5_2 N -0.47593(18) 1.47593(18) 0.2500
loop_
_geom_bond_atom_site_label_1
_geom_bond_atom_site_label_2
_geom_bond_site_symmetry_1
_geom_bond_site_symmetry_2
Co1 N1 1_555 1_555
N1 N2 1_555 1_555
N2 N3 1_555 1_555
N3 Co1B 1_555 1_555
N4 Co1 1_555 1_555
N5 C6 1_555 1_555
C1 N4 1_555 1_555
H1 C1 1_555 1_555
C2 C1 1_555 1_555
H2 C2 1_555 1_555
C3 C2 1_555 1_555
C4 C3 1_555 1_555
C5 C4 1_555 1_555
H3 C5 1_555 1_555
C6 C5 1_555 1_555
H4 C6 1_555 1_555
C1G N4 1_555 1_555
H1G C1G 1_555 1_555
C2G C3 1_555 1_555
H2G C2G 1_555 1_555
C5G C4 1_555 1_555
H3G C5G 1_555 1_555
C6G N5 1_555 1_555
H4G C6G 1_555 1_555
N1G Co1 1_555 1_555
N2G N1G 1_555 1_555
N3G N2G 1_555 1_555
Co1_2 N5 1_555 1_555
Co1C N3G 1_555 1_555
N3C Co1 1_555 1_555
N3E Co1 1_555 1_555
N5_2 Co1 1_555 1_555
C1G C2G 1_555 1_555
C5G C6G 1_555 1_555

#END
