
#######################################################################
#
#                 Cambridge Crystallographic Data Centre
#                                CCDC 
#
#######################################################################
#
# If this CIF has been generated from an entry in the Cambridge 
# Structural Database, then it will include bibliographic, chemical, 
# crystal, experimental, refinement or atomic coordinate data resulting 
# from the CCDC's data processing and validation procedures.
#
#######################################################################

data_MOWSUO
_symmetry_cell_setting           monoclinic
_symmetry_space_group_name_H-M   'P 21/c'
_symmetry_Int_Tables_number      14
_space_group_name_Hall           '-P 2ybc'
loop_
_symmetry_equiv_pos_site_id
_symmetry_equiv_pos_as_xyz
1 x,y,z
2 -x,1/2+y,1/2-z
3 -x,-y,-z
4 x,1/2-y,1/2+z
_cell_length_a                   7.75820(10)
_cell_length_b                   10.1601(2)
_cell_length_c                   14.6234(3)
_cell_angle_alpha                90
_cell_angle_beta                 103.7530(10)
_cell_angle_gamma                90
_cell_volume                     1119.63
loop_
_atom_site_label
_atom_site_type_symbol
_atom_site_fract_x
_atom_site_fract_y
_atom_site_fract_z
U1 U 0.441566(16) 0.907645(12) 0.165113(8)
O1 O 0.3040(4) 1.0486(3) 0.1446(2)
O2 O 0.5812(4) 0.7688(3) 0.18567(19)
O3 O 0.3100(4) 0.8267(3) 0.29174(18)
O4 O 0.3371(4) 0.5224(3) 0.3842(2)
O5 O 0.1786(4) 0.7681(3) 0.14813(17)
O6 O 0.6037(4) 0.9981(3) 0.30741(19)
O7 O 0.3576(4) 0.6528(3) 0.50735(17)
N1 N 0.7014(7) 1.0276(4) 0.4653(3)
H1 H 0.6744 1.1096 0.4660
N2 N 0.7166(6) 0.8328(4) 0.4112(3)
H2 H 0.7149 0.7712 0.3707
C1 C 0.1904(5) 0.7615(4) 0.2359(2)
C2 C 0.0645(5) 0.6772(4) 0.2726(3)
H3 H 0.0696 0.5883 0.2492
H4 H -0.0551 0.7098 0.2482
C3 C 0.1031(5) 0.6733(4) 0.3795(3)
H5 H 0.1001 0.7625 0.4027
H6 H 0.0095 0.6242 0.3978
C4 C 0.2789(5) 0.6123(4) 0.4264(2)
C5 C 0.6703(5) 0.9551(4) 0.3885(2)
C6 C 0.7703(7) 0.8133(4) 0.5114(3)
H7 H 0.8828 0.7672 0.5290
H8 H 0.6816 0.7643 0.5341
C7 C 0.7870(8) 0.9531(5) 0.5489(3)
H9 H 0.7255 0.9640 0.5990
H10 H 0.9103 0.9785 0.5718
U1A U 0.558434(16) 0.407645(12) 0.334887(8)
U1C U 0.441566(16) 0.592355(12) 0.665113(8)
O4A O 0.6629(4) 1.0224(3) 0.1158(2)
O7C O 0.3576(4) 0.8472(3) 0.00735(17)
loop_
_geom_bond_atom_site_label_1
_geom_bond_atom_site_label_2
_geom_bond_site_symmetry_1
_geom_bond_site_symmetry_2
U1 O1 1_555 1_555
O2 U1 1_555 1_555
O3 U1 1_555 1_555
O4 C4 1_555 1_555
O5 U1 1_555 1_555
O6 U1 1_555 1_555
O7 C4 1_555 1_555
N1 H1 1_555 1_555
N2 H2 1_555 1_555
C1 O3 1_555 1_555
C2 C1 1_555 1_555
H3 C2 1_555 1_555
H4 C2 1_555 1_555
C3 C2 1_555 1_555
H5 C3 1_555 1_555
H6 C3 1_555 1_555
C4 C3 1_555 1_555
C5 O6 1_555 1_555
C6 N2 1_555 1_555
H7 C6 1_555 1_555
H8 C6 1_555 1_555
C7 N1 1_555 1_555
H9 C7 1_555 1_555
H10 C7 1_555 1_555
U1A O4 1_555 1_555
U1C O7 1_555 1_555
O4A U1 1_555 1_555
O7C U1 1_555 1_555
O5 C1 1_555 1_555
N1 C5 1_555 1_555
N2 C5 1_555 1_555
C6 C7 1_555 1_555

#END
