
#######################################################################
#
#                 Cambridge Crystallographic Data Centre
#                                CCDC 
#
#######################################################################
#
# If this CIF has been generated from an entry in the Cambridge 
# Structural Database, then it will include bibliographic, chemical, 
# crystal, experimental, refinement or atomic coordinate data resulting 
# from the CCDC's data processing and validation procedures.
#
#######################################################################

data_MOWXOL
_symmetry_cell_setting           monoclinic
_symmetry_space_group_name_H-M   'C c'
_symmetry_Int_Tables_number      9
_space_group_name_Hall           'C -2yc'
loop_
_symmetry_equiv_pos_site_id
_symmetry_equiv_pos_as_xyz
1 x,y,z
2 x,-y,1/2+z
3 1/2+x,1/2+y,z
4 1/2+x,1/2-y,1/2+z
_cell_length_a                   22.716(2)
_cell_length_b                   16.191(3)
_cell_length_c                   16.166(2)
_cell_angle_alpha                90
_cell_angle_beta                 131.085(7)
_cell_angle_gamma                90
_cell_volume                     4481.54
loop_
_atom_site_label
_atom_site_type_symbol
_atom_site_fract_x
_atom_site_fract_y
_atom_site_fract_z
Zn1 Zn 0.280 0.2499(6) 0.185
O1 O 0.1529(2) 0.2368(3) 0.0654(3)
O2 O 0.4024(2) 0.2597(4) 0.2980(3)
N1 N 0.2675(3) 0.3429(4) 0.2679(4)
N2 N 0.2718(3) 0.6531(4) 0.5822(3)
N3 N 0.2899(3) 0.1573(4) 0.0989(4)
N4 N 0.2865(3) -0.1551(4) -0.2117(3)
C13 C 0.3021(3) 0.4168(5) 0.2904(5)
C14 C 0.3018(4) 0.4800(5) 0.3478(5)
C15 C 0.2648(4) 0.4655(5) 0.3884(5)
C16 C 0.2286(4) 0.3899(5) 0.3680(5)
C17 C 0.2302(3) 0.3309(5) 0.3071(5)
C18 C 0.2071(4) 0.6038(5) 0.5134(5)
C19 C 0.2035(3) 0.5421(5) 0.4517(5)
C20 C 0.2653(3) 0.5303(5) 0.4541(4)
C21 C 0.3300(3) 0.5815(5) 0.5223(5)
C22 C 0.3311(3) 0.6047(5) 0.5853(4)
C23 C 0.2545(3) 0.1676(4) -0.0065(4)
C24 C 0.2543(3) 0.1085(5) -0.0686(4)
C25 C 0.2943(3) 0.0338(4) -0.0182(4)
C26 C 0.3321(4) 0.0236(5) 0.0921(5)
C27 C 0.3283(3) 0.0860(5) 0.1476(4)
C28 C 0.3470(4) -0.1485(5) -0.1027(5)
C29 C 0.3526(4) -0.0870(5) -0.0372(5)
C30 C 0.2932(3) -0.0316(4) -0.0830(4)
C31 C 0.2275(3) -0.0390(5) -0.1972(5)
C32 C 0.2277(4) -0.1002(5) -0.2547(5)
N2A N 0.2718(3) 0.3469(4) 0.0822(3)
N4A N 0.2865(3) 0.1551(4) 0.2883(3)
Zn1A Zn 0.280 0.7501(6) 0.685
Zn1A_2 Zn 0.280 -0.2499(6) -0.315
O3 O 0.5089(4) -0.0023(5) -0.1430(5)
O4 O 0.4638(5) 0.1469(7) -0.2576(6)
O5 O 0.5719(5) 0.1997(7) -0.1768(6)
O6 O 0.6522(4) 0.2937(5) 0.1810(5)
O7 O 0.6685(6) 0.1996(7) 0.2851(5)
O8 O 0.5344(4) -0.1151(5) 0.0165(6)
O9 O 0.5556(4) -0.0671(6) 0.1394(5)
N5 N 0.5258(4) 0.1611(5) -0.1758(5)
N6 N 0.6469(4) 0.2216(6) 0.1998(6)
N7 N 0.5593(4) -0.0581(5) 0.0668(5)
C1 C 0.5392(4) 0.0463(5) -0.0649(6)
C2 C 0.5527(4) 0.1325(5) -0.0722(5)
C3 C 0.5880(4) 0.1886(6) 0.0095(6)
C4 C 0.6117(4) 0.1620(6) 0.1122(6)
C5 C 0.6034(4) 0.0818(6) 0.1299(6)
C6 C 0.5684(4) 0.0259(6) 0.0440(6)
O10 O 0.9511(4) 0.1513(5) 0.4602(5)
O11 O 0.9332(3) 0.3879(5) 0.5203(5)
O12 O 0.9448(4) 0.2648(6) 0.5751(5)
O13 O 0.7307(5) 0.4311(5) 0.1375(7)
O14 O 0.7119(6) 0.3424(7) 0.0217(6)
O15 O 0.9229(5) 0.0568(7) 0.3019(7)
O16 O 0.844(1) 0.0836(8) 0.160(1)
N8 N 0.9240(4) 0.3129(6) 0.5038(6)
N9 N 0.7440(5) 0.3651(6) 0.1147(7)
N10 N 0.8785(6) 0.1037(6) 0.2434(6)
C7 C 0.9070(5) 0.2013(6) 0.3847(6)
C8 C 0.8889(4) 0.2828(6) 0.3971(6)
C9 C 0.8382(4) 0.3365(6) 0.3110(6)
C10 C 0.8010(4) 0.3127(6) 0.2065(7)
C11 C 0.8145(5) 0.2312(6) 0.1832(6)
C12 C 0.8652(5) 0.1825(6) 0.2683(7)
O17 O 0.4991(3) 0.1603(4) 0.2914(4)
N11 N 0.0903(3) 0.1247(5) -0.0982(5)
N12 N -0.0159(4) -0.1687(5) -0.4994(5)
C33 C 0.0568(4) 0.1503(6) -0.2001(5)
C34 C 0.0370(4) 0.0953(5) -0.2806(5)
C35 C 0.0506(3) 0.0111(5) -0.2556(5)
C36 C 0.0856(4) -0.0139(6) -0.1499(5)
C37 C 0.1048(4) 0.0453(6) -0.0733(6)
C38 C -0.0085(4) -0.0870(6) -0.5115(6)
C39 C 0.0140(4) -0.0275(6) -0.4353(5)
C40 C 0.0283(4) -0.0514(5) -0.3394(5)
C41 C 0.0226(5) -0.1342(6) -0.3246(6)
C42 C 0.0009(6) -0.1917(7) -0.4068(6)
loop_
_geom_bond_atom_site_label_1
_geom_bond_atom_site_label_2
_geom_bond_site_symmetry_1
_geom_bond_site_symmetry_2
Zn1 O1 1_555 1_555
O2 Zn1 1_555 1_555
O3 C1 1_555 1_555
O4 N5 1_555 1_555
O5 N5 1_555 1_555
O6 N6 1_555 1_555
O7 N6 1_555 1_555
O8 N7 1_555 1_555
O9 N7 1_555 1_555
O10 C7 1_555 1_555
O11 N8 1_555 1_555
O12 N8 1_555 1_555
O13 N9 1_555 1_555
O14 N9 1_555 1_555
O15 N10 1_555 1_555
O16 N10 1_555 1_555
N1 Zn1 1_555 1_555
N2 C18 1_555 1_555
N3 Zn1 1_555 1_555
N4 C28 1_555 1_555
N5 C2 1_555 1_555
N6 C4 1_555 1_555
N7 C6 1_555 1_555
N8 C8 1_555 1_555
N9 C10 1_555 1_555
N10 C12 1_555 1_555
N11 C33 1_555 1_555
N12 C38 1_555 1_555
C1 C2 1_555 1_555
C2 C3 1_555 1_555
C3 C4 1_555 1_555
C4 C5 1_555 1_555
C5 C6 1_555 1_555
C6 C1 1_555 1_555
C7 C8 1_555 1_555
C8 C9 1_555 1_555
C9 C10 1_555 1_555
C10 C11 1_555 1_555
C11 C12 1_555 1_555
C12 C7 1_555 1_555
C13 N1 1_555 1_555
C14 C13 1_555 1_555
C15 C14 1_555 1_555
C16 C15 1_555 1_555
C17 N1 1_555 1_555
C18 C19 1_555 1_555
C19 C20 1_555 1_555
C20 C15 1_555 1_555
C21 C20 1_555 1_555
C22 N2 1_555 1_555
C23 N3 1_555 1_555
C24 C23 1_555 1_555
C25 C24 1_555 1_555
C26 C25 1_555 1_555
C27 N3 1_555 1_555
C28 C29 1_555 1_555
C29 C30 1_555 1_555
C30 C25 1_555 1_555
C31 C30 1_555 1_555
C32 N4 1_555 1_555
C33 C34 1_555 1_555
C34 C35 1_555 1_555
C35 C36 1_555 1_555
C36 C37 1_555 1_555
C37 N11 1_555 1_555
C38 C39 1_555 1_555
C39 C40 1_555 1_555
C40 C35 1_555 1_555
C41 C40 1_555 1_555
C42 N12 1_555 1_555
N2A Zn1 1_555 1_555
N4A Zn1 1_555 1_555
Zn1A N2 1_555 1_555
Zn1A_2 N4 1_555 1_555
C16 C17 1_555 1_555
C21 C22 1_555 1_555
C26 C27 1_555 1_555
C31 C32 1_555 1_555
C41 C42 1_555 1_555

#END
