
#######################################################################
#
#                 Cambridge Crystallographic Data Centre
#                                CCDC 
#
#######################################################################
#
# If this CIF has been generated from an entry in the Cambridge 
# Structural Database, then it will include bibliographic, chemical, 
# crystal, experimental, refinement or atomic coordinate data resulting 
# from the CCDC's data processing and validation procedures.
#
#######################################################################

data_MOWXUR
_symmetry_cell_setting           triclinic
_symmetry_space_group_name_H-M   'P -1'
_symmetry_Int_Tables_number      2
_space_group_name_Hall           '-P 1'
loop_
_symmetry_equiv_pos_site_id
_symmetry_equiv_pos_as_xyz
1 x,y,z
2 -x,-y,-z
_cell_length_a                   6.100(2)
_cell_length_b                   10.186(3)
_cell_length_c                   11.046(2)
_cell_angle_alpha                107.230(10)
_cell_angle_beta                 101.99(2)
_cell_angle_gamma                97.87(2)
_cell_volume                     626.603
loop_
_atom_site_label
_atom_site_type_symbol
_atom_site_fract_x
_atom_site_fract_y
_atom_site_fract_z
Cu1 Cu 0.5000 0.5000 0.5000
O1 O 0.2685(2) 0.4954(1) 0.3444(1)
O2 O 0.6206(3) 0.3564(2) 0.3287(2)
O3 O 0.5665(4) 0.1697(2) 0.1654(2)
O4 O -0.0802(5) 0.0070(3) -0.1935(2)
O5 O -0.3576(5) 0.1152(3) -0.1988(3)
O6 O -0.3215(3) 0.5350(2) 0.1523(2)
O7 O 0.0175(3) 0.6612(2) 0.2522(2)
N1 N 0.3153(3) 0.3226(2) 0.5057(2)
N2 N 0.5007(4) 0.2717(2) 0.2233(2)
N3 N -0.1680(6) 0.1044(3) -0.1487(3)
N4 N -0.1133(3) 0.5489(2) 0.1881(2)
C1 C 0.0874(4) 0.2829(2) 0.4540(2)
C2 C 0.0395(4) 0.1591(2) 0.4499(2)
C3 C 0.0653(3) 0.0679(2) 0.5013(2)
C4 C 0.3002(4) 0.1108(2) 0.5560(2)
C5 C 0.4173(4) 0.2358(2) 0.5571(2)
C6 C 0.1910(3) 0.4121(2) 0.2274(2)
C7 C 0.2810(4) 0.2953(2) 0.1629(2)
C8 C 0.1661(5) 0.1982(3) 0.0410(2)
C9 C -0.0407(5) 0.2129(3) -0.0237(2)
C10 C -0.1318(4) 0.3270(3) 0.0251(2)
C11 C -0.0158(4) 0.4253(2) 0.1444(2)
C3A C -0.0653(3) -0.0679(2) 0.4987(2)
C2A C -0.0395(4) -0.1591(2) 0.5501(2)
C1A C -0.0874(4) -0.2829(2) 0.5460(2)
N1A N -0.3153(3) -0.3226(2) 0.4943(2)
C5A C -0.4173(4) -0.2358(2) 0.4429(2)
C4A C -0.3002(4) -0.1108(2) 0.4440(2)
O1A O 0.7315(2) 0.5046(1) 0.6556(1)
O2A O 0.3794(3) 0.6436(2) 0.6713(2)
O3A O 0.4335(4) 0.8303(2) 0.8346(2)
O4A O 1.0802(5) 0.9930(3) 1.1935(2)
O5A O 1.3576(5) 0.8848(3) 1.1988(3)
O6A O 1.3215(3) 0.4650(2) 0.8477(2)
O7A O 0.9825(3) 0.3388(2) 0.7478(2)
N2A N 0.4993(4) 0.7283(2) 0.7767(2)
N3A N 1.1680(6) 0.8956(3) 1.1487(3)
N4A N 1.1133(3) 0.4511(2) 0.8119(2)
C6A C 0.8090(3) 0.5879(2) 0.7726(2)
C7A C 0.7190(4) 0.7047(2) 0.8371(2)
C8A C 0.8339(5) 0.8018(3) 0.9590(2)
C9A C 1.0407(5) 0.7871(3) 1.0237(2)
C10A C 1.1318(4) 0.6730(3) 0.9749(2)
C11A C 1.0158(4) 0.5747(2) 0.8556(2)
N1A_2 N 0.6847(3) 0.6774(2) 0.4943(2)
Cu1_2 Cu -0.5000 -0.5000 0.5000
loop_
_geom_bond_atom_site_label_1
_geom_bond_atom_site_label_2
_geom_bond_site_symmetry_1
_geom_bond_site_symmetry_2
Cu1 O1 1_555 1_555
O1 C6 1_555 1_555
O2 Cu1 1_555 1_555
O3 N2 1_555 1_555
O4 N3 1_555 1_555
O5 N3 1_555 1_555
O6 N4 1_555 1_555
O7 N4 1_555 1_555
N1 Cu1 1_555 1_555
N2 O2 1_555 1_555
N3 C9 1_555 1_555
N4 C11 1_555 1_555
C1 N1 1_555 1_555
C2 C1 1_555 1_555
C3 C2 1_555 1_555
C4 C3 1_555 1_555
C5 N1 1_555 1_555
C6 C7 1_555 1_555
C7 N2 1_555 1_555
C8 C7 1_555 1_555
C9 C8 1_555 1_555
C10 C9 1_555 1_555
C11 C6 1_555 1_555
C3A C3 1_555 1_555
C2A C3A 1_555 1_555
C1A C2A 1_555 1_555
N1A C1A 1_555 1_555
C5A N1A 1_555 1_555
C4A C3A 1_555 1_555
O1A Cu1 1_555 1_555
O2A Cu1 1_555 1_555
O3A N2A 1_555 1_555
O4A N3A 1_555 1_555
O5A N3A 1_555 1_555
O6A N4A 1_555 1_555
O7A N4A 1_555 1_555
N2A O2A 1_555 1_555
N3A C9A 1_555 1_555
N4A C11A 1_555 1_555
C6A O1A 1_555 1_555
C7A N2A 1_555 1_555
C8A C7A 1_555 1_555
C9A C8A 1_555 1_555
C10A C9A 1_555 1_555
C11A C6A 1_555 1_555
N1A_2 Cu1 1_555 1_555
Cu1_2 N1A 1_555 1_555
C4 C5 1_555 1_555
C10 C11 1_555 1_555
C5A C4A 1_555 1_555
C6A C7A 1_555 1_555
C10A C11A 1_555 1_555

#END
