
#######################################################################
#
#                 Cambridge Crystallographic Data Centre
#                                CCDC 
#
#######################################################################
#
# If this CIF has been generated from an entry in the Cambridge 
# Structural Database, then it will include bibliographic, chemical, 
# crystal, experimental, refinement or atomic coordinate data resulting 
# from the CCDC's data processing and validation procedures.
#
#######################################################################

data_MOXFUB
_symmetry_cell_setting           orthorhombic
_symmetry_space_group_name_H-M   'P 21 21 21'
_symmetry_Int_Tables_number      19
_space_group_name_Hall           'P 2ac 2ab'
loop_
_symmetry_equiv_pos_site_id
_symmetry_equiv_pos_as_xyz
1 x,y,z
2 1/2-x,-y,1/2+z
3 -x,1/2+y,1/2-z
4 1/2+x,1/2-y,-z
_cell_length_a                   9.9103(2)
_cell_length_b                   12.8091(2)
_cell_length_c                   13.3863(2)
_cell_angle_alpha                90
_cell_angle_beta                 90
_cell_angle_gamma                90
_cell_volume                     1699.28
loop_
_atom_site_label
_atom_site_type_symbol
_atom_site_fract_x
_atom_site_fract_y
_atom_site_fract_z
I1 I 0.05031(4) 0.35525(2) 0.57477(2)
I2 I 0.30302(4) 0.11453(3) 0.71122(3)
Zn1 Zn 0.06639(5) 0.17518(4) 0.65763(4)
N1 N -0.0596(4) 0.1610(3) 0.7748(3)
N2 N -0.0215(4) 0.1402(3) 0.8695(3)
C1 C -0.1267(5) 0.1385(4) 0.9319(3)
C2 C -0.1941(5) 0.1737(3) 0.7776(3)
C3 C -0.2405(5) 0.1589(4) 0.8770(3)
C4 C -0.3835(5) 0.1576(4) 0.9132(4)
H1 H -0.4426 0.1792 0.8593
H2 H -0.3932 0.2075 0.9672
C5 C -0.2725(5) 0.2021(4) 0.6892(4)
H3 H -0.2136 0.2071 0.6324
H4 H -0.3158 0.2682 0.7001
H5 H -0.3397 0.1496 0.6769
C6 C -0.1134(5) 0.1172(4) 1.0416(3)
H6 H -0.0204 0.1047 1.0576
H7 H -0.1660 0.0568 1.0588
H8 H -0.1453 0.1764 1.0787
H9 H 0.057(5) 0.125(4) 0.879(3)
N3 N -0.4938(4) -0.0797(3) 1.0498(3)
N4 N -0.4665(4) -0.1167(3) 0.9566(3)
H12 H -0.4752 -0.1811 0.9394
C7 C -0.4264(4) 0.0514(4) 0.9495(3)
C8 C -0.4704(5) 0.0235(4) 1.0454(3)
C9 C -0.4245(5) -0.0410(4) 0.8947(3)
C10 C -0.3883(5) -0.0636(4) 0.7887(4)
H13 H -0.3977 -0.1370 0.7761
H14 H -0.2966 -0.0428 0.7767
H15 H -0.4473 -0.0254 0.7451
C11 C -0.4916(6) 0.0909(4) 1.1348(4)
H16 H -0.5216 0.0488 1.1898
H17 H -0.5586 0.1429 1.1201
H18 H -0.4083 0.1246 1.1522
Zn1A Zn -0.56639(5) -0.17518(4) 1.15763(4)
N3A N -0.0062(4) 0.0797(3) 0.5498(3)
O1 O 0.2203(5) 0.0794(4) 0.9722(4)
H10 H 0.286(7) 0.054(5) 0.923(5)
H11 H 0.230(7) 0.023(6) 1.017(6)
loop_
_geom_bond_atom_site_label_1
_geom_bond_atom_site_label_2
_geom_bond_site_symmetry_1
_geom_bond_site_symmetry_2
I1 Zn1 1_555 1_555
I2 Zn1 1_555 1_555
Zn1 N1 1_555 1_555
N1 N2 1_555 1_555
N2 C1 1_555 1_555
C1 C3 1_555 1_555
C2 N1 1_555 1_555
C3 C2 1_555 1_555
C4 C3 1_555 1_555
H1 C4 1_555 1_555
H2 C4 1_555 1_555
O1 H10 1_555 1_555
C5 C2 1_555 1_555
H3 C5 1_555 1_555
H4 C5 1_555 1_555
H5 C5 1_555 1_555
C6 C1 1_555 1_555
H6 C6 1_555 1_555
H7 C6 1_555 1_555
H8 C6 1_555 1_555
H9 N2 1_555 1_555
H11 O1 1_555 1_555
N3 N4 1_555 1_555
N4 H12 1_555 1_555
C7 C4 1_555 1_555
C8 N3 1_555 1_555
C9 N4 1_555 1_555
C10 C9 1_555 1_555
H13 C10 1_555 1_555
H14 C10 1_555 1_555
H15 C10 1_555 1_555
C11 C8 1_555 1_555
H16 C11 1_555 1_555
H17 C11 1_555 1_555
H18 C11 1_555 1_555
Zn1A N3 1_555 1_555
N3A Zn1 1_555 1_555
C7 C8 1_555 1_555
C7 C9 1_555 1_555

#END
