
#######################################################################
#
#                 Cambridge Crystallographic Data Centre
#                                CCDC 
#
#######################################################################
#
# If this CIF has been generated from an entry in the Cambridge 
# Structural Database, then it will include bibliographic, chemical, 
# crystal, experimental, refinement or atomic coordinate data resulting 
# from the CCDC's data processing and validation procedures.
#
#######################################################################

data_MOXGAI
_symmetry_cell_setting           tetragonal
_symmetry_space_group_name_H-M   'I 41/a c d'
_symmetry_Int_Tables_number      142
_space_group_name_Hall           '-I 4bd 2c'
loop_
_symmetry_equiv_pos_site_id
_symmetry_equiv_pos_as_xyz
1 x,y,z
2 1/2-x,-y,1/2+z
3 1/4-y,3/4+x,1/4+z
4 1/4+y,1/4-x,3/4+z
5 1/2-x,y,-z
6 x,-y,1/2-z
7 1/4+y,3/4+x,3/4-z
8 1/4-y,1/4-x,1/4-z
9 1/2+x,1/2+y,1/2+z
10 -x,1/2-y,z
11 3/4-y,1/4+x,3/4+z
12 3/4+y,3/4-x,1/4+z
13 -x,1/2+y,1/2-z
14 1/2+x,1/2-y,-z
15 3/4+y,1/4+x,1/4-z
16 3/4-y,3/4-x,3/4-z
17 -x,-y,-z
18 1/2+x,y,1/2-z
19 3/4+y,1/4-x,3/4-z
20 3/4-y,3/4+x,1/4-z
21 1/2+x,-y,z
22 -x,y,1/2+z
23 3/4-y,1/4-x,1/4+z
24 3/4+y,3/4+x,3/4+z
25 1/2-x,1/2-y,1/2-z
26 x,1/2+y,-z
27 1/4+y,3/4-x,1/4-z
28 1/4-y,1/4+x,3/4-z
29 x,1/2-y,1/2+z
30 1/2-x,1/2+y,z
31 1/4-y,3/4-x,3/4+z
32 1/4+y,1/4+x,1/4+z
_cell_length_a                   13.4139(7)
_cell_length_b                   13.4139(7)
_cell_length_c                   31.309(3)
_cell_angle_alpha                90
_cell_angle_beta                 90
_cell_angle_gamma                90
_cell_volume                     5633.51
loop_
_atom_site_label
_atom_site_type_symbol
_atom_site_fract_x
_atom_site_fract_y
_atom_site_fract_z
Zn1 Zn 0.5000 0.2500 0.1250
N1 N 0.38699(11) 0.27937(12) 0.08600(4)
C1 C 0.37978(14) 0.35178(14) 0.05650(6)
N2 N 0.29912(13) 0.23034(14) 0.08482(6)
C2 C 0.46376(17) 0.42210(18) 0.04867(7)
C3 C 0.28730(14) 0.34820(14) 0.03653(6)
C4 C 0.2500 0.4112(2) 0.0000
C5 C 0.23749(16) 0.26975(17) 0.05576(7)
C6 C 0.1333(3) 0.2326(3) 0.05010(14)
H1 H 0.3046(17) 0.4568(18) -0.0101(7)
H2 H 0.291(2) 0.177(2) 0.0980(9)
H3 H 0.440(3) 0.488(3) 0.0526(12)
H4 H 0.517(2) 0.414(2) 0.0680(10)
H5 H 0.488(3) 0.419(3) 0.0182(12)
H6 H 0.118(3) 0.182(3) 0.0696(12)
H7 H 0.143(3) 0.193(3) 0.0227(13)
H8 H 0.086(4) 0.277(4) 0.0434(15)
Zn1D Zn 0.0000 0.2500 -0.1250
Zn1D_2 Zn 1.0000 0.2500 -0.1250
N1D N 0.11301(11) 0.27937(12) -0.08600(4)
N1I N 0.61301(11) 0.22063(12) 0.08600(4)
N1M N 0.88699(11) 0.22063(12) -0.08600(4)
N1S N 0.47063(12) 0.13699(11) 0.16400(4)
N1Z N 0.52937(12) 0.36301(11) 0.16400(4)
C1D C 0.12022(14) 0.35178(14) -0.05650(6)
C1I C 0.62022(14) 0.14822(14) 0.05650(6)
C1M C 0.87978(14) 0.14822(14) -0.05650(6)
N2D N 0.20088(13) 0.23034(14) -0.08482(6)
N2I N 0.70088(13) 0.26966(14) 0.08482(6)
N2M N 0.79912(13) 0.26966(14) -0.08482(6)
C2D C 0.03624(17) 0.42210(18) -0.04867(7)
C2I C 0.53624(17) 0.07790(18) 0.04867(7)
C2M C 0.96376(17) 0.07790(18) -0.04867(7)
C3D C 0.21270(14) 0.34820(14) -0.03653(6)
C3I C 0.71270(14) 0.15180(14) 0.03653(6)
C3M C 0.78730(14) 0.15180(14) -0.03653(6)
C4I C 0.7500 0.0888(2) 0.0000
C5D C 0.26251(16) 0.26975(17) -0.05576(7)
C5I C 0.76251(16) 0.23025(17) 0.05576(7)
C5M C 0.73749(16) 0.23025(17) -0.05576(7)
C6D C 0.3667(3) 0.2326(3) -0.05010(14)
C6I C 0.8667(3) 0.2674(3) 0.05010(14)
C6M C 0.6333(3) 0.2674(3) -0.05010(14)
H1D H 0.1954(17) 0.4568(18) 0.0101(7)
H1I H 0.6954(17) 0.0432(18) -0.0101(7)
H1M H 0.8046(17) 0.0432(18) 0.0101(7)
H2D H 0.209(2) 0.177(2) -0.0980(9)
H2I H 0.709(2) 0.323(2) 0.0980(9)
H2M H 0.791(2) 0.323(2) -0.0980(9)
H3D H 0.060(3) 0.488(3) -0.0526(12)
H3I H 0.560(3) 0.012(3) 0.0526(12)
H3M H 0.940(3) 0.012(3) -0.0526(12)
H4D H -0.017(2) 0.414(2) -0.0680(10)
H4I H 0.483(2) 0.086(2) 0.0680(10)
H4M H 1.017(2) 0.086(2) -0.0680(10)
H5D H 0.012(3) 0.419(3) -0.0182(12)
H5I H 0.512(3) 0.081(3) 0.0182(12)
H5M H 0.988(3) 0.081(3) -0.0182(12)
H6D H 0.382(3) 0.182(3) -0.0696(12)
H6I H 0.882(3) 0.318(3) 0.0696(12)
H6M H 0.618(3) 0.318(3) -0.0696(12)
H7D H 0.357(3) 0.193(3) -0.0227(13)
H7I H 0.857(3) 0.307(3) 0.0227(13)
H7M H 0.643(3) 0.307(3) -0.0227(13)
H8D H 0.414(4) 0.277(4) -0.0434(15)
H8I H 0.914(4) 0.223(4) 0.0434(15)
H8M H 0.586(4) 0.223(4) -0.0434(15)
N3 N 0.75976(15) 0.00976(15) 0.1250
O1 O 0.74454(14) 0.08666(12) 0.14529(5)
O2 O 0.69446(16) -0.05554(16) 0.1250
O1N O 0.83666(12) -0.00546(14) 0.10471(5)
loop_
_geom_bond_atom_site_label_1
_geom_bond_atom_site_label_2
_geom_bond_site_symmetry_1
_geom_bond_site_symmetry_2
Zn1 N1 1_555 1_555
N1 C1 1_555 1_555
C1 C2 1_555 1_555
N2 N1 1_555 1_555
C2 H3 1_555 1_555
C3 C1 1_555 1_555
C4 C3 1_555 1_555
C5 N2 1_555 1_555
C6 C5 1_555 1_555
N3 O1 1_555 1_555
O2 N3 1_555 1_555
H1 C4 1_555 1_555
H2 N2 1_555 1_555
H4 C2 1_555 1_555
H5 C2 1_555 1_555
H6 C6 1_555 1_555
H7 C6 1_555 1_555
H8 C6 1_555 1_555
Zn1D N1D 1_555 1_555
Zn1D_2 N1M 1_555 1_555
N1D C1D 1_555 1_555
N1I Zn1 1_555 1_555
N1M C1M 1_555 1_555
N1S Zn1 1_555 1_555
N1Z Zn1 1_555 1_555
C1D C2D 1_555 1_555
C1I N1I 1_555 1_555
C1M C2M 1_555 1_555
N2D N1D 1_555 1_555
N2I N1I 1_555 1_555
N2M N1M 1_555 1_555
C2D H3D 1_555 1_555
C2I C1I 1_555 1_555
C2M H3M 1_555 1_555
C3D C4 1_555 1_555
C3I C1I 1_555 1_555
C3M C1M 1_555 1_555
C4I C3I 1_555 1_555
C5D N2D 1_555 1_555
C5I N2I 1_555 1_555
C5M N2M 1_555 1_555
C6D C5D 1_555 1_555
C6I C5I 1_555 1_555
C6M C5M 1_555 1_555
O1N N3 1_555 1_555
H1D C4 1_555 1_555
H1I C4I 1_555 1_555
H1M C4I 1_555 1_555
H2D N2D 1_555 1_555
H2I N2I 1_555 1_555
H2M N2M 1_555 1_555
H3I C2I 1_555 1_555
H4D C2D 1_555 1_555
H4I C2I 1_555 1_555
H4M C2M 1_555 1_555
H5D C2D 1_555 1_555
H5I C2I 1_555 1_555
H5M C2M 1_555 1_555
H6D C6D 1_555 1_555
H6I C6I 1_555 1_555
H6M C6M 1_555 1_555
H7D C6D 1_555 1_555
H7I C6I 1_555 1_555
H7M C6M 1_555 1_555
H8D C6D 1_555 1_555
H8I C6I 1_555 1_555
H8M C6M 1_555 1_555
C3 C5 1_555 1_555
C1D C3D 1_555 1_555
C3D C5D 1_555 1_555
C3I C5I 1_555 1_555
C3M C4I 1_555 1_555
C3M C5M 1_555 1_555

#END
