
#######################################################################
#
#                 Cambridge Crystallographic Data Centre
#                                CCDC 
#
#######################################################################
#
# If this CIF has been generated from an entry in the Cambridge 
# Structural Database, then it will include bibliographic, chemical, 
# crystal, experimental, refinement or atomic coordinate data resulting 
# from the CCDC's data processing and validation procedures.
#
#######################################################################

data_MOXJEP02
_symmetry_cell_setting           tetragonal
_symmetry_space_group_name_H-M   'I 41 c d'
_symmetry_Int_Tables_number      110
_space_group_name_Hall           'I 4bw -2c'
loop_
_symmetry_equiv_pos_site_id
_symmetry_equiv_pos_as_xyz
1 x,y,z
2 1/2+x,1/2+y,1/2+z
3 -y,1/2+x,1/4+z
4 1/2-y,x,3/4+z
5 1/2-x,1/2-y,1/2+z
6 -x,-y,z
7 1/2+y,-x,3/4+z
8 y,1/2-x,1/4+z
9 -x,y,1/2+z
10 1/2-x,1/2+y,z
11 y,1/2+x,3/4+z
12 1/2+y,x,1/4+z
13 1/2+x,1/2-y,z
14 x,-y,1/2+z
15 1/2-y,-x,1/4+z
16 -y,1/2-x,3/4+z
_cell_length_a                   22.1246(12)
_cell_length_b                   22.1246(12)
_cell_length_c                   11.4061(7)
_cell_angle_alpha                90
_cell_angle_beta                 90
_cell_angle_gamma                90
_cell_volume                     5583.26
loop_
_atom_site_label
_atom_site_type_symbol
_atom_site_fract_x
_atom_site_fract_y
_atom_site_fract_z
Li1 Li 0.3963(3) 0.3554(2) 0.5801(4)
B1 B 0.40022(17) 0.14726(17) 0.2995(3)
N1 N 0.37423(14) 0.28096(14) 0.4906(2)
N2 N 0.37972(12) 0.19574(12) 0.3871(2)
N3 N 0.46803(12) 0.15430(12) 0.2706(2)
N4 N 0.56619(14) 0.13336(16) 0.2580(3)
N5 N 0.36500(13) 0.15204(13) 0.1840(2)
N6 N 0.34224(14) 0.14014(14) -0.0057(3)
N7 N 0.38864(12) 0.08533(12) 0.3552(2)
N8 N 0.36949(15) -0.01342(13) 0.3692(3)
C1 C 0.40527(16) 0.24926(16) 0.4134(3)
C2 C 0.32519(17) 0.24559(17) 0.5154(3)
C3 C 0.32781(16) 0.19378(18) 0.4541(3)
C4 C 0.51355(16) 0.11645(17) 0.2997(3)
C5 C 0.55397(17) 0.18477(19) 0.1958(3)
C6 C 0.49472(17) 0.19870(17) 0.2030(3)
C7 C 0.38504(17) 0.14175(15) 0.0735(3)
C8 C 0.29061(18) 0.15032(17) 0.0570(3)
C9 C 0.30345(17) 0.15757(19) 0.1721(3)
C10 C 0.36866(18) 0.03470(16) 0.3019(3)
C11 C 0.3914(2) 0.0076(2) 0.4737(3)
C12 C 0.4034(2) 0.06703(17) 0.4672(3)
H1 H 0.4421 0.2629 0.3796
H2 H 0.2938 0.2561 0.5684
H3 H 0.2992 0.1618 0.4565
H4 H 0.5080 0.0811 0.3457
H5 H 0.5831 0.2075 0.1534
H6 H 0.4752 0.2325 0.1684
H7 H 0.4265 0.1362 0.0551
H8 H 0.2512 0.1521 0.0244
H9 H 0.2752 0.1651 0.2331
H10 H 0.3552 0.0339 0.2229
H11 H 0.3973 -0.0166 0.5415
H12 H 0.4190 0.0917 0.5283
Li1O Li 0.6446(2) 0.1037(3) 0.3301(4)
Li1G Li 0.3554(2) 0.1037(3) -0.1699(4)
Li1J Li 0.3554(2) -0.1037(3) 0.3301(4)
N4N N 0.36664(16) 0.43381(14) 0.5080(3)
N6C N 0.35986(14) 0.34224(14) 0.7443(3)
N8K N 0.48658(13) 0.36949(15) 0.6192(3)
loop_
_geom_bond_atom_site_label_1
_geom_bond_atom_site_label_2
_geom_bond_site_symmetry_1
_geom_bond_site_symmetry_2
Li1 N1 1_555 1_555
B1 N2 1_555 1_555
N1 C1 1_555 1_555
N2 C1 1_555 1_555
N3 B1 1_555 1_555
N4 C4 1_555 1_555
N5 B1 1_555 1_555
N6 C7 1_555 1_555
N7 B1 1_555 1_555
N8 C10 1_555 1_555
C1 H1 1_555 1_555
C2 N1 1_555 1_555
C3 N2 1_555 1_555
C4 N3 1_555 1_555
C5 N4 1_555 1_555
C6 N3 1_555 1_555
C7 N5 1_555 1_555
C8 N6 1_555 1_555
C9 N5 1_555 1_555
C10 N7 1_555 1_555
C11 N8 1_555 1_555
C12 N7 1_555 1_555
H2 C2 1_555 1_555
H3 C3 1_555 1_555
H4 C4 1_555 1_555
H5 C5 1_555 1_555
H6 C6 1_555 1_555
H7 C7 1_555 1_555
H8 C8 1_555 1_555
H9 C9 1_555 1_555
H10 C10 1_555 1_555
H11 C11 1_555 1_555
H12 C12 1_555 1_555
Li1O N4 1_555 1_555
Li1G N6 1_555 1_555
Li1J N8 1_555 1_555
N4N Li1 1_555 1_555
N6C Li1 1_555 1_555
N8K Li1 1_555 1_555
C2 C3 1_555 1_555
C5 C6 1_555 1_555
C8 C9 1_555 1_555
C11 C12 1_555 1_555

#END
