
#######################################################################
#
#                 Cambridge Crystallographic Data Centre
#                                CCDC 
#
#######################################################################
#
# If this CIF has been generated from an entry in the Cambridge 
# Structural Database, then it will include bibliographic, chemical, 
# crystal, experimental, refinement or atomic coordinate data resulting 
# from the CCDC's data processing and validation procedures.
#
#######################################################################

data_MOXJEP05
_symmetry_cell_setting           tetragonal
_symmetry_space_group_name_H-M   'I 41 c d'
_symmetry_Int_Tables_number      110
_space_group_name_Hall           'I 4bw -2c'
loop_
_symmetry_equiv_pos_site_id
_symmetry_equiv_pos_as_xyz
1 x,y,z
2 1/2+x,1/2+y,1/2+z
3 -y,1/2+x,1/4+z
4 1/2-y,x,3/4+z
5 1/2-x,1/2-y,1/2+z
6 -x,-y,z
7 1/2+y,-x,3/4+z
8 y,1/2-x,1/4+z
9 -x,y,1/2+z
10 1/2-x,1/2+y,z
11 y,1/2+x,3/4+z
12 1/2+y,x,1/4+z
13 1/2+x,1/2-y,z
14 x,-y,1/2+z
15 1/2-y,-x,1/4+z
16 -y,1/2-x,3/4+z
_cell_length_a                   21.7446(12)
_cell_length_b                   21.7446(12)
_cell_length_c                   11.2734(7)
_cell_angle_alpha                90
_cell_angle_beta                 90
_cell_angle_gamma                90
_cell_volume                     5330.37
loop_
_atom_site_label
_atom_site_type_symbol
_atom_site_fract_x
_atom_site_fract_y
_atom_site_fract_z
Li1 Li 0.3942(7) 0.3541(7) 0.5788(11)
B1 B 0.3992(5) 0.1455(6) 0.3014(8)
N1 N 0.3698(4) 0.2806(4) 0.4919(5)
N2 N 0.3780(3) 0.1935(3) 0.3901(5)
N3 N 0.4678(3) 0.1539(3) 0.2702(5)
N4 N 0.5676(4) 0.1341(5) 0.2516(7)
N5 N 0.3634(3) 0.1505(4) 0.1849(6)
N6 N 0.3399(4) 0.1430(4) -0.0077(6)
N7 N 0.3891(3) 0.0823(3) 0.3556(5)
N8 N 0.3692(4) -0.0178(3) 0.3719(7)
C1 C 0.4012(5) 0.2492(4) 0.4142(6)
C2 C 0.3223(5) 0.2426(5) 0.5187(6)
C3 C 0.3253(4) 0.1896(4) 0.4573(7)
C4 C 0.5150(4) 0.1171(4) 0.2961(7)
C5 C 0.5539(5) 0.1880(5) 0.1916(7)
C6 C 0.4935(5) 0.1998(5) 0.2027(7)
C7 C 0.3830(4) 0.1443(4) 0.0718(7)
C8 C 0.2880(5) 0.1500(5) 0.0584(7)
C9 C 0.3004(5) 0.1549(5) 0.1735(8)
C10 C 0.3677(5) 0.0317(4) 0.3046(7)
C11 C 0.3929(5) 0.0033(5) 0.4752(8)
C12 C 0.4048(6) 0.0640(5) 0.4684(7)
H1 H 0.4370 0.2635 0.3784
H2 H 0.2916 0.2526 0.5728
H3 H 0.2973 0.1573 0.4604
H4 H 0.5108 0.0817 0.3419
H5 H 0.5816 0.2127 0.1508
H6 H 0.4725 0.2327 0.1692
H7 H 0.4245 0.1416 0.0524
H8 H 0.2485 0.1505 0.0270
H9 H 0.2720 0.1601 0.2344
H10 H 0.3528 0.0310 0.2273
H11 H 0.3994 -0.0204 0.5426
H12 H 0.4203 0.0892 0.5280
Li1G Li 0.3541(7) 0.1058(7) -0.1712(11)
Li1J Li 0.3541(7) -0.1058(7) 0.3288(11)
Li1O Li 0.6459(7) 0.1058(7) 0.3288(11)
N4N N 0.3659(5) 0.4324(4) 0.5016(7)
N6C N 0.3570(4) 0.3399(4) 0.7423(6)
N8K N 0.4822(3) 0.3692(4) 0.6219(7)
loop_
_geom_bond_atom_site_label_1
_geom_bond_atom_site_label_2
_geom_bond_site_symmetry_1
_geom_bond_site_symmetry_2
Li1 N1 1_555 1_555
B1 N2 1_555 1_555
N1 C1 1_555 1_555
N2 C1 1_555 1_555
N3 B1 1_555 1_555
N4 C4 1_555 1_555
N5 B1 1_555 1_555
N6 C7 1_555 1_555
N7 B1 1_555 1_555
N8 C10 1_555 1_555
C1 H1 1_555 1_555
C2 N1 1_555 1_555
C3 N2 1_555 1_555
C4 N3 1_555 1_555
C5 N4 1_555 1_555
C6 N3 1_555 1_555
C7 N5 1_555 1_555
C8 N6 1_555 1_555
C9 N5 1_555 1_555
C10 N7 1_555 1_555
C11 N8 1_555 1_555
C12 N7 1_555 1_555
H2 C2 1_555 1_555
H3 C3 1_555 1_555
H4 C4 1_555 1_555
H5 C5 1_555 1_555
H6 C6 1_555 1_555
H7 C7 1_555 1_555
H8 C8 1_555 1_555
H9 C9 1_555 1_555
H10 C10 1_555 1_555
H11 C11 1_555 1_555
H12 C12 1_555 1_555
Li1G N6 1_555 1_555
Li1J N8 1_555 1_555
Li1O N4 1_555 1_555
N4N Li1 1_555 1_555
N6C Li1 1_555 1_555
N8K Li1 1_555 1_555
C2 C3 1_555 1_555
C5 C6 1_555 1_555
C8 C9 1_555 1_555
C11 C12 1_555 1_555

#END
