
#######################################################################
#
#                 Cambridge Crystallographic Data Centre
#                                CCDC 
#
#######################################################################
#
# If this CIF has been generated from an entry in the Cambridge 
# Structural Database, then it will include bibliographic, chemical, 
# crystal, experimental, refinement or atomic coordinate data resulting 
# from the CCDC's data processing and validation procedures.
#
#######################################################################

data_MOXKUG
_symmetry_cell_setting           tetragonal
_symmetry_space_group_name_H-M   'I -4'
_symmetry_Int_Tables_number      82
_space_group_name_Hall           'I -4'
loop_
_symmetry_equiv_pos_site_id
_symmetry_equiv_pos_as_xyz
1 x,y,z
2 -x,-y,z
3 y,-x,-z
4 -y,x,-z
5 1/2+x,1/2+y,1/2+z
6 1/2-x,1/2-y,1/2+z
7 1/2+y,1/2-x,1/2-z
8 1/2-y,1/2+x,1/2-z
_cell_length_a                   7.5817(2)
_cell_length_b                   7.5817(2)
_cell_length_c                   16.4284(9)
_cell_angle_alpha                90
_cell_angle_beta                 90
_cell_angle_gamma                90
_cell_volume                     944.34
loop_
_atom_site_label
_atom_site_type_symbol
_atom_site_fract_x
_atom_site_fract_y
_atom_site_fract_z
B1 B 1.0000 0.5000 0.2500
Li1 Li 1.0000 0.0000 0.0000
N1 N 1.0701(3) 0.3510(3) 0.19400(14)
N2 N 1.0938(4) 0.1776(3) 0.08454(15)
C1 C 1.2370(4) 0.2781(4) 0.1942(2)
H1 H 1.3242 0.2970 0.2330
C2 C 1.2505(4) 0.1746(4) 0.1279(2)
H2 H 1.3502 0.1106 0.1134
C3 C 0.9900(4) 0.2847(4) 0.12577(18)
C4 C 0.8060(4) 0.3269(5) 0.0994(2)
H3 H 0.8047 0.4391 0.0723
H4 H 0.7304 0.3315 0.1463
H5 H 0.7649 0.2372 0.0628
Li1_2 Li 1.0000 1.0000 0.0000
Li1D Li 0.5000 0.5000 0.5000
Li1D_2 Li 1.5000 0.5000 0.5000
N1A N 0.9299(3) 0.6490(3) 0.19400(14)
N1F N 0.8510(3) 0.4299(3) 0.30600(14)
N1G N 1.1490(3) 0.5701(3) 0.30600(14)
N2A N 0.9062(4) 0.8224(3) 0.08454(15)
N2F N 0.6776(3) 0.4062(4) 0.41546(15)
N2G N 1.3224(3) 0.5938(4) 0.41546(15)
N2A_2 N 0.9062(4) -0.1776(3) 0.08454(15)
N2B N 1.1776(3) -0.0938(4) -0.08454(15)
N2C N 0.8224(3) 0.0938(4) -0.08454(15)
C1A C 0.7630(4) 0.7219(4) 0.1942(2)
C1F C 0.7781(4) 0.2630(4) 0.3058(2)
C1G C 1.2219(4) 0.7370(4) 0.3058(2)
H1A H 0.6758 0.7030 0.2330
H1F H 0.7970 0.1758 0.2670
H1G H 1.2030 0.8242 0.2670
C2A C 0.7495(4) 0.8254(4) 0.1279(2)
C2F C 0.6746(4) 0.2495(4) 0.3721(2)
C2G C 1.3254(4) 0.7505(4) 0.3721(2)
H2A H 0.6498 0.8894 0.1134
H2F H 0.6106 0.1498 0.3866
H2G H 1.3894 0.8502 0.3866
C3A C 1.0100(4) 0.7153(4) 0.12577(18)
C3F C 0.7847(4) 0.5100(4) 0.37423(18)
C3G C 1.2153(4) 0.4900(4) 0.37423(18)
C4A C 1.1940(4) 0.6731(5) 0.0994(2)
C4F C 0.8269(5) 0.6940(4) 0.4006(2)
C4G C 1.1731(5) 0.3060(4) 0.4006(2)
H3A H 1.1953 0.5609 0.0723
H3F H 0.9391 0.6953 0.4277
H3G H 1.0609 0.3047 0.4277
H4A H 1.2696 0.6685 0.1463
H4F H 0.8315 0.7696 0.3537
H4G H 1.1685 0.2304 0.3537
H5A H 1.2351 0.7628 0.0628
H5F H 0.7372 0.7351 0.4372
H5G H 1.2628 0.2649 0.4372
loop_
_geom_bond_atom_site_label_1
_geom_bond_atom_site_label_2
_geom_bond_site_symmetry_1
_geom_bond_site_symmetry_2
B1 N1 1_555 1_555
Li1 N2 1_555 1_555
N1 C1 1_555 1_555
N2 C2 1_555 1_555
C1 H1 1_555 1_555
C2 C1 1_555 1_555
H2 C2 1_555 1_555
C3 N1 1_555 1_555
C4 C3 1_555 1_555
H3 C4 1_555 1_555
H4 C4 1_555 1_555
H5 C4 1_555 1_555
Li1_2 N2A 1_555 1_555
Li1D N2F 1_555 1_555
Li1D_2 N2G 1_555 1_555
N1A B1 1_555 1_555
N1F B1 1_555 1_555
N1G B1 1_555 1_555
N2A C2A 1_555 1_555
N2F C2F 1_555 1_555
N2G C2G 1_555 1_555
N2A_2 Li1 1_555 1_555
N2B Li1 1_555 1_555
N2C Li1 1_555 1_555
C1A N1A 1_555 1_555
C1F N1F 1_555 1_555
C1G N1G 1_555 1_555
H1A C1A 1_555 1_555
H1F C1F 1_555 1_555
H1G C1G 1_555 1_555
C2A C1A 1_555 1_555
C2F C1F 1_555 1_555
C2G C1G 1_555 1_555
H2A C2A 1_555 1_555
H2F C2F 1_555 1_555
H2G C2G 1_555 1_555
C3A N1A 1_555 1_555
C3F N1F 1_555 1_555
C3G N1G 1_555 1_555
C4A C3A 1_555 1_555
C4F C3F 1_555 1_555
C4G C3G 1_555 1_555
H3A C4A 1_555 1_555
H3F C4F 1_555 1_555
H3G C4G 1_555 1_555
H4A C4A 1_555 1_555
H4F C4F 1_555 1_555
H4G C4G 1_555 1_555
H5A C4A 1_555 1_555
H5F C4F 1_555 1_555
H5G C4G 1_555 1_555
N2 C3 1_555 1_555
N2A C3A 1_555 1_555
N2F C3F 1_555 1_555
N2G C3G 1_555 1_555

#END
