
#######################################################################
#
#                 Cambridge Crystallographic Data Centre
#                                CCDC 
#
#######################################################################
#
# If this CIF has been generated from an entry in the Cambridge 
# Structural Database, then it will include bibliographic, chemical, 
# crystal, experimental, refinement or atomic coordinate data resulting 
# from the CCDC's data processing and validation procedures.
#
#######################################################################

data_MOXKAM
_symmetry_cell_setting           monoclinic
_symmetry_space_group_name_H-M   'C 2/c'
_symmetry_Int_Tables_number      15
_space_group_name_Hall           '-C 2yn'
loop_
_symmetry_equiv_pos_site_id
_symmetry_equiv_pos_as_xyz
1 x,y,z
2 1/2+x,1/2+y,z
3 -x,y,1/2-z
4 1/2-x,1/2+y,1/2-z
5 -x,-y,-z
6 1/2-x,1/2-y,-z
7 x,-y,1/2+z
8 1/2+x,1/2-y,1/2+z
_cell_length_a                   24.0260(9)
_cell_length_b                   18.0135(6)
_cell_length_c                   15.4627(5)
_cell_angle_alpha                90
_cell_angle_beta                 109.465(2)
_cell_angle_gamma                90
_cell_volume                     6309.65
loop_
_atom_site_label
_atom_site_type_symbol
_atom_site_fract_x
_atom_site_fract_y
_atom_site_fract_z
Cu1 Cu -0.18122(4) 0.05513(4) -0.56016(6)
Cu2 Cu -0.5000 -0.10752(11) -0.7500
I1 I -0.08425(5) 0.07373(7) -0.42480(9)
N1 N -0.2456(2) -0.1239(3) -0.7354(3)
N2 N -0.1969(3) -0.0428(3) -0.6251(4)
N3 N -0.3541(2) -0.1144(3) -0.8206(4)
N4 N -0.4429(3) -0.0971(4) -0.8054(5)
N5 N -0.3015(2) -0.2392(3) -0.8044(3)
N6 N -0.3125(3) -0.3596(3) -0.8463(4)
N7 N -0.2865(2) -0.1398(3) -0.9089(3)
N8 N -0.2454(3) -0.0927(3) -1.0082(4)
C1 C -0.2467(3) -0.0603(3) -0.6886(4)
H1 H -0.2805 -0.0313 -0.7009
C2 C -0.1579(3) -0.0990(3) -0.6279(5)
C3 C -0.1886(3) -0.1509(4) -0.6970(4)
C4 C -0.1598(4) -0.2119(4) -0.7149(6)
H2 H -0.1790 -0.2455 -0.7608
C5 C -0.1013(4) -0.2211(6) -0.6622(8)
H3 H -0.0814 -0.2627 -0.6722
C6 C -0.0706(4) -0.1704(6) -0.5941(8)
H4 H -0.0310 -0.1785 -0.5608
C7 C -0.0988(4) -0.1091(5) -0.5768(6)
H5 H -0.0788 -0.0750 -0.5319
C8 C -0.3969(3) -0.1402(4) -0.7901(5)
H6 H -0.3939 -0.1856 -0.7602
C9 C -0.4303(3) -0.0352(4) -0.8512(5)
C10 C -0.3751(3) -0.0452(3) -0.8597(4)
C11 C -0.3507(4) 0.0086(4) -0.9001(5)
H7 H -0.3131 0.0039 -0.9039
C12 C -0.3859(5) 0.0699(4) -0.9345(6)
H8 H -0.3718 0.1073 -0.9633
C13 C -0.4421(4) 0.0771(5) -0.9271(6)
H9 H -0.4648 0.1185 -0.9524
C14 C -0.4644(4) 0.0256(5) -0.8844(6)
H10 H -0.5012 0.0314 -0.8778
C15 C -0.3067(3) -0.2924(3) -0.8700(4)
H11 H -0.3060 -0.2806 -0.9282
C16 C -0.3107(3) -0.3544(4) -0.7552(5)
C17 C -0.3036(3) -0.2794(4) -0.7284(4)
C18 C -0.3011(4) -0.2586(4) -0.6407(5)
H12 H -0.2961 -0.2092 -0.6221
C19 C -0.3063(4) -0.3128(5) -0.5835(5)
H13 H -0.3053 -0.3001 -0.5247
C20 C -0.3131(5) -0.3877(5) -0.6100(6)
H14 H -0.3165 -0.4234 -0.5686
C21 C -0.3149(4) -0.4092(4) -0.6961(5)
H15 H -0.3188 -0.4588 -0.7137
C22 C -0.2386(3) -0.1091(3) -0.9225(4)
H16 H -0.2036 -0.1003 -0.8747
C23 C -0.3038(3) -0.1142(3) -1.0569(5)
C24 C -0.3303(3) -0.1434(3) -0.9954(4)
C25 C -0.3877(3) -0.1692(4) -1.0255(5)
H17 H -0.4044 -0.1901 -0.9848
C26 C -0.4193(4) -0.1633(4) -1.1170(5)
H18 H -0.4582 -0.1795 -1.1387
C27 C -0.3936(4) -0.1329(4) -1.1785(5)
H19 H -0.4164 -0.1291 -1.2401
C28 C -0.3357(4) -0.1085(4) -1.1509(5)
H20 H -0.3189 -0.0893 -1.1924
B1 B -0.2963(3) -0.1558(4) -0.8160(5)
N1B N -0.7544(2) -0.1239(3) -0.7646(3)
N2B N -0.8031(3) -0.0428(3) -0.8749(4)
N3B N -0.6459(2) -0.1144(3) -0.6794(4)
N4B N -0.5571(3) -0.0971(4) -0.6946(5)
N5B N -0.6985(2) -0.2392(3) -0.6956(3)
N6B N -0.6875(3) -0.3596(3) -0.6537(4)
N7B N -0.7135(2) -0.1398(3) -0.5911(3)
N8B N -0.7546(3) -0.0927(3) -0.4918(4)
C1B C -0.7533(3) -0.0603(3) -0.8114(4)
H1B H -0.7195 -0.0313 -0.7991
C2B C -0.8421(3) -0.0990(3) -0.8721(5)
C3B C -0.8114(3) -0.1509(4) -0.8030(4)
C4B C -0.8402(4) -0.2119(4) -0.7851(6)
H2B H -0.8210 -0.2455 -0.7392
C5B C -0.8987(4) -0.2211(6) -0.8378(8)
H3B H -0.9186 -0.2627 -0.8278
C6B C -0.9294(4) -0.1704(6) -0.9059(8)
H4B H -0.9690 -0.1785 -0.9392
C7B C -0.9012(4) -0.1091(5) -0.9232(6)
H5B H -0.9212 -0.0750 -0.9681
C8B C -0.6031(3) -0.1402(4) -0.7099(5)
H6B H -0.6061 -0.1856 -0.7398
C9B C -0.5697(3) -0.0352(4) -0.6488(5)
C10B C -0.6249(3) -0.0452(3) -0.6403(4)
C11B C -0.6493(4) 0.0086(4) -0.5999(5)
H7B H -0.6869 0.0039 -0.5961
C12B C -0.6141(5) 0.0699(4) -0.5655(6)
H8B H -0.6282 0.1073 -0.5367
C13B C -0.5579(4) 0.0771(5) -0.5729(6)
H9B H -0.5352 0.1185 -0.5476
C14B C -0.5356(4) 0.0256(5) -0.6156(6)
H10B H -0.4988 0.0314 -0.6222
C15B C -0.6933(3) -0.2924(3) -0.6300(4)
H11B H -0.6940 -0.2806 -0.5718
C16B C -0.6893(3) -0.3544(4) -0.7448(5)
C17B C -0.6964(3) -0.2794(4) -0.7716(4)
C18B C -0.6989(4) -0.2586(4) -0.8593(5)
H12B H -0.7039 -0.2092 -0.8779
C19B C -0.6937(4) -0.3128(5) -0.9165(5)
H13B H -0.6947 -0.3001 -0.9753
C20B C -0.6869(5) -0.3877(5) -0.8900(6)
H14B H -0.6835 -0.4234 -0.9314
C21B C -0.6851(4) -0.4092(4) -0.8039(5)
H15B H -0.6812 -0.4588 -0.7863
C22B C -0.7614(3) -0.1091(3) -0.5775(4)
H16B H -0.7964 -0.1003 -0.6253
C23B C -0.6962(3) -0.1142(3) -0.4431(5)
C24B C -0.6697(3) -0.1434(3) -0.5046(4)
C25B C -0.6123(3) -0.1692(4) -0.4745(5)
H17B H -0.5956 -0.1901 -0.5152
C26B C -0.5807(4) -0.1633(4) -0.3830(5)
H18B H -0.5418 -0.1795 -0.3613
C27B C -0.6064(4) -0.1329(4) -0.3215(5)
H19B H -0.5836 -0.1291 -0.2599
C28B C -0.6643(4) -0.1085(4) -0.3491(5)
H20B H -0.6811 -0.0893 -0.3076
B1B B -0.7037(3) -0.1558(4) -0.6840(5)
Cu1B Cu -0.81878(4) 0.05513(4) -0.93984(6)
I1B I -0.91575(5) 0.07373(7) -1.07520(9)
N6C N -0.1875(3) 0.1404(3) -0.6537(4)
N8F N -0.2454(3) 0.0927(3) -0.5082(4)
Cu1C Cu -0.31878(4) -0.44487(4) -0.93984(6)
Cu1F Cu -0.18122(4) -0.05513(4) -1.06016(6)
Cu1A Cu -0.68122(4) -0.44487(4) -0.56016(6)
Cu1D Cu -0.81878(4) -0.05513(4) -0.43984(6)
N6A N -0.8125(3) 0.1404(3) -0.8463(4)
N8D N -0.7546(3) 0.0927(3) -0.9918(4)
O1 O -0.5000 0.261(2) -0.2500
loop_
_geom_bond_atom_site_label_1
_geom_bond_atom_site_label_2
_geom_bond_site_symmetry_1
_geom_bond_site_symmetry_2
Cu1 I1 1_555 1_555
Cu2 N4 1_555 1_555
N1 C1 1_555 1_555
N2 Cu1 1_555 1_555
N3 C8 1_555 1_555
N4 C8 1_555 1_555
N5 C15 1_555 1_555
N6 C15 1_555 1_555
N7 C22 1_555 1_555
N8 C22 1_555 1_555
C1 N2 1_555 1_555
H1 C1 1_555 1_555
C2 N2 1_555 1_555
C3 N1 1_555 1_555
C4 C3 1_555 1_555
H2 C4 1_555 1_555
C5 C4 1_555 1_555
H3 C5 1_555 1_555
C6 C5 1_555 1_555
H4 C6 1_555 1_555
C7 C2 1_555 1_555
H5 C7 1_555 1_555
C8 H6 1_555 1_555
C9 N4 1_555 1_555
C10 N3 1_555 1_555
C11 C10 1_555 1_555
H7 C11 1_555 1_555
C12 C11 1_555 1_555
H8 C12 1_555 1_555
C13 C12 1_555 1_555
H9 C13 1_555 1_555
C14 C9 1_555 1_555
H10 C14 1_555 1_555
C15 H11 1_555 1_555
C16 N6 1_555 1_555
C17 N5 1_555 1_555
C18 C17 1_555 1_555
H12 C18 1_555 1_555
C19 C18 1_555 1_555
H13 C19 1_555 1_555
C20 C19 1_555 1_555
H14 C20 1_555 1_555
C21 C16 1_555 1_555
H15 C21 1_555 1_555
C22 H16 1_555 1_555
C23 N8 1_555 1_555
C24 N7 1_555 1_555
C25 C24 1_555 1_555
H17 C25 1_555 1_555
C26 C25 1_555 1_555
H18 C26 1_555 1_555
C27 C26 1_555 1_555
H19 C27 1_555 1_555
C28 C23 1_555 1_555
H20 C28 1_555 1_555
B1 N1 1_555 1_555
N1B C1B 1_555 1_555
N2B C1B 1_555 1_555
N3B C8B 1_555 1_555
N4B Cu2 1_555 1_555
N5B C15B 1_555 1_555
N6B C15B 1_555 1_555
N7B C22B 1_555 1_555
N8B C22B 1_555 1_555
C1B H1B 1_555 1_555
C2B N2B 1_555 1_555
C3B N1B 1_555 1_555
C4B C3B 1_555 1_555
H2B C4B 1_555 1_555
C5B C4B 1_555 1_555
H3B C5B 1_555 1_555
C6B C5B 1_555 1_555
H4B C6B 1_555 1_555
C7B C2B 1_555 1_555
H5B C7B 1_555 1_555
C8B N4B 1_555 1_555
H6B C8B 1_555 1_555
C9B N4B 1_555 1_555
C10B N3B 1_555 1_555
C11B C10B 1_555 1_555
H7B C11B 1_555 1_555
C12B C11B 1_555 1_555
H8B C12B 1_555 1_555
C13B C12B 1_555 1_555
H9B C13B 1_555 1_555
C14B C9B 1_555 1_555
H10B C14B 1_555 1_555
C15B H11B 1_555 1_555
C16B N6B 1_555 1_555
C17B N5B 1_555 1_555
C18B C17B 1_555 1_555
H12B C18B 1_555 1_555
C19B C18B 1_555 1_555
H13B C19B 1_555 1_555
C20B C19B 1_555 1_555
H14B C20B 1_555 1_555
C21B C16B 1_555 1_555
H15B C21B 1_555 1_555
C22B H16B 1_555 1_555
C23B N8B 1_555 1_555
C24B N7B 1_555 1_555
C25B C24B 1_555 1_555
H17B C25B 1_555 1_555
C26B C25B 1_555 1_555
H18B C26B 1_555 1_555
C27B C26B 1_555 1_555
H19B C27B 1_555 1_555
C28B C23B 1_555 1_555
H20B C28B 1_555 1_555
B1B N1B 1_555 1_555
Cu1B N2B 1_555 1_555
I1B Cu1B 1_555 1_555
N6C Cu1 1_555 1_555
N8F Cu1 1_555 1_555
Cu1C N6 1_555 1_555
Cu1F N8 1_555 1_555
Cu1A N6B 1_555 1_555
Cu1D N8B 1_555 1_555
N6A Cu1B 1_555 1_555
N8D Cu1B 1_555 1_555
N3 B1 1_555 1_555
N5 B1 1_555 1_555
N7 B1 1_555 1_555
C2 C3 1_555 1_555
C6 C7 1_555 1_555
C9 C10 1_555 1_555
C13 C14 1_555 1_555
C16 C17 1_555 1_555
C20 C21 1_555 1_555
C23 C24 1_555 1_555
C27 C28 1_555 1_555
N3B B1B 1_555 1_555
N5B B1B 1_555 1_555
N7B B1B 1_555 1_555
C2B C3B 1_555 1_555
C6B C7B 1_555 1_555
C9B C10B 1_555 1_555
C13B C14B 1_555 1_555
C16B C17B 1_555 1_555
C20B C21B 1_555 1_555
C23B C24B 1_555 1_555
C27B C28B 1_555 1_555

#END
