
#######################################################################
#
#                 Cambridge Crystallographic Data Centre
#                                CCDC 
#
#######################################################################
#
# If this CIF has been generated from an entry in the Cambridge 
# Structural Database, then it will include bibliographic, chemical, 
# crystal, experimental, refinement or atomic coordinate data resulting 
# from the CCDC's data processing and validation procedures.
#
#######################################################################

data_MOXXON
_symmetry_cell_setting           monoclinic
_symmetry_space_group_name_H-M   'P 21/c'
_symmetry_Int_Tables_number      14
_space_group_name_Hall           '-P 2ybc'
loop_
_symmetry_equiv_pos_site_id
_symmetry_equiv_pos_as_xyz
1 x,y,z
2 -x,1/2+y,1/2-z
3 -x,-y,-z
4 x,1/2-y,1/2+z
_cell_length_a                   12.4199(11)
_cell_length_b                   7.5024(7)
_cell_length_c                   18.5981(16)
_cell_angle_alpha                90
_cell_angle_beta                 98.681(2)
_cell_angle_gamma                90
_cell_volume                     1713.1
loop_
_atom_site_label
_atom_site_type_symbol
_atom_site_fract_x
_atom_site_fract_y
_atom_site_fract_z
C1 C -0.1291(5) 0.0980(8) -0.2293(3)
C2 C -0.1049(5) 0.1338(8) -0.3049(3)
H1 H -0.0810 0.2563 -0.3077
H2 H -0.1714 0.1198 -0.3392
C3 C -0.0188(5) 0.0119(7) -0.3269(3)
H3 H -0.0390 -0.1108 -0.3194
H4 H 0.0498 0.0348 -0.2958
C4 C -0.0031(5) 0.0361(7) -0.4058(3)
H5 H 0.0406 -0.0616 -0.4198
H6 H -0.0736 0.0312 -0.4364
C5 C 0.0515(5) 0.2097(7) -0.4189(3)
C6 C 0.3526(4) 0.3397(6) -0.5265(2)
C7 C 0.4158(4) 0.3401(6) -0.4536(2)
C8 C 0.4228(5) 0.4092(8) -0.3326(3)
H7 H 0.3917 0.4625 -0.2955
C9 C 0.5248(5) 0.3310(8) -0.3153(3)
H8 H 0.5589 0.3267 -0.2673
C10 C 0.5746(5) 0.2608(8) -0.3692(3)
H9 H 0.6437 0.2109 -0.3589
C11 C 0.5190(4) 0.2655(6) -0.4411(3)
C12 C 0.5679(4) 0.1944(6) -0.5012(2)
C13 C 0.5109(4) 0.2022(6) -0.5718(3)
C14 C 0.4015(4) 0.2721(7) -0.5850(2)
C15 C 0.3386(5) 0.2730(8) -0.6537(3)
H10 H 0.3674 0.2296 -0.6936
C16 C 0.2351(5) 0.3374(8) -0.6623(3)
H11 H 0.1923 0.3383 -0.7079
C17 C 0.1944(5) 0.4019(8) -0.6018(3)
H12 H 0.1237 0.4464 -0.6079
C18 C 0.7083(5) 0.0591(7) -0.5436(3)
H13 H 0.7768 0.0062 -0.5360
C19 C 0.6535(5) 0.0692(7) -0.6137(3)
H14 H 0.6871 0.0257 -0.6515
N1 N 0.2521(4) 0.4029(6) -0.5353(2)
N2 N 0.3680(4) 0.4115(6) -0.3989(2)
N3 N 0.5543(4) 0.1388(6) -0.6292(2)
N4 N 0.6684(4) 0.1208(6) -0.4872(2)
O1 O -0.2252(4) 0.1091(8) -0.2160(2)
O2 O -0.0511(4) 0.0622(6) -0.1806(2)
O3 O 0.1462(3) 0.2366(5) -0.3856(2)
O4 O 0.0033(4) 0.3224(5) -0.4606(2)
Pb1 Pb 0.162453(17) 0.53622(3) -0.420108(10)
O1A O 0.2252(4) 0.6091(8) -0.2840(2)
O2A O 0.0511(4) 0.5622(6) -0.3194(2)
Pb1A Pb -0.162453(17) 0.03622(3) -0.079892(10)
loop_
_geom_bond_atom_site_label_1
_geom_bond_atom_site_label_2
_geom_bond_site_symmetry_1
_geom_bond_site_symmetry_2
C1 C2 1_555 1_555
C2 H1 1_555 1_555
H2 C2 1_555 1_555
C3 C2 1_555 1_555
H3 C3 1_555 1_555
H4 C3 1_555 1_555
C4 C3 1_555 1_555
H5 C4 1_555 1_555
H6 C4 1_555 1_555
C5 C4 1_555 1_555
C6 C7 1_555 1_555
C7 C11 1_555 1_555
C8 H7 1_555 1_555
C9 C8 1_555 1_555
H8 C9 1_555 1_555
C10 C9 1_555 1_555
H9 C10 1_555 1_555
C11 C10 1_555 1_555
C12 C11 1_555 1_555
C13 C12 1_555 1_555
C14 C6 1_555 1_555
C15 C14 1_555 1_555
H10 C15 1_555 1_555
C16 C15 1_555 1_555
H11 C16 1_555 1_555
C17 C16 1_555 1_555
H12 C17 1_555 1_555
C18 H13 1_555 1_555
C19 C18 1_555 1_555
H14 C19 1_555 1_555
N1 C6 1_555 1_555
N2 C7 1_555 1_555
N3 C13 1_555 1_555
N4 C12 1_555 1_555
O1 C1 1_555 1_555
O2 C1 1_555 1_555
O3 C5 1_555 1_555
O4 C5 1_555 1_555
Pb1 N1 1_555 1_555
O1A Pb1 1_555 1_555
O2A Pb1 1_555 1_555
Pb1A O1 1_555 1_555
C8 N2 1_555 1_555
C13 C14 1_555 1_555
C17 N1 1_555 1_555
C18 N4 1_555 1_555
C19 N3 1_555 1_555
N2 Pb1 1_555 1_555
O2 Pb1A 1_555 1_555
O3 Pb1 1_555 1_555
O4 Pb1 1_555 1_555

#END
