
#######################################################################
#
#                 Cambridge Crystallographic Data Centre
#                                CCDC 
#
#######################################################################
#
# If this CIF has been generated from an entry in the Cambridge 
# Structural Database, then it will include bibliographic, chemical, 
# crystal, experimental, refinement or atomic coordinate data resulting 
# from the CCDC's data processing and validation procedures.
#
#######################################################################

data_MOXYUU
_symmetry_cell_setting           triclinic
_symmetry_space_group_name_H-M   'P -1'
_symmetry_Int_Tables_number      2
_space_group_name_Hall           '-P 1'
loop_
_symmetry_equiv_pos_site_id
_symmetry_equiv_pos_as_xyz
1 x,y,z
2 -x,-y,-z
_cell_length_a                   8.5905(17)
_cell_length_b                   9.984(2)
_cell_length_c                   13.171(3)
_cell_angle_alpha                90.86(3)
_cell_angle_beta                 98.33(3)
_cell_angle_gamma                111.80(3)
_cell_volume                     1034.88
loop_
_atom_site_label
_atom_site_type_symbol
_atom_site_fract_x
_atom_site_fract_y
_atom_site_fract_z
C1 C 0.3474(9) 0.1409(9) 0.6369(5)
H1 H 0.3467 0.1111 0.5696
C2 C 0.2336(10) 0.2082(10) 0.6544(5)
H2 H 0.1597 0.2216 0.6002
C3 C 0.2359(10) 0.2512(10) 0.7499(6)
H3 H 0.1610 0.2942 0.7634
C4 C 0.3498(9) 0.2331(8) 0.8323(5)
C5 C 0.4578(8) 0.1645(7) 0.8086(5)
C6 C 0.5821(8) 0.1443(7) 0.8889(5)
C7 C 0.8034(9) 0.0691(9) 0.9335(5)
H4 H 0.8768 0.0283 0.9138
C8 C 0.8219(9) 0.1119(9) 1.0372(5)
H5 H 0.9051 0.0994 1.0853
C9 C 0.7152(9) 0.1725(8) 1.0669(5)
H6 H 0.7239 0.2013 1.1357
C10 C 0.5923(8) 0.1905(7) 0.9917(5)
C11 C 0.4739(8) 0.2546(7) 1.0139(5)
C12 C 0.3610(9) 0.2779(8) 0.9375(5)
C13 C 0.3286(9) 0.3649(8) 1.0790(5)
C14 C 0.2719(9) 0.4388(8) 1.1536(5)
C15 C 0.3488(10) 0.4698(9) 1.2562(6)
H7 H 0.4387 0.4420 1.2803
C16 C 0.2892(12) 0.5433(10) 1.3226(6)
H8 H 0.3382 0.5630 1.3916
C17 C 0.1598(13) 0.5862(10) 1.2868(8)
H9 H 0.1211 0.6355 1.3313
C18 C 0.0851(13) 0.5567(10) 1.1838(8)
H10 H -0.0035 0.5860 1.1595
C19 C 0.1415(10) 0.4850(9) 1.1187(6)
H11 H 0.0919 0.4665 1.0497
C20 C -0.1004(9) -0.1448(8) 0.6747(5)
C21 C 0.0394(9) -0.2013(9) 0.6842(5)
H12 H 0.0230 -0.2686 0.7377
H13 H 0.1463 -0.1210 0.7067
C22 C 0.0543(10) -0.2771(10) 0.5868(6)
H14 H 0.0778 -0.2088 0.5340
H15 H -0.0536 -0.3551 0.5620
C23 C 0.3674(8) -0.2225(8) 0.6182(5)
C24 C 0.1954(10) -0.3396(9) 0.6036(6)
H16 H 0.1835 -0.3954 0.6636
H17 H 0.1828 -0.4042 0.5445
N1 N 0.6876(7) 0.0834(6) 0.8615(4)
N2 N 0.4547(7) 0.1180(7) 0.7108(4)
N3 N 0.4507(8) 0.3091(7) 1.1038(4)
H18 H 0.5030 0.3084 1.1645
N4 N 0.2699(8) 0.3475(7) 0.9786(4)
O1 O -0.1237(7) -0.0898(7) 0.7566(4)
O2 O -0.1906(8) -0.1555(8) 0.5896(4)
O3 O 0.4644(6) -0.1972(6) 0.7057(4)
O4 O 0.4093(7) -0.1445(7) 0.5468(4)
Pb1 Pb 0.68269(3) 0.02060(3) 0.66866(2)
O1_2 O 0.8763(7) -0.0898(7) 0.7566(4)
O2_2 O 0.8094(8) -0.1555(8) 0.5896(4)
Pb1_2 Pb -0.31731(3) 0.02060(3) 0.66866(2)
loop_
_geom_bond_atom_site_label_1
_geom_bond_atom_site_label_2
_geom_bond_site_symmetry_1
_geom_bond_site_symmetry_2
C1 H1 1_555 1_555
C2 C1 1_555 1_555
H2 C2 1_555 1_555
C3 C2 1_555 1_555
H3 C3 1_555 1_555
C4 C3 1_555 1_555
C5 C4 1_555 1_555
C6 C5 1_555 1_555
C7 H4 1_555 1_555
C8 C7 1_555 1_555
H5 C8 1_555 1_555
C9 C8 1_555 1_555
H6 C9 1_555 1_555
C10 C6 1_555 1_555
C11 C10 1_555 1_555
C12 C4 1_555 1_555
C13 C14 1_555 1_555
C14 C15 1_555 1_555
C15 H7 1_555 1_555
C16 C15 1_555 1_555
H8 C16 1_555 1_555
C17 C16 1_555 1_555
H9 C17 1_555 1_555
C18 C17 1_555 1_555
H10 C18 1_555 1_555
C19 C14 1_555 1_555
H11 C19 1_555 1_555
C20 C21 1_555 1_555
C21 H12 1_555 1_555
H13 C21 1_555 1_555
C22 C21 1_555 1_555
H14 C22 1_555 1_555
H15 C22 1_555 1_555
C23 C24 1_555 1_555
C24 C22 1_555 1_555
H16 C24 1_555 1_555
H17 C24 1_555 1_555
N1 C6 1_555 1_555
N2 C1 1_555 1_555
N3 C11 1_555 1_555
H18 N3 1_555 1_555
N4 C12 1_555 1_555
O1 C20 1_555 1_555
O2 C20 1_555 1_555
O3 C23 1_555 1_555
O4 C23 1_555 1_555
Pb1 N1 1_555 1_555
O1_2 Pb1 1_555 1_555
O2_2 Pb1 1_555 1_555
Pb1_2 O1 1_555 1_555
C5 N2 1_555 1_555
C7 N1 1_555 1_555
C9 C10 1_555 1_555
C11 C12 1_555 1_555
C13 N3 1_555 1_555
C13 N4 1_555 1_555
C18 C19 1_555 1_555
N2 Pb1 1_555 1_555
O2 Pb1_2 1_555 1_555
O3 Pb1 1_555 1_555
O4 Pb1 1_555 1_555

#END
