
#######################################################################
#
#                 Cambridge Crystallographic Data Centre
#                                CCDC 
#
#######################################################################
#
# If this CIF has been generated from an entry in the Cambridge 
# Structural Database, then it will include bibliographic, chemical, 
# crystal, experimental, refinement or atomic coordinate data resulting 
# from the CCDC's data processing and validation procedures.
#
#######################################################################

data_MOXYII
_symmetry_cell_setting           triclinic
_symmetry_space_group_name_H-M   'P -1'
_symmetry_Int_Tables_number      2
_space_group_name_Hall           '-P 1'
loop_
_symmetry_equiv_pos_site_id
_symmetry_equiv_pos_as_xyz
1 x,y,z
2 -x,-y,-z
_cell_length_a                   7.2740(15)
_cell_length_b                   12.231(2)
_cell_length_c                   12.714(3)
_cell_angle_alpha                113.17(3)
_cell_angle_beta                 96.48(3)
_cell_angle_gamma                92.11(3)
_cell_volume                     1029.17
loop_
_atom_site_label
_atom_site_type_symbol
_atom_site_fract_x
_atom_site_fract_y
_atom_site_fract_z
C1 C 1.7688(10) 0.2190(5) 0.1254(5)
H1 H 1.7650 0.1811 0.1759
C2 C 1.7926(12) 0.1505(5) 0.0104(6)
H2 H 1.8038 0.0689 -0.0145
C3 C 1.7989(10) 0.2052(5) -0.0635(5)
H3 H 1.8172 0.1617 -0.1395
C4 C 1.7779(7) 0.3263(4) -0.0251(4)
C5 C 1.7526(6) 0.3893(4) 0.0908(4)
C6 C 1.7304(6) 0.5166(4) 0.1337(4)
C7 C 1.6845(8) 0.6895(5) 0.2856(5)
H4 H 1.6668 0.7288 0.3624
C8 C 1.6896(8) 0.7543(5) 0.2187(6)
H5 H 1.6750 0.8356 0.2505
C9 C 1.7158(8) 0.6998(5) 0.1060(5)
H6 H 1.7199 0.7432 0.0603
C10 C 1.7363(6) 0.5772(4) 0.0603(4)
C11 C 1.7618(6) 0.5121(5) -0.0592(4)
C12 C 1.7793(7) 0.3892(5) -0.1014(4)
C13 C 1.7986(8) 0.3859(5) -0.2796(5)
H7 H 1.8084 0.3453 -0.3576
C14 C 1.7846(8) 0.5081(6) -0.2370(5)
H8 H 1.7890 0.5465 -0.2870
C15 C 1.4253(6) 0.2967(4) 0.4068(4)
C16 C 1.3138(6) 0.1850(4) 0.3959(4)
C17 C 1.4134(7) 0.0883(4) 0.3898(5)
H9 H 1.5417 0.0948 0.3919
C18 C 1.3249(8) -0.0164(4) 0.3805(5)
H10 H 1.3931 -0.0805 0.3761
C19 C 1.1364(8) -0.0272(4) 0.3778(5)
H11 H 1.0769 -0.0986 0.3714
C20 C 1.0334(7) 0.0684(4) 0.3846(5)
H12 H 0.9052 0.0606 0.3822
C21 C 1.1220(6) 0.1759(4) 0.3950(4)
C22 C 1.0073(6) 0.2771(4) 0.4021(4)
N1 N 1.7515(6) 0.3348(4) 0.1648(4)
N2 N 1.7040(6) 0.5729(4) 0.2451(4)
N3 N 1.7652(6) 0.5722(4) -0.1283(4)
N4 N 1.7985(6) 0.3252(4) -0.2141(4)
O1 O 1.4581(4) 0.3025(3) 0.3141(3)
O2 O 1.4919(4) 0.3711(3) 0.5050(3)
O4 O 1.0859(4) 0.3734(3) 0.4083(3)
O5 O 0.8356(5) 0.2617(3) 0.4004(4)
Pb1 Pb 1.72602(2) 0.447286(13) 0.386987(14)
O2A O 1.5081(4) 0.6289(3) 0.4950(3)
O5_2 O 1.8356(5) 0.2617(3) 0.4004(4)
Pb1A Pb 1.27398(2) 0.552714(13) 0.613013(14)
Pb1_2 Pb 0.72602(2) 0.447286(13) 0.386987(14)
O3 O 1.2592(12) 0.1584(6) 0.0963(6)
loop_
_geom_bond_atom_site_label_1
_geom_bond_atom_site_label_2
_geom_bond_site_symmetry_1
_geom_bond_site_symmetry_2
C1 H1 1_555 1_555
C2 C1 1_555 1_555
H2 C2 1_555 1_555
C3 C2 1_555 1_555
H3 C3 1_555 1_555
C4 C3 1_555 1_555
C5 C4 1_555 1_555
C6 C5 1_555 1_555
C7 H4 1_555 1_555
C8 C7 1_555 1_555
H5 C8 1_555 1_555
C9 C8 1_555 1_555
H6 C9 1_555 1_555
C10 C6 1_555 1_555
C11 C10 1_555 1_555
C12 C4 1_555 1_555
C13 H7 1_555 1_555
C14 C13 1_555 1_555
H8 C14 1_555 1_555
C15 C16 1_555 1_555
C16 C17 1_555 1_555
C17 H9 1_555 1_555
C18 C17 1_555 1_555
H10 C18 1_555 1_555
C19 C18 1_555 1_555
H11 C19 1_555 1_555
C20 C19 1_555 1_555
H12 C20 1_555 1_555
C21 C16 1_555 1_555
C22 C21 1_555 1_555
N1 C1 1_555 1_555
N2 C6 1_555 1_555
N3 C11 1_555 1_555
N4 C12 1_555 1_555
O1 C15 1_555 1_555
O2 C15 1_555 1_555
O4 C22 1_555 1_555
O5 C22 1_555 1_555
Pb1 N1 1_555 1_555
O2A Pb1 1_555 1_555
O5_2 Pb1 1_555 1_555
Pb1A O2 1_555 1_555
Pb1_2 O5 1_555 1_555
C5 N1 1_555 1_555
C7 N2 1_555 1_555
C9 C10 1_555 1_555
C11 C12 1_555 1_555
C13 N4 1_555 1_555
C14 N3 1_555 1_555
C20 C21 1_555 1_555
N2 Pb1 1_555 1_555
O1 Pb1 1_555 1_555
O2 Pb1 1_555 1_555
O2A Pb1A 1_555 1_555

#END
