
#######################################################################
#
#                 Cambridge Crystallographic Data Centre
#                                CCDC 
#
#######################################################################
#
# If this CIF has been generated from an entry in the Cambridge 
# Structural Database, then it will include bibliographic, chemical, 
# crystal, experimental, refinement or atomic coordinate data resulting 
# from the CCDC's data processing and validation procedures.
#
#######################################################################

data_MOXZIJ
_symmetry_cell_setting           triclinic
_symmetry_space_group_name_H-M   'P -1'
_symmetry_Int_Tables_number      2
_space_group_name_Hall           '-P 1'
loop_
_symmetry_equiv_pos_site_id
_symmetry_equiv_pos_as_xyz
1 x,y,z
2 -x,-y,-z
_cell_length_a                   9.3797(3)
_cell_length_b                   9.4191(3)
_cell_length_c                   15.6963(5)
_cell_angle_alpha                101.071(2)
_cell_angle_beta                 90.383(3)
_cell_angle_gamma                114.053(3)
_cell_volume                     1237.17
loop_
_atom_site_label
_atom_site_type_symbol
_atom_site_fract_x
_atom_site_fract_y
_atom_site_fract_z
C1 C 0.4464(5) 0.6558(5) 0.0930(3)
C2 C 0.5477(5) 0.7829(5) 0.0471(3)
C3 C 0.4982(5) 0.7847(5) -0.0365(3)
H1 H 0.4034 0.7059 -0.0642
C4 C 0.5883(6) 0.9020(6) -0.0781(3)
H2 H 0.5533 0.9041 -0.1332
C5 C 0.7313(6) 1.0172(6) -0.0379(3)
H3 H 0.7929 1.0956 -0.0666
C6 C 0.7839(5) 1.0163(5) 0.0457(3)
C7 C 0.9385(5) 1.1420(5) 0.0889(3)
C8 C 0.6904(5) 0.8990(5) 0.0871(3)
H4 H 0.7239 0.8980 0.1427
C9 C 0.3553(6) 0.5063(7) 0.3842(3)
H5 H 0.4262 0.4622 0.3683
C10 C 0.3544(6) 0.5704(7) 0.4726(3)
H6 H 0.4265 0.5718 0.5141
C11 C 0.2475(6) 0.6307(6) 0.4976(3)
H7 H 0.2442 0.6708 0.5561
C12 C 0.1434(5) 0.6312(5) 0.4338(3)
C13 C 0.1548(5) 0.5697(5) 0.3456(3)
C14 C 0.0566(5) 0.5768(5) 0.2758(2)
C15 C 0.0017(6) 0.5414(6) 0.1282(3)
H8 H 0.0200 0.5078 0.0713
C16 C -0.1095(7) 0.6042(7) 0.1402(3)
H9 H -0.1616 0.6144 0.0927
C17 C -0.1404(6) 0.6508(6) 0.2237(3)
H10 H -0.2178 0.6883 0.2336
C18 C -0.0535(5) 0.6411(5) 0.2942(3)
C19 C -0.0661(5) 0.6973(5) 0.3844(3)
C20 C 0.0288(5) 0.6939(5) 0.4497(2)
C21 C -0.1198(5) 0.8058(5) 0.5071(3)
C22 C -0.1914(5) 0.8828(5) 0.5725(3)
C23 C -0.1424(6) 0.9154(6) 0.6609(3)
H11 H -0.0636 0.8884 0.6785
C24 C -0.2101(7) 0.9873(7) 0.7224(3)
H12 H -0.1767 1.0085 0.7812
C25 C -0.3269(7) 1.0281(7) 0.6972(4)
H13 H -0.3724 1.0767 0.7388
C26 C -0.3755(7) 0.9963(8) 0.6101(4)
H14 H -0.4543 1.0238 0.5930
C27 C -0.3094(6) 0.9244(7) 0.5479(3)
H15 H -0.3437 0.9035 0.4892
O1 O 0.3239(4) 0.5459(4) 0.0514(2)
O2 O 0.4847(5) 0.6636(5) 0.1708(2)
O4 O 0.9720(4) 1.1560(4) 0.1692(2)
O6 O 1.0303(4) 1.2324(4) 0.04492(19)
Pb1 Pb 0.250156(19) 0.379805(19) 0.157802(10)
N1 N 0.2578(4) 0.5067(5) 0.3226(2)
N2 N 0.0829(4) 0.5263(4) 0.1921(2)
N3 N -0.0053(4) 0.7635(4) 0.5276(2)
H16 H 0.0378 0.7771 0.5788
N4 N -0.1618(4) 0.7671(5) 0.4210(2)
O4_2 O -0.0280(4) 0.1560(4) 0.1692(2)
O6_2 O 0.0303(4) 0.2324(4) 0.04492(19)
Pb1_2 Pb 1.250156(19) 1.379805(19) 0.157802(10)
O3 O 0.6451(5) 0.8621(5) 0.3257(2)
O5 O 0.8126(5) 1.1746(5) 0.3150(2)
O7 O 0.5883(15) 0.3293(14) 0.2897(8)
loop_
_geom_bond_atom_site_label_1
_geom_bond_atom_site_label_2
_geom_bond_site_symmetry_1
_geom_bond_site_symmetry_2
C1 C2 1_555 1_555
C2 C3 1_555 1_555
C3 H1 1_555 1_555
C4 C3 1_555 1_555
H2 C4 1_555 1_555
C5 C4 1_555 1_555
H3 C5 1_555 1_555
C6 C5 1_555 1_555
C7 C6 1_555 1_555
C8 C2 1_555 1_555
H4 C8 1_555 1_555
C9 H5 1_555 1_555
C10 C9 1_555 1_555
H6 C10 1_555 1_555
C11 C10 1_555 1_555
H7 C11 1_555 1_555
C12 C11 1_555 1_555
C13 C12 1_555 1_555
C14 C13 1_555 1_555
C15 H8 1_555 1_555
C16 C15 1_555 1_555
H9 C16 1_555 1_555
C17 C16 1_555 1_555
H10 C17 1_555 1_555
C18 C14 1_555 1_555
C19 C18 1_555 1_555
C20 C12 1_555 1_555
C21 C22 1_555 1_555
C22 C23 1_555 1_555
C23 H11 1_555 1_555
C24 C23 1_555 1_555
H12 C24 1_555 1_555
C25 C24 1_555 1_555
H13 C25 1_555 1_555
C26 C25 1_555 1_555
H14 C26 1_555 1_555
C27 C22 1_555 1_555
H15 C27 1_555 1_555
O1 C1 1_555 1_555
O2 C1 1_555 1_555
O4 C7 1_555 1_555
O6 C7 1_555 1_555
Pb1 O1 1_555 1_555
N1 C9 1_555 1_555
N2 C14 1_555 1_555
N3 C20 1_555 1_555
H16 N3 1_555 1_555
N4 C19 1_555 1_555
O4_2 Pb1 1_555 1_555
O6_2 Pb1 1_555 1_555
Pb1_2 O4 1_555 1_555
C6 C8 1_555 1_555
C13 N1 1_555 1_555
C15 N2 1_555 1_555
C17 C18 1_555 1_555
C19 C20 1_555 1_555
C21 N3 1_555 1_555
C21 N4 1_555 1_555
C26 C27 1_555 1_555
O2 Pb1 1_555 1_555
O6 Pb1_2 1_555 1_555
Pb1 N1 1_555 1_555
Pb1 N2 1_555 1_555

#END
