
#######################################################################
#
#                 Cambridge Crystallographic Data Centre
#                                CCDC 
#
#######################################################################
#
# If this CIF has been generated from an entry in the Cambridge 
# Structural Database, then it will include bibliographic, chemical, 
# crystal, experimental, refinement or atomic coordinate data resulting 
# from the CCDC's data processing and validation procedures.
#
#######################################################################

data_MOYGUD
_symmetry_cell_setting           triclinic
_symmetry_space_group_name_H-M   'P -1'
_symmetry_Int_Tables_number      2
_space_group_name_Hall           '-P 1'
loop_
_symmetry_equiv_pos_site_id
_symmetry_equiv_pos_as_xyz
1 x,y,z
2 -x,-y,-z
_cell_length_a                   9.990(3)
_cell_length_b                   10.774(3)
_cell_length_c                   12.346(4)
_cell_angle_alpha                105.501(5)
_cell_angle_beta                 92.234(5)
_cell_angle_gamma                111.667(4)
_cell_volume                     1175.88
loop_
_atom_site_label
_atom_site_type_symbol
_atom_site_fract_x
_atom_site_fract_y
_atom_site_fract_z
Cd1 Cd 0.91855(3) 0.62470(3) 0.59354(3)
O1 O 1.0712(4) 0.5082(4) 0.6111(3)
O2 O 1.1817(4) 0.3648(3) 0.5755(3)
C1 C 1.1446(5) 0.4486(5) 0.6452(4)
C2 C 1.1862(5) 0.4767(5) 0.7682(4)
C3 C 1.1368(6) 0.5597(7) 0.8501(5)
H1 H 1.0800 0.6026 0.8272
C4 C 1.1700(9) 0.5787(9) 0.9619(6)
H2 H 1.1343 0.6321 1.0157
C5 C 1.2568(11) 0.5183(10) 0.9952(7)
H3 H 1.2794 0.5316 1.0723
C6 C 1.3109(9) 0.4399(8) 0.9193(6)
H4 H 1.3707 0.4011 0.9441
C7 C 1.2760(7) 0.4187(6) 0.8054(5)
H5 H 1.3127 0.3652 0.7526
O3 O 0.9056(4) 0.6999(4) 0.7895(3)
O4 O 0.7726(4) 0.7516(4) 0.6780(3)
C8 C 0.8109(6) 0.7464(5) 0.7729(5)
C9 C 0.7425(7) 0.7989(6) 0.8718(5)
C10 C 0.8178(9) 0.8566(8) 0.9796(5)
H6 H 0.9114 0.8596 0.9927
C11 C 0.7571(13) 0.9111(10) 1.0702(7)
H7 H 0.8112 0.9566 1.1427
C12 C 0.6152(13) 0.8959(10) 1.0496(8)
H8 H 0.5714 0.9276 1.1101
C13 C 0.5361(9) 0.8356(10) 0.9428(9)
H9 H 0.4403 0.8275 0.9309
C14 C 0.5996(7) 0.7867(7) 0.8526(6)
H10 H 0.5470 0.7459 0.7795
N1 N 0.7234(4) 0.4233(4) 0.5941(3)
N2 N 0.1223(4) -0.1756(4) 0.6082(3)
C15 C 0.7350(5) 0.3468(5) 0.6593(4)
H11 H 0.8253 0.3713 0.7011
C16 C 0.6182(5) 0.2319(5) 0.6677(4)
H12 H 0.6315 0.1806 0.7139
C17 C 0.4838(5) 0.1936(4) 0.6084(4)
C18 C 0.4723(5) 0.2753(5) 0.5406(4)
H13 H 0.3833 0.2542 0.4983
C19 C 0.5934(5) 0.3868(5) 0.5371(4)
H14 H 0.5836 0.4403 0.4918
C20 C 0.3582(5) 0.0674(4) 0.6113(4)
C21 C 0.3782(5) -0.0441(5) 0.6338(4)
H15 H 0.4718 -0.0394 0.6504
C22 C 0.2598(5) -0.1614(5) 0.6317(4)
H16 H 0.2758 -0.2350 0.6473
C23 C 0.1029(5) -0.0663(5) 0.5899(4)
H17 H 0.0082 -0.0725 0.5757
C24 C 0.2169(5) 0.0552(5) 0.5911(4)
H18 H 0.1982 0.1289 0.5783
Cd1A Cd 1.08145(3) 0.37530(3) 0.40646(3)
Cd1_2 Cd -0.08145(3) -0.37530(3) 0.59354(3)
O1A O 0.9288(4) 0.4918(4) 0.3889(3)
O2A O 0.8183(4) 0.6352(3) 0.4245(3)
N2_2 N 1.1223(4) 0.8244(4) 0.6082(3)
O5 O 0.7628(7) 0.0113(5) 0.6929(5)
H19 H 0.7494 -0.0668 0.6977
C25 C 0.8808(10) 0.1092(8) 0.7697(9)
H20 H 0.8976 0.2004 0.7632
H21 H 0.9651 0.0885 0.7548
H22 H 0.8627 0.1077 0.8453
loop_
_geom_bond_atom_site_label_1
_geom_bond_atom_site_label_2
_geom_bond_site_symmetry_1
_geom_bond_site_symmetry_2
Cd1 O1 1_555 1_555
O1 C1 1_555 1_555
O2 C1 1_555 1_555
C1 C2 1_555 1_555
C2 C3 1_555 1_555
C3 H1 1_555 1_555
C4 C3 1_555 1_555
H2 C4 1_555 1_555
C5 C4 1_555 1_555
H3 C5 1_555 1_555
C6 C5 1_555 1_555
H4 C6 1_555 1_555
C7 C2 1_555 1_555
H5 C7 1_555 1_555
O3 Cd1 1_555 1_555
O4 Cd1 1_555 1_555
C8 O3 1_555 1_555
C9 C8 1_555 1_555
C10 C9 1_555 1_555
H6 C10 1_555 1_555
C11 C10 1_555 1_555
H7 C11 1_555 1_555
C12 C11 1_555 1_555
H8 C12 1_555 1_555
C13 C12 1_555 1_555
H9 C13 1_555 1_555
C14 C9 1_555 1_555
H10 C14 1_555 1_555
N1 Cd1 1_555 1_555
N2 C22 1_555 1_555
C15 N1 1_555 1_555
H11 C15 1_555 1_555
C16 C15 1_555 1_555
H12 C16 1_555 1_555
C17 C16 1_555 1_555
C18 C17 1_555 1_555
H13 C18 1_555 1_555
C19 N1 1_555 1_555
H14 C19 1_555 1_555
C20 C17 1_555 1_555
C21 C20 1_555 1_555
H15 C21 1_555 1_555
C22 C21 1_555 1_555
H16 C22 1_555 1_555
C23 N2 1_555 1_555
H17 C23 1_555 1_555
C24 C20 1_555 1_555
H18 C24 1_555 1_555
O5 H19 1_555 1_555
C25 O5 1_555 1_555
H20 C25 1_555 1_555
H21 C25 1_555 1_555
H22 C25 1_555 1_555
Cd1A O1 1_555 1_555
Cd1_2 N2 1_555 1_555
O1A Cd1 1_555 1_555
O2A Cd1 1_555 1_555
N2_2 Cd1 1_555 1_555
O2 Cd1A 1_555 1_555
C6 C7 1_555 1_555
O4 C8 1_555 1_555
C13 C14 1_555 1_555
C18 C19 1_555 1_555
C23 C24 1_555 1_555
Cd1A O1A 1_555 1_555

#END
