
#######################################################################
#
#                 Cambridge Crystallographic Data Centre
#                                CCDC 
#
#######################################################################
#
# If this CIF has been generated from an entry in the Cambridge 
# Structural Database, then it will include bibliographic, chemical, 
# crystal, experimental, refinement or atomic coordinate data resulting 
# from the CCDC's data processing and validation procedures.
#
#######################################################################

data_MOYJIU
_symmetry_cell_setting           monoclinic
_symmetry_space_group_name_H-M   'C 2/c'
_symmetry_Int_Tables_number      15
_space_group_name_Hall           '-C 2yn'
loop_
_symmetry_equiv_pos_site_id
_symmetry_equiv_pos_as_xyz
1 x,y,z
2 -x,y,1/2-z
3 1/2+x,1/2+y,z
4 1/2-x,1/2+y,1/2-z
5 -x,-y,-z
6 x,-y,1/2+z
7 1/2-x,1/2-y,-z
8 1/2+x,1/2-y,1/2+z
_cell_length_a                   17.9800(7)
_cell_length_b                   10.7240(8)
_cell_length_c                   18.7260(13)
_cell_angle_alpha                90
_cell_angle_beta                 104.2320(11)
_cell_angle_gamma                90
_cell_volume                     3499.88
loop_
_atom_site_label
_atom_site_type_symbol
_atom_site_fract_x
_atom_site_fract_y
_atom_site_fract_z
Cd1 Cd 0.5000 0.708945(17) 0.2500
Cl1 Cl 0.23202(5) -0.11910(7) 0.04146(5)
O1 O 0.54888(11) 0.79170(14) 0.36351(11)
O2 O 0.43216(11) 0.86047(18) 0.31589(10)
C1 C 0.38967(12) 0.46870(19) 0.26430(12)
N1 N 0.32228(10) 0.41449(17) 0.22987(11)
N2 N 0.39873(10) 0.57524(16) 0.23115(10)
C2 C 0.32114(14) 0.0101(2) 0.15315(15)
H1 H 0.3583 -0.0506 0.1541
C3 C 0.49123(14) 0.8563(2) 0.36680(13)
C4 C 0.27717(13) 0.19676(19) 0.19908(14)
C5 C 0.49582(12) 0.93005(19) 0.43638(12)
C6 C 0.44766(13) 0.4166(2) 0.32624(12)
C7 C 0.28801(14) 0.4908(2) 0.17225(15)
H2 H 0.2411 0.4774 0.1388
N3 N 0.19580(12) 0.0870(2) 0.09801(14)
C8 C 0.56018(14) 0.9247(2) 0.49409(14)
H3 H 0.6010 0.8739 0.4906
C9 C 0.33508(13) 0.5885(2) 0.17343(14)
H4 H 0.3260 0.6547 0.1404
C10 C 0.43531(13) 1.0059(2) 0.44274(14)
H5 H 0.3914 1.0101 0.4043
C11 C 0.20976(15) 0.1812(2) 0.14640(17)
H6 H 0.1712 0.2399 0.1441
C12 C 0.48854(17) 0.4914(3) 0.38174(15)
H7 H 0.4766 0.5755 0.3837
C13 C 0.28529(15) 0.3039(2) 0.25300(16)
H8 H 0.2348 0.3271 0.2584
H9 H 0.3154 0.2764 0.3007
N4 N 0.46136(15) 0.29336(19) 0.32325(15)
C14 C 0.33376(14) 0.1080(2) 0.20245(15)
H10 H 0.3801 0.1144 0.2378
C15 C 0.5200(2) 0.2462(4) 0.3750(3)
H11 H 0.5311 0.1618 0.3729
C16 C 0.25166(14) 0.0058(2) 0.10286(14)
C17 C 0.5485(2) 0.4383(4) 0.43533(18)
H12 H 0.5773 0.4863 0.4737
C18 C 0.5638(2) 0.3150(5) 0.4300(2)
H13 H 0.6043 0.2781 0.4642
Cd1D Cd 0.5000 1.291055(17) 0.7500
Cl1A Cl 0.76798(5) -0.11910(7) 0.45854(5)
O1D O 0.45112(11) 1.20830(14) 0.63649(11)
O1A O 0.45112(11) 0.79170(14) 0.13649(11)
O2D O 0.56784(11) 1.13953(18) 0.68411(10)
O2A O 0.56784(11) 0.86047(18) 0.18411(10)
C1A C 0.61033(12) 0.46870(19) 0.23570(12)
N1A N 0.67772(10) 0.41449(17) 0.27013(11)
N2A N 0.60127(10) 0.57524(16) 0.26885(10)
C2A C 0.67886(14) 0.0101(2) 0.34685(15)
H1A H 0.6417 -0.0506 0.3459
C3D C 0.50877(14) 1.1437(2) 0.63320(13)
C4A C 0.72283(13) 0.19676(19) 0.30092(14)
C5D C 0.50418(12) 1.06995(19) 0.56362(12)
C6A C 0.55234(13) 0.4166(2) 0.17376(12)
C7A C 0.71199(14) 0.4908(2) 0.32775(15)
H2A H 0.7589 0.4774 0.3612
N3A N 0.80420(12) 0.0870(2) 0.40199(14)
C8D C 0.43982(14) 1.0753(2) 0.50591(14)
H3D H 0.3990 1.1261 0.5094
C9A C 0.66492(13) 0.5885(2) 0.32657(14)
H4A H 0.6740 0.6547 0.3596
C10D C 0.56469(13) 0.9941(2) 0.55726(14)
H5D H 0.6086 0.9899 0.5957
C11A C 0.79024(15) 0.1812(2) 0.35360(17)
H6A H 0.8288 0.2399 0.3559
C12A C 0.51146(17) 0.4914(3) 0.11826(15)
H7A H 0.5234 0.5755 0.1163
C13A C 0.71471(15) 0.3039(2) 0.24700(16)
H8A H 0.7652 0.3271 0.2416
H9A H 0.6846 0.2764 0.1993
N4A N 0.53864(15) 0.29336(19) 0.17675(15)
C14A C 0.66624(14) 0.1080(2) 0.29755(15)
H10A H 0.6199 0.1144 0.2622
C15A C 0.4800(2) 0.2462(4) 0.1250(3)
H11A H 0.4689 0.1618 0.1271
C16A C 0.74834(14) 0.0058(2) 0.39714(14)
C17A C 0.4515(2) 0.4383(4) 0.06467(18)
H12A H 0.4227 0.4863 0.0263
C18A C 0.4362(2) 0.3150(5) 0.0700(2)
H13A H 0.3957 0.2781 0.0358
loop_
_geom_bond_atom_site_label_1
_geom_bond_atom_site_label_2
_geom_bond_site_symmetry_1
_geom_bond_site_symmetry_2
Cd1 O1 1_555 1_555
Cl1 C16 1_555 1_555
O1 C3 1_555 1_555
O2 Cd1 1_555 1_555
C1 N1 1_555 1_555
N1 C7 1_555 1_555
N2 Cd1 1_555 1_555
C2 H1 1_555 1_555
C3 O2 1_555 1_555
C4 C11 1_555 1_555
C5 C3 1_555 1_555
C6 C1 1_555 1_555
C7 H2 1_555 1_555
N3 C11 1_555 1_555
C8 C5 1_555 1_555
H3 C8 1_555 1_555
C9 N2 1_555 1_555
H4 C9 1_555 1_555
C10 C5 1_555 1_555
H5 C10 1_555 1_555
C11 H6 1_555 1_555
C12 C6 1_555 1_555
H7 C12 1_555 1_555
C13 N1 1_555 1_555
H8 C13 1_555 1_555
H9 C13 1_555 1_555
N4 C6 1_555 1_555
C14 C2 1_555 1_555
H10 C14 1_555 1_555
C15 N4 1_555 1_555
H11 C15 1_555 1_555
C16 C2 1_555 1_555
C17 C12 1_555 1_555
H12 C17 1_555 1_555
C18 C15 1_555 1_555
H13 C18 1_555 1_555
Cd1D O1D 1_555 1_555
Cl1A C16A 1_555 1_555
O1D C3D 1_555 1_555
O1A Cd1 1_555 1_555
O2D Cd1D 1_555 1_555
O2A Cd1 1_555 1_555
C1A N1A 1_555 1_555
N1A C7A 1_555 1_555
N2A Cd1 1_555 1_555
C2A H1A 1_555 1_555
C3D O2D 1_555 1_555
C4A C11A 1_555 1_555
C5D C3D 1_555 1_555
C6A C1A 1_555 1_555
C7A H2A 1_555 1_555
N3A C11A 1_555 1_555
C8D C10 1_555 1_555
H3D C8D 1_555 1_555
C9A N2A 1_555 1_555
H4A C9A 1_555 1_555
C10D C8 1_555 1_555
H5D C10D 1_555 1_555
C11A H6A 1_555 1_555
C12A C6A 1_555 1_555
H7A C12A 1_555 1_555
C13A N1A 1_555 1_555
H8A C13A 1_555 1_555
H9A C13A 1_555 1_555
N4A C6A 1_555 1_555
C14A C2A 1_555 1_555
H10A C14A 1_555 1_555
C15A N4A 1_555 1_555
H11A C15A 1_555 1_555
C16A C2A 1_555 1_555
C17A C12A 1_555 1_555
H12A C17A 1_555 1_555
C18A C15A 1_555 1_555
H13A C18A 1_555 1_555
C1 N2 1_555 1_555
C4 C13 1_555 1_555
C4 C14 1_555 1_555
C7 C9 1_555 1_555
N3 C16 1_555 1_555
C17 C18 1_555 1_555
C1A N2A 1_555 1_555
C4A C13A 1_555 1_555
C4A C14A 1_555 1_555
C5D C8D 1_555 1_555
C5D C10D 1_555 1_555
C7A C9A 1_555 1_555
N3A C16A 1_555 1_555
C17A C18A 1_555 1_555

#END
