
#######################################################################
#
#                 Cambridge Crystallographic Data Centre
#                                CCDC 
#
#######################################################################
#
# If this CIF has been generated from an entry in the Cambridge 
# Structural Database, then it will include bibliographic, chemical, 
# crystal, experimental, refinement or atomic coordinate data resulting 
# from the CCDC's data processing and validation procedures.
#
#######################################################################

data_MOYJOA
_symmetry_cell_setting           monoclinic
_symmetry_space_group_name_H-M   'P 21/n'
_symmetry_Int_Tables_number      14
_space_group_name_Hall           '-P 2yn'
loop_
_symmetry_equiv_pos_site_id
_symmetry_equiv_pos_as_xyz
1 x,y,z
2 1/2-x,1/2+y,1/2-z
3 -x,-y,-z
4 1/2+x,1/2-y,1/2+z
_cell_length_a                   12.9370(8)
_cell_length_b                   10.8370(9)
_cell_length_c                   14.7650(11)
_cell_angle_alpha                90
_cell_angle_beta                 102.947(2)
_cell_angle_gamma                90
_cell_volume                     2017.4
loop_
_atom_site_label
_atom_site_type_symbol
_atom_site_fract_x
_atom_site_fract_y
_atom_site_fract_z
Zn1 Zn 0.61245(3) 0.70639(4) 0.34880(3)
O1 O 0.5591(2) 0.6738(2) 0.21686(16)
O2 O 0.5495(2) 0.4770(3) 0.25399(17)
N1 N 0.5072(2) 0.6663(3) 0.4289(2)
C1 C 0.4243(3) 0.5919(4) 0.4011(3)
H1 H 0.4171 0.5502 0.3449
C2 C 0.5210(3) 0.5293(3) 0.0942(2)
N2 N 0.6249(3) 0.9677(3) 0.6196(2)
C3 C 0.4567(3) 1.0182(3) 0.6530(2)
N3 N 0.4105(2) 0.9053(3) 0.64737(19)
C4 C 0.5715(3) 1.0423(3) 0.6657(2)
C5 C 0.6187(3) 1.1372(4) 0.7221(2)
H2 H 0.5791 1.1867 0.7531
O3 O 0.7555(2) 0.6427(3) 0.3757(2)
C6 C 0.5156(3) 0.6212(4) 0.0285(2)
H3 H 0.5258 0.7030 0.0474
C7 C 0.4441(3) 0.7147(3) 0.5656(2)
C8 C 0.5454(3) 0.5598(4) 0.1961(3)
O4 O 0.7740(2) 0.6930(3) 0.5231(2)
C9 C 0.4601(3) 0.7826(3) 0.6573(2)
H4 H 0.4302 0.7340 0.7004
H5 H 0.5355 0.7915 0.6834
C10 C 0.5049(3) 0.4074(3) 0.0653(2)
H6 H 0.5078 0.3449 0.1089
N4 N 0.3837(2) 1.1062(3) 0.64796(19)
C11 C 0.3038(3) 0.9229(4) 0.6383(3)
H7 H 0.2521 0.8620 0.6330
C12 C 0.3593(3) 0.6371(4) 0.5360(3)
H8 H 0.3091 0.6266 0.5717
C13 C 0.9070(3) 0.5670(3) 0.4785(3)
C14 C 0.5164(3) 0.7263(3) 0.5097(2)
H9 H 0.5743 0.7784 0.5293
C15 C 0.3488(3) 0.5745(4) 0.4523(3)
H10 H 0.2918 0.5218 0.4313
C16 C 0.8037(3) 0.6411(4) 0.4584(3)
C17 C 0.7261(3) 1.1573(4) 0.7316(3)
H11 H 0.7604 1.2201 0.7699
C18 C 0.2886(3) 1.0461(4) 0.6386(3)
H12 H 0.2232 1.0845 0.6332
C19 C 0.7816(3) 1.0830(5) 0.6837(3)
H13 H 0.8537 1.0955 0.6878
C20 C 0.9594(4) 0.5493(5) 0.5679(3)
H14 H 0.9323 0.5830 0.6156
C21 C 0.7285(3) 0.9909(5) 0.6301(3)
H15 H 0.7669 0.9405 0.5986
C22 C 0.9480(4) 0.5176(5) 0.4109(3)
H16 H 0.9134 0.5287 0.3491
Zn1B Zn 0.38755(3) 0.29361(4) -0.34880(3)
Zn1B_2 Zn 0.38755(3) 1.29361(4) 0.65120(3)
Zn1B_3 Zn 1.38755(3) 0.29361(4) 0.65120(3)
O1B O 0.4409(2) 0.3262(2) -0.21686(16)
O2B O 0.4505(2) 0.5230(3) -0.25399(17)
N1B N 0.4928(2) 1.3337(3) 0.5711(2)
N1B_2 N 0.4928(2) 0.3337(3) -0.4289(2)
C1B C 0.5757(3) 1.4081(4) 0.5989(3)
H1B H 0.5829 1.4498 0.6551
C2B C 0.4790(3) 0.4707(3) -0.0942(2)
N2B N 0.3751(3) 1.0323(3) 0.3804(2)
C3B C 0.5433(3) 0.9818(3) 0.3470(2)
N3B N 0.5895(2) 1.0947(3) 0.35263(19)
C4B C 0.4285(3) 0.9577(3) 0.3343(2)
C5B C 0.3813(3) 0.8628(4) 0.2779(2)
H2B H 0.4209 0.8133 0.2469
O3B O 1.2445(2) 0.3573(3) 0.6243(2)
O3B_2 O 0.2445(2) 0.3573(3) -0.3757(2)
C6B C 0.4844(3) 0.3788(4) -0.0285(2)
H3B H 0.4742 0.2970 -0.0474
C7B C 0.5559(3) 1.2853(3) 0.4344(2)
C8B C 0.4546(3) 0.4402(4) -0.1961(3)
O4B O 1.2260(2) 0.3070(3) 0.4769(2)
C9B C 0.5399(3) 1.2174(3) 0.3427(2)
H4B H 0.5698 1.2660 0.2996
H5B H 0.4645 1.2085 0.3166
C10B C 0.4951(3) 0.5926(3) -0.0653(2)
H6B H 0.4922 0.6551 -0.1089
N4B N 0.6163(2) 0.8938(3) 0.35204(19)
N4_2 N 0.3837(2) 0.1062(3) -0.35204(19)
C11B C 0.6962(3) 1.0771(4) 0.3617(3)
H7B H 0.7479 1.1380 0.3670
C12B C 0.6407(3) 1.3629(4) 0.4640(3)
H8B H 0.6909 1.3734 0.4283
C13B C 1.0930(3) 0.4330(3) 0.5215(3)
C14B C 0.4836(3) 1.2737(3) 0.4903(2)
H9B H 0.4257 1.2216 0.4707
C15B C 0.6512(3) 1.4255(4) 0.5477(3)
H10B H 0.7082 1.4782 0.5687
C16B C 1.1963(3) 0.3589(4) 0.5416(3)
C17B C 0.2739(3) 0.8427(4) 0.2684(3)
H11B H 0.2396 0.7799 0.2301
C18B C 0.7114(3) 0.9539(4) 0.3614(3)
H12B H 0.7768 0.9155 0.3668
C19B C 0.2184(3) 0.9170(5) 0.3163(3)
H13B H 0.1463 0.9045 0.3122
C20B C 1.0406(4) 0.4507(5) 0.4321(3)
H14B H 1.0677 0.4170 0.3844
C21B C 0.2715(3) 1.0091(5) 0.3699(3)
H15B H 0.2331 1.0595 0.4014
C22B C 1.0520(4) 0.4824(5) 0.5891(3)
H16B H 1.0866 0.4713 0.6509
loop_
_geom_bond_atom_site_label_1
_geom_bond_atom_site_label_2
_geom_bond_site_symmetry_1
_geom_bond_site_symmetry_2
Zn1 O1 1_555 1_555
O1 C8 1_555 1_555
O2 C8 1_555 1_555
N1 Zn1 1_555 1_555
C1 N1 1_555 1_555
H1 C1 1_555 1_555
C2 C6 1_555 1_555
N2 C4 1_555 1_555
C3 N3 1_555 1_555
N3 C9 1_555 1_555
C4 C3 1_555 1_555
C5 C4 1_555 1_555
H2 C5 1_555 1_555
O3 Zn1 1_555 1_555
C6 H3 1_555 1_555
C7 C9 1_555 1_555
C8 C2 1_555 1_555
O4 C16 1_555 1_555
C9 H4 1_555 1_555
H5 C9 1_555 1_555
C10 C2 1_555 1_555
H6 C10 1_555 1_555
N4 C3 1_555 1_555
C11 N3 1_555 1_555
H7 C11 1_555 1_555
C12 C7 1_555 1_555
H8 C12 1_555 1_555
C13 C16 1_555 1_555
C14 N1 1_555 1_555
H9 C14 1_555 1_555
C15 C1 1_555 1_555
H10 C15 1_555 1_555
C16 O3 1_555 1_555
C17 C5 1_555 1_555
H11 C17 1_555 1_555
C18 N4 1_555 1_555
H12 C18 1_555 1_555
C19 C17 1_555 1_555
H13 C19 1_555 1_555
C20 C13 1_555 1_555
H14 C20 1_555 1_555
C21 N2 1_555 1_555
H15 C21 1_555 1_555
C22 C13 1_555 1_555
H16 C22 1_555 1_555
Zn1B O1B 1_555 1_555
Zn1B_2 N4 1_555 1_555
Zn1B_3 O3B 1_555 1_555
O1B C8B 1_555 1_555
O2B C8B 1_555 1_555
N1B Zn1B_2 1_555 1_555
N1B_2 Zn1B 1_555 1_555
C1B N1B 1_555 1_555
H1B C1B 1_555 1_555
C2B C6B 1_555 1_555
N2B C4B 1_555 1_555
C3B N3B 1_555 1_555
N3B C9B 1_555 1_555
C4B C3B 1_555 1_555
C5B C4B 1_555 1_555
H2B C5B 1_555 1_555
O3B C16B 1_555 1_555
O3B_2 Zn1B 1_555 1_555
C6B C10 1_555 1_555
H3B C6B 1_555 1_555
C7B C9B 1_555 1_555
C8B C2B 1_555 1_555
O4B C16B 1_555 1_555
C9B H4B 1_555 1_555
H5B C9B 1_555 1_555
C10B C6 1_555 1_555
H6B C10B 1_555 1_555
N4B Zn1 1_555 1_555
N4_2 Zn1B 1_555 1_555
C11B N3B 1_555 1_555
H7B C11B 1_555 1_555
C12B C7B 1_555 1_555
H8B C12B 1_555 1_555
C13B C16B 1_555 1_555
C14B N1B 1_555 1_555
H9B C14B 1_555 1_555
C15B C1B 1_555 1_555
H10B C15B 1_555 1_555
C17B C5B 1_555 1_555
H11B C17B 1_555 1_555
C18B N4B 1_555 1_555
H12B C18B 1_555 1_555
C19B C17B 1_555 1_555
H13B C19B 1_555 1_555
C20B C22 1_555 1_555
H14B C20B 1_555 1_555
C21B N2B 1_555 1_555
H15B C21B 1_555 1_555
C22B C20 1_555 1_555
H16B C22B 1_555 1_555
C7 C14 1_555 1_555
C11 C18 1_555 1_555
C12 C15 1_555 1_555
C19 C21 1_555 1_555
C2B C10B 1_555 1_555
C3B N4B 1_555 1_555
C7B C14B 1_555 1_555
C11B C18B 1_555 1_555
C12B C15B 1_555 1_555
C13B C20B 1_555 1_555
C13B C22B 1_555 1_555
C19B C21B 1_555 1_555

#END
