
#######################################################################
#
#                 Cambridge Crystallographic Data Centre
#                                CCDC 
#
#######################################################################
#
# If this CIF has been generated from an entry in the Cambridge 
# Structural Database, then it will include bibliographic, chemical, 
# crystal, experimental, refinement or atomic coordinate data resulting 
# from the CCDC's data processing and validation procedures.
#
#######################################################################

data_MOYMET
_symmetry_cell_setting           tetragonal
_symmetry_space_group_name_H-M   'P -4 21 c'
_symmetry_Int_Tables_number      114
_space_group_name_Hall           'P -4 2n'
loop_
_symmetry_equiv_pos_site_id
_symmetry_equiv_pos_as_xyz
1 x,y,z
2 -x,-y,z
3 y,-x,-z
4 -y,x,-z
5 1/2-x,1/2+y,1/2-z
6 1/2+x,1/2-y,1/2-z
7 1/2-y,1/2-x,1/2+z
8 1/2+y,1/2+x,1/2+z
_cell_length_a                   22.1138(10)
_cell_length_b                   22.1138(10)
_cell_length_c                   8.0576(8)
_cell_angle_alpha                90
_cell_angle_beta                 90
_cell_angle_gamma                90
_cell_volume                     3940.33
loop_
_atom_site_label
_atom_site_type_symbol
_atom_site_fract_x
_atom_site_fract_y
_atom_site_fract_z
Co1 Co 0.255199(9) 0.755365(8) 0.75767(2)
O1 O 0.23530(6) 0.66645(4) 0.82550(13)
O2 O 0.26261(7) 0.61778(5) 0.59560(14)
O3 O 0.22608(5) 0.34441(4) 0.81120(13)
O4 O 0.24984(8) 0.39330(5) 0.57862(14)
O5 O 0.34106(5) 0.74561(6) 0.85370(14)
H1 H 0.3469 0.7527 0.9550
H2 H 0.3470 0.7065 0.8438
O6 O 0.16953(5) 0.76509(6) 0.66097(15)
H3 H 0.1730 0.7490 0.5681
H4 H 0.1345 0.7797 0.6715
O7 O 0.22800(4) 0.78302(4) 1.00779(13)
H5 H 0.1845 0.7774 1.0078
H6 H 0.2342 0.8264 1.0078
C1 C 0.21986(7) 0.55999(6) 0.81450(19)
C2 C 0.23438(7) 0.50563(6) 0.73635(17)
H15 H 0.2564 0.5056 0.6380
C3 C 0.21548(7) 0.45116(6) 0.80728(18)
C4 C 0.18148(7) 0.45158(7) 0.95396(19)
H16 H 0.1690 0.4150 0.9996
C5 C 0.16582(7) 0.50566(7) 1.03363(18)
C6 C 0.18616(7) 0.55974(7) 0.96032(19)
H17 H 0.1768 0.5964 1.0108
C7 C 0.24088(7) 0.61848(7) 0.73874(18)
C8 C 0.23168(7) 0.39235(6) 0.72466(19)
C9 C 0.12979(7) 0.50725(7) 1.19557(19)
C10 C 0.17005(11) 0.53406(14) 1.3317(3)
H18 H 0.2078 0.5126 1.3348
H19 H 0.1501 0.5304 1.4370
H20 H 0.1775 0.5760 1.3084
C11 C 0.07487(10) 0.54755(11) 1.1742(3)
H21 H 0.0525 0.5489 1.2763
H22 H 0.0496 0.5317 1.0877
H23 H 0.0877 0.5876 1.1452
C12 C 0.10820(12) 0.44486(10) 1.2484(3)
H24 H 0.1424 0.4186 1.2617
H25 H 0.0817 0.4287 1.1650
H26 H 0.0868 0.4479 1.3518
Co1D Co 0.244801(9) 0.255365(8) 0.74233(2)
Co1G Co 0.255365(8) 0.755199(9) 1.25767(2)
O3D O 0.27392(5) 0.84441(4) 0.68880(13)
O7G O 0.28302(4) 0.72800(4) 0.50779(13)
H5G H 0.2774 0.6845 0.5078
H6G H 0.3264 0.7342 0.5078
O8 O 0.32283(9) 0.57229(8) 0.3119(3)
H7 H 0.3200 0.5340 0.3096
H8 H 0.3027 0.5772 0.4027
O9 O 0.31295(14) 0.43712(8) 0.3038(4)
H9 H 0.3079 0.4031 0.2591
H10 H 0.2977 0.4347 0.4022
O10 O 0.3997(6) 0.5539(6) 0.6366(16)
H11 H 0.4097 0.5905 0.6543
H12 H 0.3800 0.5614 0.5485
O11 O 0.3803(8) 0.4524(8) 0.006(2)
H13 H 0.3980 0.4209 -0.0222
H14 H 0.3752 0.4531 0.0833
loop_
_geom_bond_atom_site_label_1
_geom_bond_atom_site_label_2
_geom_bond_site_symmetry_1
_geom_bond_site_symmetry_2
Co1 O1 1_555 1_555
O1 C7 1_555 1_555
O2 C7 1_555 1_555
O3 C8 1_555 1_555
O4 C8 1_555 1_555
O5 Co1 1_555 1_555
H1 O5 1_555 1_555
H2 O5 1_555 1_555
O6 Co1 1_555 1_555
H3 O6 1_555 1_555
H4 O6 1_555 1_555
O7 Co1 1_555 1_555
H5 O7 1_555 1_555
H6 O7 1_555 1_555
O8 H7 1_555 1_555
H8 O8 1_555 1_555
O9 H9 1_555 1_555
H10 O9 1_555 1_555
O10 H11 1_555 1_555
H12 O10 1_555 1_555
O11 H13 1_555 1_555
H14 O11 1_555 1_555
C1 C2 1_555 1_555
C2 H15 1_555 1_555
C3 C2 1_555 1_555
C4 C3 1_555 1_555
H16 C4 1_555 1_555
C5 C4 1_555 1_555
C6 C1 1_555 1_555
H17 C6 1_555 1_555
C7 C1 1_555 1_555
C8 C3 1_555 1_555
C9 C5 1_555 1_555
C10 C9 1_555 1_555
H18 C10 1_555 1_555
H19 C10 1_555 1_555
H20 C10 1_555 1_555
C11 C9 1_555 1_555
H21 C11 1_555 1_555
H22 C11 1_555 1_555
H23 C11 1_555 1_555
C12 C9 1_555 1_555
H24 C12 1_555 1_555
H25 C12 1_555 1_555
H26 C12 1_555 1_555
Co1D O3 1_555 1_555
Co1G O7 1_555 1_555
O3D Co1 1_555 1_555
O7G Co1 1_555 1_555
H5G O7G 1_555 1_555
H6G O7G 1_555 1_555
C5 C6 1_555 1_555

#END
