
#######################################################################
#
#                 Cambridge Crystallographic Data Centre
#                                CCDC 
#
#######################################################################
#
# If this CIF has been generated from an entry in the Cambridge 
# Structural Database, then it will include bibliographic, chemical, 
# crystal, experimental, refinement or atomic coordinate data resulting 
# from the CCDC's data processing and validation procedures.
#
#######################################################################

data_MOYQIB
_symmetry_cell_setting           orthorhombic
_symmetry_space_group_name_H-M   'F d d d'
_symmetry_Int_Tables_number      70
_space_group_name_Hall           '-F 2uv 2vw'
loop_
_symmetry_equiv_pos_site_id
_symmetry_equiv_pos_as_xyz
1 x,y,z
2 3/4-x,3/4-y,z
3 3/4-x,y,3/4-z
4 x,3/4-y,3/4-z
5 x,1/2+y,1/2+z
6 3/4-x,1/4-y,1/2+z
7 3/4-x,1/2+y,1/4-z
8 x,1/4-y,1/4-z
9 1/2+x,y,1/2+z
10 1/4-x,3/4-y,1/2+z
11 1/4-x,y,1/4-z
12 1/2+x,3/4-y,1/4-z
13 1/2+x,1/2+y,z
14 1/4-x,1/4-y,z
15 1/4-x,1/2+y,3/4-z
16 1/2+x,1/4-y,3/4-z
17 -x,-y,-z
18 1/4+x,1/4+y,-z
19 1/4+x,-y,1/4+z
20 -x,1/4+y,1/4+z
21 -x,1/2-y,1/2-z
22 1/4+x,3/4+y,1/2-z
23 1/4+x,1/2-y,3/4+z
24 -x,3/4+y,3/4+z
25 1/2-x,-y,1/2-z
26 3/4+x,1/4+y,1/2-z
27 3/4+x,-y,3/4+z
28 1/2-x,1/4+y,3/4+z
29 1/2-x,1/2-y,-z
30 3/4+x,3/4+y,-z
31 3/4+x,1/2-y,1/4+z
32 1/2-x,3/4+y,1/4+z
_cell_length_a                   13.5179(9)
_cell_length_b                   25.9084(17)
_cell_length_c                   30.351(2)
_cell_angle_alpha                90
_cell_angle_beta                 90
_cell_angle_gamma                90
_cell_volume                     10629.7
loop_
_atom_site_label
_atom_site_type_symbol
_atom_site_fract_x
_atom_site_fract_y
_atom_site_fract_z
Cl1 Cl 0.6250 0.39208(4) 0.6250
O1 O 0.6305(4) 0.42085(16) 0.66316(14)
O2 O 0.5467(3) 0.3646(2) 0.62867(16)
O1J O 0.6195(4) 0.42085(16) 0.58684(14)
O2J O 0.7033(3) 0.3646(2) 0.62133(16)
Co1 Co 1.3750 0.8750 0.8750
O3 O 1.3750 0.8750 0.94636(8)
N1 N 1.25800(13) 0.81355(7) 0.87851(6)
N2 N 1.16221(14) 0.75227(7) 0.84906(6)
N3 N 1.3750 0.8750 1.01959(9)
C1 C 1.16432(17) 0.81507(9) 0.89869(8)
C2 C 1.1272(2) 0.84754(12) 0.93093(9)
H1 H 1.1665 0.8728 0.9439
C3 C 1.0298(2) 0.84093(14) 0.94307(10)
H2 H 1.0029 0.8624 0.9645
C4 C 0.9709(2) 0.80308(13) 0.92423(11)
H3 H 0.9058 0.7997 0.9337
C5 C 1.00562(19) 0.77016(11) 0.89194(10)
H4 H 0.9659 0.7450 0.8791
C6 C 1.10396(16) 0.77721(9) 0.87990(8)
C7 C 1.25184(16) 0.77583(9) 0.85038(8)
H5 H 1.3045 0.7658 0.8326
C8 C 1.13122(19) 0.71170(10) 0.81892(9)
H6 H 1.1892 0.6965 0.8053
H7 H 1.0976 0.6848 0.8354
C9 C 1.06260(16) 0.73209(8) 0.78329(8)
C10 C 1.08769(19) 0.77404(10) 0.75749(9)
H8 H 1.1477 0.7906 0.7624
C11 C 0.97346(19) 0.70830(10) 0.77497(8)
H9 H 0.9547 0.6798 0.7917
C12 C 1.3649(5) 0.8524(2) 0.97917(10)
C13 C 1.3692(7) 0.8282(3) 1.0429(3)
H10 H 1.4235 0.8258 1.0632
H11 H 1.3079 0.8268 1.0588
H12 H 1.3722 0.7998 1.0225
Co1T Co 0.6250 0.6250 0.6250
Co1X Co 2.1250 1.1250 0.6250
O3B O 1.3750 0.8750 0.80364(8)
N1T N 0.74200(13) 0.68645(7) 0.62149(6)
N1A N 1.49200(13) 0.93645(7) 0.87851(6)
N1Y N 2.00800(13) 1.06355(7) 0.62149(6)
N1B N 1.49200(13) 0.81355(7) 0.87149(6)
N1C N 1.25800(13) 0.93645(7) 0.87149(6)
N2T N 0.83779(14) 0.74773(7) 0.65094(6)
N2A N 1.58779(14) 0.99773(7) 0.84906(6)
N2Y N 1.91221(14) 1.00227(7) 0.65094(6)
N3B N 1.3750 0.8750 0.73041(9)
C1T C 0.83568(17) 0.68493(9) 0.60131(8)
C1A C 1.58568(17) 0.93493(9) 0.89869(8)
C1Y C 1.91432(17) 1.06507(9) 0.60131(8)
C2T C 0.8728(2) 0.65246(12) 0.56907(9)
C2A C 1.6228(2) 0.90246(12) 0.93093(9)
C2Y C 1.8772(2) 1.09754(12) 0.56907(9)
H1T H 0.8335 0.6272 0.5561
H1A H 1.5835 0.8772 0.9439
H1Y H 1.9165 1.1228 0.5561
C3T C 0.9702(2) 0.65907(14) 0.55693(10)
C3A C 1.7202(2) 0.90907(14) 0.94307(10)
C3Y C 1.7798(2) 1.09093(14) 0.55693(10)
H2T H 0.9971 0.6376 0.5355
H2A H 1.7471 0.8876 0.9645
H2Y H 1.7529 1.1124 0.5355
C4T C 1.0291(2) 0.69692(13) 0.57577(11)
C4A C 1.7791(2) 0.94692(13) 0.92423(11)
C4Y C 1.7209(2) 1.05308(13) 0.57577(11)
H3T H 1.0942 0.7003 0.5663
H3A H 1.8442 0.9503 0.9337
H3Y H 1.6558 1.0497 0.5663
C5T C 0.99438(19) 0.72984(11) 0.60806(10)
C5A C 1.74438(19) 0.97984(11) 0.89194(10)
C5Y C 1.75562(19) 1.02016(11) 0.60806(10)
H4T H 1.0341 0.7550 0.6209
H4A H 1.7841 1.0050 0.8791
H4Y H 1.7159 0.9950 0.6209
C6T C 0.89604(16) 0.72279(9) 0.62010(8)
C6A C 1.64604(16) 0.97279(9) 0.87990(8)
C6Y C 1.85396(16) 1.02721(9) 0.62010(8)
C7T C 0.74816(16) 0.72417(9) 0.64962(8)
C7A C 1.49816(16) 0.97417(9) 0.85038(8)
C7Y C 2.00184(16) 1.02583(9) 0.64962(8)
H5T H 0.6955 0.7342 0.6674
H5A H 1.4455 0.9842 0.8326
H5Y H 2.0545 1.0158 0.6674
C8T C 0.86878(19) 0.78830(10) 0.68108(9)
C8A C 1.61878(19) 1.03830(10) 0.81892(9)
C8Y C 1.88122(19) 0.96170(10) 0.68108(9)
H6T H 0.8108 0.8035 0.6947
H6A H 1.5608 1.0535 0.8053
H6Y H 1.9392 0.9465 0.6947
H7T H 0.9024 0.8152 0.6646
H7A H 1.6524 1.0652 0.8354
H7Y H 1.8476 0.9348 0.6646
C9T C 0.93740(16) 0.76791(8) 0.71671(8)
C9A C 1.68740(16) 1.01791(8) 0.78329(8)
C9Y C 1.81260(16) 0.98209(8) 0.71671(8)
C10T C 0.91231(19) 0.72596(10) 0.74251(9)
C10A C 1.66231(19) 0.97596(10) 0.75749(9)
C10Y C 1.83769(19) 1.02404(10) 0.74251(9)
H8T H 0.8523 0.7094 0.7376
H8A H 1.6023 0.9594 0.7624
H8Y H 1.8977 1.0406 0.7376
C11T C 1.02654(19) 0.79170(10) 0.72503(8)
C11A C 1.77654(19) 1.04170(10) 0.77497(8)
C11Y C 1.72346(19) 0.95830(10) 0.72503(8)
H9T H 1.0453 0.8202 0.7083
H9A H 1.7953 1.0702 0.7917
H9Y H 1.7047 0.9298 0.7083
C12A C 1.3851(5) 0.8976(2) 0.97917(10)
C12B C 1.3851(5) 0.8524(2) 0.77083(10)
C12C C 1.3649(5) 0.8976(2) 0.77083(10)
C13A C 1.3808(7) 0.9218(3) 1.0429(3)
C13B C 1.3808(7) 0.8282(3) 0.7071(3)
C13C C 1.3692(7) 0.9218(3) 0.7071(3)
H10A H 1.3265 0.9242 1.0632
H10B H 1.3265 0.8258 0.6868
H10C H 1.4235 0.9242 0.6868
H11A H 1.4421 0.9232 1.0588
H11B H 1.4421 0.8268 0.6912
H11C H 1.3079 0.9232 0.6912
H12A H 1.3778 0.9502 1.0225
H12B H 1.3778 0.7998 0.7275
H12C H 1.3722 0.9502 0.7275
loop_
_geom_bond_atom_site_label_1
_geom_bond_atom_site_label_2
_geom_bond_site_symmetry_1
_geom_bond_site_symmetry_2
Co1 O3 1_555 1_555
Cl1 O1 1_555 1_555
O2 Cl1 1_555 1_555
O3 C12 1_555 1_555
N1 Co1 1_555 1_555
N2 C6 1_555 1_555
N3 C12 1_555 1_555
C1 N1 1_555 1_555
C2 C1 1_555 1_555
H1 C2 1_555 1_555
C3 C2 1_555 1_555
H2 C3 1_555 1_555
C4 C3 1_555 1_555
H3 C4 1_555 1_555
C5 C4 1_555 1_555
H4 C5 1_555 1_555
C6 C1 1_555 1_555
C7 N1 1_555 1_555
H5 C7 1_555 1_555
C8 N2 1_555 1_555
H6 C8 1_555 1_555
H7 C8 1_555 1_555
C9 C8 1_555 1_555
C10 C9 1_555 1_555
H8 C10 1_555 1_555
C11 C9 1_555 1_555
H9 C11 1_555 1_555
C12 C12A 1_555 1_555
C13 N3 1_555 1_555
H10 C13 1_555 1_555
H11 C13 1_555 1_555
H12 C13 1_555 1_555
Co1T N1T 1_555 1_555
Co1X N1Y 1_555 1_555
O1J Cl1 1_555 1_555
O2J Cl1 1_555 1_555
O3B Co1 1_555 1_555
N1T C1T 1_555 1_555
N1A Co1 1_555 1_555
N1Y C1Y 1_555 1_555
N1B Co1 1_555 1_555
N1C Co1 1_555 1_555
N2T C6T 1_555 1_555
N2A C6A 1_555 1_555
N2Y C6Y 1_555 1_555
N3B C12B 1_555 1_555
C1T C2T 1_555 1_555
C1A N1A 1_555 1_555
C1Y C2Y 1_555 1_555
C2T H1T 1_555 1_555
C2A C1A 1_555 1_555
C2Y H1Y 1_555 1_555
H1A C2A 1_555 1_555
C3T C2T 1_555 1_555
C3A C2A 1_555 1_555
C3Y C2Y 1_555 1_555
H2T C3T 1_555 1_555
H2A C3A 1_555 1_555
H2Y C3Y 1_555 1_555
C4T C3T 1_555 1_555
C4A C3A 1_555 1_555
C4Y C3Y 1_555 1_555
H3T C4T 1_555 1_555
H3A C4A 1_555 1_555
H3Y C4Y 1_555 1_555
C5T C4T 1_555 1_555
C5A C4A 1_555 1_555
C5Y C4Y 1_555 1_555
H4T C5T 1_555 1_555
H4A C5A 1_555 1_555
H4Y C5Y 1_555 1_555
C6T C1T 1_555 1_555
C6A C1A 1_555 1_555
C6Y C1Y 1_555 1_555
C7T N1T 1_555 1_555
C7A N1A 1_555 1_555
C7Y N1Y 1_555 1_555
H5T C7T 1_555 1_555
H5A C7A 1_555 1_555
H5Y C7Y 1_555 1_555
C8T N2T 1_555 1_555
C8A N2A 1_555 1_555
C8Y N2Y 1_555 1_555
H6T C8T 1_555 1_555
H6A C8A 1_555 1_555
H6Y C8Y 1_555 1_555
H7T C8T 1_555 1_555
H7A C8A 1_555 1_555
H7Y C8Y 1_555 1_555
C9T C8T 1_555 1_555
C9A C8A 1_555 1_555
C9Y C8Y 1_555 1_555
C10T C11 1_555 1_555
C10A C9A 1_555 1_555
C10Y C9Y 1_555 1_555
H8T C10T 1_555 1_555
H8A C10A 1_555 1_555
H8Y C10Y 1_555 1_555
C11T C10 1_555 1_555
C11A C9A 1_555 1_555
C11Y C9Y 1_555 1_555
H9T C11T 1_555 1_555
H9A C11A 1_555 1_555
H9Y C11Y 1_555 1_555
C12A O3 1_555 1_555
C12B O3B 1_555 1_555
C12C O3B 1_555 1_555
C13A N3 1_555 1_555
C13B N3B 1_555 1_555
C13C N3B 1_555 1_555
H10A C13A 1_555 1_555
H10B C13B 1_555 1_555
H10C C13C 1_555 1_555
H11A C13A 1_555 1_555
H11B C13B 1_555 1_555
H11C C13C 1_555 1_555
H12A C13A 1_555 1_555
H12B C13B 1_555 1_555
H12C C13C 1_555 1_555
N2 C7 1_555 1_555
N3 C12A 1_555 1_555
C5 C6 1_555 1_555
N2T C7T 1_555 1_555
N2A C7A 1_555 1_555
N2Y C7Y 1_555 1_555
N3B C12C 1_555 1_555
C5T C6T 1_555 1_555
C5A C6A 1_555 1_555
C5Y C6Y 1_555 1_555
C9T C10T 1_555 1_555
C9T C11T 1_555 1_555
C10A C11Y 1_555 1_555
C10Y C11A 1_555 1_555
C12B C12C 1_555 1_555

#END
