
#######################################################################
#
#                 Cambridge Crystallographic Data Centre
#                                CCDC 
#
#######################################################################
#
# If this CIF has been generated from an entry in the Cambridge 
# Structural Database, then it will include bibliographic, chemical, 
# crystal, experimental, refinement or atomic coordinate data resulting 
# from the CCDC's data processing and validation procedures.
#
#######################################################################

data_MOYRUP
_symmetry_cell_setting           triclinic
_symmetry_space_group_name_H-M   'P -1'
_symmetry_Int_Tables_number      2
_space_group_name_Hall           '-P 1'
loop_
_symmetry_equiv_pos_site_id
_symmetry_equiv_pos_as_xyz
1 x,y,z
2 -x,-y,-z
_cell_length_a                   8.1989(4)
_cell_length_b                   8.9227(6)
_cell_length_c                   9.0742(5)
_cell_angle_alpha                77.653(5)
_cell_angle_beta                 69.815(5)
_cell_angle_gamma                79.658(5)
_cell_volume                     604.592
loop_
_atom_site_label
_atom_site_type_symbol
_atom_site_fract_x
_atom_site_fract_y
_atom_site_fract_z
Mg1 Mg 0.5000 0.0000 1.0000
Br1 Br 0.21258(5) 0.53813(5) 0.84941(4)
Br2 Br 0.34798(5) 0.84853(4) 0.58264(4)
C1 C 0.3970(5) 0.2264(4) 0.7402(4)
C2 C 0.4467(4) 0.3690(4) 0.6134(4)
C3 C 0.3797(4) 0.5170(4) 0.6470(4)
C4 C 0.4326(4) 0.6476(4) 0.5356(4)
C5 C 0.1236(5) -0.0945(5) 1.1216(5)
H1 H 0.0365 -0.1247 1.0889
H2 H 0.0785 -0.0014 1.1664
H3 H 0.1534 -0.1751 1.2000
C6 C 0.7817(6) -0.4962(5) 0.7144(5)
H4 H 0.6935 -0.5379 0.8082
H5 H 0.8951 -0.5443 0.7179
H6 H 0.7630 -0.5157 0.6217
C7 C 0.8968(5) -0.2482(5) 0.5715(5)
H7 H 0.8774 -0.1406 0.5804
H8 H 0.8813 -0.2599 0.4746
H9 H 1.0138 -0.2888 0.5704
C8 C 0.6587(5) -0.2582(5) 0.8196(5)
H10 H 0.5802 -0.3150 0.9036
N1 N 0.7718(4) -0.3322(4) 0.7074(4)
O1 O 0.4869(3) 0.1921(3) 0.8318(3)
O2 O 0.2745(3) 0.1611(3) 0.7411(3)
O3 O 0.2770(3) -0.0678(3) 0.9862(3)
O4 O 0.6501(3) -0.1198(3) 0.8204(3)
Br1A Br 0.78742(5) 0.46187(5) 0.15059(4)
Br2A Br 0.65202(5) 0.15147(4) 0.41736(4)
C1A C 0.6030(5) 0.7736(4) 0.2598(4)
C2A C 0.5533(4) 0.6310(4) 0.3866(4)
C3A C 0.6203(4) 0.4830(4) 0.3530(4)
C4A C 0.5674(4) 0.3524(4) 0.4644(4)
O1A O 0.5131(3) 0.8079(3) 0.1682(3)
O2A O 0.7255(3) 0.8389(3) 0.2589(3)
C5A C 0.8764(5) 0.0945(5) 0.8784(5)
H1A H 0.9635 0.1247 0.9111
H2A H 0.9215 0.0014 0.8336
H3A H 0.8466 0.1751 0.8000
C6A C 0.2183(6) 0.4962(5) 1.2856(5)
H4A H 0.3065 0.5379 1.1918
H5A H 0.1049 0.5443 1.2821
H6A H 0.2370 0.5157 1.3783
C7A C 0.1032(5) 0.2482(5) 1.4285(5)
H7A H 0.1226 0.1406 1.4196
H8A H 0.1187 0.2599 1.5254
H9A H -0.0138 0.2888 1.4296
C8A C 0.3413(5) 0.2582(5) 1.1804(5)
H10A H 0.4198 0.3150 1.0964
N1A N 0.2282(4) 0.3322(4) 1.2926(4)
O3A O 0.7230(3) 0.0678(3) 1.0138(3)
O4A O 0.3499(3) 0.1198(3) 1.1796(3)
Mg1_2 Mg 0.5000 1.0000 0.0000
O1A_2 O 0.5131(3) -0.1921(3) 1.1682(3)
loop_
_geom_bond_atom_site_label_1
_geom_bond_atom_site_label_2
_geom_bond_site_symmetry_1
_geom_bond_site_symmetry_2
Mg1 O1 1_555 1_555
Br1 C3 1_555 1_555
Br2 C4 1_555 1_555
C1 C2 1_555 1_555
C2 C3 1_555 1_555
C3 C4 1_555 1_555
C4 C2A 1_555 1_555
C5 H1 1_555 1_555
H2 C5 1_555 1_555
H3 C5 1_555 1_555
C6 H4 1_555 1_555
H5 C6 1_555 1_555
H6 C6 1_555 1_555
C7 H7 1_555 1_555
H8 C7 1_555 1_555
H9 C7 1_555 1_555
C8 H10 1_555 1_555
N1 C6 1_555 1_555
O1 C1 1_555 1_555
O2 C1 1_555 1_555
O3 Mg1 1_555 1_555
O4 Mg1 1_555 1_555
Br1A C3A 1_555 1_555
Br2A C4A 1_555 1_555
C1A C2A 1_555 1_555
C2A C3A 1_555 1_555
C3A C4A 1_555 1_555
C4A C2 1_555 1_555
O1A C1A 1_555 1_555
O2A C1A 1_555 1_555
C5A H1A 1_555 1_555
H2A C5A 1_555 1_555
H3A C5A 1_555 1_555
C6A H4A 1_555 1_555
H5A C6A 1_555 1_555
H6A C6A 1_555 1_555
C7A H7A 1_555 1_555
H8A C7A 1_555 1_555
H9A C7A 1_555 1_555
C8A H10A 1_555 1_555
N1A C6A 1_555 1_555
O3A Mg1 1_555 1_555
O4A Mg1 1_555 1_555
Mg1_2 O1A 1_555 1_555
O1A_2 Mg1 1_555 1_555
C5 O3 1_555 1_555
C7 N1 1_555 1_555
C8 N1 1_555 1_555
C8 O4 1_555 1_555
C5A O3A 1_555 1_555
C7A N1A 1_555 1_555
C8A N1A 1_555 1_555
C8A O4A 1_555 1_555

#END
