
#######################################################################
#
#                 Cambridge Crystallographic Data Centre
#                                CCDC 
#
#######################################################################
#
# If this CIF has been generated from an entry in the Cambridge 
# Structural Database, then it will include bibliographic, chemical, 
# crystal, experimental, refinement or atomic coordinate data resulting 
# from the CCDC's data processing and validation procedures.
#
#######################################################################

data_MOYTOK
_symmetry_cell_setting           monoclinic
_symmetry_space_group_name_H-M   'P 21/c'
_symmetry_Int_Tables_number      14
_space_group_name_Hall           '-P 2ybc'
loop_
_symmetry_equiv_pos_site_id
_symmetry_equiv_pos_as_xyz
1 x,y,z
2 -x,1/2+y,1/2-z
3 -x,-y,-z
4 x,1/2-y,1/2+z
_cell_length_a                   17.6692(13)
_cell_length_b                   8.1098(6)
_cell_length_c                   24.3357(17)
_cell_angle_alpha                90
_cell_angle_beta                 100.471(4)
_cell_angle_gamma                90
_cell_volume                     3429.08
loop_
_atom_site_label
_atom_site_type_symbol
_atom_site_fract_x
_atom_site_fract_y
_atom_site_fract_z
Pb1 Pb 0.393435(9) 0.475266(19) 0.199188(6)
Pb2 Pb 0.313944(10) -0.01589(2) 0.202623(6)
O1 O 0.27771(16) 0.3059(4) 0.21006(12)
O2 O 0.25810(19) 0.4760(4) 0.13850(15)
O3 O 0.3144(2) 0.1091(4) 0.10953(12)
O4 O 0.40695(18) 0.2976(5) 0.11584(13)
O5 O 0.1754(2) -0.1382(5) 0.23060(15)
O6 O 0.20390(18) -0.1113(4) 0.14605(14)
O7 O -0.0934(3) 0.0223(7) 0.1372(3)
O8 O -0.0843(3) 0.0499(7) 0.0517(3)
O9 O 0.2134(2) 0.2516(6) -0.17190(15)
O10 O 0.3000(2) 0.4414(5) -0.16779(14)
O11 O -0.1472(3) -0.5817(6) 0.1100(2)
O12 O -0.1208(3) -0.5344(6) 0.0291(2)
O13 O 0.33670(18) 0.6923(4) 0.25093(11)
O14 O 0.37681(16) 0.7292(3) 0.65196(11)
O15 O 0.53327(18) 0.6011(4) 0.16506(14)
O16 O 0.57491(19) 0.8454(4) 0.18894(13)
O17 O 0.53932(18) 0.6851(5) 0.24974(13)
N1 N -0.0594(3) 0.0676(7) 0.1006(3)
N2 N 0.2664(2) 0.3339(5) -0.14675(16)
N3 N -0.1077(3) -0.5219(6) 0.0804(3)
N4 N 0.3425(2) 0.6886(4) 0.30653(13)
N5 N 0.3709(2) 0.7214(4) 0.59615(13)
N6 N 0.5493(2) 0.7118(5) 0.20066(16)
C1 C 0.2356(2) 0.3667(5) 0.16723(18)
C2 C 0.1556(2) 0.2955(5) 0.14954(19)
C3 C 0.1243(3) 0.2811(6) 0.0939(2)
H1 H 0.1502 0.3240 0.0671
C4 C 0.0540(3) 0.2025(7) 0.0776(2)
H2 H 0.0332 0.1875 0.0399
C5 C 0.0161(3) 0.1480(6) 0.1181(3)
C6 C 0.0456(3) 0.1632(7) 0.1736(2)
H3 H 0.0180 0.1255 0.2002
C7 C 0.1168(3) 0.2352(6) 0.1898(2)
H4 H 0.1385 0.2431 0.2275
C8 C 0.3531(3) 0.2156(6) 0.08949(17)
C9 C 0.3306(2) 0.2451(5) 0.02717(17)
C10 C 0.3770(3) 0.3403(6) -0.00089(18)
H5 H 0.4218 0.3870 0.0190
C11 C 0.3574(2) 0.3669(6) -0.05818(19)
H6 H 0.3895 0.4270 -0.0771
C12 C 0.2893(3) 0.3017(6) -0.08616(18)
C13 C 0.2418(3) 0.2078(6) -0.05949(18)
H7 H 0.1961 0.1646 -0.0793
C14 C 0.2630(3) 0.1791(6) -0.00328(18)
H8 H 0.2317 0.1144 0.0149
C15 C 0.1609(3) -0.1619(6) 0.1797(2)
C16 C 0.0892(3) -0.2534(6) 0.1535(2)
C17 C 0.0718(3) -0.2754(7) 0.0967(2)
H9 H 0.1041 -0.2313 0.0743
C18 C 0.0073(3) -0.3619(7) 0.0724(2)
H10 H -0.0043 -0.3763 0.0339
C19 C -0.0396(3) -0.4265(7) 0.1061(2)
C20 C -0.0246(3) -0.4045(8) 0.1625(2)
H11 H -0.0574 -0.4481 0.1847
C21 C 0.0403(3) -0.3157(8) 0.1865(2)
H12 H 0.0509 -0.2984 0.2249
C22 C 0.2792(2) 0.6618(5) 0.32861(17)
H13 H 0.2323 0.6415 0.3054
C23 C 0.2839(2) 0.6646(5) 0.38534(16)
H14 H 0.2398 0.6479 0.4004
C24 C 0.3540(2) 0.6921(5) 0.42094(16)
C25 C 0.4183(2) 0.7158(6) 0.39587(17)
H15 H 0.4664 0.7324 0.4181
C26 C 0.4113(3) 0.7147(6) 0.33921(17)
H16 H 0.4544 0.7323 0.3230
C27 C 0.4330(2) 0.6741(6) 0.57522(17)
H17 H 0.4787 0.6475 0.5990
C28 C 0.4281(2) 0.6655(6) 0.51859(17)
H18 H 0.4714 0.6351 0.5042
C29 C 0.3598(2) 0.7012(5) 0.48202(15)
C30 C 0.2976(2) 0.7503(5) 0.50588(17)
H19 H 0.2512 0.7768 0.4829
C31 C 0.3037(2) 0.7602(5) 0.56295(17)
H20 H 0.2618 0.7935 0.5785
Pb1C Pb 0.393435(9) 1.024734(19) 0.699188(6)
Pb1A Pb 0.606565(9) 0.975266(19) 0.300812(6)
Pb2_2 Pb 0.313944(10) 0.98411(2) 0.202623(6)
Pb2C Pb 0.313944(10) 0.51589(2) 0.702623(6)
O13_2 O 0.33670(18) -0.3077(4) 0.25093(11)
O14C O 0.37681(16) 0.7708(3) 0.15196(11)
O14C_2 O 0.37681(16) -0.2292(3) 0.15196(11)
O16A O 0.42509(19) 0.3454(4) 0.31106(13)
O17A O 0.46068(18) 0.1851(5) 0.25026(13)
loop_
_geom_bond_atom_site_label_1
_geom_bond_atom_site_label_2
_geom_bond_site_symmetry_1
_geom_bond_site_symmetry_2
Pb1 O1 1_555 1_555
Pb2 O1 1_555 1_555
O1 C1 1_555 1_555
O2 Pb1 1_555 1_555
O3 Pb2 1_555 1_555
O4 Pb1 1_555 1_555
O5 Pb2 1_555 1_555
O6 Pb2 1_555 1_555
O7 N1 1_555 1_555
O8 N1 1_555 1_555
O9 N2 1_555 1_555
O10 N2 1_555 1_555
O11 N3 1_555 1_555
O12 N3 1_555 1_555
O13 Pb1 1_555 1_555
O14 N5 1_555 1_555
O15 Pb1 1_555 1_555
O16 N6 1_555 1_555
O17 N6 1_555 1_555
N1 C5 1_555 1_555
N2 C12 1_555 1_555
N3 C19 1_555 1_555
N4 O13 1_555 1_555
N5 C27 1_555 1_555
N6 O15 1_555 1_555
C1 O2 1_555 1_555
C2 C1 1_555 1_555
C3 C2 1_555 1_555
H1 C3 1_555 1_555
C4 C3 1_555 1_555
H2 C4 1_555 1_555
C5 C4 1_555 1_555
C6 C5 1_555 1_555
H3 C6 1_555 1_555
C7 C2 1_555 1_555
H4 C7 1_555 1_555
C8 O3 1_555 1_555
C9 C8 1_555 1_555
C10 C9 1_555 1_555
H5 C10 1_555 1_555
C11 C10 1_555 1_555
H6 C11 1_555 1_555
C12 C11 1_555 1_555
C13 C12 1_555 1_555
H7 C13 1_555 1_555
C14 C9 1_555 1_555
H8 C14 1_555 1_555
C15 O5 1_555 1_555
C16 C15 1_555 1_555
C17 C16 1_555 1_555
H9 C17 1_555 1_555
C18 C17 1_555 1_555
H10 C18 1_555 1_555
C19 C18 1_555 1_555
C20 C19 1_555 1_555
H11 C20 1_555 1_555
C21 C16 1_555 1_555
H12 C21 1_555 1_555
C22 N4 1_555 1_555
H13 C22 1_555 1_555
C23 C22 1_555 1_555
H14 C23 1_555 1_555
C24 C23 1_555 1_555
C25 C24 1_555 1_555
H15 C25 1_555 1_555
C26 N4 1_555 1_555
H16 C26 1_555 1_555
C27 H17 1_555 1_555
C28 C27 1_555 1_555
H18 C28 1_555 1_555
C29 C24 1_555 1_555
C30 C29 1_555 1_555
H19 C30 1_555 1_555
C31 N5 1_555 1_555
H20 C31 1_555 1_555
Pb1C O14 1_555 1_555
Pb1A O16 1_555 1_555
Pb2_2 O13 1_555 1_555
Pb2C O14 1_555 1_555
O13_2 Pb2 1_555 1_555
O14C Pb1 1_555 1_555
O14C_2 Pb2 1_555 1_555
O16A Pb1 1_555 1_555
O17A Pb1 1_555 1_555
O4 C8 1_555 1_555
O6 C15 1_555 1_555
O17 Pb1A 1_555 1_555
C6 C7 1_555 1_555
C13 C14 1_555 1_555
C20 C21 1_555 1_555
C25 C26 1_555 1_555
C28 C29 1_555 1_555
C30 C31 1_555 1_555
Pb2_2 O14C 1_555 1_555

#END
