
#######################################################################
#
#                 Cambridge Crystallographic Data Centre
#                                CCDC 
#
#######################################################################
#
# If this CIF has been generated from an entry in the Cambridge 
# Structural Database, then it will include bibliographic, chemical, 
# crystal, experimental, refinement or atomic coordinate data resulting 
# from the CCDC's data processing and validation procedures.
#
#######################################################################

data_MOYTIE
_symmetry_cell_setting           monoclinic
_symmetry_space_group_name_H-M   'P 21/c'
_symmetry_Int_Tables_number      14
_space_group_name_Hall           '-P 2ybc'
loop_
_symmetry_equiv_pos_site_id
_symmetry_equiv_pos_as_xyz
1 x,y,z
2 -x,1/2+y,1/2-z
3 -x,-y,-z
4 x,1/2-y,1/2+z
_cell_length_a                   10.62940(10)
_cell_length_b                   7.71560(10)
_cell_length_c                   24.6416(3)
_cell_angle_alpha                90
_cell_angle_beta                 98.6340(10)
_cell_angle_gamma                90
_cell_volume                     1998.01
loop_
_atom_site_label
_atom_site_type_symbol
_atom_site_fract_x
_atom_site_fract_y
_atom_site_fract_z
Pb1 Pb 0.027347(9) -0.159980(12) 0.230083(4)
C1 C 0.4987(2) 0.0781(4) 0.27153(11)
H1 H 0.5002 0.0145 0.2396
C2 C 0.4931(3) 0.2730(4) 0.36543(11)
H2 H 0.4922 0.3403 0.3967
C3 C 0.3810(3) 0.2208(4) 0.33440(11)
H3 H 0.3038 0.2501 0.3453
C4 C 0.2596(3) 0.0631(3) 0.25434(11)
C5 C 0.3825(2) 0.1246(3) 0.28692(11)
C6 C 0.6120(3) 0.1255(3) 0.30330(12)
H4 H 0.6898 0.0917 0.2937
O1 O 0.15764(17) 0.0860(3) 0.27556(8)
O2 O 0.25980(19) -0.0124(3) 0.21015(9)
O3 O -0.10647(19) -0.0947(3) 0.12927(9)
C7 C -0.1578(3) 0.0263(3) 0.15062(12)
C8 C -0.2725(2) 0.1133(3) 0.11942(11)
C9 C -0.3522(3) 0.2145(4) 0.14631(12)
H5 H -0.3325 0.2317 0.1840
O4 O -0.0789(2) -0.0760(3) 0.30547(8)
N1 N -0.0399(2) -0.1195(3) 0.35796(10)
C10 C 0.0541(3) -0.0297(4) 0.38758(13)
H6 H 0.0940 0.0594 0.3713
C11 C -0.0980(3) -0.2489(4) 0.38081(14)
H7 H -0.1632 -0.3102 0.3598
C12 C -0.0618(4) -0.2911(5) 0.43465(15)
H8 H -0.1018 -0.3820 0.4500
C13 C 0.6065(2) 0.2243(3) 0.34956(11)
C14 C -0.4070(3) 0.1684(4) 0.03359(13)
H9 H -0.4255 0.1550 -0.0043
C15 C -0.4839(3) 0.2660(4) 0.06173(12)
C16 C -0.4604(3) 0.2898(4) 0.11772(13)
H10 H -0.5154 0.3544 0.1357
C17 C -0.3009(3) 0.0904(4) 0.06330(11)
H11 H -0.2483 0.0219 0.0453
C18 C 0.0918(3) -0.0686(4) 0.44189(13)
H12 H 0.1571 -0.0059 0.4623
C19 C 0.0331(3) -0.2002(5) 0.46613(14)
H13 H 0.0572 -0.2269 0.5030
N2 N 0.7251(2) 0.2775(3) 0.38402(10)
N3 N -0.5972(3) 0.3496(3) 0.03047(13)
O5 O 0.7188(2) 0.3845(4) 0.42027(10)
O6 O 0.8249(2) 0.2135(3) 0.37546(10)
O7 O -0.6652(3) 0.4384(4) 0.05535(12)
O8 O -0.6187(3) 0.3282(4) -0.01917(12)
O9 O -0.12021(19) 0.0767(3) 0.19962(8)
Pb1A Pb -0.027347(9) 0.340020(12) 0.269917(4)
O1A O -0.15764(17) -0.4140(3) 0.22444(8)
O9A O 0.12021(19) -0.4233(3) 0.30038(8)
loop_
_geom_bond_atom_site_label_1
_geom_bond_atom_site_label_2
_geom_bond_site_symmetry_1
_geom_bond_site_symmetry_2
Pb1 O1 1_555 1_555
C1 H1 1_555 1_555
C2 H2 1_555 1_555
C3 C2 1_555 1_555
H3 C3 1_555 1_555
C4 C5 1_555 1_555
C5 C1 1_555 1_555
C6 C1 1_555 1_555
H4 C6 1_555 1_555
O1 C4 1_555 1_555
O2 Pb1 1_555 1_555
O3 Pb1 1_555 1_555
C7 O3 1_555 1_555
C8 C7 1_555 1_555
C9 C8 1_555 1_555
H5 C9 1_555 1_555
O4 Pb1 1_555 1_555
N1 O4 1_555 1_555
C10 N1 1_555 1_555
H6 C10 1_555 1_555
C11 N1 1_555 1_555
H7 C11 1_555 1_555
C12 C11 1_555 1_555
H8 C12 1_555 1_555
C13 C2 1_555 1_555
C14 H9 1_555 1_555
C15 C14 1_555 1_555
C16 C9 1_555 1_555
H10 C16 1_555 1_555
C17 C8 1_555 1_555
H11 C17 1_555 1_555
C18 C10 1_555 1_555
H12 C18 1_555 1_555
C19 C12 1_555 1_555
H13 C19 1_555 1_555
N2 C13 1_555 1_555
N3 C15 1_555 1_555
O5 N2 1_555 1_555
O6 N2 1_555 1_555
O7 N3 1_555 1_555
O8 N3 1_555 1_555
O9 Pb1 1_555 1_555
Pb1A O1 1_555 1_555
O1A Pb1 1_555 1_555
O9A Pb1 1_555 1_555
C3 C5 1_555 1_555
C4 O2 1_555 1_555
C6 C13 1_555 1_555
C7 O9 1_555 1_555
C14 C17 1_555 1_555
C15 C16 1_555 1_555
C18 C19 1_555 1_555
O9 Pb1A 1_555 1_555

#END
