
#######################################################################
#
#                 Cambridge Crystallographic Data Centre
#                                CCDC 
#
#######################################################################
#
# If this CIF has been generated from an entry in the Cambridge 
# Structural Database, then it will include bibliographic, chemical, 
# crystal, experimental, refinement or atomic coordinate data resulting 
# from the CCDC's data processing and validation procedures.
#
#######################################################################

data_MOYVIG
_symmetry_cell_setting           monoclinic
_symmetry_space_group_name_H-M   'P 21/c'
_symmetry_Int_Tables_number      14
_space_group_name_Hall           '-P 2ybc'
loop_
_symmetry_equiv_pos_site_id
_symmetry_equiv_pos_as_xyz
1 x,y,z
2 -x,1/2+y,1/2-z
3 -x,-y,-z
4 x,1/2-y,1/2+z
_cell_length_a                   3.7859(5)
_cell_length_b                   18.741(3)
_cell_length_c                   16.335(2)
_cell_angle_alpha                90
_cell_angle_beta                 92.885(2)
_cell_angle_gamma                90
_cell_volume                     1157.52
loop_
_atom_site_label
_atom_site_type_symbol
_atom_site_fract_x
_atom_site_fract_y
_atom_site_fract_z
Tl1 Tl 1.6054(2) 0.38400(4) 0.60180(5)
Tl2 Tl 0.8301(3) 0.14892(6) 0.36473(7)
O1 O 1.154(5) 0.3768(7) 0.4629(8)
O2 O 0.930(4) 0.4818(7) 0.4289(7)
H1 H 0.9220 0.4861 0.4787
O3 O 1.295(4) 0.1933(7) 0.2446(9)
O4 O 1.166(5) 0.2222(7) 0.1162(8)
O5 O 0.599(5) 0.4525(7) 0.0504(8)
O6 O 0.659(4) 0.5427(8) 0.1388(8)
O7 O 1.344(6) 0.1884(15) 0.4822(12)
H2 H 1.2917 0.2153 0.5216
H3 H 1.4168 0.1485 0.5011
C1 C 1.033(5) 0.4187(9) 0.4120(10)
C2 C 1.005(4) 0.3986(8) 0.3223(9)
C3 C 1.104(5) 0.3299(9) 0.2984(10)
H4 H 1.1946 0.2979 0.3376
C4 C 1.070(5) 0.3097(9) 0.2185(11)
C5 C 0.921(5) 0.3566(9) 0.1596(10)
H5 H 0.8841 0.3418 0.1055
C6 C 0.826(5) 0.4257(9) 0.1823(10)
C7 C 0.871(5) 0.4460(8) 0.2654(10)
H6 H 0.8094 0.4918 0.2813
C8 C 1.184(5) 0.2365(9) 0.1921(11)
C9 C 0.684(5) 0.4775(9) 0.1195(10)
Tl1C Tl 1.6054(2) 0.11600(4) 0.10180(5)
Tl1C_2 Tl 0.6054(2) 0.11600(4) 0.10180(5)
Tl2_2 Tl 1.8301(3) 0.14892(6) 0.36473(7)
Tl2A Tl 1.1699(3) 0.64892(6) 0.13527(7)
Tl2A_2 Tl 0.1699(3) 0.64892(6) 0.13527(7)
O3C O 1.295(4) 0.3067(7) 0.7446(9)
O3_2 O 0.295(4) 0.1933(7) 0.2446(9)
O4C O 1.166(5) 0.2778(7) 0.6162(8)
O4C_2 O 2.166(5) 0.2778(7) 0.6162(8)
O6A O 1.341(4) 0.0427(8) 0.3612(8)
O6A_2 O 0.341(4) 0.0427(8) 0.3612(8)
O7_2 O 0.344(6) 0.1884(15) 0.4822(12)
H2_2 H 0.2917 0.2153 0.5216
H3_2 H 0.4168 0.1485 0.5011
loop_
_geom_bond_atom_site_label_1
_geom_bond_atom_site_label_2
_geom_bond_site_symmetry_1
_geom_bond_site_symmetry_2
Tl1 O1 1_555 1_555
Tl2 O3 1_555 1_555
O1 C1 1_555 1_555
O2 H1 1_555 1_555
O3 C8 1_555 1_555
O4 C8 1_555 1_555
O5 C9 1_555 1_555
O6 C9 1_555 1_555
O7 Tl2 1_555 1_555
H2 O7 1_555 1_555
H3 O7 1_555 1_555
C1 O2 1_555 1_555
C2 C1 1_555 1_555
C3 C2 1_555 1_555
H4 C3 1_555 1_555
C4 C3 1_555 1_555
C5 C4 1_555 1_555
H5 C5 1_555 1_555
C6 C5 1_555 1_555
C7 C2 1_555 1_555
H6 C7 1_555 1_555
C8 C4 1_555 1_555
C9 C6 1_555 1_555
Tl1C O3 1_555 1_555
Tl1C_2 O4 1_555 1_555
Tl2_2 O3 1_555 1_555
Tl2A O6 1_555 1_555
Tl2A_2 O6 1_555 1_555
O3C Tl1 1_555 1_555
O3_2 Tl2 1_555 1_555
O4C Tl1 1_555 1_555
O4C_2 Tl1 1_555 1_555
O6A Tl2 1_555 1_555
O6A_2 Tl2 1_555 1_555
O7_2 Tl2 1_555 1_555
H2_2 O7_2 1_555 1_555
H3_2 O7_2 1_555 1_555
O4 Tl1C 1_555 1_555
O7 Tl2_2 1_555 1_555
C6 C7 1_555 1_555
Tl1C_2 O3_2 1_555 1_555
Tl2_2 O6A 1_555 1_555

#END
