
#######################################################################
#
#                 Cambridge Crystallographic Data Centre
#                                CCDC 
#
#######################################################################
#
# If this CIF has been generated from an entry in the Cambridge 
# Structural Database, then it will include bibliographic, chemical, 
# crystal, experimental, refinement or atomic coordinate data resulting 
# from the CCDC's data processing and validation procedures.
#
#######################################################################

data_MOYXII
_symmetry_cell_setting           monoclinic
_symmetry_space_group_name_H-M   'C 2/c'
_symmetry_Int_Tables_number      15
_space_group_name_Hall           '-C 2yn'
loop_
_symmetry_equiv_pos_site_id
_symmetry_equiv_pos_as_xyz
1 x,y,z
2 -x,y,1/2-z
3 1/2+x,1/2+y,z
4 1/2-x,1/2+y,1/2-z
5 -x,-y,-z
6 x,-y,1/2+z
7 1/2-x,1/2-y,-z
8 1/2+x,1/2-y,1/2+z
_cell_length_a                   21.597(3)
_cell_length_b                   15.337(3)
_cell_length_c                   14.475(3)
_cell_angle_alpha                90
_cell_angle_beta                 129.450(4)
_cell_angle_gamma                90
_cell_volume                     3702.29
loop_
_atom_site_label
_atom_site_type_symbol
_atom_site_fract_x
_atom_site_fract_y
_atom_site_fract_z
Cd1 Cd 1.090379(16) 1.09372(2) 0.22709(2)
S1 S 1.04344(7) 0.59620(7) 0.17493(9)
N1 N 1.08108(18) 0.9478(3) 0.2479(3)
N2 N 1.1584(3) 0.6384(3) 0.3874(3)
N3 N 1.1588(3) 0.5508(3) 0.3860(3)
N4 N 1.08068(17) 0.2430(2) 0.2357(2)
N5 N 1.18604(18) 1.0179(2) 0.6711(3)
O1 O 1.1085(2) 1.0956(2) 0.4096(3)
O2 O 1.02814(17) 1.0995(2) 0.4564(2)
O3 O 1.13792(16) 0.95002(19) 0.6149(2)
O4 O 1.22386(16) 0.8869(2) 0.8511(3)
O5 O 1.3445(2) 0.8970(2) 0.9014(3)
C1 C 1.0255(3) 0.8964(3) 0.1544(3)
H1 H 0.9832 0.9223 0.0828
C2 C 1.0296(2) 0.8076(3) 0.1620(3)
H2 H 0.9904 0.7740 0.0962
C3 C 1.0923(2) 0.7673(3) 0.2681(3)
C4 C 1.1484(2) 0.8211(3) 0.3645(4)
H3 H 1.1906 0.7970 0.4378
C5 C 1.1407(3) 0.9081(3) 0.3503(4)
H4 H 1.1790 0.9429 0.4153
C6 C 1.1024(2) 0.6727(3) 0.2844(4)
C7 C 1.1024(2) 0.5177(3) 0.2814(3)
C8 C 1.0920(2) 0.4241(3) 0.2625(4)
C9 C 1.0291(3) 0.3848(3) 0.1534(4)
H5 H 0.9898 0.4189 0.0882
C10 C 1.0263(2) 0.2968(3) 0.1444(3)
H6 H 0.9847 0.2718 0.0713
C11 C 1.1391(2) 0.2822(3) 0.3398(3)
H7 H 1.1766 0.2467 0.4044
C12 C 1.1473(2) 0.3690(3) 0.3574(3)
H8 H 1.1892 0.3919 0.4319
C13 C 1.0947(3) 1.0953(2) 0.4794(3)
C14 C 1.1668(2) 1.0953(3) 0.6112(3)
C15 C 1.2118(2) 1.1676(3) 0.6702(3)
H9 H 1.1975 1.2204 0.6299
C16 C 1.2797(3) 1.1630(4) 0.7915(4)
H10 H 1.3093 1.2127 0.8333
C17 C 1.3016(3) 1.0830(3) 0.8468(4)
H11 H 1.3487 1.0778 0.9254
C18 C 1.2548(2) 1.0110(3) 0.7880(3)
C19 C 1.2753(2) 0.9226(3) 0.8505(3)
Cd1_2 Cd 1.090379(16) 0.09372(2) 0.22709(2)
Cd1A Cd 0.909621(16) 1.09372(2) 0.27291(2)
Cd1E Cd 1.090379(16) 0.90628(2) 0.72709(2)
N4_2 N 1.08068(17) 1.2430(2) 0.2357(2)
O2A O 0.97186(17) 1.0995(2) 0.0436(2)
O3E O 1.13792(16) 1.04998(19) 0.1149(2)
O4E O 1.22386(16) 1.1131(2) 0.3511(3)
loop_
_geom_bond_atom_site_label_1
_geom_bond_atom_site_label_2
_geom_bond_site_symmetry_1
_geom_bond_site_symmetry_2
Cd1 N1 1_555 1_555
S1 C6 1_555 1_555
N1 C1 1_555 1_555
N2 N3 1_555 1_555
N3 C7 1_555 1_555
N4 C10 1_555 1_555
N5 O3 1_555 1_555
O1 Cd1 1_555 1_555
O2 C13 1_555 1_555
O3 Cd1E 1_555 1_555
O4 C19 1_555 1_555
O5 C19 1_555 1_555
C1 H1 1_555 1_555
C2 C1 1_555 1_555
H2 C2 1_555 1_555
C3 C2 1_555 1_555
C4 C3 1_555 1_555
H3 C4 1_555 1_555
C5 N1 1_555 1_555
H4 C5 1_555 1_555
C6 N2 1_555 1_555
C7 S1 1_555 1_555
C8 C7 1_555 1_555
C9 C8 1_555 1_555
H5 C9 1_555 1_555
C10 C9 1_555 1_555
H6 C10 1_555 1_555
C11 N4 1_555 1_555
H7 C11 1_555 1_555
C12 C8 1_555 1_555
H8 C12 1_555 1_555
C13 O1 1_555 1_555
C14 N5 1_555 1_555
C15 C14 1_555 1_555
H9 C15 1_555 1_555
C16 C15 1_555 1_555
H10 C16 1_555 1_555
C17 C16 1_555 1_555
H11 C17 1_555 1_555
C18 N5 1_555 1_555
C19 C18 1_555 1_555
Cd1_2 N4 1_555 1_555
Cd1A O2 1_555 1_555
Cd1E O4 1_555 1_555
N4_2 Cd1 1_555 1_555
O2A Cd1 1_555 1_555
O3E Cd1 1_555 1_555
O4E Cd1 1_555 1_555
C3 C6 1_555 1_555
C4 C5 1_555 1_555
C11 C12 1_555 1_555
C13 C14 1_555 1_555
C17 C18 1_555 1_555

#END
