
#######################################################################
#
#                 Cambridge Crystallographic Data Centre
#                                CCDC 
#
#######################################################################
#
# If this CIF has been generated from an entry in the Cambridge 
# Structural Database, then it will include bibliographic, chemical, 
# crystal, experimental, refinement or atomic coordinate data resulting 
# from the CCDC's data processing and validation procedures.
#
#######################################################################

data_MOZCOV
_symmetry_cell_setting           monoclinic
_symmetry_space_group_name_H-M   'C c'
_symmetry_Int_Tables_number      9
_space_group_name_Hall           'C -2yc'
loop_
_symmetry_equiv_pos_site_id
_symmetry_equiv_pos_as_xyz
1 x,y,z
2 x,-y,1/2+z
3 1/2+x,1/2+y,z
4 1/2+x,1/2-y,1/2+z
_cell_length_a                   9.883(7)
_cell_length_b                   18.292(13)
_cell_length_c                   13.048(9)
_cell_angle_alpha                90
_cell_angle_beta                 102.748(8)
_cell_angle_gamma                90
_cell_volume                     2300.67
loop_
_atom_site_label
_atom_site_type_symbol
_atom_site_fract_x
_atom_site_fract_y
_atom_site_fract_z
C1 C 0.2114(8) 0.9816(5) 0.6158(7)
C2 C 0.0850(8) 0.9538(5) 0.6559(7)
C3 C -0.0009(9) 0.9020(5) 0.5959(8)
H1 H 0.0134 0.8882 0.5305
C4 C -0.1065(9) 0.8714(6) 0.6336(8)
H2 H -0.1628 0.8367 0.5928
C5 C -0.1334(8) 0.8906(5) 0.7320(7)
C6 C -0.0518(10) 0.9457(5) 0.7903(7)
H3 H -0.0712 0.9625 0.8528
C7 C 0.0601(10) 0.9751(5) 0.7526(7)
H4 H 0.1181 1.0093 0.7930
C8 C -0.2386(9) 0.8522(5) 0.7781(8)
C9 C -0.3381(9) 0.8015(5) 0.7103(8)
C10 C -0.3442(13) 0.7272(6) 0.7384(10)
H5 H -0.2840 0.7099 0.7986
C11 C -0.4350(14) 0.6811(6) 0.6799(13)
H6 H -0.4377 0.6329 0.7022
C12 C -0.5218(12) 0.7016(6) 0.5910(11)
H7 H -0.5813 0.6677 0.5511
C13 C -0.5224(10) 0.7738(6) 0.5587(9)
H8 H -0.5826 0.7887 0.4970
C14 C -0.4331(8) 0.8239(5) 0.6185(7)
C15 C -0.4552(8) 0.9052(4) 0.5944(6)
C16 C 0.5828(11) 1.1013(5) 0.7457(7)
H9 H 0.5540 1.0611 0.7789
C17 C 0.6441(12) 1.1599(5) 0.8069(7)
H10 H 0.6566 1.1584 0.8797
C18 C 0.6863(8) 1.2204(5) 0.7588(7)
C19 C 0.6651(8) 1.2194(5) 0.6507(7)
H11 H 0.6901 1.2593 0.6147
C20 C 0.6056(9) 1.1577(5) 0.5964(7)
H12 H 0.5952 1.1572 0.5238
C21 C 0.8779(9) 1.3960(4) 0.8607(6)
H13 H 0.9360 1.4299 0.8392
C22 C 0.8326(9) 1.3357(5) 0.7958(6)
H14 H 0.8647 1.3287 0.7347
C23 C 0.7402(8) 1.2868(4) 0.8231(6)
C24 C 0.7014(12) 1.3011(6) 0.9156(8)
H15 H 0.6413 1.2689 0.9384
C25 C 0.7477(12) 1.3606(6) 0.9752(8)
H16 H 0.7132 1.3698 1.0348
N1 N 0.5636(8) 1.1007(4) 0.6400(5)
N2 N 0.8414(7) 1.4067(4) 0.9512(5)
Ni1 Ni 0.42392(8) 1.02030(5) 0.56700(7)
O1 O 0.2761(6) 1.0352(3) 0.6630(5)
O2 O 0.2405(7) 0.9521(4) 0.5396(5)
O3 O -0.2396(10) 0.8580(6) 0.8710(6)
O4 O -0.4708(6) 0.9304(3) 0.5039(5)
O5 O -0.4722(6) 0.9420(3) 0.6706(4)
N2C N 0.3414(7) 1.0933(4) 0.4512(5)
Ni1_2 Ni -0.57608(8) 1.02030(5) 0.56700(7)
Ni1C Ni 0.92392(8) 1.47970(5) 1.06700(7)
O4_2 O 0.5292(6) 0.9304(3) 0.5039(5)
O5_2 O 0.5278(6) 0.9420(3) 0.6706(4)
loop_
_geom_bond_atom_site_label_1
_geom_bond_atom_site_label_2
_geom_bond_site_symmetry_1
_geom_bond_site_symmetry_2
C1 C2 1_555 1_555
C2 C3 1_555 1_555
C3 H1 1_555 1_555
C4 C3 1_555 1_555
H2 C4 1_555 1_555
C5 C4 1_555 1_555
C6 C5 1_555 1_555
H3 C6 1_555 1_555
C7 C2 1_555 1_555
H4 C7 1_555 1_555
C8 C5 1_555 1_555
C9 C8 1_555 1_555
C10 C9 1_555 1_555
H5 C10 1_555 1_555
C11 C10 1_555 1_555
H6 C11 1_555 1_555
C12 C11 1_555 1_555
H7 C12 1_555 1_555
C13 C12 1_555 1_555
H8 C13 1_555 1_555
C14 C9 1_555 1_555
C15 C14 1_555 1_555
C16 H9 1_555 1_555
C17 C16 1_555 1_555
H10 C17 1_555 1_555
C18 C17 1_555 1_555
C19 C18 1_555 1_555
H11 C19 1_555 1_555
C20 C19 1_555 1_555
H12 C20 1_555 1_555
C21 H13 1_555 1_555
C22 C21 1_555 1_555
H14 C22 1_555 1_555
C23 C18 1_555 1_555
C24 C23 1_555 1_555
H15 C24 1_555 1_555
C25 C24 1_555 1_555
H16 C25 1_555 1_555
N1 C16 1_555 1_555
N2 C21 1_555 1_555
Ni1 N1 1_555 1_555
O1 C1 1_555 1_555
O2 C1 1_555 1_555
O3 C8 1_555 1_555
O4 C15 1_555 1_555
O5 C15 1_555 1_555
N2C Ni1 1_555 1_555
Ni1_2 O4 1_555 1_555
Ni1C N2 1_555 1_555
O4_2 Ni1 1_555 1_555
O5_2 Ni1 1_555 1_555
C6 C7 1_555 1_555
C13 C14 1_555 1_555
C20 N1 1_555 1_555
C22 C23 1_555 1_555
C25 N2 1_555 1_555
Ni1 O1 1_555 1_555
Ni1 O2 1_555 1_555
O5 Ni1_2 1_555 1_555

#END
