
#######################################################################
#
#                 Cambridge Crystallographic Data Centre
#                                CCDC 
#
#######################################################################
#
# If this CIF has been generated from an entry in the Cambridge 
# Structural Database, then it will include bibliographic, chemical, 
# crystal, experimental, refinement or atomic coordinate data resulting 
# from the CCDC's data processing and validation procedures.
#
#######################################################################

data_MOZDAI
_symmetry_cell_setting           monoclinic
_symmetry_space_group_name_H-M   'C 2/c'
_symmetry_Int_Tables_number      15
_space_group_name_Hall           '-C 2yn'
loop_
_symmetry_equiv_pos_site_id
_symmetry_equiv_pos_as_xyz
1 x,y,z
2 -x,y,1/2-z
3 1/2+x,1/2+y,z
4 1/2-x,1/2+y,1/2-z
5 -x,-y,-z
6 x,-y,1/2+z
7 1/2-x,1/2-y,-z
8 1/2+x,1/2-y,1/2+z
_cell_length_a                   25.3160(17)
_cell_length_b                   13.9919(10)
_cell_length_c                   17.8674(12)
_cell_angle_alpha                90
_cell_angle_beta                 100.3550(10)
_cell_angle_gamma                90
_cell_volume                     6225.89
loop_
_atom_site_label
_atom_site_type_symbol
_atom_site_fract_x
_atom_site_fract_y
_atom_site_fract_z
Co1 Co 0.204849(9) 0.240157(17) 0.298585(13)
O1 O 0.16075(7) 0.33269(13) 0.17787(10)
O2 O 0.16826(6) 0.17967(12) 0.20325(8)
O3 O -0.22384(6) 0.21984(12) -0.22014(8)
O4 O -0.22077(6) 0.20501(14) -0.09703(9)
O5 O 0.28593(8) -0.08958(10) 0.58351(8)
O6 O -0.01583(7) 0.50409(16) 0.34316(9)
O7 O 0.02542(6) 0.1550(2) -0.12451(9)
N1 N 0.21518(6) 0.11343(11) 0.35744(8)
N2 N 0.15088(6) 0.31215(11) 0.35082(9)
C1 C -0.19799(8) 0.20436(15) -0.15272(12)
C2 C 0.21945(8) 0.01817(14) 0.46907(10)
H1 H 0.2159 0.0146 0.5199
C3 C 0.23280(8) -0.06301(13) 0.43171(10)
C4 C 0.26781(8) -0.17024(14) 0.54399(11)
C5 C -0.13885(8) 0.18791(16) -0.14368(11)
C6 C 0.21154(8) 0.10383(14) 0.43080(10)
H2 H 0.2033 0.1575 0.4572
C7 C 0.05895(9) 0.1776(3) -0.05543(13)
C8 C 0.24180(8) -0.15798(13) 0.46820(11)
C9 C 0.07493(8) 0.40551(15) 0.42092(12)
C10 C 0.12909(8) 0.41094(17) 0.44909(12)
H3 H 0.1413 0.4471 0.4924
C11 C -0.00960(9) 0.50134(17) 0.42071(12)
C12 C 0.23600(9) -0.05283(14) 0.35529(11)
H4 H 0.2446 -0.1051 0.3276
C13 C 0.22446(9) -0.23875(14) 0.42625(11)
H5 H 0.2070 -0.2315 0.3762
C14 C 0.03546(8) 0.45417(16) 0.46004(12)
C15 C 0.16531(8) 0.36351(16) 0.41392(12)
H6 H 0.2016 0.3674 0.4351
C16 C 0.15290(8) 0.24921(17) 0.15838(12)
C17 C 0.22650(10) 0.03454(15) 0.32086(11)
H7 H 0.2280 0.0393 0.2694
C18 C 0.12266(8) 0.22335(17) 0.08077(11)
C19 C -0.10718(9) 0.18621(19) -0.07289(12)
H8 H -0.1231 0.1924 -0.0301
C20 C 0.04452(8) 0.45415(17) 0.53858(12)
H9 H 0.0748 0.4235 0.5650
C21 C -0.11497(9) 0.1777(2) -0.20647(13)
H10 H -0.1360 0.1783 -0.2548
C22 C -0.05220(9) 0.1755(2) -0.06361(12)
H11 H -0.0312 0.1739 -0.0153
C23 C -0.02922(9) 0.1671(2) -0.12736(13)
C24 C 0.05998(9) 0.3517(2) 0.35529(15)
H12 H 0.0239 0.3455 0.3336
C25 C 0.09854(9) 0.30736(19) 0.32223(14)
H13 H 0.0876 0.2724 0.2779
C26 C 0.11388(10) 0.1299(2) 0.05958(14)
H14 H 0.1296 0.0816 0.0919
C27 C 0.31338(14) -0.09967(19) 0.65903(13)
H15 H 0.2913 -0.1342 0.6881
H16 H 0.3214 -0.0376 0.6811
H17 H 0.3462 -0.1341 0.6593
C28 C 0.08178(11) 0.1060(2) -0.00968(15)
H18 H 0.0762 0.0425 -0.0241
C29 C 0.10130(11) 0.2947(2) 0.03102(14)
H19 H 0.1083 0.3584 0.0438
C30 C -0.06043(9) 0.1667(3) -0.19849(13)
H20 H -0.0446 0.1590 -0.2412
C31 C 0.06948(12) 0.2714(3) -0.03766(16)
H21 H 0.0553 0.3192 -0.0716
C32 C -0.06473(13) 0.5404(3) 0.30161(16)
H22 H -0.0944 0.5082 0.3174
H23 H -0.0659 0.5297 0.2482
H24 H -0.0670 0.6077 0.3110
O5F O 0.21407(8) -0.41042(10) 0.41649(8)
N1F N 0.28482(6) -0.61343(11) 0.64256(8)
C2F C 0.28055(8) -0.51817(14) 0.53093(10)
H1F H 0.2841 -0.5146 0.4801
C3F C 0.26720(8) -0.43699(13) 0.56829(10)
C4F C 0.23219(8) -0.32976(14) 0.45601(11)
C6F C 0.28846(8) -0.60383(14) 0.56920(10)
H2F H 0.2967 -0.6575 0.5428
C8F C 0.25820(8) -0.34202(13) 0.53180(11)
C12F C 0.26400(9) -0.44717(14) 0.64471(11)
H4F H 0.2554 -0.3949 0.6724
C13F C 0.27554(9) -0.26125(14) 0.57375(11)
H5F H 0.2930 -0.2685 0.6238
C17F C 0.27350(10) -0.53454(15) 0.67914(11)
H7F H 0.2720 -0.5393 0.7306
C27F C 0.18662(14) -0.40033(19) 0.34097(13)
H15F H 0.2087 -0.3658 0.3119
H16F H 0.1786 -0.4624 0.3189
H17F H 0.1538 -0.3659 0.3407
O6D O 0.01583(7) 0.49591(16) 0.65684(9)
N2D N -0.15088(6) 0.68785(11) 0.64918(9)
C9D C -0.07493(8) 0.59449(15) 0.57908(12)
C10D C -0.12909(8) 0.58906(17) 0.55091(12)
H3D H -0.1413 0.5529 0.5076
C11D C 0.00960(9) 0.49866(17) 0.57929(12)
C14D C -0.03546(8) 0.54583(16) 0.53996(12)
C15D C -0.16531(8) 0.63649(16) 0.58608(12)
H6D H -0.2016 0.6326 0.5649
C20D C -0.04452(8) 0.54585(17) 0.46142(12)
H9D H -0.0748 0.5765 0.4350
C24D C -0.05998(9) 0.6483(2) 0.64471(15)
H12D H -0.0239 0.6545 0.6664
C25D C -0.09854(9) 0.69264(19) 0.67777(14)
H13D H -0.0876 0.7276 0.7221
C32D C 0.06473(13) 0.4596(3) 0.69839(16)
H22D H 0.0944 0.4918 0.6826
H23D H 0.0659 0.4703 0.7518
H24D H 0.0670 0.3923 0.6890
Co1D Co -0.204849(9) 0.759843(17) 0.701415(13)
O1D O -0.16075(7) 0.66731(13) 0.82213(10)
O2D O -0.16826(6) 0.82033(12) 0.79675(8)
O3D O 0.22384(6) 0.78016(12) 1.22014(8)
O4D O 0.22077(6) 0.79499(14) 1.09703(9)
O7D O -0.02542(6) 0.8450(2) 1.12451(9)
C1D C 0.19799(8) 0.79564(15) 1.15272(12)
C5D C 0.13885(8) 0.81209(16) 1.14368(11)
C7D C -0.05895(9) 0.8224(3) 1.05543(13)
C16D C -0.15290(8) 0.75079(17) 0.84162(12)
C18D C -0.12266(8) 0.77665(17) 0.91923(11)
C19D C 0.10718(9) 0.81379(19) 1.07289(12)
H8D H 0.1231 0.8076 1.0301
C21D C 0.11497(9) 0.8223(2) 1.20647(13)
H10D H 0.1360 0.8217 1.2548
C22D C 0.05220(9) 0.8245(2) 1.06361(12)
H11D H 0.0312 0.8261 1.0153
C23D C 0.02922(9) 0.8329(2) 1.12736(13)
C26D C -0.11388(10) 0.8701(2) 0.94042(14)
H14D H -0.1296 0.9184 0.9081
C28D C -0.08178(11) 0.8940(2) 1.00968(15)
H18D H -0.0762 0.9575 1.0241
C29D C -0.10130(11) 0.7053(2) 0.96898(14)
H19D H -0.1083 0.6416 0.9562
C30D C 0.06043(9) 0.8333(3) 1.19849(13)
H20D H 0.0446 0.8410 1.2412
C31D C -0.06948(12) 0.7286(3) 1.03766(16)
H21D H -0.0553 0.6808 1.0716
Co1C Co 0.295151(9) 0.740157(17) 1.201415(13)
Co1F Co 0.295151(9) -0.740157(17) 0.701415(13)
Co1G Co -0.295151(9) 0.259843(17) -0.201415(13)
O3C O -0.27616(6) 0.71984(12) 0.72014(8)
O3G O 0.27616(6) 0.28016(12) 0.27986(8)
N1D N -0.21518(6) 0.88657(11) 0.64256(8)
loop_
_geom_bond_atom_site_label_1
_geom_bond_atom_site_label_2
_geom_bond_site_symmetry_1
_geom_bond_site_symmetry_2
Co1 O2 1_555 1_555
O1 C16 1_555 1_555
O2 C16 1_555 1_555
O3 C1 1_555 1_555
O4 C1 1_555 1_555
O5 C4 1_555 1_555
O6 C11 1_555 1_555
O7 C7 1_555 1_555
N1 Co1 1_555 1_555
N2 Co1 1_555 1_555
C1 C5 1_555 1_555
C2 H1 1_555 1_555
C3 C2 1_555 1_555
C4 C8 1_555 1_555
C5 C19 1_555 1_555
C6 N1 1_555 1_555
H2 C6 1_555 1_555
C7 C28 1_555 1_555
C8 C3 1_555 1_555
C9 C10 1_555 1_555
C10 H3 1_555 1_555
C11 C14 1_555 1_555
C12 C3 1_555 1_555
H4 C12 1_555 1_555
C13 C8 1_555 1_555
H5 C13 1_555 1_555
C14 C9 1_555 1_555
C15 N2 1_555 1_555
H6 C15 1_555 1_555
C16 C18 1_555 1_555
C17 N1 1_555 1_555
H7 C17 1_555 1_555
C18 C26 1_555 1_555
C19 H8 1_555 1_555
C20 C14 1_555 1_555
H9 C20 1_555 1_555
C21 C5 1_555 1_555
H10 C21 1_555 1_555
C22 C19 1_555 1_555
H11 C22 1_555 1_555
C23 O7 1_555 1_555
C24 C9 1_555 1_555
H12 C24 1_555 1_555
C25 N2 1_555 1_555
H13 C25 1_555 1_555
C26 H14 1_555 1_555
C27 O5 1_555 1_555
H15 C27 1_555 1_555
H16 C27 1_555 1_555
H17 C27 1_555 1_555
C28 C26 1_555 1_555
H18 C28 1_555 1_555
C29 C18 1_555 1_555
H19 C29 1_555 1_555
C30 C21 1_555 1_555
H20 C30 1_555 1_555
C31 C7 1_555 1_555
H21 C31 1_555 1_555
C32 O6 1_555 1_555
H22 C32 1_555 1_555
H23 C32 1_555 1_555
H24 C32 1_555 1_555
O5F C4F 1_555 1_555
N1F C6F 1_555 1_555
C2F H1F 1_555 1_555
C3F C2F 1_555 1_555
C4F C13 1_555 1_555
C6F C2F 1_555 1_555
H2F C6F 1_555 1_555
C8F C3F 1_555 1_555
C12F C3F 1_555 1_555
H4F C12F 1_555 1_555
C13F C4 1_555 1_555
H5F C13F 1_555 1_555
C17F N1F 1_555 1_555
H7F C17F 1_555 1_555
C27F O5F 1_555 1_555
H15F C27F 1_555 1_555
H16F C27F 1_555 1_555
H17F C27F 1_555 1_555
O6D C11D 1_555 1_555
N2D C15D 1_555 1_555
C9D C10D 1_555 1_555
C10D H3D 1_555 1_555
C11D C20 1_555 1_555
C14D C9D 1_555 1_555
C15D C10D 1_555 1_555
H6D C15D 1_555 1_555
C20D C11 1_555 1_555
H9D C20D 1_555 1_555
C24D C9D 1_555 1_555
H12D C24D 1_555 1_555
C25D N2D 1_555 1_555
H13D C25D 1_555 1_555
C32D O6D 1_555 1_555
H22D C32D 1_555 1_555
H23D C32D 1_555 1_555
H24D C32D 1_555 1_555
Co1D N2D 1_555 1_555
O1D C16D 1_555 1_555
O2D Co1D 1_555 1_555
O3D C1D 1_555 1_555
O4D C1D 1_555 1_555
O7D C7D 1_555 1_555
C1D C5D 1_555 1_555
C5D C19D 1_555 1_555
C7D C28D 1_555 1_555
C16D O2D 1_555 1_555
C18D C16D 1_555 1_555
C19D H8D 1_555 1_555
C21D C5D 1_555 1_555
H10D C21D 1_555 1_555
C22D C19D 1_555 1_555
H11D C22D 1_555 1_555
C23D O7D 1_555 1_555
C26D C18D 1_555 1_555
H14D C26D 1_555 1_555
C28D C26D 1_555 1_555
H18D C28D 1_555 1_555
C29D C18D 1_555 1_555
H19D C29D 1_555 1_555
C30D C21D 1_555 1_555
H20D C30D 1_555 1_555
C31D C7D 1_555 1_555
H21D C31D 1_555 1_555
Co1C O3D 1_555 1_555
Co1F N1F 1_555 1_555
Co1G O3 1_555 1_555
O3C Co1D 1_555 1_555
O3G Co1 1_555 1_555
N1D Co1D 1_555 1_555
C2 C6 1_555 1_555
C10 C15 1_555 1_555
C12 C17 1_555 1_555
C22 C23 1_555 1_555
C23 C30 1_555 1_555
C24 C25 1_555 1_555
C29 C31 1_555 1_555
C4F C8F 1_555 1_555
C8F C13F 1_555 1_555
C12F C17F 1_555 1_555
C11D C14D 1_555 1_555
C14D C20D 1_555 1_555
C24D C25D 1_555 1_555
C22D C23D 1_555 1_555
C23D C30D 1_555 1_555
C29D C31D 1_555 1_555

#END
