
#######################################################################
#
#                 Cambridge Crystallographic Data Centre
#                                CCDC 
#
#######################################################################
#
# If this CIF has been generated from an entry in the Cambridge 
# Structural Database, then it will include bibliographic, chemical, 
# crystal, experimental, refinement or atomic coordinate data resulting 
# from the CCDC's data processing and validation procedures.
#
#######################################################################

data_MOZFOX
_symmetry_cell_setting           monoclinic
_symmetry_space_group_name_H-M   'C 2/c'
_symmetry_Int_Tables_number      15
_space_group_name_Hall           '-C 2yn'
loop_
_symmetry_equiv_pos_site_id
_symmetry_equiv_pos_as_xyz
1 x,y,z
2 -x,y,1/2-z
3 1/2+x,1/2+y,z
4 1/2-x,1/2+y,1/2-z
5 -x,-y,-z
6 x,-y,1/2+z
7 1/2-x,1/2-y,-z
8 1/2+x,1/2-y,1/2+z
_cell_length_a                   22.677(2)
_cell_length_b                   11.7223(7)
_cell_length_c                   13.8514(10)
_cell_angle_alpha                90
_cell_angle_beta                 108.963(2)
_cell_angle_gamma                90
_cell_volume                     3482.24
loop_
_atom_site_label
_atom_site_type_symbol
_atom_site_fract_x
_atom_site_fract_y
_atom_site_fract_z
Cu1 Cu 0.464200(13) -0.24921(2) 0.09568(2)
O1 O 0.46592(8) -0.64703(16) -0.12272(13)
O2 O 0.42817(9) -0.68454(17) -0.28995(14)
N1 N 0.39467(10) -0.13515(18) 0.06048(16)
N2 N 0.42241(10) -0.39548(18) -0.09115(16)
C1 C 0.48109(12) -0.0095(2) 0.11318(17)
C2 C 0.42987(11) -0.6307(2) -0.21293(18)
C3 C 0.41510(12) -0.0252(2) 0.07682(18)
N3 N 0.51655(10) -0.10537(18) 0.12845(15)
N4 N 0.41272(10) -0.37188(17) -0.00653(16)
C4 C 0.50616(13) 0.1014(2) 0.13023(19)
C5 C 0.37482(13) 0.0684(2) 0.0594(2)
C6 C 0.57828(12) -0.0935(2) 0.1608(2)
H1 H 0.6030 -0.1585 0.1704
C7 C 0.31070(14) 0.0460(3) 0.0241(2)
H2 H 0.2821 0.1055 0.0116
C8 C 0.40193(15) 0.1806(2) 0.0775(2)
H3 H 0.3759 0.2439 0.0661
C9 C 0.57192(14) 0.1102(2) 0.1664(2)
H4 H 0.5909 0.1814 0.1801
N5 N 0.36879(13) -0.4401(2) 0.0093(2)
C10 C 0.33381(13) -0.1540(2) 0.0279(2)
H5 H 0.3193 -0.2287 0.0176
C11 C 0.60732(13) 0.0135(3) 0.1810(2)
H6 H 0.6506 0.0186 0.2043
C12 C 0.29069(14) -0.0642(3) 0.0085(3)
H7 H 0.2482 -0.0799 -0.0152
C13 C 0.46441(14) 0.1962(2) 0.1107(2)
H8 H 0.4804 0.2699 0.1210
N6 N 0.38373(10) -0.48103(17) -0.13256(16)
C14 C 0.35166(14) -0.5066(3) -0.0711(2)
H9 H 0.3214 -0.5632 -0.0831
C15 C 0.38240(13) -0.5350(2) -0.22829(19)
H10 H 0.3906 -0.4777 -0.2728
H11 H 0.3410 -0.5655 -0.2619
Cu1D Cu 0.535800(13) -0.75079(2) -0.09568(2)
Cu1E Cu 0.464200(13) -0.75079(2) -0.40432(2)
O1D O 0.53408(8) -0.35297(16) 0.12272(13)
O2E O 0.42817(9) -0.31546(17) 0.21005(14)
Cl1 Cl 0.74466(4) 0.27719(8) 0.27581(7)
O3 O 0.7991(2) 0.2498(3) 0.3536(4)
O4 O 0.6951(2) 0.2949(6) 0.3131(5)
O5 O 0.7545(2) 0.3866(6) 0.2454(6)
O6 O 0.7238(4) 0.1997(10) 0.2050(8)
loop_
_geom_bond_atom_site_label_1
_geom_bond_atom_site_label_2
_geom_bond_site_symmetry_1
_geom_bond_site_symmetry_2
Cu1 N1 1_555 1_555
Cl1 O3 1_555 1_555
O1 C2 1_555 1_555
O2 C2 1_555 1_555
N1 C3 1_555 1_555
N2 N4 1_555 1_555
C1 C3 1_555 1_555
C2 C15 1_555 1_555
C3 C5 1_555 1_555
N3 Cu1 1_555 1_555
N4 Cu1 1_555 1_555
C4 C1 1_555 1_555
C5 C7 1_555 1_555
C6 N3 1_555 1_555
H1 C6 1_555 1_555
C7 H2 1_555 1_555
C8 C5 1_555 1_555
H3 C8 1_555 1_555
C9 C4 1_555 1_555
H4 C9 1_555 1_555
N5 N4 1_555 1_555
C10 N1 1_555 1_555
H5 C10 1_555 1_555
C11 C6 1_555 1_555
H6 C11 1_555 1_555
C12 C7 1_555 1_555
H7 C12 1_555 1_555
C13 C4 1_555 1_555
H8 C13 1_555 1_555
N6 N2 1_555 1_555
C14 N5 1_555 1_555
H9 C14 1_555 1_555
O4 Cl1 1_555 1_555
O5 Cl1 1_555 1_555
O6 Cl1 1_555 1_555
C15 N6 1_555 1_555
H10 C15 1_555 1_555
H11 C15 1_555 1_555
Cu1D O1 1_555 1_555
Cu1E O2 1_555 1_555
O1D Cu1 1_555 1_555
O2E Cu1 1_555 1_555
C1 N3 1_555 1_555
C8 C13 1_555 1_555
C9 C11 1_555 1_555
C10 C12 1_555 1_555
N6 C14 1_555 1_555

#END
