
#######################################################################
#
#                 Cambridge Crystallographic Data Centre
#                                CCDC 
#
#######################################################################
#
# If this CIF has been generated from an entry in the Cambridge 
# Structural Database, then it will include bibliographic, chemical, 
# crystal, experimental, refinement or atomic coordinate data resulting 
# from the CCDC's data processing and validation procedures.
#
#######################################################################

data_MOZVIH
_symmetry_cell_setting           triclinic
_symmetry_space_group_name_H-M   'P -1'
_symmetry_Int_Tables_number      2
_space_group_name_Hall           '-P 1'
loop_
_symmetry_equiv_pos_site_id
_symmetry_equiv_pos_as_xyz
1 x,y,z
2 -x,-y,-z
_cell_length_a                   9.1683(6)
_cell_length_b                   9.2722(5)
_cell_length_c                   18.4183(12)
_cell_angle_alpha                97.717(2)
_cell_angle_beta                 101.837(2)
_cell_angle_gamma                101.467(2)
_cell_volume                     1476.64
loop_
_atom_site_label
_atom_site_type_symbol
_atom_site_fract_x
_atom_site_fract_y
_atom_site_fract_z
Br1 Br 0.18494(11) 0.21756(9) 0.03270(3)
Br2 Br 0.67855(10) 0.41062(7) 0.04707(4)
S1 S 0.30302(9) 0.42033(9) 0.38850(5)
S2 S 0.65226(10) -0.10753(12) 0.24430(5)
Na1 Na 0.52561(13) 0.19278(13) 0.50701(7)
Na2 Na -0.05909(14) -0.09081(14) 0.41846(7)
O1 O 0.3932(2) 0.3272(3) 0.42249(13)
O2 O 0.3634(3) 0.5784(2) 0.40534(13)
O3 O -0.0218(2) 0.1828(2) 0.46798(12)
O4 O -0.2643(3) 0.1894(3) 0.46144(16)
O5 O 0.6421(3) -0.2446(3) 0.19591(15)
O6 O 0.7791(3) -0.0561(3) 0.30905(14)
O7 O 0.4069(2) -0.0348(2) 0.39614(12)
O8 O 0.1636(2) -0.0201(3) 0.38076(13)
O9 O 0.2820(3) 0.1057(2) 0.53176(13)
N1 N 0.1423(3) 0.3765(3) 0.41057(16)
N2 N 0.5022(3) -0.1155(4) 0.27713(17)
C1 C 0.2647(4) 0.3679(3) 0.28966(19)
C2 C 0.3375(5) 0.4607(5) 0.2488(2)
C3 C 0.3153(6) 0.4152(6) 0.1727(3)
C4 C 0.2172(6) 0.2803(5) 0.1381(2)
C5 C 0.1437(7) 0.1906(5) 0.1779(3)
C6 C 0.1672(5) 0.2339(4) 0.2550(2)
C7 C 0.0134(3) 0.4363(3) 0.39122(18)
C8 C 0.0127(4) 0.5507(4) 0.3489(2)
C9 C -0.1154(4) 0.6063(4) 0.3323(2)
C10 C -0.2422(4) 0.5563(4) 0.3587(2)
C11 C -0.2430(4) 0.4413(4) 0.3987(2)
C12 C -0.1186(3) 0.3762(3) 0.41430(17)
C13 C -0.1356(4) 0.2409(3) 0.45114(18)
C14 C 0.6572(4) 0.0334(4) 0.1895(2)
C15 C 0.6580(6) 0.1769(5) 0.2209(2)
C16 C 0.6661(6) 0.2892(5) 0.1785(3)
C17 C 0.6725(6) 0.2564(5) 0.1053(3)
C18 C 0.6702(6) 0.1148(5) 0.0723(3)
C19 C 0.6622(5) 0.0020(5) 0.1150(2)
C20 C 0.3492(4) -0.1496(4) 0.23536(19)
C21 C 0.2373(4) -0.1206(4) 0.27352(18)
C22 C 0.0858(4) -0.1555(4) 0.2323(2)
C23 C 0.0440(5) -0.2195(5) 0.1569(2)
C24 C 0.1548(5) -0.2464(5) 0.1205(2)
C25 C 0.3066(5) -0.2097(5) 0.1589(2)
C26 C 0.2723(4) -0.0542(3) 0.35624(18)
H1 H 0.13370 0.30800 0.43760
H2 H 0.247(8) 0.094(7) 0.4844(9)
H3 H 0.51700 -0.09700 0.32540
H4 H 0.293(8) 0.022(4) 0.544(3)
H5 H 0.40110 0.55330 0.27270
H6 H 0.36620 0.47520 0.14470
H7 H 0.07730 0.09980 0.15340
H8 H 0.11740 0.17270 0.28280
H9 H 0.09900 0.58880 0.33210
H10 H -0.11650 0.67970 0.30250
H11 H -0.32610 0.59930 0.34980
H12 H -0.32960 0.40600 0.41590
H13 H 0.65300 0.19850 0.27100
H14 H 0.66720 0.38630 0.19990
H15 H 0.67400 0.09410 0.02200
H16 H 0.66010 -0.09500 0.09310
H17 H 0.01040 -0.13500 0.25630
H18 H -0.05850 -0.24410 0.13090
H19 H 0.12740 -0.28970 0.06970
H20 H 0.38120 -0.22540 0.13340
Na1A Na 0.47439(13) 0.80722(13) 0.49299(7)
Na1_2 Na -0.47439(13) 0.19278(13) 0.50701(7)
Na1A_2 Na 0.47439(13) -0.19278(13) 0.49299(7)
Na2A Na 0.05909(14) 0.09081(14) 0.58154(7)
Na2_2 Na 0.94091(14) -0.09081(14) 0.41846(7)
O2A O 0.6366(3) 0.4216(2) 0.59466(13)
O3A O 0.0218(2) -0.1828(2) 0.53202(12)
O4_2 O 0.7357(3) 0.1894(3) 0.46144(16)
O6_2 O -0.2209(3) -0.0561(3) 0.30905(14)
O7A O 0.5931(2) 0.0348(2) 0.60386(12)
O9A O -0.2820(3) -0.1057(2) 0.46824(13)
H2A H -0.247(8) -0.094(7) 0.5156(9)
H4A H -0.293(8) -0.022(4) 0.456(3)
loop_
_geom_bond_atom_site_label_1
_geom_bond_atom_site_label_2
_geom_bond_site_symmetry_1
_geom_bond_site_symmetry_2
Br1 C4 1_555 1_555
Br2 C17 1_555 1_555
S1 O1 1_555 1_555
S2 O5 1_555 1_555
Na1 O1 1_555 1_555
Na2 O3 1_555 1_555
O2 S1 1_555 1_555
O3 C13 1_555 1_555
O4 C13 1_555 1_555
O6 S2 1_555 1_555
O7 Na1 1_555 1_555
O8 Na2 1_555 1_555
O9 Na1 1_555 1_555
N1 S1 1_555 1_555
N2 S2 1_555 1_555
C1 S1 1_555 1_555
C2 C1 1_555 1_555
C3 C2 1_555 1_555
C4 C3 1_555 1_555
C5 C4 1_555 1_555
C6 C1 1_555 1_555
C7 N1 1_555 1_555
C8 C7 1_555 1_555
C9 C8 1_555 1_555
C10 C9 1_555 1_555
C11 C10 1_555 1_555
C12 C7 1_555 1_555
C13 C12 1_555 1_555
C14 S2 1_555 1_555
C15 C14 1_555 1_555
C16 C15 1_555 1_555
C17 C16 1_555 1_555
C18 C17 1_555 1_555
C19 C14 1_555 1_555
C20 N2 1_555 1_555
C21 C20 1_555 1_555
C22 C21 1_555 1_555
C23 C22 1_555 1_555
C24 C23 1_555 1_555
C25 C20 1_555 1_555
C26 O7 1_555 1_555
H1 N1 1_555 1_555
H2 O9 1_555 1_555
H3 N2 1_555 1_555
H4 O9 1_555 1_555
H5 C2 1_555 1_555
H6 C3 1_555 1_555
H7 C5 1_555 1_555
H8 C6 1_555 1_555
H9 C8 1_555 1_555
H10 C9 1_555 1_555
H11 C10 1_555 1_555
H12 C11 1_555 1_555
H13 C15 1_555 1_555
H14 C16 1_555 1_555
H15 C18 1_555 1_555
H16 C19 1_555 1_555
H17 C22 1_555 1_555
H18 C23 1_555 1_555
H19 C24 1_555 1_555
H20 C25 1_555 1_555
Na1A O2 1_555 1_555
Na1_2 O4 1_555 1_555
Na1A_2 O7 1_555 1_555
Na2A O3 1_555 1_555
Na2_2 O6 1_555 1_555
O2A Na1 1_555 1_555
O3A Na2 1_555 1_555
O4_2 Na1 1_555 1_555
O6_2 Na2 1_555 1_555
O7A Na1 1_555 1_555
O9A Na2 1_555 1_555
H2A O9A 1_555 1_555
H4A O9A 1_555 1_555
O8 C26 1_555 1_555
O9 Na2A 1_555 1_555
C5 C6 1_555 1_555
C11 C12 1_555 1_555
C18 C19 1_555 1_555
C21 C26 1_555 1_555
C24 C25 1_555 1_555
Na1A_2 O7A 1_555 1_555
Na2A O3A 1_555 1_555

#END
