
#######################################################################
#
#                 Cambridge Crystallographic Data Centre
#                                CCDC 
#
#######################################################################
#
# If this CIF has been generated from an entry in the Cambridge 
# Structural Database, then it will include bibliographic, chemical, 
# crystal, experimental, refinement or atomic coordinate data resulting 
# from the CCDC's data processing and validation procedures.
#
#######################################################################

data_MOZVON
_symmetry_cell_setting           monoclinic
_symmetry_space_group_name_H-M   'P 21/c'
_symmetry_Int_Tables_number      14
_space_group_name_Hall           '-P 2ybc'
loop_
_symmetry_equiv_pos_site_id
_symmetry_equiv_pos_as_xyz
1 x,y,z
2 -x,1/2+y,1/2-z
3 -x,-y,-z
4 x,1/2-y,1/2+z
_cell_length_a                   10.290(3)
_cell_length_b                   13.814(4)
_cell_length_c                   7.978(3)
_cell_angle_alpha                90
_cell_angle_beta                 109.810(6)
_cell_angle_gamma                90
_cell_volume                     1066.93
loop_
_atom_site_label
_atom_site_type_symbol
_atom_site_fract_x
_atom_site_fract_y
_atom_site_fract_z
Mn1 Mn 1.11555(19) 0.12215(13) 0.3085(2)
Br1 Br 1.27174(14) 0.06169(8) 0.63672(16)
Br2 Br 1.29649(14) 0.06032(9) 0.17035(17)
O1 O 0.9974(9) 0.1781(7) 0.0294(12)
O2 O 0.9538(9) 0.3284(6) -0.0836(12)
O3 O 1.0017(9) -0.0140(6) 0.2414(12)
H1 H 0.9255 -0.0079 0.2534
H2 H 1.0868 -0.0659 0.2907
O4 O 1.1968(11) 0.2673(6) 0.3608(12)
H3 H 1.1943 0.2857 0.4586
H4 H 1.1898 0.3074 0.2510
N1 N 0.7263(11) 0.3399(7) 0.0142(14)
C1 C 0.6010(14) 0.3448(9) 0.0408(19)
H5 H 0.5611 0.4054 0.0464
C2 C 0.5345(14) 0.2620(11) 0.059(2)
H6 H 0.4469 0.2652 0.0714
C3 C 0.5976(14) 0.1726(12) 0.0593(18)
H7 H 0.5538 0.1153 0.0750
C4 C 0.7258(12) 0.1683(9) 0.0361(16)
H8 H 0.7690 0.1083 0.0367
C5 C 0.7886(12) 0.2528(8) 0.0123(14)
C6 C 0.9277(13) 0.2547(9) -0.0176(15)
Mn1C Mn 1.11555(19) 0.37785(13) -0.1915(2)
O2C O 0.9538(9) 0.1716(6) 0.4164(12)
loop_
_geom_bond_atom_site_label_1
_geom_bond_atom_site_label_2
_geom_bond_site_symmetry_1
_geom_bond_site_symmetry_2
Mn1 Br1 1_555 1_555
Br2 Mn1 1_555 1_555
O1 Mn1 1_555 1_555
O2 C6 1_555 1_555
O3 Mn1 1_555 1_555
H1 O3 1_555 1_555
H2 O3 1_555 1_555
O4 Mn1 1_555 1_555
H3 O4 1_555 1_555
H4 O4 1_555 1_555
N1 C1 1_555 1_555
C1 H5 1_555 1_555
C2 C1 1_555 1_555
H6 C2 1_555 1_555
C3 C2 1_555 1_555
H7 C3 1_555 1_555
C4 C3 1_555 1_555
H8 C4 1_555 1_555
C5 N1 1_555 1_555
C6 O1 1_555 1_555
Mn1C O2 1_555 1_555
O2C Mn1 1_555 1_555
C4 C5 1_555 1_555
C5 C6 1_555 1_555

#END
