
#######################################################################
#
#                 Cambridge Crystallographic Data Centre
#                                CCDC 
#
#######################################################################
#
# If this CIF has been generated from an entry in the Cambridge 
# Structural Database, then it will include bibliographic, chemical, 
# crystal, experimental, refinement or atomic coordinate data resulting 
# from the CCDC's data processing and validation procedures.
#
#######################################################################

data_MPPCDC
_symmetry_cell_setting           monoclinic
_symmetry_space_group_name_H-M   'P 21/n'
_symmetry_Int_Tables_number      14
_space_group_name_Hall           '-P 2yn'
loop_
_symmetry_equiv_pos_site_id
_symmetry_equiv_pos_as_xyz
1 x,y,z
2 1/2-x,1/2+y,1/2-z
3 -x,-y,-z
4 1/2+x,1/2-y,1/2+z
_cell_length_a                   7.057(5)
_cell_length_b                   12.471(7)
_cell_length_c                   12.905(8)
_cell_angle_alpha                90
_cell_angle_beta                 93.08(5)
_cell_angle_gamma                90
_cell_volume                     1134.1
loop_
_atom_site_label
_atom_site_type_symbol
_atom_site_fract_x
_atom_site_fract_y
_atom_site_fract_z
Cd1 Cd 0.25383 0.02221 0.05148
Cl1 Cl 0.42190 0.09360 -0.09780
Cl2 Cl 0.06480 -0.13990 -0.00130
P1 P 0.26230 0.08500 0.24050
C1 C 0.15220 -0.01730 0.31860
C2 C 0.23840 -0.06010 0.40810
C3 C 0.14470 -0.13970 0.46120
C4 C -0.03310 -0.17070 0.43130
C5 C -0.12020 -0.12930 0.34140
C6 C -0.02630 -0.05150 0.28640
C7 C 0.13360 0.20790 0.26390
C8 C 0.49520 0.10970 0.30020
H1 H 0.37650 -0.03210 0.43660
H2 H 0.21590 -0.17740 0.52790
H3 H -0.10720 -0.22780 0.47730
H4 H -0.25920 -0.15690 0.31430
H5 H -0.09480 -0.01760 0.21710
H6 H -0.00960 0.20100 0.23060
H7 H 0.20380 0.27440 0.22860
H8 H 0.12990 0.22130 0.34650
H9 H 0.58380 0.04020 0.29030
H10 H 0.48360 0.12520 0.38190
H11 H 0.55740 0.17840 0.26400
Cl1B Cl 0.57810 -0.09360 0.09780
Cl2B Cl -0.06480 0.13990 0.00130
Cd1B Cd 0.74617 -0.02221 -0.05148
Cd1B_2 Cd -0.25383 -0.02221 -0.05148
Cl2_2 Cl 1.06480 -0.13990 -0.00130
Cl2B_2 Cl 0.93520 0.13990 0.00130
P1B P 0.73770 -0.08500 -0.24050
C1B C 0.84780 0.01730 -0.31860
C7B C 0.86640 -0.20790 -0.26390
C8B C 0.50480 -0.10970 -0.30020
C2B C 0.76160 0.06010 -0.40810
C6B C 1.02630 0.05150 -0.28640
H6B H 1.00960 -0.20100 -0.23060
H7B H 0.79620 -0.27440 -0.22860
H8B H 0.87010 -0.22130 -0.34650
H9B H 0.41620 -0.04020 -0.29030
H10B H 0.51640 -0.12520 -0.38190
H11B H 0.44260 -0.17840 -0.26400
C3B C 0.85530 0.13970 -0.46120
H1B H 0.62350 0.03210 -0.43660
C5B C 1.12020 0.12930 -0.34140
H5B H 1.09480 0.01760 -0.21710
C4B C 1.03310 0.17070 -0.43130
H2B H 0.78410 0.17740 -0.52790
H4B H 1.25920 0.15690 -0.31430
H3B H 1.10720 0.22780 -0.47730
loop_
_geom_bond_atom_site_label_1
_geom_bond_atom_site_label_2
_geom_bond_site_symmetry_1
_geom_bond_site_symmetry_2
Cd1 Cl1 1_555 1_555
Cl1 Cd1B 1_555 1_555
Cl2 Cd1 1_555 1_555
P1 Cd1 1_555 1_555
C1 P1 1_555 1_555
C2 C1 1_555 1_555
C3 C2 1_555 1_555
C4 C3 1_555 1_555
C5 C4 1_555 1_555
C6 C1 1_555 1_555
C7 P1 1_555 1_555
C8 P1 1_555 1_555
H1 C2 1_555 1_555
H2 C3 1_555 1_555
H3 C4 1_555 1_555
H4 C5 1_555 1_555
H5 C6 1_555 1_555
H6 C7 1_555 1_555
H7 C7 1_555 1_555
H8 C7 1_555 1_555
H9 C8 1_555 1_555
H10 C8 1_555 1_555
H11 C8 1_555 1_555
Cl1B Cd1 1_555 1_555
Cl2B Cd1 1_555 1_555
Cd1B Cl1B 1_555 1_555
Cd1B_2 Cl2 1_555 1_555
Cl2_2 Cd1B 1_555 1_555
Cl2B_2 Cd1B 1_555 1_555
P1B Cd1B 1_555 1_555
C1B P1B 1_555 1_555
C7B P1B 1_555 1_555
C8B P1B 1_555 1_555
C2B C1B 1_555 1_555
C6B C1B 1_555 1_555
H6B C7B 1_555 1_555
H7B C7B 1_555 1_555
H8B C7B 1_555 1_555
H9B C8B 1_555 1_555
H10B C8B 1_555 1_555
H11B C8B 1_555 1_555
C3B C2B 1_555 1_555
H1B C2B 1_555 1_555
C5B C6B 1_555 1_555
H5B C6B 1_555 1_555
C4B C3B 1_555 1_555
H2B C3B 1_555 1_555
H4B C5B 1_555 1_555
H3B C4B 1_555 1_555
C5 C6 1_555 1_555
Cl2B Cd1B_2 1_555 1_555
C5B C4B 1_555 1_555

#END
