
#######################################################################
#
#                 Cambridge Crystallographic Data Centre
#                                CCDC 
#
#######################################################################
#
# If this CIF has been generated from an entry in the Cambridge 
# Structural Database, then it will include bibliographic, chemical, 
# crystal, experimental, refinement or atomic coordinate data resulting 
# from the CCDC's data processing and validation procedures.
#
#######################################################################

data_MSNGYD
_symmetry_cell_setting           monoclinic
_symmetry_space_group_name_H-M   'P 21/c'
_symmetry_Int_Tables_number      14
_space_group_name_Hall           '-P 2ybc'
loop_
_symmetry_equiv_pos_site_id
_symmetry_equiv_pos_as_xyz
1 x,y,z
2 -x,1/2+y,1/2-z
3 -x,-y,-z
4 x,1/2-y,1/2+z
_cell_length_a                   6.178(3)
_cell_length_b                   11.265(10)
_cell_length_c                   6.860(6)
_cell_angle_alpha                90
_cell_angle_beta                 99.56(5)
_cell_angle_gamma                90
_cell_volume                     470.793
loop_
_atom_site_label
_atom_site_type_symbol
_atom_site_fract_x
_atom_site_fract_y
_atom_site_fract_z
Sn1 Sn 0.00000 0.00000 0.00000
N1 N -0.21570 -0.16570 -0.00650
C1 C -0.33550 -0.24320 -0.02220
N2 N -0.45750 -0.33440 -0.01470
C2 C -0.60630 -0.36960 -0.15920
N3 N -0.73920 -0.40970 -0.27220
C3 C -1.14300 -0.57140 -0.27040
Sn1A Sn -1.00000 -0.50000 -0.50000
N1A N -0.78430 -0.66570 -0.49350
C3B C -0.85700 -0.42860 -0.72960
N1C N -1.21570 -0.33430 -0.50650
N3B N -1.26080 -0.59030 -0.72780
C1A C -0.66450 -0.74320 -0.47780
N2A N -0.54250 -0.83440 -0.48530
C2A C -0.39370 -0.86960 -0.34080
N3A N -0.26080 -0.90970 -0.22780
Sn1_2 Sn 0.00000 -1.00000 0.00000
loop_
_geom_bond_atom_site_label_1
_geom_bond_atom_site_label_2
_geom_bond_site_symmetry_1
_geom_bond_site_symmetry_2
Sn1 N1 1_555 1_555
N1 C1 1_555 1_555
C1 N2 1_555 1_555
N2 C2 1_555 1_555
C2 N3 1_555 1_555
N3 Sn1A 1_555 1_555
C3 Sn1A 1_555 1_555
Sn1A N1A 1_555 1_555
N1A C1A 1_555 1_555
C3B Sn1A 1_555 1_555
N1C Sn1A 1_555 1_555
N3B Sn1A 1_555 1_555
C1A N2A 1_555 1_555
N2A C2A 1_555 1_555
C2A N3A 1_555 1_555
N3A Sn1_2 1_555 1_555

#END
