
#######################################################################
#
#                 Cambridge Crystallographic Data Centre
#                                CCDC 
#
#######################################################################
#
# If this CIF has been generated from an entry in the Cambridge 
# Structural Database, then it will include bibliographic, chemical, 
# crystal, experimental, refinement or atomic coordinate data resulting 
# from the CCDC's data processing and validation procedures.
#
#######################################################################

data_MUBJUO
_symmetry_cell_setting           monoclinic
_symmetry_space_group_name_H-M   'C 2/m'
_symmetry_Int_Tables_number      12
_space_group_name_Hall           '-C 2y'
loop_
_symmetry_equiv_pos_site_id
_symmetry_equiv_pos_as_xyz
1 x,y,z
2 1/2+x,1/2+y,z
3 x,-y,z
4 1/2+x,1/2-y,z
5 -x,-y,-z
6 1/2-x,1/2-y,-z
7 -x,y,-z
8 1/2-x,1/2+y,-z
_cell_length_a                   6.2378(7)
_cell_length_b                   17.589(2)
_cell_length_c                   4.6039(5)
_cell_angle_alpha                90
_cell_angle_beta                 115.863(2)
_cell_angle_gamma                90
_cell_volume                     454.531
loop_
_atom_site_label
_atom_site_type_symbol
_atom_site_fract_x
_atom_site_fract_y
_atom_site_fract_z
Fe1 Fe 0.0000 0.20939(2) 0.0000
O1 O 0.2377(3) 0.30146(9) 0.2076(4)
O2 O 0.2927(3) 0.36651(10) 0.6514(4)
C1 C 0.1750(6) 0.5000 0.3120(8)
H1 H 0.2924(6) 0.5000 0.5240(8)
C2 C 0.2118(4) 0.36087(12) 0.3512(5)
C3 C 0.0905(4) 0.43018(12) 0.1594(5)
C3B C 0.0905(4) 0.56982(12) 0.1594(5)
C2B C 0.2118(4) 0.63913(12) 0.3512(5)
O1B O 0.2377(3) 0.69854(9) 0.2076(4)
O2B O 0.2927(3) 0.63349(10) 0.6514(4)
C3D C -0.0905(4) 0.56982(12) -0.1594(5)
C1D C -0.1750(6) 0.5000 -0.3120(8)
H1D H -0.2924(6) 0.5000 -0.5240(8)
C3F C -0.0905(4) 0.43018(12) -0.1594(5)
C2F C -0.2118(4) 0.36087(12) -0.3512(5)
O1F O -0.2377(3) 0.30146(9) -0.2076(4)
O2F O -0.2927(3) 0.36651(10) -0.6514(4)
C2D C -0.2118(4) 0.63913(12) -0.3512(5)
O1D O -0.2377(3) 0.69854(9) -0.2076(4)
O2D O -0.2927(3) 0.63349(10) -0.6514(4)
Fe1B Fe 0.0000 0.79061(2) 0.0000
O1C O -0.2623(3) 0.19854(9) 0.2076(4)
O1E O 0.2623(3) 0.19854(9) -0.2076(4)
O2C O -0.2073(3) 0.13349(10) -0.3486(4)
O2E O 0.2073(3) 0.13349(10) 0.3486(4)
Fe1C Fe 0.5000 0.29061(2) 0.0000
Fe1C_2 Fe 0.5000 0.29061(2) 1.0000
Fe1A Fe 0.5000 0.70939(2) 0.0000
Fe1A_2 Fe 0.5000 0.70939(2) 1.0000
Fe1C_3 Fe -0.5000 0.29061(2) 0.0000
Fe1C_4 Fe -0.5000 0.29061(2) -1.0000
Fe1A_3 Fe -0.5000 0.70939(2) 0.0000
Fe1A_4 Fe -0.5000 0.70939(2) -1.0000
O1A O -0.2623(3) 0.80146(9) 0.2076(4)
O1G O 0.2623(3) 0.80146(9) -0.2076(4)
O2A O -0.2073(3) 0.86651(10) -0.3486(4)
O2G O 0.2073(3) 0.86651(10) 0.3486(4)
loop_
_geom_bond_atom_site_label_1
_geom_bond_atom_site_label_2
_geom_bond_site_symmetry_1
_geom_bond_site_symmetry_2
Fe1 O1 1_555 1_555
O1 C2 1_555 1_555
O2 C2 1_555 1_555
C1 H1 1_555 1_555
C2 C3 1_555 1_555
C3 C1 1_555 1_555
C3B C1 1_555 1_555
C2B C3B 1_555 1_555
O1B C2B 1_555 1_555
O2B C2B 1_555 1_555
C3D C3B 1_555 1_555
C1D C3D 1_555 1_555
H1D C1D 1_555 1_555
C3F C3 1_555 1_555
C2F C3F 1_555 1_555
O1F Fe1 1_555 1_555
O2F C2F 1_555 1_555
C2D C3D 1_555 1_555
O1D C2D 1_555 1_555
O2D C2D 1_555 1_555
Fe1B O1B 1_555 1_555
O1C Fe1 1_555 1_555
O1E Fe1 1_555 1_555
O2C Fe1 1_555 1_555
O2E Fe1 1_555 1_555
Fe1C O1 1_555 1_555
Fe1C_2 O2 1_555 1_555
Fe1A O1B 1_555 1_555
Fe1A_2 O2B 1_555 1_555
Fe1C_3 O1F 1_555 1_555
Fe1C_4 O2F 1_555 1_555
Fe1A_3 O1D 1_555 1_555
Fe1A_4 O2D 1_555 1_555
O1A Fe1B 1_555 1_555
O1G Fe1B 1_555 1_555
O2A Fe1B 1_555 1_555
O2G Fe1B 1_555 1_555
C1D C3F 1_555 1_555
C2F O1F 1_555 1_555
O1D Fe1B 1_555 1_555
O1C Fe1C_3 1_555 1_555
O1E Fe1C 1_555 1_555
Fe1A O1G 1_555 1_555
Fe1A_3 O1A 1_555 1_555

#END
