
#######################################################################
#
#                 Cambridge Crystallographic Data Centre
#                                CCDC 
#
#######################################################################
#
# If this CIF has been generated from an entry in the Cambridge 
# Structural Database, then it will include bibliographic, chemical, 
# crystal, experimental, refinement or atomic coordinate data resulting 
# from the CCDC's data processing and validation procedures.
#
#######################################################################

data_MUBQIJ
_symmetry_cell_setting           rhombohedral
_symmetry_space_group_name_H-M   'R -3'
_symmetry_Int_Tables_number      148
_space_group_name_Hall           '-R 3'
loop_
_symmetry_equiv_pos_site_id
_symmetry_equiv_pos_as_xyz
1 x,y,z
2 -y,x-y,z
3 -x+y,-x,z
4 2/3+x,1/3+y,1/3+z
5 2/3-y,1/3+x-y,1/3+z
6 2/3-x+y,1/3-x,1/3+z
7 1/3+x,2/3+y,2/3+z
8 2/3+y,1/3-x+y,1/3-z
9 2/3+x-y,1/3+x,1/3-z
10 -x,-y,-z
11 y,-x+y,-z
12 x-y,x,-z
13 1/3-x,2/3-y,2/3-z
14 1/3+y,2/3-x+y,2/3-z
15 1/3+x-y,2/3+x,2/3-z
16 2/3-x,1/3-y,1/3-z
17 1/3-y,2/3+x-y,2/3+z
18 1/3-x+y,2/3-x,2/3+z
_cell_length_a                   32.2230(19)
_cell_length_b                   32.2230(19)
_cell_length_c                   20.8273(18)
_cell_angle_alpha                90
_cell_angle_beta                 90
_cell_angle_gamma                120.00
_cell_volume                     18728.2
loop_
_atom_site_label
_atom_site_type_symbol
_atom_site_fract_x
_atom_site_fract_y
_atom_site_fract_z
Ag1 Ag 0.14932(3) 0.04590(3) 0.23113(4)
Ag2 Ag 0.37039(3) 0.04775(3) 0.33030(4)
N4 N 0.3039(3) 0.0585(3) 0.3094(4)
N5 N 0.2205(3) 0.0574(3) 0.2686(4)
C3 C 0.2459(3) 0.0473(3) 0.2283(4)
C4 C 0.2876(3) 0.0474(3) 0.2493(4)
C5 C 0.2789(3) 0.0709(3) 0.3494(4)
C6 C 0.2955(4) 0.0842(4) 0.4142(5)
H5 H 0.3241 0.0853 0.4279
C7 C 0.2700(5) 0.0952(5) 0.4556(5)
H6 H 0.2803 0.1024 0.4990
C8 C 0.2284(5) 0.0961(5) 0.4358(5)
H7 H 0.2122 0.1057 0.4652
C9 C 0.2108(4) 0.0829(4) 0.3726(5)
H8 H 0.1825 0.0825 0.3591
C10 C 0.2370(3) 0.0702(4) 0.3303(4)
N6 N 0.1890(3) 0.0333(3) 0.1456(4)
N7 N 0.2421(3) 0.0126(3) 0.0576(3)
C11 C 0.2565(3) 0.0244(3) 0.1172(4)
C12 C 0.2292(3) 0.0352(3) 0.1632(4)
C13 C 0.1737(3) 0.0223(3) 0.0829(4)
C14 C 0.1320(3) 0.0204(4) 0.0642(5)
H9 H 0.1134 0.0264 0.0941
C15 C 0.1178(4) 0.0097(4) 0.0015(6)
H10 H 0.0889 0.0085 -0.0116
C16 C 0.1433(5) 0.0007(5) -0.0425(5)
H11 H 0.1322 -0.0063 -0.0856
C17 C 0.1854(4) 0.0014(4) -0.0259(5)
H12 H 0.2029 -0.0053 -0.0568
C18 C 0.2016(3) 0.0125(3) 0.0386(4)
N8 N 0.3223(2) 0.0119(3) 0.0979(3)
N9 N 0.3522(2) 0.0320(3) 0.2259(3)
C19 C 0.3146(3) 0.0344(3) 0.2048(4)
C20 C 0.2996(3) 0.0232(3) 0.1390(4)
C21 C 0.3616(3) 0.0103(3) 0.1182(4)
C22 C 0.3866(4) -0.0023(4) 0.0754(5)
H13 H 0.3765 -0.0098 0.0320
C23 C 0.4268(4) -0.0038(4) 0.0971(6)
H14 H 0.4444 -0.0115 0.0678
C24 C 0.4414(4) 0.0059(4) 0.1606(6)
H15 H 0.4688 0.0046 0.1742
C25 C 0.4169(3) 0.0173(3) 0.2036(5)
H16 H 0.4269 0.0237 0.2472
C26 C 0.3764(3) 0.0195(3) 0.1830(4)
N10 N 0.0715(2) -0.0234(2) 0.2369(4)
N11 N -0.0244(2) -0.0956(3) 0.2364(4)
C27 C -0.0123(3) -0.0495(3) 0.2400(4)
C28 C 0.0366(3) -0.0134(3) 0.2407(4)
C29 C 0.0594(3) -0.0696(3) 0.2332(5)
C30 C 0.0956(4) -0.0828(4) 0.2267(6)
H17 H 0.1286 -0.0589 0.2277
C31 C 0.0827(4) -0.1293(4) 0.2193(7)
H18 H 0.1069 -0.1375 0.2128
C32 C 0.0352(4) -0.1654(4) 0.2210(7)
H19 H 0.0276 -0.1979 0.2176
C33 C -0.0012(3) -0.1552(3) 0.2274(6)
H20 H -0.0337 -0.1802 0.2283
C34 C 0.0108(3) -0.1064(3) 0.2326(5)
C28B C -0.0500(4) -0.0366(3) 0.2407(4)
N10B N -0.0949(3) -0.0715(2) 0.2369(4)
C29B C -0.1290(4) -0.0594(3) 0.2332(5)
C30B C -0.1784(6) -0.0956(4) 0.2267(6)
H17B H -0.1875 -0.1286 0.2277
C31B C -0.2120(6) -0.0827(4) 0.2193(7)
H18B H -0.2444 -0.1069 0.2128
C32B C -0.2006(6) -0.0352(4) 0.2210(7)
H19B H -0.2255 -0.0276 0.2176
C33B C -0.1540(4) 0.0012(3) 0.2274(6)
H20B H -0.1465 0.0337 0.2283
C34B C -0.1172(4) -0.0108(3) 0.2326(5)
N11B N -0.0712(4) 0.0244(2) 0.2364(4)
C27B C -0.0372(4) 0.0123(3) 0.2400(4)
C28A C 0.0134(3) 0.0500(4) 0.2407(4)
N10A N 0.0234(2) 0.0949(3) 0.2369(4)
C29A C 0.0696(3) 0.1290(4) 0.2332(5)
C30A C 0.0828(4) 0.1784(6) 0.2267(6)
H17A H 0.0589 0.1875 0.2277
C31A C 0.1293(4) 0.2120(6) 0.2193(7)
H18A H 0.1375 0.2444 0.2128
C32A C 0.1654(4) 0.2006(6) 0.2210(7)
H19A H 0.1979 0.2255 0.2176
C33A C 0.1552(3) 0.1540(4) 0.2274(6)
H20A H 0.1802 0.1465 0.2283
C34A C 0.1064(3) 0.1172(4) 0.2326(5)
N11A N 0.0956(3) 0.0712(4) 0.2364(4)
C27A C 0.0495(3) 0.0372(4) 0.2400(4)
Ag1B Ag -0.10342(4) -0.14932(3) 0.23113(4)
Ag1A Ag -0.04590(3) 0.10342(4) 0.23113(4)
Ag2P Ag 0.28558(3) -0.01069(4) -0.00303(4)
N4E N 0.4213(4) 0.0294(3) 0.6427(4)
N5E N 0.5036(4) 0.1128(3) 0.6019(4)
C3E C 0.4681(4) 0.0874(3) 0.5616(4)
C4E C 0.4265(4) 0.0457(3) 0.5826(4)
C5E C 0.4587(4) 0.0544(3) 0.6827(4)
C6E C 0.4554(6) 0.0378(4) 0.7475(5)
H5E H 0.4279 0.0092 0.7612
C7E C 0.4919(7) 0.0633(5) 0.7889(5)
H6E H 0.4888 0.0530 0.8323
C8E C 0.5344(7) 0.1049(5) 0.7691(5)
H7E H 0.5602 0.1211 0.7985
C9E C 0.5388(6) 0.1225(4) 0.7059(5)
H8E H 0.5667 0.1508 0.6924
C10E C 0.4999(5) 0.0963(3) 0.6636(4)
N6E N 0.5110(4) 0.1443(3) 0.4789(4)
N7E N 0.4372(4) 0.0912(3) 0.3909(3)
C11E C 0.4346(4) 0.0768(3) 0.4505(4)
C12E C 0.4727(4) 0.1041(3) 0.4965(4)
C13E C 0.5153(4) 0.1596(3) 0.4162(4)
C14E C 0.5551(5) 0.2013(3) 0.3975(5)
H9E H 0.5797 0.2199 0.4274
C15E C 0.5586(6) 0.2155(4) 0.3348(6)
H10E H 0.5863 0.2444 0.3217
C16E C 0.5241(7) 0.1900(5) 0.2908(5)
H11E H 0.5282 0.2011 0.2477
C17E C 0.4827(6) 0.1479(4) 0.3074(5)
H12E H 0.4585 0.1304 0.2765
C18E C 0.4776(4) 0.1317(3) 0.3719(4)
N8E N 0.3563(4) 0.0110(2) 0.4312(3)
N9E N 0.3465(4) -0.0189(2) 0.5592(3)
C19E C 0.3865(4) 0.0187(3) 0.5381(4)
C20E C 0.3903(4) 0.0337(3) 0.4723(4)
C21E C 0.3154(4) -0.0283(3) 0.4515(4)
C22E C 0.2778(6) -0.0533(4) 0.4087(5)
H13E H 0.2804 -0.0432 0.3653
C23E C 0.2361(6) -0.0935(4) 0.4304(6)
H14E H 0.2108 -0.1111 0.4011
C24E C 0.2312(6) -0.1081(4) 0.4939(6)
H15E H 0.2025 -0.1355 0.5075
C25E C 0.2671(4) -0.0836(3) 0.5369(5)
H16E H 0.2635 -0.0936 0.5805
C26E C 0.3098(4) -0.0431(3) 0.5163(4)
N4B N -0.2454(4) -0.3039(3) 0.3094(4)
N5B N -0.1631(4) -0.2205(3) 0.2686(4)
C3B C -0.1986(4) -0.2459(3) 0.2283(4)
C4B C -0.2402(4) -0.2876(3) 0.2493(4)
C5B C -0.2080(4) -0.2789(3) 0.3494(4)
C6B C -0.2113(6) -0.2955(4) 0.4142(5)
H5B H -0.2388 -0.3241 0.4279
C7B C -0.1748(7) -0.2700(5) 0.4556(5)
H6B H -0.1779 -0.2803 0.4990
C8B C -0.1323(7) -0.2284(5) 0.4358(5)
H7B H -0.1065 -0.2122 0.4652
C9B C -0.1279(6) -0.2108(4) 0.3726(5)
H8B H -0.1000 -0.1825 0.3591
C10B C -0.1668(5) -0.2370(3) 0.3303(4)
N6B N -0.1557(4) -0.1890(3) 0.1456(4)
N7B N -0.2295(4) -0.2421(3) 0.0576(3)
C11B C -0.2321(4) -0.2565(3) 0.1172(4)
C12B C -0.1940(4) -0.2292(3) 0.1632(4)
C13B C -0.1514(4) -0.1737(3) 0.0829(4)
C14B C -0.1116(5) -0.1320(3) 0.0642(5)
H9B H -0.0870 -0.1134 0.0941
C15B C -0.1081(6) -0.1178(4) 0.0015(6)
H10B H -0.0804 -0.0889 -0.0116
C16B C -0.1426(7) -0.1433(5) -0.0425(5)
H11B H -0.1385 -0.1322 -0.0856
C17B C -0.1840(6) -0.1854(4) -0.0259(5)
H12B H -0.2082 -0.2029 -0.0568
C18B C -0.1891(4) -0.2016(3) 0.0386(4)
N8B N -0.3104(4) -0.3223(2) 0.0979(3)
N9B N -0.3202(4) -0.3522(2) 0.2259(3)
C19B C -0.2802(4) -0.3146(3) 0.2048(4)
C20B C -0.2764(4) -0.2996(3) 0.1390(4)
C21B C -0.3513(4) -0.3616(3) 0.1182(4)
C22B C -0.3889(6) -0.3866(4) 0.0754(5)
H13B H -0.3863 -0.3765 0.0320
C23B C -0.4306(6) -0.4268(4) 0.0971(6)
H14B H -0.4559 -0.4444 0.0678
C24B C -0.4355(6) -0.4414(4) 0.1606(6)
H15B H -0.4642 -0.4688 0.1742
C25B C -0.3996(4) -0.4169(3) 0.2036(5)
H16B H -0.4032 -0.4269 0.2472
C26B C -0.3569(4) -0.3764(3) 0.1830(4)
Ag2E Ag 0.34403(4) -0.03706(3) 0.66363(4)
N5A N -0.0574(3) 0.1631(4) 0.2686(4)
N6A N -0.0333(3) 0.1557(4) 0.1456(4)
N4P N 0.2748(3) -0.0879(4) -0.0239(4)
N9P N 0.3013(3) -0.0131(4) -0.1074(3)
Ag1E Ag 0.56325(4) 0.18401(3) 0.56446(4)
Ag2B Ag -0.32264(4) -0.37039(3) 0.33030(4)
Ag2F Ag -0.29628(3) -0.28558(3) -0.00303(4)
N7P N 0.3207(3) -0.1038(4) 0.7243(3)
N8P N 0.3214(3) -0.0229(4) 0.7646(3)
N1 N 0.4181(4) -0.0358(5) 0.9053(7)
O1 O 0.3946(5) -0.0604(8) 0.8629(9)
O2 O 0.3923(6) -0.0702(6) 0.9470(12)
O3 O 0.4600(3) -0.0185(4) 0.9174(5)
O5 O 0.7353(6) -0.1176(5) 0.3576(7)
O6 O 0.8118(14) -0.1408(12) 0.3938(14)
N2 N 0.0000 0.0000 0.0966(7)
O7 O 0.0374(3) 0.0398(3) 0.0992(4)
O7A O -0.0398(3) -0.0024(4) 0.0992(4)
O7B O 0.0024(4) -0.0374(3) 0.0992(4)
C1 C 0.8185(9) 0.2129(8) 0.3162(13)
H1 H 0.800(8) 0.219(8) 0.283(11)
H2 H 0.853(8) 0.234(8) 0.308(11)
Cl1 Cl 0.8016(3) 0.2232(2) 0.4018(4)
Cl2 Cl 0.8037(2) 0.1548(2) 0.3176(3)
C2 C 0.757(2) -0.0129(7) 0.3959(15)
H3 H 0.72(2) -0.02(2) 0.41(3)
H4 H 0.76(2) -0.04(2) 0.38(3)
Cl3 Cl 0.7804(3) 0.0416(3) 0.3336(4)
Cl4 Cl 0.7948(5) 0.0135(5) 0.4573(8)
O8 O 0.3467(7) 0.1322(6) 0.1770(14)
N3 N 0.3893(7) 0.1527(6) 0.1650(9)
O9 O 0.4063(11) 0.1927(8) 0.1451(18)
O10 O 0.4064(9) 0.1292(15) 0.180(2)
O4? O 0.4044(6) -0.0087(9) 0.8963(12)
loop_
_geom_bond_atom_site_label_1
_geom_bond_atom_site_label_2
_geom_bond_site_symmetry_1
_geom_bond_site_symmetry_2
Ag1 N5 1_555 1_555
Ag2 N4 1_555 1_555
N1 O1 1_555 1_555
O2 N1 1_555 1_555
O3 N1 1_555 1_555
N2 O7 1_555 1_555
C1 H1 1_555 1_555
H2 C1 1_555 1_555
Cl1 C1 1_555 1_555
Cl2 C1 1_555 1_555
C2 H3 1_555 1_555
H4 C2 1_555 1_555
Cl3 C2 1_555 1_555
Cl4 C2 1_555 1_555
O8 N3 1_555 1_555
N3 O9 1_555 1_555
O10 N3 1_555 1_555
N4 C4 1_555 1_555
N5 C3 1_555 1_555
C3 C4 1_555 1_555
C4 C19 1_555 1_555
C5 N4 1_555 1_555
C6 C5 1_555 1_555
H5 C6 1_555 1_555
C7 C6 1_555 1_555
H6 C7 1_555 1_555
C8 C7 1_555 1_555
H7 C8 1_555 1_555
C9 C8 1_555 1_555
H8 C9 1_555 1_555
C10 N5 1_555 1_555
N6 Ag1 1_555 1_555
N7 C11 1_555 1_555
C11 C12 1_555 1_555
C12 C3 1_555 1_555
C13 N6 1_555 1_555
C14 C13 1_555 1_555
H9 C14 1_555 1_555
C15 C14 1_555 1_555
H10 C15 1_555 1_555
C16 C15 1_555 1_555
H11 C16 1_555 1_555
C17 C16 1_555 1_555
H12 C17 1_555 1_555
C18 N7 1_555 1_555
N8 C20 1_555 1_555
N9 Ag2 1_555 1_555
C19 N9 1_555 1_555
C20 C11 1_555 1_555
C21 N8 1_555 1_555
C22 C21 1_555 1_555
H13 C22 1_555 1_555
C23 C22 1_555 1_555
H14 C23 1_555 1_555
C24 C23 1_555 1_555
H15 C24 1_555 1_555
C25 C24 1_555 1_555
H16 C25 1_555 1_555
C26 N9 1_555 1_555
N10 Ag1 1_555 1_555
N11 C27 1_555 1_555
C27 C28 1_555 1_555
C28 N10 1_555 1_555
C29 N10 1_555 1_555
C30 C29 1_555 1_555
H17 C30 1_555 1_555
C31 C30 1_555 1_555
H18 C31 1_555 1_555
C32 C31 1_555 1_555
H19 C32 1_555 1_555
C33 C32 1_555 1_555
H20 C33 1_555 1_555
C34 N11 1_555 1_555
O7A N2 1_555 1_555
O7B N2 1_555 1_555
C28B C27 1_555 1_555
N10B C28B 1_555 1_555
C29B N10B 1_555 1_555
C30B C29B 1_555 1_555
H17B C30B 1_555 1_555
C31B C30B 1_555 1_555
H18B C31B 1_555 1_555
C32B C31B 1_555 1_555
H19B C32B 1_555 1_555
C33B C32B 1_555 1_555
H20B C33B 1_555 1_555
C34B C29B 1_555 1_555
N11B C34B 1_555 1_555
C27B C28B 1_555 1_555
C28A C27B 1_555 1_555
N10A C28A 1_555 1_555
C29A N10A 1_555 1_555
C30A C29A 1_555 1_555
H17A C30A 1_555 1_555
C31A C30A 1_555 1_555
H18A C31A 1_555 1_555
C32A C31A 1_555 1_555
H19A C32A 1_555 1_555
C33A C32A 1_555 1_555
H20A C33A 1_555 1_555
C34A C29A 1_555 1_555
N11A Ag1 1_555 1_555
C27A C28 1_555 1_555
Ag1B N11 1_555 1_555
Ag1A N11B 1_555 1_555
Ag2P N7 1_555 1_555
N4E C4E 1_555 1_555
N5E C3E 1_555 1_555
C3E C4E 1_555 1_555
C4E C19E 1_555 1_555
C5E N4E 1_555 1_555
C6E C5E 1_555 1_555
H5E C6E 1_555 1_555
C7E C6E 1_555 1_555
H6E C7E 1_555 1_555
C8E C7E 1_555 1_555
H7E C8E 1_555 1_555
C9E C8E 1_555 1_555
H8E C9E 1_555 1_555
C10E N5E 1_555 1_555
N6E C12E 1_555 1_555
N7E Ag2 1_555 1_555
C11E N7E 1_555 1_555
C12E C3E 1_555 1_555
C13E N6E 1_555 1_555
C14E C13E 1_555 1_555
H9E C14E 1_555 1_555
C15E C14E 1_555 1_555
H10E C15E 1_555 1_555
C16E C15E 1_555 1_555
H11E C16E 1_555 1_555
C17E C16E 1_555 1_555
H12E C17E 1_555 1_555
C18E N7E 1_555 1_555
N8E Ag2 1_555 1_555
N9E C19E 1_555 1_555
C19E C20E 1_555 1_555
C20E C11E 1_555 1_555
C21E N8E 1_555 1_555
C22E C21E 1_555 1_555
H13E C22E 1_555 1_555
C23E C22E 1_555 1_555
H14E C23E 1_555 1_555
C24E C23E 1_555 1_555
H15E C24E 1_555 1_555
C25E C24E 1_555 1_555
H16E C25E 1_555 1_555
C26E N9E 1_555 1_555
N4B C4B 1_555 1_555
N5B Ag1B 1_555 1_555
C3B N5B 1_555 1_555
C4B C3B 1_555 1_555
C5B N4B 1_555 1_555
C6B C5B 1_555 1_555
H5B C6B 1_555 1_555
C7B C6B 1_555 1_555
H6B C7B 1_555 1_555
C8B C7B 1_555 1_555
H7B C8B 1_555 1_555
C9B C8B 1_555 1_555
H8B C9B 1_555 1_555
C10B N5B 1_555 1_555
N6B Ag1B 1_555 1_555
N7B C11B 1_555 1_555
C11B C12B 1_555 1_555
C12B C3B 1_555 1_555
C13B N6B 1_555 1_555
C14B C13B 1_555 1_555
H9B C14B 1_555 1_555
C15B C14B 1_555 1_555
H10B C15B 1_555 1_555
C16B C15B 1_555 1_555
H11B C16B 1_555 1_555
C17B C16B 1_555 1_555
H12B C17B 1_555 1_555
C18B N7B 1_555 1_555
N8B C20B 1_555 1_555
N9B C19B 1_555 1_555
C19B C4B 1_555 1_555
C20B C11B 1_555 1_555
C21B N8B 1_555 1_555
C22B C21B 1_555 1_555
H13B C22B 1_555 1_555
C23B C22B 1_555 1_555
H14B C23B 1_555 1_555
C24B C23B 1_555 1_555
H15B C24B 1_555 1_555
C25B C24B 1_555 1_555
H16B C25B 1_555 1_555
C26B N9B 1_555 1_555
Ag2E N4E 1_555 1_555
N5A Ag1A 1_555 1_555
N6A Ag1A 1_555 1_555
N4P Ag2P 1_555 1_555
N9P Ag2P 1_555 1_555
Ag1E N5E 1_555 1_555
Ag2B N4B 1_555 1_555
Ag2F N7B 1_555 1_555
N7P Ag2E 1_555 1_555
N8P Ag2E 1_555 1_555
C5 C10 1_555 1_555
C9 C10 1_555 1_555
N6 C12 1_555 1_555
C13 C18 1_555 1_555
C17 C18 1_555 1_555
N8 Ag2P 1_555 1_555
C19 C20 1_555 1_555
C21 C26 1_555 1_555
C25 C26 1_555 1_555
C29 C34 1_555 1_555
C33 C34 1_555 1_555
N10B Ag1B 1_555 1_555
C33B C34B 1_555 1_555
N11B C27B 1_555 1_555
C28A C27A 1_555 1_555
N10A Ag1A 1_555 1_555
C33A C34A 1_555 1_555
C34A N11A 1_555 1_555
N11A C27A 1_555 1_555
C5E C10E 1_555 1_555
C9E C10E 1_555 1_555
N6E Ag1E 1_555 1_555
C11E C12E 1_555 1_555
C13E C18E 1_555 1_555
C17E C18E 1_555 1_555
N8E C20E 1_555 1_555
N9E Ag2E 1_555 1_555
C21E C26E 1_555 1_555
C25E C26E 1_555 1_555
C5B C10B 1_555 1_555
C9B C10B 1_555 1_555
N6B C12B 1_555 1_555
C13B C18B 1_555 1_555
C17B C18B 1_555 1_555
N8B Ag2F 1_555 1_555
N9B Ag2B 1_555 1_555
C19B C20B 1_555 1_555
C21B C26B 1_555 1_555
C25B C26B 1_555 1_555

#END
