
#######################################################################
#
#                 Cambridge Crystallographic Data Centre
#                                CCDC 
#
#######################################################################
#
# If this CIF has been generated from an entry in the Cambridge 
# Structural Database, then it will include bibliographic, chemical, 
# crystal, experimental, refinement or atomic coordinate data resulting 
# from the CCDC's data processing and validation procedures.
#
#######################################################################

data_MUBREI
_symmetry_cell_setting           monoclinic
_symmetry_space_group_name_H-M   'C 2/c'
_symmetry_Int_Tables_number      15
_space_group_name_Hall           '-C 2yn'
loop_
_symmetry_equiv_pos_site_id
_symmetry_equiv_pos_as_xyz
1 x,y,z
2 -x,y,1/2-z
3 1/2+x,1/2+y,z
4 1/2-x,1/2+y,1/2-z
5 -x,-y,-z
6 x,-y,1/2+z
7 1/2-x,1/2-y,-z
8 1/2+x,1/2-y,1/2+z
_cell_length_a                   21.896(3)
_cell_length_b                   13.1180(14)
_cell_length_c                   12.3002(14)
_cell_angle_alpha                90
_cell_angle_beta                 107.635(2)
_cell_angle_gamma                90
_cell_volume                     3366.98
loop_
_atom_site_label
_atom_site_type_symbol
_atom_site_fract_x
_atom_site_fract_y
_atom_site_fract_z
Cd1 Cd 0.461691(15) 0.02454(3) 0.60786(3)
S1 S 0.25737(5) 0.47638(9) 0.33380(9)
O1 O 0.46853(15) 0.0890(3) 0.4204(3)
O2 O 0.43119(17) 0.0889(3) 0.2303(3)
O3 O 0.25032(16) 0.4819(3) 0.4469(3)
O4 O 0.20070(15) 0.4667(3) 0.2380(3)
O5 O 0.45371(18) 0.8682(3) 0.3446(3)
O6 O 0.40472(17) 0.8570(3) 0.1569(3)
O7 O 0.36596(18) -0.0385(4) 0.4958(3)
C1 C 0.4326(2) 0.1227(3) 0.3260(4)
C2 C 0.3886(2) 0.2111(4) 0.3281(4)
C3 C 0.3414(2) 0.2391(4) 0.2295(4)
H1 H 0.3369 0.2031 0.1624
C4 C 0.3009(2) 0.3198(4) 0.2294(4)
H2 H 0.2690 0.3378 0.1630
C5 C 0.3086(2) 0.3737(3) 0.3302(4)
C6 C 0.3568(2) 0.3474(4) 0.4280(4)
H3 H 0.3623 0.3847 0.4946
C7 C 0.3966(2) 0.2661(4) 0.4275(4)
H4 H 0.4287 0.2483 0.4937
C8 C 0.2997(2) 0.5847(3) 0.3142(4)
C9 C 0.2892(2) 0.6229(4) 0.2043(4)
H5 H 0.2586 0.5937 0.1426
C10 C 0.3251(2) 0.7045(4) 0.1893(4)
H6 H 0.3180 0.7312 0.1165
C11 C 0.3713(2) 0.7479(3) 0.2796(4)
C12 C 0.3795(2) 0.7114(4) 0.3886(4)
H7 H 0.4096 0.7419 0.4502
C13 C 0.3441(2) 0.6313(4) 0.4071(4)
H8 H 0.3495 0.6080 0.4808
C14 C 0.4134(2) 0.8312(4) 0.2590(4)
H9 H 0.351(2) -0.033(4) 0.4169(17)
H10 H 0.3334(19) -0.021(4) 0.528(4)
Cd1D Cd 0.538309(15) -0.02454(3) 0.39214(3)
Cd1D_2 Cd 0.538309(15) 0.97546(3) 0.39214(3)
Cd1E Cd 0.461691(15) -0.02454(3) 0.10786(3)
Cd1E_2 Cd 0.461691(15) 0.97546(3) 0.10786(3)
O1D O 0.53147(15) -0.0890(3) 0.5796(3)
O2E O 0.43119(17) -0.0889(3) 0.7303(3)
O5D O 0.54629(18) 0.1318(3) 0.6554(3)
O6E O 0.40472(17) 0.1430(3) 0.6569(3)
loop_
_geom_bond_atom_site_label_1
_geom_bond_atom_site_label_2
_geom_bond_site_symmetry_1
_geom_bond_site_symmetry_2
Cd1 O1 1_555 1_555
S1 O3 1_555 1_555
O1 C1 1_555 1_555
O2 C1 1_555 1_555
O4 S1 1_555 1_555
O5 C14 1_555 1_555
O6 C14 1_555 1_555
O7 Cd1 1_555 1_555
C1 C2 1_555 1_555
C2 C3 1_555 1_555
C3 H1 1_555 1_555
C4 C3 1_555 1_555
H2 C4 1_555 1_555
C5 S1 1_555 1_555
C6 C5 1_555 1_555
H3 C6 1_555 1_555
C7 C2 1_555 1_555
H4 C7 1_555 1_555
C8 S1 1_555 1_555
C9 C8 1_555 1_555
H5 C9 1_555 1_555
C10 C9 1_555 1_555
H6 C10 1_555 1_555
C11 C10 1_555 1_555
C12 C11 1_555 1_555
H7 C12 1_555 1_555
C13 C8 1_555 1_555
H8 C13 1_555 1_555
C14 C11 1_555 1_555
H9 O7 1_555 1_555
H10 O7 1_555 1_555
Cd1D O1 1_555 1_555
Cd1D_2 O5 1_555 1_555
Cd1E O2 1_555 1_555
Cd1E_2 O6 1_555 1_555
O1D Cd1 1_555 1_555
O2E Cd1 1_555 1_555
O5D Cd1 1_555 1_555
O6E Cd1 1_555 1_555
C4 C5 1_555 1_555
C6 C7 1_555 1_555
C12 C13 1_555 1_555
Cd1D O1D 1_555 1_555

#END
