
#######################################################################
#
#                 Cambridge Crystallographic Data Centre
#                                CCDC 
#
#######################################################################
#
# If this CIF has been generated from an entry in the Cambridge 
# Structural Database, then it will include bibliographic, chemical, 
# crystal, experimental, refinement or atomic coordinate data resulting 
# from the CCDC's data processing and validation procedures.
#
#######################################################################

data_MUBZEQ01
_symmetry_cell_setting           triclinic
_symmetry_space_group_name_H-M   'P -1'
_symmetry_Int_Tables_number      2
_space_group_name_Hall           '-P 1'
loop_
_symmetry_equiv_pos_site_id
_symmetry_equiv_pos_as_xyz
1 x,y,z
2 -x,-y,-z
_cell_length_a                   7.7878(9)
_cell_length_b                   13.8854(13)
_cell_length_c                   15.0832(14)
_cell_angle_alpha                64.539(9)
_cell_angle_beta                 79.268(9)
_cell_angle_gamma                87.711(9)
_cell_volume                     1445.4
loop_
_atom_site_label
_atom_site_type_symbol
_atom_site_fract_x
_atom_site_fract_y
_atom_site_fract_z
Cd1 Cd 0.58984(6) 0.11199(4) 0.10720(4)
Cd2 Cd 1.26338(6) -0.13980(4) 0.16541(4)
Cd3 Cd 1.0000 0.0000 0.0000
N1 N 0.7438(7) 0.2588(4) 0.0926(4)
N2 N 1.3266(7) -0.2760(5) 0.3216(4)
O1 O 0.4149(5) 0.2326(4) 0.0061(4)
O2 O 0.4543(5) 0.1678(3) -0.1083(3)
O3 O 0.0808(6) 0.1751(4) -0.0665(3)
O4 O -0.0541(6) 0.2576(4) -0.1942(4)
O5 O 1.0353(5) -0.0148(4) 0.1548(3)
O6 O 0.7699(6) 0.0142(4) 0.2222(3)
O7 O 1.3830(5) -0.0220(4) 0.2042(3)
O8 O 1.3291(6) 0.1134(4) 0.2420(4)
O9 O 0.7213(5) 0.0456(3) 0.0029(3)
H1 H 0.6800 -0.0117 0.0110
C1 C 0.4030(8) 0.2363(5) -0.0767(5)
C2 C 0.0612(8) 0.2517(5) -0.1461(5)
C3 C 0.3445(8) 0.3393(5) -0.1519(5)
C4 C 0.1891(8) 0.3473(5) -0.1866(5)
C5 C 0.1466(9) 0.4443(6) -0.2604(5)
H2 H 0.0426 0.4478 -0.2834
C6 C 0.2543(9) 0.5328(6) -0.2988(6)
H3 H 0.2223 0.5967 -0.3464
C7 C 0.4137(9) 0.5283(6) -0.2669(6)
C8 C 0.4593(9) 0.4318(5) -0.1932(5)
C9 C 0.6215(8) 0.4309(6) -0.1628(5)
H4 H 0.6566 0.3673 -0.1163
C10 C 0.7261(11) 0.5204(7) -0.1998(7)
H5 H 0.8299 0.5177 -0.1769
C11 C 0.6805(13) 0.6160(8) -0.2716(8)
H6 H 0.7525 0.6773 -0.2962
C12 C 0.5277(12) 0.6189(7) -0.3055(7)
H7 H 0.4991 0.6822 -0.3553
C13 C 0.9204(9) -0.0157(5) 0.2283(5)
C14 C 1.2913(8) 0.0226(6) 0.2547(5)
C15 C 1.1443(8) -0.0423(5) 0.3394(5)
C16 C 0.9773(8) -0.0563(5) 0.3269(5)
C17 C 0.8442(8) -0.1068(6) 0.4125(5)
H8 H 0.7316 -0.1158 0.4041
C18 C 0.8775(9) -0.1421(6) 0.5059(6)
H9 H 0.7867 -0.1726 0.5605
C19 C 1.0463(9) -0.1334(6) 0.5218(5)
C20 C 1.1840(8) -0.0848(5) 0.4380(5)
C21 C 1.3526(9) -0.0784(6) 0.4545(5)
H10 H 1.4446 -0.0484 0.4005
C22 C 1.3829(9) -0.1162(6) 0.5499(5)
H11 H 1.4962 -0.1114 0.5596
C23 C 1.2477(10) -0.1619(6) 0.6337(6)
H12 H 1.2707 -0.1870 0.6981
C24 C 1.0826(9) -0.1688(6) 0.6186(5)
H13 H 0.9917 -0.1974 0.6735
C25 C 0.9190(8) 0.2597(6) 0.0801(5)
H14 H 0.9734 0.1951 0.0956
C26 C 1.0224(9) 0.3513(6) 0.0456(6)
H15 H 1.1434 0.3476 0.0383
C27 C 0.9456(8) 0.4494(5) 0.0218(5)
C28 C 0.7645(9) 0.4476(6) 0.0406(6)
H16 H 0.7070 0.5105 0.0300
C29 C 0.6687(9) 0.3522(6) 0.0752(6)
H17 H 0.5472 0.3531 0.0869
C30 C 1.2362(10) -0.3668(7) 0.3739(6)
H18 H 1.1236 -0.3712 0.3631
C31 C 1.2978(10) -0.4562(7) 0.4439(6)
H19 H 1.2285 -0.5190 0.4778
C32 C 1.4627(9) -0.4520(6) 0.4633(5)
C33 C 1.5526(10) -0.3554(6) 0.4121(5)
H20 H 1.6617 -0.3472 0.4253
C34 C 1.4852(9) -0.2702(6) 0.3416(5)
H21 H 1.5518 -0.2065 0.3066
N1A N 1.2562(7) 0.7412(4) -0.0926(4)
C25A C 1.0810(8) 0.7403(6) -0.0801(5)
H14A H 1.0266 0.8049 -0.0956
C26A C 0.9776(9) 0.6487(6) -0.0456(6)
H15A H 0.8566 0.6524 -0.0383
C27A C 1.0544(8) 0.5506(5) -0.0218(5)
C28A C 1.2355(9) 0.5524(6) -0.0406(6)
H16A H 1.2930 0.4895 -0.0300
C29A C 1.3313(9) 0.6478(6) -0.0752(6)
H17A H 1.4528 0.6469 -0.0869
N2A N 1.6734(7) -0.7240(5) 0.6784(4)
C30A C 1.7638(10) -0.6332(7) 0.6261(6)
H18A H 1.8764 -0.6288 0.6369
C31A C 1.7022(10) -0.5438(7) 0.5561(6)
H19A H 1.7715 -0.4810 0.5222
C32A C 1.5373(9) -0.5480(6) 0.5367(5)
C33A C 1.4474(10) -0.6446(6) 0.5879(5)
H20A H 1.3383 -0.6528 0.5747
C34A C 1.5148(9) -0.7298(6) 0.6584(5)
H21A H 1.4482 -0.7935 0.6934
Cd1A Cd 0.41016(6) -0.11199(4) -0.10720(4)
Cd2A Cd -0.26338(6) 0.13980(4) -0.16541(4)
O1A O 0.5851(5) -0.2326(4) -0.0061(4)
O2A O 0.5457(5) -0.1678(3) 0.1083(3)
O3A O 0.9192(6) -0.1751(4) 0.0665(3)
O4A O 1.0541(6) -0.2576(4) 0.1942(4)
O5A O -0.0353(5) 0.0148(4) -0.1548(3)
O6A O 0.2301(6) -0.0142(4) -0.2222(3)
O7A O -0.3830(5) 0.0220(4) -0.2042(3)
O8A O -0.3291(6) -0.1134(4) -0.2420(4)
O9A O 0.2787(5) -0.0456(3) -0.0029(3)
H1A H 0.3200 0.0117 -0.0110
C1A C 0.5970(8) -0.2363(5) 0.0767(5)
C2A C 0.9388(8) -0.2517(5) 0.1461(5)
C3A C 0.6555(8) -0.3393(5) 0.1519(5)
C4A C 0.8109(8) -0.3473(5) 0.1866(5)
C5A C 0.8534(9) -0.4443(6) 0.2604(5)
H2A H 0.9574 -0.4478 0.2834
C6A C 0.7457(9) -0.5328(6) 0.2988(6)
H3A H 0.7777 -0.5967 0.3464
C7A C 0.5863(9) -0.5283(6) 0.2669(6)
C8A C 0.5407(9) -0.4318(5) 0.1932(5)
C9A C 0.3785(8) -0.4309(6) 0.1628(5)
H4A H 0.3434 -0.3673 0.1163
C10A C 0.2739(11) -0.5204(7) 0.1998(7)
H5A H 0.1701 -0.5177 0.1769
C11A C 0.3195(13) -0.6160(8) 0.2716(8)
H6A H 0.2475 -0.6773 0.2962
C12A C 0.4723(12) -0.6189(7) 0.3055(7)
H7A H 0.5009 -0.6822 0.3553
C13A C 0.0796(9) 0.0157(5) -0.2283(5)
C14A C -0.2913(8) -0.0226(6) -0.2547(5)
C15A C -0.1443(8) 0.0423(5) -0.3394(5)
C16A C 0.0227(8) 0.0563(5) -0.3269(5)
C17A C 0.1558(8) 0.1068(6) -0.4125(5)
H8A H 0.2684 0.1158 -0.4041
C18A C 0.1225(9) 0.1421(6) -0.5059(6)
H9A H 0.2133 0.1726 -0.5605
C19A C -0.0463(9) 0.1334(6) -0.5218(5)
C20A C -0.1840(8) 0.0848(5) -0.4380(5)
C21A C -0.3526(9) 0.0784(6) -0.4545(5)
H10A H -0.4446 0.0484 -0.4005
C22A C -0.3829(9) 0.1162(6) -0.5499(5)
H11A H -0.4962 0.1114 -0.5596
C23A C -0.2477(10) 0.1619(6) -0.6337(6)
H12A H -0.2707 0.1870 -0.6981
C24A C -0.0826(9) 0.1688(6) -0.6186(5)
H13A H 0.0083 0.1974 -0.6735
Cd1_2 Cd 1.58984(6) 0.11199(4) 0.10720(4)
Cd1A_2 Cd -0.58984(6) -0.11199(4) -0.10720(4)
Cd1A_3 Cd 1.41016(6) 0.88801(4) -0.10720(4)
Cd2_2 Cd 0.26338(6) -0.13980(4) 0.16541(4)
Cd2A_2 Cd 0.73662(6) 0.13980(4) -0.16541(4)
Cd2A_3 Cd 1.73662(6) -0.86020(4) 0.83459(4)
Cd3_2 Cd 0.0000 0.0000 0.0000
N1A_2 N 0.2562(7) -0.2588(4) -0.0926(4)
N2A_2 N -0.3266(7) 0.2760(5) -0.3216(4)
O2_2 O -0.5457(5) 0.1678(3) -0.1083(3)
O2A_2 O 1.5457(5) -0.1678(3) 0.1083(3)
O3_2 O 1.0808(6) 0.1751(4) -0.0665(3)
O5A_2 O 0.9647(5) 0.0148(4) -0.1548(3)
O7_2 O 0.3830(5) -0.0220(4) 0.2042(3)
O7A_2 O 0.6170(5) 0.0220(4) -0.2042(3)
O8_2 O 0.3291(6) 0.1134(4) 0.2420(4)
O8A_2 O 0.6709(6) -0.1134(4) -0.2420(4)
O9_2 O -0.2787(5) 0.0456(3) 0.0029(3)
O9A_2 O 1.2787(5) -0.0456(3) -0.0029(3)
loop_
_geom_bond_atom_site_label_1
_geom_bond_atom_site_label_2
_geom_bond_site_symmetry_1
_geom_bond_site_symmetry_2
Cd1 N1 1_555 1_555
Cd2 N2 1_555 1_555
Cd3 O5 1_555 1_555
N1 C25 1_555 1_555
N2 C30 1_555 1_555
O1 Cd1 1_555 1_555
O2 C1 1_555 1_555
O3 C2 1_555 1_555
O4 C2 1_555 1_555
O5 Cd2 1_555 1_555
O6 Cd1 1_555 1_555
O7 Cd2 1_555 1_555
O8 C14 1_555 1_555
O9 Cd1 1_555 1_555
H1 O9 1_555 1_555
C1 O1 1_555 1_555
C2 C4 1_555 1_555
C3 C1 1_555 1_555
C4 C3 1_555 1_555
C5 C4 1_555 1_555
H2 C5 1_555 1_555
C6 C5 1_555 1_555
H3 C6 1_555 1_555
C7 C6 1_555 1_555
C8 C3 1_555 1_555
C9 C8 1_555 1_555
H4 C9 1_555 1_555
C10 C9 1_555 1_555
H5 C10 1_555 1_555
C11 C10 1_555 1_555
H6 C11 1_555 1_555
C12 C7 1_555 1_555
H7 C12 1_555 1_555
C13 O5 1_555 1_555
C14 O7 1_555 1_555
C15 C14 1_555 1_555
C16 C13 1_555 1_555
C17 C16 1_555 1_555
H8 C17 1_555 1_555
C18 C17 1_555 1_555
H9 C18 1_555 1_555
C19 C18 1_555 1_555
C20 C15 1_555 1_555
C21 C20 1_555 1_555
H10 C21 1_555 1_555
C22 C21 1_555 1_555
H11 C22 1_555 1_555
C23 C22 1_555 1_555
H12 C23 1_555 1_555
C24 C19 1_555 1_555
H13 C24 1_555 1_555
C25 H14 1_555 1_555
C26 C25 1_555 1_555
H15 C26 1_555 1_555
C27 C26 1_555 1_555
C28 C27 1_555 1_555
H16 C28 1_555 1_555
C29 N1 1_555 1_555
H17 C29 1_555 1_555
C30 H18 1_555 1_555
C31 C30 1_555 1_555
H19 C31 1_555 1_555
C32 C31 1_555 1_555
C33 C32 1_555 1_555
H20 C33 1_555 1_555
C34 N2 1_555 1_555
H21 C34 1_555 1_555
N1A C25A 1_555 1_555
C25A H14A 1_555 1_555
C26A C25A 1_555 1_555
H15A C26A 1_555 1_555
C27A C27 1_555 1_555
C28A C27A 1_555 1_555
H16A C28A 1_555 1_555
C29A N1A 1_555 1_555
H17A C29A 1_555 1_555
N2A C30A 1_555 1_555
C30A H18A 1_555 1_555
C31A C30A 1_555 1_555
H19A C31A 1_555 1_555
C32A C32 1_555 1_555
C33A C32A 1_555 1_555
H20A C33A 1_555 1_555
C34A N2A 1_555 1_555
H21A C34A 1_555 1_555
Cd1A O1A 1_555 1_555
Cd2A O4 1_555 1_555
O1A C1A 1_555 1_555
O2A C1A 1_555 1_555
O3A Cd3 1_555 1_555
O4A Cd2 1_555 1_555
O5A Cd2A 1_555 1_555
O6A Cd1A 1_555 1_555
O7A Cd2A 1_555 1_555
O8A C14A 1_555 1_555
O9A Cd1A 1_555 1_555
H1A O9A 1_555 1_555
C1A C3A 1_555 1_555
C2A O3A 1_555 1_555
C3A C4A 1_555 1_555
C4A C2A 1_555 1_555
C5A C4A 1_555 1_555
H2A C5A 1_555 1_555
C6A C5A 1_555 1_555
H3A C6A 1_555 1_555
C7A C6A 1_555 1_555
C8A C3A 1_555 1_555
C9A C8A 1_555 1_555
H4A C9A 1_555 1_555
C10A C9A 1_555 1_555
H5A C10A 1_555 1_555
C11A C10A 1_555 1_555
H6A C11A 1_555 1_555
C12A C7A 1_555 1_555
H7A C12A 1_555 1_555
C13A O5A 1_555 1_555
C14A O7A 1_555 1_555
C15A C14A 1_555 1_555
C16A C13A 1_555 1_555
C17A C16A 1_555 1_555
H8A C17A 1_555 1_555
C18A C17A 1_555 1_555
H9A C18A 1_555 1_555
C19A C18A 1_555 1_555
C20A C15A 1_555 1_555
C21A C20A 1_555 1_555
H10A C21A 1_555 1_555
C22A C21A 1_555 1_555
H11A C22A 1_555 1_555
C23A C22A 1_555 1_555
H12A C23A 1_555 1_555
C24A C19A 1_555 1_555
H13A C24A 1_555 1_555
Cd1_2 O7 1_555 1_555
Cd1A_2 O7A 1_555 1_555
Cd1A_3 N1A 1_555 1_555
Cd2_2 O2A 1_555 1_555
Cd2A_2 O2 1_555 1_555
Cd2A_3 N2A 1_555 1_555
Cd3_2 O3 1_555 1_555
N1A_2 Cd1A 1_555 1_555
N2A_2 Cd2A 1_555 1_555
O2_2 Cd2A 1_555 1_555
O2A_2 Cd2 1_555 1_555
O3_2 Cd3 1_555 1_555
O5A_2 Cd3 1_555 1_555
O7_2 Cd1 1_555 1_555
O7A_2 Cd1A 1_555 1_555
O8_2 Cd1 1_555 1_555
O8A_2 Cd1A 1_555 1_555
O9_2 Cd2A 1_555 1_555
O9A_2 Cd2 1_555 1_555
Cd3 O9 1_555 1_555
Cd3 O9A_2 1_555 1_555
O6 C13 1_555 1_555
O8 Cd1_2 1_555 1_555
O9 Cd2A_2 1_555 1_555
C7 C8 1_555 1_555
C11 C12 1_555 1_555
C15 C16 1_555 1_555
C19 C20 1_555 1_555
C23 C24 1_555 1_555
C28 C29 1_555 1_555
C33 C34 1_555 1_555
C26A C27A 1_555 1_555
C28A C29A 1_555 1_555
C31A C32A 1_555 1_555
C33A C34A 1_555 1_555
O4A C2A 1_555 1_555
O5A Cd3_2 1_555 1_555
O6A C13A 1_555 1_555
O8A Cd1A_2 1_555 1_555
O9A Cd2_2 1_555 1_555
O9A Cd3_2 1_555 1_555
C7A C8A 1_555 1_555
C11A C12A 1_555 1_555
C15A C16A 1_555 1_555
C19A C20A 1_555 1_555
C23A C24A 1_555 1_555
Cd2_2 O7_2 1_555 1_555
Cd2A_2 O5A_2 1_555 1_555
Cd2A_2 O7A_2 1_555 1_555
Cd3_2 O9_2 1_555 1_555

#END
