
#######################################################################
#
#                 Cambridge Crystallographic Data Centre
#                                CCDC 
#
#######################################################################
#
# If this CIF has been generated from an entry in the Cambridge 
# Structural Database, then it will include bibliographic, chemical, 
# crystal, experimental, refinement or atomic coordinate data resulting 
# from the CCDC's data processing and validation procedures.
#
#######################################################################

data_MUCKIF
_symmetry_cell_setting           monoclinic
_symmetry_space_group_name_H-M   'P 21'
_symmetry_Int_Tables_number      4
_space_group_name_Hall           'P 2yb'
loop_
_symmetry_equiv_pos_site_id
_symmetry_equiv_pos_as_xyz
1 x,y,z
2 -x,1/2+y,-z
_cell_length_a                   7.742(2)
_cell_length_b                   28.246(6)
_cell_length_c                   7.864(2)
_cell_angle_alpha                90
_cell_angle_beta                 117.60(3)
_cell_angle_gamma                90
_cell_volume                     1524.01
loop_
_atom_site_label
_atom_site_type_symbol
_atom_site_fract_x
_atom_site_fract_y
_atom_site_fract_z
Zn1 Zn 0.38114(4) 0.701062(12) 1.03633(4)
Zn2 Zn 0.22657(4) 0.448859(12) 0.45261(4)
Cl1 Cl 0.10262(10) 0.67902(3) 1.02955(11)
Cl2 Cl 0.66540(9) 0.69459(3) 1.29967(10)
Cl3 Cl 0.49194(9) 0.44476(3) 0.41257(10)
Cl4 Cl 0.20750(10) 0.41402(3) 0.69780(10)
P1 P 0.39920(9) 0.79662(3) 0.80610(10)
P2 P -0.00718(10) 0.54937(3) 0.41154(10)
O1 O 0.3492(3) 0.76627(8) 0.9310(3)
O2 O 0.2286(3) 0.80459(8) 0.5987(3)
O3 O 0.5747(3) 0.77406(8) 0.7877(3)
O4 O 0.1582(3) 0.51634(8) 0.4553(3)
O5 O -0.0540(3) 0.55907(8) 0.5824(3)
O6 O -0.1942(3) 0.52888(8) 0.2375(3)
N1 N -0.0015(3) 0.92087(9) 0.7875(3)
N2 N 0.3984(3) 0.66445(9) 0.8189(4)
C1 C 0.1511(4) 0.90112(10) 0.7742(4)
H1 H 0.1540 0.9027 0.6549
C2 C 0.3031(4) 0.87873(10) 0.9271(4)
C3 C 0.3000(4) 0.87844(11) 1.1032(4)
H2 H 0.4043 0.8644 1.2123
C4 C 0.1453(4) 0.89849(12) 1.1191(4)
H3 H 0.1412 0.8979 1.2380
C5 C -0.0035(4) 0.91937(11) 0.9594(4)
H4 H -0.1102 0.9330 0.9701
C6 C 0.4624(4) 0.85533(10) 0.8983(4)
H5 H 0.5828 0.8543 1.0224
H6 H 0.4896 0.8746 0.8082
C7 C 0.1289(4) 0.76447(12) 0.4707(4)
H7 H 0.0472 0.7473 0.5171
H8 H 0.2256 0.7421 0.4674
C8 C 0.0040(5) 0.78442(14) 0.2740(5)
H9 H -0.0831 0.8086 0.2813
H10 H -0.0736 0.7590 0.1877
H11 H 0.0874 0.7987 0.2249
C9 C 0.6307(5) 0.79102(15) 0.6422(5)
H12 H 0.5891 0.7678 0.5363
H13 H 0.5650 0.8215 0.5881
C10 C 0.8420(5) 0.79729(17) 0.7312(6)
H14 H 0.8823 0.8206 0.8348
H15 H 0.8792 0.8085 0.6347
H16 H 0.9064 0.7670 0.7837
C11 C 0.2346(4) 0.64717(10) 0.6747(4)
H17 H 0.1167 0.6490 0.6840
C12 C 0.2306(4) 0.62670(10) 0.5121(4)
C13 C 0.4059(4) 0.62465(12) 0.5005(4)
H18 H 0.4091 0.6113 0.3911
C14 C 0.5745(4) 0.64236(12) 0.6510(4)
H19 H 0.6946 0.6412 0.6457
C15 C 0.5668(4) 0.66182(11) 0.8090(4)
H20 H 0.6830 0.6735 0.9124
C16 C 0.0421(4) 0.60718(11) 0.3549(4)
H21 H 0.0507 0.6061 0.2331
H22 H -0.0666 0.6286 0.3361
C17 C -0.0738(5) 0.52037(12) 0.6966(5)
H23 H 0.0351 0.4976 0.7338
H24 H -0.1980 0.5033 0.6218
C18 C -0.0703(9) 0.54246(18) 0.8718(7)
H25 H 0.0508 0.5605 0.9412
H26 H -0.0771 0.5176 0.9553
H27 H -0.1821 0.5638 0.8332
C19 C -0.3871(5) 0.54988(15) 0.1745(6)
H28 H -0.3784 0.5848 0.1723
H29 H -0.4388 0.5411 0.2642
C20 C -0.5185(6) 0.5318(2) -0.0214(7)
H30 H -0.4729 0.5431 -0.1114
H31 H -0.6513 0.5433 -0.0617
H32 H -0.5179 0.4971 -0.0199
Zn2A Zn -0.22657(4) 0.948859(12) 0.54739(4)
N1A N 0.0015(3) 0.42087(9) 0.2125(3)
loop_
_geom_bond_atom_site_label_1
_geom_bond_atom_site_label_2
_geom_bond_site_symmetry_1
_geom_bond_site_symmetry_2
Zn1 Cl1 1_555 1_555
Zn2 Cl3 1_555 1_555
Cl2 Zn1 1_555 1_555
Cl4 Zn2 1_555 1_555
P1 O1 1_555 1_555
P2 O4 1_555 1_555
O1 Zn1 1_555 1_555
O2 P1 1_555 1_555
O3 P1 1_555 1_555
O4 Zn2 1_555 1_555
O5 P2 1_555 1_555
O6 P2 1_555 1_555
N1 C1 1_555 1_555
N2 Zn1 1_555 1_555
C1 H1 1_555 1_555
C2 C1 1_555 1_555
C3 C2 1_555 1_555
H2 C3 1_555 1_555
C4 C3 1_555 1_555
H3 C4 1_555 1_555
C5 N1 1_555 1_555
H4 C5 1_555 1_555
C6 P1 1_555 1_555
H5 C6 1_555 1_555
H6 C6 1_555 1_555
C7 O2 1_555 1_555
H7 C7 1_555 1_555
H8 C7 1_555 1_555
C8 C7 1_555 1_555
H9 C8 1_555 1_555
H10 C8 1_555 1_555
H11 C8 1_555 1_555
C9 O3 1_555 1_555
H12 C9 1_555 1_555
H13 C9 1_555 1_555
C10 C9 1_555 1_555
H14 C10 1_555 1_555
H15 C10 1_555 1_555
H16 C10 1_555 1_555
C11 N2 1_555 1_555
H17 C11 1_555 1_555
C12 C11 1_555 1_555
C13 C12 1_555 1_555
H18 C13 1_555 1_555
C14 C13 1_555 1_555
H19 C14 1_555 1_555
C15 N2 1_555 1_555
H20 C15 1_555 1_555
C16 P2 1_555 1_555
H21 C16 1_555 1_555
H22 C16 1_555 1_555
C17 O5 1_555 1_555
H23 C17 1_555 1_555
H24 C17 1_555 1_555
C18 C17 1_555 1_555
H25 C18 1_555 1_555
H26 C18 1_555 1_555
H27 C18 1_555 1_555
C19 O6 1_555 1_555
H28 C19 1_555 1_555
H29 C19 1_555 1_555
C20 C19 1_555 1_555
H30 C20 1_555 1_555
H31 C20 1_555 1_555
H32 C20 1_555 1_555
Zn2A N1 1_555 1_555
N1A Zn2 1_555 1_555
C2 C6 1_555 1_555
C4 C5 1_555 1_555
C12 C16 1_555 1_555
C14 C15 1_555 1_555

#END
