
#######################################################################
#
#                 Cambridge Crystallographic Data Centre
#                                CCDC 
#
#######################################################################
#
# If this CIF has been generated from an entry in the Cambridge 
# Structural Database, then it will include bibliographic, chemical, 
# crystal, experimental, refinement or atomic coordinate data resulting 
# from the CCDC's data processing and validation procedures.
#
#######################################################################

data_MUCLOM
_symmetry_cell_setting           cubic
_symmetry_space_group_name_H-M   'P -4 3 n'
_symmetry_Int_Tables_number      218
_space_group_name_Hall           'P -4n 2 3'
loop_
_symmetry_equiv_pos_site_id
_symmetry_equiv_pos_as_xyz
1 x,y,z
2 -x,-y,z
3 -x,y,-z
4 x,-y,-z
5 z,x,y
6 z,-x,-y
7 -z,-x,y
8 -z,x,-y
9 y,z,x
10 -y,z,-x
11 y,-z,-x
12 -y,-z,x
13 1/2+y,1/2+x,1/2+z
14 1/2-y,1/2-x,1/2+z
15 1/2+y,1/2-x,1/2-z
16 1/2-y,1/2+x,1/2-z
17 1/2+x,1/2+z,1/2+y
18 1/2-x,1/2+z,1/2-y
19 1/2-x,1/2-z,1/2+y
20 1/2+x,1/2-z,1/2-y
21 1/2+z,1/2+y,1/2+x
22 1/2+z,1/2-y,1/2-x
23 1/2-z,1/2+y,1/2-x
24 1/2-z,1/2-y,1/2+x
_cell_length_a                   16.0311(1)
_cell_length_b                   16.0311(1)
_cell_length_c                   16.0311(1)
_cell_angle_alpha                90
_cell_angle_beta                 90
_cell_angle_gamma                90
_cell_volume                     4119.93
loop_
_atom_site_label
_atom_site_type_symbol
_atom_site_fract_x
_atom_site_fract_y
_atom_site_fract_z
Li1 Li 0.5000 0.2500 0.0000
B1 B 0.2500 0.5000 0.0000
N1 N 0.30612(8) 0.42758(8) 0.03026(8)
N2 N 0.40334(9) 0.32712(9) 0.03154(9)
C1 C 0.37008(10) 0.38929(10) -0.01140(10)
C2 C 0.35971(11) 0.32587(12) 0.10594(12)
H1 H 0.3689 0.2886 0.1494
C3 C 0.30205(11) 0.38656(11) 0.10593(11)
H2 H 0.2656 0.3989 0.1494
C4 C 0.40306(12) 0.41540(13) -0.09506(12)
H3 H 0.4469 0.3782 -0.1117
H4 H 0.4245 0.4712 -0.0915
H5 H 0.3589 0.4135 -0.1354
Li1A Li 0.5000 0.7500 0.0000
Li1D Li 0.0000 0.5000 0.2500
Li1E Li 0.0000 0.5000 -0.2500
N1C N 0.30612(8) 0.57242(8) -0.03026(8)
N1Q N 0.19388(8) 0.53026(8) 0.07242(8)
N1R N 0.19388(8) 0.46974(8) -0.07242(8)
N2C N 0.40334(9) 0.67288(9) -0.03154(9)
N2Q N 0.09666(9) 0.53154(9) 0.17288(9)
N2R N 0.09666(9) 0.46846(9) -0.17288(9)
N2B N 0.59666(9) 0.32712(9) -0.03154(9)
N2U N 0.53154(9) 0.17288(9) 0.09666(9)
N2W N 0.46846(9) 0.17288(9) -0.09666(9)
C1C C 0.37008(10) 0.61071(10) 0.01140(10)
C1Q C 0.12992(10) 0.48860(10) 0.11071(10)
C1R C 0.12992(10) 0.51140(10) -0.11071(10)
C2C C 0.35971(11) 0.67413(12) -0.10594(12)
C2Q C 0.14029(11) 0.60594(12) 0.17413(12)
C2R C 0.14029(11) 0.39406(12) -0.17413(12)
H1C H 0.3689 0.7114 -0.1494
H1Q H 0.1311 0.6494 0.2114
H1R H 0.1311 0.3506 -0.2114
C3C C 0.30205(11) 0.61344(11) -0.10593(11)
C3Q C 0.19795(11) 0.60593(11) 0.11344(11)
C3R C 0.19795(11) 0.39407(11) -0.11344(11)
H2C H 0.2656 0.6011 -0.1494
H2Q H 0.2344 0.6494 0.1011
H2R H 0.2344 0.3506 -0.1011
C4C C 0.40306(12) 0.58460(13) 0.09506(12)
C4Q C 0.09694(12) 0.40494(12) 0.08460(13)
C4R C 0.09694(12) 0.59506(12) -0.08460(13)
H3C H 0.4469 0.6218 0.1117
H3Q H 0.0531 0.3883 0.1218
H3R H 0.0531 0.6117 -0.1218
H4C H 0.4245 0.5288 0.0915
H4Q H 0.0755 0.4085 0.0288
H4R H 0.0755 0.5915 -0.0288
H5C H 0.3589 0.5865 0.1354
H5Q H 0.1411 0.3646 0.0865
H5R H 0.1411 0.6354 -0.0865
loop_
_geom_bond_atom_site_label_1
_geom_bond_atom_site_label_2
_geom_bond_site_symmetry_1
_geom_bond_site_symmetry_2
Li1 N2 1_555 1_555
B1 N1 1_555 1_555
N1 C1 1_555 1_555
N2 C1 1_555 1_555
C1 C4 1_555 1_555
C2 N2 1_555 1_555
H1 C2 1_555 1_555
C3 N1 1_555 1_555
H2 C3 1_555 1_555
C4 H3 1_555 1_555
H4 C4 1_555 1_555
H5 C4 1_555 1_555
Li1A N2C 1_555 1_555
Li1D N2Q 1_555 1_555
Li1E N2R 1_555 1_555
N1C B1 1_555 1_555
N1Q B1 1_555 1_555
N1R B1 1_555 1_555
N2C C1C 1_555 1_555
N2Q C1Q 1_555 1_555
N2R C1R 1_555 1_555
N2B Li1 1_555 1_555
N2U Li1 1_555 1_555
N2W Li1 1_555 1_555
C1C N1C 1_555 1_555
C1Q N1Q 1_555 1_555
C1R N1R 1_555 1_555
C2C N2C 1_555 1_555
C2Q N2Q 1_555 1_555
C2R N2R 1_555 1_555
H1C C2C 1_555 1_555
H1Q C2Q 1_555 1_555
H1R C2R 1_555 1_555
C3C N1C 1_555 1_555
C3Q N1Q 1_555 1_555
C3R N1R 1_555 1_555
H2C C3C 1_555 1_555
H2Q C3Q 1_555 1_555
H2R C3R 1_555 1_555
C4C C1C 1_555 1_555
C4Q C1Q 1_555 1_555
C4R C1R 1_555 1_555
H3C C4C 1_555 1_555
H3Q C4Q 1_555 1_555
H3R C4R 1_555 1_555
H4C C4C 1_555 1_555
H4Q C4Q 1_555 1_555
H4R C4R 1_555 1_555
H5C C4C 1_555 1_555
H5Q C4Q 1_555 1_555
H5R C4R 1_555 1_555
C2 C3 1_555 1_555
C2C C3C 1_555 1_555
C2Q C3Q 1_555 1_555
C2R C3R 1_555 1_555

#END
