
#######################################################################
#
#                 Cambridge Crystallographic Data Centre
#                                CCDC 
#
#######################################################################
#
# If this CIF has been generated from an entry in the Cambridge 
# Structural Database, then it will include bibliographic, chemical, 
# crystal, experimental, refinement or atomic coordinate data resulting 
# from the CCDC's data processing and validation procedures.
#
#######################################################################

data_MUCMII
_symmetry_cell_setting           monoclinic
_symmetry_space_group_name_H-M   'P 21/c'
_symmetry_Int_Tables_number      14
_space_group_name_Hall           '-P 2ybc'
loop_
_symmetry_equiv_pos_site_id
_symmetry_equiv_pos_as_xyz
1 x,y,z
2 -x,1/2+y,1/2-z
3 -x,-y,-z
4 x,1/2-y,1/2+z
_cell_length_a                   7.1382(3)
_cell_length_b                   14.6304(10)
_cell_length_c                   16.3548(11)
_cell_angle_alpha                90
_cell_angle_beta                 99.497(2)
_cell_angle_gamma                90
_cell_volume                     1684.6
loop_
_atom_site_label
_atom_site_type_symbol
_atom_site_fract_x
_atom_site_fract_y
_atom_site_fract_z
Cu1 Cu 0.28932(4) 0.325651(18) 0.190736(16)
Cu2 Cu -0.23038(4) 0.315503(19) 0.176014(18)
Cl1 Cl 0.24485(8) 0.53296(4) 0.52981(3)
Cl2 Cl 0.45824(7) 0.25442(4) 0.10232(3)
Cl3 Cl -0.02833(8) 0.30823(5) 0.09119(4)
Cl4 Cl -0.28700(8) 0.35342(4) 0.29756(3)
N1 N 0.2342(2) 0.21934(12) 0.26170(11)
N2 N 0.2513(2) 0.39020(12) 0.29094(11)
N3 N 0.3222(2) 0.45609(12) 0.15548(11)
C1 C 0.2171(3) 0.13155(15) 0.23827(14)
H1 H 0.2389 0.1155 0.1843
C2 C 0.1690(3) 0.06359(16) 0.28963(15)
H2 H 0.1591 0.0018 0.2715
C3 C 0.1354(3) 0.08689(15) 0.36779(14)
H3 H 0.1017 0.0412 0.4040
C4 C 0.1513(3) 0.17799(15) 0.39329(14)
H4 H 0.1290 0.1954 0.4468
C5 C 0.2005(3) 0.24227(15) 0.33850(13)
C6 C 0.2201(3) 0.34150(15) 0.35659(14)
C7 C 0.2144(3) 0.38350(16) 0.43210(13)
H5 H 0.1916 0.3495 0.4790
C8 C 0.2433(3) 0.47732(16) 0.43638(14)
C9 C 0.2763(3) 0.52786(15) 0.36824(14)
H6 H 0.2956 0.5921 0.3717
C10 C 0.2799(3) 0.48082(15) 0.29516(14)
C11 C 0.3137(3) 0.51967(15) 0.21514(14)
C12 C 0.3271(3) 0.61260(16) 0.19885(14)
H7 H 0.3259 0.6562 0.2418
C13 C 0.3421(3) 0.64063(16) 0.11949(15)
H8 H 0.3487 0.7038 0.1069
C14 C 0.3475(3) 0.57549(16) 0.05881(15)
H9 H 0.3570 0.5933 0.0038
C15 C 0.3389(3) 0.48397(16) 0.07930(14)
H10 H 0.3452 0.4394 0.0376
Cu2_2 Cu 0.76962(4) 0.315503(19) 0.176014(18)
Cl2_2 Cl -0.54176(7) 0.25442(4) 0.10232(3)
loop_
_geom_bond_atom_site_label_1
_geom_bond_atom_site_label_2
_geom_bond_site_symmetry_1
_geom_bond_site_symmetry_2
Cu1 Cl2 1_555 1_555
Cu2 Cl3 1_555 1_555
Cl1 C8 1_555 1_555
Cl2 Cu2_2 1_555 1_555
Cl3 Cu1 1_555 1_555
Cl4 Cu2 1_555 1_555
N1 Cu1 1_555 1_555
N2 Cu1 1_555 1_555
N3 Cu1 1_555 1_555
C1 N1 1_555 1_555
H1 C1 1_555 1_555
C2 C1 1_555 1_555
H2 C2 1_555 1_555
C3 C2 1_555 1_555
H3 C3 1_555 1_555
C4 C3 1_555 1_555
H4 C4 1_555 1_555
C5 N1 1_555 1_555
C6 N2 1_555 1_555
C7 C6 1_555 1_555
H5 C7 1_555 1_555
C8 C7 1_555 1_555
C9 C8 1_555 1_555
H6 C9 1_555 1_555
C10 N2 1_555 1_555
C11 N3 1_555 1_555
C12 C11 1_555 1_555
H7 C12 1_555 1_555
C13 C12 1_555 1_555
H8 C13 1_555 1_555
C14 C13 1_555 1_555
H9 C14 1_555 1_555
C15 N3 1_555 1_555
H10 C15 1_555 1_555
Cl2_2 Cu2 1_555 1_555
C4 C5 1_555 1_555
C5 C6 1_555 1_555
C9 C10 1_555 1_555
C10 C11 1_555 1_555
C14 C15 1_555 1_555

#END
