
#######################################################################
#
#                 Cambridge Crystallographic Data Centre
#                                CCDC 
#
#######################################################################
#
# If this CIF has been generated from an entry in the Cambridge 
# Structural Database, then it will include bibliographic, chemical, 
# crystal, experimental, refinement or atomic coordinate data resulting 
# from the CCDC's data processing and validation procedures.
#
#######################################################################

data_MUCNEE01
_symmetry_cell_setting           monoclinic
_symmetry_space_group_name_H-M   'P 21/n'
_symmetry_Int_Tables_number      14
_space_group_name_Hall           '-P 2yn'
loop_
_symmetry_equiv_pos_site_id
_symmetry_equiv_pos_as_xyz
1 x,y,z
2 1/2-x,1/2+y,1/2-z
3 -x,-y,-z
4 1/2+x,1/2-y,1/2+z
_cell_length_a                   12.5685(4)
_cell_length_b                   12.8944(5)
_cell_length_c                   13.3404(3)
_cell_angle_alpha                90
_cell_angle_beta                 100.285(2)
_cell_angle_gamma                90
_cell_volume                     2127.25
loop_
_atom_site_label
_atom_site_type_symbol
_atom_site_fract_x
_atom_site_fract_y
_atom_site_fract_z
La1 La -0.293090(19) 0.18577(2) 0.229360(18)
La2 La 0.226884(19) 0.23726(2) 0.273823(17)
O1 O -0.0950(2) 0.2089(3) 0.2300(2)
O2 O 0.0458(2) 0.2815(3) 0.1767(2)
O3 O -0.2375(2) 0.3132(3) 0.1052(2)
H1 H -0.281(5) 0.360(5) 0.076(4)
O4 O -0.1353(3) 0.2570(3) -0.0532(2)
H2 H -0.076(5) 0.225(6) -0.048(5)
O5 O -0.2002(3) 0.4279(3) -0.1464(2)
O6 O -0.1326(2) 0.5299(3) -0.0167(2)
O7 O -0.3965(3) 0.0367(3) 0.1532(2)
O8 O -0.4367(3) -0.1037(3) 0.0564(2)
O9 O -0.2313(3) 0.0878(3) 0.0726(2)
H3 H -0.1693 0.1098 0.0498
O10 O -0.3648(3) 0.1273(3) -0.1110(3)
H4 H -0.398(6) 0.138(8) -0.091(6)
O11 O -0.1949(3) 0.0846(3) -0.1861(2)
O12 O -0.1928(3) -0.0840(3) -0.1470(2)
O13 O -0.5973(3) 0.2165(3) 0.2209(2)
O14 O -0.4678(2) 0.2610(3) 0.1351(2)
O15 O -0.7466(2) 0.3192(3) 0.1059(2)
H5 H -0.784(4) 0.373(5) 0.087(4)
O16 O -0.6886(3) 0.2739(3) -0.0824(2)
H6 H -0.657(4) 0.230(5) -0.075(4)
O17 O -0.7080(3) 0.4566(3) -0.1632(2)
O18 O -0.6344(2) 0.5375(3) -0.0208(2)
O19 O -0.3152(3) 0.3716(3) 0.2872(3)
H7 H -0.308(5) 0.419(4) 0.240(4)
H8 H -0.378(3) 0.395(6) 0.303(5)
O20 O -0.4206(3) 0.1514(3) 0.3473(2)
H9 H -0.482(4) 0.186(6) 0.336(6)
H10 H -0.399(4) 0.107(3) 0.400(3)
O21 O 0.0862(3) 0.1467(3) 0.3502(3)
H11 H 0.023(3) 0.136(7) 0.307(5)
H12 H 0.108(6) 0.100(5) 0.398(5)
C1 C -0.0530(3) 0.2730(4) 0.1770(3)
C2 C -0.1283(3) 0.3469(4) 0.1084(3)
H13 H -0.1201 0.4167 0.1378
C3 C -0.0994(3) 0.3499(4) 0.0024(3)
H14 H -0.0205 0.3544 0.0094
C4 C -0.1494(3) 0.4435(4) -0.0588(3)
C5 C -0.3834(3) -0.0220(4) 0.0816(3)
C6 C -0.2916(3) 0.0023(4) 0.0230(3)
H15 H -0.2433 -0.0579 0.0300
C7 C -0.3273(3) 0.0235(4) -0.0920(3)
H16 H -0.3854 -0.0247 -0.1198
C8 C -0.2312(4) 0.0072(4) -0.1472(3)
C9 C -0.5616(3) 0.2666(4) 0.1515(3)
C10 C -0.6411(3) 0.3441(4) 0.0914(3)
H17 H -0.6237 0.4125 0.1221
C11 C -0.6282(3) 0.3521(4) -0.0209(3)
H18 H -0.5517 0.3408 -0.0235
C12 C -0.6601(3) 0.4568(4) -0.0707(3)
La1C La -0.793090(19) 0.31423(2) -0.270640(18)
La2C La -0.273116(19) 0.26274(2) -0.226177(17)
La2B La -0.226884(19) -0.23726(2) -0.273823(17)
La2_2 La -0.773116(19) 0.23726(2) 0.273823(17)
O4C O 0.3647(3) 0.2430(3) 0.4468(2)
H2C H 0.424(5) 0.275(6) 0.452(5)
O5C O 0.2998(3) 0.0721(3) 0.3536(2)
O10C O 0.1352(3) 0.3727(3) 0.3890(3)
H4C H 0.102(6) 0.362(8) 0.409(6)
O11C O 0.3051(3) 0.4154(3) 0.3139(2)
O12B O 0.1928(3) 0.0840(3) 0.1470(2)
O13_2 O 0.4027(3) 0.2165(3) 0.2209(2)
O15_2 O 0.2534(2) 0.3192(3) 0.1059(2)
H5_2 H 0.216(4) 0.373(5) 0.087(4)
O16C O -0.1886(3) 0.2261(3) 0.4176(2)
H6C H -0.157(4) 0.270(5) 0.425(4)
O17C O -0.2080(3) 0.0434(3) 0.3368(2)
O22 O 0.5201(5) 0.4842(7) 0.3291(7)
O23 O 0.4881(8) 0.4056(8) 0.5199(8)
O24? O 0.5578(8) 0.3450(9) 0.4635(6)
loop_
_geom_bond_atom_site_label_1
_geom_bond_atom_site_label_2
_geom_bond_site_symmetry_1
_geom_bond_site_symmetry_2
La1 O1 1_555 1_555
La2 O2 1_555 1_555
O1 C1 1_555 1_555
O2 C1 1_555 1_555
O3 La1 1_555 1_555
H1 O3 1_555 1_555
O4 H2 1_555 1_555
O5 C4 1_555 1_555
O6 C4 1_555 1_555
O7 La1 1_555 1_555
O8 C5 1_555 1_555
O9 La1 1_555 1_555
H3 O9 1_555 1_555
O10 H4 1_555 1_555
O11 C8 1_555 1_555
O12 C8 1_555 1_555
O13 C9 1_555 1_555
O14 La1 1_555 1_555
O15 H5 1_555 1_555
O16 H6 1_555 1_555
O17 C12 1_555 1_555
O18 C12 1_555 1_555
O19 La1 1_555 1_555
H7 O19 1_555 1_555
H8 O19 1_555 1_555
O20 La1 1_555 1_555
H9 O20 1_555 1_555
H10 O20 1_555 1_555
O21 La2 1_555 1_555
H11 O21 1_555 1_555
H12 O21 1_555 1_555
C1 C2 1_555 1_555
C2 O3 1_555 1_555
H13 C2 1_555 1_555
C3 O4 1_555 1_555
H14 C3 1_555 1_555
C4 C3 1_555 1_555
C5 O7 1_555 1_555
C6 O9 1_555 1_555
H15 C6 1_555 1_555
C7 O10 1_555 1_555
H16 C7 1_555 1_555
C8 C7 1_555 1_555
C9 O14 1_555 1_555
C10 O15 1_555 1_555
H17 C10 1_555 1_555
C11 O16 1_555 1_555
H18 C11 1_555 1_555
C12 C11 1_555 1_555
La1C O16 1_555 1_555
La2C O4 1_555 1_555
La2B O12 1_555 1_555
La2_2 O13 1_555 1_555
O4C La2 1_555 1_555
H2C O4C 1_555 1_555
O5C La2 1_555 1_555
O10C La2 1_555 1_555
H4C O10C 1_555 1_555
O11C La2 1_555 1_555
O12B La2 1_555 1_555
O13_2 La2 1_555 1_555
O15_2 La2 1_555 1_555
H5_2 O15_2 1_555 1_555
O16C La1 1_555 1_555
H6C O16C 1_555 1_555
O17C La1 1_555 1_555
O5 La2C 1_555 1_555
O10 La2C 1_555 1_555
O11 La2C 1_555 1_555
O15 La2_2 1_555 1_555
O17 La1C 1_555 1_555
C2 C3 1_555 1_555
C5 C6 1_555 1_555
C6 C7 1_555 1_555
C9 C10 1_555 1_555
C10 C11 1_555 1_555

#END
