
#######################################################################
#
#                 Cambridge Crystallographic Data Centre
#                                CCDC 
#
#######################################################################
#
# If this CIF has been generated from an entry in the Cambridge 
# Structural Database, then it will include bibliographic, chemical, 
# crystal, experimental, refinement or atomic coordinate data resulting 
# from the CCDC's data processing and validation procedures.
#
#######################################################################

data_MUCNII
_symmetry_cell_setting           monoclinic
_symmetry_space_group_name_H-M   'P 21/c'
_symmetry_Int_Tables_number      14
_space_group_name_Hall           '-P 2ybc'
loop_
_symmetry_equiv_pos_site_id
_symmetry_equiv_pos_as_xyz
1 x,y,z
2 -x,1/2+y,1/2-z
3 -x,-y,-z
4 x,1/2-y,1/2+z
_cell_length_a                   5.85690(10)
_cell_length_b                   21.9490(6)
_cell_length_c                   13.4443(3)
_cell_angle_alpha                90
_cell_angle_beta                 100.9700(10)
_cell_angle_gamma                90
_cell_volume                     1696.72
loop_
_atom_site_label
_atom_site_type_symbol
_atom_site_fract_x
_atom_site_fract_y
_atom_site_fract_z
Mn1 Mn 0.5000 0.5000 1.0000
N1 N -0.2343(4) 0.93051(9) 0.59061(18)
N2 N -0.0619(4) 0.81129(10) 0.66487(17)
N3 N 0.5145(4) 0.65254(10) 0.65094(17)
O1 O 0.3310(3) 0.56907(8) 0.89755(15)
O2 O 0.7224(3) 0.49233(8) 0.89150(16)
O3 O 0.8405(5) 0.49443(10) 0.7452(2)
C1 C 0.7204(5) 0.51461(12) 0.8049(2)
C2 C 0.5730(4) 0.56986(11) 0.7718(2)
C3 C 0.3917(4) 0.59230(11) 0.8205(2)
C4 C 0.2764(4) 0.64738(11) 0.77803(19)
C5 C 0.3405(4) 0.67765(12) 0.6954(2)
C6 C 0.6219(5) 0.60158(12) 0.6902(2)
H1 H 0.7396 0.5864 0.6596
C7 C 0.5880(5) 0.68426(14) 0.5672(2)
H2 H 0.6598 0.7242 0.5843
C8 C 0.4488(7) 0.67907(19) 0.4626(3)
H3 H 0.3130 0.6528 0.4524
H4 H 0.4340 0.7151 0.4201
C9 C 0.6811(8) 0.64973(18) 0.4884(3)
H5 H 0.8077 0.6679 0.4615
H6 H 0.6867 0.6057 0.4938
C10 C 0.2352(5) 0.73340(12) 0.6608(2)
H7 H 0.2848 0.7537 0.6080
C11 C 0.0599(4) 0.75889(11) 0.7033(2)
C12 C -0.0075(4) 0.72546(12) 0.7827(2)
C13 C 0.0969(5) 0.67258(12) 0.8194(2)
H8 H 0.0478 0.6529 0.8729
C14 C -0.0074(6) 0.83562(14) 0.5715(2)
H9 H 0.0024 0.8026 0.5246
H10 H 0.1422 0.8560 0.5858
C15 C -0.1954(6) 0.88054(13) 0.5238(2)
H11 H -0.1525 0.8976 0.4633
H12 H -0.3402 0.8585 0.5030
C16 C -0.2797(5) 0.90457(13) 0.6854(2)
H13 H -0.4276 0.8833 0.6716
H14 H -0.2925 0.9375 0.7322
C17 C -0.0913(5) 0.86049(13) 0.7355(2)
H15 H 0.0544 0.8822 0.7556
H16 H -0.1341 0.8433 0.7959
F1 F -0.1920(3) 0.74489(8) 0.82221(15)
Mn1A Mn -0.5000 1.0000 0.5000
Mn1A_2 Mn 1.5000 0.0000 1.5000
N1B N 1.2343(4) 0.06949(9) 1.40939(18)
N1A N 0.2343(4) 0.43051(9) 0.90939(18)
N1C N 0.7657(4) 0.56949(9) 1.09061(18)
N2B N 1.0619(4) 0.18871(10) 1.33513(17)
N3B N 0.4855(4) 0.34746(10) 1.34906(17)
O1B O 0.6690(3) 0.43093(8) 1.10245(15)
O2B O 0.2776(3) 0.50767(8) 1.10850(16)
O3B O 0.1595(5) 0.50557(10) 1.2548(2)
C1B C 0.2796(5) 0.48539(12) 1.1951(2)
C2B C 0.4270(4) 0.43014(11) 1.2282(2)
C3B C 0.6083(4) 0.40770(11) 1.1795(2)
C4B C 0.7236(4) 0.35262(11) 1.22197(19)
C5B C 0.6595(4) 0.32235(12) 1.3046(2)
C6B C 0.3781(5) 0.39842(12) 1.3098(2)
H1B H 0.2604 0.4136 1.3404
C7B C 0.4120(5) 0.31574(14) 1.4328(2)
H2B H 0.3402 0.2758 1.4157
C8B C 0.5512(7) 0.32093(19) 1.5374(3)
H3B H 0.6870 0.3472 1.5476
H4B H 0.5660 0.2849 1.5799
C9B C 0.3189(8) 0.35027(18) 1.5116(3)
H5B H 0.1923 0.3321 1.5385
H6B H 0.3133 0.3943 1.5062
C10B C 0.7648(5) 0.26660(12) 1.3392(2)
H7B H 0.7152 0.2463 1.3920
C11B C 0.9401(4) 0.24111(11) 1.2967(2)
C12B C 1.0075(4) 0.27454(12) 1.2173(2)
C13B C 0.9031(5) 0.32742(12) 1.1806(2)
H8B H 0.9522 0.3471 1.1271
C14B C 1.0074(6) 0.16438(14) 1.4285(2)
H9B H 0.9976 0.1974 1.4754
H10B H 0.8578 0.1440 1.4142
C15B C 1.1954(6) 0.11946(13) 1.4762(2)
H11B H 1.1525 0.1024 1.5367
H12B H 1.3402 0.1415 1.4970
C16B C 1.2797(5) 0.09543(13) 1.3146(2)
H13B H 1.4276 0.1167 1.3284
H14B H 1.2925 0.0625 1.2678
C17B C 1.0913(5) 0.13951(13) 1.2645(2)
H15B H 0.9456 0.1178 1.2444
H16B H 1.1341 0.1567 1.2041
F1B F 1.1920(3) 0.25511(8) 1.17779(15)
O4 O 0.270(3) 0.5198(3) 0.4638(4)
loop_
_geom_bond_atom_site_label_1
_geom_bond_atom_site_label_2
_geom_bond_site_symmetry_1
_geom_bond_site_symmetry_2
Mn1 O1 1_555 1_555
N1 C15 1_555 1_555
N2 C11 1_555 1_555
N3 C5 1_555 1_555
O1 C3 1_555 1_555
O2 Mn1 1_555 1_555
O3 C1 1_555 1_555
C1 O2 1_555 1_555
C2 C1 1_555 1_555
C3 C2 1_555 1_555
C4 C3 1_555 1_555
C5 C4 1_555 1_555
C6 N3 1_555 1_555
H1 C6 1_555 1_555
C7 N3 1_555 1_555
H2 C7 1_555 1_555
C8 C7 1_555 1_555
H3 C8 1_555 1_555
H4 C8 1_555 1_555
C9 C7 1_555 1_555
H5 C9 1_555 1_555
H6 C9 1_555 1_555
C10 C5 1_555 1_555
H7 C10 1_555 1_555
C11 C10 1_555 1_555
C12 C11 1_555 1_555
C13 C4 1_555 1_555
H8 C13 1_555 1_555
C14 N2 1_555 1_555
H9 C14 1_555 1_555
H10 C14 1_555 1_555
C15 C14 1_555 1_555
H11 C15 1_555 1_555
H12 C15 1_555 1_555
C16 N1 1_555 1_555
H13 C16 1_555 1_555
H14 C16 1_555 1_555
C17 N2 1_555 1_555
H15 C17 1_555 1_555
H16 C17 1_555 1_555
F1 C12 1_555 1_555
Mn1A N1 1_555 1_555
Mn1A_2 N1B 1_555 1_555
N1B C15B 1_555 1_555
N1A Mn1 1_555 1_555
N1C Mn1 1_555 1_555
N2B C11B 1_555 1_555
N3B C5B 1_555 1_555
O1B Mn1 1_555 1_555
O2B Mn1 1_555 1_555
O3B C1B 1_555 1_555
C1B O2B 1_555 1_555
C2B C1B 1_555 1_555
C3B O1B 1_555 1_555
C4B C3B 1_555 1_555
C5B C4B 1_555 1_555
C6B N3B 1_555 1_555
H1B C6B 1_555 1_555
C7B N3B 1_555 1_555
H2B C7B 1_555 1_555
C8B C7B 1_555 1_555
H3B C8B 1_555 1_555
H4B C8B 1_555 1_555
C9B C7B 1_555 1_555
H5B C9B 1_555 1_555
H6B C9B 1_555 1_555
C10B C5B 1_555 1_555
H7B C10B 1_555 1_555
C11B C10B 1_555 1_555
C12B C11B 1_555 1_555
C13B C4B 1_555 1_555
H8B C13B 1_555 1_555
C14B N2B 1_555 1_555
H9B C14B 1_555 1_555
H10B C14B 1_555 1_555
C15B C14B 1_555 1_555
H11B C15B 1_555 1_555
H12B C15B 1_555 1_555
C16B N1B 1_555 1_555
H13B C16B 1_555 1_555
H14B C16B 1_555 1_555
C17B N2B 1_555 1_555
H15B C17B 1_555 1_555
H16B C17B 1_555 1_555
F1B C12B 1_555 1_555
C2 C6 1_555 1_555
C8 C9 1_555 1_555
C12 C13 1_555 1_555
C16 C17 1_555 1_555
C2B C3B 1_555 1_555
C2B C6B 1_555 1_555
C8B C9B 1_555 1_555
C12B C13B 1_555 1_555
C16B C17B 1_555 1_555

#END
