
#######################################################################
#
#                 Cambridge Crystallographic Data Centre
#                                CCDC 
#
#######################################################################
#
# If this CIF has been generated from an entry in the Cambridge 
# Structural Database, then it will include bibliographic, chemical, 
# crystal, experimental, refinement or atomic coordinate data resulting 
# from the CCDC's data processing and validation procedures.
#
#######################################################################

data_MUDDUM
_symmetry_cell_setting           monoclinic
_symmetry_space_group_name_H-M   'C 2/c'
_symmetry_Int_Tables_number      15
_space_group_name_Hall           '-C 2yn'
loop_
_symmetry_equiv_pos_site_id
_symmetry_equiv_pos_as_xyz
1 x,y,z
2 -x,y,1/2-z
3 1/2+x,1/2+y,z
4 1/2-x,1/2+y,1/2-z
5 -x,-y,-z
6 x,-y,1/2+z
7 1/2-x,1/2-y,-z
8 1/2+x,1/2-y,1/2+z
_cell_length_a                   6.519(5)
_cell_length_b                   16.698(5)
_cell_length_c                   12.019(5)
_cell_angle_alpha                90
_cell_angle_beta                 90.852(5)
_cell_angle_gamma                90
_cell_volume                     1308.17
loop_
_atom_site_label
_atom_site_type_symbol
_atom_site_fract_x
_atom_site_fract_y
_atom_site_fract_z
Ni1 Ni 1.0000 0.0000 0.5000
Ni2 Ni 0.5000 0.12867(3) 0.7500
C1 C 0.8027(4) 0.02639(16) 0.6043(2)
C2 C 0.8426(4) 0.22353(19) 0.6347(3)
N1 N 0.6828(3) 0.04836(14) 0.6654(2)
N2 N 0.6675(3) 0.22697(13) 0.6906(2)
C3 C 0.5950(4) 0.29952(16) 0.7170(2)
C4 C 1.1817(4) 0.07283(17) 0.5669(2)
C5 C 0.6937(5) 0.36889(18) 0.6855(3)
N3 N 1.2931(3) 0.11329(14) 0.6143(2)
C6 C 0.8723(5) 0.3640(2) 0.6262(3)
C7 C 0.9471(5) 0.29004(19) 0.6008(3)
H1 H 1.062(5) 0.284(2) 0.562(3)
H2 H 0.636(4) 0.4223(19) 0.711(3)
H3 H 0.892(5) 0.171(2) 0.616(3)
H4 H 0.940(5) 0.409(2) 0.608(3)
C2A C 0.1574(4) 0.22353(19) 0.8653(3)
N2A N 0.3325(3) 0.22697(13) 0.8094(2)
C3A C 0.4050(4) 0.29952(16) 0.7830(2)
C5A C 0.3063(5) 0.36889(18) 0.8145(3)
C6A C 0.1277(5) 0.3640(2) 0.8738(3)
C7A C 0.0529(5) 0.29004(19) 0.8992(3)
H1A H -0.062(5) 0.284(2) 0.938(3)
H2A H 0.364(4) 0.4223(19) 0.789(3)
H3A H 0.108(5) 0.171(2) 0.884(3)
H4A H 0.060(5) 0.409(2) 0.892(3)
C1A C 0.1973(4) 0.02639(16) 0.8957(2)
N1A N 0.3172(3) 0.04836(14) 0.8346(2)
C4D C 0.8183(4) -0.07283(17) 0.4331(2)
N3D N 0.7069(3) -0.11329(14) 0.3857(2)
Ni1A Ni 0.0000 0.0000 1.0000
Ni2_2 Ni 1.5000 0.12867(3) 0.7500
Ni2D Ni 0.5000 -0.12867(3) 0.2500
C1D C 1.1973(4) -0.02639(16) 0.3957(2)
N3_2 N 0.2931(3) 0.11329(14) 0.6143(2)
N3A N 0.7069(3) 0.11329(14) 0.8857(2)
loop_
_geom_bond_atom_site_label_1
_geom_bond_atom_site_label_2
_geom_bond_site_symmetry_1
_geom_bond_site_symmetry_2
Ni1 C1 1_555 1_555
Ni2 N1 1_555 1_555
C1 N1 1_555 1_555
C2 N2 1_555 1_555
N2 Ni2 1_555 1_555
C3 N2 1_555 1_555
C4 Ni1 1_555 1_555
C5 C3 1_555 1_555
N3 C4 1_555 1_555
C6 C5 1_555 1_555
C7 C2 1_555 1_555
H1 C7 1_555 1_555
H2 C5 1_555 1_555
H3 C2 1_555 1_555
H4 C6 1_555 1_555
C2A N2A 1_555 1_555
N2A Ni2 1_555 1_555
C3A C3 1_555 1_555
C5A C3A 1_555 1_555
C6A C5A 1_555 1_555
C7A C2A 1_555 1_555
H1A C7A 1_555 1_555
H2A C5A 1_555 1_555
H3A C2A 1_555 1_555
H4A C6A 1_555 1_555
C1A N1A 1_555 1_555
N1A Ni2 1_555 1_555
C4D Ni1 1_555 1_555
N3D C4D 1_555 1_555
Ni1A C1A 1_555 1_555
Ni2_2 N3 1_555 1_555
Ni2D N3D 1_555 1_555
C1D Ni1 1_555 1_555
N3_2 Ni2 1_555 1_555
N3A Ni2 1_555 1_555
C6 C7 1_555 1_555
N2A C3A 1_555 1_555
C6A C7A 1_555 1_555

#END
