
#######################################################################
#
#                 Cambridge Crystallographic Data Centre
#                                CCDC 
#
#######################################################################
#
# If this CIF has been generated from an entry in the Cambridge 
# Structural Database, then it will include bibliographic, chemical, 
# crystal, experimental, refinement or atomic coordinate data resulting 
# from the CCDC's data processing and validation procedures.
#
#######################################################################

data_MUDHAW
_symmetry_cell_setting           triclinic
_symmetry_space_group_name_H-M   'P -1'
_symmetry_Int_Tables_number      2
_space_group_name_Hall           '-P 1'
loop_
_symmetry_equiv_pos_site_id
_symmetry_equiv_pos_as_xyz
1 x,y,z
2 -x,-y,-z
_cell_length_a                   8.4522(7)
_cell_length_b                   8.7814(8)
_cell_length_c                   9.7205(9)
_cell_angle_alpha                93.2820(10)
_cell_angle_beta                 96.0920(10)
_cell_angle_gamma                103.3930(10)
_cell_volume                     695.39
loop_
_atom_site_label
_atom_site_type_symbol
_atom_site_fract_x
_atom_site_fract_y
_atom_site_fract_z
C1 C 0.5190(3) 0.3146(3) 0.7821(2)
H1 H 0.4908 0.3151 0.6871
C2 C 0.6462(3) 0.4341(3) 0.8501(3)
H2 H 0.7025 0.5151 0.8032
C3 C 0.6837(3) 0.4259(3) 0.9896(3)
C4 C 0.5987(3) 0.3073(3) 1.0588(2)
C5 C 0.4713(3) 0.1899(3) 0.9957(2)
H3 H 0.4138 0.1120 1.0448
C6 C 0.4327(3) 0.1946(3) 0.8518(2)
C7 C 0.3004(3) 0.0707(3) 0.7726(2)
C8 C 0.0704(3) -0.0956(3) 0.7088(2)
C9 C 0.1641(3) -0.0859(3) 0.5993(2)
C10 C 0.7946(4) 0.4611(4) 1.2118(3)
H4 H 0.8968 0.4359 1.2458
H5 H 0.7732 0.5385 1.2781
C11 C 0.1321(3) -0.1623(3) 0.4564(2)
C12 C -0.0976(3) -0.1870(3) 0.7185(2)
H6 H -0.0567 -0.2688 0.4868
H7 H 0.4646 -0.2616 0.6479
H8 H 0.5878 -0.2588 0.5962
H9 H -0.1313 0.1968 0.8396
H10 H -0.0090 0.2826 0.9143
Cd1 Cd 0.0000 0.0000 1.0000
Cd2 Cd 0.5000 0.0000 0.5000
N1 N 0.1574(2) 0.0032(2) 0.81798(19)
N2 N 0.3098(2) 0.0188(2) 0.6405(2)
O1 O 0.6652(2) 0.3240(2) 1.19738(17)
O2 O 0.8069(2) 0.5228(2) 1.0808(2)
O3 O -0.1599(2) -0.1765(2) 0.82740(17)
O4 O -0.0080(2) -0.2584(2) 0.41686(18)
O5 O -0.1744(2) -0.2769(2) 0.61074(17)
O6 O 0.2372(2) -0.1314(2) 0.37629(16)
O7 O 0.5080(2) -0.2447(3) 0.5785(2)
O8 O -0.0922(2) 0.2061(2) 0.90766(18)
C1A C -0.5190(3) -0.3146(3) 1.2179(2)
H1A H -0.4908 -0.3151 1.3129
C2A C -0.6462(3) -0.4341(3) 1.1499(3)
H2A H -0.7025 -0.5151 1.1968
C3A C -0.6837(3) -0.4259(3) 1.0104(3)
C4A C -0.5987(3) -0.3073(3) 0.9412(2)
C5A C -0.4713(3) -0.1899(3) 1.0043(2)
H3A H -0.4138 -0.1120 0.9552
C6A C -0.4327(3) -0.1946(3) 1.1482(2)
C7A C -0.3004(3) -0.0707(3) 1.2274(2)
C8A C -0.0704(3) 0.0956(3) 1.2912(2)
C9A C -0.1641(3) 0.0859(3) 1.4007(2)
C10A C -0.7946(4) -0.4611(4) 0.7882(3)
H4A H -0.8968 -0.4359 0.7542
H5A H -0.7732 -0.5385 0.7219
C11A C -0.1321(3) 0.1623(3) 1.5436(2)
C12A C 0.0976(3) 0.1870(3) 1.2815(2)
H6A H 0.0567 0.2688 1.5132
H9A H 0.1313 -0.1968 1.1604
H10A H 0.0090 -0.2826 1.0857
N1A N -0.1574(2) -0.0032(2) 1.18202(19)
N2A N -0.3098(2) -0.0188(2) 1.3595(2)
O1A O -0.6652(2) -0.3240(2) 0.80262(17)
O2A O -0.8069(2) -0.5228(2) 0.9192(2)
O3A O 0.1599(2) 0.1765(2) 1.17260(17)
O4A O 0.0080(2) 0.2584(2) 1.58314(18)
O5A O 0.1744(2) 0.2769(2) 1.38926(17)
O6A O -0.2372(2) 0.1314(2) 1.62371(16)
O8A O 0.0922(2) -0.2061(2) 1.09234(18)
H7A H 0.5354 0.2616 0.3521
H8A H 0.4122 0.2588 0.4038
O7A O 0.4920(2) 0.2447(3) 0.4215(2)
Cd2_2 Cd -0.5000 0.0000 1.5000
N2A_2 N 0.6902(2) -0.0188(2) 0.3595(2)
O6A_2 O 0.7628(2) 0.1314(2) 0.62371(16)
loop_
_geom_bond_atom_site_label_1
_geom_bond_atom_site_label_2
_geom_bond_site_symmetry_1
_geom_bond_site_symmetry_2
C1 H1 1_555 1_555
C2 C1 1_555 1_555
H2 C2 1_555 1_555
C3 C2 1_555 1_555
C4 C3 1_555 1_555
C5 C4 1_555 1_555
H3 C5 1_555 1_555
C6 C1 1_555 1_555
C7 C6 1_555 1_555
C8 C9 1_555 1_555
C9 C11 1_555 1_555
C10 H4 1_555 1_555
H5 C10 1_555 1_555
C11 O4 1_555 1_555
C12 C8 1_555 1_555
H6 O4 1_555 1_555
H7 O7 1_555 1_555
H8 O7 1_555 1_555
H9 O8 1_555 1_555
H10 O8 1_555 1_555
Cd1 N1 1_555 1_555
Cd2 N2 1_555 1_555
N1 C7 1_555 1_555
N2 C7 1_555 1_555
O1 C4 1_555 1_555
O2 C3 1_555 1_555
O3 C12 1_555 1_555
O5 C12 1_555 1_555
O6 C11 1_555 1_555
O7 Cd2 1_555 1_555
O8 Cd1 1_555 1_555
C1A H1A 1_555 1_555
C2A C1A 1_555 1_555
H2A C2A 1_555 1_555
C3A C2A 1_555 1_555
C4A C3A 1_555 1_555
C5A C4A 1_555 1_555
H3A C5A 1_555 1_555
C6A C1A 1_555 1_555
C7A C6A 1_555 1_555
C8A C9A 1_555 1_555
C9A C11A 1_555 1_555
C10A H4A 1_555 1_555
H5A C10A 1_555 1_555
C11A O4A 1_555 1_555
C12A C8A 1_555 1_555
H6A O4A 1_555 1_555
H9A O8A 1_555 1_555
H10A O8A 1_555 1_555
N1A Cd1 1_555 1_555
N2A C7A 1_555 1_555
O1A C4A 1_555 1_555
O2A C3A 1_555 1_555
O3A Cd1 1_555 1_555
O5A C12A 1_555 1_555
O6A C11A 1_555 1_555
O8A Cd1 1_555 1_555
H7A O7A 1_555 1_555
H8A O7A 1_555 1_555
O7A Cd2 1_555 1_555
Cd2_2 N2A 1_555 1_555
N2A_2 Cd2 1_555 1_555
O6A_2 Cd2 1_555 1_555
C5 C6 1_555 1_555
C8 N1 1_555 1_555
C9 N2 1_555 1_555
C10 O1 1_555 1_555
C10 O2 1_555 1_555
Cd1 O3 1_555 1_555
Cd2 O6 1_555 1_555
C5A C6A 1_555 1_555
C7A N1A 1_555 1_555
C8A N1A 1_555 1_555
C9A N2A 1_555 1_555
C10A O1A 1_555 1_555
C10A O2A 1_555 1_555
C12A O3A 1_555 1_555
O6A Cd2_2 1_555 1_555

#END
