
#######################################################################
#
#                 Cambridge Crystallographic Data Centre
#                                CCDC 
#
#######################################################################
#
# If this CIF has been generated from an entry in the Cambridge 
# Structural Database, then it will include bibliographic, chemical, 
# crystal, experimental, refinement or atomic coordinate data resulting 
# from the CCDC's data processing and validation procedures.
#
#######################################################################

data_MUDLII
_symmetry_cell_setting           monoclinic
_symmetry_space_group_name_H-M   'P 21/n'
_symmetry_Int_Tables_number      14
_space_group_name_Hall           '-P 2yn'
loop_
_symmetry_equiv_pos_site_id
_symmetry_equiv_pos_as_xyz
1 x,y,z
2 1/2-x,1/2+y,1/2-z
3 -x,-y,-z
4 1/2+x,1/2-y,1/2+z
_cell_length_a                   8.949(4)
_cell_length_b                   20.620(9)
_cell_length_c                   10.945(5)
_cell_angle_alpha                90
_cell_angle_beta                 103.642(5)
_cell_angle_gamma                90
_cell_volume                     1962.69
loop_
_atom_site_label
_atom_site_type_symbol
_atom_site_fract_x
_atom_site_fract_y
_atom_site_fract_z
Ni1 Ni 0.86398(2) 0.382452(10) 0.128553(19)
O1 O 1.28328(14) 0.17948(6) -0.24359(11)
O2 O 0.78061(17) 0.36002(7) -0.50685(12)
H1 H 0.7911 0.3438 -0.5727
O3 O 0.90276(14) 0.40143(6) -0.04458(11)
O4 O 1.16414(15) 0.17575(6) -0.44248(11)
N1 N 0.58581(17) 0.54753(7) 0.14545(14)
O5 O 0.98312(16) 0.30677(6) 0.03613(11)
C1 C 0.95346(19) 0.34499(8) -0.05521(15)
C2 C 1.1764(2) 0.19934(8) -0.33521(15)
N2 N 0.74276(18) 0.58351(8) 0.58577(15)
C3 C 0.6699(2) 0.63289(11) 0.37506(18)
H2 H 0.7418 0.6028 0.3520
H3 H 0.7249 0.6729 0.4022
N3 N 0.94523(17) 0.58584(7) 0.74469(14)
C4 C 0.8762(2) 0.35231(8) -0.28814(16)
H4 H 0.8143 0.3873 -0.2787
N4 N 0.73870(16) 0.46664(7) 0.12510(13)
C5 C 0.9705(2) 0.27862(8) -0.42168(16)
H5 H 0.9693 0.2627 -0.5014
C6 C 0.5412(2) 0.64690(9) 0.25937(18)
H6 H 0.4607 0.6707 0.2856
H7 H 0.5814 0.6747 0.2031
C7 C 0.62610(19) 0.48554(8) 0.17707(15)
C8 C 0.8050(3) 0.69109(10) 0.6912(2)
H8 H 0.8970 0.7107 0.7402
H9 H 0.7769 0.7116 0.6103
H10 H 0.7233 0.6963 0.7336
C9 C 1.06762(19) 0.25098(8) -0.31593(15)
C10 C 0.96791(19) 0.32321(8) -0.18269(15)
C11 C 1.06517(19) 0.27253(8) -0.19613(15)
H11 H 1.1280 0.2532 -0.1256
C12 C 0.8758(2) 0.32985(9) -0.40780(16)
C13 C 0.4708(2) 0.58715(9) 0.18709(17)
H12 H 0.4216 0.5611 0.2402
H13 H 0.3923 0.6005 0.1143
C14 C 0.8323(2) 0.62100(9) 0.67507(17)
C15 C 0.6139(2) 0.60479(11) 0.48380(18)
H14 H 0.5545 0.6373 0.5157
H15 H 0.5470 0.5682 0.4545
C16 C 0.7695(2) 0.51925(9) 0.05646(18)
H16 H 0.8432 0.5201 0.0091
C17 C 0.5502(3) 0.44472(10) 0.2564(2)
H17 H 0.5973 0.4026 0.2668
H18 H 0.4430 0.4404 0.2165
H19 H 0.5611 0.4648 0.3372
C18 C 0.6771(2) 0.56881(9) 0.06864(18)
H20 H 0.6751 0.6096 0.0322
C19 C 0.8021(3) 0.52201(10) 0.5991(2)
H21 H 0.7646 0.4861 0.5500
C20 C 0.9254(3) 0.52379(10) 0.6972(2)
H22 H 0.9877 0.4885 0.7281
Ni1B Ni 1.13602(2) 0.617548(10) 0.871447(19)
Ni1C Ni 1.36398(2) 0.117548(10) -0.371447(19)
O1C O 0.78328(14) 0.32052(6) 0.25641(11)
O4C O 0.66414(15) 0.32425(6) 0.05752(11)
N3B N 1.05477(17) 0.41416(7) 0.25531(14)
loop_
_geom_bond_atom_site_label_1
_geom_bond_atom_site_label_2
_geom_bond_site_symmetry_1
_geom_bond_site_symmetry_2
Ni1 O3 1_555 1_555
O1 C2 1_555 1_555
O2 H1 1_555 1_555
O3 C1 1_555 1_555
O4 C2 1_555 1_555
N1 C7 1_555 1_555
O5 Ni1 1_555 1_555
C1 O5 1_555 1_555
C2 C9 1_555 1_555
N2 C14 1_555 1_555
C3 H2 1_555 1_555
H3 C3 1_555 1_555
N3 C14 1_555 1_555
C4 H4 1_555 1_555
N4 Ni1 1_555 1_555
C5 H5 1_555 1_555
C6 C3 1_555 1_555
H6 C6 1_555 1_555
H7 C6 1_555 1_555
C7 N4 1_555 1_555
C8 H8 1_555 1_555
H9 C8 1_555 1_555
H10 C8 1_555 1_555
C9 C5 1_555 1_555
C10 C1 1_555 1_555
C11 C9 1_555 1_555
H11 C11 1_555 1_555
C12 O2 1_555 1_555
C13 N1 1_555 1_555
H12 C13 1_555 1_555
H13 C13 1_555 1_555
C14 C8 1_555 1_555
C15 N2 1_555 1_555
H14 C15 1_555 1_555
H15 C15 1_555 1_555
C16 N4 1_555 1_555
H16 C16 1_555 1_555
C17 C7 1_555 1_555
H17 C17 1_555 1_555
H18 C17 1_555 1_555
H19 C17 1_555 1_555
C18 N1 1_555 1_555
H20 C18 1_555 1_555
C19 N2 1_555 1_555
H21 C19 1_555 1_555
C20 N3 1_555 1_555
H22 C20 1_555 1_555
Ni1B N3 1_555 1_555
Ni1C O1 1_555 1_555
O1C Ni1 1_555 1_555
O4C Ni1 1_555 1_555
N3B Ni1 1_555 1_555
O4 Ni1C 1_555 1_555
C3 C15 1_555 1_555
C4 C10 1_555 1_555
C4 C12 1_555 1_555
C5 C12 1_555 1_555
C6 C13 1_555 1_555
C10 C11 1_555 1_555
C16 C18 1_555 1_555
C19 C20 1_555 1_555

#END
