
#######################################################################
#
#                 Cambridge Crystallographic Data Centre
#                                CCDC 
#
#######################################################################
#
# If this CIF has been generated from an entry in the Cambridge 
# Structural Database, then it will include bibliographic, chemical, 
# crystal, experimental, refinement or atomic coordinate data resulting 
# from the CCDC's data processing and validation procedures.
#
#######################################################################

data_MUDLON
_symmetry_cell_setting           orthorhombic
_symmetry_space_group_name_H-M   'I m m a'
_symmetry_Int_Tables_number      74
_space_group_name_Hall           '-I 2b 2'
loop_
_symmetry_equiv_pos_site_id
_symmetry_equiv_pos_as_xyz
1 x,y,z
2 -x,1/2-y,z
3 x,-y,-z
4 -x,1/2+y,-z
5 1/2+x,1/2+y,1/2+z
6 1/2-x,-y,1/2+z
7 1/2+x,1/2-y,1/2-z
8 1/2-x,y,1/2-z
9 -x,-y,-z
10 x,1/2+y,-z
11 -x,y,z
12 x,1/2-y,z
13 1/2-x,1/2-y,1/2-z
14 1/2+x,y,1/2-z
15 1/2-x,1/2+y,1/2+z
16 1/2+x,-y,1/2+z
_cell_length_a                   25.16(2)
_cell_length_b                   36.592(18)
_cell_length_c                   15.7272(18)
_cell_angle_alpha                90
_cell_angle_beta                 90
_cell_angle_gamma                90
_cell_volume                     14479.3
loop_
_atom_site_label
_atom_site_type_symbol
_atom_site_fract_x
_atom_site_fract_y
_atom_site_fract_z
C1 C 0.28885(19) 0.10066(15) 0.0468(4)
C2 C 0.31264(19) 0.06817(14) 0.0656(3)
H1 H 0.3014 0.0548 0.1125
C3 C 0.35343(19) 0.05500(15) 0.0150(4)
H2 H 0.3690 0.0327 0.0286
C4 C 0.3713(2) 0.07368(18) -0.0538(4)
C5 C 0.3460(2) 0.10687(16) -0.0737(4)
H3 H 0.3567 0.1200 -0.1213
C6 C 0.3052(2) 0.12023(18) -0.0227(4)
H4 H 0.2890 0.1424 -0.0358
C7 C 0.4140(2) 0.06179(19) -0.1123(5)
C8 C 0.2046(2) 0.09049(16) 0.1257(5)
C9 C 0.1870(2) 0.06516(18) 0.0692(4)
H5 H 0.2010 0.0643 0.0145
C10 C 0.1475(2) 0.04025(16) 0.0943(4)
H6 H 0.1379 0.0212 0.0581
C11 C 0.12276(19) 0.04383(17) 0.1724(4)
C12 C 0.13999(19) 0.07154(16) 0.2265(4)
H7 H 0.1241 0.0742 0.2796
C13 C 0.1802(2) 0.09520(16) 0.2029(4)
H8 H 0.1906 0.1140 0.2389
C14 C 0.0783(2) 0.01977(17) 0.2039(6)
C15 C 0.2452(2) 0.15275(16) 0.1138(4)
C16 C 0.2900(2) 0.17219(16) 0.1317(5)
H9 H 0.3222 0.1600 0.1372
C17 C 0.2883(2) 0.20953(19) 0.1419(4)
H10 H 0.3193 0.2217 0.1575
C18 C 0.2420(3) 0.22988(15) 0.1297(4)
C19 C 0.1973(3) 0.21040(18) 0.1165(5)
H11 H 0.1650 0.2227 0.1149
C20 C 0.1974(3) 0.17130(17) 0.1047(5)
H12 H 0.1662 0.1588 0.0915
Mg1 Mg 0.5000 0.00513(7) -0.16388(15)
N1 N 0.24640(16) 0.11443(12) 0.0984(3)
O1 O 0.05951(13) 0.02194(11) 0.2735(3)
O2 O 0.06352(17) -0.00272(16) 0.1433(3)
O3 O 0.44082(12) 0.03320(11) -0.0910(2)
O4 O 0.4209(2) 0.07906(15) -0.1796(4)
O5 O 0.5000 0.04776(13) -0.2536(3)
O6 O 0.5000 -0.03321(12) -0.0653(3)
C1K C 0.28885(19) 0.39934(15) 0.0468(4)
C2K C 0.31264(19) 0.43183(14) 0.0656(3)
H1K H 0.3014 0.4452 0.1125
C3K C 0.35343(19) 0.44500(15) 0.0150(4)
H2K H 0.3690 0.4673 0.0286
C4K C 0.3713(2) 0.42632(18) -0.0538(4)
C5K C 0.3460(2) 0.39313(16) -0.0737(4)
H3K H 0.3567 0.3800 -0.1213
C6K C 0.3052(2) 0.37977(18) -0.0227(4)
H4K H 0.2890 0.3576 -0.0358
C7K C 0.4140(2) 0.43821(19) -0.1123(5)
C8K C 0.2046(2) 0.40951(16) 0.1257(5)
C9K C 0.1870(2) 0.43484(18) 0.0692(4)
H5K H 0.2010 0.4357 0.0145
C10K C 0.1475(2) 0.45975(16) 0.0943(4)
H6K H 0.1379 0.4788 0.0581
C11K C 0.12276(19) 0.45617(17) 0.1724(4)
C12K C 0.13999(19) 0.42846(16) 0.2265(4)
H7K H 0.1241 0.4258 0.2796
C13K C 0.1802(2) 0.40480(16) 0.2029(4)
H8K H 0.1906 0.3860 0.2389
C14K C 0.0783(2) 0.48023(17) 0.2039(6)
C15K C 0.2452(2) 0.34725(16) 0.1138(4)
C16K C 0.2900(2) 0.32781(16) 0.1317(5)
H9K H 0.3222 0.3400 0.1372
C17K C 0.2883(2) 0.29047(19) 0.1419(4)
H10K H 0.3193 0.2783 0.1575
C18K C 0.2420(3) 0.27012(15) 0.1297(4)
C19K C 0.1973(3) 0.28960(18) 0.1165(5)
H11K H 0.1650 0.2773 0.1149
C20K C 0.1974(3) 0.32870(17) 0.1047(5)
H12K H 0.1662 0.3412 0.0915
Mg1E Mg 0.0000 -0.00513(7) 0.33612(15)
Mg1A Mg 0.5000 0.49487(7) -0.16388(15)
Mg1D Mg 0.0000 0.50513(7) 0.33612(15)
N1K N 0.24640(16) 0.38557(12) 0.0984(3)
O1K O 0.05951(13) 0.47806(11) 0.2735(3)
O1E O 0.44049(13) -0.02194(11) -0.2265(3)
O1O O 0.55951(13) -0.02194(11) -0.2265(3)
O2K O 0.06352(17) 0.50272(16) 0.1433(3)
O3K O 0.44082(12) 0.46680(11) -0.0910(2)
O3J O 0.55918(12) 0.03320(11) -0.0910(2)
O4K O 0.4209(2) 0.42094(15) -0.1796(4)
loop_
_geom_bond_atom_site_label_1
_geom_bond_atom_site_label_2
_geom_bond_site_symmetry_1
_geom_bond_site_symmetry_2
C1 C2 1_555 1_555
C2 H1 1_555 1_555
C3 C2 1_555 1_555
H2 C3 1_555 1_555
C4 C3 1_555 1_555
C5 C4 1_555 1_555
H3 C5 1_555 1_555
C6 C1 1_555 1_555
H4 C6 1_555 1_555
C7 C4 1_555 1_555
C8 C9 1_555 1_555
C9 H5 1_555 1_555
C10 C9 1_555 1_555
H6 C10 1_555 1_555
C11 C10 1_555 1_555
C12 C11 1_555 1_555
H7 C12 1_555 1_555
C13 C8 1_555 1_555
H8 C13 1_555 1_555
C14 C11 1_555 1_555
C15 C16 1_555 1_555
C16 H9 1_555 1_555
C17 C16 1_555 1_555
H10 C17 1_555 1_555
C18 C17 1_555 1_555
C19 C18 1_555 1_555
H11 C19 1_555 1_555
C20 C15 1_555 1_555
H12 C20 1_555 1_555
Mg1 O3 1_555 1_555
N1 C1 1_555 1_555
O1 C14 1_555 1_555
O2 C14 1_555 1_555
O3 C7 1_555 1_555
O4 C7 1_555 1_555
O5 Mg1 1_555 1_555
O6 Mg1 1_555 1_555
C1K C2K 1_555 1_555
C2K H1K 1_555 1_555
C3K C2K 1_555 1_555
H2K C3K 1_555 1_555
C4K C3K 1_555 1_555
C5K C4K 1_555 1_555
H3K C5K 1_555 1_555
C6K C1K 1_555 1_555
H4K C6K 1_555 1_555
C7K C4K 1_555 1_555
C8K C9K 1_555 1_555
C9K H5K 1_555 1_555
C10K C9K 1_555 1_555
H6K C10K 1_555 1_555
C11K C10K 1_555 1_555
C12K C11K 1_555 1_555
H7K C12K 1_555 1_555
C13K C8K 1_555 1_555
H8K C13K 1_555 1_555
C14K C11K 1_555 1_555
C15K C16K 1_555 1_555
C16K H9K 1_555 1_555
C17K C16K 1_555 1_555
H10K C17K 1_555 1_555
C18K C18 1_555 1_555
C19K C18K 1_555 1_555
H11K C19K 1_555 1_555
C20K C15K 1_555 1_555
H12K C20K 1_555 1_555
Mg1E O1 1_555 1_555
Mg1A O3K 1_555 1_555
Mg1D O1K 1_555 1_555
N1K C1K 1_555 1_555
O1K C14K 1_555 1_555
O1E Mg1 1_555 1_555
O1O Mg1 1_555 1_555
O2K C14K 1_555 1_555
O3K C7K 1_555 1_555
O3J Mg1 1_555 1_555
O4K C7K 1_555 1_555
C5 C6 1_555 1_555
C8 N1 1_555 1_555
C12 C13 1_555 1_555
C15 N1 1_555 1_555
C19 C20 1_555 1_555
C5K C6K 1_555 1_555
C8K N1K 1_555 1_555
C12K C13K 1_555 1_555
C15K N1K 1_555 1_555
C17K C18K 1_555 1_555
C19K C20K 1_555 1_555

#END
