
#######################################################################
#
#                 Cambridge Crystallographic Data Centre
#                                CCDC 
#
#######################################################################
#
# If this CIF has been generated from an entry in the Cambridge 
# Structural Database, then it will include bibliographic, chemical, 
# crystal, experimental, refinement or atomic coordinate data resulting 
# from the CCDC's data processing and validation procedures.
#
#######################################################################

data_MUFHUR
_symmetry_cell_setting           monoclinic
_symmetry_space_group_name_H-M   'P 21/c'
_symmetry_Int_Tables_number      14
_space_group_name_Hall           '-P 2ybc'
loop_
_symmetry_equiv_pos_site_id
_symmetry_equiv_pos_as_xyz
1 x,y,z
2 -x,1/2+y,1/2-z
3 -x,-y,-z
4 x,1/2-y,1/2+z
_cell_length_a                   8.3577(17)
_cell_length_b                   17.593(4)
_cell_length_c                   7.9841(16)
_cell_angle_alpha                90
_cell_angle_beta                 109.49(3)
_cell_angle_gamma                90
_cell_volume                     1106.69
loop_
_atom_site_label
_atom_site_type_symbol
_atom_site_fract_x
_atom_site_fract_y
_atom_site_fract_z
Nd1 Nd 0.28183(9) 0.52212(4) 0.25871(9)
O1 O 0.0167(17) 0.4808(7) 0.3327(19)
H1 H -0.0013 0.4986 0.4238
H2 H -0.0526 0.4492 0.2660
O2 O 0.2555(16) 0.6035(7) 0.5027(15)
H3 H 0.33(2) 0.634(10) 0.52(2)
H4 H 0.31(2) 0.589(9) 0.61(2)
O3 O 0.2977(15) 0.5409(8) -0.0497(15)
O4 O 0.4779(14) 0.5431(7) -0.2005(15)
O5 O 0.6089(15) 0.5656(7) 0.4915(16)
O6 O 0.4686(17) 0.6325(8) 0.2603(18)
O7 O 0.8492(15) 0.9167(7) 0.4172(18)
C1 C 0.436(2) 0.5255(8) -0.071(2)
C2 C 0.5869(18) 0.6250(9) 0.393(2)
C3 C 0.7200(17) 0.6846(8) 0.4503(18)
C4 C 0.7182(16) 0.7626(8) 0.4133(17)
H5 H 0.6272 0.7898 0.3377
C5 C 0.8717(18) 0.7910(9) 0.5066(17)
C6 C 0.9411(19) 0.8689(9) 0.517(2)
N1 N 0.8744(17) 0.6708(7) 0.579(2)
H6 H 0.9059 0.6280 0.6324
O8 O 1.0818(15) 0.8809(7) 0.6260(17)
N2 N 0.9670(19) 0.7340(8) 0.6095(18)
Nd1B Nd 0.71817(9) 0.47788(4) -0.25871(9)
Nd1B_2 Nd 0.71817(9) 0.47788(4) 0.74129(9)
Nd1A Nd 0.71817(9) 1.02212(4) 0.24129(9)
Nd1C Nd 1.28183(9) 0.97788(4) 0.75871(9)
Nd1A_2 Nd 0.71817(9) 0.02212(4) 0.24129(9)
Nd1C_2 Nd 0.28183(9) -0.02212(4) -0.24129(9)
Nd1B_3 Nd -0.28183(9) 0.47788(4) -0.25871(9)
O1B O 0.9833(17) 0.5192(7) -0.3327(19)
H1B H 1.0013 0.5014 -0.4238
H2B H 1.0526 0.5508 -0.2660
O2B O 0.7445(16) 0.3965(7) -0.5027(15)
H3B H 0.67(2) 0.366(10) -0.52(2)
H4B H 0.69(2) 0.411(9) -0.61(2)
O3B O 0.7023(15) 0.4591(8) 0.0497(15)
O4B O 0.5221(14) 0.4569(7) 0.2005(15)
O5A O 0.3911(15) 0.0656(7) 0.0085(16)
O5B O 0.3911(15) 0.4344(7) 0.5085(16)
O5B_2 O 0.3911(15) 0.4344(7) -0.4915(16)
O5_2 O 0.6089(15) 0.5656(7) -0.5085(16)
O6A O 0.5314(17) 0.1325(8) 0.2397(18)
O6B O 0.5314(17) 0.3675(8) -0.2603(18)
O7A O 0.1508(15) 0.4167(7) 0.0828(18)
O7C O 0.8492(15) 0.5833(7) -0.0828(18)
C1B C 0.564(2) 0.4745(8) 0.071(2)
C2A C 0.4131(18) 0.1250(9) 0.107(2)
C3A C 0.2800(17) 0.1846(8) 0.0497(18)
C4A C 0.2818(16) 0.2626(8) 0.0867(17)
H5A H 0.3728 0.2898 0.1623
C5A C 0.1283(18) 0.2910(9) -0.0066(17)
C6A C 0.0589(19) 0.3689(9) -0.017(2)
N1A N 0.1256(17) 0.1708(7) -0.079(2)
H6A H 0.0941 0.1280 -0.1324
O8A O -0.0818(15) 0.3809(7) -0.1260(17)
O8C O 0.0818(15) 0.6191(7) 0.1260(17)
O8A_2 O 0.9182(15) 0.3809(7) -0.1260(17)
N2A N 0.0330(19) 0.2340(8) -0.1095(18)
O9 O 0.2770(19) 0.7638(9) 0.447(2)
H7 H 0.2244 0.8005 0.3829
H8 H 0.2229 0.7312 0.4858
loop_
_geom_bond_atom_site_label_1
_geom_bond_atom_site_label_2
_geom_bond_site_symmetry_1
_geom_bond_site_symmetry_2
Nd1 O1 1_555 1_555
O1 H1 1_555 1_555
H2 O1 1_555 1_555
O2 Nd1 1_555 1_555
H3 O2 1_555 1_555
H4 O2 1_555 1_555
O3 Nd1 1_555 1_555
O4 C1 1_555 1_555
O5 Nd1 1_555 1_555
O6 Nd1 1_555 1_555
O7 C6 1_555 1_555
C1 O3 1_555 1_555
C2 O5 1_555 1_555
C3 C2 1_555 1_555
C4 C3 1_555 1_555
H5 C4 1_555 1_555
C5 C4 1_555 1_555
C6 C5 1_555 1_555
N1 C3 1_555 1_555
H6 N1 1_555 1_555
O8 C6 1_555 1_555
N2 C5 1_555 1_555
O9 H7 1_555 1_555
H8 O9 1_555 1_555
Nd1B O4 1_555 1_555
Nd1B_2 O5 1_555 1_555
Nd1A O7 1_555 1_555
Nd1C O8 1_555 1_555
Nd1A_2 O5A 1_555 1_555
Nd1C_2 O5A 1_555 1_555
Nd1B_3 O8A 1_555 1_555
O1B Nd1B 1_555 1_555
H1B O1B 1_555 1_555
H2B O1B 1_555 1_555
O2B Nd1B 1_555 1_555
H3B O2B 1_555 1_555
H4B O2B 1_555 1_555
O3B Nd1B 1_555 1_555
O4B Nd1 1_555 1_555
O5A C2A 1_555 1_555
O5B Nd1 1_555 1_555
O5B_2 Nd1B 1_555 1_555
O5_2 Nd1B 1_555 1_555
O6A Nd1A_2 1_555 1_555
O6B Nd1B 1_555 1_555
O7A Nd1 1_555 1_555
O7C Nd1B 1_555 1_555
C1B C1 1_555 1_555
C2A O6A 1_555 1_555
C3A C2A 1_555 1_555
C4A C3A 1_555 1_555
H5A C4A 1_555 1_555
C5A C4A 1_555 1_555
C6A O7A 1_555 1_555
N1A C3A 1_555 1_555
H6A N1A 1_555 1_555
O8A C6A 1_555 1_555
O8C Nd1 1_555 1_555
O8A_2 Nd1B 1_555 1_555
N2A C5A 1_555 1_555
O6 C2 1_555 1_555
N1 N2 1_555 1_555
Nd1B_2 O5B 1_555 1_555
O3B C1B 1_555 1_555
O4B C1B 1_555 1_555
C5A C6A 1_555 1_555
N1A N2A 1_555 1_555

#END
