
#######################################################################
#
#                 Cambridge Crystallographic Data Centre
#                                CCDC 
#
#######################################################################
#
# If this CIF has been generated from an entry in the Cambridge 
# Structural Database, then it will include bibliographic, chemical, 
# crystal, experimental, refinement or atomic coordinate data resulting 
# from the CCDC's data processing and validation procedures.
#
#######################################################################

data_MUFJED
_symmetry_cell_setting           monoclinic
_symmetry_space_group_name_H-M   'P 21/c'
_symmetry_Int_Tables_number      14
_space_group_name_Hall           '-P 2ybc'
loop_
_symmetry_equiv_pos_site_id
_symmetry_equiv_pos_as_xyz
1 x,y,z
2 -x,1/2+y,1/2-z
3 -x,-y,-z
4 x,1/2-y,1/2+z
_cell_length_a                   8.2610(8)
_cell_length_b                   17.3239(16)
_cell_length_c                   7.7664(7)
_cell_angle_alpha                90
_cell_angle_beta                 108.0560(10)
_cell_angle_gamma                90
_cell_volume                     1056.74
loop_
_atom_site_label
_atom_site_type_symbol
_atom_site_fract_x
_atom_site_fract_y
_atom_site_fract_z
Er1 Er 0.22516(9) 0.02237(4) 0.25034(10)
C1 C 0.440(2) -0.3715(10) 0.018(2)
C2 C 0.377(2) -0.2914(10) 0.013(2)
C3 C 0.220(2) -0.2607(10) -0.085(2)
H1 H 0.1292 -0.2874 -0.1636
C4 C 0.226(2) -0.1832(10) -0.045(2)
C5 C 0.102(2) -0.1192(10) -0.091(2)
C6 C -0.062(2) -0.0260(10) 0.428(2)
N1 N 0.385(2) -0.1687(9) 0.079(2)
N2 N 0.4722(19) -0.2346(8) 0.108(2)
O1 O 0.3464(17) -0.4212(8) -0.0725(18)
O2 O 0.5923(16) -0.3814(7) 0.1255(17)
O3 O -0.0259(16) -0.1248(7) -0.2286(18)
O4 O 0.1324(15) -0.0606(7) 0.0104(15)
O5 O -0.0139(16) -0.0424(7) 0.2939(15)
O6 O 0.1986(14) 0.0455(7) 0.5476(15)
O7 O 0.4841(16) -0.0158(7) 0.1768(17)
H2 H 0.5025 -0.0631 0.1606
H3 H 0.5548 0.0184 0.1677
O9 O 0.2420(16) 0.0999(7) 0.0050(16)
H6 H 0.3244 0.0942 -0.0376
H7 H 0.1656 0.1335 -0.0404
Er1A Er 0.77484(9) -0.47763(4) 0.24966(10)
Er1B Er -0.22516(9) -0.02237(4) -0.25034(10)
Er1C Er 0.22516(9) -0.52237(4) -0.24966(10)
Er1A_2 Er -0.22516(9) -0.47763(4) 0.24966(10)
Er1B_2 Er 0.77484(9) -0.02237(4) 0.74966(10)
Er1B_3 Er -0.22516(9) -0.02237(4) 0.74966(10)
Er1C_2 Er 0.22516(9) -0.52237(4) 0.75034(10)
C1C C 0.440(2) -0.1285(10) 0.518(2)
C2C C 0.377(2) -0.2086(10) 0.513(2)
C3C C 0.220(2) -0.2393(10) 0.415(2)
H1C H 0.1292 -0.2126 0.3364
C4C C 0.226(2) -0.3168(10) 0.455(2)
C5C C 0.102(2) -0.3808(10) 0.409(2)
C6B C 0.062(2) 0.0260(10) 0.572(2)
N1C N 0.385(2) -0.3313(9) 0.579(2)
N2C N 0.4722(19) -0.2654(8) 0.608(2)
O1C O 0.3464(17) -0.0788(8) 0.4275(18)
O1A O -0.3464(17) 0.0788(8) 0.5725(18)
O2A O 0.4077(16) 0.1186(7) 0.3745(17)
O2C O 0.5923(16) -0.1186(7) 0.6255(17)
O2C_2 O -0.4077(16) -0.1186(7) 0.6255(17)
O3B O 0.0259(16) 0.1248(7) 0.2286(18)
O3C O -0.0259(16) -0.3752(7) 0.2714(18)
O3_2 O -0.0259(16) -0.1248(7) 0.7714(18)
O4C O 0.1324(15) -0.4394(7) 0.5104(15)
O4B O -0.1324(15) 0.0606(7) 0.9896(15)
O5B O 0.0139(16) 0.0424(7) 0.7061(15)
O6B O -0.1986(14) -0.0455(7) 0.4524(15)
O7B O -0.4841(16) 0.0158(7) 0.8232(17)
H2B H -0.5025 0.0631 0.8394
H3B H -0.5548 -0.0184 0.8323
O9B O -0.2420(16) -0.0999(7) 0.9950(16)
H6B H -0.3244 -0.0942 1.0376
H7B H -0.1656 -0.1335 1.0404
O8 O 0.219(2) -0.7394(10) -0.943(2)
H4 H 0.2491 -0.7153 -1.0234
H5 H 0.2156 -0.7884 -0.9441
loop_
_geom_bond_atom_site_label_1
_geom_bond_atom_site_label_2
_geom_bond_site_symmetry_1
_geom_bond_site_symmetry_2
Er1 O4 1_555 1_555
C1 C2 1_555 1_555
C2 C3 1_555 1_555
C3 H1 1_555 1_555
C4 C3 1_555 1_555
C5 C4 1_555 1_555
C6 O5 1_555 1_555
N1 C4 1_555 1_555
N2 C2 1_555 1_555
O1 C1 1_555 1_555
O2 C1 1_555 1_555
O3 C5 1_555 1_555
O4 C5 1_555 1_555
O5 Er1 1_555 1_555
O6 Er1 1_555 1_555
O7 Er1 1_555 1_555
H2 O7 1_555 1_555
H3 O7 1_555 1_555
O8 H4 1_555 1_555
H5 O8 1_555 1_555
O9 Er1 1_555 1_555
H6 O9 1_555 1_555
H7 O9 1_555 1_555
Er1A O2 1_555 1_555
Er1B O3 1_555 1_555
Er1C O1 1_555 1_555
Er1A_2 O3C 1_555 1_555
Er1B_2 O2C 1_555 1_555
Er1B_3 O1A 1_555 1_555
Er1C_2 O4C 1_555 1_555
C1C C2C 1_555 1_555
C2C C3C 1_555 1_555
C3C H1C 1_555 1_555
C4C C3C 1_555 1_555
C5C C4C 1_555 1_555
C6B C6 1_555 1_555
N1C C4C 1_555 1_555
N2C C2C 1_555 1_555
O1C Er1 1_555 1_555
O2A Er1 1_555 1_555
O2C C1C 1_555 1_555
O2C_2 Er1B_3 1_555 1_555
O3B Er1 1_555 1_555
O3C C5C 1_555 1_555
O3_2 Er1B_3 1_555 1_555
O4C C5C 1_555 1_555
O4B Er1B_3 1_555 1_555
O5B Er1B_3 1_555 1_555
O6B C6 1_555 1_555
O7B Er1B_3 1_555 1_555
H2B O7B 1_555 1_555
H3B O7B 1_555 1_555
O9B Er1B_3 1_555 1_555
H6B O9B 1_555 1_555
H7B O9B 1_555 1_555
N1 N2 1_555 1_555
O6 C6B 1_555 1_555
Er1B_3 O6B 1_555 1_555
C1C O1C 1_555 1_555
C6B O5B 1_555 1_555
N1C N2C 1_555 1_555

#END
