
#######################################################################
#
#                 Cambridge Crystallographic Data Centre
#                                CCDC 
#
#######################################################################
#
# If this CIF has been generated from an entry in the Cambridge 
# Structural Database, then it will include bibliographic, chemical, 
# crystal, experimental, refinement or atomic coordinate data resulting 
# from the CCDC's data processing and validation procedures.
#
#######################################################################

data_MUFLEF
_symmetry_cell_setting           monoclinic
_symmetry_space_group_name_H-M   'P 21/c'
_symmetry_Int_Tables_number      14
_space_group_name_Hall           '-P 2ybc'
loop_
_symmetry_equiv_pos_site_id
_symmetry_equiv_pos_as_xyz
1 x,y,z
2 -x,1/2+y,1/2-z
3 -x,-y,-z
4 x,1/2-y,1/2+z
_cell_length_a                   11.245(2)
_cell_length_b                   13.514(2)
_cell_length_c                   15.299(3)
_cell_angle_alpha                90
_cell_angle_beta                 106.569(2)
_cell_angle_gamma                90
_cell_volume                     2228.37
loop_
_atom_site_label
_atom_site_type_symbol
_atom_site_fract_x
_atom_site_fract_y
_atom_site_fract_z
Zn1 Zn 0.41094(3) 0.09307(3) 0.55390(2)
N1 N 0.4374(2) 0.23835(18) 0.57573(16)
O1 O 0.36238(18) 0.09220(17) 0.41972(14)
O2 O 0.43500(19) -0.04094(18) 0.36832(17)
O3 O -0.26115(18) -0.03274(16) 0.43453(15)
O4 O -0.31254(19) -0.0787(2) 0.29029(15)
N2 N 0.4842(2) 0.54100(18) 0.62901(16)
H1 H 0.5516 0.5537 0.6711
N3 N 0.3065(2) 0.61161(19) 0.52917(17)
C1 C 0.3643(2) 0.0316(2) 0.3590(2)
C2 C 0.2749(3) 0.0472(2) 0.26588(19)
H2 H 0.3154 0.0280 0.2204
H3 H 0.2561 0.1172 0.2579
C3 C 0.1523(2) -0.0102(2) 0.24783(18)
C4 C 0.0753(2) 0.0241(2) 0.30966(18)
H4 H 0.0608 0.0947 0.3020
H5 H 0.1216 0.0122 0.3727
C5 C -0.0505(2) -0.0300(2) 0.28868(18)
C6 C -0.0248(3) -0.1407(2) 0.3017(2)
H6 H -0.1027 -0.1765 0.2879
H7 H 0.0205 -0.1538 0.3647
C7 C 0.0506(3) -0.1764(3) 0.2392(3)
H8 H 0.0663 -0.2475 0.2483
C8 C 0.1744(3) -0.1213(2) 0.2613(2)
H9 H 0.2216 -0.1345 0.3239
H10 H 0.2223 -0.1447 0.2217
C9 C -0.0223(3) -0.1574(4) 0.1406(3)
H11 H 0.0243 -0.1811 0.1003
H12 H -0.1005 -0.1928 0.1263
C10 C -0.0461(3) -0.0474(4) 0.1266(2)
H13 H -0.0926 -0.0351 0.0629
C11 C -0.1221(3) -0.0106(3) 0.18901(19)
H14 H -0.1380 0.0598 0.1796
H15 H -0.2012 -0.0447 0.1742
C12 C 0.0769(3) 0.0092(3) 0.1490(2)
H16 H 0.0606 0.0795 0.1400
H17 H 0.1240 -0.0117 0.1081
C13 C -0.1194(3) 0.0099(3) 0.3544(2)
H18 H -0.0628 0.0068 0.4155
H19 H -0.1370 0.0792 0.3402
C14 C -0.2402(3) -0.0394(2) 0.3571(2)
C15 C 0.3596(3) 0.3044(2) 0.5245(2)
H20 H 0.2947 0.2805 0.4768
C16 C 0.3687(3) 0.4047(2) 0.5371(2)
H21 H 0.3107 0.4467 0.4995
C17 C 0.4652(2) 0.4430(2) 0.60664(18)
C18 C 0.5484(3) 0.3741(2) 0.6584(2)
H22 H 0.6163 0.3956 0.7050
C19 C 0.5310(3) 0.2758(2) 0.6411(2)
H23 H 0.5880 0.2320 0.6772
C20 C 0.4115(3) 0.6235(2) 0.59435(19)
C21 C 0.4537(3) 0.7155(2) 0.6320(2)
H24 H 0.5284 0.7215 0.6777
C22 C 0.3822(3) 0.7962(2) 0.5999(2)
H25 H 0.4077 0.8585 0.6238
C23 C 0.2728(3) 0.7858(3) 0.5323(2)
H26 H 0.2228 0.8402 0.5095
C24 C 0.2400(3) 0.6935(3) 0.4999(2)
H27 H 0.1659 0.6865 0.4539
Zn1B Zn 0.58906(3) -0.09307(3) 0.44610(2)
Zn1B_2 Zn -0.41094(3) -0.09307(3) 0.44610(2)
O2B O 0.56500(19) 0.04094(18) 0.63168(17)
O3B O 0.26115(18) 0.03274(16) 0.56547(15)
loop_
_geom_bond_atom_site_label_1
_geom_bond_atom_site_label_2
_geom_bond_site_symmetry_1
_geom_bond_site_symmetry_2
Zn1 N1 1_555 1_555
N1 C15 1_555 1_555
O1 Zn1 1_555 1_555
O2 C1 1_555 1_555
O3 C14 1_555 1_555
O4 C14 1_555 1_555
N2 H1 1_555 1_555
N3 C20 1_555 1_555
C1 O1 1_555 1_555
C2 C1 1_555 1_555
H2 C2 1_555 1_555
H3 C2 1_555 1_555
C3 C2 1_555 1_555
C4 C3 1_555 1_555
H4 C4 1_555 1_555
H5 C4 1_555 1_555
C5 C4 1_555 1_555
C6 C5 1_555 1_555
H6 C6 1_555 1_555
H7 C6 1_555 1_555
C7 C6 1_555 1_555
H8 C7 1_555 1_555
C8 C3 1_555 1_555
H9 C8 1_555 1_555
H10 C8 1_555 1_555
C9 C7 1_555 1_555
H11 C9 1_555 1_555
H12 C9 1_555 1_555
C10 C9 1_555 1_555
H13 C10 1_555 1_555
C11 C5 1_555 1_555
H14 C11 1_555 1_555
H15 C11 1_555 1_555
C12 C3 1_555 1_555
H16 C12 1_555 1_555
H17 C12 1_555 1_555
C13 C5 1_555 1_555
H18 C13 1_555 1_555
H19 C13 1_555 1_555
C14 C13 1_555 1_555
C15 H20 1_555 1_555
C16 C15 1_555 1_555
H21 C16 1_555 1_555
C17 N2 1_555 1_555
C18 C17 1_555 1_555
H22 C18 1_555 1_555
C19 N1 1_555 1_555
H23 C19 1_555 1_555
C20 N2 1_555 1_555
C21 C20 1_555 1_555
H24 C21 1_555 1_555
C22 C21 1_555 1_555
H25 C22 1_555 1_555
C23 C22 1_555 1_555
H26 C23 1_555 1_555
C24 N3 1_555 1_555
H27 C24 1_555 1_555
Zn1B O2 1_555 1_555
Zn1B_2 O3 1_555 1_555
O2B Zn1 1_555 1_555
O3B Zn1 1_555 1_555
C7 C8 1_555 1_555
C10 C11 1_555 1_555
C10 C12 1_555 1_555
C16 C17 1_555 1_555
C18 C19 1_555 1_555
C23 C24 1_555 1_555

#END
