
#######################################################################
#
#                 Cambridge Crystallographic Data Centre
#                                CCDC 
#
#######################################################################
#
# If this CIF has been generated from an entry in the Cambridge 
# Structural Database, then it will include bibliographic, chemical, 
# crystal, experimental, refinement or atomic coordinate data resulting 
# from the CCDC's data processing and validation procedures.
#
#######################################################################

data_MUFLAC
_symmetry_cell_setting           triclinic
_symmetry_space_group_name_H-M   'P -1'
_symmetry_Int_Tables_number      2
_space_group_name_Hall           '-P 1'
loop_
_symmetry_equiv_pos_site_id
_symmetry_equiv_pos_as_xyz
1 x,y,z
2 -x,-y,-z
_cell_length_a                   10.1880(5)
_cell_length_b                   10.8386(6)
_cell_length_c                   13.8721(8)
_cell_angle_alpha                78.673(2)
_cell_angle_beta                 79.2810(10)
_cell_angle_gamma                86.1260(10)
_cell_volume                     1475
loop_
_atom_site_label
_atom_site_type_symbol
_atom_site_fract_x
_atom_site_fract_y
_atom_site_fract_z
C1 C 0.5952(5) 0.9007(5) 0.2143(4)
C2 C 0.7366(5) 0.8859(5) 0.1674(4)
C3 C 0.8440(5) 0.8954(5) 0.2143(4)
H1 H 0.8271 0.9121 0.2788
C4 C 0.9730(5) 0.8810(5) 0.1686(4)
C5 C 1.0004(5) 0.8548(4) 0.0717(4)
H2 H 1.0882 0.8481 0.0390
C6 C 0.8939(5) 0.8389(5) 0.0249(4)
C7 C 0.7641(5) 0.8580(5) 0.0709(4)
H3 H 0.6940 0.8524 0.0376
C8 C 1.0921(5) 0.8929(4) 0.2162(4)
C9 C 1.0042(5) 0.7045(5) -0.0885(4)
C10 C 1.0084(5) 0.6660(5) -0.1868(4)
C11 C 1.0152(6) 0.7477(5) -0.2775(4)
H4 H 1.0136 0.8343 -0.2810
C12 C 1.0244(6) 0.6975(6) -0.3633(4)
H5 H 1.0322 0.7523 -0.4245
C13 C 1.0155(6) 0.4968(6) -0.2744(4)
H6 H 1.0132 0.4108 -0.2728
C14 C 1.0112(6) 0.5378(6) -0.1840(4)
H7 H 1.0103 0.4807 -0.1243
C15 C 0.2725(5) 0.6055(5) 0.3527(4)
C16 C 0.3003(5) 0.5273(5) 0.2731(4)
C17 C 0.3231(5) 0.5835(5) 0.1724(4)
H8 H 0.3291 0.6705 0.1544
C18 C 0.3370(5) 0.5113(5) 0.0982(4)
C19 C 0.3356(5) 0.3806(5) 0.1266(4)
H9 H 0.3468 0.3305 0.0783
C20 C 0.3177(5) 0.3254(5) 0.2269(4)
C21 C 0.2989(5) 0.3982(5) 0.2996(3)
H10 H 0.2852 0.3601 0.3667
C22 C 0.3126(5) 0.1890(5) 0.2521(4)
C23 C 0.3339(6) 0.5185(5) -0.0790(4)
C24 C 0.3484(5) 0.6021(5) -0.1807(4)
C25 C 0.3481(6) 0.7317(6) -0.1996(5)
H11 H 0.3434 0.7757 -0.1478
C26 C 0.3550(7) 0.7955(5) -0.2974(5)
H12 H 0.3571 0.8829 -0.3097
C27 C 0.3593(6) 0.6147(6) -0.3573(4)
H13 H 0.3628 0.5743 -0.4110
C28 C 0.3549(7) 0.5426(6) -0.2634(5)
H14 H 0.3562 0.4553 -0.2545
Mn1 Mn 0.0000 0.5000 0.5000
N1 N 0.9180(5) 0.8015(5) -0.0692(3)
H15 H 0.8769 0.8413 -0.1154
N2 N 1.0227(5) 0.5741(5) -0.3620(4)
N3 N 0.3545(4) 0.5705(4) -0.0030(3)
H16 H 0.3807 0.6467 -0.0174
N4 N 0.3587(6) 0.7388(5) -0.3743(4)
O1 O 0.5625(4) 0.9009(4) 0.3076(3)
O2 O 0.5057(4) 0.9145(4) 0.1617(3)
O3 O 1.0716(4) 0.9053(4) 0.3083(3)
O4 O 1.2058(4) 0.8882(4) 0.1660(3)
O5 O 1.0764(4) 0.6528(3) -0.0315(3)
O6 O 0.3213(4) 0.7119(3) 0.3335(3)
O7 O 0.1996(4) 0.5623(4) 0.4335(3)
O8 O 0.3255(4) 0.1307(3) 0.3391(3)
O9 O 0.2959(4) 0.1263(4) 0.1892(3)
O10 O 0.3049(4) 0.4114(4) -0.0712(3)
O11 O 0.2820(4) 0.9022(4) 0.4740(3)
H17 H 0.2794 0.8146 0.5043
H18 H 0.3530 0.9405 0.4932
O12 O 0.0992(5) 0.3187(4) 0.5595(3)
H19 H 0.1940 0.3255 0.5379
H20 H 0.0338 0.2602 0.5979
Sm1 Sm 0.31986(2) 0.92336(2) 0.296658(18)
C1A C -0.5952(5) 0.0993(5) 0.7857(4)
C2A C -0.7366(5) 0.1141(5) 0.8326(4)
C3A C -0.8440(5) 0.1046(5) 0.7857(4)
H1A H -0.8271 0.0879 0.7212
C4A C -0.9730(5) 0.1190(5) 0.8314(4)
C5A C -1.0004(5) 0.1452(4) 0.9283(4)
H2A H -1.0882 0.1519 0.9610
C6A C -0.8939(5) 0.1611(5) 0.9751(4)
C7A C -0.7641(5) 0.1420(5) 0.9291(4)
H3A H -0.6940 0.1476 0.9624
C8A C -1.0921(5) 0.1071(4) 0.7838(4)
C9A C -1.0042(5) 0.2955(5) 1.0885(4)
C10A C -1.0084(5) 0.3340(5) 1.1868(4)
C11A C -1.0152(6) 0.2523(5) 1.2775(4)
H4A H -1.0136 0.1657 1.2810
C12A C -1.0244(6) 0.3025(6) 1.3633(4)
H5A H -1.0322 0.2477 1.4245
C13A C -1.0155(6) 0.5032(6) 1.2744(4)
H6A H -1.0132 0.5892 1.2728
C14A C -1.0112(6) 0.4622(6) 1.1840(4)
H7A H -1.0103 0.5193 1.1243
C15A C -0.2725(5) 0.3945(5) 0.6473(4)
C16A C -0.3003(5) 0.4727(5) 0.7269(4)
C17A C -0.3231(5) 0.4165(5) 0.8276(4)
H8A H -0.3291 0.3295 0.8456
C18A C -0.3370(5) 0.4887(5) 0.9018(4)
C19A C -0.3356(5) 0.6194(5) 0.8734(4)
H9A H -0.3468 0.6695 0.9217
C20A C -0.3177(5) 0.6746(5) 0.7731(4)
C21A C -0.2989(5) 0.6018(5) 0.7004(3)
H10A H -0.2852 0.6399 0.6333
C22A C -0.3126(5) 0.8110(5) 0.7479(4)
C23A C -0.3339(6) 0.4815(5) 1.0790(4)
C24A C -0.3484(5) 0.3979(5) 1.1807(4)
C25A C -0.3481(6) 0.2683(6) 1.1996(5)
H11A H -0.3434 0.2243 1.1478
C26A C -0.3550(7) 0.2045(5) 1.2974(5)
H12A H -0.3571 0.1171 1.3097
C27A C -0.3593(6) 0.3853(6) 1.3573(4)
H13A H -0.3628 0.4257 1.4110
C28A C -0.3549(7) 0.4574(6) 1.2634(5)
H14A H -0.3562 0.5447 1.2545
N1A N -0.9180(5) 0.1985(5) 1.0692(3)
H15A H -0.8769 0.1587 1.1154
N2A N -1.0227(5) 0.4259(5) 1.3620(4)
N3A N -0.3545(4) 0.4295(4) 1.0030(3)
H16A H -0.3807 0.3533 1.0174
N4A N -0.3587(6) 0.2612(5) 1.3743(4)
O1A O -0.5625(4) 0.0991(4) 0.6924(3)
O2A O -0.5057(4) 0.0855(4) 0.8383(3)
O3A O -1.0716(4) 0.0947(4) 0.6917(3)
O4A O -1.2058(4) 0.1118(4) 0.8340(3)
O5A O -1.0764(4) 0.3472(3) 1.0315(3)
O6A O -0.3213(4) 0.2881(3) 0.6665(3)
O7A O -0.1996(4) 0.4377(4) 0.5665(3)
O8A O -0.3255(4) 0.8693(3) 0.6609(3)
O9A O -0.2959(4) 0.8737(4) 0.8108(3)
O10A O -0.3049(4) 0.5886(4) 1.0712(3)
O11A O -0.2820(4) 0.0978(4) 0.5260(3)
H17A H -0.2794 0.1854 0.4957
H18A H -0.3530 0.0595 0.5068
O12A O -0.0992(5) 0.6813(4) 0.4405(3)
H19A H -0.1940 0.6745 0.4621
H20A H -0.0338 0.7398 0.4021
Sm1A Sm -0.31986(2) 0.07664(2) 0.703342(18)
Mn1_2 Mn -1.0000 0.5000 1.5000
Mn1_3 Mn 1.0000 0.5000 -0.5000
N2_2 N 0.0227(5) 0.5741(5) 0.6380(4)
N2A_2 N -0.0227(5) 0.4259(5) 0.3620(4)
O3_2 O 0.0716(4) 0.9053(4) 0.3083(3)
O3A_2 O -0.0716(4) 0.0947(4) 0.6917(3)
O4_2 O 0.2058(4) 0.8882(4) 0.1660(3)
O4A_2 O -0.2058(4) 0.1118(4) 0.8340(3)
O8_2 O 0.3255(4) 1.1307(3) 0.3391(3)
O8A_2 O -0.3255(4) -0.1307(3) 0.6609(3)
O9_2 O 0.2959(4) 1.1263(4) 0.1892(3)
O9A_2 O -0.2959(4) -0.1263(4) 0.8108(3)
Sm1_2 Sm 0.31986(2) -0.07664(2) 0.296658(18)
Sm1_3 Sm 1.31986(2) 0.92336(2) 0.296658(18)
Sm1A_2 Sm -1.31986(2) 0.07664(2) 0.703342(18)
Sm1A_3 Sm -0.31986(2) 1.07664(2) 0.703342(18)
O13 O 0.3178(5) 0.1238(5) 0.5349(4)
H21 H 0.3423 0.1700 0.5707
H22 H 0.2535 0.1405 0.5027
loop_
_geom_bond_atom_site_label_1
_geom_bond_atom_site_label_2
_geom_bond_site_symmetry_1
_geom_bond_site_symmetry_2
C1 C2 1_555 1_555
C2 C3 1_555 1_555
C3 H1 1_555 1_555
C4 C3 1_555 1_555
C5 C4 1_555 1_555
H2 C5 1_555 1_555
C6 C5 1_555 1_555
C7 C2 1_555 1_555
H3 C7 1_555 1_555
C8 C4 1_555 1_555
C9 C10 1_555 1_555
C10 C11 1_555 1_555
C11 H4 1_555 1_555
C12 C11 1_555 1_555
H5 C12 1_555 1_555
C13 H6 1_555 1_555
C14 C10 1_555 1_555
H7 C14 1_555 1_555
C15 C16 1_555 1_555
C16 C17 1_555 1_555
C17 H8 1_555 1_555
C18 C17 1_555 1_555
C19 C18 1_555 1_555
H9 C19 1_555 1_555
C20 C19 1_555 1_555
C21 C16 1_555 1_555
H10 C21 1_555 1_555
C22 C20 1_555 1_555
C23 C24 1_555 1_555
C24 C25 1_555 1_555
C25 H11 1_555 1_555
C26 C25 1_555 1_555
H12 C26 1_555 1_555
C27 H13 1_555 1_555
C28 C24 1_555 1_555
H14 C28 1_555 1_555
Mn1 O7 1_555 1_555
N1 C6 1_555 1_555
H15 N1 1_555 1_555
N2 C12 1_555 1_555
N3 C18 1_555 1_555
H16 N3 1_555 1_555
N4 C26 1_555 1_555
O1 C1 1_555 1_555
O2 C1 1_555 1_555
O3 C8 1_555 1_555
O4 C8 1_555 1_555
O5 C9 1_555 1_555
O6 C15 1_555 1_555
O7 C15 1_555 1_555
O8 C22 1_555 1_555
O9 C22 1_555 1_555
O10 C23 1_555 1_555
O11 H17 1_555 1_555
H18 O11 1_555 1_555
O12 Mn1 1_555 1_555
H19 O12 1_555 1_555
H20 O12 1_555 1_555
Sm1 O1 1_555 1_555
O13 H21 1_555 1_555
H22 O13 1_555 1_555
C1A C2A 1_555 1_555
C2A C3A 1_555 1_555
C3A H1A 1_555 1_555
C4A C3A 1_555 1_555
C5A C4A 1_555 1_555
H2A C5A 1_555 1_555
C6A C5A 1_555 1_555
C7A C2A 1_555 1_555
H3A C7A 1_555 1_555
C8A C4A 1_555 1_555
C9A C10A 1_555 1_555
C10A C11A 1_555 1_555
C11A H4A 1_555 1_555
C12A C11A 1_555 1_555
H5A C12A 1_555 1_555
C13A H6A 1_555 1_555
C14A C10A 1_555 1_555
H7A C14A 1_555 1_555
C15A C16A 1_555 1_555
C16A C17A 1_555 1_555
C17A H8A 1_555 1_555
C18A C17A 1_555 1_555
C19A C18A 1_555 1_555
H9A C19A 1_555 1_555
C20A C19A 1_555 1_555
C21A C16A 1_555 1_555
H10A C21A 1_555 1_555
C22A C20A 1_555 1_555
C23A C24A 1_555 1_555
C24A C25A 1_555 1_555
C25A H11A 1_555 1_555
C26A C25A 1_555 1_555
H12A C26A 1_555 1_555
C27A H13A 1_555 1_555
C28A C24A 1_555 1_555
H14A C28A 1_555 1_555
N1A C6A 1_555 1_555
H15A N1A 1_555 1_555
N2A C12A 1_555 1_555
N3A C18A 1_555 1_555
H16A N3A 1_555 1_555
N4A C26A 1_555 1_555
O1A C1A 1_555 1_555
O2A C1A 1_555 1_555
O3A C8A 1_555 1_555
O4A C8A 1_555 1_555
O5A C9A 1_555 1_555
O6A C15A 1_555 1_555
O7A Mn1 1_555 1_555
O8A C22A 1_555 1_555
O9A C22A 1_555 1_555
O10A C23A 1_555 1_555
O11A H17A 1_555 1_555
H18A O11A 1_555 1_555
O12A Mn1 1_555 1_555
H19A O12A 1_555 1_555
H20A O12A 1_555 1_555
Sm1A O1A 1_555 1_555
Mn1_2 N2A 1_555 1_555
Mn1_3 N2 1_555 1_555
N2_2 Mn1 1_555 1_555
N2A_2 Mn1 1_555 1_555
O3_2 Sm1 1_555 1_555
O3A_2 Sm1A 1_555 1_555
O4_2 Sm1 1_555 1_555
O4A_2 Sm1A 1_555 1_555
O8_2 Sm1 1_555 1_555
O8A_2 Sm1A 1_555 1_555
O9_2 Sm1 1_555 1_555
O9A_2 Sm1A 1_555 1_555
Sm1_2 O8 1_555 1_555
Sm1_3 O3 1_555 1_555
Sm1A_2 O3A 1_555 1_555
Sm1A_3 O8A 1_555 1_555
C6 C7 1_555 1_555
C9 N1 1_555 1_555
C13 C14 1_555 1_555
C13 N2 1_555 1_555
C20 C21 1_555 1_555
C23 N3 1_555 1_555
C27 C28 1_555 1_555
C27 N4 1_555 1_555
O2 Sm1 1_555 1_555
O4 Sm1_3 1_555 1_555
O6 Sm1 1_555 1_555
O9 Sm1_2 1_555 1_555
O11 Sm1 1_555 1_555
C6A C7A 1_555 1_555
C9A N1A 1_555 1_555
C13A C14A 1_555 1_555
C13A N2A 1_555 1_555
C15A O7A 1_555 1_555
C20A C21A 1_555 1_555
C23A N3A 1_555 1_555
C27A C28A 1_555 1_555
C27A N4A 1_555 1_555
O2A Sm1A 1_555 1_555
O4A Sm1A_2 1_555 1_555
O6A Sm1A 1_555 1_555
O9A Sm1A_3 1_555 1_555
O11A Sm1A 1_555 1_555

#END
