
#######################################################################
#
#                 Cambridge Crystallographic Data Centre
#                                CCDC 
#
#######################################################################
#
# If this CIF has been generated from an entry in the Cambridge 
# Structural Database, then it will include bibliographic, chemical, 
# crystal, experimental, refinement or atomic coordinate data resulting 
# from the CCDC's data processing and validation procedures.
#
#######################################################################

data_MUFTIR
_symmetry_cell_setting           monoclinic
_symmetry_space_group_name_H-M   'P 21/n'
_symmetry_Int_Tables_number      14
_space_group_name_Hall           '-P 2yn'
loop_
_symmetry_equiv_pos_site_id
_symmetry_equiv_pos_as_xyz
1 x,y,z
2 1/2-x,1/2+y,1/2-z
3 -x,-y,-z
4 1/2+x,1/2-y,1/2+z
_cell_length_a                   10.6409(11)
_cell_length_b                   15.6974(17)
_cell_length_c                   14.8457(16)
_cell_angle_alpha                90
_cell_angle_beta                 94.802(2)
_cell_angle_gamma                90
_cell_volume                     2471.04
loop_
_atom_site_label
_atom_site_type_symbol
_atom_site_fract_x
_atom_site_fract_y
_atom_site_fract_z
C1 C 0.5543(4) 0.1495(3) 0.6469(3)
H1 H 0.4732 0.1323 0.6575
C2 C 0.6124(4) 0.2095(3) 0.7033(3)
H2 H 0.5700 0.2321 0.7501
C3 C 0.7325(3) 0.2365(2) 0.6912(3)
C4 C 0.7867(4) 0.1999(3) 0.6188(3)
H3 H 0.8676 0.2161 0.6063
C5 C 0.7241(4) 0.1411(3) 0.5661(3)
H4 H 0.7644 0.1176 0.5187
C6 C 0.7975(4) 0.2987(2) 0.7519(3)
C7 C 0.7281(4) 0.3564(3) 0.8005(3)
H5 H 0.6406 0.3572 0.7913
C8 C 0.7885(4) 0.4115(3) 0.8616(3)
H6 H 0.7401 0.4497 0.8918
C9 C 0.9798(4) 0.3613(3) 0.8307(3)
H7 H 1.0673 0.3642 0.8392
C10 C 0.9269(4) 0.3041(3) 0.7685(3)
H8 H 0.9786 0.2688 0.7374
C25 C 0.2251(4) 0.0567(3) 0.5846(3)
Cd1 Cd 0.5000 0.0000 0.5000
N1 N 0.6072(3) 0.1149(2) 0.5783(2)
N2 N 0.9133(3) 0.4127(2) 0.8794(2)
N3 N 0.3218(3) 0.0251(2) 0.5739(3)
S1 S 0.09059(12) 0.09901(9) 0.59876(9)
C1B C 0.4457(4) -0.1495(3) 0.3531(3)
H1B H 0.5268 -0.1323 0.3425
C2B C 0.3876(4) -0.2095(3) 0.2967(3)
H2B H 0.4300 -0.2321 0.2499
C3B C 0.2675(3) -0.2365(2) 0.3088(3)
C4B C 0.2133(4) -0.1999(3) 0.3812(3)
H3B H 0.1324 -0.2161 0.3937
C5B C 0.2759(4) -0.1411(3) 0.4339(3)
H4B H 0.2356 -0.1176 0.4813
C6B C 0.2025(4) -0.2987(2) 0.2481(3)
C7B C 0.2719(4) -0.3564(3) 0.1995(3)
H5B H 0.3594 -0.3572 0.2087
C8B C 0.2115(4) -0.4115(3) 0.1384(3)
H6B H 0.2599 -0.4497 0.1082
C9B C 0.0202(4) -0.3613(3) 0.1693(3)
H7B H -0.0673 -0.3642 0.1608
C10B C 0.0731(4) -0.3041(3) 0.2315(3)
H8B H 0.0214 -0.2688 0.2626
C25B C 0.7749(4) -0.0567(3) 0.4154(3)
Cd1A Cd 0.0000 -0.5000 0.0000
Cd1A_2 Cd 1.0000 0.5000 1.0000
N1B N 0.3928(3) -0.1149(2) 0.4217(2)
N2B N 0.0867(3) -0.4127(2) 0.1206(2)
N2A N 0.5867(3) -0.0873(2) 0.6206(2)
N2C N 0.4133(3) 0.0873(2) 0.3794(2)
N3B N 0.6782(3) -0.0251(2) 0.4261(3)
S1B S 0.90941(12) -0.09901(9) 0.40124(9)
C11 C 1.0613(4) 0.1526(3) 0.9619(4)
H9 H 1.0771 0.2067 0.9350
H10 H 1.1138 0.1100 0.9378
H11 H 1.0798 0.1561 1.0262
C12 C 0.9231(2) 0.1286(2) 0.9408(2)
C13 C 0.8905(3) 0.0565(2) 0.8897(3)
H12 H 0.9530 0.0233 0.8670
C14 C 0.7644(3) 0.03395(18) 0.8725(2)
H13 H 0.7426 -0.0143 0.8383
C15 C 0.6710(2) 0.0835(2) 0.9065(2)
C16 C 0.7036(3) 0.1556(2) 0.9576(2)
H14 H 0.6410 0.1887 0.9804
C17 C 0.8296(3) 0.17809(18) 0.9748(2)
H15 H 0.8514 0.2263 1.0090
C18 C 0.2889(6) 0.4291(4) 0.7009(4)
H16 H 0.2113 0.4543 0.7163
H17 H 0.2803 0.4116 0.6387
H18 H 0.3558 0.4700 0.7098
C19 C 0.3188(5) 0.3527(3) 0.7601(4)
C20 C 0.3921(5) 0.3603(3) 0.8415(4)
H19 H 0.4248 0.4131 0.8598
C21 C 0.4165(4) 0.2902(3) 0.8950(3)
H20 H 0.4647 0.2966 0.9499
C22 C 0.3718(4) 0.2101(3) 0.8702(3)
C23 C 0.2994(5) 0.2033(3) 0.7890(4)
H21 H 0.2662 0.1505 0.7713
C24 C 0.2749(4) 0.2723(4) 0.7335(4)
H22 H 0.2287 0.2654 0.6779
S2 S 0.51511(13) 0.04614(9) 0.87822(10)
S3 S 0.40082(13) 0.12194(9) 0.94342(10)
loop_
_geom_bond_atom_site_label_1
_geom_bond_atom_site_label_2
_geom_bond_site_symmetry_1
_geom_bond_site_symmetry_2
C1 H1 1_555 1_555
C2 C1 1_555 1_555
H2 C2 1_555 1_555
C3 C2 1_555 1_555
C4 C3 1_555 1_555
H3 C4 1_555 1_555
C5 C4 1_555 1_555
H4 C5 1_555 1_555
C6 C3 1_555 1_555
C7 C6 1_555 1_555
H5 C7 1_555 1_555
C8 C7 1_555 1_555
H6 C8 1_555 1_555
C9 H7 1_555 1_555
C10 C6 1_555 1_555
H8 C10 1_555 1_555
C11 H9 1_555 1_555
H10 C11 1_555 1_555
H11 C11 1_555 1_555
C12 C11 1_555 1_555
C13 C12 1_555 1_555
H12 C13 1_555 1_555
C14 C13 1_555 1_555
H13 C14 1_555 1_555
C15 C14 1_555 1_555
C16 C15 1_555 1_555
H14 C16 1_555 1_555
C17 C12 1_555 1_555
H15 C17 1_555 1_555
C18 H16 1_555 1_555
H17 C18 1_555 1_555
H18 C18 1_555 1_555
C19 C18 1_555 1_555
C20 C19 1_555 1_555
H19 C20 1_555 1_555
C21 C20 1_555 1_555
H20 C21 1_555 1_555
C22 C21 1_555 1_555
C23 C22 1_555 1_555
H21 C23 1_555 1_555
C24 C19 1_555 1_555
H22 C24 1_555 1_555
C25 N3 1_555 1_555
Cd1 N1 1_555 1_555
N1 C1 1_555 1_555
N2 C8 1_555 1_555
N3 Cd1 1_555 1_555
S1 C25 1_555 1_555
S2 C15 1_555 1_555
S3 C22 1_555 1_555
C1B H1B 1_555 1_555
C2B C1B 1_555 1_555
H2B C2B 1_555 1_555
C3B C2B 1_555 1_555
C4B C3B 1_555 1_555
H3B C4B 1_555 1_555
C5B C4B 1_555 1_555
H4B C5B 1_555 1_555
C6B C3B 1_555 1_555
C7B C6B 1_555 1_555
H5B C7B 1_555 1_555
C8B C7B 1_555 1_555
H6B C8B 1_555 1_555
C9B H7B 1_555 1_555
C10B C6B 1_555 1_555
H8B C10B 1_555 1_555
C25B N3B 1_555 1_555
Cd1A N2B 1_555 1_555
Cd1A_2 N2 1_555 1_555
N1B Cd1 1_555 1_555
N2B C8B 1_555 1_555
N2A Cd1 1_555 1_555
N2C Cd1 1_555 1_555
N3B Cd1 1_555 1_555
S1B C25B 1_555 1_555
C5 N1 1_555 1_555
C9 C10 1_555 1_555
C9 N2 1_555 1_555
C16 C17 1_555 1_555
C23 C24 1_555 1_555
S2 S3 1_555 1_555
C1B N1B 1_555 1_555
C5B N1B 1_555 1_555
C9B C10B 1_555 1_555
C9B N2B 1_555 1_555

#END
