
#######################################################################
#
#                 Cambridge Crystallographic Data Centre
#                                CCDC 
#
#######################################################################
#
# If this CIF has been generated from an entry in the Cambridge 
# Structural Database, then it will include bibliographic, chemical, 
# crystal, experimental, refinement or atomic coordinate data resulting 
# from the CCDC's data processing and validation procedures.
#
#######################################################################

data_MUFTOX
_symmetry_cell_setting           monoclinic
_symmetry_space_group_name_H-M   'C 2/c'
_symmetry_Int_Tables_number      15
_space_group_name_Hall           '-C 2yn'
loop_
_symmetry_equiv_pos_site_id
_symmetry_equiv_pos_as_xyz
1 x,y,z
2 -x,y,1/2-z
3 1/2+x,1/2+y,z
4 1/2-x,1/2+y,1/2-z
5 -x,-y,-z
6 x,-y,1/2+z
7 1/2-x,1/2-y,-z
8 1/2+x,1/2-y,1/2+z
_cell_length_a                   10.651(7)
_cell_length_b                   19.543(13)
_cell_length_c                   26.171(17)
_cell_angle_alpha                90
_cell_angle_beta                 91.213(3)
_cell_angle_gamma                90
_cell_volume                     5446.34
loop_
_atom_site_label
_atom_site_type_symbol
_atom_site_fract_x
_atom_site_fract_y
_atom_site_fract_z
C1 C 0.1132(4) 0.3858(2) 0.52165(15)
H1 H 0.0590 0.4180 0.5071
C2 C 0.1491(4) 0.3316(2) 0.49461(17)
H2 H 0.1181 0.3266 0.4613
C3 C 0.2325(4) 0.2814(2) 0.51459(15)
C4 C 0.2740(4) 0.2931(2) 0.56551(17)
H3 H 0.3281 0.2616 0.5810
C5 C 0.2384(4) 0.3471(2) 0.59193(16)
H4 H 0.2697 0.3532 0.6251
C6 C 0.3610(4) 0.5025(2) 0.64842(16)
H5 H 0.3712 0.5130 0.6141
C7 C 0.4646(4) 0.5033(2) 0.68011(16)
H6 H 0.5439 0.5121 0.6675
C8 C 0.4477(4) 0.49035(19) 0.73212(15)
C9 C 0.3231(4) 0.4762(2) 0.74822(15)
H7 H 0.3074 0.4681 0.7825
C10 C 0.2295(4) 0.4748(2) 0.71375(16)
H8 H 0.1493 0.4644 0.7248
C11 C 0.1217(4) 0.6445(2) 0.58060(17)
C12 C 0.1542(4) 0.7037(2) 0.55444(19)
H9 H 0.1904 0.7000 0.5225
C13 C 0.1338(4) 0.7683(2) 0.57491(17)
H10 H 0.1566 0.8071 0.5568
C14 C 0.0791(4) 0.7750(2) 0.62280(16)
C15 C 0.0470(4) 0.7170(2) 0.64804(17)
H11 H 0.0108 0.7205 0.6800
C16 C 0.0670(4) 0.6530(2) 0.62739(16)
H12 H 0.0428 0.6145 0.6456
C17 C 0.0580(5) 0.8449(2) 0.64632(19)
H13 H -0.0064 0.8418 0.6713
H14 H 0.0325 0.8766 0.6201
H15 H 0.1346 0.8606 0.6624
C18 C -0.1944(4) 0.5218(2) 0.62267(16)
C19 C -0.2510(4) 0.4958(2) 0.57864(16)
H16 H -0.2248 0.4541 0.5653
C20 C -0.3445(4) 0.5313(2) 0.55516(17)
H17 H -0.3813 0.5130 0.5257
C21 C -0.3879(4) 0.5922(3) 0.57217(19)
C22 C -0.3302(4) 0.6172(2) 0.61523(16)
H18 H -0.3562 0.6592 0.6280
C23 C -0.2349(4) 0.5828(2) 0.64062(15)
H19 H -0.1984 0.6013 0.6701
C24 C -0.4897(4) 0.6324(2) 0.54531(18)
H20 H -0.4790 0.6296 0.5090
H21 H -0.4851 0.6794 0.5559
H22 H -0.5700 0.6139 0.5538
N1 N 0.1573(3) 0.39401(16) 0.57172(12)
N2 N 0.2449(3) 0.48747(16) 0.66444(12)
S1 S 0.14939(11) 0.56458(6) 0.55084(4)
S2 S -0.08002(10) 0.47129(5) 0.65659(4)
Zn1 Zn 0.09950(4) 0.48398(2) 0.610021(17)
C1F C 0.3868(4) 0.1142(2) 0.47835(15)
H1F H 0.4410 0.0820 0.4929
C2F C 0.3509(4) 0.1684(2) 0.50539(17)
H2F H 0.3819 0.1734 0.5387
C3F C 0.2675(4) 0.2186(2) 0.48541(15)
C4F C 0.2260(4) 0.2069(2) 0.43449(17)
H3F H 0.1719 0.2384 0.4190
C5F C 0.2616(4) 0.1529(2) 0.40807(16)
H4F H 0.2303 0.1468 0.3749
C6A C 0.6390(4) 0.5025(2) 0.85158(16)
H5A H 0.6288 0.5130 0.8859
C7A C 0.5354(4) 0.5033(2) 0.81989(16)
H6A H 0.4561 0.5121 0.8325
C8A C 0.5523(4) 0.49035(19) 0.76788(15)
C9A C 0.6769(4) 0.4762(2) 0.75178(15)
H7A H 0.6926 0.4681 0.7175
C10A C 0.7705(4) 0.4748(2) 0.78625(16)
H8A H 0.8507 0.4644 0.7752
C11F C 0.3783(4) -0.1445(2) 0.41940(17)
C12F C 0.3458(4) -0.2037(2) 0.44556(19)
H9F H 0.3096 -0.2000 0.4775
C13F C 0.3662(4) -0.2683(2) 0.42509(17)
H10F H 0.3434 -0.3071 0.4432
C14F C 0.4209(4) -0.2750(2) 0.37720(16)
C15F C 0.4530(4) -0.2170(2) 0.35196(17)
H11F H 0.4892 -0.2205 0.3200
C16F C 0.4330(4) -0.1530(2) 0.37261(16)
H12F H 0.4572 -0.1145 0.3544
C17F C 0.4420(5) -0.3449(2) 0.35368(19)
H13F H 0.5064 -0.3418 0.3287
H14F H 0.4675 -0.3766 0.3799
H15F H 0.3654 -0.3606 0.3376
C18F C 0.6944(4) -0.0218(2) 0.37733(16)
C19F C 0.7510(4) 0.0042(2) 0.42136(16)
H16F H 0.7248 0.0459 0.4347
C20F C 0.8445(4) -0.0313(2) 0.44484(17)
H17F H 0.8813 -0.0130 0.4743
C21F C 0.8879(4) -0.0922(3) 0.42783(19)
C22F C 0.8302(4) -0.1172(2) 0.38477(16)
H18F H 0.8562 -0.1592 0.3720
C23F C 0.7349(4) -0.0828(2) 0.35938(15)
H19F H 0.6984 -0.1013 0.3299
C24F C 0.9897(4) -0.1324(2) 0.45469(18)
H20F H 0.9790 -0.1296 0.4910
H21F H 0.9851 -0.1794 0.4441
H22F H 1.0700 -0.1139 0.4462
N1F N 0.3427(3) 0.10599(16) 0.42828(12)
N2A N 0.7551(3) 0.48747(16) 0.83556(12)
N2F N 0.2551(3) 0.01253(16) 0.33556(12)
S1F S 0.35061(11) -0.06458(6) 0.44916(4)
S2F S 0.58002(10) 0.02871(5) 0.34341(4)
Zn1F Zn 0.40050(4) 0.01602(2) 0.389979(17)
Zn1A Zn 0.90050(4) 0.48398(2) 0.889979(17)
C25 C 0.0982(4) 0.7405(3) 0.33339(17)
H23 H 0.0109 0.7527 0.3317
H24 H 0.1399 0.7668 0.3597
H25 H 0.1061 0.6926 0.3411
C26 C 0.1761(5) 0.8219(2) 0.27238(19)
H26 H 0.2605 0.8275 0.2609
H27 H 0.1641 0.8495 0.3022
H28 H 0.1181 0.8360 0.2458
C27 C 0.1835(4) 0.7045(2) 0.25555(17)
H29 H 0.1658 0.6608 0.2675
N3 N 0.1558(3) 0.75467(19) 0.28404(14)
O1 O 0.2323(3) 0.70902(15) 0.21307(11)
loop_
_geom_bond_atom_site_label_1
_geom_bond_atom_site_label_2
_geom_bond_site_symmetry_1
_geom_bond_site_symmetry_2
C1 H1 1_555 1_555
C2 C1 1_555 1_555
H2 C2 1_555 1_555
C3 C2 1_555 1_555
C4 C3 1_555 1_555
H3 C4 1_555 1_555
C5 C4 1_555 1_555
H4 C5 1_555 1_555
C6 H5 1_555 1_555
C7 C6 1_555 1_555
H6 C7 1_555 1_555
C8 C7 1_555 1_555
C9 C8 1_555 1_555
H7 C9 1_555 1_555
C10 C9 1_555 1_555
H8 C10 1_555 1_555
C11 C12 1_555 1_555
C12 H9 1_555 1_555
C13 C12 1_555 1_555
H10 C13 1_555 1_555
C14 C13 1_555 1_555
C15 C14 1_555 1_555
H11 C15 1_555 1_555
C16 C11 1_555 1_555
H12 C16 1_555 1_555
C17 C14 1_555 1_555
H13 C17 1_555 1_555
H14 C17 1_555 1_555
H15 C17 1_555 1_555
C18 C19 1_555 1_555
C19 H16 1_555 1_555
C20 C19 1_555 1_555
H17 C20 1_555 1_555
C21 C20 1_555 1_555
C22 C21 1_555 1_555
H18 C22 1_555 1_555
C23 C18 1_555 1_555
H19 C23 1_555 1_555
C24 C21 1_555 1_555
H20 C24 1_555 1_555
H21 C24 1_555 1_555
H22 C24 1_555 1_555
C25 H23 1_555 1_555
H24 C25 1_555 1_555
H25 C25 1_555 1_555
C26 H26 1_555 1_555
H27 C26 1_555 1_555
H28 C26 1_555 1_555
C27 H29 1_555 1_555
N1 C1 1_555 1_555
N2 C6 1_555 1_555
N3 C25 1_555 1_555
O1 C27 1_555 1_555
S1 C11 1_555 1_555
S2 C18 1_555 1_555
Zn1 N1 1_555 1_555
C1F H1F 1_555 1_555
C2F C1F 1_555 1_555
H2F C2F 1_555 1_555
C3F C3 1_555 1_555
C4F C3F 1_555 1_555
H3F C4F 1_555 1_555
C5F C4F 1_555 1_555
H4F C5F 1_555 1_555
C6A H5A 1_555 1_555
C7A C6A 1_555 1_555
H6A C7A 1_555 1_555
C8A C8 1_555 1_555
C9A C8A 1_555 1_555
H7A C9A 1_555 1_555
C10A C9A 1_555 1_555
H8A C10A 1_555 1_555
C11F C12F 1_555 1_555
C12F H9F 1_555 1_555
C13F C12F 1_555 1_555
H10F C13F 1_555 1_555
C14F C13F 1_555 1_555
C15F C14F 1_555 1_555
H11F C15F 1_555 1_555
C16F C11F 1_555 1_555
H12F C16F 1_555 1_555
C17F C14F 1_555 1_555
H13F C17F 1_555 1_555
H14F C17F 1_555 1_555
H15F C17F 1_555 1_555
C18F C19F 1_555 1_555
C19F H16F 1_555 1_555
C20F C19F 1_555 1_555
H17F C20F 1_555 1_555
C21F C20F 1_555 1_555
C22F C21F 1_555 1_555
H18F C22F 1_555 1_555
C23F C18F 1_555 1_555
H19F C23F 1_555 1_555
C24F C21F 1_555 1_555
H20F C24F 1_555 1_555
H21F C24F 1_555 1_555
H22F C24F 1_555 1_555
N1F C1F 1_555 1_555
N2A C6A 1_555 1_555
N2F Zn1F 1_555 1_555
S1F C11F 1_555 1_555
S2F C18F 1_555 1_555
Zn1F N1F 1_555 1_555
Zn1A N2A 1_555 1_555
C5 N1 1_555 1_555
C10 N2 1_555 1_555
C15 C16 1_555 1_555
C22 C23 1_555 1_555
C26 N3 1_555 1_555
C27 N3 1_555 1_555
N2 Zn1 1_555 1_555
S1 Zn1 1_555 1_555
S2 Zn1 1_555 1_555
C2F C3F 1_555 1_555
C5F N1F 1_555 1_555
C7A C8A 1_555 1_555
C10A N2A 1_555 1_555
C15F C16F 1_555 1_555
C22F C23F 1_555 1_555
S1F Zn1F 1_555 1_555
S2F Zn1F 1_555 1_555

#END
