
#######################################################################
#
#                 Cambridge Crystallographic Data Centre
#                                CCDC 
#
#######################################################################
#
# If this CIF has been generated from an entry in the Cambridge 
# Structural Database, then it will include bibliographic, chemical, 
# crystal, experimental, refinement or atomic coordinate data resulting 
# from the CCDC's data processing and validation procedures.
#
#######################################################################

data_MUFXER
_symmetry_cell_setting           triclinic
_symmetry_space_group_name_H-M   'P -1'
_symmetry_Int_Tables_number      2
_space_group_name_Hall           '-P 1'
loop_
_symmetry_equiv_pos_site_id
_symmetry_equiv_pos_as_xyz
1 x,y,z
2 -x,-y,-z
_cell_length_a                   10.2697(7)
_cell_length_b                   12.0249(9)
_cell_length_c                   12.1218(9)
_cell_angle_alpha                70.5660(10)
_cell_angle_beta                 85.9660(10)
_cell_angle_gamma                76.6360(10)
_cell_volume                     1373.4
loop_
_atom_site_label
_atom_site_type_symbol
_atom_site_fract_x
_atom_site_fract_y
_atom_site_fract_z
Eu1 Eu 0.827674(15) 0.148164(14) 0.941520(13)
O1 O 1.0123(2) 0.1960(2) 0.8256(2)
O2 O 1.1672(3) 0.0287(2) 0.9032(2)
O3 O 1.6161(2) 0.1069(2) 0.9071(2)
O4 O 1.6838(2) 0.2495(2) 0.7644(2)
O5 O 1.3599(3) 0.4789(3) 0.4309(3)
O6 O 1.1585(4) 0.4600(4) 0.4514(3)
O7 O 0.8874(3) -0.0029(3) 0.8546(3)
O8 O 1.0497(3) -0.1690(2) 0.9091(2)
O9 O 1.2514(5) -0.3211(6) 0.5748(4)
O10 O 1.1354(3) -0.2491(4) 0.4120(3)
H1 H 1.2059 -0.2770 0.3848
O11 O 0.6935(5) -0.0093(5) 0.3848(4)
O12 O 0.6136(5) 0.0649(5) 0.5186(4)
N1 N 0.8092(3) 0.3772(3) 0.9090(3)
N2 N 0.6518(3) 0.2448(3) 1.0632(3)
N3 N 1.2721(4) 0.4325(3) 0.4859(3)
N4 N 0.7003(5) 0.0019(4) 0.4795(4)
C1 C 1.1304(3) 0.1343(3) 0.8376(3)
C2 C 1.2357(3) 0.1951(3) 0.7676(3)
C3 C 1.3659(3) 0.1600(3) 0.8115(3)
H2 H 1.3870 0.0973 0.8818
C4 C 1.4644(3) 0.2179(3) 0.7512(3)
C5 C 1.4355(3) 0.3066(3) 0.6431(3)
H3 H 1.5015 0.3437 0.6003
C6 C 1.3063(4) 0.3383(3) 0.6005(3)
C7 C 1.2041(3) 0.2875(3) 0.6619(3)
H4 H 1.1167 0.3146 0.6333
C8 C 1.5972(3) 0.1883(3) 0.8101(3)
C9 C 0.9629(4) -0.0935(3) 0.8388(3)
C10 C 0.9477(4) -0.1118(3) 0.7241(3)
C11 C 1.0497(4) -0.1838(3) 0.6806(3)
H5 H 1.1257 -0.2272 0.7259
C12 C 1.0389(4) -0.1914(4) 0.5695(3)
C13 C 0.9243(4) -0.1308(4) 0.5039(3)
H6 H 0.9157 -0.1351 0.4297
C14 C 0.8226(4) -0.0634(4) 0.5510(3)
C15 C 0.8324(4) -0.0502(4) 0.6580(3)
H7 H 0.7635 -0.0011 0.6855
C16 C 1.1539(5) -0.2618(5) 0.5210(4)
C17 C 0.8831(5) 0.4427(4) 0.8328(4)
H8 H 0.9268 0.4136 0.7748
C18 C 0.8983(7) 0.5546(5) 0.8363(6)
H9 H 0.9529 0.5978 0.7827
C19 C 0.8315(7) 0.5989(5) 0.9197(7)
H10 H 0.8412 0.6727 0.9233
C20 C 0.7497(6) 0.5348(4) 0.9990(5)
C21 C 0.6725(7) 0.5755(6) 1.0886(7)
H11 H 0.6797 0.6484 1.0960
C22 C 0.5930(8) 0.5137(6) 1.1596(6)
H12 H 0.5423 0.5448 1.2136
C23 C 0.5837(5) 0.3987(5) 1.1547(4)
C24 C 0.5013(6) 0.3287(6) 1.2299(5)
H13 H 0.4511 0.3560 1.2864
C25 C 0.4949(6) 0.2219(6) 1.2201(5)
H14 H 0.4401 0.1749 1.2691
C26 C 0.5719(5) 0.1829(4) 1.1353(4)
H15 H 0.5666 0.1090 1.1290
C27 C 0.6572(4) 0.3530(4) 1.0709(4)
C28 C 0.7410(4) 0.4221(4) 0.9907(4)
Eu1A Eu 1.172326(15) -0.148164(14) 1.058480(13)
Eu1_2 Eu 1.827674(15) 0.148164(14) 0.941520(13)
O2A O 0.8328(3) -0.0287(2) 1.0968(2)
O3_2 O 0.6161(2) 0.1069(2) 0.9071(2)
O4_2 O 0.6838(2) 0.2495(2) 0.7644(2)
O8A O 0.9503(3) 0.1690(2) 1.0909(2)
loop_
_geom_bond_atom_site_label_1
_geom_bond_atom_site_label_2
_geom_bond_site_symmetry_1
_geom_bond_site_symmetry_2
Eu1 O1 1_555 1_555
O1 C1 1_555 1_555
O2 C1 1_555 1_555
O3 C8 1_555 1_555
O4 C8 1_555 1_555
O5 N3 1_555 1_555
O6 N3 1_555 1_555
O7 Eu1 1_555 1_555
O8 C9 1_555 1_555
O9 C16 1_555 1_555
O10 H1 1_555 1_555
O11 N4 1_555 1_555
O12 N4 1_555 1_555
N1 Eu1 1_555 1_555
N2 Eu1 1_555 1_555
N3 C6 1_555 1_555
N4 C14 1_555 1_555
C1 C2 1_555 1_555
C2 C3 1_555 1_555
C3 H2 1_555 1_555
C4 C3 1_555 1_555
C5 C4 1_555 1_555
H3 C5 1_555 1_555
C6 C5 1_555 1_555
C7 C2 1_555 1_555
H4 C7 1_555 1_555
C8 C4 1_555 1_555
C9 O7 1_555 1_555
C10 C9 1_555 1_555
C11 C10 1_555 1_555
H5 C11 1_555 1_555
C12 C11 1_555 1_555
C13 C12 1_555 1_555
H6 C13 1_555 1_555
C14 C13 1_555 1_555
C15 C10 1_555 1_555
H7 C15 1_555 1_555
C16 O10 1_555 1_555
C17 N1 1_555 1_555
H8 C17 1_555 1_555
C18 C17 1_555 1_555
H9 C18 1_555 1_555
C19 C18 1_555 1_555
H10 C19 1_555 1_555
C20 C19 1_555 1_555
C21 C20 1_555 1_555
H11 C21 1_555 1_555
C22 C21 1_555 1_555
H12 C22 1_555 1_555
C23 C22 1_555 1_555
C24 C23 1_555 1_555
H13 C24 1_555 1_555
C25 C24 1_555 1_555
H14 C25 1_555 1_555
C26 N2 1_555 1_555
H15 C26 1_555 1_555
C27 N2 1_555 1_555
C28 N1 1_555 1_555
Eu1A O2 1_555 1_555
Eu1_2 O3 1_555 1_555
O2A Eu1 1_555 1_555
O3_2 Eu1 1_555 1_555
O4_2 Eu1 1_555 1_555
O8A Eu1 1_555 1_555
O4 Eu1_2 1_555 1_555
O8 Eu1A 1_555 1_555
C6 C7 1_555 1_555
C12 C16 1_555 1_555
C14 C15 1_555 1_555
C20 C28 1_555 1_555
C23 C27 1_555 1_555
C25 C26 1_555 1_555
C27 C28 1_555 1_555

#END
