
#######################################################################
#
#                 Cambridge Crystallographic Data Centre
#                                CCDC 
#
#######################################################################
#
# If this CIF has been generated from an entry in the Cambridge 
# Structural Database, then it will include bibliographic, chemical, 
# crystal, experimental, refinement or atomic coordinate data resulting 
# from the CCDC's data processing and validation procedures.
#
#######################################################################

data_MUFXOA
_symmetry_cell_setting           monoclinic
_symmetry_space_group_name_H-M   'P 21/c'
_symmetry_Int_Tables_number      14
_space_group_name_Hall           '-P 2ybc'
loop_
_symmetry_equiv_pos_site_id
_symmetry_equiv_pos_as_xyz
1 x,y,z
2 x,1/2-y,1/2+z
3 -x,-y,-z
4 -x,1/2+y,1/2-z
_cell_length_a                   9.464(4)
_cell_length_b                   14.349(5)
_cell_length_c                   21.674(9)
_cell_angle_alpha                90
_cell_angle_beta                 95.300(10)
_cell_angle_gamma                90
_cell_volume                     2930.72
loop_
_atom_site_label
_atom_site_type_symbol
_atom_site_fract_x
_atom_site_fract_y
_atom_site_fract_z
Ni1 Ni 0.44161(11) 0.64762(8) 0.26363(5)
O1 O 0.5519(5) 0.6223(4) 0.3448(2)
C1 C 0.5025(8) 0.6102(6) 0.3969(4)
C2 C 0.6171(9) 0.5971(7) 0.4508(4)
F1 F 0.5670(5) 0.5919(4) 0.5063(2)
F2 F 0.6898(6) 0.5192(4) 0.4443(3)
F3 F 0.7094(6) 0.6673(4) 0.4538(2)
C3 C 0.3635(9) 0.6063(7) 0.4089(4)
H1 H 0.343(8) 0.587(5) 0.443(3)
C4 C 0.2450(8) 0.6154(6) 0.3626(4)
C5 C 0.0965(9) 0.6055(7) 0.3836(4)
C6 C 0.0652(13) 0.5072(11) 0.4065(7)
H2 H -0.012(11) 0.511(7) 0.414(5)
H3 H 0.138(12) 0.480(8) 0.383(5)
H4 H 0.122(13) 0.497(9) 0.455(6)
C7 C 0.0646(13) 0.6821(12) 0.4287(6)
H5 H 0.085(12) 0.757(9) 0.405(5)
H6 H -0.029(11) 0.683(7) 0.425(4)
H7 H 0.098(8) 0.667(6) 0.465(4)
N1 N 0.0155(7) 0.6226(5) 0.3241(3)
O2 O -0.1183(6) 0.6278(5) 0.3178(3)
C8 C 0.1070(8) 0.6367(6) 0.2725(4)
C9 C 0.0739(12) 0.5600(8) 0.2243(5)
H8 H 0.082(9) 0.493(7) 0.252(4)
H9 H -0.036(8) 0.557(5) 0.210(3)
H10 H 0.117(9) 0.572(6) 0.195(4)
C10 C 0.0772(12) 0.7338(9) 0.2444(7)
H11 H 0.101(10) 0.764(6) 0.273(4)
H12 H 0.144(11) 0.737(7) 0.209(5)
H13 H -0.028(16) 0.744(11) 0.222(6)
N2 N 0.2504(7) 0.6282(5) 0.3039(3)
O3 O 0.3664(6) 0.6978(4) 0.1803(3)
C11 C 0.3441(9) 0.6516(6) 0.1302(4)
C12 C 0.2904(12) 0.7127(8) 0.0756(4)
F4 F 0.1765(9) 0.7594(6) 0.0852(3)
F5 F 0.2612(10) 0.6693(5) 0.0228(3)
F6 F 0.3819(10) 0.7768(6) 0.0635(4)
C13 C 0.3605(11) 0.5585(6) 0.1192(4)
H14 H 0.356(11) 0.532(8) 0.079(5)
C14 C 0.4167(9) 0.4941(6) 0.1660(4)
C15 C 0.4286(9) 0.3921(6) 0.1489(4)
C16 C 0.5133(18) 0.3758(11) 0.0932(6)
H15 H 0.591(11) 0.403(8) 0.096(5)
H16 H 0.543(13) 0.327(9) 0.094(6)
H17 H 0.458(9) 0.398(6) 0.054(4)
C17 C 0.2818(11) 0.3480(8) 0.1396(6)
H18 H 0.222(10) 0.364(7) 0.173(4)
H19 H 0.226(13) 0.333(9) 0.108(6)
H20 H 0.305(10) 0.265(8) 0.138(4)
N3 N 0.5045(7) 0.3590(5) 0.2056(3)
O4 O 0.5876(6) 0.2872(4) 0.2064(3)
C18 C 0.5175(9) 0.4304(6) 0.2572(4)
C19 C 0.6726(13) 0.4415(9) 0.2782(6)
H21 H 0.666(11) 0.473(7) 0.297(5)
H22 H 0.715(9) 0.389(7) 0.293(4)
H23 H 0.743(7) 0.462(5) 0.241(3)
C20 C 0.4270(12) 0.4008(8) 0.3071(5)
H24 H 0.441(10) 0.442(7) 0.333(5)
H25 H 0.315(9) 0.391(6) 0.291(4)
H26 H 0.432(12) 0.347(8) 0.329(5)
N4 N 0.4572(7) 0.5140(5) 0.2240(3)
O5 O 0.6471(7) 0.6812(5) 0.2381(3)
H27 H 0.676(10) 0.675(7) 0.208(4)
H28 H 0.759(14) 0.641(9) 0.273(6)
O4C O 0.4124(6) 0.7872(4) 0.2936(3)
Ni1C Ni 0.55839(11) 0.14762(8) 0.23637(5)
C21 C 0.6986(19) 0.6241(19) 0.0859(8)
H29 H 0.6125 0.6298 0.0582
H30 H 0.6772 0.5973 0.1250
Cl1 Cl 0.7897(15) 0.7271(11) 0.0950(5)
Cl2 Cl 0.8495(17) 0.5559(9) 0.0481(5)
loop_
_geom_bond_atom_site_label_1
_geom_bond_atom_site_label_2
_geom_bond_site_symmetry_1
_geom_bond_site_symmetry_2
Ni1 O1 1_555 1_555
O1 C1 1_555 1_555
C1 C2 1_555 1_555
C2 F1 1_555 1_555
F2 C2 1_555 1_555
F3 C2 1_555 1_555
C3 C1 1_555 1_555
H1 C3 1_555 1_555
C4 C3 1_555 1_555
C5 C4 1_555 1_555
C6 C5 1_555 1_555
H2 C6 1_555 1_555
H3 C6 1_555 1_555
H4 C6 1_555 1_555
C7 C5 1_555 1_555
H5 C7 1_555 1_555
H6 C7 1_555 1_555
H7 C7 1_555 1_555
N1 C5 1_555 1_555
O2 N1 1_555 1_555
C8 N1 1_555 1_555
C9 C8 1_555 1_555
H8 C9 1_555 1_555
H9 C9 1_555 1_555
H10 C9 1_555 1_555
C10 C8 1_555 1_555
H11 C10 1_555 1_555
H12 C10 1_555 1_555
H13 C10 1_555 1_555
N2 Ni1 1_555 1_555
O3 Ni1 1_555 1_555
C11 O3 1_555 1_555
C12 C11 1_555 1_555
F4 C12 1_555 1_555
F5 C12 1_555 1_555
F6 C12 1_555 1_555
C13 C11 1_555 1_555
H14 C13 1_555 1_555
C14 C13 1_555 1_555
C15 C14 1_555 1_555
C16 C15 1_555 1_555
H15 C16 1_555 1_555
H16 C16 1_555 1_555
H17 C16 1_555 1_555
C17 C15 1_555 1_555
H18 C17 1_555 1_555
H19 C17 1_555 1_555
H20 C17 1_555 1_555
N3 C15 1_555 1_555
O4 N3 1_555 1_555
C18 N3 1_555 1_555
C19 C18 1_555 1_555
H21 C19 1_555 1_555
H22 C19 1_555 1_555
H23 C19 1_555 1_555
C20 C18 1_555 1_555
H24 C20 1_555 1_555
H25 C20 1_555 1_555
H26 C20 1_555 1_555
N4 Ni1 1_555 1_555
O5 Ni1 1_555 1_555
H27 O5 1_555 1_555
H28 O5 1_555 1_555
C21 H29 1_555 1_555
H30 C21 1_555 1_555
Cl1 C21 1_555 1_555
Cl2 C21 1_555 1_555
O4C Ni1 1_555 1_555
Ni1C O4 1_555 1_555
C4 N2 1_555 1_555
C8 N2 1_555 1_555
C14 N4 1_555 1_555
C18 N4 1_555 1_555

#END
