
#######################################################################
#
#                 Cambridge Crystallographic Data Centre
#                                CCDC 
#
#######################################################################
#
# If this CIF has been generated from an entry in the Cambridge 
# Structural Database, then it will include bibliographic, chemical, 
# crystal, experimental, refinement or atomic coordinate data resulting 
# from the CCDC's data processing and validation procedures.
#
#######################################################################

data_MUHKOP
_symmetry_cell_setting           monoclinic
_symmetry_space_group_name_H-M   'P 21/c'
_symmetry_Int_Tables_number      14
_space_group_name_Hall           '-P 2ybc'
loop_
_symmetry_equiv_pos_site_id
_symmetry_equiv_pos_as_xyz
1 x,y,z
2 x,1/2-y,1/2+z
3 -x,-y,-z
4 -x,1/2+y,1/2-z
_cell_length_a                   8.6253(2)
_cell_length_b                   12.5777(3)
_cell_length_c                   14.8959(4)
_cell_angle_alpha                90
_cell_angle_beta                 93.421(1)
_cell_angle_gamma                90
_cell_volume                     1613.12
loop_
_atom_site_label
_atom_site_type_symbol
_atom_site_fract_x
_atom_site_fract_y
_atom_site_fract_z
Cu1 Cu 0.15156(2) 0.205528(16) 0.079734(13)
N1 N 0.03922(19) 0.30278(13) 0.15727(11)
N2 N -0.0990(2) 0.45093(18) 0.22089(14)
N3 N -0.0541(2) 0.55705(14) 0.35702(12)
N4 N 0.27261(17) 0.13419(13) -0.01035(10)
N5 N 0.3749(2) 0.01239(13) -0.12001(11)
N6 N 0.3339(3) 0.02462(15) -0.28514(12)
N7 N 0.33995(17) 0.21080(11) 0.16842(9)
N8 N 0.97336(17) 0.27900(11) 0.48605(9)
C1 C -0.0176(2) 0.37402(16) 0.19098(12)
C2 C -0.0665(2) 0.50313(14) 0.29490(12)
C3 C 0.3148(2) 0.07897(14) -0.06569(11)
C4 C 0.3489(2) 0.02333(14) -0.20810(13)
C5 C 0.3230(2) 0.20228(14) 0.25714(11)
H2 H 0.2226 0.1875 0.2770
C6 C 0.4448(2) 0.21406(14) 0.32087(12)
H3 H 0.4280 0.2070 0.3830
C7 C 0.5926(2) 0.23637(14) 0.29289(11)
C8 C 0.7258(2) 0.25151(14) 0.35914(11)
C9 C 0.7150(2) 0.31943(16) 0.43185(13)
H4 H 0.6216 0.3576 0.4394
C10 C 0.8399(2) 0.33149(16) 0.49319(13)
H5 H 0.8308 0.3788 0.5423
C11 C 0.9846(2) 0.21291(16) 0.41610(13)
H6 H 1.0788 0.1748 0.4110
C12 C 0.8658(2) 0.19783(15) 0.35131(13)
H7 H 0.8791 0.1515 0.3020
C13 C 0.6102(2) 0.24337(16) 0.20086(12)
H8 H 0.7096 0.2570 0.1790
C14 C 0.4825(2) 0.23045(15) 0.14137(12)
H9 H 0.4963 0.2357 0.0787
N3C N 0.0541(2) 0.05705(14) 0.14298(12)
N8A N -0.02664(17) 0.22100(11) -0.01395(9)
Cu1C Cu -0.15156(2) 0.705528(16) 0.420266(13)
Cu1A Cu 1.15156(2) 0.294472(16) 0.579734(13)
O1 O 0.2951(2) 0.09502(14) -0.47094(12)
H1 H 0.304(3) 0.073(2) -0.412(2)
C15 C 0.2875(5) -0.0028(2) -0.51791(19)
H10 H 0.3637 -0.0523 -0.4900
H11 H 0.3106 0.0091 -0.5808
H12 H 0.1831 -0.0329 -0.5155
loop_
_geom_bond_atom_site_label_1
_geom_bond_atom_site_label_2
_geom_bond_site_symmetry_1
_geom_bond_site_symmetry_2
Cu1 N1 1_555 1_555
O1 H1 1_555 1_555
N1 C1 1_555 1_555
N2 C1 1_555 1_555
N3 C2 1_555 1_555
N4 Cu1 1_555 1_555
N5 C3 1_555 1_555
N6 C4 1_555 1_555
N7 Cu1 1_555 1_555
N8 C10 1_555 1_555
C2 N2 1_555 1_555
C3 N4 1_555 1_555
C4 N5 1_555 1_555
C5 N7 1_555 1_555
H2 C5 1_555 1_555
C6 C5 1_555 1_555
H3 C6 1_555 1_555
C7 C6 1_555 1_555
C8 C7 1_555 1_555
C9 C8 1_555 1_555
H4 C9 1_555 1_555
C10 C9 1_555 1_555
H5 C10 1_555 1_555
C11 N8 1_555 1_555
H6 C11 1_555 1_555
C12 C8 1_555 1_555
H7 C12 1_555 1_555
C13 C7 1_555 1_555
H8 C13 1_555 1_555
C14 N7 1_555 1_555
H9 C14 1_555 1_555
C15 O1 1_555 1_555
H10 C15 1_555 1_555
H11 C15 1_555 1_555
H12 C15 1_555 1_555
N3C Cu1 1_555 1_555
N8A Cu1 1_555 1_555
Cu1C N3 1_555 1_555
Cu1A N8 1_555 1_555
C11 C12 1_555 1_555
C13 C14 1_555 1_555

#END
