
#######################################################################
#
#                 Cambridge Crystallographic Data Centre
#                                CCDC 
#
#######################################################################
#
# If this CIF has been generated from an entry in the Cambridge 
# Structural Database, then it will include bibliographic, chemical, 
# crystal, experimental, refinement or atomic coordinate data resulting 
# from the CCDC's data processing and validation procedures.
#
#######################################################################

data_MUHMIM
_symmetry_cell_setting           orthorhombic
_symmetry_space_group_name_H-M   'P n c 2'
_symmetry_Int_Tables_number      30
_space_group_name_Hall           'P 2 -2bc'
loop_
_symmetry_equiv_pos_site_id
_symmetry_equiv_pos_as_xyz
1 x,y,z
2 -x,-y,z
3 -x,1/2+y,1/2+z
4 x,1/2-y,1/2+z
_cell_length_a                   7.2420(6)
_cell_length_b                   15.4630(6)
_cell_length_c                   7.1110(11)
_cell_angle_alpha                90
_cell_angle_beta                 90
_cell_angle_gamma                90
_cell_volume                     796.311
loop_
_atom_site_label
_atom_site_type_symbol
_atom_site_fract_x
_atom_site_fract_y
_atom_site_fract_z
Fe1 Fe 0.5000 0.0000 0.5072(9)
Pd1 Pd 0.0000 0.0000 1.0070(2)
Cl1 Cl 0.9515(6) 0.2867(2) 0.4079(7)
N1 N 0.5341(8) 0.1297(3) 0.5035(17)
N2 N 0.313(2) 0.0113(9) 0.697(2)
N3 N 0.308(3) 0.0094(10) 0.313(2)
C1 C 0.7096(7) 0.1634(4) 0.4737(15)
C2 C 0.7361(8) 0.2524(5) 0.4710(16)
C3 C 0.5871(11) 0.3077(3) 0.498(2)
C4 C 0.4116(9) 0.2740(4) 0.5280(18)
C5 C 0.3851(7) 0.1850(4) 0.5307(16)
C6 C 0.188(3) 0.0081(12) 0.809(3)
C7 C 0.199(3) 0.0096(11) 0.205(3)
Pd1_2 Pd 0.0000 0.0000 0.0070(2)
Pd1_3 Pd 1.0000 0.0000 1.0070(2)
Pd1_4 Pd 1.0000 0.0000 0.0070(2)
Cl1A Cl 0.0485(6) -0.2867(2) 0.4079(7)
N1A N 0.4659(8) -0.1297(3) 0.5035(17)
N2A N 0.687(2) -0.0113(9) 0.697(2)
N3A N 0.692(3) -0.0094(10) 0.313(2)
C1A C 0.2904(7) -0.1634(4) 0.4737(15)
C2A C 0.2639(8) -0.2524(5) 0.4710(16)
C3A C 0.4129(11) -0.3077(3) 0.498(2)
C4A C 0.5884(9) -0.2740(4) 0.5280(18)
C5A C 0.6149(7) -0.1850(4) 0.5307(16)
C6A C 0.812(3) -0.0081(12) 0.809(3)
C6A_2 C -0.188(3) -0.0081(12) 0.809(3)
C7A C 0.801(3) -0.0096(11) 0.205(3)
C7_2 C 0.199(3) 0.0096(11) 1.205(3)
C7A_2 C -0.199(3) -0.0096(11) 1.205(3)
loop_
_geom_bond_atom_site_label_1
_geom_bond_atom_site_label_2
_geom_bond_site_symmetry_1
_geom_bond_site_symmetry_2
Fe1 N1 1_555 1_555
Pd1 C6 1_555 1_555
Cl1 C2 1_555 1_555
N1 C1 1_555 1_555
N2 Fe1 1_555 1_555
N3 Fe1 1_555 1_555
C1 C2 1_555 1_555
C2 C3 1_555 1_555
C3 C4 1_555 1_555
C4 C5 1_555 1_555
C5 N1 1_555 1_555
C6 N2 1_555 1_555
C7 N3 1_555 1_555
Pd1_2 C7 1_555 1_555
Pd1_3 C6A 1_555 1_555
Pd1_4 C7A 1_555 1_555
Cl1A C2A 1_555 1_555
N1A Fe1 1_555 1_555
N2A Fe1 1_555 1_555
N3A Fe1 1_555 1_555
C1A N1A 1_555 1_555
C2A C1A 1_555 1_555
C3A C2A 1_555 1_555
C4A C3A 1_555 1_555
C5A N1A 1_555 1_555
C6A N2A 1_555 1_555
C6A_2 Pd1 1_555 1_555
C7A N3A 1_555 1_555
C7_2 Pd1 1_555 1_555
C7A_2 Pd1 1_555 1_555
C4A C5A 1_555 1_555

#END
