
#######################################################################
#
#                 Cambridge Crystallographic Data Centre
#                                CCDC 
#
#######################################################################
#
# If this CIF has been generated from an entry in the Cambridge 
# Structural Database, then it will include bibliographic, chemical, 
# crystal, experimental, refinement or atomic coordinate data resulting 
# from the CCDC's data processing and validation procedures.
#
#######################################################################

data_MUHMIM01
_symmetry_cell_setting           orthorhombic
_symmetry_space_group_name_H-M   'P m n a'
_symmetry_Int_Tables_number      53
_space_group_name_Hall           '-P 2ac 2'
loop_
_symmetry_equiv_pos_site_id
_symmetry_equiv_pos_as_xyz
1 x,y,z
2 1/2-x,-y,1/2+z
3 x,-y,-z
4 1/2-x,y,1/2-z
5 -x,-y,-z
6 1/2+x,y,1/2-z
7 -x,y,z
8 1/2+x,-y,1/2+z
_cell_length_a                   7.2550(6)
_cell_length_b                   14.6810(11)
_cell_length_c                   15.6300(8)
_cell_angle_alpha                90
_cell_angle_beta                 90
_cell_angle_gamma                90
_cell_volume                     1664.76
loop_
_atom_site_label
_atom_site_type_symbol
_atom_site_fract_x
_atom_site_fract_y
_atom_site_fract_z
Fe1 Fe 1.0000 0.5000 0.0000
Fe2 Fe 0.0000 0.0000 0.0000
Pd1 Pd 0.5000 0.24185(7) 0.00062(10)
Cl1 Cl 1.0000 0.7285(6) 0.2903(6)
Cl2 Cl 0.0000 0.2260(5) 0.2852(4)
N1 N 1.0000 0.5232(10) 0.1395(10)
N2 N 0.7924(18) 0.3965(8) 0.0155(7)
N3 N 0.0000 0.0186(8) 0.1279(10)
N4 N 0.1902(15) 0.0923(7) -0.0105(7)
C1 C 1.0000 0.6052(17) 0.1702(16)
H1 H 1.0000 0.6544 0.1328
C2 C 1.0000 0.6211(16) 0.2571(18)
C3 C 1.0000 0.5526(17) 0.3153(14)
H2 H 1.0000 0.5643 0.3738
C4 C 1.0000 0.4672(12) 0.2849(12)
H3 H 1.0000 0.4178 0.3221
C5 C 1.0000 0.4539(14) 0.1980(13)
H4 H 1.0000 0.3944 0.1777
C6 C 0.694(2) 0.3384(8) 0.0115(8)
C7 C 0.3049(17) 0.1470(8) -0.0102(8)
C8 C 0.0000 0.1030(14) 0.1604(12)
H5 H 0.0000 0.1530 0.1239
C9 C 0.0000 0.1163(13) 0.2493(15)
C10 C 0.0000 0.0427(12) 0.3033(12)
H6 H 0.0000 0.0509 0.3623
C11 C 0.0000 -0.0415(16) 0.2693(13)
H7 H 0.0000 -0.0922 0.3051
C12 C 0.0000 -0.0528(14) 0.1838(13)
H8 H 0.0000 -0.1117 0.1619
Fe2_2 Fe 1.0000 0.0000 0.0000
Fe2_3 Fe 0.0000 1.0000 0.0000
Fe2_4 Fe 1.0000 1.0000 0.0000
Pd1B Pd 0.5000 0.75815(7) -0.00062(10)
Pd1B_2 Pd 1.5000 0.75815(7) -0.00062(10)
Pd1_2 Pd 1.5000 0.24185(7) 0.00062(10)
Cl1B Cl 1.0000 0.2715(6) -0.2903(6)
Cl2B Cl 0.0000 -0.2260(5) -0.2852(4)
N1B N 1.0000 0.4768(10) -0.1395(10)
N2B N 0.7924(18) 0.6035(8) -0.0155(7)
N2D N 1.2076(18) 0.6035(8) -0.0155(7)
N2F N 1.2076(18) 0.3965(8) 0.0155(7)
N3B N 0.0000 -0.0186(8) -0.1279(10)
N4F N 0.8098(15) 0.0923(7) -0.0105(7)
N4B N 0.1902(15) 0.9077(7) 0.0105(7)
N4D N 0.8098(15) 0.9077(7) 0.0105(7)
N4B_2 N 0.1902(15) -0.0923(7) 0.0105(7)
N4D_2 N -0.1902(15) -0.0923(7) 0.0105(7)
N4F_2 N -0.1902(15) 0.0923(7) -0.0105(7)
C1B C 1.0000 0.3948(17) -0.1702(16)
H1B H 1.0000 0.3456 -0.1328
C2B C 1.0000 0.3789(16) -0.2571(18)
C3B C 1.0000 0.4474(17) -0.3153(14)
H2B H 1.0000 0.4357 -0.3738
C4B C 1.0000 0.5328(12) -0.2849(12)
H3B H 1.0000 0.5822 -0.3221
C5B C 1.0000 0.5461(14) -0.1980(13)
H4B H 1.0000 0.6056 -0.1777
C6B C 0.694(2) 0.6616(8) -0.0115(8)
C6D C 1.306(2) 0.6616(8) -0.0115(8)
C6F C 1.306(2) 0.3384(8) 0.0115(8)
C6F_2 C 0.306(2) 0.3384(8) 0.0115(8)
C6D_2 C 0.306(2) 0.6616(8) -0.0115(8)
C7F C 0.6951(17) 0.1470(8) -0.0102(8)
C7B C 0.3049(17) 0.8530(8) 0.0102(8)
C7D C 0.6951(17) 0.8530(8) 0.0102(8)
C8B C 0.0000 -0.1030(14) -0.1604(12)
H5B H 0.0000 -0.1530 -0.1239
C9B C 0.0000 -0.1163(13) -0.2493(15)
C10B C 0.0000 -0.0427(12) -0.3033(12)
H6B H 0.0000 -0.0509 -0.3623
C11B C 0.0000 0.0415(16) -0.2693(13)
H7B H 0.0000 0.0922 -0.3051
C12B C 0.0000 0.0528(14) -0.1838(13)
H8B H 0.0000 0.1117 -0.1619
loop_
_geom_bond_atom_site_label_1
_geom_bond_atom_site_label_2
_geom_bond_site_symmetry_1
_geom_bond_site_symmetry_2
Fe1 N1 1_555 1_555
Fe2 N3 1_555 1_555
Pd1 C6 1_555 1_555
Cl1 C2 1_555 1_555
Cl2 C9 1_555 1_555
N1 C1 1_555 1_555
N2 Fe1 1_555 1_555
N3 C8 1_555 1_555
N4 Fe2 1_555 1_555
C1 H1 1_555 1_555
C2 C1 1_555 1_555
C3 C2 1_555 1_555
H2 C3 1_555 1_555
C4 C3 1_555 1_555
H3 C4 1_555 1_555
C5 N1 1_555 1_555
H4 C5 1_555 1_555
C6 N2 1_555 1_555
C7 Pd1 1_555 1_555
C8 H5 1_555 1_555
C9 C8 1_555 1_555
C10 C9 1_555 1_555
H6 C10 1_555 1_555
C11 C10 1_555 1_555
H7 C11 1_555 1_555
C12 N3 1_555 1_555
H8 C12 1_555 1_555
Fe2_2 N4F 1_555 1_555
Fe2_3 N4B 1_555 1_555
Fe2_4 N4D 1_555 1_555
Pd1B C6B 1_555 1_555
Pd1B_2 C6D 1_555 1_555
Pd1_2 C6F 1_555 1_555
Cl1B C2B 1_555 1_555
Cl2B C9B 1_555 1_555
N1B Fe1 1_555 1_555
N2B Fe1 1_555 1_555
N2D Fe1 1_555 1_555
N2F Fe1 1_555 1_555
N3B Fe2 1_555 1_555
N4F C7F 1_555 1_555
N4B C7B 1_555 1_555
N4D C7D 1_555 1_555
N4B_2 Fe2 1_555 1_555
N4D_2 Fe2 1_555 1_555
N4F_2 Fe2 1_555 1_555
C1B N1B 1_555 1_555
H1B C1B 1_555 1_555
C2B C1B 1_555 1_555
C3B C2B 1_555 1_555
H2B C3B 1_555 1_555
C4B C3B 1_555 1_555
H3B C4B 1_555 1_555
C5B N1B 1_555 1_555
H4B C5B 1_555 1_555
C6B N2B 1_555 1_555
C6D N2D 1_555 1_555
C6F N2F 1_555 1_555
C6F_2 Pd1 1_555 1_555
C6D_2 Pd1B 1_555 1_555
C7F Pd1 1_555 1_555
C7B Pd1B 1_555 1_555
C7D Pd1B 1_555 1_555
C8B N3B 1_555 1_555
H5B C8B 1_555 1_555
C9B C8B 1_555 1_555
C10B C9B 1_555 1_555
H6B C10B 1_555 1_555
C11B C10B 1_555 1_555
H7B C11B 1_555 1_555
C12B N3B 1_555 1_555
H8B C12B 1_555 1_555
N4 C7 1_555 1_555
C4 C5 1_555 1_555
C11 C12 1_555 1_555
C4B C5B 1_555 1_555
C11B C12B 1_555 1_555

#END
