
#######################################################################
#
#                 Cambridge Crystallographic Data Centre
#                                CCDC 
#
#######################################################################
#
# If this CIF has been generated from an entry in the Cambridge 
# Structural Database, then it will include bibliographic, chemical, 
# crystal, experimental, refinement or atomic coordinate data resulting 
# from the CCDC's data processing and validation procedures.
#
#######################################################################

data_MUHNAF02
_symmetry_cell_setting           monoclinic
_symmetry_space_group_name_H-M   'C 2/m'
_symmetry_Int_Tables_number      12
_space_group_name_Hall           '-C 2y'
loop_
_symmetry_equiv_pos_site_id
_symmetry_equiv_pos_as_xyz
1 x,y,z
2 -x,y,-z
3 1/2+x,1/2+y,z
4 1/2-x,1/2+y,-z
5 -x,-y,-z
6 x,-y,z
7 1/2-x,1/2-y,-z
8 1/2+x,1/2-y,z
_cell_length_a                   16.0910(6)
_cell_length_b                   7.3290(8)
_cell_length_c                   7.5530(13)
_cell_angle_alpha                90
_cell_angle_beta                 100.762(5)
_cell_angle_gamma                90
_cell_volume                     875.066
loop_
_atom_site_label
_atom_site_type_symbol
_atom_site_fract_x
_atom_site_fract_y
_atom_site_fract_z
Pt1 Pt 0.0000 0.0000 1.0000
Fe1 Fe 0.0000 0.5000 0.5000
Cl1 Cl 0.2813(2) 0.5000 0.1336(4)
N1 N 0.1375(5) 0.5000 0.5024(10)
N2 N 0.0131(3) 0.2955(8) 0.7060(7)
C1 C 0.1673(6) 0.5000 0.3505(13)
H1 H 0.1285 0.5000 0.2426
C2 C 0.2511(7) 0.5000 0.3412(15)
C3 C 0.3111(7) 0.5000 0.4952(15)
H2 H 0.3686 0.5000 0.4919
C4 C 0.2813(7) 0.5000 0.6598(14)
H3 H 0.3187 0.5000 0.7696
C5 C 0.1960(6) 0.5000 0.6530(13)
H4 H 0.1770 0.5000 0.7621
C6 C 0.0096(4) 0.1895(9) 0.8143(8)
Pt1_2 Pt 0.0000 0.0000 0.0000
Pt1_3 Pt 0.0000 1.0000 0.0000
Pt1_4 Pt 0.0000 1.0000 1.0000
Cl1A Cl -0.2813(2) 0.5000 0.8664(4)
N1A N -0.1375(5) 0.5000 0.4976(10)
N2A N -0.0131(3) 0.2955(8) 0.2940(7)
N2D N -0.0131(3) 0.7045(8) 0.2940(7)
N2E N 0.0131(3) 0.7045(8) 0.7060(7)
C1A C -0.1673(6) 0.5000 0.6495(13)
H1A H -0.1285 0.5000 0.7574
C2A C -0.2511(7) 0.5000 0.6588(15)
C3A C -0.3111(7) 0.5000 0.5048(15)
H2A H -0.3686 0.5000 0.5081
C4A C -0.2813(7) 0.5000 0.3402(14)
H3A H -0.3187 0.5000 0.2304
C5A C -0.1960(6) 0.5000 0.3470(13)
H4A H -0.1770 0.5000 0.2379
C6A C -0.0096(4) 0.1895(9) 1.1857(8)
C6D C -0.0096(4) -0.1895(9) 1.1857(8)
C6E C 0.0096(4) -0.1895(9) 0.8143(8)
C6A_2 C -0.0096(4) 0.1895(9) 0.1857(8)
C6D_2 C -0.0096(4) 0.8105(9) 0.1857(8)
C6E_2 C 0.0096(4) 0.8105(9) 0.8143(8)
loop_
_geom_bond_atom_site_label_1
_geom_bond_atom_site_label_2
_geom_bond_site_symmetry_1
_geom_bond_site_symmetry_2
Pt1 C6 1_555 1_555
Fe1 N1 1_555 1_555
Cl1 C2 1_555 1_555
N1 C1 1_555 1_555
N2 Fe1 1_555 1_555
C1 H1 1_555 1_555
C2 C1 1_555 1_555
C3 C2 1_555 1_555
H2 C3 1_555 1_555
C4 C3 1_555 1_555
H3 C4 1_555 1_555
C5 N1 1_555 1_555
H4 C5 1_555 1_555
C6 N2 1_555 1_555
Pt1_2 C6A_2 1_555 1_555
Pt1_3 C6D_2 1_555 1_555
Pt1_4 C6E_2 1_555 1_555
Cl1A C2A 1_555 1_555
N1A Fe1 1_555 1_555
N2A Fe1 1_555 1_555
N2D Fe1 1_555 1_555
N2E Fe1 1_555 1_555
C1A N1A 1_555 1_555
H1A C1A 1_555 1_555
C2A C1A 1_555 1_555
C3A C2A 1_555 1_555
H2A C3A 1_555 1_555
C4A C3A 1_555 1_555
H3A C4A 1_555 1_555
C5A N1A 1_555 1_555
H4A C5A 1_555 1_555
C6A Pt1 1_555 1_555
C6D Pt1 1_555 1_555
C6E Pt1 1_555 1_555
C6A_2 N2A 1_555 1_555
C6D_2 N2D 1_555 1_555
C6E_2 N2E 1_555 1_555
C4 C5 1_555 1_555
C4A C5A 1_555 1_555

#END
