
#######################################################################
#
#                 Cambridge Crystallographic Data Centre
#                                CCDC 
#
#######################################################################
#
# If this CIF has been generated from an entry in the Cambridge 
# Structural Database, then it will include bibliographic, chemical, 
# crystal, experimental, refinement or atomic coordinate data resulting 
# from the CCDC's data processing and validation procedures.
#
#######################################################################

data_MUHNEK
_symmetry_cell_setting           monoclinic
_symmetry_space_group_name_H-M   'P 21/n'
_symmetry_Int_Tables_number      14
_space_group_name_Hall           '-P 2yn'
loop_
_symmetry_equiv_pos_site_id
_symmetry_equiv_pos_as_xyz
1 x,y,z
2 1/2-x,1/2+y,1/2-z
3 -x,-y,-z
4 1/2+x,1/2-y,1/2+z
_cell_length_a                   9.2567(10)
_cell_length_b                   15.269(4)
_cell_length_c                   10.2578(3)
_cell_angle_alpha                90
_cell_angle_beta                 96.720(5)
_cell_angle_gamma                90
_cell_volume                     1439.88
loop_
_atom_site_label
_atom_site_type_symbol
_atom_site_fract_x
_atom_site_fract_y
_atom_site_fract_z
Co1 Co 0.5000 0.0000 1.0000
N1 N -0.2197(3) 0.1469(2) 0.4412(3)
N2 N 0.2310(2) 0.06402(13) 0.76115(19)
H1 H 0.2709 0.1058 0.7220
N3 N 0.0633(2) -0.02739(14) 0.8135(2)
N4 N 0.29841(19) 0.01396(12) 0.85867(18)
N5 N 0.35847(19) -0.09604(12) 1.06339(18)
N6 N 0.36245(19) -0.16062(12) 1.15532(18)
N7 N 0.1453(2) -0.16787(13) 1.0299(2)
N8 N 0.08829(19) -0.40315(12) 1.37423(19)
C1 C -0.0829(3) 0.1741(2) 0.4557(3)
H2 H -0.0563 0.2174 0.3994
C2 C 0.0225(3) 0.1416(2) 0.5495(3)
H3 H 0.1171 0.1631 0.5559
C3 C -0.0140(3) 0.07705(17) 0.6338(2)
C4 C -0.1565(3) 0.0488(2) 0.6199(3)
H4 H -0.1866 0.0057 0.6749
C5 C -0.2538(3) 0.0856(2) 0.5229(3)
H5 H -0.3495 0.0659 0.5146
C6 C 0.0918(2) 0.03826(16) 0.7349(2)
C7 C 0.1923(2) -0.04007(15) 0.8864(2)
C8 C 0.2279(2) -0.10287(15) 0.9919(2)
C9 C 0.2342(2) -0.20113(15) 1.1325(2)
C10 C 0.1884(2) -0.27194(15) 1.2140(2)
C11 C 0.0431(3) -0.29625(19) 1.2025(3)
H6 H -0.0242 -0.2695 1.1406
C12 C -0.0005(3) -0.36030(19) 1.2835(3)
H7 H -0.0987 -0.3749 1.2747
C13 C 0.2283(3) -0.38037(18) 1.3818(3)
H8 H 0.2939 -0.4094 1.4425
C14 C 0.2817(3) -0.31661(18) 1.3054(3)
H9 H 0.3806 -0.3037 1.3154
N1B N 1.2197(3) -0.1469(2) 1.5588(3)
N2B N 0.7690(2) -0.06402(13) 1.23885(19)
H1B H 0.7291 -0.1058 1.2780
N3B N 0.9367(2) 0.02739(14) 1.1865(2)
N4B N 0.70159(19) -0.01396(12) 1.14133(18)
N5B N 0.64153(19) 0.09604(12) 0.93661(18)
N6B N 0.63755(19) 0.16062(12) 0.84468(18)
N7B N 0.8547(2) 0.16787(13) 0.9701(2)
N8B N 0.91171(19) 0.40315(12) 0.62577(19)
C1B C 1.0829(3) -0.1741(2) 1.5443(3)
H2B H 1.0563 -0.2174 1.6006
C2B C 0.9775(3) -0.1416(2) 1.4505(3)
H3B H 0.8829 -0.1631 1.4441
C3B C 1.0140(3) -0.07705(17) 1.3662(2)
C4B C 1.1565(3) -0.0488(2) 1.3801(3)
H4B H 1.1866 -0.0057 1.3251
C5B C 1.2538(3) -0.0856(2) 1.4771(3)
H5B H 1.3495 -0.0659 1.4854
C6B C 0.9082(2) -0.03826(16) 1.2651(2)
C7B C 0.8077(2) 0.04007(15) 1.1136(2)
C8B C 0.7721(2) 0.10287(15) 1.0081(2)
C9B C 0.7658(2) 0.20113(15) 0.8675(2)
C10B C 0.8116(2) 0.27194(15) 0.7860(2)
C11B C 0.9569(3) 0.29625(19) 0.7975(3)
H6B H 1.0242 0.2695 0.8594
C12B C 1.0005(3) 0.36030(19) 0.7165(3)
H7B H 1.0987 0.3749 0.7253
C13B C 0.7717(3) 0.38037(18) 0.6182(3)
H8B H 0.7061 0.4094 0.5575
C14B C 0.7183(3) 0.31661(18) 0.6946(3)
H9B H 0.6194 0.3037 0.6846
Co1A Co 0.0000 -0.5000 1.5000
Co1A_2 Co 1.0000 0.5000 0.5000
N8A N 0.41171(19) 0.09685(12) 1.12577(19)
N8C N 0.58829(19) -0.09685(12) 0.87423(19)
O1 O 0.4045(2) 0.17386(18) 0.6485(3)
H10 H 0.483(3) 0.171(3) 0.702(3)
H11 H 0.405(4) 0.2194(17) 0.601(3)
loop_
_geom_bond_atom_site_label_1
_geom_bond_atom_site_label_2
_geom_bond_site_symmetry_1
_geom_bond_site_symmetry_2
Co1 N4 1_555 1_555
N1 C1 1_555 1_555
N2 H1 1_555 1_555
N3 C6 1_555 1_555
N4 N2 1_555 1_555
N5 Co1 1_555 1_555
N6 N5 1_555 1_555
N7 C8 1_555 1_555
N8 C12 1_555 1_555
C1 H2 1_555 1_555
C2 C1 1_555 1_555
H3 C2 1_555 1_555
C3 C2 1_555 1_555
C4 C3 1_555 1_555
H4 C4 1_555 1_555
C5 N1 1_555 1_555
H5 C5 1_555 1_555
C6 N2 1_555 1_555
C7 N3 1_555 1_555
C8 N5 1_555 1_555
C9 N6 1_555 1_555
C10 C9 1_555 1_555
C11 C10 1_555 1_555
H6 C11 1_555 1_555
C12 C11 1_555 1_555
H7 C12 1_555 1_555
C13 N8 1_555 1_555
H8 C13 1_555 1_555
C14 C10 1_555 1_555
H9 C14 1_555 1_555
O1 H10 1_555 1_555
H11 O1 1_555 1_555
N1B C1B 1_555 1_555
N2B H1B 1_555 1_555
N3B C6B 1_555 1_555
N4B Co1 1_555 1_555
N5B Co1 1_555 1_555
N6B N5B 1_555 1_555
N7B C8B 1_555 1_555
N8B C12B 1_555 1_555
C1B H2B 1_555 1_555
C2B C1B 1_555 1_555
H3B C2B 1_555 1_555
C3B C2B 1_555 1_555
C4B C3B 1_555 1_555
H4B C4B 1_555 1_555
C5B N1B 1_555 1_555
H5B C5B 1_555 1_555
C6B N2B 1_555 1_555
C7B N3B 1_555 1_555
C8B N5B 1_555 1_555
C9B N6B 1_555 1_555
C10B C9B 1_555 1_555
C11B C10B 1_555 1_555
H6B C11B 1_555 1_555
C12B C11B 1_555 1_555
H7B C12B 1_555 1_555
C13B N8B 1_555 1_555
H8B C13B 1_555 1_555
C14B C10B 1_555 1_555
H9B C14B 1_555 1_555
Co1A N8 1_555 1_555
Co1A_2 N8B 1_555 1_555
N8A Co1 1_555 1_555
N8C Co1 1_555 1_555
N4 C7 1_555 1_555
N7 C9 1_555 1_555
C3 C6 1_555 1_555
C4 C5 1_555 1_555
C7 C8 1_555 1_555
C13 C14 1_555 1_555
N2B N4B 1_555 1_555
N4B C7B 1_555 1_555
N7B C9B 1_555 1_555
C3B C6B 1_555 1_555
C4B C5B 1_555 1_555
C7B C8B 1_555 1_555
C13B C14B 1_555 1_555

#END
