
#######################################################################
#
#                 Cambridge Crystallographic Data Centre
#                                CCDC 
#
#######################################################################
#
# If this CIF has been generated from an entry in the Cambridge 
# Structural Database, then it will include bibliographic, chemical, 
# crystal, experimental, refinement or atomic coordinate data resulting 
# from the CCDC's data processing and validation procedures.
#
#######################################################################

data_MUHPIP
_symmetry_cell_setting           monoclinic
_symmetry_space_group_name_H-M   'C 2/m'
_symmetry_Int_Tables_number      12
_space_group_name_Hall           '-C 2y'
loop_
_symmetry_equiv_pos_site_id
_symmetry_equiv_pos_as_xyz
1 x,y,z
2 -x,y,-z
3 1/2+x,1/2+y,z
4 1/2-x,1/2+y,-z
5 -x,-y,-z
6 x,-y,z
7 1/2-x,1/2-y,-z
8 1/2+x,1/2-y,z
_cell_length_a                   17.5140(16)
_cell_length_b                   7.6330(9)
_cell_length_c                   6.9720(7)
_cell_angle_alpha                90
_cell_angle_beta                 91.411(6)
_cell_angle_gamma                90
_cell_volume                     931.765
loop_
_atom_site_label
_atom_site_type_symbol
_atom_site_fract_x
_atom_site_fract_y
_atom_site_fract_z
Fe1 Fe 0.0000 0.5000 0.5000
Pd1 Pd 0.0000 0.0000 0.0000
I1 I 0.34034(4) 0.5000 0.64369(13)
N1 N 0.1142(4) 0.5000 0.3800(11)
N2 N -0.0311(3) 0.3006(7) 0.2941(8)
C1 C 0.1752(6) 0.5000 0.5033(14)
H1 H 0.1666 0.5000 0.6343
C2 C 0.2497(6) 0.5000 0.4428(15)
C3 C 0.2638(7) 0.5000 0.2457(19)
H2 H 0.3133 0.5000 0.2001
C4 C 0.2016(7) 0.5000 0.1243(18)
H3 H 0.2086 0.5000 -0.0075
C5 C 0.1287(6) 0.5000 0.1939(14)
H4 H 0.0877 0.5000 0.1065
C6 C -0.0242(4) 0.1889(8) 0.1879(9)
Pd1_2 Pd 0.0000 0.0000 1.0000
Pd1_3 Pd 0.0000 1.0000 1.0000
Pd1_4 Pd 0.0000 1.0000 0.0000
I1A I -0.34034(4) 0.5000 0.35631(13)
N1A N -0.1142(4) 0.5000 0.6200(11)
N2A N 0.0311(3) 0.3006(7) 0.7059(8)
N2D N 0.0311(3) 0.6994(7) 0.7059(8)
N2E N -0.0311(3) 0.6994(7) 0.2941(8)
C1A C -0.1752(6) 0.5000 0.4967(14)
H1A H -0.1666 0.5000 0.3657
C2A C -0.2497(6) 0.5000 0.5572(15)
C3A C -0.2638(7) 0.5000 0.7543(19)
H2A H -0.3133 0.5000 0.7999
C4A C -0.2016(7) 0.5000 0.8757(18)
H3A H -0.2086 0.5000 1.0075
C5A C -0.1287(6) 0.5000 0.8061(14)
H4A H -0.0877 0.5000 0.8935
C6A C 0.0242(4) 0.1889(8) 0.8121(9)
C6D C 0.0242(4) 0.8111(8) 0.8121(9)
C6E C -0.0242(4) 0.8111(8) 0.1879(9)
C6A_2 C 0.0242(4) 0.1889(8) -0.1879(9)
C6D_2 C 0.0242(4) -0.1889(8) -0.1879(9)
C6E_2 C -0.0242(4) -0.1889(8) 0.1879(9)
loop_
_geom_bond_atom_site_label_1
_geom_bond_atom_site_label_2
_geom_bond_site_symmetry_1
_geom_bond_site_symmetry_2
Fe1 N1 1_555 1_555
Pd1 C6 1_555 1_555
I1 C2 1_555 1_555
N1 C1 1_555 1_555
N2 Fe1 1_555 1_555
C1 H1 1_555 1_555
C2 C1 1_555 1_555
C3 C2 1_555 1_555
H2 C3 1_555 1_555
C4 C3 1_555 1_555
H3 C4 1_555 1_555
C5 N1 1_555 1_555
H4 C5 1_555 1_555
C6 N2 1_555 1_555
Pd1_2 C6A 1_555 1_555
Pd1_3 C6D 1_555 1_555
Pd1_4 C6E 1_555 1_555
I1A C2A 1_555 1_555
N1A Fe1 1_555 1_555
N2A Fe1 1_555 1_555
N2D Fe1 1_555 1_555
N2E Fe1 1_555 1_555
C1A N1A 1_555 1_555
H1A C1A 1_555 1_555
C2A C1A 1_555 1_555
C3A C2A 1_555 1_555
H2A C3A 1_555 1_555
C4A C3A 1_555 1_555
H3A C4A 1_555 1_555
C5A N1A 1_555 1_555
H4A C5A 1_555 1_555
C6A N2A 1_555 1_555
C6D N2D 1_555 1_555
C6E N2E 1_555 1_555
C6A_2 Pd1 1_555 1_555
C6D_2 Pd1 1_555 1_555
C6E_2 Pd1 1_555 1_555
C4 C5 1_555 1_555
C4A C5A 1_555 1_555

#END
