
#######################################################################
#
#                 Cambridge Crystallographic Data Centre
#                                CCDC 
#
#######################################################################
#
# If this CIF has been generated from an entry in the Cambridge 
# Structural Database, then it will include bibliographic, chemical, 
# crystal, experimental, refinement or atomic coordinate data resulting 
# from the CCDC's data processing and validation procedures.
#
#######################################################################

data_MUHQIP
_symmetry_cell_setting           triclinic
_symmetry_space_group_name_H-M   'P -1'
_symmetry_Int_Tables_number      2
_space_group_name_Hall           '-P 1'
loop_
_symmetry_equiv_pos_site_id
_symmetry_equiv_pos_as_xyz
1 x,y,z
2 -x,-y,-z
_cell_length_a                   4.0534(5)
_cell_length_b                   7.9514(9)
_cell_length_c                   8.2802(10)
_cell_angle_alpha                111.113(13)
_cell_angle_beta                 93.818(14)
_cell_angle_gamma                100.634(14)
_cell_volume                     242.092
loop_
_atom_site_label
_atom_site_type_symbol
_atom_site_fract_x
_atom_site_fract_y
_atom_site_fract_z
Br1 Br 0.21520(11) 0.41556(5) 0.66704(5)
Cu1 Cu 0.23220(16) 0.40385(7) 0.36067(7)
N1 N 0.0982(9) 0.1606(4) 0.1505(4)
C1 C 0.3677(13) -0.0003(6) 0.3048(6)
H1 H 0.5478 0.1086 0.3545
H2 H 0.4614 -0.1082 0.2733
H3 H 0.2169 -0.0027 0.3890
C2 C 0.1767(10) 0.0022(5) 0.1459(5)
C3 C -0.0760(11) 0.1574(5) 0.0059(5)
H4 H -0.1323 0.2658 0.0066
C3A C 0.0760(11) -0.1574(5) -0.0059(5)
N1A N -0.0982(9) -0.1606(4) -0.1505(4)
C2A C -0.1767(10) -0.0022(5) -0.1459(5)
C1A C -0.3677(13) 0.0003(6) -0.3048(6)
H1A H -0.5478 -0.1086 -0.3545
H2A H -0.4614 0.1082 -0.2733
H3A H -0.2169 0.0027 -0.3890
H4A H 0.1323 -0.2658 -0.0066
Br1A Br -0.21520(11) 0.58444(5) 0.33296(5)
Cu1A Cu -0.23220(16) 0.59615(7) 0.63933(7)
Cu1A_2 Cu 0.76780(16) 0.59615(7) 0.63933(7)
Br1A_2 Br 0.78480(11) 0.58444(5) 0.33296(5)
Cu1A_3 Cu -0.23220(16) -0.40385(7) -0.36067(7)
Cu1_2 Cu -0.76780(16) 0.40385(7) 0.36067(7)
Br1_2 Br -0.78480(11) 0.41556(5) 0.66704(5)
N1A_2 N -0.0982(9) 0.8394(4) 0.8495(4)
loop_
_geom_bond_atom_site_label_1
_geom_bond_atom_site_label_2
_geom_bond_site_symmetry_1
_geom_bond_site_symmetry_2
Br1 Cu1 1_555 1_555
Cu1 N1 1_555 1_555
N1 C2 1_555 1_555
C1 H1 1_555 1_555
H2 C1 1_555 1_555
H3 C1 1_555 1_555
C2 C1 1_555 1_555
C3 N1 1_555 1_555
H4 C3 1_555 1_555
C3A C2 1_555 1_555
N1A C3A 1_555 1_555
C2A C3 1_555 1_555
C1A C2A 1_555 1_555
H1A C1A 1_555 1_555
H2A C1A 1_555 1_555
H3A C1A 1_555 1_555
H4A C3A 1_555 1_555
Br1A Cu1 1_555 1_555
Cu1A Br1 1_555 1_555
Cu1A_2 Br1 1_555 1_555
Br1A_2 Cu1 1_555 1_555
Cu1A_3 N1A 1_555 1_555
Cu1_2 Br1A 1_555 1_555
Br1_2 Cu1A 1_555 1_555
N1A_2 Cu1A 1_555 1_555
N1A C2A 1_555 1_555
Br1A Cu1A 1_555 1_555
Cu1A_2 Br1A_2 1_555 1_555
Cu1_2 Br1_2 1_555 1_555

#END
