
#######################################################################
#
#                 Cambridge Crystallographic Data Centre
#                                CCDC 
#
#######################################################################
#
# If this CIF has been generated from an entry in the Cambridge 
# Structural Database, then it will include bibliographic, chemical, 
# crystal, experimental, refinement or atomic coordinate data resulting 
# from the CCDC's data processing and validation procedures.
#
#######################################################################

data_MUHQAI
_symmetry_cell_setting           orthorhombic
_symmetry_space_group_name_H-M   'I 21 21 21'
_symmetry_Int_Tables_number      24
_space_group_name_Hall           'I 2b 2c'
loop_
_symmetry_equiv_pos_site_id
_symmetry_equiv_pos_as_xyz
1 x,y,z
2 -x,1/2-y,z
3 x,-y,1/2-z
4 1/2-x,y,-z
5 1/2+x,1/2+y,1/2+z
6 1/2-x,-y,1/2+z
7 1/2+x,1/2-y,-z
8 -x,1/2+y,1/2-z
_cell_length_a                   9.572(3)
_cell_length_b                   17.717(4)
_cell_length_c                   13.715(3)
_cell_angle_alpha                90
_cell_angle_beta                 90
_cell_angle_gamma                90
_cell_volume                     2325.89
loop_
_atom_site_label
_atom_site_type_symbol
_atom_site_fract_x
_atom_site_fract_y
_atom_site_fract_z
Cd1 Cd 1.0000 0.7500 -0.14475(3)
O1 O 1.0000 0.7500 0.0218(4)
H1 H 1.0676 0.7261 0.0418
O2 O 0.7383(5) 0.7854(2) -0.1260(3)
O3 O 0.8479(4) 0.7926(3) -0.2660(3)
C1 C 0.7390(6) 0.8017(3) -0.2147(5)
C2 C 0.6116(6) 0.8356(3) -0.2613(5)
H2 H 0.5284 0.8175 -0.2284
H3 H 0.6065 0.8202 -0.3291
C3 C 0.6175(5) 0.9217(3) -0.2553(4)
C4 C 0.6177(7) 0.9568(3) -0.1666(5)
H4 H 0.6162 0.9282 -0.1097
C5 C 0.6201(6) 0.9650(3) -0.3392(4)
H5 H 0.6235 0.9415 -0.3998
N1 N 0.9293(14) 0.6268(8) -0.1556(7)
C7 C 1.0084(9) 0.5685(3) -0.1206(4)
H7 H 1.0978 0.5824 -0.1008
C8 C 0.9798(8) 0.4953(4) -0.1098(5)
H8 H 1.0419 0.4606 -0.0830
C9 C 0.8518(13) 0.4770(6) -0.1419(8)
C10 C 0.7598(14) 0.5326(6) -0.1770(8)
H9 H 0.6702 0.5197 -0.1971
C13 C 0.8036(12) 0.6047(7) -0.1810(8)
H11 H 0.7411 0.6410 -0.2032
C14 C 0.7277(15) 0.3875(5) -0.0520(7)
H12 H 0.6768 0.3406 -0.0607
H13 H 0.6588 0.4274 -0.0569
C15 C 0.8103(14) 0.3946(6) -0.1359(9)
H14 H 0.7577 0.3800 -0.1934
H15 H 0.8925 0.3628 -0.1312
Cd1B Cd 1.0000 1.2500 -0.35525(3)
Cd1C Cd 0.5000 0.7500 0.14475(3)
H1A H 0.9324 0.7739 0.0418
O2B O 0.7383(5) 1.2146(2) -0.3740(3)
O2A O 1.2617(5) 0.7146(2) -0.1260(3)
O3B O 0.8479(4) 1.2074(3) -0.2340(3)
O3A O 1.1521(4) 0.7074(3) -0.2660(3)
C1B C 0.7390(6) 1.1983(3) -0.2853(5)
C2B C 0.6116(6) 1.1644(3) -0.2387(5)
H2B H 0.5284 1.1825 -0.2716
H3B H 0.6065 1.1798 -0.1709
C3B C 0.6175(5) 1.0783(3) -0.2447(4)
C4B C 0.6177(7) 1.0432(3) -0.3334(5)
H4B H 0.6162 1.0718 -0.3903
C5B C 0.6201(6) 1.0350(3) -0.1608(4)
H5B H 0.6235 1.0585 -0.1002
N1C N 0.5707(14) 0.6268(8) 0.1556(7)
N1A N 1.0707(14) 0.8732(8) -0.1556(7)
C7C C 0.4916(9) 0.5685(3) 0.1206(4)
H7C H 0.4022 0.5824 0.1008
C8C C 0.5202(8) 0.4953(4) 0.1098(5)
H8C H 0.4581 0.4606 0.0830
C9C C 0.6482(13) 0.4770(6) 0.1419(8)
C10C C 0.7402(14) 0.5326(6) 0.1770(8)
H9C H 0.8298 0.5197 0.1971
C13C C 0.6964(12) 0.6047(7) 0.1810(8)
H11C H 0.7589 0.6410 0.2032
C14C C 0.7723(15) 0.3875(5) 0.0520(7)
H12C H 0.8232 0.3406 0.0607
H13C H 0.8412 0.4274 0.0569
C15C C 0.6897(14) 0.3946(6) 0.1359(9)
H14C H 0.7423 0.3800 0.1934
H15C H 0.6075 0.3628 0.1312
O4 O 0.3864(6) 0.6947(4) 0.4615(4)
C6? C 0.7024(12) 0.6096(6) 0.0869(8)
H6? H 0.7625 0.6505 0.0808
C11? C 0.6774(13) 0.4770(7) 0.0762(8)
C12? C 0.7586(12) 0.5392(7) 0.0706(8)
H10? H 0.8530 0.5344 0.0557
N2? N 0.5735(15) 0.6245(8) 0.1100(6)
loop_
_geom_bond_atom_site_label_1
_geom_bond_atom_site_label_2
_geom_bond_site_symmetry_1
_geom_bond_site_symmetry_2
Cd1 O1 1_555 1_555
O1 H1 1_555 1_555
O2 Cd1 1_555 1_555
O3 Cd1 1_555 1_555
C1 O2 1_555 1_555
C2 C1 1_555 1_555
H2 C2 1_555 1_555
H3 C2 1_555 1_555
C3 C2 1_555 1_555
C4 C3 1_555 1_555
H4 C4 1_555 1_555
C5 C3 1_555 1_555
H5 C5 1_555 1_555
N1 Cd1 1_555 1_555
C7 N1 1_555 1_555
H7 C7 1_555 1_555
C8 C7 1_555 1_555
H8 C8 1_555 1_555
C9 C8 1_555 1_555
C10 C9 1_555 1_555
H9 C10 1_555 1_555
C13 N1 1_555 1_555
H11 C13 1_555 1_555
C14 H12 1_555 1_555
H13 C14 1_555 1_555
C15 C9 1_555 1_555
H14 C15 1_555 1_555
H15 C15 1_555 1_555
Cd1B O2B 1_555 1_555
Cd1C N1C 1_555 1_555
H1A O1 1_555 1_555
O2B C1B 1_555 1_555
O2A Cd1 1_555 1_555
O3B Cd1B 1_555 1_555
O3A Cd1 1_555 1_555
C1B O3B 1_555 1_555
C2B C1B 1_555 1_555
H2B C2B 1_555 1_555
H3B C2B 1_555 1_555
C3B C2B 1_555 1_555
C4B C5 1_555 1_555
H4B C4B 1_555 1_555
C5B C4 1_555 1_555
H5B C5B 1_555 1_555
N1C C7C 1_555 1_555
N1A Cd1 1_555 1_555
C7C H7C 1_555 1_555
C8C C7C 1_555 1_555
H8C C8C 1_555 1_555
C9C C8C 1_555 1_555
C10C C9C 1_555 1_555
H9C C10C 1_555 1_555
C13C N1C 1_555 1_555
H11C C13C 1_555 1_555
C14C C14 1_555 1_555
H12C C14C 1_555 1_555
H13C C14C 1_555 1_555
C15C C9C 1_555 1_555
H14C C15C 1_555 1_555
H15C C15C 1_555 1_555
O3 C1 1_555 1_555
C10 C13 1_555 1_555
C14 C15 1_555 1_555
C3B C4B 1_555 1_555
C3B C5B 1_555 1_555
C10C C13C 1_555 1_555
C14C C15C 1_555 1_555

#END
