
#######################################################################
#
#                 Cambridge Crystallographic Data Centre
#                                CCDC 
#
#######################################################################
#
# If this CIF has been generated from an entry in the Cambridge 
# Structural Database, then it will include bibliographic, chemical, 
# crystal, experimental, refinement or atomic coordinate data resulting 
# from the CCDC's data processing and validation procedures.
#
#######################################################################

data_MUHQIQ
_symmetry_cell_setting           triclinic
_symmetry_space_group_name_H-M   'P -1'
_symmetry_Int_Tables_number      2
_space_group_name_Hall           '-P 1'
loop_
_symmetry_equiv_pos_site_id
_symmetry_equiv_pos_as_xyz
1 x,y,z
2 -x,-y,-z
_cell_length_a                   10.363(2)
_cell_length_b                   12.367(3)
_cell_length_c                   13.540(3)
_cell_angle_alpha                108.27(3)
_cell_angle_beta                 106.76(3)
_cell_angle_gamma                91.03(3)
_cell_volume                     1566.56
loop_
_atom_site_label
_atom_site_type_symbol
_atom_site_fract_x
_atom_site_fract_y
_atom_site_fract_z
I1 I -0.20047(5) 0.48184(4) -0.60353(4)
N1 N -0.3458(6) 0.6990(5) -0.3385(5)
C1 C -0.4206(6) 0.5999(6) -0.4174(5)
C2 C -0.4131(7) 0.4934(6) -0.4032(5)
H1 H -0.3559 0.4876 -0.3385
C3 C -0.5111(7) 0.6037(6) -0.5167(6)
H2 H -0.5196 0.6740 -0.5281
C4 C -0.4859(7) 0.8607(6) -0.1765(5)
C5 C 0.0198(7) 0.6802(6) -0.1155(6)
C6 C -0.5669(8) 0.9787(6) -0.3354(6)
C7 C -0.3955(8) 0.9552(7) -0.1026(6)
H3 H -0.3765 1.0158 -0.1250
C8 C -0.0401(7) 0.8112(7) -0.2604(6)
C9 C -0.0437(8) 0.8203(7) -0.3602(7)
H4 H -0.0494 0.7546 -0.4191
C10 C -0.2520(7) 0.6930(6) -0.2385(5)
H5 H -0.2855 0.6304 -0.2203
H6 H -0.2456 0.7637 -0.1792
C11 C -0.6918(8) 1.0178(7) -0.3408(7)
H7 H -0.7615 0.9716 -0.3380
C12 C 0.1563(8) 0.7219(8) -0.0760(7)
H8 H 0.1964 0.7458 -0.1201
C13 C -0.5143(8) 0.7727(7) -0.1421(6)
H9 H -0.5764 0.7099 -0.1902
C14 C -0.0223(9) 1.0169(8) -0.1852(9)
H10 H -0.0141 1.0831 -0.1261
C15 C -0.6135(10) 1.1936(8) -0.3556(6)
H11 H -0.6296 1.2647 -0.3636
C16 C -0.3338(9) 0.9596(8) 0.0038(7)
H12 H -0.2745 1.0237 0.0530
C17 C -0.4501(10) 0.7775(8) -0.0351(7)
H13 H -0.4689 0.7172 -0.0122
C18 C -0.0270(8) 0.9110(7) -0.1732(7)
H14 H -0.0212 0.9059 -0.1050
C19 C -0.4658(8) 1.0507(7) -0.3392(7)
H15 H -0.3803 1.0270 -0.3350
C20 C -0.0388(10) 0.9268(10) -0.3730(9)
H16 H -0.0415 0.9330 -0.4402
C21 C 0.1758(11) 0.6952(9) 0.0943(7)
H17 H 0.2286 0.7001 0.1643
C22 C -0.7155(10) 1.1246(8) -0.3504(8)
H18 H -0.8002 1.1496 -0.3533
C23 C -0.3596(10) 0.8698(9) 0.0369(7)
H19 H -0.3160 0.8717 0.1080
C24 C -0.4897(9) 1.1572(8) -0.3492(7)
H20 H -0.4202 1.2041 -0.3514
C25 C 0.2331(10) 0.7284(9) 0.0271(8)
H21 H 0.3249 0.7556 0.0519
C26 C -0.0352(9) 0.6483(8) -0.0467(7)
H22 H -0.1270 0.6210 -0.0709
C27 C 0.0428(11) 0.6556(10) 0.0586(8)
H23 H 0.0034 0.6332 0.1038
C28 C -0.0298(9) 1.0234(10) -0.2850(11)
H24 H -0.0288 1.0949 -0.2941
I2 I -0.11627(5) 0.30473(5) -0.38447(4)
Cu1 Cu -0.06084(10) 0.51566(9) -0.38806(8)
Cu2 Cu -0.29201(10) 0.30442(9) -0.56716(8)
P1 P -0.54433(18) 0.83870(17) -0.32298(15)
P2 P -0.08051(18) 0.67015(16) -0.25381(15)
C29 C -0.3773(7) 0.8099(6) -0.3469(6)
H25 H -0.3813 0.8112 -0.4190
H26 H -0.3067 0.8691 -0.2931
I1A I 0.20047(5) 0.51816(4) -0.39647(4)
N1A N -0.6542(6) 0.3010(5) -0.6615(5)
C1A C -0.5794(6) 0.4001(6) -0.5826(5)
C2A C -0.5869(7) 0.5066(6) -0.5968(5)
H1A H -0.6441 0.5124 -0.6615
C3A C -0.4889(7) 0.3963(6) -0.4833(6)
H2A H -0.4804 0.3260 -0.4719
C4A C -0.5141(7) 0.1393(6) -0.8235(5)
C5A C -1.0198(7) 0.3198(6) -0.8845(6)
C6A C -0.4331(8) 0.0213(6) -0.6646(6)
C7A C -0.6045(8) 0.0448(7) -0.8974(6)
H3A H -0.6235 -0.0158 -0.8750
C8A C -0.9599(7) 0.1888(7) -0.7396(6)
C9A C -0.9563(8) 0.1797(7) -0.6398(7)
H4A H -0.9506 0.2454 -0.5809
C10A C -0.7480(7) 0.3070(6) -0.7615(5)
H5A H -0.7145 0.3696 -0.7797
H6A H -0.7544 0.2363 -0.8208
C11A C -0.3082(8) -0.0178(7) -0.6592(7)
H7A H -0.2385 0.0284 -0.6620
C12A C -1.1563(8) 0.2781(8) -0.9240(7)
H8A H -1.1964 0.2542 -0.8799
C13A C -0.4857(8) 0.2273(7) -0.8579(6)
H9A H -0.4236 0.2901 -0.8098
C14A C -0.9777(9) -0.0169(8) -0.8148(9)
H10A H -0.9859 -0.0831 -0.8739
C15A C -0.3865(10) -0.1936(8) -0.6444(6)
H11A H -0.3704 -0.2647 -0.6364
C16A C -0.6662(9) 0.0404(8) -1.0038(7)
H12A H -0.7255 -0.0237 -1.0530
C17A C -0.5499(10) 0.2225(8) -0.9649(7)
H13A H -0.5311 0.2828 -0.9878
C18A C -0.9730(8) 0.0890(7) -0.8268(7)
H14A H -0.9788 0.0941 -0.8950
C19A C -0.5342(8) -0.0507(7) -0.6608(7)
H15A H -0.6197 -0.0270 -0.6650
C20A C -0.9612(10) 0.0732(10) -0.6270(9)
H16A H -0.9585 0.0670 -0.5598
C21A C -1.1758(11) 0.3048(9) -1.0943(7)
H17A H -1.2286 0.2999 -1.1643
C22A C -0.2845(10) -0.1246(8) -0.6496(8)
H18A H -0.1998 -0.1496 -0.6467
C23A C -0.6404(10) 0.1302(9) -1.0369(7)
H19A H -0.6840 0.1283 -1.1080
C24A C -0.5103(9) -0.1572(8) -0.6508(7)
H20A H -0.5798 -0.2041 -0.6486
C25A C -1.2331(10) 0.2716(9) -1.0271(8)
H21A H -1.3249 0.2444 -1.0519
C26A C -0.9648(9) 0.3517(8) -0.9533(7)
H22A H -0.8730 0.3790 -0.9291
C27A C -1.0428(11) 0.3444(10) -1.0586(8)
H23A H -1.0034 0.3668 -1.1038
C28A C -0.9702(9) -0.0234(10) -0.7150(11)
H24A H -0.9712 -0.0949 -0.7059
I2A I 0.11627(5) 0.69527(5) -0.61553(4)
Cu1A Cu 0.06084(10) 0.48434(9) -0.61194(8)
Cu1A_2 Cu -0.93916(10) 0.48434(9) -0.61194(8)
Cu2A Cu 0.29201(10) 0.69558(9) -0.43284(8)
Cu2A_2 Cu -0.70799(10) 0.69558(9) -0.43284(8)
P1A P -0.45567(18) 0.16130(17) -0.67702(15)
P1_2 P 0.45567(18) 0.83870(17) -0.32298(15)
P2A P -0.91949(18) 0.32985(16) -0.74619(15)
P2A_2 P 0.08051(18) 0.32985(16) -0.74619(15)
C29A C -0.6227(7) 0.1901(6) -0.6531(6)
H25A H -0.6187 0.1888 -0.5810
H26A H -0.6933 0.1309 -0.7069
N2 N -0.546(3) -0.480(2) -0.890(3)
C30 C -0.436(3) -0.4542(17) -0.8628(11)
C31 C -0.296(2) -0.4322(17) -0.8795(18)
H27 H -0.2332 -0.4775 -0.8483
H28 H -0.2621 -0.3524 -0.8443
H29 H -0.3076 -0.4532 -0.9563
loop_
_geom_bond_atom_site_label_1
_geom_bond_atom_site_label_2
_geom_bond_site_symmetry_1
_geom_bond_site_symmetry_2
I1 Cu1 1_555 1_555
N1 C1 1_555 1_555
C1 C2 1_555 1_555
C2 H1 1_555 1_555
C3 C1 1_555 1_555
H2 C3 1_555 1_555
C4 C7 1_555 1_555
C5 C12 1_555 1_555
C6 C11 1_555 1_555
C7 H3 1_555 1_555
C8 C9 1_555 1_555
C9 H4 1_555 1_555
C10 N1 1_555 1_555
H5 C10 1_555 1_555
H6 C10 1_555 1_555
C11 H7 1_555 1_555
C12 H8 1_555 1_555
C13 C4 1_555 1_555
H9 C13 1_555 1_555
C14 H10 1_555 1_555
C15 H11 1_555 1_555
C16 C7 1_555 1_555
H12 C16 1_555 1_555
C17 C13 1_555 1_555
H13 C17 1_555 1_555
C18 C8 1_555 1_555
H14 C18 1_555 1_555
C19 C6 1_555 1_555
H15 C19 1_555 1_555
C20 C9 1_555 1_555
H16 C20 1_555 1_555
C21 H17 1_555 1_555
C22 C11 1_555 1_555
H18 C22 1_555 1_555
C23 C16 1_555 1_555
H19 C23 1_555 1_555
C24 C15 1_555 1_555
H20 C24 1_555 1_555
C25 C12 1_555 1_555
H21 C25 1_555 1_555
C26 C5 1_555 1_555
H22 C26 1_555 1_555
C27 C21 1_555 1_555
H23 C27 1_555 1_555
C28 C14 1_555 1_555
H24 C28 1_555 1_555
I2 Cu1 1_555 1_555
Cu1 P2 1_555 1_555
Cu2 I1 1_555 1_555
P1 C4 1_555 1_555
P2 C5 1_555 1_555
C29 N1 1_555 1_555
H25 C29 1_555 1_555
H26 C29 1_555 1_555
N2 C30 1_555 1_555
C30 C31 1_555 1_555
C31 H27 1_555 1_555
H28 C31 1_555 1_555
H29 C31 1_555 1_555
I1A Cu1 1_555 1_555
N1A C1A 1_555 1_555
C1A C2A 1_555 1_555
C2A C3 1_555 1_555
H1A C2A 1_555 1_555
C3A C2 1_555 1_555
H2A C3A 1_555 1_555
C4A C7A 1_555 1_555
C5A C12A 1_555 1_555
C6A C11A 1_555 1_555
C7A H3A 1_555 1_555
C8A C9A 1_555 1_555
C9A H4A 1_555 1_555
C10A N1A 1_555 1_555
H5A C10A 1_555 1_555
H6A C10A 1_555 1_555
C11A H7A 1_555 1_555
C12A H8A 1_555 1_555
C13A C4A 1_555 1_555
H9A C13A 1_555 1_555
C14A H10A 1_555 1_555
C15A H11A 1_555 1_555
C16A C7A 1_555 1_555
H12A C16A 1_555 1_555
C17A C13A 1_555 1_555
H13A C17A 1_555 1_555
C18A C8A 1_555 1_555
H14A C18A 1_555 1_555
C19A C6A 1_555 1_555
H15A C19A 1_555 1_555
C20A C9A 1_555 1_555
H16A C20A 1_555 1_555
C21A H17A 1_555 1_555
C22A C11A 1_555 1_555
H18A C22A 1_555 1_555
C23A C16A 1_555 1_555
H19A C23A 1_555 1_555
C24A C15A 1_555 1_555
H20A C24A 1_555 1_555
C25A C12A 1_555 1_555
H21A C25A 1_555 1_555
C26A C5A 1_555 1_555
H22A C26A 1_555 1_555
C27A C21A 1_555 1_555
H23A C27A 1_555 1_555
C28A C14A 1_555 1_555
H24A C28A 1_555 1_555
I2A Cu1A 1_555 1_555
Cu1A I1 1_555 1_555
Cu1A_2 P2A 1_555 1_555
Cu2A I1A 1_555 1_555
Cu2A_2 P1 1_555 1_555
P1A Cu2 1_555 1_555
P1_2 Cu2A 1_555 1_555
P2A C5A 1_555 1_555
P2A_2 Cu1A 1_555 1_555
C29A N1A 1_555 1_555
H25A C29A 1_555 1_555
H26A C29A 1_555 1_555
C6 P1 1_555 1_555
C8 P2 1_555 1_555
C10 P2 1_555 1_555
C14 C18 1_555 1_555
C15 C22 1_555 1_555
C17 C23 1_555 1_555
C19 C24 1_555 1_555
C20 C28 1_555 1_555
C21 C25 1_555 1_555
C26 C27 1_555 1_555
I2 Cu2 1_555 1_555
P1 C29 1_555 1_555
I1A Cu1A 1_555 1_555
C1A C3A 1_555 1_555
C4A P1A 1_555 1_555
C6A P1A 1_555 1_555
C8A P2A 1_555 1_555
C10A P2A 1_555 1_555
C14A C18A 1_555 1_555
C15A C22A 1_555 1_555
C17A C23A 1_555 1_555
C19A C24A 1_555 1_555
C20A C28A 1_555 1_555
C21A C25A 1_555 1_555
C26A C27A 1_555 1_555
I2A Cu2A 1_555 1_555
P1A C29A 1_555 1_555

#END
