
#######################################################################
#
#                 Cambridge Crystallographic Data Centre
#                                CCDC 
#
#######################################################################
#
# If this CIF has been generated from an entry in the Cambridge 
# Structural Database, then it will include bibliographic, chemical, 
# crystal, experimental, refinement or atomic coordinate data resulting 
# from the CCDC's data processing and validation procedures.
#
#######################################################################

data_MUHROX
_symmetry_cell_setting           monoclinic
_symmetry_space_group_name_H-M   'C 2/c'
_symmetry_Int_Tables_number      15
_space_group_name_Hall           '-C 2yn'
loop_
_symmetry_equiv_pos_site_id
_symmetry_equiv_pos_as_xyz
1 x,y,z
2 -x,y,1/2-z
3 1/2+x,1/2+y,z
4 1/2-x,1/2+y,1/2-z
5 -x,-y,-z
6 x,-y,1/2+z
7 1/2-x,1/2-y,-z
8 1/2+x,1/2-y,1/2+z
_cell_length_a                   23.219(4)
_cell_length_b                   8.0004(12)
_cell_length_c                   29.702(4)
_cell_angle_alpha                90
_cell_angle_beta                 108.004(2)
_cell_angle_gamma                90
_cell_volume                     5247.32
loop_
_atom_site_label
_atom_site_type_symbol
_atom_site_fract_x
_atom_site_fract_y
_atom_site_fract_z
Cu1 Cu 0.249500(13) 0.94565(4) -0.168920(10)
Cu2 Cu 0.336070(13) 0.66422(4) -0.165740(10)
Cu3 Cu 0.2500 0.7500 0.0000
O1 O 0.32480(8) 0.8539(2) -0.12868(6)
O2 O 0.35473(7) 0.4995(2) -0.20603(6)
O3 O 0.43860(8) 0.2906(2) -0.06680(6)
H1 H 0.4127 0.3329 -0.0557
O4 O 0.53163(9) 0.6152(3) -0.12912(8)
H2 H 0.5662 0.6335 -0.1100
O5 O 0.18185(8) 1.0563(2) -0.21029(6)
O6 O 0.14823(10) 1.1905(2) -0.08373(8)
H3 H 0.1721 1.1087 -0.0773
O7 O 0.27886(8) 1.4678(2) -0.13134(6)
H4 H 0.2678 1.5186 -0.1107
N1 N 0.41217(9) 0.6031(3) -0.12028(7)
N2 N 0.24840(9) 1.1197(3) -0.12414(7)
N3 N 0.26164(10) 0.7619(2) -0.21034(7)
N4 N 0.22270(9) 0.6917(3) -0.24220(8)
N5 N 0.18766(10) 0.6281(3) -0.27261(8)
N6 N 0.12397(12) 1.0391(3) 0.00891(9)
N7 N 0.16949(11) 0.9679(3) 0.02310(8)
N8 N 0.21693(11) 0.8966(3) 0.03917(9)
N9 N 0.19199(16) 0.8478(5) -0.05698(10)
N10 N 0.18782(12) 0.7960(3) -0.09569(9)
N11 N 0.18471(12) 0.7571(3) -0.13377(9)
C1 C 0.44722(12) 0.9898(3) 0.06536(9)
H5 H 0.4271 0.9259 0.0844
H6 H 0.4896 0.9547 0.0733
H7 H 0.4454 1.1093 0.0721
C2 C 0.41569(11) 0.9585(3) 0.01364(9)
C3 C 0.43737(11) 0.8403(3) -0.01149(9)
H8 H 0.4737 0.7824 0.0044
C4 C 0.40815(11) 0.8032(3) -0.05884(9)
C5 C 0.35446(11) 0.8906(3) -0.08372(8)
C6 C 0.33364(11) 1.0172(3) -0.05926(9)
C7 C 0.36422(11) 1.0470(3) -0.01118(9)
H9 H 0.3492 1.1307 0.0049
C8 C 0.43506(11) 0.6691(3) -0.07918(9)
H10 H 0.4730 0.6268 -0.0602
C9 C 0.28305(11) 1.1277(3) -0.08114(9)
H11 H 0.2749 1.2137 -0.0619
C10 C 0.44036(11) 0.4560(3) -0.13550(9)
C11 C 0.41741(12) 0.2987(3) -0.11676(9)
H12 H 0.4312 0.1983 -0.1300
H13 H 0.3726 0.2988 -0.1275
C12 C 0.50994(11) 0.4587(3) -0.11850(9)
H14 H 0.5255 0.3680 -0.1342
H15 H 0.5249 0.4391 -0.0839
C13 C 0.41731(12) 0.4547(3) -0.18994(9)
H16 H 0.4227 0.3420 -0.2018
H17 H 0.4410 0.5351 -0.2025
C14 C 0.20019(11) 1.2464(3) -0.14382(9)
C15 C 0.15273(12) 1.1571(3) -0.18451(9)
H18 H 0.1268 1.2410 -0.2059
H19 H 0.1266 1.0864 -0.1716
C16 C 0.22765(11) 1.3906(3) -0.16438(9)
H20 H 0.1960 1.4765 -0.1768
H21 H 0.2399 1.3477 -0.1914
C17 C 0.17133(11) 1.3142(3) -0.10764(9)
H22 H 0.1379 1.3905 -0.1241
H23 H 0.2020 1.3809 -0.0838
Cu1F Cu 0.250500(13) 0.55435(4) 0.168920(10)
Cu2F Cu 0.163930(13) 0.83578(4) 0.165740(10)
Cu2_2 Cu 0.336070(13) 1.66422(4) -0.165740(10)
Cu2F_2 Cu 0.163930(13) -0.16422(4) 0.165740(10)
O1F O 0.17520(8) 0.6461(2) 0.12868(6)
O2F O 0.14527(7) 1.0005(2) 0.20603(6)
O3F O 0.06140(8) 1.2094(2) 0.06680(6)
H1F H 0.0873 1.1671 0.0557
O4F O -0.03163(9) 0.8848(3) 0.12912(8)
H2F H -0.0662 0.8665 0.1100
O5F O 0.31815(8) 0.4437(2) 0.21029(6)
O6F O 0.35177(10) 0.3095(2) 0.08373(8)
H3F H 0.3279 0.3913 0.0773
O7F O 0.22114(8) 0.0322(2) 0.13134(6)
O7_2 O 0.27886(8) 0.4678(2) -0.13134(6)
O7F_2 O 0.22114(8) 1.0322(2) 0.13134(6)
H4F H 0.2322 -0.0186 0.1107
H4_2 H 0.2678 0.5186 -0.1107
H4F_2 H 0.2322 0.9814 0.1107
N1F N 0.08783(9) 0.8969(3) 0.12028(7)
N2F N 0.25160(9) 0.3803(3) 0.12414(7)
N3F N 0.23836(10) 0.7381(2) 0.21034(7)
N4F N 0.27730(9) 0.8083(3) 0.24220(8)
N5F N 0.31234(10) 0.8719(3) 0.27261(8)
N6F N 0.37603(12) 0.4609(3) -0.00891(9)
N7F N 0.33051(11) 0.5321(3) -0.02310(8)
N8F N 0.28307(11) 0.6034(3) -0.03917(9)
N9F N 0.30801(16) 0.6522(5) 0.05698(10)
N10F N 0.31218(12) 0.7040(3) 0.09569(9)
N11F N 0.31529(12) 0.7429(3) 0.13377(9)
C1F C 0.05278(12) 0.5102(3) -0.06536(9)
H5F H 0.0729 0.5741 -0.0844
H6F H 0.0104 0.5453 -0.0733
H7F H 0.0546 0.3907 -0.0721
C2F C 0.08431(11) 0.5415(3) -0.01364(9)
C3F C 0.06263(11) 0.6597(3) 0.01149(9)
H8F H 0.0263 0.7176 -0.0044
C4F C 0.09185(11) 0.6968(3) 0.05884(9)
C5F C 0.14554(11) 0.6094(3) 0.08372(8)
C6F C 0.16636(11) 0.4828(3) 0.05926(9)
C7F C 0.13578(11) 0.4530(3) 0.01118(9)
H9F H 0.1508 0.3693 -0.0049
C8F C 0.06494(11) 0.8309(3) 0.07918(9)
H10F H 0.0270 0.8732 0.0602
C9F C 0.21695(11) 0.3723(3) 0.08114(9)
H11F H 0.2251 0.2863 0.0619
C10F C 0.05964(11) 1.0440(3) 0.13550(9)
C11F C 0.08259(12) 1.2013(3) 0.11676(9)
H12F H 0.0688 1.3017 0.1300
H13F H 0.1274 1.2012 0.1275
C12F C -0.00994(11) 1.0413(3) 0.11850(9)
H14F H -0.0255 1.1320 0.1342
H15F H -0.0249 1.0609 0.0839
C13F C 0.08269(12) 1.0453(3) 0.18994(9)
H16F H 0.0773 1.1580 0.2018
H17F H 0.0590 0.9649 0.2025
C14F C 0.29981(11) 0.2536(3) 0.14382(9)
C15F C 0.34727(12) 0.3429(3) 0.18451(9)
H18F H 0.3732 0.2590 0.2059
H19F H 0.3734 0.4136 0.1716
C16F C 0.27235(11) 0.1094(3) 0.16438(9)
H20F H 0.3040 0.0235 0.1768
H21F H 0.2601 0.1523 0.1914
C17F C 0.32867(11) 0.1858(3) 0.10764(9)
H22F H 0.3621 0.1095 0.1241
H23F H 0.2980 0.1191 0.0838
loop_
_geom_bond_atom_site_label_1
_geom_bond_atom_site_label_2
_geom_bond_site_symmetry_1
_geom_bond_site_symmetry_2
Cu1 O1 1_555 1_555
Cu2 O1 1_555 1_555
Cu3 N8 1_555 1_555
O1 C5 1_555 1_555
O2 Cu2 1_555 1_555
O3 H1 1_555 1_555
O4 H2 1_555 1_555
O5 Cu1 1_555 1_555
O6 H3 1_555 1_555
O7 H4 1_555 1_555
N1 Cu2 1_555 1_555
N2 Cu1 1_555 1_555
N3 Cu1 1_555 1_555
N4 N3 1_555 1_555
N5 N4 1_555 1_555
N6 N7 1_555 1_555
N7 N8 1_555 1_555
N9 Cu3 1_555 1_555
N10 N9 1_555 1_555
N11 Cu1 1_555 1_555
C1 H5 1_555 1_555
H6 C1 1_555 1_555
H7 C1 1_555 1_555
C2 C1 1_555 1_555
C3 C2 1_555 1_555
H8 C3 1_555 1_555
C4 C3 1_555 1_555
C5 C4 1_555 1_555
C6 C5 1_555 1_555
C7 C2 1_555 1_555
H9 C7 1_555 1_555
C8 N1 1_555 1_555
H10 C8 1_555 1_555
C9 N2 1_555 1_555
H11 C9 1_555 1_555
C10 N1 1_555 1_555
C11 O3 1_555 1_555
H12 C11 1_555 1_555
H13 C11 1_555 1_555
C12 O4 1_555 1_555
H14 C12 1_555 1_555
H15 C12 1_555 1_555
C13 O2 1_555 1_555
H16 C13 1_555 1_555
H17 C13 1_555 1_555
C14 N2 1_555 1_555
C15 O5 1_555 1_555
H18 C15 1_555 1_555
H19 C15 1_555 1_555
C16 O7 1_555 1_555
H20 C16 1_555 1_555
H21 C16 1_555 1_555
C17 O6 1_555 1_555
H22 C17 1_555 1_555
H23 C17 1_555 1_555
Cu1F O1F 1_555 1_555
Cu2F O1F 1_555 1_555
Cu2_2 O7 1_555 1_555
Cu2F_2 O7F 1_555 1_555
O1F C5F 1_555 1_555
O2F Cu2F 1_555 1_555
O3F H1F 1_555 1_555
O4F H2F 1_555 1_555
O5F Cu1F 1_555 1_555
O6F H3F 1_555 1_555
O7F H4F 1_555 1_555
O7_2 Cu2 1_555 1_555
O7F_2 Cu2F 1_555 1_555
H4_2 O7_2 1_555 1_555
H4F_2 O7F_2 1_555 1_555
N1F Cu2F 1_555 1_555
N2F Cu1F 1_555 1_555
N3F Cu1F 1_555 1_555
N4F N3F 1_555 1_555
N5F N4F 1_555 1_555
N6F N7F 1_555 1_555
N7F N8F 1_555 1_555
N8F Cu3 1_555 1_555
N9F Cu3 1_555 1_555
N10F N9F 1_555 1_555
N11F Cu1F 1_555 1_555
C1F H5F 1_555 1_555
H6F C1F 1_555 1_555
H7F C1F 1_555 1_555
C2F C1F 1_555 1_555
C3F C2F 1_555 1_555
H8F C3F 1_555 1_555
C4F C3F 1_555 1_555
C5F C4F 1_555 1_555
C6F C5F 1_555 1_555
C7F C2F 1_555 1_555
H9F C7F 1_555 1_555
C8F N1F 1_555 1_555
H10F C8F 1_555 1_555
C9F N2F 1_555 1_555
H11F C9F 1_555 1_555
C10F N1F 1_555 1_555
C11F O3F 1_555 1_555
H12F C11F 1_555 1_555
H13F C11F 1_555 1_555
C12F O4F 1_555 1_555
H14F C12F 1_555 1_555
H15F C12F 1_555 1_555
C13F O2F 1_555 1_555
H16F C13F 1_555 1_555
H17F C13F 1_555 1_555
C14F N2F 1_555 1_555
C15F O5F 1_555 1_555
H18F C15F 1_555 1_555
H19F C15F 1_555 1_555
C16F O7F 1_555 1_555
H20F C16F 1_555 1_555
H21F C16F 1_555 1_555
C17F O6F 1_555 1_555
H22F C17F 1_555 1_555
H23F C17F 1_555 1_555
Cu2 N3 1_555 1_555
N10 N11 1_555 1_555
C4 C8 1_555 1_555
C6 C7 1_555 1_555
C6 C9 1_555 1_555
C10 C11 1_555 1_555
C10 C12 1_555 1_555
C10 C13 1_555 1_555
C14 C15 1_555 1_555
C14 C16 1_555 1_555
C14 C17 1_555 1_555
Cu2F N3F 1_555 1_555
N10F N11F 1_555 1_555
C4F C8F 1_555 1_555
C6F C7F 1_555 1_555
C6F C9F 1_555 1_555
C10F C11F 1_555 1_555
C10F C12F 1_555 1_555
C10F C13F 1_555 1_555
C14F C15F 1_555 1_555
C14F C16F 1_555 1_555
C14F C17F 1_555 1_555

#END
