
#######################################################################
#
#                 Cambridge Crystallographic Data Centre
#                                CCDC 
#
#######################################################################
#
# If this CIF has been generated from an entry in the Cambridge 
# Structural Database, then it will include bibliographic, chemical, 
# crystal, experimental, refinement or atomic coordinate data resulting 
# from the CCDC's data processing and validation procedures.
#
#######################################################################

data_MUHSEN
_symmetry_cell_setting           triclinic
_symmetry_space_group_name_H-M   'P -1'
_symmetry_Int_Tables_number      2
_space_group_name_Hall           '-P 1'
loop_
_symmetry_equiv_pos_site_id
_symmetry_equiv_pos_as_xyz
1 x,y,z
2 -x,-y,-z
_cell_length_a                   9.782(2)
_cell_length_b                   6.5124(14)
_cell_length_c                   19.765(4)
_cell_angle_alpha                89.94(2)
_cell_angle_beta                 100.656(15)
_cell_angle_gamma                89.86(2)
_cell_volume                     1237.4
loop_
_atom_site_label
_atom_site_type_symbol
_atom_site_fract_x
_atom_site_fract_y
_atom_site_fract_z
V1 V 0.43417(5) 0.75014(8) 0.15822(2)
V2 V 0.54872(5) 0.25007(8) 0.36810(2)
V3 V 0.37289(5) 0.24993(8) 0.19744(2)
V4 V 0.59999(5) 0.74995(8) 0.32416(2)
O1 O 0.4013(2) 0.4650(3) 0.15016(9)
O2 O 0.4633(2) 0.7498(3) 0.25058(9)
O3 O 0.4926(2) 0.2496(3) 0.27635(10)
O4 O 0.5825(2) 0.5349(3) 0.37341(9)
O5 O 0.5835(2) 0.7507(4) 0.13740(11)
O6 O 0.2167(2) 0.2495(4) 0.21181(11)
O7 O 0.4014(2) 1.0354(3) 0.15021(9)
O8 O 0.7482(2) 0.7503(4) 0.30005(11)
O9 O 0.4117(2) 0.2499(3) 0.40055(11)
O10 O 0.5826(2) 0.9648(3) 0.37349(9)
N1 N 0.3368(2) 0.7498(4) 0.04925(11)
N2 N 0.1976(2) 0.7502(4) 0.15300(11)
C1 C 0.4087(4) 0.7499(5) -0.0017(2)
H1 H 0.5053(4) 0.7497(5) 0.0093(2)
C2 C 0.3449(4) 0.7504(6) -0.0707(2)
H2 H 0.3982(4) 0.7509(6) -0.1051(2)
C3 C 0.2031(4) 0.7503(6) -0.0872(2)
H3 H 0.1591(4) 0.7500(6) -0.1332(2)
C4 C 0.1250(3) 0.7506(5) -0.0356(2)
C5 C 0.1963(3) 0.7499(5) 0.03285(14)
C6 C 0.1218(3) 0.7499(4) 0.08871(14)
C7 C -0.0246(3) 0.7498(5) 0.0748(2)
C8 C -0.0910(3) 0.7495(6) 0.1314(2)
H4 H -0.1876(3) 0.7495(6) 0.1247(2)
C9 C -0.0146(4) 0.7492(6) 0.1965(2)
H5 H -0.0583(4) 0.7483(6) 0.2344(2)
C10 C 0.1306(3) 0.7501(5) 0.2051(2)
H6 H 0.1822(3) 0.7506(5) 0.2497(2)
C11 C -0.0242(4) 0.7491(6) -0.0476(2)
H7 H -0.0732(4) 0.7480(6) -0.0927(2)
C12 C -0.0947(3) 0.7492(6) 0.0045(2)
H8 H -0.1914(3) 0.7489(6) -0.0053(2)
N3 N 0.7752(2) 0.2500(4) 0.35164(11)
N4 N 0.6806(2) 0.2504(4) 0.46970(11)
C13 C 0.8198(3) 0.2495(5) 0.29252(15)
H9 H 0.7543(3) 0.2489(5) 0.25189(15)
C14 C 0.9609(3) 0.2497(5) 0.2882(2)
H10 H 0.9877(3) 0.2499(5) 0.2454(2)
C15 C 1.0585(3) 0.2495(5) 0.3468(2)
H11 H 1.1527(3) 0.2489(5) 0.3445(2)
C16 C 1.0154(3) 0.2503(5) 0.4111(2)
C17 C 0.8716(3) 0.2496(4) 0.40999(14)
C18 C 0.8210(3) 0.2507(4) 0.47361(14)
C19 C 0.9154(3) 0.2499(5) 0.53596(14)
C20 C 0.8591(3) 0.2501(5) 0.59651(15)
H12 H 0.9177(3) 0.2495(5) 0.63932(15)
C21 C 0.7198(4) 0.2511(6) 0.5923(2)
H13 H 0.6825(4) 0.2521(6) 0.6323(2)
C22 C 0.6318(3) 0.2506(5) 0.52843(15)
H14 H 0.5361(3) 0.2504(5) 0.52659(15)
C23 C 1.1091(3) 0.2489(5) 0.4758(2)
H15 H 1.2045(3) 0.2470(5) 0.4767(2)
C24 C 1.0607(3) 0.2503(5) 0.5356(2)
H16 H 1.1234(3) 0.2516(5) 0.5771(2)
O10_2 O 0.5826(2) -0.0352(3) 0.37349(9)
O7_2 O 0.4014(2) 0.0354(3) 0.15021(9)
V3_2 V 0.37289(5) 1.24993(8) 0.19744(2)
V2_2 V 0.54872(5) 1.25007(8) 0.36810(2)
loop_
_geom_bond_atom_site_label_1
_geom_bond_atom_site_label_2
_geom_bond_site_symmetry_1
_geom_bond_site_symmetry_2
V1 O1 1_555 1_555
V2 O3 1_555 1_555
V3 O1 1_555 1_555
V4 O2 1_555 1_555
O2 V1 1_555 1_555
O3 V3 1_555 1_555
O4 V2 1_555 1_555
O5 V1 1_555 1_555
O6 V3 1_555 1_555
O7 V1 1_555 1_555
O8 V4 1_555 1_555
O9 V2 1_555 1_555
O10 V4 1_555 1_555
N1 V1 1_555 1_555
N2 V1 1_555 1_555
C1 N1 1_555 1_555
H1 C1 1_555 1_555
C2 C1 1_555 1_555
H2 C2 1_555 1_555
C3 C2 1_555 1_555
H3 C3 1_555 1_555
C4 C3 1_555 1_555
C5 N1 1_555 1_555
C6 N2 1_555 1_555
C7 C6 1_555 1_555
C8 C7 1_555 1_555
H4 C8 1_555 1_555
C9 C8 1_555 1_555
H5 C9 1_555 1_555
C10 N2 1_555 1_555
H6 C10 1_555 1_555
C11 C4 1_555 1_555
H7 C11 1_555 1_555
C12 C7 1_555 1_555
H8 C12 1_555 1_555
N3 V2 1_555 1_555
N4 V2 1_555 1_555
C13 N3 1_555 1_555
H9 C13 1_555 1_555
C14 C13 1_555 1_555
H10 C14 1_555 1_555
C15 C14 1_555 1_555
H11 C15 1_555 1_555
C16 C15 1_555 1_555
C17 N3 1_555 1_555
C18 N4 1_555 1_555
C19 C18 1_555 1_555
C20 C19 1_555 1_555
H12 C20 1_555 1_555
C21 C20 1_555 1_555
H13 C21 1_555 1_555
C22 N4 1_555 1_555
H14 C22 1_555 1_555
C23 C16 1_555 1_555
H15 C23 1_555 1_555
C24 C19 1_555 1_555
H16 C24 1_555 1_555
O10_2 V2 1_555 1_555
O7_2 V3 1_555 1_555
V3_2 O7 1_555 1_555
V2_2 O10 1_555 1_555
V4 O4 1_555 1_555
C4 C5 1_555 1_555
C5 C6 1_555 1_555
C9 C10 1_555 1_555
C11 C12 1_555 1_555
C16 C17 1_555 1_555
C17 C18 1_555 1_555
C21 C22 1_555 1_555
C23 C24 1_555 1_555

#END
