
#######################################################################
#
#                 Cambridge Crystallographic Data Centre
#                                CCDC 
#
#######################################################################
#
# If this CIF has been generated from an entry in the Cambridge 
# Structural Database, then it will include bibliographic, chemical, 
# crystal, experimental, refinement or atomic coordinate data resulting 
# from the CCDC's data processing and validation procedures.
#
#######################################################################

data_MUJNEM
_symmetry_cell_setting           monoclinic
_symmetry_space_group_name_H-M   'P 21/c'
_symmetry_Int_Tables_number      14
_space_group_name_Hall           '-P 2ybc'
loop_
_symmetry_equiv_pos_site_id
_symmetry_equiv_pos_as_xyz
1 x,y,z
2 -x,1/2+y,1/2-z
3 -x,-y,-z
4 x,1/2-y,1/2+z
_cell_length_a                   15.1483(5)
_cell_length_b                   13.8900(4)
_cell_length_c                   16.2854(5)
_cell_angle_alpha                90
_cell_angle_beta                 112.383(3)
_cell_angle_gamma                90
_cell_volume                     3168.45
loop_
_atom_site_label
_atom_site_type_symbol
_atom_site_fract_x
_atom_site_fract_y
_atom_site_fract_z
Pb1 Pb 0.252071(9) 0.345578(9) 0.499334(8)
P1 P -0.00524(7) 0.34133(6) 0.48308(6)
P2 P 0.50794(7) 0.34247(6) 0.51944(6)
P3 P 0.23933(7) 0.13753(7) 0.35559(6)
O1 O 0.09850(18) 0.31423(18) 0.51637(16)
O2 O 0.40520(18) 0.31617(18) 0.46812(16)
O3 O 0.19946(17) 0.20401(18) 0.40578(15)
O4 O 0.1289(2) 0.4264(2) 0.34040(18)
O5 O 0.3798(2) 0.4647(2) 0.6401(2)
N1 N 0.1568(3) 0.5115(3) 0.3544(2)
C1 C 0.3385(3) 0.0684(3) 0.4298(2)
H1 H 0.3878 0.1136 0.4674
H2 H 0.3161 0.0303 0.4695
N2 N 0.3166(3) 0.5150(2) 0.6497(2)
C2 C -0.0639(3) 0.3384(3) 0.3648(3)
H3 H -0.1323 0.3537 0.3488
H4 H -0.0363 0.3893 0.3392
C3 C 0.5533(3) 0.2815(3) 0.6261(3)
H5 H 0.5164 0.3042 0.6611
H6 H 0.5406 0.2118 0.6154
C4 C 0.1495(3) 0.0548(3) 0.2880(2)
H7 H 0.0948 0.0920 0.2468
H8 H 0.1762 0.0161 0.2519
C5 C 0.5829(3) 0.3132(3) 0.4599(3)
H9 H 0.5648 0.3549 0.4067
H10 H 0.6499 0.3286 0.4981
C6 C -0.0652(3) 0.2587(3) 0.5308(3)
H11 H -0.0478 0.1922 0.5210
H12 H -0.0404 0.2695 0.5958
C7 C 0.1135(3) -0.0130(3) 0.3420(3)
H13 H 0.1655 -0.0555 0.3778
H14 H 0.0607 -0.0518 0.3017
H15 H 0.0912 0.0247 0.3812
C8 C 0.5781(3) 0.2086(3) 0.4305(3)
H16 H 0.6039 0.1670 0.4829
H17 H 0.6156 0.2005 0.3935
H18 H 0.5115 0.1910 0.3962
C9 C -0.1730(3) 0.2656(4) 0.4955(3)
H19 H -0.1917 0.3312 0.5039
H20 H -0.1978 0.2202 0.5276
H21 H -0.1993 0.2498 0.4321
C10 C -0.0562(3) 0.2435(3) 0.3236(3)
H22 H 0.0111 0.2248 0.3433
H23 H -0.0833 0.2495 0.2588
H24 H -0.0913 0.1942 0.3419
O6 O 0.1013(2) 0.5789(2) 0.3169(2)
O7 O 0.2333(2) 0.4818(2) 0.62459(19)
C11 C 0.3848(3) -0.0001(3) 0.3847(3)
H25 H 0.3372 -0.0464 0.3481
H26 H 0.4373 -0.0347 0.4299
H27 H 0.4098 0.0369 0.3469
O8 O 0.3356(3) 0.5958(2) 0.6850(2)
O9 O 0.2380(2) 0.5298(2) 0.4098(3)
C12 C -0.0233(3) 0.4607(3) 0.5176(2)
H28 H -0.0927 0.4735 0.4966
H29 H 0.0031 0.4634 0.5833
C13 C 0.5257(3) 0.4698(3) 0.5419(2)
H30 H 0.5013 0.4878 0.5883
H31 H 0.5949 0.4844 0.5649
C14 C 0.6579(3) 0.2945(3) 0.6815(3)
H32 H 0.6958 0.2699 0.6490
H33 H 0.6742 0.2590 0.7374
H34 H 0.6716 0.3631 0.6943
P4 P 0.26537(7) 0.34032(7) 0.15861(6)
O10 O 0.31309(18) 0.27725(18) 0.11213(15)
C15 C 0.2116(3) 0.2714(3) 0.2208(2)
H35 H 0.1566 0.2346 0.1795
H36 H 0.1878 0.3153 0.2556
C16 C 0.1731(3) 0.4134(3) 0.0817(2)
H37 H 0.1246 0.3704 0.0399
H38 H 0.2013 0.4519 0.0467
C17 C 0.3513(3) 0.4195(3) 0.2360(2)
H39 H 0.4012 0.3804 0.2809
H40 H 0.3191 0.4584 0.2673
C18 C 0.1228(3) 0.4819(3) 0.1232(3)
H41 H 0.1699 0.5248 0.1652
H42 H 0.0757 0.5204 0.0764
H43 H 0.0904 0.4446 0.1545
C19 C 0.3984(3) 0.4868(3) 0.1913(3)
H44 H 0.3498 0.5281 0.1489
H45 H 0.4457 0.5269 0.2363
H46 H 0.4302 0.4488 0.1598
C20 C 0.2849(3) 0.2014(3) 0.2839(2)
H47 H 0.3425 0.2380 0.3207
H48 H 0.3042 0.1543 0.2482
P1B P 0.00524(7) 0.65867(6) 0.51692(6)
O1B O -0.09850(18) 0.68577(18) 0.48363(16)
C2B C 0.0639(3) 0.6616(3) 0.6352(3)
H3B H 0.1323 0.6463 0.6512
H4B H 0.0363 0.6107 0.6608
C6B C 0.0652(3) 0.7413(3) 0.4692(3)
H11B H 0.0478 0.8078 0.4790
H12B H 0.0404 0.7305 0.4042
C9B C 0.1730(3) 0.7344(4) 0.5045(3)
H19B H 0.1917 0.6688 0.4961
H20B H 0.1978 0.7798 0.4724
H21B H 0.1993 0.7502 0.5679
C10B C 0.0562(3) 0.7565(3) 0.6764(3)
H22B H -0.0111 0.7752 0.6567
H23B H 0.0833 0.7505 0.7412
H24B H 0.0913 0.8058 0.6581
C12B C 0.0233(3) 0.5393(3) 0.4824(2)
H28B H 0.0927 0.5265 0.5034
H29B H -0.0031 0.5366 0.4167
P2B P 0.49206(7) 0.65753(6) 0.48056(6)
O2B O 0.59480(18) 0.68383(18) 0.53188(16)
C3B C 0.4467(3) 0.7185(3) 0.3739(3)
H5B H 0.4836 0.6958 0.3389
H6B H 0.4594 0.7882 0.3846
C5B C 0.4171(3) 0.6868(3) 0.5401(3)
H9B H 0.4352 0.6451 0.5933
H10B H 0.3501 0.6714 0.5019
C8B C 0.4219(3) 0.7914(3) 0.5695(3)
H16B H 0.3961 0.8330 0.5171
H17B H 0.3844 0.7995 0.6065
H18B H 0.4885 0.8090 0.6038
C13B C 0.4743(3) 0.5302(3) 0.4581(2)
H30B H 0.4987 0.5122 0.4117
H31B H 0.4051 0.5156 0.4351
C14B C 0.3421(3) 0.7055(3) 0.3185(3)
H32B H 0.3042 0.7301 0.3510
H33B H 0.3258 0.7410 0.2626
H34B H 0.3284 0.6369 0.3057
Pb1B Pb -0.252071(9) 0.654422(9) 0.500666(8)
P3B P -0.23933(7) 0.86247(7) 0.64441(6)
O3B O -0.19946(17) 0.79599(18) 0.59422(15)
O4B O -0.1289(2) 0.5736(2) 0.65960(18)
O5B O -0.3798(2) 0.5353(2) 0.3599(2)
N1B N -0.1568(3) 0.4885(3) 0.6456(2)
C1B C -0.3385(3) 0.9316(3) 0.5702(2)
H1B H -0.3878 0.8864 0.5326
H2B H -0.3161 0.9697 0.5305
N2B N -0.3166(3) 0.4850(2) 0.3503(2)
C4B C -0.1495(3) 0.9452(3) 0.7120(2)
H7B H -0.0948 0.9080 0.7532
H8B H -0.1762 0.9839 0.7481
C7B C -0.1135(3) 1.0130(3) 0.6580(3)
H13B H -0.1655 1.0555 0.6222
H14B H -0.0607 1.0518 0.6983
H15B H -0.0912 0.9753 0.6188
O6B O -0.1013(2) 0.4211(2) 0.6831(2)
O7B O -0.2333(2) 0.5182(2) 0.37541(19)
C11B C -0.3848(3) 1.0001(3) 0.6153(3)
H25B H -0.3372 1.0464 0.6519
H26B H -0.4373 1.0347 0.5701
H27B H -0.4098 0.9631 0.6531
O8B O -0.3356(3) 0.4042(2) 0.3150(2)
O9B O -0.2380(2) 0.4702(2) 0.5902(3)
P4B P -0.26537(7) 0.65968(7) 0.84139(6)
O10B O -0.31309(18) 0.72275(18) 0.88787(15)
C15B C -0.2116(3) 0.7286(3) 0.7792(2)
H35B H -0.1566 0.7654 0.8205
H36B H -0.1878 0.6847 0.7444
C16B C -0.1731(3) 0.5866(3) 0.9183(2)
H37B H -0.1246 0.6296 0.9601
H38B H -0.2013 0.5481 0.9533
C17B C -0.3513(3) 0.5805(3) 0.7640(2)
H39B H -0.4012 0.6196 0.7191
H40B H -0.3191 0.5416 0.7327
C18B C -0.1228(3) 0.5181(3) 0.8768(3)
H41B H -0.1699 0.4752 0.8348
H42B H -0.0757 0.4796 0.9236
H43B H -0.0904 0.5554 0.8455
C19B C -0.3984(3) 0.5132(3) 0.8087(3)
H44B H -0.3498 0.4719 0.8511
H45B H -0.4457 0.4731 0.7637
H46B H -0.4302 0.5512 0.8402
C20B C -0.2849(3) 0.7986(3) 0.7161(2)
H47B H -0.3425 0.7620 0.6793
H48B H -0.3042 0.8457 0.7518
Pb1A Pb -0.252071(9) 0.845578(9) 1.000666(8)
Pb1B_2 Pb 0.747929(9) 0.654422(9) 0.500666(8)
Pb1C Pb 0.252071(9) 0.154422(9) -0.000666(8)
O2B_2 O -0.40520(18) 0.68383(18) 0.53188(16)
O10A O -0.31309(18) 0.77725(18) 0.38787(15)
O10C O 0.31309(18) 0.22275(18) 0.61213(15)
loop_
_geom_bond_atom_site_label_1
_geom_bond_atom_site_label_2
_geom_bond_site_symmetry_1
_geom_bond_site_symmetry_2
Pb1 O1 1_555 1_555
P1 O1 1_555 1_555
P2 O2 1_555 1_555
P3 O3 1_555 1_555
O2 Pb1 1_555 1_555
O3 Pb1 1_555 1_555
O4 Pb1 1_555 1_555
O5 Pb1 1_555 1_555
N1 O4 1_555 1_555
C1 P3 1_555 1_555
H1 C1 1_555 1_555
H2 C1 1_555 1_555
N2 O5 1_555 1_555
C2 P1 1_555 1_555
H3 C2 1_555 1_555
H4 C2 1_555 1_555
C3 P2 1_555 1_555
H5 C3 1_555 1_555
H6 C3 1_555 1_555
C4 P3 1_555 1_555
H7 C4 1_555 1_555
H8 C4 1_555 1_555
C5 P2 1_555 1_555
H9 C5 1_555 1_555
H10 C5 1_555 1_555
C6 P1 1_555 1_555
H11 C6 1_555 1_555
H12 C6 1_555 1_555
C7 C4 1_555 1_555
H13 C7 1_555 1_555
H14 C7 1_555 1_555
H15 C7 1_555 1_555
C8 C5 1_555 1_555
H16 C8 1_555 1_555
H17 C8 1_555 1_555
H18 C8 1_555 1_555
C9 C6 1_555 1_555
H19 C9 1_555 1_555
H20 C9 1_555 1_555
H21 C9 1_555 1_555
C10 C2 1_555 1_555
H22 C10 1_555 1_555
H23 C10 1_555 1_555
H24 C10 1_555 1_555
O6 N1 1_555 1_555
O7 Pb1 1_555 1_555
C11 C1 1_555 1_555
H25 C11 1_555 1_555
H26 C11 1_555 1_555
H27 C11 1_555 1_555
O8 N2 1_555 1_555
O9 Pb1 1_555 1_555
C12 P1 1_555 1_555
H28 C12 1_555 1_555
H29 C12 1_555 1_555
C13 P2 1_555 1_555
H30 C13 1_555 1_555
H31 C13 1_555 1_555
C14 C3 1_555 1_555
H32 C14 1_555 1_555
H33 C14 1_555 1_555
H34 C14 1_555 1_555
P4 O10 1_555 1_555
O10 Pb1C 1_555 1_555
C15 P4 1_555 1_555
H35 C15 1_555 1_555
H36 C15 1_555 1_555
C16 P4 1_555 1_555
H37 C16 1_555 1_555
H38 C16 1_555 1_555
C17 P4 1_555 1_555
H39 C17 1_555 1_555
H40 C17 1_555 1_555
C18 C16 1_555 1_555
H41 C18 1_555 1_555
H42 C18 1_555 1_555
H43 C18 1_555 1_555
C19 C17 1_555 1_555
H44 C19 1_555 1_555
H45 C19 1_555 1_555
H46 C19 1_555 1_555
C20 P3 1_555 1_555
H47 C20 1_555 1_555
H48 C20 1_555 1_555
P1B O1B 1_555 1_555
O1B Pb1B 1_555 1_555
C2B P1B 1_555 1_555
H3B C2B 1_555 1_555
H4B C2B 1_555 1_555
C6B P1B 1_555 1_555
H11B C6B 1_555 1_555
H12B C6B 1_555 1_555
C9B C6B 1_555 1_555
H19B C9B 1_555 1_555
H20B C9B 1_555 1_555
H21B C9B 1_555 1_555
C10B C2B 1_555 1_555
H22B C10B 1_555 1_555
H23B C10B 1_555 1_555
H24B C10B 1_555 1_555
C12B C12 1_555 1_555
H28B C12B 1_555 1_555
H29B C12B 1_555 1_555
P2B O2B 1_555 1_555
O2B Pb1B_2 1_555 1_555
C3B P2B 1_555 1_555
H5B C3B 1_555 1_555
H6B C3B 1_555 1_555
C5B P2B 1_555 1_555
H9B C5B 1_555 1_555
H10B C5B 1_555 1_555
C8B C5B 1_555 1_555
H16B C8B 1_555 1_555
H17B C8B 1_555 1_555
H18B C8B 1_555 1_555
C13B C13 1_555 1_555
H30B C13B 1_555 1_555
H31B C13B 1_555 1_555
C14B C3B 1_555 1_555
H32B C14B 1_555 1_555
H33B C14B 1_555 1_555
H34B C14B 1_555 1_555
Pb1B O3B 1_555 1_555
P3B O3B 1_555 1_555
O4B Pb1B 1_555 1_555
O5B Pb1B 1_555 1_555
N1B O4B 1_555 1_555
C1B P3B 1_555 1_555
H1B C1B 1_555 1_555
H2B C1B 1_555 1_555
N2B O5B 1_555 1_555
C4B P3B 1_555 1_555
H7B C4B 1_555 1_555
H8B C4B 1_555 1_555
C7B C4B 1_555 1_555
H13B C7B 1_555 1_555
H14B C7B 1_555 1_555
H15B C7B 1_555 1_555
O6B N1B 1_555 1_555
O7B Pb1B 1_555 1_555
C11B C1B 1_555 1_555
H25B C11B 1_555 1_555
H26B C11B 1_555 1_555
H27B C11B 1_555 1_555
O8B N2B 1_555 1_555
O9B Pb1B 1_555 1_555
P4B O10B 1_555 1_555
O10B Pb1A 1_555 1_555
C15B P4B 1_555 1_555
H35B C15B 1_555 1_555
H36B C15B 1_555 1_555
C16B P4B 1_555 1_555
H37B C16B 1_555 1_555
H38B C16B 1_555 1_555
C17B P4B 1_555 1_555
H39B C17B 1_555 1_555
H40B C17B 1_555 1_555
C18B C16B 1_555 1_555
H41B C18B 1_555 1_555
H42B C18B 1_555 1_555
H43B C18B 1_555 1_555
C19B C17B 1_555 1_555
H44B C19B 1_555 1_555
H45B C19B 1_555 1_555
H46B C19B 1_555 1_555
C20B P3B 1_555 1_555
H47B C20B 1_555 1_555
H48B C20B 1_555 1_555
O2B_2 Pb1B 1_555 1_555
O10A Pb1B 1_555 1_555
O10C Pb1 1_555 1_555
N1 O9 1_555 1_555
N2 O7 1_555 1_555
C15 C20 1_555 1_555
P1B C12B 1_555 1_555
P2B C13B 1_555 1_555
N1B O9B 1_555 1_555
N2B O7B 1_555 1_555
C15B C20B 1_555 1_555

#END
