
#######################################################################
#
#                 Cambridge Crystallographic Data Centre
#                                CCDC 
#
#######################################################################
#
# If this CIF has been generated from an entry in the Cambridge 
# Structural Database, then it will include bibliographic, chemical, 
# crystal, experimental, refinement or atomic coordinate data resulting 
# from the CCDC's data processing and validation procedures.
#
#######################################################################

data_MUJSEP
_symmetry_cell_setting           triclinic
_symmetry_space_group_name_H-M   'P -1'
_symmetry_Int_Tables_number      2
_space_group_name_Hall           '-P 1'
loop_
_symmetry_equiv_pos_site_id
_symmetry_equiv_pos_as_xyz
1 x,y,z
2 -x,-y,-z
_cell_length_a                   9.5420(7)
_cell_length_b                   11.0396(8)
_cell_length_c                   12.7663(9)
_cell_angle_alpha                72.9480(10)
_cell_angle_beta                 88.8660(10)
_cell_angle_gamma                70.4390(10)
_cell_volume                     1206.88
loop_
_atom_site_label
_atom_site_type_symbol
_atom_site_fract_x
_atom_site_fract_y
_atom_site_fract_z
Cu1 Cu 0.6001(1) 0.5022(1) 0.6085(1)
V1 V 0.7639(1) 0.5887(1) 0.3841(1)
V2 V 0.8849(1) 0.6591(1) 0.5770(1)
O1 O 0.9177(2) 0.4367(2) 0.4050(2)
O2 O 0.7112(2) 0.6554(2) 0.2543(2)
O3 O 0.8138(2) 0.7058(2) 0.4332(2)
O4 O 0.8577(3) 0.7946(2) 0.6115(2)
O5 O 0.6202(2) 0.5516(2) 0.4523(1)
O6 O 0.7917(2) 0.5691(2) 0.6519(2)
C1 C 0.4461(3) 0.7994(3) 0.5405(2)
C2 C 0.3563(3) 0.9214(3) 0.5526(2)
C3 C 0.2812(3) 0.9198(3) 0.6463(2)
C4 C 0.2998(3) 0.7973(3) 0.7266(2)
C5 C 0.3907(3) 0.6788(3) 0.7096(2)
C6 C 0.4298(3) 0.5408(2) 0.7892(2)
C7 C 0.3725(3) 0.4945(3) 0.8892(2)
C8 C 0.2312(3) 0.5677(3) 0.9292(2)
C9 C 0.0999(3) 0.6263(3) 0.8601(2)
C10 C -0.0335(3) 0.6771(3) 0.9053(3)
C11 C -0.0287(4) 0.6700(3) 1.0149(3)
C12 C 0.1082(4) 0.6121(3) 1.0768(3)
C13 C 0.5579(3) 0.2841(3) 0.9249(2)
C14 C 0.6369(3) 0.1529(3) 1.0099(2)
C15 C 0.5568(3) 0.0852(3) 1.0804(2)
C16 C 0.6343(3) -0.0371(3) 1.1571(2)
C17 C 0.7879(3) -0.0840(3) 1.1616(2)
C18 C 0.8586(3) -0.0094(3) 1.0895(2)
C19 C 0.5966(3) 0.3196(3) 0.8163(2)
C20 C 0.6924(3) 0.2329(3) 0.7539(2)
C21 C 0.7405(3) 0.0932(3) 0.7862(2)
C22 C 0.8305(3) 0.0254(3) 0.7197(2)
C23 C 0.8698(3) 0.0978(3) 0.6238(2)
C24 C 0.8120(3) 0.2375(3) 0.5929(2)
N1 N 0.4615(2) 0.6811(2) 0.6156(2)
N2 N 0.5381(2) 0.4488(2) 0.7563(2)
N3 N 0.7224(2) 0.3041(2) 0.6557(2)
N4 N 0.4438(2) 0.3695(2) 0.9573(2)
N5 N 0.7867(3) 0.1081(2) 1.0129(2)
N6 N 0.2372(3) 0.5596(2) 1.0362(2)
H1 H 0.5000(30) 0.7920(20) 0.4840(20)
H2 H 0.3390(30) 1.0060(30) 0.4970(20)
H3 H 0.2150(30) 0.9970(30) 0.6610(20)
H4 H 0.2500(40) 0.7970(30) 0.7930(30)
H5 H 0.0970(30) 0.6260(30) 0.7900(30)
H6 H -0.1300(40) 0.7100(30) 0.8640(30)
H7 H -0.1220(40) 0.7040(30) 1.0440(30)
H8 H 0.1160(40) 0.6040(30) 1.1580(30)
H9 H 0.4520(40) 0.1220(30) 1.0760(20)
H10 H 0.5880(40) -0.0850(30) 1.2000(30)
H11 H 0.8350(40) -0.1480(30) 1.2020(30)
H12 H 0.9430(30) -0.0330(30) 1.0970(20)
H13 H 0.7130(30) 0.0430(30) 0.8550(20)
H14 H 0.8670(30) -0.0680(30) 0.7370(20)
H15 H 0.9340(40) 0.0550(30) 0.5720(30)
H16 H 0.8320(30) 0.2900(30) 0.5270(20)
O5A O 0.3798(2) 0.4484(2) 0.5477(1)
O1A O 1.0823(2) 0.5633(2) 0.5950(2)
V2A V 1.1151(1) 0.3409(1) 0.4230(1)
Cu1A Cu 0.3999(1) 0.4978(1) 0.3915(1)
O7 O 0.6459(4) 0.7364(4) 0.7966(3)
loop_
_geom_bond_atom_site_label_1
_geom_bond_atom_site_label_2
_geom_bond_site_symmetry_1
_geom_bond_site_symmetry_2
Cu1 O5 1_555 1_555
V1 O1 1_555 1_555
V2 O3 1_555 1_555
O1 V2A 1_555 1_555
O2 V1 1_555 1_555
O3 V1 1_555 1_555
O4 V2 1_555 1_555
O5 V1 1_555 1_555
O6 Cu1 1_555 1_555
C1 C2 1_555 1_555
C2 C3 1_555 1_555
C3 C4 1_555 1_555
C4 C5 1_555 1_555
C5 C6 1_555 1_555
C6 C7 1_555 1_555
C7 C8 1_555 1_555
C8 C9 1_555 1_555
C9 C10 1_555 1_555
C10 C11 1_555 1_555
C11 C12 1_555 1_555
C12 N6 1_555 1_555
C13 C14 1_555 1_555
C14 C15 1_555 1_555
C15 C16 1_555 1_555
C16 C17 1_555 1_555
C17 C18 1_555 1_555
C18 N5 1_555 1_555
C19 C13 1_555 1_555
C20 C19 1_555 1_555
C21 C20 1_555 1_555
C22 C21 1_555 1_555
C23 C22 1_555 1_555
C24 C23 1_555 1_555
N1 Cu1 1_555 1_555
N2 Cu1 1_555 1_555
N3 Cu1 1_555 1_555
N4 C7 1_555 1_555
N5 C14 1_555 1_555
N6 C8 1_555 1_555
H1 C1 1_555 1_555
H2 C2 1_555 1_555
H3 C3 1_555 1_555
H4 C4 1_555 1_555
H5 C9 1_555 1_555
H6 C10 1_555 1_555
H7 C11 1_555 1_555
H8 C12 1_555 1_555
H9 C15 1_555 1_555
H10 C16 1_555 1_555
H11 C17 1_555 1_555
H12 C18 1_555 1_555
H13 C21 1_555 1_555
H14 C22 1_555 1_555
H15 C23 1_555 1_555
H16 C24 1_555 1_555
O5A Cu1 1_555 1_555
O1A V2 1_555 1_555
Cu1A O5 1_555 1_555
V2 O6 1_555 1_555
C1 N1 1_555 1_555
C5 N1 1_555 1_555
C6 N2 1_555 1_555
C13 N4 1_555 1_555
C19 N2 1_555 1_555
C20 N3 1_555 1_555
C24 N3 1_555 1_555
O5A Cu1A 1_555 1_555

#END
