
#######################################################################
#
#                 Cambridge Crystallographic Data Centre
#                                CCDC 
#
#######################################################################
#
# If this CIF has been generated from an entry in the Cambridge 
# Structural Database, then it will include bibliographic, chemical, 
# crystal, experimental, refinement or atomic coordinate data resulting 
# from the CCDC's data processing and validation procedures.
#
#######################################################################

data_MUJSAL01
_symmetry_cell_setting           triclinic
_symmetry_space_group_name_H-M   'P -1'
_symmetry_Int_Tables_number      2
_space_group_name_Hall           '-P 1'
loop_
_symmetry_equiv_pos_site_id
_symmetry_equiv_pos_as_xyz
1 x,y,z
2 -x,-y,-z
_cell_length_a                   7.4533(5)
_cell_length_b                   7.4752(5)
_cell_length_c                   7.6270(5)
_cell_angle_alpha                88.7823(10)
_cell_angle_beta                 62.9361(10)
_cell_angle_gamma                65.4102(10)
_cell_volume                     336.595
loop_
_atom_site_label
_atom_site_type_symbol
_atom_site_fract_x
_atom_site_fract_y
_atom_site_fract_z
Cu1 Cu 0.2734(1) 0.3758(1) 0.3915(1)
V1 V 0.1281(1) 0.7457(1) 0.7483(1)
V2 V -0.0415(1) 0.2308(1) 0.7725(1)
O1 O 0.6123(2) 0.2872(2) 0.3671(2)
O2 O 0.2631(2) 0.5833(2) 0.2292(2)
O3 O 0.2022(2) 0.1997(2) 0.5791(2)
O4 O 0.0941(2) 0.5889(2) 0.6264(2)
O5 O -0.0601(2) 0.0012(2) 0.7655(2)
O6 O -0.0473(3) 0.2921(3) 1.0003(2)
C1 C 0.5026(3) -0.0371(3) 0.1719(3)
C2 C 0.4140(3) 0.1941(2) -0.0165(3)
N1 N 0.4181(2) 0.1547(2) 0.1552(3)
H1 H 0.4980 -0.0590 0.2910
H2 H 0.3520 0.3280 -0.0270
C1A C 0.4974(3) 0.0371(3) -0.1719(3)
C2A C 0.5860(3) -0.1941(2) 0.0165(3)
N1A N 0.5819(2) -0.1547(2) -0.1552(3)
H1A H 0.5020 0.0590 -0.2910
H2A H 0.6480 -0.3280 0.0270
Cu1A Cu -0.2734(1) 0.6242(1) 0.6085(1)
V1A V -0.1281(1) 0.2543(1) 0.2517(1)
V2A V 0.0415(1) 0.7692(1) 0.2275(1)
O1A O -0.6123(2) 0.7128(2) 0.6329(2)
O2A O -0.2631(2) 0.4167(2) 0.7708(2)
O3A O -0.2022(2) 0.8003(2) 0.4209(2)
O4A O -0.0941(2) 0.4111(2) 0.3736(2)
O5A O 0.0601(2) 0.9988(2) 0.2345(2)
O6A O 0.0473(3) 0.7079(3) -0.0003(2)
Cu1A_2 Cu 0.7266(1) -0.3758(1) -0.3915(1)
V1_2 V -0.8719(1) 0.7457(1) 0.7483(1)
V1_3 V 0.1281(1) -0.2543(1) 0.7483(1)
V1_4 V 0.1281(1) 0.7457(1) -0.2517(1)
V1A_2 V -0.1281(1) 0.2543(1) 1.2517(1)
V1A_3 V -0.1281(1) 1.2543(1) 0.2517(1)
V1A_4 V 0.8719(1) 0.2543(1) 0.2517(1)
O1_2 O -0.3877(2) 0.2872(2) 0.3671(2)
O1A_2 O 0.3877(2) 0.7128(2) 0.6329(2)
O5_2 O -0.0601(2) 1.0012(2) 0.7655(2)
O5A_2 O 0.0601(2) -0.0012(2) 0.2345(2)
O6_2 O -0.0473(3) 0.2921(3) 0.0003(2)
O6A_2 O 0.0473(3) 0.7079(3) 0.9997(2)
N1A_2 N -0.4181(2) 0.8453(2) 0.8448(3)
loop_
_geom_bond_atom_site_label_1
_geom_bond_atom_site_label_2
_geom_bond_site_symmetry_1
_geom_bond_site_symmetry_2
Cu1 O1 1_555 1_555
V1 O4 1_555 1_555
V2 O3 1_555 1_555
O1 V1A_4 1_555 1_555
O2 Cu1 1_555 1_555
O3 Cu1 1_555 1_555
O4 Cu1 1_555 1_555
O5 V2 1_555 1_555
O6 V2 1_555 1_555
C1 N1 1_555 1_555
C2 N1 1_555 1_555
N1 Cu1 1_555 1_555
H1 C1 1_555 1_555
H2 C2 1_555 1_555
C1A C2 1_555 1_555
C2A C1 1_555 1_555
N1A C1A 1_555 1_555
H1A C1A 1_555 1_555
H2A C2A 1_555 1_555
Cu1A O4 1_555 1_555
V1A O4A 1_555 1_555
V2A O2 1_555 1_555
O1A Cu1A 1_555 1_555
O2A V2 1_555 1_555
O3A Cu1A 1_555 1_555
O4A Cu1 1_555 1_555
O5A V2A 1_555 1_555
O6A V2A 1_555 1_555
Cu1A_2 N1A 1_555 1_555
V1_2 O1A 1_555 1_555
V1_3 O5 1_555 1_555
V1_4 O6A 1_555 1_555
V1A_2 O6 1_555 1_555
V1A_3 O5A 1_555 1_555
O1_2 V1A 1_555 1_555
O1A_2 V1 1_555 1_555
O5_2 V1 1_555 1_555
O5A_2 V1A 1_555 1_555
O6_2 V1A 1_555 1_555
O6A_2 V1 1_555 1_555
N1A_2 Cu1A 1_555 1_555
C2A N1A 1_555 1_555
Cu1A O2A 1_555 1_555
Cu1A O4A 1_555 1_555
V2A O3A 1_555 1_555

#END
