
#######################################################################
#
#                 Cambridge Crystallographic Data Centre
#                                CCDC 
#
#######################################################################
#
# If this CIF has been generated from an entry in the Cambridge 
# Structural Database, then it will include bibliographic, chemical, 
# crystal, experimental, refinement or atomic coordinate data resulting 
# from the CCDC's data processing and validation procedures.
#
#######################################################################

data_MUKRUG
_symmetry_cell_setting           monoclinic
_symmetry_space_group_name_H-M   'P 21/c'
_symmetry_Int_Tables_number      14
_space_group_name_Hall           '-P 2ybc'
loop_
_symmetry_equiv_pos_site_id
_symmetry_equiv_pos_as_xyz
1 x,y,z
2 -x,1/2+y,1/2-z
3 -x,-y,-z
4 x,1/2-y,1/2+z
_cell_length_a                   15.7711(6)
_cell_length_b                   9.0212(3)
_cell_length_c                   22.0402(11)
_cell_angle_alpha                90
_cell_angle_beta                 117.456(3)
_cell_angle_gamma                90
_cell_volume                     2782.56
loop_
_atom_site_label
_atom_site_type_symbol
_atom_site_fract_x
_atom_site_fract_y
_atom_site_fract_z
Pt1 Pt 0.177653(13) 0.23359(2) 0.275259(9)
Ag1 Ag 0.20175(3) -0.08476(4) 0.24586(2)
Ag2 Ag 0.21586(3) 0.53643(4) 0.339981(19)
Pd1 Pd 0.25755(3) 0.16288(4) 0.164629(19)
O1 O 0.2149(2) 0.3241(3) 0.20762(14)
H1 H 0.2608 0.3808 0.2299
O2 O 0.3079(2) 0.3422(4) 0.42041(15)
O3 O 0.2816(2) -0.0516(4) 0.44348(17)
O4 O 0.2866(2) -0.2924(4) 0.44692(17)
O5 O 0.1883(2) -0.1798(4) 0.35415(17)
O6 O -0.0937(3) -0.0404(4) 0.11214(18)
O7 O 0.0355(2) -0.0922(4) 0.20313(17)
O8 O 0.0423(3) -0.0185(5) 0.11264(19)
O9 O 0.0743(2) -0.4168(3) 0.23151(16)
O10 O 0.0329(2) -0.4204(4) 0.12387(18)
O11 O 0.1717(2) -0.3368(4) 0.19464(19)
N1 N 0.4494(3) 0.2255(4) 0.44932(19)
N2 N 0.3178(3) 0.1953(4) 0.33883(18)
N3 N 0.3315(3) 0.0496(4) 0.25645(19)
H2 H 0.3713 -0.0074 0.2515
N4 N 0.2525(3) -0.1751(5) 0.4151(2)
N5 N 0.1367(2) 0.1530(4) 0.34346(18)
H3 H 0.0833 0.1005 0.3217
H4 H 0.1827 0.0953 0.3735
H5 H 0.1264 0.2283 0.3653
N6 N 0.0379(2) 0.2695(4) 0.20887(17)
H6 H 0.0307 0.2738 0.1664
H7 H 0.0027 0.1957 0.2121
H8 H 0.0192 0.3547 0.2192
N7 N -0.0054(3) -0.0493(4) 0.1419(2)
N8 N 0.1938(3) 0.2824(4) 0.07478(19)
N9 N 0.2875(3) 0.0049(4) 0.10883(19)
N10 N 0.0937(3) -0.3907(4) 0.1826(2)
C1 C 0.4878(3) 0.2842(6) 0.5191(2)
H9 H 0.466 0.3866 0.5175
H10 H 0.5578 0.2819 0.5409
H11 H 0.4651 0.2233 0.5456
C2 C 0.3562(3) 0.2604(6) 0.4034(2)
C3 C 0.3717(3) 0.1108(5) 0.3197(2)
C4 C 0.4682(3) 0.0807(6) 0.3675(2)
H12 H 0.507 0.0213 0.3547
C5 C 0.5038(4) 0.1364(5) 0.4304(3)
H13 H 0.5677 0.1141 0.4628
C6 C 0.0879(4) 0.2768(6) 0.0454(3)
H14 H 0.0588 0.3227 0.00000
H15 H 0.0681 0.3307 0.0753
H16 H 0.0672 0.1733 0.0416
C7 C 0.2237(4) 0.4395(6) 0.0830(3)
H17 H 0.1971 0.4872 0.0381
H18 H 0.2936 0.4451 0.1049
H19 H 0.2002 0.4902 0.1117
C8 C 0.2263(5) 0.2102(6) 0.0289(3)
H20 H 0.2913 0.2452 0.04
H21 H 0.183 0.2377 -0.0191
C9 C 0.2271(4) 0.0448(6) 0.0365(3)
H22 H 0.1611 0.0084 0.0214
H23 H 0.2524 -0.0022 0.0076
C10 C 0.3898(4) 0.0080(7) 0.1258(3)
H24 H 0.401 -0.0605 0.0958
H25 H 0.4285 -0.0221 0.1735
H26 H 0.4076 0.1087 0.1194
C11 C 0.2630(4) -0.1479(5) 0.1181(3)
H27 H 0.2683 -0.2127 0.0843
H28 H 0.1974 -0.1507 0.1119
H29 H 0.307 -0.1822 0.1642
O12 O 0.3623(3) 0.4995(4) 0.3026(2)
O13 O 0.4104(3) 0.6489(7) 0.2539(3)
O14 O 0.3600(4) 0.7264(5) 0.3212(2)
N11 N 0.3778(3) 0.6286(6) 0.2933(2)
O4_2 O 0.2866(2) 0.7076(4) 0.44692(17)
O6A O 0.0937(3) 0.4596(4) 0.38786(18)
O9_2 O 0.0743(2) 0.5832(3) 0.23151(16)
O5_2 O 0.1883(2) 0.8202(4) 0.35415(17)
Ag2_2 Ag 0.21586(3) -0.46357(4) 0.339981(19)
Ag2A Ag -0.21586(3) 0.03643(4) 0.160019(19)
O15 O 0.4564(5) 0.3644(6) 0.2105(3)
H30 H 0.4872 0.2775 0.2192
H31 H 0.4398 0.3725 0.2438
loop_
_geom_bond_atom_site_label_1
_geom_bond_atom_site_label_2
_geom_bond_site_symmetry_1
_geom_bond_site_symmetry_2
Pt1 Ag1 1_555 1_555
Ag1 O5 1_555 1_555
Ag2 Pt1 1_555 1_555
Pd1 O1 1_555 1_555
O1 Pt1 1_555 1_555
H1 O1 1_555 1_555
O2 Ag2 1_555 1_555
O3 N4 1_555 1_555
O4 N4 1_555 1_555
O5 N4 1_555 1_555
O6 N7 1_555 1_555
O7 Ag1 1_555 1_555
O8 N7 1_555 1_555
O9 N10 1_555 1_555
O10 N10 1_555 1_555
O11 Ag1 1_555 1_555
N1 C1 1_555 1_555
N2 Pt1 1_555 1_555
N3 Ag1 1_555 1_555
H2 N3 1_555 1_555
N5 Pt1 1_555 1_555
H3 N5 1_555 1_555
H4 N5 1_555 1_555
H5 N5 1_555 1_555
N6 Pt1 1_555 1_555
H6 N6 1_555 1_555
H7 N6 1_555 1_555
H8 N6 1_555 1_555
N7 O7 1_555 1_555
N8 Pd1 1_555 1_555
N9 Pd1 1_555 1_555
N10 O11 1_555 1_555
C1 H9 1_555 1_555
H10 C1 1_555 1_555
H11 C1 1_555 1_555
C2 O2 1_555 1_555
C3 N2 1_555 1_555
C4 C3 1_555 1_555
H12 C4 1_555 1_555
C5 N1 1_555 1_555
H13 C5 1_555 1_555
C6 N8 1_555 1_555
H14 C6 1_555 1_555
H15 C6 1_555 1_555
H16 C6 1_555 1_555
C7 N8 1_555 1_555
H17 C7 1_555 1_555
H18 C7 1_555 1_555
H19 C7 1_555 1_555
C8 N8 1_555 1_555
H20 C8 1_555 1_555
H21 C8 1_555 1_555
C9 N9 1_555 1_555
H22 C9 1_555 1_555
H23 C9 1_555 1_555
C10 N9 1_555 1_555
H24 C10 1_555 1_555
H25 C10 1_555 1_555
H26 C10 1_555 1_555
C11 N9 1_555 1_555
H27 C11 1_555 1_555
H28 C11 1_555 1_555
H29 C11 1_555 1_555
O12 Ag2 1_555 1_555
O13 N11 1_555 1_555
O14 N11 1_555 1_555
N11 O12 1_555 1_555
O15 H30 1_555 1_555
H31 O15 1_555 1_555
O4_2 Ag2 1_555 1_555
O6A Ag2 1_555 1_555
O9_2 Ag2 1_555 1_555
O5_2 Ag2 1_555 1_555
Ag2_2 O4 1_555 1_555
Ag2A O6 1_555 1_555
Pd1 N3 1_555 1_555
O5 Ag2_2 1_555 1_555
O9 Ag2_2 1_555 1_555
N1 C2 1_555 1_555
N2 C2 1_555 1_555
N3 C3 1_555 1_555
C4 C5 1_555 1_555
C8 C9 1_555 1_555

#END
