
#######################################################################
#
#                 Cambridge Crystallographic Data Centre
#                                CCDC 
#
#######################################################################
#
# If this CIF has been generated from an entry in the Cambridge 
# Structural Database, then it will include bibliographic, chemical, 
# crystal, experimental, refinement or atomic coordinate data resulting 
# from the CCDC's data processing and validation procedures.
#
#######################################################################

data_MUKRIU
_symmetry_cell_setting           monoclinic
_symmetry_space_group_name_H-M   'C 2/c'
_symmetry_Int_Tables_number      15
_space_group_name_Hall           '-C 2yn'
loop_
_symmetry_equiv_pos_site_id
_symmetry_equiv_pos_as_xyz
1 x,y,z
2 -x,y,1/2-z
3 1/2+x,1/2+y,z
4 1/2-x,1/2+y,1/2-z
5 -x,-y,-z
6 x,-y,1/2+z
7 1/2-x,1/2-y,-z
8 1/2+x,1/2-y,1/2+z
_cell_length_a                   20.041(3)
_cell_length_b                   8.2412(8)
_cell_length_c                   24.046(3)
_cell_angle_alpha                90
_cell_angle_beta                 111.131(9)
_cell_angle_gamma                90
_cell_volume                     3704.43
loop_
_atom_site_label
_atom_site_type_symbol
_atom_site_fract_x
_atom_site_fract_y
_atom_site_fract_z
Ag1 Ag 0.365201(14) 0.77537(4) -0.152972(11)
O1 O 0.18381(13) 0.4209(3) -0.07598(11)
C1 C 0.19786(19) 0.4255(4) -0.02051(15)
O2 O 0.39566(13) 0.4935(3) 0.13970(12)
C2 C 0.26036(18) 0.5064(4) 0.02090(16)
O3 O 0.33231(14) 0.7009(3) 0.14874(12)
C3 C 0.27555(18) 0.4986(4) 0.08176(15)
O4 O 0.05794(14) 0.3358(4) 0.07647(12)
C4 C 0.23065(18) 0.4192(4) 0.10593(15)
C5 C 0.16828(18) 0.3507(4) 0.06672(15)
O5 O 0.14004(14) 0.1639(3) 0.12662(11)
C6 C 0.15152(18) 0.3539(4) 0.00573(15)
N1 N 0.30372(15) 0.5959(4) -0.00361(13)
N2 N 0.35874(15) 0.6921(4) 0.03167(13)
C7 C 0.38442(19) 0.7522(4) -0.00670(16)
H1 H 0.4243 0.8237 0.0047
N3 N 0.34991(16) 0.7048(4) -0.06456(13)
C8 C 0.30000(19) 0.6067(5) -0.06080(16)
H2 H 0.2662 0.5514 -0.0935
N4 N 0.34025(16) 0.5716(4) 0.12641(13)
N5 N 0.24665(16) 0.4142(4) 0.16844(13)
N6 N 0.20035(17) 0.4792(4) 0.19283(13)
C9 C 0.2292(2) 0.4349(5) 0.24906(16)
H3 H 0.2087 0.4614 0.2779
N7 N 0.29045(17) 0.3485(4) 0.26239(14)
C10 C 0.2994(2) 0.3360(5) 0.21082(16)
H4 H 0.3376 0.2799 0.2047
N8 N 0.11822(15) 0.2770(4) 0.09188(13)
N9 N 0.08772(16) 0.2806(4) -0.03300(13)
N10 N 0.06732(16) 0.1289(4) -0.02146(13)
C11 C 0.00613(18) 0.1094(4) -0.06551(16)
H5 H -0.0217 0.0135 -0.0702
N11 N -0.01482(16) 0.2373(4) -0.10425(14)
C12 C 0.03782(18) 0.3418(5) -0.08240(15)
H6 H 0.0402 0.4451 -0.0991
Ag1F Ag 0.134799(14) 0.72463(4) 0.152972(11)
Ag1E Ag 0.365201(14) 0.22463(4) 0.347028(11)
Ag1B Ag -0.134799(14) 0.27537(4) -0.152972(11)
Ag1C Ag 0.134799(14) 1.27537(4) -0.347028(11)
Ag1D Ag 0.634799(14) 1.22463(4) 0.152972(11)
O1F O 0.31619(13) 1.0791(3) 0.07598(11)
C1F C 0.30214(19) 1.0745(4) 0.02051(15)
O2F O 0.10434(13) 1.0065(3) -0.13970(12)
C2F C 0.23964(18) 0.9936(4) -0.02090(16)
O3F O 0.16769(14) 0.7991(3) -0.14874(12)
C3F C 0.22445(18) 1.0014(4) -0.08176(15)
O4F O 0.44206(14) 1.1642(4) -0.07647(12)
C4F C 0.26935(18) 1.0808(4) -0.10593(15)
C5F C 0.33172(18) 1.1493(4) -0.06672(15)
O5F O 0.35996(14) 1.3361(3) -0.12662(11)
C6F C 0.34848(18) 1.1461(4) -0.00573(15)
N1F N 0.19628(15) 0.9041(4) 0.00361(13)
N2F N 0.14126(15) 0.8079(4) -0.03167(13)
C7F C 0.11558(19) 0.7478(4) 0.00670(16)
H1F H 0.0757 0.6763 -0.0047
N3F N 0.15009(16) 0.7952(4) 0.06456(13)
C8F C 0.20000(19) 0.8933(5) 0.06080(16)
H2F H 0.2338 0.9486 0.0935
N4F N 0.15975(16) 0.9284(4) -0.12641(13)
N5F N 0.25335(16) 1.0858(4) -0.16844(13)
N6F N 0.29965(17) 1.0208(4) -0.19283(13)
C9F C 0.2708(2) 1.0651(5) -0.24906(16)
H3F H 0.2913 1.0386 -0.2779
N7F N 0.20955(17) 1.1515(4) -0.26239(14)
N7E N 0.29045(17) 0.6515(4) -0.23761(14)
N7C N 0.20955(17) 0.8485(4) 0.23761(14)
C10F C 0.2006(2) 1.1640(5) -0.21082(16)
H4F H 0.1624 1.2201 -0.2047
N8F N 0.38178(15) 1.2230(4) -0.09188(13)
N9F N 0.41228(16) 1.2194(4) 0.03300(13)
N10F N 0.43268(16) 1.3711(4) 0.02146(13)
C11F C 0.49387(18) 1.3906(4) 0.06551(16)
H5F H 0.5217 1.4865 0.0702
N11F N 0.51482(16) 1.2627(4) 0.10425(14)
N11B N 0.48518(16) 0.7373(4) -0.10425(14)
N11D N 0.01482(16) 0.7627(4) 0.10425(14)
C12F C 0.46218(18) 1.1582(5) 0.08240(15)
H6F H 0.4598 1.0549 0.0991
O6 O 0.40050(18) 0.0629(5) 0.19360(15)
O7 O 0.5000 0.3032(8) 0.2500
O8 O 0.5000 -0.1785(9) 0.2500
O9 O 0.5697(3) -0.4304(7) 0.2167(2)
loop_
_geom_bond_atom_site_label_1
_geom_bond_atom_site_label_2
_geom_bond_site_symmetry_1
_geom_bond_site_symmetry_2
Ag1 N3 1_555 1_555
O1 C1 1_555 1_555
C1 C2 1_555 1_555
O2 N4 1_555 1_555
C2 C3 1_555 1_555
O3 N4 1_555 1_555
C3 C4 1_555 1_555
O4 N8 1_555 1_555
C4 C5 1_555 1_555
C5 C6 1_555 1_555
O5 N8 1_555 1_555
C6 C1 1_555 1_555
N1 C2 1_555 1_555
N2 N1 1_555 1_555
C7 N2 1_555 1_555
H1 C7 1_555 1_555
N3 C7 1_555 1_555
C8 N1 1_555 1_555
H2 C8 1_555 1_555
N4 C3 1_555 1_555
N5 C4 1_555 1_555
N6 N5 1_555 1_555
C9 N6 1_555 1_555
H3 C9 1_555 1_555
N7 C9 1_555 1_555
C10 N5 1_555 1_555
H4 C10 1_555 1_555
N8 C5 1_555 1_555
N9 C6 1_555 1_555
N10 N9 1_555 1_555
C11 N10 1_555 1_555
H5 C11 1_555 1_555
N11 C11 1_555 1_555
C12 N9 1_555 1_555
H6 C12 1_555 1_555
Ag1F N6 1_555 1_555
Ag1E N7 1_555 1_555
Ag1B N11 1_555 1_555
Ag1C N7F 1_555 1_555
Ag1D N11F 1_555 1_555
O1F C1F 1_555 1_555
C1F C2F 1_555 1_555
O2F N4F 1_555 1_555
C2F C3F 1_555 1_555
O3F N4F 1_555 1_555
C3F C4F 1_555 1_555
O4F N8F 1_555 1_555
C4F C5F 1_555 1_555
C5F C6F 1_555 1_555
O5F N8F 1_555 1_555
C6F C1F 1_555 1_555
N1F C2F 1_555 1_555
N2F N1F 1_555 1_555
C7F N2F 1_555 1_555
H1F C7F 1_555 1_555
N3F Ag1F 1_555 1_555
C8F N1F 1_555 1_555
H2F C8F 1_555 1_555
N4F C3F 1_555 1_555
N5F C4F 1_555 1_555
N6F Ag1 1_555 1_555
C9F N6F 1_555 1_555
H3F C9F 1_555 1_555
N7F C9F 1_555 1_555
N7E Ag1 1_555 1_555
N7C Ag1F 1_555 1_555
C10F N5F 1_555 1_555
H4F C10F 1_555 1_555
N8F C5F 1_555 1_555
N9F C6F 1_555 1_555
N10F N9F 1_555 1_555
C11F N10F 1_555 1_555
H5F C11F 1_555 1_555
N11F C11F 1_555 1_555
N11B Ag1 1_555 1_555
N11D Ag1F 1_555 1_555
C12F N9F 1_555 1_555
H6F C12F 1_555 1_555
N3 C8 1_555 1_555
N7 C10 1_555 1_555
N11 C12 1_555 1_555
C7F N3F 1_555 1_555
N3F C8F 1_555 1_555
N5F N6F 1_555 1_555
N7F C10F 1_555 1_555
N11F C12F 1_555 1_555

#END
