
#######################################################################
#
#                 Cambridge Crystallographic Data Centre
#                                CCDC 
#
#######################################################################
#
# If this CIF has been generated from an entry in the Cambridge 
# Structural Database, then it will include bibliographic, chemical, 
# crystal, experimental, refinement or atomic coordinate data resulting 
# from the CCDC's data processing and validation procedures.
#
#######################################################################

data_MUKSUI
_symmetry_cell_setting           orthorhombic
_symmetry_space_group_name_H-M   'P b c a'
_symmetry_Int_Tables_number      61
_space_group_name_Hall           '-P 2ac 2ab'
loop_
_symmetry_equiv_pos_site_id
_symmetry_equiv_pos_as_xyz
1 x,y,z
2 1/2-x,-y,1/2+z
3 1/2+x,1/2-y,-z
4 -x,1/2+y,1/2-z
5 -x,-y,-z
6 1/2+x,y,1/2-z
7 1/2-x,1/2+y,z
8 x,1/2-y,1/2+z
_cell_length_a                   14.5983(10)
_cell_length_b                   14.1802(13)
_cell_length_c                   21.4273(17)
_cell_angle_alpha                90
_cell_angle_beta                 90
_cell_angle_gamma                90
_cell_volume                     4435.6
loop_
_atom_site_label
_atom_site_type_symbol
_atom_site_fract_x
_atom_site_fract_y
_atom_site_fract_z
Ag1 Ag 0.64318(3) 0.12099(4) 0.04208(2)
N1 N 0.4933(3) 0.1115(3) 0.04881(18)
N2 N 0.2930(4) 0.1175(3) 0.45959(18)
N3 N 0.3600(3) 0.1403(3) 0.2955(2)
N4 N 0.4465(3) 0.1307(3) 0.2143(2)
N5 N 0.6309(5) 0.1729(9) -0.0779(4)
C1 C 0.4971(4) 0.0919(5) 0.1622(2)
H1 H 0.5099 0.0258 0.1700
H2 H 0.5551 0.1247 0.1582
C2 C 0.4289(4) 0.2244(4) 0.2249(3)
H3 H 0.4504 0.2748 0.2013
C3 C 0.3753(4) 0.2301(4) 0.2750(3)
H4 H 0.3525 0.2851 0.2928
C4 C 0.4025(3) 0.0810(4) 0.2592(2)
H5 H 0.4026 0.0157 0.2634
C5 C 0.3010(3) 0.1140(4) 0.3487(2)
H6 H 0.2792 0.0501 0.3424
H7 H 0.2481 0.1553 0.3492
C6 C 0.3482(3) 0.1195(4) 0.4114(3)
C7 C 0.4419(4) 0.1258(4) 0.4172(3)
H8 H 0.4783 0.1305 0.3818
C8 C 0.4819(5) 0.1250(5) 0.4756(4)
H9 H 0.5451 0.1278 0.4803
C9 C 0.4244(5) 0.1199(4) 0.5265(3)
H10 H 0.4482 0.1190 0.5667
C10 C 0.3329(5) 0.1163(4) 0.5172(3)
H11 H 0.2950 0.1128 0.5520
C11 C 0.4464(5) 0.1168(4) -0.0043(3)
H12 H 0.4797 0.1214 -0.0412
C12 C 0.3546(5) 0.1161(5) -0.0089(4)
H13 H 0.3265 0.1239 -0.0475
C13 C 0.3025(5) 0.1037(6) 0.0438(3)
H14 H 0.2390 0.0994 0.0419
C14 C 0.3500(4) 0.0979(6) 0.1013(4)
H15 H 0.3177 0.0919 0.1386
C15 C 0.4440(4) 0.1011(4) 0.1018(3)
C16 C 0.6384(5) 0.1900(7) -0.1281(4)
C17 C 0.6523(6) 0.2127(8) -0.1925(4)
H16 H 0.6035 0.1864 -0.2170
H17 H 0.7097 0.1871 -0.2062
H18 H 0.6530 0.2800 -0.1975
Ag1E Ag 0.14318(3) 0.12099(4) 0.45792(2)
N2E N 0.7930(4) 0.1175(3) 0.04041(18)
F1 F 0.2894(7) 0.5318(9) 0.2343(4)
F2 F 0.3898(7) 0.5519(6) 0.1654(5)
F3 F 0.3230(8) 0.4225(8) 0.1699(4)
F4 F 0.4113(4) 0.4482(4) 0.2428(3)
B1 B 0.3522(3) 0.4927(5) 0.2041(3)
F5 F 0.0936(5) 0.4061(4) 0.3425(3)
F6 F 0.1238(6) 0.2624(5) 0.3538(6)
F7 F 0.2395(3) 0.3614(4) 0.3549(3)
F8 F 0.1473(4) 0.3554(9) 0.4316(4)
B2 B 0.1523(4) 0.3463(5) 0.3720(3)
loop_
_geom_bond_atom_site_label_1
_geom_bond_atom_site_label_2
_geom_bond_site_symmetry_1
_geom_bond_site_symmetry_2
Ag1 N1 1_555 1_555
N1 C11 1_555 1_555
N2 C6 1_555 1_555
N3 C3 1_555 1_555
N4 C1 1_555 1_555
N5 Ag1 1_555 1_555
C1 H1 1_555 1_555
H2 C1 1_555 1_555
C2 N4 1_555 1_555
H3 C2 1_555 1_555
C3 C2 1_555 1_555
H4 C3 1_555 1_555
C4 N3 1_555 1_555
H5 C4 1_555 1_555
C5 N3 1_555 1_555
H6 C5 1_555 1_555
H7 C5 1_555 1_555
C6 C5 1_555 1_555
C7 C6 1_555 1_555
H8 C7 1_555 1_555
C8 C7 1_555 1_555
H9 C8 1_555 1_555
C9 C8 1_555 1_555
H10 C9 1_555 1_555
C10 N2 1_555 1_555
H11 C10 1_555 1_555
C11 H12 1_555 1_555
C12 C11 1_555 1_555
H13 C12 1_555 1_555
C13 C12 1_555 1_555
H14 C13 1_555 1_555
C14 C13 1_555 1_555
H15 C14 1_555 1_555
C15 N1 1_555 1_555
C16 N5 1_555 1_555
C17 C16 1_555 1_555
H16 C17 1_555 1_555
H17 C17 1_555 1_555
H18 C17 1_555 1_555
F1 B1 1_555 1_555
F2 B1 1_555 1_555
F3 B1 1_555 1_555
F4 B1 1_555 1_555
F5 B2 1_555 1_555
F6 B2 1_555 1_555
F7 B2 1_555 1_555
F8 B2 1_555 1_555
Ag1E N2 1_555 1_555
N2E Ag1 1_555 1_555
N4 C4 1_555 1_555
C1 C15 1_555 1_555
C9 C10 1_555 1_555
C14 C15 1_555 1_555

#END
