
#######################################################################
#
#                 Cambridge Crystallographic Data Centre
#                                CCDC 
#
#######################################################################
#
# If this CIF has been generated from an entry in the Cambridge 
# Structural Database, then it will include bibliographic, chemical, 
# crystal, experimental, refinement or atomic coordinate data resulting 
# from the CCDC's data processing and validation procedures.
#
#######################################################################

data_MUKTET
_symmetry_cell_setting           orthorhombic
_symmetry_space_group_name_H-M   'P b c n'
_symmetry_Int_Tables_number      60
_space_group_name_Hall           '-P 2n 2ab'
loop_
_symmetry_equiv_pos_site_id
_symmetry_equiv_pos_as_xyz
1 x,y,z
2 1/2-x,1/2-y,1/2+z
3 -x,y,1/2-z
4 1/2+x,1/2-y,-z
5 -x,-y,-z
6 1/2+x,1/2+y,1/2-z
7 x,-y,1/2+z
8 1/2-x,1/2+y,z
_cell_length_a                   59.972(6)
_cell_length_b                   10.0658(11)
_cell_length_c                   17.1950(18)
_cell_angle_alpha                90
_cell_angle_beta                 90
_cell_angle_gamma                90
_cell_volume                     10380
loop_
_atom_site_label
_atom_site_type_symbol
_atom_site_fract_x
_atom_site_fract_y
_atom_site_fract_z
Ag1 Ag 0.048064(14) -0.34262(9) 1.11626(5)
Ag2 Ag 0.188633(14) 0.30213(9) 0.89433(5)
C1 C 0.03555(19) -0.3216(12) 0.9451(6)
H1 H 0.0233 -0.3724 0.9635
C2 C 0.0364(2) -0.2847(12) 0.8660(6)
H2 H 0.0246 -0.3079 0.8317
C3 C 0.0542(2) -0.2162(13) 0.8397(7)
H3 H 0.0554 -0.1931 0.7863
C4 C 0.0706(2) -0.1802(12) 0.8919(7)
H4 H 0.0829 -0.1284 0.8751
C5 C 0.06908(17) -0.2191(11) 0.9679(6)
C6 C 0.08678(17) -0.1872(10) 1.0275(6)
H5 H 0.0796 -0.1742 1.0787
H6 H 0.0970 -0.2639 1.0321
C7 C 0.12070(18) -0.0645(10) 0.9848(6)
H7 H 0.1299 -0.1399 0.9757
C8 C 0.09217(18) 0.0607(11) 1.0144(6)
H8 H 0.0777 0.0875 1.0310
C9 C 0.10872(18) 0.1406(10) 0.9928(6)
H9 H 0.1082 0.2348 0.9895
C10 C 0.14909(15) 0.1069(11) 0.9533(6)
H10 H 0.1474 0.1908 0.9237
H11 H 0.1560 0.0406 0.9181
C11 C 0.16435(16) 0.1304(10) 1.0202(6)
C12 C 0.16121(17) 0.0715(10) 1.0924(5)
H12 H 0.1485 0.0171 1.1017
C13 C 0.17674(19) 0.0929(11) 1.1509(6)
H13 H 0.1748 0.0545 1.2009
C14 C 0.1948(2) 0.1698(11) 1.1351(6)
H14 H 0.2059 0.1840 1.1737
C15 C 0.19692(18) 0.2265(11) 1.0636(6)
H15 H 0.2095 0.2816 1.0538
C16 C 0.19654(19) 0.2333(11) 0.7258(7)
H16 H 0.2024 0.1577 0.7519
C17 C 0.19831(19) 0.2391(12) 0.6455(6)
H17 H 0.2048 0.1681 0.6171
C18 C 0.19030(17) 0.3517(12) 0.6076(6)
H18 H 0.1917 0.3614 0.5528
C19 C 0.18034(17) 0.4478(10) 0.6518(6)
H19 H 0.1742 0.5243 0.6275
C20 C 0.17921(16) 0.4341(9) 0.7310(6)
C21 C 0.16813(16) 0.5412(11) 0.7798(6)
H20 H 0.1676 0.5115 0.8347
H21 H 0.1773 0.6230 0.7776
C22 C 0.13051(17) 0.4860(11) 0.7309(6)
H22 H 0.1326 0.3927 0.7271
C23 C 0.13624(18) 0.6979(9) 0.7518(6)
H23 H 0.1432 0.7795 0.7654
C24 C 0.1152(2) 0.6810(10) 0.7266(6)
H24 H 0.1044 0.7492 0.7190
C25 C 0.09119(16) 0.4861(11) 0.6899(6)
H25 H 0.0947 0.4060 0.6588
H26 H 0.0830 0.5486 0.6559
C26 C 0.07635(15) 0.4469(10) 0.7570(6)
C27 C 0.08243(17) 0.4625(10) 0.8333(6)
H27 H 0.0964 0.5010 0.8469
C28 C 0.06771(19) 0.4206(12) 0.8896(6)
H28 H 0.0716 0.4263 0.9431
C29 C 0.0472(2) 0.3702(13) 0.8673(6)
H29 H 0.0366 0.3447 0.9056
C30 C 0.0423(2) 0.3573(13) 0.7905(6)
H30 H 0.0284 0.3207 0.7757
C31 C -0.0002(2) -0.1519(15) 1.1284(9)
C32 C -0.0159(3) -0.0435(15) 1.1236(13)
H31 H -0.0192 -0.0251 1.0688
H32 H -0.0094 0.0358 1.1476
H33 H -0.0296 -0.0675 1.1509
C33 C 0.23329(19) 0.4990(12) 0.9631(7)
C34 C 0.2495(2) 0.5946(12) 0.9950(8)
H34 H 0.2421 0.6499 1.0343
H35 H 0.2551 0.6511 0.9530
H36 H 0.2619 0.5463 1.0188
N1 N 0.05164(13) -0.2865(9) 0.9946(5)
N2 N 0.09978(13) -0.0680(8) 1.0082(5)
N3 N 0.12687(13) 0.0596(8) 0.9760(5)
N4 N 0.18204(13) 0.2078(8) 1.0066(5)
N5 N 0.18702(14) 0.3289(9) 0.7684(5)
N6 N 0.14585(13) 0.5714(7) 0.7540(4)
N7 N 0.11198(13) 0.5482(7) 0.7141(4)
N8 N 0.05678(14) 0.3952(9) 0.7351(5)
N9 N 0.01127(18) -0.2395(13) 1.1343(7)
N10 N 0.22085(17) 0.4261(10) 0.9395(6)
Ag1F Ag 0.048064(14) 0.34262(9) 0.61626(5)
N8F N 0.05678(14) -0.3952(9) 1.2351(5)
C35 C 0.2435(2) 0.4047(16) 0.1939(8)
C36 C 0.2406(3) 0.484(2) 0.2621(10)
H37 H 0.2467 0.5732 0.2529
H38 H 0.2484 0.4429 0.3059
H39 H 0.2247 0.4914 0.2744
N11 N 0.2457(2) 0.3456(17) 0.1394(8)
F1 F 0.11846(13) 0.7954(6) 0.3102(4)
F2 F 0.1158(4) 1.0132(11) 0.3095(5)
F3 F 0.0909(2) 0.900(2) 0.2524(14)
F4 F 0.11225(14) 1.0191(6) 0.1824(4)
F5 F 0.1134(4) 0.8083(10) 0.1869(6)
F6 F 0.13925(17) 0.923(2) 0.2444(10)
P1 P 0.11512(5) 0.9089(3) 0.24728(16)
F7 F 0.13253(10) 0.5862(5) 0.4216(3)
F8 F 0.12802(12) 0.3633(6) 0.4301(4)
F9 F 0.10760(10) 0.4996(7) 0.5067(4)
F10 F 0.13888(11) 0.5958(6) 0.5515(3)
F11 F 0.13474(10) 0.3735(6) 0.5590(3)
F12 F 0.15950(10) 0.4626(6) 0.4753(3)
P2 P 0.13368(5) 0.4796(3) 0.49109(15)
F13 F 0.0303(3) 0.3591(15) 0.1709(8)
F14 F 0.05884(16) 0.2488(15) 0.1459(6)
F15 F 0.0278(3) 0.1507(16) 0.1536(9)
F16 F 0.0441(2) 0.1753(17) 0.0379(7)
F17 F 0.01440(18) 0.2631(19) 0.0623(8)
F18 F 0.0449(4) 0.3738(17) 0.0604(7)
P3 P 0.03634(6) 0.2597(4) 0.10415(19)
F19 F 0.1919(2) 0.8943(10) 0.9674(5)
F20 F 0.19939(14) 0.7043(7) 0.9075(5)
F21 F 0.20350(19) 1.0107(8) 0.8713(6)
F22 F 0.22576(16) 0.8536(9) 0.9199(8)
F23 F 0.2117(2) 0.8195(16) 0.8084(6)
F24 F 0.17803(15) 0.8576(10) 0.8488(7)
P4 P 0.20152(5) 0.8555(3) 0.88728(17)
loop_
_geom_bond_atom_site_label_1
_geom_bond_atom_site_label_2
_geom_bond_site_symmetry_1
_geom_bond_site_symmetry_2
Ag1 N1 1_555 1_555
Ag2 N4 1_555 1_555
C1 H1 1_555 1_555
C2 C1 1_555 1_555
H2 C2 1_555 1_555
C3 C2 1_555 1_555
H3 C3 1_555 1_555
C4 C3 1_555 1_555
H4 C4 1_555 1_555
C5 C4 1_555 1_555
C6 C5 1_555 1_555
H5 C6 1_555 1_555
H6 C6 1_555 1_555
C7 H7 1_555 1_555
C8 H8 1_555 1_555
C9 C8 1_555 1_555
H9 C9 1_555 1_555
C10 H10 1_555 1_555
H11 C10 1_555 1_555
C11 C10 1_555 1_555
C12 C11 1_555 1_555
H12 C12 1_555 1_555
C13 C12 1_555 1_555
H13 C13 1_555 1_555
C14 C13 1_555 1_555
H14 C14 1_555 1_555
C15 C14 1_555 1_555
H15 C15 1_555 1_555
C16 H16 1_555 1_555
C17 C16 1_555 1_555
H17 C17 1_555 1_555
C18 C17 1_555 1_555
H18 C18 1_555 1_555
C19 C18 1_555 1_555
H19 C19 1_555 1_555
C20 C19 1_555 1_555
C21 C20 1_555 1_555
H20 C21 1_555 1_555
H21 C21 1_555 1_555
C22 H22 1_555 1_555
C23 H23 1_555 1_555
C24 C23 1_555 1_555
H24 C24 1_555 1_555
C25 H25 1_555 1_555
H26 C25 1_555 1_555
C26 C25 1_555 1_555
C27 C26 1_555 1_555
H27 C27 1_555 1_555
C28 C27 1_555 1_555
H28 C28 1_555 1_555
C29 C28 1_555 1_555
H29 C29 1_555 1_555
C30 C29 1_555 1_555
H30 C30 1_555 1_555
C31 C32 1_555 1_555
C32 H31 1_555 1_555
H32 C32 1_555 1_555
H33 C32 1_555 1_555
C33 C34 1_555 1_555
C34 H34 1_555 1_555
H35 C34 1_555 1_555
H36 C34 1_555 1_555
N1 C1 1_555 1_555
N2 C6 1_555 1_555
N3 C7 1_555 1_555
N4 C11 1_555 1_555
N5 Ag2 1_555 1_555
N6 C21 1_555 1_555
N7 C22 1_555 1_555
N8 C26 1_555 1_555
N9 Ag1 1_555 1_555
N10 Ag2 1_555 1_555
C35 C36 1_555 1_555
C36 H37 1_555 1_555
H38 C36 1_555 1_555
H39 C36 1_555 1_555
N11 C35 1_555 1_555
F1 P1 1_555 1_555
F2 P1 1_555 1_555
F3 P1 1_555 1_555
F4 P1 1_555 1_555
F5 P1 1_555 1_555
F6 P1 1_555 1_555
F7 P2 1_555 1_555
F8 P2 1_555 1_555
F9 P2 1_555 1_555
F10 P2 1_555 1_555
F11 P2 1_555 1_555
F12 P2 1_555 1_555
F13 P3 1_555 1_555
F14 P3 1_555 1_555
F15 P3 1_555 1_555
F16 P3 1_555 1_555
F17 P3 1_555 1_555
F18 P3 1_555 1_555
F19 P4 1_555 1_555
F20 P4 1_555 1_555
F21 P4 1_555 1_555
F22 P4 1_555 1_555
F23 P4 1_555 1_555
F24 P4 1_555 1_555
Ag1F N8 1_555 1_555
N8F Ag1 1_555 1_555
C5 N1 1_555 1_555
C7 N2 1_555 1_555
C8 N2 1_555 1_555
C9 N3 1_555 1_555
C10 N3 1_555 1_555
C15 N4 1_555 1_555
C16 N5 1_555 1_555
C20 N5 1_555 1_555
C22 N6 1_555 1_555
C23 N6 1_555 1_555
C24 N7 1_555 1_555
C25 N7 1_555 1_555
C30 N8 1_555 1_555
C31 N9 1_555 1_555
C33 N10 1_555 1_555

#END
