
#######################################################################
#
#                 Cambridge Crystallographic Data Centre
#                                CCDC 
#
#######################################################################
#
# If this CIF has been generated from an entry in the Cambridge 
# Structural Database, then it will include bibliographic, chemical, 
# crystal, experimental, refinement or atomic coordinate data resulting 
# from the CCDC's data processing and validation procedures.
#
#######################################################################

data_MULFEE
_symmetry_cell_setting           monoclinic
_symmetry_space_group_name_H-M   'P 21/n'
_symmetry_Int_Tables_number      14
_space_group_name_Hall           '-P 2yn'
loop_
_symmetry_equiv_pos_site_id
_symmetry_equiv_pos_as_xyz
1 x,y,z
2 1/2-x,1/2+y,1/2-z
3 -x,-y,-z
4 1/2+x,1/2-y,1/2+z
_cell_length_a                   19.006(4)
_cell_length_b                   16.679(3)
_cell_length_c                   20.788(4)
_cell_angle_alpha                90
_cell_angle_beta                 115.04(3)
_cell_angle_gamma                90
_cell_volume                     5970.46
loop_
_atom_site_label
_atom_site_type_symbol
_atom_site_fract_x
_atom_site_fract_y
_atom_site_fract_z
Mn1 Mn 1.03130(4) -0.36698(4) 0.76139(3)
S1 S 0.87902(8) -0.16426(9) 0.59289(8)
S2 S 1.06680(7) -0.58376(8) 0.92560(6)
N1 N 0.9262(2) -0.4479(2) 0.70125(15)
N2 N 0.5320(2) -0.8126(2) 0.67693(14)
N3 N 1.1383(2) -0.2901(2) 0.81722(14)
N4 N 1.4051(2) 0.0795(2) 0.80150(14)
N5 N 1.0803(2) -0.4605(2) 0.84233(15)
N6 N 0.9812(2) -0.2765(2) 0.6798(2)
C1 C 0.9364(3) -0.5266(3) 0.6991(2)
H1 H 0.9857(3) -0.5478(3) 0.7251(2)
C2 C 0.8778(3) -0.5771(3) 0.6605(2)
H2 H 0.8873(3) -0.6319(3) 0.6617(2)
C3 C 0.8062(3) -0.5490(3) 0.6205(3)
C4 C 0.7949(3) -0.4673(3) 0.6246(2)
H3 H 0.7459(3) -0.4449(3) 0.6001(2)
C5 C 0.8556(3) -0.4211(3) 0.6645(2)
H4 H 0.8469(3) -0.3665(3) 0.6662(2)
C6 C 0.5310(2) -0.7339(3) 0.6659(2)
H5 H 0.5054(2) -0.7011(3) 0.6854(2)
C7 C 0.5658(3) -0.6989(3) 0.6270(2)
H6 H 0.5624(3) -0.6438(3) 0.6198(2)
C8 C 0.6057(2) -0.7448(3) 0.5988(2)
C9 C 0.6073(3) -0.8262(3) 0.6103(2)
H7 H 0.6339(3) -0.8602(3) 0.5928(2)
C10 C 0.5689(3) -0.8564(3) 0.6483(2)
H8 H 0.5690(3) -0.9116(3) 0.6541(2)
C11 C 1.1695(3) -0.2463(3) 0.7835(2)
H9 H 1.1428(3) -0.2416(3) 0.7345(2)
C12 C 1.2390(3) -0.2070(3) 0.8164(2)
H10 H 1.2587(3) -0.1786(3) 0.7892(2)
C13 C 1.2798(2) -0.2088(2) 0.8883(2)
C14 C 1.2454(3) -0.2523(3) 0.9230(2)
H11 H 1.2691(3) -0.2548(3) 0.9723(2)
C15 C 1.1767(2) -0.2924(3) 0.8867(2)
H12 H 1.1565(2) -0.3225(3) 0.9125(2)
C16 C 1.3363(2) 0.0443(2) 0.7717(2)
H13 H 1.3118(2) 0.0424(2) 0.7224(2)
C17 C 1.2988(3) 0.0107(3) 0.8081(2)
H14 H 1.2503(3) -0.0129(3) 0.7837(2)
C18 C 1.3334(2) 0.0118(2) 0.8819(2)
C19 C 1.4042(3) 0.0495(3) 0.9136(2)
H15 H 1.4296(3) 0.0527(3) 0.9628(2)
C20 C 1.4375(3) 0.0824(3) 0.8726(2)
H16 H 1.4851(3) 0.1081(3) 0.8953(2)
C21 C 1.3546(3) -0.1653(3) 0.9290(3)
H17 H 1.3750(3) -0.1463(3) 0.8961(3)
H18 H 1.3921(3) -0.2022(3) 0.9617(3)
C22 C 0.7108(3) -0.6464(4) 0.6055(2)
H19 H 0.6886(3) -0.6058(4) 0.6248(2)
H20 H 0.7494(3) -0.6760(4) 0.6448(2)
C23 C 0.7450(3) -0.6108(4) 0.5668(3)
H21 H 0.7068(3) -0.5829(4) 0.5261(3)
H22 H 0.7711(3) -0.6503(4) 0.5503(3)
C24 C 0.6435(3) -0.7068(3) 0.5552(2)
H23 H 0.6051(3) -0.6775(3) 0.5156(2)
H24 H 0.6657(3) -0.7480(3) 0.5365(2)
C25 C 1.2965(3) -0.0264(3) 0.9253(2)
H25 H 1.2457(3) -0.0468(3) 0.8938(2)
H26 H 1.2893(3) 0.0138(3) 0.9557(2)
C26 C 1.3446(3) -0.0940(3) 0.9705(2)
H27 H 1.3207(3) -0.1128(3) 1.0007(2)
H28 H 1.3956(3) -0.0734(3) 1.0012(2)
C27 C 0.9377(2) -0.2295(2) 0.6444(2)
C28 C 1.0741(2) -0.5120(2) 0.8773(2)
N2A N 0.9680(2) -0.3126(2) 0.82307(14)
N4A N 1.0949(2) -0.4205(2) 0.69850(14)
Mn1A Mn 0.46870(4) -0.86698(4) 0.73861(3)
Mn1A_2 Mn 1.46870(4) 0.13302(4) 0.73861(3)
Mn2 Mn 1.01583(3) -0.11430(3) 1.26035(2)
S3 S 1.06732(9) -0.28718(9) 1.46196(6)
S4 S 0.89195(9) 0.06890(10) 1.05804(7)
N7 N 1.1285(2) -0.0407(2) 1.31051(11)
N8 N 1.4273(2) 0.3245(2) 1.30354(12)
N9 N 0.9098(2) -0.1965(2) 1.20522(13)
N10 N 0.5432(2) -0.5583(2) 1.17522(12)
N11 N 1.0667(2) -0.2024(2) 1.34736(13)
N12 N 0.9642(2) -0.0229(2) 1.17839(13)
C29 C 1.1562(2) 0.0025(2) 1.2728(2)
H29 H 1.1246(2) 0.0096(2) 1.2247(2)
C30 C 1.2279(2) 0.0371(2) 1.2996(2)
H30 H 1.2433(2) 0.0668(2) 1.2699(2)
C31 C 1.2779(2) 0.0285(2) 1.3702(2)
C32 C 1.2486(2) -0.0153(2) 1.4100(2)
H31 H 1.2785(2) -0.0218(2) 1.4584(2)
C33 C 1.1761(2) -0.0493(2) 1.37898(15)
H32 H 1.1593(2) -0.0799(2) 1.40724(15)
C34 C 1.3578(2) 0.2911(2) 1.2738(2)
H33 H 1.3319(2) 0.2924(2) 1.2245(2)
C35 C 1.3210(2) 0.2545(2) 1.3104(2)
H34 H 1.2716(2) 0.2330(2) 1.2862(2)
C36 C 1.3584(2) 0.2501(2) 1.3836(2)
C37 C 1.4299(2) 0.2867(3) 1.4147(2)
H35 H 1.4573(2) 0.2869(3) 1.4639(2)
C38 C 1.4608(2) 0.3231(3) 1.3733(2)
H36 H 1.5087(2) 0.3484(3) 1.3961(2)
C39 C 0.9134(2) -0.2747(2) 1.2177(2)
H37 H 0.9616(2) -0.2972(2) 1.2454(2)
C40 C 0.8495(2) -0.3244(3) 1.1918(2)
H38 H 0.8552(2) -0.3785(3) 1.2035(2)
C41 C 0.7774(2) -0.2947(2) 1.1489(2)
C42 C 0.7753(2) -0.2143(3) 1.1336(2)
H39 H 0.7287(2) -0.1911(3) 1.1027(2)
C43 C 0.8406(2) -0.1680(3) 1.1630(2)
H40 H 0.8361(2) -0.1134(3) 1.1529(2)
C44 C 0.5842(2) -0.6001(2) 1.1473(2)
H41 H 0.5938(2) -0.6540(2) 1.1595(2)
C45 C 0.6125(2) -0.5686(2) 1.1025(2)
H42 H 0.6423(2) -0.6000(2) 1.0864(2)
C46 C 0.5966(2) -0.4897(2) 1.08100(14)
C47 C 0.5531(2) -0.4473(2) 1.1087(2)
H43 H 0.5405(2) -0.3942(2) 1.0951(2)
C48 C 0.5276(2) -0.4813(2) 1.1559(2)
C49 C 1.3587(2) 0.0633(2) 1.4034(2)
H44 H 1.3708(2) 0.0859(2) 1.3663(2)
H45 H 1.3955(2) 0.0205(2) 1.4259(2)
C50 C 1.3253(2) 0.2055(3) 1.4282(2)
H46 H 1.3279(2) 0.2397(3) 1.4669(2)
H47 H 1.2710(2) 0.1933(3) 1.3992(2)
C51 C 1.3688(3) 0.1282(3) 1.4583(2)
H48 H 1.3515(3) 0.1070(3) 1.4927(2)
H49 H 1.4237(3) 0.1404(3) 1.4835(2)
C52 C 0.7048(2) -0.3464(2) 1.1193(2)
H50 H 0.6989(2) -0.3722(2) 1.1586(2)
H51 H 0.6601(2) -0.3120(2) 1.0955(2)
C53 C 0.7051(2) -0.4086(2) 1.0692(2)
H52 H 0.7445(2) -0.4482(2) 1.0947(2)
H53 H 0.7190(2) -0.3842(2) 1.0338(2)
C54 C 0.6260(2) -0.4510(2) 1.0315(2)
H54 H 0.5879(2) -0.4122(2) 1.0022(2)
H55 H 0.6305(2) -0.4919(2) 1.0002(2)
C55 C 1.0667(2) -0.2377(2) 1.3945(2)
C56 C 0.9353(2) 0.0142(2) 1.1287(2)
N8A N 1.0727(2) -0.1755(2) 1.19646(12)
N10A N 0.9568(2) -0.0583(2) 1.32478(12)
Mn2A Mn 1.48417(3) 0.38570(3) 1.23965(2)
Mn2A_2 Mn 0.48417(3) -0.61430(3) 1.23965(2)
O1 O 0.9358(12) -0.0169(11) 0.9498(7)
loop_
_geom_bond_atom_site_label_1
_geom_bond_atom_site_label_2
_geom_bond_site_symmetry_1
_geom_bond_site_symmetry_2
Mn1 N1 1_555 1_555
S1 C27 1_555 1_555
S2 C28 1_555 1_555
N1 C1 1_555 1_555
N2 C6 1_555 1_555
N3 Mn1 1_555 1_555
N4 C16 1_555 1_555
N5 Mn1 1_555 1_555
N6 Mn1 1_555 1_555
C1 H1 1_555 1_555
C2 C1 1_555 1_555
H2 C2 1_555 1_555
C3 C2 1_555 1_555
C4 C3 1_555 1_555
H3 C4 1_555 1_555
C5 N1 1_555 1_555
H4 C5 1_555 1_555
C6 H5 1_555 1_555
C7 C6 1_555 1_555
H6 C7 1_555 1_555
C8 C7 1_555 1_555
C9 C8 1_555 1_555
H7 C9 1_555 1_555
C10 N2 1_555 1_555
H8 C10 1_555 1_555
C11 N3 1_555 1_555
H9 C11 1_555 1_555
C12 C11 1_555 1_555
H10 C12 1_555 1_555
C13 C12 1_555 1_555
C14 C13 1_555 1_555
H11 C14 1_555 1_555
C15 N3 1_555 1_555
H12 C15 1_555 1_555
C16 H13 1_555 1_555
C17 C16 1_555 1_555
H14 C17 1_555 1_555
C18 C17 1_555 1_555
C19 C18 1_555 1_555
H15 C19 1_555 1_555
C20 N4 1_555 1_555
H16 C20 1_555 1_555
C21 C13 1_555 1_555
H17 C21 1_555 1_555
H18 C21 1_555 1_555
C22 H19 1_555 1_555
H20 C22 1_555 1_555
C23 C3 1_555 1_555
H21 C23 1_555 1_555
H22 C23 1_555 1_555
C24 C8 1_555 1_555
H23 C24 1_555 1_555
H24 C24 1_555 1_555
C25 C18 1_555 1_555
H25 C25 1_555 1_555
H26 C25 1_555 1_555
C26 C21 1_555 1_555
H27 C26 1_555 1_555
H28 C26 1_555 1_555
C27 N6 1_555 1_555
C28 N5 1_555 1_555
Mn2 N7 1_555 1_555
S3 C55 1_555 1_555
S4 C56 1_555 1_555
N7 C29 1_555 1_555
N8 C34 1_555 1_555
N9 Mn2 1_555 1_555
N10 C44 1_555 1_555
N11 Mn2 1_555 1_555
N12 Mn2 1_555 1_555
C29 H29 1_555 1_555
C30 C29 1_555 1_555
H30 C30 1_555 1_555
C31 C30 1_555 1_555
C32 C31 1_555 1_555
H31 C32 1_555 1_555
C33 N7 1_555 1_555
H32 C33 1_555 1_555
C34 H33 1_555 1_555
C35 C34 1_555 1_555
H34 C35 1_555 1_555
C36 C35 1_555 1_555
C37 C36 1_555 1_555
H35 C37 1_555 1_555
C38 N8 1_555 1_555
H36 C38 1_555 1_555
C39 N9 1_555 1_555
H37 C39 1_555 1_555
C40 C39 1_555 1_555
H38 C40 1_555 1_555
C41 C40 1_555 1_555
C42 C41 1_555 1_555
H39 C42 1_555 1_555
C43 N9 1_555 1_555
H40 C43 1_555 1_555
C44 H41 1_555 1_555
C45 C44 1_555 1_555
H42 C45 1_555 1_555
C46 C45 1_555 1_555
C47 C46 1_555 1_555
H43 C47 1_555 1_555
C48 N10 1_555 1_555
C49 C31 1_555 1_555
H44 C49 1_555 1_555
H45 C49 1_555 1_555
C50 C36 1_555 1_555
H46 C50 1_555 1_555
H47 C50 1_555 1_555
C51 C49 1_555 1_555
H48 C51 1_555 1_555
H49 C51 1_555 1_555
C52 C41 1_555 1_555
H50 C52 1_555 1_555
H51 C52 1_555 1_555
C53 C52 1_555 1_555
H52 C53 1_555 1_555
H53 C53 1_555 1_555
C54 C46 1_555 1_555
H54 C54 1_555 1_555
H55 C54 1_555 1_555
C55 N11 1_555 1_555
C56 N12 1_555 1_555
N2A Mn1 1_555 1_555
N4A Mn1 1_555 1_555
Mn1A N2 1_555 1_555
Mn1A_2 N4 1_555 1_555
N8A Mn2 1_555 1_555
N10A Mn2 1_555 1_555
Mn2A N8 1_555 1_555
Mn2A_2 N10 1_555 1_555
C4 C5 1_555 1_555
C9 C10 1_555 1_555
C14 C15 1_555 1_555
C19 C20 1_555 1_555
C22 C23 1_555 1_555
C22 C24 1_555 1_555
C25 C26 1_555 1_555
C32 C33 1_555 1_555
C37 C38 1_555 1_555
C42 C43 1_555 1_555
C47 C48 1_555 1_555
C50 C51 1_555 1_555
C53 C54 1_555 1_555

#END
