
#######################################################################
#
#                 Cambridge Crystallographic Data Centre
#                                CCDC 
#
#######################################################################
#
# If this CIF has been generated from an entry in the Cambridge 
# Structural Database, then it will include bibliographic, chemical, 
# crystal, experimental, refinement or atomic coordinate data resulting 
# from the CCDC's data processing and validation procedures.
#
#######################################################################

data_MULJIO
_symmetry_cell_setting           monoclinic
_symmetry_space_group_name_H-M   'C 2/c'
_symmetry_Int_Tables_number      15
_space_group_name_Hall           '-C 2yn'
loop_
_symmetry_equiv_pos_site_id
_symmetry_equiv_pos_as_xyz
1 x,y,z
2 -x,y,1/2-z
3 1/2+x,1/2+y,z
4 1/2-x,1/2+y,1/2-z
5 -x,-y,-z
6 x,-y,1/2+z
7 1/2-x,1/2-y,-z
8 1/2+x,1/2-y,1/2+z
_cell_length_a                   22.5566(7)
_cell_length_b                   17.2801(6)
_cell_length_c                   13.6112(4)
_cell_angle_alpha                90
_cell_angle_beta                 93.828(3)
_cell_angle_gamma                90
_cell_volume                     5293.54
loop_
_atom_site_label
_atom_site_type_symbol
_atom_site_fract_x
_atom_site_fract_y
_atom_site_fract_z
Co1 Co 0.296519(16) 0.17892(2) 0.17065(3)
C1 C 0.27213(14) 0.18566(18) 0.7494(2)
H1 H 0.2843 0.2138 0.6960
C2 C 0.2347(2) 0.1566(2) 0.8808(3)
H2 H 0.2149 0.1599 0.9384
C3 C 0.2610(2) 0.0933(2) 0.8493(3)
H3 H 0.2627 0.0453 0.8803
C4 C 0.3198(2) 0.0583(2) 0.7079(3)
H4 H 0.3614 0.0632 0.7303
H5 H 0.3076 0.0056 0.7207
C5 C 0.31268(18) 0.0742(2) 0.5898(3)
H6 H 0.3204 0.0271 0.5540
H7 H 0.2726 0.0914 0.5706
C6 C 0.3542(3) 0.1320(4) 0.5681(4)
H8 H 0.3928 0.1205 0.6006
H9 H 0.3412 0.1821 0.5906
C7 C 0.31540(17) 0.1475(2) 0.3867(2)
H10 H 0.2755 0.1554 0.3971
C8 C 0.4096(2) 0.1238(2) 0.4148(3)
H11 H 0.4465 0.1124 0.4458
C9 C 0.39713(15) 0.1346(2) 0.3194(3)
H12 H 0.4248 0.1324 0.2717
C10 C 0.37735(14) 0.1454(2) 0.0461(2)
C11 C 0.41351(13) 0.14610(18) -0.0424(2)
C12 C 0.41483(13) 0.21044(19) -0.1031(2)
H13 H 0.3928 0.2542 -0.0892
C13 C 0.44858(14) 0.20992(18) -0.1839(2)
H14 H 0.4491 0.2535 -0.2238
C14 C 0.48172(12) 0.14562(17) -0.20665(19)
C15 C 0.47934(14) 0.08079(19) -0.1468(2)
H15 H 0.5005 0.0366 -0.1615
C16 C 0.44576(14) 0.08150(18) -0.0655(2)
H16 H 0.4449 0.0378 -0.0258
C17 C 0.18780(12) 0.10736(17) 0.1701(2)
C18 C 0.13294(12) 0.07261(16) 0.12207(19)
C19 C 0.13179(13) 0.0459(2) 0.0267(2)
H17 H 0.1665 0.0466 -0.0065
C20 C 0.08043(13) 0.0182(2) -0.0205(2)
H18 H 0.0811 0.0013 -0.0853
C21 C 0.02774(11) 0.01466(15) 0.02562(19)
C22 C 0.02999(13) 0.0393(2) 0.1219(2)
H19 H -0.0042 0.0365 0.1562
C23 C 0.08136(14) 0.0679(2) 0.1691(2)
H20 H 0.0809 0.0843 0.2341
N1 N 0.24090(10) 0.21497(14) 0.81732(16)
N2 N 0.28484(11) 0.11142(14) 0.76422(18)
N3 N 0.35778(18) 0.1323(2) 0.4580(2)
N4 N 0.33774(11) 0.14969(14) 0.30076(17)
O1 O 0.34931(9) 0.20667(14) 0.06552(16)
O2 O 0.37562(13) 0.08614(15) 0.09622(17)
O3 O 0.23329(8) 0.10821(13) 0.11943(14)
O4 O 0.18864(9) 0.13597(14) 0.25396(14)
C10A C 0.62265(14) 0.1454(2) -0.5461(2)
C11A C 0.58649(13) 0.14610(18) -0.4576(2)
C12A C 0.58517(13) 0.21044(19) -0.3969(2)
H13A H 0.6072 0.2542 -0.4108
C13A C 0.55142(14) 0.20992(18) -0.3161(2)
H14A H 0.5509 0.2535 -0.2762
C14A C 0.51828(12) 0.14562(17) -0.29335(19)
C15A C 0.52066(14) 0.08079(19) -0.3532(2)
H15A H 0.4995 0.0366 -0.3385
C16A C 0.55424(14) 0.08150(18) -0.4345(2)
H16A H 0.5551 0.0378 -0.4742
O1A O 0.65069(9) 0.20667(14) -0.56552(16)
O2A O 0.62438(13) 0.08614(15) -0.59622(17)
C17D C -0.18780(12) -0.10736(17) -0.1701(2)
C18D C -0.13294(12) -0.07261(16) -0.12207(19)
C19D C -0.13179(13) -0.0459(2) -0.0267(2)
H17D H -0.1665 -0.0466 0.0065
C20D C -0.08043(13) -0.0182(2) 0.0205(2)
H18D H -0.0811 -0.0013 0.0853
C21D C -0.02774(11) -0.01466(15) -0.02562(19)
C22D C -0.02999(13) -0.0393(2) -0.1219(2)
H19D H 0.0042 -0.0365 -0.1562
C23D C -0.08136(14) -0.0679(2) -0.1691(2)
H20D H -0.0809 -0.0843 -0.2341
O3D O -0.23329(8) -0.10821(13) -0.11943(14)
O4D O -0.18864(9) -0.13597(14) -0.25396(14)
Co1A Co 0.703481(16) 0.17892(2) -0.67065(3)
C1A C 0.72787(14) 0.18566(18) -1.2494(2)
H1A H 0.7157 0.2138 -1.1960
C2A C 0.7653(2) 0.1566(2) -1.3808(3)
H2A H 0.7851 0.1599 -1.4384
C3A C 0.7390(2) 0.0933(2) -1.3493(3)
H3A H 0.7373 0.0453 -1.3803
C4A C 0.6802(2) 0.0583(2) -1.2079(3)
H4A H 0.6386 0.0632 -1.2303
H5A H 0.6924 0.0056 -1.2207
C5A C 0.68732(18) 0.0742(2) -1.0898(3)
H6A H 0.6796 0.0271 -1.0540
H7A H 0.7274 0.0914 -1.0706
C6A C 0.6458(3) 0.1320(4) -1.0681(4)
H8A H 0.6072 0.1205 -1.1006
H9A H 0.6588 0.1821 -1.0906
C7A C 0.68460(17) 0.1475(2) -0.8867(2)
H10A H 0.7245 0.1554 -0.8971
C8A C 0.5904(2) 0.1238(2) -0.9148(3)
H11A H 0.5535 0.1124 -0.9458
C9A C 0.60287(15) 0.1346(2) -0.8194(3)
H12A H 0.5752 0.1324 -0.7717
N1A N 0.75910(10) 0.21497(14) -1.31732(16)
N2A N 0.71516(11) 0.11142(14) -1.26422(18)
N3A N 0.64222(18) 0.1323(2) -0.9580(2)
N4A N 0.66226(11) 0.14969(14) -0.80076(17)
Co1D Co -0.296519(16) -0.17892(2) -0.17065(3)
Co1F Co 0.203481(16) 0.32108(2) 0.82935(3)
Co1G Co 0.796519(16) 0.32108(2) -1.32935(3)
N1F N 0.25910(10) 0.28503(14) 0.18268(16)
N1G N 0.74090(10) 0.28503(14) -0.68268(16)
O3A O 0.76671(8) 0.10821(13) -0.61943(14)
C24 C 0.13842(14) 0.16667(19) 0.4772(2)
C25 C 0.09663(12) 0.17178(17) 0.5561(2)
C26 C 0.03758(13) 0.19186(18) 0.5378(2)
H21 H 0.0231 0.2034 0.4739
C27 C 0.00016(13) 0.19489(18) 0.6131(2)
H22 H -0.0394 0.2089 0.5996
C28 C 0.02037(12) 0.17731(17) 0.7094(2)
C29 C 0.07989(13) 0.15752(19) 0.7270(2)
H23 H 0.0945 0.1457 0.7907
C30 C 0.11735(13) 0.15514(19) 0.6517(2)
H24 H 0.1571 0.1422 0.6650
O5 O 0.11266(9) 0.16577(15) 0.38704(15)
H25 H 0.1382 0.1631 0.3470
O6 O 0.19149(10) 0.16420(19) 0.49258(17)
C24A C -0.13842(14) 0.16667(19) 1.0228(2)
C25A C -0.09663(12) 0.17178(17) 0.9439(2)
C26A C -0.03758(13) 0.19186(18) 0.9622(2)
H21A H -0.0231 0.2034 1.0261
C27A C -0.00016(13) 0.19489(18) 0.8869(2)
H22A H 0.0394 0.2089 0.9004
C28A C -0.02037(12) 0.17731(17) 0.7906(2)
C29A C -0.07989(13) 0.15752(19) 0.7730(2)
H23A H -0.0945 0.1457 0.7093
C30A C -0.11735(13) 0.15514(19) 0.8483(2)
H24A H -0.1571 0.1422 0.8350
O5A O -0.11266(9) 0.16577(15) 1.11296(15)
H25A H -0.1382 0.1631 1.1530
O6A O -0.19149(10) 0.16420(19) 1.00742(17)
loop_
_geom_bond_atom_site_label_1
_geom_bond_atom_site_label_2
_geom_bond_site_symmetry_1
_geom_bond_site_symmetry_2
Co1 N4 1_555 1_555
C1 H1 1_555 1_555
C2 H2 1_555 1_555
C3 C2 1_555 1_555
H3 C3 1_555 1_555
C4 H4 1_555 1_555
H5 C4 1_555 1_555
C5 C4 1_555 1_555
H6 C5 1_555 1_555
H7 C5 1_555 1_555
C6 C5 1_555 1_555
H8 C6 1_555 1_555
H9 C6 1_555 1_555
C7 H10 1_555 1_555
C8 H11 1_555 1_555
C9 C8 1_555 1_555
H12 C9 1_555 1_555
C10 C11 1_555 1_555
C11 C12 1_555 1_555
C12 H13 1_555 1_555
C13 C12 1_555 1_555
H14 C13 1_555 1_555
C14 C13 1_555 1_555
C15 C14 1_555 1_555
H15 C15 1_555 1_555
C16 C11 1_555 1_555
H16 C16 1_555 1_555
C17 C18 1_555 1_555
C18 C19 1_555 1_555
C19 H17 1_555 1_555
C20 C19 1_555 1_555
H18 C20 1_555 1_555
C21 C20 1_555 1_555
C22 C21 1_555 1_555
H19 C22 1_555 1_555
C23 C18 1_555 1_555
H20 C23 1_555 1_555
N1 C1 1_555 1_555
N2 C1 1_555 1_555
N3 C6 1_555 1_555
N4 C7 1_555 1_555
O1 Co1 1_555 1_555
O2 C10 1_555 1_555
O3 Co1 1_555 1_555
O4 C17 1_555 1_555
C24 C25 1_555 1_555
C25 C26 1_555 1_555
C26 H21 1_555 1_555
C27 C26 1_555 1_555
H22 C27 1_555 1_555
C28 C27 1_555 1_555
C29 C28 1_555 1_555
H23 C29 1_555 1_555
C30 C25 1_555 1_555
H24 C30 1_555 1_555
O5 C24 1_555 1_555
H25 O5 1_555 1_555
O6 C24 1_555 1_555
C10A C11A 1_555 1_555
C11A C12A 1_555 1_555
C12A H13A 1_555 1_555
C13A C12A 1_555 1_555
H14A C13A 1_555 1_555
C14A C14 1_555 1_555
C15A C14A 1_555 1_555
H15A C15A 1_555 1_555
C16A C11A 1_555 1_555
H16A C16A 1_555 1_555
O1A C10A 1_555 1_555
O2A C10A 1_555 1_555
C17D C18D 1_555 1_555
C18D C19D 1_555 1_555
C19D H17D 1_555 1_555
C20D C19D 1_555 1_555
H18D C20D 1_555 1_555
C21D C21 1_555 1_555
C22D C21D 1_555 1_555
H19D C22D 1_555 1_555
C23D C18D 1_555 1_555
H20D C23D 1_555 1_555
O3D C17D 1_555 1_555
O4D C17D 1_555 1_555
Co1A O1A 1_555 1_555
C1A H1A 1_555 1_555
C2A H2A 1_555 1_555
C3A C2A 1_555 1_555
H3A C3A 1_555 1_555
C4A H4A 1_555 1_555
H5A C4A 1_555 1_555
C5A C4A 1_555 1_555
H6A C5A 1_555 1_555
H7A C5A 1_555 1_555
C6A C5A 1_555 1_555
H8A C6A 1_555 1_555
H9A C6A 1_555 1_555
C7A H10A 1_555 1_555
C8A H11A 1_555 1_555
C9A C8A 1_555 1_555
H12A C9A 1_555 1_555
N1A C1A 1_555 1_555
N2A C1A 1_555 1_555
N3A C6A 1_555 1_555
N4A Co1A 1_555 1_555
Co1D O3D 1_555 1_555
Co1F N1 1_555 1_555
Co1G N1A 1_555 1_555
N1F Co1 1_555 1_555
N1G Co1A 1_555 1_555
O3A Co1A 1_555 1_555
C24A C25A 1_555 1_555
C25A C26A 1_555 1_555
C26A H21A 1_555 1_555
C27A C26A 1_555 1_555
H22A C27A 1_555 1_555
C28A C28 1_555 1_555
C29A C28A 1_555 1_555
H23A C29A 1_555 1_555
C30A C25A 1_555 1_555
H24A C30A 1_555 1_555
O5A C24A 1_555 1_555
H25A O5A 1_555 1_555
O6A C24A 1_555 1_555
C2 N1 1_555 1_555
C3 N2 1_555 1_555
C4 N2 1_555 1_555
C7 N3 1_555 1_555
C8 N3 1_555 1_555
C9 N4 1_555 1_555
C10 O1 1_555 1_555
C15 C16 1_555 1_555
C17 O3 1_555 1_555
C22 C23 1_555 1_555
C29 C30 1_555 1_555
C13A C14A 1_555 1_555
C15A C16A 1_555 1_555
C20D C21D 1_555 1_555
C22D C23D 1_555 1_555
C2A N1A 1_555 1_555
C3A N2A 1_555 1_555
C4A N2A 1_555 1_555
C7A N3A 1_555 1_555
C7A N4A 1_555 1_555
C8A N3A 1_555 1_555
C9A N4A 1_555 1_555
C27A C28A 1_555 1_555
C29A C30A 1_555 1_555

#END
