
#######################################################################
#
#                 Cambridge Crystallographic Data Centre
#                                CCDC 
#
#######################################################################
#
# If this CIF has been generated from an entry in the Cambridge 
# Structural Database, then it will include bibliographic, chemical, 
# crystal, experimental, refinement or atomic coordinate data resulting 
# from the CCDC's data processing and validation procedures.
#
#######################################################################

data_MULQOB
_symmetry_cell_setting           triclinic
_symmetry_space_group_name_H-M   'P -1'
_symmetry_Int_Tables_number      2
_space_group_name_Hall           '-P 1'
loop_
_symmetry_equiv_pos_site_id
_symmetry_equiv_pos_as_xyz
1 x,y,z
2 -x,-y,-z
_cell_length_a                   7.978(2)
_cell_length_b                   10.331(3)
_cell_length_c                   11.688(3)
_cell_angle_alpha                64.068(3)
_cell_angle_beta                 73.732(3)
_cell_angle_gamma                82.492(3)
_cell_volume                     831.615
loop_
_atom_site_label
_atom_site_type_symbol
_atom_site_fract_x
_atom_site_fract_y
_atom_site_fract_z
Co1 Co 0.35507(10) 0.91454(7) 0.44579(7)
S1 S 0.31319(18) 0.44828(13) 0.45705(13)
O1 O 0.2354(5) 0.1061(3) 0.4161(3)
N1 N 1.2311(5) 0.8179(4) -0.3472(4)
C1 C 0.2975(7) 0.1853(5) 0.4515(5)
O2 O 0.3020(5) 0.7379(4) 0.4373(4)
O3 O 0.4080(5) 0.1429(4) 0.5185(4)
N2 N 0.4899(6) 1.0070(5) 0.2374(4)
O4 O 0.1074(5) 0.8326(4) 0.3164(4)
C2 C 1.1149(7) 0.8837(5) -0.2839(5)
H1 H 1.0810 0.9795 -0.3327
C3 C 0.7063(7) 0.9704(5) 0.0628(5)
C4 C 0.6069(7) 0.9251(6) 0.1914(5)
H2 H 0.6232 0.8289 0.2512
C5 C 0.0945(7) 0.5504(5) 0.3151(5)
H3 H 0.0180 0.6143 0.2656
C6 C 0.1204(7) 0.4035(5) 0.3357(5)
H4 H 0.0636 0.3580 0.3017
C7 C 0.4711(7) 1.1429(6) 0.1522(5)
H5 H 0.3870 1.2029 0.1817
O5 O 0.8335(6) 0.7370(4) 0.1118(4)
N3 N 0.9219(6) 0.9051(5) -0.0966(4)
H6 H 0.9087 0.9953 -0.1504
C8 C 0.5672(8) 1.1991(6) 0.0251(5)
H7 H 0.5514 1.2967 -0.0318
C9 C 1.0405(7) 0.8189(5) -0.1495(5)
C10 C 0.1982(7) 0.7309(6) 0.3747(5)
C11 C 0.1913(7) 0.5893(5) 0.3739(5)
C12 C 0.2367(6) 0.3365(5) 0.4102(5)
C13 C 0.8277(7) 0.8612(6) 0.0286(6)
C14 C 1.2093(7) 0.6105(6) -0.1459(6)
H8 H 1.2455 0.5144 -0.1000
C15 C 1.2749(7) 0.6812(5) -0.2797(5)
H9 H 1.3533 0.6317 -0.3252
C16 C 0.6884(7) 1.1124(6) -0.0205(5)
H10 H 0.7584 1.1507 -0.1083
C17 C 1.0908(7) 0.6789(6) -0.0781(6)
H11 H 1.0453 0.6316 0.0144
Co1_2 Co 0.35507(10) -0.08546(7) 0.44579(7)
Co1_3 Co 1.35507(10) 0.91454(7) -0.55421(7)
Co1A Co 0.64493(10) 0.08546(7) 0.55421(7)
O1_2 O 0.2354(5) 1.1061(3) 0.4161(3)
N1_2 N 0.2311(5) 0.8179(4) 0.6528(4)
O3A O 0.5920(5) 0.8571(4) 0.4815(4)
loop_
_geom_bond_atom_site_label_1
_geom_bond_atom_site_label_2
_geom_bond_site_symmetry_1
_geom_bond_site_symmetry_2
Co1 O2 1_555 1_555
S1 C11 1_555 1_555
O1 C1 1_555 1_555
N1 C2 1_555 1_555
C1 O3 1_555 1_555
O2 C10 1_555 1_555
O3 Co1A 1_555 1_555
N2 Co1 1_555 1_555
O4 C10 1_555 1_555
C2 H1 1_555 1_555
C3 C4 1_555 1_555
C4 N2 1_555 1_555
H2 C4 1_555 1_555
C5 H3 1_555 1_555
C6 C5 1_555 1_555
H4 C6 1_555 1_555
C7 N2 1_555 1_555
H5 C7 1_555 1_555
O5 C13 1_555 1_555
N3 H6 1_555 1_555
C8 C7 1_555 1_555
H7 C8 1_555 1_555
C9 C2 1_555 1_555
C10 C11 1_555 1_555
C11 C5 1_555 1_555
C12 S1 1_555 1_555
C13 C3 1_555 1_555
C14 H8 1_555 1_555
C15 N1 1_555 1_555
H9 C15 1_555 1_555
C16 C3 1_555 1_555
H10 C16 1_555 1_555
C17 C9 1_555 1_555
H11 C17 1_555 1_555
Co1_2 O1 1_555 1_555
Co1_3 N1 1_555 1_555
O1_2 Co1 1_555 1_555
N1_2 Co1 1_555 1_555
O3A Co1 1_555 1_555
C1 C12 1_555 1_555
C6 C12 1_555 1_555
N3 C9 1_555 1_555
N3 C13 1_555 1_555
C8 C16 1_555 1_555
C14 C15 1_555 1_555
C14 C17 1_555 1_555

#END
