
#######################################################################
#
#                 Cambridge Crystallographic Data Centre
#                                CCDC 
#
#######################################################################
#
# If this CIF has been generated from an entry in the Cambridge 
# Structural Database, then it will include bibliographic, chemical, 
# crystal, experimental, refinement or atomic coordinate data resulting 
# from the CCDC's data processing and validation procedures.
#
#######################################################################

data_MUMKOU
_symmetry_cell_setting           monoclinic
_symmetry_space_group_name_H-M   'C 2/c'
_symmetry_Int_Tables_number      15
_space_group_name_Hall           '-C 2yn'
loop_
_symmetry_equiv_pos_site_id
_symmetry_equiv_pos_as_xyz
1 x,y,z
2 1/2+x,1/2+y,z
3 x,-y,1/2+z
4 1/2+x,1/2-y,1/2+z
5 -x,-y,-z
6 1/2-x,1/2-y,-z
7 -x,y,1/2-z
8 1/2-x,1/2+y,1/2-z
_cell_length_a                   24.148(10)
_cell_length_b                   10.908(6)
_cell_length_c                   12.942(5)
_cell_angle_alpha                90
_cell_angle_beta                 107.67(2)
_cell_angle_gamma                90
_cell_volume                     3248.17
loop_
_atom_site_label
_atom_site_type_symbol
_atom_site_fract_x
_atom_site_fract_y
_atom_site_fract_z
Co1 Co -0.106630(18) -1.13695(4) -0.07223(4)
O1 O -0.16174(10) -0.8265(3) 0.2716(2)
O2 O -0.11169(11) -0.8941(3) 0.1651(2)
O3 O -0.16401(10) -1.0024(2) -0.0528(2)
O4 O -0.12813(12) -0.8305(3) -0.0997(2)
O5 O -0.43997(10) -0.4991(3) 0.1392(2)
O6 O -0.44548(11) -0.4241(3) -0.0871(2)
N1 N -0.45183(13) -0.2275(3) 0.0881(3)
N2 N -0.52807(14) -0.1195(3) 0.0888(3)
N3 N -0.34682(13) -0.2391(3) 0.0055(3)
N4 N -0.31134(13) -0.1386(3) -0.1074(3)
C1 C -0.43452(17) -0.1141(4) 0.1286(4)
H1 H -0.3962 -0.0871 0.1515
C2 C -0.48053(19) -0.0467(4) 0.1308(4)
H2 H -0.4802 0.0333 0.1559
C3 C -0.58832(18) -0.0854(5) 0.0727(5)
H3 H -0.6129 -0.1292 0.0116
H4 H -0.5929 0.0012 0.0595
H5 H -0.5989 -0.1056 0.1364
C4 C -0.50880(17) -0.2265(4) 0.0646(4)
H6 H -0.5326 -0.2925 0.0347
C5 C -0.30289(16) -0.1635(4) 0.0633(3)
H7 H -0.2904 -0.1559 0.1384
C6 C -0.28071(16) -0.1021(4) -0.0052(3)
H8 H -0.2504 -0.0457 0.0134
C7 C -0.3027(2) -0.0947(5) -0.2071(4)
H9 H -0.3299 -0.1342 -0.2679
H10 H -0.2638 -0.1131 -0.2069
H11 H -0.3087 -0.0076 -0.2126
C8 C -0.35031(16) -0.2212(4) -0.0963(3)
H12 H -0.3767 -0.2610 -0.1542
C9 C -0.15474(14) -0.8444(3) 0.1807(3)
C10 C -0.20340(14) -0.7976(3) 0.0840(3)
C11 C -0.24823(14) -0.7329(3) 0.1049(3)
H13 H -0.2471 -0.7211 0.1767
C12 C -0.20529(13) -0.8153(3) -0.0234(3)
C13 C -0.16125(13) -0.8885(3) -0.0600(3)
H14 H -0.4274(17) -0.482(3) -0.105(4)
H15 H -0.4183(18) -0.560(3) 0.140(4)
H16 H -0.432(2) -0.461(4) 0.199(3)
H18 H -0.4792(13) -0.453(4) -0.098(4)
O1B O -0.16174(10) -1.1735(3) -0.2284(2)
Co1B Co -0.106630(18) -0.86305(4) 0.42777(4)
C12E C -0.29471(13) -0.6847(3) 0.0234(3)
C10E C -0.29660(14) -0.7024(3) -0.0840(3)
C9E C -0.34526(14) -0.6556(3) -0.1807(3)
O1E O -0.33826(10) -0.6735(3) -0.2716(2)
Co1G Co -0.393370(18) -0.63695(4) -0.42777(4)
O2E O -0.38831(11) -0.6059(3) -0.1651(2)
C11E C -0.25177(14) -0.7671(3) -0.1049(3)
H13E H -0.2529 -0.7789 -0.1767
C13E C -0.33875(13) -0.6115(3) 0.0600(3)
O3E O -0.33599(10) -0.4976(2) 0.0528(2)
Co1E Co -0.393370(18) -0.36305(4) 0.07223(4)
O1G O -0.33826(10) -0.3265(3) 0.2284(2)
O4E O -0.37187(12) -0.6695(3) 0.0997(2)
O5E O -0.06003(10) -1.0009(3) -0.1392(2)
H15E H -0.0817(18) -0.940(3) -0.140(4)
H16E H -0.068(2) -1.039(4) -0.199(3)
O6E O -0.05452(11) -1.0759(3) 0.0871(2)
H14E H -0.0726(17) -1.018(3) 0.105(4)
H18E H -0.0208(13) -1.047(4) 0.098(4)
N1E N -0.04817(13) -1.2725(3) -0.0881(3)
C1E C -0.06548(17) -1.3859(4) -0.1286(4)
H1E H -0.1038 -1.4129 -0.1515
C2E C -0.01947(19) -1.4533(4) -0.1308(4)
N2E N 0.02807(14) -1.3805(3) -0.0888(3)
C3E C 0.08832(18) -1.4146(5) -0.0727(5)
H3E H 0.1129 -1.3708 -0.0116
H4E H 0.0929 -1.5012 -0.0595
H5E H 0.0989 -1.3944 -0.1364
C4E C 0.00880(17) -1.2735(4) -0.0646(4)
H6E H 0.0326 -1.2075 -0.0347
H2E H -0.0198 -1.5333 -0.1559
N3E N -0.15318(13) -1.2609(3) -0.0055(3)
C5E C -0.19711(16) -1.3365(4) -0.0633(3)
H7E H -0.2096 -1.3441 -0.1384
C6E C -0.21929(16) -1.3979(4) 0.0052(3)
N4E N -0.18866(13) -1.3614(3) 0.1074(3)
C7E C -0.1973(2) -1.4053(5) 0.2071(4)
H9E H -0.1701 -1.3658 0.2679
H10E H -0.2362 -1.3869 0.2069
H11E H -0.1913 -1.4924 0.2126
C8E C -0.14969(16) -1.2788(4) 0.0963(3)
H12E H -0.1233 -1.2390 0.1542
H8E H -0.2496 -1.4543 -0.0134
O7 O -0.5000 -1.2265(6) -1.2500
H17 H -0.481(3) -1.276(5) -1.201(4)
H17F H -0.519(3) -1.276(5) -1.299(4)
loop_
_geom_bond_atom_site_label_1
_geom_bond_atom_site_label_2
_geom_bond_site_symmetry_1
_geom_bond_site_symmetry_2
Co1 O3 1_555 1_555
O1 C9 1_555 1_555
O2 C9 1_555 1_555
O3 C13 1_555 1_555
O4 C13 1_555 1_555
O5 H15 1_555 1_555
O6 H14 1_555 1_555
O7 H17 1_555 1_555
N1 C1 1_555 1_555
N2 C2 1_555 1_555
N3 C5 1_555 1_555
N4 C6 1_555 1_555
C1 H1 1_555 1_555
C2 C1 1_555 1_555
H2 C2 1_555 1_555
C3 N2 1_555 1_555
H3 C3 1_555 1_555
H4 C3 1_555 1_555
H5 C3 1_555 1_555
C4 N1 1_555 1_555
H6 C4 1_555 1_555
C5 H7 1_555 1_555
C6 C5 1_555 1_555
H8 C6 1_555 1_555
C7 N4 1_555 1_555
H9 C7 1_555 1_555
H10 C7 1_555 1_555
H11 C7 1_555 1_555
C8 N3 1_555 1_555
H12 C8 1_555 1_555
C9 C10 1_555 1_555
C10 C11 1_555 1_555
C11 H13 1_555 1_555
C12 C10 1_555 1_555
C13 C12 1_555 1_555
H16 O5 1_555 1_555
H18 O6 1_555 1_555
O1B Co1 1_555 1_555
Co1B O1 1_555 1_555
C12E C11 1_555 1_555
C10E C12E 1_555 1_555
C9E C10E 1_555 1_555
O1E C9E 1_555 1_555
Co1G O1E 1_555 1_555
O2E C9E 1_555 1_555
C11E C12 1_555 1_555
H13E C11E 1_555 1_555
C13E C12E 1_555 1_555
O3E C13E 1_555 1_555
Co1E O5 1_555 1_555
O1G Co1E 1_555 1_555
O4E C13E 1_555 1_555
O5E Co1 1_555 1_555
H15E O5E 1_555 1_555
H16E O5E 1_555 1_555
O6E Co1 1_555 1_555
H14E O6E 1_555 1_555
H18E O6E 1_555 1_555
N1E Co1 1_555 1_555
C1E N1E 1_555 1_555
H1E C1E 1_555 1_555
C2E C1E 1_555 1_555
N2E C2E 1_555 1_555
C3E N2E 1_555 1_555
H3E C3E 1_555 1_555
H4E C3E 1_555 1_555
H5E C3E 1_555 1_555
C4E N1E 1_555 1_555
H6E C4E 1_555 1_555
H2E C2E 1_555 1_555
N3E Co1 1_555 1_555
C5E N3E 1_555 1_555
H7E C5E 1_555 1_555
C6E C5E 1_555 1_555
N4E C6E 1_555 1_555
C7E N4E 1_555 1_555
H9E C7E 1_555 1_555
H10E C7E 1_555 1_555
H11E C7E 1_555 1_555
C8E N3E 1_555 1_555
H12E C8E 1_555 1_555
H8E C6E 1_555 1_555
H17F O7 1_555 1_555
O6 Co1E 1_555 1_555
N1 Co1E 1_555 1_555
N2 C4 1_555 1_555
N3 Co1E 1_555 1_555
N4 C8 1_555 1_555
C10E C11E 1_555 1_555
O3E Co1E 1_555 1_555
N2E C4E 1_555 1_555
N4E C8E 1_555 1_555

#END
