
#######################################################################
#
#                 Cambridge Crystallographic Data Centre
#                                CCDC 
#
#######################################################################
#
# If this CIF has been generated from an entry in the Cambridge 
# Structural Database, then it will include bibliographic, chemical, 
# crystal, experimental, refinement or atomic coordinate data resulting 
# from the CCDC's data processing and validation procedures.
#
#######################################################################

data_MUMNAL
_symmetry_cell_setting           monoclinic
_symmetry_space_group_name_H-M   'P 21/n'
_symmetry_Int_Tables_number      14
_space_group_name_Hall           '-P 2yn'
loop_
_symmetry_equiv_pos_site_id
_symmetry_equiv_pos_as_xyz
1 x,y,z
2 1/2-x,1/2+y,1/2-z
3 -x,-y,-z
4 1/2+x,1/2-y,1/2+z
_cell_length_a                   6.5012(10)
_cell_length_b                   9.5533(14)
_cell_length_c                   14.649(2)
_cell_angle_alpha                90
_cell_angle_beta                 95.927(2)
_cell_angle_gamma                90
_cell_volume                     904.955
loop_
_atom_site_label
_atom_site_type_symbol
_atom_site_fract_x
_atom_site_fract_y
_atom_site_fract_z
U1 U 0.0000 0.0000 0.5000
C1 C 0.3653(7) 0.1082(5) 0.3572(3)
H1 H 0.4527 0.0327 0.3721
C2 C 0.2450(7) -0.2523(5) 0.4959(3)
C3 C 0.3765(7) -0.3806(4) 0.4976(3)
C4 C 0.3090(8) -0.5035(5) 0.5351(4)
H2 H 0.1817 -0.5063 0.5588
C5 C 0.5672(7) -0.3769(5) 0.4628(4)
H3 H 0.6127 -0.2943 0.4380
C6 C 0.2969(11) 0.3274(7) 0.2786(4)
H4 H 0.2458 0.3257 0.2147
H5 H 0.3792 0.4099 0.2913
H6 H 0.1825 0.3282 0.3151
C7 C 0.6126(11) 0.1887(8) 0.2565(5)
H7 H 0.7058 0.2633 0.2762
H8 H 0.5804 0.1932 0.1911
H9 H 0.6765 0.1004 0.2730
N1 N 0.4237(7) 0.2029(4) 0.3008(3)
O1 O 0.1634(5) 0.0613(4) 0.5961(2)
O2 O 0.0829(6) -0.2525(3) 0.5346(3)
O3 O 0.3015(5) -0.1415(3) 0.4594(2)
O4 O 0.1999(5) 0.1140(4) 0.3918(2)
C2B C 0.7550(7) -0.7477(5) 0.5041(3)
C3B C 0.6235(7) -0.6194(4) 0.5024(3)
C4B C 0.6910(8) -0.4965(5) 0.4649(4)
H2B H 0.8183 -0.4937 0.4412
C5B C 0.4328(7) -0.6231(5) 0.5372(4)
H3B H 0.3873 -0.7057 0.5620
O2B O 0.9171(6) -0.7475(3) 0.4654(3)
O3B O 0.6985(5) -0.8585(3) 0.5406(2)
C1B C -0.3653(7) -0.1082(5) 0.6428(3)
H1B H -0.4527 -0.0327 0.6279
C6B C -0.2969(11) -0.3274(7) 0.7214(4)
H4B H -0.2458 -0.3257 0.7853
H5B H -0.3792 -0.4099 0.7087
H6B H -0.1825 -0.3282 0.6849
C7B C -0.6126(11) -0.1887(8) 0.7435(5)
H7B H -0.7058 -0.2633 0.7238
H8B H -0.5804 -0.1932 0.8089
H9B H -0.6765 -0.1004 0.7270
N1B N -0.4237(7) -0.2029(4) 0.6992(3)
O1B O -0.1634(5) -0.0613(4) 0.4039(2)
O4B O -0.1999(5) -0.1140(4) 0.6082(2)
U1_2 U 1.0000 -1.0000 0.5000
O2B_2 O -0.0829(6) 0.2525(3) 0.4654(3)
O3B_2 O -0.3015(5) 0.1415(3) 0.5406(2)
loop_
_geom_bond_atom_site_label_1
_geom_bond_atom_site_label_2
_geom_bond_site_symmetry_1
_geom_bond_site_symmetry_2
U1 O1 1_555 1_555
C1 H1 1_555 1_555
C2 C3 1_555 1_555
C3 C4 1_555 1_555
C4 H2 1_555 1_555
C5 C3 1_555 1_555
H3 C5 1_555 1_555
C6 H4 1_555 1_555
H5 C6 1_555 1_555
H6 C6 1_555 1_555
C7 H7 1_555 1_555
H8 C7 1_555 1_555
H9 C7 1_555 1_555
N1 C1 1_555 1_555
O2 U1 1_555 1_555
O3 U1 1_555 1_555
O4 U1 1_555 1_555
C2B C3B 1_555 1_555
C3B C4B 1_555 1_555
C4B C5 1_555 1_555
H2B C4B 1_555 1_555
C5B C4 1_555 1_555
H3B C5B 1_555 1_555
O2B C2B 1_555 1_555
O3B C2B 1_555 1_555
C1B H1B 1_555 1_555
C6B H4B 1_555 1_555
H5B C6B 1_555 1_555
H6B C6B 1_555 1_555
C7B H7B 1_555 1_555
H8B C7B 1_555 1_555
H9B C7B 1_555 1_555
N1B C1B 1_555 1_555
O1B U1 1_555 1_555
O4B U1 1_555 1_555
U1_2 O2B 1_555 1_555
O2B_2 U1 1_555 1_555
O3B_2 U1 1_555 1_555
C1 O4 1_555 1_555
C2 O2 1_555 1_555
C2 O3 1_555 1_555
C6 N1 1_555 1_555
C7 N1 1_555 1_555
C3B C5B 1_555 1_555
O3B U1_2 1_555 1_555
C1B O4B 1_555 1_555
C6B N1B 1_555 1_555
C7B N1B 1_555 1_555

#END
