
#######################################################################
#
#                 Cambridge Crystallographic Data Centre
#                                CCDC 
#
#######################################################################
#
# If this CIF has been generated from an entry in the Cambridge 
# Structural Database, then it will include bibliographic, chemical, 
# crystal, experimental, refinement or atomic coordinate data resulting 
# from the CCDC's data processing and validation procedures.
#
#######################################################################

data_MUMZAX
_symmetry_cell_setting           rhombohedral
_symmetry_space_group_name_H-M   'R -3'
_symmetry_Int_Tables_number      148
_space_group_name_Hall           '-R 3'
loop_
_symmetry_equiv_pos_site_id
_symmetry_equiv_pos_as_xyz
1 x,y,z
2 -y,x-y,z
3 -x+y,-x,z
4 2/3+x,1/3+y,1/3+z
5 2/3-y,1/3+x-y,1/3+z
6 2/3-x+y,1/3-x,1/3+z
7 1/3+x,2/3+y,2/3+z
8 1/3-y,2/3+x-y,2/3+z
9 1/3-x+y,2/3-x,2/3+z
10 -x,-y,-z
11 y,-x+y,-z
12 x-y,x,-z
13 1/3-x,2/3-y,2/3-z
14 1/3+y,2/3-x+y,2/3-z
15 1/3+x-y,2/3+x,2/3-z
16 2/3-x,1/3-y,1/3-z
17 2/3+y,1/3-x+y,1/3-z
18 2/3+x-y,1/3+x,1/3-z
_cell_length_a                   32.872(5)
_cell_length_b                   32.872(5)
_cell_length_c                   9.3160(19)
_cell_angle_alpha                90
_cell_angle_beta                 90
_cell_angle_gamma                120
_cell_volume                     8717.91
loop_
_atom_site_label
_atom_site_type_symbol
_atom_site_fract_x
_atom_site_fract_y
_atom_site_fract_z
Co1 Co 0.5000 0.0000 0.0000
N1 N 0.53564(8) 0.00223(8) 0.1757(3)
N2 N 0.49846(8) 0.05643(8) 0.0697(3)
C1 C 0.55611(11) -0.02516(11) 0.2028(3)
C2 C 0.55123(10) 0.03490(11) 0.2853(3)
C3 C 0.51669(10) 0.08075(10) 0.1972(3)
C4 C 0.47430(10) 0.07616(10) 0.0088(3)
C5 C 0.58417(13) -0.00922(13) 0.3315(4)
C6 C 0.55150(11) -0.06148(11) 0.1173(3)
C7 C 0.58107(12) 0.02724(13) 0.3825(4)
C8 C 0.54188(11) 0.07154(11) 0.2979(3)
C9 C 0.50435(12) 0.11688(12) 0.2112(4)
C10 C 0.47821(12) 0.11394(12) 0.0969(4)
H1 H 0.6013 -0.0219 0.3716
C11 C 0.57651(11) -0.08717(11) 0.1610(3)
H2 H 0.5954 0.0444 0.4650
C12 C 0.56005(11) 0.10305(11) 0.4272(4)
H3 H 0.5130 0.1384 0.2859
H4 H 0.4651 0.1327 0.0781
C13 C 0.55889(13) -0.12158(13) 0.2641(4)
C14 C 0.61815(12) -0.07750(13) 0.0960(4)
C15 C 0.59467(14) 0.14958(13) 0.4133(5)
C16 C 0.54237(13) 0.08663(14) 0.5625(4)
H5 H 0.5310 -0.1292 0.3111
C17 C 0.58281(12) -0.14477(12) 0.2974(4)
C18 C 0.63965(12) -0.10306(12) 0.1351(4)
H6 H 0.6317 -0.0541 0.0266
H7 H 0.6071 0.1612 0.3229
C19 C 0.61128(16) 0.17922(15) 0.5307(6)
C20 C 0.55838(15) 0.11593(17) 0.6812(5)
H8 H 0.5193 0.0553 0.5742
H9 H 0.5703 -0.1678 0.3680
N3 N 0.62261(10) -0.13631(9) 0.2350(3)
H10 H 0.6674 -0.0965 0.0891
H11 H 0.6349 0.2103 0.5199
C21 C 0.59262(17) 0.16219(17) 0.6613(5)
H12 H 0.5463 0.1047 0.7721
Cl1 Cl 0.61266(6) 0.19834(6) 0.81372(18)
N1I N 0.46436(8) -0.00223(8) -0.1757(3)
N2I N 0.50154(8) -0.05643(8) -0.0697(3)
C1I C 0.44389(11) 0.02516(11) -0.2028(3)
C2I C 0.44877(10) -0.03490(11) -0.2853(3)
C3I C 0.48331(10) -0.08075(10) -0.1972(3)
C4I C 0.52570(10) -0.07616(10) -0.0088(3)
C5I C 0.41583(13) 0.00922(13) -0.3315(4)
C6I C 0.44850(11) 0.06148(11) -0.1173(3)
C7I C 0.41893(12) -0.02724(13) -0.3825(4)
C8I C 0.45812(11) -0.07154(11) -0.2979(3)
C9I C 0.49565(12) -0.11688(12) -0.2112(4)
C10I C 0.52179(12) -0.11394(12) -0.0969(4)
H1I H 0.3987 0.0219 -0.3716
C11I C 0.42349(11) 0.08717(11) -0.1610(3)
H2I H 0.4046 -0.0444 -0.4650
C12I C 0.43995(11) -0.10305(11) -0.4272(4)
H3I H 0.4870 -0.1384 -0.2859
H4I H 0.5349 -0.1327 -0.0781
C13I C 0.44111(13) 0.12158(13) -0.2641(4)
C14I C 0.38185(12) 0.07750(13) -0.0960(4)
C15I C 0.40533(14) -0.14958(13) -0.4133(5)
C16I C 0.45763(13) -0.08663(14) -0.5625(4)
H5I H 0.4690 0.1292 -0.3111
C17I C 0.41719(12) 0.14477(12) -0.2974(4)
C18I C 0.36035(12) 0.10306(12) -0.1351(4)
H6I H 0.3683 0.0541 -0.0266
H7I H 0.3929 -0.1612 -0.3229
C19I C 0.38872(16) -0.17922(15) -0.5307(6)
C20I C 0.44162(15) -0.11593(17) -0.6812(5)
H8I H 0.4807 -0.0553 -0.5742
H9I H 0.4297 0.1678 -0.3680
N3I N 0.37739(10) 0.13631(9) -0.2350(3)
H10I H 0.3326 0.0965 -0.0891
H11I H 0.3651 -0.2103 -0.5199
C21I C 0.40738(17) -0.16219(17) -0.6613(5)
H12I H 0.4537 -0.1047 -0.7721
Cl1I Cl 0.38734(6) -0.19834(6) -0.81372(18)
Co1D Co 0.6667 -0.1667 0.3333
Co1G Co 0.3333 0.1667 -0.3333
N3H N 0.57441(13) 0.04406(10) -0.0983(3)
N3Q N 0.42559(13) -0.04406(10) 0.0983(3)
loop_
_geom_bond_atom_site_label_1
_geom_bond_atom_site_label_2
_geom_bond_site_symmetry_1
_geom_bond_site_symmetry_2
Co1 N1 1_555 1_555
N1 C1 1_555 1_555
N2 Co1 1_555 1_555
C1 C5 1_555 1_555
C2 N1 1_555 1_555
C3 N2 1_555 1_555
C4 N2 1_555 1_555
C5 C7 1_555 1_555
C6 C1 1_555 1_555
C7 C2 1_555 1_555
C8 C2 1_555 1_555
C9 C3 1_555 1_555
C10 C4 1_555 1_555
H1 C5 1_555 1_555
C11 C6 1_555 1_555
H2 C7 1_555 1_555
C12 C8 1_555 1_555
H3 C9 1_555 1_555
H4 C10 1_555 1_555
C13 C11 1_555 1_555
C14 C11 1_555 1_555
C15 C12 1_555 1_555
C16 C12 1_555 1_555
H5 C13 1_555 1_555
C17 C13 1_555 1_555
C18 C14 1_555 1_555
H6 C14 1_555 1_555
H7 C15 1_555 1_555
C19 C15 1_555 1_555
C20 C16 1_555 1_555
H8 C16 1_555 1_555
H9 C17 1_555 1_555
N3 C17 1_555 1_555
H10 C18 1_555 1_555
H11 C19 1_555 1_555
C21 C19 1_555 1_555
H12 C20 1_555 1_555
Cl1 C21 1_555 1_555
N1I Co1 1_555 1_555
N2I Co1 1_555 1_555
C1I N1I 1_555 1_555
C2I N1I 1_555 1_555
C3I N2I 1_555 1_555
C4I C6 1_555 1_555
C5I C1I 1_555 1_555
C6I C4 1_555 1_555
C7I C2I 1_555 1_555
C8I C2I 1_555 1_555
C9I C3I 1_555 1_555
C10I C4I 1_555 1_555
H1I C5I 1_555 1_555
C11I C6I 1_555 1_555
H2I C7I 1_555 1_555
C12I C8I 1_555 1_555
H3I C9I 1_555 1_555
H4I C10I 1_555 1_555
C13I C11I 1_555 1_555
C14I C11I 1_555 1_555
C15I C12I 1_555 1_555
C16I C12I 1_555 1_555
H5I C13I 1_555 1_555
C17I C13I 1_555 1_555
C18I C14I 1_555 1_555
H6I C14I 1_555 1_555
H7I C15I 1_555 1_555
C19I C15I 1_555 1_555
C20I C16I 1_555 1_555
H8I C16I 1_555 1_555
H9I C17I 1_555 1_555
N3I C17I 1_555 1_555
H10I C18I 1_555 1_555
H11I C19I 1_555 1_555
C21I C19I 1_555 1_555
H12I C20I 1_555 1_555
Cl1I C21I 1_555 1_555
Co1D N3 1_555 1_555
Co1G N3I 1_555 1_555
N3H Co1 1_555 1_555
N3Q Co1 1_555 1_555
C3 C8 1_555 1_555
C9 C10 1_555 1_555
C18 N3 1_555 1_555
C20 C21 1_555 1_555
N2I C4I 1_555 1_555
C1I C6I 1_555 1_555
C3I C8I 1_555 1_555
C5I C7I 1_555 1_555
C9I C10I 1_555 1_555
C18I N3I 1_555 1_555
C20I C21I 1_555 1_555

#END
