
#######################################################################
#
#                 Cambridge Crystallographic Data Centre
#                                CCDC 
#
#######################################################################
#
# If this CIF has been generated from an entry in the Cambridge 
# Structural Database, then it will include bibliographic, chemical, 
# crystal, experimental, refinement or atomic coordinate data resulting 
# from the CCDC's data processing and validation procedures.
#
#######################################################################

data_MUNLEN
_symmetry_cell_setting           monoclinic
_symmetry_space_group_name_H-M   'P 21/c'
_symmetry_Int_Tables_number      14
_space_group_name_Hall           '-P 2ybc'
loop_
_symmetry_equiv_pos_site_id
_symmetry_equiv_pos_as_xyz
1 x,y,z
2 -x,1/2+y,1/2-z
3 -x,-y,-z
4 x,1/2-y,1/2+z
_cell_length_a                   12.753(6)
_cell_length_b                   5.138(2)
_cell_length_c                   8.420(4)
_cell_angle_alpha                90
_cell_angle_beta                 97.218(13)
_cell_angle_gamma                90
_cell_volume                     547.348
loop_
_atom_site_label
_atom_site_type_symbol
_atom_site_fract_x
_atom_site_fract_y
_atom_site_fract_z
O1 O 0.4248(2) 0.3149(6) 0.4386(3)
O2 O 0.4208(2) -0.0563(6) 0.3002(3)
Li1 Li 0.4919(5) 0.6080(15) 0.3512(8)
C1 C 0.3800(3) 0.1057(8) 0.3884(5)
C2 C 0.2698(3) 0.0570(8) 0.4304(5)
C3 C 0.2259(3) 0.2353(9) 0.5279(5)
H1 H 0.2666 0.3720 0.5743
C4 C 0.1210(3) 0.2086(9) 0.5559(5)
H2 H 0.0931 0.3280 0.6222
C5 C 0.0566(3) 0.0085(8) 0.4875(4)
C6 C 0.1034(3) -0.1717(8) 0.3921(5)
H3 H 0.0629 -0.3093 0.3463
C7 C 0.2084(3) -0.1504(8) 0.3640(5)
H4 H 0.2375 -0.2736 0.3014
O1B O -0.4248(2) -0.3149(6) 0.5614(3)
O1_2 O -0.5752(2) -0.6851(6) 0.4386(3)
O1B_2 O 0.5752(2) 0.6851(6) 0.5614(3)
O2B O -0.4208(2) 0.0563(6) 0.6998(3)
O2_2 O 0.4208(2) 0.9437(6) 0.3002(3)
O2A O 0.5792(2) 0.4437(6) 0.1998(3)
O2B_2 O -0.4208(2) -0.9437(6) 0.6998(3)
O2C O -0.5792(2) -0.4437(6) 0.8002(3)
Li1B Li -0.4919(5) -0.6080(15) 0.6488(8)
Li1_2 Li -0.5081(5) -0.3920(15) 0.3512(8)
Li1_3 Li 0.4919(5) -0.3920(15) 0.3512(8)
Li1A Li 0.5081(5) 0.1080(15) 0.1488(8)
Li1B_2 Li -0.4919(5) 0.3920(15) 0.6488(8)
Li1B_3 Li 0.5081(5) 0.3920(15) 0.6488(8)
Li1C Li -0.5081(5) -0.1080(15) 0.8512(8)
C1B C -0.3800(3) -0.1057(8) 0.6116(5)
C2B C -0.2698(3) -0.0570(8) 0.5696(5)
C3B C -0.2259(3) -0.2353(9) 0.4721(5)
H1B H -0.2666 -0.3720 0.4257
C4B C -0.1210(3) -0.2086(9) 0.4441(5)
H2B H -0.0931 -0.3280 0.3778
C5B C -0.0566(3) -0.0085(8) 0.5125(4)
C6B C -0.1034(3) 0.1717(8) 0.6079(5)
H3B H -0.0629 0.3093 0.6537
C7B C -0.2084(3) 0.1504(8) 0.6360(5)
H4B H -0.2375 0.2736 0.6986
loop_
_geom_bond_atom_site_label_1
_geom_bond_atom_site_label_2
_geom_bond_site_symmetry_1
_geom_bond_site_symmetry_2
O1 Li1 1_555 1_555
O2 C1 1_555 1_555
Li1 O1B_2 1_555 1_555
C1 O1 1_555 1_555
C2 C1 1_555 1_555
C3 C2 1_555 1_555
H1 C3 1_555 1_555
C4 C3 1_555 1_555
H2 C4 1_555 1_555
C5 C4 1_555 1_555
C6 C5 1_555 1_555
H3 C6 1_555 1_555
C7 C2 1_555 1_555
H4 C7 1_555 1_555
O1B Li1B 1_555 1_555
O1_2 Li1B 1_555 1_555
O1B_2 Li1B_3 1_555 1_555
O2B Li1B_2 1_555 1_555
O2_2 Li1 1_555 1_555
O2A Li1 1_555 1_555
O2B_2 Li1B 1_555 1_555
O2C Li1B 1_555 1_555
Li1_2 O1B 1_555 1_555
Li1_3 O2 1_555 1_555
Li1A O2 1_555 1_555
Li1B_3 O1 1_555 1_555
Li1C O2B 1_555 1_555
C1B O1B 1_555 1_555
C2B C1B 1_555 1_555
C3B C2B 1_555 1_555
H1B C3B 1_555 1_555
C4B C3B 1_555 1_555
H2B C4B 1_555 1_555
C5B C5 1_555 1_555
C6B C5B 1_555 1_555
H3B C6B 1_555 1_555
C7B C2B 1_555 1_555
H4B C7B 1_555 1_555
C6 C7 1_555 1_555
O1_2 Li1_2 1_555 1_555
O2B C1B 1_555 1_555
O2A Li1A 1_555 1_555
O2C Li1C 1_555 1_555
C4B C5B 1_555 1_555
C6B C7B 1_555 1_555

#END
