
#######################################################################
#
#                 Cambridge Crystallographic Data Centre
#                                CCDC 
#
#######################################################################
#
# If this CIF has been generated from an entry in the Cambridge 
# Structural Database, then it will include bibliographic, chemical, 
# crystal, experimental, refinement or atomic coordinate data resulting 
# from the CCDC's data processing and validation procedures.
#
#######################################################################

data_MUNNOZ
_symmetry_cell_setting           orthorhombic
_symmetry_space_group_name_H-M   'P c c n'
_symmetry_Int_Tables_number      56
_space_group_name_Hall           '-P 2ab 2ac'
loop_
_symmetry_equiv_pos_site_id
_symmetry_equiv_pos_as_xyz
1 x,y,z
2 1/2-x,1/2-y,z
3 -x,1/2+y,1/2-z
4 1/2+x,-y,1/2-z
5 -x,-y,-z
6 1/2+x,1/2+y,-z
7 x,1/2-y,1/2+z
8 1/2-x,y,1/2+z
_cell_length_a                   10.005(2)
_cell_length_b                   19.344(4)
_cell_length_c                   25.704(5)
_cell_angle_alpha                90
_cell_angle_beta                 90
_cell_angle_gamma                90
_cell_volume                     4974.67
loop_
_atom_site_label
_atom_site_type_symbol
_atom_site_fract_x
_atom_site_fract_y
_atom_site_fract_z
Cu1 Cu 0.53519(8) 0.27646(4) 0.20420(3)
Cu2 Cu 0.7500 0.2500 0.33988(5)
Cu3 Cu 0.23556(8) 0.34573(5) 0.11093(3)
I1 I 0.61634(5) 0.15783(3) 0.400478(19)
I2 I 0.2500 0.2500 0.03889(2)
I3 I 0.13645(5) 0.45344(3) 0.05732(2)
S1 S 0.43665(15) 0.36673(8) 0.15463(6)
S2 S 0.59317(16) 0.30624(8) 0.28920(6)
S3 S 0.39135(16) 0.18566(8) 0.18479(6)
S4 S 0.7500 0.2500 0.17590(9)
N1 N 0.7667(7) 0.4552(4) 0.0579(3)
H1 H 0.8305 0.4712 0.0389
N2 N 0.2402(7) 0.3523(4) 0.3891(3)
H2 H 0.1711 0.3583 0.4085
N3 N 0.5312(7) -0.0048(3) 0.2666(3)
H3 H 0.5556 -0.0413 0.2832
N4 N 0.7500 0.2500 0.0032(4)
H4 H 0.7500 0.2500 -0.0303
C1 C 0.7872(8) 0.4446(4) 0.1082(3)
H5 H 0.8701 0.4548 0.1227
C2 C 0.6885(7) 0.4190(4) 0.1388(3)
H6 H 0.7039 0.4117 0.1741
C3 C 0.5627(6) 0.4033(3) 0.1173(2)
C4 C 0.5464(8) 0.4160(4) 0.0639(3)
H7 H 0.4649 0.4067 0.0480
C5 C 0.6479(9) 0.4414(5) 0.0360(3)
H8 H 0.6359 0.4497 0.0006
C6 C 0.3601(9) 0.3547(5) 0.4102(3)
H9 H 0.3692 0.3644 0.4455
C7 C 0.4718(8) 0.3429(4) 0.3804(3)
H10 H 0.5563 0.3454 0.3954
C8 C 0.4578(6) 0.3271(4) 0.3271(2)
C9 C 0.3293(7) 0.3293(5) 0.3068(3)
H11 H 0.3159 0.3228 0.2713
C10 C 0.2236(8) 0.3408(6) 0.3384(4)
H12 H 0.1378 0.3407 0.3245
C11 C 0.5867(8) 0.0561(4) 0.2785(3)
H13 H 0.6513 0.0586 0.3044
C12 C 0.5490(7) 0.1140(4) 0.2529(3)
H14 H 0.5902 0.1558 0.2609
C13 C 0.4491(6) 0.1124(3) 0.2147(2)
C14 C 0.3956(8) 0.0474(4) 0.2028(3)
H15 H 0.3312 0.0432 0.1769
C15 C 0.4388(9) -0.0101(4) 0.2295(3)
H16 H 0.4030 -0.0532 0.2215
C16 C 0.8635(8) 0.2633(5) 0.0285(3)
H17 H 0.9413 0.2722 0.0098
C17 C 0.8662(7) 0.2640(4) 0.0806(3)
H18 H 0.9456 0.2737 0.0980
C18 C 0.7500 0.2500 0.1090(3)
Cu1A Cu 0.96481(8) 0.22354(4) 0.20420(3)
Cu3A Cu 1.26444(8) 0.15427(5) 0.11093(3)
Cu3A_2 Cu 0.26444(8) 0.15427(5) 0.11093(3)
Cu3_2 Cu 1.23556(8) 0.34573(5) 0.11093(3)
I1A I 0.88366(5) 0.34217(3) 0.400478(19)
I2_2 I 1.2500 0.2500 0.03889(2)
I3A I 1.36355(5) 0.04656(3) 0.05732(2)
S1A S 1.06335(15) 0.13327(8) 0.15463(6)
S2A S 0.90683(16) 0.19376(8) 0.28920(6)
S3A S 1.10865(16) 0.31434(8) 0.18479(6)
S3A_2 S 0.10865(16) 0.31434(8) 0.18479(6)
S3_2 S 1.39135(16) 0.18566(8) 0.18479(6)
N1A N 0.7333(7) 0.0448(4) 0.0579(3)
H1A H 0.6695 0.0288 0.0389
N2A N 1.2598(7) 0.1477(4) 0.3891(3)
H2A H 1.3289 0.1417 0.4085
N3A N 0.9688(7) 0.5048(3) 0.2666(3)
H3A H 0.9444 0.5413 0.2832
C1A C 0.7128(8) 0.0554(4) 0.1082(3)
H5A H 0.6299 0.0452 0.1227
C2A C 0.8115(7) 0.0810(4) 0.1388(3)
H6A H 0.7961 0.0883 0.1741
C3A C 0.9373(6) 0.0967(3) 0.1173(2)
C4A C 0.9536(8) 0.0840(4) 0.0639(3)
H7A H 1.0351 0.0933 0.0480
C5A C 0.8521(9) 0.0586(5) 0.0360(3)
H8A H 0.8641 0.0503 0.0006
C6A C 1.1399(9) 0.1453(5) 0.4102(3)
H9A H 1.1308 0.1356 0.4455
C7A C 1.0282(8) 0.1571(4) 0.3804(3)
H10A H 0.9437 0.1546 0.3954
C8A C 1.0422(6) 0.1729(4) 0.3271(2)
C9A C 1.1707(7) 0.1707(5) 0.3068(3)
H11A H 1.1841 0.1772 0.2713
C10A C 1.2764(8) 0.1592(6) 0.3384(4)
H12A H 1.3622 0.1593 0.3245
C11A C 0.9133(8) 0.4439(4) 0.2785(3)
H13A H 0.8487 0.4414 0.3044
C12A C 0.9510(7) 0.3860(4) 0.2529(3)
H14A H 0.9098 0.3442 0.2609
C13A C 1.0509(6) 0.3876(3) 0.2147(2)
C14A C 1.1044(8) 0.4526(4) 0.2028(3)
H15A H 1.1688 0.4568 0.1769
C15A C 1.0612(9) 0.5101(4) 0.2295(3)
H16A H 1.0970 0.5532 0.2215
C16A C 0.6365(8) 0.2367(5) 0.0285(3)
H17A H 0.5587 0.2278 0.0098
C17A C 0.6338(7) 0.2360(4) 0.0806(3)
H18A H 0.5544 0.2263 0.0980
loop_
_geom_bond_atom_site_label_1
_geom_bond_atom_site_label_2
_geom_bond_site_symmetry_1
_geom_bond_site_symmetry_2
Cu1 S1 1_555 1_555
Cu2 I1 1_555 1_555
Cu3 I2 1_555 1_555
I2 Cu3A_2 1_555 1_555
I3 Cu3 1_555 1_555
S1 Cu3 1_555 1_555
S2 Cu1 1_555 1_555
S3 Cu1 1_555 1_555
S4 Cu1 1_555 1_555
N1 H1 1_555 1_555
N2 H2 1_555 1_555
N3 H3 1_555 1_555
N4 H4 1_555 1_555
C1 N1 1_555 1_555
H5 C1 1_555 1_555
C2 C1 1_555 1_555
H6 C2 1_555 1_555
C3 S1 1_555 1_555
C4 C3 1_555 1_555
H7 C4 1_555 1_555
C5 N1 1_555 1_555
H8 C5 1_555 1_555
C6 N2 1_555 1_555
H9 C6 1_555 1_555
C7 C6 1_555 1_555
H10 C7 1_555 1_555
C8 S2 1_555 1_555
C9 C8 1_555 1_555
H11 C9 1_555 1_555
C10 N2 1_555 1_555
H12 C10 1_555 1_555
C11 N3 1_555 1_555
H13 C11 1_555 1_555
C12 C11 1_555 1_555
H14 C12 1_555 1_555
C13 S3 1_555 1_555
C14 C13 1_555 1_555
H15 C14 1_555 1_555
C15 N3 1_555 1_555
H16 C15 1_555 1_555
C16 N4 1_555 1_555
H17 C16 1_555 1_555
C17 C16 1_555 1_555
H18 C17 1_555 1_555
C18 S4 1_555 1_555
Cu1A S4 1_555 1_555
Cu3A I2_2 1_555 1_555
Cu3A_2 S3 1_555 1_555
Cu3_2 I2_2 1_555 1_555
I1A Cu2 1_555 1_555
I3A Cu3A 1_555 1_555
S1A Cu1A 1_555 1_555
S2A Cu2 1_555 1_555
S3A Cu1A 1_555 1_555
S3A_2 Cu3 1_555 1_555
S3_2 Cu3A 1_555 1_555
N1A H1A 1_555 1_555
N2A H2A 1_555 1_555
N3A H3A 1_555 1_555
C1A N1A 1_555 1_555
H5A C1A 1_555 1_555
C2A C1A 1_555 1_555
H6A C2A 1_555 1_555
C3A S1A 1_555 1_555
C4A C3A 1_555 1_555
H7A C4A 1_555 1_555
C5A N1A 1_555 1_555
H8A C5A 1_555 1_555
C6A N2A 1_555 1_555
H9A C6A 1_555 1_555
C7A C6A 1_555 1_555
H10A C7A 1_555 1_555
C8A S2A 1_555 1_555
C9A C8A 1_555 1_555
H11A C9A 1_555 1_555
C10A N2A 1_555 1_555
H12A C10A 1_555 1_555
C11A N3A 1_555 1_555
H13A C11A 1_555 1_555
C12A C11A 1_555 1_555
H14A C12A 1_555 1_555
C13A S3A 1_555 1_555
C14A C13A 1_555 1_555
H15A C14A 1_555 1_555
C15A N3A 1_555 1_555
H16A C15A 1_555 1_555
C16A N4 1_555 1_555
H17A C16A 1_555 1_555
C17A C18 1_555 1_555
H18A C17A 1_555 1_555
Cu2 S2 1_555 1_555
C2 C3 1_555 1_555
C4 C5 1_555 1_555
C7 C8 1_555 1_555
C9 C10 1_555 1_555
C12 C13 1_555 1_555
C14 C15 1_555 1_555
C17 C18 1_555 1_555
Cu1A S2A 1_555 1_555
Cu3A S1A 1_555 1_555
Cu3_2 S3A 1_555 1_555
C2A C3A 1_555 1_555
C4A C5A 1_555 1_555
C7A C8A 1_555 1_555
C9A C10A 1_555 1_555
C12A C13A 1_555 1_555
C14A C15A 1_555 1_555
C16A C17A 1_555 1_555

#END
