
#######################################################################
#
#                 Cambridge Crystallographic Data Centre
#                                CCDC 
#
#######################################################################
#
# If this CIF has been generated from an entry in the Cambridge 
# Structural Database, then it will include bibliographic, chemical, 
# crystal, experimental, refinement or atomic coordinate data resulting 
# from the CCDC's data processing and validation procedures.
#
#######################################################################

data_MUNNEQ
_symmetry_cell_setting           tetragonal
_symmetry_space_group_name_H-M   'I 41 m d'
_symmetry_Int_Tables_number      109
_space_group_name_Hall           'I 4bw -2'
loop_
_symmetry_equiv_pos_site_id
_symmetry_equiv_pos_as_xyz
1 x,y,z
2 1/2-x,1/2-y,1/2+z
3 1/2-x,1/2+y,1/2+z
4 -y,1/2+x,1/4+z
5 1/2-y,-x,3/4+z
6 y,1/2+x,1/4+z
7 1/2+y,-x,3/4+z
8 x,-y,z
9 -x,-y,z
10 -x,y,z
11 1/2-y,x,3/4+z
12 -y,1/2-x,1/4+z
13 1/2+y,x,3/4+z
14 y,1/2-x,1/4+z
15 1/2+x,1/2-y,1/2+z
16 1/2+x,1/2+y,1/2+z
_cell_length_a                   7.7316(1)
_cell_length_b                   7.7316(1)
_cell_length_c                   8.5343(1)
_cell_angle_alpha                90
_cell_angle_beta                 90
_cell_angle_gamma                90
_cell_volume                     510.16
loop_
_atom_site_label
_atom_site_type_symbol
_atom_site_fract_x
_atom_site_fract_y
_atom_site_fract_z
B1 B 1 0.000 0.6902
F1 F 1 0.1491 0.5996
C1 C 0.8908 0.000 0.9376
O1 O 0.8409 0.000 0.8007
O2 O 0.7942 0.000 1.0638
Na1 Na 1 0.500 0.5503(7)
F1G F 1 -0.1491 0.5996
C1H C 1.1092 0.000 0.9376
O1H O 1.1591 0.000 0.8007
O2H O 1.2058 0.000 1.0638
F1C F 0.8509 0.5 0.8496
F1E F 1.1491 0.5 0.8496
F1G_2 F 1 0.8509 0.5996
O2A O 0.7058 0.500 0.5638
O2C O 1.000 0.2942 0.3138
O2K O 1.000 0.7058 0.3138
O2N O 1.2942 0.500 0.5638
Na1A Na 0.5 0.000 1.0503(7)
Na1A_2 Na 1.5 0.000 1.0503(7)
Na1D Na 1.000 0 0.3003(7)
Na1D_2 Na 1.000 0 1.3003(7)
Na1G Na 1 -0.500 0.5503(7)
loop_
_geom_bond_atom_site_label_1
_geom_bond_atom_site_label_2
_geom_bond_site_symmetry_1
_geom_bond_site_symmetry_2
B1 F1 1_555 1_555
F1 Na1 1_555 1_555
C1 O1 1_555 1_555
O1 B1 1_555 1_555
O2 C1 1_555 1_555
Na1 F1C 1_555 1_555
F1G B1 1_555 1_555
C1H C1 1_555 1_555
O1H B1 1_555 1_555
O2H C1H 1_555 1_555
F1E Na1 1_555 1_555
F1G_2 Na1 1_555 1_555
O2A Na1 1_555 1_555
O2C Na1 1_555 1_555
O2K Na1 1_555 1_555
O2N Na1 1_555 1_555
Na1A O2 1_555 1_555
Na1A_2 O2H 1_555 1_555
Na1D F1 1_555 1_555
Na1D_2 O2 1_555 1_555
Na1G F1G 1_555 1_555
F1G Na1D 1_555 1_555
C1H O1H 1_555 1_555
O2H Na1D_2 1_555 1_555
O2C Na1D 1_555 1_555

#END
