
#######################################################################
#
#                 Cambridge Crystallographic Data Centre
#                                CCDC 
#
#######################################################################
#
# If this CIF has been generated from an entry in the Cambridge 
# Structural Database, then it will include bibliographic, chemical, 
# crystal, experimental, refinement or atomic coordinate data resulting 
# from the CCDC's data processing and validation procedures.
#
#######################################################################

data_MUNPUI
_symmetry_cell_setting           monoclinic
_symmetry_space_group_name_H-M   'P 2/n'
_symmetry_Int_Tables_number      13
_space_group_name_Hall           '-P 2yac'
loop_
_symmetry_equiv_pos_site_id
_symmetry_equiv_pos_as_xyz
1 x,y,z
2 1/2-x,y,1/2-z
3 -x,-y,-z
4 1/2+x,-y,1/2+z
_cell_length_a                   7.6476(5)
_cell_length_b                   12.1053(7)
_cell_length_c                   16.8248(10)
_cell_angle_alpha                90
_cell_angle_beta                 98.488(2)
_cell_angle_gamma                90
_cell_volume                     1540.52
loop_
_atom_site_label
_atom_site_type_symbol
_atom_site_fract_x
_atom_site_fract_y
_atom_site_fract_z
C1 C 0.8305(6) 0.8669(4) -0.0004(3)
H1 H 0.7908 0.8345 -0.0499
C2 C 0.9844(6) 0.8436(4) 0.0467(3)
H2 H 1.0696 0.7933 0.0357
C3 C 0.8418(6) 0.9686(3) 0.1045(3)
H3 H 0.8131 1.0198 0.1417
C4 C 1.1248(5) 0.9077(4) 0.1830(3)
C5 C 1.1866(6) 0.8089(4) 0.2163(3)
H4 H 1.1431 0.7425 0.1936
C6 C 1.1863(8) 1.0057(4) 0.2159(4)
H5 H 1.1434 1.0721 0.1929
C7 C 0.4043(5) 0.7952(3) -0.0443(3)
C8 C 0.3464(5) 0.6765(3) -0.0405(2)
C9 C 0.3160(5) 0.6312(3) 0.0314(2)
H6 H 0.3311 0.6740 0.0778
C10 C 0.2628(6) 0.5218(3) 0.0346(3)
C11 C 0.2443(6) 0.4572(4) -0.0344(3)
H7 H 0.2093 0.3839 -0.0321
C12 C 0.2776(5) 0.5012(3) -0.1066(2)
C13 C 0.3285(5) 0.6117(3) -0.1092(2)
H8 H 0.3507 0.6422 -0.1574
C14 C 0.2329(7) 0.4733(4) 0.1121(3)
C15 C 0.2500 0.2613(5) -0.2500
H9 H 0.2500 0.1844 -0.2500
C16 C 0.2700(6) 0.3174(4) -0.1785(3)
H10 H 0.2864 0.2797 -0.1298
C17 C 0.2652(5) 0.4324(3) -0.1806(2)
Cu1 Cu 0.5000 1.0000 0.0000
N1 N 0.2500 0.4881(4) -0.2500
N2 N 0.7421(4) 0.9459(3) 0.0360(2)
N3 N 0.9907(4) 0.9080(3) 0.1137(2)
O1 O 0.1882(7) 0.3742(3) 0.1126(3)
H11 H 0.2194 0.3482 0.1575
O2 O 0.2526(7) 0.5331(4) 0.1728(2)
O3 O 0.4123(4) 0.8503(2) 0.02020(18)
O4 O 0.4411(5) 0.8350(3) -0.10787(19)
C1A C 1.6695(6) 0.8669(4) 0.5004(3)
H1A H 1.7092 0.8345 0.5499
C2A C 1.5156(6) 0.8436(4) 0.4533(3)
H2A H 1.4304 0.7933 0.4643
C3A C 1.6582(6) 0.9686(3) 0.3955(3)
H3A H 1.6869 1.0198 0.3583
C4A C 1.3752(5) 0.9077(4) 0.3170(3)
C5A C 1.3134(6) 0.8089(4) 0.2837(3)
H4A H 1.3569 0.7425 0.3064
C6A C 1.3137(8) 1.0057(4) 0.2841(4)
H5A H 1.3566 1.0721 0.3071
N2A N 1.7579(4) 0.9459(3) 0.4640(2)
N3A N 1.5093(4) 0.9080(3) 0.3863(2)
C7A C 0.0957(5) 0.7952(3) -0.4557(3)
C8A C 0.1536(5) 0.6765(3) -0.4595(2)
C9A C 0.1840(5) 0.6312(3) -0.5314(2)
H6A H 0.1689 0.6740 -0.5778
C10A C 0.2372(6) 0.5218(3) -0.5346(3)
C11A C 0.2557(6) 0.4572(4) -0.4656(3)
H7A H 0.2907 0.3839 -0.4679
C12A C 0.2224(5) 0.5012(3) -0.3934(2)
C13A C 0.1715(5) 0.6117(3) -0.3908(2)
H8A H 0.1493 0.6422 -0.3426
C14A C 0.2671(7) 0.4733(4) -0.6121(3)
C16A C 0.2300(6) 0.3174(4) -0.3215(3)
H10A H 0.2136 0.2797 -0.3702
C17A C 0.2348(5) 0.4324(3) -0.3194(2)
O1A O 0.3118(7) 0.3742(3) -0.6126(3)
H11A H 0.2806 0.3482 -0.6575
O2A O 0.2474(7) 0.5331(4) -0.6728(2)
O3A O 0.0877(4) 0.8503(2) -0.52020(18)
O4A O 0.0589(5) 0.8350(3) -0.39213(19)
Cu1A Cu 0.0000 1.0000 -0.5000
Cu1A_2 Cu 2.0000 1.0000 0.5000
N2B N 0.2579(4) 1.0541(3) -0.0360(2)
O3B O 0.5877(4) 1.1497(2) -0.02020(18)
O4B O 0.5589(5) 1.1650(3) 0.10787(19)
O5 O 0.8196(13) 1.1515(9) 0.2397(6)
O6 O 1.1287(17) 1.2716(8) 0.2360(6)
loop_
_geom_bond_atom_site_label_1
_geom_bond_atom_site_label_2
_geom_bond_site_symmetry_1
_geom_bond_site_symmetry_2
C1 H1 1_555 1_555
C2 C1 1_555 1_555
H2 C2 1_555 1_555
C3 H3 1_555 1_555
C4 C5 1_555 1_555
C5 H4 1_555 1_555
C6 C4 1_555 1_555
H5 C6 1_555 1_555
C7 C8 1_555 1_555
C8 C9 1_555 1_555
C9 H6 1_555 1_555
C10 C9 1_555 1_555
C11 C10 1_555 1_555
H7 C11 1_555 1_555
C12 C11 1_555 1_555
C13 C8 1_555 1_555
H8 C13 1_555 1_555
C14 C10 1_555 1_555
C15 H9 1_555 1_555
C16 C15 1_555 1_555
H10 C16 1_555 1_555
C17 C12 1_555 1_555
Cu1 N2 1_555 1_555
N1 C17 1_555 1_555
N2 C1 1_555 1_555
N3 C2 1_555 1_555
O1 C14 1_555 1_555
H11 O1 1_555 1_555
O2 C14 1_555 1_555
O3 C7 1_555 1_555
O4 C7 1_555 1_555
C1A H1A 1_555 1_555
C2A C1A 1_555 1_555
H2A C2A 1_555 1_555
C3A H3A 1_555 1_555
C4A C5A 1_555 1_555
C5A C5 1_555 1_555
H4A C5A 1_555 1_555
C6A C6 1_555 1_555
H5A C6A 1_555 1_555
N2A C1A 1_555 1_555
N3A C2A 1_555 1_555
C7A C8A 1_555 1_555
C8A C9A 1_555 1_555
C9A H6A 1_555 1_555
C10A C9A 1_555 1_555
C11A C10A 1_555 1_555
H7A C11A 1_555 1_555
C12A C11A 1_555 1_555
C13A C8A 1_555 1_555
H8A C13A 1_555 1_555
C14A C10A 1_555 1_555
C16A C15 1_555 1_555
H10A C16A 1_555 1_555
C17A N1 1_555 1_555
O1A C14A 1_555 1_555
H11A O1A 1_555 1_555
O2A C14A 1_555 1_555
O3A C7A 1_555 1_555
O4A C7A 1_555 1_555
Cu1A O3A 1_555 1_555
Cu1A_2 N2A 1_555 1_555
N2B Cu1 1_555 1_555
O3B Cu1 1_555 1_555
O4B Cu1 1_555 1_555
C3 N2 1_555 1_555
C3 N3 1_555 1_555
C4 N3 1_555 1_555
C12 C13 1_555 1_555
C16 C17 1_555 1_555
Cu1 O3 1_555 1_555
Cu1 O4 1_555 1_555
C3A N2A 1_555 1_555
C3A N3A 1_555 1_555
C4A C6A 1_555 1_555
C4A N3A 1_555 1_555
C12A C13A 1_555 1_555
C12A C17A 1_555 1_555
C16A C17A 1_555 1_555
O4A Cu1A 1_555 1_555

#END
