
#######################################################################
#
#                 Cambridge Crystallographic Data Centre
#                                CCDC 
#
#######################################################################
#
# If this CIF has been generated from an entry in the Cambridge 
# Structural Database, then it will include bibliographic, chemical, 
# crystal, experimental, refinement or atomic coordinate data resulting 
# from the CCDC's data processing and validation procedures.
#
#######################################################################

data_MUNPUH
_symmetry_cell_setting           triclinic
_symmetry_space_group_name_H-M   'P -1'
_symmetry_Int_Tables_number      2
_space_group_name_Hall           '-P 1'
loop_
_symmetry_equiv_pos_site_id
_symmetry_equiv_pos_as_xyz
1 x,y,z
2 -x,-y,-z
_cell_length_a                   8.8761(18)
_cell_length_b                   10.049(2)
_cell_length_c                   14.570(3)
_cell_angle_alpha                71.97(3)
_cell_angle_beta                 86.19(3)
_cell_angle_gamma                88.39(3)
_cell_volume                     1233
loop_
_atom_site_label
_atom_site_type_symbol
_atom_site_fract_x
_atom_site_fract_y
_atom_site_fract_z
C1 C 0.3533(4) 0.6523(4) 0.4683(2)
H1 H 0.2808 0.5824 0.4854
C2 C 0.4990(7) 0.8164(7) 0.3864(3)
H2 H 0.5469 0.8836 0.3345
C3 C 0.5282(7) 0.7905(7) 0.4798(4)
H3 H 0.5991 0.8353 0.5039
C4 C 0.4225(6) 0.6211(5) 0.6368(3)
H4 H 0.5203 0.5829 0.6583
H5 H 0.3521 0.5441 0.6526
C5 C 0.3697(4) 0.7227(4) 0.6914(2)
C6 C 0.2835(5) 0.8376(5) 0.6500(3)
H6 H 0.2639 0.8611 0.5850
C7 C 0.2259(6) 0.9187(5) 0.7052(3)
H7 H 0.1654 0.9957 0.6770
C8 C 0.2564(4) 0.8874(4) 0.8026(2)
C9 C 0.3481(5) 0.7775(5) 0.8385(3)
H8 H 0.3737 0.7555 0.9024
C10 C 0.4055(6) 0.6964(5) 0.7829(3)
H9 H 0.4702 0.6221 0.8097
C11 C 0.1991(4) 0.9782(4) 0.8631(3)
H10 H 0.2187 0.9312 0.9302
H11 H 0.2546 1.0654 0.8425
C12 C -0.0255(4) 1.1272(3) 0.8000(2)
H12 H 0.0291 1.2027 0.7594
C13 C -0.0789(5) 0.9251(4) 0.9047(3)
H13 H -0.0698 0.8365 0.9493
C14 C -0.2082(5) 0.9937(4) 0.8763(3)
H14 H -0.3049 0.9600 0.8979
C15 C 0.5258(4) 0.7146(4) 0.1101(2)
C16 C 0.6693(3) 0.6557(3) 0.0760(2)
C17 C 0.6742(4) 0.6153(4) -0.0065(3)
H15 H 0.5898 0.6295 -0.0430
C18 C 0.8014(4) 0.5543(4) -0.0355(3)
H16 H 0.8008 0.5271 -0.0909
C19 C 0.9306(3) 0.5323(3) 0.0158(2)
C20 C 0.9246(4) 0.5738(4) 0.0985(2)
H17 H 1.0093 0.5611 0.1347
C21 C 0.7957(4) 0.6334(4) 0.1284(2)
H18 H 0.7947 0.6588 0.1846
C22 C 0.1580(4) 0.4985(3) 0.3261(2)
C23 C 0.1145(4) 0.3495(3) 0.3766(2)
C24 C 0.1571(5) 0.2424(4) 0.3394(3)
H19 H 0.2155 0.2619 0.2815
C25 C 0.1132(5) 0.1057(4) 0.3880(3)
H20 H 0.1426 0.0350 0.3616
C26 C 0.0269(4) 0.0721(3) 0.4746(2)
C27 C -0.0064(4) 0.1809(3) 0.5135(3)
H21 H -0.0575 0.1612 0.5740
C28 C 0.0346(4) 0.3167(3) 0.4646(3)
H22 H 0.0079 0.3873 0.4916
Co1 Co 0.31908(5) 0.72088(4) 0.24961(3)
N1 N 0.3881(3) 0.7290(4) 0.3793(2)
N2 N 0.4347(4) 0.6866(4) 0.5318(2)
N3 N 0.0363(3) 1.0098(3) 0.8559(2)
N4 N -0.1743(3) 1.1218(3) 0.81015(19)
O1 O 0.4131(3) 0.7297(4) 0.0641(2)
O2 O 0.5274(2) 0.7384(3) 0.19135(16)
O3 O 0.2663(3) 0.5224(2) 0.26153(17)
O4 O 0.0943(3) 0.5947(2) 0.35047(19)
C1A C -0.3533(4) -0.6523(4) 0.5317(2)
H1A H -0.2808 -0.5824 0.5146
C2A C -0.4990(7) -0.8164(7) 0.6136(3)
H2A H -0.5469 -0.8836 0.6655
C3A C -0.5282(7) -0.7905(7) 0.5202(4)
H3A H -0.5991 -0.8353 0.4961
C4A C -0.4225(6) -0.6211(5) 0.3632(3)
H4A H -0.5203 -0.5829 0.3417
H5A H -0.3521 -0.5441 0.3474
C5A C -0.3697(4) -0.7227(4) 0.3086(2)
C6A C -0.2835(5) -0.8376(5) 0.3500(3)
H6A H -0.2639 -0.8611 0.4150
C7A C -0.2259(6) -0.9187(5) 0.2948(3)
H7A H -0.1654 -0.9957 0.3230
C8A C -0.2564(4) -0.8874(4) 0.1974(2)
C9A C -0.3481(5) -0.7775(5) 0.1615(3)
H8A H -0.3737 -0.7555 0.0976
C10A C -0.4055(6) -0.6964(5) 0.2171(3)
H9A H -0.4702 -0.6221 0.1903
C11A C -0.1991(4) -0.9782(4) 0.1369(3)
H10A H -0.2187 -0.9312 0.0698
H11A H -0.2546 -1.0654 0.1575
C12A C 0.0255(4) -1.1272(3) 0.2000(2)
H12A H -0.0291 -1.2027 0.2406
C13A C 0.0789(5) -0.9251(4) 0.0953(3)
H13A H 0.0698 -0.8365 0.0507
C14A C 0.2082(5) -0.9937(4) 0.1237(3)
H14A H 0.3049 -0.9600 0.1021
C15A C 1.4742(4) 0.2854(4) -0.1101(2)
C16A C 1.3307(3) 0.3443(3) -0.0760(2)
C17A C 1.3258(4) 0.3847(4) 0.0065(3)
H15A H 1.4102 0.3705 0.0430
C18A C 1.1986(4) 0.4457(4) 0.0355(3)
H16A H 1.1992 0.4729 0.0909
C19A C 1.0694(3) 0.4677(3) -0.0158(2)
C20A C 1.0754(4) 0.4262(4) -0.0985(2)
H17A H 0.9907 0.4389 -0.1347
C21A C 1.2043(4) 0.3666(4) -0.1284(2)
H18A H 1.2053 0.3412 -0.1846
C22A C -0.1580(4) -0.4985(3) 0.6739(2)
C23A C -0.1145(4) -0.3495(3) 0.6234(2)
C24A C -0.1571(5) -0.2424(4) 0.6606(3)
H19A H -0.2155 -0.2619 0.7185
C25A C -0.1132(5) -0.1057(4) 0.6120(3)
H20A H -0.1426 -0.0350 0.6384
C26A C -0.0269(4) -0.0721(3) 0.5254(2)
C27A C 0.0064(4) -0.1809(3) 0.4865(3)
H21A H 0.0575 -0.1612 0.4260
C28A C -0.0346(4) -0.3167(3) 0.5354(3)
H22A H -0.0079 -0.3873 0.5084
Co1A Co -0.31908(5) -0.72088(4) 0.75039(3)
Co1_2 Co 0.31908(5) -1.27912(4) 0.24961(3)
Co1A_2 Co -0.31908(5) 1.27912(4) 0.75039(3)
Co1A_3 Co 1.68092(5) 0.27912(4) -0.24961(3)
N1A N -0.3881(3) -0.7290(4) 0.6207(2)
N2A N -0.4347(4) -0.6866(4) 0.4682(2)
N3A N -0.0363(3) -1.0098(3) 0.1441(2)
N4A N 0.1743(3) -1.1218(3) 0.18985(19)
N4_2 N -0.1743(3) -0.8782(3) 0.81015(19)
N4A_2 N 0.1743(3) 0.8782(3) 0.18985(19)
O1A O 1.5869(3) 0.2703(4) -0.0641(2)
O2A O 1.4726(2) 0.2616(3) -0.19135(16)
O2A_2 O -0.5274(2) -0.7384(3) 0.80865(16)
O3A O -0.2663(3) -0.5224(2) 0.73847(17)
O4A O -0.0943(3) -0.5947(2) 0.64953(19)
loop_
_geom_bond_atom_site_label_1
_geom_bond_atom_site_label_2
_geom_bond_site_symmetry_1
_geom_bond_site_symmetry_2
C1 H1 1_555 1_555
C2 H2 1_555 1_555
C3 C2 1_555 1_555
H3 C3 1_555 1_555
C4 H4 1_555 1_555
H5 C4 1_555 1_555
C5 C4 1_555 1_555
C6 C5 1_555 1_555
H6 C6 1_555 1_555
C7 C6 1_555 1_555
H7 C7 1_555 1_555
C8 C7 1_555 1_555
C9 C8 1_555 1_555
H8 C9 1_555 1_555
C10 C5 1_555 1_555
H9 C10 1_555 1_555
C11 C8 1_555 1_555
H10 C11 1_555 1_555
H11 C11 1_555 1_555
C12 H12 1_555 1_555
C13 H13 1_555 1_555
C14 C13 1_555 1_555
H14 C14 1_555 1_555
C15 C16 1_555 1_555
C16 C17 1_555 1_555
C17 H15 1_555 1_555
C18 C17 1_555 1_555
H16 C18 1_555 1_555
C19 C18 1_555 1_555
C20 C19 1_555 1_555
H17 C20 1_555 1_555
C21 C16 1_555 1_555
H18 C21 1_555 1_555
C22 C23 1_555 1_555
C23 C24 1_555 1_555
C24 H19 1_555 1_555
C25 C24 1_555 1_555
H20 C25 1_555 1_555
C26 C25 1_555 1_555
C27 C26 1_555 1_555
H21 C27 1_555 1_555
C28 C23 1_555 1_555
H22 C28 1_555 1_555
Co1 N1 1_555 1_555
N1 C1 1_555 1_555
N2 C1 1_555 1_555
N3 C11 1_555 1_555
N4 C12 1_555 1_555
O1 C15 1_555 1_555
O2 C15 1_555 1_555
O3 C22 1_555 1_555
O4 C22 1_555 1_555
C1A H1A 1_555 1_555
C2A H2A 1_555 1_555
C3A C2A 1_555 1_555
H3A C3A 1_555 1_555
C4A H4A 1_555 1_555
H5A C4A 1_555 1_555
C5A C4A 1_555 1_555
C6A C5A 1_555 1_555
H6A C6A 1_555 1_555
C7A C6A 1_555 1_555
H7A C7A 1_555 1_555
C8A C7A 1_555 1_555
C9A C8A 1_555 1_555
H8A C9A 1_555 1_555
C10A C5A 1_555 1_555
H9A C10A 1_555 1_555
C11A C8A 1_555 1_555
H10A C11A 1_555 1_555
H11A C11A 1_555 1_555
C12A H12A 1_555 1_555
C13A H13A 1_555 1_555
C14A C13A 1_555 1_555
H14A C14A 1_555 1_555
C15A C16A 1_555 1_555
C16A C17A 1_555 1_555
C17A H15A 1_555 1_555
C18A C17A 1_555 1_555
H16A C18A 1_555 1_555
C19A C19 1_555 1_555
C20A C19A 1_555 1_555
H17A C20A 1_555 1_555
C21A C16A 1_555 1_555
H18A C21A 1_555 1_555
C22A C23A 1_555 1_555
C23A C24A 1_555 1_555
C24A H19A 1_555 1_555
C25A C24A 1_555 1_555
H20A C25A 1_555 1_555
C26A C26 1_555 1_555
C27A C26A 1_555 1_555
H21A C27A 1_555 1_555
C28A C23A 1_555 1_555
H22A C28A 1_555 1_555
Co1A N1A 1_555 1_555
Co1_2 N4A 1_555 1_555
Co1A_2 N4 1_555 1_555
Co1A_3 O2A 1_555 1_555
N1A C1A 1_555 1_555
N2A C1A 1_555 1_555
N3A C11A 1_555 1_555
N4A C12A 1_555 1_555
N4_2 Co1A 1_555 1_555
N4A_2 Co1 1_555 1_555
O1A C15A 1_555 1_555
O2A C15A 1_555 1_555
O2A_2 Co1A 1_555 1_555
O3A C22A 1_555 1_555
O4A C22A 1_555 1_555
C2 N1 1_555 1_555
C3 N2 1_555 1_555
C4 N2 1_555 1_555
C9 C10 1_555 1_555
C12 N3 1_555 1_555
C13 N3 1_555 1_555
C14 N4 1_555 1_555
C20 C21 1_555 1_555
C27 C28 1_555 1_555
Co1 O2 1_555 1_555
Co1 O3 1_555 1_555
C2A N1A 1_555 1_555
C3A N2A 1_555 1_555
C4A N2A 1_555 1_555
C9A C10A 1_555 1_555
C12A N3A 1_555 1_555
C13A N3A 1_555 1_555
C14A N4A 1_555 1_555
C18A C19A 1_555 1_555
C20A C21A 1_555 1_555
C25A C26A 1_555 1_555
C27A C28A 1_555 1_555
Co1A O3A 1_555 1_555

#END
