
#######################################################################
#
#                 Cambridge Crystallographic Data Centre
#                                CCDC 
#
#######################################################################
#
# If this CIF has been generated from an entry in the Cambridge 
# Structural Database, then it will include bibliographic, chemical, 
# crystal, experimental, refinement or atomic coordinate data resulting 
# from the CCDC's data processing and validation procedures.
#
#######################################################################

data_MUNPIV
_symmetry_cell_setting           triclinic
_symmetry_space_group_name_H-M   'P -1'
_symmetry_Int_Tables_number      2
_space_group_name_Hall           '-P 1'
loop_
_symmetry_equiv_pos_site_id
_symmetry_equiv_pos_as_xyz
1 x,y,z
2 -x,-y,-z
_cell_length_a                   8.6600(17)
_cell_length_b                   10.165(2)
_cell_length_c                   14.866(3)
_cell_angle_alpha                70.94(3)
_cell_angle_beta                 89.63(3)
_cell_angle_gamma                89.69(3)
_cell_volume                     1236.86
loop_
_atom_site_label
_atom_site_type_symbol
_atom_site_fract_x
_atom_site_fract_y
_atom_site_fract_z
C1 C -0.5731(6) 0.2653(7) -0.0253(4)
H1 H -0.6555 0.3003 0.0005
C2 C -0.5508(6) 0.2792(6) -0.1166(4)
H2 H -0.6175 0.3257 -0.1656
C3 C -0.3641(5) 0.1625(5) -0.0419(3)
H3 H -0.2737 0.1103 -0.0271
C4 C -0.4279(6) 0.1432(5) 0.1261(3)
H4 H -0.3411 0.0792 0.1418
H5 H -0.5188 0.0935 0.1578
C5 C -0.3967(6) 0.2652(5) 0.1629(3)
H6 H -0.2956 0.3040 0.1415
H7 H -0.4732 0.3377 0.1376
C6 C -0.4032(7) 0.2162(6) 0.2683(4)
H8 H -0.3275 0.1425 0.2922
H9 H -0.5043 0.1764 0.2884
C7 C -0.3738(6) 0.3274(6) 0.3134(4)
H10 H -0.4389 0.4074 0.2830
H11 H -0.4029 0.2918 0.3801
C8 C -0.2123(5) 0.3724(5) 0.3059(4)
H12 H -0.1892 0.4261 0.2402
H13 H -0.1455 0.2912 0.3240
C9 C -0.1790(5) 0.4607(5) 0.3692(4)
H14 H -0.2435 0.5434 0.3498
H15 H -0.2050 0.4081 0.4346
C10 C 0.0450(4) 0.6189(4) 0.3063(3)
H16 H -0.0123 0.6887 0.2631
C11 C 0.1028(6) 0.4267(5) 0.4140(4)
H17 H 0.0959 0.3388 0.4594
C12 C 0.2317(5) 0.5019(4) 0.3865(3)
H18 H 0.3301 0.4748 0.4104
C13 C 0.1440(5) 0.9986(4) 0.1755(3)
C14 C 0.0949(4) 1.1470(4) 0.1270(3)
C15 C 0.0243(5) 1.1829(4) 0.0398(3)
H19 H 0.0005 1.1138 0.0137
C16 C -0.0118(5) 1.3197(4) -0.0097(3)
H20 H -0.0585 1.3411 -0.0690
C17 C 0.0196(4) 1.4266(4) 0.0266(3)
C18 C 0.0911(5) 1.3876(4) 0.1148(3)
H21 H 0.1147 1.4560 0.1414
C19 C 0.1280(5) 1.2522(4) 0.1640(3)
H22 H 0.1758 1.2306 0.2229
C20 C 0.5321(5) 0.7983(4) 0.3893(3)
C21 C 0.6732(4) 0.8528(4) 0.4237(3)
C22 C 0.6668(4) 0.8921(4) 0.5036(3)
H23 H 0.5755 0.8794 0.5387
C23 C 0.7923(4) 0.9500(4) 0.5334(3)
H24 H 0.7833 0.9768 0.5874
C24 C 0.9319(4) 0.9688(3) 0.4842(2)
C25 C 0.9383(4) 0.9269(4) 0.4039(3)
H25 H 1.0306 0.9355 0.3702
C26 C 0.8108(4) 0.8729(4) 0.3733(3)
H26 H 0.8175 0.8497 0.3178
Co1 Co 0.33404(5) 0.78781(5) 0.25585(4)
N1 N -0.4164(4) 0.2159(4) -0.1284(2)
N2 N -0.4520(4) 0.1899(4) 0.0228(2)
N3 N -0.0150(4) 0.5021(3) 0.3635(2)
N4 N 0.1952(3) 0.6251(3) 0.3175(2)
O1 O 0.0861(4) 0.9049(3) 0.1508(2)
O2 O 0.2499(3) 0.9763(3) 0.23770(19)
O3 O 0.5430(3) 0.7773(3) 0.3101(2)
O4 O 0.4111(3) 0.7815(4) 0.4357(2)
C1A C 0.5731(6) 0.7347(7) 0.0253(4)
H1A H 0.6555 0.6997 -0.0005
C2A C 0.5508(6) 0.7208(6) 0.1166(4)
H2A H 0.6175 0.6743 0.1656
C3A C 0.3641(5) 0.8375(5) 0.0419(3)
H3A H 0.2737 0.8897 0.0271
C4A C 0.4279(6) 0.8568(5) -0.1261(3)
H4A H 0.3411 0.9208 -0.1418
H5A H 0.5188 0.9065 -0.1578
C5A C 0.3967(6) 0.7348(5) -0.1629(3)
H6A H 0.2956 0.6960 -0.1415
H7A H 0.4732 0.6623 -0.1376
C6A C 0.4032(7) 0.7838(6) -0.2683(4)
H8A H 0.3275 0.8575 -0.2922
H9A H 0.5043 0.8236 -0.2884
C7A C 0.3738(6) 0.6726(6) -0.3134(4)
H10A H 0.4389 0.5926 -0.2830
H11A H 0.4029 0.7082 -0.3801
C8A C 0.2123(5) 0.6276(5) -0.3059(4)
H12A H 0.1892 0.5739 -0.2402
H13A H 0.1455 0.7088 -0.3240
C9A C 0.1790(5) 0.5393(5) -0.3692(4)
H14A H 0.2435 0.4566 -0.3498
H15A H 0.2050 0.5919 -0.4346
C10A C -0.0450(4) 0.3811(4) -0.3063(3)
H16A H 0.0123 0.3113 -0.2631
C11A C -0.1028(6) 0.5733(5) -0.4140(4)
H17A H -0.0959 0.6612 -0.4594
C12A C -0.2317(5) 0.4981(4) -0.3865(3)
H18A H -0.3301 0.5252 -0.4104
C13A C -0.1440(5) 2.0014(4) -0.1755(3)
C14A C -0.0949(4) 1.8530(4) -0.1270(3)
C15A C -0.0243(5) 1.8171(4) -0.0398(3)
H19A H -0.0005 1.8862 -0.0137
C16A C 0.0118(5) 1.6803(4) 0.0097(3)
H20A H 0.0585 1.6589 0.0690
C17A C -0.0196(4) 1.5734(4) -0.0266(3)
C18A C -0.0911(5) 1.6124(4) -0.1148(3)
H21A H -0.1147 1.5440 -0.1414
C19A C -0.1280(5) 1.7478(4) -0.1640(3)
H22A H -0.1758 1.7694 -0.2229
C20A C 1.4679(5) 1.2017(4) 0.6107(3)
C21A C 1.3268(4) 1.1472(4) 0.5763(3)
C22A C 1.3332(4) 1.1079(4) 0.4964(3)
H23A H 1.4245 1.1206 0.4613
C23A C 1.2077(4) 1.0500(4) 0.4666(3)
H24A H 1.2167 1.0232 0.4126
C24A C 1.0681(4) 1.0312(3) 0.5158(2)
C25A C 1.0617(4) 1.0731(4) 0.5961(3)
H25A H 0.9694 1.0645 0.6298
C26A C 1.1892(4) 1.1271(4) 0.6267(3)
H26A H 1.1825 1.1503 0.6822
Co1A Co -0.33404(5) 0.21219(5) -0.25585(4)
Co1A_2 Co -0.33404(5) 2.21219(5) -0.25585(4)
Co1A_3 Co 1.66596(5) 1.21219(5) 0.74415(4)
N1A N 0.4164(4) 0.7841(4) 0.1284(2)
N2A N 0.4520(4) 0.8101(4) -0.0228(2)
N3A N 0.0150(4) 0.4979(3) -0.3635(2)
N4A N -0.1952(3) 0.3749(3) -0.3175(2)
O1A O -0.0861(4) 2.0951(3) -0.1508(2)
O2A O -0.2499(3) 2.0237(3) -0.23770(19)
O2A_2 O -0.2499(3) 0.0237(3) -0.23770(19)
O3A O 1.4570(3) 1.2227(3) 0.6899(2)
O3A_2 O -0.5430(3) 0.2227(3) -0.3101(2)
O4A O 1.5889(3) 1.2185(4) 0.5643(2)
loop_
_geom_bond_atom_site_label_1
_geom_bond_atom_site_label_2
_geom_bond_site_symmetry_1
_geom_bond_site_symmetry_2
C1 H1 1_555 1_555
C2 C1 1_555 1_555
H2 C2 1_555 1_555
C3 H3 1_555 1_555
C4 H4 1_555 1_555
H5 C4 1_555 1_555
C5 C4 1_555 1_555
H6 C5 1_555 1_555
H7 C5 1_555 1_555
C6 C5 1_555 1_555
H8 C6 1_555 1_555
H9 C6 1_555 1_555
C7 C6 1_555 1_555
H10 C7 1_555 1_555
H11 C7 1_555 1_555
C8 C7 1_555 1_555
H12 C8 1_555 1_555
H13 C8 1_555 1_555
C9 C8 1_555 1_555
H14 C9 1_555 1_555
H15 C9 1_555 1_555
C10 H16 1_555 1_555
C11 H17 1_555 1_555
C12 C11 1_555 1_555
H18 C12 1_555 1_555
C13 C14 1_555 1_555
C14 C15 1_555 1_555
C15 H19 1_555 1_555
C16 C15 1_555 1_555
H20 C16 1_555 1_555
C17 C16 1_555 1_555
C18 C17 1_555 1_555
H21 C18 1_555 1_555
C19 C14 1_555 1_555
H22 C19 1_555 1_555
C20 C21 1_555 1_555
C21 C22 1_555 1_555
C22 H23 1_555 1_555
C23 C22 1_555 1_555
H24 C23 1_555 1_555
C24 C23 1_555 1_555
C25 C24 1_555 1_555
H25 C25 1_555 1_555
C26 C21 1_555 1_555
H26 C26 1_555 1_555
Co1 N4 1_555 1_555
N1 C2 1_555 1_555
N2 C1 1_555 1_555
N3 C9 1_555 1_555
N4 C10 1_555 1_555
O1 C13 1_555 1_555
O2 C13 1_555 1_555
O3 C20 1_555 1_555
O4 C20 1_555 1_555
C1A H1A 1_555 1_555
C2A C1A 1_555 1_555
H2A C2A 1_555 1_555
C3A H3A 1_555 1_555
C4A H4A 1_555 1_555
H5A C4A 1_555 1_555
C5A C4A 1_555 1_555
H6A C5A 1_555 1_555
H7A C5A 1_555 1_555
C6A C5A 1_555 1_555
H8A C6A 1_555 1_555
H9A C6A 1_555 1_555
C7A C6A 1_555 1_555
H10A C7A 1_555 1_555
H11A C7A 1_555 1_555
C8A C7A 1_555 1_555
H12A C8A 1_555 1_555
H13A C8A 1_555 1_555
C9A C8A 1_555 1_555
H14A C9A 1_555 1_555
H15A C9A 1_555 1_555
C10A H16A 1_555 1_555
C11A H17A 1_555 1_555
C12A C11A 1_555 1_555
H18A C12A 1_555 1_555
C13A C14A 1_555 1_555
C14A C15A 1_555 1_555
C15A H19A 1_555 1_555
C16A C15A 1_555 1_555
H20A C16A 1_555 1_555
C17A C17 1_555 1_555
C18A C17A 1_555 1_555
H21A C18A 1_555 1_555
C19A C14A 1_555 1_555
H22A C19A 1_555 1_555
C20A C21A 1_555 1_555
C21A C22A 1_555 1_555
C22A H23A 1_555 1_555
C23A C22A 1_555 1_555
H24A C23A 1_555 1_555
C24A C24 1_555 1_555
C25A C24A 1_555 1_555
H25A C25A 1_555 1_555
C26A C21A 1_555 1_555
H26A C26A 1_555 1_555
Co1A N1 1_555 1_555
Co1A_2 O2A 1_555 1_555
Co1A_3 O3A 1_555 1_555
N1A Co1 1_555 1_555
N2A C1A 1_555 1_555
N3A C9A 1_555 1_555
N4A C10A 1_555 1_555
O1A C13A 1_555 1_555
O2A C13A 1_555 1_555
O2A_2 Co1A 1_555 1_555
O3A C20A 1_555 1_555
O3A_2 Co1A 1_555 1_555
O4A C20A 1_555 1_555
C3 N1 1_555 1_555
C3 N2 1_555 1_555
C4 N2 1_555 1_555
C10 N3 1_555 1_555
C11 N3 1_555 1_555
C12 N4 1_555 1_555
C18 C19 1_555 1_555
C25 C26 1_555 1_555
Co1 O2 1_555 1_555
Co1 O3 1_555 1_555
C2A N1A 1_555 1_555
C3A N1A 1_555 1_555
C3A N2A 1_555 1_555
C4A N2A 1_555 1_555
C10A N3A 1_555 1_555
C11A N3A 1_555 1_555
C12A N4A 1_555 1_555
C16A C17A 1_555 1_555
C18A C19A 1_555 1_555
C23A C24A 1_555 1_555
C25A C26A 1_555 1_555
Co1A N4A 1_555 1_555

#END
