
#######################################################################
#
#                 Cambridge Crystallographic Data Centre
#                                CCDC 
#
#######################################################################
#
# If this CIF has been generated from an entry in the Cambridge 
# Structural Database, then it will include bibliographic, chemical, 
# crystal, experimental, refinement or atomic coordinate data resulting 
# from the CCDC's data processing and validation procedures.
#
#######################################################################

data_MUNRAQ
_symmetry_cell_setting           monoclinic
_symmetry_space_group_name_H-M   'P 21/c'
_symmetry_Int_Tables_number      14
_space_group_name_Hall           '-P 2ybc'
loop_
_symmetry_equiv_pos_site_id
_symmetry_equiv_pos_as_xyz
1 x,y,z
2 -x,1/2+y,1/2-z
3 -x,-y,-z
4 x,1/2-y,1/2+z
_cell_length_a                   15.726(3)
_cell_length_b                   14.091(3)
_cell_length_c                   20.346(4)
_cell_angle_alpha                90
_cell_angle_beta                 93.632(4)
_cell_angle_gamma                90
_cell_volume                     4499.52
loop_
_atom_site_label
_atom_site_type_symbol
_atom_site_fract_x
_atom_site_fract_y
_atom_site_fract_z
Ag1 Ag 0.285119(18) 0.364285(18) 0.329500(14)
Ru1 Ru 0.272001(15) -0.135719(17) 0.338264(12)
O1 O -0.06951(16) -0.10850(19) 0.75703(12)
N1 N 0.37062(17) -0.13460(18) 0.41064(14)
N2 N 0.20699(17) -0.13283(17) 0.41692(13)
N3 N 0.14797(17) -0.13907(17) 0.29629(13)
N4 N 0.27390(16) -0.28295(19) 0.33452(13)
N5 N 0.27301(16) 0.01128(19) 0.33455(13)
N6 N 0.28232(17) 0.2093(2) 0.32556(13)
N7 N 0.28260(18) -0.4808(2) 0.32706(14)
N8 N 0.34481(17) -0.13690(17) 0.25742(13)
N9 N 0.3814(2) 0.3625(2) 0.44061(17)
N10 N 0.1441(2) 0.3647(3) 0.39266(18)
C1 C 0.4552(2) -0.1358(2) 0.40402(18)
H1 H 0.4753 -0.1382 0.3610
C2 C 0.5138(2) -0.1338(3) 0.45741(19)
H2 H 0.5731 -0.1345 0.4509
C3 C 0.4858(2) -0.1307(3) 0.52053(19)
H3 H 0.5255 -0.1295 0.5577
C4 C 0.3985(2) -0.1293(2) 0.52856(17)
H4 H 0.3777 -0.1268 0.5714
C5 C 0.3426(2) -0.1317(2) 0.47340(16)
C6 C 0.2487(2) -0.1285(2) 0.47674(16)
C7 C 0.2045(2) -0.1222(2) 0.53268(16)
H5 H 0.2344 -0.1215 0.5747
C8 C 0.1150(2) -0.1169(2) 0.52799(16)
C9 C 0.0735(2) -0.1201(2) 0.46498(16)
H6 H 0.0131 -0.1160 0.4599
C10 C 0.1205(2) -0.1291(2) 0.41045(16)
C11 C 0.0876(2) -0.1373(2) 0.34118(16)
C12 C 0.0019(2) -0.1451(2) 0.32254(17)
H7 H -0.0392 -0.1425 0.3548
C13 C -0.0241(2) -0.1567(3) 0.25657(17)
H8 H -0.0828 -0.1627 0.2431
C14 C 0.0373(2) -0.1593(2) 0.21088(16)
H9 H 0.0215 -0.1680 0.1654
C15 C 0.1223(2) -0.1489(2) 0.23247(16)
H10 H 0.1641 -0.1487 0.2007
C16 C 0.0666(2) -0.1110(2) 0.58818(16)
C17 C 0.1069(2) -0.0871(3) 0.64844(17)
H11 H 0.1659 -0.0721 0.6504
C18 C 0.0644(2) -0.0844(3) 0.70571(17)
H12 H 0.0938 -0.0672 0.7462
C19 C -0.0217(2) -0.1069(2) 0.70381(17)
C20 C -0.0631(2) -0.1288(3) 0.64370(18)
H13 H -0.1223 -0.1426 0.6416
C21 C -0.0200(2) -0.1308(2) 0.58695(18)
H14 H -0.0499 -0.1460 0.5463
C22 C -0.0272(3) -0.0955(3) 0.82065(17)
H15 H 0.0149 -0.1462 0.8289
H16 H -0.0691 -0.0977 0.8543
H17 H 0.0017 -0.0339 0.8223
C23 C 0.2844(2) -0.3373(2) 0.38763(17)
H18 H 0.2899 -0.3078 0.4297
C24 C 0.2668(2) -0.3295(2) 0.27621(16)
H19 H 0.2577 -0.2943 0.2366
C25 C 0.2861(2) 0.0669(2) 0.38846(16)
H20 H 0.2925 0.0381 0.4307
C26 C 0.2905(2) 0.1640(2) 0.38369(16)
H21 H 0.2995 0.2004 0.4228
C27 C 0.2678(2) 0.1551(2) 0.27234(17)
H22 H 0.2609 0.1846 0.2303
C28 C 0.2626(2) 0.0570(2) 0.27641(16)
H23 H 0.2514 0.0212 0.2373
C29 C 0.2876(3) -0.4352(3) 0.38414(18)
H24 H 0.2935 -0.4708 0.4238
C30 C 0.2725(2) -0.4272(2) 0.27310(17)
H25 H 0.2691 -0.4572 0.2312
C31 C 0.3878(2) -0.1373(2) 0.21478(17)
C32 C 0.4423(2) -0.1369(2) 0.15944(18)
H26 H 0.4071 -0.1293 0.1183
H27 H 0.4736 -0.1970 0.1584
H28 H 0.4828 -0.0842 0.1644
C33 C 0.3920(3) 0.3718(3) 0.4954(2)
C34 C 0.4049(3) 0.3845(3) 0.5670(2)
H29 H 0.4649 0.3991 0.5785
H30 H 0.3891 0.3260 0.5893
H31 H 0.3692 0.4368 0.5810
C35 C 0.1089(2) 0.3615(3) 0.4395(2)
C36 C 0.0626(3) 0.3577(3) 0.4996(2)
H32 H 0.0641 0.4202 0.5207
H33 H 0.0893 0.3107 0.5299
H34 H 0.0033 0.3395 0.4885
Ag1_2 Ag 0.285119(18) -0.635715(18) 0.329500(14)
N7_2 N 0.28260(18) 0.5192(2) 0.32706(14)
P1 P 0.23733(6) 0.34324(7) 0.10595(5)
F1 F 0.20768(17) 0.3850(2) 0.17407(14)
F2 F 0.32298(14) 0.30634(17) 0.14302(12)
F3 F 0.19131(16) 0.24654(17) 0.12187(12)
F4 F 0.15057(14) 0.38060(17) 0.06879(12)
F5 F 0.28226(17) 0.4416(2) 0.09235(19)
F6 F 0.26641(18) 0.3015(3) 0.03914(12)
P2 P 0.20742(7) 0.90475(7) 0.06046(5)
F7 F 0.25172(15) 0.95697(16) 0.12410(10)
F8 F 0.20690(19) 0.80784(16) 0.10140(11)
F9 F 0.29994(16) 0.87748(17) 0.03631(11)
F10 F 0.21082(15) 1.00141(16) 0.02027(11)
F11 F 0.11624(15) 0.93216(18) 0.08501(11)
F12 F 0.16322(16) 0.85242(18) -0.00237(11)
P3 P 0.49637(6) 0.89357(7) 0.74030(5)
F13 F 0.57563(12) 0.93215(15) 0.78606(10)
F14 F 0.45062(14) 0.85948(18) 0.80394(11)
F15 F 0.54241(15) 0.79287(16) 0.73670(13)
F16 F 0.54206(14) 0.92703(19) 0.67636(11)
F17 F 0.45098(14) 0.99434(16) 0.74390(12)
F18 F 0.41670(13) 0.85513(15) 0.69383(11)
loop_
_geom_bond_atom_site_label_1
_geom_bond_atom_site_label_2
_geom_bond_site_symmetry_1
_geom_bond_site_symmetry_2
Ag1 N6 1_555 1_555
Ru1 N1 1_555 1_555
O1 C19 1_555 1_555
N1 C1 1_555 1_555
N2 Ru1 1_555 1_555
N3 Ru1 1_555 1_555
N4 Ru1 1_555 1_555
N5 Ru1 1_555 1_555
N6 C26 1_555 1_555
N7 C29 1_555 1_555
N8 Ru1 1_555 1_555
N9 Ag1 1_555 1_555
N10 Ag1 1_555 1_555
C1 H1 1_555 1_555
C2 C1 1_555 1_555
H2 C2 1_555 1_555
C3 C2 1_555 1_555
H3 C3 1_555 1_555
C4 C3 1_555 1_555
H4 C4 1_555 1_555
C5 N1 1_555 1_555
C6 N2 1_555 1_555
C7 C6 1_555 1_555
H5 C7 1_555 1_555
C8 C7 1_555 1_555
C9 C8 1_555 1_555
H6 C9 1_555 1_555
C10 N2 1_555 1_555
C11 N3 1_555 1_555
C12 C11 1_555 1_555
H7 C12 1_555 1_555
C13 C12 1_555 1_555
H8 C13 1_555 1_555
C14 C13 1_555 1_555
H9 C14 1_555 1_555
C15 N3 1_555 1_555
H10 C15 1_555 1_555
C16 C8 1_555 1_555
C17 C16 1_555 1_555
H11 C17 1_555 1_555
C18 C17 1_555 1_555
H12 C18 1_555 1_555
C19 C18 1_555 1_555
C20 C19 1_555 1_555
H13 C20 1_555 1_555
C21 C16 1_555 1_555
H14 C21 1_555 1_555
C22 O1 1_555 1_555
H15 C22 1_555 1_555
H16 C22 1_555 1_555
H17 C22 1_555 1_555
C23 N4 1_555 1_555
H18 C23 1_555 1_555
C24 N4 1_555 1_555
H19 C24 1_555 1_555
C25 N5 1_555 1_555
H20 C25 1_555 1_555
C26 C25 1_555 1_555
H21 C26 1_555 1_555
C27 N6 1_555 1_555
H22 C27 1_555 1_555
C28 N5 1_555 1_555
H23 C28 1_555 1_555
C29 C23 1_555 1_555
H24 C29 1_555 1_555
C30 N7 1_555 1_555
H25 C30 1_555 1_555
C31 N8 1_555 1_555
C32 C31 1_555 1_555
H26 C32 1_555 1_555
H27 C32 1_555 1_555
H28 C32 1_555 1_555
C33 N9 1_555 1_555
C34 C33 1_555 1_555
H29 C34 1_555 1_555
H30 C34 1_555 1_555
H31 C34 1_555 1_555
C35 N10 1_555 1_555
C36 C35 1_555 1_555
H32 C36 1_555 1_555
H33 C36 1_555 1_555
H34 C36 1_555 1_555
P1 F1 1_555 1_555
F2 P1 1_555 1_555
F3 P1 1_555 1_555
F4 P1 1_555 1_555
F5 P1 1_555 1_555
F6 P1 1_555 1_555
P2 F7 1_555 1_555
F8 P2 1_555 1_555
F9 P2 1_555 1_555
F10 P2 1_555 1_555
F11 P2 1_555 1_555
F12 P2 1_555 1_555
P3 F13 1_555 1_555
F14 P3 1_555 1_555
F15 P3 1_555 1_555
F16 P3 1_555 1_555
F17 P3 1_555 1_555
F18 P3 1_555 1_555
Ag1_2 N7 1_555 1_555
N7_2 Ag1 1_555 1_555
C4 C5 1_555 1_555
C5 C6 1_555 1_555
C9 C10 1_555 1_555
C10 C11 1_555 1_555
C14 C15 1_555 1_555
C20 C21 1_555 1_555
C24 C30 1_555 1_555
C27 C28 1_555 1_555

#END
