
#######################################################################
#
#                 Cambridge Crystallographic Data Centre
#                                CCDC 
#
#######################################################################
#
# If this CIF has been generated from an entry in the Cambridge 
# Structural Database, then it will include bibliographic, chemical, 
# crystal, experimental, refinement or atomic coordinate data resulting 
# from the CCDC's data processing and validation procedures.
#
#######################################################################

data_MUNWAV
_symmetry_cell_setting           orthorhombic
_symmetry_space_group_name_H-M   'P b c a'
_symmetry_Int_Tables_number      61
_space_group_name_Hall           '-P 2ac 2ab'
loop_
_symmetry_equiv_pos_site_id
_symmetry_equiv_pos_as_xyz
1 x,y,z
2 1/2-x,-y,1/2+z
3 1/2+x,1/2-y,-z
4 -x,1/2+y,1/2-z
5 -x,-y,-z
6 1/2+x,y,1/2-z
7 1/2-x,1/2+y,z
8 x,1/2-y,1/2+z
_cell_length_a                   12.4792(19)
_cell_length_b                   22.727(3)
_cell_length_c                   31.136(5)
_cell_angle_alpha                90
_cell_angle_beta                 90
_cell_angle_gamma                90
_cell_volume                     8830.63
loop_
_atom_site_label
_atom_site_type_symbol
_atom_site_fract_x
_atom_site_fract_y
_atom_site_fract_z
Y1 Y -0.02418(4) 0.051893(18) 0.085442(13)
Y2 Y 0.01602(3) 0.034598(18) 0.216158(13)
S1 S 0.48036(10) -0.21557(5) 0.15803(4)
S2 S -0.06496(10) 0.42127(5) -0.00337(4)
S3 S 0.50564(9) 0.30015(5) 0.15914(4)
O1 O 0.0828(2) -0.01514(14) 0.15909(10)
O2 O 0.0948(3) -0.02938(13) 0.08906(10)
O3 O 0.4889(2) -0.25455(14) 0.12188(11)
O4 O 0.4732(3) -0.23912(14) 0.20065(11)
O5 O -0.0962(2) 0.47556(14) -0.21656(10)
O6 O 0.0532(3) 0.42606(16) -0.21433(10)
O7 O -0.0582(3) 0.13581(13) 0.04651(10)
O8 O -0.2200(3) 0.13909(14) 0.01548(12)
O9 O 0.0359(3) 0.43490(13) 0.01671(10)
O10 O -0.1619(3) 0.44933(12) 0.01120(10)
O11 O 0.1190(2) 0.10378(13) 0.11009(10)
O12 O 0.1127(3) 0.10429(14) 0.18192(10)
O13 O 0.4948(2) 0.33056(13) 0.19982(12)
O14 O 0.5119(3) 0.33430(14) 0.12050(12)
O15 O 0.8658(2) -0.01345(13) 0.18779(10)
O16 O 0.8713(2) -0.02108(13) 0.11604(10)
O17 O 0.8924(3) 0.10955(14) 0.20932(11)
O18 O 0.8961(3) 0.10069(14) 0.13819(11)
O19 O -0.1756(2) 0.03231(12) 0.03845(10)
H1 H -0.2391 0.0256 0.0392
H2 H -0.1476 0.0576 0.0222
O20 O 0.0765(3) 0.04555(13) 0.02345(10)
H3 H 0.1205 0.0207 0.0119
H4 H 0.0674 0.0779 0.0034
O21 O 0.0158(2) -0.06380(12) 0.24490(10)
H5 H 0.0068 -0.0959 0.2589
H6 H 0.0181 -0.0840 0.2245
O22 O 0.1975(2) 0.01677(14) 0.23878(10)
H7 H 0.2577 0.0343 0.2344
H8 H 0.1941 0.0092 0.2653
C1 C 0.1216(4) -0.04145(19) 0.12692(16)
C2 C 0.2063(3) -0.08764(18) 0.13464(15)
C3 C 0.3387(4) -0.1549(2) 0.10782(16)
H9 H 0.3730 -0.1729 0.0848
C4 C 0.2577(4) -0.1150(2) 0.10029(15)
H10 H 0.2374 -0.1063 0.0723
C5 C 0.3689(4) -0.16806(19) 0.14904(15)
C6 C 0.3184(4) -0.1420(2) 0.18359(15)
H11 H 0.3387 -0.1512 0.2115
C7 C 0.2373(4) -0.1022(2) 0.17598(15)
H12 H 0.2026 -0.0847 0.1991
C8 C 0.6156(5) -0.1389(2) 0.11873(16)
H13 H 0.5783 -0.1486 0.0939
C9 C 0.5901(4) -0.16567(19) 0.15687(15)
C10 C 0.6453(4) -0.1524(2) 0.19310(15)
H14 H 0.6294 -0.1714 0.2188
C11 C 0.7258(4) -0.1102(2) 0.19164(14)
H15 H 0.7633 -0.1009 0.2165
C12 C -0.0271(4) 0.4479(2) -0.19554(14)
C13 C -0.1267(4) 0.46139(19) -0.12653(15)
H16 H -0.1826 0.4779 -0.1422
C14 C -0.0365(4) 0.44285(19) -0.14741(14)
C15 C 0.0470(4) 0.4188(2) -0.12374(16)
H17 H 0.1087 0.4061 -0.1377
C16 C -0.1331(4) 0.1620(2) 0.02640(15)
C17 C -0.1145(4) 0.22627(18) 0.01653(13)
C18 C -0.2009(4) 0.2625(2) 0.00946(14)
H18 H -0.2696 0.2466 0.0092
C19 C -0.1874(4) 0.3219(2) 0.00270(15)
H19 H -0.2463 0.3465 -0.0011
C20 C 0.0039(4) 0.30824(19) 0.00765(15)
H20 H 0.0728 0.3236 0.0062
C21 C -0.0120(4) 0.2497(2) 0.01566(15)
H21 H 0.0466 0.2254 0.0206
C22 C -0.0521(4) 0.43208(18) -0.05943(13)
C23 C 0.0394(4) 0.4137(2) -0.07949(15)
H22 H 0.0957 0.3979 -0.0637
C24 C -0.1359(4) 0.45592(19) -0.08248(14)
H23 H -0.1979 0.4682 -0.0685
C25 C 0.1490(4) 0.12223(19) 0.14644(17)
C26 C 0.2369(4) 0.16770(19) 0.14797(15)
C27 C 0.2742(4) 0.1950(2) 0.11215(15)
H24 H 0.2448 0.1859 0.0855
C28 C 0.3556(4) 0.2362(2) 0.11501(16)
H25 H 0.3810 0.2545 0.0903
C29 C 0.3987(4) 0.24996(19) 0.15407(15)
C30 C 0.3619(5) 0.2220(3) 0.19012(17)
H26 H 0.3910 0.2308 0.2169
C31 C 0.2814(5) 0.1806(3) 0.18656(17)
H27 H 0.2573 0.1613 0.2110
C32 C 0.6190(4) 0.2538(2) 0.16255(16)
C33 C 0.6421(5) 0.2289(2) 0.20152(17)
H28 H 0.6037 0.2393 0.2259
C34 C 0.6755(4) 0.2400(2) 0.12677(16)
H29 H 0.6597 0.2577 0.1006
C35 C -0.0847(4) 0.34434(17) 0.00174(14)
C36 C 0.7507(4) -0.08212(19) 0.15392(14)
C37 C 0.8358(4) -0.03557(19) 0.15259(15)
C38 C 0.6958(4) -0.0977(2) 0.11721(16)
H30 H 0.7134 -0.0802 0.0912
C39 C 0.7236(4) 0.1880(2) 0.20382(16)
H31 H 0.7401 0.1709 0.2302
C40 C 0.7577(4) 0.1988(2) 0.12978(16)
H32 H 0.7976 0.1893 0.1055
C41 C 0.7803(4) 0.1721(2) 0.16847(15)
C42 C 0.8629(4) 0.1245(2) 0.17238(17)
Y1_2 Y 0.97582(4) 0.051893(18) 0.085442(13)
Y2_2 Y 1.01602(3) 0.034598(18) 0.216158(13)
Y2G Y 0.01602(3) 0.465402(18) -0.283842(13)
O5G O -0.0962(2) 0.02444(14) 0.28344(10)
O6G O 0.0532(3) 0.07394(16) 0.28567(10)
O15_2 O -0.1342(2) -0.01345(13) 0.18779(10)
O16_2 O -0.1287(2) -0.02108(13) 0.11604(10)
O17_2 O -0.1076(3) 0.10955(14) 0.20932(11)
O18_2 O -0.1039(3) 0.10069(14) 0.13819(11)
O23 O 0.5767(5) 0.3859(2) 0.04588(13)
loop_
_geom_bond_atom_site_label_1
_geom_bond_atom_site_label_2
_geom_bond_site_symmetry_1
_geom_bond_site_symmetry_2
Y1 O2 1_555 1_555
Y2 O1 1_555 1_555
S1 O3 1_555 1_555
S2 O9 1_555 1_555
S3 O13 1_555 1_555
O1 C1 1_555 1_555
O2 C1 1_555 1_555
O4 S1 1_555 1_555
O5 C12 1_555 1_555
O6 C12 1_555 1_555
O7 Y1 1_555 1_555
O8 C16 1_555 1_555
O10 S2 1_555 1_555
O11 Y1 1_555 1_555
O12 Y2 1_555 1_555
O14 S3 1_555 1_555
O15 C37 1_555 1_555
O16 C37 1_555 1_555
O17 C42 1_555 1_555
O18 C42 1_555 1_555
O19 Y1 1_555 1_555
H1 O19 1_555 1_555
H2 O19 1_555 1_555
O20 Y1 1_555 1_555
H3 O20 1_555 1_555
H4 O20 1_555 1_555
O21 Y2 1_555 1_555
H5 O21 1_555 1_555
H6 O21 1_555 1_555
O22 Y2 1_555 1_555
H7 O22 1_555 1_555
H8 O22 1_555 1_555
C1 C2 1_555 1_555
C2 C4 1_555 1_555
C3 H9 1_555 1_555
C4 C3 1_555 1_555
H10 C4 1_555 1_555
C5 S1 1_555 1_555
C6 C5 1_555 1_555
H11 C6 1_555 1_555
C7 C2 1_555 1_555
H12 C7 1_555 1_555
C8 H13 1_555 1_555
C9 S1 1_555 1_555
C10 C9 1_555 1_555
H14 C10 1_555 1_555
C11 C10 1_555 1_555
H15 C11 1_555 1_555
C12 C14 1_555 1_555
C13 H16 1_555 1_555
C14 C13 1_555 1_555
C15 C14 1_555 1_555
H17 C15 1_555 1_555
C16 O7 1_555 1_555
C17 C16 1_555 1_555
C18 C17 1_555 1_555
H18 C18 1_555 1_555
C19 C18 1_555 1_555
H19 C19 1_555 1_555
C20 H20 1_555 1_555
C21 C17 1_555 1_555
H21 C21 1_555 1_555
C22 S2 1_555 1_555
C23 C15 1_555 1_555
H22 C23 1_555 1_555
C24 C13 1_555 1_555
H23 C24 1_555 1_555
C25 O11 1_555 1_555
C26 C25 1_555 1_555
C27 C26 1_555 1_555
H24 C27 1_555 1_555
C28 C27 1_555 1_555
H25 C28 1_555 1_555
C29 S3 1_555 1_555
C30 C29 1_555 1_555
H26 C30 1_555 1_555
C31 C26 1_555 1_555
H27 C31 1_555 1_555
C32 S3 1_555 1_555
C33 C32 1_555 1_555
H28 C33 1_555 1_555
C34 C32 1_555 1_555
H29 C34 1_555 1_555
C35 S2 1_555 1_555
C36 C11 1_555 1_555
C37 C36 1_555 1_555
C38 C8 1_555 1_555
H30 C38 1_555 1_555
C39 C33 1_555 1_555
H31 C39 1_555 1_555
C40 C34 1_555 1_555
H32 C40 1_555 1_555
C41 C39 1_555 1_555
C42 C41 1_555 1_555
Y1_2 O16 1_555 1_555
Y2_2 O15 1_555 1_555
Y2G O5 1_555 1_555
O5G Y2 1_555 1_555
O6G Y2 1_555 1_555
O15_2 Y2 1_555 1_555
O16_2 Y1 1_555 1_555
O17_2 Y2 1_555 1_555
O18_2 Y1 1_555 1_555
O6 Y2G 1_555 1_555
O12 C25 1_555 1_555
O17 Y2_2 1_555 1_555
O18 Y1_2 1_555 1_555
C3 C5 1_555 1_555
C6 C7 1_555 1_555
C8 C9 1_555 1_555
C19 C35 1_555 1_555
C20 C21 1_555 1_555
C20 C35 1_555 1_555
C22 C23 1_555 1_555
C22 C24 1_555 1_555
C28 C29 1_555 1_555
C30 C31 1_555 1_555
C36 C38 1_555 1_555
C40 C41 1_555 1_555

#END
