
#######################################################################
#
#                 Cambridge Crystallographic Data Centre
#                                CCDC 
#
#######################################################################
#
# If this CIF has been generated from an entry in the Cambridge 
# Structural Database, then it will include bibliographic, chemical, 
# crystal, experimental, refinement or atomic coordinate data resulting 
# from the CCDC's data processing and validation procedures.
#
#######################################################################

data_MUNWEZ
_symmetry_cell_setting           orthorhombic
_symmetry_space_group_name_H-M   'P b c a'
_symmetry_Int_Tables_number      61
_space_group_name_Hall           '-P 2ac 2ab'
loop_
_symmetry_equiv_pos_site_id
_symmetry_equiv_pos_as_xyz
1 x,y,z
2 1/2-x,-y,1/2+z
3 -x,1/2+y,1/2-z
4 1/2+x,1/2-y,-z
5 -x,-y,-z
6 1/2+x,y,1/2-z
7 x,1/2-y,1/2+z
8 1/2-x,1/2+y,z
_cell_length_a                   12.4805(8)
_cell_length_b                   22.7250(15)
_cell_length_c                   31.147(2)
_cell_angle_alpha                90
_cell_angle_beta                 90
_cell_angle_gamma                90
_cell_volume                     8833.89
loop_
_atom_site_label
_atom_site_type_symbol
_atom_site_fract_x
_atom_site_fract_y
_atom_site_fract_z
Ho1 Ho 0.475775(19) 0.051772(11) 0.085664(8)
Ho2 Ho 0.516372(18) 0.035141(10) 0.216327(7)
S1 S 0.98033(10) -0.21546(6) 0.15796(5)
C1 C 0.7363(5) -0.1013(3) 0.1761(2)
H1 H 0.7012 -0.0839 0.1992
C2 C 0.8692(4) -0.1674(2) 0.14890(18)
C3 C 1.0899(5) -0.1653(2) 0.15659(19)
C4 C 0.8188(5) -0.1419(3) 0.1837(2)
H2 H 0.8392 -0.1513 0.2116
C5 C 0.7572(5) -0.1140(3) 0.1002(2)
H3 H 0.7369 -0.1048 0.0722
C6 C 0.7064(4) -0.0869(2) 0.13458(18)
C7 C 0.6220(5) -0.0412(2) 0.1271(2)
O1 O 0.5951(3) -0.02878(17) 0.08904(13)
O2 O 0.5826(3) -0.01493(18) 0.15873(14)
O3 O 0.4039(4) 0.0250(2) 0.28345(12)
O4 O 0.5529(4) 0.0740(2) 0.28607(13)
C8 C 0.4747(4) 0.0518(3) 0.30499(19)
O5 O 0.6131(3) 0.10518(18) 0.18197(13)
C9 C 0.4652(4) 0.0572(2) 0.35261(18)
C10 C 0.8383(5) -0.1550(3) 0.10733(19)
H4 H 0.8713 -0.1738 0.0843
C11 C 0.3620(5) 0.0455(2) 0.41765(18)
H5 H 0.2988 0.0347 0.4313
C12 C 0.3726(5) 0.0393(3) 0.37354(18)
H6 H 0.3168 0.0229 0.3578
C13 C 0.4465(5) 0.0678(2) 0.44076(17)
S2 S 0.43451(12) 0.07883(5) 0.49680(4)
C14 C 1.2260(5) -0.1103(3) 0.19215(19)
H7 H 1.2637 -0.1012 0.2170
C15 C 1.1458(4) -0.1522(3) 0.19363(19)
H8 H 1.1297 -0.1714 0.2192
C16 C 0.5038(5) 0.1921(3) 0.5073(2)
H9 H 0.5729 0.1771 0.5053
C17 C 0.4153(5) 0.1555(2) 0.50211(17)
C18 C 0.3855(5) 0.2740(2) 0.51659(18)
C19 C 0.4872(5) 0.2507(3) 0.5156(2)
H10 H 0.5457 0.2751 0.5207
C20 C 0.3127(5) 0.1782(2) 0.50308(17)
H11 H 0.2539 0.1535 0.4996
C21 C 0.5394(5) 0.0851(4) 0.4207(2)
H12 H 0.5962 0.1000 0.4367
O6 O 0.6189(3) 0.10461(17) 0.11009(13)
C22 C 0.7368(5) 0.1680(3) 0.14786(19)
C23 C 0.6494(4) 0.1226(2) 0.14607(19)
C24 C 1.2510(5) -0.0818(3) 0.15457(18)
C25 C 0.2980(6) 0.2377(3) 0.5092(2)
H13 H 0.2293 0.2535 0.5084
C26 C 0.3673(5) 0.3379(2) 0.52651(18)
C27 C 0.5482(5) 0.0803(4) 0.3764(2)
H14 H 0.6105 0.0927 0.3627
C28 C 1.1959(6) -0.0974(4) 0.1174(2)
H15 H 1.2134 -0.0796 0.0914
C29 C 0.8982(4) 0.2501(2) 0.15410(18)
C30 C 0.8561(5) 0.2366(3) 0.1148(2)
H16 H 0.8825 0.2548 0.0903
C31 C 0.7736(5) 0.1956(3) 0.1117(2)
H17 H 0.7436 0.1869 0.0851
C32 C 1.1158(6) -0.1389(4) 0.1187(2)
H18 H 1.0792 -0.1489 0.0938
S3 S 1.00605(11) 0.30044(6) 0.15913(6)
C33 C 1.1182(4) 0.2536(2) 0.16276(19)
C34 C 1.1767(6) 0.2391(3) 0.1266(2)
H19 H 1.1613 0.2567 0.1004
C35 C 1.1420(6) 0.2293(4) 0.2015(2)
H20 H 1.1036 0.2399 0.2259
C36 C 0.8624(8) 0.2231(4) 0.1900(3)
H21 H 0.8909 0.2325 0.2167
C37 C 0.7824(8) 0.1811(4) 0.1862(2)
H22 H 0.7593 0.1614 0.2106
C38 C 1.3363(4) -0.0350(2) 0.15276(18)
C39 C 1.2799(5) 0.1722(2) 0.1681(2)
C40 C 1.2584(5) 0.1982(3) 0.1299(2)
H23 H 1.2986 0.1884 0.1058
C41 C 1.2232(7) 0.1890(4) 0.2042(2)
H24 H 1.2404 0.1726 0.2307
C42 C 1.3625(5) 0.1251(2) 0.1729(2)
O7 O 1.3716(3) -0.02103(17) 0.11663(12)
O8 O 0.9734(3) -0.2390(2) 0.20038(16)
O9 O 0.4413(3) 0.36438(17) 0.54701(14)
O10 O 1.3651(3) -0.01347(18) 0.18803(13)
O11 O 0.9890(3) -0.25410(19) 0.12169(17)
O12 O 0.5341(4) 0.06465(19) 0.51702(15)
O13 O 1.3924(4) 0.11017(18) 0.20970(14)
O14 O 0.3376(4) 0.05079(17) 0.51130(13)
O15 O 0.9950(3) 0.3306(2) 0.20008(17)
O16 O 1.3962(4) 0.10119(19) 0.13847(15)
O17 O 0.2808(4) 0.36112(19) 0.51552(16)
O18 O 1.0123(3) 0.3340(2) 0.12046(19)
O19 O 0.5180(3) -0.06426(18) 0.24459(15)
H25 H 0.4707 -0.0634 0.2642
H26 H 0.5053 -0.0940 0.2287
O20 O 0.3250(4) 0.03256(18) 0.03832(14)
O21 O 0.5759(4) 0.04609(18) 0.02339(13)
H27 H 0.6112 0.0157 0.0162
H28 H 0.5980 0.0746 0.0081
O22 O 0.6984(3) 0.0166(2) 0.23907(13)
H29 H 0.7598 0.0310 0.2335
H30 H 0.6947 0.0112 0.2660
H31 H 0.265(5) 0.008(3) 0.0401(18)
H32 H 0.296(9) 0.076(5) 0.031(3)
Ho1_2 Ho 1.475775(19) 0.051772(11) 0.085664(8)
Ho1F Ho 0.475775(19) 0.448228(11) 0.585664(8)
Ho2_2 Ho 1.516372(18) 0.035141(10) 0.216327(7)
O7_2 O 0.3716(3) -0.02103(17) 0.11663(12)
O9F O 0.4413(3) 0.13562(17) 0.04701(14)
O10_2 O 0.3651(3) -0.01347(18) 0.18803(13)
O13_2 O 0.3924(4) 0.11017(18) 0.20970(14)
O16_2 O 0.3962(4) 0.10119(19) 0.13847(15)
O23 O 0.5825(6) 0.1131(3) 0.9550(2)
H33 H 0.5590 0.0917 0.9347
H34 H 0.5897 0.1479 0.9452
loop_
_geom_bond_atom_site_label_1
_geom_bond_atom_site_label_2
_geom_bond_site_symmetry_1
_geom_bond_site_symmetry_2
Ho1 O1 1_555 1_555
Ho2 O2 1_555 1_555
S1 C2 1_555 1_555
C1 H1 1_555 1_555
C2 C4 1_555 1_555
C3 S1 1_555 1_555
C4 C1 1_555 1_555
H2 C4 1_555 1_555
C5 H3 1_555 1_555
C6 C1 1_555 1_555
C7 C6 1_555 1_555
O1 C7 1_555 1_555
O2 C7 1_555 1_555
O3 Ho2 1_555 1_555
O4 Ho2 1_555 1_555
C8 O3 1_555 1_555
O5 Ho2 1_555 1_555
C9 C8 1_555 1_555
C10 C2 1_555 1_555
H4 C10 1_555 1_555
C11 H5 1_555 1_555
C12 C9 1_555 1_555
H6 C12 1_555 1_555
C13 C11 1_555 1_555
S2 C13 1_555 1_555
C14 H7 1_555 1_555
C15 C3 1_555 1_555
H8 C15 1_555 1_555
C16 H9 1_555 1_555
C17 S2 1_555 1_555
C18 C19 1_555 1_555
C19 C16 1_555 1_555
H10 C19 1_555 1_555
C20 C17 1_555 1_555
H11 C20 1_555 1_555
C21 C13 1_555 1_555
H12 C21 1_555 1_555
O6 Ho1 1_555 1_555
C22 C23 1_555 1_555
C23 O5 1_555 1_555
C24 C14 1_555 1_555
C25 C18 1_555 1_555
H13 C25 1_555 1_555
C26 C18 1_555 1_555
C27 C9 1_555 1_555
H14 C27 1_555 1_555
C28 C24 1_555 1_555
H15 C28 1_555 1_555
C29 C30 1_555 1_555
C30 H16 1_555 1_555
C31 C22 1_555 1_555
H17 C31 1_555 1_555
C32 C3 1_555 1_555
H18 C32 1_555 1_555
S3 C29 1_555 1_555
C33 S3 1_555 1_555
C34 C33 1_555 1_555
H19 C34 1_555 1_555
C35 C33 1_555 1_555
H20 C35 1_555 1_555
C36 C29 1_555 1_555
H21 C36 1_555 1_555
C37 C22 1_555 1_555
H22 C37 1_555 1_555
C38 C24 1_555 1_555
C39 C40 1_555 1_555
C40 C34 1_555 1_555
H23 C40 1_555 1_555
C41 C35 1_555 1_555
H24 C41 1_555 1_555
C42 C39 1_555 1_555
O7 C38 1_555 1_555
O8 S1 1_555 1_555
O9 C26 1_555 1_555
O10 C38 1_555 1_555
O11 S1 1_555 1_555
O12 S2 1_555 1_555
O13 C42 1_555 1_555
O14 S2 1_555 1_555
O15 S3 1_555 1_555
O16 C42 1_555 1_555
O17 C26 1_555 1_555
O18 S3 1_555 1_555
O19 Ho2 1_555 1_555
H25 O19 1_555 1_555
H26 O19 1_555 1_555
O20 Ho1 1_555 1_555
O21 Ho1 1_555 1_555
H27 O21 1_555 1_555
H28 O21 1_555 1_555
O22 Ho2 1_555 1_555
H29 O22 1_555 1_555
H30 O22 1_555 1_555
H31 O20 1_555 1_555
H32 O20 1_555 1_555
O23 H33 1_555 1_555
H34 O23 1_555 1_555
Ho1_2 O7 1_555 1_555
Ho1F O9 1_555 1_555
Ho2_2 O10 1_555 1_555
O7_2 Ho1 1_555 1_555
O9F Ho1 1_555 1_555
O10_2 Ho2 1_555 1_555
O13_2 Ho2 1_555 1_555
O16_2 Ho1 1_555 1_555
C5 C6 1_555 1_555
C5 C10 1_555 1_555
O4 C8 1_555 1_555
C11 C12 1_555 1_555
C14 C15 1_555 1_555
C16 C17 1_555 1_555
C20 C25 1_555 1_555
C21 C27 1_555 1_555
O6 C23 1_555 1_555
C28 C32 1_555 1_555
C30 C31 1_555 1_555
C36 C37 1_555 1_555
C39 C41 1_555 1_555
O13 Ho2_2 1_555 1_555
O16 Ho1_2 1_555 1_555

#END
