
#######################################################################
#
#                 Cambridge Crystallographic Data Centre
#                                CCDC 
#
#######################################################################
#
# If this CIF has been generated from an entry in the Cambridge 
# Structural Database, then it will include bibliographic, chemical, 
# crystal, experimental, refinement or atomic coordinate data resulting 
# from the CCDC's data processing and validation procedures.
#
#######################################################################

data_MUNXEY
_symmetry_cell_setting           monoclinic
_symmetry_space_group_name_H-M   'P 21'
_symmetry_Int_Tables_number      4
_space_group_name_Hall           'P 2yb'
loop_
_symmetry_equiv_pos_site_id
_symmetry_equiv_pos_as_xyz
1 x,y,z
2 -x,1/2+y,-z
_cell_length_a                   11.380(2)
_cell_length_b                   8.0274(16)
_cell_length_c                   15.670(3)
_cell_angle_alpha                90
_cell_angle_beta                 92.82(3)
_cell_angle_gamma                90
_cell_volume                     1429.75
loop_
_atom_site_label
_atom_site_type_symbol
_atom_site_fract_x
_atom_site_fract_y
_atom_site_fract_z
Co1 Co 0.01334(6) 0.80486(12) 0.22655(5)
O1 O 0.0243(4) 0.5506(6) 0.1914(4)
O2 O -0.0053(4) 0.8698(7) 0.0985(3)
O3 O 0.0217(5) 0.7288(7) 0.3546(3)
O4 O 0.0024(4) 1.0573(7) 0.2631(4)
N1 N -0.1756(4) 0.7991(9) 0.2294(3)
N2 N -0.7989(4) 0.8026(9) 0.2319(3)
C1 C -0.2312(6) 0.8687(10) 0.2944(4)
H1 H -0.1857 0.9214 0.3373
C2 C -0.3523(5) 0.8663(9) 0.3010(4)
H2 H -0.3868 0.9158 0.3473
C3 C -0.4209(5) 0.7882(9) 0.2371(3)
C4 C -0.3629(5) 0.7198(9) 0.1697(4)
H3 H -0.4055 0.6680 0.1250
C5 C -0.2430(5) 0.7284(9) 0.1691(4)
H4 H -0.2066 0.6813 0.1230
C6 C -0.5516(4) 0.7929(8) 0.2373(3)
C7 C -0.6110(6) 0.8704(10) 0.3013(4)
H5 H -0.5693 0.9206 0.3469
C8 C -0.7327(5) 0.8729(9) 0.2970(4)
H6 H -0.7711 0.9251 0.3407
C9 C -0.7405(5) 0.7343(10) 0.1706(4)
H7 H -0.7836 0.6914 0.1236
C10 C -0.6203(5) 0.7220(9) 0.1713(4)
H8 H -0.5848 0.6660 0.1274
N2_2 N 0.2011(4) 0.8026(9) 0.2319(3)
Co1_2 Co -0.98666(6) 0.80486(12) 0.22655(5)
S1 S 0.79055(16) 0.8434(2) 0.63246(12)
O5 O 0.8170(6) 1.0006(8) 0.5924(4)
O6 O 0.8080(6) 0.8473(11) 0.7241(4)
O7 O 0.8592(6) 0.7093(10) 0.5979(5)
N3 N 0.2885(6) 0.7321(12) 0.5484(6)
H9 H 0.2639 0.6728 0.5054
H10 H 0.2388 0.7786 0.5805
C11 C 0.6413(5) 0.8027(10) 0.6091(4)
C12 C 0.6073(7) 0.7044(9) 0.5389(5)
H11 H 0.6637 0.6540 0.5065
C13 C 0.4860(7) 0.6820(10) 0.5175(5)
H12 H 0.4623 0.6187 0.4700
C14 C 0.4054(7) 0.7521(10) 0.5657(5)
C15 C 0.4396(7) 0.8525(11) 0.6365(5)
H13 H 0.3833 0.9038 0.6687
C16 C 0.5603(7) 0.8738(9) 0.6578(4)
H14 H 0.5843 0.9367 0.7053
S2 S 0.19125(15) 0.7613(2) 0.91390(12)
O8 O 0.1394(5) 0.8962(8) 0.9588(5)
O9 O 0.1751(5) 0.5976(7) 0.9522(4)
O10 O 0.1482(5) 0.7645(9) 0.8245(4)
N4 N 0.7091(5) 0.8244(12) 0.9268(4)
H15 H 0.7455 0.8792 0.9671
H16 H 0.7484 0.7725 0.8895
C17 C 0.5893(5) 0.8196(11) 0.9219(4)
C18 C 0.5306(6) 0.7239(9) 0.8568(4)
H17 H 0.5733 0.6694 0.8161
C19 C 0.4102(6) 0.7123(9) 0.8542(4)
H18 H 0.3718 0.6497 0.8114
C20 C 0.3444(5) 0.7921(9) 0.9143(4)
C21 C 0.4032(6) 0.8877(8) 0.9772(4)
H19 H 0.3599 0.9427 1.0174
C22 C 0.5234(6) 0.9023(9) 0.9812(4)
H20 H 0.5608 0.9674 1.0235
O11 O 0.0122(14) 0.9548(14) 0.4764(7)
O12 O 0.1589(13) 0.929(2) 0.6643(9)
loop_
_geom_bond_atom_site_label_1
_geom_bond_atom_site_label_2
_geom_bond_site_symmetry_1
_geom_bond_site_symmetry_2
Co1 O1 1_555 1_555
O2 Co1 1_555 1_555
O3 Co1 1_555 1_555
O4 Co1 1_555 1_555
N1 Co1 1_555 1_555
N2 C8 1_555 1_555
C1 N1 1_555 1_555
H1 C1 1_555 1_555
C2 C1 1_555 1_555
H2 C2 1_555 1_555
C3 C2 1_555 1_555
C4 C3 1_555 1_555
H3 C4 1_555 1_555
C5 N1 1_555 1_555
H4 C5 1_555 1_555
C6 C3 1_555 1_555
C7 C6 1_555 1_555
H5 C7 1_555 1_555
C8 C7 1_555 1_555
H6 C8 1_555 1_555
C9 N2 1_555 1_555
H7 C9 1_555 1_555
C10 C6 1_555 1_555
H8 C10 1_555 1_555
S1 O5 1_555 1_555
O6 S1 1_555 1_555
O7 S1 1_555 1_555
N3 H9 1_555 1_555
H10 N3 1_555 1_555
C11 S1 1_555 1_555
C12 C11 1_555 1_555
H11 C12 1_555 1_555
C13 C12 1_555 1_555
H12 C13 1_555 1_555
C14 N3 1_555 1_555
C15 C14 1_555 1_555
H13 C15 1_555 1_555
C16 C11 1_555 1_555
H14 C16 1_555 1_555
S2 O8 1_555 1_555
O9 S2 1_555 1_555
O10 S2 1_555 1_555
N4 H15 1_555 1_555
H16 N4 1_555 1_555
C17 N4 1_555 1_555
C18 C17 1_555 1_555
H17 C18 1_555 1_555
C19 C18 1_555 1_555
H18 C19 1_555 1_555
C20 S2 1_555 1_555
C21 C20 1_555 1_555
H19 C21 1_555 1_555
C22 C17 1_555 1_555
H20 C22 1_555 1_555
N2_2 Co1 1_555 1_555
Co1_2 N2 1_555 1_555
C4 C5 1_555 1_555
C9 C10 1_555 1_555
C13 C14 1_555 1_555
C15 C16 1_555 1_555
C19 C20 1_555 1_555
C21 C22 1_555 1_555

#END
