
#######################################################################
#
#                 Cambridge Crystallographic Data Centre
#                                CCDC 
#
#######################################################################
#
# If this CIF has been generated from an entry in the Cambridge 
# Structural Database, then it will include bibliographic, chemical, 
# crystal, experimental, refinement or atomic coordinate data resulting 
# from the CCDC's data processing and validation procedures.
#
#######################################################################

data_MUNZAW
_symmetry_cell_setting           triclinic
_symmetry_space_group_name_H-M   'P -1'
_symmetry_Int_Tables_number      2
_space_group_name_Hall           '-P 1'
loop_
_symmetry_equiv_pos_site_id
_symmetry_equiv_pos_as_xyz
1 x,y,z
2 -x,-y,-z
_cell_length_a                   5.4202(6)
_cell_length_b                   8.3824(9)
_cell_length_c                   9.3506(10)
_cell_angle_alpha                87.982(2)
_cell_angle_beta                 87.916(2)
_cell_angle_gamma                85.650(2)
_cell_volume                     423.109
loop_
_atom_site_label
_atom_site_type_symbol
_atom_site_fract_x
_atom_site_fract_y
_atom_site_fract_z
Sn1 Sn 0.88033(3) 0.73371(2) 0.422319(19)
O1 O 0.6684(4) 0.5345(2) 0.33994(19)
O2 O 0.3983(4) 0.3535(3) 0.3941(2)
C1 C 0.5190(5) 0.4671(3) 0.4234(3)
O3 O 0.5486(4) 0.8697(2) 0.3568(2)
O4 O 0.2221(4) 1.0344(2) 0.4139(2)
C2 C 0.4321(5) 0.9733(3) 0.4346(3)
N1 N 0.9439(5) 0.7578(3) 0.1582(3)
C3 C 1.1510(7) 0.6841(5) 0.1065(4)
H1 H 1.358(5) 0.617(5) -0.069(5)
C4 C 1.2098(9) 0.6753(6) -0.0380(4)
H2 H 1.237(9) 0.627(5) 0.182(4)
C5 C 1.0497(8) 0.7488(5) -0.1323(4)
H3 H 1.084(7) 0.723(4) -0.2295(16)
C6 C 0.8399(9) 0.8273(7) -0.0812(4)
H4 H 0.723(8) 0.870(6) -0.148(5)
C7 C 0.7900(8) 0.8283(6) 0.0645(4)
H5 H 0.645(4) 0.886(4) 0.101(4)
C1A C 0.4810(5) 0.5329(3) 0.5766(3)
O1A O 0.3316(4) 0.4655(2) 0.66006(19)
O2A O 0.6017(4) 0.6465(3) 0.6059(2)
C2A C 0.5679(5) 1.0267(3) 0.5654(3)
O3A O 0.4514(4) 1.1303(2) 0.6432(2)
O4A O 0.7779(4) 0.9656(2) 0.5861(2)
Sn1A Sn 0.11967(3) 0.26629(2) 0.577681(19)
N1A N 0.0561(5) 0.2422(3) 0.8418(3)
C3A C -0.1510(7) 0.3159(5) 0.8935(4)
H1A H -0.358(5) 0.383(5) 1.069(5)
C4A C -0.2098(9) 0.3247(6) 1.0380(4)
H2A H -0.237(9) 0.373(5) 0.818(4)
C5A C -0.0497(8) 0.2512(5) 1.1323(4)
H3A H -0.084(7) 0.277(4) 1.2295(16)
C6A C 0.1601(9) 0.1727(7) 1.0812(4)
H4A H 0.277(8) 0.130(6) 1.148(5)
C7A C 0.2100(8) 0.1717(6) 0.9355(4)
H5A H 0.355(4) 0.114(4) 0.899(4)
Sn1A_2 Sn 0.11967(3) 1.26629(2) 0.577681(19)
O3A_2 O 0.4514(4) 0.1303(2) 0.6432(2)
O4_2 O 0.2221(4) 0.0344(2) 0.4139(2)
loop_
_geom_bond_atom_site_label_1
_geom_bond_atom_site_label_2
_geom_bond_site_symmetry_1
_geom_bond_site_symmetry_2
Sn1 O1 1_555 1_555
O1 C1 1_555 1_555
O2 C1 1_555 1_555
C1 C1A 1_555 1_555
O3 Sn1 1_555 1_555
O4 C2 1_555 1_555
C2 O3 1_555 1_555
N1 Sn1 1_555 1_555
C3 N1 1_555 1_555
H1 C4 1_555 1_555
C4 C3 1_555 1_555
H2 C3 1_555 1_555
C5 C4 1_555 1_555
H3 C5 1_555 1_555
C6 C5 1_555 1_555
H4 C6 1_555 1_555
C7 N1 1_555 1_555
H5 C7 1_555 1_555
C1A O1A 1_555 1_555
O1A Sn1A 1_555 1_555
O2A Sn1 1_555 1_555
C2A C2 1_555 1_555
O3A C2A 1_555 1_555
O4A Sn1 1_555 1_555
Sn1A O2 1_555 1_555
N1A Sn1A 1_555 1_555
C3A N1A 1_555 1_555
H1A C4A 1_555 1_555
C4A C3A 1_555 1_555
H2A C3A 1_555 1_555
C5A C4A 1_555 1_555
H3A C5A 1_555 1_555
C6A C5A 1_555 1_555
H4A C6A 1_555 1_555
C7A N1A 1_555 1_555
H5A C7A 1_555 1_555
Sn1A_2 O4 1_555 1_555
O3A_2 Sn1A 1_555 1_555
O4_2 Sn1A 1_555 1_555
C6 C7 1_555 1_555
C1A O2A 1_555 1_555
C2A O4A 1_555 1_555
O3A Sn1A_2 1_555 1_555
C6A C7A 1_555 1_555

#END
