
#######################################################################
#
#                 Cambridge Crystallographic Data Centre
#                                CCDC 
#
#######################################################################
#
# If this CIF has been generated from an entry in the Cambridge 
# Structural Database, then it will include bibliographic, chemical, 
# crystal, experimental, refinement or atomic coordinate data resulting 
# from the CCDC's data processing and validation procedures.
#
#######################################################################

data_MUPCAD
_symmetry_cell_setting           triclinic
_symmetry_space_group_name_H-M   'P -1'
_symmetry_Int_Tables_number      2
_space_group_name_Hall           '-P 1'
loop_
_symmetry_equiv_pos_site_id
_symmetry_equiv_pos_as_xyz
1 x,y,z
2 -x,-y,-z
_cell_length_a                   8.853(4)
_cell_length_b                   10.956(5)
_cell_length_c                   12.633(5)
_cell_angle_alpha                99.327(5)
_cell_angle_beta                 105.853(4)
_cell_angle_gamma                94.021(5)
_cell_volume                     1154.65
loop_
_atom_site_label
_atom_site_type_symbol
_atom_site_fract_x
_atom_site_fract_y
_atom_site_fract_z
Ce1 Ce 0.24207(2) 0.462832(19) 0.529781(17)
N1 N 0.7468(6) 0.9925(5) 0.9958(4)
O1 O 0.8060(6) 0.9030(5) 1.0273(4)
O2 O 0.7892(6) 1.0979(4) 1.0477(4)
O3 O 0.3526(5) 1.2604(3) 0.8087(3)
H1 H 0.2974 1.3123 0.7841
O4 O 0.1989(4) 1.1344(4) 0.6520(3)
O5 O 0.4505(4) 0.6149(3) 0.6861(3)
O6 O 0.2261(4) 0.6822(3) 0.6077(3)
O7 O 0.1986(4) 0.4395(3) 0.7157(3)
O8 O -0.5764(4) 0.3259(3) 0.5985(3)
O9 O 0.2651(4) 0.3298(4) 0.3587(3)
H2 H 0.3534 0.3498 0.3478
H3 H 0.2565 0.2541 0.3661
O10 O -0.3787(4) 0.4273(3) 0.5632(3)
O11 O 0.0752(4) 0.2619(3) 0.4833(3)
H4 H -0.0223 0.2719 0.4665
H5 H 0.0965 0.2234 0.5379
O12 O -0.0117(4) 0.4846(3) 0.5989(2)
C1 C 0.3640(5) 0.7010(4) 0.6756(4)
C2 C 0.4238(5) 0.8301(4) 0.7436(4)
C3 C 0.5586(6) 0.8502(5) 0.8361(4)
H6 H 0.6136 0.7845 0.8569
C4 C 0.6079(6) 0.9705(5) 0.8958(4)
C5 C 0.5297(6) 1.0708(5) 0.8672(4)
H7 H 0.5654 1.1505 0.9094
C6 C 0.3975(6) 1.0503(5) 0.7749(4)
C7 C 0.3443(6) 0.9301(5) 0.7148(4)
H8 H 0.2537 0.9163 0.6540
C8 C 0.3069(6) 1.1516(5) 0.7389(4)
C9 C -0.4344(5) 0.3409(4) 0.5999(4)
C10 C -0.0862(6) 0.2006(5) 0.7639(5)
H9 H 0.0076 0.2253 0.8214
C11 C -0.1241(7) 0.0774(5) 0.7131(6)
H10 H -0.0556 0.0198 0.7359
C12 C -0.2632(7) 0.0385(6) 0.6282(6)
H11 H -0.2886 -0.0446 0.5926
C13 C -0.3640(6) 0.1261(5) 0.5974(5)
H12 H -0.4601 0.1001 0.5425
C14 C -0.3260(5) 0.2498(4) 0.6456(4)
C15 C -0.1853(5) 0.2893(4) 0.7313(4)
C16 C -0.1445(5) 0.4207(4) 0.7941(4)
C17 C -0.2265(6) 0.4648(5) 0.8691(4)
H13 H -0.3117 0.4141 0.8748
C18 C -0.1840(7) 0.5825(6) 0.9356(5)
H14 H -0.2413 0.6108 0.9844
C19 C -0.0564(7) 0.6576(6) 0.9291(5)
H15 H -0.0254 0.7355 0.9754
C20 C 0.0259(7) 0.6168(5) 0.8533(4)
H16 H 0.1105 0.6681 0.8477
C21 C -0.0186(5) 0.4995(4) 0.7862(4)
C22 C 0.0602(5) 0.4699(4) 0.6962(4)
Ce1_2 Ce -0.75793(2) 0.462832(19) 0.529781(17)
Ce1A Ce -0.24207(2) 0.537168(19) 0.470219(17)
O8_2 O 0.4236(4) 0.3259(3) 0.5985(3)
O10A O 0.3787(4) 0.5727(3) 0.4368(3)
O12A O 0.0117(4) 0.5154(3) 0.4011(2)
O13 O 0.427(3) 0.599(4) 0.937(2)
H17 H 0.4710 0.5411 0.9650
H18 H 0.4388 0.5964 0.8718
loop_
_geom_bond_atom_site_label_1
_geom_bond_atom_site_label_2
_geom_bond_site_symmetry_1
_geom_bond_site_symmetry_2
Ce1 O5 1_555 1_555
N1 O1 1_555 1_555
O2 N1 1_555 1_555
O3 H1 1_555 1_555
O4 C8 1_555 1_555
O5 C1 1_555 1_555
O6 Ce1 1_555 1_555
O7 Ce1 1_555 1_555
O8 C9 1_555 1_555
O9 Ce1 1_555 1_555
H2 O9 1_555 1_555
H3 O9 1_555 1_555
O10 C9 1_555 1_555
O11 Ce1 1_555 1_555
H4 O11 1_555 1_555
H5 O11 1_555 1_555
O12 Ce1 1_555 1_555
C1 O6 1_555 1_555
C2 C1 1_555 1_555
C3 C2 1_555 1_555
H6 C3 1_555 1_555
C4 N1 1_555 1_555
C5 C4 1_555 1_555
H7 C5 1_555 1_555
C6 C5 1_555 1_555
C7 C2 1_555 1_555
H8 C7 1_555 1_555
C8 O3 1_555 1_555
C9 C14 1_555 1_555
C10 H9 1_555 1_555
C11 C10 1_555 1_555
H10 C11 1_555 1_555
C12 C11 1_555 1_555
H11 C12 1_555 1_555
C13 C12 1_555 1_555
H12 C13 1_555 1_555
C14 C13 1_555 1_555
C15 C10 1_555 1_555
C16 C15 1_555 1_555
C17 C16 1_555 1_555
H13 C17 1_555 1_555
C18 C17 1_555 1_555
H14 C18 1_555 1_555
C19 C18 1_555 1_555
H15 C19 1_555 1_555
C20 C19 1_555 1_555
H16 C20 1_555 1_555
C21 C16 1_555 1_555
C22 O7 1_555 1_555
O13 H17 1_555 1_555
H18 O13 1_555 1_555
Ce1_2 O8 1_555 1_555
Ce1A O10 1_555 1_555
O8_2 Ce1 1_555 1_555
O10A Ce1 1_555 1_555
O12A Ce1 1_555 1_555
O12 C22 1_555 1_555
O12 Ce1A 1_555 1_555
C3 C4 1_555 1_555
C6 C7 1_555 1_555
C6 C8 1_555 1_555
C14 C15 1_555 1_555
C20 C21 1_555 1_555
C21 C22 1_555 1_555
Ce1A O12A 1_555 1_555

#END
