
#######################################################################
#
#                 Cambridge Crystallographic Data Centre
#                                CCDC 
#
#######################################################################
#
# If this CIF has been generated from an entry in the Cambridge 
# Structural Database, then it will include bibliographic, chemical, 
# crystal, experimental, refinement or atomic coordinate data resulting 
# from the CCDC's data processing and validation procedures.
#
#######################################################################

data_MUPCEH
_symmetry_cell_setting           triclinic
_symmetry_space_group_name_H-M   'P -1'
_symmetry_Int_Tables_number      2
_space_group_name_Hall           '-P 1'
loop_
_symmetry_equiv_pos_site_id
_symmetry_equiv_pos_as_xyz
1 x,y,z
2 -x,-y,-z
_cell_length_a                   7.407(5)
_cell_length_b                   9.219(7)
_cell_length_c                   11.512(8)
_cell_angle_alpha                74.007(7)
_cell_angle_beta                 71.861(7)
_cell_angle_gamma                80.005(8)
_cell_volume                     714.795
loop_
_atom_site_label
_atom_site_type_symbol
_atom_site_fract_x
_atom_site_fract_y
_atom_site_fract_z
Er1 Er 0.89381(3) 0.94619(2) 0.279423(19)
O1 O 0.8822(6) 0.2174(4) 0.2397(3)
O2 O 0.8332(6) 0.1271(4) 0.0963(3)
O3 O 0.8194(5) 0.7893(4) 0.1795(4)
O4 O 0.5453(5) 0.8853(5) 0.1329(4)
O5 O 0.6248(9) 0.7244(6) -0.2820(5)
O6 O 0.6972(8) 0.4883(5) -0.2778(4)
O7 O 1.1770(5) 0.9213(5) 0.1253(3)
H1 H 1.2456 0.9909 0.1158
H2 H 1.1542 0.9264 0.0589
O8 O 0.5668(5) 0.9633(5) 0.3373(4)
H3 H 0.5063 0.9364 0.4145
H4 H 0.5305 0.9426 0.2839
O9 O 1.1441(5) 0.9688(5) 0.3560(3)
O10 O 1.2226(5) 1.0145(5) 0.5147(3)
O11 O 0.9368(6) 0.7015(5) 0.3995(4)
H5 H 1.0286 0.6825 0.4327
H6 H 0.9263 0.6400 0.3629
C1 C 0.6879(7) 0.7905(6) 0.1293(5)
C2 C 0.7135(7) 0.6656(6) 0.0642(5)
C3 C 0.6790(7) 0.6921(6) -0.0524(5)
H7 H 0.6366 0.7884 -0.0921
C4 C 0.7099(7) 0.5695(6) -0.1081(5)
C5 C 0.7640(7) 0.4239(6) -0.0504(5)
H8 H 0.7822 0.3449 -0.0898
C6 C 0.7910(7) 0.3975(6) 0.0686(5)
C7 C 0.8385(7) 0.2394(6) 0.1374(5)
C8 C 0.7692(7) 0.5195(6) 0.1234(5)
H9 H 0.7925 0.5024 0.2012
N1 N 0.6773(7) 0.5964(6) -0.2321(4)
C9 C 1.1068(7) 0.9946(6) 0.4619(5)
O9A O 0.8559(5) 1.0312(5) 0.6440(3)
C9A C 0.8932(7) 1.0054(6) 0.5381(5)
O10A O 0.7774(5) 0.9855(5) 0.4853(3)
Er1A Er 1.10619(3) 1.05381(2) 0.720577(19)
O1A O 1.1178(6) 1.7826(4) 0.7603(3)
O2A O 1.1668(6) 1.8729(4) 0.9037(3)
O3A O 1.1806(5) 1.2107(4) 0.8205(4)
O4A O 1.4547(5) 1.1147(5) 0.8671(4)
O5A O 1.3752(9) 1.2756(6) 1.2820(5)
O6A O 1.3028(8) 1.5117(5) 1.2778(4)
O7A O 0.8230(5) 1.0787(5) 0.8747(3)
H1A H 0.7544 1.0091 0.8842
H2A H 0.8458 1.0736 0.9411
O8A O 1.4332(5) 1.0367(5) 0.6627(4)
H3A H 1.4937 1.0636 0.5855
H4A H 1.4695 1.0574 0.7161
O11A O 1.0632(6) 1.2985(5) 0.6005(4)
H5A H 0.9714 1.3175 0.5673
H6A H 1.0737 1.3600 0.6371
C1A C 1.3121(7) 1.2095(6) 0.8707(5)
C2A C 1.2865(7) 1.3344(6) 0.9358(5)
C3A C 1.3210(7) 1.3079(6) 1.0524(5)
H7A H 1.3634 1.2116 1.0921
C4A C 1.2901(7) 1.4305(6) 1.1081(5)
C5A C 1.2360(7) 1.5761(6) 1.0504(5)
H8A H 1.2178 1.6551 1.0898
C6A C 1.2090(7) 1.6025(6) 0.9314(5)
C7A C 1.1615(7) 1.7606(6) 0.8626(5)
C8A C 1.2308(7) 1.4805(6) 0.8766(5)
H9A H 1.2075 1.4976 0.7988
N1A N 1.3227(7) 1.4036(6) 1.2321(4)
Er1_2 Er 0.89381(3) -0.05381(2) 0.279423(19)
Er1A_2 Er 1.10619(3) 2.05381(2) 0.720577(19)
O1_2 O 0.8822(6) 1.2174(4) 0.2397(3)
O1A_2 O 1.1178(6) 0.7826(4) 0.7603(3)
O2_2 O 0.8332(6) 1.1271(4) 0.0963(3)
O2A_2 O 1.1668(6) 0.8729(4) 0.9037(3)
O12 O 0.5000(17) 0.6360(15) 0.4990(12)
H10 H 0.5510 0.6506 0.5510
H11 H 0.5374 0.6939 0.4263
O13 O 0.1231(8) 0.6152(6) 0.5841(4)
H12 H 0.0995 0.6635 0.6411
H13 H 0.2422 0.6127 0.5476
loop_
_geom_bond_atom_site_label_1
_geom_bond_atom_site_label_2
_geom_bond_site_symmetry_1
_geom_bond_site_symmetry_2
Er1 O3 1_555 1_555
O1 C7 1_555 1_555
O2 C7 1_555 1_555
O3 C1 1_555 1_555
O4 C1 1_555 1_555
O5 N1 1_555 1_555
O6 N1 1_555 1_555
O7 Er1 1_555 1_555
H1 O7 1_555 1_555
H2 O7 1_555 1_555
O8 Er1 1_555 1_555
H3 O8 1_555 1_555
H4 O8 1_555 1_555
O9 Er1 1_555 1_555
O10 C9 1_555 1_555
O11 Er1 1_555 1_555
H5 O11 1_555 1_555
H6 O11 1_555 1_555
C1 C2 1_555 1_555
C2 C3 1_555 1_555
C3 H7 1_555 1_555
C4 C3 1_555 1_555
C5 C4 1_555 1_555
H8 C5 1_555 1_555
C6 C5 1_555 1_555
C7 C6 1_555 1_555
C8 C2 1_555 1_555
H9 C8 1_555 1_555
N1 C4 1_555 1_555
C9 O9 1_555 1_555
O12 H10 1_555 1_555
H11 O12 1_555 1_555
O13 H12 1_555 1_555
H13 O13 1_555 1_555
O9A C9A 1_555 1_555
C9A C9 1_555 1_555
O10A Er1 1_555 1_555
Er1A O10 1_555 1_555
O1A C7A 1_555 1_555
O2A C7A 1_555 1_555
O3A Er1A 1_555 1_555
O4A C1A 1_555 1_555
O5A N1A 1_555 1_555
O6A N1A 1_555 1_555
O7A Er1A 1_555 1_555
H1A O7A 1_555 1_555
H2A O7A 1_555 1_555
O8A Er1A 1_555 1_555
H3A O8A 1_555 1_555
H4A O8A 1_555 1_555
O11A Er1A 1_555 1_555
H5A O11A 1_555 1_555
H6A O11A 1_555 1_555
C1A O3A 1_555 1_555
C2A C1A 1_555 1_555
C3A C2A 1_555 1_555
H7A C3A 1_555 1_555
C4A C3A 1_555 1_555
C5A C4A 1_555 1_555
H8A C5A 1_555 1_555
C6A C5A 1_555 1_555
C7A C6A 1_555 1_555
C8A C2A 1_555 1_555
H9A C8A 1_555 1_555
N1A C4A 1_555 1_555
Er1_2 O1 1_555 1_555
Er1A_2 O1A 1_555 1_555
O1_2 Er1 1_555 1_555
O1A_2 Er1A 1_555 1_555
O2_2 Er1 1_555 1_555
O2A_2 Er1A 1_555 1_555
O2 Er1_2 1_555 1_555
C6 C8 1_555 1_555
O9A Er1A 1_555 1_555
C9A O10A 1_555 1_555
O2A Er1A_2 1_555 1_555
C6A C8A 1_555 1_555

#END
