
#######################################################################
#
#                 Cambridge Crystallographic Data Centre
#                                CCDC 
#
#######################################################################
#
# If this CIF has been generated from an entry in the Cambridge 
# Structural Database, then it will include bibliographic, chemical, 
# crystal, experimental, refinement or atomic coordinate data resulting 
# from the CCDC's data processing and validation procedures.
#
#######################################################################

data_MUPFUA
_symmetry_cell_setting           orthorhombic
_symmetry_space_group_name_H-M   'P 21 21 21'
_symmetry_Int_Tables_number      19
_space_group_name_Hall           'P 2ac 2ab'
loop_
_symmetry_equiv_pos_site_id
_symmetry_equiv_pos_as_xyz
1 x,y,z
2 1/2-x,-y,1/2+z
3 -x,1/2+y,1/2-z
4 1/2+x,1/2-y,-z
_cell_length_a                   7.1894(6)
_cell_length_b                   13.4890(11)
_cell_length_c                   15.5931(13)
_cell_angle_alpha                90
_cell_angle_beta                 90
_cell_angle_gamma                90
_cell_volume                     1512.18
loop_
_atom_site_label
_atom_site_type_symbol
_atom_site_fract_x
_atom_site_fract_y
_atom_site_fract_z
Er1 Er -0.11110(2) -0.28367(2) -0.49549(2)
O1 O -0.4050(3) -0.34300(17) -0.4987(2)
O2 O -0.1045(4) -0.4590(2) -0.51603(19)
H1 H -0.065(6) -0.480(3) -0.562(2)
O3 O -0.0536(4) -0.3623(3) -0.35490(18)
O4 O 0.1930(4) -0.3351(2) -0.43390(18)
O5 O 0.2606(6) -0.3146(2) -0.6099(2)
O6 O -0.0402(5) -0.3062(2) -0.64027(19)
N1 N 0.4633(6) -0.4511(3) -0.1543(3)
N2 N 0.2513(10) -0.3212(5) -0.9311(3)
C1 C 0.2855(8) -0.4248(4) -0.1422(3)
H2 H 0.2381 -0.4253 -0.0867
C2 C 0.1697(7) -0.3971(3) -0.2086(3)
H3 H 0.0458 -0.3814 -0.1981
C3 C 0.2400(6) -0.3931(3) -0.2907(3)
C4 C 0.4245(6) -0.4162(3) -0.3028(3)
H4 H 0.4780 -0.4112 -0.3570
C5 C 0.5295(8) -0.4469(4) -0.2333(3)
H5 H 0.6523 -0.4656 -0.2426
C6 C 0.1185(7) -0.3616(3) -0.3636(3)
C7 C 0.3787(10) -0.3385(6) -0.8723(4)
H6 H 0.4986 -0.3528 -0.8910
C8 C 0.3474(8) -0.3370(4) -0.7845(3)
H7 H 0.4441 -0.3481 -0.7460
C9 C 0.1705(7) -0.3188(3) -0.7558(3)
C10 C 0.0343(7) -0.3028(3) -0.8165(3)
H8 H -0.0882 -0.2918 -0.7998
C11 C 0.0818(10) -0.3032(4) -0.9025(3)
H9 H -0.0110 -0.2900 -0.9424
C12 C 0.1271(8) -0.3129(3) -0.6612(3)
C13 C -0.4348(6) -0.4426(3) -0.5256(3)
H10 H -0.4419 -0.4455 -0.5876
H11 H -0.5512 -0.4670 -0.5023
C14 C -0.2768(5) -0.5056(3) -0.4944(4)
H12 H -0.2853 -0.5139 -0.4328
H13 H -0.2832 -0.5706 -0.5208
Er1C Er -0.61110(2) -0.21633(2) -0.50451(2)
Er1C_2 Er 0.38890(2) -0.21633(2) -0.50451(2)
O1C O 0.0950(3) -0.15700(17) -0.5013(2)
O4C O -0.3070(4) -0.1649(2) -0.56610(18)
O5C O -0.2394(6) -0.1854(2) -0.3901(2)
loop_
_geom_bond_atom_site_label_1
_geom_bond_atom_site_label_2
_geom_bond_site_symmetry_1
_geom_bond_site_symmetry_2
Er1 O1 1_555 1_555
O1 C13 1_555 1_555
O2 Er1 1_555 1_555
H1 O2 1_555 1_555
O3 Er1 1_555 1_555
O4 Er1 1_555 1_555
O5 C12 1_555 1_555
O6 Er1 1_555 1_555
N1 C1 1_555 1_555
N2 C7 1_555 1_555
C1 H2 1_555 1_555
C2 C1 1_555 1_555
H3 C2 1_555 1_555
C3 C2 1_555 1_555
C4 C3 1_555 1_555
H4 C4 1_555 1_555
C5 N1 1_555 1_555
H5 C5 1_555 1_555
C6 O3 1_555 1_555
C7 H6 1_555 1_555
C8 C7 1_555 1_555
H7 C8 1_555 1_555
C9 C8 1_555 1_555
C10 C9 1_555 1_555
H8 C10 1_555 1_555
C11 N2 1_555 1_555
H9 C11 1_555 1_555
C12 O6 1_555 1_555
C13 H10 1_555 1_555
H11 C13 1_555 1_555
C14 O2 1_555 1_555
H12 C14 1_555 1_555
H13 C14 1_555 1_555
Er1C O1 1_555 1_555
Er1C_2 O4 1_555 1_555
O1C Er1 1_555 1_555
O4C Er1 1_555 1_555
O5C Er1 1_555 1_555
O4 C6 1_555 1_555
O5 Er1C_2 1_555 1_555
C3 C6 1_555 1_555
C4 C5 1_555 1_555
C9 C12 1_555 1_555
C10 C11 1_555 1_555
C13 C14 1_555 1_555
Er1C O4C 1_555 1_555
Er1C_2 O1C 1_555 1_555

#END
