
#######################################################################
#
#                 Cambridge Crystallographic Data Centre
#                                CCDC 
#
#######################################################################
#
# If this CIF has been generated from an entry in the Cambridge 
# Structural Database, then it will include bibliographic, chemical, 
# crystal, experimental, refinement or atomic coordinate data resulting 
# from the CCDC's data processing and validation procedures.
#
#######################################################################

data_MUPLUF01
_symmetry_cell_setting           triclinic
_symmetry_space_group_name_H-M   'P -1'
_symmetry_Int_Tables_number      2
_space_group_name_Hall           '-P 1'
loop_
_symmetry_equiv_pos_site_id
_symmetry_equiv_pos_as_xyz
1 x,y,z
2 -x,-y,-z
_cell_length_a                   7.4912(13)
_cell_length_b                   9.1875(16)
_cell_length_c                   10.0575(17)
_cell_angle_alpha                100.104(2)
_cell_angle_beta                 102.747(2)
_cell_angle_gamma                92.139(2)
_cell_volume                     662.593
loop_
_atom_site_label
_atom_site_type_symbol
_atom_site_fract_x
_atom_site_fract_y
_atom_site_fract_z
Br1 Br 0.84781(8) 0.78347(6) 0.04561(6)
Cu1 Cu 0.65888(9) 0.81723(7) -0.18133(6)
N1 N 0.4349(6) 0.6726(4) -0.2247(4)
N2 N 0.1874(5) 0.5423(4) -0.2218(4)
N3 N 0.0215(5) 0.5008(5) -0.1891(4)
H1 H -0.0073 0.5477 -0.1136
H2 H -0.0533 0.4279 -0.2443
N4 N 0.3854(6) 0.5711(4) -0.3481(4)
C1 C 0.3309(6) 0.7272(5) -0.0063(5)
C2 C 0.2364(7) 0.4936(5) -0.3445(5)
C3 C 0.3178(7) 0.6509(5) -0.1495(5)
C4 C 0.3477(7) 0.6483(6) 0.1021(5)
H3 H 0.3421 0.5430 0.0845
C5 C 0.3729(7) 0.7283(6) 0.2358(5)
H4 H 0.3849 0.6790 0.3125
N5 N 0.3611(6) 0.9592(4) 0.1538(4)
C6 C 0.3804(7) 0.8814(6) 0.2557(5)
H5 H 0.4006 0.9349 0.3482
C7 C 0.3366(6) 0.8804(5) 0.0236(5)
H6 H 0.3226 0.9327 -0.0511
C8 C 0.2407(7) 0.3356(5) -0.5623(5)
H7 H 0.3472 0.3967 -0.5594
N6 N 0.1855(6) 0.2225(5) -0.6704(4)
C9 C 0.1524(7) 0.3683(5) -0.4556(5)
C10 C -0.0636(8) 0.1645(6) -0.5743(6)
H8 H -0.1723 0.1039 -0.5819
C11 C 0.0346(7) 0.1395(6) -0.6763(5)
H9 H -0.0075 0.0604 -0.7530
C12 C -0.0030(8) 0.2774(6) -0.4619(6)
H10 H -0.0666 0.2932 -0.3893
Cu1A Cu 0.34112(9) 1.18277(7) 0.18133(6)
Cu1A_2 Cu 0.34112(9) 0.18277(7) -0.81867(6)
N5A N 0.6389(6) 1.0408(4) -0.1538(4)
N6A N 0.8145(6) 0.7775(5) -0.3296(4)
loop_
_geom_bond_atom_site_label_1
_geom_bond_atom_site_label_2
_geom_bond_site_symmetry_1
_geom_bond_site_symmetry_2
Br1 Cu1 1_555 1_555
Cu1 N1 1_555 1_555
N1 N4 1_555 1_555
N2 N3 1_555 1_555
N3 H1 1_555 1_555
H2 N3 1_555 1_555
N4 C2 1_555 1_555
C1 C3 1_555 1_555
C2 N2 1_555 1_555
C3 N1 1_555 1_555
C4 C1 1_555 1_555
H3 C4 1_555 1_555
C5 C4 1_555 1_555
H4 C5 1_555 1_555
N5 C6 1_555 1_555
C6 C5 1_555 1_555
H5 C6 1_555 1_555
C7 C1 1_555 1_555
H6 C7 1_555 1_555
C8 H7 1_555 1_555
N6 C8 1_555 1_555
C9 C2 1_555 1_555
C10 H8 1_555 1_555
C11 N6 1_555 1_555
H9 C11 1_555 1_555
C12 C9 1_555 1_555
H10 C12 1_555 1_555
Cu1A N5 1_555 1_555
Cu1A_2 N6 1_555 1_555
N5A Cu1 1_555 1_555
N6A Cu1 1_555 1_555
N2 C3 1_555 1_555
N5 C7 1_555 1_555
C8 C9 1_555 1_555
C10 C11 1_555 1_555
C10 C12 1_555 1_555

#END
