
#######################################################################
#
#                 Cambridge Crystallographic Data Centre
#                                CCDC 
#
#######################################################################
#
# If this CIF has been generated from an entry in the Cambridge 
# Structural Database, then it will include bibliographic, chemical, 
# crystal, experimental, refinement or atomic coordinate data resulting 
# from the CCDC's data processing and validation procedures.
#
#######################################################################

data_MUPLAL
_symmetry_cell_setting           monoclinic
_symmetry_space_group_name_H-M   'P 21/c'
_symmetry_Int_Tables_number      14
_space_group_name_Hall           '-P 2ybc'
loop_
_symmetry_equiv_pos_site_id
_symmetry_equiv_pos_as_xyz
1 x,y,z
2 -x,1/2+y,1/2-z
3 -x,-y,-z
4 x,1/2-y,1/2+z
_cell_length_a                   9.9483(5)
_cell_length_b                   12.4494(7)
_cell_length_c                   15.7784(9)
_cell_angle_alpha                90
_cell_angle_beta                 127.973(3)
_cell_angle_gamma                90
_cell_volume                     1540.47
loop_
_atom_site_label
_atom_site_type_symbol
_atom_site_fract_x
_atom_site_fract_y
_atom_site_fract_z
Cu1 Cu -0.20726(7) -0.37074(5) 0.32750(6)
Cu2 Cu -0.43178(6) 0.00230(4) 0.24782(5)
Br1 Br -0.36619(6) -0.17681(4) 0.21586(5)
Br2 Br -0.38177(6) -0.51727(4) 0.20084(5)
N1 N -0.4448(4) -0.3884(3) 0.3777(3)
N2 N -0.2869(4) -0.3484(3) 0.4163(3)
N3 N -0.3908(4) -0.2459(3) 0.4754(3)
N4 N -0.3941(6) -0.1645(4) 0.5361(4)
H1 H -0.410(6) -0.197(4) 0.583(4)
H2 H -0.459(6) -0.118(4) 0.494(4)
N5 N -0.9870(5) -0.3604(3) 0.3517(3)
N6 N 0.2079(4) -0.0842(3) 0.6485(3)
C1 C -0.5057(5) -0.3255(3) 0.4139(4)
C2 C -0.2552(5) -0.2639(3) 0.4758(3)
C3 C -0.8851(6) -0.4437(4) 0.3768(4)
H3 H -0.918(6) -0.508(4) 0.379(4)
C4 C -0.7296(6) -0.4361(4) 0.3966(4)
H4 H -0.675(6) -0.493(4) 0.408(4)
C5 C -0.6734(5) -0.3377(3) 0.3916(4)
C6 C -0.7788(6) -0.2514(4) 0.3631(5)
H5 H -0.749(6) -0.184(4) 0.350(4)
C7 C -0.9336(6) -0.2654(4) 0.3433(5)
H6 H -1.012(6) -0.209(4) 0.321(4)
C8 C 0.2024(6) -0.1880(4) 0.6259(4)
H7 H 0.310(6) -0.222(4) 0.652(4)
C9 C 0.0541(6) -0.2487(4) 0.5710(4)
H8 H 0.058(7) -0.325(4) 0.559(5)
C10 C -0.0964(5) -0.2004(4) 0.5355(4)
C11 C -0.0933(6) -0.0920(4) 0.5572(4)
H9 H -0.193(6) -0.055(4) 0.540(4)
C12 C 0.0594(6) -0.0388(4) 0.6136(4)
H10 H 0.064(6) 0.028(4) 0.632(4)
Cu1_2 Cu -1.20726(7) -0.37074(5) 0.32750(6)
Cu2A Cu -0.56822(6) -0.49770(4) 0.25218(5)
Cu2B Cu 0.43178(6) -0.00230(4) 0.75218(5)
Br2A Br -0.61823(6) -0.01727(4) 0.29916(5)
N1A N -0.5552(4) 0.1116(3) 0.1223(3)
N5_2 N 0.0130(5) -0.3604(3) 0.3517(3)
N6B N -0.2079(4) 0.0842(3) 0.3515(3)
loop_
_geom_bond_atom_site_label_1
_geom_bond_atom_site_label_2
_geom_bond_site_symmetry_1
_geom_bond_site_symmetry_2
Cu1 Br1 1_555 1_555
Cu2 Br1 1_555 1_555
Br2 Cu1 1_555 1_555
N1 N2 1_555 1_555
N2 Cu1 1_555 1_555
N3 N4 1_555 1_555
N4 H1 1_555 1_555
H2 N4 1_555 1_555
N5 C3 1_555 1_555
N6 C8 1_555 1_555
C1 N1 1_555 1_555
C2 N2 1_555 1_555
C3 H3 1_555 1_555
C4 C3 1_555 1_555
H4 C4 1_555 1_555
C5 C1 1_555 1_555
C6 C5 1_555 1_555
H5 C6 1_555 1_555
C7 N5 1_555 1_555
H6 C7 1_555 1_555
C8 H7 1_555 1_555
C9 C8 1_555 1_555
H8 C9 1_555 1_555
C10 C2 1_555 1_555
C11 C10 1_555 1_555
H9 C11 1_555 1_555
C12 N6 1_555 1_555
H10 C12 1_555 1_555
Cu1_2 N5 1_555 1_555
Cu2A Br2 1_555 1_555
Cu2B N6 1_555 1_555
Br2A Cu2 1_555 1_555
N1A Cu2 1_555 1_555
N5_2 Cu1 1_555 1_555
N6B Cu2 1_555 1_555
N1 Cu2A 1_555 1_555
N3 C1 1_555 1_555
N3 C2 1_555 1_555
C4 C5 1_555 1_555
C6 C7 1_555 1_555
C9 C10 1_555 1_555
C11 C12 1_555 1_555

#END
