
#######################################################################
#
#                 Cambridge Crystallographic Data Centre
#                                CCDC 
#
#######################################################################
#
# If this CIF has been generated from an entry in the Cambridge 
# Structural Database, then it will include bibliographic, chemical, 
# crystal, experimental, refinement or atomic coordinate data resulting 
# from the CCDC's data processing and validation procedures.
#
#######################################################################

data_MUPQOE
_symmetry_cell_setting           monoclinic
_symmetry_space_group_name_H-M   'P 21/n'
_symmetry_Int_Tables_number      14
_space_group_name_Hall           '-P 2yn'
loop_
_symmetry_equiv_pos_site_id
_symmetry_equiv_pos_as_xyz
1 x,y,z
2 1/2-x,1/2+y,1/2-z
3 -x,-y,-z
4 1/2+x,1/2-y,1/2+z
_cell_length_a                   18.3563(13)
_cell_length_b                   24.2840(17)
_cell_length_c                   21.6977(15)
_cell_angle_alpha                90
_cell_angle_beta                 92.9760(10)
_cell_angle_gamma                90
_cell_volume                     9659.02
loop_
_atom_site_label
_atom_site_type_symbol
_atom_site_fract_x
_atom_site_fract_y
_atom_site_fract_z
P1 P 0.67687(16) 0.77928(11) 0.32936(14)
V1 V 0.80220(7) 0.75446(5) 0.45489(6)
Mo2 Mo 0.78680(6) 0.88458(4) 0.39641(6)
Mo3 Mo 0.57418(6) 0.66819(4) 0.26484(5)
Mo4 Mo 0.66648(7) 0.91042(5) 0.25867(6)
Mo5 Mo 0.55826(7) 0.80857(5) 0.19845(6)
Mo6 Mo 0.75885(6) 0.66789(4) 0.25379(6)
Mo7 Mo 0.86915(6) 0.78435(5) 0.31584(6)
Mo8 Mo 0.48721(6) 0.77882(5) 0.35091(6)
Mo9 Mo 0.68437(7) 0.64387(5) 0.39160(6)
Mo10 Mo 0.58774(7) 0.88515(5) 0.40959(6)
Mo11 Mo 0.74077(7) 0.80466(5) 0.18078(6)
Mo12 Mo 0.60449(7) 0.75923(5) 0.47660(6)
O3 O 0.9545(4) 0.7800(4) 0.2934(4)
O7 O 0.6162(4) 0.7943(3) 0.3724(3)
O9 O 0.6737(4) 0.7173(3) 0.3157(3)
O11 O 0.7503(4) 0.7940(3) 0.3598(3)
O12 O 0.3964(5) 0.7734(4) 0.3493(4)
O15 O 0.8066(5) 0.6251(3) 0.2102(4)
O16 O 0.6917(5) 0.5873(4) 0.4347(4)
O18 O 0.6070(4) 0.9072(3) 0.3295(4)
O19 O 0.6930(4) 0.8884(3) 0.4237(4)
O20 O 0.8465(5) 0.7339(4) 0.5197(4)
O21 O 0.6053(4) 0.6252(3) 0.3369(4)
O22 O 0.4992(4) 0.8534(3) 0.3847(4)
O23 O 0.4905(5) 0.8116(3) 0.1451(4)
O24 O 0.8188(4) 0.8092(3) 0.2421(4)
O25 O 0.7229(4) 0.8825(3) 0.1957(4)
O26 O 0.5115(5) 0.6256(3) 0.2325(4)
O28 O 0.7483(4) 0.6255(3) 0.3249(4)
O29 O 0.7069(4) 0.7688(3) 0.4825(4)
O30 O 0.6606(5) 0.9771(3) 0.2412(4)
O32 O 0.7454(4) 0.9070(3) 0.3170(4)
O34 O 0.7639(4) 0.6880(3) 0.4240(4)
O36 O 0.5110(4) 0.7544(3) 0.4345(4)
O38 O 0.8251(5) 0.9433(3) 0.4231(4)
O39 O 0.6262(4) 0.6888(3) 0.4388(4)
O40 O 0.5805(4) 0.8837(3) 0.2103(4)
O41 O 0.7838(5) 0.8085(4) 0.1144(4)
O42 O 0.6414(5) 0.8017(3) 0.1493(4)
O44 O 0.5863(5) 0.7394(4) 0.5487(4)
O46 O 0.5611(5) 0.9436(3) 0.4430(4)
O47 O 0.5904(4) 0.8371(3) 0.4805(4)
O48 O 0.5064(4) 0.8084(3) 0.2730(4)
O49 O 0.6593(4) 0.6441(3) 0.2284(4)
O50 O 0.8290(4) 0.7120(3) 0.2916(4)
O51 O 0.5663(4) 0.7302(3) 0.2142(3)
O53 O 0.8781(4) 0.7540(3) 0.3981(4)
O54 O 0.6657(4) 0.8113(3) 0.2690(3)
O55 O 0.8677(4) 0.8545(3) 0.3509(4)
O56 O 0.7401(4) 0.7285(3) 0.1973(4)
O57 O 0.8179(4) 0.8337(3) 0.4593(4)
O58 O 0.5155(4) 0.7109(3) 0.3206(4)
Mo13 Mo 0.14824(6) 0.73085(4) 0.41185(5)
Mo14 Mo 0.26482(6) 1.11393(4) 0.16414(5)
Mo15 Mo 0.35077(6) 1.09547(4) 0.01126(5)
Mo16 Mo 0.17571(7) 0.85875(4) 0.32544(6)
Mo17 Mo 0.19755(7) 0.99114(4) 0.24748(6)
O1 O 0.1169(5) 1.0254(4) 0.2383(5)
O5 O 0.2496(6) 0.8379(4) 0.2879(5)
O13 O 0.3910(5) 1.0877(3) -0.0566(4)
O14 O 0.1770(5) 0.9377(4) 0.3020(5)
O17 O 0.1034(6) 0.8434(4) 0.2785(5)
O27 O 0.1694(5) 0.8002(3) 0.3847(4)
O31 O 0.2609(5) 1.0832(3) -0.0062(4)
O33 O 0.0656(5) 0.7206(3) 0.3781(4)
O35 O 0.2080(7) 0.9561(4) 0.1813(5)
O37 O 0.1823(4) 1.1187(3) 0.1265(4)
O43 O 0.2544(5) 1.0578(3) 0.2146(4)
O45 O 0.3258(4) 1.0890(3) 0.1112(4)
O52 O 0.1396(4) 0.6692(3) 0.4709(4)
O59 O 0.2091(5) 0.6931(3) 0.3682(4)
N1 N 0.1084(6) 0.9001(4) 0.4002(6)
N2 N 0.2521(5) 0.8976(4) 0.4044(5)
N3 N 0.0965(6) 0.7746(4) 0.4908(5)
N4 N 0.2384(5) 0.7576(4) 0.4846(4)
N5 N 0.3654(6) 1.0057(4) 0.0361(5)
N6 N 0.4642(5) 1.0813(4) 0.0600(5)
N7 N 0.3644(6) 1.1411(4) 0.2268(5)
N8 N 0.2285(6) 1.1710(4) 0.2401(5)
N9 N 0.2272(6) 1.0437(4) 0.3329(5)
N10 N 0.3187(6) 0.9792(4) 0.2790(5)
C1 C 0.0361(9) 0.8920(6) 0.4027(9)
H1 H 0.0120 0.8728 0.3707
C2 C -0.0047(11) 0.9111(8) 0.4516(10)
H2 H -0.0549 0.9056 0.4507
C3 C 0.0296(10) 0.9376(7) 0.4998(10)
H3 H 0.0039 0.9490 0.5334
C4 C 0.1039(9) 0.9472(6) 0.4978(9)
H4 H 0.1285 0.9666 0.5294
C5 C 0.1414(7) 0.9274(5) 0.4479(8)
C6 C 0.2218(7) 0.9300(4) 0.4471(6)
C7 C 0.2634(7) 0.9604(5) 0.4876(6)
H5 H 0.2416 0.9836 0.5154
C8 C 0.3392(8) 0.9569(6) 0.4873(7)
H6 H 0.3686 0.9774 0.5149
C9 C 0.3695(8) 0.9225(6) 0.4453(7)
H7 H 0.4198 0.9183 0.4453
C10 C 0.3250(8) 0.8943(6) 0.4034(7)
H8 H 0.3458 0.8725 0.3738
C11 C 0.0227(8) 0.7766(5) 0.4947(7)
H9 H -0.0072 0.7613 0.4633
C12 C -0.0082(8) 0.8006(6) 0.5439(7)
H10 H -0.0586 0.8006 0.5466
C13 C 0.0355(8) 0.8248(6) 0.5894(7)
H11 H 0.0148 0.8428 0.6219
C14 C 0.1104(7) 0.8222(5) 0.5866(6)
H12 H 0.1409 0.8367 0.6181
C15 C 0.1390(6) 0.7970(5) 0.5350(6)
C16 C 0.2207(6) 0.7915(4) 0.5291(5)
C17 C 0.2713(8) 0.8195(6) 0.5649(6)
H13 H 0.2574 0.8429 0.5961
C18 C 0.3421(5) 0.8123(4) 0.5538(5)
H14 H 0.3776 0.8323 0.5763
C19 C 0.3624(5) 0.7759(4) 0.5097(5)
H15 H 0.4112 0.7692 0.5030
C20 C 0.3087(7) 0.7501(5) 0.4762(6)
H16 H 0.3217 0.7256 0.4456
C21 C 0.3143(8) 0.9691(5) 0.0213(6)
H17 H 0.2731 0.9809 -0.0017
C22 C 0.3188(8) 0.9133(5) 0.0382(7)
H18 H 0.2805 0.8891 0.0287
C23 C 0.3806(8) 0.8960(5) 0.0690(7)
H19 H 0.3866 0.8591 0.0796
C24 C 0.4351(7) 0.9339(5) 0.0845(6)
H20 H 0.4776 0.9226 0.1060
C25 C 0.4260(6) 0.9881(5) 0.0679(6)
C26 C 0.4809(7) 1.0312(5) 0.0821(6)
C27 C 0.5450(7) 1.0215(5) 0.1158(6)
H21 H 0.5549 0.9865 0.1316
C28 C 0.5958(7) 1.0644(5) 0.1266(7)
H22 H 0.6393 1.0587 0.1497
C29 C 0.5786(8) 1.1141(6) 0.1020(7)
H23 H 0.6112 1.1433 0.1069
C30 C 0.5125(7) 1.1217(5) 0.0694(6)
H24 H 0.5014 1.1564 0.0534
C31 C 0.1580(7) 1.1831(5) 0.2459(6)
H25 H 0.1239 1.1670 0.2184
C32 C 0.1333(10) 1.2177(6) 0.2900(7)
H26 H 0.0839 1.2250 0.2928
C33 C 0.1854(10) 1.2416(6) 0.3303(7)
H27 H 0.1709 1.2656 0.3608
C34 C 0.2577(8) 1.2301(6) 0.3254(7)
H28 H 0.2929 1.2461 0.3521
C35 C 0.2774(8) 1.1944(5) 0.2801(6)
C36 C 0.3550(7) 1.1780(5) 0.2727(6)
C37 C 0.4142(9) 1.1992(7) 0.3064(8)
H29 H 0.4072 1.2259 0.3363
C38 C 0.4845(9) 1.1809(8) 0.2962(8)
H30 H 0.5245 1.1941 0.3197
C39 C 0.4928(9) 1.1432(7) 0.2506(8)
H31 H 0.5393 1.1309 0.2422
C40 C 0.4322(7) 1.1227(6) 0.2165(6)
H32 H 0.4385 1.0962 0.1863
C41 C 0.1760(8) 1.0727(6) 0.3609(7)
H33 H 0.1275 1.0687 0.3471
C42 C 0.1926(10) 1.1080(6) 0.4095(7)
H34 H 0.1560 1.1271 0.4285
C43 C 0.2637(11) 1.1143(6) 0.4286(8)
H35 H 0.2763 1.1390 0.4602
C44 C 0.3177(9) 1.0842(6) 0.4017(7)
H36 H 0.3664 1.0871 0.4153
C45 C 0.2959(8) 1.0496(5) 0.3535(6)
C46 C 0.3490(8) 1.0138(6) 0.3208(7)
C47 C 0.4246(9) 1.0182(7) 0.3330(8)
H37 H 0.4447 1.0439 0.3608
C48 C 0.4670(10) 0.9824(9) 0.3016(10)
H38 H 0.5175 0.9835 0.3082
C49 C 0.4369(13) 0.9454(9) 0.2612(10)
H39 H 0.4663 0.9204 0.2415
C50 C 0.3632(11) 0.9449(7) 0.2494(8)
H40 H 0.3431 0.9205 0.2202
Mo14A Mo 0.23518(6) 0.61393(4) 0.33586(5)
Mo15A Mo 0.14923(6) 0.59547(4) 0.48874(5)
O52A O 0.3604(4) 1.1692(3) 0.0291(4)
O59A O 0.2909(5) 1.1931(3) 0.1318(4)
Ca1 Ca 0.51765(14) 0.45380(11) 0.42028(15)
O2 O 0.4565(8) 0.6397(6) 0.4334(7)
O4 O 0.5084(9) 0.5338(7) 0.3413(8)
O6 O 0.4615(10) 0.4465(7) 0.5259(8)
O8 O 0.3920(11) 0.4921(9) 0.4129(10)
O10 O 0.7611(19) 0.4810(14) 0.3837(16)
C51 C 0.5031(11) 0.3466(9) 0.3653(12)
H41 H 0.4649 0.3215 0.3613
C52 C 0.5487(12) 0.3468(8) 0.4185(9)
H42 H 0.5409 0.3219 0.4501
C53 C 0.6059(11) 0.3842(10) 0.4246(9)
H43 H 0.6364 0.3844 0.4602
C54 C 0.6176(12) 0.4214(8) 0.3774(12)
H44 H 0.6558 0.4465 0.3814
C55 C 0.5720(15) 0.4212(9) 0.3242(10)
N11 N 0.5148(14) 0.3838(12) 0.3181(9)
C56 C 0.5963(12) 0.4488(7) 0.2701(9)
C57 C 0.6597(10) 0.4802(8) 0.2753(9)
H45 H 0.6934 0.4744 0.3082
C58 C 0.6728(10) 0.5202(8) 0.2314(11)
H46 H 0.7152 0.5411 0.2349
C59 C 0.6225(13) 0.5289(8) 0.1823(9)
H47 H 0.6312 0.5556 0.1529
C60 C 0.5591(12) 0.4975(10) 0.1770(9)
H48 H 0.5254 0.5033 0.1441
N12 N 0.5460(10) 0.4575(8) 0.2209(11)
Mo1? Mo 0.80220(7) 0.75446(5) 0.45489(6)
V2? V 0.78680(6) 0.88458(4) 0.39641(6)
V3? V 0.57418(6) 0.66819(4) 0.26484(5)
V4? V 0.66648(7) 0.91042(5) 0.25867(6)
V5? V 0.55826(7) 0.80857(5) 0.19845(6)
V6? V 0.75885(6) 0.66789(4) 0.25379(6)
V7? V 0.86915(6) 0.78435(5) 0.31584(6)
V8? V 0.48721(6) 0.77882(5) 0.35091(6)
V9? V 0.68437(7) 0.64387(5) 0.39160(6)
V10? V 0.58774(7) 0.88515(5) 0.40959(6)
V11? V 0.74077(7) 0.80466(5) 0.18078(6)
V12? V 0.60449(7) 0.75923(5) 0.47660(6)
loop_
_geom_bond_atom_site_label_1
_geom_bond_atom_site_label_2
_geom_bond_site_symmetry_1
_geom_bond_site_symmetry_2
P1 O7 1_555 1_555
V1 O11 1_555 1_555
Mo2 O11 1_555 1_555
Mo3 O9 1_555 1_555
Mo4 O18 1_555 1_555
Mo5 O23 1_555 1_555
Mo6 O9 1_555 1_555
Mo7 O3 1_555 1_555
Mo8 O7 1_555 1_555
Mo9 O9 1_555 1_555
Mo10 O7 1_555 1_555
Mo11 O24 1_555 1_555
Mo12 O7 1_555 1_555
Mo13 O27 1_555 1_555
Mo14 O37 1_555 1_555
Mo15 O13 1_555 1_555
Mo16 O5 1_555 1_555
Mo17 O1 1_555 1_555
O9 P1 1_555 1_555
O11 P1 1_555 1_555
O12 Mo8 1_555 1_555
O14 Mo16 1_555 1_555
O15 Mo6 1_555 1_555
O16 Mo9 1_555 1_555
O17 Mo16 1_555 1_555
O18 Mo10 1_555 1_555
O19 Mo2 1_555 1_555
O20 V1 1_555 1_555
O21 Mo3 1_555 1_555
O22 Mo8 1_555 1_555
O24 Mo7 1_555 1_555
O25 Mo4 1_555 1_555
O26 Mo3 1_555 1_555
O27 Mo16 1_555 1_555
O28 Mo6 1_555 1_555
O29 V1 1_555 1_555
O30 Mo4 1_555 1_555
O31 Mo15 1_555 1_555
O32 Mo2 1_555 1_555
O33 Mo13 1_555 1_555
O34 V1 1_555 1_555
O35 Mo17 1_555 1_555
O36 Mo8 1_555 1_555
O38 Mo2 1_555 1_555
O39 Mo9 1_555 1_555
O40 Mo4 1_555 1_555
O41 Mo11 1_555 1_555
O42 Mo5 1_555 1_555
O43 Mo14 1_555 1_555
O44 Mo12 1_555 1_555
O45 Mo14 1_555 1_555
O46 Mo10 1_555 1_555
O47 Mo10 1_555 1_555
O48 Mo5 1_555 1_555
O49 Mo3 1_555 1_555
O50 Mo6 1_555 1_555
O51 Mo3 1_555 1_555
O52 Mo13 1_555 1_555
O53 V1 1_555 1_555
O54 P1 1_555 1_555
O55 Mo2 1_555 1_555
O56 Mo6 1_555 1_555
O57 V1 1_555 1_555
O58 Mo3 1_555 1_555
O59 Mo13 1_555 1_555
N1 Mo16 1_555 1_555
N2 Mo16 1_555 1_555
N3 Mo13 1_555 1_555
N4 Mo13 1_555 1_555
N5 Mo15 1_555 1_555
N6 Mo15 1_555 1_555
N7 Mo14 1_555 1_555
N8 Mo14 1_555 1_555
N9 Mo17 1_555 1_555
N10 Mo17 1_555 1_555
C1 N1 1_555 1_555
H1 C1 1_555 1_555
C2 C1 1_555 1_555
H2 C2 1_555 1_555
C3 C2 1_555 1_555
H3 C3 1_555 1_555
C4 C3 1_555 1_555
H4 C4 1_555 1_555
C5 N1 1_555 1_555
C6 N2 1_555 1_555
C7 C6 1_555 1_555
H5 C7 1_555 1_555
C8 C7 1_555 1_555
H6 C8 1_555 1_555
C9 C8 1_555 1_555
H7 C9 1_555 1_555
C10 N2 1_555 1_555
H8 C10 1_555 1_555
C11 N3 1_555 1_555
H9 C11 1_555 1_555
C12 C11 1_555 1_555
H10 C12 1_555 1_555
C13 C12 1_555 1_555
H11 C13 1_555 1_555
C14 C13 1_555 1_555
H12 C14 1_555 1_555
C15 N3 1_555 1_555
C16 N4 1_555 1_555
C17 C16 1_555 1_555
H13 C17 1_555 1_555
C18 C17 1_555 1_555
H14 C18 1_555 1_555
C19 C18 1_555 1_555
H15 C19 1_555 1_555
C20 N4 1_555 1_555
H16 C20 1_555 1_555
C21 N5 1_555 1_555
H17 C21 1_555 1_555
C22 C21 1_555 1_555
H18 C22 1_555 1_555
C23 C22 1_555 1_555
H19 C23 1_555 1_555
C24 C23 1_555 1_555
H20 C24 1_555 1_555
C25 N5 1_555 1_555
C26 N6 1_555 1_555
C27 C26 1_555 1_555
H21 C27 1_555 1_555
C28 C27 1_555 1_555
H22 C28 1_555 1_555
C29 C28 1_555 1_555
H23 C29 1_555 1_555
C30 N6 1_555 1_555
H24 C30 1_555 1_555
C31 N8 1_555 1_555
H25 C31 1_555 1_555
C32 C31 1_555 1_555
H26 C32 1_555 1_555
C33 C32 1_555 1_555
H27 C33 1_555 1_555
C34 C33 1_555 1_555
H28 C34 1_555 1_555
C35 N8 1_555 1_555
C36 N7 1_555 1_555
C37 C36 1_555 1_555
H29 C37 1_555 1_555
C38 C37 1_555 1_555
H30 C38 1_555 1_555
C39 C38 1_555 1_555
H31 C39 1_555 1_555
C40 N7 1_555 1_555
H32 C40 1_555 1_555
C41 N9 1_555 1_555
H33 C41 1_555 1_555
C42 C41 1_555 1_555
H34 C42 1_555 1_555
C43 C42 1_555 1_555
H35 C43 1_555 1_555
C44 C43 1_555 1_555
H36 C44 1_555 1_555
C45 N9 1_555 1_555
C46 N10 1_555 1_555
C47 C46 1_555 1_555
H37 C47 1_555 1_555
C48 C47 1_555 1_555
H38 C48 1_555 1_555
C49 C48 1_555 1_555
H39 C49 1_555 1_555
C50 N10 1_555 1_555
H40 C50 1_555 1_555
C51 H41 1_555 1_555
C52 C51 1_555 1_555
H42 C52 1_555 1_555
C53 C52 1_555 1_555
H43 C53 1_555 1_555
C54 C53 1_555 1_555
H44 C54 1_555 1_555
C55 C54 1_555 1_555
N11 C51 1_555 1_555
C56 C55 1_555 1_555
C57 C56 1_555 1_555
H45 C57 1_555 1_555
C58 C57 1_555 1_555
H46 C58 1_555 1_555
C59 C58 1_555 1_555
H47 C59 1_555 1_555
C60 C59 1_555 1_555
H48 C60 1_555 1_555
N12 C56 1_555 1_555
Mo14A O59 1_555 1_555
Mo15A O52 1_555 1_555
O52A Mo15 1_555 1_555
O59A Mo14 1_555 1_555
Mo2 O57 1_555 1_555
Mo4 O32 1_555 1_555
Mo4 O54 1_555 1_555
Mo5 O40 1_555 1_555
Mo5 O51 1_555 1_555
Mo5 O54 1_555 1_555
Mo6 O49 1_555 1_555
Mo7 O11 1_555 1_555
Mo7 O50 1_555 1_555
Mo7 O53 1_555 1_555
Mo7 O55 1_555 1_555
Mo8 O48 1_555 1_555
Mo8 O58 1_555 1_555
Mo9 O21 1_555 1_555
Mo9 O28 1_555 1_555
Mo9 O34 1_555 1_555
Mo10 O19 1_555 1_555
Mo10 O22 1_555 1_555
Mo11 O25 1_555 1_555
Mo11 O42 1_555 1_555
Mo11 O54 1_555 1_555
Mo11 O56 1_555 1_555
Mo12 O29 1_555 1_555
Mo12 O36 1_555 1_555
Mo12 O39 1_555 1_555
Mo12 O47 1_555 1_555
Mo15 O45 1_555 1_555
Mo17 O14 1_555 1_555
Mo17 O43 1_555 1_555
C4 C5 1_555 1_555
C5 C6 1_555 1_555
C9 C10 1_555 1_555
C14 C15 1_555 1_555
C15 C16 1_555 1_555
C19 C20 1_555 1_555
C24 C25 1_555 1_555
C25 C26 1_555 1_555
C29 C30 1_555 1_555
C34 C35 1_555 1_555
C35 C36 1_555 1_555
C39 C40 1_555 1_555
C44 C45 1_555 1_555
C45 C46 1_555 1_555
C49 C50 1_555 1_555
C55 N11 1_555 1_555
C60 N12 1_555 1_555

#END
