
#######################################################################
#
#                 Cambridge Crystallographic Data Centre
#                                CCDC 
#
#######################################################################
#
# If this CIF has been generated from an entry in the Cambridge 
# Structural Database, then it will include bibliographic, chemical, 
# crystal, experimental, refinement or atomic coordinate data resulting 
# from the CCDC's data processing and validation procedures.
#
#######################################################################

data_MUQBAC
_symmetry_cell_setting           monoclinic
_symmetry_space_group_name_H-M   'C 2/c'
_symmetry_Int_Tables_number      15
_space_group_name_Hall           '-C 2yn'
loop_
_symmetry_equiv_pos_site_id
_symmetry_equiv_pos_as_xyz
1 x,y,z
2 -x,y,1/2-z
3 1/2+x,1/2+y,z
4 1/2-x,1/2+y,1/2-z
5 -x,-y,-z
6 x,-y,1/2+z
7 1/2-x,1/2-y,-z
8 1/2+x,1/2-y,1/2+z
_cell_length_a                   16.771(2)
_cell_length_b                   15.488(2)
_cell_length_c                   16.598(2)
_cell_angle_alpha                90
_cell_angle_beta                 113.853(3)
_cell_angle_gamma                90
_cell_volume                     3943.07
loop_
_atom_site_label
_atom_site_type_symbol
_atom_site_fract_x
_atom_site_fract_y
_atom_site_fract_z
Ni1 Ni 0.72301(4) 0.18351(4) 0.17298(4)
C1 C 0.8567(3) 0.2786(3) 0.1227(3)
C2 C 0.9225(3) 0.5138(3) 0.1397(4)
H1 H 0.9010 0.5669 0.1480
C3 C 0.9073(3) 0.3593(3) 0.1260(3)
C4 C 0.6967(3) 0.3349(3) 0.4200(3)
C5 C 0.8783(3) 0.4394(3) 0.1422(3)
H2 H 0.8292 0.4426 0.1548
C6 C 0.6167(3) 0.4587(4) 0.4508(4)
H3 H 0.6214 0.4994 0.4969
H4 H 0.6307 0.4893 0.4072
C7 C 1.0267(3) 0.4325(3) 0.1099(3)
H5 H 1.0776 0.4294 0.1003
C8 C 0.9979(3) 0.5114(3) 0.1252(3)
C9 C 0.6831(4) 0.3867(4) 0.4903(3)
H6 H 0.7382 0.4116 0.5296
H7 H 0.6630 0.3488 0.5247
C10 C 0.9813(3) 0.3578(3) 0.1084(3)
H8 H 1.0007 0.3055 0.0954
C11 C 0.7612(4) 0.3549(4) 0.3933(4)
H9 H 0.8012 0.3981 0.4220
C12 C 0.6517(4) 0.2300(3) 0.3059(4)
H10 H 0.6123 0.1868 0.2762
C13 C 0.6426(4) 0.2692(4) 0.3760(4)
H11 H 0.5992 0.2508 0.3934
C14 C 0.7674(4) 0.3113(4) 0.3237(4)
H12 H 0.8129 0.3259 0.3078
C15 C 0.5257(4) 0.4274(4) 0.4088(4)
H13 H 0.5111 0.4018 0.4544
H14 H 0.5237 0.3817 0.3682
C16 C 1.0462(3) 0.5936(3) 0.1256(3)
C17 C 0.4553(4) 0.4920(3) 0.3593(4)
C18 C 0.4716(4) 0.5772(4) 0.3479(4)
H15 H 0.5283 0.5984 0.3731
C19 C 0.3686(4) 0.4670(4) 0.3211(4)
H16 H 0.3533 0.4108 0.3285
C20 C 0.4037(4) 0.6310(4) 0.2989(4)
H17 H 0.4164 0.6886 0.2931
C21 C 0.3055(4) 0.5243(3) 0.2725(4)
H18 H 0.2481 0.5050 0.2469
O1 O 0.8106(2) 0.2765(2) 0.1671(2)
O2 O 1.1283(2) 0.5892(2) 0.1608(2)
O3 O 1.0032(2) 0.6595(2) 0.0939(3)
O4 O 0.8625(2) 0.2174(2) 0.0751(2)
O5 O 0.7388(3) 0.1122(2) 0.0737(3)
O6 O 0.6272(2) 0.2622(2) 0.0859(3)
N1 N 0.3215(3) 0.6055(2) 0.2599(3)
N2 N 0.7129(3) 0.2497(3) 0.2781(3)
H19 H 0.704(4) 0.103(3) 0.026(4)
H20 H 0.778(4) 0.133(3) 0.067(4)
H21 H 0.587(4) 0.244(4) 0.078(4)
H22 H 0.623(3) 0.263(3) 0.027(4)
Ni1B Ni 0.22301(4) 0.68351(4) 0.17298(4)
Ni1B_2 Ni 1.22301(4) 0.68351(4) 0.17298(4)
O2B O 0.6283(2) 0.0892(2) 0.1608(2)
N1B N 0.8215(3) 0.1055(2) 0.2599(3)
loop_
_geom_bond_atom_site_label_1
_geom_bond_atom_site_label_2
_geom_bond_site_symmetry_1
_geom_bond_site_symmetry_2
Ni1 O1 1_555 1_555
C1 C3 1_555 1_555
C2 H1 1_555 1_555
C3 C5 1_555 1_555
C4 C9 1_555 1_555
C5 C2 1_555 1_555
H2 C5 1_555 1_555
C6 H3 1_555 1_555
H4 C6 1_555 1_555
C7 H5 1_555 1_555
C8 C2 1_555 1_555
C9 C6 1_555 1_555
H6 C9 1_555 1_555
H7 C9 1_555 1_555
C10 C3 1_555 1_555
H8 C10 1_555 1_555
C11 C4 1_555 1_555
H9 C11 1_555 1_555
C12 H10 1_555 1_555
C13 C4 1_555 1_555
H11 C13 1_555 1_555
C14 C11 1_555 1_555
H12 C14 1_555 1_555
C15 C6 1_555 1_555
H13 C15 1_555 1_555
H14 C15 1_555 1_555
C16 C8 1_555 1_555
C17 C15 1_555 1_555
C18 C17 1_555 1_555
H15 C18 1_555 1_555
C19 C17 1_555 1_555
H16 C19 1_555 1_555
C20 C18 1_555 1_555
H17 C20 1_555 1_555
C21 C19 1_555 1_555
H18 C21 1_555 1_555
O1 C1 1_555 1_555
O2 C16 1_555 1_555
O3 C16 1_555 1_555
O4 C1 1_555 1_555
O5 Ni1 1_555 1_555
O6 Ni1 1_555 1_555
N1 C20 1_555 1_555
N2 Ni1 1_555 1_555
H19 O5 1_555 1_555
H20 O5 1_555 1_555
H21 O6 1_555 1_555
H22 O6 1_555 1_555
Ni1B N1 1_555 1_555
Ni1B_2 O2 1_555 1_555
O2B Ni1 1_555 1_555
N1B Ni1 1_555 1_555
C7 C8 1_555 1_555
C7 C10 1_555 1_555
C12 C13 1_555 1_555
C12 N2 1_555 1_555
C14 N2 1_555 1_555
C21 N1 1_555 1_555

#END
