
#######################################################################
#
#                 Cambridge Crystallographic Data Centre
#                                CCDC 
#
#######################################################################
#
# If this CIF has been generated from an entry in the Cambridge 
# Structural Database, then it will include bibliographic, chemical, 
# crystal, experimental, refinement or atomic coordinate data resulting 
# from the CCDC's data processing and validation procedures.
#
#######################################################################

data_MUQCUX
_symmetry_cell_setting           monoclinic
_symmetry_space_group_name_H-M   'C 2/c'
_symmetry_Int_Tables_number      15
_space_group_name_Hall           '-C 2yn'
loop_
_symmetry_equiv_pos_site_id
_symmetry_equiv_pos_as_xyz
1 x,y,z
2 -x,y,1/2-z
3 1/2+x,1/2+y,z
4 1/2-x,1/2+y,1/2-z
5 -x,-y,-z
6 x,-y,1/2+z
7 1/2-x,1/2-y,-z
8 1/2+x,1/2-y,1/2+z
_cell_length_a                   30.967(3)
_cell_length_b                   10.4282(10)
_cell_length_c                   17.1624(15)
_cell_angle_alpha                90
_cell_angle_beta                 119.526(2)
_cell_angle_gamma                90
_cell_volume                     4822.49
loop_
_atom_site_label
_atom_site_type_symbol
_atom_site_fract_x
_atom_site_fract_y
_atom_site_fract_z
Co1 Co 0.87927(2) 0.20011(6) 0.80899(4)
C1 C 0.86616(17) 0.0130(5) 0.6978(4)
C2 C 0.84933(16) -0.1077(4) 0.6413(3)
C3 C 0.81529(17) -0.1909(5) 0.6444(3)
C4 C 0.80016(17) -0.3007(5) 0.5938(3)
C5 C 0.81791(17) -0.3293(5) 0.5371(3)
C6 C 0.85226(17) -0.2505(5) 0.5304(3)
C7 C 0.86648(16) -0.1424(5) 0.5837(3)
C8 C 0.87223(19) -0.2833(5) 0.4682(3)
C9 C 0.98153(17) 0.1591(5) 0.9831(3)
H1 H 0.9619 0.1533 1.0100
C10 C 0.98807(17) 0.1735(5) 0.8586(3)
H2 H 0.9733 0.1778 0.7966
C11 C 1.03194(18) 0.1555(5) 1.0374(4)
H3 H 1.0457 0.1465 1.0990
C12 C 1.03893(18) 0.1707(6) 0.9079(4)
H4 H 1.0576 0.1723 0.8790
C13 C 1.06225(17) 0.1654(5) 0.9995(4)
C14 C 1.11808(18) 0.1654(7) 1.0572(5)
H5 H 1.1263 0.1570 1.1193
H6 H 1.1311 0.0905 1.0423
C15 C 1.1426(2) 0.2758(7) 1.0493(7)
H7 H 1.1284 0.3513 1.0612
H8 H 1.1360 0.2817 0.9880
C16 C 1.19807(19) 0.2769(6) 1.1113(4)
C17 C 1.22081(18) 0.3664(6) 1.1767(4)
H9 H 1.2021 0.4301 1.1841
C18 C 1.2283(2) 0.1862(7) 1.1047(5)
H10 H 1.2147 0.1221 1.0616
C19 C 1.27142(18) 0.3632(5) 1.2319(4)
H11 H 1.2857 0.4244 1.2770
C20 C 1.2790(2) 0.1904(7) 1.1622(5)
H12 H 1.2986 0.1277 1.1563
C21 C 0.89801(18) 0.3952(5) 0.6969(4)
H13 H 0.8793 0.3374 0.6513
C22 C 0.9287(2) 0.4607(5) 0.8413(4)
H14 H 0.9318 0.4506 0.8977
C23 C 0.92038(19) 0.4956(5) 0.6780(4)
H15 H 0.9165 0.5042 0.6209
C24 C 0.9523(2) 0.5630(6) 0.8263(4)
H16 H 0.9711 0.6195 0.8727
C25 C 0.94814(18) 0.5820(5) 0.7430(4)
C26 C 0.97235(18) 0.6941(5) 0.7235(4)
H17 H 0.9623 0.6933 0.6603
H18 H 0.9601 0.7731 0.7356
N1 N 0.95886(13) 0.1704(4) 0.8949(3)
N2 N 1.30101(13) 0.2783(4) 1.2248(3)
N3 N 0.90158(14) 0.3762(4) 0.7769(3)
F1 F 0.79492(11) -0.1650(3) 0.6958(2)
F2 F 0.76669(12) -0.3785(3) 0.5983(2)
F3 F 0.80180(12) -0.4360(3) 0.4884(2)
F4 F 0.90224(10) -0.0694(3) 0.5832(2)
O1 O 0.87283(13) 0.0071(4) 0.7755(2)
O2 O 0.87168(16) 0.1120(4) 0.6655(3)
O3 O 0.86779(11) -0.1961(4) 0.4144(2)
O4 O 0.8925(2) -0.3858(4) 0.4767(3)
Co1G Co 0.37927(2) 0.29989(6) 0.30899(4)
Co1G_2 Co 1.37927(2) 0.29989(6) 1.30899(4)
Co1E Co 0.87927(2) -0.20011(6) 0.30899(4)
Co1A Co 1.12073(2) 0.20011(6) 0.69101(4)
Co1E_2 Co 0.87927(2) -0.20011(6) 1.30899(4)
C1E C 0.86616(17) -0.0130(5) 1.1978(4)
C2E C 0.84933(16) 0.1077(4) 1.1413(3)
C3E C 0.81529(17) 0.1909(5) 1.1444(3)
C4E C 0.80016(17) 0.3007(5) 1.0938(3)
C5E C 0.81791(17) 0.3293(5) 1.0371(3)
C6E C 0.85226(17) 0.2505(5) 1.0304(3)
C7E C 0.86648(16) 0.1424(5) 1.0837(3)
C8E C 0.87223(19) 0.2833(5) 0.9682(3)
C9G C 0.48153(17) 0.3409(5) 0.4831(3)
H1G H 0.4619 0.3467 0.5100
C10G C 0.48807(17) 0.3265(5) 0.3586(3)
H2G H 0.4733 0.3222 0.2966
C11G C 0.53194(18) 0.3445(5) 0.5374(4)
H3G H 0.5457 0.3535 0.5990
C12G C 0.53893(18) 0.3293(6) 0.4079(4)
H4G H 0.5576 0.3277 0.3790
C13G C 0.56225(17) 0.3346(5) 0.4995(4)
C14G C 0.61808(18) 0.3346(7) 0.5572(5)
H5G H 0.6263 0.3430 0.6193
H6G H 0.6311 0.4095 0.5423
C15G C 0.6426(2) 0.2242(7) 0.5493(7)
H7G H 0.6284 0.1487 0.5612
H8G H 0.6360 0.2183 0.4880
C16G C 0.69807(19) 0.2231(6) 0.6113(4)
C17G C 0.72081(18) 0.1336(6) 0.6767(4)
H9G H 0.7021 0.0699 0.6841
C18G C 0.7283(2) 0.3138(7) 0.6047(5)
H10G H 0.7147 0.3779 0.5616
C19G C 0.77142(18) 0.1368(5) 0.7319(4)
H11G H 0.7857 0.0756 0.7770
C20G C 0.7790(2) 0.3096(7) 0.6622(5)
H12G H 0.7986 0.3723 0.6563
C21A C 1.10199(18) 0.3952(5) 0.8031(4)
H13A H 1.1207 0.3374 0.8487
C22A C 1.0713(2) 0.4607(5) 0.6587(4)
H14A H 1.0682 0.4506 0.6023
C23A C 1.07962(19) 0.4956(5) 0.8220(4)
H15A H 1.0835 0.5042 0.8791
C24A C 1.0477(2) 0.5630(6) 0.6737(4)
H16A H 1.0289 0.6195 0.6273
C25A C 1.05186(18) 0.5820(5) 0.7570(4)
C26A C 1.02765(18) 0.6941(5) 0.7765(4)
H17A H 1.0377 0.6933 0.8397
H18A H 1.0399 0.7731 0.7644
N1G N 0.45886(13) 0.3296(4) 0.3949(3)
N2G N 0.80101(13) 0.2217(4) 0.7248(3)
N2_2 N 0.30101(13) 0.2783(4) 0.2248(3)
N3A N 1.09842(14) 0.3762(4) 0.7231(3)
N3G N 0.40158(14) 0.1238(4) 0.2769(3)
F1E F 0.79492(11) 0.1650(3) 1.1958(2)
F2E F 0.76669(12) 0.3785(3) 1.0983(2)
F3E F 0.80180(12) 0.4360(3) 0.9884(2)
F4E F 0.90224(10) 0.0694(3) 1.0832(2)
O1E O 0.87283(13) -0.0071(4) 1.2755(2)
O1G O 0.37283(13) 0.4929(4) 0.2755(2)
O2E O 0.87168(16) -0.1120(4) 1.1655(3)
O3E O 0.86779(11) 0.1961(4) 0.9144(2)
O3B O 0.36779(11) 0.3039(4) 0.4144(2)
O4E O 0.8925(2) 0.3858(4) 0.9767(3)
loop_
_geom_bond_atom_site_label_1
_geom_bond_atom_site_label_2
_geom_bond_site_symmetry_1
_geom_bond_site_symmetry_2
Co1 N1 1_555 1_555
C1 C2 1_555 1_555
C2 C3 1_555 1_555
C3 C4 1_555 1_555
C4 C5 1_555 1_555
C5 C6 1_555 1_555
C6 C7 1_555 1_555
C7 C2 1_555 1_555
C8 C6 1_555 1_555
C9 H1 1_555 1_555
C10 H2 1_555 1_555
C11 C9 1_555 1_555
H3 C11 1_555 1_555
C12 C10 1_555 1_555
H4 C12 1_555 1_555
C13 C11 1_555 1_555
C14 C13 1_555 1_555
H5 C14 1_555 1_555
H6 C14 1_555 1_555
C15 C14 1_555 1_555
H7 C15 1_555 1_555
H8 C15 1_555 1_555
C16 C15 1_555 1_555
C17 C16 1_555 1_555
H9 C17 1_555 1_555
C18 C16 1_555 1_555
H10 C18 1_555 1_555
C19 C17 1_555 1_555
H11 C19 1_555 1_555
C20 C18 1_555 1_555
H12 C20 1_555 1_555
C21 H13 1_555 1_555
C22 H14 1_555 1_555
C23 C21 1_555 1_555
H15 C23 1_555 1_555
C24 C22 1_555 1_555
H16 C24 1_555 1_555
C25 C23 1_555 1_555
C26 C25 1_555 1_555
H17 C26 1_555 1_555
H18 C26 1_555 1_555
N1 C9 1_555 1_555
N2 C19 1_555 1_555
N3 Co1 1_555 1_555
F1 C3 1_555 1_555
F2 C4 1_555 1_555
F3 C5 1_555 1_555
F4 C7 1_555 1_555
O1 Co1 1_555 1_555
O2 C1 1_555 1_555
O3 C8 1_555 1_555
O4 C8 1_555 1_555
Co1G N1G 1_555 1_555
Co1G_2 N2 1_555 1_555
Co1E O3 1_555 1_555
Co1A N3A 1_555 1_555
Co1E_2 O1E 1_555 1_555
C1E C2E 1_555 1_555
C2E C3E 1_555 1_555
C3E C4E 1_555 1_555
C4E C5E 1_555 1_555
C5E C6E 1_555 1_555
C6E C7E 1_555 1_555
C7E C2E 1_555 1_555
C8E C6E 1_555 1_555
C9G H1G 1_555 1_555
C10G H2G 1_555 1_555
C11G C9G 1_555 1_555
H3G C11G 1_555 1_555
C12G C10G 1_555 1_555
H4G C12G 1_555 1_555
C13G C11G 1_555 1_555
C14G C13G 1_555 1_555
H5G C14G 1_555 1_555
H6G C14G 1_555 1_555
C15G C14G 1_555 1_555
H7G C15G 1_555 1_555
H8G C15G 1_555 1_555
C16G C15G 1_555 1_555
C17G C16G 1_555 1_555
H9G C17G 1_555 1_555
C18G C16G 1_555 1_555
H10G C18G 1_555 1_555
C19G C17G 1_555 1_555
H11G C19G 1_555 1_555
C20G C18G 1_555 1_555
H12G C20G 1_555 1_555
C21A H13A 1_555 1_555
C22A H14A 1_555 1_555
C23A C21A 1_555 1_555
H15A C23A 1_555 1_555
C24A C22A 1_555 1_555
H16A C24A 1_555 1_555
C25A C23A 1_555 1_555
C26A C26 1_555 1_555
H17A C26A 1_555 1_555
H18A C26A 1_555 1_555
N1G C9G 1_555 1_555
N2G Co1 1_555 1_555
N2_2 Co1G 1_555 1_555
N3A C21A 1_555 1_555
N3G Co1G 1_555 1_555
F1E C3E 1_555 1_555
F2E C4E 1_555 1_555
F3E C5E 1_555 1_555
F4E C7E 1_555 1_555
O1E C1E 1_555 1_555
O1G Co1G 1_555 1_555
O2E C1E 1_555 1_555
O3E Co1 1_555 1_555
O3B Co1G 1_555 1_555
O4E C8E 1_555 1_555
C1 O1 1_555 1_555
C10 N1 1_555 1_555
C12 C13 1_555 1_555
C20 N2 1_555 1_555
C21 N3 1_555 1_555
C22 N3 1_555 1_555
C24 C25 1_555 1_555
C8E O3E 1_555 1_555
C10G N1G 1_555 1_555
C12G C13G 1_555 1_555
C19G N2G 1_555 1_555
C20G N2G 1_555 1_555
C22A N3A 1_555 1_555
C24A C25A 1_555 1_555
C25A C26A 1_555 1_555

#END
