
#######################################################################
#
#                 Cambridge Crystallographic Data Centre
#                                CCDC 
#
#######################################################################
#
# If this CIF has been generated from an entry in the Cambridge 
# Structural Database, then it will include bibliographic, chemical, 
# crystal, experimental, refinement or atomic coordinate data resulting 
# from the CCDC's data processing and validation procedures.
#
#######################################################################

data_MUQDAE
_symmetry_cell_setting           triclinic
_symmetry_space_group_name_H-M   'P -1'
_symmetry_Int_Tables_number      2
_space_group_name_Hall           '-P 1'
loop_
_symmetry_equiv_pos_site_id
_symmetry_equiv_pos_as_xyz
1 x,y,z
2 -x,-y,-z
_cell_length_a                   9.760(4)
_cell_length_b                   10.076(4)
_cell_length_c                   11.054(5)
_cell_angle_alpha                67.415(6)
_cell_angle_beta                 81.259(7)
_cell_angle_gamma                77.594(6)
_cell_volume                     977.354
loop_
_atom_site_label
_atom_site_type_symbol
_atom_site_fract_x
_atom_site_fract_y
_atom_site_fract_z
Co1 Co 0.61337(6) 0.87805(6) 0.67294(5)
C1 C 0.4605(4) 0.8032(4) 0.4837(4)
C2 C 0.4785(4) 0.6476(4) 0.4902(4)
C3 C 0.5498(5) 0.6018(4) 0.3922(4)
C4 C 0.4280(5) 0.5404(5) 0.5979(4)
C5 C 0.7909(4) 0.7080(5) 0.8263(4)
C6 C 0.9004(4) 0.6022(4) 0.9157(4)
C7 C 0.9012(5) 0.5943(5) 1.0421(4)
C8 C 1.0016(5) 0.5067(5) 0.8747(4)
C9 C 0.4167(5) 0.7290(5) 0.9066(5)
H1 H 0.4440 0.6528 0.8755
C10 C 0.4134(5) 0.9614(5) 0.8836(4)
H2 H 0.4415 1.0513 0.8373
C11 C 0.3340(6) 0.7044(6) 1.0228(6)
H3 H 0.3098 0.6127 1.0692
C12 C 0.3273(6) 0.9469(5) 0.9955(5)
H4 H 0.2956 1.0268 1.0210
C13 C 0.2869(6) 0.8155(6) 1.0708(5)
C14 C 0.1969(6) 0.7948(7) 1.2021(6)
H5 H 0.1911 0.6924 1.2489
H6 H 0.2392 0.8280 1.2569
C15 C 0.0538(6) 0.8815(8) 1.1720(6)
H7 H 0.0098 0.8419 1.1233
H8 H 0.0620 0.9814 1.1168
C16 C -0.0395(6) 0.8804(7) 1.2958(5)
C17 C -0.0722(6) 0.9962(7) 1.3342(6)
H9 H -0.0312 1.0786 1.2879
C18 C -0.0967(7) 0.7570(7) 1.3763(6)
H10 H -0.0734 0.6719 1.3577
C19 C -0.1656(5) 0.9932(6) 1.4411(5)
H11 H -0.1877 1.0762 1.4629
C20 C -0.1885(5) 0.7614(6) 1.4840(5)
H12 H -0.2252 0.6779 1.5366
N1 N 0.4601(4) 0.8550(4) 0.8359(3)
N2 N -0.2264(4) 0.8789(4) 1.5156(3)
O1 O 0.4840(3) 0.8198(3) 0.5831(3)
O2 O 0.4211(3) 0.9007(3) 0.3785(3)
O3 O 0.7803(3) 0.8413(3) 0.8036(3)
O4 O 0.7170(3) 0.6571(3) 0.7790(3)
F1 F 0.6066(4) 0.6985(3) 0.2853(3)
F2 F 0.3513(4) 0.5753(3) 0.6973(3)
F3 F 0.8071(3) 0.6838(3) 1.0880(3)
F4 F 1.0064(3) 0.5110(4) 0.7519(3)
Co1_2 Co -0.38663(6) 0.87805(6) 1.67294(5)
Co1A Co 0.38663(6) 1.12195(6) 0.32706(5)
Co1_3 Co 0.61337(6) -0.12195(6) 0.67294(5)
Co1A_2 Co 0.38663(6) 0.12195(6) 0.32706(5)
Co1A_3 Co 1.38663(6) 0.12195(6) 1.32706(5)
Co1_4 Co 1.61337(6) -0.12195(6) -0.32706(5)
C1A C 0.5395(4) 0.1968(4) 0.5163(4)
C2A C 0.5215(4) 0.3524(4) 0.5098(4)
C3A C 0.4502(5) 0.3982(4) 0.6078(4)
C4A C 0.5720(5) 0.4596(5) 0.4021(4)
C5A C 1.2091(4) 0.2920(5) 1.1737(4)
C6A C 1.0996(4) 0.3978(4) 1.0843(4)
C7A C 1.0988(5) 0.4057(5) 0.9579(4)
C8A C 0.9984(5) 0.4933(5) 1.1253(4)
C9_2 C 1.4167(5) -0.2710(5) -0.0934(5)
H1_2 H 1.4440 -0.3472 -0.1245
C10_2 C 1.4134(5) -0.0386(5) -0.1164(4)
H2_2 H 1.4415 0.0513 -0.1627
C11_2 C 1.3340(6) -0.2956(6) 0.0228(6)
H3_2 H 1.3098 -0.3873 0.0692
C12_2 C 1.3273(6) -0.0531(5) -0.0045(5)
H4_2 H 1.2956 0.0268 0.0210
C13_2 C 1.2869(6) -0.1845(6) 0.0708(5)
C14_2 C 1.1969(6) -0.2052(7) 0.2021(6)
H5_2 H 1.1911 -0.3076 0.2489
H6_2 H 1.2392 -0.1720 0.2569
C15_2 C 1.0538(6) -0.1185(8) 0.1720(6)
H7_2 H 1.0098 -0.1581 0.1233
H8_2 H 1.0620 -0.0186 0.1168
C16_2 C 0.9605(6) -0.1196(7) 0.2958(5)
C17_2 C 0.9278(6) -0.0038(7) 0.3342(6)
H9_2 H 0.9688 0.0786 0.2879
C18_2 C 0.9033(7) -0.2430(7) 0.3763(6)
H10_2 H 0.9266 -0.3281 0.3577
C19_2 C 0.8344(5) -0.0068(6) 0.4411(5)
H11_2 H 0.8123 0.0762 0.4629
C20_2 C 0.8115(5) -0.2386(6) 0.4840(5)
H12_2 H 0.7748 -0.3221 0.5366
N1_2 N 0.4601(4) -0.1450(4) 0.8359(3)
N1_3 N 1.4601(4) -0.1450(4) -0.1641(3)
N2_2 N 0.7736(4) 0.8789(4) 0.5156(3)
N2_3 N 0.7736(4) -0.1211(4) 0.5156(3)
O1A O 0.5160(3) 0.1802(3) 0.4169(3)
O1_2 O 0.4840(3) -0.1802(3) 0.5831(3)
O2A O 0.5789(3) 0.0993(3) 0.6215(3)
O2A_2 O 0.5789(3) 1.0993(3) 0.6215(3)
O3A O 1.2197(3) 0.1587(3) 1.1964(3)
O3_2 O 0.7803(3) -0.1587(3) 0.8036(3)
O4A O 1.2830(3) 0.3429(3) 1.2210(3)
O4_2 O 0.7170(3) -0.3429(3) 0.7790(3)
F1A F 0.3934(4) 0.3015(3) 0.7147(3)
F2A F 0.6487(4) 0.4247(3) 0.3027(3)
F3A F 1.1929(3) 0.3162(3) 0.9120(3)
F4A F 0.9936(3) 0.4890(4) 1.2481(3)
loop_
_geom_bond_atom_site_label_1
_geom_bond_atom_site_label_2
_geom_bond_site_symmetry_1
_geom_bond_site_symmetry_2
Co1 N1 1_555 1_555
C1 C2 1_555 1_555
C2 C3 1_555 1_555
C3 F1 1_555 1_555
C4 C2 1_555 1_555
C5 C6 1_555 1_555
C6 C7 1_555 1_555
C7 F3 1_555 1_555
C8 C6 1_555 1_555
C9 H1 1_555 1_555
C10 H2 1_555 1_555
C11 C9 1_555 1_555
H3 C11 1_555 1_555
C12 C10 1_555 1_555
H4 C12 1_555 1_555
C13 C11 1_555 1_555
C14 C13 1_555 1_555
H5 C14 1_555 1_555
H6 C14 1_555 1_555
C15 C14 1_555 1_555
H7 C15 1_555 1_555
H8 C15 1_555 1_555
C16 C15 1_555 1_555
C17 C16 1_555 1_555
H9 C17 1_555 1_555
C18 C16 1_555 1_555
H10 C18 1_555 1_555
C19 C17 1_555 1_555
H11 C19 1_555 1_555
C20 C18 1_555 1_555
H12 C20 1_555 1_555
N1 C9 1_555 1_555
N2 C19 1_555 1_555
O1 Co1 1_555 1_555
O2 C1 1_555 1_555
O3 Co1 1_555 1_555
O4 Co1 1_555 1_555
F2 C4 1_555 1_555
F4 C8 1_555 1_555
Co1_2 N2 1_555 1_555
Co1A O2 1_555 1_555
Co1_3 N1_2 1_555 1_555
Co1A_2 O1A 1_555 1_555
Co1A_3 O3A 1_555 1_555
Co1_4 N1_3 1_555 1_555
C1A C2A 1_555 1_555
C2A C3A 1_555 1_555
C3A C4 1_555 1_555
C4A C3 1_555 1_555
C5A C6A 1_555 1_555
C6A C7A 1_555 1_555
C7A C8 1_555 1_555
C8A C7 1_555 1_555
C9_2 H1_2 1_555 1_555
C10_2 H2_2 1_555 1_555
C11_2 C9_2 1_555 1_555
H3_2 C11_2 1_555 1_555
C12_2 C10_2 1_555 1_555
H4_2 C12_2 1_555 1_555
C13_2 C11_2 1_555 1_555
C14_2 C13_2 1_555 1_555
H5_2 C14_2 1_555 1_555
H6_2 C14_2 1_555 1_555
C15_2 C14_2 1_555 1_555
H7_2 C15_2 1_555 1_555
H8_2 C15_2 1_555 1_555
C16_2 C15_2 1_555 1_555
C17_2 C16_2 1_555 1_555
H9_2 C17_2 1_555 1_555
C18_2 C16_2 1_555 1_555
H10_2 C18_2 1_555 1_555
C19_2 C17_2 1_555 1_555
H11_2 C19_2 1_555 1_555
C20_2 C18_2 1_555 1_555
H12_2 C20_2 1_555 1_555
N1_3 C9_2 1_555 1_555
N2_2 Co1 1_555 1_555
N2_3 Co1_3 1_555 1_555
O1A C1A 1_555 1_555
O1_2 Co1_3 1_555 1_555
O2A Co1_3 1_555 1_555
O2A_2 Co1 1_555 1_555
O3A C5A 1_555 1_555
O3_2 Co1_3 1_555 1_555
O4A Co1A_3 1_555 1_555
O4_2 Co1_3 1_555 1_555
F1A C3A 1_555 1_555
F2A C4A 1_555 1_555
F3A C7A 1_555 1_555
F4A C8A 1_555 1_555
C1 O1 1_555 1_555
C5 O3 1_555 1_555
C5 O4 1_555 1_555
C10 N1 1_555 1_555
C12 C13 1_555 1_555
C20 N2 1_555 1_555
C1A O2A 1_555 1_555
C2A C4A 1_555 1_555
C5A O4A 1_555 1_555
C6A C8A 1_555 1_555
C10_2 N1_3 1_555 1_555
C12_2 C13_2 1_555 1_555
C19_2 N2_3 1_555 1_555
C20_2 N2_3 1_555 1_555

#END
