
#######################################################################
#
#                 Cambridge Crystallographic Data Centre
#                                CCDC 
#
#######################################################################
#
# If this CIF has been generated from an entry in the Cambridge 
# Structural Database, then it will include bibliographic, chemical, 
# crystal, experimental, refinement or atomic coordinate data resulting 
# from the CCDC's data processing and validation procedures.
#
#######################################################################

data_MUQGUB
_symmetry_cell_setting           triclinic
_symmetry_space_group_name_H-M   'P -1'
_symmetry_Int_Tables_number      2
_space_group_name_Hall           '-P 1'
loop_
_symmetry_equiv_pos_site_id
_symmetry_equiv_pos_as_xyz
1 x,y,z
2 -x,-y,-z
_cell_length_a                   9.2458(15)
_cell_length_b                   10.8068(9)
_cell_length_c                   13.6178(14)
_cell_angle_alpha                84.554(8)
_cell_angle_beta                 74.905(10)
_cell_angle_gamma                79.490(9)
_cell_volume                     1290.06
loop_
_atom_site_label
_atom_site_type_symbol
_atom_site_fract_x
_atom_site_fract_y
_atom_site_fract_z
Pr1 Pr 0.65842(5) 0.31237(4) 0.24681(3)
Pt1 Pt 1.05076(4) 0.34353(3) 0.48019(3)
Pt2 Pt 0.5000 0.0000 0.0000
O1 O 0.5557(9) 0.4782(7) 0.3737(6)
O2 O 0.7430(10) 0.5216(7) 0.1739(6)
O3 O 0.4970(11) 0.4384(11) 0.1342(8)
C1 C 0.9518(10) 0.3451(8) 0.3672(8)
C2 C 1.1485(10) 0.3435(8) 0.5949(8)
C3 C 0.2549(11) 0.3210(8) 0.3837(7)
C4 C 0.8461(12) 0.3586(9) 0.5761(8)
C5 C 0.5517(11) 0.0809(9) 0.1080(7)
C6 C 0.5304(14) -0.1690(11) 0.0668(9)
C7 C 0.8425(17) 0.3358(13) -0.0079(9)
H1 H 0.7617 0.4024 -0.0013
C8 C 0.9399(16) 0.3169(12) -0.1036(9)
H2 H 0.9236 0.3677 -0.1600
C9 C 1.0646(16) 0.2179(13) -0.1123(9)
H3 H 1.1350 0.2028 -0.1743
C10 C 1.0786(14) 0.1429(11) -0.0242(8)
H4 H 1.1587 0.0762 -0.0274
C11 C 0.9743(11) 0.1681(9) 0.0661(8)
C12 C 0.9894(11) 0.0916(9) 0.1587(7)
C13 C 1.1172(12) 0.0035(11) 0.1621(9)
H5 H 1.1970 -0.0085 0.1042
C14 C 1.1271(12) -0.0672(11) 0.2517(9)
H6 H 1.2134 -0.1257 0.2544
C15 C 1.0091(12) -0.0495(9) 0.3345(9)
H7 H 1.0127 -0.0978 0.3944
C16 C 0.8806(10) 0.0418(8) 0.3307(7)
C17 C 0.7550(10) 0.0709(8) 0.4222(7)
C18 C 0.7428(12) -0.0091(9) 0.5093(8)
H8 H 0.8112 -0.0837 0.5096
C19 C 0.6299(13) 0.0227(10) 0.5941(8)
H9 H 0.6217 -0.0290 0.6532
C20 C 0.5264(12) 0.1342(10) 0.5910(8)
H10 H 0.4488 0.1593 0.6477
C21 C 0.5444(11) 0.2051(9) 0.5006(7)
H11 H 0.4768 0.2798 0.4980
N1 N 0.8908(10) 0.3472(8) 0.3061(7)
N2 N 1.2057(10) 0.3465(8) 0.6588(6)
N3 N 0.3753(9) 0.3063(7) 0.3294(6)
N4 N 0.7278(11) 0.3679(9) 0.6274(9)
N5 N 0.5820(10) 0.1300(9) 0.1687(7)
N6 N 0.5480(17) -0.2731(12) 0.1011(11)
N7 N 0.8579(10) 0.2643(8) 0.0747(6)
N8 N 0.8719(8) 0.1118(6) 0.2426(5)
N9 N 0.6527(8) 0.1738(7) 0.4162(6)
Pr1A Pr 0.34158(5) -0.31237(4) -0.24681(3)
Pt1A Pt -0.05076(4) -0.34353(3) -0.48019(3)
Pt1_2 Pt 0.05076(4) 0.34353(3) 0.48019(3)
Pt1A_2 Pt 0.94924(4) -0.34353(3) -0.48019(3)
O1A O 0.4443(9) -0.4782(7) -0.3737(6)
O2A O 0.2570(10) -0.5216(7) -0.1739(6)
O3A O 0.5030(11) -0.4384(11) -0.1342(8)
C1A C 0.0482(10) -0.3451(8) -0.3672(8)
C2A C -0.1485(10) -0.3435(8) -0.5949(8)
C3A C 0.7451(11) -0.3210(8) -0.3837(7)
C3_2 C 1.2549(11) 0.3210(8) 0.3837(7)
C3A_2 C -0.2549(11) -0.3210(8) -0.3837(7)
C4A C 0.1539(12) -0.3586(9) -0.5761(8)
C5A C 0.4483(11) -0.0809(9) -0.1080(7)
C6A C 0.4696(14) 0.1690(11) -0.0668(9)
C7A C 0.1575(17) -0.3358(13) 0.0079(9)
H1A H 0.2383 -0.4024 0.0013
C8A C 0.0601(16) -0.3169(12) 0.1036(9)
H2A H 0.0764 -0.3677 0.1600
C9A C -0.0646(16) -0.2179(13) 0.1123(9)
H3A H -0.1350 -0.2028 0.1743
C10A C -0.0786(14) -0.1429(11) 0.0242(8)
H4A H -0.1587 -0.0762 0.0274
C11A C 0.0257(11) -0.1681(9) -0.0661(8)
C12A C 0.0106(11) -0.0916(9) -0.1587(7)
C13A C -0.1172(12) -0.0035(11) -0.1621(9)
H5A H -0.1970 0.0085 -0.1042
C14A C -0.1271(12) 0.0672(11) -0.2517(9)
H6A H -0.2134 0.1257 -0.2544
C15A C -0.0091(12) 0.0495(9) -0.3345(9)
H7A H -0.0127 0.0978 -0.3944
C16A C 0.1194(10) -0.0418(8) -0.3307(7)
C17A C 0.2450(10) -0.0709(8) -0.4222(7)
C18A C 0.2572(12) 0.0091(9) -0.5093(8)
H8A H 0.1888 0.0837 -0.5096
C19A C 0.3701(13) -0.0227(10) -0.5941(8)
H9A H 0.3783 0.0290 -0.6532
C20A C 0.4736(12) -0.1342(10) -0.5910(8)
H10A H 0.5512 -0.1593 -0.6477
C21A C 0.4556(11) -0.2051(9) -0.5006(7)
H11A H 0.5232 -0.2798 -0.4980
N1A N 0.1092(10) -0.3472(8) -0.3061(7)
N2A N -0.2057(10) -0.3465(8) -0.6588(6)
N3A N 0.6247(9) -0.3063(7) -0.3294(6)
N4A N 0.2722(11) -0.3679(9) -0.6274(9)
N5A N 0.4180(10) -0.1300(9) -0.1687(7)
N6A N 0.4520(17) 0.2731(12) -0.1011(11)
N7A N 0.1421(10) -0.2643(8) -0.0747(6)
N8A N 0.1281(8) -0.1118(6) -0.2426(5)
N9A N 0.3473(8) -0.1738(7) -0.4162(6)
O4 O 0.2305(17) 0.3697(14) 0.1219(12)
loop_
_geom_bond_atom_site_label_1
_geom_bond_atom_site_label_2
_geom_bond_site_symmetry_1
_geom_bond_site_symmetry_2
Pr1 O1 1_555 1_555
Pt1 C1 1_555 1_555
Pt2 C5 1_555 1_555
O2 Pr1 1_555 1_555
O3 Pr1 1_555 1_555
C1 N1 1_555 1_555
C2 Pt1 1_555 1_555
C3 N3 1_555 1_555
C4 Pt1 1_555 1_555
C5 N5 1_555 1_555
C6 Pt2 1_555 1_555
C7 H1 1_555 1_555
C8 C7 1_555 1_555
H2 C8 1_555 1_555
C9 C8 1_555 1_555
H3 C9 1_555 1_555
C10 C9 1_555 1_555
H4 C10 1_555 1_555
C11 C10 1_555 1_555
C12 C11 1_555 1_555
C13 C12 1_555 1_555
H5 C13 1_555 1_555
C14 C13 1_555 1_555
H6 C14 1_555 1_555
C15 C14 1_555 1_555
H7 C15 1_555 1_555
C16 C15 1_555 1_555
C17 C16 1_555 1_555
C18 C17 1_555 1_555
H8 C18 1_555 1_555
C19 C18 1_555 1_555
H9 C19 1_555 1_555
C20 C19 1_555 1_555
H10 C20 1_555 1_555
C21 C20 1_555 1_555
H11 C21 1_555 1_555
N1 Pr1 1_555 1_555
N2 C2 1_555 1_555
N3 Pr1 1_555 1_555
N4 C4 1_555 1_555
N5 Pr1 1_555 1_555
N6 C6 1_555 1_555
N7 Pr1 1_555 1_555
N8 Pr1 1_555 1_555
N9 Pr1 1_555 1_555
Pr1A O1A 1_555 1_555
Pt1A C1A 1_555 1_555
Pt1_2 C3 1_555 1_555
Pt1A_2 C3A 1_555 1_555
O2A Pr1A 1_555 1_555
O3A Pr1A 1_555 1_555
C1A N1A 1_555 1_555
C2A Pt1A 1_555 1_555
C3A N3A 1_555 1_555
C3_2 Pt1 1_555 1_555
C3A_2 Pt1A 1_555 1_555
C4A Pt1A 1_555 1_555
C5A Pt2 1_555 1_555
C6A Pt2 1_555 1_555
C7A H1A 1_555 1_555
C8A C7A 1_555 1_555
H2A C8A 1_555 1_555
C9A C8A 1_555 1_555
H3A C9A 1_555 1_555
C10A C9A 1_555 1_555
H4A C10A 1_555 1_555
C11A C10A 1_555 1_555
C12A C11A 1_555 1_555
C13A C12A 1_555 1_555
H5A C13A 1_555 1_555
C14A C13A 1_555 1_555
H6A C14A 1_555 1_555
C15A C14A 1_555 1_555
H7A C15A 1_555 1_555
C16A C15A 1_555 1_555
C17A C16A 1_555 1_555
C18A C17A 1_555 1_555
H8A C18A 1_555 1_555
C19A C18A 1_555 1_555
H9A C19A 1_555 1_555
C20A C19A 1_555 1_555
H10A C20A 1_555 1_555
C21A C20A 1_555 1_555
H11A C21A 1_555 1_555
N1A Pr1A 1_555 1_555
N2A C2A 1_555 1_555
N3A Pr1A 1_555 1_555
N4A C4A 1_555 1_555
N5A Pr1A 1_555 1_555
N6A C6A 1_555 1_555
N7A Pr1A 1_555 1_555
N8A Pr1A 1_555 1_555
N9A Pr1A 1_555 1_555
C7 N7 1_555 1_555
C11 N7 1_555 1_555
C12 N8 1_555 1_555
C16 N8 1_555 1_555
C17 N9 1_555 1_555
C21 N9 1_555 1_555
C5A N5A 1_555 1_555
C7A N7A 1_555 1_555
C11A N7A 1_555 1_555
C12A N8A 1_555 1_555
C16A N8A 1_555 1_555
C17A N9A 1_555 1_555
C21A N9A 1_555 1_555

#END
