
#######################################################################
#
#                 Cambridge Crystallographic Data Centre
#                                CCDC 
#
#######################################################################
#
# If this CIF has been generated from an entry in the Cambridge 
# Structural Database, then it will include bibliographic, chemical, 
# crystal, experimental, refinement or atomic coordinate data resulting 
# from the CCDC's data processing and validation procedures.
#
#######################################################################

data_MUQGOV
_symmetry_cell_setting           triclinic
_symmetry_space_group_name_H-M   'P -1'
_symmetry_Int_Tables_number      2
_space_group_name_Hall           '-P 1'
loop_
_symmetry_equiv_pos_site_id
_symmetry_equiv_pos_as_xyz
1 x,y,z
2 -x,-y,-z
_cell_length_a                   9.3862(15)
_cell_length_b                   12.1857(13)
_cell_length_c                   13.4931(10)
_cell_angle_alpha                88.082(7)
_cell_angle_beta                 80.216(10)
_cell_angle_gamma                74.884(11)
_cell_volume                     1468.14
loop_
_atom_site_label
_atom_site_type_symbol
_atom_site_fract_x
_atom_site_fract_y
_atom_site_fract_z
La1 La 0.64899(6) 0.27218(4) 0.26374(4)
Pt1 Pt 1.06512(4) 0.34911(3) 0.49418(3)
Pt2 Pt 0.5000 0.0000 0.0000
O1 O 0.7177(11) 0.4524(6) 0.1978(7)
H1 H 0.7281 0.5005 0.2384
H2 H 0.7231 0.4878 0.1425
O2 O 0.5105(9) 0.3556(6) 0.1212(6)
H3 H 0.4649 0.4256 0.1296
H4 H 0.5135 0.3244 0.0652
O3 O 0.5333(9) 0.4403(7) 0.3899(7)
H5 H 0.5923 0.4834 0.3787
H6 H 0.4499 0.4833 0.3799
C1 C 0.9458(12) 0.3147(8) 0.3953(9)
C2 C 1.1790(14) 0.3832(9) 0.5938(9)
C3 C 0.2540(12) 0.3087(8) 0.3944(8)
C4 C 0.8738(14) 0.3872(9) 0.5913(9)
C5 C 0.5458(13) 0.0609(8) 0.1206(9)
C6 C 0.5083(14) 0.1458(10) -0.0663(9)
C7 C 0.5536(14) 0.1946(11) 0.5142(10)
H9 H 0.4909 0.2673 0.5115
C8 C 0.5346(17) 0.1340(12) 0.6029(10)
H10 H 0.4679 0.1663 0.6599
C9 C 0.6215(19) 0.0223(14) 0.6008(13)
H11 H 0.6086 -0.0244 0.6557
C10 C 0.7238(17) -0.0177(11) 0.5196(13)
H12 H 0.7803 -0.0928 0.5180
C11 C 0.7462(14) 0.0506(9) 0.4389(10)
C12 C 0.8653(14) 0.0148(9) 0.3516(10)
C13 C 0.9815(16) -0.0815(10) 0.3602(12)
H13 H 0.9809 -0.1246 0.4184
C14 C 1.0975(19) -0.1109(11) 0.2798(15)
H14 H 1.1728 -0.1775 0.2817
C15 C 1.1018(14) -0.0439(11) 0.1993(12)
H15 H 1.1832 -0.0612 0.1473
C16 C 0.9848(13) 0.0513(9) 0.1938(9)
C17 C 0.9804(13) 0.1248(9) 0.1036(10)
C18 C 1.0993(16) 0.1086(14) 0.0223(12)
H16 H 1.1836 0.0485 0.0236
C19 C 1.0944(17) 0.1758(15) -0.0551(12)
H17 H 1.1781 0.1682 -0.1050
C20 C 0.9637(16) 0.2585(13) -0.0625(11)
H18 H 0.9538 0.3023 -0.1199
C21 C 0.8518(14) 0.2730(10) 0.0167(10)
H19 H 0.7658 0.3309 0.0132
N1 N 0.8706(11) 0.2994(8) 0.3443(8)
N2 N 1.2501(13) 0.4065(8) 0.6499(9)
N3 N 0.3661(10) 0.2872(8) 0.3398(7)
N4 N 0.7637(14) 0.4096(9) 0.6446(10)
N5 N 0.5770(11) 0.1019(8) 0.1873(8)
N6 N 0.5210(16) 0.2311(10) -0.1005(12)
N7 N 0.8548(10) 0.2088(7) 0.1023(7)
N8 N 0.8678(10) 0.0792(7) 0.2695(7)
N9 N 0.6528(11) 0.1568(7) 0.4350(8)
La1A La 0.35101(6) -0.27218(4) -0.26374(4)
Pt1A Pt -0.06512(4) -0.34911(3) -0.49418(3)
Pt1_2 Pt 0.06512(4) 0.34911(3) 0.49418(3)
Pt1A_2 Pt 0.93488(4) -0.34911(3) -0.49418(3)
O1A O 0.2823(11) -0.4524(6) -0.1978(7)
H1A H 0.2719 -0.5005 -0.2384
H2A H 0.2769 -0.4878 -0.1425
O2A O 0.4895(9) -0.3556(6) -0.1212(6)
H3A H 0.5351 -0.4256 -0.1296
H4A H 0.4865 -0.3244 -0.0652
O3A O 0.4667(9) -0.4403(7) -0.3899(7)
H5A H 0.4077 -0.4834 -0.3787
H6A H 0.5501 -0.4833 -0.3799
C1A C 0.0542(12) -0.3147(8) -0.3953(9)
C2A C -0.1790(14) -0.3832(9) -0.5938(9)
C3A C 0.7460(12) -0.3087(8) -0.3944(8)
C3_2 C 1.2540(12) 0.3087(8) 0.3944(8)
C3A_2 C -0.2540(12) -0.3087(8) -0.3944(8)
C4A C 0.1262(14) -0.3872(9) -0.5913(9)
C5A C 0.4542(13) -0.0609(8) -0.1206(9)
C6A C 0.4917(14) -0.1458(10) 0.0663(9)
C7A C 0.4464(14) -0.1946(11) -0.5142(10)
H9A H 0.5091 -0.2673 -0.5115
C8A C 0.4654(17) -0.1340(12) -0.6029(10)
H10A H 0.5321 -0.1663 -0.6599
C9A C 0.3785(19) -0.0223(14) -0.6008(13)
H11A H 0.3914 0.0244 -0.6557
C10A C 0.2762(17) 0.0177(11) -0.5196(13)
H12A H 0.2197 0.0928 -0.5180
C11A C 0.2538(14) -0.0506(9) -0.4389(10)
C12A C 0.1347(14) -0.0148(9) -0.3516(10)
C13A C 0.0185(16) 0.0815(10) -0.3602(12)
H13A H 0.0191 0.1246 -0.4184
C14A C -0.0975(19) 0.1109(11) -0.2798(15)
H14A H -0.1728 0.1775 -0.2817
C15A C -0.1018(14) 0.0439(11) -0.1993(12)
H15A H -0.1832 0.0612 -0.1473
C16A C 0.0152(13) -0.0513(9) -0.1938(9)
C17A C 0.0196(13) -0.1248(9) -0.1036(10)
C18A C -0.0993(16) -0.1086(14) -0.0223(12)
H16A H -0.1836 -0.0485 -0.0236
C19A C -0.0944(17) -0.1758(15) 0.0551(12)
H17A H -0.1781 -0.1682 0.1050
C20A C 0.0363(16) -0.2585(13) 0.0625(11)
H18A H 0.0462 -0.3023 0.1199
C21A C 0.1482(14) -0.2730(10) -0.0167(10)
H19A H 0.2342 -0.3309 -0.0132
N1A N 0.1294(11) -0.2994(8) -0.3443(8)
N2A N -0.2501(13) -0.4065(8) -0.6499(9)
N3A N 0.6339(10) -0.2872(8) -0.3398(7)
N4A N 0.2363(14) -0.4096(9) -0.6446(10)
N5A N 0.4230(11) -0.1019(8) -0.1873(8)
N6A N 0.4790(16) -0.2311(10) 0.1005(12)
N7A N 0.1452(10) -0.2088(7) -0.1023(7)
N8A N 0.1322(10) -0.0792(7) -0.2695(7)
N9A N 0.3472(11) -0.1568(7) -0.4350(8)
O4 O 0.3699(12) 0.5727(7) 0.1484(7)
H7 H 0.3303 0.5783 0.2102
H8 H 0.4020 0.6315 0.1352
C22 C 0.1692(17) 0.4235(13) 0.0629(13)
C23 C 0.114(2) 0.395(2) 0.1640(12)
H20 H 0.1191 0.4516 0.2099
H21 H 0.1731 0.3221 0.1807
H22 H 0.0114 0.3921 0.1687
N10 N 0.2085(17) 0.4444(11) -0.0146(10)
loop_
_geom_bond_atom_site_label_1
_geom_bond_atom_site_label_2
_geom_bond_site_symmetry_1
_geom_bond_site_symmetry_2
La1 O1 1_555 1_555
Pt1 C1 1_555 1_555
Pt2 C5 1_555 1_555
O1 H1 1_555 1_555
H2 O1 1_555 1_555
O2 La1 1_555 1_555
H3 O2 1_555 1_555
H4 O2 1_555 1_555
O3 La1 1_555 1_555
H5 O3 1_555 1_555
H6 O3 1_555 1_555
O4 H7 1_555 1_555
H8 O4 1_555 1_555
C1 N1 1_555 1_555
C2 Pt1 1_555 1_555
C3 N3 1_555 1_555
C4 Pt1 1_555 1_555
C5 N5 1_555 1_555
C6 Pt2 1_555 1_555
C7 H9 1_555 1_555
C8 C7 1_555 1_555
H10 C8 1_555 1_555
C9 C8 1_555 1_555
H11 C9 1_555 1_555
C10 C9 1_555 1_555
H12 C10 1_555 1_555
C11 C10 1_555 1_555
C12 C11 1_555 1_555
C13 C12 1_555 1_555
H13 C13 1_555 1_555
C14 C13 1_555 1_555
H14 C14 1_555 1_555
C15 C14 1_555 1_555
H15 C15 1_555 1_555
C16 C15 1_555 1_555
C17 C16 1_555 1_555
C18 C17 1_555 1_555
H16 C18 1_555 1_555
C19 C18 1_555 1_555
H17 C19 1_555 1_555
C20 C19 1_555 1_555
H18 C20 1_555 1_555
C21 C20 1_555 1_555
H19 C21 1_555 1_555
C22 C23 1_555 1_555
C23 H20 1_555 1_555
H21 C23 1_555 1_555
H22 C23 1_555 1_555
N1 La1 1_555 1_555
N2 C2 1_555 1_555
N3 La1 1_555 1_555
N4 C4 1_555 1_555
N5 La1 1_555 1_555
N6 C6 1_555 1_555
N7 La1 1_555 1_555
N8 La1 1_555 1_555
N9 La1 1_555 1_555
N10 C22 1_555 1_555
La1A O1A 1_555 1_555
Pt1A C1A 1_555 1_555
Pt1_2 C3 1_555 1_555
Pt1A_2 C3A 1_555 1_555
O1A H1A 1_555 1_555
H2A O1A 1_555 1_555
O2A La1A 1_555 1_555
H3A O2A 1_555 1_555
H4A O2A 1_555 1_555
O3A La1A 1_555 1_555
H5A O3A 1_555 1_555
H6A O3A 1_555 1_555
C1A N1A 1_555 1_555
C2A Pt1A 1_555 1_555
C3A N3A 1_555 1_555
C3_2 Pt1 1_555 1_555
C3A_2 Pt1A 1_555 1_555
C4A Pt1A 1_555 1_555
C5A Pt2 1_555 1_555
C6A Pt2 1_555 1_555
C7A H9A 1_555 1_555
C8A C7A 1_555 1_555
H10A C8A 1_555 1_555
C9A C8A 1_555 1_555
H11A C9A 1_555 1_555
C10A C9A 1_555 1_555
H12A C10A 1_555 1_555
C11A C10A 1_555 1_555
C12A C11A 1_555 1_555
C13A C12A 1_555 1_555
H13A C13A 1_555 1_555
C14A C13A 1_555 1_555
H14A C14A 1_555 1_555
C15A C14A 1_555 1_555
H15A C15A 1_555 1_555
C16A C15A 1_555 1_555
C17A C16A 1_555 1_555
C18A C17A 1_555 1_555
H16A C18A 1_555 1_555
C19A C18A 1_555 1_555
H17A C19A 1_555 1_555
C20A C19A 1_555 1_555
H18A C20A 1_555 1_555
C21A C20A 1_555 1_555
H19A C21A 1_555 1_555
N1A La1A 1_555 1_555
N2A C2A 1_555 1_555
N3A La1A 1_555 1_555
N4A C4A 1_555 1_555
N5A La1A 1_555 1_555
N6A C6A 1_555 1_555
N7A La1A 1_555 1_555
N8A La1A 1_555 1_555
N9A La1A 1_555 1_555
C7 N9 1_555 1_555
C11 N9 1_555 1_555
C12 N8 1_555 1_555
C16 N8 1_555 1_555
C17 N7 1_555 1_555
C21 N7 1_555 1_555
C5A N5A 1_555 1_555
C7A N9A 1_555 1_555
C11A N9A 1_555 1_555
C12A N8A 1_555 1_555
C16A N8A 1_555 1_555
C17A N7A 1_555 1_555
C21A N7A 1_555 1_555

#END
