
#######################################################################
#
#                 Cambridge Crystallographic Data Centre
#                                CCDC 
#
#######################################################################
#
# If this CIF has been generated from an entry in the Cambridge 
# Structural Database, then it will include bibliographic, chemical, 
# crystal, experimental, refinement or atomic coordinate data resulting 
# from the CCDC's data processing and validation procedures.
#
#######################################################################

data_MUQNOC
_symmetry_cell_setting           monoclinic
_symmetry_space_group_name_H-M   'P 21/c'
_symmetry_Int_Tables_number      14
_space_group_name_Hall           '-P 2ybc'
loop_
_symmetry_equiv_pos_site_id
_symmetry_equiv_pos_as_xyz
1 x,y,z
2 -x,1/2+y,1/2-z
3 -x,-y,-z
4 x,1/2-y,1/2+z
_cell_length_a                   17.190(4)
_cell_length_b                   5.504(2)
_cell_length_c                   18.169(4)
_cell_angle_alpha                90
_cell_angle_beta                 105.98(2)
_cell_angle_gamma                90
_cell_volume                     1652.61
loop_
_atom_site_label
_atom_site_type_symbol
_atom_site_fract_x
_atom_site_fract_y
_atom_site_fract_z
Mn1 Mn 0.5000 0.0000 0.0000
Mn2 Mn 1.0000 0.5000 0.5000
O1 O 0.54535(15) -0.3126(5) 0.07469(13)
H1 H 0.5883(15) -0.250(6) 0.1047(16)
H2 H 0.560(2) -0.454(4) 0.0657(19)
O2 O 1.06087(15) 0.1995(5) 0.46161(14)
H3 H 1.078(2) 0.057(5) 0.480(2)
H4 H 1.1016(15) 0.276(5) 0.4570(18)
N1 N 0.42674(16) 0.1110(5) 0.08380(14)
N2 N 0.94394(16) 0.5958(5) 0.37084(13)
O3 O 0.18361(14) 1.0148(4) -0.03868(13)
O4 O 0.10391(13) 0.7695(4) 0.00650(11)
O5 O 0.60053(12) 0.2140(4) 0.06637(11)
O6 O 0.66666(14) -0.0510(4) 0.15380(12)
C1 C 0.4441(2) 0.0247(7) 0.15562(18)
H5 H 0.4890 -0.0755 0.1730
C2 C 0.3981(2) 0.0788(7) 0.20429(19)
H6 H 0.4114 0.0137 0.2534
C3 C 0.3329(2) 0.2280(6) 0.18046(18)
H7 H 0.3012 0.2642 0.2131
C4 C 0.31386(19) 0.3263(6) 0.10717(16)
C5 C 0.36319(19) 0.2562(6) 0.06133(17)
H8 H 0.3505 0.3157 0.0115
C6 C 0.24523(18) 0.4901(6) 0.07761(16)
H9 H 0.1998 0.4677 0.0952
C7 C 0.24276(19) 0.6676(6) 0.02787(17)
H10 H 0.2889 0.6938 0.0117
C8 C 0.1721(2) 0.8285(6) -0.00420(17)
C9 C 0.96177(19) 0.7903(6) 0.33412(17)
H11 H 1.0019 0.8960 0.3607
C10 C 0.9230(2) 0.8400(6) 0.25835(18)
H12 H 0.9381 0.9747 0.2346
C11 C 0.8620(2) 0.6904(6) 0.21810(17)
H13 H 0.8349 0.7241 0.1674
C12 C 0.84187(18) 0.4888(6) 0.25444(15)
C13 C 0.88551(19) 0.4509(6) 0.33015(16)
H14 H 0.8730 0.3135 0.3544
C14 C 0.77823(18) 0.3143(6) 0.21875(16)
H15 H 0.7783 0.1686 0.2447
C15 C 0.72100(18) 0.3406(6) 0.15415(16)
H16 H 0.7193 0.4838 0.1266
C16 C 0.65911(19) 0.1517(6) 0.12345(16)
Mn2_2 Mn 0.0000 -0.5000 -0.5000
Mn2A Mn 0.0000 1.0000 0.0000
Mn2A_2 Mn 1.0000 -1.0000 0.0000
O1B O 0.45465(15) 0.3126(5) -0.07469(13)
H1B H 0.4117(15) 0.250(6) -0.1047(16)
H2B H 0.440(2) 0.454(4) -0.0657(19)
O2B O 0.93913(15) 0.8005(5) 0.53839(14)
H3B H 0.922(2) 0.943(5) 0.520(2)
H4B H 0.8984(15) 0.724(5) 0.5430(18)
N1B N 0.57326(16) -0.1110(5) -0.08380(14)
N2B N 0.05606(16) -0.5958(5) -0.37084(13)
N2B_2 N 1.05606(16) 0.4042(5) 0.62916(13)
O3B O 0.81639(14) -1.0148(4) 0.03868(13)
O4B O 0.89609(13) -0.7695(4) -0.00650(11)
O4A O 0.89609(13) 0.2695(4) 0.49350(11)
O4C O 1.10391(13) 0.7305(4) 0.50650(11)
O5B O 0.39947(12) -0.2140(4) -0.06637(11)
O6B O 0.33334(14) 0.0510(4) -0.15380(12)
C1B C 0.5559(2) -0.0247(7) -0.15562(18)
H5B H 0.5110 0.0755 -0.1730
C2B C 0.6019(2) -0.0788(7) -0.20429(19)
H6B H 0.5886 -0.0137 -0.2534
C3B C 0.6671(2) -0.2280(6) -0.18046(18)
H7B H 0.6988 -0.2642 -0.2131
C4B C 0.68614(19) -0.3263(6) -0.10717(16)
C5B C 0.63681(19) -0.2562(6) -0.06133(17)
H8B H 0.6495 -0.3157 -0.0115
C6B C 0.75477(18) -0.4901(6) -0.07761(16)
H9B H 0.8002 -0.4677 -0.0952
C7B C 0.75724(19) -0.6676(6) -0.02787(17)
H10B H 0.7111 -0.6938 -0.0117
C8B C 0.8279(2) -0.8285(6) 0.00420(17)
C9B C 0.03823(19) -0.7903(6) -0.33412(17)
H11B H -0.0019 -0.8960 -0.3607
C10B C 0.0770(2) -0.8400(6) -0.25835(18)
H12B H 0.0619 -0.9747 -0.2346
C11B C 0.1380(2) -0.6904(6) -0.21810(17)
H13B H 0.1651 -0.7241 -0.1674
C12B C 0.15813(18) -0.4888(6) -0.25444(15)
C13B C 0.11449(19) -0.4509(6) -0.33015(16)
H14B H 0.1270 -0.3135 -0.3544
C14B C 0.22177(18) -0.3143(6) -0.21875(16)
H15B H 0.2217 -0.1686 -0.2447
C15B C 0.27900(18) -0.3406(6) -0.15415(16)
H16B H 0.2807 -0.4838 -0.1266
C16B C 0.34089(19) -0.1517(6) -0.12345(16)
loop_
_geom_bond_atom_site_label_1
_geom_bond_atom_site_label_2
_geom_bond_site_symmetry_1
_geom_bond_site_symmetry_2
Mn1 O1 1_555 1_555
Mn2 O2 1_555 1_555
O1 H1 1_555 1_555
H2 O1 1_555 1_555
O2 H3 1_555 1_555
H4 O2 1_555 1_555
N1 Mn1 1_555 1_555
N2 Mn2 1_555 1_555
O3 C8 1_555 1_555
O4 C8 1_555 1_555
O5 Mn1 1_555 1_555
O6 C16 1_555 1_555
C1 N1 1_555 1_555
H5 C1 1_555 1_555
C2 C1 1_555 1_555
H6 C2 1_555 1_555
C3 C2 1_555 1_555
H7 C3 1_555 1_555
C4 C3 1_555 1_555
C5 N1 1_555 1_555
H8 C5 1_555 1_555
C6 C4 1_555 1_555
H9 C6 1_555 1_555
C7 C6 1_555 1_555
H10 C7 1_555 1_555
C8 C7 1_555 1_555
C9 N2 1_555 1_555
H11 C9 1_555 1_555
C10 C9 1_555 1_555
H12 C10 1_555 1_555
C11 C10 1_555 1_555
H13 C11 1_555 1_555
C12 C11 1_555 1_555
C13 N2 1_555 1_555
H14 C13 1_555 1_555
C14 C12 1_555 1_555
H15 C14 1_555 1_555
C15 C14 1_555 1_555
H16 C15 1_555 1_555
C16 O5 1_555 1_555
Mn2_2 N2B 1_555 1_555
Mn2A O4 1_555 1_555
Mn2A_2 O4B 1_555 1_555
O1B Mn1 1_555 1_555
H1B O1B 1_555 1_555
H2B O1B 1_555 1_555
O2B Mn2 1_555 1_555
H3B O2B 1_555 1_555
H4B O2B 1_555 1_555
N1B Mn1 1_555 1_555
N2B C9B 1_555 1_555
N2B_2 Mn2 1_555 1_555
O3B C8B 1_555 1_555
O4B C8B 1_555 1_555
O4A Mn2 1_555 1_555
O4C Mn2 1_555 1_555
O5B Mn1 1_555 1_555
O6B C16B 1_555 1_555
C1B N1B 1_555 1_555
H5B C1B 1_555 1_555
C2B C1B 1_555 1_555
H6B C2B 1_555 1_555
C3B C2B 1_555 1_555
H7B C3B 1_555 1_555
C4B C3B 1_555 1_555
C5B N1B 1_555 1_555
H8B C5B 1_555 1_555
C6B C4B 1_555 1_555
H9B C6B 1_555 1_555
C7B C6B 1_555 1_555
H10B C7B 1_555 1_555
C8B C7B 1_555 1_555
C9B H11B 1_555 1_555
C10B C9B 1_555 1_555
H12B C10B 1_555 1_555
C11B C10B 1_555 1_555
H13B C11B 1_555 1_555
C12B C11B 1_555 1_555
C13B N2B 1_555 1_555
H14B C13B 1_555 1_555
C14B C12B 1_555 1_555
H15B C14B 1_555 1_555
C15B C14B 1_555 1_555
H16B C15B 1_555 1_555
C16B O5B 1_555 1_555
C4 C5 1_555 1_555
C12 C13 1_555 1_555
C15 C16 1_555 1_555
C4B C5B 1_555 1_555
C12B C13B 1_555 1_555
C15B C16B 1_555 1_555

#END
