
#######################################################################
#
#                 Cambridge Crystallographic Data Centre
#                                CCDC 
#
#######################################################################
#
# If this CIF has been generated from an entry in the Cambridge 
# Structural Database, then it will include bibliographic, chemical, 
# crystal, experimental, refinement or atomic coordinate data resulting 
# from the CCDC's data processing and validation procedures.
#
#######################################################################

data_MUQZII
_symmetry_cell_setting           orthorhombic
_symmetry_space_group_name_H-M   'P b c n'
_symmetry_Int_Tables_number      60
_space_group_name_Hall           '-P 2n 2ab'
loop_
_symmetry_equiv_pos_site_id
_symmetry_equiv_pos_as_xyz
1 x,y,z
2 1/2-x,1/2-y,1/2+z
3 1/2+x,1/2-y,-z
4 -x,y,1/2-z
5 -x,-y,-z
6 1/2+x,1/2+y,1/2-z
7 1/2-x,1/2+y,z
8 x,-y,1/2+z
_cell_length_a                   24.6036(11)
_cell_length_b                   7.0755(3)
_cell_length_c                   14.2518(6)
_cell_angle_alpha                90
_cell_angle_beta                 90
_cell_angle_gamma                90
_cell_volume                     2480.99
loop_
_atom_site_label
_atom_site_type_symbol
_atom_site_fract_x
_atom_site_fract_y
_atom_site_fract_z
Cd1 Cd 0.398301(11) 0.12889(4) 0.56865(2)
C1 C 0.27031(17) 0.1208(6) 0.5221(3)
H1 H 0.2680 0.1147 0.5886
C2 C 0.22265(17) 0.1208(6) 0.4710(3)
H2 H 0.1884 0.1135 0.5017
C3 C 0.22576(15) 0.1318(5) 0.3737(3)
C4 C 0.27664(17) 0.1391(6) 0.3318(3)
H3 H 0.2801 0.1446 0.2655
C5 C 0.32219(17) 0.1383(6) 0.3889(3)
H4 H 0.3569 0.1446 0.3599
C6 C 0.17659(15) 0.1407(5) 0.3150(3)
O1 O 0.42258(17) 0.4179(6) 0.4924(3)
N1 N 0.31992(14) 0.1291(5) 0.4822(3)
N2 N 0.17791(14) 0.2017(6) 0.2262(2)
N3 N 0.12618(13) 0.1959(5) 0.1990(2)
N4 N 0.09541(14) 0.1330(5) 0.2671(2)
N5 N 0.12637(14) 0.0975(5) 0.3422(2)
N6 N 0.47651(14) -0.0887(6) 0.4035(2)
N7 N 0.51225(15) -0.1750(6) 0.3703(3)
Cd2 Cd 0.0000 0.10947(5) 0.2500
O2 O 0.0104(3) -0.1246(9) 0.1409(5)
Cl1 Cl 0.38171(7) -0.1819(2) 0.64753(13)
N8 N 0.4426(2) 0.0015(12) 0.4331(4)
Cd1C Cd -0.398301(11) 0.12889(4) -0.06865(2)
Cd1A Cd 0.101699(11) 0.37111(4) 0.06865(2)
Cd1B Cd -0.101699(11) 0.37111(4) 0.43135(2)
Cd1D Cd 0.601699(11) -0.12889(4) 0.43135(2)
Cd1G Cd -0.601699(11) -0.12889(4) 0.06865(2)
C1C C -0.27031(17) 0.1208(6) -0.0221(3)
H1C H -0.2680 0.1147 -0.0886
C2C C -0.22265(17) 0.1208(6) 0.0290(3)
H2C H -0.1884 0.1135 -0.0017
C3C C -0.22576(15) 0.1318(5) 0.1263(3)
C4C C -0.27664(17) 0.1391(6) 0.1682(3)
H3C H -0.2801 0.1446 0.2345
C5C C -0.32219(17) 0.1383(6) 0.1111(3)
H4C H -0.3569 0.1446 0.1401
C6C C -0.17659(15) 0.1407(5) 0.1850(3)
O1C O -0.42258(17) 0.4179(6) 0.0076(3)
N1C N -0.31992(14) 0.1291(5) 0.0178(3)
N2C N -0.17791(14) 0.2017(6) 0.2738(2)
N3C N -0.12618(13) 0.1959(5) 0.3010(2)
N3A N 0.37382(13) 0.3041(5) 0.6990(2)
N3B N -0.37382(13) 0.3041(5) -0.1990(2)
N4C N -0.09541(14) 0.1330(5) 0.2329(2)
N5C N -0.12637(14) 0.0975(5) 0.1578(2)
N6C N -0.47651(14) -0.0887(6) 0.0965(2)
N7C N -0.51225(15) -0.1750(6) 0.1297(3)
N7D N 0.48775(15) 0.1750(6) 0.6297(3)
N7E N 0.01225(15) 0.3250(6) 0.1297(3)
N7F N -0.01225(15) 0.3250(6) 0.3703(3)
N7G N -0.48775(15) 0.1750(6) -0.1297(3)
Cd2E Cd -0.5000 -0.39053(5) 0.2500
Cd2E_2 Cd 0.5000 -0.39053(5) 0.2500
O2C O -0.0104(3) -0.1246(9) 0.3591(5)
Cl1C Cl -0.38171(7) -0.1819(2) -0.14753(13)
N8C N -0.4426(2) 0.0015(12) 0.0669(4)
loop_
_geom_bond_atom_site_label_1
_geom_bond_atom_site_label_2
_geom_bond_site_symmetry_1
_geom_bond_site_symmetry_2
Cd1 O1 1_555 1_555
C1 H1 1_555 1_555
C2 C1 1_555 1_555
H2 C2 1_555 1_555
C3 C2 1_555 1_555
C4 C3 1_555 1_555
H3 C4 1_555 1_555
C5 C4 1_555 1_555
H4 C5 1_555 1_555
C6 C3 1_555 1_555
N1 Cd1 1_555 1_555
N2 C6 1_555 1_555
N3 N2 1_555 1_555
N4 N3 1_555 1_555
N5 C6 1_555 1_555
N6 N7 1_555 1_555
N7 Cd1D 1_555 1_555
Cd2 N4 1_555 1_555
O2 Cd2 1_555 1_555
Cl1 Cd1 1_555 1_555
N8 Cd1 1_555 1_555
Cd1C O1C 1_555 1_555
Cd1A N3 1_555 1_555
Cd1B N3C 1_555 1_555
Cd1G N7C 1_555 1_555
C1C H1C 1_555 1_555
C2C C1C 1_555 1_555
H2C C2C 1_555 1_555
C3C C2C 1_555 1_555
C4C C3C 1_555 1_555
H3C C4C 1_555 1_555
C5C C4C 1_555 1_555
H4C C5C 1_555 1_555
C6C C3C 1_555 1_555
N1C Cd1C 1_555 1_555
N2C C6C 1_555 1_555
N3C N2C 1_555 1_555
N3A Cd1 1_555 1_555
N3B Cd1C 1_555 1_555
N4C Cd2 1_555 1_555
N5C C6C 1_555 1_555
N6C N7C 1_555 1_555
N7C Cd2E 1_555 1_555
N7D Cd1 1_555 1_555
N7E Cd2 1_555 1_555
N7F Cd2 1_555 1_555
N7G Cd1C 1_555 1_555
Cd2E_2 N7 1_555 1_555
O2C Cd2 1_555 1_555
Cl1C Cd1C 1_555 1_555
N8C Cd1C 1_555 1_555
C1 N1 1_555 1_555
C5 N1 1_555 1_555
N4 N5 1_555 1_555
N6 N8 1_555 1_555
Cd1A N7E 1_555 1_555
Cd1B N7F 1_555 1_555
C1C N1C 1_555 1_555
C5C N1C 1_555 1_555
N3C N4C 1_555 1_555
N4C N5C 1_555 1_555
N6C N8C 1_555 1_555

#END
