
#######################################################################
#
#                 Cambridge Crystallographic Data Centre
#                                CCDC 
#
#######################################################################
#
# If this CIF has been generated from an entry in the Cambridge 
# Structural Database, then it will include bibliographic, chemical, 
# crystal, experimental, refinement or atomic coordinate data resulting 
# from the CCDC's data processing and validation procedures.
#
#######################################################################

data_MURFUB
_symmetry_cell_setting           orthorhombic
_symmetry_space_group_name_H-M   'P b c n'
_symmetry_Int_Tables_number      60
_space_group_name_Hall           '-P 2n 2ab'
loop_
_symmetry_equiv_pos_site_id
_symmetry_equiv_pos_as_xyz
1 x,y,z
2 1/2-x,1/2-y,1/2+z
3 -x,y,1/2-z
4 1/2+x,1/2-y,-z
5 -x,-y,-z
6 1/2+x,1/2+y,1/2-z
7 x,-y,1/2+z
8 1/2-x,1/2+y,z
_cell_length_a                   15.9113(6)
_cell_length_b                   9.3563(4)
_cell_length_c                   15.0497(6)
_cell_angle_alpha                90
_cell_angle_beta                 90
_cell_angle_gamma                90
_cell_volume                     2240.46
loop_
_atom_site_label
_atom_site_type_symbol
_atom_site_fract_x
_atom_site_fract_y
_atom_site_fract_z
Pr1 Pr 0.273730(7) 1.053592(11) 0.850671(7)
S1 S 0.68897(3) 0.67642(5) 0.96906(3)
O1 O 0.40939(10) 0.92932(17) 0.88343(15)
O2 O 0.31172(9) 0.77341(16) 0.85030(10)
O3 O 0.36450(9) 0.49597(17) 0.81946(11)
O4 O 0.66870(10) 0.78651(17) 1.03461(11)
O5 O 0.72593(10) 0.54770(16) 1.00851(12)
O6 O 0.74248(10) 0.73027(19) 0.89861(11)
O7 O 0.36177(12) 1.22281(18) 0.76677(12)
H1 H 0.3834(17) 1.204(3) 0.7187(11)
H2 H 0.3664(18) 1.3062(14) 0.7833(16)
O8 O 0.29426(15) 0.9677(2) 0.69849(12)
H3 H 0.2817(19) 0.8911(17) 0.6763(18)
H4 H 0.308(2) 1.032(2) 0.6642(16)
C1 C 0.38836(13) 0.8011(2) 0.86892(15)
C2 C 0.45196(13) 0.6866(2) 0.87650(14)
C3 C 0.53068(13) 0.7239(2) 0.91103(14)
H5 H 0.5414 0.8188 0.9257
C4 C 0.59250(13) 0.6231(2) 0.92375(14)
C5 C 0.57810(14) 0.4801(2) 0.90158(15)
H6 H 0.6198 0.4119 0.9102
C6 C 0.50164(15) 0.4417(2) 0.86700(17)
H7 H 0.4925 0.3464 0.8522
C7 C 0.43631(14) 0.5409(2) 0.85296(14)
Pr1G Pr 0.226270(7) 0.553592(11) 0.850671(7)
Pr1D Pr 0.726270(7) 0.946408(11) 1.149329(7)
Pr1C Pr 0.773730(7) 0.446408(11) 1.149329(7)
O2G O 0.18828(9) 1.27341(16) 0.85030(10)
O3G O 0.13550(9) 0.99597(17) 0.81946(11)
O4D O 0.33130(10) 1.21349(17) 0.96539(11)
O5C O 0.22593(10) 0.95230(16) 0.99149(12)
O9 O 0.43610(17) 0.1014(3) 0.60678(19)
H8 H 0.4771(18) 0.065(4) 0.632(2)
H9 H 0.430(2) 0.080(4) 0.5538(10)
loop_
_geom_bond_atom_site_label_1
_geom_bond_atom_site_label_2
_geom_bond_site_symmetry_1
_geom_bond_site_symmetry_2
Pr1 O1 1_555 1_555
S1 O4 1_555 1_555
O1 C1 1_555 1_555
O2 Pr1 1_555 1_555
O3 C7 1_555 1_555
O4 Pr1D 1_555 1_555
O5 S1 1_555 1_555
O6 S1 1_555 1_555
O7 Pr1 1_555 1_555
H1 O7 1_555 1_555
H2 O7 1_555 1_555
O8 Pr1 1_555 1_555
H3 O8 1_555 1_555
H4 O8 1_555 1_555
C1 O2 1_555 1_555
C2 C1 1_555 1_555
C3 C2 1_555 1_555
H5 C3 1_555 1_555
C4 S1 1_555 1_555
C5 C4 1_555 1_555
H6 C5 1_555 1_555
C6 C5 1_555 1_555
H7 C6 1_555 1_555
C7 C2 1_555 1_555
O9 H8 1_555 1_555
H9 O9 1_555 1_555
Pr1G O2 1_555 1_555
Pr1C O5 1_555 1_555
O2G Pr1 1_555 1_555
O3G Pr1 1_555 1_555
O4D Pr1 1_555 1_555
O5C Pr1 1_555 1_555
O3 Pr1G 1_555 1_555
C3 C4 1_555 1_555
C6 C7 1_555 1_555

#END
