
#######################################################################
#
#                 Cambridge Crystallographic Data Centre
#                                CCDC 
#
#######################################################################
#
# If this CIF has been generated from an entry in the Cambridge 
# Structural Database, then it will include bibliographic, chemical, 
# crystal, experimental, refinement or atomic coordinate data resulting 
# from the CCDC's data processing and validation procedures.
#
#######################################################################

data_MURLOB
_symmetry_cell_setting           orthorhombic
_symmetry_space_group_name_H-M   'P n m a'
_symmetry_Int_Tables_number      62
_space_group_name_Hall           '-P 2ac 2n'
loop_
_symmetry_equiv_pos_site_id
_symmetry_equiv_pos_as_xyz
1 x,y,z
2 1/2-x,-y,1/2+z
3 -x,1/2+y,-z
4 1/2+x,1/2-y,1/2-z
5 -x,-y,-z
6 1/2+x,y,1/2-z
7 x,1/2-y,z
8 1/2-x,1/2+y,1/2+z
_cell_length_a                   15.876(3)
_cell_length_b                   13.450(3)
_cell_length_c                   9.7460(19)
_cell_angle_alpha                90
_cell_angle_beta                 90
_cell_angle_gamma                90
_cell_volume                     2081.08
loop_
_atom_site_label
_atom_site_type_symbol
_atom_site_fract_x
_atom_site_fract_y
_atom_site_fract_z
Zn1 Zn -0.03905(6) 0.2500 -0.52642(10)
O1 O -0.1976(4) 0.2500 -0.7036(6)
N1 N 0.0761(4) 0.0089(4) -0.7034(6)
C1 C 0.2104(5) -0.0182(6) -0.8140(8)
H1 H 0.2552 -0.0656 -0.8236
H2 H 0.1863 -0.0047 -0.9024
H3 H 0.2322 0.0424 -0.7758
O2 O -0.1586(4) 0.2500 -0.4832(6)
N2 N -0.0043(3) 0.1244(4) -0.6215(5)
C2 C 0.1470(4) -0.0577(5) -0.7250(8)
H4 H 0.1264 -0.1196 -0.7634
H5 H 0.1724 -0.0727 -0.6368
O3 O -0.5012(4) 0.2500 -0.1631(6)
O4 O -0.3652(4) 0.2500 -0.1079(7)
C3 C -0.0015(5) 0.0010(6) -0.7675(8)
H6 H -0.0168 -0.0462 -0.8326
C4 C -0.0508(4) 0.0743(5) -0.7182(8)
H7 H -0.1058 0.0884 -0.7446
C5 C 0.0699(4) 0.0825(5) -0.6180(7)
H8 H 0.1134 0.1032 -0.5608
C6 C -0.2128(6) 0.2500 -0.5811(10)
C7 C -0.3027(5) 0.2500 -0.5246(9)
C8 C -0.3684(5) 0.2500 -0.6224(8)
H9 H -0.3564 0.2500 -0.7158
C9 C -0.4508(5) 0.2500 -0.5771(9)
H10 H -0.4945 0.2500 -0.6407
C10 C -0.4691(5) 0.2500 -0.4395(8)
H11 H -0.5249 0.2500 -0.4105
C11 C -0.4040(5) 0.2500 -0.3428(9)
C12 C -0.3203(5) 0.2500 -0.3917(7)
H12 H -0.2762 0.2500 -0.3288
C13 C -0.4221(6) 0.2500 -0.1922(9)
Zn1C Zn -0.53905(6) 0.2500 0.02642(10)
N1F N 0.0761(4) 0.4911(4) -0.7034(6)
C1F C 0.2104(5) 0.5182(6) -0.8140(8)
H1F H 0.2552 0.5656 -0.8236
H2F H 0.1863 0.5047 -0.9024
H3F H 0.2322 0.4576 -0.7758
N2F N -0.0043(3) 0.3756(4) -0.6215(5)
C2F C 0.1470(4) 0.5577(5) -0.7250(8)
H4F H 0.1264 0.6196 -0.7634
H5F H 0.1724 0.5727 -0.6368
O3C O -0.0012(4) 0.2500 -0.3369(6)
C3F C -0.0015(5) 0.4990(6) -0.7675(8)
H6F H -0.0168 0.5462 -0.8326
C4F C -0.0508(4) 0.4257(5) -0.7182(8)
H7F H -0.1058 0.4116 -0.7446
C5F C 0.0699(4) 0.4175(5) -0.6180(7)
H8F H 0.1134 0.3968 -0.5608
O5 O 0.8009(8) 0.2500 0.0184(11)
H13 H 0.7716 0.1992 -0.0020
H13F H 0.7716 0.3008 -0.0020
loop_
_geom_bond_atom_site_label_1
_geom_bond_atom_site_label_2
_geom_bond_site_symmetry_1
_geom_bond_site_symmetry_2
Zn1 O2 1_555 1_555
O1 C6 1_555 1_555
N1 C2 1_555 1_555
C1 H1 1_555 1_555
H2 C1 1_555 1_555
H3 C1 1_555 1_555
O2 C6 1_555 1_555
N2 Zn1 1_555 1_555
C2 C1 1_555 1_555
H4 C2 1_555 1_555
H5 C2 1_555 1_555
O3 C13 1_555 1_555
O4 C13 1_555 1_555
C3 N1 1_555 1_555
H6 C3 1_555 1_555
C4 N2 1_555 1_555
H7 C4 1_555 1_555
C5 N1 1_555 1_555
H8 C5 1_555 1_555
C6 C7 1_555 1_555
C7 C8 1_555 1_555
C8 H9 1_555 1_555
C9 C8 1_555 1_555
H10 C9 1_555 1_555
C10 C9 1_555 1_555
H11 C10 1_555 1_555
C11 C10 1_555 1_555
C12 C7 1_555 1_555
H12 C12 1_555 1_555
C13 C11 1_555 1_555
O5 H13 1_555 1_555
Zn1C O3 1_555 1_555
N1F C2F 1_555 1_555
C1F H1F 1_555 1_555
H2F C1F 1_555 1_555
H3F C1F 1_555 1_555
N2F Zn1 1_555 1_555
C2F C1F 1_555 1_555
H4F C2F 1_555 1_555
H5F C2F 1_555 1_555
O3C Zn1 1_555 1_555
C3F N1F 1_555 1_555
H6F C3F 1_555 1_555
C4F N2F 1_555 1_555
H7F C4F 1_555 1_555
C5F N1F 1_555 1_555
H8F C5F 1_555 1_555
H13F O5 1_555 1_555
N2 C5 1_555 1_555
C3 C4 1_555 1_555
C11 C12 1_555 1_555
N2F C5F 1_555 1_555
C3F C4F 1_555 1_555

#END
