
#######################################################################
#
#                 Cambridge Crystallographic Data Centre
#                                CCDC 
#
#######################################################################
#
# If this CIF has been generated from an entry in the Cambridge 
# Structural Database, then it will include bibliographic, chemical, 
# crystal, experimental, refinement or atomic coordinate data resulting 
# from the CCDC's data processing and validation procedures.
#
#######################################################################

data_MURREW
_symmetry_cell_setting           orthorhombic
_symmetry_space_group_name_H-M   'P n a 21'
_symmetry_Int_Tables_number      33
_space_group_name_Hall           'P 2c -2n'
loop_
_symmetry_equiv_pos_site_id
_symmetry_equiv_pos_as_xyz
1 x,y,z
2 -x,-y,1/2+z
3 1/2+x,1/2-y,z
4 1/2-x,1/2+y,1/2+z
_cell_length_a                   14.148(7)
_cell_length_b                   9.007(5)
_cell_length_c                   14.649(7)
_cell_angle_alpha                90
_cell_angle_beta                 90
_cell_angle_gamma                90
_cell_volume                     1866.74
loop_
_atom_site_label
_atom_site_type_symbol
_atom_site_fract_x
_atom_site_fract_y
_atom_site_fract_z
Cu1 Cu 0.18399(3) 0.07242(4) 0.75765(3)
Cu2 Cu 0.34112(4) 0.13365(6) 0.63011(5)
O1 O 0.2796(2) 0.0683(3) 0.8543(2)
O2 O 0.4036(2) 0.0905(4) 0.7603(3)
O3 O 0.18094(19) 0.2933(3) 0.7559(3)
O4 O 0.2935(3) 0.3367(4) 0.6522(3)
O5 O 0.0959(2) 0.0691(3) 0.6550(2)
O6 O 0.2173(2) 0.0299(5) 0.5616(2)
N1 N 0.5626(2) -0.0494(4) 1.0482(3)
N2 N 0.1993(2) 0.8469(3) 0.7421(3)
N3 N -0.0696(2) -0.0446(4) 0.3646(2)
C1 C 0.3677(3) 0.0700(4) 0.8363(3)
C2 C 0.4329(3) 0.0366(4) 0.9148(3)
C3 C 0.4044(3) -0.0496(5) 0.9880(3)
H1 H 0.3417 -0.0793 0.9937
C4 C 0.4708(3) -0.0906(5) 1.0526(3)
H2 H 0.4513 -0.1492 1.1014
C5 C 0.5261(3) 0.0825(5) 0.9110(3)
H3 H 0.5469 0.1420 0.8631
C6 C 0.5878(3) 0.0395(5) 0.9785(3)
H4 H 0.6498 0.0735 0.9760
C7 C 0.2320(3) 0.3754(4) 0.7077(3)
C8 C 0.2193(3) 0.5408(4) 0.7185(3)
C9 C 0.1316(3) 0.6031(4) 0.7395(3)
H5 H 0.0785 0.5433 0.7467
C10 C 0.1249(3) 0.7555(4) 0.7492(4)
H6 H 0.0659 0.7965 0.7613
C11 C 0.2945(3) 0.6356(5) 0.7067(4)
H7 H 0.3533 0.5980 0.6901
C12 C 0.2829(3) 0.7859(5) 0.7193(4)
H8 H 0.3349 0.8478 0.7117
C13 C 0.1315(3) 0.0396(5) 0.5785(3)
C14 C 0.0621(3) 0.0095(4) 0.5023(3)
C15 C -0.0332(3) 0.0304(6) 0.5179(3)
H9 H -0.0548 0.0624 0.5746
C16 C -0.0964(3) 0.0026(6) 0.4470(3)
H10 H -0.1605 0.0178 0.4575
C17 C 0.0907(3) -0.0374(5) 0.4167(3)
H11 H 0.1546 -0.0504 0.4038
C18 C 0.0228(3) -0.0647(5) 0.3503(3)
H12 H 0.0425 -0.0984 0.2934
N2_2 N 0.1993(2) -0.1531(3) 0.7421(3)
N3A N 0.0696(2) 0.0446(4) 0.8646(2)
N1A N 0.4374(2) 0.0494(4) 0.5482(3)
Cu2A Cu 0.65888(4) -0.13365(6) 1.13011(5)
Cu1_2 Cu 0.18399(3) 1.07242(4) 0.75765(3)
Cu1A Cu -0.18399(3) -0.07242(4) 0.25765(3)
loop_
_geom_bond_atom_site_label_1
_geom_bond_atom_site_label_2
_geom_bond_site_symmetry_1
_geom_bond_site_symmetry_2
Cu1 O1 1_555 1_555
Cu2 O2 1_555 1_555
O1 C1 1_555 1_555
O2 C1 1_555 1_555
O3 Cu1 1_555 1_555
O4 Cu2 1_555 1_555
O5 Cu1 1_555 1_555
O6 Cu2 1_555 1_555
N1 C4 1_555 1_555
N2 C10 1_555 1_555
N3 C16 1_555 1_555
C1 C2 1_555 1_555
C2 C3 1_555 1_555
C3 H1 1_555 1_555
C4 C3 1_555 1_555
H2 C4 1_555 1_555
C5 C2 1_555 1_555
H3 C5 1_555 1_555
C6 N1 1_555 1_555
H4 C6 1_555 1_555
C7 O3 1_555 1_555
C8 C7 1_555 1_555
C9 C8 1_555 1_555
H5 C9 1_555 1_555
C10 C9 1_555 1_555
H6 C10 1_555 1_555
C11 C8 1_555 1_555
H7 C11 1_555 1_555
C12 N2 1_555 1_555
H8 C12 1_555 1_555
C13 O5 1_555 1_555
C14 C13 1_555 1_555
C15 C14 1_555 1_555
H9 C15 1_555 1_555
C16 C15 1_555 1_555
H10 C16 1_555 1_555
C17 C14 1_555 1_555
H11 C17 1_555 1_555
C18 N3 1_555 1_555
H12 C18 1_555 1_555
N2_2 Cu1 1_555 1_555
N3A Cu1 1_555 1_555
N1A Cu2 1_555 1_555
Cu2A N1 1_555 1_555
Cu1_2 N2 1_555 1_555
Cu1A N3 1_555 1_555
O4 C7 1_555 1_555
O6 C13 1_555 1_555
C5 C6 1_555 1_555
C11 C12 1_555 1_555
C17 C18 1_555 1_555

#END
