
#######################################################################
#
#                 Cambridge Crystallographic Data Centre
#                                CCDC 
#
#######################################################################
#
# If this CIF has been generated from an entry in the Cambridge 
# Structural Database, then it will include bibliographic, chemical, 
# crystal, experimental, refinement or atomic coordinate data resulting 
# from the CCDC's data processing and validation procedures.
#
#######################################################################

data_MURVOL
_symmetry_cell_setting           monoclinic
_symmetry_space_group_name_H-M   'C 2/c'
_symmetry_Int_Tables_number      15
_space_group_name_Hall           '-C 2yn'
loop_
_symmetry_equiv_pos_site_id
_symmetry_equiv_pos_as_xyz
1 x,y,z
2 -x,y,1/2-z
3 1/2+x,1/2+y,z
4 1/2-x,1/2+y,1/2-z
5 -x,-y,-z
6 x,-y,1/2+z
7 1/2-x,1/2-y,-z
8 1/2+x,1/2-y,1/2+z
_cell_length_a                   32.0202(4)
_cell_length_b                   10.2890(1)
_cell_length_c                   21.6733(3)
_cell_angle_alpha                90
_cell_angle_beta                 127.929(1)
_cell_angle_gamma                90
_cell_volume                     5632.15
loop_
_atom_site_label
_atom_site_type_symbol
_atom_site_fract_x
_atom_site_fract_y
_atom_site_fract_z
Ni1 Ni 0.375088(13) 0.37563(3) 0.49948(2)
O2 O 0.40984(7) 0.55877(17) 0.53222(11)
H3 H 0.4157(10) 0.574(2) 0.5766(11)
H4 H 0.4005(10) 0.6304(19) 0.5061(13)
O4 O 0.34252(7) 0.18957(17) 0.46939(11)
H7 H 0.3402(10) 0.171(2) 0.4279(11)
H8 H 0.3511(10) 0.1141(18) 0.4943(13)
O5 O 0.34428(7) 0.40693(16) 0.38510(10)
O6 O 0.34321(8) 0.20308(18) 0.34769(11)
O7 O 0.40381(7) 0.65777(17) 0.11316(10)
O8 O 0.42475(9) 0.4584(2) 0.16443(12)
N1 N 0.30313(8) 0.44427(19) 0.47106(12)
N2 N 0.13975(8) 0.5582(2) 0.45463(12)
N3 N 0.10632(8) 0.6930(2) 0.53515(12)
N4 N -0.05463(8) 0.8068(2) 0.52523(12)
C1 C 0.31747(11) 0.4981(3) 0.23808(15)
C2 C 0.36461(11) 0.5100(3) 0.24839(15)
H9 H 0.3873 0.4366 0.2657
C3 C 0.37962(11) 0.6260(3) 0.23408(15)
C4 C 0.34626(12) 0.7325(3) 0.20995(16)
H10 H 0.3558 0.8132 0.2004
C5 C 0.29913(12) 0.7219(3) 0.19966(17)
H11 H 0.2764 0.7951 0.1826
C6 C 0.28510(12) 0.6061(3) 0.21401(16)
H12 H 0.2529 0.6001 0.2074
C7 C 0.30213(12) 0.3684(3) 0.25063(16)
H13 H 0.3059 0.3023 0.2211
H14 H 0.2642 0.3721 0.2275
C8 C 0.33302(10) 0.3218(3) 0.33475(16)
C9 C 0.42931(12) 0.6331(3) 0.24091(16)
H15 H 0.4578 0.5827 0.2871
H16 H 0.4411 0.7246 0.2483
C10 C 0.41908(11) 0.5782(3) 0.16726(17)
C11 C 0.27089(10) 0.5211(2) 0.40907(16)
H17 H 0.2825 0.5504 0.3803
C12 C 0.22170(11) 0.5597(2) 0.38487(16)
H18 H 0.2003 0.6145 0.3405
C13 C 0.20346(10) 0.5184(2) 0.42554(16)
C14 C 0.23664(10) 0.4380(3) 0.48946(16)
H19 H 0.2260 0.4069 0.5192
C15 C 0.28521(11) 0.4035(2) 0.50957(16)
H20 H 0.3072 0.3476 0.5532
C16 C 0.14836(11) 0.5572(3) 0.39558(16)
H21 H 0.1408 0.6451 0.3724
H22 H 0.1227 0.4965 0.3533
C17 C 0.17282(10) 0.6579(3) 0.51430(16)
H23 H 0.1651 0.7438 0.4888
H24 H 0.2107 0.6380 0.5414
C18 C 0.16213(10) 0.6625(3) 0.57343(15)
H25 H 0.1711 0.5774 0.6002
H26 H 0.1849 0.7294 0.6134
C19 C 0.08427(10) 0.5907(3) 0.41646(16)
H27 H 0.0611 0.5251 0.3757
H28 H 0.0760 0.6764 0.3906
C20 C 0.07296(10) 0.5946(3) 0.47458(15)
H29 H 0.0352 0.6156 0.4471
H30 H 0.0801 0.5082 0.4993
C21 C 0.09841(10) 0.6924(3) 0.59538(16)
H31 H 0.1237 0.7543 0.6372
H32 H 0.1070 0.6047 0.6191
C22 C -0.02414(10) 0.7188(2) 0.58176(15)
H33 H -0.0363 0.6846 0.6089
C23 C 0.02368(10) 0.6753(2) 0.60275(15)
H34 H 0.0430 0.6102 0.6418
C24 C 0.04334(10) 0.7277(3) 0.56606(15)
C25 C 0.01154(10) 0.8178(3) 0.50653(16)
H35 H 0.0228 0.8545 0.4788
C26 C -0.03630(11) 0.8531(3) 0.48832(16)
H36 H -0.0575 0.9138 0.4472
Ni1B Ni -0.124912(13) 0.87563(3) 0.49948(2)
Ni1E Ni 0.375088(13) 0.62437(3) -0.00052(2)
O7E O 0.40381(7) 0.34223(17) 0.61316(10)
N4B N 0.44537(8) 0.3068(2) 0.52523(12)
O1 O 0.40438(11) 0.1007(2) 0.29829(17)
H1 H 0.3886(12) 0.134(3) 0.316(2)
H2 H 0.4277(12) 0.155(3) 0.308(2)
O3 O 0.46841(12) 0.2956(3) 0.29162(19)
H5 H 0.4571(15) 0.355(3) 0.2552(18)
H6 H 0.4591(18) 0.221(2) 0.271(2)
loop_
_geom_bond_atom_site_label_1
_geom_bond_atom_site_label_2
_geom_bond_site_symmetry_1
_geom_bond_site_symmetry_2
Ni1 O2 1_555 1_555
O1 H1 1_555 1_555
H2 O1 1_555 1_555
O2 H3 1_555 1_555
H4 O2 1_555 1_555
O3 H5 1_555 1_555
H6 O3 1_555 1_555
O4 Ni1 1_555 1_555
H7 O4 1_555 1_555
H8 O4 1_555 1_555
O5 Ni1 1_555 1_555
O6 C8 1_555 1_555
O7 C10 1_555 1_555
O8 C10 1_555 1_555
N1 Ni1 1_555 1_555
N2 C16 1_555 1_555
N3 C18 1_555 1_555
N4 C22 1_555 1_555
C1 C2 1_555 1_555
C2 H9 1_555 1_555
C3 C2 1_555 1_555
C4 C3 1_555 1_555
H10 C4 1_555 1_555
C5 C4 1_555 1_555
H11 C5 1_555 1_555
C6 C1 1_555 1_555
H12 C6 1_555 1_555
C7 C1 1_555 1_555
H13 C7 1_555 1_555
H14 C7 1_555 1_555
C8 O5 1_555 1_555
C9 C3 1_555 1_555
H15 C9 1_555 1_555
H16 C9 1_555 1_555
C10 C9 1_555 1_555
C11 N1 1_555 1_555
H17 C11 1_555 1_555
C12 C11 1_555 1_555
H18 C12 1_555 1_555
C13 C12 1_555 1_555
C14 C13 1_555 1_555
H19 C14 1_555 1_555
C15 N1 1_555 1_555
H20 C15 1_555 1_555
C16 C13 1_555 1_555
H21 C16 1_555 1_555
H22 C16 1_555 1_555
C17 N2 1_555 1_555
H23 C17 1_555 1_555
H24 C17 1_555 1_555
C18 C17 1_555 1_555
H25 C18 1_555 1_555
H26 C18 1_555 1_555
C19 N2 1_555 1_555
H27 C19 1_555 1_555
H28 C19 1_555 1_555
C20 N3 1_555 1_555
H29 C20 1_555 1_555
H30 C20 1_555 1_555
C21 N3 1_555 1_555
H31 C21 1_555 1_555
H32 C21 1_555 1_555
C22 H33 1_555 1_555
C23 C22 1_555 1_555
H34 C23 1_555 1_555
C24 C21 1_555 1_555
C25 C24 1_555 1_555
H35 C25 1_555 1_555
C26 N4 1_555 1_555
H36 C26 1_555 1_555
Ni1B N4 1_555 1_555
Ni1E O7 1_555 1_555
O7E Ni1 1_555 1_555
N4B Ni1 1_555 1_555
C5 C6 1_555 1_555
C7 C8 1_555 1_555
C14 C15 1_555 1_555
C19 C20 1_555 1_555
C23 C24 1_555 1_555
C25 C26 1_555 1_555

#END
