
#######################################################################
#
#                 Cambridge Crystallographic Data Centre
#                                CCDC 
#
#######################################################################
#
# If this CIF has been generated from an entry in the Cambridge 
# Structural Database, then it will include bibliographic, chemical, 
# crystal, experimental, refinement or atomic coordinate data resulting 
# from the CCDC's data processing and validation procedures.
#
#######################################################################

data_MUSGUC
_symmetry_cell_setting           monoclinic
_symmetry_space_group_name_H-M   'P 21/c'
_symmetry_Int_Tables_number      14
_space_group_name_Hall           '-P 2ybc'
loop_
_symmetry_equiv_pos_site_id
_symmetry_equiv_pos_as_xyz
1 x,y,z
2 x,1/2-y,1/2+z
3 -x,-y,-z
4 -x,1/2+y,1/2-z
_cell_length_a                   5.8097(12)
_cell_length_b                   11.099(2)
_cell_length_c                   18.490(4)
_cell_angle_alpha                90
_cell_angle_beta                 94.94(3)
_cell_angle_gamma                90
_cell_volume                     1187.84
loop_
_atom_site_label
_atom_site_type_symbol
_atom_site_fract_x
_atom_site_fract_y
_atom_site_fract_z
Cu1 Cu 0.58471(9) 0.45849(6) 0.43135(3)
S1 S 0.33694(17) 0.62150(10) 0.43753(6)
N1 N 0.0647(6) -0.0459(4) 0.3008(2)
C1 C -0.1039(9) -0.1198(5) 0.3142(3)
H1 H -0.1283 -0.1867 0.2843
C2 C -0.2482(9) -0.1051(5) 0.3699(3)
H2 H -0.3643 -0.1605 0.3768
C3 C -0.2147(7) -0.0077(4) 0.4138(3)
H3 H -0.3091 0.0048 0.4512
C4 C 0.0106(7) 0.1783(4) 0.4466(2)
H4 H -0.0806 0.1939 0.4844
C5 C 0.1832(7) 0.2543(4) 0.4349(2)
H5 H 0.2103 0.3209 0.4650
N2 N 0.5020(5) 0.3134(3) 0.36730(17)
C6 C 0.6300(7) 0.2933(4) 0.3122(2)
H6 H 0.7505 0.3463 0.3057
C7 C 0.5947(7) 0.1985(4) 0.2640(2)
H7 H 0.6882 0.1896 0.2260
C8 C 0.4227(7) 0.1185(4) 0.2726(2)
H8 H 0.3972 0.0542 0.2406
C9 C 0.2829(7) 0.1342(4) 0.3306(2)
C10 C 0.0995(7) 0.0517(4) 0.3448(2)
C11 C -0.0373(7) 0.0740(4) 0.4026(2)
C12 C 0.3266(6) 0.2340(3) 0.3765(2)
C13 C 0.0698(7) 0.5676(3) 0.4221(2)
N3 N -0.1148(6) 0.5300(3) 0.41233(19)
S1B S 0.66306(17) 0.37850(10) 0.56247(6)
N3_2 N 0.8852(6) 0.5300(3) 0.41233(19)
Cu1B Cu 0.41529(9) 0.54151(6) 0.56865(3)
Cu1_2 Cu -0.41529(9) 0.45849(6) 0.43135(3)
loop_
_geom_bond_atom_site_label_1
_geom_bond_atom_site_label_2
_geom_bond_site_symmetry_1
_geom_bond_site_symmetry_2
Cu1 S1 1_555 1_555
S1 C13 1_555 1_555
N1 C1 1_555 1_555
C1 H1 1_555 1_555
C2 C1 1_555 1_555
H2 C2 1_555 1_555
C3 C2 1_555 1_555
H3 C3 1_555 1_555
C4 H4 1_555 1_555
C5 C4 1_555 1_555
H5 C5 1_555 1_555
N2 Cu1 1_555 1_555
C6 N2 1_555 1_555
H6 C6 1_555 1_555
C7 C6 1_555 1_555
H7 C7 1_555 1_555
C8 C7 1_555 1_555
H8 C8 1_555 1_555
C9 C8 1_555 1_555
C10 N1 1_555 1_555
C11 C3 1_555 1_555
C12 C5 1_555 1_555
C13 N3 1_555 1_555
N3 Cu1_2 1_555 1_555
S1B Cu1 1_555 1_555
N3_2 Cu1 1_555 1_555
Cu1B S1 1_555 1_555
C4 C11 1_555 1_555
N2 C12 1_555 1_555
C9 C10 1_555 1_555
C9 C12 1_555 1_555
C10 C11 1_555 1_555
S1B Cu1B 1_555 1_555

#END
