
#######################################################################
#
#                 Cambridge Crystallographic Data Centre
#                                CCDC 
#
#######################################################################
#
# If this CIF has been generated from an entry in the Cambridge 
# Structural Database, then it will include bibliographic, chemical, 
# crystal, experimental, refinement or atomic coordinate data resulting 
# from the CCDC's data processing and validation procedures.
#
#######################################################################

data_MUSMAP
_symmetry_cell_setting           orthorhombic
_symmetry_space_group_name_H-M   'P 21 21 21'
_symmetry_Int_Tables_number      19
_space_group_name_Hall           'P 2ac 2ab'
loop_
_symmetry_equiv_pos_site_id
_symmetry_equiv_pos_as_xyz
1 x,y,z
2 1/2-x,-y,1/2+z
3 -x,1/2+y,1/2-z
4 1/2+x,1/2-y,-z
_cell_length_a                   10.4584(12)
_cell_length_b                   12.7138(15)
_cell_length_c                   14.6054(17)
_cell_angle_alpha                90
_cell_angle_beta                 90
_cell_angle_gamma                90
_cell_volume                     1942.02
loop_
_atom_site_label
_atom_site_type_symbol
_atom_site_fract_x
_atom_site_fract_y
_atom_site_fract_z
Cu1 Cu 0.49883(8) 0.03232(5) 1.10577(4)
O1 O 0.7422(4) -0.0093(3) 1.0882(3)
O2 O 0.6149(4) 0.0115(3) 1.2083(3)
O3 O 0.1981(7) 0.1669(5) 1.2802(4)
O4 O 0.1452(6) 0.1063(5) 1.1525(4)
O5 O 0.3166(5) 0.0515(5) 1.2141(4)
N1 N 0.9927(6) -0.1870(3) 1.6010(3)
N2 N 1.0446(4) 0.1190(4) 1.5871(3)
N3 N 1.0911(4) -0.0483(4) 1.4836(3)
N4 N 0.2218(5) 0.1092(4) 1.2161(4)
C1 C 1.1450(6) -0.1568(5) 1.4797(4)
H2 H 1.2322 -0.1572 1.5060
H3 H 1.1505 -0.1803 1.4152
C2 C 1.0609(5) -0.2302(5) 1.5327(4)
C3 C 1.0583(6) -0.3385(5) 1.5152(5)
H4 H 1.1059 -0.3679 1.4661
C4 C 0.9833(7) -0.4021(5) 1.5724(4)
H5 H 0.9782 -0.4756 1.5615
C5 C 0.9171(6) -0.3579(5) 1.6441(4)
H6 H 0.8700 -0.4008 1.6853
C6 C 0.9205(6) -0.2500(5) 1.6551(4)
H7 H 0.8705 -0.2189 1.7021
C7 C 1.1922(5) 0.0360(5) 1.4850(4)
H8 H 1.2647 0.0140 1.5242
H9 H 1.2247 0.0486 1.4223
C8 C 1.1323(5) 0.1341(5) 1.5223(4)
C9 C 1.1662(6) 0.2353(5) 1.4955(4)
H10 H 1.2270 0.2453 1.4480
C10 C 1.1122(6) 0.3204(5) 1.5376(4)
H11 H 1.1356 0.3897 1.5200
C11 C 1.0236(5) 0.3042(4) 1.6057(4)
H12 H 0.9858 0.3622 1.6364
C12 C 0.9903(7) 0.2032(4) 1.6287(3)
H13 H 0.9278 0.1920 1.6749
C13 C 1.0015(7) -0.0277(4) 1.4052(3)
H14 H 1.0503 -0.0323 1.3473
H15 H 0.9685 0.0450 1.4106
C14 C 0.8896(5) -0.1023(5) 1.4001(4)
H16 H 0.8511 -0.1100 1.4617
H17 H 0.9198 -0.1724 1.3801
C15 C 0.7874(6) -0.0617(6) 1.3326(4)
H18 H 0.7148 -0.1117 1.3328
H19 H 0.7550 0.0066 1.3555
C16 C 0.8303(6) -0.0470(5) 1.2354(4)
H20 H 0.8656 -0.1144 1.2128
H21 H 0.9003 0.0054 1.2344
C17 C 0.7254(5) -0.0108(5) 1.1699(4)
Cu1A Cu 1.00117(8) -0.03232(5) 1.60577(4)
N1A N 0.5073(6) 0.1870(3) 1.1010(3)
N2A N 0.4554(4) -0.1190(4) 1.0871(3)
N3A N 0.4089(4) 0.0483(4) 0.9836(3)
O6 O 0.9104(6) 0.2267(5) 0.2236(4)
H1 H 0.9861 0.2047 0.2226
C18 C 0.8825(8) 0.2649(8) 0.3097(6)
H22 H 0.9623 0.2808 0.3422
H23 H 0.8343 0.2119 0.3440
H24 H 0.8313 0.3291 0.3042
loop_
_geom_bond_atom_site_label_1
_geom_bond_atom_site_label_2
_geom_bond_site_symmetry_1
_geom_bond_site_symmetry_2
Cu1 O2 1_555 1_555
O1 C17 1_555 1_555
O2 C17 1_555 1_555
O3 N4 1_555 1_555
O4 N4 1_555 1_555
O5 Cu1 1_555 1_555
O6 H1 1_555 1_555
N1 C2 1_555 1_555
N2 C8 1_555 1_555
N3 C1 1_555 1_555
N4 O5 1_555 1_555
C1 H2 1_555 1_555
H3 C1 1_555 1_555
C2 C1 1_555 1_555
C3 C2 1_555 1_555
H4 C3 1_555 1_555
C4 C3 1_555 1_555
H5 C4 1_555 1_555
C5 C4 1_555 1_555
H6 C5 1_555 1_555
C6 N1 1_555 1_555
H7 C6 1_555 1_555
C7 N3 1_555 1_555
H8 C7 1_555 1_555
H9 C7 1_555 1_555
C8 C7 1_555 1_555
C9 C8 1_555 1_555
H10 C9 1_555 1_555
C10 C9 1_555 1_555
H11 C10 1_555 1_555
C11 C10 1_555 1_555
H12 C11 1_555 1_555
C12 N2 1_555 1_555
H13 C12 1_555 1_555
C13 N3 1_555 1_555
H14 C13 1_555 1_555
H15 C13 1_555 1_555
C14 C13 1_555 1_555
H16 C14 1_555 1_555
H17 C14 1_555 1_555
C15 C14 1_555 1_555
H18 C15 1_555 1_555
H19 C15 1_555 1_555
C16 C15 1_555 1_555
H20 C16 1_555 1_555
H21 C16 1_555 1_555
C17 C16 1_555 1_555
C18 O6 1_555 1_555
H22 C18 1_555 1_555
H23 C18 1_555 1_555
H24 C18 1_555 1_555
Cu1A N1 1_555 1_555
N1A Cu1 1_555 1_555
N2A Cu1 1_555 1_555
N3A Cu1 1_555 1_555
N2 Cu1A 1_555 1_555
N3 Cu1A 1_555 1_555
C5 C6 1_555 1_555
C11 C12 1_555 1_555

#END
