
#######################################################################
#
#                 Cambridge Crystallographic Data Centre
#                                CCDC 
#
#######################################################################
#
# If this CIF has been generated from an entry in the Cambridge 
# Structural Database, then it will include bibliographic, chemical, 
# crystal, experimental, refinement or atomic coordinate data resulting 
# from the CCDC's data processing and validation procedures.
#
#######################################################################

data_MUSMET
_symmetry_cell_setting           trigonal
_symmetry_space_group_name_H-M   'P -3'
_symmetry_Int_Tables_number      147
_space_group_name_Hall           '-P 3'
loop_
_symmetry_equiv_pos_site_id
_symmetry_equiv_pos_as_xyz
1 x,y,z
2 -y,x-y,z
3 -x+y,-x,z
4 -x,-y,-z
5 y,-x+y,-z
6 x-y,x,-z
_cell_length_a                   18.8293(10)
_cell_length_b                   18.8293(10)
_cell_length_c                   9.0789(10)
_cell_angle_alpha                90
_cell_angle_beta                 90
_cell_angle_gamma                120
_cell_volume                     2787.61
loop_
_atom_site_label
_atom_site_type_symbol
_atom_site_fract_x
_atom_site_fract_y
_atom_site_fract_z
Cd1 Cd 0.55634(2) 0.11819(2) 0.55212(4)
S1 S 0.6667 0.3333 0.4528(2)
O1 O 0.4525(2) -0.0210(2) 0.6367(4)
O2 O 0.3423(2) -0.0828(2) 0.4959(4)
O3 O 0.6480(3) 0.2531(2) 0.5114(6)
O4 O 0.6667 0.3333 0.2983(11)
N1 N 0.6048(3) 0.1358(2) 0.7979(5)
N2 N 0.4713(3) 0.1511(2) 0.7050(5)
N3 N 0.4578(3) 0.1239(3) 0.4013(5)
C1 C 0.5285(3) 0.2078(3) 0.8165(5)
H1 H 0.4967 0.2164 0.8943
H2 H 0.5649 0.2615 0.7696
C2 C 0.5804(3) 0.1763(3) 0.8862(6)
C3 C 0.6055(3) 0.1931(3) 1.0330(6)
H3 H 0.5884 0.2231 1.0931
C4 C 0.6556(3) 0.1656(3) 1.0899(6)
H4 H 0.6730 0.1761 1.1897
C5 C 0.6800(3) 0.1225(3) 0.9990(6)
H5 H 0.7138 0.1023 1.0353
C6 C 0.6537(3) 0.1097(3) 0.8540(6)
H6 H 0.6712 0.0811 0.7911
C7 C 0.4401(3) 0.1933(3) 0.6120(5)
H7 H 0.4829 0.2518 0.6030
H8 H 0.3919 0.1909 0.6606
C8 C 0.4157(3) 0.1567(3) 0.4599(5)
C9 C 0.3532(4) 0.1596(3) 0.3837(6)
H9 H 0.3244 0.1837 0.4272
C10 C 0.3335(4) 0.1266(4) 0.2432(6)
H10 H 0.2910 0.1279 0.1889
C11 C 0.3763(4) 0.0917(4) 0.1831(6)
H11 H 0.3633 0.0681 0.0875
C12 C 0.4385(3) 0.0919(3) 0.2645(6)
H12 H 0.4686 0.0687 0.2227
C13 C 0.4037(3) 0.0790(3) 0.7802(5)
H13 H 0.3712 0.0975 0.8378
H14 H 0.4277 0.0567 0.8506
C14 C 0.3464(3) 0.0108(3) 0.6781(5)
H15 H 0.3254 0.0343 0.6040
H16 H 0.2989 -0.0297 0.7364
C15 C 0.3823(3) -0.0343(3) 0.5974(5)
Cd1C Cd 0.44366(2) -0.11819(2) 0.44788(4)
Cd1A Cd 0.88181(2) 0.43815(3) 0.55212(4)
Cd1B Cd 0.56185(3) 0.44366(2) 0.55212(4)
Cd1D Cd 1.11819(2) 0.56185(3) 0.44788(4)
O1C O 0.5475(2) 0.0210(2) 0.3633(4)
O1A O 1.0210(2) 0.4735(3) 0.6367(4)
O1D O 0.9790(2) 0.5265(3) 0.3633(4)
O2C O 0.6577(2) 0.0828(2) 0.5041(4)
O2A O 1.0828(2) 0.4251(3) 0.4959(4)
O2D O 0.9172(2) 0.5749(3) 0.5041(4)
O3A O 0.7469(2) 0.3949(4) 0.5114(6)
O3B O 0.6051(4) 0.3520(3) 0.5114(6)
O3C O 0.3520(3) -0.2531(2) 0.4886(6)
N1C N 0.3952(3) -0.1358(2) 0.2021(5)
N1A N 0.8642(2) 0.4690(4) 0.7979(5)
N2C N 0.5287(3) -0.1511(2) 0.2950(5)
N2A N 0.8489(2) 0.3202(4) 0.7050(5)
N3C N 0.5422(3) -0.1239(3) 0.5987(5)
N3A N 0.8761(3) 0.3339(4) 0.4013(5)
C1C C 0.4715(3) -0.2078(3) 0.1835(5)
C1A C 0.7922(3) 0.3207(4) 0.8165(5)
H1C H 0.5033 -0.2164 0.1057
H1A H 0.7836 0.2803 0.8943
H2C H 0.4351 -0.2615 0.2304
H2A H 0.7385 0.3034 0.7696
C2C C 0.4196(3) -0.1763(3) 0.1138(6)
C2A C 0.8237(3) 0.4041(4) 0.8862(6)
C3C C 0.3945(3) -0.1931(3) -0.0330(6)
C3A C 0.8069(3) 0.4124(4) 1.0330(6)
H3C H 0.4116 -0.2231 -0.0931
H3A H 0.7769 0.3653 1.0931
C4C C 0.3444(3) -0.1656(3) -0.0899(6)
C4A C 0.8344(3) 0.4900(4) 1.0899(6)
H4C H 0.3270 -0.1761 -0.1897
H4A H 0.8239 0.4969 1.1897
C5C C 0.3200(3) -0.1225(3) 0.0010(6)
C5A C 0.8775(3) 0.5575(4) 0.9990(6)
H5C H 0.2862 -0.1023 -0.0353
H5A H 0.8977 0.6115 1.0353
C6C C 0.3463(3) -0.1097(3) 0.1460(6)
C6A C 0.8903(3) 0.5440(4) 0.8540(6)
H6C H 0.3288 -0.0811 0.2089
H6A H 0.9189 0.5901 0.7911
C7C C 0.5599(3) -0.1933(3) 0.3880(5)
C7A C 0.8067(3) 0.2468(4) 0.6120(5)
H7C H 0.5171 -0.2518 0.3970
H7A H 0.7482 0.2311 0.6030
H8C H 0.6081 -0.1909 0.3394
H8A H 0.8091 0.2010 0.6606
C8C C 0.5843(3) -0.1567(3) 0.5401(5)
C8A C 0.8433(3) 0.2590(4) 0.4599(5)
C9C C 0.6468(4) -0.1596(3) 0.6163(6)
C9A C 0.8404(3) 0.1936(5) 0.3837(6)
H9C H 0.6756 -0.1837 0.5728
H9A H 0.8163 0.1407 0.4272
C10C C 0.6665(4) -0.1266(4) 0.7568(6)
C10A C 0.8734(4) 0.2069(6) 0.2432(6)
H10C H 0.7090 -0.1279 0.8111
H10A H 0.8721 0.1631 0.1889
C11C C 0.6237(4) -0.0917(4) 0.8169(6)
C11A C 0.9083(4) 0.2846(6) 0.1831(6)
H11C H 0.6367 -0.0681 0.9125
H11A H 0.9319 0.2952 0.0875
C12C C 0.5615(3) -0.0919(3) 0.7355(6)
C12A C 0.9081(3) 0.3466(4) 0.2645(6)
H12C H 0.5314 -0.0687 0.7773
H12A H 0.9313 0.3999 0.2227
C13C C 0.5963(3) -0.0790(3) 0.2198(5)
C13A C 0.9210(3) 0.3247(4) 0.7802(5)
H13C H 0.6288 -0.0975 0.1622
H13A H 0.9025 0.2737 0.8378
H14C H 0.5723 -0.0567 0.1494
H14A H 0.9433 0.3710 0.8506
C14C C 0.6536(3) -0.0108(3) 0.3219(5)
C14A C 0.9892(3) 0.3356(4) 0.6781(5)
H15C H 0.6746 -0.0343 0.3960
H15A H 0.9657 0.2911 0.6040
H16C H 0.7011 0.0297 0.2636
H16A H 1.0297 0.3286 0.7364
C15C C 0.6177(3) 0.0343(3) 0.4026(5)
C15A C 1.0343(3) 0.4166(4) 0.5974(5)
loop_
_geom_bond_atom_site_label_1
_geom_bond_atom_site_label_2
_geom_bond_site_symmetry_1
_geom_bond_site_symmetry_2
Cd1 O1 1_555 1_555
S1 O3 1_555 1_555
O1 C15 1_555 1_555
O2 C15 1_555 1_555
O3 Cd1 1_555 1_555
O4 S1 1_555 1_555
N1 Cd1 1_555 1_555
N2 Cd1 1_555 1_555
N3 Cd1 1_555 1_555
C1 N2 1_555 1_555
H1 C1 1_555 1_555
H2 C1 1_555 1_555
C2 N1 1_555 1_555
C3 C2 1_555 1_555
H3 C3 1_555 1_555
C4 C3 1_555 1_555
H4 C4 1_555 1_555
C5 C4 1_555 1_555
H5 C5 1_555 1_555
C6 N1 1_555 1_555
H6 C6 1_555 1_555
C7 N2 1_555 1_555
H7 C7 1_555 1_555
H8 C7 1_555 1_555
C8 N3 1_555 1_555
C9 C8 1_555 1_555
H9 C9 1_555 1_555
C10 C9 1_555 1_555
H10 C10 1_555 1_555
C11 C10 1_555 1_555
H11 C11 1_555 1_555
C12 N3 1_555 1_555
H12 C12 1_555 1_555
C13 N2 1_555 1_555
H13 C13 1_555 1_555
H14 C13 1_555 1_555
C14 C13 1_555 1_555
H15 C14 1_555 1_555
H16 C14 1_555 1_555
C15 C14 1_555 1_555
Cd1C O1 1_555 1_555
Cd1A O1A 1_555 1_555
Cd1B O3B 1_555 1_555
Cd1D O1A 1_555 1_555
O1C Cd1 1_555 1_555
O1A C15A 1_555 1_555
O1D Cd1A 1_555 1_555
O2C Cd1 1_555 1_555
O2A Cd1D 1_555 1_555
O2D Cd1A 1_555 1_555
O3A S1 1_555 1_555
O3B S1 1_555 1_555
O3C Cd1C 1_555 1_555
N1C Cd1C 1_555 1_555
N1A Cd1A 1_555 1_555
N2C Cd1C 1_555 1_555
N2A Cd1A 1_555 1_555
N3C Cd1C 1_555 1_555
N3A Cd1A 1_555 1_555
C1C N2C 1_555 1_555
C1A N2A 1_555 1_555
H1C C1C 1_555 1_555
H1A C1A 1_555 1_555
H2C C1C 1_555 1_555
H2A C1A 1_555 1_555
C2C N1C 1_555 1_555
C2A N1A 1_555 1_555
C3C C2C 1_555 1_555
C3A C2A 1_555 1_555
H3C C3C 1_555 1_555
H3A C3A 1_555 1_555
C4C C3C 1_555 1_555
C4A C3A 1_555 1_555
H4C C4C 1_555 1_555
H4A C4A 1_555 1_555
C5C C4C 1_555 1_555
C5A C4A 1_555 1_555
H5C C5C 1_555 1_555
H5A C5A 1_555 1_555
C6C N1C 1_555 1_555
C6A N1A 1_555 1_555
H6C C6C 1_555 1_555
H6A C6A 1_555 1_555
C7C N2C 1_555 1_555
C7A N2A 1_555 1_555
H7C C7C 1_555 1_555
H7A C7A 1_555 1_555
H8C C7C 1_555 1_555
H8A C7A 1_555 1_555
C8C N3C 1_555 1_555
C8A N3A 1_555 1_555
C9C C8C 1_555 1_555
C9A C8A 1_555 1_555
H9C C9C 1_555 1_555
H9A C9A 1_555 1_555
C10C C9C 1_555 1_555
C10A C9A 1_555 1_555
H10C C10C 1_555 1_555
H10A C10A 1_555 1_555
C11C C10C 1_555 1_555
C11A C10A 1_555 1_555
H11C C11C 1_555 1_555
H11A C11A 1_555 1_555
C12C N3C 1_555 1_555
C12A N3A 1_555 1_555
H12C C12C 1_555 1_555
H12A C12A 1_555 1_555
C13C N2C 1_555 1_555
C13A N2A 1_555 1_555
H13C C13C 1_555 1_555
H13A C13A 1_555 1_555
H14C C13C 1_555 1_555
H14A C13A 1_555 1_555
C14C C13C 1_555 1_555
C14A C13A 1_555 1_555
H15C C14C 1_555 1_555
H15A C14A 1_555 1_555
H16C C14C 1_555 1_555
H16A C14A 1_555 1_555
C15C O1C 1_555 1_555
C15A O2A 1_555 1_555
O2 Cd1C 1_555 1_555
C1 C2 1_555 1_555
C5 C6 1_555 1_555
C7 C8 1_555 1_555
C11 C12 1_555 1_555
Cd1C O1C 1_555 1_555
Cd1A O3A 1_555 1_555
Cd1D O1D 1_555 1_555
O2C C15C 1_555 1_555
C1C C2C 1_555 1_555
C1A C2A 1_555 1_555
C5C C6C 1_555 1_555
C5A C6A 1_555 1_555
C7C C8C 1_555 1_555
C7A C8A 1_555 1_555
C11C C12C 1_555 1_555
C11A C12A 1_555 1_555
C14C C15C 1_555 1_555
C14A C15A 1_555 1_555

#END
