
#######################################################################
#
#                 Cambridge Crystallographic Data Centre
#                                CCDC 
#
#######################################################################
#
# If this CIF has been generated from an entry in the Cambridge 
# Structural Database, then it will include bibliographic, chemical, 
# crystal, experimental, refinement or atomic coordinate data resulting 
# from the CCDC's data processing and validation procedures.
#
#######################################################################

data_MUTDEK
_symmetry_cell_setting           monoclinic
_symmetry_space_group_name_H-M   'C 2/c'
_symmetry_Int_Tables_number      15
_space_group_name_Hall           '-C 2yn'
loop_
_symmetry_equiv_pos_site_id
_symmetry_equiv_pos_as_xyz
1 x,y,z
2 1/2+x,1/2+y,z
3 x,-y,1/2+z
4 1/2+x,1/2-y,1/2+z
5 -x,-y,-z
6 1/2-x,1/2-y,-z
7 -x,y,1/2-z
8 1/2-x,1/2+y,1/2-z
_cell_length_a                   26.765(1)
_cell_length_b                   13.578(1)
_cell_length_c                   16.972(1)
_cell_angle_alpha                90
_cell_angle_beta                 97.59(1)
_cell_angle_gamma                90
_cell_volume                     6113.84
loop_
_atom_site_label
_atom_site_type_symbol
_atom_site_fract_x
_atom_site_fract_y
_atom_site_fract_z
Zn1 Zn 0.71353(2) 0.10564(3) 0.13969(3)
O1 O 0.69535(13) -0.0041(2) 0.06076(16)
O2 O 0.71868(11) 0.24509(19) 0.18506(15)
O3 O 0.63078(17) -0.2054(3) -0.1108(2)
O4 O 0.75485(12) 0.53188(19) 0.26575(15)
C1 C 0.6477(2) -0.0288(3) 0.0534(3)
C2 C 0.75711(16) 0.2947(3) 0.1648(2)
C3 C 0.6150(2) 0.0194(3) 0.1028(3)
C4 C 0.78674(16) 0.2508(3) 0.1094(2)
C5 C 0.6112(2) 0.1364(4) 0.2017(3)
H1 H 0.6272 0.1854 0.2362
C6 C 0.79329(18) 0.1202(3) 0.0233(2)
H2 H 0.7812 0.0587 0.0019
C7 C 0.5610(2) 0.1144(4) 0.2052(4)
H3 H 0.5431 0.1477 0.2420
C8 C 0.83479(19) 0.1630(4) -0.0051(3)
H4 H 0.8505 0.1314 -0.0453
C9 C 0.5375(2) 0.0459(5) 0.1564(4)
H5 H 0.5030 0.0316 0.1586
C10 C 0.85242(18) 0.2511(4) 0.0258(3)
H6 H 0.8811 0.2802 0.0078
C11 C 0.5635(2) -0.0048(4) 0.1022(3)
C12 C 0.82861(17) 0.2992(3) 0.0840(2)
C13 C 0.5439(2) -0.0783(5) 0.0481(4)
H7 H 0.5097 -0.0981 0.0464
C14 C 0.84253(19) 0.3919(4) 0.1178(3)
H8 H 0.8717 0.4246 0.1047
C15 C 0.5731(2) -0.1207(4) -0.0013(4)
H9 H 0.5581 -0.1674 -0.0388
C16 C 0.81423(19) 0.4339(3) 0.1689(3)
H10 H 0.8238 0.4970 0.1899
C17 C 0.6246(2) -0.0997(4) -0.0002(3)
C18 C 0.77104(16) 0.3888(3) 0.1927(2)
C19 C 0.6519(3) -0.1524(4) -0.0567(3)
C20 C 0.74246(19) 0.4453(3) 0.2460(2)
C21 C 0.7342(2) -0.1879(4) -0.1013(3)
H11 H 0.7196 -0.1769 -0.1572
H12 H 0.7352 -0.2599 -0.0917
C22 C 0.6716(2) 0.4486(4) 0.3237(3)
H13 H 0.6742 0.5211 0.3193
H14 H 0.6848 0.4300 0.3790
C23 C 0.7869(2) -0.1485(4) -0.0890(3)
H15 H 0.8015 -0.1592 -0.0329
H16 H 0.7860 -0.0767 -0.0991
C24 C 0.6181(2) 0.4194(4) 0.3072(3)
H17 H 0.6158 0.3467 0.3040
H18 H 0.6034 0.4465 0.2551
C25 C 0.8203(3) -0.1974(4) -0.1431(3)
H19 H 0.8210 -0.2692 -0.1327
H20 H 0.8052 -0.1873 -0.1990
C26 C 0.5881(2) 0.4563(6) 0.3714(4)
H21 H 0.6072 0.4432 0.4243
H22 H 0.5832 0.5283 0.3658
C27 C 0.8729(3) -0.1605(5) -0.1336(4)
H23 H 0.8889 -0.1727 -0.0785
H24 H 0.8727 -0.0885 -0.1431
C28 C 0.5374(3) 0.4059(9) 0.3653(4)
H25 H 0.5152 0.4389 0.3218
H26 H 0.5423 0.3376 0.3475
C29 C 0.9034(4) -0.2116(8) -0.1920(6)
H27 H 0.9004 -0.2837 -0.1856
H28 H 0.8884 -0.1948 -0.2469
C30 C 0.5133(3) 0.4008(8) 0.4230(6)
H29 H 0.5087 0.4696 0.4400
H30 H 0.5363 0.3694 0.4662
C31 C 0.9507(5) -0.1885(11) -0.1835(8)
H31 H 0.9691 -0.2364 -0.2118
H32 H 0.9641 -0.1891 -0.1269
H33 H 0.9547 -0.1226 -0.2053
C32 C 0.4640(3) 0.3526(6) 0.4235(5)
H34 H 0.4482 0.3773 0.4684
H35 H 0.4688 0.2812 0.4287
H36 H 0.4424 0.3672 0.3737
N1 N 0.63780(14) 0.0913(3) 0.1516(2)
N2 N 0.77008(13) 0.1622(2) 0.07915(19)
N3 N 0.7023(2) -0.1425(3) -0.0496(3)
H37 H 0.7111(18) -0.107(3) -0.017(3)
N4 N 0.70260(16) 0.4029(3) 0.2698(2)
H38 H 0.6961(17) 0.345(3) 0.255(3)
O4G O 0.74515(12) 0.03188(19) 0.23425(15)
Zn1G Zn 0.78647(2) 0.60564(3) 0.36031(3)
loop_
_geom_bond_atom_site_label_1
_geom_bond_atom_site_label_2
_geom_bond_site_symmetry_1
_geom_bond_site_symmetry_2
Zn1 O1 1_555 1_555
O1 C1 1_555 1_555
O2 Zn1 1_555 1_555
O3 C19 1_555 1_555
O4 C20 1_555 1_555
C1 C3 1_555 1_555
C2 O2 1_555 1_555
C3 C11 1_555 1_555
C4 C2 1_555 1_555
C5 H1 1_555 1_555
C6 H2 1_555 1_555
C7 C5 1_555 1_555
H3 C7 1_555 1_555
C8 C6 1_555 1_555
H4 C8 1_555 1_555
C9 C7 1_555 1_555
H5 C9 1_555 1_555
C10 C8 1_555 1_555
H6 C10 1_555 1_555
C11 C9 1_555 1_555
C12 C4 1_555 1_555
C13 C11 1_555 1_555
H7 C13 1_555 1_555
C14 C12 1_555 1_555
H8 C14 1_555 1_555
C15 C13 1_555 1_555
H9 C15 1_555 1_555
C16 C14 1_555 1_555
H10 C16 1_555 1_555
C17 C1 1_555 1_555
C18 C2 1_555 1_555
C19 C17 1_555 1_555
C20 C18 1_555 1_555
C21 H11 1_555 1_555
H12 C21 1_555 1_555
C22 H13 1_555 1_555
H14 C22 1_555 1_555
C23 C21 1_555 1_555
H15 C23 1_555 1_555
H16 C23 1_555 1_555
C24 C22 1_555 1_555
H17 C24 1_555 1_555
H18 C24 1_555 1_555
C25 C23 1_555 1_555
H19 C25 1_555 1_555
H20 C25 1_555 1_555
C26 C24 1_555 1_555
H21 C26 1_555 1_555
H22 C26 1_555 1_555
C27 C25 1_555 1_555
H23 C27 1_555 1_555
H24 C27 1_555 1_555
C28 C26 1_555 1_555
H25 C28 1_555 1_555
H26 C28 1_555 1_555
C29 C27 1_555 1_555
H27 C29 1_555 1_555
H28 C29 1_555 1_555
C30 C28 1_555 1_555
H29 C30 1_555 1_555
H30 C30 1_555 1_555
C31 C29 1_555 1_555
H31 C31 1_555 1_555
H32 C31 1_555 1_555
H33 C31 1_555 1_555
C32 C30 1_555 1_555
H34 C32 1_555 1_555
H35 C32 1_555 1_555
H36 C32 1_555 1_555
N1 Zn1 1_555 1_555
N2 Zn1 1_555 1_555
N3 C19 1_555 1_555
H37 N3 1_555 1_555
N4 C20 1_555 1_555
H38 N4 1_555 1_555
O4G Zn1 1_555 1_555
Zn1G O4 1_555 1_555
C3 N1 1_555 1_555
C4 N2 1_555 1_555
C5 N1 1_555 1_555
C6 N2 1_555 1_555
C10 C12 1_555 1_555
C15 C17 1_555 1_555
C16 C18 1_555 1_555
C21 N3 1_555 1_555
C22 N4 1_555 1_555

#END
