
#######################################################################
#
#                 Cambridge Crystallographic Data Centre
#                                CCDC 
#
#######################################################################
#
# If this CIF has been generated from an entry in the Cambridge 
# Structural Database, then it will include bibliographic, chemical, 
# crystal, experimental, refinement or atomic coordinate data resulting 
# from the CCDC's data processing and validation procedures.
#
#######################################################################

data_MUTGUD
_symmetry_cell_setting           tetragonal
_symmetry_space_group_name_H-M   'I 41/a'
_symmetry_Int_Tables_number      88
_space_group_name_Hall           '-I 4ad'
loop_
_symmetry_equiv_pos_site_id
_symmetry_equiv_pos_as_xyz
1 x,y,z
2 3/4-y,1/4+x,1/4+z
3 1/2+x,1/2+y,1/2+z
4 1/4-y,3/4+x,3/4+z
5 1/4+y,1/4-x,1/4+z
6 1/2+x,y,1/2-z
7 1/4-y,1/4+x,1/4-z
8 x,1/2+y,-z
9 -x,-y,-z
10 1/4+y,3/4-x,3/4-z
11 1/2-x,1/2-y,1/2-z
12 3/4+y,1/4-x,1/4-z
13 3/4-y,3/4+x,3/4-z
14 1/2-x,-y,1/2+z
15 3/4+y,3/4-x,3/4+z
16 -x,1/2-y,z
_cell_length_a                   15.1767(6)
_cell_length_b                   15.1767(6)
_cell_length_c                   11.8204(7)
_cell_angle_alpha                90
_cell_angle_beta                 90
_cell_angle_gamma                90
_cell_volume                     2722.62
loop_
_atom_site_label
_atom_site_type_symbol
_atom_site_fract_x
_atom_site_fract_y
_atom_site_fract_z
Ag1 Ag 0.0000 0.2500 0.1250
Ag3 Ag -0.2500 0.2500 -0.2500
O1 O -0.13447(13) 0.23444(12) -0.03395(18)
O2 O -0.06267(13) 0.35645(12) -0.01672(17)
O3 O -0.20342(15) 0.43704(13) -0.27688(19)
O4 O -0.11349(13) 0.47910(12) -0.14646(18)
N1 N -0.16505(14) 0.33595(13) -0.15753(19)
N2 N -0.11783(13) 0.31045(13) -0.06476(17)
N3 N -0.15767(13) 0.42367(13) -0.19320(18)
O1F O 0.01556(12) 0.11553(13) 0.28395(18)
O2F O -0.10645(12) 0.18733(13) 0.26672(17)
O3F O -0.18704(13) 0.04658(15) 0.52688(19)
O4F O -0.22910(12) 0.13651(13) 0.39646(18)
N1F N -0.08595(13) 0.08495(14) 0.40753(19)
N2F N -0.06045(13) 0.13217(13) 0.31476(17)
N3F N -0.17367(13) 0.09233(13) 0.44320(18)
O1K O -0.01556(12) 0.38447(13) 0.28395(18)
O2K O 0.10645(12) 0.31267(13) 0.26672(17)
O3K O 0.18704(13) 0.45342(15) 0.52688(19)
O4K O 0.22910(12) 0.36349(13) 0.39646(18)
N1K N 0.08595(13) 0.41505(14) 0.40753(19)
N2K N 0.06045(13) 0.36783(13) 0.31476(17)
N3K N 0.17367(13) 0.40767(13) 0.44320(18)
O1O O 0.13447(13) 0.26556(12) -0.03395(18)
O2O O 0.06267(13) 0.14355(12) -0.01672(17)
O3O O 0.20342(15) 0.06296(13) -0.27688(19)
O4O O 0.11349(13) 0.02090(12) -0.14646(18)
N1O N 0.16505(14) 0.16405(13) -0.15753(19)
N2O N 0.11783(13) 0.18955(13) -0.06476(17)
N3O N 0.15767(13) 0.07633(13) -0.19320(18)
Ag3F Ag 0.0000 0.0000 0.5000
N1J N -0.33495(14) 0.16405(13) -0.34247(19)
Ag3C Ag 0.0000 0.5000 0.5000
Ag3E Ag 0.2500 0.2500 -0.2500
N1N N 0.08595(13) -0.08495(14) 0.59247(19)
Ag2 Ag -0.5000 0.2500 -0.1250
N4 N -0.38806(19) 0.1938(2) -0.0217(2)
C1 C -0.34084(18) 0.17095(17) 0.0452(3)
C2 C -0.2807(2) 0.1426(2) 0.1332(3)
H1 H -0.298(4) 0.081(4) 0.174(6)
H2 H -0.269(5) 0.183(5) 0.185(6)
H3 H -0.226(5) 0.132(5) 0.103(6)
N4I N -0.5562(2) 0.13806(19) -0.2283(2)
C1I C -0.57905(17) 0.09084(18) -0.2952(3)
C2I C -0.6074(2) 0.0307(2) -0.3832(3)
H1I H -0.669(4) 0.048(4) -0.424(6)
H2I H -0.567(5) 0.019(5) -0.435(6)
H3I H -0.618(5) -0.024(5) -0.353(6)
N4L N -0.4438(2) 0.36194(19) -0.2283(2)
C1L C -0.42095(17) 0.40916(18) -0.2952(3)
C2L C -0.3926(2) 0.4693(2) -0.3832(3)
H1L H -0.331(4) 0.452(4) -0.424(6)
H2L H -0.433(5) 0.481(5) -0.435(6)
H3L H -0.382(5) 0.524(5) -0.353(6)
N4O N -0.61194(19) 0.3062(2) -0.0217(2)
C1O C -0.65916(18) 0.32905(17) 0.0452(3)
C2O C -0.7193(2) 0.3574(2) 0.1332(3)
H1O H -0.702(4) 0.419(4) 0.174(6)
H2O H -0.731(5) 0.317(5) 0.185(6)
H3O H -0.774(5) 0.368(5) 0.103(6)
H4? H -0.313(5) 0.149(5) 0.207(7)
H5? H -0.234(5) 0.180(5) 0.140(7)
H6? H -0.251(5) 0.091(5) 0.106(6)
loop_
_geom_bond_atom_site_label_1
_geom_bond_atom_site_label_2
_geom_bond_site_symmetry_1
_geom_bond_site_symmetry_2
Ag1 O2 1_555 1_555
Ag2 N4 1_555 1_555
Ag3 N1 1_555 1_555
O1 N2 1_555 1_555
O2 N2 1_555 1_555
O3 N3 1_555 1_555
O4 N3 1_555 1_555
N1 N2 1_555 1_555
N3 N1 1_555 1_555
N4 C1 1_555 1_555
C1 C2 1_555 1_555
C2 H1 1_555 1_555
H2 C2 1_555 1_555
H3 C2 1_555 1_555
O1F N2F 1_555 1_555
O2F Ag1 1_555 1_555
O3F N3F 1_555 1_555
O4F N3F 1_555 1_555
N1F N2F 1_555 1_555
N2F O2F 1_555 1_555
N3F N1F 1_555 1_555
O1K N2K 1_555 1_555
O2K Ag1 1_555 1_555
O3K N3K 1_555 1_555
O4K N3K 1_555 1_555
N1K N2K 1_555 1_555
N2K O2K 1_555 1_555
N3K N1K 1_555 1_555
O1O N2O 1_555 1_555
O2O Ag1 1_555 1_555
O3O N3O 1_555 1_555
O4O N3O 1_555 1_555
N1O N2O 1_555 1_555
N2O O2O 1_555 1_555
N3O N1O 1_555 1_555
Ag3F N1F 1_555 1_555
N4I Ag2 1_555 1_555
C1I N4I 1_555 1_555
C2I C1I 1_555 1_555
H1I C2I 1_555 1_555
H2I C2I 1_555 1_555
H3I C2I 1_555 1_555
N4L Ag2 1_555 1_555
C1L N4L 1_555 1_555
C2L C1L 1_555 1_555
H1L C2L 1_555 1_555
H2L C2L 1_555 1_555
H3L C2L 1_555 1_555
N4O Ag2 1_555 1_555
C1O N4O 1_555 1_555
C2O C1O 1_555 1_555
H1O C2O 1_555 1_555
H2O C2O 1_555 1_555
H3O C2O 1_555 1_555
N1J Ag3 1_555 1_555
Ag3C N1K 1_555 1_555
Ag3E N1O 1_555 1_555
N1N Ag3F 1_555 1_555

#END
