
#######################################################################
#
#                 Cambridge Crystallographic Data Centre
#                                CCDC 
#
#######################################################################
#
# If this CIF has been generated from an entry in the Cambridge 
# Structural Database, then it will include bibliographic, chemical, 
# crystal, experimental, refinement or atomic coordinate data resulting 
# from the CCDC's data processing and validation procedures.
#
#######################################################################

data_MUTKUH01
_symmetry_cell_setting           monoclinic
_symmetry_space_group_name_H-M   'P 21/c'
_symmetry_Int_Tables_number      14
_space_group_name_Hall           '-P 2ybc'
loop_
_symmetry_equiv_pos_site_id
_symmetry_equiv_pos_as_xyz
1 x,y,z
2 -x,1/2+y,1/2-z
3 -x,-y,-z
4 x,1/2-y,1/2+z
_cell_length_a                   8.2766(12)
_cell_length_b                   14.154(2)
_cell_length_c                   10.9984(16)
_cell_angle_alpha                90
_cell_angle_beta                 106.730(7)
_cell_angle_gamma                90
_cell_volume                     1233.89
loop_
_atom_site_label
_atom_site_type_symbol
_atom_site_fract_x
_atom_site_fract_y
_atom_site_fract_z
Au1 Au 0.373504(15) 0.643109(10) 0.615483(13)
Au2 Au 0.441873(15) 0.717281(10) 0.342812(13)
Au3 Au 0.708128(15) 0.558263(10) 0.532336(13)
N1 N 0.2028(4) 0.7244(2) 0.4944(3)
N2 N 0.2388(4) 0.7625(2) 0.3910(3)
N3 N 0.6383(4) 0.6646(2) 0.2932(3)
N4 N 0.7438(4) 0.5997(3) 0.3687(3)
N5 N 0.6742(4) 0.5218(2) 0.6985(3)
N6 N 0.5486(4) 0.5631(2) 0.7374(3)
C1 C 0.0511(4) 0.7577(3) 0.4963(4)
H1 H -0.0032 0.7433 0.5593
C2 C -0.0144(4) 0.8165(3) 0.3919(4)
H2 H -0.1203 0.8479 0.3686
C3 C 0.1088(5) 0.8187(3) 0.3300(4)
H3 H 0.1031 0.8544 0.2557
C4 C 0.6796(4) 0.6722(3) 0.1841(4)
H4 H 0.6250 0.7122 0.1151
C5 C 0.8146(4) 0.6128(3) 0.1877(4)
H5 H 0.8699 0.6042 0.1238
C6 C 0.8510(4) 0.5685(3) 0.3059(4)
H6 H 0.9379 0.5233 0.3371
C7 C 0.7632(4) 0.4663(3) 0.7937(4)
H7 H 0.8570 0.4286 0.7909
C8 C 0.6985(4) 0.4721(3) 0.8960(4)
H8 H 0.7376 0.4410 0.9757
C9 C 0.5621(5) 0.5342(3) 0.8554(4)
H9 H 0.4900 0.5530 0.9044
Au1C Au 0.373504(15) 0.856891(10) 0.115483(13)
Au2C Au 0.441873(15) 0.782719(10) 0.842812(13)
loop_
_geom_bond_atom_site_label_1
_geom_bond_atom_site_label_2
_geom_bond_site_symmetry_1
_geom_bond_site_symmetry_2
Au1 N1 1_555 1_555
Au2 N2 1_555 1_555
Au3 N4 1_555 1_555
N1 N2 1_555 1_555
N2 C3 1_555 1_555
N3 Au2 1_555 1_555
N4 N3 1_555 1_555
N5 Au3 1_555 1_555
N6 Au1 1_555 1_555
C1 N1 1_555 1_555
H1 C1 1_555 1_555
C2 C1 1_555 1_555
H2 C2 1_555 1_555
C3 C2 1_555 1_555
H3 C3 1_555 1_555
C4 N3 1_555 1_555
H4 C4 1_555 1_555
C5 C4 1_555 1_555
H5 C5 1_555 1_555
C6 N4 1_555 1_555
H6 C6 1_555 1_555
C7 N5 1_555 1_555
H7 C7 1_555 1_555
C8 C7 1_555 1_555
H8 C8 1_555 1_555
C9 N6 1_555 1_555
H9 C9 1_555 1_555
Au1C Au2 1_555 1_555
Au2C Au1 1_555 1_555
N5 N6 1_555 1_555
C5 C6 1_555 1_555
C8 C9 1_555 1_555

#END
