
#######################################################################
#
#                 Cambridge Crystallographic Data Centre
#                                CCDC 
#
#######################################################################
#
# If this CIF has been generated from an entry in the Cambridge 
# Structural Database, then it will include bibliographic, chemical, 
# crystal, experimental, refinement or atomic coordinate data resulting 
# from the CCDC's data processing and validation procedures.
#
#######################################################################

data_MUTNAR
_symmetry_cell_setting           triclinic
_symmetry_space_group_name_H-M   'P -1'
_symmetry_Int_Tables_number      2
_space_group_name_Hall           '-P 1'
loop_
_symmetry_equiv_pos_site_id
_symmetry_equiv_pos_as_xyz
1 x,y,z
2 -x,-y,-z
_cell_length_a                   6.7631(8)
_cell_length_b                   7.2440(10)
_cell_length_c                   15.0121(16)
_cell_angle_alpha                89.334(2)
_cell_angle_beta                 88.189(2)
_cell_angle_gamma                66.3810(10)
_cell_volume                     673.524
loop_
_atom_site_label
_atom_site_type_symbol
_atom_site_fract_x
_atom_site_fract_y
_atom_site_fract_z
Ba1 Ba 0.69855(4) 0.68945(4) 0.560700(18)
N1 N 0.8336(7) 0.7032(7) 0.7421(3)
N2 N 1.1076(7) 0.6699(7) 0.8457(3)
N3 N 0.8835(9) 0.7992(9) 1.0684(3)
N4 N 0.1950(7) 0.8104(6) 0.4257(3)
O1 O 1.1359(5) 0.5453(5) 0.5999(2)
O2 O 1.3737(6) 0.3477(6) 0.7145(3)
O3 O 1.3641(6) 0.6771(6) 0.6756(3)
O4 O 0.3658(6) 0.6950(6) 0.4594(3)
O5 O 0.0710(6) 0.7356(6) 0.3986(3)
O6 O 0.1516(7) 0.9915(6) 0.4169(3)
O7 O 0.6256(6) 0.9425(5) 0.4021(3)
H1 H 0.5905 0.8872 0.3593
H2 H 0.7406 0.9570 0.3868
S1 S 1.24668(19) 0.54831(19) 0.68142(8)
C1 C 1.0363(8) 0.6567(8) 0.7652(3)
C2 C 0.9567(9) 0.7350(8) 0.9124(4)
C3 C 0.7402(9) 0.7870(10) 0.8950(4)
H3 H 0.6351 0.8331 0.9404
C4 C 0.6852(10) 0.7689(10) 0.8096(4)
H4 H 0.5408 0.8030 0.7976
C5 C 1.0340(9) 0.7484(8) 1.0017(4)
C6 C 1.2475(10) 0.7091(9) 1.0161(4)
H5 H 1.3469 0.6758 0.9685
C7 C 1.3132(12) 0.7193(10) 1.1012(4)
H6 H 1.4567 0.6928 1.1120
C8 C 1.1614(13) 0.7697(11) 1.1697(4)
H7 H 1.1996 0.7777 1.2281
C9 C 0.9521(13) 0.8080(11) 1.1500(4)
H8 H 0.8506 0.8426 1.1968
Ba1A Ba 1.30145(4) 0.31055(4) 0.439300(18)
Ba1_2 Ba 1.69855(4) 0.68945(4) 0.560700(18)
Ba1A_2 Ba 0.30145(4) 0.31055(4) 0.439300(18)
Ba1A_3 Ba 0.30145(4) 1.31055(4) 0.439300(18)
O1A O 0.8641(5) 0.4547(5) 0.4001(2)
O3_2 O 0.3641(6) 0.6771(6) 0.6756(3)
O4A O 0.6342(6) 0.3050(6) 0.5406(3)
O5A O 0.9290(6) 0.2644(6) 0.6014(3)
O6A O 0.8484(7) 1.0085(6) 0.5831(3)
O7A O 0.3744(6) 1.0575(5) 0.5979(3)
H1A H 0.4095 1.1128 0.6407
H2A H 0.2594 1.0430 0.6132
loop_
_geom_bond_atom_site_label_1
_geom_bond_atom_site_label_2
_geom_bond_site_symmetry_1
_geom_bond_site_symmetry_2
Ba1 N1 1_555 1_555
N1 C1 1_555 1_555
N2 C1 1_555 1_555
N3 C5 1_555 1_555
N4 O4 1_555 1_555
O1 Ba1 1_555 1_555
O2 S1 1_555 1_555
O3 S1 1_555 1_555
O4 Ba1 1_555 1_555
O5 N4 1_555 1_555
O6 N4 1_555 1_555
O7 Ba1 1_555 1_555
H1 O7 1_555 1_555
H2 O7 1_555 1_555
S1 O1 1_555 1_555
C1 S1 1_555 1_555
C2 N2 1_555 1_555
C3 C2 1_555 1_555
H3 C3 1_555 1_555
C4 N1 1_555 1_555
H4 C4 1_555 1_555
C5 C2 1_555 1_555
C6 C5 1_555 1_555
H5 C6 1_555 1_555
C7 C6 1_555 1_555
H6 C7 1_555 1_555
C8 C7 1_555 1_555
H7 C8 1_555 1_555
C9 N3 1_555 1_555
H8 C9 1_555 1_555
Ba1A O1 1_555 1_555
Ba1_2 O3 1_555 1_555
Ba1A_2 O4 1_555 1_555
Ba1A_3 O6 1_555 1_555
O1A Ba1 1_555 1_555
O3_2 Ba1 1_555 1_555
O4A Ba1 1_555 1_555
O5A Ba1 1_555 1_555
O6A Ba1 1_555 1_555
O7A Ba1 1_555 1_555
H1A O7A 1_555 1_555
H2A O7A 1_555 1_555
O5 Ba1A_2 1_555 1_555
O7 Ba1A_3 1_555 1_555
C3 C4 1_555 1_555
C8 C9 1_555 1_555
Ba1A O1A 1_555 1_555
Ba1A_2 O4A 1_555 1_555
Ba1A_3 O7A 1_555 1_555

#END
