
#######################################################################
#
#                 Cambridge Crystallographic Data Centre
#                                CCDC 
#
#######################################################################
#
# If this CIF has been generated from an entry in the Cambridge 
# Structural Database, then it will include bibliographic, chemical, 
# crystal, experimental, refinement or atomic coordinate data resulting 
# from the CCDC's data processing and validation procedures.
#
#######################################################################

data_MUVMUM
_symmetry_cell_setting           orthorhombic
_symmetry_space_group_name_H-M   'P 21 21 21'
_symmetry_Int_Tables_number      19
_space_group_name_Hall           'P 2ac 2ab'
loop_
_symmetry_equiv_pos_site_id
_symmetry_equiv_pos_as_xyz
1 x,y,z
2 1/2-x,-y,1/2+z
3 -x,1/2+y,1/2-z
4 1/2+x,1/2-y,-z
_cell_length_a                   10.8770(9)
_cell_length_b                   11.2295(9)
_cell_length_c                   35.079(3)
_cell_angle_alpha                90
_cell_angle_beta                 90
_cell_angle_gamma                90
_cell_volume                     4284.66
loop_
_atom_site_label
_atom_site_type_symbol
_atom_site_fract_x
_atom_site_fract_y
_atom_site_fract_z
Mn1 Mn 0.16345(5) 0.30735(5) -0.124120(15)
O1 O 0.5277(3) 0.3276(3) 0.10962(7)
O2 O 0.3059(3) 0.4638(3) -0.13691(10)
H1 H 0.3134 0.5211 -0.1213
H2 H 0.3491 0.4621 -0.1571
O3 O 0.5977(3) -0.3512(3) -0.18415(10)
H3 H 0.6722 -0.3410 -0.1831
O4 O -0.0425(3) 0.4478(3) -0.37108(8)
H4 H -0.0366 0.5193 -0.3755
O5 O -0.4778(3) 0.7877(3) -0.07172(13)
H5 H -0.5406 0.7480 -0.0742
N1 N 0.0405(3) 0.4039(3) -0.15305(8)
N2 N 0.1263(3) 0.3994(3) -0.07658(8)
N3 N 0.2995(3) 0.2232(2) -0.09707(8)
N4 N 0.2124(3) 0.2284(3) -0.17296(8)
C1 C 0.3362(4) 0.2400(3) -0.05979(10)
C2 C 0.2466(4) 0.1898(4) -0.23663(10)
H6 H 0.2445 0.1971 -0.2630
C3 C 0.2922(3) 0.3265(3) -0.03470(10)
C4 C 0.0323(4) 0.5237(4) -0.03361(11)
H7 H -0.0247 0.5753 -0.0228
C5 C -0.0042(4) 0.4258(4) -0.33510(11)
C6 C 0.5392(4) -0.2478(3) -0.17525(11)
C7 C 0.3460(4) 0.3093(4) 0.07250(11)
H8 H 0.3003 0.2947 0.0944
C8 C 0.1807(4) 0.2607(3) -0.20964(10)
C9 C 0.3129(4) 0.1100(3) -0.21627(11)
H9 H 0.3622 0.0499 -0.2262
C10 C 0.0786(4) 0.4849(4) -0.27435(11)
H10 H 0.1124 0.5437 -0.2589
C11 C -0.1681(4) 0.5795(4) -0.08805(11)
C12 C 0.4179(4) 0.1458(4) -0.04911(12)
H11 H 0.4568 0.1375 -0.0256
C13 C 0.0920(4) 0.3456(3) -0.21906(10)
C14 C 0.3511(4) 0.3334(3) 0.00389(10)
C15 C -0.0606(4) 0.5040(3) -0.09891(11)
C16 C 0.0639(4) 0.3708(3) -0.26010(10)
C17 C 0.4117(4) -0.2403(4) -0.17496(12)
H12 H 0.3648 -0.3069 -0.1810
C18 C 0.1345(4) 0.4811(4) -0.01682(11)
H13 H 0.1627 0.5007 0.0074
C19 C 0.2934(4) 0.1347(3) -0.17664(11)
C20 C 0.0203(4) 0.4040(3) -0.19173(11)
C21 C -0.0878(4) 0.4726(4) -0.19986(11)
H14 H -0.1206 0.4871 -0.2239
C22 C -0.1329(4) 0.5121(4) -0.16675(11)
H15 H -0.2037 0.5574 -0.1635
C23 C 0.2872(4) 0.3088(4) 0.03724(11)
H16 H 0.2036 0.2918 0.0360
C24 C 0.1924(3) 0.4001(3) -0.04291(10)
C25 C -0.1636(4) 0.7019(4) -0.09031(12)
H17 H -0.0896 0.7387 -0.0964
C26 C 0.3542(3) 0.0780(3) -0.14664(10)
C27 C 0.3547(4) -0.1350(4) -0.16577(12)
H18 H 0.2693 -0.1311 -0.1658
C28 C 0.0276(3) 0.4746(3) -0.07126(10)
C29 C -0.0518(3) 0.4713(3) -0.13689(10)
C30 C 0.3578(4) 0.1208(3) -0.10956(11)
C31 C 0.0175(4) 0.2841(3) -0.28407(11)
H19 H 0.0083 0.2068 -0.2750
C32 C 0.4222(4) -0.0348(3) -0.15645(10)
C33 C 0.5494(4) -0.0436(4) -0.15648(12)
H20 H 0.5962 0.0220 -0.1494
C34 C 0.4286(4) 0.0712(4) -0.07900(11)
H21 H 0.4735 0.0008 -0.0797
C35 C -0.2655(4) 0.7710(4) -0.08376(13)
H22 H -0.2596 0.8536 -0.0843
C36 C -0.3846(5) 0.5952(4) -0.07469(16)
H23 H -0.4596 0.5582 -0.0701
C37 C 0.0434(4) 0.5129(4) -0.31160(11)
H24 H 0.0520 0.5904 -0.3206
C38 C -0.3777(4) 0.7165(4) -0.07636(14)
C39 C -0.0156(4) 0.3097(4) -0.32117(11)
H25 H -0.0454 0.2496 -0.3369
C40 C 0.4744(4) 0.3581(4) 0.00710(11)
H26 H 0.5192 0.3758 -0.0148
C41 C 0.6077(4) -0.1480(4) -0.16682(12)
H27 H 0.6931 -0.1509 -0.1681
C42 C -0.2789(4) 0.5272(4) -0.07997(14)
H28 H -0.2836 0.4447 -0.0780
C43 C 0.5342(4) 0.3575(4) 0.04225(12)
H29 H 0.6176 0.3751 0.0434
C46 C 0.4706(4) 0.3308(3) 0.07565(11)
Mn1C Mn 0.66345(5) 0.19265(5) 0.124120(15)
O1C O 0.0277(3) 0.1724(3) -0.10962(7)
O6 O -0.0524(4) 0.0316(3) 0.20517(11)
N5 N 0.0770(4) 0.1897(4) 0.20111(12)
C44 C 0.0023(5) 0.1163(4) 0.21937(15)
H30 H -0.0099 0.1301 0.2452
C45 C 0.0982(6) 0.1769(6) 0.16058(16)
H31 H 0.0600 0.1050 0.1517
H32 H 0.1850 0.1732 0.1558
H33 H 0.0638 0.2439 0.1474
C49 C 0.1402(8) 0.2843(6) 0.22161(19)
H38 H 0.1297 0.3582 0.2082
H39 H 0.2262 0.2659 0.2233
H40 H 0.1064 0.2913 0.2468
O7 O 0.8093(4) 0.8375(4) 0.08713(11)
N6 N 0.7075(4) 0.7248(4) 0.04547(12)
C47 C 0.7223(5) 0.7762(5) 0.07845(15)
H34 H 0.6613 0.7650 0.0967
C48 C 0.7972(7) 0.7466(10) 0.01552(18)
H35 H 0.8421 0.8181 0.0212
H36 H 0.7556 0.7555 -0.0084
H37 H 0.8532 0.6807 0.0141
C50 C 0.5997(9) 0.6510(7) 0.0367(2)
H41 H 0.6261 0.5769 0.0257
H42 H 0.5478 0.6922 0.0189
H43 H 0.5546 0.6355 0.0597
loop_
_geom_bond_atom_site_label_1
_geom_bond_atom_site_label_2
_geom_bond_site_symmetry_1
_geom_bond_site_symmetry_2
Mn1 O2 1_555 1_555
O1 C46 1_555 1_555
O2 H1 1_555 1_555
H2 O2 1_555 1_555
O3 H3 1_555 1_555
O4 H4 1_555 1_555
O5 H5 1_555 1_555
O6 C44 1_555 1_555
O7 C47 1_555 1_555
N1 Mn1 1_555 1_555
N2 Mn1 1_555 1_555
N3 Mn1 1_555 1_555
N4 Mn1 1_555 1_555
N5 C44 1_555 1_555
C1 N3 1_555 1_555
C2 H6 1_555 1_555
C3 C1 1_555 1_555
C4 H7 1_555 1_555
C5 O4 1_555 1_555
C6 O3 1_555 1_555
C7 H8 1_555 1_555
C8 N4 1_555 1_555
C9 C2 1_555 1_555
H9 C9 1_555 1_555
C10 H10 1_555 1_555
C11 C15 1_555 1_555
C12 C1 1_555 1_555
H11 C12 1_555 1_555
C13 C8 1_555 1_555
C14 C3 1_555 1_555
C15 C28 1_555 1_555
C16 C10 1_555 1_555
C17 C6 1_555 1_555
H12 C17 1_555 1_555
C18 C4 1_555 1_555
H13 C18 1_555 1_555
C19 N4 1_555 1_555
C20 N1 1_555 1_555
C21 C20 1_555 1_555
H14 C21 1_555 1_555
C22 C21 1_555 1_555
H15 C22 1_555 1_555
C23 C7 1_555 1_555
H16 C23 1_555 1_555
C24 N2 1_555 1_555
C25 C11 1_555 1_555
H17 C25 1_555 1_555
C26 C19 1_555 1_555
C27 C17 1_555 1_555
H18 C27 1_555 1_555
C28 N2 1_555 1_555
C29 N1 1_555 1_555
C30 N3 1_555 1_555
C31 C16 1_555 1_555
H19 C31 1_555 1_555
C32 C26 1_555 1_555
C33 C32 1_555 1_555
H20 C33 1_555 1_555
C34 C12 1_555 1_555
H21 C34 1_555 1_555
C35 C25 1_555 1_555
H22 C35 1_555 1_555
C36 H23 1_555 1_555
C37 C5 1_555 1_555
H24 C37 1_555 1_555
C38 O5 1_555 1_555
C39 C5 1_555 1_555
H25 C39 1_555 1_555
C40 C14 1_555 1_555
H26 C40 1_555 1_555
C41 C6 1_555 1_555
H27 C41 1_555 1_555
C42 C11 1_555 1_555
H28 C42 1_555 1_555
C43 C40 1_555 1_555
H29 C43 1_555 1_555
C44 H30 1_555 1_555
C45 N5 1_555 1_555
H31 C45 1_555 1_555
H32 C45 1_555 1_555
H33 C45 1_555 1_555
C46 C7 1_555 1_555
N6 C47 1_555 1_555
C47 H34 1_555 1_555
C48 N6 1_555 1_555
H35 C48 1_555 1_555
H36 C48 1_555 1_555
H37 C48 1_555 1_555
C49 N5 1_555 1_555
H38 C49 1_555 1_555
H39 C49 1_555 1_555
H40 C49 1_555 1_555
C50 N6 1_555 1_555
H41 C50 1_555 1_555
H42 C50 1_555 1_555
H43 C50 1_555 1_555
Mn1C O1 1_555 1_555
O1C Mn1 1_555 1_555
C2 C8 1_555 1_555
C3 C24 1_555 1_555
C4 C28 1_555 1_555
C9 C19 1_555 1_555
C10 C37 1_555 1_555
C13 C16 1_555 1_555
C13 C20 1_555 1_555
C14 C23 1_555 1_555
C15 C29 1_555 1_555
C18 C24 1_555 1_555
C22 C29 1_555 1_555
C26 C30 1_555 1_555
C27 C32 1_555 1_555
C30 C34 1_555 1_555
C31 C39 1_555 1_555
C33 C41 1_555 1_555
C35 C38 1_555 1_555
C36 C38 1_555 1_555
C36 C42 1_555 1_555
C43 C46 1_555 1_555

#END
