
#######################################################################
#
#                 Cambridge Crystallographic Data Centre
#                                CCDC 
#
#######################################################################
#
# If this CIF has been generated from an entry in the Cambridge 
# Structural Database, then it will include bibliographic, chemical, 
# crystal, experimental, refinement or atomic coordinate data resulting 
# from the CCDC's data processing and validation procedures.
#
#######################################################################

data_MUWSON
_symmetry_cell_setting           monoclinic
_symmetry_space_group_name_H-M   'P 21/n'
_symmetry_Int_Tables_number      14
_space_group_name_Hall           '-P 2yn'
loop_
_symmetry_equiv_pos_site_id
_symmetry_equiv_pos_as_xyz
1 x,y,z
2 1/2-x,1/2+y,1/2-z
3 -x,-y,-z
4 1/2+x,1/2-y,1/2+z
_cell_length_a                   8.2821(3)
_cell_length_b                   22.5262(7)
_cell_length_c                   9.5913(3)
_cell_angle_alpha                90
_cell_angle_beta                 90.271(3)
_cell_angle_gamma                90
_cell_volume                     1789.37
loop_
_atom_site_label
_atom_site_type_symbol
_atom_site_fract_x
_atom_site_fract_y
_atom_site_fract_z
K1 K 0.19978(4) 0.237843(14) 0.67729(4)
B1 B -0.2816(2) 0.16374(7) 0.60528(18)
C1 C -0.1781(2) 0.15651(6) 0.75387(16)
O1 O -0.03175(15) 0.16341(6) 0.76314(13)
C2 C -0.2565(2) 0.14418(7) 0.89733(16)
O2 O -0.30431(17) 0.18765(5) 0.96106(13)
C3 C -0.2579(2) 0.08288(7) 0.95300(16)
C4 C -0.3455(2) 0.07132(8) 1.07403(18)
H1 H -0.4007 0.1026 1.1199
C5 C -0.3519(3) 0.01434(9) 1.12713(19)
H2 H -0.4121 0.0063 1.2091
C6 C -0.2703(3) -0.03102(8) 1.0602(2)
H3 H -0.2741 -0.0701 1.0970
C7 C -0.1833(3) -0.01998(8) 0.9404(2)
H4 H -0.1278 -0.0514 0.8951
C8 C -0.1772(2) 0.03709(8) 0.88632(19)
H5 H -0.1178 0.0448 0.8038
C9 C -0.4324(2) 0.11555(7) 0.61293(17)
F1 F -0.52177(14) 0.12569(5) 0.73243(11)
F2 F -0.36871(14) 0.05957(4) 0.63050(12)
C10 C -0.5650(2) 0.10733(7) 0.50027(19)
F3 F -0.66974(14) 0.15273(5) 0.50108(14)
F4 F -0.64922(16) 0.05832(5) 0.52270(14)
F5 F -0.50414(15) 0.10429(6) 0.37299(11)
C11 C -0.3577(2) 0.23132(7) 0.59279(18)
F6 F -0.46242(15) 0.24129(5) 0.70201(12)
F7 F -0.45274(16) 0.23762(5) 0.47456(13)
C12 C -0.2509(2) 0.28717(7) 0.5904(2)
F8 F -0.33758(18) 0.33591(5) 0.61160(15)
F9 F -0.17861(17) 0.29376(5) 0.46703(14)
F10 F -0.13444(16) 0.28505(5) 0.68834(14)
C13 C -0.1566(2) 0.15277(7) 0.47407(16)
F11 F -0.22619(13) 0.16769(5) 0.34716(10)
F12 F -0.02601(13) 0.19032(5) 0.48654(11)
C14 C -0.0805(2) 0.09100(7) 0.44695(17)
F13 F 0.03313(16) 0.09487(6) 0.34999(13)
F14 F -0.01166(15) 0.06939(5) 0.56200(12)
F15 F -0.18986(15) 0.05242(5) 0.40184(13)
K1C K -0.30022(4) 0.262157(14) 1.17729(4)
K1_2 K -0.80022(4) 0.237843(14) 0.67729(4)
K1C_2 K -0.30022(4) 0.262157(14) 0.17729(4)
O2C O 0.19569(17) 0.31235(5) 0.46106(13)
F3_2 F 0.33026(14) 0.15273(5) 0.50108(14)
F6_2 F 0.53758(15) 0.24129(5) 0.70201(12)
F7C F 0.04726(16) 0.26238(5) 0.97456(13)
F9C F 0.32139(17) 0.20624(5) 0.96703(14)
F11C F 0.27381(13) 0.33231(5) 0.84716(10)
loop_
_geom_bond_atom_site_label_1
_geom_bond_atom_site_label_2
_geom_bond_site_symmetry_1
_geom_bond_site_symmetry_2
K1 O1 1_555 1_555
B1 C1 1_555 1_555
C1 O1 1_555 1_555
C2 C1 1_555 1_555
O2 C2 1_555 1_555
C3 C2 1_555 1_555
C4 C3 1_555 1_555
H1 C4 1_555 1_555
C5 C4 1_555 1_555
H2 C5 1_555 1_555
C6 C5 1_555 1_555
H3 C6 1_555 1_555
C7 C6 1_555 1_555
H4 C7 1_555 1_555
C8 C3 1_555 1_555
H5 C8 1_555 1_555
C9 B1 1_555 1_555
F1 C9 1_555 1_555
F2 C9 1_555 1_555
C10 C9 1_555 1_555
F3 C10 1_555 1_555
F4 C10 1_555 1_555
F5 C10 1_555 1_555
C11 B1 1_555 1_555
F6 C11 1_555 1_555
F7 C11 1_555 1_555
C12 C11 1_555 1_555
F8 C12 1_555 1_555
F9 C12 1_555 1_555
F10 K1 1_555 1_555
C13 B1 1_555 1_555
F11 C13 1_555 1_555
F12 K1 1_555 1_555
C14 C13 1_555 1_555
F13 C14 1_555 1_555
F14 C14 1_555 1_555
F15 C14 1_555 1_555
K1C O2 1_555 1_555
K1_2 F3 1_555 1_555
K1C_2 F7 1_555 1_555
O2C K1 1_555 1_555
F3_2 K1 1_555 1_555
F6_2 K1 1_555 1_555
F7C K1 1_555 1_555
F9C K1 1_555 1_555
F11C K1 1_555 1_555
C7 C8 1_555 1_555
F6 K1_2 1_555 1_555
C12 F10 1_555 1_555
F9 K1C_2 1_555 1_555
C13 F12 1_555 1_555
F11 K1C_2 1_555 1_555

#END
