
#######################################################################
#
#                 Cambridge Crystallographic Data Centre
#                                CCDC 
#
#######################################################################
#
# If this CIF has been generated from an entry in the Cambridge 
# Structural Database, then it will include bibliographic, chemical, 
# crystal, experimental, refinement or atomic coordinate data resulting 
# from the CCDC's data processing and validation procedures.
#
#######################################################################

data_MUXHUI01
_symmetry_cell_setting           monoclinic
_symmetry_space_group_name_H-M   'P 21/n'
_symmetry_Int_Tables_number      14
_space_group_name_Hall           '-P 2yn'
loop_
_symmetry_equiv_pos_site_id
_symmetry_equiv_pos_as_xyz
1 x,y,z
2 1/2-x,1/2+y,1/2-z
3 -x,-y,-z
4 1/2+x,1/2-y,1/2+z
_cell_length_a                   7.7008(2)
_cell_length_b                   9.9155(3)
_cell_length_c                   14.9899(5)
_cell_angle_alpha                90
_cell_angle_beta                 98.4660(10)
_cell_angle_gamma                90
_cell_volume                     1132.12
loop_
_atom_site_label
_atom_site_type_symbol
_atom_site_fract_x
_atom_site_fract_y
_atom_site_fract_z
Nd1 Nd 0.144919(16) 0.456149(14) 0.359994(9)
O1 O 0.3357(2) 0.26259(19) 0.35458(13)
O2 O 0.3039(3) 0.0763(2) 0.27171(14)
O3 O 0.0859(3) -0.3368(2) 0.42871(14)
O4 O 0.0255(3) -0.3038(2) 0.56724(14)
O5 O 0.4476(3) 0.5507(2) 0.38773(15)
O6 O 0.7032(3) 0.5607(2) 0.47951(14)
O7 O -0.1670(3) 0.5320(2) 0.31131(16)
H1 H -0.229(4) 0.466(3) 0.290(2)
H2 H -0.199(4) 0.568(3) 0.3575(17)
O8 O 0.0099(3) 0.3105(2) 0.22975(14)
H3 H 0.048(4) 0.236(2) 0.214(2)
H4 H -0.067(4) 0.348(3) 0.1913(18)
N1 N 0.3074(4) 0.0535(2) 0.58902(17)
C1 C 0.3084(3) 0.1370(3) 0.34512(17)
C2 C 0.2797(4) 0.0585(3) 0.42694(18)
C3 C 0.2042(4) -0.0687(3) 0.42156(19)
H5 H 0.1739 -0.1109 0.3661
C4 C 0.1746(3) -0.1320(3) 0.50089(17)
C5 C 0.0888(3) -0.2679(3) 0.49903(18)
C6 C 0.2263(4) -0.0672(3) 0.58263(19)
H6 H 0.2040 -0.1090 0.6353
C7 C 0.3300(4) 0.1140(3) 0.51208(18)
H7 H 0.3827 0.1986 0.5156
C8 C 0.5427(4) 0.5318(3) 0.46133(19)
Nd1B Nd -0.144919(16) -0.456149(14) 0.640006(9)
Nd1A Nd 0.355081(16) -0.043851(14) 0.140006(9)
Nd1_2 Nd 0.144919(16) -0.543851(14) 0.359994(9)
Nd1B_2 Nd 0.855081(16) 0.543851(14) 0.640006(9)
Nd1B_3 Nd 0.855081(16) -0.456149(14) 0.640006(9)
Nd1C Nd 0.644919(16) 0.043851(14) 0.859994(9)
Nd1_3 Nd 1.144919(16) 0.456149(14) 0.359994(9)
O1B O 0.6643(2) 0.73741(19) 0.64542(13)
O1B_2 O 0.6643(2) -0.26259(19) 0.64542(13)
O2A O 0.1961(3) 0.5763(2) 0.22829(14)
O2C O 0.8039(3) 0.4237(2) 0.77171(14)
O2B O 0.6961(3) -0.0763(2) 0.72829(14)
O3_2 O 0.0859(3) 0.6632(2) 0.42871(14)
O3B O 0.9141(3) 0.3368(2) 0.57129(14)
O4B O -0.0255(3) 0.3038(2) 0.43276(14)
O4_2 O 1.0255(3) 0.6962(2) 0.56724(14)
O4B_2 O 0.9745(3) 0.3038(2) 0.43276(14)
O5B O 0.5524(3) 0.4493(2) 0.61227(15)
O6B O 0.2968(3) 0.4393(2) 0.52049(14)
O7B O 1.1670(3) 0.4680(2) 0.68869(16)
H1B H 1.229(4) 0.534(3) 0.710(2)
H2B H 1.199(4) 0.432(3) 0.6425(17)
O8B O 0.9901(3) 0.6895(2) 0.77025(14)
H3B H 0.952(4) 0.764(2) 0.786(2)
H4B H 1.067(4) 0.652(3) 0.8087(18)
N1B N 0.6926(4) -0.0535(2) 0.41098(17)
C1B C 0.6916(3) -0.1370(3) 0.65488(17)
C2B C 0.7203(4) -0.0585(3) 0.57306(18)
C3B C 0.7958(4) 0.0687(3) 0.57844(19)
H5B H 0.8261 0.1109 0.6339
C4B C 0.8254(3) 0.1320(3) 0.49911(17)
C5B C 0.9112(3) 0.2679(3) 0.50097(18)
C6B C 0.7737(4) 0.0672(3) 0.41737(19)
H6B H 0.7960 0.1090 0.3647
C7B C 0.6700(4) -0.1140(3) 0.48792(18)
H7B H 0.6173 -0.1986 0.4844
C8B C 0.4573(4) 0.4682(3) 0.53867(19)
O9 O 0.6046(3) 0.3332(3) 0.25192(19)
H8 H 0.528(4) 0.310(4) 0.284(2)
H9 H 0.656(5) 0.268(3) 0.230(3)
loop_
_geom_bond_atom_site_label_1
_geom_bond_atom_site_label_2
_geom_bond_site_symmetry_1
_geom_bond_site_symmetry_2
Nd1 O1 1_555 1_555
O1 C1 1_555 1_555
O2 C1 1_555 1_555
O3 C5 1_555 1_555
O4 C5 1_555 1_555
O5 Nd1 1_555 1_555
O6 C8 1_555 1_555
O7 Nd1 1_555 1_555
H1 O7 1_555 1_555
H2 O7 1_555 1_555
O8 Nd1 1_555 1_555
H3 O8 1_555 1_555
H4 O8 1_555 1_555
N1 C6 1_555 1_555
C1 C2 1_555 1_555
C2 C3 1_555 1_555
C3 H5 1_555 1_555
C4 C3 1_555 1_555
C5 C4 1_555 1_555
C6 C4 1_555 1_555
H6 C6 1_555 1_555
C7 N1 1_555 1_555
H7 C7 1_555 1_555
C8 O5 1_555 1_555
O9 H8 1_555 1_555
H9 O9 1_555 1_555
Nd1B O4 1_555 1_555
Nd1A O2 1_555 1_555
Nd1_2 O3 1_555 1_555
Nd1B_2 O6 1_555 1_555
Nd1B_3 O1B_2 1_555 1_555
Nd1C O2B 1_555 1_555
Nd1_3 O4B_2 1_555 1_555
O1B Nd1B_2 1_555 1_555
O1B_2 C1B 1_555 1_555
O2A Nd1 1_555 1_555
O2C Nd1B_2 1_555 1_555
O2B C1B 1_555 1_555
O3_2 Nd1 1_555 1_555
O3B Nd1B_2 1_555 1_555
O4B Nd1 1_555 1_555
O4_2 Nd1B_2 1_555 1_555
O4B_2 C5B 1_555 1_555
O5B Nd1B_2 1_555 1_555
O6B Nd1 1_555 1_555
O7B Nd1B_2 1_555 1_555
H1B O7B 1_555 1_555
H2B O7B 1_555 1_555
O8B Nd1B_2 1_555 1_555
H3B O8B 1_555 1_555
H4B O8B 1_555 1_555
N1B C6B 1_555 1_555
C1B C2B 1_555 1_555
C2B C3B 1_555 1_555
C3B H5B 1_555 1_555
C4B C3B 1_555 1_555
C5B O3B 1_555 1_555
C6B C4B 1_555 1_555
H6B C6B 1_555 1_555
C7B N1B 1_555 1_555
H7B C7B 1_555 1_555
C8B C8 1_555 1_555
C2 C7 1_555 1_555
O5B C8B 1_555 1_555
O6B C8B 1_555 1_555
C2B C7B 1_555 1_555
C4B C5B 1_555 1_555

#END
