
#######################################################################
#
#                 Cambridge Crystallographic Data Centre
#                                CCDC 
#
#######################################################################
#
# If this CIF has been generated from an entry in the Cambridge 
# Structural Database, then it will include bibliographic, chemical, 
# crystal, experimental, refinement or atomic coordinate data resulting 
# from the CCDC's data processing and validation procedures.
#
#######################################################################

data_MUXHOD
_symmetry_cell_setting           monoclinic
_symmetry_space_group_name_H-M   'C 2/c'
_symmetry_Int_Tables_number      15
_space_group_name_Hall           '-C 2yn'
loop_
_symmetry_equiv_pos_site_id
_symmetry_equiv_pos_as_xyz
1 x,y,z
2 -x,y,1/2-z
3 1/2+x,1/2+y,z
4 1/2-x,1/2+y,1/2-z
5 -x,-y,-z
6 x,-y,1/2+z
7 1/2-x,1/2-y,-z
8 1/2+x,1/2-y,1/2+z
_cell_length_a                   30.279(3)
_cell_length_b                   4.8583(4)
_cell_length_c                   6.2910(6)
_cell_angle_alpha                90
_cell_angle_beta                 99.550(3)
_cell_angle_gamma                90
_cell_volume                     912.609
loop_
_atom_site_label
_atom_site_type_symbol
_atom_site_fract_x
_atom_site_fract_y
_atom_site_fract_z
Mn1 Mn 0.0000 0.3160(3) 0.2500
O1 O -0.19282(13) -0.5162(9) 0.1008(7)
O2 O -0.05687(14) 0.0628(8) 0.1442(7)
O3 O -0.21858(14) -0.1213(9) 0.2169(7)
O4 O -0.03139(15) -0.3419(9) 0.0464(7)
C1 C -0.14088(19) -0.1548(12) 0.1948(9)
H1 H -0.1290(7) -0.1467(12) 0.350(8)
H2 H -0.1426(2) 0.035(10) 0.140(3)
C2 C -0.06240(19) -0.1860(12) 0.0929(11)
C3 C -0.10829(18) -0.3164(11) 0.0829(10)
H3 H -0.1046(3) -0.491(10) 0.145(4)
H4 H -0.1210(7) -0.3393(18) -0.062(8)
C4 C -0.18747(19) -0.2726(12) 0.1653(11)
Mn2 Mn -0.2500 -0.7500 0.0000
Mn1_2 Mn 0.0000 -0.6840(3) 0.2500
Mn1D Mn 0.0000 -0.3160(3) -0.2500
Mn1D_2 Mn 0.0000 -0.3160(3) 0.7500
O1A O 0.19282(13) -0.5162(9) 0.3992(7)
O1F O -0.30718(13) -0.9838(9) -0.1008(7)
O2A O 0.05687(14) 0.0628(8) 0.3558(7)
O3A O 0.21858(14) -0.1213(9) 0.2831(7)
O3_2 O -0.21858(14) -1.1213(9) 0.2169(7)
O3C O -0.28142(14) -0.6213(9) 0.2831(7)
O3E O -0.21858(14) -0.8787(9) -0.2831(7)
O3F O -0.28142(14) -0.3787(9) -0.2169(7)
O4A O 0.03139(15) -0.3419(9) 0.4536(7)
O4_2 O -0.03139(15) 0.6581(9) 0.0464(7)
O4A_2 O 0.03139(15) 0.6581(9) 0.4536(7)
O4D O 0.03139(15) 0.3419(9) -0.0464(7)
O4E O -0.03139(15) 0.3419(9) 0.5464(7)
C1A C 0.14088(19) -0.1548(12) 0.3052(9)
H1A H 0.1290(7) -0.1467(12) 0.150(8)
H2A H 0.1426(2) 0.035(10) 0.360(3)
C2A C 0.06240(19) -0.1860(12) 0.4071(11)
C3A C 0.10829(18) -0.3164(11) 0.4171(10)
H3A H 0.1046(3) -0.491(10) 0.355(4)
H4A H 0.1210(7) -0.3393(18) 0.562(8)
C4A C 0.18747(19) -0.2726(12) 0.3347(11)
Mn2_2 Mn -0.2500 0.2500 0.0000
Mn2C Mn -0.2500 -0.2500 0.5000
Mn2A Mn 0.2500 -0.7500 0.5000
Mn2A_2 Mn 0.2500 0.2500 0.5000
Mn2B Mn 0.2500 -0.2500 0.0000
loop_
_geom_bond_atom_site_label_1
_geom_bond_atom_site_label_2
_geom_bond_site_symmetry_1
_geom_bond_site_symmetry_2
Mn1 O2 1_555 1_555
O1 C4 1_555 1_555
O2 C2 1_555 1_555
O3 C4 1_555 1_555
O4 C2 1_555 1_555
C1 H1 1_555 1_555
H2 C1 1_555 1_555
C2 C3 1_555 1_555
C3 C1 1_555 1_555
H3 C3 1_555 1_555
H4 C3 1_555 1_555
C4 C1 1_555 1_555
Mn2 O1 1_555 1_555
Mn1_2 O4 1_555 1_555
Mn1D O4 1_555 1_555
Mn1D_2 O4A 1_555 1_555
O1A C4A 1_555 1_555
O1F Mn2 1_555 1_555
O2A Mn1 1_555 1_555
O3A C4A 1_555 1_555
O3_2 Mn2 1_555 1_555
O3C Mn2 1_555 1_555
O3E Mn2 1_555 1_555
O3F Mn2 1_555 1_555
O4A Mn1_2 1_555 1_555
O4_2 Mn1 1_555 1_555
O4A_2 Mn1 1_555 1_555
O4D Mn1 1_555 1_555
O4E Mn1 1_555 1_555
C1A H1A 1_555 1_555
H2A C1A 1_555 1_555
C2A O2A 1_555 1_555
C3A C1A 1_555 1_555
H3A C3A 1_555 1_555
H4A C3A 1_555 1_555
C4A C1A 1_555 1_555
Mn2_2 O3 1_555 1_555
Mn2C O3 1_555 1_555
Mn2A O1A 1_555 1_555
Mn2A_2 O3A 1_555 1_555
Mn2B O3A 1_555 1_555
O3C Mn2C 1_555 1_555
O4A C2A 1_555 1_555
C2A C3A 1_555 1_555

#END
