
#######################################################################
#
#                 Cambridge Crystallographic Data Centre
#                                CCDC 
#
#######################################################################
#
# If this CIF has been generated from an entry in the Cambridge 
# Structural Database, then it will include bibliographic, chemical, 
# crystal, experimental, refinement or atomic coordinate data resulting 
# from the CCDC's data processing and validation procedures.
#
#######################################################################

data_MUXNUO02
_symmetry_cell_setting           monoclinic
_symmetry_space_group_name_H-M   'P 21'
_symmetry_Int_Tables_number      4
_space_group_name_Hall           'P 2yb'
loop_
_symmetry_equiv_pos_site_id
_symmetry_equiv_pos_as_xyz
1 x,y,z
2 -x,1/2+y,-z
_cell_length_a                   10.3697(4)
_cell_length_b                   12.6801(3)
_cell_length_c                   7.7756(2)
_cell_angle_alpha                90
_cell_angle_beta                 109.059(4)
_cell_angle_gamma                90
_cell_volume                     966.359
loop_
_atom_site_label
_atom_site_type_symbol
_atom_site_fract_x
_atom_site_fract_y
_atom_site_fract_z
H1 H 0.876(3) 0.665(3) 0.123(6)
H2 H 0.995(6) 0.659(4) 0.055(9)
H3 H 1.180(2) 0.792(3) 0.552(4)
H4 H 1.092(4) 0.839(3) 0.374(5)
H5 H 0.845(5) 0.545(5) 0.518(9)
H6 H 0.888(4) 0.640(3) 0.645(5)
H7 H 1.015(5) 0.493(2) -0.218(6)
H8 H 1.121(2) 0.423(4) -0.099(7)
H9 H 1.015(4) 0.378(3) 0.444(5)
H10 H 1.138(3) 0.399(4) 0.383(7)
H11 H 0.814(3) 0.244(4) -0.066(3)
H12 H 0.872(6) 0.211(5) 0.130(6)
O1 O 0.9455(2) 0.6217(2) 0.1158(3)
O2 O 1.0954(2) 0.7913(2) 0.4663(3)
O3 O 0.9205(2) 0.5871(2) 0.5831(3)
O4 O 1.0236(3) 0.4301(2) -0.1487(3)
O5 O 1.0521(3) 0.4221(2) 0.3752(3)
O6 O 0.8932(2) 0.2468(2) 0.0371(3)
Na1 Na 0.91268(13) 0.43720(11) 0.06624(18)
Na2 Na 1.08278(12) 0.60578(11) 0.42812(17)
C1 C 1.3915(3) 0.6990(3) 0.8411(4)
C2 C 1.5829(3) 0.7878(3) 1.0556(4)
C3 C 1.3988(3) 0.8823(3) 0.8415(4)
N1 N 1.3367(3) 0.7919(2) 0.7671(3)
N2 N 1.5210(3) 0.8787(2) 0.9813(4)
H13 H 1.5602 0.9373 1.0239
N3 N 1.5125(3) 0.6990(2) 0.9827(4)
H14 H 1.5460 0.6392 1.0281
S1 S 1.31341(8) 0.58333(6) 0.77016(10)
S2 S 1.73099(8) 0.78508(6) 1.22493(10)
S3 S 1.32829(8) 1.00102(6) 0.77060(10)
C4 C 0.6023(3) 0.3527(3) -0.3439(4)
C5 C 0.4162(3) 0.2622(3) -0.5602(4)
C6 C 0.6055(3) 0.1698(3) -0.3504(4)
N4 N 0.6624(3) 0.2617(2) -0.2754(4)
N5 N 0.4813(3) 0.3519(2) -0.4863(4)
H15 H 0.4454 0.4113 -0.5304
N6 N 0.4828(3) 0.1723(2) -0.4899(4)
H16 H 0.4463 0.1132 -0.5348
S4 S 0.68095(8) 0.05348(6) -0.27864(10)
S5 S 0.26597(8) 0.26292(6) -0.72885(10)
S6 S 0.67068(8) 0.47037(6) -0.25999(10)
Na2A Na 0.91722(12) 0.10578(11) -0.42812(17)
S4A S 1.31905(8) 0.55348(6) 0.27864(10)
loop_
_geom_bond_atom_site_label_1
_geom_bond_atom_site_label_2
_geom_bond_site_symmetry_1
_geom_bond_site_symmetry_2
H1 O1 1_555 1_555
H2 O1 1_555 1_555
H3 O2 1_555 1_555
H4 O2 1_555 1_555
H5 O3 1_555 1_555
H6 O3 1_555 1_555
H7 O4 1_555 1_555
H8 O4 1_555 1_555
H9 O5 1_555 1_555
H10 O5 1_555 1_555
H11 O6 1_555 1_555
H12 O6 1_555 1_555
O1 Na1 1_555 1_555
O2 Na2 1_555 1_555
O3 Na2 1_555 1_555
O4 Na1 1_555 1_555
O5 Na1 1_555 1_555
O6 Na1 1_555 1_555
Na1 S6 1_555 1_555
Na2 O1 1_555 1_555
C1 N1 1_555 1_555
C2 N2 1_555 1_555
C3 N1 1_555 1_555
N2 C3 1_555 1_555
H13 N2 1_555 1_555
N3 C1 1_555 1_555
H14 N3 1_555 1_555
S1 Na2 1_555 1_555
S2 C2 1_555 1_555
S3 C3 1_555 1_555
C4 N4 1_555 1_555
C5 N5 1_555 1_555
C6 N4 1_555 1_555
N5 C4 1_555 1_555
H15 N5 1_555 1_555
N6 C5 1_555 1_555
H16 N6 1_555 1_555
S4 C6 1_555 1_555
S5 C5 1_555 1_555
S6 C4 1_555 1_555
Na2A S4 1_555 1_555
S4A Na2 1_555 1_555
O5 Na2 1_555 1_555
C1 S1 1_555 1_555
C2 N3 1_555 1_555
C6 N6 1_555 1_555

#END
