
#######################################################################
#
#                 Cambridge Crystallographic Data Centre
#                                CCDC 
#
#######################################################################
#
# If this CIF has been generated from an entry in the Cambridge 
# Structural Database, then it will include bibliographic, chemical, 
# crystal, experimental, refinement or atomic coordinate data resulting 
# from the CCDC's data processing and validation procedures.
#
#######################################################################

data_MUYKOH
_symmetry_cell_setting           orthorhombic
_symmetry_space_group_name_H-M   'P c 21 b'
_symmetry_Int_Tables_number      29
_space_group_name_Hall           'P -2bc -2c'
loop_
_symmetry_equiv_pos_site_id
_symmetry_equiv_pos_as_xyz
1 x,y,z
2 -x,y,1/2+z
3 -x,1/2+y,-z
4 x,1/2+y,1/2-z
_cell_length_a                   7.7840(6)
_cell_length_b                   14.9431(11)
_cell_length_c                   17.4340(7)
_cell_angle_alpha                90
_cell_angle_beta                 90
_cell_angle_gamma                90
_cell_volume                     2027.87
loop_
_atom_site_label
_atom_site_type_symbol
_atom_site_fract_x
_atom_site_fract_y
_atom_site_fract_z
Gd1 Gd 0.24600(4) 0.00466(3) 0.15047(3)
Gd2 Gd -0.25406(3) 0.04477(4) 0.09260(3)
C1 C -0.0450(10) 0.1922(6) 0.1395(4)
C2 C 0.0653(11) 0.2721(8) 0.1479(5)
H1 H 0.1707 0.2612 0.1198
H2 H 0.0958 0.2774 0.2016
C3 C -0.0042(11) 0.3597(6) 0.1224(4)
H3 H 0.0893 0.4033 0.1268
C4 C -0.1521(9) 0.3939(7) 0.1720(4)
H4 H -0.2197 0.4354 0.1416
H5 H -0.2256 0.3437 0.1847
C5 C -0.1008(10) 0.4404(7) 0.2463(5)
C6 C -0.0619(12) 0.3590(8) 0.0370(4)
H6 H -0.0644 0.2977 0.0189
H7 H -0.1776 0.3827 0.0336
C7 C 0.0533(11) 0.4126(6) -0.0138(4)
C8 C 0.4463(10) 0.1347(6) 0.2331(4)
C9 C 0.5503(9) 0.2004(6) 0.2787(4)
H8 H 0.5175 0.2603 0.2633
H9 H 0.6705 0.1925 0.2656
C10 C 0.5319(10) 0.1930(6) 0.3657(4)
H10 H 0.4106 0.1821 0.3774
C11 C 0.6355(10) 0.1158(6) 0.3980(4)
H11 H 0.6108 0.0626 0.3681
H12 H 0.7566 0.1292 0.3918
C12 C 0.6023(9) 0.0956(6) 0.4807(4)
C13 C 0.5848(9) 0.2815(6) 0.4046(4)
H13 H 0.5994 0.2707 0.4591
H14 H 0.6953 0.2999 0.3843
C14 C 0.4581(10) 0.3578(6) 0.3941(4)
O1 O 0.0168(9) 0.1118(6) 0.1458(3)
O2 O -0.2020(8) 0.2017(5) 0.1230(4)
O3 O 0.0570(6) 0.4458(6) 0.2615(3)
O4 O -0.2217(7) 0.4682(8) 0.2856(4)
O5 O -0.0070(8) 0.4502(5) -0.0739(3)
O6 O 0.2074(7) 0.4241(6) 0.0014(4)
O7 O 0.2950(7) 0.1179(5) 0.2525(4)
O8 O 0.5068(8) 0.0998(5) 0.1714(3)
O9 O 0.4466(7) 0.0985(5) 0.5032(4)
O10 O 0.7247(6) 0.0746(7) 0.5242(4)
O11 O 0.3052(8) 0.3443(5) 0.3809(3)
O12 O 0.5117(8) 0.4381(5) 0.4019(3)
O13 O 0.4338(7) -0.0624(6) 0.2536(4)
O14 O -0.0695(8) 0.1049(6) -0.0116(4)
Gd1C Gd 0.24600(4) 0.50466(3) 0.34953(3)
Gd1B Gd -0.24600(4) 0.50466(3) -0.15047(3)
Gd1A Gd 0.75400(4) 0.00466(3) 0.65047(3)
Gd2C Gd -0.25406(3) 0.54477(4) 0.40740(3)
Gd2B Gd 0.25406(3) 0.54477(4) -0.09260(3)
Gd2_2 Gd 0.74594(3) 0.04477(4) 0.09260(3)
Gd2A Gd 0.25406(3) 0.04477(4) 0.59260(3)
Gd2C_2 Gd 0.74594(3) 0.54477(4) 0.40740(3)
O3C O 0.0570(6) -0.0542(6) 0.2385(3)
O4C O -0.2217(7) -0.0318(8) 0.2144(4)
O5B O 0.0070(8) -0.0498(5) 0.0739(3)
O6B O -0.2074(7) -0.0759(6) -0.0014(4)
O8_2 O -0.4932(8) 0.0998(5) 0.1714(3)
O9A O -0.4466(7) 0.0985(5) 0.0032(4)
O10A O 0.2753(6) 0.0746(7) 0.0242(4)
O11C O 0.3052(8) -0.1557(5) 0.1191(3)
O12C O 0.5117(8) -0.0619(5) 0.0981(3)
O12C_2 O -0.4883(8) -0.0619(5) 0.0981(3)
O15 O -0.4620(12) -0.1376(10) -0.1024(4)
O16 O 0.9314(8) 0.2020(6) 0.8541(3)
loop_
_geom_bond_atom_site_label_1
_geom_bond_atom_site_label_2
_geom_bond_site_symmetry_1
_geom_bond_site_symmetry_2
Gd1 O1 1_555 1_555
Gd2 O1 1_555 1_555
C1 C2 1_555 1_555
C2 H1 1_555 1_555
H2 C2 1_555 1_555
C3 C2 1_555 1_555
H3 C3 1_555 1_555
C4 C3 1_555 1_555
H4 C4 1_555 1_555
H5 C4 1_555 1_555
C5 C4 1_555 1_555
C6 C3 1_555 1_555
H6 C6 1_555 1_555
H7 C6 1_555 1_555
C7 C6 1_555 1_555
C8 C9 1_555 1_555
C9 H8 1_555 1_555
H9 C9 1_555 1_555
C10 C9 1_555 1_555
H10 C10 1_555 1_555
C11 C10 1_555 1_555
H11 C11 1_555 1_555
H12 C11 1_555 1_555
C12 C11 1_555 1_555
C13 C10 1_555 1_555
H13 C13 1_555 1_555
H14 C13 1_555 1_555
C14 C13 1_555 1_555
O1 C1 1_555 1_555
O2 Gd2 1_555 1_555
O3 C5 1_555 1_555
O4 C5 1_555 1_555
O5 C7 1_555 1_555
O6 C7 1_555 1_555
O7 Gd1 1_555 1_555
O8 Gd1 1_555 1_555
O9 C12 1_555 1_555
O10 C12 1_555 1_555
O11 C14 1_555 1_555
O12 C14 1_555 1_555
O13 Gd1 1_555 1_555
O14 Gd2 1_555 1_555
Gd1C O3 1_555 1_555
Gd1B O5 1_555 1_555
Gd1A O10 1_555 1_555
Gd2C O4 1_555 1_555
Gd2B O5 1_555 1_555
Gd2_2 O8 1_555 1_555
Gd2A O9 1_555 1_555
Gd2C_2 O12 1_555 1_555
O3C Gd1 1_555 1_555
O4C Gd2 1_555 1_555
O5B Gd1 1_555 1_555
O6B Gd2 1_555 1_555
O8_2 Gd2 1_555 1_555
O9A Gd2 1_555 1_555
O10A Gd1 1_555 1_555
O11C Gd1 1_555 1_555
O12C Gd1 1_555 1_555
O12C_2 Gd2 1_555 1_555
Gd2 O5B 1_555 1_555
C1 O2 1_555 1_555
C8 O7 1_555 1_555
C8 O8 1_555 1_555
O6 Gd2B 1_555 1_555
O11 Gd1C 1_555 1_555
O12 Gd1C 1_555 1_555
Gd2_2 O12C 1_555 1_555

#END
