
#######################################################################
#
#                 Cambridge Crystallographic Data Centre
#                                CCDC 
#
#######################################################################
#
# If this CIF has been generated from an entry in the Cambridge 
# Structural Database, then it will include bibliographic, chemical, 
# crystal, experimental, refinement or atomic coordinate data resulting 
# from the CCDC's data processing and validation procedures.
#
#######################################################################

data_MUZCUF
_symmetry_cell_setting           monoclinic
_symmetry_space_group_name_H-M   'P 21/a'
_symmetry_Int_Tables_number      14
_space_group_name_Hall           '-P 2yab'
loop_
_symmetry_equiv_pos_site_id
_symmetry_equiv_pos_as_xyz
1 x,y,z
2 1/2+x,1/2-y,z
3 -x,-y,-z
4 1/2-x,1/2+y,-z
_cell_length_a                   5.9650(10)
_cell_length_b                   8.956(2)
_cell_length_c                   10.292(2)
_cell_angle_alpha                90
_cell_angle_beta                 91.51(2)
_cell_angle_gamma                90
_cell_volume                     549.634
loop_
_atom_site_label
_atom_site_type_symbol
_atom_site_fract_x
_atom_site_fract_y
_atom_site_fract_z
Ag1 Ag 0.08128(9) 0.63239(5) 0.44021(5)
O1 O -0.2630(8) 0.6291(4) 0.3571(4)
O2 O -0.3542(8) 0.3961(5) 0.4129(5)
C1 C -0.3882(9) 0.5135(6) 0.3505(6)
C2 C -0.5748(9) 0.5191(6) 0.2508(6)
C3 C -0.7433(11) 0.4211(7) 0.2596(6)
H1 H -0.762(13) 0.3577(61) 0.3247(52)
C4 C -0.9362(11) 0.3998(8) 0.1654(7)
H2 H -1.0649(21) 0.3661(43) 0.2112(8)
H3 H -0.8971(26) 0.3267(33) 0.1017(23)
H4 H -0.9703(44) 0.4928(12) 0.1230(29)
C5 C -0.5548(12) 0.6296(6) 0.1421(7)
H5 H -0.4193(34) 0.6108(27) 0.0965(23)
H6 H -0.5508(64) 0.7290(6) 0.1771(8)
H7 H -0.6814(34) 0.6198(29) 0.0832(21)
Ag1B Ag -0.08128(9) 0.36761(5) 0.55979(5)
O1A O 0.2370(8) 0.8709(4) 0.3571(4)
O2B O 0.3542(8) 0.6039(5) 0.5871(5)
Ag1A Ag -0.41872(9) 0.86761(5) 0.44021(5)
loop_
_geom_bond_atom_site_label_1
_geom_bond_atom_site_label_2
_geom_bond_site_symmetry_1
_geom_bond_site_symmetry_2
Ag1 O1 1_555 1_555
O1 C1 1_555 1_555
O2 C1 1_555 1_555
C1 C2 1_555 1_555
C2 C3 1_555 1_555
C3 H1 1_555 1_555
C4 C3 1_555 1_555
H2 C4 1_555 1_555
H3 C4 1_555 1_555
H4 C4 1_555 1_555
C5 C2 1_555 1_555
H5 C5 1_555 1_555
H6 C5 1_555 1_555
H7 C5 1_555 1_555
Ag1B Ag1 1_555 1_555
O1A Ag1 1_555 1_555
O2B Ag1 1_555 1_555
Ag1A O1 1_555 1_555
O2 Ag1B 1_555 1_555

#END
