
#######################################################################
#
#                 Cambridge Crystallographic Data Centre
#                                CCDC 
#
#######################################################################
#
# If this CIF has been generated from an entry in the Cambridge 
# Structural Database, then it will include bibliographic, chemical, 
# crystal, experimental, refinement or atomic coordinate data resulting 
# from the CCDC's data processing and validation procedures.
#
#######################################################################

data_MUZCAL
_symmetry_cell_setting           monoclinic
_symmetry_space_group_name_H-M   'C 2/c'
_symmetry_Int_Tables_number      15
_space_group_name_Hall           '-C 2yn'
loop_
_symmetry_equiv_pos_site_id
_symmetry_equiv_pos_as_xyz
1 x,y,z
2 1/2+x,1/2+y,z
3 x,-y,1/2+z
4 1/2+x,1/2-y,1/2+z
5 -x,-y,-z
6 1/2-x,1/2-y,-z
7 -x,y,1/2-z
8 1/2-x,1/2+y,1/2-z
_cell_length_a                   12.3225(11)
_cell_length_b                   17.9157(15)
_cell_length_c                   13.8165(13)
_cell_angle_alpha                90
_cell_angle_beta                 105.5530(10)
_cell_angle_gamma                90
_cell_volume                     2938.53
loop_
_atom_site_label
_atom_site_type_symbol
_atom_site_fract_x
_atom_site_fract_y
_atom_site_fract_z
Cd1 Cd 0.10123(5) 0.46301(3) 0.37888(4)
P1 P 0.16255(16) 0.48405(11) 0.64371(15)
P2 P 0.14948(18) 0.65487(11) 0.43172(15)
O1 O 0.1654(5) 0.5817(3) 0.3833(4)
O2 O 0.1014(5) 0.4483(3) 0.5444(4)
O3 O 0.0837(4) 0.5264(3) 0.6913(4)
O4 O 0.0212(5) 0.6672(3) 0.4220(4)
H1 H -0.0070 0.6280 0.4340
O5 O 0.1805(5) 0.7189(3) 0.3681(4)
H2 H 0.2116 0.7527 0.4055
O6 O 0.2618(4) 0.5338(3) 0.6320(4)
H3 H 0.2367 0.5721 0.6018
O7 O 0.2248(5) 0.4215(3) 0.7164(4)
H4 H 0.2040 0.4223 0.7681
O8 O 0.2171(5) 0.6612(3) 0.5396(4)
N1 N 0.2803(6) 0.4211(4) 0.3879(5)
N2 N 0.0941(6) 0.3339(4) 0.3658(5)
C1 C 0.3693(7) 0.4649(6) 0.3952(7)
H5 H 0.3625 0.5153 0.4088
C2 C 0.4710(8) 0.4401(7) 0.3837(8)
H6 H 0.5308 0.4729 0.3894
C3 C 0.4819(8) 0.3668(7) 0.3637(8)
H7 H 0.5495 0.3484 0.3556
C4 C 0.3904(9) 0.3194(6) 0.3557(7)
H8 H 0.3960 0.2691 0.3409
C5 C 0.2897(7) 0.3478(5) 0.3700(6)
C6 C 0.1916(8) 0.2993(5) 0.3690(6)
C7 C 0.1997(10) 0.2229(5) 0.3735(8)
H9 H 0.2674 0.1996 0.3744
C8 C 0.1077(11) 0.1813(5) 0.3766(8)
H10 H 0.1128 0.1295 0.3799
C9 C 0.0073(10) 0.2162(5) 0.3747(7)
H11 H -0.0564 0.1891 0.3767
C10 C 0.0057(8) 0.2935(5) 0.3698(6)
H12 H -0.0609 0.3181 0.3694
O3B O 0.0837(4) 0.4736(3) 0.1913(4)
O3D O -0.0837(4) 0.4736(3) 0.3087(4)
Cd1B Cd 0.10123(5) 0.53699(3) 0.87888(4)
Cd1D Cd -0.10123(5) 0.53699(3) 0.62112(4)
loop_
_geom_bond_atom_site_label_1
_geom_bond_atom_site_label_2
_geom_bond_site_symmetry_1
_geom_bond_site_symmetry_2
Cd1 O1 1_555 1_555
P1 O2 1_555 1_555
P2 O1 1_555 1_555
O2 Cd1 1_555 1_555
O3 P1 1_555 1_555
O4 P2 1_555 1_555
H1 O4 1_555 1_555
O5 P2 1_555 1_555
H2 O5 1_555 1_555
O6 P1 1_555 1_555
H3 O6 1_555 1_555
O7 P1 1_555 1_555
H4 O7 1_555 1_555
O8 P2 1_555 1_555
N1 Cd1 1_555 1_555
N2 Cd1 1_555 1_555
C1 N1 1_555 1_555
H5 C1 1_555 1_555
C2 C1 1_555 1_555
H6 C2 1_555 1_555
C3 C2 1_555 1_555
H7 C3 1_555 1_555
C4 C3 1_555 1_555
H8 C4 1_555 1_555
C5 N1 1_555 1_555
C6 N2 1_555 1_555
C7 C6 1_555 1_555
H9 C7 1_555 1_555
C8 C7 1_555 1_555
H10 C8 1_555 1_555
C9 C8 1_555 1_555
H11 C9 1_555 1_555
C10 N2 1_555 1_555
H12 C10 1_555 1_555
O3B Cd1 1_555 1_555
O3D Cd1 1_555 1_555
Cd1B O3 1_555 1_555
Cd1D O3 1_555 1_555
C4 C5 1_555 1_555
C5 C6 1_555 1_555
C9 C10 1_555 1_555

#END
