
#######################################################################
#
#                 Cambridge Crystallographic Data Centre
#                                CCDC 
#
#######################################################################
#
# If this CIF has been generated from an entry in the Cambridge 
# Structural Database, then it will include bibliographic, chemical, 
# crystal, experimental, refinement or atomic coordinate data resulting 
# from the CCDC's data processing and validation procedures.
#
#######################################################################

data_MUZGOE
_symmetry_cell_setting           monoclinic
_symmetry_space_group_name_H-M   'C 2/c'
_symmetry_Int_Tables_number      15
_space_group_name_Hall           '-C 2yn'
loop_
_symmetry_equiv_pos_site_id
_symmetry_equiv_pos_as_xyz
1 x,y,z
2 -x,y,1/2-z
3 1/2+x,1/2+y,z
4 1/2-x,1/2+y,1/2-z
5 -x,-y,-z
6 x,-y,1/2+z
7 1/2-x,1/2-y,-z
8 1/2+x,1/2-y,1/2+z
_cell_length_a                   17.9766(16)
_cell_length_b                   14.0971(16)
_cell_length_c                   20.086(2)
_cell_angle_alpha                90
_cell_angle_beta                 101.539(3)
_cell_angle_gamma                90
_cell_volume                     4987.27
loop_
_atom_site_label
_atom_site_type_symbol
_atom_site_fract_x
_atom_site_fract_y
_atom_site_fract_z
N1 N 0.6224(2) 1.1011(3) 0.4137(2)
C1 C 0.6197(3) 1.0208(4) 0.4461(3)
H1 H 0.6148 1.0168 0.4912
N2 N 0.6247(2) 0.9460(3) 0.4070(2)
C2 C 0.6168(3) 0.8465(3) 0.4240(3)
H2 H 0.5772 0.8416 0.4503
H3 H 0.5998 0.8117 0.3821
O1 O 0.3309(2) -0.2066(3) 0.44028(18)
O2 O 0.4545(2) -0.1987(3) 0.46359(18)
C3 C 0.3927(3) -0.1922(4) 0.4231(3)
O3 O 0.51125(19) 0.2882(2) 0.36209(17)
O4 O 0.4167(2) 0.2541(3) 0.27955(18)
C4 C 0.4502(3) 0.2456(4) 0.3392(3)
Cd1 Cd 0.0000 -0.13098(4) 0.2500
Cd2 Cd 0.61080(2) 0.25245(3) 0.447624(19)
C5 C 0.6135(3) 0.4783(4) 0.4504(3)
H4 H 0.6222 0.4774 0.4063
O5 O 0.0595(2) -0.0039(3) 0.19715(16)
O6 O 0.11962(19) -0.0588(3) 0.29456(17)
C6 C 0.1165(3) -0.0072(4) 0.2438(3)
N3 N 0.6035(2) 0.5569(3) 0.4840(2)
C7 C 0.7557(3) 0.8429(3) 0.4829(2)
H5 H 0.7597 0.9063 0.4714
N4 N 0.6098(2) 0.4021(3) 0.4869(2)
C8 C 0.6060(3) 0.6532(3) 0.4590(3)
H6 H 0.5671 0.6902 0.4743
H7 H 0.5937 0.6519 0.4098
C9 C 0.5921(3) 0.5302(4) 0.5469(3)
H8 H 0.5837 0.5698 0.5816
C10 C 0.3591(3) -0.0660(4) 0.3361(2)
C11 C 0.2882(3) -0.0516(4) 0.2959(2)
H9 H 0.2607 -0.1035 0.2755
C12 C 0.6872(3) 0.7980(3) 0.4635(2)
C13 C 0.2986(3) 0.1138(4) 0.3156(3)
H10 H 0.2781 0.1745 0.3089
C14 C 0.6813(3) 0.7028(4) 0.4812(2)
C15 C 0.3994(3) 0.0115(4) 0.3654(2)
H11 H 0.4475 0.0027 0.3920
C16 C 0.5958(3) 0.4345(4) 0.5480(3)
H12 H 0.5898 0.3964 0.5844
C17 C 0.3698(3) 0.1024(4) 0.3560(2)
C18 C 0.2572(3) 0.0383(4) 0.2851(3)
C19 C 0.4151(3) 0.1861(4) 0.3875(3)
H13 H 0.4554 0.1634 0.4236
H14 H 0.3823 0.2264 0.4082
C20 C 0.1832(3) 0.0542(4) 0.2358(3)
H15 H 0.1921 0.0449 0.1902
H16 H 0.1686 0.1199 0.2394
C21 C 0.6296(4) 0.9801(5) 0.3452(3)
H17 H 0.6331 0.9447 0.3069
C22 C 0.3916(3) -0.1644(4) 0.3495(3)
H18 H 0.4428 -0.1660 0.3409
H19 H 0.3610 -0.2093 0.3192
C23 C 0.6283(4) 1.0751(5) 0.3498(3)
H20 H 0.6311 1.1169 0.3146
O7 O 0.68781(19) 0.2956(3) 0.37625(18)
H21 H 0.7338 0.2889 0.3963
H22 H 0.6788 0.2605 0.3412
N1F N 0.8776(2) 0.3989(3) 0.5863(2)
N1_2 N 0.6224(2) 0.1011(3) 0.4137(2)
N1B N 0.1224(2) -0.3989(3) 0.4137(2)
C1F C 0.8803(3) 0.4792(4) 0.5539(3)
H1F H 0.8852 0.4832 0.5088
N2F N 0.8753(2) 0.5540(3) 0.5930(2)
C2F C 0.8832(3) 0.6535(3) 0.5760(3)
H2F H 0.9228 0.6584 0.5497
H3F H 0.9002 0.6883 0.6179
O1B O -0.1691(2) -0.7066(3) 0.44028(18)
O1D O 0.6691(2) 0.2066(3) 0.55972(18)
O1F O 0.1691(2) -0.2934(3) 0.55972(18)
O2B O -0.0455(2) -0.6987(3) 0.46359(18)
O2D O 0.5455(2) 0.1987(3) 0.53641(18)
O2F O 0.0455(2) -0.3013(3) 0.53641(18)
C3B C -0.1073(3) -0.6922(4) 0.4231(3)
O3B O 0.01125(19) -0.2118(2) 0.36209(17)
O3C O -0.01125(19) -0.2118(2) 0.13791(17)
O4B O -0.0833(2) -0.2459(3) 0.27955(18)
O4C O 0.0833(2) -0.2459(3) 0.22045(18)
C4B C -0.0498(3) -0.2544(4) 0.3392(3)
Cd1B Cd 0.5000 0.36902(4) 0.2500
Cd1B_2 Cd -0.5000 -0.63098(4) 0.2500
Cd2B Cd 0.11080(2) -0.24755(3) 0.447624(19)
Cd2_2 Cd 0.61080(2) 1.25245(3) 0.447624(19)
Cd2D Cd 0.38920(2) -0.25245(3) 0.552376(19)
Cd2F Cd 0.88920(2) 1.24755(3) 0.552376(19)
Cd2F_2 Cd 0.88920(2) 0.24755(3) 0.552376(19)
Cd2F_3 Cd -0.11080(2) -0.75245(3) 0.552376(19)
C5F C 0.8865(3) 1.0217(4) 0.5496(3)
H4F H 0.8778 1.0226 0.5937
O5B O -0.4405(2) -0.5039(3) 0.19715(16)
O5A O -0.0595(2) -0.0039(3) 0.30285(16)
O6B O -0.38038(19) -0.5588(3) 0.29456(17)
O6A O -0.11962(19) -0.0588(3) 0.20544(17)
C6B C -0.3835(3) -0.5072(4) 0.2438(3)
N3F N 0.8965(2) 0.9431(3) 0.5160(2)
C7F C 0.7443(3) 0.6571(3) 0.5171(2)
H5F H 0.7403 0.5937 0.5286
N4F N 0.8902(2) 1.0979(3) 0.5131(2)
N4B N 0.1098(2) -0.0979(3) 0.4869(2)
C8F C 0.8940(3) 0.8468(3) 0.5410(3)
H6F H 0.9329 0.8098 0.5257
H7F H 0.9063 0.8481 0.5902
C9F C 0.9079(3) 0.9698(4) 0.4531(3)
H8F H 0.9163 0.9302 0.4184
C10B C -0.1409(3) -0.5660(4) 0.3361(2)
C11B C -0.2118(3) -0.5516(4) 0.2959(2)
H9B H -0.2393 -0.6035 0.2755
C12F C 0.8128(3) 0.7020(3) 0.5365(2)
C13B C -0.2014(3) -0.3862(4) 0.3156(3)
H10B H -0.2219 -0.3255 0.3089
C14F C 0.8187(3) 0.7972(4) 0.5188(2)
C15B C -0.1006(3) -0.4885(4) 0.3654(2)
H11B H -0.0525 -0.4973 0.3920
C16F C 0.9042(3) 1.0655(4) 0.4520(3)
H12F H 0.9102 1.1036 0.4156
C17B C -0.1302(3) -0.3976(4) 0.3560(2)
C18B C -0.2428(3) -0.4617(4) 0.2851(3)
C19B C -0.0849(3) -0.3139(4) 0.3875(3)
H13B H -0.0446 -0.3366 0.4236
H14B H -0.1177 -0.2736 0.4082
C20B C -0.3168(3) -0.4458(4) 0.2358(3)
H15B H -0.3079 -0.4551 0.1902
H16B H -0.3314 -0.3801 0.2394
C21F C 0.8704(4) 0.5199(5) 0.6548(3)
H17F H 0.8669 0.5553 0.6931
C22B C -0.1084(3) -0.6644(4) 0.3495(3)
H18B H -0.0572 -0.6660 0.3409
H19B H -0.1390 -0.7093 0.3192
C23F C 0.8717(4) 0.4249(5) 0.6502(3)
H20F H 0.8689 0.3831 0.6854
O7B O 0.18781(19) -0.2044(3) 0.37625(18)
H21B H 0.2338 -0.2111 0.3963
H22B H 0.1788 -0.2395 0.3412
O8 O 0.0000 0.1778(7) 0.2500
loop_
_geom_bond_atom_site_label_1
_geom_bond_atom_site_label_2
_geom_bond_site_symmetry_1
_geom_bond_site_symmetry_2
N1 C1 1_555 1_555
C1 H1 1_555 1_555
N2 C1 1_555 1_555
C2 N2 1_555 1_555
H2 C2 1_555 1_555
H3 C2 1_555 1_555
O1 C3 1_555 1_555
O2 C3 1_555 1_555
C3 C22 1_555 1_555
O3 C4 1_555 1_555
O4 C4 1_555 1_555
C4 C19 1_555 1_555
Cd1 O5 1_555 1_555
Cd2 O3 1_555 1_555
C5 H4 1_555 1_555
O5 C6 1_555 1_555
O6 Cd1 1_555 1_555
C6 O6 1_555 1_555
N3 C5 1_555 1_555
C7 H5 1_555 1_555
N4 Cd2 1_555 1_555
C8 N3 1_555 1_555
H6 C8 1_555 1_555
H7 C8 1_555 1_555
C9 N3 1_555 1_555
H8 C9 1_555 1_555
C10 C11 1_555 1_555
C11 H9 1_555 1_555
C12 C2 1_555 1_555
C13 H10 1_555 1_555
C14 C8 1_555 1_555
C15 C10 1_555 1_555
H11 C15 1_555 1_555
C16 N4 1_555 1_555
H12 C16 1_555 1_555
C17 C13 1_555 1_555
C18 C11 1_555 1_555
C19 C17 1_555 1_555
H13 C19 1_555 1_555
H14 C19 1_555 1_555
C20 C6 1_555 1_555
H15 C20 1_555 1_555
H16 C20 1_555 1_555
C21 N2 1_555 1_555
H17 C21 1_555 1_555
C22 C10 1_555 1_555
H18 C22 1_555 1_555
H19 C22 1_555 1_555
C23 N1 1_555 1_555
H20 C23 1_555 1_555
O7 Cd2 1_555 1_555
H21 O7 1_555 1_555
H22 O7 1_555 1_555
N1F C1F 1_555 1_555
N1_2 Cd2 1_555 1_555
N1B Cd2B 1_555 1_555
C1F H1F 1_555 1_555
N2F C1F 1_555 1_555
C2F N2F 1_555 1_555
H2F C2F 1_555 1_555
H3F C2F 1_555 1_555
O1B C3B 1_555 1_555
O1D Cd2 1_555 1_555
O1F Cd2B 1_555 1_555
O2B C3B 1_555 1_555
O2D Cd2 1_555 1_555
O2F Cd2B 1_555 1_555
C3B C22B 1_555 1_555
O3B Cd1 1_555 1_555
O3C Cd1 1_555 1_555
O4B Cd1 1_555 1_555
O4C Cd1 1_555 1_555
C4B O3B 1_555 1_555
Cd1B O3 1_555 1_555
Cd1B_2 O5B 1_555 1_555
Cd2B O3B 1_555 1_555
Cd2_2 N1 1_555 1_555
Cd2D O1 1_555 1_555
Cd2F N4F 1_555 1_555
Cd2F_2 N1F 1_555 1_555
Cd2F_3 O1B 1_555 1_555
C5F H4F 1_555 1_555
O5B C6B 1_555 1_555
O5A Cd1 1_555 1_555
O6B Cd1B_2 1_555 1_555
O6A Cd1 1_555 1_555
C6B O6B 1_555 1_555
N3F C5F 1_555 1_555
C7F C14 1_555 1_555
H5F C7F 1_555 1_555
N4F C5F 1_555 1_555
N4B Cd2B 1_555 1_555
C8F N3F 1_555 1_555
H6F C8F 1_555 1_555
H7F C8F 1_555 1_555
C9F N3F 1_555 1_555
H8F C9F 1_555 1_555
C10B C11B 1_555 1_555
C11B H9B 1_555 1_555
C12F C2F 1_555 1_555
C13B H10B 1_555 1_555
C14F C7 1_555 1_555
C15B C10B 1_555 1_555
H11B C15B 1_555 1_555
C16F N4F 1_555 1_555
H12F C16F 1_555 1_555
C17B C13B 1_555 1_555
C18B C11B 1_555 1_555
C19B C4B 1_555 1_555
H13B C19B 1_555 1_555
H14B C19B 1_555 1_555
C20B C6B 1_555 1_555
H15B C20B 1_555 1_555
H16B C20B 1_555 1_555
C21F N2F 1_555 1_555
H17F C21F 1_555 1_555
C22B C10B 1_555 1_555
H18B C22B 1_555 1_555
H19B C22B 1_555 1_555
C23F N1F 1_555 1_555
H20F C23F 1_555 1_555
O7B Cd2B 1_555 1_555
H21B O7B 1_555 1_555
H22B O7B 1_555 1_555
O2 Cd2D 1_555 1_555
O4 Cd1B 1_555 1_555
C5 N4 1_555 1_555
C7 C12 1_555 1_555
C9 C16 1_555 1_555
C12 C14 1_555 1_555
C13 C18 1_555 1_555
C15 C17 1_555 1_555
C18 C20 1_555 1_555
C21 C23 1_555 1_555
O2B Cd2F_3 1_555 1_555
O4B C4B 1_555 1_555
C7F C12F 1_555 1_555
C8F C14F 1_555 1_555
C9F C16F 1_555 1_555
C12F C14F 1_555 1_555
C13B C18B 1_555 1_555
C15B C17B 1_555 1_555
C17B C19B 1_555 1_555
C18B C20B 1_555 1_555
C21F C23F 1_555 1_555

#END
