
#######################################################################
#
#                 Cambridge Crystallographic Data Centre
#                                CCDC 
#
#######################################################################
#
# If this CIF has been generated from an entry in the Cambridge 
# Structural Database, then it will include bibliographic, chemical, 
# crystal, experimental, refinement or atomic coordinate data resulting 
# from the CCDC's data processing and validation procedures.
#
#######################################################################

data_MUZHEV
_symmetry_cell_setting           triclinic
_symmetry_space_group_name_H-M   'P -1'
_symmetry_Int_Tables_number      2
_space_group_name_Hall           '-P 1'
loop_
_symmetry_equiv_pos_site_id
_symmetry_equiv_pos_as_xyz
1 x,y,z
2 -x,-y,-z
_cell_length_a                   9.9236(13)
_cell_length_b                   11.6713(15)
_cell_length_c                   11.9072(16)
_cell_angle_alpha                98.271(2)
_cell_angle_beta                 109.8030(10)
_cell_angle_gamma                99.816(2)
_cell_volume                     1247.96
loop_
_atom_site_label
_atom_site_type_symbol
_atom_site_fract_x
_atom_site_fract_y
_atom_site_fract_z
C1 C 1.0062(4) 0.4592(3) 0.6074(4)
C2 C 1.0494(4) 0.3976(3) 0.5213(4)
C3 C 0.9575(4) 0.5613(3) 0.5831(4)
H1 H 0.9283 0.6036 0.6396
C4 C 1.0109(6) 0.4170(4) 0.7213(4)
H2 H 0.9325 0.3461 0.6999
H3 H 1.1039 0.3954 0.7570
C5 C 1.1027(6) 0.5988(5) 0.8923(5)
H4 H 1.2033 0.6116 0.9090
C6 C 1.0328(7) 0.6679(5) 0.9427(5)
H5 H 1.0801 0.7379 1.0020
C7 C 0.8664(5) 0.5248(4) 0.8163(4)
H6 H 0.7752 0.4741 0.7685
C8 C 1.1069(4) 0.2859(3) 0.5354(4)
H7 H 1.1985 0.2956 0.5212
H8 H 1.1282 0.2760 0.6187
C9 C 0.8861(5) 0.1129(4) 0.4690(4)
H9 H 0.8564 0.1285 0.5347
C10 C 0.8231(5) 0.0210(4) 0.3709(4)
H10 H 0.7409 -0.0389 0.3577
C11 C 1.0074(5) 0.1255(3) 0.3457(4)
H11 H 1.0772 0.1528 0.3137
C12 C 1.4983(4) -0.3118(3) 0.2574(4)
C13 C 1.4447(4) -0.2128(4) 0.2278(4)
H12 H 1.4424 -0.1906 0.1553
C14 C 1.3948(4) -0.1474(4) 0.3051(4)
C15 C 1.3981(4) -0.1846(4) 0.4127(4)
H13 H 1.3673 -0.1401 0.4665
C16 C 1.4450(4) -0.2842(4) 0.4413(4)
C17 C 1.4976(4) -0.3464(4) 0.3638(4)
H14 H 1.5331 -0.4126 0.3835
C18 C 1.5466(5) -0.3851(4) 0.1699(4)
H15 H 1.4592 -0.4290 0.1002
H16 H 1.5917 -0.4432 0.2102
C19 C 1.6534(4) -0.3186(3) 0.1220(4)
C20 C 1.3328(5) -0.0418(4) 0.2719(5)
H17 H 1.3716 -0.0124 0.2141
H18 H 1.3682 0.0211 0.3450
C21 C 1.1653(5) -0.0662(4) 0.2167(4)
C22 C 1.4331(5) -0.3268(5) 0.5508(4)
H19 H 1.3828 -0.4105 0.5247
H20 H 1.3709 -0.2844 0.5794
C23 C 1.5760(5) -0.3134(4) 0.6591(4)
H21 H 0.827(4) -0.097(3) -0.050(4)
N1 N 0.8846(4) 0.6222(3) 0.8959(3)
N2 N 0.9948(4) 0.5071(3) 0.8123(3)
N3 N 0.8992(4) 0.0291(3) 0.2929(3)
N4 N 1.0034(3) 0.1787(2) 0.4516(3)
O1 O 1.7446(3) -0.2260(2) 0.1904(2)
O2 O 1.6478(4) -0.3646(2) 0.0202(3)
O3 O 1.1076(3) 0.0017(3) 0.1534(3)
O4 O 1.0876(3) -0.1504(2) 0.2392(3)
O5 O 1.6942(4) -0.2867(3) 0.6505(3)
O6 O 1.5569(3) -0.3359(3) 0.7549(3)
O7 O 0.7910(4) -0.1325(3) -0.0141(3)
Zn1 Zn 0.88992(5) -0.10047(4) 0.15946(4)
Zn2 Zn 0.72703(6) 0.70254(4) 0.90642(4)
C1A C 0.9938(4) 0.5408(3) 0.3926(4)
C2A C 0.9506(4) 0.6024(3) 0.4787(4)
C3A C 1.0425(4) 0.4387(3) 0.4169(4)
H1A H 1.0717 0.3964 0.3604
C4A C 0.9891(6) 0.5830(4) 0.2787(4)
H2A H 1.0675 0.6539 0.3001
H3A H 0.8961 0.6046 0.2430
C5A C 0.8973(6) 0.4012(5) 0.1077(5)
H4A H 0.7967 0.3884 0.0910
C6A C 0.9672(7) 0.3321(5) 0.0573(5)
H5A H 0.9199 0.2621 -0.0020
C7A C 1.1336(5) 0.4752(4) 0.1837(4)
H6A H 1.2248 0.5259 0.2315
C8A C 0.8931(4) 0.7141(3) 0.4646(4)
H7A H 0.8015 0.7044 0.4788
H8A H 0.8718 0.7240 0.3813
C9A C 1.1139(5) 0.8871(4) 0.5310(4)
H9A H 1.1436 0.8715 0.4653
C10A C 1.1769(5) 0.9790(4) 0.6291(4)
H10A H 1.2591 1.0389 0.6423
C11A C 0.9926(5) 0.8745(3) 0.6543(4)
H11A H 0.9228 0.8472 0.6863
C12_2 C 0.4983(4) -0.3118(3) 0.2574(4)
C13_2 C 0.4447(4) -0.2128(4) 0.2278(4)
H12_2 H 0.4424 -0.1906 0.1553
C14_2 C 0.3948(4) -0.1474(4) 0.3051(4)
C15_2 C 0.3981(4) -0.1846(4) 0.4127(4)
H13_2 H 0.3673 -0.1401 0.4665
C16_2 C 0.4450(4) -0.2842(4) 0.4413(4)
C17_2 C 0.4976(4) -0.3464(4) 0.3638(4)
H14_2 H 0.5331 -0.4126 0.3835
C18_2 C 0.5466(5) -0.3851(4) 0.1699(4)
H15_2 H 0.4592 -0.4290 0.1002
H16_2 H 0.5917 -0.4432 0.2102
C19_2 C 0.6534(4) -0.3186(3) 0.1220(4)
C20_2 C 0.3328(5) -0.0418(4) 0.2719(5)
H17_2 H 0.3716 -0.0124 0.2141
H18_2 H 0.3682 0.0211 0.3450
C21_2 C 0.1653(5) -0.0662(4) 0.2167(4)
C22_2 C 0.4331(5) -0.3268(5) 0.5508(4)
H19_2 H 0.3828 -0.4105 0.5247
H20_2 H 0.3709 -0.2844 0.5794
C23_2 C 0.5760(5) -0.3134(4) 0.6591(4)
H21_2 H 0.827(4) 0.903(3) 0.950(4)
H21_3 H -0.173(4) -0.097(3) -0.050(4)
H21A H 1.173(4) 0.097(3) 0.050(4)
N1A N 1.1154(4) 0.3778(3) 0.1041(3)
N2A N 1.0052(4) 0.4929(3) 0.1877(3)
N3A N 1.1008(4) 0.9709(3) 0.7071(3)
N3_2 N -0.1008(4) 0.0291(3) 0.2929(3)
N4A N 0.9966(3) 0.8213(2) 0.5484(3)
O1_2 O 0.7446(3) -0.2260(2) 0.1904(2)
O1_3 O -0.2554(3) -0.2260(2) 0.1904(2)
O2_2 O 0.6478(4) -0.3646(2) 0.0202(3)
O2_3 O 0.6478(4) 0.6354(2) 1.0202(3)
O2A O 1.3522(4) 0.3646(2) -0.0202(3)
O3_2 O 0.1076(3) 0.0017(3) 0.1534(3)
O4_2 O 0.0876(3) -0.1504(2) 0.2392(3)
O5_2 O 0.6942(4) -0.2867(3) 0.6505(3)
O6_2 O 0.5569(3) -0.3359(3) 0.7549(3)
O6_3 O 0.5569(3) 0.6641(3) 0.7549(3)
O6A O 1.4431(3) 0.3359(3) 0.2451(3)
O7_2 O 0.7910(4) 0.8675(3) 0.9859(3)
O7_3 O -0.2090(4) -0.1325(3) -0.0141(3)
O7A O 1.2090(4) 0.1325(3) 0.0141(3)
Zn1_2 Zn -0.11008(5) -0.10047(4) 0.15946(4)
Zn1_3 Zn 1.88992(5) -0.10047(4) 0.15946(4)
Zn1A Zn 1.11008(5) 1.10047(4) 0.84054(4)
Zn1_4 Zn 0.88992(5) 0.89953(4) 1.15946(4)
Zn2A Zn 1.27297(6) 0.29746(4) 0.09358(4)
Zn2_2 Zn 1.72703(6) -0.29746(4) -0.09358(4)
Zn2_3 Zn 1.72703(6) -0.29746(4) 0.90642(4)
Zn2_4 Zn 0.72703(6) -0.29746(4) -0.09358(4)
Zn2_5 Zn 0.72703(6) -0.29746(4) 0.90642(4)
O9 O 0.364(2) 0.776(2) 0.861(2)
O8? O 0.529(2) 0.956(3) 0.985(2)
loop_
_geom_bond_atom_site_label_1
_geom_bond_atom_site_label_2
_geom_bond_site_symmetry_1
_geom_bond_site_symmetry_2
C1 C2 1_555 1_555
C2 C8 1_555 1_555
C3 C1 1_555 1_555
H1 C3 1_555 1_555
C4 C1 1_555 1_555
H2 C4 1_555 1_555
H3 C4 1_555 1_555
C5 H4 1_555 1_555
C6 C5 1_555 1_555
H5 C6 1_555 1_555
C7 H6 1_555 1_555
C8 H7 1_555 1_555
H8 C8 1_555 1_555
C9 H9 1_555 1_555
C10 C9 1_555 1_555
H10 C10 1_555 1_555
C11 H11 1_555 1_555
C12 C13 1_555 1_555
C13 H12 1_555 1_555
C14 C13 1_555 1_555
C15 C14 1_555 1_555
H13 C15 1_555 1_555
C16 C15 1_555 1_555
C17 C12 1_555 1_555
H14 C17 1_555 1_555
C18 C12 1_555 1_555
H15 C18 1_555 1_555
H16 C18 1_555 1_555
C19 C18 1_555 1_555
C20 C14 1_555 1_555
H17 C20 1_555 1_555
H18 C20 1_555 1_555
C21 C20 1_555 1_555
C22 C16 1_555 1_555
H19 C22 1_555 1_555
H20 C22 1_555 1_555
C23 C22 1_555 1_555
H21 O7 1_555 1_555
N1 C6 1_555 1_555
N2 C4 1_555 1_555
N3 C10 1_555 1_555
N4 C8 1_555 1_555
O1 C19 1_555 1_555
O2 C19 1_555 1_555
O3 C21 1_555 1_555
O4 C21 1_555 1_555
O5 C23 1_555 1_555
O6 C23 1_555 1_555
O7 Zn1 1_555 1_555
Zn1 N3 1_555 1_555
Zn2 N1 1_555 1_555
C1A C2A 1_555 1_555
C2A C3 1_555 1_555
C3A C2 1_555 1_555
H1A C3A 1_555 1_555
C4A C1A 1_555 1_555
H2A C4A 1_555 1_555
H3A C4A 1_555 1_555
C5A H4A 1_555 1_555
C6A C5A 1_555 1_555
H5A C6A 1_555 1_555
C7A H6A 1_555 1_555
C8A C2A 1_555 1_555
H7A C8A 1_555 1_555
H8A C8A 1_555 1_555
C9A H9A 1_555 1_555
C10A C9A 1_555 1_555
H10A C10A 1_555 1_555
C11A H11A 1_555 1_555
C12_2 C13_2 1_555 1_555
C13_2 H12_2 1_555 1_555
C14_2 C13_2 1_555 1_555
C15_2 C14_2 1_555 1_555
H13_2 C15_2 1_555 1_555
C16_2 C15_2 1_555 1_555
C17_2 C12_2 1_555 1_555
H14_2 C17_2 1_555 1_555
C18_2 C12_2 1_555 1_555
H15_2 C18_2 1_555 1_555
H16_2 C18_2 1_555 1_555
C19_2 C18_2 1_555 1_555
C20_2 C14_2 1_555 1_555
H17_2 C20_2 1_555 1_555
H18_2 C20_2 1_555 1_555
C21_2 C20_2 1_555 1_555
C22_2 C16_2 1_555 1_555
H19_2 C22_2 1_555 1_555
H20_2 C22_2 1_555 1_555
C23_2 C22_2 1_555 1_555
H21_2 O7_2 1_555 1_555
H21_3 O7_3 1_555 1_555
H21A O7A 1_555 1_555
N1A C6A 1_555 1_555
N2A C4A 1_555 1_555
N3A C10A 1_555 1_555
N3_2 Zn1_2 1_555 1_555
N4A C8A 1_555 1_555
O1_2 Zn1 1_555 1_555
O1_3 Zn1_2 1_555 1_555
O2_2 C19_2 1_555 1_555
O2_3 Zn2 1_555 1_555
O2A Zn2A 1_555 1_555
O3_2 C21_2 1_555 1_555
O4_2 C21_2 1_555 1_555
O5_2 C23_2 1_555 1_555
O6_2 C23_2 1_555 1_555
O6_3 Zn2 1_555 1_555
O6A Zn2A 1_555 1_555
O7_2 Zn2 1_555 1_555
O7_3 Zn1_2 1_555 1_555
O7A Zn2A 1_555 1_555
Zn1_2 O3_2 1_555 1_555
Zn1_3 O1 1_555 1_555
Zn1A N3A 1_555 1_555
Zn1_4 O7_2 1_555 1_555
Zn2A N1A 1_555 1_555
Zn2_2 O2 1_555 1_555
Zn2_3 O6 1_555 1_555
Zn2_4 O7 1_555 1_555
Zn2_5 O6_2 1_555 1_555
C5 N2 1_555 1_555
C7 N1 1_555 1_555
C7 N2 1_555 1_555
C9 N4 1_555 1_555
C11 N3 1_555 1_555
C11 N4 1_555 1_555
C16 C17 1_555 1_555
O3 Zn1 1_555 1_555
O4 Zn1 1_555 1_555
C1A C3A 1_555 1_555
C5A N2A 1_555 1_555
C7A N1A 1_555 1_555
C7A N2A 1_555 1_555
C9A N4A 1_555 1_555
C11A N3A 1_555 1_555
C11A N4A 1_555 1_555
C16_2 C17_2 1_555 1_555
C19_2 O1_2 1_555 1_555
O2_2 Zn2_4 1_555 1_555
O4_2 Zn1_2 1_555 1_555

#END
