
#######################################################################
#
#                 Cambridge Crystallographic Data Centre
#                                CCDC 
#
#######################################################################
#
# If this CIF has been generated from an entry in the Cambridge 
# Structural Database, then it will include bibliographic, chemical, 
# crystal, experimental, refinement or atomic coordinate data resulting 
# from the CCDC's data processing and validation procedures.
#
#######################################################################

data_MUZJOH
_symmetry_cell_setting           monoclinic
_symmetry_space_group_name_H-M   'P 21/c'
_symmetry_Int_Tables_number      14
_space_group_name_Hall           '-P 2ybc'
loop_
_symmetry_equiv_pos_site_id
_symmetry_equiv_pos_as_xyz
1 x,y,z
2 -x,1/2+y,1/2-z
3 -x,-y,-z
4 x,1/2-y,1/2+z
_cell_length_a                   8.4997(17)
_cell_length_b                   16.760(3)
_cell_length_c                   16.590(3)
_cell_angle_alpha                90
_cell_angle_beta                 97.57(3)
_cell_angle_gamma                90
_cell_volume                     2342.73
loop_
_atom_site_label
_atom_site_type_symbol
_atom_site_fract_x
_atom_site_fract_y
_atom_site_fract_z
Mn1 Mn 0.69662(2) 0.219101(12) 0.481309(12)
N1 N 0.77127(15) 0.34140(7) 0.58764(7)
N2 N 0.87748(14) 0.13885(7) 0.64358(8)
N3 N 0.42032(14) -0.19537(7) 0.11830(7)
N4 N 0.64690(13) 0.10986(7) 0.40196(7)
N5 N 0.89551(14) 0.20420(7) 0.40117(7)
N6 N 0.45052(14) 0.16754(7) 0.49883(7)
O1 O 0.80259(14) 0.39418(7) 0.63847(7)
O2 O 0.63837(12) 0.30614(6) 0.57862(7)
O3 O 0.86935(13) 0.32009(7) 0.54065(7)
O4 O 0.93897(15) 0.07712(7) 0.67483(7)
O5 O 0.89152(16) 0.20379(7) 0.67837(7)
O6 O 0.79765(13) 0.13274(6) 0.57335(7)
C1 C 0.50298(16) -0.13096(8) 0.09986(9)
H1 H 0.5218 -0.1242 0.0463
C2 C 0.39735(17) -0.20410(8) 0.19652(9)
H2 H 0.3434 -0.2492 0.2108
C3 C 0.56152(16) -0.07407(8) 0.15672(9)
H3 H 0.6199 -0.031 0.1415
C4 C 0.44953(17) -0.14974(8) 0.25690(9)
H4 H 0.4299 -0.1582 0.3101
C5 C 0.53192(16) -0.08216(8) 0.23697(8)
C6 C 0.57691(16) -0.01797(8) 0.29716(8)
C7 C 0.71948(16) 0.02322(8) 0.29854(8)
H5 H 0.7931 0.0081 0.2647
C8 C 0.47131(16) 0.00480(8) 0.35056(8)
H6 H 0.3762 -0.0224 0.3514
C9 C 0.74996(16) 0.08759(8) 0.35156(8)
C10 C 0.51091(16) 0.06901(8) 0.40265(8)
C11 C 0.89348(16) 0.13888(8) 0.35353(8)
C12 C 0.40481(16) 0.09889(8) 0.46035(8)
C13 C 1.01332(17) 0.12288(9) 0.30663(9)
H7 H 1.011 0.0766 0.2756
C14 C 0.26638(16) 0.05908(8) 0.47344(8)
H8 H 0.2382 0.0113 0.4468
C15 C 1.13669(17) 0.17711(10) 0.30678(9)
H9 H 1.2186 0.1675 0.276
C16 C 0.17147(17) 0.09180(9) 0.52675(9)
H10 H 0.0788 0.0662 0.5366
C17 C 1.13644(18) 0.24549(9) 0.35321(9)
H11 H 1.2161 0.2835 0.3529
C18 C 0.21650(17) 0.16310(9) 0.56518(9)
H12 H 0.1541 0.1867 0.6005
C19 C 1.01502(17) 0.25622(9) 0.40025(9)
H13 H 1.0165 0.3016 0.4326
C20 C 0.35667(17) 0.19834(9) 0.54968(9)
H14 H 0.3873 0.246 0.576
Mn1A Mn 0.30338(2) -0.280899(12) 0.018691(12)
N3A N 0.57968(14) 0.30463(7) 0.38170(7)
Cl1 Cl 0.13372(4) 0.52788(2) 0.65920(2)
Cl2 Cl 0.34519(5) 0.39604(2) 0.63925(3)
Cl3 Cl 0.20280(5) 0.48271(3) 0.49874(2)
C21 C 0.17348(19) 0.44821(9) 0.59593(10)
H15 H 0.090(2) 0.4152(12) 0.5913(11)
loop_
_geom_bond_atom_site_label_1
_geom_bond_atom_site_label_2
_geom_bond_site_symmetry_1
_geom_bond_site_symmetry_2
Mn1 N4 1_555 1_555
N1 O1 1_555 1_555
N2 O4 1_555 1_555
N3 C1 1_555 1_555
N4 C9 1_555 1_555
N5 Mn1 1_555 1_555
N6 Mn1 1_555 1_555
O2 Mn1 1_555 1_555
O3 Mn1 1_555 1_555
O5 N2 1_555 1_555
O6 Mn1 1_555 1_555
C1 H1 1_555 1_555
C2 N3 1_555 1_555
H2 C2 1_555 1_555
C3 C1 1_555 1_555
H3 C3 1_555 1_555
C4 C2 1_555 1_555
H4 C4 1_555 1_555
C5 C3 1_555 1_555
C6 C5 1_555 1_555
C7 C6 1_555 1_555
H5 C7 1_555 1_555
C8 C6 1_555 1_555
H6 C8 1_555 1_555
C9 C7 1_555 1_555
C10 N4 1_555 1_555
C11 N5 1_555 1_555
C12 N6 1_555 1_555
C13 C11 1_555 1_555
H7 C13 1_555 1_555
C14 C12 1_555 1_555
H8 C14 1_555 1_555
C15 C13 1_555 1_555
H9 C15 1_555 1_555
C16 C14 1_555 1_555
H10 C16 1_555 1_555
C17 C15 1_555 1_555
H11 C17 1_555 1_555
C18 C16 1_555 1_555
H12 C18 1_555 1_555
C19 N5 1_555 1_555
H13 C19 1_555 1_555
C20 N6 1_555 1_555
H14 C20 1_555 1_555
Cl1 C21 1_555 1_555
Cl2 C21 1_555 1_555
Cl3 C21 1_555 1_555
C21 H15 1_555 1_555
Mn1A N3 1_555 1_555
N3A Mn1 1_555 1_555
N1 O2 1_555 1_555
N1 O3 1_555 1_555
N2 O6 1_555 1_555
C4 C5 1_555 1_555
C8 C10 1_555 1_555
C9 C11 1_555 1_555
C10 C12 1_555 1_555
C17 C19 1_555 1_555
C18 C20 1_555 1_555

#END
