
#######################################################################
#
#                 Cambridge Crystallographic Data Centre
#                                CCDC 
#
#######################################################################
#
# If this CIF has been generated from an entry in the Cambridge 
# Structural Database, then it will include bibliographic, chemical, 
# crystal, experimental, refinement or atomic coordinate data resulting 
# from the CCDC's data processing and validation procedures.
#
#######################################################################

data_MUZKIC
_symmetry_cell_setting           monoclinic
_symmetry_space_group_name_H-M   'C 2/c'
_symmetry_Int_Tables_number      15
_space_group_name_Hall           '-C 2yn'
loop_
_symmetry_equiv_pos_site_id
_symmetry_equiv_pos_as_xyz
1 x,y,z
2 -x,y,1/2-z
3 1/2+x,1/2+y,z
4 1/2-x,1/2+y,1/2-z
5 -x,-y,-z
6 x,-y,1/2+z
7 1/2-x,1/2-y,-z
8 1/2+x,1/2-y,1/2+z
_cell_length_a                   16.5252(12)
_cell_length_b                   11.5943(6)
_cell_length_c                   12.8074(10)
_cell_angle_alpha                90
_cell_angle_beta                 101.997(9)
_cell_angle_gamma                90
_cell_volume                     2400.28
loop_
_atom_site_label
_atom_site_type_symbol
_atom_site_fract_x
_atom_site_fract_y
_atom_site_fract_z
Fe1 Fe 0.5000 0.66027(4) 0.7500
N1 N 0.5000 0.4659(3) 0.7500
N2 N 0.5000 -0.1467(3) 0.7500
C1 C 0.54729(16) 0.4051(2) 0.6957(2)
H1 H 0.5819 0.4462 0.6580
C2 C 0.54789(16) 0.2855(2) 0.6920(2)
H2 H 0.5806 0.2463 0.6503
C3 C 0.5000 0.2236(3) 0.7500
C4 C 0.5000 0.0952(3) 0.7500
C5 C 0.4749(2) 0.0331(2) 0.6558(2)
H3 H 0.4578 0.0722 0.5897
C6 C 0.47504(19) -0.0864(2) 0.6597(2)
H4 H 0.4565 -0.1277 0.5951
N3 N 0.60139(14) 0.6763(2) 0.65544(18)
C7 C 0.6764(3) 0.7134(6) 0.7001(3)
H5 H 0.6901 0.7207 0.7756
C8 C 0.7359(3) 0.7423(7) 0.6428(3)
H6 H 0.7887 0.7681 0.6796
C9 C 0.71927(19) 0.7338(3) 0.5322(2)
C10 C 0.64366(16) 0.6882(3) 0.4872(2)
H7 H 0.6296 0.6745 0.4125
C11 C 0.58738(17) 0.6618(3) 0.5506(2)
H8 H 0.5353 0.6313 0.5164
N4 N 0.40977(14) 0.6512(2) 0.60696(19)
C12 C 0.35488(16) 0.6320(2) 0.5359(2)
S1 S 0.27959(5) 0.60459(8) 0.43444(6)
Fe1_2 Fe 0.5000 -0.33973(4) 0.7500
Fe1F Fe 1.0000 0.83973(4) 0.2500
N2_2 N 0.5000 0.8533(3) 0.7500
C1A C 0.45271(16) 0.4051(2) 0.8043(2)
H1A H 0.4181 0.4462 0.8420
C2A C 0.45211(16) 0.2855(2) 0.8080(2)
H2A H 0.4194 0.2463 0.8497
C5A C 0.5251(2) 0.0331(2) 0.8442(2)
H3A H 0.5422 0.0722 0.9103
C6A C 0.52496(19) -0.0864(2) 0.8403(2)
H4A H 0.5435 -0.1277 0.9049
N3F N 0.89861(14) 0.8237(2) 0.34456(18)
N3A N 0.39861(14) 0.6763(2) 0.84456(18)
C7F C 0.8236(3) 0.7866(6) 0.2999(3)
H5F H 0.8099 0.7793 0.2244
C8F C 0.7641(3) 0.7577(7) 0.3572(3)
H6F H 0.7113 0.7319 0.3204
C9F C 0.78073(19) 0.7662(3) 0.4678(2)
C10F C 0.85634(16) 0.8118(3) 0.5128(2)
H7F H 0.8704 0.8255 0.5875
C11F C 0.91262(17) 0.8382(3) 0.4494(2)
H8F H 0.9647 0.8687 0.4836
N4A N 0.59023(14) 0.6512(2) 0.89304(19)
C12A C 0.64512(16) 0.6320(2) 0.9641(2)
S1A S 0.72041(5) 0.60459(8) 1.06556(6)
O1 O 0.6482(3) 0.0901(5) 0.5893(4)
H9 H 0.6830 0.1132 0.5548
C13 C 0.6827(5) -0.0015(8) 0.6452(10)
H10 H 0.7394 0.0176 0.6815
H11 H 0.6838 -0.0666 0.5966
H12 H 0.6503 -0.0225 0.6982
C14? C 0.6930(12) 0.0565(16) 0.6854(16)
H13? H 0.6573 0.0144 0.7244
H14? H 0.7159 0.1246 0.7264
H15? H 0.7383 0.0063 0.6747
loop_
_geom_bond_atom_site_label_1
_geom_bond_atom_site_label_2
_geom_bond_site_symmetry_1
_geom_bond_site_symmetry_2
Fe1 N1 1_555 1_555
N1 C1 1_555 1_555
N2 C6 1_555 1_555
C1 H1 1_555 1_555
C2 C1 1_555 1_555
H2 C2 1_555 1_555
C3 C2 1_555 1_555
C4 C3 1_555 1_555
C5 C4 1_555 1_555
H3 C5 1_555 1_555
C6 C5 1_555 1_555
H4 C6 1_555 1_555
N3 Fe1 1_555 1_555
C7 N3 1_555 1_555
H5 C7 1_555 1_555
C8 C7 1_555 1_555
H6 C8 1_555 1_555
C9 C8 1_555 1_555
C10 C9 1_555 1_555
H7 C10 1_555 1_555
C11 N3 1_555 1_555
H8 C11 1_555 1_555
N4 Fe1 1_555 1_555
C12 N4 1_555 1_555
S1 C12 1_555 1_555
O1 H9 1_555 1_555
C13 O1 1_555 1_555
H10 C13 1_555 1_555
H11 C13 1_555 1_555
H12 C13 1_555 1_555
Fe1_2 N2 1_555 1_555
Fe1F N3F 1_555 1_555
N2_2 Fe1 1_555 1_555
C1A N1 1_555 1_555
H1A C1A 1_555 1_555
C2A C3 1_555 1_555
H2A C2A 1_555 1_555
C5A C4 1_555 1_555
H3A C5A 1_555 1_555
C6A N2 1_555 1_555
H4A C6A 1_555 1_555
N3F C7F 1_555 1_555
N3A Fe1 1_555 1_555
C7F H5F 1_555 1_555
C8F C7F 1_555 1_555
H6F C8F 1_555 1_555
C9F C9 1_555 1_555
C10F C9F 1_555 1_555
H7F C10F 1_555 1_555
C11F N3F 1_555 1_555
H8F C11F 1_555 1_555
N4A Fe1 1_555 1_555
C12A N4A 1_555 1_555
S1A C12A 1_555 1_555
C10 C11 1_555 1_555
C1A C2A 1_555 1_555
C5A C6A 1_555 1_555
C8F C9F 1_555 1_555
C10F C11F 1_555 1_555

#END
