
#######################################################################
#
#                 Cambridge Crystallographic Data Centre
#                                CCDC 
#
#######################################################################
#
# If this CIF has been generated from an entry in the Cambridge 
# Structural Database, then it will include bibliographic, chemical, 
# crystal, experimental, refinement or atomic coordinate data resulting 
# from the CCDC's data processing and validation procedures.
#
#######################################################################

data_MUZNAX
_symmetry_cell_setting           monoclinic
_symmetry_space_group_name_H-M   'C 2/c'
_symmetry_Int_Tables_number      15
_space_group_name_Hall           '-C 2yn'
loop_
_symmetry_equiv_pos_site_id
_symmetry_equiv_pos_as_xyz
1 x,y,z
2 -x,y,1/2-z
3 1/2+x,1/2+y,z
4 1/2-x,1/2+y,1/2-z
5 -x,-y,-z
6 x,-y,1/2+z
7 1/2-x,1/2-y,-z
8 1/2+x,1/2-y,1/2+z
_cell_length_a                   23.484(6)
_cell_length_b                   10.138(3)
_cell_length_c                   21.249(5)
_cell_angle_alpha                90
_cell_angle_beta                 108.395(5)
_cell_angle_gamma                90
_cell_volume                     4800.48
loop_
_atom_site_label
_atom_site_type_symbol
_atom_site_fract_x
_atom_site_fract_y
_atom_site_fract_z
Mn1 Mn 0.970147(13) 0.15520(3) 0.551462(14)
C1 C 1.03039(9) 0.51828(19) 0.63360(9)
C2 C 1.00874(9) 0.62951(19) 0.59484(9)
H1 H 0.9864 0.6193 0.5504
C3 C 1.02012(9) 0.75546(19) 0.62173(10)
C4 C 1.05280(10) 0.7704(2) 0.68871(10)
H2 H 1.0591 0.8541 0.7075
C5 C 1.07608(10) 0.6600(2) 0.72740(10)
C6 C 1.06518(10) 0.5336(2) 0.69976(10)
H3 H 1.0811 0.4600 0.7254
C7 C 1.01341(9) 0.38422(19) 0.60304(9)
C8 C 1.11157(11) 0.6814(2) 0.79893(10)
C9 C 0.99834(9) 0.87503(19) 0.57874(10)
C10 C 0.85057(12) 0.3502(3) 1.02154(12)
H4 H 0.8855 0.3254 1.0546
C11 C 0.84796(11) 0.3307(3) 0.95612(11)
H5 H 0.8806 0.2959 0.9458
C12 C 0.79518(10) 0.3644(2) 0.90604(10)
C13 C 0.78797(9) 0.3415(2) 0.83565(10)
C14 C 0.74769(12) 0.4156(3) 0.92441(11)
H6 H 0.7116 0.4373 0.8925
C15 C 0.75544(13) 0.4337(3) 0.99132(12)
H7 H 0.7238 0.4694 1.0032
C16 C 0.63661(10) 0.2271(2) 0.56785(10)
H8 H 0.6229 0.1500 0.5442
C17 C 0.68112(10) 0.2180(2) 0.62829(10)
H9 H 0.6976 0.1365 0.6442
C18 C 0.70122(9) 0.3319(2) 0.66534(10)
C19 C 0.67533(10) 0.4511(2) 0.63888(11)
H10 H 0.6873 0.5292 0.6623
C20 C 0.63144(10) 0.4525(2) 0.57728(11)
H11 H 0.6147 0.5331 0.5600
C21 C 0.85986(11) 0.2491(3) 0.59705(11)
H12 H 0.8490 0.2836 0.5543
C22 C 0.82625(10) 0.2854(2) 0.63696(10)
H13 H 0.7939 0.3426 0.6211
C23 C 0.84101(9) 0.2356(2) 0.70134(9)
C24 C 0.88937(11) 0.1485(2) 0.72100(11)
H14 H 0.9008 0.1118 0.7633
C25 C 0.92036(11) 0.1168(3) 0.67735(11)
H15 H 0.9520 0.0573 0.6914
C26 C 0.80697(9) 0.2791(2) 0.74483(9)
N1 N 0.73775(8) 0.3645(2) 0.78701(9)
H16 H 0.7050 0.3970 0.7903
N2 N 0.90728(9) 0.16719(19) 0.61585(9)
N3 N 0.61198(8) 0.34344(18) 0.54145(8)
N4 N 0.80613(10) 0.4024(2) 1.04001(9)
C27 C 0.74868(9) 0.3258(2) 0.73045(10)
N5 N 0.83170(7) 0.28935(17) 0.81282(8)
O1 O 0.96784(7) 0.37468(15) 0.55264(7)
O2 O 1.04427(7) 0.28305(14) 0.62812(7)
O3 O 0.97628(7) 0.85865(15) 0.51658(7)
O4 O 1.00408(7) 0.98545(14) 0.60686(7)
O5 O 1.10695(9) 0.77925(18) 0.82899(8)
O6 O 1.14829(10) 0.58183(19) 0.82466(8)
H17 H 1.1659 0.5966 0.8640
Mn1F Mn 0.529853(13) 0.34480(3) 0.448538(14)
Mn1D Mn 1.029853(13) 0.84480(3) 0.448538(14)
Mn1_2 Mn 0.970147(13) 1.15520(3) 0.551462(14)
N3F N 0.88802(8) 0.15656(18) 0.45855(8)
O3D O 1.02372(7) 0.14135(15) 0.48342(7)
O4_2 O 1.00408(7) -0.01455(14) 0.60686(7)
loop_
_geom_bond_atom_site_label_1
_geom_bond_atom_site_label_2
_geom_bond_site_symmetry_1
_geom_bond_site_symmetry_2
Mn1 N2 1_555 1_555
C1 C2 1_555 1_555
C2 H1 1_555 1_555
C3 C2 1_555 1_555
C4 C3 1_555 1_555
H2 C4 1_555 1_555
C5 C4 1_555 1_555
C6 C1 1_555 1_555
H3 C6 1_555 1_555
C7 C1 1_555 1_555
C8 C5 1_555 1_555
C9 C3 1_555 1_555
C10 H4 1_555 1_555
C11 C10 1_555 1_555
H5 C11 1_555 1_555
C12 C11 1_555 1_555
C13 C12 1_555 1_555
C14 C12 1_555 1_555
H6 C14 1_555 1_555
C15 C14 1_555 1_555
H7 C15 1_555 1_555
C16 H8 1_555 1_555
C17 C16 1_555 1_555
H9 C17 1_555 1_555
C18 C17 1_555 1_555
C19 C18 1_555 1_555
H10 C19 1_555 1_555
C20 C19 1_555 1_555
H11 C20 1_555 1_555
C21 H12 1_555 1_555
C22 C21 1_555 1_555
H13 C22 1_555 1_555
C23 C22 1_555 1_555
C24 C23 1_555 1_555
H14 C24 1_555 1_555
C25 C24 1_555 1_555
H15 C25 1_555 1_555
C26 C23 1_555 1_555
N1 C13 1_555 1_555
H16 N1 1_555 1_555
N2 C21 1_555 1_555
N3 C16 1_555 1_555
N4 C10 1_555 1_555
C27 C18 1_555 1_555
N5 C13 1_555 1_555
O1 Mn1 1_555 1_555
O2 Mn1 1_555 1_555
O3 C9 1_555 1_555
O4 C9 1_555 1_555
O5 C8 1_555 1_555
O6 C8 1_555 1_555
H17 O6 1_555 1_555
Mn1F N3 1_555 1_555
Mn1D O3 1_555 1_555
Mn1_2 O4 1_555 1_555
N3F Mn1 1_555 1_555
O3D Mn1 1_555 1_555
O4_2 Mn1 1_555 1_555
C5 C6 1_555 1_555
C7 O1 1_555 1_555
C7 O2 1_555 1_555
C15 N4 1_555 1_555
C20 N3 1_555 1_555
C25 N2 1_555 1_555
C26 C27 1_555 1_555
C26 N5 1_555 1_555
N1 C27 1_555 1_555

#END
