
#######################################################################
#
#                 Cambridge Crystallographic Data Centre
#                                CCDC 
#
#######################################################################
#
# If this CIF has been generated from an entry in the Cambridge 
# Structural Database, then it will include bibliographic, chemical, 
# crystal, experimental, refinement or atomic coordinate data resulting 
# from the CCDC's data processing and validation procedures.
#
#######################################################################

data_MVHIRB10
_symmetry_cell_setting           tetragonal
_symmetry_space_group_name_H-M   'P 43 21 2'
_symmetry_Int_Tables_number      96
_space_group_name_Hall           'P 4nw 2n'
loop_
_symmetry_equiv_pos_site_id
_symmetry_equiv_pos_as_xyz
1 x,y,z
2 1/2-y,1/2+x,3/4+z
3 -x,-y,1/2+z
4 1/2+y,1/2-x,1/4+z
5 y,x,1/4-z
6 1/2+x,1/2-y,1/2-z
7 -y,-x,3/4-z
8 1/2-x,1/2+y,-z
_cell_length_a                   18.732(5)
_cell_length_b                   18.732(5)
_cell_length_c                   25.895(5)
_cell_angle_alpha                90
_cell_angle_beta                 90
_cell_angle_gamma                90
_cell_volume                     9086.24
loop_
_atom_site_label
_atom_site_type_symbol
_atom_site_fract_x
_atom_site_fract_y
_atom_site_fract_z
Rb1 Rb -0.10830 0.42370 0.41150
N1 N -0.17540 0.39180 0.22110
O1 O -0.10450 0.46840 0.30090
C1 C -0.11960 0.49540 0.26030
C2 C -0.17540 0.46950 0.22440
C3 C -0.20830 0.34900 0.26410
C4 C -0.25190 0.49810 0.24130
C5 C -0.30920 0.47400 0.20060
C6 C -0.23360 0.52120 0.28460
O2 O -0.08480 0.55200 0.24110
O3 O 0.05420 0.51270 0.22680
C7 C 0.03520 0.53550 0.27050
C8 C -0.03050 0.58500 0.27470
C9 C -0.01150 0.65610 0.25120
C10 C 0.03590 0.69630 0.28650
C11 C -0.08300 0.70080 0.24170
N2 N 0.07710 0.52360 0.31240
O4 O 0.13520 0.36870 0.26870
C12 C 0.13380 0.40780 0.30610
C13 C 0.14540 0.48770 0.30330
C14 C 0.05200 0.53560 0.36620
C15 C 0.20560 0.51310 0.33990
C16 C 0.21990 0.59410 0.33450
C17 C 0.27700 0.46770 0.32850
O5 O 0.12360 0.38510 0.35480
O6 O -0.01370 0.32900 0.35840
C18 C 0.03680 0.29190 0.34100
C19 C 0.11250 0.30820 0.36170
C20 C 0.11520 0.29460 0.42010
C21 C 0.19460 0.31080 0.43760
C22 C 0.09620 0.21870 0.43240
N3 N 0.02810 0.23650 0.31030
O7 O -0.01640 0.30420 0.22380
C23 C -0.05670 0.26070 0.24140
C24 C -0.04620 0.22310 0.29460
C25 C 0.08690 0.20250 0.28200
C26 C -0.07440 0.14390 0.29750
C27 C -0.04630 0.11130 0.34700
C28 C -0.04690 0.09720 0.26030
O8 O -0.11880 0.24280 0.21960
O9 O -0.11480 0.39870 0.14540
C29 C -0.14140 0.35990 0.18040
C30 C -0.13550 0.28140 0.17290
C31 C -0.20770 0.24650 0.15200
C32 C -0.19230 0.16760 0.13860
C33 C -0.23360 0.28800 0.10460
S1 S -0.34620 0.48000 0.37730
C34 C -0.29370 0.41690 0.38530
N4 N -0.25290 0.35930 0.39340
O3C O 0.01270 0.44580 0.47680
O4C O -0.13130 0.36480 0.51870
O7C O -0.19580 0.51640 0.47380
Rb1A Rb 0.07630 0.39170 0.16150
loop_
_geom_bond_atom_site_label_1
_geom_bond_atom_site_label_2
_geom_bond_site_symmetry_1
_geom_bond_site_symmetry_2
Rb1 O1 1_555 1_555
N1 C2 1_555 1_555
O1 C1 1_555 1_555
C1 C2 1_555 1_555
C2 C4 1_555 1_555
C3 N1 1_555 1_555
C4 C5 1_555 1_555
C6 C4 1_555 1_555
O2 C1 1_555 1_555
O3 C7 1_555 1_555
C7 C8 1_555 1_555
C8 O2 1_555 1_555
C9 C8 1_555 1_555
C10 C9 1_555 1_555
C11 C9 1_555 1_555
N2 C7 1_555 1_555
O4 C12 1_555 1_555
C12 C13 1_555 1_555
C13 N2 1_555 1_555
C14 N2 1_555 1_555
C15 C13 1_555 1_555
C16 C15 1_555 1_555
C17 C15 1_555 1_555
O5 C12 1_555 1_555
O6 Rb1 1_555 1_555
C18 O6 1_555 1_555
C19 O5 1_555 1_555
C20 C19 1_555 1_555
C21 C20 1_555 1_555
C22 C20 1_555 1_555
N3 C18 1_555 1_555
O7 C23 1_555 1_555
C23 C24 1_555 1_555
C24 N3 1_555 1_555
C25 N3 1_555 1_555
C26 C24 1_555 1_555
C27 C26 1_555 1_555
C28 C26 1_555 1_555
O8 C23 1_555 1_555
O9 C29 1_555 1_555
C29 N1 1_555 1_555
C30 O8 1_555 1_555
C31 C30 1_555 1_555
C32 C31 1_555 1_555
C33 C31 1_555 1_555
S1 C34 1_555 1_555
C34 N4 1_555 1_555
N4 Rb1 1_555 1_555
O3C Rb1 1_555 1_555
O4C Rb1 1_555 1_555
O7C Rb1 1_555 1_555
Rb1A O3 1_555 1_555
O4 Rb1A 1_555 1_555
C18 C19 1_555 1_555
O7 Rb1A 1_555 1_555
C29 C30 1_555 1_555

#END
