
#######################################################################
#
#                 Cambridge Crystallographic Data Centre
#                                CCDC 
#
#######################################################################
#
# If this CIF has been generated from an entry in the Cambridge 
# Structural Database, then it will include bibliographic, chemical, 
# crystal, experimental, refinement or atomic coordinate data resulting 
# from the CCDC's data processing and validation procedures.
#
#######################################################################

data_NABJAD
_symmetry_cell_setting           triclinic
_symmetry_space_group_name_H-M   'P -1'
_symmetry_Int_Tables_number      2
_space_group_name_Hall           '-P 1'
loop_
_symmetry_equiv_pos_site_id
_symmetry_equiv_pos_as_xyz
1 x,y,z
2 -x,-y,-z
_cell_length_a                   6.922(3)
_cell_length_b                   13.894(5)
_cell_length_c                   16.855(6)
_cell_angle_alpha                73.921(4)
_cell_angle_beta                 78.921(4)
_cell_angle_gamma                87.262(5)
_cell_volume                     1528.55
loop_
_atom_site_label
_atom_site_type_symbol
_atom_site_fract_x
_atom_site_fract_y
_atom_site_fract_z
Fe1 Fe 0.1448(4) 0.3442(2) -0.02447(17)
Fe2 Fe 0.3310(4) 0.3437(2) 0.13793(18)
Fe3 Fe 0.3083(4) -0.1457(2) 0.12836(17)
Mo1 Mo 0.1587(2) 0.60752(12) -0.14369(10)
Mo2 Mo 0.3616(2) 0.12471(12) 0.06573(10)
Mo3 Mo 0.2078(2) 0.21528(13) -0.16913(11)
Mo4 Mo -0.3341(2) 0.36980(12) -0.07252(10)
C1 C 0.268(3) 0.2195(16) 0.3185(13)
H1 H 0.2535 0.1705 0.2921
C2 C 0.280(4) 0.1864(17) 0.4039(14)
C3 C 0.290(5) 0.263(2) 0.4417(15)
H2 H 0.2939 0.2458 0.4987
C4 C 0.294(6) 0.361(2) 0.3981(19)
H3 H 0.2997 0.4116 0.4240
C5 C 0.291(5) 0.3819(19) 0.3121(18)
H4 H 0.2999 0.4487 0.2807
C6 C 0.264(3) 0.0803(16) 0.4493(15)
C7 C 0.245(3) -0.0802(17) 0.4450(14)
C8 C 0.238(3) -0.0439(16) 0.5691(14)
C9 C 0.218(3) -0.0781(16) 0.6592(14)
C10 C 0.193(3) -0.1789(14) 0.7012(12)
H5 H 0.1903 -0.2234 0.6692
C11 C 0.163(4) -0.1513(15) 0.8329(13)
H6 H 0.1365 -0.1751 0.8912
C12 C 0.192(4) -0.0499(18) 0.7951(17)
H7 H 0.1928 -0.0065 0.8283
C13 C 0.220(3) -0.0123(16) 0.7097(14)
H8 H 0.2397 0.0560 0.6850
C14 C 0.237(3) -0.1560(16) 0.4008(13)
C15 C 0.262(3) -0.1262(16) 0.3125(13)
H9 H 0.2938 -0.0596 0.2845
C16 C 0.193(4) -0.2851(17) 0.3112(15)
H10 H 0.1719 -0.3300 0.2817
C17 C 0.170(5) -0.3199(19) 0.3957(17)
H11 H 0.1432 -0.3872 0.4226
C18 C 0.189(5) -0.253(2) 0.4415(16)
H12 H 0.1698 -0.2748 0.4998
N1 N 0.275(3) 0.3131(13) 0.2719(12)
N2 N 0.267(3) 0.0165(14) 0.4014(12)
N3 N 0.231(3) -0.1129(14) 0.5282(11)
N4 N 0.253(3) 0.0541(14) 0.5305(12)
N5 N 0.174(3) -0.2168(13) 0.7843(12)
N6 N 0.242(2) -0.1896(13) 0.2663(11)
O1 O 0.156(2) 0.5930(12) -0.2412(9)
O2 O 0.608(2) 0.3588(11) 0.1357(10)
O3 O 0.1420(19) 0.4836(9) -0.0736(9)
O4 O 0.0841(17) 0.3433(9) 0.0956(8)
O5 O 0.385(2) 0.1862(10) 0.1407(8)
H13 H 0.5189 0.1739 0.1497
H14 H 0.3016 0.1485 0.1921
O6 O 0.285(2) -0.0017(10) 0.1174(10)
O7 O 0.1813(19) 0.1881(9) 0.0104(8)
O8 O 0.591(2) 0.1297(10) -0.0047(9)
O9 O -0.026(2) 0.1513(11) -0.1292(9)
O10 O 0.4139(19) 0.1382(10) -0.1417(9)
O11 O 0.243(2) 0.2502(13) -0.2760(10)
O12 O 0.205(2) 0.3290(11) -0.1409(9)
O13 O -0.322(2) 0.2951(10) -0.1424(9)
O14 O -0.144(2) 0.3299(10) -0.0144(9)
O15 O 0.293(2) 0.5064(10) 0.1277(8)
O16 O 0.4271(19) 0.3545(11) -0.0069(9)
Fe3A Fe 0.6917(4) 0.1457(2) -0.12836(17)
Fe3A_2 Fe -0.3083(4) 0.1457(2) -0.12836(17)
Mo1_2 Mo 0.1587(2) -0.39248(12) 0.85631(10)
Mo1A Mo 0.8413(2) 0.39248(12) 0.14369(10)
Mo1A_2 Mo -0.1587(2) 0.39248(12) 0.14369(10)
Mo4A Mo 0.3341(2) 0.63020(12) 0.07252(10)
Mo4_2 Mo 0.6659(2) 0.36980(12) -0.07252(10)
N5_2 N 0.174(3) 0.7832(13) -0.2157(12)
O2A O 0.392(2) 0.6412(11) -0.1357(10)
O4A O -0.0841(17) 0.6567(9) -0.0956(8)
O8A O 0.409(2) -0.1297(10) 0.0047(9)
O9A O 0.026(2) -0.1513(11) 0.1292(9)
O10A O 0.5861(19) -0.1382(10) 0.1417(9)
O13A O 0.322(2) -0.2951(10) 0.1424(9)
O15A O -0.293(2) 0.4936(10) -0.1277(8)
O16_2 O -0.5729(19) 0.3545(11) -0.0069(9)
loop_
_geom_bond_atom_site_label_1
_geom_bond_atom_site_label_2
_geom_bond_site_symmetry_1
_geom_bond_site_symmetry_2
Fe1 O3 1_555 1_555
Fe2 N1 1_555 1_555
Fe3 N6 1_555 1_555
Mo1 O1 1_555 1_555
Mo2 O5 1_555 1_555
Mo3 O9 1_555 1_555
Mo4 O13 1_555 1_555
C1 H1 1_555 1_555
C2 C1 1_555 1_555
C3 C2 1_555 1_555
H2 C3 1_555 1_555
C4 C3 1_555 1_555
H3 C4 1_555 1_555
C5 C4 1_555 1_555
H4 C5 1_555 1_555
C6 C2 1_555 1_555
C7 C14 1_555 1_555
C8 C9 1_555 1_555
C9 C10 1_555 1_555
C10 H5 1_555 1_555
C11 H6 1_555 1_555
C12 C11 1_555 1_555
H7 C12 1_555 1_555
C13 C9 1_555 1_555
H8 C13 1_555 1_555
C14 C15 1_555 1_555
C15 H9 1_555 1_555
C16 H10 1_555 1_555
C17 C16 1_555 1_555
H11 C17 1_555 1_555
C18 C14 1_555 1_555
H12 C18 1_555 1_555
N1 C1 1_555 1_555
N2 C6 1_555 1_555
N3 C7 1_555 1_555
N4 C6 1_555 1_555
N5 C10 1_555 1_555
N6 C15 1_555 1_555
O2 Fe2 1_555 1_555
O3 Mo1 1_555 1_555
O4 Fe1 1_555 1_555
O5 Fe2 1_555 1_555
H13 O5 1_555 1_555
H14 O5 1_555 1_555
O6 Fe3 1_555 1_555
O7 Fe1 1_555 1_555
O8 Mo2 1_555 1_555
O9 Fe3A_2 1_555 1_555
O10 Mo3 1_555 1_555
O11 Mo3 1_555 1_555
O12 Fe1 1_555 1_555
O13 Fe3A_2 1_555 1_555
O14 Fe1 1_555 1_555
O15 Fe2 1_555 1_555
O16 Fe1 1_555 1_555
Fe3A O8 1_555 1_555
Mo1_2 N5 1_555 1_555
Mo1A O2 1_555 1_555
Mo1A_2 O4 1_555 1_555
Mo4A O15 1_555 1_555
Mo4_2 O16 1_555 1_555
N5_2 Mo1 1_555 1_555
O2A Mo1 1_555 1_555
O4A Mo1 1_555 1_555
O8A Fe3 1_555 1_555
O9A Fe3 1_555 1_555
O10A Fe3 1_555 1_555
O13A Fe3 1_555 1_555
O15A Mo4 1_555 1_555
O16_2 Mo4 1_555 1_555
Fe2 O4 1_555 1_555
Fe2 O16 1_555 1_555
Mo2 O6 1_555 1_555
Mo2 O7 1_555 1_555
Mo3 O12 1_555 1_555
Mo4 O14 1_555 1_555
C5 N1 1_555 1_555
C7 N2 1_555 1_555
C8 N3 1_555 1_555
C8 N4 1_555 1_555
C11 N5 1_555 1_555
C12 C13 1_555 1_555
C16 N6 1_555 1_555
C17 C18 1_555 1_555
O10 Fe3A 1_555 1_555

#END
