
#######################################################################
#
#                 Cambridge Crystallographic Data Centre
#                                CCDC 
#
#######################################################################
#
# If this CIF has been generated from an entry in the Cambridge 
# Structural Database, then it will include bibliographic, chemical, 
# crystal, experimental, refinement or atomic coordinate data resulting 
# from the CCDC's data processing and validation procedures.
#
#######################################################################

data_NABMUA01
_symmetry_cell_setting           hexagonal
_symmetry_space_group_name_H-M   'P 61 2 2'
_symmetry_Int_Tables_number      178
_space_group_name_Hall           "P 61 2' (0,0,5)"
loop_
_symmetry_equiv_pos_site_id
_symmetry_equiv_pos_as_xyz
1 x,y,z
2 x-y,x,1/6+z
3 -y,x-y,1/3+z
4 -x,-y,1/2+z
5 -x+y,-x,2/3+z
6 y,-x+y,5/6+z
7 -y,-x,5/6-z
8 x-y,-y,-z
9 x,x-y,1/6-z
10 y,x,1/3-z
11 -x+y,y,1/2-z
12 -x,-x+y,2/3-z
_cell_length_a                   11.4799(14)
_cell_length_b                   11.4799(14)
_cell_length_c                   14.735(3)
_cell_angle_alpha                90
_cell_angle_beta                 90
_cell_angle_gamma                120
_cell_volume                     1681.73
loop_
_atom_site_label
_atom_site_type_symbol
_atom_site_fract_x
_atom_site_fract_y
_atom_site_fract_z
Mg1 Mg 0.19380(3) 0.38761(6) 0.2500
O1 O 0.22731(10) 0.39936(11) 0.10994(6)
O2 O 0.38890(11) 0.36650(10) 0.05312(7)
O3 O 0.08865(8) 0.17731(16) 0.2500
N1 N 0.30713(8) 0.69287(8) -0.0833
C1 C 0.31811(14) 0.42051(13) 0.05416(9)
C2 C 0.34719(15) 0.52351(14) -0.01920(9)
C3 C 0.44668(10) 0.55332(10) -0.0833
H1 H 0.4935 0.5065 -0.0833
C4 C 0.27717(15) 0.59236(15) -0.02474(10)
H2 H 0.2050 0.5675 0.0145
Mg1E Mg 0.38761(6) 0.19381(7) 0.0833
Mg1D Mg 0.19381(7) 0.80620(3) -0.0833
Mg1F Mg 0.61239(6) 0.80620(3) -0.4167
Mg1G Mg 0.80619(7) 0.61239(6) -0.2500
O1F O 0.60064(11) 0.77269(10) -0.27661(6)
O1J O 0.17205(15) 0.39936(11) 0.39006(6)
O2F O 0.63350(10) 0.61110(11) -0.21979(7)
O2A O 0.02240(15) 0.38890(11) 0.21979(7)
O2I O 0.36650(10) 0.38890(11) 0.28021(7)
N1B N 0.30713(8) 0.61426(11) 0.2500
C1F C 0.57949(13) 0.68189(14) -0.22083(9)
C2F C 0.47649(14) 0.65281(15) -0.14747(9)
C4F C 0.40764(15) 0.72283(15) -0.14193(10)
H2F H 0.4325 0.7950 -0.1812
loop_
_geom_bond_atom_site_label_1
_geom_bond_atom_site_label_2
_geom_bond_site_symmetry_1
_geom_bond_site_symmetry_2
Mg1 O1 1_555 1_555
O1 C1 1_555 1_555
O2 C1 1_555 1_555
O3 Mg1 1_555 1_555
N1 C4 1_555 1_555
C1 C2 1_555 1_555
C2 C3 1_555 1_555
C3 H1 1_555 1_555
C4 C2 1_555 1_555
H2 C4 1_555 1_555
Mg1E O2 1_555 1_555
Mg1D N1 1_555 1_555
Mg1F O1F 1_555 1_555
Mg1G O2F 1_555 1_555
O1F C1F 1_555 1_555
O1J Mg1 1_555 1_555
O2F C1F 1_555 1_555
O2A Mg1 1_555 1_555
O2I Mg1 1_555 1_555
N1B Mg1 1_555 1_555
C1F C2F 1_555 1_555
C2F C3 1_555 1_555
C4F N1 1_555 1_555
H2F C4F 1_555 1_555
C2F C4F 1_555 1_555

#END
