
#######################################################################
#
#                 Cambridge Crystallographic Data Centre
#                                CCDC 
#
#######################################################################
#
# If this CIF has been generated from an entry in the Cambridge 
# Structural Database, then it will include bibliographic, chemical, 
# crystal, experimental, refinement or atomic coordinate data resulting 
# from the CCDC's data processing and validation procedures.
#
#######################################################################

data_NABMEK
_symmetry_cell_setting           monoclinic
_symmetry_space_group_name_H-M   'P 21/a'
_symmetry_Int_Tables_number      14
_space_group_name_Hall           '-P 2yab'
loop_
_symmetry_equiv_pos_site_id
_symmetry_equiv_pos_as_xyz
1 x,y,z
2 1/2-x,1/2+y,-z
3 -x,-y,-z
4 1/2+x,1/2-y,z
_cell_length_a                   15.0633(3)
_cell_length_b                   14.5216(3)
_cell_length_c                   21.9097(5)
_cell_angle_alpha                90
_cell_angle_beta                 95.005(8)
_cell_angle_gamma                90
_cell_volume                     4774.32
loop_
_atom_site_label
_atom_site_type_symbol
_atom_site_fract_x
_atom_site_fract_y
_atom_site_fract_z
Cu1 Cu 0.77987(3) 0.40077(3) 0.77130(2)
Cu2 Cu 1.10667(4) 0.72893(4) 0.71539(3)
N1 N 0.8185(3) 0.2538(2) 0.77667(19)
O1 O 0.5905(2) 0.3532(3) 0.75329(19)
C1 C 1.0198(3) 0.3753(3) 0.7941(3)
H1 H 0.9931 0.3179 0.7974
C2 C 0.6573(3) 0.3859(3) 0.6670(2)
O2 O 1.2372(3) 0.8764(3) 0.74867(19)
N2 N 0.9989(3) -0.1943(3) 0.7617(2)
N3 N 0.8083(2) 0.4291(2) 0.68338(17)
O3 O 1.1331(3) 0.9089(2) 0.6594(2)
H2 H 1.1643 0.9101 0.6920
C3 C 1.2056(3) 0.6581(3) 0.8194(2)
N4 N 0.6620(2) 0.3799(2) 0.72587(19)
C4 C 0.9195(3) 0.5452(3) 0.6661(2)
H3 H 0.8839 0.5899 0.6821
C5 C 0.9903(3) -0.0512(3) 0.8160(2)
H4 H 1.0112 -0.0148 0.8491
C6 C 0.8549(3) 0.1185(3) 0.7223(2)
H5 H 0.8569 0.0889 0.6848
C7 C 1.1003(3) 0.5453(3) 0.7858(2)
O4 O 0.6414(2) 0.3962(3) 0.8583(2)
H6 H 0.6164 0.3767 0.8261
C8 C 0.8856(3) 0.0747(3) 0.7763(2)
N5 N 0.7262(3) 0.4148(3) 0.85051(19)
C9 C 1.0160(3) 0.5404(3) 0.8051(2)
H7 H 0.9864 0.5937 0.8154
C10 C 0.8488(3) 0.2124(3) 0.8285(2)
H8 H 0.8473 0.2444 0.8652
N6 N 1.1414(2) 0.6337(3) 0.78068(19)
C11 C 0.8215(3) 0.2064(3) 0.7250(2)
H9 H 0.7997 0.2343 0.6885
N7 N 0.8862(2) 0.4468(2) 0.82641(17)
C12 C 0.8925(3) 0.4544(3) 0.6628(2)
C13 C 0.9215(3) -0.0211(3) 0.7740(2)
C14 C 0.7406(3) 0.4174(3) 0.6433(2)
N8 N 1.0298(3) 0.6644(3) 0.64745(18)
N9 N 1.2089(3) 0.7917(3) 0.7620(2)
C15 C 0.8693(3) 0.4622(3) 0.8819(2)
C16 C 1.0139(3) 0.7136(4) 0.5982(2)
C17 C 0.9751(3) 0.4543(3) 0.8092(2)
C18 C 1.0266(4) -0.1379(4) 0.8065(2)
H10 H 1.0737 -0.1573 0.8337
C19 C 1.0012(3) 0.5687(3) 0.6450(2)
C20 C 1.0475(4) 0.8089(4) 0.6014(2)
C21 C 0.8825(3) 0.1237(3) 0.8301(2)
H11 H 0.9029 0.0972 0.8673
C22 C 0.8893(3) -0.0832(3) 0.7297(2)
H12 H 0.8407 -0.0671 0.7026
C23 C 1.2451(3) 0.7504(3) 0.8093(2)
C24 C 0.7753(4) 0.4465(4) 0.8953(2)
N10 N 1.0989(3) 0.8248(3) 0.6503(2)
C25 C 1.1446(3) 0.4670(3) 0.7701(3)
H13 H 1.2015 0.4714 0.7569
C26 C 0.9465(4) 0.3876(3) 0.6387(3)
H14 H 0.9278 0.3266 0.6361
C27 C 1.0557(4) 0.5015(4) 0.6229(3)
H15 H 1.1115 0.5170 0.6109
C28 C 0.9271(4) -0.1665(4) 0.7252(3)
H16 H 0.9026 -0.2069 0.6955
C29 C 1.2414(4) 0.6036(4) 0.8736(3)
H17 H 1.2102 0.5460 0.8743
H18 H 1.2333 0.6374 0.9103
H19 H 1.3037 0.5922 0.8710
C30 C 1.1048(4) 0.3821(4) 0.7740(3)
H20 H 1.1346 0.3292 0.7633
C31 C 0.9350(4) 0.4902(5) 0.9335(3)
H21 H 0.9927 0.4976 0.9186
H22 H 0.9380 0.4435 0.9646
H23 H 0.9167 0.5473 0.9504
C32 C 0.5747(4) 0.3649(5) 0.6275(3)
H24 H 0.5288 0.3461 0.6525
H25 H 0.5863 0.3162 0.5996
H26 H 0.5557 0.4189 0.6047
C33 C 1.0267(4) 0.4122(4) 0.6191(3)
H27 H 1.0621 0.3676 0.6028
C34 C 0.7435(4) 0.4338(4) 0.5767(2)
H28 H 0.8023 0.4535 0.5687
H29 H 0.7012 0.4807 0.5635
H30 H 0.7290 0.3779 0.5546
C35 C 1.3196(4) 0.7907(5) 0.8513(3)
H31 H 1.3349 0.8503 0.8365
H32 H 1.3707 0.7510 0.8522
H33 H 1.3007 0.7963 0.8918
C36 C 0.9698(5) 0.6805(5) 0.5391(3)
H34 H 0.9516 0.6176 0.5435
H35 H 1.0107 0.6844 0.5080
H36 H 0.9184 0.7179 0.5277
C37 C 1.0221(5) 0.8823(5) 0.5553(3)
H37 H 1.0521 0.9385 0.5674
H38 H 0.9589 0.8918 0.5529
H39 H 1.0391 0.8635 0.5159
C38 C 0.7426(5) 0.4658(6) 0.9571(3)
H40 H 0.6803 0.4514 0.9560
H41 H 0.7516 0.5297 0.9670
H42 H 0.7752 0.4285 0.9875
Cu2_2 Cu 1.10667(4) -0.27107(4) 0.71539(3)
N2_2 N 0.9989(3) 0.8057(3) 0.7617(2)
Cl1 Cl 0.78245(14) 0.15172(18) 0.54757(10)
O7 O 0.7627(6) 0.1469(8) 0.4851(3)
O8 O 0.8597(5) 0.1920(9) 0.5671(5)
O9 O 0.7169(5) 0.1960(8) 0.5777(4)
O12 O 0.7907(17) 0.0589(8) 0.5631(7)
Cl2 Cl 0.9237(2) 0.23877(19) 1.03145(12)
O5 O 0.8575(6) 0.1948(8) 1.0593(5)
O6 O 0.9005(10) 0.2689(8) 0.9745(4)
O10 O 0.9557(9) 0.3068(9) 1.0681(5)
O11 O 0.9938(12) 0.1755(11) 1.0384(9)
O13 O 0.8369(12) 0.6795(12) 1.0565(7)
O14 O 0.9543(17) -0.0035(12) 0.9608(7)
O15 O 0.7706(9) -0.1534(9) 0.5909(6)
O16? O 0.7426(7) 0.3054(9) 0.4115(5)
loop_
_geom_bond_atom_site_label_1
_geom_bond_atom_site_label_2
_geom_bond_site_symmetry_1
_geom_bond_site_symmetry_2
Cu1 N1 1_555 1_555
Cu2 N6 1_555 1_555
Cl1 O7 1_555 1_555
Cl2 O5 1_555 1_555
N1 C10 1_555 1_555
O1 N4 1_555 1_555
C1 H1 1_555 1_555
C2 N4 1_555 1_555
O2 N9 1_555 1_555
N2 C18 1_555 1_555
N3 Cu1 1_555 1_555
O3 H2 1_555 1_555
C3 N6 1_555 1_555
N4 Cu1 1_555 1_555
C4 H3 1_555 1_555
C5 H4 1_555 1_555
C6 H5 1_555 1_555
C7 C9 1_555 1_555
O4 H6 1_555 1_555
C8 C6 1_555 1_555
N5 Cu1 1_555 1_555
C9 H7 1_555 1_555
C10 H8 1_555 1_555
N6 C7 1_555 1_555
C11 N1 1_555 1_555
H9 C11 1_555 1_555
N7 Cu1 1_555 1_555
C12 N3 1_555 1_555
C13 C5 1_555 1_555
C14 C2 1_555 1_555
N8 Cu2 1_555 1_555
N9 Cu2 1_555 1_555
C15 N7 1_555 1_555
C16 N8 1_555 1_555
C17 C1 1_555 1_555
C18 C5 1_555 1_555
H10 C18 1_555 1_555
C19 C4 1_555 1_555
C20 C16 1_555 1_555
C21 C8 1_555 1_555
H11 C21 1_555 1_555
C22 C13 1_555 1_555
H12 C22 1_555 1_555
C23 C3 1_555 1_555
C24 N5 1_555 1_555
N10 Cu2 1_555 1_555
C25 C7 1_555 1_555
H13 C25 1_555 1_555
C26 C12 1_555 1_555
H14 C26 1_555 1_555
C27 C19 1_555 1_555
H15 C27 1_555 1_555
C28 N2 1_555 1_555
H16 C28 1_555 1_555
C29 C3 1_555 1_555
H17 C29 1_555 1_555
H18 C29 1_555 1_555
H19 C29 1_555 1_555
C30 C1 1_555 1_555
H20 C30 1_555 1_555
C31 C15 1_555 1_555
H21 C31 1_555 1_555
H22 C31 1_555 1_555
H23 C31 1_555 1_555
C32 C2 1_555 1_555
H24 C32 1_555 1_555
H25 C32 1_555 1_555
H26 C32 1_555 1_555
C33 C26 1_555 1_555
H27 C33 1_555 1_555
C34 C14 1_555 1_555
H28 C34 1_555 1_555
H29 C34 1_555 1_555
H30 C34 1_555 1_555
C35 C23 1_555 1_555
H31 C35 1_555 1_555
H32 C35 1_555 1_555
H33 C35 1_555 1_555
C36 C16 1_555 1_555
H34 C36 1_555 1_555
H35 C36 1_555 1_555
H36 C36 1_555 1_555
C37 C20 1_555 1_555
H37 C37 1_555 1_555
H38 C37 1_555 1_555
H39 C37 1_555 1_555
O6 Cl2 1_555 1_555
C38 C24 1_555 1_555
H40 C38 1_555 1_555
H41 C38 1_555 1_555
H42 C38 1_555 1_555
O8 Cl1 1_555 1_555
O9 Cl1 1_555 1_555
O10 Cl2 1_555 1_555
O11 Cl2 1_555 1_555
O12 Cl1 1_555 1_555
Cu2_2 N2 1_555 1_555
N2_2 Cu2 1_555 1_555
N3 C14 1_555 1_555
O3 N10 1_555 1_555
C4 C12 1_555 1_555
C6 C11 1_555 1_555
O4 N5 1_555 1_555
C8 C13 1_555 1_555
C9 C17 1_555 1_555
C10 C21 1_555 1_555
N7 C17 1_555 1_555
N8 C19 1_555 1_555
N9 C23 1_555 1_555
C15 C24 1_555 1_555
C20 N10 1_555 1_555
C22 C28 1_555 1_555
C25 C30 1_555 1_555
C27 C33 1_555 1_555

#END
