
#######################################################################
#
#                 Cambridge Crystallographic Data Centre
#                                CCDC 
#
#######################################################################
#
# If this CIF has been generated from an entry in the Cambridge 
# Structural Database, then it will include bibliographic, chemical, 
# crystal, experimental, refinement or atomic coordinate data resulting 
# from the CCDC's data processing and validation procedures.
#
#######################################################################

data_NABMUZ
_symmetry_cell_setting           triclinic
_symmetry_space_group_name_H-M   'P -1'
_symmetry_Int_Tables_number      2
_space_group_name_Hall           '-P 1'
loop_
_symmetry_equiv_pos_site_id
_symmetry_equiv_pos_as_xyz
1 x,y,z
2 -x,-y,-z
_cell_length_a                   9.611(6)
_cell_length_b                   9.674(6)
_cell_length_c                   10.878(7)
_cell_angle_alpha                107.109(10)
_cell_angle_beta                 114.993(9)
_cell_angle_gamma                95.996(10)
_cell_volume                     845.026
loop_
_atom_site_label
_atom_site_type_symbol
_atom_site_fract_x
_atom_site_fract_y
_atom_site_fract_z
Cu1 Cu 0.94139(5) 0.61581(5) 0.61995(4)
O1 O 0.7845(3) 0.4007(3) 0.6505(3)
O2 O 0.9030(3) 0.3968(3) 0.5156(3)
C1 C 0.8235(4) 0.3299(4) 0.5617(4)
C2 C 0.7732(4) 0.1599(4) 0.4973(4)
H1 H 0.8481 0.1229 0.4635
H2 H 0.6661 0.1255 0.4111
C3 C 0.7696(4) 0.0927(4) 0.6065(4)
H3 H 0.7251 -0.0173 0.5559
H4 H 0.6985 0.1331 0.6436
C4 C 0.9343(4) 0.1268(4) 0.7352(4)
H5 H 0.9744 0.2363 0.7915
H6 H 1.0081 0.0953 0.6975
C5 C 0.9332(5) 0.0468(4) 0.8372(4)
H7 H 1.0375 0.0861 0.9272
H8 H 0.8506 0.0690 0.8657
C6 C 0.9010(4) -0.1212(4) 0.7665(4)
O3 O 0.9917(3) -0.1664(3) 0.7117(3)
O4 O 0.7970(4) -0.2081(3) 0.7651(3)
N1 N 1.1203(3) 0.6234(3) 0.8079(3)
C7 C 1.0934(4) 0.6086(4) 0.9148(4)
H9 H 0.9873 0.5932 0.8998
C8 C 1.2125(4) 0.6144(4) 1.0461(4)
H10 H 1.1879 0.6024 1.1188
C9 C 1.3692(4) 0.6382(4) 1.0704(4)
C10 C 1.3975(4) 0.6608(4) 0.9621(4)
H11 H 1.5031 0.6825 0.9763
C11 C 1.2711(4) 0.6516(4) 0.8331(4)
H12 H 1.2923 0.6659 0.7594
C12 C 1.5002(4) 0.6368(4) 1.2047(4)
C13 C 1.4763(4) 0.5430(4) 1.2736(4)
H13 H 1.3729 0.4823 1.2384
C14 C 1.6044(4) 0.5394(4) 1.3934(4)
H14 H 1.5868 0.4746 1.4392
C15 C 1.7751(4) 0.7143(4) 1.3836(4)
H15 H 1.8796 0.7748 1.4222
C16 C 1.6541(4) 0.7249(4) 1.2634(4)
H16 H 1.6753 0.7916 1.2208
N2 N 1.7527(3) 0.6229(3) 1.4486(3)
O3_2 O 0.9917(3) 0.8336(3) 0.7117(3)
N2_2 N 0.7527(3) 0.6229(3) 0.4486(3)
Cu1_2 Cu 0.94139(5) -0.38419(5) 0.61995(4)
Cu1_3 Cu 1.94139(5) 0.61581(5) 1.61995(4)
O5 O 0.3098(4) 0.0102(4) -0.1360(3)
H17 H 0.370(6) -0.026(6) -0.157(6)
H18 H 0.239(7) -0.039(6) -0.175(6)
O6 O 0.4455(4) 0.1243(5) 0.1669(4)
H19 H 0.409(6) 0.092(6) 0.086(6)
H20 H 0.378(7) 0.151(6) 0.195(6)
loop_
_geom_bond_atom_site_label_1
_geom_bond_atom_site_label_2
_geom_bond_site_symmetry_1
_geom_bond_site_symmetry_2
Cu1 O2 1_555 1_555
O1 C1 1_555 1_555
O2 C1 1_555 1_555
C1 C2 1_555 1_555
C2 H1 1_555 1_555
H2 C2 1_555 1_555
C3 C2 1_555 1_555
H3 C3 1_555 1_555
H4 C3 1_555 1_555
C4 C3 1_555 1_555
H5 C4 1_555 1_555
H6 C4 1_555 1_555
C5 C4 1_555 1_555
H7 C5 1_555 1_555
H8 C5 1_555 1_555
C6 C5 1_555 1_555
O3 C6 1_555 1_555
O4 C6 1_555 1_555
N1 Cu1 1_555 1_555
C7 N1 1_555 1_555
H9 C7 1_555 1_555
C8 C7 1_555 1_555
H10 C8 1_555 1_555
C9 C8 1_555 1_555
C10 C9 1_555 1_555
H11 C10 1_555 1_555
C11 N1 1_555 1_555
H12 C11 1_555 1_555
C12 C9 1_555 1_555
C13 C12 1_555 1_555
H13 C13 1_555 1_555
C14 C13 1_555 1_555
H14 C14 1_555 1_555
C15 H15 1_555 1_555
C16 C12 1_555 1_555
H16 C16 1_555 1_555
N2 C14 1_555 1_555
O5 H17 1_555 1_555
H18 O5 1_555 1_555
O6 H19 1_555 1_555
H20 O6 1_555 1_555
O3_2 Cu1 1_555 1_555
N2_2 Cu1 1_555 1_555
Cu1_2 O3 1_555 1_555
Cu1_3 N2 1_555 1_555
C10 C11 1_555 1_555
C15 N2 1_555 1_555
C15 C16 1_555 1_555

#END
