
#######################################################################
#
#                 Cambridge Crystallographic Data Centre
#                                CCDC 
#
#######################################################################
#
# If this CIF has been generated from an entry in the Cambridge 
# Structural Database, then it will include bibliographic, chemical, 
# crystal, experimental, refinement or atomic coordinate data resulting 
# from the CCDC's data processing and validation procedures.
#
#######################################################################

data_NABNOU
_symmetry_cell_setting           monoclinic
_symmetry_space_group_name_H-M   'C 2/c'
_symmetry_Int_Tables_number      15
_space_group_name_Hall           '-C 2yn'
loop_
_symmetry_equiv_pos_site_id
_symmetry_equiv_pos_as_xyz
1 x,y,z
2 1/2+x,1/2+y,z
3 -x,y,1/2-z
4 1/2-x,1/2+y,1/2-z
5 -x,-y,-z
6 1/2-x,1/2-y,-z
7 x,-y,1/2+z
8 1/2+x,1/2-y,1/2+z
_cell_length_a                   13.9970(10)
_cell_length_b                   20.103(2)
_cell_length_c                   17.460(2)
_cell_angle_alpha                90
_cell_angle_beta                 100.201(5)
_cell_angle_gamma                90
_cell_volume                     4835.26
loop_
_atom_site_label
_atom_site_type_symbol
_atom_site_fract_x
_atom_site_fract_y
_atom_site_fract_z
Cd1 Cd 0.13709(6) 0.42065(4) -0.07255(5)
O1 O -0.0290(6) 0.4432(4) -0.1075(5)
H1 H -0.044(8) 0.480(3) -0.085(4)
H2 H -0.041(8) 0.448(4) -0.1583(9)
N1 N 0.1334(7) 0.3298(6) -0.1559(6)
N2 N -0.1972(7) 0.0810(5) -0.5208(6)
C1 C 0.1173(10) 0.3386(7) -0.2330(8)
H3 H 0.1093 0.3828 -0.2525
C2 C 0.1117(10) 0.2872(8) -0.2853(9)
H4 H 0.1005 0.2961 -0.3396
C3 C 0.1224(8) 0.2234(8) -0.2593(9)
C4 C 0.1390(8) 0.2129(7) -0.1792(9)
H5 H 0.1467 0.1691 -0.1587
C5 C 0.1442(8) 0.2666(7) -0.1300(7)
H6 H 0.1560 0.2589 -0.0755
C6 C 0.1105(11) 0.1503(15) -0.3078(10)
H7 H 0.1611 0.1180 -0.2850
H8 H 0.0456 0.1305 -0.3089
C7 C 0.1228(12) 0.1703(12) -0.3798(16)
H9 H 0.1887 0.1881 -0.3804
H10 H 0.0731 0.2029 -0.4035
C8 C 0.1049(13) 0.0909(17) -0.422(2)
H11 H 0.1430 0.0864 -0.4648
H12 H 0.1266 0.0562 -0.3830
C9 C -0.1627(10) 0.0484(8) -0.4572(8)
H13 H -0.2072 0.0229 -0.4342
C10 C -0.0702(14) 0.0480(11) -0.4220(12)
H14 H -0.0511 0.0240 -0.3750
C11 C -0.0024(14) 0.0828(16) -0.4545(18)
C12 C -0.0349(14) 0.1168(14) -0.521(2)
H15 H 0.0100 0.1414 -0.5444
C13 C -0.1362(11) 0.1168(8) -0.5563(10)
H16 H -0.1588 0.1409 -0.6027
O2 O 0.1125(7) 0.3354(4) 0.0252(5)
O3 O 0.1132(6) 0.4416(5) 0.0535(5)
O4 O 0.1264(12) 0.1709(6) 0.2354(6)
H17 H 0.1513 0.1355 0.2553
O5 O 0.1394(12) 0.2040(6) 0.3582(7)
O6 O 0.1657(6) 0.5148(5) 0.3227(5)
O7 O 0.1293(6) 0.4519(5) 0.4143(5)
C14 C 0.1168(7) 0.3651(6) 0.1580(6)
C15 C 0.1243(7) 0.4164(7) 0.2115(7)
H18 H 0.1244 0.4612 0.1942
C16 C 0.1317(7) 0.4030(6) 0.2896(7)
C17 C 0.1292(7) 0.3379(7) 0.3139(7)
H19 H 0.1316 0.3288 0.3676
C18 C 0.1232(8) 0.2851(7) 0.2616(7)
C19 C 0.1170(8) 0.3014(7) 0.1811(7)
H20 H 0.1129 0.2667 0.1436
C20 C 0.1123(7) 0.3811(7) 0.0724(7)
C21 C 0.1280(13) 0.2159(8) 0.2897(11)
C22 C 0.1427(8) 0.4592(7) 0.3458(8)
N1G N 0.6334(7) 0.1702(6) 0.3441(6)
N2G N 0.3028(7) 0.4190(5) -0.0208(6)
C1G C 0.6173(10) 0.1614(7) 0.2670(8)
H3G H 0.6093 0.1172 0.2475
C2G C 0.6117(10) 0.2128(8) 0.2147(9)
H4G H 0.6005 0.2039 0.1604
C3G C 0.6224(8) 0.2766(8) 0.2407(9)
C4G C 0.6390(8) 0.2871(7) 0.3208(9)
H5G H 0.6467 0.3309 0.3413
C5G C 0.6442(8) 0.2334(7) 0.3700(7)
H6G H 0.6560 0.2411 0.4245
C6G C 0.6105(11) 0.3497(15) 0.1922(10)
H7G H 0.6611 0.3820 0.2150
H8G H 0.5456 0.3695 0.1911
C7G C 0.6228(12) 0.3297(12) 0.1202(16)
H9G H 0.6887 0.3119 0.1196
H10G H 0.5731 0.2971 0.0965
C8G C 0.6049(13) 0.4091(17) 0.078(2)
H11G H 0.6430 0.4136 0.0352
H12G H 0.6266 0.4438 0.1170
C9G C 0.3373(10) 0.4516(8) 0.0428(8)
H13G H 0.2928 0.4771 0.0658
C10G C 0.4298(14) 0.4520(11) 0.0780(12)
H14G H 0.4489 0.4760 0.1250
C11G C 0.4976(14) 0.4172(16) 0.0455(18)
C12G C 0.4651(14) 0.3832(14) -0.021(2)
H15G H 0.5100 0.3586 -0.0444
C13G C 0.3638(11) 0.3832(8) -0.0563(10)
H16G H 0.3412 0.3591 -0.1027
O2F O 0.1125(7) 0.6646(4) -0.4748(5)
O3F O 0.1132(6) 0.5584(5) -0.4465(5)
O4F O 0.1264(12) 0.8291(6) -0.2646(6)
H17F H 0.1513 0.8645 -0.2447
O5F O 0.1394(12) 0.7960(6) -0.1418(7)
O6F O 0.1657(6) 0.4852(5) -0.1773(5)
O7F O 0.1293(6) 0.5481(5) -0.0857(5)
C14F C 0.1168(7) 0.6349(6) -0.3420(6)
C15F C 0.1243(7) 0.5836(7) -0.2885(7)
H18F H 0.1244 0.5388 -0.3058
C16F C 0.1317(7) 0.5970(6) -0.2104(7)
C17F C 0.1292(7) 0.6621(7) -0.1861(7)
H19F H 0.1316 0.6712 -0.1324
C18F C 0.1232(8) 0.7149(7) -0.2384(7)
C19F C 0.1170(8) 0.6986(7) -0.3189(7)
H20F H 0.1129 0.7333 -0.3564
C20F C 0.1123(7) 0.6189(7) -0.4276(7)
C21F C 0.1280(13) 0.7841(8) -0.2103(11)
C22F C 0.1427(8) 0.5408(7) -0.1542(8)
Cd1G Cd 0.63709(6) 0.07935(4) 0.42745(5)
O1G O 0.4710(6) 0.0568(4) 0.3925(5)
H1G H 0.456(8) 0.020(3) 0.415(4)
H2G H 0.459(8) 0.052(4) 0.3417(9)
Cd1G_2 Cd -0.36291(6) 0.07935(4) -0.57255(5)
Cd1F Cd 0.13709(6) 0.57935(4) 0.42745(5)
Cd1F_2 Cd 0.13709(6) 0.57935(4) -0.57255(5)
N2_2 N 0.8028(7) 0.0810(5) 0.4792(6)
O2G O 0.6125(7) 0.1646(4) 0.5252(5)
O3G O 0.6132(6) 0.0584(5) 0.5535(5)
O6A O 0.6657(6) 0.0148(5) 0.3227(5)
O7A O 0.6293(6) -0.0481(5) 0.4143(5)
O8 O -0.178(2) 0.3803(11) -0.0470(15)
H21 H -0.133(6) 0.390(4) -0.007(4)
H22 H -0.201(7) 0.416(3) -0.073(5)
O9 O -0.3079(18) 0.4005(13) -0.1103(16)
H23 H -0.363(4) 0.401(5) -0.092(5)
H24 H -0.311(6) 0.370(4) -0.147(5)
O10 O -0.202(2) -0.0472(13) -0.2770(14)
H25 H -0.190(7) -0.0046(18) -0.277(5)
H26 H -0.237(7) -0.060(4) -0.321(4)
O11 O -0.0624(16) 0.2697(13) 0.0139(15)
H27 H -0.091(6) 0.307(2) -0.006(6)
H28 H -0.102(6) 0.236(3) 0.000(6)
O12 O 0.0000 0.0418(16) 0.2500
H29 H -0.003(8) 0.0669(18) 0.2083(8)
H29B H 0.003(8) 0.0669(18) 0.2917(8)
loop_
_geom_bond_atom_site_label_1
_geom_bond_atom_site_label_2
_geom_bond_site_symmetry_1
_geom_bond_site_symmetry_2
Cd1 O1 1_555 1_555
O1 H1 1_555 1_555
H2 O1 1_555 1_555
N1 Cd1 1_555 1_555
N2 C9 1_555 1_555
C1 N1 1_555 1_555
H3 C1 1_555 1_555
C2 C1 1_555 1_555
H4 C2 1_555 1_555
C3 C2 1_555 1_555
C4 C3 1_555 1_555
H5 C4 1_555 1_555
C5 N1 1_555 1_555
H6 C5 1_555 1_555
C6 C3 1_555 1_555
H7 C6 1_555 1_555
H8 C6 1_555 1_555
C7 C6 1_555 1_555
H9 C7 1_555 1_555
H10 C7 1_555 1_555
C8 C7 1_555 1_555
H11 C8 1_555 1_555
H12 C8 1_555 1_555
C9 H13 1_555 1_555
C10 C9 1_555 1_555
H14 C10 1_555 1_555
C11 C8 1_555 1_555
C12 C11 1_555 1_555
H15 C12 1_555 1_555
C13 N2 1_555 1_555
H16 C13 1_555 1_555
O2 Cd1 1_555 1_555
O3 Cd1 1_555 1_555
O4 H17 1_555 1_555
O5 C21 1_555 1_555
O6 C22 1_555 1_555
O7 C22 1_555 1_555
C14 C15 1_555 1_555
C15 H18 1_555 1_555
C16 C15 1_555 1_555
C17 C16 1_555 1_555
H19 C17 1_555 1_555
C18 C17 1_555 1_555
C19 C14 1_555 1_555
H20 C19 1_555 1_555
C20 O2 1_555 1_555
C21 O4 1_555 1_555
C22 C16 1_555 1_555
O8 H21 1_555 1_555
H22 O8 1_555 1_555
O9 H23 1_555 1_555
H24 O9 1_555 1_555
O10 H25 1_555 1_555
H26 O10 1_555 1_555
O11 H27 1_555 1_555
H28 O11 1_555 1_555
O12 H29 1_555 1_555
N1G C1G 1_555 1_555
N2G Cd1 1_555 1_555
C1G H3G 1_555 1_555
C2G C1G 1_555 1_555
H4G C2G 1_555 1_555
C3G C2G 1_555 1_555
C4G C3G 1_555 1_555
H5G C4G 1_555 1_555
C5G N1G 1_555 1_555
H6G C5G 1_555 1_555
C6G C3G 1_555 1_555
H7G C6G 1_555 1_555
H8G C6G 1_555 1_555
C7G C6G 1_555 1_555
H9G C7G 1_555 1_555
H10G C7G 1_555 1_555
C8G C7G 1_555 1_555
H11G C8G 1_555 1_555
H12G C8G 1_555 1_555
C9G N2G 1_555 1_555
H13G C9G 1_555 1_555
C10G C9G 1_555 1_555
H14G C10G 1_555 1_555
C11G C8G 1_555 1_555
C12G C11G 1_555 1_555
H15G C12G 1_555 1_555
C13G N2G 1_555 1_555
H16G C13G 1_555 1_555
O2F C20F 1_555 1_555
O3F C20F 1_555 1_555
O4F H17F 1_555 1_555
O5F C21F 1_555 1_555
O6F Cd1 1_555 1_555
O7F Cd1 1_555 1_555
C14F C15F 1_555 1_555
C15F H18F 1_555 1_555
C16F C15F 1_555 1_555
C17F C16F 1_555 1_555
H19F C17F 1_555 1_555
C18F C17F 1_555 1_555
C19F C14F 1_555 1_555
H20F C19F 1_555 1_555
C20F C14F 1_555 1_555
C21F O4F 1_555 1_555
C22F O6F 1_555 1_555
Cd1G N1G 1_555 1_555
O1G Cd1G 1_555 1_555
H1G O1G 1_555 1_555
H2G O1G 1_555 1_555
Cd1G_2 N2 1_555 1_555
Cd1F O6 1_555 1_555
Cd1F_2 O2F 1_555 1_555
N2_2 Cd1G 1_555 1_555
O2G Cd1G 1_555 1_555
O3G Cd1G 1_555 1_555
O6A Cd1G 1_555 1_555
O7A Cd1G 1_555 1_555
H29B O12 1_555 1_555
C4 C5 1_555 1_555
C10 C11 1_555 1_555
C12 C13 1_555 1_555
O3 C20 1_555 1_555
O7 Cd1F 1_555 1_555
C14 C20 1_555 1_555
C18 C19 1_555 1_555
C18 C21 1_555 1_555
C4G C5G 1_555 1_555
C10G C11G 1_555 1_555
C12G C13G 1_555 1_555
O3F Cd1F_2 1_555 1_555
O7F C22F 1_555 1_555
C16F C22F 1_555 1_555
C18F C19F 1_555 1_555
C18F C21F 1_555 1_555

#END
