
#######################################################################
#
#                 Cambridge Crystallographic Data Centre
#                                CCDC 
#
#######################################################################
#
# If this CIF has been generated from an entry in the Cambridge 
# Structural Database, then it will include bibliographic, chemical, 
# crystal, experimental, refinement or atomic coordinate data resulting 
# from the CCDC's data processing and validation procedures.
#
#######################################################################

data_NABNUA
_symmetry_cell_setting           monoclinic
_symmetry_space_group_name_H-M   'P 21/n'
_symmetry_Int_Tables_number      14
_space_group_name_Hall           '-P 2yn'
loop_
_symmetry_equiv_pos_site_id
_symmetry_equiv_pos_as_xyz
1 x,y,z
2 1/2-x,1/2+y,1/2-z
3 -x,-y,-z
4 1/2+x,1/2-y,1/2+z
_cell_length_a                   9.8976(2)
_cell_length_b                   14.5822(4)
_cell_length_c                   26.5732(7)
_cell_angle_alpha                90
_cell_angle_beta                 91.930(1)
_cell_angle_gamma                90
_cell_volume                     3833.1
loop_
_atom_site_label
_atom_site_type_symbol
_atom_site_fract_x
_atom_site_fract_y
_atom_site_fract_z
Cd1 Cd 0.22199(7) 0.12533(5) 0.44561(3)
Cd2 Cd 0.20516(8) 0.36894(5) 0.41556(3)
O1 O -0.0305(7) 0.1303(5) 0.4408(3)
O2 O 0.0845(7) 0.2583(5) 0.4509(3)
O3 O -0.1610(8) 0.5316(5) 0.5213(3)
O4 O -0.3594(8) 0.5020(5) 0.5536(3)
O5 O -0.5334(7) 0.1319(4) 0.4462(2)
O6 O -0.6391(7) 0.2645(5) 0.4521(3)
C1 C -0.1551(10) 0.2643(6) 0.4588(3)
C2 C -0.1522(10) 0.3518(6) 0.4808(4)
H1 H -0.0686 0.3828 0.4860
C3 C -0.2725(10) 0.3934(6) 0.4950(4)
C4 C -0.3940(10) 0.3507(7) 0.4853(4)
H2 H -0.4759 0.3795 0.4943
C5 C -0.3967(10) 0.2645(6) 0.4622(3)
C6 C -0.2788(9) 0.2217(7) 0.4503(3)
H3 H -0.2819 0.1621 0.4359
C7 C -0.0279(10) 0.2146(7) 0.4489(4)
C8 C -0.2655(10) 0.4821(7) 0.5249(4)
C9 C -0.5306(9) 0.2185(7) 0.4528(3)
N1 N 0.2399(8) 0.1224(6) 0.5330(3)
N2 N -0.1687(9) 0.1349(6) 0.8457(3)
C10 C 0.2396(11) 0.2027(8) 0.5584(4)
H4 H 0.2191 0.2579 0.5407
C11 C 0.2687(12) 0.2061(9) 0.6098(4)
H5 H 0.2677 0.2636 0.6266
C12 C 0.2985(11) 0.1294(10) 0.6363(4)
C13 C 0.2971(15) 0.0470(10) 0.6106(5)
H6 H 0.3150 -0.0090 0.6278
C14 C 0.2691(13) 0.0479(8) 0.5591(4)
H7 H 0.2712 -0.0089 0.5416
C15 C 0.3329(14) 0.1361(13) 0.6917(4)
H8 H 0.3682 0.0759 0.7032
H9 H 0.4069 0.1812 0.6965
C16 C 0.2215(13) 0.1627(10) 0.7246(4)
H10 H 0.2586 0.1697 0.7595
H11 H 0.1862 0.2232 0.7136
C17 C 0.1076(14) 0.0968(10) 0.7250(4)
H12 H 0.1455 0.0342 0.7284
H13 H 0.0587 0.1001 0.6919
C18 C -0.0341(11) 0.1190(9) 0.8541(4)
H14 H -0.0014 0.1158 0.8880
C19 C 0.0557(12) 0.1078(9) 0.8177(5)
H15 H 0.1490 0.0984 0.8256
C20 C 0.0054(13) 0.1104(9) 0.7660(4)
C21 C -0.1290(14) 0.1251(8) 0.7577(4)
H16 H -0.1657 0.1271 0.7242
C22 C -0.2124(12) 0.1374(8) 0.7978(4)
H17 H -0.3059 0.1481 0.7909
N3 N 0.2257(9) 0.1270(6) 0.3571(3)
N4 N 0.2758(9) 0.4673(6) 0.0604(3)
C23 C 0.3409(12) 0.1153(9) 0.3333(4)
H18 H 0.4234 0.1144 0.3526
C24 C 0.3455(15) 0.1045(10) 0.2818(5)
H19 H 0.4301 0.0956 0.2666
C25 C 0.2273(13) 0.1064(8) 0.2517(4)
C26 C 0.1074(13) 0.1203(9) 0.2772(4)
H20 H 0.0237 0.1237 0.2587
C27 C 0.1096(11) 0.1291(9) 0.3291(4)
H21 H 0.0266 0.1368 0.3455
C28 C 0.2287(15) 0.0991(7) 0.1957(4)
H22 H 0.1422 0.0727 0.1828
H23 H 0.3028 0.0578 0.1859
C29 C 0.2489(14) 0.1941(8) 0.1727(4)
H24 H 0.3341 0.2210 0.1866
H25 H 0.1737 0.2347 0.1821
C30 C 0.2545(14) 0.1899(7) 0.1152(4)
H26 H 0.3352 0.1547 0.1055
H27 H 0.1734 0.1578 0.1013
C31 C 0.1580(12) 0.4251(7) 0.0650(4)
H28 H 0.0779 0.4585 0.0568
C32 C 0.1445(11) 0.3335(7) 0.0813(4)
H29 H 0.0581 0.3060 0.0840
C33 C 0.2607(11) 0.2856(7) 0.0933(4)
C34 C 0.3845(13) 0.3280(8) 0.0872(5)
H30 H 0.4666 0.2957 0.0937
C35 C 0.3857(9) 0.4176(7) 0.0715(4)
H31 H 0.4712 0.4463 0.0684
N5 N -0.0267(13) 0.4161(11) 0.3434(5)
O7 O -0.1094(11) 0.4527(9) 0.3145(5)
O8 O -0.0028(12) 0.3351(9) 0.3451(5)
O9 O 0.0449(9) 0.4645(8) 0.3733(4)
O5_2 O 0.4666(7) 0.1319(4) 0.4462(2)
O6_2 O 0.3609(7) 0.2645(5) 0.4521(3)
N4A N 0.2242(9) -0.0327(6) 0.4396(3)
O3B O 0.1610(8) 0.4684(5) 0.4787(3)
O4B O 0.3594(8) 0.4980(5) 0.4464(3)
N2C N 0.3313(9) 0.3651(6) 0.3457(3)
Cd2B Cd -0.20516(8) 0.63106(5) 0.58444(3)
Cd1_2 Cd -0.77801(7) 0.12533(5) 0.44561(3)
Cd2_2 Cd -0.79484(8) 0.36894(5) 0.41556(3)
Cd2C Cd -0.29484(8) 0.13106(5) 0.91556(3)
Cd1A Cd 0.27801(7) 0.62533(5) 0.05439(3)
O10 O 0.1358(10) 0.4132(7) 0.5775(4)
O11 O 0.4186(12) 0.4139(9) 0.6028(5)
O12 O 0.3001(17) 0.3959(9) 0.6995(5)
loop_
_geom_bond_atom_site_label_1
_geom_bond_atom_site_label_2
_geom_bond_site_symmetry_1
_geom_bond_site_symmetry_2
Cd1 O1 1_555 1_555
Cd2 O2 1_555 1_555
O1 C7 1_555 1_555
O2 Cd1 1_555 1_555
O3 C8 1_555 1_555
O4 C8 1_555 1_555
O5 C9 1_555 1_555
O6 C9 1_555 1_555
C1 C2 1_555 1_555
C2 H1 1_555 1_555
C3 C2 1_555 1_555
C4 C3 1_555 1_555
H2 C4 1_555 1_555
C5 C4 1_555 1_555
C6 C1 1_555 1_555
H3 C6 1_555 1_555
C7 O2 1_555 1_555
C8 C3 1_555 1_555
C9 C5 1_555 1_555
N1 Cd1 1_555 1_555
N2 C18 1_555 1_555
C10 N1 1_555 1_555
H4 C10 1_555 1_555
C11 C10 1_555 1_555
H5 C11 1_555 1_555
C12 C11 1_555 1_555
C13 C12 1_555 1_555
H6 C13 1_555 1_555
C14 N1 1_555 1_555
H7 C14 1_555 1_555
C15 C12 1_555 1_555
H8 C15 1_555 1_555
H9 C15 1_555 1_555
C16 C15 1_555 1_555
H10 C16 1_555 1_555
H11 C16 1_555 1_555
C17 C16 1_555 1_555
H12 C17 1_555 1_555
H13 C17 1_555 1_555
C18 H14 1_555 1_555
C19 C18 1_555 1_555
H15 C19 1_555 1_555
C20 C17 1_555 1_555
C21 C20 1_555 1_555
H16 C21 1_555 1_555
C22 N2 1_555 1_555
H17 C22 1_555 1_555
N3 Cd1 1_555 1_555
N4 C31 1_555 1_555
C23 N3 1_555 1_555
H18 C23 1_555 1_555
C24 C23 1_555 1_555
H19 C24 1_555 1_555
C25 C24 1_555 1_555
C26 C25 1_555 1_555
H20 C26 1_555 1_555
C27 N3 1_555 1_555
H21 C27 1_555 1_555
C28 C25 1_555 1_555
H22 C28 1_555 1_555
H23 C28 1_555 1_555
C29 C28 1_555 1_555
H24 C29 1_555 1_555
H25 C29 1_555 1_555
C30 C29 1_555 1_555
H26 C30 1_555 1_555
H27 C30 1_555 1_555
C31 H28 1_555 1_555
C32 C31 1_555 1_555
H29 C32 1_555 1_555
C33 C30 1_555 1_555
C34 C33 1_555 1_555
H30 C34 1_555 1_555
C35 N4 1_555 1_555
H31 C35 1_555 1_555
N5 O7 1_555 1_555
O8 N5 1_555 1_555
O9 Cd2 1_555 1_555
O5_2 Cd1 1_555 1_555
O6_2 Cd1 1_555 1_555
N4A Cd1 1_555 1_555
O3B Cd2 1_555 1_555
O4B Cd2 1_555 1_555
N2C Cd2 1_555 1_555
Cd2B O3 1_555 1_555
Cd1_2 O5 1_555 1_555
Cd2_2 O6 1_555 1_555
Cd2C N2 1_555 1_555
Cd1A N4 1_555 1_555
Cd2 O6_2 1_555 1_555
O4 Cd2B 1_555 1_555
O6 Cd1_2 1_555 1_555
C1 C7 1_555 1_555
C5 C6 1_555 1_555
C13 C14 1_555 1_555
C19 C20 1_555 1_555
C21 C22 1_555 1_555
C26 C27 1_555 1_555
C32 C33 1_555 1_555
C34 C35 1_555 1_555
N5 O9 1_555 1_555

#END
