
#######################################################################
#
#                 Cambridge Crystallographic Data Centre
#                                CCDC 
#
#######################################################################
#
# If this CIF has been generated from an entry in the Cambridge 
# Structural Database, then it will include bibliographic, chemical, 
# crystal, experimental, refinement or atomic coordinate data resulting 
# from the CCDC's data processing and validation procedures.
#
#######################################################################

data_NABTIT
_symmetry_cell_setting           triclinic
_symmetry_space_group_name_H-M   'P -1'
_symmetry_Int_Tables_number      2
_space_group_name_Hall           '-P 1'
loop_
_symmetry_equiv_pos_site_id
_symmetry_equiv_pos_as_xyz
1 x,y,z
2 -x,-y,-z
_cell_length_a                   8.3653(12)
_cell_length_b                   8.598(2)
_cell_length_c                   13.869(2)
_cell_angle_alpha                99.540(9)
_cell_angle_beta                 100.627(9)
_cell_angle_gamma                96.684(14)
_cell_volume                     955.68
loop_
_atom_site_label
_atom_site_type_symbol
_atom_site_fract_x
_atom_site_fract_y
_atom_site_fract_z
O1 O -1.4361(3) -0.1488(3) 0.1119(2)
O2 O -1.1549(3) -0.2492(3) 0.1711(2)
N1 N -1.2495(3) -0.0269(3) 0.2852(2)
N2 N -1.3808(3) 0.0355(3) 0.3115(2)
C1 C -1.3277(4) 0.1135(4) 0.4056(2)
C2 C -1.1599(4) 0.1042(4) 0.4400(2)
C3 C -1.1160(4) 0.0127(4) 0.3615(2)
N3 N -1.6004(4) 0.1722(4) 0.4099(2)
C4 C -1.7050(5) 0.2446(5) 0.4571(4)
C5 C -1.6601(6) 0.3353(6) 0.5529(4)
C6 C -1.4992(6) 0.3561(6) 0.6019(3)
C7 C -1.3859(5) 0.2834(5) 0.5546(3)
C8 C -1.4422(4) 0.1935(4) 0.4591(2)
N4 N -1.1626(3) 0.0236(3) 0.1159(2)
C9 C -1.2300(4) 0.1055(4) 0.0465(2)
C10 C -1.1051(4) 0.2101(4) 0.0316(2)
C11 C -0.9622(4) 0.1863(3) 0.0962(2)
N5 N -0.9972(3) 0.0734(3) 0.1477(2)
N6 N -0.6691(3) 0.2102(3) 0.1597(2)
C12 C -0.5167(4) 0.2909(4) 0.1735(3)
C13 C -0.4813(4) 0.4327(4) 0.1421(3)
C14 C -0.6103(4) 0.4950(4) 0.0917(3)
C15 C -0.7687(4) 0.4127(4) 0.0757(3)
C16 C -0.7943(4) 0.2722(4) 0.1110(2)
H1 H -1.0926(4) 0.1510(4) 0.5036(2)
H2 H -1.0106(4) -0.0178(4) 0.3606(2)
H3 H -1.8165(5) 0.2332(5) 0.4231(4)
H4 H -1.7396(6) 0.3823(6) 0.5840(4)
H5 H -1.4650(6) 0.4190(6) 0.6673(3)
H6 H -1.2735(5) 0.2953(5) 0.5870(3)
H7 H -1.3427(4) 0.0924(4) 0.0146(2)
H8 H -1.1126(4) 0.2832(4) -0.0129(2)
H9 H -0.4277(4) 0.2476(4) 0.2071(3)
H10 H -0.3714(4) 0.4861(4) 0.1546(3)
H11 H -0.5908(4) 0.5921(4) 0.0685(3)
H12 H -0.8590(4) 0.4525(4) 0.0408(3)
Tl1 Tl -0.7040(1) -0.0625(1) 0.2288(1)
P1 P -1.2619(1) -0.1247(1) 0.1632(1)
Tl1_2 Tl -1.7040(1) -0.0625(1) 0.2288(1)
N5_2 N -1.9972(3) 0.0734(3) 0.1477(2)
N6_2 N -1.6691(3) 0.2102(3) 0.1597(2)
O3 O 0.0135(4) 0.3638(4) 0.6684(2)
C17 C 0.0152(7) 0.5278(6) 0.6938(5)
H13 H 0.0521(69) 0.3291(12) 0.7196(9)
H14 H -0.0605(42) 0.5491(7) 0.7389(27)
H15 H -0.0195(54) 0.5701(11) 0.6331(6)
H16 H 0.1268(14) 0.5797(9) 0.7273(31)
loop_
_geom_bond_atom_site_label_1
_geom_bond_atom_site_label_2
_geom_bond_site_symmetry_1
_geom_bond_site_symmetry_2
O1 P1 1_555 1_555
O2 P1 1_555 1_555
N1 N2 1_555 1_555
N2 C1 1_555 1_555
C1 C2 1_555 1_555
C2 C3 1_555 1_555
C3 N1 1_555 1_555
N3 C4 1_555 1_555
C4 C5 1_555 1_555
C5 C6 1_555 1_555
C6 C7 1_555 1_555
C7 C8 1_555 1_555
C8 C1 1_555 1_555
N4 C9 1_555 1_555
C9 C10 1_555 1_555
C10 C11 1_555 1_555
C11 N5 1_555 1_555
N5 N4 1_555 1_555
N6 C12 1_555 1_555
C12 C13 1_555 1_555
C13 C14 1_555 1_555
C14 C15 1_555 1_555
C15 C16 1_555 1_555
C16 C11 1_555 1_555
O3 C17 1_555 1_555
C17 H14 1_555 1_555
H1 C2 1_555 1_555
H2 C3 1_555 1_555
H3 C4 1_555 1_555
H4 C5 1_555 1_555
H5 C6 1_555 1_555
H6 C7 1_555 1_555
H7 C9 1_555 1_555
H8 C10 1_555 1_555
H9 C12 1_555 1_555
H10 C13 1_555 1_555
H11 C14 1_555 1_555
H12 C15 1_555 1_555
H13 O3 1_555 1_555
H15 C17 1_555 1_555
H16 C17 1_555 1_555
Tl1 N5 1_555 1_555
P1 N1 1_555 1_555
Tl1_2 O1 1_555 1_555
N5_2 Tl1_2 1_555 1_555
N6_2 Tl1_2 1_555 1_555
N2 Tl1_2 1_555 1_555
N3 C8 1_555 1_555
N3 Tl1_2 1_555 1_555
N4 P1 1_555 1_555
N6 C16 1_555 1_555
N6 Tl1 1_555 1_555

#END
