
#######################################################################
#
#                 Cambridge Crystallographic Data Centre
#                                CCDC 
#
#######################################################################
#
# If this CIF has been generated from an entry in the Cambridge 
# Structural Database, then it will include bibliographic, chemical, 
# crystal, experimental, refinement or atomic coordinate data resulting 
# from the CCDC's data processing and validation procedures.
#
#######################################################################

data_NABVUJ
_symmetry_cell_setting           monoclinic
_symmetry_space_group_name_H-M   'P 21/n'
_symmetry_Int_Tables_number      14
_space_group_name_Hall           '-P 2yn'
loop_
_symmetry_equiv_pos_site_id
_symmetry_equiv_pos_as_xyz
1 x,y,z
2 1/2-x,1/2+y,1/2-z
3 -x,-y,-z
4 1/2+x,1/2-y,1/2+z
_cell_length_a                   17.32533(14)
_cell_length_b                   19.80459(16)
_cell_length_c                   3.75890(3)
_cell_angle_alpha                90
_cell_angle_beta                 95.5824(12)
_cell_angle_gamma                90
_cell_volume                     1283.64
loop_
_atom_site_label
_atom_site_type_symbol
_atom_site_fract_x
_atom_site_fract_y
_atom_site_fract_z
Mo1 Mo 0.542881(9) 0.700680(9) 0.31004(4)
O1 O 0.55564(8) 0.69791(8) -0.2379(3)
O2 O 0.45224(8) 0.65670(7) 0.2728(3)
O3 O 0.51394(7) 0.78696(7) 0.2707(3)
N1 N 0.61062(10) 0.60652(8) 0.2507(5)
N2 N 0.67508(10) 0.72811(8) 0.3022(4)
C1 C 0.57451(15) 0.54700(9) 0.2174(5)
C2 C 0.61190(11) 0.48712(12) 0.1473(5)
C3 C 0.68970(10) 0.48948(12) 0.1121(5)
C4 C 0.72798(12) 0.55019(9) 0.1397(6)
C5 C 0.68769(12) 0.60881(10) 0.2145(6)
C6 C 0.72398(11) 0.67611(10) 0.2577(5)
C7 C 0.80300(12) 0.68660(10) 0.2495(5)
C8 C 0.83158(12) 0.75129(9) 0.2798(6)
C9 C 0.78179(11) 0.80412(11) 0.3269(5)
C10 C 0.70400(12) 0.79017(10) 0.3280(5)
H3 H 0.5207(13) 0.5454(10) 0.246(5)
H4 H 0.5844(13) 0.4452(10) 0.127(5)
H5 H 0.7173(13) 0.4490(11) 0.071(5)
H6 H 0.7819(13) 0.5525(10) 0.110(5)
H7 H 0.8374(12) 0.6492(11) 0.224(5)
H8 H 0.8857(10) 0.7595(11) 0.268(6)
H9 H 0.8011(11) 0.8496(13) 0.358(6)
H10 H 0.6690(12) 0.8268(11) 0.348(4)
Mo1_2 Mo 0.542881(9) 0.700680(9) -0.68996(4)
O1_2 O 0.55564(8) 0.69791(8) 0.7621(3)
Mo2 Mo 0.580128(10) 0.979113(10) 0.78368(5)
O4 O 0.54020(7) 0.97871(7) 0.2913(3)
O5 O 0.62069(9) 1.06224(8) 0.7908(4)
O6 O 0.65805(8) 0.92286(7) 0.8311(3)
O7 O 0.50709(9) 0.88499(7) 0.7333(4)
H1 H 0.5099(11) 0.8528(12) 0.530(6)
H2 H 0.5092(10) 0.8558(12) 0.943(5)
Mo2_2 Mo 0.580128(10) 0.979113(10) -0.21632(5)
Mo2B Mo 0.419872(10) 1.020887(10) 0.21632(5)
O4_2 O 0.54020(7) 0.97871(7) 1.2913(3)
O4B O 0.45980(7) 1.02129(7) 0.7087(3)
loop_
_geom_bond_atom_site_label_1
_geom_bond_atom_site_label_2
_geom_bond_site_symmetry_1
_geom_bond_site_symmetry_2
Mo1 O1 1_555 1_555
Mo2 O4 1_555 1_555
O1 Mo1_2 1_555 1_555
O2 Mo1 1_555 1_555
O3 Mo1 1_555 1_555
O4 Mo2_2 1_555 1_555
O5 Mo2 1_555 1_555
O6 Mo2 1_555 1_555
O7 Mo2 1_555 1_555
H1 O7 1_555 1_555
H2 O7 1_555 1_555
N1 Mo1 1_555 1_555
N2 Mo1 1_555 1_555
C1 N1 1_555 1_555
C2 C1 1_555 1_555
C3 C2 1_555 1_555
C4 C3 1_555 1_555
C5 N1 1_555 1_555
C6 N2 1_555 1_555
C7 C6 1_555 1_555
C8 C7 1_555 1_555
C9 C8 1_555 1_555
C10 N2 1_555 1_555
H3 C1 1_555 1_555
H4 C2 1_555 1_555
H5 C3 1_555 1_555
H6 C4 1_555 1_555
H7 C7 1_555 1_555
H8 C8 1_555 1_555
H9 C9 1_555 1_555
H10 C10 1_555 1_555
Mo2B O4 1_555 1_555
O1_2 Mo1 1_555 1_555
O4_2 Mo2 1_555 1_555
O4B Mo2 1_555 1_555
C4 C5 1_555 1_555
C5 C6 1_555 1_555
C9 C10 1_555 1_555
Mo2B O4B 1_555 1_555

#END
