
#######################################################################
#
#                 Cambridge Crystallographic Data Centre
#                                CCDC 
#
#######################################################################
#
# If this CIF has been generated from an entry in the Cambridge 
# Structural Database, then it will include bibliographic, chemical, 
# crystal, experimental, refinement or atomic coordinate data resulting 
# from the CCDC's data processing and validation procedures.
#
#######################################################################

data_NACVOC
_symmetry_cell_setting           monoclinic
_symmetry_space_group_name_H-M   'C c'
_symmetry_Int_Tables_number      9
_space_group_name_Hall           'C -2yc'
loop_
_symmetry_equiv_pos_site_id
_symmetry_equiv_pos_as_xyz
1 x,y,z
2 x,-y,1/2+z
3 1/2+x,1/2+y,z
4 1/2+x,1/2-y,1/2+z
_cell_length_a                   6.2700(10)
_cell_length_b                   19.664(2)
_cell_length_c                   8.476(2)
_cell_angle_alpha                90
_cell_angle_beta                 98.910(10)
_cell_angle_gamma                90
_cell_volume                     1032.42
loop_
_atom_site_label
_atom_site_type_symbol
_atom_site_fract_x
_atom_site_fract_y
_atom_site_fract_z
Ag1 Ag -0.19224(7) 0.04408(2) 1.79537(7)
N1 N -0.9113(8) 0.0047(3) 1.2424(6)
N2 N -0.3894(7) 0.0642(2) 0.9714(6)
N3 N -0.3515(7) 0.1073(3) 1.5613(5)
N4 N -0.9568(8) 0.1908(3) 1.3524(7)
C1 C -0.6208(7) 0.0862(2) 1.1840(5)
C2 C -0.5810(7) 0.1488(2) 1.2930(6)
C3 C -0.7793(8) 0.0399(2) 1.2125(6)
C4 C -0.4936(7) 0.0733(2) 1.0684(5)
C5 C -0.4496(7) 0.1276(2) 1.4486(5)
C6 C -0.7922(8) 0.1739(3) 1.3286(6)
C7 C -0.4679(8) 0.2062(3) 1.2135(6)
H1 H -0.5605(8) 0.2205(3) 1.1167(6)
H2 H -0.3353(8) 0.1888(3) 1.1834(6)
C8 C -0.4159(8) 0.2670(2) 1.3206(6)
C9 C -0.3006(11) 0.3235(3) 1.2546(7)
H3 H -0.1843(11) 0.3055(3) 1.2058(7)
H4 H -0.3990(11) 0.3477(3) 1.1761(7)
H5 H -0.2437(11) 0.3540(3) 1.3392(7)
O1 O -0.4657(8) 0.2689(2) 1.4522(5)
Ag1A Ag -1.19224(7) -0.04408(2) 1.29537(7)
Ag1_2 Ag -0.19224(7) 0.04408(2) 0.79537(7)
N1A N 0.0887(8) -0.0047(3) 0.7424(6)
N3_2 N -0.3515(7) 0.1073(3) 0.5613(5)
loop_
_geom_bond_atom_site_label_1
_geom_bond_atom_site_label_2
_geom_bond_site_symmetry_1
_geom_bond_site_symmetry_2
Ag1 N3 1_555 1_555
N1 C3 1_555 1_555
N2 C4 1_555 1_555
N3 C5 1_555 1_555
N4 C6 1_555 1_555
C1 C2 1_555 1_555
C2 C5 1_555 1_555
C3 C1 1_555 1_555
C4 C1 1_555 1_555
C6 C2 1_555 1_555
C7 C2 1_555 1_555
H1 C7 1_555 1_555
H2 C7 1_555 1_555
C8 C7 1_555 1_555
C9 C8 1_555 1_555
H3 C9 1_555 1_555
H4 C9 1_555 1_555
H5 C9 1_555 1_555
O1 C8 1_555 1_555
Ag1A N1 1_555 1_555
Ag1_2 N2 1_555 1_555
N1A Ag1_2 1_555 1_555
N3_2 Ag1_2 1_555 1_555

#END
