
#######################################################################
#
#                 Cambridge Crystallographic Data Centre
#                                CCDC 
#
#######################################################################
#
# If this CIF has been generated from an entry in the Cambridge 
# Structural Database, then it will include bibliographic, chemical, 
# crystal, experimental, refinement or atomic coordinate data resulting 
# from the CCDC's data processing and validation procedures.
#
#######################################################################

data_NADMUC
_symmetry_cell_setting           tetragonal
_symmetry_space_group_name_H-M   'P -4 21 c'
_symmetry_Int_Tables_number      114
_space_group_name_Hall           'P -4 2n'
loop_
_symmetry_equiv_pos_site_id
_symmetry_equiv_pos_as_xyz
1 x,y,z
2 -x,-y,z
3 1/2+x,1/2-y,1/2-z
4 1/2-x,1/2+y,1/2-z
5 1/2+y,1/2+x,1/2+z
6 1/2-y,1/2-x,1/2+z
7 -y,x,-z
8 y,-x,-z
_cell_length_a                   13.3395(4)
_cell_length_b                   13.3395(4)
_cell_length_c                   7.1811(3)
_cell_angle_alpha                90
_cell_angle_beta                 90
_cell_angle_gamma                90
_cell_volume                     1277.82
loop_
_atom_site_label
_atom_site_type_symbol
_atom_site_fract_x
_atom_site_fract_y
_atom_site_fract_z
Ag1 Ag 0.00000 0.50000 0.52955(6)
S1 S -0.01228(9) 0.64062(9) 0.28065(18)
C1 C -0.1289(5) 0.6862(4) 0.3270(8)
N1 N -0.2176(4) 0.6383(4) 0.3293(7)
C2 C -0.2358(4) 0.5332(4) 0.2898(9)
H1 H -0.2031 0.515 0.1724
H2 H -0.3082 0.5216 0.2794
H3 H -0.2085 0.4921 0.3909
C3 C -0.2918(5) 0.7036(5) 0.3863(9)
H4 H -0.361 0.6884 0.4006
C4 C -0.2480(5) 0.7924(5) 0.4177(9)
H5 H -0.2804 0.8519 0.4588
N2 N -0.1471(4) 0.7816(4) 0.3791(7)
H6 H -0.1019 0.8294 0.3874
Ag1D Ag 0.00000 0.50000 0.02955(6)
S1A S 0.01228(9) 0.35938(9) 0.28065(18)
S1D S 0.14062(9) 0.48772(9) 0.78065(18)
S1E S -0.14062(9) 0.51228(9) 0.78065(18)
C1A C 0.1289(5) 0.3138(4) 0.3270(8)
N1A N 0.2176(4) 0.3617(4) 0.3293(7)
C2A C 0.2358(4) 0.4668(4) 0.2898(9)
H1A H 0.2031 0.485 0.1724
H2A H 0.3082 0.4784 0.2794
H3A H 0.2085 0.5079 0.3909
C3A C 0.2918(5) 0.2964(5) 0.3863(9)
H4A H 0.361 0.3116 0.4006
C4A C 0.2480(5) 0.2076(5) 0.4177(9)
H5A H 0.2804 0.1481 0.4588
N2A N 0.1471(4) 0.2184(4) 0.3791(7)
H6A H 0.1019 0.1706 0.3874
S2 S 0.00000 0.00000 0.50000
O1 O 0.0886(4) 0.0103(7) 0.6149(10)
O1A O -0.0886(4) -0.0103(7) 0.6149(10)
O1F O -0.0103(7) 0.0886(4) 0.3851(10)
O1G O 0.0103(7) -0.0886(4) 0.3851(10)
O2 O -0.0177(16) 0.0504(12) -0.001(3)
loop_
_geom_bond_atom_site_label_1
_geom_bond_atom_site_label_2
_geom_bond_site_symmetry_1
_geom_bond_site_symmetry_2
Ag1 S1 1_555 1_555
S1 C1 1_555 1_555
C1 N1 1_555 1_555
N1 C2 1_555 1_555
C2 H1 1_555 1_555
H2 C2 1_555 1_555
H3 C2 1_555 1_555
C3 N1 1_555 1_555
H4 C3 1_555 1_555
C4 C3 1_555 1_555
H5 C4 1_555 1_555
N2 C1 1_555 1_555
H6 N2 1_555 1_555
S2 O1 1_555 1_555
Ag1D S1 1_555 1_555
S1A Ag1 1_555 1_555
S1D Ag1 1_555 1_555
S1E Ag1 1_555 1_555
C1A S1A 1_555 1_555
N1A C1A 1_555 1_555
C2A N1A 1_555 1_555
H1A C2A 1_555 1_555
H2A C2A 1_555 1_555
H3A C2A 1_555 1_555
C3A N1A 1_555 1_555
H4A C3A 1_555 1_555
C4A C3A 1_555 1_555
H5A C4A 1_555 1_555
N2A C1A 1_555 1_555
H6A N2A 1_555 1_555
O1A S2 1_555 1_555
O1F S2 1_555 1_555
O1G S2 1_555 1_555
C4 N2 1_555 1_555
Ag1D S1A 1_555 1_555
C4A N2A 1_555 1_555

#END
