
#######################################################################
#
#                 Cambridge Crystallographic Data Centre
#                                CCDC 
#
#######################################################################
#
# If this CIF has been generated from an entry in the Cambridge 
# Structural Database, then it will include bibliographic, chemical, 
# crystal, experimental, refinement or atomic coordinate data resulting 
# from the CCDC's data processing and validation procedures.
#
#######################################################################

data_NADNAI
_symmetry_cell_setting           monoclinic
_symmetry_space_group_name_H-M   'C 2/c'
_symmetry_Int_Tables_number      15
_space_group_name_Hall           '-C 2yn'
loop_
_symmetry_equiv_pos_site_id
_symmetry_equiv_pos_as_xyz
1 x,y,z
2 1/2+x,1/2+y,z
3 x,-y,1/2+z
4 1/2+x,1/2-y,1/2+z
5 -x,-y,-z
6 1/2-x,1/2-y,-z
7 -x,y,1/2-z
8 1/2-x,1/2+y,1/2-z
_cell_length_a                   11.706(3)
_cell_length_b                   20.565(5)
_cell_length_c                   14.685(4)
_cell_angle_alpha                90
_cell_angle_beta                 99.699(18)
_cell_angle_gamma                90
_cell_volume                     3484.65
loop_
_atom_site_label
_atom_site_type_symbol
_atom_site_fract_x
_atom_site_fract_y
_atom_site_fract_z
Cd1 Cd 0.0000 0.0000 0.5000
N3 N 0.30031(16) 0.12349(10) 0.62527(15)
N4 N 0.14405(17) 0.06255(11) 0.59001(16)
N5 N 0.70669(16) 0.07929(10) 0.62551(15)
N6 N 0.86296(17) 0.03351(10) 0.58907(16)
N7 N 0.57183(16) 0.30240(10) 0.62648(15)
N8 N 0.55027(17) 0.40698(10) 0.59277(16)
C1 C 0.41530(19) 0.14669(12) 0.62718(17)
C2 C 0.5038(2) 0.10192(12) 0.62746(18)
H3 H 0.4887 0.0566 0.6283
C3 C 0.61509(19) 0.12490(12) 0.62646(17)
C4 C 0.6389(2) 0.19097(12) 0.62548(17)
H4 H 0.7153 0.2061 0.6239
C5 C 0.5488(2) 0.23420(12) 0.62685(17)
C6 C 0.4361(2) 0.21309(12) 0.62789(18)
H5 H 0.3750 0.2433 0.6291
C7 C 0.2542(2) 0.06887(13) 0.58279(19)
H6 H 0.2959 0.0389 0.5517
C8 C 0.1182(2) 0.11573(14) 0.64052(19)
H7 H 0.0450 0.1241 0.6578
C9 C 0.2130(2) 0.15416(13) 0.66173(19)
H8 H 0.2184 0.1940 0.6949
C10 C 0.7946(2) 0.08489(12) 0.57805(19)
H9 H 0.8062 0.1214 0.5410
C11 C 0.8161(2) -0.00666(15) 0.64869(19)
H10 H 0.8474 -0.0475 0.6707
C12 C 0.7197(2) 0.02037(13) 0.6711(2)
H11 H 0.6708 0.0026 0.7102
C13 C 0.5000(2) 0.34914(12) 0.5846(2)
H12 H 0.4233 0.3414 0.5534
C14 C 0.6597(2) 0.39651(13) 0.64274(19)
H13 H 0.7161 0.4295 0.6599
C15 C 0.6751(2) 0.33286(13) 0.66376(19)
H14 H 0.7427 0.3130 0.6972
N3D N -0.30031(16) -0.12349(10) 0.37473(15)
N4D N -0.14405(17) -0.06255(11) 0.40999(16)
N5D N -0.70669(16) -0.07929(10) 0.37449(15)
N6D N -0.86296(17) -0.03351(10) 0.41093(16)
N7D N -0.57183(16) -0.30240(10) 0.37352(15)
N8D N -0.55027(17) -0.40698(10) 0.40723(16)
C1D C -0.41530(19) -0.14669(12) 0.37282(17)
C2D C -0.5038(2) -0.10192(12) 0.37254(18)
H3D H -0.4887 -0.0566 0.3717
C3D C -0.61509(19) -0.12490(12) 0.37354(17)
C4D C -0.6389(2) -0.19097(12) 0.37452(17)
H4D H -0.7153 -0.2061 0.3761
C5D C -0.5488(2) -0.23420(12) 0.37315(17)
C6D C -0.4361(2) -0.21309(12) 0.37211(18)
H5D H -0.3750 -0.2433 0.3709
C7D C -0.2542(2) -0.06887(13) 0.41721(19)
H6D H -0.2959 -0.0389 0.4483
C8D C -0.1182(2) -0.11573(14) 0.35948(19)
H7D H -0.0450 -0.1241 0.3422
C9D C -0.2130(2) -0.15416(13) 0.33827(19)
H8D H -0.2184 -0.1940 0.3051
C10D C -0.7946(2) -0.08489(12) 0.42195(19)
H9D H -0.8062 -0.1214 0.4590
C11D C -0.8161(2) 0.00666(15) 0.35131(19)
H10D H -0.8474 0.0475 0.3293
C12D C -0.7197(2) -0.02037(13) 0.3289(2)
H11D H -0.6708 -0.0026 0.2898
C13D C -0.5000(2) -0.34914(12) 0.4154(2)
H12D H -0.4233 -0.3414 0.4466
C14D C -0.6597(2) -0.39651(13) 0.35726(19)
H13D H -0.7161 -0.4295 0.3401
C15D C -0.6751(2) -0.33286(13) 0.33624(19)
H14D H -0.7427 -0.3130 0.3028
N6_2 N -0.13704(17) 0.03351(10) 0.58907(16)
N6D_2 N 0.13704(17) -0.03351(10) 0.41093(16)
N8A N 0.05027(17) -0.09302(10) 0.59277(16)
N8E N -0.05027(17) 0.09302(10) 0.40723(16)
Cd1_2 Cd 1.0000 0.0000 0.5000
Cd1A Cd 0.5000 0.5000 0.5000
Cd1_3 Cd -1.0000 0.0000 0.5000
Cd1A_2 Cd -0.5000 -0.5000 0.5000
O1 O -0.2849(2) 0.17899(19) 0.0900(2)
H1 H -0.3061 0.1390 0.0875
H2 H -0.3272 0.1999 0.1158
O4 O 0.5824(4) -0.1140(2) 0.7041(3)
O5 O 0.4413(5) -0.1127(4) 0.5874(4)
O6 O 0.4478(4) -0.0425(2) 0.6972(4)
N1 N 0.4892(4) -0.0895(3) 0.6614(4)
O2? O 0.4489(6) -0.0669(3) 0.5999(5)
O3? O -0.5686(8) 0.2574(3) 0.0944(6)
O7? O -0.4284(4) 0.2168(3) 0.2022(4)
O8? O -0.5785(4) 0.2738(2) 0.2094(4)
O9? O -0.5694(8) 0.2171(4) 0.0899(5)
N2? N -0.5258(4) 0.2372(3) 0.1656(4)
loop_
_geom_bond_atom_site_label_1
_geom_bond_atom_site_label_2
_geom_bond_site_symmetry_1
_geom_bond_site_symmetry_2
Cd1 N4 1_555 1_555
O1 H1 1_555 1_555
H2 O1 1_555 1_555
O4 N1 1_555 1_555
O5 N1 1_555 1_555
O6 N1 1_555 1_555
N3 C1 1_555 1_555
N4 C7 1_555 1_555
N5 C3 1_555 1_555
N6 C10 1_555 1_555
N7 C5 1_555 1_555
N8 C13 1_555 1_555
C1 C2 1_555 1_555
C2 H3 1_555 1_555
C3 C2 1_555 1_555
C4 C3 1_555 1_555
H4 C4 1_555 1_555
C5 C4 1_555 1_555
C6 C1 1_555 1_555
H5 C6 1_555 1_555
C7 N3 1_555 1_555
H6 C7 1_555 1_555
C8 N4 1_555 1_555
H7 C8 1_555 1_555
C9 N3 1_555 1_555
H8 C9 1_555 1_555
C10 N5 1_555 1_555
H9 C10 1_555 1_555
C11 N6 1_555 1_555
H10 C11 1_555 1_555
C12 N5 1_555 1_555
H11 C12 1_555 1_555
C13 N7 1_555 1_555
H12 C13 1_555 1_555
C14 N8 1_555 1_555
H13 C14 1_555 1_555
C15 N7 1_555 1_555
H14 C15 1_555 1_555
N3D C1D 1_555 1_555
N4D Cd1 1_555 1_555
N5D C3D 1_555 1_555
N6D C10D 1_555 1_555
N7D C5D 1_555 1_555
N8D C13D 1_555 1_555
C1D C2D 1_555 1_555
C2D H3D 1_555 1_555
C3D C2D 1_555 1_555
C4D C3D 1_555 1_555
H4D C4D 1_555 1_555
C5D C4D 1_555 1_555
C6D C1D 1_555 1_555
H5D C6D 1_555 1_555
C7D N3D 1_555 1_555
H6D C7D 1_555 1_555
C8D N4D 1_555 1_555
H7D C8D 1_555 1_555
C9D N3D 1_555 1_555
H8D C9D 1_555 1_555
C10D N5D 1_555 1_555
H9D C10D 1_555 1_555
C11D N6D 1_555 1_555
H10D C11D 1_555 1_555
C12D N5D 1_555 1_555
H11D C12D 1_555 1_555
C13D N7D 1_555 1_555
H12D C13D 1_555 1_555
C14D N8D 1_555 1_555
H13D C14D 1_555 1_555
C15D N7D 1_555 1_555
H14D C15D 1_555 1_555
N6_2 Cd1 1_555 1_555
N6D_2 Cd1 1_555 1_555
N8A Cd1 1_555 1_555
N8E Cd1 1_555 1_555
Cd1_2 N6 1_555 1_555
Cd1A N8 1_555 1_555
Cd1_3 N6D 1_555 1_555
Cd1A_2 N8D 1_555 1_555
C5 C6 1_555 1_555
C8 C9 1_555 1_555
C11 C12 1_555 1_555
C14 C15 1_555 1_555
N4D C7D 1_555 1_555
C5D C6D 1_555 1_555
C8D C9D 1_555 1_555
C11D C12D 1_555 1_555
C14D C15D 1_555 1_555

#END
