
#######################################################################
#
#                 Cambridge Crystallographic Data Centre
#                                CCDC 
#
#######################################################################
#
# If this CIF has been generated from an entry in the Cambridge 
# Structural Database, then it will include bibliographic, chemical, 
# crystal, experimental, refinement or atomic coordinate data resulting 
# from the CCDC's data processing and validation procedures.
#
#######################################################################

data_NADNIQ
_symmetry_cell_setting           trigonal
_symmetry_space_group_name_H-M   'P -3 c 1'
_symmetry_Int_Tables_number      165
_space_group_name_Hall           '-P 3 2"c'
loop_
_symmetry_equiv_pos_site_id
_symmetry_equiv_pos_as_xyz
1 x,y,z
2 -y,x-y,z
3 -x+y,-x,z
4 y,x,1/2-z
5 -x+y,y,1/2+z
6 x,x-y,1/2+z
7 -x,-y,-z
8 y,-x+y,-z
9 x-y,x,-z
10 -y,-x,1/2+z
11 x-y,-y,1/2-z
12 -x,-x+y,1/2-z
_cell_length_a                   12.082(1)
_cell_length_b                   12.082(1)
_cell_length_c                   31.900(3)
_cell_angle_alpha                90
_cell_angle_beta                 90
_cell_angle_gamma                120
_cell_volume                     4032.73
loop_
_atom_site_label
_atom_site_type_symbol
_atom_site_fract_x
_atom_site_fract_y
_atom_site_fract_z
Ag1 Ag 0.3333 0.6667 0.070298(12)
N1 N 0.2948(2) 0.4829(2) 0.10675(8)
N2 N 0.2399(2) 0.3309(2) 0.15430(7)
P1 P 0.3333 0.6667 -0.00513(4)
C1 C 0.3048(3) 0.5191(3) -0.02959(9)
C2 C 0.2049(3) 0.4044(3) -0.01491(10)
H1 H 0.1564 0.4041 0.0078
C3 C 0.1774(3) 0.2910(3) -0.03378(10)
H2 H 0.1073 0.2153 -0.0246
C4 C 0.2502(3) 0.2873(3) -0.06535(10)
H3 H 0.2325 0.2093 -0.0767
C5 C 0.3490(3) 0.3975(3) -0.08039(10)
H4 H 0.3978 0.3949 -0.1025
C6 C 0.3777(3) 0.5146(3) -0.06289(10)
H5 H 0.4454 0.5898 -0.0734
C7 C 0.3010(3) 0.3817(3) 0.09020(10)
H6 H 0.3253 0.3779 0.0628
C8 C 0.2672(3) 0.2888(3) 0.11874(10)
H7 H 0.2634 0.2106 0.1148
C9 C 0.2567(3) 0.4470(3) 0.14587(10)
H8 H 0.2431 0.4966 0.1652
C10 C 0.2054(3) 0.2653(3) 0.19494(9)
H9 H 0.1798 0.3115 0.2138
H10 H 0.2804 0.2675 0.2068
C11 C 0.0987(3) 0.1279(3) 0.19255(9)
C12 C -0.0270(3) 0.1003(3) 0.19224(8)
C13 C -0.0580(3) 0.2088(3) 0.19107(9)
H11 H -0.1443 0.1759 0.1817
H12 H -0.0005 0.2742 0.1721
H13 H -0.0484 0.2443 0.2187
C11A C -0.1279(3) -0.0292(4) 0.19255(9)
C10A C -0.2653(3) -0.0599(4) 0.19494(9)
N2A N -0.3309(2) -0.0910(3) 0.15430(7)
C8A C -0.2888(3) -0.0216(4) 0.11874(10)
C7A C -0.3817(3) -0.0807(4) 0.09020(10)
N1A N -0.4829(2) -0.1881(3) 0.10675(8)
C9A C -0.4470(3) -0.1903(4) 0.14587(10)
H8A H -0.4966 -0.2535 0.1652
H6A H -0.3779 -0.0526 0.0628
H7A H -0.2106 0.0528 0.1148
H9A H -0.3115 -0.1317 0.2138
H10A H -0.2675 0.0129 0.2068
C12A C -0.1003(3) -0.1273(4) 0.19224(8)
C11B C 0.0292(4) -0.0987(3) 0.19255(9)
C10B C 0.0599(4) -0.2054(3) 0.19494(9)
N2B N 0.0910(3) -0.2399(2) 0.15430(7)
C8B C 0.0216(4) -0.2672(3) 0.11874(10)
C7B C 0.0807(4) -0.3010(3) 0.09020(10)
N1B N 0.1881(3) -0.2948(2) 0.10675(8)
C9B C 0.1903(4) -0.2567(3) 0.14587(10)
H8B H 0.2535 -0.2431 0.1652
H6B H 0.0526 -0.3253 0.0628
H7B H -0.0528 -0.2634 0.1148
H9B H 0.1317 -0.1798 0.2138
H10B H -0.0129 -0.2804 0.2068
C12B C 0.1273(4) 0.0270(3) 0.19224(8)
C13B C 0.2668(4) 0.0580(3) 0.19107(9)
H11B H 0.3202 0.1443 0.1817
H12B H 0.2747 0.0005 0.1721
H13B H 0.2927 0.0484 0.2187
C13A C -0.2088(3) -0.2668(4) 0.19107(9)
H11A H -0.1759 -0.3202 0.1817
H12A H -0.2742 -0.2747 0.1721
H13A H -0.2443 -0.2927 0.2187
C1A C 0.4809(3) 0.7857(4) -0.02959(9)
C2A C 0.5956(3) 0.8005(4) -0.01491(10)
H1A H 0.5959 0.7523 0.0078
C3A C 0.7090(3) 0.8864(4) -0.03378(10)
H2A H 0.7847 0.8920 -0.0246
C4A C 0.7127(3) 0.9629(4) -0.06535(10)
H3A H 0.7907 1.0232 -0.0767
C5A C 0.6025(3) 0.9515(4) -0.08039(10)
H4A H 0.6051 1.0029 -0.1025
C6A C 0.4854(3) 0.8631(4) -0.06289(10)
H5A H 0.4102 0.8556 -0.0734
C1B C 0.2143(4) 0.6952(3) -0.02959(9)
C2B C 0.1995(4) 0.7951(3) -0.01491(10)
H1B H 0.2477 0.8436 0.0078
C3B C 0.1136(4) 0.8226(3) -0.03378(10)
H2B H 0.1080 0.8927 -0.0246
C4B C 0.0371(4) 0.7498(3) -0.06535(10)
H3B H -0.0232 0.7675 -0.0767
C5B C 0.0485(4) 0.6510(3) -0.08039(10)
H4B H -0.0029 0.6022 -0.1025
C6B C 0.1369(4) 0.6223(3) -0.06289(10)
H5B H 0.1444 0.5546 -0.0734
N1A_2 N 0.5171(2) 0.8119(3) 0.10675(8)
Ag1A Ag -0.6667 -0.3334 0.070298(12)
N1B_2 N 0.1881(3) 0.7052(2) 0.10675(8)
Ag1_2 Ag 0.3333 -0.3333 0.070298(12)
O1 O 0.2399(2) 0.5368(2) 0.24706(7)
S1 S 0.3333 0.6667 0.25745(5)
C14 C 0.3333 0.6667 0.3109(2)
F1 F 0.35565(19) 0.5820(2) 0.32841(6)
O1B O 0.2969(3) 0.7601(2) 0.24706(7)
O1A O 0.4632(2) 0.7031(3) 0.24706(7)
F1A F 0.4180(2) 0.77365(28) 0.32841(6)
F1B F 0.22635(28) 0.64435(19) 0.32841(6)
O2 O 1.0000 0.5180(3) 0.2500
H14 H 0.9498 0.4604 0.2331
H14K H 1.0502 0.5106 0.2669
loop_
_geom_bond_atom_site_label_1
_geom_bond_atom_site_label_2
_geom_bond_site_symmetry_1
_geom_bond_site_symmetry_2
Ag1 N1 1_555 1_555
N1 C7 1_555 1_555
N2 C8 1_555 1_555
P1 Ag1 1_555 1_555
C1 P1 1_555 1_555
C2 C1 1_555 1_555
H1 C2 1_555 1_555
C3 C2 1_555 1_555
H2 C3 1_555 1_555
C4 C3 1_555 1_555
H3 C4 1_555 1_555
C5 C4 1_555 1_555
H4 C5 1_555 1_555
C6 C1 1_555 1_555
H5 C6 1_555 1_555
C7 H6 1_555 1_555
C8 C7 1_555 1_555
H7 C8 1_555 1_555
C9 N1 1_555 1_555
H8 C9 1_555 1_555
C10 N2 1_555 1_555
H9 C10 1_555 1_555
H10 C10 1_555 1_555
C11 C10 1_555 1_555
C12 C11 1_555 1_555
C13 C12 1_555 1_555
H11 C13 1_555 1_555
H12 C13 1_555 1_555
H13 C13 1_555 1_555
O1 S1 1_555 1_555
S1 C14 1_555 1_555
C14 F1 1_555 1_555
O2 H14 1_555 1_555
C11A C12 1_555 1_555
C10A C11A 1_555 1_555
N2A C10A 1_555 1_555
C8A N2A 1_555 1_555
C7A C8A 1_555 1_555
N1A C7A 1_555 1_555
C9A N2A 1_555 1_555
H8A C9A 1_555 1_555
H6A C7A 1_555 1_555
H7A C8A 1_555 1_555
H9A C10A 1_555 1_555
H10A C10A 1_555 1_555
C12A C11A 1_555 1_555
C11B C12A 1_555 1_555
C10B C11B 1_555 1_555
N2B C10B 1_555 1_555
C8B N2B 1_555 1_555
C7B C8B 1_555 1_555
N1B C7B 1_555 1_555
C9B N2B 1_555 1_555
H8B C9B 1_555 1_555
H6B C7B 1_555 1_555
H7B C8B 1_555 1_555
H9B C10B 1_555 1_555
H10B C10B 1_555 1_555
C12B C11 1_555 1_555
C13B C12B 1_555 1_555
H11B C13B 1_555 1_555
H12B C13B 1_555 1_555
H13B C13B 1_555 1_555
C13A C12A 1_555 1_555
H11A C13A 1_555 1_555
H12A C13A 1_555 1_555
H13A C13A 1_555 1_555
C1A P1 1_555 1_555
C2A C1A 1_555 1_555
H1A C2A 1_555 1_555
C3A C2A 1_555 1_555
H2A C3A 1_555 1_555
C4A C3A 1_555 1_555
H3A C4A 1_555 1_555
C5A C4A 1_555 1_555
H4A C5A 1_555 1_555
C6A C1A 1_555 1_555
H5A C6A 1_555 1_555
C1B P1 1_555 1_555
C2B C1B 1_555 1_555
H1B C2B 1_555 1_555
C3B C2B 1_555 1_555
H2B C3B 1_555 1_555
C4B C3B 1_555 1_555
H3B C4B 1_555 1_555
C5B C4B 1_555 1_555
H4B C5B 1_555 1_555
C6B C1B 1_555 1_555
H5B C6B 1_555 1_555
O1B S1 1_555 1_555
O1A S1 1_555 1_555
F1A C14 1_555 1_555
F1B C14 1_555 1_555
H14K O2 1_555 1_555
N1A_2 Ag1 1_555 1_555
Ag1A N1A 1_555 1_555
N1B_2 Ag1 1_555 1_555
Ag1_2 N1B 1_555 1_555
N2 C9 1_555 1_555
C5 C6 1_555 1_555
N1A C9A 1_555 1_555
C11B C12B 1_555 1_555
N1B C9B 1_555 1_555
C5A C6A 1_555 1_555
C5B C6B 1_555 1_555

#END
