
#######################################################################
#
#                 Cambridge Crystallographic Data Centre
#                                CCDC 
#
#######################################################################
#
# If this CIF has been generated from an entry in the Cambridge 
# Structural Database, then it will include bibliographic, chemical, 
# crystal, experimental, refinement or atomic coordinate data resulting 
# from the CCDC's data processing and validation procedures.
#
#######################################################################

data_NADNUC
_symmetry_cell_setting           monoclinic
_symmetry_space_group_name_H-M   'P 2/c'
_symmetry_Int_Tables_number      13
_space_group_name_Hall           '-P 2yc'
loop_
_symmetry_equiv_pos_site_id
_symmetry_equiv_pos_as_xyz
1 x,y,z
2 x,-y,1/2+z
3 -x,-y,-z
4 -x,y,1/2-z
_cell_length_a                   13.846(3)
_cell_length_b                   7.4983(15)
_cell_length_c                   14.140(3)
_cell_angle_alpha                90
_cell_angle_beta                 116.39(3)
_cell_angle_gamma                90
_cell_volume                     1315.05
loop_
_atom_site_label
_atom_site_type_symbol
_atom_site_fract_x
_atom_site_fract_y
_atom_site_fract_z
Eu1 Eu 0.0000 0.30521(5) 0.2500
Eu2 Eu 0.5000 0.52222(6) 0.2500
Cl1 Cl 0.59780(12) 0.6871(2) 0.44127(12)
O1 O 0.0411(3) 0.3979(8) 0.1056(4)
O2 O 0.1605(3) 0.1577(6) 0.2440(3)
O3 O 0.3629(3) 0.3015(6) 0.1584(3)
O4 O 0.4436(3) 0.3309(6) 0.3591(3)
O5 O 0.0735(4) 0.0655(8) 0.3757(5)
O6 O 0.1668(3) 0.4246(7) 0.3878(4)
O7 O 0.0000 0.6351(10) 0.2500
O8 O 0.3582(3) 0.6953(6) 0.2611(4)
C1 C 0.1329(4) 0.3317(10) 0.0926(5)
H1 H 0.1629 0.4247 0.0659
H2 H 0.1122 0.2318 0.0440
C2 C 0.2139(4) 0.2735(7) 0.2026(4)
H3 H 0.2367 0.3799 0.2475
C3 C 0.3151(4) 0.1843(8) 0.2061(5)
H4 H 0.2965 0.0699 0.1687
C4 C 0.3996(4) 0.1574(9) 0.3197(5)
H5 H 0.3669 0.1068 0.3618
H6 H 0.4558 0.0775 0.3224
H7 H 0.0250 0.5510 0.0753
H8 H 0.1941 0.0881 0.3182
H9 H 0.3427 0.2828 0.0949
H10 H 0.4541 0.3503 0.4326
H11 H 0.1331 -0.0001 0.3704
H12 H 0.0949 0.0639 0.4845
H13 H 0.2167 0.3165 0.4380
H14 H 0.1826 0.5449 0.3836
H15 H -0.0468 0.6781 0.2787
H16 H 0.3045 0.7246 0.1896
H17 H 0.3234 0.6250 0.2939
H15C H 0.0468 0.6781 0.2213
O1C O -0.0411(3) 0.3979(8) 0.3944(4)
O2C O -0.1605(3) 0.1577(6) 0.2560(3)
O3C O -0.3629(3) 0.3015(6) 0.3416(3)
O4C O -0.4436(3) 0.3309(6) 0.1409(3)
C1C C -0.1329(4) 0.3317(10) 0.4074(5)
H1C H -0.1629 0.4247 0.4341
H2C H -0.1122 0.2318 0.4560
C2C C -0.2139(4) 0.2735(7) 0.2974(4)
H3C H -0.2367 0.3799 0.2525
C3C C -0.3151(4) 0.1843(8) 0.2939(5)
H4C H -0.2965 0.0699 0.3313
C4C C -0.3996(4) 0.1574(9) 0.1803(5)
H5C H -0.3669 0.1068 0.1382
H6C H -0.4558 0.0775 0.1776
H7C H -0.0250 0.5510 0.4247
H8C H -0.1941 0.0881 0.1818
H9C H -0.3427 0.2828 0.4051
H10C H -0.4541 0.3503 0.0674
O5C O -0.0735(4) 0.0655(8) 0.1243(5)
H11C H -0.1331 -0.0001 0.1296
H12C H -0.0949 0.0639 0.0155
O6C O -0.1668(3) 0.4246(7) 0.1122(4)
H13C H -0.2167 0.3165 0.0620
H14C H -0.1826 0.5449 0.1164
Cl1C Cl 0.40220(12) 0.6871(2) 0.05873(12)
O8C O 0.6418(3) 0.6953(6) 0.2389(4)
H16C H 0.6955 0.7246 0.3104
H17C H 0.6766 0.6250 0.2061
O3C_2 O 0.6371(3) 0.3015(6) 0.3416(3)
O4C_2 O 0.5564(3) 0.3309(6) 0.1409(3)
Eu2_2 Eu -0.5000 0.52222(6) 0.2500
H9C_2 H 0.6573 0.2828 0.4051
H10C_2 H 0.5459 0.3503 0.0674
Cl2 Cl -0.12097(12) 0.8104(2) 0.38569(13)
Cl3 Cl -0.26968(13) 0.8034(2) 0.07211(13)
loop_
_geom_bond_atom_site_label_1
_geom_bond_atom_site_label_2
_geom_bond_site_symmetry_1
_geom_bond_site_symmetry_2
Eu1 O1 1_555 1_555
Eu2 Cl1 1_555 1_555
O1 C1 1_555 1_555
O2 Eu1 1_555 1_555
O3 Eu2 1_555 1_555
O4 Eu2 1_555 1_555
O5 Eu1 1_555 1_555
O6 Eu1 1_555 1_555
O7 Eu1 1_555 1_555
O8 Eu2 1_555 1_555
C1 H1 1_555 1_555
H2 C1 1_555 1_555
C2 O2 1_555 1_555
H3 C2 1_555 1_555
C3 O3 1_555 1_555
H4 C3 1_555 1_555
C4 O4 1_555 1_555
H5 C4 1_555 1_555
H6 C4 1_555 1_555
H7 O1 1_555 1_555
H8 O2 1_555 1_555
H9 O3 1_555 1_555
H10 O4 1_555 1_555
H11 O5 1_555 1_555
H12 O5 1_555 1_555
H13 O6 1_555 1_555
H14 O6 1_555 1_555
H15 O7 1_555 1_555
H16 O8 1_555 1_555
H17 O8 1_555 1_555
H15C O7 1_555 1_555
O1C Eu1 1_555 1_555
O2C Eu1 1_555 1_555
O3C C3C 1_555 1_555
O4C C4C 1_555 1_555
C1C O1C 1_555 1_555
H1C C1C 1_555 1_555
H2C C1C 1_555 1_555
C2C O2C 1_555 1_555
H3C C2C 1_555 1_555
C3C C2C 1_555 1_555
H4C C3C 1_555 1_555
C4C C3C 1_555 1_555
H5C C4C 1_555 1_555
H6C C4C 1_555 1_555
H7C O1C 1_555 1_555
H8C O2C 1_555 1_555
H9C O3C 1_555 1_555
H10C O4C 1_555 1_555
O5C Eu1 1_555 1_555
H11C O5C 1_555 1_555
H12C O5C 1_555 1_555
O6C Eu1 1_555 1_555
H13C O6C 1_555 1_555
H14C O6C 1_555 1_555
Cl1C Eu2 1_555 1_555
O8C Eu2 1_555 1_555
H16C O8C 1_555 1_555
H17C O8C 1_555 1_555
O3C_2 Eu2 1_555 1_555
O4C_2 Eu2 1_555 1_555
Eu2_2 O3C 1_555 1_555
H9C_2 O3C_2 1_555 1_555
H10C_2 O4C_2 1_555 1_555
C1 C2 1_555 1_555
C2 C3 1_555 1_555
C3 C4 1_555 1_555
O4C Eu2_2 1_555 1_555
C1C C2C 1_555 1_555

#END
