
#######################################################################
#
#                 Cambridge Crystallographic Data Centre
#                                CCDC 
#
#######################################################################
#
# If this CIF has been generated from an entry in the Cambridge 
# Structural Database, then it will include bibliographic, chemical, 
# crystal, experimental, refinement or atomic coordinate data resulting 
# from the CCDC's data processing and validation procedures.
#
#######################################################################

data_NADXAS
_symmetry_cell_setting           monoclinic
_symmetry_space_group_name_H-M   'P 21/n'
_symmetry_Int_Tables_number      14
_space_group_name_Hall           '-P 2yn'
loop_
_symmetry_equiv_pos_site_id
_symmetry_equiv_pos_as_xyz
1 x,y,z
2 1/2+x,1/2-y,1/2+z
3 -x,-y,-z
4 1/2-x,1/2+y,1/2-z
_cell_length_a                   9.7278(2)
_cell_length_b                   22.7462(4)
_cell_length_c                   9.8147(2)
_cell_angle_alpha                90
_cell_angle_beta                 99.9410(10)
_cell_angle_gamma                90
_cell_volume                     2139.1
loop_
_atom_site_label
_atom_site_type_symbol
_atom_site_fract_x
_atom_site_fract_y
_atom_site_fract_z
Tb1 Tb 0.480825(18) 0.001554(9) 0.255361(16)
O1 O 0.3016(3) 0.02694(12) 0.0759(3)
O2 O 0.3455(3) -0.01125(12) -0.1197(3)
O3 O 0.5108(3) 0.10683(12) 0.2156(3)
O4 O 0.6567(3) 0.06627(12) 0.3862(3)
O5 O 0.6031(3) -0.07691(12) 0.3685(3)
O6 O 0.6328(3) -0.04042(12) 0.5801(3)
O7 O 0.4579(3) -0.08497(12) 0.0962(3)
N1 N -0.2846(3) 0.07307(14) -0.3136(3)
H1 H -0.3385 0.0926 -0.2694
H2 H -0.3156 0.0606 -0.3959
N2 N 0.8277(4) 0.33762(15) 0.4763(4)
H3 H 0.7792 0.3687 0.4520
H4 H 0.9098 0.3407 0.5251
N3 N 0.8899(4) -0.29432(18) 0.7190(5)
H5 H 0.8875 -0.3251 0.6677
H6 H 0.9257 -0.2963 0.8053
C1 C 0.2665(4) 0.01542(16) -0.0507(4)
C2 C 0.1247(4) 0.03311(18) -0.1225(4)
C3 C 0.0753(5) 0.01457(18) -0.2564(5)
H7 H 0.1328 -0.0074 -0.3036
C4 C -0.0589(4) 0.0285(2) -0.3206(4)
H8 H -0.0913 0.0156 -0.4103
C5 C -0.1457(4) 0.06151(18) -0.2513(4)
C6 C -0.0956(4) 0.08164(17) -0.1186(4)
H9 H -0.1511 0.1052 -0.0727
C7 C 0.0383(4) 0.06617(17) -0.0549(4)
H10 H 0.0705 0.0784 0.0354
C8 C 0.6086(4) 0.11158(18) 0.3172(4)
C9 C 0.6684(4) 0.17072(18) 0.3584(4)
C10 C 0.5904(5) 0.22091(19) 0.3199(5)
H11 H 0.5018 0.2174 0.2671
C11 C 0.6424(5) 0.27574(19) 0.3588(5)
H12 H 0.5884 0.3089 0.3321
C12 C 0.7733(5) 0.28226(19) 0.4368(5)
C13 C 0.8535(5) 0.23207(19) 0.4769(5)
H13 H 0.9425 0.2356 0.5290
C14 C 0.7987(5) 0.17698(19) 0.4382(5)
H14 H 0.8511 0.1436 0.4667
C15 C 0.6484(4) -0.08062(18) 0.4970(5)
C16 C 0.7195(4) -0.13571(18) 0.5525(4)
C17 C 0.7209(5) -0.1853(2) 0.4690(5)
H15 H 0.6831 -0.1831 0.3754
C18 C 0.7781(5) -0.2377(2) 0.5241(5)
H16 H 0.7774 -0.2705 0.4675
C19 C 0.8359(5) -0.2415(2) 0.6625(5)
C20 C 0.8393(5) -0.1915(2) 0.7449(5)
H17 H 0.8821 -0.1930 0.8372
C21 C 0.7800(4) -0.14000(18) 0.6908(4)
H18 H 0.7803 -0.1074 0.7479
H19 H 0.5366 -0.1069 0.0989
H20 H 0.4238 -0.0740 0.0049
O2B O 0.6545(3) 0.01125(12) 0.1197(3)
O6B O 0.3672(3) 0.04042(12) 0.4199(3)
N1B N 0.2846(3) -0.07307(14) 0.3136(3)
Tb1B Tb 0.519175(18) -0.001554(9) -0.255361(16)
Tb1B_2 Tb 0.519175(18) -0.001554(9) 0.744639(16)
Tb1B_3 Tb -0.480825(18) -0.001554(9) -0.255361(16)
H1B H 0.3385 -0.0926 0.2694
H2B H 0.3156 -0.0606 0.3959
loop_
_geom_bond_atom_site_label_1
_geom_bond_atom_site_label_2
_geom_bond_site_symmetry_1
_geom_bond_site_symmetry_2
Tb1 O1 1_555 1_555
O1 C1 1_555 1_555
O2 C1 1_555 1_555
O3 Tb1 1_555 1_555
O4 Tb1 1_555 1_555
O5 Tb1 1_555 1_555
O6 C15 1_555 1_555
O7 Tb1 1_555 1_555
N1 H1 1_555 1_555
H2 N1 1_555 1_555
N2 H3 1_555 1_555
H4 N2 1_555 1_555
N3 H5 1_555 1_555
H6 N3 1_555 1_555
C1 C2 1_555 1_555
C2 C3 1_555 1_555
C3 H7 1_555 1_555
C4 C3 1_555 1_555
H8 C4 1_555 1_555
C5 N1 1_555 1_555
C6 C5 1_555 1_555
H9 C6 1_555 1_555
C7 C2 1_555 1_555
H10 C7 1_555 1_555
C8 O3 1_555 1_555
C9 C8 1_555 1_555
C10 C9 1_555 1_555
H11 C10 1_555 1_555
C11 C10 1_555 1_555
H12 C11 1_555 1_555
C12 N2 1_555 1_555
C13 C12 1_555 1_555
H13 C13 1_555 1_555
C14 C9 1_555 1_555
H14 C14 1_555 1_555
C15 O5 1_555 1_555
C16 C15 1_555 1_555
C17 C16 1_555 1_555
H15 C17 1_555 1_555
C18 C17 1_555 1_555
H16 C18 1_555 1_555
C19 N3 1_555 1_555
C20 C19 1_555 1_555
H17 C20 1_555 1_555
C21 C16 1_555 1_555
H18 C21 1_555 1_555
H19 O7 1_555 1_555
H20 O7 1_555 1_555
O2B Tb1 1_555 1_555
O6B Tb1 1_555 1_555
N1B Tb1 1_555 1_555
Tb1B O2 1_555 1_555
Tb1B_2 O6 1_555 1_555
Tb1B_3 N1 1_555 1_555
H1B N1B 1_555 1_555
H2B N1B 1_555 1_555
O4 C8 1_555 1_555
C4 C5 1_555 1_555
C6 C7 1_555 1_555
C11 C12 1_555 1_555
C13 C14 1_555 1_555
C18 C19 1_555 1_555
C20 C21 1_555 1_555

#END
