
#######################################################################
#
#                 Cambridge Crystallographic Data Centre
#                                CCDC 
#
#######################################################################
#
# If this CIF has been generated from an entry in the Cambridge 
# Structural Database, then it will include bibliographic, chemical, 
# crystal, experimental, refinement or atomic coordinate data resulting 
# from the CCDC's data processing and validation procedures.
#
#######################################################################

data_NADXUM01
_symmetry_cell_setting           monoclinic
_symmetry_space_group_name_H-M   'P 21/n'
_symmetry_Int_Tables_number      14
_space_group_name_Hall           '-P 2yn'
loop_
_symmetry_equiv_pos_site_id
_symmetry_equiv_pos_as_xyz
1 x,y,z
2 1/2-x,1/2+y,1/2-z
3 -x,-y,-z
4 1/2+x,1/2-y,1/2+z
_cell_length_a                   9.700(1)
_cell_length_b                   22.750(4)
_cell_length_c                   9.778(1)
_cell_angle_alpha                90
_cell_angle_beta                 99.93(1)
_cell_angle_gamma                90
_cell_volume                     2125.44
loop_
_atom_site_label
_atom_site_type_symbol
_atom_site_fract_x
_atom_site_fract_y
_atom_site_fract_z
Er1 Er 0.480487(12) 0.501943(6) 0.753415(12)
O1 O 0.3033(2) 0.52648(9) 0.5765(2)
O2 O 0.3473(2) 0.48842(9) 0.3796(2)
O3 O 0.3676(2) 0.53938(9) 0.9155(2)
O4 O 0.3981(2) 0.57350(10) 1.1296(2)
O5 O 0.5090(2) 0.60574(9) 0.7143(2)
O6 O 0.6548(2) 0.56542(9) 0.8855(2)
N1 N -0.2875(3) 0.57111(12) 0.1893(3)
N2 N 0.1156(4) 0.79447(17) 0.7879(5)
N3 N 0.8262(4) 0.83740(14) 0.9728(3)
C1 C 0.0386(3) 0.56601(13) 0.4473(3)
H1 H 0.0709 0.5783 0.5379
C2 C -0.0949(3) 0.58067(13) 0.3831(3)
H2 H -0.1509 0.6039 0.4295
C3 C -0.1463(3) 0.56099(13) 0.2496(3)
C4 C -0.0598(3) 0.52823(16) 0.1799(3)
H3 H -0.0932 0.5152 0.0902
C5 C 0.0755(3) 0.51475(14) 0.2421(3)
H4 H 0.1333 0.4935 0.1936
C6 C 0.1252(3) 0.53306(13) 0.3777(3)
C7 C 0.2679(3) 0.51530(12) 0.4493(3)
C8 C 0.2812(4) 0.68273(15) 1.0343(4)
H5 H 0.3187 0.6799 1.1282
C9 C 0.2252(4) 0.73586(15) 0.9808(4)
H6 H 0.2275 0.7684 1.0387
C10 C 0.1664(4) 0.74073(16) 0.8427(4)
C11 C 0.1618(4) 0.69158(16) 0.7580(4)
H7 H 0.1193 0.6939 0.6653
C12 C 0.2200(4) 0.63947(15) 0.8106(3)
H8 H 0.2179 0.6071 0.7522
C13 C 0.2819(3) 0.63397(14) 0.9494(3)
C14 C 0.3532(3) 0.57887(13) 1.0016(3)
C15 C 0.7986(4) 0.67618(14) 0.9380(4)
H9 H 0.8525 0.6431 0.9661
C16 C 0.8509(4) 0.73136(15) 0.9756(4)
H10 H 0.9400 0.7352 1.0280
C17 C 0.7716(4) 0.78126(14) 0.9359(3)
C18 C 0.6390(4) 0.77484(15) 0.8581(4)
H11 H 0.5846 0.8079 0.8317
C19 C 0.5867(4) 0.71960(14) 0.8192(4)
H12 H 0.4977 0.7159 0.7665
C20 C 0.6660(3) 0.66950(14) 0.8583(3)
C21 C 0.6072(3) 0.61075(13) 0.8169(3)
O7 O 0.4594(3) 0.41566(10) 0.5977(3)
H13 H -0.296(4) 0.5718(15) 0.0999(11)
H14 H -0.320(3) 0.6041(7) 0.209(3)
H15 H 0.078(4) 0.8138(18) 0.846(3)
H16 H 0.063(4) 0.793(2) 0.710(2)
H17 H 0.883(3) 0.8374(14) 1.051(2)
H18 H 0.761(3) 0.8623(16) 0.975(4)
H19 H 0.526(3) 0.3941(13) 0.592(4)
H20 H 0.436(5) 0.426(2) 0.5170(19)
Er1B Er 0.519513(12) 0.498057(6) 0.246585(12)
Er1B_2 Er 0.519513(12) 0.498057(6) 1.246585(12)
Er1B_3 Er -0.480487(12) 0.498057(6) 0.246585(12)
O2B O 0.6527(2) 0.51158(9) 0.6204(2)
O4B O 0.6019(2) 0.42650(10) 0.8704(2)
N1B N 0.2875(3) 0.42889(12) 0.8107(3)
H13B H 0.296(4) 0.4282(15) 0.9001(11)
H14B H 0.320(3) 0.3959(7) 0.791(3)
loop_
_geom_bond_atom_site_label_1
_geom_bond_atom_site_label_2
_geom_bond_site_symmetry_1
_geom_bond_site_symmetry_2
Er1 O1 1_555 1_555
O1 C7 1_555 1_555
O2 C7 1_555 1_555
O3 Er1 1_555 1_555
O4 C14 1_555 1_555
O5 Er1 1_555 1_555
O6 Er1 1_555 1_555
N1 C3 1_555 1_555
N2 C10 1_555 1_555
N3 C17 1_555 1_555
C1 H1 1_555 1_555
C2 C1 1_555 1_555
H2 C2 1_555 1_555
C3 C2 1_555 1_555
C4 C3 1_555 1_555
H3 C4 1_555 1_555
C5 C4 1_555 1_555
H4 C5 1_555 1_555
C6 C1 1_555 1_555
C7 C6 1_555 1_555
C8 H5 1_555 1_555
C9 C8 1_555 1_555
H6 C9 1_555 1_555
C10 C9 1_555 1_555
C11 C10 1_555 1_555
H7 C11 1_555 1_555
C12 C11 1_555 1_555
H8 C12 1_555 1_555
C13 C8 1_555 1_555
C14 O3 1_555 1_555
C15 H9 1_555 1_555
C16 C15 1_555 1_555
H10 C16 1_555 1_555
C17 C16 1_555 1_555
C18 C17 1_555 1_555
H11 C18 1_555 1_555
C19 C18 1_555 1_555
H12 C19 1_555 1_555
C20 C15 1_555 1_555
C21 O5 1_555 1_555
O7 Er1 1_555 1_555
H13 N1 1_555 1_555
H14 N1 1_555 1_555
H15 N2 1_555 1_555
H16 N2 1_555 1_555
H17 N3 1_555 1_555
H18 N3 1_555 1_555
H19 O7 1_555 1_555
H20 O7 1_555 1_555
Er1B O2 1_555 1_555
Er1B_2 O4 1_555 1_555
Er1B_3 N1 1_555 1_555
O2B Er1 1_555 1_555
O4B Er1 1_555 1_555
N1B Er1 1_555 1_555
H13B N1B 1_555 1_555
H14B N1B 1_555 1_555
O6 C21 1_555 1_555
C5 C6 1_555 1_555
C12 C13 1_555 1_555
C13 C14 1_555 1_555
C19 C20 1_555 1_555
C20 C21 1_555 1_555

#END
