
#######################################################################
#
#                 Cambridge Crystallographic Data Centre
#                                CCDC 
#
#######################################################################
#
# If this CIF has been generated from an entry in the Cambridge 
# Structural Database, then it will include bibliographic, chemical, 
# crystal, experimental, refinement or atomic coordinate data resulting 
# from the CCDC's data processing and validation procedures.
#
#######################################################################

data_NADYUN01
_symmetry_cell_setting           monoclinic
_symmetry_space_group_name_H-M   'P 21/n'
_symmetry_Int_Tables_number      14
_space_group_name_Hall           '-P 2yn'
loop_
_symmetry_equiv_pos_site_id
_symmetry_equiv_pos_as_xyz
1 x,y,z
2 1/2-x,1/2+y,1/2-z
3 -x,-y,-z
4 1/2+x,1/2-y,1/2+z
_cell_length_a                   9.6889(3)
_cell_length_b                   22.5756(5)
_cell_length_c                   9.8309(3)
_cell_angle_alpha                90
_cell_angle_beta                 99.552(2)
_cell_angle_gamma                90
_cell_volume                     2120.53
loop_
_atom_site_label
_atom_site_type_symbol
_atom_site_fract_x
_atom_site_fract_y
_atom_site_fract_z
Eu1 Eu 0.481013(16) 0.000808(6) 0.257969(14)
O1 O 0.6060(2) -0.08072(8) 0.36559(19)
O2 O 0.6335(2) -0.04089(8) 0.57456(18)
O3 O 0.6595(2) 0.06661(8) 0.38614(18)
O4 O 0.5093(2) 0.10768(8) 0.21955(18)
O5 O 0.2996(2) 0.02722(8) 0.07688(18)
O6 O 0.3451(2) -0.01295(8) -0.11726(19)
O7 O 0.4577(2) -0.08559(8) 0.09526(18)
H1 H 0.5341 -0.1045 0.0983
H2 H 0.4204 -0.0691 0.0204
N1 N 0.8926(3) -0.29620(10) 0.7299(3)
H3 H 0.9147 -0.3266 0.6782
H4 H 0.9476 -0.2920 0.8126
N2 N 0.8294(3) 0.34012(10) 0.4802(2)
H5 H 0.8815 0.3423 0.5648
H6 H 0.7631 0.3677 0.4845
N3 N -0.2861(2) 0.07355(9) -0.3165(2)
H7 H -0.3174 0.1070 -0.2824
H8 H -0.2845 0.0687 -0.4071
C1 C 0.6505(3) -0.08303(11) 0.4940(3)
C2 C 0.7216(3) -0.13805(12) 0.5527(3)
C3 C 0.7260(3) -0.18868(12) 0.4717(3)
H9 H 0.6904 -0.1871 0.3757
C4 C 0.7818(3) -0.24102(12) 0.5298(3)
H10 H 0.7805 -0.2755 0.4744
C5 C 0.8401(3) -0.24348(12) 0.6699(3)
C6 C 0.8416(3) -0.19207(12) 0.7491(3)
H11 H 0.8840 -0.1927 0.8434
C7 C 0.7820(3) -0.14036(12) 0.6916(3)
H12 H 0.7821 -0.1060 0.7474
C8 C 0.6104(3) 0.11228(12) 0.3193(3)
C9 C 0.6696(3) 0.17160(11) 0.3605(3)
C10 C 0.8018(3) 0.17764(12) 0.4402(3)
H13 H 0.8562 0.1434 0.4677
C11 C 0.8544(3) 0.23294(12) 0.4795(3)
H14 H 0.9449 0.2364 0.5336
C12 C 0.7758(3) 0.28413(12) 0.4405(3)
C13 C 0.6433(3) 0.27802(12) 0.3600(3)
H15 H 0.5890 0.3122 0.3318
C14 C 0.5909(3) 0.22248(12) 0.3213(3)
H16 H 0.5004 0.2189 0.2674
C15 C 0.2646(3) 0.01475(11) -0.0489(3)
C16 C 0.1238(3) 0.03290(11) -0.1218(3)
C17 C 0.0349(3) 0.06686(11) -0.0543(3)
H17 H 0.0660 0.0794 0.0380
C18 C -0.0971(3) 0.08238(11) -0.1200(3)
H18 H -0.1547 0.1070 -0.0745
C19 C -0.1461(3) 0.06196(11) -0.2532(3)
C20 C -0.0582(3) 0.02763(12) -0.3213(3)
H19 H -0.0905 0.0140 -0.4124
C21 C 0.0757(3) 0.01355(12) -0.2563(3)
H20 H 0.1351 -0.0094 -0.3034
Eu1B Eu -0.481013(16) -0.000808(6) -0.257969(14)
Eu1B_2 Eu 0.518987(16) -0.000808(6) -0.257969(14)
Eu1B_3 Eu 0.518987(16) -0.000808(6) 0.742031(14)
O2B O 0.3665(2) 0.04089(8) 0.42544(18)
O6B O 0.6549(2) 0.01295(8) 0.11726(19)
N3B N 0.2861(2) -0.07355(9) 0.3165(2)
loop_
_geom_bond_atom_site_label_1
_geom_bond_atom_site_label_2
_geom_bond_site_symmetry_1
_geom_bond_site_symmetry_2
Eu1 O1 1_555 1_555
O1 C1 1_555 1_555
O2 C1 1_555 1_555
O3 Eu1 1_555 1_555
O4 Eu1 1_555 1_555
O5 Eu1 1_555 1_555
O6 C15 1_555 1_555
O7 Eu1 1_555 1_555
H1 O7 1_555 1_555
H2 O7 1_555 1_555
N1 H3 1_555 1_555
H4 N1 1_555 1_555
N2 H5 1_555 1_555
H6 N2 1_555 1_555
N3 H7 1_555 1_555
H8 N3 1_555 1_555
C1 C2 1_555 1_555
C2 C3 1_555 1_555
C3 H9 1_555 1_555
C4 C3 1_555 1_555
H10 C4 1_555 1_555
C5 N1 1_555 1_555
C6 C5 1_555 1_555
H11 C6 1_555 1_555
C7 C2 1_555 1_555
H12 C7 1_555 1_555
C8 O3 1_555 1_555
C9 C8 1_555 1_555
C10 C9 1_555 1_555
H13 C10 1_555 1_555
C11 C10 1_555 1_555
H14 C11 1_555 1_555
C12 N2 1_555 1_555
C13 C12 1_555 1_555
H15 C13 1_555 1_555
C14 C9 1_555 1_555
H16 C14 1_555 1_555
C15 O5 1_555 1_555
C16 C15 1_555 1_555
C17 C16 1_555 1_555
H17 C17 1_555 1_555
C18 C17 1_555 1_555
H18 C18 1_555 1_555
C19 N3 1_555 1_555
C20 C19 1_555 1_555
H19 C20 1_555 1_555
C21 C16 1_555 1_555
H20 C21 1_555 1_555
Eu1B N3 1_555 1_555
Eu1B_2 O6 1_555 1_555
Eu1B_3 O2 1_555 1_555
O2B Eu1 1_555 1_555
O6B Eu1 1_555 1_555
N3B Eu1 1_555 1_555
O4 C8 1_555 1_555
C4 C5 1_555 1_555
C6 C7 1_555 1_555
C11 C12 1_555 1_555
C13 C14 1_555 1_555
C18 C19 1_555 1_555
C20 C21 1_555 1_555

#END
