
#######################################################################
#
#                 Cambridge Crystallographic Data Centre
#                                CCDC 
#
#######################################################################
#
# If this CIF has been generated from an entry in the Cambridge 
# Structural Database, then it will include bibliographic, chemical, 
# crystal, experimental, refinement or atomic coordinate data resulting 
# from the CCDC's data processing and validation procedures.
#
#######################################################################

data_NAFDUV
_symmetry_cell_setting           monoclinic
_symmetry_space_group_name_H-M   'P 21/n'
_symmetry_Int_Tables_number      14
_space_group_name_Hall           '-P 2yn'
loop_
_symmetry_equiv_pos_site_id
_symmetry_equiv_pos_as_xyz
1 x,y,z
2 1/2-x,1/2+y,1/2-z
3 -x,-y,-z
4 1/2+x,1/2-y,1/2+z
_cell_length_a                   9.224(2)
_cell_length_b                   4.7369(11)
_cell_length_c                   15.189(4)
_cell_angle_alpha                90
_cell_angle_beta                 107.045(3)
_cell_angle_gamma                90
_cell_volume                     634.504
loop_
_atom_site_label
_atom_site_type_symbol
_atom_site_fract_x
_atom_site_fract_y
_atom_site_fract_z
Cu1 Cu 0.33401(5) 0.06319(9) -0.01207(3)
P1 P 0.47746(11) 0.5671(2) 0.11158(6)
O1 O 0.4568(3) 0.2493(5) 0.09750(17)
O2 O 0.6233(3) 0.6707(5) 0.09600(16)
O3 O 0.3345(3) 0.7285(5) 0.05962(17)
C1 C 0.5010(4) 0.6322(7) 0.2336(2)
C2 C 0.6214(5) 0.5172(7) 0.3012(3)
H1 H 0.6873 0.3959 0.2836
N1 N 0.6471(4) 0.5734(7) 0.3910(2)
C3 C 0.5492(5) 0.7410(9) 0.4157(3)
H2 H 0.5655 0.7787 0.4779
C4 C 0.4246(5) 0.8611(10) 0.3528(3)
H3 H 0.3574 0.9740 0.3722
C5 C 0.4028(5) 0.8089(9) 0.2609(3)
H4 H 0.3221 0.8925 0.2170
Cu1B Cu 0.66599(5) 0.93681(9) 0.01207(3)
Cu1_2 Cu 0.33401(5) 1.06319(9) -0.01207(3)
Cu1C Cu 0.83401(5) 0.43681(9) 0.48793(3)
O2B O 0.3767(3) 0.3293(5) -0.09600(16)
O3_2 O 0.3345(3) -0.2715(5) 0.05962(17)
N1C N 0.1471(4) -0.0734(7) -0.1090(2)
loop_
_geom_bond_atom_site_label_1
_geom_bond_atom_site_label_2
_geom_bond_site_symmetry_1
_geom_bond_site_symmetry_2
Cu1 O1 1_555 1_555
P1 O1 1_555 1_555
O2 P1 1_555 1_555
O3 P1 1_555 1_555
C1 P1 1_555 1_555
C2 C1 1_555 1_555
H1 C2 1_555 1_555
N1 C2 1_555 1_555
C3 N1 1_555 1_555
H2 C3 1_555 1_555
C4 C3 1_555 1_555
H3 C4 1_555 1_555
C5 C1 1_555 1_555
H4 C5 1_555 1_555
Cu1B O2 1_555 1_555
Cu1_2 O3 1_555 1_555
Cu1C N1 1_555 1_555
O2B Cu1 1_555 1_555
O3_2 Cu1 1_555 1_555
N1C Cu1 1_555 1_555
C4 C5 1_555 1_555

#END
