
#######################################################################
#
#                 Cambridge Crystallographic Data Centre
#                                CCDC 
#
#######################################################################
#
# If this CIF has been generated from an entry in the Cambridge 
# Structural Database, then it will include bibliographic, chemical, 
# crystal, experimental, refinement or atomic coordinate data resulting 
# from the CCDC's data processing and validation procedures.
#
#######################################################################

data_NAFFOR
_symmetry_cell_setting           monoclinic
_symmetry_space_group_name_H-M   'P 21/c'
_symmetry_Int_Tables_number      14
_space_group_name_Hall           '-P 2ybc'
loop_
_symmetry_equiv_pos_site_id
_symmetry_equiv_pos_as_xyz
1 x,y,z
2 -x,1/2+y,1/2-z
3 -x,-y,-z
4 x,1/2-y,1/2+z
_cell_length_a                   13.151(3)
_cell_length_b                   18.240(4)
_cell_length_c                   9.2473(18)
_cell_angle_alpha                90
_cell_angle_beta                 105.01(3)
_cell_angle_gamma                90
_cell_volume                     2142.51
loop_
_atom_site_label
_atom_site_type_symbol
_atom_site_fract_x
_atom_site_fract_y
_atom_site_fract_z
Co1 Co 0.68779(3) 0.047776(17) 0.16912(3)
O1 O 0.80466(14) 0.01263(10) 0.05421(18)
O2 O 0.64464(14) -0.02935(10) -0.01497(17)
C1 C 0.73776(19) -0.02889(13) -0.0285(2)
C2 C 0.76797(19) -0.07737(12) -0.1456(2)
C3 C 0.7238(2) -0.15522(13) -0.1410(2)
H1 H 0.7537 -0.1769 -0.0434
H2 H 0.6480 -0.1530 -0.1570
C4 C 0.8874(2) -0.08133(15) -0.1208(2)
H3 H 0.9194 -0.1020 -0.0230
H4 H 0.9156 -0.0324 -0.1245
C5 C 0.71920(18) -0.04422(12) -0.3014(2)
H5 H 0.7460 0.0051 -0.3056
H6 H 0.6434 -0.0412 -0.3182
C6 C 0.7508(2) -0.20262(13) -0.2622(3)
H7 H 0.7228 -0.2521 -0.2581
C7 C 0.8701(2) -0.20646(15) -0.2352(3)
H8 H 0.8879 -0.2374 -0.3104
H9 H 0.9012 -0.2277 -0.1376
C8 C 0.9136(2) -0.12939(15) -0.2429(3)
H10 H 0.9902 -0.1321 -0.2262
C9 C 0.86500(19) -0.09596(15) -0.3977(2)
H11 H 0.8935 -0.0473 -0.4029
H12 H 0.8826 -0.1260 -0.4744
C10 C 0.7021(2) -0.16916(13) -0.4163(2)
H13 H 0.6262 -0.1670 -0.4336
H14 H 0.7180 -0.1998 -0.4933
C11 C 0.74575(18) -0.09154(12) -0.4253(2)
C12 C 0.68934(19) -0.05599(13) -0.5749(2)
O3 O 0.59142(14) -0.05941(11) -0.61131(19)
O4 O 0.74377(13) -0.02336(9) -0.65014(17)
N1 N 0.63044(16) 0.14163(11) 0.0293(2)
N2 N 0.77972(15) 0.13408(11) 0.28670(19)
C13 C 0.8561(2) 0.12975(14) 0.4126(3)
H15 H 0.8767 0.0836 0.4523
C14 C 0.9069(2) 0.19101(15) 0.4879(3)
H16 H 0.9605 0.1854 0.5753
C15 C 0.8775(2) 0.25925(15) 0.4328(3)
H17 H 0.9104 0.3005 0.4829
C16 C 0.7969(2) 0.26691(14) 0.2994(3)
C17 C 0.7583(2) 0.33558(15) 0.2352(3)
H18 H 0.7864 0.3786 0.2831
C18 C 0.6817(2) 0.33966(14) 0.1064(3)
H19 H 0.6584 0.3853 0.0665
C19 C 0.6360(2) 0.27488(14) 0.0305(3)
C20 C 0.5577(2) 0.27478(15) -0.1066(3)
H20 H 0.5336 0.3188 -0.1540
C21 C 0.5180(2) 0.21022(16) -0.1688(3)
H21 H 0.4660 0.2097 -0.2586
C22 C 0.5557(2) 0.14424(15) -0.0973(3)
H22 H 0.5268 0.1004 -0.1408
C23 C 0.67056(19) 0.20610(13) 0.0924(2)
C24 C 0.75167(19) 0.20199(13) 0.2294(2)
O5 O 0.54376(13) 0.05414(9) 0.22177(17)
H23 H 0.4870 0.0536 0.1523
H24 H 0.5531 0.0180 0.2819
Co1_2 Co 0.68779(3) 0.047776(17) -0.83088(3)
O4_2 O 0.74377(13) -0.02336(9) 0.34986(17)
O6 O 0.9541(2) -0.06188(16) 0.2944(3)
H25 H 0.9344 -0.0364 0.2151
H26 H 0.8952 -0.0698 0.3137
loop_
_geom_bond_atom_site_label_1
_geom_bond_atom_site_label_2
_geom_bond_site_symmetry_1
_geom_bond_site_symmetry_2
Co1 O1 1_555 1_555
O1 C1 1_555 1_555
O2 Co1 1_555 1_555
C1 O2 1_555 1_555
C2 C1 1_555 1_555
C3 C2 1_555 1_555
H1 C3 1_555 1_555
H2 C3 1_555 1_555
C4 C2 1_555 1_555
H3 C4 1_555 1_555
H4 C4 1_555 1_555
C5 C2 1_555 1_555
H5 C5 1_555 1_555
H6 C5 1_555 1_555
C6 C3 1_555 1_555
H7 C6 1_555 1_555
C7 C6 1_555 1_555
H8 C7 1_555 1_555
H9 C7 1_555 1_555
C8 C4 1_555 1_555
H10 C8 1_555 1_555
C9 C8 1_555 1_555
H11 C9 1_555 1_555
H12 C9 1_555 1_555
C10 C6 1_555 1_555
H13 C10 1_555 1_555
H14 C10 1_555 1_555
C11 C5 1_555 1_555
C12 C11 1_555 1_555
O3 C12 1_555 1_555
O4 C12 1_555 1_555
N1 Co1 1_555 1_555
N2 Co1 1_555 1_555
C13 N2 1_555 1_555
H15 C13 1_555 1_555
C14 C13 1_555 1_555
H16 C14 1_555 1_555
C15 C14 1_555 1_555
H17 C15 1_555 1_555
C16 C15 1_555 1_555
C17 C16 1_555 1_555
H18 C17 1_555 1_555
C18 C17 1_555 1_555
H19 C18 1_555 1_555
C19 C18 1_555 1_555
C20 C19 1_555 1_555
H20 C20 1_555 1_555
C21 C20 1_555 1_555
H21 C21 1_555 1_555
C22 N1 1_555 1_555
H22 C22 1_555 1_555
C23 N1 1_555 1_555
C24 N2 1_555 1_555
O5 Co1 1_555 1_555
H23 O5 1_555 1_555
H24 O5 1_555 1_555
O6 H25 1_555 1_555
H26 O6 1_555 1_555
Co1_2 O4 1_555 1_555
O4_2 Co1 1_555 1_555
C7 C8 1_555 1_555
C9 C11 1_555 1_555
C10 C11 1_555 1_555
C16 C24 1_555 1_555
C19 C23 1_555 1_555
C21 C22 1_555 1_555
C23 C24 1_555 1_555

#END
