
#######################################################################
#
#                 Cambridge Crystallographic Data Centre
#                                CCDC 
#
#######################################################################
#
# If this CIF has been generated from an entry in the Cambridge 
# Structural Database, then it will include bibliographic, chemical, 
# crystal, experimental, refinement or atomic coordinate data resulting 
# from the CCDC's data processing and validation procedures.
#
#######################################################################

data_NAFJAH
_symmetry_cell_setting           orthorhombic
_symmetry_space_group_name_H-M   'P n m a'
_symmetry_Int_Tables_number      62
_space_group_name_Hall           '-P 2ac 2n'
loop_
_symmetry_equiv_pos_site_id
_symmetry_equiv_pos_as_xyz
1 x,y,z
2 1/2-x,-y,1/2+z
3 -x,1/2+y,-z
4 1/2+x,1/2-y,1/2-z
5 -x,-y,-z
6 1/2+x,y,1/2-z
7 x,1/2-y,z
8 1/2-x,1/2+y,1/2+z
_cell_length_a                   7.956(3)
_cell_length_b                   25.251(10)
_cell_length_c                   14.359(6)
_cell_angle_alpha                90
_cell_angle_beta                 90
_cell_angle_gamma                90
_cell_volume                     2884.68
loop_
_atom_site_label
_atom_site_type_symbol
_atom_site_fract_x
_atom_site_fract_y
_atom_site_fract_z
Ag1 Ag 0.68837(6) 0.7500 0.49626(4)
Ag2 Ag 0.20371(5) 0.521436(14) 0.67032(3)
N1 N 0.3004(5) 0.60311(16) 0.6400(3)
N2 N 0.5047(5) 0.68435(14) 0.5736(3)
C1 C 0.3011(6) 0.61634(18) 0.5499(3)
H1 H 0.2319 0.5985 0.5082
C2 C 0.4038(5) 0.65627(17) 0.5190(3)
C3 C 0.4995(7) 0.67192(19) 0.6631(4)
H2 H 0.5653 0.6910 0.7048
C4 C 0.3990(6) 0.63122(19) 0.6966(4)
H3 H 0.4004 0.6234 0.7599
S1 S 0.41022(14) 0.67309(5) 0.39631(8)
O1 O 0.2836(4) 0.63940(16) 0.3496(2)
N3 N 0.7776(5) 0.56761(16) 0.3443(3)
N4 N 0.7433(5) 0.67286(15) 0.3992(3)
C5 C 0.6136(5) 0.64180(18) 0.3800(3)
C6 C 0.6262(6) 0.59025(17) 0.3519(3)
H4 H 0.5298 0.5709 0.3382
C7 C 0.9098(6) 0.59795(18) 0.3613(3)
H5 H 1.0167 0.5836 0.3546
C8 C 0.8945(6) 0.65013(18) 0.3887(3)
H6 H 0.9909 0.6699 0.4000
Cl1 Cl 0.25923(18) 0.52919(5) 0.90053(9)
O2 O 0.1024(7) 0.5211(3) 0.8519(4)
O3 O 0.2683(10) 0.58161(18) 0.9296(4)
O4 O 0.3828(6) 0.5176(2) 0.8310(3)
O5 O 0.2783(12) 0.4943(2) 0.9744(4)
Cl2 Cl 1.0563(2) 0.7500 0.59029(12)
O6 O 1.1770(7) 0.7500 0.6606(4)
O7 O 1.1309(8) 0.7500 0.4993(4)
O8 O 0.9568(10) 0.7046(3) 0.5985(4)
Ag2F Ag 0.20371(5) 0.978564(14) 0.67032(3)
Ag2D Ag 0.79629(5) 0.478564(14) 0.32968(3)
Ag2E Ag 0.70371(5) 0.521436(14) 0.82968(3)
Ag2A Ag 0.29629(5) 0.478564(14) 1.17032(3)
Ag2B Ag 0.79629(5) 1.021436(14) 0.32968(3)
Ag2E_2 Ag -0.29629(5) 0.521436(14) 0.82968(3)
Ag2D_2 Ag -0.20371(5) 0.478564(14) 0.32968(3)
N1F N 0.3004(5) 0.89689(16) 0.6400(3)
N2F N 0.5047(5) 0.81565(14) 0.5736(3)
C1F C 0.3011(6) 0.88366(18) 0.5499(3)
H1F H 0.2319 0.9015 0.5082
C2F C 0.4038(5) 0.84373(17) 0.5190(3)
C3F C 0.4995(7) 0.82808(19) 0.6631(4)
H2F H 0.5653 0.8090 0.7048
C4F C 0.3990(6) 0.86878(19) 0.6966(4)
H3F H 0.4004 0.8766 0.7599
S1F S 0.41022(14) 0.82691(5) 0.39631(8)
O1F O 0.2836(4) 0.86060(16) 0.3496(2)
N3F N 0.7776(5) 0.93239(16) 0.3443(3)
N3D N 0.2224(5) 0.43239(16) 0.6557(3)
N3B N 0.2224(5) 1.06761(16) 0.6557(3)
N4F N 0.7433(5) 0.82714(15) 0.3992(3)
C5F C 0.6136(5) 0.85820(18) 0.3800(3)
C6F C 0.6262(6) 0.90975(17) 0.3519(3)
H4F H 0.5298 0.9291 0.3382
C7F C 0.9098(6) 0.90205(18) 0.3613(3)
H5F H 1.0167 0.9164 0.3546
C8F C 0.8945(6) 0.84987(18) 0.3887(3)
H6F H 0.9909 0.8301 0.4000
Cl1E Cl -0.24077(18) 0.52919(5) 0.59947(9)
O2E O -0.3976(7) 0.5211(3) 0.6481(4)
O2F O 0.1024(7) 0.9789(3) 0.8519(4)
O3E O -0.2317(10) 0.58161(18) 0.5704(4)
O4E O -0.1172(6) 0.5176(2) 0.6690(3)
O4C O -0.1172(6) 0.9824(2) 0.6690(3)
O4F O 0.3828(6) 0.9824(2) 0.8310(3)
O5E O -0.2217(12) 0.4943(2) 0.5256(4)
O5A O 0.2217(12) 0.5057(2) 0.4744(4)
O5G O 0.2217(12) 0.9943(2) 0.4744(4)
O8F O 0.9568(10) 0.7954(3) 0.5985(4)
loop_
_geom_bond_atom_site_label_1
_geom_bond_atom_site_label_2
_geom_bond_site_symmetry_1
_geom_bond_site_symmetry_2
Ag1 N2 1_555 1_555
Ag2 N1 1_555 1_555
N1 C1 1_555 1_555
N2 C2 1_555 1_555
C1 H1 1_555 1_555
C2 C1 1_555 1_555
C3 N2 1_555 1_555
H2 C3 1_555 1_555
C4 N1 1_555 1_555
H3 C4 1_555 1_555
S1 C2 1_555 1_555
O1 S1 1_555 1_555
N3 C6 1_555 1_555
N4 Ag1 1_555 1_555
C5 S1 1_555 1_555
C6 C5 1_555 1_555
H4 C6 1_555 1_555
C7 N3 1_555 1_555
H5 C7 1_555 1_555
C8 N4 1_555 1_555
H6 C8 1_555 1_555
Cl1 O2 1_555 1_555
O2 Ag2 1_555 1_555
O3 Cl1 1_555 1_555
O4 Ag2 1_555 1_555
O5 Cl1 1_555 1_555
Cl2 O6 1_555 1_555
O7 Cl2 1_555 1_555
O8 Ag1 1_555 1_555
Ag2F N1F 1_555 1_555
Ag2D N3 1_555 1_555
Ag2E O4 1_555 1_555
Ag2A O5 1_555 1_555
Ag2B N3F 1_555 1_555
Ag2E_2 O2E 1_555 1_555
Ag2D_2 O5E 1_555 1_555
N1F C1F 1_555 1_555
N2F Ag1 1_555 1_555
C1F H1F 1_555 1_555
C2F N2F 1_555 1_555
C3F N2F 1_555 1_555
H2F C3F 1_555 1_555
C4F N1F 1_555 1_555
H3F C4F 1_555 1_555
S1F C2F 1_555 1_555
O1F S1F 1_555 1_555
N3F C6F 1_555 1_555
N3D Ag2 1_555 1_555
N3B Ag2F 1_555 1_555
N4F Ag1 1_555 1_555
C5F S1F 1_555 1_555
C6F C5F 1_555 1_555
H4F C6F 1_555 1_555
C7F N3F 1_555 1_555
H5F C7F 1_555 1_555
C8F N4F 1_555 1_555
H6F C8F 1_555 1_555
Cl1E O2E 1_555 1_555
O2F Ag2F 1_555 1_555
O3E Cl1E 1_555 1_555
O4E Ag2 1_555 1_555
O4C Ag2F 1_555 1_555
O4F Ag2F 1_555 1_555
O5E Cl1E 1_555 1_555
O5A Ag2 1_555 1_555
O5G Ag2F 1_555 1_555
O8F Ag1 1_555 1_555
C3 C4 1_555 1_555
N4 C5 1_555 1_555
C7 C8 1_555 1_555
Cl1 O4 1_555 1_555
Cl2 O8 1_555 1_555
Cl2 O8F 1_555 1_555
Ag2E_2 O4E 1_555 1_555
C1F C2F 1_555 1_555
C3F C4F 1_555 1_555
N4F C5F 1_555 1_555
C7F C8F 1_555 1_555
Cl1E O4E 1_555 1_555

#END
