
#######################################################################
#
#                 Cambridge Crystallographic Data Centre
#                                CCDC 
#
#######################################################################
#
# If this CIF has been generated from an entry in the Cambridge 
# Structural Database, then it will include bibliographic, chemical, 
# crystal, experimental, refinement or atomic coordinate data resulting 
# from the CCDC's data processing and validation procedures.
#
#######################################################################

data_NAFJIP
_symmetry_cell_setting           monoclinic
_symmetry_space_group_name_H-M   'C m'
_symmetry_Int_Tables_number      8
_space_group_name_Hall           'C -2y'
loop_
_symmetry_equiv_pos_site_id
_symmetry_equiv_pos_as_xyz
1 x,y,z
2 x,-y,z
3 1/2+x,1/2+y,z
4 1/2+x,1/2-y,z
_cell_length_a                   11.0769(17)
_cell_length_b                   10.2263(16)
_cell_length_c                   6.0199(9)
_cell_angle_alpha                90
_cell_angle_beta                 112.153(3)
_cell_angle_gamma                90
_cell_volume                     631.57
loop_
_atom_site_label
_atom_site_type_symbol
_atom_site_fract_x
_atom_site_fract_y
_atom_site_fract_z
Ag1 Ag 0.1360 0.5000 0.1818
N1 N 0.2467(3) 0.3098(3) 0.1207(5)
N2 N 0.4539(3) 0.1478(3) 0.1514(5)
C1 C 0.2839(3) 0.2110(3) 0.2787(6)
H1 H 0.2405 0.1965 0.3820
C2 C 0.3858(3) 0.1309(3) 0.2890(5)
C3 C 0.4159(3) 0.2442(3) -0.0085(6)
H2 H 0.4605 0.2591 -0.1097
C4 C 0.3100(4) 0.3231(3) -0.0259(6)
H3 H 0.2830 0.3872 -0.1443
S1 S 0.44321(11) 0.0000 0.50745(17)
O1 O 0.5887(4) 0.0000 0.5812(6)
Ag1_2 Ag 0.1360 -0.5000 0.1818
Ag1B Ag 0.6360 0.0000 0.1818
N1A N 0.2467(3) -0.3098(3) 0.1207(5)
N1A_2 N 0.2467(3) 0.6902(3) 0.1207(5)
N2A N 0.4539(3) -0.1478(3) 0.1514(5)
N2B N -0.0461(3) 0.6478(3) 0.1514(5)
N2C N -0.0461(3) 0.3522(3) 0.1514(5)
C1A C 0.2839(3) -0.2110(3) 0.2787(6)
H1A H 0.2405 -0.1965 0.3820
C2A C 0.3858(3) -0.1309(3) 0.2890(5)
C3A C 0.4159(3) -0.2442(3) -0.0085(6)
H2A H 0.4605 -0.2591 -0.1097
C4A C 0.3100(4) -0.3231(3) -0.0259(6)
H3A H 0.2830 -0.3872 -0.1443
O1B O 0.0887(4) 0.5000 0.5812(6)
P1 P 0.56271(14) 0.5000 0.6252(2)
F1 F 0.4116(4) 0.5000 0.5796(10)
F2 F 0.5930(5) 0.5000 0.9028(6)
F3 F 0.5294(7) 0.5000 0.3465(7)
F4 F 0.5624(3) 0.3446(3) 0.6241(5)
F5 F 0.7123(5) 0.5000 0.6741(12)
F4A F 0.5624(3) 0.6554(3) 0.6241(5)
loop_
_geom_bond_atom_site_label_1
_geom_bond_atom_site_label_2
_geom_bond_site_symmetry_1
_geom_bond_site_symmetry_2
Ag1 N1 1_555 1_555
N1 C1 1_555 1_555
N2 C2 1_555 1_555
C1 H1 1_555 1_555
C2 C1 1_555 1_555
C3 N2 1_555 1_555
H2 C3 1_555 1_555
C4 N1 1_555 1_555
H3 C4 1_555 1_555
S1 C2 1_555 1_555
O1 S1 1_555 1_555
P1 F1 1_555 1_555
F2 P1 1_555 1_555
F3 P1 1_555 1_555
F4 P1 1_555 1_555
F5 P1 1_555 1_555
Ag1_2 N1A 1_555 1_555
Ag1B N2 1_555 1_555
N1A C1A 1_555 1_555
N1A_2 Ag1 1_555 1_555
N2A Ag1B 1_555 1_555
N2B Ag1 1_555 1_555
N2C Ag1 1_555 1_555
C1A H1A 1_555 1_555
C2A S1 1_555 1_555
C3A N2A 1_555 1_555
H2A C3A 1_555 1_555
C4A N1A 1_555 1_555
H3A C4A 1_555 1_555
O1B Ag1 1_555 1_555
F4A P1 1_555 1_555
C3 C4 1_555 1_555
O1 Ag1B 1_555 1_555
N2A C2A 1_555 1_555
C1A C2A 1_555 1_555
C3A C4A 1_555 1_555

#END
