
#######################################################################
#
#                 Cambridge Crystallographic Data Centre
#                                CCDC 
#
#######################################################################
#
# If this CIF has been generated from an entry in the Cambridge 
# Structural Database, then it will include bibliographic, chemical, 
# crystal, experimental, refinement or atomic coordinate data resulting 
# from the CCDC's data processing and validation procedures.
#
#######################################################################

data_NAFLAJ
_symmetry_cell_setting           monoclinic
_symmetry_space_group_name_H-M   'C 2/c'
_symmetry_Int_Tables_number      15
_space_group_name_Hall           '-C 2yn'
loop_
_symmetry_equiv_pos_site_id
_symmetry_equiv_pos_as_xyz
1 x,y,z
2 -x,y,1/2-z
3 1/2+x,1/2+y,z
4 1/2-x,1/2+y,1/2-z
5 -x,-y,-z
6 x,-y,1/2+z
7 1/2-x,1/2-y,-z
8 1/2+x,1/2-y,1/2+z
_cell_length_a                   27.8793(15)
_cell_length_b                   13.0277(7)
_cell_length_c                   21.2649(11)
_cell_angle_alpha                90
_cell_angle_beta                 102.3540(10)
_cell_angle_gamma                90
_cell_volume                     7544.64
loop_
_atom_site_label
_atom_site_type_symbol
_atom_site_fract_x
_atom_site_fract_y
_atom_site_fract_z
Fe1 Fe 0.174564(11) 0.39819(2) 0.156562(14)
K1 K 0.253419(18) 0.63222(4) 0.26863(2)
N1 N 0.25461(6) 0.39325(13) 0.15839(8)
C1 C 0.26307(7) 0.47956(16) 0.11832(10)
C2 C 0.23088(8) 0.56400(16) 0.11650(10)
C3 C 0.24358(8) 0.65319(17) 0.08637(11)
H1 H 0.2244 0.7135 0.0863
C4 C 0.28335(8) 0.65533(18) 0.05680(11)
H2 H 0.2909 0.7170 0.0371
C5 C 0.31215(8) 0.56960(18) 0.05544(11)
H3 H 0.3384 0.5706 0.0333
C6 C 0.30189(8) 0.48160(17) 0.08721(10)
H4 H 0.3217 0.4222 0.0876
N2 N 0.19232(7) 0.55203(14) 0.14832(9)
C7 C 0.15479(8) 0.62497(17) 0.14205(11)
C8 C 0.13631(8) 0.68402(17) 0.08676(11)
H5 H 0.1508 0.6789 0.0503
Cl1 Cl 0.07656(2) 0.82339(6) 0.01677(4)
C9 C 0.09712(9) 0.74939(19) 0.08567(13)
C10 C 0.07371(9) 0.7592(2) 0.13630(13)
H6 H 0.0467 0.8044 0.1344
Cl2 Cl 0.06322(3) 0.70674(7) 0.25490(4)
C11 C 0.09164(9) 0.6997(2) 0.18983(13)
C12 C 0.13169(8) 0.63552(19) 0.19421(11)
H7 H 0.1437 0.5983 0.2328
C13 C 0.27734(8) 0.40868(15) 0.22628(10)
C14 C 0.24887(8) 0.38083(15) 0.27212(10)
C15 C 0.27131(8) 0.39761(16) 0.33729(11)
H8 H 0.2539 0.3802 0.3696
C16 C 0.31817(8) 0.43887(17) 0.35565(11)
H9 H 0.3321 0.4486 0.4001
C17 C 0.34484(8) 0.46600(17) 0.31023(11)
H10 H 0.3767 0.4951 0.3230
C18 C 0.32406(8) 0.44983(16) 0.24553(10)
H11 H 0.3422 0.4673 0.2140
N3 N 0.20294(6) 0.33841(14) 0.24822(8)
C19 C 0.17061(8) 0.31737(17) 0.28858(10)
C20 C 0.16103(8) 0.38438(17) 0.33616(10)
H12 H 0.1787 0.4469 0.3447
Cl3 Cl 0.11545(2) 0.44311(5) 0.43030(3)
C21 C 0.12563(8) 0.35908(18) 0.37071(11)
C22 C 0.09789(8) 0.27048(18) 0.35975(11)
H13 H 0.0736 0.2550 0.3836
Cl4 Cl 0.07265(2) 0.09377(5) 0.29529(3)
C23 C 0.10713(8) 0.20527(17) 0.31220(11)
C24 C 0.14275(8) 0.22672(17) 0.27773(11)
H14 H 0.1485 0.1793 0.2462
C25 C 0.26326(8) 0.29292(16) 0.13292(10)
C26 C 0.22149(8) 0.24159(16) 0.09566(10)
C27 C 0.23082(8) 0.14764(16) 0.06761(10)
H15 H 0.2044 0.1119 0.0410
C28 C 0.27759(9) 0.10604(17) 0.07784(11)
H16 H 0.2827 0.0437 0.0571
C29 C 0.31722(8) 0.15419(17) 0.11813(11)
H17 H 0.3488 0.1234 0.1271
C30 C 0.30933(8) 0.24851(16) 0.14486(10)
H18 H 0.3361 0.2830 0.1718
N4 N 0.17567(6) 0.28200(14) 0.09386(9)
C31 C 0.13436(8) 0.22679(16) 0.06110(10)
C32 C 0.12423(8) 0.21189(17) -0.00562(11)
H19 H 0.1460 0.2376 -0.0307
Cl5 Cl 0.06944(2) 0.14240(6) -0.11767(3)
C33 C 0.08229(8) 0.15950(18) -0.03469(11)
C34 C 0.04917(8) 0.12019(18) -0.00068(11)
H20 H 0.0208 0.0834 -0.0215
Cl6 Cl 0.01881(2) 0.09165(5) 0.11042(3)
C35 C 0.05947(8) 0.13716(18) 0.06463(11)
C36 C 0.10089(8) 0.18929(17) 0.09609(11)
H21 H 0.1066 0.1996 0.1413
O1 O 0.09665(5) 0.41590(13) 0.14398(8)
C37 C 0.06752(8) 0.4444(2) 0.08079(12)
H22 H 0.0766 0.4019 0.0466
H23 H 0.0726 0.5176 0.0715
C38 C 0.01488(9) 0.4250(3) 0.08477(14)
H24 H 0.0055 0.3525 0.0750
H25 H -0.0079 0.4703 0.0550
C39 C 0.01551(9) 0.4508(2) 0.15476(14)
H26 H 0.0141 0.5259 0.1613
H27 H -0.0121 0.4176 0.1694
C40 C 0.06428(9) 0.4071(2) 0.18914(13)
H28 H 0.0776 0.4463 0.2289
H29 H 0.0606 0.3343 0.2007
K1C K 0.246581(18) 0.13222(4) 0.23137(2)
N3C N 0.29706(6) 0.83841(14) 0.25178(8)
loop_
_geom_bond_atom_site_label_1
_geom_bond_atom_site_label_2
_geom_bond_site_symmetry_1
_geom_bond_site_symmetry_2
Fe1 N1 1_555 1_555
K1 N2 1_555 1_555
N1 C1 1_555 1_555
C1 C2 1_555 1_555
C2 C3 1_555 1_555
C3 H1 1_555 1_555
C4 C3 1_555 1_555
H2 C4 1_555 1_555
C5 C4 1_555 1_555
H3 C5 1_555 1_555
C6 C1 1_555 1_555
H4 C6 1_555 1_555
N2 Fe1 1_555 1_555
C7 N2 1_555 1_555
C8 C7 1_555 1_555
H5 C8 1_555 1_555
Cl1 C9 1_555 1_555
C9 C8 1_555 1_555
C10 C9 1_555 1_555
H6 C10 1_555 1_555
Cl2 C11 1_555 1_555
C11 C10 1_555 1_555
C12 C7 1_555 1_555
H7 C12 1_555 1_555
C13 N1 1_555 1_555
C14 C13 1_555 1_555
C15 C14 1_555 1_555
H8 C15 1_555 1_555
C16 C15 1_555 1_555
H9 C16 1_555 1_555
C17 C16 1_555 1_555
H10 C17 1_555 1_555
C18 C13 1_555 1_555
H11 C18 1_555 1_555
N3 Fe1 1_555 1_555
C19 N3 1_555 1_555
C20 C19 1_555 1_555
H12 C20 1_555 1_555
Cl3 C21 1_555 1_555
C21 C20 1_555 1_555
C22 C21 1_555 1_555
H13 C22 1_555 1_555
Cl4 C23 1_555 1_555
C23 C22 1_555 1_555
C24 C19 1_555 1_555
H14 C24 1_555 1_555
C25 N1 1_555 1_555
C26 C25 1_555 1_555
C27 C26 1_555 1_555
H15 C27 1_555 1_555
C28 C27 1_555 1_555
H16 C28 1_555 1_555
C29 C28 1_555 1_555
H17 C29 1_555 1_555
C30 C25 1_555 1_555
H18 C30 1_555 1_555
N4 Fe1 1_555 1_555
C31 N4 1_555 1_555
C32 C31 1_555 1_555
H19 C32 1_555 1_555
Cl5 C33 1_555 1_555
C33 C32 1_555 1_555
C34 C33 1_555 1_555
H20 C34 1_555 1_555
Cl6 C35 1_555 1_555
C35 C34 1_555 1_555
C36 C31 1_555 1_555
H21 C36 1_555 1_555
O1 Fe1 1_555 1_555
C37 O1 1_555 1_555
H22 C37 1_555 1_555
H23 C37 1_555 1_555
C38 C37 1_555 1_555
H24 C38 1_555 1_555
H25 C38 1_555 1_555
C39 C38 1_555 1_555
H26 C39 1_555 1_555
H27 C39 1_555 1_555
C40 O1 1_555 1_555
H28 C40 1_555 1_555
H29 C40 1_555 1_555
K1C N3 1_555 1_555
N3C K1 1_555 1_555
C2 N2 1_555 1_555
C5 C6 1_555 1_555
C11 C12 1_555 1_555
C14 N3 1_555 1_555
C17 C18 1_555 1_555
C23 C24 1_555 1_555
C26 N4 1_555 1_555
C29 C30 1_555 1_555
C35 C36 1_555 1_555
C39 C40 1_555 1_555

#END
