
#######################################################################
#
#                 Cambridge Crystallographic Data Centre
#                                CCDC 
#
#######################################################################
#
# If this CIF has been generated from an entry in the Cambridge 
# Structural Database, then it will include bibliographic, chemical, 
# crystal, experimental, refinement or atomic coordinate data resulting 
# from the CCDC's data processing and validation procedures.
#
#######################################################################

data_NAFSIX
_symmetry_cell_setting           monoclinic
_symmetry_space_group_name_H-M   'P 21/n'
_symmetry_Int_Tables_number      14
_space_group_name_Hall           '-P 2yn'
loop_
_symmetry_equiv_pos_site_id
_symmetry_equiv_pos_as_xyz
1 x,y,z
2 1/2+x,1/2-y,1/2+z
3 -x,-y,-z
4 1/2-x,1/2+y,1/2-z
_cell_length_a                   15.361(3)
_cell_length_b                   9.244(2)
_cell_length_c                   28.036(6)
_cell_angle_alpha                90
_cell_angle_beta                 104.15(3)
_cell_angle_gamma                90
_cell_volume                     3860.24
loop_
_atom_site_label
_atom_site_type_symbol
_atom_site_fract_x
_atom_site_fract_y
_atom_site_fract_z
Mn1 Mn 0.59675(6) 0.84165(10) -0.07098(3)
Mn2 Mn 0.83218(6) 0.84288(11) -0.06709(4)
N1 N 0.8908(4) 0.6101(6) -0.0677(2)
N2 N 0.8848(4) 0.8157(6) -0.1373(2)
N3 N 0.9764(4) 0.7039(7) -0.1758(2)
N4 N 0.5465(3) 0.6030(5) -0.0703(2)
N5 N 0.4840(3) 0.8018(5) -0.1411(2)
N6 N 0.3889(4) 0.6537(7) -0.1916(2)
N7 N 0.6993(4) 0.7506(6) -0.1069(2)
N8 N 0.6894(4) 0.6699(6) -0.1405(2)
N9 N 0.6788(6) 0.5896(8) -0.1736(3)
N10 N 0.9720(5) 0.9259(8) -0.0335(3)
N11 N 1.0000 1.0000 0.0000
N12 N 0.4889(4) 0.9343(7) -0.0372(2)
N13 N 0.5000 1.0000 0.0000
O1 O 1.0318(5) 0.6092(8) -0.1843(2)
O2 O 0.3467(5) 0.5364(7) -0.2067(3)
O3 O 0.6735(4) 0.8109(7) 0.0036(2)
O4 O 0.8180(4) 0.7997(7) 0.0058(2)
O5 O 0.7817(3) 1.0550(5) -0.0788(2)
O6 O 0.6333(3) 1.0535(5) -0.0876(2)
C1 C 0.8841(6) 0.5064(8) -0.0358(3)
H2 H 0.8512(6) 0.5239(8) -0.0126(3)
C2 C 0.9252(7) 0.3724(9) -0.0365(4)
H3 H 0.9186(7) 0.3012(9) -0.0142(4)
C3 C 0.9761(7) 0.3444(10) -0.0702(4)
H4 H 1.0063(7) 0.2572(10) -0.0701(4)
C4 C 0.9798(6) 0.4506(9) -0.1036(3)
H5 H 1.0113(6) 0.4353(9) -0.1276(3)
C5 C 0.9368(5) 0.5803(7) -0.1016(3)
C6 C 0.9337(4) 0.7026(7) -0.1375(3)
C7 C 0.9453(9) 0.8304(11) -0.2081(4)
C8 C 0.8914(5) 0.9115(8) -0.1791(3)
C9 C 0.8654(14) 0.7530(17) -0.2533(5)
H6 H 0.8201(14) 0.7105(17) -0.2394(5)
H7 H 0.8921(14) 0.6793(17) -0.2692(5)
H8 H 0.8385(14) 0.8252(17) -0.2769(5)
C10 C 1.0008(11) 0.8822(15) -0.2376(7)
H9 H 1.0261(11) 0.8019(15) -0.2513(7)
H10 H 1.0483(11) 0.9395(15) -0.2178(7)
H11 H 0.9660(11) 0.9406(15) -0.2637(7)
C11 C 0.8046(12) 0.9716(25) -0.2013(7)
H12 H 0.7813(12) 1.0191(25) -0.1766(7)
H13 H 0.7644(12) 0.8955(25) -0.2161(7)
H14 H 0.8101(12) 1.0403(25) -0.2261(7)
C12 C 0.9458(18) 1.0432(14) -0.1560(6)
H15 H 1.0057(18) 1.0137(14) -0.1400(6)
H16 H 0.9179(18) 1.0862(14) -0.1323(6)
H17 H 0.9478(18) 1.1126(14) -0.1812(6)
C13 C 0.7524(5) 0.7972(8) 0.0255(3)
C14 C 0.7743(7) 0.7713(13) 0.0799(3)
H18 H 0.8382(7) 0.7627(13) 0.0922(3)
H19 H 0.7459(7) 0.6836(13) 0.0866(3)
H20 H 0.7529(7) 0.8510(13) 0.0959(3)
C15 C 0.7052(5) 1.1101(7) -0.0909(3)
C16 C 0.7001(6) 1.2644(8) -0.1109(3)
H21 H 0.7591(6) 1.2965(8) -0.1118(3)
H22 H 0.6762(6) 1.3272(8) -0.0900(3)
H23 H 0.6617(6) 1.2665(8) -0.1436(3)
C17 C 0.5786(5) 0.5077(7) -0.0344(3)
H24 H 0.6234(5) 0.5376(7) -0.0075(3)
C18 C 0.5481(6) 0.3666(8) -0.0356(3)
H25 H 0.5732(6) 0.3030(8) -0.0103(3)
C19 C 0.4814(6) 0.3217(8) -0.0739(3)
H26 H 0.4592(6) 0.2280(8) -0.0746(3)
C20 C 0.4461(5) 0.4176(8) -0.1126(3)
H27 H 0.4012(5) 0.3885(8) -0.1395(3)
C21 C 0.4808(4) 0.5591(7) -0.1095(2)
C22 C 0.4522(4) 0.6722(7) -0.1468(2)
C23 C 0.4484(5) 0.8868(7) -0.1879(3)
C24 C 0.3656(5) 0.7961(8) -0.2152(3)
C25 C 0.5253(6) 0.8904(11) -0.2134(3)
H28 H 0.5387(6) 0.7937(11) -0.2219(3)
H29 H 0.5774(6) 0.9321(11) -0.1918(3)
H30 H 0.5081(6) 0.9478(11) -0.2428(3)
C26 C 0.4266(7) 1.0386(8) -0.1744(3)
H31 H 0.3781(7) 1.0355(8) -0.1583(3)
H32 H 0.4092(7) 1.0962(8) -0.2037(3)
H33 H 0.4785(7) 1.0806(8) -0.1526(3)
C27 C 0.2756(6) 0.8400(12) -0.2031(4)
H34 H 0.2842(6) 0.8468(12) -0.1681(4)
H35 H 0.2308(6) 0.7683(12) -0.2159(4)
H36 H 0.2564(6) 0.9320(12) -0.2179(4)
C28 C 0.3511(8) 0.7856(11) -0.2711(3)
H37 H 0.4064(8) 0.7585(11) -0.2789(3)
H38 H 0.3318(8) 0.8777(11) -0.2857(3)
H39 H 0.3061(8) 0.7140(11) -0.2838(3)
N10B N 1.0280(5) 1.0741(8) 0.0335(3)
N12B N 0.5111(4) 1.0657(7) 0.0372(2)
Mn1B Mn 0.40325(6) 1.15835(10) 0.07098(3)
N4B N 0.4535(3) 1.3970(5) 0.0703(2)
N5B N 0.5160(3) 1.1982(5) 0.1411(2)
N6B N 0.6111(4) 1.3463(7) 0.1916(2)
O2B O 0.6533(5) 1.4636(7) 0.2067(3)
C17B C 0.4214(5) 1.4923(7) 0.0344(3)
H24B H 0.3766(5) 1.4624(7) 0.0075(3)
C18B C 0.4519(6) 1.6334(8) 0.0356(3)
H25B H 0.4268(6) 1.6970(8) 0.0103(3)
C19B C 0.5186(6) 1.6783(8) 0.0739(3)
H26B H 0.5408(6) 1.7720(8) 0.0746(3)
C20B C 0.5539(5) 1.5824(8) 0.1126(3)
H27B H 0.5988(5) 1.6115(8) 0.1395(3)
C21B C 0.5192(4) 1.4409(7) 0.1095(2)
C22B C 0.5478(4) 1.3278(7) 0.1468(2)
C23B C 0.5516(5) 1.1132(7) 0.1879(3)
C24B C 0.6344(5) 1.2039(8) 0.2152(3)
C25B C 0.4747(6) 1.1096(11) 0.2134(3)
H28B H 0.4613(6) 1.2063(11) 0.2219(3)
H29B H 0.4226(6) 1.0679(11) 0.1918(3)
H30B H 0.4919(6) 1.0522(11) 0.2428(3)
C26B C 0.5734(7) 0.9614(8) 0.1744(3)
H31B H 0.6219(7) 0.9645(8) 0.1583(3)
H32B H 0.5908(7) 0.9038(8) 0.2037(3)
H33B H 0.5215(7) 0.9194(8) 0.1526(3)
C27B C 0.7244(6) 1.1600(12) 0.2031(4)
H34B H 0.7158(6) 1.1532(12) 0.1681(4)
H35B H 0.7692(6) 1.2317(12) 0.2159(4)
H36B H 0.7436(6) 1.0680(12) 0.2179(4)
C28B C 0.6489(8) 1.2144(11) 0.2711(3)
H37B H 0.5936(8) 1.2415(11) 0.2789(3)
H38B H 0.6682(8) 1.1223(11) 0.2857(3)
H39B H 0.6939(8) 1.2860(11) 0.2838(3)
N7B N 0.3007(4) 1.2494(6) 0.1069(2)
N8B N 0.3106(4) 1.3301(6) 0.1405(2)
N9B N 0.3212(6) 1.4104(8) 0.1736(3)
O3B O 0.3265(4) 1.1891(7) -0.0036(2)
O4B O 0.1820(4) 1.2003(7) -0.0058(2)
C13B C 0.2476(5) 1.2028(8) -0.0255(3)
C14B C 0.2257(7) 1.2287(13) -0.0799(3)
H18B H 0.1618(7) 1.2373(13) -0.0922(3)
H19B H 0.2541(7) 1.3164(13) -0.0866(3)
H20B H 0.2471(7) 1.1490(13) -0.0959(3)
O5B O 0.2183(3) 0.9450(5) 0.0788(2)
O6B O 0.3667(3) 0.9465(5) 0.0876(2)
C15B C 0.2948(5) 0.8899(7) 0.0909(3)
C16B C 0.2999(6) 0.7356(8) 0.1109(3)
H21B H 0.2409(6) 0.7035(8) 0.1118(3)
H22B H 0.3238(6) 0.6728(8) 0.0900(3)
H23B H 0.3383(6) 0.7335(8) 0.1436(3)
Mn2B Mn 0.16782(6) 1.15712(11) 0.06709(4)
N1B N 0.1092(4) 1.3899(6) 0.0677(2)
N2B N 0.1152(4) 1.1843(6) 0.1373(2)
N3B N 0.0236(4) 1.2961(7) 0.1758(2)
O1B O -0.0318(5) 1.3908(8) 0.1843(2)
C1B C 0.1159(6) 1.4936(8) 0.0358(3)
H2B H 0.1488(6) 1.4761(8) 0.0126(3)
C2B C 0.0748(7) 1.6276(9) 0.0365(4)
H3B H 0.0814(7) 1.6988(9) 0.0142(4)
C3B C 0.0239(7) 1.6556(10) 0.0702(4)
H4B H -0.0063(7) 1.7428(10) 0.0701(4)
C4B C 0.0202(6) 1.5494(9) 0.1036(3)
H5B H -0.0113(6) 1.5647(9) 0.1276(3)
C5B C 0.0632(5) 1.4197(7) 0.1016(3)
C6B C 0.0663(4) 1.2974(7) 0.1375(3)
C7B C 0.0547(9) 1.1696(11) 0.2081(4)
C8B C 0.1086(5) 1.0885(8) 0.1791(3)
C9B C 0.1346(14) 1.2470(17) 0.2533(5)
H6B H 0.1799(14) 1.2895(17) 0.2394(5)
H7B H 0.1079(14) 1.3207(17) 0.2692(5)
H8B H 0.1615(14) 1.1748(17) 0.2769(5)
C10B C -0.0008(11) 1.1178(15) 0.2376(7)
H9B H -0.0261(11) 1.1981(15) 0.2513(7)
H10B H -0.0483(11) 1.0605(15) 0.2178(7)
H11B H 0.0340(11) 1.0594(15) 0.2637(7)
C11B C 0.1954(12) 1.0284(25) 0.2013(7)
H12B H 0.2187(12) 0.9809(25) 0.1766(7)
H13B H 0.2356(12) 1.1045(25) 0.2161(7)
H14B H 0.1899(12) 0.9597(25) 0.2261(7)
C12B C 0.0542(18) 0.9568(14) 0.1560(6)
H15B H -0.0057(18) 0.9863(14) 0.1400(6)
H16B H 0.0821(18) 0.9138(14) 0.1323(6)
H17B H 0.0522(18) 0.8874(14) 0.1812(6)
Mn2B_2 Mn 1.16782(6) 1.15712(11) 0.06709(4)
N10B_2 N 0.0280(5) 1.0741(8) 0.0335(3)
O7 O 0.2000(23) 0.6966(36) -0.0758(8)
H1 H 0.1513(23) 0.6804(36) -0.0698(8)
C29 C 0.2356(16) 0.8102(23) -0.0518(8)
H40 H 0.2510(16) 0.7989(23) -0.0163(8)
H41 H 0.2025(16) 0.8990(23) -0.0618(8)
C30 C 0.3146(13) 0.7854(27) -0.0759(6)
H42 H 0.3597(13) 0.8579(27) -0.0646(6)
H43 H 0.2933(13) 0.7916(27) -0.1110(6)
H44 H 0.3399(13) 0.6914(27) -0.0671(6)
loop_
_geom_bond_atom_site_label_1
_geom_bond_atom_site_label_2
_geom_bond_site_symmetry_1
_geom_bond_site_symmetry_2
Mn1 N4 1_555 1_555
Mn2 N1 1_555 1_555
N1 C1 1_555 1_555
N2 Mn2 1_555 1_555
N3 O1 1_555 1_555
N4 C17 1_555 1_555
N5 Mn1 1_555 1_555
N6 O2 1_555 1_555
N7 Mn1 1_555 1_555
N8 N7 1_555 1_555
N9 N8 1_555 1_555
N10 Mn2 1_555 1_555
N11 N10 1_555 1_555
N12 Mn1 1_555 1_555
N13 N12 1_555 1_555
O3 Mn1 1_555 1_555
O4 Mn2 1_555 1_555
O5 Mn2 1_555 1_555
O6 Mn1 1_555 1_555
O7 H1 1_555 1_555
C1 H2 1_555 1_555
C2 C1 1_555 1_555
H3 C2 1_555 1_555
C3 C2 1_555 1_555
H4 C3 1_555 1_555
C4 C3 1_555 1_555
H5 C4 1_555 1_555
C5 N1 1_555 1_555
C6 N2 1_555 1_555
C7 N3 1_555 1_555
C8 N2 1_555 1_555
C9 C7 1_555 1_555
H6 C9 1_555 1_555
H7 C9 1_555 1_555
H8 C9 1_555 1_555
C10 C7 1_555 1_555
H9 C10 1_555 1_555
H10 C10 1_555 1_555
H11 C10 1_555 1_555
C11 C8 1_555 1_555
H12 C11 1_555 1_555
H13 C11 1_555 1_555
H14 C11 1_555 1_555
C12 C8 1_555 1_555
H15 C12 1_555 1_555
H16 C12 1_555 1_555
H17 C12 1_555 1_555
C13 O3 1_555 1_555
C14 C13 1_555 1_555
H18 C14 1_555 1_555
H19 C14 1_555 1_555
H20 C14 1_555 1_555
C15 O5 1_555 1_555
C16 C15 1_555 1_555
H21 C16 1_555 1_555
H22 C16 1_555 1_555
H23 C16 1_555 1_555
C17 H24 1_555 1_555
C18 C17 1_555 1_555
H25 C18 1_555 1_555
C19 C18 1_555 1_555
H26 C19 1_555 1_555
C20 C19 1_555 1_555
H27 C20 1_555 1_555
C21 N4 1_555 1_555
C22 N5 1_555 1_555
C23 N5 1_555 1_555
C24 N6 1_555 1_555
C25 C23 1_555 1_555
H28 C25 1_555 1_555
H29 C25 1_555 1_555
H30 C25 1_555 1_555
C26 C23 1_555 1_555
H31 C26 1_555 1_555
H32 C26 1_555 1_555
H33 C26 1_555 1_555
C27 C24 1_555 1_555
H34 C27 1_555 1_555
H35 C27 1_555 1_555
H36 C27 1_555 1_555
C28 C24 1_555 1_555
H37 C28 1_555 1_555
H38 C28 1_555 1_555
H39 C28 1_555 1_555
C29 O7 1_555 1_555
H40 C29 1_555 1_555
H41 C29 1_555 1_555
C30 C29 1_555 1_555
H42 C30 1_555 1_555
H43 C30 1_555 1_555
H44 C30 1_555 1_555
N10B N11 1_555 1_555
N12B N13 1_555 1_555
Mn1B N12B 1_555 1_555
N4B Mn1B 1_555 1_555
N5B Mn1B 1_555 1_555
N6B O2B 1_555 1_555
C17B N4B 1_555 1_555
H24B C17B 1_555 1_555
C18B C17B 1_555 1_555
H25B C18B 1_555 1_555
C19B C18B 1_555 1_555
H26B C19B 1_555 1_555
C20B C19B 1_555 1_555
H27B C20B 1_555 1_555
C21B N4B 1_555 1_555
C22B N5B 1_555 1_555
C23B N5B 1_555 1_555
C24B N6B 1_555 1_555
C25B C23B 1_555 1_555
H28B C25B 1_555 1_555
H29B C25B 1_555 1_555
H30B C25B 1_555 1_555
C26B C23B 1_555 1_555
H31B C26B 1_555 1_555
H32B C26B 1_555 1_555
H33B C26B 1_555 1_555
C27B C24B 1_555 1_555
H34B C27B 1_555 1_555
H35B C27B 1_555 1_555
H36B C27B 1_555 1_555
C28B C24B 1_555 1_555
H37B C28B 1_555 1_555
H38B C28B 1_555 1_555
H39B C28B 1_555 1_555
N7B Mn1B 1_555 1_555
N8B N7B 1_555 1_555
N9B N8B 1_555 1_555
O3B Mn1B 1_555 1_555
O4B C13B 1_555 1_555
C13B O3B 1_555 1_555
C14B C13B 1_555 1_555
H18B C14B 1_555 1_555
H19B C14B 1_555 1_555
H20B C14B 1_555 1_555
O5B C15B 1_555 1_555
O6B Mn1B 1_555 1_555
C15B O6B 1_555 1_555
C16B C15B 1_555 1_555
H21B C16B 1_555 1_555
H22B C16B 1_555 1_555
H23B C16B 1_555 1_555
Mn2B N7B 1_555 1_555
N1B Mn2B 1_555 1_555
N2B Mn2B 1_555 1_555
N3B O1B 1_555 1_555
C1B N1B 1_555 1_555
H2B C1B 1_555 1_555
C2B C1B 1_555 1_555
H3B C2B 1_555 1_555
C3B C2B 1_555 1_555
H4B C3B 1_555 1_555
C4B C3B 1_555 1_555
H5B C4B 1_555 1_555
C5B N1B 1_555 1_555
C6B N2B 1_555 1_555
C7B N3B 1_555 1_555
C8B N2B 1_555 1_555
C9B C7B 1_555 1_555
H6B C9B 1_555 1_555
H7B C9B 1_555 1_555
H8B C9B 1_555 1_555
C10B C7B 1_555 1_555
H9B C10B 1_555 1_555
H10B C10B 1_555 1_555
H11B C10B 1_555 1_555
C11B C8B 1_555 1_555
H12B C11B 1_555 1_555
H13B C11B 1_555 1_555
H14B C11B 1_555 1_555
C12B C8B 1_555 1_555
H15B C12B 1_555 1_555
H16B C12B 1_555 1_555
H17B C12B 1_555 1_555
Mn2B_2 N10B 1_555 1_555
N10B_2 Mn2B 1_555 1_555
Mn2 N7 1_555 1_555
N3 C6 1_555 1_555
N6 C22 1_555 1_555
O4 C13 1_555 1_555
O6 C15 1_555 1_555
C4 C5 1_555 1_555
C5 C6 1_555 1_555
C7 C8 1_555 1_555
C20 C21 1_555 1_555
C21 C22 1_555 1_555
C23 C24 1_555 1_555
N6B C22B 1_555 1_555
C20B C21B 1_555 1_555
C21B C22B 1_555 1_555
C23B C24B 1_555 1_555
O4B Mn2B 1_555 1_555
O5B Mn2B 1_555 1_555
N3B C6B 1_555 1_555
C4B C5B 1_555 1_555
C5B C6B 1_555 1_555
C7B C8B 1_555 1_555

#END
