
#######################################################################
#
#                 Cambridge Crystallographic Data Centre
#                                CCDC 
#
#######################################################################
#
# If this CIF has been generated from an entry in the Cambridge 
# Structural Database, then it will include bibliographic, chemical, 
# crystal, experimental, refinement or atomic coordinate data resulting 
# from the CCDC's data processing and validation procedures.
#
#######################################################################

data_NAFYUQ
_symmetry_cell_setting           rhombohedral
_symmetry_space_group_name_H-M   'R -3'
_symmetry_Int_Tables_number      148
_space_group_name_Hall           '-R 3'
loop_
_symmetry_equiv_pos_site_id
_symmetry_equiv_pos_as_xyz
1 x,y,z
2 -y,x-y,z
3 -x+y,-x,z
4 2/3+x,1/3+y,1/3+z
5 2/3-y,1/3+x-y,1/3+z
6 2/3-x+y,1/3-x,1/3+z
7 1/3+x,2/3+y,2/3+z
8 1/3-y,2/3+x-y,2/3+z
9 1/3-x+y,2/3-x,2/3+z
10 -x,-y,-z
11 y,-x+y,-z
12 x-y,x,-z
13 1/3-x,2/3-y,2/3-z
14 1/3+y,2/3-x+y,2/3-z
15 1/3+x-y,2/3+x,2/3-z
16 2/3-x,1/3-y,1/3-z
17 2/3+y,1/3-x+y,1/3-z
18 2/3+x-y,1/3+x,1/3-z
_cell_length_a                   18.5636(3)
_cell_length_b                   18.5636(3)
_cell_length_c                   19.7224(6)
_cell_angle_alpha                90
_cell_angle_beta                 90
_cell_angle_gamma                120
_cell_volume                     5885.93
loop_
_atom_site_label
_atom_site_type_symbol
_atom_site_fract_x
_atom_site_fract_y
_atom_site_fract_z
Cu1 Cu 0.5000 0.0000 0.5000
N1 N 0.49041(13) 0.00643(13) 0.60119(12)
N2 N 0.49189(14) -0.01349(15) 0.85826(12)
H1 H 0.5168 -0.0386 0.8401
C1 C 0.59982(16) 0.15591(15) 0.49146(13)
C2 C 0.63442(16) 0.24783(15) 0.48917(13)
C3 C 0.58116(15) 0.27988(16) 0.48921(13)
H2 H 0.5227 0.2434 0.4893
C4 C 0.4328(2) 0.0387(2) 0.69614(15)
H3 H 0.3993 0.0602 0.7128
C5 C 0.4449(2) 0.0366(2) 0.62736(14)
H4 H 0.4196 0.0576 0.5974
C6 C 0.5258(2) -0.0221(2) 0.64433(15)
H5 H 0.5583 -0.0441 0.6263
C7 C 0.5173(2) -0.0213(2) 0.71359(15)
H6 H 0.5441 -0.0416 0.7425
C8 C 0.46947(17) 0.00935(17) 0.74073(13)
C9 C 0.45491(19) 0.01485(19) 0.81558(14)
C10 C 0.49397(16) -0.00629(17) 0.92968(15)
C11 C 0.50235(19) -0.06431(19) 0.96734(14)
H7 H 0.5039 -0.1088 0.9450
C12 C 0.4915(2) 0.05852(19) 0.96262(14)
H8 H 0.4856 0.0988 0.9372
O1 O 0.52031(11) 0.11199(10) 0.49113(9)
O2 O 0.64617(11) 0.12544(11) 0.49497(9)
O3 O 0.41239(17) 0.04415(17) 0.83389(11)
Cu1_2 Cu 0.5000 0.0000 1.5000
Cu1_3 Cu 0.5000 0.0000 -0.5000
Cu1B Cu 0.5000 0.5000 0.5000
Cu1A Cu 1.0000 0.5000 0.5000
Cu1B_2 Cu 0.5000 -0.5000 0.5000
Cu1A_2 Cu 0.0000 -0.5000 0.5000
Cu1_4 Cu 0.5000 0.0000 2.5000
N1I N 0.50959(13) -0.00643(13) 1.39881(12)
N1I_2 N 0.50959(13) -0.00643(13) 0.39881(12)
N1_2 N 0.49041(13) 0.00643(13) -0.39881(12)
N1_3 N 0.49041(13) 0.00643(13) 1.60119(12)
N1I_3 N 0.50959(13) -0.00643(13) 2.39881(12)
N1I_4 N 0.50959(13) -0.00643(13) -0.60119(12)
N2I N 0.50811(14) 0.01349(15) 1.14174(12)
N2I_2 N 0.50811(14) 0.01349(15) 0.14174(12)
N2_2 N 0.49189(14) -0.01349(15) -0.14174(12)
N2_3 N 0.49189(14) -0.01349(15) 1.85826(12)
N2I_3 N 0.50811(14) 0.01349(15) 2.14174(12)
H1I H 0.4832 0.0386 1.1599
H1I_2 H 0.4832 0.0386 0.1599
H1_2 H 0.5168 -0.0386 -0.1599
H1_3 H 0.5168 -0.0386 1.8401
H1I_3 H 0.4832 0.0386 2.1599
C1B C 0.55609(22) 0.40018(16) 0.49146(13)
C1A C 0.84409(15) 0.44391(22) 0.49146(13)
C1I C 0.40018(16) -0.15591(15) 0.50854(13)
C1K C 0.44391(22) -0.40018(16) 0.50854(13)
C1J C 0.15591(15) -0.44391(22) 0.50854(13)
C2B C 0.61341(22) 0.36558(16) 0.48917(13)
C2A C 0.75217(15) 0.38659(22) 0.48917(13)
C2I C 0.36558(16) -0.24783(15) 0.51083(13)
C2K C 0.38659(22) -0.36558(16) 0.51083(13)
C2J C 0.24783(15) -0.38659(22) 0.51083(13)
C3B C 0.69872(22) 0.41884(15) 0.48921(13)
C3A C 0.72012(16) 0.30128(22) 0.48921(13)
C3I C 0.41884(15) -0.27988(16) 0.51079(13)
C3K C 0.30128(22) -0.41884(15) 0.51079(13)
C3J C 0.27988(16) -0.30128(22) 0.51079(13)
H2A H 0.7566 0.2793 0.4893
H2B H 0.7207 0.4773 0.4893
H2I H 0.4773 -0.2434 0.5107
H2J H 0.2434 -0.2793 0.5107
H2K H 0.2793 -0.4773 0.5107
C4I C 0.5672(2) -0.0387(2) 1.30386(15)
C4I_2 C 0.5672(2) -0.0387(2) 0.30386(15)
C4_2 C 0.4328(2) 0.0387(2) -0.30386(15)
C4_3 C 0.4328(2) 0.0387(2) 1.69614(15)
C4I_3 C 0.5672(2) -0.0387(2) 2.30386(15)
H3I H 0.6007 -0.0602 1.2872
H3I_2 H 0.6007 -0.0602 0.2872
H3_2 H 0.3993 0.0602 -0.2872
H3_3 H 0.3993 0.0602 1.7128
H3I_3 H 0.6007 -0.0602 2.2872
C5I C 0.5551(2) -0.0366(2) 1.37264(14)
C5I_2 C 0.5551(2) -0.0366(2) 0.37264(14)
C5_2 C 0.4449(2) 0.0366(2) -0.37264(14)
C5_3 C 0.4449(2) 0.0366(2) 1.62736(14)
C5I_3 C 0.5551(2) -0.0366(2) 2.37264(14)
H4I H 0.5804 -0.0576 1.4026
H4I_2 H 0.5804 -0.0576 0.4026
H4_2 H 0.4196 0.0576 -0.4026
H4_3 H 0.4196 0.0576 1.5974
H4I_3 H 0.5804 -0.0576 2.4026
C6I C 0.4742(2) 0.0221(2) 1.35567(15)
C6I_2 C 0.4742(2) 0.0221(2) 0.35567(15)
C6_2 C 0.5258(2) -0.0221(2) -0.35567(15)
C6_3 C 0.5258(2) -0.0221(2) 1.64433(15)
C6I_3 C 0.4742(2) 0.0221(2) 2.35567(15)
H5I H 0.4417 0.0441 1.3737
H5I_2 H 0.4417 0.0441 0.3737
H5_2 H 0.5583 -0.0441 -0.3737
H5_3 H 0.5583 -0.0441 1.6263
H5I_3 H 0.4417 0.0441 2.3737
C7I C 0.4827(2) 0.0213(2) 1.28641(15)
C7I_2 C 0.4827(2) 0.0213(2) 0.28641(15)
C7_2 C 0.5173(2) -0.0213(2) -0.28641(15)
C7_3 C 0.5173(2) -0.0213(2) 1.71359(15)
C7I_3 C 0.4827(2) 0.0213(2) 2.28641(15)
H6I H 0.4559 0.0416 1.2575
H6I_2 H 0.4559 0.0416 0.2575
H6_2 H 0.5441 -0.0416 -0.2575
H6_3 H 0.5441 -0.0416 1.7425
H6I_3 H 0.4559 0.0416 2.2575
C8I C 0.53053(17) -0.00935(17) 1.25927(13)
C8I_2 C 0.53053(17) -0.00935(17) 0.25927(13)
C8_2 C 0.46947(17) 0.00935(17) -0.25927(13)
C8_3 C 0.46947(17) 0.00935(17) 1.74073(13)
C8I_3 C 0.53053(17) -0.00935(17) 2.25927(13)
C9I C 0.54509(19) -0.01485(19) 1.18442(14)
C9I_2 C 0.54509(19) -0.01485(19) 0.18442(14)
C9_2 C 0.45491(19) 0.01485(19) -0.18442(14)
C9_3 C 0.45491(19) 0.01485(19) 1.81558(14)
C9I_3 C 0.54509(19) -0.01485(19) 2.18442(14)
C10I C 0.50603(16) 0.00629(17) 1.07032(15)
C10I_2 C 0.50603(16) 0.00629(17) 0.07032(15)
C10_2 C 0.49397(16) -0.00629(17) -0.07032(15)
C10_3 C 0.49397(16) -0.00629(17) 1.92968(15)
C10I_3 C 0.50603(16) 0.00629(17) 2.07032(15)
C11I C 0.49765(19) 0.06431(19) 1.03266(14)
C11I_2 C 0.49765(19) 0.06431(19) 0.03266(14)
C11_2 C 0.50235(19) -0.06431(19) -0.03266(14)
C11_3 C 0.50235(19) -0.06431(19) 1.96734(14)
C11I_3 C 0.49765(19) 0.06431(19) 2.03266(14)
H7I H 0.4961 0.1088 1.0550
H7I_2 H 0.4961 0.1088 0.0550
H7_2 H 0.5039 -0.1088 -0.0550
H7_3 H 0.5039 -0.1088 1.9450
H7I_3 H 0.4961 0.1088 2.0550
C12I C 0.5085(2) -0.05852(19) 1.03738(14)
C12I_2 C 0.5085(2) -0.05852(19) 0.03738(14)
C12_2 C 0.4915(2) 0.05852(19) -0.03738(14)
C12_3 C 0.4915(2) 0.05852(19) 1.96262(14)
C12I_3 C 0.5085(2) -0.05852(19) 2.03738(14)
H8I H 0.5144 -0.0988 1.0628
H8I_2 H 0.5144 -0.0988 0.0628
H8_2 H 0.4856 0.0988 -0.0628
H8_3 H 0.4856 0.0988 1.9372
H8I_3 H 0.5144 -0.0988 2.0628
O1B O 0.59168(15) 0.47969(11) 0.49113(9)
O1A O 0.88801(10) 0.40832(15) 0.49113(9)
O1I O 0.47969(11) -0.11199(10) 0.50887(9)
O1K O 0.40832(15) -0.47969(11) 0.50887(9)
O1J O 0.11199(10) -0.40832(15) 0.50887(9)
O1I_2 O 0.47969(11) -0.11199(10) 1.50887(9)
O1_2 O 0.52031(11) 0.11199(10) 1.49113(9)
O1_3 O 0.52031(11) 0.11199(10) -0.50887(9)
O1I_3 O 0.47969(11) -0.11199(10) -0.49113(9)
O2B O 0.47927(16) 0.35383(11) 0.49497(9)
O2A O 0.87456(11) 0.52073(16) 0.49497(9)
O2I O 0.35383(11) -0.12544(11) 0.50503(9)
O2K O 0.52073(16) -0.35383(11) 0.50503(9)
O2J O 0.12544(11) -0.52073(16) 0.50503(9)
O3I O 0.58761(17) -0.04415(17) 1.16611(11)
O3I_2 O 0.58761(17) -0.04415(17) 0.16611(11)
O3_2 O 0.41239(17) 0.04415(17) -0.16611(11)
O3_3 O 0.41239(17) 0.04415(17) 1.83389(11)
O3I_3 O 0.58761(17) -0.04415(17) 2.16611(11)
O4 O 0.5201(7) 0.2332(8) 0.8562(8)
H9 H 0.5478 0.2459 0.8928
H10 H 0.5664 0.2675 0.8381
O5 O 0.5642(9) 0.2814(8) 0.9999(6)
H11 H 0.5562 0.2817 0.9575
H12 H 0.6075 0.3293 0.9998
loop_
_geom_bond_atom_site_label_1
_geom_bond_atom_site_label_2
_geom_bond_site_symmetry_1
_geom_bond_site_symmetry_2
Cu1 N1 1_555 1_555
N1 C5 1_555 1_555
N2 H1 1_555 1_555
C1 C2 1_555 1_555
C2 C3 1_555 1_555
C3 H2 1_555 1_555
C4 H3 1_555 1_555
C5 C4 1_555 1_555
H4 C5 1_555 1_555
C6 N1 1_555 1_555
H5 C6 1_555 1_555
C7 C6 1_555 1_555
H6 C7 1_555 1_555
C8 C4 1_555 1_555
C9 N2 1_555 1_555
C10 N2 1_555 1_555
C11 C10 1_555 1_555
H7 C11 1_555 1_555
C12 C10 1_555 1_555
H8 C12 1_555 1_555
O1 Cu1 1_555 1_555
O2 C1 1_555 1_555
O3 C9 1_555 1_555
O4 H9 1_555 1_555
H10 O4 1_555 1_555
O5 H11 1_555 1_555
H12 O5 1_555 1_555
Cu1_2 N1I 1_555 1_555
Cu1_3 N1_2 1_555 1_555
Cu1B O1B 1_555 1_555
Cu1A O1A 1_555 1_555
Cu1B_2 O1K 1_555 1_555
Cu1A_2 O1J 1_555 1_555
Cu1_4 N1I_3 1_555 1_555
N1I C5I 1_555 1_555
N1I_2 Cu1 1_555 1_555
N1_2 C5_2 1_555 1_555
N1_3 Cu1_2 1_555 1_555
N1I_3 C5I_3 1_555 1_555
N1I_4 Cu1_3 1_555 1_555
N2I H1I 1_555 1_555
N2I_2 H1I_2 1_555 1_555
N2_2 H1_2 1_555 1_555
N2_3 H1_3 1_555 1_555
N2I_3 H1I_3 1_555 1_555
C1B C2B 1_555 1_555
C1A C2A 1_555 1_555
C1I C2I 1_555 1_555
C1K C2K 1_555 1_555
C1J C2J 1_555 1_555
C2B C3 1_555 1_555
C2A C3B 1_555 1_555
C2I C3I 1_555 1_555
C2K C3I 1_555 1_555
C2J C3K 1_555 1_555
C3B C2B 1_555 1_555
C3A C2 1_555 1_555
C3I H2I 1_555 1_555
C3K C2K 1_555 1_555
C3J C2I 1_555 1_555
H2A C3A 1_555 1_555
H2B C3B 1_555 1_555
H2J C3J 1_555 1_555
H2K C3K 1_555 1_555
C4I H3I 1_555 1_555
C4I_2 H3I_2 1_555 1_555
C4_2 H3_2 1_555 1_555
C4_3 H3_3 1_555 1_555
C4I_3 H3I_3 1_555 1_555
C5I C4I 1_555 1_555
C5I_2 N1I_2 1_555 1_555
C5_2 C4_2 1_555 1_555
C5_3 N1_3 1_555 1_555
C5I_3 C4I_3 1_555 1_555
H4I C5I 1_555 1_555
H4I_2 C5I_2 1_555 1_555
H4_2 C5_2 1_555 1_555
H4_3 C5_3 1_555 1_555
H4I_3 C5I_3 1_555 1_555
C6I N1I 1_555 1_555
C6I_2 N1I_2 1_555 1_555
C6_2 N1_2 1_555 1_555
C6_3 N1_3 1_555 1_555
C6I_3 N1I_3 1_555 1_555
H5I C6I 1_555 1_555
H5I_2 C6I_2 1_555 1_555
H5_2 C6_2 1_555 1_555
H5_3 C6_3 1_555 1_555
H5I_3 C6I_3 1_555 1_555
C7I C6I 1_555 1_555
C7I_2 C6I_2 1_555 1_555
C7_2 C6_2 1_555 1_555
C7_3 C6_3 1_555 1_555
C7I_3 C6I_3 1_555 1_555
H6I C7I 1_555 1_555
H6I_2 C7I_2 1_555 1_555
H6_2 C7_2 1_555 1_555
H6_3 C7_3 1_555 1_555
H6I_3 C7I_3 1_555 1_555
C8I C4I 1_555 1_555
C8I_2 C4I_2 1_555 1_555
C8_2 C4_2 1_555 1_555
C8_3 C4_3 1_555 1_555
C8I_3 C4I_3 1_555 1_555
C9I N2I 1_555 1_555
C9I_2 N2I_2 1_555 1_555
C9_2 N2_2 1_555 1_555
C9_3 N2_3 1_555 1_555
C9I_3 N2I_3 1_555 1_555
C10I N2I 1_555 1_555
C10I_2 N2I_2 1_555 1_555
C10_2 N2_2 1_555 1_555
C10_3 N2_3 1_555 1_555
C10I_3 N2I_3 1_555 1_555
C11I C12 1_555 1_555
C11I_2 C10I_2 1_555 1_555
C11_2 C10_2 1_555 1_555
C11_3 C10_3 1_555 1_555
C11I_3 C10I_3 1_555 1_555
H7I C11I 1_555 1_555
H7I_2 C11I_2 1_555 1_555
H7_2 C11_2 1_555 1_555
H7_3 C11_3 1_555 1_555
H7I_3 C11I_3 1_555 1_555
C12I C11 1_555 1_555
C12I_2 C10I_2 1_555 1_555
C12_2 C10_2 1_555 1_555
C12_3 C10_3 1_555 1_555
C12I_3 C10I_3 1_555 1_555
H8I C12I 1_555 1_555
H8I_2 C12I_2 1_555 1_555
H8_2 C12_2 1_555 1_555
H8_3 C12_3 1_555 1_555
H8I_3 C12I_3 1_555 1_555
O1B C1B 1_555 1_555
O1A C1A 1_555 1_555
O1I Cu1 1_555 1_555
O1K C1K 1_555 1_555
O1J C1J 1_555 1_555
O1I_2 Cu1_2 1_555 1_555
O1_2 Cu1_2 1_555 1_555
O1_3 Cu1_3 1_555 1_555
O1I_3 Cu1_3 1_555 1_555
O2B C1B 1_555 1_555
O2A C1A 1_555 1_555
O2I C1I 1_555 1_555
O2K C1K 1_555 1_555
O2J C1J 1_555 1_555
O3I C9I 1_555 1_555
O3I_2 C9I_2 1_555 1_555
O3_2 C9_2 1_555 1_555
O3_3 C9_3 1_555 1_555
O3I_3 C9I_3 1_555 1_555
C1 O1 1_555 1_555
C7 C8 1_555 1_555
C8 C9 1_555 1_555
C1I O1I 1_555 1_555
C2A C3A 1_555 1_555
C2J C3J 1_555 1_555
C4I_2 C5I_2 1_555 1_555
C4_3 C5_3 1_555 1_555
C7I C8I 1_555 1_555
C7I_2 C8I_2 1_555 1_555
C7_2 C8_2 1_555 1_555
C7_3 C8_3 1_555 1_555
C7I_3 C8I_3 1_555 1_555
C8I C9I 1_555 1_555
C8I_2 C9I_2 1_555 1_555
C8_2 C9_2 1_555 1_555
C8_3 C9_3 1_555 1_555
C8I_3 C9I_3 1_555 1_555
C10I C11I 1_555 1_555
C10I C12I 1_555 1_555
C11I_2 C12_2 1_555 1_555
C11_2 C12I_2 1_555 1_555
C11_3 C12I_3 1_555 1_555
C11I_3 C12_3 1_555 1_555

#END
