
#######################################################################
#
#                 Cambridge Crystallographic Data Centre
#                                CCDC 
#
#######################################################################
#
# If this CIF has been generated from an entry in the Cambridge 
# Structural Database, then it will include bibliographic, chemical, 
# crystal, experimental, refinement or atomic coordinate data resulting 
# from the CCDC's data processing and validation procedures.
#
#######################################################################

data_NAGDUW
_symmetry_cell_setting           rhombohedral
_symmetry_space_group_name_H-M   'R -3 c'
_symmetry_Int_Tables_number      167
_space_group_name_Hall           '-R 3 2"c'
loop_
_symmetry_equiv_pos_site_id
_symmetry_equiv_pos_as_xyz
1 x,y,z
2 -y,x-y,z
3 y,x,1/2-z
4 -x+y,-x,z
5 -x,-x+y,1/2-z
6 x-y,-y,1/2-z
7 1/3+x,2/3+y,2/3+z
8 1/3-y,2/3+x-y,2/3+z
9 1/3+y,2/3+x,1/6-z
10 1/3-x+y,2/3-x,2/3+z
11 1/3-x,2/3-x+y,1/6-z
12 1/3+x-y,2/3-y,1/6-z
13 2/3+x,1/3+y,1/3+z
14 2/3-y,1/3+x-y,1/3+z
15 2/3+y,1/3+x,5/6-z
16 2/3-x+y,1/3-x,1/3+z
17 2/3-x,1/3-x+y,5/6-z
18 2/3+x-y,1/3-y,5/6-z
19 -x,-y,-z
20 y,-x+y,-z
21 -y,-x,1/2+z
22 x-y,x,-z
23 x,x-y,1/2+z
24 -x+y,y,1/2+z
25 2/3-x,1/3-y,1/3-z
26 2/3+y,1/3-x+y,1/3-z
27 2/3-y,1/3-x,5/6+z
28 2/3+x-y,1/3+x,1/3-z
29 2/3+x,1/3+x-y,5/6+z
30 2/3-x+y,1/3+y,5/6+z
31 1/3-x,2/3-y,2/3-z
32 1/3+y,2/3-x+y,2/3-z
33 1/3-y,2/3-x,1/6+z
34 1/3+x-y,2/3+x,2/3-z
35 1/3+x,2/3+x-y,1/6+z
36 1/3-x+y,2/3+y,1/6+z
_cell_length_a                   28.3420(6)
_cell_length_b                   28.3420(6)
_cell_length_c                   99.991(4)
_cell_angle_alpha                90
_cell_angle_beta                 90
_cell_angle_gamma                120
_cell_volume                     69558.9
loop_
_atom_site_label
_atom_site_type_symbol
_atom_site_fract_x
_atom_site_fract_y
_atom_site_fract_z
C64 C 0.4580(5) 0.3086(4) 0.33261(11)
H64 H 0.4855 0.3241 0.3275
H65 H 0.4529 0.3325 0.3364
H66 H 0.4299 0.2874 0.3281
O1 O 0.4669(3) 0.2788(3) 0.34278(7)
H76 H 0.4974 0.3049 0.3480
C65 C 0.4927(4) 0.1607(4) 0.04293(11)
H67 H 0.4923 0.1567 0.0332
H68 H 0.5090 0.1993 0.0452
H69 H 0.4553 0.1407 0.0463
O2 O 0.5241(2) 0.1396(3) 0.04868(7)
H77 H 0.5362 0.1276 0.0426
C67 C 0.5503(4) 0.3490(4) 0.10800(10)
H73 H 0.5419 0.3158 0.1125
H74 H 0.5163 0.3483 0.1069
H75 H 0.5710 0.3778 0.1143
O4 O 0.5685(3) 0.3456(3) 0.09470(7)
H79 H 0.5745 0.3734 0.0901
C1 C 0.82724(25) 0.56048(18) 0.19151(5)
C2 C 0.87800(25) 0.59864(17) 0.19666(5)
H1 H 0.8992 0.5871 0.2016
C3 C 0.89715(27) 0.65362(19) 0.19454(5)
H2 H 0.9317 0.6799 0.1980
C4 C 0.86614(27) 0.67058(19) 0.18744(5)
C5 C 0.8172(3) 0.6329(2) 0.18242(5)
H3 H 0.7966 0.6450 0.1775
C6 C 0.79595(25) 0.57737(19) 0.18418(5)
H4 H 0.7616 0.5517 0.1806
C7 C 0.88562(25) 0.72975(18) 0.18623(5)
H5 H 0.8603 0.7382 0.1909
H6 H 0.8873 0.7394 0.1768
H7 H 0.9219 0.7506 0.1902
C8 C 0.65547(26) 0.52296(19) 0.18563(5)
C9 C 0.6504(3) 0.5315(2) 0.17287(5)
H8 H 0.6370 0.5028 0.1665
C10 C 0.66606(28) 0.58600(19) 0.16901(5)
H9 H 0.6627 0.5924 0.1598
C11 C 0.68448(25) 0.62766(18) 0.17707(5)
C12 C 0.69099(24) 0.61812(17) 0.19050(5)
H10 H 0.7065 0.6480 0.1965
C13 C 0.67559(25) 0.56700(19) 0.19517(5)
H11 H 0.6781 0.5607 0.2044
C14 C 0.7032(3) 0.6864(2) 0.17211(5)
H12 H 0.6756 0.6963 0.1745
H13 H 0.7379 0.7120 0.1763
H14 H 0.7078 0.6881 0.1624
C15 C 0.88730(24) 0.38877(17) 0.26319(4)
C16 C 0.85650(27) 0.34029(19) 0.26944(5)
H15 H 0.8187 0.3272 0.2706
C17 C 0.87845(28) 0.3092(2) 0.27415(5)
H16 H 0.8560 0.2751 0.2784
C18 C 0.93351(26) 0.32907(19) 0.27246(5)
C19 C 0.96266(25) 0.37544(19) 0.26613(5)
H17 H 1.0003 0.3886 0.2646
C20 C 0.93907(25) 0.40594(19) 0.26163(5)
H18 H 0.9614 0.4399 0.2573
C21 C 0.95581(25) 0.29476(18) 0.27798(5)
H19 H 0.9900 0.3040 0.2734
H20 H 0.9293 0.2561 0.2766
H21 H 0.9627 0.3018 0.2876
C22 C 0.72640(25) 0.43825(19) 0.27660(5)
C23 C 0.77836(25) 0.46839(18) 0.28241(5)
H22 H 0.8101 0.4880 0.2771
C24 C 0.78152(28) 0.46842(19) 0.29639(5)
H23 H 0.8159 0.4839 0.3007
C25 C 0.7325(3) 0.4449(2) 0.30395(5)
C26 C 0.68625(28) 0.4168(2) 0.29825(5)
H24 H 0.6545 0.3989 0.3037
C27 C 0.68059(25) 0.41132(18) 0.28432(5)
H25 H 0.6459 0.3895 0.2803
C28 C 0.7396(3) 0.4435(2) 0.31883(5)
H26 H 0.7508 0.4795 0.3226
H27 H 0.7677 0.4338 0.3207
H28 H 0.7050 0.4163 0.3229
C29 C 0.74268(24) 0.58005(18) 0.22889(4)
C30 C 0.72460(27) 0.6020(2) 0.23829(5)
H29 H 0.6965 0.5785 0.2442
C31 C 0.74746(26) 0.66087(19) 0.23943(5)
H30 H 0.7345 0.6756 0.2461
C32 C 0.78809(27) 0.69478(19) 0.23073(5)
C33 C 0.80449(26) 0.67158(19) 0.22130(5)
H31 H 0.8322 0.6946 0.2152
C34 C 0.78272(25) 0.61638(18) 0.22019(5)
H32 H 0.7953 0.6025 0.2133
C35 C 0.81039(26) 0.75406(19) 0.23153(5)
H33 H 0.8375 0.7721 0.2244
H34 H 0.8276 0.7673 0.2403
H35 H 0.7809 0.7622 0.2304
C36 C 0.87692(25) 0.59299(18) 0.24116(4)
C37 C 0.90648(25) 0.65046(18) 0.23925(5)
H36 H 0.9308 0.6659 0.2319
C38 C 0.8993(3) 0.6841(2) 0.24836(5)
H37 H 0.9176 0.7224 0.2470
C39 C 0.86518(28) 0.6612(2) 0.25950(5)
C40 C 0.8371(3) 0.6064(2) 0.26101(6)
H38 H 0.8132 0.5909 0.2684
C41 C 0.84300(26) 0.57222(19) 0.25186(5)
H39 H 0.8229 0.5339 0.2532
C42 C 0.8605(3) 0.6978(2) 0.26939(5)
H40 H 0.8624 0.6858 0.2785
H41 H 0.8256 0.6966 0.2682
H42 H 0.8904 0.7352 0.2681
C43 C 0.95352(26) 0.46711(18) 0.20847(5)
C44 C 0.99593(28) 0.46133(19) 0.20312(5)
H43 H 1.0099 0.4418 0.2078
C45 C 1.0171(3) 0.4848(2) 0.19079(5)
H44 H 1.0469 0.4824 0.1873
C46 C 0.9971(3) 0.5104(2) 0.18372(6)
C47 C 0.9559(3) 0.5186(2) 0.18919(5)
H45 H 0.9438 0.5401 0.1847
C48 C 0.93369(26) 0.49415(18) 0.20138(5)
H46 H 0.9037 0.4964 0.2049
C49 C 1.0237(3) 0.5390(2) 0.17086(5)
H47 H 1.0166 0.5119 0.1639
H48 H 1.0630 0.5617 0.1722
H49 H 1.0087 0.5620 0.1681
C50 C 0.77870(25) 0.45809(18) 0.15425(5)
C51 C 0.7938(3) 0.4833(2) 0.14224(5)
H50 H 0.7691 0.4901 0.1373
C52 C 0.84560(28) 0.49939(19) 0.13693(6)
H51 H 0.8553 0.5152 0.1283
C53 C 0.8820(3) 0.4919(2) 0.14443(5)
C54 C 0.86824(28) 0.4681(2) 0.15712(5)
H52 H 0.8939 0.4638 0.1623
C55 C 0.81650(28) 0.45121(19) 0.16194(6)
H53 H 0.8064 0.4349 0.1705
C56 C 0.9423(3) 0.5145(2) 0.13994(5)
H54 H 0.9542 0.4887 0.1425
H55 H 0.9656 0.5497 0.1443
H56 H 0.9449 0.5193 0.1302
C57 C 0.9728(7) 0.5773(8) 0.2690(2)
C58 C 0.9605(9) 0.6188(8) 0.2722(2)
H57 H 0.9622 0.6422 0.2651
C59 C 0.9468(8) 0.6273(10) 0.2842(2)
H58 H 0.9425 0.6580 0.2857
C60 C 0.9401(11) 0.5977(9) 0.2930(2)
C61 C 0.9404(9) 0.5535(11) 0.2914(2)
H59 H 0.9269 0.5280 0.2986
C62 C 0.9575(9) 0.5403(12) 0.2808(2)
H60 H 0.9603 0.5083 0.2806
C63 C 0.9232(13) 0.6063(12) 0.3073(3)
H61 H 0.9036 0.5711 0.3119
H62 H 0.8997 0.6223 0.3065
H63 H 0.9560 0.6309 0.3124
Cd1 Cd 0.761723(16) 0.373583(12) 0.251075(3)
Cd2 Cd 0.787145(16) 0.489751(11) 0.220585(3)
Cd3 Cd 0.827641(16) 0.369611(11) 0.216055(3)
Cd4 Cd 0.913979(16) 0.493183(11) 0.240489(3)
Cd5 Cd 0.6667 0.3333 0.217136(5)
Cd6 Cd 0.708550(17) 0.432840(12) 0.184780(3)
Cd7 Cd 0.6667 0.3333 0.152704(5)
S1 S 0.76061(6) 0.39295(4) 0.226486(13)
S2 S 0.72338(6) 0.43485(4) 0.258522(11)
S3 S 0.85829(6) 0.43177(4) 0.259532(10)
S4 S 0.88285(6) 0.55177(4) 0.228775(10)
S5 S 0.80067(6) 0.48884(4) 0.195158(10)
S6 S 0.92432(6) 0.43276(4) 0.223703(10)
S7 S 0.71711(6) 0.50993(4) 0.229720(10)
S8 S 0.63434(6) 0.45511(4) 0.191120(10)
S9 S 0.9942(2) 0.5674(2) 0.25348(5)
S10 S 0.6667 0.3333 0.191999(18)
S11 S 0.71255(6) 0.43566(4) 0.159900(11)
S12 S 0.6667 0.3333 0.126859(19)
H80 H 0.6464 0.3498 0.1237
Cd1A Cd 0.626417(12) 0.388140(20) 0.251075(3)
Cd3A Cd 0.630389(11) 0.458030(19) 0.216055(3)
Cd4D Cd 1.086021(16) 0.579204(19) 0.259511(3)
Cd6A Cd 0.567160(12) 0.275710(21) 0.184780(3)
Cd6C Cd 0.724290(21) 0.291450(17) 0.184780(3)
S1A S 0.60705(4) 0.36766(7) 0.226486(13)
S1C S 0.63234(7) 0.23939(6) 0.226486(13)
S2C S 0.71147(7) 0.27662(6) 0.258522(11)
S7C S 0.79282(7) 0.28289(6) 0.229720(10)
S8C S 0.82077(7) 0.36566(6) 0.191120(10)
S9D S 1.0058(2) 0.5732(3) 0.24652(5)
S11A S 0.56434(4) 0.27689(7) 0.159900(11)
S11C S 0.72311(7) 0.28745(6) 0.159900(11)
H80A H 0.6502 0.2966 0.1237
H80C H 0.7034 0.3536 0.1237
C66? C 0.5227(4) 0.1865(4) 0.09081(11)
H70? H 0.5404 0.2220 0.0868
H71? H 0.4869 0.1774 0.0937
H72? H 0.5436 0.1864 0.0984
O3? O 0.5191(3) 0.1479(3) 0.08092(7)
H78? H 0.5332 0.1638 0.0736
loop_
_geom_bond_atom_site_label_1
_geom_bond_atom_site_label_2
_geom_bond_site_symmetry_1
_geom_bond_site_symmetry_2
C1 C2 1_555 1_555
C2 H1 1_555 1_555
C3 C2 1_555 1_555
H2 C3 1_555 1_555
C4 C3 1_555 1_555
C5 C4 1_555 1_555
H3 C5 1_555 1_555
C6 C1 1_555 1_555
H4 C6 1_555 1_555
C7 C4 1_555 1_555
H5 C7 1_555 1_555
H6 C7 1_555 1_555
H7 C7 1_555 1_555
C8 C9 1_555 1_555
C9 H8 1_555 1_555
C10 C9 1_555 1_555
H9 C10 1_555 1_555
C11 C10 1_555 1_555
C12 C11 1_555 1_555
H10 C12 1_555 1_555
C13 C8 1_555 1_555
H11 C13 1_555 1_555
C14 C11 1_555 1_555
H12 C14 1_555 1_555
H13 C14 1_555 1_555
H14 C14 1_555 1_555
C15 C16 1_555 1_555
C16 H15 1_555 1_555
C17 C16 1_555 1_555
H16 C17 1_555 1_555
C18 C17 1_555 1_555
C19 C18 1_555 1_555
H17 C19 1_555 1_555
C20 C15 1_555 1_555
H18 C20 1_555 1_555
C21 C18 1_555 1_555
H19 C21 1_555 1_555
H20 C21 1_555 1_555
H21 C21 1_555 1_555
C22 C23 1_555 1_555
C23 H22 1_555 1_555
C24 C23 1_555 1_555
H23 C24 1_555 1_555
C25 C24 1_555 1_555
C26 C25 1_555 1_555
H24 C26 1_555 1_555
C27 C22 1_555 1_555
H25 C27 1_555 1_555
C28 C25 1_555 1_555
H26 C28 1_555 1_555
H27 C28 1_555 1_555
H28 C28 1_555 1_555
C29 C30 1_555 1_555
C30 H29 1_555 1_555
C31 C30 1_555 1_555
H30 C31 1_555 1_555
C32 C31 1_555 1_555
C33 C32 1_555 1_555
H31 C33 1_555 1_555
C34 C29 1_555 1_555
H32 C34 1_555 1_555
C35 C32 1_555 1_555
H33 C35 1_555 1_555
H34 C35 1_555 1_555
H35 C35 1_555 1_555
C36 C37 1_555 1_555
C37 H36 1_555 1_555
C38 C37 1_555 1_555
H37 C38 1_555 1_555
C39 C38 1_555 1_555
C40 C39 1_555 1_555
H38 C40 1_555 1_555
C41 C36 1_555 1_555
H39 C41 1_555 1_555
C42 C39 1_555 1_555
H40 C42 1_555 1_555
H41 C42 1_555 1_555
H42 C42 1_555 1_555
C43 C44 1_555 1_555
C44 H43 1_555 1_555
C45 C44 1_555 1_555
H44 C45 1_555 1_555
C46 C45 1_555 1_555
C47 C46 1_555 1_555
H45 C47 1_555 1_555
C48 C43 1_555 1_555
H46 C48 1_555 1_555
C49 C46 1_555 1_555
H47 C49 1_555 1_555
H48 C49 1_555 1_555
H49 C49 1_555 1_555
C50 C51 1_555 1_555
C51 H50 1_555 1_555
C52 C51 1_555 1_555
H51 C52 1_555 1_555
C53 C52 1_555 1_555
C54 C53 1_555 1_555
H52 C54 1_555 1_555
C55 C50 1_555 1_555
H53 C55 1_555 1_555
C56 C53 1_555 1_555
H54 C56 1_555 1_555
H55 C56 1_555 1_555
H56 C56 1_555 1_555
C57 C58 1_555 1_555
C58 H57 1_555 1_555
C59 C58 1_555 1_555
H58 C59 1_555 1_555
C60 C59 1_555 1_555
C61 C60 1_555 1_555
H59 C61 1_555 1_555
C62 C57 1_555 1_555
H60 C62 1_555 1_555
C63 C60 1_555 1_555
H61 C63 1_555 1_555
H62 C63 1_555 1_555
H63 C63 1_555 1_555
C64 H64 1_555 1_555
H65 C64 1_555 1_555
H66 C64 1_555 1_555
C65 H67 1_555 1_555
H68 C65 1_555 1_555
H69 C65 1_555 1_555
C67 H73 1_555 1_555
H74 C67 1_555 1_555
H75 C67 1_555 1_555
Cd1 S1 1_555 1_555
Cd2 S1 1_555 1_555
Cd3 S1 1_555 1_555
Cd4 S3 1_555 1_555
Cd5 S1 1_555 1_555
Cd6 S5 1_555 1_555
Cd7 S11 1_555 1_555
O1 C64 1_555 1_555
H76 O1 1_555 1_555
O2 C65 1_555 1_555
H77 O2 1_555 1_555
O4 C67 1_555 1_555
H79 O4 1_555 1_555
S2 C22 1_555 1_555
S3 C15 1_555 1_555
S4 C36 1_555 1_555
S5 C1 1_555 1_555
S6 C43 1_555 1_555
S7 C29 1_555 1_555
S8 C8 1_555 1_555
S9 C57 1_555 1_555
S10 Cd5 1_555 1_555
S11 C50 1_555 1_555
S12 Cd7 1_555 1_555
H80 S12 1_555 1_555
Cd1A S2 1_555 1_555
Cd3A S7 1_555 1_555
Cd4D S9 1_555 1_555
Cd6A S10 1_555 1_555
Cd6C S10 1_555 1_555
S1A Cd5 1_555 1_555
S1C Cd5 1_555 1_555
S2C Cd1 1_555 1_555
S7C Cd3 1_555 1_555
S8C Cd3 1_555 1_555
S9D Cd4 1_555 1_555
S11A Cd7 1_555 1_555
S11C Cd7 1_555 1_555
H80A S12 1_555 1_555
H80C S12 1_555 1_555
C5 C6 1_555 1_555
C12 C13 1_555 1_555
C19 C20 1_555 1_555
C26 C27 1_555 1_555
C33 C34 1_555 1_555
C40 C41 1_555 1_555
C47 C48 1_555 1_555
C54 C55 1_555 1_555
C61 C62 1_555 1_555
Cd1 S2 1_555 1_555
Cd1 S3 1_555 1_555
Cd2 S4 1_555 1_555
Cd2 S5 1_555 1_555
Cd2 S7 1_555 1_555
Cd3 S6 1_555 1_555
Cd4 S4 1_555 1_555
Cd4 S6 1_555 1_555
Cd4 S9 1_555 1_555
Cd6 S8 1_555 1_555
Cd6 S10 1_555 1_555
Cd6 S11 1_555 1_555
S8 Cd3A 1_555 1_555
S9 S9D 1_555 1_555
Cd1A S1A 1_555 1_555
Cd3A S1A 1_555 1_555
Cd4D S9D 1_555 1_555
Cd6A S11A 1_555 1_555
Cd6C S8C 1_555 1_555
Cd6C S11C 1_555 1_555

#END
