
#######################################################################
#
#                 Cambridge Crystallographic Data Centre
#                                CCDC 
#
#######################################################################
#
# If this CIF has been generated from an entry in the Cambridge 
# Structural Database, then it will include bibliographic, chemical, 
# crystal, experimental, refinement or atomic coordinate data resulting 
# from the CCDC's data processing and validation procedures.
#
#######################################################################

data_NAGFUY
_symmetry_cell_setting           monoclinic
_symmetry_space_group_name_H-M   'P 21/n'
_symmetry_Int_Tables_number      14
_space_group_name_Hall           '-P 2yn'
loop_
_symmetry_equiv_pos_site_id
_symmetry_equiv_pos_as_xyz
1 x,y,z
2 1/2-x,1/2+y,1/2-z
3 -x,-y,-z
4 1/2+x,1/2-y,1/2+z
_cell_length_a                   14.087(5)
_cell_length_b                   22.013(5)
_cell_length_c                   24.205(5)
_cell_angle_alpha                90
_cell_angle_beta                 99.672(5)
_cell_angle_gamma                90
_cell_volume                     7399.21
loop_
_atom_site_label
_atom_site_type_symbol
_atom_site_fract_x
_atom_site_fract_y
_atom_site_fract_z
W1 W 0.40451(5) 0.31828(3) -0.00654(3)
W2 W 0.17796(6) 0.39475(3) -0.06756(3)
W3 W 0.18678(6) 0.29888(3) 0.05869(2)
W4 W -0.01118(5) 0.31533(3) -0.13026(3)
W5 W 0.17883(5) 0.33180(3) -0.19215(2)
W6 W 0.41217(5) 0.26154(3) -0.13231(3)
W7 W 0.01650(5) 0.14964(3) -0.14524(3)
W8 W 0.42497(5) 0.17197(3) -0.02263(2)
W9 W 0.21475(5) 0.15456(3) 0.04852(2)
W10 W 0.20970(5) 0.16532(3) -0.20015(2)
W11 W 0.21414(5) 0.08343(3) -0.08982(2)
W12 W 0.01297(5) 0.21654(3) -0.00652(2)
Sm1 Sm 0.28683(7) 0.15154(4) -0.36008(3)
Sm2 Sm 0.32802(6) -0.08943(3) -0.05779(3)
Sm3 Sm 0.68998(7) -0.04125(4) -0.18111(3)
N1 N 0.6270(10) -0.1504(6) -0.1896(4)
N2 N 0.3099(9) -0.1582(5) 0.0238(4)
C1 C 0.7686(15) -0.1693(11) -0.2295(7)
C2 C 0.2964(12) -0.2184(7) 0.0178(5)
C3 C 0.5634(18) -0.2661(8) -0.1931(7)
H1 H 0.5397 -0.3071 -0.1952
C4 C 0.2970(14) -0.1704(8) 0.1202(6)
H2 H 0.2980 -0.1521 0.1563
C5 C 0.6774(15) -0.1925(9) -0.2119(6)
C6 C 0.2842(14) -0.2307(7) 0.1135(6)
H3 H 0.2749 -0.2562 0.1444
C7 C 0.3200(13) -0.0691(8) 0.0775(6)
C8 C 0.2864(13) -0.2561(7) 0.0601(6)
H4 H 0.2807 -0.2991 0.0537
C9 C 0.6422(15) -0.2527(9) -0.2147(6)
H5 H 0.6746 -0.2835 -0.2327
C10 C 0.3085(12) -0.1344(7) 0.0744(6)
C11 C 0.5041(14) -0.1125(8) -0.1402(6)
C12 C 0.2900(13) -0.2393(7) -0.0431(6)
C13 C 0.5504(13) -0.1654(7) -0.1676(5)
C14 C 0.5170(13) -0.2242(8) -0.1670(6)
H6 H 0.4629 -0.2335 -0.1491
O2 O -0.0919(9) 0.2065(5) 0.0165(4)
O4 O 0.1865(9) 0.3668(5) -0.2539(4)
O6 O -0.1281(8) 0.3378(5) -0.1515(4)
O8 O 0.8190(12) -0.2078(8) -0.2474(5)
O10 O 0.7833(11) -0.1132(7) -0.2235(5)
O12 O 0.8609(12) -0.0040(7) -0.1467(6)
O14 O 0.3200(13) -0.0418(7) 0.1222(5)
O16 O 0.4269(9) -0.1218(5) -0.1239(4)
O17 O 0.2864(12) 0.0447(6) -0.3314(5)
O18 O 0.4247(12) 0.1465(7) -0.2811(4)
O19 O 0.2313(12) 0.0838(5) -0.4421(4)
O20 O 0.3305(8) 0.1987(4) -0.1714(4)
O21 O 0.1131(9) 0.1422(6) -0.3716(4)
O22 O 0.0430(8) 0.3393(5) -0.1950(4)
O23 O 0.3367(8) 0.1658(4) 0.0317(3)
O24 O 0.1548(9) -0.0962(5) -0.0479(4)
O25 O 0.4106(10) 0.2297(7) -0.3734(5)
O26 O 0.2758(9) -0.2925(5) -0.0543(4)
O27 O 0.2486(11) 0.2520(5) -0.3236(4)
O28 O 0.3113(8) 0.3145(4) -0.1638(3)
O29 O 0.4758(9) 0.2463(5) 0.0155(4)
O30 O 0.1950(8) 0.4027(4) -0.1441(4)
O31 O 0.4509(8) -0.0069(5) -0.0620(4)
O32 O -0.0172(8) 0.2804(5) -0.0586(4)
O33 O 0.3435(7) 0.1168(4) -0.0674(3)
O34 O 0.0556(8) 0.2782(5) 0.0533(4)
O35 O 0.4769(8) 0.1962(5) -0.0875(4)
O36 O 0.4575(9) 0.3181(5) -0.0762(4)
O37 O 0.2988(9) -0.1960(5) -0.0770(4)
O38 O 0.1484(8) 0.3010(4) -0.1080(4)
O39 O 0.0018(7) 0.1631(4) -0.0669(3)
O40 O 0.0724(8) 0.1438(5) -0.2125(4)
O41 O 0.3300(8) 0.2443(4) -0.0603(4)
O42 O 0.2364(9) -0.0927(5) -0.1545(4)
O43 O 0.2273(8) 0.2235(5) 0.0977(3)
O44 O 0.1679(8) 0.2484(5) -0.2134(4)
O45 O 0.0812(8) 0.0730(5) -0.1174(4)
O46 O 0.0375(8) 0.3885(5) -0.0933(4)
O47 O 0.2373(8) 0.0983(4) 0.0989(4)
O48 O 0.3317(8) -0.0406(5) 0.0323(4)
O49 O 0.1819(9) 0.4698(5) -0.0503(4)
O50 O 0.1914(7) 0.1024(4) -0.0173(3)
O51 O -0.0122(8) 0.2324(5) -0.1566(4)
O52 O 0.2303(9) 0.1462(5) -0.2672(4)
O53 O 0.3167(8) 0.3030(5) 0.0417(4)
O54 O 0.1682(8) 0.1724(4) -0.1190(3)
O55 O 0.3097(8) 0.3728(5) -0.0479(4)
O56 O -0.0926(9) 0.1151(5) -0.1715(4)
O57 O 0.1561(8) 0.3560(5) 0.0008(4)
O58 O 0.2411(8) 0.0875(4) -0.1667(3)
O59 O 0.0774(7) 0.1533(4) 0.0456(4)
O60 O 0.4820(9) 0.3712(5) 0.0292(4)
O61 O 0.5156(8) 0.1230(5) 0.0072(4)
O62 O 0.1643(8) 0.2291(4) -0.0066(3)
O63 O 0.1982(10) 0.3448(5) 0.1174(4)
O64 O 0.5493(8) -0.0628(5) -0.1382(4)
O65 O 0.4902(9) 0.2726(5) -0.1761(4)
O66 O 0.2426(7) 0.0080(4) -0.0800(4)
O67 O 0.4282(10) 0.1102(10) -0.4003(7)
O68 O 0.5603(17) -0.0473(14) -0.2632(8)
O69 O 0.687(4) 0.0455(8) -0.2376(8)
Sm1A Sm 0.21317(7) -0.34846(4) -0.13992(3)
Sm2B Sm 0.67198(6) 0.08943(3) 0.05779(3)
Sm3B Sm 0.31002(7) 0.04125(4) 0.18111(3)
O14B O 0.6800(13) 0.0418(7) -0.1222(5)
O26A O 0.2242(9) 0.2075(5) -0.4457(4)
O47B O 0.7627(8) -0.0983(4) -0.0989(4)
O61B O 0.4844(8) -0.1230(5) -0.0072(4)
O1 O 0.5350(14) -0.0949(8) 0.1720(7)
H7 H 0.5730 -0.1268 0.1678
H8 H 0.4749 -0.1011 0.1789
O3 O 0.5188(17) 0.4283(9) 0.1926(7)
H9 H 0.4873 0.4638 0.1862
H10 H 0.5615 0.4230 0.2244
O5 O 0.1188(13) 0.3323(10) 0.2175(6)
H11 H 0.1736 0.3539 0.2257
H12 H 0.0799 0.3281 0.2432
O7 O 0.6229(17) 0.3983(8) -0.0531(7)
H13 H 0.6228 0.4109 -0.0177
H14 H 0.6661 0.4137 -0.0728
O9 O 0.8501(15) 0.4965(8) 0.2733(6)
H15 H 0.8413 0.4854 0.3079
H16 H 0.9024 0.5183 0.2689
O11 O 0.9053(13) 0.0079(9) -0.0240(6)
H17 H 0.9076 -0.0139 0.0076
H18 H 0.9524 0.0042 -0.0447
O13 O 0.9763(16) 0.1879(10) 0.2096(7)
H19 H 1.0017 0.2241 0.2213
H20 H 1.0072 0.1534 0.2218
O15 O 0.4634(18) -0.0065(11) 0.3543(8)
H21 H 0.4245 0.0073 0.3774
H22 H 0.5057 -0.0365 0.3656
O70 O 0.997(2) 0.0956(15) 0.1390(10)
H23 H 1.0043 0.0569 0.1283
H24 H 1.0443 0.1136 0.1632
O71 O 0.596(2) 0.5141(16) 0.2862(17)
H25 H 0.5805 0.5017 0.3191
H26 H 0.6315 0.5478 0.2849
O72 O 0.612(2) 0.5358(14) 0.1313(19)
H27 H 0.6205 0.5711 0.1142
H28 H 0.6325 0.5316 0.1684
O73 O 0.928(2) 0.4223(16) -0.0052(9)
H29 H 0.9635 0.4046 -0.0282
H30 H 0.9527 0.4524 0.0179
O74 O 0.508(4) 0.497(3) -0.056(2)
H31 H 0.4882 0.5110 -0.0248
H32 H 0.5435 0.5205 -0.0748
loop_
_geom_bond_atom_site_label_1
_geom_bond_atom_site_label_2
_geom_bond_site_symmetry_1
_geom_bond_site_symmetry_2
W1 O29 1_555 1_555
W2 O30 1_555 1_555
W3 W9 1_555 1_555
W4 O6 1_555 1_555
W5 O4 1_555 1_555
W6 O20 1_555 1_555
W7 W11 1_555 1_555
W8 O23 1_555 1_555
W9 W12 1_555 1_555
W10 W11 1_555 1_555
W11 O33 1_555 1_555
W12 W3 1_555 1_555
Sm1 O17 1_555 1_555
Sm2 N2 1_555 1_555
Sm3 N1 1_555 1_555
N1 C5 1_555 1_555
N2 C2 1_555 1_555
C1 C5 1_555 1_555
C2 C8 1_555 1_555
C3 H1 1_555 1_555
C4 H2 1_555 1_555
C5 C9 1_555 1_555
C6 C4 1_555 1_555
H3 C6 1_555 1_555
C7 C10 1_555 1_555
C8 C6 1_555 1_555
H4 C8 1_555 1_555
C9 C3 1_555 1_555
H5 C9 1_555 1_555
C10 N2 1_555 1_555
C11 C13 1_555 1_555
C12 C2 1_555 1_555
C13 N1 1_555 1_555
C14 C3 1_555 1_555
H6 C14 1_555 1_555
O1 H7 1_555 1_555
H8 O1 1_555 1_555
O2 W12 1_555 1_555
O3 H9 1_555 1_555
H10 O3 1_555 1_555
O5 H11 1_555 1_555
H12 O5 1_555 1_555
O7 H13 1_555 1_555
H14 O7 1_555 1_555
O8 C1 1_555 1_555
O9 H15 1_555 1_555
H16 O9 1_555 1_555
O10 Sm3 1_555 1_555
O11 H17 1_555 1_555
H18 O11 1_555 1_555
O12 Sm3 1_555 1_555
O13 H19 1_555 1_555
H20 O13 1_555 1_555
O14 C7 1_555 1_555
O15 H21 1_555 1_555
H22 O15 1_555 1_555
O16 Sm2 1_555 1_555
O18 Sm1 1_555 1_555
O19 Sm1 1_555 1_555
O20 W10 1_555 1_555
O21 Sm1 1_555 1_555
O22 W4 1_555 1_555
O23 W9 1_555 1_555
O24 Sm2 1_555 1_555
O25 Sm1 1_555 1_555
O26 C12 1_555 1_555
O27 Sm1 1_555 1_555
O28 W5 1_555 1_555
O29 W8 1_555 1_555
O30 W5 1_555 1_555
O31 Sm2 1_555 1_555
O32 W4 1_555 1_555
O33 W8 1_555 1_555
O34 W3 1_555 1_555
O35 W6 1_555 1_555
O36 W1 1_555 1_555
O37 Sm2 1_555 1_555
O38 W2 1_555 1_555
O39 W7 1_555 1_555
O40 W7 1_555 1_555
O41 W1 1_555 1_555
O42 Sm2 1_555 1_555
O43 W3 1_555 1_555
O44 W5 1_555 1_555
O45 W7 1_555 1_555
O46 W2 1_555 1_555
O47 W9 1_555 1_555
O48 Sm2 1_555 1_555
O49 W2 1_555 1_555
O50 W9 1_555 1_555
O51 W4 1_555 1_555
O52 W10 1_555 1_555
O53 W1 1_555 1_555
O54 W7 1_555 1_555
O55 W1 1_555 1_555
O56 W7 1_555 1_555
O57 W2 1_555 1_555
O58 W10 1_555 1_555
O59 W9 1_555 1_555
O60 W1 1_555 1_555
O61 W8 1_555 1_555
O62 W3 1_555 1_555
O63 W3 1_555 1_555
O64 Sm3 1_555 1_555
O65 W6 1_555 1_555
O66 W11 1_555 1_555
O67 Sm1 1_555 1_555
O68 Sm3 1_555 1_555
O69 Sm3 1_555 1_555
O70 H23 1_555 1_555
H24 O70 1_555 1_555
O71 H25 1_555 1_555
H26 O71 1_555 1_555
O72 H27 1_555 1_555
H28 O72 1_555 1_555
O73 H29 1_555 1_555
H30 O73 1_555 1_555
O74 H31 1_555 1_555
H32 O74 1_555 1_555
Sm1A O26 1_555 1_555
Sm2B O61 1_555 1_555
Sm3B O14 1_555 1_555
O14B Sm3 1_555 1_555
O26A Sm1 1_555 1_555
O47B Sm3 1_555 1_555
O61B Sm2 1_555 1_555
W2 O55 1_555 1_555
W3 O53 1_555 1_555
W3 O57 1_555 1_555
W4 O38 1_555 1_555
W4 O46 1_555 1_555
W5 O22 1_555 1_555
W5 O38 1_555 1_555
W6 O28 1_555 1_555
W6 O36 1_555 1_555
W6 O41 1_555 1_555
W7 O51 1_555 1_555
W8 O35 1_555 1_555
W8 O41 1_555 1_555
W9 O43 1_555 1_555
W9 O62 1_555 1_555
W10 O40 1_555 1_555
W10 O44 1_555 1_555
W10 O54 1_555 1_555
W11 O45 1_555 1_555
W11 O50 1_555 1_555
W11 O54 1_555 1_555
W11 O58 1_555 1_555
W12 O32 1_555 1_555
W12 O34 1_555 1_555
W12 O39 1_555 1_555
W12 O59 1_555 1_555
W12 O62 1_555 1_555
Sm1 O52 1_555 1_555
Sm2 O66 1_555 1_555
C1 O10 1_555 1_555
C4 C10 1_555 1_555
C7 O48 1_555 1_555
C11 O16 1_555 1_555
C11 O64 1_555 1_555
C12 O37 1_555 1_555
C13 C14 1_555 1_555
O47 Sm3B 1_555 1_555

#END
