
#######################################################################
#
#                 Cambridge Crystallographic Data Centre
#                                CCDC 
#
#######################################################################
#
# If this CIF has been generated from an entry in the Cambridge 
# Structural Database, then it will include bibliographic, chemical, 
# crystal, experimental, refinement or atomic coordinate data resulting 
# from the CCDC's data processing and validation procedures.
#
#######################################################################

data_NAGGUY
_symmetry_cell_setting           monoclinic
_symmetry_space_group_name_H-M   'P 21/c'
_symmetry_Int_Tables_number      14
_space_group_name_Hall           '-P 2ybc'
loop_
_symmetry_equiv_pos_site_id
_symmetry_equiv_pos_as_xyz
1 x,y,z
2 x,1/2-y,1/2+z
3 -x,-y,-z
4 -x,1/2+y,1/2-z
_cell_length_a                   15.0248(9)
_cell_length_b                   19.0019(12)
_cell_length_c                   13.4159(8)
_cell_angle_alpha                90
_cell_angle_beta                 100.5560(10)
_cell_angle_gamma                90
_cell_volume                     3765.41
loop_
_atom_site_label
_atom_site_type_symbol
_atom_site_fract_x
_atom_site_fract_y
_atom_site_fract_z
Cu1 Cu 0.23701(3) 0.27635(2) -0.00329(3)
Fe1 Fe -0.00295(3) 0.30638(3) -0.31810(3)
Fe2 Fe 0.45339(3) 0.15413(2) 0.26944(3)
O1 O 0.22308(18) 0.38581(13) 0.0539(2)
N1 N 0.0496(2) 0.46227(19) -0.3117(3)
N2 N 0.1385(2) 0.28666(16) -0.1235(2)
N3 N 0.33208(19) 0.24080(16) 0.1059(2)
N4 N 0.14929(19) 0.26468(16) -0.4291(2)
N5 N 0.32812(19) 0.19840(16) 0.4150(2)
N6 N 0.5731(2) 0.28508(18) 0.3200(3)
N7 N -0.16826(19) 0.30037(16) -0.4694(2)
N8 N -0.08009(18) 0.32315(15) -0.4510(2)
N9 N -0.13521(19) 0.19537(16) -0.3632(2)
N10 N -0.04509(19) 0.20847(15) -0.3293(2)
N11 N -0.18868(18) 0.30428(16) -0.2901(2)
N12 N -0.10461(18) 0.32940(15) -0.2510(2)
N13 N 0.54917(19) 0.05236(16) 0.1686(2)
N14 N 0.52282(18) 0.12094(15) 0.1676(2)
N15 N 0.41552(19) 0.00666(15) 0.2305(2)
N16 N 0.37661(18) 0.07044(15) 0.2384(2)
N17 N 0.55599(19) 0.03139(16) 0.3528(2)
N18 N 0.53307(18) 0.09817(16) 0.3747(2)
C1 C 0.0333(2) 0.4034(2) -0.3129(3)
C2 C 0.0827(2) 0.29265(18) -0.1933(3)
C3 C 0.3776(2) 0.20923(18) 0.1681(3)
C4 C 0.0947(2) 0.28226(19) -0.3851(3)
C5 C 0.3777(2) 0.18387(18) 0.3627(3)
C6 C 0.5284(2) 0.23669(19) 0.3017(3)
C7 C 0.1645(3) 0.4362(2) -0.0019(4)
H1 H 0.1683 0.4800 0.0358
H2 H 0.1028 0.4188 -0.0128
H3 H 0.1824 0.4443 -0.0669
C8 C -0.2039(3) 0.3110(2) -0.5674(3)
H4 H -0.2632 0.2995 -0.5991
C9 C -0.1390(3) 0.3415(2) -0.6139(3)
H5 H -0.1450 0.3551 -0.6821
C10 C -0.0633(3) 0.34789(19) -0.5387(3)
H6 H -0.0077 0.3670 -0.5480
C11 C -0.1465(3) 0.1265(2) -0.3773(3)
H7 H -0.2022 0.1041 -0.4009
C12 C -0.0649(3) 0.0929(2) -0.3523(3)
H8 H -0.0535 0.0444 -0.3550
C13 C -0.0027(3) 0.14632(19) -0.3219(3)
H9 H 0.0598 0.1397 -0.2995
C14 C -0.2482(2) 0.3289(2) -0.2349(3)
H10 H -0.3107 0.3196 -0.2473
C15 C -0.2034(3) 0.3695(2) -0.1585(3)
H11 H -0.2281 0.3930 -0.1082
C16 C -0.1136(3) 0.3691(2) -0.1703(3)
H12 H -0.0661 0.3929 -0.1282
C17 C 0.5910(3) 0.0407(2) 0.0895(3)
H13 H 0.6156 -0.0023 0.0735
C18 C 0.5915(3) 0.1021(2) 0.0365(3)
H14 H 0.6164 0.1097 -0.0220
C19 C 0.5477(3) 0.1508(2) 0.0870(3)
H15 H 0.5370 0.1980 0.0674
C20 C 0.3504(3) -0.0422(2) 0.2103(3)
H16 H 0.3597 -0.0905 0.2009
C21 C 0.2676(3) -0.0100(2) 0.2055(3)
H17 H 0.2102 -0.0313 0.1928
C22 C 0.2872(2) 0.06082(19) 0.2233(3)
H18 H 0.2441 0.0965 0.2246
C23 C 0.6044(2) 0.0023(2) 0.4361(3)
H19 H 0.6281 -0.0436 0.4406
C24 C 0.6138(3) 0.0497(2) 0.5137(3)
H20 H 0.6444 0.0435 0.5807
C25 C 0.5682(2) 0.1091(2) 0.4715(3)
H21 H 0.5630 0.1512 0.5067
B1 B -0.2015(3) 0.2580(2) -0.3853(3)
B2 B 0.5195(3) 0.0021(2) 0.2468(3)
H28 H 0.539(2) -0.0545(16) 0.235(2)
H29 H -0.278(2) 0.2405(17) -0.412(2)
N4A N 0.14929(19) 0.23532(16) 0.0709(2)
N5A N 0.32812(19) 0.30160(16) -0.0850(2)
Cu1A Cu 0.23701(3) 0.22365(2) -0.50329(3)
Cu1A_2 Cu 0.23701(3) 0.22365(2) 0.49671(3)
O2 O -0.1139(2) -0.04553(18) 0.1398(2)
C26 C -0.1575(4) -0.0138(3) 0.0480(4)
H22 H -0.1384 0.0349 0.0464
H23 H -0.2226 -0.0157 0.0439
H24 H -0.1413 -0.0389 -0.0090
O3 O -0.2413(2) -0.08518(16) 0.2488(2)
C27 C -0.2827(4) -0.1420(2) 0.1896(4)
H25 H -0.3329 -0.1245 0.1397
H26 H -0.3050 -0.1759 0.2332
H27 H -0.2387 -0.1644 0.1554
loop_
_geom_bond_atom_site_label_1
_geom_bond_atom_site_label_2
_geom_bond_site_symmetry_1
_geom_bond_site_symmetry_2
Cu1 O1 1_555 1_555
Fe1 N8 1_555 1_555
Fe2 N14 1_555 1_555
O1 C7 1_555 1_555
N1 C1 1_555 1_555
N2 Cu1 1_555 1_555
N3 Cu1 1_555 1_555
N4 C4 1_555 1_555
N5 C5 1_555 1_555
N6 C6 1_555 1_555
N7 N8 1_555 1_555
N8 C10 1_555 1_555
N9 N10 1_555 1_555
N10 Fe1 1_555 1_555
N11 N12 1_555 1_555
N12 Fe1 1_555 1_555
N13 N14 1_555 1_555
N14 C19 1_555 1_555
N15 N16 1_555 1_555
N16 Fe2 1_555 1_555
N17 N18 1_555 1_555
N18 Fe2 1_555 1_555
C1 Fe1 1_555 1_555
C2 Fe1 1_555 1_555
C3 Fe2 1_555 1_555
C4 Fe1 1_555 1_555
C5 Fe2 1_555 1_555
C6 Fe2 1_555 1_555
C7 H1 1_555 1_555
H2 C7 1_555 1_555
H3 C7 1_555 1_555
C8 N7 1_555 1_555
H4 C8 1_555 1_555
C9 C8 1_555 1_555
H5 C9 1_555 1_555
C10 C9 1_555 1_555
H6 C10 1_555 1_555
C11 N9 1_555 1_555
H7 C11 1_555 1_555
C12 C11 1_555 1_555
H8 C12 1_555 1_555
C13 N10 1_555 1_555
H9 C13 1_555 1_555
C14 N11 1_555 1_555
H10 C14 1_555 1_555
C15 C14 1_555 1_555
H11 C15 1_555 1_555
C16 N12 1_555 1_555
H12 C16 1_555 1_555
C17 N13 1_555 1_555
H13 C17 1_555 1_555
C18 C17 1_555 1_555
H14 C18 1_555 1_555
C19 C18 1_555 1_555
H15 C19 1_555 1_555
C20 N15 1_555 1_555
H16 C20 1_555 1_555
C21 C20 1_555 1_555
H17 C21 1_555 1_555
C22 N16 1_555 1_555
H18 C22 1_555 1_555
C23 N17 1_555 1_555
H19 C23 1_555 1_555
C24 C23 1_555 1_555
H20 C24 1_555 1_555
C25 N18 1_555 1_555
H21 C25 1_555 1_555
B1 N7 1_555 1_555
B2 N13 1_555 1_555
O2 C26 1_555 1_555
C26 H22 1_555 1_555
H23 C26 1_555 1_555
H24 C26 1_555 1_555
O3 C27 1_555 1_555
C27 H25 1_555 1_555
H26 C27 1_555 1_555
H27 C27 1_555 1_555
H28 B2 1_555 1_555
H29 B1 1_555 1_555
N4A Cu1 1_555 1_555
N5A Cu1 1_555 1_555
Cu1A N4 1_555 1_555
Cu1A_2 N5 1_555 1_555
N2 C2 1_555 1_555
N3 C3 1_555 1_555
N9 B1 1_555 1_555
N11 B1 1_555 1_555
N15 B2 1_555 1_555
N17 B2 1_555 1_555
C12 C13 1_555 1_555
C15 C16 1_555 1_555
C21 C22 1_555 1_555
C24 C25 1_555 1_555

#END
