
#######################################################################
#
#                 Cambridge Crystallographic Data Centre
#                                CCDC 
#
#######################################################################
#
# If this CIF has been generated from an entry in the Cambridge 
# Structural Database, then it will include bibliographic, chemical, 
# crystal, experimental, refinement or atomic coordinate data resulting 
# from the CCDC's data processing and validation procedures.
#
#######################################################################

data_NAGYEA
_symmetry_cell_setting           monoclinic
_symmetry_space_group_name_H-M   'C 2'
_symmetry_Int_Tables_number      5
_space_group_name_Hall           'C 2y'
loop_
_symmetry_equiv_pos_site_id
_symmetry_equiv_pos_as_xyz
1 x,y,z
2 -x,y,-z
3 1/2+x,1/2+y,z
4 1/2-x,1/2+y,-z
_cell_length_a                   33.739(16)
_cell_length_b                   9.704(3)
_cell_length_c                   8.672(2)
_cell_angle_alpha                90
_cell_angle_beta                 95.92(4)
_cell_angle_gamma                90
_cell_volume                     2824.1
loop_
_atom_site_label
_atom_site_type_symbol
_atom_site_fract_x
_atom_site_fract_y
_atom_site_fract_z
Ag1 Ag 0.5000 0.89042(2) 0.5000
O1 O 0.34474(5) 1.04053(17) -0.40395(17)
O2 O 0.27231(5) 1.26889(19) -0.57293(18)
N1 N 0.47605(6) 0.9525(2) 0.2599(2)
N2 N 0.05597(6) 1.2450(2) -0.5395(2)
C1 C 0.46486(7) 0.8518(2) 0.1590(3)
H1 H 0.4695 0.7610 0.1903
C2 C 0.44683(7) 0.8754(3) 0.0113(2)
H2 H 0.4394 0.8017 -0.0538
C3 C 0.43984(7) 1.0103(3) -0.0399(3)
C4 C 0.45255(8) 1.1145(3) 0.0634(3)
H3 H 0.4491 1.2064 0.0344
C5 C 0.47030(7) 1.0815(3) 0.2091(3)
H4 H 0.4787 1.1532 0.2758
C6 C 0.41918(7) 1.0367(3) -0.1947(3)
H5 H 0.4038 0.9663 -0.2429
C7 C 0.42119(8) 1.1556(3) -0.2697(3)
H6 H 0.4370 1.2235 -0.2189
C8 C 0.40142(7) 1.1928(3) -0.4235(3)
C9 C 0.41908(7) 1.2896(3) -0.5089(3)
H7 H 0.4425 1.3310 -0.4659
C10 C 0.40321(7) 1.3294(3) -0.6600(3)
C11 C 0.42183(8) 1.4297(2) -0.7457(3)
H8 H 0.4449 1.4727 -0.7018
C12 C 0.40639(9) 1.4643(3) -0.8924(3)
H9 H 0.4188 1.5310 -0.9477
C13 C 0.37191(7) 1.3991(5) -0.9588(2)
H10 H 0.3617 1.4220 -1.0592
C14 C 0.35285(8) 1.3019(3) -0.8791(3)
H11 H 0.3300 1.2596 -0.9260
C15 C 0.36761(7) 1.2652(3) -0.7258(3)
C16 C 0.34791(7) 1.1681(2) -0.6358(2)
C17 C 0.36446(7) 1.1358(2) -0.4877(3)
C18 C 0.32500(9) 1.1001(3) -0.2813(3)
H12 H 0.3123 1.0288 -0.2277
H13 H 0.3053 1.1649 -0.3240
H14 H 0.3442 1.1466 -0.2100
C19 C 0.26890(8) 1.3909(5) -0.6657(3)
H15 H 0.2679 1.4700 -0.5998
H16 H 0.2450 1.3866 -0.7357
H17 H 0.2915 1.3980 -0.7239
C20 C 0.30959(7) 1.1003(2) -0.6971(2)
C21 C 0.31046(7) 0.9756(3) -0.7864(2)
C22 C 0.34580(7) 0.9242(3) -0.8401(3)
H18 H 0.3694 0.9737 -0.8209
C23 C 0.34563(8) 0.8028(3) -0.9198(3)
H19 H 0.3691 0.7704 -0.9543
C24 C 0.31029(9) 0.7262(3) -0.9502(3)
H20 H 0.3107 0.6422 -1.0016
C25 C 0.27536(8) 0.7748(3) -0.9045(3)
H21 H 0.2520 0.7247 -0.9272
C26 C 0.27440(6) 0.9015(4) -0.8225(2)
C27 C 0.23864(8) 0.9539(3) -0.7753(3)
H22 H 0.2152 0.9044 -0.7988
C28 C 0.23726(7) 1.0757(3) -0.6957(3)
C29 C 0.27365(7) 1.1482(2) -0.6585(2)
C30 C 0.20004(7) 1.1321(3) -0.6477(3)
H23 H 0.2007 1.2227 -0.6125
C31 C 0.16542(8) 1.0658(3) -0.6499(3)
H24 H 0.1649 0.9736 -0.6793
C32 C 0.09156(8) 1.2891(3) -0.4728(3)
H25 H 0.0919 1.3608 -0.4015
C33 C 0.12727(8) 1.2347(3) -0.5040(3)
H26 H 0.1510 1.2696 -0.4548
C34 C 0.12803(8) 1.1267(3) -0.6095(3)
C35 C 0.09155(8) 1.0810(3) -0.6766(3)
H27 H 0.0904 1.0085 -0.7470
C36 C 0.05666(8) 1.1415(3) -0.6405(3)
H28 H 0.0326 1.1087 -0.6886
O1A O 0.65526(5) 1.04053(17) 1.40395(17)
O2A O 0.72769(5) 1.26889(19) 1.57293(18)
N1A N 0.52395(6) 0.9525(2) 0.7401(2)
N2A N 0.94403(6) 1.2450(2) 1.5395(2)
C1A C 0.53514(7) 0.8518(2) 0.8410(3)
H1A H 0.5305 0.7610 0.8097
C2A C 0.55317(7) 0.8754(3) 0.9887(2)
H2A H 0.5606 0.8017 1.0538
C3A C 0.56016(7) 1.0103(3) 1.0399(3)
C4A C 0.54745(8) 1.1145(3) 0.9366(3)
H3A H 0.5509 1.2064 0.9656
C5A C 0.52970(7) 1.0815(3) 0.7909(3)
H4A H 0.5213 1.1532 0.7242
C6A C 0.58082(7) 1.0367(3) 1.1947(3)
H5A H 0.5962 0.9663 1.2429
C7A C 0.57881(8) 1.1556(3) 1.2697(3)
H6A H 0.5630 1.2235 1.2189
C8A C 0.59858(7) 1.1928(3) 1.4235(3)
C9A C 0.58092(7) 1.2896(3) 1.5089(3)
H7A H 0.5575 1.3310 1.4659
C10A C 0.59679(7) 1.3294(3) 1.6600(3)
C11A C 0.57817(8) 1.4297(2) 1.7457(3)
H8A H 0.5551 1.4727 1.7018
C12A C 0.59361(9) 1.4643(3) 1.8924(3)
H9A H 0.5812 1.5310 1.9477
C13A C 0.62809(7) 1.3991(5) 1.9588(2)
H10A H 0.6383 1.4220 2.0592
C14A C 0.64715(8) 1.3019(3) 1.8791(3)
H11A H 0.6700 1.2596 1.9260
C15A C 0.63239(7) 1.2652(3) 1.7258(3)
C16A C 0.65209(7) 1.1681(2) 1.6358(2)
C17A C 0.63554(7) 1.1358(2) 1.4877(3)
C18A C 0.67500(9) 1.1001(3) 1.2813(3)
H12A H 0.6877 1.0288 1.2277
H13A H 0.6947 1.1649 1.3240
H14A H 0.6558 1.1466 1.2100
C19A C 0.73110(8) 1.3909(5) 1.6657(3)
H15A H 0.7321 1.4700 1.5998
H16A H 0.7550 1.3866 1.7357
H17A H 0.7085 1.3980 1.7239
C20A C 0.69041(7) 1.1003(2) 1.6971(2)
C21A C 0.68954(7) 0.9756(3) 1.7864(2)
C22A C 0.65420(7) 0.9242(3) 1.8401(3)
H18A H 0.6306 0.9737 1.8209
C23A C 0.65437(8) 0.8028(3) 1.9198(3)
H19A H 0.6309 0.7704 1.9543
C24A C 0.68971(9) 0.7262(3) 1.9502(3)
H20A H 0.6893 0.6422 2.0016
C25A C 0.72464(8) 0.7748(3) 1.9045(3)
H21A H 0.7480 0.7247 1.9272
C26A C 0.72560(6) 0.9015(4) 1.8225(2)
C27A C 0.76136(8) 0.9539(3) 1.7753(3)
H22A H 0.7848 0.9044 1.7988
C28A C 0.76274(7) 1.0757(3) 1.6957(3)
C29A C 0.72635(7) 1.1482(2) 1.6585(2)
C30A C 0.79996(7) 1.1321(3) 1.6477(3)
H23A H 0.7993 1.2227 1.6125
C31A C 0.83458(8) 1.0658(3) 1.6499(3)
H24A H 0.8351 0.9736 1.6793
C32A C 0.90844(8) 1.2891(3) 1.4728(3)
H25A H 0.9081 1.3608 1.4015
C33A C 0.87273(8) 1.2347(3) 1.5040(3)
H26A H 0.8490 1.2696 1.4548
C34A C 0.87197(8) 1.1267(3) 1.6095(3)
C35A C 0.90845(8) 1.0810(3) 1.6766(3)
H27A H 0.9096 1.0085 1.7470
C36A C 0.94334(8) 1.1415(3) 1.6405(3)
H28A H 0.9674 1.1087 1.6886
N2B N 0.55597(6) 0.7450(2) 0.4605(2)
N2C N 0.44403(6) 0.7450(2) 0.5395(2)
Ag1B Ag 0.0000 1.39042(2) -0.5000
Ag1B_2 Ag 1.0000 1.39042(2) 1.5000
O3 O 0.98610(5) 0.8980(3) 0.88127(18)
O4 O 1.0000 1.0888(3) 1.0000
N3 N 1.0000 0.9616(3) 1.0000
O3A O 1.01390(5) 0.8980(3) 1.11873(18)
loop_
_geom_bond_atom_site_label_1
_geom_bond_atom_site_label_2
_geom_bond_site_symmetry_1
_geom_bond_site_symmetry_2
Ag1 N1 1_555 1_555
O1 C17 1_555 1_555
O2 C19 1_555 1_555
O3 N3 1_555 1_555
O4 N3 1_555 1_555
N1 C1 1_555 1_555
N2 C32 1_555 1_555
N3 O3A 1_555 1_555
C1 H1 1_555 1_555
C2 C1 1_555 1_555
H2 C2 1_555 1_555
C3 C2 1_555 1_555
C4 C3 1_555 1_555
H3 C4 1_555 1_555
C5 N1 1_555 1_555
H4 C5 1_555 1_555
C6 C3 1_555 1_555
H5 C6 1_555 1_555
C7 C6 1_555 1_555
H6 C7 1_555 1_555
C8 C7 1_555 1_555
C9 C8 1_555 1_555
H7 C9 1_555 1_555
C10 C9 1_555 1_555
C11 C10 1_555 1_555
H8 C11 1_555 1_555
C12 C11 1_555 1_555
H9 C12 1_555 1_555
C13 C12 1_555 1_555
H10 C13 1_555 1_555
C14 C13 1_555 1_555
H11 C14 1_555 1_555
C15 C10 1_555 1_555
C16 C15 1_555 1_555
C17 C8 1_555 1_555
C18 O1 1_555 1_555
H12 C18 1_555 1_555
H13 C18 1_555 1_555
H14 C18 1_555 1_555
C19 H15 1_555 1_555
H16 C19 1_555 1_555
H17 C19 1_555 1_555
C20 C16 1_555 1_555
C21 C20 1_555 1_555
C22 C21 1_555 1_555
H18 C22 1_555 1_555
C23 C22 1_555 1_555
H19 C23 1_555 1_555
C24 C23 1_555 1_555
H20 C24 1_555 1_555
C25 C24 1_555 1_555
H21 C25 1_555 1_555
C26 C21 1_555 1_555
C27 C26 1_555 1_555
H22 C27 1_555 1_555
C28 C27 1_555 1_555
C29 O2 1_555 1_555
C30 C28 1_555 1_555
H23 C30 1_555 1_555
C31 C30 1_555 1_555
H24 C31 1_555 1_555
C32 H25 1_555 1_555
C33 C32 1_555 1_555
H26 C33 1_555 1_555
C34 C31 1_555 1_555
C35 C34 1_555 1_555
H27 C35 1_555 1_555
C36 N2 1_555 1_555
H28 C36 1_555 1_555
O1A C17A 1_555 1_555
O2A C19A 1_555 1_555
N1A Ag1 1_555 1_555
N2A C32A 1_555 1_555
C1A N1A 1_555 1_555
H1A C1A 1_555 1_555
C2A C1A 1_555 1_555
H2A C2A 1_555 1_555
C3A C2A 1_555 1_555
C4A C3A 1_555 1_555
H3A C4A 1_555 1_555
C5A N1A 1_555 1_555
H4A C5A 1_555 1_555
C6A C3A 1_555 1_555
H5A C6A 1_555 1_555
C7A C6A 1_555 1_555
H6A C7A 1_555 1_555
C8A C7A 1_555 1_555
C9A C8A 1_555 1_555
H7A C9A 1_555 1_555
C10A C9A 1_555 1_555
C11A C10A 1_555 1_555
H8A C11A 1_555 1_555
C12A C11A 1_555 1_555
H9A C12A 1_555 1_555
C13A C12A 1_555 1_555
H10A C13A 1_555 1_555
C14A C13A 1_555 1_555
H11A C14A 1_555 1_555
C15A C10A 1_555 1_555
C16A C15A 1_555 1_555
C17A C8A 1_555 1_555
C18A O1A 1_555 1_555
H12A C18A 1_555 1_555
H13A C18A 1_555 1_555
H14A C18A 1_555 1_555
C19A H15A 1_555 1_555
H16A C19A 1_555 1_555
H17A C19A 1_555 1_555
C20A C16A 1_555 1_555
C21A C20A 1_555 1_555
C22A C21A 1_555 1_555
H18A C22A 1_555 1_555
C23A C22A 1_555 1_555
H19A C23A 1_555 1_555
C24A C23A 1_555 1_555
H20A C24A 1_555 1_555
C25A C24A 1_555 1_555
H21A C25A 1_555 1_555
C26A C21A 1_555 1_555
C27A C26A 1_555 1_555
H22A C27A 1_555 1_555
C28A C27A 1_555 1_555
C29A O2A 1_555 1_555
C30A C28A 1_555 1_555
H23A C30A 1_555 1_555
C31A C30A 1_555 1_555
H24A C31A 1_555 1_555
C32A H25A 1_555 1_555
C33A C32A 1_555 1_555
H26A C33A 1_555 1_555
C34A C31A 1_555 1_555
C35A C34A 1_555 1_555
H27A C35A 1_555 1_555
C36A N2A 1_555 1_555
H28A C36A 1_555 1_555
N2B Ag1 1_555 1_555
N2C Ag1 1_555 1_555
Ag1B N2 1_555 1_555
Ag1B_2 N2A 1_555 1_555
C4 C5 1_555 1_555
C14 C15 1_555 1_555
C16 C17 1_555 1_555
C20 C29 1_555 1_555
C25 C26 1_555 1_555
C28 C29 1_555 1_555
C33 C34 1_555 1_555
C35 C36 1_555 1_555
C4A C5A 1_555 1_555
C14A C15A 1_555 1_555
C16A C17A 1_555 1_555
C20A C29A 1_555 1_555
C25A C26A 1_555 1_555
C28A C29A 1_555 1_555
C33A C34A 1_555 1_555
C35A C36A 1_555 1_555

#END
