
#######################################################################
#
#                 Cambridge Crystallographic Data Centre
#                                CCDC 
#
#######################################################################
#
# If this CIF has been generated from an entry in the Cambridge 
# Structural Database, then it will include bibliographic, chemical, 
# crystal, experimental, refinement or atomic coordinate data resulting 
# from the CCDC's data processing and validation procedures.
#
#######################################################################

data_NAHFAD
_symmetry_cell_setting           triclinic
_symmetry_space_group_name_H-M   'P -1'
_symmetry_Int_Tables_number      2
_space_group_name_Hall           '-P 1'
loop_
_symmetry_equiv_pos_site_id
_symmetry_equiv_pos_as_xyz
1 x,y,z
2 -x,-y,-z
_cell_length_a                   8.01470(10)
_cell_length_b                   15.18070(10)
_cell_length_c                   15.93250(10)
_cell_angle_alpha                108.6960(10)
_cell_angle_beta                 98.9060(10)
_cell_angle_gamma                93.0800(10)
_cell_volume                     1802.96
loop_
_atom_site_label
_atom_site_type_symbol
_atom_site_fract_x
_atom_site_fract_y
_atom_site_fract_z
Ag1 Ag 0.1277(1) -0.0241(1) -0.4233(1)
S1 S -0.0287(2) -0.2508(1) -0.5662(1)
F1 F -0.1817(6) -0.2023(3) -0.6997(3)
F2 F -0.1775(6) -0.3499(3) -0.7304(3)
F3 F -0.3463(5) -0.2793(3) -0.6465(3)
O1 O -0.0677(6) -0.1645(3) -0.5064(3)
O2 O -0.0599(6) -0.3294(3) -0.5392(3)
O3 O 0.1286(5) -0.2447(3) -0.5972(3)
O4 O 0.5621(5) 0.2484(2) -0.5892(2)
O5 O 0.5469(5) 0.4203(3) -0.6233(3)
O6 O 0.3528(5) -0.2483(2) -0.8014(2)
O7 O 0.1877(6) -0.3905(3) -0.9631(3)
O8 O 0.9985(4) -0.1914(2) -1.2252(2)
O9 O 0.9795(5) -0.3947(3) -1.2669(3)
O10 O 1.1696(6) 0.1954(3) -1.0425(4)
O11 O 1.4332(7) 0.2890(4) -0.8994(4)
N1 N 0.2732(6) -0.0108(3) -0.5212(3)
N2 N 1.0376(6) 0.0017(3) -1.3003(3)
C1 C 0.3387(6) -0.0060(3) -0.5788(3)
C2 C 0.4211(6) -0.0019(3) -0.6502(3)
C3 C 0.4235(6) -0.0846(3) -0.7227(3)
C4 C 0.4962(6) -0.0800(4) -0.7940(3)
C5 C 0.5684(6) 0.0059(3) -0.7942(3)
C6 C 0.5697(6) 0.0868(3) -0.7206(3)
C7 C 0.4967(6) 0.0849(3) -0.6485(3)
C8 C 0.6375(6) 0.0108(3) -0.8692(3)
C9 C 0.6964(6) 0.0158(3) -0.9331(3)
C10 C 0.7678(6) 0.0151(3) -1.0095(3)
C11 C 0.7622(6) -0.0696(4) -1.0805(3)
C12 C 0.8326(6) -0.0744(3) -1.1541(3)
C13 C 0.9110(6) 0.0101(4) -1.1586(3)
C14 C 0.9179(6) 0.0956(3) -1.0892(3)
C15 C 0.8465(6) 0.0970(4) -1.0160(3)
C16 C 0.3402(7) -0.1762(3) -0.7217(3)
C17 C 0.2754(8) -0.3359(4) -0.8040(4)
C18 C 0.2908(8) -0.4087(4) -0.8906(4)
C19 C 0.1874(11) -0.4595(5) -1.0481(5)
C20 C 0.4935(6) 0.1715(3) -0.5702(3)
C21 C 0.5572(7) 0.3358(4) -0.5211(4)
C22 C 0.6440(7) 0.4120(4) -0.5462(4)
C23 C 0.6312(9) 0.4855(4) -0.6547(5)
C24 C 0.8319(6) -0.1658(4) -1.2289(4)
C25 C 1.0213(7) -0.2589(4) -1.3076(4)
C26 C 0.9217(7) -0.3530(4) -1.3315(4)
C27 C 0.8900(10) -0.4858(5) -1.2896(6)
C28 C 1.0083(7) 0.1842(4) -1.0914(4)
C29 C 1.2687(10) 0.2784(6) -1.0348(6)
C30 C 1.4503(11) 0.2735(7) -0.9817(7)
C31 C 1.5848(8) 0.2797(5) -0.8438(4)
C32 C 0.9835(6) 0.0059(4) -1.2352(3)
C33 C -0.1902(8) -0.2709(4) -0.6653(5)
H1 H 0.4975 -0.1353 -0.8433
H2 H 0.6224 0.1445 -0.7204
H3 H 0.7075 -0.1251 -1.0770
H4 H 0.8504 0.1547 -0.9686
H5 H 0.3969 -0.1909 -0.6688
H6 H 0.2191 -0.1708 -0.7171
H7 H 0.1541 -0.3317 -0.7995
H8 H 0.3322 -0.3530 -0.7525
H9 H 0.4108 -0.4074 -0.8986
H10 H 0.2534 -0.4715 -0.8895
H11 H 0.1151 -0.4434 -1.0954
H12 H 0.1432 -0.5207 -1.0474
H13 H 0.3035 -0.4620 -1.0602
H14 H 0.3752 0.1793 -0.5607
H15 H 0.5612 0.1666 -0.5147
H16 H 0.6162 0.3350 -0.4620
H17 H 0.4379 0.3472 -0.5165
H18 H 0.6570 0.4721 -0.4959
H19 H 0.7586 0.3965 -0.5578
H20 H 0.5598 0.4898 -0.7088
H21 H 0.7398 0.4643 -0.6693
H22 H 0.6518 0.5472 -0.6077
H23 H 0.7549 -0.2150 -1.2217
H24 H 0.7906 -0.1586 -1.2880
H25 H 1.1435 -0.2675 -1.3037
H26 H 0.9888 -0.2336 -1.3572
H27 H 0.7994 -0.3457 -1.3332
H28 H 0.9364 -0.3934 -1.3919
H29 H 0.9314 -0.5139 -1.2440
H30 H 0.9092 -0.5253 -1.3486
H31 H 0.7682 -0.4805 -1.2919
H32 H 1.0132 0.1797 -1.1543
H33 H 0.9471 0.2383 -1.0647
H34 H 1.2180 0.3341 -1.0012
H35 H 1.2768 0.2817 -1.0951
H36 H 1.4886 0.2110 -1.0070
H37 H 1.5347 0.3214 -0.9857
H38 H 1.5654 0.2924 -0.7820
H39 H 1.6773 0.3244 -0.8442
H40 H 1.6156 0.2159 -0.8671
N2_2 N 0.0376(6) 0.0017(3) -0.3003(3)
Ag1_2 Ag 1.1277(1) -0.0241(1) -1.4233(1)
loop_
_geom_bond_atom_site_label_1
_geom_bond_atom_site_label_2
_geom_bond_site_symmetry_1
_geom_bond_site_symmetry_2
Ag1 O1 1_555 1_555
S1 O1 1_555 1_555
F1 C33 1_555 1_555
F2 C33 1_555 1_555
F3 C33 1_555 1_555
O2 S1 1_555 1_555
O3 S1 1_555 1_555
O4 C20 1_555 1_555
O5 C22 1_555 1_555
O6 C16 1_555 1_555
O7 C18 1_555 1_555
O8 C24 1_555 1_555
O9 C26 1_555 1_555
O10 C28 1_555 1_555
O11 C30 1_555 1_555
N1 Ag1 1_555 1_555
N2 C32 1_555 1_555
C1 N1 1_555 1_555
C2 C1 1_555 1_555
C3 C2 1_555 1_555
C4 C3 1_555 1_555
C5 C4 1_555 1_555
C6 C5 1_555 1_555
C7 C2 1_555 1_555
C8 C5 1_555 1_555
C9 C8 1_555 1_555
C10 C9 1_555 1_555
C11 C10 1_555 1_555
C12 C11 1_555 1_555
C13 C12 1_555 1_555
C14 C13 1_555 1_555
C15 C10 1_555 1_555
C16 C3 1_555 1_555
C17 O6 1_555 1_555
C18 C17 1_555 1_555
C19 O7 1_555 1_555
C20 C7 1_555 1_555
C21 O4 1_555 1_555
C22 C21 1_555 1_555
C23 O5 1_555 1_555
C24 C12 1_555 1_555
C25 O8 1_555 1_555
C26 C25 1_555 1_555
C27 O9 1_555 1_555
C28 C14 1_555 1_555
C29 O10 1_555 1_555
C30 C29 1_555 1_555
C31 O11 1_555 1_555
C32 C13 1_555 1_555
C33 S1 1_555 1_555
H1 C4 1_555 1_555
H2 C6 1_555 1_555
H3 C11 1_555 1_555
H4 C15 1_555 1_555
H5 C16 1_555 1_555
H6 C16 1_555 1_555
H7 C17 1_555 1_555
H8 C17 1_555 1_555
H9 C18 1_555 1_555
H10 C18 1_555 1_555
H11 C19 1_555 1_555
H12 C19 1_555 1_555
H13 C19 1_555 1_555
H14 C20 1_555 1_555
H15 C20 1_555 1_555
H16 C21 1_555 1_555
H17 C21 1_555 1_555
H18 C22 1_555 1_555
H19 C22 1_555 1_555
H20 C23 1_555 1_555
H21 C23 1_555 1_555
H22 C23 1_555 1_555
H23 C24 1_555 1_555
H24 C24 1_555 1_555
H25 C25 1_555 1_555
H26 C25 1_555 1_555
H27 C26 1_555 1_555
H28 C26 1_555 1_555
H29 C27 1_555 1_555
H30 C27 1_555 1_555
H31 C27 1_555 1_555
H32 C28 1_555 1_555
H33 C28 1_555 1_555
H34 C29 1_555 1_555
H35 C29 1_555 1_555
H36 C30 1_555 1_555
H37 C30 1_555 1_555
H38 C31 1_555 1_555
H39 C31 1_555 1_555
H40 C31 1_555 1_555
N2_2 Ag1 1_555 1_555
Ag1_2 N2 1_555 1_555
C6 C7 1_555 1_555
C14 C15 1_555 1_555

#END
