
#######################################################################
#
#                 Cambridge Crystallographic Data Centre
#                                CCDC 
#
#######################################################################
#
# If this CIF has been generated from an entry in the Cambridge 
# Structural Database, then it will include bibliographic, chemical, 
# crystal, experimental, refinement or atomic coordinate data resulting 
# from the CCDC's data processing and validation procedures.
#
#######################################################################

data_NAHMAL13
_symmetry_cell_setting           triclinic
_symmetry_space_group_name_H-M   'P -1'
_symmetry_Int_Tables_number      2
_space_group_name_Hall           '-P 1'
loop_
_symmetry_equiv_pos_site_id
_symmetry_equiv_pos_as_xyz
1 x,y,z
2 -x,-y,-z
_cell_length_a                   5.9540(10)
_cell_length_b                   6.3980(10)
_cell_length_c                   11.250(2)
_cell_angle_alpha                104.18(3)
_cell_angle_beta                 91.56(3)
_cell_angle_gamma                100.22(3)
_cell_volume                     407.78
loop_
_atom_site_label
_atom_site_type_symbol
_atom_site_fract_x
_atom_site_fract_y
_atom_site_fract_z
Na1 Na 0.25378(15) 0.03711(13) 0.42652(7)
O1 O 0.3516(3) -0.2467(3) 0.51486(15)
H1 H 0.331(5) -0.360(5) 0.463(3)
H2 H 0.314(5) -0.269(5) 0.579(3)
O2 O 0.2254(3) 0.3383(3) 0.33976(15)
H3 H 0.108(7) 0.346(6) 0.313(3)
H4 H 0.311(8) 0.325(7) 0.281(4)
O3 O 0.1291(3) 0.1718(3) 0.62978(15)
H5 H 0.238(7) 0.144(6) 0.667(4)
H6 H 0.134(6) 0.304(6) 0.657(4)
O4 O 0.4443(3) -0.1402(3) 0.25885(14)
O5 O 0.2088(3) -0.3591(3) -0.25706(14)
O6 O 0.5200(3) -0.2972(3) -0.13217(14)
O7 O 0.6215(3) -0.2145(3) 0.08885(14)
H7 H 0.595(7) -0.242(6) -0.003(4)
C1 C 0.3056(4) -0.3109(3) -0.15142(17)
C2 C 0.2130(4) -0.2173(4) 0.07569(18)
H8 H 0.083(6) -0.203(6) 0.131(3)
C3 C 0.1592(4) -0.2660(4) -0.04531(19)
H9 H 0.009(6) -0.281(5) -0.073(3)
C4 C 0.4370(4) -0.1894(3) 0.14613(17)
Na1A Na 0.74622(15) -0.03711(13) 0.57348(7)
Na1A_2 Na -0.25378(15) -0.03711(13) 0.57348(7)
O1A O 0.6484(3) 0.2467(3) 0.48514(15)
H1A H 0.669(5) 0.360(5) 0.537(3)
H2A H 0.686(5) 0.269(5) 0.421(3)
O3A O -0.1291(3) -0.1718(3) 0.37022(15)
H5A H -0.238(7) -0.144(6) 0.333(4)
H6A H -0.134(6) -0.304(6) 0.343(4)
loop_
_geom_bond_atom_site_label_1
_geom_bond_atom_site_label_2
_geom_bond_site_symmetry_1
_geom_bond_site_symmetry_2
Na1 O1 1_555 1_555
O1 H1 1_555 1_555
H2 O1 1_555 1_555
O2 Na1 1_555 1_555
H3 O2 1_555 1_555
H4 O2 1_555 1_555
O3 Na1 1_555 1_555
H5 O3 1_555 1_555
H6 O3 1_555 1_555
O4 Na1 1_555 1_555
O5 C1 1_555 1_555
O6 C1 1_555 1_555
O7 H7 1_555 1_555
C1 C3 1_555 1_555
C2 H8 1_555 1_555
C3 C2 1_555 1_555
H9 C3 1_555 1_555
C4 O4 1_555 1_555
Na1A O1 1_555 1_555
Na1A_2 O3 1_555 1_555
O1A Na1 1_555 1_555
H1A O1A 1_555 1_555
H2A O1A 1_555 1_555
O3A Na1 1_555 1_555
H5A O3A 1_555 1_555
H6A O3A 1_555 1_555
O7 C4 1_555 1_555
C2 C4 1_555 1_555
Na1A O1A 1_555 1_555
Na1A_2 O3A 1_555 1_555

#END
