
#######################################################################
#
#                 Cambridge Crystallographic Data Centre
#                                CCDC 
#
#######################################################################
#
# If this CIF has been generated from an entry in the Cambridge 
# Structural Database, then it will include bibliographic, chemical, 
# crystal, experimental, refinement or atomic coordinate data resulting 
# from the CCDC's data processing and validation procedures.
#
#######################################################################

data_NAHXEZ
_symmetry_cell_setting           triclinic
_symmetry_space_group_name_H-M   'P -1'
_symmetry_Int_Tables_number      2
_space_group_name_Hall           '-P 1'
loop_
_symmetry_equiv_pos_site_id
_symmetry_equiv_pos_as_xyz
1 x,y,z
2 -x,-y,-z
_cell_length_a                   11.0744(10)
_cell_length_b                   11.2300(6)
_cell_length_c                   12.1519(9)
_cell_angle_alpha                73.207(5)
_cell_angle_beta                 63.957(6)
_cell_angle_gamma                64.960(6)
_cell_volume                     1220.31
loop_
_atom_site_label
_atom_site_type_symbol
_atom_site_fract_x
_atom_site_fract_y
_atom_site_fract_z
Bi1 Bi 0.0000 0.0000 0.0000
K1 K 0.0000 0.5000 -0.5000
K2 K -0.07614(11) 0.20383(9) -0.46795(9)
S1 S 0.2166(2) 0.0858(2) -0.19710(12)
S2 S -0.2374(2) 0.2138(2) -0.03332(14)
S3 S -0.0208(2) 0.1865(2) 0.12689(13)
O1 O 0.0950(4) 0.3283(3) -0.6634(3)
O2 O -0.2477(4) 0.4557(3) -0.4655(3)
N1 N 0.0747(6) 0.2543(4) -0.3558(4)
N2 N -0.2699(6) 0.1581(5) -0.2275(5)
N3 N -0.0715(6) 0.0634(4) 0.3701(4)
N4 N 0.2951(5) 0.1842(4) -0.7801(4)
N5 N 0.1751(5) 0.3841(4) -0.8687(4)
N6 N -0.4263(5) 0.6118(4) -0.3481(4)
N7 N -0.3989(5) 0.6216(4) -0.5497(4)
C1 C 0.1309(5) 0.1855(4) -0.2894(4)
C2 C -0.2519(6) 0.1752(5) -0.1471(5)
C3 C -0.0503(5) 0.1117(5) 0.2692(5)
C4 C 0.1840(5) 0.2996(5) -0.7669(4)
C5 C 0.3095(7) 0.0924(6) -0.6719(7)
H1 H 0.4092(7) 0.0484(30) -0.6839(16)
H2 H 0.2671(39) 0.0280(25) -0.6581(23)
H3 H 0.2620(38) 0.1398(8) -0.6015(10)
C6 C 0.3903(7) 0.1401(7) -0.9003(7)
H4 H 0.4885(7) 0.1133(7) -0.9069(7)
H5 H 0.3761(7) 0.0628(7) -0.9058(7)
C7 C 0.3703(11) 0.2354(17) -0.9993(8)
H6 H 0.4620(11) 0.2472(17) -1.0483(8)
H7 H 0.3530(11) 0.1951(17) -1.0491(8)
C8 C 0.2757(11) 0.3530(9) -0.9903(6)
H8 H 0.2219(11) 0.3669(9) -1.0407(6)
H9 H 0.3258(11) 0.4160(9) -1.0257(6)
C9 C 0.0574(9) 0.5081(6) -0.8590(6)
H10 H -0.0107(24) 0.5027(16) -0.8844(40)
H11 H 0.0926(10) 0.5779(9) -0.9111(32)
H12 H 0.0120(32) 0.5264(23) -0.7749(10)
C10 C -0.3526(5) 0.5581(4) -0.4561(4)
C11 C -0.3956(7) 0.5358(6) -0.2394(5)
H13 H -0.4576(29) 0.4846(30) -0.1952(20)
H14 H -0.4111(41) 0.5948(7) -0.1872(18)
H15 H -0.2977(14) 0.4773(28) -0.2635(6)
C12 C -0.5481(7) 0.7341(6) -0.3306(6)
H16 H -0.5486(7) 0.7810(6) -0.2746(6)
H17 H -0.6359(7) 0.7141(6) -0.2938(6)
C13 C -0.5415(7) 0.8186(6) -0.4498(6)
H18 H -0.6291(7) 0.8949(6) -0.4385(6)
H19 H -0.4620(7) 0.8503(6) -0.4803(6)
C14 C -0.5228(7) 0.7423(6) -0.5406(6)
H20 H -0.6078(7) 0.7201(6) -0.5152(6)
H21 H -0.5099(7) 0.7957(6) -0.6208(6)
C15 C -0.3301(8) 0.5667(7) -0.6638(5)
H22 H -0.3087(42) 0.6340(13) -0.7312(6)
H23 H -0.3925(19) 0.5344(38) -0.6726(19)
H24 H -0.2429(24) 0.4951(28) -0.6640(17)
S1A S -0.2166(2) -0.0858(2) 0.19710(12)
N1A N -0.0747(6) -0.2543(4) 0.3558(4)
C1A C -0.1309(5) -0.1855(4) 0.2894(4)
S2A S 0.2374(2) -0.2138(2) 0.03332(14)
N2A N 0.2699(6) -0.1581(5) 0.2275(5)
C2A C 0.2519(6) -0.1752(5) 0.1471(5)
S3A S 0.0208(2) -0.1865(2) -0.12689(13)
N3A N 0.0715(6) -0.0634(4) -0.3701(4)
C3A C 0.0503(5) -0.1117(5) -0.2692(5)
K2A K 0.07614(11) -0.20383(9) 0.46795(9)
O1A O -0.0950(4) 0.6717(3) -0.3366(3)
N4A N -0.2951(5) 0.8158(4) -0.2199(4)
N5A N -0.1751(5) 0.6159(4) -0.1313(4)
C4A C -0.1840(5) 0.7004(5) -0.2331(4)
C5A C -0.3095(7) 0.9076(6) -0.3281(7)
H1A H -0.4092(7) 0.9516(30) -0.3161(16)
H2A H -0.2671(39) 0.9720(25) -0.3419(23)
H3A H -0.2620(38) 0.8602(8) -0.3985(10)
C6A C -0.3903(7) 0.8599(7) -0.0997(7)
H4A H -0.4885(7) 0.8867(7) -0.0931(7)
H5A H -0.3761(7) 0.9372(7) -0.0942(7)
C7A C -0.3703(11) 0.7646(17) -0.0007(8)
H6A H -0.4620(11) 0.7528(17) 0.0483(8)
H7A H -0.3530(11) 0.8049(17) 0.0491(8)
C8A C -0.2757(11) 0.6470(9) -0.0097(6)
H8A H -0.2219(11) 0.6331(9) 0.0407(6)
H9A H -0.3258(11) 0.5840(9) 0.0257(6)
C9A C -0.0574(9) 0.4919(6) -0.1410(6)
H10A H 0.0107(24) 0.4973(16) -0.1156(40)
H11A H -0.0926(10) 0.4221(9) -0.0889(32)
H12A H -0.0120(32) 0.4736(23) -0.2251(10)
O2A O 0.2477(4) 0.5443(3) -0.5345(3)
N6A N 0.4263(5) 0.3882(4) -0.6519(4)
N7A N 0.3989(5) 0.3784(4) -0.4503(4)
C10A C 0.3526(5) 0.4419(4) -0.5439(4)
C11A C 0.3956(7) 0.4642(6) -0.7606(5)
H13A H 0.4576(29) 0.5154(30) -0.8048(20)
H14A H 0.4111(41) 0.4052(7) -0.8128(18)
H15A H 0.2977(14) 0.5227(28) -0.7365(6)
C12A C 0.5481(7) 0.2659(6) -0.6694(6)
H16A H 0.5486(7) 0.2190(6) -0.7254(6)
H17A H 0.6359(7) 0.2859(6) -0.7062(6)
C13A C 0.5415(7) 0.1814(6) -0.5502(6)
H18A H 0.6291(7) 0.1051(6) -0.5615(6)
H19A H 0.4620(7) 0.1497(6) -0.5197(6)
C14A C 0.5228(7) 0.2577(6) -0.4594(6)
H20A H 0.6078(7) 0.2799(6) -0.4848(6)
H21A H 0.5099(7) 0.2043(6) -0.3792(6)
C15A C 0.3301(8) 0.4333(7) -0.3362(5)
H22A H 0.3087(42) 0.3660(13) -0.2688(6)
H23A H 0.3925(19) 0.4656(38) -0.3274(19)
H24A H 0.2429(24) 0.5049(28) -0.3360(17)
N1A_2 N -0.0747(6) 0.7457(4) -0.6442(4)
N3_2 N -0.0715(6) 0.0634(4) -0.6299(4)
K2_2 K -0.07614(11) 0.20383(9) 0.53205(9)
K1_2 K 0.0000 -0.5000 0.5000
K2A_2 K 0.07614(11) -0.20383(9) -0.53205(9)
O1A_2 O -0.0950(4) -0.3283(3) 0.6634(3)
O2A_2 O 0.2477(4) -0.4557(3) 0.4655(3)
N3A_2 N 0.0715(6) -0.0634(4) 0.6299(4)
K2A_3 K 0.07614(11) 0.79617(9) -0.53205(9)
loop_
_geom_bond_atom_site_label_1
_geom_bond_atom_site_label_2
_geom_bond_site_symmetry_1
_geom_bond_site_symmetry_2
Bi1 S1 1_555 1_555
K1 O1 1_555 1_555
K2 O1 1_555 1_555
S1 C1 1_555 1_555
S2 Bi1 1_555 1_555
S3 Bi1 1_555 1_555
O1 C4 1_555 1_555
O2 K1 1_555 1_555
N1 K1 1_555 1_555
N2 K2 1_555 1_555
N3 C3 1_555 1_555
N4 C4 1_555 1_555
N5 C4 1_555 1_555
N6 C10 1_555 1_555
N7 C10 1_555 1_555
C1 N1 1_555 1_555
C2 S2 1_555 1_555
C3 S3 1_555 1_555
C5 N4 1_555 1_555
H1 C5 1_555 1_555
H2 C5 1_555 1_555
H3 C5 1_555 1_555
C6 N4 1_555 1_555
H4 C6 1_555 1_555
H5 C6 1_555 1_555
C7 C6 1_555 1_555
H6 C7 1_555 1_555
H7 C7 1_555 1_555
C8 N5 1_555 1_555
H8 C8 1_555 1_555
H9 C8 1_555 1_555
C9 N5 1_555 1_555
H10 C9 1_555 1_555
H11 C9 1_555 1_555
H12 C9 1_555 1_555
C10 O2 1_555 1_555
C11 N6 1_555 1_555
H13 C11 1_555 1_555
H14 C11 1_555 1_555
H15 C11 1_555 1_555
C12 N6 1_555 1_555
H16 C12 1_555 1_555
H17 C12 1_555 1_555
C13 C12 1_555 1_555
H18 C13 1_555 1_555
H19 C13 1_555 1_555
C14 N7 1_555 1_555
H20 C14 1_555 1_555
H21 C14 1_555 1_555
C15 N7 1_555 1_555
H22 C15 1_555 1_555
H23 C15 1_555 1_555
H24 C15 1_555 1_555
S1A Bi1 1_555 1_555
N1A C1A 1_555 1_555
C1A S1A 1_555 1_555
S2A Bi1 1_555 1_555
N2A C2A 1_555 1_555
C2A S2A 1_555 1_555
S3A Bi1 1_555 1_555
N3A K2 1_555 1_555
C3A S3A 1_555 1_555
K2A N3 1_555 1_555
O1A K1 1_555 1_555
N4A C4A 1_555 1_555
N5A C4A 1_555 1_555
C4A O1A 1_555 1_555
C5A N4A 1_555 1_555
H1A C5A 1_555 1_555
H2A C5A 1_555 1_555
H3A C5A 1_555 1_555
C6A N4A 1_555 1_555
H4A C6A 1_555 1_555
H5A C6A 1_555 1_555
C7A C6A 1_555 1_555
H6A C7A 1_555 1_555
H7A C7A 1_555 1_555
C8A N5A 1_555 1_555
H8A C8A 1_555 1_555
H9A C8A 1_555 1_555
C9A N5A 1_555 1_555
H10A C9A 1_555 1_555
H11A C9A 1_555 1_555
H12A C9A 1_555 1_555
O2A K1 1_555 1_555
N6A C10A 1_555 1_555
N7A C10A 1_555 1_555
C10A O2A 1_555 1_555
C11A N6A 1_555 1_555
H13A C11A 1_555 1_555
H14A C11A 1_555 1_555
H15A C11A 1_555 1_555
C12A N6A 1_555 1_555
H16A C12A 1_555 1_555
H17A C12A 1_555 1_555
C13A C12A 1_555 1_555
H18A C13A 1_555 1_555
H19A C13A 1_555 1_555
C14A N7A 1_555 1_555
H20A C14A 1_555 1_555
H21A C14A 1_555 1_555
C15A N7A 1_555 1_555
H22A C15A 1_555 1_555
H23A C15A 1_555 1_555
H24A C15A 1_555 1_555
N1A_2 K1 1_555 1_555
N3_2 K2 1_555 1_555
K2_2 N3 1_555 1_555
K1_2 N1A 1_555 1_555
K2A_2 N3A 1_555 1_555
O1A_2 K2A 1_555 1_555
O2A_2 K2A 1_555 1_555
N3A_2 K2A 1_555 1_555
K2A_3 O1A 1_555 1_555
K2 N1 1_555 1_555
K2 O2 1_555 1_555
N2 C2 1_555 1_555
C7 C8 1_555 1_555
C13 C14 1_555 1_555
N1A K2A 1_555 1_555
N2A K2A 1_555 1_555
N3A C3A 1_555 1_555
C7A C8A 1_555 1_555
O2A K2A_3 1_555 1_555
C13A C14A 1_555 1_555
N1A_2 K2A_3 1_555 1_555
N3_2 K2A_2 1_555 1_555
K2_2 N3A_2 1_555 1_555
K1_2 O1A_2 1_555 1_555
K1_2 O2A_2 1_555 1_555

#END
