
#######################################################################
#
#                 Cambridge Crystallographic Data Centre
#                                CCDC 
#
#######################################################################
#
# If this CIF has been generated from an entry in the Cambridge 
# Structural Database, then it will include bibliographic, chemical, 
# crystal, experimental, refinement or atomic coordinate data resulting 
# from the CCDC's data processing and validation procedures.
#
#######################################################################

data_NAJGAH
_symmetry_cell_setting           monoclinic
_symmetry_space_group_name_H-M   'P 21'
_symmetry_Int_Tables_number      4
_space_group_name_Hall           'P 2yb'
loop_
_symmetry_equiv_pos_site_id
_symmetry_equiv_pos_as_xyz
1 x,y,z
2 -x,1/2+y,-z
_cell_length_a                   9.069(8)
_cell_length_b                   8.663(7)
_cell_length_c                   11.875(10)
_cell_angle_alpha                90
_cell_angle_beta                 110.050(13)
_cell_angle_gamma                90
_cell_volume                     876.413
loop_
_atom_site_label
_atom_site_type_symbol
_atom_site_fract_x
_atom_site_fract_y
_atom_site_fract_z
Nd1 Nd 0.97429(5) 0.52938(18) 1.01224(4)
O1 O 1.0740(13) 0.8096(12) 1.1132(8)
O2 O 1.1011(12) 0.6023(12) 1.2266(9)
O3 O 1.8525(12) 0.8083(12) 1.9148(10)
O4 O 1.7027(12) 0.6009(11) 1.8677(9)
C1 C 1.1319(16) 0.7332(16) 1.2210(12)
C2 C 1.2315(18) 0.8286(18) 1.3222(13)
H1 H 1.1676 0.9095 1.3384
H2 H 1.3127 0.8778 1.2987
C3 C 1.3099(18) 0.7351(17) 1.4384(12)
H3 H 1.2288 0.6861 1.4619
H4 H 1.3737 0.6541 1.4221
C4 C 1.4089(17) 0.8295(17) 1.5386(13)
H5 H 1.3426 0.9036 1.5599
H6 H 1.4825 0.8870 1.5119
C5 C 1.5012(17) 0.7382(17) 1.6509(13)
H7 H 1.4273 0.6880 1.6818
H8 H 1.5602 0.6579 1.6283
C6 C 1.6105(17) 0.8312(17) 1.7472(13)
H9 H 1.5497 0.8985 1.7799
H10 H 1.6709 0.8963 1.7127
C7 C 1.7256(16) 0.7379(17) 1.8511(12)
O5 O 1.0212(13) 0.6097(13) 0.8239(10)
O6 O 1.1290(13) 0.8419(13) 0.8488(10)
O7 O 0.7334(11) 0.538(2) 0.2307(8)
H11 H 0.8152 0.4901 0.2410
O8 O 0.7663(12) 0.6630(12) 0.0806(10)
C8 C 1.0722(19) 0.729(2) 0.7850(15)
C9 C 1.0610(19) 0.728(2) 0.6578(15)
H12 H 1.0902 0.6264 0.6373
H13 H 1.1333 0.8027 0.6454
C10 C 0.889(2) 0.767(2) 0.5745(18)
H14 H 0.8168 0.6913 0.5868
H15 H 0.8595 0.8676 0.5958
C11 C 0.875(2) 0.767(2) 0.4433(17)
H16 H 0.9116 0.6687 0.4241
H17 H 0.9434 0.8469 0.4309
C12 C 0.706(2) 0.796(2) 0.3572(17)
H18 H 0.6402 0.7134 0.3683
H19 H 0.6690 0.8915 0.3803
C13 C 0.685(2) 0.805(2) 0.2280(16)
H20 H 0.7451 0.8917 0.2153
H21 H 0.5753 0.8245 0.1833
C14 C 0.7359(18) 0.6587(19) 0.1783(14)
O9 O 1.2473(13) 0.6048(13) 1.0303(10)
H22 H 1.2629 0.6832 0.9928
H23 H 1.3247 0.5520 1.0741
Nd1A Nd 1.02571(5) 1.02938(18) 0.98776(4)
Nd1_2 Nd 1.97429(5) 0.52938(18) 2.01224(4)
Nd1A_2 Nd 2.02571(5) 1.02938(18) 1.98776(4)
Nd1_3 Nd 0.97429(5) 0.52938(18) 0.01224(4)
O1A O 0.9260(13) 0.3096(12) 0.8868(8)
O3_2 O 0.8525(12) 0.8083(12) 0.9148(10)
O3A O 1.1475(12) 0.3083(12) 1.0852(10)
O4_2 O 0.7027(12) 0.6009(11) 0.8677(9)
O6A O 0.8710(13) 0.3419(13) 1.1512(10)
O8_2 O 0.7663(12) 0.6630(12) 1.0806(10)
O10 O 0.5624(18) 0.928(2) 0.0530(15)
O11 O 0.366(2) 0.511(4) 0.4022(14)
O12 O 0.5761(19) 0.510(4) 0.6158(13)
loop_
_geom_bond_atom_site_label_1
_geom_bond_atom_site_label_2
_geom_bond_site_symmetry_1
_geom_bond_site_symmetry_2
Nd1 O1 1_555 1_555
O1 C1 1_555 1_555
O2 Nd1 1_555 1_555
O3 C7 1_555 1_555
O4 C7 1_555 1_555
C1 O2 1_555 1_555
C2 C1 1_555 1_555
H1 C2 1_555 1_555
H2 C2 1_555 1_555
C3 C2 1_555 1_555
H3 C3 1_555 1_555
H4 C3 1_555 1_555
C4 C3 1_555 1_555
H5 C4 1_555 1_555
H6 C4 1_555 1_555
C5 C4 1_555 1_555
H7 C5 1_555 1_555
H8 C5 1_555 1_555
C6 C5 1_555 1_555
H9 C6 1_555 1_555
H10 C6 1_555 1_555
C7 C6 1_555 1_555
O5 Nd1 1_555 1_555
O6 C8 1_555 1_555
O7 H11 1_555 1_555
O8 C14 1_555 1_555
C8 O5 1_555 1_555
C9 C8 1_555 1_555
H12 C9 1_555 1_555
H13 C9 1_555 1_555
C10 C9 1_555 1_555
H14 C10 1_555 1_555
H15 C10 1_555 1_555
C11 C10 1_555 1_555
H16 C11 1_555 1_555
H17 C11 1_555 1_555
C12 C11 1_555 1_555
H18 C12 1_555 1_555
H19 C12 1_555 1_555
C13 C12 1_555 1_555
H20 C13 1_555 1_555
H21 C13 1_555 1_555
C14 O7 1_555 1_555
O9 Nd1 1_555 1_555
H22 O9 1_555 1_555
H23 O9 1_555 1_555
Nd1A O1 1_555 1_555
Nd1_2 O3 1_555 1_555
Nd1A_2 O3 1_555 1_555
Nd1_3 O8 1_555 1_555
O1A Nd1 1_555 1_555
O3_2 Nd1 1_555 1_555
O3A Nd1 1_555 1_555
O4_2 Nd1 1_555 1_555
O6A Nd1 1_555 1_555
O8_2 Nd1 1_555 1_555
O4 Nd1_2 1_555 1_555
O6 Nd1A 1_555 1_555
C13 C14 1_555 1_555
Nd1A O3_2 1_555 1_555

#END
