
#######################################################################
#
#                 Cambridge Crystallographic Data Centre
#                                CCDC 
#
#######################################################################
#
# If this CIF has been generated from an entry in the Cambridge 
# Structural Database, then it will include bibliographic, chemical, 
# crystal, experimental, refinement or atomic coordinate data resulting 
# from the CCDC's data processing and validation procedures.
#
#######################################################################

data_NAJHOV
_symmetry_cell_setting           monoclinic
_symmetry_space_group_name_H-M   'P 21/n'
_symmetry_Int_Tables_number      14
_space_group_name_Hall           '-P 2yn'
loop_
_symmetry_equiv_pos_site_id
_symmetry_equiv_pos_as_xyz
1 x,y,z
2 1/2-x,1/2+y,1/2-z
3 -x,-y,-z
4 1/2+x,1/2-y,1/2+z
_cell_length_a                   7.3265(3)
_cell_length_b                   26.101(1)
_cell_length_c                   15.9343(3)
_cell_angle_alpha                90
_cell_angle_beta                 94.473(2)
_cell_angle_gamma                90
_cell_volume                     3037.82
loop_
_atom_site_label
_atom_site_type_symbol
_atom_site_fract_x
_atom_site_fract_y
_atom_site_fract_z
Ag1 Ag 1.4559(2) 0.1691(1) 0.0108(1)
Ag2 Ag 1.7755(2) 0.0240(1) 0.2980(1)
S1 S 1.6662(8) 0.1323(2) 0.2024(3)
S2 S 1.6212(7) -0.0888(2) 0.3196(3)
F1 F 1.3790(30) 0.1824(8) 0.2313(10)
F2 F 1.6270(30) 0.2181(5) 0.2762(10)
F3 F 1.5239(18) 0.1554(5) 0.3416(7)
F4 F 1.7868(19) -0.1750(5) 0.3571(10)
F5 F 1.7504(18) -0.1591(5) 0.2277(9)
F6 F 1.9541(15) -0.1200(5) 0.3024(8)
O1 O 1.6707(17) 0.1574(4) 0.1231(7)
O2 O 1.5710(30) 0.0877(7) 0.2055(10)
O3 O 1.8530(30) 0.1294(7) 0.2461(11)
O4 O 1.6305(18) -0.0541(5) 0.2502(8)
O5 O 1.6911(19) -0.0664(5) 0.3986(8)
O6 O 1.4551(18) -0.1157(5) 0.3212(8)
O7 O 2.0150(15) -0.0003(4) 0.1880(6)
O8 O 2.0887(16) 0.0324(4) 0.3623(7)
O9 O 1.7873(17) 0.0705(4) 0.4330(7)
O10 O 1.7058(15) 0.1738(4) -0.0882(7)
O11 O 1.4489(17) 0.2496(4) -0.0692(7)
O12 O 1.2299(18) 0.2392(5) 0.0683(8)
N1 N 2.2020(20) 0.1254(6) -0.0110(10)
C1 C 2.0600(20) 0.1050(6) -0.0076(10)
C2 C 1.8970(20) 0.0774(6) -0.0030(10)
C3 C 1.7500(20) 0.0861(6) -0.0606(10)
C4 C 1.5970(20) 0.0556(5) -0.0607(10)
C5 C 1.5800(20) 0.0174(6) 0.0021(10)
C6 C 1.7280(20) 0.0109(6) 0.0618(10)
C7 C 1.8840(20) 0.0411(5) 0.0624(9)
C8 C 2.0470(20) 0.0372(6) 0.1277(10)
C9 C 2.1770(20) -0.0104(6) 0.2413(10)
C10 C 2.2250(20) 0.0314(6) 0.3037(10)
C11 C 2.1020(20) 0.0771(6) 0.4156(11)
C12 C 1.9610(20) 0.0723(7) 0.4778(11)
C13 C 1.6500(30) 0.0635(7) 0.4904(12)
C14 C 1.7570(20) 0.1275(6) -0.1267(10)
C15 C 1.6820(30) 0.2147(6) -0.1482(11)
C16 C 1.6170(30) 0.2611(7) -0.1039(13)
C17 C 1.3750(30) 0.2925(7) -0.0274(13)
C18 C 1.2020(30) 0.2756(8) 0.0051(13)
C19 C 1.0640(30) 0.2247(8) 0.1043(13)
C20 C 1.5470(30) 0.1743(8) 0.2644(14)
C21 C 1.7840(30) -0.1374(9) 0.2997(15)
H1 H 1.5032 0.0600 -0.1027
H2 H 1.7223 -0.0145 0.1023
H3 H 2.1560 0.0286 0.1000
H4 H 2.0669 0.0701 0.1552
H5 H 2.2783 -0.0153 0.2065
H6 H 2.1600 -0.0421 0.2715
H7 H 2.3438 0.0249 0.3327
H8 H 2.2289 0.0641 0.2751
H9 H 2.0804 0.1078 0.3821
H10 H 2.2229 0.0792 0.4446
H11 H 1.9813 0.0413 0.5108
H12 H 1.9676 0.1014 0.5157
H13 H 1.6771 0.0844 0.5393
H14 H 1.6460 0.0281 0.5068
H15 H 1.5327 0.0732 0.4637
H16 H 1.8800 0.1303 -0.1451
H17 H 1.6734 0.1197 -0.1751
H18 H 1.5926 0.2050 -0.1935
H19 H 1.7970 0.2219 -0.1721
H20 H 1.7084 0.2712 -0.0595
H21 H 1.6003 0.2894 -0.1433
H22 H 1.3533 0.3207 -0.0664
H23 H 1.4606 0.3038 0.0186
H24 H 1.1404 0.3050 0.0270
H25 H 1.1235 0.2613 -0.0408
H26 H 1.0903 0.1993 0.1470
H27 H 0.9789 0.2110 0.0611
H28 H 1.0109 0.2543 0.1288
C5B C 1.4200(20) -0.0174(6) -0.0021(10)
C4B C 1.4030(20) -0.0556(5) 0.0607(10)
C3B C 1.2500(20) -0.0861(6) 0.0606(10)
C2B C 1.1030(20) -0.0774(6) 0.0030(10)
C1B C 0.9400(20) -0.1050(6) 0.0076(10)
N1B N 0.7980(20) -0.1254(6) 0.0110(10)
C7B C 1.1160(20) -0.0411(5) -0.0624(9)
C6B C 1.2720(20) -0.0109(6) -0.0618(10)
H2B H 1.2777 0.0145 -0.1023
C8B C 0.9530(20) -0.0372(6) -0.1277(10)
O7B O 0.9850(15) 0.0003(4) -0.1880(6)
C9B C 0.8230(20) 0.0104(6) -0.2413(10)
C10B C 0.7750(20) -0.0314(6) -0.3037(10)
O8B O 0.9113(16) -0.0324(4) -0.3623(7)
C11B C 0.8980(20) -0.0771(6) -0.4156(11)
C12B C 1.0390(20) -0.0723(7) -0.4778(11)
O9B O 1.2127(17) -0.0705(4) -0.4330(7)
C13B C 1.3500(30) -0.0635(7) -0.4904(12)
H13B H 1.3229 -0.0844 -0.5393
H14B H 1.3540 -0.0281 -0.5068
H15B H 1.4673 -0.0732 -0.4637
H11B H 1.0187 -0.0413 -0.5108
H12B H 1.0324 -0.1014 -0.5157
H9B H 0.9196 -0.1078 -0.3821
H10B H 0.7771 -0.0792 -0.4446
H7B H 0.6562 -0.0249 -0.3327
H8B H 0.7711 -0.0641 -0.2751
H5B H 0.7217 0.0153 -0.2065
H6B H 0.8400 0.0421 -0.2715
H3B H 0.8440 -0.0286 -0.1000
H4B H 0.9331 -0.0701 -0.1552
C14B C 1.2430(20) -0.1275(6) 0.1267(10)
O10B O 1.2942(15) -0.1738(4) 0.0882(7)
C15B C 1.3180(30) -0.2147(6) 0.1482(11)
C16B C 1.3830(30) -0.2611(7) 0.1039(13)
O11B O 1.5511(17) -0.2496(4) 0.0692(7)
C17B C 1.6250(30) -0.2925(7) 0.0274(13)
C18B C 1.7980(30) -0.2756(8) -0.0051(13)
O12B O 1.7701(18) -0.2392(5) -0.0683(8)
C19B C 1.9360(30) -0.2247(8) -0.1043(13)
H26B H 1.9097 -0.1993 -0.1470
H27B H 2.0211 -0.2110 -0.0611
H28B H 1.9891 -0.2543 -0.1288
H24B H 1.8596 -0.3050 -0.0270
H25B H 1.8765 -0.2613 0.0408
H22B H 1.6467 -0.3207 0.0664
H23B H 1.5394 -0.3038 -0.0186
H20B H 1.2916 -0.2712 0.0595
H21B H 1.3997 -0.2894 0.1433
H18B H 1.4074 -0.2050 0.1935
H19B H 1.2030 -0.2219 0.1721
H16B H 1.1200 -0.1303 0.1451
H17B H 1.3266 -0.1197 0.1751
H1B H 1.4968 -0.0600 0.1027
Ag1B Ag 1.5441(2) -0.1691(1) -0.0108(1)
Ag2B Ag 1.2245(2) -0.0240(1) -0.2980(1)
S1B S 1.3338(8) -0.1323(2) -0.2024(3)
F1B F 1.6210(30) -0.1824(8) -0.2313(10)
F2B F 1.3730(30) -0.2181(5) -0.2762(10)
F3B F 1.4761(18) -0.1554(5) -0.3416(7)
O1B O 1.3293(17) -0.1574(4) -0.1231(7)
O2B O 1.4290(30) -0.0877(7) -0.2055(10)
O3B O 1.1470(30) -0.1294(7) -0.2461(11)
C20B C 1.4530(30) -0.1743(8) -0.2644(14)
S2B S 1.3788(7) 0.0888(2) -0.3196(3)
F4B F 1.2132(19) 0.1750(5) -0.3571(10)
F5B F 1.2496(18) 0.1591(5) -0.2277(9)
F6B F 1.0459(15) 0.1200(5) -0.3024(8)
O4B O 1.3695(18) 0.0541(5) -0.2502(8)
O5B O 1.3089(19) 0.0664(5) -0.3986(8)
O6B O 1.5449(18) 0.1157(5) -0.3212(8)
C21B C 1.2160(30) 0.1374(9) -0.2997(15)
N1_2 N 1.2020(20) 0.1254(6) -0.0110(10)
Ag1_2 Ag 2.4559(2) 0.1691(1) 0.0108(1)
Ag1B_2 Ag 0.5441(2) -0.1691(1) -0.0108(1)
N1B_2 N 1.7980(20) -0.1254(6) 0.0110(10)
loop_
_geom_bond_atom_site_label_1
_geom_bond_atom_site_label_2
_geom_bond_site_symmetry_1
_geom_bond_site_symmetry_2
Ag1 O1 1_555 1_555
Ag2 O2 1_555 1_555
S1 O1 1_555 1_555
S2 O4 1_555 1_555
F1 C20 1_555 1_555
F2 C20 1_555 1_555
F3 C20 1_555 1_555
F4 C21 1_555 1_555
F5 C21 1_555 1_555
F6 C21 1_555 1_555
O2 S1 1_555 1_555
O3 S1 1_555 1_555
O4 Ag2 1_555 1_555
O5 S2 1_555 1_555
O6 S2 1_555 1_555
O7 Ag2 1_555 1_555
O8 Ag2 1_555 1_555
O9 Ag2 1_555 1_555
O10 Ag1 1_555 1_555
O11 Ag1 1_555 1_555
O12 Ag1 1_555 1_555
N1 C1 1_555 1_555
C1 C2 1_555 1_555
C2 C3 1_555 1_555
C3 C4 1_555 1_555
C4 C5 1_555 1_555
C5 C6 1_555 1_555
C6 C7 1_555 1_555
C7 C2 1_555 1_555
C8 O7 1_555 1_555
C9 O7 1_555 1_555
C10 O8 1_555 1_555
C11 O8 1_555 1_555
C12 O9 1_555 1_555
C13 O9 1_555 1_555
C14 O10 1_555 1_555
C15 O10 1_555 1_555
C16 O11 1_555 1_555
C17 O11 1_555 1_555
C18 O12 1_555 1_555
C19 O12 1_555 1_555
C20 S1 1_555 1_555
C21 S2 1_555 1_555
H1 C4 1_555 1_555
H2 C6 1_555 1_555
H3 C8 1_555 1_555
H4 C8 1_555 1_555
H5 C9 1_555 1_555
H6 C9 1_555 1_555
H7 C10 1_555 1_555
H8 C10 1_555 1_555
H9 C11 1_555 1_555
H10 C11 1_555 1_555
H11 C12 1_555 1_555
H12 C12 1_555 1_555
H13 C13 1_555 1_555
H14 C13 1_555 1_555
H15 C13 1_555 1_555
H16 C14 1_555 1_555
H17 C14 1_555 1_555
H18 C15 1_555 1_555
H19 C15 1_555 1_555
H20 C16 1_555 1_555
H21 C16 1_555 1_555
H22 C17 1_555 1_555
H23 C17 1_555 1_555
H24 C18 1_555 1_555
H25 C18 1_555 1_555
H26 C19 1_555 1_555
H27 C19 1_555 1_555
H28 C19 1_555 1_555
C5B C5 1_555 1_555
C4B C5B 1_555 1_555
C3B C4B 1_555 1_555
C2B C3B 1_555 1_555
C1B C2B 1_555 1_555
N1B C1B 1_555 1_555
C7B C2B 1_555 1_555
C6B C5B 1_555 1_555
H2B C6B 1_555 1_555
C8B C7B 1_555 1_555
O7B C8B 1_555 1_555
C9B O7B 1_555 1_555
C10B C9B 1_555 1_555
O8B C10B 1_555 1_555
C11B O8B 1_555 1_555
C12B C11B 1_555 1_555
O9B C12B 1_555 1_555
C13B O9B 1_555 1_555
H13B C13B 1_555 1_555
H14B C13B 1_555 1_555
H15B C13B 1_555 1_555
H11B C12B 1_555 1_555
H12B C12B 1_555 1_555
H9B C11B 1_555 1_555
H10B C11B 1_555 1_555
H7B C10B 1_555 1_555
H8B C10B 1_555 1_555
H5B C9B 1_555 1_555
H6B C9B 1_555 1_555
H3B C8B 1_555 1_555
H4B C8B 1_555 1_555
C14B C3B 1_555 1_555
O10B C14B 1_555 1_555
C15B O10B 1_555 1_555
C16B C15B 1_555 1_555
O11B C16B 1_555 1_555
C17B O11B 1_555 1_555
C18B C17B 1_555 1_555
O12B C18B 1_555 1_555
C19B O12B 1_555 1_555
H26B C19B 1_555 1_555
H27B C19B 1_555 1_555
H28B C19B 1_555 1_555
H24B C18B 1_555 1_555
H25B C18B 1_555 1_555
H22B C17B 1_555 1_555
H23B C17B 1_555 1_555
H20B C16B 1_555 1_555
H21B C16B 1_555 1_555
H18B C15B 1_555 1_555
H19B C15B 1_555 1_555
H16B C14B 1_555 1_555
H17B C14B 1_555 1_555
H1B C4B 1_555 1_555
Ag1B O10B 1_555 1_555
Ag2B O7B 1_555 1_555
S1B O1B 1_555 1_555
F1B C20B 1_555 1_555
F2B C20B 1_555 1_555
F3B C20B 1_555 1_555
O1B Ag1B 1_555 1_555
O2B Ag2B 1_555 1_555
O3B S1B 1_555 1_555
C20B S1B 1_555 1_555
S2B O4B 1_555 1_555
F4B C21B 1_555 1_555
F5B C21B 1_555 1_555
F6B C21B 1_555 1_555
O4B Ag2B 1_555 1_555
O5B S2B 1_555 1_555
O6B S2B 1_555 1_555
C21B S2B 1_555 1_555
N1_2 Ag1 1_555 1_555
Ag1_2 N1 1_555 1_555
Ag1B_2 N1B 1_555 1_555
N1B_2 Ag1B 1_555 1_555
C3 C14 1_555 1_555
C7 C8 1_555 1_555
C9 C10 1_555 1_555
C11 C12 1_555 1_555
C15 C16 1_555 1_555
C17 C18 1_555 1_555
C7B C6B 1_555 1_555
O8B Ag2B 1_555 1_555
O9B Ag2B 1_555 1_555
O11B Ag1B 1_555 1_555
O12B Ag1B 1_555 1_555
S1B O2B 1_555 1_555

#END
