
#######################################################################
#
#                 Cambridge Crystallographic Data Centre
#                                CCDC 
#
#######################################################################
#
# If this CIF has been generated from an entry in the Cambridge 
# Structural Database, then it will include bibliographic, chemical, 
# crystal, experimental, refinement or atomic coordinate data resulting 
# from the CCDC's data processing and validation procedures.
#
#######################################################################

data_NAJMER
_symmetry_cell_setting           orthorhombic
_symmetry_space_group_name_H-M   'P n a 21'
_symmetry_Int_Tables_number      33
_space_group_name_Hall           'P 2c -2n'
loop_
_symmetry_equiv_pos_site_id
_symmetry_equiv_pos_as_xyz
1 x,y,z
2 -x,-y,1/2+z
3 1/2+x,1/2-y,z
4 1/2-x,1/2+y,1/2+z
_cell_length_a                   9.5378(10)
_cell_length_b                   12.5720(14)
_cell_length_c                   5.1830(6)
_cell_angle_alpha                90
_cell_angle_beta                 90
_cell_angle_gamma                90
_cell_volume                     621.489
loop_
_atom_site_label
_atom_site_type_symbol
_atom_site_fract_x
_atom_site_fract_y
_atom_site_fract_z
Ni1 Ni 0.89256(5) 0.11513(4) -0.9131(2)
P1 P 0.69744(11) 0.49545(8) -0.9114(4)
N1 N 0.8649(4) 0.2577(3) -0.7741(10)
C1 C 0.8982(4) 0.3391(4) -0.913(3)
O1 O 0.5922(4) 0.4064(3) -0.8507(8)
O2 O 0.6641(4) 0.5997(3) -0.7701(8)
O3 O 0.7105(5) 0.5129(3) -1.2023(8)
O4 O 0.9498(5) 0.3337(4) -1.1316(9)
C2 C 0.8642(5) 0.4466(4) -0.7981(13)
H1 H 0.8620 0.4409 -0.6076
H2 H 0.9387 0.4979 -0.8452
O1B O 1.0922(4) 0.0936(3) -0.8507(8)
O2C O 0.8359(4) 0.0997(3) -1.2701(8)
O3C O 0.7895(5) 0.0129(3) -0.7023(8)
Ni1B Ni 0.39256(5) 0.38487(4) -0.9131(2)
Ni1C Ni 0.60744(5) 0.61513(4) -0.4131(2)
Ni1C_2 Ni 0.60744(5) 0.61513(4) -1.4131(2)
O5 O 1.1483(5) 0.2160(4) -0.3933(15)
H3 H 1.052(10) 0.240(7) -0.34(2)
H4 H 1.236(9) 0.272(6) -0.38(2)
loop_
_geom_bond_atom_site_label_1
_geom_bond_atom_site_label_2
_geom_bond_site_symmetry_1
_geom_bond_site_symmetry_2
Ni1 N1 1_555 1_555
P1 O1 1_555 1_555
N1 C1 1_555 1_555
C1 O4 1_555 1_555
O1 Ni1B 1_555 1_555
O2 P1 1_555 1_555
O3 P1 1_555 1_555
C2 P1 1_555 1_555
H1 C2 1_555 1_555
H2 C2 1_555 1_555
O5 H3 1_555 1_555
H4 O5 1_555 1_555
O1B Ni1 1_555 1_555
O2C Ni1 1_555 1_555
O3C Ni1 1_555 1_555
Ni1C O2 1_555 1_555
Ni1C_2 O3 1_555 1_555
C1 C2 1_555 1_555

#END
