
#######################################################################
#
#                 Cambridge Crystallographic Data Centre
#                                CCDC 
#
#######################################################################
#
# If this CIF has been generated from an entry in the Cambridge 
# Structural Database, then it will include bibliographic, chemical, 
# crystal, experimental, refinement or atomic coordinate data resulting 
# from the CCDC's data processing and validation procedures.
#
#######################################################################

data_NAJZUV
_symmetry_cell_setting           triclinic
_symmetry_space_group_name_H-M   'P -1'
_symmetry_Int_Tables_number      2
_space_group_name_Hall           '-P 1'
loop_
_symmetry_equiv_pos_site_id
_symmetry_equiv_pos_as_xyz
1 x,y,z
2 -x,-y,-z
_cell_length_a                   9.2240(16)
_cell_length_b                   11.817(2)
_cell_length_c                   17.362(3)
_cell_angle_alpha                91.946(2)
_cell_angle_beta                 94.471(3)
_cell_angle_gamma                90.116(3)
_cell_volume                     1885.59
loop_
_atom_site_label
_atom_site_type_symbol
_atom_site_fract_x
_atom_site_fract_y
_atom_site_fract_z
C1 C 1.1686(10) -0.1157(8) 0.8297(5)
H1 H 1.1958 -0.1854 0.8091
C2 C 1.2484(11) -0.0676(8) 0.8909(6)
H2 H 1.3301 -0.1044 0.9124
C3 C 1.2092(10) 0.0351(8) 0.9212(6)
H3 H 1.2658 0.0690 0.9623
C4 C 1.0856(9) 0.0885(7) 0.8908(5)
C5 C 1.0059(10) 0.0374(7) 0.8289(5)
H4 H 0.9220 0.0716 0.8078
C6 C 1.0332(9) 0.1911(7) 0.9288(5)
C7 C 0.9154(9) 0.3459(7) 0.9527(5)
C8 C 0.8214(9) 0.4458(7) 0.9467(5)
C9 C 0.7647(10) 0.4898(8) 1.0128(5)
H5 H 0.7888 0.4571 1.0600
C10 C 0.6725(11) 0.5819(8) 1.0092(6)
H6 H 0.6363 0.6125 1.0538
C11 C 0.6350(10) 0.6277(8) 0.9387(6)
H7 H 0.5710 0.6884 0.9350
C12 C 0.7816(10) 0.4937(7) 0.8769(5)
H8 H 0.8164 0.4639 0.8317
C13 C 0.3695(11) 0.8841(9) 0.6848(7)
H9 H 0.3475 0.8181 0.7092
C14 C 0.2729(12) 0.9265(9) 0.6295(6)
H10 H 0.1865 0.8879 0.6152
C15 C 0.3032(11) 1.0259(9) 0.5949(6)
H11 H 0.2372 1.0549 0.5575
C16 C 0.4317(10) 1.0821(8) 0.6159(5)
C17 C 0.5306(11) 1.0355(7) 0.6700(5)
H12 H 0.6199 1.0706 0.6830
C18 C 0.4754(10) 1.1822(7) 0.5761(5)
C19 C 0.5854(9) 1.3366(7) 0.5462(5)
C20 C 0.6823(10) 1.4359(7) 0.5457(5)
C21 C 0.7195(11) 1.4738(9) 0.4767(6)
H13 H 0.6802 1.4382 0.4311
C22 C 0.8135(12) 1.5629(9) 0.4726(6)
H14 H 0.8379 1.5870 0.4248
C23 C 0.8727(12) 1.6175(9) 0.5407(6)
H15 H 0.9351 1.6793 0.5398
C24 C 0.7422(10) 1.4888(7) 0.6131(5)
H16 H 0.7191 1.4644 0.6611
H17 H 0.6961 0.8558 0.5857
H18 H 0.8379 0.8976 0.6140
H19 H 0.8405 0.8424 0.9098
H20 H 1.0257 0.6367 0.7926
H21 H 0.7219 0.8993 0.8889
H22 H 0.9830 0.6719 0.8703
H23 H 0.5182 0.6493 0.6967
H24 H 0.5369 0.6929 0.6219
H25 H 1.0362 0.3040 0.8048
H26 H 0.8820 0.2453 0.8015
H27 H 0.5135 1.3200 0.7096
H28 H 0.6623 1.2516 0.6981
Tb1 Tb 0.77532(5) 0.76572(3) 0.74442(2)
N1 N 0.6925(8) 0.5835(6) 0.8744(4)
N2 N 0.9604(9) 0.3035(6) 1.0185(4)
N3 N 1.0341(8) 0.2054(6) 1.0041(4)
N4 N 0.9609(8) 0.2781(6) 0.8935(4)
N5 N 0.9424(7) 0.3036(6) 0.8149(4)
N6 N 0.4958(10) 0.9377(7) 0.7040(4)
N7 N 1.0498(9) -0.0631(6) 0.7987(4)
N8 N 0.8347(9) 1.5762(6) 0.6081(4)
N9 N 0.5192(9) 1.2914(6) 0.4831(4)
N10 N 0.4495(9) 1.1947(6) 0.5016(4)
N11 N 0.5541(8) 1.2723(6) 0.6076(4)
N12 N 0.5934(7) 1.3028(6) 0.6851(4)
O1 O 0.8898(7) 1.6280(5) 0.6739(4)
O2 O 0.5914(8) 0.8971(5) 0.7575(4)
O3 O 0.9723(7) -0.1108(5) 0.7395(3)
O4 O 0.6536(7) 0.6288(5) 0.8068(4)
O5 O 0.9713(6) 0.6743(5) 0.8213(3)
O6 O 0.7837(6) 0.8556(5) 0.8702(3)
O7 O 0.5742(6) 0.6809(5) 0.6672(3)
O8 O 0.7667(6) 0.8540(5) 0.6201(3)
Tb1_2 Tb 0.77532(5) 1.76572(3) 0.74442(2)
Tb1_3 Tb 0.77532(5) -0.23428(3) 0.74442(2)
O1_2 O 0.8898(7) 0.6280(5) 0.6739(4)
O3_2 O 0.9723(7) 0.8892(5) 0.7395(3)
Cl1 Cl 0.5860(3) 0.1485(2) 0.88593(16)
O13 O 0.4478(12) 0.1478(12) 0.8421(8)
O14 O 0.5994(13) 0.0414(8) 0.9186(5)
O15 O 0.5942(15) 0.2304(9) 0.9458(7)
O16 O 0.6907(10) 0.1661(9) 0.8317(6)
Cl2 Cl 0.2935(4) 0.5081(4) 0.7646(2)
O9 O 0.1603(12) 0.4856(11) 0.7727(10)
O10 O 0.3931(15) 0.4564(13) 0.8181(7)
O11 O 0.3008(19) 0.6194(13) 0.7812(17)
O12 O 0.3559(16) 0.4965(19) 0.6997(7)
Cl3 Cl 0.9301(3) 0.1523(2) 0.60495(17)
O17 O 0.8505(10) 0.1580(8) 0.6707(5)
O18 O 0.9495(11) 0.0390(8) 0.5819(6)
O19 O 1.0649(15) 0.1967(13) 0.6249(16)
O20 O 0.872(2) 0.2157(15) 0.5495(9)
loop_
_geom_bond_atom_site_label_1
_geom_bond_atom_site_label_2
_geom_bond_site_symmetry_1
_geom_bond_site_symmetry_2
C1 H1 1_555 1_555
C2 C1 1_555 1_555
H2 C2 1_555 1_555
C3 C2 1_555 1_555
H3 C3 1_555 1_555
C4 C3 1_555 1_555
C5 C4 1_555 1_555
H4 C5 1_555 1_555
C6 C4 1_555 1_555
C7 C8 1_555 1_555
C8 C9 1_555 1_555
C9 H5 1_555 1_555
C10 C9 1_555 1_555
H6 C10 1_555 1_555
C11 C10 1_555 1_555
H7 C11 1_555 1_555
C12 C8 1_555 1_555
H8 C12 1_555 1_555
C13 H9 1_555 1_555
C14 C13 1_555 1_555
H10 C14 1_555 1_555
C15 C14 1_555 1_555
H11 C15 1_555 1_555
C16 C15 1_555 1_555
C17 C16 1_555 1_555
H12 C17 1_555 1_555
C18 C16 1_555 1_555
C19 C20 1_555 1_555
C20 C21 1_555 1_555
C21 H13 1_555 1_555
C22 C21 1_555 1_555
H14 C22 1_555 1_555
C23 C22 1_555 1_555
H15 C23 1_555 1_555
C24 C20 1_555 1_555
H16 C24 1_555 1_555
Cl1 O13 1_555 1_555
Cl2 O9 1_555 1_555
Cl3 O17 1_555 1_555
H17 O8 1_555 1_555
H18 O8 1_555 1_555
H19 O6 1_555 1_555
H20 O5 1_555 1_555
H21 O6 1_555 1_555
H22 O5 1_555 1_555
H23 O7 1_555 1_555
H24 O7 1_555 1_555
H25 N5 1_555 1_555
H26 N5 1_555 1_555
H27 N12 1_555 1_555
H28 N12 1_555 1_555
Tb1 O2 1_555 1_555
N1 C11 1_555 1_555
N2 C7 1_555 1_555
N3 C6 1_555 1_555
N4 C6 1_555 1_555
N5 N4 1_555 1_555
N6 C13 1_555 1_555
N7 C1 1_555 1_555
N8 C23 1_555 1_555
N9 C19 1_555 1_555
N10 C18 1_555 1_555
N11 C18 1_555 1_555
N12 N11 1_555 1_555
O1 N8 1_555 1_555
O2 N6 1_555 1_555
O3 N7 1_555 1_555
O4 Tb1 1_555 1_555
O5 Tb1 1_555 1_555
O6 Tb1 1_555 1_555
O7 Tb1 1_555 1_555
O8 Tb1 1_555 1_555
O10 Cl2 1_555 1_555
O11 Cl2 1_555 1_555
O12 Cl2 1_555 1_555
O14 Cl1 1_555 1_555
O15 Cl1 1_555 1_555
O16 Cl1 1_555 1_555
O18 Cl3 1_555 1_555
O19 Cl3 1_555 1_555
O20 Cl3 1_555 1_555
Tb1_2 O1 1_555 1_555
Tb1_3 O3 1_555 1_555
O1_2 Tb1 1_555 1_555
O3_2 Tb1 1_555 1_555
C5 N7 1_555 1_555
C7 N4 1_555 1_555
C12 N1 1_555 1_555
C17 N6 1_555 1_555
C19 N11 1_555 1_555
C24 N8 1_555 1_555
N1 O4 1_555 1_555
N2 N3 1_555 1_555
N9 N10 1_555 1_555

#END
