
#######################################################################
#
#                 Cambridge Crystallographic Data Centre
#                                CCDC 
#
#######################################################################
#
# If this CIF has been generated from an entry in the Cambridge 
# Structural Database, then it will include bibliographic, chemical, 
# crystal, experimental, refinement or atomic coordinate data resulting 
# from the CCDC's data processing and validation procedures.
#
#######################################################################

data_NAKBIM
_symmetry_cell_setting           triclinic
_symmetry_space_group_name_H-M   'P -1'
_symmetry_Int_Tables_number      2
_space_group_name_Hall           '-P 1'
loop_
_symmetry_equiv_pos_site_id
_symmetry_equiv_pos_as_xyz
1 x,y,z
2 -x,-y,-z
_cell_length_a                   9.2035(13)
_cell_length_b                   11.7560(16)
_cell_length_c                   17.331(2)
_cell_angle_alpha                91.927(2)
_cell_angle_beta                 94.929(2)
_cell_angle_gamma                90.397(2)
_cell_volume                     1867.07
loop_
_atom_site_label
_atom_site_type_symbol
_atom_site_fract_x
_atom_site_fract_y
_atom_site_fract_z
C1 C 0.1671(7) -0.1158(5) -0.1705(4)
H1 H 0.1937 -0.1856 -0.1916
C2 C 0.2498(7) -0.0676(6) -0.1089(4)
H2 H 0.3322 -0.1047 -0.0880
C3 C 0.2114(7) 0.0361(5) -0.0774(4)
H3 H 0.2682 0.0702 -0.0359
C4 C 0.0863(7) 0.0885(5) -0.1088(3)
C5 C 0.0051(7) 0.0365(5) -0.1709(3)
H4 H -0.0795 0.0705 -0.1919
C6 C 0.0317(7) 0.1911(5) -0.0713(3)
C7 C -0.0863(6) 0.3470(5) -0.0472(3)
C8 C -0.1801(7) 0.4470(5) -0.0542(3)
C9 C -0.2362(7) 0.4916(6) 0.0126(3)
H5 H -0.2114 0.4596 0.0602
C10 C -0.3286(8) 0.5834(6) 0.0076(4)
H6 H -0.3657 0.6140 0.0519
C11 C -0.3652(8) 0.6292(6) -0.0627(4)
H7 H -0.4280 0.6908 -0.0664
C12 C -0.2211(7) 0.4957(5) -0.1232(3)
H8 H -0.1864 0.4662 -0.1686
C13 C -0.6295(8) -1.1193(6) -0.3148(4)
H9 H -0.6506 -1.1865 -0.2910
C14 C -0.7278(8) -1.0761(6) -0.3697(4)
H10 H -0.8149 -1.1150 -0.3840
C15 C -0.6987(7) -0.9760(6) -0.4036(4)
H11 H -0.7666 -0.9461 -0.4401
C16 C -0.5689(7) -0.9197(5) -0.3836(3)
C17 C -0.4692(7) -0.9665(5) -0.3288(3)
H12 H -0.3799 -0.9305 -0.3153
C18 C -0.5255(7) -0.8187(5) -0.4242(4)
C19 C -0.4154(7) -0.6642(5) -0.4532(3)
C20 C -0.3176(7) -0.5637(5) -0.4535(3)
C21 C -0.2809(8) -0.5258(6) -0.5235(4)
H13 H -0.3204 -0.5611 -0.5695
C22 C -0.1857(9) -0.4355(6) -0.5254(4)
H14 H -0.1597 -0.4106 -0.5728
C23 C -0.1284(8) -0.3817(6) -0.4575(4)
H15 H -0.0655 -0.3197 -0.4585
C24 C -0.2577(7) -0.5088(5) -0.3861(3)
H16 H -0.2814 -0.5330 -0.3382
H17 H -0.3040 -0.1383 -0.4111
H18 H -0.1738 -0.0931 -0.3821
H19 H -0.1656 -0.1527 -0.0879
H20 H 0.0154 -0.3671 -0.2081
H21 H -0.2831 -0.0989 -0.1274
H22 H -0.0065 -0.3255 -0.1316
H23 H -0.4862 -0.3581 -0.3117
H24 H -0.4559 -0.3054 -0.3786
H25 H 0.0334 0.3209 -0.2002
H26 H -0.1010 0.2471 -0.2109
H27 H -0.4971 -0.6870 -0.2952
H28 H -0.3427 -0.7453 -0.2955
Tm1 Tm -0.22555(3) -0.23437(2) -0.255210(13)
N1 N -0.31033(3) 0.58511(2) -0.126470(13)
N2 N -0.04155(3) 0.30363(2) 0.019530(13)
N3 N 0.03260(3) 0.20476(2) 0.003900(13)
N4 N -0.03957(3) 0.27944(2) -0.105830(13)
N5 N -0.05465(3) 0.30519(2) -0.184150(13)
N6 N -0.50266(3) -1.06454(2) -0.295330(13)
N7 N 0.04774(3) -0.06342(2) -0.201050(13)
N8 N -0.16572(3) -0.42085(2) -0.389900(13)
N9 N -0.48008(3) -0.71047(2) -0.516880(13)
N10 N -0.55034(3) -0.80812(2) -0.498860(13)
N11 N -0.44539(3) -0.72765(2) -0.392290(13)
N12 N -0.40955(3) -0.69576(2) -0.314090(13)
O1 O -0.11128(3) -0.36870(2) -0.324730(13)
O2 O -0.40635(3) -1.10504(2) -0.242310(13)
O3 O -0.03337(3) -0.11182(2) -0.261050(13)
O4 O -0.34542(3) 0.63096(2) -0.194690(13)
O5 O -0.03340(3) -0.32473(2) -0.179580(13)
O6 O -0.21588(3) -0.14691(2) -0.131090(13)
O7 O -0.42464(3) -0.31784(2) -0.332290(13)
O8 O -0.23395(3) -0.14682(2) -0.376560(13)
Tm1_2 Tm -0.22555(3) 0.76563(2) -0.255210(13)
Tm1_3 Tm -0.22555(3) -1.23437(2) -0.255210(13)
O2_2 O -0.40635(3) -0.10504(2) -0.242310(13)
O4_2 O -0.34542(3) -0.36904(2) -0.194690(13)
Cl1 Cl -0.41624(19) 0.14702(15) -0.11524(11)
O13 O -0.55330(3) 0.14682(2) -0.160750(13)
O14 O -0.39914(3) 0.03800(2) -0.082870(13)
O15 O -0.41205(3) 0.23058(2) -0.055630(13)
O16 O -0.31041(3) 0.16677(2) -0.167970(13)
Cl2 Cl -0.7070(2) 0.5094(2) -0.23504(13)
O9 O -0.84626(3) 0.48634(2) -0.229530(13)
O10 O -0.60972(3) 0.45317(2) -0.182030(13)
O11 O -0.69733(3) 0.62286(2) -0.212560(13)
O12 O -0.63952(3) 0.50510(2) -0.299620(13)
Cl3 Cl -0.06855(3) 0.15346(2) -0.393700(13)
O17 O -0.15313(3) 0.16111(2) -0.329160(13)
O18 O -0.05256(3) 0.03860(2) -0.417220(13)
O19 O 0.06990(3) 0.19692(2) -0.369300(13)
O20 O -0.12949(3) 0.21649(2) -0.452750(13)
loop_
_geom_bond_atom_site_label_1
_geom_bond_atom_site_label_2
_geom_bond_site_symmetry_1
_geom_bond_site_symmetry_2
C1 H1 1_555 1_555
C2 C1 1_555 1_555
H2 C2 1_555 1_555
C3 C2 1_555 1_555
H3 C3 1_555 1_555
C4 C3 1_555 1_555
C5 C4 1_555 1_555
H4 C5 1_555 1_555
C6 C4 1_555 1_555
C7 C8 1_555 1_555
C8 C9 1_555 1_555
C9 H5 1_555 1_555
C10 C9 1_555 1_555
H6 C10 1_555 1_555
C11 C10 1_555 1_555
H7 C11 1_555 1_555
C12 C8 1_555 1_555
H8 C12 1_555 1_555
C13 H9 1_555 1_555
C14 C13 1_555 1_555
H10 C14 1_555 1_555
C15 C14 1_555 1_555
H11 C15 1_555 1_555
C16 C15 1_555 1_555
C17 C16 1_555 1_555
H12 C17 1_555 1_555
C18 C16 1_555 1_555
C19 C20 1_555 1_555
C20 C21 1_555 1_555
C21 H13 1_555 1_555
C22 C21 1_555 1_555
H14 C22 1_555 1_555
C23 C22 1_555 1_555
H15 C23 1_555 1_555
C24 C20 1_555 1_555
H16 C24 1_555 1_555
Cl1 O13 1_555 1_555
Cl2 O9 1_555 1_555
Cl3 O17 1_555 1_555
H17 O8 1_555 1_555
H18 O8 1_555 1_555
H19 O6 1_555 1_555
H20 O5 1_555 1_555
H21 O6 1_555 1_555
H22 O5 1_555 1_555
H23 O7 1_555 1_555
H24 O7 1_555 1_555
H25 N5 1_555 1_555
H26 N5 1_555 1_555
H27 N12 1_555 1_555
H28 N12 1_555 1_555
Tm1 O1 1_555 1_555
N1 C11 1_555 1_555
N2 C7 1_555 1_555
N3 C6 1_555 1_555
N4 C6 1_555 1_555
N5 N4 1_555 1_555
N6 C13 1_555 1_555
N7 C1 1_555 1_555
N8 C23 1_555 1_555
N9 C19 1_555 1_555
N10 C18 1_555 1_555
N11 C18 1_555 1_555
N12 N11 1_555 1_555
O1 N8 1_555 1_555
O2 N6 1_555 1_555
O3 Tm1 1_555 1_555
O4 N1 1_555 1_555
O5 Tm1 1_555 1_555
O6 Tm1 1_555 1_555
O7 Tm1 1_555 1_555
O8 Tm1 1_555 1_555
O10 Cl2 1_555 1_555
O11 Cl2 1_555 1_555
O12 Cl2 1_555 1_555
O14 Cl1 1_555 1_555
O15 Cl1 1_555 1_555
O16 Cl1 1_555 1_555
O18 Cl3 1_555 1_555
O19 Cl3 1_555 1_555
O20 Cl3 1_555 1_555
Tm1_2 O4 1_555 1_555
Tm1_3 O2 1_555 1_555
O2_2 Tm1 1_555 1_555
O4_2 Tm1 1_555 1_555
C5 N7 1_555 1_555
C7 N4 1_555 1_555
C12 N1 1_555 1_555
C17 N6 1_555 1_555
C19 N11 1_555 1_555
C24 N8 1_555 1_555
N2 N3 1_555 1_555
N7 O3 1_555 1_555
N9 N10 1_555 1_555

#END
