
#######################################################################
#
#                 Cambridge Crystallographic Data Centre
#                                CCDC 
#
#######################################################################
#
# If this CIF has been generated from an entry in the Cambridge 
# Structural Database, then it will include bibliographic, chemical, 
# crystal, experimental, refinement or atomic coordinate data resulting 
# from the CCDC's data processing and validation procedures.
#
#######################################################################

data_NAKBEI
_symmetry_cell_setting           triclinic
_symmetry_space_group_name_H-M   'P -1'
_symmetry_Int_Tables_number      2
_space_group_name_Hall           '-P 1'
loop_
_symmetry_equiv_pos_site_id
_symmetry_equiv_pos_as_xyz
1 x,y,z
2 -x,-y,-z
_cell_length_a                   9.2085(19)
_cell_length_b                   11.783(2)
_cell_length_c                   17.370(4)
_cell_angle_alpha                91.881(2)
_cell_angle_beta                 94.895(3)
_cell_angle_gamma                90.418(3)
_cell_volume                     1876.73
loop_
_atom_site_label
_atom_site_type_symbol
_atom_site_fract_x
_atom_site_fract_y
_atom_site_fract_z
C1 C 1.1671(9) -0.1157(7) 0.8302(5)
H1 H 1.1928 -0.1861 0.8100
C2 C 1.2501(10) -0.0674(8) 0.8921(5)
H2 H 1.3325 -0.1039 0.9134
C3 C 1.2102(9) 0.0350(7) 0.9220(5)
H3 H 1.2666 0.0691 0.9635
C4 C 1.0859(9) 0.0889(6) 0.8911(4)
C5 C 1.0043(9) 0.0363(6) 0.8287(4)
H4 H 0.9191 0.0694 0.8079
C6 C 1.0324(9) 0.1909(7) 0.9285(4)
C7 C 0.9126(9) 0.3460(6) 0.9528(4)
C8 C 0.8193(8) 0.4463(7) 0.9467(4)
C9 C 0.7640(10) 0.4909(7) 1.0129(4)
H5 H 0.7886 0.4586 1.0604
C10 C 0.6725(11) 0.5833(8) 1.0085(5)
H6 H 0.6365 0.6141 1.0530
C11 C 0.6344(9) 0.6300(7) 0.9371(5)
H7 H 0.5722 0.6917 0.9332
C12 C 0.7788(9) 0.4947(6) 0.8767(4)
H8 H 0.8135 0.4652 0.8315
C13 C 0.3684(10) 0.8816(8) 0.6845(5)
H9 H 0.3473 0.8148 0.7085
C14 C 0.2698(10) 0.9241(9) 0.6289(6)
H10 H 0.1828 0.8853 0.6146
C15 C 0.3007(9) 1.0249(8) 0.5944(5)
H11 H 0.2345 1.0547 0.5571
C16 C 0.4310(8) 1.0803(7) 0.6161(4)
C17 C 0.5286(10) 1.0328(7) 0.6709(4)
H12 H 0.6181 1.0682 0.6847
C18 C 0.4743(9) 1.1820(7) 0.5757(5)
C19 C 0.5869(9) 1.3355(7) 0.5465(4)
C20 C 0.6829(9) 1.4356(7) 0.5465(4)
C21 C 0.7198(11) 1.4748(8) 0.4773(5)
H13 H 0.6803 1.4397 0.4314
C22 C 0.8139(11) 1.5647(8) 0.4747(5)
H14 H 0.8387 1.5900 0.4273
C23 C 0.8721(10) 1.6178(8) 0.5425(5)
H15 H 0.9365 1.6788 0.5418
C24 C 0.7430(9) 1.4892(7) 0.6145(4)
H16 H 0.7214 1.4638 0.6624
H17 H 0.7078 0.8655 0.5858
H18 H 0.8293 0.9079 0.6228
H19 H 0.8445 0.8535 0.9127
H20 H 1.0269 0.6340 0.7978
H21 H 0.7211 0.9035 0.8797
H22 H 0.9973 0.6705 0.8713
H23 H 0.5293 0.6457 0.6983
H24 H 0.5319 0.6854 0.6145
H25 H 1.0256 0.3372 0.8010
H26 H 0.9088 0.2347 0.8014
H27 H 0.5070 1.3139 0.7079
H28 H 0.6704 1.2682 0.7060
Er1 Er 0.77395(4) 0.76557(3) 0.744954(18)
N1 N 0.6888(8) 0.5846(6) 0.8739(4)
N2 N 0.9596(8) 0.3032(6) 1.0190(4)
N3 N 1.0329(8) 0.2051(6) 1.0040(4)
N4 N 0.9608(7) 0.2786(5) 0.8939(3)
N5 N 0.9443(8) 0.3044(6) 0.8154(4)
N6 N 0.4945(8) 0.9363(5) 0.7041(4)
N7 N 1.0497(8) -0.0633(6) 0.7986(4)
N8 N 0.8331(8) 1.5788(6) 0.6095(4)
N9 N 0.5206(9) 1.2906(6) 0.4826(4)
N10 N 0.4504(8) 1.1929(6) 0.5010(4)
N11 N 0.5540(7) 1.2722(6) 0.6075(3)
N12 N 0.5906(9) 1.3035(6) 0.6857(4)
O1 O 0.8890(7) 1.6310(5) 0.6752(3)
O2 O 0.5910(7) 0.8947(5) 0.7579(3)
O3 O 0.9679(7) -0.1116(5) 0.7389(3)
O4 O 0.6528(7) 0.6305(5) 0.8060(3)
O5 O 0.9674(6) 0.6747(5) 0.8210(3)
O6 O 0.7828(7) 0.8533(5) 0.8696(3)
O7 O 0.5738(6) 0.6814(5) 0.6675(3)
O8 O 0.7656(7) 0.8535(5) 0.6223(3)
Er1_2 Er 0.77395(4) -0.23443(3) 0.744954(18)
Er1_3 Er 0.77395(4) 1.76557(3) 0.744954(18)
O1_2 O 0.8890(7) 0.6310(5) 0.6752(3)
O3_2 O 0.9679(7) 0.8884(5) 0.7389(3)
Cl1 Cl 0.5837(3) 0.1472(2) 0.88448(13)
O9 O 0.4471(9) 0.1471(10) 0.8391(6)
O10 O 0.6004(12) 0.0388(7) 0.9173(5)
O11 O 0.5890(13) 0.2299(8) 0.9444(6)
O12 O 0.6886(8) 0.1668(8) 0.8319(5)
Cl2 Cl 0.2916(3) 0.5083(3) 0.76436(17)
O13 O 0.1546(13) 0.4835(11) 0.7703(11)
O14 O 0.3901(15) 0.4517(12) 0.8172(6)
O15 O 0.2972(18) 0.6218(12) 0.7858(17)
O16 O 0.3612(14) 0.5051(16) 0.7004(6)
Cl3 Cl 0.9316(3) 0.1536(2) 0.60682(17)
O17 O 0.8479(9) 0.1597(8) 0.6713(4)
O18 O 0.9459(10) 0.0389(7) 0.5826(5)
O19 O 1.0707(13) 0.1950(12) 0.6326(12)
O20 O 0.8776(19) 0.2209(13) 0.5495(8)
loop_
_geom_bond_atom_site_label_1
_geom_bond_atom_site_label_2
_geom_bond_site_symmetry_1
_geom_bond_site_symmetry_2
C1 H1 1_555 1_555
C2 C1 1_555 1_555
H2 C2 1_555 1_555
C3 C2 1_555 1_555
H3 C3 1_555 1_555
C4 C3 1_555 1_555
C5 C4 1_555 1_555
H4 C5 1_555 1_555
C6 C4 1_555 1_555
C7 C8 1_555 1_555
C8 C9 1_555 1_555
C9 H5 1_555 1_555
C10 C9 1_555 1_555
H6 C10 1_555 1_555
C11 C10 1_555 1_555
H7 C11 1_555 1_555
C12 C8 1_555 1_555
H8 C12 1_555 1_555
C13 H9 1_555 1_555
C14 C13 1_555 1_555
H10 C14 1_555 1_555
C15 C14 1_555 1_555
H11 C15 1_555 1_555
C16 C15 1_555 1_555
C17 C16 1_555 1_555
H12 C17 1_555 1_555
C18 C16 1_555 1_555
C19 C20 1_555 1_555
C20 C21 1_555 1_555
C21 H13 1_555 1_555
C22 C21 1_555 1_555
H14 C22 1_555 1_555
C23 C22 1_555 1_555
H15 C23 1_555 1_555
C24 C20 1_555 1_555
H16 C24 1_555 1_555
H17 O8 1_555 1_555
H18 O8 1_555 1_555
H19 O6 1_555 1_555
H20 O5 1_555 1_555
H21 O6 1_555 1_555
H22 O5 1_555 1_555
H23 O7 1_555 1_555
H24 O7 1_555 1_555
H25 N5 1_555 1_555
H26 N5 1_555 1_555
H27 N12 1_555 1_555
H28 N12 1_555 1_555
Er1 O2 1_555 1_555
N1 C11 1_555 1_555
N2 C7 1_555 1_555
N3 C6 1_555 1_555
N4 C6 1_555 1_555
N5 N4 1_555 1_555
N6 C13 1_555 1_555
N7 C1 1_555 1_555
N8 C23 1_555 1_555
N9 C19 1_555 1_555
N10 C18 1_555 1_555
N11 C18 1_555 1_555
N12 N11 1_555 1_555
O1 N8 1_555 1_555
O2 N6 1_555 1_555
O3 N7 1_555 1_555
O4 Er1 1_555 1_555
O5 Er1 1_555 1_555
O6 Er1 1_555 1_555
O7 Er1 1_555 1_555
O8 Er1 1_555 1_555
Cl1 O9 1_555 1_555
O10 Cl1 1_555 1_555
O11 Cl1 1_555 1_555
O12 Cl1 1_555 1_555
Cl2 O13 1_555 1_555
O14 Cl2 1_555 1_555
O15 Cl2 1_555 1_555
O16 Cl2 1_555 1_555
Cl3 O17 1_555 1_555
O18 Cl3 1_555 1_555
O19 Cl3 1_555 1_555
O20 Cl3 1_555 1_555
Er1_2 O3 1_555 1_555
Er1_3 O1 1_555 1_555
O1_2 Er1 1_555 1_555
O3_2 Er1 1_555 1_555
C5 N7 1_555 1_555
C7 N4 1_555 1_555
C12 N1 1_555 1_555
C17 N6 1_555 1_555
C19 N11 1_555 1_555
C24 N8 1_555 1_555
N1 O4 1_555 1_555
N2 N3 1_555 1_555
N9 N10 1_555 1_555

#END
