
#######################################################################
#
#                 Cambridge Crystallographic Data Centre
#                                CCDC 
#
#######################################################################
#
# If this CIF has been generated from an entry in the Cambridge 
# Structural Database, then it will include bibliographic, chemical, 
# crystal, experimental, refinement or atomic coordinate data resulting 
# from the CCDC's data processing and validation procedures.
#
#######################################################################

data_NAKCEI
_symmetry_cell_setting           triclinic
_symmetry_space_group_name_H-M   'P -1'
_symmetry_Int_Tables_number      2
_space_group_name_Hall           '-P 1'
loop_
_symmetry_equiv_pos_site_id
_symmetry_equiv_pos_as_xyz
1 x,y,z
2 -x,-y,-z
_cell_length_a                   7.0328(15)
_cell_length_b                   7.1255(16)
_cell_length_c                   8.4198(19)
_cell_angle_alpha                107.226(4)
_cell_angle_beta                 114.242(4)
_cell_angle_gamma                90.487(4)
_cell_volume                     363.348
loop_
_atom_site_label
_atom_site_type_symbol
_atom_site_fract_x
_atom_site_fract_y
_atom_site_fract_z
Co1 Co 0.5000 0.0000 0.5000
O1 O 0.1895(3) -0.0586(3) 0.3028(3)
N1 N 0.5013(4) 0.3044(3) 0.4985(3)
C1 C 0.6013(5) 0.4568(4) 0.6539(4)
H1 H 0.6766 0.4310 0.7662
O2 O 0.3953(4) 0.0851(4) 0.7030(3)
C2 C 0.4015(5) 0.3486(4) 0.3442(4)
H2 H 0.3308 0.2439 0.2302
H3 H 0.117(5) -0.138(5) 0.316(5)
H4 H 0.317(7) 0.129(7) 0.685(6)
H5 H 0.158(6) -0.087(6) 0.195(5)
H6 H 0.378(7) 0.020(7) 0.782(6)
Co1_2 Co 0.5000 1.0000 0.5000
O1A O 0.8105(3) 0.0586(3) 0.6972(3)
N1A N 0.4987(4) 0.6956(3) 0.5015(3)
N1A_2 N 0.4987(4) -0.3044(3) 0.5015(3)
C1A C 0.3987(5) 0.5432(4) 0.3461(4)
H1A H 0.3234 0.5690 0.2338
O2A O 0.6047(4) -0.0851(4) 0.2970(3)
C2A C 0.5985(5) 0.6514(4) 0.6558(4)
H2A H 0.6692 0.7561 0.7698
H3A H 0.883(5) 0.138(5) 0.684(5)
H4A H 0.683(7) -0.129(7) 0.315(6)
H5A H 0.842(6) 0.087(6) 0.805(5)
H6A H 0.622(7) -0.020(7) 0.218(6)
O3 O -0.0618(4) 0.7147(4) 0.3746(4)
H7 H -0.088(6) 0.601(6) 0.327(5)
H8 H 0.027(9) 0.714(9) 0.502(8)
N2 N 0.1827(4) 0.7887(4) 0.8749(3)
O4 O 0.1951(5) 0.7081(5) 0.7275(4)
O5 O 0.2621(11) 0.9682(11) 0.9435(10)
O6 O 0.1046(14) 0.7074(14) 0.9509(12)
O7? O 0.212(2) 0.9595(18) 0.9799(18)
O8? O 0.121(3) 0.651(2) 0.912(2)
loop_
_geom_bond_atom_site_label_1
_geom_bond_atom_site_label_2
_geom_bond_site_symmetry_1
_geom_bond_site_symmetry_2
Co1 O1 1_555 1_555
O1 H3 1_555 1_555
N1 Co1 1_555 1_555
C1 N1 1_555 1_555
H1 C1 1_555 1_555
O2 Co1 1_555 1_555
C2 N1 1_555 1_555
H2 C2 1_555 1_555
H4 O2 1_555 1_555
H5 O1 1_555 1_555
H6 O2 1_555 1_555
O3 H7 1_555 1_555
H8 O3 1_555 1_555
N2 O4 1_555 1_555
O5 N2 1_555 1_555
O6 N2 1_555 1_555
Co1_2 N1A 1_555 1_555
O1A Co1 1_555 1_555
N1A C1A 1_555 1_555
N1A_2 Co1 1_555 1_555
C1A C2 1_555 1_555
H1A C1A 1_555 1_555
O2A Co1 1_555 1_555
C2A C1 1_555 1_555
H2A C2A 1_555 1_555
H3A O1A 1_555 1_555
H4A O2A 1_555 1_555
H5A O1A 1_555 1_555
H6A O2A 1_555 1_555
N1A C2A 1_555 1_555

#END
