
#######################################################################
#
#                 Cambridge Crystallographic Data Centre
#                                CCDC 
#
#######################################################################
#
# If this CIF has been generated from an entry in the Cambridge 
# Structural Database, then it will include bibliographic, chemical, 
# crystal, experimental, refinement or atomic coordinate data resulting 
# from the CCDC's data processing and validation procedures.
#
#######################################################################

data_NAKGUD
_symmetry_cell_setting           monoclinic
_symmetry_space_group_name_H-M   'P 21/c'
_symmetry_Int_Tables_number      14
_space_group_name_Hall           '-P 2ybc'
loop_
_symmetry_equiv_pos_site_id
_symmetry_equiv_pos_as_xyz
1 x,y,z
2 -x,1/2+y,1/2-z
3 -x,-y,-z
4 x,1/2-y,1/2+z
_cell_length_a                   9.3506(14)
_cell_length_b                   9.6349(14)
_cell_length_c                   7.5820(11)
_cell_angle_alpha                90
_cell_angle_beta                 106.494(2)
_cell_angle_gamma                90
_cell_volume                     654.969
loop_
_atom_site_label
_atom_site_type_symbol
_atom_site_fract_x
_atom_site_fract_y
_atom_site_fract_z
Hg1 Hg -0.14456(2) 0.22784(2) 0.16111(3)
Cl1 Cl -0.34399(16) 0.11222(16) -0.03902(19)
S1 S 0.04651(15) 0.33682(12) 0.39222(17)
S2 S 0.33200(17) 0.20289(15) 0.6237(2)
N1 N 0.1231(5) 0.0671(4) 0.4006(6)
N2 N 0.2312(5) -0.0280(5) 0.4830(6)
C1 C 0.1594(5) 0.1921(5) 0.4617(6)
C2 C 0.3449(6) 0.0267(6) 0.6010(7)
H1 H 0.4264 -0.0249 0.6677
Hg1A Hg 0.14456(2) -0.27216(2) 0.33889(3)
N2A N -0.2312(5) 0.4720(5) 0.0170(6)
loop_
_geom_bond_atom_site_label_1
_geom_bond_atom_site_label_2
_geom_bond_site_symmetry_1
_geom_bond_site_symmetry_2
Hg1 Cl1 1_555 1_555
S1 Hg1 1_555 1_555
S2 C1 1_555 1_555
N1 N2 1_555 1_555
N2 C2 1_555 1_555
C1 S1 1_555 1_555
C2 S2 1_555 1_555
H1 C2 1_555 1_555
Hg1A N2 1_555 1_555
N2A Hg1 1_555 1_555
N1 C1 1_555 1_555

#END
