
#######################################################################
#
#                 Cambridge Crystallographic Data Centre
#                                CCDC 
#
#######################################################################
#
# If this CIF has been generated from an entry in the Cambridge 
# Structural Database, then it will include bibliographic, chemical, 
# crystal, experimental, refinement or atomic coordinate data resulting 
# from the CCDC's data processing and validation procedures.
#
#######################################################################

data_NAKQOF
_symmetry_cell_setting           monoclinic
_symmetry_space_group_name_H-M   'P 21/c'
_symmetry_Int_Tables_number      14
_space_group_name_Hall           '-P 2ybc'
loop_
_symmetry_equiv_pos_site_id
_symmetry_equiv_pos_as_xyz
1 x,y,z
2 -x,1/2+y,1/2-z
3 -x,-y,-z
4 x,1/2-y,1/2+z
_cell_length_a                   10.1988(9)
_cell_length_b                   28.467(3)
_cell_length_c                   11.236(1)
_cell_angle_alpha                90
_cell_angle_beta                 93.035(2)
_cell_angle_gamma                90
_cell_volume                     3257.56
loop_
_atom_site_label
_atom_site_type_symbol
_atom_site_fract_x
_atom_site_fract_y
_atom_site_fract_z
P1 P -1.1803(3) 0.14343(10) 0.4248(3)
P2 P -1.3474(3) 0.15458(10) -0.0334(3)
O1 O -1.1408(7) 0.1703(2) 0.3176(7)
O2 O -1.2666(8) 0.1685(2) 0.5078(7)
O3 O -1.0544(8) 0.1263(2) 0.4993(7)
O4 O -1.2517(7) 0.0985(2) 0.3719(6)
O5 O -1.2880(8) 0.1767(3) 0.0806(8)
O6 O -1.3957(8) 0.1862(3) -0.1294(8)
O7 O -1.2418(8) 0.1223(3) -0.0933(7)
O8 O -1.4588(8) 0.1220(2) 0.0104(7)
N1 N -0.4316(9) 0.2162(3) 0.3197(8)
N2 N -1.2031(9) 0.2754(3) 0.2109(8)
C1 C -0.929(1) 0.1067(4) 0.456(1)
C2 C -0.851(1) 0.1464(4) 0.407(1)
C3 C -0.864(1) 0.0864(5) 0.568(1)
C4 C -0.957(1) 0.0690(4) 0.364(1)
C5 C -1.338(1) 0.0665(4) 0.431(1)
C6 C -1.473(1) 0.0920(5) 0.437(2)
C7 C -1.284(1) 0.0540(5) 0.557(1)
C8 C -1.348(1) 0.0240(4) 0.353(1)
C9 C -1.141(1) 0.0905(4) -0.031(1)
C10 C -1.030(1) 0.1222(5) 0.015(1)
C11 C -1.198(1) 0.0628(4) 0.067(1)
C12 C -1.101(2) 0.0609(5) -0.134(1)
C13 C -1.563(1) 0.1009(4) -0.067(1)
C14 C -1.625(2) 0.0654(7) 0.024(2)
C15 C -1.667(1) 0.1381(4) -0.101(1)
C16 C -1.513(2) 0.07741(7) -0.173(2)
C17 C -0.561(1) 0.2061(4) 0.264(1)
C18 C -0.592(1) 0.2385(4) 0.158(1)
C19 C -0.739(1) 0.2365(4) 0.116(1)
C20 C -0.828(1) 0.2637(4) 0.198(1)
C21 C -0.972(1) 0.2569(4) 0.1597(10)
C22 C -1.062(1) 0.2837(4) 0.244(1)
Zn1 Zn -0.2676(1) 0.20930(4) 0.2232(1)
H1 H -0.7706 0.1348 0.3808
H2 H -0.9001 0.1604 0.3418
H3 H -0.8344 0.1694 0.4674
H4 H -0.9179 0.0628 0.5988
H5 H -0.7814 0.0732 0.5502
H6 H -0.8499 0.1106 0.6257
H7 H -1.0040 0.0441 0.3990
H8 H -1.0086 0.0819 0.2992
H9 H -0.8769 0.0575 0.3370
H10 H -1.4617 0.1202 0.4815
H11 H -1.5074 0.0990 0.3591
H12 H -1.5330 0.0721 0.4757
H13 H -1.3417 0.0326 0.5921
H14 H -1.1998 0.0401 0.5524
H15 H -1.2769 0.0818 0.6035
H16 H -1.4022 0.0011 0.3883
H17 H -1.3867 0.0324 0.2769
H18 H -1.2636 0.0113 0.3440
H19 H -0.9631 0.1040 0.0545
H20 H -0.9935 0.1382 -0.0508
H21 H -1.0618 0.1448 0.0681
H22 H -1.2313 0.0838 0.1242
H23 H -1.2682 0.0438 0.0348
H24 H -1.1325 0.0435 0.1040
H25 H -1.1749 0.0444 -0.1674
H26 H -1.0660 0.0805 -0.1930
H27 H -1.0356 0.0390 -0.1064
H28 H -1.6558 0.0821 0.0892
H29 H -1.6949 0.0487 -0.0158
H30 H -1.5590 0.0435 0.0517
H31 H -1.6277 0.1629 -0.1426
H32 H -1.7348 0.1242 -0.1501
H33 H -1.7027 0.1501 -0.0305
H34 H -1.5847 0.0643 -0.2196
H35 H -1.46863 0.0995 -0.2195
H36 H -1.4540 0.0529 -0.1485
H37 H -0.4200 0.1958 0.3864
H38 H -0.4335 0.2478 0.3464
H39 H -1.2183 0.2853 0.1305
H40 H -1.2527 0.2944 0.2614
H41 H -0.5622 0.1744 0.2369
H42 H -0.6250 0.2102 0.3210
H43 H -0.5711 0.2699 0.1802
H44 H -0.5412 0.2294 0.0934
H45 H -0.7501 0.2494 0.0379
H46 H -0.7670 0.2045 0.1137
H47 H -0.8129 0.2526 0.2776
H48 H -0.8068 0.2962 0.1951
H49 H -0.9876 0.2685 0.0808
H50 H -0.9930 0.2244 0.1614
H51 H -1.0434 0.3163 0.2396
H52 H -1.0430 0.2731 0.3235
Zn1_2 Zn -1.2676(1) 0.20930(4) 0.2232(1)
N1_2 N -1.4316(9) 0.2162(3) 0.3197(8)
H37_2 H -1.4200 0.1958 0.3864
H38_2 H -1.4335 0.2478 0.3464
loop_
_geom_bond_atom_site_label_1
_geom_bond_atom_site_label_2
_geom_bond_site_symmetry_1
_geom_bond_site_symmetry_2
P1 O1 1_555 1_555
P2 O5 1_555 1_555
O1 Zn1_2 1_555 1_555
O2 P1 1_555 1_555
O3 P1 1_555 1_555
O4 P1 1_555 1_555
O5 Zn1_2 1_555 1_555
O6 P2 1_555 1_555
O7 P2 1_555 1_555
O8 P2 1_555 1_555
N1 C17 1_555 1_555
N2 C22 1_555 1_555
C1 O3 1_555 1_555
C2 C1 1_555 1_555
C3 C1 1_555 1_555
C4 C1 1_555 1_555
C5 O4 1_555 1_555
C6 C5 1_555 1_555
C7 C5 1_555 1_555
C8 C5 1_555 1_555
C9 O7 1_555 1_555
C10 C9 1_555 1_555
C11 C9 1_555 1_555
C12 C9 1_555 1_555
C13 O8 1_555 1_555
C14 C13 1_555 1_555
C15 C13 1_555 1_555
C16 C13 1_555 1_555
C17 C18 1_555 1_555
C18 C19 1_555 1_555
C19 C20 1_555 1_555
C20 C21 1_555 1_555
C21 C22 1_555 1_555
C22 H51 1_555 1_555
Zn1 N1 1_555 1_555
H1 C2 1_555 1_555
H2 C2 1_555 1_555
H3 C2 1_555 1_555
H4 C3 1_555 1_555
H5 C3 1_555 1_555
H6 C3 1_555 1_555
H7 C4 1_555 1_555
H8 C4 1_555 1_555
H9 C4 1_555 1_555
H10 C6 1_555 1_555
H11 C6 1_555 1_555
H12 C6 1_555 1_555
H13 C7 1_555 1_555
H14 C7 1_555 1_555
H15 C7 1_555 1_555
H16 C8 1_555 1_555
H17 C8 1_555 1_555
H18 C8 1_555 1_555
H19 C10 1_555 1_555
H20 C10 1_555 1_555
H21 C10 1_555 1_555
H22 C11 1_555 1_555
H23 C11 1_555 1_555
H24 C11 1_555 1_555
H25 C12 1_555 1_555
H26 C12 1_555 1_555
H27 C12 1_555 1_555
H28 C14 1_555 1_555
H29 C14 1_555 1_555
H30 C14 1_555 1_555
H31 C15 1_555 1_555
H32 C15 1_555 1_555
H33 C15 1_555 1_555
H34 C16 1_555 1_555
H35 C16 1_555 1_555
H36 C16 1_555 1_555
H37 N1 1_555 1_555
H38 N1 1_555 1_555
H39 N2 1_555 1_555
H40 N2 1_555 1_555
H41 C17 1_555 1_555
H42 C17 1_555 1_555
H43 C18 1_555 1_555
H44 C18 1_555 1_555
H45 C19 1_555 1_555
H46 C19 1_555 1_555
H47 C20 1_555 1_555
H48 C20 1_555 1_555
H49 C21 1_555 1_555
H50 C21 1_555 1_555
H52 C22 1_555 1_555
Zn1_2 N2 1_555 1_555
N1_2 Zn1_2 1_555 1_555
H37_2 N1_2 1_555 1_555
H38_2 N1_2 1_555 1_555

#END
