
#######################################################################
#
#                 Cambridge Crystallographic Data Centre
#                                CCDC 
#
#######################################################################
#
# If this CIF has been generated from an entry in the Cambridge 
# Structural Database, then it will include bibliographic, chemical, 
# crystal, experimental, refinement or atomic coordinate data resulting 
# from the CCDC's data processing and validation procedures.
#
#######################################################################

data_NAKTAW
_symmetry_cell_setting           monoclinic
_symmetry_space_group_name_H-M   'P 21/n'
_symmetry_Int_Tables_number      14
_space_group_name_Hall           '-P 2yn'
loop_
_symmetry_equiv_pos_site_id
_symmetry_equiv_pos_as_xyz
1 x,y,z
2 1/2-x,1/2+y,1/2-z
3 -x,-y,-z
4 1/2+x,1/2-y,1/2+z
_cell_length_a                   6.4752(4)
_cell_length_b                   9.7627(6)
_cell_length_c                   10.9079(6)
_cell_angle_alpha                90
_cell_angle_beta                 103.041(2)
_cell_angle_gamma                90
_cell_volume                     671.763
loop_
_atom_site_label
_atom_site_type_symbol
_atom_site_fract_x
_atom_site_fract_y
_atom_site_fract_z
Ca1 Ca 0.08356(4) 0.55299(2) 0.17359(2)
O1 O -0.22252(16) 0.39733(10) 0.20098(8)
O2 O -0.25830(16) 0.22314(10) 0.70724(8)
O3 O -0.40728(15) 0.13090(9) 0.52331(8)
O4 O -0.30507(15) 0.19962(9) 0.28239(8)
O5 O 0.38501(16) 0.60082(11) 0.08033(10)
H1 H 0.5147 0.6114 0.1164
H2 H 0.3763 0.5845 0.0028
C1 C -0.26916(17) 0.32726(12) 0.28690(10)
C2 C -0.27309(17) 0.39902(11) 0.40685(10)
C3 C -0.31453(17) 0.22884(12) 0.58996(11)
C4 C -0.23120(19) 0.57835(12) 0.53133(11)
H3 H -0.2128 0.6687 0.5586
C5 C -0.27759(17) 0.35991(11) 0.52820(10)
N1 N -0.24822(16) 0.47378(10) 0.60526(9)
N2 N -0.24362(16) 0.53860(10) 0.41286(10)
H4 H -0.2347 0.5911 0.3510
Ca1B Ca -0.08356(4) 0.44701(2) 0.82641(2)
Ca1A Ca -0.58356(4) 0.05299(2) 0.32641(2)
Ca1C Ca -0.41644(4) -0.05299(2) 0.67359(2)
O2B O 0.25830(16) 0.77686(10) 0.29276(8)
O3A O -0.09272(15) 0.63090(9) -0.02331(8)
O3C O 0.09272(15) 0.36910(9) 0.02331(8)
O4A O -0.19493(15) 0.69962(9) 0.21761(8)
N1B N 0.24822(16) 0.52622(10) 0.39474(9)
loop_
_geom_bond_atom_site_label_1
_geom_bond_atom_site_label_2
_geom_bond_site_symmetry_1
_geom_bond_site_symmetry_2
Ca1 O1 1_555 1_555
O1 C1 1_555 1_555
O2 C3 1_555 1_555
O3 C3 1_555 1_555
O4 C1 1_555 1_555
O5 Ca1 1_555 1_555
H1 O5 1_555 1_555
H2 O5 1_555 1_555
C1 C2 1_555 1_555
C2 C5 1_555 1_555
C3 C5 1_555 1_555
C4 H3 1_555 1_555
C5 N1 1_555 1_555
N1 C4 1_555 1_555
N2 C2 1_555 1_555
H4 N2 1_555 1_555
Ca1B O2 1_555 1_555
Ca1A O3 1_555 1_555
Ca1C O3 1_555 1_555
O2B Ca1 1_555 1_555
O3A Ca1 1_555 1_555
O3C Ca1 1_555 1_555
O4A Ca1 1_555 1_555
N1B Ca1 1_555 1_555
O4 Ca1A 1_555 1_555
C4 N2 1_555 1_555
N1 Ca1B 1_555 1_555

#END
