
#######################################################################
#
#                 Cambridge Crystallographic Data Centre
#                                CCDC 
#
#######################################################################
#
# If this CIF has been generated from an entry in the Cambridge 
# Structural Database, then it will include bibliographic, chemical, 
# crystal, experimental, refinement or atomic coordinate data resulting 
# from the CCDC's data processing and validation procedures.
#
#######################################################################

data_NAKXOM
_symmetry_cell_setting           monoclinic
_symmetry_space_group_name_H-M   'P 21/n'
_symmetry_Int_Tables_number      14
_space_group_name_Hall           '-P 2yn'
loop_
_symmetry_equiv_pos_site_id
_symmetry_equiv_pos_as_xyz
1 x,y,z
2 1/2-x,1/2+y,1/2-z
3 -x,-y,-z
4 1/2+x,1/2-y,1/2+z
_cell_length_a                   9.560(3)
_cell_length_b                   10.679(2)
_cell_length_c                   23.989(3)
_cell_angle_alpha                90
_cell_angle_beta                 100.16(2)
_cell_angle_gamma                90
_cell_volume                     2410.66
loop_
_atom_site_label
_atom_site_type_symbol
_atom_site_fract_x
_atom_site_fract_y
_atom_site_fract_z
Sn1 Sn 0.28426(3) 0.77546(3) -0.22679(1)
F1 F 0.4571(4) 0.2059(3) -0.0588(1)
F2 F 0.6317(5) 0.0835(3) 0.0223(1)
F3 F 0.8581(4) 0.1981(4) 0.0827(1)
F4 F 0.9087(4) 0.4421(4) 0.0624(2)
F5 F 0.7359(4) 0.5674(3) -0.0189(1)
O1 O 0.3398(3) 0.6262(2) -0.1635(1)
O2 O 0.2414(3) 0.9641(3) -0.2826(1)
C1 C 0.3291(5) 0.5086(4) -0.1732(2)
C2 C 0.4064(5) 0.4248(4) -0.1291(2)
C3 C 0.5034(5) 0.4650(4) -0.0876(2)
C4 C 0.5915(5) 0.3930(5) -0.0431(2)
C5 C 0.5688(6) 0.2678(5) -0.0305(2)
C6 C 0.6584(7) 0.2029(5) 0.0115(2)
C7 C 0.7707(7) 0.2612(6) 0.0426(2)
C8 C 0.7976(6) 0.3838(7) 0.0321(2)
C9 C 0.7068(6) 0.4477(5) -0.0100(2)
C10 C 0.0612(6) 0.7775(6) -0.2293(3)
C11 C -0.0114(6) 0.6658(6) -0.2125(3)
C12 C -0.1694(7) 0.6650(9) -0.2222(4)
C13 C -0.2388(8) 0.5566(8) -0.2013(5)
C14 C 0.3637(6) 0.6821(5) -0.2940(2)
C15 C 0.4481(8) 0.7522(6) -0.3280(3)
C16 C 0.493(1) 0.6724(8) -0.3744(4)
C17 C 0.556(2) 0.730(1) -0.4109(7)
C18 C 0.4209(7) 0.8973(5) -0.1714(2)
C19 C 0.5568(6) 0.8459(6) -0.1403(3)
C20 C 0.6616(7) 0.9339(6) -0.1079(3)
C21 C 0.7854(8) 0.8825(9) -0.0721(4)
H1 H 0.3842 0.3361 -0.1311
H2 H 0.5187 0.5548 -0.0862
H3 H 0.0177 0.7963 -0.2681
H4 H 0.0419 0.8451 -0.2047
H5 H 0.0213 0.6537 -0.1722
H6 H 0.0182 0.5952 -0.2331
H7 H -0.2025 0.6701 -0.2628
H8 H -0.1996 0.7389 -0.2041
H9 H -0.2112 0.4810 -0.2189
H10 H -0.3411 0.5667 -0.2106
H11 H -0.2101 0.5505 -0.1605
H12 H 0.4220 0.6130 -0.2771
H13 H 0.2821 0.6497 -0.3198
H14 H 0.3924 0.8224 -0.3453
H15 H 0.5327 0.7831 -0.3035
H16 H 0.5569 0.6083 -0.3562
H17 H 0.4079 0.6333 -0.3953
H18 H 0.4960 0.7971 -0.4288
H19 H 0.5750 0.6714 -0.4395
H20 H 0.6455 0.7651 -0.3915
H21 H 0.3674 0.9278 -0.1434
H22 H 0.4444 0.9670 -0.1941
H23 H 0.6038 0.8043 -0.1679
H24 H 0.5330 0.7847 -0.1136
H25 H 0.6112 0.9836 -0.0840
H26 H 0.6951 0.9880 -0.1353
H27 H 0.8478 0.9500 -0.0563
H28 H 0.8353 0.8278 -0.0942
H29 H 0.7562 0.8350 -0.0416
C1A C 0.1709(5) 1.0086(4) -0.3268(2)
O2A O 0.2586(3) 0.4641(3) -0.2174(1)
loop_
_geom_bond_atom_site_label_1
_geom_bond_atom_site_label_2
_geom_bond_site_symmetry_1
_geom_bond_site_symmetry_2
Sn1 O1 1_555 1_555
F1 C5 1_555 1_555
F2 C6 1_555 1_555
F3 C7 1_555 1_555
F4 C8 1_555 1_555
F5 C9 1_555 1_555
O1 C1 1_555 1_555
O2 Sn1 1_555 1_555
C1 C2 1_555 1_555
C2 C3 1_555 1_555
C3 C4 1_555 1_555
C4 C5 1_555 1_555
C5 C6 1_555 1_555
C6 C7 1_555 1_555
C7 C8 1_555 1_555
C8 C9 1_555 1_555
C9 C4 1_555 1_555
C10 Sn1 1_555 1_555
C11 C10 1_555 1_555
C12 C11 1_555 1_555
C13 C12 1_555 1_555
C14 Sn1 1_555 1_555
C15 C14 1_555 1_555
C16 C15 1_555 1_555
C17 C16 1_555 1_555
C18 Sn1 1_555 1_555
C19 C18 1_555 1_555
C20 C19 1_555 1_555
C21 C20 1_555 1_555
H1 C2 1_555 1_555
H2 C3 1_555 1_555
H3 C10 1_555 1_555
H4 C10 1_555 1_555
H5 C11 1_555 1_555
H6 C11 1_555 1_555
H7 C12 1_555 1_555
H8 C12 1_555 1_555
H9 C13 1_555 1_555
H10 C13 1_555 1_555
H11 C13 1_555 1_555
H12 C14 1_555 1_555
H13 C14 1_555 1_555
H14 C15 1_555 1_555
H15 C15 1_555 1_555
H16 C16 1_555 1_555
H17 C16 1_555 1_555
H18 C17 1_555 1_555
H19 C17 1_555 1_555
H20 C17 1_555 1_555
H21 C18 1_555 1_555
H22 C18 1_555 1_555
H23 C19 1_555 1_555
H24 C19 1_555 1_555
H25 C20 1_555 1_555
H26 C20 1_555 1_555
H27 C21 1_555 1_555
H28 C21 1_555 1_555
H29 C21 1_555 1_555
C1A O2 1_555 1_555
O2A C1 1_555 1_555

#END
