
#######################################################################
#
#                 Cambridge Crystallographic Data Centre
#                                CCDC 
#
#######################################################################
#
# If this CIF has been generated from an entry in the Cambridge 
# Structural Database, then it will include bibliographic, chemical, 
# crystal, experimental, refinement or atomic coordinate data resulting 
# from the CCDC's data processing and validation procedures.
#
#######################################################################

data_NALBEJ
_symmetry_cell_setting           triclinic
_symmetry_space_group_name_H-M   'P -1'
_symmetry_Int_Tables_number      2
_space_group_name_Hall           '-P 1'
loop_
_symmetry_equiv_pos_site_id
_symmetry_equiv_pos_as_xyz
1 x,y,z
2 -x,-y,-z
_cell_length_a                   10.7800(4)
_cell_length_b                   10.8978(3)
_cell_length_c                   11.4048(3)
_cell_angle_alpha                89.383(2)
_cell_angle_beta                 62.9890(10)
_cell_angle_gamma                62.678(6)
_cell_volume                     1026.9
loop_
_atom_site_label
_atom_site_type_symbol
_atom_site_fract_x
_atom_site_fract_y
_atom_site_fract_z
Eu1 Eu 0.222361(16) 0.944055(13) 0.073400(13)
S1 S 0.84263(11) 0.67200(9) 0.32120(9)
O1 O 0.4314(3) 0.8569(3) 0.1429(3)
O2 O 0.3992(3) 0.6830(3) 0.0953(3)
O3 O 0.8412(4) 0.1844(3) 0.0243(3)
O4 O 0.9706(3) 0.1556(3) 0.1368(3)
O5 O 1.0036(4) 0.6411(4) 0.2226(3)
O6 O 0.8400(4) 0.6030(3) 0.4321(3)
O7 O 0.7229(4) 0.8236(3) 0.3736(3)
O9 O 0.1051(3) 1.0804(3) 0.3032(3)
H1 H 0.1453 1.0318 0.3474
H2 H 0.0801 1.1650 0.3258
O10 O 0.3042(4) 1.1235(3) 0.0498(4)
H3 H 0.3387 1.1230 0.1028
H4 H 0.3771 1.1045 -0.0306
O11 O 0.4909(4) 0.8044(3) -0.1330(3)
H5 H 0.5216 0.8429 -0.1957
H6 H 0.5598 0.7170 -0.1571
O12 O 0.0462(4) 0.8763(3) 0.2470(3)
H7 H -0.0306 0.9237 0.3254
H8 H 0.0447 0.8044 0.2251
O13 O 0.2265(4) 1.0292(4) -0.1370(3)
H9 H 0.3014 1.0388 -0.1953
H10 H 0.1451 1.0708 -0.1456
C1 C 0.4710(4) 0.7263(4) 0.1275(3)
C2 C 0.6071(4) 0.6265(3) 0.1492(3)
C3 C 0.6773(4) 0.4793(3) 0.1120(3)
H17 H 0.6427 0.4402 0.0698
C4 C 0.7996(4) 0.3904(3) 0.1383(3)
C5 C 0.8531(4) 0.4479(3) 0.1990(3)
H18 H 0.9366 0.3882 0.2142
C6 C 0.7815(4) 0.5957(3) 0.2375(4)
C7 C 0.6609(4) 0.6842(3) 0.2107(3)
H19 H 0.6157 0.7825 0.2338
C8 C 0.8774(4) 0.2302(3) 0.0962(3)
Eu1A Eu 0.777639(16) 0.055945(13) -0.073400(13)
Eu1_2 Eu 1.222361(16) -0.055945(13) 0.073400(13)
Eu1A_2 Eu -0.222361(16) 1.055945(13) -0.073400(13)
S1A S 0.15737(11) 0.32800(9) -0.32120(9)
O1A O 0.5686(3) 0.1431(3) -0.1429(3)
O2A O 0.6008(3) 0.3170(3) -0.0953(3)
O3A O 0.1588(4) 0.8156(3) -0.0243(3)
O4A O 0.0294(3) 0.8444(3) -0.1368(3)
O4_2 O -0.0294(3) 1.1556(3) 0.1368(3)
O4A_2 O 1.0294(3) -0.1556(3) -0.1368(3)
O5A O -0.0036(4) 0.3589(4) -0.2226(3)
O6A O 0.1600(4) 0.3970(3) -0.4321(3)
O7A O 0.2771(4) 0.1764(3) -0.3736(3)
O9A O 0.8949(3) -0.0804(3) -0.3032(3)
H1A H 0.8547 -0.0318 -0.3474
H2A H 0.9199 -0.1650 -0.3258
O10A O 0.6958(4) -0.1235(3) -0.0498(4)
H3A H 0.6613 -0.1230 -0.1028
H4A H 0.6229 -0.1045 0.0306
O11A O 0.5091(4) 0.1956(3) 0.1330(3)
H5A H 0.4784 0.1571 0.1957
H6A H 0.4402 0.2830 0.1571
O12A O 0.9538(4) 0.1237(3) -0.2470(3)
H7A H 1.0306 0.0763 -0.3254
H8A H 0.9553 0.1956 -0.2251
O13A O 0.7735(4) -0.0292(4) 0.1370(3)
H9A H 0.6986 -0.0388 0.1953
H10A H 0.8549 -0.0708 0.1456
C1A C 0.5290(4) 0.2737(4) -0.1275(3)
C2A C 0.3929(4) 0.3735(3) -0.1492(3)
C3A C 0.3227(4) 0.5207(3) -0.1120(3)
H17A H 0.3573 0.5598 -0.0698
C4A C 0.2004(4) 0.6096(3) -0.1383(3)
C5A C 0.1469(4) 0.5521(3) -0.1990(3)
H18A H 0.0634 0.6118 -0.2142
C6A C 0.2185(4) 0.4043(3) -0.2375(4)
C7A C 0.3391(4) 0.3158(3) -0.2107(3)
H19A H 0.3843 0.2175 -0.2338
C8A C 0.1226(4) 0.7698(3) -0.0962(3)
O8 O 0.1731(4) 0.9846(3) 0.4955(3)
N1 N 0.2607(4) 0.8511(3) 0.4986(3)
C9 C 0.3563(5) 0.8243(4) 0.5518(4)
H20 H 0.3592 0.8988 0.5872
C10 C 0.4495(5) 0.6877(4) 0.5543(4)
H21 H 0.5150 0.6705 0.5916
C11 C 0.4475(4) 0.5746(4) 0.5022(3)
C12 C 0.3437(5) 0.6074(4) 0.4505(4)
H22 H 0.3361 0.5351 0.4174
C13 C 0.2525(5) 0.7454(4) 0.4480(4)
H23 H 0.1856 0.7657 0.4116
O8A O 0.8269(4) 0.0154(3) 0.5045(3)
N1A N 0.7393(4) 0.1489(3) 0.5014(3)
C9A C 0.6437(5) 0.1757(4) 0.4482(4)
H20A H 0.6408 0.1012 0.4128
C10A C 0.5505(5) 0.3123(4) 0.4457(4)
H21A H 0.4850 0.3295 0.4084
C11A C 0.5525(4) 0.4254(4) 0.4978(3)
C12A C 0.6563(5) 0.3926(4) 0.5495(4)
H22A H 0.6639 0.4649 0.5826
C13A C 0.7475(5) 0.2546(4) 0.5520(4)
H23A H 0.8144 0.2343 0.5884
O14 O 0.1006(6) 1.3246(4) 0.3568(5)
H11 H 0.0007 1.3802 0.4141
H12 H 0.1513 1.3186 0.3980
O15 O 0.5761(4) 0.9318(4) -0.3410(3)
H13 H 0.6177 0.9731 -0.3246
H14 H 0.6113 0.9114 -0.4245
O16 O 0.6904(4) 0.5181(3) -0.2118(3)
H15 H 0.6327 0.4968 -0.1455
H16 H 0.7768 0.4929 -0.2110
loop_
_geom_bond_atom_site_label_1
_geom_bond_atom_site_label_2
_geom_bond_site_symmetry_1
_geom_bond_site_symmetry_2
Eu1 O1 1_555 1_555
S1 O5 1_555 1_555
O1 C1 1_555 1_555
O2 Eu1 1_555 1_555
O3 C8 1_555 1_555
O4 C8 1_555 1_555
O6 S1 1_555 1_555
O7 S1 1_555 1_555
O8 N1 1_555 1_555
O9 Eu1 1_555 1_555
H1 O9 1_555 1_555
H2 O9 1_555 1_555
O10 Eu1 1_555 1_555
H3 O10 1_555 1_555
H4 O10 1_555 1_555
O11 Eu1 1_555 1_555
H5 O11 1_555 1_555
H6 O11 1_555 1_555
O12 Eu1 1_555 1_555
H7 O12 1_555 1_555
H8 O12 1_555 1_555
O13 Eu1 1_555 1_555
H9 O13 1_555 1_555
H10 O13 1_555 1_555
O14 H11 1_555 1_555
H12 O14 1_555 1_555
O15 H13 1_555 1_555
H14 O15 1_555 1_555
O16 H15 1_555 1_555
H16 O16 1_555 1_555
N1 C9 1_555 1_555
C1 O2 1_555 1_555
C2 C1 1_555 1_555
C3 C2 1_555 1_555
H17 C3 1_555 1_555
C4 C3 1_555 1_555
C5 C4 1_555 1_555
H18 C5 1_555 1_555
C6 S1 1_555 1_555
C7 C2 1_555 1_555
H19 C7 1_555 1_555
C8 C4 1_555 1_555
C9 H20 1_555 1_555
C10 C9 1_555 1_555
H21 C10 1_555 1_555
C11 C10 1_555 1_555
C12 C11 1_555 1_555
H22 C12 1_555 1_555
C13 N1 1_555 1_555
H23 C13 1_555 1_555
Eu1A O3 1_555 1_555
Eu1_2 O4 1_555 1_555
Eu1A_2 O4A 1_555 1_555
S1A O5A 1_555 1_555
O1A Eu1A 1_555 1_555
O2A Eu1A 1_555 1_555
O3A Eu1 1_555 1_555
O4A C8A 1_555 1_555
O4_2 Eu1 1_555 1_555
O4A_2 Eu1A 1_555 1_555
O6A S1A 1_555 1_555
O7A S1A 1_555 1_555
O8A N1A 1_555 1_555
O9A Eu1A 1_555 1_555
H1A O9A 1_555 1_555
H2A O9A 1_555 1_555
O10A Eu1A 1_555 1_555
H3A O10A 1_555 1_555
H4A O10A 1_555 1_555
O11A Eu1A 1_555 1_555
H5A O11A 1_555 1_555
H6A O11A 1_555 1_555
O12A Eu1A 1_555 1_555
H7A O12A 1_555 1_555
H8A O12A 1_555 1_555
O13A Eu1A 1_555 1_555
H9A O13A 1_555 1_555
H10A O13A 1_555 1_555
N1A C9A 1_555 1_555
C1A O1A 1_555 1_555
C2A C1A 1_555 1_555
C3A C2A 1_555 1_555
H17A C3A 1_555 1_555
C4A C3A 1_555 1_555
C5A C4A 1_555 1_555
H18A C5A 1_555 1_555
C6A S1A 1_555 1_555
C7A C2A 1_555 1_555
H19A C7A 1_555 1_555
C8A O3A 1_555 1_555
C9A H20A 1_555 1_555
C10A C9A 1_555 1_555
H21A C10A 1_555 1_555
C11A C11 1_555 1_555
C12A C11A 1_555 1_555
H22A C12A 1_555 1_555
C13A N1A 1_555 1_555
H23A C13A 1_555 1_555
C5 C6 1_555 1_555
C6 C7 1_555 1_555
C12 C13 1_555 1_555
O2A C1A 1_555 1_555
C4A C8A 1_555 1_555
C5A C6A 1_555 1_555
C6A C7A 1_555 1_555
C10A C11A 1_555 1_555
C12A C13A 1_555 1_555

#END
