
#######################################################################
#
#                 Cambridge Crystallographic Data Centre
#                                CCDC 
#
#######################################################################
#
# If this CIF has been generated from an entry in the Cambridge 
# Structural Database, then it will include bibliographic, chemical, 
# crystal, experimental, refinement or atomic coordinate data resulting 
# from the CCDC's data processing and validation procedures.
#
#######################################################################

data_NALCEK
_symmetry_cell_setting           monoclinic
_symmetry_space_group_name_H-M   'P 21/c'
_symmetry_Int_Tables_number      14
_space_group_name_Hall           '-P 2ybc'
loop_
_symmetry_equiv_pos_site_id
_symmetry_equiv_pos_as_xyz
1 x,y,z
2 -x,1/2+y,1/2-z
3 -x,-y,-z
4 x,1/2-y,1/2+z
_cell_length_a                   16.0115(16)
_cell_length_b                   15.3636(16)
_cell_length_c                   7.7962(8)
_cell_angle_alpha                90
_cell_angle_beta                 97.9280(10)
_cell_angle_gamma                90
_cell_volume                     1899.49
loop_
_atom_site_label
_atom_site_type_symbol
_atom_site_fract_x
_atom_site_fract_y
_atom_site_fract_z
Ca1 Ca 0.24944(3) 0.78080(3) 0.25589(6)
C1 C 0.45779(14) 0.63295(14) 0.1201(3)
N1 N 0.58144(13) 0.54488(14) 0.1998(3)
C2 C 0.48749(15) 0.65988(16) -0.0265(3)
H1 H 0.4562 0.6989 -0.1008
C3 C 0.50824(16) 0.57576(17) 0.2313(3)
H2 H 0.4887 0.5587 0.3331
C4 C 0.37390(15) 0.66290(14) 0.1614(3)
C5 C 0.61064(15) 0.57047(16) 0.0508(3)
C6 C 0.56531(16) 0.62891(17) -0.0660(3)
C7 C 0.68710(17) 0.53586(18) 0.0112(4)
H3 H 0.7182 0.4980 0.0885
C8 C 0.59749(19) 0.6509(2) -0.2199(4)
H4 H 0.5687 0.6903 -0.2970
C9 C 0.71558(19) 0.5574(2) -0.1385(4)
H5 H 0.7659 0.5337 -0.1638
C10 C 0.6704(2) 0.6145(3) -0.2557(5)
H6 H 0.6904 0.6279 -0.3590
N2 N 0.00972(12) 0.44091(13) 0.2997(3)
C11 C 0.15016(13) 0.63803(14) 0.3447(3)
C12 C 0.11785(14) 0.54892(15) 0.3760(3)
C13 C 0.04213(15) 0.51849(15) 0.2802(3)
H7 H 0.0134 0.5556 0.1982
C14 C 0.16177(15) 0.49416(16) 0.4924(3)
H8 H 0.2113 0.5129 0.5586
C15 C 0.02177(17) 0.30129(17) 0.4363(4)
H9 H -0.0301 0.2856 0.3752
C16 C 0.13216(16) 0.40902(15) 0.5126(3)
C17 C 0.05460(16) 0.38521(15) 0.4152(3)
C18 C 0.0653(2) 0.24367(19) 0.5447(4)
H10 H 0.0433 0.1884 0.5569
C19 C 0.17626(18) 0.34683(18) 0.6242(4)
H11 H 0.2280 0.3612 0.6876
C20 C 0.1433(2) 0.26606(19) 0.6392(4)
H12 H 0.1727 0.2254 0.7126
O1 O 0.18843(9) 0.67991(10) 0.47024(19)
O2 O 0.14006(10) 0.66737(10) 0.1932(2)
O3 O 0.36040(11) 0.66234(11) 0.3145(2)
O4 O 0.32086(9) 0.69201(10) 0.0404(2)
O5 O 0.15496(10) 0.88329(10) 0.3557(2)
H13 H 0.1487 0.8714 0.4588
H14 H 0.1156 0.9051 0.3282
O6 O 0.34752(10) 0.88362(11) 0.1592(2)
H15 H 0.3577 0.8785 0.0459
H16 H 0.3751 0.9313 0.1964
Ca1C Ca 0.24944(3) 0.71920(3) 0.75589(6)
Ca1C_2 Ca 0.24944(3) 0.71920(3) -0.24411(6)
O1C O 0.18843(9) 0.82009(10) -0.02976(19)
O4C O 0.32086(9) 0.80799(10) 0.5404(2)
loop_
_geom_bond_atom_site_label_1
_geom_bond_atom_site_label_2
_geom_bond_site_symmetry_1
_geom_bond_site_symmetry_2
Ca1 O1 1_555 1_555
C1 C2 1_555 1_555
N1 C3 1_555 1_555
C2 H1 1_555 1_555
C3 C1 1_555 1_555
H2 C3 1_555 1_555
C4 C1 1_555 1_555
C5 N1 1_555 1_555
C6 C2 1_555 1_555
C7 C5 1_555 1_555
H3 C7 1_555 1_555
C8 C6 1_555 1_555
H4 C8 1_555 1_555
C9 C7 1_555 1_555
H5 C9 1_555 1_555
C10 C8 1_555 1_555
H6 C10 1_555 1_555
N2 C13 1_555 1_555
C11 C12 1_555 1_555
C12 C13 1_555 1_555
C13 H7 1_555 1_555
C14 C12 1_555 1_555
H8 C14 1_555 1_555
C15 H9 1_555 1_555
C16 C14 1_555 1_555
C17 N2 1_555 1_555
C18 C15 1_555 1_555
H10 C18 1_555 1_555
C19 C16 1_555 1_555
H11 C19 1_555 1_555
C20 C18 1_555 1_555
H12 C20 1_555 1_555
O1 C11 1_555 1_555
O2 Ca1 1_555 1_555
O3 Ca1 1_555 1_555
O4 Ca1 1_555 1_555
O5 Ca1 1_555 1_555
H13 O5 1_555 1_555
H14 O5 1_555 1_555
O6 Ca1 1_555 1_555
H15 O6 1_555 1_555
H16 O6 1_555 1_555
Ca1C O1 1_555 1_555
Ca1C_2 O4 1_555 1_555
O1C Ca1 1_555 1_555
O4C Ca1 1_555 1_555
C4 O3 1_555 1_555
C4 O4 1_555 1_555
C5 C6 1_555 1_555
C9 C10 1_555 1_555
C11 O2 1_555 1_555
C15 C17 1_555 1_555
C16 C17 1_555 1_555
C19 C20 1_555 1_555
Ca1C O4C 1_555 1_555
Ca1C_2 O1C 1_555 1_555

#END
