
#######################################################################
#
#                 Cambridge Crystallographic Data Centre
#                                CCDC 
#
#######################################################################
#
# If this CIF has been generated from an entry in the Cambridge 
# Structural Database, then it will include bibliographic, chemical, 
# crystal, experimental, refinement or atomic coordinate data resulting 
# from the CCDC's data processing and validation procedures.
#
#######################################################################

data_NALGAK
_symmetry_cell_setting           monoclinic
_symmetry_space_group_name_H-M   'C 2/c'
_symmetry_Int_Tables_number      15
_space_group_name_Hall           '-C 2yn'
loop_
_symmetry_equiv_pos_site_id
_symmetry_equiv_pos_as_xyz
1 x,y,z
2 -x,y,1/2-z
3 1/2+x,1/2+y,z
4 1/2-x,1/2+y,1/2-z
5 -x,-y,-z
6 x,-y,1/2+z
7 1/2-x,1/2-y,-z
8 1/2+x,1/2-y,1/2+z
_cell_length_a                   17.612(4)
_cell_length_b                   9.798(2)
_cell_length_c                   14.076(3)
_cell_angle_alpha                90
_cell_angle_beta                 102.63(3)
_cell_angle_gamma                90
_cell_volume                     2370.21
loop_
_atom_site_label
_atom_site_type_symbol
_atom_site_fract_x
_atom_site_fract_y
_atom_site_fract_z
Cd1 Cd 0.0000 -0.35651(4) 0.2500
O1 O -0.0106(2) -0.1858(3) 0.3555(2)
O2 O -0.0882(2) -0.0572(3) 0.4220(2)
O3 O 0.00096(16) -0.4768(3) 0.6354(2)
O4 O -0.12761(18) -0.4418(4) -0.1576(3)
O5 O -0.1324(2) -0.3723(4) 0.2046(3)
H1 H -0.1374 -0.4208 0.2530
H2 H -0.1568 -0.2969 0.1969
N1 N -0.08666(18) -0.2266(3) 0.5733(2)
C1 C -0.0657(2) -0.1128(4) 0.6275(3)
H3 H -0.0221 -0.0633 0.6209
C2 C -0.1096(3) -0.0708(5) 0.6926(3)
H4 H -0.0949 0.0062 0.7308
C3 C -0.1742(3) -0.1423(6) 0.7007(3)
H5 H -0.2043 -0.1135 0.7437
C4 C -0.1948(3) -0.2576(6) 0.6447(3)
H6 H -0.2388 -0.3073 0.6497
C5 C -0.1498(3) -0.2985(5) 0.5813(3)
H7 H -0.1632 -0.3766 0.5438
C6 C -0.0405(2) -0.2674(4) 0.5014(3)
H8 H -0.0623 -0.3534 0.4718
C7 C -0.0485(2) -0.1605(4) 0.4189(3)
C8 C 0.0448(2) -0.2938(4) 0.5496(3)
H9 H 0.0732 -0.3106 0.4990
H10 H 0.0661 -0.2118 0.5840
C9 C 0.0585(2) -0.4125(4) 0.6204(3)
Cd1D Cd 0.0000 -0.64349(4) 0.7500
Cd1D_2 Cd 0.0000 -0.64349(4) -0.2500
O1A O 0.0106(2) -0.1858(3) 0.1445(2)
O2A O 0.0882(2) -0.0572(3) 0.0780(2)
O3D O -0.00096(16) -0.5232(3) 0.3646(2)
O3A O -0.00096(16) -0.4768(3) -0.1354(2)
O3E O 0.00096(16) -0.5232(3) 0.1354(2)
O4A O 0.12761(18) -0.4418(4) 0.6576(3)
O5A O 0.1324(2) -0.3723(4) 0.2954(3)
H1A H 0.1374 -0.4208 0.2470
H2A H 0.1568 -0.2969 0.3031
N1A N 0.08666(18) -0.2266(3) -0.0733(2)
C1A C 0.0657(2) -0.1128(4) -0.1275(3)
H3A H 0.0221 -0.0633 -0.1209
C2A C 0.1096(3) -0.0708(5) -0.1926(3)
H4A H 0.0949 0.0062 -0.2308
C3A C 0.1742(3) -0.1423(6) -0.2007(3)
H5A H 0.2043 -0.1135 -0.2437
C4A C 0.1948(3) -0.2576(6) -0.1447(3)
H6A H 0.2388 -0.3073 -0.1497
C5A C 0.1498(3) -0.2985(5) -0.0813(3)
H7A H 0.1632 -0.3766 -0.0438
C6A C 0.0405(2) -0.2674(4) -0.0014(3)
H8A H 0.0623 -0.3534 0.0282
C7A C 0.0485(2) -0.1605(4) 0.0811(3)
C8A C -0.0448(2) -0.2938(4) -0.0496(3)
H9A H -0.0732 -0.3106 0.0010
H10A H -0.0661 -0.2118 -0.0840
C9A C -0.0585(2) -0.4125(4) -0.1204(3)
O6 O -0.2184(2) -0.9510(4) 0.4730(3)
H11 H -0.2465 -0.9013 0.4297
H12 H -0.1781 -0.9858 0.4590
O7 O -0.7434(2) -0.6897(4) 0.1327(3)
H13 H -0.7353 -0.6569 0.0808
H14 H -0.7878 -0.6531 0.1436
loop_
_geom_bond_atom_site_label_1
_geom_bond_atom_site_label_2
_geom_bond_site_symmetry_1
_geom_bond_site_symmetry_2
Cd1 O1 1_555 1_555
O1 C7 1_555 1_555
O2 C7 1_555 1_555
O3 C9 1_555 1_555
O4 C9A 1_555 1_555
O5 Cd1 1_555 1_555
H1 O5 1_555 1_555
H2 O5 1_555 1_555
N1 C1 1_555 1_555
C1 H3 1_555 1_555
C2 C1 1_555 1_555
H4 C2 1_555 1_555
C3 C2 1_555 1_555
H5 C3 1_555 1_555
C4 C3 1_555 1_555
H6 C4 1_555 1_555
C5 N1 1_555 1_555
H7 C5 1_555 1_555
C6 N1 1_555 1_555
H8 C6 1_555 1_555
C7 C6 1_555 1_555
C8 C6 1_555 1_555
H9 C8 1_555 1_555
H10 C8 1_555 1_555
C9 C8 1_555 1_555
O6 H11 1_555 1_555
H12 O6 1_555 1_555
O7 H13 1_555 1_555
H14 O7 1_555 1_555
Cd1D O3 1_555 1_555
Cd1D_2 O3A 1_555 1_555
O1A Cd1 1_555 1_555
O2A C7A 1_555 1_555
O3D Cd1 1_555 1_555
O3A C9A 1_555 1_555
O3E Cd1 1_555 1_555
O4A C9 1_555 1_555
O5A Cd1 1_555 1_555
H1A O5A 1_555 1_555
H2A O5A 1_555 1_555
N1A C1A 1_555 1_555
C1A H3A 1_555 1_555
C2A C1A 1_555 1_555
H4A C2A 1_555 1_555
C3A C2A 1_555 1_555
H5A C3A 1_555 1_555
C4A C3A 1_555 1_555
H6A C4A 1_555 1_555
C5A N1A 1_555 1_555
H7A C5A 1_555 1_555
C6A N1A 1_555 1_555
H8A C6A 1_555 1_555
C7A O1A 1_555 1_555
C8A C6A 1_555 1_555
H9A C8A 1_555 1_555
H10A C8A 1_555 1_555
C9A C8A 1_555 1_555
C4 C5 1_555 1_555
C4A C5A 1_555 1_555
C6A C7A 1_555 1_555

#END
