
#######################################################################
#
#                 Cambridge Crystallographic Data Centre
#                                CCDC 
#
#######################################################################
#
# If this CIF has been generated from an entry in the Cambridge 
# Structural Database, then it will include bibliographic, chemical, 
# crystal, experimental, refinement or atomic coordinate data resulting 
# from the CCDC's data processing and validation procedures.
#
#######################################################################

data_NALQAU
_symmetry_cell_setting           triclinic
_symmetry_space_group_name_H-M   'P -1'
_symmetry_Int_Tables_number      2
_space_group_name_Hall           '-P 1'
loop_
_symmetry_equiv_pos_site_id
_symmetry_equiv_pos_as_xyz
1 x,y,z
2 -x,-y,-z
_cell_length_a                   12.4529(17)
_cell_length_b                   14.9729(19)
_cell_length_c                   15.891(2)
_cell_angle_alpha                67.460(2)
_cell_angle_beta                 72.684(2)
_cell_angle_gamma                66.632(2)
_cell_volume                     2474.85
loop_
_atom_site_label
_atom_site_type_symbol
_atom_site_fract_x
_atom_site_fract_y
_atom_site_fract_z
O1 O -1.9095(3) 0.1021(2) 1.9646(2)
O2 O -1.9113(3) 0.2595(2) 1.9213(2)
C1 C -1.8556(4) 0.1660(3) 1.9298(3)
C2 C -1.7232(4) 0.1324(3) 1.9021(3)
C3 C -1.6641(4) 0.2015(4) 1.8564(4)
H1 H -1.7071 0.2707 1.8391
C4 C -1.6573(4) 0.0290(4) 1.9270(3)
H2 H -1.6964 -0.0192 1.9587
C5 C -1.5359(4) -0.0027(4) 1.9054(3)
H3 H -1.4928 -0.0719 1.9210
C6 C -1.5412(5) 0.1713(4) 1.8351(4)
H4 H -1.5023 0.2197 1.8042
C7 C -1.4776(4) 0.0695(4) 1.8601(3)
O3 O -1.3557(3) 0.0330(3) 1.8492(3)
O4 O -0.3055(3) 0.2988(3) 1.9850(2)
O5 O -0.1645(3) 0.3059(3) 1.8648(2)
C8 C -0.2731(4) 0.3260(4) 1.9008(3)
C9 C -0.3635(4) 0.3858(3) 1.8374(3)
C10 C -0.4814(4) 0.4091(5) 1.8741(4)
H5 H -0.5047 0.3859 1.9378
C11 C -0.3307(4) 0.4205(4) 1.7429(3)
H6 H -0.2505 0.4052 1.7169
Cd1 Cd -0.86404(2) 0.27872(2) 1.429590(19)
Cd2 Cd -2.09581(3) 0.22766(2) 2.00248(2)
O6 O -0.9698(3) 0.2431(3) 1.5837(2)
N1 N -0.9678(3) 0.3890(3) 1.3080(2)
O7 O -0.7192(3) 0.2756(2) 1.5066(2)
C12 C -1.0590(3) 0.4700(3) 1.1830(3)
N2 N -0.7445(3) 0.1014(3) 1.4489(2)
C13 C -1.0093(3) 0.3764(3) 1.2433(3)
C14 C -1.1071(3) 0.4828(3) 1.1066(3)
C15 C -1.1021(3) 0.3923(3) 1.0941(3)
C16 C -1.0528(3) 0.2924(3) 1.1589(3)
N3 N -1.1426(3) 0.3940(3) 1.0234(2)
N4 N -0.6939(3) 0.2621(2) 1.3102(2)
O8 O -0.6197(3) 0.5593(2) 1.6679(3)
C17 C -1.0070(4) 0.2835(3) 1.2339(3)
C18 C -1.0408(4) 0.2153(3) 1.5652(3)
C19 C -0.7696(4) 0.3707(3) 1.4957(3)
C20 C -0.7286(4) 0.4196(3) 1.5416(3)
C21 C -1.1558(4) 0.5756(3) 1.0425(3)
H7 H -1.1591 0.6366 1.0474
N5 N -0.2923(3) 0.0287(3) 1.2381(2)
O9 O -0.8491(3) 0.4233(2) 1.4483(2)
N6 N -0.3300(3) -0.1032(3) 1.3537(3)
H8 H -0.3184 -0.1646 1.3904
C22 C -0.4090(4) 0.0589(3) 1.2821(3)
C23 C -0.4953(4) 0.1589(3) 1.2627(3)
C24 C -0.4336(4) -0.0213(3) 1.3545(3)
C25 C -0.5325(4) 0.4999(4) 1.7245(3)
N7 N -1.0481(3) 0.5410(3) 1.2131(2)
H9 H -1.0719 0.6062 1.1889
C26 C -0.6081(4) 0.1705(3) 1.3218(3)
C27 C -0.7817(4) 0.5208(3) 1.5364(3)
H10 H -0.8442 0.5601 1.5037
C28 C -0.7437(4) 0.5656(3) 1.5792(3)
H11 H -0.7810 0.6342 1.5755
C29 C -1.1336(3) 0.1774(3) 1.6404(3)
O10 O -2.1398(3) 0.0780(3) 2.0757(3)
C30 C -0.6338(4) 0.0842(3) 1.3966(3)
C31 C -0.5460(4) -0.0136(3) 1.4145(3)
O11 O -1.0336(3) 0.2161(3) 1.4848(2)
C32 C -1.1983(4) 0.5760(3) 0.9727(3)
H12 H -1.2324 0.6374 0.9303
C33 C -1.1904(4) 0.4842(3) 0.9651(3)
H13 H -1.2200 0.4858 0.9170
C34 C -0.6514(4) 0.5086(3) 1.6268(3)
C35 C -0.6874(4) -0.0758(3) 1.5407(3)
H14 H -0.7084 -0.1282 1.5897
C36 C -1.1278(4) 0.1532(3) 1.7331(3)
H15 H -1.0706 0.1669 1.7484
N8 N -1.0552(3) 0.2104(3) 1.1438(2)
C37 C -0.2512(4) -0.0666(4) 1.2834(3)
H16 H -0.1734 -0.1067 1.2687
C38 C -0.6708(4) 0.3415(3) 1.2430(3)
H17 H -0.7293 0.4049 1.2367
C39 C -0.9639(4) 0.1857(3) 1.2939(3)
H18 H -0.9322 0.1764 1.3439
C40 C -1.2053(4) 0.1094(4) 1.8023(3)
H19 H -1.2010 0.0933 1.8640
C41 C -0.5640(4) 0.3356(4) 1.1812(3)
H20 H -0.5529 0.3932 1.1338
C42 C -0.7688(4) 0.0231(4) 1.5180(3)
H21 H -0.8444 0.0347 1.5536
C43 C -0.4770(4) 0.2450(3) 1.1912(3)
H22 H -0.4049 0.2396 1.1508
C44 C -0.5756(4) -0.0928(3) 1.4883(3)
H23 H -0.5194 -0.1574 1.5021
C45 C -0.9688(5) 0.1031(4) 1.2783(3)
H24 H -0.9419 0.0376 1.3183
C46 C -0.9933(4) 0.4888(3) 1.2871(3)
H25 H -0.9754 0.5194 1.3199
C47 C -0.6327(5) 0.3629(4) 1.5891(4)
H26 H -0.5941 0.2947 1.5921
C48 C -0.5949(5) 0.4072(4) 1.6313(4)
H27 H -0.5312 0.3689 1.6629
C49 C -1.0141(5) 0.1189(4) 1.2025(4)
H28 H -1.0159 0.0625 1.1921
C50 C -1.2890(4) 0.0896(4) 1.7789(3)
C51 C -0.4149(4) 0.4778(4) 1.6862(3)
H29 H -0.3918 0.5012 1.6225
C52 C -1.2217(4) 0.1611(4) 1.6186(3)
H30 H -1.2288 0.1798 1.5571
C53 C -0.5679(5) 0.4672(5) 1.8177(4)
H31 H -0.6482 0.4833 1.8434
C54 C -1.3004(4) 0.1168(4) 1.6885(4)
H32 H -1.3602 0.1058 1.6739
H33 H -2.116(5) 0.0173(19) 2.071(4)
H36 H -2.195(4) 0.085(4) 2.122(3)
O4_2 O -2.3055(3) 0.2988(3) 1.9850(2)
O5_2 O -2.1645(3) 0.3059(3) 1.8648(2)
Cd2_2 Cd -0.09581(3) 0.22766(2) 2.00248(2)
Cd2_3 Cd -1.09581(3) 0.22766(2) 1.00248(2)
N3_2 N -2.1426(3) 0.3940(3) 2.0234(2)
N8_2 N -2.0552(3) 0.2104(3) 2.1438(2)
O12 O 0.0473(4) 0.2910(3) 0.7290(3)
H34 H 0.036(5) 0.281(5) 0.682(3)
H35 H -0.017(3) 0.297(5) 0.770(3)
loop_
_geom_bond_atom_site_label_1
_geom_bond_atom_site_label_2
_geom_bond_site_symmetry_1
_geom_bond_site_symmetry_2
O1 C1 1_555 1_555
O2 C1 1_555 1_555
C1 C2 1_555 1_555
C2 C3 1_555 1_555
C3 H1 1_555 1_555
C4 C2 1_555 1_555
H2 C4 1_555 1_555
C5 C4 1_555 1_555
H3 C5 1_555 1_555
C6 C3 1_555 1_555
H4 C6 1_555 1_555
C7 C5 1_555 1_555
O3 C7 1_555 1_555
O4 C8 1_555 1_555
O5 C8 1_555 1_555
C8 C9 1_555 1_555
C9 C10 1_555 1_555
C10 H5 1_555 1_555
C11 C9 1_555 1_555
H6 C11 1_555 1_555
Cd1 O6 1_555 1_555
Cd2 O1 1_555 1_555
O6 C18 1_555 1_555
N1 Cd1 1_555 1_555
O7 Cd1 1_555 1_555
C12 C13 1_555 1_555
N2 Cd1 1_555 1_555
C13 N1 1_555 1_555
C14 C12 1_555 1_555
C15 C14 1_555 1_555
C16 C15 1_555 1_555
N3 C15 1_555 1_555
N4 Cd1 1_555 1_555
O8 C25 1_555 1_555
C17 C13 1_555 1_555
C18 C29 1_555 1_555
C19 O7 1_555 1_555
C20 C19 1_555 1_555
C21 C14 1_555 1_555
H7 C21 1_555 1_555
N5 C22 1_555 1_555
O9 Cd1 1_555 1_555
N6 H8 1_555 1_555
C22 C23 1_555 1_555
C23 C26 1_555 1_555
C24 N6 1_555 1_555
C25 C51 1_555 1_555
N7 C12 1_555 1_555
H9 N7 1_555 1_555
C26 N4 1_555 1_555
C27 C20 1_555 1_555
H10 C27 1_555 1_555
C28 C27 1_555 1_555
H11 C28 1_555 1_555
C29 C36 1_555 1_555
O10 Cd2 1_555 1_555
C30 N2 1_555 1_555
C31 C24 1_555 1_555
O11 Cd1 1_555 1_555
C32 C21 1_555 1_555
H12 C32 1_555 1_555
C33 N3 1_555 1_555
H13 C33 1_555 1_555
C34 O8 1_555 1_555
C35 H14 1_555 1_555
C36 H15 1_555 1_555
N8 C16 1_555 1_555
C37 N5 1_555 1_555
H16 C37 1_555 1_555
C38 N4 1_555 1_555
H17 C38 1_555 1_555
C39 C17 1_555 1_555
H18 C39 1_555 1_555
C40 C36 1_555 1_555
H19 C40 1_555 1_555
C41 C38 1_555 1_555
H20 C41 1_555 1_555
C42 N2 1_555 1_555
H21 C42 1_555 1_555
C43 C23 1_555 1_555
H22 C43 1_555 1_555
C44 C31 1_555 1_555
H23 C44 1_555 1_555
C45 C39 1_555 1_555
H24 C45 1_555 1_555
C46 N1 1_555 1_555
H25 C46 1_555 1_555
C47 C20 1_555 1_555
H26 C47 1_555 1_555
C48 C34 1_555 1_555
H27 C48 1_555 1_555
C49 N8 1_555 1_555
H28 C49 1_555 1_555
C50 O3 1_555 1_555
C51 C11 1_555 1_555
H29 C51 1_555 1_555
C52 C29 1_555 1_555
H30 C52 1_555 1_555
C53 C10 1_555 1_555
H31 C53 1_555 1_555
O12 H34 1_555 1_555
C54 C50 1_555 1_555
H32 C54 1_555 1_555
H33 O10 1_555 1_555
H35 O12 1_555 1_555
H36 O10 1_555 1_555
O4_2 Cd2 1_555 1_555
O5_2 Cd2 1_555 1_555
Cd2_2 O4 1_555 1_555
Cd2_3 N3 1_555 1_555
N3_2 Cd2 1_555 1_555
N8_2 Cd2 1_555 1_555
O2 Cd2 1_555 1_555
C6 C7 1_555 1_555
O5 Cd2_2 1_555 1_555
C16 C17 1_555 1_555
C18 O11 1_555 1_555
C19 O9 1_555 1_555
N6 C37 1_555 1_555
C22 C24 1_555 1_555
C25 C53 1_555 1_555
N7 C46 1_555 1_555
C26 C30 1_555 1_555
C28 C34 1_555 1_555
C30 C31 1_555 1_555
C32 C33 1_555 1_555
C35 C42 1_555 1_555
C35 C44 1_555 1_555
N8 Cd2_3 1_555 1_555
C40 C50 1_555 1_555
C41 C43 1_555 1_555
C45 C49 1_555 1_555
C47 C48 1_555 1_555
C52 C54 1_555 1_555

#END
