
#######################################################################
#
#                 Cambridge Crystallographic Data Centre
#                                CCDC 
#
#######################################################################
#
# If this CIF has been generated from an entry in the Cambridge 
# Structural Database, then it will include bibliographic, chemical, 
# crystal, experimental, refinement or atomic coordinate data resulting 
# from the CCDC's data processing and validation procedures.
#
#######################################################################

data_NAMCOU
_symmetry_cell_setting           monoclinic
_symmetry_space_group_name_H-M   'P 21'
_symmetry_Int_Tables_number      4
_space_group_name_Hall           'P 2yb'
loop_
_symmetry_equiv_pos_site_id
_symmetry_equiv_pos_as_xyz
1 x,y,z
2 -x,1/2+y,-z
_cell_length_a                   8.585(2)
_cell_length_b                   5.6147(15)
_cell_length_c                   9.076(2)
_cell_angle_alpha                90
_cell_angle_beta                 109.500(6)
_cell_angle_gamma                90
_cell_volume                     412.39
loop_
_atom_site_label
_atom_site_type_symbol
_atom_site_fract_x
_atom_site_fract_y
_atom_site_fract_z
Cu1 Cu 1.16525(6) -0.25969(10) -0.10297(6)
S1 S 0.69418(15) -0.4597(2) -0.51912(14)
N1 N 1.0149(5) -0.1595(8) -0.3115(4)
H1 H 1.0574 -0.0321 -0.3448
H2 H 1.0042 -0.2783 -0.3807
O1 O 1.0152(4) -0.0557(7) -0.0324(4)
O2 O 1.3548(4) 0.0435(7) -0.0163(4)
H3 H 1.4579 0.0325 -0.0284
H4 H 1.3279 0.1771 0.0308
O3 O 0.7606(4) 0.0861(7) -0.1071(4)
O4 O 0.8899(4) -0.1652(7) -0.6725(4)
O5 O 0.6831(4) 0.0548(8) -0.8222(4)
C1 C 0.8779(6) -0.0137(9) -0.1356(5)
C2 C 0.8532(6) -0.0993(9) -0.3014(5)
H5 H 0.8033 0.0286 -0.3756
C3 C 0.7352(6) -0.3116(10) -0.3332(6)
H6 H 0.6307 -0.2574 -0.3259
H7 H 0.7801 -0.4280 -0.2510
C4 C 0.6179(6) -0.2216(12) -0.6588(5)
H8 H 0.5288 -0.2837 -0.7473
H9 H 0.5715 -0.0989 -0.6106
C5 C 0.7442(6) -0.1079(10) -0.7191(6)
Cu1A Cu 0.83475(6) 0.24031(10) 0.10297(6)
Cu1A_2 Cu 0.83475(6) 0.24031(10) -0.89703(6)
O3A O 1.2394(4) -0.4139(7) 0.1071(4)
O5A O 1.3169(4) -0.4452(8) -0.1778(4)
loop_
_geom_bond_atom_site_label_1
_geom_bond_atom_site_label_2
_geom_bond_site_symmetry_1
_geom_bond_site_symmetry_2
Cu1 N1 1_555 1_555
S1 C3 1_555 1_555
N1 H1 1_555 1_555
H2 N1 1_555 1_555
O1 Cu1 1_555 1_555
O2 Cu1 1_555 1_555
H3 O2 1_555 1_555
H4 O2 1_555 1_555
O3 C1 1_555 1_555
O4 C5 1_555 1_555
O5 C5 1_555 1_555
C1 O1 1_555 1_555
C2 N1 1_555 1_555
H5 C2 1_555 1_555
C3 C2 1_555 1_555
H6 C3 1_555 1_555
H7 C3 1_555 1_555
C4 S1 1_555 1_555
H8 C4 1_555 1_555
H9 C4 1_555 1_555
C5 C4 1_555 1_555
Cu1A O3 1_555 1_555
Cu1A_2 O5 1_555 1_555
O3A Cu1 1_555 1_555
O5A Cu1 1_555 1_555
C1 C2 1_555 1_555

#END
