
#######################################################################
#
#                 Cambridge Crystallographic Data Centre
#                                CCDC 
#
#######################################################################
#
# If this CIF has been generated from an entry in the Cambridge 
# Structural Database, then it will include bibliographic, chemical, 
# crystal, experimental, refinement or atomic coordinate data resulting 
# from the CCDC's data processing and validation procedures.
#
#######################################################################

data_NAMKAO
_symmetry_cell_setting           triclinic
_symmetry_space_group_name_H-M   'P -1'
_symmetry_Int_Tables_number      2
_space_group_name_Hall           '-P 1'
loop_
_symmetry_equiv_pos_site_id
_symmetry_equiv_pos_as_xyz
1 x,y,z
2 -x,-y,-z
_cell_length_a                   8.429(3)
_cell_length_b                   10.694(4)
_cell_length_c                   10.840(4)
_cell_angle_alpha                119.063(4)
_cell_angle_beta                 100.474(5)
_cell_angle_gamma                99.901(5)
_cell_volume                     800.426
loop_
_atom_site_label
_atom_site_type_symbol
_atom_site_fract_x
_atom_site_fract_y
_atom_site_fract_z
Ag1 Ag 0.01931(4) 0.16186(3) 0.53473(3)
Ag2 Ag 0.64544(4) 0.89696(3) 1.49390(3)
Ag3 Ag -0.22816(4) -0.37617(3) -0.48116(3)
N1 N 0.4898(4) 0.7590(3) 1.2664(3)
N2 N -0.1491(4) -0.2782(3) -0.2433(3)
O1 O 0.1196(4) 0.3394(3) 0.7633(3)
O2 O 0.2977(4) 0.4787(3) 0.7158(3)
O3 O -0.0529(3) -0.0005(3) 0.3020(3)
O4 O 0.1980(3) -0.0353(3) 0.2818(3)
C1 C 0.3615(5) 0.6357(4) 1.2167(4)
H1 H 0.3300 0.6167 1.2853
C2 C 0.2745(5) 0.5357(4) 1.0677(4)
H2 H 0.1851 0.4524 1.0374
C3 C 0.3217(4) 0.5609(4) 0.9646(4)
C4 C 0.4522(4) 0.6901(4) 1.0162(4)
H3 H 0.4855 0.7118 0.9498
C5 C 0.5312(5) 0.7848(4) 1.1654(4)
H4 H 0.6176 0.8712 1.1983
C6 C 0.2380(4) 0.4500(4) 0.7995(4)
C7 C -0.2345(4) -0.2002(4) -0.1564(4)
H5 H -0.3365 -0.1950 -0.2006
C8 C -0.1771(4) -0.1269(4) -0.0034(4)
H6 H -0.2397 -0.0737 0.0537
C9 C -0.0257(4) -0.1338(4) 0.0634(3)
C10 C 0.0631(4) -0.2135(4) -0.0266(4)
H7 H 0.1663 -0.2191 0.0150
C11 C -0.0026(5) -0.2845(4) -0.1781(4)
H8 H 0.0574 -0.3390 -0.2375
C12 C 0.0463(4) -0.0498(4) 0.2301(4)
Ag1A Ag -0.01931(4) -0.16186(3) 0.46527(3)
Ag1A_2 Ag 0.98069(4) 0.83814(3) 1.46527(3)
Ag1A_3 Ag -0.01931(4) -0.16186(3) -0.53473(3)
Ag2A Ag 0.35456(4) 0.10304(3) 0.50610(3)
Ag2A_2 Ag 0.35456(4) 1.10304(3) 1.50610(3)
Ag2_2 Ag -0.35456(4) -0.10304(3) -0.50610(3)
Ag3A Ag 0.22816(4) 0.37617(3) 0.48116(3)
Ag3_2 Ag 0.77184(4) 0.62383(3) 1.51884(3)
O2A O -0.2977(4) -0.4787(3) -0.7158(3)
O4A O 0.8020(3) 1.0353(3) 1.7182(3)
Cl1 Cl 0.68134(11) 0.24528(10) 0.39591(9)
O5 O 0.5645(4) 0.3286(3) 0.4447(3)
O6 O 0.6361(4) 0.1620(4) 0.2380(3)
O7 O 0.8486(3) 0.3497(3) 0.4591(3)
O8 O 0.6780(4) 0.1452(3) 0.4496(4)
loop_
_geom_bond_atom_site_label_1
_geom_bond_atom_site_label_2
_geom_bond_site_symmetry_1
_geom_bond_site_symmetry_2
Ag1 O1 1_555 1_555
Ag2 N1 1_555 1_555
Ag3 N2 1_555 1_555
N1 C1 1_555 1_555
N2 C7 1_555 1_555
O1 C6 1_555 1_555
O2 C6 1_555 1_555
O3 Ag1 1_555 1_555
O4 C12 1_555 1_555
C1 H1 1_555 1_555
C2 C1 1_555 1_555
H2 C2 1_555 1_555
C3 C2 1_555 1_555
C4 C3 1_555 1_555
H3 C4 1_555 1_555
C5 N1 1_555 1_555
H4 C5 1_555 1_555
C6 C3 1_555 1_555
C7 H5 1_555 1_555
C8 C7 1_555 1_555
H6 C8 1_555 1_555
C9 C8 1_555 1_555
C10 C9 1_555 1_555
H7 C10 1_555 1_555
C11 N2 1_555 1_555
H8 C11 1_555 1_555
C12 O3 1_555 1_555
Cl1 O5 1_555 1_555
O6 Cl1 1_555 1_555
O7 Cl1 1_555 1_555
O8 Cl1 1_555 1_555
Ag1A Ag1 1_555 1_555
Ag1A_2 Ag2 1_555 1_555
Ag1A_3 Ag3 1_555 1_555
Ag2A Ag1 1_555 1_555
Ag2A_2 Ag2 1_555 1_555
Ag2_2 Ag3 1_555 1_555
Ag3A Ag1 1_555 1_555
Ag3_2 Ag2 1_555 1_555
O2A Ag3 1_555 1_555
O4A Ag2 1_555 1_555
O2 Ag3A 1_555 1_555
O4 Ag2A 1_555 1_555
C4 C5 1_555 1_555
C9 C12 1_555 1_555
C10 C11 1_555 1_555
Ag1A_2 Ag3_2 1_555 1_555
Ag1A_3 Ag2_2 1_555 1_555
Ag2A Ag3A 1_555 1_555

#END
