
#######################################################################
#
#                 Cambridge Crystallographic Data Centre
#                                CCDC 
#
#######################################################################
#
# If this CIF has been generated from an entry in the Cambridge 
# Structural Database, then it will include bibliographic, chemical, 
# crystal, experimental, refinement or atomic coordinate data resulting 
# from the CCDC's data processing and validation procedures.
#
#######################################################################

data_NAMKAP
_symmetry_cell_setting           monoclinic
_symmetry_space_group_name_H-M   'C 2/c'
_symmetry_Int_Tables_number      15
_space_group_name_Hall           '-C 2yn'
loop_
_symmetry_equiv_pos_site_id
_symmetry_equiv_pos_as_xyz
1 x,y,z
2 -x,y,1/2-z
3 1/2+x,1/2+y,z
4 1/2-x,1/2+y,1/2-z
5 -x,-y,-z
6 x,-y,1/2+z
7 1/2-x,1/2-y,-z
8 1/2+x,1/2-y,1/2+z
_cell_length_a                   30.068(6)
_cell_length_b                   7.9123(16)
_cell_length_c                   25.811(5)
_cell_angle_alpha                90
_cell_angle_beta                 113.84(3)
_cell_angle_gamma                90
_cell_volume                     5616.69
loop_
_atom_site_label
_atom_site_type_symbol
_atom_site_fract_x
_atom_site_fract_y
_atom_site_fract_z
C1 C 0.0420(4) 0.5658(13) 0.0709(4)
H1 H 0.0096 0.6009 0.0486
C2 C 0.0785(4) 0.5917(14) 0.0515(4)
H2 H 0.0709 0.6474 0.0164
C3 C 0.1251(4) 0.5380(16) 0.0823(5)
H3 H 0.1495 0.5518 0.0681
C4 C 0.1358(4) 0.4638(16) 0.1339(6)
H4 H 0.1683 0.4302 0.1560
C5 C 0.1007(3) 0.4358(14) 0.1552(4)
H5 H 0.1090 0.3821 0.1908
C6 C 0.0532(4) 0.4881(11) 0.1234(4)
C7 C 0.0158(3) 0.4559(13) 0.1474(4)
C8 C -0.0332(4) 0.4821(12) 0.1150(5)
H6 H -0.0424 0.5259 0.0778
C9 C -0.0703(3) 0.4472(12) 0.1341(4)
C10 C -0.1221(3) 0.4755(12) 0.0937(4)
C11 C -0.1573(4) 0.3694(14) 0.0996(5)
H7 H -0.1478 0.2888 0.1294
C12 C -0.2052(4) 0.3817(16) 0.0627(5)
H8 H -0.2286 0.3088 0.0670
C13 C -0.2199(4) 0.4992(14) 0.0191(6)
H9 H -0.2531 0.5068 -0.0064
C14 C -0.1857(4) 0.6048(15) 0.0133(4)
H10 H -0.1955 0.6887 -0.0155
C15 C -0.1366(3) 0.5888(14) 0.0497(4)
H11 H -0.1131 0.6571 0.0438
C16 C -0.1391(3) 0.9125(14) 0.3231(4)
H12 H -0.1161 0.8555 0.3551
C17 C -0.1883(4) 0.8995(18) 0.3110(5)
H13 H -0.1990 0.8313 0.3340
C18 C -0.2215(4) 0.9853(17) 0.2657(6)
H14 H -0.2551 0.9748 0.2573
C19 C -0.2069(4) 1.0853(17) 0.2327(5)
H15 H -0.2301 1.1476 0.2024
C20 C -0.1573(4) 1.0958(14) 0.2437(5)
H16 H -0.1471 1.1635 0.2201
C21 C -0.1231(3) 1.0085(10) 0.2886(4)
C22 C -0.0708(3) 1.0285(12) 0.2993(4)
C23 C -0.0350(4) 1.0004(10) 0.3537(4)
H17 H -0.0449 0.9639 0.3825
C24 C 0.0146(3) 1.0235(12) 0.3678(4)
C25 C 0.0515(3) 0.9957(10) 0.4277(4)
C26 C 0.0990(3) 1.0452(14) 0.4416(5)
H18 H 0.1078 1.0969 0.4138
C27 C 0.1339(4) 1.0198(14) 0.4959(5)
H19 H 0.1665 1.0540 0.5049
C28 C 0.1223(4) 0.9462(15) 0.5369(5)
H20 H 0.1464 0.9316 0.5742
C29 C 0.0747(4) 0.8932(14) 0.5231(4)
H21 H 0.0665 0.8379 0.5507
C30 C 0.0397(3) 0.9210(12) 0.4697(4)
H22 H 0.0070 0.8891 0.4611
O1 O 0.0324(2) 0.4060(9) 0.1987(3)
O2 O -0.0629(2) 0.3978(9) 0.1835(3)
O3 O -0.0624(2) 1.0737(9) 0.2565(3)
O4 O 0.0315(2) 1.0714(9) 0.3322(3)
Cs1 Cs 0.0000 0.73784(10) 0.2500
Dy1 Dy 0.0000 0.23729(7) 0.2500
C1A C -0.0420(4) 0.5658(13) 0.4291(4)
H1A H -0.0096 0.6009 0.4514
C2A C -0.0785(4) 0.5917(14) 0.4485(4)
H2A H -0.0709 0.6474 0.4836
C3A C -0.1251(4) 0.5380(16) 0.4177(5)
H3A H -0.1495 0.5518 0.4319
C4A C -0.1358(4) 0.4638(16) 0.3661(6)
H4A H -0.1683 0.4302 0.3440
C5A C -0.1007(3) 0.4358(14) 0.3448(4)
H5A H -0.1090 0.3821 0.3092
C6A C -0.0532(4) 0.4881(11) 0.3766(4)
C7A C -0.0158(3) 0.4559(13) 0.3526(4)
C8A C 0.0332(4) 0.4821(12) 0.3850(5)
H6A H 0.0424 0.5259 0.4222
C9A C 0.0703(3) 0.4472(12) 0.3659(4)
C10A C 0.1221(3) 0.4755(12) 0.4063(4)
C11A C 0.1573(4) 0.3694(14) 0.4004(5)
H7A H 0.1478 0.2888 0.3706
C12A C 0.2052(4) 0.3817(16) 0.4373(5)
H8A H 0.2286 0.3088 0.4330
C13A C 0.2199(4) 0.4992(14) 0.4809(6)
H9A H 0.2531 0.5068 0.5064
C14A C 0.1857(4) 0.6048(15) 0.4867(4)
H10A H 0.1955 0.6887 0.5155
C15A C 0.1366(3) 0.5888(14) 0.4503(4)
H11A H 0.1131 0.6571 0.4562
C16A C 0.1391(3) 0.9125(14) 0.1769(4)
H12A H 0.1161 0.8555 0.1449
C17A C 0.1883(4) 0.8995(18) 0.1890(5)
H13A H 0.1990 0.8313 0.1660
C18A C 0.2215(4) 0.9853(17) 0.2343(6)
H14A H 0.2551 0.9748 0.2427
C19A C 0.2069(4) 1.0853(17) 0.2673(5)
H15A H 0.2301 1.1476 0.2976
C20A C 0.1573(4) 1.0958(14) 0.2563(5)
H16A H 0.1471 1.1635 0.2799
C21A C 0.1231(3) 1.0085(10) 0.2114(4)
C22A C 0.0708(3) 1.0285(12) 0.2007(4)
C23A C 0.0350(4) 1.0004(10) 0.1463(4)
H17A H 0.0449 0.9639 0.1175
C24A C -0.0146(3) 1.0235(12) 0.1322(4)
C25A C -0.0515(3) 0.9957(10) 0.0723(4)
C26A C -0.0990(3) 1.0452(14) 0.0584(5)
H18A H -0.1078 1.0969 0.0862
C27A C -0.1339(4) 1.0198(14) 0.0041(5)
H19A H -0.1665 1.0540 -0.0049
C28A C -0.1223(4) 0.9462(15) -0.0369(5)
H20A H -0.1464 0.9316 -0.0742
C29A C -0.0747(4) 0.8932(14) -0.0231(4)
H21A H -0.0665 0.8379 -0.0507
C30A C -0.0397(3) 0.9210(12) 0.0303(4)
H22A H -0.0070 0.8891 0.0389
O1A O -0.0324(2) 0.4060(9) 0.3013(3)
O2A O 0.0629(2) 0.3978(9) 0.3165(3)
O3A O 0.0624(2) 1.0737(9) 0.2435(3)
O3A_2 O 0.0624(2) 0.0737(9) 0.2435(3)
O3_2 O -0.0624(2) 0.0737(9) 0.2565(3)
O4A O -0.0315(2) 1.0714(9) 0.1678(3)
O4A_2 O -0.0315(2) 0.0714(9) 0.1678(3)
O4_2 O 0.0315(2) 0.0714(9) 0.3322(3)
Dy1_2 Dy 0.0000 1.23729(7) 0.2500
C31 C 0.1617(7) 0.852(2) 0.3591(6)
H23 H 0.1273 0.8520 0.3462
C32 C 0.2366(5) 0.7268(18) 0.3611(6)
H24 H 0.2504 0.8259 0.3849
H25 H 0.2471 0.7250 0.3297
H26 H 0.2478 0.6239 0.3838
C33 C 0.1573(7) 0.622(3) 0.2936(6)
H27 H 0.1224 0.6365 0.2833
H28 H 0.1667 0.5052 0.3059
H29 H 0.1646 0.6463 0.2606
N1 N 0.1840(4) 0.7351(14) 0.3386(4)
O5 O 0.1884(7) 0.969(2) 0.3977(8)
loop_
_geom_bond_atom_site_label_1
_geom_bond_atom_site_label_2
_geom_bond_site_symmetry_1
_geom_bond_site_symmetry_2
C1 H1 1_555 1_555
C2 C1 1_555 1_555
H2 C2 1_555 1_555
C3 C2 1_555 1_555
H3 C3 1_555 1_555
C4 C3 1_555 1_555
H4 C4 1_555 1_555
C5 C4 1_555 1_555
H5 C5 1_555 1_555
C6 C1 1_555 1_555
C7 C6 1_555 1_555
C8 C7 1_555 1_555
H6 C8 1_555 1_555
C9 C8 1_555 1_555
C10 C9 1_555 1_555
C11 C10 1_555 1_555
H7 C11 1_555 1_555
C12 C11 1_555 1_555
H8 C12 1_555 1_555
C13 C12 1_555 1_555
H9 C13 1_555 1_555
C14 C13 1_555 1_555
H10 C14 1_555 1_555
C15 C10 1_555 1_555
H11 C15 1_555 1_555
C16 H12 1_555 1_555
C17 C16 1_555 1_555
H13 C17 1_555 1_555
C18 C17 1_555 1_555
H14 C18 1_555 1_555
C19 C18 1_555 1_555
H15 C19 1_555 1_555
C20 C19 1_555 1_555
H16 C20 1_555 1_555
C21 C16 1_555 1_555
C22 C21 1_555 1_555
C23 C22 1_555 1_555
H17 C23 1_555 1_555
C24 C23 1_555 1_555
C25 C24 1_555 1_555
C26 C25 1_555 1_555
H18 C26 1_555 1_555
C27 C26 1_555 1_555
H19 C27 1_555 1_555
C28 C27 1_555 1_555
H20 C28 1_555 1_555
C29 C28 1_555 1_555
H21 C29 1_555 1_555
C30 C25 1_555 1_555
H22 C30 1_555 1_555
C31 H23 1_555 1_555
C32 H24 1_555 1_555
H25 C32 1_555 1_555
H26 C32 1_555 1_555
C33 H27 1_555 1_555
H28 C33 1_555 1_555
H29 C33 1_555 1_555
N1 C31 1_555 1_555
O1 C7 1_555 1_555
O2 C9 1_555 1_555
O3 C22 1_555 1_555
O4 C24 1_555 1_555
O5 C31 1_555 1_555
Cs1 O1 1_555 1_555
Dy1 O1 1_555 1_555
C1A H1A 1_555 1_555
C2A C1A 1_555 1_555
H2A C2A 1_555 1_555
C3A C2A 1_555 1_555
H3A C3A 1_555 1_555
C4A C3A 1_555 1_555
H4A C4A 1_555 1_555
C5A C4A 1_555 1_555
H5A C5A 1_555 1_555
C6A C1A 1_555 1_555
C7A C6A 1_555 1_555
C8A C7A 1_555 1_555
H6A C8A 1_555 1_555
C9A C8A 1_555 1_555
C10A C9A 1_555 1_555
C11A C10A 1_555 1_555
H7A C11A 1_555 1_555
C12A C11A 1_555 1_555
H8A C12A 1_555 1_555
C13A C12A 1_555 1_555
H9A C13A 1_555 1_555
C14A C13A 1_555 1_555
H10A C14A 1_555 1_555
C15A C10A 1_555 1_555
H11A C15A 1_555 1_555
C16A H12A 1_555 1_555
C17A C16A 1_555 1_555
H13A C17A 1_555 1_555
C18A C17A 1_555 1_555
H14A C18A 1_555 1_555
C19A C18A 1_555 1_555
H15A C19A 1_555 1_555
C20A C19A 1_555 1_555
H16A C20A 1_555 1_555
C21A C16A 1_555 1_555
C22A C21A 1_555 1_555
C23A C22A 1_555 1_555
H17A C23A 1_555 1_555
C24A C23A 1_555 1_555
C25A C24A 1_555 1_555
C26A C25A 1_555 1_555
H18A C26A 1_555 1_555
C27A C26A 1_555 1_555
H19A C27A 1_555 1_555
C28A C27A 1_555 1_555
H20A C28A 1_555 1_555
C29A C28A 1_555 1_555
H21A C29A 1_555 1_555
C30A C25A 1_555 1_555
H22A C30A 1_555 1_555
O1A Cs1 1_555 1_555
O2A Cs1 1_555 1_555
O3A Cs1 1_555 1_555
O3A_2 Dy1 1_555 1_555
O3_2 Dy1 1_555 1_555
O4A Cs1 1_555 1_555
O4A_2 Dy1 1_555 1_555
O4_2 Dy1 1_555 1_555
Dy1_2 O3 1_555 1_555
C5 C6 1_555 1_555
C14 C15 1_555 1_555
C20 C21 1_555 1_555
C29 C30 1_555 1_555
C32 N1 1_555 1_555
C33 N1 1_555 1_555
O2 Cs1 1_555 1_555
O2 Dy1 1_555 1_555
O3 Cs1 1_555 1_555
O4 Cs1 1_555 1_555
O4 Dy1_2 1_555 1_555
Dy1 O1A 1_555 1_555
Dy1 O2A 1_555 1_555
C5A C6A 1_555 1_555
C7A O1A 1_555 1_555
C9A O2A 1_555 1_555
C14A C15A 1_555 1_555
C20A C21A 1_555 1_555
C22A O3A 1_555 1_555
C24A O4A 1_555 1_555
C29A C30A 1_555 1_555
O3A Dy1_2 1_555 1_555
O4A Dy1_2 1_555 1_555

#END
