
#######################################################################
#
#                 Cambridge Crystallographic Data Centre
#                                CCDC 
#
#######################################################################
#
# If this CIF has been generated from an entry in the Cambridge 
# Structural Database, then it will include bibliographic, chemical, 
# crystal, experimental, refinement or atomic coordinate data resulting 
# from the CCDC's data processing and validation procedures.
#
#######################################################################

data_NAMSAV
_symmetry_cell_setting           monoclinic
_symmetry_space_group_name_H-M   'P 21/n'
_symmetry_Int_Tables_number      14
_space_group_name_Hall           '-P 2yn'
loop_
_symmetry_equiv_pos_site_id
_symmetry_equiv_pos_as_xyz
1 x,y,z
2 1/2-x,1/2+y,1/2-z
3 -x,-y,-z
4 1/2+x,1/2-y,1/2+z
_cell_length_a                   9.3877(22)
_cell_length_b                   17.312(3)
_cell_length_c                   12.1175(17)
_cell_angle_alpha                90
_cell_angle_beta                 92.720(20)
_cell_angle_gamma                90
_cell_volume                     1967.12
loop_
_atom_site_label
_atom_site_type_symbol
_atom_site_fract_x
_atom_site_fract_y
_atom_site_fract_z
O1 O 0.3371(6) 0.2941(3) 0.1419(5)
O2 O 0.5475(5) 0.2543(4) 0.1045(5)
O3 O 0.3595(6) 0.1908(3) 0.0495(5)
O4 O -0.0760(5) 0.1943(3) 0.0245(4)
O5 O 0.0901(7) 0.1394(3) -0.0540(5)
O6 O -0.1259(8) 0.1036(4) -0.0921(5)
N1 N 0.4191(7) 0.2464(5) 0.1011(6)
N2 N -0.0400(8) 0.1444(4) -0.0448(5)
N3 N 0.1417(7) 0.3108(3) -0.0617(5)
N4 N 0.0246(6) 0.3226(3) 0.1740(4)
N5 N 0.1367(6) 0.1561(3) 0.2154(5)
C1 C 0.0277(8) 0.3512(5) -0.0980(7)
C2 C 0.0171(8) 0.3920(5) -0.1960(6)
C3 C 0.1306(8) 0.3920(4) -0.2647(6)
C4 C 0.2506(7) 0.3516(4) -0.2261(6)
C5 C 0.2511(8) 0.3120(4) -0.1278(6)
C6 C 0.0935(7) 0.3731(4) 0.2408(7)
C7 C 0.0311(8) 0.4256(4) 0.3052(6)
C8 C -0.1165(8) 0.4309(4) 0.3056(5)
C9 C -0.1892(7) 0.3796(4) 0.2379(6)
C10 C -0.1192(8) 0.3261(4) 0.1752(6)
C11 C 0.1251(7) 0.4304(4) -0.3762(5)
C12 C -0.1927(8) 0.4886(4) 0.3741(6)
C13 C 0.1158(8) 0.0802(4) 0.1967(6)
C14 C 0.0985(8) 0.0271(4) 0.2799(7)
C15 C 0.1041(7) 0.0505(4) 0.3887(6)
C16 C 0.1300(8) 0.1270(4) 0.4081(6)
C17 C 0.1476(8) 0.1779(4) 0.3220(6)
C18 C 0.0764(7) -0.0039(4) 0.4822(6)
Co1 Co 0.13663(10) 0.23885(5) 0.08077(8)
H1 H -0.058 0.354 -0.048
H2 H -0.076 0.421 -0.222
H3 H 0.341 0.351 -0.272
H4 H 0.345 0.284 -0.102
H5 H 0.205 0.372 0.244
H6 H 0.093 0.462 0.355
H7 H -0.298 0.382 0.234
H8 H -0.181 0.288 0.126
H9 H 0.112 0.061 0.116
H10 H 0.082 -0.031 0.262
H11 H 0.130 0.146 0.488
H12 H 0.170 0.235 0.341
H13 H 0.176 0.394 -0.437
H14 H 0.012 0.437 -0.407
H15 H -0.195 0.467 0.460
H16 H -0.303 0.495 0.344
H17 H 0.096 -0.064 0.460
H18 H 0.149 0.009 0.555
C12B C 0.1927(8) 0.5114(4) -0.3741(6)
C8B C 0.1165(8) 0.5691(4) -0.3056(5)
C7B C -0.0311(8) 0.5744(4) -0.3052(6)
C6B C -0.0935(7) 0.6269(4) -0.2408(7)
N4B N -0.0246(6) 0.6774(3) -0.1740(4)
C10B C 0.1192(8) 0.6739(4) -0.1752(6)
C9B C 0.1892(7) 0.6204(4) -0.2379(6)
H7B H 0.298 0.618 -0.234
H8B H 0.181 0.712 -0.126
Co1B Co -0.13663(10) 0.76115(5) -0.08077(8)
O1B O -0.3371(6) 0.7059(3) -0.1419(5)
N1B N -0.4191(7) 0.7536(5) -0.1011(6)
O2B O -0.5475(5) 0.7457(4) -0.1045(5)
O3B O -0.3595(6) 0.8092(3) -0.0495(5)
O4B O 0.0760(5) 0.8057(3) -0.0245(4)
N2B N 0.0400(8) 0.8556(4) 0.0448(5)
O5B O -0.0901(7) 0.8606(3) 0.0540(5)
N3B N -0.1417(7) 0.6892(3) 0.0617(5)
C1B C -0.0277(8) 0.6488(5) 0.0980(7)
C2B C -0.0171(8) 0.6080(5) 0.1960(6)
C3B C -0.1306(8) 0.6080(4) 0.2647(6)
C4B C -0.2506(7) 0.6484(4) 0.2261(6)
C5B C -0.2511(8) 0.6880(4) 0.1278(6)
H4B H -0.345 0.716 0.102
H3B H -0.341 0.649 0.272
C11B C -0.1251(7) 0.5696(4) 0.3762(5)
C18B C -0.0764(7) 0.0039(4) 0.5178(6)
C15B C -0.1041(7) -0.0505(4) 0.6113(6)
C14B C -0.0985(8) -0.0271(4) 0.7201(7)
C13B C -0.1158(8) -0.0802(4) 0.8033(6)
N5B N -0.1367(6) -0.1561(3) 0.7846(5)
C17B C -0.1476(8) -0.1779(4) 0.6780(6)
C16B C -0.1300(8) -0.1270(4) 0.5919(6)
H11B H -0.130 -0.146 0.512
H12B H -0.170 -0.235 0.659
Co1B_2 Co -0.13663(10) -0.23885(5) 0.91923(8)
H9B H -0.112 -0.061 0.884
H10B H -0.082 0.031 0.738
H17B H -0.096 0.064 0.540
H18B H -0.149 -0.009 0.445
H13B H -0.176 0.606 0.437
H14B H -0.012 0.563 0.407
H2B H 0.076 0.579 0.222
H1B H 0.058 0.646 0.048
N5B_2 N -0.1367(6) 0.8439(3) -0.2154(5)
O6B O 0.1259(8) 0.8964(4) 0.0921(5)
H5B H -0.205 0.628 -0.244
H6B H -0.093 0.538 -0.355
H15B H 0.195 0.533 -0.460
H16B H 0.303 0.505 -0.344
loop_
_geom_bond_atom_site_label_1
_geom_bond_atom_site_label_2
_geom_bond_site_symmetry_1
_geom_bond_site_symmetry_2
O1 N1 1_555 1_555
O2 N1 1_555 1_555
O3 N1 1_555 1_555
O4 N2 1_555 1_555
O5 N2 1_555 1_555
O6 N2 1_555 1_555
N3 C1 1_555 1_555
N4 C6 1_555 1_555
N5 C13 1_555 1_555
C1 C2 1_555 1_555
C2 C3 1_555 1_555
C3 C4 1_555 1_555
C4 C5 1_555 1_555
C5 N3 1_555 1_555
C6 C7 1_555 1_555
C7 C8 1_555 1_555
C8 C9 1_555 1_555
C9 C10 1_555 1_555
C10 N4 1_555 1_555
C11 C3 1_555 1_555
C12 C8 1_555 1_555
C13 C14 1_555 1_555
C14 C15 1_555 1_555
C15 C16 1_555 1_555
C16 C17 1_555 1_555
C17 N5 1_555 1_555
C18 C15 1_555 1_555
Co1 O1 1_555 1_555
H1 C1 1_555 1_555
H2 C2 1_555 1_555
H3 C4 1_555 1_555
H4 C5 1_555 1_555
H5 C6 1_555 1_555
H6 C7 1_555 1_555
H7 C9 1_555 1_555
H8 C10 1_555 1_555
H9 C13 1_555 1_555
H10 C14 1_555 1_555
H11 C16 1_555 1_555
H12 C17 1_555 1_555
H13 C11 1_555 1_555
H14 C11 1_555 1_555
H15 C12 1_555 1_555
H16 C12 1_555 1_555
H17 C18 1_555 1_555
H18 C18 1_555 1_555
C12B C11 1_555 1_555
C8B C12B 1_555 1_555
C7B C8B 1_555 1_555
C6B C7B 1_555 1_555
N4B C6B 1_555 1_555
C10B N4B 1_555 1_555
C9B C8B 1_555 1_555
H7B C9B 1_555 1_555
H8B C10B 1_555 1_555
Co1B N4B 1_555 1_555
O1B Co1B 1_555 1_555
N1B O1B 1_555 1_555
O2B N1B 1_555 1_555
O3B Co1B 1_555 1_555
O4B Co1B 1_555 1_555
N2B O4B 1_555 1_555
O5B Co1B 1_555 1_555
N3B Co1B 1_555 1_555
C1B N3B 1_555 1_555
C2B C1B 1_555 1_555
C3B C2B 1_555 1_555
C4B C3B 1_555 1_555
C5B N3B 1_555 1_555
H4B C5B 1_555 1_555
H3B C4B 1_555 1_555
C11B C12 1_555 1_555
C18B C18 1_555 1_555
C15B C18B 1_555 1_555
C14B C15B 1_555 1_555
C13B C14B 1_555 1_555
N5B C13B 1_555 1_555
C17B N5B 1_555 1_555
C16B C15B 1_555 1_555
H11B C16B 1_555 1_555
H12B C17B 1_555 1_555
Co1B_2 N5B 1_555 1_555
H9B C13B 1_555 1_555
H10B C14B 1_555 1_555
H17B C18B 1_555 1_555
H18B C18B 1_555 1_555
H13B C11B 1_555 1_555
H14B C11B 1_555 1_555
H2B C2B 1_555 1_555
H1B C1B 1_555 1_555
N5B_2 Co1B 1_555 1_555
O6B N2B 1_555 1_555
H5B C6B 1_555 1_555
H6B C7B 1_555 1_555
H15B C12B 1_555 1_555
H16B C12B 1_555 1_555
O3 Co1 1_555 1_555
O4 Co1 1_555 1_555
O5 Co1 1_555 1_555
N3 Co1 1_555 1_555
N4 Co1 1_555 1_555
N5 Co1 1_555 1_555
C10B C9B 1_555 1_555
N1B O3B 1_555 1_555
N2B O5B 1_555 1_555
C3B C11B 1_555 1_555
C4B C5B 1_555 1_555
C17B C16B 1_555 1_555

#END
