
#######################################################################
#
#                 Cambridge Crystallographic Data Centre
#                                CCDC 
#
#######################################################################
#
# If this CIF has been generated from an entry in the Cambridge 
# Structural Database, then it will include bibliographic, chemical, 
# crystal, experimental, refinement or atomic coordinate data resulting 
# from the CCDC's data processing and validation procedures.
#
#######################################################################

data_NANWIJ
_symmetry_cell_setting           triclinic
_symmetry_space_group_name_H-M   'P -1'
_symmetry_Int_Tables_number      2
_space_group_name_Hall           '-P 1'
loop_
_symmetry_equiv_pos_site_id
_symmetry_equiv_pos_as_xyz
1 x,y,z
2 -x,-y,-z
_cell_length_a                   9.9995(4)
_cell_length_b                   11.6029(5)
_cell_length_c                   20.2826(10)
_cell_angle_alpha                82.925(3)
_cell_angle_beta                 88.436(3)
_cell_angle_gamma                77.008(2)
_cell_volume                     2275.55
loop_
_atom_site_label
_atom_site_type_symbol
_atom_site_fract_x
_atom_site_fract_y
_atom_site_fract_z
Cd1 Cd 0.492276(19) 0.271784(19) 0.246279(10)
O1 O 0.3491(2) 0.1462(2) 0.29350(13)
H1 H 0.281(3) 0.142(4) 0.2737(16)
H2 H 0.334(4) 0.141(4) 0.3345(12)
O2 O 0.6384(3) 0.3851(2) 0.19537(12)
H3 H 0.608(4) 0.455(2) 0.2009(18)
H4 H 0.645(4) 0.381(3) 0.1548(13)
N1 N 0.8732(3) 0.0805(2) 0.35241(13)
N2 N 0.7849(3) 0.0405(3) 0.39730(13)
N3 N 0.6711(3) 0.1563(2) 0.31095(12)
N4 N 1.3461(3) -0.5050(2) 0.40950(12)
N5 N 1.4775(3) -0.4893(3) 0.40536(14)
N6 N 1.4427(3) -0.6096(2) 0.33229(12)
N7 N 0.0975(3) 0.4416(2) 0.14685(13)
N8 N 0.1798(3) 0.4617(3) 0.09390(13)
N9 N 0.3050(3) 0.3750(2) 0.18346(13)
N10 N -0.3433(3) 1.0403(2) 0.08938(13)
N11 N -0.4755(3) 1.0268(3) 0.08663(14)
N12 N -0.4535(3) 1.1488(2) 0.16133(12)
C1 C 1.0791(3) -0.0754(3) 0.38794(17)
C2 C 1.1377(3) -0.1096(3) 0.45004(17)
H5 H 1.1399 -0.0510 0.4785
C3 C 1.1934(3) -0.2286(3) 0.47149(16)
H6 H 1.2331 -0.2507 0.5145
C4 C 1.1913(3) -0.3149(3) 0.43073(15)
C5 C 1.1323(4) -0.2808(3) 0.36817(17)
H7 H 1.1296 -0.3394 0.3397
C6 C 1.0772(4) -0.1617(3) 0.34689(17)
H8 H 1.0379 -0.1393 0.3038
C7 C 1.0211(3) 0.0545(3) 0.3651(2)
H9 H 1.0393 0.1027 0.3994
H10 H 1.0686 0.0782 0.3239
C8 C 1.2478(4) -0.4449(3) 0.45600(16)
H11 H 1.2935 -0.4503 0.4993
H12 H 1.1709 -0.4859 0.4631
C9 C 0.6649(3) 0.0885(3) 0.37016(16)
H13 H 0.5810 0.0769 0.3900
C10 C 0.8040(3) 0.1490(3) 0.30214(15)
H14 H 0.8438 0.1873 0.2651
C11 C 1.5302(3) -0.5539(3) 0.35860(16)
H15 H 1.6226 -0.5612 0.3442
C12 C 1.3281(3) -0.5762(3) 0.36556(15)
H16 H 1.2448 -0.5996 0.3590
C13 C -0.1033(3) 0.6043(3) 0.11753(16)
C14 C -0.1534(4) 0.6412(3) 0.05436(18)
H17 H -0.1581 0.5837 0.0255
C15 C -0.1974(4) 0.7617(3) 0.03205(17)
H18 H -0.2320 0.7859 -0.0118
C16 C -0.1911(3) 0.8458(3) 0.07315(16)
C17 C -0.1391(4) 0.8088(3) 0.13704(18)
H19 H -0.1330 0.8664 0.1656
C18 C -0.0963(4) 0.6897(3) 0.15913(17)
H20 H -0.0618 0.6654 0.2030
C19 C -0.0529(3) 0.4737(3) 0.14127(19)
H21 H -0.0939 0.4548 0.1851
H22 H -0.0827 0.4258 0.1097
C20 C -0.2350(4) 0.9770(3) 0.04802(18)
H23 H -0.1545 1.0136 0.0475
H24 H -0.2688 0.9860 0.0018
C21 C 0.3035(3) 0.4198(3) 0.11856(16)
H25 H 0.3846 0.4207 0.0932
C22 C 0.1743(3) 0.3907(3) 0.19902(16)
H26 H 0.1399 0.3685 0.2417
C23 C -0.5370(3) 1.0955(3) 0.13040(16)
H27 H -0.6324 1.1068 0.1396
C24 C -0.3328(3) 1.1118(3) 0.13417(15)
H28 H -0.2505 1.1332 0.1451
Cd1_2 Cd 1.492276(19) -0.728216(19) 0.246279(10)
Cd1_3 Cd -0.507724(19) 1.271784(19) 0.246279(10)
N6_2 N 0.4427(3) 0.3904(2) 0.33229(12)
N12_2 N 0.5465(3) 0.1488(2) 0.16133(12)
B1 B 0.0616(3) 0.0955(3) 0.16048(17)
F1 F 0.1454(3) 0.1302(3) 0.20559(15)
F2 F 0.1422(4) 0.0543(3) 0.11064(15)
F3 F -0.0403(3) 0.1920(3) 0.1399(2)
F4 F 0.0010(3) 0.0104(2) 0.19345(14)
B2 B -0.0524(4) 0.4151(4) 0.3590(2)
F5 F -0.0062(4) 0.4377(4) 0.4191(2)
F6 F 0.0499(3) 0.3218(2) 0.33978(15)
F7 F -0.1610(4) 0.3727(6) 0.3782(3)
F8 F -0.0543(7) 0.5091(3) 0.3170(2)
O3 O 0.5215(4) 0.6092(3) 0.21613(18)
N13 N 0.5208(4) 0.7832(3) 0.25258(17)
C25 C 0.3799(7) 0.8299(6) 0.2437(5)
H29 H 0.3635 0.8771 0.2000
H30 H 0.3455 0.8808 0.2784
H31 H 0.3319 0.7645 0.2465
C26 C 0.5998(7) 0.8640(5) 0.2739(3)
H32 H 0.6930 0.8194 0.2859
H33 H 0.5553 0.8996 0.3125
H34 H 0.6040 0.9271 0.2376
C27 C 0.5807(6) 0.6778(4) 0.2380(2)
H35 H 0.6769 0.6523 0.2449
O4 O 0.6370(3) 0.3799(3) 0.06155(13)
N14 N 0.6824(3) 0.2911(3) -0.03219(15)
C28 C 0.7839(6) 0.2485(5) -0.0812(2)
H36 H 0.8760 0.2439 -0.0642
H37 H 0.7684 0.3035 -0.1224
H38 H 0.7759 0.1692 -0.0901
C29 C 0.5404(5) 0.2897(5) -0.0433(2)
H39 H 0.4854 0.3150 -0.0047
H40 H 0.5335 0.2089 -0.0496
H41 H 0.5062 0.3444 -0.0830
C30 C 0.7173(4) 0.3376(3) 0.01932(18)
H42 H 0.8114 0.3385 0.0240
O5 O 0.3399(3) 0.1286(3) 0.42612(13)
N15 N 0.3068(3) 0.2268(3) 0.51699(15)
C31 C 0.2101(5) 0.2802(4) 0.5648(2)
H43 H 0.1184 0.3050 0.5449
H44 H 0.2379 0.3499 0.5780
H45 H 0.2085 0.2220 0.6040
C32 C 0.4522(5) 0.2170(5) 0.5270(2)
H46 H 0.4921 0.1395 0.5519
H47 H 0.4649 0.2807 0.5521
H48 H 0.4979 0.2241 0.4838
C33 C 0.2655(4) 0.1814(4) 0.46707(19)
H49 H 0.1693 0.1902 0.4623
loop_
_geom_bond_atom_site_label_1
_geom_bond_atom_site_label_2
_geom_bond_site_symmetry_1
_geom_bond_site_symmetry_2
Cd1 O1 1_555 1_555
B1 F1 1_555 1_555
B2 F5 1_555 1_555
F2 B1 1_555 1_555
F3 B1 1_555 1_555
F4 B1 1_555 1_555
F6 B2 1_555 1_555
F7 B2 1_555 1_555
F8 B2 1_555 1_555
O1 H1 1_555 1_555
H2 O1 1_555 1_555
O2 Cd1 1_555 1_555
H3 O2 1_555 1_555
H4 O2 1_555 1_555
O3 C27 1_555 1_555
O4 C30 1_555 1_555
O5 C33 1_555 1_555
N1 N2 1_555 1_555
N2 C9 1_555 1_555
N3 Cd1 1_555 1_555
N4 N5 1_555 1_555
N5 C11 1_555 1_555
N6 C11 1_555 1_555
N7 N8 1_555 1_555
N8 C21 1_555 1_555
N9 Cd1 1_555 1_555
N10 N11 1_555 1_555
N11 C23 1_555 1_555
N12 C23 1_555 1_555
N13 C25 1_555 1_555
N14 C28 1_555 1_555
N15 C31 1_555 1_555
C1 C2 1_555 1_555
C2 H5 1_555 1_555
C3 C2 1_555 1_555
H6 C3 1_555 1_555
C4 C3 1_555 1_555
C5 C4 1_555 1_555
H7 C5 1_555 1_555
C6 C1 1_555 1_555
H8 C6 1_555 1_555
C7 N1 1_555 1_555
H9 C7 1_555 1_555
H10 C7 1_555 1_555
C8 N4 1_555 1_555
H11 C8 1_555 1_555
H12 C8 1_555 1_555
C9 N3 1_555 1_555
H13 C9 1_555 1_555
C10 N1 1_555 1_555
H14 C10 1_555 1_555
C11 H15 1_555 1_555
C12 N4 1_555 1_555
H16 C12 1_555 1_555
C13 C14 1_555 1_555
C14 H17 1_555 1_555
C15 C14 1_555 1_555
H18 C15 1_555 1_555
C16 C15 1_555 1_555
C17 C16 1_555 1_555
H19 C17 1_555 1_555
C18 C13 1_555 1_555
H20 C18 1_555 1_555
C19 N7 1_555 1_555
H21 C19 1_555 1_555
H22 C19 1_555 1_555
C20 N10 1_555 1_555
H23 C20 1_555 1_555
H24 C20 1_555 1_555
C21 N9 1_555 1_555
H25 C21 1_555 1_555
C22 N7 1_555 1_555
H26 C22 1_555 1_555
C23 H27 1_555 1_555
C24 N10 1_555 1_555
H28 C24 1_555 1_555
C25 H29 1_555 1_555
H30 C25 1_555 1_555
H31 C25 1_555 1_555
C26 N13 1_555 1_555
H32 C26 1_555 1_555
H33 C26 1_555 1_555
H34 C26 1_555 1_555
C27 N13 1_555 1_555
H35 C27 1_555 1_555
C28 H36 1_555 1_555
H37 C28 1_555 1_555
H38 C28 1_555 1_555
C29 N14 1_555 1_555
H39 C29 1_555 1_555
H40 C29 1_555 1_555
H41 C29 1_555 1_555
C30 N14 1_555 1_555
H42 C30 1_555 1_555
C31 H43 1_555 1_555
H44 C31 1_555 1_555
H45 C31 1_555 1_555
C32 N15 1_555 1_555
H46 C32 1_555 1_555
H47 C32 1_555 1_555
H48 C32 1_555 1_555
C33 N15 1_555 1_555
H49 C33 1_555 1_555
Cd1_2 N6 1_555 1_555
Cd1_3 N12 1_555 1_555
N6_2 Cd1 1_555 1_555
N12_2 Cd1 1_555 1_555
N3 C10 1_555 1_555
N6 C12 1_555 1_555
N9 C22 1_555 1_555
N12 C24 1_555 1_555
C1 C7 1_555 1_555
C4 C8 1_555 1_555
C5 C6 1_555 1_555
C13 C19 1_555 1_555
C16 C20 1_555 1_555
C17 C18 1_555 1_555

#END
