
#######################################################################
#
#                 Cambridge Crystallographic Data Centre
#                                CCDC 
#
#######################################################################
#
# If this CIF has been generated from an entry in the Cambridge 
# Structural Database, then it will include bibliographic, chemical, 
# crystal, experimental, refinement or atomic coordinate data resulting 
# from the CCDC's data processing and validation procedures.
#
#######################################################################

data_NANYUX
_symmetry_cell_setting           monoclinic
_symmetry_space_group_name_H-M   'P 21/n'
_symmetry_Int_Tables_number      14
_space_group_name_Hall           '-P 2yn'
loop_
_symmetry_equiv_pos_site_id
_symmetry_equiv_pos_as_xyz
1 x,y,z
2 1/2-x,1/2+y,1/2-z
3 -x,-y,-z
4 1/2+x,1/2-y,1/2+z
_cell_length_a                   9.4550(6)
_cell_length_b                   16.0074(11)
_cell_length_c                   11.0347(7)
_cell_angle_alpha                90
_cell_angle_beta                 98.4660(10)
_cell_angle_gamma                90
_cell_volume                     1651.9
loop_
_atom_site_label
_atom_site_type_symbol
_atom_site_fract_x
_atom_site_fract_y
_atom_site_fract_z
Zn1 Zn 0.13113(3) 0.07995(2) -0.06871(3)
O1 O 0.2030(2) -0.00498(17) 0.0554(2)
O2 O 0.0457(2) -0.04746(15) 0.1747(2)
O3 O 0.7056(2) -0.06788(13) 0.1548(2)
O4 O 0.7823(2) -0.16975(15) 0.2853(2)
O5 O 0.4233(3) -0.32157(15) 0.4863(2)
O6 O 0.2132(3) -0.2625(2) 0.4978(3)
C1 C 0.1696(3) -0.0443(2) 0.1446(3)
C2 C 0.6867(3) -0.12329(19) 0.2337(3)
C3 C 0.3282(4) -0.2652(2) 0.4589(3)
C4 C 0.2861(3) -0.09330(18) 0.2202(3)
C5 C 0.4269(3) -0.08377(19) 0.1982(3)
C6 C 0.5361(3) -0.13127(18) 0.2614(3)
C7 C 0.5037(3) -0.18917(19) 0.3475(3)
C8 C 0.3640(3) -0.1991(2) 0.3707(3)
C9 C 0.2548(3) -0.15034(19) 0.3072(3)
H1 H 0.446(4) -0.047(2) 0.139(3)
H2 H 0.585(4) -0.223(3) 0.396(4)
H3 H 0.162(4) -0.158(2) 0.323(3)
Zn1B Zn -0.13113(3) -0.07995(2) 0.06871(3)
Zn1B_2 Zn 0.86887(3) -0.07995(2) 0.06871(3)
Zn1A Zn 0.36887(3) -0.42005(2) 0.56871(3)
O2B O -0.0457(2) 0.04746(15) -0.1747(2)
O3B O 0.2944(2) 0.06788(13) -0.1548(2)
O5A O 0.0767(3) 0.17843(15) 0.0137(2)
N1 N 0.1597(5) 0.3346(2) -0.2707(4)
C10 C 0.1023(6) 0.3572(3) -0.3994(5)
H4 H 0.0846 0.4162 -0.4047
H5 H 0.0146 0.3276 -0.4244
H6 H 0.1707 0.3424 -0.4520
C11 C 0.2993(6) 0.3733(3) -0.2295(5)
H7 H 0.3667 0.3552 -0.2812
H8 H 0.3324 0.3571 -0.1464
H9 H 0.2901 0.4330 -0.2339
H10 H 0.089(4) 0.345(3) -0.225(4)
H11 H 0.180(5) 0.270(3) -0.264(4)
O7 O 0.0182(4) 0.5925(2) -0.8744(4)
N2 N 0.2458(5) 0.5900(3) -0.9147(5)
C12 C 0.1121(7) 0.5545(5) -0.9249(7)
C13 C 0.2804(14) 0.6628(6) -0.8448(11)
C14 C 0.3556(9) 0.5394(6) -0.9635(8)
O8? O 0.0182(4) 0.5925(2) -0.8744(4)
N3? N 0.2458(5) 0.5900(3) -0.9147(5)
C15? C 0.1355(15) 0.6351(10) -0.8627(14)
C16? C 0.344(2) 0.6653(10) -0.899(2)
C17? C 0.264(3) 0.5174(11) -0.985(2)
loop_
_geom_bond_atom_site_label_1
_geom_bond_atom_site_label_2
_geom_bond_site_symmetry_1
_geom_bond_site_symmetry_2
Zn1 O1 1_555 1_555
O1 C1 1_555 1_555
O2 C1 1_555 1_555
O3 C2 1_555 1_555
O4 C2 1_555 1_555
O5 C3 1_555 1_555
O6 C3 1_555 1_555
C1 C4 1_555 1_555
C2 C6 1_555 1_555
C3 C8 1_555 1_555
C4 C5 1_555 1_555
C5 C6 1_555 1_555
C6 C7 1_555 1_555
C7 C8 1_555 1_555
C8 C9 1_555 1_555
C9 C4 1_555 1_555
H1 C5 1_555 1_555
H2 C7 1_555 1_555
H3 C9 1_555 1_555
N1 C10 1_555 1_555
C10 H4 1_555 1_555
H5 C10 1_555 1_555
H6 C10 1_555 1_555
C11 N1 1_555 1_555
H7 C11 1_555 1_555
H8 C11 1_555 1_555
H9 C11 1_555 1_555
H10 N1 1_555 1_555
H11 N1 1_555 1_555
O7 C12 1_555 1_555
N2 C12 1_555 1_555
C13 N2 1_555 1_555
C14 N2 1_555 1_555
Zn1B O2 1_555 1_555
Zn1B_2 O3 1_555 1_555
Zn1A O5 1_555 1_555
O2B Zn1 1_555 1_555
O3B Zn1 1_555 1_555
O5A Zn1 1_555 1_555

#END
