
#######################################################################
#
#                 Cambridge Crystallographic Data Centre
#                                CCDC 
#
#######################################################################
#
# If this CIF has been generated from an entry in the Cambridge 
# Structural Database, then it will include bibliographic, chemical, 
# crystal, experimental, refinement or atomic coordinate data resulting 
# from the CCDC's data processing and validation procedures.
#
#######################################################################

data_NANZOS
_symmetry_cell_setting           tetragonal
_symmetry_space_group_name_H-M   'I 41/a'
_symmetry_Int_Tables_number      88
_space_group_name_Hall           '-I 4ad'
loop_
_symmetry_equiv_pos_site_id
_symmetry_equiv_pos_as_xyz
1 x,y,z
2 3/4-y,1/4+x,1/4+z
3 1/2+x,1/2+y,1/2+z
4 1/4-y,3/4+x,3/4+z
5 1/4+y,1/4-x,1/4+z
6 1/2-x,-y,1/2+z
7 3/4+y,3/4-x,3/4+z
8 -x,1/2-y,z
9 -x,-y,-z
10 1/4+y,3/4-x,3/4-z
11 1/2-x,1/2-y,1/2-z
12 3/4+y,1/4-x,1/4-z
13 3/4-y,3/4+x,3/4-z
14 1/2+x,y,1/2-z
15 1/4-y,1/4+x,1/4-z
16 x,1/2+y,-z
_cell_length_a                   20.1321(15)
_cell_length_b                   20.1321(15)
_cell_length_c                   16.1402(12)
_cell_angle_alpha                90
_cell_angle_beta                 90
_cell_angle_gamma                90
_cell_volume                     6541.65
loop_
_atom_site_label
_atom_site_type_symbol
_atom_site_fract_x
_atom_site_fract_y
_atom_site_fract_z
Gd1 Gd 0.07608(2) 0.45401(2) 0.16125(2)
Gd2 Gd 0.29665(2) 0.68185(2) 0.33001(2)
N1 N 0.1267(3) 0.5412(3) 0.2422(4)
N2 N 0.1922(3) 0.6237(3) 0.2898(4)
N3 N 0.2012(3) 0.4412(3) 0.1385(4)
N4 N 0.3125(3) 0.4463(3) 0.1233(4)
O1 O 0.0353(3) 0.4643(3) 0.3144(3)
O2 O 0.0342(3) 0.5206(3) 0.4327(3)
O3 O 0.1248(3) 0.6216(3) 0.4938(3)
O4 O 0.2137(3) 0.6695(3) 0.4407(3)
O5 O 0.2092(3) 0.3359(3) 0.3158(4)
O6 O 0.1251(3) 0.3613(3) 0.2325(4)
O7 O 0.3491(3) 0.3276(3) 0.2841(3)
O8 O 0.4121(3) 0.3773(3) 0.1905(3)
O9 O 0.3859(3) 0.7590(3) 0.2965(4)
H1 H 0.412(2) 0.769(3) 0.3367(18)
H2 H 0.410(2) 0.748(3) 0.255(3)
O10 O -0.0165(4) 0.5271(3) 0.1650(4)
H3 H -0.019(3) 0.560(3) 0.134(4)
H4 H -0.037(3) 0.534(3) 0.210(2)
O11 O -0.0101(4) 0.3733(3) 0.1678(4)
H5 H -0.031(5) 0.360(4) 0.124(3)
H6 H -0.035(5) 0.365(3) 0.209(3)
C1 C 0.0582(4) 0.5112(4) 0.3607(5)
C2 C 0.1104(4) 0.5521(4) 0.3243(5)
C3 C 0.1520(4) 0.6028(4) 0.3531(5)
C4 C 0.1632(4) 0.6322(4) 0.4357(5)
C5 C 0.1735(5) 0.5856(5) 0.2251(6)
H9 H 0.188(5) 0.584(5) 0.174(5)
C6 C 0.1870(4) 0.3629(4) 0.2522(5)
C7 C 0.2299(4) 0.3989(4) 0.1955(5)
C8 C 0.2992(4) 0.4015(4) 0.1861(5)
C9 C 0.3547(4) 0.3670(4) 0.2239(5)
C10 C 0.2535(5) 0.4678(5) 0.0982(5)
H10 H 0.241(4) 0.499(4) 0.054(5)
Gd1A Gd 0.29599(2) 0.32608(2) 0.41125(2)
Gd2F Gd 0.43185(2) 0.45335(2) 0.08001(2)
Gd2A Gd 0.06815(2) 0.54665(2) 0.58001(2)
Gd2I Gd -0.06815(2) 0.45335(2) 0.41999(2)
N4A N 0.3037(3) 0.5625(3) 0.3733(4)
O1L O 0.2857(3) 0.7853(3) 0.4356(3)
O2F O 0.2706(3) 0.7158(3) 0.1827(3)
O2L O 0.2294(3) 0.7842(3) 0.3173(3)
O3F O 0.3716(3) 0.6252(3) 0.2438(3)
O5F O 0.0859(3) 0.5408(3) 0.0658(4)
O7F O 0.0776(3) 0.4009(3) 0.0341(3)
O8A O 0.3727(3) 0.6621(3) 0.4405(3)
O12 O 0.0754(5) 0.2741(4) -0.6426(5)
H7 H 0.103(2) 0.305(2) -0.658(4)
H8 H 0.0588(5) 0.259(3) -0.687(3)
loop_
_geom_bond_atom_site_label_1
_geom_bond_atom_site_label_2
_geom_bond_site_symmetry_1
_geom_bond_site_symmetry_2
Gd1 N1 1_555 1_555
Gd2 N2 1_555 1_555
N1 C2 1_555 1_555
N2 C3 1_555 1_555
N3 Gd1 1_555 1_555
N4 C8 1_555 1_555
O1 Gd1 1_555 1_555
O2 C1 1_555 1_555
O3 C4 1_555 1_555
O4 Gd2 1_555 1_555
O5 C6 1_555 1_555
O6 Gd1 1_555 1_555
O7 C9 1_555 1_555
O8 C9 1_555 1_555
O9 Gd2 1_555 1_555
H1 O9 1_555 1_555
H2 O9 1_555 1_555
O10 Gd1 1_555 1_555
H3 O10 1_555 1_555
H4 O10 1_555 1_555
O11 Gd1 1_555 1_555
H5 O11 1_555 1_555
H6 O11 1_555 1_555
O12 H7 1_555 1_555
H8 O12 1_555 1_555
C1 O1 1_555 1_555
C2 C1 1_555 1_555
C3 C2 1_555 1_555
C4 O4 1_555 1_555
C5 N1 1_555 1_555
H9 C5 1_555 1_555
C6 O6 1_555 1_555
C7 N3 1_555 1_555
C8 C7 1_555 1_555
C9 C8 1_555 1_555
C10 N3 1_555 1_555
H10 C10 1_555 1_555
Gd1A O5 1_555 1_555
Gd2F N4 1_555 1_555
Gd2A O2 1_555 1_555
Gd2I O1 1_555 1_555
N4A Gd2 1_555 1_555
O1L Gd2 1_555 1_555
O2F Gd2 1_555 1_555
O2L Gd2 1_555 1_555
O3F Gd2 1_555 1_555
O5F Gd1 1_555 1_555
O7F Gd1 1_555 1_555
O8A Gd2 1_555 1_555
N2 C5 1_555 1_555
N4 C10 1_555 1_555
O2 Gd2I 1_555 1_555
O3 Gd2A 1_555 1_555
O7 Gd1A 1_555 1_555
O8 Gd2F 1_555 1_555
C3 C4 1_555 1_555
C6 C7 1_555 1_555

#END
