
#######################################################################
#
#                 Cambridge Crystallographic Data Centre
#                                CCDC 
#
#######################################################################
#
# If this CIF has been generated from an entry in the Cambridge 
# Structural Database, then it will include bibliographic, chemical, 
# crystal, experimental, refinement or atomic coordinate data resulting 
# from the CCDC's data processing and validation procedures.
#
#######################################################################

data_NAOXAL12
_symmetry_cell_setting           monoclinic
_symmetry_space_group_name_H-M   'P 21/c'
_symmetry_Int_Tables_number      14
_space_group_name_Hall           '-P 2ybc'
loop_
_symmetry_equiv_pos_site_id
_symmetry_equiv_pos_as_xyz
1 x,y,z
2 -x,1/2+y,1/2-z
3 -x,-y,-z
4 x,1/2-y,1/2+z
_cell_length_a                   3.362(1)
_cell_length_b                   5.227(1)
_cell_length_c                   10.175(1)
_cell_angle_alpha                90.00
_cell_angle_beta                 91.22(1)
_cell_angle_gamma                90.00
_cell_volume                     178.767
loop_
_atom_site_label
_atom_site_type_symbol
_atom_site_fract_x
_atom_site_fract_y
_atom_site_fract_z
Na1 Na 0.315(2) 0.061(1) 0.356(1)
O1 O 0.157(3) -0.126(1) 0.158(1)
O2 O 0.226(3) 0.278(2) 0.073(1)
C1 C 0.107(5) 0.040(3) 0.062(1)
Na1B Na -0.315(2) -0.061(1) -0.356(1)
Na1A Na -0.315(2) -0.439(1) 0.144(1)
Na1A_2 Na 0.685(2) -0.439(1) 0.144(1)
Na1A_3 Na -0.315(2) 0.561(1) 0.144(1)
Na1A_4 Na 0.685(2) 0.561(1) 0.144(1)
Na1C Na 0.315(2) 0.439(1) -0.144(1)
Na1C_2 Na -0.685(2) 0.439(1) -0.144(1)
Na1C_3 Na -0.685(2) -0.561(1) -0.144(1)
Na1C_4 Na 0.315(2) -0.561(1) -0.144(1)
O1B O -0.157(3) 0.126(1) -0.158(1)
O1A O -0.157(3) 0.374(1) 0.342(1)
O1A_2 O 0.843(3) 0.374(1) 0.342(1)
O1C O -0.843(3) -0.374(1) -0.342(1)
O1C_2 O 0.157(3) -0.374(1) -0.342(1)
O2B O -0.226(3) -0.278(2) -0.073(1)
O2A O -0.226(3) -0.222(2) 0.427(1)
O2A_2 O 0.774(3) -0.222(2) 0.427(1)
O2C O 0.226(3) 0.222(2) 0.573(1)
O2A_3 O -0.226(3) -0.222(2) -0.573(1)
O2C_2 O -0.774(3) 0.222(2) -0.427(1)
O2C_3 O 0.226(3) 0.222(2) -0.427(1)
C1B C -0.107(5) -0.040(3) -0.062(1)
loop_
_geom_bond_atom_site_label_1
_geom_bond_atom_site_label_2
_geom_bond_site_symmetry_1
_geom_bond_site_symmetry_2
Na1 O1 1_555 1_555
O1 C1 1_555 1_555
O2 C1 1_555 1_555
C1 C1B 1_555 1_555
Na1B O1B 1_555 1_555
Na1A O1 1_555 1_555
Na1A_2 O1 1_555 1_555
Na1A_3 O2 1_555 1_555
Na1A_4 O2 1_555 1_555
Na1C O2 1_555 1_555
Na1C_2 O1B 1_555 1_555
Na1C_3 O1C 1_555 1_555
Na1C_4 O1C_2 1_555 1_555
O1B Na1C 1_555 1_555
O1A Na1 1_555 1_555
O1A_2 Na1 1_555 1_555
O1C Na1B 1_555 1_555
O1C_2 Na1B 1_555 1_555
O2B Na1A 1_555 1_555
O2A Na1 1_555 1_555
O2A_2 Na1 1_555 1_555
O2C Na1 1_555 1_555
O2A_3 Na1B 1_555 1_555
O2C_2 Na1B 1_555 1_555
O2C_3 Na1B 1_555 1_555
C1B O1B 1_555 1_555
Na1A_3 O1A 1_555 1_555
Na1A_4 O1A_2 1_555 1_555
Na1C_3 O2B 1_555 1_555
Na1C_4 O2B 1_555 1_555
O2B C1B 1_555 1_555

#END
