
#######################################################################
#
#                 Cambridge Crystallographic Data Centre
#                                CCDC 
#
#######################################################################
#
# If this CIF has been generated from an entry in the Cambridge 
# Structural Database, then it will include bibliographic, chemical, 
# crystal, experimental, refinement or atomic coordinate data resulting 
# from the CCDC's data processing and validation procedures.
#
#######################################################################

data_NAPGOB
_symmetry_cell_setting           monoclinic
_symmetry_space_group_name_H-M   'C 2/c'
_symmetry_Int_Tables_number      15
_space_group_name_Hall           '-C 2yn'
loop_
_symmetry_equiv_pos_site_id
_symmetry_equiv_pos_as_xyz
1 x,y,z
2 1/2+x,1/2+y,z
3 -x,y,1/2-z
4 1/2-x,1/2+y,1/2-z
5 -x,-y,-z
6 1/2-x,1/2-y,-z
7 x,-y,1/2+z
8 1/2+x,1/2-y,1/2+z
_cell_length_a                   14.097(3)
_cell_length_b                   14.036(3)
_cell_length_c                   10.923(2)
_cell_angle_alpha                90
_cell_angle_beta                 99.97(3)
_cell_angle_gamma                90
_cell_volume                     2128.65
loop_
_atom_site_label
_atom_site_type_symbol
_atom_site_fract_x
_atom_site_fract_y
_atom_site_fract_z
I1 I -0.5000 0.048493(14) 0.7500
I2 I -0.5000 -0.466131(14) 0.7500
Li1 Li -0.2783(3) -0.2096(2) 0.7430(3)
O1 O -0.29973(13) -0.08849(12) 0.81356(14)
O2 O -0.39986(12) -0.25810(12) 0.66034(14)
N1 N -0.23998(16) -0.31460(15) 0.86944(17)
N2 N -0.17059(15) -0.20540(12) 0.64195(17)
C1 C -0.23374(16) -0.38598(16) 0.91693(18)
C2 C -0.22723(19) -0.47789(14) 0.9783(2)
H1 H -0.1613 -0.5004 0.9886
H2 H -0.2675 -0.5232 0.9259
C3 C -0.24186(18) -0.02548(17) 0.8958(2)
H3 H -0.1752 -0.0459 0.9061
H4 H -0.2461 0.0380 0.8601
C4 C -0.10199(17) -0.20923(13) 0.60167(18)
C5 C -0.01396(17) -0.21418(15) 0.5495(2)
H5 H 0.0373 -0.2402 0.6113
H6 H 0.0047 -0.1503 0.5293
C6 C -0.47430(18) -0.22471(15) 0.5662(2)
H7 H -0.5345 -0.2240 0.5979
H8 H -0.4601 -0.1598 0.5448
H9 H -0.348(2) -0.0692(19) 0.793(3)
H10 H -0.414(2) -0.3038(17) 0.684(2)
Li1E Li -0.2217(3) -0.2904(2) 1.2570(3)
Li1E_2 Li -0.2217(3) -0.2904(2) 0.2570(3)
O1E O -0.20027(13) -0.41151(12) 1.18644(14)
O2E O -0.10014(12) -0.24190(12) 0.33966(14)
O2E_2 O -0.10014(12) -0.24190(12) 1.33966(14)
N1E N -0.26002(16) -0.18540(15) 1.13056(17)
N2E N -0.32941(15) -0.29460(12) 0.35805(17)
N2E_2 N -0.32941(15) -0.29460(12) 1.35805(17)
C1E C -0.26626(16) -0.11402(16) 1.08307(18)
C2E C -0.27277(19) -0.02211(14) 1.0217(2)
H1E H -0.3387 0.0004 1.0114
H2E H -0.2325 0.0232 1.0741
C3E C -0.25814(18) -0.47452(17) 1.1042(2)
H3E H -0.3248 -0.4541 1.0939
H4E H -0.2539 -0.5380 1.1399
C4E C -0.39801(17) -0.29077(13) 0.39833(18)
C5E C -0.48604(17) -0.28582(15) 0.4505(2)
H5E H -0.5373 -0.2598 0.3887
H6E H -0.5047 -0.3497 0.4707
C6E C -0.02570(18) -0.27529(15) 0.4338(2)
H7E H 0.0345 -0.2760 0.4021
H8E H -0.0399 -0.3402 0.4552
H9E H -0.152(2) -0.4308(19) 1.207(3)
H10E H -0.086(2) -0.1962(17) 0.316(2)
H10E_2 H -0.086(2) -0.1962(17) 1.316(2)
loop_
_geom_bond_atom_site_label_1
_geom_bond_atom_site_label_2
_geom_bond_site_symmetry_1
_geom_bond_site_symmetry_2
Li1 O1 1_555 1_555
O1 C3 1_555 1_555
O2 Li1 1_555 1_555
N1 Li1 1_555 1_555
N2 Li1 1_555 1_555
C1 N1 1_555 1_555
C2 C1 1_555 1_555
H1 C2 1_555 1_555
H2 C2 1_555 1_555
C3 H3 1_555 1_555
H4 C3 1_555 1_555
C4 N2 1_555 1_555
C5 C4 1_555 1_555
H5 C5 1_555 1_555
H6 C5 1_555 1_555
C6 O2 1_555 1_555
H7 C6 1_555 1_555
H8 C6 1_555 1_555
H9 O1 1_555 1_555
H10 O2 1_555 1_555
Li1E O1E 1_555 1_555
Li1E_2 O2E 1_555 1_555
O1E C3E 1_555 1_555
O2E C6E 1_555 1_555
O2E_2 Li1E 1_555 1_555
N1E Li1E 1_555 1_555
N2E Li1E_2 1_555 1_555
N2E_2 Li1E 1_555 1_555
C1E N1E 1_555 1_555
C2E C3 1_555 1_555
H1E C2E 1_555 1_555
H2E C2E 1_555 1_555
C3E C2 1_555 1_555
H3E C3E 1_555 1_555
H4E C3E 1_555 1_555
C4E N2E 1_555 1_555
C5E C6 1_555 1_555
H5E C5E 1_555 1_555
H6E C5E 1_555 1_555
C6E C5 1_555 1_555
H7E C6E 1_555 1_555
H8E C6E 1_555 1_555
H9E O1E 1_555 1_555
H10E O2E 1_555 1_555
H10E_2 O2E_2 1_555 1_555
C1E C2E 1_555 1_555
C4E C5E 1_555 1_555

#END
