
#######################################################################
#
#                 Cambridge Crystallographic Data Centre
#                                CCDC 
#
#######################################################################
#
# If this CIF has been generated from an entry in the Cambridge 
# Structural Database, then it will include bibliographic, chemical, 
# crystal, experimental, refinement or atomic coordinate data resulting 
# from the CCDC's data processing and validation procedures.
#
#######################################################################

data_NAPTUU
_symmetry_cell_setting           orthorhombic
_symmetry_space_group_name_H-M   'F d d 2'
_symmetry_Int_Tables_number      43
_space_group_name_Hall           'F 2 -2d'
loop_
_symmetry_equiv_pos_site_id
_symmetry_equiv_pos_as_xyz
1 x,y,z
2 -x,-y,z
3 1/4+x,1/4-y,1/4+z
4 1/4-x,1/4+y,1/4+z
5 x,1/2+y,1/2+z
6 -x,1/2-y,1/2+z
7 1/4+x,3/4-y,3/4+z
8 1/4-x,3/4+y,3/4+z
9 1/2+x,y,1/2+z
10 1/2-x,-y,1/2+z
11 3/4+x,1/4-y,3/4+z
12 3/4-x,1/4+y,3/4+z
13 1/2+x,1/2+y,z
14 1/2-x,1/2-y,z
15 3/4+x,3/4-y,1/4+z
16 3/4-x,3/4+y,1/4+z
_cell_length_a                   30.503(5)
_cell_length_b                   4.8598(9)
_cell_length_c                   16.322(3)
_cell_angle_alpha                90
_cell_angle_beta                 90
_cell_angle_gamma                90
_cell_volume                     2419.55
loop_
_atom_site_label
_atom_site_type_symbol
_atom_site_fract_x
_atom_site_fract_y
_atom_site_fract_z
Cd1 Cd 0.5000 0.0000 0.12845(14)
Br1 Br 0.44072(8) 0.2702(3) 0.05554(9)
N1 N 0.4633(6) -0.252(3) 0.2211(11)
N2 N 0.4439(6) -0.554(3) 0.3193(12)
C1 C 0.4782(6) -0.460(3) 0.2711(14)
C2 C 0.4031(8) -0.427(5) 0.2960(16)
H1 H 0.3750 -0.4645 0.3151
C3 C 0.4159(5) -0.239(4) 0.2390(13)
H2 H 0.3968 -0.1149 0.2141
C4 C 0.4487(11) -0.768(5) 0.385(3)
H3 H 0.4789 -0.8207 0.3890
H4 H 0.4314 -0.9264 0.3705
H5 H 0.4388 -0.6948 0.4359
Cd1_2 Cd 0.5000 -1.0000 0.12845(14)
Br1A Br 0.55928(8) -0.2702(3) 0.05554(9)
N1A N 0.5367(6) -0.748(3) 0.2211(11)
N1A_2 N 0.5367(6) 0.252(3) 0.2211(11)
N2A N 0.5561(6) -0.446(3) 0.3193(12)
C1A C 0.5218(6) -0.540(3) 0.2711(14)
C2A C 0.5969(8) -0.573(5) 0.2960(16)
H1A H 0.6250 -0.5355 0.3151
C3A C 0.5841(5) -0.761(4) 0.2390(13)
H2A H 0.6032 -0.8851 0.2141
C4A C 0.5513(11) -0.232(5) 0.385(3)
H3A H 0.5211 -0.1793 0.3890
H4A H 0.5686 -0.0736 0.3705
H5A H 0.5612 -0.3052 0.4359
loop_
_geom_bond_atom_site_label_1
_geom_bond_atom_site_label_2
_geom_bond_site_symmetry_1
_geom_bond_site_symmetry_2
Cd1 Br1 1_555 1_555
N1 Cd1 1_555 1_555
N2 C1 1_555 1_555
C1 N1 1_555 1_555
C2 N2 1_555 1_555
H1 C2 1_555 1_555
C3 N1 1_555 1_555
H2 C3 1_555 1_555
C4 N2 1_555 1_555
H3 C4 1_555 1_555
H4 C4 1_555 1_555
H5 C4 1_555 1_555
Cd1_2 N1A 1_555 1_555
Br1A Cd1 1_555 1_555
N1A C1A 1_555 1_555
N1A_2 Cd1 1_555 1_555
N2A C1A 1_555 1_555
C1A C1 1_555 1_555
C2A N2A 1_555 1_555
H1A C2A 1_555 1_555
C3A N1A 1_555 1_555
H2A C3A 1_555 1_555
C4A N2A 1_555 1_555
H3A C4A 1_555 1_555
H4A C4A 1_555 1_555
H5A C4A 1_555 1_555
C2 C3 1_555 1_555
C2A C3A 1_555 1_555

#END
