
#######################################################################
#
#                 Cambridge Crystallographic Data Centre
#                                CCDC 
#
#######################################################################
#
# If this CIF has been generated from an entry in the Cambridge 
# Structural Database, then it will include bibliographic, chemical, 
# crystal, experimental, refinement or atomic coordinate data resulting 
# from the CCDC's data processing and validation procedures.
#
#######################################################################

data_NAPZOV
_symmetry_cell_setting           orthorhombic
_symmetry_space_group_name_H-M   'P n a 21'
_symmetry_Int_Tables_number      33
_space_group_name_Hall           'P 2c -2n'
loop_
_symmetry_equiv_pos_site_id
_symmetry_equiv_pos_as_xyz
1 x,y,z
2 -x,-y,1/2+z
3 1/2+x,1/2-y,z
4 1/2-x,1/2+y,1/2+z
_cell_length_a                   7.339(4)
_cell_length_b                   15.8458(18)
_cell_length_c                   11.247(3)
_cell_angle_alpha                90
_cell_angle_beta                 90
_cell_angle_gamma                90
_cell_volume                     1307.94
loop_
_atom_site_label
_atom_site_type_symbol
_atom_site_fract_x
_atom_site_fract_y
_atom_site_fract_z
Cd1 Cd 0.53010(13) 0.77830(5) 0.5107(2)
C1 C 0.354(2) 0.6017(9) 0.5998(14)
C2 C 0.412(2) 0.5178(10) 0.6479(16)
C3 C 0.572(2) 0.4807(10) 0.6165(16)
H1 H 0.6483 0.5097 0.5647
C4 C 0.629(2) 0.4014(10) 0.6572(18)
C5 C 0.508(2) 0.3586(11) 0.7336(16)
H2 H 0.5380 0.3047 0.7596
C6 C 0.349(2) 0.3927(10) 0.7704(14)
C7 C 0.296(2) 0.4747(9) 0.7291(16)
H3 H 0.1881 0.4993 0.7548
C8 C 0.800(3) 0.3624(13) 0.616(2)
H4 H 0.8152 0.3082 0.6527
H5 H 0.9013 0.3980 0.6365
H6 H 0.7962 0.3555 0.5310
C9 C 0.217(2) 0.3512(11) 0.8579(16)
C10 C 0.275(3) 0.9591(14) 0.889(3)
H7 H 0.3660 0.9916 0.8474
H8 H 0.3169 0.9471 0.9678
H9 H 0.1638 0.9907 0.8924
C11 C 0.108(4) 0.8172(15) 0.865(2)
H10 H 0.1037 0.7708 0.8101
H11 H -0.0100 0.8435 0.8685
H12 H 0.1408 0.7969 0.9423
C12 C 0.335(3) 0.8660(13) 0.7284(19)
H13 H 0.4108 0.9091 0.7022
N1 N 0.243(2) 0.8791(10) 0.8243(17)
O1 O 0.4791(17) 0.6412(8) 0.5450(15)
O2 O 0.1915(17) 0.6220(7) 0.6070(14)
O3 O 0.258(2) 0.2748(6) 0.8876(12)
O4 O 0.0815(18) 0.3860(7) 0.8944(14)
O5 O 0.329(3) 0.7985(9) 0.6661(16)
Cd1B Cd 0.03010(13) 0.72170(5) 0.5107(2)
Cd1A Cd 0.46990(13) 0.22170(5) 1.0107(2)
Cd1C Cd -0.03010(13) 0.27830(5) 1.0107(2)
O2B O 0.6915(17) 0.8780(7) 0.6070(14)
O3A O 0.742(2) 0.7252(6) 0.3876(12)
O4C O 0.4185(18) 0.8860(7) 0.3944(14)
loop_
_geom_bond_atom_site_label_1
_geom_bond_atom_site_label_2
_geom_bond_site_symmetry_1
_geom_bond_site_symmetry_2
Cd1 O1 1_555 1_555
C1 C2 1_555 1_555
C2 C3 1_555 1_555
C3 H1 1_555 1_555
C4 C3 1_555 1_555
C5 C4 1_555 1_555
H2 C5 1_555 1_555
C6 C5 1_555 1_555
C7 C2 1_555 1_555
H3 C7 1_555 1_555
C8 C4 1_555 1_555
H4 C8 1_555 1_555
H5 C8 1_555 1_555
H6 C8 1_555 1_555
C9 C6 1_555 1_555
C10 H7 1_555 1_555
H8 C10 1_555 1_555
H9 C10 1_555 1_555
C11 H10 1_555 1_555
H11 C11 1_555 1_555
H12 C11 1_555 1_555
C12 H13 1_555 1_555
N1 C10 1_555 1_555
O1 C1 1_555 1_555
O2 C1 1_555 1_555
O3 C9 1_555 1_555
O4 C9 1_555 1_555
O5 Cd1 1_555 1_555
Cd1B O2 1_555 1_555
Cd1A O3 1_555 1_555
Cd1C O4 1_555 1_555
O2B Cd1 1_555 1_555
O3A Cd1 1_555 1_555
O4C Cd1 1_555 1_555
C6 C7 1_555 1_555
C11 N1 1_555 1_555
C12 N1 1_555 1_555
C12 O5 1_555 1_555

#END
