
#######################################################################
#
#                 Cambridge Crystallographic Data Centre
#                                CCDC 
#
#######################################################################
#
# If this CIF has been generated from an entry in the Cambridge 
# Structural Database, then it will include bibliographic, chemical, 
# crystal, experimental, refinement or atomic coordinate data resulting 
# from the CCDC's data processing and validation procedures.
#
#######################################################################

data_NAQBEO
_symmetry_cell_setting           monoclinic
_symmetry_space_group_name_H-M   'P 21/n'
_symmetry_Int_Tables_number      14
_space_group_name_Hall           '-P 2yn'
loop_
_symmetry_equiv_pos_site_id
_symmetry_equiv_pos_as_xyz
1 x,y,z
2 1/2-x,1/2+y,1/2-z
3 -x,-y,-z
4 1/2+x,1/2-y,1/2+z
_cell_length_a                   11.095(2)
_cell_length_b                   13.349(3)
_cell_length_c                   17.358(3)
_cell_angle_alpha                90
_cell_angle_beta                 99.497(8)
_cell_angle_gamma                90
_cell_volume                     2535.61
loop_
_atom_site_label
_atom_site_type_symbol
_atom_site_fract_x
_atom_site_fract_y
_atom_site_fract_z
Cd1 Cd 0.53486(2) 0.66160(2) 0.180858(16)
Cd2 Cd 0.71905(2) 0.82714(2) 0.409480(17)
C1 C 0.4704(3) 0.7866(3) 0.3345(2)
C2 C 0.3351(3) 0.7938(3) 0.3099(2)
C3 C 0.2723(3) 0.8791(3) 0.3264(2)
H1 H 0.3148 0.9318 0.3535
C4 C 0.1479(3) 0.8863(3) 0.3031(2)
C5 C 0.0835(4) 0.8067(3) 0.2640(2)
H2 H -0.0004 0.8119 0.2477
C6 C 0.1442(4) 0.7194(3) 0.2492(2)
C7 C 0.2698(3) 0.7146(3) 0.2713(2)
H3 H 0.3112 0.6573 0.2600
C8 C 0.0841(3) 0.9819(3) 0.3171(2)
C9 C 0.0751(4) 0.6284(4) 0.2129(3)
H4 H 0.1320 0.5758 0.2072
H5 H 0.0305 0.6459 0.1625
H6 H 0.0191 0.6060 0.2459
C10 C 0.4739(4) 0.8514(3) 0.1321(2)
C11 C 0.4347(4) 0.9547(3) 0.1075(2)
C12 C 0.5219(4) 1.0280(3) 0.1055(2)
H7 H 0.6044 1.0123 0.1183
C13 C 0.4865(3) 1.1256(3) 0.0843(2)
C14 C 0.3617(4) 1.1487(3) 0.0665(2)
H8 H 0.3378 1.2140 0.0529
C15 C 0.2737(4) 1.0762(3) 0.0689(2)
C16 C 0.3117(4) 0.9789(3) 0.0893(2)
H9 H 0.2534 0.9291 0.0907
C17 C 0.5838(4) 1.2038(3) 0.0851(2)
C18 C 0.1383(4) 1.0991(3) 0.0522(3)
H10 H 0.1265 1.1687 0.0393
H11 H 0.1024 1.0842 0.0976
H12 H 0.1000 1.0589 0.0092
O1 O 0.5314(2) 0.7217(2) 0.30653(17)
O2 O 0.5182(2) 0.8488(2) 0.38561(17)
O3 O -0.0216(3) 0.9985(2) 0.27872(18)
O4 O 0.1363(3) 1.0457(2) 0.36385(18)
O5 O 0.5841(3) 0.8357(2) 0.16259(19)
O6 O 0.3978(3) 0.7804(2) 0.12321(17)
O7 O 0.6921(3) 1.1807(2) 0.11573(19)
O8 O 0.5596(3) 1.2890(2) 0.05682(17)
O9 O 0.6019(3) 0.6386(3) 0.06242(17)
H13 H 0.5967 0.6862 0.0295
H14 H 0.6319 0.5826 0.0520
O10 O 0.7427(3) 0.6394(2) 0.22599(17)
H15 H 0.7917 0.6883 0.2261
H16 H 0.7696 0.5823 0.2424
O11 O 0.6863(3) 0.7645(3) 0.5294(2)
H17 H 0.6941 0.8026 0.5691
H18 H 0.6664 0.7034 0.5334
O12 O 0.7427(4) 0.9009(3) 0.29456(19)
H19 H 0.7145 0.9593 0.2839
H20 H 0.7796 0.8701 0.2624
O13 O 0.7584(3) 0.9748(2) 0.47924(17)
H21 H 0.7537 0.9763 0.5276
H22 H 0.7775 1.0274 0.4564
Cd1A Cd -0.03486(2) 1.16160(2) 0.319142(16)
Cd2A Cd 0.78095(2) 1.32714(2) 0.090520(17)
O3A O 0.5216(3) 0.4985(2) 0.22128(18)
O4A O 0.3637(3) 0.5457(2) 0.13615(18)
O7A O 0.8079(3) 0.6807(2) 0.38427(19)
O8A O 0.9404(3) 0.7890(2) 0.44318(17)
O14 O 0.6473(4) 0.4820(4) 0.3720(2)
H23 H 0.6038 0.4294 0.3651
H24 H 0.7242 0.4773 0.3860
O15 O 0.8167(3) 0.7687(3) 0.1095(2)
H25 H 0.8228 0.7087 0.1260
H26 H 0.8769 0.7965 0.0934
O16 O 0.4304(4) 0.8795(4) 0.5233(2)
H27 H 0.3816 0.9078 0.5494
H28 H 0.5068 0.8794 0.5404
loop_
_geom_bond_atom_site_label_1
_geom_bond_atom_site_label_2
_geom_bond_site_symmetry_1
_geom_bond_site_symmetry_2
Cd1 O1 1_555 1_555
Cd2 O2 1_555 1_555
C1 C2 1_555 1_555
C2 C3 1_555 1_555
C3 H1 1_555 1_555
C4 C3 1_555 1_555
C5 C4 1_555 1_555
H2 C5 1_555 1_555
C6 C5 1_555 1_555
C7 C2 1_555 1_555
H3 C7 1_555 1_555
C8 C4 1_555 1_555
C9 C6 1_555 1_555
H4 C9 1_555 1_555
H5 C9 1_555 1_555
H6 C9 1_555 1_555
C10 C11 1_555 1_555
C11 C12 1_555 1_555
C12 H7 1_555 1_555
C13 C12 1_555 1_555
C14 C13 1_555 1_555
H8 C14 1_555 1_555
C15 C14 1_555 1_555
C16 C11 1_555 1_555
H9 C16 1_555 1_555
C17 C13 1_555 1_555
C18 C15 1_555 1_555
H10 C18 1_555 1_555
H11 C18 1_555 1_555
H12 C18 1_555 1_555
O1 C1 1_555 1_555
O2 C1 1_555 1_555
O3 C8 1_555 1_555
O4 C8 1_555 1_555
O5 Cd1 1_555 1_555
O6 Cd1 1_555 1_555
O7 C17 1_555 1_555
O8 C17 1_555 1_555
O9 Cd1 1_555 1_555
H13 O9 1_555 1_555
H14 O9 1_555 1_555
O10 Cd1 1_555 1_555
H15 O10 1_555 1_555
H16 O10 1_555 1_555
O11 Cd2 1_555 1_555
H17 O11 1_555 1_555
H18 O11 1_555 1_555
O12 Cd2 1_555 1_555
H19 O12 1_555 1_555
H20 O12 1_555 1_555
O13 Cd2 1_555 1_555
H21 O13 1_555 1_555
H22 O13 1_555 1_555
O14 H23 1_555 1_555
H24 O14 1_555 1_555
O15 H25 1_555 1_555
H26 O15 1_555 1_555
O16 H27 1_555 1_555
H28 O16 1_555 1_555
Cd1A O3 1_555 1_555
Cd2A O7 1_555 1_555
O3A Cd1 1_555 1_555
O4A Cd1 1_555 1_555
O7A Cd2 1_555 1_555
O8A Cd2 1_555 1_555
C6 C7 1_555 1_555
C10 O5 1_555 1_555
C10 O6 1_555 1_555
C15 C16 1_555 1_555
O4 Cd1A 1_555 1_555
O8 Cd2A 1_555 1_555

#END
