
#######################################################################
#
#                 Cambridge Crystallographic Data Centre
#                                CCDC 
#
#######################################################################
#
# If this CIF has been generated from an entry in the Cambridge 
# Structural Database, then it will include bibliographic, chemical, 
# crystal, experimental, refinement or atomic coordinate data resulting 
# from the CCDC's data processing and validation procedures.
#
#######################################################################

data_NARBUE
_symmetry_cell_setting           monoclinic
_symmetry_space_group_name_H-M   'P 21/c'
_symmetry_Int_Tables_number      14
_space_group_name_Hall           '-P 2ybc'
loop_
_symmetry_equiv_pos_site_id
_symmetry_equiv_pos_as_xyz
1 x,y,z
2 -x,1/2+y,1/2-z
3 -x,-y,-z
4 x,1/2-y,1/2+z
_cell_length_a                   9.7179(2)
_cell_length_b                   19.06310(10)
_cell_length_c                   7.5064(2)
_cell_angle_alpha                90
_cell_angle_beta                 94.8530(10)
_cell_angle_gamma                90
_cell_volume                     1385.6
loop_
_atom_site_label
_atom_site_type_symbol
_atom_site_fract_x
_atom_site_fract_y
_atom_site_fract_z
Cu1 Cu 0.27326(4) 0.16815(2) 0.18302(5)
N1 N 0.2199(3) 0.09892(14) -0.0084(4)
N2 N 0.0848(3) 0.15747(14) 0.2715(4)
C1 C -0.0285(4) 0.14868(18) 0.1615(5)
C2 C 0.0678(4) 0.17402(18) 0.4453(5)
C3 C 0.3224(5) 0.0618(2) -0.0774(5)
N3 N -0.0169(4) 0.12517(18) -0.0103(5)
C4 C -0.1611(4) 0.1633(2) 0.2144(7)
C5 C 0.0904(4) 0.08882(18) -0.0786(5)
C6 C 0.2977(6) 0.0171(2) -0.2192(6)
C7 C -0.0585(5) 0.18506(19) 0.5066(7)
C8 C -0.1737(5) 0.1824(2) 0.3881(7)
C9 C 0.1646(7) 0.0088(2) -0.2941(6)
C10 C 0.0595(6) 0.0439(2) -0.2236(6)
O1 O 0.4381(2) 0.19641(12) 0.0639(3)
O2 O 0.3074(2) 0.25664(12) -0.1378(3)
O3 O 0.3810(4) 0.0852(2) 0.3493(5)
C11 C 0.4211(4) 0.23496(18) -0.0700(5)
H1 H 0.424(6) 0.092(3) 0.423(8)
H2 H -0.234(4) 0.1526(18) 0.131(5)
H3 H 0.502(4) 0.2469(17) -0.123(5)
H4 H 0.418(4) 0.0703(18) -0.015(5)
H5 H 0.373(5) -0.007(2) -0.256(6)
H6 H -0.069(4) 0.198(2) 0.632(6)
H7 H -0.034(4) 0.042(2) -0.270(6)
H8 H -0.268(5) 0.192(2) 0.432(6)
H9 H 0.146(5) -0.020(3) -0.394(7)
H10 H 0.152(4) 0.1797(17) 0.516(5)
H11 H -0.086(4) 0.121(2) -0.063(6)
H12 H 0.364(5) 0.043(3) 0.351(7)
Cu1C Cu 0.27326(4) 0.33185(2) -0.31698(5)
O2C O 0.3074(2) 0.24336(12) 0.3622(3)
N4 N 0.6588(4) 0.1026(3) 0.7136(5)
O4 O 0.6728(12) 0.1571(7) 0.7504(16)
O6 O 0.5930(12) 0.0749(8) 0.5872(16)
O8 O 0.7280(18) 0.0557(8) 0.7943(18)
O5? O 0.7194(7) 0.1534(4) 0.8117(10)
O7? O 0.5404(6) 0.1300(4) 0.6476(9)
O9? O 0.7103(15) 0.0534(5) 0.680(2)
loop_
_geom_bond_atom_site_label_1
_geom_bond_atom_site_label_2
_geom_bond_site_symmetry_1
_geom_bond_site_symmetry_2
Cu1 N1 1_555 1_555
N1 C3 1_555 1_555
N2 Cu1 1_555 1_555
C1 N2 1_555 1_555
C2 N2 1_555 1_555
C3 C6 1_555 1_555
N3 C1 1_555 1_555
C4 C1 1_555 1_555
C5 N1 1_555 1_555
C6 C9 1_555 1_555
C7 C2 1_555 1_555
C8 C4 1_555 1_555
C9 C10 1_555 1_555
C10 C5 1_555 1_555
O1 Cu1 1_555 1_555
O2 C11 1_555 1_555
O3 Cu1 1_555 1_555
C11 O1 1_555 1_555
N4 O4 1_555 1_555
O6 N4 1_555 1_555
O8 N4 1_555 1_555
H1 O3 1_555 1_555
H2 C4 1_555 1_555
H3 C11 1_555 1_555
H4 C3 1_555 1_555
H5 C6 1_555 1_555
H6 C7 1_555 1_555
H7 C10 1_555 1_555
H8 C8 1_555 1_555
H9 C9 1_555 1_555
H10 C2 1_555 1_555
H11 N3 1_555 1_555
H12 O3 1_555 1_555
Cu1C O2 1_555 1_555
O2C Cu1 1_555 1_555
N3 C5 1_555 1_555
C7 C8 1_555 1_555

#END
