
#######################################################################
#
#                 Cambridge Crystallographic Data Centre
#                                CCDC 
#
#######################################################################
#
# If this CIF has been generated from an entry in the Cambridge 
# Structural Database, then it will include bibliographic, chemical, 
# crystal, experimental, refinement or atomic coordinate data resulting 
# from the CCDC's data processing and validation procedures.
#
#######################################################################

data_NARCUG
_symmetry_cell_setting           monoclinic
_symmetry_space_group_name_H-M   'P 21/c'
_symmetry_Int_Tables_number      14
_space_group_name_Hall           '-P 2ybc'
loop_
_symmetry_equiv_pos_site_id
_symmetry_equiv_pos_as_xyz
1 x,y,z
2 -x,1/2+y,1/2-z
3 -x,-y,-z
4 x,1/2-y,1/2+z
_cell_length_a                   10.1727(5)
_cell_length_b                   17.0764(8)
_cell_length_c                   16.3195(6)
_cell_angle_alpha                90
_cell_angle_beta                 125.376(2)
_cell_angle_gamma                90
_cell_volume                     2311.5
loop_
_atom_site_label
_atom_site_type_symbol
_atom_site_fract_x
_atom_site_fract_y
_atom_site_fract_z
Ni1 Ni 0.27245(2) 0.465398(13) 0.245599(15)
S1 S 0.23220(6) 0.45310(4) 0.53223(4)
N1 N 0.1641(2) 0.31445(12) 0.44412(14)
N2 N 0.44714(17) 0.38318(9) 0.34221(11)
N3 N 1.10306(17) 0.12781(9) 0.65878(11)
N4 N 0.35804(18) 0.47715(10) 0.15340(11)
O1 O 0.20615(15) 0.46733(8) 0.34331(9)
O2 O -0.04223(18) 0.51653(13) 0.24909(12)
O3 O 0.70381(18) 0.33646(9) 0.73893(11)
O4 O 0.56385(15) 0.44614(8) 0.66922(10)
O5 O 0.09139(16) 0.54752(8) 0.15376(10)
H1 H 0.032(2) 0.5422(12) 0.1734(17)
H2 H 0.145(2) 0.5879(11) 0.1840(16)
C1 C 0.3409(4) 0.20548(15) 0.4996(2)
H7 H 0.3576 0.1537 0.4903
C2 C 0.4623(3) 0.24862(13) 0.58005(18)
H8 H 0.5616 0.2254 0.6263
C3 C 0.4370(2) 0.32583(11) 0.59219(14)
C4 C 0.1962(4) 0.24115(16) 0.43452(19)
H9 H 0.1150 0.2123 0.3800
C5 C 0.2817(2) 0.35653(12) 0.52116(13)
C6 C 0.5790(2) 0.37333(11) 0.67417(13)
C7 C 0.0505(2) 0.47140(16) 0.40983(15)
H10 H -0.0204 0.4266 0.3904
H11 H -0.0036 0.5163 0.4142
C8 C 0.0749(2) 0.48671(13) 0.32782(14)
C9 C 0.4746(3) 0.31812(14) 0.30907(15)
H12 H 0.4048 0.3061 0.2411
C10 C 0.6005(3) 0.26790(15) 0.37002(16)
H13 H 0.6144 0.2232 0.3433
C11 C 0.5449(2) 0.39743(11) 0.44071(13)
H14 H 0.5247 0.4412 0.4658
C12 C 0.6749(2) 0.35015(11) 0.50725(13)
H15 H 0.7404 0.3626 0.5753
C13 C 0.7069(2) 0.28440(12) 0.47205(14)
C14 C 0.8472(2) 0.23257(11) 0.53869(14)
C15 C 0.9069(3) 0.21955(13) 0.63840(15)
H16 H 0.8628 0.2456 0.6672
C16 C 0.9229(3) 0.19384(14) 0.50240(15)
H17 H 0.8893 0.2020 0.4366
C17 C 1.0480(2) 0.14320(13) 0.56377(14)
H18 H 1.0971 0.1182 0.5374
C18 C 1.0333(3) 0.16725(13) 0.69490(14)
H19 H 1.0716 0.1592 0.7616
C19 C 0.5727(2) 0.47415(18) 0.13282(16)
H20 H 0.6813 0.4649 0.1618
C20 C 0.5126(2) 0.46509(17) 0.18923(15)
H21 H 0.5833 0.4497 0.2559
C21 C 0.3128(2) 0.51289(12) -0.00328(14)
H22 H 0.2403 0.5304 -0.0688
C22 C 0.2630(2) 0.50248(12) 0.05869(14)
H23 H 0.1562 0.5139 0.0327
C23 C 0.4717(2) 0.49703(12) 0.03266(13)
Ni1B Ni 0.72755(2) 0.534602(13) -0.245599(15)
Ni1_2 Ni 0.27245(2) 0.465398(13) -0.754401(15)
Ni1A Ni -0.27245(2) 0.965398(13) -0.745599(15)
Ni1B_2 Ni 0.72755(2) 0.534602(13) 0.754401(15)
Ni1C Ni 1.27245(2) 0.034602(13) 0.745599(15)
S1B S 0.76780(6) 0.54690(4) -0.53223(4)
N1B N 0.8359(2) 0.68555(12) -0.44412(14)
N2B N 0.55286(17) 0.61682(9) -0.34221(11)
N3B N -0.10306(17) 0.87219(9) -0.65878(11)
N3A N 0.89694(17) 0.62781(9) -0.15878(11)
N3C N 0.10306(17) 0.37219(9) 0.15878(11)
N4B N 0.64196(18) 0.52285(10) -0.15340(11)
O1B O 0.79385(15) 0.53267(8) -0.34331(9)
O2B O 1.04223(18) 0.48347(13) -0.24909(12)
O3B O 0.29619(18) 0.66354(9) -0.73893(11)
O4B O 0.43615(15) 0.55386(8) -0.66922(10)
O4_2 O 0.56385(15) 0.44614(8) -0.33078(10)
O4B_2 O 0.43615(15) 0.55386(8) 0.33078(10)
O5B O 0.90861(16) 0.45248(8) -0.15376(10)
H1B H 0.968(2) 0.4578(12) -0.1734(17)
H2B H 0.855(2) 0.4121(11) -0.1840(16)
C1B C 0.6591(4) 0.79452(15) -0.4996(2)
H7B H 0.6424 0.8463 -0.4903
C2B C 0.5377(3) 0.75138(13) -0.58005(18)
H8B H 0.4384 0.7746 -0.6263
C3B C 0.5630(2) 0.67417(11) -0.59219(14)
C4B C 0.8038(4) 0.75885(16) -0.43452(19)
H9B H 0.8850 0.7877 -0.3800
C5B C 0.7183(2) 0.64347(12) -0.52116(13)
C6B C 0.4210(2) 0.62667(11) -0.67417(13)
C7B C 0.9495(2) 0.52860(16) -0.40983(15)
H10B H 1.0204 0.5734 -0.3904
H11B H 1.0036 0.4837 -0.4142
C8B C 0.9251(2) 0.51329(13) -0.32782(14)
C9B C 0.5254(3) 0.68188(14) -0.30907(15)
H12B H 0.5952 0.6939 -0.2411
C10B C 0.3995(3) 0.73210(15) -0.37002(16)
H13B H 0.3856 0.7768 -0.3433
C11B C 0.4551(2) 0.60257(11) -0.44071(13)
H14B H 0.4753 0.5588 -0.4658
C12B C 0.3251(2) 0.64985(11) -0.50725(13)
H15B H 0.2596 0.6374 -0.5753
C13B C 0.2931(2) 0.71560(12) -0.47205(14)
C14B C 0.1528(2) 0.76743(11) -0.53869(14)
C15B C 0.0931(3) 0.78045(13) -0.63840(15)
H16B H 0.1372 0.7544 -0.6672
C16B C 0.0771(3) 0.80616(14) -0.50240(15)
H17B H 0.1107 0.7980 -0.4366
C17B C -0.0480(2) 0.85680(13) -0.56377(14)
H18B H -0.0971 0.8818 -0.5374
C18B C -0.0333(3) 0.83275(13) -0.69490(14)
H19B H -0.0716 0.8408 -0.7616
C19B C 0.4273(2) 0.52585(18) -0.13282(16)
H20B H 0.3187 0.5351 -0.1618
C20B C 0.4874(2) 0.53491(17) -0.18923(15)
H21B H 0.4167 0.5503 -0.2559
C21B C 0.6872(2) 0.48711(12) 0.00328(14)
H22B H 0.7597 0.4696 0.0688
C22B C 0.7370(2) 0.49752(12) -0.05869(14)
H23B H 0.8438 0.4861 -0.0327
C23B C 0.5283(2) 0.50297(12) -0.03266(13)
O6 O -0.1944(6) 0.3235(3) 0.2967(5)
H3 H -0.2274 0.2768 0.2787
H4 H -0.0925 0.3226 0.3390
O7 O 0.2346(11) 0.1415(5) 0.2379(7)
H5 H 0.1916 0.1523 0.1764
H6 H 0.1604 0.1382 0.2469
loop_
_geom_bond_atom_site_label_1
_geom_bond_atom_site_label_2
_geom_bond_site_symmetry_1
_geom_bond_site_symmetry_2
Ni1 N2 1_555 1_555
S1 C5 1_555 1_555
N1 C4 1_555 1_555
N2 C9 1_555 1_555
N3 C17 1_555 1_555
N4 Ni1 1_555 1_555
O1 Ni1 1_555 1_555
O2 C8 1_555 1_555
O3 C6 1_555 1_555
O4 C6 1_555 1_555
O5 Ni1 1_555 1_555
H1 O5 1_555 1_555
H2 O5 1_555 1_555
O6 H3 1_555 1_555
H4 O6 1_555 1_555
O7 H5 1_555 1_555
H6 O7 1_555 1_555
C1 H7 1_555 1_555
C2 C1 1_555 1_555
H8 C2 1_555 1_555
C3 C2 1_555 1_555
C4 C1 1_555 1_555
H9 C4 1_555 1_555
C5 N1 1_555 1_555
C6 C3 1_555 1_555
C7 S1 1_555 1_555
H10 C7 1_555 1_555
H11 C7 1_555 1_555
C8 O1 1_555 1_555
C9 H12 1_555 1_555
C10 C9 1_555 1_555
H13 C10 1_555 1_555
C11 N2 1_555 1_555
H14 C11 1_555 1_555
C12 C11 1_555 1_555
H15 C12 1_555 1_555
C13 C10 1_555 1_555
C14 C13 1_555 1_555
C15 C14 1_555 1_555
H16 C15 1_555 1_555
C16 C14 1_555 1_555
H17 C16 1_555 1_555
C17 C16 1_555 1_555
H18 C17 1_555 1_555
C18 N3 1_555 1_555
H19 C18 1_555 1_555
C19 H20 1_555 1_555
C20 N4 1_555 1_555
H21 C20 1_555 1_555
C21 H22 1_555 1_555
C22 N4 1_555 1_555
H23 C22 1_555 1_555
C23 C19 1_555 1_555
Ni1B N2B 1_555 1_555
Ni1_2 O4B 1_555 1_555
Ni1A N3B 1_555 1_555
Ni1B_2 O4 1_555 1_555
Ni1C N3 1_555 1_555
S1B C5B 1_555 1_555
N1B C4B 1_555 1_555
N2B C9B 1_555 1_555
N3B C17B 1_555 1_555
N3A Ni1B 1_555 1_555
N3C Ni1 1_555 1_555
N4B Ni1B 1_555 1_555
O1B Ni1B 1_555 1_555
O2B C8B 1_555 1_555
O3B C6B 1_555 1_555
O4B C6B 1_555 1_555
O4_2 Ni1B 1_555 1_555
O4B_2 Ni1 1_555 1_555
O5B Ni1B 1_555 1_555
H1B O5B 1_555 1_555
H2B O5B 1_555 1_555
C1B H7B 1_555 1_555
C2B C1B 1_555 1_555
H8B C2B 1_555 1_555
C3B C2B 1_555 1_555
C4B C1B 1_555 1_555
H9B C4B 1_555 1_555
C5B N1B 1_555 1_555
C6B C3B 1_555 1_555
C7B S1B 1_555 1_555
H10B C7B 1_555 1_555
H11B C7B 1_555 1_555
C8B O1B 1_555 1_555
C9B H12B 1_555 1_555
C10B C9B 1_555 1_555
H13B C10B 1_555 1_555
C11B N2B 1_555 1_555
H14B C11B 1_555 1_555
C12B C11B 1_555 1_555
H15B C12B 1_555 1_555
C13B C10B 1_555 1_555
C14B C13B 1_555 1_555
C15B C14B 1_555 1_555
H16B C15B 1_555 1_555
C16B C14B 1_555 1_555
H17B C16B 1_555 1_555
C17B C16B 1_555 1_555
H18B C17B 1_555 1_555
C18B N3B 1_555 1_555
H19B C18B 1_555 1_555
C19B H20B 1_555 1_555
C20B N4B 1_555 1_555
H21B C20B 1_555 1_555
C21B H22B 1_555 1_555
C22B N4B 1_555 1_555
H23B C22B 1_555 1_555
C23B C23 1_555 1_555
C3 C5 1_555 1_555
C7 C8 1_555 1_555
C12 C13 1_555 1_555
C15 C18 1_555 1_555
C19 C20 1_555 1_555
C21 C22 1_555 1_555
C21 C23 1_555 1_555
C3B C5B 1_555 1_555
C7B C8B 1_555 1_555
C12B C13B 1_555 1_555
C15B C18B 1_555 1_555
C19B C20B 1_555 1_555
C19B C23B 1_555 1_555
C21B C22B 1_555 1_555
C21B C23B 1_555 1_555

#END
