
#######################################################################
#
#                 Cambridge Crystallographic Data Centre
#                                CCDC 
#
#######################################################################
#
# If this CIF has been generated from an entry in the Cambridge 
# Structural Database, then it will include bibliographic, chemical, 
# crystal, experimental, refinement or atomic coordinate data resulting 
# from the CCDC's data processing and validation procedures.
#
#######################################################################

data_NARLEZ
_symmetry_cell_setting           monoclinic
_symmetry_space_group_name_H-M   'P 21'
_symmetry_Int_Tables_number      4
_space_group_name_Hall           'P 2yb'
loop_
_symmetry_equiv_pos_site_id
_symmetry_equiv_pos_as_xyz
1 x,y,z
2 -x,1/2+y,-z
_cell_length_a                   8.6254(17)
_cell_length_b                   10.3211(15)
_cell_length_c                   9.901(2)
_cell_angle_alpha                90
_cell_angle_beta                 105.151(3)
_cell_angle_gamma                90
_cell_volume                     850.785
loop_
_atom_site_label
_atom_site_type_symbol
_atom_site_fract_x
_atom_site_fract_y
_atom_site_fract_z
Cd1 Cd 0.99017(4) 0.13297(4) 0.17496(3)
Mo1 Mo 0.56146(4) 0.12835(4) 0.18766(3)
Mo2 Mo 0.39295(4) 0.07324(4) 0.39153(4)
S1 S 0.57787(14) -0.05735(11) 0.32091(12)
S2 S 0.34255(14) 0.24163(11) 0.22932(12)
S3 S 0.73684(14) 0.00183(11) 0.06151(11)
S4 S 0.12245(12) 0.13610(14) 0.43104(10)
O1 O 0.7187(3) 0.2189(2) 0.2751(3)
O2 O 0.5085(3) 0.1427(3) 0.5378(2)
O3 O 0.3088(3) -0.0076(3) -0.2152(3)
O4 O 0.3801(3) 0.0379(2) 0.0126(3)
O5 O 0.0345(4) -0.2181(3) 0.2226(3)
O6 O 0.2092(3) -0.0541(3) 0.2368(3)
O7 O 1.0603(3) 0.1047(3) -0.0258(3)
O8 O 0.9014(4) 0.3351(3) 0.1074(3)
N1 N 0.5357(4) 0.2441(3) -0.0107(3)
N2 N 0.3322(4) -0.0969(3) 0.5072(3)
C1 C 0.5179(5) 0.1502(4) -0.1288(4)
C2 C 0.3909(5) 0.0534(4) -0.1141(4)
C3 C 0.6765(5) 0.0823(4) -0.1110(4)
C4 C 0.1621(5) -0.1313(4) 0.4479(4)
C5 C 0.1318(5) -0.1398(4) 0.2890(5)
C6 C 0.0592(5) -0.0227(4) 0.4828(4)
H1 H 0.4849 0.1957 -0.2211
H2 H 0.4469 0.2969 -0.0260
H3 H 0.3966 -0.1661 0.4995
H4 H 0.3497 -0.0769 0.6006
H5 H 1.1569 0.0740 -0.0192
H6 H 0.7596 0.1460 -0.1188
H7 H 0.6672 0.0171 -0.1860
H8 H 0.1366 -0.2156 0.4870
H9 H 0.0685 -0.0228 0.5846
H10 H -0.0548 -0.0380 0.4333
H11 H 1.0232 0.1544 -0.1140
H12 H 0.6249 0.2951 -0.0035
H13 H 0.9082 0.3676 0.0194
H14 H 0.8572 0.3874 0.1671
Cd1_2 Cd -0.00983(4) 0.13297(4) 0.17496(3)
S4_2 S 1.12245(12) 0.13610(14) 0.43104(10)
loop_
_geom_bond_atom_site_label_1
_geom_bond_atom_site_label_2
_geom_bond_site_symmetry_1
_geom_bond_site_symmetry_2
Cd1 S3 1_555 1_555
Mo1 Mo2 1_555 1_555
Mo2 S1 1_555 1_555
S1 Mo1 1_555 1_555
S2 Mo1 1_555 1_555
S3 Mo1 1_555 1_555
S4 Mo2 1_555 1_555
O1 Mo1 1_555 1_555
O2 Mo2 1_555 1_555
O3 C2 1_555 1_555
O4 Mo1 1_555 1_555
O5 C5 1_555 1_555
O6 Mo2 1_555 1_555
O7 Cd1 1_555 1_555
O8 Cd1 1_555 1_555
N1 Mo1 1_555 1_555
N2 Mo2 1_555 1_555
C1 N1 1_555 1_555
C2 O4 1_555 1_555
C3 S3 1_555 1_555
C4 N2 1_555 1_555
C5 O6 1_555 1_555
C6 S4 1_555 1_555
H1 C1 1_555 1_555
H2 N1 1_555 1_555
H3 N2 1_555 1_555
H4 N2 1_555 1_555
H5 O7 1_555 1_555
H6 C3 1_555 1_555
H7 C3 1_555 1_555
H8 C4 1_555 1_555
H9 C6 1_555 1_555
H10 C6 1_555 1_555
H11 O7 1_555 1_555
H12 N1 1_555 1_555
H13 O8 1_555 1_555
H14 O8 1_555 1_555
Cd1_2 S4 1_555 1_555
S4_2 Cd1 1_555 1_555
Mo2 S2 1_555 1_555
C1 C2 1_555 1_555
C1 C3 1_555 1_555
C4 C5 1_555 1_555
C4 C6 1_555 1_555

#END
