
#######################################################################
#
#                 Cambridge Crystallographic Data Centre
#                                CCDC 
#
#######################################################################
#
# If this CIF has been generated from an entry in the Cambridge 
# Structural Database, then it will include bibliographic, chemical, 
# crystal, experimental, refinement or atomic coordinate data resulting 
# from the CCDC's data processing and validation procedures.
#
#######################################################################

data_NARMOK
_symmetry_cell_setting           monoclinic
_symmetry_space_group_name_H-M   'P 21/c'
_symmetry_Int_Tables_number      14
_space_group_name_Hall           '-P 2ybc'
loop_
_symmetry_equiv_pos_site_id
_symmetry_equiv_pos_as_xyz
1 x,y,z
2 -x,1/2+y,1/2-z
3 -x,-y,-z
4 x,1/2-y,1/2+z
_cell_length_a                   7.425(4)
_cell_length_b                   24.006(12)
_cell_length_c                   18.900(9)
_cell_angle_alpha                90
_cell_angle_beta                 97.744(7)
_cell_angle_gamma                90
_cell_volume                     3338.1
loop_
_atom_site_label
_atom_site_type_symbol
_atom_site_fract_x
_atom_site_fract_y
_atom_site_fract_z
Zn1 Zn 0.26257(8) 0.38054(3) -0.44944(4)
S1 S 0.02251(18) 0.29227(8) -0.22132(9)
S2 S -0.47439(18) 0.24538(8) -0.13584(9)
O1 O -0.5037(5) 0.15299(18) 0.0331(2)
O2 O -0.7203(5) 0.1936(2) -0.0402(2)
O3 O 0.0446(5) 0.35611(18) -0.4109(2)
O4 O 0.2640(5) 0.3396(2) -0.3225(2)
N1 N 0.3399(6) 0.4575(2) -0.4054(3)
N2 N 0.1782(6) 0.4337(2) -0.5363(3)
C1 C -0.4141(7) 0.2106(2) -0.0558(3)
C2 C -0.2307(7) 0.2088(3) -0.0375(3)
H1 H -0.1730 0.1924 0.0041
C3 C -0.1382(7) 0.2349(3) -0.0890(3)
H2 H -0.0121 0.2370 -0.0848
C4 C -0.2502(7) 0.2570(3) -0.1458(3)
C5 C -0.2024(7) 0.2841(3) -0.2087(3)
C6 C -0.3151(7) 0.3048(3) -0.2659(3)
H3 H -0.4411 0.3050 -0.2686
C7 C -0.2214(7) 0.3258(3) -0.3203(3)
H4 H -0.2794 0.3403 -0.3631
C8 C -0.0386(7) 0.3228(3) -0.3040(3)
C9 C 0.4160(9) 0.4665(3) -0.3385(5)
H5 H 0.4388 0.4363 -0.3076
C10 C 0.4629(11) 0.5203(4) -0.3132(5)
H6 H 0.5143 0.5261 -0.2662
C11 C 0.4311(12) 0.5638(4) -0.3595(7)
H7 H 0.4635 0.5996 -0.3441
C12 C 0.3533(10) 0.5554(3) -0.4272(5)
H8 H 0.3303 0.5850 -0.4588
C13 C 0.3080(8) 0.5009(3) -0.4486(4)
C14 C 0.2192(8) 0.4878(3) -0.5229(4)
C15 C 0.1782(11) 0.5286(3) -0.5755(5)
H9 H 0.2059 0.5659 -0.5660
C16 C 0.0969(12) 0.5122(5) -0.6406(6)
H10 H 0.0682 0.5385 -0.6764
C17 C 0.0555(10) 0.4564(4) -0.6548(5)
H11 H 0.0000 0.4447 -0.6994
C18 C 0.1006(8) 0.4191(3) -0.5998(4)
H12 H 0.0745 0.3816 -0.6083
C19 C 0.1007(7) 0.3397(3) -0.3479(3)
C20 C -0.5575(7) 0.1853(2) -0.0191(3)
Zn1C Zn -0.73743(8) 0.11946(3) 0.05056(4)
O1C O 0.4963(5) 0.34701(18) -0.4669(2)
O2C O 0.2797(5) 0.3064(2) -0.5402(2)
loop_
_geom_bond_atom_site_label_1
_geom_bond_atom_site_label_2
_geom_bond_site_symmetry_1
_geom_bond_site_symmetry_2
Zn1 O3 1_555 1_555
S1 C5 1_555 1_555
S2 C1 1_555 1_555
O1 C20 1_555 1_555
O2 C20 1_555 1_555
O3 C19 1_555 1_555
O4 C19 1_555 1_555
N1 Zn1 1_555 1_555
N2 Zn1 1_555 1_555
C1 C2 1_555 1_555
C2 H1 1_555 1_555
C3 C2 1_555 1_555
H2 C3 1_555 1_555
C4 S2 1_555 1_555
C5 C4 1_555 1_555
C6 C5 1_555 1_555
H3 C6 1_555 1_555
C7 C6 1_555 1_555
H4 C7 1_555 1_555
C8 S1 1_555 1_555
C9 N1 1_555 1_555
H5 C9 1_555 1_555
C10 C9 1_555 1_555
H6 C10 1_555 1_555
C11 C10 1_555 1_555
H7 C11 1_555 1_555
C12 C11 1_555 1_555
H8 C12 1_555 1_555
C13 N1 1_555 1_555
C14 N2 1_555 1_555
C15 C14 1_555 1_555
H9 C15 1_555 1_555
C16 C15 1_555 1_555
H10 C16 1_555 1_555
C17 C16 1_555 1_555
H11 C17 1_555 1_555
C18 N2 1_555 1_555
H12 C18 1_555 1_555
C19 C8 1_555 1_555
C20 C1 1_555 1_555
Zn1C O1 1_555 1_555
O1C Zn1 1_555 1_555
O2C Zn1 1_555 1_555
O2 Zn1C 1_555 1_555
C3 C4 1_555 1_555
C7 C8 1_555 1_555
C12 C13 1_555 1_555
C13 C14 1_555 1_555
C17 C18 1_555 1_555

#END
