
#######################################################################
#
#                 Cambridge Crystallographic Data Centre
#                                CCDC 
#
#######################################################################
#
# If this CIF has been generated from an entry in the Cambridge 
# Structural Database, then it will include bibliographic, chemical, 
# crystal, experimental, refinement or atomic coordinate data resulting 
# from the CCDC's data processing and validation procedures.
#
#######################################################################

data_NARSUW
_symmetry_cell_setting           monoclinic
_symmetry_space_group_name_H-M   'C c'
_symmetry_Int_Tables_number      9
_space_group_name_Hall           'C -2yc'
loop_
_symmetry_equiv_pos_site_id
_symmetry_equiv_pos_as_xyz
1 x,y,z
2 x,-y,1/2+z
3 1/2+x,1/2+y,z
4 1/2+x,1/2-y,1/2+z
_cell_length_a                   14.483(4)
_cell_length_b                   17.050(5)
_cell_length_c                   13.026(4)
_cell_angle_alpha                90
_cell_angle_beta                 121.296(3)
_cell_angle_gamma                90
_cell_volume                     2748.55
loop_
_atom_site_label
_atom_site_type_symbol
_atom_site_fract_x
_atom_site_fract_y
_atom_site_fract_z
C1 C -0.0619(4) 0.2540(2) 0.5842(3)
C2 C -0.1396(4) 0.3016(2) 0.5833(4)
H1 H -0.2017 0.3141 0.5107
C3 C -0.1255(5) 0.3309(3) 0.6894(5)
H2 H -0.1783 0.3636 0.6863
C4 C -0.0407(6) 0.3143(4) 0.7940(5)
H3 H -0.0334 0.3339 0.8645
C5 C 0.0370(7) 0.2674(5) 0.7966(6)
H4 H 0.0975 0.2543 0.8703
C6 C 0.0275(5) 0.2386(4) 0.6914(5)
H5 H 0.0829 0.2087 0.6951
C7 C -0.0776(3) 0.2222(2) 0.4711(3)
C8 C -0.1538(4) 0.2388(3) 0.3543(4)
H6 H -0.2093 0.2754 0.3270
C9 C -0.1312(3) 0.1895(2) 0.2843(3)
C10 C -0.1870(3) 0.1796(3) 0.1507(4)
C11 C 0.4244(3) 0.0292(3) 0.6296(3)
C12 C 0.4284(4) 0.0853(3) 0.7088(4)
H7 H 0.3685 0.1165 0.6877
C13 C 0.5229(4) 0.0948(4) 0.8205(5)
H8 H 0.5261 0.1330 0.8732
C14 C 0.6109(5) 0.0482(5) 0.8530(5)
H9 H 0.6727 0.0531 0.9288
C15 C 0.6074(4) -0.0051(4) 0.7740(6)
H10 H 0.6679 -0.0358 0.7960
C16 C 0.5155(4) -0.0151(3) 0.6608(4)
H11 H 0.5152 -0.0510 0.6069
C17 C 0.3250(3) 0.0182(2) 0.5111(3)
C18 C 0.3061(3) -0.0120(2) 0.4040(3)
H12 H 0.3569 -0.0331 0.3886
C19 C 0.1957(3) -0.00471(19) 0.3236(3)
C20 C 0.1247(3) -0.0216(2) 0.1931(3)
C21 C -0.1567(3) -0.0500(2) 0.1466(3)
H13 H -0.1594 -0.0339 0.0769
C22 C -0.2235(3) -0.1107(2) 0.1387(3)
H14 H -0.2696 -0.1348 0.0654
C23 C -0.2204(3) -0.13510(18) 0.2429(3)
C24 C -0.1492(3) -0.0964(2) 0.3490(4)
H15 H -0.1446 -0.1106 0.4204
C25 C -0.0860(3) -0.0376(2) 0.3478(3)
H16 H -0.0383 -0.0129 0.4201
C26 C -0.4267(4) -0.2976(2) 0.1419(3)
H17 H -0.4787 -0.3207 0.0701
C27 C -0.3669(4) -0.2363(3) 0.1374(4)
H18 H -0.3791 -0.2190 0.0636
C28 C -0.2893(3) -0.20041(18) 0.2414(3)
C29 C -0.2775(4) -0.2290(2) 0.3462(3)
H19 H -0.2265 -0.2069 0.4193
C30 C -0.3403(4) -0.2899(2) 0.3439(3)
H20 H -0.3310 -0.3073 0.4163
N1 N -0.0133(2) 0.16649(15) 0.4667(2)
H21 H 0.0416 0.1465 0.5293
N2 N -0.0449(2) 0.14605(16) 0.3539(2)
N3 N 0.2275(2) 0.04084(16) 0.4914(2)
H22 H 0.2178 0.0611 0.5455
N4 N 0.1479(2) 0.02793(16) 0.3779(2)
N5 N -0.0888(2) -0.01355(15) 0.2490(2)
N6 N -0.4135(2) -0.32515(16) 0.2436(3)
Ni1 Ni -0.00027(3) 0.08062(2) 0.25027(3)
O1 O -0.2695(3) 0.2161(3) 0.0869(3)
O2 O -0.1399(2) 0.13168(14) 0.11591(19)
O3 O 0.0359(2) 0.01435(13) 0.1389(2)
O4 O 0.1561(3) -0.07175(17) 0.1464(3)
N6B N 0.0865(2) 0.17485(16) 0.2436(3)
Ni1B Ni -0.50027(3) -0.41938(2) 0.25027(3)
loop_
_geom_bond_atom_site_label_1
_geom_bond_atom_site_label_2
_geom_bond_site_symmetry_1
_geom_bond_site_symmetry_2
C1 C2 1_555 1_555
C2 H1 1_555 1_555
C3 C2 1_555 1_555
H2 C3 1_555 1_555
C4 C3 1_555 1_555
H3 C4 1_555 1_555
C5 C4 1_555 1_555
H4 C5 1_555 1_555
C6 C1 1_555 1_555
H5 C6 1_555 1_555
C7 C1 1_555 1_555
C8 C7 1_555 1_555
H6 C8 1_555 1_555
C9 C8 1_555 1_555
C10 C9 1_555 1_555
C11 C12 1_555 1_555
C12 H7 1_555 1_555
C13 C12 1_555 1_555
H8 C13 1_555 1_555
C14 C13 1_555 1_555
H9 C14 1_555 1_555
C15 C14 1_555 1_555
H10 C15 1_555 1_555
C16 C11 1_555 1_555
H11 C16 1_555 1_555
C17 C11 1_555 1_555
C18 C17 1_555 1_555
H12 C18 1_555 1_555
C19 C18 1_555 1_555
C20 C19 1_555 1_555
C21 H13 1_555 1_555
C22 C21 1_555 1_555
H14 C22 1_555 1_555
C23 C22 1_555 1_555
C24 C23 1_555 1_555
H15 C24 1_555 1_555
C25 C24 1_555 1_555
H16 C25 1_555 1_555
C26 H17 1_555 1_555
C27 C26 1_555 1_555
H18 C27 1_555 1_555
C28 C23 1_555 1_555
C29 C28 1_555 1_555
H19 C29 1_555 1_555
C30 C29 1_555 1_555
H20 C30 1_555 1_555
N1 C7 1_555 1_555
H21 N1 1_555 1_555
N2 C9 1_555 1_555
N3 C17 1_555 1_555
H22 N3 1_555 1_555
N4 C19 1_555 1_555
N5 C21 1_555 1_555
N6 C26 1_555 1_555
Ni1 N2 1_555 1_555
O1 C10 1_555 1_555
O2 C10 1_555 1_555
O3 C20 1_555 1_555
O4 C20 1_555 1_555
N6B Ni1 1_555 1_555
Ni1B N6 1_555 1_555
C5 C6 1_555 1_555
C15 C16 1_555 1_555
C25 N5 1_555 1_555
C27 C28 1_555 1_555
C30 N6 1_555 1_555
N1 N2 1_555 1_555
N3 N4 1_555 1_555
N4 Ni1 1_555 1_555
N5 Ni1 1_555 1_555
Ni1 O2 1_555 1_555
Ni1 O3 1_555 1_555

#END
