
#######################################################################
#
#                 Cambridge Crystallographic Data Centre
#                                CCDC 
#
#######################################################################
#
# If this CIF has been generated from an entry in the Cambridge 
# Structural Database, then it will include bibliographic, chemical, 
# crystal, experimental, refinement or atomic coordinate data resulting 
# from the CCDC's data processing and validation procedures.
#
#######################################################################

data_NARTEH
_symmetry_cell_setting           monoclinic
_symmetry_space_group_name_H-M   'I 2/a'
_symmetry_Int_Tables_number      15
_space_group_name_Hall           '-I 2ya'
loop_
_symmetry_equiv_pos_site_id
_symmetry_equiv_pos_as_xyz
1 x,y,z
2 1/2-x,y,-z
3 1/2+x,1/2+y,1/2+z
4 -x,1/2+y,1/2-z
5 -x,-y,-z
6 1/2+x,-y,z
7 1/2-x,1/2-y,1/2-z
8 x,1/2-y,1/2+z
_cell_length_a                   12.6652(9)
_cell_length_b                   11.4083(8)
_cell_length_c                   34.571(3)
_cell_angle_alpha                90
_cell_angle_beta                 97.5210(10)
_cell_angle_gamma                90
_cell_volume                     4952.14
loop_
_atom_site_label
_atom_site_type_symbol
_atom_site_fract_x
_atom_site_fract_y
_atom_site_fract_z
O1 O 0.20724(16) 0.28053(17) 0.44113(5)
O2 O 0.34592(19) 0.3705(2) 0.42059(6)
O3 O -0.04843(15) 0.57488(16) 0.30455(5)
O4 O -0.17183(14) 0.58790(16) 0.25217(5)
O5 O 0.41292(16) 0.29000(18) 0.49379(6)
H1 H 0.4079 0.3157 0.4713
H2 H 0.4506 0.3329 0.5093
N1 N 0.23979(17) 0.2396(2) 0.31070(6)
N2 N 0.17357(18) 0.1605(2) 0.32364(6)
H7 H 0.1409 0.1074 0.3090
N3 N 0.2500 0.1028(3) 0.5000
N4 N 0.2500 -0.5210(3) 0.5000
N5 N 0.01775(17) 0.2976(2) 0.22047(6)
H8 H 0.0187 0.2406 0.2042
N6 N 0.10544(16) 0.33662(19) 0.24343(6)
Ni1 Ni 0.2500 0.28977(4) 0.5000
Ni2 Ni 0.2500 0.2500 0.2500
C1 C 0.0902(3) 0.0954(3) 0.37980(8)
C2 C 0.0916(4) -0.0244(4) 0.37358(11)
H9 H 0.1430 -0.0575 0.3600
C3 C 0.0147(4) -0.0957(5) 0.38790(14)
H10 H 0.0153 -0.1765 0.3842
C4 C -0.0605(4) -0.0452(5) 0.40729(14)
H11 H -0.1125 -0.0923 0.4160
C5 C -0.0618(4) 0.0709(4) 0.41413(13)
H12 H -0.1136 0.1029 0.4277
C6 C 0.0141(3) 0.1428(4) 0.40087(9)
H13 H 0.0141 0.2228 0.4061
C7 C 0.1636(2) 0.1730(2) 0.36188(7)
C8 C 0.2737(2) 0.3040(3) 0.34177(7)
H14 H 0.3212 0.3661 0.3417
C9 C 0.2290(2) 0.2667(2) 0.37476(7)
C10 C 0.2626(2) 0.3098(2) 0.41514(7)
C11 C -0.1756(2) 0.3158(2) 0.20610(8)
C12 C -0.1812(3) 0.2240(3) 0.17965(11)
H15 H -0.1188 0.1926 0.1726
C13 C -0.2787(3) 0.1781(3) 0.16352(12)
H16 H -0.2812 0.1159 0.1460
C14 C -0.3717(3) 0.2248(3) 0.17344(11)
H17 H -0.4371 0.1935 0.1631
C15 C -0.3672(3) 0.3171(4) 0.19847(11)
H18 H -0.4301 0.3501 0.2045
C16 C -0.2703(2) 0.3626(3) 0.21509(10)
H19 H -0.2688 0.4252 0.2324
C17 C -0.0380(2) 0.4425(2) 0.25380(7)
C18 C -0.0711(2) 0.3570(2) 0.22568(7)
C19 C 0.0715(2) 0.4238(2) 0.26362(8)
H20 H 0.1149 0.4675 0.2821
C20 C 0.1620(3) 0.0410(3) 0.48803(9)
H21 H 0.0997 0.0818 0.4796
C21 C 0.1586(3) -0.0798(3) 0.48750(10)
H22 H 0.0952 -0.1183 0.4788
C22 C 0.2500 -0.1437(3) 0.5000
C23 C 0.2500 -0.2742(3) 0.5000
C24 C 0.1926(2) -0.3379(3) 0.47005(9)
H23 H 0.1524 -0.2992 0.4495
C25 C 0.1954(2) -0.4588(3) 0.47095(8)
H24 H 0.1575 -0.4995 0.4503
C26 C -0.0914(2) 0.5403(2) 0.27176(7)
O1A O 0.29276(16) 0.28053(17) 0.55887(5)
O2A O 0.15408(19) 0.3705(2) 0.57941(6)
O3C O 0.04843(15) 0.07488(16) 0.19545(5)
O4C O 0.17183(14) 0.08790(16) 0.24783(5)
O4E O 0.32817(14) 0.41210(16) 0.25217(5)
O5A O 0.08708(16) 0.29000(18) 0.50621(6)
H1A H 0.0921 0.3157 0.5287
H2A H 0.0494 0.3329 0.4907
N1A N 0.26021(17) 0.2396(2) 0.68930(6)
N1F N 0.26021(17) 0.2604(2) 0.18930(6)
N2A N 0.32643(18) 0.1605(2) 0.67636(6)
H7A H 0.3591 0.1074 0.6910
N4_2 N 0.2500 0.4790(3) 0.5000
N5C N -0.01775(17) -0.2024(2) 0.27953(6)
H8C H -0.0187 -0.2594 0.2958
N6C N -0.10544(16) -0.16338(19) 0.25657(6)
N6F N 0.39456(16) 0.16338(19) 0.25657(6)
Ni1_2 Ni 0.2500 -0.71023(4) 0.5000
Ni2C Ni -0.2500 -0.2500 0.2500
Ni2C_2 Ni -0.2500 0.7500 0.2500
Ni2A Ni 0.2500 0.2500 0.7500
C1A C 0.4098(3) 0.0954(3) 0.62020(8)
C2A C 0.4084(4) -0.0244(4) 0.62642(11)
H9A H 0.3570 -0.0575 0.6400
C3A C 0.4853(4) -0.0957(5) 0.61210(14)
H10A H 0.4847 -0.1765 0.6158
C4A C 0.5605(4) -0.0452(5) 0.59271(14)
H11A H 0.6125 -0.0923 0.5840
C5A C 0.5618(4) 0.0709(4) 0.58587(13)
H12A H 0.6136 0.1029 0.5723
C6A C 0.4859(3) 0.1428(4) 0.59913(9)
H13A H 0.4859 0.2228 0.5939
C7A C 0.3364(2) 0.1730(2) 0.63812(7)
C8A C 0.2263(2) 0.3040(3) 0.65823(7)
H14A H 0.1788 0.3661 0.6583
C9A C 0.2710(2) 0.2667(2) 0.62524(7)
C10A C 0.2374(2) 0.3098(2) 0.58486(7)
C11C C 0.1756(2) -0.1842(2) 0.29390(8)
C12C C 0.1812(3) -0.2760(3) 0.32035(11)
H15C H 0.1188 -0.3074 0.3274
C13C C 0.2787(3) -0.3219(3) 0.33648(12)
H16C H 0.2812 -0.3841 0.3540
C14C C 0.3717(3) -0.2752(3) 0.32656(11)
H17C H 0.4371 -0.3065 0.3369
C15C C 0.3672(3) -0.1829(4) 0.30153(11)
H18C H 0.4301 -0.1499 0.2955
C16C C 0.2703(2) -0.1374(3) 0.28491(10)
H19C H 0.2688 -0.0748 0.2676
C17C C 0.0380(2) -0.0575(2) 0.24620(7)
C18C C 0.0711(2) -0.1430(2) 0.27432(7)
C19C C -0.0715(2) -0.0762(2) 0.23638(8)
H20C H -0.1149 -0.0325 0.2179
C20A C 0.3380(3) 0.0410(3) 0.51197(9)
H21A H 0.4003 0.0818 0.5204
C21A C 0.3414(3) -0.0798(3) 0.51250(10)
H22A H 0.4048 -0.1183 0.5212
C24A C 0.3074(2) -0.3379(3) 0.52995(9)
H23A H 0.3476 -0.2992 0.5505
C25A C 0.3046(2) -0.4588(3) 0.52905(8)
H24A H 0.3425 -0.4995 0.5497
C26C C 0.0914(2) 0.0403(2) 0.22824(7)
O6 O 0.5484(2) 0.3997(3) 0.55225(8)
H3 H 0.4946 0.4076 0.5633
H4 H 0.6033 0.4179 0.5668
O7 O 0.5164(2) 0.4586(3) 0.38702(8)
H5 H 0.4605 0.4191 0.3876
H6 H 0.5121 0.4947 0.3658
loop_
_geom_bond_atom_site_label_1
_geom_bond_atom_site_label_2
_geom_bond_site_symmetry_1
_geom_bond_site_symmetry_2
O1 Ni1 1_555 1_555
O2 C10 1_555 1_555
O3 C26 1_555 1_555
O4 C26 1_555 1_555
O5 H1 1_555 1_555
H2 O5 1_555 1_555
O6 H3 1_555 1_555
H4 O6 1_555 1_555
O7 H5 1_555 1_555
H6 O7 1_555 1_555
N1 N2 1_555 1_555
N2 H7 1_555 1_555
N3 Ni1 1_555 1_555
N4 C25 1_555 1_555
N5 H8 1_555 1_555
N6 N5 1_555 1_555
Ni1 O5 1_555 1_555
Ni2 N1 1_555 1_555
C1 C2 1_555 1_555
C2 H9 1_555 1_555
C3 C2 1_555 1_555
H10 C3 1_555 1_555
C4 C3 1_555 1_555
H11 C4 1_555 1_555
C5 C4 1_555 1_555
H12 C5 1_555 1_555
C6 C1 1_555 1_555
H13 C6 1_555 1_555
C7 N2 1_555 1_555
C8 N1 1_555 1_555
H14 C8 1_555 1_555
C9 C7 1_555 1_555
C10 O1 1_555 1_555
C11 C12 1_555 1_555
C12 H15 1_555 1_555
C13 C12 1_555 1_555
H16 C13 1_555 1_555
C14 C13 1_555 1_555
H17 C14 1_555 1_555
C15 C14 1_555 1_555
H18 C15 1_555 1_555
C16 C11 1_555 1_555
H19 C16 1_555 1_555
C17 C18 1_555 1_555
C18 N5 1_555 1_555
C19 N6 1_555 1_555
H20 C19 1_555 1_555
C20 N3 1_555 1_555
H21 C20 1_555 1_555
C21 C20 1_555 1_555
H22 C21 1_555 1_555
C22 C21 1_555 1_555
C23 C22 1_555 1_555
C24 C23 1_555 1_555
H23 C24 1_555 1_555
C25 C24 1_555 1_555
H24 C25 1_555 1_555
C26 C17 1_555 1_555
O1A Ni1 1_555 1_555
O2A C10A 1_555 1_555
O3C C26C 1_555 1_555
O4C Ni2 1_555 1_555
O4E Ni2 1_555 1_555
O5A Ni1 1_555 1_555
H1A O5A 1_555 1_555
H2A O5A 1_555 1_555
N1A N2A 1_555 1_555
N1F Ni2 1_555 1_555
N2A H7A 1_555 1_555
N4_2 Ni1 1_555 1_555
N5C H8C 1_555 1_555
N6C N5C 1_555 1_555
N6F Ni2 1_555 1_555
Ni1_2 N4 1_555 1_555
Ni2C N6C 1_555 1_555
Ni2C_2 O4 1_555 1_555
Ni2A N1A 1_555 1_555
C1A C2A 1_555 1_555
C2A H9A 1_555 1_555
C3A C2A 1_555 1_555
H10A C3A 1_555 1_555
C4A C3A 1_555 1_555
H11A C4A 1_555 1_555
C5A C4A 1_555 1_555
H12A C5A 1_555 1_555
C6A C1A 1_555 1_555
H13A C6A 1_555 1_555
C7A N2A 1_555 1_555
C8A N1A 1_555 1_555
H14A C8A 1_555 1_555
C9A C7A 1_555 1_555
C10A O1A 1_555 1_555
C11C C12C 1_555 1_555
C12C H15C 1_555 1_555
C13C C12C 1_555 1_555
H16C C13C 1_555 1_555
C14C C13C 1_555 1_555
H17C C14C 1_555 1_555
C15C C14C 1_555 1_555
H18C C15C 1_555 1_555
C16C C11C 1_555 1_555
H19C C16C 1_555 1_555
C17C C18C 1_555 1_555
C18C N5C 1_555 1_555
C19C N6C 1_555 1_555
H20C C19C 1_555 1_555
C20A N3 1_555 1_555
H21A C20A 1_555 1_555
C21A C22 1_555 1_555
H22A C21A 1_555 1_555
C24A C23 1_555 1_555
H23A C24A 1_555 1_555
C25A N4 1_555 1_555
H24A C25A 1_555 1_555
C26C O4C 1_555 1_555
N6 Ni2 1_555 1_555
C1 C7 1_555 1_555
C5 C6 1_555 1_555
C8 C9 1_555 1_555
C9 C10 1_555 1_555
C11 C18 1_555 1_555
C15 C16 1_555 1_555
C17 C19 1_555 1_555
C1A C7A 1_555 1_555
C5A C6A 1_555 1_555
C8A C9A 1_555 1_555
C9A C10A 1_555 1_555
C11C C18C 1_555 1_555
C15C C16C 1_555 1_555
C17C C19C 1_555 1_555
C17C C26C 1_555 1_555
C20A C21A 1_555 1_555
C24A C25A 1_555 1_555

#END
