
#######################################################################
#
#                 Cambridge Crystallographic Data Centre
#                                CCDC 
#
#######################################################################
#
# If this CIF has been generated from an entry in the Cambridge 
# Structural Database, then it will include bibliographic, chemical, 
# crystal, experimental, refinement or atomic coordinate data resulting 
# from the CCDC's data processing and validation procedures.
#
#######################################################################

data_NARXAG
_symmetry_cell_setting           monoclinic
_symmetry_space_group_name_H-M   'P 21/c'
_symmetry_Int_Tables_number      14
_space_group_name_Hall           '-P 2ybc'
loop_
_symmetry_equiv_pos_site_id
_symmetry_equiv_pos_as_xyz
1 x,y,z
2 -x,1/2+y,1/2-z
3 -x,-y,-z
4 x,1/2-y,1/2+z
_cell_length_a                   8.281(2)
_cell_length_b                   13.264(1)
_cell_length_c                   13.406(4)
_cell_angle_alpha                90
_cell_angle_beta                 107.51(2)
_cell_angle_gamma                90
_cell_volume                     1404.27
loop_
_atom_site_label
_atom_site_type_symbol
_atom_site_fract_x
_atom_site_fract_y
_atom_site_fract_z
Ag1 Ag 0.58473(7) 1.03127(4) 0.89381(4)
N1 N 0.5985(6) 1.1916(5) 0.9053(4)
N2 N 0.5760(6) 1.8682(5) 0.8833(4)
N3 N 0.6524(8) 1.5084(5) 0.9209(5)
N4 N 0.5394(8) 1.5544(4) 0.8581(5)
C1 C 0.4603(9) 1.2501(5) 0.8794(5)
C2 C 0.4662(9) 1.3541(5) 0.8791(5)
C3 C 0.6270(9) 1.4011(5) 0.9103(5)
C4 C 0.7705(9) 1.3414(5) 0.9399(6)
C5 C 0.7512(9) 1.2385(5) 0.9356(6)
C6 C 0.7184(8) 1.8157(5) 0.9028(6)
C7 C 0.7172(8) 1.7129(5) 0.8988(6)
C8 C 0.5615(8) 1.6633(5) 0.8674(5)
C9 C 0.4141(8) 1.7193(5) 0.8439(5)
C10 C 0.4269(8) 1.8204(5) 0.8539(5)
H1 H 0.3527 1.2190 0.8604
H2 H 0.3660 1.3935 0.8592
H3 H 0.8798 1.3702 0.9607
H4 H 0.8504 1.1979 0.9549
H5 H 0.8231 1.8509 0.9208
H6 H 0.8198 1.6761 0.9174
H7 H 0.3056 1.6878 0.8215
H8 H 0.3268 1.8593 0.8405
Ag1_2 Ag 0.58473(7) 2.03127(4) 0.89381(4)
N2_2 N 0.5760(6) 0.8682(5) 0.8833(4)
P1 P 1.0337(2) 1.0294(1) 0.7936(2)
F1 F 0.853(1) 1.0271(5) 0.802(1)
F2 F 1.2135(10) 1.0357(4) 0.7787(9)
F3 F 1.046(1) 1.1414(5) 0.826(1)
F4 F 0.962(1) 1.079(1) 0.6842(9)
F5 F 1.025(1) 0.9196(6) 0.771(1)
F6 F 1.118(2) 0.993(2) 0.9031(9)
loop_
_geom_bond_atom_site_label_1
_geom_bond_atom_site_label_2
_geom_bond_site_symmetry_1
_geom_bond_site_symmetry_2
Ag1 N1 1_555 1_555
N1 C1 1_555 1_555
N2 C6 1_555 1_555
N3 N4 1_555 1_555
N4 C8 1_555 1_555
C1 C2 1_555 1_555
C2 C3 1_555 1_555
C3 N3 1_555 1_555
C4 C3 1_555 1_555
C5 N1 1_555 1_555
C6 C7 1_555 1_555
C7 C8 1_555 1_555
C8 C9 1_555 1_555
C9 C10 1_555 1_555
C10 N2 1_555 1_555
H1 C1 1_555 1_555
H2 C2 1_555 1_555
H3 C4 1_555 1_555
H4 C5 1_555 1_555
H5 C6 1_555 1_555
H6 C7 1_555 1_555
H7 C9 1_555 1_555
H8 C10 1_555 1_555
P1 F1 1_555 1_555
F2 P1 1_555 1_555
F3 P1 1_555 1_555
F4 P1 1_555 1_555
F5 P1 1_555 1_555
F6 P1 1_555 1_555
Ag1_2 N2 1_555 1_555
N2_2 Ag1 1_555 1_555
C4 C5 1_555 1_555

#END
