
#######################################################################
#
#                 Cambridge Crystallographic Data Centre
#                                CCDC 
#
#######################################################################
#
# If this CIF has been generated from an entry in the Cambridge 
# Structural Database, then it will include bibliographic, chemical, 
# crystal, experimental, refinement or atomic coordinate data resulting 
# from the CCDC's data processing and validation procedures.
#
#######################################################################

data_NARZEM
_symmetry_cell_setting           monoclinic
_symmetry_space_group_name_H-M   'P 21/n'
_symmetry_Int_Tables_number      14
_space_group_name_Hall           '-P 2yn'
loop_
_symmetry_equiv_pos_site_id
_symmetry_equiv_pos_as_xyz
1 x,y,z
2 1/2-x,1/2+y,1/2-z
3 -x,-y,-z
4 1/2+x,1/2-y,1/2+z
_cell_length_a                   4.87070(10)
_cell_length_b                   9.1016(2)
_cell_length_c                   24.2355(6)
_cell_angle_alpha                90
_cell_angle_beta                 91.1059(11)
_cell_angle_gamma                90
_cell_volume                     1074.19
loop_
_atom_site_label
_atom_site_type_symbol
_atom_site_fract_x
_atom_site_fract_y
_atom_site_fract_z
Sr1 Sr 0.52054(9) 0.37118(5) 0.570912(19)
S1 S 0.9986(2) 0.67110(13) 0.54707(5)
C1 C 0.9070(10) 0.8184(6) 0.5907(2)
H1 H 0.8153 0.8938 0.5688
H2 H 0.7791 0.7834 0.6179
C2 C 1.1561(10) 0.8847(6) 0.6200(2)
H3 H 1.2814 0.9226 0.5928
H4 H 1.2512 0.8087 0.6409
C3 C 1.0755(9) 1.0088(5) 0.65898(19)
H5 H 0.9343 0.9731 0.6839
C4 C 0.9636(9) 1.1417(5) 0.6269(2)
N1 N 1.3228(9) 1.0541(5) 0.6921(2)
O1 O 0.7378(7) 0.6093(4) 0.52609(16)
O2 O 1.1458(8) 0.5654(4) 0.58117(15)
O3 O 1.1601(7) 0.7333(4) 0.50330(15)
O4 O 1.1266(7) 1.2359(4) 0.61150(17)
O5 O 0.7096(7) 1.1400(4) 0.61679(15)
O6 O 0.6204(12) 0.4615(6) 0.6667(2)
H6 H 0.612(15) 0.557(4) 0.683(3)
H7 H 0.66(2) 0.395(6) 0.696(2)
H8 H 1.420(12) 0.953(7) 0.710(3)
H9 H 1.476(15) 1.115(8) 0.666(3)
H10 H 1.280(16) 1.112(9) 0.718(4)
Sr1B Sr 0.47946(9) 0.62882(5) 0.429088(19)
Sr1_2 Sr 1.52054(9) 0.37118(5) 0.570912(19)
Sr1B_2 Sr 1.47946(9) 0.62882(5) 0.429088(19)
Sr1_3 Sr 1.52054(9) 1.37118(5) 0.570912(19)
Sr1_4 Sr 0.52054(9) 1.37118(5) 0.570912(19)
O1B O 0.2622(7) 0.3907(4) 0.47391(16)
O2_2 O 0.1458(8) 0.5654(4) 0.58117(15)
O3B O 0.8399(7) 0.2667(4) 0.49670(15)
O4_2 O 0.1266(7) 0.2359(4) 0.61150(17)
O5_2 O 0.7096(7) 0.1400(4) 0.61679(15)
Cl1 Cl 0.8945(3) 0.25584(12) 0.76090(4)
loop_
_geom_bond_atom_site_label_1
_geom_bond_atom_site_label_2
_geom_bond_site_symmetry_1
_geom_bond_site_symmetry_2
Sr1 O1 1_555 1_555
S1 C1 1_555 1_555
C1 H1 1_555 1_555
H2 C1 1_555 1_555
C2 C1 1_555 1_555
H3 C2 1_555 1_555
H4 C2 1_555 1_555
C3 C2 1_555 1_555
H5 C3 1_555 1_555
C4 C3 1_555 1_555
N1 C3 1_555 1_555
O1 S1 1_555 1_555
O2 S1 1_555 1_555
O3 S1 1_555 1_555
O4 C4 1_555 1_555
O5 C4 1_555 1_555
O6 Sr1 1_555 1_555
H6 O6 1_555 1_555
H7 O6 1_555 1_555
H8 N1 1_555 1_555
H9 N1 1_555 1_555
H10 N1 1_555 1_555
Sr1B O1 1_555 1_555
Sr1_2 O2 1_555 1_555
Sr1B_2 O3 1_555 1_555
Sr1_3 O4 1_555 1_555
Sr1_4 O5 1_555 1_555
O1B Sr1 1_555 1_555
O2_2 Sr1 1_555 1_555
O3B Sr1 1_555 1_555
O4_2 Sr1 1_555 1_555
O5_2 Sr1 1_555 1_555
Sr1B O1B 1_555 1_555

#END
