
#######################################################################
#
#                 Cambridge Crystallographic Data Centre
#                                CCDC 
#
#######################################################################
#
# If this CIF has been generated from an entry in the Cambridge 
# Structural Database, then it will include bibliographic, chemical, 
# crystal, experimental, refinement or atomic coordinate data resulting 
# from the CCDC's data processing and validation procedures.
#
#######################################################################

data_NASGIZ01
_symmetry_cell_setting           orthorhombic
_symmetry_space_group_name_H-M   'P b c a'
_symmetry_Int_Tables_number      61
_space_group_name_Hall           '-P 2ac 2ab'
loop_
_symmetry_equiv_pos_site_id
_symmetry_equiv_pos_as_xyz
1 x,y,z
2 1/2-x,-y,1/2+z
3 -x,1/2+y,1/2-z
4 1/2+x,1/2-y,-z
5 -x,-y,-z
6 1/2+x,y,1/2-z
7 x,1/2-y,1/2+z
8 1/2-x,1/2+y,z
_cell_length_a                   7.8449(10)
_cell_length_b                   12.6638(16)
_cell_length_c                   24.194(3)
_cell_angle_alpha                90
_cell_angle_beta                 90
_cell_angle_gamma                90
_cell_volume                     2403.58
loop_
_atom_site_label
_atom_site_type_symbol
_atom_site_fract_x
_atom_site_fract_y
_atom_site_fract_z
Cd1 Cd 0.168393(13) 0.238577(7) 0.082105(4)
Cd2 Cd 0.0000 0.5000 0.0000
O1 O 0.44471(14) 0.26024(8) 0.11655(5)
H1 H 0.4970 0.3020 0.0970
H2 H 0.4978 0.2018 0.1192
N1 N -0.14860(16) 0.64575(10) 0.33583(5)
N2 N 0.02281(18) 0.40169(10) 0.17613(5)
N3 N 0.04343(17) 0.38861(9) 0.12161(5)
N4 N -0.01247(16) 0.47384(9) 0.09498(5)
N5 N -0.06971(16) 0.54488(9) 0.13149(5)
N6 N 0.17170(16) 0.34727(10) 0.00228(5)
N7 N 0.27684(16) 0.32791(9) -0.03234(5)
N8 N 0.37474(17) 0.30758(11) -0.06653(6)
N9 N 0.25847(16) 0.10497(9) 0.02242(5)
N10 N 0.15761(16) 0.09141(9) -0.01472(5)
N11 N 0.06268(19) 0.07713(11) -0.05053(6)
C1 C -0.04689(19) 0.49811(10) 0.18101(6)
C2 C -0.08800(18) 0.54733(11) 0.23435(6)
C3 C -0.17203(18) 0.64460(11) 0.23669(6)
H3 H -0.2082 0.6780 0.2045
C4 C -0.20034(18) 0.69036(11) 0.28814(6)
H4 H -0.2575 0.7546 0.2897
H5 H -0.0348 0.5197 0.3662
C5 C -0.0707(2) 0.55087(11) 0.33348(6)
C6 C -0.0396(2) 0.49904(11) 0.28404(6)
H6 H 0.0127 0.4331 0.2838
Cd1D Cd -0.168393(13) 0.761423(7) -0.082105(4)
Cd1B Cd -0.168393(13) 0.738577(7) 0.417895(4)
Cd1C Cd 0.668393(13) 0.261423(7) -0.082105(4)
Cd1F Cd 0.168393(13) 0.261423(7) -0.417895(4)
Cd1G Cd -0.668393(13) 0.738577(7) 0.082105(4)
Cd2C Cd -0.5000 1.0000 0.0000
Cd2C_2 Cd 0.5000 0.0000 0.0000
O1D O -0.44471(14) 0.73976(8) -0.11655(5)
H1D H -0.4970 0.6980 -0.0970
H2D H -0.4978 0.7982 -0.1192
N1D N 0.14860(16) 0.35425(10) -0.33583(5)
N1B N 0.14860(16) 0.14575(10) 0.16417(5)
N1F N -0.14860(16) 0.85425(10) -0.16417(5)
N2D N -0.02281(18) 0.59831(10) -0.17613(5)
N3D N -0.04343(17) 0.61139(9) -0.12161(5)
N4D N 0.01247(16) 0.52616(9) -0.09498(5)
N5D N 0.06971(16) 0.45512(9) -0.13149(5)
N6D N -0.17170(16) 0.65273(10) -0.00228(5)
N7D N -0.27684(16) 0.67209(9) 0.03234(5)
N8D N -0.37474(17) 0.69242(11) 0.06653(6)
N8C N -0.12526(17) 0.19242(11) 0.06653(6)
N8G N 0.12526(17) 0.80758(11) -0.06653(6)
N9D N -0.25847(16) 0.89503(9) -0.02242(5)
N9C N -0.24153(16) 0.39503(9) -0.02242(5)
N9G N 0.24153(16) 0.60497(9) 0.02242(5)
N10D N -0.15761(16) 0.90859(9) 0.01472(5)
N11D N -0.06268(19) 0.92287(11) 0.05053(6)
C1D C 0.04689(19) 0.50189(10) -0.18101(6)
C2D C 0.08800(18) 0.45267(11) -0.23435(6)
C3D C 0.17203(18) 0.35540(11) -0.23669(6)
H3D H 0.2082 0.3220 -0.2045
C4D C 0.20034(18) 0.30964(11) -0.28814(6)
H4D H 0.2575 0.2454 -0.2897
H5D H 0.0348 0.4803 -0.3662
C5D C 0.0707(2) 0.44913(11) -0.33348(6)
C6D C 0.0396(2) 0.50096(11) -0.28404(6)
H6D H -0.0127 0.5669 -0.2838
loop_
_geom_bond_atom_site_label_1
_geom_bond_atom_site_label_2
_geom_bond_site_symmetry_1
_geom_bond_site_symmetry_2
Cd1 O1 1_555 1_555
Cd2 N4 1_555 1_555
O1 H1 1_555 1_555
H2 O1 1_555 1_555
N1 C4 1_555 1_555
N2 N3 1_555 1_555
N3 Cd1 1_555 1_555
N4 N3 1_555 1_555
N5 N4 1_555 1_555
N6 Cd1 1_555 1_555
N7 N6 1_555 1_555
N8 N7 1_555 1_555
N9 Cd1 1_555 1_555
N10 N9 1_555 1_555
N11 N10 1_555 1_555
C1 N2 1_555 1_555
C2 C1 1_555 1_555
C3 C2 1_555 1_555
H3 C3 1_555 1_555
C4 C3 1_555 1_555
H4 C4 1_555 1_555
H5 C5 1_555 1_555
C5 N1 1_555 1_555
C6 C2 1_555 1_555
H6 C6 1_555 1_555
Cd1D O1D 1_555 1_555
Cd1B N1 1_555 1_555
Cd1C N8 1_555 1_555
Cd1F N1D 1_555 1_555
Cd1G N8D 1_555 1_555
Cd2C N9D 1_555 1_555
Cd2C_2 N9 1_555 1_555
O1D H1D 1_555 1_555
H2D O1D 1_555 1_555
N1D C4D 1_555 1_555
N1B Cd1 1_555 1_555
N1F Cd1D 1_555 1_555
N2D N3D 1_555 1_555
N3D Cd1D 1_555 1_555
N4D Cd2 1_555 1_555
N5D N4D 1_555 1_555
N6D Cd2 1_555 1_555
N7D N6D 1_555 1_555
N8D N7D 1_555 1_555
N8C Cd1 1_555 1_555
N8G Cd1D 1_555 1_555
N9D Cd1D 1_555 1_555
N9C Cd2 1_555 1_555
N9G Cd2 1_555 1_555
N10D N9D 1_555 1_555
N11D N10D 1_555 1_555
C1D N2D 1_555 1_555
C2D C1D 1_555 1_555
C3D C2D 1_555 1_555
H3D C3D 1_555 1_555
C4D C3D 1_555 1_555
H4D C4D 1_555 1_555
H5D C5D 1_555 1_555
C5D N1D 1_555 1_555
C6D C2D 1_555 1_555
H6D C6D 1_555 1_555
Cd2 N6 1_555 1_555
N5 C1 1_555 1_555
C5 C6 1_555 1_555
Cd1D N6D 1_555 1_555
N3D N4D 1_555 1_555
N5D C1D 1_555 1_555
C5D C6D 1_555 1_555

#END
