
#######################################################################
#
#                 Cambridge Crystallographic Data Centre
#                                CCDC 
#
#######################################################################
#
# If this CIF has been generated from an entry in the Cambridge 
# Structural Database, then it will include bibliographic, chemical, 
# crystal, experimental, refinement or atomic coordinate data resulting 
# from the CCDC's data processing and validation procedures.
#
#######################################################################

data_NASHOG
_symmetry_cell_setting           orthorhombic
_symmetry_space_group_name_H-M   'P 21 21 21'
_symmetry_Int_Tables_number      19
_space_group_name_Hall           'P 2ac 2ab'
loop_
_symmetry_equiv_pos_site_id
_symmetry_equiv_pos_as_xyz
1 x,y,z
2 1/2-x,-y,1/2+z
3 1/2+x,1/2-y,-z
4 -x,1/2+y,1/2-z
_cell_length_a                   9.8241(2)
_cell_length_b                   11.0429(2)
_cell_length_c                   15.8954(4)
_cell_angle_alpha                90
_cell_angle_beta                 90
_cell_angle_gamma                90
_cell_volume                     1724.44
loop_
_atom_site_label
_atom_site_type_symbol
_atom_site_fract_x
_atom_site_fract_y
_atom_site_fract_z
Ni1 Ni 0.83756(3) 0.60145(2) 0.450435(17)
O1 O 0.83277(16) 0.58239(15) 0.58210(10)
O2 O 0.64145(14) 0.60424(15) 0.51337(10)
O3 O 0.80133(19) 0.62692(15) 0.32531(11)
O4 O 0.7361(3) 0.8195(2) 0.31343(13)
N1 N 1.04430(17) 0.58973(17) 0.42929(12)
N2 N 1.3550(2) 0.70041(17) 0.53038(13)
N3 N 0.81297(18) 0.41582(17) 0.43323(12)
N4 N 0.5795(4) 0.2213(3) 0.3194(2)
C1 C 1.13208(19) 0.63393(18) 0.48508(14)
H1 H 1.0988 0.6607 0.5366
C2 C 1.2716(2) 0.6421(2) 0.47002(14)
C3 C 1.3200(2) 0.5990(2) 0.39426(16)
H2 H 1.4123 0.6037 0.3816
C4 C 1.2297(3) 0.5488(3) 0.33748(19)
H3 H 1.2609 0.5168 0.2869
C5 C 1.0928(3) 0.5466(3) 0.35652(17)
H4 H 1.0322 0.5141 0.3176
C6 C 0.7135(3) 0.3768(2) 0.38342(16)
H5 H 0.6597 0.4337 0.3560
C7 C 0.6859(3) 0.2533(2) 0.37038(16)
C8 C 0.7669(3) 0.1710(3) 0.4121(2)
H6 H 0.7520 0.0884 0.4055
C9 C 0.8694(4) 0.2112(3) 0.4634(2)
H7 H 0.9252 0.1559 0.4910
C10 C 0.8900(3) 0.3349(2) 0.47422(19)
H8 H 0.9581 0.3617 0.5103
C11 C 0.7041(2) 0.5949(2) 0.58259(14)
C12 C 0.6292(3) 0.6042(3) 0.66445(17)
H9 H 0.6178 0.6880 0.6791
H10 H 0.6802 0.5640 0.7077
H11 H 0.5415 0.5667 0.6590
C13 C 0.7689(3) 0.7183(2) 0.28293(16)
C14 C 0.7793(5) 0.7088(3) 0.18851(19)
H12 H 0.8679 0.6792 0.1734
H13 H 0.7655 0.7872 0.1639
H14 H 0.7111 0.6539 0.1681
H15 H 1.433(3) 0.675(3) 0.5250(19)
H16 H 1.342(4) 0.679(3) 0.588(3)
H17 H 0.529(6) 0.270(5) 0.289(4)
H18 H 0.567(5) 0.147(5) 0.304(3)
Ni1B Ni 1.33756(3) 0.89855(2) 0.549565(17)
N2B N 0.8550(2) 0.79959(17) 0.46962(13)
H15B H 0.933(3) 0.825(3) 0.4750(19)
H16B H 0.842(4) 0.821(3) 0.412(3)
O5 O 0.5096(2) -0.0416(2) 0.28447(15)
H19 H 0.574(4) -0.077(3) 0.296(2)
H20 H 0.446(4) -0.055(3) 0.325(3)
loop_
_geom_bond_atom_site_label_1
_geom_bond_atom_site_label_2
_geom_bond_site_symmetry_1
_geom_bond_site_symmetry_2
Ni1 O1 1_555 1_555
O1 C11 1_555 1_555
O2 Ni1 1_555 1_555
O3 Ni1 1_555 1_555
O4 C13 1_555 1_555
O5 H19 1_555 1_555
N1 Ni1 1_555 1_555
N2 C2 1_555 1_555
N3 Ni1 1_555 1_555
N4 C7 1_555 1_555
C1 N1 1_555 1_555
H1 C1 1_555 1_555
C2 C1 1_555 1_555
C3 C2 1_555 1_555
H2 C3 1_555 1_555
C4 C3 1_555 1_555
H3 C4 1_555 1_555
C5 N1 1_555 1_555
H4 C5 1_555 1_555
C6 N3 1_555 1_555
H5 C6 1_555 1_555
C7 C6 1_555 1_555
C8 C7 1_555 1_555
H6 C8 1_555 1_555
C9 C8 1_555 1_555
H7 C9 1_555 1_555
C10 N3 1_555 1_555
H8 C10 1_555 1_555
C11 O2 1_555 1_555
C12 C11 1_555 1_555
H9 C12 1_555 1_555
H10 C12 1_555 1_555
H11 C12 1_555 1_555
C13 O3 1_555 1_555
C14 C13 1_555 1_555
H12 C14 1_555 1_555
H13 C14 1_555 1_555
H14 C14 1_555 1_555
H15 N2 1_555 1_555
H16 N2 1_555 1_555
H17 N4 1_555 1_555
H18 N4 1_555 1_555
H20 O5 1_555 1_555
Ni1B N2 1_555 1_555
N2B Ni1 1_555 1_555
H15B N2B 1_555 1_555
H16B N2B 1_555 1_555
C4 C5 1_555 1_555
C9 C10 1_555 1_555

#END
