
#######################################################################
#
#                 Cambridge Crystallographic Data Centre
#                                CCDC 
#
#######################################################################
#
# If this CIF has been generated from an entry in the Cambridge 
# Structural Database, then it will include bibliographic, chemical, 
# crystal, experimental, refinement or atomic coordinate data resulting 
# from the CCDC's data processing and validation procedures.
#
#######################################################################

data_NASLIC
_symmetry_cell_setting           monoclinic
_symmetry_space_group_name_H-M   'P 21/c'
_symmetry_Int_Tables_number      14
_space_group_name_Hall           '-P 2ybc'
loop_
_symmetry_equiv_pos_site_id
_symmetry_equiv_pos_as_xyz
1 x,y,z
2 -x,1/2+y,1/2-z
3 -x,-y,-z
4 x,1/2-y,1/2+z
_cell_length_a                   8.962(2)
_cell_length_b                   15.319(3)
_cell_length_c                   17.133(3)
_cell_angle_alpha                90
_cell_angle_beta                 94.31(3)
_cell_angle_gamma                90
_cell_volume                     2345.52
loop_
_atom_site_label
_atom_site_type_symbol
_atom_site_fract_x
_atom_site_fract_y
_atom_site_fract_z
Br1 Br 0.2783(3) 0.8532(2) 0.0726(2)
Br2 Br 0.5062(4) 0.6871(2) -0.0474(2)
Br3 Br 0.7876(3) 0.6188(2) 0.1274(1)
Br4 Br 0.9889(4) 0.7100(3) -0.0516(2)
C1 C 0.672(2) 0.839(2) 0.116(1)
C2 C 0.711(3) 0.901(2) 0.057(1)
C3 C 0.834(3) 0.959(2) 0.074(1)
C4 C 0.894(1) 0.968(2) 0.153(1)
C5 C 0.844(3) 0.912(2) 0.211(1)
C6 C 0.733(3) 0.851(2) 0.194(1)
C7 C 0.644(3) 0.896(2) -0.026(1)
C8 C 1.013(3) 1.033(2) 0.170(1)
C9 C 0.679(3) 0.802(2) 0.259(1)
C10 C 1.180(3) 0.650(2) 0.154(1)
C11 C 1.236(3) 0.571(2) 0.124(1)
C12 C 1.363(3) 0.535(2) 0.160(1)
C13 C 1.417(3) 0.565(2) 0.232(1)
C14 C 1.361(3) 0.633(2) 0.266(1)
C15 C 1.247(3) 0.679(2) 0.226(1)
C16 C 1.178(3) 0.536(2) 0.045(1)
C17 C 1.551(3) 0.516(2) 0.275(1)
C18 C 1.185(3) 0.757(2) 0.265(2)
H1 H 0.873 0.993 0.033
H2 H 0.891 0.916 0.263
H3 H 0.684 0.943 -0.055
H4 H 0.670 0.842 -0.049
H5 H 0.537 0.901 -0.028
H6 H 1.043 1.031 0.225
H7 H 1.097 1.019 0.140
H8 H 0.977 1.090 0.156
H9 H 0.733 0.817 0.307
H10 H 0.575 0.816 0.262
H11 H 0.689 0.741 0.249
H12 H 1.406 0.484 0.137
H13 H 1.402 0.652 0.317
H14 H 1.232 0.483 0.034
H15 H 1.074 0.522 0.047
H16 H 1.191 0.578 0.005
H17 H 1.579 0.547 0.323
H18 H 1.518 0.458 0.287
H19 H 1.635 0.512 0.244
H20 H 1.241 0.768 0.314
H21 H 1.192 0.807 0.231
H22 H 1.082 0.748 0.275
Bi1 Bi 0.5106(1) 0.73059(7) 0.10060(6)
Bi2 Bi 1.0079(1) 0.74241(8) 0.09820(6)
Br1_2 Br 1.2783(3) 0.8532(2) 0.0726(2)
Bi1_2 Bi 1.5106(1) 0.73059(7) 0.10060(6)
loop_
_geom_bond_atom_site_label_1
_geom_bond_atom_site_label_2
_geom_bond_site_symmetry_1
_geom_bond_site_symmetry_2
Br1 Bi1 1_555 1_555
Br2 Bi1 1_555 1_555
Br3 Bi1 1_555 1_555
Br4 Bi2 1_555 1_555
C1 C2 1_555 1_555
C2 C3 1_555 1_555
C3 C4 1_555 1_555
C4 C5 1_555 1_555
C5 C6 1_555 1_555
C6 C1 1_555 1_555
C7 C2 1_555 1_555
C8 C4 1_555 1_555
C9 C6 1_555 1_555
C10 C11 1_555 1_555
C11 C12 1_555 1_555
C12 C13 1_555 1_555
C13 C14 1_555 1_555
C14 C15 1_555 1_555
C15 C10 1_555 1_555
C16 C11 1_555 1_555
C17 C13 1_555 1_555
C18 C15 1_555 1_555
H1 C3 1_555 1_555
H2 C5 1_555 1_555
H3 C7 1_555 1_555
H4 C7 1_555 1_555
H5 C7 1_555 1_555
H6 C8 1_555 1_555
H7 C8 1_555 1_555
H8 C8 1_555 1_555
H9 C9 1_555 1_555
H10 C9 1_555 1_555
H11 C9 1_555 1_555
H12 C12 1_555 1_555
H13 C14 1_555 1_555
H14 C16 1_555 1_555
H15 C16 1_555 1_555
H16 C16 1_555 1_555
H17 C17 1_555 1_555
H18 C17 1_555 1_555
H19 C17 1_555 1_555
H20 C18 1_555 1_555
H21 C18 1_555 1_555
H22 C18 1_555 1_555
Bi1 C1 1_555 1_555
Bi2 Br3 1_555 1_555
Br1_2 Bi2 1_555 1_555
Bi1_2 Br1_2 1_555 1_555
C10 Bi2 1_555 1_555

#END
