
#######################################################################
#
#                 Cambridge Crystallographic Data Centre
#                                CCDC 
#
#######################################################################
#
# If this CIF has been generated from an entry in the Cambridge 
# Structural Database, then it will include bibliographic, chemical, 
# crystal, experimental, refinement or atomic coordinate data resulting 
# from the CCDC's data processing and validation procedures.
#
#######################################################################

data_NASMEB
_symmetry_cell_setting           triclinic
_symmetry_space_group_name_H-M   'P -1'
_symmetry_Int_Tables_number      2
_space_group_name_Hall           '-P 1'
loop_
_symmetry_equiv_pos_site_id
_symmetry_equiv_pos_as_xyz
1 x,y,z
2 -x,-y,-z
_cell_length_a                   10.1790(6)
_cell_length_b                   10.9184(7)
_cell_length_c                   13.8704(8)
_cell_angle_alpha                78.682(1)
_cell_angle_beta                 79.271(2)
_cell_angle_gamma                86.079(1)
_cell_volume                     1484.32
loop_
_atom_site_label
_atom_site_type_symbol
_atom_site_fract_x
_atom_site_fract_y
_atom_site_fract_z
Mn1 Mn 0.0000 0.5000 0.5000
Eu1 Eu -0.68011(3) 0.92334(2) 1.296640(19)
C1 C -0.4049(6) 0.9009(6) 1.2142(5)
C2 C -0.2620(7) 0.8855(6) 1.1669(5)
C3 C -0.1564(6) 0.8959(6) 1.2143(5)
H1 H -0.1734 0.9132 1.2785
C4 C -0.0273(6) 0.8810(6) 1.1678(5)
C5 C 0.0004(6) 0.8545(6) 1.0720(4)
H2 H 0.0883 0.8471 1.0395
C6 C -0.1061(6) 0.8392(6) 1.0252(5)
C7 C -0.2357(6) 0.8583(5) 1.0706(4)
H3 H -0.3059 0.8531 1.0373
C8 C 0.0921(6) 0.8932(5) 1.2156(5)
C9 C 0.0039(7) 0.7061(7) 0.9111(5)
C10 C 0.0088(6) 0.6661(6) 0.8134(5)
C11 C 0.0149(7) 0.7476(6) 0.7223(5)
H4 H 0.0121 0.8336 0.7190
C12 C 0.0253(8) 0.6976(7) 0.6360(5)
H5 H 0.0347 0.7521 0.5747
C13 C 0.0160(8) 0.4967(7) 0.7257(5)
H6 H 0.0149 0.4112 0.7274
C14 C 0.0109(8) 0.5381(7) 0.8153(6)
H7 H 0.0091 0.4813 0.8750
C15 C 0.2719(6) 0.6051(6) 0.3530(4)
C16 C 0.3000(6) 0.5281(6) 0.2731(4)
C17 C 0.3230(6) 0.5828(6) 0.1718(5)
H8 H 0.3296 0.6691 0.1533
C18 C 0.3364(6) 0.5106(6) 0.0985(4)
C19 C 0.3357(7) 0.3813(6) 0.1258(5)
H9 H 0.3477 0.3319 0.0771
C20 C 0.3169(6) 0.3253(6) 0.2274(4)
C21 C 0.2987(6) 0.3986(6) 0.2998(4)
H10 H 0.2856 0.3609 0.3669
C22 C 0.3128(6) 0.1893(6) 0.2525(5)
C23 C 0.3334(7) 0.5191(7) -0.0793(5)
C24 C 0.3482(7) 0.6023(6) -0.1812(5)
C25 C 0.3479(8) 0.7311(7) -0.1990(6)
H11 H 0.3440 0.7742 -0.1469
C26 C 0.3537(8) 0.7955(8) -0.2977(5)
H12 H 0.3540 0.8823 -0.3097
C27 C 0.3592(9) 0.6145(9) -0.3572(5)
H13 H 0.3626 0.5741 -0.4108
C28 C 0.3547(9) 0.5433(7) -0.2634(6)
H14 H 0.3560 0.4566 -0.2544
N1 N -0.0819(5) 0.8021(6) 0.9303(4)
H15 H -0.1229 0.8418 0.8841
N2 N 0.0223(6) 0.5744(6) 0.6373(4)
N3 N 0.3544(5) 0.5708(5) -0.0028(4)
H16 H 0.3808 0.6464 -0.0169
N4 N 0.3588(7) 0.7387(6) -0.3747(5)
O1 O -0.4379(5) 0.9012(5) 1.3080(4)
O2 O -0.4945(5) 0.9140(6) 1.1621(4)
O3 O 0.0725(5) 0.9052(5) 1.3079(4)
O4 O 0.2055(5) 0.8887(5) 1.1663(4)
O5 O 0.0762(6) 0.6527(5) 0.9686(4)
O6 O 0.3214(6) 0.7121(4) 0.3335(4)
O7 O 0.1994(5) 0.5626(5) 0.4334(4)
O8 O 0.3259(5) 0.1307(5) 0.3390(4)
O9 O 0.2958(6) 0.1263(4) 0.1891(4)
O10 O 0.3058(8) 0.4117(5) -0.0713(4)
O11 O 0.0707(5) 0.3101(5) 0.5693(4)
H17 H 0.0119 0.2546 0.5862
H18 H 0.1475 0.2869 0.5417
O12 O -0.7192(6) 0.9023(5) 1.4739(4)
H19 H -0.6589 0.8552 1.4983
H20 H -0.7187 0.9750 1.4872
Eu1A Eu 0.68011(3) 0.07666(2) -0.296640(19)
Eu1_2 Eu 0.31989(3) 0.92334(2) 1.296640(19)
Eu1_3 Eu 0.31989(3) 0.92334(2) 0.296640(19)
Eu1_4 Eu 0.31989(3) -0.07666(2) 0.296640(19)
Eu1A_2 Eu -0.31989(3) 0.07666(2) -0.296640(19)
Eu1A_3 Eu -0.31989(3) 0.07666(2) 0.703360(19)
Eu1A_4 Eu -0.31989(3) 1.07666(2) 0.703360(19)
C1A C 0.4049(6) 0.0991(6) -0.2142(5)
C2A C 0.2620(7) 0.1145(6) -0.1669(5)
C3A C 0.1564(6) 0.1041(6) -0.2143(5)
H1A H 0.1734 0.0868 -0.2785
C4A C 0.0273(6) 0.1190(6) -0.1678(5)
C5A C -0.0004(6) 0.1455(6) -0.0720(4)
H2A H -0.0883 0.1529 -0.0395
C6A C 0.1061(6) 0.1608(6) -0.0252(5)
C7A C 0.2357(6) 0.1417(5) -0.0706(4)
H3A H 0.3059 0.1469 -0.0373
C8A C -0.0921(6) 0.1068(5) -0.2156(5)
C9A C -0.0039(7) 0.2939(7) 0.0889(5)
C10A C -0.0088(6) 0.3339(6) 0.1866(5)
C11A C -0.0149(7) 0.2524(6) 0.2777(5)
H4A H -0.0121 0.1664 0.2810
C12A C -0.0253(8) 0.3024(7) 0.3640(5)
H5A H -0.0347 0.2479 0.4253
C13A C -0.0160(8) 0.5033(7) 0.2743(5)
H6A H -0.0149 0.5888 0.2726
C14A C -0.0109(8) 0.4619(7) 0.1847(6)
H7A H -0.0091 0.5187 0.1250
C15A C -0.2719(6) 0.3949(6) 0.6470(4)
C16A C -0.3000(6) 0.4719(6) 0.7269(4)
C17A C -0.3230(6) 0.4172(6) 0.8282(5)
H8A H -0.3296 0.3309 0.8467
C18A C -0.3364(6) 0.4894(6) 0.9015(4)
C19A C -0.3357(7) 0.6187(6) 0.8742(5)
H9A H -0.3477 0.6681 0.9229
C20A C -0.3169(6) 0.6747(6) 0.7726(4)
C21A C -0.2987(6) 0.6014(6) 0.7002(4)
H10A H -0.2856 0.6391 0.6331
C22A C -0.3128(6) 0.8107(6) 0.7475(5)
C23A C -0.3334(7) 0.4809(7) 1.0793(5)
C24A C -0.3482(7) 0.3977(6) 1.1812(5)
C25A C -0.3479(8) 0.2689(7) 1.1990(6)
H11A H -0.3440 0.2258 1.1469
C26A C -0.3537(8) 0.2045(8) 1.2977(5)
H12A H -0.3540 0.1177 1.3097
C27A C -0.3592(9) 0.3855(9) 1.3572(5)
H13A H -0.3626 0.4259 1.4108
C28A C -0.3547(9) 0.4567(7) 1.2634(6)
H14A H -0.3560 0.5434 1.2544
N1A N 0.0819(5) 0.1979(6) 0.0697(4)
H15A H 0.1229 0.1582 0.1159
N2A N -0.0223(6) 0.4256(6) 0.3627(4)
N3A N -0.3544(5) 0.4292(5) 1.0028(4)
H16A H -0.3808 0.3536 1.0169
N4A N -0.3588(7) 0.2613(6) 1.3747(5)
O1A O 0.4379(5) 0.0988(5) -0.3080(4)
O2A O 0.4945(5) 0.0860(6) -0.1621(4)
O3A O -0.0725(5) 0.0948(5) -0.3079(4)
O3_2 O -0.9275(5) 0.9052(5) 1.3079(4)
O3A_2 O 0.9275(5) 0.0948(5) -0.3079(4)
O4A O -0.2055(5) 0.1113(5) -0.1663(4)
O4_2 O -0.7945(5) 0.8887(5) 1.1663(4)
O4A_2 O 0.7945(5) 0.1113(5) -0.1663(4)
O5A O -0.0762(6) 0.3473(5) 0.0314(4)
O6A O -0.3214(6) 0.2879(4) 0.6665(4)
O6_2 O -0.6786(6) 0.7121(4) 1.3335(4)
O6A_2 O 0.6786(6) 0.2879(4) -0.3335(4)
O7A O -0.1994(5) 0.4374(5) 0.5666(4)
O8A O -0.3259(5) 0.8693(5) 0.6610(4)
O8_2 O -0.6741(5) 1.1307(5) 1.3390(4)
O8A_2 O 0.6741(5) -0.1307(5) -0.3390(4)
O9A O -0.2958(6) 0.8737(4) 0.8109(4)
O9_2 O -0.7042(6) 1.1263(4) 1.1891(4)
O9A_2 O 0.7042(6) -0.1263(4) -0.1891(4)
O10A O -0.3058(8) 0.5883(5) 1.0713(4)
O11A O -0.0707(5) 0.6899(5) 0.4307(4)
H17A H -0.0119 0.7454 0.4138
H18A H -0.1475 0.7131 0.4583
O12A O 0.7192(6) 0.0977(5) -0.4739(4)
H19A H 0.6589 0.1448 -0.4983
H20A H 0.7187 0.0250 -0.4872
O13 O 0.2978(7) 0.1562(8) 0.5348(5)
H21 H 0.3561 0.1309 0.5716
H22 H 0.3263 0.1393 0.4771
O14 O 0.4140(10) 0.8410(6) 0.9852(5)
H23 H 0.4339 0.9063 0.9413
H24 H 0.4382 0.8494 1.0389
loop_
_geom_bond_atom_site_label_1
_geom_bond_atom_site_label_2
_geom_bond_site_symmetry_1
_geom_bond_site_symmetry_2
Mn1 N2 1_555 1_555
Eu1 O1 1_555 1_555
C1 C2 1_555 1_555
C2 C3 1_555 1_555
C3 H1 1_555 1_555
C4 C3 1_555 1_555
C5 C4 1_555 1_555
H2 C5 1_555 1_555
C6 C5 1_555 1_555
C7 C2 1_555 1_555
H3 C7 1_555 1_555
C8 C4 1_555 1_555
C9 C10 1_555 1_555
C10 C11 1_555 1_555
C11 H4 1_555 1_555
C12 C11 1_555 1_555
H5 C12 1_555 1_555
C13 H6 1_555 1_555
C14 C10 1_555 1_555
H7 C14 1_555 1_555
C15 C16 1_555 1_555
C16 C17 1_555 1_555
C17 H8 1_555 1_555
C18 C17 1_555 1_555
C19 C18 1_555 1_555
H9 C19 1_555 1_555
C20 C19 1_555 1_555
C21 C16 1_555 1_555
H10 C21 1_555 1_555
C22 C20 1_555 1_555
C23 C24 1_555 1_555
C24 C25 1_555 1_555
C25 H11 1_555 1_555
C26 C25 1_555 1_555
H12 C26 1_555 1_555
C27 H13 1_555 1_555
C28 C24 1_555 1_555
H14 C28 1_555 1_555
N1 C6 1_555 1_555
H15 N1 1_555 1_555
N2 C12 1_555 1_555
N3 C18 1_555 1_555
H16 N3 1_555 1_555
N4 C26 1_555 1_555
O1 C1 1_555 1_555
O2 Eu1 1_555 1_555
O3 C8 1_555 1_555
O4 C8 1_555 1_555
O5 C9 1_555 1_555
O6 C15 1_555 1_555
O7 Mn1 1_555 1_555
O8 C22 1_555 1_555
O9 C22 1_555 1_555
O10 C23 1_555 1_555
O11 Mn1 1_555 1_555
H17 O11 1_555 1_555
H18 O11 1_555 1_555
O12 Eu1 1_555 1_555
H19 O12 1_555 1_555
H20 O12 1_555 1_555
O13 H21 1_555 1_555
H22 O13 1_555 1_555
O14 H23 1_555 1_555
H24 O14 1_555 1_555
Eu1A O1A 1_555 1_555
Eu1_2 O3 1_555 1_555
Eu1_3 O6 1_555 1_555
Eu1_4 O8 1_555 1_555
Eu1A_2 O3A 1_555 1_555
Eu1A_3 O6A 1_555 1_555
Eu1A_4 O8A 1_555 1_555
C1A C2A 1_555 1_555
C2A C3A 1_555 1_555
C3A H1A 1_555 1_555
C4A C3A 1_555 1_555
C5A C4A 1_555 1_555
H2A C5A 1_555 1_555
C6A C5A 1_555 1_555
C7A C2A 1_555 1_555
H3A C7A 1_555 1_555
C8A C4A 1_555 1_555
C9A C10A 1_555 1_555
C10A C11A 1_555 1_555
C11A H4A 1_555 1_555
C12A C11A 1_555 1_555
H5A C12A 1_555 1_555
C13A H6A 1_555 1_555
C14A C10A 1_555 1_555
H7A C14A 1_555 1_555
C15A C16A 1_555 1_555
C16A C17A 1_555 1_555
C17A H8A 1_555 1_555
C18A C17A 1_555 1_555
C19A C18A 1_555 1_555
H9A C19A 1_555 1_555
C20A C19A 1_555 1_555
C21A C16A 1_555 1_555
H10A C21A 1_555 1_555
C22A C20A 1_555 1_555
C23A C24A 1_555 1_555
C24A C25A 1_555 1_555
C25A H11A 1_555 1_555
C26A C25A 1_555 1_555
H12A C26A 1_555 1_555
C27A H13A 1_555 1_555
C28A C24A 1_555 1_555
H14A C28A 1_555 1_555
N1A C6A 1_555 1_555
H15A N1A 1_555 1_555
N2A Mn1 1_555 1_555
N3A C18A 1_555 1_555
H16A N3A 1_555 1_555
N4A C26A 1_555 1_555
O1A C1A 1_555 1_555
O2A Eu1A 1_555 1_555
O3A C8A 1_555 1_555
O3_2 Eu1 1_555 1_555
O3A_2 Eu1A 1_555 1_555
O4A Eu1A_2 1_555 1_555
O4_2 Eu1 1_555 1_555
O4A_2 Eu1A 1_555 1_555
O5A C9A 1_555 1_555
O6A C15A 1_555 1_555
O6_2 Eu1 1_555 1_555
O6A_2 Eu1A 1_555 1_555
O7A Mn1 1_555 1_555
O8A C22A 1_555 1_555
O8_2 Eu1 1_555 1_555
O8A_2 Eu1A 1_555 1_555
O9A Eu1A_4 1_555 1_555
O9_2 Eu1 1_555 1_555
O9A_2 Eu1A 1_555 1_555
O10A C23A 1_555 1_555
O11A Mn1 1_555 1_555
H17A O11A 1_555 1_555
H18A O11A 1_555 1_555
O12A Eu1A 1_555 1_555
H19A O12A 1_555 1_555
H20A O12A 1_555 1_555
C1 O2 1_555 1_555
C6 C7 1_555 1_555
C9 N1 1_555 1_555
C13 C14 1_555 1_555
C13 N2 1_555 1_555
C15 O7 1_555 1_555
C20 C21 1_555 1_555
C23 N3 1_555 1_555
C27 C28 1_555 1_555
C27 N4 1_555 1_555
O4 Eu1_2 1_555 1_555
O9 Eu1_4 1_555 1_555
C1A O2A 1_555 1_555
C6A C7A 1_555 1_555
C8A O4A 1_555 1_555
C9A N1A 1_555 1_555
C12A N2A 1_555 1_555
C13A C14A 1_555 1_555
C13A N2A 1_555 1_555
C15A O7A 1_555 1_555
C20A C21A 1_555 1_555
C22A O9A 1_555 1_555
C23A N3A 1_555 1_555
C27A C28A 1_555 1_555
C27A N4A 1_555 1_555

#END
