
#######################################################################
#
#                 Cambridge Crystallographic Data Centre
#                                CCDC 
#
#######################################################################
#
# If this CIF has been generated from an entry in the Cambridge 
# Structural Database, then it will include bibliographic, chemical, 
# crystal, experimental, refinement or atomic coordinate data resulting 
# from the CCDC's data processing and validation procedures.
#
#######################################################################

data_NASMAX
_symmetry_cell_setting           monoclinic
_symmetry_space_group_name_H-M   'P 21/n'
_symmetry_Int_Tables_number      14
_space_group_name_Hall           '-P 2yn'
loop_
_symmetry_equiv_pos_site_id
_symmetry_equiv_pos_as_xyz
1 x,y,z
2 1/2-x,1/2+y,1/2-z
3 -x,-y,-z
4 1/2+x,1/2-y,1/2+z
_cell_length_a                   12.142(2)
_cell_length_b                   10.509(2)
_cell_length_c                   13.907(3)
_cell_angle_alpha                90
_cell_angle_beta                 106.101(4)
_cell_angle_gamma                90
_cell_volume                     1704.93
loop_
_atom_site_label
_atom_site_type_symbol
_atom_site_fract_x
_atom_site_fract_y
_atom_site_fract_z
Ag1 Ag 0.17103(3) 0.65091(3) -0.23318(3)
O1 O 0.3196(3) 0.5100(3) 0.2854(2)
O2 O 0.5395(3) 0.9950(3) 0.7439(2)
N1 N 0.2277(3) 0.6528(4) -0.0678(3)
C1 C 0.2951(4) 0.5572(4) -0.0189(3)
H1 H 0.3217 0.4951 -0.0569
C2 C 0.3267(4) 0.5466(4) 0.0842(3)
H2 H 0.3727 0.4773 0.1161
C3 C 0.2908(4) 0.6376(4) 0.1404(3)
C4 C 0.2237(4) 0.7380(4) 0.0922(3)
H3 H 0.1987 0.8028 0.1289
C5 C 0.1939(4) 0.7403(4) -0.0130(3)
H4 H 0.1471 0.8080 -0.0467
C6 C 0.3201(4) 0.6166(5) 0.2525(3)
N2 N 0.3433(4) 0.7244(4) 0.3073(3)
H5 H 0.3474 0.7998 0.2778
C7 C 0.3800(4) 0.7342(4) 0.4125(3)
C8 C 0.4036(4) 0.6312(4) 0.4774(3)
H6 H 0.3947 0.5471 0.4514
C9 C 0.4403(4) 0.6505(5) 0.5800(3)
H7 H 0.4569 0.5795 0.6239
C10 C 0.4529(4) 0.7726(4) 0.6188(3)
C11 C 0.4322(4) 0.8771(4) 0.5554(3)
H8 H 0.4422 0.9612 0.5816
C12 C 0.3963(4) 0.8562(5) 0.4523(3)
H9 H 0.3827 0.9272 0.4083
N3 N 0.4897(3) 0.7846(4) 0.7249(3)
H10 H 0.4843 0.7119 0.7575
C13 C 0.5274(4) 0.8897(4) 0.7792(3)
C14 C 0.5576(4) 0.8739(4) 0.8920(3)
C15 C 0.5169(4) 0.7757(4) 0.9407(3)
H11 H 0.4685 0.7113 0.9036
C16 C 0.5490(4) 0.7748(5) 1.0445(3)
H12 H 0.5205 0.7086 1.0775
N4 N 0.6184(3) 0.8626(4) 1.1008(3)
C17 C 0.6565(4) 0.9564(4) 1.0528(3)
H13 H 0.7054 1.0196 1.0912
C18 C 0.6274(4) 0.9645(4) 0.9499(3)
H14 H 0.6555 1.0330 0.9188
Ag1C Ag 0.67103(3) 0.84909(3) 1.26682(3)
N4C N 0.1184(3) 0.6374(4) -0.3992(3)
N5 N 0.6316(3) 0.5557(4) 0.2374(3)
O3 O 0.6034(3) 0.4437(3) 0.2066(2)
O4 O 0.5646(3) 0.6218(3) 0.2703(2)
O5 O 0.7257(3) 0.5992(3) 0.2328(2)
loop_
_geom_bond_atom_site_label_1
_geom_bond_atom_site_label_2
_geom_bond_site_symmetry_1
_geom_bond_site_symmetry_2
Ag1 N1 1_555 1_555
O1 C6 1_555 1_555
O2 C13 1_555 1_555
N1 C1 1_555 1_555
C1 H1 1_555 1_555
C2 C1 1_555 1_555
H2 C2 1_555 1_555
C3 C2 1_555 1_555
C4 C3 1_555 1_555
H3 C4 1_555 1_555
C5 N1 1_555 1_555
H4 C5 1_555 1_555
C6 C3 1_555 1_555
N2 C6 1_555 1_555
H5 N2 1_555 1_555
C7 N2 1_555 1_555
C8 C7 1_555 1_555
H6 C8 1_555 1_555
C9 C8 1_555 1_555
H7 C9 1_555 1_555
C10 C9 1_555 1_555
C11 C10 1_555 1_555
H8 C11 1_555 1_555
C12 C7 1_555 1_555
H9 C12 1_555 1_555
N3 C10 1_555 1_555
H10 N3 1_555 1_555
C13 N3 1_555 1_555
C14 C13 1_555 1_555
C15 C14 1_555 1_555
H11 C15 1_555 1_555
C16 C15 1_555 1_555
H12 C16 1_555 1_555
N4 C16 1_555 1_555
C17 N4 1_555 1_555
H13 C17 1_555 1_555
C18 C14 1_555 1_555
H14 C18 1_555 1_555
N5 O3 1_555 1_555
O4 N5 1_555 1_555
O5 N5 1_555 1_555
Ag1C N4 1_555 1_555
N4C Ag1 1_555 1_555
C4 C5 1_555 1_555
C11 C12 1_555 1_555
C17 C18 1_555 1_555

#END
