
#######################################################################
#
#                 Cambridge Crystallographic Data Centre
#                                CCDC 
#
#######################################################################
#
# If this CIF has been generated from an entry in the Cambridge 
# Structural Database, then it will include bibliographic, chemical, 
# crystal, experimental, refinement or atomic coordinate data resulting 
# from the CCDC's data processing and validation procedures.
#
#######################################################################

data_NASZUC
_symmetry_cell_setting           triclinic
_symmetry_space_group_name_H-M   'P -1'
_symmetry_Int_Tables_number      2
_space_group_name_Hall           '-P 1'
loop_
_symmetry_equiv_pos_site_id
_symmetry_equiv_pos_as_xyz
1 x,y,z
2 -x,-y,-z
_cell_length_a                   11.030(3)
_cell_length_b                   11.335(3)
_cell_length_c                   15.285(3)
_cell_angle_alpha                77.15(2)
_cell_angle_beta                 85.42(2)
_cell_angle_gamma                78.13(2)
_cell_volume                     1822.14
loop_
_atom_site_label
_atom_site_type_symbol
_atom_site_fract_x
_atom_site_fract_y
_atom_site_fract_z
Zn1 Zn 0.25184(9) 1.23865(7) 0.20769(6)
O1 O 0.4067(5) 1.1787(5) 0.2894(4)
O2 O 0.1321(6) 1.2286(6) 0.3232(4)
O3 O 0.0960(6) 1.2939(5) 0.1264(4)
O4 O 0.3720(6) 1.2526(5) 0.0912(4)
N1 N 0.2498(6) 1.0510(5) 0.2088(4)
C1 C 0.2584(8) 0.9644(7) 0.2840(5)
C2 C 0.2458(9) 1.0133(7) 0.1331(5)
C3 C 0.2606(8) 0.8423(7) 0.2873(5)
C4 C 0.2478(8) 0.8937(7) 0.1292(5)
C5 C 0.2557(7) 0.8038(6) 0.2077(5)
C6 C 0.2580(7) 0.6722(6) 0.2070(5)
C7 C 0.2803(9) 0.5802(7) 0.2824(5)
C8 C 0.2366(8) 0.6350(6) 0.1295(5)
C9 C 0.2798(9) 0.4598(7) 0.2797(5)
C10 C 0.2371(8) 0.5149(7) 0.1316(5)
N2 N 0.2578(6) 1.4251(5) 0.2057(4)
H1 H 0.4749(5) 1.2033(5) 0.2766(4)
H2 H 0.4014(5) 1.1610(5) 0.3464(4)
H3 H 0.1203(6) 1.2569(6) 0.3705(4)
H4 H 0.0609(6) 1.2298(6) 0.3056(4)
H5 H 0.0934(6) 1.3041(5) 0.0698(4)
H6 H 0.0301(6) 1.2693(5) 0.1474(4)
H7 H 0.4300(6) 1.2933(5) 0.0822(4)
H8 H 0.3824(6) 1.2118(5) 0.0498(4)
H9 H 0.2634(8) 0.9884(7) 0.3378(5)
H10 H 0.2414(9) 1.0717(7) 0.0795(5)
H11 H 0.2653(8) 0.7859(7) 0.3420(5)
H12 H 0.2439(8) 0.8727(7) 0.0742(5)
H13 H 0.2959(9) 0.5995(7) 0.3359(5)
H14 H 0.2220(8) 0.6930(6) 0.0761(5)
H15 H 0.2956(9) 0.3998(7) 0.3321(5)
H16 H 0.2223(8) 0.4934(7) 0.0787(5)
N2_2 N 0.2578(6) 0.4251(5) 0.2057(4)
Zn1_2 Zn 0.25184(9) 0.23865(7) 0.20769(6)
N3 N 0.6110(8) 0.8668(9) 0.5263(5)
C11 C 0.6625(10) 0.9382(10) 0.4630(7)
C12 C 0.5536(11) 0.7885(12) 0.5034(7)
C13 C 0.6593(9) 0.9378(9) 0.3722(6)
C14 C 0.5433(10) 0.7783(11) 0.4144(6)
C15 C 0.6003(8) 0.8559(9) 0.3468(6)
C16 C 0.5956(8) 0.8464(8) 0.2513(6)
C17 C 0.5938(9) 0.9486(9) 0.1815(6)
C18 C 0.5964(9) 0.7334(10) 0.2280(6)
C19 C 0.5957(10) 0.9325(9) 0.0955(6)
C20 C 0.5961(9) 0.7303(10) 0.1384(7)
N4 N 0.5980(8) 0.8275(8) 0.0714(5)
H17 H 0.7042(10) 0.9933(10) 0.4790(7)
H18 H 0.5173(11) 0.7363(12) 0.5489(7)
H19 H 0.6967(9) 0.9923(9) 0.3292(6)
H20 H 0.5003(10) 0.7224(11) 0.4010(6)
H21 H 0.5914(9) 1.0263(9) 0.1930(6)
H22 H 0.5971(9) 0.6621(10) 0.2722(6)
H23 H 0.5953(10) 1.0020(9) 0.0497(6)
H24 H 0.5944(9) 0.6552(10) 0.1238(7)
N5 N 0.9039(9) 0.6807(9) 0.5177(5)
C21 C 0.8624(11) 0.5992(11) 0.4867(7)
C22 C 0.9573(11) 0.7595(12) 0.4589(7)
C23 C 0.8678(10) 0.592(10) 0.3986(7)
C24 C 0.9671(10) 0.7614(10) 0.3676(7)
C25 C 0.9209(8) 0.6773(9) 0.3347(6)
C26 C 0.9231(8) 0.6778(9) 0.2378(6)
C27 C 0.9199(9) 0.5725(10) 0.2073(7)
C28 C 0.9254(9) 0.7859(10) 0.1747(6)
C29 C 0.9168(10) 0.5826(11) 0.1136(7)
C30 C 0.9222(11) 0.7860(12) 0.0857(7)
N6 N 0.9170(8) 0.6852(10) 0.0541(6)
H25 H 0.8265(11) 0.5412(11) 0.5276(7)
H26 H 0.9902(11) 0.8170(12) 0.4796(7)
H27 H 0.8360(10) 0.5322(10) 0.3811(7)
H28 H 1.0051(10) 0.8197(10) 0.3288(7)
H29 H 0.9198(9) 0.4974(10) 0.2471(7)
H30 H 0.9290(9) 0.8581(10) 0.1929(6)
H31 H 0.9144(10) 0.5119(11) 0.0930(7)
H32 H 0.9238(11) 0.8597(12) 0.0445(7)
O5 O 0.5481(10) 0.4006(10) 0.0703(7)
O6 O 0.9324(13) 0.1137(13) 0.3419(9)
O7 O 0.386(2) 0.712(2) 0.7311(12)
N7 N 0.8309(12) 0.1790(12) 0.1189(9)
O8 O 0.830(2) 0.2921(14) 0.1241(11)
O9 O 0.912(2) 0.101(2) 0.1558(12)
O10 O 0.7441(14) 0.1688(14) 0.0764(10)
N8 N 0.271(3) 0.678(2) 0.547(2)
O11 O 0.326(2) 0.607(2) 0.4977(11)
O12 O 0.272(3) 0.644(3) 0.636(2)
O13 O 0.221(4) 0.791(3) 0.520(2)
loop_
_geom_bond_atom_site_label_1
_geom_bond_atom_site_label_2
_geom_bond_site_symmetry_1
_geom_bond_site_symmetry_2
Zn1 O1 1_555 1_555
O1 H1 1_555 1_555
O2 Zn1 1_555 1_555
O3 Zn1 1_555 1_555
O4 Zn1 1_555 1_555
N1 Zn1 1_555 1_555
C1 N1 1_555 1_555
C2 N1 1_555 1_555
C3 C1 1_555 1_555
C4 C2 1_555 1_555
C5 C3 1_555 1_555
C6 C5 1_555 1_555
C7 C6 1_555 1_555
C8 C6 1_555 1_555
C9 C7 1_555 1_555
C10 C8 1_555 1_555
N2 Zn1 1_555 1_555
N3 C11 1_555 1_555
C11 C13 1_555 1_555
C12 N3 1_555 1_555
C13 C15 1_555 1_555
C14 C12 1_555 1_555
C15 C14 1_555 1_555
C16 C15 1_555 1_555
C17 C16 1_555 1_555
C18 C16 1_555 1_555
C19 C17 1_555 1_555
C20 C18 1_555 1_555
N4 C19 1_555 1_555
N5 C21 1_555 1_555
C21 C23 1_555 1_555
C22 N5 1_555 1_555
C23 C25 1_555 1_555
C24 C22 1_555 1_555
C25 C24 1_555 1_555
C26 C25 1_555 1_555
C27 C26 1_555 1_555
C28 C26 1_555 1_555
C29 C27 1_555 1_555
C30 C28 1_555 1_555
N6 C29 1_555 1_555
N7 O8 1_555 1_555
O9 N7 1_555 1_555
O10 N7 1_555 1_555
N8 O11 1_555 1_555
O12 N8 1_555 1_555
O13 N8 1_555 1_555
H2 O1 1_555 1_555
H3 O2 1_555 1_555
H4 O2 1_555 1_555
H5 O3 1_555 1_555
H6 O3 1_555 1_555
H7 O4 1_555 1_555
H8 O4 1_555 1_555
H9 C1 1_555 1_555
H10 C2 1_555 1_555
H11 C3 1_555 1_555
H12 C4 1_555 1_555
H13 C7 1_555 1_555
H14 C8 1_555 1_555
H15 C9 1_555 1_555
H16 C10 1_555 1_555
H17 C11 1_555 1_555
H18 C12 1_555 1_555
H19 C13 1_555 1_555
H20 C14 1_555 1_555
H21 C17 1_555 1_555
H22 C18 1_555 1_555
H23 C19 1_555 1_555
H24 C20 1_555 1_555
H25 C21 1_555 1_555
H26 C22 1_555 1_555
H27 C23 1_555 1_555
H28 C24 1_555 1_555
H29 C27 1_555 1_555
H30 C28 1_555 1_555
H31 C29 1_555 1_555
H32 C30 1_555 1_555
N2_2 C9 1_555 1_555
Zn1_2 N2_2 1_555 1_555
C4 C5 1_555 1_555
C10 N2_2 1_555 1_555
C20 N4 1_555 1_555
C30 N6 1_555 1_555

#END
