
#######################################################################
#
#                 Cambridge Crystallographic Data Centre
#                                CCDC 
#
#######################################################################
#
# If this CIF has been generated from an entry in the Cambridge 
# Structural Database, then it will include bibliographic, chemical, 
# crystal, experimental, refinement or atomic coordinate data resulting 
# from the CCDC's data processing and validation procedures.
#
#######################################################################

data_NASZOW
_symmetry_cell_setting           triclinic
_symmetry_space_group_name_H-M   'P -1'
_symmetry_Int_Tables_number      2
_space_group_name_Hall           '-P 1'
loop_
_symmetry_equiv_pos_site_id
_symmetry_equiv_pos_as_xyz
1 x,y,z
2 -x,-y,-z
_cell_length_a                   10.629(4)
_cell_length_b                   11.391(5)
_cell_length_c                   12.450(5)
_cell_angle_alpha                65.44(1)
_cell_angle_beta                 79.37(1)
_cell_angle_gamma                66.89(1)
_cell_volume                     1260.58
loop_
_atom_site_label
_atom_site_type_symbol
_atom_site_fract_x
_atom_site_fract_y
_atom_site_fract_z
Zn1 Zn 0.26180(7) 0.33295(6) 0.25231(6)
O1 O 0.4068(3) 0.3419(3) 0.1115(3)
O2 O 0.1200(3) 0.3266(3) 0.3931(3)
O3 O 0.4193(3) 0.2243(3) 0.3778(3)
O4 O 0.1036(3) 0.4367(4) 0.1282(3)
N1 N 0.2560(4) 0.5253(4) 0.2462(4)
C1 C 0.1448(5) 0.6121(5) 0.2788(5)
C2 C 0.3679(5) 0.5595(5) 0.2163(5)
C3 C 0.1410(5) 0.7311(5) 0.2843(5)
C4 C 0.3721(5) 0.6775(5) 0.2184(5)
C5 C 0.2572(5) 0.7670(5) 0.2531(4)
C6 C 0.2585(5) 0.8952(5) 0.2573(4)
C7 C 0.1380(6) 1.0016(5) 0.2639(5)
C8 C 0.3797(5) 0.9162(5) 0.2548(5)
C9 C 0.1442(5) 1.1199(5) 0.2643(5)
C10 C 0.3743(5) 1.0378(5) 0.2568(5)
N2 N 0.2596(4) 0.1410(4) 0.2591(4)
H1 H 0.4910(3) 0.2928(3) 0.1099(3)
H2 H 0.3769(3) 0.3615(3) 0.0454(3)
H3 H 0.0333(3) 0.3598(3) 0.3905(3)
H4 H 0.1388(3) 0.2575(3) 0.4575(3)
H5 H 0.5022(3) 0.1896(3) 0.3593(3)
H6 H 0.4051(3) 0.1683(3) 0.4446(3)
H7 H 0.0247(3) 0.4954(4) 0.1307(3)
H8 H 0.1165(3) 0.4415(4) 0.0576(3)
H9 H 0.0655(5) 0.5908(5) 0.2988(5)
H10 H 0.4465(5) 0.5007(5) 0.1930(5)
H11 H 0.0612(5) 0.7875(5) 0.3087(5)
H12 H 0.4523(5) 0.6972(5) 0.1965(5)
H13 H 0.0537(6) 0.9927(5) 0.2680(5)
H14 H 0.4637(5) 0.8485(5) 0.2518(5)
H15 H 0.0622(5) 1.1894(5) 0.2685(5)
H16 H 0.4568(5) 1.0484(5) 0.2565(5)
N2_2 N 0.2596(4) 1.1410(4) 0.2591(4)
Zn1_2 Zn 0.26180(7) 1.33295(6) 0.25231(6)
N3 N 0.1566(5) 0.5666(6) -0.3930(5)
C11 C 0.2250(7) 0.4600(7) -0.4234(6)
C12 C 0.2234(6) 0.6468(7) -0.4025(6)
C13 C 0.3582(5) 0.4304(6) -0.4644(5)
C14 C 0.3585(6) 0.6239(7) -0.4417(6)
C15 C 0.4291(5) 0.5128(6) -0.4762(5)
H17 H 0.1804(7) 0.4014(7) -0.4167(6)
H18 H 0.1773(6) 0.7229(7) -0.3818(6)
H19 H 0.4008(5) 0.3534(6) -0.4843(5)
H20 H 0.4016(6) 0.6823(7) -0.4450(6)
C15A C 0.5709(5) 0.4872(6) -0.5238(5)
C13A C 0.6418(5) 0.5696(6) -0.5356(5)
C11A C 0.7750(7) 0.5400(7) -0.5766(6)
N3A N 0.8434(5) 0.4334(6) -0.6070(5)
C12A C 0.7766(6) 0.3532(7) -0.5975(6)
C14A C 0.6415(6) 0.3761(7) -0.5583(6)
H20A H 0.5984(6) 0.3177(7) -0.5550(6)
H18A H 0.8227(6) 0.2771(7) -0.6182(6)
H17A H 0.8196(7) 0.5986(7) -0.5833(6)
H19A H 0.5992(5) 0.6466(6) -0.5157(5)
N4 N 0.3341(5) -0.1761(5) 0.9116(4)
C16 C 0.2998(7) -0.0540(7) 0.9186(6)
C17 C 0.2349(6) -0.2272(6) 0.9387(5)
C18 C 0.1708(6) 0.0182(6) 0.9516(6)
C19 C 0.1043(5) -0.1638(6) 0.9723(5)
C20 C 0.0693(5) -0.0372(5) 0.9801(5)
H21 H 0.3668(7) -0.0147(7) 0.9002(6)
H22 H 0.2554(6) -0.3125(6) 0.9346(5)
H23 H 0.1528(6) 0.1036(6) 0.9546(6)
H24 H 0.0396(5) -0.2057(6) 0.9899(5)
C20A C -0.0693(5) 0.0372(5) 1.0199(5)
C18A C -0.1708(6) -0.0182(6) 1.0484(6)
C16A C -0.2998(7) 0.0540(7) 1.0814(6)
N4A N -0.3341(5) 0.1761(5) 1.0884(4)
C17A C -0.2349(6) 0.2272(6) 1.0613(5)
C19A C -0.1043(5) 0.1638(6) 1.0277(5)
H24A H -0.0396(5) 0.2057(6) 1.0101(5)
H22A H -0.2554(6) 0.3125(6) 1.0654(5)
H21A H -0.3668(7) 0.0147(7) 1.0998(6)
H23A H -0.1528(6) -0.1036(6) 1.0454(6)
N5 N 0.2428(6) 0.3399(6) -0.1054(5)
O5 O 0.2583(7) 0.4327(6) -0.0884(4)
O6 O 0.3358(5) 0.2512(6) -0.1227(6)
O7 O 0.1281(5) 0.3430(5) -0.1035(7)
N6 N 0.2512(6) 0.0029(6) 0.6070(5)
O8 O 0.1377(5) 0.0837(6) 0.5863(5)
O9 O 0.2785(7) -0.1204(6) 0.6536(5)
O10 O 0.3470(6) 0.0437(6) 0.5842(5)
loop_
_geom_bond_atom_site_label_1
_geom_bond_atom_site_label_2
_geom_bond_site_symmetry_1
_geom_bond_site_symmetry_2
Zn1 O1 1_555 1_555
O1 H1 1_555 1_555
O2 Zn1 1_555 1_555
O3 Zn1 1_555 1_555
O4 Zn1 1_555 1_555
N1 Zn1 1_555 1_555
C1 N1 1_555 1_555
C2 N1 1_555 1_555
C3 C1 1_555 1_555
C4 C2 1_555 1_555
C5 C3 1_555 1_555
C6 C5 1_555 1_555
C7 C6 1_555 1_555
C8 C6 1_555 1_555
C9 C7 1_555 1_555
C10 C8 1_555 1_555
N2 Zn1 1_555 1_555
N3 C11 1_555 1_555
C11 C13 1_555 1_555
C12 N3 1_555 1_555
C13 C15 1_555 1_555
C14 C12 1_555 1_555
C15 C14 1_555 1_555
N4 C16 1_555 1_555
C16 C18 1_555 1_555
C17 N4 1_555 1_555
C18 C20 1_555 1_555
C19 C17 1_555 1_555
C20 C19 1_555 1_555
N5 O5 1_555 1_555
O6 N5 1_555 1_555
O7 N5 1_555 1_555
N6 O8 1_555 1_555
O9 N6 1_555 1_555
O10 N6 1_555 1_555
H2 O1 1_555 1_555
H3 O2 1_555 1_555
H4 O2 1_555 1_555
H5 O3 1_555 1_555
H6 O3 1_555 1_555
H7 O4 1_555 1_555
H8 O4 1_555 1_555
H9 C1 1_555 1_555
H10 C2 1_555 1_555
H11 C3 1_555 1_555
H12 C4 1_555 1_555
H13 C7 1_555 1_555
H14 C8 1_555 1_555
H15 C9 1_555 1_555
H16 C10 1_555 1_555
H17 C11 1_555 1_555
H18 C12 1_555 1_555
H19 C13 1_555 1_555
H20 C14 1_555 1_555
H21 C16 1_555 1_555
H22 C17 1_555 1_555
H23 C18 1_555 1_555
H24 C19 1_555 1_555
N2_2 C9 1_555 1_555
Zn1_2 N2_2 1_555 1_555
C15A C15 1_555 1_555
C13A C15A 1_555 1_555
C11A C13A 1_555 1_555
N3A C11A 1_555 1_555
C12A N3A 1_555 1_555
C14A C15A 1_555 1_555
H20A C14A 1_555 1_555
H18A C12A 1_555 1_555
H17A C11A 1_555 1_555
H19A C13A 1_555 1_555
C20A C20 1_555 1_555
C18A C20A 1_555 1_555
C16A C18A 1_555 1_555
N4A C16A 1_555 1_555
C17A N4A 1_555 1_555
C19A C20A 1_555 1_555
H24A C19A 1_555 1_555
H22A C17A 1_555 1_555
H21A C16A 1_555 1_555
H23A C18A 1_555 1_555
C4 C5 1_555 1_555
C10 N2_2 1_555 1_555
C12A C14A 1_555 1_555
C17A C19A 1_555 1_555

#END
