
#######################################################################
#
#                 Cambridge Crystallographic Data Centre
#                                CCDC 
#
#######################################################################
#
# If this CIF has been generated from an entry in the Cambridge 
# Structural Database, then it will include bibliographic, chemical, 
# crystal, experimental, refinement or atomic coordinate data resulting 
# from the CCDC's data processing and validation procedures.
#
#######################################################################

data_NATBAL
_symmetry_cell_setting           triclinic
_symmetry_space_group_name_H-M   'P -1'
_symmetry_Int_Tables_number      2
_space_group_name_Hall           '-P 1'
loop_
_symmetry_equiv_pos_site_id
_symmetry_equiv_pos_as_xyz
1 x,y,z
2 -x,-y,-z
_cell_length_a                   7.405(3)
_cell_length_b                   10.749(3)
_cell_length_c                   13.694(4)
_cell_angle_alpha                103.53(2)
_cell_angle_beta                 101.61(3)
_cell_angle_gamma                105.59(3)
_cell_volume                     979.314
loop_
_atom_site_label
_atom_site_type_symbol
_atom_site_fract_x
_atom_site_fract_y
_atom_site_fract_z
Zn1 Zn 0.0000 0.0000 0.0000
O1 O -0.0815(7) -0.0595(4) -0.1677(3)
O2 O 0.2339(6) -0.0796(4) 0.0006(3)
N1 N -0.1863(7) -0.1866(4) -0.0009(4)
C1 C -0.1933(10) -0.3043(5) -0.0622(5)
C2 C -0.3055(10) -0.1931(5) 0.0608(5)
C3 C -0.3121(10) -0.4282(5) -0.0645(5)
C4 C -0.4269(10) -0.3121(6) 0.0634(5)
C5 C -0.4330(8) -0.4343(5) -0.0002(4)
H1 H -0.1127(7) -0.0036(4) -0.1956(3)
H2 H -0.1122(7) -0.1325(4) -0.2167(3)
H3 H 0.2531(6) -0.1358(4) -0.0480(3)
H4 H 0.2798(6) -0.0968(4) 0.0561(3)
H5 H -0.1128(10) -0.3029(5) -0.1063(5)
H6 H -0.3056(10) -0.1123(5) 0.1041(5)
H7 H -0.3108(10) -0.5075(5) -0.1094(5)
H8 H -0.5059(10) -0.3108(6) 0.1083(5)
O1A O 0.0815(7) 0.0595(4) 0.1677(3)
H1A H 0.1127(7) 0.0036(4) 0.1956(3)
H2A H 0.1122(7) 0.1325(4) 0.2167(3)
O2A O -0.2339(6) 0.0796(4) -0.0006(3)
H3A H -0.2531(6) 0.1358(4) 0.0480(3)
H4A H -0.2798(6) 0.0968(4) -0.0561(3)
C5A C -0.5670(8) -0.5657(5) 0.0002(4)
C3A C -0.6879(10) -0.5718(5) 0.0645(5)
C1A C -0.8067(10) -0.6957(5) 0.0622(5)
N1A N -0.8137(7) -0.8134(4) 0.0009(4)
Zn1A Zn -1.0000 -1.0000 0.0000
C2A C -0.6945(10) -0.8069(5) -0.0608(5)
C4A C -0.5731(10) -0.6879(6) -0.0634(5)
H8A H -0.4941(10) -0.6892(6) -0.1083(5)
H6A H -0.6944(10) -0.8877(5) -0.1041(5)
H5A H -0.8872(10) -0.6971(5) 0.1063(5)
H7A H -0.6892(10) -0.4925(5) 0.1094(5)
N1A_2 N 0.1863(7) 0.1866(4) 0.0009(4)
N2 N 0.8297(9) 0.7207(6) 0.6555(5)
C6 C 0.871(2) 0.7653(8) 0.5775(7)
C7 C 0.7639(11) 0.5907(8) 0.6361(5)
C8 C 0.8506(14) 0.6815(8) 0.4794(6)
C9 C 0.7352(11) 0.4970(7) 0.5394(5)
C10 C 0.7782(9) 0.5427(6) 0.4588(5)
C11 C 0.7555(9) 0.4479(7) 0.3550(5)
C12 C 0.8242(12) 0.4938(8) 0.2789(5)
C13 C 0.6687(12) 0.3097(8) 0.3309(6)
C14 C 0.8060(13) 0.3993(9) 0.1853(6)
C15 C 0.6593(13) 0.2245(8) 0.2345(7)
N3 N 0.7294(10) 0.2675(7) 0.1636(5)
H9 H 0.917(2) 0.8586(8) 0.5894(7)
H10 H 0.7337(11) 0.5572(8) 0.6897(5)
H11 H 0.8853(14) 0.7182(8) 0.4281(6)
H12 H 0.6874(11) 0.4044(7) 0.5301(5)
H13 H 0.8816(12) 0.5861(8) 0.2899(5)
H14 H 0.6167(12) 0.2734(8) 0.3786(6)
H15 H 0.8513(13) 0.4320(9) 0.1345(6)
H16 H 0.5998(13) 0.1316(8) 0.2199(7)
S1 S 0.2659(5) 0.8078(2) 0.2570(2)
O3 O 0.232(2) 0.6696(7) 0.2312(8)
O4 O 0.137(2) 0.8587(11) 0.2961(13)
O5 O 0.3361(13) 0.8656(9) 0.1834(6)
C16 C 0.511(3) 0.880(2) 0.3745(13)
F1 F 0.531(3) 1.0070(14) 0.3904(9)
F2 F 0.441(3) 0.8318(13) 0.4387(8)
F3 F 0.609(2) 0.826(2) 0.3236(10)
loop_
_geom_bond_atom_site_label_1
_geom_bond_atom_site_label_2
_geom_bond_site_symmetry_1
_geom_bond_site_symmetry_2
Zn1 O1 1_555 1_555
O1 H1 1_555 1_555
O2 Zn1 1_555 1_555
N1 Zn1 1_555 1_555
C1 N1 1_555 1_555
C2 N1 1_555 1_555
C3 C1 1_555 1_555
C4 C2 1_555 1_555
C5 C3 1_555 1_555
N2 C6 1_555 1_555
C6 C8 1_555 1_555
C7 N2 1_555 1_555
C8 C10 1_555 1_555
C9 C7 1_555 1_555
C10 C9 1_555 1_555
C11 C10 1_555 1_555
C12 C11 1_555 1_555
C13 C11 1_555 1_555
C14 C12 1_555 1_555
C15 C13 1_555 1_555
N3 C14 1_555 1_555
S1 O3 1_555 1_555
O4 S1 1_555 1_555
O5 S1 1_555 1_555
C16 S1 1_555 1_555
F1 C16 1_555 1_555
F2 C16 1_555 1_555
F3 C16 1_555 1_555
H2 O1 1_555 1_555
H3 O2 1_555 1_555
H4 O2 1_555 1_555
H5 C1 1_555 1_555
H6 C2 1_555 1_555
H7 C3 1_555 1_555
H8 C4 1_555 1_555
H9 C6 1_555 1_555
H10 C7 1_555 1_555
H11 C8 1_555 1_555
H12 C9 1_555 1_555
H13 C12 1_555 1_555
H14 C13 1_555 1_555
H15 C14 1_555 1_555
H16 C15 1_555 1_555
O1A Zn1 1_555 1_555
H1A O1A 1_555 1_555
H2A O1A 1_555 1_555
O2A Zn1 1_555 1_555
H3A O2A 1_555 1_555
H4A O2A 1_555 1_555
C5A C5 1_555 1_555
C3A C5A 1_555 1_555
C1A C3A 1_555 1_555
N1A C1A 1_555 1_555
Zn1A N1A 1_555 1_555
C2A N1A 1_555 1_555
C4A C5A 1_555 1_555
H8A C4A 1_555 1_555
H6A C2A 1_555 1_555
H5A C1A 1_555 1_555
H7A C3A 1_555 1_555
N1A_2 Zn1 1_555 1_555
C4 C5 1_555 1_555
C15 N3 1_555 1_555
C2A C4A 1_555 1_555

#END
