
#######################################################################
#
#                 Cambridge Crystallographic Data Centre
#                                CCDC 
#
#######################################################################
#
# If this CIF has been generated from an entry in the Cambridge 
# Structural Database, then it will include bibliographic, chemical, 
# crystal, experimental, refinement or atomic coordinate data resulting 
# from the CCDC's data processing and validation procedures.
#
#######################################################################

data_NATVUB
_symmetry_cell_setting           triclinic
_symmetry_space_group_name_H-M   'P -1'
_symmetry_Int_Tables_number      2
_space_group_name_Hall           '-P 1'
loop_
_symmetry_equiv_pos_site_id
_symmetry_equiv_pos_as_xyz
1 x,y,z
2 -x,-y,-z
_cell_length_a                   5.5097(4)
_cell_length_b                   7.2822(5)
_cell_length_c                   11.3134(8)
_cell_angle_alpha                103.5580(10)
_cell_angle_beta                 99.4330(10)
_cell_angle_gamma                97.1050(10)
_cell_volume                     429.044
loop_
_atom_site_label
_atom_site_type_symbol
_atom_site_fract_x
_atom_site_fract_y
_atom_site_fract_z
Pb1 Pb 0.0000 0.0000 0.0000
S1 S 0.89002(15) 0.40665(12) 0.67828(7)
C1 C 0.5370(7) 0.2434(5) 0.9276(3)
C2 C 0.6240(6) 0.2950(5) 0.8183(3)
C3 C 0.8586(6) 0.3865(5) 0.8223(3)
H1 H 0.9858 0.4322 0.8950
C4 C 0.5833(6) 0.2913(5) 0.6198(3)
C5 C 0.4705(6) 0.2441(5) 0.4875(3)
C6 C 0.5980(6) 0.2849(5) 0.3974(3)
H2 H 0.7649 0.3520 0.4207
C7 C 0.4793(6) 0.2268(5) 0.2736(3)
H3 H 0.5681 0.2562 0.2133
C8 C 0.1207(6) 0.0917(5) 0.3216(3)
H4 H -0.0449 0.0224 0.2954
C9 C 0.2238(6) 0.1478(5) 0.4474(3)
H5 H 0.1280 0.1213 0.5058
N1 N 0.4678(5) 0.2422(4) 0.7032(3)
N2 N 0.2441(5) 0.1307(4) 0.2352(3)
O1 O 0.3063(5) 0.2009(4) 0.9190(2)
O2 O 0.7061(5) 0.2439(4) 1.0182(2)
Pb1_2 Pb 0.0000 0.0000 1.0000
Pb1_3 Pb 1.0000 0.0000 1.0000
Pb1_4 Pb 0.0000 0.0000 -1.0000
Pb1_5 Pb -1.0000 0.0000 -1.0000
S1A S -0.89002(15) -0.40665(12) -0.67828(7)
C1A C -0.5370(7) -0.2434(5) -0.9276(3)
C2A C -0.6240(6) -0.2950(5) -0.8183(3)
C3A C -0.8586(6) -0.3865(5) -0.8223(3)
H1A H -0.9858 -0.4322 -0.8950
C4A C -0.5833(6) -0.2913(5) -0.6198(3)
C5A C -0.4705(6) -0.2441(5) -0.4875(3)
C6A C -0.5980(6) -0.2849(5) -0.3974(3)
H2A H -0.7649 -0.3520 -0.4207
C7A C -0.4793(6) -0.2268(5) -0.2736(3)
H3A H -0.5681 -0.2562 -0.2133
C8A C -0.1207(6) -0.0917(5) -0.3216(3)
H4A H 0.0449 -0.0224 -0.2954
C9A C -0.2238(6) -0.1478(5) -0.4474(3)
H5A H -0.1280 -0.1213 -0.5058
N1A N -0.4678(5) -0.2422(4) -0.7032(3)
N2A N -0.2441(5) -0.1307(4) -0.2352(3)
O1A O -0.3063(5) -0.2009(4) -0.9190(2)
O1_2 O 0.3063(5) 0.2009(4) -0.0810(2)
O1A_2 O -0.3063(5) -0.2009(4) 0.0810(2)
O2A O -0.7061(5) -0.2439(4) -1.0182(2)
O2_2 O -0.2939(5) 0.2439(4) 0.0182(2)
O2A_2 O 0.2939(5) -0.2439(4) -0.0182(2)
loop_
_geom_bond_atom_site_label_1
_geom_bond_atom_site_label_2
_geom_bond_site_symmetry_1
_geom_bond_site_symmetry_2
Pb1 N2 1_555 1_555
S1 C3 1_555 1_555
C1 C2 1_555 1_555
C2 C3 1_555 1_555
C3 H1 1_555 1_555
C4 S1 1_555 1_555
C5 C4 1_555 1_555
C6 C5 1_555 1_555
H2 C6 1_555 1_555
C7 C6 1_555 1_555
H3 C7 1_555 1_555
C8 H4 1_555 1_555
C9 C5 1_555 1_555
H5 C9 1_555 1_555
N1 C2 1_555 1_555
N2 C7 1_555 1_555
O1 C1 1_555 1_555
O2 C1 1_555 1_555
Pb1_2 O1 1_555 1_555
Pb1_3 O2 1_555 1_555
Pb1_4 O1A 1_555 1_555
Pb1_5 O2A 1_555 1_555
S1A C3A 1_555 1_555
C1A C2A 1_555 1_555
C2A C3A 1_555 1_555
C3A H1A 1_555 1_555
C4A S1A 1_555 1_555
C5A C4A 1_555 1_555
C6A C5A 1_555 1_555
H2A C6A 1_555 1_555
C7A C6A 1_555 1_555
H3A C7A 1_555 1_555
C8A H4A 1_555 1_555
C9A C5A 1_555 1_555
H5A C9A 1_555 1_555
N1A C2A 1_555 1_555
N2A Pb1 1_555 1_555
O1A C1A 1_555 1_555
O1_2 Pb1 1_555 1_555
O1A_2 Pb1 1_555 1_555
O2A C1A 1_555 1_555
O2_2 Pb1 1_555 1_555
O2A_2 Pb1 1_555 1_555
C4 N1 1_555 1_555
C8 C9 1_555 1_555
C8 N2 1_555 1_555
C4A N1A 1_555 1_555
C7A N2A 1_555 1_555
C8A C9A 1_555 1_555
C8A N2A 1_555 1_555

#END
