
#######################################################################
#
#                 Cambridge Crystallographic Data Centre
#                                CCDC 
#
#######################################################################
#
# If this CIF has been generated from an entry in the Cambridge 
# Structural Database, then it will include bibliographic, chemical, 
# crystal, experimental, refinement or atomic coordinate data resulting 
# from the CCDC's data processing and validation procedures.
#
#######################################################################

data_NATWAI
_symmetry_cell_setting           triclinic
_symmetry_space_group_name_H-M   'P -1'
_symmetry_Int_Tables_number      2
_space_group_name_Hall           '-P 1'
loop_
_symmetry_equiv_pos_site_id
_symmetry_equiv_pos_as_xyz
1 x,y,z
2 -x,-y,-z
_cell_length_a                   9.8102(5)
_cell_length_b                   10.5972(6)
_cell_length_c                   14.8076(8)
_cell_angle_alpha                91.9350(10)
_cell_angle_beta                 100.8050(10)
_cell_angle_gamma                103.1350(10)
_cell_volume                     1467.85
loop_
_atom_site_label
_atom_site_type_symbol
_atom_site_fract_x
_atom_site_fract_y
_atom_site_fract_z
Pb1 Pb 0.563361(15) 0.453091(15) 0.645230(12)
Pb2 Pb 1.117610(16) 0.618080(15) 0.613830(12)
S1 S 0.80355(12) 0.32150(12) 0.97013(9)
S2 S 0.44353(11) 0.99635(11) 0.85814(9)
S3 S 0.20652(11) 0.03315(11) 0.38482(9)
C1 C 0.9052(4) 0.4737(4) 0.7417(3)
C2 C 0.8419(4) 0.4142(4) 0.8194(3)
C3 C 0.9143(5) 0.3695(4) 0.8947(3)
H1 H 1.0116 0.3656 0.9038
C4 C 0.6648(4) 0.3639(4) 0.8961(3)
C5 C 0.5249(4) 0.3561(4) 0.9221(3)
C6 C 0.4843(5) 0.2865(5) 0.9936(3)
H2 H 0.5457 0.2400 1.0280
C7 C 0.3518(5) 0.2856(5) 1.0141(3)
H3 H 0.3252 0.2374 1.0636
C8 C 0.3020(5) 0.4163(4) 0.9012(3)
H4 H 0.2399 0.4639 0.8688
C9 C 0.4320(4) 0.4221(4) 0.8749(3)
H5 H 0.4563 0.4709 0.8252
C10 C 0.4583(4) 0.6696(4) 0.7243(3)
C11 C 0.4272(4) 0.7847(4) 0.7676(3)
C12 C 0.5257(5) 0.8956(4) 0.8087(3)
H6 H 0.6252 0.9132 0.8092
C13 C 0.2802(4) 0.8853(4) 0.8214(3)
C14 C 0.1441(4) 0.9058(4) 0.8399(3)
C15 C 0.1284(5) 1.0246(5) 0.8723(4)
H7 H 0.2074 1.0980 0.8848
C16 C -0.0040(5) 1.0343(5) 0.8862(4)
H8 H -0.0131 1.1160 0.9095
C17 C -0.1036(5) 0.8211(5) 0.8374(4)
H9 H -0.1846 0.7495 0.8243
C18 C 0.0251(5) 0.8015(5) 0.8231(3)
H10 H 0.0324 0.7181 0.8021
C19 C 0.2207(4) 0.3887(4) 0.4875(3)
C20 C 0.1862(4) 0.2531(4) 0.4446(3)
C21 C 0.2867(5) 0.1893(4) 0.4280(3)
H11 H 0.3866 0.2265 0.4389
C22 C 0.0411(4) 0.0613(4) 0.3911(3)
C23 C -0.0905(5) -0.0419(4) 0.3664(3)
C24 C -0.0902(5) -0.1671(4) 0.3349(3)
H12 H -0.0038 -0.1873 0.3263
C25 C -0.2169(5) -0.2618(4) 0.3163(3)
H13 H -0.2138 -0.3471 0.2964
C26 C -0.3432(5) -0.1191(4) 0.3540(3)
H14 H -0.4317 -0.1016 0.3605
C27 C -0.2216(5) -0.0176(4) 0.3753(3)
H15 H -0.2276 0.0667 0.3955
N1 N 0.6995(4) 0.4103(3) 0.8207(3)
N2 N 0.2592(4) 0.3479(4) 0.9690(3)
N3 N 0.2878(4) 0.7808(3) 0.7750(3)
N4 N -0.1212(4) 0.9357(4) 0.8688(3)
N5 N 0.0466(4) 0.1803(4) 0.4227(3)
N6 N -0.3434(4) -0.2405(4) 0.3247(3)
N7 N 0.7065(4) 0.2512(4) 0.5291(3)
O1 O 0.8290(3) 0.5251(3) 0.6835(2)
O2 O 1.0341(3) 0.4746(3) 0.7423(2)
O3 O 0.3544(3) 0.5743(3) 0.6909(2)
O4 O 0.5869(3) 0.6682(3) 0.7271(2)
O5 O 0.1203(3) 0.4303(3) 0.5119(2)
O6 O 0.3487(3) 0.4528(3) 0.4970(2)
O7 O 0.6333(4) 0.2359(3) 0.5904(3)
O8 O 0.8394(3) 0.2880(4) 0.5505(2)
O9 O 0.6472(4) 0.2285(4) 0.4456(3)
Pb1A Pb 0.436639(15) 0.546909(15) 0.354770(12)
Pb2_2 Pb 0.117610(16) 0.618080(15) 0.613830(12)
Pb2A Pb -0.117610(16) 0.381920(15) 0.386170(12)
Pb2A_2 Pb 0.882390(16) 0.381920(15) 0.386170(12)
O3_2 O 1.3544(3) 0.5743(3) 0.6909(2)
O5_2 O 1.1203(3) 0.4303(3) 0.5119(2)
O5A O 0.8797(3) 0.5697(3) 0.4881(2)
O6A O 0.6513(3) 0.5472(3) 0.5030(2)
O8A O 1.1606(3) 0.7120(4) 0.4495(2)
loop_
_geom_bond_atom_site_label_1
_geom_bond_atom_site_label_2
_geom_bond_site_symmetry_1
_geom_bond_site_symmetry_2
Pb1 N1 1_555 1_555
Pb2 O2 1_555 1_555
S1 C3 1_555 1_555
S2 C12 1_555 1_555
S3 C21 1_555 1_555
C1 C2 1_555 1_555
C2 C3 1_555 1_555
C3 H1 1_555 1_555
C4 S1 1_555 1_555
C5 C4 1_555 1_555
C6 C5 1_555 1_555
H2 C6 1_555 1_555
C7 C6 1_555 1_555
H3 C7 1_555 1_555
C8 H4 1_555 1_555
C9 C5 1_555 1_555
H5 C9 1_555 1_555
C10 C11 1_555 1_555
C11 C12 1_555 1_555
C12 H6 1_555 1_555
C13 S2 1_555 1_555
C14 C13 1_555 1_555
C15 C14 1_555 1_555
H7 C15 1_555 1_555
C16 C15 1_555 1_555
H8 C16 1_555 1_555
C17 H9 1_555 1_555
C18 C14 1_555 1_555
H10 C18 1_555 1_555
C19 C20 1_555 1_555
C20 C21 1_555 1_555
C21 H11 1_555 1_555
C22 S3 1_555 1_555
C23 C22 1_555 1_555
C24 C23 1_555 1_555
H12 C24 1_555 1_555
C25 C24 1_555 1_555
H13 C25 1_555 1_555
C26 H14 1_555 1_555
C27 C23 1_555 1_555
H15 C27 1_555 1_555
N1 C2 1_555 1_555
N2 C7 1_555 1_555
N3 C11 1_555 1_555
N4 C16 1_555 1_555
N5 C20 1_555 1_555
N6 C25 1_555 1_555
N7 O7 1_555 1_555
O1 Pb1 1_555 1_555
O2 C1 1_555 1_555
O3 C10 1_555 1_555
O4 Pb1 1_555 1_555
O5 C19 1_555 1_555
O6 Pb1 1_555 1_555
O7 Pb1 1_555 1_555
O8 N7 1_555 1_555
O9 N7 1_555 1_555
Pb1A O6 1_555 1_555
Pb2_2 O3 1_555 1_555
Pb2A O5 1_555 1_555
Pb2A_2 O8 1_555 1_555
O3_2 Pb2 1_555 1_555
O5_2 Pb2 1_555 1_555
O5A Pb2 1_555 1_555
O6A Pb1 1_555 1_555
O8A Pb2 1_555 1_555
C1 O1 1_555 1_555
C4 N1 1_555 1_555
C8 C9 1_555 1_555
C8 N2 1_555 1_555
C10 O4 1_555 1_555
C13 N3 1_555 1_555
C17 C18 1_555 1_555
C17 N4 1_555 1_555
C19 O6 1_555 1_555
C22 N5 1_555 1_555
C26 C27 1_555 1_555
C26 N6 1_555 1_555
O5 Pb2_2 1_555 1_555
Pb1A O6A 1_555 1_555
Pb2A_2 O5_2 1_555 1_555
Pb2A_2 O5A 1_555 1_555

#END
