
#######################################################################
#
#                 Cambridge Crystallographic Data Centre
#                                CCDC 
#
#######################################################################
#
# If this CIF has been generated from an entry in the Cambridge 
# Structural Database, then it will include bibliographic, chemical, 
# crystal, experimental, refinement or atomic coordinate data resulting 
# from the CCDC's data processing and validation procedures.
#
#######################################################################

data_NATXOX
_symmetry_cell_setting           tetragonal
_symmetry_space_group_name_H-M   'I 41/a'
_symmetry_Int_Tables_number      88
_space_group_name_Hall           '-I 4ad'
loop_
_symmetry_equiv_pos_site_id
_symmetry_equiv_pos_as_xyz
1 x,y,z
2 -x,1/2-y,z
3 3/4-y,1/4+x,1/4+z
4 1/4+y,1/4-x,1/4+z
5 1/2+x,1/2+y,1/2+z
6 1/2-x,-y,1/2+z
7 1/4-y,3/4+x,3/4+z
8 3/4+y,3/4-x,3/4+z
9 -x,-y,-z
10 x,1/2+y,-z
11 1/4+y,3/4-x,3/4-z
12 3/4-y,3/4+x,3/4-z
13 1/2-x,1/2-y,1/2-z
14 1/2+x,y,1/2-z
15 3/4+y,1/4-x,1/4-z
16 1/4-y,1/4+x,1/4-z
_cell_length_a                   6.829(2)
_cell_length_b                   6.829(2)
_cell_length_c                   29.873(10)
_cell_angle_alpha                90
_cell_angle_beta                 90
_cell_angle_gamma                90
_cell_volume                     1393.13
loop_
_atom_site_label
_atom_site_type_symbol
_atom_site_fract_x
_atom_site_fract_y
_atom_site_fract_z
Cr1 Cr 1.0000 0.2500 0.1250
N1 N 1.0000 0.2500 0.05888(7)
C1 C 0.8410(2) 0.1827(2) 0.03755(6)
C2 C 0.8346(3) 0.1836(2) -0.00875(6)
H1 H 0.7238 0.1414 -0.0241
C3 C 1.0000 0.2500 -0.03172(9)
H2 H 1.0000 0.2500 -0.0629
C4 C 0.6918(2) 0.1033(2) 0.07061(6)
O1 O 0.74267(17) 0.12322(18) 0.11233(4)
O2 O 0.54410(18) 0.02000(19) 0.05762(4)
K1 K 0.5000 -0.2500 0.1250
N1N N 1.0000 0.2500 0.19112(7)
C1A C 1.1590(2) 0.3173(2) 0.03755(6)
C1N C 0.9327(2) 0.4090(2) 0.21245(6)
C1O C 1.0673(2) 0.0910(2) 0.21245(6)
C2A C 1.1654(3) 0.3164(2) -0.00875(6)
C2N C 0.9336(2) 0.4154(3) 0.25875(6)
C2O C 1.0664(2) 0.0846(3) 0.25875(6)
H1A H 1.2762 0.3586 -0.0241
H1N H 0.8914 0.5262 0.2741
H1O H 1.1086 -0.0262 0.2741
C3N C 1.0000 0.2500 0.28172(9)
H2N H 1.0000 0.2500 0.3129
C4A C 1.3082(2) 0.3967(2) 0.07061(6)
C4N C 0.8533(2) 0.5582(2) 0.17939(6)
C4O C 1.1467(2) -0.0582(2) 0.17939(6)
O1A O 1.25733(17) 0.37678(18) 0.11233(4)
O1N O 0.87322(18) 0.50733(17) 0.13767(4)
O1O O 1.12678(18) -0.00733(17) 0.13767(4)
O1A_2 O 0.25733(17) -0.62322(18) 0.11233(4)
O1O_2 O 0.12678(18) -0.00733(17) 0.13767(4)
O1N_2 O 0.87322(18) -0.49267(17) 0.13767(4)
O2A O 1.45590(18) 0.48000(19) 0.05762(4)
O2N O 0.77000(19) 0.70590(18) 0.19238(4)
O2O O 1.23000(19) -0.20590(18) 0.19238(4)
O2A_2 O 0.45590(18) -0.52000(19) 0.05762(4)
O2O_2 O 0.23000(19) -0.20590(18) 0.19238(4)
O2N_2 O 0.77000(19) -0.29410(18) 0.19238(4)
K1_2 K 1.5000 0.7500 0.1250
K1_3 K 0.5000 0.7500 0.1250
K1_4 K 1.5000 -0.2500 0.1250
loop_
_geom_bond_atom_site_label_1
_geom_bond_atom_site_label_2
_geom_bond_site_symmetry_1
_geom_bond_site_symmetry_2
Cr1 N1 1_555 1_555
N1 C1 1_555 1_555
C1 C2 1_555 1_555
C2 H1 1_555 1_555
C3 C2 1_555 1_555
H2 C3 1_555 1_555
C4 C1 1_555 1_555
O1 Cr1 1_555 1_555
O2 C4 1_555 1_555
K1 O1 1_555 1_555
N1N Cr1 1_555 1_555
C1A N1 1_555 1_555
C1N N1N 1_555 1_555
C1O N1N 1_555 1_555
C2A C3 1_555 1_555
C2N C1N 1_555 1_555
C2O C1O 1_555 1_555
H1A C2A 1_555 1_555
H1N C2N 1_555 1_555
H1O C2O 1_555 1_555
C3N C2N 1_555 1_555
H2N C3N 1_555 1_555
C4A C1A 1_555 1_555
C4N C1N 1_555 1_555
C4O C1O 1_555 1_555
O1A Cr1 1_555 1_555
O1N Cr1 1_555 1_555
O1O Cr1 1_555 1_555
O1A_2 K1 1_555 1_555
O1O_2 K1 1_555 1_555
O1N_2 K1 1_555 1_555
O2A C4A 1_555 1_555
O2N C4N 1_555 1_555
O2O C4O 1_555 1_555
O2A_2 K1 1_555 1_555
O2O_2 K1 1_555 1_555
O2N_2 K1 1_555 1_555
K1_2 O1A 1_555 1_555
K1_3 O1N 1_555 1_555
K1_4 O1O 1_555 1_555
C4 O1 1_555 1_555
O2 K1 1_555 1_555
C1A C2A 1_555 1_555
C2O C3N 1_555 1_555
C4A O1A 1_555 1_555
C4N O1N 1_555 1_555
C4O O1O 1_555 1_555
O2A K1_2 1_555 1_555
O2N K1_3 1_555 1_555
O2O K1_4 1_555 1_555

#END
