
#######################################################################
#
#                 Cambridge Crystallographic Data Centre
#                                CCDC 
#
#######################################################################
#
# If this CIF has been generated from an entry in the Cambridge 
# Structural Database, then it will include bibliographic, chemical, 
# crystal, experimental, refinement or atomic coordinate data resulting 
# from the CCDC's data processing and validation procedures.
#
#######################################################################

data_NAVDIZ
_symmetry_cell_setting           monoclinic
_symmetry_space_group_name_H-M   'P 21/c'
_symmetry_Int_Tables_number      14
_space_group_name_Hall           '-P 2ybc'
loop_
_symmetry_equiv_pos_site_id
_symmetry_equiv_pos_as_xyz
1 x,y,z
2 -x,1/2+y,1/2-z
3 -x,-y,-z
4 x,1/2-y,1/2+z
_cell_length_a                   10.4556(6)
_cell_length_b                   16.3367(7)
_cell_length_c                   10.7937(7)
_cell_angle_alpha                90
_cell_angle_beta                 97.031(3)
_cell_angle_gamma                90
_cell_volume                     1829.81
loop_
_atom_site_label
_atom_site_type_symbol
_atom_site_fract_x
_atom_site_fract_y
_atom_site_fract_z
Na1 Na 0.51156(12) 0.09678(7) 0.47911(12)
O1 O 0.5488(2) 0.20714(13) 0.3514(2)
O2 O 0.5086(2) 0.29759(14) 0.1263(2)
N1 N 0.3244(3) 0.01729(16) 0.5037(3)
C1 C 0.1660(3) -0.0234(2) 0.6485(4)
H1 H 0.0968 -0.0273 0.5829
C2 C 0.1428(4) -0.0408(2) 0.7684(4)
H2 H 0.0586 -0.0567 0.7830
C3 C 0.2381(4) -0.0357(2) 0.8674(4)
H3 H 0.2210 -0.0485 0.9496
C4 C 0.3613(4) -0.0111(2) 0.8441(4)
H4 H 0.4285 -0.0064 0.9115
C5 C 0.3857(3) 0.0063(2) 0.7251(3)
H5 H 0.4701 0.0232 0.7127
C6 C 0.2906(3) 0.00029(18) 0.6187(3)
C7 C 0.2211(3) 0.0123(2) 0.4002(3)
H6 H 0.1405 0.0343 0.4289
C8 C 0.2545(4) 0.0650(3) 0.2918(4)
H7 H 0.2698 0.1215 0.3203
H8 H 0.1828 0.0638 0.2242
H9 H 0.3323 0.0435 0.2611
C9 C 0.1960(4) -0.0763(2) 0.3561(4)
H10 H 0.1738 -0.1096 0.4259
H11 H 0.2737 -0.0984 0.3261
H12 H 0.1246 -0.0773 0.2883
C10 C 0.4591(4) 0.2741(2) 0.3348(4)
H13 H 0.5029 0.3253 0.3649
H14 H 0.3874 0.2641 0.3850
C11 C 0.6510(3) 0.2199(2) 0.2766(3)
H15 H 0.7105 0.1725 0.2856
H16 H 0.7003 0.2694 0.3059
C12 C 0.5982(4) 0.2301(2) 0.1418(4)
H17 H 0.5540 0.1792 0.1109
H18 H 0.6699 0.2402 0.0917
C13 C 0.4064(3) 0.2833(2) 0.2003(4)
H19 H 0.3451 0.3296 0.1907
H20 H 0.3593 0.2329 0.1711
Na1B Na 0.48844(12) -0.09678(7) 0.52089(12)
Na1C Na 0.51156(12) 0.40322(7) -0.02089(12)
O2C O 0.5086(2) 0.20241(14) 0.6263(2)
N1B N 0.6756(3) -0.01729(16) 0.4963(3)
O3 O 0.1641(3) 0.25357(19) 0.4231(4)
C14 C 0.1232(7) 0.3323(3) 0.3889(7)
H21 H 0.0888 0.3331 0.2993
H22 H 0.1971 0.3704 0.4017
C15 C 0.0200(5) 0.3596(3) 0.4659(5)
H23 H -0.0615 0.3713 0.4121
H24 H 0.0473 0.4093 0.5146
C16 C 0.0030(7) 0.2836(4) 0.5567(6)
H25 H 0.0461 0.2937 0.6422
H26 H -0.0890 0.2708 0.5604
C17 C 0.0732(4) 0.2126(3) 0.4886(5)
H27 H 0.1170 0.1739 0.5504
H28 H 0.0103 0.1819 0.4301
loop_
_geom_bond_atom_site_label_1
_geom_bond_atom_site_label_2
_geom_bond_site_symmetry_1
_geom_bond_site_symmetry_2
Na1 O1 1_555 1_555
O1 C10 1_555 1_555
O2 C12 1_555 1_555
N1 Na1 1_555 1_555
C1 H1 1_555 1_555
C2 C1 1_555 1_555
H2 C2 1_555 1_555
C3 C2 1_555 1_555
H3 C3 1_555 1_555
C4 C3 1_555 1_555
H4 C4 1_555 1_555
C5 C4 1_555 1_555
H5 C5 1_555 1_555
C6 N1 1_555 1_555
C7 N1 1_555 1_555
H6 C7 1_555 1_555
C8 C7 1_555 1_555
H7 C8 1_555 1_555
H8 C8 1_555 1_555
H9 C8 1_555 1_555
C9 C7 1_555 1_555
H10 C9 1_555 1_555
H11 C9 1_555 1_555
H12 C9 1_555 1_555
C10 H13 1_555 1_555
H14 C10 1_555 1_555
C11 O1 1_555 1_555
H15 C11 1_555 1_555
H16 C11 1_555 1_555
C12 C11 1_555 1_555
H17 C12 1_555 1_555
H18 C12 1_555 1_555
C13 O2 1_555 1_555
H19 C13 1_555 1_555
H20 C13 1_555 1_555
O3 C14 1_555 1_555
C14 H21 1_555 1_555
H22 C14 1_555 1_555
C15 C14 1_555 1_555
H23 C15 1_555 1_555
H24 C15 1_555 1_555
C16 C15 1_555 1_555
H25 C16 1_555 1_555
H26 C16 1_555 1_555
C17 O3 1_555 1_555
H27 C17 1_555 1_555
H28 C17 1_555 1_555
Na1B N1 1_555 1_555
Na1C O2 1_555 1_555
O2C Na1 1_555 1_555
N1B Na1 1_555 1_555
C1 C6 1_555 1_555
C5 C6 1_555 1_555
C10 C13 1_555 1_555
C16 C17 1_555 1_555
Na1B N1B 1_555 1_555

#END
