
#######################################################################
#
#                 Cambridge Crystallographic Data Centre
#                                CCDC 
#
#######################################################################
#
# If this CIF has been generated from an entry in the Cambridge 
# Structural Database, then it will include bibliographic, chemical, 
# crystal, experimental, refinement or atomic coordinate data resulting 
# from the CCDC's data processing and validation procedures.
#
#######################################################################

data_NAVDOE
_symmetry_cell_setting           monoclinic
_symmetry_space_group_name_H-M   'P 21/n'
_symmetry_Int_Tables_number      14
_space_group_name_Hall           '-P 2yn'
loop_
_symmetry_equiv_pos_site_id
_symmetry_equiv_pos_as_xyz
1 x,y,z
2 1/2-x,1/2+y,1/2-z
3 -x,-y,-z
4 1/2+x,1/2-y,1/2+z
_cell_length_a                   7.8171(7)
_cell_length_b                   13.4926(12)
_cell_length_c                   17.3708(16)
_cell_angle_alpha                90
_cell_angle_beta                 96.545(2)
_cell_angle_gamma                90
_cell_volume                     1820.21
loop_
_atom_site_label
_atom_site_type_symbol
_atom_site_fract_x
_atom_site_fract_y
_atom_site_fract_z
C1 C -0.6648(4) -0.0730(2) -0.10935(19)
In1 In -0.56548(3) -0.301400(19) -0.411060(15)
N1 N -0.5339(3) -0.3045(2) -0.54145(16)
N2 N -0.4104(4) -0.1633(2) -0.43839(19)
O1 O -0.5537(3) -0.23673(17) -0.29931(14)
O2 O -0.3755(3) -0.33824(18) -0.22598(15)
O3 O -0.8033(3) 0.06360(19) -0.05968(15)
O4 O -0.8180(4) 0.0517(2) -0.18588(16)
O5 O -0.3036(3) -0.27645(16) 0.06254(14)
O6 O -0.5315(3) -0.2107(2) 0.10855(13)
O7 O -0.3253(3) -0.37870(19) -0.37050(14)
C2 C -0.4801(5) -0.2690(3) -0.2349(2)
C3 C -0.5242(4) -0.2114(3) -0.16455(18)
C4 C -0.6212(4) -0.1259(3) -0.1742(2)
H1 H -0.6580 -0.1031 -0.2238
C5 C -0.4663(4) -0.2441(3) -0.0907(2)
H2 H -0.3974 -0.3003 -0.0842
C6 C -0.5109(4) -0.1931(3) -0.02551(18)
C7 C -0.6109(4) -0.1092(3) -0.0361(2)
H3 H -0.6430 -0.0761 0.0069
C8 C -0.4460(5) -0.2291(2) 0.0543(2)
C9 C -0.7686(5) 0.0196(3) -0.1216(2)
C10 C -0.3424(5) -0.0979(3) -0.3870(2)
H4 H -0.3546 -0.1077 -0.3349
C11 C -0.2521(6) -0.0139(3) -0.4084(3)
H5 H -0.2043 0.0306 -0.3711
C12 C -0.2358(6) 0.0012(3) -0.4848(3)
H6 H -0.1780 0.0570 -0.4997
C13 C -0.3055(5) -0.0666(3) -0.5414(3)
C14 C -0.2958(6) -0.0555(3) -0.6218(3)
H7 H -0.2393 -0.0007 -0.6393
C15 C -0.3667(6) -0.1226(3) -0.6738(3)
H8 H -0.3612 -0.1122 -0.7264
C16 C -0.4490(5) -0.2082(3) -0.6492(2)
C17 C -0.5167(5) -0.2845(3) -0.6997(2)
H9 H -0.5119 -0.2787 -0.7528
C18 C -0.5888(5) -0.3662(3) -0.6709(2)
H10 H -0.6332 -0.4165 -0.7040
C19 C -0.5955(4) -0.3738(3) -0.5916(2)
H11 H -0.6454 -0.4300 -0.5727
C20 C -0.4600(4) -0.2222(3) -0.5695(2)
C21 C -0.3903(5) -0.1494(3) -0.5147(2)
H12 H -0.3230 -0.3730 -0.3400
H13 H -0.2299 -0.3564 -0.3820
In1C In -0.06548(3) -0.198600(19) 0.088940(15)
In1A In -0.93452(3) 0.198600(19) -0.088940(15)
O3A O -0.6967(3) -0.43640(19) -0.44032(15)
O5C O -0.8036(3) -0.22355(16) -0.43746(14)
loop_
_geom_bond_atom_site_label_1
_geom_bond_atom_site_label_2
_geom_bond_site_symmetry_1
_geom_bond_site_symmetry_2
C1 C4 1_555 1_555
In1 N1 1_555 1_555
N1 C19 1_555 1_555
N2 In1 1_555 1_555
O1 In1 1_555 1_555
O2 C2 1_555 1_555
O3 C9 1_555 1_555
O4 C9 1_555 1_555
O5 C8 1_555 1_555
O6 C8 1_555 1_555
O7 In1 1_555 1_555
C2 O1 1_555 1_555
C3 C2 1_555 1_555
C4 C3 1_555 1_555
H1 C4 1_555 1_555
C5 C3 1_555 1_555
H2 C5 1_555 1_555
C6 C5 1_555 1_555
C7 C1 1_555 1_555
H3 C7 1_555 1_555
C8 C6 1_555 1_555
C9 C1 1_555 1_555
C10 N2 1_555 1_555
H4 C10 1_555 1_555
C11 C10 1_555 1_555
H5 C11 1_555 1_555
C12 C11 1_555 1_555
H6 C12 1_555 1_555
C13 C12 1_555 1_555
C14 C13 1_555 1_555
H7 C14 1_555 1_555
C15 C14 1_555 1_555
H8 C15 1_555 1_555
C16 C15 1_555 1_555
C17 C16 1_555 1_555
H9 C17 1_555 1_555
C18 C17 1_555 1_555
H10 C18 1_555 1_555
C19 C18 1_555 1_555
H11 C19 1_555 1_555
C20 N1 1_555 1_555
C21 N2 1_555 1_555
H12 O7 1_555 1_555
H13 O7 1_555 1_555
In1C O5 1_555 1_555
In1A O3 1_555 1_555
O3A In1 1_555 1_555
O5C In1 1_555 1_555
C6 C7 1_555 1_555
C13 C21 1_555 1_555
C16 C20 1_555 1_555
C20 C21 1_555 1_555

#END
