
#######################################################################
#
#                 Cambridge Crystallographic Data Centre
#                                CCDC 
#
#######################################################################
#
# If this CIF has been generated from an entry in the Cambridge 
# Structural Database, then it will include bibliographic, chemical, 
# crystal, experimental, refinement or atomic coordinate data resulting 
# from the CCDC's data processing and validation procedures.
#
#######################################################################

data_NAVVUB
_symmetry_cell_setting           orthorhombic
_symmetry_space_group_name_H-M   'P 21 21 21'
_symmetry_Int_Tables_number      19
_space_group_name_Hall           'P 2ac 2ab'
loop_
_symmetry_equiv_pos_site_id
_symmetry_equiv_pos_as_xyz
1 x,y,z
2 1/2-x,-y,1/2+z
3 1/2+x,1/2-y,-z
4 -x,1/2+y,1/2-z
_cell_length_a                   10.684(3)
_cell_length_b                   17.507(3)
_cell_length_c                   20.562(3)
_cell_angle_alpha                90
_cell_angle_beta                 90
_cell_angle_gamma                90
_cell_volume                     3846.01
loop_
_atom_site_label
_atom_site_type_symbol
_atom_site_fract_x
_atom_site_fract_y
_atom_site_fract_z
Cu1 Cu 0.87899(6) 0.51028(4) 0.84964(3)
O1 O 0.7046(3) 0.5455(2) 1.28141(12)
O2 O 0.4559(3) 0.5229(2) 1.31885(13)
C1 C 0.6504(4) 0.5962(2) 1.2483(2)
C2 C 0.5250(4) 0.6136(3) 1.2438(2)
H1 H 0.4988(4) 0.6508(3) 1.2145(2)
C3 C 0.4384(4) 0.5771(3) 1.2816(2)
C4 C 0.7369(5) 0.6379(3) 1.2030(2)
F1 F 0.8471(4) 0.6475(3) 1.2245(2)
F2 F 0.7530(4) 0.6040(3) 1.1489(2)
F3 F 0.7158(4) 0.7055(2) 1.1906(2)
C5 C 0.3043(6) 0.6018(4) 1.2730(3)
F4 F 0.2805(3) 0.6528(3) 1.3158(2)
F5 F 0.2692(4) 0.6199(3) 1.2192(2)
F6 F 0.2270(4) 0.5527(3) 1.2940(3)
O3 O 0.7725(2) 0.48331(14) 1.40106(12)
O4 O 0.5481(3) 0.4030(2) 1.39561(12)
C6 C 0.7957(4) 0.4308(2) 1.4378(2)
C7 C 0.7167(6) 0.3676(3) 1.4519(2)
H2 H 0.7515(6) 0.3294(3) 1.4777(2)
C8 C 0.6005(6) 0.3564(3) 1.4330(2)
C9 C 0.9327(5) 0.4357(3) 1.4663(3)
F7 F 0.9366(4) 0.4017(2) 1.52579(13)
F8 F 0.9670(3) 0.5036(2) 1.4759(2)
F9 F 1.0069(3) 0.3992(3) 1.4325(2)
C10 C 0.5287(6) 0.2864(3) 1.4447(3)
F10 F 0.5550(6) 0.2624(3) 1.5045(2)
F11 F 0.4148(3) 0.2910(2) 1.4441(3)
F12 F 0.5664(5) 0.2339(2) 1.4073(2)
O5 O 0.8850(3) 0.37572(15) 0.90043(11)
O6 O 0.6093(3) 0.2849(2) 1.05797(13)
N1 N 0.8416(3) 0.3586(2) 0.95668(14)
N2 N 0.7797(3) 0.3690(2) 1.23967(13)
O7 O 0.7293(3) 0.3729(2) 1.29442(11)
O8 O 1.0389(2) 0.3579(2) 1.13647(12)
C11 C 0.7349(3) 0.3052(2) 0.9595(2)
C12 C 0.6298(4) 0.3254(3) 0.9129(2)
H3 H 0.6029(4) 0.3770(3) 0.9208(2)
H4 H 0.5607(4) 0.2912(3) 0.9196(2)
H5 H 0.6591(4) 0.3209(3) 0.8690(2)
C13 C 0.7842(4) 0.2261(2) 0.9517(2)
H6 H 0.8501(4) 0.2175(2) 0.9825(2)
H7 H 0.8163(4) 0.2198(2) 0.9084(2)
H8 H 0.7179(4) 0.1901(2) 0.9590(2)
C14 C 0.6983(4) 0.3167(2) 1.0331(2)
C15 C 0.7940(3) 0.3631(2) 1.0631(2)
C16 C 0.8765(4) 0.3882(2) 1.0144(2)
C17 C 0.9785(4) 0.4447(2) 1.0170(2)
C18 C 0.9699(4) 0.5072(3) 1.0598(2)
H9 H 0.8989(4) 0.5133(3) 1.0854(2)
C19 C 1.0667(5) 0.5599(3) 1.0640(2)
H10 H 1.0615(5) 0.6013(3) 1.0922(2)
C20 C 1.1706(5) 0.5495(3) 1.0255(2)
H11 H 1.2338(5) 0.5860(3) 1.0264(2)
C21 C 1.1836(4) 0.4888(3) 0.9868(2)
H12 H 1.2579(4) 0.4822(3) 0.9639(2)
C22 C 1.0886(4) 0.4355(2) 0.9800(2)
H13 H 1.0974(4) 0.3945(2) 0.9517(2)
C23 C 0.8126(4) 0.3676(2) 1.1311(2)
C24 C 0.7210(4) 0.3695(2) 1.1813(2)
C25 C 0.5848(3) 0.3860(2) 1.1769(2)
C26 C 0.5451(4) 0.4398(2) 1.1343(2)
H14 H 0.6009(4) 0.4659(2) 1.1076(2)
C27 C 0.4184(4) 0.4539(3) 1.1323(2)
H15 H 0.3899(4) 0.4912(3) 1.1037(2)
C28 C 0.3323(4) 0.4171(3) 1.1693(2)
H16 H 0.2474(4) 0.4271(3) 1.1642(2)
C29 C 0.3717(5) 0.3660(3) 1.2133(2)
H17 H 0.3153(5) 0.3429(3) 1.2416(2)
C30 C 0.5019(4) 0.3476(3) 1.2158(2)
H18 H 0.5304(4) 0.3096(3) 1.2438(2)
C31 C 0.9213(4) 0.3648(2) 1.2355(2)
C32 C 0.9736(4) 0.4395(3) 1.2635(2)
H19 H 0.9392(4) 0.4821(3) 1.2401(2)
H20 H 1.0631(4) 0.4398(3) 1.2594(2)
H21 H 0.9512(4) 0.4435(3) 1.3086(2)
C33 C 0.9675(5) 0.2944(3) 1.2675(2)
H22 H 0.9533(5) 0.2979(3) 1.3135(2)
H23 H 1.0555(5) 0.2888(3) 1.2594(2)
H24 H 0.9236(5) 0.2510(3) 1.2505(2)
C34 C 0.9378(4) 0.3672(2) 1.1623(2)
Cu1A Cu 0.62101(6) 0.48972(4) 1.34964(3)
O5A O 0.6150(3) 0.62428(15) 1.40043(11)
loop_
_geom_bond_atom_site_label_1
_geom_bond_atom_site_label_2
_geom_bond_site_symmetry_1
_geom_bond_site_symmetry_2
Cu1 O5 1_555 1_555
O1 C1 1_555 1_555
O2 C3 1_555 1_555
C1 C2 1_555 1_555
C2 H1 1_555 1_555
C3 C2 1_555 1_555
C4 C1 1_555 1_555
F1 C4 1_555 1_555
F2 C4 1_555 1_555
F3 C4 1_555 1_555
C5 C3 1_555 1_555
F4 C5 1_555 1_555
F5 C5 1_555 1_555
F6 C5 1_555 1_555
O3 C6 1_555 1_555
O4 C8 1_555 1_555
C6 C7 1_555 1_555
C7 H2 1_555 1_555
C8 C7 1_555 1_555
C9 C6 1_555 1_555
F7 C9 1_555 1_555
F8 C9 1_555 1_555
F9 C9 1_555 1_555
C10 C8 1_555 1_555
F10 C10 1_555 1_555
F11 C10 1_555 1_555
F12 C10 1_555 1_555
O5 N1 1_555 1_555
O6 C14 1_555 1_555
N1 C11 1_555 1_555
N2 O7 1_555 1_555
O7 Cu1A 1_555 1_555
O8 C34 1_555 1_555
C11 C12 1_555 1_555
C12 H3 1_555 1_555
H4 C12 1_555 1_555
H5 C12 1_555 1_555
C13 C11 1_555 1_555
H6 C13 1_555 1_555
H7 C13 1_555 1_555
H8 C13 1_555 1_555
C14 C11 1_555 1_555
C15 C14 1_555 1_555
C16 N1 1_555 1_555
C17 C16 1_555 1_555
C18 C17 1_555 1_555
H9 C18 1_555 1_555
C19 C18 1_555 1_555
H10 C19 1_555 1_555
C20 C19 1_555 1_555
H11 C20 1_555 1_555
C21 C20 1_555 1_555
H12 C21 1_555 1_555
C22 C17 1_555 1_555
H13 C22 1_555 1_555
C23 C15 1_555 1_555
C24 N2 1_555 1_555
C25 C24 1_555 1_555
C26 C25 1_555 1_555
H14 C26 1_555 1_555
C27 C26 1_555 1_555
H15 C27 1_555 1_555
C28 C27 1_555 1_555
H16 C28 1_555 1_555
C29 C28 1_555 1_555
H17 C29 1_555 1_555
C30 C25 1_555 1_555
H18 C30 1_555 1_555
C31 N2 1_555 1_555
C32 C31 1_555 1_555
H19 C32 1_555 1_555
H20 C32 1_555 1_555
H21 C32 1_555 1_555
C33 C31 1_555 1_555
H22 C33 1_555 1_555
H23 C33 1_555 1_555
H24 C33 1_555 1_555
C34 C23 1_555 1_555
Cu1A O1 1_555 1_555
O5A Cu1A 1_555 1_555
O2 Cu1A 1_555 1_555
O3 Cu1A 1_555 1_555
O4 Cu1A 1_555 1_555
C15 C16 1_555 1_555
C21 C22 1_555 1_555
C23 C24 1_555 1_555
C29 C30 1_555 1_555
C31 C34 1_555 1_555

#END
