
#######################################################################
#
#                 Cambridge Crystallographic Data Centre
#                                CCDC 
#
#######################################################################
#
# If this CIF has been generated from an entry in the Cambridge 
# Structural Database, then it will include bibliographic, chemical, 
# crystal, experimental, refinement or atomic coordinate data resulting 
# from the CCDC's data processing and validation procedures.
#
#######################################################################

data_NAVWEN
_symmetry_cell_setting           tetragonal
_symmetry_space_group_name_H-M   'I -4'
_symmetry_Int_Tables_number      82
_space_group_name_Hall           'I -4'
loop_
_symmetry_equiv_pos_site_id
_symmetry_equiv_pos_as_xyz
1 x,y,z
2 -x,-y,z
3 y,-x,-z
4 -y,x,-z
5 1/2+x,1/2+y,1/2+z
6 1/2-x,1/2-y,1/2+z
7 1/2+y,1/2-x,1/2-z
8 1/2-y,1/2+x,1/2-z
_cell_length_a                   17.880(5)
_cell_length_b                   17.880(5)
_cell_length_c                   8.254(4)
_cell_angle_alpha                90
_cell_angle_beta                 90
_cell_angle_gamma                90
_cell_volume                     2638.76
loop_
_atom_site_label
_atom_site_type_symbol
_atom_site_fract_x
_atom_site_fract_y
_atom_site_fract_z
Zn1 Zn 0.0000 0.5000 1.2500
Zn2 Zn 0.0000 0.0000 0.0000
N1 N 0.03982(15) 0.07554(15) 0.1571(4)
C1 C 0.00026(19) 0.09217(19) 0.2890(4)
H1 H -0.0483 0.0737 0.2957
C2 C 0.02614(19) 0.13481(18) 0.4164(5)
H2 H -0.0041 0.1448 0.5054
C3 C 0.0992(2) 0.16264(19) 0.4081(4)
C4 C 0.1405(2) 0.1466(2) 0.2674(5)
H3 H 0.1887 0.1653 0.2554
C5 C 0.1098(2) 0.10361(19) 0.1490(5)
H4 H 0.1384 0.0930 0.0578
N2 N 0.13116(17) 0.20723(17) 0.5249(4)
C6 C 0.09766(19) 0.23154(19) 0.6671(5)
O1 O 0.04806(15) 0.19907(15) 0.7344(3)
N3 N 0.12896(19) 0.29789(19) 0.7165(4)
C7 C 0.10613(18) 0.3399(2) 0.8489(5)
C8 C 0.06744(19) 0.31061(19) 0.9815(5)
H5 H 0.0574 0.2597 0.9887
C9 C 0.04467(19) 0.35867(19) 1.1006(5)
H6 H 0.0192 0.3385 1.1887
N4 N 0.05632(16) 0.43276(16) 1.0997(4)
C10 C 0.0969(2) 0.4602(2) 0.9742(5)
H7 H 0.1080 0.5110 0.9726
C11 C 0.1223(2) 0.4164(2) 0.8497(5)
H8 H 0.1502 0.4374 0.7661
H9 H 0.169(2) 0.2299(18) 0.493(5)
H10 H 0.152(3) 0.321(3) 0.659(6)
Zn2_2 Zn 0.0000 1.0000 0.0000
Zn2D Zn -0.5000 0.5000 2.5000
Zn2D_2 Zn 0.5000 0.5000 2.5000
N1A N -0.03982(15) 0.92446(15) 0.1571(4)
N1F N -0.42446(15) 0.46018(15) 2.3429(4)
N1G N 0.42446(15) 0.53982(15) 2.3429(4)
N1A_2 N -0.03982(15) -0.07554(15) 0.1571(4)
N1B N 0.07554(15) -0.03982(15) -0.1571(4)
N1C N -0.07554(15) 0.03982(15) -0.1571(4)
C1A C -0.00026(19) 0.90783(19) 0.2890(4)
C1F C -0.40783(19) 0.49974(19) 2.2110(4)
C1G C 0.40783(19) 0.50026(19) 2.2110(4)
H1A H 0.0483 0.9263 0.2957
H1F H -0.4263 0.5483 2.2043
H1G H 0.4263 0.4517 2.2043
C2A C -0.02614(19) 0.86519(18) 0.4164(5)
C2F C -0.36519(18) 0.47386(19) 2.0836(5)
C2G C 0.36519(18) 0.52614(19) 2.0836(5)
H2A H 0.0041 0.8552 0.5054
H2F H -0.3552 0.5041 1.9946
H2G H 0.3552 0.4959 1.9946
C3A C -0.0992(2) 0.83736(19) 0.4081(4)
C3F C -0.33736(19) 0.4008(2) 2.0919(4)
C3G C 0.33736(19) 0.5992(2) 2.0919(4)
C4A C -0.1405(2) 0.8534(2) 0.2674(5)
C4F C -0.3534(2) 0.3595(2) 2.2326(5)
C4G C 0.3534(2) 0.6405(2) 2.2326(5)
H3A H -0.1887 0.8347 0.2554
H3F H -0.3347 0.3113 2.2446
H3G H 0.3347 0.6887 2.2446
C5A C -0.1098(2) 0.89639(19) 0.1490(5)
C5F C -0.39639(19) 0.3902(2) 2.3510(5)
C5G C 0.39639(19) 0.6098(2) 2.3510(5)
H4A H -0.1384 0.9070 0.0578
H4F H -0.4070 0.3616 2.4422
H4G H 0.4070 0.6384 2.4422
N2A N -0.13116(17) 0.79277(17) 0.5249(4)
N2F N -0.29277(17) 0.36884(17) 1.9751(4)
N2G N 0.29277(17) 0.63116(17) 1.9751(4)
C6A C -0.09766(19) 0.76846(19) 0.6671(5)
C6F C -0.26846(19) 0.40234(19) 1.8329(5)
C6G C 0.26846(19) 0.59766(19) 1.8329(5)
O1A O -0.04806(15) 0.80093(15) 0.7344(3)
O1F O -0.30093(15) 0.45194(15) 1.7656(3)
O1G O 0.30093(15) 0.54806(15) 1.7656(3)
N3A N -0.12896(19) 0.70211(19) 0.7165(4)
N3F N -0.20211(19) 0.37104(19) 1.7835(4)
N3G N 0.20211(19) 0.62896(19) 1.7835(4)
C7A C -0.10613(18) 0.6601(2) 0.8489(5)
C7F C -0.1601(2) 0.39387(18) 1.6511(5)
C7G C 0.1601(2) 0.60613(18) 1.6511(5)
C8A C -0.06744(19) 0.68939(19) 0.9815(5)
C8F C -0.18939(19) 0.43256(19) 1.5185(5)
C8G C 0.18939(19) 0.56744(19) 1.5185(5)
H5A H -0.0574 0.7403 0.9887
H5F H -0.2403 0.4426 1.5113
H5G H 0.2403 0.5574 1.5113
C9A C -0.04467(19) 0.64133(19) 1.1006(5)
C9F C -0.14133(19) 0.45533(19) 1.3994(5)
C9G C 0.14133(19) 0.54467(19) 1.3994(5)
H6A H -0.0192 0.6615 1.1887
H6F H -0.1615 0.4808 1.3113
H6G H 0.1615 0.5192 1.3113
N4A N -0.05632(16) 0.56724(16) 1.0997(4)
N4F N -0.06724(16) 0.44368(16) 1.4003(4)
N4G N 0.06724(16) 0.55632(16) 1.4003(4)
C10A C -0.0969(2) 0.5398(2) 0.9742(5)
C10F C -0.0398(2) 0.4031(2) 1.5258(5)
C10G C 0.0398(2) 0.5969(2) 1.5258(5)
H7A H -0.1080 0.4890 0.9726
H7F H 0.0110 0.3920 1.5274
H7G H -0.0110 0.6080 1.5274
C11A C -0.1223(2) 0.5836(2) 0.8497(5)
C11F C -0.0836(2) 0.3777(2) 1.6503(5)
C11G C 0.0836(2) 0.6223(2) 1.6503(5)
H8A H -0.1502 0.5626 0.7661
H8F H -0.0626 0.3498 1.7339
H8G H 0.0626 0.6502 1.7339
H9A H -0.169(2) 0.7701(18) 0.493(5)
H9F H -0.2701(18) 0.331(2) 2.007(5)
H9G H 0.2701(18) 0.669(2) 2.007(5)
H10A H -0.152(3) 0.679(3) 0.659(6)
H10F H -0.179(3) 0.348(3) 1.841(6)
H10G H 0.179(3) 0.652(3) 1.841(6)
Cl1 Cl 0.27506(5) 0.14134(5) 0.83974(11)
O2 O 0.24031(16) 0.19512(16) 0.9470(4)
O3 O 0.34765(14) 0.12269(14) 0.9074(3)
O4 O 0.28480(17) 0.1737(2) 0.6845(4)
O5 O 0.22986(14) 0.07639(15) 0.8317(4)
loop_
_geom_bond_atom_site_label_1
_geom_bond_atom_site_label_2
_geom_bond_site_symmetry_1
_geom_bond_site_symmetry_2
Zn1 N4 1_555 1_555
Zn2 N1 1_555 1_555
N1 C1 1_555 1_555
C1 H1 1_555 1_555
C2 C1 1_555 1_555
H2 C2 1_555 1_555
C3 C2 1_555 1_555
C4 C3 1_555 1_555
H3 C4 1_555 1_555
C5 N1 1_555 1_555
H4 C5 1_555 1_555
N2 C3 1_555 1_555
C6 N2 1_555 1_555
O1 C6 1_555 1_555
N3 C6 1_555 1_555
C7 N3 1_555 1_555
C8 C7 1_555 1_555
H5 C8 1_555 1_555
C9 C8 1_555 1_555
H6 C9 1_555 1_555
N4 C9 1_555 1_555
C10 N4 1_555 1_555
H7 C10 1_555 1_555
C11 C7 1_555 1_555
H8 C11 1_555 1_555
Cl1 O2 1_555 1_555
O3 Cl1 1_555 1_555
O4 Cl1 1_555 1_555
O5 Cl1 1_555 1_555
H9 N2 1_555 1_555
H10 N3 1_555 1_555
Zn2_2 N1A 1_555 1_555
Zn2D N1F 1_555 1_555
Zn2D_2 N1G 1_555 1_555
N1A C1A 1_555 1_555
N1F C1F 1_555 1_555
N1G C1G 1_555 1_555
N1A_2 Zn2 1_555 1_555
N1B Zn2 1_555 1_555
N1C Zn2 1_555 1_555
C1A H1A 1_555 1_555
C1F H1F 1_555 1_555
C1G H1G 1_555 1_555
C2A C1A 1_555 1_555
C2F C1F 1_555 1_555
C2G C1G 1_555 1_555
H2A C2A 1_555 1_555
H2F C2F 1_555 1_555
H2G C2G 1_555 1_555
C3A C2A 1_555 1_555
C3F C2F 1_555 1_555
C3G C2G 1_555 1_555
C4A C3A 1_555 1_555
C4F C3F 1_555 1_555
C4G C3G 1_555 1_555
H3A C4A 1_555 1_555
H3F C4F 1_555 1_555
H3G C4G 1_555 1_555
C5A N1A 1_555 1_555
C5F N1F 1_555 1_555
C5G N1G 1_555 1_555
H4A C5A 1_555 1_555
H4F C5F 1_555 1_555
H4G C5G 1_555 1_555
N2A C3A 1_555 1_555
N2F C3F 1_555 1_555
N2G C3G 1_555 1_555
C6A N2A 1_555 1_555
C6F N2F 1_555 1_555
C6G N2G 1_555 1_555
O1A C6A 1_555 1_555
O1F C6F 1_555 1_555
O1G C6G 1_555 1_555
N3A C6A 1_555 1_555
N3F C6F 1_555 1_555
N3G C6G 1_555 1_555
C7A N3A 1_555 1_555
C7F N3F 1_555 1_555
C7G N3G 1_555 1_555
C8A C7A 1_555 1_555
C8F C7F 1_555 1_555
C8G C7G 1_555 1_555
H5A C8A 1_555 1_555
H5F C8F 1_555 1_555
H5G C8G 1_555 1_555
C9A C8A 1_555 1_555
C9F C8F 1_555 1_555
C9G C8G 1_555 1_555
H6A C9A 1_555 1_555
H6F C9F 1_555 1_555
H6G C9G 1_555 1_555
N4A Zn1 1_555 1_555
N4F Zn1 1_555 1_555
N4G Zn1 1_555 1_555
C10A N4A 1_555 1_555
C10F N4F 1_555 1_555
C10G N4G 1_555 1_555
H7A C10A 1_555 1_555
H7F C10F 1_555 1_555
H7G C10G 1_555 1_555
C11A C7A 1_555 1_555
C11F C7F 1_555 1_555
C11G C7G 1_555 1_555
H8A C11A 1_555 1_555
H8F C11F 1_555 1_555
H8G C11G 1_555 1_555
H9A N2A 1_555 1_555
H9F N2F 1_555 1_555
H9G N2G 1_555 1_555
H10A N3A 1_555 1_555
H10F N3F 1_555 1_555
H10G N3G 1_555 1_555
C4 C5 1_555 1_555
C10 C11 1_555 1_555
C4A C5A 1_555 1_555
C4F C5F 1_555 1_555
C4G C5G 1_555 1_555
C9A N4A 1_555 1_555
C9F N4F 1_555 1_555
C9G N4G 1_555 1_555
C10A C11A 1_555 1_555
C10F C11F 1_555 1_555
C10G C11G 1_555 1_555

#END
