
#######################################################################
#
#                 Cambridge Crystallographic Data Centre
#                                CCDC 
#
#######################################################################
#
# If this CIF has been generated from an entry in the Cambridge 
# Structural Database, then it will include bibliographic, chemical, 
# crystal, experimental, refinement or atomic coordinate data resulting 
# from the CCDC's data processing and validation procedures.
#
#######################################################################

data_NAVWAJ
_symmetry_cell_setting           triclinic
_symmetry_space_group_name_H-M   'P -1'
_symmetry_Int_Tables_number      2
_space_group_name_Hall           '-P 1'
loop_
_symmetry_equiv_pos_site_id
_symmetry_equiv_pos_as_xyz
1 x,y,z
2 -x,-y,-z
_cell_length_a                   10.678(1)
_cell_length_b                   14.646(1)
_cell_length_c                   18.326(1)
_cell_angle_alpha                109.106(2)
_cell_angle_beta                 98.516(2)
_cell_angle_gamma                106.300(1)
_cell_volume                     2506.65
loop_
_atom_site_label
_atom_site_type_symbol
_atom_site_fract_x
_atom_site_fract_y
_atom_site_fract_z
Ba1 Ba 0.61249(3) 0.57091(2) 0.622303(18)
P1 P 0.45777(13) 0.27013(9) 0.50885(7)
P2 P 0.54662(15) 0.33981(10) 0.68134(8)
P3 P 0.85502(12) 0.75589(9) 0.83801(7)
P4 P 0.58768(12) 0.77369(9) 0.81418(7)
O1 O 0.4807(3) 0.3715(2) 0.49889(17)
O2 O 0.6032(4) 0.4539(2) 0.70250(19)
O3 O 0.8325(3) 0.6806(2) 0.75431(17)
O4 O 0.5358(3) 0.7068(2) 0.72695(17)
N1 N 0.4536(4) 0.2672(3) 0.5937(2)
N2 N 0.7365(4) 0.7933(3) 0.8587(2)
C1 C 0.2966(5) 0.1774(3) 0.4432(3)
C2 C 0.1978(6) 0.1273(5) 0.4711(4)
H1 H 0.2119 0.1397 0.5253
C3 C 0.0752(7) 0.0570(6) 0.4161(6)
H2 H 0.0072 0.0225 0.4341
C4 C 0.0539(9) 0.0382(6) 0.3357(5)
H3 H -0.0275 -0.0090 0.2995
C5 C 0.1490(9) 0.0872(5) 0.3108(5)
H4 H 0.1340 0.0752 0.2567
C6 C 0.2694(6) 0.1553(4) 0.3622(3)
H5 H 0.3355 0.1880 0.3422
C7 C 0.5805(6) 0.2178(4) 0.4709(3)
C8 C 0.5794(8) 0.1224(6) 0.4680(4)
H6 H 0.5134 0.0846 0.4853
C9 C 0.6725(11) 0.0812(8) 0.4407(6)
H7 H 0.6707 0.0171 0.4400
C10 C 0.7666(11) 0.1364(9) 0.4148(8)
H8 H 0.8331 0.1115 0.3983
C11 C 0.7649(8) 0.2270(8) 0.4127(6)
H9 H 0.8265 0.2615 0.3912
C12 C 0.6746(7) 0.2694(5) 0.4417(5)
H10 H 0.6772 0.3333 0.4415
C13 C 0.4401(5) 0.3171(4) 0.7468(3)
C14 C 0.4320(6) 0.3969(4) 0.8090(3)
H11 H 0.4833 0.4643 0.8180
C15 C 0.3511(7) 0.3808(6) 0.8582(4)
H12 H 0.3471 0.4372 0.8989
C16 C 0.2776(7) 0.2852(6) 0.8485(4)
H13 H 0.2228 0.2750 0.8823
C17 C 0.2836(6) 0.2042(5) 0.7898(4)
H14 H 0.2333 0.1376 0.7833
C18 C 0.3645(6) 0.2187(4) 0.7382(3)
H15 H 0.3674 0.1617 0.6977
C19 C 0.6829(6) 0.2954(4) 0.7038(3)
C20 C 0.6643(7) 0.1930(5) 0.6797(4)
H16 H 0.5789 0.1440 0.6515
C21 C 0.7707(10) 0.1614(7) 0.6968(6)
H17 H 0.7569 0.0913 0.6802
C22 C 0.8951(10) 0.2318(9) 0.7377(6)
H18 H 0.9663 0.2094 0.7490
C23 C 0.9178(9) 0.3308(8) 0.7617(5)
H19 H 1.0043 0.3786 0.7891
C24 C 0.8102(7) 0.3630(5) 0.7455(4)
H20 H 0.8256 0.4334 0.7639
C25 C 0.8968(4) 0.6993(3) 0.9080(3)
C26 C 0.8154(6) 0.6017(4) 0.8945(3)
H21 H 0.7455 0.5652 0.8478
C27 C 0.8333(7) 0.5561(5) 0.9472(4)
H22 H 0.7750 0.4900 0.9367
C28 C 0.9372(7) 0.6077(5) 1.0157(4)
H23 H 0.9500 0.5772 1.0521
C29 C 1.0215(6) 0.7043(5) 1.0299(3)
H24 H 1.0927 0.7398 1.0761
C30 C 1.0023(5) 0.7501(4) 0.9763(3)
H25 H 1.0611 0.8158 0.9864
C31 C 1.0037(4) 0.8664(3) 0.8604(3)
C32 C 1.1168(5) 0.8533(4) 0.8397(3)
H26 H 1.1161 0.7869 0.8136
C33 C 1.2332(5) 0.9375(5) 0.8568(4)
H27 H 1.3090 0.9273 0.8414
C34 C 1.2355(6) 1.0337(4) 0.8957(3)
H28 H 1.3131 1.0902 0.9072
C35 C 1.1252(6) 1.0485(4) 0.9181(3)
H29 H 1.1281 1.1151 0.9457
C36 C 1.0083(5) 0.9656(4) 0.9003(3)
H30 H 0.9325 0.9768 0.9152
C37 C 0.4763(5) 0.7212(3) 0.8678(3)
C38 C 0.3387(5) 0.6928(4) 0.8403(3)
H31 H 0.3034 0.7010 0.7943
C39 C 0.2518(5) 0.6523(4) 0.8798(4)
H32 H 0.1588 0.6325 0.8601
C40 C 0.3021(7) 0.6416(4) 0.9468(4)
H33 H 0.2438 0.6155 0.9740
C41 C 0.4383(6) 0.6687(4) 0.9754(3)
H34 H 0.4725 0.6604 1.0215
C42 C 0.5248(5) 0.7083(3) 0.9360(3)
H35 H 0.6176 0.7266 0.9558
C43 C 0.5778(5) 0.9004(3) 0.8328(3)
C44 C 0.6237(5) 0.9754(4) 0.9074(3)
H36 H 0.6568 0.9599 0.9500
C45 C 0.6232(6) 1.0734(4) 0.9227(4)
H37 H 0.6555 1.1228 0.9748
C46 C 0.5762(7) 1.0977(5) 0.8627(5)
H38 H 0.5760 1.1642 0.8728
C47 C 0.5291(7) 1.0254(5) 0.7873(5)
H39 H 0.4967 1.0424 0.7454
C48 C 0.5286(6) 0.9245(4) 0.7714(3)
H40 H 0.4949 0.8747 0.7195
O5 O 0.8379(5) 0.5242(4) 0.5904(3)
O6 O 0.9911(4) 0.5872(3) 0.7064(3)
H41 H 0.9435 0.6210 0.7213
C49 C 0.9422(8) 0.5304(6) 0.6302(4)
C50 C 1.0313(8) 0.4739(8) 0.5972(5)
H42 H 0.9718 0.4087 0.5553
H43 H 1.0827 0.5130 0.5711
C51 C 1.1231(9) 0.4511(7) 0.6439(6)
H44 H 1.0731 0.3939 0.6560
H45 H 1.1660 0.5102 0.6943
C52 C 1.2330(9) 0.4235(10) 0.6084(6)
H46 H 1.2789 0.3963 0.6412
H47 H 1.1912 0.3691 0.5555
O7 O 1.3309(5) 0.5071(5) 0.6019(5)
H48 H 1.3710 0.5518 0.6466
Ba1A Ba 0.38751(3) 0.42909(2) 0.377697(18)
Ba1_2 Ba 1.61249(3) 0.57091(2) 0.622303(18)
O1A O 0.5193(3) 0.6285(2) 0.50111(17)
O7_2 O 0.3309(5) 0.5071(5) 0.6019(5)
H48_2 H 0.3710 0.5518 0.6466
loop_
_geom_bond_atom_site_label_1
_geom_bond_atom_site_label_2
_geom_bond_site_symmetry_1
_geom_bond_site_symmetry_2
Ba1 O1 1_555 1_555
P1 O1 1_555 1_555
P2 O2 1_555 1_555
P3 O3 1_555 1_555
P4 O4 1_555 1_555
O1 Ba1A 1_555 1_555
O2 Ba1 1_555 1_555
O3 Ba1 1_555 1_555
O4 Ba1 1_555 1_555
N1 P1 1_555 1_555
N2 P3 1_555 1_555
C1 P1 1_555 1_555
C2 C1 1_555 1_555
H1 C2 1_555 1_555
C3 C2 1_555 1_555
H2 C3 1_555 1_555
C4 C3 1_555 1_555
H3 C4 1_555 1_555
C5 C4 1_555 1_555
H4 C5 1_555 1_555
C6 C1 1_555 1_555
H5 C6 1_555 1_555
C7 P1 1_555 1_555
C8 C7 1_555 1_555
H6 C8 1_555 1_555
C9 C8 1_555 1_555
H7 C9 1_555 1_555
C10 C9 1_555 1_555
H8 C10 1_555 1_555
C11 C10 1_555 1_555
H9 C11 1_555 1_555
C12 C7 1_555 1_555
H10 C12 1_555 1_555
C13 P2 1_555 1_555
C14 C13 1_555 1_555
H11 C14 1_555 1_555
C15 C14 1_555 1_555
H12 C15 1_555 1_555
C16 C15 1_555 1_555
H13 C16 1_555 1_555
C17 C16 1_555 1_555
H14 C17 1_555 1_555
C18 C13 1_555 1_555
H15 C18 1_555 1_555
C19 P2 1_555 1_555
C20 C19 1_555 1_555
H16 C20 1_555 1_555
C21 C20 1_555 1_555
H17 C21 1_555 1_555
C22 C21 1_555 1_555
H18 C22 1_555 1_555
C23 C22 1_555 1_555
H19 C23 1_555 1_555
C24 C19 1_555 1_555
H20 C24 1_555 1_555
C25 P3 1_555 1_555
C26 C25 1_555 1_555
H21 C26 1_555 1_555
C27 C26 1_555 1_555
H22 C27 1_555 1_555
C28 C27 1_555 1_555
H23 C28 1_555 1_555
C29 C28 1_555 1_555
H24 C29 1_555 1_555
C30 C25 1_555 1_555
H25 C30 1_555 1_555
C31 P3 1_555 1_555
C32 C31 1_555 1_555
H26 C32 1_555 1_555
C33 C32 1_555 1_555
H27 C33 1_555 1_555
C34 C33 1_555 1_555
H28 C34 1_555 1_555
C35 C34 1_555 1_555
H29 C35 1_555 1_555
C36 C31 1_555 1_555
H30 C36 1_555 1_555
C37 P4 1_555 1_555
C38 C37 1_555 1_555
H31 C38 1_555 1_555
C39 C38 1_555 1_555
H32 C39 1_555 1_555
C40 C39 1_555 1_555
H33 C40 1_555 1_555
C41 C40 1_555 1_555
H34 C41 1_555 1_555
C42 C37 1_555 1_555
H35 C42 1_555 1_555
C43 P4 1_555 1_555
C44 C43 1_555 1_555
H36 C44 1_555 1_555
C45 C44 1_555 1_555
H37 C45 1_555 1_555
C46 C45 1_555 1_555
H38 C46 1_555 1_555
C47 C46 1_555 1_555
H39 C47 1_555 1_555
C48 C43 1_555 1_555
H40 C48 1_555 1_555
O5 Ba1 1_555 1_555
O6 H41 1_555 1_555
C49 O5 1_555 1_555
C50 C49 1_555 1_555
H42 C50 1_555 1_555
H43 C50 1_555 1_555
C51 C50 1_555 1_555
H44 C51 1_555 1_555
H45 C51 1_555 1_555
C52 C51 1_555 1_555
H46 C52 1_555 1_555
H47 C52 1_555 1_555
O7 C52 1_555 1_555
H48 O7 1_555 1_555
Ba1A O1A 1_555 1_555
Ba1_2 O7 1_555 1_555
O1A Ba1 1_555 1_555
O7_2 Ba1 1_555 1_555
H48_2 O7_2 1_555 1_555
P2 N1 1_555 1_555
P4 N2 1_555 1_555
C5 C6 1_555 1_555
C11 C12 1_555 1_555
C17 C18 1_555 1_555
C23 C24 1_555 1_555
C29 C30 1_555 1_555
C35 C36 1_555 1_555
C41 C42 1_555 1_555
C47 C48 1_555 1_555
O6 C49 1_555 1_555

#END
