
#######################################################################
#
#                 Cambridge Crystallographic Data Centre
#                                CCDC 
#
#######################################################################
#
# If this CIF has been generated from an entry in the Cambridge 
# Structural Database, then it will include bibliographic, chemical, 
# crystal, experimental, refinement or atomic coordinate data resulting 
# from the CCDC's data processing and validation procedures.
#
#######################################################################

data_NAVXEN
_symmetry_cell_setting           triclinic
_symmetry_space_group_name_H-M   'P -1'
_symmetry_Int_Tables_number      2
_space_group_name_Hall           '-P 1'
loop_
_symmetry_equiv_pos_site_id
_symmetry_equiv_pos_as_xyz
1 x,y,z
2 -x,-y,-z
_cell_length_a                   6.913(1)
_cell_length_b                   9.760(2)
_cell_length_c                   13.104(3)
_cell_angle_alpha                85.42(3)
_cell_angle_beta                 82.25(3)
_cell_angle_gamma                87.06(3)
_cell_volume                     872.53
loop_
_atom_site_label
_atom_site_type_symbol
_atom_site_fract_x
_atom_site_fract_y
_atom_site_fract_z
Tl1 Tl 0.2217(1) 0.6172(1) 0.5523(1)
S1 S 0.7607(2) 0.2315(2) 0.9175(1)
O1 O 0.5154(7) 0.5406(5) 0.6561(4)
N1 N 0.4634(7) 0.4625(5) 0.7387(3)
N2 N 0.9344(9) 0.5404(8) 0.7467(5)
N3 N 0.3925(7) 0.3260(5) 0.9452(3)
N4 N 0.2239(6) 0.8428(4) 0.6579(3)
N5 N 0.2524(6) 0.8684(4) 0.4469(3)
C1 C 0.6003(7) 0.4341(5) 0.8002(4)
C2 C 0.5675(7) 0.3340(5) 0.8903(4)
C3 C 0.7889(8) 0.4870(6) 0.7722(4)
C4 C 0.3537(13) 0.2165(10) 1.0275(7)
C5 C 0.2329(11) 0.4291(9) 0.9375(6)
C6 C 0.2088(8) 0.8320(7) 0.7610(4)
C7 C 0.2021(10) 0.9442(8) 0.8201(5)
C8 C 0.2092(10) 1.0719(7) 0.7714(5)
C9 C 0.2294(7) 1.0894(5) 0.6638(4)
C10 C 0.2409(9) 1.2229(6) 0.6077(5)
C11 C 0.2595(8) 1.2334(6) 0.5038(4)
C12 C 0.2629(6) 1.1154(5) 0.4459(4)
C13 C 0.2764(8) 1.1240(6) 0.3397(4)
C14 C 0.2787(8) 1.0104(7) 0.2877(4)
C15 C 0.2654(9) 0.8831(6) 0.3445(4)
C16 C 0.2506(6) 0.9846(5) 0.4979(3)
C17 C 0.2336(6) 0.9703(5) 0.6103(4)
N2_2 N -0.0656(9) 0.5404(8) 0.7467(5)
Tl1_2 Tl 1.2217(1) 0.6172(1) 0.5523(1)
loop_
_geom_bond_atom_site_label_1
_geom_bond_atom_site_label_2
_geom_bond_site_symmetry_1
_geom_bond_site_symmetry_2
Tl1 O1 1_555 1_555
S1 C2 1_555 1_555
O1 N1 1_555 1_555
N1 C1 1_555 1_555
N2 C3 1_555 1_555
N3 C2 1_555 1_555
N4 Tl1 1_555 1_555
N5 Tl1 1_555 1_555
C1 C2 1_555 1_555
C3 C1 1_555 1_555
C4 N3 1_555 1_555
C5 N3 1_555 1_555
C6 N4 1_555 1_555
C7 C6 1_555 1_555
C8 C7 1_555 1_555
C9 C8 1_555 1_555
C10 C9 1_555 1_555
C11 C10 1_555 1_555
C12 C11 1_555 1_555
C13 C12 1_555 1_555
C14 C13 1_555 1_555
C15 N5 1_555 1_555
C16 N5 1_555 1_555
C17 N4 1_555 1_555
N2_2 Tl1 1_555 1_555
Tl1_2 N2 1_555 1_555
C9 C17 1_555 1_555
C12 C16 1_555 1_555
C14 C15 1_555 1_555
C16 C17 1_555 1_555

#END
