
#######################################################################
#
#                 Cambridge Crystallographic Data Centre
#                                CCDC 
#
#######################################################################
#
# If this CIF has been generated from an entry in the Cambridge 
# Structural Database, then it will include bibliographic, chemical, 
# crystal, experimental, refinement or atomic coordinate data resulting 
# from the CCDC's data processing and validation procedures.
#
#######################################################################

data_NAVYUG
_symmetry_cell_setting           monoclinic
_symmetry_space_group_name_H-M   'P 21/n'
_symmetry_Int_Tables_number      14
_space_group_name_Hall           '-P 2yn'
loop_
_symmetry_equiv_pos_site_id
_symmetry_equiv_pos_as_xyz
1 x,y,z
2 1/2-x,1/2+y,1/2-z
3 -x,-y,-z
4 1/2+x,1/2-y,1/2+z
_cell_length_a                   7.047(7)
_cell_length_b                   21.094(19)
_cell_length_c                   7.656(8)
_cell_angle_alpha                90
_cell_angle_beta                 108.527(17)
_cell_angle_gamma                90
_cell_volume                     1079.08
loop_
_atom_site_label
_atom_site_type_symbol
_atom_site_fract_x
_atom_site_fract_y
_atom_site_fract_z
Eu1 Eu 0.27899(7) 0.04318(2) 0.58579(7)
As1 As 0.24785(14) -0.10812(4) 0.47882(14)
O1 O 0.1459(9) 0.0431(3) 0.2528(9)
H1 H 0.1274 0.0811 0.2138
H2 H 0.0352 0.0233 0.2188
O2 O 0.0657(9) -0.0572(3) 0.4772(9)
O3 O 0.4507(9) -0.0614(3) 0.5375(9)
O4 O 0.2114(10) -0.1386(3) 0.2624(9)
H3 H 0.2684 -0.1162 0.2072
O5 O 0.2157(10) -0.3466(3) 0.9083(10)
O6 O 0.2823(11) -0.4035(3) 0.6218(11)
O7 O 0.2609(18) -0.3478(4) 0.3816(12)
O8 O 0.2759(9) -0.0274(3) 0.8440(9)
O9 O 0.4202(9) -0.0515(3) 1.1404(9)
N1 N 0.2665(14) -0.3523(4) 0.5443(12)
C1 C 0.2484(14) -0.1820(4) 0.6229(13)
C2 C 0.2628(15) -0.2392(5) 0.5439(15)
H4 H 0.2787 -0.2412 0.4281
C3 C 0.2528(15) -0.2953(5) 0.6417(15)
C4 C 0.2288(14) -0.2964(5) 0.8190(15)
C5 C 0.2179(17) -0.2353(5) 0.8970(16)
H5 H 0.2069 -0.2324 1.0146
C6 C 0.2234(17) -0.1803(5) 0.7999(17)
H6 H 0.2105 -0.1413 0.8518
C7 C 0.4119(13) -0.0223(4) 0.9964(13)
Eu1B Eu -0.27899(7) -0.04318(2) 0.41421(7)
Eu1B_2 Eu 0.72101(7) -0.04318(2) 0.41421(7)
Eu1A Eu 0.22101(7) -0.45682(2) 0.91421(7)
Eu1B_3 Eu 0.72101(7) -0.04318(2) 1.41421(7)
Eu1_2 Eu -0.72101(7) 0.04318(2) 0.58579(7)
Eu1C Eu -0.22101(7) 0.45682(2) 0.08579(7)
As1B As -0.24785(14) 0.10812(4) 0.52118(14)
O1B O -0.1459(9) -0.0431(3) 0.7472(9)
H1B H -0.1274 -0.0811 0.7862
H2B H -0.0352 -0.0233 0.7812
O2B O -0.0657(9) 0.0572(3) 0.5228(9)
O3B O -0.4507(9) 0.0614(3) 0.4625(9)
O3B_2 O 0.5493(9) 0.0614(3) 0.4625(9)
O3_2 O -0.5493(9) -0.0614(3) 0.5375(9)
O4B O -0.2114(10) 0.1386(3) 0.7376(9)
H3B H -0.2684 0.1162 0.7928
O5B O -0.2157(10) 0.3466(3) 0.0917(10)
O5A O 0.2843(10) 0.1534(3) 0.5917(10)
O5C O -0.2843(10) -0.1534(3) 0.4083(10)
O6B O -0.2823(11) 0.4035(3) 0.3782(11)
O6A O 0.2177(11) 0.0965(3) 0.8782(11)
O6C O -0.2177(11) -0.0965(3) 0.1218(11)
O7B O -0.2609(18) 0.3478(4) 0.6184(12)
O8B O 0.7241(9) 0.0274(3) 1.1560(9)
O8B_2 O -0.2759(9) 0.0274(3) 0.1560(9)
O9B O 0.5798(9) 0.0515(3) 0.8596(9)
O9_2 O -0.5798(9) -0.0515(3) 0.1404(9)
N1B N -0.2665(14) 0.3523(4) 0.4557(12)
C1B C -0.2484(14) 0.1820(4) 0.3771(13)
C2B C -0.2628(15) 0.2392(5) 0.4561(15)
H4B H -0.2787 0.2412 0.5719
C3B C -0.2528(15) 0.2953(5) 0.3583(15)
C4B C -0.2288(14) 0.2964(5) 0.1810(15)
C5B C -0.2179(17) 0.2353(5) 0.1030(16)
H5B H -0.2069 0.2324 -0.0146
C6B C -0.2234(17) 0.1803(5) 0.2001(17)
H6B H -0.2105 0.1413 0.1482
C7B C 0.5881(13) 0.0223(4) 1.0036(13)
loop_
_geom_bond_atom_site_label_1
_geom_bond_atom_site_label_2
_geom_bond_site_symmetry_1
_geom_bond_site_symmetry_2
Eu1 O1 1_555 1_555
As1 O2 1_555 1_555
O1 H1 1_555 1_555
H2 O1 1_555 1_555
O2 Eu1 1_555 1_555
O3 Eu1 1_555 1_555
O4 As1 1_555 1_555
H3 O4 1_555 1_555
O5 C4 1_555 1_555
O6 N1 1_555 1_555
O7 N1 1_555 1_555
O8 Eu1 1_555 1_555
O9 C7 1_555 1_555
N1 C3 1_555 1_555
C1 As1 1_555 1_555
C2 C1 1_555 1_555
H4 C2 1_555 1_555
C3 C2 1_555 1_555
C4 C3 1_555 1_555
C5 C4 1_555 1_555
H5 C5 1_555 1_555
C6 C1 1_555 1_555
H6 C6 1_555 1_555
C7 O8 1_555 1_555
Eu1B O2 1_555 1_555
Eu1B_2 O3 1_555 1_555
Eu1A O5 1_555 1_555
Eu1B_3 O9 1_555 1_555
Eu1_2 O3B 1_555 1_555
Eu1C O5B 1_555 1_555
As1B O2B 1_555 1_555
O1B Eu1B 1_555 1_555
H1B O1B 1_555 1_555
H2B O1B 1_555 1_555
O2B Eu1 1_555 1_555
O3B Eu1B 1_555 1_555
O3B_2 Eu1 1_555 1_555
O3_2 Eu1B 1_555 1_555
O4B As1B 1_555 1_555
H3B O4B 1_555 1_555
O5B C4B 1_555 1_555
O5A Eu1 1_555 1_555
O5C Eu1B 1_555 1_555
O6B Eu1C 1_555 1_555
O6A Eu1 1_555 1_555
O6C Eu1B 1_555 1_555
O7B N1B 1_555 1_555
O8B Eu1B_3 1_555 1_555
O8B_2 Eu1B 1_555 1_555
O9B Eu1 1_555 1_555
O9_2 Eu1B 1_555 1_555
N1B O6B 1_555 1_555
C1B As1B 1_555 1_555
C2B C1B 1_555 1_555
H4B C2B 1_555 1_555
C3B N1B 1_555 1_555
C4B C3B 1_555 1_555
C5B C4B 1_555 1_555
H5B C5B 1_555 1_555
C6B C1B 1_555 1_555
H6B C6B 1_555 1_555
C7B C7 1_555 1_555
As1 O3 1_555 1_555
O6 Eu1A 1_555 1_555
C5 C6 1_555 1_555
Eu1B O2B 1_555 1_555
Eu1B_2 O3B_2 1_555 1_555
Eu1_2 O3_2 1_555 1_555
As1B O3B 1_555 1_555
O8B C7B 1_555 1_555
O9B C7B 1_555 1_555
C2B C3B 1_555 1_555
C5B C6B 1_555 1_555

#END
