
#######################################################################
#
#                 Cambridge Crystallographic Data Centre
#                                CCDC 
#
#######################################################################
#
# If this CIF has been generated from an entry in the Cambridge 
# Structural Database, then it will include bibliographic, chemical, 
# crystal, experimental, refinement or atomic coordinate data resulting 
# from the CCDC's data processing and validation procedures.
#
#######################################################################

data_NAWPEG
_symmetry_cell_setting           orthorhombic
_symmetry_space_group_name_H-M   'P b c m'
_symmetry_Int_Tables_number      57
_space_group_name_Hall           '-P 2c 2b'
loop_
_symmetry_equiv_pos_site_id
_symmetry_equiv_pos_as_xyz
1 x,y,z
2 -x,-y,1/2+z
3 -x,1/2+y,1/2-z
4 x,1/2-y,-z
5 -x,-y,-z
6 x,y,1/2-z
7 x,1/2-y,1/2+z
8 -x,1/2+y,z
_cell_length_a                   9.2832(5)
_cell_length_b                   7.5911(5)
_cell_length_c                   26.0452(12)
_cell_angle_alpha                90
_cell_angle_beta                 90
_cell_angle_gamma                90
_cell_volume                     1835.4
loop_
_atom_site_label
_atom_site_type_symbol
_atom_site_fract_x
_atom_site_fract_y
_atom_site_fract_z
Cd1 Cd 0.38497(3) 0.7500 0.5000
O1 O 0.5140(3) 0.7868(3) 0.57120(9)
O2 O 0.3556(3) 0.4543(3) 0.51905(9)
O3 O 0.1533(3) 0.7675(3) 0.54102(9)
O4 O -0.0482(4) 0.7500 0.5000
N1 N 0.7596(3) 0.7470(3) 0.63775(9)
N2 N 0.0842(4) 0.7500 0.5000
C1 C 0.6245(3) 0.8750(4) 0.56014(11)
C2 C 0.7472(3) 0.8908(4) 0.59849(11)
H1 H 0.8369(3) 0.8959(4) 0.57948(11)
H2 H 0.7367(3) 1.0019(4) 0.61649(11)
C3 C 0.6381(4) 0.7530(5) 0.67562(14)
H3 H 0.6358(4) 0.8666(5) 0.69180(14)
H4 H 0.6521(4) 0.6636(5) 0.70121(14)
H5 H 0.5486(4) 0.7327(5) 0.65811(14)
C4 C 0.7660(4) 0.5708(4) 0.61180(14)
H6 H 0.8444(4) 0.5695(4) 0.58774(14)
H7 H 0.6772(4) 0.5495(4) 0.59397(14)
H8 H 0.7807(4) 0.4805(4) 0.63707(14)
C5 C 0.8987(4) 0.7748(5) 0.6662(2)
H9 H 0.9776(4) 0.7712(5) 0.6425(2)
H10 H 0.9104(4) 0.6835(5) 0.6914(2)
H11 H 0.8967(4) 0.8873(5) 0.6830(2)
O2G O 0.6444(3) 0.9543(3) 0.51905(9)
Cd1G Cd 0.61503(3) 1.2500 0.5000
O1D O 0.4860(3) 1.2132(3) 0.42880(9)
C1D C 0.3755(3) 1.1250(4) 0.43986(11)
O2C O 0.3556(3) 1.0457(3) 0.48095(9)
O1C O 0.5140(3) 0.7132(3) 0.42880(9)
O3C O 0.1533(3) 0.7325(3) 0.45898(9)
C2D C 0.2528(3) 1.1092(4) 0.40151(11)
N1D N 0.2404(3) 1.2530(3) 0.36225(9)
C3D C 0.3619(4) 1.2470(5) 0.32438(14)
H3D H 0.3642(4) 1.1334(5) 0.30820(14)
H4D H 0.3479(4) 1.3364(5) 0.29879(14)
H5D H 0.4514(4) 1.2673(5) 0.34189(14)
C4D C 0.2340(4) 1.4292(4) 0.38820(14)
H6D H 0.1556(4) 1.4305(4) 0.41226(14)
H7D H 0.3228(4) 1.4505(4) 0.40603(14)
H8D H 0.2193(4) 1.5195(4) 0.36293(14)
C5D C 0.1013(4) 1.2252(5) 0.3338(2)
H9D H 0.0224(4) 1.2288(5) 0.3575(2)
H10D H 0.0896(4) 1.3165(5) 0.3086(2)
H11D H 0.1033(4) 1.1127(5) 0.3170(2)
H1D H 0.1631(3) 1.1041(4) 0.42052(11)
H2D H 0.2633(3) 0.9981(4) 0.38351(11)
Cl1 Cl 0.75210(13) 0.23145(15) 0.2500
O5 O 0.7653(7) 0.3219(9) 0.2944(3)
O6 O 0.6146(6) 0.1578(13) 0.2500
O7 O 0.8527(5) 0.0906(6) 0.2500
O5E O 0.7653(7) 0.3219(9) 0.2056(3)
loop_
_geom_bond_atom_site_label_1
_geom_bond_atom_site_label_2
_geom_bond_site_symmetry_1
_geom_bond_site_symmetry_2
Cd1 O1 1_555 1_555
O1 C1 1_555 1_555
O2 Cd1 1_555 1_555
O3 Cd1 1_555 1_555
O4 N2 1_555 1_555
N1 C2 1_555 1_555
N2 O3 1_555 1_555
C1 C2 1_555 1_555
C2 H1 1_555 1_555
H2 C2 1_555 1_555
C3 N1 1_555 1_555
H3 C3 1_555 1_555
H4 C3 1_555 1_555
H5 C3 1_555 1_555
C4 N1 1_555 1_555
H6 C4 1_555 1_555
H7 C4 1_555 1_555
H8 C4 1_555 1_555
C5 N1 1_555 1_555
H9 C5 1_555 1_555
H10 C5 1_555 1_555
H11 C5 1_555 1_555
Cl1 O5 1_555 1_555
O6 Cl1 1_555 1_555
O7 Cl1 1_555 1_555
O2G C1 1_555 1_555
Cd1G O2G 1_555 1_555
O1D Cd1G 1_555 1_555
C1D O1D 1_555 1_555
O2C Cd1 1_555 1_555
O1C Cd1 1_555 1_555
O3C Cd1 1_555 1_555
C2D C1D 1_555 1_555
N1D C2D 1_555 1_555
C3D N1D 1_555 1_555
H3D C3D 1_555 1_555
H4D C3D 1_555 1_555
H5D C3D 1_555 1_555
C4D N1D 1_555 1_555
H6D C4D 1_555 1_555
H7D C4D 1_555 1_555
H8D C4D 1_555 1_555
C5D N1D 1_555 1_555
H9D C5D 1_555 1_555
H10D C5D 1_555 1_555
H11D C5D 1_555 1_555
H1D C2D 1_555 1_555
H2D C2D 1_555 1_555
O5E Cl1 1_555 1_555
N2 O3C 1_555 1_555
C1D O2C 1_555 1_555

#END
