
#######################################################################
#
#                 Cambridge Crystallographic Data Centre
#                                CCDC 
#
#######################################################################
#
# If this CIF has been generated from an entry in the Cambridge 
# Structural Database, then it will include bibliographic, chemical, 
# crystal, experimental, refinement or atomic coordinate data resulting 
# from the CCDC's data processing and validation procedures.
#
#######################################################################

data_NAXBIX
_symmetry_cell_setting           monoclinic
_symmetry_space_group_name_H-M   'C 2/c'
_symmetry_Int_Tables_number      15
_space_group_name_Hall           '-C 2yn'
loop_
_symmetry_equiv_pos_site_id
_symmetry_equiv_pos_as_xyz
1 x,y,z
2 1/2+x,1/2+y,z
3 x,-y,1/2+z
4 1/2+x,1/2-y,1/2+z
5 -x,-y,-z
6 1/2-x,1/2-y,-z
7 -x,y,1/2-z
8 1/2-x,1/2+y,1/2-z
_cell_length_a                   16.197(3)
_cell_length_b                   23.537(3)
_cell_length_c                   11.0020(10)
_cell_angle_alpha                90
_cell_angle_beta                 122.880(10)
_cell_angle_gamma                90
_cell_volume                     3522.4
loop_
_atom_site_label
_atom_site_type_symbol
_atom_site_fract_x
_atom_site_fract_y
_atom_site_fract_z
C1 C 0.0000 -0.0580(7) 0.2500
C2 C 0.0788(7) -0.0902(5) 0.3533(10)
C3 C 0.0790(9) -0.1501(5) 0.3543(11)
C4 C 0.0000 -0.1796(8) 0.2500
C5 C 0.0000 0.1187(7) 0.2500
C6 C -0.0064(8) 0.1526(5) 0.3485(11)
C7 C -0.0061(9) 0.2109(6) 0.3527(12)
C8 C 0.0000 0.2398(8) 0.2500
C9 C 0.1421(7) 0.0383(5) 0.3090(10)
C10 C 0.2221(8) 0.0505(5) 0.3468(11)
C11 C 0.3252(7) 0.0714(6) 0.4022(13)
C12 C 0.3199(10) 0.1371(7) 0.3751(17)
Tl1 Tl -0.13285(3) 0.03459(2) -0.08892(4)
Pt1 Pt 0.0000 0.03139(3) 0.2500
F1 F 0.1599(4) -0.0660(3) 0.4640(7)
F2 F 0.1580(5) -0.1774(3) 0.4619(7)
F3 F 0.0000 -0.2368(4) 0.2500
F4 F -0.0134(6) 0.1259(3) 0.4528(7)
F5 F -0.0082(6) 0.2384(3) 0.4579(8)
F6 F 0.0000 0.2965(5) 0.2500
H1 H 0.2955(10) 0.1551(7) 0.4278(17)
H2 H 0.3844(10) 0.1513(7) 0.4085(17)
H3 H 0.2766(10) 0.1452(7) 0.2737(17)
C13 C 0.3941(10) 0.0582(9) 0.5601(13)
H4 H 0.3968(10) 0.0178(9) 0.5742(13)
H5 H 0.4588(10) 0.0722(9) 0.5948(13)
H6 H 0.3694(10) 0.0760(9) 0.6126(13)
C14 C 0.3635(9) 0.0412(7) 0.3168(14)
H7 H 0.3660(9) 0.0011(7) 0.3337(14)
H8 H 0.3205(9) 0.0487(7) 0.2152(14)
H9 H 0.4283(9) 0.0549(7) 0.3499(14)
O1 O -0.2799(17) 0.1142(10) -0.2706(26)
C15 C -0.2995(17) 0.1571(11) -0.3324(32)
C16 C -0.2564(14) 0.2155(10) -0.2611(21)
C17 C -0.3706(14) 0.1554(9) -0.4940(26)
C3F C -0.0790(9) -0.1501(5) 0.1457(11)
C2F C -0.0788(7) -0.0902(5) 0.1467(10)
C7F C 0.0061(9) 0.2109(6) 0.1473(12)
C6F C 0.0064(8) 0.1526(5) 0.1515(11)
F4F F 0.0134(6) 0.1259(3) 0.0472(7)
F5F F 0.0082(6) 0.2384(3) 0.0421(8)
Tl1D Tl 0.13285(3) -0.03459(2) 0.08892(4)
C9D C -0.1421(7) -0.0383(5) -0.3090(10)
C9F C -0.1421(7) 0.0383(5) 0.1910(10)
C10F C -0.2221(8) 0.0505(5) 0.1532(11)
C11F C -0.3252(7) 0.0714(6) 0.0978(13)
C12F C -0.3199(10) 0.1371(7) 0.1249(17)
H1F H -0.2955(10) 0.1551(7) 0.0722(17)
H2F H -0.3844(10) 0.1513(7) 0.0915(17)
H3F H -0.2766(10) 0.1452(7) 0.2263(17)
C13F C -0.3941(10) 0.0582(9) -0.0601(13)
H4F H -0.3968(10) 0.0178(9) -0.0742(13)
H5F H -0.4588(10) 0.0722(9) -0.0948(13)
H6F H -0.3694(10) 0.0760(9) -0.1126(13)
C14F C -0.3635(9) 0.0412(7) 0.1832(14)
H7F H -0.3660(9) 0.0011(7) 0.1663(14)
H8F H -0.3205(9) 0.0487(7) 0.2848(14)
H9F H -0.4283(9) 0.0549(7) 0.1501(14)
Tl1B Tl -0.13285(3) -0.03459(2) 0.41108(4)
C9B C 0.1421(7) -0.0383(5) 0.8090(10)
Tl1F Tl 0.13285(3) 0.03459(2) 0.58892(4)
O1F O 0.2799(17) 0.1142(10) 0.7706(26)
C15F C 0.2995(17) 0.1571(11) 0.8324(32)
C16F C 0.2564(14) 0.2155(10) 0.7611(21)
C17F C 0.3706(14) 0.1554(9) 0.9940(26)
F1F F -0.1599(4) -0.0660(3) 0.0360(7)
F2F F -0.1580(5) -0.1774(3) 0.0381(7)
loop_
_geom_bond_atom_site_label_1
_geom_bond_atom_site_label_2
_geom_bond_site_symmetry_1
_geom_bond_site_symmetry_2
C1 C2 1_555 1_555
C2 C3 1_555 1_555
C3 C4 1_555 1_555
C4 F3 1_555 1_555
C5 C6 1_555 1_555
C6 C7 1_555 1_555
C7 C8 1_555 1_555
C8 F6 1_555 1_555
C9 C10 1_555 1_555
C10 C11 1_555 1_555
C11 C12 1_555 1_555
C12 H1 1_555 1_555
Tl1 Pt1 1_555 1_555
Pt1 C1 1_555 1_555
F1 C2 1_555 1_555
F2 C3 1_555 1_555
F4 C6 1_555 1_555
F5 C7 1_555 1_555
H2 C12 1_555 1_555
H3 C12 1_555 1_555
C13 C11 1_555 1_555
H4 C13 1_555 1_555
H5 C13 1_555 1_555
H6 C13 1_555 1_555
C14 C11 1_555 1_555
H7 C14 1_555 1_555
H8 C14 1_555 1_555
H9 C14 1_555 1_555
O1 Tl1 1_555 1_555
C15 O1 1_555 1_555
C16 C15 1_555 1_555
C17 C15 1_555 1_555
C3F C4 1_555 1_555
C2F C1 1_555 1_555
C7F C8 1_555 1_555
C6F C5 1_555 1_555
F4F C6F 1_555 1_555
F5F C7F 1_555 1_555
Tl1D C9 1_555 1_555
C9D Tl1 1_555 1_555
C9F Pt1 1_555 1_555
C10F C9F 1_555 1_555
C11F C10F 1_555 1_555
C12F C11F 1_555 1_555
H1F C12F 1_555 1_555
H2F C12F 1_555 1_555
H3F C12F 1_555 1_555
C13F C11F 1_555 1_555
H4F C13F 1_555 1_555
H5F C13F 1_555 1_555
H6F C13F 1_555 1_555
C14F C11F 1_555 1_555
H7F C14F 1_555 1_555
H8F C14F 1_555 1_555
H9F C14F 1_555 1_555
Tl1B C9F 1_555 1_555
C9B Tl1F 1_555 1_555
Tl1F Pt1 1_555 1_555
O1F Tl1F 1_555 1_555
C15F O1F 1_555 1_555
C16F C15F 1_555 1_555
C17F C15F 1_555 1_555
F1F C2F 1_555 1_555
F2F C3F 1_555 1_555
C5 Pt1 1_555 1_555
C9 Pt1 1_555 1_555
C3F C2F 1_555 1_555
C7F C6F 1_555 1_555

#END
