
#######################################################################
#
#                 Cambridge Crystallographic Data Centre
#                                CCDC 
#
#######################################################################
#
# If this CIF has been generated from an entry in the Cambridge 
# Structural Database, then it will include bibliographic, chemical, 
# crystal, experimental, refinement or atomic coordinate data resulting 
# from the CCDC's data processing and validation procedures.
#
#######################################################################

data_NAXCIZ
_symmetry_cell_setting           orthorhombic
_symmetry_space_group_name_H-M   'P m c 21'
_symmetry_Int_Tables_number      26
_space_group_name_Hall           'P 2c -2'
loop_
_symmetry_equiv_pos_site_id
_symmetry_equiv_pos_as_xyz
1 x,y,z
2 -x,y,z
3 -x,-y,1/2+z
4 x,-y,1/2+z
_cell_length_a                   4.1191(18)
_cell_length_b                   12.3778(15)
_cell_length_c                   10.0649(19)
_cell_angle_alpha                90
_cell_angle_beta                 90
_cell_angle_gamma                90
_cell_volume                     513.163
loop_
_atom_site_label
_atom_site_type_symbol
_atom_site_fract_x
_atom_site_fract_y
_atom_site_fract_z
Cs1 Cs 0.0000 0.39290(4) 0.79580(2)
Cs2 Cs 0.0000 0.16136(4) 1.13792(7)
N1 N -0.5000 0.1503(8) 0.5452(11)
H1 H -0.5000 0.0969 0.4906
N2 N -0.5000 0.1972(6) 0.7793(8)
N3 N -0.5000 0.1335(10) 0.8894(9)
N4 N -0.5000 0.0314(8) 0.8563(9)
N5 N -0.5000 0.0224(8) 0.7213(10)
N6 N -0.5000 0.3447(6) 0.5556(10)
N7 N -0.5000 0.4181(8) 0.4561(10)
N8 N -0.5000 0.3735(9) 0.3431(11)
N9 N -0.5000 0.2622(8) 0.3605(8)
C1 C -0.5000 0.1259(8) 0.6802(10)
C2 C -0.5000 0.2516(9) 0.4923(9)
O1 O -0.435(9) 0.3772(9) 1.0664(12)
H2 H -0.4349 0.4568 1.0420
H3 H -0.4349 0.3909 1.1567
Cs1_2 Cs -1.0000 0.39290(4) 0.79580(2)
Cs1_3 Cs 1.0000 0.39290(4) 0.79580(2)
Cs2_2 Cs -1.0000 0.16136(4) 1.13792(7)
Cs2_3 Cs 1.0000 0.16136(4) 1.13792(7)
Cs2B Cs -1.0000 -0.16136(4) 0.63792(7)
Cs2B_2 Cs 0.0000 -0.16136(4) 0.63792(7)
N2_2 N 0.5000 0.1972(6) 0.7793(8)
N3_2 N 0.5000 0.1335(10) 0.8894(9)
N5B N -0.5000 -0.0224(8) 1.2213(10)
N5B_2 N 0.5000 -0.0224(8) 1.2213(10)
N6_2 N 0.5000 0.3447(6) 0.5556(10)
O1A O -0.565(9) 0.3772(9) 1.0664(12)
O1A_2 O 0.435(9) 0.3772(9) 1.0664(12)
H2A H -0.5651 0.4568 1.0420
H2_2 H 0.5651 0.4568 1.0420
H2A_2 H 0.4349 0.4568 1.0420
H3A H -0.5651 0.3909 1.1567
H3_2 H 0.5651 0.3909 1.1567
H3A_2 H 0.4349 0.3909 1.1567
loop_
_geom_bond_atom_site_label_1
_geom_bond_atom_site_label_2
_geom_bond_site_symmetry_1
_geom_bond_site_symmetry_2
Cs1 N2 1_555 1_555
Cs2 N3 1_555 1_555
N1 H1 1_555 1_555
N2 N3 1_555 1_555
N3 N4 1_555 1_555
N4 N5 1_555 1_555
N5 C1 1_555 1_555
N6 Cs1 1_555 1_555
N7 N6 1_555 1_555
N8 N7 1_555 1_555
N9 N8 1_555 1_555
C1 N1 1_555 1_555
C2 N1 1_555 1_555
O1 Cs1 1_555 1_555
H2 O1 1_555 1_555
H3 O1 1_555 1_555
Cs1_2 N2 1_555 1_555
Cs1_3 N2_2 1_555 1_555
Cs2_2 N3 1_555 1_555
Cs2_3 N3_2 1_555 1_555
Cs2B N5 1_555 1_555
Cs2B_2 N5 1_555 1_555
N2_2 Cs1 1_555 1_555
N3_2 Cs2 1_555 1_555
N5B Cs2 1_555 1_555
N5B_2 Cs2 1_555 1_555
N6_2 Cs1 1_555 1_555
O1A O1 1_555 1_555
O1A_2 Cs1 1_555 1_555
H2A O1 1_555 1_555
H2_2 O1A_2 1_555 1_555
H2A_2 O1A_2 1_555 1_555
H3A O1 1_555 1_555
H3_2 O1A_2 1_555 1_555
H3A_2 O1A_2 1_555 1_555
Cs2 O1 1_555 1_555
Cs2 O1A_2 1_555 1_555
N2 C1 1_555 1_555
N6 C2 1_555 1_555
N6 Cs1_2 1_555 1_555
N9 C2 1_555 1_555
H2 O1A 1_555 1_555
H2 H2A 1_555 1_555
H3 O1A 1_555 1_555
H3 H3A 1_555 1_555
Cs1_2 O1A 1_555 1_555
Cs1_3 N6_2 1_555 1_555
Cs2_2 N5B 1_555 1_555
Cs2_2 O1A 1_555 1_555
Cs2_3 N5B_2 1_555 1_555
N2_2 N3_2 1_555 1_555
O1A H2A 1_555 1_555
O1A H3A 1_555 1_555
H2_2 H2A_2 1_555 1_555
H3_2 H3A_2 1_555 1_555

#END
