
#######################################################################
#
#                 Cambridge Crystallographic Data Centre
#                                CCDC 
#
#######################################################################
#
# If this CIF has been generated from an entry in the Cambridge 
# Structural Database, then it will include bibliographic, chemical, 
# crystal, experimental, refinement or atomic coordinate data resulting 
# from the CCDC's data processing and validation procedures.
#
#######################################################################

data_NAXGUP
_symmetry_cell_setting           triclinic
_symmetry_space_group_name_H-M   'P -1'
_symmetry_Int_Tables_number      2
_space_group_name_Hall           '-P 1'
loop_
_symmetry_equiv_pos_site_id
_symmetry_equiv_pos_as_xyz
1 x,y,z
2 -x,-y,-z
_cell_length_a                   9.7631(4)
_cell_length_b                   10.6766(4)
_cell_length_c                   19.9719(8)
_cell_angle_alpha                83.0470(10)
_cell_angle_beta                 83.9020(10)
_cell_angle_gamma                64.3140(10)
_cell_volume                     1858.92
loop_
_atom_site_label
_atom_site_type_symbol
_atom_site_fract_x
_atom_site_fract_y
_atom_site_fract_z
Eu1 Eu 0.215659(14) 0.409391(12) 0.255403(6)
Fe1 Fe 0.76993(4) -0.04404(4) 0.273270(19)
O1 O 0.3603(2) 0.5375(2) 0.26726(12)
H1 H 0.324(4) 0.617(4) 0.2632(19)
H2 H 0.413(4) 0.506(4) 0.2987(19)
O2 O 0.2158(3) 0.4233(3) 0.37580(11)
H3 H 0.282(6) 0.350(5) 0.398(2)
H4 H 0.226(8) 0.480(7) 0.392(3)
O3 O 0.1807(3) 0.2134(2) 0.31719(13)
H5 H 0.137(4) 0.177(3) 0.3109(17)
H6 H 0.247(6) 0.166(5) 0.346(2)
O4 O 0.2410(3) 0.5154(2) 0.14550(11)
N1 N -0.0240(3) 0.4098(2) 0.21480(12)
N2 N 0.2554(3) 0.2408(2) 0.16473(12)
N3 N 0.4832(3) 0.2348(2) 0.27200(13)
N4 N 0.6982(4) -0.0773(3) 0.42754(15)
N5 N 0.9988(3) 0.0782(3) 0.29038(14)
N6 N 0.8302(4) -0.0065(4) 0.11844(16)
N7 N 0.5385(4) -0.1598(4) 0.2549(2)
N8 N 0.0232(3) 0.6551(2) 0.27014(13)
C1 C -0.1620(3) 0.4950(3) 0.24040(17)
H7 H -0.1673 0.5558 0.2713
C2 C -0.2963(4) 0.4970(4) 0.2231(2)
H8 H -0.3895 0.5586 0.2416
C3 C -0.2901(4) 0.4074(4) 0.1787(2)
H9 H -0.3789 0.4061 0.1667
C4 C -0.1494(5) 0.3180(4) 0.1517(2)
H10 H -0.1430 0.2562 0.1212
C5 C -0.0171(4) 0.3213(3) 0.17059(15)
C6 C 0.1356(4) 0.2290(3) 0.14288(15)
C7 C 0.1568(5) 0.1364(4) 0.0949(2)
H11 H 0.0732 0.1293 0.0804
C8 C 0.2995(6) 0.0565(4) 0.0694(2)
H12 H 0.3137 -0.0053 0.0375
C9 C 0.4217(5) 0.0678(4) 0.09099(19)
H13 H 0.5201 0.0138 0.0743
C10 C 0.3953(4) 0.1617(3) 0.13837(17)
H14 H 0.4781 0.1704 0.1526
C11 C 0.5947(3) 0.1354(3) 0.27311(14)
C12 C 0.7297(3) -0.0670(3) 0.37084(15)
C13 C 0.9128(3) 0.0346(3) 0.28444(14)
C14 C 0.8059(4) -0.0192(3) 0.17597(16)
C15 C 0.6271(3) -0.1198(3) 0.26137(17)
C16 C -0.0668(3) 0.7683(3) 0.27214(14)
Fe1_2 Fe -0.23007(4) 0.95596(4) 0.273270(19)
C16_2 C 0.9332(3) -0.2317(3) 0.27214(14)
N9 N 0.5434(3) 0.4549(3) 0.38291(15)
N10 N 0.2579(3) 0.6487(3) 0.41208(13)
C17 C 0.6818(4) 0.3463(4) 0.3796(2)
H15 H 0.6911 0.2679 0.3601
C18 C 0.8092(4) 0.3443(4) 0.40299(19)
H16 H 0.9019 0.2661 0.4005
C19 C 0.7968(5) 0.4606(5) 0.4302(2)
H17 H 0.8823 0.4643 0.4447
C20 C 0.6556(4) 0.5729(4) 0.4360(2)
H18 H 0.6445 0.6520 0.4553
C21 C 0.5305(4) 0.5654(3) 0.41234(15)
C22 C 0.3747(4) 0.6800(3) 0.41926(15)
C23 C 0.3497(4) 0.8139(4) 0.43215(19)
H19 H 0.4314 0.8352 0.4354
C24 C 0.2013(5) 0.9150(4) 0.4401(2)
H20 H 0.1827 1.0042 0.4498
C25 C 0.0828(4) 0.8823(3) 0.43364(17)
H21 H -0.0175 0.9484 0.4387
C26 C 0.1163(4) 0.7485(3) 0.41946(16)
H22 H 0.0357 0.7264 0.4148
O5 O 0.3616(3) 0.1523(3) 0.43393(14)
H23 H 0.346(4) 0.138(4) 0.4646(18)
O6 O 0.2727(3) 0.8177(3) 0.24124(16)
H24 H 0.349(5) 0.828(4) 0.243(2)
H25 H 0.207(6) 0.869(5) 0.258(2)
O7 O 0.2165(8) 0.7737(5) 0.11693(19)
O8 O 0.285(2) 0.7729(19) 0.9791(10)
O9 O 0.0734(9) 0.9035(8) 0.0150(4)
N11 N 0.1086(6) 0.3719(4) 0.93364(19)
C27 C 0.2591(6) 0.2990(4) 0.9101(2)
H26 H 0.2821 0.2424 0.8747
C28 C 0.3732(6) 0.3110(5) 0.9391(2)
H27 H 0.4742 0.2656 0.9233
C29 C 0.3327(7) 0.3937(5) 0.9931(2)
H28 H 0.4102 0.4004 1.0136
C30 C 0.1922(5) 0.4629(4) 1.01714(16)
H29 H 0.1719 0.5146 1.0542
C31 C 0.0792(5) 0.4572(3) 0.98715(17)
N11A N -0.1086(6) 0.6281(4) 1.06636(19)
C27A C -0.2591(6) 0.7010(4) 1.0899(2)
H26A H -0.2821 0.7576 1.1253
C28A C -0.3732(6) 0.6890(5) 1.0609(2)
H27A H -0.4742 0.7344 1.0767
C29A C -0.3327(7) 0.6063(5) 1.0069(2)
H28A H -0.4102 0.5996 0.9864
C30A C -0.1922(5) 0.5371(4) 0.98286(16)
H29A H -0.1719 0.4854 0.9458
C31A C -0.0792(5) 0.5428(3) 1.01285(17)
loop_
_geom_bond_atom_site_label_1
_geom_bond_atom_site_label_2
_geom_bond_site_symmetry_1
_geom_bond_site_symmetry_2
Eu1 O1 1_555 1_555
Fe1 C11 1_555 1_555
O1 H1 1_555 1_555
H2 O1 1_555 1_555
O2 Eu1 1_555 1_555
H3 O2 1_555 1_555
H4 O2 1_555 1_555
O3 Eu1 1_555 1_555
H5 O3 1_555 1_555
H6 O3 1_555 1_555
O4 Eu1 1_555 1_555
N1 Eu1 1_555 1_555
N2 Eu1 1_555 1_555
N3 Eu1 1_555 1_555
N4 C12 1_555 1_555
N5 C13 1_555 1_555
N6 C14 1_555 1_555
N7 C15 1_555 1_555
N8 Eu1 1_555 1_555
N9 C17 1_555 1_555
N10 C22 1_555 1_555
C1 N1 1_555 1_555
H7 C1 1_555 1_555
C2 C1 1_555 1_555
H8 C2 1_555 1_555
C3 C2 1_555 1_555
H9 C3 1_555 1_555
C4 C3 1_555 1_555
H10 C4 1_555 1_555
C5 N1 1_555 1_555
C6 N2 1_555 1_555
C7 C6 1_555 1_555
H11 C7 1_555 1_555
C8 C7 1_555 1_555
H12 C8 1_555 1_555
C9 C8 1_555 1_555
H13 C9 1_555 1_555
C10 N2 1_555 1_555
H14 C10 1_555 1_555
C11 N3 1_555 1_555
C12 Fe1 1_555 1_555
C13 Fe1 1_555 1_555
C14 Fe1 1_555 1_555
C15 Fe1 1_555 1_555
C16 N8 1_555 1_555
C17 H15 1_555 1_555
C18 C17 1_555 1_555
H16 C18 1_555 1_555
C19 C18 1_555 1_555
H17 C19 1_555 1_555
C20 C19 1_555 1_555
H18 C20 1_555 1_555
C21 N9 1_555 1_555
C22 C21 1_555 1_555
C23 C22 1_555 1_555
H19 C23 1_555 1_555
C24 C23 1_555 1_555
H20 C24 1_555 1_555
C25 C24 1_555 1_555
H21 C25 1_555 1_555
C26 N10 1_555 1_555
H22 C26 1_555 1_555
O5 H23 1_555 1_555
O6 H24 1_555 1_555
H25 O6 1_555 1_555
N11 C27 1_555 1_555
C27 H26 1_555 1_555
C28 C27 1_555 1_555
H27 C28 1_555 1_555
C29 C28 1_555 1_555
H28 C29 1_555 1_555
C30 C29 1_555 1_555
H29 C30 1_555 1_555
C31 N11 1_555 1_555
Fe1_2 C16 1_555 1_555
C16_2 Fe1 1_555 1_555
N11A C27A 1_555 1_555
C27A H26A 1_555 1_555
C28A C27A 1_555 1_555
H27A C28A 1_555 1_555
C29A C28A 1_555 1_555
H28A C29A 1_555 1_555
C30A C29A 1_555 1_555
H29A C30A 1_555 1_555
C31A C31 1_555 1_555
C4 C5 1_555 1_555
C5 C6 1_555 1_555
C9 C10 1_555 1_555
C20 C21 1_555 1_555
C25 C26 1_555 1_555
C30 C31 1_555 1_555
N11A C31A 1_555 1_555
C30A C31A 1_555 1_555

#END
