
#######################################################################
#
#                 Cambridge Crystallographic Data Centre
#                                CCDC 
#
#######################################################################
#
# If this CIF has been generated from an entry in the Cambridge 
# Structural Database, then it will include bibliographic, chemical, 
# crystal, experimental, refinement or atomic coordinate data resulting 
# from the CCDC's data processing and validation procedures.
#
#######################################################################

data_NAXJUS
_symmetry_cell_setting           triclinic
_symmetry_space_group_name_H-M   'P -1'
_symmetry_Int_Tables_number      2
_space_group_name_Hall           '-P 1'
loop_
_symmetry_equiv_pos_site_id
_symmetry_equiv_pos_as_xyz
1 x,y,z
2 -x,-y,-z
_cell_length_a                   9.6897(4)
_cell_length_b                   10.5492(5)
_cell_length_c                   20.0209(9)
_cell_angle_alpha                83.3550(10)
_cell_angle_beta                 84.5750(10)
_cell_angle_gamma                63.8020(10)
_cell_volume                     1821.77
loop_
_atom_site_label
_atom_site_type_symbol
_atom_site_fract_x
_atom_site_fract_y
_atom_site_fract_z
N9 N -0.2530(4) 0.3532(4) -0.41161(16)
N10 N -0.5425(4) 0.5522(4) -0.38357(19)
C17 C -0.1098(5) 0.2510(5) -0.4188(2)
H17 H -0.0282 0.2725 -0.4141
C18 C -0.0764(5) 0.1150(4) -0.4330(2)
H18 H 0.0249 0.0473 -0.4384
C19 C -0.1972(6) 0.0827(5) -0.4388(2)
H19 H -0.1788 -0.0081 -0.4478
C20 C -0.3455(6) 0.1857(5) -0.4312(2)
H20 H -0.4283 0.1651 -0.4347
C21 C -0.3707(5) 0.3211(4) -0.41829(19)
C22 C -0.5290(5) 0.4387(4) -0.41213(19)
C23 C -0.6549(6) 0.4321(6) -0.4361(3)
H21 H -0.6430 0.3518 -0.4556
C24 C -0.7982(6) 0.5457(6) -0.4308(3)
H22 H -0.8845 0.5417 -0.4452
C25 C -0.8115(5) 0.6647(5) -0.4038(2)
H23 H -0.9056 0.7443 -0.4011
C26 C -0.6806(5) 0.6622(5) -0.3809(3)
H24 H -0.6893 0.7425 -0.3624
O5 O -0.2702(3) 0.1845(3) -0.24269(18)
H25 H -0.3621 0.1726 -0.2529
H26 H -0.2045 0.1194 -0.2557
O6 O -0.3578(4) 0.8475(3) -0.43572(16)
H27 H -0.3432 0.8762 -0.4811
H28 H -0.4607 0.8823 -0.4316
O7 O -0.1694(15) 0.2038(9) -0.1208(3)
O9 O -0.726(2) 0.7731(15) -0.0196(7)
O10 O -0.075(2) 0.0983(19) -0.0136(14)
N11 N -0.1936(6) 0.5334(5) -1.01934(19)
C27 C -0.3371(8) 0.6009(7) -0.9961(3)
H29 H -0.4138 0.5940 -1.0179
C28 C -0.3807(8) 0.6807(6) -0.9417(3)
H30 H -0.4832 0.7237 -0.9262
C29 C -0.2680(9) 0.6952(6) -0.9107(3)
H31 H -0.2936 0.7515 -0.8749
C30 C -0.1174(8) 0.6254(5) -0.9335(2)
H32 H -0.0401 0.6344 -0.9132
C31 C -0.0804(6) 0.5409(5) -0.9874(2)
C31A C 0.0804(6) 0.4591(5) -1.0126(2)
Er1 Er -0.211290(14) 0.592490(13) -0.255350(7)
Co1 Co -0.76491(5) 1.04621(4) -0.27402(2)
O1 O -0.3551(3) 0.4685(3) -0.26796(13)
H1 H -0.3185 0.3793 -0.2621
H2 H -0.4159 0.4873 -0.3059
O2 O -0.2092(3) 0.5791(3) -0.37225(13)
H3 H -0.2636 0.6543 -0.3970
H4 H -0.2407 0.5105 -0.3823
O3 O -0.2309(4) 0.4837(3) -0.15043(14)
H5 H -0.2149 0.3978 -0.1375
H6 H -0.2123 0.5053 -0.1102
O4 O -0.1803(3) 0.7898(3) -0.31370(15)
H7 H -0.1304 0.8433 -0.3055
H8 H -0.2406 0.8323 -0.3459
N1 N 0.0281(3) 0.5883(3) -0.21746(15)
N2 N -0.2540(4) 0.7580(3) -0.16543(16)
N3 N -0.4749(3) 0.7676(3) -0.27200(17)
N4 N -0.6974(4) 1.0784(4) -0.42563(19)
N5 N -0.9925(4) 0.9237(3) -0.28897(18)
N6 N -0.8204(5) 1.0076(5) -0.1221(2)
N7 N -0.5344(5) 1.1606(5) -0.2560(3)
N8 N -0.0205(3) 0.3480(3) -0.27051(17)
C1 C 0.1664(4) 0.5048(4) -0.2435(2)
H9 H 0.1719 0.4441 -0.2749
C2 C 0.3026(5) 0.5032(5) -0.2265(2)
H10 H 0.3966 0.4419 -0.2456
C3 C 0.2960(5) 0.5930(5) -0.1815(3)
H11 H 0.3855 0.5950 -0.1697
C4 C 0.1542(5) 0.6814(5) -0.1536(2)
H12 H 0.1477 0.7432 -0.1226
C5 C 0.0208(4) 0.6775(4) -0.17216(18)
C6 C -0.1322(5) 0.7690(4) -0.14378(18)
C7 C -0.1529(7) 0.8604(6) -0.0952(3)
H13 H -0.0683 0.8672 -0.0805
C8 C -0.2971(7) 0.9404(6) -0.0688(3)
H14 H -0.3111 1.0025 -0.0366
C9 C -0.4198(6) 0.9286(5) -0.0898(2)
H15 H -0.5187 0.9817 -0.0722
C10 C -0.3940(5) 0.8359(5) -0.1381(2)
H16 H -0.4778 0.8271 -0.1522
C11 C -0.5898(4) 0.8673(3) -0.27330(17)
C12 C -0.7281(4) 1.0696(4) -0.3688(2)
C13 C -0.9051(4) 0.9678(3) -0.28445(18)
C14 C -0.7974(4) 1.0220(4) -0.1791(2)
C15 C -0.6232(4) 1.1209(4) -0.2629(2)
C16 C 0.0721(4) 0.2332(3) -0.27313(18)
C16_2 C -0.9279(4) 1.2332(3) -0.27313(18)
Co1_2 Co 0.23509(5) 0.04621(4) -0.27402(2)
O8? O -0.270(3) 0.259(2) -0.1141(7)
loop_
_geom_bond_atom_site_label_1
_geom_bond_atom_site_label_2
_geom_bond_site_symmetry_1
_geom_bond_site_symmetry_2
Er1 O1 1_555 1_555
Co1 C11 1_555 1_555
O1 H1 1_555 1_555
H2 O1 1_555 1_555
O2 Er1 1_555 1_555
H3 O2 1_555 1_555
H4 O2 1_555 1_555
O3 Er1 1_555 1_555
H5 O3 1_555 1_555
H6 O3 1_555 1_555
O4 Er1 1_555 1_555
H7 O4 1_555 1_555
H8 O4 1_555 1_555
N1 Er1 1_555 1_555
N2 Er1 1_555 1_555
N3 Er1 1_555 1_555
N4 C12 1_555 1_555
N5 C13 1_555 1_555
N6 C14 1_555 1_555
N7 C15 1_555 1_555
N8 Er1 1_555 1_555
N9 C17 1_555 1_555
N10 C22 1_555 1_555
C1 N1 1_555 1_555
H9 C1 1_555 1_555
C2 C1 1_555 1_555
H10 C2 1_555 1_555
C3 C2 1_555 1_555
H11 C3 1_555 1_555
C4 C3 1_555 1_555
H12 C4 1_555 1_555
C5 N1 1_555 1_555
C6 N2 1_555 1_555
C7 C6 1_555 1_555
H13 C7 1_555 1_555
C8 C7 1_555 1_555
H14 C8 1_555 1_555
C9 C8 1_555 1_555
H15 C9 1_555 1_555
C10 N2 1_555 1_555
H16 C10 1_555 1_555
C11 N3 1_555 1_555
C12 Co1 1_555 1_555
C13 Co1 1_555 1_555
C14 Co1 1_555 1_555
C15 Co1 1_555 1_555
C16 N8 1_555 1_555
C17 H17 1_555 1_555
C18 C17 1_555 1_555
H18 C18 1_555 1_555
C19 C18 1_555 1_555
H19 C19 1_555 1_555
C20 C19 1_555 1_555
H20 C20 1_555 1_555
C21 N9 1_555 1_555
C22 C21 1_555 1_555
C23 C22 1_555 1_555
H21 C23 1_555 1_555
C24 C23 1_555 1_555
H22 C24 1_555 1_555
C25 C24 1_555 1_555
H23 C25 1_555 1_555
C26 N10 1_555 1_555
H24 C26 1_555 1_555
O5 H25 1_555 1_555
H26 O5 1_555 1_555
O6 H27 1_555 1_555
H28 O6 1_555 1_555
N11 C27 1_555 1_555
C27 H29 1_555 1_555
C28 C27 1_555 1_555
H30 C28 1_555 1_555
C29 C28 1_555 1_555
H31 C29 1_555 1_555
C30 C29 1_555 1_555
H32 C30 1_555 1_555
C31 N11 1_555 1_555
C16_2 Co1 1_555 1_555
Co1_2 C16 1_555 1_555
C31A C31 1_555 1_555
C4 C5 1_555 1_555
C5 C6 1_555 1_555
C9 C10 1_555 1_555
C20 C21 1_555 1_555
C25 C26 1_555 1_555
C30 C31 1_555 1_555

#END
