
#######################################################################
#
#                 Cambridge Crystallographic Data Centre
#                                CCDC 
#
#######################################################################
#
# If this CIF has been generated from an entry in the Cambridge 
# Structural Database, then it will include bibliographic, chemical, 
# crystal, experimental, refinement or atomic coordinate data resulting 
# from the CCDC's data processing and validation procedures.
#
#######################################################################

data_NAXKAZ
_symmetry_cell_setting           triclinic
_symmetry_space_group_name_H-M   'P -1'
_symmetry_Int_Tables_number      2
_space_group_name_Hall           '-P 1'
loop_
_symmetry_equiv_pos_site_id
_symmetry_equiv_pos_as_xyz
1 x,y,z
2 -x,-y,-z
_cell_length_a                   9.6883(5)
_cell_length_b                   10.5465(5)
_cell_length_c                   20.0435(10)
_cell_angle_alpha                83.3880(10)
_cell_angle_beta                 84.6320(10)
_cell_angle_gamma                63.7890(10)
_cell_volume                     1823.09
loop_
_atom_site_label
_atom_site_type_symbol
_atom_site_fract_x
_atom_site_fract_y
_atom_site_fract_z
Tm1 Tm -0.211050(11) -0.407140(10) -0.255250(5)
Co1 Co -0.76468(3) 0.04674(3) -0.274050(18)
O1 O -0.2084(2) -0.4204(2) -0.37152(9)
H1 H -0.2640 -0.3439 -0.3983
H2 H -0.2343 -0.4757 -0.3846
O2 O -0.35462(19) -0.53018(19) -0.26764(9)
H3 H -0.3991 -0.5004 -0.3040
H4 H -0.3100 -0.6257 -0.2688
O3 O -0.2291(3) -0.5163(2) -0.15091(10)
H5 H -0.2181 -0.5002 -0.1113
H6 H -0.2407 -0.5923 -0.1412
O4 O -0.1809(2) -0.2103(2) -0.31278(11)
H7 H -0.1377 -0.1565 -0.3071
H8 H -0.2261 -0.1674 -0.3532
N1 N -0.2545(3) -0.2420(2) -0.16602(12)
N2 N 0.0273(2) -0.4111(2) -0.21752(11)
N3 N -0.0211(2) -0.6510(2) -0.27021(12)
N4 N -0.8198(4) 0.0084(4) -0.12219(15)
N5 N -0.5344(3) 0.1604(3) -0.25604(18)
N6 N -0.6978(3) 0.0791(3) -0.42540(14)
N7 N -0.9923(3) -0.0763(3) -0.28931(13)
N8 N -0.4735(2) -0.2320(2) -0.27215(12)
C1 C -0.3945(4) -0.1642(3) -0.13828(15)
H9 H -0.4783 -0.1734 -0.1522
C2 C -0.4206(4) -0.0714(4) -0.09038(17)
H10 H -0.5198 -0.0180 -0.0732
C3 C -0.2969(5) -0.0596(4) -0.0686(2)
H11 H -0.3113 0.0020 -0.0361
C4 C -0.1519(5) -0.1394(4) -0.09500(19)
H12 H -0.0671 -0.1326 -0.0805
C5 C -0.1327(3) -0.2310(3) -0.14379(14)
C6 C 0.0212(3) -0.3229(3) -0.17236(14)
C7 C 0.1544(4) -0.3189(4) -0.15383(18)
H13 H 0.1479 -0.2570 -0.1229
C8 C 0.2960(4) -0.4073(4) -0.18173(19)
H14 H 0.3858 -0.4060 -0.1697
C9 C 0.3017(3) -0.4963(4) -0.22721(18)
H15 H 0.3956 -0.5569 -0.2466
C10 C 0.1667(3) -0.4954(3) -0.24407(15)
H16 H 0.1721 -0.5562 -0.2754
C11 C 0.0715(3) -0.7663(3) -0.27271(13)
C12 C -0.7967(3) 0.0215(3) -0.17916(15)
C13 C -0.6234(3) 0.1215(3) -0.26251(16)
C14 C -0.7283(3) 0.0700(3) -0.36881(15)
C15 C -0.9045(3) -0.0319(3) -0.28456(13)
C16 C -0.5892(3) -0.1324(3) -0.27333(13)
Co1_2 Co 0.23532(3) -0.95326(3) -0.274050(18)
C11_2 C -0.9285(3) 0.2337(3) -0.27271(13)
N9 N -0.5422(3) -0.4467(3) -0.38347(14)
N10 N -0.2528(3) -0.6466(3) -0.41143(12)
C17 C -0.6812(4) -0.3360(4) -0.38084(19)
H17 H -0.6905 -0.2557 -0.3622
C18 C -0.8110(4) -0.3342(4) -0.40401(17)
H18 H -0.9051 -0.2543 -0.4018
C19 C -0.7982(4) -0.4531(4) -0.43046(19)
H19 H -0.8848 -0.4569 -0.4448
C20 C -0.6556(4) -0.5672(4) -0.43566(19)
H20 H -0.6443 -0.6477 -0.4548
C21 C -0.5297(3) -0.5604(3) -0.41196(14)
C22 C -0.3702(3) -0.6782(3) -0.41820(14)
C23 C -0.3464(4) -0.8133(4) -0.43113(18)
H21 H -0.4294 -0.8337 -0.4346
C24 C -0.1961(4) -0.9173(4) -0.43881(18)
H22 H -0.1774 -1.0081 -0.4480
C25 C -0.0764(4) -0.8852(3) -0.43277(15)
H23 H 0.0249 -0.9532 -0.4379
C26 C -0.1093(3) -0.7486(3) -0.41876(15)
H24 H -0.0275 -0.7270 -0.4143
O5 O -0.2690(2) -0.8141(2) -0.24212(13)
H25 H -0.3414 -0.8381 -0.2417
H26 H -0.1858 -0.8762 -0.2610
O6 O -0.3582(3) -0.1531(3) -0.43609(12)
H27 H -0.3419 -0.1232 -0.4768
H28 H -0.4669 -0.0951 -0.4201
O8 O -0.7282(10) -0.2218(10) -0.0204(5)
O9 O -0.2656(13) -0.7444(10) -0.1161(4)
N11 N -0.1926(4) -0.4669(3) -1.01975(15)
C27 C -0.3371(6) -0.3997(5) -0.9964(2)
H29 H -0.4138 -0.4073 -1.0179
C28 C -0.3799(6) -0.3192(5) -0.9418(2)
H30 H -0.4824 -0.2756 -0.9265
C29 C -0.2690(6) -0.3049(4) -0.91085(19)
H31 H -0.2949 -0.2489 -0.8749
C30 C -0.1181(5) -0.3744(4) -0.93364(18)
H32 H -0.0409 -0.3653 -0.9132
C31 C -0.0810(5) -0.4587(3) -0.98751(15)
N11A N 0.1926(4) -0.5331(3) -0.98025(15)
C27A C 0.3371(6) -0.6003(5) -1.0036(2)
H29A H 0.4138 -0.5927 -0.9821
C28A C 0.3799(6) -0.6808(5) -1.0582(2)
H30A H 0.4824 -0.7244 -1.0735
C29A C 0.2690(6) -0.6951(4) -1.08915(19)
H31A H 0.2949 -0.7511 -1.1251
C30A C 0.1181(5) -0.6256(4) -1.06636(18)
H32A H 0.0409 -0.6347 -1.0868
C31A C 0.0810(5) -0.5413(3) -1.01249(15)
O7? O -0.1682(6) -0.7969(5) -0.12078(19)
O10? O -0.9258(12) -0.0946(11) -0.9882(5)
loop_
_geom_bond_atom_site_label_1
_geom_bond_atom_site_label_2
_geom_bond_site_symmetry_1
_geom_bond_site_symmetry_2
Tm1 O1 1_555 1_555
Co1 C12 1_555 1_555
O1 H1 1_555 1_555
H2 O1 1_555 1_555
O2 Tm1 1_555 1_555
H3 O2 1_555 1_555
H4 O2 1_555 1_555
O3 Tm1 1_555 1_555
H5 O3 1_555 1_555
H6 O3 1_555 1_555
O4 Tm1 1_555 1_555
H7 O4 1_555 1_555
H8 O4 1_555 1_555
N1 Tm1 1_555 1_555
N2 Tm1 1_555 1_555
N3 Tm1 1_555 1_555
N4 C12 1_555 1_555
N5 C13 1_555 1_555
N6 C14 1_555 1_555
N7 C15 1_555 1_555
N8 Tm1 1_555 1_555
N9 C17 1_555 1_555
N10 C22 1_555 1_555
C1 N1 1_555 1_555
H9 C1 1_555 1_555
C2 C1 1_555 1_555
H10 C2 1_555 1_555
C3 C2 1_555 1_555
H11 C3 1_555 1_555
C4 C3 1_555 1_555
H12 C4 1_555 1_555
C5 N1 1_555 1_555
C6 N2 1_555 1_555
C7 C6 1_555 1_555
H13 C7 1_555 1_555
C8 C7 1_555 1_555
H14 C8 1_555 1_555
C9 C8 1_555 1_555
H15 C9 1_555 1_555
C10 N2 1_555 1_555
H16 C10 1_555 1_555
C11 N3 1_555 1_555
C13 Co1 1_555 1_555
C14 Co1 1_555 1_555
C15 Co1 1_555 1_555
C16 Co1 1_555 1_555
C17 H17 1_555 1_555
C18 C17 1_555 1_555
H18 C18 1_555 1_555
C19 C18 1_555 1_555
H19 C19 1_555 1_555
C20 C19 1_555 1_555
H20 C20 1_555 1_555
C21 N9 1_555 1_555
C22 C21 1_555 1_555
C23 C22 1_555 1_555
H21 C23 1_555 1_555
C24 C23 1_555 1_555
H22 C24 1_555 1_555
C25 C24 1_555 1_555
H23 C25 1_555 1_555
C26 N10 1_555 1_555
H24 C26 1_555 1_555
O5 H25 1_555 1_555
H26 O5 1_555 1_555
O6 H27 1_555 1_555
H28 O6 1_555 1_555
N11 C27 1_555 1_555
C27 H29 1_555 1_555
C28 C27 1_555 1_555
H30 C28 1_555 1_555
C29 C28 1_555 1_555
H31 C29 1_555 1_555
C30 C29 1_555 1_555
H32 C30 1_555 1_555
C31 N11 1_555 1_555
Co1_2 C11 1_555 1_555
C11_2 Co1 1_555 1_555
N11A C27A 1_555 1_555
C27A H29A 1_555 1_555
C28A C27A 1_555 1_555
H30A C28A 1_555 1_555
C29A C28A 1_555 1_555
H31A C29A 1_555 1_555
C30A C29A 1_555 1_555
H32A C30A 1_555 1_555
C31A C31 1_555 1_555
N8 C16 1_555 1_555
C4 C5 1_555 1_555
C5 C6 1_555 1_555
C9 C10 1_555 1_555
C20 C21 1_555 1_555
C25 C26 1_555 1_555
C30 C31 1_555 1_555
N11A C31A 1_555 1_555
C30A C31A 1_555 1_555

#END
