
#######################################################################
#
#                 Cambridge Crystallographic Data Centre
#                                CCDC 
#
#######################################################################
#
# If this CIF has been generated from an entry in the Cambridge 
# Structural Database, then it will include bibliographic, chemical, 
# crystal, experimental, refinement or atomic coordinate data resulting 
# from the CCDC's data processing and validation procedures.
#
#######################################################################

data_NAXKOO
_symmetry_cell_setting           orthorhombic
_symmetry_space_group_name_H-M   'I m m a'
_symmetry_Int_Tables_number      74
_space_group_name_Hall           '-I 2b 2'
loop_
_symmetry_equiv_pos_site_id
_symmetry_equiv_pos_as_xyz
1 x,y,z
2 -x,1/2-y,z
3 x,-y,-z
4 -x,1/2+y,-z
5 1/2+x,1/2+y,1/2+z
6 1/2-x,-y,1/2+z
7 1/2+x,1/2-y,1/2-z
8 1/2-x,y,1/2-z
9 -x,-y,-z
10 x,1/2+y,-z
11 -x,y,z
12 x,1/2-y,z
13 1/2-x,1/2-y,1/2-z
14 1/2+x,y,1/2-z
15 1/2-x,1/2+y,1/2+z
16 1/2+x,-y,1/2+z
_cell_length_a                   6.6425(9)
_cell_length_b                   16.3870(31)
_cell_length_c                   13.3679(25)
_cell_angle_alpha                90
_cell_angle_beta                 90
_cell_angle_gamma                90
_cell_volume                     1455.1
loop_
_atom_site_label
_atom_site_type_symbol
_atom_site_fract_x
_atom_site_fract_y
_atom_site_fract_z
C1 C 0.50000 0.0679 0.72633
O2 O 0.50000 0.1366(8) 0.747(4)
O3 O 0.50000 -0.0008(8) 0.705(4)
Al1 Al 0.25000 0.25000 0.25000
O1 O 0.00000 0.25000 0.1884(30)
C5 C 0.184(13) 0.46603 0.46735
C6 C 0.00000 0.43207 0.43470
C8 C -0.18443 0.46603 0.4673(11)
C10 C 0.00000 0.3641(13) 0.3694(10)
O8 O 0.1619(10) 0.33433 0.34075
O9 O -0.16185 0.334(5) 0.34075
N1 N 0.369(12) 0.432(5) 0.435(7)
Al1A Al -0.25000 0.25000 0.25000
Al1B Al 0.25000 0.75000 0.75000
Al1C Al -0.25000 0.75000 0.75000
O1F O 0.50000 0.25000 0.3116(30)
C5B C 0.184(13) 0.53397 0.53265
C6B C 0.00000 0.56793 0.56530
C8B C -0.18443 0.53397 0.5327(11)
C10B C 0.00000 0.6359(13) 0.6306(10)
O8B O 0.1619(10) 0.66567 0.65925
O8H O -0.1619(10) 0.66567 0.65925
O8G O 0.3381(10) 0.33433 0.15925
O8L O 0.3381(10) 0.16567 0.15925
O9A O 0.16185 0.166(5) 0.34075
N1J N -0.369(12) 0.432(5) 0.435(7)
N1H N -0.369(12) 0.568(5) 0.565(7)
N1B N 0.369(12) 0.568(5) 0.565(7)
C2? C 0.250(4) 0.7061(27) 0.0950(22)
O4? O 0.080(4) 0.703(7) 0.074(5)
O5? O 0.419(4) 0.709(6) 0.1164(32)
C3? C 0.00000 0.568(5) 0.5653(11)
C4? C 0.18443 0.534(7) 0.5327(11)
C7? C -0.18443 0.46603 0.46735
C9? C 0.00000 0.6359(11) 0.6306(11)
O6? O 0.1619(10) 0.66567 0.6593(13)
O7? O -0.16185 0.66567 0.6593(13)
loop_
_geom_bond_atom_site_label_1
_geom_bond_atom_site_label_2
_geom_bond_site_symmetry_1
_geom_bond_site_symmetry_2
Al1 O1 1_555 1_555
O1 Al1A 1_555 1_555
C1 O2 1_555 1_555
O3 C1 1_555 1_555
C5 C6 1_555 1_555
C6 C8 1_555 1_555
C8 C8B 1_555 1_555
C10 C6 1_555 1_555
O8 Al1 1_555 1_555
O9 C10 1_555 1_555
N1 C5 1_555 1_555
Al1A O9 1_555 1_555
Al1B O8B 1_555 1_555
Al1C O8H 1_555 1_555
O1F Al1 1_555 1_555
C5B C5 1_555 1_555
C6B C5B 1_555 1_555
C8B C6B 1_555 1_555
C10B C6B 1_555 1_555
O8B C10B 1_555 1_555
O8H C10B 1_555 1_555
O8G Al1 1_555 1_555
O8L Al1 1_555 1_555
O9A Al1 1_555 1_555
N1J C8 1_555 1_555
N1H C8B 1_555 1_555
N1B C5B 1_555 1_555
C10 O8 1_555 1_555

#END
