
#######################################################################
#
#                 Cambridge Crystallographic Data Centre
#                                CCDC 
#
#######################################################################
#
# If this CIF has been generated from an entry in the Cambridge 
# Structural Database, then it will include bibliographic, chemical, 
# crystal, experimental, refinement or atomic coordinate data resulting 
# from the CCDC's data processing and validation procedures.
#
#######################################################################

data_NAXKED
_symmetry_cell_setting           triclinic
_symmetry_space_group_name_H-M   'P -1'
_symmetry_Int_Tables_number      2
_space_group_name_Hall           '-P 1'
loop_
_symmetry_equiv_pos_site_id
_symmetry_equiv_pos_as_xyz
1 x,y,z
2 -x,-y,-z
_cell_length_a                   9.694(12)
_cell_length_b                   10.587(13)
_cell_length_c                   19.98(2)
_cell_angle_alpha                83.90(2)
_cell_angle_beta                 85.05(2)
_cell_angle_gamma                63.536(18)
_cell_volume                     1823.55
loop_
_atom_site_label
_atom_site_type_symbol
_atom_site_fract_x
_atom_site_fract_y
_atom_site_fract_z
Lu1 Lu -0.212560(13) -0.407170(11) -0.254020(6)
Fe1 Fe -0.76690(5) 0.04616(4) -0.27215(2)
O1 O -0.3561(3) -0.5282(2) -0.26674(12)
H1 H -0.311(4) -0.6182(12) -0.267(2)
H2 H -0.409(4) -0.511(4) -0.3016(13)
O2 O -0.2080(3) -0.4226(2) -0.36996(12)
H3 H -0.221(5) -0.493(3) -0.381(2)
H4 H -0.249(5) -0.346(3) -0.3955(17)
O3 O -0.1822(3) -0.2132(3) -0.31216(14)
H5 H -0.128(4) -0.172(4) -0.302(2)
H6 H -0.239(4) -0.168(4) -0.3454(15)
O4 O -0.2344(3) -0.5124(3) -0.15040(12)
H7 H -0.236(6) -0.592(3) -0.139(2)
H8 H -0.220(6) -0.489(5) -0.1125(13)
N1 N -0.2542(3) -0.2428(3) -0.16466(14)
N2 N 0.0255(3) -0.4115(3) -0.21723(13)
N3 N -0.0261(3) -0.6476(3) -0.26801(14)
N4 N -0.6977(4) 0.0796(4) -0.42598(17)
N5 N -0.9972(4) -0.0786(3) -0.28894(16)
N6 N -0.8251(5) 0.0076(4) -0.11807(18)
N7 N -0.5321(4) 0.1592(4) -0.2537(2)
N8 N -0.4710(3) -0.2346(3) -0.27056(14)
C1 C -0.3935(5) -0.1643(4) -0.13707(18)
H13 H -0.4777 -0.1732 -0.1510
C2 C -0.4192(5) -0.0705(4) -0.0890(2)
H14 H -0.5180 -0.0175 -0.0710
C3 C -0.2952(6) -0.0577(5) -0.0685(2)
H15 H -0.3085 0.0049 -0.0365
C4 C -0.1508(6) -0.1384(5) -0.0957(2)
H16 H -0.0655 -0.1309 -0.0821
C5 C -0.1329(4) -0.2308(3) -0.14332(16)
C6 C 0.0214(4) -0.3226(3) -0.17253(17)
C7 C 0.1542(5) -0.3186(4) -0.1544(2)
H17 H 0.1485 -0.2570 -0.1232
C8 C 0.2952(5) -0.4068(4) -0.1832(2)
H18 H 0.3854 -0.4050 -0.1719
C9 C 0.2994(4) -0.4966(4) -0.2283(2)
H19 H 0.3928 -0.5576 -0.2481
C10 C 0.1645(4) -0.4956(4) -0.24419(18)
H20 H 0.1692 -0.5567 -0.2754
C11 C 0.0661(3) -0.7632(3) -0.27082(16)
C12 C -0.7278(4) 0.0695(3) -0.36948(18)
C13 C -0.9099(4) -0.0338(3) -0.28351(16)
C14 C -0.8016(4) 0.0211(3) -0.17470(18)
C15 C -0.6224(4) 0.1214(3) -0.25967(19)
C16 C -0.5873(3) -0.1351(3) -0.27212(16)
Fe1_2 Fe 0.23310(5) -0.95384(4) -0.27215(2)
C11_2 C -0.9339(3) 0.2368(3) -0.27082(16)
O5 O -0.2697(3) -0.8110(3) -0.24195(19)
H9 H -0.359(7) -0.834(5) -0.250(2)
H10 H -0.208(7) -0.863(6) -0.249(3)
O6 O -0.3578(4) -0.1542(3) -0.43466(15)
H11 H -0.339(6) -0.128(6) -0.471(3)
H12 H -0.448(7) -0.129(6) -0.436(3)
O7 O -0.081(3) -0.8942(19) -0.0148(9)
O8 O -0.184(2) -0.7880(12) -0.1190(3)
N9 N -0.2537(3) -0.6470(3) -0.41082(15)
N10 N -0.5420(4) -0.4460(3) -0.38344(16)
C17 C -0.1105(4) -0.7494(4) -0.41816(18)
H21 H -0.0286 -0.7283 -0.4133
C18 C -0.0773(5) -0.8846(4) -0.43261(18)
H22 H 0.0242 -0.9525 -0.4379
C19 C -0.1976(5) -0.9165(4) -0.4389(2)
H23 H -0.1787 -1.0071 -0.4484
C20 C -0.3473(5) -0.8131(4) -0.4312(2)
H24 H -0.4303 -0.8332 -0.4348
C21 C -0.3714(4) -0.6777(4) -0.41805(17)
C22 C -0.5299(4) -0.5599(4) -0.41207(17)
C23 C -0.6553(5) -0.5670(5) -0.4354(2)
H25 H -0.6435 -0.6479 -0.4544
C24 C -0.7990(5) -0.4532(5) -0.4304(2)
H26 H -0.8857 -0.4572 -0.4446
C25 C -0.8111(5) -0.3334(5) -0.4038(2)
H27 H -0.9051 -0.2531 -0.4016
C26 C -0.6820(5) -0.3359(4) -0.3809(2)
H28 H -0.6914 -0.2556 -0.3622
N11 N -0.1931(5) -0.4673(4) -1.01884(17)
C27 C -0.3368(8) -0.3999(6) -0.9950(2)
H29 H -0.4142 -0.4071 -1.0164
C28 C -0.3782(7) -0.3196(5) -0.9401(2)
H30 H -0.4803 -0.2769 -0.9239
C29 C -0.2668(7) -0.3045(5) -0.9103(2)
H31 H -0.2920 -0.2475 -0.8745
C30 C -0.1158(7) -0.3744(4) -0.9334(2)
H32 H -0.0378 -0.3656 -0.9133
C31 C -0.0808(6) -0.4587(4) -0.98762(18)
N11A N 0.1931(5) -0.5327(4) -0.98116(17)
C27A C 0.3368(8) -0.6001(6) -1.0050(2)
H29A H 0.4142 -0.5929 -0.9836
C28A C 0.3782(7) -0.6804(5) -1.0599(2)
H30A H 0.4803 -0.7231 -1.0761
C29A C 0.2668(7) -0.6955(5) -1.0897(2)
H31A H 0.2920 -0.7525 -1.1255
C30A C 0.1158(7) -0.6256(4) -1.0666(2)
H32A H 0.0378 -0.6344 -1.0867
C31A C 0.0808(6) -0.5413(4) -1.01238(18)
O9? O -0.275(4) -0.736(2) -0.1125(8)
loop_
_geom_bond_atom_site_label_1
_geom_bond_atom_site_label_2
_geom_bond_site_symmetry_1
_geom_bond_site_symmetry_2
Lu1 O1 1_555 1_555
Fe1 C12 1_555 1_555
O1 H1 1_555 1_555
H2 O1 1_555 1_555
O2 Lu1 1_555 1_555
H3 O2 1_555 1_555
H4 O2 1_555 1_555
O3 Lu1 1_555 1_555
H5 O3 1_555 1_555
H6 O3 1_555 1_555
O4 Lu1 1_555 1_555
H7 O4 1_555 1_555
H8 O4 1_555 1_555
O5 H9 1_555 1_555
H10 O5 1_555 1_555
O6 H11 1_555 1_555
H12 O6 1_555 1_555
N1 Lu1 1_555 1_555
N2 Lu1 1_555 1_555
N3 Lu1 1_555 1_555
N4 C12 1_555 1_555
N5 C13 1_555 1_555
N6 C14 1_555 1_555
N7 C15 1_555 1_555
N8 Lu1 1_555 1_555
N9 C17 1_555 1_555
N10 C22 1_555 1_555
N11 C27 1_555 1_555
C1 N1 1_555 1_555
H13 C1 1_555 1_555
C2 C1 1_555 1_555
H14 C2 1_555 1_555
C3 C2 1_555 1_555
H15 C3 1_555 1_555
C4 C3 1_555 1_555
H16 C4 1_555 1_555
C5 N1 1_555 1_555
C6 N2 1_555 1_555
C7 C6 1_555 1_555
H17 C7 1_555 1_555
C8 C7 1_555 1_555
H18 C8 1_555 1_555
C9 C8 1_555 1_555
H19 C9 1_555 1_555
C10 N2 1_555 1_555
H20 C10 1_555 1_555
C11 N3 1_555 1_555
C13 Fe1 1_555 1_555
C14 Fe1 1_555 1_555
C15 Fe1 1_555 1_555
C16 Fe1 1_555 1_555
C17 H21 1_555 1_555
C18 C17 1_555 1_555
H22 C18 1_555 1_555
C19 C18 1_555 1_555
H23 C19 1_555 1_555
C20 C19 1_555 1_555
H24 C20 1_555 1_555
C21 N9 1_555 1_555
C22 C21 1_555 1_555
C23 C22 1_555 1_555
H25 C23 1_555 1_555
C24 C23 1_555 1_555
H26 C24 1_555 1_555
C25 C24 1_555 1_555
H27 C25 1_555 1_555
C26 N10 1_555 1_555
H28 C26 1_555 1_555
C27 H29 1_555 1_555
C28 C27 1_555 1_555
H30 C28 1_555 1_555
C29 C28 1_555 1_555
H31 C29 1_555 1_555
C30 C29 1_555 1_555
H32 C30 1_555 1_555
C31 N11 1_555 1_555
Fe1_2 C11 1_555 1_555
N11A C27A 1_555 1_555
C11_2 Fe1 1_555 1_555
C27A H29A 1_555 1_555
C28A C27A 1_555 1_555
H30A C28A 1_555 1_555
C29A C28A 1_555 1_555
H31A C29A 1_555 1_555
C30A C29A 1_555 1_555
H32A C30A 1_555 1_555
C31A C31 1_555 1_555
N8 C16 1_555 1_555
C4 C5 1_555 1_555
C5 C6 1_555 1_555
C9 C10 1_555 1_555
C20 C21 1_555 1_555
C25 C26 1_555 1_555
C30 C31 1_555 1_555
N11A C31A 1_555 1_555
C30A C31A 1_555 1_555

#END
