
#######################################################################
#
#                 Cambridge Crystallographic Data Centre
#                                CCDC 
#
#######################################################################
#
# If this CIF has been generated from an entry in the Cambridge 
# Structural Database, then it will include bibliographic, chemical, 
# crystal, experimental, refinement or atomic coordinate data resulting 
# from the CCDC's data processing and validation procedures.
#
#######################################################################

data_NAXMAB
_symmetry_cell_setting           orthorhombic
_symmetry_space_group_name_H-M   'P n m a'
_symmetry_Int_Tables_number      62
_space_group_name_Hall           '-P 2ac 2n'
loop_
_symmetry_equiv_pos_site_id
_symmetry_equiv_pos_as_xyz
1 x,y,z
2 1/2-x,-y,1/2+z
3 -x,1/2+y,-z
4 1/2+x,1/2-y,1/2-z
5 -x,-y,-z
6 1/2+x,y,1/2-z
7 x,1/2-y,z
8 1/2-x,1/2+y,1/2+z
_cell_length_a                   8.7620(7)
_cell_length_b                   28.368(3)
_cell_length_c                   8.7638(7)
_cell_angle_alpha                90
_cell_angle_beta                 90
_cell_angle_gamma                90
_cell_volume                     2178.33
loop_
_atom_site_label
_atom_site_type_symbol
_atom_site_fract_x
_atom_site_fract_y
_atom_site_fract_z
Zn1 Zn 0.18766(6) 0.470398(19) 0.58772(6)
P1 P 0.42171(13) 0.53170(4) 0.75276(14)
O1 O 0.5367(4) 0.57265(12) 0.7170(4)
H1 H 0.6015 0.5639 0.7046
O2 O 0.3292(4) 0.52251(12) 0.6087(4)
O3 O 0.3152(4) 0.55214(13) 0.8768(4)
O4 O 0.5021(4) 0.48846(12) 0.8114(4)
N1 N 0.2648(5) 0.41234(15) 0.6911(5)
N2 N 0.3723(5) 0.36857(16) 0.8679(5)
C1 C 0.4170(6) 0.3507(2) 0.7298(6)
H2 H 0.4813 0.3242 0.7133
C2 C 0.3519(6) 0.37791(18) 0.6219(6)
H3 H 0.3640 0.3740 0.5150
C3 C 0.2814(6) 0.40550(18) 0.8387(6)
H4 H 0.2347 0.4244 0.9151
C4 C 0.4264(7) 0.35270(19) 1.0178(6)
H5 H 0.3611 0.3664 1.0987
H6 H 0.5322 0.3638 1.0343
C5 C 0.4218(6) 0.2997(2) 1.0275(6)
C6 C 0.5538(6) 0.27511(19) 1.0073(6)
H7 H 0.6605 0.2920 0.9773
C7 C 0.2813(6) 0.2754(2) 1.0511(6)
C8 C 0.1409(6) 0.2989(2) 1.0757(6)
H8 H 0.1492 0.3294 1.0720
C9 C 0.0088(6) 0.2750(2) 1.0972(6)
H9 H -0.0945 0.2930 1.1139
Zn1A Zn 0.31234(6) 0.529602(19) 0.08772(6)
Zn1A_2 Zn 0.31234(6) 0.529602(19) 1.08772(6)
Zn1E Zn 0.68766(6) 0.470398(19) 0.91228(6)
Zn1F Zn 0.18766(6) 0.029602(19) 0.58772(6)
Zn1D Zn -0.18766(6) 0.529602(19) 0.41228(6)
P1A P 0.07829(13) 0.46830(4) 0.25276(14)
O1A O -0.0367(4) 0.42735(12) 0.2170(4)
H1A H -0.1015 0.4361 0.2046
O2A O 0.1708(4) 0.47749(12) 0.1087(4)
O3A O 0.1848(4) 0.44786(13) 0.3768(4)
O3_2 O 0.3152(4) 0.55214(13) -0.1232(4)
O4A O -0.0021(4) 0.51154(12) 0.3114(4)
O4E O 0.0021(4) 0.48846(12) 0.6886(4)
O4D O 0.4979(4) 0.51154(12) 0.1886(4)
N1F N 0.2648(5) 0.08766(15) 0.6911(5)
N1A N 0.2352(5) 0.58766(15) 0.1911(5)
N2F N 0.3723(5) 0.13143(16) 0.8679(5)
C1F C 0.4170(6) 0.1493(2) 0.7298(6)
H2F H 0.4813 0.1758 0.7133
C2F C 0.3519(6) 0.12209(18) 0.6219(6)
H3F H 0.3640 0.1260 0.5150
C3F C 0.2814(6) 0.09450(18) 0.8387(6)
H4F H 0.2347 0.0756 0.9151
C4F C 0.4264(7) 0.14730(19) 1.0178(6)
H5F H 0.3611 0.1336 1.0987
H6F H 0.5322 0.1362 1.0343
C5F C 0.4218(6) 0.2003(2) 1.0275(6)
C6F C 0.5538(6) 0.22489(19) 1.0073(6)
H7F H 0.6605 0.2080 0.9773
C7F C 0.2813(6) 0.2246(2) 1.0511(6)
C8F C 0.1409(6) 0.2011(2) 1.0757(6)
H8F H 0.1492 0.1706 1.0720
C9F C 0.0088(6) 0.2250(2) 1.0972(6)
H9F H -0.0945 0.2070 1.1139
loop_
_geom_bond_atom_site_label_1
_geom_bond_atom_site_label_2
_geom_bond_site_symmetry_1
_geom_bond_site_symmetry_2
Zn1 O2 1_555 1_555
P1 O1 1_555 1_555
O1 H1 1_555 1_555
O2 P1 1_555 1_555
O3 P1 1_555 1_555
O4 P1 1_555 1_555
N1 Zn1 1_555 1_555
N2 C1 1_555 1_555
C1 H2 1_555 1_555
C2 N1 1_555 1_555
H3 C2 1_555 1_555
C3 N1 1_555 1_555
H4 C3 1_555 1_555
C4 N2 1_555 1_555
H5 C4 1_555 1_555
H6 C4 1_555 1_555
C5 C4 1_555 1_555
C6 C5 1_555 1_555
H7 C6 1_555 1_555
C7 C5 1_555 1_555
C8 C7 1_555 1_555
H8 C8 1_555 1_555
C9 C8 1_555 1_555
H9 C9 1_555 1_555
Zn1A O2A 1_555 1_555
Zn1A_2 O3 1_555 1_555
Zn1E O4 1_555 1_555
Zn1F N1F 1_555 1_555
Zn1D O4A 1_555 1_555
P1A O1A 1_555 1_555
O1A H1A 1_555 1_555
O2A P1A 1_555 1_555
O3A Zn1 1_555 1_555
O3_2 Zn1A 1_555 1_555
O4A P1A 1_555 1_555
O4E Zn1 1_555 1_555
O4D Zn1A 1_555 1_555
N1F C2F 1_555 1_555
N1A Zn1A 1_555 1_555
N2F C1F 1_555 1_555
C1F H2F 1_555 1_555
C2F C1F 1_555 1_555
H3F C2F 1_555 1_555
C3F N1F 1_555 1_555
H4F C3F 1_555 1_555
C4F N2F 1_555 1_555
H5F C4F 1_555 1_555
H6F C4F 1_555 1_555
C5F C4F 1_555 1_555
C6F C6 1_555 1_555
H7F C6F 1_555 1_555
C7F C7 1_555 1_555
C8F C7F 1_555 1_555
H8F C8F 1_555 1_555
C9F C9 1_555 1_555
H9F C9F 1_555 1_555
N2 C3 1_555 1_555
C1 C2 1_555 1_555
P1A O3A 1_555 1_555
N2F C3F 1_555 1_555
C5F C6F 1_555 1_555
C5F C7F 1_555 1_555
C8F C9F 1_555 1_555

#END
