
#######################################################################
#
#                 Cambridge Crystallographic Data Centre
#                                CCDC 
#
#######################################################################
#
# If this CIF has been generated from an entry in the Cambridge 
# Structural Database, then it will include bibliographic, chemical, 
# crystal, experimental, refinement or atomic coordinate data resulting 
# from the CCDC's data processing and validation procedures.
#
#######################################################################

data_NAXTEN
_symmetry_cell_setting           monoclinic
_symmetry_space_group_name_H-M   'C 2/c'
_symmetry_Int_Tables_number      15
_space_group_name_Hall           '-C 2yn'
loop_
_symmetry_equiv_pos_site_id
_symmetry_equiv_pos_as_xyz
1 x,y,z
2 -x,y,1/2-z
3 1/2+x,1/2+y,z
4 1/2-x,1/2+y,1/2-z
5 -x,-y,-z
6 x,-y,1/2+z
7 1/2-x,1/2-y,-z
8 1/2+x,1/2-y,1/2+z
_cell_length_a                   14.7154(11)
_cell_length_b                   9.0292(11)
_cell_length_c                   20.568(2)
_cell_angle_alpha                90
_cell_angle_beta                 93.032(9)
_cell_angle_gamma                90
_cell_volume                     2729.01
loop_
_atom_site_label
_atom_site_type_symbol
_atom_site_fract_x
_atom_site_fract_y
_atom_site_fract_z
Mn1 Mn 0.0000 0.0000 0.5000
C1 C 0.0025(4) 0.4608(6) 0.3615(3)
H1 H 0.0058 0.5433 0.3347
C2 C 0.0624(4) 0.4404(7) 0.4098(4)
H2 H 0.1089 0.5088 0.4179
C3 C -0.0652(5) 0.3586(6) 0.3512(3)
H3 H -0.1089 0.3696 0.3171
C4 C 0.0563(3) 0.3164(5) 0.4490(3)
H4 H 0.1001 0.3041 0.4828
C5 C -0.0671(4) 0.2389(5) 0.3926(2)
H5 H -0.1134 0.1697 0.3860
N1 N -0.00582(19) 0.2174(3) 0.44161(13)
C6 C 0.1742(2) 0.2239(3) 0.65427(14)
N2 N 0.1328(2) 0.3082(3) 0.75957(13)
C7 C 0.2538(2) 0.3076(4) 0.66037(18)
H6 H 0.2949 0.3074 0.6275
C8 C 0.2095(3) 0.3881(4) 0.76329(19)
H7 H 0.2217 0.4451 0.8004
C9 C 0.2707(3) 0.3908(5) 0.7162(2)
H8 H 0.3232 0.4479 0.7213
C10 C 0.11654(19) 0.2280(3) 0.70595(13)
C11 C 0.1535(2) 0.1353(3) 0.59361(14)
O1 O 0.07041(14) 0.1120(2) 0.57882(9)
O2 O 0.21788(17) 0.0930(4) 0.56188(13)
O3 O -0.13469(18) 0.0407(3) 0.53863(14)
S1 S 0.01812(5) 0.11058(8) 0.70289(3)
C12 C -0.1723(3) 0.1591(5) 0.5709(2)
H9 H -0.1320 0.1881 0.6069
H10 H -0.2299 0.1302 0.5867
H11 H -0.1809 0.2409 0.5414
H12 H -0.164(3) 0.013(5) 0.515(2)
Mn1A Mn 0.0000 0.0000 1.0000
C1D C -0.0025(4) -0.4608(6) 0.6385(3)
H1D H -0.0058 -0.5433 0.6653
C2D C -0.0624(4) -0.4404(7) 0.5902(4)
H2D H -0.1089 -0.5088 0.5821
C3D C 0.0652(5) -0.3586(6) 0.6488(3)
H3D H 0.1089 -0.3696 0.6829
C4D C -0.0563(3) -0.3164(5) 0.5510(3)
H4D H -0.1001 -0.3041 0.5172
C5D C 0.0671(4) -0.2389(5) 0.6074(2)
H5D H 0.1134 -0.1697 0.6140
N1D N 0.00582(19) -0.2174(3) 0.55839(13)
C6A C -0.1742(2) 0.2239(3) 0.84573(14)
N2A N -0.1328(2) 0.3082(3) 0.74043(13)
C7A C -0.2538(2) 0.3076(4) 0.83963(18)
H6A H -0.2949 0.3074 0.8725
C8A C -0.2095(3) 0.3881(4) 0.73671(19)
H7A H -0.2217 0.4451 0.6996
C9A C -0.2707(3) 0.3908(5) 0.7838(2)
H8A H -0.3232 0.4479 0.7787
C10A C -0.11654(19) 0.2280(3) 0.79405(13)
C11A C -0.1535(2) 0.1353(3) 0.90639(14)
O1A O -0.07041(14) 0.1120(2) 0.92118(9)
O1D O -0.07041(14) -0.1120(2) 0.42118(9)
O2A O -0.21788(17) 0.0930(4) 0.93812(13)
O3D O 0.13469(18) -0.0407(3) 0.46137(14)
S1A S -0.01812(5) 0.11058(8) 0.79711(3)
C12D C 0.1723(3) -0.1591(5) 0.4291(2)
H9D H 0.1320 -0.1881 0.3931
H10D H 0.2299 -0.1302 0.4133
H11D H 0.1809 -0.2409 0.4586
H12D H 0.164(3) -0.013(5) 0.485(2)
loop_
_geom_bond_atom_site_label_1
_geom_bond_atom_site_label_2
_geom_bond_site_symmetry_1
_geom_bond_site_symmetry_2
Mn1 N1 1_555 1_555
C1 H1 1_555 1_555
C2 C1 1_555 1_555
H2 C2 1_555 1_555
C3 C1 1_555 1_555
H3 C3 1_555 1_555
C4 C2 1_555 1_555
H4 C4 1_555 1_555
C5 C3 1_555 1_555
H5 C5 1_555 1_555
N1 C4 1_555 1_555
C6 C7 1_555 1_555
N2 C8 1_555 1_555
C7 H6 1_555 1_555
C8 H7 1_555 1_555
C9 C7 1_555 1_555
H8 C9 1_555 1_555
C10 C6 1_555 1_555
C11 C6 1_555 1_555
O1 Mn1 1_555 1_555
O2 C11 1_555 1_555
O3 Mn1 1_555 1_555
S1 C10 1_555 1_555
C12 O3 1_555 1_555
H9 C12 1_555 1_555
H10 C12 1_555 1_555
H11 C12 1_555 1_555
H12 O3 1_555 1_555
Mn1A O1A 1_555 1_555
C1D H1D 1_555 1_555
C2D C1D 1_555 1_555
H2D C2D 1_555 1_555
C3D C1D 1_555 1_555
H3D C3D 1_555 1_555
C4D C2D 1_555 1_555
H4D C4D 1_555 1_555
C5D C3D 1_555 1_555
H5D C5D 1_555 1_555
N1D Mn1 1_555 1_555
C6A C7A 1_555 1_555
N2A C8A 1_555 1_555
C7A H6A 1_555 1_555
C8A H7A 1_555 1_555
C9A C7A 1_555 1_555
H8A C9A 1_555 1_555
C10A C6A 1_555 1_555
C11A C6A 1_555 1_555
O1A C11A 1_555 1_555
O1D Mn1 1_555 1_555
O2A C11A 1_555 1_555
O3D Mn1 1_555 1_555
S1A S1 1_555 1_555
C12D O3D 1_555 1_555
H9D C12D 1_555 1_555
H10D C12D 1_555 1_555
H11D C12D 1_555 1_555
H12D O3D 1_555 1_555
C5 N1 1_555 1_555
N2 C10 1_555 1_555
C8 C9 1_555 1_555
C11 O1 1_555 1_555
C4D N1D 1_555 1_555
C5D N1D 1_555 1_555
N2A C10A 1_555 1_555
C8A C9A 1_555 1_555
C10A S1A 1_555 1_555

#END
