
#######################################################################
#
#                 Cambridge Crystallographic Data Centre
#                                CCDC 
#
#######################################################################
#
# If this CIF has been generated from an entry in the Cambridge 
# Structural Database, then it will include bibliographic, chemical, 
# crystal, experimental, refinement or atomic coordinate data resulting 
# from the CCDC's data processing and validation procedures.
#
#######################################################################

data_NAXVUE
_symmetry_cell_setting           monoclinic
_symmetry_space_group_name_H-M   'P 21/c'
_symmetry_Int_Tables_number      14
_space_group_name_Hall           '-P 2ybc'
loop_
_symmetry_equiv_pos_site_id
_symmetry_equiv_pos_as_xyz
1 x,y,z
2 -x,1/2+y,1/2-z
3 -x,-y,-z
4 x,1/2-y,1/2+z
_cell_length_a                   11.847(2)
_cell_length_b                   5.9316(12)
_cell_length_c                   14.971(3)
_cell_angle_alpha                90
_cell_angle_beta                 92.10(3)
_cell_angle_gamma                90
_cell_volume                     1051.33
loop_
_atom_site_label
_atom_site_type_symbol
_atom_site_fract_x
_atom_site_fract_y
_atom_site_fract_z
C1 C 0.6546(7) 1.0879(14) 0.3800(5)
C2 C 0.6102(7) 0.8894(15) 0.3391(5)
H1 H 0.659 0.7783 0.3161
C3 C 0.4955(8) 0.8615(16) 0.3335(6)
H2 H 0.4644 0.7281 0.3074
C4 C 0.4233(9) 1.0273(19) 0.3657(8)
H3 H 0.3438 1.0062 0.361
C5 C 0.4672(8) 1.2212(19) 0.4042(6)
H4 H 0.4181 1.3346 0.4251
C6 C 0.5835(7) 1.2500(15) 0.4123(5)
H5 H 0.614 1.3816 0.4401
C7 C 0.8469(7) 0.8987(15) 0.4657(5)
H6 H 0.8116 0.9162 0.5242
H7 H 0.8201 0.755 0.4389
C8 C 0.9739(7) 0.8912(14) 0.4796(5)
H8 H 1.0081 0.8628 0.4212
H9 H 0.994 0.7628 0.5193
Cl1 Cl 1.0958(2) 1.0801(3) 0.24548(16)
Cl2 Cl 0.7886(2) 1.0662(3) 0.10007(15)
Hg1 Hg 0.87845(3) 1.04617(5) 0.243722(18)
S1 S 0.80378(16) 1.1342(3) 0.39219(11)
C1B C 1.3454(7) 0.9121(14) 0.6200(5)
C2B C 1.3898(7) 1.1106(15) 0.6609(5)
H1B H 1.341 1.2217 0.6839
C3B C 1.5045(8) 1.1385(16) 0.6665(6)
H2B H 1.5356 1.2719 0.6926
C4B C 1.5767(9) 0.9727(19) 0.6343(8)
H3B H 1.6562 0.9938 0.639
C5B C 1.5328(8) 0.7788(19) 0.5958(6)
H4B H 1.5819 0.6654 0.5749
C6B C 1.4165(7) 0.7500(15) 0.5877(5)
H5B H 1.386 0.6184 0.5599
C7B C 1.1531(7) 1.1013(15) 0.5343(5)
H6B H 1.1884 1.0838 0.4758
H7B H 1.1799 1.245 0.5611
C8B C 1.0261(7) 1.1088(14) 0.5204(5)
H8B H 0.9919 1.1372 0.5788
H9B H 1.006 1.2372 0.4807
Cl1A Cl 0.9042(2) 0.5801(3) 0.25452(16)
Cl1_2 Cl 1.0958(2) 0.0801(3) 0.24548(16)
Cl2A Cl 1.2114(2) 0.5662(3) 0.39993(15)
Hg1A Hg 1.12155(3) 0.54617(5) 0.256278(18)
Hg1A_2 Hg 1.12155(3) 1.54617(5) 0.256278(18)
Hg1B Hg 1.12155(3) 0.95383(5) 0.756278(18)
S1B S 1.19622(16) 0.8658(3) 0.60781(11)
S1A S 1.19622(16) 0.6342(3) 0.10781(11)
loop_
_geom_bond_atom_site_label_1
_geom_bond_atom_site_label_2
_geom_bond_site_symmetry_1
_geom_bond_site_symmetry_2
C1 C2 1_555 1_555
C2 H1 1_555 1_555
C3 C2 1_555 1_555
H2 C3 1_555 1_555
C4 C3 1_555 1_555
H3 C4 1_555 1_555
C5 C4 1_555 1_555
H4 C5 1_555 1_555
C6 C1 1_555 1_555
H5 C6 1_555 1_555
C7 H6 1_555 1_555
H7 C7 1_555 1_555
C8 C7 1_555 1_555
H8 C8 1_555 1_555
H9 C8 1_555 1_555
Cl1 Hg1 1_555 1_555
Cl2 Hg1 1_555 1_555
Hg1 S1 1_555 1_555
S1 C1 1_555 1_555
C1B C2B 1_555 1_555
C2B H1B 1_555 1_555
C3B C2B 1_555 1_555
H2B C3B 1_555 1_555
C4B C3B 1_555 1_555
H3B C4B 1_555 1_555
C5B C4B 1_555 1_555
H4B C5B 1_555 1_555
C6B C1B 1_555 1_555
H5B C6B 1_555 1_555
C7B H6B 1_555 1_555
H7B C7B 1_555 1_555
C8B C8 1_555 1_555
H8B C8B 1_555 1_555
H9B C8B 1_555 1_555
Cl1A Hg1 1_555 1_555
Cl1_2 Hg1A 1_555 1_555
Cl2A Hg1A 1_555 1_555
Hg1A Cl1A 1_555 1_555
Hg1A_2 Cl1 1_555 1_555
Hg1B S1B 1_555 1_555
S1B C1B 1_555 1_555
S1A Hg1A 1_555 1_555
C5 C6 1_555 1_555
C7 S1 1_555 1_555
C5B C6B 1_555 1_555
C7B C8B 1_555 1_555
C7B S1B 1_555 1_555

#END
