
#######################################################################
#
#                 Cambridge Crystallographic Data Centre
#                                CCDC 
#
#######################################################################
#
# If this CIF has been generated from an entry in the Cambridge 
# Structural Database, then it will include bibliographic, chemical, 
# crystal, experimental, refinement or atomic coordinate data resulting 
# from the CCDC's data processing and validation procedures.
#
#######################################################################

data_NAYFUP
_symmetry_cell_setting           monoclinic
_symmetry_space_group_name_H-M   'C 2/c'
_symmetry_Int_Tables_number      15
_space_group_name_Hall           '-C 2yn'
loop_
_symmetry_equiv_pos_site_id
_symmetry_equiv_pos_as_xyz
1 x,y,z
2 -x,y,1/2-z
3 1/2+x,1/2+y,z
4 1/2-x,1/2+y,1/2-z
5 -x,-y,-z
6 x,-y,1/2+z
7 1/2-x,1/2-y,-z
8 1/2+x,1/2-y,1/2+z
_cell_length_a                   9.9313(1)
_cell_length_b                   7.2786(7)
_cell_length_c                   17.256(2)
_cell_angle_alpha                90
_cell_angle_beta                 102.955(13)
_cell_angle_gamma                90
_cell_volume                     1215.62
loop_
_atom_site_label
_atom_site_type_symbol
_atom_site_fract_x
_atom_site_fract_y
_atom_site_fract_z
Cu1 Cu 0.5000 0.2112(1) 0.2500
O1 O 0.4055(1) 0.0499(2) 0.3137(1)
O2 O 0.3628(2) 0.0609(2) 0.4354(1)
O3 O 0.1851(2) 0.7316(2) 0.3624(1)
O4 O 0.3829(2) 0.7106(2) 0.4523(1)
N1 N 0.4017(2) 0.4114(2) 0.2953(1)
C1 C 0.3846(2) 0.1352(2) 0.3748(1)
C2 C 0.3910(2) 0.3486(2) 0.3749(1)
C3 C 0.2699(2) 0.4314(2) 0.4043(1)
C4 C 0.2744(2) 0.6382(2) 0.4046(1)
C5 C 0.4785(2) 0.5836(2) 0.2895(1)
H1 H 0.3140(30) 0.4180(40) 0.2619(18)
H2 H 0.3820(30) 0.8240(40) 0.4465(17)
Cu1B Cu 0.0000 0.7112(1) 0.2500
Cu1B_2 Cu 1.0000 0.7112(1) 0.2500
O1A O 0.5945(1) 0.0499(2) 0.1863(1)
O2A O 0.6372(2) 0.0609(2) 0.0646(1)
O3A O 0.8149(2) 0.7316(2) 0.1376(1)
O3B O 0.6851(2) 0.2316(2) 0.3624(1)
O3C O 0.3149(2) 0.2316(2) 0.1376(1)
O4A O 0.6171(2) 0.7106(2) 0.0477(1)
N1A N 0.5983(2) 0.4114(2) 0.2047(1)
C1A C 0.6154(2) 0.1352(2) 0.1252(1)
C2A C 0.6090(2) 0.3486(2) 0.1251(1)
C3A C 0.7301(2) 0.4314(2) 0.0957(1)
C4A C 0.7256(2) 0.6382(2) 0.0954(1)
C5A C 0.5215(2) 0.5836(2) 0.2105(1)
H1A H 0.6860(30) 0.4180(40) 0.2381(18)
H2A H 0.6180(30) 0.8240(40) 0.0535(17)
loop_
_geom_bond_atom_site_label_1
_geom_bond_atom_site_label_2
_geom_bond_site_symmetry_1
_geom_bond_site_symmetry_2
Cu1 O1 1_555 1_555
O1 C1 1_555 1_555
O2 C1 1_555 1_555
O3 C4 1_555 1_555
O4 C4 1_555 1_555
N1 Cu1 1_555 1_555
C1 C2 1_555 1_555
C2 N1 1_555 1_555
C3 C2 1_555 1_555
C4 C3 1_555 1_555
C5 N1 1_555 1_555
H1 N1 1_555 1_555
H2 O4 1_555 1_555
Cu1B O3 1_555 1_555
Cu1B_2 O3A 1_555 1_555
O1A Cu1 1_555 1_555
O2A C1A 1_555 1_555
O3A C4A 1_555 1_555
O3B Cu1 1_555 1_555
O3C Cu1 1_555 1_555
O4A C4A 1_555 1_555
N1A Cu1 1_555 1_555
C1A O1A 1_555 1_555
C2A N1A 1_555 1_555
C3A C2A 1_555 1_555
C4A C3A 1_555 1_555
C5A C5 1_555 1_555
H1A N1A 1_555 1_555
H2A O4A 1_555 1_555
N1A C5A 1_555 1_555
C1A C2A 1_555 1_555

#END
