
#######################################################################
#
#                 Cambridge Crystallographic Data Centre
#                                CCDC 
#
#######################################################################
#
# If this CIF has been generated from an entry in the Cambridge 
# Structural Database, then it will include bibliographic, chemical, 
# crystal, experimental, refinement or atomic coordinate data resulting 
# from the CCDC's data processing and validation procedures.
#
#######################################################################

data_NAYHUS
_symmetry_cell_setting           orthorhombic
_symmetry_space_group_name_H-M   'P b c a'
_symmetry_Int_Tables_number      61
_space_group_name_Hall           '-P 2ac 2ab'
loop_
_symmetry_equiv_pos_site_id
_symmetry_equiv_pos_as_xyz
1 x,y,z
2 1/2-x,-y,1/2+z
3 1/2+x,1/2-y,-z
4 -x,1/2+y,1/2-z
5 -x,-y,-z
6 1/2+x,y,1/2-z
7 1/2-x,1/2+y,z
8 x,1/2-y,1/2+z
_cell_length_a                   9.3440(6)
_cell_length_b                   41.835(3)
_cell_length_c                   30.0493(18)
_cell_angle_alpha                90
_cell_angle_beta                 90
_cell_angle_gamma                90
_cell_volume                     11746.5
loop_
_atom_site_label
_atom_site_type_symbol
_atom_site_fract_x
_atom_site_fract_y
_atom_site_fract_z
C1 C 0.0049(13) 0.24841(18) 0.2310(4)
H1 H 0.0928 0.2508 0.2466
C2 C -0.0557(9) 0.27437(16) 0.2102(3)
C3 C -0.1880(10) 0.27003(19) 0.1888(3)
H2 H -0.2343 0.2876 0.1748
C4 C -0.0620(12) 0.21858(17) 0.2294(4)
H3 H -0.0175 0.2008 0.2434
C5 C -0.2491(10) 0.24076(17) 0.1881(4)
H4 H -0.3375 0.2383 0.1728
C6 C -0.1902(9) 0.21434(17) 0.2083(3)
Cd1 Cd 0.84105(6) 0.620540(11) 0.18625(2)
Cu1 Cu 0.22827(12) 0.37304(2) 0.20972(4)
O1 O 1.0442(10) 0.62040(12) 0.2267(4)
O2 O 0.6924(8) 0.58364(13) 0.2204(2)
O3 O -0.1911(8) 0.15843(12) 0.2214(2)
O4 O -0.3703(7) 0.17826(14) 0.1813(3)
O5 O 0.8581(6) 0.56158(13) 0.1793(2)
O6 O 0.0519(7) 0.38010(11) -0.1144(2)
O7 O 0.2867(7) 0.37756(14) -0.1193(2)
C7 C -0.2589(11) 0.18150(17) 0.2036(3)
N1 N 0.1353(7) 0.34593(13) 0.2566(2)
C8 C 0.7470(11) 0.55933(17) 0.2002(3)
C9 C 0.2273(9) 0.37262(16) 0.3240(3)
C10 C 0.7263(10) 0.50137(18) 0.1857(3)
H5 H 0.8161 0.5023 0.1710
C11 C 0.6699(9) 0.52864(17) 0.2042(3)
N2 N 0.3059(7) 0.40175(14) 0.1637(2)
N3 N 0.1413(7) 0.34526(15) 0.1627(2)
N4 N 0.3235(7) 0.39879(14) 0.2566(3)
C12 C 0.1750(9) 0.37886(18) -0.0967(4)
C13 C 0.3246(9) 0.39273(18) 0.3017(3)
C14 C 0.2764(9) 0.40057(19) 0.1169(3)
C15 C 0.2143(10) 0.37560(19) 0.0955(4)
C16 C 0.5399(14) 0.52511(19) 0.2277(4)
H6 H 0.4996 0.5431 0.2424
C17 C 0.0201(9) 0.30529(17) 0.2091(3)
C18 C 0.3277(10) 0.4298(2) 0.0962(4)
H7 H 0.3200 0.4355 0.0657
C19 C -0.0302(9) 0.31338(17) 0.2909(3)
H8 H -0.1020 0.2975 0.2948
C20 C 0.0412(8) 0.32167(15) 0.2498(3)
C21 C 0.4211(8) 0.42314(16) 0.2508(3)
C22 C 0.2033(12) 0.3710(3) 0.4661(3)
C23 C 0.1077(10) 0.3195(2) 0.0952(4)
H9 H 0.1103 0.3153 0.0641
C24 C 0.4411(9) 0.43993(17) 0.2110(3)
C25 C 0.1585(9) 0.3483(2) 0.1178(3)
C26 C 0.6534(9) 0.47230(19) 0.1883(4)
H10 H 0.6943 0.4538 0.1750
C27 C 0.1308(9) 0.35239(17) 0.3004(3)
C28 C 0.0571(10) 0.3002(2) 0.1268(4)
H11 H 0.0163 0.2797 0.1226
C29 C 0.0760(9) 0.31653(17) 0.1684(3)
C30 C 0.0254(9) 0.33267(17) 0.3228(3)
H12 H 0.0006 0.3332 0.3535
C31 C 0.2452(11) 0.3445(2) 0.3993(4)
H13 H 0.2646 0.3253 0.3837
C32 C 0.4730(13) 0.49704(19) 0.2295(5)
H14 H 0.3853 0.4958 0.2454
C33 C 0.3878(9) 0.44718(18) 0.1286(3)
H15 H 0.4294 0.4677 0.1247
C34 C 0.2231(9) 0.37277(18) 0.3744(3)
C35 C 0.3802(10) 0.43015(19) 0.1704(4)
C36 C 0.0700(5) 0.38094(18) 0.0253(2)
H16 H -0.0140 0.3833 0.0429
C37 C 0.0605(5) 0.38112(18) -0.0208(2)
H17 H -0.0299 0.3836 -0.0348
C38 C 0.1834(6) 0.37769(14) -0.04645(15)
C39 C 0.3157(5) 0.37408(16) -0.02593(19)
H18 H 0.3997 0.3717 -0.0434
C40 C 0.3252(5) 0.37389(16) 0.02024(19)
H19 H 0.4156 0.3714 0.0343
C41 C 0.2023(6) 0.37733(14) 0.04587(15)
C42 C 0.5249(10) 0.46978(17) 0.2095(3)
C43 C 0.1893(12) 0.3993(2) 0.3978(4)
H20 H 0.1696 0.4186 0.3825
C44 C 0.2402(14) 0.3434(3) 0.4434(4)
H21 H 0.2614 0.3243 0.4590
C45 C 0.1829(12) 0.3986(3) 0.4437(4)
H22 H 0.1640 0.4178 0.4597
C46 C 0.4889(9) 0.43086(17) 0.2921(3)
H23 H 0.5628 0.4462 0.2963
C47 C 0.4282(9) 0.41220(17) 0.3245(3)
H24 H 0.4498 0.4121 0.3554
C48 C 0.192(2) 0.3719(5) 0.5122(5)
Cd1F Cd -0.34105(6) 0.120540(11) 0.18625(2)
Cd1D Cd 0.15895(6) 0.379460(11) -0.18625(2)
O3F O 0.6911(8) 0.65843(12) 0.2214(2)
O4F O 0.8703(7) 0.67826(14) 0.1813(3)
O6D O 0.9481(7) 0.61990(11) 0.1144(2)
O7D O 0.7133(7) 0.62244(14) 0.1193(2)
loop_
_geom_bond_atom_site_label_1
_geom_bond_atom_site_label_2
_geom_bond_site_symmetry_1
_geom_bond_site_symmetry_2
C1 H1 1_555 1_555
C2 C1 1_555 1_555
C3 C2 1_555 1_555
H2 C3 1_555 1_555
C4 C1 1_555 1_555
H3 C4 1_555 1_555
C5 C3 1_555 1_555
H4 C5 1_555 1_555
C6 C4 1_555 1_555
Cd1 O1 1_555 1_555
Cu1 N1 1_555 1_555
O2 Cd1 1_555 1_555
O3 C7 1_555 1_555
O4 C7 1_555 1_555
O5 Cd1 1_555 1_555
O6 C12 1_555 1_555
O7 C12 1_555 1_555
C7 C6 1_555 1_555
N1 C20 1_555 1_555
C8 O2 1_555 1_555
C9 C13 1_555 1_555
C10 H5 1_555 1_555
C11 C8 1_555 1_555
N2 Cu1 1_555 1_555
N3 Cu1 1_555 1_555
N4 Cu1 1_555 1_555
C12 C38 1_555 1_555
C13 N4 1_555 1_555
C14 N2 1_555 1_555
C15 C14 1_555 1_555
C16 C11 1_555 1_555
H6 C16 1_555 1_555
C17 C2 1_555 1_555
C18 C14 1_555 1_555
H7 C18 1_555 1_555
C19 H8 1_555 1_555
C20 C17 1_555 1_555
C21 N4 1_555 1_555
C22 C44 1_555 1_555
C23 H9 1_555 1_555
C24 C21 1_555 1_555
C25 N3 1_555 1_555
C26 C10 1_555 1_555
H10 C26 1_555 1_555
C27 N1 1_555 1_555
C28 C23 1_555 1_555
H11 C28 1_555 1_555
C29 N3 1_555 1_555
C30 C19 1_555 1_555
H12 C30 1_555 1_555
C31 H13 1_555 1_555
C32 C16 1_555 1_555
H14 C32 1_555 1_555
C33 C18 1_555 1_555
H15 C33 1_555 1_555
C34 C9 1_555 1_555
C35 N2 1_555 1_555
C36 H16 1_555 1_555
C37 C36 1_555 1_555
H17 C37 1_555 1_555
C38 C37 1_555 1_555
C39 C38 1_555 1_555
H18 C39 1_555 1_555
C40 C39 1_555 1_555
H19 C40 1_555 1_555
C41 C15 1_555 1_555
C42 C24 1_555 1_555
C43 C34 1_555 1_555
H20 C43 1_555 1_555
C44 C31 1_555 1_555
H21 C44 1_555 1_555
C45 C22 1_555 1_555
H22 C45 1_555 1_555
C46 C21 1_555 1_555
H23 C46 1_555 1_555
C47 C13 1_555 1_555
H24 C47 1_555 1_555
C48 C22 1_555 1_555
Cd1F O3 1_555 1_555
Cd1D O6 1_555 1_555
O3F Cd1 1_555 1_555
O4F Cd1 1_555 1_555
O6D Cd1 1_555 1_555
O7D Cd1 1_555 1_555
C5 C6 1_555 1_555
O4 Cd1F 1_555 1_555
O5 C8 1_555 1_555
O7 Cd1D 1_555 1_555
C9 C27 1_555 1_555
C10 C11 1_555 1_555
C15 C25 1_555 1_555
C17 C29 1_555 1_555
C19 C20 1_555 1_555
C23 C25 1_555 1_555
C24 C35 1_555 1_555
C26 C42 1_555 1_555
C27 C30 1_555 1_555
C28 C29 1_555 1_555
C31 C34 1_555 1_555
C32 C42 1_555 1_555
C33 C35 1_555 1_555
C36 C41 1_555 1_555
C40 C41 1_555 1_555
C43 C45 1_555 1_555
C46 C47 1_555 1_555

#END
