
#######################################################################
#
#                 Cambridge Crystallographic Data Centre
#                                CCDC 
#
#######################################################################
#
# If this CIF has been generated from an entry in the Cambridge 
# Structural Database, then it will include bibliographic, chemical, 
# crystal, experimental, refinement or atomic coordinate data resulting 
# from the CCDC's data processing and validation procedures.
#
#######################################################################

data_NAYJUS
_symmetry_cell_setting           orthorhombic
_symmetry_space_group_name_H-M   'P 21 21 2'
_symmetry_Int_Tables_number      18
_space_group_name_Hall           'P 2 2ab'
loop_
_symmetry_equiv_pos_site_id
_symmetry_equiv_pos_as_xyz
1 x,y,z
2 -x,-y,z
3 1/2+x,1/2-y,-z
4 1/2-x,1/2+y,-z
_cell_length_a                   16.348(3)
_cell_length_b                   16.364(5)
_cell_length_c                   7.570(1)
_cell_angle_alpha                90
_cell_angle_beta                 90
_cell_angle_gamma                90
_cell_volume                     2025.12
loop_
_atom_site_label
_atom_site_type_symbol
_atom_site_fract_x
_atom_site_fract_y
_atom_site_fract_z
C1 C 0.3825(7) 0.0345(7) 0.442(2)
C2 C 0.4062(9) 0.0950(9) 0.585(2)
C3 C 0.3462(8) 0.1659(8) 0.575(2)
C4 C 0.5357(7) 0.1158(7) 0.053(2)
C5 C 0.5959(9) 0.0921(9) -0.084(2)
C6 C 0.6689(9) 0.1519(8) -0.073(2)
O1 O 0.3823(4) 0.0577(4) 0.288(1)
O4 O 0.3647(6) -0.0347(5) 0.489(1)
O5 O 0.3480(6) 0.2095(5) 0.431(1)
O6 O 0.2991(6) 0.1846(6) 0.692(1)
O7 O 0.5588(4) 0.1181(4) 0.215(1)
O8 O 0.4645(5) 0.1347(6) 0.011(1)
O9 O 0.6825(6) 0.1999(6) -0.196(1)
O10 O 0.7095(5) 0.1513(6) 0.070(1)
O11 O 0.2869(5) 0.1755(6) 0.063(1)
O12 O 0.3211(6) -0.2120(5) 0.438(1)
C7 C 0.5199(8) 0.3154(8) 0.222(2)
C8 C 0.5443(9) 0.3970(9) 0.212(3)
C9 C 0.4865(9) 0.4532(8) 0.176(2)
C10 C 0.4122(9) 0.4331(9) 0.141(2)
C11 C 0.3893(9) 0.3504(9) 0.156(2)
C12 C 0.1863(8) 0.0200(8) 0.280(2)
C13 C 0.1050(8) 0.0451(9) 0.290(2)
C14 C 0.0489(9) -0.0106(9) 0.326(2)
C15 C 0.067(1) -0.090(1) 0.362(3)
C16 C 0.151(1) -0.108(1) 0.351(2)
Cu1 Cu 0.40130(8) 0.17360(8) 0.2167(2)
Cu2 Cu 0.32648(8) -0.09871(8) 0.2844(2)
N1 N 0.4426(6) 0.2916(6) 0.189(2)
N2 N 0.2087(6) -0.0570(6) 0.317(2)
O7A O 0.4412(4) -0.1181(4) 0.215(1)
C4A C 0.4643(7) -0.1158(7) 0.053(2)
C5A C 0.4041(9) -0.0921(9) -0.084(2)
C6A C 0.3311(9) -0.1519(8) -0.073(2)
O9A O 0.3175(6) -0.1999(6) -0.196(1)
O10A O 0.2905(5) -0.1513(6) 0.070(1)
C14A C -0.0489(9) 0.0106(9) 0.326(2)
C13A C -0.1050(8) -0.0451(9) 0.290(2)
C12A C -0.1863(8) -0.0200(8) 0.280(2)
N2A N -0.2087(6) 0.0570(6) 0.317(2)
C16A C -0.151(1) 0.108(1) 0.351(2)
C15A C -0.067(1) 0.090(1) 0.362(3)
Cu2A Cu -0.32648(8) 0.09871(8) 0.2844(2)
O8A O 0.5355(5) -0.1347(6) 0.011(1)
Cu1A Cu 0.59870(8) -0.17360(8) 0.2167(2)
O1A O 0.6177(4) -0.0577(4) 0.288(1)
C1A C 0.6175(7) -0.0345(7) 0.442(2)
C2A C 0.5938(9) -0.0950(9) 0.585(2)
C3A C 0.6538(8) -0.1659(8) 0.575(2)
O5A O 0.6520(6) -0.2095(5) 0.431(1)
O11A O 0.7131(5) -0.1755(6) 0.063(1)
N1A N 0.5574(6) -0.2916(6) 0.189(2)
O6A O 0.7009(6) -0.1846(6) 0.692(1)
O4A O 0.6353(6) 0.0347(5) 0.489(1)
Cu2A_2 Cu 0.67352(8) 0.09871(8) 0.2844(2)
O12A O 0.6789(6) 0.2120(5) 0.438(1)
N2A_2 N 0.7913(6) 0.0570(6) 0.317(2)
C9A C 0.5135(9) 0.5468(8) 0.176(2)
C8A C 0.4557(9) 0.6030(9) 0.212(3)
C7A C 0.4801(8) 0.6846(8) 0.222(2)
N1A_2 N 0.5574(6) 0.7084(6) 0.189(2)
C11A C 0.6107(9) 0.6496(9) 0.156(2)
C10A C 0.5878(9) 0.5669(9) 0.141(2)
Cu1A_2 Cu 0.59870(8) 0.82640(8) 0.2167(2)
O2 O 0.027(2) 0.246(2) 0.250(8)
O3 O 0.248(3) 0.520(3) 0.182(7)
loop_
_geom_bond_atom_site_label_1
_geom_bond_atom_site_label_2
_geom_bond_site_symmetry_1
_geom_bond_site_symmetry_2
C1 C2 1_555 1_555
C2 C3 1_555 1_555
C3 O5 1_555 1_555
C4 C5 1_555 1_555
C5 C6 1_555 1_555
C6 O9 1_555 1_555
O1 C1 1_555 1_555
O4 C1 1_555 1_555
O5 Cu1 1_555 1_555
O6 C3 1_555 1_555
O7 C4 1_555 1_555
O8 C4 1_555 1_555
O10 C6 1_555 1_555
O11 Cu1 1_555 1_555
O12 Cu2 1_555 1_555
C7 C8 1_555 1_555
C8 C9 1_555 1_555
C9 C10 1_555 1_555
C10 C11 1_555 1_555
C11 N1 1_555 1_555
C12 C13 1_555 1_555
C13 C14 1_555 1_555
C14 C15 1_555 1_555
C15 C16 1_555 1_555
C16 N2 1_555 1_555
Cu1 O1 1_555 1_555
Cu2 O4 1_555 1_555
N1 C7 1_555 1_555
N2 C12 1_555 1_555
O7A Cu2 1_555 1_555
C4A O7A 1_555 1_555
C5A C4A 1_555 1_555
C6A C5A 1_555 1_555
O9A C6A 1_555 1_555
O10A Cu2 1_555 1_555
C14A C14 1_555 1_555
C13A C14A 1_555 1_555
C12A C13A 1_555 1_555
N2A C12A 1_555 1_555
C16A N2A 1_555 1_555
C15A C14A 1_555 1_555
Cu2A N2A 1_555 1_555
O8A C4A 1_555 1_555
Cu1A O8A 1_555 1_555
O1A Cu1A 1_555 1_555
C1A O1A 1_555 1_555
C2A C1A 1_555 1_555
C3A C2A 1_555 1_555
O5A Cu1A 1_555 1_555
O11A Cu1A 1_555 1_555
N1A Cu1A 1_555 1_555
O6A C3A 1_555 1_555
O4A C1A 1_555 1_555
Cu2A_2 O7 1_555 1_555
O12A Cu2A_2 1_555 1_555
N2A_2 Cu2A_2 1_555 1_555
C9A C9 1_555 1_555
C8A C9A 1_555 1_555
C7A C8A 1_555 1_555
N1A_2 C7A 1_555 1_555
C11A N1A_2 1_555 1_555
C10A C9A 1_555 1_555
Cu1A_2 N1A_2 1_555 1_555
O8 Cu1 1_555 1_555
O10 Cu2A_2 1_555 1_555
Cu1 N1 1_555 1_555
Cu2 N2 1_555 1_555
C6A O10A 1_555 1_555
C16A C15A 1_555 1_555
C3A O5A 1_555 1_555
O4A Cu2A_2 1_555 1_555
C11A C10A 1_555 1_555

#END
