
#######################################################################
#
#                 Cambridge Crystallographic Data Centre
#                                CCDC 
#
#######################################################################
#
# If this CIF has been generated from an entry in the Cambridge 
# Structural Database, then it will include bibliographic, chemical, 
# crystal, experimental, refinement or atomic coordinate data resulting 
# from the CCDC's data processing and validation procedures.
#
#######################################################################

data_NAYKII
_symmetry_cell_setting           monoclinic
_symmetry_space_group_name_H-M   'I 2/a'
_symmetry_Int_Tables_number      15
_space_group_name_Hall           '-I 2ya'
loop_
_symmetry_equiv_pos_site_id
_symmetry_equiv_pos_as_xyz
1 x,y,z
2 1/2-x,y,-z
3 1/2+x,1/2+y,1/2+z
4 -x,1/2+y,1/2-z
5 -x,-y,-z
6 1/2+x,-y,z
7 1/2-x,1/2-y,1/2-z
8 x,1/2-y,1/2+z
_cell_length_a                   18.286(1)
_cell_length_b                   14.545(1)
_cell_length_c                   20.079(2)
_cell_angle_alpha                90
_cell_angle_beta                 99.173(9)
_cell_angle_gamma                90
_cell_volume                     5272.11
loop_
_atom_site_label
_atom_site_type_symbol
_atom_site_fract_x
_atom_site_fract_y
_atom_site_fract_z
Cu1 Cu 0.4622(1) -0.3499(1) 0.1201(1)
Cu2 Cu 0.7500 -0.2500 0.2500
Cu3 Cu 0.5000 0.0000 0.0000
O1 O 0.5127(1) -0.2758(1) 0.1918(1)
O2 O 0.6290(1) -0.2803(1) 0.1678(1)
O3 O 0.7703(1) -0.0188(2) 0.1510(1)
O4 O 0.7907(1) -0.1591(1) 0.1945(1)
O5 O 0.4074(1) -0.2434(1) 0.0778(1)
O6 O 0.5013(1) -0.1481(1) 0.0663(1)
O7 O 0.5433(2) 0.1109(2) 0.1808(1)
O8 O 0.5517(1) 0.0671(2) 0.0766(1)
N1 N 0.5196(1) -0.4685(2) 0.1483(1)
N2 N 0.4118(1) -0.4325(2) 0.0459(1)
N3 N 0.6759(1) -0.1509(2) 0.2629(1)
N4 N 0.4119(1) 0.0019(2) 0.0499(1)
C1 C 0.5721(2) -0.4843(2) 0.2006(2)
C2 C 0.6041(2) -0.5717(2) 0.2139(2)
C3 C 0.5807(2) -0.6436(2) 0.1716(2)
C4 C 0.5254(2) -0.6291(2) 0.1156(2)
C5 C 0.4957(2) -0.5397(2) 0.1066(1)
C6 C 0.3575(2) -0.4126(2) -0.0038(2)
C7 C 0.3269(2) -0.4784(2) -0.0517(2)
C8 C 0.3544(2) -0.5660(2) -0.0475(2)
C9 C 0.4111(2) -0.5898(2) 0.0053(2)
C10 C 0.4382(2) -0.5203(2) 0.0516(1)
C11 C 0.4986(2) -0.6982(2) 0.0663(2)
C12 C 0.4443(2) -0.6796(2) 0.0139(2)
C13 C 0.5804(2) -0.2534(2) 0.2001(1)
C14 C 0.6008(2) -0.1889(2) 0.2601(1)
C15 C 0.6777(2) -0.0836(2) 0.2075(2)
C16 C 0.7521(2) -0.0857(2) 0.1825(2)
C17 C 0.7007(2) -0.1057(2) 0.3287(2)
C18 C 0.4352(2) -0.1655(2) 0.0658(1)
C19 C 0.3770(2) -0.0900(2) 0.0480(2)
C20 C 0.4413(2) 0.0293(2) 0.1203(2)
C21 C 0.5175(2) 0.0728(2) 0.1273(2)
C22 C 0.3579(2) 0.0707(2) 0.0171(2)
O9 O 0.3795(2) -0.3928(2) 0.1875(1)
Cu1F Cu 1.0378(1) -0.1501(1) 0.3799(1)
Cu3B Cu 1.0000 -0.5000 0.5000
O1F O 0.9873(1) -0.2242(1) 0.3082(1)
O2F O 0.8710(1) -0.2197(1) 0.3322(1)
O3F O 0.7297(1) -0.4812(2) 0.3490(1)
O4F O 0.7093(1) -0.3409(1) 0.3055(1)
O5F O 1.0926(1) -0.2566(1) 0.4222(1)
O6F O 0.9987(1) -0.3519(1) 0.4337(1)
O6D O 0.4987(1) 0.1481(1) -0.0663(1)
O7F O 0.9567(2) -0.6109(2) 0.3192(1)
O8F O 0.9483(1) -0.5671(2) 0.4234(1)
O8D O 0.4483(1) -0.0671(2) -0.0766(1)
N1F N 0.9804(1) -0.0315(2) 0.3517(1)
N2F N 1.0882(1) -0.0675(2) 0.4541(1)
N3F N 0.8241(1) -0.3491(2) 0.2371(1)
N4F N 1.0881(1) -0.5019(2) 0.4501(1)
N4D N 0.5881(1) -0.0019(2) -0.0499(1)
C1F C 0.9279(2) -0.0157(2) 0.2994(2)
C2F C 0.8959(2) 0.0717(2) 0.2861(2)
C3F C 0.9193(2) 0.1436(2) 0.3284(2)
C4F C 0.9746(2) 0.1291(2) 0.3844(2)
C5F C 1.0043(2) 0.0397(2) 0.3934(1)
C6F C 1.1425(2) -0.0874(2) 0.5038(2)
C7F C 1.1731(2) -0.0216(2) 0.5517(2)
C8F C 1.1456(2) 0.0660(2) 0.5475(2)
C9F C 1.0889(2) 0.0898(2) 0.4947(2)
C10F C 1.0618(2) 0.0203(2) 0.4484(1)
C11F C 1.0014(2) 0.1982(2) 0.4337(2)
C12F C 1.0557(2) 0.1796(2) 0.4861(2)
C13F C 0.9196(2) -0.2466(2) 0.2999(1)
C14F C 0.8992(2) -0.3111(2) 0.2399(1)
C15F C 0.8223(2) -0.4164(2) 0.2925(2)
C16F C 0.7479(2) -0.4143(2) 0.3175(2)
C17F C 0.7993(2) -0.3943(2) 0.1713(2)
C18F C 1.0648(2) -0.3345(2) 0.4342(1)
C19F C 1.1230(2) -0.4100(2) 0.4520(2)
C20F C 1.0587(2) -0.5293(2) 0.3797(2)
C21F C 0.9825(2) -0.5728(2) 0.3727(2)
C22F C 1.1421(2) -0.5707(2) 0.4829(2)
O9F O 1.1205(2) -0.1072(2) 0.3125(1)
O10 O 0.6975(2) 0.1440(2) 0.1542(3)
O11 O 0.2347(2) -0.2912(2) -0.1096(2)
loop_
_geom_bond_atom_site_label_1
_geom_bond_atom_site_label_2
_geom_bond_site_symmetry_1
_geom_bond_site_symmetry_2
Cu1 O1 1_555 1_555
Cu2 O2 1_555 1_555
Cu3 O6 1_555 1_555
O1 C13 1_555 1_555
O2 C13 1_555 1_555
O3 C16 1_555 1_555
O4 Cu2 1_555 1_555
O5 Cu1 1_555 1_555
O6 C18 1_555 1_555
O7 C21 1_555 1_555
O8 Cu3 1_555 1_555
N1 Cu1 1_555 1_555
N2 Cu1 1_555 1_555
N3 Cu2 1_555 1_555
N4 Cu3 1_555 1_555
C1 N1 1_555 1_555
C2 C1 1_555 1_555
C3 C2 1_555 1_555
C4 C3 1_555 1_555
C5 N1 1_555 1_555
C6 N2 1_555 1_555
C7 C6 1_555 1_555
C8 C7 1_555 1_555
C9 C8 1_555 1_555
C10 N2 1_555 1_555
C11 C4 1_555 1_555
C12 C9 1_555 1_555
C13 C14 1_555 1_555
C14 N3 1_555 1_555
C15 N3 1_555 1_555
C16 O4 1_555 1_555
C17 N3 1_555 1_555
C18 O5 1_555 1_555
C19 N4 1_555 1_555
C20 N4 1_555 1_555
C21 O8 1_555 1_555
C22 N4 1_555 1_555
O9 Cu1 1_555 1_555
Cu1F O1F 1_555 1_555
Cu3B O6F 1_555 1_555
O1F C13F 1_555 1_555
O2F Cu2 1_555 1_555
O3F C16F 1_555 1_555
O4F Cu2 1_555 1_555
O5F Cu1F 1_555 1_555
O6F C18F 1_555 1_555
O6D Cu3 1_555 1_555
O7F C21F 1_555 1_555
O8F Cu3B 1_555 1_555
O8D Cu3 1_555 1_555
N1F Cu1F 1_555 1_555
N2F Cu1F 1_555 1_555
N3F Cu2 1_555 1_555
N4F Cu3B 1_555 1_555
N4D Cu3 1_555 1_555
C1F N1F 1_555 1_555
C2F C1F 1_555 1_555
C3F C2F 1_555 1_555
C4F C3F 1_555 1_555
C5F N1F 1_555 1_555
C6F N2F 1_555 1_555
C7F C6F 1_555 1_555
C8F C7F 1_555 1_555
C9F C8F 1_555 1_555
C10F N2F 1_555 1_555
C11F C4F 1_555 1_555
C12F C9F 1_555 1_555
C13F O2F 1_555 1_555
C14F N3F 1_555 1_555
C15F N3F 1_555 1_555
C16F O4F 1_555 1_555
C17F N3F 1_555 1_555
C18F O5F 1_555 1_555
C19F N4F 1_555 1_555
C20F N4F 1_555 1_555
C21F O8F 1_555 1_555
C22F N4F 1_555 1_555
O9F Cu1F 1_555 1_555
C4 C5 1_555 1_555
C5 C10 1_555 1_555
C9 C10 1_555 1_555
C11 C12 1_555 1_555
C15 C16 1_555 1_555
C18 C19 1_555 1_555
C20 C21 1_555 1_555
C4F C5F 1_555 1_555
C5F C10F 1_555 1_555
C9F C10F 1_555 1_555
C11F C12F 1_555 1_555
C13F C14F 1_555 1_555
C15F C16F 1_555 1_555
C18F C19F 1_555 1_555
C20F C21F 1_555 1_555

#END
