
#######################################################################
#
#                 Cambridge Crystallographic Data Centre
#                                CCDC 
#
#######################################################################
#
# If this CIF has been generated from an entry in the Cambridge 
# Structural Database, then it will include bibliographic, chemical, 
# crystal, experimental, refinement or atomic coordinate data resulting 
# from the CCDC's data processing and validation procedures.
#
#######################################################################

data_NAYMAC
_symmetry_cell_setting           monoclinic
_symmetry_space_group_name_H-M   'C 2/c'
_symmetry_Int_Tables_number      15
_space_group_name_Hall           '-C 2yn'
loop_
_symmetry_equiv_pos_site_id
_symmetry_equiv_pos_as_xyz
1 x,y,z
2 -x,y,1/2-z
3 1/2+x,1/2+y,z
4 1/2-x,1/2+y,1/2-z
5 -x,-y,-z
6 x,-y,1/2+z
7 1/2-x,1/2-y,-z
8 1/2+x,1/2-y,1/2+z
_cell_length_a                   30.7515(6)
_cell_length_b                   10.9577(2)
_cell_length_c                   17.5545(4)
_cell_angle_alpha                90
_cell_angle_beta                 112.040(1)
_cell_angle_gamma                90
_cell_volume                     5482.99
loop_
_atom_site_label
_atom_site_type_symbol
_atom_site_fract_x
_atom_site_fract_y
_atom_site_fract_z
Eu1 Eu 0.2413(1) 0.3086(1) 0.3200(1)
S1 S 0.1341(1) 0.9484(1) 0.3642(1)
O1 O 0.2212(1) 0.4127(2) 0.4280(1)
O2 O 0.2113(1) 0.5216(2) 0.3183(1)
O3 O 0.2263(1) 0.6106(2) 0.6807(1)
O4 O 0.2052(1) 0.8007(2) 0.6823(1)
O5 O 0.1551(1) 1.0525(2) 0.4138(2)
O6 O 0.0859(1) 0.9330(3) 0.3511(2)
O7 O 0.1432(1) 0.9461(3) 0.2897(2)
O8 O 0.3070(1) 0.4507(2) 0.3348(1)
O9 O 0.3021(1) 0.2636(2) 0.4601(1)
O10 O 0.3016(1) 0.1984(2) 0.2958(1)
O11 O 0.2319(1) 0.1005(2) 0.3533(1)
O12 O 0.1588(1) 0.2852(2) 0.2871(2)
C1 C 0.1968(1) 0.6194(3) 0.4281(2)
C2 C 0.2067(1) 0.6153(3) 0.5120(2)
C3 C 0.1972(1) 0.7148(3) 0.5522(2)
C4 C 0.1759(1) 0.8178(3) 0.5069(2)
C5 C 0.1643(1) 0.8199(3) 0.4227(2)
C6 C 0.1755(1) 0.7222(3) 0.3834(2)
C7 C 0.2104(1) 0.5124(3) 0.3893(2)
C8 C 0.2103(1) 0.7086(3) 0.6436(2)
Eu1E Eu 0.2413(1) 0.6914(1) -0.1800(1)
Eu1E_2 Eu 0.2413(1) 0.6914(1) 0.8200(1)
S1E S 0.1341(1) 0.0516(1) -0.1358(1)
O1E O 0.2212(1) 0.5873(2) -0.0720(1)
O2E O 0.2113(1) 0.4784(2) -0.1817(1)
O3E O 0.2263(1) 0.3894(2) 0.1807(1)
O3_2 O 0.2263(1) 0.6106(2) -0.3193(1)
O4E O 0.2052(1) 0.1993(2) 0.1823(1)
O4_2 O 0.2052(1) 0.8007(2) -0.3177(1)
O5E O 0.1551(1) -0.0525(2) -0.0862(2)
O6E O 0.0859(1) 0.0670(3) -0.1489(2)
O7E O 0.1432(1) 0.0539(3) -0.2103(2)
O8E O 0.3070(1) 0.5493(2) -0.1652(1)
O9E O 0.3021(1) 0.7364(2) -0.0399(1)
O10E O 0.3016(1) 0.8016(2) -0.2042(1)
O11E O 0.2319(1) 0.8995(2) -0.1467(1)
O12E O 0.1588(1) 0.7148(2) -0.2129(2)
C1E C 0.1968(1) 0.3806(3) -0.0719(2)
C2E C 0.2067(1) 0.3847(3) 0.0120(2)
C3E C 0.1972(1) 0.2852(3) 0.0522(2)
C4E C 0.1759(1) 0.1822(3) 0.0069(2)
C5E C 0.1643(1) 0.1801(3) -0.0773(2)
C6E C 0.1755(1) 0.2778(3) -0.1166(2)
C7E C 0.2104(1) 0.4876(3) -0.1107(2)
C8E C 0.2103(1) 0.2914(3) 0.1436(2)
O13 O 0.0000 0.8302(6) 0.2500
N1 N 0.3938(1) 0.1424(4) 0.3762(3)
N2 N 0.6002(1) -0.1160(4) 0.3577(3)
C9 C 0.4276(2) 0.2125(5) 0.3729(4)
C10 C 0.4705(2) 0.1679(4) 0.3766(3)
C11 C 0.4791(1) 0.0438(4) 0.3834(2)
C12 C 0.4440(2) -0.0280(4) 0.3890(3)
C13 C 0.4023(2) 0.0244(5) 0.3847(4)
C14 C 0.5226(1) -0.0094(4) 0.3790(2)
C15 C 0.5374(2) -0.1267(4) 0.4066(3)
C16 C 0.5761(2) -0.1748(5) 0.3949(4)
C17 C 0.5862(1) -0.0041(5) 0.3324(3)
C18 C 0.5481(1) 0.0536(4) 0.3418(3)
N3 N 0.0850(1) 0.1613(3) 0.1643(2)
C19 C 0.0884(2) 0.1478(5) 0.0924(4)
C20 C 0.0567(2) 0.0855(5) 0.0267(3)
C21 C 0.0178(1) 0.0338(3) 0.0347(2)
C22 C 0.0136(2) 0.0484(4) 0.1090(3)
C23 C 0.0480(2) 0.1112(4) 0.1715(3)
N3D N -0.0850(1) -0.1613(3) -0.1643(2)
C19D C -0.0884(2) -0.1478(5) -0.0924(4)
C20D C -0.0567(2) -0.0855(5) -0.0267(3)
C21D C -0.0178(1) -0.0338(3) -0.0347(2)
C22D C -0.0136(2) -0.0484(4) -0.1090(3)
C23D C -0.0480(2) -0.1112(4) -0.1715(3)
loop_
_geom_bond_atom_site_label_1
_geom_bond_atom_site_label_2
_geom_bond_site_symmetry_1
_geom_bond_site_symmetry_2
Eu1 O1 1_555 1_555
S1 O5 1_555 1_555
O1 C7 1_555 1_555
O2 Eu1 1_555 1_555
O3 C8 1_555 1_555
O4 C8 1_555 1_555
O6 S1 1_555 1_555
O7 S1 1_555 1_555
O8 Eu1 1_555 1_555
O9 Eu1 1_555 1_555
O10 Eu1 1_555 1_555
O11 Eu1 1_555 1_555
O12 Eu1 1_555 1_555
N1 C9 1_555 1_555
N2 C16 1_555 1_555
N3 C19 1_555 1_555
C1 C2 1_555 1_555
C2 C3 1_555 1_555
C3 C4 1_555 1_555
C4 C5 1_555 1_555
C5 S1 1_555 1_555
C6 C1 1_555 1_555
C7 O2 1_555 1_555
C8 C3 1_555 1_555
C9 C10 1_555 1_555
C10 C11 1_555 1_555
C11 C12 1_555 1_555
C12 C13 1_555 1_555
C13 N1 1_555 1_555
C14 C11 1_555 1_555
C15 C14 1_555 1_555
C16 C15 1_555 1_555
C17 N2 1_555 1_555
C18 C14 1_555 1_555
C19 C20 1_555 1_555
C20 C21 1_555 1_555
C21 C22 1_555 1_555
C22 C23 1_555 1_555
C23 N3 1_555 1_555
Eu1E O1E 1_555 1_555
Eu1E_2 O3 1_555 1_555
S1E O5E 1_555 1_555
O1E C7E 1_555 1_555
O2E Eu1E 1_555 1_555
O3E Eu1 1_555 1_555
O3_2 Eu1E 1_555 1_555
O4E Eu1 1_555 1_555
O4_2 Eu1E 1_555 1_555
O6E S1E 1_555 1_555
O7E S1E 1_555 1_555
O8E Eu1E 1_555 1_555
O9E Eu1E 1_555 1_555
O10E Eu1E 1_555 1_555
O11E Eu1E 1_555 1_555
O12E Eu1E 1_555 1_555
N3D C19D 1_555 1_555
C1E C2E 1_555 1_555
C2E C3E 1_555 1_555
C3E C4E 1_555 1_555
C4E C5E 1_555 1_555
C5E S1E 1_555 1_555
C6E C1E 1_555 1_555
C7E O2E 1_555 1_555
C8E O3E 1_555 1_555
C19D C20D 1_555 1_555
C20D C21D 1_555 1_555
C21D C21 1_555 1_555
C22D C21D 1_555 1_555
C23D N3D 1_555 1_555
O4 Eu1E_2 1_555 1_555
C1 C7 1_555 1_555
C5 C6 1_555 1_555
C17 C18 1_555 1_555
O4E C8E 1_555 1_555
C1E C7E 1_555 1_555
C3E C8E 1_555 1_555
C5E C6E 1_555 1_555
C22D C23D 1_555 1_555

#END
