
#######################################################################
#
#                 Cambridge Crystallographic Data Centre
#                                CCDC 
#
#######################################################################
#
# If this CIF has been generated from an entry in the Cambridge 
# Structural Database, then it will include bibliographic, chemical, 
# crystal, experimental, refinement or atomic coordinate data resulting 
# from the CCDC's data processing and validation procedures.
#
#######################################################################

data_NAYMEG
_symmetry_cell_setting           monoclinic
_symmetry_space_group_name_H-M   'P 21/a'
_symmetry_Int_Tables_number      14
_space_group_name_Hall           '-P 2yab'
loop_
_symmetry_equiv_pos_site_id
_symmetry_equiv_pos_as_xyz
1 x,y,z
2 1/2-x,1/2+y,-z
3 -x,-y,-z
4 1/2+x,1/2-y,z
_cell_length_a                   11.583(4)
_cell_length_b                   11.443(7)
_cell_length_c                   8.620(4)
_cell_angle_alpha                90
_cell_angle_beta                 108.77(3)
_cell_angle_gamma                90
_cell_volume                     1081.77
loop_
_atom_site_label
_atom_site_type_symbol
_atom_site_fract_x
_atom_site_fract_y
_atom_site_fract_z
Cu1 Cu 0.89770(6) 0.10621(5) 0.95550(9)
Cl1 Cl 1.0580(1) 0.0977(1) 0.8653(2)
O1 O 0.4772(3) -0.0842(3) 0.7683(6)
N1 N 0.5822(4) -0.0508(4) 0.7430(6)
N2 N 0.6564(4) 0.0218(4) 0.8464(5)
N3 N 0.7486(4) 0.0392(4) 0.7948(5)
C1 C 0.6701(5) -0.3032(5) 0.8910(7)
C2 C 0.5518(5) -0.2791(4) 0.8533(7)
C3 C 0.5068(5) -0.1703(5) 0.9069(7)
C4 C 0.8027(5) -0.0351(5) 0.5502(7)
C5 C 0.7599(6) -0.1080(5) 0.4204(7)
C6 C 0.6514(7) -0.1710(6) 0.3918(8)
C7 C 0.5794(6) -0.1595(5) 0.4870(8)
C8 C 0.6227(5) -0.0845(4) 0.6181(7)
C9 C 0.7318(4) -0.0253(4) 0.6530(6)
H1 H 0.709(6) -0.346(6) 0.840(8)
H2 H 0.738(4) -0.256(4) 0.954(6)
H3 H 0.496(6) -0.324(6) 0.773(8)
H4 H 0.441(8) -0.187(7) 0.970(11)
H5 H 0.573(6) -0.127(6) 1.004(10)
H6 H 0.880(4) 0.007(4) 0.573(5)
H7 H 0.814(7) -0.122(6) 0.359(10)
H8 H 0.623(7) -0.211(7) 0.290(10)
H9 H 0.512(6) -0.215(6) 0.475(9)
Cu1B Cu 1.10230(6) -0.10621(5) 1.04450(9)
Cu1A Cu 0.60230(6) -0.39379(5) 1.04450(9)
Cl1B Cl 0.9420(1) -0.0977(1) 1.1347(2)
C1A C 0.8299(5) 0.1968(5) 1.1090(7)
C2A C 0.9482(5) 0.2209(4) 1.1467(7)
H1A H 0.791(6) 0.154(6) 1.160(8)
H2A H 0.762(4) 0.244(4) 1.046(6)
H3A H 1.004(6) 0.176(6) 1.227(8)
loop_
_geom_bond_atom_site_label_1
_geom_bond_atom_site_label_2
_geom_bond_site_symmetry_1
_geom_bond_site_symmetry_2
Cu1 Cl1 1_555 1_555
Cl1 Cu1B 1_555 1_555
O1 N1 1_555 1_555
N1 N2 1_555 1_555
N2 N3 1_555 1_555
N3 Cu1 1_555 1_555
C1 C2 1_555 1_555
C2 C3 1_555 1_555
C3 O1 1_555 1_555
C4 C5 1_555 1_555
C5 C6 1_555 1_555
C6 C7 1_555 1_555
C7 C8 1_555 1_555
C8 N1 1_555 1_555
C9 N3 1_555 1_555
H1 C1 1_555 1_555
H2 C1 1_555 1_555
H3 C2 1_555 1_555
H4 C3 1_555 1_555
H5 C3 1_555 1_555
H6 C4 1_555 1_555
H7 C5 1_555 1_555
H8 C6 1_555 1_555
H9 C7 1_555 1_555
Cu1B Cl1B 1_555 1_555
Cu1A C1 1_555 1_555
Cl1B Cu1 1_555 1_555
C1A Cu1 1_555 1_555
C2A Cu1 1_555 1_555
H1A C1A 1_555 1_555
H2A C1A 1_555 1_555
H3A C2A 1_555 1_555
C2 Cu1A 1_555 1_555
C4 C9 1_555 1_555
C8 C9 1_555 1_555
C1A C2A 1_555 1_555

#END
