
#######################################################################
#
#                 Cambridge Crystallographic Data Centre
#                                CCDC 
#
#######################################################################
#
# If this CIF has been generated from an entry in the Cambridge 
# Structural Database, then it will include bibliographic, chemical, 
# crystal, experimental, refinement or atomic coordinate data resulting 
# from the CCDC's data processing and validation procedures.
#
#######################################################################

data_NAYZUK
_symmetry_cell_setting           tetragonal
_symmetry_space_group_name_H-M   'P 4/n m m'
_symmetry_Int_Tables_number      129
_space_group_name_Hall           '-P 4a 2a'
loop_
_symmetry_equiv_pos_site_id
_symmetry_equiv_pos_as_xyz
1 x,y,z
2 1/2-y,x,z
3 1/2-x,1/2-y,z
4 y,1/2-x,z
5 1/2+x,-y,-z
6 1/2+y,1/2+x,-z
7 -x,1/2+y,-z
8 -y,-x,-z
9 -x,-y,-z
10 1/2+y,-x,-z
11 1/2+x,1/2+y,-z
12 -y,1/2+x,-z
13 1/2-x,y,z
14 1/2-y,1/2-x,z
15 x,1/2-y,z
16 y,x,z
_cell_length_a                   21.8930(5)
_cell_length_b                   21.8930(5)
_cell_length_c                   7.1812(2)
_cell_angle_alpha                90
_cell_angle_beta                 90
_cell_angle_gamma                90
_cell_volume                     3441.97
loop_
_atom_site_label
_atom_site_type_symbol
_atom_site_fract_x
_atom_site_fract_y
_atom_site_fract_z
In1 In 0.5000 0.5000 0.0000
In2 In 0.5000 0.5000 0.5000
O1 O 0.4658(3) 0.4658(3) 0.2545(11)
O2 O 0.5926(3) 0.4923(5) 0.4054(11)
O3 O 0.5926(3) 0.4905(5) 0.1034(10)
C1 C 0.6183(4) 0.4876(6) 0.2606(15)
C2 C 0.6857(4) 0.4786(5) 0.2555(11)
C3 C 0.7179(5) 0.5013(6) 0.4091(13)
H1 H 0.6967 0.5164 0.5115
C4 C 0.7165(4) 0.4512(6) 0.1038(14)
C5 C 0.6873(4) 0.4201(6) -0.0468(13)
H2 H 0.6452 0.4145 -0.0412
C6 C 0.7188(4) 0.3975(6) -0.2033(14)
H3 H 0.6973 0.3827 -0.3056
In1A In 1.0000 0.5000 0.0000
In1C In 0.5000 0.0000 0.0000
In2A In 1.0000 0.5000 0.5000
In2_2 In 0.5000 0.5000 -0.5000
In2C In 0.5000 0.0000 -0.5000
O1G O 0.5342(3) 0.5342(3) -0.2545(11)
O1G_2 O 0.5342(3) 0.5342(3) 0.7455(11)
O2L O 0.9074(3) 0.4923(5) 0.4054(11)
O2G O 0.5077(5) 0.4074(3) -0.4054(11)
O2K O 0.5077(5) 0.0926(3) -0.4054(11)
O2G_2 O 0.5077(5) 0.4074(3) 0.5946(11)
O2H O 0.4074(3) 0.5077(5) 0.5946(11)
O2O O 0.4923(5) 0.5926(3) 0.4054(11)
O3L O 0.9074(3) 0.4905(5) 0.1034(10)
O3G O 0.5095(5) 0.4074(3) -0.1034(10)
O3K O 0.5095(5) 0.0926(3) -0.1034(10)
O3H O 0.4074(3) 0.5095(5) -0.1034(10)
O3O O 0.4905(5) 0.5926(3) 0.1034(10)
C1L C 0.8817(4) 0.4876(6) 0.2606(15)
C1G C 0.5124(6) 0.3817(4) -0.2606(15)
C1K C 0.5124(6) 0.1183(4) -0.2606(15)
C2L C 0.8143(4) 0.4786(5) 0.2555(11)
C2G C 0.5214(5) 0.3143(4) -0.2555(11)
C2K C 0.5214(5) 0.1857(4) -0.2555(11)
C3L C 0.7821(5) 0.5013(6) 0.4091(13)
C3G C 0.4987(6) 0.2821(5) -0.4091(13)
C3K C 0.4987(6) 0.2179(5) -0.4091(13)
H1L H 0.8033 0.5164 0.5115
H1G H 0.4836 0.3033 -0.5115
H1K H 0.4836 0.1967 -0.5115
C4L C 0.7835(4) 0.4512(6) 0.1038(14)
C4G C 0.5488(6) 0.2835(4) -0.1038(14)
C4K C 0.5488(6) 0.2165(4) -0.1038(14)
C5L C 0.8127(4) 0.4201(6) -0.0468(13)
C5G C 0.5799(6) 0.3127(4) 0.0468(13)
C5K C 0.5799(6) 0.1873(4) 0.0468(13)
H2L H 0.8548 0.4145 -0.0412
H2G H 0.5855 0.3548 0.0412
H2K H 0.5855 0.1452 0.0412
C6L C 0.7812(4) 0.3975(6) -0.2033(14)
C6G C 0.6025(6) 0.2812(4) 0.2033(14)
C6K C 0.6025(6) 0.2188(4) 0.2033(14)
H3L H 0.8027 0.3827 -0.3056
H3G H 0.6173 0.3027 0.3056
H3K H 0.6173 0.1973 0.3056
loop_
_geom_bond_atom_site_label_1
_geom_bond_atom_site_label_2
_geom_bond_site_symmetry_1
_geom_bond_site_symmetry_2
In1 O1 1_555 1_555
In2 O1 1_555 1_555
O2 In2 1_555 1_555
O3 In1 1_555 1_555
C1 O2 1_555 1_555
C2 C1 1_555 1_555
C3 C2 1_555 1_555
H1 C3 1_555 1_555
C4 C2 1_555 1_555
C5 C4 1_555 1_555
H2 C5 1_555 1_555
C6 C5 1_555 1_555
H3 C6 1_555 1_555
In1A O3L 1_555 1_555
In1C O3K 1_555 1_555
In2A O2L 1_555 1_555
In2_2 O1G 1_555 1_555
In2C O2K 1_555 1_555
O1G In1 1_555 1_555
O1G_2 In2 1_555 1_555
O2L C1L 1_555 1_555
O2G In2_2 1_555 1_555
O2K C1K 1_555 1_555
O2G_2 In2 1_555 1_555
O2H In2 1_555 1_555
O2O In2 1_555 1_555
O3L C1L 1_555 1_555
O3G In1 1_555 1_555
O3K C1K 1_555 1_555
O3H In1 1_555 1_555
O3O In1 1_555 1_555
C1L C2L 1_555 1_555
C1G O2G 1_555 1_555
C1K C2K 1_555 1_555
C2L C3L 1_555 1_555
C2G C1G 1_555 1_555
C2K C3K 1_555 1_555
C3L C3 1_555 1_555
C3G C2G 1_555 1_555
C3K C3G 1_555 1_555
H1L C3L 1_555 1_555
H1G C3G 1_555 1_555
H1K C3K 1_555 1_555
C4L C4 1_555 1_555
C4G C2G 1_555 1_555
C4K C2K 1_555 1_555
C5L C4L 1_555 1_555
C5G C4G 1_555 1_555
C5K C4K 1_555 1_555
H2L C5L 1_555 1_555
H2G C5G 1_555 1_555
H2K C5K 1_555 1_555
C6L C6 1_555 1_555
C6G C5G 1_555 1_555
C6K C5K 1_555 1_555
H3L C6L 1_555 1_555
H3G C6G 1_555 1_555
H3K C6K 1_555 1_555
O3 C1 1_555 1_555
O3G C1G 1_555 1_555
C2L C4L 1_555 1_555
C4G C4K 1_555 1_555
C5L C6L 1_555 1_555
C6G C6K 1_555 1_555

#END
