
#######################################################################
#
#                 Cambridge Crystallographic Data Centre
#                                CCDC 
#
#######################################################################
#
# If this CIF has been generated from an entry in the Cambridge 
# Structural Database, then it will include bibliographic, chemical, 
# crystal, experimental, refinement or atomic coordinate data resulting 
# from the CCDC's data processing and validation procedures.
#
#######################################################################

data_NAZJUV
_symmetry_cell_setting           monoclinic
_symmetry_space_group_name_H-M   'C 2/c'
_symmetry_Int_Tables_number      15
_space_group_name_Hall           '-C 2yn'
loop_
_symmetry_equiv_pos_site_id
_symmetry_equiv_pos_as_xyz
1 x,y,z
2 -x,y,1/2-z
3 1/2+x,1/2+y,z
4 1/2-x,1/2+y,1/2-z
5 -x,-y,-z
6 x,-y,1/2+z
7 1/2-x,1/2-y,-z
8 1/2+x,1/2-y,1/2+z
_cell_length_a                   19.8037(14)
_cell_length_b                   14.4189(14)
_cell_length_c                   21.5281(18)
_cell_angle_alpha                90
_cell_angle_beta                 95.220(2)
_cell_angle_gamma                90
_cell_volume                     6121.8
loop_
_atom_site_label
_atom_site_type_symbol
_atom_site_fract_x
_atom_site_fract_y
_atom_site_fract_z
Pr1 Pr 0.21398(2) 0.69378(3) 0.64570(2)
Pr2 Pr 0.33883(2) 0.44892(3) 0.73178(2)
O1 O 0.2228(3) 0.4990(4) 0.6876(3)
O2 O 0.1336(4) 0.5641(4) 0.6375(4)
O3 O 0.1968(3) 0.1788(5) 0.7742(3)
O4 O 0.1161(4) 0.0932(4) 0.7266(4)
O5 O 0.1131(3) 0.7880(4) 0.6186(3)
O6 O 0.0857(3) 0.9066(4) 0.6777(3)
O7 O 0.1985(4) 0.8666(4) 0.4143(3)
O8 O 0.1435(4) 0.9782(5) 0.3606(3)
O9 O 0.2310(3) 0.8838(4) 0.6876(3)
O10 O 0.2636(3) 0.8328(4) 0.5992(3)
O11 O 0.3350(4) 1.1947(5) 0.7551(3)
O12 O 0.3156(4) 1.3040(4) 0.6832(4)
O13 O 0.1734(5) 0.6739(7) 0.5276(5)
H1 H 0.135(8) 0.695(9) 0.536(7)
H2 H 0.178(8) 0.687(10) 0.490(7)
O14 O 0.4465(4) 0.3847(6) 0.6951(4)
H3 H 0.4620 0.3949 0.7325
H4 H 0.4716 0.3440 0.6802
Br1 Br -0.07961(5) 0.33059(8) 0.63277(5)
Br2 Br 0.03790(7) 1.20327(7) 0.52405(6)
Br3 Br 0.29872(9) 1.13771(8) 0.45788(5)
C1 C 0.1615(5) 0.4979(6) 0.6668(4)
C2 C 0.1200(5) 0.4122(6) 0.6762(4)
C3 C 0.0508(4) 0.4121(6) 0.6549(4)
H9 H 0.0305 0.4648 0.6366
C4 C 0.0144(4) 0.3338(6) 0.6613(4)
C5 C 0.0429(4) 0.2538(6) 0.6872(4)
H10 H 0.0172 0.2001 0.6895
C6 C 0.1100(4) 0.2550(5) 0.7092(4)
C7 C 0.1488(5) 0.3331(6) 0.7042(4)
H11 H 0.1943 0.3331 0.7196
C8 C 0.1436(5) 0.1701(6) 0.7391(4)
C9 C 0.0988(4) 0.8721(6) 0.6264(4)
C10 C 0.0979(4) 0.9346(6) 0.5707(4)
C11 C 0.0728(5) 1.0252(6) 0.5734(4)
H12 H 0.0563 1.0474 0.6096
C12 C 0.0730(5) 1.0803(6) 0.5221(4)
C13 C 0.0988(5) 1.0516(6) 0.4691(5)
H13 H 0.0981 1.0909 0.4348
C14 C 0.1264(4) 0.9624(6) 0.4663(4)
C15 C 0.1240(4) 0.9047(5) 0.5162(4)
H14 H 0.1401 0.8444 0.5138
C16 C 0.1577(5) 0.9325(6) 0.4094(4)
C17 C 0.2562(4) 0.8977(5) 0.6361(4)
C18 C 0.2765(4) 0.9935(5) 0.6200(4)
C19 C 0.2796(5) 1.0174(6) 0.5580(4)
H15 H 0.2706 0.9735 0.5266
C20 C 0.2961(6) 1.1070(6) 0.5436(5)
C21 C 0.3086(5) 1.1732(6) 0.5876(4)
H16 H 0.3180 1.2338 0.5763
C22 C 0.3071(5) 1.1492(6) 0.6501(5)
C23 C 0.2903(5) 1.0597(6) 0.6657(5)
H17 H 0.2883 1.0439 0.7074
C24 C 0.3209(5) 1.2206(6) 0.7010(4)
O3C O 0.3032(3) 0.6788(5) 0.7258(3)
O7F O 0.3015(4) 0.6334(4) 0.5857(3)
O11C O 0.1650(4) 0.6947(5) 0.7449(3)
O4C O 0.3839(4) 0.5932(4) 0.7734(4)
O6C O 0.4143(3) 0.4066(4) 0.8223(3)
O8F O 0.3565(4) 0.5218(5) 0.6394(3)
O12_2 O 0.3156(4) 0.3040(4) 0.6832(4)
O9C O 0.2690(3) 0.3838(4) 0.8124(3)
Pr1C Pr 0.28602(2) 0.19378(3) 0.85430(2)
Pr2C Pr 0.16117(2) -0.05108(3) 0.76822(2)
Pr2C_2 Pr 0.16117(2) 0.94892(3) 0.76822(2)
Pr1F Pr 0.28602(2) 0.80622(3) 0.35430(2)
Pr2F Pr 0.16117(2) 1.05108(3) 0.26822(2)
Pr1C_2 Pr 0.28602(2) 1.19378(3) 0.85430(2)
Pr2_2 Pr 0.33883(2) 1.44892(3) 0.73178(2)
O15 O 0.0355(13) 0.5828(13) 0.5287(10)
H5 H 0.0614 0.5819 0.5624
H6 H 0.0079 0.6276 0.5310
O16 O 0.0099(8) 0.7035(10) 0.8333(12)
H7 H -0.0262 0.7221 0.8478
H8 H 0.0329 0.7487 0.8211
loop_
_geom_bond_atom_site_label_1
_geom_bond_atom_site_label_2
_geom_bond_site_symmetry_1
_geom_bond_site_symmetry_2
Pr1 O1 1_555 1_555
Pr2 O1 1_555 1_555
O1 C1 1_555 1_555
O2 Pr1 1_555 1_555
O3 C8 1_555 1_555
O4 C8 1_555 1_555
O5 Pr1 1_555 1_555
O6 C9 1_555 1_555
O7 C16 1_555 1_555
O8 C16 1_555 1_555
O9 Pr1 1_555 1_555
O10 Pr1 1_555 1_555
O11 C24 1_555 1_555
O12 C24 1_555 1_555
O13 Pr1 1_555 1_555
H1 O13 1_555 1_555
H2 O13 1_555 1_555
O14 Pr2 1_555 1_555
H3 O14 1_555 1_555
H4 O14 1_555 1_555
O15 H5 1_555 1_555
H6 O15 1_555 1_555
O16 H7 1_555 1_555
H8 O16 1_555 1_555
Br1 C4 1_555 1_555
Br2 C12 1_555 1_555
Br3 C20 1_555 1_555
C1 O2 1_555 1_555
C2 C1 1_555 1_555
C3 C2 1_555 1_555
H9 C3 1_555 1_555
C4 C3 1_555 1_555
C5 C4 1_555 1_555
H10 C5 1_555 1_555
C6 C5 1_555 1_555
C7 C2 1_555 1_555
H11 C7 1_555 1_555
C8 C6 1_555 1_555
C9 O5 1_555 1_555
C10 C9 1_555 1_555
C11 C10 1_555 1_555
H12 C11 1_555 1_555
C12 C11 1_555 1_555
C13 C12 1_555 1_555
H13 C13 1_555 1_555
C14 C13 1_555 1_555
C15 C10 1_555 1_555
H14 C15 1_555 1_555
C16 C14 1_555 1_555
C17 O9 1_555 1_555
C18 C17 1_555 1_555
C19 C18 1_555 1_555
H15 C19 1_555 1_555
C20 C19 1_555 1_555
C21 C20 1_555 1_555
H16 C21 1_555 1_555
C22 C21 1_555 1_555
C23 C18 1_555 1_555
H17 C23 1_555 1_555
C24 C22 1_555 1_555
O3C Pr1 1_555 1_555
O7F Pr1 1_555 1_555
O11C Pr1 1_555 1_555
O4C Pr2 1_555 1_555
O6C Pr2 1_555 1_555
O8F Pr2 1_555 1_555
O12_2 Pr2 1_555 1_555
O9C Pr2 1_555 1_555
Pr1C O3 1_555 1_555
Pr2C O4 1_555 1_555
Pr2C_2 O6 1_555 1_555
Pr1F O7 1_555 1_555
Pr2F O8 1_555 1_555
Pr1C_2 O11 1_555 1_555
Pr2_2 O12 1_555 1_555
O9 Pr2C_2 1_555 1_555
O10 C17 1_555 1_555
C6 C7 1_555 1_555
C14 C15 1_555 1_555
C22 C23 1_555 1_555
O9C Pr1C 1_555 1_555

#END
