
#######################################################################
#
#                 Cambridge Crystallographic Data Centre
#                                CCDC 
#
#######################################################################
#
# If this CIF has been generated from an entry in the Cambridge 
# Structural Database, then it will include bibliographic, chemical, 
# crystal, experimental, refinement or atomic coordinate data resulting 
# from the CCDC's data processing and validation procedures.
#
#######################################################################

data_NAZVER
_symmetry_cell_setting           monoclinic
_symmetry_space_group_name_H-M   'P 21/c'
_symmetry_Int_Tables_number      14
_space_group_name_Hall           '-P 2ybc'
loop_
_symmetry_equiv_pos_site_id
_symmetry_equiv_pos_as_xyz
1 x,y,z
2 -x,1/2+y,1/2-z
3 -x,-y,-z
4 x,1/2-y,1/2+z
_cell_length_a                   11.1399(7)
_cell_length_b                   15.3165(10)
_cell_length_c                   12.4906(8)
_cell_angle_alpha                90
_cell_angle_beta                 105.1507(8)
_cell_angle_gamma                90
_cell_volume                     2057.12
loop_
_atom_site_label
_atom_site_type_symbol
_atom_site_fract_x
_atom_site_fract_y
_atom_site_fract_z
Cd1 Cd 0.454103(19) 0.223636(13) 0.422373(17)
O1 O 0.5318(2) 0.35519(14) 0.44898(19)
O2 O 0.6080(2) 0.30801(14) 0.31346(18)
O3 O 0.89031(19) 0.67148(13) 0.44315(15)
O4 O 0.75280(19) 0.70198(15) 0.10300(17)
O5 O 0.7021(2) 0.73297(16) 0.25543(18)
O6 O 0.4461(2) 0.21659(19) 0.60685(19)
H1 H 0.503(4) 0.211(3) 0.659(4)
H2 H 0.386(4) 0.236(3) 0.626(4)
N1 N 0.5744(2) 0.10916(16) 0.4430(2)
N2 N 0.6950(2) 0.00221(17) 0.4199(2)
C1 C 0.6015(3) 0.36367(19) 0.3845(2)
C2 C 0.6807(2) 0.44369(18) 0.3993(2)
C3 C 0.7672(3) 0.45677(18) 0.3380(2)
H3 H 0.7763 0.4145 0.2873
C4 C 0.8394(3) 0.53095(18) 0.3508(2)
H4 H 0.8971 0.5383 0.3096
C5 C 0.8254(3) 0.59440(18) 0.4251(2)
C6 C 0.7421(3) 0.58186(19) 0.4887(2)
H5 H 0.7337 0.6240 0.5399
C7 C 0.6718(3) 0.50710(19) 0.4760(2)
H6 H 0.6169 0.4988 0.5199
C8 C 0.9661(3) 0.69366(18) 0.3749(2)
C9 C 1.0916(3) 0.6955(2) 0.4236(3)
H7 H 1.1219 0.6810 0.4981
C10 C 1.1732(3) 0.7188(2) 0.3622(3)
H8 H 1.2582 0.7208 0.3956
C11 C 1.1286(3) 0.7391(2) 0.2515(3)
H9 H 1.1834 0.7538 0.2096
C12 C 0.9182(2) 0.71569(17) 0.2639(2)
C13 C 1.0028(3) 0.73745(19) 0.2032(3)
H10 H 0.9733 0.7512 0.1284
C14 C 0.7822(3) 0.71704(17) 0.2054(2)
C15 C 0.6262(3) 0.0700(2) 0.5455(3)
H11 H 0.6112 0.0869 0.6124
C16 C 0.6996(3) 0.0056(2) 0.5332(3)
H12 H 0.7455 -0.0306 0.5887
C17 C 0.6181(3) 0.0664(2) 0.3707(3)
C18 C 0.7706(3) -0.0580(2) 0.3722(3)
H13 H 0.7201 -0.0807 0.3024
H14 H 0.7966 -0.1069 0.4222
C19 C 0.8851(4) -0.0134(3) 0.3524(4)
H15 H 0.9337 -0.0567 0.3254
H16 H 0.8581 0.0299 0.2944
C20 C 0.9685(3) 0.0308(3) 0.4532(4)
H17 H 0.9193 0.0727 0.4817
H18 H 1.0323 0.0631 0.4300
C21 C 0.5848(3) 0.0839(3) 0.2501(3)
H19 H 0.5285 0.1324 0.2338
H20 H 0.5457 0.0331 0.2109
H21 H 0.6587 0.0974 0.2275
Cd1A Cd 0.545897(19) -0.276364(13) 0.077627(17)
Cd1A_2 Cd 0.545897(19) 0.723636(13) 0.077627(17)
Cd1B Cd 1.545897(19) -0.223636(13) 0.577627(17)
O1A O 0.4682(2) -0.14481(14) 0.05102(19)
O2A O 0.3920(2) -0.19199(14) 0.18654(18)
O3A O 0.10969(19) 0.17148(13) 0.05685(15)
O4A O 0.24720(19) 0.20198(15) 0.39700(17)
O4_2 O 0.75280(19) -0.29802(15) 0.10300(17)
O5A O 0.2979(2) 0.23297(16) 0.24457(18)
O5_2 O 0.7021(2) -0.26703(16) 0.25543(18)
O6A O 0.5539(2) -0.28341(19) -0.10685(19)
H1A H 0.497(4) -0.289(3) -0.159(4)
H2A H 0.614(4) -0.264(3) -0.126(4)
N1B N 1.4256(2) -0.10916(16) 0.5570(2)
N1A N 0.4256(2) -0.39084(16) 0.0570(2)
N2B N 1.3050(2) -0.00221(17) 0.5801(2)
C1A C 0.3985(3) -0.13633(19) 0.1155(2)
C2A C 0.3193(2) -0.05631(18) 0.1007(2)
C3A C 0.2328(3) -0.04323(18) 0.1620(2)
H3A H 0.2237 -0.0855 0.2127
C4A C 0.1606(3) 0.03095(18) 0.1492(2)
H4A H 0.1029 0.0383 0.1904
C5A C 0.1746(3) 0.09440(18) 0.0749(2)
C6A C 0.2579(3) 0.08186(19) 0.0113(2)
H5A H 0.2663 0.1240 -0.0399
C7A C 0.3282(3) 0.00710(19) 0.0240(2)
H6A H 0.3831 -0.0012 -0.0199
C8A C 0.0339(3) 0.19366(18) 0.1251(2)
C9A C -0.0916(3) 0.1955(2) 0.0764(3)
H7A H -0.1219 0.1810 0.0019
C10A C -0.1732(3) 0.2188(2) 0.1378(3)
H8A H -0.2582 0.2208 0.1044
C11A C -0.1286(3) 0.2391(2) 0.2485(3)
H9A H -0.1834 0.2538 0.2904
C12A C 0.0818(2) 0.21569(17) 0.2361(2)
C13A C -0.0028(3) 0.23745(19) 0.2968(3)
H10A H 0.0267 0.2512 0.3716
C14A C 0.2178(3) 0.21704(17) 0.2946(2)
C15B C 1.3738(3) -0.0700(2) 0.4545(3)
H11B H 1.3888 -0.0869 0.3876
C16B C 1.3004(3) -0.0056(2) 0.4668(3)
H12B H 1.2545 0.0306 0.4113
C17B C 1.3819(3) -0.0664(2) 0.6293(3)
C18B C 1.2294(3) 0.0580(2) 0.6278(3)
H13B H 1.2799 0.0807 0.6976
H14B H 1.2034 0.1069 0.5778
C19B C 1.1149(4) 0.0134(3) 0.6476(4)
H15B H 1.0663 0.0567 0.6746
H16B H 1.1419 -0.0299 0.7056
C20B C 1.0315(3) -0.0308(3) 0.5468(4)
H17B H 1.0807 -0.0727 0.5183
H18B H 0.9677 -0.0631 0.5700
C21B C 1.4152(3) -0.0839(3) 0.7499(3)
H19B H 1.4715 -0.1324 0.7662
H20B H 1.4543 -0.0331 0.7891
H21B H 1.3413 -0.0974 0.7725
loop_
_geom_bond_atom_site_label_1
_geom_bond_atom_site_label_2
_geom_bond_site_symmetry_1
_geom_bond_site_symmetry_2
Cd1 O1 1_555 1_555
O1 C1 1_555 1_555
O2 C1 1_555 1_555
O3 C5 1_555 1_555
O4 C14 1_555 1_555
O5 C14 1_555 1_555
O6 Cd1 1_555 1_555
H1 O6 1_555 1_555
H2 O6 1_555 1_555
N1 Cd1 1_555 1_555
N2 C16 1_555 1_555
C1 C2 1_555 1_555
C2 C3 1_555 1_555
C3 H3 1_555 1_555
C4 C3 1_555 1_555
H4 C4 1_555 1_555
C5 C4 1_555 1_555
C6 C5 1_555 1_555
H5 C6 1_555 1_555
C7 C2 1_555 1_555
H6 C7 1_555 1_555
C8 O3 1_555 1_555
C9 C8 1_555 1_555
H7 C9 1_555 1_555
C10 C9 1_555 1_555
H8 C10 1_555 1_555
C11 C10 1_555 1_555
H9 C11 1_555 1_555
C12 C8 1_555 1_555
C13 C11 1_555 1_555
H10 C13 1_555 1_555
C14 C12 1_555 1_555
C15 N1 1_555 1_555
H11 C15 1_555 1_555
C16 C15 1_555 1_555
H12 C16 1_555 1_555
C17 N1 1_555 1_555
C18 N2 1_555 1_555
H13 C18 1_555 1_555
H14 C18 1_555 1_555
C19 C18 1_555 1_555
H15 C19 1_555 1_555
H16 C19 1_555 1_555
C20 C19 1_555 1_555
H17 C20 1_555 1_555
H18 C20 1_555 1_555
C21 C17 1_555 1_555
H19 C21 1_555 1_555
H20 C21 1_555 1_555
H21 C21 1_555 1_555
Cd1A O1A 1_555 1_555
Cd1A_2 O4 1_555 1_555
Cd1B N1B 1_555 1_555
O1A C1A 1_555 1_555
O2A C1A 1_555 1_555
O3A C5A 1_555 1_555
O4A Cd1 1_555 1_555
O4_2 Cd1A 1_555 1_555
O5A Cd1 1_555 1_555
O5_2 Cd1A 1_555 1_555
O6A Cd1A 1_555 1_555
H1A O6A 1_555 1_555
H2A O6A 1_555 1_555
N1B C15B 1_555 1_555
N1A Cd1A 1_555 1_555
N2B C16B 1_555 1_555
C1A C2A 1_555 1_555
C2A C3A 1_555 1_555
C3A H3A 1_555 1_555
C4A C3A 1_555 1_555
H4A C4A 1_555 1_555
C5A C4A 1_555 1_555
C6A C5A 1_555 1_555
H5A C6A 1_555 1_555
C7A C2A 1_555 1_555
H6A C7A 1_555 1_555
C8A O3A 1_555 1_555
C9A C8A 1_555 1_555
H7A C9A 1_555 1_555
C10A C9A 1_555 1_555
H8A C10A 1_555 1_555
C11A C10A 1_555 1_555
H9A C11A 1_555 1_555
C12A C8A 1_555 1_555
C13A C11A 1_555 1_555
H10A C13A 1_555 1_555
C14A O4A 1_555 1_555
C15B H11B 1_555 1_555
C16B C15B 1_555 1_555
H12B C16B 1_555 1_555
C17B N1B 1_555 1_555
C18B N2B 1_555 1_555
H13B C18B 1_555 1_555
H14B C18B 1_555 1_555
C19B C18B 1_555 1_555
H15B C19B 1_555 1_555
H16B C19B 1_555 1_555
C20B C20 1_555 1_555
H17B C20B 1_555 1_555
H18B C20B 1_555 1_555
C21B C17B 1_555 1_555
H19B C21B 1_555 1_555
H20B C21B 1_555 1_555
H21B C21B 1_555 1_555
O5 Cd1A_2 1_555 1_555
N2 C17 1_555 1_555
C6 C7 1_555 1_555
C12 C13 1_555 1_555
O5A C14A 1_555 1_555
N2B C17B 1_555 1_555
C6A C7A 1_555 1_555
C12A C13A 1_555 1_555
C12A C14A 1_555 1_555
C19B C20B 1_555 1_555

#END
