
#######################################################################
#
#                 Cambridge Crystallographic Data Centre
#                                CCDC 
#
#######################################################################
#
# If this CIF has been generated from an entry in the Cambridge 
# Structural Database, then it will include bibliographic, chemical, 
# crystal, experimental, refinement or atomic coordinate data resulting 
# from the CCDC's data processing and validation procedures.
#
#######################################################################

data_NAZVUH
_symmetry_cell_setting           triclinic
_symmetry_space_group_name_H-M   'P -1'
_symmetry_Int_Tables_number      2
_space_group_name_Hall           '-P 1'
loop_
_symmetry_equiv_pos_site_id
_symmetry_equiv_pos_as_xyz
1 x,y,z
2 -x,-y,-z
_cell_length_a                   10.335(2)
_cell_length_b                   14.224(3)
_cell_length_c                   18.156(4)
_cell_angle_alpha                102.199(4)
_cell_angle_beta                 106.088(3)
_cell_angle_gamma                94.566(3)
_cell_volume                     2479.32
loop_
_atom_site_label
_atom_site_type_symbol
_atom_site_fract_x
_atom_site_fract_y
_atom_site_fract_z
Pb1 Pb 0.21548(3) 0.03943(2) 0.224956(18)
Pb2 Pb 1.35250(3) 0.33944(2) 0.440190(19)
O1 O 1.1226(5) 0.3276(4) 0.4302(3)
O2 O 1.1485(6) 0.2067(4) 0.3404(4)
O3 O 0.3325(6) -0.4877(4) 0.4506(4)
O4 O 0.4266(5) 0.1594(4) 0.3146(3)
N1 N 0.1867(6) -0.0192(5) 0.0720(4)
O5 O 0.2203(6) -0.1377(4) 0.2052(4)
C1 C 0.9257(8) 0.2184(6) 0.3510(5)
O6 O 0.4529(5) 0.0342(4) 0.2289(3)
N2 N 0.2527(7) 0.1718(5) 0.1449(4)
N3 N 1.3359(7) 0.2073(5) 0.5213(4)
C2 C 0.1832(7) 0.0444(5) 0.0265(5)
C3 C 1.0698(3) 0.2507(5) 0.3731(4)
N4 N 1.3679(7) 0.4015(5) 0.5865(4)
C4 C 0.1389(8) 0.0865(6) -0.1007(5)
N5 N 0.1001(6) 0.0743(5) -0.1809(4)
C5 C 0.7030(8) 0.2372(6) 0.3598(5)
H1 H 0.6454 0.2737 0.3811
N6 N 1.4802(7) 0.3258(5) 0.8460(4)
C6 C 0.1051(8) -0.0864(6) -0.0911(5)
H2 H 0.0784 -0.1099 -0.1457
C7 C 0.2220(8) 0.1476(6) 0.0651(5)
C8 C 0.8398(8) 0.2722(6) 0.3828(5)
H3 H 0.8743 0.3315 0.4195
N7 N 0.1617(7) 0.2320(5) -0.1212(4)
H4 H 0.1783 0.2939 -0.1151
C9 C 0.2724(8) -0.4011(6) 0.3504(5)
C10 C 1.3850(7) 0.3409(6) 0.6357(5)
C11 C 1.3708(8) 0.2368(6) 0.6002(5)
C12 C 0.1430(7) 0.0134(6) -0.0571(5)
C13 C 0.2563(8) -0.1369(4) 0.2789(6)
C14 C 0.2872(9) -0.4935(6) 0.3773(6)
C15 C 0.1498(8) -0.1131(6) 0.0375(5)
H5 H 0.1526 -0.1567 0.0694
C16 C 0.5042(2) 0.1132(5) 0.2831(5)
O7 O 0.2897(7) -0.0561(4) 0.3288(4)
C17 C 1.4412(8) 0.3066(6) 0.7654(5)
C18 C 0.3060(8) -0.3126(6) 0.4055(5)
H6 H 0.3346 -0.3111 0.4590
C19 C 1.4164(8) 0.3751(6) 0.7169(5)
C20 C 0.8732(8) 0.1297(6) 0.2965(5)
H7 H 0.9310 0.0929 0.2758
N8 N 1.4696(6) 0.1661(5) 0.7949(4)
H8 H 1.4746 0.1055 0.7924
C21 C 0.7364(8) 0.0961(6) 0.2733(5)
H9 H 0.7016 0.0376 0.2356
C22 C 0.2188(8) 0.2176(6) 0.0216(5)
O8 O 0.2583(7) -0.5721(4) 0.3263(4)
C23 C 1.4959(8) 0.2394(6) 0.8611(5)
C24 C 0.2980(8) -0.2263(6) 0.3822(5)
H10 H 0.3198 -0.1672 0.4198
C25 C 0.1076(9) -0.1495(6) -0.0432(5)
H11 H 0.0812 -0.2159 -0.0650
C26 C 0.2578(7) -0.2283(6) 0.3036(5)
C27 C 1.4298(9) 0.4750(6) 0.7482(5)
H12 H 1.4511 0.5001 0.8024
C28 C 1.4326(8) 0.2104(6) 0.7320(5)
C29 C 0.6494(8) 0.1490(6) 0.3058(5)
C30 C 0.1777(7) 0.1831(6) -0.0617(5)
C31 C 0.2810(10) 0.2654(6) 0.1808(6)
H13 H 0.3012 0.2831 0.2356
C32 C 0.2217(9) -0.3164(6) 0.2467(5)
H14 H 0.1928 -0.3179 0.1931
C33 C 1.3249(11) 0.1134(7) 0.4876(6)
H15 H 1.3036 0.0939 0.4329
C34 C 0.2301(9) -0.4016(7) 0.2720(5)
H16 H 0.2062 -0.4608 0.2346
C35 C 0.0926(8) 0.2861(6) -0.2717(5)
H17 H 0.1169 0.3349 -0.2252
C36 C 0.0863(8) 0.1894(6) -0.2675(5)
C37 C 1.5416(9) 0.2267(6) 0.9419(5)
C38 C 1.3803(9) 0.4961(6) 0.6179(5)
H18 H 1.3675 0.5380 0.5843
O9 O 0.0739(6) 0.4082(4) -0.3381(3)
C39 C 0.0639(8) 0.3110(7) -0.3427(5)
C40 C 0.0197(10) 0.1419(7) -0.4096(6)
H19 H -0.0050 0.0932 -0.4562
C41 C 1.3945(8) 0.1704(5) 0.6485(5)
C42 C 0.1145(8) 0.1633(6) -0.1917(5)
C43 C 0.0286(9) 0.2389(7) -0.4127(5)
H20 H 0.0111 0.2555 -0.4610
C44 C 1.4113(9) 0.5352(6) 0.6982(6)
H21 H 1.4194 0.6020 0.7179
C45 C 0.0472(9) 0.1173(7) -0.3377(5)
H22 H 0.0396 0.0522 -0.3362
C46 C 1.3809(10) 0.0727(7) 0.6119(6)
H23 H 1.3968 0.0271 0.6421
C47 C 1.3438(11) 0.0431(7) 0.5307(6)
H24 H 1.3316 -0.0224 0.5053
C48 C 0.2537(9) 0.3165(6) 0.0623(5)
H27 H 0.2567 0.3649 0.0352
C49 C 0.2822(10) 0.3387(6) 0.1411(6)
H28 H 0.3028 0.4035 0.1693
C50 C 1.5057(9) 0.1421(7) 0.9623(6)
H29 H 1.4560 0.0881 0.9231
C51 C 0.0257(10) 0.4388(7) -0.4104(6)
H30 H 0.0386 0.5086 -0.3989
H31 H -0.0693 0.4143 -0.4346
H32 H 0.0758 0.4141 -0.4458
C52 C 1.6145(10) 0.3058(7) 1.0006(5)
H33 H 1.6360 0.3637 0.9876
C53 C 1.5427(10) 0.1374(8) 1.0399(7)
H34 H 1.5169 0.0807 1.0532
O11 O 1.7355(10) 0.3829(6) 1.1323(4)
C54 C 1.8331(15) 0.3738(10) 1.2017(7)
H35 H 1.8794 0.4370 1.2324
H36 H 1.8979 0.3346 1.1874
H37 H 1.7882 0.3434 1.2323
C55 C 1.6568(11) 0.3007(8) 1.0793(6)
C56 C 1.6179(11) 0.2166(9) 1.0980(6)
H38 H 1.6428 0.2131 1.1505
Pb2_2 Pb 0.35250(3) -0.66056(2) 0.440190(19)
O3_2 O 1.3325(6) 0.5123(4) 0.4506(4)
O8_2 O 1.2583(7) 0.4279(4) 0.3263(4)
O10 O 0.2958(7) 0.4297(5) -0.0850(4)
H25 H 0.3021 0.4971 -0.0860
H26 H 0.3852 0.4113 -0.0731
loop_
_geom_bond_atom_site_label_1
_geom_bond_atom_site_label_2
_geom_bond_site_symmetry_1
_geom_bond_site_symmetry_2
Pb1 O4 1_555 1_555
Pb2 O1 1_555 1_555
O1 C3 1_555 1_555
O2 Pb2 1_555 1_555
O3 C14 1_555 1_555
O4 C16 1_555 1_555
N1 Pb1 1_555 1_555
O5 Pb1 1_555 1_555
C1 C3 1_555 1_555
O6 Pb1 1_555 1_555
N2 Pb1 1_555 1_555
N3 Pb2 1_555 1_555
C2 N1 1_555 1_555
C3 O2 1_555 1_555
N4 Pb2 1_555 1_555
C4 N5 1_555 1_555
N5 C42 1_555 1_555
C5 H1 1_555 1_555
N6 C17 1_555 1_555
C6 H2 1_555 1_555
C7 N2 1_555 1_555
C8 C1 1_555 1_555
H3 C8 1_555 1_555
N7 H4 1_555 1_555
C9 C14 1_555 1_555
C10 N4 1_555 1_555
C11 N3 1_555 1_555
C12 C2 1_555 1_555
C13 O5 1_555 1_555
C14 O8 1_555 1_555
C15 N1 1_555 1_555
H5 C15 1_555 1_555
C16 O6 1_555 1_555
O7 Pb1 1_555 1_555
C17 C19 1_555 1_555
C18 C9 1_555 1_555
H6 C18 1_555 1_555
C19 C10 1_555 1_555
C20 C1 1_555 1_555
H7 C20 1_555 1_555
N8 H8 1_555 1_555
C21 C20 1_555 1_555
H9 C21 1_555 1_555
C22 C7 1_555 1_555
O8 Pb2_2 1_555 1_555
C23 N6 1_555 1_555
C24 C18 1_555 1_555
H10 C24 1_555 1_555
C25 C6 1_555 1_555
H11 C25 1_555 1_555
C26 C13 1_555 1_555
C27 C19 1_555 1_555
H12 C27 1_555 1_555
C28 C17 1_555 1_555
C29 C5 1_555 1_555
C30 C4 1_555 1_555
C31 N2 1_555 1_555
H13 C31 1_555 1_555
C32 C26 1_555 1_555
H14 C32 1_555 1_555
C33 N3 1_555 1_555
H15 C33 1_555 1_555
C34 C9 1_555 1_555
H16 C34 1_555 1_555
C35 H17 1_555 1_555
C36 C35 1_555 1_555
C37 C23 1_555 1_555
C38 N4 1_555 1_555
H18 C38 1_555 1_555
O9 C39 1_555 1_555
C39 C35 1_555 1_555
C40 H19 1_555 1_555
C41 C11 1_555 1_555
C42 N7 1_555 1_555
C43 C39 1_555 1_555
H20 C43 1_555 1_555
C44 C27 1_555 1_555
H21 C44 1_555 1_555
C45 C36 1_555 1_555
H22 C45 1_555 1_555
C46 C41 1_555 1_555
H23 C46 1_555 1_555
C47 C33 1_555 1_555
H24 C47 1_555 1_555
O10 H25 1_555 1_555
H26 O10 1_555 1_555
C48 C22 1_555 1_555
H27 C48 1_555 1_555
C49 C31 1_555 1_555
H28 C49 1_555 1_555
C50 C37 1_555 1_555
H29 C50 1_555 1_555
C51 O9 1_555 1_555
H30 C51 1_555 1_555
H31 C51 1_555 1_555
H32 C51 1_555 1_555
C52 C37 1_555 1_555
H33 C52 1_555 1_555
C53 C50 1_555 1_555
H34 C53 1_555 1_555
O11 C54 1_555 1_555
C54 H35 1_555 1_555
H36 C54 1_555 1_555
H37 C54 1_555 1_555
C55 C52 1_555 1_555
C56 C53 1_555 1_555
H38 C56 1_555 1_555
Pb2_2 O3 1_555 1_555
O3_2 Pb2 1_555 1_555
O8_2 Pb2 1_555 1_555
C2 C7 1_555 1_555
C4 C12 1_555 1_555
C5 C8 1_555 1_555
C6 C12 1_555 1_555
N7 C30 1_555 1_555
C10 C11 1_555 1_555
C13 O7 1_555 1_555
C15 C25 1_555 1_555
C16 C29 1_555 1_555
N8 C23 1_555 1_555
N8 C28 1_555 1_555
C21 C29 1_555 1_555
C22 C30 1_555 1_555
C24 C26 1_555 1_555
C28 C41 1_555 1_555
C32 C34 1_555 1_555
C36 C42 1_555 1_555
C38 C44 1_555 1_555
C40 C43 1_555 1_555
C40 C45 1_555 1_555
C46 C47 1_555 1_555
C48 C49 1_555 1_555
O11 C55 1_555 1_555
C55 C56 1_555 1_555

#END
