
#######################################################################
#
#                 Cambridge Crystallographic Data Centre
#                                CCDC 
#
#######################################################################
#
# If this CIF has been generated from an entry in the Cambridge 
# Structural Database, then it will include bibliographic, chemical, 
# crystal, experimental, refinement or atomic coordinate data resulting 
# from the CCDC's data processing and validation procedures.
#
#######################################################################

data_NDOXAL
_symmetry_cell_setting           monoclinic
_symmetry_space_group_name_H-M   'P 21/c'
_symmetry_Int_Tables_number      14
_space_group_name_Hall           '-P 2ybc'
loop_
_symmetry_equiv_pos_site_id
_symmetry_equiv_pos_as_xyz
1 x,y,z
2 -x,1/2+y,1/2-z
3 -x,-y,-z
4 x,1/2-y,1/2+z
_cell_length_a                   11.678(2)
_cell_length_b                   9.652(2)
_cell_length_c                   10.277(2)
_cell_angle_alpha                90
_cell_angle_beta                 118.92(2)
_cell_angle_gamma                90
_cell_volume                     1013.93
loop_
_atom_site_label
_atom_site_type_symbol
_atom_site_fract_x
_atom_site_fract_y
_atom_site_fract_z
C1 C 0.49910 0.04740 0.44330
C2 C 0.96490 0.07090 0.46900
C3 C 1.05650 -0.02540 1.01610
Nd1 Nd 0.81020 -0.04530 0.64120
O1 O 0.60690 0.06880 0.44450
O2 O 0.39270 0.10480 0.35530
O3 O 0.87330 0.10060 0.48940
O4 O 0.99070 -0.14130 0.60180
O5 O 1.02920 0.02460 0.84990
O6 O 0.84130 -0.06530 0.90550
O7 O 0.79080 0.19380 0.71630
O8 O 0.70340 -0.18630 0.40770
O9 O 0.83120 -0.29450 0.71630
C1B C 0.50090 -0.04740 0.55670
O2B O 0.60730 -0.10480 0.64470
Nd1B Nd 0.18980 0.04530 0.35880
C2B C 1.03510 -0.07090 0.53100
O4B O 1.00930 0.14130 0.39820
C3B C 0.94350 0.02540 0.98390
O6B O 1.15870 0.06530 1.09450
O1B O 0.39310 -0.06880 0.55550
O3B O 0.12670 -0.10060 0.51060
O4B_2 O 0.00930 0.14130 0.39820
O5B O -0.02920 -0.02460 0.15010
O6B_2 O 0.15870 0.06530 0.09450
O7B O 0.20920 -0.19380 0.28370
O8B O 0.29660 0.18630 0.59230
O9B O 0.16880 0.29450 0.28370
O3B_2 O 1.12670 -0.10060 0.51060
Nd1B_2 Nd 1.18980 0.04530 0.35880
O5B_2 O 0.97080 -0.02460 1.15010
Nd1B_3 Nd 1.18980 0.04530 1.35880
O10 O 0.57460 0.30050 0.27490
loop_
_geom_bond_atom_site_label_1
_geom_bond_atom_site_label_2
_geom_bond_site_symmetry_1
_geom_bond_site_symmetry_2
C1 O1 1_555 1_555
C2 O3 1_555 1_555
C3 O5 1_555 1_555
Nd1 O1 1_555 1_555
O2 C1 1_555 1_555
O3 Nd1 1_555 1_555
O4 Nd1 1_555 1_555
O5 Nd1 1_555 1_555
O6 Nd1 1_555 1_555
O7 Nd1 1_555 1_555
O8 Nd1 1_555 1_555
O9 Nd1 1_555 1_555
C1B C1 1_555 1_555
O2B Nd1 1_555 1_555
Nd1B O2 1_555 1_555
C2B C2 1_555 1_555
O4B C2 1_555 1_555
C3B C3 1_555 1_555
O6B C3 1_555 1_555
O1B C1B 1_555 1_555
O3B Nd1B 1_555 1_555
O4B_2 Nd1B 1_555 1_555
O5B Nd1B 1_555 1_555
O6B_2 Nd1B 1_555 1_555
O7B Nd1B 1_555 1_555
O8B Nd1B 1_555 1_555
O9B Nd1B 1_555 1_555
O3B_2 C2B 1_555 1_555
Nd1B_2 O4B 1_555 1_555
O5B_2 C3B 1_555 1_555
Nd1B_3 O6B 1_555 1_555
O4 C2B 1_555 1_555
O6 C3B 1_555 1_555
C1B O2B 1_555 1_555
Nd1B O1B 1_555 1_555
O3B_2 Nd1B_2 1_555 1_555
O5B_2 Nd1B_3 1_555 1_555

#END
