
#######################################################################
#
#                 Cambridge Crystallographic Data Centre
#                                CCDC 
#
#######################################################################
#
# If this CIF has been generated from an entry in the Cambridge 
# Structural Database, then it will include bibliographic, chemical, 
# crystal, experimental, refinement or atomic coordinate data resulting 
# from the CCDC's data processing and validation procedures.
#
#######################################################################

data_NEBRIX
_symmetry_cell_setting           monoclinic
_symmetry_space_group_name_H-M   'P 21/c'
_symmetry_Int_Tables_number      14
_space_group_name_Hall           '-P 2ybc'
loop_
_symmetry_equiv_pos_site_id
_symmetry_equiv_pos_as_xyz
1 x,y,z
2 -x,1/2+y,1/2-z
3 -x,-y,-z
4 x,1/2-y,1/2+z
_cell_length_a                   8.649(5)
_cell_length_b                   16.573(10)
_cell_length_c                   18.729(12)
_cell_angle_alpha                90
_cell_angle_beta                 96.097(7)
_cell_angle_gamma                90
_cell_volume                     2669.43
loop_
_atom_site_label
_atom_site_type_symbol
_atom_site_fract_x
_atom_site_fract_y
_atom_site_fract_z
Co1 Co 0.47376(7) 0.27982(4) 0.10180(3)
O1 O 0.3224(3) 0.21931(19) 0.03362(12)
O2 O 0.4923(4) 0.27379(18) -0.03054(13)
O3 O 0.4318(4) 0.23541(18) -0.29646(13)
O4 O 0.2342(4) 0.1650(2) -0.34680(13)
N1 N 1.4662(4) -0.1020(2) 0.40489(15)
N2 N 1.3256(5) 0.0018(2) 0.43096(18)
N3 N 0.6825(4) 0.2217(2) 0.11451(18)
N4 N 0.8912(5) 0.1646(3) 0.1726(2)
C1 C 0.2789(5) 0.2016(2) -0.09318(18)
C2 C 0.3337(5) 0.2132(2) -0.15876(18)
H5 H 0.4284 0.2391 -0.1614
C3 C 0.2474(5) 0.1861(2) -0.22131(19)
C4 C 0.1079(5) 0.1483(2) -0.21587(19)
H6 H 0.0501 0.1303 -0.2575
C5 C 0.0498(5) 0.1360(2) -0.14981(19)
C6 C 0.1405(5) 0.1642(2) -0.0885(2)
H7 H 0.1054 0.1571 -0.0437
C7 C 0.3732(5) 0.2339(3) -0.0266(2)
C8 C 0.3064(6) 0.1969(3) -0.2930(2)
C9 C -0.0992(5) 0.0954(2) -0.1452(2)
C10 C -0.1239(5) 0.0471(3) -0.0882(2)
H8 H -0.0439 0.0398 -0.0515
C11 C -0.2652(6) 0.0087(3) -0.0838(3)
H9 H -0.2768 -0.0250 -0.0450
C12 C -0.3865(6) 0.0194(3) -0.1348(3)
C13 C -0.3618(6) 0.0673(3) -0.1927(3)
H10 H -0.4421 0.0745 -0.2293
C14 C -0.2220(5) 0.1044(3) -0.1978(2)
H11 H -0.2096 0.1364 -0.2376
C15 C -0.5421(6) -0.0206(4) -0.1284(4)
H12 H -0.5342 -0.0546 -0.0867
H13 H -0.5710 -0.0526 -0.1704
H14 H -0.6197 0.0200 -0.1241
C16 C 1.5421(6) -0.0328(3) 0.3899(2)
H15 H 1.6381 -0.0296 0.3719
C17 C 1.4537(6) 0.0298(3) 0.4058(2)
H16 H 1.4778 0.0839 0.4002
C18 C 1.3371(6) -0.0778(3) 0.4293(2)
H17 H 1.2621 -0.1126 0.4438
C19 C 1.1981(6) 0.0484(3) 0.4537(3)
H18 H 1.2395 0.0902 0.4865
H19 H 1.1333 0.0134 0.4794
C20 C 1.0993(7) 0.0870(4) 0.3916(3)
H20 H 1.0119 0.1136 0.4100
H21 H 1.1606 0.1282 0.3709
C21 C 0.7554(6) 0.2016(3) 0.1772(3)
H22 H 0.7162 0.2122 0.2206
C22 C 0.7745(7) 0.1910(4) 0.0673(3)
H23 H 0.7524 0.1927 0.0176
C23 C 0.9026(8) 0.1576(5) 0.1024(4)
H24 H 0.9843 0.1340 0.0814
C24 C 1.0025(6) 0.1342(3) 0.2316(4)
H25 H 1.0402 0.1788 0.2621
H26 H 1.0910 0.1101 0.2118
C25 C 0.9280(7) 0.0729(4) 0.2752(3)
H27 H 0.8834 0.0308 0.2434
H28 H 0.8435 0.0984 0.2968
C26 C 1.0411(7) 0.0329(4) 0.3360(3)
H29 H 0.9868 -0.0108 0.3572
H30 H 1.1283 0.0097 0.3147
Co1A Co 1.52624(7) -0.22018(4) 0.39820(3)
Co1C Co 0.47376(7) 0.22018(4) -0.39820(3)
O3C O 0.4318(4) 0.26459(18) 0.20354(13)
N1A N 0.5338(4) 0.3980(2) 0.09511(15)
O5 O 0.7538(7) 0.2086(3) 0.3912(3)
H1 H 0.7245 0.1904 0.3496
H2 H 0.6758 0.2134 0.4149
O6 O -0.0015(7) 0.3362(4) 0.0429(4)
H3 H -0.0435 0.2954 0.0605
H4 H 0.0967 0.3306 0.0491
loop_
_geom_bond_atom_site_label_1
_geom_bond_atom_site_label_2
_geom_bond_site_symmetry_1
_geom_bond_site_symmetry_2
Co1 O1 1_555 1_555
O1 C7 1_555 1_555
O2 C7 1_555 1_555
O3 C8 1_555 1_555
O4 C8 1_555 1_555
O5 H1 1_555 1_555
H2 O5 1_555 1_555
O6 H3 1_555 1_555
H4 O6 1_555 1_555
N1 C16 1_555 1_555
N2 C17 1_555 1_555
N3 Co1 1_555 1_555
N4 C21 1_555 1_555
C1 C2 1_555 1_555
C2 H5 1_555 1_555
C3 C2 1_555 1_555
C4 C3 1_555 1_555
H6 C4 1_555 1_555
C5 C4 1_555 1_555
C6 C1 1_555 1_555
H7 C6 1_555 1_555
C7 C1 1_555 1_555
C8 C3 1_555 1_555
C9 C5 1_555 1_555
C10 C9 1_555 1_555
H8 C10 1_555 1_555
C11 C10 1_555 1_555
H9 C11 1_555 1_555
C12 C11 1_555 1_555
C13 C12 1_555 1_555
H10 C13 1_555 1_555
C14 C9 1_555 1_555
H11 C14 1_555 1_555
C15 C12 1_555 1_555
H12 C15 1_555 1_555
H13 C15 1_555 1_555
H14 C15 1_555 1_555
C16 H15 1_555 1_555
C17 C16 1_555 1_555
H16 C17 1_555 1_555
C18 N1 1_555 1_555
H17 C18 1_555 1_555
C19 N2 1_555 1_555
H18 C19 1_555 1_555
H19 C19 1_555 1_555
C20 C19 1_555 1_555
H20 C20 1_555 1_555
H21 C20 1_555 1_555
C21 N3 1_555 1_555
H22 C21 1_555 1_555
C22 N3 1_555 1_555
H23 C22 1_555 1_555
C23 N4 1_555 1_555
H24 C23 1_555 1_555
C24 N4 1_555 1_555
H25 C24 1_555 1_555
H26 C24 1_555 1_555
C25 C24 1_555 1_555
H27 C25 1_555 1_555
H28 C25 1_555 1_555
C26 C20 1_555 1_555
H29 C26 1_555 1_555
H30 C26 1_555 1_555
Co1A N1 1_555 1_555
Co1C O3 1_555 1_555
O3C Co1 1_555 1_555
N1A Co1 1_555 1_555
N2 C18 1_555 1_555
C5 C6 1_555 1_555
C13 C14 1_555 1_555
C22 C23 1_555 1_555
C25 C26 1_555 1_555

#END
