
#######################################################################
#
#                 Cambridge Crystallographic Data Centre
#                                CCDC 
#
#######################################################################
#
# If this CIF has been generated from an entry in the Cambridge 
# Structural Database, then it will include bibliographic, chemical, 
# crystal, experimental, refinement or atomic coordinate data resulting 
# from the CCDC's data processing and validation procedures.
#
#######################################################################

data_NEBSUI
_symmetry_cell_setting           triclinic
_symmetry_space_group_name_H-M   'P -1'
_symmetry_Int_Tables_number      2
_space_group_name_Hall           '-P 1'
loop_
_symmetry_equiv_pos_site_id
_symmetry_equiv_pos_as_xyz
1 x,y,z
2 -x,-y,-z
_cell_length_a                   10.4889(10)
_cell_length_b                   13.539(2)
_cell_length_c                   13.659(2)
_cell_angle_alpha                70.532(10)
_cell_angle_beta                 83.211(10)
_cell_angle_gamma                77.267(10)
_cell_volume                     1781.72
loop_
_atom_site_label
_atom_site_type_symbol
_atom_site_fract_x
_atom_site_fract_y
_atom_site_fract_z
N1 N -0.3112(15) 0.2363(12) 0.1715(11)
O1 O -0.4105(14) 0.2997(11) 0.1440(10)
O2 O -0.2021(23) 0.2364(17) 0.1038(20)
O6 O -0.3244(19) 0.1477(17) 0.2300(16)
N2 N -0.1515(11) 0.6875(9) 0.2538(9)
O7 O -0.0913(9) 0.7474(7) 0.1674(7)
O8 O -0.1595(10) 0.7038(9) 0.3257(9)
O10 O -0.1815(14) 0.6103(12) 0.2491(11)
O13 O -0.8213(14) 0.5362(12) -0.0068(11)
O14 O -0.0634(18) 0.0311(14) 0.0698(14)
N4 N 0.0019(3) -0.2747(3) -0.4104(3)
N5 N 0.2115(3) -0.3391(3) -0.4011(3)
N6 N -0.7934(3) 0.2349(3) 0.2226(3)
N7 N -0.7188(4) 0.2224(3) 0.0700(3)
N8 N -0.3375(3) -0.1856(3) -0.4493(3)
N9 N -0.4604(4) -0.1061(3) -0.5812(3)
N10 N -0.7831(4) -0.4154(3) -0.7546(3)
N11 N -0.8056(4) -0.5811(3) -0.6762(3)
Zn1 Zn -0.18574(4) -0.26036(4) -0.35972(4)
C1 C 0.0642(4) -0.2237(3) -0.5011(3)
H1 H 0.0236(4) -0.1700(3) -0.5571(3)
C2 C 0.1939(4) -0.2638(3) -0.4964(3)
H2 H 0.7416(4) -0.7560(3) -0.4521(3)
C3 C 0.0941(4) -0.3436(3) -0.3527(3)
H3 H 0.0794(4) -0.3896(3) -0.2865(3)
C4 C 0.3375(4) -0.4018(4) -0.3575(4)
H4 H 0.3842(4) -0.3556(4) -0.3408(4)
H5 H 0.3211(4) -0.4574(4) -0.2936(4)
C5 C 0.4213(4) -0.4523(3) -0.4327(3)
C6 C 0.5431(4) -0.4282(4) -0.4669(4)
H6 H 0.5727(4) -0.3797(4) -0.4447(4)
C7 C 0.6216(4) -0.4754(4) -0.5339(4)
H7 H 0.2964(4) -0.5415(4) -0.4434(4)
C8 C -0.8885(5) 0.2118(4) 0.1772(4)
H8 H -0.9712(5) 0.2027(4) 0.2071(4)
C9 C -0.8442(5) 0.2046(5) 0.0838(4)
H9 H -0.8896(5) 0.1903(5) 0.0372(4)
C10 C -0.6934(4) 0.2405(3) 0.1546(3)
H10 H -0.6144(4) 0.2554(3) 0.1646(3)
C11 C -0.6270(6) 0.2189(4) -0.0195(4)
H11 H -0.5616(6) 0.2608(4) -0.0233(4)
H12 H -0.6741(6) 0.2500(4) -0.0831(4)
C12 C -0.5605(5) 0.1054(4) -0.0101(3)
C13 C -0.6214(5) 0.0398(4) -0.0414(4)
H13 H -0.7033(5) 0.0663(4) -0.0697(4)
C14 C -0.4393(5) 0.0638(4) 0.0307(4)
H14 H -0.3974(5) 0.1068(4) 0.0515(4)
C15 C -0.4646(4) -0.1678(3) -0.4136(3)
H15 H -0.4935(4) -0.1866(3) -0.3440(3)
C16 C -0.5414(4) -0.1188(3) -0.4945(4)
H16 H -0.3680(4) -0.9023(3) -0.5083(4)
C17 C -0.3401(5) -0.1469(4) -0.5512(4)
H17 H -0.2664(5) -0.1483(4) -0.5962(4)
C18 C -0.5027(7) -0.0573(4) -0.6890(4)
H18 H -0.5621(7) 0.0102(4) -0.6950(4)
H19 H -0.4269(7) -0.0426(4) -0.7355(4)
C19 C -0.5699(5) -0.1276(3) -0.7226(3)
C20 C -0.5078(4) -0.2303(3) -0.7181(4)
H20 H -0.4252(4) -0.2577(3) -0.6913(4)
C21 C -0.5679(5) -0.2925(4) -0.7534(4)
H21 H -0.5252(5) -0.3614(4) -0.7502(4)
C22 C -0.6921(5) -0.0898(4) -0.7603(4)
H22 H -0.7359(5) -0.0216(4) -0.7620(4)
C23 C -0.7516(5) -0.1521(4) -0.7960(4)
H23 H -0.8344(5) -0.1250(4) -0.8224(4)
C24 C -0.6894(5) -0.2537(4) -0.7927(3)
C25 C -0.7515(7) -0.3210(5) -0.8355(4)
H24 H -0.3081(7) -0.6570(5) -0.1124(4)
H25 H -0.1691(7) -0.7219(5) -0.1309(4)
C26 C -0.8554(5) -0.4180(4) -0.6642(4)
H26 H -0.8890(5) -0.3603(4) -0.6402(4)
C27 C -0.8689(5) -0.5189(4) -0.6169(4)
H27 H -0.0859(5) -0.4566(4) -0.4465(4)
C28 C -0.2450(5) -0.4840(4) -0.2417(4)
H28 H -0.2938(5) -0.4633(4) -0.1880(4)
C14A C -0.5607(5) -0.0638(4) -0.0307(4)
C12A C -0.4395(5) -0.1054(4) 0.0101(3)
C11A C -0.3730(6) -0.2189(4) 0.0195(4)
N7A N -0.2812(4) -0.2224(3) -0.0700(3)
C9A C -0.1558(5) -0.2046(5) -0.0838(4)
C8A C -0.1115(5) -0.2118(4) -0.1772(4)
N6A N -0.2066(3) -0.2349(3) -0.2226(3)
Zn1A Zn -0.81426(4) 0.26036(4) 0.35972(4)
C5A C 0.5787(4) -0.5477(3) -0.5673(3)
C4A C 0.6625(4) -0.5982(4) -0.6425(4)
N5A N 0.7885(3) -0.6609(3) -0.5989(3)
C2A C 0.8061(4) -0.7362(3) -0.5036(3)
C1A C 0.9358(4) -0.7763(3) -0.4989(3)
N4A N 0.9981(3) -0.7253(3) -0.5896(3)
Zn1A_2 Zn 1.18574(4) -0.73964(4) -0.64028(4)
C3A C 0.9059(4) -0.6564(3) -0.6473(3)
H3A H 0.9206(4) -0.6104(3) -0.7135(3)
H1A H 0.9764(4) -0.8300(3) -0.4429(3)
H4A H 0.6158(4) -0.6444(4) -0.6592(4)
H5A H 0.6789(4) -0.5426(4) -0.7064(4)
C6A C 0.4569(4) -0.5718(4) -0.5331(4)
H6A H 0.4273(4) -0.6203(4) -0.5553(4)
C7A C 0.3784(4) -0.5246(4) -0.4661(4)
H7A H 0.7036(4) -0.4585(4) -0.5566(4)
H2A H 0.2584(4) -0.2440(3) -0.5479(3)
Zn1A_3 Zn -0.81426(4) -0.73964(4) -0.64028(4)
N4A_2 N -1.0019(3) -0.7253(3) -0.5896(3)
N6_2 N -0.7934(3) -0.7651(3) -0.7774(3)
N8A N -0.6625(3) -0.8144(3) -0.5507(3)
C15A C -0.5354(4) -0.8322(3) -0.5864(3)
H15A H -0.5065(4) -0.8134(3) -0.6560(3)
C16A C -0.4586(4) -0.8812(3) -0.5055(4)
N9A N -0.5396(4) -0.8939(3) -0.4188(3)
C17A C -0.6599(5) -0.8531(4) -0.4488(4)
H17A H -0.7336(5) -0.8517(4) -0.4038(4)
C18A C -0.4973(7) -0.9427(4) -0.3110(4)
H18A H -0.4379(7) -1.0102(4) -0.3050(4)
H19A H -0.5731(7) -0.9574(4) -0.2645(4)
C19A C -0.4301(5) -0.8724(3) -0.2774(3)
C20A C -0.4922(4) -0.7697(3) -0.2819(4)
H20A H -0.5748(4) -0.7423(3) -0.3087(4)
C21A C -0.4321(5) -0.7075(4) -0.2466(4)
H21A H -0.4748(5) -0.6386(4) -0.2498(4)
C24A C -0.3106(5) -0.7463(4) -0.2073(3)
C23A C -0.2484(5) -0.8479(4) -0.2040(4)
C22A C -0.3079(5) -0.9102(4) -0.2397(4)
H22A H -0.2641(5) -0.9784(4) -0.2380(4)
H23A H -0.1656(5) -0.8750(4) -0.1776(4)
C25A C -0.2485(7) -0.6790(5) -0.1645(4)
N10A N -0.2169(4) -0.5846(3) -0.2454(3)
C26A C -0.1446(5) -0.5820(4) -0.3358(4)
H26A H -0.1110(5) -0.6397(4) -0.3598(4)
C27A C -0.1311(5) -0.4811(4) -0.3831(4)
N11A N -0.1944(4) -0.4189(3) -0.3238(3)
C28A C -0.7550(5) -0.5160(4) -0.7583(4)
H28A H -0.7062(5) -0.5367(4) -0.8120(4)
H27A H -0.9141(5) -0.5434(4) -0.5535(4)
H24A H -0.6919(7) -0.3430(5) -0.8876(4)
H25A H -0.8309(7) -0.2781(5) -0.8691(4)
H16A H -0.6320(4) -0.0977(3) -0.4917(4)
C10A C -0.3066(4) -0.2405(3) -0.1546(3)
H10A H -0.3856(4) -0.2554(3) -0.1646(3)
H8A H -0.0288(5) -0.2027(4) -0.2071(4)
H9A H -0.1104(5) -0.1903(5) -0.0372(4)
H11A H -0.4384(6) -0.2608(4) 0.0233(4)
H12A H -0.3259(6) -0.2500(4) 0.0831(4)
C13A C -0.3786(5) -0.0398(4) 0.0414(4)
H13A H -0.2967(5) -0.0663(4) 0.0697(4)
H14A H -0.6026(5) -0.1068(4) -0.0515(4)
O16 O -0.8458(4) 0.0447(4) 0.4272(4)
O17 O -0.0960(8) 0.0350(6) 0.3527(5)
O3? O 0.7470(33) 0.2017(29) 0.2655(29)
O4? O 0.8404(31) 0.0714(25) 0.2866(26)
O5? O 0.7902(31) 0.2613(26) 0.1999(28)
N3? N 0.8689(15) 0.7751(14) 0.2482(13)
O9? O 0.8891(16) 0.8436(17) 0.2643(13)
O11? O 0.8872(18) -0.0776(17) 0.2374(15)
O12? O 0.9455(11) 0.5359(9) 0.1270(9)
O15? O 0.5420(23) 0.5175(19) 0.0839(19)
loop_
_geom_bond_atom_site_label_1
_geom_bond_atom_site_label_2
_geom_bond_site_symmetry_1
_geom_bond_site_symmetry_2
N1 O1 1_555 1_555
O2 N1 1_555 1_555
O6 N1 1_555 1_555
N2 O7 1_555 1_555
O8 N2 1_555 1_555
O10 N2 1_555 1_555
N4 Zn1 1_555 1_555
N5 C2 1_555 1_555
N6 C8 1_555 1_555
N7 C9 1_555 1_555
N8 Zn1 1_555 1_555
N9 C16 1_555 1_555
N10 C25 1_555 1_555
N11 C27 1_555 1_555
Zn1 N6A 1_555 1_555
C1 N4 1_555 1_555
H1 C1 1_555 1_555
C2 C1 1_555 1_555
H2 C2A 1_555 1_555
C3 N4 1_555 1_555
H3 C3 1_555 1_555
C4 N5 1_555 1_555
H4 C4 1_555 1_555
H5 C4 1_555 1_555
C5 C4 1_555 1_555
C6 C5 1_555 1_555
H6 C6 1_555 1_555
C7 C6 1_555 1_555
H7 C7A 1_555 1_555
C8 H8 1_555 1_555
C9 C8 1_555 1_555
H9 C9 1_555 1_555
C10 N6 1_555 1_555
H10 C10 1_555 1_555
C11 N7 1_555 1_555
H11 C11 1_555 1_555
H12 C11 1_555 1_555
C12 C11 1_555 1_555
C13 C12 1_555 1_555
H13 C13 1_555 1_555
C14 C12 1_555 1_555
H14 C14 1_555 1_555
C15 N8 1_555 1_555
H15 C15 1_555 1_555
C16 C15 1_555 1_555
H16 C16A 1_555 1_555
C17 N8 1_555 1_555
H17 C17 1_555 1_555
C18 N9 1_555 1_555
H18 C18 1_555 1_555
H19 C18 1_555 1_555
C19 C18 1_555 1_555
C20 C19 1_555 1_555
H20 C20 1_555 1_555
C21 C20 1_555 1_555
H21 C21 1_555 1_555
C22 C19 1_555 1_555
H22 C22 1_555 1_555
C23 C22 1_555 1_555
H23 C23 1_555 1_555
C24 C21 1_555 1_555
C25 C24 1_555 1_555
H24 C25A 1_555 1_555
H25 C25A 1_555 1_555
C26 N10 1_555 1_555
H26 C26 1_555 1_555
C27 C26 1_555 1_555
H27 C27A 1_555 1_555
C28 H28 1_555 1_555
C14A C13 1_555 1_555
C12A C14A 1_555 1_555
C11A C12A 1_555 1_555
N7A C11A 1_555 1_555
C9A N7A 1_555 1_555
C8A C9A 1_555 1_555
N6A C8A 1_555 1_555
Zn1A N6 1_555 1_555
C5A C7 1_555 1_555
C4A C5A 1_555 1_555
N5A C4A 1_555 1_555
C2A N5A 1_555 1_555
C1A C2A 1_555 1_555
N4A C1A 1_555 1_555
Zn1A_2 N4A 1_555 1_555
C3A N5A 1_555 1_555
H3A C3A 1_555 1_555
H1A C1A 1_555 1_555
H4A C4A 1_555 1_555
H5A C4A 1_555 1_555
C6A C5A 1_555 1_555
H6A C6A 1_555 1_555
C7A C5 1_555 1_555
H7A C7 1_555 1_555
H2A C2 1_555 1_555
Zn1A_3 N11 1_555 1_555
N4A_2 Zn1A_3 1_555 1_555
N6_2 Zn1A_3 1_555 1_555
N8A Zn1A_3 1_555 1_555
C15A N8A 1_555 1_555
H15A C15A 1_555 1_555
C16A C15A 1_555 1_555
N9A C16A 1_555 1_555
C17A N8A 1_555 1_555
H17A C17A 1_555 1_555
C18A N9A 1_555 1_555
H18A C18A 1_555 1_555
H19A C18A 1_555 1_555
C19A C18A 1_555 1_555
C20A C19A 1_555 1_555
H20A C20A 1_555 1_555
C21A C20A 1_555 1_555
H21A C21A 1_555 1_555
C24A C21A 1_555 1_555
C23A C24A 1_555 1_555
C22A C19A 1_555 1_555
H22A C22A 1_555 1_555
H23A C23A 1_555 1_555
C25A C24A 1_555 1_555
N10A C28 1_555 1_555
C26A N10A 1_555 1_555
H26A C26A 1_555 1_555
C27A C26A 1_555 1_555
N11A Zn1 1_555 1_555
C28A N10 1_555 1_555
H28A C28A 1_555 1_555
H27A C27 1_555 1_555
H24A C25 1_555 1_555
H25A C25 1_555 1_555
H16A C16 1_555 1_555
C10A N7A 1_555 1_555
H10A C10A 1_555 1_555
H8A C8A 1_555 1_555
H9A C9A 1_555 1_555
H11A C11A 1_555 1_555
H12A C11A 1_555 1_555
C13A C14 1_555 1_555
H13A C13A 1_555 1_555
H14A C14A 1_555 1_555
N5 C3 1_555 1_555
N7 C10 1_555 1_555
N9 C17 1_555 1_555
N11 C28A 1_555 1_555
C23 C24 1_555 1_555
C28 N11A 1_555 1_555
C12A C13A 1_555 1_555
N6A C10A 1_555 1_555
N4A C3A 1_555 1_555
C6A C7A 1_555 1_555
N9A C17A 1_555 1_555
C23A C22A 1_555 1_555
C25A N10A 1_555 1_555
C27A N11A 1_555 1_555

#END
