
#######################################################################
#
#                 Cambridge Crystallographic Data Centre
#                                CCDC 
#
#######################################################################
#
# If this CIF has been generated from an entry in the Cambridge 
# Structural Database, then it will include bibliographic, chemical, 
# crystal, experimental, refinement or atomic coordinate data resulting 
# from the CCDC's data processing and validation procedures.
#
#######################################################################

data_NEBSAQ
_symmetry_cell_setting           monoclinic
_symmetry_space_group_name_H-M   'C 2/c'
_symmetry_Int_Tables_number      15
_space_group_name_Hall           '-C 2yn'
loop_
_symmetry_equiv_pos_site_id
_symmetry_equiv_pos_as_xyz
1 x,y,z
2 -x,y,1/2-z
3 1/2+x,1/2+y,z
4 1/2-x,1/2+y,1/2-z
5 -x,-y,-z
6 x,-y,1/2+z
7 1/2-x,1/2-y,-z
8 1/2+x,1/2-y,1/2+z
_cell_length_a                   10.4565(12)
_cell_length_b                   19.215(2)
_cell_length_c                   16.9416(18)
_cell_angle_alpha                90
_cell_angle_beta                 93.6110(10)
_cell_angle_gamma                90
_cell_volume                     3397.18
loop_
_atom_site_label
_atom_site_type_symbol
_atom_site_fract_x
_atom_site_fract_y
_atom_site_fract_z
Co1 Co 0.5000 0.396160(16) 1.2500
N1 N 0.59339(16) 0.30926(8) 1.20143(8)
O1 O 0.38129(14) 0.39365(6) 1.14541(7)
O2 O 0.33216(16) 0.49902(7) 1.09655(7)
H1 H 0.3335 0.5094 1.1436
O3 O 0.38939(15) 0.53440(6) 0.80854(7)
O4 O 0.33817(18) 0.44475(7) 0.72883(7)
C1 C 0.36025(18) 0.40708(9) 1.00712(9)
C2 C 0.35501(19) 0.45147(9) 0.94206(10)
H2 H 0.3467 0.4992 0.9491
C3 C 0.36222(19) 0.42419(9) 0.86678(9)
C4 C 0.37757(19) 0.35305(9) 0.85695(10)
H3 H 0.3823 0.3352 0.8062
C5 C 0.38604(18) 0.30752(9) 0.92157(10)
C6 C 0.37533(18) 0.33603(9) 0.99637(10)
H4 H 0.3784 0.3068 1.0402
C7 C 0.35780(19) 0.43368(10) 1.08961(10)
C8 C 0.3629(2) 0.47159(10) 0.79570(10)
C9 C 0.41139(19) 0.23191(9) 0.91092(10)
C10 C 0.3784(2) 0.19812(10) 0.84067(11)
H5 H 0.3352 0.2225 0.7998
C11 C 0.4081(2) 0.12902(11) 0.82969(14)
H6 H 0.3830 0.1077 0.7819
C12 C 0.4741(2) 0.09079(11) 0.88778(15)
C13 C 0.5056(3) 0.12391(12) 0.95867(15)
H7 H 0.5490 0.0993 0.9993
C14 C 0.4741(2) 0.19301(11) 0.97065(12)
H8 H 0.4952 0.2136 1.0194
C15 C 0.5101(3) 0.01563(13) 0.8739(2)
H9 H 0.4337 -0.0120 0.8670
H10 H 0.5620 -0.0013 0.9185
H11 H 0.5573 0.0125 0.8272
C16 C 0.6874(2) 0.31323(12) 1.15191(12)
H12 H 0.7139 0.3569 1.1360
C17 C 0.7468(2) 0.25524(13) 1.12339(14)
H13 H 0.8115 0.2598 1.0885
C18 C 0.7090(3) 0.19102(13) 1.14717(14)
H14 H 0.7491 0.1512 1.1297
C19 C 0.6109(3) 0.18598(11) 1.19723(13)
H15 H 0.5833 0.1426 1.2135
C20 C 0.5534(2) 0.24589(9) 1.22335(10)
Co1D Co 0.5000 0.603840(16) 0.7500
Co1D_2 Co 0.5000 0.603840(16) 1.7500
N1A N 0.40661(16) 0.30926(8) 1.29857(8)
O1A O 0.61871(14) 0.39365(6) 1.35459(7)
O2A O 0.66784(16) 0.49902(7) 1.40345(7)
H1A H 0.6665 0.5094 1.3564
O3A O 0.61061(15) 0.53440(6) 1.69146(7)
O3D O 0.61061(15) 0.46560(6) 1.19146(7)
O3E O 0.38939(15) 0.46560(6) 1.30854(7)
O4A O 0.66183(18) 0.44475(7) 1.77117(7)
C1A C 0.63975(18) 0.40708(9) 1.49288(9)
C2A C 0.64499(19) 0.45147(9) 1.55794(10)
H2A H 0.6533 0.4992 1.5509
C3A C 0.63778(19) 0.42419(9) 1.63322(9)
C4A C 0.62243(19) 0.35305(9) 1.64305(10)
H3A H 0.6177 0.3352 1.6938
C5A C 0.61396(18) 0.30752(9) 1.57843(10)
C6A C 0.62467(18) 0.33603(9) 1.50363(10)
H4A H 0.6216 0.3068 1.4598
C7A C 0.64220(19) 0.43368(10) 1.41039(10)
C8A C 0.6371(2) 0.47159(10) 1.70430(10)
C9A C 0.58861(19) 0.23191(9) 1.58908(10)
C10A C 0.6216(2) 0.19812(10) 1.65933(11)
H5A H 0.6648 0.2225 1.7002
C11A C 0.5919(2) 0.12902(11) 1.67031(14)
H6A H 0.6170 0.1077 1.7181
C12A C 0.5259(2) 0.09079(11) 1.61222(15)
C13A C 0.4944(3) 0.12391(12) 1.54133(15)
H7A H 0.4510 0.0993 1.5007
C14A C 0.5259(2) 0.19301(11) 1.52935(12)
H8A H 0.5048 0.2136 1.4806
C15A C 0.4899(3) 0.01563(13) 1.6261(2)
H9A H 0.5663 -0.0120 1.6330
H10A H 0.4380 -0.0013 1.5815
H11A H 0.4427 0.0125 1.6728
C16A C 0.3126(2) 0.31323(12) 1.34809(12)
H12A H 0.2861 0.3569 1.3640
C17A C 0.2532(2) 0.25524(13) 1.37661(14)
H13A H 0.1885 0.2598 1.4115
C18A C 0.2910(3) 0.19102(13) 1.35283(14)
H14A H 0.2509 0.1512 1.3703
C19A C 0.3891(3) 0.18598(11) 1.30277(13)
H15A H 0.4167 0.1426 1.2865
C20A C 0.4466(2) 0.24589(9) 1.27665(10)
loop_
_geom_bond_atom_site_label_1
_geom_bond_atom_site_label_2
_geom_bond_site_symmetry_1
_geom_bond_site_symmetry_2
Co1 N1 1_555 1_555
N1 C16 1_555 1_555
O1 Co1 1_555 1_555
O2 H1 1_555 1_555
O3 C8 1_555 1_555
O4 C8 1_555 1_555
C1 C2 1_555 1_555
C2 H2 1_555 1_555
C3 C2 1_555 1_555
C4 C3 1_555 1_555
H3 C4 1_555 1_555
C5 C4 1_555 1_555
C6 C1 1_555 1_555
H4 C6 1_555 1_555
C7 O1 1_555 1_555
C8 C3 1_555 1_555
C9 C5 1_555 1_555
C10 C9 1_555 1_555
H5 C10 1_555 1_555
C11 C10 1_555 1_555
H6 C11 1_555 1_555
C12 C11 1_555 1_555
C13 C12 1_555 1_555
H7 C13 1_555 1_555
C14 C9 1_555 1_555
H8 C14 1_555 1_555
C15 C12 1_555 1_555
H9 C15 1_555 1_555
H10 C15 1_555 1_555
H11 C15 1_555 1_555
C16 H12 1_555 1_555
C17 C16 1_555 1_555
H13 C17 1_555 1_555
C18 C17 1_555 1_555
H14 C18 1_555 1_555
C19 C18 1_555 1_555
H15 C19 1_555 1_555
C20 N1 1_555 1_555
Co1D O3 1_555 1_555
Co1D_2 O3A 1_555 1_555
N1A Co1 1_555 1_555
O1A Co1 1_555 1_555
O2A H1A 1_555 1_555
O3A C8A 1_555 1_555
O3D Co1 1_555 1_555
O3E Co1 1_555 1_555
O4A C8A 1_555 1_555
C1A C2A 1_555 1_555
C2A H2A 1_555 1_555
C3A C2A 1_555 1_555
C4A C3A 1_555 1_555
H3A C4A 1_555 1_555
C5A C4A 1_555 1_555
C6A C1A 1_555 1_555
H4A C6A 1_555 1_555
C7A O1A 1_555 1_555
C8A C3A 1_555 1_555
C9A C5A 1_555 1_555
C10A C9A 1_555 1_555
H5A C10A 1_555 1_555
C11A C10A 1_555 1_555
H6A C11A 1_555 1_555
C12A C11A 1_555 1_555
C13A C12A 1_555 1_555
H7A C13A 1_555 1_555
C14A C9A 1_555 1_555
H8A C14A 1_555 1_555
C15A C12A 1_555 1_555
H9A C15A 1_555 1_555
H10A C15A 1_555 1_555
H11A C15A 1_555 1_555
C16A N1A 1_555 1_555
H12A C16A 1_555 1_555
C17A C16A 1_555 1_555
H13A C17A 1_555 1_555
C18A C17A 1_555 1_555
H14A C18A 1_555 1_555
C19A C18A 1_555 1_555
H15A C19A 1_555 1_555
C20A C20 1_555 1_555
O2 C7 1_555 1_555
C1 C7 1_555 1_555
C5 C6 1_555 1_555
C13 C14 1_555 1_555
C19 C20 1_555 1_555
N1A C20A 1_555 1_555
O2A C7A 1_555 1_555
C1A C7A 1_555 1_555
C5A C6A 1_555 1_555
C13A C14A 1_555 1_555
C19A C20A 1_555 1_555

#END
