
#######################################################################
#
#                 Cambridge Crystallographic Data Centre
#                                CCDC 
#
#######################################################################
#
# If this CIF has been generated from an entry in the Cambridge 
# Structural Database, then it will include bibliographic, chemical, 
# crystal, experimental, refinement or atomic coordinate data resulting 
# from the CCDC's data processing and validation procedures.
#
#######################################################################

data_NEBTUL
_symmetry_cell_setting           monoclinic
_symmetry_space_group_name_H-M   'C 2/c'
_symmetry_Int_Tables_number      15
_space_group_name_Hall           '-C 2yn'
loop_
_symmetry_equiv_pos_site_id
_symmetry_equiv_pos_as_xyz
1 x,y,z
2 -x,y,1/2-z
3 1/2+x,1/2+y,z
4 1/2-x,1/2+y,1/2-z
5 -x,-y,-z
6 x,-y,1/2+z
7 1/2-x,1/2-y,-z
8 1/2+x,1/2-y,1/2+z
_cell_length_a                   16.7010(3)
_cell_length_b                   12.0214(2)
_cell_length_c                   26.9900(6)
_cell_angle_alpha                90
_cell_angle_beta                 96.448(2)
_cell_angle_gamma                90
_cell_volume                     5384.49
loop_
_atom_site_label
_atom_site_type_symbol
_atom_site_fract_x
_atom_site_fract_y
_atom_site_fract_z
C1 C 0.4981(2) 0.4339(3) -0.11504(14)
H1 H 0.5469 0.4557 -0.0960
C2 C 0.4919(2) 0.3939(3) -0.16226(15)
H2 H 0.5345 0.3829 -0.1823
C3 C 0.3723(2) 0.4004(3) -0.13622(13)
H3 H 0.3158 0.3937 -0.1356
C4 C 0.3754(2) 0.3355(3) -0.22375(14)
C5 C 0.3772(2) 0.2220(3) -0.23470(14)
C6 C 0.4128(3) 0.1403(4) -0.20051(17)
H4 H 0.4351 0.1624 -0.1681
C7 C 0.4151(4) 0.0319(4) -0.21397(18)
H5 H 0.4399 -0.0210 -0.1910
C8 C 0.3809(3) -0.0035(4) -0.26170(18)
H6 H 0.3824 -0.0801 -0.2702
C9 C 0.3461(3) 0.0703(3) -0.29533(16)
H7 H 0.3238 0.0452 -0.3273
C10 C 0.3425(2) 0.1862(3) -0.28312(14)
C11 C 0.3078(2) 0.2651(3) -0.31661(13)
C12 C 0.3071(2) 0.3789(3) -0.30601(14)
C13 C 0.2751(3) 0.4603(3) -0.34094(17)
H8 H 0.2492 0.4374 -0.3724
C14 C 0.2810(3) 0.5706(4) -0.32988(19)
H9 H 0.2593 0.6238 -0.3537
C15 C 0.3194(3) 0.6069(4) -0.28299(18)
H10 H 0.3240 0.6843 -0.2760
C16 C 0.3496(2) 0.5323(3) -0.24807(15)
H11 H 0.3747 0.5581 -0.2168
C17 C 0.3441(2) 0.4160(3) -0.25765(14)
C18 C 0.2089(2) 0.1681(3) -0.37821(14)
H12 H 0.1706 0.1501 -0.3559
C19 C 0.3152(2) 0.2377(3) -0.40724(14)
H13 H 0.3643 0.2757 -0.4103
C20 C 0.2698(2) 0.1803(3) -0.44355(14)
H14 H 0.2821 0.1717 -0.4769
C21 C 0.2445(2) 0.4340(3) 0.00200(16)
C22 C 0.1627(2) 0.4091(3) 0.01785(14)
C23 C 0.1265(2) 0.4854(3) 0.04681(14)
H15 H 0.1539 0.5523 0.0569
C24 C 0.0507(2) 0.4647(3) 0.06113(13)
C25 C 0.0110(2) 0.3669(3) 0.04661(13)
H16 H -0.0406 0.3524 0.0569
C26 C 0.0458(2) 0.2894(3) 0.01710(13)
C27 C 0.1218(2) 0.3113(3) 0.00260(14)
H17 H 0.1459 0.2594 -0.0178
C28 C 0.0102(2) 0.5480(3) 0.09071(14)
C29 C 0.0010(2) 0.1853(3) 0.00136(13)
Cd1 Cd 0.383970(15) 0.51681(2) -0.028180(9)
N1 N 0.42276(18) 0.4381(2) -0.09901(11)
N2 N 0.41172(19) 0.3727(3) -0.17535(11)
N3 N 0.27616(18) 0.2298(3) -0.36540(11)
N4 N 0.20307(19) 0.1364(3) -0.42479(11)
O1 O 0.28845(15) 0.5017(2) 0.02821(10)
O2 O 0.26556(15) 0.3885(2) -0.03630(11)
O3 O 0.04614(19) 0.6412(2) 0.09868(11)
H18 H 0.0189 0.6823 0.1156
O4 O -0.05538(19) 0.5222(2) 0.10589(11)
O5 O -0.06923(15) 0.1736(2) 0.01283(9)
O6 O 0.03548(15) 0.11130(19) -0.02301(9)
Cd1C Cd 0.116030(15) 0.01681(2) -0.471820(9)
Cd1B Cd -0.116030(15) 0.01681(2) -0.028180(9)
Cd1F Cd 0.116030(15) -0.01681(2) 0.028180(9)
N4C N 0.29693(19) 0.6364(3) -0.07521(11)
O5B O 0.43077(15) 0.6736(2) 0.01283(9)
O6F O 0.46452(15) 0.38870(19) 0.02301(9)
O7 O 0.32396(17) 0.8377(2) -0.37573(11)
H19 H 0.3046 0.8366 -0.3972
H20 H 0.3654 0.8756 -0.3778
O9 O 0.6183(6) 0.3649(8) -0.6024(4)
O10 O 0.4781(7) 0.3026(10) -0.6784(4)
O8? O 0.5433(3) 0.3007(3) -0.62211(16)
O11? O 0.4766(11) 0.2494(13) -0.7238(7)
loop_
_geom_bond_atom_site_label_1
_geom_bond_atom_site_label_2
_geom_bond_site_symmetry_1
_geom_bond_site_symmetry_2
C1 H1 1_555 1_555
C2 C1 1_555 1_555
H2 C2 1_555 1_555
C3 H3 1_555 1_555
C4 C5 1_555 1_555
C5 C6 1_555 1_555
C6 H4 1_555 1_555
C7 C6 1_555 1_555
H5 C7 1_555 1_555
C8 C7 1_555 1_555
H6 C8 1_555 1_555
C9 C8 1_555 1_555
H7 C9 1_555 1_555
C10 C5 1_555 1_555
C11 C10 1_555 1_555
C12 C11 1_555 1_555
C13 C12 1_555 1_555
H8 C13 1_555 1_555
C14 C13 1_555 1_555
H9 C14 1_555 1_555
C15 C14 1_555 1_555
H10 C15 1_555 1_555
C16 C15 1_555 1_555
H11 C16 1_555 1_555
C17 C4 1_555 1_555
C18 H12 1_555 1_555
C19 H13 1_555 1_555
C20 C19 1_555 1_555
H14 C20 1_555 1_555
C21 C22 1_555 1_555
C22 C23 1_555 1_555
C23 H15 1_555 1_555
C24 C23 1_555 1_555
C25 C24 1_555 1_555
H16 C25 1_555 1_555
C26 C25 1_555 1_555
C27 C22 1_555 1_555
H17 C27 1_555 1_555
C28 C24 1_555 1_555
C29 C26 1_555 1_555
Cd1 N1 1_555 1_555
N1 C1 1_555 1_555
N2 C2 1_555 1_555
N3 C11 1_555 1_555
N4 C18 1_555 1_555
O1 C21 1_555 1_555
O2 C21 1_555 1_555
O3 C28 1_555 1_555
H18 O3 1_555 1_555
O4 C28 1_555 1_555
O5 C29 1_555 1_555
O6 C29 1_555 1_555
O7 H19 1_555 1_555
H20 O7 1_555 1_555
Cd1C N4 1_555 1_555
Cd1B O5 1_555 1_555
Cd1F O6 1_555 1_555
N4C Cd1 1_555 1_555
O5B Cd1 1_555 1_555
O6F Cd1 1_555 1_555
C3 N1 1_555 1_555
C3 N2 1_555 1_555
C4 N2 1_555 1_555
C9 C10 1_555 1_555
C12 C17 1_555 1_555
C16 C17 1_555 1_555
C18 N3 1_555 1_555
C19 N3 1_555 1_555
C20 N4 1_555 1_555
C26 C27 1_555 1_555
Cd1 O1 1_555 1_555
Cd1 O2 1_555 1_555

#END
