
#######################################################################
#
#                 Cambridge Crystallographic Data Centre
#                                CCDC 
#
#######################################################################
#
# If this CIF has been generated from an entry in the Cambridge 
# Structural Database, then it will include bibliographic, chemical, 
# crystal, experimental, refinement or atomic coordinate data resulting 
# from the CCDC's data processing and validation procedures.
#
#######################################################################

data_NEBVEX
_symmetry_cell_setting           triclinic
_symmetry_space_group_name_H-M   'P -1'
_symmetry_Int_Tables_number      2
_space_group_name_Hall           '-P 1'
loop_
_symmetry_equiv_pos_site_id
_symmetry_equiv_pos_as_xyz
1 x,y,z
2 -x,-y,-z
_cell_length_a                   9.388(3)
_cell_length_b                   13.353(5)
_cell_length_c                   14.644(5)
_cell_angle_alpha                80.535(8)
_cell_angle_beta                 72.638(6)
_cell_angle_gamma                84.240(7)
_cell_volume                     1725.68
loop_
_atom_site_label
_atom_site_type_symbol
_atom_site_fract_x
_atom_site_fract_y
_atom_site_fract_z
C1 C 0.4207(5) 0.1571(3) 0.2582(3)
H1 H 0.4902 0.1655 0.1956
C2 C 0.2345(5) 0.1804(3) 0.3809(3)
H2 H 0.1465 0.2097 0.4210
C3 C 0.3089(5) 0.0940(4) 0.4078(3)
H3 H 0.2838 0.0520 0.4687
C4 C 0.5375(5) -0.0046(3) 0.3223(3)
C5 C 0.4978(5) -0.0973(3) 0.3067(3)
C6 C 0.3582(5) -0.1094(4) 0.2893(3)
H4 H 0.2891 -0.0526 0.2873
C7 C 0.3242(6) -0.2010(4) 0.2759(4)
H5 H 0.2314 -0.2077 0.2644
C8 C 0.4248(6) -0.2870(4) 0.2787(3)
H6 H 0.3981 -0.3507 0.2699
C9 C 0.5584(5) -0.2796(4) 0.2938(3)
H7 H 0.6244 -0.3382 0.2959
C10 C 0.6010(5) -0.1844(3) 0.3066(3)
C11 C 0.1303(5) 0.1972(4) 0.1146(3)
H8 H 0.0629 0.1734 0.1753
C12 C 0.2979(5) 0.2833(3) 0.0031(3)
H9 H 0.3709 0.3316 -0.0285
C13 C 0.2519(5) 0.2156(3) -0.0400(3)
H10 H 0.2859 0.2077 -0.1065
C14 C 0.0704(5) 0.0782(4) 0.0177(3)
C15 C -0.0731(5) 0.0992(3) 0.0047(3)
C16 C 0.1436(5) -0.0175(3) 0.0135(3)
C17 C 0.2887(5) -0.0383(4) 0.0284(3)
H11 H 0.3382 0.0145 0.0408
C18 C 0.3551(5) -0.1325(4) 0.0251(4)
H12 H 0.4503 -0.1454 0.0362
C19 C 0.2865(5) -0.2121(4) 0.0054(4)
H13 H 0.3367 -0.2775 0.0023
C20 C -0.1495(5) 0.1966(4) 0.0093(3)
H14 H -0.1045 0.2510 0.0228
C21 C 0.9375(4) -0.6316(3) 0.3531(3)
C22 C 0.7741(4) -0.6136(3) 0.3546(3)
C23 C 0.7366(4) -0.5952(3) 0.2680(3)
H15 H 0.8139 -0.5965 0.2089
C24 C 0.5903(4) -0.5751(3) 0.2652(3)
C25 C 0.4738(4) -0.5730(3) 0.3536(3)
C26 C 0.3099(4) -0.5447(3) 0.3608(3)
C27 C 0.5147(5) -0.5950(3) 0.4390(3)
H16 H 0.4383 -0.5958 0.4987
C28 C 0.6615(4) -0.6157(3) 0.4411(3)
H17 H 0.6845 -0.6312 0.5010
C29 C 0.8579(5) -0.3140(3) 0.4055(3)
H18 H 0.8021 -0.3016 0.4687
C30 C 1.0105(5) -0.3795(3) 0.2887(3)
H19 H 1.0852 -0.4234 0.2535
C31 C 0.9396(5) -0.3000(4) 0.2489(3)
H20 H 0.9543 -0.2777 0.1819
C32 C 0.7402(5) -0.1710(3) 0.3202(3)
C33 C 0.7795(5) -0.0782(3) 0.3340(3)
C34 C 0.9206(5) -0.0663(4) 0.3490(3)
H21 H 0.9924 -0.1219 0.3468
C35 C 0.9514(6) 0.0254(4) 0.3665(4)
H22 H 1.0459 0.0330 0.3752
C36 C 0.8467(6) 0.1084(4) 0.3721(4)
H23 H 0.8699 0.1706 0.3864
C37 C 0.7124(5) 0.1008(4) 0.3572(4)
H24 H 0.6432 0.1581 0.3600
C38 C 0.6746(5) 0.0078(3) 0.3376(3)
Co1 Co 1.0000 -0.5000 0.5000
Co2 Co 0.24420(6) 0.35363(4) 0.20405(4)
N1 N 0.2218(4) 0.2707(3) 0.1001(2)
N2 N 0.1454(4) 0.1603(3) 0.0317(3)
N3 N 0.3045(4) 0.2198(3) 0.2871(2)
N4 N 0.4290(4) 0.0794(3) 0.3284(3)
N5 N 0.9596(4) -0.3886(3) 0.3879(2)
N6 N 0.8412(4) -0.2570(3) 0.3244(2)
O1 O 0.4786(3) -0.6354(2) 0.1391(2)
O2 O 0.2160(3) 0.4955(2) 0.1167(2)
O3 O 0.2640(3) -0.5489(2) 0.2914(2)
O4 O 1.0224(3) -0.6589(2) 0.2762(2)
O5 O 0.9725(3) -0.6222(2) 0.4273(2)
O6 O 0.7155(3) -0.5576(3) 0.0813(2)
O7 O 0.4896(3) -0.4529(2) 0.1350(2)
O8 O 0.2330(3) -0.5161(2) 0.4397(2)
S1 S 0.56523(11) -0.55228(8) 0.14657(7)
H25 H 0.2437 0.5116 0.0586
H26 H 0.3045 0.5315 0.1142
C1A C 1.5793(5) -1.1571(3) 0.7418(3)
H1A H 1.5098 -1.1655 0.8044
C2A C 1.7655(5) -1.1804(3) 0.6191(3)
H2A H 1.8535 -1.2097 0.5790
C3A C 1.6911(5) -1.0940(4) 0.5922(3)
H3A H 1.7162 -1.0520 0.5313
C4A C 1.4625(5) -0.9954(3) 0.6777(3)
C5A C 1.5022(5) -0.9027(3) 0.6933(3)
C6A C 1.6418(5) -0.8906(4) 0.7107(3)
H4A H 1.7109 -0.9474 0.7127
C7A C 1.6758(6) -0.7990(4) 0.7241(4)
H5A H 1.7686 -0.7923 0.7356
C8A C 1.5752(6) -0.7130(4) 0.7213(3)
H6A H 1.6019 -0.6493 0.7301
C9A C 1.4416(5) -0.7204(4) 0.7062(3)
H7A H 1.3756 -0.6618 0.7041
C10A C 1.3990(5) -0.8156(3) 0.6934(3)
C11A C -0.1303(5) -0.1972(4) -0.1146(3)
H8A H -0.0629 -0.1734 -0.1753
C12A C -0.2979(5) -0.2833(3) -0.0031(3)
H9A H -0.3709 -0.3316 0.0285
C13A C -0.2519(5) -0.2156(3) 0.0400(3)
H10A H -0.2859 -0.2077 0.1065
C14A C -0.0704(5) -0.0782(4) -0.0177(3)
C15A C 0.0731(5) -0.0992(3) -0.0047(3)
C16A C -0.1436(5) 0.0175(3) -0.0135(3)
C17A C -0.2887(5) 0.0383(4) -0.0284(3)
H11A H -0.3382 -0.0145 -0.0408
C18A C -0.3551(5) 0.1325(4) -0.0251(4)
H12A H -0.4503 0.1454 -0.0362
C19A C -0.2865(5) 0.2121(4) -0.0054(4)
H13A H -0.3367 0.2775 -0.0023
C20A C 0.1495(5) -0.1966(4) -0.0093(3)
H14A H 0.1045 -0.2510 -0.0228
C21A C 1.0625(4) -0.3684(3) 0.6469(3)
C22A C 1.2259(4) -0.3864(3) 0.6454(3)
C23A C 1.2634(4) -0.4048(3) 0.7320(3)
H15A H 1.1861 -0.4035 0.7911
C24A C 1.4097(4) -0.4249(3) 0.7348(3)
C25A C 1.5262(4) -0.4270(3) 0.6464(3)
C26A C 1.6901(4) -0.4553(3) 0.6392(3)
C27A C 1.4853(5) -0.4050(3) 0.5610(3)
H16A H 1.5617 -0.4042 0.5013
C28A C 1.3385(4) -0.3843(3) 0.5589(3)
H17A H 1.3155 -0.3688 0.4990
C29A C 1.1421(5) -0.6860(3) 0.5945(3)
H18A H 1.1979 -0.6984 0.5313
C30A C 0.9895(5) -0.6205(3) 0.7113(3)
H19A H 0.9148 -0.5766 0.7465
C31A C 1.0604(5) -0.7000(4) 0.7511(3)
H20A H 1.0457 -0.7223 0.8181
C32A C 1.2598(5) -0.8290(3) 0.6798(3)
C33A C 1.2205(5) -0.9218(3) 0.6660(3)
C34A C 1.0794(5) -0.9337(4) 0.6510(3)
H21A H 1.0076 -0.8781 0.6532
C35A C 1.0486(6) -1.0254(4) 0.6335(4)
H22A H 0.9541 -1.0330 0.6248
C36A C 1.1533(6) -1.1084(4) 0.6279(4)
H23A H 1.1301 -1.1706 0.6136
C37A C 1.2876(5) -1.1008(4) 0.6428(4)
H24A H 1.3568 -1.1581 0.6400
C38A C 1.3254(5) -1.0078(3) 0.6624(3)
Co1_2 Co 0.0000 -0.5000 0.5000
Co1_3 Co 2.0000 -0.5000 0.5000
Co2A Co 1.75580(6) -1.35363(4) 0.79595(4)
Co2_2 Co 0.24420(6) -0.64637(4) 0.20405(4)
Co2_3 Co 1.24420(6) -0.64637(4) 0.20405(4)
Co2A_2 Co -0.24420(6) -0.35363(4) -0.20405(4)
Co2A_3 Co 1.75580(6) -0.35363(4) 0.79595(4)
Co2A_4 Co 0.75580(6) -0.35363(4) 0.79595(4)
N1A N -0.2218(4) -0.2707(3) -0.1001(2)
N1A_2 N 1.7782(4) -1.2707(3) 0.8999(2)
N2A N -0.1454(4) -0.1603(3) -0.0317(3)
N3A N 1.6955(4) -1.2198(3) 0.7129(2)
N4A N 1.5710(4) -1.0794(3) 0.6716(3)
N5A N 1.0404(4) -0.6114(3) 0.6121(2)
N6A N 1.1588(4) -0.7430(3) 0.6756(2)
O1A O 1.5214(3) -0.3646(2) 0.8609(2)
O1_2 O 0.4786(3) 0.3646(2) 0.1391(2)
O1A_2 O 1.5214(3) -1.3646(2) 0.8609(2)
O2A O 1.7840(3) -1.4955(2) 0.8833(2)
O3A O 1.7360(3) -0.4511(2) 0.7086(2)
O3_2 O 0.2640(3) 0.4511(2) 0.2914(2)
O3A_2 O 1.7360(3) -1.4511(2) 0.7086(2)
O4A O 0.9776(3) -0.3411(2) 0.7238(2)
O4_2 O 0.0224(3) 0.3411(2) 0.2762(2)
O4A_2 O 1.9776(3) -1.3411(2) 0.7238(2)
O5A O 1.0275(3) -0.3778(2) 0.5727(2)
O6A O 1.2845(3) -0.4424(3) 0.9187(2)
O7A O 1.5104(3) -0.5471(2) 0.8650(2)
O8A O 1.7670(3) -0.4839(2) 0.5603(2)
O8_2 O 1.2330(3) -0.5161(2) 0.4397(2)
O8A_2 O 0.7670(3) -0.4839(2) 0.5603(2)
S1A S 1.43477(11) -0.44772(8) 0.85343(7)
H25A H 1.7563 -1.5116 0.9414
H26A H 1.6955 -1.5315 0.8858
loop_
_geom_bond_atom_site_label_1
_geom_bond_atom_site_label_2
_geom_bond_site_symmetry_1
_geom_bond_site_symmetry_2
C1 H1 1_555 1_555
C2 H2 1_555 1_555
C3 C2 1_555 1_555
H3 C3 1_555 1_555
C4 C5 1_555 1_555
C5 C6 1_555 1_555
C6 H4 1_555 1_555
C7 C6 1_555 1_555
H5 C7 1_555 1_555
C8 C7 1_555 1_555
H6 C8 1_555 1_555
C9 C8 1_555 1_555
H7 C9 1_555 1_555
C10 C5 1_555 1_555
C11 H8 1_555 1_555
C12 H9 1_555 1_555
C13 C12 1_555 1_555
H10 C13 1_555 1_555
C14 C15 1_555 1_555
C15 C20 1_555 1_555
C16 C14 1_555 1_555
C17 C16 1_555 1_555
H11 C17 1_555 1_555
C18 C17 1_555 1_555
H12 C18 1_555 1_555
C19 C18 1_555 1_555
H13 C19 1_555 1_555
C20 H14 1_555 1_555
C21 C22 1_555 1_555
C22 C23 1_555 1_555
C23 H15 1_555 1_555
C24 C23 1_555 1_555
C25 C24 1_555 1_555
C26 C25 1_555 1_555
C27 C25 1_555 1_555
H16 C27 1_555 1_555
C28 C22 1_555 1_555
H17 C28 1_555 1_555
C29 H18 1_555 1_555
C30 H19 1_555 1_555
C31 C30 1_555 1_555
H20 C31 1_555 1_555
C32 C10 1_555 1_555
C33 C32 1_555 1_555
C34 C33 1_555 1_555
H21 C34 1_555 1_555
C35 C34 1_555 1_555
H22 C35 1_555 1_555
C36 C35 1_555 1_555
H23 C36 1_555 1_555
C37 C36 1_555 1_555
H24 C37 1_555 1_555
C38 C4 1_555 1_555
Co1 N5 1_555 1_555
Co2 N1 1_555 1_555
N1 C11 1_555 1_555
N2 C11 1_555 1_555
N3 C1 1_555 1_555
N4 C1 1_555 1_555
N5 C29 1_555 1_555
N6 C29 1_555 1_555
O1 S1 1_555 1_555
O2 Co2 1_555 1_555
O3 C26 1_555 1_555
O4 C21 1_555 1_555
O5 C21 1_555 1_555
O6 S1 1_555 1_555
O7 S1 1_555 1_555
O8 C26 1_555 1_555
S1 C24 1_555 1_555
H25 O2 1_555 1_555
H26 O2 1_555 1_555
C1A H1A 1_555 1_555
C2A H2A 1_555 1_555
C3A C2A 1_555 1_555
H3A C3A 1_555 1_555
C4A C5A 1_555 1_555
C5A C6A 1_555 1_555
C6A H4A 1_555 1_555
C7A C6A 1_555 1_555
H5A C7A 1_555 1_555
C8A C7A 1_555 1_555
H6A C8A 1_555 1_555
C9A C8A 1_555 1_555
H7A C9A 1_555 1_555
C10A C5A 1_555 1_555
C11A H8A 1_555 1_555
C12A H9A 1_555 1_555
C13A C12A 1_555 1_555
H10A C13A 1_555 1_555
C14A C15A 1_555 1_555
C15A C16 1_555 1_555
C16A C15 1_555 1_555
C17A C16A 1_555 1_555
H11A C17A 1_555 1_555
C18A C17A 1_555 1_555
H12A C18A 1_555 1_555
C19A C20 1_555 1_555
H13A C19A 1_555 1_555
C20A C19 1_555 1_555
H14A C20A 1_555 1_555
C21A C22A 1_555 1_555
C22A C23A 1_555 1_555
C23A H15A 1_555 1_555
C24A C23A 1_555 1_555
C25A C24A 1_555 1_555
C26A C25A 1_555 1_555
C27A C25A 1_555 1_555
H16A C27A 1_555 1_555
C28A C22A 1_555 1_555
H17A C28A 1_555 1_555
C29A H18A 1_555 1_555
C30A H19A 1_555 1_555
C31A C30A 1_555 1_555
H20A C31A 1_555 1_555
C32A C10A 1_555 1_555
C33A C32A 1_555 1_555
C34A C33A 1_555 1_555
H21A C34A 1_555 1_555
C35A C34A 1_555 1_555
H22A C35A 1_555 1_555
C36A C35A 1_555 1_555
H23A C36A 1_555 1_555
C37A C36A 1_555 1_555
H24A C37A 1_555 1_555
C38A C4A 1_555 1_555
Co1_2 O8 1_555 1_555
Co1_3 O8A 1_555 1_555
Co2A N1A_2 1_555 1_555
Co2_2 O1 1_555 1_555
Co2_3 O4 1_555 1_555
Co2A_2 N1A 1_555 1_555
Co2A_3 O1A 1_555 1_555
Co2A_4 O4A 1_555 1_555
N1A C11A 1_555 1_555
N2A C11A 1_555 1_555
N3A C1A 1_555 1_555
N4A C1A 1_555 1_555
N5A Co1 1_555 1_555
N6A C29A 1_555 1_555
O1A S1A 1_555 1_555
O1_2 Co2 1_555 1_555
O1A_2 Co2A 1_555 1_555
O2A Co2A 1_555 1_555
O3A C26A 1_555 1_555
O3_2 Co2 1_555 1_555
O3A_2 Co2A 1_555 1_555
O4A C21A 1_555 1_555
O4_2 Co2 1_555 1_555
O4A_2 Co2A 1_555 1_555
O5A Co1 1_555 1_555
O6A S1A 1_555 1_555
O7A S1A 1_555 1_555
O8A C26A 1_555 1_555
O8_2 Co1 1_555 1_555
O8A_2 Co1 1_555 1_555
S1A C24A 1_555 1_555
H25A O2A 1_555 1_555
H26A O2A 1_555 1_555
C2 N3 1_555 1_555
C3 N4 1_555 1_555
C4 N4 1_555 1_555
C9 C10 1_555 1_555
C12 N1 1_555 1_555
C13 N2 1_555 1_555
C14 N2 1_555 1_555
C27 C28 1_555 1_555
C30 N5 1_555 1_555
C31 N6 1_555 1_555
C32 N6 1_555 1_555
C33 C38 1_555 1_555
C37 C38 1_555 1_555
Co1 O5 1_555 1_555
Co2 N3 1_555 1_555
O3 Co2_2 1_555 1_555
C2A N3A 1_555 1_555
C3A N4A 1_555 1_555
C4A N4A 1_555 1_555
C9A C10A 1_555 1_555
C12A N1A 1_555 1_555
C13A N2A 1_555 1_555
C14A C16A 1_555 1_555
C14A N2A 1_555 1_555
C15A C20A 1_555 1_555
C18A C19A 1_555 1_555
C21A O5A 1_555 1_555
C27A C28A 1_555 1_555
C29A N5A 1_555 1_555
C30A N5A 1_555 1_555
C31A N6A 1_555 1_555
C32A N6A 1_555 1_555
C33A C38A 1_555 1_555
C37A C38A 1_555 1_555
Co2A N3A 1_555 1_555
Co2A_3 O3A 1_555 1_555

#END
