
#######################################################################
#
#                 Cambridge Crystallographic Data Centre
#                                CCDC 
#
#######################################################################
#
# If this CIF has been generated from an entry in the Cambridge 
# Structural Database, then it will include bibliographic, chemical, 
# crystal, experimental, refinement or atomic coordinate data resulting 
# from the CCDC's data processing and validation procedures.
#
#######################################################################

data_NEBYOK
_symmetry_cell_setting           monoclinic
_symmetry_space_group_name_H-M   'P 21/n'
_symmetry_Int_Tables_number      14
_space_group_name_Hall           '-P 2yn'
loop_
_symmetry_equiv_pos_site_id
_symmetry_equiv_pos_as_xyz
1 x,y,z
2 1/2-x,1/2+y,1/2-z
3 -x,-y,-z
4 1/2+x,1/2-y,1/2+z
_cell_length_a                   17.454(2)
_cell_length_b                   13.620(1)
_cell_length_c                   19.539(2)
_cell_angle_alpha                90
_cell_angle_beta                 94.064(1)
_cell_angle_gamma                90
_cell_volume                     4633.2
loop_
_atom_site_label
_atom_site_type_symbol
_atom_site_fract_x
_atom_site_fract_y
_atom_site_fract_z
Tb1 Tb 0.38744(3) -0.01580(5) -0.04823(4)
Tb2 Tb 0.88916(3) -0.46742(5) 0.03414(4)
N1 N 0.3877(9) -0.6925(12) -0.1427(10)
N2 N -0.0864(11) 0.1651(15) 0.1725(11)
N3 N 0.0899(9) -0.2886(14) 0.2246(10)
O1 O 0.4524(5) -0.1662(7) -0.0610(6)
O2 O 0.5634(5) -0.1184(8) -0.0114(6)
O3 O 0.7876(6) -0.3483(8) -0.0054(6)
O4 O 0.7669(6) -0.5011(9) -0.0324(8)
O5 O 0.2839(6) -0.1316(8) -0.0271(7)
O6 O 0.2662(6) 0.0212(8) 0.0016(7)
O7 O -0.0288(6) -0.3341(8) 0.0403(6)
O8 O 0.0834(6) -0.3776(8) -0.0002(6)
O9 O 0.4126(6) -0.0741(9) 0.0630(6)
O10 O 0.5208(6) -0.0300(8) 0.1213(6)
O11 O 0.5284(7) -0.0172(10) 0.3721(6)
O12 O 0.4227(7) -0.0512(10) 0.4242(6)
O13 O 0.3354(7) -0.0814(10) -0.1572(7)
H1 H 0.3590 -0.1074 -0.1891
H2 H 0.3113 -0.0324 -0.1750
O14 O 0.3253(6) 0.1176(9) -0.1171(7)
H3 H 0.3480 0.1702 -0.1273
H4 H 0.2787 0.1342 -0.1138
O15 O 0.8057(9) -0.5688(14) 0.1022(8)
H5 H 0.7666 -0.5931 0.0800
H6 H 0.7891 -0.5304 0.1320
O16 O 0.8518(6) -0.3715(11) 0.1302(7)
H7 H 0.8801 -0.3780 0.1672
H8 H 0.8535 -0.3147 0.1123
C1 C 0.5224(8) -0.1806(11) -0.0415(9)
C2 C 0.7432(8) -0.4206(12) -0.0261(10)
C3 C 0.5546(8) -0.2784(11) -0.0560(9)
C4 C 0.6312(8) -0.2974(11) -0.0377(9)
H9 H 0.6624 -0.2502 -0.0155
C5 C 0.6621(8) -0.3950(11) -0.0546(9)
C6 C 0.6132(9) -0.4653(13) -0.0759(10)
H10 H 0.6326 -0.5277 -0.0829
C7 C 0.5351(8) -0.4507(12) -0.0880(9)
C8 C 0.5072(8) -0.3551(11) -0.0784(9)
H11 H 0.4551 -0.3431 -0.0875
C9 C 0.4829(10) -0.5292(12) -0.1105(10)
C10 C 0.5107(10) -0.6206(14) -0.1335(11)
H12 H 0.5632 -0.6299 -0.1362
C11 C 0.4605(11) -0.6954(14) -0.1516(12)
H13 H 0.4799 -0.7514 -0.1714
C12 C 0.3614(11) -0.6100(15) -0.1316(11)
H14 H 0.3084 -0.6014 -0.1368
C13 C 0.4069(11) -0.5288(14) -0.1114(11)
H15 H 0.3827 -0.4718 -0.0980
C14 C 0.2437(8) -0.0684(13) -0.0022(10)
C15 C 0.0396(9) -0.3151(13) 0.0275(10)
C16 C 0.1677(8) -0.0931(12) 0.0233(9)
C17 C 0.1394(8) -0.1896(13) 0.0179(9)
H16 H 0.1705 -0.2373 -0.0001
C18 C 0.0679(9) -0.2177(13) 0.0376(10)
C19 C 0.0259(10) -0.1472(13) 0.0713(10)
H17 H -0.0213 -0.1646 0.0870
C20 C 0.0533(10) -0.0497(14) 0.0824(11)
C21 C 0.1273(9) -0.0268(13) 0.0603(10)
H18 H 0.1488 0.0342 0.0710
C22 C 0.0110(11) 0.0238(15) 0.1207(11)
C23 C -0.0545(12) 0.0036(17) 0.1484(12)
H19 H -0.0704 -0.0614 0.1499
C24 C -0.1011(13) 0.0766(18) 0.1758(13)
H20 H -0.1446 0.0572 0.1971
C25 C -0.0259(12) 0.1878(18) 0.1410(13)
H21 H -0.0139 0.2536 0.1349
C26 C 0.0194(12) 0.1193(17) 0.1171(12)
H22 H 0.0619 0.1416 0.0955
C27 C 0.4544(9) -0.0597(13) 0.1191(9)
C28 C 0.4628(10) -0.0493(14) 0.3769(10)
C29 C 0.4191(8) -0.0847(12) 0.1815(8)
C30 C 0.4536(9) -0.0563(13) 0.2435(8)
H23 H 0.5004 -0.0234 0.2452
C31 C 0.4189(9) -0.0764(14) 0.3042(9)
C32 C 0.3494(9) -0.1197(14) 0.3018(10)
H24 H 0.3262 -0.1290 0.3427
C33 C 0.3134(9) -0.1493(12) 0.2448(8)
C34 C 0.3473(9) -0.1290(14) 0.1811(10)
H25 H 0.3211 -0.1457 0.1397
C35 C 0.2328(7) -0.1965(8) 0.2390(6)
C36 C 0.1718(9) -0.1608(13) 0.2730(9)
H26 H 0.1785 -0.1057 0.3010
C37 C 0.1009(9) -0.2065(15) 0.2658(11)
H27 H 0.0602 -0.1817 0.2888
C38 C 0.1507(11) -0.3245(14) 0.1900(11)
H28 H 0.1440 -0.3795 0.1621
C39 C 0.2213(10) -0.2783(12) 0.1970(9)
H29 H 0.2616 -0.3023 0.1733
Tb1B Tb 0.61256(3) 0.01580(5) 0.04823(4)
Tb2_2 Tb -0.11084(3) -0.46742(5) 0.03414(4)
Tb2B Tb 0.11084(3) -0.53258(5) -0.03414(4)
Tb2A Tb 0.61084(3) 0.03258(5) 0.46586(4)
Tb2C Tb 0.38916(3) -0.03258(5) 0.53414(4)
O2B O 0.4366(5) 0.1184(8) 0.0114(6)
O7_2 O 0.9712(6) -0.3341(8) 0.0403(6)
O8B O 0.9166(6) -0.6224(8) 0.0002(6)
O10B O 0.4792(6) 0.0300(8) -0.1213(6)
O11A O 0.9716(7) -0.5172(10) 0.1279(6)
O12C O 0.9227(7) -0.4488(10) -0.0758(6)
O17 O 0.4397(7) 0.8260(12) 0.7519(7)
O18 O 0.3110(8) 0.6686(12) -0.0325(10)
O19 O 0.1838(11) 0.1751(16) 0.9375(14)
C40? C 0.2333(14) -0.2611(17) 0.2940(10)
C41? C 0.1694(17) -0.318(2) 0.3055(15)
C42? C 0.1037(11) -0.245(2) 0.2065(16)
C43? C 0.1676(11) -0.188(2) 0.1951(12)
H30? H 0.2773 -0.2666 0.3236
H31? H 0.1703 -0.3606 0.3425
H32? H 0.0598 -0.2391 0.1768
H33? H 0.1667 -0.1453 0.1581
N4? N 0.1043(14) -0.309(2) 0.2614(17)
loop_
_geom_bond_atom_site_label_1
_geom_bond_atom_site_label_2
_geom_bond_site_symmetry_1
_geom_bond_site_symmetry_2
Tb1 O1 1_555 1_555
Tb2 O3 1_555 1_555
N1 C11 1_555 1_555
N2 C24 1_555 1_555
N3 C37 1_555 1_555
O1 C1 1_555 1_555
O2 C1 1_555 1_555
O3 C2 1_555 1_555
O4 Tb2 1_555 1_555
O5 Tb1 1_555 1_555
O6 Tb1 1_555 1_555
O7 C15 1_555 1_555
O8 C15 1_555 1_555
O9 Tb1 1_555 1_555
O10 C27 1_555 1_555
O11 C28 1_555 1_555
O12 C28 1_555 1_555
O13 Tb1 1_555 1_555
H1 O13 1_555 1_555
H2 O13 1_555 1_555
O14 Tb1 1_555 1_555
H3 O14 1_555 1_555
H4 O14 1_555 1_555
O15 Tb2 1_555 1_555
H5 O15 1_555 1_555
H6 O15 1_555 1_555
O16 Tb2 1_555 1_555
H7 O16 1_555 1_555
H8 O16 1_555 1_555
C1 C3 1_555 1_555
C2 O4 1_555 1_555
C3 C4 1_555 1_555
C4 H9 1_555 1_555
C5 C2 1_555 1_555
C6 C5 1_555 1_555
H10 C6 1_555 1_555
C7 C6 1_555 1_555
C8 C3 1_555 1_555
H11 C8 1_555 1_555
C9 C7 1_555 1_555
C10 C9 1_555 1_555
H12 C10 1_555 1_555
C11 C10 1_555 1_555
H13 C11 1_555 1_555
C12 N1 1_555 1_555
H14 C12 1_555 1_555
C13 C9 1_555 1_555
H15 C13 1_555 1_555
C14 O5 1_555 1_555
C15 C18 1_555 1_555
C16 C14 1_555 1_555
C17 C16 1_555 1_555
H16 C17 1_555 1_555
C18 C17 1_555 1_555
C19 C18 1_555 1_555
H17 C19 1_555 1_555
C20 C19 1_555 1_555
C21 C16 1_555 1_555
H18 C21 1_555 1_555
C22 C20 1_555 1_555
C23 C22 1_555 1_555
H19 C23 1_555 1_555
C24 C23 1_555 1_555
H20 C24 1_555 1_555
C25 N2 1_555 1_555
H21 C25 1_555 1_555
C26 C22 1_555 1_555
H22 C26 1_555 1_555
C27 O9 1_555 1_555
C28 C31 1_555 1_555
C29 C27 1_555 1_555
C30 C29 1_555 1_555
H23 C30 1_555 1_555
C31 C30 1_555 1_555
C32 C31 1_555 1_555
H24 C32 1_555 1_555
C33 C32 1_555 1_555
C34 C29 1_555 1_555
H25 C34 1_555 1_555
C35 C33 1_555 1_555
C36 C35 1_555 1_555
H26 C36 1_555 1_555
C37 C36 1_555 1_555
H27 C37 1_555 1_555
C38 N3 1_555 1_555
H28 C38 1_555 1_555
C39 C35 1_555 1_555
H29 C39 1_555 1_555
Tb1B O2 1_555 1_555
Tb2_2 O7 1_555 1_555
Tb2B O8 1_555 1_555
Tb2A O11 1_555 1_555
Tb2C O12 1_555 1_555
O2B Tb1 1_555 1_555
O7_2 Tb2 1_555 1_555
O8B Tb2 1_555 1_555
O10B Tb1 1_555 1_555
O11A Tb2 1_555 1_555
O12C Tb2 1_555 1_555
O6 C14 1_555 1_555
O10 Tb1B 1_555 1_555
C4 C5 1_555 1_555
C7 C8 1_555 1_555
C12 C13 1_555 1_555
C20 C21 1_555 1_555
C25 C26 1_555 1_555
C33 C34 1_555 1_555
C38 C39 1_555 1_555

#END
