
#######################################################################
#
#                 Cambridge Crystallographic Data Centre
#                                CCDC 
#
#######################################################################
#
# If this CIF has been generated from an entry in the Cambridge 
# Structural Database, then it will include bibliographic, chemical, 
# crystal, experimental, refinement or atomic coordinate data resulting 
# from the CCDC's data processing and validation procedures.
#
#######################################################################

data_NEBYUQ
_symmetry_cell_setting           orthorhombic
_symmetry_space_group_name_H-M   'P b a 2'
_symmetry_Int_Tables_number      32
_space_group_name_Hall           'P 2 -2ab'
loop_
_symmetry_equiv_pos_site_id
_symmetry_equiv_pos_as_xyz
1 x,y,z
2 -x,-y,z
3 1/2-x,1/2+y,z
4 1/2+x,1/2-y,z
_cell_length_a                   31.913(3)
_cell_length_b                   7.4756(6)
_cell_length_c                   9.8723(8)
_cell_angle_alpha                90
_cell_angle_beta                 90
_cell_angle_gamma                90
_cell_volume                     2355.22
loop_
_atom_site_label
_atom_site_type_symbol
_atom_site_fract_x
_atom_site_fract_y
_atom_site_fract_z
Eu1 Eu 0.596763(7) 0.57390(4) 0.21911(9)
O1 O 0.66885(15) 0.1102(8) 0.1071(6)
O2 O 0.63031(11) 0.3008(5) 0.2271(10)
O3 O 0.82394(16) 0.1403(7) 0.1564(6)
O4 O 0.84815(13) 0.2002(7) 0.3606(5)
O5 O 0.53450(13) 0.6681(7) 0.0818(5)
O6 O 0.59025(18) 0.5650(8) -0.0260(7)
O7 O 0.5819(2) 0.5022(9) -0.5368(6)
O8 O 0.54843(16) 0.7210(8) -0.6343(6)
O9 O 0.54354(12) 0.3370(6) 0.2037(10)
H1 H 0.5399 0.2654 0.1378
H2 H 0.5206 0.3259 0.2467
O10 O 0.60034(15) 0.8909(7) 0.1563(6)
H3 H 0.6231 0.9465 0.1413
H4 H 0.5778 0.9401 0.1292
N1 N 0.70552(18) 0.5189(9) 0.9120(6)
H5 H 0.7021 0.5516 1.0184
N2 N 0.35219(18) 1.0381(10) -0.3066(8)
C1 C 0.66441(17) 0.2181(9) 0.1980(9)
C2 C 0.8182(2) 0.1994(10) 0.2784(9)
C3 C 0.70126(19) 0.2505(9) 0.2913(7)
C4 C 0.74181(17) 0.2158(8) 0.2448(8)
H6 H 0.7460 0.1760 0.1565
C5 C 0.77522(18) 0.2401(9) 0.3285(7)
C6 C 0.76870(19) 0.3042(9) 0.4609(7)
H7 H 0.7917 0.3228 0.5169
C7 C 0.72887(19) 0.3404(10) 0.5105(7)
C8 C 0.6949(2) 0.3147(9) 0.4199(7)
H8 H 0.6679 0.3420 0.4481
C9 C 0.7215(2) 0.4024(10) 0.6492(7)
C10 C 0.7531(2) 0.4218(9) 0.7440(9)
H9 H 0.7805 0.3935 0.7200
C11 C 0.7449(2) 0.4823(11) 0.8736(8)
H10 H 0.7668 0.4978 0.9346
C12 C 0.6739(3) 0.5111(13) 0.8222(9)
H11 H 0.6470 0.5450 0.8478
C13 C 0.6815(2) 0.4531(12) 0.6930(9)
H12 H 0.6593 0.4472 0.6322
C14 C 0.5529(3) 0.6324(15) -0.0249(10)
C15 C 0.5568(3) 0.6308(14) -0.5296(10)
C16 C 0.5329(3) 0.6792(13) -0.1578(10)
C17 C 0.55378(15) 0.6320(7) -0.2774(14)
H13 H 0.5794 0.5728 -0.2736
C18 C 0.5362(3) 0.6738(12) -0.3998(10)
C19 C 0.4963(3) 0.7509(12) -0.4026(11)
H14 H 0.4839 0.7721 -0.4864
C20 C 0.47460(15) 0.7966(7) -0.2881(13)
C21 C 0.4944(3) 0.7633(11) -0.1623(10)
H15 H 0.4814 0.7983 -0.0822
C22 C 0.43190(16) 0.8753(7) -0.2906(14)
C23 C 0.4144(3) 0.9378(12) -0.4109(12)
H16 H 0.4296 0.9266 -0.4909
C24 C 0.3757(3) 1.0148(13) -0.4146(10)
H17 H 0.3654 1.0528 -0.4978
C25 C 0.3677(3) 0.9780(16) -0.1907(10)
H18 H 0.3514 0.9910 -0.1131
C26 C 0.4072(3) 0.8954(14) -0.1775(12)
H19 H 0.4164 0.8551 -0.0935
Eu1_2 Eu 0.596763(7) 0.57390(4) -0.78089(9)
Eu1B Eu 0.903237(7) 0.07390(4) 0.21911(9)
O3B O 0.67606(16) 0.6403(7) 0.1564(6)
O4B O 0.65185(13) 0.7002(7) 0.3606(5)
O7_2 O 0.5819(2) 0.5022(9) 0.4632(6)
O8_2 O 0.54843(16) 0.7210(8) 0.3657(6)
O11 O 0.5000 0.0000 0.2719(10)
loop_
_geom_bond_atom_site_label_1
_geom_bond_atom_site_label_2
_geom_bond_site_symmetry_1
_geom_bond_site_symmetry_2
Eu1 O2 1_555 1_555
O1 C1 1_555 1_555
O2 C1 1_555 1_555
O3 C2 1_555 1_555
O4 C2 1_555 1_555
O5 Eu1 1_555 1_555
O6 Eu1 1_555 1_555
O7 C15 1_555 1_555
O8 C15 1_555 1_555
O9 Eu1 1_555 1_555
H1 O9 1_555 1_555
H2 O9 1_555 1_555
O10 Eu1 1_555 1_555
H3 O10 1_555 1_555
H4 O10 1_555 1_555
N1 H5 1_555 1_555
N2 C24 1_555 1_555
C1 C3 1_555 1_555
C2 C5 1_555 1_555
C3 C4 1_555 1_555
C4 H6 1_555 1_555
C5 C4 1_555 1_555
C6 C5 1_555 1_555
H7 C6 1_555 1_555
C7 C6 1_555 1_555
C8 C3 1_555 1_555
H8 C8 1_555 1_555
C9 C7 1_555 1_555
C10 C9 1_555 1_555
H9 C10 1_555 1_555
C11 N1 1_555 1_555
H10 C11 1_555 1_555
C12 N1 1_555 1_555
H11 C12 1_555 1_555
C13 C9 1_555 1_555
H12 C13 1_555 1_555
C14 O5 1_555 1_555
C15 C18 1_555 1_555
C16 C14 1_555 1_555
C17 C16 1_555 1_555
H13 C17 1_555 1_555
C18 C17 1_555 1_555
C19 C18 1_555 1_555
H14 C19 1_555 1_555
C20 C19 1_555 1_555
C21 C16 1_555 1_555
H15 C21 1_555 1_555
C22 C20 1_555 1_555
C23 C22 1_555 1_555
H16 C23 1_555 1_555
C24 C23 1_555 1_555
H17 C24 1_555 1_555
C25 N2 1_555 1_555
H18 C25 1_555 1_555
C26 C22 1_555 1_555
H19 C26 1_555 1_555
Eu1_2 O7 1_555 1_555
Eu1B O3 1_555 1_555
O3B Eu1 1_555 1_555
O4B Eu1 1_555 1_555
O7_2 Eu1 1_555 1_555
O8_2 Eu1 1_555 1_555
O4 Eu1B 1_555 1_555
O6 C14 1_555 1_555
O8 Eu1_2 1_555 1_555
C7 C8 1_555 1_555
C10 C11 1_555 1_555
C12 C13 1_555 1_555
C20 C21 1_555 1_555
C25 C26 1_555 1_555

#END
