
#######################################################################
#
#                 Cambridge Crystallographic Data Centre
#                                CCDC 
#
#######################################################################
#
# If this CIF has been generated from an entry in the Cambridge 
# Structural Database, then it will include bibliographic, chemical, 
# crystal, experimental, refinement or atomic coordinate data resulting 
# from the CCDC's data processing and validation procedures.
#
#######################################################################

data_NECCUU
_symmetry_cell_setting           monoclinic
_symmetry_space_group_name_H-M   'C 2'
_symmetry_Int_Tables_number      5
_space_group_name_Hall           'C 2y'
loop_
_symmetry_equiv_pos_site_id
_symmetry_equiv_pos_as_xyz
1 x,y,z
2 -x,y,-z
3 1/2+x,1/2+y,z
4 1/2-x,1/2+y,-z
_cell_length_a                   16.9430(16)
_cell_length_b                   8.2744(8)
_cell_length_c                   9.2263(9)
_cell_angle_alpha                90
_cell_angle_beta                 107.671(2)
_cell_angle_gamma                90
_cell_volume                     1232.43
loop_
_atom_site_label
_atom_site_type_symbol
_atom_site_fract_x
_atom_site_fract_y
_atom_site_fract_z
Cu1 Cu -0.320780(15) 0.11672 0.03829(3)
C1 C -0.26758(14) -0.0900(3) 0.0499(3)
N1 N -0.23249(15) -0.2068(3) 0.0385(3)
P1 P -0.08170(3) -0.29009(8) -0.13402(7)
C2 C 0.00000 -0.1679(4) 0.00000
C3 C 0.02317(14) -0.4347(3) 0.2094(3)
C4 C 0.04636(16) -0.5964(3) 0.2165(3)
C5 C 0.0019(2) -0.7127(4) 0.2677(4)
C6 C -0.06650(18) -0.6674(4) 0.3111(4)
C7 C -0.09033(15) -0.5064(4) 0.3047(3)
C8 C -0.04611(13) -0.3893(4) 0.2538(3)
C9 C 0.12323(13) -0.1425(3) 0.2855(3)
C10 C 0.11761(15) -0.1589(3) 0.4323(3)
C11 C 0.15519(17) -0.0454(4) 0.5440(3)
C12 C 0.19813(16) 0.0848(4) 0.5095(3)
C13 C 0.20298(14) 0.1031(4) 0.3626(3)
C14 C 0.16641(13) -0.0106(4) 0.2511(3)
H1 H -0.028(2) -0.103(5) 0.045(4)
H2 H 0.089(3) -0.626(6) 0.186(5)
H3 H 0.017(2) -0.831(5) 0.262(4)
H4 H -0.099(2) -0.738(5) 0.346(4)
H5 H -0.142(2) -0.480(6) 0.332(4)
H6 H -0.0674(19) -0.292(5) 0.251(4)
H7 H 0.090(2) -0.248(5) 0.457(4)
H8 H 0.155(2) -0.060(5) 0.640(4)
H9 H 0.225(2) 0.161(5) 0.584(4)
H10 H 0.230(2) 0.197(5) 0.339(4)
H11 H 0.168(2) 0.006(6) 0.157(4)
Cu1C Cu -0.179220(15) -0.38328 -0.03829(3)
Cu1B Cu 0.179220(15) -0.38328 0.03829(3)
Cu1_2 Cu -0.320780(15) -0.88328 0.03829(3)
C1C C -0.23242(14) -0.5900(3) -0.0499(3)
N1C N -0.26751(15) 0.2932(3) -0.0385(3)
N1C_2 N -0.26751(15) -0.7068(3) -0.0385(3)
P1A P 0.08170(3) -0.29009(8) 0.13402(7)
P1C P -0.41830(3) 0.20991(8) 0.13402(7)
C3A C -0.02317(14) -0.4347(3) -0.2094(3)
C4A C -0.04636(16) -0.5964(3) -0.2165(3)
C5A C -0.0019(2) -0.7127(4) -0.2677(4)
C6A C 0.06650(18) -0.6674(4) -0.3111(4)
C7A C 0.09033(15) -0.5064(4) -0.3047(3)
C8A C 0.04611(13) -0.3893(4) -0.2538(3)
C9A C -0.12323(13) -0.1425(3) -0.2855(3)
C10A C -0.11761(15) -0.1589(3) -0.4323(3)
C11A C -0.15519(17) -0.0454(4) -0.5440(3)
C12A C -0.19813(16) 0.0848(4) -0.5095(3)
C13A C -0.20298(14) 0.1031(4) -0.3626(3)
C14A C -0.16641(13) -0.0106(4) -0.2511(3)
H1A H 0.028(2) -0.103(5) -0.045(4)
H2A H -0.089(3) -0.626(6) -0.186(5)
H3A H -0.017(2) -0.831(5) -0.262(4)
H4A H 0.099(2) -0.738(5) -0.346(4)
H5A H 0.142(2) -0.480(6) -0.332(4)
H6A H 0.0674(19) -0.292(5) -0.251(4)
H7A H -0.090(2) -0.248(5) -0.457(4)
H8A H -0.155(2) -0.060(5) -0.640(4)
H9A H -0.225(2) 0.161(5) -0.584(4)
H10A H -0.230(2) 0.197(5) -0.339(4)
H11A H -0.168(2) 0.006(6) -0.157(4)
loop_
_geom_bond_atom_site_label_1
_geom_bond_atom_site_label_2
_geom_bond_site_symmetry_1
_geom_bond_site_symmetry_2
Cu1 C1 1_555 1_555
C1 N1 1_555 1_555
N1 Cu1C 1_555 1_555
P1 C2 1_555 1_555
C2 H1 1_555 1_555
C3 C4 1_555 1_555
C4 C5 1_555 1_555
C5 C6 1_555 1_555
C6 C7 1_555 1_555
C7 C8 1_555 1_555
C8 C3 1_555 1_555
C9 C10 1_555 1_555
C10 C11 1_555 1_555
C11 C12 1_555 1_555
C12 C13 1_555 1_555
C13 C14 1_555 1_555
C14 C9 1_555 1_555
H2 C4 1_555 1_555
H3 C5 1_555 1_555
H4 C6 1_555 1_555
H5 C7 1_555 1_555
H6 C8 1_555 1_555
H7 C10 1_555 1_555
H8 C11 1_555 1_555
H9 C12 1_555 1_555
H10 C13 1_555 1_555
H11 C14 1_555 1_555
Cu1C P1 1_555 1_555
Cu1B P1A 1_555 1_555
Cu1_2 N1C_2 1_555 1_555
C1C Cu1C 1_555 1_555
N1C Cu1 1_555 1_555
N1C_2 C1C 1_555 1_555
P1A C2 1_555 1_555
P1C Cu1 1_555 1_555
C3A P1 1_555 1_555
C4A C3A 1_555 1_555
C5A C4A 1_555 1_555
C6A C5A 1_555 1_555
C7A C6A 1_555 1_555
C8A C3A 1_555 1_555
C9A P1 1_555 1_555
C10A C9A 1_555 1_555
C11A C10A 1_555 1_555
C12A C11A 1_555 1_555
C13A C12A 1_555 1_555
C14A C9A 1_555 1_555
H1A C2 1_555 1_555
H2A C4A 1_555 1_555
H3A C5A 1_555 1_555
H4A C6A 1_555 1_555
H5A C7A 1_555 1_555
H6A C8A 1_555 1_555
H7A C10A 1_555 1_555
H8A C11A 1_555 1_555
H9A C12A 1_555 1_555
H10A C13A 1_555 1_555
H11A C14A 1_555 1_555
C3 P1A 1_555 1_555
C9 P1A 1_555 1_555
C7A C8A 1_555 1_555
C13A C14A 1_555 1_555

#END
