
#######################################################################
#
#                 Cambridge Crystallographic Data Centre
#                                CCDC 
#
#######################################################################
#
# If this CIF has been generated from an entry in the Cambridge 
# Structural Database, then it will include bibliographic, chemical, 
# crystal, experimental, refinement or atomic coordinate data resulting 
# from the CCDC's data processing and validation procedures.
#
#######################################################################

data_NECPER
_symmetry_cell_setting           monoclinic
_symmetry_space_group_name_H-M   'C 2'
_symmetry_Int_Tables_number      5
_space_group_name_Hall           'C 2y'
loop_
_symmetry_equiv_pos_site_id
_symmetry_equiv_pos_as_xyz
1 x,y,z
2 -x,y,-z
3 1/2+x,1/2+y,z
4 1/2-x,1/2+y,-z
_cell_length_a                   12.7561(8)
_cell_length_b                   19.3589(12)
_cell_length_c                   15.8597(10)
_cell_angle_alpha                90
_cell_angle_beta                 97.178(1)
_cell_angle_gamma                90
_cell_volume                     3885.76
loop_
_atom_site_label
_atom_site_type_symbol
_atom_site_fract_x
_atom_site_fract_y
_atom_site_fract_z
Br1 Br -0.09904(4) 0.48771(3) 0.38571(3)
Br2 Br 0.24598(4) 0.55792(3) 0.41357(3)
Br3 Br 0.0000 0.66958(4) 0.5000
Br4 Br -0.26801(3) 0.32930(3) -0.08060(3)
Br5 Br -0.03906(3) 0.36864(3) 0.12796(3)
Br6 Br 0.0000 0.19817(4) 0.0000
Cu1 Cu -0.10362(5) 0.56476(4) 0.50598(4)
Cu2 Cu 0.0000 0.41308(5) 0.5000
Cu3 Cu 0.0000 0.23135(4) 0.5000
Cu4 Cu -0.40912(4) 0.28852(3) 0.20884(3)
Cu5 Cu -0.22745(4) 0.32701(3) 0.08615(3)
Cu6 Cu -0.08628(5) 0.30580(4) -0.05095(5)
N1 N -0.1202(3) 0.3700(2) 0.5533(2)
N2 N -0.1038(3) 0.2789(2) 0.4083(2)
N3 N 0.0616(3) 0.19641(19) 0.3996(2)
N4 N -0.4383(3) 0.3628(2) 0.2895(2)
N5 N -0.2628(3) 0.2938(2) 0.2774(2)
N6 N -0.2217(3) 0.2260(2) 0.1170(2)
N7 N -0.4523(3) 0.1913(2) 0.1858(2)
N8 N -0.4583(3) 0.29633(18) 0.0826(2)
N9 N -0.3188(3) 0.40729(19) 0.1178(2)
C1 C -0.1274(4) 0.3801(2) 0.6371(3)
H1 H -0.0725 0.4053 0.6697
C2 C -0.2097(4) 0.3560(2) 0.6776(3)
H2 H -0.2106 0.3634 0.7367
C3 C -0.2907(4) 0.3209(3) 0.6298(3)
H3 H -0.3485 0.3038 0.6561
C4 C -0.2878(4) 0.3109(2) 0.5446(3)
H4 H -0.3441 0.2881 0.5107
C5 C -0.2003(3) 0.3347(2) 0.5086(3)
C6 C -0.1891(3) 0.3165(2) 0.4189(3)
C7 C -0.0947(3) 0.2503(2) 0.3320(3)
C8 C 0.0075(3) 0.2171(2) 0.3246(3)
C9 C 0.0500(3) 0.2111(2) 0.2474(3)
H5 H 0.0107 0.2255 0.1956
C10 C 0.1504(4) 0.1836(2) 0.2485(3)
H6 H 0.1824 0.1806 0.1977
C11 C 0.2035(4) 0.1607(2) 0.3248(3)
H7 H 0.2715 0.1404 0.3265
C12 C 0.1573(4) 0.1675(3) 0.3978(3)
H8 H 0.1945 0.1512 0.4495
C13 C -0.5248(4) 0.4042(3) 0.2837(3)
H9 H -0.5827 0.3944 0.2416
C14 C -0.5316(4) 0.4596(3) 0.3365(3)
H10 H -0.5939 0.4869 0.3318
C15 C -0.4465(4) 0.4757(3) 0.3973(3)
H11 H -0.4497 0.5145 0.4336
C16 C -0.3573(4) 0.4344(2) 0.4041(3)
H12 H -0.2980 0.4444 0.4447
C17 C -0.3567(3) 0.3774(2) 0.3495(3)
C18 C -0.2661(3) 0.3295(2) 0.3498(3)
C19 C -0.1814(3) 0.2524(2) 0.2684(3)
C20 C -0.1931(3) 0.2020(2) 0.1963(2)
C21 C -0.1836(4) 0.1324(3) 0.2155(3)
H13 H -0.1629 0.1178 0.2723
C22 C -0.2042(3) 0.0848(3) 0.1518(3)
H14 H -0.2002 0.0367 0.1638
C23 C -0.2307(3) 0.1080(3) 0.0701(3)
H15 H -0.2435 0.0762 0.0244
C24 C -0.2387(3) 0.1781(2) 0.0552(3)
H16 H -0.2571 0.1935 -0.0016
C25 C -0.4494(4) 0.1407(3) 0.2436(3)
H17 H -0.4196 0.1503 0.3003
C26 C -0.4878(5) 0.0756(3) 0.2243(4)
H18 H -0.4795 0.0397 0.2655
C27 C -0.5378(4) 0.0638(3) 0.1454(4)
H19 H -0.5696 0.0202 0.1317
C28 C -0.5425(4) 0.1152(3) 0.0848(4)
H20 H -0.5789 0.1075 0.0296
C29 C -0.4944(3) 0.1773(2) 0.1048(3)
C30 C -0.4874(3) 0.2363(2) 0.0455(3)
C31 C -0.4699(3) 0.3563(2) 0.0404(2)
C32 C -0.4198(3) 0.4164(2) 0.0870(3)
C33 C -0.4758(3) 0.4759(2) 0.1008(3)
H21 H -0.5470 0.4813 0.0757
C34 C -0.4261(4) 0.5273(3) 0.1518(3)
H22 H -0.4628 0.5682 0.1635
C35 C -0.3222(4) 0.5176(3) 0.1851(3)
H23 H -0.2855 0.5523 0.2194
C36 C -0.2713(4) 0.4564(2) 0.1681(3)
H24 H -0.2005 0.4494 0.1931
Br1A Br 0.09904(4) 0.48771(3) 0.61429(3)
Br2A Br -0.24598(4) 0.55792(3) 0.58643(3)
Br4A Br 0.26801(3) 0.32930(3) 1.08060(3)
Br5A Br 0.03906(3) 0.36864(3) 0.87204(3)
Br5A_2 Br 0.03906(3) 0.36864(3) -0.12796(3)
Br5_2 Br -0.03906(3) 0.36864(3) 1.12796(3)
Br6_2 Br 0.0000 0.19817(4) 1.0000
Cu1A Cu 0.10362(5) 0.56476(4) 0.49402(4)
Cu4A Cu 0.40912(4) 0.28852(3) 0.79116(3)
Cu4A_2 Cu -0.59088(4) 0.28852(3) -0.20884(3)
Cu5A Cu 0.22745(4) 0.32701(3) 0.91385(3)
Cu5A_2 Cu -0.77255(4) 0.32701(3) -0.08615(3)
Cu6A Cu 0.08628(5) 0.30580(4) 1.05095(5)
Cu6A_2 Cu 0.08628(5) 0.30580(4) 0.05095(5)
Cu6_2 Cu -0.08628(5) 0.30580(4) 0.94905(5)
N1A N 0.1202(3) 0.3700(2) 0.4467(2)
N2A N 0.1038(3) 0.2789(2) 0.5917(2)
N3A N -0.0616(3) 0.19641(19) 0.6004(2)
N4A N 0.4383(3) 0.3628(2) 0.7105(2)
N5A N 0.2628(3) 0.2938(2) 0.7226(2)
N6A N 0.2217(3) 0.2260(2) 0.8830(2)
N7A N -0.5477(3) 0.1913(2) -0.1858(2)
N7A_2 N 0.4523(3) 0.1913(2) 0.8142(2)
N8A N -0.5417(3) 0.29633(18) -0.0826(2)
N8A_2 N 0.4583(3) 0.29633(18) 0.9174(2)
N9A N -0.6812(3) 0.40729(19) -0.1178(2)
N9A_2 N 0.3188(3) 0.40729(19) 0.8822(2)
C1A C 0.1274(4) 0.3801(2) 0.3629(3)
H1A H 0.0725 0.4053 0.3303
C2A C 0.2097(4) 0.3560(2) 0.3224(3)
H2A H 0.2106 0.3634 0.2633
C3A C 0.2907(4) 0.3209(3) 0.3702(3)
H3A H 0.3485 0.3038 0.3439
C4A C 0.2878(4) 0.3109(2) 0.4554(3)
H4A H 0.3441 0.2881 0.4893
C5A C 0.2003(3) 0.3347(2) 0.4914(3)
C6A C 0.1891(3) 0.3165(2) 0.5811(3)
C7A C 0.0947(3) 0.2503(2) 0.6680(3)
C8A C -0.0075(3) 0.2171(2) 0.6754(3)
C9A C -0.0500(3) 0.2111(2) 0.7526(3)
H5A H -0.0107 0.2255 0.8044
C10A C -0.1504(4) 0.1836(2) 0.7515(3)
H6A H -0.1824 0.1806 0.8023
C11A C -0.2035(4) 0.1607(2) 0.6752(3)
H7A H -0.2715 0.1404 0.6735
C12A C -0.1573(4) 0.1675(3) 0.6022(3)
H8A H -0.1945 0.1512 0.5505
C13A C 0.5248(4) 0.4042(3) 0.7163(3)
H9A H 0.5827 0.3944 0.7584
C14A C 0.5316(4) 0.4596(3) 0.6635(3)
H10A H 0.5939 0.4869 0.6682
C15A C 0.4465(4) 0.4757(3) 0.6027(3)
H11A H 0.4497 0.5145 0.5664
C16A C 0.3573(4) 0.4344(2) 0.5959(3)
H12A H 0.2980 0.4444 0.5553
C17A C 0.3567(3) 0.3774(2) 0.6505(3)
C18A C 0.2661(3) 0.3295(2) 0.6502(3)
C19A C 0.1814(3) 0.2524(2) 0.7316(3)
C20A C 0.1931(3) 0.2020(2) 0.8037(2)
C21A C 0.1836(4) 0.1324(3) 0.7845(3)
H13A H 0.1629 0.1178 0.7277
C22A C 0.2042(3) 0.0848(3) 0.8482(3)
H14A H 0.2002 0.0367 0.8362
C23A C 0.2307(3) 0.1080(3) 0.9299(3)
H15A H 0.2435 0.0762 0.9756
C24A C 0.2387(3) 0.1781(2) 0.9448(3)
H16A H 0.2571 0.1935 1.0016
C25A C -0.5506(4) 0.1407(3) -0.2436(3)
H17A H -0.5804 0.1503 -0.3003
C26A C -0.5122(5) 0.0756(3) -0.2243(4)
H18A H -0.5205 0.0397 -0.2655
C27A C -0.4622(4) 0.0638(3) -0.1454(4)
H19A H -0.4304 0.0202 -0.1317
C28A C -0.4575(4) 0.1152(3) -0.0848(4)
H20A H -0.4211 0.1075 -0.0296
C29A C -0.5056(3) 0.1773(2) -0.1048(3)
C30A C -0.5126(3) 0.2363(2) -0.0455(3)
C31A C -0.5301(3) 0.3563(2) -0.0404(2)
C32A C -0.5802(3) 0.4164(2) -0.0870(3)
C33A C -0.5242(3) 0.4759(2) -0.1008(3)
H21A H -0.4530 0.4813 -0.0757
C34A C -0.5739(4) 0.5273(3) -0.1518(3)
H22A H -0.5372 0.5682 -0.1635
C35A C -0.6778(4) 0.5176(3) -0.1851(3)
H23A H -0.7145 0.5523 -0.2194
C36A C -0.7287(4) 0.4564(2) -0.1681(3)
H24A H -0.7995 0.4494 -0.1931
loop_
_geom_bond_atom_site_label_1
_geom_bond_atom_site_label_2
_geom_bond_site_symmetry_1
_geom_bond_site_symmetry_2
Br1 Cu1 1_555 1_555
Br2 Cu1A 1_555 1_555
Br3 Cu1 1_555 1_555
Br4 Cu5 1_555 1_555
Br5 Cu5 1_555 1_555
Br6 Cu6 1_555 1_555
Cu1 Br2A 1_555 1_555
Cu2 Br1 1_555 1_555
Cu3 N2 1_555 1_555
Cu4 N4 1_555 1_555
Cu5 N6 1_555 1_555
Cu6 Br4 1_555 1_555
N1 Cu2 1_555 1_555
N2 C6 1_555 1_555
N3 Cu3 1_555 1_555
N4 C13 1_555 1_555
N5 Cu4 1_555 1_555
N6 C20 1_555 1_555
N7 Cu4 1_555 1_555
N8 Cu4 1_555 1_555
N9 Cu5 1_555 1_555
C1 N1 1_555 1_555
H1 C1 1_555 1_555
C2 C1 1_555 1_555
H2 C2 1_555 1_555
C3 C2 1_555 1_555
H3 C3 1_555 1_555
C4 C3 1_555 1_555
H4 C4 1_555 1_555
C5 N1 1_555 1_555
C6 C5 1_555 1_555
C7 N2 1_555 1_555
C8 N3 1_555 1_555
C9 C8 1_555 1_555
H5 C9 1_555 1_555
C10 C9 1_555 1_555
H6 C10 1_555 1_555
C11 C10 1_555 1_555
H7 C11 1_555 1_555
C12 N3 1_555 1_555
H8 C12 1_555 1_555
C13 H9 1_555 1_555
C14 C13 1_555 1_555
H10 C14 1_555 1_555
C15 C14 1_555 1_555
H11 C15 1_555 1_555
C16 C15 1_555 1_555
H12 C16 1_555 1_555
C17 N4 1_555 1_555
C18 N5 1_555 1_555
C19 N5 1_555 1_555
C20 C19 1_555 1_555
C21 C20 1_555 1_555
H13 C21 1_555 1_555
C22 C21 1_555 1_555
H14 C22 1_555 1_555
C23 C22 1_555 1_555
H15 C23 1_555 1_555
C24 N6 1_555 1_555
H16 C24 1_555 1_555
C25 N7 1_555 1_555
H17 C25 1_555 1_555
C26 C25 1_555 1_555
H18 C26 1_555 1_555
C27 C26 1_555 1_555
H19 C27 1_555 1_555
C28 C27 1_555 1_555
H20 C28 1_555 1_555
C29 N7 1_555 1_555
C30 N8 1_555 1_555
C31 N8 1_555 1_555
C32 N9 1_555 1_555
C33 C32 1_555 1_555
H21 C33 1_555 1_555
C34 C33 1_555 1_555
H22 C34 1_555 1_555
C35 C34 1_555 1_555
H23 C35 1_555 1_555
C36 N9 1_555 1_555
H24 C36 1_555 1_555
Br1A Cu2 1_555 1_555
Br4A Cu5A 1_555 1_555
Br5A Cu5A 1_555 1_555
Br5A_2 Cu6 1_555 1_555
Br5_2 Cu6A 1_555 1_555
Br6_2 Cu6A 1_555 1_555
Cu1A Br3 1_555 1_555
Cu4A N4A 1_555 1_555
Cu4A_2 N7A 1_555 1_555
Cu5A N6A 1_555 1_555
Cu5A_2 N9A 1_555 1_555
Cu6A Br4A 1_555 1_555
Cu6A_2 Br5 1_555 1_555
Cu6_2 Br5A 1_555 1_555
N1A Cu2 1_555 1_555
N2A Cu3 1_555 1_555
N3A Cu3 1_555 1_555
N4A C13A 1_555 1_555
N5A Cu4A 1_555 1_555
N6A C20A 1_555 1_555
N7A C25A 1_555 1_555
N7A_2 Cu4A 1_555 1_555
N8A Cu4A_2 1_555 1_555
N8A_2 Cu4A 1_555 1_555
N9A C32A 1_555 1_555
N9A_2 Cu5A 1_555 1_555
C1A N1A 1_555 1_555
H1A C1A 1_555 1_555
C2A C1A 1_555 1_555
H2A C2A 1_555 1_555
C3A C2A 1_555 1_555
H3A C3A 1_555 1_555
C4A C3A 1_555 1_555
H4A C4A 1_555 1_555
C5A N1A 1_555 1_555
C6A N2A 1_555 1_555
C7A N2A 1_555 1_555
C8A N3A 1_555 1_555
C9A C8A 1_555 1_555
H5A C9A 1_555 1_555
C10A C9A 1_555 1_555
H6A C10A 1_555 1_555
C11A C10A 1_555 1_555
H7A C11A 1_555 1_555
C12A N3A 1_555 1_555
H8A C12A 1_555 1_555
C13A H9A 1_555 1_555
C14A C13A 1_555 1_555
H10A C14A 1_555 1_555
C15A C14A 1_555 1_555
H11A C15A 1_555 1_555
C16A C15A 1_555 1_555
H12A C16A 1_555 1_555
C17A N4A 1_555 1_555
C18A N5A 1_555 1_555
C19A N5A 1_555 1_555
C20A C19A 1_555 1_555
C21A C20A 1_555 1_555
H13A C21A 1_555 1_555
C22A C21A 1_555 1_555
H14A C22A 1_555 1_555
C23A C22A 1_555 1_555
H15A C23A 1_555 1_555
C24A N6A 1_555 1_555
H16A C24A 1_555 1_555
C25A H17A 1_555 1_555
C26A C25A 1_555 1_555
H18A C26A 1_555 1_555
C27A C26A 1_555 1_555
H19A C27A 1_555 1_555
C28A C27A 1_555 1_555
H20A C28A 1_555 1_555
C29A N7A 1_555 1_555
C30A C30 1_555 1_555
C31A C31 1_555 1_555
C32A C31A 1_555 1_555
C33A C32A 1_555 1_555
H21A C33A 1_555 1_555
C34A C33A 1_555 1_555
H22A C34A 1_555 1_555
C35A C34A 1_555 1_555
H23A C35A 1_555 1_555
C36A N9A 1_555 1_555
H24A C36A 1_555 1_555
Br6 Cu6A_2 1_555 1_555
C4 C5 1_555 1_555
C6 C18 1_555 1_555
C7 C8 1_555 1_555
C7 C19 1_555 1_555
C11 C12 1_555 1_555
C16 C17 1_555 1_555
C17 C18 1_555 1_555
C23 C24 1_555 1_555
C28 C29 1_555 1_555
C29 C30 1_555 1_555
C31 C32 1_555 1_555
C35 C36 1_555 1_555
Br1A Cu1A 1_555 1_555
Br6_2 Cu6_2 1_555 1_555
N8A C30A 1_555 1_555
N8A C31A 1_555 1_555
C4A C5A 1_555 1_555
C5A C6A 1_555 1_555
C6A C18A 1_555 1_555
C7A C8A 1_555 1_555
C7A C19A 1_555 1_555
C11A C12A 1_555 1_555
C16A C17A 1_555 1_555
C17A C18A 1_555 1_555
C23A C24A 1_555 1_555
C28A C29A 1_555 1_555
C29A C30A 1_555 1_555
C35A C36A 1_555 1_555

#END
