
#######################################################################
#
#                 Cambridge Crystallographic Data Centre
#                                CCDC 
#
#######################################################################
#
# If this CIF has been generated from an entry in the Cambridge 
# Structural Database, then it will include bibliographic, chemical, 
# crystal, experimental, refinement or atomic coordinate data resulting 
# from the CCDC's data processing and validation procedures.
#
#######################################################################

data_NEDTUM
_symmetry_cell_setting           monoclinic
_symmetry_space_group_name_H-M   'P 21/n'
_symmetry_Int_Tables_number      14
_space_group_name_Hall           '-P 2yn'
loop_
_symmetry_equiv_pos_site_id
_symmetry_equiv_pos_as_xyz
1 x,y,z
2 1/2-x,1/2+y,1/2-z
3 -x,-y,-z
4 1/2+x,1/2-y,1/2+z
_cell_length_a                   11.0026(8)
_cell_length_b                   7.3776(6)
_cell_length_c                   26.0860(19)
_cell_angle_alpha                90
_cell_angle_beta                 101.198(2)
_cell_angle_gamma                90
_cell_volume                     2077.16
loop_
_atom_site_label
_atom_site_type_symbol
_atom_site_fract_x
_atom_site_fract_y
_atom_site_fract_z
Ag1 Ag 0.58025(4) 1.30048(7) 1.155551(14)
N1 N 0.6225(4) 1.2406(6) 1.23852(15)
N2 N 0.8089(3) 0.9308(5) 1.40624(14)
N3 N 1.0129(4) 0.7129(6) 1.42547(16)
C1 C 0.6730(4) 1.1009(7) 1.34061(18)
C2 C 0.7701(5) 0.8774(8) 1.4915(2)
H1 H 0.7949 0.8262 1.5244
C3 C 1.1242(5) 0.6292(8) 1.4347(2)
H2 H 1.1572 0.5910 1.4063
C4 C 0.5318(4) 1.1852(8) 1.26243(19)
H3 H 0.4505 1.1931 1.2442
C5 C 0.5521(4) 1.1171(8) 1.31270(19)
H4 H 0.4857 1.0824 1.3277
C6 C 0.9654(4) 0.7671(7) 1.46598(18)
C7 C 0.8432(4) 0.8627(7) 1.45455(18)
C8 C 0.7667(4) 1.1649(7) 1.31658(19)
H5 H 0.8486 1.1616 1.3343
C9 C 0.7382(5) 1.2332(8) 1.2664(2)
H6 H 0.8024 1.2762 1.2512
C10 C 0.6594(5) 0.9694(9) 1.4788(2)
H7 H 0.6096 0.9826 1.5036
C11 C 1.1906(5) 0.5978(8) 1.4840(2)
H8 H 1.2677 0.5417 1.4890
C12 C 1.0280(5) 0.7391(7) 1.51727(19)
H9 H 0.9939 0.7793 1.5452
C13 C 0.6217(5) 1.0426(8) 1.4291(2)
H10 H 0.5465 1.1031 1.4197
C14 C 1.1401(5) 0.6518(7) 1.5262(2)
H11 H 1.1817 0.6291 1.5601
C15 C 0.7013(4) 1.0215(7) 1.39400(18)
Ag1A Ag 0.91975(4) 0.80048(7) 1.344449(14)
N2A N 0.6911(3) 1.4308(5) 1.09376(14)
N3A N 0.4871(4) 1.2129(6) 1.07453(16)
C16 C 0.3425(6) 1.7169(12) 1.2027(3)
S1 S 0.31407(12) 1.5780(2) 1.14559(5)
O1 O 0.4144(4) 1.6163(9) 1.12127(17)
O2 O 0.1968(4) 1.6317(10) 1.11808(19)
O3 O 0.3212(6) 1.3969(8) 1.1673(2)
F1 F 0.3422(8) 1.8905(9) 1.1904(3)
F2 F 0.2598(5) 1.6941(11) 1.23236(19)
F3 F 0.4514(4) 1.6848(9) 1.23228(17)
N4 N 0.9690(16) 1.0740(17) 1.1122(12)
O4 O 0.931(3) 1.015(3) 1.0780(8)
O5 O 0.8881(14) 1.079(3) 1.1285(14)
C17 C 1.0758(8) 1.1183(19) 1.1358(4)
H12 H 1.1353 1.0875 1.1148
H13 H 1.0952 1.0548 1.1685
H14 H 1.0782 1.2466 1.1422
loop_
_geom_bond_atom_site_label_1
_geom_bond_atom_site_label_2
_geom_bond_site_symmetry_1
_geom_bond_site_symmetry_2
Ag1 N1 1_555 1_555
N1 C4 1_555 1_555
N2 C7 1_555 1_555
N3 C3 1_555 1_555
C1 C5 1_555 1_555
C2 H1 1_555 1_555
C3 H2 1_555 1_555
C4 H3 1_555 1_555
C5 C4 1_555 1_555
H4 C5 1_555 1_555
C6 N3 1_555 1_555
C7 C2 1_555 1_555
C8 C1 1_555 1_555
H5 C8 1_555 1_555
C9 N1 1_555 1_555
H6 C9 1_555 1_555
C10 C2 1_555 1_555
H7 C10 1_555 1_555
C11 C3 1_555 1_555
H8 C11 1_555 1_555
C12 C6 1_555 1_555
H9 C12 1_555 1_555
C13 C10 1_555 1_555
H10 C13 1_555 1_555
C14 C11 1_555 1_555
H11 C14 1_555 1_555
C15 N2 1_555 1_555
C16 S1 1_555 1_555
S1 O1 1_555 1_555
O2 S1 1_555 1_555
O3 S1 1_555 1_555
F1 C16 1_555 1_555
F2 C16 1_555 1_555
F3 C16 1_555 1_555
N4 O4 1_555 1_555
O5 N4 1_555 1_555
C17 N4 1_555 1_555
H12 C17 1_555 1_555
H13 C17 1_555 1_555
H14 C17 1_555 1_555
Ag1A N2 1_555 1_555
N2A Ag1 1_555 1_555
N3A Ag1 1_555 1_555
N3 Ag1A 1_555 1_555
C1 C15 1_555 1_555
C6 C7 1_555 1_555
C8 C9 1_555 1_555
C12 C14 1_555 1_555
C13 C15 1_555 1_555

#END
