
#######################################################################
#
#                 Cambridge Crystallographic Data Centre
#                                CCDC 
#
#######################################################################
#
# If this CIF has been generated from an entry in the Cambridge 
# Structural Database, then it will include bibliographic, chemical, 
# crystal, experimental, refinement or atomic coordinate data resulting 
# from the CCDC's data processing and validation procedures.
#
#######################################################################

data_NEDWAV
_symmetry_cell_setting           monoclinic
_symmetry_space_group_name_H-M   'P 21/n'
_symmetry_Int_Tables_number      14
_space_group_name_Hall           '-P 2yn'
loop_
_symmetry_equiv_pos_site_id
_symmetry_equiv_pos_as_xyz
1 x,y,z
2 1/2-x,1/2+y,1/2-z
3 -x,-y,-z
4 1/2+x,1/2-y,1/2+z
_cell_length_a                   8.834(2)
_cell_length_b                   17.739(3)
_cell_length_c                   12.511(3)
_cell_angle_alpha                90.00
_cell_angle_beta                 110.52(2)
_cell_angle_gamma                90.00
_cell_volume                     1836.16
loop_
_atom_site_label
_atom_site_type_symbol
_atom_site_fract_x
_atom_site_fract_y
_atom_site_fract_z
Cd1 Cd 0.25332(7) 0.18966(3) 0.36190(5)
S1 S 0.4302(3) 0.12390(12) 0.56776(18)
S2 S 0.1765(4) 0.43441(13) 0.5350(3)
N1 N 0.5956(9) 0.2459(5) 0.6964(7)
N2 N 0.2241(10) 0.2934(5) 0.4561(7)
N3 N 0.4989(8) 0.2633(4) 0.3546(5)
N4 N 0.4070(9) 0.1267(4) 0.2666(6)
N5 N 0.1283(10) 0.0710(4) 0.2731(7)
N6 N 0.0206(9) 0.1434(4) 0.4212(6)
C1 C 0.5265(9) 0.1974(5) 0.6419(7)
C2 C 0.2072(10) 0.3526(4) 0.4901(7)
C3 C 0.5550(12) 0.3281(5) 0.4043(9)
H1 H 0.5020 0.3502 0.4488
C4 C 0.6875(13) 0.3658(6) 0.3947(11)
H2 H 0.7218 0.4120 0.4302
C5 C 0.7658(12) 0.3311(6) 0.3297(9)
H3 H 0.8585 0.3527 0.3237
C6 C 0.7084(11) 0.2665(6) 0.2754(8)
H4 H 0.7564 0.2444 0.2278
C7 C 0.5770(10) 0.2331(5) 0.2912(7)
C8 C 0.5213(11) 0.1571(5) 0.2436(7)
H5 H 0.5694 0.1325 0.1980
C9 C 0.3623(13) 0.0466(6) 0.2284(9)
H6 H 0.4038 0.0336 0.1686
H7 H 0.4095 0.0124 0.2920
C10 C 0.1875(14) 0.0395(6) 0.1863(9)
H8 H 0.1567 -0.0131 0.1727
H9 H 0.1411 0.0668 0.1150
C11 C 0.0104(11) 0.0440(6) 0.2935(9)
H10 H -0.0396 0.0009 0.2547
C12 C -0.0508(10) 0.0778(5) 0.3759(7)
C13 C -0.1689(12) 0.0411(7) 0.4051(10)
H11 H -0.2114 -0.0049 0.3723
C14 C -0.2206(13) 0.0750(7) 0.4839(11)
H12 H -0.3018 0.0531 0.5048
C15 C -0.1513(12) 0.1424(8) 0.5326(9)
H13 H -0.1869 0.1660 0.5860
C16 C -0.0316(11) 0.1746(6) 0.5032(7)
H14 H 0.0164 0.2187 0.5395
Cd1C Cd 0.75332(7) 0.31034(3) 0.86190(5)
N1C N 0.0956(9) 0.2541(5) 0.1964(7)
loop_
_geom_bond_atom_site_label_1
_geom_bond_atom_site_label_2
_geom_bond_site_symmetry_1
_geom_bond_site_symmetry_2
Cd1 S1 1_555 1_555
S1 C1 1_555 1_555
S2 C2 1_555 1_555
N1 C1 1_555 1_555
N2 Cd1 1_555 1_555
N3 Cd1 1_555 1_555
N4 Cd1 1_555 1_555
N5 Cd1 1_555 1_555
N6 Cd1 1_555 1_555
C2 N2 1_555 1_555
C3 N3 1_555 1_555
H1 C3 1_555 1_555
C4 C3 1_555 1_555
H2 C4 1_555 1_555
C5 C4 1_555 1_555
H3 C5 1_555 1_555
C6 C5 1_555 1_555
H4 C6 1_555 1_555
C7 N3 1_555 1_555
C8 N4 1_555 1_555
H5 C8 1_555 1_555
C9 N4 1_555 1_555
H6 C9 1_555 1_555
H7 C9 1_555 1_555
C10 N5 1_555 1_555
H8 C10 1_555 1_555
H9 C10 1_555 1_555
C11 N5 1_555 1_555
H10 C11 1_555 1_555
C12 N6 1_555 1_555
C13 C12 1_555 1_555
H11 C13 1_555 1_555
C14 C13 1_555 1_555
H12 C14 1_555 1_555
C15 C14 1_555 1_555
H13 C15 1_555 1_555
C16 N6 1_555 1_555
H14 C16 1_555 1_555
Cd1C N1 1_555 1_555
N1C Cd1 1_555 1_555
C6 C7 1_555 1_555
C7 C8 1_555 1_555
C9 C10 1_555 1_555
C11 C12 1_555 1_555
C15 C16 1_555 1_555

#END
