
#######################################################################
#
#                 Cambridge Crystallographic Data Centre
#                                CCDC 
#
#######################################################################
#
# If this CIF has been generated from an entry in the Cambridge 
# Structural Database, then it will include bibliographic, chemical, 
# crystal, experimental, refinement or atomic coordinate data resulting 
# from the CCDC's data processing and validation procedures.
#
#######################################################################

data_NEDXOJ03
_symmetry_cell_setting           monoclinic
_symmetry_space_group_name_H-M   'P 21'
_symmetry_Int_Tables_number      4
_space_group_name_Hall           'P 2yb'
loop_
_symmetry_equiv_pos_site_id
_symmetry_equiv_pos_as_xyz
1 x,y,z
2 -x,1/2+y,-z
_cell_length_a                   11.099(5)
_cell_length_b                   8.413(3)
_cell_length_c                   11.385(5)
_cell_angle_alpha                90
_cell_angle_beta                 115.618(6)
_cell_angle_gamma                90
_cell_volume                     958.58
loop_
_atom_site_label
_atom_site_type_symbol
_atom_site_fract_x
_atom_site_fract_y
_atom_site_fract_z
Co1 Co 0.14590(3) 0.81142(4) 0.58941(3)
N1 N 0.1558(2) 0.8207(5) 0.7839(2)
C1 C 0.1366(3) 0.8075(6) 1.1521(2)
O1 O 0.05996(19) 1.2900(3) 0.47186(19)
C2 C 0.1447(3) 0.8145(6) 1.0246(2)
O2 O 0.1917(3) 0.5648(3) 0.6057(2)
O3 O 0.3491(2) 0.8558(3) 0.6771(2)
O4 O 0.1096(2) 1.0576(3) 0.5707(2)
C3 C 0.0862(3) 0.9288(4) 0.8149(3)
H1 H 0.0402 1.0090 0.7530
C4 C 0.2420(3) 0.7457(5) 1.2619(3)
H2 H 0.3191 0.7049 1.2562
C5 C 0.0775(4) 0.9299(5) 0.9314(3)
H3 H 0.0261 1.0090 0.9485
C6 C 0.2195(4) 0.7050(5) 0.9941(3)
H4 H 0.2677 0.6244 1.0547
C7 C 0.2238(4) 0.7136(5) 0.8736(3)
H5 H 0.2778 0.6396 0.8550
C8 C 0.0248(3) 0.8558(4) 1.1666(3)
H6 H -0.0514 0.8941 1.0936
C9 C 0.0242(3) 0.8483(4) 1.2865(3)
H7 H -0.0537 0.8826 1.2940
C10 C 0.3935(3) 0.9930(4) 0.6732(3)
O5 O 0.4691(3) 1.0696(4) 0.7709(3)
C11 C 0.2334(3) 0.7444(5) 1.3786(3)
H8 H 0.3075 0.7048 1.4530
C12 C 0.3605(3) 1.0678(4) 0.5427(3)
C13 C 0.4552(3) 1.0500(5) 0.4928(4)
H9 H 0.5351 0.9928 0.5420
N2 N 0.1274(2) 0.7953(4) 1.3937(2)
C14 C 0.2284(3) 1.2233(5) 0.3530(3)
H10 H 0.1518 1.2869 0.3059
C15 C 0.3210(4) 1.2012(5) 0.3041(4)
H11 H 0.3068 1.2460 0.2225
C16 C 0.4356(4) 1.1127(5) 0.3751(4)
H12 H 0.4998 1.0960 0.3421
C17 C 0.2450(3) 1.1537(4) 0.4709(3)
C18 C 0.1312(3) 1.1667(3) 0.5091(3)
Co1_2 Co 0.14590(3) 0.81142(4) 1.58941(3)
Co1A Co -0.14590(3) 1.31142(4) 0.41059(3)
O1A O -0.05996(19) 0.7900(3) 0.52814(19)
N2_2 N 0.1274(2) 0.7953(4) 0.3937(2)
O6 O 0.3915(4) 0.3883(6) 0.7905(4)
O7 O 0.3807(7) 0.3578(10) 1.0287(7)
O8 O 0.5862(8) 0.5528(12) 0.9935(8)
loop_
_geom_bond_atom_site_label_1
_geom_bond_atom_site_label_2
_geom_bond_site_symmetry_1
_geom_bond_site_symmetry_2
Co1 N1 1_555 1_555
N1 C3 1_555 1_555
C1 C2 1_555 1_555
O1 C18 1_555 1_555
C2 C5 1_555 1_555
O2 Co1 1_555 1_555
O3 Co1 1_555 1_555
O4 Co1 1_555 1_555
C3 H1 1_555 1_555
C4 C1 1_555 1_555
H2 C4 1_555 1_555
C5 C3 1_555 1_555
H3 C5 1_555 1_555
C6 C2 1_555 1_555
H4 C6 1_555 1_555
C7 N1 1_555 1_555
H5 C7 1_555 1_555
C8 C1 1_555 1_555
H6 C8 1_555 1_555
C9 C8 1_555 1_555
H7 C9 1_555 1_555
C10 O3 1_555 1_555
O5 C10 1_555 1_555
C11 C4 1_555 1_555
H8 C11 1_555 1_555
C12 C10 1_555 1_555
C13 C12 1_555 1_555
H9 C13 1_555 1_555
N2 C9 1_555 1_555
C14 H10 1_555 1_555
C15 C14 1_555 1_555
H11 C15 1_555 1_555
C16 C13 1_555 1_555
H12 C16 1_555 1_555
C17 C12 1_555 1_555
C18 O4 1_555 1_555
Co1_2 N2 1_555 1_555
Co1A O1 1_555 1_555
O1A Co1 1_555 1_555
N2_2 Co1 1_555 1_555
C6 C7 1_555 1_555
C11 N2 1_555 1_555
C14 C17 1_555 1_555
C15 C16 1_555 1_555
C17 C18 1_555 1_555

#END
