
#######################################################################
#
#                 Cambridge Crystallographic Data Centre
#                                CCDC 
#
#######################################################################
#
# If this CIF has been generated from an entry in the Cambridge 
# Structural Database, then it will include bibliographic, chemical, 
# crystal, experimental, refinement or atomic coordinate data resulting 
# from the CCDC's data processing and validation procedures.
#
#######################################################################

data_NEDXOJ
_symmetry_cell_setting           monoclinic
_symmetry_space_group_name_H-M   'P 2/n'
_symmetry_Int_Tables_number      13
_space_group_name_Hall           '-P 2yac'
loop_
_symmetry_equiv_pos_site_id
_symmetry_equiv_pos_as_xyz
1 x,y,z
2 1/2-x,y,1/2-z
3 -x,-y,-z
4 1/2+x,-y,1/2+z
_cell_length_a                   7.596(3)
_cell_length_b                   11.300(3)
_cell_length_c                   10.788(4)
_cell_angle_alpha                90
_cell_angle_beta                 92.29(3)
_cell_angle_gamma                90
_cell_volume                     925.246
loop_
_atom_site_label
_atom_site_type_symbol
_atom_site_fract_x
_atom_site_fract_y
_atom_site_fract_z
Co1 Co -0.2500 -0.27977(7) -0.2500
N1 N -0.2500 0.5310(5) -0.2500
C1 C 0.1291(6) -0.2735(4) -0.3608(4)
N2 N -0.2500 -0.0921(5) -0.2500
C2 C -0.1845(6) -0.0293(4) -0.1522(5)
O1 O -0.0343(4) -0.2912(3) -0.3713(3)
C3 C -0.3977(7) 0.4688(5) -0.2723(5)
O2 O -0.4148(6) -0.2819(3) -0.4133(4)
O3 O 0.2417(4) -0.3414(3) -0.4001(4)
C4 C -0.2500 0.1554(6) -0.2500
C5 C 0.1911(6) -0.1590(4) -0.3022(4)
C6 C -0.1816(7) 0.0911(5) -0.1496(5)
C7 C 0.3609(7) -0.0516(5) -0.1472(5)
C8 C -0.2500 0.2849(6) -0.2500
C9 C -0.4034(7) 0.3492(5) -0.2746(5)
C10 C 0.3059(7) 0.0518(5) -0.1959(6)
H1 H -0.343(6) -0.071(4) -0.419(5)
H2 H 0.159(8) 0.119(7) -0.337(6)
H3 H -0.515(9) -0.303(5) -0.409(5)
H4 H -0.356(8) 0.133(6) -0.413(6)
H5 H -0.505(8) 0.314(5) -0.288(6)
H6 H -0.371(10) -0.321(7) -0.463(7)
H7 H -0.497(8) 0.511(4) -0.290(5)
H8 H 0.071(7) -0.051(5) -0.422(5)
Co1_2 Co -0.2500 0.72023(7) -0.2500
N1_2 N -0.2500 -0.4690(5) -0.2500
C5A C 0.3089(6) -0.1590(4) -0.1978(4)
C1A C 0.3709(6) -0.2735(4) -0.1392(4)
O1A O 0.5343(4) -0.2912(3) -0.1287(3)
Co1_3 Co 0.7500 -0.27977(7) -0.2500
O3A O 0.2583(4) -0.3414(3) -0.0999(4)
C10A C 0.1941(7) 0.0518(5) -0.3041(6)
C7A C 0.1391(7) -0.0516(5) -0.3528(5)
H2A H 0.341(8) 0.119(7) -0.163(6)
H8A H 0.429(7) -0.051(5) -0.078(5)
O1A_2 O -0.4657(4) -0.2912(3) -0.1287(3)
O2A O -0.0852(6) -0.2819(3) -0.0867(4)
C2A C -0.3155(6) -0.0293(4) -0.3478(5)
C6A C -0.3184(7) 0.0911(5) -0.3504(5)
H1A H -0.157(6) -0.071(4) -0.081(5)
H4A H -0.144(8) 0.133(6) -0.087(6)
C9A C -0.0966(7) 0.3492(5) -0.2254(5)
C3A C -0.1023(7) 0.4688(5) -0.2277(5)
H7A H -0.003(8) 0.511(4) -0.210(5)
H5A H 0.005(8) 0.314(5) -0.212(6)
H3A H 0.015(9) -0.303(5) -0.091(5)
H6A H -0.129(10) -0.321(7) -0.037(7)
O4 O -0.2153(6) 0.5882(6) -0.5639(4)
H9 H -0.134(10) 0.600(5) -0.515(6)
H10 H -0.216(9) 0.535(5) -0.563(6)
loop_
_geom_bond_atom_site_label_1
_geom_bond_atom_site_label_2
_geom_bond_site_symmetry_1
_geom_bond_site_symmetry_2
Co1 N2 1_555 1_555
N1 C3 1_555 1_555
C1 O1 1_555 1_555
N2 C2 1_555 1_555
C2 C6 1_555 1_555
O1 Co1 1_555 1_555
C3 C9 1_555 1_555
O2 Co1 1_555 1_555
O3 C1 1_555 1_555
C4 C6 1_555 1_555
C5 C1 1_555 1_555
C6 H4A 1_555 1_555
C7 C10 1_555 1_555
C8 C4 1_555 1_555
C9 C8 1_555 1_555
C10 C10A 1_555 1_555
H1 C2A 1_555 1_555
H2 C10A 1_555 1_555
H3 O2 1_555 1_555
H4 C6A 1_555 1_555
H5 C9 1_555 1_555
H6 O2 1_555 1_555
H7 C3 1_555 1_555
H8 C7A 1_555 1_555
O4 H9 1_555 1_555
H10 O4 1_555 1_555
Co1_2 N1 1_555 1_555
N1_2 Co1 1_555 1_555
C5A C5 1_555 1_555
C1A C5A 1_555 1_555
O1A C1A 1_555 1_555
Co1_3 O1A 1_555 1_555
O3A C1A 1_555 1_555
C10A C7A 1_555 1_555
C7A C5 1_555 1_555
H2A C10 1_555 1_555
H8A C7 1_555 1_555
O1A_2 Co1 1_555 1_555
O2A Co1 1_555 1_555
C2A N2 1_555 1_555
C6A C4 1_555 1_555
H1A C2 1_555 1_555
C9A C8 1_555 1_555
C3A N1 1_555 1_555
H7A C3A 1_555 1_555
H5A C9A 1_555 1_555
H3A O2A 1_555 1_555
H6A O2A 1_555 1_555
C7 C5A 1_555 1_555
C2A C6A 1_555 1_555
C9A C3A 1_555 1_555

#END
