
#######################################################################
#
#                 Cambridge Crystallographic Data Centre
#                                CCDC 
#
#######################################################################
#
# If this CIF has been generated from an entry in the Cambridge 
# Structural Database, then it will include bibliographic, chemical, 
# crystal, experimental, refinement or atomic coordinate data resulting 
# from the CCDC's data processing and validation procedures.
#
#######################################################################

data_NEDXEZ
_symmetry_cell_setting           monoclinic
_symmetry_space_group_name_H-M   'P 2/n'
_symmetry_Int_Tables_number      13
_space_group_name_Hall           '-P 2yac'
loop_
_symmetry_equiv_pos_site_id
_symmetry_equiv_pos_as_xyz
1 x,y,z
2 1/2+x,-y,1/2+z
3 -x,-y,-z
4 1/2-x,y,1/2-z
_cell_length_a                   7.790(4)
_cell_length_b                   11.647(2)
_cell_length_c                   10.6990(10)
_cell_angle_alpha                90
_cell_angle_beta                 92.59(2)
_cell_angle_gamma                90
_cell_volume                     969.73
loop_
_atom_site_label
_atom_site_type_symbol
_atom_site_fract_x
_atom_site_fract_y
_atom_site_fract_z
Cd1 Cd 0.2500 -0.223040(17) 0.2500
N1 N 0.2500 0.5811(3) 0.2500
N2 N 0.2500 -0.0256(3) 0.2500
O1 O 0.0734(3) -0.22203(15) 0.0694(2)
O2 O 0.0212(2) -0.20483(18) 0.3832(2)
C1 C 0.1757(3) 0.5212(2) 0.1549(2)
C2 C 0.1721(3) 0.4028(2) 0.1518(2)
O3 O -0.2495(2) -0.15304(18) 0.4000(2)
C3 C 0.2500 0.2141(3) 0.2500
C4 C 0.2500 0.3412(3) 0.2500
C5 C 0.0983(3) 0.1524(2) 0.2315(3)
C6 C 0.1040(3) 0.0337(2) 0.2339(3)
C7 C -0.1952(3) -0.3316(2) 0.3032(2)
C8 C -0.1369(4) -0.2212(2) 0.3664(3)
C9 C -0.3559(4) -0.4361(3) 0.1437(3)
C10 C -0.3030(4) -0.5396(3) 0.1956(3)
H1 H 0.500(4) -0.012(3) 0.274(3)
H2 H -0.004(4) 0.191(3) 0.221(3)
H3 H 0.123(5) 0.363(4) 0.089(3)
H4 H -0.070(5) -0.433(3) 0.428(3)
H5 H 0.123(4) 0.565(3) 0.087(3)
H6 H -0.029(5) -0.205(3) 0.076(3)
H7 H 0.126(4) -0.180(3) 0.024(3)
H9 H -0.158(5) -0.610(4) 0.343(3)
C2C C 0.3279(3) 0.4028(2) 0.3482(2)
C1C C 0.3243(3) 0.5212(2) 0.3451(2)
H5C H 0.377(4) 0.565(3) 0.413(3)
H3C H 0.377(5) 0.363(4) 0.411(3)
Cd1_2 Cd 0.2500 0.776960(17) 0.2500
N1_2 N 0.2500 -0.4189(3) 0.2500
O1C O 0.4266(3) -0.22203(15) 0.4306(2)
H6C H 0.529(5) -0.205(3) 0.424(3)
H7C H 0.374(4) -0.180(3) 0.476(3)
C7C C -0.3048(3) -0.3316(2) 0.1968(2)
C8C C -0.3631(4) -0.2212(2) 0.1336(3)
O2C O -0.5212(2) -0.20483(18) 0.1168(2)
Cd1_3 Cd -0.7500 -0.223040(17) 0.2500
O3C O -0.2505(2) -0.15304(18) 0.1000(2)
C10C C -0.1970(4) -0.5396(3) 0.3044(3)
C9C C -0.1441(4) -0.4361(3) 0.3563(3)
H9C H -0.342(5) -0.610(4) 0.157(3)
H4C H -0.430(5) -0.433(3) 0.072(3)
O2C_2 O 0.4788(2) -0.20483(18) 0.1168(2)
C6C C 0.3960(3) 0.0337(2) 0.2661(3)
C5C C 0.4017(3) 0.1524(2) 0.2685(3)
H2C H 0.504(4) 0.191(3) 0.279(3)
H1C H 0.000(4) -0.012(3) 0.226(3)
O4 O 0.2793(3) 0.9126(2) -0.0670(2)
H8 H 0.378(6) 0.899(4) -0.013(4)
H10 H 0.291(7) 0.987(5) -0.070(5)
loop_
_geom_bond_atom_site_label_1
_geom_bond_atom_site_label_2
_geom_bond_site_symmetry_1
_geom_bond_site_symmetry_2
Cd1 N2 1_555 1_555
N1 C1 1_555 1_555
N2 C6 1_555 1_555
O1 Cd1 1_555 1_555
O2 Cd1 1_555 1_555
C1 C2 1_555 1_555
C2 C4 1_555 1_555
O3 C8 1_555 1_555
C3 C4 1_555 1_555
O4 H8 1_555 1_555
C4 C2C 1_555 1_555
C5 C3 1_555 1_555
C6 C5 1_555 1_555
C7 C8 1_555 1_555
C8 O2 1_555 1_555
C9 C10 1_555 1_555
C10 C10C 1_555 1_555
H1 C6C 1_555 1_555
H2 C5 1_555 1_555
H3 C2 1_555 1_555
H4 C9C 1_555 1_555
H5 C1 1_555 1_555
H6 O1 1_555 1_555
H7 O1 1_555 1_555
H9 C10C 1_555 1_555
H10 O4 1_555 1_555
C2C C1C 1_555 1_555
C1C N1 1_555 1_555
H5C C1C 1_555 1_555
H3C C2C 1_555 1_555
Cd1_2 N1 1_555 1_555
N1_2 Cd1 1_555 1_555
O1C Cd1 1_555 1_555
H6C O1C 1_555 1_555
H7C O1C 1_555 1_555
C7C C7 1_555 1_555
C8C C7C 1_555 1_555
O2C C8C 1_555 1_555
Cd1_3 O2C 1_555 1_555
O3C C8C 1_555 1_555
C10C C9C 1_555 1_555
C9C C7 1_555 1_555
H9C C10 1_555 1_555
H4C C9 1_555 1_555
O2C_2 Cd1 1_555 1_555
C6C N2 1_555 1_555
C5C C3 1_555 1_555
H2C C5C 1_555 1_555
H1C C6 1_555 1_555
C9 C7C 1_555 1_555
C6C C5C 1_555 1_555

#END
