
#######################################################################
#
#                 Cambridge Crystallographic Data Centre
#                                CCDC 
#
#######################################################################
#
# If this CIF has been generated from an entry in the Cambridge 
# Structural Database, then it will include bibliographic, chemical, 
# crystal, experimental, refinement or atomic coordinate data resulting 
# from the CCDC's data processing and validation procedures.
#
#######################################################################

data_NEFWAW
_symmetry_cell_setting           triclinic
_symmetry_space_group_name_H-M   'P -1'
_symmetry_Int_Tables_number      2
_space_group_name_Hall           '-P 1'
loop_
_symmetry_equiv_pos_site_id
_symmetry_equiv_pos_as_xyz
1 x,y,z
2 -x,-y,-z
_cell_length_a                   7.521(2)
_cell_length_b                   10.928(4)
_cell_length_c                   11.749(4)
_cell_angle_alpha                90.10(2)
_cell_angle_beta                 97.84(2)
_cell_angle_gamma                95.12(2)
_cell_volume                     952.707
loop_
_atom_site_label
_atom_site_type_symbol
_atom_site_fract_x
_atom_site_fract_y
_atom_site_fract_z
Pb1 Pb 0.2206(1) 0.4638(1) 0.4012(1)
O1 O -0.0367(6) 0.3700(4) 0.5287(4)
C1 C 0.0249(8) 0.2772(5) 0.5784(5)
O2 O 0.3238(6) 0.2504(4) 0.5236(4)
C2 C 0.1906(8) 0.2234(6) 0.5720(6)
C3 C 0.1362(10) 0.1272(7) 0.6524(7)
N1 N 0.2067(10) 0.0326(6) 0.6999(7)
C4 C -0.0355(9) 0.1809(6) 0.6548(7)
O3 O -0.1690(8) 0.1561(5) 0.7038(6)
C5 C 0.3877(15) 0.0006(10) 0.6802(11)
C6 C 0.3902(25) -0.0967(12) 0.6148(19)
C7 C 0.1077(13) -0.0457(8) 0.7757(9)
C8 C -0.0175(16) -0.1309(10) 0.7110(10)
O4 O 0.6024(6) 0.4621(4) 0.4129(3)
C9 C 0.6244(8) 0.4345(5) 0.3137(5)
O5 O 0.3255(6) 0.3635(5) 0.2063(4)
C10 C 0.4915(9) 0.3871(6) 0.2172(5)
C11 C 0.6354(7) 0.3891(5) 0.1435(5)
N2 N 0.6400(8) 0.3639(6) 0.0355(4)
C12 C 0.7678(8) 0.4370(6) 0.2389(5)
O6 O 0.9330(6) 0.4703(5) 0.2483(4)
C13 C 0.4732(11) 0.3158(8) -0.0367(6)
C14 C 0.4288(17) 0.1808(10) -0.0237(11)
C15 C 0.8046(11) 0.3897(9) -0.0162(7)
C16 C 0.9081(17) 0.2868(16) -0.0335(13)
O7 O 0.3740(6) 0.6551(4) 0.3268(4)
H1 H 0.4506 -0.0207 0.7531
H2 H 0.4528 0.0712 0.6521
H3 H 0.5094 -0.1160 0.6053
H4 H 0.3257 -0.1670 0.6438
H5 H 0.3279 -0.0745 0.5420
H6 H 0.0440 0.0050 0.8201
H7 H 0.1898 -0.0890 0.8272
H8 H -0.0862 -0.1833 0.7578
H9 H -0.0975 -0.0858 0.6599
H10 H 0.0488 -0.1801 0.6670
H11 H 0.4861 0.3300 -0.1159
H12 H 0.3746 0.3590 -0.0188
H13 H 0.3199 0.1518 -0.0722
H14 H 0.5266 0.1376 -0.0428
H15 H 0.4141 0.1668 0.0552
H16 H 0.8826 0.4494 0.0312
H17 H 0.7743 0.4256 -0.0900
H18 H 1.0146 0.3108 -0.0677
H19 H 0.9415 0.2515 0.0402
H20 H 0.8321 0.2273 -0.0824
H21 H 0.3214(59) 0.7259(24) 0.3171(52)
H22 H 0.4916(25) 0.6719(44) 0.3537(65)
Pb1A Pb -0.2206(1) 0.5362(1) 0.5988(1)
O1A O 0.0367(6) 0.6300(4) 0.4713(4)
Pb1A_2 Pb 0.7794(1) 0.5362(1) 0.5988(1)
Pb1_2 Pb 1.2206(1) 0.4638(1) 0.4012(1)
O4A O 0.3976(6) 0.5379(4) 0.5871(3)
O6_2 O -0.0670(6) 0.4703(5) 0.2483(4)
loop_
_geom_bond_atom_site_label_1
_geom_bond_atom_site_label_2
_geom_bond_site_symmetry_1
_geom_bond_site_symmetry_2
Pb1 O1 1_555 1_555
O1 C1 1_555 1_555
C1 C2 1_555 1_555
O2 Pb1 1_555 1_555
C2 O2 1_555 1_555
C3 C2 1_555 1_555
N1 C3 1_555 1_555
C4 C1 1_555 1_555
O3 C4 1_555 1_555
C5 N1 1_555 1_555
C6 C5 1_555 1_555
C7 N1 1_555 1_555
C8 C7 1_555 1_555
O4 Pb1 1_555 1_555
C9 O4 1_555 1_555
O5 Pb1 1_555 1_555
C10 C9 1_555 1_555
C11 C10 1_555 1_555
N2 C11 1_555 1_555
C12 C9 1_555 1_555
O6 C12 1_555 1_555
C13 N2 1_555 1_555
C14 C13 1_555 1_555
C15 N2 1_555 1_555
C16 C15 1_555 1_555
O7 Pb1 1_555 1_555
H1 C5 1_555 1_555
H2 C5 1_555 1_555
H3 C6 1_555 1_555
H4 C6 1_555 1_555
H5 C6 1_555 1_555
H6 C7 1_555 1_555
H7 C7 1_555 1_555
H8 C8 1_555 1_555
H9 C8 1_555 1_555
H10 C8 1_555 1_555
H11 C13 1_555 1_555
H12 C13 1_555 1_555
H13 C14 1_555 1_555
H14 C14 1_555 1_555
H15 C14 1_555 1_555
H16 C15 1_555 1_555
H17 C15 1_555 1_555
H18 C16 1_555 1_555
H19 C16 1_555 1_555
H20 C16 1_555 1_555
H21 O7 1_555 1_555
H22 O7 1_555 1_555
Pb1A O1 1_555 1_555
O1A Pb1 1_555 1_555
Pb1A_2 O4 1_555 1_555
Pb1_2 O6 1_555 1_555
O4A Pb1 1_555 1_555
O6_2 Pb1 1_555 1_555
C3 C4 1_555 1_555
O5 C10 1_555 1_555
C11 C12 1_555 1_555
Pb1A O1A 1_555 1_555
Pb1A_2 O4A 1_555 1_555

#END
