
#######################################################################
#
#                 Cambridge Crystallographic Data Centre
#                                CCDC 
#
#######################################################################
#
# If this CIF has been generated from an entry in the Cambridge 
# Structural Database, then it will include bibliographic, chemical, 
# crystal, experimental, refinement or atomic coordinate data resulting 
# from the CCDC's data processing and validation procedures.
#
#######################################################################

data_NEGFAI
_symmetry_cell_setting           monoclinic
_symmetry_space_group_name_H-M   'C 2'
_symmetry_Int_Tables_number      5
_space_group_name_Hall           'C 2y'
loop_
_symmetry_equiv_pos_site_id
_symmetry_equiv_pos_as_xyz
1 x,y,z
2 -x,y,-z
3 1/2+x,1/2+y,z
4 1/2-x,1/2+y,-z
_cell_length_a                   25.142(2)
_cell_length_b                   7.5241(5)
_cell_length_c                   19.878(2)
_cell_angle_alpha                90
_cell_angle_beta                 108.876(6)
_cell_angle_gamma                90
_cell_volume                     3558.11
loop_
_atom_site_label
_atom_site_type_symbol
_atom_site_fract_x
_atom_site_fract_y
_atom_site_fract_z
Cu1 Cu 0.28522(3) 0.89670(8) 0.00646(3)
Cu2 Cu 0.78296(3) 1.02030(9) 0.50764(3)
O1 O 0.30225(14) 0.8167(6) 0.10284(18)
O2 O 0.6815(2) 0.8454(9) 0.5402(3)
O3 O 0.70290(16) 1.0726(8) 0.4818(2)
O4 O -0.19957(14) 1.0941(7) -0.39509(19)
O5 O 0.20433(15) 0.8517(7) -0.01898(19)
O6 O 0.18644(17) 1.0945(7) 0.0334(2)
N1 N 0.26991(16) 0.9758(8) -0.0948(2)
H1 H 0.2466 0.8986 -0.1247
H2 H 0.2536 1.0836 -0.1014
N2 N 0.36133(18) 0.9823(7) 0.0198(2)
N3 N -0.23348(16) 0.9338(8) -0.5927(2)
H3 H -0.2618 0.8543 -0.6032
H4 H -0.2442 1.0256 -0.6231
N4 N -0.13927(17) 0.9715(7) -0.4839(2)
C1 C 0.32410(19) 0.9832(8) -0.1088(2)
H5 H 0.3363 0.8615 -0.1136
C2 C 0.3217(2) 1.0879(11) -0.1762(3)
H6 H 0.2948 1.0324 -0.2173
H7 H 0.3090 1.2082 -0.1725
C3 C 0.3789(2) 1.0930(8) -0.1860(3)
H8 H 0.3897 0.9738 -0.1950
H9 H 0.3771 1.1661 -0.2269
C4 C 0.4225(2) 1.1677(9) -0.1206(3)
H10 H 0.4142 1.2921 -0.1159
H11 H 0.4591 1.1610 -0.1269
C5 C 0.4248(2) 1.0705(11) -0.0525(3)
H12 H 0.4375 0.9494 -0.0542
H13 H 0.4513 1.1294 -0.0120
C6 C 0.36691(19) 1.0693(7) -0.0442(2)
H14 H 0.3556 1.1936 -0.0430
C7 C 0.4010(2) 0.9809(9) 0.0779(3)
H15 H 0.4352 1.0279 0.0778
C8 C 0.3984(2) 0.9127(10) 0.1448(3)
C9 C 0.3497(2) 0.8385(9) 0.1553(3)
C10 C 0.3546(2) 0.7857(9) 0.2253(3)
H16 H 0.3241 0.7306 0.2333
C11 C 0.4025(2) 0.8123(9) 0.2818(3)
H17 H 0.4029 0.7804 0.3271
C12 C 0.4518(2) 0.8877(10) 0.2730(3)
C13 C 0.4472(2) 0.9327(10) 0.2037(3)
H18 H 0.4789 0.9797 0.1956
C14 C 0.50498(19) 0.9165(9) 0.3325(3)
C15 C 0.5149(2) 0.8527(11) 0.4008(3)
H19 H 0.4858 0.7962 0.4117
C16 C 0.5664(2) 0.8698(11) 0.4535(3)
H20 H 0.5714 0.8243 0.4986
C17 C 0.6101(2) 0.9536(9) 0.4395(3)
C18 C 0.6006(2) 1.0308(12) 0.3738(3)
H21 H 0.6289 1.0964 0.3646
C19 C 0.5494(2) 1.0107(13) 0.3220(3)
H22 H 0.5440 1.0624 0.2778
C20 C 0.6687(3) 0.9582(10) 0.4924(3)
C21 C -0.1826(2) 0.8501(7) -0.6004(2)
H23 H -0.1809 0.7279 -0.5828
C22 C -0.1829(3) 0.8409(10) -0.6777(3)
H24 H -0.2156 0.7757 -0.7066
H25 H -0.1843 0.9598 -0.6971
C23 C -0.1290(2) 0.7465(9) -0.6783(3)
H26 H -0.1296 0.6247 -0.6626
H27 H -0.1278 0.7436 -0.7266
C24 C -0.0773(2) 0.8360(9) -0.6315(3)
H28 H -0.0739 0.9520 -0.6510
H29 H -0.0446 0.7665 -0.6308
C25 C -0.0781(2) 0.8587(11) -0.5551(3)
H30 H -0.0745 0.7433 -0.5323
H31 H -0.0464 0.9311 -0.5283
C26 C -0.13181(19) 0.9454(7) -0.5542(2)
H32 H -0.1325 1.0639 -0.5749
C27 C -0.0974(2) 0.9721(9) -0.4251(3)
H33 H -0.0621 0.9473 -0.4281
C28 C -0.1009(2) 1.0077(10) -0.3556(3)
C29 C -0.1510(2) 1.0676(9) -0.3447(3)
C30 C -0.1473(2) 1.1019(9) -0.2732(3)
H34 H -0.1793 1.1382 -0.2633
C31 C -0.0973(2) 1.0830(9) -0.2176(3)
H35 H -0.0965 1.1098 -0.1716
C32 C -0.0479(2) 1.0245(9) -0.2290(3)
C33 C -0.0519(2) 0.9926(9) -0.2984(3)
H36 H -0.0194 0.9585 -0.3076
C34 C 0.0064(2) 1.0033(9) -0.1707(3)
C35 C 0.0168(2) 1.0777(9) -0.1030(3)
H37 H -0.0120 1.1363 -0.0924
C36 C 0.0693(2) 1.0657(10) -0.0515(3)
H38 H 0.0753 1.1206 -0.0077
C37 C 0.1133(2) 0.9733(8) -0.0638(3)
C38 C 0.1029(2) 0.8921(11) -0.1292(3)
H39 H 0.1312 0.8276 -0.1387
C39 C 0.0500(2) 0.9063(11) -0.1812(3)
H40 H 0.0439 0.8487 -0.2244
C40 C 0.1727(2) 0.9748(9) -0.0115(3)
Cu2_2 Cu -0.21704(3) 1.02030(9) -0.49236(3)
O4_2 O 0.80043(14) 1.0941(7) 0.60491(19)
N3_2 N 0.76652(16) 0.9338(8) 0.4073(2)
H3_2 H 0.7382 0.8543 0.3968
H4_2 H 0.7558 1.0256 0.3769
N4_2 N 0.86073(17) 0.9715(7) 0.5161(2)
O7 O 0.7446(2) 0.7907(9) 0.6759(2)
O8 O 0.2513(2) 0.6103(10) -0.1748(3)
loop_
_geom_bond_atom_site_label_1
_geom_bond_atom_site_label_2
_geom_bond_site_symmetry_1
_geom_bond_site_symmetry_2
Cu1 O1 1_555 1_555
Cu2 O3 1_555 1_555
O1 C9 1_555 1_555
O2 C20 1_555 1_555
O3 C20 1_555 1_555
O4 C29 1_555 1_555
O5 Cu1 1_555 1_555
O6 C40 1_555 1_555
N1 Cu1 1_555 1_555
H1 N1 1_555 1_555
H2 N1 1_555 1_555
N2 Cu1 1_555 1_555
N3 H3 1_555 1_555
H4 N3 1_555 1_555
N4 C26 1_555 1_555
C1 N1 1_555 1_555
H5 C1 1_555 1_555
C2 C1 1_555 1_555
H6 C2 1_555 1_555
H7 C2 1_555 1_555
C3 C2 1_555 1_555
H8 C3 1_555 1_555
H9 C3 1_555 1_555
C4 C3 1_555 1_555
H10 C4 1_555 1_555
H11 C4 1_555 1_555
C5 C4 1_555 1_555
H12 C5 1_555 1_555
H13 C5 1_555 1_555
C6 N2 1_555 1_555
H14 C6 1_555 1_555
C7 N2 1_555 1_555
H15 C7 1_555 1_555
C8 C7 1_555 1_555
C9 C8 1_555 1_555
C10 C9 1_555 1_555
H16 C10 1_555 1_555
C11 C10 1_555 1_555
H17 C11 1_555 1_555
C12 C11 1_555 1_555
C13 C8 1_555 1_555
H18 C13 1_555 1_555
C14 C12 1_555 1_555
C15 C14 1_555 1_555
H19 C15 1_555 1_555
C16 C15 1_555 1_555
H20 C16 1_555 1_555
C17 C16 1_555 1_555
C18 C17 1_555 1_555
H21 C18 1_555 1_555
C19 C14 1_555 1_555
H22 C19 1_555 1_555
C20 C17 1_555 1_555
C21 N3 1_555 1_555
H23 C21 1_555 1_555
C22 C21 1_555 1_555
H24 C22 1_555 1_555
H25 C22 1_555 1_555
C23 C22 1_555 1_555
H26 C23 1_555 1_555
H27 C23 1_555 1_555
C24 C23 1_555 1_555
H28 C24 1_555 1_555
H29 C24 1_555 1_555
C25 C24 1_555 1_555
H30 C25 1_555 1_555
H31 C25 1_555 1_555
C26 C21 1_555 1_555
H32 C26 1_555 1_555
C27 N4 1_555 1_555
H33 C27 1_555 1_555
C28 C27 1_555 1_555
C29 C28 1_555 1_555
C30 C29 1_555 1_555
H34 C30 1_555 1_555
C31 C30 1_555 1_555
H35 C31 1_555 1_555
C32 C31 1_555 1_555
C33 C28 1_555 1_555
H36 C33 1_555 1_555
C34 C32 1_555 1_555
C35 C34 1_555 1_555
H37 C35 1_555 1_555
C36 C35 1_555 1_555
H38 C36 1_555 1_555
C37 C36 1_555 1_555
C38 C37 1_555 1_555
H39 C38 1_555 1_555
C39 C34 1_555 1_555
H40 C39 1_555 1_555
C40 O5 1_555 1_555
Cu2_2 O4 1_555 1_555
O4_2 Cu2 1_555 1_555
N3_2 Cu2 1_555 1_555
H3_2 N3_2 1_555 1_555
H4_2 N3_2 1_555 1_555
N4_2 Cu2 1_555 1_555
N3 Cu2_2 1_555 1_555
N4 Cu2_2 1_555 1_555
C1 C6 1_555 1_555
C5 C6 1_555 1_555
C12 C13 1_555 1_555
C18 C19 1_555 1_555
C25 C26 1_555 1_555
C32 C33 1_555 1_555
C37 C40 1_555 1_555
C38 C39 1_555 1_555

#END
