
#######################################################################
#
#                 Cambridge Crystallographic Data Centre
#                                CCDC 
#
#######################################################################
#
# If this CIF has been generated from an entry in the Cambridge 
# Structural Database, then it will include bibliographic, chemical, 
# crystal, experimental, refinement or atomic coordinate data resulting 
# from the CCDC's data processing and validation procedures.
#
#######################################################################

data_NEGMOC
_symmetry_cell_setting           orthorhombic
_symmetry_space_group_name_H-M   'P b c n'
_symmetry_Int_Tables_number      60
_space_group_name_Hall           '-P 2n 2ab'
loop_
_symmetry_equiv_pos_site_id
_symmetry_equiv_pos_as_xyz
1 x,y,z
2 1/2-x,1/2-y,1/2+z
3 -x,y,1/2-z
4 1/2+x,1/2-y,-z
5 -x,-y,-z
6 1/2+x,1/2+y,1/2-z
7 x,-y,1/2+z
8 1/2-x,1/2+y,z
_cell_length_a                   25.571(2)
_cell_length_b                   26.472(2)
_cell_length_c                   11.7944(9)
_cell_angle_alpha                90
_cell_angle_beta                 90
_cell_angle_gamma                90
_cell_volume                     7983.81
loop_
_atom_site_label
_atom_site_type_symbol
_atom_site_fract_x
_atom_site_fract_y
_atom_site_fract_z
Ru1 Ru 0.245478(15) 0.382022(15) 0.49441(3)
Ru2 Ru 0.0000 0.36663(2) -0.2500
Gd1 Gd 0.360273(10) 0.278867(9) 0.16840(2)
N1 N 0.20575(16) 0.43057(15) 0.6083(3)
N2 N 0.26215(16) 0.45367(16) 0.4232(4)
N3 N 0.14004(18) 0.37096(17) 0.3517(4)
N4 N 0.3520(2) 0.3831(2) 0.6343(6)
N5 N 0.30901(18) 0.32345(17) 0.3092(4)
N6 N 0.38723(17) 0.37305(17) 0.1369(4)
N7 N 0.43224(17) 0.31521(17) 0.3000(4)
N8 N 0.2994(2) 0.21133(17) 0.1226(4)
N9 N 0.43002(17) 0.21708(16) 0.1419(4)
N10 N 0.03272(16) 0.42876(16) -0.3373(3)
N11 N 0.08820(19) 0.35873(17) -0.0595(4)
C1 C 0.1767(2) 0.4191(2) 0.6960(4)
H1 H 0.1720 0.3844 0.7142
C2 C 0.1521(2) 0.4553(2) 0.7647(4)
H2 H 0.1322 0.4452 0.8288
C3 C 0.1573(2) 0.5055(2) 0.7381(4)
H3 H 0.1409 0.5306 0.7836
C4 C 0.1868(2) 0.5196(2) 0.6432(4)
C5 C 0.21077(19) 0.48088(19) 0.5800(4)
C6 C 0.1923(2) 0.5709(2) 0.6057(5)
H4 H 0.1757 0.5972 0.6471
C7 C 0.2203(2) 0.5824(2) 0.5131(5)
H5 H 0.2233 0.6167 0.4897
C8 C 0.2460(2) 0.5435(2) 0.4490(5)
C9 C 0.24101(19) 0.49256(19) 0.4829(4)
C10 C 0.2749(2) 0.5534(2) 0.3492(5)
H6 H 0.2795 0.5871 0.3231
C11 C 0.2962(2) 0.5138(2) 0.2910(5)
H7 H 0.3158 0.5200 0.2240
C12 C 0.2893(2) 0.4643(2) 0.3295(4)
H8 H 0.3044 0.4374 0.2876
C13 C 0.1787(2) 0.37632(18) 0.4014(4)
C14 C 0.3134(2) 0.3838(2) 0.5866(5)
C15 C 0.2844(2) 0.34384(18) 0.3783(4)
C16 C 0.3702(2) 0.4015(2) 0.0520(5)
H9 H 0.3521 0.3855 -0.0085
C17 C 0.3773(2) 0.4533(2) 0.0467(6)
H10 H 0.3660 0.4716 -0.0182
C18 C 0.4005(2) 0.4780(2) 0.1339(6)
H11 H 0.4044 0.5137 0.1319
C19 C 0.4185(2) 0.4501(2) 0.2276(5)
C20 C 0.4121(2) 0.3971(2) 0.2237(4)
C21 C 0.4430(2) 0.4726(2) 0.3236(6)
H12 H 0.4452 0.5083 0.3288
C22 C 0.4632(2) 0.4437(2) 0.4074(5)
H13 H 0.4783 0.4597 0.4716
C23 C 0.4622(2) 0.3899(2) 0.4019(5)
C24 C 0.4355(2) 0.3661(2) 0.3108(5)
C25 C 0.4876(2) 0.3591(3) 0.4793(5)
H14 H 0.5051 0.3736 0.5424
C26 C 0.4875(2) 0.3075(2) 0.4651(5)
H15 H 0.5065 0.2860 0.5146
C27 C 0.4580(2) 0.2881(2) 0.3745(5)
H16 H 0.4566 0.2524 0.3665
C28 C 0.2794(2) 0.17874(19) 0.0735(4)
C29 C 0.4581(2) 0.18633(19) 0.1747(4)
C30 C 0.0621(2) 0.4282(2) -0.4300(4)
H17 H 0.0731 0.3964 -0.4587
C31 C 0.0779(2) 0.4721(2) -0.4881(5)
H18 H 0.0986 0.4698 -0.5548
C32 C 0.0628(2) 0.5180(2) -0.4464(5)
H19 H 0.0731 0.5482 -0.4840
C33 C 0.0319(2) 0.5206(2) -0.3476(5)
C34 C 0.01683(18) 0.47496(18) -0.2979(4)
C35 C -0.0149(2) 0.56689(19) -0.2030(5)
H20 H 0.0249 0.5981 -0.3303
C36 C 0.0565(2) 0.36410(19) -0.1269(5)
O1 O 0.28625(14) 0.31537(13) 0.0699(3)
H21 H 0.2867 0.3504 0.0484
H22 H 0.2564 0.2948 0.0522
O2 O 0.38287(18) 0.27989(15) -0.0294(3)
H23 H 0.3944 0.3107 -0.0642
H24 H 0.3804 0.2495 -0.0736
O3 O 0.35482(15) 0.22785(14) 0.3420(3)
H25 H 0.3448 0.2433 0.3867
H26 H 0.3441 0.1932 0.3379
Ru1A Ru 0.254522(15) 0.117978(15) -0.00559(3)
Ru1_2 Ru 0.245478(15) 0.382022(15) -0.50559(3)
Ru2A Ru 0.5000 0.13337(2) 0.2500
Gd1A Gd 0.139727(10) 0.221133(9) -0.33160(2)
N1A N 0.29425(16) 0.06943(15) 0.1083(3)
N2A N 0.23785(16) 0.04633(16) -0.0768(4)
N3A N 0.35996(18) 0.12904(17) -0.1483(4)
N4A N 0.1480(2) 0.1169(2) 0.1343(6)
N5A N 0.19099(18) 0.17655(17) -0.1908(4)
N6A N 0.11277(17) 0.12695(17) -0.3631(4)
N7A N 0.06776(17) 0.18479(17) -0.2000(4)
N8A N 0.2006(2) 0.28867(17) -0.3774(4)
N9A N 0.06998(17) 0.28292(16) -0.3581(4)
N10B N -0.03272(16) 0.42876(16) -0.1627(3)
N11B N -0.08820(19) 0.35873(17) -0.4405(4)
C1A C 0.3233(2) 0.0809(2) 0.1960(4)
H1A H 0.3280 0.1156 0.2142
C2A C 0.3479(2) 0.0447(2) 0.2647(4)
H2A H 0.3678 0.0548 0.3288
C3A C 0.3427(2) -0.0055(2) 0.2381(4)
H3A H 0.3591 -0.0306 0.2836
C4A C 0.3132(2) -0.0196(2) 0.1432(4)
C5A C 0.28923(19) 0.01912(19) 0.0800(4)
C6A C 0.3077(2) -0.0709(2) 0.1057(5)
H4A H 0.3243 -0.0972 0.1471
C7A C 0.2797(2) -0.0824(2) 0.0131(5)
H5A H 0.2767 -0.1167 -0.0103
C8A C 0.2540(2) -0.0435(2) -0.0510(5)
C9A C 0.25899(19) 0.00744(19) -0.0171(4)
C10A C 0.2251(2) -0.0534(2) -0.1508(5)
H6A H 0.2205 -0.0871 -0.1769
C11A C 0.2038(2) -0.0138(2) -0.2090(5)
H7A H 0.1842 -0.0200 -0.2760
C12A C 0.2107(2) 0.0357(2) -0.1705(4)
H8A H 0.1956 0.0626 -0.2124
C13A C 0.3213(2) 0.12368(18) -0.0986(4)
C14A C 0.1866(2) 0.1162(2) 0.0866(5)
C15A C 0.2156(2) 0.15616(18) -0.1217(4)
C16A C 0.1298(2) 0.0985(2) -0.4480(5)
H9A H 0.1479 0.1145 -0.5085
C17A C 0.1227(2) 0.0467(2) -0.4533(6)
H10A H 0.1340 0.0284 -0.5182
C18A C 0.0995(2) 0.0220(2) -0.3661(6)
H11A H 0.0956 -0.0137 -0.3681
C19A C 0.0815(2) 0.0499(2) -0.2724(5)
C20A C 0.0879(2) 0.1029(2) -0.2763(4)
C21A C 0.0570(2) 0.0274(2) -0.1764(6)
H12A H 0.0548 -0.0083 -0.1712
C22A C 0.0368(2) 0.0563(2) -0.0926(5)
H13A H 0.0217 0.0403 -0.0284
C23A C 0.0378(2) 0.1101(2) -0.0981(5)
C24A C 0.0645(2) 0.1339(2) -0.1892(5)
C25A C 0.0124(2) 0.1409(3) -0.0207(5)
H14A H -0.0051 0.1264 0.0424
C26A C 0.0125(2) 0.1925(2) -0.0349(5)
H15A H -0.0065 0.2140 0.0146
C27A C 0.0420(2) 0.2119(2) -0.1255(5)
H16A H 0.0434 0.2476 -0.1335
C28A C 0.2206(2) 0.32126(19) 0.5735(4)
C28A_2 C 0.2206(2) 0.32126(19) -0.4265(4)
C29A C 0.0419(2) 0.31367(19) -0.3253(4)
C29C C -0.0419(2) 0.31367(19) -0.1747(4)
C30B C -0.0621(2) 0.4282(2) -0.0700(4)
H17B H -0.0731 0.3964 -0.0413
C31B C -0.0779(2) 0.4721(2) -0.0119(5)
H18B H -0.0986 0.4698 0.0548
C32B C -0.0628(2) 0.5180(2) -0.0536(5)
H19B H -0.0731 0.5482 -0.0160
C33B C -0.0319(2) 0.5206(2) -0.1524(5)
C34B C -0.01683(18) 0.47496(18) -0.2021(4)
C35B C 0.0149(2) 0.56689(19) -0.2970(5)
H20B H -0.0249 0.5981 -0.1697
C36B C -0.0565(2) 0.36410(19) -0.3731(5)
O1A O 0.21375(14) 0.18463(13) -0.4301(3)
H21A H 0.2133 0.1496 -0.4516
H22A H 0.2436 0.2052 -0.4478
O2A O 0.11713(18) 0.22011(15) -0.5294(3)
H23A H 0.1056 0.1893 -0.5642
H24A H 0.1196 0.2505 -0.5736
O3A O 0.14518(15) 0.27215(14) -0.1580(3)
H25A H 0.1552 0.2567 -0.1133
H26A H 0.1559 0.3068 -0.1621
O4 O 0.30251(19) 0.20386(19) 0.6943(4)
H27 H 0.2956 0.2269 0.6464
H28 H 0.3338 0.2083 0.7166
O5 O 0.06250(17) 0.29493(16) 0.3508(3)
H29 H 0.0701 0.2690 0.3899
H30 H 0.0906 0.3114 0.3400
O6 O 0.36552(16) 0.26813(16) 0.5639(4)
H31 H 0.3687 0.2563 0.4962
H32 H 0.3845 0.2937 0.5692
loop_
_geom_bond_atom_site_label_1
_geom_bond_atom_site_label_2
_geom_bond_site_symmetry_1
_geom_bond_site_symmetry_2
Ru1 N1 1_555 1_555
Ru2 N10 1_555 1_555
Gd1 N5 1_555 1_555
N1 C1 1_555 1_555
N2 Ru1 1_555 1_555
N3 C13 1_555 1_555
N4 C14 1_555 1_555
N5 C15 1_555 1_555
N6 Gd1 1_555 1_555
N7 Gd1 1_555 1_555
N8 Gd1 1_555 1_555
N9 Gd1 1_555 1_555
N10 C30 1_555 1_555
N11 C36 1_555 1_555
C1 H1 1_555 1_555
C2 C1 1_555 1_555
H2 C2 1_555 1_555
C3 C2 1_555 1_555
H3 C3 1_555 1_555
C4 C3 1_555 1_555
C5 N1 1_555 1_555
C6 C4 1_555 1_555
H4 C6 1_555 1_555
C7 C6 1_555 1_555
H5 C7 1_555 1_555
C8 C7 1_555 1_555
C9 N2 1_555 1_555
C10 C8 1_555 1_555
H6 C10 1_555 1_555
C11 C10 1_555 1_555
H7 C11 1_555 1_555
C12 N2 1_555 1_555
H8 C12 1_555 1_555
C13 Ru1 1_555 1_555
C14 Ru1 1_555 1_555
C15 Ru1 1_555 1_555
C16 N6 1_555 1_555
H9 C16 1_555 1_555
C17 C16 1_555 1_555
H10 C17 1_555 1_555
C18 C17 1_555 1_555
H11 C18 1_555 1_555
C19 C18 1_555 1_555
C20 N6 1_555 1_555
C21 C19 1_555 1_555
H12 C21 1_555 1_555
C22 C21 1_555 1_555
H13 C22 1_555 1_555
C23 C22 1_555 1_555
C24 N7 1_555 1_555
C25 C23 1_555 1_555
H14 C25 1_555 1_555
C26 C25 1_555 1_555
H15 C26 1_555 1_555
C27 N7 1_555 1_555
H16 C27 1_555 1_555
C28 N8 1_555 1_555
C29 N9 1_555 1_555
C30 H17 1_555 1_555
C31 C30 1_555 1_555
H18 C31 1_555 1_555
C32 C31 1_555 1_555
H19 C32 1_555 1_555
C33 C32 1_555 1_555
C34 N10 1_555 1_555
C35 C33B 1_555 1_555
H20 C35B 1_555 1_555
C36 Ru2 1_555 1_555
O1 Gd1 1_555 1_555
H21 O1 1_555 1_555
H22 O1 1_555 1_555
O2 Gd1 1_555 1_555
H23 O2 1_555 1_555
H24 O2 1_555 1_555
O3 Gd1 1_555 1_555
H25 O3 1_555 1_555
H26 O3 1_555 1_555
O4 H27 1_555 1_555
H28 O4 1_555 1_555
O5 H29 1_555 1_555
H30 O5 1_555 1_555
O6 H31 1_555 1_555
H32 O6 1_555 1_555
Ru1A C28 1_555 1_555
Ru1_2 C28A_2 1_555 1_555
Ru2A C29 1_555 1_555
Gd1A N5A 1_555 1_555
N1A Ru1A 1_555 1_555
N2A Ru1A 1_555 1_555
N3A C13A 1_555 1_555
N4A C14A 1_555 1_555
N5A C15A 1_555 1_555
N6A Gd1A 1_555 1_555
N7A Gd1A 1_555 1_555
N8A Gd1A 1_555 1_555
N9A Gd1A 1_555 1_555
N10B Ru2 1_555 1_555
N11B C36B 1_555 1_555
C1A N1A 1_555 1_555
H1A C1A 1_555 1_555
C2A C1A 1_555 1_555
H2A C2A 1_555 1_555
C3A C2A 1_555 1_555
H3A C3A 1_555 1_555
C4A C3A 1_555 1_555
C5A N1A 1_555 1_555
C6A C4A 1_555 1_555
H4A C6A 1_555 1_555
C7A C6A 1_555 1_555
H5A C7A 1_555 1_555
C8A C7A 1_555 1_555
C9A N2A 1_555 1_555
C10A C8A 1_555 1_555
H6A C10A 1_555 1_555
C11A C10A 1_555 1_555
H7A C11A 1_555 1_555
C12A N2A 1_555 1_555
H8A C12A 1_555 1_555
C13A Ru1A 1_555 1_555
C14A Ru1A 1_555 1_555
C15A Ru1A 1_555 1_555
C16A N6A 1_555 1_555
H9A C16A 1_555 1_555
C17A C16A 1_555 1_555
H10A C17A 1_555 1_555
C18A C17A 1_555 1_555
H11A C18A 1_555 1_555
C19A C18A 1_555 1_555
C20A N6A 1_555 1_555
C21A C19A 1_555 1_555
H12A C21A 1_555 1_555
C22A C21A 1_555 1_555
H13A C22A 1_555 1_555
C23A C22A 1_555 1_555
C24A N7A 1_555 1_555
C25A C23A 1_555 1_555
H14A C25A 1_555 1_555
C26A C25A 1_555 1_555
H15A C26A 1_555 1_555
C27A N7A 1_555 1_555
H16A C27A 1_555 1_555
C28A Ru1 1_555 1_555
C28A_2 N8A 1_555 1_555
C29A Ru2 1_555 1_555
C29C Ru2 1_555 1_555
C30B N10B 1_555 1_555
H17B C30B 1_555 1_555
C31B C30B 1_555 1_555
H18B C31B 1_555 1_555
C32B C31B 1_555 1_555
H19B C32B 1_555 1_555
C33B C32B 1_555 1_555
C34B C34 1_555 1_555
C35B C33 1_555 1_555
H20B C35 1_555 1_555
C36B Ru2 1_555 1_555
O1A Gd1A 1_555 1_555
H21A O1A 1_555 1_555
H22A O1A 1_555 1_555
O2A Gd1A 1_555 1_555
H23A O2A 1_555 1_555
H24A O2A 1_555 1_555
O3A Gd1A 1_555 1_555
H25A O3A 1_555 1_555
H26A O3A 1_555 1_555
C4 C5 1_555 1_555
C5 C9 1_555 1_555
C8 C9 1_555 1_555
C11 C12 1_555 1_555
C19 C20 1_555 1_555
C20 C24 1_555 1_555
C23 C24 1_555 1_555
C26 C27 1_555 1_555
C33 C34 1_555 1_555
C35 C35B 1_555 1_555
N9A C29A 1_555 1_555
N10B C34B 1_555 1_555
C4A C5A 1_555 1_555
C5A C9A 1_555 1_555
C8A C9A 1_555 1_555
C11A C12A 1_555 1_555
C19A C20A 1_555 1_555
C20A C24A 1_555 1_555
C23A C24A 1_555 1_555
C26A C27A 1_555 1_555
C33B C34B 1_555 1_555

#END
