
#######################################################################
#
#                 Cambridge Crystallographic Data Centre
#                                CCDC 
#
#######################################################################
#
# If this CIF has been generated from an entry in the Cambridge 
# Structural Database, then it will include bibliographic, chemical, 
# crystal, experimental, refinement or atomic coordinate data resulting 
# from the CCDC's data processing and validation procedures.
#
#######################################################################

data_NEGMUJ
_symmetry_cell_setting           monoclinic
_symmetry_space_group_name_H-M   'P 21/c'
_symmetry_Int_Tables_number      14
_space_group_name_Hall           '-P 2ybc'
loop_
_symmetry_equiv_pos_site_id
_symmetry_equiv_pos_as_xyz
1 x,y,z
2 -x,1/2+y,1/2-z
3 -x,-y,-z
4 x,1/2-y,1/2+z
_cell_length_a                   30.129(18)
_cell_length_b                   7.064(4)
_cell_length_c                   8.334(5)
_cell_angle_alpha                90
_cell_angle_beta                 91.414(8)
_cell_angle_gamma                90
_cell_volume                     1773.2
loop_
_atom_site_label
_atom_site_type_symbol
_atom_site_fract_x
_atom_site_fract_y
_atom_site_fract_z
Br1 Br 0.06856(2) -0.23770(9) -0.02335(7)
Br2 Br 0.43095(2) 0.75310(10) 0.31442(8)
C1 C 0.0395(2) 0.0644(8) 0.1743(7)
H1 H 0.0099 0.0362 0.1500
C2 C 0.0717(2) -0.0303(8) 0.1210(8)
C3 C 0.1155(2) 0.0400(9) 0.1679(8)
C4 C 0.1099(2) 0.2005(8) 0.2660(7)
H2 H 0.1327 0.2732 0.3110
C5 C 0.3922(2) 0.3008(9) 0.0311(7)
H3 H 0.3697 0.2200 -0.0044
C6 C 0.38287(19) 0.4722(8) 0.1122(8)
C7 C 0.4199(2) 0.5304(9) 0.1726(8)
C8 C 0.4589(2) 0.4402(9) 0.1271(7)
H4 H 0.4876 0.4753 0.1580
Co1 Co 0.24959(3) 0.24918(12) 0.13900(9)
O1 O 0.20405(14) 0.0624(6) 0.2144(5)
O2 O 0.16882(15) -0.2677(6) 0.1846(5)
H5 H 0.1819 -0.2761 0.2906
O3 O 0.17818(14) -0.0675(7) -0.0487(5)
O4 O 0.29614(14) 0.4411(6) 0.0638(4)
O5 O 0.32986(15) 0.7660(5) 0.1043(5)
H6 H 0.3403 0.7731 -0.0034
O6 O 0.32773(13) 0.5572(6) 0.3395(5)
O7 O 0.29995(14) 0.0888(7) 0.2423(5)
H7 H 0.2875 -0.0204 0.2929
H8 H 0.3199 0.0490 0.1608
O8 O 0.19684(12) 0.4154(6) 0.0447(5)
H9 H 0.1999 0.4290 -0.0691
H10 H 0.1975 0.5380 0.0943
O9 O 0.24990(14) 0.1201(5) -0.1031(5)
H11 H 0.2277 0.0461 -0.1046
H12 H 0.2726 0.0486 -0.1005
P1 P 0.16901(5) -0.0563(2) 0.12900(19)
P2 P 0.32985(5) 0.5558(2) 0.1601(2)
S1 S 0.05481(5) 0.2396(2) 0.28895(18)
S2 S 0.44466(5) 0.2519(2) 0.00317(17)
Co1C Co 0.24959(3) 0.25082(12) -0.36100(9)
O9C O 0.24990(14) 0.3799(5) 0.3969(5)
H11C H 0.2277 0.4539 0.3954
H12C H 0.2726 0.4514 0.3995
loop_
_geom_bond_atom_site_label_1
_geom_bond_atom_site_label_2
_geom_bond_site_symmetry_1
_geom_bond_site_symmetry_2
Br1 C2 1_555 1_555
Br2 C7 1_555 1_555
C1 H1 1_555 1_555
C2 C1 1_555 1_555
C3 C2 1_555 1_555
C4 C3 1_555 1_555
H2 C4 1_555 1_555
C5 H3 1_555 1_555
C6 C5 1_555 1_555
C7 C6 1_555 1_555
C8 C7 1_555 1_555
H4 C8 1_555 1_555
Co1 O1 1_555 1_555
O1 P1 1_555 1_555
O2 H5 1_555 1_555
O3 P1 1_555 1_555
O4 Co1 1_555 1_555
O5 H6 1_555 1_555
O6 P2 1_555 1_555
O7 Co1 1_555 1_555
H7 O7 1_555 1_555
H8 O7 1_555 1_555
O8 Co1 1_555 1_555
H9 O8 1_555 1_555
H10 O8 1_555 1_555
O9 Co1 1_555 1_555
H11 O9 1_555 1_555
H12 O9 1_555 1_555
P1 C3 1_555 1_555
P2 C6 1_555 1_555
S1 C1 1_555 1_555
S2 C5 1_555 1_555
Co1C O9 1_555 1_555
O9C Co1 1_555 1_555
H11C O9C 1_555 1_555
H12C O9C 1_555 1_555
C4 S1 1_555 1_555
C8 S2 1_555 1_555
O2 P1 1_555 1_555
O4 P2 1_555 1_555
O5 P2 1_555 1_555

#END
