
#######################################################################
#
#                 Cambridge Crystallographic Data Centre
#                                CCDC 
#
#######################################################################
#
# If this CIF has been generated from an entry in the Cambridge 
# Structural Database, then it will include bibliographic, chemical, 
# crystal, experimental, refinement or atomic coordinate data resulting 
# from the CCDC's data processing and validation procedures.
#
#######################################################################

data_NEGTEA
_symmetry_cell_setting           monoclinic
_symmetry_space_group_name_H-M   'C 2/c'
_symmetry_Int_Tables_number      15
_space_group_name_Hall           '-C 2yn'
loop_
_symmetry_equiv_pos_site_id
_symmetry_equiv_pos_as_xyz
1 x,y,z
2 -x,y,1/2-z
3 1/2+x,1/2+y,z
4 1/2-x,1/2+y,1/2-z
5 -x,-y,-z
6 x,-y,1/2+z
7 1/2-x,1/2-y,-z
8 1/2+x,1/2-y,1/2+z
_cell_length_a                   22.477(4)
_cell_length_b                   8.7351(17)
_cell_length_c                   15.536(3)
_cell_angle_alpha                90
_cell_angle_beta                 102.85(3)
_cell_angle_gamma                90
_cell_volume                     2973.93
loop_
_atom_site_label
_atom_site_type_symbol
_atom_site_fract_x
_atom_site_fract_y
_atom_site_fract_z
Eu1 Eu -0.247014(11) 0.85806(3) -0.883038(15)
Ni1 Ni 0.0000 0.79611(11) -0.2500
S1 S -0.35183(5) 0.95997(14) -1.08600(8)
O1 O -0.14536(18) 0.9354(5) -0.7799(2)
O2 O -0.21209(16) 0.8170(4) -0.7217(2)
O3 O -0.18900(16) 1.1474(4) -0.6393(2)
O4 O -0.20304(15) 1.1151(4) -0.5045(2)
O5 O -0.31893(18) 0.9702(5) -0.7999(2)
H1 H -0.3513 0.9223 -0.7967
H2 H -0.3112 1.0566 -0.7746
O6 O -0.33534(15) 0.9272(4) -0.9906(2)
O7 O -0.33420(19) 1.1144(4) -1.1033(3)
O8 O -0.41792(15) 0.9413(5) -1.1169(2)
O9 O 0.09334(17) 0.7845(4) -0.2273(2)
H3 H 0.1108 0.8686 -0.2259
H4 H 0.1062 0.7274 -0.1854
O10 O 0.0000 1.0368(7) -0.2500
O11 O 0.0000 0.5590(6) -0.2500
O12 O -0.23956(19) 1.1351(5) -0.8914(3)
H5 H -0.2694 1.1866 -0.9206
H6 H -0.2071 1.1805 -0.8653
O13 O -0.32056(18) 0.8539(5) -1.1341(2)
N1 N -0.0009(2) 0.7939(5) -0.3839(3)
N2 N 0.0214(2) 0.6832(5) -0.5009(3)
H7 H 0.0405 0.6280 -0.5318
C1 C -0.1610(2) 0.8809(6) -0.7143(3)
C2 C -0.1177(2) 0.8769(6) -0.6254(3)
C3 C -0.1775(2) 1.0773(6) -0.5658(3)
C4 C -0.1298(2) 0.9567(6) -0.5520(3)
C5 C -0.0942(2) 0.9360(6) -0.4682(3)
H8 H -0.1030 0.9871 -0.4201
C6 C -0.0442(2) 0.8355(6) -0.4577(3)
C7 C 0.0373(3) 0.7051(7) -0.4139(3)
H9 H 0.0719 0.6619 -0.3780
C8 C -0.0310(2) 0.7651(6) -0.5319(3)
C9 C -0.0681(2) 0.7799(6) -0.6157(3)
H10 H -0.0598 0.7266 -0.6636
H11 H -0.0278 0.5275 -0.2896
H12 H -0.0342 1.0683 -0.2732
Eu1A Eu 0.247014(11) 0.85806(3) 0.383038(15)
Eu1C Eu -0.252986(11) 1.35806(3) -0.616962(15)
Eu1E Eu -0.247014(11) 1.14194(3) -0.383038(15)
Eu1F Eu -0.252986(11) 0.64194(3) -1.116962(15)
Eu1B Eu 0.252986(11) 1.35806(3) 0.116962(15)
Eu1D Eu 0.247014(11) 1.14194(3) -0.116962(15)
S1F S -0.14817(5) 0.54003(14) -0.91400(8)
O1A O 0.14536(18) 0.9354(5) 0.2799(2)
O2A O 0.21209(16) 0.8170(4) 0.2217(2)
O3A O 0.18900(16) 1.1474(4) 0.1393(2)
O3C O -0.31100(16) 0.6474(4) -0.8607(2)
O3B O 0.31100(16) 0.6474(4) 0.3607(2)
O4A O 0.20304(15) 1.1151(4) 0.0045(2)
O4C O -0.29696(15) 0.6151(4) -0.9955(2)
O4E O -0.20304(15) 0.8849(4) -1.0045(2)
O4B O 0.29696(15) 0.6151(4) 0.4955(2)
O4D O 0.20304(15) 0.8849(4) 0.5045(2)
O5A O 0.31893(18) 0.9702(5) 0.2999(2)
H1A H 0.3513 0.9223 0.2967
H2A H 0.3112 1.0566 0.2746
O6F O -0.16466(15) 0.5728(4) -1.0094(2)
O6A O 0.33534(15) 0.9272(4) 0.4906(2)
O7F O -0.16580(19) 0.3856(4) -0.8967(3)
O8F O -0.08208(15) 0.5587(5) -0.8831(2)
O9A O -0.09334(17) 0.7845(4) -0.2727(2)
H3A H -0.1108 0.8686 -0.2741
H4A H -0.1062 0.7274 -0.3146
O12A O 0.23956(19) 1.1351(5) 0.3914(3)
H5A H 0.2694 1.1866 0.4206
H6A H 0.2071 1.1805 0.3653
O13F O -0.17944(18) 0.6461(5) -0.8659(2)
O13G O 0.17944(18) 0.6461(5) 0.3659(2)
N1A N 0.0009(2) 0.7939(5) -0.1161(3)
N2A N -0.0214(2) 0.6832(5) 0.0009(3)
H7A H -0.0405 0.6280 0.0318
C1A C 0.1610(2) 0.8809(6) 0.2143(3)
C2A C 0.1177(2) 0.8769(6) 0.1254(3)
C3A C 0.1775(2) 1.0773(6) 0.0658(3)
C4A C 0.1298(2) 0.9567(6) 0.0520(3)
C5A C 0.0942(2) 0.9360(6) -0.0318(3)
H8A H 0.1030 0.9871 -0.0799
C6A C 0.0442(2) 0.8355(6) -0.0423(3)
C7A C -0.0373(3) 0.7051(7) -0.0861(3)
H9A H -0.0719 0.6619 -0.1220
C8A C 0.0310(2) 0.7651(6) 0.0319(3)
C9A C 0.0681(2) 0.7799(6) 0.1157(3)
H10A H 0.0598 0.7266 0.1636
H11A H 0.0278 0.5275 -0.2104
H12A H 0.0342 1.0683 -0.2268
loop_
_geom_bond_atom_site_label_1
_geom_bond_atom_site_label_2
_geom_bond_site_symmetry_1
_geom_bond_site_symmetry_2
Eu1 O1 1_555 1_555
Ni1 O9 1_555 1_555
S1 O6 1_555 1_555
O1 C1 1_555 1_555
O2 Eu1 1_555 1_555
O3 C3 1_555 1_555
O4 C3 1_555 1_555
O5 Eu1 1_555 1_555
H1 O5 1_555 1_555
H2 O5 1_555 1_555
O6 Eu1 1_555 1_555
O7 S1 1_555 1_555
O8 S1 1_555 1_555
O9 H3 1_555 1_555
H4 O9 1_555 1_555
O10 Ni1 1_555 1_555
O11 Ni1 1_555 1_555
O12 Eu1 1_555 1_555
H5 O12 1_555 1_555
H6 O12 1_555 1_555
O13 S1 1_555 1_555
N1 Ni1 1_555 1_555
N2 H7 1_555 1_555
C1 O2 1_555 1_555
C2 C1 1_555 1_555
C3 C4 1_555 1_555
C4 C2 1_555 1_555
C5 C4 1_555 1_555
H8 C5 1_555 1_555
C6 N1 1_555 1_555
C7 N1 1_555 1_555
H9 C7 1_555 1_555
C8 N2 1_555 1_555
C9 C2 1_555 1_555
H10 C9 1_555 1_555
H11 O11 1_555 1_555
H12 O10 1_555 1_555
Eu1A O1A 1_555 1_555
Eu1C O3 1_555 1_555
Eu1E O4 1_555 1_555
Eu1F O13 1_555 1_555
Eu1B O3A 1_555 1_555
Eu1D O4A 1_555 1_555
S1F O6F 1_555 1_555
O1A C1A 1_555 1_555
O2A Eu1A 1_555 1_555
O3A C3A 1_555 1_555
O3C Eu1 1_555 1_555
O3B Eu1A 1_555 1_555
O4A Eu1B 1_555 1_555
O4C Eu1 1_555 1_555
O4E Eu1 1_555 1_555
O4B Eu1A 1_555 1_555
O4D Eu1A 1_555 1_555
O5A Eu1A 1_555 1_555
H1A O5A 1_555 1_555
H2A O5A 1_555 1_555
O6F Eu1F 1_555 1_555
O6A Eu1A 1_555 1_555
O7F S1F 1_555 1_555
O8F S1F 1_555 1_555
O9A Ni1 1_555 1_555
H3A O9A 1_555 1_555
H4A O9A 1_555 1_555
O12A Eu1A 1_555 1_555
H5A O12A 1_555 1_555
H6A O12A 1_555 1_555
O13F Eu1 1_555 1_555
O13G Eu1A 1_555 1_555
N1A Ni1 1_555 1_555
N2A H7A 1_555 1_555
C1A O2A 1_555 1_555
C2A C1A 1_555 1_555
C3A O4A 1_555 1_555
C4A C2A 1_555 1_555
C5A C4A 1_555 1_555
H8A C5A 1_555 1_555
C6A N1A 1_555 1_555
C7A N1A 1_555 1_555
H9A C7A 1_555 1_555
C8A N2A 1_555 1_555
C9A C2A 1_555 1_555
H10A C9A 1_555 1_555
H11A O11 1_555 1_555
H12A O10 1_555 1_555
O4 Eu1C 1_555 1_555
N2 C7 1_555 1_555
C5 C6 1_555 1_555
C6 C8 1_555 1_555
C8 C9 1_555 1_555
Eu1F O4C 1_555 1_555
Eu1F O4E 1_555 1_555
S1F O13F 1_555 1_555
N2A C7A 1_555 1_555
C3A C4A 1_555 1_555
C5A C6A 1_555 1_555
C6A C8A 1_555 1_555
C8A C9A 1_555 1_555

#END
