
#######################################################################
#
#                 Cambridge Crystallographic Data Centre
#                                CCDC 
#
#######################################################################
#
# If this CIF has been generated from an entry in the Cambridge 
# Structural Database, then it will include bibliographic, chemical, 
# crystal, experimental, refinement or atomic coordinate data resulting 
# from the CCDC's data processing and validation procedures.
#
#######################################################################

data_NEGWAX
_symmetry_cell_setting           monoclinic
_symmetry_space_group_name_H-M   'C c'
_symmetry_Int_Tables_number      9
_space_group_name_Hall           'C -2yc'
loop_
_symmetry_equiv_pos_site_id
_symmetry_equiv_pos_as_xyz
1 x,y,z
2 x,-y,1/2+z
3 1/2+x,1/2+y,z
4 1/2+x,1/2-y,1/2+z
_cell_length_a                   15.564(2)
_cell_length_b                   9.039(1)
_cell_length_c                   13.001(1)
_cell_angle_alpha                90
_cell_angle_beta                 118.10(1)
_cell_angle_gamma                90
_cell_volume                     1613.43
loop_
_atom_site_label
_atom_site_type_symbol
_atom_site_fract_x
_atom_site_fract_y
_atom_site_fract_z
Cd1 Cd 0.0000 0.2140(1) 0.5000
Cl1 Cl -0.0001(1) 0.4862(1) 0.4486(1)
Cl2 Cl -0.1644(1) 0.1859(2) 0.4823(2)
O1 O 0.1540(3) 0.1874(5) 0.5207(4)
O2 O 0.2536(3) 0.3188(5) 0.6764(3)
O3 O 0.0318(2) -0.0440(3) 0.5302(3)
O4 O 0.0461(2) 0.1127(4) -0.1264(3)
N1 N 0.2579(3) 0.2613(4) 0.3998(3)
N2 N 0.1972(3) 0.2159(4) 0.1820(4)
C1 C 0.2282(3) 0.2645(5) 0.5784(4)
C2 C 0.2975(3) 0.2942(5) 0.5278(4)
C3 C 0.3330(4) 0.3067(5) 0.3648(5)
C4 C 0.2869(3) 0.3137(5) 0.2321(4)
C5 C 0.2376(3) 0.0993(4) 0.3706(3)
C6 C 0.2248(3) 0.0731(4) 0.2471(3)
C7 C 0.1656(3) 0.3510(5) 0.3257(3)
C8 C 0.1200(3) 0.2925(5) 0.2018(4)
C9 C 0.1658(3) 0.1965(5) 0.0522(4)
C10 C 0.0727(3) 0.1111(4) -0.0193(4)
O5 O 0.0842(3) 0.2637(5) 0.7054(3)
O6 O -0.0461(2) 0.1523(4) 0.3050(3)
O3A O 0.0318(2) 0.0440(3) 0.0302(3)
Cd1A Cd 0.0000 -0.2140(1) 0.0000
O7 O -0.0890(4) 0.4990(6) 0.1688(4)
loop_
_geom_bond_atom_site_label_1
_geom_bond_atom_site_label_2
_geom_bond_site_symmetry_1
_geom_bond_site_symmetry_2
Cd1 Cl1 1_555 1_555
Cl2 Cd1 1_555 1_555
O1 Cd1 1_555 1_555
O2 C1 1_555 1_555
O3 Cd1 1_555 1_555
O4 C10 1_555 1_555
N1 C2 1_555 1_555
N2 C4 1_555 1_555
C1 O1 1_555 1_555
C2 C1 1_555 1_555
C3 N1 1_555 1_555
C4 C3 1_555 1_555
C5 N1 1_555 1_555
C6 N2 1_555 1_555
C7 N1 1_555 1_555
C8 N2 1_555 1_555
C9 N2 1_555 1_555
C10 C9 1_555 1_555
O5 Cd1 1_555 1_555
O6 Cd1 1_555 1_555
O3A C10 1_555 1_555
Cd1A O3A 1_555 1_555
C5 C6 1_555 1_555
C7 C8 1_555 1_555

#END
