
#######################################################################
#
#                 Cambridge Crystallographic Data Centre
#                                CCDC 
#
#######################################################################
#
# If this CIF has been generated from an entry in the Cambridge 
# Structural Database, then it will include bibliographic, chemical, 
# crystal, experimental, refinement or atomic coordinate data resulting 
# from the CCDC's data processing and validation procedures.
#
#######################################################################

data_NEGWIF
_symmetry_cell_setting           monoclinic
_symmetry_space_group_name_H-M   'P 21/c'
_symmetry_Int_Tables_number      14
_space_group_name_Hall           '-P 2ybc'
loop_
_symmetry_equiv_pos_site_id
_symmetry_equiv_pos_as_xyz
1 x,y,z
2 -x,1/2+y,1/2-z
3 -x,-y,-z
4 x,1/2-y,1/2+z
_cell_length_a                   11.022(5)
_cell_length_b                   9.893(4)
_cell_length_c                   15.175(7)
_cell_angle_alpha                90
_cell_angle_beta                 95.83(4)
_cell_angle_gamma                90
_cell_volume                     1646.13
loop_
_atom_site_label
_atom_site_type_symbol
_atom_site_fract_x
_atom_site_fract_y
_atom_site_fract_z
O1 O 0.0488(15) 0.3613(16) 0.3123(9)
O2 O 0.2289(13) 0.4602(18) 0.3442(10)
O3 O 0.6096(16) 0.8542(16) -0.0176(9)
O4 O 0.4324(18) 0.7531(21) -0.0560(11)
N1 N 0.2012(16) 0.6120(17) 0.1844(10)
N2 N 0.3676(19) 0.7530(18) 0.1213(11)
C1 C 0.1311(23) 0.4432(24) 0.2995(13)
C2 C 0.0987(21) 0.5310(24) 0.2161(12)
C3 C 0.1514(20) 0.6802(27) 0.0953(11)
C4 C 0.2474(18) 0.7826(25) 0.0699(15)
C5 C 0.2432(20) 0.7278(23) 0.2500(13)
C6 C 0.3623(23) 0.7912(30) 0.2208(14)
C7 C 0.3105(21) 0.5279(23) 0.1714(16)
C8 C 0.3983(23) 0.6063(24) 0.1222(12)
C9 C 0.4749(23) 0.8364(29) 0.0928(14)
C10 C 0.5070(25) 0.8091(37) -0.0003(17)
Cd1 Cd 0.2040(2) 0.3027(5) 0.4486(1)
I1 I 0.2365(2) 0.0423(2) 0.3918(1)
I2 I 0.0685(2) 0.3250(2) 0.5879(1)
O3A O 0.3904(16) 0.3542(16) 0.5176(9)
Cd1A Cd 0.7960(2) 0.8027(5) 0.0514(1)
O5 O 0.3878(18) 0.1607(25) 0.2043(10)
loop_
_geom_bond_atom_site_label_1
_geom_bond_atom_site_label_2
_geom_bond_site_symmetry_1
_geom_bond_site_symmetry_2
O1 C1 1_555 1_555
O2 C1 1_555 1_555
O3 C10 1_555 1_555
O4 C10 1_555 1_555
N1 C2 1_555 1_555
N2 C4 1_555 1_555
C1 C2 1_555 1_555
C3 N1 1_555 1_555
C4 C3 1_555 1_555
C5 N1 1_555 1_555
C6 N2 1_555 1_555
C7 N1 1_555 1_555
C8 N2 1_555 1_555
C9 N2 1_555 1_555
C10 C9 1_555 1_555
Cd1 O1 1_555 1_555
I1 Cd1 1_555 1_555
I2 Cd1 1_555 1_555
O3A Cd1 1_555 1_555
Cd1A O3 1_555 1_555
O2 Cd1 1_555 1_555
C5 C6 1_555 1_555
C7 C8 1_555 1_555

#END
