
#######################################################################
#
#                 Cambridge Crystallographic Data Centre
#                                CCDC 
#
#######################################################################
#
# If this CIF has been generated from an entry in the Cambridge 
# Structural Database, then it will include bibliographic, chemical, 
# crystal, experimental, refinement or atomic coordinate data resulting 
# from the CCDC's data processing and validation procedures.
#
#######################################################################

data_NEHCEK
_symmetry_cell_setting           triclinic
_symmetry_space_group_name_H-M   'P -1'
_symmetry_Int_Tables_number      2
_space_group_name_Hall           '-P 1'
loop_
_symmetry_equiv_pos_site_id
_symmetry_equiv_pos_as_xyz
1 x,y,z
2 -x,-y,-z
_cell_length_a                   9.7557(19)
_cell_length_b                   10.106(3)
_cell_length_c                   12.894(3)
_cell_angle_alpha                89.221(13)
_cell_angle_beta                 72.476(10)
_cell_angle_gamma                71.294(9)
_cell_volume                     1143.35
loop_
_atom_site_label
_atom_site_type_symbol
_atom_site_fract_x
_atom_site_fract_y
_atom_site_fract_z
Zn1 Zn 0.11605(4) 0.11386(3) 1.04279(3)
O1 O 0.2323(3) 0.9108(3) 1.06725(17)
O2 O 0.2593(3) 0.1950(3) 1.11078(18)
O3 O 0.0512(3) 0.8457(3) 1.03385(17)
O4 O 0.0772(3) 0.3422(3) 1.05777(19)
O5 O 0.5577(3) 0.4732(3) 1.1892(2)
N1 N 0.2743(3) 0.0884(3) 0.8835(2)
N2 N 0.9486(3) 0.1278(3) 0.1960(2)
C1 C 0.4324(4) 0.5129(4) 1.1545(3)
C2 C 0.2370(4) 0.1479(4) 0.7966(3)
C3 C 0.4218(4) 0.0146(4) 0.8676(3)
C4 C 0.1787(4) 0.5698(3) 1.0811(3)
C5 C 0.6881(4) 0.2107(4) 0.3108(3)
C6 C 0.8026(4) 0.2044(4) 0.2135(3)
C7 C 0.1887(4) 0.3172(4) 1.0916(3)
C8 C 0.5355(4) 0.0023(4) 0.7689(3)
C9 C 0.2472(4) 0.4353(4) 1.1081(3)
C10 C 0.2380(4) 0.6767(3) 1.0915(3)
C11 C 0.1684(4) 0.8212(3) 1.0618(3)
C12 C 0.7230(4) 0.1343(4) 0.3954(3)
C13 C 0.9847(4) 0.0564(4) 0.2786(3)
C14 C 0.4966(4) 0.0670(4) 0.6802(3)
C15 C 0.6014(4) 0.1389(4) 0.4958(3)
C16 C 0.3736(4) 0.4079(4) 1.1441(3)
C17 C 0.3425(4) 0.1390(4) 0.6957(3)
C18 C 0.8772(4) 0.0566(4) 0.3773(3)
C19 C 0.3655(4) 0.6482(3) 1.1284(3)
C20 C 0.6174(4) 0.0608(4) 0.5792(3)
C21 C 0.6240(5) 0.5791(4) 1.2001(4)
H1 H 0.1329 0.1983 0.8057
H2 H 0.4496 -0.0314 0.9266
H3 H 0.0928 0.5886 1.0559
H4 H 0.5859 0.2673 0.3194
H5 H 0.7756 0.2571 0.1568
H6 H 0.6387 -0.0495 0.7616
H7 H 1.0884 0.0036 0.2685
H8 H 0.5026 0.2025 0.5029
H9 H 0.4201 0.3162 1.1616
H10 H 0.3106 0.1816 0.6370
H11 H 0.9079 0.0041 0.4329
H12 H 0.4059 0.7203 1.1355
H13 H 0.7159 -0.0040 0.5717
H14 H 0.5478 0.6567 1.2524
H15 H 0.6575 0.6143 1.1289
H16 H 0.7116 0.5382 1.2264
Zn1A Zn -0.11605(4) 0.88614(3) 0.95721(3)
Zn1_2 Zn 0.11605(4) 1.11386(3) 1.04279(3)
Zn1_3 Zn 1.11605(4) 0.11386(3) 0.04279(3)
Zn1A_2 Zn -1.11605(4) 0.88614(3) 1.95721(3)
Zn1A_3 Zn -0.11605(4) -0.11386(3) 0.95721(3)
O1A O -0.2323(3) 0.0892(3) 0.93275(17)
O1_2 O 0.2323(3) -0.0892(3) 1.06725(17)
O1A_2 O -0.2323(3) 1.0892(3) 0.93275(17)
O2A O -0.2593(3) 0.8050(3) 0.88922(18)
O3A O -0.0512(3) 0.1543(3) 0.96615(17)
O4A O -0.0772(3) 0.6578(3) 0.94223(19)
O5A O -0.5577(3) 0.5268(3) 0.8108(2)
N1A N -0.2743(3) 0.9116(3) 1.1165(2)
N2A N -0.9486(3) 0.8722(3) 1.8040(2)
N2_2 N -0.0514(3) 0.1278(3) 1.1960(2)
N2A_2 N 0.0514(3) 0.8722(3) 0.8040(2)
C1A C -0.4324(4) 0.4871(4) 0.8455(3)
C2A C -0.2370(4) 0.8521(4) 1.2034(3)
C3A C -0.4218(4) 0.9854(4) 1.1324(3)
C4A C -0.1787(4) 0.4302(3) 0.9189(3)
C5A C -0.6881(4) 0.7893(4) 1.6892(3)
C6A C -0.8026(4) 0.7956(4) 1.7865(3)
C7A C -0.1887(4) 0.6828(4) 0.9084(3)
C8A C -0.5355(4) 0.9977(4) 1.2311(3)
C9A C -0.2472(4) 0.5647(4) 0.8919(3)
C10A C -0.2380(4) 0.3233(3) 0.9085(3)
C11A C -0.1684(4) 0.1788(3) 0.9382(3)
C12A C -0.7230(4) 0.8657(4) 1.6046(3)
C13A C -0.9847(4) 0.9436(4) 1.7214(3)
C14A C -0.4966(4) 0.9330(4) 1.3198(3)
C15A C -0.6014(4) 0.8611(4) 1.5042(3)
C16A C -0.3736(4) 0.5921(4) 0.8559(3)
C17A C -0.3425(4) 0.8610(4) 1.3043(3)
C18A C -0.8772(4) 0.9434(4) 1.6227(3)
C19A C -0.3655(4) 0.3518(3) 0.8716(3)
C20A C -0.6174(4) 0.9392(4) 1.4208(3)
C21A C -0.6240(5) 0.4209(4) 0.7999(4)
H1A H -0.1329 0.8017 1.1943
H2A H -0.4496 1.0314 1.0734
H3A H -0.0928 0.4114 0.9441
H4A H -0.5859 0.7327 1.6806
H5A H -0.7756 0.7429 1.8432
H6A H -0.6387 1.0495 1.2384
H7A H -1.0884 0.9964 1.7315
H8A H -0.5026 0.7975 1.4971
H9A H -0.4201 0.6838 0.8384
H10A H -0.3106 0.8184 1.3630
H11A H -0.9079 0.9959 1.5671
H12A H -0.4059 0.2797 0.8645
H13A H -0.7159 1.0040 1.4283
H14A H -0.5478 0.3433 0.7476
H15A H -0.6575 0.3857 0.8711
H16A H -0.7116 0.4618 0.7736
loop_
_geom_bond_atom_site_label_1
_geom_bond_atom_site_label_2
_geom_bond_site_symmetry_1
_geom_bond_site_symmetry_2
Zn1 O2 1_555 1_555
O1 C11 1_555 1_555
O2 C7 1_555 1_555
O3 C11 1_555 1_555
O4 Zn1 1_555 1_555
O5 C1 1_555 1_555
N1 Zn1 1_555 1_555
N2 C6 1_555 1_555
C1 C16 1_555 1_555
C2 N1 1_555 1_555
C3 N1 1_555 1_555
C4 C9 1_555 1_555
C5 C6 1_555 1_555
C6 H5 1_555 1_555
C7 O4 1_555 1_555
C8 C3 1_555 1_555
C9 C7 1_555 1_555
C10 C4 1_555 1_555
C11 C10 1_555 1_555
C12 C5 1_555 1_555
C13 N2 1_555 1_555
C14 C8 1_555 1_555
C15 C12 1_555 1_555
C16 C9 1_555 1_555
C17 C2 1_555 1_555
C18 C12 1_555 1_555
C19 C1 1_555 1_555
C20 C14 1_555 1_555
C21 O5 1_555 1_555
H1 C2 1_555 1_555
H2 C3 1_555 1_555
H3 C4 1_555 1_555
H4 C5 1_555 1_555
H6 C8 1_555 1_555
H7 C13 1_555 1_555
H8 C15 1_555 1_555
H9 C16 1_555 1_555
H10 C17 1_555 1_555
H11 C18 1_555 1_555
H12 C19 1_555 1_555
H13 C20 1_555 1_555
H14 C21 1_555 1_555
H15 C21 1_555 1_555
H16 C21 1_555 1_555
Zn1A O3 1_555 1_555
Zn1_2 O1 1_555 1_555
Zn1_3 N2 1_555 1_555
Zn1A_2 N2A 1_555 1_555
Zn1A_3 O1A 1_555 1_555
O1A C11A 1_555 1_555
O1_2 Zn1 1_555 1_555
O1A_2 Zn1A 1_555 1_555
O2A Zn1A 1_555 1_555
O3A Zn1 1_555 1_555
O4A Zn1A 1_555 1_555
O5A C1A 1_555 1_555
N1A Zn1A 1_555 1_555
N2A C6A 1_555 1_555
N2_2 Zn1 1_555 1_555
N2A_2 Zn1A 1_555 1_555
C1A C16A 1_555 1_555
C2A N1A 1_555 1_555
C3A N1A 1_555 1_555
C4A C9A 1_555 1_555
C5A C6A 1_555 1_555
C6A H5A 1_555 1_555
C7A O2A 1_555 1_555
C8A C3A 1_555 1_555
C9A C7A 1_555 1_555
C10A C4A 1_555 1_555
C11A O3A 1_555 1_555
C12A C5A 1_555 1_555
C13A N2A 1_555 1_555
C14A C8A 1_555 1_555
C15A C12A 1_555 1_555
C16A C9A 1_555 1_555
C17A C2A 1_555 1_555
C18A C12A 1_555 1_555
C19A C1A 1_555 1_555
C20A C14A 1_555 1_555
C21A O5A 1_555 1_555
H1A C2A 1_555 1_555
H2A C3A 1_555 1_555
H3A C4A 1_555 1_555
H4A C5A 1_555 1_555
H6A C8A 1_555 1_555
H7A C13A 1_555 1_555
H8A C15A 1_555 1_555
H9A C16A 1_555 1_555
H10A C17A 1_555 1_555
H11A C18A 1_555 1_555
H12A C19A 1_555 1_555
H13A C20A 1_555 1_555
H14A C21A 1_555 1_555
H15A C21A 1_555 1_555
H16A C21A 1_555 1_555
C10 C19 1_555 1_555
C13 C18 1_555 1_555
C14 C17 1_555 1_555
C15 C20 1_555 1_555
O4A C7A 1_555 1_555
C10A C11A 1_555 1_555
C10A C19A 1_555 1_555
C13A C18A 1_555 1_555
C14A C17A 1_555 1_555
C15A C20A 1_555 1_555

#END
