
#######################################################################
#
#                 Cambridge Crystallographic Data Centre
#                                CCDC 
#
#######################################################################
#
# If this CIF has been generated from an entry in the Cambridge 
# Structural Database, then it will include bibliographic, chemical, 
# crystal, experimental, refinement or atomic coordinate data resulting 
# from the CCDC's data processing and validation procedures.
#
#######################################################################

data_NEHJIU
_symmetry_cell_setting           trigonal
_symmetry_space_group_name_H-M   'P 31 2 1'
_symmetry_Int_Tables_number      152
_space_group_name_Hall           'P 31 2"'
loop_
_symmetry_equiv_pos_site_id
_symmetry_equiv_pos_as_xyz
1 x,y,z
2 -y,x-y,1/3+z
3 -x+y,-x,2/3+z
4 x-y,-y,2/3-z
5 -x,-x+y,1/3-z
6 y,x,-z
_cell_length_a                   11.2198(5)
_cell_length_b                   11.2198(5)
_cell_length_c                   12.2544(10)
_cell_angle_alpha                90
_cell_angle_beta                 90
_cell_angle_gamma                120
_cell_volume                     1335.96
loop_
_atom_site_label
_atom_site_type_symbol
_atom_site_fract_x
_atom_site_fract_y
_atom_site_fract_z
Ni1 Ni 0.48197(3) 0.48197(3) 0.5000
O1 O 0.58770(14) 0.37275(14) 0.52474(11)
O2 O 0.57430(17) 0.40126(17) 0.74017(10)
O3 O 0.46099(14) 0.49687(13) 0.66389(10)
N1 N 0.6661(2) 0.6661(2) 0.5000
N2 N 1.2954(2) 1.2954(2) 0.5000
C1 C 0.4674(3) 0.4938(3) 0.85241(16)
H1 H 0.4165 0.5406 0.8524
C2 C 0.5042(2) 0.4603(2) 0.74453(15)
C3 C 0.4997(2) 0.4640(2) 0.94795(16)
H2 H 0.5495 0.4161 0.9488
C4 C 0.7704(2) 0.6839(2) 0.43663(19)
H3 H 0.7584 0.6104 0.3909
C5 C 0.8948(2) 0.8049(2) 0.4350(2)
H4 H 0.9671 0.8135 0.3894
C6 C 1.1703(2) 1.0511(2) 0.47864(19)
H5 H 1.1720 0.9688 0.4641
C7 C 1.0464(2) 1.0464(2) 0.5000
C8 C 0.9141(3) 0.9141(3) 0.5000
C9 C 1.2911(2) 1.1767(2) 0.47866(19)
H6 H 1.3748 1.1786 0.4627
H7 H 0.6620 0.3950 0.4942
H8 H 0.6025 0.3820 0.5961
Ni1_2 Ni 1.48197(3) 1.48197(3) 0.5000
Ni1_3 Ni 0.48197(3) 0.48197(3) 1.5000
O1E O 0.37275(14) 0.58770(14) 0.47526(11)
O2E O 0.40126(17) 0.57430(17) 1.25983(10)
O3E O 0.49687(13) 0.46099(14) 1.33611(10)
O3E_2 O 0.49687(13) 0.46099(14) 0.33611(10)
N2_2 N 0.2954(2) 0.2954(2) 0.5000
C1E C 0.4938(3) 0.4674(3) 1.14759(16)
H1E H 0.5406 0.4165 1.1476
C2E C 0.4603(2) 0.5042(2) 1.25547(15)
C3E C 0.4640(2) 0.4997(2) 1.05205(16)
H2E H 0.4161 0.5495 1.0512
C4E C 0.6839(2) 0.7704(2) 0.56337(19)
H3E H 0.6104 0.7584 0.6091
C5E C 0.8049(2) 0.8948(2) 0.5650(2)
H4E H 0.8135 0.9671 0.6106
C6E C 1.0511(2) 1.1703(2) 0.52136(19)
H5E H 0.9688 1.1720 0.5359
C9E C 1.1767(2) 1.2911(2) 0.52134(19)
H6E H 1.1786 1.3748 0.5373
H7E H 0.3950 0.6620 0.5058
H8E H 0.3820 0.6025 0.4039
loop_
_geom_bond_atom_site_label_1
_geom_bond_atom_site_label_2
_geom_bond_site_symmetry_1
_geom_bond_site_symmetry_2
Ni1 O1 1_555 1_555
O1 H7 1_555 1_555
O2 C2 1_555 1_555
O3 Ni1 1_555 1_555
N1 Ni1 1_555 1_555
N2 C9 1_555 1_555
C1 H1 1_555 1_555
C2 O3 1_555 1_555
C3 C1 1_555 1_555
H2 C3 1_555 1_555
C4 N1 1_555 1_555
H3 C4 1_555 1_555
C5 C4 1_555 1_555
H4 C5 1_555 1_555
C6 H5 1_555 1_555
C7 C6 1_555 1_555
C8 C5 1_555 1_555
C9 C6 1_555 1_555
H6 C9 1_555 1_555
H8 O1 1_555 1_555
Ni1_2 N2 1_555 1_555
Ni1_3 O3E 1_555 1_555
O1E Ni1 1_555 1_555
O2E C2E 1_555 1_555
O3E C2E 1_555 1_555
O3E_2 Ni1 1_555 1_555
N2_2 Ni1 1_555 1_555
C1E H1E 1_555 1_555
C2E C1E 1_555 1_555
C3E C3 1_555 1_555
H2E C3E 1_555 1_555
C4E N1 1_555 1_555
H3E C4E 1_555 1_555
C5E C8 1_555 1_555
H4E C5E 1_555 1_555
C6E C7 1_555 1_555
H5E C6E 1_555 1_555
C9E N2 1_555 1_555
H6E C9E 1_555 1_555
H7E O1E 1_555 1_555
H8E O1E 1_555 1_555
C1 C2 1_555 1_555
C7 C8 1_555 1_555
C1E C3E 1_555 1_555
C4E C5E 1_555 1_555
C6E C9E 1_555 1_555

#END
