
#######################################################################
#
#                 Cambridge Crystallographic Data Centre
#                                CCDC 
#
#######################################################################
#
# If this CIF has been generated from an entry in the Cambridge 
# Structural Database, then it will include bibliographic, chemical, 
# crystal, experimental, refinement or atomic coordinate data resulting 
# from the CCDC's data processing and validation procedures.
#
#######################################################################

data_NEHQAT
_symmetry_cell_setting           monoclinic
_symmetry_space_group_name_H-M   'P 21/c'
_symmetry_Int_Tables_number      14
_space_group_name_Hall           '-P 2ybc'
loop_
_symmetry_equiv_pos_site_id
_symmetry_equiv_pos_as_xyz
1 x,y,z
2 -x,1/2+y,1/2-z
3 -x,-y,-z
4 x,1/2-y,1/2+z
_cell_length_a                   12.9147(8)
_cell_length_b                   9.1615(6)
_cell_length_c                   8.2474(5)
_cell_angle_alpha                90
_cell_angle_beta                 98.490(5)
_cell_angle_gamma                90
_cell_volume                     965.123
loop_
_atom_site_label
_atom_site_type_symbol
_atom_site_fract_x
_atom_site_fract_y
_atom_site_fract_z
Cu1 Cu 0.415527(18) 0.23749(3) 0.09684(3)
O1 O 0.36861(11) 0.04320(16) 0.00073(18)
O2 O 0.44137(11) -0.16214(16) -0.07513(17)
C1 C 0.44531(15) -0.0340(2) -0.0220(2)
O3 O 0.48293(11) 0.41989(15) 0.18799(16)
O4 O 0.56640(12) 0.62439(17) 0.13727(16)
C2 C 0.51471(15) 0.5138(2) 0.0937(2)
O5 O 0.1129(2) 0.6158(3) 0.1620(5)
N1 N 0.27114(14) 0.2943(2) 0.1282(2)
C3 C 0.24074(19) 0.4327(3) 0.1276(3)
C4 C 0.1429(2) 0.4746(3) 0.1594(4)
C5 C 0.0734(2) 0.3679(4) 0.1898(5)
C6 C 0.1059(3) 0.2254(4) 0.1929(6)
C7 C 0.2042(2) 0.1914(3) 0.1610(4)
H1 H 0.287(2) 0.504(3) 0.105(3)
H2 H 0.160(4) 0.671(7) 0.157(7)
H3 H 0.007(3) 0.394(4) 0.199(4)
H4 H 0.062(3) 0.146(4) 0.212(4)
H5 H 0.227(2) 0.099(3) 0.163(4)
Cu1B Cu 0.584473(18) -0.23749(3) -0.09684(3)
Cu1B_2 Cu 0.584473(18) 0.76251(3) -0.09684(3)
O1B O 0.63139(11) -0.04320(16) -0.00073(18)
O2B O 0.55863(11) 0.16214(16) 0.07513(17)
C1B C 0.55469(15) 0.0340(2) 0.0220(2)
O3B O 0.51707(11) 0.58011(15) -0.18799(16)
O3B_2 O 0.51707(11) -0.41989(15) -0.18799(16)
O4B O 0.43360(12) 0.37561(17) -0.13727(16)
C2B C 0.48529(15) 0.4862(2) -0.0937(2)
O5B O 0.8871(2) -0.6158(3) -0.1620(5)
N1B N 0.72886(14) -0.2943(2) -0.1282(2)
C3B C 0.75926(19) -0.4327(3) -0.1276(3)
C4B C 0.8571(2) -0.4746(3) -0.1594(4)
C5B C 0.9266(2) -0.3679(4) -0.1898(5)
C6B C 0.8941(3) -0.2254(4) -0.1929(6)
C7B C 0.7958(2) -0.1914(3) -0.1610(4)
H1B H 0.713(2) -0.504(3) -0.105(3)
H2B H 0.840(4) -0.671(7) -0.157(7)
H3B H 0.993(3) -0.394(4) -0.199(4)
H4B H 0.938(3) -0.146(4) -0.212(4)
H5B H 0.773(2) -0.099(3) -0.163(4)
O6 O 0.72368(18) 0.2952(3) 0.3022(4)
H6 H 0.702(3) 0.350(5) 0.386(5)
H7 H 0.682(4) 0.267(4) 0.224(5)
loop_
_geom_bond_atom_site_label_1
_geom_bond_atom_site_label_2
_geom_bond_site_symmetry_1
_geom_bond_site_symmetry_2
Cu1 O1 1_555 1_555
O1 C1 1_555 1_555
O2 C1 1_555 1_555
C1 C1B 1_555 1_555
O3 Cu1 1_555 1_555
O4 C2 1_555 1_555
C2 O3 1_555 1_555
O5 C4 1_555 1_555
N1 Cu1 1_555 1_555
C3 N1 1_555 1_555
C4 C3 1_555 1_555
C5 C4 1_555 1_555
C6 C5 1_555 1_555
C7 N1 1_555 1_555
H1 C3 1_555 1_555
H2 O5 1_555 1_555
H3 C5 1_555 1_555
H4 C6 1_555 1_555
H5 C7 1_555 1_555
O6 H6 1_555 1_555
H7 O6 1_555 1_555
Cu1B O2 1_555 1_555
Cu1B_2 O3B 1_555 1_555
O1B Cu1B 1_555 1_555
O2B Cu1 1_555 1_555
C1B O1B 1_555 1_555
O3B C2B 1_555 1_555
O3B_2 Cu1B 1_555 1_555
O4B C2B 1_555 1_555
C2B C2 1_555 1_555
O5B C4B 1_555 1_555
N1B Cu1B 1_555 1_555
C3B N1B 1_555 1_555
C4B C3B 1_555 1_555
C5B C4B 1_555 1_555
C6B C5B 1_555 1_555
C7B N1B 1_555 1_555
H1B C3B 1_555 1_555
H2B O5B 1_555 1_555
H3B C5B 1_555 1_555
H4B C6B 1_555 1_555
H5B C7B 1_555 1_555
C6 C7 1_555 1_555
O2B C1B 1_555 1_555
C6B C7B 1_555 1_555

#END
