
#######################################################################
#
#                 Cambridge Crystallographic Data Centre
#                                CCDC 
#
#######################################################################
#
# If this CIF has been generated from an entry in the Cambridge 
# Structural Database, then it will include bibliographic, chemical, 
# crystal, experimental, refinement or atomic coordinate data resulting 
# from the CCDC's data processing and validation procedures.
#
#######################################################################

data_NEHYOO
_symmetry_cell_setting           monoclinic
_symmetry_space_group_name_H-M   'P 21/c'
_symmetry_Int_Tables_number      14
_space_group_name_Hall           '-P 2ybc'
loop_
_symmetry_equiv_pos_site_id
_symmetry_equiv_pos_as_xyz
1 x,y,z
2 x,1/2-y,1/2+z
3 -x,-y,-z
4 -x,1/2+y,1/2-z
_cell_length_a                   14.2905(4)
_cell_length_b                   7.3703(2)
_cell_length_c                   28.9937(8)
_cell_angle_alpha                90
_cell_angle_beta                 102.2070(10)
_cell_angle_gamma                90
_cell_volume                     2984.72
loop_
_atom_site_label
_atom_site_type_symbol
_atom_site_fract_x
_atom_site_fract_y
_atom_site_fract_z
Co1 Co -0.26053(4) -0.03696(7) 0.39277(2)
N1 N -0.2043(3) 0.1639(5) 0.35310(15)
N2 N -0.1580(4) 0.4614(5) 0.32760(18)
N3 N -0.2055(3) -0.2503(5) 0.35731(18)
N4 N -0.3217(3) 0.1768(4) 0.42386(14)
N5 N -0.3956(3) 0.4661(4) 0.43890(15)
N6 N -0.3197(3) -0.2401(4) 0.42960(13)
N7 N -0.1338(3) -0.0290(6) 0.44487(19)
N8 N 0.0390(5) 0.0340(11) 0.4682(3)
N9 N -0.3893(3) -0.0514(6) 0.34158(14)
N10 N -0.5582(6) 0.0514(11) 0.2979(3)
N11 N -0.5998(7) 0.1137(13) 0.2146(3)
C1 C -0.1862(3) 0.3068(5) 0.34181(17)
C2 C -0.1861(3) -0.3893(6) 0.34453(19)
C3 C -0.3534(3) 0.3156(6) 0.42981(15)
C4 C -0.3531(3) -0.3802(5) 0.43335(14)
C5 C -0.0520(7) -0.0008(11) 0.4552(3)
C6 C -0.0858(6) -0.0300(11) 0.4880(4)
C7 C -0.4678(5) 0.0209(9) 0.3189(2)
C8 C -0.5766(7) 0.0832(14) 0.2539(4)
C2_2 C -0.1861(3) 0.6107(6) 0.34453(19)
C4_2 C -0.3531(3) 0.6198(5) 0.43335(14)
C6B C 0.0858(6) 0.0300(11) 0.5120(4)
N2_2 N -0.1580(4) -0.5386(5) 0.32760(18)
N5_2 N -0.3956(3) -0.5339(4) 0.43890(15)
N8B N -0.0390(5) -0.0340(11) 0.5318(3)
O1 O -0.4899(11) 0.2123(19) 0.3111(5)
As1 As 0.22022(3) 0.21307(6) 0.372421(14)
C9 C 0.1292(3) 0.0577(5) 0.33365(14)
C10 C 0.0335(3) 0.0579(6) 0.33643(15)
H1 H 0.0107 0.1427 0.3561
C11 C -0.0286(3) -0.0666(6) 0.31025(16)
H2 H -0.0941 -0.0685 0.3123
C12 C 0.0051(3) -0.1882(6) 0.28113(16)
H3 H -0.0378 -0.2725 0.2629
C13 C 0.1007(3) -0.1882(6) 0.27824(17)
H4 H 0.1230 -0.2718 0.2580
C14 C 0.1635(3) -0.0668(6) 0.30472(16)
H5 H 0.2294 -0.0676 0.3033
C15 C 0.2793(3) 0.3714(6) 0.33458(14)
C16 C 0.2574(3) 0.3589(7) 0.28609(16)
H6 H 0.2158 0.2667 0.2707
C17 C 0.2978(4) 0.4852(8) 0.26017(18)
H7 H 0.2832 0.4805 0.2267
C18 C 0.3586(4) 0.6166(8) 0.28311(19)
H8 H 0.3849 0.7037 0.2653
C19 C 0.3819(4) 0.6232(7) 0.33181(19)
H9 H 0.4260 0.7115 0.3473
C20 C 0.3415(4) 0.5033(6) 0.35761(17)
H10 H 0.3559 0.5097 0.3911
C21 C 0.3111(3) 0.0549(5) 0.40984(14)
C22 C 0.4088(3) 0.0756(5) 0.41265(16)
H11 H 0.4327 0.1736 0.3972
C23 C 0.4707(3) -0.0510(6) 0.43863(17)
H12 H 0.5378 -0.0399 0.4410
C24 C 0.4350(3) -0.1933(6) 0.46118(16)
H13 H 0.4778 -0.2784 0.4790
C25 C 0.3374(3) -0.2119(6) 0.45783(15)
H14 H 0.3134 -0.3103 0.4731
C26 C 0.2752(3) -0.0879(6) 0.43238(15)
H15 H 0.2082 -0.0995 0.4302
C27 C 0.1602(3) 0.3623(6) 0.41161(14)
C28 C 0.1822(3) 0.3429(7) 0.46033(15)
H16 H 0.2261 0.2521 0.4746
C29 C 0.1403(3) 0.4557(7) 0.48796(16)
H17 H 0.1547 0.4420 0.5213
C30 C 0.0770(3) 0.5890(6) 0.46711(17)
H18 H 0.0486 0.6676 0.4862
C31 C 0.0547(3) 0.6085(6) 0.41823(17)
H19 H 0.0107 0.6993 0.4041
C32 C 0.0966(3) 0.4961(6) 0.39028(16)
H20 H 0.0823 0.5097 0.3569
O2? O -0.604(2) 0.123(5) 0.2254(12)
C33? C -0.580(2) -0.017(4) 0.1948(10)
loop_
_geom_bond_atom_site_label_1
_geom_bond_atom_site_label_2
_geom_bond_site_symmetry_1
_geom_bond_site_symmetry_2
As1 C9 1_555 1_555
Co1 N1 1_555 1_555
N1 C1 1_555 1_555
N2 C1 1_555 1_555
N3 Co1 1_555 1_555
N4 Co1 1_555 1_555
N5 C3 1_555 1_555
N6 Co1 1_555 1_555
N7 Co1 1_555 1_555
N8 C5 1_555 1_555
N9 Co1 1_555 1_555
N10 C7 1_555 1_555
N11 C8 1_555 1_555
C2 N3 1_555 1_555
C3 N4 1_555 1_555
C4 N6 1_555 1_555
C5 N7 1_555 1_555
C6 N7 1_555 1_555
C7 N9 1_555 1_555
C8 N10 1_555 1_555
C9 C10 1_555 1_555
C10 H1 1_555 1_555
C11 C10 1_555 1_555
H2 C11 1_555 1_555
C12 C11 1_555 1_555
H3 C12 1_555 1_555
C13 C12 1_555 1_555
H4 C13 1_555 1_555
C14 C9 1_555 1_555
H5 C14 1_555 1_555
C15 As1 1_555 1_555
C16 C15 1_555 1_555
H6 C16 1_555 1_555
C17 C16 1_555 1_555
H7 C17 1_555 1_555
C18 C17 1_555 1_555
H8 C18 1_555 1_555
C19 C18 1_555 1_555
H9 C19 1_555 1_555
C20 C15 1_555 1_555
H10 C20 1_555 1_555
C21 As1 1_555 1_555
C22 C21 1_555 1_555
H11 C22 1_555 1_555
C23 C22 1_555 1_555
H12 C23 1_555 1_555
C24 C23 1_555 1_555
H13 C24 1_555 1_555
C25 C24 1_555 1_555
H14 C25 1_555 1_555
C26 C21 1_555 1_555
H15 C26 1_555 1_555
C27 As1 1_555 1_555
C28 C27 1_555 1_555
H16 C28 1_555 1_555
C29 C28 1_555 1_555
H17 C29 1_555 1_555
C30 C29 1_555 1_555
H18 C30 1_555 1_555
C31 C30 1_555 1_555
H19 C31 1_555 1_555
C32 C27 1_555 1_555
H20 C32 1_555 1_555
C2_2 N2 1_555 1_555
C4_2 N5 1_555 1_555
C6B N8 1_555 1_555
N2_2 C2 1_555 1_555
N5_2 C4 1_555 1_555
N8B C6 1_555 1_555
C5 C6 1_555 1_555
C13 C14 1_555 1_555
C19 C20 1_555 1_555
C25 C26 1_555 1_555
C31 C32 1_555 1_555

#END
