
#######################################################################
#
#                 Cambridge Crystallographic Data Centre
#                                CCDC 
#
#######################################################################
#
# If this CIF has been generated from an entry in the Cambridge 
# Structural Database, then it will include bibliographic, chemical, 
# crystal, experimental, refinement or atomic coordinate data resulting 
# from the CCDC's data processing and validation procedures.
#
#######################################################################

data_NEHYUU
_symmetry_cell_setting           monoclinic
_symmetry_space_group_name_H-M   'P 21/c'
_symmetry_Int_Tables_number      14
_space_group_name_Hall           '-P 2ybc'
loop_
_symmetry_equiv_pos_site_id
_symmetry_equiv_pos_as_xyz
1 x,y,z
2 x,1/2-y,1/2+z
3 -x,-y,-z
4 -x,1/2+y,1/2-z
_cell_length_a                   14.2441(8)
_cell_length_b                   7.3046(3)
_cell_length_c                   29.0566(16)
_cell_angle_alpha                90
_cell_angle_beta                 102.404(2)
_cell_angle_gamma                90
_cell_volume                     2952.69
loop_
_atom_site_label
_atom_site_type_symbol
_atom_site_fract_x
_atom_site_fract_y
_atom_site_fract_z
Ni1 Ni -0.25846(5) -0.04079(8) 0.39274(2)
N1 N -0.2051(3) 0.1590(6) 0.35393(16)
N2 N -0.1586(4) 0.4565(6) 0.32763(18)
N3 N -0.2054(3) -0.2491(6) 0.35732(17)
N4 N -0.3181(3) 0.1686(6) 0.42424(14)
N5 N -0.3935(3) 0.4619(6) 0.43753(15)
N6 N -0.3159(3) -0.2430(5) 0.42877(14)
N7 N -0.1335(3) -0.0335(6) 0.44360(19)
N8 N 0.0398(6) 0.0375(12) 0.4682(3)
N9 N -0.3867(3) -0.0538(7) 0.34286(14)
N10 N -0.5562(7) 0.0603(13) 0.2990(4)
N11 N -0.5985(11) 0.094(2) 0.2140(5)
C1 C -0.1865(4) 0.3009(8) 0.34323(19)
C2 C -0.1865(4) -0.3909(8) 0.3447(2)
C3 C -0.3502(4) 0.3092(7) 0.42962(17)
C4 C -0.3503(4) -0.3849(7) 0.43180(16)
C5 C -0.0525(8) 0.0005(12) 0.4545(4)
C6 C -0.0862(7) -0.0323(12) 0.4869(4)
C7 C -0.4636(7) 0.0227(13) 0.3200(3)
C8 C -0.5758(8) 0.0831(15) 0.2532(4)
C2_2 C -0.1865(4) 0.6091(8) 0.3447(2)
C4_2 C -0.3503(4) 0.6151(7) 0.43180(16)
C6B C 0.0862(7) 0.0323(12) 0.5131(4)
N2_2 N -0.1586(4) -0.5435(6) 0.32763(18)
N5_2 N -0.3935(3) -0.5381(6) 0.43753(15)
N8B N -0.0398(6) -0.0375(12) 0.5318(3)
O1 O -0.4874(6) 0.2254(12) 0.3100(3)
As1 As 0.22341(4) 0.21635(7) 0.372252(18)
C9 C 0.1307(4) 0.0607(7) 0.33323(16)
C10 C 0.0362(4) 0.0603(7) 0.33671(17)
H1 H 0.0141 0.1450 0.3568
C11 C -0.0270(4) -0.0647(7) 0.31057(18)
H2 H -0.0926 -0.0665 0.3127
C12 C 0.0066(4) -0.1868(7) 0.28135(18)
H3 H -0.0367 -0.2723 0.2634
C13 C 0.1016(4) -0.1865(7) 0.27788(18)
H4 H 0.1234 -0.2707 0.2575
C14 C 0.1649(4) -0.0634(7) 0.30409(18)
H5 H 0.2307 -0.0630 0.3023
C15 C 0.2826(3) 0.3756(6) 0.33507(17)
C16 C 0.2589(4) 0.3668(7) 0.28633(18)
H6 H 0.2150 0.2767 0.2710
C17 C 0.2997(4) 0.4902(8) 0.25985(19)
H7 H 0.2846 0.4839 0.2264
C18 C 0.3618(5) 0.6209(8) 0.2825(2)
H8 H 0.3882 0.7076 0.2644
C19 C 0.3868(5) 0.6291(7) 0.3309(2)
H9 H 0.4315 0.7181 0.3461
C20 C 0.3462(4) 0.5062(7) 0.35738(19)
H10 H 0.3621 0.5121 0.3908
C21 C 0.3142(3) 0.0558(6) 0.40989(15)
C22 C 0.4115(4) 0.0718(6) 0.41238(17)
H11 H 0.4356 0.1682 0.3962
C23 C 0.4744(4) -0.0541(7) 0.43869(18)
H12 H 0.5417 -0.0433 0.4411
C24 C 0.4376(4) -0.1956(7) 0.46132(18)
H13 H 0.4800 -0.2830 0.4790
C25 C 0.3403(4) -0.2103(7) 0.45838(17)
H14 H 0.3160 -0.3073 0.4743
C26 C 0.2776(4) -0.0859(7) 0.43260(16)
H15 H 0.2103 -0.0969 0.4304
C27 C 0.1630(3) 0.3644(7) 0.41131(17)
C28 C 0.1839(4) 0.3437(7) 0.45969(18)
H16 H 0.2276 0.2517 0.4741
C29 C 0.1406(4) 0.4582(8) 0.48726(18)
H17 H 0.1554 0.4457 0.5206
C30 C 0.0762(4) 0.5899(7) 0.46620(19)
H18 H 0.0458 0.6662 0.4851
C31 C 0.0556(4) 0.6119(7) 0.4178(2)
H19 H 0.0115 0.7036 0.4037
C32 C 0.0992(4) 0.5009(7) 0.38999(18)
H20 H 0.0860 0.5170 0.3568
O2? O -0.603(3) 0.119(5) 0.2201(15)
C33? C -0.582(4) -0.008(8) 0.1957(19)
loop_
_geom_bond_atom_site_label_1
_geom_bond_atom_site_label_2
_geom_bond_site_symmetry_1
_geom_bond_site_symmetry_2
As1 C9 1_555 1_555
Ni1 N1 1_555 1_555
N1 C1 1_555 1_555
N2 C1 1_555 1_555
N3 Ni1 1_555 1_555
N4 Ni1 1_555 1_555
N5 C3 1_555 1_555
N6 Ni1 1_555 1_555
N7 Ni1 1_555 1_555
N8 C5 1_555 1_555
N9 Ni1 1_555 1_555
N10 C7 1_555 1_555
N11 C8 1_555 1_555
C2 N3 1_555 1_555
C3 N4 1_555 1_555
C4 N6 1_555 1_555
C5 N7 1_555 1_555
C6 N7 1_555 1_555
C7 N9 1_555 1_555
C8 N10 1_555 1_555
C9 C10 1_555 1_555
C10 H1 1_555 1_555
C11 C10 1_555 1_555
H2 C11 1_555 1_555
C12 C11 1_555 1_555
H3 C12 1_555 1_555
C13 C12 1_555 1_555
H4 C13 1_555 1_555
C14 C9 1_555 1_555
H5 C14 1_555 1_555
C15 As1 1_555 1_555
C16 C15 1_555 1_555
H6 C16 1_555 1_555
C17 C16 1_555 1_555
H7 C17 1_555 1_555
C18 C17 1_555 1_555
H8 C18 1_555 1_555
C19 C18 1_555 1_555
H9 C19 1_555 1_555
C20 C15 1_555 1_555
H10 C20 1_555 1_555
C21 As1 1_555 1_555
C22 C21 1_555 1_555
H11 C22 1_555 1_555
C23 C22 1_555 1_555
H12 C23 1_555 1_555
C24 C23 1_555 1_555
H13 C24 1_555 1_555
C25 C24 1_555 1_555
H14 C25 1_555 1_555
C26 C21 1_555 1_555
H15 C26 1_555 1_555
C27 As1 1_555 1_555
C28 C27 1_555 1_555
H16 C28 1_555 1_555
C29 C28 1_555 1_555
H17 C29 1_555 1_555
C30 C29 1_555 1_555
H18 C30 1_555 1_555
C31 C30 1_555 1_555
H19 C31 1_555 1_555
C32 C27 1_555 1_555
H20 C32 1_555 1_555
C2_2 N2 1_555 1_555
C4_2 N5 1_555 1_555
C6B N8 1_555 1_555
N2_2 C2 1_555 1_555
N5_2 C4 1_555 1_555
N8B C6 1_555 1_555
C5 C6 1_555 1_555
C13 C14 1_555 1_555
C19 C20 1_555 1_555
C25 C26 1_555 1_555
C31 C32 1_555 1_555

#END
