
#######################################################################
#
#                 Cambridge Crystallographic Data Centre
#                                CCDC 
#
#######################################################################
#
# If this CIF has been generated from an entry in the Cambridge 
# Structural Database, then it will include bibliographic, chemical, 
# crystal, experimental, refinement or atomic coordinate data resulting 
# from the CCDC's data processing and validation procedures.
#
#######################################################################

data_NEJJIW
_symmetry_cell_setting           monoclinic
_symmetry_space_group_name_H-M   'P 21/c'
_symmetry_Int_Tables_number      14
_space_group_name_Hall           '-P 2ybc'
loop_
_symmetry_equiv_pos_site_id
_symmetry_equiv_pos_as_xyz
1 x,y,z
2 -x,1/2+y,1/2-z
3 -x,-y,-z
4 x,1/2-y,1/2+z
_cell_length_a                   9.710(2)
_cell_length_b                   16.745(5)
_cell_length_c                   15.709(9)
_cell_angle_alpha                90
_cell_angle_beta                 98.98(3)
_cell_angle_gamma                90
_cell_volume                     2522.88
loop_
_atom_site_label
_atom_site_type_symbol
_atom_site_fract_x
_atom_site_fract_y
_atom_site_fract_z
Sm1 Sm 0.331782(19) 0.124923(14) 0.710734(14)
Fe1 Fe -0.00192(5) -0.12651(8) 0.73948(4)
O1 O 0.4188(3) 0.26284(19) 0.7285(2)
O2 O 0.2380(4) 0.0349(2) 0.5820(3)
O3 O 0.4270(3) -0.01225(18) 0.7277(2)
O4 O 0.1785(4) 0.1981(2) 0.5933(3)
N1 N 0.3960(4) 0.1154(3) 0.8769(2)
N2 N 0.6019(4) 0.1296(3) 0.7732(2)
N3 N 0.4996(4) 0.1400(2) 0.5997(3)
N4 N 0.1469(4) 0.0342(2) 0.7522(3)
N5 N -0.0263(6) -0.1084(4) 0.5424(4)
N6 N -0.3044(4) -0.0690(3) 0.7350(4)
N7 N 0.0086(6) -0.1547(4) 0.9348(4)
N8 N 0.3052(4) -0.1789(3) 0.7482(3)
N9 N 0.1589(4) 0.2134(2) 0.7719(3)
C1 C 0.2985(5) 0.1109(4) 0.9269(3)
H1 H 0.2054 0.1118 0.9014
C2 C 0.3295(7) 0.1050(4) 1.0153(4)
H2 H 0.2590 0.1008 1.0489
C3 C 0.4655(7) 0.1053(4) 1.0523(4)
H3 H 0.4891 0.1023 1.1119
C4 C 0.5661(6) 0.1101(4) 1.0023(3)
H4 H 0.6594 0.1102 1.0275
C5 C 0.5313(4) 0.1148(3) 0.9143(3)
C6 C 0.6377(4) 0.1162(2) 0.8545(3)
C7 C 0.7808(5) 0.1137(3) 0.8888(3)
H5 H 0.8103 0.1091 0.9478
C8 C 0.8749(5) 0.1182(4) 0.8325(4)
H6 H 0.9698 0.1153 0.8533
C9 C 0.8327(4) 0.1265(4) 0.7502(4)
H7 H 0.8977 0.1295 0.7127
C10 C 0.6890(4) 0.1308(3) 0.7175(3)
C11 C 0.6375(5) 0.1455(3) 0.6252(3)
C12 C 0.7281(7) 0.1646(4) 0.5663(4)
H8 H 0.8231 0.1707 0.5852
C13 C 0.6752(8) 0.1739(4) 0.4820(4)
H9 H 0.7345 0.1846 0.4423
C14 C 0.5360(8) 0.1677(5) 0.4552(4)
H10 H 0.4984 0.1747 0.3975
C15 C 0.4524(7) 0.1509(4) 0.5152(4)
H11 H 0.3570 0.1467 0.4966
C16 C 0.0845(4) -0.0238(3) 0.7498(3)
C17 C -0.0168(4) -0.1163(4) 0.6153(3)
C18 C -0.1916(5) -0.0864(3) 0.7362(4)
C19 C 0.0094(5) -0.1416(3) 0.8630(4)
C20 C 0.1892(5) -0.1650(3) 0.7455(3)
C21 C 0.0930(4) 0.2701(3) 0.7729(3)
Fe1A Fe 0.00192(5) 0.37349(8) 0.76052(4)
C21A C -0.0930(4) -0.2299(3) 0.7271(3)
loop_
_geom_bond_atom_site_label_1
_geom_bond_atom_site_label_2
_geom_bond_site_symmetry_1
_geom_bond_site_symmetry_2
Sm1 O1 1_555 1_555
Fe1 C16 1_555 1_555
O2 Sm1 1_555 1_555
O3 Sm1 1_555 1_555
O4 Sm1 1_555 1_555
N1 Sm1 1_555 1_555
N2 Sm1 1_555 1_555
N3 Sm1 1_555 1_555
N4 Sm1 1_555 1_555
N5 C17 1_555 1_555
N6 C18 1_555 1_555
N7 C19 1_555 1_555
N8 C20 1_555 1_555
N9 Sm1 1_555 1_555
C1 N1 1_555 1_555
H1 C1 1_555 1_555
C2 C1 1_555 1_555
H2 C2 1_555 1_555
C3 C2 1_555 1_555
H3 C3 1_555 1_555
C4 C3 1_555 1_555
H4 C4 1_555 1_555
C5 N1 1_555 1_555
C6 N2 1_555 1_555
C7 C6 1_555 1_555
H5 C7 1_555 1_555
C8 C7 1_555 1_555
H6 C8 1_555 1_555
C9 C8 1_555 1_555
H7 C9 1_555 1_555
C10 N2 1_555 1_555
C11 N3 1_555 1_555
C12 C11 1_555 1_555
H8 C12 1_555 1_555
C13 C12 1_555 1_555
H9 C13 1_555 1_555
C14 C13 1_555 1_555
H10 C14 1_555 1_555
C15 N3 1_555 1_555
H11 C15 1_555 1_555
C16 N4 1_555 1_555
C17 Fe1 1_555 1_555
C18 Fe1 1_555 1_555
C19 Fe1 1_555 1_555
C20 Fe1 1_555 1_555
C21 N9 1_555 1_555
Fe1A C21 1_555 1_555
C21A Fe1 1_555 1_555
C4 C5 1_555 1_555
C5 C6 1_555 1_555
C9 C10 1_555 1_555
C10 C11 1_555 1_555
C14 C15 1_555 1_555

#END
