
#######################################################################
#
#                 Cambridge Crystallographic Data Centre
#                                CCDC 
#
#######################################################################
#
# If this CIF has been generated from an entry in the Cambridge 
# Structural Database, then it will include bibliographic, chemical, 
# crystal, experimental, refinement or atomic coordinate data resulting 
# from the CCDC's data processing and validation procedures.
#
#######################################################################

data_NEJJES
_symmetry_cell_setting           monoclinic
_symmetry_space_group_name_H-M   'P 21/c'
_symmetry_Int_Tables_number      14
_space_group_name_Hall           '-P 2ybc'
loop_
_symmetry_equiv_pos_site_id
_symmetry_equiv_pos_as_xyz
1 x,y,z
2 -x,1/2+y,1/2-z
3 -x,-y,-z
4 x,1/2-y,1/2+z
_cell_length_a                   9.6250(10)
_cell_length_b                   16.6560(10)
_cell_length_c                   15.7060(10)
_cell_angle_alpha                90
_cell_angle_beta                 99.280(10)
_cell_angle_gamma                90
_cell_volume                     2484.94
loop_
_atom_site_label
_atom_site_type_symbol
_atom_site_fract_x
_atom_site_fract_y
_atom_site_fract_z
Sm1 Sm 0.328799(9) 0.125395(5) 0.711325(6)
Co1 Co -0.00259(3) -0.126548(14) 0.73738(2)
O1 O 0.41777(17) 0.26422(9) 0.72923(13)
O2 O 0.2355(3) 0.03655(13) 0.58186(15)
O3 O 0.42635(17) -0.01209(10) 0.72722(14)
O4 O 0.1723(3) 0.19809(14) 0.59476(15)
N1 N 0.3957(2) 0.11463(13) 0.87647(14)
N2 N 0.4979(2) 0.14042(15) 0.60030(15)
N3 N 0.1426(2) 0.03462(12) 0.75061(17)
N4 N -0.0281(4) -0.1089(2) 0.5434(2)
N5 N -0.3020(2) -0.06827(14) 0.7340(2)
N6 N 0.0091(4) -0.1528(2) 0.92962(19)
N7 N 0.3019(2) -0.17958(13) 0.74622(18)
N8 N 0.15578(19) 0.21442(11) 0.77390(14)
C1 C 0.5306(2) 0.11386(13) 0.91466(16)
C2 C 0.6372(2) 0.11818(13) 0.85700(17)
C3 C 0.7797(3) 0.1135(2) 0.8900(3)
C4 C 0.8761(3) 0.1177(2) 0.8347(3)
H1 H 0.9718 0.1146 0.8562
C5 C 0.6892(2) 0.13199(12) 0.71878(18)
C6 C 0.6376(3) 0.14490(15) 0.62654(17)
C7 C 0.7281(4) 0.1631(3) 0.5682(3)
C8 C 0.6748(5) 0.1749(3) 0.4827(3)
C9 C 0.4484(4) 0.1522(3) 0.5165(2)
C10 C 0.0805(2) -0.02459(12) 0.74856(15)
C11 C -0.0193(3) -0.11630(14) 0.61638(18)
C12 C -0.1874(2) -0.08599(13) 0.73413(18)
C13 C 0.0097(3) -0.13937(15) 0.85795(17)
C14 C 0.1845(2) -0.16491(12) 0.74248(15)
C15 C 0.0899(2) 0.27194(11) 0.77390(14)
N9 N 0.59276(18) 0.12697(9) 0.77230(13)
C16 C 0.4633(5) 0.1043(3) 1.0541(2)
C17 C 0.8325(3) 0.12646(15) 0.7497(2)
H2 H 0.8974 0.1288 0.7118
C18 C 0.5674(4) 0.1097(2) 1.0037(2)
C19 C 0.3266(4) 0.1036(3) 1.0163(2)
C20 C 0.5342(5) 0.1688(3) 0.4559(2)
H3 H 0.4962 0.1756 0.3980
C21 C 0.2968(3) 0.1097(2) 0.9276(2)
H4 H 0.2028 0.1105 0.9018
H5 H 0.661(5) 0.109(2) 1.026(3)
H6 H 0.735(5) 0.185(3) 0.443(3)
H7 H 0.261(4) 0.097(2) 1.050(3)
H8 H 0.776(6) 0.109(3) 0.929(3)
H9 H 0.473(5) 0.095(3) 1.111(3)
H10 H 0.838(5) 0.164(3) 0.591(3)
H11 H 0.316(5) 0.150(3) 0.491(3)
Co1A Co 0.00259(3) 0.373452(14) 0.76262(2)
C15A C -0.0899(2) -0.22806(11) 0.72610(14)
loop_
_geom_bond_atom_site_label_1
_geom_bond_atom_site_label_2
_geom_bond_site_symmetry_1
_geom_bond_site_symmetry_2
Sm1 O1 1_555 1_555
Co1 C10 1_555 1_555
O2 Sm1 1_555 1_555
O3 Sm1 1_555 1_555
O4 Sm1 1_555 1_555
N1 Sm1 1_555 1_555
N2 Sm1 1_555 1_555
N3 Sm1 1_555 1_555
N4 C11 1_555 1_555
N5 C12 1_555 1_555
N6 C13 1_555 1_555
N7 C14 1_555 1_555
N8 Sm1 1_555 1_555
C1 N1 1_555 1_555
C2 C1 1_555 1_555
C3 C2 1_555 1_555
C4 C3 1_555 1_555
H1 C4 1_555 1_555
C5 C6 1_555 1_555
C6 N2 1_555 1_555
C7 C6 1_555 1_555
C8 C7 1_555 1_555
C9 N2 1_555 1_555
C10 N3 1_555 1_555
C11 Co1 1_555 1_555
C12 Co1 1_555 1_555
C13 Co1 1_555 1_555
C14 Co1 1_555 1_555
C15 N8 1_555 1_555
N9 Sm1 1_555 1_555
C16 C18 1_555 1_555
C17 C4 1_555 1_555
H2 C17 1_555 1_555
C18 C1 1_555 1_555
C19 C16 1_555 1_555
C20 C8 1_555 1_555
H3 C20 1_555 1_555
C21 N1 1_555 1_555
H4 C21 1_555 1_555
H5 C18 1_555 1_555
H6 C8 1_555 1_555
H7 C19 1_555 1_555
H8 C3 1_555 1_555
H9 C16 1_555 1_555
H10 C7 1_555 1_555
H11 C9 1_555 1_555
Co1A C15 1_555 1_555
C15A Co1 1_555 1_555
C2 N9 1_555 1_555
C5 N9 1_555 1_555
C5 C17 1_555 1_555
C9 C20 1_555 1_555
C19 C21 1_555 1_555

#END
