
#######################################################################
#
#                 Cambridge Crystallographic Data Centre
#                                CCDC 
#
#######################################################################
#
# If this CIF has been generated from an entry in the Cambridge 
# Structural Database, then it will include bibliographic, chemical, 
# crystal, experimental, refinement or atomic coordinate data resulting 
# from the CCDC's data processing and validation procedures.
#
#######################################################################

data_NEJYAE
_symmetry_cell_setting           monoclinic
_symmetry_space_group_name_H-M   'C 2/c'
_symmetry_Int_Tables_number      15
_space_group_name_Hall           '-C 2yn'
loop_
_symmetry_equiv_pos_site_id
_symmetry_equiv_pos_as_xyz
1 x,y,z
2 -x,y,1/2-z
3 1/2+x,1/2+y,z
4 1/2-x,1/2+y,1/2-z
5 -x,-y,-z
6 x,-y,1/2+z
7 1/2-x,1/2-y,-z
8 1/2+x,1/2-y,1/2+z
_cell_length_a                   7.2493(4)
_cell_length_b                   16.8151(6)
_cell_length_c                   13.8895(6)
_cell_angle_alpha                90
_cell_angle_beta                 96.875(5)
_cell_angle_gamma                90
_cell_volume                     1680.92
loop_
_atom_site_label
_atom_site_type_symbol
_atom_site_fract_x
_atom_site_fract_y
_atom_site_fract_z
Mn1 Mn 0.5000 0.59106(3) 0.7500
C1 C 0.5808(3) 0.77324(12) 0.72225(16)
N1 N 0.6487(3) 0.70158(11) 0.70051(14)
C2 C 0.8835(3) 0.76602(15) 0.61960(18)
C3 C 0.6615(4) 0.84282(14) 0.6934(2)
H1 H 0.6140 0.8920 0.7085
C4 C 0.7966(4) 0.69964(15) 0.65124(18)
H2 H 0.8440 0.6501 0.6374
N2 N 0.6730(4) 0.51184(14) 0.67248(17)
C5 C 0.7399(4) 0.48322(14) 0.61095(18)
N3 N 0.8304(4) 0.44817(19) 0.54857(18)
C6 C 1.0474(4) 0.75814(18) 0.5627(2)
H3 H 1.0746 0.7029 0.5545
H4 H 1.1535 0.7839 0.5972
H5 H 1.0183 0.7826 0.5003
C7 C 0.7560(4) 0.43628(16) 0.46052(19)
N4 N 0.7034(4) 0.42094(14) 0.38238(19)
C8 C 0.8125(4) 0.83824(15) 0.6422(2)
H6 H 0.8669 0.8847 0.6228
Mn1D Mn 0.5000 0.40894(3) 0.2500
Mn1D_2 Mn 0.5000 0.40894(3) 1.2500
C1A C 0.4192(3) 0.77324(12) 0.77775(16)
N1A N 0.3513(3) 0.70158(11) 0.79949(14)
C2A C 0.1165(3) 0.76602(15) 0.88040(18)
C3A C 0.3385(4) 0.84282(14) 0.8066(2)
H1A H 0.3860 0.8920 0.7915
C4A C 0.2034(4) 0.69964(15) 0.84876(18)
H2A H 0.1560 0.6501 0.8626
N2A N 0.3270(4) 0.51184(14) 0.82752(17)
N2E N 0.6730(4) 0.48816(14) 1.17248(17)
C5E C 0.7399(4) 0.51678(14) 1.11095(18)
N3E N 0.8304(4) 0.55183(19) 1.04857(18)
C6A C -0.0474(4) 0.75814(18) 0.9373(2)
H3A H -0.0746 0.7029 0.9455
H4A H -0.1535 0.7839 0.9028
H5A H -0.0183 0.7826 0.9997
C7E C 0.7560(4) 0.56372(16) 0.96052(19)
N4D N 0.2966(4) 0.57906(14) 0.61762(19)
N4E N 0.7034(4) 0.57906(14) 0.88238(19)
C8A C 0.1875(4) 0.83824(15) 0.8578(2)
H6A H 0.1331 0.8847 0.8772
loop_
_geom_bond_atom_site_label_1
_geom_bond_atom_site_label_2
_geom_bond_site_symmetry_1
_geom_bond_site_symmetry_2
Mn1 N1 1_555 1_555
C1 N1 1_555 1_555
N1 C4 1_555 1_555
C2 C4 1_555 1_555
C3 C1 1_555 1_555
H1 C3 1_555 1_555
C4 H2 1_555 1_555
N2 Mn1 1_555 1_555
C5 N2 1_555 1_555
N3 C5 1_555 1_555
C6 C2 1_555 1_555
H3 C6 1_555 1_555
H4 C6 1_555 1_555
H5 C6 1_555 1_555
C7 N3 1_555 1_555
N4 C7 1_555 1_555
C8 C2 1_555 1_555
H6 C8 1_555 1_555
Mn1D N4 1_555 1_555
Mn1D_2 N2E 1_555 1_555
C1A C1 1_555 1_555
N1A Mn1 1_555 1_555
C2A C4A 1_555 1_555
C3A C1A 1_555 1_555
H1A C3A 1_555 1_555
C4A N1A 1_555 1_555
H2A C4A 1_555 1_555
N2A Mn1 1_555 1_555
N2E C5E 1_555 1_555
C5E N3E 1_555 1_555
N3E C7E 1_555 1_555
C6A C2A 1_555 1_555
H3A C6A 1_555 1_555
H4A C6A 1_555 1_555
H5A C6A 1_555 1_555
C7E N4E 1_555 1_555
N4D Mn1 1_555 1_555
N4E Mn1 1_555 1_555
C8A C2A 1_555 1_555
H6A C8A 1_555 1_555
C3 C8 1_555 1_555
C1A N1A 1_555 1_555
C3A C8A 1_555 1_555

#END
