
#######################################################################
#
#                 Cambridge Crystallographic Data Centre
#                                CCDC 
#
#######################################################################
#
# If this CIF has been generated from an entry in the Cambridge 
# Structural Database, then it will include bibliographic, chemical, 
# crystal, experimental, refinement or atomic coordinate data resulting 
# from the CCDC's data processing and validation procedures.
#
#######################################################################

data_NEJYOS
_symmetry_cell_setting           triclinic
_symmetry_space_group_name_H-M   'P -1'
_symmetry_Int_Tables_number      2
_space_group_name_Hall           '-P 1'
loop_
_symmetry_equiv_pos_site_id
_symmetry_equiv_pos_as_xyz
1 x,y,z
2 -x,-y,-z
_cell_length_a                   7.740(4)
_cell_length_b                   10.357(5)
_cell_length_c                   15.514(3)
_cell_angle_alpha                72.687(5)
_cell_angle_beta                 78.858(3)
_cell_angle_gamma                81.668(2)
_cell_volume                     1159.84
loop_
_atom_site_label
_atom_site_type_symbol
_atom_site_fract_x
_atom_site_fract_y
_atom_site_fract_z
Zn1 Zn 0.24684(6) 0.51431(5) -0.00837(3)
O1 O 0.5330(6) 0.6038(5) -0.0823(4)
O2 O 0.7547(7) 0.4866(6) -0.1474(4)
O3 O 0.1806(7) 0.7558(5) -0.0456(4)
O4 O -0.0063(6) 0.6299(5) -0.0673(4)
N1 N 0.1342(9) 0.7150(8) -0.5751(5)
N2 N 0.2763(8) 0.7368(7) -0.4669(5)
N3 N -0.6565(8) 1.3650(6) -0.0933(4)
N4 N -0.4730(8) 1.2030(6) -0.1375(4)
C1 C 0.2096(11) 0.6549(9) -0.5031(6)
H1 H 0.2169 0.5611 -0.4782
C2 C 0.1545(10) 0.8519(8) -0.5889(5)
C3 C 0.1044(11) 0.9677(9) -0.6571(5)
H2 H 0.0475 0.9606 -0.7029
C4 C 0.1426(10) 1.0920(9) -0.6540(6)
H3 H 0.1104 1.1696 -0.6986
C5 C 0.2268(10) 1.1050(9) -0.5869(6)
H4 H 0.2502 1.1911 -0.5881
C6 C 0.2778(10) 0.9953(8) -0.5181(6)
H5 H 0.3325 1.0048 -0.4723
C7 C 0.2420(10) 0.8689(8) -0.5216(5)
C8 C 0.3667(10) 0.6961(8) -0.3897(5)
C9 C 0.4957(10) 0.5881(9) -0.3819(5)
H6 H 0.5252 0.5431 -0.4273
C10 C 0.5814(10) 0.5467(8) -0.3056(5)
H7 H 0.6698 0.4750 -0.3006
C11 C 0.5353(9) 0.6121(7) -0.2372(5)
C12 C 0.4047(9) 0.7226(8) -0.2463(5)
H8 H 0.3741 0.7679 -0.2012
C13 C 0.3214(10) 0.7636(8) -0.3233(5)
H9 H 0.2351 0.8368 -0.3298
C14 C 0.6149(9) 0.5637(7) -0.1515(5)
C15 C -0.5159(9) 1.2809(7) -0.0799(5)
H10 H -0.4507 1.2752 -0.0342
C16 C -0.7125(9) 1.3416(7) -0.1683(5)
C17 C -0.8567(9) 1.4024(7) -0.2132(5)
H11 H -0.9354 1.4693 -0.1945
C18 C -0.8770(10) 1.3598(8) -0.2847(6)
H12 H -0.9724 1.3978 -0.3153
C19 C -0.7575(10) 1.2593(8) -0.3144(6)
H13 H -0.7751 1.2345 -0.3647
C20 C -0.6156(10) 1.1969(8) -0.2710(5)
H14 H -0.5366 1.1310 -0.2907
C21 C -0.5976(9) 1.2386(7) -0.1957(5)
C22 C -0.3370(9) 1.0917(7) -0.1288(5)
C23 C -0.3794(9) 0.9669(7) -0.1297(5)
H15 H -0.4902 0.9570 -0.1405
C24 C -0.2519(9) 0.8565(7) -0.1140(5)
H16 H -0.2775 0.7720 -0.1151
C25 C -0.0877(9) 0.8706(7) -0.0968(5)
C26 C -0.0436(9) 0.9996(7) -0.1018(5)
H17 H 0.0688 1.0108 -0.0939
C27 C -0.1689(9) 1.1102(7) -0.1185(5)
H18 H -0.1405 1.1964 -0.1227
C28 C 0.0368(9) 0.7462(7) -0.0680(5)
Zn1A Zn 0.75316(6) 0.48569(5) 0.00837(3)
Zn1A_2 Zn -0.24684(6) 0.48569(5) 0.00837(3)
Zn1_2 Zn -0.75316(6) 1.51431(5) -0.00837(3)
O1A O 0.4670(6) 0.3962(5) 0.0823(4)
O2A O 0.2453(7) 0.5134(6) 0.1474(4)
O4A O 0.0063(6) 0.3701(5) 0.0673(4)
N3_2 N 0.3435(8) 0.3650(6) -0.0933(4)
loop_
_geom_bond_atom_site_label_1
_geom_bond_atom_site_label_2
_geom_bond_site_symmetry_1
_geom_bond_site_symmetry_2
Zn1 O1 1_555 1_555
O1 C14 1_555 1_555
O2 C14 1_555 1_555
O3 Zn1 1_555 1_555
O4 Zn1 1_555 1_555
N1 C1 1_555 1_555
N2 C1 1_555 1_555
N3 C15 1_555 1_555
N4 C15 1_555 1_555
C1 H1 1_555 1_555
C2 N1 1_555 1_555
C3 C2 1_555 1_555
H2 C3 1_555 1_555
C4 C3 1_555 1_555
H3 C4 1_555 1_555
C5 C4 1_555 1_555
H4 C5 1_555 1_555
C6 C5 1_555 1_555
H5 C6 1_555 1_555
C7 N2 1_555 1_555
C8 N2 1_555 1_555
C9 C8 1_555 1_555
H6 C9 1_555 1_555
C10 C9 1_555 1_555
H7 C10 1_555 1_555
C11 C10 1_555 1_555
C12 C11 1_555 1_555
H8 C12 1_555 1_555
C13 C8 1_555 1_555
H9 C13 1_555 1_555
C14 C11 1_555 1_555
C15 H10 1_555 1_555
C16 N3 1_555 1_555
C17 C16 1_555 1_555
H11 C17 1_555 1_555
C18 C17 1_555 1_555
H12 C18 1_555 1_555
C19 C18 1_555 1_555
H13 C19 1_555 1_555
C20 C19 1_555 1_555
H14 C20 1_555 1_555
C21 N4 1_555 1_555
C22 N4 1_555 1_555
C23 C22 1_555 1_555
H15 C23 1_555 1_555
C24 C23 1_555 1_555
H16 C24 1_555 1_555
C25 C24 1_555 1_555
C26 C25 1_555 1_555
H17 C26 1_555 1_555
C27 C22 1_555 1_555
H18 C27 1_555 1_555
C28 O3 1_555 1_555
Zn1A O1 1_555 1_555
Zn1A_2 O4 1_555 1_555
Zn1_2 N3 1_555 1_555
O1A Zn1 1_555 1_555
O2A Zn1 1_555 1_555
O4A Zn1 1_555 1_555
N3_2 Zn1 1_555 1_555
O2 Zn1A 1_555 1_555
O4 C28 1_555 1_555
C2 C7 1_555 1_555
C6 C7 1_555 1_555
C12 C13 1_555 1_555
C16 C21 1_555 1_555
C20 C21 1_555 1_555
C25 C28 1_555 1_555
C26 C27 1_555 1_555
Zn1A O1A 1_555 1_555
Zn1A_2 O4A 1_555 1_555

#END
