
#######################################################################
#
#                 Cambridge Crystallographic Data Centre
#                                CCDC 
#
#######################################################################
#
# If this CIF has been generated from an entry in the Cambridge 
# Structural Database, then it will include bibliographic, chemical, 
# crystal, experimental, refinement or atomic coordinate data resulting 
# from the CCDC's data processing and validation procedures.
#
#######################################################################

data_NEJYUY
_symmetry_cell_setting           monoclinic
_symmetry_space_group_name_H-M   'P 21/c'
_symmetry_Int_Tables_number      14
_space_group_name_Hall           '-P 2ybc'
loop_
_symmetry_equiv_pos_site_id
_symmetry_equiv_pos_as_xyz
1 x,y,z
2 -x,1/2+y,1/2-z
3 -x,-y,-z
4 x,1/2-y,1/2+z
_cell_length_a                   7.776(4)
_cell_length_b                   36.009(5)
_cell_length_c                   16.053(3)
_cell_angle_alpha                90
_cell_angle_beta                 95.234(5)
_cell_angle_gamma                90
_cell_volume                     4476.19
loop_
_atom_site_label
_atom_site_type_symbol
_atom_site_fract_x
_atom_site_fract_y
_atom_site_fract_z
Cd1 Cd 0.14041(5) 0.132106(11) 0.37596(2)
Cd2 Cd -0.36166(5) 0.130330(11) 0.38885(2)
O1 O 0.1248(5) 0.17270(11) 0.5110(2)
O2 O -0.0725(5) 0.13156(10) 0.4639(2)
O3 O 0.6159(5) 0.07660(11) 0.4780(2)
O4 O 0.3946(5) 0.11504(11) 0.4612(2)
O5 O 0.1599(5) 0.17974(11) 0.2877(2)
O6 O 0.3941(5) 0.14470(11) 0.2935(2)
O7 O -0.3262(5) 0.08476(11) 0.2782(2)
O8 O -0.1703(5) 0.13627(10) 0.2877(2)
N1 N -0.5874(6) 0.20543(14) 0.8782(3)
N2 N -0.4099(6) 0.17601(14) 0.7965(3)
N3 N -0.0953(6) -0.07128(13) 0.6530(3)
N4 N 0.0396(6) -0.01679(12) 0.6469(3)
N5 N 0.6275(6) 0.30913(13) -0.0674(3)
N6 N 0.5857(6) 0.26229(12) 0.0195(3)
N7 N 0.3408(7) 0.03136(14) -0.0974(3)
N8 N 0.1650(6) 0.06499(14) -0.0221(3)
C1 C -0.5124(7) 0.20648(17) 0.8083(4)
H1 H -0.5269 0.2260 0.7703
C2 C -0.4194(7) 0.15286(18) 0.8656(4)
C3 C -0.3445(7) 0.11944(18) 0.8885(4)
H2 H -0.2764 0.1066 0.8535
C4 C -0.3759(8) 0.10579(18) 0.9667(3)
H3 H -0.3254 0.0835 0.9850
C5 C -0.4810(8) 0.12464(19) 1.0182(4)
H4 H -0.4995 0.1147 1.0701
C6 C -0.5574(8) 0.15758(19) 0.9938(4)
H5 H -0.6274 0.1700 1.0286
C7 C -0.5291(7) 0.17216(18) 0.9168(4)
C8 C -0.3066(7) 0.17038(16) 0.7276(3)
C9 C -0.3161(7) 0.13697(17) 0.6850(3)
H6 H -0.3871 0.1180 0.7009
C10 C -0.2172(7) 0.13237(17) 0.6177(3)
H7 H -0.2217 0.1100 0.5886
C11 C -0.1030(7) 0.19372(16) 0.6379(3)
H8 H -0.0312 0.2127 0.6226
C12 C -0.2000(7) 0.19868(17) 0.7054(3)
H9 H -0.1933 0.2208 0.7353
C13 C -0.1115(7) 0.16090(15) 0.5932(3)
C14 C -0.0108(7) 0.15569(17) 0.5191(3)
C15 C 0.0305(7) -0.05304(15) 0.6225(3)
H10 H 0.1059 -0.0637 0.5876
C16 C -0.1772(7) -0.04548(16) 0.7017(3)
C17 C -0.3146(7) -0.05019(17) 0.7500(3)
H11 H -0.3711 -0.0729 0.7523
C18 C -0.3644(7) -0.01968(16) 0.7948(3)
H12 H -0.4571 -0.0219 0.8272
C19 C -0.2779(7) 0.01457(16) 0.7923(3)
H13 H -0.3146 0.0345 0.8230
C20 C -0.1392(7) 0.01916(16) 0.7448(3)
H14 H -0.0797 0.0415 0.7439
C21 C -0.0936(7) -0.01126(16) 0.6989(3)
C22 C 0.1529(7) 0.01011(16) 0.6155(3)
C23 C 0.0855(7) 0.04357(15) 0.5861(3)
H15 H -0.0300 0.0492 0.5906
C24 C 0.1901(7) 0.06829(16) 0.5504(3)
H16 H 0.1462 0.0912 0.5324
C25 C 0.3262(7) 0.00179(16) 0.6118(3)
H17 H 0.3718 -0.0203 0.6343
C26 C 0.4306(7) 0.02675(15) 0.5740(3)
H18 H 0.5469 0.0214 0.5711
C27 C 0.3624(7) 0.05953(16) 0.5408(3)
C28 C 0.4641(8) 0.08512(16) 0.4908(3)
C29 C 0.5330(7) 0.29635(16) -0.0097(3)
H19 H 0.4402 0.3092 0.0091
C30 C 0.7501(7) 0.28186(15) -0.0778(3)
C31 C 0.8832(7) 0.28134(16) -0.1306(3)
H20 H 0.8985 0.3007 -0.1676
C32 C 0.9907(7) 0.25091(16) -0.1256(3)
H21 H 1.0834 0.2503 -0.1583
C33 C 0.9647(7) 0.22074(16) -0.0725(3)
H22 H 1.0390 0.2005 -0.0717
C34 C 0.8307(7) 0.22068(17) -0.0217(3)
H23 H 0.8100 0.2005 0.0121
C35 C 0.7283(7) 0.25234(16) -0.0236(3)
C36 C 0.5126(7) 0.24203(16) 0.0838(3)
C37 C 0.6234(7) 0.22036(16) 0.1377(3)
H24 H 0.7422 0.2212 0.1344
C38 C 0.5547(7) 0.19790(16) 0.1953(3)
H25 H 0.6269 0.1823 0.2288
C39 C 0.3785(7) 0.19819(15) 0.2039(3)
C40 C 0.2716(7) 0.22187(15) 0.1536(3)
H26 H 0.1547 0.2232 0.1614
C41 C 0.3370(7) 0.24336(16) 0.0921(3)
H27 H 0.2645 0.2583 0.0573
C42 C 0.3076(7) 0.17280(15) 0.2661(3)
C43 C 0.2700(8) 0.03423(17) -0.0265(4)
H28 H 0.2886 0.0171 0.0167
C44 C 0.2796(7) 0.06248(17) -0.1430(4)
C45 C 0.3135(7) 0.07355(18) -0.2228(4)
H29 H 0.3838 0.0595 -0.2544
C46 C 0.2385(8) 0.10650(19) -0.2538(4)
H30 H 0.2619 0.1149 -0.3064
C47 C 0.1292(8) 0.12714(17) -0.2075(4)
H31 H 0.0777 0.1485 -0.2310
C48 C 0.0951(7) 0.11699(19) -0.1284(3)
H32 H 0.0254 0.1313 -0.0969
C49 C 0.1718(7) 0.08359(17) -0.0974(3)
C50 C 0.0668(7) 0.07515(17) 0.0457(3)
C51 C -0.0321(7) 0.04862(17) 0.0818(3)
H33 H -0.0333 0.0242 0.0628
C52 C -0.1301(7) 0.05893(17) 0.1470(3)
H34 H -0.1994 0.0415 0.1705
C53 C -0.1239(7) 0.09527(16) 0.1769(3)
C54 C -0.0216(7) 0.12153(16) 0.1400(3)
H35 H -0.0163 0.1458 0.1598
C55 C 0.0717(7) 0.11128(17) 0.0739(3)
H36 H 0.1377 0.1288 0.0487
C56 C -0.2161(7) 0.10581(17) 0.2509(3)
Cd1B Cd -0.14041(5) -0.132106(11) 0.62404(2)
Cd2_2 Cd 0.63834(5) 0.130330(11) 0.38885(2)
Cd2C Cd 0.63834(5) 0.369670(11) -0.11115(2)
O3_2 O -0.3841(5) 0.07660(11) 0.4780(2)
O4_2 O -0.6054(5) 0.11504(11) 0.4612(2)
O6_2 O -0.6059(5) 0.14470(11) 0.2935(2)
N3B N 0.0953(6) 0.07128(13) 0.3470(3)
N5C N -0.3725(6) 0.19087(13) 0.4326(3)
loop_
_geom_bond_atom_site_label_1
_geom_bond_atom_site_label_2
_geom_bond_site_symmetry_1
_geom_bond_site_symmetry_2
Cd1 O1 1_555 1_555
Cd2 O2 1_555 1_555
O1 C14 1_555 1_555
O2 Cd1 1_555 1_555
O3 C28 1_555 1_555
O4 Cd1 1_555 1_555
O5 Cd1 1_555 1_555
O6 Cd1 1_555 1_555
O7 Cd2 1_555 1_555
O8 Cd2 1_555 1_555
N1 C1 1_555 1_555
N2 C1 1_555 1_555
N3 C15 1_555 1_555
N4 C15 1_555 1_555
N5 C29 1_555 1_555
N6 C29 1_555 1_555
N7 C43 1_555 1_555
N8 C43 1_555 1_555
C1 H1 1_555 1_555
C2 N2 1_555 1_555
C3 C2 1_555 1_555
H2 C3 1_555 1_555
C4 C3 1_555 1_555
H3 C4 1_555 1_555
C5 C4 1_555 1_555
H4 C5 1_555 1_555
C6 C5 1_555 1_555
H5 C6 1_555 1_555
C7 N1 1_555 1_555
C8 N2 1_555 1_555
C9 C8 1_555 1_555
H6 C9 1_555 1_555
C10 C9 1_555 1_555
H7 C10 1_555 1_555
C11 H8 1_555 1_555
C12 C8 1_555 1_555
H9 C12 1_555 1_555
C13 C10 1_555 1_555
C14 O2 1_555 1_555
C15 H10 1_555 1_555
C16 N3 1_555 1_555
C17 C16 1_555 1_555
H11 C17 1_555 1_555
C18 C17 1_555 1_555
H12 C18 1_555 1_555
C19 C18 1_555 1_555
H13 C19 1_555 1_555
C20 C19 1_555 1_555
H14 C20 1_555 1_555
C21 N4 1_555 1_555
C22 N4 1_555 1_555
C23 C22 1_555 1_555
H15 C23 1_555 1_555
C24 C23 1_555 1_555
H16 C24 1_555 1_555
C25 C22 1_555 1_555
H17 C25 1_555 1_555
C26 C25 1_555 1_555
H18 C26 1_555 1_555
C27 C24 1_555 1_555
C28 O4 1_555 1_555
C29 H19 1_555 1_555
C30 N5 1_555 1_555
C31 C30 1_555 1_555
H20 C31 1_555 1_555
C32 C31 1_555 1_555
H21 C32 1_555 1_555
C33 C32 1_555 1_555
H22 C33 1_555 1_555
C34 C33 1_555 1_555
H23 C34 1_555 1_555
C35 N6 1_555 1_555
C36 N6 1_555 1_555
C37 C36 1_555 1_555
H24 C37 1_555 1_555
C38 C37 1_555 1_555
H25 C38 1_555 1_555
C39 C38 1_555 1_555
C40 C39 1_555 1_555
H26 C40 1_555 1_555
C41 C36 1_555 1_555
H27 C41 1_555 1_555
C42 O5 1_555 1_555
C43 H28 1_555 1_555
C44 N7 1_555 1_555
C45 C44 1_555 1_555
H29 C45 1_555 1_555
C46 C45 1_555 1_555
H30 C46 1_555 1_555
C47 C46 1_555 1_555
H31 C47 1_555 1_555
C48 C47 1_555 1_555
H32 C48 1_555 1_555
C49 N8 1_555 1_555
C50 N8 1_555 1_555
C51 C50 1_555 1_555
H33 C51 1_555 1_555
C52 C51 1_555 1_555
H34 C52 1_555 1_555
C53 C52 1_555 1_555
C54 C53 1_555 1_555
H35 C54 1_555 1_555
C55 C50 1_555 1_555
H36 C55 1_555 1_555
C56 O7 1_555 1_555
Cd1B N3 1_555 1_555
Cd2_2 O3 1_555 1_555
Cd2C N5 1_555 1_555
O3_2 Cd2 1_555 1_555
O4_2 Cd2 1_555 1_555
O6_2 Cd2 1_555 1_555
N3B Cd1 1_555 1_555
N5C Cd2 1_555 1_555
O4 Cd2_2 1_555 1_555
O6 C42 1_555 1_555
O6 Cd2_2 1_555 1_555
O8 C56 1_555 1_555
C2 C7 1_555 1_555
C6 C7 1_555 1_555
C11 C12 1_555 1_555
C11 C13 1_555 1_555
C13 C14 1_555 1_555
C16 C21 1_555 1_555
C20 C21 1_555 1_555
C26 C27 1_555 1_555
C27 C28 1_555 1_555
C30 C35 1_555 1_555
C34 C35 1_555 1_555
C39 C42 1_555 1_555
C40 C41 1_555 1_555
C44 C49 1_555 1_555
C48 C49 1_555 1_555
C53 C56 1_555 1_555
C54 C55 1_555 1_555

#END
