
#######################################################################
#
#                 Cambridge Crystallographic Data Centre
#                                CCDC 
#
#######################################################################
#
# If this CIF has been generated from an entry in the Cambridge 
# Structural Database, then it will include bibliographic, chemical, 
# crystal, experimental, refinement or atomic coordinate data resulting 
# from the CCDC's data processing and validation procedures.
#
#######################################################################

data_NEKMOH
_symmetry_cell_setting           monoclinic
_symmetry_space_group_name_H-M   'P 21/n'
_symmetry_Int_Tables_number      14
_space_group_name_Hall           '-P 2yn'
loop_
_symmetry_equiv_pos_site_id
_symmetry_equiv_pos_as_xyz
1 x,y,z
2 1/2-x,1/2+y,1/2-z
3 -x,-y,-z
4 1/2+x,1/2-y,1/2+z
_cell_length_a                   16.091(3)
_cell_length_b                   4.791(5)
_cell_length_c                   17.296(7)
_cell_angle_alpha                90
_cell_angle_beta                 107.557(2)
_cell_angle_gamma                90
_cell_volume                     1271.27
loop_
_atom_site_label
_atom_site_type_symbol
_atom_site_fract_x
_atom_site_fract_y
_atom_site_fract_z
Mn1 Mn 0.5000 0.0000 0.5000
O1 O 0.82439(12) -0.9804(4) 0.86012(12)
O2 O 0.85913(10) -0.6141(3) 0.94430(9)
O3 O 0.60768(10) -0.1387(4) 1.00396(10)
H1 H 0.5820 -0.0341 1.0266
O4 O 0.47220(10) -0.2213(3) 0.92502(10)
O5 O 0.51190(10) -0.9450(3) 0.72464(9)
O6 O 0.44431(10) -0.2711(3) 0.57346(9)
O7 O 0.52207(9) -0.6650(3) 0.58637(9)
C1 C 0.80562(14) -0.7575(4) 0.89516(13)
C2 C 0.70995(14) -0.6982(4) 0.87205(13)
C3 C 0.65281(14) -0.8417(4) 0.80820(13)
H2 H 0.6740 -0.9715 0.7789
C4 C 0.56359(14) -0.7910(5) 0.78815(13)
C5 C 0.53167(14) -0.6026(5) 0.83259(13)
H3 H 0.4720 -0.5711 0.8196
C6 C 0.58903(15) -0.4606(4) 0.89668(13)
C7 C 0.67870(14) -0.5046(4) 0.91686(14)
H4 H 0.7169 -0.4069 0.9593
C8 C 0.55115(14) -0.2627(4) 0.94317(13)
C9 C 0.42414(14) -0.8704(5) 0.69324(13)
C10 C 0.36476(16) -1.0139(5) 0.72106(14)
H5 H 0.3840 -1.1424 0.7630
C11 C 0.27649(16) -0.9666(5) 0.68658(15)
H6 H 0.2361 -1.0692 0.7036
C12 C 0.24843(14) -0.7665(5) 0.62688(14)
H7 H 0.1891 -0.7339 0.6038
C13 C 0.30863(14) -0.6139(5) 0.60132(13)
H8 H 0.2892 -0.4747 0.5626
C14 C 0.39760(14) -0.6659(4) 0.63269(13)
C15 C 0.45853(15) -0.5182(4) 0.59563(13)
H9 H 0.872(2) -1.021(6) 0.880(2)
Mn1_2 Mn 0.5000 -1.0000 0.5000
Mn1A Mn 0.0000 -0.5000 0.0000
Mn1A_2 Mn 1.0000 -0.5000 1.0000
O1B O 0.17561(12) -0.0196(4) 0.13988(12)
O2B O 0.14087(10) -0.3859(3) 0.05570(9)
O2A O 0.64087(10) -0.1141(3) 0.55570(9)
O2C O 0.35913(10) 0.1141(3) 0.44430(9)
O3B O 0.39232(10) -0.8613(4) -0.00396(10)
H1B H 0.4180 -0.9659 -0.0266
O4B O 0.52780(10) -0.7787(3) 0.07498(10)
O5B O 0.48810(10) -0.0550(3) 0.27536(9)
O6B O 0.55569(10) -0.7289(3) 0.42654(9)
O6B_2 O 0.55569(10) 0.2711(3) 0.42654(9)
O7B O 0.47793(9) -0.3350(3) 0.41363(9)
O7_2 O 0.52207(9) 0.3350(3) 0.58637(9)
C1B C 0.19438(14) -0.2425(4) 0.10484(13)
C2B C 0.29005(14) -0.3018(4) 0.12795(13)
C3B C 0.34719(14) -0.1583(4) 0.19180(13)
H2B H 0.3260 -0.0285 0.2211
C4B C 0.43641(14) -0.2090(5) 0.21185(13)
C5B C 0.46833(14) -0.3974(5) 0.16741(13)
H3B H 0.5280 -0.4289 0.1804
C6B C 0.41097(15) -0.5394(4) 0.10332(13)
C7B C 0.32130(14) -0.4954(4) 0.08314(14)
H4B H 0.2831 -0.5931 0.0407
C8B C 0.44885(14) -0.7373(4) 0.05683(13)
C9B C 0.57586(14) -0.1296(5) 0.30676(13)
C10B C 0.63524(16) 0.0139(5) 0.27894(14)
H5B H 0.6160 0.1424 0.2370
C11B C 0.72351(16) -0.0334(5) 0.31342(15)
H6B H 0.7639 0.0692 0.2964
C12B C 0.75157(14) -0.2335(5) 0.37312(14)
H7B H 0.8109 -0.2661 0.3962
C13B C 0.69137(14) -0.3861(5) 0.39868(13)
H8B H 0.7108 -0.5253 0.4374
C14B C 0.60240(14) -0.3341(4) 0.36731(13)
C15B C 0.54147(15) -0.4818(4) 0.40437(13)
H9B H 0.128(2) 0.021(6) 0.120(2)
loop_
_geom_bond_atom_site_label_1
_geom_bond_atom_site_label_2
_geom_bond_site_symmetry_1
_geom_bond_site_symmetry_2
Mn1 O6 1_555 1_555
O1 C1 1_555 1_555
O2 C1 1_555 1_555
O3 H1 1_555 1_555
O4 C8 1_555 1_555
O5 C4 1_555 1_555
O6 C15 1_555 1_555
O7 C15 1_555 1_555
C1 C2 1_555 1_555
C2 C3 1_555 1_555
C3 H2 1_555 1_555
C4 C3 1_555 1_555
C5 C4 1_555 1_555
H3 C5 1_555 1_555
C6 C5 1_555 1_555
C7 C2 1_555 1_555
H4 C7 1_555 1_555
C8 O3 1_555 1_555
C9 O5 1_555 1_555
C10 C9 1_555 1_555
H5 C10 1_555 1_555
C11 C10 1_555 1_555
H6 C11 1_555 1_555
C12 C11 1_555 1_555
H7 C12 1_555 1_555
C13 C12 1_555 1_555
H8 C13 1_555 1_555
C14 C9 1_555 1_555
C15 C14 1_555 1_555
H9 O1 1_555 1_555
Mn1_2 O7 1_555 1_555
Mn1A O2B 1_555 1_555
Mn1A_2 O2 1_555 1_555
O1B C1B 1_555 1_555
O2B C1B 1_555 1_555
O2A Mn1 1_555 1_555
O2C Mn1 1_555 1_555
O3B H1B 1_555 1_555
O4B C8B 1_555 1_555
O5B C4B 1_555 1_555
O6B Mn1_2 1_555 1_555
O6B_2 Mn1 1_555 1_555
O7B Mn1 1_555 1_555
O7_2 Mn1 1_555 1_555
C1B C2B 1_555 1_555
C2B C3B 1_555 1_555
C3B H2B 1_555 1_555
C4B C3B 1_555 1_555
C5B C4B 1_555 1_555
H3B C5B 1_555 1_555
C6B C5B 1_555 1_555
C7B C2B 1_555 1_555
H4B C7B 1_555 1_555
C8B O3B 1_555 1_555
C9B O5B 1_555 1_555
C10B C9B 1_555 1_555
H5B C10B 1_555 1_555
C11B C10B 1_555 1_555
H6B C11B 1_555 1_555
C12B C11B 1_555 1_555
H7B C12B 1_555 1_555
C13B C12B 1_555 1_555
H8B C13B 1_555 1_555
C14B C9B 1_555 1_555
C15B O6B 1_555 1_555
H9B O1B 1_555 1_555
C6 C7 1_555 1_555
C6 C8 1_555 1_555
C13 C14 1_555 1_555
O7B C15B 1_555 1_555
C6B C7B 1_555 1_555
C6B C8B 1_555 1_555
C13B C14B 1_555 1_555
C14B C15B 1_555 1_555

#END
