
#######################################################################
#
#                 Cambridge Crystallographic Data Centre
#                                CCDC 
#
#######################################################################
#
# If this CIF has been generated from an entry in the Cambridge 
# Structural Database, then it will include bibliographic, chemical, 
# crystal, experimental, refinement or atomic coordinate data resulting 
# from the CCDC's data processing and validation procedures.
#
#######################################################################

data_NEKMEX
_symmetry_cell_setting           triclinic
_symmetry_space_group_name_H-M   'P -1'
_symmetry_Int_Tables_number      2
_space_group_name_Hall           '-P 1'
loop_
_symmetry_equiv_pos_site_id
_symmetry_equiv_pos_as_xyz
1 x,y,z
2 -x,-y,-z
_cell_length_a                   9.637(5)
_cell_length_b                   12.038(4)
_cell_length_c                   12.296(5)
_cell_angle_alpha                110.078(7)
_cell_angle_beta                 104.088(2)
_cell_angle_gamma                101.488(5)
_cell_volume                     1235.31
loop_
_atom_site_label
_atom_site_type_symbol
_atom_site_fract_x
_atom_site_fract_y
_atom_site_fract_z
Cd1 Cd 0.0000 0.5000 0.0000
Cd2 Cd -0.09190(7) 0.31982(6) -0.32285(5)
O1 O -0.1481(7) 0.4751(6) -0.1882(6)
O2 O -0.3653(7) 0.3425(6) -0.3291(6)
O3 O -0.8432(7) 0.3889(6) -0.2451(6)
O4 O -0.8138(7) 0.5475(6) -0.0693(7)
O5 O -0.3121(8) 0.8455(6) 0.0276(6)
O6 O -0.0350(7) 1.2931(6) -0.0915(6)
O7 O -0.1762(8) 1.1570(6) -0.2835(6)
O8 O -0.1142(11) 0.4301(8) -0.4391(7)
O9 O -0.1130(9) 0.1717(6) -0.5076(6)
N1 N -0.2498(12) 0.5496(10) -0.4871(10)
N2 N -0.2292(17) -0.0233(10) -0.6511(10)
C1 C -0.2946(10) 0.4397(9) -0.2344(9)
C2 C -0.3760(9) 0.5173(9) -0.1707(7)
C3 C -0.5253(11) 0.4695(9) -0.1896(8)
H1 H -0.5752 0.3865 -0.2427
C4 C -0.6049(9) 0.5405(8) -0.1323(8)
C5 C -0.7680(10) 0.4878(8) -0.1487(7)
C6 C -0.5314(10) 0.6693(9) -0.0590(8)
H2 H -0.5824 0.7195 -0.0206
C7 C -0.3836(9) 0.7189(8) -0.0456(8)
C8 C -0.3006(11) 0.6456(8) -0.0975(8)
H3 H -0.1994 0.6801 -0.0842
C9 C -0.2677(10) 0.9227(9) -0.0272(9)
C10 C -0.1939(12) 1.0480(9) 0.0515(8)
H4 H -0.1750 1.0745 0.1357
C11 C -0.1500(12) 1.1308(9) 0.0057(9)
H5 H -0.1006 1.2137 0.0595
C12 C -0.1765(11) 1.0957(8) -0.1201(8)
C13 C -0.2509(12) 0.9694(8) -0.1979(8)
H6 H -0.2699 0.9431 -0.2820
C14 C -0.2967(10) 0.8831(9) -0.1528(9)
H7 H -0.3461 0.7999 -0.2058
C15 C -0.1279(10) 1.1887(9) -0.1670(9)
C16 C -0.1318(15) 0.5320(12) -0.4234(11)
C17 C -0.0059(15) 0.6509(14) -0.3276(12)
H8 H -0.0366 0.7224 -0.3263
H9 H 0.0838 0.6551 -0.3491
H10 H 0.0139 0.6496 -0.2478
C18 C -0.3697(18) 0.4345(14) -0.5785(11)
H11 H -0.4513 0.4554 -0.6207
H12 H -0.4053 0.3860 -0.5374
H13 H -0.3303 0.3872 -0.6369
C19 C -0.2593(14) 0.6678(11) -0.4858(11)
H14 H -0.3565 0.6567 -0.5397
H15 H -0.1827 0.7018 -0.5133
H16 H -0.2449 0.7238 -0.4036
C20 C -0.2263(18) 0.0799(13) -0.5724(11)
C21 C -0.3833(14) 0.0925(16) -0.5671(12)
H17 H -0.4602 0.0150 -0.6214
H18 H -0.4023 0.1568 -0.5922
H19 H -0.3836 0.1134 -0.4845
C22 C -0.080(2) -0.0318(17) -0.6599(14)
H20 H -0.0923 -0.1121 -0.7208
H21 H -0.0147 -0.0206 -0.5816
H22 H -0.0360 0.0318 -0.6829
C23 C -0.370(3) -0.1284(16) -0.7226(17)
H23 H -0.3488 -0.1973 -0.7765
H24 H -0.4414 -0.1033 -0.7705
H25 H -0.4102 -0.1528 -0.6673
Cd1_2 Cd -1.0000 0.5000 0.0000
Cd1_3 Cd 0.0000 1.5000 0.0000
Cd1_4 Cd 1.0000 0.5000 0.0000
Cd1_5 Cd 1.0000 1.5000 0.0000
Cd2_2 Cd 0.90810(7) 0.31982(6) -0.32285(5)
Cd2_3 Cd -1.09190(7) 0.31982(6) -0.32285(5)
Cd2_4 Cd -0.09190(7) 1.31982(6) -0.32285(5)
Cd2_5 Cd 0.90810(7) 1.31982(6) -0.32285(5)
O1_2 O 0.8519(7) 0.4751(6) -0.1882(6)
O1A O 0.1481(7) 0.5249(6) 0.1882(6)
O2_2 O 0.6347(7) 0.3425(6) -0.3291(6)
O3_2 O 0.1568(7) 0.3889(6) -0.2451(6)
O3_3 O 1.1568(7) 0.3889(6) -0.2451(6)
O4_2 O 0.1862(7) 0.5475(6) -0.0693(7)
O4A O -0.1862(7) 0.4525(6) 0.0693(7)
O5_2 O 0.6879(8) 0.8455(6) 0.0276(6)
O6_2 O 0.9650(7) 1.2931(6) -0.0915(6)
O6_3 O -0.0350(7) 0.2931(6) -0.0915(6)
O6A O 0.0350(7) 0.7069(6) 0.0915(6)
O7_2 O 0.8238(8) 1.1570(6) -0.2835(6)
O7_3 O -0.1762(8) 0.1570(6) -0.2835(6)
O7_4 O 0.8238(8) 0.1570(6) -0.2835(6)
O8_2 O 0.8858(11) 0.4301(8) -0.4391(7)
O9_2 O 0.8870(9) 0.1717(6) -0.5076(6)
N1_2 N 0.7502(12) 0.5496(10) -0.4871(10)
N2_2 N 0.7708(17) -0.0233(10) -0.6511(10)
C1_2 C 0.7054(10) 0.4397(9) -0.2344(9)
C2_2 C 0.6240(9) 0.5173(9) -0.1707(7)
C3_2 C 0.4747(11) 0.4695(9) -0.1896(8)
H1_2 H 0.4248 0.3865 -0.2427
C4_2 C 0.3951(9) 0.5405(8) -0.1323(8)
C5_2 C 0.2320(10) 0.4878(8) -0.1487(7)
C6_2 C 0.4686(10) 0.6693(9) -0.0590(8)
H2_2 H 0.4176 0.7195 -0.0206
C7_2 C 0.6164(9) 0.7189(8) -0.0456(8)
C8_2 C 0.6994(11) 0.6456(8) -0.0975(8)
H3_2 H 0.8006 0.6801 -0.0842
C9_2 C 0.7323(10) 0.9227(9) -0.0272(9)
C10_2 C 0.8061(12) 1.0480(9) 0.0515(8)
H4_2 H 0.8250 1.0745 0.1357
C11_2 C 0.8500(12) 1.1308(9) 0.0057(9)
H5_2 H 0.8994 1.2137 0.0595
C12_2 C 0.8235(11) 1.0957(8) -0.1201(8)
C13_2 C 0.7491(12) 0.9694(8) -0.1979(8)
H6_2 H 0.7301 0.9431 -0.2820
C14_2 C 0.7033(10) 0.8831(9) -0.1528(9)
H7_2 H 0.6539 0.7999 -0.2058
C15_2 C 0.8721(10) 1.1887(9) -0.1670(9)
C16_2 C 0.8682(15) 0.5320(12) -0.4234(11)
C17_2 C 0.9941(15) 0.6509(14) -0.3276(12)
H8_2 H 0.9634 0.7224 -0.3263
H9_2 H 1.0838 0.6551 -0.3491
H10_2 H 1.0139 0.6496 -0.2478
C18_2 C 0.6303(18) 0.4345(14) -0.5785(11)
H11_2 H 0.5487 0.4554 -0.6207
H12_2 H 0.5947 0.3860 -0.5374
H13_2 H 0.6697 0.3872 -0.6369
C19_2 C 0.7407(14) 0.6678(11) -0.4858(11)
H14_2 H 0.6435 0.6567 -0.5397
H15_2 H 0.8173 0.7018 -0.5133
H16_2 H 0.7551 0.7238 -0.4036
C20_2 C 0.7737(18) 0.0799(13) -0.5724(11)
C21_2 C 0.6167(14) 0.0925(16) -0.5671(12)
H17_2 H 0.5398 0.0150 -0.6214
H18_2 H 0.5977 0.1568 -0.5922
H19_2 H 0.6164 0.1134 -0.4845
C22_2 C 0.920(2) -0.0318(17) -0.6599(14)
H20_2 H 0.9077 -0.1121 -0.7208
H21_2 H 0.9853 -0.0206 -0.5816
H22_2 H 0.9640 0.0318 -0.6829
C23_2 C 0.630(3) -0.1284(16) -0.7226(17)
H23_2 H 0.6512 -0.1973 -0.7765
H24_2 H 0.5586 -0.1033 -0.7705
H25_2 H 0.5898 -0.1528 -0.6673
loop_
_geom_bond_atom_site_label_1
_geom_bond_atom_site_label_2
_geom_bond_site_symmetry_1
_geom_bond_site_symmetry_2
Cd1 O1 1_555 1_555
Cd2 O1 1_555 1_555
O1 C1 1_555 1_555
O2 C1 1_555 1_555
O3 C5 1_555 1_555
O4 C5 1_555 1_555
O5 C7 1_555 1_555
O6 C15 1_555 1_555
O7 C15 1_555 1_555
O8 Cd2 1_555 1_555
O9 Cd2 1_555 1_555
N1 C16 1_555 1_555
N2 C20 1_555 1_555
C1 C2 1_555 1_555
C2 C3 1_555 1_555
C3 H1 1_555 1_555
C4 C3 1_555 1_555
C5 C4 1_555 1_555
C6 C4 1_555 1_555
H2 C6 1_555 1_555
C7 C6 1_555 1_555
C8 C2 1_555 1_555
H3 C8 1_555 1_555
C9 O5 1_555 1_555
C10 C9 1_555 1_555
H4 C10 1_555 1_555
C11 C10 1_555 1_555
H5 C11 1_555 1_555
C12 C11 1_555 1_555
C13 C12 1_555 1_555
H6 C13 1_555 1_555
C14 C9 1_555 1_555
H7 C14 1_555 1_555
C15 C12 1_555 1_555
C16 O8 1_555 1_555
C17 C16 1_555 1_555
H8 C17 1_555 1_555
H9 C17 1_555 1_555
H10 C17 1_555 1_555
C18 N1 1_555 1_555
H11 C18 1_555 1_555
H12 C18 1_555 1_555
H13 C18 1_555 1_555
C19 N1 1_555 1_555
H14 C19 1_555 1_555
H15 C19 1_555 1_555
H16 C19 1_555 1_555
C20 O9 1_555 1_555
C21 C20 1_555 1_555
H17 C21 1_555 1_555
H18 C21 1_555 1_555
H19 C21 1_555 1_555
C22 N2 1_555 1_555
H20 C22 1_555 1_555
H21 C22 1_555 1_555
H22 C22 1_555 1_555
C23 N2 1_555 1_555
H23 C23 1_555 1_555
H24 C23 1_555 1_555
H25 C23 1_555 1_555
Cd1_2 O4 1_555 1_555
Cd1_3 O6 1_555 1_555
Cd1_4 O1_2 1_555 1_555
Cd1_5 O6_2 1_555 1_555
Cd2_2 O1_2 1_555 1_555
Cd2_3 O3 1_555 1_555
Cd2_4 O7 1_555 1_555
Cd2_5 O7_2 1_555 1_555
O1_2 C1_2 1_555 1_555
O1A Cd1 1_555 1_555
O2_2 C1_2 1_555 1_555
O3_2 Cd2 1_555 1_555
O3_3 Cd2_2 1_555 1_555
O4_2 Cd1 1_555 1_555
O4A Cd1 1_555 1_555
O5_2 C7_2 1_555 1_555
O6_2 C15_2 1_555 1_555
O6_3 Cd1 1_555 1_555
O6A Cd1 1_555 1_555
O7_2 C15_2 1_555 1_555
O7_3 Cd2 1_555 1_555
O7_4 Cd2_2 1_555 1_555
O8_2 Cd2_2 1_555 1_555
O9_2 Cd2_2 1_555 1_555
N1_2 C16_2 1_555 1_555
N2_2 C20_2 1_555 1_555
C1_2 C2_2 1_555 1_555
C2_2 C3_2 1_555 1_555
C3_2 H1_2 1_555 1_555
C4_2 C3_2 1_555 1_555
C5_2 O3_2 1_555 1_555
C6_2 C4_2 1_555 1_555
H2_2 C6_2 1_555 1_555
C7_2 C6_2 1_555 1_555
C8_2 C2_2 1_555 1_555
H3_2 C8_2 1_555 1_555
C9_2 O5_2 1_555 1_555
C10_2 C9_2 1_555 1_555
H4_2 C10_2 1_555 1_555
C11_2 C10_2 1_555 1_555
H5_2 C11_2 1_555 1_555
C12_2 C11_2 1_555 1_555
C13_2 C12_2 1_555 1_555
H6_2 C13_2 1_555 1_555
C14_2 C9_2 1_555 1_555
H7_2 C14_2 1_555 1_555
C15_2 C12_2 1_555 1_555
C16_2 O8_2 1_555 1_555
C17_2 C16_2 1_555 1_555
H8_2 C17_2 1_555 1_555
H9_2 C17_2 1_555 1_555
H10_2 C17_2 1_555 1_555
C18_2 N1_2 1_555 1_555
H11_2 C18_2 1_555 1_555
H12_2 C18_2 1_555 1_555
H13_2 C18_2 1_555 1_555
C19_2 N1_2 1_555 1_555
H14_2 C19_2 1_555 1_555
H15_2 C19_2 1_555 1_555
H16_2 C19_2 1_555 1_555
C20_2 O9_2 1_555 1_555
C21_2 C20_2 1_555 1_555
H17_2 C21_2 1_555 1_555
H18_2 C21_2 1_555 1_555
H19_2 C21_2 1_555 1_555
C22_2 N2_2 1_555 1_555
H20_2 C22_2 1_555 1_555
H21_2 C22_2 1_555 1_555
H22_2 C22_2 1_555 1_555
C23_2 N2_2 1_555 1_555
H23_2 C23_2 1_555 1_555
H24_2 C23_2 1_555 1_555
H25_2 C23_2 1_555 1_555
C7 C8 1_555 1_555
C13 C14 1_555 1_555
O4_2 C5_2 1_555 1_555
C4_2 C5_2 1_555 1_555
C7_2 C8_2 1_555 1_555
C13_2 C14_2 1_555 1_555

#END
