
#######################################################################
#
#                 Cambridge Crystallographic Data Centre
#                                CCDC 
#
#######################################################################
#
# If this CIF has been generated from an entry in the Cambridge 
# Structural Database, then it will include bibliographic, chemical, 
# crystal, experimental, refinement or atomic coordinate data resulting 
# from the CCDC's data processing and validation procedures.
#
#######################################################################

data_NEKPID
_symmetry_cell_setting           monoclinic
_symmetry_space_group_name_H-M   'P 21/c'
_symmetry_Int_Tables_number      14
_space_group_name_Hall           '-P 2ybc'
loop_
_symmetry_equiv_pos_site_id
_symmetry_equiv_pos_as_xyz
1 x,y,z
2 -x,1/2+y,1/2-z
3 -x,-y,-z
4 x,1/2-y,1/2+z
_cell_length_a                   13.775(5)
_cell_length_b                   5.5726(8)
_cell_length_c                   23.069(6)
_cell_angle_alpha                90
_cell_angle_beta                 102.55(4)
_cell_angle_gamma                90
_cell_volume                     1728.52
loop_
_atom_site_label
_atom_site_type_symbol
_atom_site_fract_x
_atom_site_fract_y
_atom_site_fract_z
C1 C 0.18550(18) 0.2697(6) 0.63078(12)
H1 H 0.2089 0.4206 0.6233
C2 C 0.24857(19) 0.1070(6) 0.67662(13)
H2 H 0.2525 0.1772 0.7155
H3 H 0.2146 -0.0458 0.6760
C3 C 0.35346(18) 0.0596(5) 0.66916(11)
C4 C 0.4035(2) -0.1436(7) 0.69288(14)
H4 H 0.3717 -0.2534 0.7128
C5 C 0.4998(3) -0.1880(9) 0.68776(17)
H5 H 0.5324 -0.3261 0.7042
C6 C 0.5471(3) -0.0282(10) 0.65839(19)
H6 H 0.6119 -0.0577 0.6545
C7 C 0.4986(3) 0.1752(8) 0.63480(18)
H7 H 0.5309 0.2855 0.6153
C8 C 0.4020(2) 0.2180(6) 0.63977(14)
H8 H 0.3694 0.3558 0.6230
C9 C -0.01784(16) 0.1747(4) 0.63771(10)
C10 C -0.0226(2) 0.3616(5) 0.67667(12)
H9 H 0.0228 0.4872 0.6804
C11 C -0.0951(2) 0.3609(6) 0.70999(13)
H10 H -0.0986 0.4871 0.7359
C12 C -0.1619(2) 0.1752(6) 0.70504(13)
H11 H -0.2111 0.1768 0.7270
C13 C -0.1557(2) -0.0123(6) 0.66769(15)
H12 H -0.2000 -0.1398 0.6650
C14 C -0.08332(19) -0.0137(5) 0.63365(13)
H13 H -0.0795 -0.1416 0.6083
C15 C 0.2305(2) -0.5142(6) 0.46349(15)
H14 H 0.1995 -0.4922 0.4219
H15 H 0.2107 -0.6691 0.4762
C16 C 0.3413(2) -0.4999(8) 0.4727(2)
H16 H 0.3727 -0.6303 0.4977
H17 H 0.3615 -0.5079 0.4350
C17 C 0.3687(2) -0.2648(8) 0.5019(2)
H18 H 0.4243 -0.2826 0.5356
H19 H 0.3870 -0.1514 0.4742
C18 C 0.2831(2) -0.1855(8) 0.5207(2)
H20 H 0.2961 -0.1878 0.5637
H21 H 0.2687 -0.0212 0.5077
Li1 Li 0.0752(3) -0.3262(8) 0.52216(17)
O1 O 0.07810(13) -0.0678(3) 0.57507(8)
O2 O 0.03693(11) 0.3559(3) 0.54769(7)
O3 O 0.20167(12) -0.3267(4) 0.49839(8)
S1 S 0.07802(4) 0.18111(11) 0.59499(3)
Li1_2 Li 0.0752(3) 0.6738(8) 0.52216(17)
Li1B Li -0.0752(3) 0.3262(8) 0.47784(17)
O2_2 O 0.03693(11) -0.6441(3) 0.54769(7)
O2B O -0.03693(11) -0.3559(3) 0.45231(7)
loop_
_geom_bond_atom_site_label_1
_geom_bond_atom_site_label_2
_geom_bond_site_symmetry_1
_geom_bond_site_symmetry_2
C1 H1 1_555 1_555
C2 C1 1_555 1_555
H2 C2 1_555 1_555
H3 C2 1_555 1_555
C3 C2 1_555 1_555
C4 C3 1_555 1_555
H4 C4 1_555 1_555
C5 C4 1_555 1_555
H5 C5 1_555 1_555
C6 C5 1_555 1_555
H6 C6 1_555 1_555
C7 C6 1_555 1_555
H7 C7 1_555 1_555
C8 C3 1_555 1_555
H8 C8 1_555 1_555
C9 C10 1_555 1_555
C10 H9 1_555 1_555
C11 C10 1_555 1_555
H10 C11 1_555 1_555
C12 C11 1_555 1_555
H11 C12 1_555 1_555
C13 C12 1_555 1_555
H12 C13 1_555 1_555
C14 C9 1_555 1_555
H13 C14 1_555 1_555
C15 H14 1_555 1_555
H15 C15 1_555 1_555
C16 C15 1_555 1_555
H16 C16 1_555 1_555
H17 C16 1_555 1_555
C17 C16 1_555 1_555
H18 C17 1_555 1_555
H19 C17 1_555 1_555
C18 C17 1_555 1_555
H20 C18 1_555 1_555
H21 C18 1_555 1_555
Li1 O1 1_555 1_555
O1 S1 1_555 1_555
O2 S1 1_555 1_555
O3 C15 1_555 1_555
S1 C1 1_555 1_555
Li1_2 O2 1_555 1_555
Li1B O2 1_555 1_555
O2_2 Li1 1_555 1_555
O2B Li1 1_555 1_555
C7 C8 1_555 1_555
C9 S1 1_555 1_555
C13 C14 1_555 1_555
C18 O3 1_555 1_555
Li1 O3 1_555 1_555

#END
