
#######################################################################
#
#                 Cambridge Crystallographic Data Centre
#                                CCDC 
#
#######################################################################
#
# If this CIF has been generated from an entry in the Cambridge 
# Structural Database, then it will include bibliographic, chemical, 
# crystal, experimental, refinement or atomic coordinate data resulting 
# from the CCDC's data processing and validation procedures.
#
#######################################################################

data_NEKQUR
_symmetry_cell_setting           triclinic
_symmetry_space_group_name_H-M   'P -1'
_symmetry_Int_Tables_number      2
_space_group_name_Hall           '-P 1'
loop_
_symmetry_equiv_pos_site_id
_symmetry_equiv_pos_as_xyz
1 x,y,z
2 -x,-y,-z
_cell_length_a                   9.8064(4)
_cell_length_b                   14.1070(6)
_cell_length_c                   17.7991(7)
_cell_angle_alpha                74.497(1)
_cell_angle_beta                 85.240(1)
_cell_angle_gamma                70.980(1)
_cell_volume                     2243.16
loop_
_atom_site_label
_atom_site_type_symbol
_atom_site_fract_x
_atom_site_fract_y
_atom_site_fract_z
Mn1 Mn 0.92857(5) 0.68578(3) 0.58974(3)
Mn2 Mn 1.0000 0.5000 0.5000
Mn3 Mn 0.58434(5) 0.73399(3) 0.04767(3)
Mn4 Mn 0.5000 1.0000 0.0000
O1 O 0.8835(3) 0.76741(17) 0.47381(14)
O2 O 0.9097(3) 0.64311(17) 0.41372(14)
O3 O 0.6251(3) 0.75227(17) 0.15850(14)
O4 O 0.4963(2) 0.91829(18) 0.11915(13)
O5 O 1.1540(2) 0.44246(18) 0.41585(14)
O6 O 1.3269(3) 0.3074(2) 0.39567(18)
O7 O 1.8388(2) 0.30992(18) 0.41125(16)
O8 O 1.8692(2) 0.44268(18) 0.44060(14)
O9 O -0.1430(2) 0.71572(16) 0.02187(15)
O10 O -0.3242(2) 0.85884(15) -0.01397(13)
O11 O 0.3741(3) 0.9138(2) -0.03122(17)
O12 O 0.3542(3) 0.7632(2) 0.03469(18)
N1 N 0.8581(3) 0.8080(2) 0.65243(16)
N2 N 0.9596(3) 0.6055(2) 0.71730(15)
N3 N 0.6171(3) 0.6527(2) -0.05060(16)
N4 N 0.6407(3) 0.56189(19) 0.10252(16)
C1 C 0.7809(4) 0.8161(2) 0.34895(19)
C2 C 0.7300(3) 0.7902(2) 0.28946(18)
H1 H 0.7520 0.7210 0.2894
C3 C 0.6460(3) 0.8674(2) 0.22990(18)
C4 C 0.6216(5) 0.9698(3) 0.2294(2)
H2 H 0.5666 1.0218 0.1893
C5 C 0.6760(7) 0.9974(3) 0.2864(3)
C6 C 0.7543(6) 0.9194(3) 0.3465(2)
H3 H 0.7900 0.9366 0.3861
C7 C 0.8653(3) 0.7355(2) 0.41688(19)
C8 C 0.5859(3) 0.8440(2) 0.16473(18)
C9 C 0.6519(10) 1.1104(4) 0.2830(4)
H4 H 0.5517 1.1438 0.2914
H5 H 0.6801 1.1443 0.2328
H6 H 0.7087 1.1145 0.3227
C10 C 1.3897(3) 0.4557(2) 0.39933(19)
C11 C 1.5359(3) 0.4025(2) 0.40852(19)
H7 H 1.5699 0.3314 0.4131
C12 C 1.6309(3) 0.4557(2) 0.41089(19)
C13 C 1.5801(3) 0.5622(2) 0.4010(2)
H8 H 1.6447 0.5973 0.4030
C14 C 1.4342(4) 0.6179(2) 0.3881(2)
C15 C 1.3401(3) 0.5625(2) 0.3890(2)
H9 H 1.2418 0.5976 0.3824
C16 C 1.2861(3) 0.3975(3) 0.4033(2)
C17 C 1.7885(3) 0.3981(2) 0.42287(19)
C18 C 1.3796(5) 0.7341(3) 0.3773(3)
H10 H 1.2782 0.7555 0.3882
H11 H 1.4300 0.7525 0.4123
H12 H 1.3960 0.7680 0.3245
C19 C -0.0860(3) 0.8703(2) -0.03674(17)
C20 C 0.0572(3) 0.8307(2) -0.01139(19)
H13 H 0.0900 0.7659 0.0237
C21 C 0.1504(3) 0.8876(2) -0.0385(2)
C22 C 0.1005(3) 0.9829(3) -0.0937(2)
H14 H 0.1639 1.0203 -0.1129
C23 C -0.0401(3) 1.0230(2) -0.1203(2)
C24 C -0.1331(3) 0.9662(2) -0.08972(18)
H15 H -0.2294 0.9932 -0.1053
C25 C -0.1881(3) 0.8105(2) -0.00701(17)
C26 C 0.3030(3) 0.8517(3) -0.0089(2)
C27 C -0.0909(5) 1.1260(3) -0.1797(3)
H16 H -0.0124 1.1539 -0.1934
H17 H -0.1680 1.1731 -0.1581
H18 H -0.1248 1.1167 -0.2254
C28 C 0.7961(5) 0.9071(3) 0.6169(2)
H19 H 0.7918 0.9267 0.5627
C29 C 0.7381(7) 0.9818(3) 0.6567(3)
H20 H 0.6944 1.0505 0.6300
C30 C 0.7453(7) 0.9541(4) 0.7365(3)
H21 H 0.7062 1.0035 0.7647
C31 C 0.8107(5) 0.8526(3) 0.7741(3)
H22 H 0.8177 0.8325 0.8282
C32 C 0.8671(4) 0.7793(2) 0.7308(2)
C33 C 0.9288(3) 0.6666(2) 0.76728(19)
C34 C 0.9493(4) 0.6224(3) 0.8477(2)
H23 H 0.9294 0.6647 0.8820
C35 C 0.9981(4) 0.5181(3) 0.8753(2)
H24 H 1.0115 0.4887 0.9286
C36 C 1.0280(4) 0.4552(3) 0.8246(2)
H25 H 1.0604 0.3834 0.8428
C37 C 1.0082(3) 0.5030(2) 0.7453(2)
H26 H 1.0298 0.4616 0.7103
C38 C 0.5960(4) 0.7017(3) -0.1259(2)
H27 H 0.5700 0.7737 -0.1402
C39 C 0.6113(4) 0.6496(3) -0.1845(2)
H28 H 0.5965 0.6860 -0.2366
C40 C 0.6482(4) 0.5449(3) -0.1634(2)
H29 H 0.6607 0.5082 -0.2012
C41 C 0.6672(4) 0.4930(3) -0.0856(2)
H30 H 0.6901 0.4212 -0.0704
C42 C 0.6520(3) 0.5485(2) -0.0300(2)
C43 C 0.6709(3) 0.4984(2) 0.0546(2)
C44 C 0.7169(4) 0.3914(3) 0.0837(2)
H31 H 0.7373 0.3483 0.0501
C45 C 0.7322(4) 0.3497(3) 0.1635(2)
H32 H 0.7642 0.2782 0.1838
C46 C 0.7000(4) 0.4140(3) 0.2124(2)
H33 H 0.7081 0.3873 0.2662
C47 C 0.6550(4) 0.5198(3) 0.1796(2)
H34 H 0.6336 0.5639 0.2126
Mn1A Mn 1.07143(5) 0.31422(3) 0.41026(3)
Mn1A_2 Mn 2.07143(5) 0.31422(3) 0.41026(3)
Mn1A_3 Mn 0.07143(5) 0.31422(3) 0.41026(3)
Mn2_2 Mn 2.0000 0.5000 0.5000
Mn2_3 Mn 0.0000 0.5000 0.5000
Mn3A Mn 1.41566(5) 0.26601(3) 0.95233(3)
Mn3_2 Mn -0.41566(5) 0.73399(3) 0.04767(3)
Mn3_3 Mn 1.58434(5) 0.73399(3) 0.04767(3)
Mn4_2 Mn -0.5000 1.0000 0.0000
Mn4_3 Mn 1.5000 0.0000 1.0000
Mn4_4 Mn 1.5000 1.0000 0.0000
O1A O 1.1165(3) 0.23259(17) 0.52619(14)
O2A O 1.0903(3) 0.35689(17) 0.58628(14)
O3A O 1.3749(3) 0.24773(17) 0.84150(14)
O4A O 1.5037(2) 0.08171(18) 0.88085(13)
O4A_2 O 0.5037(2) 1.08171(18) -0.11915(13)
O5_2 O 0.1540(2) 0.44246(18) 0.41585(14)
O5A O 0.8460(2) 0.55754(18) 0.58415(14)
O6_2 O 0.3269(3) 0.3074(2) 0.39567(18)
O6A O 0.6731(3) 0.6926(2) 0.60433(18)
O7_2 O 0.8388(2) 0.30992(18) 0.41125(16)
O7A O 1.1612(2) 0.69008(18) 0.58875(16)
O8_2 O 0.8692(2) 0.44268(18) 0.44060(14)
O8A O 1.1308(2) 0.55732(18) 0.55940(14)
O9_2 O 0.8570(2) 0.71572(16) 0.02187(15)
O10_2 O 0.6758(2) 0.85884(15) -0.01397(13)
O10A O 0.3242(2) 1.14116(15) 0.01397(13)
O10A_2 O 1.3242(2) 0.14116(15) 1.01397(13)
O11_2 O 1.3741(3) 0.9138(2) -0.03122(17)
O11A O 0.6259(3) 1.0862(2) 0.03122(17)
O12_2 O 1.3542(3) 0.7632(2) 0.03469(18)
O12A O 1.6458(3) 0.2368(2) 0.96531(18)
N1A N 1.1419(3) 0.1920(2) 0.34757(16)
N2A N 1.0404(3) 0.3945(2) 0.28270(15)
N3A N 1.3829(3) 0.3473(2) 1.05060(16)
N4A N 1.3593(3) 0.43811(19) 0.89748(16)
C1A C 1.2191(4) 0.1839(2) 0.65105(19)
C2A C 1.2700(3) 0.2098(2) 0.71054(18)
H1A H 1.2480 0.2790 0.7106
C3A C 1.3540(3) 0.1326(2) 0.77010(18)
C4A C 1.3784(5) 0.0302(3) 0.7706(2)
H2A H 1.4334 -0.0218 0.8107
C5A C 1.3240(7) 0.0026(3) 0.7136(3)
C6A C 1.2457(6) 0.0806(3) 0.6535(2)
H3A H 1.2100 0.0634 0.6139
C7A C 1.1347(3) 0.2645(2) 0.58312(19)
C8A C 1.4141(3) 0.1560(2) 0.83527(18)
C9A C 1.3481(10) -0.1104(4) 0.7170(4)
H4A H 1.4483 -0.1438 0.7086
H5A H 1.3199 -0.1443 0.7672
H6A H 1.2913 -0.1145 0.6773
C10_2 C 0.3897(3) 0.4557(2) 0.39933(19)
C11_2 C 0.5359(3) 0.4025(2) 0.40852(19)
H7_2 H 0.5699 0.3314 0.4131
C12_2 C 0.6309(3) 0.4557(2) 0.41089(19)
C13_2 C 0.5801(3) 0.5622(2) 0.4010(2)
H8_2 H 0.6447 0.5973 0.4030
C14_2 C 0.4342(4) 0.6179(2) 0.3881(2)
C15_2 C 0.3401(3) 0.5625(2) 0.3890(2)
H9_2 H 0.2418 0.5976 0.3824
C16_2 C 0.2861(3) 0.3975(3) 0.4033(2)
C17_2 C 0.7885(3) 0.3981(2) 0.42287(19)
C18_2 C 0.3796(5) 0.7341(3) 0.3773(3)
H10_2 H 0.2782 0.7555 0.3882
H11_2 H 0.4300 0.7525 0.4123
H12_2 H 0.3960 0.7680 0.3245
C19_2 C 0.9140(3) 0.8703(2) -0.03674(17)
C20_2 C 1.0572(3) 0.8307(2) -0.01139(19)
H13_2 H 1.0900 0.7659 0.0237
C21_2 C 1.1504(3) 0.8876(2) -0.0385(2)
C22_2 C 1.1005(3) 0.9829(3) -0.0937(2)
H14_2 H 1.1639 1.0203 -0.1129
C23_2 C 0.9599(3) 1.0230(2) -0.1203(2)
C24_2 C 0.8669(3) 0.9662(2) -0.08972(18)
H15_2 H 0.7706 0.9932 -0.1053
C25_2 C 0.8119(3) 0.8105(2) -0.00701(17)
C26_2 C 1.3030(3) 0.8517(3) -0.0089(2)
C27_2 C 0.9091(5) 1.1260(3) -0.1797(3)
H16_2 H 0.9876 1.1539 -0.1934
H17_2 H 0.8320 1.1731 -0.1581
H18_2 H 0.8752 1.1167 -0.2254
C28A C 1.2039(5) 0.0929(3) 0.3831(2)
H19A H 1.2082 0.0733 0.4373
C29A C 1.2619(7) 0.0182(3) 0.3433(3)
H20A H 1.3056 -0.0505 0.3700
C30A C 1.2547(7) 0.0459(4) 0.2635(3)
H21A H 1.2938 -0.0035 0.2353
C31A C 1.1893(5) 0.1474(3) 0.2259(3)
H22A H 1.1823 0.1675 0.1718
C32A C 1.1329(4) 0.2207(2) 0.2692(2)
C33A C 1.0712(3) 0.3334(2) 0.23272(19)
C34A C 1.0507(4) 0.3776(3) 0.1523(2)
H23A H 1.0706 0.3353 0.1180
C35A C 1.0019(4) 0.4819(3) 0.1247(2)
H24A H 0.9885 0.5113 0.0714
C36A C 0.9720(4) 0.5448(3) 0.1754(2)
H25A H 0.9396 0.6166 0.1572
C37A C 0.9918(3) 0.4970(2) 0.2547(2)
H26A H 0.9702 0.5384 0.2897
C38A C 1.4040(4) 0.2983(3) 1.1259(2)
H27A H 1.4300 0.2263 1.1402
C39A C 1.3887(4) 0.3504(3) 1.1845(2)
H28A H 1.4035 0.3140 1.2366
C40A C 1.3518(4) 0.4551(3) 1.1634(2)
H29A H 1.3393 0.4918 1.2012
C41A C 1.3328(4) 0.5070(3) 1.0856(2)
H30A H 1.3099 0.5788 1.0704
C42A C 1.3480(3) 0.4515(2) 1.0300(2)
C43A C 1.3291(3) 0.5016(2) 0.9454(2)
C44A C 1.2831(4) 0.6086(3) 0.9163(2)
H31A H 1.2627 0.6517 0.9499
C45A C 1.2678(4) 0.6503(3) 0.8365(2)
H32A H 1.2358 0.7218 0.8162
C46A C 1.3000(4) 0.5860(3) 0.7876(2)
H33A H 1.2919 0.6127 0.7338
C47A C 1.3450(4) 0.4802(3) 0.8204(2)
H34A H 1.3664 0.4361 0.7874
O13 O 1.4766(7) 0.8990(5) 0.5126(3)
H35 H 1.396(5) 0.888(8) 0.516(5)
H36 H 1.485(10) 0.914(8) 0.555(3)
O14 O 1.1974(9) 0.8915(5) 0.5409(4)
H37 H 1.132(9) 0.902(8) 0.509(5)
H38 H 1.196(11) 0.841(6) 0.579(4)
H39? H 1.03(2) 0.994(9) 0.400(9)
H40? H 1.04(3) 0.891(10) 0.410(11)
O15? O 1.0120(15) 0.9412(10) 0.4319(9)
loop_
_geom_bond_atom_site_label_1
_geom_bond_atom_site_label_2
_geom_bond_site_symmetry_1
_geom_bond_site_symmetry_2
Mn1 O1 1_555 1_555
Mn2 O2 1_555 1_555
Mn3 O3 1_555 1_555
Mn4 O4 1_555 1_555
O1 C7 1_555 1_555
O2 C7 1_555 1_555
O3 C8 1_555 1_555
O4 C8 1_555 1_555
O5 Mn2 1_555 1_555
O6 C16 1_555 1_555
O7 C17 1_555 1_555
O8 C17 1_555 1_555
O9 C25 1_555 1_555
O10 C25 1_555 1_555
O11 Mn4 1_555 1_555
O12 Mn3 1_555 1_555
N1 Mn1 1_555 1_555
N2 Mn1 1_555 1_555
N3 Mn3 1_555 1_555
N4 Mn3 1_555 1_555
C1 C2 1_555 1_555
C2 H1 1_555 1_555
C3 C2 1_555 1_555
C4 C3 1_555 1_555
H2 C4 1_555 1_555
C5 C4 1_555 1_555
C6 C1 1_555 1_555
H3 C6 1_555 1_555
C7 C1 1_555 1_555
C8 C3 1_555 1_555
C9 C5 1_555 1_555
H4 C9 1_555 1_555
H5 C9 1_555 1_555
H6 C9 1_555 1_555
C10 C11 1_555 1_555
C11 H7 1_555 1_555
C12 C11 1_555 1_555
C13 C12 1_555 1_555
H8 C13 1_555 1_555
C14 C13 1_555 1_555
C15 C10 1_555 1_555
H9 C15 1_555 1_555
C16 O5 1_555 1_555
C17 C12 1_555 1_555
C18 C14 1_555 1_555
H10 C18 1_555 1_555
H11 C18 1_555 1_555
H12 C18 1_555 1_555
C19 C20 1_555 1_555
C20 H13 1_555 1_555
C21 C20 1_555 1_555
C22 C21 1_555 1_555
H14 C22 1_555 1_555
C23 C22 1_555 1_555
C24 C19 1_555 1_555
H15 C24 1_555 1_555
C25 C19 1_555 1_555
C26 O11 1_555 1_555
C27 C23 1_555 1_555
H16 C27 1_555 1_555
H17 C27 1_555 1_555
H18 C27 1_555 1_555
C28 N1 1_555 1_555
H19 C28 1_555 1_555
C29 C28 1_555 1_555
H20 C29 1_555 1_555
C30 C29 1_555 1_555
H21 C30 1_555 1_555
C31 C30 1_555 1_555
H22 C31 1_555 1_555
C32 N1 1_555 1_555
C33 N2 1_555 1_555
C34 C33 1_555 1_555
H23 C34 1_555 1_555
C35 C34 1_555 1_555
H24 C35 1_555 1_555
C36 C35 1_555 1_555
H25 C36 1_555 1_555
C37 N2 1_555 1_555
H26 C37 1_555 1_555
C38 N3 1_555 1_555
H27 C38 1_555 1_555
C39 C38 1_555 1_555
H28 C39 1_555 1_555
C40 C39 1_555 1_555
H29 C40 1_555 1_555
C41 C40 1_555 1_555
H30 C41 1_555 1_555
C42 N3 1_555 1_555
C43 N4 1_555 1_555
C44 C43 1_555 1_555
H31 C44 1_555 1_555
C45 C44 1_555 1_555
H32 C45 1_555 1_555
C46 C45 1_555 1_555
H33 C46 1_555 1_555
C47 N4 1_555 1_555
H34 C47 1_555 1_555
O13 H35 1_555 1_555
H36 O13 1_555 1_555
O14 H37 1_555 1_555
H38 O14 1_555 1_555
Mn1A O5 1_555 1_555
Mn1A_2 O7 1_555 1_555
Mn1A_3 O5_2 1_555 1_555
Mn2_2 O8 1_555 1_555
Mn2_3 O5_2 1_555 1_555
Mn3A O3A 1_555 1_555
Mn3_2 O10 1_555 1_555
Mn3_3 O12_2 1_555 1_555
Mn4_2 O10 1_555 1_555
Mn4_3 O4A 1_555 1_555
Mn4_4 O11_2 1_555 1_555
O1A Mn1A 1_555 1_555
O2A Mn2 1_555 1_555
O3A C8A 1_555 1_555
O4A C8A 1_555 1_555
O4A_2 Mn4 1_555 1_555
O5_2 C16_2 1_555 1_555
O5A Mn1 1_555 1_555
O6_2 Mn1A_3 1_555 1_555
O6A Mn1 1_555 1_555
O7_2 Mn1A 1_555 1_555
O7A Mn1 1_555 1_555
O8_2 Mn2 1_555 1_555
O8A Mn1 1_555 1_555
O9_2 C25_2 1_555 1_555
O10_2 Mn3 1_555 1_555
O10A Mn4 1_555 1_555
O10A_2 Mn3A 1_555 1_555
O11_2 C26_2 1_555 1_555
O11A Mn4 1_555 1_555
O12_2 C26_2 1_555 1_555
O12A Mn3A 1_555 1_555
N1A Mn1A 1_555 1_555
N2A Mn1A 1_555 1_555
N3A Mn3A 1_555 1_555
N4A Mn3A 1_555 1_555
C1A C2A 1_555 1_555
C2A H1A 1_555 1_555
C3A C2A 1_555 1_555
C4A C3A 1_555 1_555
H2A C4A 1_555 1_555
C5A C4A 1_555 1_555
C6A C1A 1_555 1_555
H3A C6A 1_555 1_555
C7A O1A 1_555 1_555
C8A C3A 1_555 1_555
C9A C5A 1_555 1_555
H4A C9A 1_555 1_555
H5A C9A 1_555 1_555
H6A C9A 1_555 1_555
C10_2 C11_2 1_555 1_555
C11_2 H7_2 1_555 1_555
C12_2 C11_2 1_555 1_555
C13_2 C12_2 1_555 1_555
H8_2 C13_2 1_555 1_555
C14_2 C13_2 1_555 1_555
C15_2 C10_2 1_555 1_555
H9_2 C15_2 1_555 1_555
C16_2 O6_2 1_555 1_555
C17_2 O7_2 1_555 1_555
C18_2 C14_2 1_555 1_555
H10_2 C18_2 1_555 1_555
H11_2 C18_2 1_555 1_555
H12_2 C18_2 1_555 1_555
C19_2 C20_2 1_555 1_555
C20_2 H13_2 1_555 1_555
C21_2 C20_2 1_555 1_555
C22_2 C21_2 1_555 1_555
H14_2 C22_2 1_555 1_555
C23_2 C22_2 1_555 1_555
C24_2 C19_2 1_555 1_555
H15_2 C24_2 1_555 1_555
C25_2 O10_2 1_555 1_555
C26_2 C21_2 1_555 1_555
C27_2 C23_2 1_555 1_555
H16_2 C27_2 1_555 1_555
H17_2 C27_2 1_555 1_555
H18_2 C27_2 1_555 1_555
C28A N1A 1_555 1_555
H19A C28A 1_555 1_555
C29A C28A 1_555 1_555
H20A C29A 1_555 1_555
C30A C29A 1_555 1_555
H21A C30A 1_555 1_555
C31A C30A 1_555 1_555
H22A C31A 1_555 1_555
C32A N1A 1_555 1_555
C33A N2A 1_555 1_555
C34A C33A 1_555 1_555
H23A C34A 1_555 1_555
C35A C34A 1_555 1_555
H24A C35A 1_555 1_555
C36A C35A 1_555 1_555
H25A C36A 1_555 1_555
C37A N2A 1_555 1_555
H26A C37A 1_555 1_555
C38A N3A 1_555 1_555
H27A C38A 1_555 1_555
C39A C38A 1_555 1_555
H28A C39A 1_555 1_555
C40A C39A 1_555 1_555
H29A C40A 1_555 1_555
C41A C40A 1_555 1_555
H30A C41A 1_555 1_555
C42A N3A 1_555 1_555
C43A N4A 1_555 1_555
C44A C43A 1_555 1_555
H31A C44A 1_555 1_555
C45A C44A 1_555 1_555
H32A C45A 1_555 1_555
C46A C45A 1_555 1_555
H33A C46A 1_555 1_555
C47A N4A 1_555 1_555
H34A C47A 1_555 1_555
Mn2 O5A 1_555 1_555
Mn2 O8A 1_555 1_555
Mn4 O10_2 1_555 1_555
O6 Mn1A 1_555 1_555
O8 Mn1A_2 1_555 1_555
O12 C26 1_555 1_555
C5 C6 1_555 1_555
C10 C16 1_555 1_555
C14 C15 1_555 1_555
C21 C26 1_555 1_555
C23 C24 1_555 1_555
C31 C32 1_555 1_555
C32 C33 1_555 1_555
C36 C37 1_555 1_555
C41 C42 1_555 1_555
C42 C43 1_555 1_555
C46 C47 1_555 1_555
Mn1A O8_2 1_555 1_555
Mn4_3 O10A_2 1_555 1_555
O2A C7A 1_555 1_555
O8_2 C17_2 1_555 1_555
C1A C7A 1_555 1_555
C5A C6A 1_555 1_555
C10_2 C16_2 1_555 1_555
C12_2 C17_2 1_555 1_555
C14_2 C15_2 1_555 1_555
C19_2 C25_2 1_555 1_555
C23_2 C24_2 1_555 1_555
C31A C32A 1_555 1_555
C32A C33A 1_555 1_555
C36A C37A 1_555 1_555
C41A C42A 1_555 1_555
C42A C43A 1_555 1_555
C46A C47A 1_555 1_555

#END
