
#######################################################################
#
#                 Cambridge Crystallographic Data Centre
#                                CCDC 
#
#######################################################################
#
# If this CIF has been generated from an entry in the Cambridge 
# Structural Database, then it will include bibliographic, chemical, 
# crystal, experimental, refinement or atomic coordinate data resulting 
# from the CCDC's data processing and validation procedures.
#
#######################################################################

data_NEKQOL
_symmetry_cell_setting           monoclinic
_symmetry_space_group_name_H-M   'P 2/c'
_symmetry_Int_Tables_number      13
_space_group_name_Hall           '-P 2yc'
loop_
_symmetry_equiv_pos_site_id
_symmetry_equiv_pos_as_xyz
1 x,y,z
2 -x,y,1/2-z
3 -x,-y,-z
4 x,-y,1/2+z
_cell_length_a                   7.8160(5)
_cell_length_b                   11.6678(8)
_cell_length_c                   13.1953(6)
_cell_angle_alpha                90
_cell_angle_beta                 124.316(3)
_cell_angle_gamma                90
_cell_volume                     993.898
loop_
_atom_site_label
_atom_site_type_symbol
_atom_site_fract_x
_atom_site_fract_y
_atom_site_fract_z
O6 O 0.1492(3) 0.90801(19) 0.9329(2)
H10 H 0.161(6) 0.9808(16) 0.934(3)
H11 H 0.120(6) 0.894(3) 0.985(3)
C1 C 0.5174(4) 0.5264(2) 0.3419(2)
H1 H 0.5312 0.5664 0.4071
C2 C 0.5158(4) 0.4086(2) 0.3446(2)
H2 H 0.5252 0.3706 0.4095
C3 C 0.5000 0.3472(3) 0.2500
C4 C 0.5000 0.2200(3) 0.2500
C5 C 0.3717(4) 0.1584(2) 0.2714(2)
H3 H 0.2842 0.1965 0.2870
C6 C 0.3745(4) 0.0405(2) 0.2694(3)
H4 H 0.2853 0.0003 0.2821
O1 O 0.141(4) 0.7913(11) 0.120(2)
C10 C -0.007(3) 0.4675(4) 0.2113(15)
H6 H -0.0089 0.3955 0.1805
C12 C 0.0023(18) 0.5847(8) 0.1370(9)
C13 C 0.001(2) 0.6828(4) 0.1964(10)
F1 F -0.0108(6) 0.5837(3) 0.0367(3)
C14 C -0.0043(11) 0.776(3) 0.1341(8)
O4 O -0.140(3) 0.8569(13) 0.1180(10)
Cd1 Cd 0.5000 0.783090(18) 0.2500
N1 N 0.5000 0.5864(2) 0.2500
N2 N 0.5000 -0.0190(2) 0.2500
O5 O 0.4953(3) 0.78095(14) 0.07231(17)
H8 H 0.606(3) 0.804(2) 0.082(3)
H9 H 0.397(3) 0.822(2) 0.023(2)
C1A C 0.4826(4) 0.5264(2) 0.1581(2)
H1A H 0.4688 0.5664 0.0929
C2A C 0.4842(4) 0.4086(2) 0.1554(2)
H2A H 0.4748 0.3706 0.0905
C5A C 0.6283(4) 0.1584(2) 0.2286(2)
H3A H 0.7158 0.1965 0.2130
C6A C 0.6255(4) 0.0405(2) 0.2306(3)
H4A H 0.7147 0.0003 0.2179
O1A O -0.141(4) 0.7913(11) 0.380(2)
O1A_2 O 0.859(4) 0.7913(11) 0.380(2)
C10A C 0.007(3) 0.4675(4) 0.2887(15)
H6A H 0.0089 0.3955 0.3195
C12A C -0.0023(18) 0.5847(8) 0.3630(9)
C13A C -0.001(2) 0.6828(4) 0.3036(10)
F1A F 0.0108(6) 0.5837(3) 0.4633(3)
C14A C 0.0043(11) 0.776(3) 0.3659(8)
O4A O 0.140(3) 0.8569(13) 0.3820(10)
Cd1_2 Cd 0.5000 -0.216910(18) 0.2500
Cd1_3 Cd -0.5000 0.783090(18) 0.2500
N2_2 N 0.5000 0.9810(2) 0.2500
O5A O 0.5047(3) 0.78095(14) 0.42769(17)
H8A H 0.394(3) 0.804(2) 0.418(3)
H9A H 0.603(3) 0.822(2) 0.477(2)
C7? C -0.0056(12) 0.801(3) 0.1371(8)
O2? O -0.167(3) 0.8505(16) 0.0813(10)
C8? C -0.0023(19) 0.6732(4) 0.1981(10)
C9? C -0.0053(15) 0.5655(8) 0.1520(8)
H5? H -0.0063 0.5591 0.0814
C11? C -0.005(3) 0.4771(5) 0.3168(15)
H7? H -0.0063 0.4115 0.3565
O3? O -0.142(4) 0.8219(11) 0.373(2)
loop_
_geom_bond_atom_site_label_1
_geom_bond_atom_site_label_2
_geom_bond_site_symmetry_1
_geom_bond_site_symmetry_2
C1 H1 1_555 1_555
C2 C1 1_555 1_555
H2 C2 1_555 1_555
C3 C2 1_555 1_555
C4 C3 1_555 1_555
C5 C4 1_555 1_555
H3 C5 1_555 1_555
C6 C5 1_555 1_555
H4 C6 1_555 1_555
O1 C14 1_555 1_555
C10 H6 1_555 1_555
C12 C10 1_555 1_555
C13 C12 1_555 1_555
F1 C12 1_555 1_555
C14 C13 1_555 1_555
O4 C14 1_555 1_555
Cd1 O1 1_555 1_555
N1 C1 1_555 1_555
N2 C6 1_555 1_555
O5 Cd1 1_555 1_555
H8 O5 1_555 1_555
H9 O5 1_555 1_555
O6 H10 1_555 1_555
H11 O6 1_555 1_555
C1A N1 1_555 1_555
H1A C1A 1_555 1_555
C2A C3 1_555 1_555
H2A C2A 1_555 1_555
C5A C4 1_555 1_555
H3A C5A 1_555 1_555
C6A N2 1_555 1_555
H4A C6A 1_555 1_555
O1A C14A 1_555 1_555
O1A_2 Cd1 1_555 1_555
C10A C10 1_555 1_555
H6A C10A 1_555 1_555
C12A C10A 1_555 1_555
C13A C13 1_555 1_555
F1A C12A 1_555 1_555
C14A C13A 1_555 1_555
O4A C14A 1_555 1_555
Cd1_2 N2 1_555 1_555
Cd1_3 O1A 1_555 1_555
N2_2 Cd1 1_555 1_555
O5A Cd1 1_555 1_555
H8A O5A 1_555 1_555
H9A O5A 1_555 1_555
Cd1 N1 1_555 1_555
C1A C2A 1_555 1_555
C5A C6A 1_555 1_555
C12A C13A 1_555 1_555

#END
