
#######################################################################
#
#                 Cambridge Crystallographic Data Centre
#                                CCDC 
#
#######################################################################
#
# If this CIF has been generated from an entry in the Cambridge 
# Structural Database, then it will include bibliographic, chemical, 
# crystal, experimental, refinement or atomic coordinate data resulting 
# from the CCDC's data processing and validation procedures.
#
#######################################################################

data_NEKRUS
_symmetry_cell_setting           triclinic
_symmetry_space_group_name_H-M   'P -1'
_symmetry_Int_Tables_number      2
_space_group_name_Hall           '-P 1'
loop_
_symmetry_equiv_pos_site_id
_symmetry_equiv_pos_as_xyz
1 x,y,z
2 -x,-y,-z
_cell_length_a                   9.4704(4)
_cell_length_b                   14.6546(7)
_cell_length_c                   19.3856(9)
_cell_angle_alpha                109.822(1)
_cell_angle_beta                 90.184(1)
_cell_angle_gamma                108.004(1)
_cell_volume                     2389.48
loop_
_atom_site_label
_atom_site_type_symbol
_atom_site_fract_x
_atom_site_fract_y
_atom_site_fract_z
Ni1 Ni 0.59486(4) 0.76203(3) 0.07161(2)
Ni2 Ni 0.5000 0.5000 0.0000
Ni3 Ni 0.94284(5) 0.81539(3) 0.57550(2)
Ni4 Ni 1.0000 1.0000 0.5000
O1 O 0.6225(3) 0.73208(17) 0.16364(12)
O2 O 0.5085(2) 0.56227(17) 0.11257(12)
O3 O 0.8929(3) 0.73779(18) 0.46753(12)
O4 O 0.9235(3) 0.85878(18) 0.41776(12)
O5 O 0.8415(3) 0.77872(17) 0.06143(13)
O6 O 0.6548(2) 0.63933(16) 0.00510(12)
O7 O 1.3464(2) 0.55697(17) -0.02228(12)
O8 O 1.3665(2) 0.71542(17) 0.05305(13)
O9 O 0.8869(2) 0.94141(17) 0.57369(12)
O10 O 0.7070(3) 0.81404(18) 0.58324(14)
O11 O 0.1806(3) 0.98280(19) 0.54002(14)
O12 O 0.1695(2) 0.85116(18) 0.57485(13)
N1 N 0.6179(3) 0.9118(2) 0.13302(15)
N2 N 0.6118(3) 0.8223(2) -0.01198(15)
N3 N 0.9133(3) 0.6860(2) 0.60048(16)
N4 N 0.9723(3) 0.8806(2) 0.68896(16)
C1 C 0.6674(4) 0.6257(2) 0.22333(17)
C2 C 0.7413(4) 0.7059(3) 0.28852(18)
H1 H 0.7442 0.7741 0.2963
C3 C 0.8109(4) 0.6850(3) 0.34232(18)
C4 C 0.8109(4) 0.5860(3) 0.32872(19)
H2 H 0.8590 0.5724 0.3654
C5 C 0.7429(4) 0.5065(3) 0.26338(19)
C6 C 0.6687(4) 0.5275(3) 0.21240(18)
H3 H 0.6166 0.4729 0.1684
C7 C 0.5924(3) 0.6417(2) 0.16191(17)
C8 C 0.8822(4) 0.7678(2) 0.41518(18)
C9 C 0.7499(5) 0.4005(3) 0.2473(2)
H4 H 0.7853 0.3951 0.2928
H5 H 0.8189 0.3872 0.2106
H6 H 0.6500 0.3500 0.2280
C10 C 0.8986(3) 0.6326(2) -0.01809(17)
C11 C 1.0482(3) 0.6646(2) 0.01032(17)
H7 H 1.0893 0.7256 0.0523
C12 C 1.1364(3) 0.6061(2) -0.02364(17)
C13 C 1.0750(4) 0.5185(2) -0.08597(17)
H8 H 1.1356 0.4785 -0.1088
C14 C 0.9277(4) 0.4881(2) -0.11563(17)
C15 C 0.8403(4) 0.5456(2) -0.08079(18)
H9 H 0.7385 0.5252 -0.1001
C16 C 0.7960(3) 0.6877(2) 0.01908(17)
C17 C 1.2961(3) 0.6289(2) 0.00592(17)
C18 C 0.8637(4) 0.3924(3) -0.1828(2)
H10 H 0.7675 0.3909 -0.2029
H11 H 0.8488 0.3318 -0.1691
H12 H 0.9331 0.3921 -0.2202
C19 C 0.6508(4) 0.9657(3) 0.59079(17)
C20 C 0.4958(4) 0.9187(3) 0.57867(18)
H13 H 0.4529 0.8470 0.5685
C21 C 0.4055(4) 0.9780(3) 0.58164(17)
C22 C 0.4699(4) 1.0825(3) 0.59757(18)
H14 H 0.4070 1.1223 0.5984
C23 C 0.6231(4) 1.1310(3) 0.61229(19)
C24 C 0.7126(4) 1.0707(3) 0.60851(18)
H15 H 0.8182 1.1020 0.6183
C25 C 0.7500(3) 0.9028(3) 0.58128(18)
C26 C 0.2384(4) 0.9324(3) 0.56355(17)
C27 C 0.6910(5) 1.2436(3) 0.6266(2)
H16 H 0.6378 1.2815 0.6625
H17 H 0.7966 1.2671 0.6462
H18 H 0.6829 1.2559 0.5803
C28 C 0.6191(4) 0.9536(3) 0.20468(19)
H19 H 0.5966 0.9104 0.2330
C29 C 0.6519(4) 1.0590(3) 0.2408(2)
H20 H 0.6510 1.0866 0.2927
C30 C 0.6855(4) 1.1222(3) 0.2009(2)
H21 H 0.7087 1.1942 0.2250
C31 C 0.6856(4) 1.0804(3) 0.1243(2)
C32 C 0.7164(4) 1.1391(3) 0.0768(2)
H22 H 0.7429 1.2118 0.0978
C33 C 0.7087(4) 1.0939(3) 0.0034(2)
H23 H 0.7272 1.1348 -0.0267
C34 C 0.6726(4) 0.9842(3) -0.0305(2)
C35 C 0.6590(4) 0.9318(3) -0.1069(2)
H24 H 0.6751 0.9687 -0.1397
C36 C 0.6223(4) 0.8274(3) -0.1337(2)
H25 H 0.6115 0.7909 -0.1854
C37 C 0.6006(4) 0.7748(3) -0.08420(19)
H26 H 0.5770 0.7022 -0.1032
C38 C 0.6455(3) 0.9254(2) 0.01477(18)
C39 C 0.6503(3) 0.9739(2) 0.09293(18)
C40 C 0.8856(4) 0.5905(3) 0.5555(2)
H27 H 0.8794 0.5761 0.5038
C41 C 0.8649(5) 0.5094(3) 0.5812(3)
H28 H 0.8499 0.4417 0.5475
C42 C 0.8664(5) 0.5282(4) 0.6545(3)
H29 H 0.8494 0.4733 0.6723
C43 C 0.8927(5) 0.6280(4) 0.7041(2)
C44 C 0.8976(5) 0.6560(5) 0.7822(3)
H30 H 0.8798 0.6042 0.8032
C45 C 0.9268(5) 0.7538(5) 0.8264(3)
H31 H 0.9293 0.7697 0.8782
C46 C 0.9543(4) 0.8350(4) 0.7982(2)
C47 C 0.9897(4) 0.9397(4) 0.8407(2)
H32 H 0.9966 0.9612 0.8931
C48 C 1.0143(5) 1.0106(4) 0.8077(2)
H33 H 1.0376 1.0814 0.8366
C49 C 1.0047(4) 0.9780(3) 0.7307(2)
H34 H 1.0222 1.0278 0.7078
C50 C 0.9483(4) 0.8101(3) 0.7213(2)
C51 C 0.9170(4) 0.7054(3) 0.6740(2)
Ni1A Ni 0.40514(4) 0.23797(3) -0.07161(2)
Ni1_2 Ni 1.59486(4) 0.76203(3) 0.07161(2)
Ni1A_2 Ni -0.59486(4) 0.23797(3) -0.07161(2)
Ni2_2 Ni 1.5000 0.5000 0.0000
Ni2_3 Ni -0.5000 0.5000 0.0000
Ni3A Ni 0.05716(5) 0.18461(3) -0.57550(2)
Ni3_2 Ni -0.05716(5) 0.81539(3) 0.57550(2)
Ni3_3 Ni 1.94284(5) 0.81539(3) 0.57550(2)
Ni4_2 Ni 0.0000 1.0000 0.5000
Ni4_3 Ni 0.0000 0.0000 -0.5000
Ni4_4 Ni 2.0000 1.0000 0.5000
O1A O 0.3775(3) 0.26792(17) -0.16364(12)
O2A O 0.4915(2) 0.43773(17) -0.11257(12)
O3A O 0.1071(3) 0.26221(18) -0.46753(12)
O4A O 0.0765(3) 0.14122(18) -0.41776(12)
O4A_2 O 1.0765(3) 1.14122(18) 0.58224(12)
O5A O 0.1585(3) 0.22128(17) -0.06143(13)
O6A O 0.3452(2) 0.36067(16) -0.00510(12)
O7A O -0.3464(2) 0.44303(17) 0.02228(12)
O7_2 O 0.3464(2) 0.55697(17) -0.02228(12)
O7A_2 O 0.6536(2) 0.44303(17) 0.02228(12)
O8A O -0.3665(2) 0.28458(17) -0.05305(13)
O8_2 O 0.3665(2) 0.71542(17) 0.05305(13)
O8A_2 O 0.6335(2) 0.28458(17) -0.05305(13)
O9_2 O 1.8869(2) 0.94141(17) 0.57369(12)
O9A O 1.1131(2) 1.05859(17) 0.42631(12)
O9A_2 O 0.1131(2) 0.05859(17) -0.57369(12)
O10_2 O 1.7070(3) 0.81404(18) 0.58324(14)
O10A O 0.2930(3) 0.18596(18) -0.58324(14)
O11_2 O 1.1806(3) 0.98280(19) 0.54002(14)
O11A O 0.8194(3) 1.01720(19) 0.45998(14)
O12_2 O 1.1695(2) 0.85116(18) 0.57485(13)
O12A O -0.1695(2) 0.14884(18) -0.57485(13)
N1A N 0.3821(3) 0.0882(2) -0.13302(15)
N2A N 0.3882(3) 0.1777(2) 0.01198(15)
N3A N 0.0867(3) 0.3140(2) -0.60048(16)
N4A N 0.0277(3) 0.1194(2) -0.68896(16)
C1A C 0.3326(4) 0.3743(2) -0.22333(17)
C2A C 0.2587(4) 0.2941(3) -0.28852(18)
H1A H 0.2558 0.2259 -0.2963
C3A C 0.1891(4) 0.3150(3) -0.34232(18)
C4A C 0.1891(4) 0.4140(3) -0.32872(19)
H2A H 0.1410 0.4276 -0.3654
C5A C 0.2571(4) 0.4935(3) -0.26338(19)
C6A C 0.3313(4) 0.4725(3) -0.21240(18)
H3A H 0.3834 0.5271 -0.1684
C7A C 0.4076(3) 0.3583(2) -0.16191(17)
C8A C 0.1178(4) 0.2322(2) -0.41518(18)
C9A C 0.2501(5) 0.5995(3) -0.2473(2)
H4A H 0.2147 0.6049 -0.2928
H5A H 0.1811 0.6128 -0.2106
H6A H 0.3500 0.6500 -0.2280
C10A C 0.1014(3) 0.3674(2) 0.01809(17)
C11A C -0.0482(3) 0.3354(2) -0.01032(17)
H7A H -0.0893 0.2744 -0.0523
C12A C -0.1364(3) 0.3939(2) 0.02364(17)
C13A C -0.0750(4) 0.4815(2) 0.08597(17)
H8A H -0.1356 0.5215 0.1088
C14A C 0.0723(4) 0.5119(2) 0.11563(17)
C15A C 0.1597(4) 0.4544(2) 0.08079(18)
H9A H 0.2615 0.4748 0.1001
C16A C 0.2040(3) 0.3123(2) -0.01908(17)
C17A C -0.2961(3) 0.3711(2) -0.00592(17)
C18A C 0.1363(4) 0.6076(3) 0.1828(2)
H10A H 0.2325 0.6091 0.2029
H11A H 0.1512 0.6682 0.1691
H12A H 0.0669 0.6079 0.2202
C19_2 C 1.6508(4) 0.9657(3) 0.59079(17)
C20_2 C 1.4958(4) 0.9187(3) 0.57867(18)
H13_2 H 1.4529 0.8470 0.5685
C21_2 C 1.4055(4) 0.9780(3) 0.58164(17)
C22_2 C 1.4699(4) 1.0825(3) 0.59757(18)
H14_2 H 1.4070 1.1223 0.5984
C23_2 C 1.6231(4) 1.1310(3) 0.61229(19)
C24_2 C 1.7126(4) 1.0707(3) 0.60851(18)
H15_2 H 1.8182 1.1020 0.6183
C25_2 C 1.7500(3) 0.9028(3) 0.58128(18)
C26_2 C 1.2384(4) 0.9324(3) 0.56355(17)
C27_2 C 1.6910(5) 1.2436(3) 0.6266(2)
H16_2 H 1.6378 1.2815 0.6625
H17_2 H 1.7966 1.2671 0.6462
H18_2 H 1.6829 1.2559 0.5803
C28A C 0.3809(4) 0.0464(3) -0.20468(19)
H19A H 0.4034 0.0896 -0.2330
C29A C 0.3481(4) -0.0590(3) -0.2408(2)
H20A H 0.3490 -0.0866 -0.2927
C30A C 0.3145(4) -0.1222(3) -0.2009(2)
H21A H 0.2913 -0.1942 -0.2250
C31A C 0.3144(4) -0.0804(3) -0.1243(2)
C32A C 0.2836(4) -0.1391(3) -0.0768(2)
H22A H 0.2571 -0.2118 -0.0978
C33A C 0.2913(4) -0.0939(3) -0.0034(2)
H23A H 0.2728 -0.1348 0.0267
C34A C 0.3274(4) 0.0158(3) 0.0305(2)
C35A C 0.3410(4) 0.0682(3) 0.1069(2)
H24A H 0.3249 0.0313 0.1397
C36A C 0.3777(4) 0.1726(3) 0.1337(2)
H25A H 0.3885 0.2091 0.1854
C37A C 0.3994(4) 0.2252(3) 0.08420(19)
H26A H 0.4230 0.2978 0.1032
C38A C 0.3545(3) 0.0746(2) -0.01477(18)
C39A C 0.3497(3) 0.0261(2) -0.09293(18)
C40A C 0.1144(4) 0.4095(3) -0.5555(2)
H27A H 0.1206 0.4239 -0.5038
C41A C 0.1351(5) 0.4906(3) -0.5812(3)
H28A H 0.1501 0.5583 -0.5475
C42A C 0.1336(5) 0.4718(4) -0.6545(3)
H29A H 0.1506 0.5267 -0.6723
C43A C 0.1073(5) 0.3720(4) -0.7041(2)
C44A C 0.1024(5) 0.3440(5) -0.7822(3)
H30A H 0.1202 0.3958 -0.8032
C45A C 0.0732(5) 0.2462(5) -0.8264(3)
H31A H 0.0707 0.2303 -0.8782
C46A C 0.0457(4) 0.1650(4) -0.7982(2)
C47A C 0.0103(4) 0.0603(4) -0.8407(2)
H32A H 0.0034 0.0388 -0.8931
C48A C -0.0143(5) -0.0106(4) -0.8077(2)
H33A H -0.0376 -0.0814 -0.8366
C49A C -0.0047(4) 0.0220(3) -0.7307(2)
H34A H -0.0222 -0.0278 -0.7078
C50A C 0.0517(4) 0.1899(3) -0.7213(2)
C51A C 0.0830(4) 0.2946(3) -0.6740(2)
O13 O 0.5316(5) 0.7347(4) -0.3193(2)
H35 H 0.602(4) 0.754(5) -0.344(3)
H36 H 0.450(3) 0.725(6) -0.344(3)
O14 O 1.7421(5) 1.3123(3) 0.4054(3)
H37 H 1.761(8) 1.257(3) 0.397(4)
H38 H 1.686(8) 1.318(6) 0.440(3)
O15 O 0.7233(16) 1.1301(12) -0.1716(9)
H39 H 0.805(11) 1.156(19) -0.187(11)
H40 H 0.652(14) 1.118(19) -0.204(9)
O16 O 1.5241(7) 1.3602(5) 0.5159(4)
H41 H 1.458(5) 1.387(4) 0.537(2)
H42 H 1.532(6) 1.378(4) 0.4773(18)
O17? O 1.4639(10) 1.4719(9) 0.3536(6)
H43? H 1.478(14) 1.516(6) 0.397(3)
H44? H 1.493(12) 1.424(6) 0.358(6)
O18? O 1.509(2) 1.4686(17) 0.4060(11)
H45? H 1.537(14) 1.532(3) 0.436(6)
H46? H 1.558(15) 1.439(8) 0.423(7)
loop_
_geom_bond_atom_site_label_1
_geom_bond_atom_site_label_2
_geom_bond_site_symmetry_1
_geom_bond_site_symmetry_2
Ni1 O1 1_555 1_555
Ni2 O2 1_555 1_555
Ni3 O3 1_555 1_555
Ni4 O4 1_555 1_555
O1 C7 1_555 1_555
O2 C7 1_555 1_555
O3 C8 1_555 1_555
O4 C8 1_555 1_555
O5 Ni1 1_555 1_555
O6 Ni1 1_555 1_555
O7 C17 1_555 1_555
O8 C17 1_555 1_555
O9 Ni3 1_555 1_555
O10 Ni3 1_555 1_555
O11 C26 1_555 1_555
O12 C26 1_555 1_555
N1 Ni1 1_555 1_555
N2 Ni1 1_555 1_555
N3 Ni3 1_555 1_555
N4 Ni3 1_555 1_555
C1 C2 1_555 1_555
C2 H1 1_555 1_555
C3 C2 1_555 1_555
C4 C3 1_555 1_555
H2 C4 1_555 1_555
C5 C4 1_555 1_555
C6 C1 1_555 1_555
H3 C6 1_555 1_555
C7 C1 1_555 1_555
C8 C3 1_555 1_555
C9 C5 1_555 1_555
H4 C9 1_555 1_555
H5 C9 1_555 1_555
H6 C9 1_555 1_555
C10 C11 1_555 1_555
C11 H7 1_555 1_555
C12 C11 1_555 1_555
C13 C12 1_555 1_555
H8 C13 1_555 1_555
C14 C13 1_555 1_555
C15 C10 1_555 1_555
H9 C15 1_555 1_555
C16 O5 1_555 1_555
C17 C12 1_555 1_555
C18 C14 1_555 1_555
H10 C18 1_555 1_555
H11 C18 1_555 1_555
H12 C18 1_555 1_555
C19 C20 1_555 1_555
C20 H13 1_555 1_555
C21 C20 1_555 1_555
C22 C21 1_555 1_555
H14 C22 1_555 1_555
C23 C22 1_555 1_555
C24 C19 1_555 1_555
H15 C24 1_555 1_555
C25 O9 1_555 1_555
C26 C21 1_555 1_555
C27 C23 1_555 1_555
H16 C27 1_555 1_555
H17 C27 1_555 1_555
H18 C27 1_555 1_555
C28 N1 1_555 1_555
H19 C28 1_555 1_555
C29 C28 1_555 1_555
H20 C29 1_555 1_555
C30 C29 1_555 1_555
H21 C30 1_555 1_555
C31 C30 1_555 1_555
C32 C31 1_555 1_555
H22 C32 1_555 1_555
C33 C32 1_555 1_555
H23 C33 1_555 1_555
C34 C33 1_555 1_555
C35 C34 1_555 1_555
H24 C35 1_555 1_555
C36 C35 1_555 1_555
H25 C36 1_555 1_555
C37 N2 1_555 1_555
H26 C37 1_555 1_555
C38 N2 1_555 1_555
C39 N1 1_555 1_555
C40 N3 1_555 1_555
H27 C40 1_555 1_555
C41 C40 1_555 1_555
H28 C41 1_555 1_555
C42 C41 1_555 1_555
H29 C42 1_555 1_555
C43 C42 1_555 1_555
C44 C43 1_555 1_555
H30 C44 1_555 1_555
C45 C44 1_555 1_555
H31 C45 1_555 1_555
C46 C45 1_555 1_555
C47 C46 1_555 1_555
H32 C47 1_555 1_555
C48 C47 1_555 1_555
H33 C48 1_555 1_555
C49 N4 1_555 1_555
H34 C49 1_555 1_555
C50 N4 1_555 1_555
C51 N3 1_555 1_555
O13 H35 1_555 1_555
H36 O13 1_555 1_555
O14 H37 1_555 1_555
H38 O14 1_555 1_555
O15 H39 1_555 1_555
H40 O15 1_555 1_555
O16 H41 1_555 1_555
H42 O16 1_555 1_555
Ni1A O1A 1_555 1_555
Ni1_2 O8 1_555 1_555
Ni1A_2 O8A 1_555 1_555
Ni2_2 O7 1_555 1_555
Ni2_3 O7A 1_555 1_555
Ni3A O3A 1_555 1_555
Ni3_2 O12 1_555 1_555
Ni3_3 O9_2 1_555 1_555
Ni4_2 O11 1_555 1_555
Ni4_3 O4A 1_555 1_555
Ni4_4 O9_2 1_555 1_555
O1A C7A 1_555 1_555
O2A Ni2 1_555 1_555
O3A C8A 1_555 1_555
O4A C8A 1_555 1_555
O4A_2 Ni4 1_555 1_555
O5A Ni1A 1_555 1_555
O6A Ni2 1_555 1_555
O7A C17A 1_555 1_555
O7_2 Ni2 1_555 1_555
O7A_2 Ni2 1_555 1_555
O8A C17A 1_555 1_555
O8_2 Ni1 1_555 1_555
O8A_2 Ni1A 1_555 1_555
O9_2 C25_2 1_555 1_555
O9A Ni4 1_555 1_555
O9A_2 Ni3A 1_555 1_555
O10_2 Ni3_3 1_555 1_555
O10A Ni3A 1_555 1_555
O11_2 Ni4 1_555 1_555
O11A Ni4 1_555 1_555
O12_2 Ni3 1_555 1_555
O12A Ni3A 1_555 1_555
N1A Ni1A 1_555 1_555
N2A Ni1A 1_555 1_555
N3A Ni3A 1_555 1_555
N4A Ni3A 1_555 1_555
C1A C2A 1_555 1_555
C2A H1A 1_555 1_555
C3A C2A 1_555 1_555
C4A C3A 1_555 1_555
H2A C4A 1_555 1_555
C5A C4A 1_555 1_555
C6A C1A 1_555 1_555
H3A C6A 1_555 1_555
C7A O2A 1_555 1_555
C8A C3A 1_555 1_555
C9A C5A 1_555 1_555
H4A C9A 1_555 1_555
H5A C9A 1_555 1_555
H6A C9A 1_555 1_555
C10A C11A 1_555 1_555
C11A H7A 1_555 1_555
C12A C11A 1_555 1_555
C13A C12A 1_555 1_555
H8A C13A 1_555 1_555
C14A C13A 1_555 1_555
C15A C10A 1_555 1_555
H9A C15A 1_555 1_555
C16A O5A 1_555 1_555
C17A C12A 1_555 1_555
C18A C14A 1_555 1_555
H10A C18A 1_555 1_555
H11A C18A 1_555 1_555
H12A C18A 1_555 1_555
C19_2 C20_2 1_555 1_555
C20_2 H13_2 1_555 1_555
C21_2 C20_2 1_555 1_555
C22_2 C21_2 1_555 1_555
H14_2 C22_2 1_555 1_555
C23_2 C22_2 1_555 1_555
C24_2 C19_2 1_555 1_555
H15_2 C24_2 1_555 1_555
C25_2 O10_2 1_555 1_555
C26_2 O11_2 1_555 1_555
C27_2 C23_2 1_555 1_555
H16_2 C27_2 1_555 1_555
H17_2 C27_2 1_555 1_555
H18_2 C27_2 1_555 1_555
C28A N1A 1_555 1_555
H19A C28A 1_555 1_555
C29A C28A 1_555 1_555
H20A C29A 1_555 1_555
C30A C29A 1_555 1_555
H21A C30A 1_555 1_555
C31A C30A 1_555 1_555
C32A C31A 1_555 1_555
H22A C32A 1_555 1_555
C33A C32A 1_555 1_555
H23A C33A 1_555 1_555
C34A C33A 1_555 1_555
C35A C34A 1_555 1_555
H24A C35A 1_555 1_555
C36A C35A 1_555 1_555
H25A C36A 1_555 1_555
C37A N2A 1_555 1_555
H26A C37A 1_555 1_555
C38A N2A 1_555 1_555
C39A N1A 1_555 1_555
C40A N3A 1_555 1_555
H27A C40A 1_555 1_555
C41A C40A 1_555 1_555
H28A C41A 1_555 1_555
C42A C41A 1_555 1_555
H29A C42A 1_555 1_555
C43A C42A 1_555 1_555
C44A C43A 1_555 1_555
H30A C44A 1_555 1_555
C45A C44A 1_555 1_555
H31A C45A 1_555 1_555
C46A C45A 1_555 1_555
C47A C46A 1_555 1_555
H32A C47A 1_555 1_555
C48A C47A 1_555 1_555
H33A C48A 1_555 1_555
C49A N4A 1_555 1_555
H34A C49A 1_555 1_555
C50A N4A 1_555 1_555
C51A N3A 1_555 1_555
Ni2 O6 1_555 1_555
Ni4 O9 1_555 1_555
O6 C16 1_555 1_555
O10 C25 1_555 1_555
C5 C6 1_555 1_555
C10 C16 1_555 1_555
C14 C15 1_555 1_555
C19 C25 1_555 1_555
C23 C24 1_555 1_555
C31 C39 1_555 1_555
C34 C38 1_555 1_555
C36 C37 1_555 1_555
C38 C39 1_555 1_555
C43 C51 1_555 1_555
C46 C50 1_555 1_555
C48 C49 1_555 1_555
C50 C51 1_555 1_555
Ni1A O6A 1_555 1_555
Ni4_3 O9A_2 1_555 1_555
O6A C16A 1_555 1_555
O12_2 C26_2 1_555 1_555
C1A C7A 1_555 1_555
C5A C6A 1_555 1_555
C10A C16A 1_555 1_555
C14A C15A 1_555 1_555
C19_2 C25_2 1_555 1_555
C21_2 C26_2 1_555 1_555
C23_2 C24_2 1_555 1_555
C31A C39A 1_555 1_555
C34A C38A 1_555 1_555
C36A C37A 1_555 1_555
C38A C39A 1_555 1_555
C43A C51A 1_555 1_555
C46A C50A 1_555 1_555
C48A C49A 1_555 1_555
C50A C51A 1_555 1_555

#END
