
#######################################################################
#
#                 Cambridge Crystallographic Data Centre
#                                CCDC 
#
#######################################################################
#
# If this CIF has been generated from an entry in the Cambridge 
# Structural Database, then it will include bibliographic, chemical, 
# crystal, experimental, refinement or atomic coordinate data resulting 
# from the CCDC's data processing and validation procedures.
#
#######################################################################

data_NEKRIG
_symmetry_cell_setting           triclinic
_symmetry_space_group_name_H-M   'P -1'
_symmetry_Int_Tables_number      2
_space_group_name_Hall           '-P 1'
loop_
_symmetry_equiv_pos_site_id
_symmetry_equiv_pos_as_xyz
1 x,y,z
2 -x,-y,-z
_cell_length_a                   8.2424(5)
_cell_length_b                   9.8018(5)
_cell_length_c                   13.0866(7)
_cell_angle_alpha                70.271(1)
_cell_angle_beta                 86.450(1)
_cell_angle_gamma                67.053(1)
_cell_volume                     913.487
loop_
_atom_site_label
_atom_site_type_symbol
_atom_site_fract_x
_atom_site_fract_y
_atom_site_fract_z
Co1 Co 0.46620(4) 0.43137(3) 0.19448(2)
O1 O 0.3451(2) 0.42472(19) 0.05850(12)
O2 O 0.4419(2) 0.66827(18) 0.09640(13)
O3 O 0.2431(2) 0.63726(17) 0.20991(12)
O4 O -0.2180(2) 1.10781(19) 0.27185(14)
O5 O -0.2977(2) 1.33643(18) 0.13595(12)
N1 N 0.5898(2) 0.3962(2) 0.34307(14)
N2 N 0.3549(2) 0.2876(2) 0.30673(14)
C1 C 0.2051(3) 0.9019(2) 0.10558(16)
C2 C 0.0623(3) 0.9656(2) 0.16052(16)
H1 H 0.0279 0.8984 0.2207
C3 C -0.0309(3) 1.1284(2) 0.12763(16)
C4 C 0.0214(3) 1.2249(2) 0.03888(17)
H2 H -0.0411 1.3359 0.0169
C5 C 0.1625(3) 1.1628(3) -0.01823(17)
C6 C 0.2550(3) 1.0002(3) 0.01691(17)
H3 H 0.3536 0.9556 -0.0201
C7 C 0.3010(3) 0.7265(2) 0.13887(17)
C8 C -0.1927(3) 1.1927(2) 0.18483(17)
C9 C 0.2033(3) 1.2690(3) -0.11985(19)
H4 H 0.1869 1.3682 -0.1100
H5 H 0.1237 1.2907 -0.1812
H6 H 0.3260 1.2174 -0.1348
C10 C 0.7127(3) 0.4441(3) 0.35949(18)
H7 H 0.7540 0.5027 0.2979
C11 C 0.7842(3) 0.4126(3) 0.4626(2)
H8 H 0.8727 0.4487 0.4706
C12 C 0.7253(3) 0.3289(3) 0.55242(18)
H9 H 0.7712 0.3077 0.6235
C13 C 0.5966(3) 0.2749(3) 0.53831(17)
C14 C 0.5237(3) 0.1881(3) 0.62710(18)
H10 H 0.5645 0.1640 0.6999
C15 C 0.3986(3) 0.1402(3) 0.60867(18)
H11 H 0.3519 0.0843 0.6687
C16 C 0.3354(3) 0.1724(3) 0.50034(18)
C17 C 0.2084(3) 0.1230(3) 0.47628(19)
H12 H 0.1584 0.0659 0.5335
C18 C 0.1567(3) 0.1574(3) 0.3701(2)
H13 H 0.0697 0.1257 0.3530
C19 C 0.2337(3) 0.2398(3) 0.28711(19)
H14 H 0.1976 0.2625 0.2136
C20 C 0.4043(3) 0.2559(2) 0.41164(17)
C21 C 0.5340(3) 0.3104(2) 0.43124(17)
H15 H 0.316(4) 0.5139(19) 0.0104(19)
H16 H 0.428(3) 0.364(3) 0.034(2)
Co1_2 Co -0.53380(4) 1.43137(3) 0.19448(2)
O5_2 O 0.7023(2) 0.33643(18) 0.13595(12)
loop_
_geom_bond_atom_site_label_1
_geom_bond_atom_site_label_2
_geom_bond_site_symmetry_1
_geom_bond_site_symmetry_2
Co1 O1 1_555 1_555
O1 H15 1_555 1_555
O2 Co1 1_555 1_555
O3 Co1 1_555 1_555
O4 C8 1_555 1_555
O5 C8 1_555 1_555
N1 Co1 1_555 1_555
N2 Co1 1_555 1_555
C1 C2 1_555 1_555
C2 H1 1_555 1_555
C3 C2 1_555 1_555
C4 C3 1_555 1_555
H2 C4 1_555 1_555
C5 C4 1_555 1_555
C6 C1 1_555 1_555
H3 C6 1_555 1_555
C7 O2 1_555 1_555
C8 C3 1_555 1_555
C9 C5 1_555 1_555
H4 C9 1_555 1_555
H5 C9 1_555 1_555
H6 C9 1_555 1_555
C10 N1 1_555 1_555
H7 C10 1_555 1_555
C11 C10 1_555 1_555
H8 C11 1_555 1_555
C12 C11 1_555 1_555
H9 C12 1_555 1_555
C13 C12 1_555 1_555
C14 C13 1_555 1_555
H10 C14 1_555 1_555
C15 C14 1_555 1_555
H11 C15 1_555 1_555
C16 C15 1_555 1_555
C17 C16 1_555 1_555
H12 C17 1_555 1_555
C18 C17 1_555 1_555
H13 C18 1_555 1_555
C19 N2 1_555 1_555
H14 C19 1_555 1_555
C20 N2 1_555 1_555
C21 N1 1_555 1_555
H16 O1 1_555 1_555
Co1_2 O5 1_555 1_555
O5_2 Co1 1_555 1_555
O3 C7 1_555 1_555
C1 C7 1_555 1_555
C5 C6 1_555 1_555
C13 C21 1_555 1_555
C16 C20 1_555 1_555
C18 C19 1_555 1_555
C20 C21 1_555 1_555

#END
