
#######################################################################
#
#                 Cambridge Crystallographic Data Centre
#                                CCDC 
#
#######################################################################
#
# If this CIF has been generated from an entry in the Cambridge 
# Structural Database, then it will include bibliographic, chemical, 
# crystal, experimental, refinement or atomic coordinate data resulting 
# from the CCDC's data processing and validation procedures.
#
#######################################################################

data_NEKTII
_symmetry_cell_setting           triclinic
_symmetry_space_group_name_H-M   'P -1'
_symmetry_Int_Tables_number      2
_space_group_name_Hall           '-P 1'
loop_
_symmetry_equiv_pos_site_id
_symmetry_equiv_pos_as_xyz
1 x,y,z
2 -x,-y,-z
_cell_length_a                   10.1724(5)
_cell_length_b                   10.7477(5)
_cell_length_c                   11.8371(6)
_cell_angle_alpha                89.543(4)
_cell_angle_beta                 70.806(5)
_cell_angle_gamma                80.296(4)
_cell_volume                     1203.16
loop_
_atom_site_label
_atom_site_type_symbol
_atom_site_fract_x
_atom_site_fract_y
_atom_site_fract_z
Mn1 Mn 0.57591(6) 0.61261(5) 0.58046(5)
O1 O 0.6842(3) 0.7503(2) 0.6439(2)
O2 O 0.5232(3) 0.6662(3) 0.7808(3)
C1 C 0.6136(4) 0.7374(3) 0.7510(3)
C2 C 0.6387(4) 0.8103(3) 0.8485(4)
C3 C 0.5591(5) 0.8015(4) 0.9680(4)
H1 H 0.4900 0.7508 0.9876
C4 C 0.5817(5) 0.8672(4) 1.0579(4)
H2 H 0.5279 0.8622 1.1378
C5 C 0.6846(5) 0.9393(4) 1.0263(4)
C6 C 0.7678(5) 0.9507(4) 0.9077(4)
H3 H 0.8380 1.0002 0.8890
C7 C 0.7418(5) 0.8851(4) 0.8188(4)
H4 H 0.7940 0.8917 0.7388
N1 N 0.7093(5) 1.0091(4) 1.1220(4)
O3 O 0.8024(6) 1.0754(5) 1.0915(4)
O4 O 0.6383(5) 0.9970(4) 1.2257(3)
O5 O 0.4168(3) 0.4933(2) 0.6337(2)
C8 C 0.3247(4) 0.4243(3) 0.6697(3)
O6 O 0.2891(3) 0.3607(2) 0.6001(2)
C9 C 0.2555(4) 0.4156(3) 0.8025(3)
C10 C 0.2905(4) 0.4873(3) 0.8823(3)
H5 H 0.3567 0.5399 0.8535
C11 C 0.2267(4) 0.4805(3) 1.0049(3)
H6 H 0.2489 0.5284 1.0590
C12 C 0.1295(4) 0.4006(3) 1.0445(3)
C13 C 0.0930(4) 0.3275(3) 0.9676(3)
H7 H 0.0271 0.2746 0.9970
C14 C 0.1576(4) 0.3354(3) 0.8452(3)
H8 H 0.1354 0.2870 0.7915
O7 O -0.0257(3) 0.3253(3) 1.2092(3)
O8 O 0.0956(4) 0.4581(3) 1.2417(3)
N2 N 0.0612(4) 0.3947(3) 1.1753(3)
N3 N -0.2664(3) 1.4427(3) 0.5956(3)
C15 C -0.1369(4) 1.4156(3) 0.5147(3)
H9 H -0.1131 1.4680 0.4509
C16 C -0.0358(4) 1.3135(3) 0.5203(3)
H10 H 0.0534 1.2976 0.4622
C17 C -0.0729(4) 1.2365(3) 0.6159(3)
C18 C -0.2051(5) 1.2651(4) 0.7033(4)
H11 H -0.2298 1.2169 0.7701
C19 C -0.2992(4) 1.3675(4) 0.6882(4)
H12 H -0.3893 1.3850 0.7449
N4 N 0.0236(4) 1.1279(3) 0.6324(3)
N5 N 0.1088(3) 1.0795(3) 0.5343(3)
C20 C 0.2087(4) 0.9739(3) 0.5475(3)
C21 C 0.1744(4) 0.8879(3) 0.6339(4)
H13 H 0.0840 0.8963 0.6899
C22 C 0.2811(4) 0.7866(3) 0.6346(3)
H14 H 0.2590 0.7276 0.6927
N6 N 0.4112(3) 0.7704(2) 0.5573(3)
C23 C 0.4423(4) 0.8557(3) 0.4734(3)
H15 H 0.5338 0.8461 0.4192
C24 C 0.3426(4) 0.9585(3) 0.4645(3)
H16 H 0.3660 1.0149 0.4041
Mn1A Mn 0.42409(6) 0.38739(5) 0.41954(5)
Mn1_2 Mn -0.42409(6) 1.61261(5) 0.58046(5)
Mn1A_2 Mn 1.42409(6) -0.61261(5) 0.41954(5)
O1A O 0.3158(3) 0.2497(2) 0.3561(2)
O2A O 0.4768(3) 0.3338(3) 0.2192(3)
C1A C 0.3864(4) 0.2626(3) 0.2490(3)
C2A C 0.3613(4) 0.1897(3) 0.1515(4)
C3A C 0.4409(5) 0.1985(4) 0.0320(4)
H1A H 0.5100 0.2492 0.0124
C4A C 0.4183(5) 0.1328(4) -0.0579(4)
H2A H 0.4721 0.1378 -0.1378
C5A C 0.3154(5) 0.0607(4) -0.0263(4)
C6A C 0.2322(5) 0.0493(4) 0.0923(4)
H3A H 0.1620 -0.0002 0.1110
C7A C 0.2582(5) 0.1149(4) 0.1812(4)
H4A H 0.2060 0.1083 0.2612
N1A N 0.2907(5) -0.0091(4) -0.1220(4)
O3A O 0.1976(6) -0.0754(5) -0.0915(4)
O4A O 0.3617(5) 0.0030(4) -0.2257(3)
O5A O 0.5832(3) 0.5067(2) 0.3663(2)
C8A C 0.6753(4) 0.5757(3) 0.3303(3)
O6A O 0.7109(3) 0.6393(2) 0.3999(2)
C9A C 0.7445(4) 0.5844(3) 0.1975(3)
C10A C 0.7095(4) 0.5127(3) 0.1177(3)
H5A H 0.6433 0.4601 0.1465
C11A C 0.7733(4) 0.5195(3) -0.0049(3)
H6A H 0.7511 0.4716 -0.0590
C12A C 0.8705(4) 0.5994(3) -0.0445(3)
C13A C 0.9070(4) 0.6725(3) 0.0324(3)
H7A H 0.9729 0.7254 0.0030
C14A C 0.8424(4) 0.6646(3) 0.1548(3)
H8A H 0.8646 0.7130 0.2085
O7A O 1.0257(3) 0.6747(3) -0.2092(3)
O8A O 0.9044(4) 0.5419(3) -0.2417(3)
N2A N 0.9388(4) 0.6053(3) -0.1753(3)
N3A N 1.2664(3) -0.4427(3) 0.4044(3)
N3_2 N 0.7336(3) 0.4427(3) 0.5956(3)
N3A_2 N 0.2664(3) 0.5573(3) 0.4044(3)
C15A C 1.1369(4) -0.4156(3) 0.4853(3)
H9A H 1.1131 -0.4680 0.5491
C16A C 1.0358(4) -0.3135(3) 0.4797(3)
H10A H 0.9466 -0.2976 0.5378
C17A C 1.0729(4) -0.2365(3) 0.3841(3)
C18A C 1.2051(5) -0.2651(4) 0.2967(4)
H11A H 1.2298 -0.2169 0.2299
C19A C 1.2992(4) -0.3675(4) 0.3118(4)
H12A H 1.3893 -0.3850 0.2551
N4A N 0.9764(4) -0.1279(3) 0.3676(3)
N5A N 0.8912(3) -0.0795(3) 0.4657(3)
C20A C 0.7913(4) 0.0261(3) 0.4525(3)
C21A C 0.8256(4) 0.1121(3) 0.3661(4)
H13A H 0.9160 0.1037 0.3101
C22A C 0.7189(4) 0.2134(3) 0.3654(3)
H14A H 0.7410 0.2724 0.3073
N6A N 0.5888(3) 0.2296(2) 0.4427(3)
C23A C 0.5577(4) 0.1443(3) 0.5266(3)
H15A H 0.4662 0.1539 0.5808
C24A C 0.6574(4) 0.0415(3) 0.5355(3)
H16A H 0.6340 -0.0149 0.5959
loop_
_geom_bond_atom_site_label_1
_geom_bond_atom_site_label_2
_geom_bond_site_symmetry_1
_geom_bond_site_symmetry_2
Mn1 O1 1_555 1_555
O1 C1 1_555 1_555
O2 Mn1 1_555 1_555
C1 O2 1_555 1_555
C2 C1 1_555 1_555
C3 C2 1_555 1_555
H1 C3 1_555 1_555
C4 C3 1_555 1_555
H2 C4 1_555 1_555
C5 C4 1_555 1_555
C6 C5 1_555 1_555
H3 C6 1_555 1_555
C7 C2 1_555 1_555
H4 C7 1_555 1_555
N1 C5 1_555 1_555
O3 N1 1_555 1_555
O4 N1 1_555 1_555
O5 Mn1 1_555 1_555
C8 O5 1_555 1_555
O6 C8 1_555 1_555
C9 C8 1_555 1_555
C10 C9 1_555 1_555
H5 C10 1_555 1_555
C11 C10 1_555 1_555
H6 C11 1_555 1_555
C12 C11 1_555 1_555
C13 C12 1_555 1_555
H7 C13 1_555 1_555
C14 C9 1_555 1_555
H8 C14 1_555 1_555
O7 N2 1_555 1_555
O8 N2 1_555 1_555
N2 C12 1_555 1_555
N3 C15 1_555 1_555
C15 H9 1_555 1_555
C16 C15 1_555 1_555
H10 C16 1_555 1_555
C17 C16 1_555 1_555
C18 C17 1_555 1_555
H11 C18 1_555 1_555
C19 N3 1_555 1_555
H12 C19 1_555 1_555
N4 C17 1_555 1_555
N5 N4 1_555 1_555
C20 N5 1_555 1_555
C21 C20 1_555 1_555
H13 C21 1_555 1_555
C22 C21 1_555 1_555
H14 C22 1_555 1_555
N6 Mn1 1_555 1_555
C23 N6 1_555 1_555
H15 C23 1_555 1_555
C24 C20 1_555 1_555
H16 C24 1_555 1_555
Mn1A O6 1_555 1_555
Mn1_2 N3 1_555 1_555
Mn1A_2 N3A 1_555 1_555
O1A Mn1A 1_555 1_555
O2A Mn1A 1_555 1_555
C1A O1A 1_555 1_555
C2A C1A 1_555 1_555
C3A C2A 1_555 1_555
H1A C3A 1_555 1_555
C4A C3A 1_555 1_555
H2A C4A 1_555 1_555
C5A C4A 1_555 1_555
C6A C5A 1_555 1_555
H3A C6A 1_555 1_555
C7A C2A 1_555 1_555
H4A C7A 1_555 1_555
N1A C5A 1_555 1_555
O3A N1A 1_555 1_555
O4A N1A 1_555 1_555
O5A Mn1A 1_555 1_555
C8A O5A 1_555 1_555
O6A Mn1 1_555 1_555
C9A C8A 1_555 1_555
C10A C9A 1_555 1_555
H5A C10A 1_555 1_555
C11A C10A 1_555 1_555
H6A C11A 1_555 1_555
C12A C11A 1_555 1_555
C13A C12A 1_555 1_555
H7A C13A 1_555 1_555
C14A C9A 1_555 1_555
H8A C14A 1_555 1_555
O7A N2A 1_555 1_555
O8A N2A 1_555 1_555
N2A C12A 1_555 1_555
N3A C15A 1_555 1_555
N3_2 Mn1 1_555 1_555
N3A_2 Mn1A 1_555 1_555
C15A H9A 1_555 1_555
C16A C15A 1_555 1_555
H10A C16A 1_555 1_555
C17A C16A 1_555 1_555
C18A C17A 1_555 1_555
H11A C18A 1_555 1_555
C19A N3A 1_555 1_555
H12A C19A 1_555 1_555
N4A C17A 1_555 1_555
N5A N4A 1_555 1_555
C20A N5A 1_555 1_555
C21A C20A 1_555 1_555
H13A C21A 1_555 1_555
C22A C21A 1_555 1_555
H14A C22A 1_555 1_555
N6A Mn1A 1_555 1_555
C23A N6A 1_555 1_555
H15A C23A 1_555 1_555
C24A C20A 1_555 1_555
H16A C24A 1_555 1_555
C6 C7 1_555 1_555
C13 C14 1_555 1_555
C18 C19 1_555 1_555
C22 N6 1_555 1_555
C23 C24 1_555 1_555
O2A C1A 1_555 1_555
C6A C7A 1_555 1_555
C8A O6A 1_555 1_555
C13A C14A 1_555 1_555
C18A C19A 1_555 1_555
C22A N6A 1_555 1_555
C23A C24A 1_555 1_555

#END
