
#######################################################################
#
#                 Cambridge Crystallographic Data Centre
#                                CCDC 
#
#######################################################################
#
# If this CIF has been generated from an entry in the Cambridge 
# Structural Database, then it will include bibliographic, chemical, 
# crystal, experimental, refinement or atomic coordinate data resulting 
# from the CCDC's data processing and validation procedures.
#
#######################################################################

data_NEKWEG
_symmetry_cell_setting           monoclinic
_symmetry_space_group_name_H-M   'C 2/c'
_symmetry_Int_Tables_number      15
_space_group_name_Hall           '-C 2yn'
loop_
_symmetry_equiv_pos_site_id
_symmetry_equiv_pos_as_xyz
1 x,y,z
2 1/2+x,1/2+y,z
3 -x,y,1/2-z
4 1/2-x,1/2+y,1/2-z
5 -x,-y,-z
6 1/2-x,1/2-y,-z
7 x,-y,1/2+z
8 1/2+x,1/2-y,1/2+z
_cell_length_a                   29.755(2)
_cell_length_b                   13.4624(9)
_cell_length_c                   8.9729(6)
_cell_angle_alpha                90
_cell_angle_beta                 99.333(2)
_cell_angle_gamma                90
_cell_volume                     3546.73
loop_
_atom_site_label
_atom_site_type_symbol
_atom_site_fract_x
_atom_site_fract_y
_atom_site_fract_z
I1 I 0.999927(7) 0.722054(19) 1.01157(2)
Cu1 Cu 0.941253(18) 0.74395(3) 1.22983(6)
S1 S 0.85337(3) 0.71212(7) 0.98498(11)
S2 S 0.85561(4) 0.84330(7) 0.36726(12)
C1 C 0.78681(12) 0.7561(3) 0.7529(4)
N1 N 0.91081(9) 0.6119(2) 1.1795(3)
C2 C 0.93017(13) 0.5283(3) 1.2398(4)
H1 H 0.9535 0.5328 1.3221
N2 N 0.86117(12) 0.5147(2) 1.0023(4)
C3 C 0.80976(12) 0.7977(3) 0.6453(4)
H2 H 0.8378 0.7715 0.6323
C4 C 0.79221(11) 0.8764(3) 0.5577(4)
C5 C 0.87671(11) 0.6002(2) 1.0627(4)
C6 C 0.89117(11) 0.9289(3) 0.2968(4)
C7 C 0.74586(13) 0.7975(3) 0.7748(4)
H3 H 0.7303 0.7720 0.8482
C8 C 0.91671(14) 0.4358(3) 1.1840(5)
H4 H 0.9305 0.3781 1.2262
C9 C 0.75061(12) 0.9154(3) 0.5792(4)
H5 H 0.7379 0.9682 0.5199
C10 C 0.91335(15) 1.0859(3) 0.2612(5)
H6 H 0.9115 1.1536 0.2793
C11 C 0.80679(12) 0.6682(3) 0.8442(4)
H7 H 0.8179 0.6198 0.7789
H8 H 0.7837 0.6368 0.8932
N3 N 0.88586(11) 1.0248(2) 0.3206(4)
C12 C 0.72820(13) 0.8765(3) 0.6874(4)
H9 H 0.7006 0.9039 0.7021
C13 C 0.94795(13) 0.9531(3) 0.1599(4)
H10 H 0.9692 0.9291 0.1035
C14 C 0.94392(14) 1.0536(3) 0.1754(5)
H11 H 0.9614 1.0977 0.1291
C15 C 0.88213(14) 0.4331(3) 1.0636(4)
H12 H 0.8727 0.3717 1.0224
N4 N 0.92269(9) 0.8879(2) 0.2222(3)
C16 C 0.81813(14) 0.9273(3) 0.4466(5)
H13 H 0.8360 0.9812 0.4976
H14 H 0.7965 0.9558 0.3653
I1B I 1.000073(7) 0.722054(19) 1.48843(2)
Cu1B Cu 1.058747(18) 0.74395(3) 1.27017(6)
Cu1_2 Cu 0.941253(18) 0.74395(3) 0.22983(6)
N4_2 N 0.92269(9) 0.8879(2) 1.2222(3)
loop_
_geom_bond_atom_site_label_1
_geom_bond_atom_site_label_2
_geom_bond_site_symmetry_1
_geom_bond_site_symmetry_2
I1 Cu1 1_555 1_555
Cu1 N1 1_555 1_555
S1 C5 1_555 1_555
S2 C6 1_555 1_555
C1 C3 1_555 1_555
N1 C2 1_555 1_555
C2 H1 1_555 1_555
N2 C5 1_555 1_555
C3 H2 1_555 1_555
C4 C3 1_555 1_555
C5 N1 1_555 1_555
C6 N3 1_555 1_555
C7 C1 1_555 1_555
H3 C7 1_555 1_555
C8 C2 1_555 1_555
H4 C8 1_555 1_555
C9 C4 1_555 1_555
H5 C9 1_555 1_555
C10 H6 1_555 1_555
C11 S1 1_555 1_555
H7 C11 1_555 1_555
H8 C11 1_555 1_555
N3 C10 1_555 1_555
C12 C7 1_555 1_555
H9 C12 1_555 1_555
C13 H10 1_555 1_555
C14 C10 1_555 1_555
H11 C14 1_555 1_555
C15 N2 1_555 1_555
H12 C15 1_555 1_555
N4 C6 1_555 1_555
C16 S2 1_555 1_555
H13 C16 1_555 1_555
H14 C16 1_555 1_555
I1B Cu1 1_555 1_555
Cu1B I1 1_555 1_555
Cu1_2 N4 1_555 1_555
N4_2 Cu1 1_555 1_555
C1 C11 1_555 1_555
C4 C16 1_555 1_555
C8 C15 1_555 1_555
C9 C12 1_555 1_555
C13 C14 1_555 1_555
C13 N4 1_555 1_555
I1B Cu1B 1_555 1_555

#END
