
#######################################################################
#
#                 Cambridge Crystallographic Data Centre
#                                CCDC 
#
#######################################################################
#
# If this CIF has been generated from an entry in the Cambridge 
# Structural Database, then it will include bibliographic, chemical, 
# crystal, experimental, refinement or atomic coordinate data resulting 
# from the CCDC's data processing and validation procedures.
#
#######################################################################

data_NEKWIK
_symmetry_cell_setting           monoclinic
_symmetry_space_group_name_H-M   'C 2/c'
_symmetry_Int_Tables_number      15
_space_group_name_Hall           '-C 2yn'
loop_
_symmetry_equiv_pos_site_id
_symmetry_equiv_pos_as_xyz
1 x,y,z
2 1/2+x,1/2+y,z
3 -x,y,1/2-z
4 1/2-x,1/2+y,1/2-z
5 -x,-y,-z
6 1/2-x,1/2-y,-z
7 x,-y,1/2+z
8 1/2+x,1/2-y,1/2+z
_cell_length_a                   29.830(3)
_cell_length_b                   13.1418(11)
_cell_length_c                   8.7840(7)
_cell_angle_alpha                90
_cell_angle_beta                 98.868(2)
_cell_angle_gamma                90
_cell_volume                     3402.34
loop_
_atom_site_label
_atom_site_type_symbol
_atom_site_fract_x
_atom_site_fract_y
_atom_site_fract_z
N1 N 0.91509(6) 0.10890(13) 0.1843(2)
N2 N 0.92405(6) 0.39266(13) -0.77709(19)
Cu1 Cu 0.941859(11) 0.24667(2) 0.23220(4)
Br1 Br 0.999802(8) 0.228221(18) 0.02594(2)
S1 S 0.85547(2) 0.20721(4) -0.00939(7)
S2 S 0.85608(2) 0.34749(4) -0.63327(7)
N3 N 0.86688(7) 0.00500(14) 0.0078(2)
C1 C 0.89263(7) 0.43487(16) -0.7008(2)
N4 N 0.88772(7) 0.53319(15) -0.6751(2)
C2 C 0.78818(8) 0.24973(17) -0.2417(3)
C3 C 0.79300(7) 0.37687(17) -0.4377(2)
C4 C 0.81116(8) 0.29636(17) -0.3479(3)
H1 H 0.8398 0.2726 -0.3591
C5 C 0.88103(7) 0.09434(16) 0.0678(2)
C6 C 0.81900(9) 0.43239(19) -0.5468(3)
H2 H 0.8370 0.4859 -0.4912
H3 H 0.7977 0.4640 -0.6276
C7 C 0.75000(8) 0.41111(19) -0.4199(3)
H4 H 0.7367 0.4642 -0.4808
C8 C 0.94954(8) 0.45884(18) -0.8418(3)
H5 H 0.9706 0.4338 -0.9003
C9 C 0.91526(8) 0.59602(18) -0.7354(3)
H6 H 0.9136 0.6653 -0.7158
C10 C 0.80915(8) 0.16018(18) -0.1501(3)
H7 H 0.8204 0.1113 -0.2178
H8 H 0.7867 0.1267 -0.0984
C11 C 0.93656(8) 0.02536(18) 0.2450(3)
H9 H 0.9601 0.0322 0.3271
C12 C 0.74589(8) 0.2864(2) -0.2232(3)
H10 H 0.7301 0.2571 -0.1508
C13 C 0.89006(9) -0.07598(18) 0.0692(3)
H11 H 0.8820 -0.1397 0.0278
C14 C 0.94587(8) 0.56276(18) -0.8251(3)
H12 H 0.9634 0.6079 -0.8725
C15 C 0.92479(9) -0.07001(18) 0.1891(3)
H13 H 0.9398 -0.1279 0.2312
C16 C 0.72705(8) 0.3671(2) -0.3131(3)
H14 H 0.6986 0.3915 -0.3008
N2_2 N 0.92405(6) 0.39266(13) 0.22291(19)
Cu1_2 Cu 0.941859(11) 0.24667(2) -0.76780(4)
Cu1B Cu 1.058141(11) 0.24667(2) 0.26780(4)
Br1B Br 1.000198(8) 0.228221(18) 0.47406(2)
loop_
_geom_bond_atom_site_label_1
_geom_bond_atom_site_label_2
_geom_bond_site_symmetry_1
_geom_bond_site_symmetry_2
N1 Cu1 1_555 1_555
N2 C1 1_555 1_555
Cu1 Br1 1_555 1_555
Br1 Cu1B 1_555 1_555
S1 C5 1_555 1_555
S2 C1 1_555 1_555
N3 C5 1_555 1_555
C1 N4 1_555 1_555
N4 C9 1_555 1_555
C2 C4 1_555 1_555
C3 C4 1_555 1_555
C4 H1 1_555 1_555
C5 N1 1_555 1_555
C6 S2 1_555 1_555
H2 C6 1_555 1_555
H3 C6 1_555 1_555
C7 C3 1_555 1_555
H4 C7 1_555 1_555
C8 N2 1_555 1_555
H5 C8 1_555 1_555
C9 H6 1_555 1_555
C10 S1 1_555 1_555
H7 C10 1_555 1_555
H8 C10 1_555 1_555
C11 N1 1_555 1_555
H9 C11 1_555 1_555
C12 C2 1_555 1_555
H10 C12 1_555 1_555
C13 N3 1_555 1_555
H11 C13 1_555 1_555
C14 C8 1_555 1_555
H12 C14 1_555 1_555
C15 C11 1_555 1_555
H13 C15 1_555 1_555
C16 C7 1_555 1_555
H14 C16 1_555 1_555
N2_2 Cu1 1_555 1_555
Cu1_2 N2 1_555 1_555
Cu1B Br1B 1_555 1_555
Br1B Cu1 1_555 1_555
C2 C10 1_555 1_555
C3 C6 1_555 1_555
C9 C14 1_555 1_555
C12 C16 1_555 1_555
C13 C15 1_555 1_555

#END
