
#######################################################################
#
#                 Cambridge Crystallographic Data Centre
#                                CCDC 
#
#######################################################################
#
# If this CIF has been generated from an entry in the Cambridge 
# Structural Database, then it will include bibliographic, chemical, 
# crystal, experimental, refinement or atomic coordinate data resulting 
# from the CCDC's data processing and validation procedures.
#
#######################################################################

data_NELJIZ
_symmetry_cell_setting           triclinic
_symmetry_space_group_name_H-M   'P -1'
_symmetry_Int_Tables_number      2
_space_group_name_Hall           '-P 1'
loop_
_symmetry_equiv_pos_site_id
_symmetry_equiv_pos_as_xyz
1 x,y,z
2 -x,-y,-z
_cell_length_a                   6.833(2)
_cell_length_b                   10.625(4)
_cell_length_c                   10.725(3)
_cell_angle_alpha                113.38(3)
_cell_angle_beta                 94.12(3)
_cell_angle_gamma                101.24(3)
_cell_volume                     691.309
loop_
_atom_site_label
_atom_site_type_symbol
_atom_site_fract_x
_atom_site_fract_y
_atom_site_fract_z
Co1 Co 0.12576(10) 0.37298(8) 0.31901(7)
P1 P 0.28209(18) 0.53992(14) 0.64747(13)
P2 P 0.94208(19) 0.88366(14) 0.62452(13)
O1 O 0.2529(4) 0.5298(3) 0.5030(3)
O2 O 0.1015(4) 0.5463(3) 0.7189(3)
O3 O 0.3752(4) 0.4181(3) 0.6542(3)
H1 H 0.2983 0.3394 0.6015
O4 O 1.0544(4) 0.7971(3) 0.6734(3)
O5 O 0.8826(4) 0.8252(3) 0.4695(3)
O6 O 1.0715(4) 1.0391(3) 0.6842(3)
H2 H 1.0587 1.0723 0.6257
N1 N 0.6296(5) 0.7333(4) 0.6687(3)
H3 H 0.5652 0.6908 0.5775
N2 N 0.7577(5) 0.6460(4) 0.8567(3)
C1 C 0.4792(6) 0.7019(5) 0.7515(4)
H4 H 0.4134 0.7826 0.7877
C2 C 0.7136(6) 0.8867(5) 0.7028(4)
C3 C 0.7806(6) 0.9721(4) 0.8601(4)
H5 H 0.8719 0.9281 0.8943
H6 H 0.8510 1.0693 0.8799
H7 H 0.6614 0.9731 0.9058
C4 C 0.5652(7) 0.9509(5) 0.6499(5)
H8 H 0.4431 0.9439 0.6919
H9 H 0.6279 1.0506 0.6743
H10 H 0.5289 0.8997 0.5496
C5 C 0.5823(6) 0.6859(4) 0.8735(4)
C6 C 0.8476(6) 0.6243(5) 0.9581(4)
H11 H 0.9697 0.5940 0.9463
C7 C 0.7745(6) 0.6430(5) 1.0793(4)
H12 H 0.8432 0.6257 1.1489
C8 C 0.5972(6) 0.6878(5) 1.0955(4)
H13 H 0.5437 0.7036 1.1784
C9 C 0.4980(7) 0.7097(5) 0.9928(4)
H14 H 0.3759 0.7401 1.0027
Co1A Co -0.12576(10) 0.62702(8) 0.68099(7)
Co1A_2 Co 0.87424(10) 0.62702(8) 0.68099(7)
O2A O -0.1015(4) 0.4537(3) 0.2811(3)
O4A O -0.0544(4) 0.2029(3) 0.3266(3)
N1A N 0.3704(5) 0.2667(4) 0.3313(3)
H3A H 0.4348 0.3092 0.4225
N2A N 0.2423(5) 0.3540(4) 0.1433(3)
O7 O 0.7464(7) 0.2892(6) 0.6753(5)
H15 H 0.648(6) 0.317(7) 0.653(6)
H16 H 0.828(7) 0.284(8) 0.619(5)
loop_
_geom_bond_atom_site_label_1
_geom_bond_atom_site_label_2
_geom_bond_site_symmetry_1
_geom_bond_site_symmetry_2
Co1 O1 1_555 1_555
P1 O1 1_555 1_555
P2 O4 1_555 1_555
O2 P1 1_555 1_555
O3 P1 1_555 1_555
H1 O3 1_555 1_555
O4 Co1A_2 1_555 1_555
O5 P2 1_555 1_555
O6 P2 1_555 1_555
H2 O6 1_555 1_555
N1 H3 1_555 1_555
N2 C5 1_555 1_555
C1 P1 1_555 1_555
H4 C1 1_555 1_555
C2 P2 1_555 1_555
C3 C2 1_555 1_555
H5 C3 1_555 1_555
H6 C3 1_555 1_555
H7 C3 1_555 1_555
C4 C2 1_555 1_555
H8 C4 1_555 1_555
H9 C4 1_555 1_555
H10 C4 1_555 1_555
C5 C1 1_555 1_555
C6 N2 1_555 1_555
H11 C6 1_555 1_555
C7 C6 1_555 1_555
H12 C7 1_555 1_555
C8 C7 1_555 1_555
H13 C8 1_555 1_555
C9 C5 1_555 1_555
H14 C9 1_555 1_555
O7 H15 1_555 1_555
H16 O7 1_555 1_555
Co1A O2 1_555 1_555
Co1A_2 N1 1_555 1_555
O2A Co1 1_555 1_555
O4A Co1 1_555 1_555
N1A Co1 1_555 1_555
H3A N1A 1_555 1_555
N2A Co1 1_555 1_555
N1 C1 1_555 1_555
N1 C2 1_555 1_555
N2 Co1A_2 1_555 1_555
C8 C9 1_555 1_555

#END
