
#######################################################################
#
#                 Cambridge Crystallographic Data Centre
#                                CCDC 
#
#######################################################################
#
# If this CIF has been generated from an entry in the Cambridge 
# Structural Database, then it will include bibliographic, chemical, 
# crystal, experimental, refinement or atomic coordinate data resulting 
# from the CCDC's data processing and validation procedures.
#
#######################################################################

data_NELRAY
_symmetry_cell_setting           monoclinic
_symmetry_space_group_name_H-M   'P 21/a'
_symmetry_Int_Tables_number      14
_space_group_name_Hall           '-P 2yab'
loop_
_symmetry_equiv_pos_site_id
_symmetry_equiv_pos_as_xyz
1 x,y,z
2 1/2-x,1/2+y,-z
3 -x,-y,-z
4 1/2+x,1/2-y,z
_cell_length_a                   6.7429(2)
_cell_length_b                   22.4913(7)
_cell_length_c                   9.6575(3)
_cell_angle_alpha                90.00
_cell_angle_beta                 91.6400(18)
_cell_angle_gamma                90.00
_cell_volume                     1464.02
loop_
_atom_site_label
_atom_site_type_symbol
_atom_site_fract_x
_atom_site_fract_y
_atom_site_fract_z
Er1 Er 0.74430(5) 0.648317(14) 0.45036(3)
O1 O 0.3051(10) 0.5462(3) 0.3337(7)
O2 O 0.5471(10) 0.6092(3) 0.2788(6)
O3 O 1.0471(9) 0.6808(3) 0.3697(6)
O4 O 1.1709(9) 0.7700(3) 0.3229(6)
O5 O 0.8081(9) 0.7188(3) -0.3628(6)
O6 O 0.9600(11) 0.6328(3) -0.3490(6)
O7 O 0.4248(9) 0.6747(3) 0.5314(6)
O8 O 0.6116(11) 0.5682(3) 0.5777(9)
O9 O 0.9200(10) 0.5636(3) 0.3857(8)
C1 C 0.4339(12) 0.5646(4) 0.2551(8)
C2 C 0.4660(12) 0.5319(4) 0.1194(9)
C3 C 0.6226(16) 0.5463(5) 0.0386(11)
H1 H 0.7071 0.5773 0.0648
C4 C 0.3448(16) 0.4847(5) 0.0811(10)
H2 H 0.2404 0.4740 0.1368
C5 C 0.9123(13) 0.6815(4) -0.2948(8)
C6 C 0.9740(12) 0.6936(4) -0.1471(7)
C7 C 0.9781(13) 0.7512(4) -0.0946(9)
H3 H 0.9509 0.7832 -0.1529
C8 C 1.0232(11) 0.7609(4) 0.0453(8)
H4 H 1.0329 0.7995 0.0793
C9 C 1.0537(12) 0.7126(4) 0.1345(8)
C10 C 1.0496(14) 0.6554(4) 0.0819(8)
H5 H 1.0712 0.6231 0.1407
C11 C 1.0126(15) 0.6460(4) -0.0602(9)
H6 H 1.0141 0.6076 -0.0959
C12 C 1.0928(11) 0.7219(4) 0.2855(8)
Er1B Er 0.25570(5) 0.351683(14) -0.45036(3)
Er1C Er 1.24430(5) 0.851683(14) 0.45036(3)
Er1_2 Er 0.74430(5) 0.648317(14) -0.54964(3)
Er1C_2 Er 0.24430(5) 0.851683(14) 0.45036(3)
Er1C_3 Er 0.24430(5) 0.851683(14) -0.54964(3)
O1B O 0.6949(10) 0.4538(3) -0.3337(7)
O2B O 0.4529(10) 0.3908(3) -0.2788(6)
O3C O 0.5471(9) 0.8192(3) 0.3697(6)
O3B O -0.0471(9) 0.3192(3) -0.3697(6)
O4C O 0.6709(9) 0.7300(3) 0.3229(6)
O4A O 0.3291(9) 0.2700(3) -0.3229(6)
O5C O 0.3081(9) 0.7812(3) -0.3628(6)
O5_2 O 0.8081(9) 0.7188(3) 0.6372(6)
O5B O 0.1919(9) 0.2812(3) -0.6372(6)
O6C O 0.4600(11) 0.8672(3) -0.3490(6)
O6_2 O 0.9600(11) 0.6328(3) 0.6510(6)
O6B O 0.0400(11) 0.3672(3) -0.6510(6)
O7B O 0.5752(9) 0.3253(3) -0.5314(6)
O8B O 0.3884(11) 0.4318(3) -0.5777(9)
O9B O 0.0800(10) 0.4364(3) -0.3857(8)
C1B C 0.5661(12) 0.4354(4) -0.2551(8)
C2B C 0.5340(12) 0.4681(4) -0.1194(9)
C3B C 0.3774(16) 0.4537(5) -0.0386(11)
H1B H 0.2929 0.4227 -0.0648
C4B C 0.6552(16) 0.5153(5) -0.0811(10)
H2B H 0.7596 0.5260 -0.1368
C5C C 0.4123(13) 0.8185(4) -0.2948(8)
C6C C 0.4740(12) 0.8064(4) -0.1471(7)
C7C C 0.4781(13) 0.7488(4) -0.0946(9)
H3C H 0.4509 0.7168 -0.1529
C8C C 0.5232(11) 0.7391(4) 0.0453(8)
H4C H 0.5329 0.7005 0.0793
C9C C 0.5537(12) 0.7874(4) 0.1345(8)
C10C C 0.5496(14) 0.8446(4) 0.0819(8)
H5C H 0.5712 0.8769 0.1407
C11C C 0.5126(15) 0.8540(4) -0.0602(9)
H6C H 0.5141 0.8924 -0.0959
C12C C 0.5928(11) 0.7781(4) 0.2855(8)
O10 O 0.7672(13) 0.4538(4) 0.3217(14)
loop_
_geom_bond_atom_site_label_1
_geom_bond_atom_site_label_2
_geom_bond_site_symmetry_1
_geom_bond_site_symmetry_2
Er1 O2 1_555 1_555
O1 C1 1_555 1_555
O2 C1 1_555 1_555
O3 Er1 1_555 1_555
O4 C12 1_555 1_555
O5 C5 1_555 1_555
O6 C5 1_555 1_555
O7 Er1 1_555 1_555
O8 Er1 1_555 1_555
O9 Er1 1_555 1_555
C1 C2 1_555 1_555
C2 C3 1_555 1_555
C3 H1 1_555 1_555
C4 C2 1_555 1_555
H2 C4 1_555 1_555
C5 C6 1_555 1_555
C6 C7 1_555 1_555
C7 H3 1_555 1_555
C8 C7 1_555 1_555
H4 C8 1_555 1_555
C9 C8 1_555 1_555
C10 C9 1_555 1_555
H5 C10 1_555 1_555
C11 C6 1_555 1_555
H6 C11 1_555 1_555
C12 O3 1_555 1_555
Er1B O2B 1_555 1_555
Er1C O4 1_555 1_555
Er1_2 O5 1_555 1_555
Er1C_2 O3C 1_555 1_555
Er1C_3 O5C 1_555 1_555
O1B C1B 1_555 1_555
O2B C1B 1_555 1_555
O3C C12C 1_555 1_555
O3B Er1B 1_555 1_555
O4C Er1 1_555 1_555
O4A Er1B 1_555 1_555
O5C C5C 1_555 1_555
O5_2 Er1 1_555 1_555
O5B Er1B 1_555 1_555
O6C Er1C_3 1_555 1_555
O6_2 Er1 1_555 1_555
O6B Er1B 1_555 1_555
O7B Er1B 1_555 1_555
O8B Er1B 1_555 1_555
O9B Er1B 1_555 1_555
C1B C2B 1_555 1_555
C2B C3B 1_555 1_555
C3B C4 1_555 1_555
H1B C3B 1_555 1_555
C4B C3 1_555 1_555
H2B C4B 1_555 1_555
C5C O6C 1_555 1_555
C6C C5C 1_555 1_555
C7C C6C 1_555 1_555
H3C C7C 1_555 1_555
C8C C7C 1_555 1_555
H4C C8C 1_555 1_555
C9C C8C 1_555 1_555
C10C C9C 1_555 1_555
H5C C10C 1_555 1_555
C11C C6C 1_555 1_555
H6C C11C 1_555 1_555
C12C O4C 1_555 1_555
O6 Er1_2 1_555 1_555
C9 C12 1_555 1_555
C10 C11 1_555 1_555
C2B C4B 1_555 1_555
C9C C12C 1_555 1_555
C10C C11C 1_555 1_555

#END
