
#######################################################################
#
#                 Cambridge Crystallographic Data Centre
#                                CCDC 
#
#######################################################################
#
# If this CIF has been generated from an entry in the Cambridge 
# Structural Database, then it will include bibliographic, chemical, 
# crystal, experimental, refinement or atomic coordinate data resulting 
# from the CCDC's data processing and validation procedures.
#
#######################################################################

data_NELXEH
_symmetry_cell_setting           monoclinic
_symmetry_space_group_name_H-M   'P 21/c'
_symmetry_Int_Tables_number      14
_space_group_name_Hall           '-P 2ybc'
loop_
_symmetry_equiv_pos_site_id
_symmetry_equiv_pos_as_xyz
1 x,y,z
2 x,1/2-y,1/2+z
3 -x,-y,-z
4 -x,1/2+y,1/2-z
_cell_length_a                   7.6548(12)
_cell_length_b                   11.9968(18)
_cell_length_c                   12.832(2)
_cell_angle_alpha                90
_cell_angle_beta                 103.836(3)
_cell_angle_gamma                90
_cell_volume                     1144.21
loop_
_atom_site_label
_atom_site_type_symbol
_atom_site_fract_x
_atom_site_fract_y
_atom_site_fract_z
Cd1 Cd 0.0000 0.5000 0.0000
S1 S -0.54846(6) 0.55185(4) -0.83579(3)
O1 O -0.50737(18) 0.44010(12) -0.86597(10)
O2 O -0.4231(2) 0.63600(13) -0.85340(11)
O3 O -0.73584(17) 0.58340(13) -0.88205(10)
N1 N -0.1439(2) 0.67290(14) -0.02799(13)
H1 H -0.2635 0.6609 -0.0351
N2 N 0.1077(2) 0.56901(17) -0.14072(13)
H2 H -0.2296 0.4384 0.1219
C1 C -0.4718(2) 0.34801(14) -0.46678(14)
H3 H -0.4646 0.2806 -0.5013
C2 C -0.4942(2) 0.44890(15) -0.52678(13)
C3 C -0.5052(2) 0.45006(15) -0.63884(13)
H4 H -0.4966 0.3837 -0.6747
C4 C -0.5286(2) 0.54887(15) -0.69453(13)
C5 C -0.5393(2) 0.65094(15) -0.64103(14)
H5 H -0.5538 0.7174 -0.6794
C6 C -0.1194(3) 0.71038(19) -0.13393(18)
H6 H -0.2035 0.6712 -0.1907
H7 H -0.1447 0.7895 -0.1425
C7 C 0.0687(3) 0.6883(2) -0.14277(19)
H8 H -0.1525 0.2755 0.0838
H9 H -0.0856 0.2800 0.2092
C8 C -0.0443(4) 0.4845(2) 0.2465(2)
H10 H -0.0983 0.4485 0.2977
H11 H -0.0774 0.5619 0.2412
H12 H 0.0842 0.4781 0.2692
C9 C 0.0862(3) 0.2444(2) -0.05656(19)
H13 H 0.1534 0.1769 -0.0372
H14 H 0.1068 0.2725 -0.1226
H15 H -0.0397 0.2293 -0.0655
C5B C -0.4607(2) 0.34906(15) -0.35897(14)
C4B C -0.4714(2) 0.45113(15) -0.30547(13)
S1B S -0.45154(6) 0.44815(4) -0.16421(3)
O1B O -0.49263(18) 0.55990(12) -0.13403(10)
O2B O -0.5769(2) 0.36400(13) -0.14660(11)
O3B O -0.26416(17) 0.41660(13) -0.11795(10)
Cd1_2 Cd -1.0000 0.5000 -1.0000
O3_2 O 0.26416(17) 0.58340(13) 0.11795(10)
N1B N 0.1439(2) 0.32710(14) 0.02799(13)
H1B H 0.2635 0.3391 0.0351
C6B C 0.1194(3) 0.28962(19) 0.13393(18)
H6B H 0.2035 0.3288 0.1907
H7B H 0.1447 0.2105 0.1425
C7B C -0.0687(3) 0.3117(2) 0.14277(19)
N2B N -0.1077(2) 0.43099(17) 0.14072(13)
H2B H 0.2296 0.5616 -0.1219
C8B C 0.0443(4) 0.5155(2) -0.2465(2)
H10B H 0.0983 0.5515 -0.2977
H11B H 0.0774 0.4381 -0.2412
H12B H -0.0842 0.5219 -0.2692
H8B H 0.1525 0.7245 -0.0838
H9B H 0.0856 0.7200 -0.2092
C9B C -0.0862(3) 0.7556(2) 0.05656(19)
H13B H -0.1534 0.8231 0.0372
H14B H -0.1068 0.7275 0.1226
H15B H 0.0397 0.7707 0.0655
C3B C -0.4948(2) 0.54994(15) -0.36116(13)
C2B C -0.5058(2) 0.55110(15) -0.47322(13)
C1B C -0.5282(2) 0.65199(14) -0.53322(14)
H3B H -0.5354 0.7194 -0.4987
H4B H -0.5034 0.6163 -0.3253
H5B H -0.4462 0.2826 -0.3206
loop_
_geom_bond_atom_site_label_1
_geom_bond_atom_site_label_2
_geom_bond_site_symmetry_1
_geom_bond_site_symmetry_2
Cd1 N1 1_555 1_555
S1 O1 1_555 1_555
O2 S1 1_555 1_555
O3 S1 1_555 1_555
N1 H1 1_555 1_555
N2 Cd1 1_555 1_555
H2 N2B 1_555 1_555
C1 H3 1_555 1_555
C2 C1 1_555 1_555
C3 C2 1_555 1_555
H4 C3 1_555 1_555
C4 S1 1_555 1_555
C5 C4 1_555 1_555
H5 C5 1_555 1_555
C6 N1 1_555 1_555
H6 C6 1_555 1_555
H7 C6 1_555 1_555
C7 N2 1_555 1_555
H8 C7B 1_555 1_555
H9 C7B 1_555 1_555
C8 H10 1_555 1_555
H11 C8 1_555 1_555
H12 C8 1_555 1_555
C9 H13 1_555 1_555
H14 C9 1_555 1_555
H15 C9 1_555 1_555
C5B C1 1_555 1_555
C4B C5B 1_555 1_555
S1B C4B 1_555 1_555
O1B S1B 1_555 1_555
O2B S1B 1_555 1_555
O3B Cd1 1_555 1_555
Cd1_2 O3 1_555 1_555
O3_2 Cd1 1_555 1_555
N1B Cd1 1_555 1_555
H1B N1B 1_555 1_555
C6B N1B 1_555 1_555
H6B C6B 1_555 1_555
H7B C6B 1_555 1_555
C7B C6B 1_555 1_555
N2B Cd1 1_555 1_555
H2B N2 1_555 1_555
C8B N2 1_555 1_555
H10B C8B 1_555 1_555
H11B C8B 1_555 1_555
H12B C8B 1_555 1_555
H8B C7 1_555 1_555
H9B C7 1_555 1_555
C9B N1 1_555 1_555
H13B C9B 1_555 1_555
H14B C9B 1_555 1_555
H15B C9B 1_555 1_555
C3B C4B 1_555 1_555
C2B C2 1_555 1_555
C1B C5 1_555 1_555
H3B C1B 1_555 1_555
H4B C3B 1_555 1_555
H5B C5B 1_555 1_555
C3 C4 1_555 1_555
C6 C7 1_555 1_555
C8 N2B 1_555 1_555
C9 N1B 1_555 1_555
S1B O3B 1_555 1_555
C7B N2B 1_555 1_555
C3B C2B 1_555 1_555
C2B C1B 1_555 1_555

#END
