
#######################################################################
#
#                 Cambridge Crystallographic Data Centre
#                                CCDC 
#
#######################################################################
#
# If this CIF has been generated from an entry in the Cambridge 
# Structural Database, then it will include bibliographic, chemical, 
# crystal, experimental, refinement or atomic coordinate data resulting 
# from the CCDC's data processing and validation procedures.
#
#######################################################################

data_NEMJOF01
_symmetry_cell_setting           orthorhombic
_symmetry_space_group_name_H-M   'F d d 2'
_symmetry_Int_Tables_number      43
_space_group_name_Hall           'F 2 -2d'
loop_
_symmetry_equiv_pos_site_id
_symmetry_equiv_pos_as_xyz
1 x,y,z
2 -x,-y,z
3 1/4+x,1/4-y,1/4+z
4 1/4-x,1/4+y,1/4+z
5 x,1/2+y,1/2+z
6 -x,1/2-y,1/2+z
7 1/4+x,3/4-y,3/4+z
8 1/4-x,3/4+y,3/4+z
9 1/2+x,y,1/2+z
10 1/2-x,-y,1/2+z
11 3/4+x,1/4-y,3/4+z
12 3/4-x,1/4+y,3/4+z
13 1/2+x,1/2+y,z
14 1/2-x,1/2-y,z
15 3/4+x,3/4-y,1/4+z
16 3/4-x,3/4+y,1/4+z
_cell_length_a                   18.371(3)
_cell_length_b                   9.8668(16)
_cell_length_c                   15.866(3)
_cell_angle_alpha                90
_cell_angle_beta                 90
_cell_angle_gamma                90
_cell_volume                     2875.92
loop_
_atom_site_label
_atom_site_type_symbol
_atom_site_fract_x
_atom_site_fract_y
_atom_site_fract_z
Zn1 Zn 0.2500 -0.2500 0.54371(2)
Cl1 Cl 0.17418(5) -0.11830(9) 0.47181(6)
N1 N 0.19036(15) -0.3606(3) 0.62728(18)
C1 C 0.1243(2) -0.3208(3) 0.6533(2)
H1 H 0.1022 -0.2479 0.6263
C2 C 0.0882(2) -0.3828(4) 0.7174(3)
H2 H 0.0421 -0.3534 0.7331
C3 C 0.1211(2) -0.4907(3) 0.7595(3)
H3 H 0.0982 -0.5322 0.8050
C4 C 0.18817(17) -0.5344(3) 0.7320(2)
C5 C 0.22228(18) -0.4653(3) 0.6677(2)
H4 H 0.2689 -0.4916 0.6517
N2 N 0.22274(14) -0.6456(2) 0.77162(17)
H5 H 0.2267 -0.6480 0.8256
C6 C 0.2500 -0.7500 0.7235(3)
O1 O 0.2500 -0.7500 0.64786(19)
Zn1_2 Zn 0.2500 -1.2500 0.54371(2)
Cl1M Cl 0.32582(5) -0.38170(9) 0.47181(6)
N1M N 0.30964(15) -1.1394(3) 0.62728(18)
N1M_2 N 0.30964(15) -0.1394(3) 0.62728(18)
C1M C 0.3757(2) -1.1792(3) 0.6533(2)
H1M H 0.3978 -1.2521 0.6263
C2M C 0.4118(2) -1.1172(4) 0.7174(3)
H2M H 0.4579 -1.1466 0.7331
C3M C 0.3789(2) -1.0093(3) 0.7595(3)
H3M H 0.4018 -0.9678 0.8050
C4M C 0.31183(17) -0.9656(3) 0.7320(2)
C5M C 0.27772(18) -1.0347(3) 0.6677(2)
H4M H 0.2311 -1.0084 0.6517
N2M N 0.27726(14) -0.8544(2) 0.77162(17)
H5M H 0.2733 -0.8520 0.8256
loop_
_geom_bond_atom_site_label_1
_geom_bond_atom_site_label_2
_geom_bond_site_symmetry_1
_geom_bond_site_symmetry_2
Zn1 Cl1 1_555 1_555
N1 Zn1 1_555 1_555
C1 N1 1_555 1_555
H1 C1 1_555 1_555
C2 C1 1_555 1_555
H2 C2 1_555 1_555
C3 C2 1_555 1_555
H3 C3 1_555 1_555
C4 C3 1_555 1_555
C5 N1 1_555 1_555
H4 C5 1_555 1_555
N2 C4 1_555 1_555
H5 N2 1_555 1_555
C6 N2 1_555 1_555
O1 C6 1_555 1_555
Zn1_2 N1M 1_555 1_555
Cl1M Zn1 1_555 1_555
N1M C1M 1_555 1_555
N1M_2 Zn1 1_555 1_555
C1M H1M 1_555 1_555
C2M C1M 1_555 1_555
H2M C2M 1_555 1_555
C3M C2M 1_555 1_555
H3M C3M 1_555 1_555
C4M C3M 1_555 1_555
C5M N1M 1_555 1_555
H4M C5M 1_555 1_555
N2M C6 1_555 1_555
H5M N2M 1_555 1_555
C4 C5 1_555 1_555
C4M C5M 1_555 1_555
C4M N2M 1_555 1_555

#END
