
#######################################################################
#
#                 Cambridge Crystallographic Data Centre
#                                CCDC 
#
#######################################################################
#
# If this CIF has been generated from an entry in the Cambridge 
# Structural Database, then it will include bibliographic, chemical, 
# crystal, experimental, refinement or atomic coordinate data resulting 
# from the CCDC's data processing and validation procedures.
#
#######################################################################

data_NEMKAS
_symmetry_cell_setting           monoclinic
_symmetry_space_group_name_H-M   'P 21/c'
_symmetry_Int_Tables_number      14
_space_group_name_Hall           '-P 2ybc'
loop_
_symmetry_equiv_pos_site_id
_symmetry_equiv_pos_as_xyz
1 x,y,z
2 -x,1/2+y,1/2-z
3 -x,-y,-z
4 x,1/2-y,1/2+z
_cell_length_a                   10.1499(11)
_cell_length_b                   17.1161(19)
_cell_length_c                   8.7576(10)
_cell_angle_alpha                90
_cell_angle_beta                 104.884(2)
_cell_angle_gamma                90
_cell_volume                     1470.38
loop_
_atom_site_label
_atom_site_type_symbol
_atom_site_fract_x
_atom_site_fract_y
_atom_site_fract_z
I1 I 0.476741(16) 0.836630(10) 0.915541(19)
Zn1 Zn 0.26615(3) 0.891691(16) 0.71738(3)
I2 I 0.135924(17) 1.008430(9) 0.78728(2)
N1 N 0.13559(19) 0.80060(12) 0.6313(2)
N2 N -0.66867(19) 0.91879(12) 0.5202(2)
C1 C -0.0783(2) 0.75948(14) 0.4631(3)
C2 C -0.5582(2) 0.88259(14) 0.4958(3)
H1 H -0.5122 0.8449 0.5701
C3 C -0.7343(2) 0.97173(15) 0.4151(3)
H2 H -0.8130 0.9966 0.4322
C4 C 0.0085(2) 0.81678(14) 0.5463(3)
H3 H -0.0234 0.8691 0.5429
C5 C 0.1802(3) 0.72637(15) 0.6363(3)
H4 H 0.2694 0.7144 0.6979
O1 O -0.27591(17) 0.82977(10) 0.5865(2)
N3 N -0.20920(19) 0.78136(12) 0.3744(2)
H5 H -0.2372 0.7678 0.2743
C6 C -0.5096(2) 0.89890(13) 0.3648(3)
C7 C -0.2940(2) 0.82394(13) 0.4433(3)
C8 C -0.6913(3) 0.99115(15) 0.2834(3)
H6 H -0.7395 1.0290 0.2110
C9 C -0.5767(3) 0.95492(14) 0.2573(3)
H7 H -0.5447 0.9681 0.1678
C10 C -0.0312(3) 0.68353(15) 0.4653(3)
H8 H -0.0873 0.6435 0.4073
C11 C 0.1002(3) 0.66724(15) 0.5546(4)
H9 H 0.1348 0.6155 0.5593
N4 N -0.3975(2) 0.85976(13) 0.3346(2)
H10 H -0.3934 0.8580 0.2356
Zn1_2 Zn -0.73385(3) 0.891691(16) 0.71738(3)
N2_2 N 0.33133(19) 0.91879(12) 0.5202(2)
loop_
_geom_bond_atom_site_label_1
_geom_bond_atom_site_label_2
_geom_bond_site_symmetry_1
_geom_bond_site_symmetry_2
I1 Zn1 1_555 1_555
Zn1 I2 1_555 1_555
N1 Zn1 1_555 1_555
N2 C2 1_555 1_555
C1 C4 1_555 1_555
C2 H1 1_555 1_555
C3 N2 1_555 1_555
H2 C3 1_555 1_555
C4 N1 1_555 1_555
H3 C4 1_555 1_555
C5 N1 1_555 1_555
H4 C5 1_555 1_555
O1 C7 1_555 1_555
N3 C1 1_555 1_555
H5 N3 1_555 1_555
C6 C2 1_555 1_555
C7 N3 1_555 1_555
C8 C3 1_555 1_555
H6 C8 1_555 1_555
C9 C6 1_555 1_555
H7 C9 1_555 1_555
C10 C1 1_555 1_555
H8 C10 1_555 1_555
C11 C5 1_555 1_555
H9 C11 1_555 1_555
N4 C6 1_555 1_555
H10 N4 1_555 1_555
Zn1_2 N2 1_555 1_555
N2_2 Zn1 1_555 1_555
C7 N4 1_555 1_555
C8 C9 1_555 1_555
C10 C11 1_555 1_555

#END
