
#######################################################################
#
#                 Cambridge Crystallographic Data Centre
#                                CCDC 
#
#######################################################################
#
# If this CIF has been generated from an entry in the Cambridge 
# Structural Database, then it will include bibliographic, chemical, 
# crystal, experimental, refinement or atomic coordinate data resulting 
# from the CCDC's data processing and validation procedures.
#
#######################################################################

data_NEMMEY
_symmetry_cell_setting           triclinic
_symmetry_space_group_name_H-M   'P -1'
_symmetry_Int_Tables_number      2
_space_group_name_Hall           '-P 1'
loop_
_symmetry_equiv_pos_site_id
_symmetry_equiv_pos_as_xyz
1 x,y,z
2 -x,-y,-z
_cell_length_a                   7.4455(15)
_cell_length_b                   9.2175(18)
_cell_length_c                   15.230(3)
_cell_angle_alpha                79.32(3)
_cell_angle_beta                 87.31(3)
_cell_angle_gamma                72.85(3)
_cell_volume                     981.41
loop_
_atom_site_label
_atom_site_type_symbol
_atom_site_fract_x
_atom_site_fract_y
_atom_site_fract_z
Mo1 Mo 0.29767(7) 0.31446(6) -0.50587(3)
Mo2 Mo -0.14673(7) 0.02697(6) -0.39896(3)
Cu1 Cu 0.37489(10) -0.04195(8) -0.41344(4)
Cu2 Cu 0.18810(11) 0.68290(8) -0.43707(4)
O1 O 0.2833(7) 0.1775(5) -0.4082(3)
O2 O 0.0847(6) -0.0995(5) -0.4141(3)
O3 O 0.6786(6) -0.0224(5) -0.4536(3)
O4 O 0.5132(6) 0.2560(5) -0.5649(3)
O5 O 0.2980(7) 0.4841(5) -0.4705(3)
O6 O 0.1078(6) 0.3550(5) -0.5780(3)
O7 O -0.1580(7) 0.2241(5) -0.4338(3)
N1 N 0.7594(7) -0.5871(6) 0.3082(3)
N2 N 0.4278(8) -0.1025(6) -0.2834(3)
C1 C 0.8668(11) -0.6496(9) 0.2438(4)
O8 O -0.1907(7) 0.0009(6) -0.2875(3)
C2 C 0.6145(11) -0.4579(9) 0.2843(5)
C3 C 0.5750(12) -0.3863(9) 0.1952(5)
C4 C 0.6882(11) -0.4526(9) 0.1281(4)
C5 C 0.8348(12) -0.5844(9) 0.1535(4)
C6 C 0.5606(10) -0.2362(8) -0.2526(4)
C7 C 0.4996(11) -0.2054(9) -0.0992(4)
C8 C 0.3297(12) -0.0201(9) -0.2242(4)
C9 C 0.6016(11) -0.2895(9) -0.1615(4)
C10 C 0.5334(12) -0.2573(9) -0.0034(4)
C11 C 0.3649(13) -0.0657(9) -0.1320(4)
C12 C 0.6557(12) -0.3895(10) 0.0314(5)
Mo2_2 Mo 0.85327(7) 0.02697(6) -0.39896(3)
Mo2A Mo 0.14673(7) 0.97303(6) -0.60104(3)
Cu1A Cu 0.62511(10) 0.04195(8) -0.58656(4)
Cu2_2 Cu 0.18810(11) -0.31710(8) -0.43707(4)
Cu2A Cu -0.18810(11) 0.31710(8) -0.56293(4)
Cu2A_2 Cu 0.81190(11) -0.68290(8) 0.43707(4)
O2_2 O 0.0847(6) 0.9005(5) -0.4141(3)
O3_2 O -0.3214(6) -0.0224(5) -0.4536(3)
O3A O 0.3214(6) 0.0224(5) -0.5464(3)
O4A O 0.4868(6) -0.2560(5) -0.4351(3)
O6A O -0.1078(6) 0.6450(5) -0.4220(3)
O7A O 0.1580(7) 0.7759(5) -0.5662(3)
N1A N 0.2406(7) 0.5871(6) -0.3082(3)
O9 O 0.0875(15) 0.6331(10) -0.7204(5)
O10 O -0.1590(17) -0.0121(14) -0.0917(6)
O11 O -0.0577(18) -0.7370(16) -0.0814(9)
loop_
_geom_bond_atom_site_label_1
_geom_bond_atom_site_label_2
_geom_bond_site_symmetry_1
_geom_bond_site_symmetry_2
Mo1 O1 1_555 1_555
Mo2 O2 1_555 1_555
Cu1 O1 1_555 1_555
Cu2 O5 1_555 1_555
O2 Cu1 1_555 1_555
O3 Cu1 1_555 1_555
O4 Mo1 1_555 1_555
O5 Mo1 1_555 1_555
O6 Mo1 1_555 1_555
O7 Mo2 1_555 1_555
N1 C1 1_555 1_555
N2 Cu1 1_555 1_555
C1 C5 1_555 1_555
O8 Mo2 1_555 1_555
C2 N1 1_555 1_555
C3 C2 1_555 1_555
C4 C3 1_555 1_555
C5 C4 1_555 1_555
C6 N2 1_555 1_555
C7 C9 1_555 1_555
C8 N2 1_555 1_555
C9 C6 1_555 1_555
C10 C7 1_555 1_555
C11 C7 1_555 1_555
C12 C4 1_555 1_555
Mo2_2 O3 1_555 1_555
Mo2A O7A 1_555 1_555
Cu1A O3 1_555 1_555
Cu2_2 O2 1_555 1_555
Cu2A O6 1_555 1_555
Cu2A_2 N1 1_555 1_555
O2_2 Cu2 1_555 1_555
O3_2 Mo2 1_555 1_555
O3A Cu1 1_555 1_555
O4A Cu1 1_555 1_555
O6A Cu2 1_555 1_555
O7A Cu2 1_555 1_555
N1A Cu2 1_555 1_555
O4 Cu1A 1_555 1_555
O7 Cu2A 1_555 1_555
C8 C11 1_555 1_555
C10 C12 1_555 1_555
Cu1A O3A 1_555 1_555

#END
