
#######################################################################
#
#                 Cambridge Crystallographic Data Centre
#                                CCDC 
#
#######################################################################
#
# If this CIF has been generated from an entry in the Cambridge 
# Structural Database, then it will include bibliographic, chemical, 
# crystal, experimental, refinement or atomic coordinate data resulting 
# from the CCDC's data processing and validation procedures.
#
#######################################################################

data_NEMNOI
_symmetry_cell_setting           orthorhombic
_symmetry_space_group_name_H-M   'P c c n'
_symmetry_Int_Tables_number      56
_space_group_name_Hall           '-P 2ab 2ac'
loop_
_symmetry_equiv_pos_site_id
_symmetry_equiv_pos_as_xyz
1 x,y,z
2 1/2-x,1/2-y,z
3 -x,1/2+y,1/2-z
4 1/2+x,-y,1/2-z
5 -x,-y,-z
6 1/2+x,1/2+y,-z
7 x,1/2-y,1/2+z
8 1/2-x,y,1/2+z
_cell_length_a                   35.194(4)
_cell_length_b                   8.3430(10)
_cell_length_c                   9.2590(10)
_cell_angle_alpha                90
_cell_angle_beta                 90
_cell_angle_gamma                90
_cell_volume                     2718.66
loop_
_atom_site_label
_atom_site_type_symbol
_atom_site_fract_x
_atom_site_fract_y
_atom_site_fract_z
Mn1 Mn 0.435004(12) 0.13975(5) 0.54035(4)
O1 O 0.38608(6) 0.1316(3) 0.6776(2)
O2 O 0.40633(6) 0.2968(3) 0.8476(2)
O3 O 0.05934(8) -0.3590(3) 0.9240(3)
O4 O 0.06204(6) -0.1061(3) 0.9807(3)
O5 O 0.44751(7) 0.3875(3) 0.6126(2)
O6 O 0.48920(6) 0.1832(3) 0.4140(2)
O7 O 0.47093(6) 0.0621(2) 0.7275(2)
C1 C 0.38308(7) 0.1937(4) 0.8005(3)
C2 C 0.35003(8) 0.1450(4) 0.8934(3)
H1 H 0.3430 0.2349 0.9543
H2 H 0.3580 0.0582 0.9561
C3 C 0.31518(8) 0.0915(4) 0.8094(3)
H3 H 0.3074 0.1777 0.7458
H4 H 0.3221 0.0006 0.7495
C4 C 0.28178(9) 0.0446(4) 0.9036(4)
H5 H 0.2749 0.1349 0.9641
H6 H 0.2894 -0.0428 0.9664
C5 C 0.24726(9) -0.0068(4) 0.8169(4)
H7 H 0.2544 -0.0960 0.7554
H8 H 0.2398 0.0811 0.7545
C6 C 0.21312(9) -0.0565(4) 0.9068(4)
H9 H 0.2205 -0.1452 0.9685
H10 H 0.2060 0.0323 0.9687
C7 C 0.17871(9) -0.1063(4) 0.8190(4)
H11 H 0.1857 -0.1956 0.7574
H12 H 0.1712 -0.0179 0.7572
C8 C 0.14502(8) -0.1549(4) 0.9116(4)
H13 H 0.1381 -0.0655 0.9732
H14 H 0.1525 -0.2432 0.9735
C9 C 0.11035(8) -0.2051(4) 0.8237(3)
H15 H 0.1055 -0.1251 0.7500
H16 H 0.1158 -0.3057 0.7754
C10 C 0.07509(8) -0.2249(3) 0.9150(3)
H17 H 0.4336 0.3871 0.6894
H18 H 0.4409 0.4666 0.5591
H19 H 0.5000 0.1288 0.3596
H20 H 0.5093 0.2098 0.4647
H21 H 0.4817 0.1363 0.7767
H22 H 0.4598 0.0006 0.7922
O2F O 0.40633(6) 0.2032(3) 0.3476(2)
O4G O 0.43796(6) -0.1061(3) 0.4807(3)
Mn1F Mn 0.435004(12) 0.36025(5) 1.04035(4)
Mn1G Mn 0.064996(12) 0.13975(5) 1.04035(4)
loop_
_geom_bond_atom_site_label_1
_geom_bond_atom_site_label_2
_geom_bond_site_symmetry_1
_geom_bond_site_symmetry_2
Mn1 O1 1_555 1_555
O1 C1 1_555 1_555
O2 C1 1_555 1_555
O3 C10 1_555 1_555
O4 C10 1_555 1_555
O5 Mn1 1_555 1_555
O6 Mn1 1_555 1_555
O7 Mn1 1_555 1_555
C1 C2 1_555 1_555
C2 H1 1_555 1_555
H2 C2 1_555 1_555
C3 C2 1_555 1_555
H3 C3 1_555 1_555
H4 C3 1_555 1_555
C4 C3 1_555 1_555
H5 C4 1_555 1_555
H6 C4 1_555 1_555
C5 C4 1_555 1_555
H7 C5 1_555 1_555
H8 C5 1_555 1_555
C6 C5 1_555 1_555
H9 C6 1_555 1_555
H10 C6 1_555 1_555
C7 C6 1_555 1_555
H11 C7 1_555 1_555
H12 C7 1_555 1_555
C8 C7 1_555 1_555
H13 C8 1_555 1_555
H14 C8 1_555 1_555
C9 C8 1_555 1_555
H15 C9 1_555 1_555
H16 C9 1_555 1_555
C10 C9 1_555 1_555
H17 O5 1_555 1_555
H18 O5 1_555 1_555
H19 O6 1_555 1_555
H20 O6 1_555 1_555
H21 O7 1_555 1_555
H22 O7 1_555 1_555
O2F Mn1 1_555 1_555
O4G Mn1 1_555 1_555
Mn1F O2 1_555 1_555
Mn1G O4 1_555 1_555

#END
