
#######################################################################
#
#                 Cambridge Crystallographic Data Centre
#                                CCDC 
#
#######################################################################
#
# If this CIF has been generated from an entry in the Cambridge 
# Structural Database, then it will include bibliographic, chemical, 
# crystal, experimental, refinement or atomic coordinate data resulting 
# from the CCDC's data processing and validation procedures.
#
#######################################################################

data_NEMSIJ
_symmetry_cell_setting           monoclinic
_symmetry_space_group_name_H-M   'P 21/c'
_symmetry_Int_Tables_number      14
_space_group_name_Hall           '-P 2ybc'
loop_
_symmetry_equiv_pos_site_id
_symmetry_equiv_pos_as_xyz
1 x,y,z
2 -x,1/2+y,1/2-z
3 -x,-y,-z
4 x,1/2-y,1/2+z
_cell_length_a                   8.0518(9)
_cell_length_b                   25.338(3)
_cell_length_c                   10.5842(12)
_cell_angle_alpha                90
_cell_angle_beta                 94.913(2)
_cell_angle_gamma                90
_cell_volume                     2151.42
loop_
_atom_site_label
_atom_site_type_symbol
_atom_site_fract_x
_atom_site_fract_y
_atom_site_fract_z
Pb1 Pb 0.25629(5) 0.473054(14) 0.50873(4)
C1 C 0.4105(13) 0.4725(4) 0.2769(9)
C2 C 0.4988(12) 0.4793(4) 0.1567(9)
H1 H 0.4154 0.4855 0.0826
C3 C 0.6034(12) 0.4310(4) 0.1330(9)
C4 C 0.5555(14) 0.3793(4) 0.1192(9)
H2 H 0.4419 0.3696 0.1220
C5 C 0.6770(15) 0.3407(4) 0.1008(11)
H3 H 0.6452 0.3049 0.0875
C6 C 0.8457(13) 0.3554(4) 0.1020(10)
H4 H 0.9277 0.3291 0.0919
C7 C 0.8931(14) 0.4070(4) 0.1177(10)
H5 H 1.0072 0.4166 0.1174
C8 C 0.7720(13) 0.4458(4) 0.1341(9)
C9 C 0.7853(12) 0.5031(4) 0.1568(10)
C10 C 0.9224(13) 0.5348(4) 0.1670(10)
H6 H 1.0307 0.5204 0.1625
C11 C 0.9007(13) 0.5887(4) 0.1842(10)
H7 H 0.9944 0.6116 0.1911
C12 C 0.7449(14) 0.6084(4) 0.1910(10)
H8 H 0.7314 0.6454 0.2008
C13 C 0.6051(13) 0.5765(4) 0.1843(9)
H9 H 0.4977 0.5910 0.1926
C14 C 0.6262(12) 0.5225(4) 0.1651(9)
C15 C 0.1396(12) 0.5799(4) 0.5051(10)
C16 C 0.1287(12) 0.6397(4) 0.5110(9)
H10 H 0.2030 0.6514 0.5862
C17 C -0.0444(12) 0.6623(4) 0.5257(10)
C18 C -0.1562(13) 0.6513(4) 0.6148(10)
H11 H -0.1304 0.6254 0.6785
C19 C -0.3058(13) 0.6784(4) 0.6096(10)
H12 H -0.3833 0.6710 0.6701
C20 C -0.3437(14) 0.7161(5) 0.5176(11)
H13 H -0.4474 0.7341 0.5153
C21 C -0.2363(13) 0.7279(4) 0.4308(11)
H14 H -0.2635 0.7547 0.3696
C22 C -0.0823(13) 0.7003(4) 0.4307(10)
C23 C 0.0552(12) 0.7031(4) 0.3508(9)
C24 C 0.0680(13) 0.7329(4) 0.2442(11)
H15 H -0.0193 0.7561 0.2139
C25 C 0.2127(14) 0.7283(4) 0.1815(10)
H16 H 0.2222 0.7474 0.1052
C26 C 0.3427(14) 0.6964(4) 0.2291(11)
H17 H 0.4424 0.6949 0.1873
C27 C 0.3282(14) 0.6663(4) 0.3382(11)
H18 H 0.4164 0.6441 0.3714
C28 C 0.1811(13) 0.6700(4) 0.3964(9)
O1 O 0.4965(8) 0.4774(3) 0.3812(6)
O2 O 0.2582(8) 0.4626(3) 0.2711(6)
O3 O 0.2432(9) 0.5593(2) 0.4352(6)
O4 O 0.0523(9) 0.5521(3) 0.5705(7)
Pb1B Pb 0.74371(5) 0.526946(14) 0.49127(4)
Pb1B_2 Pb -0.25629(5) 0.526946(14) 0.49127(4)
O1B O 0.5035(8) 0.5226(3) 0.6188(6)
O4B O -0.0523(9) 0.4479(3) 0.4295(7)
loop_
_geom_bond_atom_site_label_1
_geom_bond_atom_site_label_2
_geom_bond_site_symmetry_1
_geom_bond_site_symmetry_2
Pb1 O1 1_555 1_555
C1 C2 1_555 1_555
C2 H1 1_555 1_555
C3 C2 1_555 1_555
C4 C3 1_555 1_555
H2 C4 1_555 1_555
C5 C4 1_555 1_555
H3 C5 1_555 1_555
C6 C5 1_555 1_555
H4 C6 1_555 1_555
C7 C6 1_555 1_555
H5 C7 1_555 1_555
C8 C3 1_555 1_555
C9 C8 1_555 1_555
C10 C9 1_555 1_555
H6 C10 1_555 1_555
C11 C10 1_555 1_555
H7 C11 1_555 1_555
C12 C11 1_555 1_555
H8 C12 1_555 1_555
C13 C12 1_555 1_555
H9 C13 1_555 1_555
C14 C2 1_555 1_555
C15 C16 1_555 1_555
C16 H10 1_555 1_555
C17 C16 1_555 1_555
C18 C17 1_555 1_555
H11 C18 1_555 1_555
C19 C18 1_555 1_555
H12 C19 1_555 1_555
C20 C19 1_555 1_555
H13 C20 1_555 1_555
C21 C20 1_555 1_555
H14 C21 1_555 1_555
C22 C17 1_555 1_555
C23 C22 1_555 1_555
C24 C23 1_555 1_555
H15 C24 1_555 1_555
C25 C24 1_555 1_555
H16 C25 1_555 1_555
C26 C25 1_555 1_555
H17 C26 1_555 1_555
C27 C26 1_555 1_555
H18 C27 1_555 1_555
C28 C16 1_555 1_555
O1 C1 1_555 1_555
O2 Pb1 1_555 1_555
O3 Pb1 1_555 1_555
O4 Pb1 1_555 1_555
Pb1B O1 1_555 1_555
Pb1B_2 O4 1_555 1_555
O1B Pb1 1_555 1_555
O4B Pb1 1_555 1_555
C1 O2 1_555 1_555
C7 C8 1_555 1_555
C9 C14 1_555 1_555
C13 C14 1_555 1_555
C15 O3 1_555 1_555
C15 O4 1_555 1_555
C21 C22 1_555 1_555
C23 C28 1_555 1_555
C27 C28 1_555 1_555
Pb1B O1B 1_555 1_555
Pb1B_2 O4B 1_555 1_555

#END
