
#######################################################################
#
#                 Cambridge Crystallographic Data Centre
#                                CCDC 
#
#######################################################################
#
# If this CIF has been generated from an entry in the Cambridge 
# Structural Database, then it will include bibliographic, chemical, 
# crystal, experimental, refinement or atomic coordinate data resulting 
# from the CCDC's data processing and validation procedures.
#
#######################################################################

data_NEMVAC
_symmetry_cell_setting           monoclinic
_symmetry_space_group_name_H-M   'P 21/n'
_symmetry_Int_Tables_number      14
_space_group_name_Hall           '-P 2yn'
loop_
_symmetry_equiv_pos_site_id
_symmetry_equiv_pos_as_xyz
1 x,y,z
2 1/2-x,1/2+y,1/2-z
3 -x,-y,-z
4 1/2+x,1/2-y,1/2+z
_cell_length_a                   11.220(2)
_cell_length_b                   7.299(2)
_cell_length_c                   14.683(2)
_cell_angle_alpha                90
_cell_angle_beta                 98.160(10)
_cell_angle_gamma                90
_cell_volume                     1190.29
loop_
_atom_site_label
_atom_site_type_symbol
_atom_site_fract_x
_atom_site_fract_y
_atom_site_fract_z
Co1 Co -0.5000 0.5000 -0.5000
Na1 Na -0.64303(8) -0.35262(14) -0.32475(6)
Na2 Na -0.06048(8) 0.22796(13) -0.48251(6)
N1 N -0.88910(16) -0.5674(3) -0.34030(12)
C1 C -0.32029(17) 0.2572(3) -0.37647(12)
C2 C -0.30326(18) 0.1118(3) -0.30194(13)
H1 H -0.3030 0.1704 -0.2426
H2 H -0.2253 0.0544 -0.3020
C3 C -0.40040(18) -0.0364(3) -0.31350(13)
H3 H -0.3911 -0.1115 -0.2584
H4 H -0.4785 0.0226 -0.3183
C4 C -0.39929(17) -0.1604(3) -0.39605(13)
O1 O -0.42719(13) 0.3186(2) -0.39691(10)
O2 O -0.23201(13) 0.3115(2) -0.41189(11)
O3 O -0.47723(13) -0.2874(2) -0.40417(10)
O4 O -0.32422(14) -0.1350(2) -0.45027(11)
O5 O -0.82773(15) -0.4691(3) -0.28087(11)
O6 O -0.94320(19) -0.4986(3) -0.41073(14)
O7 O -0.8968(2) -0.7341(3) -0.32810(14)
O8 O -0.32631(13) 0.5433(2) -0.54111(10)
O9 O -0.75724(16) -0.1068(3) -0.40884(11)
O10 O -0.06958(13) -0.0827(3) -0.42466(10)
O11 O -0.55274(15) -0.6260(2) -0.25266(10)
H5 H -0.3186 0.6629 -0.5251
H6 H -0.2744 0.4844 -0.5040
H7 H -0.7197 -0.0472 -0.4405
H8 H -0.7328 -0.0662 -0.3544
H9 H -0.1409 -0.1098 -0.4206
H10 H -0.0393 -0.1012 -0.3655
H11 H -0.5924 -0.7259 -0.2452
H12 H -0.5148 -0.6619 -0.2970
C1B C -0.67971(17) 0.7428(3) -0.62353(12)
C2B C -0.69674(18) 0.8882(3) -0.69806(13)
H1B H -0.6970 0.8296 -0.7574
H2B H -0.7747 0.9456 -0.6980
C3B C -0.59960(18) 1.0364(3) -0.68650(13)
H3B H -0.6089 1.1115 -0.7416
H4B H -0.5215 0.9774 -0.6817
C4B C -0.60071(17) 1.1604(3) -0.60395(13)
O1B O -0.57281(13) 0.6814(2) -0.60309(10)
O2B O -0.76799(13) 0.6885(2) -0.58811(11)
O3B O -0.52277(13) 1.2874(2) -0.59583(10)
O4B O -0.67578(14) 1.1350(2) -0.54973(11)
O8B O -0.67369(13) 0.4567(2) -0.45889(10)
H5B H -0.6814 0.3371 -0.4749
H6B H -0.7256 0.5156 -0.4960
Na1B Na -0.35697(8) 1.35262(14) -0.67525(6)
Na2B Na -0.93952(8) 0.77204(13) -0.51749(6)
N1A N -0.61090(16) -0.0674(3) -0.15970(12)
O5A O -0.67227(15) 0.0309(3) -0.21913(11)
O6A O -0.55680(19) 0.0014(3) -0.08927(14)
O7A O -0.6032(2) -0.2341(3) -0.17190(14)
O9B O -0.24276(16) 0.1068(3) -0.59116(11)
H7B H -0.2803 0.0472 -0.5595
H8B H -0.2672 0.0662 -0.6456
O10B O 0.06958(13) 0.0827(3) -0.57534(10)
H9B H 0.1409 0.1098 -0.5794
H10B H 0.0393 0.1012 -0.6345
O11B O -0.44726(15) 1.6260(2) -0.74734(10)
H11B H -0.4076 1.7259 -0.7548
H12B H -0.4852 1.6619 -0.7030
O3_2 O -0.47723(13) 0.7126(2) -0.40417(10)
O3B_2 O -0.52277(13) 0.2874(2) -0.59583(10)
O8B_2 O -0.67369(13) -0.5433(2) -0.45889(10)
O6_2 O 0.05680(19) 0.5014(3) -0.41073(14)
O6B O -0.05680(19) 0.4986(3) -0.58927(14)
O7_2 O 0.1032(2) 0.2659(3) -0.32810(14)
Co1_2 Co -0.5000 -0.5000 -0.5000
Na2_2 Na -1.06048(8) -0.77204(13) -0.48251(6)
Na2B_2 Na -0.93952(8) -0.22796(13) -0.51749(6)
Na1A Na -0.85697(8) -0.85262(14) -0.17525(6)
Na1B_2 Na -0.35697(8) 0.35262(14) -0.67525(6)
Na2B_3 Na 0.06048(8) -0.22796(13) -0.51749(6)
Co1_3 Co -0.5000 1.5000 -0.5000
Na1_2 Na -0.64303(8) 0.64738(14) -0.32475(6)
O5B O -0.17227(15) 1.4691(3) -0.71913(11)
O7C O -0.3968(2) 1.2341(3) -0.82810(14)
O8_2 O -0.32631(13) 1.5433(2) -0.54111(10)
O9B_2 O -0.24276(16) 1.1068(3) -0.59116(11)
O6_3 O -0.94320(19) 0.5014(3) -0.41073(14)
O6B_2 O -1.05680(19) 0.4986(3) -0.58927(14)
O7B O -1.1032(2) 0.7341(3) -0.67190(14)
O9_2 O -0.75724(16) 0.8932(3) -0.40884(11)
O10B_2 O -0.93042(13) 1.0827(3) -0.57534(10)
O10_2 O -1.06958(13) 0.9173(3) -0.42466(10)
Na1A_2 Na -0.85697(8) 0.14738(14) -0.17525(6)
Na2C Na -0.56048(8) 0.27204(13) 0.01749(6)
Na2A Na -0.43952(8) -0.27204(13) -0.01749(6)
H5B_2 H -0.6814 -0.6629 -0.4749
H6B_2 H -0.7256 -0.4844 -0.4960
H5_2 H -0.3186 1.6629 -0.5251
H6_2 H -0.2744 1.4844 -0.5040
H7B_2 H -0.2803 1.0472 -0.5595
H8B_2 H -0.2672 1.0662 -0.6456
H7_2 H -0.7197 0.9528 -0.4405
H8_2 H -0.7328 0.9338 -0.3544
H9B_2 H -0.8591 1.1098 -0.5794
H10B_2 H -0.9607 1.1012 -0.6345
H9_2 H -1.1409 0.8902 -0.4206
H10_2 H -1.0393 0.8988 -0.3655
Na2_3 Na -0.06048(8) 1.22796(13) -0.48251(6)
Na2_4 Na -1.06048(8) 1.22796(13) -0.48251(6)
Na2_5 Na -1.06048(8) 0.22796(13) -0.48251(6)
loop_
_geom_bond_atom_site_label_1
_geom_bond_atom_site_label_2
_geom_bond_site_symmetry_1
_geom_bond_site_symmetry_2
Co1 O1 1_555 1_555
Na1 O3 1_555 1_555
Na2 O2 1_555 1_555
N1 O5 1_555 1_555
C1 C2 1_555 1_555
C2 H1 1_555 1_555
H2 C2 1_555 1_555
C3 C2 1_555 1_555
H3 C3 1_555 1_555
H4 C3 1_555 1_555
C4 C3 1_555 1_555
O1 C1 1_555 1_555
O2 C1 1_555 1_555
O3 C4 1_555 1_555
O4 C4 1_555 1_555
O5 Na1 1_555 1_555
O6 N1 1_555 1_555
O7 N1 1_555 1_555
O8 Co1 1_555 1_555
O9 Na1 1_555 1_555
O10 Na2 1_555 1_555
O11 Na1 1_555 1_555
H5 O8 1_555 1_555
H6 O8 1_555 1_555
H7 O9 1_555 1_555
H8 O9 1_555 1_555
H9 O10 1_555 1_555
H10 O10 1_555 1_555
H11 O11 1_555 1_555
H12 O11 1_555 1_555
C1B C2B 1_555 1_555
C2B H1B 1_555 1_555
H2B C2B 1_555 1_555
C3B C2B 1_555 1_555
H3B C3B 1_555 1_555
H4B C3B 1_555 1_555
C4B C3B 1_555 1_555
O1B Co1 1_555 1_555
O2B C1B 1_555 1_555
O3B C4B 1_555 1_555
O4B C4B 1_555 1_555
O8B Co1 1_555 1_555
H5B O8B 1_555 1_555
H6B O8B 1_555 1_555
Na1B O3B 1_555 1_555
Na2B O2B 1_555 1_555
N1A O5A 1_555 1_555
O5A Na1A_2 1_555 1_555
O6A N1A 1_555 1_555
O7A Na1 1_555 1_555
O9B Na2 1_555 1_555
H7B O9B 1_555 1_555
H8B O9B 1_555 1_555
O10B Na2 1_555 1_555
H9B O10B 1_555 1_555
H10B O10B 1_555 1_555
O11B Na1B 1_555 1_555
H11B O11B 1_555 1_555
H12B O11B 1_555 1_555
O3_2 Co1 1_555 1_555
O3B_2 Co1 1_555 1_555
O8B_2 Na1 1_555 1_555
O6_2 Na2 1_555 1_555
O6B Na2 1_555 1_555
O7_2 Na2 1_555 1_555
Co1_2 O3 1_555 1_555
Na2_2 O6 1_555 1_555
Na2B_2 O6 1_555 1_555
Na1A O7 1_555 1_555
Na1B_2 O8 1_555 1_555
Na2B_3 O10 1_555 1_555
Co1_3 O3B 1_555 1_555
Na1_2 O8B 1_555 1_555
O5B Na1B 1_555 1_555
O7C Na1B 1_555 1_555
O8_2 Na1B 1_555 1_555
O9B_2 Na1B 1_555 1_555
O6_3 Na2B 1_555 1_555
O6B_2 Na2B 1_555 1_555
O7B Na2B 1_555 1_555
O9_2 Na2B 1_555 1_555
O10B_2 Na2B 1_555 1_555
O10_2 Na2B 1_555 1_555
Na2C O6A 1_555 1_555
Na2A O6A 1_555 1_555
H5B_2 O8B_2 1_555 1_555
H6B_2 O8B_2 1_555 1_555
H5_2 O8_2 1_555 1_555
H6_2 O8_2 1_555 1_555
H7B_2 O9B_2 1_555 1_555
H8B_2 O9B_2 1_555 1_555
H7_2 O9_2 1_555 1_555
H8_2 O9_2 1_555 1_555
H9B_2 O10B_2 1_555 1_555
H10B_2 O10B_2 1_555 1_555
H9_2 O10_2 1_555 1_555
H10_2 O10_2 1_555 1_555
Na2_3 O9B_2 1_555 1_555
Na2_4 O10B_2 1_555 1_555
Na2_5 O6_3 1_555 1_555
O7 Na2_2 1_555 1_555
O9 Na2B_2 1_555 1_555
C1B O1B 1_555 1_555
N1A O7A 1_555 1_555
O7A Na2A 1_555 1_555
O9B Na1B_2 1_555 1_555
O10B Na2B_3 1_555 1_555
O3_2 Na1_2 1_555 1_555
O3B_2 Na1B_2 1_555 1_555
O8B_2 Co1_2 1_555 1_555
Co1_3 O8_2 1_555 1_555
Na1_2 O9_2 1_555 1_555
O6B_2 Na2_5 1_555 1_555
O10_2 Na2_4 1_555 1_555

#END
