
#######################################################################
#
#                 Cambridge Crystallographic Data Centre
#                                CCDC 
#
#######################################################################
#
# If this CIF has been generated from an entry in the Cambridge 
# Structural Database, then it will include bibliographic, chemical, 
# crystal, experimental, refinement or atomic coordinate data resulting 
# from the CCDC's data processing and validation procedures.
#
#######################################################################

data_NENCAK01
_symmetry_cell_setting           monoclinic
_symmetry_space_group_name_H-M   'C 2/c'
_symmetry_Int_Tables_number      15
_space_group_name_Hall           '-C 2yn'
loop_
_symmetry_equiv_pos_site_id
_symmetry_equiv_pos_as_xyz
1 x,y,z
2 x,-y,1/2+z
3 1/2+x,1/2+y,z
4 1/2+x,1/2-y,1/2+z
5 -x,-y,-z
6 -x,y,1/2-z
7 1/2-x,1/2-y,-z
8 1/2-x,1/2+y,1/2-z
_cell_length_a                   21.518(2)
_cell_length_b                   15.304(1)
_cell_length_c                   16.881(2)
_cell_angle_alpha                90
_cell_angle_beta                 127.300(2)
_cell_angle_gamma                90
_cell_volume                     4422.12
loop_
_atom_site_label
_atom_site_type_symbol
_atom_site_fract_x
_atom_site_fract_y
_atom_site_fract_z
Co1 Co 0.13466(4) -0.24871(3) 0.12131(5)
Cr1 Cr -0.07212(5) -0.26567(6) 0.00416(6)
Cr2 Cr -0.16677(5) -0.20454(6) -0.22263(6)
O1 O 0.0146(2) -0.2522(2) 0.0330(3)
O2 O -0.0729(3) -0.2336(3) 0.0940(4)
O3 O -0.0962(3) -0.3656(3) -0.0181(4)
O4 O -0.1422(2) -0.2019(3) -0.1017(3)
O5 O -0.0981(3) -0.2453(3) -0.2206(4)
O6 O -0.1834(3) -0.1064(3) -0.2632(4)
O7 O -0.2454(2) -0.2636(2) -0.2951(3)
N1 N 0.1322(3) -0.3582(3) 0.2062(3)
N2 N 0.1332(2) -0.6622(3) 0.5226(3)
N3 N 0.1404(2) -0.1579(2) 0.2202(3)
N4 N 0.1213(2) 0.1385(2) 0.5268(3)
C1 C 0.1558(3) -0.4406(3) 0.2097(4)
C2 C 0.1526(3) -0.5063(3) 0.2642(4)
C3 C 0.1261(3) -0.4875(3) 0.3198(3)
C4 C 0.1018(3) -0.4022(3) 0.3155(4)
C5 C 0.1046(3) -0.3402(3) 0.2576(4)
C6 C 0.1849(3) -0.6673(3) 0.5041(3)
C7 C 0.1830(3) -0.6161(3) 0.4351(4)
C8 C 0.1256(3) -0.5515(3) 0.3845(4)
C9 C 0.0704(3) -0.5467(3) 0.4025(4)
C10 C 0.0749(3) -0.6031(3) 0.4696(4)
C11 C 0.1990(3) -0.1556(4) 0.3198(4)
C12 C 0.1969(3) -0.1009(4) 0.3828(4)
C13 C 0.1348(3) -0.0444(3) 0.3458(4)
C14 C 0.0771(3) -0.0439(3) 0.2438(4)
C15 C 0.0814(3) -0.1014(3) 0.1851(4)
C16 C 0.1515(3) 0.0579(3) 0.5612(4)
C17 C 0.1563(3) -0.0039(3) 0.5050(4)
C18 C 0.1297(3) 0.0169(3) 0.4089(4)
C19 C 0.0957(3) 0.0994(3) 0.3719(4)
C20 C 0.0900(3) 0.1558(3) 0.4307(4)
H1 H 0.0285 -0.4867 0.3701
H2 H 0.2369 -0.6198 0.4455
H3 H 0.1817 -0.4471 0.1662
H4 H 0.0843 -0.2674 0.2585
H5 H 0.2468 -0.2050 0.3521
H6 H 0.0811 -0.3744 0.3571
H7 H 0.0440 -0.1094 0.1245
H8 H 0.1551 -0.5633 0.2431
H9 H 0.0633 0.2097 0.4035
H10 H 0.0750 0.1149 0.3054
H11 H 0.1716 0.0434 0.6276
H12 H 0.1754 -0.0613 0.5315
H13 H 0.2387 -0.1018 0.4528
H14 H 0.0340 -0.0052 0.2140
H15 H 0.0362 -0.5984 0.4798
H16 H 0.2256 -0.7099 0.5387
N2A N 0.1332(2) -0.3378(3) 0.0226(3)
N4A N 0.1213(2) -0.1385(2) 0.0268(3)
Co1A Co 0.13466(4) -0.75129(3) 0.62131(5)
Co1A_2 Co 0.13466(4) 0.24871(3) 0.62131(5)
O7C O 0.2546(2) -0.2364(2) 0.2049(3)
Co1C Co -0.36534(4) -0.25129(3) -0.37869(5)
loop_
_geom_bond_atom_site_label_1
_geom_bond_atom_site_label_2
_geom_bond_site_symmetry_1
_geom_bond_site_symmetry_2
Co1 O1 1_555 1_555
Cr1 O1 1_555 1_555
Cr2 O4 1_555 1_555
O2 Cr1 1_555 1_555
O3 Cr1 1_555 1_555
O4 Cr1 1_555 1_555
O5 Cr2 1_555 1_555
O6 Cr2 1_555 1_555
O7 Cr2 1_555 1_555
N1 Co1 1_555 1_555
N2 C6 1_555 1_555
N3 Co1 1_555 1_555
N4 C16 1_555 1_555
C1 N1 1_555 1_555
C2 C1 1_555 1_555
C3 C2 1_555 1_555
C4 C3 1_555 1_555
C5 N1 1_555 1_555
C6 C7 1_555 1_555
C7 C8 1_555 1_555
C8 C3 1_555 1_555
C9 C8 1_555 1_555
C10 N2 1_555 1_555
C11 N3 1_555 1_555
C12 C11 1_555 1_555
C13 C12 1_555 1_555
C14 C13 1_555 1_555
C15 N3 1_555 1_555
C16 C17 1_555 1_555
C17 C18 1_555 1_555
C18 C13 1_555 1_555
C19 C18 1_555 1_555
C20 N4 1_555 1_555
H1 C9 1_555 1_555
H2 C7 1_555 1_555
H3 C1 1_555 1_555
H4 C5 1_555 1_555
H5 C11 1_555 1_555
H6 C4 1_555 1_555
H7 C15 1_555 1_555
H8 C2 1_555 1_555
H9 C20 1_555 1_555
H10 C19 1_555 1_555
H11 C16 1_555 1_555
H12 C17 1_555 1_555
H13 C12 1_555 1_555
H14 C14 1_555 1_555
H15 C10 1_555 1_555
H16 C6 1_555 1_555
N2A Co1 1_555 1_555
N4A Co1 1_555 1_555
Co1A N2 1_555 1_555
Co1A_2 N4 1_555 1_555
O7C Co1 1_555 1_555
Co1C O7 1_555 1_555
C4 C5 1_555 1_555
C9 C10 1_555 1_555
C14 C15 1_555 1_555
C19 C20 1_555 1_555

#END
