
#######################################################################
#
#                 Cambridge Crystallographic Data Centre
#                                CCDC 
#
#######################################################################
#
# If this CIF has been generated from an entry in the Cambridge 
# Structural Database, then it will include bibliographic, chemical, 
# crystal, experimental, refinement or atomic coordinate data resulting 
# from the CCDC's data processing and validation procedures.
#
#######################################################################

data_NENDEQ
_symmetry_cell_setting           monoclinic
_symmetry_space_group_name_H-M   'P 21/n'
_symmetry_Int_Tables_number      14
_space_group_name_Hall           '-P 2yn'
loop_
_symmetry_equiv_pos_site_id
_symmetry_equiv_pos_as_xyz
1 x,y,z
2 1/2-x,1/2+y,1/2-z
3 -x,-y,-z
4 1/2+x,1/2-y,1/2+z
_cell_length_a                   10.3777(16)
_cell_length_b                   6.2592(9)
_cell_length_c                   13.150(2)
_cell_angle_alpha                90
_cell_angle_beta                 97.317(2)
_cell_angle_gamma                90
_cell_volume                     847.217
loop_
_atom_site_label
_atom_site_type_symbol
_atom_site_fract_x
_atom_site_fract_y
_atom_site_fract_z
N1 N 0.3406(2) -0.1737(4) 0.11454(19)
C1 C 0.3520(3) 0.0037(5) 0.0619(3)
H1 H 0.4256 0.0879 0.0781
C2 C 0.2595(3) 0.0681(5) -0.0155(2)
H2 H 0.2708 0.1931 -0.0516
O1 O 0.0621(2) 0.0143(4) -0.10996(17)
N2 N 0.6560(3) -0.0962(5) 0.2739(3)
O2 O 0.3078(2) -0.5378(4) 0.22155(16)
Cd1 Cd 0.47826(2) -0.30693(4) 0.254540(16)
S1 S 0.90472(8) -0.04550(14) 0.38075(7)
O3 O 0.1135(2) -0.5914(4) 0.13187(17)
C3 C 0.2335(3) -0.2910(5) 0.0904(2)
N3 N 0.1523(3) -0.0513(4) -0.03876(19)
C4 C 0.7596(3) -0.0754(5) 0.3158(3)
C5 C 0.1371(3) -0.2336(5) 0.0133(2)
H3 H 0.0636 -0.3181 -0.0025
C6 C 0.2173(3) -0.4905(5) 0.1536(2)
O1C O 0.5621(2) -0.5143(4) 0.39004(17)
Cd1C Cd -0.02174(2) -0.19307(4) -0.245460(16)
Cd1A Cd 1.02174(2) 0.19307(4) 0.245460(16)
Cd1A_2 Cd 0.02174(2) -0.80693(4) 0.245460(16)
S1A S 0.59528(8) -0.54550(14) 0.11925(7)
O3A O 0.3865(2) -0.0914(4) 0.36813(17)
loop_
_geom_bond_atom_site_label_1
_geom_bond_atom_site_label_2
_geom_bond_site_symmetry_1
_geom_bond_site_symmetry_2
N1 C1 1_555 1_555
C1 H1 1_555 1_555
C2 C1 1_555 1_555
H2 C2 1_555 1_555
O1 N3 1_555 1_555
N2 Cd1 1_555 1_555
O2 Cd1 1_555 1_555
Cd1 N1 1_555 1_555
S1 C4 1_555 1_555
O3 C6 1_555 1_555
C3 N1 1_555 1_555
N3 C2 1_555 1_555
C4 N2 1_555 1_555
C5 C3 1_555 1_555
H3 C5 1_555 1_555
C6 O2 1_555 1_555
O1C Cd1 1_555 1_555
Cd1C O1 1_555 1_555
Cd1A S1 1_555 1_555
Cd1A_2 O3 1_555 1_555
S1A Cd1 1_555 1_555
O3A Cd1 1_555 1_555
C3 C6 1_555 1_555
N3 C5 1_555 1_555

#END
