
#######################################################################
#
#                 Cambridge Crystallographic Data Centre
#                                CCDC 
#
#######################################################################
#
# If this CIF has been generated from an entry in the Cambridge 
# Structural Database, then it will include bibliographic, chemical, 
# crystal, experimental, refinement or atomic coordinate data resulting 
# from the CCDC's data processing and validation procedures.
#
#######################################################################

data_NENJIB
_symmetry_cell_setting           triclinic
_symmetry_space_group_name_H-M   'P -1'
_symmetry_Int_Tables_number      2
_space_group_name_Hall           '-P 1'
loop_
_symmetry_equiv_pos_site_id
_symmetry_equiv_pos_as_xyz
1 x,y,z
2 -x,-y,-z
_cell_length_a                   10.0441(14)
_cell_length_b                   10.5039(15)
_cell_length_c                   10.6590(15)
_cell_angle_alpha                103.728(2)
_cell_angle_beta                 100.674(2)
_cell_angle_gamma                106.523(2)
_cell_volume                     1008.02
loop_
_atom_site_label
_atom_site_type_symbol
_atom_site_fract_x
_atom_site_fract_y
_atom_site_fract_z
Zn1 Zn 0.38835(5) 0.11623(6) 0.46714(6)
C1 C -0.6100(5) -0.2865(5) 0.2467(5)
H1 H -0.6818 -0.2944 0.2913
C2 C -0.6484(5) -0.3479(6) 0.1116(5)
H2 H -0.7451 -0.3946 0.0653
C3 C -0.5435(5) -0.3410(6) 0.0427(5)
C4 C -0.4012(5) -0.2692(5) 0.1154(5)
C5 C -0.3713(5) -0.2076(5) 0.2509(5)
H3 H -0.2755 -0.1579 0.2989
C6 C -0.2789(5) -0.2521(6) 0.0580(5)
C7 C -0.0692(5) -0.1910(5) 0.0360(5)
C8 C 0.0877(5) -0.1201(5) 0.0719(5)
C9 C 0.1644(5) -0.1026(6) -0.0225(5)
H4 H 0.1188 -0.1405 -0.1139
C10 C 0.3094(5) -0.0279(6) 0.0235(5)
H5 H 0.3634 -0.0162 -0.0377
C11 C 0.3757(5) 0.0297(5) 0.1581(5)
H6 H 0.4739 0.0809 0.1862
C12 C 0.1630(5) -0.0608(5) 0.2069(5)
H7 H 0.1125 -0.0745 0.2702
C13 C 0.6849(5) 0.1673(5) 0.4540(4)
C14 C 0.8150(5) 0.2430(5) 0.4152(5)
C15 C 0.9418(5) 0.2121(5) 0.4428(4)
H8 H 0.9435 0.1406 0.4799
C16 C 1.0655(5) 0.2871(5) 0.4154(4)
C17 C 1.0611(5) 0.3914(5) 0.3561(5)
H9 H 1.1432 0.4443 0.3390
C18 C 0.8095(5) 0.3439(5) 0.3539(5)
H10 H 0.7255 0.3645 0.3332
C19 C 0.9342(5) 0.4142(5) 0.3237(5)
C20 C 1.2020(5) 0.2571(6) 0.4467(5)
H11 H -0.566(4) -0.383(4) -0.048(4)
N1 N 0.3037(4) 0.0147(4) 0.2511(4)
N2 N -0.1429(4) -0.1761(4) 0.1288(4)
N3 N -0.1479(5) -0.2687(5) -0.0869(4)
N4 N -0.2822(4) -0.3076(4) -0.0703(4)
H12 H -0.3544 -0.3748 -0.1434
N5 N -0.4725(4) -0.2151(4) 0.3182(4)
N6 N 0.9265(5) 0.5203(5) 0.2553(4)
O1 O 0.5779(3) 0.2059(4) 0.4337(3)
O2 O 0.6927(4) 0.0714(4) 0.5032(4)
O3 O 0.8130(4) 0.5394(5) 0.2253(5)
O4 O 1.0371(5) 0.5860(5) 0.2345(5)
O5 O 1.3183(4) 0.3442(5) 0.4502(4)
O6 O 1.1930(3) 0.1410(4) 0.4660(4)
Zn1A Zn -0.38835(5) -0.11623(6) 0.53286(6)
Zn1A_2 Zn 0.61165(5) -0.11623(6) 0.53286(6)
Zn1_2 Zn 1.38835(5) 0.11623(6) 0.46714(6)
N5A N 0.4725(4) 0.2151(4) 0.6818(4)
O2A O 0.3073(4) -0.0714(4) 0.4968(4)
O6_2 O 0.1930(3) 0.1410(4) 0.4660(4)
O7 O 0.4989(4) 0.5597(4) 0.6984(4)
H13 H 0.4427 0.4916 0.6448
H14 H 0.5294 0.5917 0.6416
loop_
_geom_bond_atom_site_label_1
_geom_bond_atom_site_label_2
_geom_bond_site_symmetry_1
_geom_bond_site_symmetry_2
Zn1 N1 1_555 1_555
C1 H1 1_555 1_555
C2 C1 1_555 1_555
H2 C2 1_555 1_555
C3 C2 1_555 1_555
C4 C3 1_555 1_555
C5 C4 1_555 1_555
H3 C5 1_555 1_555
C6 C4 1_555 1_555
C7 C8 1_555 1_555
C8 C9 1_555 1_555
C9 H4 1_555 1_555
C10 C9 1_555 1_555
H5 C10 1_555 1_555
C11 C10 1_555 1_555
H6 C11 1_555 1_555
C12 C8 1_555 1_555
H7 C12 1_555 1_555
C13 C14 1_555 1_555
C14 C15 1_555 1_555
C15 H8 1_555 1_555
C16 C15 1_555 1_555
C17 C16 1_555 1_555
H9 C17 1_555 1_555
C18 C14 1_555 1_555
H10 C18 1_555 1_555
C19 C17 1_555 1_555
C20 C16 1_555 1_555
H11 C3 1_555 1_555
N1 C11 1_555 1_555
N2 C6 1_555 1_555
N3 C7 1_555 1_555
N4 C6 1_555 1_555
H12 N4 1_555 1_555
N5 C1 1_555 1_555
N6 C19 1_555 1_555
O1 Zn1 1_555 1_555
O2 C13 1_555 1_555
O3 N6 1_555 1_555
O4 N6 1_555 1_555
O5 C20 1_555 1_555
O6 C20 1_555 1_555
O7 H13 1_555 1_555
H14 O7 1_555 1_555
Zn1A N5 1_555 1_555
Zn1A_2 O2 1_555 1_555
Zn1_2 O6 1_555 1_555
N5A Zn1 1_555 1_555
O2A Zn1 1_555 1_555
O6_2 Zn1 1_555 1_555
C5 N5 1_555 1_555
C7 N2 1_555 1_555
C12 N1 1_555 1_555
C13 O1 1_555 1_555
C18 C19 1_555 1_555
N3 N4 1_555 1_555

#END
