
#######################################################################
#
#                 Cambridge Crystallographic Data Centre
#                                CCDC 
#
#######################################################################
#
# If this CIF has been generated from an entry in the Cambridge 
# Structural Database, then it will include bibliographic, chemical, 
# crystal, experimental, refinement or atomic coordinate data resulting 
# from the CCDC's data processing and validation procedures.
#
#######################################################################

data_NENLIC
_symmetry_cell_setting           tetragonal
_symmetry_space_group_name_H-M   'I 41 c d'
_symmetry_Int_Tables_number      110
_space_group_name_Hall           'I 4bw -2c'
loop_
_symmetry_equiv_pos_site_id
_symmetry_equiv_pos_as_xyz
1 x,y,z
2 -x,-y,z
3 -y,1/2+x,1/4+z
4 y,1/2-x,1/4+z
5 -x,y,1/2+z
6 x,-y,1/2+z
7 1/2+y,x,1/4+z
8 1/2-y,-x,1/4+z
9 1/2+x,1/2+y,1/2+z
10 1/2-x,1/2-y,1/2+z
11 1/2-y,x,3/4+z
12 1/2+y,-x,3/4+z
13 1/2-x,1/2+y,z
14 1/2+x,1/2-y,z
15 y,1/2+x,3/4+z
16 -y,1/2-x,3/4+z
_cell_length_a                   13.4460(10)
_cell_length_b                   13.4460(10)
_cell_length_c                   27.980(2)
_cell_angle_alpha                90
_cell_angle_beta                 90
_cell_angle_gamma                90
_cell_volume                     5058.64
loop_
_atom_site_label
_atom_site_type_symbol
_atom_site_fract_x
_atom_site_fract_y
_atom_site_fract_z
Cd1 Cd 0.24126(5) 0.23814(4) -0.49999(4)
S1 S 0.24640(10) 0.29300(10) -0.37290(10)
O1 O 0.2333(4) 0.2326(4) -0.4160(3)
O2 O 0.2256(5) 0.2324(4) -0.3313(3)
O3 O 0.1752(3) 0.3759(3) -0.3746(2)
O4 O 0.3505(3) 0.3288(4) -0.3718(2)
N1 N -0.0892(3) 0.3056(3) -0.4882(2)
N2 N -0.0941(3) 0.4063(3) -0.4188(2)
N3 N 0.0514(3) 0.3517(3) -0.4559(2)
N4 N 0.0772(3) 0.2957(3) -0.4957(2)
N5 N -0.0227(3) 0.2139(4) -0.5532(2)
N6 N 0.3072(3) 0.5716(3) -0.4913(2)
N7 N 0.4082(4) 0.5797(3) -0.4201(2)
N8 N 0.3558(3) 0.4315(3) -0.4581(2)
H1 H 0.3859 0.3914 -0.4397
N9 N 0.2958(3) 0.4045(3) -0.4967(2)
N10 N 0.2124(4) 0.5022(4) -0.5548(2)
C1 C -0.0476(3) 0.3558(3) -0.4523(2)
C2 C -0.0102(4) 0.2707(4) -0.5133(2)
C3 C 0.3583(3) 0.5312(3) -0.4550(2)
C4 C 0.2706(4) 0.4913(4) -0.5151(2)
H4 H -0.1573 0.4091 -0.4188
H5 H -0.0611 0.4360 -0.3972
H6 H 0.0922 0.3791 -0.4368
H7 H 0.0278 0.1923 -0.5683
H8 H -0.0809 0.1999 -0.5629
H9 H 0.4397 0.5470 -0.3989
H10 H 0.4081 0.6429 -0.4193
H11 H 0.1901 0.4511 -0.5692
H12 H 0.1985 0.5600 -0.5651
Cd1C Cd 0.23814(4) 0.25874(5) -0.24999(4)
Cd1M Cd -0.25874(5) 0.26186(4) -0.49999(4)
Cd1L Cd 0.25874(5) 0.73814(4) -0.49999(4)
O2J O 0.2676(4) 0.2256(5) -0.5813(3)
N1M N 0.4108(3) 0.1944(3) -0.4882(2)
N6L N 0.1928(3) 0.0716(3) -0.4913(2)
O5 O 0.5000 0.0000 -0.3317(4)
H2 H 0.4517 -0.0181 -0.3144
H2A H 0.5483 0.0181 -0.3144
O6 O 0.0000 0.0000 -0.3305(4)
H3 H -0.0061 0.0514 -0.3132
H3A H 0.0061 -0.0514 -0.3132
loop_
_geom_bond_atom_site_label_1
_geom_bond_atom_site_label_2
_geom_bond_site_symmetry_1
_geom_bond_site_symmetry_2
Cd1 O1 1_555 1_555
S1 O1 1_555 1_555
O2 S1 1_555 1_555
O3 S1 1_555 1_555
O4 S1 1_555 1_555
O5 H2 1_555 1_555
O6 H3 1_555 1_555
N1 C1 1_555 1_555
N2 C1 1_555 1_555
N3 N4 1_555 1_555
N4 Cd1 1_555 1_555
N5 C2 1_555 1_555
N6 C3 1_555 1_555
N7 C3 1_555 1_555
N8 H1 1_555 1_555
N9 Cd1 1_555 1_555
N10 C4 1_555 1_555
C1 N3 1_555 1_555
C2 N1 1_555 1_555
C3 N8 1_555 1_555
C4 N6 1_555 1_555
H4 N2 1_555 1_555
H5 N2 1_555 1_555
H6 N3 1_555 1_555
H7 N5 1_555 1_555
H8 N5 1_555 1_555
H9 N7 1_555 1_555
H10 N7 1_555 1_555
H11 N10 1_555 1_555
H12 N10 1_555 1_555
Cd1C O2 1_555 1_555
Cd1M N1 1_555 1_555
Cd1L N6 1_555 1_555
O2J Cd1 1_555 1_555
N1M Cd1 1_555 1_555
N6L Cd1 1_555 1_555
H2A O5 1_555 1_555
H3A O6 1_555 1_555
N4 C2 1_555 1_555
N8 N9 1_555 1_555
N9 C4 1_555 1_555

#END
