
#######################################################################
#
#                 Cambridge Crystallographic Data Centre
#                                CCDC 
#
#######################################################################
#
# If this CIF has been generated from an entry in the Cambridge 
# Structural Database, then it will include bibliographic, chemical, 
# crystal, experimental, refinement or atomic coordinate data resulting 
# from the CCDC's data processing and validation procedures.
#
#######################################################################

data_NENQAY
_symmetry_cell_setting           triclinic
_symmetry_space_group_name_H-M   'P -1'
_symmetry_Int_Tables_number      2
_space_group_name_Hall           '-P 1'
loop_
_symmetry_equiv_pos_site_id
_symmetry_equiv_pos_as_xyz
1 x,y,z
2 -x,-y,-z
_cell_length_a                   12.1025(14)
_cell_length_b                   12.4141(10)
_cell_length_c                   12.6117(15)
_cell_angle_alpha                75.644(8)
_cell_angle_beta                 68.225(11)
_cell_angle_gamma                75.447(8)
_cell_volume                     1677.72
loop_
_atom_site_label
_atom_site_type_symbol
_atom_site_fract_x
_atom_site_fract_y
_atom_site_fract_z
Mn1 Mn 0.10577(3) 0.47517(3) 0.29022(3)
Mn2 Mn 0.40613(3) 0.49576(3) 0.21507(3)
S1 S -0.11022(6) 0.88645(6) 0.36730(7)
S2 S 0.15567(7) 0.90789(7) 0.29698(9)
S3 S 0.65496(6) 0.11112(6) 0.07593(7)
S4 S 0.40195(7) 0.06711(6) 0.22506(7)
O1 O 0.22304(14) 0.56672(14) 0.31525(14)
O2 O 0.2706(2) 0.6889(2) 0.3848(2)
O3 O -0.0869(2) 0.65663(15) 0.56264(14)
O4 O -0.04454(14) 0.57568(14) 0.40907(14)
O5 O 0.28917(14) 0.39792(14) 0.19126(14)
O6 O 0.2521(2) 0.2917(2) 0.0944(2)
O7 O 0.55457(14) 0.41368(14) 0.08198(14)
O8 O 0.5835(2) 0.35589(14) -0.08226(14)
N1 N -0.0259(2) 0.4231(2) 0.2335(2)
N2 N 0.0650(2) 0.6145(2) 0.1455(2)
N3 N 0.5368(2) 0.5434(2) 0.2758(2)
N4 N 0.4429(2) 0.3544(2) 0.3616(2)
C1 C -0.0604(3) 0.3232(3) 0.2723(3)
H1 H -0.0293(3) 0.2717(3) 0.3261(3)
C2 C -0.1414(3) 0.2929(3) 0.2354(3)
H2 H -0.1639(3) 0.2222(3) 0.2638(3)
C3 C -0.1877(2) 0.3691(3) 0.1562(3)
H3 H -0.2425(2) 0.3510(3) 0.1306(3)
C4 C -0.1519(2) 0.4725(3) 0.1155(2)
H4 H -0.1814(2) 0.5248(3) 0.0610(2)
C5 C -0.0716(2) 0.4983(2) 0.1564(2)
C6 C -0.0321(2) 0.6095(2) 0.1194(2)
C7 C -0.0916(3) 0.7036(3) 0.0636(2)
H5 H -0.1567(3) 0.6983(3) 0.0440(2)
C8 C -0.0528(3) 0.8050(3) 0.0378(3)
H6 H -0.0944(3) 0.8701(3) 0.0048(3)
C9 C 0.0478(3) 0.8092(3) 0.0611(3)
H7 H 0.0770(3) 0.8764(3) 0.0415(3)
C10 C 0.1050(3) 0.7126(2) 0.1138(2)
H8 H 0.1741(3) 0.7156(2) 0.1280(2)
C11 C 0.5733(2) 0.6428(2) 0.2376(2)
H9 H 0.5447(2) 0.6941(2) 0.1820(2)
C12 C 0.6514(2) 0.6731(2) 0.2767(3)
H10 H 0.6744(2) 0.7436(2) 0.2484(3)
C13 C 0.6952(2) 0.5971(3) 0.3585(2)
H11 H 0.7488(2) 0.6151(3) 0.3857(2)
C14 C 0.6578(2) 0.4945(2) 0.3988(2)
H12 H 0.6852(2) 0.4424(2) 0.4547(2)
C15 C 0.5787(2) 0.4689(2) 0.3556(2)
C16 C 0.5334(2) 0.3602(2) 0.3966(2)
C17 C 0.5786(2) 0.2709(2) 0.4689(2)
H13 H 0.6425(2) 0.2757(2) 0.4906(2)
C18 C 0.5274(3) 0.1748(2) 0.5081(2)
H14 H 0.5566(3) 0.1137(2) 0.5562(2)
C19 C 0.4323(3) 0.1702(2) 0.4751(2)
H15 H 0.3955(3) 0.1068(2) 0.5018(2)
C20 C 0.3928(2) 0.2614(2) 0.4019(2)
H16 H 0.3288(2) 0.2581(2) 0.3796(2)
C21 C 0.1975(2) 0.6533(2) 0.3641(2)
C22 C -0.0301(2) 0.6430(2) 0.4594(2)
C23 C 0.0675(2) 0.7141(2) 0.3928(2)
C24 C 0.0408(2) 0.8244(2) 0.3579(2)
C25 C -0.1513(4) 0.9663(4) 0.4805(4)
H17 H -0.2334(4) 1.0051(4) 0.4946(4)
H18 H -0.0987(4) 1.0203(4) 0.4578(4)
H19 H -0.1438(4) 0.9162(4) 0.5499(4)
C26 C 0.0964(5) 1.0319(4) 0.2199(5)
H20 H 0.1555(5) 1.0805(4) 0.1849(5)
H21 H 0.0252(5) 1.0696(4) 0.2718(5)
H22 H 0.0759(5) 1.0136(4) 0.1606(5)
C27 C 0.3195(2) 0.3213(2) 0.1282(2)
C28 C 0.5383(2) 0.3529(2) 0.0252(2)
C29 C 0.4536(2) 0.2692(2) 0.0931(2)
C30 C 0.4965(2) 0.1615(2) 0.1249(2)
C31 C 0.6849(4) 0.0600(4) 0.2102(4)
H23 H 0.7695(4) 0.0300(4) 0.1949(4)
H24 H 0.6388(4) 0.0016(4) 0.2552(4)
H25 H 0.6624(4) 0.1209(4) 0.2526(4)
C32 C 0.4556(3) -0.0584(3) 0.1630(4)
H26 H 0.4093(3) -0.1154(3) 0.2118(4)
H27 H 0.5392(3) -0.0850(3) 0.1562(4)
H28 H 0.4473(3) -0.0425(3) 0.0876(4)
O3A O 0.0869(2) 0.34337(15) 0.43736(14)
O8A O 0.4165(2) 0.64411(14) 0.08226(14)
Mn1A Mn -0.10577(3) 0.52483(3) 0.70978(3)
Mn2A Mn 0.59387(3) 0.50424(3) -0.21507(3)
loop_
_geom_bond_atom_site_label_1
_geom_bond_atom_site_label_2
_geom_bond_site_symmetry_1
_geom_bond_site_symmetry_2
Mn1 O1 1_555 1_555
Mn2 O1 1_555 1_555
S1 C24 1_555 1_555
S2 C24 1_555 1_555
S3 C30 1_555 1_555
S4 C30 1_555 1_555
O1 C21 1_555 1_555
O2 C21 1_555 1_555
O3 C22 1_555 1_555
O4 Mn1 1_555 1_555
O5 Mn1 1_555 1_555
O6 C27 1_555 1_555
O7 Mn2 1_555 1_555
O8 C28 1_555 1_555
N1 Mn1 1_555 1_555
N2 Mn1 1_555 1_555
N3 Mn2 1_555 1_555
N4 Mn2 1_555 1_555
C1 N1 1_555 1_555
H1 C1 1_555 1_555
C2 C1 1_555 1_555
H2 C2 1_555 1_555
C3 C2 1_555 1_555
H3 C3 1_555 1_555
C4 C3 1_555 1_555
H4 C4 1_555 1_555
C5 N1 1_555 1_555
C6 N2 1_555 1_555
C7 C6 1_555 1_555
H5 C7 1_555 1_555
C8 C7 1_555 1_555
H6 C8 1_555 1_555
C9 C8 1_555 1_555
H7 C9 1_555 1_555
C10 N2 1_555 1_555
H8 C10 1_555 1_555
C11 N3 1_555 1_555
H9 C11 1_555 1_555
C12 C11 1_555 1_555
H10 C12 1_555 1_555
C13 C12 1_555 1_555
H11 C13 1_555 1_555
C14 C13 1_555 1_555
H12 C14 1_555 1_555
C15 N3 1_555 1_555
C16 N4 1_555 1_555
C17 C16 1_555 1_555
H13 C17 1_555 1_555
C18 C17 1_555 1_555
H14 C18 1_555 1_555
C19 C18 1_555 1_555
H15 C19 1_555 1_555
C20 N4 1_555 1_555
H16 C20 1_555 1_555
C21 C23 1_555 1_555
C22 O4 1_555 1_555
C23 C22 1_555 1_555
C24 C23 1_555 1_555
C25 S1 1_555 1_555
H17 C25 1_555 1_555
H18 C25 1_555 1_555
H19 C25 1_555 1_555
C26 S2 1_555 1_555
H20 C26 1_555 1_555
H21 C26 1_555 1_555
H22 C26 1_555 1_555
C27 O5 1_555 1_555
C28 O7 1_555 1_555
C29 C27 1_555 1_555
C30 C29 1_555 1_555
C31 S3 1_555 1_555
H23 C31 1_555 1_555
H24 C31 1_555 1_555
H25 C31 1_555 1_555
C32 S4 1_555 1_555
H26 C32 1_555 1_555
H27 C32 1_555 1_555
H28 C32 1_555 1_555
O3A Mn1 1_555 1_555
O8A Mn2 1_555 1_555
Mn1A O3 1_555 1_555
Mn2A O8 1_555 1_555
Mn2 O5 1_555 1_555
C4 C5 1_555 1_555
C5 C6 1_555 1_555
C9 C10 1_555 1_555
C14 C15 1_555 1_555
C15 C16 1_555 1_555
C19 C20 1_555 1_555
C28 C29 1_555 1_555

#END
