
#######################################################################
#
#                 Cambridge Crystallographic Data Centre
#                                CCDC 
#
#######################################################################
#
# If this CIF has been generated from an entry in the Cambridge 
# Structural Database, then it will include bibliographic, chemical, 
# crystal, experimental, refinement or atomic coordinate data resulting 
# from the CCDC's data processing and validation procedures.
#
#######################################################################

data_NENXIO
_symmetry_cell_setting           orthorhombic
_symmetry_space_group_name_H-M   'P n m a'
_symmetry_Int_Tables_number      62
_space_group_name_Hall           '-P 2ac 2n'
loop_
_symmetry_equiv_pos_site_id
_symmetry_equiv_pos_as_xyz
1 x,y,z
2 1/2-x,-y,1/2+z
3 -x,1/2+y,-z
4 1/2+x,1/2-y,1/2-z
5 -x,-y,-z
6 1/2+x,y,1/2-z
7 x,1/2-y,z
8 1/2-x,1/2+y,1/2+z
_cell_length_a                   16.7625(6)
_cell_length_b                   6.4316(2)
_cell_length_c                   8.3070(3)
_cell_angle_alpha                90
_cell_angle_beta                 90
_cell_angle_gamma                90
_cell_volume                     895.575
loop_
_atom_site_label
_atom_site_type_symbol
_atom_site_fract_x
_atom_site_fract_y
_atom_site_fract_z
Cu1 Cu 0.0000 0.0000 0.0000
C1 C 0.2258(2) 0.2500 0.1380(5)
C2 C 0.2663(2) 0.0672(5) 0.1629(5)
H1 H 0.2407 -0.0591 0.1461
C3 C 0.34416(19) 0.0699(6) 0.2124(4)
H2 H 0.3712 -0.0549 0.2274
C4 C 0.1407(2) 0.2500 0.0859(5)
N1 N 0.3820(2) 0.2500 0.2397(4)
N2 N -0.00469(19) 0.2500 -0.1446(4)
N3 N -0.0535(2) 0.2500 -0.2514(5)
N4 N -0.0991(3) 0.2500 -0.3537(6)
O1 O 0.10861(11) 0.0752(3) 0.0649(3)
O2 O 0.45694(17) 0.2500 0.2911(3)
Cu1F Cu 0.0000 0.5000 0.0000
Cu1E Cu 0.5000 0.0000 0.5000
Cu1G Cu 0.5000 0.5000 0.5000
C2F C 0.2663(2) 0.4328(5) 0.1629(5)
H1F H 0.2407 0.5591 0.1461
C3F C 0.34416(19) 0.4301(6) 0.2124(4)
H2F H 0.3712 0.5549 0.2274
N2D N 0.00469(19) -0.2500 0.1446(4)
O1F O 0.10861(11) 0.4248(3) 0.0649(3)
O1D O -0.10861(11) -0.0752(3) -0.0649(3)
O2E O -0.04306(17) 0.2500 0.2089(3)
O2G O 0.04306(17) -0.2500 -0.2089(3)
O3 O -0.0817(5) -0.2500 -0.4555(8)
loop_
_geom_bond_atom_site_label_1
_geom_bond_atom_site_label_2
_geom_bond_site_symmetry_1
_geom_bond_site_symmetry_2
Cu1 N2 1_555 1_555
C1 C2 1_555 1_555
C2 H1 1_555 1_555
C3 C2 1_555 1_555
H2 C3 1_555 1_555
C4 C1 1_555 1_555
N1 C3 1_555 1_555
N2 N3 1_555 1_555
N3 N4 1_555 1_555
O1 Cu1 1_555 1_555
O2 N1 1_555 1_555
Cu1F N2 1_555 1_555
Cu1E O2 1_555 1_555
Cu1G O2 1_555 1_555
C2F C1 1_555 1_555
H1F C2F 1_555 1_555
C3F N1 1_555 1_555
H2F C3F 1_555 1_555
N2D Cu1 1_555 1_555
O1F C4 1_555 1_555
O1D Cu1 1_555 1_555
O2E Cu1 1_555 1_555
O2G Cu1 1_555 1_555
C4 O1 1_555 1_555
Cu1F O1F 1_555 1_555
Cu1F O2E 1_555 1_555
C2F C3F 1_555 1_555

#END
