
#######################################################################
#
#                 Cambridge Crystallographic Data Centre
#                                CCDC 
#
#######################################################################
#
# If this CIF has been generated from an entry in the Cambridge 
# Structural Database, then it will include bibliographic, chemical, 
# crystal, experimental, refinement or atomic coordinate data resulting 
# from the CCDC's data processing and validation procedures.
#
#######################################################################

data_NEPHEW
_symmetry_cell_setting           monoclinic
_symmetry_space_group_name_H-M   'P 21/c'
_symmetry_Int_Tables_number      14
_space_group_name_Hall           '-P 2ybc'
loop_
_symmetry_equiv_pos_site_id
_symmetry_equiv_pos_as_xyz
1 x,y,z
2 -x,1/2+y,1/2-z
3 -x,-y,-z
4 x,1/2-y,1/2+z
_cell_length_a                   6.9770(10)
_cell_length_b                   6.7280(10)
_cell_length_c                   14.038(3)
_cell_angle_alpha                90
_cell_angle_beta                 98.294(3)
_cell_angle_gamma                90
_cell_volume                     652.069
loop_
_atom_site_label
_atom_site_type_symbol
_atom_site_fract_x
_atom_site_fract_y
_atom_site_fract_z
N1 N 0.6615(3) 0.6659(3) 0.27060(13)
C1 C 0.6650(3) 0.5888(3) 0.36881(16)
C2 C 0.6686(3) 0.7605(3) 0.43867(16)
N2 N 0.8458(2) 0.8844(3) 0.44221(12)
C3 C 1.0086(3) 0.7903(3) 0.50381(15)
C4 C 0.8124(3) 1.0800(3) 0.48616(15)
Li1 Li 0.8812(5) 0.8753(5) 0.2912(2)
Cl1 Cl 1.16422(6) 0.69094(7) 0.27620(3)
H1 H 0.546(4) 0.698(4) 0.252(2)
H2 H 0.687(4) 0.572(4) 0.234(2)
H3 H 0.783(4) 0.505(4) 0.3848(17)
H4 H 0.551(3) 0.504(4) 0.3703(17)
H5 H 0.654(3) 0.719(4) 0.5018(19)
H6 H 0.560(3) 0.846(3) 0.4161(16)
H7 H 1.034(3) 0.657(4) 0.4730(16)
H8 H 0.976(3) 0.760(4) 0.5734(18)
H9 H 0.774(3) 1.056(4) 0.5537(17)
H10 H 0.706(4) 1.151(4) 0.4413(18)
N1B N 1.3385(3) 1.3341(3) 0.72940(13)
C1B C 1.3350(3) 1.4112(3) 0.63119(16)
C2B C 1.3314(3) 1.2395(3) 0.56133(16)
N2B N 1.1542(2) 1.1156(3) 0.55779(12)
C3B C 0.9914(3) 1.2097(3) 0.49619(15)
C4B C 1.1876(3) 0.9200(3) 0.51384(15)
Li1B Li 1.1188(5) 1.1247(5) 0.7088(2)
Li1A Li 1.1188(5) 0.3753(5) 0.2088(2)
Li1A_2 Li 1.1188(5) 1.3753(5) 0.2088(2)
Cl1A Cl 0.83578(6) 1.19094(7) 0.22380(3)
Cl1B Cl 0.83578(6) 1.30906(7) 0.72380(3)
Cl1C Cl 1.16422(6) 0.80906(7) 0.77620(3)
H1B H 1.454(4) 1.302(4) 0.748(2)
H2B H 1.313(4) 1.428(4) 0.766(2)
H3B H 1.217(4) 1.495(4) 0.6152(17)
H4B H 1.449(3) 1.496(4) 0.6297(17)
H5B H 1.346(3) 1.281(4) 0.4982(19)
H6B H 1.440(3) 1.154(3) 0.5839(16)
H7B H 0.966(3) 1.343(4) 0.5270(16)
H8B H 1.024(3) 1.240(4) 0.4266(18)
H9B H 1.226(3) 0.944(4) 0.4463(17)
H10B H 1.294(4) 0.849(4) 0.5587(18)
loop_
_geom_bond_atom_site_label_1
_geom_bond_atom_site_label_2
_geom_bond_site_symmetry_1
_geom_bond_site_symmetry_2
N1 C1 1_555 1_555
C1 C2 1_555 1_555
C2 N2 1_555 1_555
N2 C3 1_555 1_555
C3 H7 1_555 1_555
C4 N2 1_555 1_555
Li1 N1 1_555 1_555
Cl1 Li1 1_555 1_555
H1 N1 1_555 1_555
H2 N1 1_555 1_555
H3 C1 1_555 1_555
H4 C1 1_555 1_555
H5 C2 1_555 1_555
H6 C2 1_555 1_555
H8 C3 1_555 1_555
H9 C4 1_555 1_555
H10 C4 1_555 1_555
N1B C1B 1_555 1_555
C1B C2B 1_555 1_555
C2B N2B 1_555 1_555
N2B C3B 1_555 1_555
C3B C4 1_555 1_555
C4B C3 1_555 1_555
Li1B N1B 1_555 1_555
Li1A Cl1 1_555 1_555
Li1A_2 Cl1A 1_555 1_555
Cl1A Li1 1_555 1_555
Cl1B Li1B 1_555 1_555
Cl1C Li1B 1_555 1_555
H1B N1B 1_555 1_555
H2B N1B 1_555 1_555
H3B C1B 1_555 1_555
H4B C1B 1_555 1_555
H5B C2B 1_555 1_555
H6B C2B 1_555 1_555
H7B C3B 1_555 1_555
H8B C3B 1_555 1_555
H9B C4B 1_555 1_555
H10B C4B 1_555 1_555
N2 Li1 1_555 1_555
N2B C4B 1_555 1_555
N2B Li1B 1_555 1_555

#END
