
#######################################################################
#
#                 Cambridge Crystallographic Data Centre
#                                CCDC 
#
#######################################################################
#
# If this CIF has been generated from an entry in the Cambridge 
# Structural Database, then it will include bibliographic, chemical, 
# crystal, experimental, refinement or atomic coordinate data resulting 
# from the CCDC's data processing and validation procedures.
#
#######################################################################

data_NEPHOG
_symmetry_cell_setting           rhombohedral
_symmetry_space_group_name_H-M   'R -3'
_symmetry_Int_Tables_number      148
_space_group_name_Hall           '-R 3'
loop_
_symmetry_equiv_pos_site_id
_symmetry_equiv_pos_as_xyz
1 x,y,z
2 -y,x-y,z
3 -x+y,-x,z
4 2/3+x,1/3+y,1/3+z
5 1/3+x,2/3+y,2/3+z
6 2/3-y,1/3+x-y,1/3+z
7 2/3-x+y,1/3-x,1/3+z
8 1/3-y,2/3+x-y,2/3+z
9 1/3-x+y,2/3-x,2/3+z
10 -x,-y,-z
11 y,-x+y,-z
12 x-y,x,-z
13 1/3-x,2/3-y,2/3-z
14 2/3-x,1/3-y,1/3-z
15 1/3+y,2/3-x+y,2/3-z
16 1/3+x-y,2/3+x,2/3-z
17 2/3+y,1/3-x+y,1/3-z
18 2/3+x-y,1/3+x,1/3-z
_cell_length_a                   8.0155(7)
_cell_length_b                   8.0155(7)
_cell_length_c                   53.866(5)
_cell_angle_alpha                90
_cell_angle_beta                 90
_cell_angle_gamma                120
_cell_volume                     2997.14
loop_
_atom_site_label
_atom_site_type_symbol
_atom_site_fract_x
_atom_site_fract_y
_atom_site_fract_z
N1 N 0.66667 0.33333 0.13635(4)
C1 C 0.5104(2) 0.3621(2) 0.14591(3)
C2 C 0.4890(2) 0.5169(2) 0.13251(3)
N2 N 0.4015(2) 0.4656(2) 0.10778(2)
Cl1 Cl 0.33333 0.66667 0.049870(10)
Li1 Li 0.33333 0.66667 0.09318(9)
H1 H 0.532(3) 0.393(3) 0.1639(4)
H2 H 0.390(3) 0.244(3) 0.1437(3)
H3 H 0.614(3) 0.634(3) 0.1305(3)
H4 H 0.408(3) 0.546(3) 0.1430(4)
H5 H 0.293(4) 0.334(4) 0.1081(4)
H6 H 0.470(2) 0.431(2) 0.0995(3)
C1A C 0.6379(2) 0.1483(3) 0.14591(3)
C1B C 0.8517(3) 0.4896(2) 0.14591(3)
C2A C 0.4831(2) -0.0279(3) 0.13251(3)
C2B C 1.0279(3) 0.5110(2) 0.13251(3)
N2A N 0.5344(2) -0.0641(3) 0.10778(2)
N2B N 1.0641(3) 0.5985(2) 0.10778(2)
N2A_2 N 0.5344(2) 0.9359(3) 0.10778(2)
N2B_2 N 0.0641(3) 0.5985(2) 0.10778(2)
Li1_2 Li 0.33333 -0.33333 0.09318(9)
Li1_3 Li 1.33333 0.66667 0.09318(9)
H1A H 0.607(3) 0.139(4) 0.1639(4)
H1B H 0.861(4) 0.468(3) 0.1639(4)
H2A H 0.756(3) 0.146(4) 0.1437(3)
H2B H 0.854(4) 0.610(3) 0.1437(3)
H3A H 0.366(3) -0.020(4) 0.1305(3)
H3B H 1.020(4) 0.386(3) 0.1305(3)
H4A H 0.454(3) -0.138(4) 0.1430(4)
H4B H 1.138(4) 0.592(3) 0.1430(4)
H5A H 0.666(4) -0.041(6) 0.1081(4)
H5B H 1.041(6) 0.707(4) 0.1081(4)
H5A_2 H 0.666(4) 0.959(6) 0.1081(4)
H5B_2 H 0.041(6) 0.707(4) 0.1081(4)
H6A H 0.569(2) 0.039(3) 0.0995(3)
H6B H 0.961(3) 0.530(2) 0.0995(3)
H6A_2 H 0.569(2) 1.039(3) 0.0995(3)
H6B_2 H -0.039(3) 0.530(2) 0.0995(3)
N3 N 0.66663 0.33337 0.02784(4)
C3 C 0.8209(2) 0.2948(2) 0.02050(3)
C4 C 0.8399(2) 0.1634(2) 0.03923(3)
N4 N 0.8846(2) 0.2595(2) 0.06398(3)
Li2 Li 0.66663 0.33337 0.06594(9)
H7 H 0.941(3) 0.415(3) 0.0207(3)
H8 H 0.799(3) 0.240(3) 0.0038(4)
H9 H 0.941(3) 0.140(3) 0.0340(4)
H10 H 0.718(3) 0.038(3) 0.0408(3)
H11 H 0.907(4) 0.183(4) 0.0738(4)
H12 H 1.009(4) 0.371(3) 0.0621(4)
C3A C 0.7052(2) 0.5261(3) 0.02050(3)
C3B C 0.4739(3) 0.1791(2) 0.02050(3)
C4A C 0.8366(2) 0.6765(3) 0.03923(3)
C4B C 0.3235(3) 0.1601(2) 0.03923(3)
N4A N 0.7405(2) 0.6251(3) 0.06398(3)
N4B N 0.3749(3) 0.1154(2) 0.06398(3)
H7A H 0.585(3) 0.526(4) 0.0207(3)
H7B H 0.474(4) 0.059(3) 0.0207(3)
H8A H 0.760(3) 0.559(4) 0.0038(4)
H8B H 0.441(4) 0.201(3) 0.0038(4)
H9A H 0.860(3) 0.801(4) 0.0340(4)
H9B H 0.199(4) 0.059(3) 0.0340(4)
H10A H 0.962(3) 0.680(4) 0.0408(3)
H10B H 0.320(4) 0.282(3) 0.0408(3)
H11A H 0.817(4) 0.724(6) 0.0738(4)
H11B H 0.276(6) 0.093(4) 0.0738(4)
H12A H 0.629(3) 0.638(5) 0.0621(4)
H12B H 0.362(5) -0.009(4) 0.0621(4)
Cl2 Cl 1.00002 -0.00004 0.107950(10)
loop_
_geom_bond_atom_site_label_1
_geom_bond_atom_site_label_2
_geom_bond_site_symmetry_1
_geom_bond_site_symmetry_2
N1 C1 1_555 1_555
C1 C2 1_555 1_555
C2 N2 1_555 1_555
N2 Li1 1_555 1_555
Cl1 Li1 1_555 1_555
Li1 N2A_2 1_555 1_555
H1 C1 1_555 1_555
H2 C1 1_555 1_555
H3 C2 1_555 1_555
H4 C2 1_555 1_555
H5 N2 1_555 1_555
H6 N2 1_555 1_555
N3 C3 1_555 1_555
C3 C4 1_555 1_555
C4 N4 1_555 1_555
N4 Li2 1_555 1_555
Li2 N3 1_555 1_555
H7 C3 1_555 1_555
H8 C3 1_555 1_555
H9 C4 1_555 1_555
H10 C4 1_555 1_555
H11 N4 1_555 1_555
H12 N4 1_555 1_555
C1A N1 1_555 1_555
C1B N1 1_555 1_555
C2A C1A 1_555 1_555
C2B C1B 1_555 1_555
N2A C2A 1_555 1_555
N2B C2B 1_555 1_555
N2A_2 H5A_2 1_555 1_555
N2B_2 Li1 1_555 1_555
Li1_2 N2A 1_555 1_555
Li1_3 N2B 1_555 1_555
H1A C1A 1_555 1_555
H1B C1B 1_555 1_555
H2A C1A 1_555 1_555
H2B C1B 1_555 1_555
H3A C2A 1_555 1_555
H3B C2B 1_555 1_555
H4A C2A 1_555 1_555
H4B C2B 1_555 1_555
H5A N2A 1_555 1_555
H5B N2B 1_555 1_555
H5B_2 N2B_2 1_555 1_555
H6A N2A 1_555 1_555
H6B N2B 1_555 1_555
H6A_2 N2A_2 1_555 1_555
H6B_2 N2B_2 1_555 1_555
C3A N3 1_555 1_555
C3B N3 1_555 1_555
C4A C3A 1_555 1_555
C4B C3B 1_555 1_555
N4A Li2 1_555 1_555
N4B Li2 1_555 1_555
H7A C3A 1_555 1_555
H7B C3B 1_555 1_555
H8A C3A 1_555 1_555
H8B C3B 1_555 1_555
H9A C4A 1_555 1_555
H9B C4B 1_555 1_555
H10A C4A 1_555 1_555
H10B C4B 1_555 1_555
H11A N4A 1_555 1_555
H11B N4B 1_555 1_555
H12A N4A 1_555 1_555
H12B N4B 1_555 1_555
C4A N4A 1_555 1_555
C4B N4B 1_555 1_555

#END
