
#######################################################################
#
#                 Cambridge Crystallographic Data Centre
#                                CCDC 
#
#######################################################################
#
# If this CIF has been generated from an entry in the Cambridge 
# Structural Database, then it will include bibliographic, chemical, 
# crystal, experimental, refinement or atomic coordinate data resulting 
# from the CCDC's data processing and validation procedures.
#
#######################################################################

data_NEPMAY
_symmetry_cell_setting           orthorhombic
_symmetry_space_group_name_H-M   'P 21 21 21'
_symmetry_Int_Tables_number      19
_space_group_name_Hall           'P 2ac 2ab'
loop_
_symmetry_equiv_pos_site_id
_symmetry_equiv_pos_as_xyz
1 x,y,z
2 1/2-x,-y,1/2+z
3 -x,1/2+y,1/2-z
4 1/2+x,1/2-y,-z
_cell_length_a                   6.21040(15)
_cell_length_b                   6.93014(16)
_cell_length_c                   26.7851(7)
_cell_angle_alpha                90
_cell_angle_beta                 90
_cell_angle_gamma                90
_cell_volume                     1152.8
loop_
_atom_site_label
_atom_site_type_symbol
_atom_site_fract_x
_atom_site_fract_y
_atom_site_fract_z
K1 K 0.43096(6) 0.06331(5) 0.592707(13)
C1 C 0.7395(3) 0.4927(2) 0.64787(6)
C2 C 0.7781(3) 0.6005(2) 0.59853(6)
C3 C 0.9401(3) 0.7544(2) 0.61585(6)
C4 C 1.0569(3) 0.6623(2) 0.66013(6)
H1 H 1.179(3) 0.591(3) 0.6515(7)
C5 C 1.0939(3) 0.8288(2) 0.69651(7)
H2 H 1.068(3) 0.790(3) 0.7284(8)
C6 C 0.9307(3) 0.9816(3) 0.68001(7)
O1 O 0.5875(2) 0.39178(19) 0.65771(5)
O2 O 0.5917(2) 0.68214(18) 0.57932(5)
O3 O 1.0843(2) 0.82586(17) 0.58160(5)
O4 O 0.8989(2) 0.52687(17) 0.68067(4)
O5 O 1.3044(2) 0.9069(2) 0.69025(5)
O6 O 0.81153(19) 0.90096(17) 0.63873(4)
S1 S 0.89769(6) 0.42594(6) 0.555030(14)
O7 O 1.0867(2) 0.35166(17) 0.58032(5)
O8 O 0.7275(2) 0.28416(18) 0.54814(4)
O9 O 0.9402(2) 0.53401(17) 0.50966(4)
H3 H 1.006(4) 1.106(3) 0.6699(7)
H4 H 0.828(4) 1.008(3) 0.7059(8)
H5 H 0.548(4) 0.623(4) 0.5572(9)
H6 H 1.013(4) 0.860(4) 0.5587(9)
H7 H 1.375(5) 0.847(4) 0.7033(10)
K1_2 K 0.43096(6) 1.06331(5) 0.592707(13)
K1_3 K 1.43096(6) 1.06331(5) 0.592707(13)
K1_4 K 1.43096(6) 0.06331(5) 0.592707(13)
K1C K 0.93096(6) 0.43669(5) 0.407293(13)
O2_2 O 0.5917(2) -0.31786(18) 0.57932(5)
O3_2 O 0.0843(2) -0.17414(17) 0.58160(5)
O5_2 O 0.3044(2) -0.0931(2) 0.69025(5)
O6_2 O 0.81153(19) -0.09904(17) 0.63873(4)
O7_2 O 0.0867(2) 0.35166(17) 0.58032(5)
O9C O 0.4402(2) -0.03401(17) 0.49034(4)
H5_2 H 0.548(4) -0.377(4) 0.5572(9)
H6_2 H 0.013(4) -0.140(4) 0.5587(9)
H7_2 H 0.375(5) -0.153(4) 0.7033(10)
O10 O 0.8855(2) 0.9517(2) 0.50022(5)
H8 H 0.856(4) 1.063(5) 0.5060(10)
H9 H 0.775(4) 0.904(4) 0.4948(9)
O11 O 0.4146(3) 0.2464(2) 0.74597(5)
H10 H 0.377(5) 0.146(5) 0.7374(11)
H11 H 0.468(5) 0.296(4) 0.7205(11)
loop_
_geom_bond_atom_site_label_1
_geom_bond_atom_site_label_2
_geom_bond_site_symmetry_1
_geom_bond_site_symmetry_2
K1 O1 1_555 1_555
C1 C2 1_555 1_555
C2 C3 1_555 1_555
C3 C4 1_555 1_555
C4 H1 1_555 1_555
C5 C4 1_555 1_555
H2 C5 1_555 1_555
C6 C5 1_555 1_555
O1 C1 1_555 1_555
O2 C2 1_555 1_555
O3 C3 1_555 1_555
O4 C1 1_555 1_555
O5 C5 1_555 1_555
O6 C3 1_555 1_555
S1 C2 1_555 1_555
O7 S1 1_555 1_555
O8 K1 1_555 1_555
O9 S1 1_555 1_555
O10 H8 1_555 1_555
O11 H10 1_555 1_555
H3 C6 1_555 1_555
H4 C6 1_555 1_555
H5 O2 1_555 1_555
H6 O3 1_555 1_555
H7 O5 1_555 1_555
H9 O10 1_555 1_555
H11 O11 1_555 1_555
K1_2 O2 1_555 1_555
K1_3 O3 1_555 1_555
K1_4 O7 1_555 1_555
K1C O9 1_555 1_555
O2_2 K1 1_555 1_555
O3_2 K1 1_555 1_555
O5_2 K1 1_555 1_555
O6_2 K1 1_555 1_555
O7_2 K1 1_555 1_555
O9C K1 1_555 1_555
H5_2 O2_2 1_555 1_555
H6_2 O3_2 1_555 1_555
H7_2 O5_2 1_555 1_555
C4 O4 1_555 1_555
C6 O6 1_555 1_555
O5 K1_3 1_555 1_555
O6 K1_2 1_555 1_555
S1 O8 1_555 1_555

#END
