
#######################################################################
#
#                 Cambridge Crystallographic Data Centre
#                                CCDC 
#
#######################################################################
#
# If this CIF has been generated from an entry in the Cambridge 
# Structural Database, then it will include bibliographic, chemical, 
# crystal, experimental, refinement or atomic coordinate data resulting 
# from the CCDC's data processing and validation procedures.
#
#######################################################################

data_NEPNIF
_symmetry_cell_setting           monoclinic
_symmetry_space_group_name_H-M   'P 21/c'
_symmetry_Int_Tables_number      14
_space_group_name_Hall           '-P 2ybc'
loop_
_symmetry_equiv_pos_site_id
_symmetry_equiv_pos_as_xyz
1 x,y,z
2 x,1/2-y,1/2+z
3 -x,-y,-z
4 -x,1/2+y,1/2-z
_cell_length_a                   6.5174(4)
_cell_length_b                   16.9817(10)
_cell_length_c                   15.8145(9)
_cell_angle_alpha                90
_cell_angle_beta                 92.9810(10)
_cell_angle_gamma                90
_cell_volume                     1747.93
loop_
_atom_site_label
_atom_site_type_symbol
_atom_site_fract_x
_atom_site_fract_y
_atom_site_fract_z
Mn1 Mn 0.24998(9) 0.58189(3) 0.27482(4)
N1 N 0.2562(5) 0.44770(16) 0.2722(2)
C1 C 0.2590(6) 0.4018(2) 0.3401(3)
H1 H 0.2604 0.4251 0.3933
C2 C 0.2601(6) 0.3191(2) 0.3348(3)
H2 H 0.2634 0.2886 0.3837
C3 C 0.2561(7) 0.2840(2) 0.2567(4)
H3 H 0.2557 0.2294 0.2521
C4 C 0.2527(6) 0.3308(2) 0.1840(3)
C5 C 0.2535(6) 0.4133(2) 0.1951(3)
C6 C 0.2515(6) 0.4635(2) 0.1212(3)
C7 C 0.2492(8) 0.4306(2) 0.0394(3)
C8 C 0.2474(9) 0.3459(3) 0.0317(4)
H4 H 0.2455 0.3233 -0.0219
C9 C 0.2484(8) 0.2994(3) 0.0996(4)
H5 H 0.2463 0.2451 0.0921
N2 N 0.2539(5) 0.54296(17) 0.1349(2)
C10 C 0.2536(8) 0.5887(2) 0.0671(3)
H6 H 0.2571 0.6430 0.0753
C11 C 0.2483(8) 0.5607(3) -0.0159(3)
H7 H 0.2463 0.5956 -0.0612
C12 C 0.2463(8) 0.4817(3) -0.0297(3)
H8 H 0.2430 0.4619 -0.0846
O1 O -0.0834(4) 0.59174(14) 0.2642(2)
C13 C -0.2487(6) 0.56504(18) 0.2875(2)
O2 O -0.4176(4) 0.59766(14) 0.2798(2)
C14 C -0.2428(5) 0.48205(17) 0.3265(2)
C15 C -0.2442(6) 0.46941(18) 0.4124(2)
H9 H -0.2465 0.5121 0.4492
C16 C -0.2423(6) 0.39277(18) 0.4445(2)
C17 C -0.2446(8) 0.3749(2) 0.5367(3)
O3 O -0.2471(12) 0.3036(2) 0.5540(3)
O4 O -0.2456(5) 0.42756(15) 0.5897(2)
C18 C -0.2386(6) 0.32949(18) 0.3880(2)
H10 H -0.2357 0.2783 0.4089
C19 C -0.2390(5) 0.34161(19) 0.3026(3)
C20 C -0.2420(6) 0.27266(19) 0.2434(2)
C21 C -0.2407(5) 0.41849(18) 0.2706(2)
H11 H -0.2405 0.4271 0.2126
O5 O -0.2456(5) 0.29017(15) 0.16469(19)
O6 O -0.2417(4) 0.20481(13) 0.27163(18)
O2_2 O 0.5824(4) 0.59766(14) 0.2798(2)
Mn1_2 Mn -0.75002(9) 0.58189(3) 0.27482(4)
Mn1C Mn -0.24998(9) 0.08189(3) 0.22518(4)
O6C O 0.2417(4) 0.70481(13) 0.22837(18)
O4B O 0.2456(5) 0.57244(15) 0.4103(2)
Mn1B Mn -0.24998(9) 0.41811(3) 0.72518(4)
loop_
_geom_bond_atom_site_label_1
_geom_bond_atom_site_label_2
_geom_bond_site_symmetry_1
_geom_bond_site_symmetry_2
Mn1 N1 1_555 1_555
N1 C1 1_555 1_555
C1 H1 1_555 1_555
C2 C1 1_555 1_555
H2 C2 1_555 1_555
C3 C2 1_555 1_555
H3 C3 1_555 1_555
C4 C3 1_555 1_555
C5 N1 1_555 1_555
C6 C5 1_555 1_555
C7 C6 1_555 1_555
C8 C7 1_555 1_555
H4 C8 1_555 1_555
C9 C4 1_555 1_555
H5 C9 1_555 1_555
N2 Mn1 1_555 1_555
C10 N2 1_555 1_555
H6 C10 1_555 1_555
C11 C10 1_555 1_555
H7 C11 1_555 1_555
C12 C7 1_555 1_555
H8 C12 1_555 1_555
O1 Mn1 1_555 1_555
C13 O1 1_555 1_555
O2 C13 1_555 1_555
C14 C13 1_555 1_555
C15 C14 1_555 1_555
H9 C15 1_555 1_555
C16 C15 1_555 1_555
C17 C16 1_555 1_555
O3 C17 1_555 1_555
O4 C17 1_555 1_555
C18 C16 1_555 1_555
H10 C18 1_555 1_555
C19 C18 1_555 1_555
C20 C19 1_555 1_555
C21 C14 1_555 1_555
H11 C21 1_555 1_555
O5 C20 1_555 1_555
O6 C20 1_555 1_555
O2_2 Mn1 1_555 1_555
Mn1_2 O2 1_555 1_555
Mn1C O6 1_555 1_555
O6C Mn1 1_555 1_555
O4B Mn1 1_555 1_555
Mn1B O4 1_555 1_555
C4 C5 1_555 1_555
C6 N2 1_555 1_555
C8 C9 1_555 1_555
C11 C12 1_555 1_555
C19 C21 1_555 1_555

#END
