
#######################################################################
#
#                 Cambridge Crystallographic Data Centre
#                                CCDC 
#
#######################################################################
#
# If this CIF has been generated from an entry in the Cambridge 
# Structural Database, then it will include bibliographic, chemical, 
# crystal, experimental, refinement or atomic coordinate data resulting 
# from the CCDC's data processing and validation procedures.
#
#######################################################################

data_NEPNOL
_symmetry_cell_setting           triclinic
_symmetry_space_group_name_H-M   'P -1'
_symmetry_Int_Tables_number      2
_space_group_name_Hall           '-P 1'
loop_
_symmetry_equiv_pos_site_id
_symmetry_equiv_pos_as_xyz
1 x,y,z
2 -x,-y,-z
_cell_length_a                   9.6017(7)
_cell_length_b                   10.2445(7)
_cell_length_c                   10.9171(5)
_cell_angle_alpha                99.034(3)
_cell_angle_beta                 111.469(3)
_cell_angle_gamma                107.413(3)
_cell_volume                     909.575
loop_
_atom_site_label
_atom_site_type_symbol
_atom_site_fract_x
_atom_site_fract_y
_atom_site_fract_z
Mn1 Mn 0.39385(7) 0.33619(6) -0.48631(5)
O1 O 0.5801(3) 0.5569(3) -0.3606(2)
O2 O 0.8161(3) 0.6504(4) -0.1707(3)
O3 O 0.1018(4) 0.6239(4) -0.3117(3)
O4 O 0.8102(3) 0.7234(4) 0.2854(3)
O5 O 0.1076(4) 0.6518(4) -0.1028(3)
O6 O 0.5811(3) 0.7119(3) 0.3000(2)
O7 O 0.1796(3) 0.3682(4) -0.5002(3)
H1 H 0.1477 0.3286 -0.4462
H2 H 0.0968 0.3698 -0.5618
H3 H 0.009(9) 0.647(7) -0.146(7)
N1 N 0.5761(4) 0.2433(3) -0.4940(3)
N2 N 0.2566(4) 0.1196(4) -0.6603(3)
N3 N 0.1082(6) 0.0347(5) -0.7672(5)
C1 C 0.6677(4) 0.6149(4) -0.2291(4)
C2 C 0.1735(5) 0.6412(5) -0.1895(4)
C3 C 0.6660(5) 0.7099(4) 0.2339(3)
C4 C 0.5808(4) 0.6407(4) -0.1433(3)
C5 C 0.6606(5) 0.6696(4) -0.0009(4)
H4 H 0.752(5) 0.670(4) 0.034(4)
C6 C 0.5820(4) 0.6887(4) 0.0814(3)
C7 C 0.4233(5) 0.6787(4) 0.0202(4)
H5 H 0.378(6) 0.683(5) 0.077(5)
C8 C 0.3435(4) 0.6533(4) -0.1217(4)
C9 C 0.4234(4) 0.6346(4) -0.2034(4)
H6 H 0.364(5) 0.607(5) -0.296(5)
C10 C 0.5254(5) 0.1244(4) -0.5968(4)
C11 C 0.6354(6) 0.0633(5) -0.6024(5)
H7 H 0.592(7) -0.037(6) -0.676(6)
C12 C 0.7924(7) 0.1341(5) -0.4979(5)
H8 H 0.8699 0.0948 -0.4997
C13 C 0.8445(8) 0.2538(7) -0.3942(7)
H9 H 0.9526 0.3003 -0.3235
C14 C 0.7318(6) 0.2962(7) -0.4030(6)
H10 H 0.7634 0.3809 -0.3321
C15 C 0.3528(6) 0.0634(4) -0.6918(4)
C16 C 0.2709(7) -0.0502(5) -0.8138(5)
H11 H 0.310(6) -0.104(6) -0.860(5)
C17 C 0.1100(8) -0.0727(6) -0.8656(6)
H12 H 0.028(6) -0.134(6) -0.931(5)
C18 C -0.0313(8) 0.0513(7) -0.7698(7)
H13 H -0.0013 0.1330 -0.6918
H14 H -0.1020 -0.0360 -0.7631
H15 H -0.0889 0.0687 -0.8564
Mn1A Mn 0.60615(7) 0.66381(6) -0.51369(5)
O1A O 0.4199(3) 0.4431(3) -0.6394(2)
Mn1A_2 Mn 0.60615(7) 0.66381(6) 0.48631(5)
O6A O 0.4189(3) 0.2881(3) -0.3000(2)
loop_
_geom_bond_atom_site_label_1
_geom_bond_atom_site_label_2
_geom_bond_site_symmetry_1
_geom_bond_site_symmetry_2
Mn1 O1 1_555 1_555
O1 C1 1_555 1_555
O2 C1 1_555 1_555
O3 C2 1_555 1_555
O4 C3 1_555 1_555
O5 H3 1_555 1_555
O6 C3 1_555 1_555
O7 Mn1 1_555 1_555
H1 O7 1_555 1_555
H2 O7 1_555 1_555
N1 Mn1 1_555 1_555
N2 Mn1 1_555 1_555
N3 N2 1_555 1_555
C1 C4 1_555 1_555
C2 O5 1_555 1_555
C3 C6 1_555 1_555
C4 C5 1_555 1_555
C5 H4 1_555 1_555
C6 C5 1_555 1_555
C7 C6 1_555 1_555
H5 C7 1_555 1_555
C8 C2 1_555 1_555
C9 C4 1_555 1_555
H6 C9 1_555 1_555
C10 N1 1_555 1_555
C11 C10 1_555 1_555
H7 C11 1_555 1_555
C12 C11 1_555 1_555
H8 C12 1_555 1_555
C13 C12 1_555 1_555
H9 C13 1_555 1_555
C14 N1 1_555 1_555
H10 C14 1_555 1_555
C15 N2 1_555 1_555
C16 C15 1_555 1_555
H11 C16 1_555 1_555
C17 N3 1_555 1_555
H12 C17 1_555 1_555
C18 N3 1_555 1_555
H13 C18 1_555 1_555
H14 C18 1_555 1_555
H15 C18 1_555 1_555
Mn1A O1 1_555 1_555
O1A Mn1 1_555 1_555
Mn1A_2 O6 1_555 1_555
O6A Mn1 1_555 1_555
C7 C8 1_555 1_555
C8 C9 1_555 1_555
C10 C15 1_555 1_555
C13 C14 1_555 1_555
C16 C17 1_555 1_555
Mn1A O1A 1_555 1_555

#END
