
#######################################################################
#
#                 Cambridge Crystallographic Data Centre
#                                CCDC 
#
#######################################################################
#
# If this CIF has been generated from an entry in the Cambridge 
# Structural Database, then it will include bibliographic, chemical, 
# crystal, experimental, refinement or atomic coordinate data resulting 
# from the CCDC's data processing and validation procedures.
#
#######################################################################

data_NEPNEB
_symmetry_cell_setting           triclinic
_symmetry_space_group_name_H-M   'P -1'
_symmetry_Int_Tables_number      2
_space_group_name_Hall           '-P 1'
loop_
_symmetry_equiv_pos_site_id
_symmetry_equiv_pos_as_xyz
1 x,y,z
2 -x,-y,-z
_cell_length_a                   9.5706(6)
_cell_length_b                   10.8684(6)
_cell_length_c                   11.2064(7)
_cell_angle_alpha                96.6030(10)
_cell_angle_beta                 111.3840(10)
_cell_angle_gamma                111.5420(10)
_cell_volume                     967.017
loop_
_atom_site_label
_atom_site_type_symbol
_atom_site_fract_x
_atom_site_fract_y
_atom_site_fract_z
Co1 Co 0.11378(4) -0.01901(3) 0.14455(4)
N1 N -0.0629(3) -0.0278(2) 0.2179(2)
C1 C -0.2234(3) -0.1151(3) 0.1630(3)
H1 H -0.2674 -0.1835 0.0837
C2 C -0.3295(4) -0.1086(4) 0.2196(4)
H2 H -0.4415 -0.1727 0.1790
C3 C -0.2683(5) -0.0083(4) 0.3338(4)
H3 H -0.3387 -0.0027 0.3712
C4 C -0.0994(4) 0.0868(4) 0.3954(3)
C5 C 0.0002(4) 0.0709(3) 0.3340(3)
N2 N 0.2665(3) 0.1339(2) 0.3354(2)
C6 C 0.4309(4) 0.2140(3) 0.3927(3)
H4 H 0.4945 0.1961 0.3533
C7 C 0.5117(5) 0.3229(4) 0.5086(4)
H5 H 0.6268 0.3764 0.5454
C8 C 0.4217(5) 0.3506(4) 0.5676(4)
H6 H 0.4745 0.4245 0.6443
C9 C 0.2475(5) 0.2672(4) 0.5128(3)
C10 C 0.1767(4) 0.1608(3) 0.3950(3)
C11 C -0.0218(6) 0.1963(4) 0.5167(4)
H7 H -0.0857 0.2072 0.5591
C12 C 0.1419(6) 0.2833(4) 0.5701(4)
H8 H 0.1878 0.3561 0.6464
O1 O -0.0765(2) -0.13701(16) -0.05835(18)
O2 O -0.3201(2) -0.32626(19) -0.1438(2)
C13 C -0.1691(3) -0.2683(2) -0.1112(3)
C14 C -0.0856(3) -0.3554(2) -0.1363(2)
C15 C 0.0709(3) -0.2970(2) -0.1359(3)
H9 H 0.1250 -0.2024 -0.1228
C16 C 0.1457(3) -0.3804(2) -0.1552(3)
C17 C 0.3161(3) -0.3151(3) -0.1494(3)
O3 O 0.3805(3) -0.4019(2) -0.1564(3)
H10 H 0.472(5) -0.361(4) -0.154(4)
O4 O 0.3880(3) -0.1954(2) -0.1394(3)
C18 C 0.0662(3) -0.5217(2) -0.1731(3)
H11 H 0.1181 -0.5768 -0.1834
C19 C -0.0911(3) -0.5804(2) -0.1755(2)
C20 C -0.1748(3) -0.7325(2) -0.1875(3)
O5 O -0.0913(2) -0.79898(17) -0.19083(19)
O6 O -0.3155(2) -0.78045(19) -0.1911(2)
C21 C -0.1654(3) -0.4968(2) -0.1564(2)
H12 H -0.2701 -0.5358 -0.1572
O7 O 0.3120(2) -0.0063(2) 0.1063(2)
H13 H 0.395(4) 0.058(3) 0.111(3)
H14 H 0.346(5) -0.069(4) 0.145(4)
Co1A Co -0.11378(4) 0.01901(3) -0.14455(4)
O1A O 0.0765(2) 0.13701(16) 0.05835(18)
Co1A_2 Co -0.11378(4) -0.98099(3) -0.14455(4)
O5A O 0.0913(2) -0.20102(17) 0.19083(19)
loop_
_geom_bond_atom_site_label_1
_geom_bond_atom_site_label_2
_geom_bond_site_symmetry_1
_geom_bond_site_symmetry_2
Co1 N1 1_555 1_555
N1 C1 1_555 1_555
C1 H1 1_555 1_555
C2 C1 1_555 1_555
H2 C2 1_555 1_555
C3 C2 1_555 1_555
H3 C3 1_555 1_555
C4 C3 1_555 1_555
C5 N1 1_555 1_555
N2 Co1 1_555 1_555
C6 N2 1_555 1_555
H4 C6 1_555 1_555
C7 C6 1_555 1_555
H5 C7 1_555 1_555
C8 C7 1_555 1_555
H6 C8 1_555 1_555
C9 C8 1_555 1_555
C10 C5 1_555 1_555
C11 C4 1_555 1_555
H7 C11 1_555 1_555
C12 C9 1_555 1_555
H8 C12 1_555 1_555
O1 Co1 1_555 1_555
O2 C13 1_555 1_555
C13 O1 1_555 1_555
C14 C13 1_555 1_555
C15 C14 1_555 1_555
H9 C15 1_555 1_555
C16 C15 1_555 1_555
C17 C16 1_555 1_555
O3 C17 1_555 1_555
H10 O3 1_555 1_555
O4 C17 1_555 1_555
C18 C16 1_555 1_555
H11 C18 1_555 1_555
C19 C18 1_555 1_555
C20 C19 1_555 1_555
O5 C20 1_555 1_555
O6 C20 1_555 1_555
C21 C14 1_555 1_555
H12 C21 1_555 1_555
O7 Co1 1_555 1_555
H13 O7 1_555 1_555
H14 O7 1_555 1_555
Co1A O1 1_555 1_555
O1A Co1 1_555 1_555
Co1A_2 O5 1_555 1_555
O5A Co1 1_555 1_555
C4 C5 1_555 1_555
N2 C10 1_555 1_555
C9 C10 1_555 1_555
C11 C12 1_555 1_555
C19 C21 1_555 1_555
Co1A O1A 1_555 1_555

#END
