
#######################################################################
#
#                 Cambridge Crystallographic Data Centre
#                                CCDC 
#
#######################################################################
#
# If this CIF has been generated from an entry in the Cambridge 
# Structural Database, then it will include bibliographic, chemical, 
# crystal, experimental, refinement or atomic coordinate data resulting 
# from the CCDC's data processing and validation procedures.
#
#######################################################################

data_NEPPON
_symmetry_cell_setting           triclinic
_symmetry_space_group_name_H-M   'P -1'
_symmetry_Int_Tables_number      2
_space_group_name_Hall           '-P 1'
loop_
_symmetry_equiv_pos_site_id
_symmetry_equiv_pos_as_xyz
1 x,y,z
2 -x,-y,-z
_cell_length_a                   9.4355(4)
_cell_length_b                   9.4615(4)
_cell_length_c                   11.3350(5)
_cell_angle_alpha                70.514(2)
_cell_angle_beta                 79.874(2)
_cell_angle_gamma                81.082(2)
_cell_volume                     934.024
loop_
_atom_site_label
_atom_site_type_symbol
_atom_site_fract_x
_atom_site_fract_y
_atom_site_fract_z
Zn1 Zn 0.02423(7) -0.02520(8) 0.29070(7)
Br1 Br 0.28302(13) -0.42473(10) -0.00640(10)
O1 O 0.1436(4) 0.0858(5) 0.3545(4)
O2 O 0.3351(5) -0.0810(5) 0.3391(5)
O3 O 0.8231(4) 0.0554(5) 0.3040(5)
O4 O 0.8574(5) 0.2804(5) 0.3127(5)
O5 O 0.2185(5) 0.5807(5) 0.3916(5)
O6 O 0.4414(5) 0.6474(5) 0.3413(5)
H1 H 0.4008 0.7249 0.3587
O7 O 0.0160(5) -0.2044(5) 0.4558(4)
H2 H 0.0023 -0.1872 0.5269
H3 H 0.0768 -0.2806 0.4634
N1 N 0.0124(6) -0.1932(6) 0.2003(5)
N2 N -0.0418(6) -0.3279(6) 0.2396(6)
N3 N 0.1563(6) 0.0412(6) 0.1108(5)
C1 C 0.1369(9) -0.3420(8) 0.0923(7)
C2 C 0.1217(7) -0.1985(7) 0.1092(6)
C3 C 0.0293(9) -0.4180(9) 0.1757(8)
H4 H 0.0091 -0.5171 0.1860
C4 C -0.1633(10) -0.3582(10) 0.3376(8)
H5 H -0.1933 -0.2699 0.3665
H6 H -0.1354 -0.4453 0.4085
H7 H -0.2438 -0.3798 0.3044
C5 C 0.1978(7) -0.0655(7) 0.0528(6)
C6 C 0.3044(8) -0.0453(8) -0.0512(7)
H8 H 0.3331 -0.1222 -0.0897
C7 C 0.3677(9) 0.0867(9) -0.0977(8)
H9 H 0.4399 0.1028 -0.1694
C8 C 0.3260(9) 0.1954(9) -0.0397(8)
H10 H 0.3703 0.2867 -0.0694
C9 C 0.2185(8) 0.1701(8) 0.0626(7)
H11 H 0.1874 0.2474 0.1004
C10 C 0.3761(6) 0.1539(6) 0.3538(6)
C11 C 0.5253(6) 0.1164(7) 0.3425(6)
H12 H 0.5645 0.0186 0.3399
C12 C 0.6177(6) 0.2218(7) 0.3351(6)
C13 C 0.5595(7) 0.3632(7) 0.3409(6)
H13 H 0.6217 0.4359 0.3350
C14 C 0.4102(6) 0.3995(7) 0.3552(6)
C15 C 0.3186(6) 0.2952(7) 0.3615(6)
H14 H 0.2167 0.3205 0.3710
C16 C 0.2785(7) 0.0419(7) 0.3517(6)
C17 C 0.7795(7) 0.1849(7) 0.3166(6)
C18 C 0.3461(7) 0.5507(6) 0.3642(6)
O3_2 O -0.1769(4) 0.0554(5) 0.3040(5)
Zn1_2 Zn 1.02423(7) -0.02520(8) 0.29070(7)
loop_
_geom_bond_atom_site_label_1
_geom_bond_atom_site_label_2
_geom_bond_site_symmetry_1
_geom_bond_site_symmetry_2
Zn1 O1 1_555 1_555
Br1 C1 1_555 1_555
O1 C16 1_555 1_555
O2 C16 1_555 1_555
O3 C17 1_555 1_555
O4 C17 1_555 1_555
O5 C18 1_555 1_555
O6 H1 1_555 1_555
O7 Zn1 1_555 1_555
H2 O7 1_555 1_555
H3 O7 1_555 1_555
N1 Zn1 1_555 1_555
N2 N1 1_555 1_555
N3 Zn1 1_555 1_555
C1 C2 1_555 1_555
C2 N1 1_555 1_555
C3 N2 1_555 1_555
H4 C3 1_555 1_555
C4 N2 1_555 1_555
H5 C4 1_555 1_555
H6 C4 1_555 1_555
H7 C4 1_555 1_555
C5 N3 1_555 1_555
C6 C5 1_555 1_555
H8 C6 1_555 1_555
C7 C6 1_555 1_555
H9 C7 1_555 1_555
C8 C7 1_555 1_555
H10 C8 1_555 1_555
C9 N3 1_555 1_555
H11 C9 1_555 1_555
C10 C11 1_555 1_555
C11 H12 1_555 1_555
C12 C11 1_555 1_555
C13 C12 1_555 1_555
H13 C13 1_555 1_555
C14 C13 1_555 1_555
C15 C10 1_555 1_555
H14 C15 1_555 1_555
C16 C10 1_555 1_555
C17 C12 1_555 1_555
C18 O6 1_555 1_555
O3_2 Zn1 1_555 1_555
Zn1_2 O3 1_555 1_555
C1 C3 1_555 1_555
C2 C5 1_555 1_555
C8 C9 1_555 1_555
C14 C15 1_555 1_555
C14 C18 1_555 1_555

#END
