
#######################################################################
#
#                 Cambridge Crystallographic Data Centre
#                                CCDC 
#
#######################################################################
#
# If this CIF has been generated from an entry in the Cambridge 
# Structural Database, then it will include bibliographic, chemical, 
# crystal, experimental, refinement or atomic coordinate data resulting 
# from the CCDC's data processing and validation procedures.
#
#######################################################################

data_NEPWIQ
_symmetry_cell_setting           orthorhombic
_symmetry_space_group_name_H-M   'F d d d'
_symmetry_Int_Tables_number      70
_space_group_name_Hall           '-F 2uv 2vw'
loop_
_symmetry_equiv_pos_site_id
_symmetry_equiv_pos_as_xyz
1 x,y,z
2 3/4-x,3/4-y,z
3 3/4-x,y,3/4-z
4 x,3/4-y,3/4-z
5 x,1/2+y,1/2+z
6 3/4-x,1/4-y,1/2+z
7 3/4-x,1/2+y,1/4-z
8 x,1/4-y,1/4-z
9 1/2+x,y,1/2+z
10 1/4-x,3/4-y,1/2+z
11 1/4-x,y,1/4-z
12 1/2+x,3/4-y,1/4-z
13 1/2+x,1/2+y,z
14 1/4-x,1/4-y,z
15 1/4-x,1/2+y,3/4-z
16 1/2+x,1/4-y,3/4-z
17 -x,-y,-z
18 1/4+x,1/4+y,-z
19 1/4+x,-y,1/4+z
20 -x,1/4+y,1/4+z
21 -x,1/2-y,1/2-z
22 1/4+x,3/4+y,1/2-z
23 1/4+x,1/2-y,3/4+z
24 -x,3/4+y,3/4+z
25 1/2-x,-y,1/2-z
26 3/4+x,1/4+y,1/2-z
27 3/4+x,-y,3/4+z
28 1/2-x,1/4+y,3/4+z
29 1/2-x,1/2-y,-z
30 3/4+x,3/4+y,-z
31 3/4+x,1/2-y,1/4+z
32 1/2-x,3/4+y,1/4+z
_cell_length_a                   9.6016(19)
_cell_length_b                   15.701(3)
_cell_length_c                   26.722(5)
_cell_angle_alpha                90
_cell_angle_beta                 90
_cell_angle_gamma                90
_cell_volume                     4028.47
loop_
_atom_site_label
_atom_site_type_symbol
_atom_site_fract_x
_atom_site_fract_y
_atom_site_fract_z
C1 C 0.9358(4) 0.1660(2) 0.52974(13)
C2 C 1.0906(4) 0.1604(3) 0.53278(16)
H1 H 1.1407 0.2110 0.5348
C3 C 0.8750 0.4244(3) 0.3750
Er1 Er 0.8750 0.3750 0.491320(7)
O1 O 0.8868(3) 0.23742(16) 0.51740(10)
O2 O 0.8597(3) 0.10210(16) 0.53731(11)
O3 O 0.8836(3) 0.45991(15) 0.41668(9)
O4 O 1.0243(3) 0.37733(15) 0.56467(9)
H2 H 1.1015 0.3553 0.5560
H3 H 1.0405 0.4294 0.5712
C1M C 1.3142(4) 0.0840(2) 0.52974(13)
C1A C 0.8142(4) 0.5840(2) 0.52974(13)
C1L C 0.4358(4) 0.6660(2) 0.52974(13)
C2M C 1.1594(4) 0.0896(3) 0.53278(16)
C2A C 0.6594(4) 0.5896(3) 0.53278(16)
C2L C 0.5906(4) 0.6604(3) 0.53278(16)
H1M H 1.1093 0.0390 0.5348
H1A H 0.6093 0.5390 0.5348
H1L H 0.6407 0.7110 0.5348
C3A C 0.8750 0.3256(3) 0.3750
Er1L Er 1.3750 -0.1250 0.491320(7)
Er1BA Er 0.6250 0.1250 0.508680(7)
Er1BA_2 Er 1.6250 0.1250 0.508680(7)
Er1B Er 0.8750 0.3750 0.258680(7)
Er1P Er 1.1250 0.6250 0.508680(7)
Er1L_2 Er 0.3750 0.8750 0.491320(7)
Er1P_2 Er 0.1250 0.6250 0.508680(7)
O1M O 1.3632(3) 0.01258(16) 0.51740(10)
O1A O 0.8632(3) 0.51258(16) 0.51740(10)
O1L O 0.3868(3) 0.73742(16) 0.51740(10)
O1L_2 O 1.3868(3) -0.26258(16) 0.51740(10)
O2M O 1.3903(3) 0.14790(16) 0.53731(11)
O2A O 0.8903(3) 0.64790(16) 0.53731(11)
O2L O 0.3597(3) 0.60210(16) 0.53731(11)
O2BA O 0.6403(3) 0.39790(16) 0.46269(11)
O2Q O 1.1097(3) 0.35210(16) 0.46269(11)
O2CA O 1.6097(3) -0.14790(16) 0.46269(11)
O2P O 1.1403(3) -0.10210(16) 0.46269(11)
O3C O 0.8836(3) 0.29009(15) 0.33332(9)
O3A O 0.8664(3) 0.29009(15) 0.41668(9)
O3B O 0.8664(3) 0.45991(15) 0.33332(9)
O3M O 1.3664(3) -0.20991(15) 0.41668(9)
O3L O 1.3836(3) -0.04009(15) 0.41668(9)
O4A O 0.7257(3) 0.37267(15) 0.56467(9)
O4M O 1.2257(3) -0.12733(15) 0.56467(9)
O4L O 1.5243(3) -0.12267(15) 0.56467(9)
H2A H 0.6485 0.3947 0.5560
H2M H 1.1485 -0.1053 0.5560
H2L H 1.6015 -0.1447 0.5560
H3A H 0.7095 0.3206 0.5712
H3M H 1.2095 -0.1794 0.5712
H3L H 1.5405 -0.0706 0.5712
O5 O 0.5533(3) 0.20049(15) 0.34370(9)
H4 H 0.5298 0.1769 0.3711
H5 H 0.5661 0.2534 0.3485
loop_
_geom_bond_atom_site_label_1
_geom_bond_atom_site_label_2
_geom_bond_site_symmetry_1
_geom_bond_site_symmetry_2
C1 C2 1_555 1_555
C2 H1 1_555 1_555
C3 O3 1_555 1_555
Er1 O1 1_555 1_555
O1 C1 1_555 1_555
O2 C1 1_555 1_555
O3 Er1 1_555 1_555
O4 Er1 1_555 1_555
H2 O4 1_555 1_555
H3 O4 1_555 1_555
O5 H4 1_555 1_555
H5 O5 1_555 1_555
C1M C2M 1_555 1_555
C1A C2A 1_555 1_555
C1L C2L 1_555 1_555
C2M C2 1_555 1_555
C2A C2L 1_555 1_555
C2L H1L 1_555 1_555
H1M C2M 1_555 1_555
H1A C2A 1_555 1_555
C3A C3 1_555 1_555
Er1L O1M 1_555 1_555
Er1BA O2 1_555 1_555
Er1BA_2 O2M 1_555 1_555
Er1B O3C 1_555 1_555
Er1P O2A 1_555 1_555
Er1L_2 O1L 1_555 1_555
Er1P_2 O2L 1_555 1_555
O1M C1M 1_555 1_555
O1A Er1 1_555 1_555
O1L C1L 1_555 1_555
O1L_2 Er1L 1_555 1_555
O2M C1M 1_555 1_555
O2A C1A 1_555 1_555
O2L C1L 1_555 1_555
O2BA Er1 1_555 1_555
O2Q Er1 1_555 1_555
O2CA Er1L 1_555 1_555
O2P Er1L 1_555 1_555
O3C C3A 1_555 1_555
O3A Er1 1_555 1_555
O3B C3 1_555 1_555
O3M Er1L 1_555 1_555
O3L Er1L 1_555 1_555
O4A Er1 1_555 1_555
O4M Er1L 1_555 1_555
O4L Er1L 1_555 1_555
H2A O4A 1_555 1_555
H2M O4M 1_555 1_555
H2L O4L 1_555 1_555
H3A O4A 1_555 1_555
H3M O4M 1_555 1_555
H3L O4L 1_555 1_555
C1A O1A 1_555 1_555
C3A O3A 1_555 1_555
Er1B O3B 1_555 1_555

#END
