
#######################################################################
#
#                 Cambridge Crystallographic Data Centre
#                                CCDC 
#
#######################################################################
#
# If this CIF has been generated from an entry in the Cambridge 
# Structural Database, then it will include bibliographic, chemical, 
# crystal, experimental, refinement or atomic coordinate data resulting 
# from the CCDC's data processing and validation procedures.
#
#######################################################################

data_NEQDUJ
_symmetry_cell_setting           monoclinic
_symmetry_space_group_name_H-M   'P 21/c'
_symmetry_Int_Tables_number      14
_space_group_name_Hall           '-P 2ybc'
loop_
_symmetry_equiv_pos_site_id
_symmetry_equiv_pos_as_xyz
1 x,y,z
2 -x,1/2+y,1/2-z
3 -x,-y,-z
4 x,1/2-y,1/2+z
_cell_length_a                   9.7515(16)
_cell_length_b                   16.203(3)
_cell_length_c                   17.360(3)
_cell_angle_alpha                90
_cell_angle_beta                 97.432(3)
_cell_angle_gamma                90
_cell_volume                     2719.9
loop_
_atom_site_label
_atom_site_type_symbol
_atom_site_fract_x
_atom_site_fract_y
_atom_site_fract_z
Cu1 Cu 0.52738(10) 0.78006(8) 0.16126(5)
N1 N 0.7131(6) 0.7824(4) 0.1252(3)
N2 N 1.3505(6) 0.7394(4) -0.2968(3)
C1 C 1.1482(7) 0.7280(5) -0.2447(4)
N3 N 0.9080(5) 0.8342(4) 0.0933(3)
O1 O 0.6460(6) 0.7035(4) 0.2815(3)
O2 O 0.6062(5) 0.8342(3) 0.2604(3)
C2 C 0.9166(8) 0.7511(4) 0.0796(3)
C3 C 0.7930(8) 0.7177(4) 0.0995(4)
N4 N 1.1714(6) 0.8097(4) -0.2627(3)
C4 C 1.0262(7) 0.8978(4) -0.0092(3)
C5 C 1.0816(7) 0.8798(4) -0.2509(4)
H1 H 0.9903 0.8717 -0.2822
H2 H 1.1227 0.9310 -0.2692
C6 C 0.9309(7) 0.8885(4) -0.1441(4)
H3 H 0.8529 0.8845 -0.1828
C7 C 0.6512(7) 0.7770(5) 0.3052(4)
C8 C 0.9112(6) 0.8931(4) -0.0659(4)
H4 H 0.8205 0.8930 -0.0515
C9 C 1.0620(6) 0.8898(4) -0.1658(3)
C10 C 0.7859(7) 0.8494(5) 0.1201(3)
H5 H 0.7566 0.9028 0.1336
C11 C 1.0079(7) 0.8982(4) 0.0764(3)
H6 H 1.0982 0.8879 0.1081
H7 H 0.9745 0.9531 0.0907
C12 C 1.2637(7) 0.6841(5) -0.2650(4)
C13 C 1.1573(7) 0.9007(5) -0.0310(4)
H8 H 1.2354 0.9053 0.0076
C14 C 1.2910(7) 0.8139(5) -0.2934(4)
H9 H 1.3288 0.8636 -0.3107
C15 C 1.0185(8) 0.7028(5) 0.0529(4)
H10 H 1.1035 0.7254 0.0415
C16 C 1.1756(7) 0.8970(4) -0.1089(4)
H11 H 1.2662 0.8994 -0.1234
C17 C 0.7653(10) 0.6347(5) 0.0910(4)
H12 H 0.6817 0.6113 0.1037
C18 C 0.7132(9) 0.7975(7) 0.3863(5)
H13 H 0.8143 0.7977 0.3894
H14 H 0.6847 0.7561 0.4222
H15 H 0.6813 0.8521 0.4004
C19 C 1.0412(8) 0.6891(5) -0.2137(4)
H16 H 0.9629 0.7188 -0.2014
C20 C 1.1681(9) 0.5617(5) -0.2202(4)
H17 H 1.1730 0.5040 -0.2106
C21 C 0.9887(10) 0.6207(5) 0.0443(4)
H18 H 1.0540 0.5853 0.0249
C22 C 1.0542(9) 0.6054(5) -0.2016(5)
H19 H 0.9833 0.5766 -0.1800
C23 C 0.8655(11) 0.5871(5) 0.0629(4)
H20 H 0.8499 0.5296 0.0561
C24 C 1.2740(9) 0.5995(5) -0.2522(5)
H21 H 1.3511 0.5689 -0.2649
O3 O 0.4488(7) 0.7187(6) 0.0660(4)
O4 O 0.4745(10) 0.9179(5) 0.1113(4)
O5 O 0.4796(8) 0.8273(5) -0.0133(5)
C25 C 0.3740(10) 0.7041(7) -0.0666(5)
H22 H 0.4088 0.6473 -0.0653
H23 H 0.3976 0.7319 -0.1132
H24 H 0.2733 0.7034 -0.0676
C26 C 0.4381(8) 0.7491(7) 0.0037(6)
Cu1C Cu 1.52738(10) 0.71994(8) -0.33874(5)
N2C N 0.3505(6) 0.7606(4) 0.2032(3)
O6 O 0.4657(8) 1.0808(5) 0.1434(5)
O7 O 0.6521(12) 0.9975(6) 0.2890(9)
O8 O 0.5819(13) 1.0385(8) 0.4449(8)
loop_
_geom_bond_atom_site_label_1
_geom_bond_atom_site_label_2
_geom_bond_site_symmetry_1
_geom_bond_site_symmetry_2
Cu1 N1 1_555 1_555
N1 C3 1_555 1_555
N2 C12 1_555 1_555
C1 N4 1_555 1_555
N3 C2 1_555 1_555
O1 Cu1 1_555 1_555
O2 Cu1 1_555 1_555
C2 C3 1_555 1_555
C3 C17 1_555 1_555
N4 C5 1_555 1_555
C4 C8 1_555 1_555
C5 H1 1_555 1_555
H2 C5 1_555 1_555
C6 H3 1_555 1_555
C7 O1 1_555 1_555
C8 C6 1_555 1_555
H4 C8 1_555 1_555
C9 C5 1_555 1_555
C10 N1 1_555 1_555
H5 C10 1_555 1_555
C11 N3 1_555 1_555
H6 C11 1_555 1_555
H7 C11 1_555 1_555
C12 C1 1_555 1_555
C13 C4 1_555 1_555
H8 C13 1_555 1_555
C14 N2 1_555 1_555
H9 C14 1_555 1_555
C15 C2 1_555 1_555
H10 C15 1_555 1_555
C16 C9 1_555 1_555
H11 C16 1_555 1_555
C17 H12 1_555 1_555
C18 C7 1_555 1_555
H13 C18 1_555 1_555
H14 C18 1_555 1_555
H15 C18 1_555 1_555
C19 C1 1_555 1_555
H16 C19 1_555 1_555
C20 H17 1_555 1_555
C21 C15 1_555 1_555
H18 C21 1_555 1_555
C22 C19 1_555 1_555
H19 C22 1_555 1_555
C23 C17 1_555 1_555
H20 C23 1_555 1_555
C24 C12 1_555 1_555
H21 C24 1_555 1_555
O3 Cu1 1_555 1_555
O4 Cu1 1_555 1_555
O5 C26 1_555 1_555
C25 H22 1_555 1_555
H23 C25 1_555 1_555
H24 C25 1_555 1_555
C26 O3 1_555 1_555
Cu1C N2 1_555 1_555
N2C Cu1 1_555 1_555
N3 C10 1_555 1_555
O2 C7 1_555 1_555
N4 C14 1_555 1_555
C4 C11 1_555 1_555
C6 C9 1_555 1_555
C13 C16 1_555 1_555
C20 C22 1_555 1_555
C20 C24 1_555 1_555
C21 C23 1_555 1_555
C25 C26 1_555 1_555

#END
