
#######################################################################
#
#                 Cambridge Crystallographic Data Centre
#                                CCDC 
#
#######################################################################
#
# If this CIF has been generated from an entry in the Cambridge 
# Structural Database, then it will include bibliographic, chemical, 
# crystal, experimental, refinement or atomic coordinate data resulting 
# from the CCDC's data processing and validation procedures.
#
#######################################################################

data_NEQDOD
_symmetry_cell_setting           monoclinic
_symmetry_space_group_name_H-M   'P 21/c'
_symmetry_Int_Tables_number      14
_space_group_name_Hall           '-P 2ybc'
loop_
_symmetry_equiv_pos_site_id
_symmetry_equiv_pos_as_xyz
1 x,y,z
2 -x,1/2+y,1/2-z
3 -x,-y,-z
4 x,1/2-y,1/2+z
_cell_length_a                   9.3730(10)
_cell_length_b                   9.7008(10)
_cell_length_c                   13.3403(14)
_cell_angle_alpha                90
_cell_angle_beta                 107.908(2)
_cell_angle_gamma                90
_cell_volume                     1154.21
loop_
_atom_site_label
_atom_site_type_symbol
_atom_site_fract_x
_atom_site_fract_y
_atom_site_fract_z
Cu1 Cu 0.5000 0.5000 0.0000
O1 O 0.45496(19) 0.29880(17) -0.00825(12)
N1 N 0.93445(19) 0.36781(17) 0.05831(15)
N2 N 0.7159(2) 0.4545(2) 0.04973(15)
O2 O 0.4716(2) 0.35535(19) 0.15440(14)
C1 C 0.4573(3) 0.2672(2) 0.08514(19)
C2 C 0.7930(2) 0.3880(2) -0.00375(17)
C3 C 1.0540(3) 0.2944(2) 0.0302(2)
H1 H 1.1501 0.3079 0.0868
H2 H 1.0646 0.3342 -0.0354
C4 C 0.7337(3) 0.3415(3) -0.1146(2)
H3 H 0.6857 0.2513 -0.1171
H4 H 0.8162 0.3342 -0.1450
H5 H 0.6598 0.4083 -0.1551
C5 C 0.8125(3) 0.4765(2) 0.1495(2)
H6 H 0.7879 0.5223 0.2050
C6 C 0.9481(3) 0.4222(2) 0.15578(18)
H7 H 1.0351 0.4218 0.2156
C7 C 0.4474(4) 0.1164(3) 0.1092(2)
H8 H 0.5485 0.0771 0.1340
H9 H 0.3888 0.0682 0.0452
H10 H 0.3985 0.1059 0.1639
C8 C 1.0227(2) 0.1420(2) 0.01457(16)
C9 C 1.0711(3) 0.0718(2) -0.05985(19)
H11 H 1.1202 0.1210 -0.1014
C10 C 0.9511(3) 0.0673(2) 0.07412(19)
H12 H 0.9172 0.1133 0.1254
Cu1_2 Cu 1.5000 -0.5000 0.0000
O1B O 0.54504(19) 0.70120(17) 0.00825(12)
N1B N 1.06555(19) -0.36781(17) -0.05831(15)
N2B N 1.2841(2) -0.4545(2) -0.04973(15)
N2B_2 N 0.2841(2) 0.5455(2) -0.04973(15)
O2B O 0.5284(2) 0.64465(19) -0.15440(14)
C1B C 0.5427(3) 0.7328(2) -0.08514(19)
C2B C 1.2070(2) -0.3880(2) 0.00375(17)
C3B C 0.9460(3) -0.2944(2) -0.0302(2)
H1B H 0.8499 -0.3079 -0.0868
H2B H 0.9354 -0.3342 0.0354
C4B C 1.2663(3) -0.3415(3) 0.1146(2)
H3B H 1.3143 -0.2513 0.1171
H4B H 1.1838 -0.3342 0.1450
H5B H 1.3402 -0.4083 0.1551
C5B C 1.1875(3) -0.4765(2) -0.1495(2)
H6B H 1.2121 -0.5223 -0.2050
C6B C 1.0519(3) -0.4222(2) -0.15578(18)
H7B H 0.9649 -0.4218 -0.2156
C7B C 0.5526(4) 0.8836(3) -0.1092(2)
H8B H 0.4515 0.9229 -0.1340
H9B H 0.6112 0.9318 -0.0452
H10B H 0.6015 0.8941 -0.1639
C8B C 0.9773(2) -0.1420(2) -0.01457(16)
C9B C 0.9289(3) -0.0718(2) 0.05985(19)
H11B H 0.8798 -0.1210 0.1014
C10B C 1.0489(3) -0.0673(2) -0.07412(19)
H12B H 1.0828 -0.1133 -0.1254
O3 O 0.6981(2) 0.8256(2) 0.20642(16)
H13 H 0.6406 0.7975 0.1459
H14 H 0.6392 0.8317 0.2429
loop_
_geom_bond_atom_site_label_1
_geom_bond_atom_site_label_2
_geom_bond_site_symmetry_1
_geom_bond_site_symmetry_2
Cu1 O1 1_555 1_555
O1 C1 1_555 1_555
N1 C2 1_555 1_555
N2 Cu1 1_555 1_555
O2 Cu1 1_555 1_555
C1 O2 1_555 1_555
C2 N2 1_555 1_555
C3 N1 1_555 1_555
H1 C3 1_555 1_555
H2 C3 1_555 1_555
C4 C2 1_555 1_555
H3 C4 1_555 1_555
H4 C4 1_555 1_555
H5 C4 1_555 1_555
C5 N2 1_555 1_555
H6 C5 1_555 1_555
C6 N1 1_555 1_555
H7 C6 1_555 1_555
C7 C1 1_555 1_555
H8 C7 1_555 1_555
H9 C7 1_555 1_555
H10 C7 1_555 1_555
O3 H13 1_555 1_555
C8 C3 1_555 1_555
C9 C8 1_555 1_555
H11 C9 1_555 1_555
C10 C8 1_555 1_555
H12 C10 1_555 1_555
H14 O3 1_555 1_555
Cu1_2 N2B 1_555 1_555
O1B Cu1 1_555 1_555
N1B C2B 1_555 1_555
N2B C2B 1_555 1_555
N2B_2 Cu1 1_555 1_555
O2B Cu1 1_555 1_555
C1B O1B 1_555 1_555
C2B C4B 1_555 1_555
C3B N1B 1_555 1_555
H1B C3B 1_555 1_555
H2B C3B 1_555 1_555
C4B H3B 1_555 1_555
H4B C4B 1_555 1_555
H5B C4B 1_555 1_555
C5B N2B 1_555 1_555
H6B C5B 1_555 1_555
C6B N1B 1_555 1_555
H7B C6B 1_555 1_555
C7B C1B 1_555 1_555
H8B C7B 1_555 1_555
H9B C7B 1_555 1_555
H10B C7B 1_555 1_555
C8B C3B 1_555 1_555
C9B C10 1_555 1_555
H11B C9B 1_555 1_555
C10B C9 1_555 1_555
H12B C10B 1_555 1_555
C5 C6 1_555 1_555
O2B C1B 1_555 1_555
C5B C6B 1_555 1_555
C8B C9B 1_555 1_555
C8B C10B 1_555 1_555

#END
