
#######################################################################
#
#                 Cambridge Crystallographic Data Centre
#                                CCDC 
#
#######################################################################
#
# If this CIF has been generated from an entry in the Cambridge 
# Structural Database, then it will include bibliographic, chemical, 
# crystal, experimental, refinement or atomic coordinate data resulting 
# from the CCDC's data processing and validation procedures.
#
#######################################################################

data_NEQFOE
_symmetry_cell_setting           monoclinic
_symmetry_space_group_name_H-M   'P 21/c'
_symmetry_Int_Tables_number      14
_space_group_name_Hall           '-P 2ybc'
loop_
_symmetry_equiv_pos_site_id
_symmetry_equiv_pos_as_xyz
1 x,y,z
2 -x,1/2+y,1/2-z
3 -x,-y,-z
4 x,1/2-y,1/2+z
_cell_length_a                   8.377(2)
_cell_length_b                   16.675(3)
_cell_length_c                   11.061(2)
_cell_angle_alpha                90
_cell_angle_beta                 103.91(3)
_cell_angle_gamma                90
_cell_volume                     1499.76
loop_
_atom_site_label
_atom_site_type_symbol
_atom_site_fract_x
_atom_site_fract_y
_atom_site_fract_z
V1 V 0.2590(2) 0.1726(1) 0.2945(2)
O1 O 0.4206(11) 0.2176(3) 0.2235(6)
O2 O 1.0522(10) 0.1445(3) 0.1923(6)
N1 N 0.3384(9) 0.0552(6) 0.2543(16)
C1 C 0.8968(17) 0.1640(7) 0.2031(19)
N2 N 0.1675(11) 0.2916(5) 0.3001(15)
O3 O 0.2943(7) 0.1583(3) 0.4415(6)
C2 C 0.6915(24) 0.1648(8) 0.3210(14)
C3 C 0.5730(19) 0.1958(7) 0.2195(19)
C4 C 0.7801(31) 0.1970(7) 0.1036(15)
C5 C 0.1118(16) 0.4198(11) 0.1995(13)
C6 C 0.1019(15) 0.3205(11) 0.3906(15)
C7 C 0.8491(21) 0.1484(6) 0.3094(16)
C8 C 0.3499(13) 0.0349(11) 0.1389(18)
C9 C 0.3707(14) -0.0010(14) 0.3403(13)
C10 C 0.4205(14) -0.0978(10) 0.1974(23)
C11 C 0.0438(15) 0.4471(10) 0.2906(19)
C12 C 0.3874(14) -0.0409(13) 0.1084(16)
C13 C 0.0407(15) 0.3959(12) 0.3911(18)
C14 C 0.6212(24) 0.2126(7) 0.1118(19)
C15 C 0.1690(13) 0.3420(12) 0.2071(15)
C16 C 0.4147(15) -0.0762(12) 0.3165(18)
H1 H 0.549(12) 0.2413(51) 0.0426(78)
H2 H 0.1045(91) 0.2839(46) 0.4580(73)
H3 H 0.3682(85) 0.0080(44) 0.4267(71)
H4 H 0.936(10) 0.1196(45) 0.3847(72)
H5 H 0.447(11) -0.1167(56) 0.3807(82)
H6 H 0.0038(94) 0.4963(48) 0.3031(68)
H7 H 0.4575(89) -0.1479(50) 0.1867(66)
H8 H 0.6597(92) 0.1624(43) 0.4043(76)
H9 H 0.0832(99) 0.4498(50) 0.1070(78)
H10 H 0.004(14) 0.4281(68) 0.438(10)
H11 H 0.3212(90) 0.0728(46) 0.0746(76)
H12 H 0.2234(91) 0.3276(45) 0.1421(70)
H13 H 0.806(11) 0.1964(45) 0.0363(76)
H14 H 0.384(11) -0.0546(61) 0.0224(83)
O2_2 O 0.0522(10) 0.1445(3) 0.1923(6)
V1_2 V 1.2590(2) 0.1726(1) 0.2945(2)
loop_
_geom_bond_atom_site_label_1
_geom_bond_atom_site_label_2
_geom_bond_site_symmetry_1
_geom_bond_site_symmetry_2
V1 O1 1_555 1_555
O1 C3 1_555 1_555
O2 C1 1_555 1_555
N1 V1 1_555 1_555
C1 C4 1_555 1_555
N2 V1 1_555 1_555
O3 V1 1_555 1_555
C2 C3 1_555 1_555
C3 C14 1_555 1_555
C4 C14 1_555 1_555
C5 C11 1_555 1_555
C6 N2 1_555 1_555
C7 C1 1_555 1_555
C8 N1 1_555 1_555
C9 N1 1_555 1_555
C10 C12 1_555 1_555
C11 C13 1_555 1_555
C12 C8 1_555 1_555
C13 C6 1_555 1_555
C14 H1 1_555 1_555
C15 N2 1_555 1_555
C16 C9 1_555 1_555
H2 C6 1_555 1_555
H3 C9 1_555 1_555
H4 C7 1_555 1_555
H5 C16 1_555 1_555
H6 C11 1_555 1_555
H7 C10 1_555 1_555
H8 C2 1_555 1_555
H9 C5 1_555 1_555
H10 C13 1_555 1_555
H11 C8 1_555 1_555
H12 C15 1_555 1_555
H13 C4 1_555 1_555
H14 C12 1_555 1_555
O2_2 V1 1_555 1_555
V1_2 O2 1_555 1_555
C2 C7 1_555 1_555
C5 C15 1_555 1_555
C10 C16 1_555 1_555

#END
