
#######################################################################
#
#                 Cambridge Crystallographic Data Centre
#                                CCDC 
#
#######################################################################
#
# If this CIF has been generated from an entry in the Cambridge 
# Structural Database, then it will include bibliographic, chemical, 
# crystal, experimental, refinement or atomic coordinate data resulting 
# from the CCDC's data processing and validation procedures.
#
#######################################################################

data_NEQNAZ02
_symmetry_cell_setting           orthorhombic
_symmetry_space_group_name_H-M   'P 21 21 21'
_symmetry_Int_Tables_number      19
_space_group_name_Hall           'P 2ac 2ab'
loop_
_symmetry_equiv_pos_site_id
_symmetry_equiv_pos_as_xyz
1 x,y,z
2 1/2-x,-y,1/2+z
3 -x,1/2+y,1/2-z
4 1/2+x,1/2-y,-z
_cell_length_a                   5.7479(8)
_cell_length_b                   10.9085(15)
_cell_length_c                   15.370(2)
_cell_angle_alpha                90
_cell_angle_beta                 90
_cell_angle_gamma                90
_cell_volume                     963.714
loop_
_atom_site_label
_atom_site_type_symbol
_atom_site_fract_x
_atom_site_fract_y
_atom_site_fract_z
Cd1 Cd 0.56621(8) 0.91389(5) 0.35383(3)
O1 O 0.2556(8) 1.0763(5) 0.3435(3)
H1 H 0.2524 1.0946 0.3960
H2 H 0.1314 1.0445 0.3282
O2 O 0.2968(10) 0.8160(5) 0.4294(3)
H3 H 0.2994 0.7417 0.4190
H4 H 0.1654 0.8397 0.4433
O3 O 0.7078(9) 0.7139(5) 0.3185(3)
H5 H 0.7403 0.6584 0.3533
H6 H 0.7605 0.6993 0.2696
O4 O 0.8306(9) 1.0150(5) 0.2673(3)
O5 O 0.9127(8) 1.0753(4) 0.1329(3)
O6 O 0.6384(8) 1.1025(5) -0.0358(3)
O7 O 0.8469(8) 0.9329(5) -0.0395(3)
N1 N 0.4454(11) 0.8928(5) 0.2083(3)
N2 N 0.3510(10) 0.8820(5) 0.0315(4)
C1 C 0.7928(13) 1.0198(7) 0.1865(5)
C2 C 0.5857(12) 0.9490(6) 0.1509(4)
C3 C 0.5386(12) 0.9427(6) 0.0625(4)
C4 C 0.2134(13) 0.8285(7) 0.0900(4)
H7 H 0.0807 0.7879 0.0709
C5 C 0.2620(12) 0.8315(7) 0.1789(5)
H8 H 0.1655 0.7904 0.2177
C6 C 0.6911(13) 0.9973(7) -0.0074(5)
Cd1A Cd 0.93379(8) 1.08611(5) -0.14617(3)
O6A O 0.8616(8) 0.8975(5) 0.4642(3)
O7A O 0.6531(8) 1.0671(5) 0.4605(3)
loop_
_geom_bond_atom_site_label_1
_geom_bond_atom_site_label_2
_geom_bond_site_symmetry_1
_geom_bond_site_symmetry_2
Cd1 O1 1_555 1_555
O1 H1 1_555 1_555
H2 O1 1_555 1_555
O2 Cd1 1_555 1_555
H3 O2 1_555 1_555
H4 O2 1_555 1_555
O3 Cd1 1_555 1_555
H5 O3 1_555 1_555
H6 O3 1_555 1_555
O4 Cd1 1_555 1_555
O5 C1 1_555 1_555
O6 C6 1_555 1_555
O7 C6 1_555 1_555
N1 Cd1 1_555 1_555
N2 C3 1_555 1_555
C1 O4 1_555 1_555
C2 N1 1_555 1_555
C3 C2 1_555 1_555
C4 N2 1_555 1_555
H7 C4 1_555 1_555
C5 N1 1_555 1_555
H8 C5 1_555 1_555
C6 C3 1_555 1_555
Cd1A O6 1_555 1_555
O6A Cd1 1_555 1_555
O7A Cd1 1_555 1_555
O7 Cd1A 1_555 1_555
C1 C2 1_555 1_555
C4 C5 1_555 1_555

#END
