
#######################################################################
#
#                 Cambridge Crystallographic Data Centre
#                                CCDC 
#
#######################################################################
#
# If this CIF has been generated from an entry in the Cambridge 
# Structural Database, then it will include bibliographic, chemical, 
# crystal, experimental, refinement or atomic coordinate data resulting 
# from the CCDC's data processing and validation procedures.
#
#######################################################################

data_NEQQAC01
_symmetry_cell_setting           monoclinic
_symmetry_space_group_name_H-M   'P 21/c'
_symmetry_Int_Tables_number      14
_space_group_name_Hall           '-P 2ybc'
loop_
_symmetry_equiv_pos_site_id
_symmetry_equiv_pos_as_xyz
1 x,y,z
2 -x,1/2+y,1/2-z
3 -x,-y,-z
4 x,1/2-y,1/2+z
_cell_length_a                   17.730(4)
_cell_length_b                   7.2930(10)
_cell_length_c                   8.060(2)
_cell_angle_alpha                90
_cell_angle_beta                 95.18(3)
_cell_angle_gamma                90
_cell_volume                     1037.94
loop_
_atom_site_label
_atom_site_type_symbol
_atom_site_fract_x
_atom_site_fract_y
_atom_site_fract_z
C1 C 0.25112(17) 0.4451(4) 0.3307(4)
C2 C 0.18812(19) 0.5600(5) 0.3074(4)
C3 C 0.1211(2) 0.4995(5) 0.2236(5)
H1 H 0.0795 0.5774 0.2083
C4 C 0.1167(2) 0.3237(6) 0.1635(4)
C5 C 0.1780(2) 0.2083(5) 0.1834(4)
H2 H 0.1744 0.0896 0.1412
C6 C 0.24515(19) 0.2693(5) 0.2666(4)
H3 H 0.2867 0.1911 0.2795
Cl1 Cl 0.03195(6) 0.2435(2) 0.06451(15)
Cl2 Cl 0.19365(6) 0.77804(14) 0.38967(15)
O1 O 0.31300(12) 0.5159(3) 0.4204(3)
C7 C 0.37555(17) 0.3983(5) 0.4610(4)
H4 H 0.3567 0.2786 0.4894
H5 H 0.4049 0.4462 0.5588
C8 C 0.42740(16) 0.3757(4) 0.3228(3)
O2 O 0.41627(12) 0.4729(3) 0.1954(2)
O3 O 0.48050(13) 0.2632(3) 0.3492(3)
Cd1 Cd 0.5000 0.5000 0.0000
O4 O 0.39862(13) 0.6368(3) -0.1577(3)
H6 H 0.4158 0.7042 -0.2240
H7 H 0.3674 0.6835 -0.1203
C1B C 0.74888(17) 0.5549(4) -0.3307(4)
C2B C 0.81188(19) 0.4400(5) -0.3074(4)
C3B C 0.8789(2) 0.5005(5) -0.2236(5)
H1B H 0.9205 0.4226 -0.2083
C4B C 0.8833(2) 0.6763(6) -0.1635(4)
C5B C 0.8220(2) 0.7917(5) -0.1834(4)
H2B H 0.8256 0.9104 -0.1412
C6B C 0.75485(19) 0.7307(5) -0.2666(4)
H3B H 0.7133 0.8089 -0.2795
Cl1B Cl 0.96805(6) 0.7565(2) -0.06451(15)
Cl2B Cl 0.80635(6) 0.22196(14) -0.38967(15)
O1B O 0.68700(12) 0.4841(3) -0.4204(3)
C7B C 0.62445(17) 0.6017(5) -0.4610(4)
H4B H 0.6433 0.7214 -0.4894
H5B H 0.5951 0.5538 -0.5588
C8B C 0.57260(16) 0.6243(4) -0.3228(3)
O2B O 0.58373(12) 0.5271(3) -0.1954(2)
O3B O 0.51950(13) 0.7368(3) -0.3492(3)
O3A O 0.51950(13) 0.7632(3) 0.1508(3)
O3C O 0.48050(13) 0.2368(3) -0.1508(3)
Cd1A Cd 0.5000 0.0000 0.5000
Cd1A_2 Cd 0.5000 1.0000 -0.5000
O4B O 0.60138(13) 0.3632(3) 0.1577(3)
H6B H 0.5842 0.2958 0.2240
H7B H 0.6326 0.3165 0.1203
loop_
_geom_bond_atom_site_label_1
_geom_bond_atom_site_label_2
_geom_bond_site_symmetry_1
_geom_bond_site_symmetry_2
C1 C2 1_555 1_555
C2 C3 1_555 1_555
C3 H1 1_555 1_555
C4 C3 1_555 1_555
C5 C4 1_555 1_555
H2 C5 1_555 1_555
C6 C1 1_555 1_555
H3 C6 1_555 1_555
Cl1 C4 1_555 1_555
Cl2 C2 1_555 1_555
O1 C1 1_555 1_555
C7 O1 1_555 1_555
H4 C7 1_555 1_555
H5 C7 1_555 1_555
C8 C7 1_555 1_555
O2 C8 1_555 1_555
O3 C8 1_555 1_555
Cd1 O2 1_555 1_555
O4 Cd1 1_555 1_555
H6 O4 1_555 1_555
H7 O4 1_555 1_555
C1B C2B 1_555 1_555
C2B C3B 1_555 1_555
C3B H1B 1_555 1_555
C4B C3B 1_555 1_555
C5B C4B 1_555 1_555
H2B C5B 1_555 1_555
C6B C1B 1_555 1_555
H3B C6B 1_555 1_555
Cl1B C4B 1_555 1_555
Cl2B C2B 1_555 1_555
O1B C1B 1_555 1_555
C7B O1B 1_555 1_555
H4B C7B 1_555 1_555
H5B C7B 1_555 1_555
C8B C7B 1_555 1_555
O2B Cd1 1_555 1_555
O3B C8B 1_555 1_555
O3A Cd1 1_555 1_555
O3C Cd1 1_555 1_555
Cd1A O3 1_555 1_555
Cd1A_2 O3B 1_555 1_555
O4B Cd1 1_555 1_555
H6B O4B 1_555 1_555
H7B O4B 1_555 1_555
C5 C6 1_555 1_555
C5B C6B 1_555 1_555
C8B O2B 1_555 1_555

#END
