
#######################################################################
#
#                 Cambridge Crystallographic Data Centre
#                                CCDC 
#
#######################################################################
#
# If this CIF has been generated from an entry in the Cambridge 
# Structural Database, then it will include bibliographic, chemical, 
# crystal, experimental, refinement or atomic coordinate data resulting 
# from the CCDC's data processing and validation procedures.
#
#######################################################################

data_NEQZIU
_symmetry_cell_setting           monoclinic
_symmetry_space_group_name_H-M   'C 2/c'
_symmetry_Int_Tables_number      15
_space_group_name_Hall           '-C 2yn'
loop_
_symmetry_equiv_pos_site_id
_symmetry_equiv_pos_as_xyz
1 x,y,z
2 -x,y,1/2-z
3 1/2+x,1/2+y,z
4 1/2-x,1/2+y,1/2-z
5 -x,-y,-z
6 x,-y,1/2+z
7 1/2-x,1/2-y,-z
8 1/2+x,1/2-y,1/2+z
_cell_length_a                   13.8148(6)
_cell_length_b                   15.8632(6)
_cell_length_c                   21.7690(8)
_cell_angle_alpha                90
_cell_angle_beta                 105.131(4)
_cell_angle_gamma                90
_cell_volume                     4605.22
loop_
_atom_site_label
_atom_site_type_symbol
_atom_site_fract_x
_atom_site_fract_y
_atom_site_fract_z
Cd1 Cd 0.858179(16) 0.494786(13) 0.542749(10)
C1 C 1.0430(2) 0.39099(19) 0.54282(15)
C2 C 1.1352(2) 0.34137(18) 0.57384(14)
C3 C 1.1333(2) 0.2891(2) 0.62345(15)
H1 H 1.0781 0.2904 0.6404
C4 C 1.2119(3) 0.2341(2) 0.64929(17)
H2 H 1.2089 0.1978 0.6823
C5 C 1.2922(3) 0.2347(2) 0.62521(17)
H3 H 1.3444 0.1972 0.6411
C6 C 1.2239(2) 0.34616(19) 0.55141(13)
C7 C 1.3919(2) 0.2889(2) 0.55686(15)
H4 H 1.3784 0.3132 0.5146
H5 H 1.4140 0.2313 0.5545
C8 C 1.4735(2) 0.3380(2) 0.60113(15)
C9 C 1.5407(2) 0.2988(2) 0.65096(16)
H6 H 1.5362 0.2410 0.6565
C10 C 1.6145(2) 0.3441(2) 0.69269(15)
H7 H 1.6575 0.3166 0.7268
C11 C 1.6258(2) 0.4298(2) 0.68468(14)
C12 C 1.5586(2) 0.4700(2) 0.63483(15)
H8 H 1.5643 0.5277 0.6287
C13 C 1.4830(2) 0.4243(2) 0.59413(15)
H9 H 1.4375 0.4520 0.5613
C14 C 1.7059(2) 0.4751(2) 0.73189(14)
C15 C 1.6983(3) 0.4742(2) 0.79472(16)
H10 H 1.6431 0.4488 0.8040
C16 C 1.7711(3) 0.5104(2) 0.84310(16)
H11 H 1.7646 0.5090 0.8846
C17 C 1.8527(3) 0.5484(2) 0.83072(15)
H12 H 1.9021 0.5722 0.8636
C18 C 1.8612(2) 0.5510(2) 0.76912(15)
H13 H 1.9165 0.5774 0.7607
C19 C 1.7893(2) 0.51508(18) 0.71916(14)
C20 C 1.8107(2) 0.5136(2) 0.65480(14)
C21 C 0.7665(2) 0.3412(2) 0.43976(14)
H14 H 0.8274 0.3332 0.4298
C22 C 0.6105(3) 0.3279(2) 0.43939(17)
H15 H 0.5439 0.3106 0.4299
C23 C 0.6553(3) 0.3835(2) 0.48431(16)
H16 H 0.6240 0.4116 0.5113
C24 C 0.6723(3) 0.2373(2) 0.36081(17)
H17 H 0.6711 0.1824 0.3803
H18 H 0.7319 0.2394 0.3452
C25 C 0.5813(2) 0.2442(2) 0.30434(14)
C26 C 0.5406(3) 0.3187(2) 0.27685(15)
H19 H 0.5678 0.3697 0.2943
C27 C 0.5397(2) 0.1703(2) 0.27704(13)
H20 H 0.5653 0.1192 0.2952
N1 N 1.29859(18) 0.28897(16) 0.57812(12)
N2 N 0.75409(19) 0.39255(17) 0.48445(11)
N3 N 0.6817(2) 0.30171(17) 0.41024(12)
O1 O 0.98053(16) 0.40057(15) 0.57510(11)
O2 O 1.03015(15) 0.41562(14) 0.48641(10)
O3 O 1.24021(15) 0.39743(14) 0.51179(10)
O4 O 1.75924(19) 0.46806(17) 0.61217(11)
O5 O 1.88333(16) 0.55491(15) 0.64629(10)
Cd1A Cd 0.141821(16) 0.494786(13) -0.042749(10)
Cd1D Cd 1.141821(16) 0.505214(13) 0.457251(10)
Cd1_2 Cd 1.858179(16) 0.494786(13) 0.542749(10)
Cd1D_2 Cd 0.141821(16) 0.505214(13) 0.457251(10)
C1D C 0.9570(2) 0.60901(19) 0.45718(15)
C2D C 0.8648(2) 0.65863(18) 0.42616(14)
C3D C 0.8667(2) 0.7109(2) 0.37655(15)
H1D H 0.9219 0.7096 0.3596
C4D C 0.7881(3) 0.7659(2) 0.35071(17)
H2D H 0.7911 0.8022 0.3177
C5D C 0.7078(3) 0.7653(2) 0.37479(17)
H3D H 0.6556 0.8028 0.3589
C6D C 0.7761(2) 0.65384(19) 0.44859(13)
C7D C 0.6081(2) 0.7111(2) 0.44314(15)
H4D H 0.6216 0.6868 0.4854
H5D H 0.5860 0.7687 0.4455
C8D C 0.5265(2) 0.6620(2) 0.39887(15)
C9D C 0.4593(2) 0.7012(2) 0.34904(16)
H6D H 0.4638 0.7590 0.3435
C10D C 0.3855(2) 0.6559(2) 0.30731(15)
H7D H 0.3425 0.6834 0.2732
C11D C 0.3742(2) 0.5702(2) 0.31532(14)
C12D C 0.4414(2) 0.5300(2) 0.36517(15)
H8D H 0.4357 0.4723 0.3713
C13D C 0.5170(2) 0.5757(2) 0.40587(15)
H9D H 0.5625 0.5480 0.4387
C14D C 0.2941(2) 0.5249(2) 0.26811(14)
C15D C 0.3017(3) 0.5258(2) 0.20528(16)
H10D H 0.3569 0.5512 0.1960
C16D C 0.2289(3) 0.4896(2) 0.15690(16)
H11D H 0.2354 0.4910 0.1154
C17D C 0.1473(3) 0.4516(2) 0.16928(15)
H12D H 0.0979 0.4278 0.1364
C18D C 0.1388(2) 0.4490(2) 0.23088(15)
H13D H 0.0835 0.4226 0.2393
C19D C 0.2107(2) 0.48492(18) 0.28084(14)
C20D C 0.1893(2) 0.4864(2) 0.34520(14)
C21A C 0.2335(2) 0.3412(2) 0.06024(14)
H14A H 0.1726 0.3332 0.0702
C22A C 0.3895(3) 0.3279(2) 0.06061(17)
H15A H 0.4561 0.3106 0.0701
C23A C 0.3447(3) 0.3835(2) 0.01569(16)
H16A H 0.3760 0.4116 -0.0113
C24A C 0.3277(3) 0.2373(2) 0.13919(17)
H17A H 0.3289 0.1824 0.1197
H18A H 0.2681 0.2394 0.1548
C25A C 0.4187(2) 0.2442(2) 0.19566(14)
C26A C 0.4594(3) 0.3187(2) 0.22315(15)
H19A H 0.4322 0.3697 0.2057
C27A C 0.4603(2) 0.1703(2) 0.22296(13)
H20A H 0.4347 0.1192 0.2048
N1D N 0.70141(18) 0.71103(16) 0.42188(12)
N2A N 0.24591(19) 0.39255(17) 0.01555(11)
N2D N 1.24591(19) 0.60745(17) 0.51555(11)
N3A N 0.3183(2) 0.30171(17) 0.08976(12)
O1D O 1.01947(16) 0.59943(15) 0.42490(11)
O2D O 0.96985(15) 0.58438(14) 0.51359(10)
O3D O 0.75979(15) 0.60257(14) 0.48821(10)
O4D O 0.24076(19) 0.53194(17) 0.38783(11)
O4_2 O 0.75924(19) 0.46806(17) 0.61217(11)
O4D_2 O 1.24076(19) 0.53194(17) 0.38783(11)
O5D O 0.11667(16) 0.44509(15) 0.35371(10)
O5_2 O 0.88333(16) 0.55491(15) 0.64629(10)
O5D_2 O 1.11667(16) 0.44509(15) 0.35371(10)
loop_
_geom_bond_atom_site_label_1
_geom_bond_atom_site_label_2
_geom_bond_site_symmetry_1
_geom_bond_site_symmetry_2
Cd1 N2 1_555 1_555
C1 C2 1_555 1_555
C2 C3 1_555 1_555
C3 H1 1_555 1_555
C4 C3 1_555 1_555
H2 C4 1_555 1_555
C5 C4 1_555 1_555
H3 C5 1_555 1_555
C6 C2 1_555 1_555
C7 H4 1_555 1_555
H5 C7 1_555 1_555
C8 C7 1_555 1_555
C9 C8 1_555 1_555
H6 C9 1_555 1_555
C10 C9 1_555 1_555
H7 C10 1_555 1_555
C11 C10 1_555 1_555
C12 C11 1_555 1_555
H8 C12 1_555 1_555
C13 C8 1_555 1_555
H9 C13 1_555 1_555
C14 C11 1_555 1_555
C15 C14 1_555 1_555
H10 C15 1_555 1_555
C16 C15 1_555 1_555
H11 C16 1_555 1_555
C17 C16 1_555 1_555
H12 C17 1_555 1_555
C18 C17 1_555 1_555
H13 C18 1_555 1_555
C19 C14 1_555 1_555
C20 C19 1_555 1_555
C21 H14 1_555 1_555
C22 H15 1_555 1_555
C23 C22 1_555 1_555
H16 C23 1_555 1_555
C24 H17 1_555 1_555
H18 C24 1_555 1_555
C25 C24 1_555 1_555
C26 C25 1_555 1_555
H19 C26 1_555 1_555
C27 C25 1_555 1_555
H20 C27 1_555 1_555
N1 C5 1_555 1_555
N2 C21 1_555 1_555
N3 C21 1_555 1_555
O1 Cd1 1_555 1_555
O2 C1 1_555 1_555
O3 C6 1_555 1_555
O4 C20 1_555 1_555
O5 C20 1_555 1_555
Cd1A N2A 1_555 1_555
Cd1D O2 1_555 1_555
Cd1_2 O4 1_555 1_555
Cd1D_2 O4D 1_555 1_555
C1D C2D 1_555 1_555
C2D C3D 1_555 1_555
C3D H1D 1_555 1_555
C4D C3D 1_555 1_555
H2D C4D 1_555 1_555
C5D C4D 1_555 1_555
H3D C5D 1_555 1_555
C6D C2D 1_555 1_555
C7D H4D 1_555 1_555
H5D C7D 1_555 1_555
C8D C7D 1_555 1_555
C9D C8D 1_555 1_555
H6D C9D 1_555 1_555
C10D C9D 1_555 1_555
H7D C10D 1_555 1_555
C11D C10D 1_555 1_555
C12D C11D 1_555 1_555
H8D C12D 1_555 1_555
C13D C8D 1_555 1_555
H9D C13D 1_555 1_555
C14D C11D 1_555 1_555
C15D C14D 1_555 1_555
H10D C15D 1_555 1_555
C16D C15D 1_555 1_555
H11D C16D 1_555 1_555
C17D C16D 1_555 1_555
H12D C17D 1_555 1_555
C18D C17D 1_555 1_555
H13D C18D 1_555 1_555
C19D C14D 1_555 1_555
C20D C19D 1_555 1_555
C21A H14A 1_555 1_555
C22A H15A 1_555 1_555
C23A C22A 1_555 1_555
H16A C23A 1_555 1_555
C24A H17A 1_555 1_555
H18A C24A 1_555 1_555
C25A C24A 1_555 1_555
C26A C26 1_555 1_555
H19A C26A 1_555 1_555
C27A C27 1_555 1_555
H20A C27A 1_555 1_555
N1D C5D 1_555 1_555
N2A C21A 1_555 1_555
N2D Cd1D 1_555 1_555
N3A C21A 1_555 1_555
O1D Cd1D 1_555 1_555
O2D Cd1 1_555 1_555
O3D Cd1 1_555 1_555
O4D C20D 1_555 1_555
O4_2 Cd1 1_555 1_555
O4D_2 Cd1D 1_555 1_555
O5D Cd1D_2 1_555 1_555
O5_2 Cd1 1_555 1_555
O5D_2 Cd1D 1_555 1_555
C1 O1 1_555 1_555
C6 N1 1_555 1_555
C7 N1 1_555 1_555
C12 C13 1_555 1_555
C18 C19 1_555 1_555
C22 N3 1_555 1_555
C23 N2 1_555 1_555
C24 N3 1_555 1_555
O3 Cd1D 1_555 1_555
O5 Cd1_2 1_555 1_555
C1D O1D 1_555 1_555
C1D O2D 1_555 1_555
C6D N1D 1_555 1_555
C6D O3D 1_555 1_555
C7D N1D 1_555 1_555
C12D C13D 1_555 1_555
C18D C19D 1_555 1_555
C20D O5D 1_555 1_555
C22A N3A 1_555 1_555
C23A N2A 1_555 1_555
C24A N3A 1_555 1_555
C25A C26A 1_555 1_555
C25A C27A 1_555 1_555

#END
