
#######################################################################
#
#                 Cambridge Crystallographic Data Centre
#                                CCDC 
#
#######################################################################
#
# If this CIF has been generated from an entry in the Cambridge 
# Structural Database, then it will include bibliographic, chemical, 
# crystal, experimental, refinement or atomic coordinate data resulting 
# from the CCDC's data processing and validation procedures.
#
#######################################################################

data_NERBET
_symmetry_cell_setting           monoclinic
_symmetry_space_group_name_H-M   'P 21/n'
_symmetry_Int_Tables_number      14
_space_group_name_Hall           '-P 2yn'
loop_
_symmetry_equiv_pos_site_id
_symmetry_equiv_pos_as_xyz
1 x,y,z
2 1/2-x,1/2+y,1/2-z
3 -x,-y,-z
4 1/2+x,1/2-y,1/2+z
_cell_length_a                   15.2836(5)
_cell_length_b                   8.8648(2)
_cell_length_c                   25.2366(8)
_cell_angle_alpha                90
_cell_angle_beta                 102.935(3)
_cell_angle_gamma                90
_cell_volume                     3332.44
loop_
_atom_site_label
_atom_site_type_symbol
_atom_site_fract_x
_atom_site_fract_y
_atom_site_fract_z
Ni1 Ni 0.34886(2) 0.35928(4) 0.590531(14)
C1 C 0.52565(18) 0.1983(3) 0.63163(11)
C2 C 0.50270(18) 0.1804(3) 0.68661(11)
C3 C 0.5532(2) 0.0841(3) 0.72346(13)
H1 H 0.5992 0.0296 0.7137
C4 C 0.5373(3) 0.0658(4) 0.77546(14)
H2 H 0.5710 -0.0022 0.7998
C5 C 0.4729(2) 0.1475(3) 0.78964(13)
H3 H 0.4625 0.1362 0.8244
C6 C 0.43248(18) 0.2656(3) 0.70197(11)
C7 C 0.35210(19) 0.3346(3) 0.77321(12)
H4 H 0.3244 0.2707 0.7961
H5 H 0.3059 0.3626 0.7417
C8 C 0.38672(18) 0.4756(3) 0.80447(11)
C9 C 0.4427(2) 0.4676(3) 0.85597(12)
H6 H 0.4622 0.3737 0.8704
C10 C 0.4701(2) 0.5957(3) 0.88626(12)
H7 H 0.5075 0.5864 0.9207
C11 C 0.44284(17) 0.7387(3) 0.86628(11)
C12 C 0.38662(19) 0.7466(3) 0.81500(12)
H8 H 0.3661 0.8402 0.8008
C13 C 0.3602(2) 0.6179(3) 0.78440(12)
H9 H 0.3240 0.6272 0.7497
C14 C 0.47792(17) 0.8752(3) 0.89867(11)
C15 C 0.57009(18) 0.8856(3) 0.92018(12)
H10 H 0.6070 0.8067 0.9145
C16 C 0.6080(2) 1.0087(4) 0.94955(13)
H11 H 0.6697 1.0122 0.9634
C17 C 0.5547(2) 1.1274(3) 0.95860(12)
H12 H 0.5800 1.2112 0.9784
C18 C 0.46337(19) 1.1195(3) 0.93771(11)
H13 H 0.4273 1.1995 0.9436
C19 C 0.42351(17) 0.9952(3) 0.90796(11)
C20 C 0.32221(18) 0.9955(3) 0.88900(11)
C21 C 0.27278(18) 0.0346(3) 0.59843(12)
H14 H 0.2811 0.0541 0.6354
C22 C 0.23637(19) -0.1017(3) 0.57895(13)
H15 H 0.2206 -0.1731 0.6022
C23 C 0.2240(2) -0.1295(3) 0.52434(14)
H16 H 0.2005 -0.2213 0.5100
C24 C 0.2467(2) -0.0209(3) 0.49084(13)
H17 H 0.2375 -0.0378 0.4536
C25 C 0.28333(17) 0.1138(3) 0.51317(11)
C26 C 0.30930(17) 0.2392(3) 0.48059(11)
C27 C 0.30698(18) 0.2355(3) 0.42571(11)
H18 H 0.2887 0.1482 0.4058
C28 C 0.33199(17) 0.3627(3) 0.39986(11)
C29 C 0.36173(17) 0.4893(3) 0.43187(11)
H19 H 0.3790 0.5759 0.4161
C30 C 0.36533(17) 0.4852(3) 0.48705(11)
C31 C 0.39845(17) 0.6078(3) 0.52664(11)
C32 C 0.43532(18) 0.7411(3) 0.51300(12)
H20 H 0.4393 0.7598 0.4774
C33 C 0.46611(19) 0.8459(3) 0.55356(13)
H21 H 0.4922 0.9355 0.5457
C34 C 0.4577(2) 0.8162(3) 0.60540(13)
H22 H 0.4775 0.8858 0.6331
C35 C 0.41946(19) 0.6821(3) 0.61612(12)
H23 H 0.4133 0.6631 0.6513
C36 C 0.32853(18) 0.3609(3) 0.34071(11)
C37 C 0.2680(2) 0.2705(4) 0.30542(13)
H24 H 0.2278 0.2112 0.3190
C38 C 0.2664(2) 0.2672(4) 0.25064(13)
H25 H 0.2248 0.2061 0.2279
C39 C 0.3249(2) 0.3523(4) 0.22893(12)
C40 C 0.3856(2) 0.4404(4) 0.26379(12)
H26 H 0.4267 0.4973 0.2501
C41 C 0.3874(2) 0.4465(3) 0.31871(12)
H27 H 0.4286 0.5090 0.3412
C42 C 0.3206(3) 0.3479(4) 0.16876(13)
H28 H 0.3656 0.4136 0.1604
H29 H 0.2623 0.3807 0.1493
H30 H 0.3310 0.2467 0.1582
N1 N 0.42206(16) 0.2466(2) 0.75479(9)
N2 N 0.29684(14) 0.1405(2) 0.56678(9)
N3 N 0.33738(13) 0.3627(2) 0.50999(8)
N4 N 0.39105(14) 0.5786(2) 0.57792(9)
O1 O 0.59330(14) 0.1319(2) 0.62408(8)
O2 O 0.47678(12) 0.2804(2) 0.59639(7)
O3 O 0.37892(13) 0.3553(2) 0.67262(7)
O4 O 0.28775(13) 1.0829(2) 0.85202(9)
O5 O 0.28241(12) 0.9097(2) 0.91524(8)
Ni1A Ni 0.15114(2) 0.85928(4) 0.909469(14)
O5A O 0.21759(12) 0.4097(2) 0.58476(8)
loop_
_geom_bond_atom_site_label_1
_geom_bond_atom_site_label_2
_geom_bond_site_symmetry_1
_geom_bond_site_symmetry_2
Ni1 N2 1_555 1_555
C1 C2 1_555 1_555
C2 C3 1_555 1_555
C3 H1 1_555 1_555
C4 C3 1_555 1_555
H2 C4 1_555 1_555
C5 C4 1_555 1_555
H3 C5 1_555 1_555
C6 C2 1_555 1_555
C7 H4 1_555 1_555
H5 C7 1_555 1_555
C8 C7 1_555 1_555
C9 C8 1_555 1_555
H6 C9 1_555 1_555
C10 C9 1_555 1_555
H7 C10 1_555 1_555
C11 C10 1_555 1_555
C12 C11 1_555 1_555
H8 C12 1_555 1_555
C13 C8 1_555 1_555
H9 C13 1_555 1_555
C14 C11 1_555 1_555
C15 C14 1_555 1_555
H10 C15 1_555 1_555
C16 C15 1_555 1_555
H11 C16 1_555 1_555
C17 C16 1_555 1_555
H12 C17 1_555 1_555
C18 C17 1_555 1_555
H13 C18 1_555 1_555
C19 C14 1_555 1_555
C20 C19 1_555 1_555
C21 H14 1_555 1_555
C22 C21 1_555 1_555
H15 C22 1_555 1_555
C23 C22 1_555 1_555
H16 C23 1_555 1_555
C24 C23 1_555 1_555
H17 C24 1_555 1_555
C25 C24 1_555 1_555
C26 C25 1_555 1_555
C27 C26 1_555 1_555
H18 C27 1_555 1_555
C28 C27 1_555 1_555
C29 C28 1_555 1_555
H19 C29 1_555 1_555
C30 C29 1_555 1_555
C31 C30 1_555 1_555
C32 C31 1_555 1_555
H20 C32 1_555 1_555
C33 C32 1_555 1_555
H21 C33 1_555 1_555
C34 C33 1_555 1_555
H22 C34 1_555 1_555
C35 C34 1_555 1_555
H23 C35 1_555 1_555
C36 C28 1_555 1_555
C37 C36 1_555 1_555
H24 C37 1_555 1_555
C38 C37 1_555 1_555
H25 C38 1_555 1_555
C39 C38 1_555 1_555
C40 C39 1_555 1_555
H26 C40 1_555 1_555
C41 C36 1_555 1_555
H27 C41 1_555 1_555
C42 C39 1_555 1_555
H28 C42 1_555 1_555
H29 C42 1_555 1_555
H30 C42 1_555 1_555
N1 C5 1_555 1_555
N2 C21 1_555 1_555
N3 Ni1 1_555 1_555
N4 Ni1 1_555 1_555
O1 C1 1_555 1_555
O2 Ni1 1_555 1_555
O3 Ni1 1_555 1_555
O4 C20 1_555 1_555
O5 C20 1_555 1_555
Ni1A O5 1_555 1_555
O5A Ni1 1_555 1_555
C1 O2 1_555 1_555
C6 N1 1_555 1_555
C6 O3 1_555 1_555
C7 N1 1_555 1_555
C12 C13 1_555 1_555
C18 C19 1_555 1_555
C25 N2 1_555 1_555
C26 N3 1_555 1_555
C30 N3 1_555 1_555
C31 N4 1_555 1_555
C35 N4 1_555 1_555
C40 C41 1_555 1_555

#END
