
#######################################################################
#
#                 Cambridge Crystallographic Data Centre
#                                CCDC 
#
#######################################################################
#
# If this CIF has been generated from an entry in the Cambridge 
# Structural Database, then it will include bibliographic, chemical, 
# crystal, experimental, refinement or atomic coordinate data resulting 
# from the CCDC's data processing and validation procedures.
#
#######################################################################

data_NERHAV
_symmetry_cell_setting           triclinic
_symmetry_space_group_name_H-M   'P -1'
_symmetry_Int_Tables_number      2
_space_group_name_Hall           '-P 1'
loop_
_symmetry_equiv_pos_site_id
_symmetry_equiv_pos_as_xyz
1 x,y,z
2 -x,-y,-z
_cell_length_a                   9.512(2)
_cell_length_b                   13.388(3)
_cell_length_c                   15.758(3)
_cell_angle_alpha                102.147(2)
_cell_angle_beta                 102.865(3)
_cell_angle_gamma                99.672(3)
_cell_volume                     1863.32
loop_
_atom_site_label
_atom_site_type_symbol
_atom_site_fract_x
_atom_site_fract_y
_atom_site_fract_z
Cd1 Cd 0.20597(3) -0.08719(2) 0.050829(17)
Cd2 Cd -0.49140(3) -0.32952(2) -0.562060(17)
N1 N 0.4541(4) -0.0910(2) 0.1307(2)
N2 N 0.1871(3) -0.2290(2) 0.1082(2)
N3 N 0.2953(4) -0.3419(2) 0.1691(2)
H1 H 0.3639 -0.3684 0.1950
N4 N -0.7540(4) -0.3136(3) -0.6165(2)
N5 N -0.4930(4) -0.1679(3) -0.5885(2)
N6 N -0.6095(4) -0.0495(3) -0.6335(2)
H2 H -0.6804 -0.0209 -0.6529
O1 O 0.2552(3) -0.1788(2) -0.08068(18)
O2 O 0.0273(3) -0.1600(2) -0.09628(18)
O3 O -0.2747(4) -0.3921(3) -0.50878(19)
O4 O -0.2911(4) -0.2443(3) -0.4227(2)
O5 O 0.0032(3) -0.0454(2) 0.09814(18)
H3 H 0.0175 0.0209 0.1087
H4 H -0.0794 -0.0716 0.0588
O6 O 0.3004(3) 0.1011(2) 0.17627(19)
O7 O 0.2706(3) 0.07198(19) 0.02866(17)
O8 O 0.5160(3) 0.60313(19) 0.28813(17)
O9 O 0.4232(3) 0.4836(2) 0.34967(17)
O10 O -0.5951(3) -0.3935(2) -0.46190(18)
H5 H -0.6559 -0.4527 -0.4836
H6 H -0.5243 -0.4005 -0.4216
S1 S 0.72382(12) -0.08863(11) 0.19831(8)
S2 S -1.02807(16) -0.31144(15) -0.66384(12)
C1 C 0.0787(4) -0.3150(3) 0.1035(3)
C2 C -0.0747(5) -0.3362(4) 0.0657(3)
H9 H -0.1197 -0.2893 0.0398
C3 C -0.1545(5) -0.4298(4) 0.0691(3)
H10 H -0.2569 -0.4460 0.0461
C4 C -0.0866(6) -0.5022(4) 0.1063(3)
H11 H -0.1454 -0.5655 0.1056
C5 C 0.0632(5) -0.4826(4) 0.1436(3)
H12 H 0.1079 -0.5303 0.1686
C6 C 0.1440(5) -0.3867(3) 0.1416(3)
C7 C 0.3139(4) -0.2497(3) 0.1477(2)
C8 C 0.4567(4) -0.1796(3) 0.1620(2)
C9 C 0.5923(4) -0.1913(4) 0.2012(3)
H13 H 0.6112 -0.2466 0.2258
C10 C 0.5866(5) -0.0365(4) 0.1452(3)
H14 H 0.6062 0.0258 0.1284
C11 C 0.1248(4) -0.1943(3) -0.1273(2)
C12 C 0.0863(4) -0.2579(3) -0.2238(2)
C13 C 0.1836(5) -0.3119(3) -0.2534(3)
H15 H 0.2733 -0.3100 -0.2140
C14 C 0.1476(5) -0.3699(4) -0.3431(3)
H16 H 0.2139 -0.4062 -0.3635
C15 C 0.0161(5) -0.3734(3) -0.4007(3)
H17 H -0.0078 -0.4139 -0.4598
C16 C -0.0830(4) -0.3176(3) -0.3729(2)
C17 C -0.0478(4) -0.2609(3) -0.2826(2)
H18 H -0.1143 -0.2250 -0.2620
C18 C -0.2254(5) -0.3184(4) -0.4384(3)
C19 C 0.3124(4) 0.1322(3) 0.1084(3)
C20 C 0.3813(4) 0.2443(3) 0.1177(2)
C21 C 0.4371(4) 0.2725(3) 0.0506(3)
H19 H 0.4297 0.2212 -0.0012
C22 C 0.5041(5) 0.3756(3) 0.0581(3)
H20 H 0.5413 0.3931 0.0120
C23 C 0.5149(4) 0.4521(3) 0.1352(2)
H21 H 0.5595 0.5215 0.1411
C24 C 0.4587(4) 0.4251(3) 0.2042(2)
C25 C 0.3942(4) 0.3216(3) 0.1952(2)
H22 H 0.3590 0.3033 0.2417
C26 C 0.4665(4) 0.5088(3) 0.2861(2)
C27 C -0.3889(5) -0.0810(3) -0.5844(2)
C28 C -0.2335(5) -0.0640(4) -0.5607(3)
H23 H -0.1830 -0.1128 -0.5425
C29 C -0.1646(6) 0.0302(4) -0.5669(3)
H24 H -0.0617 0.0454 -0.5512
C30 C -0.2331(7) 0.1068(5) -0.5946(4)
H25 H -0.1753 0.1688 -0.5972
C31 C -0.3866(7) 0.0915(4) -0.6184(3)
H26 H -0.4363 0.1407 -0.6368
C32 C -0.4584(5) -0.0057(3) -0.6116(3)
C33 C -0.6228(5) -0.1460(3) -0.6181(2)
C34 C -0.7624(5) -0.2178(4) -0.6318(3)
C35 C -0.9013(5) -0.2027(4) -0.6587(3)
H27 H -0.9239 -0.1420 -0.6723
C36 C -0.8874(6) -0.3705(4) -0.6304(3)
H28 H -0.9041 -0.4380 -0.6227
Cd2_2 Cd 0.50860(3) 0.67048(2) 0.437940(17)
O8_2 O -0.4840(3) -0.39687(19) -0.71187(17)
O9_2 O -0.5768(3) -0.5164(2) -0.65033(17)
O11 O 0.1678(5) 0.0439(3) 0.3134(2)
H7 H 0.1990 0.1020 0.3532
H8 H 0.1998 0.0504 0.2681
loop_
_geom_bond_atom_site_label_1
_geom_bond_atom_site_label_2
_geom_bond_site_symmetry_1
_geom_bond_site_symmetry_2
Cd1 N1 1_555 1_555
Cd2 N4 1_555 1_555
N1 C8 1_555 1_555
N2 Cd1 1_555 1_555
N3 H1 1_555 1_555
N4 C34 1_555 1_555
N5 Cd2 1_555 1_555
N6 H2 1_555 1_555
O1 Cd1 1_555 1_555
O2 Cd1 1_555 1_555
O3 Cd2 1_555 1_555
O4 Cd2 1_555 1_555
O5 Cd1 1_555 1_555
H3 O5 1_555 1_555
H4 O5 1_555 1_555
O6 Cd1 1_555 1_555
O7 Cd1 1_555 1_555
O8 C26 1_555 1_555
O9 C26 1_555 1_555
O10 Cd2 1_555 1_555
H5 O10 1_555 1_555
H6 O10 1_555 1_555
O11 H7 1_555 1_555
H8 O11 1_555 1_555
S1 C9 1_555 1_555
S2 C35 1_555 1_555
C1 N2 1_555 1_555
C2 C1 1_555 1_555
H9 C2 1_555 1_555
C3 C2 1_555 1_555
H10 C3 1_555 1_555
C4 C3 1_555 1_555
H11 C4 1_555 1_555
C5 C4 1_555 1_555
H12 C5 1_555 1_555
C6 N3 1_555 1_555
C7 N2 1_555 1_555
C8 C7 1_555 1_555
C9 C8 1_555 1_555
H13 C9 1_555 1_555
C10 N1 1_555 1_555
H14 C10 1_555 1_555
C11 O1 1_555 1_555
C12 C11 1_555 1_555
C13 C12 1_555 1_555
H15 C13 1_555 1_555
C14 C13 1_555 1_555
H16 C14 1_555 1_555
C15 C14 1_555 1_555
H17 C15 1_555 1_555
C16 C15 1_555 1_555
C17 C12 1_555 1_555
H18 C17 1_555 1_555
C18 O3 1_555 1_555
C19 O6 1_555 1_555
C20 C19 1_555 1_555
C21 C20 1_555 1_555
H19 C21 1_555 1_555
C22 C21 1_555 1_555
H20 C22 1_555 1_555
C23 C22 1_555 1_555
H21 C23 1_555 1_555
C24 C23 1_555 1_555
C25 C20 1_555 1_555
H22 C25 1_555 1_555
C26 C24 1_555 1_555
C27 N5 1_555 1_555
C28 C27 1_555 1_555
H23 C28 1_555 1_555
C29 C28 1_555 1_555
H24 C29 1_555 1_555
C30 C29 1_555 1_555
H25 C30 1_555 1_555
C31 C30 1_555 1_555
H26 C31 1_555 1_555
C32 N6 1_555 1_555
C33 N5 1_555 1_555
C34 C33 1_555 1_555
C35 C34 1_555 1_555
H27 C35 1_555 1_555
C36 N4 1_555 1_555
H28 C36 1_555 1_555
Cd2_2 O8 1_555 1_555
O8_2 Cd2 1_555 1_555
O9_2 Cd2 1_555 1_555
N3 C7 1_555 1_555
N6 C33 1_555 1_555
O2 C11 1_555 1_555
O4 C18 1_555 1_555
O7 C19 1_555 1_555
O9 Cd2_2 1_555 1_555
S1 C10 1_555 1_555
S2 C36 1_555 1_555
C1 C6 1_555 1_555
C5 C6 1_555 1_555
C16 C17 1_555 1_555
C16 C18 1_555 1_555
C24 C25 1_555 1_555
C27 C32 1_555 1_555
C31 C32 1_555 1_555

#END
