
#######################################################################
#
#                 Cambridge Crystallographic Data Centre
#                                CCDC 
#
#######################################################################
#
# If this CIF has been generated from an entry in the Cambridge 
# Structural Database, then it will include bibliographic, chemical, 
# crystal, experimental, refinement or atomic coordinate data resulting 
# from the CCDC's data processing and validation procedures.
#
#######################################################################

data_NERREJ
_symmetry_cell_setting           orthorhombic
_symmetry_space_group_name_H-M   'P 21 21 21'
_symmetry_Int_Tables_number      19
_space_group_name_Hall           'P 2ac 2ab'
loop_
_symmetry_equiv_pos_site_id
_symmetry_equiv_pos_as_xyz
1 x,y,z
2 1/2-x,-y,1/2+z
3 1/2+x,1/2-y,-z
4 -x,1/2+y,1/2-z
_cell_length_a                   4.7487(2)
_cell_length_b                   8.1452(4)
_cell_length_c                   12.2426(6)
_cell_angle_alpha                90
_cell_angle_beta                 90
_cell_angle_gamma                90
_cell_volume                     473.533
loop_
_atom_site_label
_atom_site_type_symbol
_atom_site_fract_x
_atom_site_fract_y
_atom_site_fract_z
O1 O -0.1285(3) 0.47206(19) 0.08529(11)
O2 O 0.2509(3) 0.4801(2) 0.18417(11)
O3 O -0.0890(3) -0.14180(18) 0.05260(13)
N1 N -0.0917(4) 0.1395(2) 0.07099(14)
N2 N 0.0112(4) -0.0075(2) 0.09276(13)
N3 N 0.2333(4) -0.0086(3) 0.16052(13)
N4 N 0.2794(4) 0.1481(2) 0.18557(13)
N5 N 0.0655(3) 0.4063(2) 0.13315(14)
C1 C 0.0840(4) 0.2307(2) 0.13083(15)
Na1 Na -0.48704(17) 0.72918(10) 0.12907(6)
O2_2 O -0.7491(3) 0.4801(2) 0.18417(11)
O3B O -0.5890(3) 0.64180(18) -0.05260(13)
O3_2 O -0.0890(3) 0.85820(18) 0.05260(13)
N3_2 N -0.7667(4) 0.9914(3) 0.16052(13)
N4C N -0.2794(4) 0.6481(2) 0.31443(13)
Na1_2 Na 0.51296(17) 0.72918(10) 0.12907(6)
Na1B Na 0.01296(17) -0.22918(10) -0.12907(6)
Na1_3 Na -0.48704(17) -0.27082(10) 0.12907(6)
Na1_4 Na 0.51296(17) -0.27082(10) 0.12907(6)
Na1C Na 0.48704(17) 0.22918(10) 0.37093(6)
loop_
_geom_bond_atom_site_label_1
_geom_bond_atom_site_label_2
_geom_bond_site_symmetry_1
_geom_bond_site_symmetry_2
O1 N5 1_555 1_555
O2 N5 1_555 1_555
O3 N2 1_555 1_555
N1 N2 1_555 1_555
N2 N3 1_555 1_555
N3 N4 1_555 1_555
N4 C1 1_555 1_555
N5 C1 1_555 1_555
C1 N1 1_555 1_555
Na1 O1 1_555 1_555
O2_2 Na1 1_555 1_555
O3B Na1 1_555 1_555
O3_2 Na1 1_555 1_555
N3_2 Na1 1_555 1_555
N4C Na1 1_555 1_555
Na1_2 O2 1_555 1_555
Na1B O3 1_555 1_555
Na1_3 O3 1_555 1_555
Na1_4 N3 1_555 1_555
Na1C N4 1_555 1_555

#END
