
#######################################################################
#
#                 Cambridge Crystallographic Data Centre
#                                CCDC 
#
#######################################################################
#
# If this CIF has been generated from an entry in the Cambridge 
# Structural Database, then it will include bibliographic, chemical, 
# crystal, experimental, refinement or atomic coordinate data resulting 
# from the CCDC's data processing and validation procedures.
#
#######################################################################

data_NERVOX
_symmetry_cell_setting           monoclinic
_symmetry_space_group_name_H-M   'P 21/n'
_symmetry_Int_Tables_number      14
_space_group_name_Hall           '-P 2yn'
loop_
_symmetry_equiv_pos_site_id
_symmetry_equiv_pos_as_xyz
1 x,y,z
2 1/2-x,1/2+y,1/2-z
3 -x,-y,-z
4 1/2+x,1/2-y,1/2+z
_cell_length_a                   9.7729(10)
_cell_length_b                   9.0060(9)
_cell_length_c                   26.032(3)
_cell_angle_alpha                90
_cell_angle_beta                 91.175(2)
_cell_angle_gamma                90
_cell_volume                     2290.72
loop_
_atom_site_label
_atom_site_type_symbol
_atom_site_fract_x
_atom_site_fract_y
_atom_site_fract_z
Sm1 Sm 0.48923(3) 0.44396(4) 0.218643(11)
C1 C 0.7163(6) 0.7175(7) 0.2457(2)
C2 C 0.6174(6) 0.7888(7) 0.2085(2)
C3 C 0.5321(6) 0.9420(8) 0.1505(2)
C4 C 0.5067(7) 1.0530(9) 0.1147(3)
H1 H 0.5611 1.1376 0.1130
C5 C 0.3975(8) 1.0315(9) 0.0819(3)
H2 H 0.3783 1.1020 0.0567
C6 C 0.3143(8) 0.9068(9) 0.0854(3)
H3 H 0.2388 0.8986 0.0633
C7 C 0.3395(7) 0.7955(8) 0.1203(3)
H4 H 0.2834 0.7124 0.1219
C8 C 0.4532(6) 0.8122(7) 0.1533(2)
C9 C 0.2343(6) 0.6377(8) 0.2633(2)
C10 C 0.3309(6) 0.6177(7) 0.3088(2)
C11 C 0.4329(7) 0.6496(8) 0.3823(2)
C12 C 0.4913(7) 0.5306(8) 0.3575(2)
C13 C 0.5940(7) 0.4470(9) 0.3810(3)
H5 H 0.6307 0.3641 0.3651
C14 C 0.6394(8) 0.4922(11) 0.4292(3)
H6 H 0.7105 0.4410 0.4455
C15 C 0.5798(10) 0.6141(11) 0.4537(3)
H7 H 0.6103 0.6402 0.4866
C16 C 0.4777(9) 0.6956(11) 0.4304(3)
H8 H 0.4402 0.7782 0.4463
C17 C 0.4258(6) 0.4366(8) 0.0927(2)
C18 C 0.5753(6) 0.4687(7) 0.0959(2)
C19 C 0.7781(6) 0.4998(7) 0.1281(2)
C20 C 0.8961(6) 0.5127(8) 0.1595(3)
H9 H 0.8941 0.4942 0.1946
C21 C 1.0142(7) 0.5540(9) 0.1359(3)
H10 H 1.0943 0.5622 0.1556
C22 C 1.0184(7) 0.5840(9) 0.0836(3)
H11 H 1.1013 0.6119 0.0696
C23 C 0.9045(7) 0.5738(9) 0.0520(3)
H12 H 0.9074 0.5951 0.0171
C24 C 0.7841(6) 0.5295(8) 0.0755(2)
N1 N 0.5095(5) 0.7171(6) 0.19038(19)
N2 N 0.6354(5) 0.9231(6) 0.18733(19)
H13 H 0.6990 0.9856 0.1951
N3 N 0.3313(5) 0.7044(6) 0.35087(19)
H14 H 0.2786 0.7787 0.3567
N4 N 0.4260(5) 0.5143(6) 0.30940(19)
N5 N 0.6453(5) 0.4615(6) 0.14026(18)
N6 N 0.6535(5) 0.5091(6) 0.05624(19)
H15 H 0.6267 0.5201 0.0248
O1 O 0.6779(4) 0.5915(5) 0.25986(15)
O2 O 0.8238(4) 0.7812(5) 0.25933(16)
O3 O 0.2617(4) 0.5572(6) 0.22579(15)
O4 O 0.1376(4) 0.7266(5) 0.26690(15)
O5 O 0.3738(4) 0.4157(5) 0.13662(15)
O6 O 0.3673(4) 0.4334(6) 0.05004(16)
Sm1A Sm 0.01077(3) 0.94396(4) 0.281357(11)
Sm1A_2 Sm 1.01077(3) 0.94396(4) 0.281357(11)
O2A O 0.6762(4) 0.2812(5) 0.24067(16)
O4A O 0.3624(4) 0.2266(5) 0.23310(15)
loop_
_geom_bond_atom_site_label_1
_geom_bond_atom_site_label_2
_geom_bond_site_symmetry_1
_geom_bond_site_symmetry_2
Sm1 N1 1_555 1_555
C1 C2 1_555 1_555
C2 N1 1_555 1_555
C3 C4 1_555 1_555
C4 H1 1_555 1_555
C5 C4 1_555 1_555
H2 C5 1_555 1_555
C6 C5 1_555 1_555
H3 C6 1_555 1_555
C7 C6 1_555 1_555
H4 C7 1_555 1_555
C8 C3 1_555 1_555
C9 C10 1_555 1_555
C10 N3 1_555 1_555
C11 C12 1_555 1_555
C12 C13 1_555 1_555
C13 H5 1_555 1_555
C14 C13 1_555 1_555
H6 C14 1_555 1_555
C15 C14 1_555 1_555
H7 C15 1_555 1_555
C16 C11 1_555 1_555
H8 C16 1_555 1_555
C17 C18 1_555 1_555
C18 N5 1_555 1_555
C19 C20 1_555 1_555
C20 H9 1_555 1_555
C21 C20 1_555 1_555
H10 C21 1_555 1_555
C22 C21 1_555 1_555
H11 C22 1_555 1_555
C23 C22 1_555 1_555
H12 C23 1_555 1_555
C24 C19 1_555 1_555
N1 C8 1_555 1_555
N2 C2 1_555 1_555
H13 N2 1_555 1_555
N3 C11 1_555 1_555
H14 N3 1_555 1_555
N4 Sm1 1_555 1_555
N5 Sm1 1_555 1_555
N6 C18 1_555 1_555
H15 N6 1_555 1_555
O1 Sm1 1_555 1_555
O2 C1 1_555 1_555
O3 Sm1 1_555 1_555
O4 C9 1_555 1_555
O5 Sm1 1_555 1_555
O6 C17 1_555 1_555
Sm1A O4 1_555 1_555
Sm1A_2 O2 1_555 1_555
O2A Sm1 1_555 1_555
O4A Sm1 1_555 1_555
C1 O1 1_555 1_555
C3 N2 1_555 1_555
C7 C8 1_555 1_555
C9 O3 1_555 1_555
C10 N4 1_555 1_555
C12 N4 1_555 1_555
C15 C16 1_555 1_555
C17 O5 1_555 1_555
C19 N5 1_555 1_555
C23 C24 1_555 1_555
C24 N6 1_555 1_555

#END
