
#######################################################################
#
#                 Cambridge Crystallographic Data Centre
#                                CCDC 
#
#######################################################################
#
# If this CIF has been generated from an entry in the Cambridge 
# Structural Database, then it will include bibliographic, chemical, 
# crystal, experimental, refinement or atomic coordinate data resulting 
# from the CCDC's data processing and validation procedures.
#
#######################################################################

data_NERZIT
_symmetry_cell_setting           monoclinic
_symmetry_space_group_name_H-M   'P 21/n'
_symmetry_Int_Tables_number      14
_space_group_name_Hall           '-P 2yn'
loop_
_symmetry_equiv_pos_site_id
_symmetry_equiv_pos_as_xyz
1 x,y,z
2 1/2-x,1/2+y,1/2-z
3 -x,-y,-z
4 1/2+x,1/2-y,1/2+z
_cell_length_a                   8.527(1)
_cell_length_b                   16.409(3)
_cell_length_c                   16.746(3)
_cell_angle_alpha                90
_cell_angle_beta                 97.11(3)
_cell_angle_gamma                90
_cell_volume                     2325.08
loop_
_atom_site_label
_atom_site_type_symbol
_atom_site_fract_x
_atom_site_fract_y
_atom_site_fract_z
O1 O 0.3276(4) 0.1435(2) 0.3329(2)
O2 O 0.0560(5) 0.2680(2) 0.3622(3)
O3 O 0.0168(5) 0.1447(2) 0.2138(2)
C1 C 0.2366(7) 0.2812(3) 0.2311(3)
C2 C 0.3043(7) 0.3496(3) 0.1908(3)
C3 C 0.4373(7) 0.3917(4) 0.2288(4)
H1 H 0.4901(7) 0.3707(4) 0.2785(4)
C4 C 0.4919(7) 0.4616(3) 0.1971(4)
H2 H 0.5846(7) 0.4880(3) 0.2236(4)
C5 C 0.4153(6) 0.4930(3) 0.1259(3)
C6 C 0.2908(7) 0.4505(3) 0.0844(4)
H3 H 0.2409(7) 0.4705(3) 0.0336(4)
C7 C 0.2376(7) 0.3797(3) 0.1165(3)
H4 H 0.1523(7) 0.3499(3) 0.0871(3)
C8 C 0.3573(8) 0.6135(4) 0.0067(4)
H5 H 0.3879(8) 0.6651(4) -0.0135(4)
H6 H 0.3651(8) 0.5721(4) -0.0330(4)
H7 H 0.2502(8) 0.6167(4) 0.0187(4)
C9 C 0.4989(7) 0.1395(4) 0.3350(4)
C10 C 0.5440(9) 0.1522(6) 0.2516(5)
H8 H 0.5153(9) 0.2060(6) 0.2326(5)
H9 H 0.6562(9) 0.1451(6) 0.2534(5)
H10 H 0.4904(9) 0.1126(6) 0.2159(5)
C11 C 0.5702(10) 0.2035(4) 0.3921(6)
H11 H 0.5402(10) 0.2566(4) 0.3713(6)
H12 H 0.5332(10) 0.1964(4) 0.4435(6)
H13 H 0.6832(10) 0.1986(4) 0.3980(6)
C12 C 0.5440(8) 0.0554(4) 0.3661(6)
H14 H 0.5138(8) 0.0487(4) 0.4191(6)
H15 H 0.4904(8) 0.0156(4) 0.3306(6)
H16 H 0.6562(8) 0.0481(4) 0.3681(6)
C13 C 0.0126(8) 0.3516(3) 0.3743(4)
C14 C -0.0573(10) 0.3523(4) 0.4544(5)
H17 H -0.1509(10) 0.3192(4) 0.4500(5)
H18 H 0.0199(10) 0.3304(4) 0.4954(5)
H19 H -0.0831(10) 0.4070(4) 0.4683(5)
C15 C -0.1071(10) 0.3763(5) 0.3064(6)
H20 H -0.0573(10) 0.3753(5) 0.2580(6)
H21 H -0.1945(10) 0.3390(5) 0.3014(6)
H22 H -0.1448(10) 0.4304(5) 0.3149(6)
C16 C 0.1595(9) 0.4043(4) 0.3805(5)
H23 H 0.2002(9) 0.4039(4) 0.3296(5)
H24 H 0.1345(9) 0.4592(4) 0.3942(5)
H25 H 0.2375(9) 0.3826(4) 0.4212(5)
C17 C -0.0271(7) 0.1431(3) 0.1272(3)
C18 C -0.1257(10) 0.0656(4) 0.1116(4)
H26 H -0.0602(10) 0.0193(4) 0.1272(4)
H27 H -0.2133(10) 0.0667(4) 0.1425(4)
H28 H -0.1644(10) 0.0618(4) 0.0554(4)
C19 C -0.1271(8) 0.2178(4) 0.1036(4)
H29 H -0.2195(8) 0.2180(4) 0.1310(4)
H30 H -0.0650(8) 0.2655(4) 0.1184(4)
H31 H -0.1583(8) 0.2177(4) 0.0465(4)
C20 C 0.1179(9) 0.1399(4) 0.0849(4)
H32 H 0.1768(9) 0.0915(4) 0.1009(4)
H33 H 0.0885(9) 0.1393(4) 0.0277(4)
H34 H 0.1818(9) 0.1870(4) 0.0995(4)
S1 S 0.0138(2) 0.08848(8) 0.40356(9)
W1 W 0.15490(2) 0.206019(12) 0.288185(12)
S1A S 0.4862(2) 0.58848(8) 0.09644(9)
W1A W 0.34510(2) 0.706019(12) 0.211815(12)
loop_
_geom_bond_atom_site_label_1
_geom_bond_atom_site_label_2
_geom_bond_site_symmetry_1
_geom_bond_site_symmetry_2
O1 C9 1_555 1_555
O2 C13 1_555 1_555
O3 C17 1_555 1_555
C1 C2 1_555 1_555
C2 C3 1_555 1_555
C3 H1 1_555 1_555
C4 C3 1_555 1_555
H2 C4 1_555 1_555
C5 C4 1_555 1_555
C6 C5 1_555 1_555
H3 C6 1_555 1_555
C7 C2 1_555 1_555
H4 C7 1_555 1_555
C8 H5 1_555 1_555
H6 C8 1_555 1_555
H7 C8 1_555 1_555
C9 C10 1_555 1_555
C10 H8 1_555 1_555
H9 C10 1_555 1_555
H10 C10 1_555 1_555
C11 C9 1_555 1_555
H11 C11 1_555 1_555
H12 C11 1_555 1_555
H13 C11 1_555 1_555
C12 C9 1_555 1_555
H14 C12 1_555 1_555
H15 C12 1_555 1_555
H16 C12 1_555 1_555
C13 C14 1_555 1_555
C14 H17 1_555 1_555
H18 C14 1_555 1_555
H19 C14 1_555 1_555
C15 C13 1_555 1_555
H20 C15 1_555 1_555
H21 C15 1_555 1_555
H22 C15 1_555 1_555
C16 C13 1_555 1_555
H23 C16 1_555 1_555
H24 C16 1_555 1_555
H25 C16 1_555 1_555
C17 C18 1_555 1_555
C18 H26 1_555 1_555
H27 C18 1_555 1_555
H28 C18 1_555 1_555
C19 C17 1_555 1_555
H29 C19 1_555 1_555
H30 C19 1_555 1_555
H31 C19 1_555 1_555
C20 C17 1_555 1_555
H32 C20 1_555 1_555
H33 C20 1_555 1_555
H34 C20 1_555 1_555
S1 W1 1_555 1_555
W1 O1 1_555 1_555
S1A C5 1_555 1_555
W1A S1A 1_555 1_555
O2 W1 1_555 1_555
O3 W1 1_555 1_555
C1 W1 1_555 1_555
C6 C7 1_555 1_555
C8 S1A 1_555 1_555

#END
