
#######################################################################
#
#                 Cambridge Crystallographic Data Centre
#                                CCDC 
#
#######################################################################
#
# If this CIF has been generated from an entry in the Cambridge 
# Structural Database, then it will include bibliographic, chemical, 
# crystal, experimental, refinement or atomic coordinate data resulting 
# from the CCDC's data processing and validation procedures.
#
#######################################################################

data_NESDIY
_symmetry_cell_setting           triclinic
_symmetry_space_group_name_H-M   'P -1'
_symmetry_Int_Tables_number      2
_space_group_name_Hall           '-P 1'
loop_
_symmetry_equiv_pos_site_id
_symmetry_equiv_pos_as_xyz
1 x,y,z
2 -x,-y,-z
_cell_length_a                   9.526(2)
_cell_length_b                   18.629(5)
_cell_length_c                   7.7966(8)
_cell_angle_alpha                90.42(2)
_cell_angle_beta                 101.84(1)
_cell_angle_gamma                100.90(2)
_cell_volume                     1328.18
loop_
_atom_site_label
_atom_site_type_symbol
_atom_site_fract_x
_atom_site_fract_y
_atom_site_fract_z
Ag1 Ag -0.49843(4) -0.48238(2) -0.25955(4)
Ag2 Ag -0.13029(4) -0.15155(2) 0.01187(5)
O1 O -0.3077(3) -0.2346(2) -0.2225(4)
O2 O -0.4383(3) -0.3031(2) -0.0218(3)
O3 O -0.4875(3) -0.3442(2) -0.3281(4)
O4 O -1.1192(4) -0.9141(2) -0.0847(6)
O5 O -1.2354(5) -1.0045(3) 0.0878(5)
O6 O -0.8479(4) -0.9572(2) 0.1599(5)
C1 C -0.7635(3) -0.6170(2) -0.4782(4)
C2 C -0.9004(4) -0.7513(2) -0.4946(5)
C3 C -0.9607(5) -0.9038(2) -0.4896(6)
C4 C -0.7979(5) -0.8907(2) -0.4370(5)
C5 C -0.7806(4) -0.7478(2) -0.3671(5)
C6 C -0.1922(4) -0.4708(2) 0.0529(4)
C7 C -0.0105(4) -0.3473(2) 0.0814(5)
C8 C 0.2195(4) -0.2298(2) 0.1905(6)
C9 C 0.3043(4) -0.2900(2) 0.2324(6)
C10 C 0.0530(4) -0.3875(2) 0.2053(4)
C11 C -1.3738(6) -0.9808(3) -0.2231(8)
C12 C -0.5817(5) -0.2299(2) -0.2464(5)
S1 S -0.71326(10) -0.52746(4) -0.5144(1)
S2 S -0.92235(10) -0.66958(5) -0.5928(1)
S3 S -1.0338(1) -0.82691(6) -0.5856(2)
S4 S -0.7218(1) -0.82239(5) -0.2571(1)
S5 S -0.66541(10) -0.66182(5) -0.3243(1)
S6 S -0.33922(10) -0.53835(5) -0.0066(1)
S7 S -0.17618(10) -0.39035(5) -0.0490(1)
S8 S -1.0515(1) -0.74308(5) -0.0275(1)
S9 S 0.2200(1) -0.36163(6) 0.3545(1)
S10 S -0.04459(10) -0.47640(5) 0.2165(1)
S11 S -1.2012(1) -0.98590(5) -0.0776(1)
S12 S -0.43816(9) -0.28381(5) -0.2001(1)
F1 F -0.5882(4) -0.2000(2) -0.3994(4)
F2 F -0.5590(4) -0.1770(2) -0.1238(4)
F3 F -0.7107(3) -0.2723(2) -0.2477(4)
F4 F -1.3497(5) -0.9592(3) -0.3774(5)
F5 F -1.4390(4) -0.9325(2) -0.1630(6)
F6 F -1.4647(4) -1.0431(2) -0.2480(7)
H1 H -0.9939 -0.9446 -0.5740
H2 H -1.0009 -0.9164 -0.3889
H3 H -0.7693 -0.9359 -0.4031
H4 H -0.7586 -0.8748 -0.5368
H5 H 0.1962 -0.2135 0.2953
H6 H 0.2794 -0.1894 0.1475
H7 H 0.3146 -0.3109 0.1240
H8 H 0.3998 -0.2690 0.2984
Ag1A Ag -0.50157(4) -0.51762(2) -0.74045(4)
S1A S -0.28674(10) -0.47254(4) -0.4856(1)
Ag1A_2 Ag -0.50157(4) -0.51762(2) 0.25955(4)
S6A S -0.66078(10) -0.46165(5) 0.0066(1)
Ag2A Ag -0.86971(4) -0.84845(2) -0.01187(5)
O1A O -0.6923(3) -0.7654(2) 0.2225(4)
Ag2_2 Ag -1.13029(4) -1.15155(2) 0.01187(5)
O6A O -1.1521(4) -1.0428(2) -0.1599(5)
S8A S 0.0515(1) -0.25692(5) 0.0275(1)
loop_
_geom_bond_atom_site_label_1
_geom_bond_atom_site_label_2
_geom_bond_site_symmetry_1
_geom_bond_site_symmetry_2
Ag1 O3 1_555 1_555
Ag2 O1 1_555 1_555
O1 S12 1_555 1_555
O2 S12 1_555 1_555
O3 S12 1_555 1_555
O4 S11 1_555 1_555
O5 S11 1_555 1_555
O6 Ag2A 1_555 1_555
C1 S1 1_555 1_555
C2 C5 1_555 1_555
C3 C4 1_555 1_555
C4 S4 1_555 1_555
C5 S4 1_555 1_555
C6 S6 1_555 1_555
C7 C10 1_555 1_555
C8 C9 1_555 1_555
C9 S9 1_555 1_555
C10 S9 1_555 1_555
C11 S11 1_555 1_555
C12 S12 1_555 1_555
S1 Ag1 1_555 1_555
S2 C1 1_555 1_555
S3 C2 1_555 1_555
S4 Ag2A 1_555 1_555
S5 C1 1_555 1_555
S6 Ag1 1_555 1_555
S7 C6 1_555 1_555
S8 Ag2A 1_555 1_555
S10 C6 1_555 1_555
S11 O6A 1_555 1_555
F1 C12 1_555 1_555
F2 C12 1_555 1_555
F3 C12 1_555 1_555
F4 C11 1_555 1_555
F5 C11 1_555 1_555
F6 C11 1_555 1_555
H1 C3 1_555 1_555
H2 C3 1_555 1_555
H3 C4 1_555 1_555
H4 C4 1_555 1_555
H5 C8 1_555 1_555
H6 C8 1_555 1_555
H7 C9 1_555 1_555
H8 C9 1_555 1_555
Ag1A S1 1_555 1_555
S1A Ag1 1_555 1_555
Ag1A_2 S6 1_555 1_555
S6A Ag1 1_555 1_555
Ag2A O4 1_555 1_555
O1A Ag2A 1_555 1_555
Ag2_2 O6A 1_555 1_555
S8A Ag2 1_555 1_555
C2 S2 1_555 1_555
C3 S3 1_555 1_555
C5 S5 1_555 1_555
C7 S7 1_555 1_555
C7 S8A 1_555 1_555
C8 S8A 1_555 1_555
C10 S10 1_555 1_555
Ag1A S1A 1_555 1_555
Ag1A_2 S6A 1_555 1_555

#END
