
#######################################################################
#
#                 Cambridge Crystallographic Data Centre
#                                CCDC 
#
#######################################################################
#
# If this CIF has been generated from an entry in the Cambridge 
# Structural Database, then it will include bibliographic, chemical, 
# crystal, experimental, refinement or atomic coordinate data resulting 
# from the CCDC's data processing and validation procedures.
#
#######################################################################

data_NESGID
_symmetry_cell_setting           monoclinic
_symmetry_space_group_name_H-M   'P 21/c'
_symmetry_Int_Tables_number      14
_space_group_name_Hall           '-P 2ybc'
loop_
_symmetry_equiv_pos_site_id
_symmetry_equiv_pos_as_xyz
1 x,y,z
2 -x,1/2+y,1/2-z
3 -x,-y,-z
4 x,1/2-y,1/2+z
_cell_length_a                   8.0261(10)
_cell_length_b                   8.7696(11)
_cell_length_c                   15.719(2)
_cell_angle_alpha                90
_cell_angle_beta                 99.000(2)
_cell_angle_gamma                90
_cell_volume                     1092.77
loop_
_atom_site_label
_atom_site_type_symbol
_atom_site_fract_x
_atom_site_fract_y
_atom_site_fract_z
Zn1 Zn 0.28377(7) 0.82266(6) 1.18138(3)
N1 N 0.2841(5) 0.7048(4) 1.0689(2)
C1 C 0.2041(8) 0.3256(5) 0.9659(3)
H1 H 0.2145 0.2758 0.9147
C2 C 0.3362(7) 0.7787(5) 1.0056(3)
H2 H 0.3652 0.8808 1.0145
C3 C 0.1310(7) 0.3226(6) 1.1086(4)
H3 H 0.0912 0.2688 1.1523
C4 C 0.3515(7) 0.7153(6) 0.9255(3)
C5 C 0.2502(6) 0.4813(5) 0.9769(3)
C6 C 0.1753(7) 0.4709(6) 1.1207(3)
H4 H 0.1645 0.5185 1.1724
C7 C 0.2373(6) 0.5532(5) 1.0561(3)
C8 C 0.3102(7) 0.5652(5) 0.9117(3)
H5 H 0.3216 0.5190 0.8597
C9 C 0.1448(7) 0.2492(6) 1.0301(3)
H6 H 0.1130 0.1476 1.0223
C10 C 0.4233(7) 0.8146(5) 0.8650(3)
N2 N 0.5137(6) 0.9342(5) 0.8921(2)
N3 N 0.4124(6) 0.7987(4) 0.7794(2)
N4 N 0.5015(6) 0.9145(5) 0.7533(2)
N5 N 0.5612(6) 0.9934(5) 0.8219(2)
Cl1 Cl 0.0277(3) 0.9197(2) 1.19326(12)
Zn1C Zn 0.28377(7) 0.67734(6) 0.68138(3)
Zn1B Zn 0.71623(7) 1.17734(6) 0.81862(3)
N3C N 0.4124(6) 0.7013(4) 1.2794(2)
N5B N 0.4388(6) 1.0066(5) 1.1781(2)
loop_
_geom_bond_atom_site_label_1
_geom_bond_atom_site_label_2
_geom_bond_site_symmetry_1
_geom_bond_site_symmetry_2
Zn1 N1 1_555 1_555
N1 C2 1_555 1_555
C1 H1 1_555 1_555
C2 H2 1_555 1_555
C3 H3 1_555 1_555
C4 C2 1_555 1_555
C5 C1 1_555 1_555
C6 C3 1_555 1_555
H4 C6 1_555 1_555
C7 N1 1_555 1_555
C8 C4 1_555 1_555
H5 C8 1_555 1_555
C9 C1 1_555 1_555
H6 C9 1_555 1_555
C10 C4 1_555 1_555
N2 C10 1_555 1_555
N3 C10 1_555 1_555
N4 N3 1_555 1_555
N5 N2 1_555 1_555
Cl1 Zn1 1_555 1_555
Zn1C N3 1_555 1_555
Zn1B N5 1_555 1_555
N3C Zn1 1_555 1_555
N5B Zn1 1_555 1_555
C3 C9 1_555 1_555
C5 C7 1_555 1_555
C5 C8 1_555 1_555
C6 C7 1_555 1_555
N4 N5 1_555 1_555

#END
