
#######################################################################
#
#                 Cambridge Crystallographic Data Centre
#                                CCDC 
#
#######################################################################
#
# If this CIF has been generated from an entry in the Cambridge 
# Structural Database, then it will include bibliographic, chemical, 
# crystal, experimental, refinement or atomic coordinate data resulting 
# from the CCDC's data processing and validation procedures.
#
#######################################################################

data_NESHEA
_symmetry_cell_setting           monoclinic
_symmetry_space_group_name_H-M   'P 21/n'
_symmetry_Int_Tables_number      14
_space_group_name_Hall           '-P 2yn'
loop_
_symmetry_equiv_pos_site_id
_symmetry_equiv_pos_as_xyz
1 x,y,z
2 1/2-x,1/2+y,1/2-z
3 -x,-y,-z
4 1/2+x,1/2-y,1/2+z
_cell_length_a                   14.043(3)
_cell_length_b                   18.608(5)
_cell_length_c                   24.308(6)
_cell_angle_alpha                90
_cell_angle_beta                 100.143(17)
_cell_angle_gamma                90
_cell_volume                     6252.7
loop_
_atom_site_label
_atom_site_type_symbol
_atom_site_fract_x
_atom_site_fract_y
_atom_site_fract_z
N1 N 0.4914(5) 0.4951(4) 0.0729(3)
N2 N 0.3745(5) 0.5251(3) -0.0065(3)
C1 C 0.4635(5) 0.5051(3) 0.0184(3)
C2 C 0.4254(8) 0.5071(5) 0.1054(4)
C3 C 0.3316(7) 0.5273(5) 0.0842(4)
C4 C 0.3097(6) 0.5348(4) 0.0272(4)
H1 H 0.4448 0.5006 0.1472
H2 H 0.2823 0.5357 0.1091
H3 H 0.2414 0.5489 0.0100
N1B N 0.5086(5) 0.5049(4) -0.0729(3)
N2B N 0.6255(5) 0.4749(3) 0.0065(3)
C1B C 0.5365(5) 0.4949(3) -0.0184(3)
C2B C 0.5746(8) 0.4929(5) -0.1054(4)
C3B C 0.6684(7) 0.4727(5) -0.0842(4)
C4B C 0.6903(6) 0.4652(4) -0.0272(4)
H1B H 0.5552 0.4994 -0.1472
H2B H 0.7177 0.4643 -0.1091
H3B H 0.7586 0.4511 -0.0100
Ba1 Ba 0.64929(2) 0.300110(17) 0.166237(12)
Ba2 Ba 0.37595(2) 0.254820(17) 0.407010(12)
N3 N 0.8856(3) 0.2789(2) 0.02569(17)
N4 N 0.6384(3) 0.2983(3) 0.04395(17)
N5 N 0.5353(6) 0.4387(4) 0.5628(3)
N6 N 0.7072(3) 0.2814(3) -0.03787(17)
N7 N 0.5685(4) 0.2139(2) 0.2483(2)
N8 N 0.4516(4) 0.2021(3) 0.30676(19)
N9 N 0.5061(4) 0.3696(3) 0.4788(3)
N10 N 0.4709(4) 0.3450(3) 0.3323(2)
N11 N 0.5625(4) 0.3585(2) 0.2601(2)
N12 N 0.3149(5) 0.3846(3) 0.4746(3)
N13 N 0.8172(3) 0.2935(3) 0.10698(17)
N14 N 0.3458(8) 0.4174(5) 0.5711(4)
O1 O 0.6595(4) 0.4411(3) 0.1407(2)
O2 O 0.7843(3) 0.2096(2) 0.21990(19)
O3 O 0.4232(3) 0.1113(2) 0.42319(19)
O4 O 0.7839(4) 0.3597(2) 0.24773(19)
O5 O 0.5495(3) 0.1841(2) 0.11333(19)
O6 O 0.2303(4) 0.3314(3) 0.3480(2)
O7 O 0.2432(3) 0.1794(2) 0.33085(18)
O8 O 0.5668(3) 0.2228(2) 0.4356(2)
O9 O 0.4568(3) 0.3185(3) 0.1316(2)
C5 C 0.4633(5) 0.1658(4) 0.1066(3)
C6 C 0.5512(4) 0.3020(4) 0.0128(2)
C7 C 0.2504(13) 0.4166(10) 0.5705(9)
C8 C 0.9737(4) 0.2796(3) 0.0577(2)
C9 C 0.8331(5) 0.3355(4) 0.2900(3)
C10 C 0.8379(5) 0.2096(3) 0.2653(3)
C11 C 0.5114(4) 0.2406(3) 0.2814(2)
C12 C 0.7122(3) 0.2883(2) 0.01696(18)
C13 C 0.5375(4) 0.2955(4) -0.0446(2)
C14 C 0.6175(4) 0.2854(4) -0.0686(2)
C15 C 0.3868(5) 0.2780(5) 0.1255(4)
C16 C 0.8114(3) 0.2868(2) 0.05211(19)
C17 C 0.5667(5) 0.1440(4) 0.2410(3)
C18 C 0.4482(5) 0.1325(3) 0.2964(3)
C19 C 0.7266(6) 0.1868(5) 0.4433(6)
C20 C 0.5066(6) 0.0998(3) 0.2644(3)
C21 C 0.4992(5) 0.0752(3) 0.4270(2)
C22 C 0.9062(4) 0.2932(4) 0.1380(2)
C23 C 0.9867(4) 0.2868(4) 0.1144(2)
C24 C 0.8657(7) 0.2668(5) 0.3017(3)
C25 C 0.5260(7) 0.4607(4) 0.3117(3)
C26 C 0.7515(7) 0.4714(4) 0.1400(4)
C27 C 0.6195(4) 0.1702(3) 0.4375(3)
C28 C 0.8787(9) 0.1366(5) 0.2850(6)
C29 C 0.5935(5) 0.0977(3) 0.4332(3)
C30 C 0.5156(4) 0.3193(3) 0.2919(2)
C31 C 0.8617(12) 0.3929(7) 0.3362(5)
C32 C 0.2933(7) 0.3158(8) 0.1314(10)
C33 C 0.4789(5) 0.4029(3) 0.5222(3)
C34 C 0.4776(7) 0.4164(4) 0.3416(3)
C35 C 0.3842(5) 0.2066(5) 0.1133(4)
C36 C 0.1342(12) 0.3954(6) 0.2780(5)
C37 C 0.4826(6) -0.0061(3) 0.4187(4)
C38 C 0.5666(6) 0.4290(3) 0.2701(3)
C39 C 0.6004(5) 0.3745(4) 0.4756(4)
C40 C 0.1767(6) 0.3243(4) 0.3017(3)
C41 C 0.1902(5) 0.1962(4) 0.2868(3)
C42 C 0.1681(8) 0.1348(6) 0.2450(4)
C43 C 0.1525(7) 0.2634(5) 0.2711(3)
C44 C 0.3741(7) 0.4022(4) 0.5233(4)
C45 C 0.6286(8) 0.4415(6) 0.5581(5)
C46 C 0.6638(6) 0.4106(5) 0.5161(5)
C47 C 0.4457(6) 0.0874(5) 0.0865(5)
C48 C 0.2193(7) 0.3902(5) 0.4739(5)
C49 C 0.1824(10) 0.4074(8) 0.5214(8)
F1 F 0.3012(10) 0.3406(15) 0.1798(10)
F2 F 0.2193(5) 0.2735(5) 0.1281(7)
F3 F 0.0608(10) 0.3881(5) 0.2373(5)
F4 F 0.1160(12) 0.4403(6) 0.3110(4)
F5 F 0.9293(11) 0.1306(5) 0.3295(4)
F6 F 0.2714(7) 0.3650(6) 0.0984(10)
F7 F 0.7862(4) 0.1347(4) 0.4519(5)
F8 F 0.7532(5) 0.2372(5) 0.4765(6)
F9 F 0.7420(7) 0.2173(8) 0.3979(7)
F10 F 0.9352(8) 0.3754(5) 0.3737(4)
F11 F 0.1938(12) 0.4305(6) 0.2541(8)
F12 F 0.8705(9) 0.4553(4) 0.3177(4)
F13 F 0.8102(10) 0.0903(6) 0.2811(8)
F14 F 0.9164(12) 0.1048(6) 0.2497(6)
F15 F 0.7869(12) 0.3963(7) 0.3655(5)
F16 F 0.4073(5) -0.0288(3) 0.4365(4)
F17 F 0.4790(8) -0.0240(3) 0.3676(2)
F18 F 0.5530(5) -0.0457(2) 0.4473(3)
F19 F 0.1463(6) 0.0748(4) 0.2685(3)
F20 F 0.4299(6) 0.0846(4) 0.0318(4)
F21 F 0.0949(6) 0.1475(4) 0.2038(3)
F22 F 0.5189(5) 0.0470(3) 0.1047(4)
F23 F 0.2424(7) 0.1216(5) 0.2203(4)
F24 F 0.3671(5) 0.0582(3) 0.1020(4)
H4 H 0.4936 0.3098 0.0315
H5 H 0.2283 0.4204 0.6092
H6 H 1.0321 0.2746 0.0392
H7 H 0.4711 0.2982 -0.0677
H8 H 0.6093 0.2806 -0.1105
H9 H 0.6115 0.1224 0.2174
H10 H 0.4004 0.1023 0.3125
H11 H 0.5052 0.0462 0.2584
H12 H 0.9135 0.2983 0.1797
H13 H 1.0531 0.2869 0.1377
H14 H 0.9104 0.2571 0.3382
H15 H 0.5333 0.5137 0.3198
H16 H 0.6461 0.0605 0.4350
H17 H 0.4447 0.4376 0.3717
H18 H 0.3196 0.1812 0.1087
H19 H 0.6007 0.4605 0.2459
H20 H 0.6249 0.3518 0.4425
H21 H 0.1049 0.2673 0.2349
H22 H 0.6757 0.4684 0.5879
H23 H 0.7354 0.4138 0.5139
H24 H 0.1727 0.3805 0.4371
H25 H 0.1094 0.4153 0.5203
Ba2C Ba 0.87595(2) 0.245180(17) -0.092990(12)
N3C N 0.3856(3) 0.2211(2) 0.52569(17)
N6C N 0.2072(3) 0.2186(3) 0.46213(17)
loop_
_geom_bond_atom_site_label_1
_geom_bond_atom_site_label_2
_geom_bond_site_symmetry_1
_geom_bond_site_symmetry_2
N1 C1 1_555 1_555
N2 C1 1_555 1_555
C1 C1B 1_555 1_555
C2 N1 1_555 1_555
C3 C2 1_555 1_555
C4 N2 1_555 1_555
H1 C2 1_555 1_555
H2 C3 1_555 1_555
H3 C4 1_555 1_555
Ba1 N4 1_555 1_555
Ba2 N8 1_555 1_555
N3 C8 1_555 1_555
N4 C6 1_555 1_555
N5 C33 1_555 1_555
N6 C12 1_555 1_555
N7 Ba1 1_555 1_555
N8 C11 1_555 1_555
N9 Ba2 1_555 1_555
N10 Ba2 1_555 1_555
N11 Ba1 1_555 1_555
N12 Ba2 1_555 1_555
N13 Ba1 1_555 1_555
N14 C7 1_555 1_555
O1 Ba1 1_555 1_555
O2 Ba1 1_555 1_555
O3 Ba2 1_555 1_555
O4 Ba1 1_555 1_555
O5 Ba1 1_555 1_555
O6 Ba2 1_555 1_555
O7 Ba2 1_555 1_555
O8 Ba2 1_555 1_555
O9 Ba1 1_555 1_555
C5 O5 1_555 1_555
C6 C13 1_555 1_555
C7 C49 1_555 1_555
C8 C23 1_555 1_555
C9 O4 1_555 1_555
C10 O2 1_555 1_555
C11 N7 1_555 1_555
C12 N4 1_555 1_555
C13 C14 1_555 1_555
C14 N6 1_555 1_555
C15 O9 1_555 1_555
C16 N3 1_555 1_555
C17 N7 1_555 1_555
C18 N8 1_555 1_555
C19 C27 1_555 1_555
C20 C17 1_555 1_555
C21 O3 1_555 1_555
C22 N13 1_555 1_555
C23 C22 1_555 1_555
C24 C9 1_555 1_555
C25 C34 1_555 1_555
C26 O1 1_555 1_555
C27 O8 1_555 1_555
C28 C10 1_555 1_555
C29 C21 1_555 1_555
C30 N10 1_555 1_555
C31 C9 1_555 1_555
C32 C15 1_555 1_555
C33 N9 1_555 1_555
C34 N10 1_555 1_555
C35 C5 1_555 1_555
C36 C40 1_555 1_555
C37 C21 1_555 1_555
C38 N11 1_555 1_555
C39 N9 1_555 1_555
C40 O6 1_555 1_555
C41 O7 1_555 1_555
C42 C41 1_555 1_555
C43 C40 1_555 1_555
C44 N12 1_555 1_555
C45 N5 1_555 1_555
C46 C39 1_555 1_555
C47 C5 1_555 1_555
C48 N12 1_555 1_555
C49 C48 1_555 1_555
F1 C32 1_555 1_555
F2 C32 1_555 1_555
F3 C36 1_555 1_555
F4 C36 1_555 1_555
F5 C28 1_555 1_555
F6 C32 1_555 1_555
F7 C19 1_555 1_555
F8 C19 1_555 1_555
F9 C19 1_555 1_555
F10 C31 1_555 1_555
F11 C36 1_555 1_555
F12 C31 1_555 1_555
F13 C28 1_555 1_555
F14 C28 1_555 1_555
F15 C31 1_555 1_555
F16 C37 1_555 1_555
F17 C37 1_555 1_555
F18 C37 1_555 1_555
F19 C42 1_555 1_555
F20 C47 1_555 1_555
F21 C42 1_555 1_555
F22 C47 1_555 1_555
F23 C42 1_555 1_555
F24 C47 1_555 1_555
H4 C6 1_555 1_555
H5 C7 1_555 1_555
H6 C8 1_555 1_555
H7 C13 1_555 1_555
H8 C14 1_555 1_555
H9 C17 1_555 1_555
H10 C18 1_555 1_555
H11 C20 1_555 1_555
H12 C22 1_555 1_555
H13 C23 1_555 1_555
H14 C24 1_555 1_555
H15 C25 1_555 1_555
H16 C29 1_555 1_555
H17 C34 1_555 1_555
H18 C35 1_555 1_555
H19 C38 1_555 1_555
H20 C39 1_555 1_555
H21 C43 1_555 1_555
H22 C45 1_555 1_555
H23 C46 1_555 1_555
H24 C48 1_555 1_555
H25 C49 1_555 1_555
N1B C1B 1_555 1_555
N2B C1B 1_555 1_555
C2B N1B 1_555 1_555
C3B C2B 1_555 1_555
C4B N2B 1_555 1_555
H1B C2B 1_555 1_555
H2B C3B 1_555 1_555
H3B C4B 1_555 1_555
Ba2C N3 1_555 1_555
N3C Ba2 1_555 1_555
N6C Ba2 1_555 1_555
C3 C4 1_555 1_555
N6 Ba2C 1_555 1_555
N11 C30 1_555 1_555
N13 C16 1_555 1_555
N14 C44 1_555 1_555
C10 C24 1_555 1_555
C11 C30 1_555 1_555
C12 C16 1_555 1_555
C15 C35 1_555 1_555
C18 C20 1_555 1_555
C25 C38 1_555 1_555
C27 C29 1_555 1_555
C33 C44 1_555 1_555
C41 C43 1_555 1_555
C45 C46 1_555 1_555
C3B C4B 1_555 1_555

#END
