
#######################################################################
#
#                 Cambridge Crystallographic Data Centre
#                                CCDC 
#
#######################################################################
#
# If this CIF has been generated from an entry in the Cambridge 
# Structural Database, then it will include bibliographic, chemical, 
# crystal, experimental, refinement or atomic coordinate data resulting 
# from the CCDC's data processing and validation procedures.
#
#######################################################################

data_NESNUW
_symmetry_cell_setting           monoclinic
_symmetry_space_group_name_H-M   'C 2/c'
_symmetry_Int_Tables_number      15
_space_group_name_Hall           '-C 2yn'
loop_
_symmetry_equiv_pos_site_id
_symmetry_equiv_pos_as_xyz
1 x,y,z
2 -x,y,1/2-z
3 1/2+x,1/2+y,z
4 1/2-x,1/2+y,1/2-z
5 -x,-y,-z
6 x,-y,1/2+z
7 1/2-x,1/2-y,-z
8 1/2+x,1/2-y,1/2+z
_cell_length_a                   19.022(4)
_cell_length_b                   16.166(3)
_cell_length_c                   29.481(6)
_cell_angle_alpha                90
_cell_angle_beta                 99.32(3)
_cell_angle_gamma                90
_cell_volume                     8946.02
loop_
_atom_site_label
_atom_site_type_symbol
_atom_site_fract_x
_atom_site_fract_y
_atom_site_fract_z
Zn1 Zn 0.76707(3) 1.15552(3) 0.729930(18)
Zn2 Zn 0.33980(3) 1.85426(3) 0.472600(18)
O1 O 0.38661(17) 1.75358(19) 0.49745(12)
O2 O 0.84173(19) 0.4530(2) 0.50909(13)
O3 O 0.71103(19) 1.2305(2) 0.68746(12)
O4 O 0.7841(2) 1.0678(2) 0.68897(13)
O5 O 0.6792(2) 1.2863(2) 0.74962(14)
O6 O 0.9017(2) 1.0582(2) 0.69891(16)
O7 O 0.7252(2) 0.4633(3) 0.49730(18)
O8 O 0.48190(19) 1.8265(2) 0.52615(13)
N1 N 1.25310(19) 1.2033(2) 0.93695(13)
N2 N 0.8970(2) 1.5947(2) 0.92538(13)
N3 N 0.8478(2) 1.2137(2) 0.77219(13)
N4 N 1.2134(2) 1.5885(2) 0.77229(13)
C1 C 1.0143(2) 1.3487(2) 0.85679(15)
H1 H 1.0114 1.3420 0.8895
C2 C 1.0939(2) 1.3446(2) 0.84970(15)
H2 H 1.0960 1.3302 0.8177
C3 C 0.9576(2) 1.2985(3) 0.82858(15)
C4 C 0.9157(2) 1.1889(3) 0.77599(16)
H3 H 0.9262 1.1427 0.7595
C5 C 0.9761(2) 1.4994(3) 0.87243(15)
C6 C 1.0144(2) 1.4431(3) 0.84443(15)
H4 H 0.9981 1.4517 0.8115
C7 C 1.0969(2) 1.4387(2) 0.85520(15)
H5 H 1.1123 1.4520 0.8877
C8 C 1.1478(2) 1.2937(2) 0.88119(16)
C9 C 0.6352(3) 1.3474(3) 0.67723(18)
C10 C 0.9514(3) 1.5473(3) 0.94441(18)
H6 H 0.9631 1.5466 0.9763
C11 C 0.5724(3) 1.6195(3) 0.59757(18)
H7 H 0.6144 1.6243 0.6185
C12 C 1.1957(2) 1.1666(3) 0.91365(17)
H8 H 1.1911 1.1096 0.9165
C13 C 0.8864(3) 1.3210(3) 0.82597(18)
H9 H 0.8744 1.3654 0.8433
C14 C 0.8832(3) 1.5965(3) 0.88006(17)
H10 H 0.8465 1.6303 0.8660
C15 C 1.1390(2) 1.4902(3) 0.82682(16)
C16 C 0.5457(2) 1.6880(3) 0.57237(17)
H11 H 0.5708 1.7376 0.5756
C17 C 0.9708(2) 1.2297(3) 0.80355(16)
H12 H 1.0172 1.2104 0.8052
C18 C 0.5380(3) 1.5447(3) 0.59226(18)
C19 C 0.4818(2) 1.6831(3) 0.54224(17)
C20 C 0.7368(3) 0.6139(3) 0.5480(2)
H13 H 0.6935 0.5862 0.5460
C21 C 0.8828(3) 0.8362(3) 0.6232(2)
H14 H 0.9221 0.8024 0.6222
C22 C 0.5681(3) 1.4732(3) 0.62154(19)
C23 C 0.9912(3) 1.4993(3) 0.91942(17)
H15 H 1.0282 1.4670 0.9344
C24 C 0.6169(3) 1.4209(3) 0.69668(19)
H16 H 0.6258 1.4281 0.7284
C25 C 1.2066(2) 1.3309(3) 0.90614(19)
H17 H 1.2122 1.3879 0.9043
C26 C 1.1433(2) 1.2085(3) 0.88572(17)
H18 H 1.1045 1.1800 0.8697
C27 C 1.2565(2) 1.2855(3) 0.93340(18)
H19 H 1.2949 1.3130 0.9504
C28 C 0.8178(3) 0.8140(3) 0.59831(19)
C29 C 0.5854(3) 1.4833(3) 0.6686(2)
H20 H 0.5755 1.5335 0.6816
C30 C 0.4472(3) 1.6073(3) 0.53677(17)
H21 H 0.4045 1.6028 0.5165
C31 C 0.8335(3) 0.9583(3) 0.65221(17)
C32 C 0.6155(3) 1.3358(3) 0.63056(19)
H22 H 0.6251 1.2857 0.6174
C33 C 0.8337(3) 1.2789(3) 0.79831(18)
H23 H 0.7867 1.2954 0.7974
C34 C 0.8417(3) 1.0333(3) 0.68252(18)
C35 C 1.2067(3) 1.5070(3) 0.7657(2)
H24 H 1.2274 1.4828 0.7424
C36 C 1.1700(3) 1.4575(3) 0.7920(2)
H25 H 1.1663 1.4010 0.7860
C37 C 0.8554(3) 0.6219(3) 0.53235(19)
H26 H 0.8930 0.5994 0.5198
C38 C 0.8910(3) 0.9069(3) 0.6496(2)
H27 H 0.9357 0.9204 0.6657
C39 C 0.7612(3) 0.8670(3) 0.5994(2)
H28 H 0.7173 0.8552 0.5818
C40 C 1.1482(3) 1.5731(3) 0.83420(19)
H29 H 1.1298 1.5981 0.8581
C41 C 0.8087(3) 0.7347(3) 0.57214(19)
C42 C 0.4752(3) 1.5382(3) 0.56107(18)
H30 H 0.4520 1.4875 0.5565
C43 C 0.7929(3) 0.5778(3) 0.53043(18)
C44 C 0.8628(3) 0.6996(3) 0.5528(2)
H31 H 0.9052 0.7284 0.5534
C45 C 1.1843(3) 1.6200(3) 0.80680(19)
H32 H 1.1888 1.6765 0.8125
C46 C 0.7690(3) 0.9372(3) 0.6262(2)
H33 H 0.7298 0.9713 0.6268
C47 C 0.7840(3) 0.4915(3) 0.50985(18)
C48 C 0.4497(3) 1.7607(3) 0.52010(17)
C49 C 0.6770(3) 1.2840(3) 0.7079(2)
C50 C 0.7454(3) 0.6910(3) 0.5684(2)
H34 H 0.7074 0.7144 0.5801
C51 C 0.9210(2) 1.5504(3) 0.85256(17)
H35 H 0.9093 1.5536 0.8207
C52 C 0.5816(3) 1.3975(3) 0.60316(19)
H36 H 0.5677 1.3881 0.5719
Zn1B Zn 1.26707(3) 1.65552(3) 0.729930(18)
Zn2B Zn 0.83980(3) 0.35426(3) 0.472600(18)
Zn2E Zn 1.33980(3) 1.14574(3) 0.972600(18)
Zn2G Zn 0.83980(3) 1.64574(3) 0.972600(18)
O2B O 0.34173(19) 1.9530(2) 0.50909(13)
N1E N 0.25310(19) 1.7967(2) 0.43695(13)
N2G N 0.3970(2) 1.9053(2) 0.42538(13)
N4B N 0.7134(2) 1.0885(2) 0.77229(13)
N5 N 0.0000 0.5949(9) 0.7500
C53 C 0.0000 0.6646(11) 0.7500
C54 C 0.0000 0.7514(10) 0.7500
H37 H 0.0142 0.7712 0.7808
H37A H -0.0142 0.7712 0.7192
H38? H -0.0470 0.7712 0.7382
H39? H 0.0328 0.7712 0.7309
loop_
_geom_bond_atom_site_label_1
_geom_bond_atom_site_label_2
_geom_bond_site_symmetry_1
_geom_bond_site_symmetry_2
Zn1 O3 1_555 1_555
Zn2 O1 1_555 1_555
O1 C48 1_555 1_555
O2 C47 1_555 1_555
O3 C49 1_555 1_555
O4 Zn1 1_555 1_555
O5 C49 1_555 1_555
O6 C34 1_555 1_555
O7 C47 1_555 1_555
O8 C48 1_555 1_555
N1 C12 1_555 1_555
N2 C10 1_555 1_555
N3 Zn1 1_555 1_555
N4 C35 1_555 1_555
C1 H1 1_555 1_555
C2 C1 1_555 1_555
H2 C2 1_555 1_555
C3 C1 1_555 1_555
C4 N3 1_555 1_555
H3 C4 1_555 1_555
C5 C6 1_555 1_555
C6 C1 1_555 1_555
H4 C6 1_555 1_555
C7 C2 1_555 1_555
H5 C7 1_555 1_555
C8 C2 1_555 1_555
C9 C24 1_555 1_555
C10 H6 1_555 1_555
C11 H7 1_555 1_555
C12 H8 1_555 1_555
C13 C3 1_555 1_555
H9 C13 1_555 1_555
C14 N2 1_555 1_555
H10 C14 1_555 1_555
C15 C7 1_555 1_555
C16 C11 1_555 1_555
H11 C16 1_555 1_555
C17 C3 1_555 1_555
H12 C17 1_555 1_555
C18 C11 1_555 1_555
C19 C16 1_555 1_555
C20 H13 1_555 1_555
C21 H14 1_555 1_555
C22 C18 1_555 1_555
C23 C5 1_555 1_555
H15 C23 1_555 1_555
C24 H16 1_555 1_555
C25 C8 1_555 1_555
H17 C25 1_555 1_555
C26 C8 1_555 1_555
H18 C26 1_555 1_555
C27 N1 1_555 1_555
H19 C27 1_555 1_555
C28 C21 1_555 1_555
C29 C22 1_555 1_555
H20 C29 1_555 1_555
C30 C19 1_555 1_555
H21 C30 1_555 1_555
C31 C34 1_555 1_555
C32 C9 1_555 1_555
H22 C32 1_555 1_555
C33 N3 1_555 1_555
H23 C33 1_555 1_555
C34 O4 1_555 1_555
C35 H24 1_555 1_555
C36 C15 1_555 1_555
H25 C36 1_555 1_555
C37 H26 1_555 1_555
C38 C21 1_555 1_555
H27 C38 1_555 1_555
C39 C28 1_555 1_555
H28 C39 1_555 1_555
C40 C15 1_555 1_555
H29 C40 1_555 1_555
C41 C28 1_555 1_555
C42 C18 1_555 1_555
H30 C42 1_555 1_555
C43 C20 1_555 1_555
C44 C37 1_555 1_555
H31 C44 1_555 1_555
C45 N4 1_555 1_555
H32 C45 1_555 1_555
C46 C31 1_555 1_555
H33 C46 1_555 1_555
C47 C43 1_555 1_555
C48 C19 1_555 1_555
C49 C9 1_555 1_555
C50 C20 1_555 1_555
H34 C50 1_555 1_555
C51 C5 1_555 1_555
H35 C51 1_555 1_555
C52 C22 1_555 1_555
H36 C52 1_555 1_555
N5 C53 1_555 1_555
C53 C54 1_555 1_555
C54 H37 1_555 1_555
Zn1B N4 1_555 1_555
Zn2B O2 1_555 1_555
Zn2E N1 1_555 1_555
Zn2G N2 1_555 1_555
O2B Zn2 1_555 1_555
N1E Zn2 1_555 1_555
N2G Zn2 1_555 1_555
N4B Zn1 1_555 1_555
H37A C54 1_555 1_555
C4 C17 1_555 1_555
C6 C7 1_555 1_555
C10 C23 1_555 1_555
C12 C26 1_555 1_555
C13 C33 1_555 1_555
C14 C51 1_555 1_555
C24 C29 1_555 1_555
C25 C27 1_555 1_555
C30 C42 1_555 1_555
C31 C38 1_555 1_555
C32 C52 1_555 1_555
C35 C36 1_555 1_555
C37 C43 1_555 1_555
C39 C46 1_555 1_555
C40 C45 1_555 1_555
C41 C44 1_555 1_555
C41 C50 1_555 1_555

#END
