
#######################################################################
#
#                 Cambridge Crystallographic Data Centre
#                                CCDC 
#
#######################################################################
#
# If this CIF has been generated from an entry in the Cambridge 
# Structural Database, then it will include bibliographic, chemical, 
# crystal, experimental, refinement or atomic coordinate data resulting 
# from the CCDC's data processing and validation procedures.
#
#######################################################################

data_NESPOS
_symmetry_cell_setting           orthorhombic
_symmetry_space_group_name_H-M   'P 21 21 2'
_symmetry_Int_Tables_number      18
_space_group_name_Hall           'P 2 2ab'
loop_
_symmetry_equiv_pos_site_id
_symmetry_equiv_pos_as_xyz
1 x,y,z
2 -x,-y,z
3 1/2+x,1/2-y,-z
4 1/2-x,1/2+y,-z
_cell_length_a                   30.877(6)
_cell_length_b                   8.0459(16)
_cell_length_c                   9.1577(18)
_cell_angle_alpha                90
_cell_angle_beta                 90
_cell_angle_gamma                90
_cell_volume                     2275.08
loop_
_atom_site_label
_atom_site_type_symbol
_atom_site_fract_x
_atom_site_fract_y
_atom_site_fract_z
Zn1 Zn 1.12013(3) 0.54951(10) 0.99182(11)
O1 O 1.0915(2) 0.7924(8) 1.1844(8)
O2 O 1.1526(2) 0.7383(8) 1.0648(7)
O3 O 1.3847(2) 1.7420(8) 1.2274(7)
O4 O 1.3387(2) 1.9242(8) 1.1178(7)
O5 O 1.1678(2) 1.5238(9) 1.4623(8)
N1 N 1.0842(2) 0.4028(8) 1.1237(7)
N2 N 0.9231(2) 0.3599(9) 1.8426(8)
C1 C 1.2731(3) 1.4512(10) 1.3197(10)
H1 H 1.2744 1.3356 1.3339
C2 C 1.0706(3) 0.4465(11) 1.2564(10)
H2 H 1.0802 0.5484 1.2949
C3 C 1.0046(3) 0.0966(10) 1.5399(8)
H3 H 1.0355 0.1179 1.5618
C4 C 1.1933(3) 1.4550(11) 1.3830(10)
C5 C 1.1978(3) 1.2186(13) 1.1963(11)
H4 H 1.2203 1.2747 1.1480
C6 C 0.9972(3) 0.0966(10) 1.3731(9)
H5 H 0.9669 0.1269 1.3502
C7 C 1.3102(3) 1.5341(13) 1.2785(9)
H6 H 1.3365 1.4764 1.2699
C8 C 1.1504(3) 0.9799(9) 1.2128(10)
C9 C 1.0434(3) 0.1519(12) 1.1519(10)
H7 H 1.0355 0.0482 1.1130
C10 C 0.9108(3) 0.3404(11) 1.7040(10)
H8 H 0.8837 0.3819 1.6750
C11 C 0.9894(3) 0.2232(12) 1.7832(10)
H9 H 1.0170 0.1891 1.8142
C12 C 1.1294(4) 0.8265(10) 1.1507(12)
C13 C 1.0278(3) 0.2005(11) 1.2864(10)
C14 C 1.2346(3) 1.5310(12) 1.3407(9)
C15 C 0.9363(3) 0.2617(11) 1.6016(10)
H10 H 0.9266 0.2523 1.5047
C16 C 1.1811(3) 1.2845(10) 1.3244(10)
C17 C 1.0705(3) 0.2543(10) 1.0749(10)
H11 H 1.0801 0.2186 0.9826
C18 C 0.9764(3) 0.1961(10) 1.6404(10)
C19 C 1.0434(3) 0.3506(12) 1.3398(11)
H12 H 1.0353 0.3867 1.4335
C20 C 0.9617(3) 0.3001(13) 1.8792(11)
H13 H 0.9706 0.3109 1.9769
C21 C 1.1489(3) 1.1936(12) 1.3969(10)
H14 H 1.1374 1.2349 1.4847
C22 C 1.1338(3) 1.0445(12) 1.3421(9)
H15 H 1.1121 0.9861 1.3927
C23 C 1.1822(3) 1.0740(11) 1.1390(10)
H16 H 1.1929 1.0363 1.0487
C24 C 1.2337(3) 1.7025(13) 1.3204(11)
H17 H 1.2080 1.7617 1.3395
C25 C 1.2700(3) 1.7866(11) 1.2725(12)
H18 H 1.2682 1.9016 1.2554
C26 C 1.3083(4) 1.7071(13) 1.2493(10)
C27 C 1.3476(4) 1.7943(11) 1.1956(10)
Zn1C Zn 1.37987(3) -0.95049(10) 1.00818(11)
Zn1C_2 Zn 1.37987(3) 2.04951(10) 1.00818(11)
Zn1A Zn 0.87987(3) 0.45049(10) 1.99182(11)
Zn1A_2 Zn 0.87987(3) -0.54951(10) 0.99182(11)
Zn1_2 Zn 1.12013(3) -0.45049(10) 1.99182(11)
O1C O 1.4085(2) -0.7076(8) 0.8156(8)
O2C O 1.3474(2) -0.7617(8) 0.9352(7)
O3C O 1.1153(2) 0.2420(8) 0.7726(7)
O4C O 1.1613(2) 0.4242(8) 0.8822(7)
O4_2 O 1.3387(2) -1.0758(8) 1.1178(7)
O5C O 1.3322(2) 0.0238(9) 0.5377(8)
N1A N 0.9158(2) -0.4028(8) 1.1237(7)
N1C N 1.4158(2) -1.0972(8) 0.8763(7)
N2A N 1.0769(2) -0.3599(9) 1.8426(8)
N2A_2 N 1.0769(2) 0.6401(9) 0.8426(8)
N2B N 1.4231(2) -0.8599(9) 1.1574(8)
C1C C 1.2269(3) -0.0488(10) 0.6803(10)
H1C H 1.2256 -0.1644 0.6661
C2A C 0.9294(3) -0.4465(11) 1.2564(10)
H2A H 0.9198 -0.5484 1.2949
C3A C 0.9954(3) -0.0966(10) 1.5399(8)
H3A H 0.9645 -0.1179 1.5618
C4C C 1.3067(3) -0.0450(11) 0.6170(10)
C5C C 1.3022(3) -0.2814(13) 0.8037(11)
H4C H 1.2797 -0.2253 0.8520
C6A C 1.0028(3) -0.0966(10) 1.3731(9)
H5A H 1.0331 -0.1269 1.3502
C7C C 1.1898(3) 0.0341(13) 0.7215(9)
H6C H 1.1635 -0.0236 0.7301
C8C C 1.3496(3) -0.5201(9) 0.7872(10)
C9A C 0.9566(3) -0.1519(12) 1.1519(10)
H7A H 0.9645 -0.0482 1.1130
C10A C 1.0892(3) -0.3404(11) 1.7040(10)
H8A H 1.1163 -0.3819 1.6750
C11A C 1.0106(3) -0.2232(12) 1.7832(10)
H9A H 0.9830 -0.1891 1.8142
C12C C 1.3706(4) -0.6735(10) 0.8493(12)
C13A C 0.9722(3) -0.2005(11) 1.2864(10)
C14C C 1.2654(3) 0.0310(12) 0.6593(9)
C15A C 1.0637(3) -0.2617(11) 1.6016(10)
H10A H 1.0734 -0.2523 1.5047
C16C C 1.3189(3) -0.2155(10) 0.6756(10)
C17A C 0.9295(3) -0.2543(10) 1.0749(10)
H11A H 0.9199 -0.2186 0.9826
C18A C 1.0236(3) -0.1961(10) 1.6404(10)
C19A C 0.9566(3) -0.3506(12) 1.3398(11)
H12A H 0.9647 -0.3867 1.4335
C20A C 1.0383(3) -0.3001(13) 1.8792(11)
H13A H 1.0294 -0.3109 1.9769
C21C C 1.3511(3) -0.3064(12) 0.6031(10)
H14C H 1.3626 -0.2651 0.5153
C22C C 1.3662(3) -0.4555(12) 0.6579(9)
H15C H 1.3879 -0.5139 0.6073
C23C C 1.3178(3) -0.4260(11) 0.8610(10)
H16C H 1.3071 -0.4637 0.9513
C24C C 1.2663(3) 0.2025(13) 0.6796(11)
H17C H 1.2920 0.2617 0.6605
C25C C 1.2300(3) 0.2866(11) 0.7275(12)
H18C H 1.2318 0.4016 0.7446
C26C C 1.1917(4) 0.2071(13) 0.7507(10)
C27C C 1.1524(4) 0.2943(11) 0.8044(10)
loop_
_geom_bond_atom_site_label_1
_geom_bond_atom_site_label_2
_geom_bond_site_symmetry_1
_geom_bond_site_symmetry_2
Zn1 O2 1_555 1_555
O1 C12 1_555 1_555
O2 C12 1_555 1_555
O3 C27 1_555 1_555
O4 C27 1_555 1_555
O5 C4 1_555 1_555
N1 Zn1 1_555 1_555
N2 C10 1_555 1_555
C1 H1 1_555 1_555
C2 N1 1_555 1_555
H2 C2 1_555 1_555
C3 H3 1_555 1_555
C4 C14 1_555 1_555
C5 H4 1_555 1_555
C6 C3 1_555 1_555
H5 C6 1_555 1_555
C7 C1 1_555 1_555
H6 C7 1_555 1_555
C8 C12 1_555 1_555
C9 H7 1_555 1_555
C10 H8 1_555 1_555
C11 H9 1_555 1_555
C13 C6 1_555 1_555
C14 C1 1_555 1_555
C15 C10 1_555 1_555
H10 C15 1_555 1_555
C16 C4 1_555 1_555
C17 N1 1_555 1_555
H11 C17 1_555 1_555
C18 C3 1_555 1_555
C19 C2 1_555 1_555
H12 C19 1_555 1_555
C20 N2 1_555 1_555
H13 C20 1_555 1_555
C21 C16 1_555 1_555
H14 C21 1_555 1_555
C22 C8 1_555 1_555
H15 C22 1_555 1_555
C23 C5 1_555 1_555
H16 C23 1_555 1_555
C24 C14 1_555 1_555
H17 C24 1_555 1_555
C25 C24 1_555 1_555
H18 C25 1_555 1_555
C26 C7 1_555 1_555
C27 C26 1_555 1_555
Zn1C O2C 1_555 1_555
Zn1C_2 O4 1_555 1_555
Zn1A N2 1_555 1_555
Zn1A_2 N1A 1_555 1_555
Zn1_2 N2A 1_555 1_555
O1C C12C 1_555 1_555
O2C C12C 1_555 1_555
O3C C27C 1_555 1_555
O4C Zn1 1_555 1_555
O4_2 Zn1C 1_555 1_555
O5C C4C 1_555 1_555
N1A C2A 1_555 1_555
N1C Zn1C 1_555 1_555
N2A C10A 1_555 1_555
N2A_2 Zn1 1_555 1_555
N2B Zn1C 1_555 1_555
C1C H1C 1_555 1_555
C2A H2A 1_555 1_555
C3A C3 1_555 1_555
H3A C3A 1_555 1_555
C4C C14C 1_555 1_555
C5C H4C 1_555 1_555
C6A C6 1_555 1_555
H5A C6A 1_555 1_555
C7C C1C 1_555 1_555
H6C C7C 1_555 1_555
C8C C12C 1_555 1_555
C9A H7A 1_555 1_555
C10A H8A 1_555 1_555
C11A H9A 1_555 1_555
C13A C6A 1_555 1_555
C14C C1C 1_555 1_555
C15A C10A 1_555 1_555
H10A C15A 1_555 1_555
C16C C4C 1_555 1_555
C17A N1A 1_555 1_555
H11A C17A 1_555 1_555
C18A C3A 1_555 1_555
C19A C2A 1_555 1_555
H12A C19A 1_555 1_555
C20A N2A 1_555 1_555
H13A C20A 1_555 1_555
C21C C16C 1_555 1_555
H14C C21C 1_555 1_555
C22C C8C 1_555 1_555
H15C C22C 1_555 1_555
C23C C5C 1_555 1_555
H16C C23C 1_555 1_555
C24C C14C 1_555 1_555
H17C C24C 1_555 1_555
C25C C24C 1_555 1_555
H18C C25C 1_555 1_555
C26C C7C 1_555 1_555
C27C O4C 1_555 1_555
C5 C16 1_555 1_555
C8 C23 1_555 1_555
C9 C13 1_555 1_555
C9 C17 1_555 1_555
C11 C18 1_555 1_555
C11 C20 1_555 1_555
C13 C19 1_555 1_555
C15 C18 1_555 1_555
C21 C22 1_555 1_555
C25 C26 1_555 1_555
C3A C6A 1_555 1_555
C5C C16C 1_555 1_555
C8C C23C 1_555 1_555
C9A C13A 1_555 1_555
C9A C17A 1_555 1_555
C11A C18A 1_555 1_555
C11A C20A 1_555 1_555
C13A C19A 1_555 1_555
C15A C18A 1_555 1_555
C21C C22C 1_555 1_555
C25C C26C 1_555 1_555
C26C C27C 1_555 1_555

#END
