
#######################################################################
#
#                 Cambridge Crystallographic Data Centre
#                                CCDC 
#
#######################################################################
#
# If this CIF has been generated from an entry in the Cambridge 
# Structural Database, then it will include bibliographic, chemical, 
# crystal, experimental, refinement or atomic coordinate data resulting 
# from the CCDC's data processing and validation procedures.
#
#######################################################################

data_NESPEI
_symmetry_cell_setting           orthorhombic
_symmetry_space_group_name_H-M   'P 21 21 2'
_symmetry_Int_Tables_number      18
_space_group_name_Hall           'P 2 2ab'
loop_
_symmetry_equiv_pos_site_id
_symmetry_equiv_pos_as_xyz
1 x,y,z
2 -x,-y,z
3 1/2+x,1/2-y,-z
4 1/2-x,1/2+y,-z
_cell_length_a                   21.739(4)
_cell_length_b                   23.577(5)
_cell_length_c                   7.4591(15)
_cell_angle_alpha                90
_cell_angle_beta                 90
_cell_angle_gamma                90
_cell_volume                     3823.09
loop_
_atom_site_label
_atom_site_type_symbol
_atom_site_fract_x
_atom_site_fract_y
_atom_site_fract_z
Zn1 Zn 0.0000 0.0000 -1.07403(9)
Zn2 Zn -0.5000 0.0000 -1.07321(9)
Zn3 Zn -0.19011(2) -0.212945(19) -1.83185(7)
O1 O -0.07210(13) -0.21849(13) -1.9009(4)
O2 O -0.12251(12) -0.19248(12) -1.6600(4)
O3 O -0.72572(12) 0.21185(14) -1.7321(4)
O4 O -0.75024(16) 0.15434(17) -1.5112(6)
O5 O -0.49471(17) 0.07245(17) -1.2129(5)
O6 O 0.15949(15) -0.24392(16) -1.8284(6)
O7 O 0.20626(13) -0.18981(15) -1.6245(5)
O8 O -0.50878(16) 0.24916(17) -1.8668(5)
O9 O -0.00958(14) -0.07010(13) -1.2124(4)
O10 O 0.09003(17) -0.05976(19) -1.2538(5)
O11 O -0.59001(17) 0.04521(18) -1.2125(6)
N1 N -0.07050(15) -0.00077(16) -0.8894(4)
N2 N -0.19906(16) -0.14888(14) -0.0123(5)
N3 N -0.30940(16) 0.20117(13) -0.1416(5)
N4 N -0.43413(17) 0.01884(17) -0.8806(5)
C1 C 0.09722(19) -0.18785(19) -1.6352(6)
C2 C 0.15704(19) -0.2103(2) -1.7069(6)
C3 C -0.6271(2) 0.13614(19) -1.4280(7)
H1 H -0.6572 0.1193 -1.3570
C4 C -0.5658(2) 0.1242(2) -1.3957(6)
C5 C -0.5491(2) 0.0782(2) -1.2627(7)
C6 C -0.27526(19) 0.03966(17) -0.5447(6)
H2 H -0.2548 0.0757 -0.5713
C7 C -0.33118(19) 0.03292(17) -0.6617(6)
C8 C -0.3575(3) -0.0188(2) -0.6888(9)
H3 H -0.3411 -0.0507 -0.6329
C9 C -0.17189(17) -0.00560(17) -0.6600(6)
C10 C -0.3587(2) 0.0781(2) -0.7442(7)
H4 H -0.3432 0.1144 -0.7268
C11 C -0.2448(2) 0.12024(15) -0.1704(6)
H5 H -0.2063 0.1040 -0.1539
C12 C 0.0409(2) -0.0833(2) -1.2881(6)
C13 C 0.03996(19) -0.12884(19) -1.4288(6)
C14 C -0.1364(2) -0.05258(19) -0.6934(7)
H6 H -0.1459 -0.0870 -0.6392
C15 C 0.09570(19) -0.14970(19) -1.4930(6)
H7 H 0.1323 -0.1380 -1.4401
C16 C -0.21338(18) -0.05002(17) -0.2155(5)
C17 C -0.28316(17) 0.03255(15) -0.3356(6)
H8 H -0.3168 0.0064 -0.3074
C18 C -0.1580(2) -0.07948(19) -0.2123(6)
H9 H -0.1245 -0.0661 -0.2770
C19 C -0.2548(2) 0.17549(17) -0.1216(6)
H10 H -0.2224 0.1960 -0.0727
C20 C -0.34968(19) 0.11360(18) -0.2510(7)
H11 H -0.3837 0.0928 -0.2886
C21 C -0.5208(2) 0.1510(2) -1.4966(6)
H12 H -0.4794 0.1440 -1.4737
C22 C -0.4881(2) 0.2162(2) -1.7393(7)
C23 C -0.07254(19) -0.20025(17) -1.7450(6)
C24 C -0.22019(16) 0.00181(17) -0.3310(5)
H13 H -0.1869 0.0288 -0.3074
C25 C -0.5376(2) 0.18861(19) -1.6323(6)
C26 C -0.0870(2) -0.0487(2) -0.8064(7)
H14 H -0.0636 -0.0812 -0.8266
C27 C -0.29214(19) 0.08851(17) -0.2443(6)
C28 C -0.1042(2) 0.0449(2) -0.8542(8)
H15 H -0.0934 0.0790 -0.9083
C29 C -0.59916(18) 0.19899(18) -1.6662(6)
H16 H -0.6104 0.2237 -1.7577
C30 C -0.01343(17) -0.18432(16) -1.6524(6)
C31 C -0.4091(2) 0.0701(2) -0.8527(7)
H17 H -0.4264 0.1015 -0.9089
C32 C -0.1542(2) 0.04431(19) -0.7424(7)
H18 H -0.1762 0.0775 -0.7218
C33 C -0.2521(2) -0.11993(19) -0.0143(6)
H19 H -0.2850 -0.1337 0.0522
C34 C -0.4081(3) -0.0244(2) -0.7980(9)
H20 H -0.4248 -0.0604 -0.8143
C35 C -0.71200(19) 0.18019(18) -1.6014(6)
C36 C 0.04248(19) -0.20410(18) -1.7157(6)
H21 H 0.0433 -0.2286 -1.8134
C37 C -0.01435(19) -0.14759(18) -1.5046(6)
H22 H -0.0518 -0.1358 -1.4572
C38 C -0.1531(2) -0.12831(19) -0.1133(6)
H23 H -0.1161 -0.1481 -0.1162
C39 C -0.22724(18) -0.00894(17) -0.5389(5)
H24 H -0.2482 -0.0452 -0.5580
C40 C -0.35609(19) 0.16961(18) -0.2015(7)
H25 H -0.3948 0.1862 -0.2103
C41 C -0.64438(18) 0.17243(18) -1.5628(6)
C42 C -0.2599(2) -0.07057(19) -0.1105(6)
H26 H -0.2970 -0.0511 -0.1041
O12 O -0.43383(14) 0.20765(17) -1.7124(6)
Zn2_2 Zn 0.5000 0.0000 -1.07321(9)
Zn3A Zn 0.19011(2) 0.212945(19) -1.83185(7)
Zn3A_2 Zn -0.80989(2) 0.212945(19) -1.83185(7)
Zn3_2 Zn -0.19011(2) -0.212945(19) 0.16815(7)
Zn3C Zn -0.30989(2) 0.287055(19) -0.16815(7)
Zn3A_3 Zn 0.19011(2) 0.212945(19) 0.16815(7)
Zn3B Zn 0.30989(2) -0.287055(19) -0.16815(7)
O1A O 0.07210(13) 0.21849(13) -1.9009(4)
O2A O 0.12251(12) 0.19248(12) -1.6600(4)
O3A O -0.27428(12) -0.21185(14) -1.7321(4)
O3_2 O 0.27428(12) 0.21185(14) -1.7321(4)
O4A O -0.24976(16) -0.15434(17) -1.5112(6)
O5A O -0.50529(17) -0.07245(17) -1.2129(5)
O6A O -0.15949(15) 0.24392(16) -1.8284(6)
O7A O -0.20626(13) 0.18981(15) -1.6245(5)
O8A O -0.49122(16) -0.24916(17) -1.8668(5)
O9A O 0.00958(14) 0.07010(13) -1.2124(4)
O10A O -0.09003(17) 0.05976(19) -1.2538(5)
O11A O -0.40999(17) -0.04521(18) -1.2125(6)
N1A N 0.07050(15) 0.00077(16) -0.8894(4)
N2A N 0.19906(16) 0.14888(14) -0.0123(5)
N2_2 N -0.19906(16) -0.14888(14) -2.0123(5)
N2A_2 N 0.19906(16) 0.14888(14) -2.0123(5)
N3A N 0.30940(16) -0.20117(13) -0.1416(5)
N3C N -0.19060(16) -0.29883(13) -1.8584(5)
N3B N 0.19060(16) 0.29883(13) -1.8584(5)
N4A N 0.43413(17) -0.01884(17) -0.8806(5)
N4A_2 N -0.56587(17) -0.01884(17) -0.8806(5)
C1A C -0.09722(19) 0.18785(19) -1.6352(6)
C2A C -0.15704(19) 0.2103(2) -1.7069(6)
C3A C -0.3729(2) -0.13614(19) -1.4280(7)
H1A H -0.3428 -0.1193 -1.3570
C4A C -0.4342(2) -0.1242(2) -1.3957(6)
C5A C -0.4509(2) -0.0782(2) -1.2627(7)
C6A C 0.27526(19) -0.03966(17) -0.5447(6)
H2A H 0.2548 -0.0757 -0.5713
C7A C 0.33118(19) -0.03292(17) -0.6617(6)
C8A C 0.3575(3) 0.0188(2) -0.6888(9)
H3A H 0.3411 0.0507 -0.6329
C9A C 0.17189(17) 0.00560(17) -0.6600(6)
C10A C 0.3587(2) -0.0781(2) -0.7442(7)
H4A H 0.3432 -0.1144 -0.7268
C11A C 0.2448(2) -0.12024(15) -0.1704(6)
H5A H 0.2063 -0.1040 -0.1539
C12A C -0.0409(2) 0.0833(2) -1.2881(6)
C13A C -0.03996(19) 0.12884(19) -1.4288(6)
C14A C 0.1364(2) 0.05258(19) -0.6934(7)
H6A H 0.1459 0.0870 -0.6392
C15A C -0.09570(19) 0.14970(19) -1.4930(6)
H7A H -0.1323 0.1380 -1.4401
C16A C 0.21338(18) 0.05002(17) -0.2155(5)
C17A C 0.28316(17) -0.03255(15) -0.3356(6)
H8A H 0.3168 -0.0064 -0.3074
C18A C 0.1580(2) 0.07948(19) -0.2123(6)
H9A H 0.1245 0.0661 -0.2770
C19A C 0.2548(2) -0.17549(17) -0.1216(6)
H10A H 0.2224 -0.1960 -0.0727
C20A C 0.34968(19) -0.11360(18) -0.2510(7)
H11A H 0.3837 -0.0928 -0.2886
C21A C -0.4792(2) -0.1510(2) -1.4966(6)
H12A H -0.5206 -0.1440 -1.4737
C22A C -0.5119(2) -0.2162(2) -1.7393(7)
C23A C 0.07254(19) 0.20025(17) -1.7450(6)
C24A C 0.22019(16) -0.00181(17) -0.3310(5)
H13A H 0.1869 -0.0288 -0.3074
C25A C -0.4624(2) -0.18861(19) -1.6323(6)
C26A C 0.0870(2) 0.0487(2) -0.8064(7)
H14A H 0.0636 0.0812 -0.8266
C27A C 0.29214(19) -0.08851(17) -0.2443(6)
C28A C 0.1042(2) -0.0449(2) -0.8542(8)
H15A H 0.0934 -0.0790 -0.9083
C29A C -0.40084(18) -0.19899(18) -1.6662(6)
H16A H -0.3896 -0.2237 -1.7577
C30A C 0.01343(17) 0.18432(16) -1.6524(6)
C31A C 0.4091(2) -0.0701(2) -0.8527(7)
H17A H 0.4264 -0.1015 -0.9089
C32A C 0.1542(2) -0.04431(19) -0.7424(7)
H18A H 0.1762 -0.0775 -0.7218
C33A C 0.2521(2) 0.11993(19) -0.0143(6)
H19A H 0.2850 0.1337 0.0522
C34A C 0.4081(3) 0.0244(2) -0.7980(9)
H20A H 0.4248 0.0604 -0.8143
C35A C -0.28800(19) -0.18019(18) -1.6014(6)
C36A C -0.04248(19) 0.20410(18) -1.7157(6)
H21A H -0.0433 0.2286 -1.8134
C37A C 0.01435(19) 0.14759(18) -1.5046(6)
H22A H 0.0518 0.1358 -1.4572
C38A C 0.1531(2) 0.12831(19) -0.1133(6)
H23A H 0.1161 0.1481 -0.1162
C39A C 0.22724(18) 0.00894(17) -0.5389(5)
H24A H 0.2482 0.0452 -0.5580
C40A C 0.35609(19) -0.16961(18) -0.2015(7)
H25A H 0.3948 -0.1862 -0.2103
C41A C -0.35562(18) -0.17243(18) -1.5628(6)
C42A C 0.2599(2) 0.07057(19) -0.1105(6)
H26A H 0.2970 0.0511 -0.1041
O12A O -0.56617(14) -0.20765(17) -1.7124(6)
O13 O 0.30856(16) -0.24648(17) -1.6838(7)
H27 H 0.3424 -0.2291 -1.7001
H28 H 0.3116 -0.2688 -1.5948
loop_
_geom_bond_atom_site_label_1
_geom_bond_atom_site_label_2
_geom_bond_site_symmetry_1
_geom_bond_site_symmetry_2
Zn1 O9 1_555 1_555
Zn2 O5 1_555 1_555
Zn3 O2 1_555 1_555
O1 C23 1_555 1_555
O2 C23 1_555 1_555
O3 C35 1_555 1_555
O4 C35 1_555 1_555
O5 C5 1_555 1_555
O6 C2 1_555 1_555
O7 C2 1_555 1_555
O8 C22 1_555 1_555
O9 C12 1_555 1_555
O10 C12 1_555 1_555
O11 C5 1_555 1_555
N1 Zn1 1_555 1_555
N2 C33 1_555 1_555
N3 C19 1_555 1_555
N4 Zn2 1_555 1_555
C1 C2 1_555 1_555
C3 H1 1_555 1_555
C4 C3 1_555 1_555
C5 C4 1_555 1_555
C6 H2 1_555 1_555
C7 C6 1_555 1_555
C8 C7 1_555 1_555
H3 C8 1_555 1_555
C9 C14 1_555 1_555
C10 C7 1_555 1_555
H4 C10 1_555 1_555
C11 H5 1_555 1_555
C12 C13 1_555 1_555
C13 C15 1_555 1_555
C14 H6 1_555 1_555
C15 C1 1_555 1_555
H7 C15 1_555 1_555
C16 C18 1_555 1_555
C17 C6 1_555 1_555
H8 C17 1_555 1_555
C18 H9 1_555 1_555
C19 C11 1_555 1_555
H10 C19 1_555 1_555
C20 H11 1_555 1_555
C21 C4 1_555 1_555
H12 C21 1_555 1_555
C22 C25 1_555 1_555
C23 C30 1_555 1_555
C24 C16 1_555 1_555
H13 C24 1_555 1_555
C25 C21 1_555 1_555
C26 N1 1_555 1_555
H14 C26 1_555 1_555
C27 C11 1_555 1_555
C28 N1 1_555 1_555
H15 C28 1_555 1_555
C29 C25 1_555 1_555
H16 C29 1_555 1_555
C30 C36 1_555 1_555
C31 N4 1_555 1_555
H17 C31 1_555 1_555
C32 C9 1_555 1_555
H18 C32 1_555 1_555
C33 H19 1_555 1_555
C34 N4 1_555 1_555
H20 C34 1_555 1_555
C35 C41 1_555 1_555
C36 C1 1_555 1_555
H21 C36 1_555 1_555
C37 C13 1_555 1_555
H22 C37 1_555 1_555
C38 N2 1_555 1_555
H23 C38 1_555 1_555
C39 C6 1_555 1_555
H24 C39 1_555 1_555
C40 N3 1_555 1_555
H25 C40 1_555 1_555
C41 C3 1_555 1_555
C42 C16 1_555 1_555
H26 C42 1_555 1_555
O12 C22 1_555 1_555
O13 H27 1_555 1_555
H28 O13 1_555 1_555
Zn2_2 N4A 1_555 1_555
Zn3A O2A 1_555 1_555
Zn3A_2 O3 1_555 1_555
Zn3_2 N2 1_555 1_555
Zn3C N3 1_555 1_555
Zn3A_3 N2A 1_555 1_555
Zn3B N3A 1_555 1_555
O1A C23A 1_555 1_555
O2A C23A 1_555 1_555
O3A Zn3 1_555 1_555
O3_2 Zn3A 1_555 1_555
O4A C35A 1_555 1_555
O5A Zn2 1_555 1_555
O6A C2A 1_555 1_555
O7A C2A 1_555 1_555
O8A C22A 1_555 1_555
O9A Zn1 1_555 1_555
O10A C12A 1_555 1_555
O11A C5A 1_555 1_555
N1A Zn1 1_555 1_555
N2A C33A 1_555 1_555
N2_2 Zn3 1_555 1_555
N2A_2 Zn3A 1_555 1_555
N3A C19A 1_555 1_555
N3C Zn3 1_555 1_555
N3B Zn3A 1_555 1_555
N4A C31A 1_555 1_555
N4A_2 Zn2 1_555 1_555
C1A C2A 1_555 1_555
C3A H1A 1_555 1_555
C4A C3A 1_555 1_555
C5A O5A 1_555 1_555
C6A H2A 1_555 1_555
C7A C6A 1_555 1_555
C8A C7A 1_555 1_555
H3A C8A 1_555 1_555
C9A C14A 1_555 1_555
C10A C7A 1_555 1_555
H4A C10A 1_555 1_555
C11A H5A 1_555 1_555
C12A O9A 1_555 1_555
C13A C12A 1_555 1_555
C14A H6A 1_555 1_555
C15A C1A 1_555 1_555
H7A C15A 1_555 1_555
C16A C18A 1_555 1_555
C17A C6A 1_555 1_555
H8A C17A 1_555 1_555
C18A H9A 1_555 1_555
C19A C11A 1_555 1_555
H10A C19A 1_555 1_555
C20A H11A 1_555 1_555
C21A C4A 1_555 1_555
H12A C21A 1_555 1_555
C22A C25A 1_555 1_555
C23A C30A 1_555 1_555
C24A C16A 1_555 1_555
H13A C24A 1_555 1_555
C25A C21A 1_555 1_555
C26A N1A 1_555 1_555
H14A C26A 1_555 1_555
C27A C11A 1_555 1_555
C28A N1A 1_555 1_555
H15A C28A 1_555 1_555
C29A C25A 1_555 1_555
H16A C29A 1_555 1_555
C30A C36A 1_555 1_555
C31A C10A 1_555 1_555
H17A C31A 1_555 1_555
C32A C9A 1_555 1_555
H18A C32A 1_555 1_555
C33A H19A 1_555 1_555
C34A N4A 1_555 1_555
H20A C34A 1_555 1_555
C35A O3A 1_555 1_555
C36A C1A 1_555 1_555
H21A C36A 1_555 1_555
C37A C13A 1_555 1_555
H22A C37A 1_555 1_555
C38A N2A 1_555 1_555
H23A C38A 1_555 1_555
C39A C6A 1_555 1_555
H24A C39A 1_555 1_555
C40A N3A 1_555 1_555
H25A C40A 1_555 1_555
C41A C3A 1_555 1_555
C42A C16A 1_555 1_555
H26A C42A 1_555 1_555
O12A C22A 1_555 1_555
C8 C34 1_555 1_555
C9 C39 1_555 1_555
C10 C31 1_555 1_555
C14 C26 1_555 1_555
C17 C24 1_555 1_555
C17 C27 1_555 1_555
C18 C38 1_555 1_555
C20 C27 1_555 1_555
C20 C40 1_555 1_555
C24 C39 1_555 1_555
C28 C32 1_555 1_555
C29 C41 1_555 1_555
C30 C37 1_555 1_555
C33 C42 1_555 1_555
C4A C5A 1_555 1_555
C8A C34A 1_555 1_555
C9A C39A 1_555 1_555
C13A C15A 1_555 1_555
C14A C26A 1_555 1_555
C17A C24A 1_555 1_555
C17A C27A 1_555 1_555
C18A C38A 1_555 1_555
C20A C27A 1_555 1_555
C20A C40A 1_555 1_555
C24A C39A 1_555 1_555
C28A C32A 1_555 1_555
C29A C41A 1_555 1_555
C30A C37A 1_555 1_555
C33A C42A 1_555 1_555
C35A C41A 1_555 1_555

#END
