
#######################################################################
#
#                 Cambridge Crystallographic Data Centre
#                                CCDC 
#
#######################################################################
#
# If this CIF has been generated from an entry in the Cambridge 
# Structural Database, then it will include bibliographic, chemical, 
# crystal, experimental, refinement or atomic coordinate data resulting 
# from the CCDC's data processing and validation procedures.
#
#######################################################################

data_NESQIN
_symmetry_cell_setting           orthorhombic
_symmetry_space_group_name_H-M   'P c a 21'
_symmetry_Int_Tables_number      29
_space_group_name_Hall           'P 2c -2ac'
loop_
_symmetry_equiv_pos_site_id
_symmetry_equiv_pos_as_xyz
1 x,y,z
2 -x,-y,1/2+z
3 1/2-x,y,1/2+z
4 1/2+x,-y,z
_cell_length_a                   15.8517(5)
_cell_length_b                   11.2658(4)
_cell_length_c                   34.8339(9)
_cell_angle_alpha                90
_cell_angle_beta                 90
_cell_angle_gamma                90
_cell_volume                     6220.71
loop_
_atom_site_label
_atom_site_type_symbol
_atom_site_fract_x
_atom_site_fract_y
_atom_site_fract_z
C1 C 0.8183(6) 0.5456(11) 0.7452(3)
H1 H 0.8442 0.5548 0.7215
C2 C 0.8256(5) 0.5032(6) 0.8110(3)
H2 H 0.8577 0.4812 0.8321
C3 C 0.2558(5) 1.1406(6) 0.8356(2)
H3 H 0.2758 1.1598 0.8599
C4 C 0.2115(5) 0.8338(6) 0.5785(2)
H4 H 0.2426 0.8999 0.5861
C5 C 0.6729(4) 1.5648(6) 0.4080(2)
C6 C -0.2011(4) 1.1250(6) 0.48996(19)
H5 H -0.1930 1.1993 0.5010
C7 C 0.2145(5) 1.1647(6) 0.5635(3)
C8 C 0.6944(5) 0.5500(7) 0.7848(2)
H6 H 0.6366 0.5622 0.7870
C9 C 0.2007(5) 0.6276(7) 0.5717(3)
H7 H 0.2229 0.5516 0.5746
C10 C -0.5477(5) 1.3415(6) 0.3644(2)
C11 C -0.1457(5) 1.0337(6) 0.49839(19)
C12 C 0.5695(5) 1.4551(6) 0.4490(2)
H8 H 0.5965 1.3848 0.4423
C13 C 0.0892(5) 0.7563(6) 0.5534(3)
H9 H 0.0355 0.7665 0.5431
C14 C 0.3362(5) 1.3049(6) 0.5654(2)
H10 H 0.3552 1.2649 0.5871
C15 C 0.5988(5) 1.5609(6) 0.4349(2)
C16 C 0.3105(5) 1.1316(7) 0.8043(2)
C17 C 0.2467(5) 0.7261(6) 0.5823(2)
C18 C -0.0605(6) 1.0038(7) 0.6220(3)
H11 H -0.0914 0.9782 0.6008
C19 C -0.2279(5) 0.9052(6) 0.45691(18)
H12 H -0.2371 0.8313 0.4458
C20 C 0.8652(5) 0.5160(8) 0.7766(3)
H13 H 0.9231 0.5046 0.7745
C21 C -0.4935(4) 1.2432(6) 0.3808(2)
C22 C -0.4212(5) 1.2065(6) 0.3620(2)
H14 H -0.4061 1.2425 0.3390
C23 C 0.5541(6) 1.1278(7) 0.8669(3)
H15 H 0.5301 1.0525 0.8658
C24 C 0.5118(5) 1.2248(6) 0.8527(2)
C25 C 0.5041(5) 0.6483(6) 0.5985(2)
H16 H 0.4825 0.6726 0.5749
C26 C 0.2638(4) 1.2678(6) 0.54807(19)
C27 C -0.1020(7) 1.0161(9) 0.6561(3)
H17 H -0.1599 1.0042 0.6580
C28 C 0.5904(5) 0.6282(6) 0.6027(2)
H18 H 0.6264 0.6333 0.5817
C29 C 0.3536(5) 1.4604(7) 0.5205(2)
C30 C 0.5600(5) 1.6666(7) 0.4454(2)
H19 H 0.5798 1.7384 0.4358
C31 C 0.5714(5) 0.5964(10) 0.6705(2)
C32 C -0.0548(6) 1.0467(10) 0.6872(3)
H20 H -0.0801 1.0558 0.7111
C33 C 0.1926(5) 1.0999(8) 0.7627(3)
C34 C 0.0683(5) 1.0575(8) 0.6473(2)
H21 H 0.1253 1.0746 0.6442
C35 C -0.1601(5) 0.9223(6) 0.4822(2)
H22 H -0.1246 0.8592 0.4881
C36 C -0.3714(5) 1.1180(6) 0.3767(2)
H23 H -0.3221 1.0952 0.3642
C37 C 0.7335(6) 0.5619(9) 0.7487(2)
C38 C 0.4508(5) 0.6321(6) 0.6294(2)
C39 C 0.4837(5) 0.6111(8) 0.6650(2)
H24 H 0.4478 0.6064 0.6861
C40 C 0.1705(5) 1.1198(7) 0.8291(2)
H25 H 0.1336 1.1215 0.8499
C41 C 0.6667(5) 1.2555(7) 0.8835(2)
H26 H 0.7202 1.2644 0.8941
C42 C 0.4987(5) 1.4516(6) 0.4736(2)
H27 H 0.4777 1.3796 0.4826
C43 C 0.4621(4) 1.5551(6) 0.4839(2)
C44 C 0.1207(5) 0.6444(6) 0.5567(3)
H28 H 0.0886 0.5795 0.5490
C45 C 0.2784(5) 1.1142(8) 0.7679(3)
H29 H 0.3145 1.1121 0.7469
C46 C 0.4919(5) 1.6645(6) 0.4701(2)
H30 H 0.4661 1.7349 0.4776
C47 C 0.3561(5) 0.6442(8) 0.6241(2)
C48 C 0.5501(5) 1.3367(7) 0.8546(2)
H31 H 0.5214 1.4023 0.8451
C49 C -0.3955(5) 1.0636(6) 0.4103(2)
C50 C -0.4666(5) 1.0992(7) 0.4288(2)
H32 H -0.4816 1.0633 0.4519
C51 C 0.2373(5) 1.3305(6) 0.5154(2)
H33 H 0.1883 1.3075 0.5027
C52 C -0.2686(5) 1.1072(6) 0.46533(19)
H34 H -0.3057 1.1690 0.4600
C53 C 0.4020(5) 1.1472(8) 0.8096(2)
C54 C 0.1386(5) 1.0969(8) 0.7932(2)
H35 H 0.0817 1.0798 0.7897
C55 C 0.3823(5) 1.4008(6) 0.5516(2)
H36 H 0.4323 1.4235 0.5635
C56 C -0.5158(5) 1.1863(6) 0.4142(2)
H37 H -0.5651 1.2078 0.4268
C57 C 0.0324(6) 1.0645(8) 0.6829(2)
C58 C 0.6307(6) 1.1441(7) 0.8823(3)
H38 H 0.6600 1.0795 0.8923
C59 C 0.6215(5) 0.6006(8) 0.6388(2)
H39 H 0.6788 0.5844 0.6414
C60 C 0.2836(6) 1.4264(7) 0.5017(2)
H40 H 0.2664 1.4666 0.4797
C61 C -0.2802(5) 0.9974(5) 0.4489(2)
C62 C 0.6010(7) 0.5709(10) 0.7096(3)
C63 C 0.1605(6) 1.0744(10) 0.7232(3)
C64 C -0.0727(5) 1.0521(6) 0.5249(2)
N1 N 0.1324(3) 0.8513(5) 0.5642(2)
N2 N 0.3304(4) 0.7153(5) 0.5953(2)
H41 H 0.3681 0.7575 0.5840
N3 N 0.6854(5) 0.5917(8) 0.7160(2)
H42 H 0.7121 0.6273 0.6978
N4 N 0.7398(5) 0.5214(5) 0.81617(17)
N5 N 0.4267(4) 1.2147(5) 0.84008(19)
H43 H 0.3886 1.2534 0.8524
N6 N 0.0783(5) 1.0988(8) 0.7165(2)
H44 H 0.0515 1.1379 0.7338
N7 N 0.0217(4) 1.0261(5) 0.61695(18)
N8 N 0.6268(4) 1.3515(5) 0.86969(17)
O3 O 0.7188(3) 1.4717(4) 0.40512(16)
O4 O 0.6873(4) 1.6565(5) 0.38985(15)
O5 O 0.2380(4) 1.1133(5) 0.59276(19)
O6 O 0.1476(3) 1.1385(4) 0.54497(16)
O7 O 0.3919(4) 1.5637(4) 0.50820(17)
O8 O -0.6119(3) 1.3700(5) 0.38439(17)
O9 O -0.5270(4) 1.3896(4) 0.33394(17)
O10 O -0.3471(4) 0.9695(4) 0.42373(16)
O11 O -0.0679(3) 1.1464(5) 0.54364(15)
O12 O -0.0173(3) 0.9716(4) 0.52642(14)
O13 O 0.4558(4) 1.0948(9) 0.7894(2)
O14 O 0.2071(5) 1.0330(11) 0.6968(2)
O15 O 0.3072(4) 0.5928(8) 0.6453(2)
O16 O 0.5563(5) 0.5290(12) 0.7344(3)
Zn1 Zn 0.07286(5) 1.01470(7) 0.56262(2)
Zn2 Zn 0.68917(6) 1.51091(7) 0.86834(2)
N4_2 N 0.7398(5) 1.5214(5) 0.81617(17)
O3B O 0.7812(3) 1.4717(4) 0.90512(16)
O8A O 0.6119(3) 1.6300(5) 0.88439(17)
Zn2_2 Zn 0.68917(6) 0.51091(7) 0.86834(2)
Zn2B Zn 0.81083(6) 1.51091(7) 0.36834(2)
Zn2A Zn -0.68917(6) 1.48909(7) 0.36834(2)
O1 O 0.9655(6) 0.2348(8) 0.7639(2)
O2 O 0.7977(6) 0.7337(9) 0.6663(2)
loop_
_geom_bond_atom_site_label_1
_geom_bond_atom_site_label_2
_geom_bond_site_symmetry_1
_geom_bond_site_symmetry_2
C1 H1 1_555 1_555
C2 H2 1_555 1_555
C3 H3 1_555 1_555
C4 H4 1_555 1_555
C5 C15 1_555 1_555
C6 H5 1_555 1_555
C7 C26 1_555 1_555
C8 H6 1_555 1_555
C9 H7 1_555 1_555
C10 C21 1_555 1_555
C11 C6 1_555 1_555
C12 H8 1_555 1_555
C13 H9 1_555 1_555
C14 H10 1_555 1_555
C15 C12 1_555 1_555
C16 C3 1_555 1_555
C17 C4 1_555 1_555
C18 H11 1_555 1_555
C19 H12 1_555 1_555
C20 C1 1_555 1_555
H13 C20 1_555 1_555
C21 C22 1_555 1_555
C22 H14 1_555 1_555
C23 H15 1_555 1_555
C24 C23 1_555 1_555
C25 H16 1_555 1_555
C26 C14 1_555 1_555
C27 C18 1_555 1_555
H17 C27 1_555 1_555
C28 C25 1_555 1_555
H18 C28 1_555 1_555
C29 C55 1_555 1_555
C30 C15 1_555 1_555
H19 C30 1_555 1_555
C31 C39 1_555 1_555
C32 C27 1_555 1_555
H20 C32 1_555 1_555
C33 C45 1_555 1_555
C34 H21 1_555 1_555
C35 C11 1_555 1_555
H22 C35 1_555 1_555
C36 C22 1_555 1_555
H23 C36 1_555 1_555
C37 C1 1_555 1_555
C38 C25 1_555 1_555
C39 C38 1_555 1_555
H24 C39 1_555 1_555
C40 C3 1_555 1_555
H25 C40 1_555 1_555
C41 H26 1_555 1_555
C42 C12 1_555 1_555
H27 C42 1_555 1_555
C43 C42 1_555 1_555
C44 C9 1_555 1_555
H28 C44 1_555 1_555
C45 C16 1_555 1_555
H29 C45 1_555 1_555
C46 C30 1_555 1_555
H30 C46 1_555 1_555
C47 C38 1_555 1_555
C48 C24 1_555 1_555
H31 C48 1_555 1_555
C49 C36 1_555 1_555
C50 C49 1_555 1_555
H32 C50 1_555 1_555
C51 C26 1_555 1_555
H33 C51 1_555 1_555
C52 C6 1_555 1_555
H34 C52 1_555 1_555
C53 C16 1_555 1_555
C54 C33 1_555 1_555
H35 C54 1_555 1_555
C55 C14 1_555 1_555
H36 C55 1_555 1_555
C56 C21 1_555 1_555
H37 C56 1_555 1_555
C57 C32 1_555 1_555
C58 C23 1_555 1_555
H38 C58 1_555 1_555
C59 C28 1_555 1_555
H39 C59 1_555 1_555
C60 C29 1_555 1_555
H40 C60 1_555 1_555
C61 C19 1_555 1_555
C62 C31 1_555 1_555
C63 C33 1_555 1_555
C64 C11 1_555 1_555
N1 C4 1_555 1_555
N2 C17 1_555 1_555
H41 N2 1_555 1_555
N3 C37 1_555 1_555
H42 N3 1_555 1_555
N4 C2 1_555 1_555
N5 C24 1_555 1_555
H43 N5 1_555 1_555
N6 C57 1_555 1_555
H44 N6 1_555 1_555
N7 C18 1_555 1_555
N8 C41 1_555 1_555
O3 C5 1_555 1_555
O4 C5 1_555 1_555
O5 C7 1_555 1_555
O6 C7 1_555 1_555
O7 C29 1_555 1_555
O8 C10 1_555 1_555
O9 C10 1_555 1_555
O10 C49 1_555 1_555
O11 C64 1_555 1_555
O12 C64 1_555 1_555
O13 C53 1_555 1_555
O14 C63 1_555 1_555
O15 C47 1_555 1_555
O16 C62 1_555 1_555
Zn1 N1 1_555 1_555
Zn2 N8 1_555 1_555
N4_2 Zn2 1_555 1_555
O3B Zn2 1_555 1_555
O8A Zn2 1_555 1_555
Zn2_2 N4 1_555 1_555
Zn2B O3 1_555 1_555
Zn2A O8 1_555 1_555
C2 C20 1_555 1_555
C8 C37 1_555 1_555
C8 N4 1_555 1_555
C9 C17 1_555 1_555
C13 C44 1_555 1_555
C13 N1 1_555 1_555
C19 C35 1_555 1_555
C31 C59 1_555 1_555
C34 C57 1_555 1_555
C34 N7 1_555 1_555
C40 C54 1_555 1_555
C41 C58 1_555 1_555
C43 C46 1_555 1_555
C43 O7 1_555 1_555
C47 N2 1_555 1_555
C48 N8 1_555 1_555
C50 C56 1_555 1_555
C51 C60 1_555 1_555
C52 C61 1_555 1_555
C53 N5 1_555 1_555
C61 O10 1_555 1_555
C62 N3 1_555 1_555
C63 N6 1_555 1_555
N7 Zn1 1_555 1_555
O6 Zn1 1_555 1_555
O12 Zn1 1_555 1_555

#END
