
#######################################################################
#
#                 Cambridge Crystallographic Data Centre
#                                CCDC 
#
#######################################################################
#
# If this CIF has been generated from an entry in the Cambridge 
# Structural Database, then it will include bibliographic, chemical, 
# crystal, experimental, refinement or atomic coordinate data resulting 
# from the CCDC's data processing and validation procedures.
#
#######################################################################

data_NESTEK
_symmetry_cell_setting           monoclinic
_symmetry_space_group_name_H-M   'P 21/c'
_symmetry_Int_Tables_number      14
_space_group_name_Hall           '-P 2ybc'
loop_
_symmetry_equiv_pos_site_id
_symmetry_equiv_pos_as_xyz
1 x,y,z
2 -x,1/2+y,1/2-z
3 -x,-y,-z
4 x,1/2-y,1/2+z
_cell_length_a                   9.155(5)
_cell_length_b                   9.345(3)
_cell_length_c                   17.563(9)
_cell_angle_alpha                90
_cell_angle_beta                 94.71(4)
_cell_angle_gamma                90
_cell_volume                     1497.5
loop_
_atom_site_label
_atom_site_type_symbol
_atom_site_fract_x
_atom_site_fract_y
_atom_site_fract_z
Pb1 Pb 0.08826(4) 0.21866(5) 0.17592(2)
O1 O 0.1556(10) 0.4319(10) 0.1155(5)
O2 O 0.2016(9) 0.2321(10) 0.0606(4)
O3 O 0.1244(8) -0.0201(8) 0.1404(5)
O4 O -0.0062(8) 0.4119(9) 0.2616(5)
C1 C 0.2035(12) 0.3656(14) 0.0617(7)
C2 C 0.2648(17) 0.4443(16) -0.0024(8)
C3 C 0.0562(9) -0.1114(12) 0.1753(6)
C4 C 0.0369(18) -0.2549(15) 0.1364(9)
C5 C 0.2847(11) 0.2171(14) 0.2537(7)
C6 C 0.3734(14) 0.1003(15) 0.2553(8)
C7 C 0.5046(13) 0.1000(16) 0.3022(9)
C8 C 0.5397(14) 0.2168(19) 0.3474(7)
C9 C 0.4492(14) 0.3324(17) 0.3479(8)
C10 C 0.3199(13) 0.3329(15) 0.2986(8)
C11 C -0.1340(11) 0.2010(12) 0.1243(7)
C12 C -0.2518(13) 0.2618(15) 0.1537(7)
C13 C -0.3904(13) 0.2450(14) 0.1165(8)
C14 C -0.4096(13) 0.1713(15) 0.0496(7)
C15 C -0.2902(13) 0.1092(15) 0.0211(7)
C16 C -0.1516(13) 0.1270(14) 0.0562(7)
O4A O 0.0062(8) -0.0881(9) 0.2384(5)
Pb1A Pb -0.08826(4) -0.28134(5) 0.32408(2)
loop_
_geom_bond_atom_site_label_1
_geom_bond_atom_site_label_2
_geom_bond_site_symmetry_1
_geom_bond_site_symmetry_2
Pb1 O1 1_555 1_555
O1 C1 1_555 1_555
O2 Pb1 1_555 1_555
O3 Pb1 1_555 1_555
O4 Pb1 1_555 1_555
C1 O2 1_555 1_555
C2 C1 1_555 1_555
C3 O3 1_555 1_555
C4 C3 1_555 1_555
C5 Pb1 1_555 1_555
C6 C5 1_555 1_555
C7 C6 1_555 1_555
C8 C7 1_555 1_555
C9 C8 1_555 1_555
C10 C5 1_555 1_555
C11 Pb1 1_555 1_555
C12 C11 1_555 1_555
C13 C12 1_555 1_555
C14 C13 1_555 1_555
C15 C14 1_555 1_555
C16 C11 1_555 1_555
O4A C3 1_555 1_555
Pb1A O4A 1_555 1_555
C9 C10 1_555 1_555
C15 C16 1_555 1_555

#END
