
#######################################################################
#
#                 Cambridge Crystallographic Data Centre
#                                CCDC 
#
#######################################################################
#
# If this CIF has been generated from an entry in the Cambridge 
# Structural Database, then it will include bibliographic, chemical, 
# crystal, experimental, refinement or atomic coordinate data resulting 
# from the CCDC's data processing and validation procedures.
#
#######################################################################

data_NETGOJ
_symmetry_cell_setting           triclinic
_symmetry_space_group_name_H-M   'P -1'
_symmetry_Int_Tables_number      2
_space_group_name_Hall           '-P 1'
loop_
_symmetry_equiv_pos_site_id
_symmetry_equiv_pos_as_xyz
1 x,y,z
2 -x,-y,-z
_cell_length_a                   9.0953(18)
_cell_length_b                   15.939(3)
_cell_length_c                   17.300(4)
_cell_angle_alpha                113.92(3)
_cell_angle_beta                 91.97(3)
_cell_angle_gamma                91.79(3)
_cell_volume                     2288.42
loop_
_atom_site_label
_atom_site_type_symbol
_atom_site_fract_x
_atom_site_fract_y
_atom_site_fract_z
Hg1 Hg 0.04631(2) 0.226620(12) 0.477061(11)
Cl1 Cl -0.03298(17) 0.14907(11) 0.56261(10)
Cl2 Cl -0.06328(17) 0.29079(10) 0.38766(9)
N1 N 0.1874(4) 0.3558(3) 0.5715(2)
C1 C 0.1849(6) 0.4351(4) 0.5618(3)
H1 H 0.1265 0.4367 0.5160
C2 C 0.2626(6) 0.5141(4) 0.6149(4)
H2 H 0.2586 0.5689 0.6059
C3 C 0.3467(6) 0.5113(4) 0.6819(3)
H3 H 0.3999 0.5649 0.7207
C4 C 0.3524(5) 0.4292(3) 0.6919(3)
C5 C 0.2696(5) 0.3529(3) 0.6361(3)
H4 H 0.2711 0.2972 0.6438
C6 C 0.4468(5) 0.4258(3) 0.7623(3)
O1 O 0.5147(5) 0.4913(3) 0.8154(3)
O2 O 0.4504(4) 0.3395(2) 0.7577(2)
C7 C 0.5368(5) 0.3254(3) 0.8201(3)
C8 C 0.4922(5) 0.3548(4) 0.9019(3)
H5 H 0.4063 0.3888 0.9183
C9 C 0.5759(5) 0.3336(4) 0.9600(3)
H6 H 0.5467 0.3538 1.0166
C10 C 0.7018(5) 0.2832(3) 0.9364(3)
C11 C 0.7432(5) 0.2556(3) 0.8536(3)
H7 H 0.8291 0.2218 0.8367
C12 C 0.6622(5) 0.2764(3) 0.7952(3)
H8 H 0.6922 0.2572 0.7388
C13 C 0.7996(5) 0.2691(3) 1.0037(3)
C14 C 0.8998(5) 0.3557(3) 1.0457(3)
C15 C 0.8610(5) 0.4452(3) 1.0900(3)
H9 H 0.7611 0.4591 1.1013
C16 C 0.9720(5) 0.5144(3) 1.1174(3)
C17 C 1.1195(5) 0.4957(4) 1.1017(3)
H10 H 1.1931 0.5443 1.1205
C18 C 1.1577(5) 0.4057(4) 1.0583(3)
H11 H 1.2578 0.3917 1.0477
C19 C 1.0473(5) 0.3360(3) 1.0305(3)
Br1 Br 0.92152(6) 0.63740(3) 1.18042(4)
C20 C 1.0557(5) 0.2360(3) 0.9840(3)
C21 C 1.1774(6) 0.1815(4) 0.9601(3)
H12 H 1.2744 0.2090 0.9706
C22 C 1.1552(6) 0.0873(4) 0.9210(3)
H13 H 1.2368 0.0492 0.9049
C23 C 1.0137(6) 0.0490(4) 0.9055(3)
C24 C 0.8905(5) 0.1018(3) 0.9280(3)
H14 H 0.7938 0.0739 0.9165
C25 C 0.9133(5) 0.1957(3) 0.9673(3)
Br2 Br 0.98435(8) -0.08125(4) 0.85340(4)
C26 C 0.7085(5) 0.2420(3) 1.0641(3)
C27 C 0.7532(5) 0.2710(3) 1.1496(3)
H15 H 0.8368 0.3122 1.1721
C28 C 0.6766(5) 0.2402(3) 1.2020(3)
H16 H 0.7072 0.2600 1.2600
C29 C 0.5566(5) 0.1808(3) 1.1688(3)
C30 C 0.5093(5) 0.1498(3) 1.0846(3)
H17 H 0.4262 0.1081 1.0627
C31 C 0.5866(5) 0.1813(3) 1.0328(3)
H18 H 0.5553 0.1608 0.9749
O3 O 0.4748(4) 0.1568(2) 1.2258(2)
C32 C 0.4525(5) 0.0673(3) 1.2099(3)
O4 O 0.4988(5) 0.0046(3) 1.1518(2)
C33 C 0.3612(5) 0.0557(3) 1.2755(3)
C34 C 0.3541(6) -0.0289(4) 1.2799(3)
H19 H 0.4051 -0.0788 1.2417
C35 C 0.2825(5) 0.1268(3) 1.3310(3)
H20 H 0.2859 0.1844 1.3267
N2 N 0.2023(4) 0.1165(3) 1.3899(2)
C36 C 0.1981(6) 0.0338(3) 1.3954(3)
H21 H 0.1428 0.0266 1.4382
C37 C 0.2702(7) -0.0393(4) 1.3419(4)
H22 H 0.2634 -0.0966 1.3467
Hg1_2 Hg 0.04631(2) 0.226620(12) 1.477061(11)
N2_2 N 0.2023(4) 0.1165(3) 0.3899(2)
C38 C 0.7887(8) 0.9551(4) 0.3459(4)
H23 H 0.8848 0.9497 0.3730
Cl3 Cl 0.6494(3) 0.9702(3) 0.41659(18)
Cl4 Cl 0.7449(3) 0.85338(15) 0.25686(15)
Cl5 Cl 0.8009(3) 1.04888(15) 0.31846(15)
C39 C 0.7721(8) 0.6024(6) 0.7345(5)
H24 H 0.7076 0.5687 0.7591
Cl6 Cl 0.7924(3) 0.71409(15) 0.80723(13)
Cl7 Cl 0.93631(19) 0.54807(12) 0.71398(11)
Cl8 Cl 0.6811(2) 0.59478(16) 0.63984(13)
C40 C 0.3618(7) 0.7358(5) 0.4849(4)
H25 H 0.2870 0.7731 0.5238
Cl9 Cl 0.4715(2) 0.80872(14) 0.45580(16)
Cl10 Cl 0.4687(2) 0.6845(2) 0.53881(17)
Cl11 Cl 0.2693(2) 0.65191(13) 0.39588(13)
loop_
_geom_bond_atom_site_label_1
_geom_bond_atom_site_label_2
_geom_bond_site_symmetry_1
_geom_bond_site_symmetry_2
Hg1 Cl1 1_555 1_555
Cl2 Hg1 1_555 1_555
N1 Hg1 1_555 1_555
C1 N1 1_555 1_555
H1 C1 1_555 1_555
C2 C1 1_555 1_555
H2 C2 1_555 1_555
C3 C2 1_555 1_555
H3 C3 1_555 1_555
C4 C3 1_555 1_555
C5 N1 1_555 1_555
H4 C5 1_555 1_555
C6 C4 1_555 1_555
O1 C6 1_555 1_555
O2 C6 1_555 1_555
C7 O2 1_555 1_555
C8 C7 1_555 1_555
H5 C8 1_555 1_555
C9 C8 1_555 1_555
H6 C9 1_555 1_555
C10 C9 1_555 1_555
C11 C10 1_555 1_555
H7 C11 1_555 1_555
C12 C7 1_555 1_555
H8 C12 1_555 1_555
C13 C10 1_555 1_555
C14 C13 1_555 1_555
C15 C14 1_555 1_555
H9 C15 1_555 1_555
C16 C15 1_555 1_555
C17 C16 1_555 1_555
H10 C17 1_555 1_555
C18 C17 1_555 1_555
H11 C18 1_555 1_555
C19 C14 1_555 1_555
Br1 C16 1_555 1_555
C20 C19 1_555 1_555
C21 C20 1_555 1_555
H12 C21 1_555 1_555
C22 C21 1_555 1_555
H13 C22 1_555 1_555
C23 C22 1_555 1_555
C24 C23 1_555 1_555
H14 C24 1_555 1_555
C25 C13 1_555 1_555
Br2 C23 1_555 1_555
C26 C13 1_555 1_555
C27 C26 1_555 1_555
H15 C27 1_555 1_555
C28 C27 1_555 1_555
H16 C28 1_555 1_555
C29 C28 1_555 1_555
C30 C29 1_555 1_555
H17 C30 1_555 1_555
C31 C26 1_555 1_555
H18 C31 1_555 1_555
O3 C29 1_555 1_555
C32 O3 1_555 1_555
O4 C32 1_555 1_555
C33 C32 1_555 1_555
C34 C33 1_555 1_555
H19 C34 1_555 1_555
C35 C33 1_555 1_555
H20 C35 1_555 1_555
N2 C35 1_555 1_555
C36 N2 1_555 1_555
H21 C36 1_555 1_555
C37 C34 1_555 1_555
H22 C37 1_555 1_555
C38 H23 1_555 1_555
Cl3 C38 1_555 1_555
Cl4 C38 1_555 1_555
Cl5 C38 1_555 1_555
C39 H24 1_555 1_555
Cl6 C39 1_555 1_555
Cl7 C39 1_555 1_555
Cl8 C39 1_555 1_555
C40 H25 1_555 1_555
Cl9 C40 1_555 1_555
Cl10 C40 1_555 1_555
Cl11 C40 1_555 1_555
Hg1_2 N2 1_555 1_555
N2_2 Hg1 1_555 1_555
C4 C5 1_555 1_555
C11 C12 1_555 1_555
C18 C19 1_555 1_555
C20 C25 1_555 1_555
C24 C25 1_555 1_555
C30 C31 1_555 1_555
C36 C37 1_555 1_555

#END
