
#######################################################################
#
#                 Cambridge Crystallographic Data Centre
#                                CCDC 
#
#######################################################################
#
# If this CIF has been generated from an entry in the Cambridge 
# Structural Database, then it will include bibliographic, chemical, 
# crystal, experimental, refinement or atomic coordinate data resulting 
# from the CCDC's data processing and validation procedures.
#
#######################################################################

data_NETHIE
_symmetry_cell_setting           triclinic
_symmetry_space_group_name_H-M   'P -1'
_symmetry_Int_Tables_number      2
_space_group_name_Hall           '-P 1'
loop_
_symmetry_equiv_pos_site_id
_symmetry_equiv_pos_as_xyz
1 x,y,z
2 -x,-y,-z
_cell_length_a                   9.1378(14)
_cell_length_b                   15.927(3)
_cell_length_c                   17.210(3)
_cell_angle_alpha                114.132(6)
_cell_angle_beta                 91.838(7)
_cell_angle_gamma                91.495(7)
_cell_volume                     2282.52
loop_
_atom_site_label
_atom_site_type_symbol
_atom_site_fract_x
_atom_site_fract_y
_atom_site_fract_z
Zn1 Zn 0.92408(13) 0.27410(8) 0.02527(8)
Br1 Br 1.05686(12) 0.22268(8) 0.11616(7)
Br2 Br 1.03849(13) 0.33975(9) -0.06012(8)
N1 N 0.7945(9) 0.3760(6) 0.1046(5)
C1 C 0.7187(11) 0.3670(7) 0.1643(6)
H1 H 0.7180 0.3107 0.1688
C2 C 0.6391(11) 0.4374(7) 0.2213(6)
C3 C 0.6460(12) 0.5209(8) 0.2169(8)
H2 H 0.5968 0.5701 0.2552
C4 C 0.7272(14) 0.5316(8) 0.1546(8)
H3 H 0.7343 0.5880 0.1505
C5 C 0.7951(12) 0.4587(8) 0.1006(8)
H4 H 0.8461 0.4657 0.0575
C6 C 0.5530(12) 0.4256(8) 0.2873(8)
O1 O 0.5068(9) 0.4908(6) 0.3471(5)
O2 O 0.5314(8) 0.3381(5) 0.2744(4)
C7 C 0.4493(12) 0.3145(7) 0.3316(6)
C8 C 0.3311(11) 0.2553(7) 0.2996(7)
H5 H 0.3026 0.2352 0.2423
C9 C 0.2517(12) 0.2238(7) 0.3511(7)
H6 H 0.1738 0.1810 0.3277
C10 C 0.2898(11) 0.2570(7) 0.4377(6)
C11 C 0.4115(12) 0.3185(8) 0.4697(7)
H7 H 0.4392 0.3400 0.5272
C12 C 0.4924(12) 0.3486(8) 0.4179(7)
H8 H 0.5722 0.3901 0.4401
C13 C 0.1995(10) 0.2308(7) 0.4979(7)
C14 C 0.1005(11) 0.1426(8) 0.4553(7)
C15 C 0.1394(11) 0.0545(8) 0.4100(7)
H9 H 0.2369 0.0410 0.3990
C16 C 0.0306(14) -0.0142(7) 0.3809(7)
Br3 Br 0.07984(14) -0.13717(8) 0.31684(8)
C17 C -0.1177(12) 0.0041(7) 0.3970(7)
H10 H -0.1897 -0.0431 0.3781
C18 C -0.1529(12) 0.0942(9) 0.4416(7)
H11 H -0.2507 0.1075 0.4522
C19 C -0.0491(12) 0.1651(7) 0.4710(7)
C20 C -0.0558(11) 0.2631(7) 0.5164(6)
C21 C -0.1797(13) 0.3174(8) 0.5403(7)
H12 H -0.2736 0.2901 0.5300
C22 C -0.1588(13) 0.4109(9) 0.5791(7)
H13 H -0.2388 0.4483 0.5940
C23 C -0.0163(12) 0.4499(7) 0.5961(7)
Br4 Br 0.01123(16) 0.58087(9) 0.64839(9)
C24 C 0.1090(12) 0.3979(7) 0.5737(7)
H14 H 0.2027 0.4256 0.5846
C25 C 0.0866(12) 0.3044(8) 0.5352(7)
C26 C 0.2957(10) 0.2181(7) 0.5681(6)
C27 C 0.2544(11) 0.2455(7) 0.6485(6)
H15 H 0.1684 0.2771 0.6640
C28 C 0.3371(11) 0.2280(7) 0.7101(7)
H16 H 0.3072 0.2478 0.7657
C29 C 0.4620(12) 0.1814(7) 0.6863(6)
C30 C 0.5070(13) 0.1487(8) 0.6033(7)
H17 H 0.5905 0.1146 0.5874
C31 C 0.4232(11) 0.1685(8) 0.5450(7)
H18 H 0.4523 0.1485 0.4892
O3 O 0.5501(8) 0.1676(5) 0.7495(4)
C32 C 0.5562(12) 0.0831(8) 0.7461(7)
O4 O 0.4923(9) 0.0152(6) 0.6927(5)
C33 C 0.6507(12) 0.0798(8) 0.8165(7)
C34 C 0.7264(10) 0.1576(7) 0.8746(6)
H19 H 0.7218 0.2120 0.8669
N2 N 0.8059(9) 0.1580(6) 0.9411(5)
C35 C 0.8125(12) 0.0771(7) 0.9497(7)
H20 H 0.8648 0.0761 0.9965
C36 C 0.7462(12) -0.0016(8) 0.8930(7)
H21 H 0.7561 -0.0562 0.8999
C37 C 0.6651(12) -0.0011(8) 0.8261(7)
H22 H 0.6192 -0.0553 0.7868
Zn1_2 Zn 0.92408(13) 0.27410(8) 1.02527(8)
N2_2 N 0.8059(9) 0.1580(6) -0.0589(5)
C38 C 0.2113(14) 0.5506(8) 0.1553(8)
H23 H 0.1192 0.5520 0.1252
Cl1 Cl 0.3554(5) 0.5492(4) 0.0931(4)
Cl2 Cl 0.2065(7) 0.4538(3) 0.1795(3)
Cl3 Cl 0.2319(7) 0.6496(3) 0.2492(3)
C39 C 0.2301(15) 0.8961(9) 0.7625(8)
H24 H 0.2885 0.9284 0.7357
Cl4 Cl 0.1989(5) 0.7826(3) 0.6889(2)
Cl5 Cl 0.3278(4) 0.9030(3) 0.8534(2)
Cl6 Cl 0.0616(3) 0.9509(2) 0.7888(2)
C40 C 0.3539(12) 0.2307(8) 0.9882(8)
H25 H 0.2736 0.2623 1.0236
Cl7 Cl 0.4598(4) 0.3119(2) 0.9660(2)
Cl8 Cl 0.2785(4) 0.1451(2) 0.8927(2)
Cl9 Cl 0.4598(4) 0.1828(3) 1.0439(3)
loop_
_geom_bond_atom_site_label_1
_geom_bond_atom_site_label_2
_geom_bond_site_symmetry_1
_geom_bond_site_symmetry_2
Zn1 Br1 1_555 1_555
Br2 Zn1 1_555 1_555
N1 Zn1 1_555 1_555
C1 N1 1_555 1_555
H1 C1 1_555 1_555
C2 C1 1_555 1_555
C3 C2 1_555 1_555
H2 C3 1_555 1_555
C4 C3 1_555 1_555
H3 C4 1_555 1_555
C5 N1 1_555 1_555
H4 C5 1_555 1_555
C6 C2 1_555 1_555
O1 C6 1_555 1_555
O2 C6 1_555 1_555
C7 O2 1_555 1_555
C8 C7 1_555 1_555
H5 C8 1_555 1_555
C9 C8 1_555 1_555
H6 C9 1_555 1_555
C10 C9 1_555 1_555
C11 C10 1_555 1_555
H7 C11 1_555 1_555
C12 C7 1_555 1_555
H8 C12 1_555 1_555
C13 C10 1_555 1_555
C14 C13 1_555 1_555
C15 C14 1_555 1_555
H9 C15 1_555 1_555
C16 C15 1_555 1_555
Br3 C16 1_555 1_555
C17 C16 1_555 1_555
H10 C17 1_555 1_555
C18 C17 1_555 1_555
H11 C18 1_555 1_555
C19 C14 1_555 1_555
C20 C19 1_555 1_555
C21 C20 1_555 1_555
H12 C21 1_555 1_555
C22 C21 1_555 1_555
H13 C22 1_555 1_555
C23 C22 1_555 1_555
Br4 C23 1_555 1_555
C24 C23 1_555 1_555
H14 C24 1_555 1_555
C25 C13 1_555 1_555
C26 C13 1_555 1_555
C27 C26 1_555 1_555
H15 C27 1_555 1_555
C28 C27 1_555 1_555
H16 C28 1_555 1_555
C29 C28 1_555 1_555
C30 C29 1_555 1_555
H17 C30 1_555 1_555
C31 C26 1_555 1_555
H18 C31 1_555 1_555
O3 C29 1_555 1_555
C32 O3 1_555 1_555
O4 C32 1_555 1_555
C33 C32 1_555 1_555
C34 C33 1_555 1_555
H19 C34 1_555 1_555
N2 C34 1_555 1_555
C35 N2 1_555 1_555
H20 C35 1_555 1_555
C36 C35 1_555 1_555
H21 C36 1_555 1_555
C37 C33 1_555 1_555
H22 C37 1_555 1_555
C38 H23 1_555 1_555
Cl1 C38 1_555 1_555
Cl2 C38 1_555 1_555
Cl3 C38 1_555 1_555
C39 H24 1_555 1_555
Cl4 C39 1_555 1_555
Cl5 C39 1_555 1_555
Cl6 C39 1_555 1_555
C40 H25 1_555 1_555
Cl7 C40 1_555 1_555
Cl8 C40 1_555 1_555
Cl9 C40 1_555 1_555
Zn1_2 N2 1_555 1_555
N2_2 Zn1 1_555 1_555
C4 C5 1_555 1_555
C11 C12 1_555 1_555
C18 C19 1_555 1_555
C20 C25 1_555 1_555
C24 C25 1_555 1_555
C30 C31 1_555 1_555
C36 C37 1_555 1_555

#END
