
#######################################################################
#
#                 Cambridge Crystallographic Data Centre
#                                CCDC 
#
#######################################################################
#
# If this CIF has been generated from an entry in the Cambridge 
# Structural Database, then it will include bibliographic, chemical, 
# crystal, experimental, refinement or atomic coordinate data resulting 
# from the CCDC's data processing and validation procedures.
#
#######################################################################

data_NETHEA
_symmetry_cell_setting           orthorhombic
_symmetry_space_group_name_H-M   'P b c a'
_symmetry_Int_Tables_number      61
_space_group_name_Hall           '-P 2ac 2ab'
loop_
_symmetry_equiv_pos_site_id
_symmetry_equiv_pos_as_xyz
1 x,y,z
2 1/2-x,-y,1/2+z
3 -x,1/2+y,1/2-z
4 1/2+x,1/2-y,-z
5 -x,-y,-z
6 1/2+x,y,1/2-z
7 x,1/2-y,1/2+z
8 1/2-x,1/2+y,z
_cell_length_a                   12.741(3)
_cell_length_b                   15.790(3)
_cell_length_c                   40.525(8)
_cell_angle_alpha                90
_cell_angle_beta                 90
_cell_angle_gamma                90
_cell_volume                     8152.84
loop_
_atom_site_label
_atom_site_type_symbol
_atom_site_fract_x
_atom_site_fract_y
_atom_site_fract_z
Hg1 Hg 0.672409(16) 1.168270(12) -0.007463(5)
I1 I 0.56140(3) 1.28810(2) -0.036182(10)
I2 I 0.81470(3) 1.04711(2) -0.010628(10)
N1 N 0.5351(3) 1.1027(2) 0.02854(10)
C1 C 0.5448(4) 1.0216(3) 0.03819(13)
H1 H 0.6013 0.9892 0.0296
C2 C 0.4761(4) 0.9829(3) 0.06025(13)
H2 H 0.4858 0.9257 0.0669
C3 C 0.3927(4) 1.0306(3) 0.07229(12)
C4 C 0.3803(4) 1.1138(3) 0.06161(13)
H3 H 0.3231 1.1472 0.0692
C5 C 0.4532(4) 1.1469(3) 0.03973(14)
H4 H 0.4444 1.2036 0.0324
C6 C 0.3145(4) 0.9947(3) 0.09678(13)
O1 O 0.2385(3) 1.0311(2) 0.10607(9)
O2 O 0.3442(2) 0.9154(2) 0.10595(8)
C7 C 0.2816(4) 0.8672(3) 0.12795(14)
C8 C 0.2351(3) 0.9007(3) 0.15606(12)
H5 H 0.2413 0.9593 0.1611
C9 C 0.1790(3) 0.8463(3) 0.17682(13)
H6 H 0.1476 0.8682 0.1963
C10 C 0.1683(3) 0.7603(3) 0.16943(12)
C11 C 0.2196(4) 0.7291(3) 0.14153(13)
H7 H 0.2158 0.6703 0.1368
C12 C 0.2752(4) 0.7810(3) 0.12074(13)
H8 H 0.3088 0.7585 0.1017
C13 C 0.1131(3) 0.6994(3) 0.19330(11)
C14 C 0.0371(3) 0.7445(3) 0.21732(13)
C15 C -0.0509(3) 0.7919(3) 0.20988(13)
H9 H -0.0713 0.8013 0.1876
C16 C -0.1085(4) 0.8254(3) 0.23567(15)
Br1 Br -0.22782(4) 0.89398(4) 0.226421(18)
C17 C -0.0814(4) 0.8110(3) 0.26856(15)
H10 H -0.1238 0.8332 0.2858
C18 C 0.0079(4) 0.7640(3) 0.27610(14)
H11 H 0.0282 0.7549 0.2984
C19 C 0.0669(4) 0.7304(3) 0.25020(13)
C20 C 0.1631(4) 0.6810(3) 0.25067(13)
C21 C 0.2246(4) 0.6519(3) 0.27702(14)
H12 H 0.2049 0.6636 0.2992
C22 C 0.3145(4) 0.6057(3) 0.27019(14)
H13 H 0.3575 0.5859 0.2877
C23 C 0.3414(3) 0.5887(3) 0.23775(14)
Br2 Br 0.46282(4) 0.52067(3) 0.228955(16)
C24 C 0.2826(4) 0.6164(3) 0.21120(14)
H14 H 0.3028 0.6042 0.1891
C25 C 0.1928(3) 0.6629(3) 0.21816(13)
C26 C 0.0520(3) 0.6293(3) 0.17496(12)
C27 C 0.0547(3) 0.5452(3) 0.18508(12)
H15 H 0.0981 0.5300 0.2032
C28 C -0.0046(4) 0.4821(3) 0.16943(13)
H16 H -0.0017 0.4249 0.1766
C29 C -0.0673(4) 0.5057(3) 0.14319(13)
C30 C -0.0746(4) 0.5894(3) 0.13333(13)
H17 H -0.1208 0.6051 0.1160
C31 C -0.0139(4) 0.6502(3) 0.14894(13)
H18 H -0.0175 0.7073 0.1417
O3 O -0.1286(2) 0.44929(19) 0.12384(8)
C32 C -0.1290(5) 0.3638(3) 0.12720(16)
O4 O -0.0906(5) 0.3256(3) 0.14890(13)
C33 C -0.1858(4) 0.3234(3) 0.09801(14)
C34 C -0.2314(4) 0.3694(3) 0.07313(15)
H19 H -0.2333 0.4295 0.0740
C35 C -0.2741(4) 0.3263(3) 0.04694(15)
H20 H -0.3067 0.3582 0.0299
N2 N -0.2725(3) 0.2423(2) 0.04410(11)
C36 C -0.2288(4) 0.1990(3) 0.06869(14)
H21 H -0.2275 0.1390 0.0672
C37 C -0.1856(4) 0.2364(3) 0.09597(15)
H22 H -0.1562 0.2030 0.1131
Hg1_2 Hg -0.327591(16) 0.168270(12) -0.007463(5)
N2_2 N 0.7275(3) 1.2423(2) 0.04410(11)
C38 C 0.5008(8) 0.4574(7) 0.1055(3)
H23 H 0.4298 0.4802 0.1112
Cl1 Cl 0.5516(3) 0.5132(3) 0.07283(10)
Cl2 Cl 0.4904(2) 0.34767(16) 0.09590(8)
Cl3 Cl 0.5961(3) 0.4734(2) 0.14333(10)
C39? C 0.517(2) 0.5123(15) 0.1315(7)
H24? H 0.4456 0.4858 0.1327
Cl4? Cl 0.4792(5) 0.6210(4) 0.13876(17)
Cl5? Cl 0.5303(8) 0.5180(7) 0.0829(2)
Cl6? Cl 0.5823(6) 0.4357(4) 0.1434(2)
loop_
_geom_bond_atom_site_label_1
_geom_bond_atom_site_label_2
_geom_bond_site_symmetry_1
_geom_bond_site_symmetry_2
Hg1 I1 1_555 1_555
I2 Hg1 1_555 1_555
N1 Hg1 1_555 1_555
C1 N1 1_555 1_555
H1 C1 1_555 1_555
C2 C1 1_555 1_555
H2 C2 1_555 1_555
C3 C2 1_555 1_555
C4 C3 1_555 1_555
H3 C4 1_555 1_555
C5 N1 1_555 1_555
H4 C5 1_555 1_555
C6 C3 1_555 1_555
O1 C6 1_555 1_555
O2 C6 1_555 1_555
C7 O2 1_555 1_555
C8 C7 1_555 1_555
H5 C8 1_555 1_555
C9 C8 1_555 1_555
H6 C9 1_555 1_555
C10 C9 1_555 1_555
C11 C10 1_555 1_555
H7 C11 1_555 1_555
C12 C7 1_555 1_555
H8 C12 1_555 1_555
C13 C10 1_555 1_555
C14 C13 1_555 1_555
C15 C14 1_555 1_555
H9 C15 1_555 1_555
C16 C15 1_555 1_555
Br1 C16 1_555 1_555
C17 C16 1_555 1_555
H10 C17 1_555 1_555
C18 C17 1_555 1_555
H11 C18 1_555 1_555
C19 C14 1_555 1_555
C20 C19 1_555 1_555
C21 C20 1_555 1_555
H12 C21 1_555 1_555
C22 C21 1_555 1_555
H13 C22 1_555 1_555
C23 C22 1_555 1_555
Br2 C23 1_555 1_555
C24 C23 1_555 1_555
H14 C24 1_555 1_555
C25 C13 1_555 1_555
C26 C13 1_555 1_555
C27 C26 1_555 1_555
H15 C27 1_555 1_555
C28 C27 1_555 1_555
H16 C28 1_555 1_555
C29 C28 1_555 1_555
C30 C29 1_555 1_555
H17 C30 1_555 1_555
C31 C26 1_555 1_555
H18 C31 1_555 1_555
O3 C29 1_555 1_555
C32 O3 1_555 1_555
O4 C32 1_555 1_555
C33 C32 1_555 1_555
C34 C33 1_555 1_555
H19 C34 1_555 1_555
C35 C34 1_555 1_555
H20 C35 1_555 1_555
N2 C35 1_555 1_555
C36 N2 1_555 1_555
H21 C36 1_555 1_555
C37 C33 1_555 1_555
H22 C37 1_555 1_555
C38 H23 1_555 1_555
Cl1 C38 1_555 1_555
Cl2 C38 1_555 1_555
Cl3 C38 1_555 1_555
Hg1_2 N2 1_555 1_555
N2_2 Hg1 1_555 1_555
C4 C5 1_555 1_555
C11 C12 1_555 1_555
C18 C19 1_555 1_555
C20 C25 1_555 1_555
C24 C25 1_555 1_555
C30 C31 1_555 1_555
C36 C37 1_555 1_555

#END
