
#######################################################################
#
#                 Cambridge Crystallographic Data Centre
#                                CCDC 
#
#######################################################################
#
# If this CIF has been generated from an entry in the Cambridge 
# Structural Database, then it will include bibliographic, chemical, 
# crystal, experimental, refinement or atomic coordinate data resulting 
# from the CCDC's data processing and validation procedures.
#
#######################################################################

data_NETHAW
_symmetry_cell_setting           orthorhombic
_symmetry_space_group_name_H-M   'P b c a'
_symmetry_Int_Tables_number      61
_space_group_name_Hall           '-P 2ac 2ab'
loop_
_symmetry_equiv_pos_site_id
_symmetry_equiv_pos_as_xyz
1 x,y,z
2 1/2-x,-y,1/2+z
3 -x,1/2+y,1/2-z
4 1/2+x,1/2-y,-z
5 -x,-y,-z
6 1/2+x,y,1/2-z
7 x,1/2-y,1/2+z
8 1/2-x,1/2+y,z
_cell_length_a                   12.6080(9)
_cell_length_b                   16.2385(13)
_cell_length_c                   37.085(3)
_cell_angle_alpha                90
_cell_angle_beta                 90
_cell_angle_gamma                90
_cell_volume                     7592.6
loop_
_atom_site_label
_atom_site_type_symbol
_atom_site_fract_x
_atom_site_fract_y
_atom_site_fract_z
Hg1 Hg 0.943521(19) 1.355464(15) 1.006643(7)
Cl1 Cl 1.07994(14) 1.33167(13) 1.04856(5)
Cl2 Cl 0.77599(13) 1.40458(11) 0.98901(5)
N1 N 0.9360(4) 1.2173(3) 0.98231(13)
C1 C 0.8516(5) 1.1985(4) 0.96251(18)
H1 H 0.7972 1.2385 0.9600
C2 C 0.8390(5) 1.1239(4) 0.94545(17)
H2 H 0.7766 1.1125 0.9320
C3 C 0.9181(5) 1.0663(4) 0.94820(15)
C4 C 1.0056(5) 1.0839(4) 0.96895(16)
H3 H 1.0609 1.0448 0.9718
C5 C 1.0108(5) 1.1598(4) 0.98549(16)
H4 H 1.0711 1.1718 0.9999
C6 C 0.9099(5) 0.9863(4) 0.92826(16)
O1 O 0.9698(3) 0.9285(3) 0.93104(12)
O2 O 0.8259(3) 0.9900(2) 0.90574(11)
C7 C 0.7903(4) 0.9257(4) 0.88350(16)
C8 C 0.7907(5) 0.8440(4) 0.89342(15)
H5 H 0.8252 0.8261 0.9148
C9 C 0.7383(5) 0.7885(4) 0.87079(15)
H6 H 0.7386 0.7317 0.8769
C10 C 0.6861(4) 0.8133(4) 0.83978(15)
C11 C 0.6920(5) 0.8960(4) 0.83041(16)
H7 H 0.6606 0.9142 0.8085
C12 C 0.7424(5) 0.9516(4) 0.85224(16)
H8 H 0.7442 1.0082 0.8458
C13 C 0.6286(4) 0.7506(3) 0.81602(14)
C14 C 0.5540(4) 0.7900(3) 0.78836(15)
C15 C 0.4640(4) 0.8372(3) 0.79482(16)
H9 H 0.4423 0.8501 0.8187
C16 C 0.4067(5) 0.8648(4) 0.76495(18)
Br1 Br 0.28610(5) 0.93253(5) 0.77281(2)
C17 C 0.4361(5) 0.8449(4) 0.73013(17)
H10 H 0.3950 0.8641 0.7104
C18 C 0.5242(5) 0.7974(4) 0.72399(18)
H11 H 0.5447 0.7838 0.7001
C19 C 0.5831(5) 0.7693(3) 0.75322(15)
C20 C 0.6782(5) 0.7184(4) 0.75483(16)
C21 C 0.7392(5) 0.6826(4) 0.72758(18)
H12 H 0.7199 0.6891 0.7030
C22 C 0.8269(5) 0.6379(4) 0.73675(19)
H13 H 0.8691 0.6138 0.7183
C23 C 0.8547(5) 0.6274(4) 0.7720(2)
C24 C 0.7959(5) 0.6623(3) 0.80019(17)
H14 H 0.8164 0.6555 0.8247
Br2 Br 0.97900(6) 0.56676(5) 0.78394(2)
C25 C 0.7076(4) 0.7065(3) 0.79098(16)
C26 C 0.5614(4) 0.6902(4) 0.83827(14)
C27 C 0.5482(5) 0.6088(4) 0.82836(16)
H15 H 0.5885 0.5873 0.8089
C28 C 0.4763(5) 0.5572(4) 0.84661(17)
H16 H 0.4686 0.5009 0.8402
C29 C 0.4179(5) 0.5910(4) 0.87387(17)
C30 C 0.4303(5) 0.6707(4) 0.88483(18)
H17 H 0.3899 0.6918 0.9044
C31 C 0.5023(5) 0.7202(4) 0.86705(17)
H18 H 0.5116 0.7756 0.8746
O3 O 0.3471(3) 0.5410(3) 0.89407(12)
C32 C 0.2483(5) 0.5320(4) 0.88128(18)
O4 O 0.2197(4) 0.5577(3) 0.85279(13)
C33 C 0.1803(5) 0.4872(4) 0.90785(17)
C34 C 0.0715(5) 0.4829(4) 0.9024(2)
H19 H 0.0402 0.5066 0.8815
C35 C 0.0100(5) 0.4439(4) 0.92771(19)
H20 H -0.0643 0.4406 0.9238
N2 N 0.0500(4) 0.4104(3) 0.95761(14)
C36 C 0.1545(6) 0.4137(4) 0.96217(18)
H21 H 0.1839 0.3893 0.9832
C37 C 0.2223(5) 0.4508(4) 0.93785(18)
H22 H 0.2967 0.4510 0.9419
Hg1_2 Hg -0.056479(19) 0.355464(15) 1.006643(7)
N2_2 N 1.0500(4) 1.4104(3) 0.95761(14)
C38 C 0.8980(7) 0.2202(5) 0.1096(2)
H23 H 0.9533 0.1838 0.0985
Cl3 Cl 0.9622(2) 0.30027(16) 0.13349(6)
Cl4 Cl 0.81773(16) 0.25887(16) 0.07532(6)
Cl5 Cl 0.8229(3) 0.16186(15) 0.13996(6)
loop_
_geom_bond_atom_site_label_1
_geom_bond_atom_site_label_2
_geom_bond_site_symmetry_1
_geom_bond_site_symmetry_2
Hg1 Cl1 1_555 1_555
Cl2 Hg1 1_555 1_555
N1 Hg1 1_555 1_555
C1 N1 1_555 1_555
H1 C1 1_555 1_555
C2 C1 1_555 1_555
H2 C2 1_555 1_555
C3 C2 1_555 1_555
C4 C3 1_555 1_555
H3 C4 1_555 1_555
C5 N1 1_555 1_555
H4 C5 1_555 1_555
C6 C3 1_555 1_555
O1 C6 1_555 1_555
O2 C6 1_555 1_555
C7 O2 1_555 1_555
C8 C7 1_555 1_555
H5 C8 1_555 1_555
C9 C8 1_555 1_555
H6 C9 1_555 1_555
C10 C9 1_555 1_555
C11 C10 1_555 1_555
H7 C11 1_555 1_555
C12 C7 1_555 1_555
H8 C12 1_555 1_555
C13 C10 1_555 1_555
C14 C13 1_555 1_555
C15 C14 1_555 1_555
H9 C15 1_555 1_555
C16 C15 1_555 1_555
Br1 C16 1_555 1_555
C17 C16 1_555 1_555
H10 C17 1_555 1_555
C18 C17 1_555 1_555
H11 C18 1_555 1_555
C19 C14 1_555 1_555
C20 C19 1_555 1_555
C21 C20 1_555 1_555
H12 C21 1_555 1_555
C22 C21 1_555 1_555
H13 C22 1_555 1_555
C23 C22 1_555 1_555
C24 C23 1_555 1_555
H14 C24 1_555 1_555
Br2 C23 1_555 1_555
C25 C13 1_555 1_555
C26 C13 1_555 1_555
C27 C26 1_555 1_555
H15 C27 1_555 1_555
C28 C27 1_555 1_555
H16 C28 1_555 1_555
C29 C28 1_555 1_555
C30 C29 1_555 1_555
H17 C30 1_555 1_555
C31 C26 1_555 1_555
H18 C31 1_555 1_555
O3 C29 1_555 1_555
C32 O3 1_555 1_555
O4 C32 1_555 1_555
C33 C32 1_555 1_555
C34 C33 1_555 1_555
H19 C34 1_555 1_555
C35 C34 1_555 1_555
H20 C35 1_555 1_555
N2 C35 1_555 1_555
C36 N2 1_555 1_555
H21 C36 1_555 1_555
C37 C33 1_555 1_555
H22 C37 1_555 1_555
C38 H23 1_555 1_555
Cl3 C38 1_555 1_555
Cl4 C38 1_555 1_555
Cl5 C38 1_555 1_555
Hg1_2 N2 1_555 1_555
N2_2 Hg1 1_555 1_555
C4 C5 1_555 1_555
C11 C12 1_555 1_555
C18 C19 1_555 1_555
C20 C25 1_555 1_555
C24 C25 1_555 1_555
C30 C31 1_555 1_555
C36 C37 1_555 1_555

#END
