
#######################################################################
#
#                 Cambridge Crystallographic Data Centre
#                                CCDC 
#
#######################################################################
#
# If this CIF has been generated from an entry in the Cambridge 
# Structural Database, then it will include bibliographic, chemical, 
# crystal, experimental, refinement or atomic coordinate data resulting 
# from the CCDC's data processing and validation procedures.
#
#######################################################################

data_NETJOM
_symmetry_cell_setting           monoclinic
_symmetry_space_group_name_H-M   'C 2/c'
_symmetry_Int_Tables_number      15
_space_group_name_Hall           '-C 2yn'
loop_
_symmetry_equiv_pos_site_id
_symmetry_equiv_pos_as_xyz
1 x,y,z
2 1/2+x,1/2+y,z
3 -x,y,1/2-z
4 1/2-x,1/2+y,1/2-z
5 -x,-y,-z
6 1/2-x,1/2-y,-z
7 x,-y,1/2+z
8 1/2+x,1/2-y,1/2+z
_cell_length_a                   18.9609(5)
_cell_length_b                   20.1474(6)
_cell_length_c                   18.4747(4)
_cell_angle_alpha                90
_cell_angle_beta                 96.418(2)
_cell_angle_gamma                90
_cell_volume                     7013.34
loop_
_atom_site_label
_atom_site_type_symbol
_atom_site_fract_x
_atom_site_fract_y
_atom_site_fract_z
Cd1 Cd 0.0000 0.0000 0.0000
N1 N 0.0088(2) -0.10991(17) 0.0382(2)
C1 C -0.0479(3) -0.1407(2) 0.0598(3)
H1 H -0.0885 -0.1147 0.0664
C2 C -0.0506(3) -0.2080(2) 0.0729(3)
H2 H -0.0922 -0.2274 0.0880
C3 C 0.0074(4) -0.24664(19) 0.0639(3)
C4 C 0.0676(4) -0.2154(3) 0.0439(3)
H3 H 0.1093 -0.2403 0.0390
C5 C 0.0663(3) -0.1469(2) 0.0310(3)
H4 H 0.1075 -0.1260 0.0168
C6 C 0.0032(4) -0.32076(18) 0.0737(2)
H5 H -0.0488 -0.3274 0.0752
C7 C 0.0152(4) -0.3568(2) 0.0056(2)
H6 H 0.0640 -0.3469 -0.0056
H7 H -0.0179 -0.3386 -0.0348
C8 C 0.0328(4) -0.3435(2) 0.1479(2)
H8 H 0.0167 -0.3137 0.1846
H9 H 0.0848 -0.3430 0.1516
H10 H 0.0163 -0.3887 0.1561
C9 C 0.0063(3) -0.43072(19) 0.0061(2)
C10 C 0.0646(3) -0.4714(2) 0.0222(2)
H11 H 0.1095 -0.4523 0.0379
C11 C -0.0584(3) -0.4604(2) -0.0159(2)
H12 H -0.0993 -0.4334 -0.0269
N2 N -0.1148(2) -0.02095(17) -0.0541(2)
C12 C -0.1277(3) -0.0409(2) -0.1234(3)
H13 H -0.0887 -0.0522 -0.1491
C13 C -0.1958(3) -0.0457(3) -0.1590(3)
H14 H -0.2029 -0.0599 -0.2083
C14 C -0.2536(2) -0.0299(2) -0.1226(4)
C15 C -0.2398(3) -0.0103(2) -0.0508(3)
H15 H -0.2778 0.0008 -0.0236
C16 C -0.1715(2) -0.0068(2) -0.0190(3)
H16 H -0.1634 0.0062 0.0307
C17 C -0.3297(3) -0.03174(19) -0.1564(4)
H17 H -0.3552 -0.0351 -0.1119
C18 C -0.3533(3) 0.0356(2) -0.1842(3)
H18 H -0.3219 0.0502 -0.2205
H19 H -0.3477 0.0675 -0.1432
C19 C -0.3506(4) -0.0958(3) -0.1932(5)
H20 H -0.3324 -0.1328 -0.1622
H21 H -0.3308 -0.0981 -0.2399
H22 H -0.4025 -0.0986 -0.2017
C20 C -0.4292(2) 0.0376(2) -0.2187(2)
C21 C -0.4844(3) 0.0372(3) -0.1764(2)
H23 H -0.4742 0.0369 -0.1248
C22 C -0.4457(3) 0.0372(3) -0.2930(3)
H24 H -0.4087 0.0369 -0.3237
O1 O -0.04403(18) 0.02503(16) 0.11233(16)
H37 H -0.0303 0.0074 0.1539
H38 H -0.0684 0.0583 0.1208
Cd1_2 Cd 0.0000 -1.0000 0.0000
Cd1F Cd -1.0000 0.0000 -0.5000
N1D N -0.0088(2) -0.89009(17) -0.0382(2)
N1D_2 N -0.0088(2) 0.10991(17) -0.0382(2)
C1D C 0.0479(3) -0.8593(2) -0.0598(3)
H1D H 0.0885 -0.8853 -0.0664
C2D C 0.0506(3) -0.7920(2) -0.0729(3)
H2D H 0.0922 -0.7726 -0.0880
C3D C -0.0074(4) -0.75336(19) -0.0639(3)
C4D C -0.0676(4) -0.7846(3) -0.0439(3)
H3D H -0.1093 -0.7597 -0.0390
C5D C -0.0663(3) -0.8531(2) -0.0310(3)
H4D H -0.1075 -0.8740 -0.0168
C6D C -0.0032(4) -0.67924(18) -0.0737(2)
H5D H 0.0488 -0.6726 -0.0752
C7D C -0.0152(4) -0.6432(2) -0.0056(2)
H6D H -0.0640 -0.6531 0.0056
H7D H 0.0179 -0.6614 0.0348
C8D C -0.0328(4) -0.6565(2) -0.1479(2)
H8D H -0.0167 -0.6863 -0.1846
H9D H -0.0848 -0.6570 -0.1516
H10D H -0.0163 -0.6113 -0.1561
C9D C -0.0063(3) -0.56928(19) -0.0061(2)
C10D C -0.0646(3) -0.5286(2) -0.0222(2)
H11D H -0.1095 -0.5477 -0.0379
C11D C 0.0584(3) -0.5396(2) 0.0159(2)
H12D H 0.0993 -0.5666 0.0269
N2B N -0.8852(2) -0.02095(17) -0.4459(2)
N2D N 0.1148(2) 0.02095(17) 0.0541(2)
C12B C -0.8723(3) -0.0409(2) -0.3766(3)
H13B H -0.9113 -0.0522 -0.3509
C13B C -0.8042(3) -0.0457(3) -0.3410(3)
H14B H -0.7971 -0.0599 -0.2917
C14B C -0.7464(2) -0.0299(2) -0.3774(4)
C15B C -0.7602(3) -0.0103(2) -0.4492(3)
H15B H -0.7222 0.0008 -0.4764
C16B C -0.8285(2) -0.0068(2) -0.4810(3)
H16B H -0.8366 0.0062 -0.5307
C17B C -0.6703(3) -0.03174(19) -0.3436(4)
H17B H -0.6448 -0.0351 -0.3881
C18B C -0.6467(3) 0.0356(2) -0.3158(3)
H18B H -0.6781 0.0502 -0.2795
H19B H -0.6523 0.0675 -0.3568
C19B C -0.6494(4) -0.0958(3) -0.3068(5)
H20B H -0.6676 -0.1328 -0.3378
H21B H -0.6692 -0.0981 -0.2601
H22B H -0.5975 -0.0986 -0.2983
C20B C -0.5708(2) 0.0376(2) -0.2813(2)
C21B C -0.5156(3) 0.0372(3) -0.3236(2)
H23B H -0.5258 0.0369 -0.3752
C22B C -0.5543(3) 0.0372(3) -0.2070(3)
H24B H -0.5913 0.0369 -0.1763
O1D O 0.04403(18) -0.02503(16) -0.11233(16)
H37D H 0.0303 -0.0074 -0.1539
H38D H 0.0684 -0.0583 -0.1208
N3 N 0.1186(2) -0.10866(19) 0.2595(2)
C23 C 0.1205(3) -0.1721(3) 0.2392(3)
H25 H 0.0790 -0.1903 0.2130
C24 C 0.1781(3) -0.2127(3) 0.2536(3)
H26 H 0.1762 -0.2574 0.2369
C25 C 0.2386(3) -0.1886(2) 0.2922(3)
C26 C 0.2382(3) -0.1215(3) 0.3136(3)
H27 H 0.2791 -0.1021 0.3396
C27 C 0.1776(3) -0.0845(2) 0.2963(3)
H28 H 0.1778 -0.0394 0.3114
C28 C 0.3033(3) -0.2325(3) 0.3078(3)
H29 H 0.2867 -0.2796 0.3027
C29 C 0.3412(3) -0.2247(3) 0.3847(3)
H30 H 0.3820 -0.2556 0.3907
H31 H 0.3601 -0.1790 0.3903
C30 C 0.3560(3) -0.2212(3) 0.2514(4)
H32 H 0.3975 -0.2499 0.2627
H33 H 0.3711 -0.1747 0.2528
H34 H 0.3329 -0.2318 0.2026
C31 C 0.2945(3) -0.2379(3) 0.4450(3)
C32 C 0.2712(3) -0.1863(2) 0.4863(3)
H35 H 0.2853 -0.1421 0.4774
C33 C 0.2721(3) -0.3014(2) 0.4600(3)
H36 H 0.2870 -0.3376 0.4325
N3E N 0.3814(2) -0.39134(19) 0.7405(2)
C23E C 0.3795(3) -0.3279(3) 0.7608(3)
H25E H 0.4210 -0.3097 0.7870
C24E C 0.3219(3) -0.2873(3) 0.7464(3)
H26E H 0.3238 -0.2426 0.7631
C25E C 0.2614(3) -0.3114(2) 0.7078(3)
C26E C 0.2618(3) -0.3785(3) 0.6864(3)
H27E H 0.2209 -0.3979 0.6604
C27E C 0.3224(3) -0.4155(2) 0.7037(3)
H28E H 0.3222 -0.4606 0.6886
C28E C 0.1967(3) -0.2675(3) 0.6922(3)
H29E H 0.2133 -0.2204 0.6973
C29E C 0.1588(3) -0.2753(3) 0.6153(3)
H30E H 0.1180 -0.2444 0.6093
H31E H 0.1399 -0.3210 0.6097
C30E C 0.1440(3) -0.2788(3) 0.7486(4)
H32E H 0.1025 -0.2501 0.7373
H33E H 0.1289 -0.3253 0.7472
H34E H 0.1671 -0.2682 0.7974
C31E C 0.2055(3) -0.2621(3) 0.5550(3)
C32E C 0.2288(3) -0.3137(2) 0.5137(3)
H35E H 0.2147 -0.3579 0.5226
C33E C 0.2279(3) -0.1986(2) 0.5400(3)
H36E H 0.2130 -0.1624 0.5675
O2 O 0.0000 -0.0285(2) 0.2500
H39 H 0.0366 -0.0526 0.2459
H39B H -0.0366 -0.0526 0.2541
O3 O -0.0397(5) 0.1488(4) 0.1774(6)
H40 H -0.0520 0.1411 0.2200
H41 H -0.0616 0.1831 0.1622
Cl1 Cl 0.23660(17) 0.1096(2) 0.3829(2)
O4 O 0.2650(3) 0.0460(2) 0.3773(4)
O5 O 0.2449(4) 0.1337(4) 0.4535(2)
O6 O 0.16347(19) 0.1087(3) 0.3576(4)
O7 O 0.2678(3) 0.1516(3) 0.3349(4)
Cl2? Cl 0.2363(3) 0.1238(4) 0.3752(3)
O8? O 0.2582(8) 0.0578(5) 0.3844(7)
O9? O 0.2926(5) 0.1679(7) 0.3794(7)
O10? O 0.1921(5) 0.1408(6) 0.4290(4)
O11? O 0.1932(5) 0.1290(6) 0.3085(4)
loop_
_geom_bond_atom_site_label_1
_geom_bond_atom_site_label_2
_geom_bond_site_symmetry_1
_geom_bond_site_symmetry_2
Cd1 N1 1_555 1_555
N1 C1 1_555 1_555
C1 H1 1_555 1_555
C2 C1 1_555 1_555
H2 C2 1_555 1_555
C3 C2 1_555 1_555
C4 C3 1_555 1_555
H3 C4 1_555 1_555
C5 N1 1_555 1_555
H4 C5 1_555 1_555
C6 C3 1_555 1_555
H5 C6 1_555 1_555
C7 C6 1_555 1_555
H6 C7 1_555 1_555
H7 C7 1_555 1_555
C8 C6 1_555 1_555
H8 C8 1_555 1_555
H9 C8 1_555 1_555
H10 C8 1_555 1_555
C9 C7 1_555 1_555
C10 C9 1_555 1_555
H11 C10 1_555 1_555
C11 C9 1_555 1_555
H12 C11 1_555 1_555
N2 Cd1 1_555 1_555
C12 N2 1_555 1_555
H13 C12 1_555 1_555
C13 C12 1_555 1_555
H14 C13 1_555 1_555
C14 C13 1_555 1_555
C15 C14 1_555 1_555
H15 C15 1_555 1_555
C16 N2 1_555 1_555
H16 C16 1_555 1_555
C17 C14 1_555 1_555
H17 C17 1_555 1_555
C18 C17 1_555 1_555
H18 C18 1_555 1_555
H19 C18 1_555 1_555
C19 C17 1_555 1_555
H20 C19 1_555 1_555
H21 C19 1_555 1_555
H22 C19 1_555 1_555
C20 C18 1_555 1_555
C21 C20 1_555 1_555
H23 C21 1_555 1_555
C22 C20 1_555 1_555
H24 C22 1_555 1_555
N3 C23 1_555 1_555
C23 H25 1_555 1_555
C24 C23 1_555 1_555
H26 C24 1_555 1_555
C25 C24 1_555 1_555
C26 C25 1_555 1_555
H27 C26 1_555 1_555
C27 N3 1_555 1_555
H28 C27 1_555 1_555
C28 C25 1_555 1_555
H29 C28 1_555 1_555
C29 C28 1_555 1_555
H30 C29 1_555 1_555
H31 C29 1_555 1_555
C30 C28 1_555 1_555
H32 C30 1_555 1_555
H33 C30 1_555 1_555
H34 C30 1_555 1_555
C31 C29 1_555 1_555
C32 C31 1_555 1_555
H35 C32 1_555 1_555
C33 C31 1_555 1_555
H36 C33 1_555 1_555
O1 Cd1 1_555 1_555
H37 O1 1_555 1_555
H38 O1 1_555 1_555
O2 H39 1_555 1_555
O3 H40 1_555 1_555
H41 O3 1_555 1_555
Cl1 O4 1_555 1_555
O5 Cl1 1_555 1_555
O6 Cl1 1_555 1_555
O7 Cl1 1_555 1_555
Cd1_2 N1D 1_555 1_555
Cd1F N2B 1_555 1_555
N1D C1D 1_555 1_555
N1D_2 Cd1 1_555 1_555
C1D H1D 1_555 1_555
C2D C1D 1_555 1_555
H2D C2D 1_555 1_555
C3D C2D 1_555 1_555
C4D C3D 1_555 1_555
H3D C4D 1_555 1_555
C5D N1D 1_555 1_555
H4D C5D 1_555 1_555
C6D C3D 1_555 1_555
H5D C6D 1_555 1_555
C7D C6D 1_555 1_555
H6D C7D 1_555 1_555
H7D C7D 1_555 1_555
C8D C6D 1_555 1_555
H8D C8D 1_555 1_555
H9D C8D 1_555 1_555
H10D C8D 1_555 1_555
C9D C7D 1_555 1_555
C10D C11 1_555 1_555
H11D C10D 1_555 1_555
C11D C10 1_555 1_555
H12D C11D 1_555 1_555
N2B C12B 1_555 1_555
N2D Cd1 1_555 1_555
C12B H13B 1_555 1_555
C13B C12B 1_555 1_555
H14B C13B 1_555 1_555
C14B C13B 1_555 1_555
C15B C14B 1_555 1_555
H15B C15B 1_555 1_555
C16B N2B 1_555 1_555
H16B C16B 1_555 1_555
C17B C14B 1_555 1_555
H17B C17B 1_555 1_555
C18B C17B 1_555 1_555
H18B C18B 1_555 1_555
H19B C18B 1_555 1_555
C19B C17B 1_555 1_555
H20B C19B 1_555 1_555
H21B C19B 1_555 1_555
H22B C19B 1_555 1_555
C20B C18B 1_555 1_555
C21B C22 1_555 1_555
H23B C21B 1_555 1_555
C22B C21 1_555 1_555
H24B C22B 1_555 1_555
N3E C23E 1_555 1_555
C23E H25E 1_555 1_555
C24E C23E 1_555 1_555
H26E C24E 1_555 1_555
C25E C24E 1_555 1_555
C26E C25E 1_555 1_555
H27E C26E 1_555 1_555
C27E N3E 1_555 1_555
H28E C27E 1_555 1_555
C28E C25E 1_555 1_555
H29E C28E 1_555 1_555
C29E C28E 1_555 1_555
H30E C29E 1_555 1_555
H31E C29E 1_555 1_555
C30E C28E 1_555 1_555
H32E C30E 1_555 1_555
H33E C30E 1_555 1_555
H34E C30E 1_555 1_555
C31E C29E 1_555 1_555
C32E C33 1_555 1_555
H35E C32E 1_555 1_555
C33E C32 1_555 1_555
H36E C33E 1_555 1_555
O1D Cd1 1_555 1_555
H37D O1D 1_555 1_555
H38D O1D 1_555 1_555
H39B O2 1_555 1_555
C4 C5 1_555 1_555
C15 C16 1_555 1_555
C26 C27 1_555 1_555
C4D C5D 1_555 1_555
C9D C10D 1_555 1_555
C9D C11D 1_555 1_555
C15B C16B 1_555 1_555
C20B C21B 1_555 1_555
C20B C22B 1_555 1_555
C26E C27E 1_555 1_555
C31E C32E 1_555 1_555
C31E C33E 1_555 1_555

#END
