
#######################################################################
#
#                 Cambridge Crystallographic Data Centre
#                                CCDC 
#
#######################################################################
#
# If this CIF has been generated from an entry in the Cambridge 
# Structural Database, then it will include bibliographic, chemical, 
# crystal, experimental, refinement or atomic coordinate data resulting 
# from the CCDC's data processing and validation procedures.
#
#######################################################################

data_NETVOZ
_symmetry_cell_setting           triclinic
_symmetry_space_group_name_H-M   'P -1'
_symmetry_Int_Tables_number      2
_space_group_name_Hall           '-P 1'
loop_
_symmetry_equiv_pos_site_id
_symmetry_equiv_pos_as_xyz
1 x,y,z
2 -x,-y,-z
_cell_length_a                   11.082(5)
_cell_length_b                   13.902(4)
_cell_length_c                   16.017(6)
_cell_angle_alpha                90.806(5)
_cell_angle_beta                 93.429(3)
_cell_angle_gamma                111.312(5)
_cell_volume                     2293.05
loop_
_atom_site_label
_atom_site_type_symbol
_atom_site_fract_x
_atom_site_fract_y
_atom_site_fract_z
C1 C 0.1411(4) 0.1990(4) 0.1258(3)
H1 H 0.1084 0.1839 0.1781
C2 C 0.0603(5) 0.1544(4) 0.0549(3)
H2 H -0.0243 0.1092 0.0605
C3 C 0.1049(4) 0.1766(4) -0.0228(3)
H3 H 0.0506 0.1478 -0.0704
C4 C 0.2330(4) 0.2432(3) -0.0300(2)
C5 C 0.3105(4) 0.2833(3) 0.0452(2)
C6 C 0.4460(4) 0.3507(3) 0.0433(2)
C7 C 0.6355(4) 0.4469(3) 0.1205(2)
H4 H 0.6803 0.4712 0.1721
C8 C 0.7008(4) 0.4773(3) 0.0484(2)
H5 H 0.7878 0.5204 0.0522
C9 C 0.6360(4) 0.4433(3) -0.0288(2)
H6 H 0.6785 0.4637 -0.0776
C10 C 0.5049(4) 0.3776(3) -0.0328(2)
C11 C 0.4234(4) 0.3377(3) -0.1068(2)
C12 C 0.2927(4) 0.2742(3) -0.1064(2)
C13 C 0.3322(4) 0.3021(3) -0.2361(2)
C14 C 0.3148(4) 0.3042(3) -0.3279(2)
C15 C 0.1894(5) 0.2668(4) -0.3663(3)
H7 H 0.1184 0.2402 -0.3340
C16 C 0.1702(6) 0.2692(5) -0.4528(3)
H8 H 0.0864 0.2426 -0.4779
C17 C 0.2722(6) 0.3098(4) -0.5009(3)
H9 H 0.2575 0.3132 -0.5584
C18 C 0.3976(5) 0.3460(4) -0.4650(3)
H10 H 0.4682 0.3726 -0.4976
C19 C 0.4152(5) 0.3417(4) -0.3793(3)
C20 C -0.6196(4) 0.0623(3) 0.1140(3)
H11 H -0.6599 0.0396 0.1632
C21 C -0.6909(4) 0.0273(3) 0.0373(2)
H12 H -0.7775 -0.0165 0.0359
C22 C -0.6326(4) 0.0576(3) -0.0356(2)
H13 H -0.6791 0.0343 -0.0869
C23 C -0.5029(4) 0.1239(3) -0.0326(2)
C24 C -0.4378(4) 0.1564(3) 0.0481(2)
C25 C -0.3027(4) 0.2251(3) 0.0561(2)
C26 C -0.1279(4) 0.3176(4) 0.1472(2)
H14 H -0.0918 0.3369 0.2016
C27 C -0.0524(4) 0.3578(4) 0.0815(3)
H15 H 0.0324 0.4040 0.0922
C28 C -0.1018(4) 0.3299(4) 0.0000(3)
H16 H -0.0509 0.3554 -0.0447
C29 C -0.2310(4) 0.2623(3) -0.0136(2)
C30 C -0.2967(4) 0.2245(3) -0.0941(2)
C31 C -0.4256(4) 0.1603(3) -0.1015(2)
C32 C -0.3462(4) 0.1894(3) -0.2259(2)
C33 C -0.3388(4) 0.1829(3) -0.3166(2)
C34 C -0.4451(5) 0.1414(4) -0.3737(3)
C35 C -0.4343(6) 0.1338(4) -0.4582(3)
H17 H -0.5084 0.1048 -0.4941
C36 C -0.3147(6) 0.1687(4) -0.4896(3)
H18 H -0.3071 0.1634 -0.5469
C37 C -0.2057(6) 0.2117(5) -0.4362(3)
H19 H -0.1240 0.2360 -0.4573
C38 C -0.2176(5) 0.2188(4) -0.3506(3)
H20 H -0.1431 0.2483 -0.3150
C39 C 0.2514(4) 0.4359(3) 0.2649(2)
C40 C 0.1637(4) 0.4914(3) 0.2896(3)
H21 H 0.1178 0.5024 0.2393
H22 H 0.2173 0.5588 0.3140
C41 C 0.0649(4) 0.4361(4) 0.3510(3)
H23 H 0.1091 0.4428 0.4061
H24 H 0.0284 0.3631 0.3349
C42 C -0.0466(4) 0.4763(3) 0.3564(3)
H25 H -0.0121 0.5474 0.3778
H26 H -0.0874 0.4748 0.3009
C43 C -0.1479(4) 0.4110(4) 0.4135(2)
H27 H -0.1115 0.4244 0.4710
H28 H -0.1673 0.3385 0.3996
C44 C 0.3919(4) 0.1337(3) 0.3151(2)
C45 C -0.0695(6) 0.0615(6) 0.3821(3)
H29 H -0.1295 0.0332 0.4250
H30 H -0.0424 0.1361 0.3867
C46 C -0.2745(4) 0.4318(4) 0.4071(3)
H31 H -0.3218 0.4048 0.4559
H32 H -0.2532 0.5059 0.4087
C47 C 0.2871(4) 0.0827(4) 0.3736(3)
H33 H 0.2821 0.0124 0.3814
H34 H 0.3113 0.1192 0.4277
C48 C 0.1552(4) 0.0806(4) 0.3432(3)
H35 H 0.1608 0.1510 0.3346
H36 H 0.1310 0.0436 0.2893
C49 C -0.3628(4) 0.3857(3) 0.3298(2)
C50 C -0.1390(5) 0.0258(4) 0.2998(3)
H37 H -0.1860 -0.0482 0.3006
H38 H -0.0757 0.0380 0.2581
C51 C -0.2335(4) 0.0769(3) 0.2736(3)
C52 C 0.0508(5) 0.0321(5) 0.4001(4)
H39 H 0.0847 0.0530 0.4575
H40 H 0.0247 -0.0424 0.3946
N1 N 0.5108(3) 0.3842(3) 0.11892(19)
N2 N 0.2628(3) 0.2623(3) 0.12138(19)
N3 N 0.4465(3) 0.3538(3) -0.19012(19)
H41 H 0.5193 0.3897 -0.2096
N4 N 0.2370(3) 0.2518(3) -0.1875(2)
N5 N -0.2506(3) 0.2521(3) 0.13583(19)
N6 N -0.4974(3) 0.1263(2) 0.11926(19)
N7 N -0.2478(3) 0.2431(3) -0.1723(2)
N8 N -0.4559(3) 0.1389(3) -0.18603(19)
H42 H -0.5302 0.1008 -0.2094
O1 O 0.3365(3) 0.4766(2) 0.21384(18)
O2 O 0.2394(3) 0.3497(2) 0.29282(18)
O4 O -0.3343(3) 0.3270(2) 0.28096(17)
O5 O -0.4621(3) 0.4100(2) 0.31794(18)
O6 O 0.3752(3) 0.1956(2) 0.26306(18)
O7 O 0.4899(3) 0.1088(2) 0.31751(18)
O8 O -0.2174(3) 0.1653(2) 0.30242(19)
O9 O -0.3246(3) 0.0341(3) 0.2189(2)
F1 F 0.5378(3) 0.3751(3) -0.34717(19)
F2 F -0.5643(3) 0.1089(3) -0.34652(19)
Co1 Co 0.39770(5) 0.33859(4) 0.22569(3)
Co2 Co -0.37671(5) 0.18229(4) 0.23313(3)
O5_2 O 0.5379(3) 0.4100(2) 0.31794(18)
O7_2 O -0.5101(3) 0.1088(2) 0.31751(18)
Co1_2 Co -0.60230(5) 0.33859(4) 0.22569(3)
Co2_2 Co 0.62329(5) 0.18229(4) 0.23313(3)
O3 O 1.0402(5) 0.3608(4) -0.1764(3)
H43 H 0.972(3) 0.315(5) -0.1970(16)
H44 H 1.101(3) 0.357(5) -0.203(4)
loop_
_geom_bond_atom_site_label_1
_geom_bond_atom_site_label_2
_geom_bond_site_symmetry_1
_geom_bond_site_symmetry_2
C1 H1 1_555 1_555
C2 C1 1_555 1_555
H2 C2 1_555 1_555
C3 C2 1_555 1_555
H3 C3 1_555 1_555
C4 C3 1_555 1_555
C5 C4 1_555 1_555
C6 C5 1_555 1_555
C7 H4 1_555 1_555
C8 C7 1_555 1_555
H5 C8 1_555 1_555
C9 C8 1_555 1_555
H6 C9 1_555 1_555
C10 C6 1_555 1_555
C11 C10 1_555 1_555
C12 C4 1_555 1_555
C13 C14 1_555 1_555
C14 C15 1_555 1_555
C15 H7 1_555 1_555
C16 C15 1_555 1_555
H8 C16 1_555 1_555
C17 C16 1_555 1_555
H9 C17 1_555 1_555
C18 C17 1_555 1_555
H10 C18 1_555 1_555
C19 C14 1_555 1_555
C20 H11 1_555 1_555
C21 C20 1_555 1_555
H12 C21 1_555 1_555
C22 C21 1_555 1_555
H13 C22 1_555 1_555
C23 C22 1_555 1_555
C24 C23 1_555 1_555
C25 C24 1_555 1_555
C26 H14 1_555 1_555
C27 C26 1_555 1_555
H15 C27 1_555 1_555
C28 C27 1_555 1_555
H16 C28 1_555 1_555
C29 C25 1_555 1_555
C30 C29 1_555 1_555
C31 C23 1_555 1_555
C32 C33 1_555 1_555
C33 C34 1_555 1_555
C34 C35 1_555 1_555
C35 H17 1_555 1_555
C36 C35 1_555 1_555
H18 C36 1_555 1_555
C37 C36 1_555 1_555
H19 C37 1_555 1_555
C38 C33 1_555 1_555
H20 C38 1_555 1_555
C39 C40 1_555 1_555
C40 H21 1_555 1_555
H22 C40 1_555 1_555
C41 C40 1_555 1_555
H23 C41 1_555 1_555
H24 C41 1_555 1_555
C42 C41 1_555 1_555
H25 C42 1_555 1_555
H26 C42 1_555 1_555
C43 C42 1_555 1_555
H27 C43 1_555 1_555
H28 C43 1_555 1_555
C44 C47 1_555 1_555
C45 H29 1_555 1_555
H30 C45 1_555 1_555
C46 C43 1_555 1_555
H31 C46 1_555 1_555
H32 C46 1_555 1_555
C47 H33 1_555 1_555
H34 C47 1_555 1_555
C48 C47 1_555 1_555
H35 C48 1_555 1_555
H36 C48 1_555 1_555
C49 C46 1_555 1_555
C50 C45 1_555 1_555
H37 C50 1_555 1_555
H38 C50 1_555 1_555
C51 C50 1_555 1_555
C52 C45 1_555 1_555
H39 C52 1_555 1_555
H40 C52 1_555 1_555
N1 C6 1_555 1_555
N2 C1 1_555 1_555
N3 C11 1_555 1_555
H41 N3 1_555 1_555
N4 C12 1_555 1_555
N5 C25 1_555 1_555
N6 C20 1_555 1_555
N7 C30 1_555 1_555
N8 C31 1_555 1_555
H42 N8 1_555 1_555
O1 C39 1_555 1_555
O2 C39 1_555 1_555
O3 H43 1_555 1_555
H44 O3 1_555 1_555
O4 C49 1_555 1_555
O5 C49 1_555 1_555
O6 C44 1_555 1_555
O7 C44 1_555 1_555
O8 C51 1_555 1_555
O9 C51 1_555 1_555
F1 C19 1_555 1_555
F2 C34 1_555 1_555
Co1 N1 1_555 1_555
Co2 N5 1_555 1_555
O5_2 Co1 1_555 1_555
O7_2 Co2 1_555 1_555
Co1_2 O5 1_555 1_555
Co2_2 O7 1_555 1_555
C5 N2 1_555 1_555
C7 N1 1_555 1_555
C9 C10 1_555 1_555
C11 C12 1_555 1_555
C13 N3 1_555 1_555
C13 N4 1_555 1_555
C18 C19 1_555 1_555
C24 N6 1_555 1_555
C26 N5 1_555 1_555
C28 C29 1_555 1_555
C30 C31 1_555 1_555
C32 N7 1_555 1_555
C32 N8 1_555 1_555
C37 C38 1_555 1_555
C48 C52 1_555 1_555
N2 Co1 1_555 1_555
N6 Co2 1_555 1_555
O1 Co1 1_555 1_555
O2 Co1 1_555 1_555
O4 Co2 1_555 1_555
O6 Co1 1_555 1_555
O8 Co2 1_555 1_555

#END
