
#######################################################################
#
#                 Cambridge Crystallographic Data Centre
#                                CCDC 
#
#######################################################################
#
# If this CIF has been generated from an entry in the Cambridge 
# Structural Database, then it will include bibliographic, chemical, 
# crystal, experimental, refinement or atomic coordinate data resulting 
# from the CCDC's data processing and validation procedures.
#
#######################################################################

data_NETWEQ
_symmetry_cell_setting           trigonal
_symmetry_space_group_name_H-M   'P 32 2 1'
_symmetry_Int_Tables_number      154
_space_group_name_Hall           'P 32 2"'
loop_
_symmetry_equiv_pos_site_id
_symmetry_equiv_pos_as_xyz
1 x,y,z
2 -y,x-y,2/3+z
3 -x+y,-x,1/3+z
4 y,x,-z
5 x-y,-y,1/3-z
6 -x,-x+y,2/3-z
_cell_length_a                   14.518(2)
_cell_length_b                   14.518(2)
_cell_length_c                   33.429(6)
_cell_angle_alpha                90
_cell_angle_beta                 90
_cell_angle_gamma                120
_cell_volume                     6101.94
loop_
_atom_site_label
_atom_site_type_symbol
_atom_site_fract_x
_atom_site_fract_y
_atom_site_fract_z
Cu1 Cu 1.0000 1.53591(4) 0.3333
O1 O 1.4679(2) 2.0415(3) 0.31260(13)
O2 O 1.4059(3) 2.4618(4) 0.24177(10)
N1 N 1.6162(3) 2.3455(4) 0.26254(12)
N2 N 1.3072(2) 2.0076(3) 0.28807(11)
H2 H 1.2759 2.0369 0.2750
N3 N 1.3283(2) 2.3892(4) 0.30228(10)
H3 H 1.3303 2.3497 0.3219
N9 N 1.1058(2) 1.6882(3) 0.31834(10)
N10 N 1.1113(3) 2.4930(4) 0.32255(11)
C1 C 1.5658(3) 2.2433(4) 0.27348(16)
H4 H 1.6060 2.2080 0.2744
C2 C 1.4578(3) 2.1846(4) 0.28371(14)
C3 C 1.4012(3) 2.2368(4) 0.28396(14)
H5 H 1.3287 2.2009 0.2920
C4 C 1.4514(3) 2.3439(4) 0.27232(13)
C5 C 1.5571(3) 2.3929(4) 0.26157(14)
H6 H 1.5902 2.4647 0.2529
C21 C 1.4136(3) 2.0718(4) 0.29673(15)
C22 C 1.2019(3) 1.7422(4) 0.33423(11)
H42 H 1.2231 1.7070 0.3529
C23 C 1.2737(3) 1.8479(4) 0.32498(13)
H43 H 1.3421 1.8836 0.3371
C24 C 1.2441(3) 1.8998(4) 0.29816(13)
C25 C 1.1436(3) 1.8429(4) 0.28106(13)
H44 H 1.1209 1.8759 0.2620
C26 C 1.0784(3) 1.7407(4) 0.29163(13)
H45 H 1.0098 1.7035 0.2798
C27 C 1.3941(3) 2.4053(4) 0.27001(14)
C28 C 1.1324(3) 2.4386(4) 0.34973(14)
H46 H 1.0951 2.4217 0.3745
C29 C 1.2040(4) 2.4064(5) 0.34387(14)
H47 H 1.2172 2.3690 0.3643
C30 C 1.2591(3) 2.4288(4) 0.30731(13)
C31 C 1.2389(3) 2.4856(4) 0.27924(14)
H48 H 1.2747 2.5034 0.2543
C32 C 1.1652(3) 2.5163(4) 0.28825(14)
H49 H 1.1522 2.5563 0.2689
Cu1_2 Cu 1.0000 2.53591(4) 0.3333
O1E O 0.5321(2) 1.5736(4) 0.35407(13)
O2E O 0.5941(3) 2.0559(5) 0.42490(10)
N1E N 0.3838(3) 1.7293(5) 0.40413(12)
N2E N 0.6928(2) 1.7004(4) 0.37860(11)
H2E H 0.7241 1.7610 0.3917
N3E N 0.6717(2) 2.0609(4) 0.36439(10)
H3E H 0.6697 2.0194 0.3448
N9E N 0.8942(2) 1.5824(4) 0.34833(10)
N9_2 N 1.1058(2) 2.6882(3) 0.31834(10)
N9E_2 N 0.8942(2) 2.5824(4) 0.34833(10)
N10E N 0.8887(3) 2.3817(5) 0.34412(11)
N10_2 N 1.1113(3) 1.4930(4) 0.32255(11)
N10E_2 N 0.8887(3) 1.3817(5) 0.34412(11)
C1E C 0.4342(3) 1.6775(5) 0.39319(16)
H4E H 0.3940 1.6020 0.3923
C2E C 0.5422(3) 1.7268(5) 0.38296(14)
C3E C 0.5988(3) 1.8356(5) 0.38271(14)
H5E H 0.6713 1.8722 0.3747
C4E C 0.5486(3) 1.8925(5) 0.39435(13)
C5E C 0.4429(3) 1.8358(5) 0.40510(14)
H6E H 0.4098 1.8745 0.4138
C21E C 0.5864(3) 1.6582(5) 0.36994(15)
C22E C 0.7981(3) 1.5403(5) 0.33244(11)
H42E H 0.7769 1.4839 0.3138
C23E C 0.7263(3) 1.5742(5) 0.34169(13)
H43E H 0.6579 1.5415 0.3296
C24E C 0.7559(3) 1.6557(5) 0.36851(13)
C25E C 0.8564(3) 1.6993(5) 0.38561(13)
H44E H 0.8791 1.7550 0.4047
C26E C 0.9216(3) 1.6623(5) 0.37504(13)
H45E H 0.9902 1.6937 0.3869
C27E C 0.6059(3) 2.0112(5) 0.39666(14)
C28E C 0.8676(3) 2.3062(5) 0.31694(14)
H46E H 0.9049 2.3266 0.2922
C29E C 0.7960(4) 2.2024(6) 0.32280(14)
H47E H 0.7828 2.1518 0.3024
C30E C 0.7409(3) 2.1697(5) 0.35936(13)
C31E C 0.7611(3) 2.2467(5) 0.38743(14)
H48E H 0.7253 2.2287 0.4124
C32E C 0.8348(3) 2.3511(5) 0.37842(14)
H49E H 0.8478 2.4041 0.3978
Cl1 Cl 0.7227(3) 0.8120(3) 0.77792(11)
O3 O 0.7966(4) 0.7819(5) 0.79003(19)
O4 O 0.7599(6) 0.9205(4) 0.7814(3)
O5 O 0.6500(10) 0.7486(10) 0.7552(5)
O6 O 0.6685(14) 0.7999(19) 0.8132(6)
O7 O 1.0486(2) 1.5520(3) 0.40376(9)
N4 N 1.1321(3) 1.5680(5) 0.46289(13)
C6 C 1.0694(6) 1.4581(8) 0.4744(2)
H7 H 1.0035 1.4243 0.4588
H8 H 1.0524 1.4536 0.5029
H9 H 1.1098 1.4218 0.4692
C7 C 1.2158(5) 1.6386(8) 0.49012(17)
H10 H 1.2578 1.7087 0.4777
H11 H 1.2620 1.6091 0.4961
H12 H 1.1840 1.6456 0.5150
C16 C 1.1185(4) 1.6072(6) 0.42894(13)
H37 H 1.1640 1.6808 0.4235
O8 O -0.1049(3) 0.8209(3) 0.57811(13)
N5 N 0.0646(4) 0.9456(4) 0.56191(15)
C8 C 0.1088(8) 0.8798(8) 0.5628(4)
H13 H 0.1762 0.9152 0.5775
H14 H 0.1217 0.8650 0.5354
H15 H 0.0596 0.8129 0.5762
C9 C 0.1383(6) 1.0568(6) 0.5502(2)
H16 H 0.1694 1.0581 0.5240
H17 H 0.1950 1.0905 0.5701
H18 H 0.0993 1.0957 0.5485
C17 C -0.0377(5) 0.9129(6) 0.5672(2)
H38 H -0.0613 0.9622 0.5624
O9 O 0.3082(4) 0.2630(4) 0.36823(17)
N6 N 0.4424(4) 0.2420(4) 0.39101(17)
C10 C 0.5277(6) 0.3428(5) 0.3779(3)
H19 H 0.4984 0.3839 0.3656
H20 H 0.5712 0.3314 0.3583
H21 H 0.5719 0.3819 0.4009
C11 C 0.4727(7) 0.1683(6) 0.4062(3)
H22 H 0.4149 0.0954 0.4016
H23 H 0.4868 0.1800 0.4350
H24 H 0.5370 0.1793 0.3924
C18 C 0.3430(5) 0.2135(6) 0.3856(2)
H39 H 0.2920 0.1466 0.3963
O10 O 0.7241(7) 0.4201(6) 0.4484(2)
N7 N 0.8103(5) 0.5734(5) 0.48468(18)
C12 C 0.9080(9) 0.5796(15) 0.4885(5)
H25 H 0.8975 0.5094 0.4953
H26 H 0.9490 0.6304 0.5096
H27 H 0.9467 0.6035 0.4631
C13 C 0.8160(17) 0.6651(11) 0.4974(4)
H28 H 0.8827 0.7080 0.5120
H29 H 0.7558 0.6482 0.5152
H30 H 0.8135 0.7053 0.4743
C19 C 0.7379(11) 0.4950(12) 0.4627(4)
H40 H 0.6797 0.5059 0.4577
O12 O 0.3728(16) 0.3728(16) 0.5000
H1 H 0.324(4) 0.381(3) 0.509(5)
H1C H 0.381(3) 0.324(4) 0.491(5)
O11? O 0.1633(22) 0.9951(17) 0.6481(5)
N8? N 0.0246(6) 1.0000 0.6667
C14? C 0.0822(25) 1.1175(19) 0.6625(5)
H31? H 0.0488 1.1378 0.6414
H32? H 0.1566 1.1426 0.6554
H33? H 0.0794 1.1497 0.6879
C15? C -0.0807(19) 0.9286(11) 0.6815(5)
H34? H -0.1333 0.9330 0.6645
H35? H -0.0871 0.9485 0.7090
H36? H -0.0935 0.8556 0.6812
C20? C 0.0866(21) 0.9462(14) 0.6710(11)
H41? H 0.0716 0.8872 0.6876
Cl2? Cl 0.7331(6) 0.8182(8) 0.7738(3)
O13? O 0.729(2) 0.811(2) 0.7346(4)
O14? O 0.6311(11) 0.7461(14) 0.7974(9)
loop_
_geom_bond_atom_site_label_1
_geom_bond_atom_site_label_2
_geom_bond_site_symmetry_1
_geom_bond_site_symmetry_2
Cu1 N9 1_555 1_555
Cl1 O3 1_555 1_555
O1 C21 1_555 1_555
O2 C27 1_555 1_555
O4 Cl1 1_555 1_555
O5 Cl1 1_555 1_555
O6 Cl1 1_555 1_555
O7 C16 1_555 1_555
O8 C17 1_555 1_555
O9 C18 1_555 1_555
O10 C19 1_555 1_555
O12 H1 1_555 1_555
N1 C1 1_555 1_555
N2 H2 1_555 1_555
N3 H3 1_555 1_555
N4 C6 1_555 1_555
N5 C8 1_555 1_555
N6 C10 1_555 1_555
N7 C12 1_555 1_555
N9 C22 1_555 1_555
N10 C28 1_555 1_555
C1 H4 1_555 1_555
C2 C1 1_555 1_555
C3 C2 1_555 1_555
H5 C3 1_555 1_555
C4 C3 1_555 1_555
C5 N1 1_555 1_555
H6 C5 1_555 1_555
C6 H7 1_555 1_555
H8 C6 1_555 1_555
H9 C6 1_555 1_555
C7 N4 1_555 1_555
H10 C7 1_555 1_555
H11 C7 1_555 1_555
H12 C7 1_555 1_555
C8 H13 1_555 1_555
H14 C8 1_555 1_555
H15 C8 1_555 1_555
C9 N5 1_555 1_555
H16 C9 1_555 1_555
H17 C9 1_555 1_555
H18 C9 1_555 1_555
C10 H19 1_555 1_555
H20 C10 1_555 1_555
H21 C10 1_555 1_555
C11 N6 1_555 1_555
H22 C11 1_555 1_555
H23 C11 1_555 1_555
H24 C11 1_555 1_555
C12 H25 1_555 1_555
H26 C12 1_555 1_555
H27 C12 1_555 1_555
C13 N7 1_555 1_555
H28 C13 1_555 1_555
H29 C13 1_555 1_555
H30 C13 1_555 1_555
C16 N4 1_555 1_555
H37 C16 1_555 1_555
C17 N5 1_555 1_555
H38 C17 1_555 1_555
C18 N6 1_555 1_555
H39 C18 1_555 1_555
C19 N7 1_555 1_555
H40 C19 1_555 1_555
C21 N2 1_555 1_555
C22 H42 1_555 1_555
C23 C22 1_555 1_555
H43 C23 1_555 1_555
C24 N2 1_555 1_555
C25 C24 1_555 1_555
H44 C25 1_555 1_555
C26 N9 1_555 1_555
H45 C26 1_555 1_555
C27 N3 1_555 1_555
C28 H46 1_555 1_555
C29 C28 1_555 1_555
H47 C29 1_555 1_555
C30 N3 1_555 1_555
C31 C30 1_555 1_555
H48 C31 1_555 1_555
C32 N10 1_555 1_555
H49 C32 1_555 1_555
Cu1_2 N10 1_555 1_555
O1E C21E 1_555 1_555
O2E C27E 1_555 1_555
H1C O12 1_555 1_555
N1E C1E 1_555 1_555
N2E H2E 1_555 1_555
N3E H3E 1_555 1_555
N9E Cu1 1_555 1_555
N9_2 Cu1_2 1_555 1_555
N9E_2 Cu1_2 1_555 1_555
N10E Cu1_2 1_555 1_555
N10_2 Cu1 1_555 1_555
N10E_2 Cu1 1_555 1_555
C1E H4E 1_555 1_555
C2E C1E 1_555 1_555
C3E C2E 1_555 1_555
H5E C3E 1_555 1_555
C4E C3E 1_555 1_555
C5E N1E 1_555 1_555
H6E C5E 1_555 1_555
C21E N2E 1_555 1_555
C22E N9E 1_555 1_555
H42E C22E 1_555 1_555
C23E C22E 1_555 1_555
H43E C23E 1_555 1_555
C24E N2E 1_555 1_555
C25E C24E 1_555 1_555
H44E C25E 1_555 1_555
C26E N9E 1_555 1_555
H45E C26E 1_555 1_555
C27E N3E 1_555 1_555
C28E N10E 1_555 1_555
H46E C28E 1_555 1_555
C29E C28E 1_555 1_555
H47E C29E 1_555 1_555
C30E N3E 1_555 1_555
C31E C30E 1_555 1_555
H48E C31E 1_555 1_555
C32E N10E 1_555 1_555
H49E C32E 1_555 1_555
C2 C21 1_555 1_555
C4 C5 1_555 1_555
C4 C27 1_555 1_555
C23 C24 1_555 1_555
C25 C26 1_555 1_555
C29 C30 1_555 1_555
C31 C32 1_555 1_555
C2E C21E 1_555 1_555
C4E C5E 1_555 1_555
C4E C27E 1_555 1_555
C23E C24E 1_555 1_555
C25E C26E 1_555 1_555
C29E C30E 1_555 1_555
C31E C32E 1_555 1_555

#END
