
#######################################################################
#
#                 Cambridge Crystallographic Data Centre
#                                CCDC 
#
#######################################################################
#
# If this CIF has been generated from an entry in the Cambridge 
# Structural Database, then it will include bibliographic, chemical, 
# crystal, experimental, refinement or atomic coordinate data resulting 
# from the CCDC's data processing and validation procedures.
#
#######################################################################

data_NETXOB
_symmetry_cell_setting           monoclinic
_symmetry_space_group_name_H-M   'C 2/c'
_symmetry_Int_Tables_number      15
_space_group_name_Hall           '-C 2yn'
loop_
_symmetry_equiv_pos_site_id
_symmetry_equiv_pos_as_xyz
1 x,y,z
2 -x,y,1/2-z
3 1/2+x,1/2+y,z
4 1/2-x,1/2+y,1/2-z
5 -x,-y,-z
6 x,-y,1/2+z
7 1/2-x,1/2-y,-z
8 1/2+x,1/2-y,1/2+z
_cell_length_a                   29.3949(13)
_cell_length_b                   10.3536(4)
_cell_length_c                   19.7664(9)
_cell_angle_alpha                90
_cell_angle_beta                 129.582(2)
_cell_angle_gamma                90
_cell_volume                     4636.43
loop_
_atom_site_label
_atom_site_type_symbol
_atom_site_fract_x
_atom_site_fract_y
_atom_site_fract_z
Sn1 Sn 0.229230(6) 0.254546(11) 0.213290(9)
C1 C 0.11859(9) 0.13631(17) 0.03489(14)
C2 C 0.18118(11) 0.2219(2) 0.31155(16)
C3 C 0.17606(10) 0.10152(19) 0.12213(14)
H1 H 0.1997 0.0557 0.1114
H2 H 0.1677 0.0414 0.1506
C4 C 0.21658(10) 0.31538(19) 0.30389(15)
H3 H 0.2549 0.3269 0.3613
H4 H 0.1968 0.3984 0.2852
C5 C 0.06369(15) 0.2154(3) -0.11254(18)
H5 H 0.0638 0.2492 -0.1560
C6 C 0.30612(11) 0.3091(2) 0.22961(17)
H6 H 0.2965 0.3835 0.1928
H7 H 0.3368 0.3349 0.2901
C7 C 0.32974(10) 0.2047(2) 0.20729(17)
C8 C 0.20621(14) 0.1560(3) 0.38904(18)
H8 H 0.2458 0.1684 0.4370
C9 C 0.30397(14) 0.1747(3) 0.1218(2)
H9 H 0.2711 0.2209 0.0762
C10 C 0.37882(11) 0.1342(2) 0.2731(2)
H10 H 0.3972 0.1521 0.3315
C11 C 0.11610(11) 0.1855(2) -0.03185(15)
H11 H 0.1512 0.1990 -0.0220
C12 C 0.01203(14) 0.1960(3) -0.12914(19)
H12 H -0.0235 0.2152 -0.1841
C13 C 0.12257(12) 0.1991(2) 0.24201(19)
H13 H 0.1049 0.2415 0.1891
C14 C 0.40082(15) 0.0376(3) 0.2529(3)
H14 H 0.4339 -0.0085 0.2980
C15 C 0.01240(13) 0.1478(3) -0.0640(2)
H15 H -0.0230 0.1351 -0.0746
C16 C 0.08941(15) 0.1145(3) 0.2491(2)
H16 H 0.0500 0.1002 0.2010
C17 C 0.06567(12) 0.1181(3) 0.01761(17)
H17 H 0.0656 0.0853 0.0613
C18 C 0.3752(2) 0.0091(3) 0.1693(4)
H18 H 0.3906 -0.0560 0.1566
C19 C 0.11427(19) 0.0521(3) 0.3259(3)
H19 H 0.0917 -0.0034 0.3310
C20 C 0.17243(19) 0.0711(3) 0.3956(2)
H20 H 0.1897 0.0272 0.4479
C21 C 0.32637(19) 0.0766(4) 0.1027(3)
H21 H 0.3082 0.0567 0.0446
O1 O 0.27905(6) 0.06905(13) 0.30272(9)
O2 O 0.36195(8) 0.22825(13) 0.44287(12)
C22 C 0.32141(9) 0.01963(17) 0.37306(13)
C23 C 0.36773(10) 0.09670(18) 0.44878(14)
C24 C 0.40981(14) 0.2754(3) 0.5203(2)
H22 H 0.4171 0.3628 0.5342
C25 C 0.41785(12) 0.0644(2) 0.52766(17)
H23 H 0.4321 -0.0187 0.5482
C26 C 0.44512(13) 0.1814(3) 0.57399(19)
H24 H 0.4807 0.1902 0.6307
O3 O 0.32881(7) -0.10139(12) 0.38587(10)
Sn1C Sn 0.270770(6) -0.245454(11) 0.286710(9)
O3C O 0.17119(7) 0.39861(12) 0.11413(10)
loop_
_geom_bond_atom_site_label_1
_geom_bond_atom_site_label_2
_geom_bond_site_symmetry_1
_geom_bond_site_symmetry_2
Sn1 C3 1_555 1_555
C1 C3 1_555 1_555
C2 C4 1_555 1_555
C3 H1 1_555 1_555
H2 C3 1_555 1_555
C4 Sn1 1_555 1_555
H3 C4 1_555 1_555
H4 C4 1_555 1_555
C5 H5 1_555 1_555
C6 Sn1 1_555 1_555
H6 C6 1_555 1_555
H7 C6 1_555 1_555
C7 C6 1_555 1_555
C8 C2 1_555 1_555
H8 C8 1_555 1_555
C9 C7 1_555 1_555
H9 C9 1_555 1_555
C10 C7 1_555 1_555
H10 C10 1_555 1_555
C11 C1 1_555 1_555
H11 C11 1_555 1_555
C12 C5 1_555 1_555
H12 C12 1_555 1_555
C13 C2 1_555 1_555
H13 C13 1_555 1_555
C14 C10 1_555 1_555
H14 C14 1_555 1_555
C15 C12 1_555 1_555
H15 C15 1_555 1_555
C16 C13 1_555 1_555
H16 C16 1_555 1_555
C17 C1 1_555 1_555
H17 C17 1_555 1_555
C18 C14 1_555 1_555
H18 C18 1_555 1_555
C19 C16 1_555 1_555
H19 C19 1_555 1_555
C20 C8 1_555 1_555
H20 C20 1_555 1_555
C21 C9 1_555 1_555
H21 C21 1_555 1_555
O1 Sn1 1_555 1_555
O2 C23 1_555 1_555
C22 O1 1_555 1_555
C23 C22 1_555 1_555
C24 O2 1_555 1_555
H22 C24 1_555 1_555
C25 C23 1_555 1_555
H23 C25 1_555 1_555
C26 C24 1_555 1_555
H24 C26 1_555 1_555
O3 C22 1_555 1_555
Sn1C O3 1_555 1_555
O3C Sn1 1_555 1_555
C5 C11 1_555 1_555
C15 C17 1_555 1_555
C18 C21 1_555 1_555
C19 C20 1_555 1_555
C25 C26 1_555 1_555

#END
