
#######################################################################
#
#                 Cambridge Crystallographic Data Centre
#                                CCDC 
#
#######################################################################
#
# If this CIF has been generated from an entry in the Cambridge 
# Structural Database, then it will include bibliographic, chemical, 
# crystal, experimental, refinement or atomic coordinate data resulting 
# from the CCDC's data processing and validation procedures.
#
#######################################################################

data_NETYOC
_symmetry_cell_setting           orthorhombic
_symmetry_space_group_name_H-M   'P b c n'
_symmetry_Int_Tables_number      60
_space_group_name_Hall           '-P 2n 2ab'
loop_
_symmetry_equiv_pos_site_id
_symmetry_equiv_pos_as_xyz
1 x,y,z
2 1/2-x,1/2-y,1/2+z
3 -x,y,1/2-z
4 1/2+x,1/2-y,-z
5 -x,-y,-z
6 1/2+x,1/2+y,1/2-z
7 x,-y,1/2+z
8 1/2-x,1/2+y,z
_cell_length_a                   30.772(3)
_cell_length_b                   12.7256(11)
_cell_length_c                   10.2351(9)
_cell_angle_alpha                90
_cell_angle_beta                 90
_cell_angle_gamma                90
_cell_volume                     4007.98
loop_
_atom_site_label
_atom_site_type_symbol
_atom_site_fract_x
_atom_site_fract_y
_atom_site_fract_z
Cu1 Cu 0.477508(14) 0.50210(4) 0.60672(4)
O1 O 0.48247(10) 0.3506(2) 0.6013(3)
O2 O 0.52265(10) 0.3473(2) 0.4195(3)
O3 O 0.42493(7) 0.4878(2) 0.5012(2)
O4 O 0.46232(8) 0.4899(2) 0.3157(2)
C1 C 0.50392(17) 0.3048(3) 0.5138(6)
C2 C 0.50607(16) 0.1847(3) 0.5240(5)
H1 H 0.4990 0.1643 0.6128
H2 H 0.4842 0.1547 0.4669
C3 C 0.54940(17) 0.1395(3) 0.4888(5)
C4 C 0.5536(2) 0.0745(4) 0.3824(5)
H3 H 0.5293 0.0596 0.3315
C5 C 0.5942(3) 0.0298(4) 0.3489(6)
H4 H 0.5966 -0.0133 0.2758
C6 C 0.6291(2) 0.0496(4) 0.4224(6)
H5 H 0.6553 0.0182 0.4002
C7 C 0.6278(2) 0.1146(4) 0.5301(5)
C8 C 0.58669(18) 0.1605(3) 0.5648(5)
C9 C 0.58568(18) 0.2260(3) 0.6768(5)
H6 H 0.5598 0.2580 0.7015
C10 C 0.6222(2) 0.2425(4) 0.7484(5)
H7 H 0.6207 0.2845 0.8226
C11 C 0.6617(2) 0.1982(5) 0.7135(7)
H8 H 0.6864 0.2109 0.7636
C12 C 0.6641(2) 0.1371(5) 0.6075(7)
H9 H 0.6908 0.1086 0.5843
C13 C 0.42737(12) 0.4821(3) 0.3798(4)
C14 C 0.38644(14) 0.4627(4) 0.3012(4)
H10 H 0.3720 0.5295 0.2875
H11 H 0.3947 0.4359 0.2160
C15 C 0.35432(15) 0.3872(4) 0.3613(5)
C16 C 0.35487(18) 0.2838(5) 0.3235(5)
H12 H 0.3759 0.2619 0.2641
C17 C 0.3255(2) 0.2113(5) 0.3700(7)
H13 H 0.3269 0.1419 0.3419
C18 C 0.2949(2) 0.2409(6) 0.4559(7)
H14 H 0.2745 0.1924 0.4849
C19 C 0.29360(17) 0.3456(5) 0.5026(5)
C20 C 0.32378(15) 0.4202(4) 0.4543(5)
C21 C 0.32154(17) 0.5252(4) 0.5023(5)
H15 H 0.3404 0.5764 0.4709
C22 C 0.2909(2) 0.5501(6) 0.5962(8)
H16 H 0.2891 0.6184 0.6278
C23 C 0.2635(3) 0.4751(9) 0.6427(8)
H17 H 0.2440 0.4929 0.7087
C24 C 0.2634(2) 0.3769(8) 0.5970(7)
H18 H 0.2431 0.3289 0.6282
Cu1D Cu 0.522492(14) 0.49790(4) 0.39328(4)
Cu1F Cu 0.477508(14) 0.49790(4) 0.10672(4)
O2D O 0.47735(10) 0.6527(2) 0.5805(3)
O4D O 0.53768(8) 0.5101(2) 0.6843(2)
O4F O 0.46232(8) 0.5101(2) 0.8157(2)
loop_
_geom_bond_atom_site_label_1
_geom_bond_atom_site_label_2
_geom_bond_site_symmetry_1
_geom_bond_site_symmetry_2
Cu1 O1 1_555 1_555
O1 C1 1_555 1_555
O2 C1 1_555 1_555
O3 Cu1 1_555 1_555
O4 C13 1_555 1_555
C1 C2 1_555 1_555
C2 H1 1_555 1_555
H2 C2 1_555 1_555
C3 C2 1_555 1_555
C4 C3 1_555 1_555
H3 C4 1_555 1_555
C5 C4 1_555 1_555
H4 C5 1_555 1_555
C6 C5 1_555 1_555
H5 C6 1_555 1_555
C7 C6 1_555 1_555
C8 C3 1_555 1_555
C9 C8 1_555 1_555
H6 C9 1_555 1_555
C10 C9 1_555 1_555
H7 C10 1_555 1_555
C11 C10 1_555 1_555
H8 C11 1_555 1_555
C12 C7 1_555 1_555
H9 C12 1_555 1_555
C13 O3 1_555 1_555
C14 C13 1_555 1_555
H10 C14 1_555 1_555
H11 C14 1_555 1_555
C15 C14 1_555 1_555
C16 C15 1_555 1_555
H12 C16 1_555 1_555
C17 C16 1_555 1_555
H13 C17 1_555 1_555
C18 C17 1_555 1_555
H14 C18 1_555 1_555
C19 C18 1_555 1_555
C20 C15 1_555 1_555
C21 C20 1_555 1_555
H15 C21 1_555 1_555
C22 C21 1_555 1_555
H16 C22 1_555 1_555
C23 C22 1_555 1_555
H17 C23 1_555 1_555
C24 C19 1_555 1_555
H18 C24 1_555 1_555
Cu1D O2 1_555 1_555
Cu1F O4 1_555 1_555
O2D Cu1 1_555 1_555
O4D Cu1 1_555 1_555
O4F Cu1 1_555 1_555
O4 Cu1D 1_555 1_555
C7 C8 1_555 1_555
C11 C12 1_555 1_555
C19 C20 1_555 1_555
C23 C24 1_555 1_555

#END
