
#######################################################################
#
#                 Cambridge Crystallographic Data Centre
#                                CCDC 
#
#######################################################################
#
# If this CIF has been generated from an entry in the Cambridge 
# Structural Database, then it will include bibliographic, chemical, 
# crystal, experimental, refinement or atomic coordinate data resulting 
# from the CCDC's data processing and validation procedures.
#
#######################################################################

data_NETZAP
_symmetry_cell_setting           triclinic
_symmetry_space_group_name_H-M   'P -1'
_symmetry_Int_Tables_number      2
_space_group_name_Hall           '-P 1'
loop_
_symmetry_equiv_pos_site_id
_symmetry_equiv_pos_as_xyz
1 x,y,z
2 -x,-y,-z
_cell_length_a                   10.2941(10)
_cell_length_b                   10.5710(10)
_cell_length_c                   13.2491(12)
_cell_angle_alpha                76.0520(10)
_cell_angle_beta                 89.7100(10)
_cell_angle_gamma                85.8710(10)
_cell_volume                     1395.5
loop_
_atom_site_label
_atom_site_type_symbol
_atom_site_fract_x
_atom_site_fract_y
_atom_site_fract_z
Mn1 Mn 0.65000(4) 0.02626(4) 0.61461(3)
O1 O 0.47552(17) -0.0611(2) 0.66110(14)
O2 O 0.34040(17) 0.04008(17) 0.53037(14)
O3 O -0.13548(17) 0.04598(18) 0.61864(15)
O4 O -0.20639(17) -0.14536(18) 0.69309(15)
O5 O 0.3142(2) -0.4276(2) 0.91677(17)
O6 O 0.1114(3) -0.4481(3) 0.9341(3)
N1 N 0.6095(2) 0.2311(2) 0.51284(16)
N2 N 0.4930(2) 0.4014(2) 0.41315(16)
N3 N 0.3607(2) 0.8845(2) 0.24433(17)
N4 N 0.3260(2) 0.7108(2) 0.18134(17)
N5 N 0.2020(3) -0.3922(3) 0.8923(2)
C1 C 0.4925(3) 0.2834(3) 0.4801(2)
H1 H 0.4165 0.2424 0.5012
C2 C 0.6941(2) 0.3231(2) 0.46191(19)
C3 C 0.8294(3) 0.3215(3) 0.4622(2)
H2 H 0.8791 0.2514 0.5036
C4 C 0.8891(3) 0.4249(3) 0.4005(2)
C5 C 0.8143(3) 0.5342(3) 0.3394(2)
C6 C 0.6801(3) 0.5360(3) 0.3392(2)
H3 H 0.6298 0.6071 0.2997
C7 C 0.6221(2) 0.4297(2) 0.3992(2)
C8 C 1.0363(3) 0.4187(3) 0.3976(3)
H4 H 1.0649 0.4146 0.3293
H5 H 1.0663 0.4953 0.4142
H6 H 1.0712 0.3423 0.4475
C9 C 0.8795(4) 0.6493(3) 0.2735(3)
H7 H 0.8143 0.7162 0.2413
H8 H 0.9355 0.6834 0.3166
H9 H 0.9301 0.6214 0.2207
C10 C 0.3812(3) 0.4815(3) 0.3592(2)
H10 H 0.3025 0.4542 0.3961
H11 H 0.3898 0.5720 0.3602
C11 C 0.3682(3) 0.4719(3) 0.2473(2)
H12 H 0.4538 0.4734 0.2163
H13 H 0.3339 0.3892 0.2463
C12 C 0.2792(3) 0.5829(3) 0.1824(2)
H14 H 0.1920 0.5783 0.2106
H15 H 0.2746 0.5728 0.1117
C13 C 0.2860(3) 0.7887(3) 0.2448(2)
H16 H 0.2118 0.7755 0.2853
C14 C 0.4599(3) 0.8689(3) 0.1743(2)
C15 C 0.5658(3) 0.9417(3) 0.1416(2)
H17 H 0.5794 1.0148 0.1665
C16 C 0.6513(3) 0.9039(3) 0.0712(2)
C17 C 0.6281(3) 0.7946(3) 0.0309(2)
C18 C 0.5228(3) 0.7228(3) 0.0627(2)
H18 H 0.5076 0.6509 0.0367
C19 C 0.4393(3) 0.7609(3) 0.1352(2)
C20 C 0.7692(3) 0.9814(3) 0.0375(3)
H19 H 0.7650 1.0564 0.0666
H20 H 0.8471 0.9274 0.0617
H21 H 0.7699 1.0095 -0.0370
C21 C 0.7191(4) 0.7569(3) -0.0492(3)
H22 H 0.6905 0.6807 -0.0674
H23 H 0.7184 0.8277 -0.1102
H24 H 0.8058 0.7384 -0.0207
C22 C 0.3652(3) -0.0352(3) 0.6181(2)
C23 C 0.2535(2) -0.1017(2) 0.67752(19)
C24 C 0.1258(2) -0.0564(2) 0.6499(2)
H25 H 0.1092 0.0179 0.5961
C25 C 0.0218(2) -0.1206(2) 0.70151(19)
C26 C 0.0468(3) -0.2316(3) 0.7809(2)
H26 H -0.0212 -0.2764 0.8155
C27 C 0.1744(3) -0.2747(3) 0.8077(2)
C28 C 0.2786(2) -0.2116(3) 0.75845(19)
H27 H 0.3637 -0.2421 0.7790
C29 C -0.1158(3) -0.0708(3) 0.6693(2)
Mn1A Mn 0.35000(4) -0.02626(4) 0.38539(3)
Mn1_2 Mn -0.35000(4) 0.02626(4) 0.61461(3)
Mn1A_2 Mn 0.35000(4) 0.97374(4) 0.38539(3)
O2A O 0.65960(17) -0.04008(17) 0.46963(14)
O3_2 O 0.86452(17) 0.04598(18) 0.61864(15)
O4_2 O 0.79361(17) -0.14536(18) 0.69309(15)
N3A N 0.6393(2) 0.1155(2) 0.75567(17)
loop_
_geom_bond_atom_site_label_1
_geom_bond_atom_site_label_2
_geom_bond_site_symmetry_1
_geom_bond_site_symmetry_2
Mn1 O1 1_555 1_555
O1 C22 1_555 1_555
O2 C22 1_555 1_555
O3 C29 1_555 1_555
O4 C29 1_555 1_555
O5 N5 1_555 1_555
O6 N5 1_555 1_555
N1 Mn1 1_555 1_555
N2 C1 1_555 1_555
N3 C13 1_555 1_555
N4 C12 1_555 1_555
N5 C27 1_555 1_555
C1 N1 1_555 1_555
H1 C1 1_555 1_555
C2 N1 1_555 1_555
C3 C2 1_555 1_555
H2 C3 1_555 1_555
C4 C3 1_555 1_555
C5 C4 1_555 1_555
C6 C5 1_555 1_555
H3 C6 1_555 1_555
C7 N2 1_555 1_555
C8 C4 1_555 1_555
H4 C8 1_555 1_555
H5 C8 1_555 1_555
H6 C8 1_555 1_555
C9 C5 1_555 1_555
H7 C9 1_555 1_555
H8 C9 1_555 1_555
H9 C9 1_555 1_555
C10 N2 1_555 1_555
H10 C10 1_555 1_555
H11 C10 1_555 1_555
C11 C10 1_555 1_555
H12 C11 1_555 1_555
H13 C11 1_555 1_555
C12 C11 1_555 1_555
H14 C12 1_555 1_555
H15 C12 1_555 1_555
C13 N4 1_555 1_555
H16 C13 1_555 1_555
C14 N3 1_555 1_555
C15 C14 1_555 1_555
H17 C15 1_555 1_555
C16 C15 1_555 1_555
C17 C16 1_555 1_555
C18 C17 1_555 1_555
H18 C18 1_555 1_555
C19 N4 1_555 1_555
C20 C16 1_555 1_555
H19 C20 1_555 1_555
H20 C20 1_555 1_555
H21 C20 1_555 1_555
C21 C17 1_555 1_555
H22 C21 1_555 1_555
H23 C21 1_555 1_555
H24 C21 1_555 1_555
C22 C23 1_555 1_555
C23 C24 1_555 1_555
C24 H25 1_555 1_555
C25 C24 1_555 1_555
C26 C25 1_555 1_555
H26 C26 1_555 1_555
C27 C26 1_555 1_555
C28 C23 1_555 1_555
H27 C28 1_555 1_555
C29 C25 1_555 1_555
Mn1A O2 1_555 1_555
Mn1_2 O3 1_555 1_555
Mn1A_2 N3 1_555 1_555
O2A Mn1 1_555 1_555
O3_2 Mn1 1_555 1_555
O4_2 Mn1 1_555 1_555
N3A Mn1 1_555 1_555
O4 Mn1_2 1_555 1_555
C2 C7 1_555 1_555
C6 C7 1_555 1_555
C14 C19 1_555 1_555
C18 C19 1_555 1_555
C27 C28 1_555 1_555

#END
