
#######################################################################
#
#                 Cambridge Crystallographic Data Centre
#                                CCDC 
#
#######################################################################
#
# If this CIF has been generated from an entry in the Cambridge 
# Structural Database, then it will include bibliographic, chemical, 
# crystal, experimental, refinement or atomic coordinate data resulting 
# from the CCDC's data processing and validation procedures.
#
#######################################################################

data_NETZIX
_symmetry_cell_setting           monoclinic
_symmetry_space_group_name_H-M   'C 2/c'
_symmetry_Int_Tables_number      15
_space_group_name_Hall           '-C 2yn'
loop_
_symmetry_equiv_pos_site_id
_symmetry_equiv_pos_as_xyz
1 x,y,z
2 -x,y,1/2-z
3 1/2+x,1/2+y,z
4 1/2-x,1/2+y,1/2-z
5 -x,-y,-z
6 x,-y,1/2+z
7 1/2-x,1/2-y,-z
8 1/2+x,1/2-y,1/2+z
_cell_length_a                   11.2129(11)
_cell_length_b                   13.7421(14)
_cell_length_c                   9.4520(10)
_cell_angle_alpha                90
_cell_angle_beta                 93.9700(10)
_cell_angle_gamma                90
_cell_volume                     1452.95
loop_
_atom_site_label
_atom_site_type_symbol
_atom_site_fract_x
_atom_site_fract_y
_atom_site_fract_z
Zn1 Zn 0.0000 0.39516(8) 0.2500
N1 N 0.1452(5) 0.1523(4) 0.0461(7)
N2 N 0.1110(5) 0.2831(4) 0.1733(6)
O1 O 0.1015(4) 0.4121(3) 0.4467(5)
O2 O 0.0983(4) 0.4932(3) 0.6511(5)
C1 C 0.0843(6) 0.2361(5) 0.0543(8)
H1 H 0.0292 0.2583 -0.0164
C2 C 0.2179(7) 0.1458(6) 0.1703(9)
H2 H 0.2710 0.0958 0.1960
C3 C 0.1966(7) 0.2265(6) 0.2470(9)
H3 H 0.2336 0.2415 0.3354
C4 C 0.1309(8) 0.0794(5) -0.0680(9)
H4 H 0.2090 0.0595 -0.0954
H5 H 0.0879 0.1082 -0.1502
C5 C 0.0626(8) -0.0100(6) -0.0205(11)
H6 H 0.0586 -0.0573 -0.0969
H7 H 0.1077 -0.0392 0.0599
C6 C 0.0586(6) 0.4722(4) 0.5277(7)
Zn1D Zn 0.0000 -0.39516(8) -0.2500
Zn1D_2 Zn 0.0000 0.60484(8) 0.7500
N1D N -0.1452(5) -0.1523(4) -0.0461(7)
N2D N -0.1110(5) -0.2831(4) -0.1733(6)
N2A N -0.1110(5) 0.2831(4) 0.3267(6)
O1D O -0.1015(4) 0.5879(3) 0.5533(5)
O1A O -0.1015(4) 0.4121(3) 0.0533(5)
O2D O -0.0983(4) 0.5068(3) 0.3489(5)
O2E O 0.0983(4) 0.5068(3) 0.1511(5)
C1D C -0.0843(6) -0.2361(5) -0.0543(8)
H1D H -0.0292 -0.2583 0.0164
C2D C -0.2179(7) -0.1458(6) -0.1703(9)
H2D H -0.2710 -0.0958 -0.1960
C3D C -0.1966(7) -0.2265(6) -0.2470(9)
H3D H -0.2336 -0.2415 -0.3354
C4D C -0.1309(8) -0.0794(5) 0.0680(9)
H4D H -0.2090 -0.0595 0.0954
H5D H -0.0879 -0.1082 0.1502
C5D C -0.0626(8) 0.0100(6) 0.0205(11)
H6D H -0.0586 0.0573 0.0969
H7D H -0.1077 0.0392 -0.0599
C6D C -0.0586(6) 0.5278(4) 0.4723(7)
loop_
_geom_bond_atom_site_label_1
_geom_bond_atom_site_label_2
_geom_bond_site_symmetry_1
_geom_bond_site_symmetry_2
Zn1 N2 1_555 1_555
N1 C1 1_555 1_555
N2 C1 1_555 1_555
O1 Zn1 1_555 1_555
O2 C6 1_555 1_555
C1 H1 1_555 1_555
C2 N1 1_555 1_555
H2 C2 1_555 1_555
C3 N2 1_555 1_555
H3 C3 1_555 1_555
C4 N1 1_555 1_555
H4 C4 1_555 1_555
H5 C4 1_555 1_555
C5 C4 1_555 1_555
H6 C5 1_555 1_555
H7 C5 1_555 1_555
C6 O1 1_555 1_555
Zn1D N2D 1_555 1_555
Zn1D_2 O2 1_555 1_555
N1D C1D 1_555 1_555
N2D C1D 1_555 1_555
N2A Zn1 1_555 1_555
O1D Zn1D_2 1_555 1_555
O1A Zn1 1_555 1_555
O2D Zn1 1_555 1_555
O2E Zn1 1_555 1_555
C1D H1D 1_555 1_555
C2D N1D 1_555 1_555
H2D C2D 1_555 1_555
C3D N2D 1_555 1_555
H3D C3D 1_555 1_555
C4D N1D 1_555 1_555
H4D C4D 1_555 1_555
H5D C4D 1_555 1_555
C5D C5 1_555 1_555
H6D C5D 1_555 1_555
H7D C5D 1_555 1_555
C6D C6 1_555 1_555
C2 C3 1_555 1_555
O1D C6D 1_555 1_555
O2D C6D 1_555 1_555
C2D C3D 1_555 1_555
C4D C5D 1_555 1_555

#END
