
#######################################################################
#
#                 Cambridge Crystallographic Data Centre
#                                CCDC 
#
#######################################################################
#
# If this CIF has been generated from an entry in the Cambridge 
# Structural Database, then it will include bibliographic, chemical, 
# crystal, experimental, refinement or atomic coordinate data resulting 
# from the CCDC's data processing and validation procedures.
#
#######################################################################

data_NEVBOH
_symmetry_cell_setting           triclinic
_symmetry_space_group_name_H-M   'P -1'
_symmetry_Int_Tables_number      2
_space_group_name_Hall           '-P 1'
loop_
_symmetry_equiv_pos_site_id
_symmetry_equiv_pos_as_xyz
1 x,y,z
2 -x,-y,-z
_cell_length_a                   10.0462(19)
_cell_length_b                   10.466(2)
_cell_length_c                   14.530(3)
_cell_angle_alpha                86.279(4)
_cell_angle_beta                 81.283(4)
_cell_angle_gamma                70.878(4)
_cell_volume                     1426.58
loop_
_atom_site_label
_atom_site_type_symbol
_atom_site_fract_x
_atom_site_fract_y
_atom_site_fract_z
C1 C 1.2895(7) 0.1940(6) -0.0656(4)
H1 H 1.2436 0.2742 -0.0337
C2 C 1.3526(7) 0.2001(6) -0.1562(4)
H2 H 1.3483 0.2833 -0.1847
C3 C 1.4228(6) 0.0812(6) -0.2048(4)
C4 C 1.4323(7) -0.0414(6) -0.1579(4)
H3 H 1.4835 -0.1232 -0.1866
C5 C 1.3645(7) -0.0383(6) -0.0682(4)
H4 H 1.3689 -0.1203 -0.0378
C6 C 1.4925(6) 0.0796(6) -0.3033(4)
C7 C 1.4384(6) 0.1773(6) -0.3692(4)
H5 H 1.3526 0.2458 -0.3537
C8 C 1.5124(6) 0.1724(6) -0.4579(4)
H6 H 1.4747 0.2390 -0.5010
C9 C 1.6868(7) -0.0198(6) -0.4212(4)
H7 H 1.7723 -0.0878 -0.4384
C10 C 1.6185(7) -0.0227(6) -0.3317(4)
H8 H 1.6564 -0.0926 -0.2907
C11 C 1.1102(6) 0.2844(6) 0.2261(4)
C12 C 1.0659(6) 0.4282(5) 0.2548(4)
C13 C 1.0658(7) 0.4544(6) 0.3473(4)
H9 H 1.0942 0.3823 0.3887
C14 C 1.0249(7) 0.5835(6) 0.3790(4)
H10 H 1.0272 0.5978 0.4412
C15 C 0.9798(6) 0.6942(6) 0.3191(4)
C16 C 0.9796(6) 0.6690(6) 0.2263(4)
H11 H 0.9498 0.7418 0.1856
C17 C 1.0222(6) 0.5389(5) 0.1925(4)
C18 C 1.0117(6) 0.5182(5) 0.0931(4)
C19 C 1.0866(6) 0.5712(5) 0.0203(4)
H12 H 1.1449 0.6188 0.0334
C20 C 1.0747(6) 0.5532(5) -0.0714(4)
H13 H 1.1250 0.5892 -0.1192
C21 C 0.9263(6) 0.8342(6) 0.3581(4)
C22 C 0.6400(6) 1.2967(5) 0.2702(4)
C23 C 0.5358(6) 1.4268(5) 0.2415(4)
C24 C 0.4603(6) 1.5310(5) 0.3050(4)
C25 C 0.3729(6) 1.6507(5) 0.2717(4)
H14 H 0.3263 1.7212 0.3127
C26 C 0.3524(6) 1.6691(5) 0.1782(4)
C27 C 0.4218(7) 1.5636(6) 0.1178(4)
H15 H 0.4052 1.5721 0.0561
C28 C 0.5157(7) 1.4458(6) 0.1486(4)
H16 H 0.5663 1.3779 0.1064
C29 C 0.2664(6) 1.8023(5) 0.1398(4)
C30 C 0.4808(6) 1.5149(5) 0.4057(4)
C31 C 0.3659(6) 1.5406(6) 0.4750(4)
H17 H 0.2745 1.5684 0.4587
C32 C 0.3833(6) 1.5260(6) 0.5683(4)
H18 H 0.3041 1.5436 0.6138
N1 N 1.2919(5) 0.0765(5) -0.0217(3)
N2 N 1.6367(5) 0.0756(5) -0.4845(3)
O1 O 1.0752(5) 0.2002(4) 0.2789(3)
O2 O 1.1882(5) 0.2510(4) 0.1473(3)
O3 O 0.9576(5) 0.8548(5) 0.4340(3)
O4 O 0.8441(5) 0.9274(4) 0.3117(3)
O5 O 0.5942(4) 1.2265(4) 0.3348(3)
O6 O 0.7625(5) 1.2640(5) 0.2312(3)
O7 O 0.2675(5) 1.9088(4) 0.1782(3)
O8 O 0.2057(5) 1.8061(4) 0.0707(3)
O9 O 0.9735(6) 0.0883(6) 0.1027(4)
O10 O 0.8828(5) 1.1841(5) 0.4197(3)
Zn1 Zn 1.17838(7) 0.07531(6) 0.11047(4)
Zn2 Zn 0.75280(7) 1.08931(6) 0.38742(4)
H19 H 0.926(6) 1.167(9) 0.465(3)
H20 H 0.933(6) 1.180(9) 0.369(2)
H21 H 0.953(7) 0.018(4) 0.102(6)
H22 H 0.924(8) 0.143(6) 0.142(5)
C1_2 C 0.2895(7) 2.1940(6) -0.0656(4)
H1_2 H 0.2436 2.2742 -0.0337
C2_2 C 0.3526(7) 2.2001(6) -0.1562(4)
H2_2 H 0.3483 2.2833 -0.1847
C3_2 C 0.4228(6) 2.0812(6) -0.2048(4)
C4_2 C 0.4323(7) 1.9586(6) -0.1579(4)
H3_2 H 0.4835 1.8768 -0.1866
C5_2 C 0.3645(7) 1.9617(6) -0.0682(4)
H4_2 H 0.3689 1.8797 -0.0378
C6_2 C 0.4925(6) 2.0796(6) -0.3033(4)
C7_2 C 0.4384(6) 2.1773(6) -0.3692(4)
H5_2 H 0.3526 2.2458 -0.3537
C8_2 C 0.5124(6) 2.1724(6) -0.4579(4)
H6_2 H 0.4747 2.2390 -0.5010
C9_2 C 0.6868(7) 1.9802(6) -0.4212(4)
H7_2 H 0.7723 1.9122 -0.4384
C10_2 C 0.6185(7) 1.9773(6) -0.3317(4)
H8_2 H 0.6564 1.9074 -0.2907
C11A C 0.8898(6) 0.7156(6) -0.2261(4)
C12A C 0.9341(6) 0.5718(5) -0.2548(4)
C13A C 0.9342(7) 0.5456(6) -0.3473(4)
H9A H 0.9058 0.6177 -0.3887
C14A C 0.9751(7) 0.4165(6) -0.3790(4)
H10A H 0.9728 0.4022 -0.4412
C15A C 1.0202(6) 0.3058(6) -0.3191(4)
C16A C 1.0204(6) 0.3310(6) -0.2263(4)
H11A H 1.0502 0.2582 -0.1856
C17A C 0.9778(6) 0.4611(5) -0.1925(4)
C18A C 0.9883(6) 0.4818(5) -0.0931(4)
C19A C 0.9134(6) 0.4288(5) -0.0203(4)
H12A H 0.8551 0.3812 -0.0334
C20A C 0.9253(6) 0.4468(5) 0.0714(4)
H13A H 0.8750 0.4108 0.1192
C21A C 1.0737(6) 0.1658(6) -0.3581(4)
C22A C 0.3600(6) 1.7033(5) 0.7298(4)
C23A C 0.4642(6) 1.5732(5) 0.7585(4)
C24A C 0.5397(6) 1.4690(5) 0.6950(4)
C25A C 0.6271(6) 1.3493(5) 0.7283(4)
H14A H 0.6737 1.2788 0.6873
C26A C 0.6476(6) 1.3309(5) 0.8218(4)
C27A C 0.5782(7) 1.4364(6) 0.8822(4)
H15A H 0.5948 1.4279 0.9439
C28A C 0.4843(7) 1.5542(6) 0.8514(4)
H16A H 0.4337 1.6221 0.8936
C29A C 0.7336(6) 1.1977(5) 0.8602(4)
C30A C 0.5192(6) 1.4851(5) 0.5943(4)
C31A C 0.6341(6) 1.4594(6) 0.5250(4)
H17A H 0.7255 1.4316 0.5413
C32A C 0.6167(6) 1.4740(6) 0.4317(4)
H18A H 0.6959 1.4564 0.3862
N1_2 N 0.2919(5) 2.0765(5) -0.0217(3)
N2_2 N 0.6367(5) 2.0756(5) -0.4845(3)
N2_3 N 0.6367(5) 1.0756(5) 0.5155(3)
N2A N 0.3633(5) 1.9244(5) 0.4845(3)
O1A O 0.9248(5) 0.7998(4) -0.2789(3)
O2A O 0.8118(5) 0.7490(4) -0.1473(3)
O2_2 O 0.1882(5) 2.2510(4) 0.1473(3)
O3A O 1.0424(5) 0.1452(5) -0.4340(3)
O4A O 1.1559(5) 0.0726(4) -0.3117(3)
O4A_2 O 0.1559(5) 2.0726(4) 0.6883(3)
O5A O 0.4058(4) 1.7735(4) 0.6652(3)
O6A O 0.2375(5) 1.7360(5) 0.7688(3)
O7A O 0.7325(5) 1.0912(4) 0.8218(3)
O7_2 O 1.2675(5) -0.0912(4) 0.1782(3)
O8A O 0.7943(5) 1.1939(4) 0.9293(3)
O9_2 O -0.0265(6) 2.0883(6) 0.1027(4)
O10A O 0.1172(5) 1.8159(5) 0.5803(3)
Zn1_2 Zn 0.17838(7) 2.07531(6) 0.11047(4)
Zn1A Zn 0.82162(7) 0.92469(6) -0.11047(4)
Zn1A_2 Zn 0.82162(7) 0.92469(6) 0.88953(4)
Zn2A Zn 0.24720(7) 1.91069(6) 0.61258(4)
Zn2_2 Zn 0.75280(7) 2.08931(6) -0.61258(4)
Zn2_3 Zn 1.75280(7) 0.08931(6) -0.61258(4)
Zn2A_2 Zn 1.24720(7) -0.08931(6) -0.38742(4)
H19A H 0.074(6) 1.833(9) 0.535(3)
H20A H 0.067(6) 1.820(9) 0.631(2)
H21_2 H -0.047(7) 2.018(4) 0.102(6)
H22_2 H -0.076(8) 2.143(6) 0.142(5)
loop_
_geom_bond_atom_site_label_1
_geom_bond_atom_site_label_2
_geom_bond_site_symmetry_1
_geom_bond_site_symmetry_2
C1 H1 1_555 1_555
C2 C1 1_555 1_555
H2 C2 1_555 1_555
C3 C2 1_555 1_555
C4 C3 1_555 1_555
H3 C4 1_555 1_555
C5 C4 1_555 1_555
H4 C5 1_555 1_555
C6 C3 1_555 1_555
C7 C6 1_555 1_555
H5 C7 1_555 1_555
C8 C7 1_555 1_555
H6 C8 1_555 1_555
C9 H7 1_555 1_555
C10 C6 1_555 1_555
H8 C10 1_555 1_555
C11 C12 1_555 1_555
C12 C13 1_555 1_555
C13 H9 1_555 1_555
C14 C13 1_555 1_555
H10 C14 1_555 1_555
C15 C14 1_555 1_555
C16 C15 1_555 1_555
H11 C16 1_555 1_555
C17 C12 1_555 1_555
C18 C17 1_555 1_555
C19 C18 1_555 1_555
H12 C19 1_555 1_555
C20 C19 1_555 1_555
H13 C20 1_555 1_555
C21 C15 1_555 1_555
C22 C23 1_555 1_555
C23 C24 1_555 1_555
C24 C25 1_555 1_555
C25 H14 1_555 1_555
C26 C25 1_555 1_555
C27 C26 1_555 1_555
H15 C27 1_555 1_555
C28 C23 1_555 1_555
H16 C28 1_555 1_555
C29 C26 1_555 1_555
C30 C24 1_555 1_555
C31 C30 1_555 1_555
H17 C31 1_555 1_555
C32 C31 1_555 1_555
H18 C32 1_555 1_555
N1 C1 1_555 1_555
N2 C8 1_555 1_555
O1 C11 1_555 1_555
O2 C11 1_555 1_555
O3 C21 1_555 1_555
O4 C21 1_555 1_555
O5 C22 1_555 1_555
O6 C22 1_555 1_555
O7 C29 1_555 1_555
O8 C29 1_555 1_555
O9 Zn1 1_555 1_555
O10 Zn2 1_555 1_555
Zn1 N1 1_555 1_555
Zn2 O4 1_555 1_555
H19 O10 1_555 1_555
H20 O10 1_555 1_555
H21 O9 1_555 1_555
H22 O9 1_555 1_555
C1_2 H1_2 1_555 1_555
C2_2 C1_2 1_555 1_555
H2_2 C2_2 1_555 1_555
C3_2 C2_2 1_555 1_555
C4_2 C3_2 1_555 1_555
H3_2 C4_2 1_555 1_555
C5_2 C4_2 1_555 1_555
H4_2 C5_2 1_555 1_555
C6_2 C3_2 1_555 1_555
C7_2 C6_2 1_555 1_555
H5_2 C7_2 1_555 1_555
C8_2 C7_2 1_555 1_555
H6_2 C8_2 1_555 1_555
C9_2 H7_2 1_555 1_555
C10_2 C6_2 1_555 1_555
H8_2 C10_2 1_555 1_555
C11A C12A 1_555 1_555
C12A C13A 1_555 1_555
C13A H9A 1_555 1_555
C14A C13A 1_555 1_555
H10A C14A 1_555 1_555
C15A C14A 1_555 1_555
C16A C15A 1_555 1_555
H11A C16A 1_555 1_555
C17A C12A 1_555 1_555
C18A C20 1_555 1_555
C19A C18A 1_555 1_555
H12A C19A 1_555 1_555
C20A C18 1_555 1_555
H13A C20A 1_555 1_555
C21A C15A 1_555 1_555
C22A C23A 1_555 1_555
C23A C24A 1_555 1_555
C24A C25A 1_555 1_555
C25A H14A 1_555 1_555
C26A C25A 1_555 1_555
C27A C26A 1_555 1_555
H15A C27A 1_555 1_555
C28A C23A 1_555 1_555
H16A C28A 1_555 1_555
C29A C26A 1_555 1_555
C30A C32 1_555 1_555
C31A C30A 1_555 1_555
H17A C31A 1_555 1_555
C32A C30 1_555 1_555
H18A C32A 1_555 1_555
N1_2 C1_2 1_555 1_555
N2_2 C8_2 1_555 1_555
N2_3 Zn2 1_555 1_555
N2A Zn2A 1_555 1_555
O1A C11A 1_555 1_555
O2A C11A 1_555 1_555
O2_2 Zn1_2 1_555 1_555
O3A C21A 1_555 1_555
O4A C21A 1_555 1_555
O4A_2 Zn2A 1_555 1_555
O5A C22A 1_555 1_555
O6A C22A 1_555 1_555
O7A C29A 1_555 1_555
O7_2 Zn1 1_555 1_555
O8A C29A 1_555 1_555
O9_2 Zn1_2 1_555 1_555
O10A Zn2A 1_555 1_555
Zn1_2 O7 1_555 1_555
Zn1A O2A 1_555 1_555
Zn1A_2 O7A 1_555 1_555
Zn2A O5A 1_555 1_555
Zn2_2 N2_2 1_555 1_555
Zn2_3 N2 1_555 1_555
Zn2A_2 O4A 1_555 1_555
H19A O10A 1_555 1_555
H20A O10A 1_555 1_555
H21_2 O9_2 1_555 1_555
H22_2 O9_2 1_555 1_555
C5 N1 1_555 1_555
C9 C10 1_555 1_555
C9 N2 1_555 1_555
C16 C17 1_555 1_555
C27 C28 1_555 1_555
O2 Zn1 1_555 1_555
O5 Zn2 1_555 1_555
C5_2 N1_2 1_555 1_555
C9_2 C10_2 1_555 1_555
C9_2 N2_2 1_555 1_555
C16A C17A 1_555 1_555
C17A C18A 1_555 1_555
C19A C20A 1_555 1_555
C24A C30A 1_555 1_555
C27A C28A 1_555 1_555
C31A C32A 1_555 1_555
N1_2 Zn1_2 1_555 1_555

#END
