
#######################################################################
#
#                 Cambridge Crystallographic Data Centre
#                                CCDC 
#
#######################################################################
#
# If this CIF has been generated from an entry in the Cambridge 
# Structural Database, then it will include bibliographic, chemical, 
# crystal, experimental, refinement or atomic coordinate data resulting 
# from the CCDC's data processing and validation procedures.
#
#######################################################################

data_NEVBEX
_symmetry_cell_setting           monoclinic
_symmetry_space_group_name_H-M   'C 2/c'
_symmetry_Int_Tables_number      15
_space_group_name_Hall           '-C 2yn'
loop_
_symmetry_equiv_pos_site_id
_symmetry_equiv_pos_as_xyz
1 x,y,z
2 -x,y,1/2-z
3 1/2+x,1/2+y,z
4 1/2-x,1/2+y,1/2-z
5 -x,-y,-z
6 x,-y,1/2+z
7 1/2-x,1/2-y,-z
8 1/2+x,1/2-y,1/2+z
_cell_length_a                   19.7226(7)
_cell_length_b                   9.7700(3)
_cell_length_c                   11.8396(4)
_cell_angle_alpha                90
_cell_angle_beta                 96.479(2)
_cell_angle_gamma                90
_cell_volume                     2266.8
loop_
_atom_site_label
_atom_site_type_symbol
_atom_site_fract_x
_atom_site_fract_y
_atom_site_fract_z
Co1 Co 1.0000 0.0000 0.0000
C1 C 0.97864(9) 0.31791(18) 0.05467(15)
H1 H 1.0043 0.3497 -0.0012
C2 C 0.94147(9) 0.39794(18) 0.11742(16)
H2 H 0.9371 0.4927 0.1137
C3 C 0.93260(8) 0.18221(16) 0.16598(14)
H3 H 0.9202 0.1038 0.2032
C4 C 0.86190(7) 0.34515(16) 0.26256(13)
C5 C 0.86532(9) 0.47085(18) 0.31636(16)
H4 H 0.9011 0.5306 0.3075
C6 C 0.81491(9) 0.50726(16) 0.38377(17)
H5 H 0.8165 0.5923 0.4192
C7 C 0.76244(7) 0.41749(16) 0.39828(13)
C8 C 0.75951(8) 0.29078(17) 0.34504(14)
H6 H 0.7245 0.2300 0.3556
C9 C 0.80900(8) 0.25522(16) 0.27620(14)
H7 H 0.8068 0.1711 0.2391
C10 C 0.71544(8) 0.5532(2) 0.55211(15)
H8 H 0.7540 0.6031 0.5792
C11 C 0.65311(8) 0.56078(19) 0.58887(14)
H9 H 0.6416 0.6177 0.6468
C12 C 0.64528(7) 0.40993(17) 0.45558(13)
H10 H 0.6283 0.3431 0.4040
N1 N 0.97319(7) 0.18305(14) 0.08490(11)
N2 N 0.91128(7) 0.30989(13) 0.18823(11)
N3 N 0.71037(7) 0.45670(15) 0.46629(11)
N4 N 0.60910(7) 0.47139(14) 0.52761(12)
O1 O 0.99146(7) 0.10247(17) -0.15381(11)
O2 O 1.06061(7) 0.27517(15) -0.22280(14)
S1 S 1.0000 0.19173(5) -0.2500
Co1C Co 0.5000 0.5000 0.5000
Co1C_2 Co 1.5000 -0.5000 -0.5000
Co1A Co 1.0000 0.0000 -0.5000
C1D C 1.02136(9) -0.31791(18) -0.05467(15)
H1D H 0.9957 -0.3497 0.0012
C2D C 1.05853(9) -0.39794(18) -0.11742(16)
H2D H 1.0629 -0.4927 -0.1137
C3D C 1.06740(8) -0.18221(16) -0.16598(14)
H3D H 1.0798 -0.1038 -0.2032
C4D C 1.13810(7) -0.34515(16) -0.26256(13)
C5D C 1.13468(9) -0.47085(18) -0.31636(16)
H4D H 1.0989 -0.5306 -0.3075
C6D C 1.18509(9) -0.50726(16) -0.38377(17)
H5D H 1.1835 -0.5923 -0.4192
C7D C 1.23756(7) -0.41749(16) -0.39828(13)
C8D C 1.24049(8) -0.29078(17) -0.34504(14)
H6D H 1.2755 -0.2300 -0.3556
C9D C 1.19100(8) -0.25522(16) -0.27620(14)
H7D H 1.1932 -0.1711 -0.2391
C10D C 1.28456(8) -0.5532(2) -0.55211(15)
H8D H 1.2460 -0.6031 -0.5792
C11D C 1.34689(8) -0.56078(19) -0.58887(14)
H9D H 1.3584 -0.6177 -0.6468
C12D C 1.35472(7) -0.40993(17) -0.45558(13)
H10D H 1.3717 -0.3431 -0.4040
N1D N 1.02681(7) -0.18305(14) -0.08490(11)
N2D N 1.08872(7) -0.30989(13) -0.18823(11)
N3D N 1.28963(7) -0.45670(15) -0.46629(11)
N4D N 1.39090(7) -0.47139(14) -0.52761(12)
N4C N 0.89090(7) -0.02861(14) -0.02761(12)
N4G N 1.10910(7) 0.02861(14) 0.02761(12)
O1A O 1.00854(7) 0.10247(17) -0.34619(11)
O1D O 1.00854(7) -0.10247(17) 0.15381(11)
O2A O 0.93939(7) 0.27517(15) -0.27720(14)
loop_
_geom_bond_atom_site_label_1
_geom_bond_atom_site_label_2
_geom_bond_site_symmetry_1
_geom_bond_site_symmetry_2
Co1 N1 1_555 1_555
C1 H1 1_555 1_555
C2 C1 1_555 1_555
H2 C2 1_555 1_555
C3 H3 1_555 1_555
C4 C5 1_555 1_555
C5 H4 1_555 1_555
C6 C5 1_555 1_555
H5 C6 1_555 1_555
C7 C6 1_555 1_555
C8 C7 1_555 1_555
H6 C8 1_555 1_555
C9 C4 1_555 1_555
H7 C9 1_555 1_555
C10 H8 1_555 1_555
C11 C10 1_555 1_555
H9 C11 1_555 1_555
C12 H10 1_555 1_555
N1 C1 1_555 1_555
N2 C2 1_555 1_555
N3 C7 1_555 1_555
N4 C11 1_555 1_555
O1 Co1 1_555 1_555
O2 S1 1_555 1_555
S1 O1 1_555 1_555
Co1C N4 1_555 1_555
Co1C_2 N4D 1_555 1_555
Co1A O1A 1_555 1_555
C1D H1D 1_555 1_555
C2D C1D 1_555 1_555
H2D C2D 1_555 1_555
C3D H3D 1_555 1_555
C4D C5D 1_555 1_555
C5D H4D 1_555 1_555
C6D C5D 1_555 1_555
H5D C6D 1_555 1_555
C7D C6D 1_555 1_555
C8D C7D 1_555 1_555
H6D C8D 1_555 1_555
C9D C4D 1_555 1_555
H7D C9D 1_555 1_555
C10D H8D 1_555 1_555
C11D C10D 1_555 1_555
H9D C11D 1_555 1_555
C12D H10D 1_555 1_555
N1D Co1 1_555 1_555
N2D C2D 1_555 1_555
N3D C7D 1_555 1_555
N4D C11D 1_555 1_555
N4C Co1 1_555 1_555
N4G Co1 1_555 1_555
O1A S1 1_555 1_555
O1D Co1 1_555 1_555
O2A S1 1_555 1_555
C3 N1 1_555 1_555
C3 N2 1_555 1_555
C4 N2 1_555 1_555
C8 C9 1_555 1_555
C10 N3 1_555 1_555
C12 N3 1_555 1_555
C12 N4 1_555 1_555
C1D N1D 1_555 1_555
C3D N1D 1_555 1_555
C3D N2D 1_555 1_555
C4D N2D 1_555 1_555
C8D C9D 1_555 1_555
C10D N3D 1_555 1_555
C12D N3D 1_555 1_555
C12D N4D 1_555 1_555

#END
