
#######################################################################
#
#                 Cambridge Crystallographic Data Centre
#                                CCDC 
#
#######################################################################
#
# If this CIF has been generated from an entry in the Cambridge 
# Structural Database, then it will include bibliographic, chemical, 
# crystal, experimental, refinement or atomic coordinate data resulting 
# from the CCDC's data processing and validation procedures.
#
#######################################################################

data_NEVGEA
_symmetry_cell_setting           orthorhombic
_symmetry_space_group_name_H-M   'P n a 21'
_symmetry_Int_Tables_number      33
_space_group_name_Hall           'P 2c -2n'
loop_
_symmetry_equiv_pos_site_id
_symmetry_equiv_pos_as_xyz
1 x,y,z
2 -x,-y,1/2+z
3 1/2-x,1/2+y,1/2+z
4 1/2+x,1/2-y,z
_cell_length_a                   14.4166(2)
_cell_length_b                   18.2028(2)
_cell_length_c                   7.4009(1)
_cell_angle_alpha                90
_cell_angle_beta                 90
_cell_angle_gamma                90
_cell_volume                     1942.16
loop_
_atom_site_label
_atom_site_type_symbol
_atom_site_fract_x
_atom_site_fract_y
_atom_site_fract_z
Rb1 Rb 0.473(1) 0.504(1) 0.250
Rb2 Rb 0.576(1) 0.329(1) 0.109(4)
Rb3 Rb 0.670(1) 0.624(6) 0.108(4)
O1 O 0.651(5) 0.470(5) 0.03(1)
O2 O 0.411(5) 0.396(4) -0.04(1)
O3 O 0.482(6) 0.624(4) -0.04(1)
C1 C 0.737(4) 0.458(2) 0.08(1)
C2 C 0.759(5) 0.454(5) 0.27(1)
C3 C 0.849(6) 0.442(6) 0.32(2)
C4 C 0.918(4) 0.42(3) 0.19(2)
C5 C 0.897(4) 0.437(5) 0.01(2)
C6 C 0.806(5) 0.449(6) -0.05(1)
C7 C 0.348(4) 0.364(3) 0.03(1)
C8 C 0.276(5) 0.405(3) 0.13(1)
C9 C 0.210(5) 0.372(5) 0.24(1)
C10 C 0.215(5) 0.297(5) 0.27(1)
C11 C 0.288(6) 0.256(4) 0.20(1)
C12 C 0.354(5) 0.290(3) 0.09(1)
C13 C 0.448(7) 0.679(3) 0.055(6)
C14 C 0.496(4) 0.744(4) 0.07(1)
C15 C 0.459(6) 0.802(3) 0.17(1)
C16 C 0.375(6) 0.794(4) 0.25(1)
C17 C 0.327(5) 0.728(5) 0.24(1)
C18 C 0.363(4) 0.671(4) 0.14(1)
H1 H 0.706(6) 0.46(1) 0.36(1)
H2 H 0.87(1) 0.44(1) 0.46(2)
H3 H 0.988(4) 0.423(4) 0.23(2)
H4 H 0.950(6) 0.43(1) -0.09(2)
H5 H 0.790(6) 0.45(1) -0.18(1)
H6 H 0.272(6) 0.462(3) 0.10(2)
H7 H 0.154(6) 0.403(6) 0.29(2)
H8 H 0.164(6) 0.272(6) 0.36(1)
H9 H 0.29(1) 0.199(4) 0.23(2)
H10 H 0.409(6) 0.258(4) 0.04(2)
H11 H 0.560(5) 0.751(5) 0.00(1)
H12 H 0.496(6) 0.853(4) 0.18(2)
H13 H 0.347(6) 0.838(5) 0.33(1)
H14 H 0.262(5) 0.722(6) 0.31(2)
H15 H 0.326(6) 0.620(5) 0.13(2)
Rb1A Rb 0.527(1) 0.496(1) -0.250
O1A O 0.349(5) 0.530(5) 0.53(1)
O2A O 0.589(5) 0.604(4) 0.46(1)
O3A O 0.518(6) 0.376(4) 0.46(1)
Rb3A Rb 0.330(1) 0.376(6) -0.392(4)
Rb2A Rb 0.424(1) 0.671(1) -0.391(4)
loop_
_geom_bond_atom_site_label_1
_geom_bond_atom_site_label_2
_geom_bond_site_symmetry_1
_geom_bond_site_symmetry_2
Rb1 O1 1_555 1_555
Rb2 O1 1_555 1_555
Rb3 O1 1_555 1_555
O1 C1 1_555 1_555
O2 Rb1 1_555 1_555
O3 Rb1 1_555 1_555
C1 C2 1_555 1_555
C2 C3 1_555 1_555
C3 C4 1_555 1_555
C4 C5 1_555 1_555
C5 C6 1_555 1_555
C6 C1 1_555 1_555
C7 O2 1_555 1_555
C8 C7 1_555 1_555
C9 C8 1_555 1_555
C10 C9 1_555 1_555
C11 C10 1_555 1_555
C12 C7 1_555 1_555
C13 O3 1_555 1_555
C14 C13 1_555 1_555
C15 C14 1_555 1_555
C16 C15 1_555 1_555
C17 C16 1_555 1_555
C18 C13 1_555 1_555
H1 C2 1_555 1_555
H2 C3 1_555 1_555
H3 C4 1_555 1_555
H4 C5 1_555 1_555
H5 C6 1_555 1_555
H6 C8 1_555 1_555
H7 C9 1_555 1_555
H8 C10 1_555 1_555
H9 C11 1_555 1_555
H10 C12 1_555 1_555
H11 C14 1_555 1_555
H12 C15 1_555 1_555
H13 C16 1_555 1_555
H14 C17 1_555 1_555
H15 C18 1_555 1_555
Rb1A O1 1_555 1_555
O1A Rb1 1_555 1_555
O2A Rb1 1_555 1_555
O3A Rb1 1_555 1_555
Rb3A O2 1_555 1_555
Rb2A O3 1_555 1_555
Rb2 O2 1_555 1_555
Rb2 O3A 1_555 1_555
Rb3 O2A 1_555 1_555
Rb3 O3 1_555 1_555
O2 Rb1A 1_555 1_555
O3 Rb1A 1_555 1_555
C11 C12 1_555 1_555
C17 C18 1_555 1_555

#END
