
#######################################################################
#
#                 Cambridge Crystallographic Data Centre
#                                CCDC 
#
#######################################################################
#
# If this CIF has been generated from an entry in the Cambridge 
# Structural Database, then it will include bibliographic, chemical, 
# crystal, experimental, refinement or atomic coordinate data resulting 
# from the CCDC's data processing and validation procedures.
#
#######################################################################

data_NEVGAW
_symmetry_cell_setting           orthorhombic
_symmetry_space_group_name_H-M   'P n a 21'
_symmetry_Int_Tables_number      33
_space_group_name_Hall           'P 2c -2n'
loop_
_symmetry_equiv_pos_site_id
_symmetry_equiv_pos_as_xyz
1 x,y,z
2 -x,-y,1/2+z
3 1/2-x,1/2+y,1/2+z
4 1/2+x,1/2-y,z
_cell_length_a                   14.1003(1)
_cell_length_b                   17.9121(1)
_cell_length_c                   7.16475(2)
_cell_angle_alpha                90
_cell_angle_beta                 90
_cell_angle_gamma                90
_cell_volume                     1809.57
loop_
_atom_site_label
_atom_site_type_symbol
_atom_site_fract_x
_atom_site_fract_y
_atom_site_fract_z
O1 O 0.649(3) 0.475(2) 0.034(5)
O2 O 0.425(3) 0.400(2) -0.053(5)
O3 O 0.481(2) 0.619(2) -0.038(5)
C1 C 0.734(2) 0.466(1) 0.082(5)
K1 K 0.474(1) 0.504(1) 0.250
K2 K 0.584(1) 0.3386(6) 0.114(3)
K3 K 0.660(1) 0.6248(6) 0.113(3)
C2 C 0.759(2) 0.472(2) 0.271(5)
C3 C 0.854(2) 0.462(2) 0.324(6)
C4 C 0.923(2) 0.446(1) 0.190(6)
C5 C 0.897(2) 0.440(2) 0.001(6)
C6 C 0.803(2) 0.450(2) -0.052(6)
C7 C 0.362(2) 0.361(1) 0.054(4)
C8 C 0.288(2) 0.398(1) 0.143(5)
C9 C 0.224(2) 0.358(2) 0.253(5)
C10 C 0.235(2) 0.281(2) 0.274(5)
C11 C 0.309(2) 0.244(1) 0.185(6)
C12 C 0.373(2) 0.284(1) 0.075(5)
C13 C 0.445(2) 0.675(1) 0.056(4)
C14 C 0.491(2) 0.745(2) 0.053(5)
C15 C 0.454(2) 0.805(1) 0.153(6)
C16 C 0.370(2) 0.796(2) 0.257(5)
C17 C 0.324(2) 0.727(2) 0.261(5)
C18 C 0.361(2) 0.666(2) 0.160(4)
H1 H 0.707(3) 0.484(4) 0.373(4)
H2 H 0.873(4) 0.466(4) 0.467(6)
H3 H 0.995(2) 0.438(2) 0.23(1)
H4 H 0.950(2) 0.428(4) -0.10(1)
H5 H 0.783(3) 0.446(4) -0.195(6)
H6 H 0.280(3) 0.456(1) 0.127(6)
H7 H 0.168(2) 0.386(2) 0.320(6)
H8 H 0.186(3) 0.251(2) 0.358(6)
H9 H 0.317(4) 0.186(1) 0.201(6)
H10 H 0.430(3) 0.256(2) 0.008(6)
H11 H 0.555(2) 0.752(2) -0.026(6)
H12 H 0.489(4) 0.858(2) 0.151(6)
H13 H 0.342(4) 0.842(2) 0.333(6)
H14 H 0.261(2) 0.720(3) 0.339(6)
H15 H 0.327(2) 0.614(2) 0.162(6)
K1A K 0.526(1) 0.496(1) -0.250
K3A K 0.340(1) 0.3752(6) -0.387(3)
K2A K 0.416(1) 0.6614(6) -0.386(3)
O1A O 0.351(3) 0.525(2) 0.534(5)
O2A O 0.575(3) 0.600(2) 0.447(5)
O3A O 0.519(2) 0.381(2) 0.462(5)
loop_
_geom_bond_atom_site_label_1
_geom_bond_atom_site_label_2
_geom_bond_site_symmetry_1
_geom_bond_site_symmetry_2
O1 C1 1_555 1_555
O2 K1 1_555 1_555
O3 K1 1_555 1_555
C1 C2 1_555 1_555
K1 O1 1_555 1_555
K2 O1 1_555 1_555
K3 O1 1_555 1_555
C2 C3 1_555 1_555
C3 C4 1_555 1_555
C4 C5 1_555 1_555
C5 C6 1_555 1_555
C6 C1 1_555 1_555
C7 O2 1_555 1_555
C8 C7 1_555 1_555
C9 C8 1_555 1_555
C10 C9 1_555 1_555
C11 C10 1_555 1_555
C12 C7 1_555 1_555
C13 O3 1_555 1_555
C14 C13 1_555 1_555
C15 C14 1_555 1_555
C16 C15 1_555 1_555
C17 C16 1_555 1_555
C18 C13 1_555 1_555
H1 C2 1_555 1_555
H2 C3 1_555 1_555
H3 C4 1_555 1_555
H4 C5 1_555 1_555
H5 C6 1_555 1_555
H6 C8 1_555 1_555
H7 C9 1_555 1_555
H8 C10 1_555 1_555
H9 C11 1_555 1_555
H10 C12 1_555 1_555
H11 C14 1_555 1_555
H12 C15 1_555 1_555
H13 C16 1_555 1_555
H14 C17 1_555 1_555
H15 C18 1_555 1_555
K1A O1 1_555 1_555
K3A O2 1_555 1_555
K2A O3 1_555 1_555
O1A K1 1_555 1_555
O2A K1 1_555 1_555
O3A K1 1_555 1_555
O2 K1A 1_555 1_555
O2 K2 1_555 1_555
O3 K1A 1_555 1_555
O3 K3 1_555 1_555
K2 O3A 1_555 1_555
K3 O2A 1_555 1_555
C11 C12 1_555 1_555
C17 C18 1_555 1_555

#END
