
#######################################################################
#
#                 Cambridge Crystallographic Data Centre
#                                CCDC 
#
#######################################################################
#
# If this CIF has been generated from an entry in the Cambridge 
# Structural Database, then it will include bibliographic, chemical, 
# crystal, experimental, refinement or atomic coordinate data resulting 
# from the CCDC's data processing and validation procedures.
#
#######################################################################

data_NEVHUR
_symmetry_cell_setting           monoclinic
_symmetry_space_group_name_H-M   'P 21/a'
_symmetry_Int_Tables_number      14
_space_group_name_Hall           '-P 2yab'
loop_
_symmetry_equiv_pos_site_id
_symmetry_equiv_pos_as_xyz
1 x,y,z
2 1/2-x,1/2+y,-z
3 -x,-y,-z
4 1/2+x,1/2-y,z
_cell_length_a                   13.286(4)
_cell_length_b                   8.340(3)
_cell_length_c                   13.579(4)
_cell_angle_alpha                90
_cell_angle_beta                 90.55(2)
_cell_angle_gamma                90
_cell_volume                     1504.56
loop_
_atom_site_label
_atom_site_type_symbol
_atom_site_fract_x
_atom_site_fract_y
_atom_site_fract_z
N1 N 0.5566(2) 0.1358(4) -0.0317(3)
N2 N 0.4172(3) -0.2291(4) 0.0923(3)
N3 N 0.3916(3) -0.3169(5) 0.1522(3)
N4 N 0.7562(3) -0.0654(4) -0.0669(3)
N5 N 0.8145(2) 0.0307(4) -0.0377(3)
N6 N 0.8752(3) 0.1225(4) -0.0110(3)
N7 N 0.6534(2) -0.0750(4) 0.1467(3)
C1 C 0.6869(3) 0.0704(5) 0.1752(3)
C2 C 0.7193(3) 0.1007(6) 0.2696(4)
C3 C 0.7182(3) -0.0208(6) 0.3386(3)
C4 C 0.6837(4) -0.1709(6) 0.3104(3)
C5 C 0.6522(4) -0.1904(6) 0.2142(3)
C6 C 0.7493(4) 0.0066(8) 0.4391(4)
N8 N 0.7708(5) 0.0281(8) 0.5201(4)
N9 N 0.5635(2) -0.1825(4) -0.1761(3)
C7 C 0.5246(3) -0.3227(5) -0.2021(3)
C8 C 0.5013(4) -0.3640(6) -0.2985(3)
C9 C 0.5175(4) -0.2505(6) -0.3704(3)
C10 C 0.5586(4) -0.1031(6) -0.3444(3)
C11 C 0.5806(4) -0.0758(5) -0.2464(3)
C12 C 0.4928(5) -0.2790(7) -0.4734(4)
N10 N 0.4755(4) -0.2975(7) -0.5549(4)
Mn1 Mn 0.3963(1) 0.1204(1) 0.0144(1)
H1 H 0.6882(3) 0.1531(5) 0.1293(3)
H2 H 0.7419(3) 0.2025(6) 0.2870(4)
H3 H 0.6818(4) -0.2556(6) 0.3549(3)
H4 H 0.6286(4) -0.2908(6) 0.1952(3)
H5 H 0.5123(3) -0.3976(5) -0.1530(3)
H6 H 0.4757(4) -0.4647(6) -0.3142(3)
H7 H 0.5709(4) -0.0251(6) -0.3917(3)
H8 H 0.6089(4) 0.0223(5) -0.2288(3)
N1B N 0.4434(2) -0.1358(4) 0.0317(3)
Mn1B Mn 0.6037(1) -0.1204(1) -0.0144(1)
Mn1C Mn 0.8963(1) 0.3796(1) 0.0144(1)
N6A N 0.6248(3) -0.3775(4) 0.0110(3)
loop_
_geom_bond_atom_site_label_1
_geom_bond_atom_site_label_2
_geom_bond_site_symmetry_1
_geom_bond_site_symmetry_2
N1 Mn1 1_555 1_555
N2 N3 1_555 1_555
N4 N5 1_555 1_555
N5 N6 1_555 1_555
N6 Mn1C 1_555 1_555
N7 C1 1_555 1_555
C1 C2 1_555 1_555
C2 C3 1_555 1_555
C3 C4 1_555 1_555
C4 C5 1_555 1_555
C5 N7 1_555 1_555
C6 C3 1_555 1_555
N8 C6 1_555 1_555
N9 C7 1_555 1_555
C7 C8 1_555 1_555
C8 C9 1_555 1_555
C9 C10 1_555 1_555
C10 C11 1_555 1_555
C11 N9 1_555 1_555
C12 C9 1_555 1_555
N10 C12 1_555 1_555
Mn1 N1B 1_555 1_555
H1 C1 1_555 1_555
H2 C2 1_555 1_555
H3 C4 1_555 1_555
H4 C5 1_555 1_555
H5 C7 1_555 1_555
H6 C8 1_555 1_555
H7 C10 1_555 1_555
H8 C11 1_555 1_555
N1B N2 1_555 1_555
Mn1B N1 1_555 1_555
N6A Mn1B 1_555 1_555
N4 Mn1B 1_555 1_555
N7 Mn1B 1_555 1_555
N9 Mn1B 1_555 1_555
N1B Mn1B 1_555 1_555

#END
