
#######################################################################
#
#                 Cambridge Crystallographic Data Centre
#                                CCDC 
#
#######################################################################
#
# If this CIF has been generated from an entry in the Cambridge 
# Structural Database, then it will include bibliographic, chemical, 
# crystal, experimental, refinement or atomic coordinate data resulting 
# from the CCDC's data processing and validation procedures.
#
#######################################################################

data_NEVLAC
_symmetry_cell_setting           triclinic
_symmetry_space_group_name_H-M   'P -1'
_symmetry_Int_Tables_number      2
_space_group_name_Hall           '-P 1'
loop_
_symmetry_equiv_pos_site_id
_symmetry_equiv_pos_as_xyz
1 x,y,z
2 -x,-y,-z
_cell_length_a                   8.178(5)
_cell_length_b                   9.483(4)
_cell_length_c                   12.790(6)
_cell_angle_alpha                89.19(4)
_cell_angle_beta                 80.73(4)
_cell_angle_gamma                78.05(4)
_cell_volume                     957.531
loop_
_atom_site_label
_atom_site_type_symbol
_atom_site_fract_x
_atom_site_fract_y
_atom_site_fract_z
C1 C -0.2082(5) 0.8695(4) 0.8971(3)
C2 C -0.1912(5) 1.0093(4) 0.8775(3)
H1 H -0.0887 1.0356 0.8807
C3 C -0.3275(5) 1.1109(4) 0.8530(3)
C4 C -0.4814(5) 1.0731(4) 0.8480(3)
H2 H -0.5717 1.1412 0.8305
C5 C -0.4990(5) 0.9339(5) 0.8691(3)
H3 H -0.6020 0.9081 0.8663
C6 C -0.3634(5) 0.8310(4) 0.8948(3)
H4 H -0.3764 0.7374 0.9102
C7 C -0.0566(5) 0.7582(4) 0.9169(3)
O1 O 0.0872(4) 0.7877(3) 0.8987(3)
O2 O -0.0770(4) 0.6341(3) 0.9488(3)
O3 O -0.4341(4) 1.3750(3) 0.9185(2)
O4 O -0.3510(5) 1.3319(3) 0.7294(2)
O5 O -0.1396(4) 1.3006(4) 0.8471(3)
O6 O 0.4130(5) 0.6056(4) 0.7615(3)
H13 H 0.402(7) 0.668(4) 0.714(3)
H14 H 0.484(6) 0.531(4) 0.735(4)
O7 O 0.1772(4) 0.3802(4) 0.8005(2)
H15 H 0.086(5) 0.352(7) 0.819(4)
H16 H 0.174(6) 0.423(6) 0.742(3)
S1 S -0.30985(12) 1.29300(10) 0.83358(7)
Pb1 Pb 0.243824(15) 0.539897(14) 0.933755(10)
O2A O 0.0770(4) 0.3659(3) 1.0512(3)
O3_2 O 0.5659(4) 0.3750(3) 0.9185(2)
O3A O 0.4341(4) 0.6250(3) 1.0815(2)
Pb1A Pb -0.243824(15) 0.460103(14) 1.066245(10)
Pb1_2 Pb -0.756176(15) 1.539897(14) 0.933755(10)
Pb1A_2 Pb -0.243824(15) 1.460103(14) 1.066245(10)
C8 C 0.1887(6) 1.0826(5) 0.5183(3)
C9 C 0.1455(7) 1.0637(6) 0.6272(4)
H5 H 0.0655 1.1336 0.6685
C10 C 0.2226(8) 0.9409(7) 0.6726(4)
H6 H 0.1924 0.9307 0.7451
C11 C 0.3794(7) 0.8532(6) 0.5155(4)
H7 H 0.4609 0.7817 0.4768
C12 C 0.3080(7) 0.9717(6) 0.4620(4)
H8 H 0.3392 0.9775 0.3892
C13 C 0.1063(6) 1.2131(5) 0.4656(3)
C14 C -0.0538(6) 1.2910(5) 0.5067(3)
H9 H -0.1099 1.2663 0.5713
C15 C -0.1294(6) 1.4050(5) 0.4514(4)
H10 H -0.2381 1.4539 0.4795
C16 C 0.1007(7) 1.3789(6) 0.3226(3)
H11 H 0.1558 1.4100 0.2598
C17 C 0.1860(7) 1.2625(5) 0.3714(3)
H12 H 0.2955 1.2172 0.3419
N1 N 0.3383(6) 0.8352(5) 0.6193(4)
N2 N -0.0555(6) 1.4495(4) 0.3597(3)
loop_
_geom_bond_atom_site_label_1
_geom_bond_atom_site_label_2
_geom_bond_site_symmetry_1
_geom_bond_site_symmetry_2
C1 C2 1_555 1_555
C2 H1 1_555 1_555
C3 C2 1_555 1_555
C4 C3 1_555 1_555
H2 C4 1_555 1_555
C5 C4 1_555 1_555
H3 C5 1_555 1_555
C6 C1 1_555 1_555
H4 C6 1_555 1_555
C7 C1 1_555 1_555
C8 C9 1_555 1_555
C9 H5 1_555 1_555
C10 C9 1_555 1_555
H6 C10 1_555 1_555
C11 H7 1_555 1_555
C12 C8 1_555 1_555
H8 C12 1_555 1_555
C13 C8 1_555 1_555
C14 C13 1_555 1_555
H9 C14 1_555 1_555
C15 C14 1_555 1_555
H10 C15 1_555 1_555
C16 H11 1_555 1_555
C17 C13 1_555 1_555
H12 C17 1_555 1_555
N1 C10 1_555 1_555
N2 C15 1_555 1_555
O1 C7 1_555 1_555
O2 C7 1_555 1_555
O3 S1 1_555 1_555
O4 S1 1_555 1_555
O5 S1 1_555 1_555
O6 H13 1_555 1_555
H14 O6 1_555 1_555
O7 H15 1_555 1_555
H16 O7 1_555 1_555
S1 C3 1_555 1_555
Pb1 O1 1_555 1_555
O2A Pb1 1_555 1_555
O3_2 Pb1 1_555 1_555
O3A Pb1 1_555 1_555
Pb1A O2 1_555 1_555
Pb1_2 O3 1_555 1_555
Pb1A_2 O3 1_555 1_555
C5 C6 1_555 1_555
C11 C12 1_555 1_555
C11 N1 1_555 1_555
C16 C17 1_555 1_555
C16 N2 1_555 1_555
O2 Pb1 1_555 1_555
O6 Pb1 1_555 1_555
O7 Pb1 1_555 1_555
O2A Pb1A 1_555 1_555

#END
