
#######################################################################
#
#                 Cambridge Crystallographic Data Centre
#                                CCDC 
#
#######################################################################
#
# If this CIF has been generated from an entry in the Cambridge 
# Structural Database, then it will include bibliographic, chemical, 
# crystal, experimental, refinement or atomic coordinate data resulting 
# from the CCDC's data processing and validation procedures.
#
#######################################################################

data_NEVLAD
_symmetry_cell_setting           triclinic
_symmetry_space_group_name_H-M   'P -1'
_symmetry_Int_Tables_number      2
_space_group_name_Hall           '-P 1'
loop_
_symmetry_equiv_pos_site_id
_symmetry_equiv_pos_as_xyz
1 x,y,z
2 -x,-y,-z
_cell_length_a                   8.1573(6)
_cell_length_b                   9.4663(7)
_cell_length_c                   12.7488(9)
_cell_angle_alpha                89.2320(10)
_cell_angle_beta                 80.7380(10)
_cell_angle_gamma                77.9760(10)
_cell_volume                     950.097
loop_
_atom_site_label
_atom_site_type_symbol
_atom_site_fract_x
_atom_site_fract_y
_atom_site_fract_z
Pb1 Pb 0.75616(4) 0.96011(3) 0.56622(2)
S1 S 1.3101(3) 0.2070(2) 0.66707(18)
O1 O 0.9122(8) 0.7133(7) 0.6023(6)
O2 O 1.0785(9) 0.8647(7) 0.5506(6)
O3 O 1.1397(9) 0.1988(8) 0.6535(7)
O4 O 1.4335(8) 0.1246(7) 0.5813(6)
O5 O 1.3504(11) 0.1677(8) 0.7714(6)
O6 O 0.8257(9) 1.1204(8) 0.6987(5)
O7 O 0.5859(10) 0.8954(9) 0.7404(6)
C3 C 1.2068(11) 0.6308(9) 0.6033(7)
C4 C 1.1922(11) 0.4896(10) 0.6226(7)
H2 H 1.0905 0.4619 0.6184
C5 C 1.0576(12) 0.7432(10) 0.5836(7)
C6 C 1.4819(12) 0.4269(11) 0.6519(7)
H3 H 1.5726 0.3585 0.6691
C7 C 1.4999(12) 0.5680(10) 0.6300(7)
H4 H 1.6030 0.5942 0.6319
C8 C 1.3633(12) 0.6686(10) 0.6054(7)
H5 H 1.3754 0.7625 0.5900
C15 C 1.3281(11) 0.3896(10) 0.6478(6)
H13 H 0.592(12) 0.825(6) 0.780(6)
H14 H 0.925(8) 1.132(18) 0.698(13)
H15 H 0.535(10) 0.966(6) 0.779(6)
H16 H 0.79(5) 1.211(9) 0.72(3)
Pb1A Pb 1.24384(4) 1.03989(3) 0.43378(2)
Pb1_2 Pb 1.75616(4) -0.03989(3) 0.56622(2)
O2A O 0.9215(9) 1.1353(7) 0.4494(6)
O4_2 O 0.4335(8) 1.1246(7) 0.5813(6)
C1 C 0.8116(13) 1.4173(11) 0.9803(8)
C2 C 0.6938(13) 1.5279(12) 1.0387(8)
H1 H 0.6646 1.5222 1.1120
C9 C 0.7770(16) 1.5600(15) 0.8274(9)
H6 H 0.8096 1.5711 0.7550
C10 C 0.8926(13) 1.2883(11) 1.0350(7)
C11 C 1.0527(13) 1.2092(12) 0.9939(8)
H7 H 1.1084 1.2331 0.9287
C12 C 0.8113(15) 1.2394(12) 1.1289(8)
H8 H 0.7013 1.2845 1.1583
C13 C 0.8511(16) 1.4365(14) 0.8730(8)
H9 H 0.9286 1.3652 0.8311
C14 C 0.6206(16) 1.6477(12) 0.9839(10)
H10 H 0.5384 1.7193 1.0225
C16 C 0.8995(17) 1.1213(13) 1.1775(9)
H11 H 0.8446 1.0899 1.2404
C17 C 1.1297(15) 1.0945(13) 1.0500(9)
H12 H 1.2392 1.0461 1.0224
N1 N 1.0549(12) 1.0507(10) 1.1409(7)
N2 N 0.6616(14) 1.6648(11) 0.8805(8)
loop_
_geom_bond_atom_site_label_1
_geom_bond_atom_site_label_2
_geom_bond_site_symmetry_1
_geom_bond_site_symmetry_2
Pb1 O1 1_555 1_555
S1 O3 1_555 1_555
O1 C5 1_555 1_555
O2 Pb1 1_555 1_555
O4 S1 1_555 1_555
O5 S1 1_555 1_555
O6 Pb1 1_555 1_555
O7 Pb1 1_555 1_555
C1 C2 1_555 1_555
C2 H1 1_555 1_555
C3 C4 1_555 1_555
C4 H2 1_555 1_555
C5 O2 1_555 1_555
C6 H3 1_555 1_555
C7 C6 1_555 1_555
H4 C7 1_555 1_555
C8 C3 1_555 1_555
H5 C8 1_555 1_555
C9 H6 1_555 1_555
C10 C1 1_555 1_555
C11 C10 1_555 1_555
H7 C11 1_555 1_555
C12 C10 1_555 1_555
H8 C12 1_555 1_555
C13 C1 1_555 1_555
H9 C13 1_555 1_555
C14 C2 1_555 1_555
H10 C14 1_555 1_555
C15 S1 1_555 1_555
C16 C12 1_555 1_555
H11 C16 1_555 1_555
C17 C11 1_555 1_555
H12 C17 1_555 1_555
N1 C16 1_555 1_555
N2 C9 1_555 1_555
H13 O7 1_555 1_555
H14 O6 1_555 1_555
H15 O7 1_555 1_555
H16 O6 1_555 1_555
Pb1A O2 1_555 1_555
Pb1_2 O4 1_555 1_555
O2A Pb1 1_555 1_555
O4_2 Pb1 1_555 1_555
C3 C5 1_555 1_555
C4 C15 1_555 1_555
C6 C15 1_555 1_555
C7 C8 1_555 1_555
C9 C13 1_555 1_555
C14 N2 1_555 1_555
C17 N1 1_555 1_555
Pb1A O2A 1_555 1_555

#END
