
#######################################################################
#
#                 Cambridge Crystallographic Data Centre
#                                CCDC 
#
#######################################################################
#
# If this CIF has been generated from an entry in the Cambridge 
# Structural Database, then it will include bibliographic, chemical, 
# crystal, experimental, refinement or atomic coordinate data resulting 
# from the CCDC's data processing and validation procedures.
#
#######################################################################

data_NEVNEI
_symmetry_cell_setting           monoclinic
_symmetry_space_group_name_H-M   'P 21/n'
_symmetry_Int_Tables_number      14
_space_group_name_Hall           '-P 2yn'
loop_
_symmetry_equiv_pos_site_id
_symmetry_equiv_pos_as_xyz
1 x,y,z
2 1/2-x,1/2+y,1/2-z
3 -x,-y,-z
4 1/2+x,1/2-y,1/2+z
_cell_length_a                   12.413(4)
_cell_length_b                   18.573(5)
_cell_length_c                   12.555(4)
_cell_angle_alpha                90
_cell_angle_beta                 93.970(14)
_cell_angle_gamma                90
_cell_volume                     2887.57
loop_
_atom_site_label
_atom_site_type_symbol
_atom_site_fract_x
_atom_site_fract_y
_atom_site_fract_z
Cd1 Cd 0.933644(8) 0.160431(5) 0.304600(7)
O1 O 0.76857(9) 0.12334(6) 0.34826(9)
O2 O 0.86603(9) 0.09038(8) 0.49272(11)
O3 O 0.93851(10) 0.26421(6) 0.39955(10)
O4 O 0.84335(13) 0.31436(7) 0.26491(11)
N1 N 1.10388(10) 0.14133(6) 0.40011(10)
N2 N 1.08037(10) 0.20635(7) 0.20460(9)
N3 N 0.96202(10) 0.03797(6) 0.23902(10)
N4 N 0.84552(10) 0.14209(6) 0.12763(9)
C1 C 1.11414(14) 0.11649(9) 0.49933(13)
H1 H 1.0524 0.1023 0.5317
C2 C 1.21413(15) 0.11071(9) 0.55731(14)
H2 H 1.2184 0.0941 0.6273
C3 C 1.30507(14) 0.12979(9) 0.50969(15)
H3 H 1.3722 0.1256 0.5469
C4 C 1.29753(13) 0.15562(8) 0.40498(15)
C5 C 1.38936(13) 0.17844(10) 0.35059(18)
H4 H 1.4580 0.1735 0.3844
C6 C 1.37862(14) 0.20670(10) 0.25219(18)
H5 H 1.4399 0.2199 0.2183
C7 C 1.27404(13) 0.21694(8) 0.19829(14)
C8 C 1.25880(15) 0.24950(10) 0.09757(15)
H6 H 1.3180 0.2631 0.0607
C9 C 1.15628(16) 0.26107(9) 0.05415(14)
H7 H 1.1448 0.2831 -0.0122
C10 C 1.06917(14) 0.23939(8) 0.11091(13)
H8 H 0.9997 0.2486 0.0815
C11 C 1.18111(11) 0.19492(7) 0.24863(12)
C12 C 1.19351(12) 0.16188(7) 0.35297(12)
C13 C 1.01679(14) -0.01308(8) 0.29290(13)
H9 H 1.0518 -0.0012 0.3584
C14 C 1.02466(16) -0.08383(9) 0.25634(15)
H10 H 1.0637 -0.1180 0.2970
C15 C 0.97438(16) -0.10192(9) 0.16041(16)
H11 H 0.9782 -0.1488 0.1350
C16 C 0.91677(14) -0.04942(8) 0.10023(13)
C17 C 0.86159(17) -0.06426(10) -0.00184(16)
H12 H 0.8645 -0.1104 -0.0302
C18 C 0.80614(16) -0.01313(11) -0.05685(14)
H13 H 0.7719 -0.0243 -0.1230
C19 C 0.79858(13) 0.05857(9) -0.01571(12)
C20 C 0.73627(15) 0.11233(11) -0.06797(13)
H14 H 0.7011 0.1032 -0.1344
C21 C 0.72724(15) 0.17767(10) -0.02165(15)
H15 H 0.6840 0.2132 -0.0546
C22 C 0.78398(14) 0.19092(8) 0.07655(13)
H16 H 0.7782 0.2362 0.1074
C23 C 0.85181(11) 0.07558(8) 0.08401(11)
C24 C 0.91247(11) 0.02051(8) 0.14317(11)
C25 C 0.67611(12) 0.04376(9) 0.58941(12)
H17 H 0.7346 0.0550 0.6368
C26 C 0.68000(11) 0.06023(7) 0.48014(12)
C27 C 0.59402(12) 0.04365(8) 0.41056(11)
H18 H 0.5961 0.0561 0.3390
C28 C 0.50195(11) 0.00808(7) 0.44500(11)
C29 C 0.58714(13) 0.01142(9) 0.62614(12)
H19 H 0.5849 0.0020 0.6987
C30 C 0.77980(12) 0.09368(8) 0.43866(13)
C31 C 0.88723(15) 0.45439(9) 0.34089(13)
H20 H 0.8432 0.4493 0.2784
C32 C 0.91460(15) 0.52150(9) 0.37624(13)
H21 H 0.8885 0.5617 0.3386
C33 C 0.98262(12) 0.53022(8) 0.47004(11)
C34 C 0.98575(13) 0.39966(8) 0.49033(12)
H22 H 1.0078 0.3591 0.5293
C35 C 0.92455(12) 0.39142(8) 0.39752(12)
C36 C 0.89867(13) 0.31754(8) 0.35040(12)
Cd1B Cd 0.066356(8) -0.160431(5) 0.695400(7)
Cd1B_2 Cd 1.066356(8) 0.839569(5) 0.695400(7)
O1B O 0.23143(9) -0.12334(6) 0.65174(9)
O2B O 0.13397(9) -0.09038(8) 0.50728(11)
O3B O 1.06149(10) 0.73579(6) 0.60045(10)
O3B_2 O 0.06149(10) -0.26421(6) 0.60045(10)
O4B O 1.15665(13) 0.68564(7) 0.73509(11)
N1B N -0.10388(10) -0.14133(6) 0.59989(10)
N2B N -0.08037(10) -0.20635(7) 0.79540(9)
N3B N 0.03798(10) -0.03797(6) 0.76098(10)
N4B N 0.15448(10) -0.14209(6) 0.87237(9)
C1B C -0.11414(14) -0.11649(9) 0.50067(13)
H1B H -0.0524 -0.1023 0.4683
C2B C -0.21413(15) -0.11071(9) 0.44269(14)
H2B H -0.2184 -0.0941 0.3727
C3B C -0.30507(14) -0.12979(9) 0.49031(15)
H3B H -0.3722 -0.1256 0.4531
C4B C -0.29753(13) -0.15562(8) 0.59502(15)
C5B C -0.38936(13) -0.17844(10) 0.64941(18)
H4B H -0.4580 -0.1735 0.6156
C6B C -0.37862(14) -0.20670(10) 0.74781(18)
H5B H -0.4399 -0.2199 0.7817
C7B C -0.27404(13) -0.21694(8) 0.80171(14)
C8B C -0.25880(15) -0.24950(10) 0.90243(15)
H6B H -0.3180 -0.2631 0.9393
C9B C -0.15628(16) -0.26107(9) 0.94585(14)
H7B H -0.1448 -0.2831 1.0122
C10B C -0.06917(14) -0.23939(8) 0.88909(13)
H8B H 0.0003 -0.2486 0.9185
C11B C -0.18111(11) -0.19492(7) 0.75137(12)
C12B C -0.19351(12) -0.16188(7) 0.64703(12)
C13B C -0.01679(14) 0.01308(8) 0.70710(13)
H9B H -0.0518 0.0012 0.6416
C14B C -0.02466(16) 0.08383(9) 0.74366(15)
H10B H -0.0637 0.1180 0.7030
C15B C 0.02562(16) 0.10192(9) 0.83959(16)
H11B H 0.0218 0.1488 0.8650
C16B C 0.08323(14) 0.04942(8) 0.89977(13)
C17B C 0.13841(17) 0.06426(10) 1.00184(16)
H12B H 0.1355 0.1104 1.0302
C18B C 0.19386(16) 0.01313(11) 1.05685(14)
H13B H 0.2281 0.0243 1.1230
C19B C 0.20142(13) -0.05857(9) 1.01571(12)
C20B C 0.26373(15) -0.11233(11) 1.06797(13)
H14B H 0.2989 -0.1032 1.1344
C21B C 0.27276(15) -0.17767(10) 1.02165(15)
H15B H 0.3160 -0.2132 1.0546
C22B C 0.21602(14) -0.19092(8) 0.92345(13)
H16B H 0.2218 -0.2362 0.8926
C23B C 0.14819(11) -0.07558(8) 0.91599(11)
C24B C 0.08753(11) -0.02051(8) 0.85683(11)
C25B C 0.32389(12) -0.04376(9) 0.41059(12)
H17B H 0.2654 -0.0550 0.3632
C26B C 0.32000(11) -0.06023(7) 0.51986(12)
C27B C 0.40598(12) -0.04365(8) 0.58944(11)
H18B H 0.4039 -0.0561 0.6610
C28B C 0.49805(11) -0.00808(7) 0.55500(11)
C29B C 0.41286(13) -0.01142(9) 0.37386(12)
H19B H 0.4151 -0.0020 0.3013
C30B C 0.22020(12) -0.09368(8) 0.56134(13)
C31B C 1.11277(15) 0.54561(9) 0.65911(13)
H20B H 1.1568 0.5507 0.7216
C32B C 1.08540(15) 0.47850(9) 0.62376(13)
H21B H 1.1115 0.4383 0.6614
C33B C 1.01738(12) 0.46978(8) 0.52996(11)
C34B C 1.01425(13) 0.60034(8) 0.50967(12)
H22B H 0.9922 0.6409 0.4707
C35B C 1.07545(12) 0.60858(8) 0.60248(12)
C36B C 1.10133(13) 0.68246(8) 0.64960(12)
O5 O 0.63569(12) 0.23879(10) 0.27572(14)
H23 H 0.6863(19) 0.2660(13) 0.2694(19)
H24 H 0.672(2) 0.2021(17) 0.289(2)
loop_
_geom_bond_atom_site_label_1
_geom_bond_atom_site_label_2
_geom_bond_site_symmetry_1
_geom_bond_site_symmetry_2
Cd1 O1 1_555 1_555
O1 C30 1_555 1_555
O2 C30 1_555 1_555
O3 Cd1 1_555 1_555
O4 C36 1_555 1_555
O5 H23 1_555 1_555
N1 Cd1 1_555 1_555
N2 Cd1 1_555 1_555
N3 Cd1 1_555 1_555
N4 Cd1 1_555 1_555
C1 N1 1_555 1_555
H1 C1 1_555 1_555
C2 C1 1_555 1_555
H2 C2 1_555 1_555
C3 C2 1_555 1_555
H3 C3 1_555 1_555
C4 C3 1_555 1_555
C5 C4 1_555 1_555
H4 C5 1_555 1_555
C6 C5 1_555 1_555
H5 C6 1_555 1_555
C7 C6 1_555 1_555
C8 C7 1_555 1_555
H6 C8 1_555 1_555
C9 C8 1_555 1_555
H7 C9 1_555 1_555
C10 N2 1_555 1_555
H8 C10 1_555 1_555
C11 N2 1_555 1_555
C12 N1 1_555 1_555
C13 N3 1_555 1_555
H9 C13 1_555 1_555
C14 C13 1_555 1_555
H10 C14 1_555 1_555
C15 C14 1_555 1_555
H11 C15 1_555 1_555
C16 C15 1_555 1_555
C17 C16 1_555 1_555
H12 C17 1_555 1_555
C18 C17 1_555 1_555
H13 C18 1_555 1_555
C19 C18 1_555 1_555
C20 C19 1_555 1_555
H14 C20 1_555 1_555
C21 C20 1_555 1_555
H15 C21 1_555 1_555
C22 N4 1_555 1_555
H16 C22 1_555 1_555
C23 N4 1_555 1_555
C24 N3 1_555 1_555
C25 H17 1_555 1_555
C26 C25 1_555 1_555
C27 C26 1_555 1_555
H18 C27 1_555 1_555
C28 C27 1_555 1_555
C29 C25 1_555 1_555
H19 C29 1_555 1_555
C30 C26 1_555 1_555
C31 H20 1_555 1_555
C32 C31 1_555 1_555
H21 C32 1_555 1_555
C33 C32 1_555 1_555
C34 H22 1_555 1_555
C35 C31 1_555 1_555
C36 O3 1_555 1_555
H24 O5 1_555 1_555
Cd1B O1B 1_555 1_555
Cd1B_2 O3B 1_555 1_555
O1B C30B 1_555 1_555
O2B C30B 1_555 1_555
O3B C36B 1_555 1_555
O3B_2 Cd1B 1_555 1_555
O4B C36B 1_555 1_555
N1B Cd1B 1_555 1_555
N2B Cd1B 1_555 1_555
N3B Cd1B 1_555 1_555
N4B Cd1B 1_555 1_555
C1B N1B 1_555 1_555
H1B C1B 1_555 1_555
C2B C1B 1_555 1_555
H2B C2B 1_555 1_555
C3B C2B 1_555 1_555
H3B C3B 1_555 1_555
C4B C3B 1_555 1_555
C5B C4B 1_555 1_555
H4B C5B 1_555 1_555
C6B C5B 1_555 1_555
H5B C6B 1_555 1_555
C7B C6B 1_555 1_555
C8B C7B 1_555 1_555
H6B C8B 1_555 1_555
C9B C8B 1_555 1_555
H7B C9B 1_555 1_555
C10B N2B 1_555 1_555
H8B C10B 1_555 1_555
C11B N2B 1_555 1_555
C12B N1B 1_555 1_555
C13B N3B 1_555 1_555
H9B C13B 1_555 1_555
C14B C13B 1_555 1_555
H10B C14B 1_555 1_555
C15B C14B 1_555 1_555
H11B C15B 1_555 1_555
C16B C15B 1_555 1_555
C17B C16B 1_555 1_555
H12B C17B 1_555 1_555
C18B C17B 1_555 1_555
H13B C18B 1_555 1_555
C19B C18B 1_555 1_555
C20B C19B 1_555 1_555
H14B C20B 1_555 1_555
C21B C20B 1_555 1_555
H15B C21B 1_555 1_555
C22B N4B 1_555 1_555
H16B C22B 1_555 1_555
C23B N4B 1_555 1_555
C24B N3B 1_555 1_555
C25B H17B 1_555 1_555
C26B C25B 1_555 1_555
C27B C26B 1_555 1_555
H18B C27B 1_555 1_555
C28B C28 1_555 1_555
C29B C28 1_555 1_555
H19B C29B 1_555 1_555
C30B C26B 1_555 1_555
C31B H20B 1_555 1_555
C32B C31B 1_555 1_555
H21B C32B 1_555 1_555
C33B C33 1_555 1_555
C34B C33 1_555 1_555
H22B C34B 1_555 1_555
C35B C31B 1_555 1_555
C36B C35B 1_555 1_555
C4 C12 1_555 1_555
C7 C11 1_555 1_555
C9 C10 1_555 1_555
C11 C12 1_555 1_555
C16 C24 1_555 1_555
C19 C23 1_555 1_555
C21 C22 1_555 1_555
C23 C24 1_555 1_555
C29 C28B 1_555 1_555
C34 C35 1_555 1_555
C34 C33B 1_555 1_555
C35 C36 1_555 1_555
C4B C12B 1_555 1_555
C7B C11B 1_555 1_555
C9B C10B 1_555 1_555
C11B C12B 1_555 1_555
C16B C24B 1_555 1_555
C19B C23B 1_555 1_555
C21B C22B 1_555 1_555
C23B C24B 1_555 1_555
C25B C29B 1_555 1_555
C27B C28B 1_555 1_555
C32B C33B 1_555 1_555
C34B C35B 1_555 1_555

#END
