
#######################################################################
#
#                 Cambridge Crystallographic Data Centre
#                                CCDC 
#
#######################################################################
#
# If this CIF has been generated from an entry in the Cambridge 
# Structural Database, then it will include bibliographic, chemical, 
# crystal, experimental, refinement or atomic coordinate data resulting 
# from the CCDC's data processing and validation procedures.
#
#######################################################################

data_NEVPUA
_symmetry_cell_setting           tetragonal
_symmetry_space_group_name_H-M   'P 42/n c m'
_symmetry_Int_Tables_number      138
_space_group_name_Hall           '-P 4ac 2ac'
loop_
_symmetry_equiv_pos_site_id
_symmetry_equiv_pos_as_xyz
1 x,y,z
2 1/2-y,x,1/2+z
3 y,1/2-x,1/2+z
4 1/2+y,1/2+x,-z
5 1/2-x,1/2-y,z
6 -x,1/2+y,1/2-z
7 1/2+x,-y,1/2-z
8 -y,-x,-z
9 -x,-y,-z
10 1/2+y,-x,1/2-z
11 -y,1/2+x,1/2-z
12 1/2-y,1/2-x,z
13 1/2+x,1/2+y,-z
14 x,1/2-y,1/2+z
15 1/2-x,y,1/2+z
16 y,x,z
_cell_length_a                   18.193(2)
_cell_length_b                   18.193(2)
_cell_length_c                   13.256(2)
_cell_angle_alpha                90
_cell_angle_beta                 90
_cell_angle_gamma                90
_cell_volume                     4387.54
loop_
_atom_site_label
_atom_site_type_symbol
_atom_site_fract_x
_atom_site_fract_y
_atom_site_fract_z
Cd1 Cd 0.2500 0.7500 0.2500
Cl2 Cl 0.14455(6) 0.78633(6) 0.14165(8)
Cl2I Cl 0.28633(6) 0.85545(6) 0.35835(8)
Cl2J Cl 0.21367(6) 0.64455(6) 0.35835(8)
Cl2D Cl 0.35545(6) 0.71367(6) 0.14165(8)
Cu1 Cu 0.01167(3) 0.48833(3) 0.23272(5)
Cu2 Cu 0.0000 0.5000 0.5000
Cl1 Cl 0.07996(6) 0.42004(6) 0.37694(11)
O1 O -0.0430(2) 0.5430(2) 0.0872(4)
N1 N 0.01855(19) 0.58955(19) 0.4147(3)
N2 N 0.02294(19) 0.58768(19) 0.3105(3)
N3 N 0.0278(2) 0.70033(19) 0.3607(3)
N4 N 0.0767(3) 0.8850(2) 0.3891(3)
N5 N 0.0117(2) 0.8902(2) 0.3333(3)
N6 N 0.0338(2) 0.77596(19) 0.3601(3)
C1 C 0.0214(2) 0.6577(2) 0.4437(3)
H1 H 0.0197 0.6749 0.5121
C2 C 0.0295(3) 0.6548(2) 0.2787(3)
H2 H 0.0343 0.6698 0.2096
C3 C 0.0885(3) 0.8154(3) 0.4037(4)
H3 H 0.1293 0.7950 0.4402
C4 C -0.0131(3) 0.8242(3) 0.3159(4)
H4 H -0.0567 0.8119 0.2788
H5 H -0.0389 0.5899 0.0892
Cu1C Cu -0.01167(3) 0.51167(3) 0.76728(5)
Cu1I Cu -0.01167(3) 0.98833(3) 0.26728(5)
Cu1B Cu 0.48833(3) 0.48833(3) 0.73272(5)
Cu1A Cu 0.01167(3) 0.01167(3) 0.73272(5)
Cu1J Cu -0.48833(3) 0.51167(3) 0.26728(5)
Cl1C Cl -0.07996(6) 0.57996(6) 0.62306(11)
O1C O 0.0430(2) 0.4570(2) 0.9128(4)
N1C N 0.08955(19) 0.51855(19) 0.5853(3)
N1H N -0.01855(19) 0.41045(19) 0.5853(3)
N1K N -0.08955(19) 0.48145(19) 0.4147(3)
N2C N 0.08768(19) 0.52294(19) 0.6895(3)
N2H N -0.02294(19) 0.41232(19) 0.6895(3)
N2K N -0.08768(19) 0.47706(19) 0.3105(3)
N3C N 0.20033(19) 0.5278(2) 0.6393(3)
N3H N -0.0278(2) 0.29967(19) 0.6393(3)
N3K N -0.20033(19) 0.4722(2) 0.3607(3)
N4C N 0.3850(2) 0.5767(3) 0.6109(3)
N4H N -0.0767(3) 0.1150(2) 0.6109(3)
N4K N -0.3850(2) 0.4233(3) 0.3891(3)
N5C N 0.3902(2) 0.5117(2) 0.6667(3)
N5H N -0.0117(2) 0.1098(2) 0.6667(3)
N5K N -0.3902(2) 0.4883(2) 0.3333(3)
N5J N 0.1098(2) 0.5117(2) 0.1667(3)
N5E N -0.0117(2) 0.3902(2) 0.1667(3)
N5B N -0.1098(2) 0.4883(2) 0.8333(3)
N5M N 0.0117(2) 0.6098(2) 0.8333(3)
N6C N 0.27596(19) 0.5338(2) 0.6399(3)
N6H N -0.0338(2) 0.22404(19) 0.6399(3)
N6K N -0.27596(19) 0.4662(2) 0.3601(3)
C1C C 0.1577(2) 0.5214(2) 0.5563(3)
C1H C -0.0214(2) 0.3423(2) 0.5563(3)
C1K C -0.1577(2) 0.4786(2) 0.4437(3)
H1C H 0.1749 0.5197 0.4879
H1H H -0.0197 0.3251 0.4879
H1K H -0.1749 0.4803 0.5121
C2C C 0.1548(2) 0.5295(3) 0.7213(3)
C2H C -0.0295(3) 0.3452(2) 0.7213(3)
C2K C -0.1548(2) 0.4705(3) 0.2787(3)
H2C H 0.1698 0.5343 0.7904
H2H H -0.0343 0.3302 0.7904
H2K H -0.1698 0.4657 0.2096
C3C C 0.3154(3) 0.5885(3) 0.5963(4)
C3H C -0.0885(3) 0.1846(3) 0.5963(4)
C3K C -0.3154(3) 0.4115(3) 0.4037(4)
H3C H 0.2950 0.6293 0.5598
H3H H -0.1293 0.2050 0.5598
H3K H -0.2950 0.3707 0.4402
C4C C 0.3242(3) 0.4869(3) 0.6841(4)
C4H C 0.0131(3) 0.1758(3) 0.6841(4)
C4K C -0.3242(3) 0.5131(3) 0.3159(4)
H4C H 0.3119 0.4433 0.7212
H4H H 0.0567 0.1881 0.7212
H4K H -0.3119 0.5567 0.2788
H5K H -0.0899 0.5389 0.0892
H5C H 0.0899 0.4611 0.9108
H5H H 0.0389 0.4101 0.9108
loop_
_geom_bond_atom_site_label_1
_geom_bond_atom_site_label_2
_geom_bond_site_symmetry_1
_geom_bond_site_symmetry_2
Cd1 Cl2 1_555 1_555
Cu1 Cl1 1_555 1_555
Cu2 Cl1 1_555 1_555
O1 Cu1 1_555 1_555
N1 Cu2 1_555 1_555
N2 Cu1 1_555 1_555
N3 N6 1_555 1_555
N4 N5 1_555 1_555
N5 C4 1_555 1_555
N6 C3 1_555 1_555
C1 N1 1_555 1_555
H1 C1 1_555 1_555
C2 N2 1_555 1_555
H2 C2 1_555 1_555
C3 N4 1_555 1_555
H3 C3 1_555 1_555
C4 N6 1_555 1_555
H4 C4 1_555 1_555
H5 O1 1_555 1_555
Cu1C Cl1C 1_555 1_555
Cu1I N5 1_555 1_555
Cu1B N5C 1_555 1_555
Cu1A N5H 1_555 1_555
Cu1J N5K 1_555 1_555
Cl1C Cu2 1_555 1_555
Cl2I Cd1 1_555 1_555
Cl2J Cd1 1_555 1_555
Cl2D Cd1 1_555 1_555
O1C Cu1C 1_555 1_555
N1C Cu2 1_555 1_555
N1H Cu2 1_555 1_555
N1K Cu2 1_555 1_555
N2C Cu1C 1_555 1_555
N2H Cu1C 1_555 1_555
N2K Cu1 1_555 1_555
N3C N6C 1_555 1_555
N3H N6H 1_555 1_555
N3K N6K 1_555 1_555
N4C N5C 1_555 1_555
N4H N5H 1_555 1_555
N4K N5K 1_555 1_555
N5C C4C 1_555 1_555
N5H C4H 1_555 1_555
N5K C4K 1_555 1_555
N5J Cu1 1_555 1_555
N5E Cu1 1_555 1_555
N5B Cu1C 1_555 1_555
N5M Cu1C 1_555 1_555
N6C C3C 1_555 1_555
N6H C3H 1_555 1_555
N6K C3K 1_555 1_555
C1C N1C 1_555 1_555
C1H N1H 1_555 1_555
C1K N1K 1_555 1_555
H1C C1C 1_555 1_555
H1H C1H 1_555 1_555
H1K C1K 1_555 1_555
C2C N2C 1_555 1_555
C2H N2H 1_555 1_555
C2K N2K 1_555 1_555
H2C C2C 1_555 1_555
H2H C2H 1_555 1_555
H2K C2K 1_555 1_555
C3C N4C 1_555 1_555
C3H N4H 1_555 1_555
C3K N4K 1_555 1_555
H3C C3C 1_555 1_555
H3H C3H 1_555 1_555
H3K C3K 1_555 1_555
C4C N6C 1_555 1_555
C4H N6H 1_555 1_555
C4K N6K 1_555 1_555
H4C C4C 1_555 1_555
H4H C4H 1_555 1_555
H4K C4K 1_555 1_555
H5K O1 1_555 1_555
H5C O1C 1_555 1_555
H5H O1C 1_555 1_555
N1 N2 1_555 1_555
N3 C1 1_555 1_555
N3 C2 1_555 1_555
N1C N2C 1_555 1_555
N1H N2H 1_555 1_555
N1K N2K 1_555 1_555
N3C C1C 1_555 1_555
N3C C2C 1_555 1_555
N3H C1H 1_555 1_555
N3H C2H 1_555 1_555
N3K C1K 1_555 1_555
N3K C2K 1_555 1_555

#END
