
#######################################################################
#
#                 Cambridge Crystallographic Data Centre
#                                CCDC 
#
#######################################################################
#
# If this CIF has been generated from an entry in the Cambridge 
# Structural Database, then it will include bibliographic, chemical, 
# crystal, experimental, refinement or atomic coordinate data resulting 
# from the CCDC's data processing and validation procedures.
#
#######################################################################

data_NEVQEM
_symmetry_cell_setting           monoclinic
_symmetry_space_group_name_H-M   'P 21'
_symmetry_Int_Tables_number      4
_space_group_name_Hall           'P 2yb'
loop_
_symmetry_equiv_pos_site_id
_symmetry_equiv_pos_as_xyz
1 x,y,z
2 -x,1/2+y,-z
_cell_length_a                   12.3452(16)
_cell_length_b                   10.3843(9)
_cell_length_c                   16.9346(17)
_cell_angle_alpha                90
_cell_angle_beta                 90.013(14)
_cell_angle_gamma                90
_cell_volume                     2170.95
loop_
_atom_site_label
_atom_site_type_symbol
_atom_site_fract_x
_atom_site_fract_y
_atom_site_fract_z
C1 C 0.3025(10) 2.0323(10) 1.0147(8)
C2 C 0.0394(8) 1.7038(11) 1.1124(7)
C3 C -0.3601(8) 1.9469(11) 0.8571(7)
C4 C -0.6042(9) 2.0131(11) 0.6226(7)
C5 C -0.0707(9) 1.7116(10) 0.3970(7)
C6 C -0.2770(8) 2.1319(10) 0.4625(7)
C7 C 0.3019(8) 1.4952(8) 0.7819(6)
H1 H 0.2915 1.5302 0.7274
C8 C 0.2029(7) 1.4995(8) 0.8383(6)
H2 H 0.1291 1.5109 0.8240
C9 C 0.2421(7) 1.4840(9) 0.9097(6)
H3 H 0.2009 1.4825 0.9571
C10 C 0.3662(7) 1.4689(10) 0.9039(6)
H4 H 0.4097 1.4813 0.9531
C11 C 0.3768(7) 1.3391(9) 0.8602(6)
H5 H 0.4056 1.2615 0.8812
C12 C 0.3386(7) 1.3562(9) 0.7889(7)
H6 H 0.3346 1.2927 0.7486
C13 C 0.3886(7) 1.5599(8) 0.8336(5)
H7 H 0.3723 1.6513 0.8455
H8 H 0.4627 1.5511 0.8120
C14 C 0.0507(6) 1.7192(8) 0.7178(5)
H9 H 0.0705 1.6357 0.6922
C15 C 0.1424(5) 1.7956(9) 0.7595(5)
H10 H 0.2181 1.7841 0.7525
C16 C 0.0954(7) 1.8780(8) 0.8056(6)
H11 H 0.1314 1.9394 0.8379
C17 C -0.0285(6) 1.8601(8) 0.7995(6)
H12 H -0.0741 1.8956 0.8431
C18 C -0.0537(6) 1.9041(8) 0.7154(6)
H13 H -0.0961 1.9765 0.7004
C19 C -0.0044(6) 1.8204(9) 0.6667(6)
H14 H -0.0040 1.8238 0.6106
C20 C -0.0309(6) 1.7147(8) 0.7859(5)
H15 H -0.1030 1.6829 0.7695
H16 H -0.0042 1.6651 0.8319
C21 C -0.2517(7) 1.4756(8) 0.6967(6)
H17 H -0.1876 1.4432 0.7269
C22 C -0.2303(7) 1.5535(8) 0.6211(6)
H18 H -0.1644 1.5555 0.5922
C23 C -0.3220(7) 1.6186(8) 0.6030(5)
H19 H -0.3323 1.6754 0.5597
C24 C -0.4069(7) 1.5826(8) 0.6666(6)
H20 H -0.4716 1.6398 0.6722
C25 C -0.4274(8) 1.4397(8) 0.6515(5)
H21 H -0.4933 1.4027 0.6335
C26 C -0.3357(8) 1.3757(8) 0.6679(5)
H22 H -0.3245 1.2856 0.6628
C27 C -0.3301(7) 1.5695(8) 0.7395(5)
H23 H -0.2952 1.6519 0.7544
H24 H -0.3660 1.5302 0.7859
N1 N 0.1777(5) 1.8164(7) 1.0100(4)
N2 N -0.4814(6) 2.0666(6) 0.7484(5)
N3 N -0.1831(7) 1.9280(9) 0.3978(5)
O1 O 0.3719(5) 1.8024(8) 0.9915(4)
O2 O 0.3089(5) 1.8554(6) 1.1238(4)
O3 O 0.0653(7) 1.9501(7) 1.1042(6)
O4 O -0.0174(5) 1.8376(8) 0.9940(5)
O5 O -0.3537(5) 1.8840(6) 0.7126(4)
O6 O -0.2855(5) 2.0954(6) 0.7493(4)
O7 O -0.5843(5) 1.8534(5) 0.7386(4)
O8 O -0.6801(5) 2.0573(6) 0.7621(5)
O9 O -0.0170(6) 1.9101(8) 0.3179(5)
O10 O 0.0040(6) 1.9175(8) 0.4626(6)
O11 O -0.2020(6) 1.9460(7) 0.5469(4)
O12 O -0.3569(6) 1.9055(7) 0.4617(5)
F1 F 0.2747(10) 2.0533(9) 0.9429(6)
F2 F 0.3991(6) 2.0754(8) 1.0270(6)
F3 F 0.2416(7) 2.1042(7) 1.0591(6)
F4 F 0.1074(6) 1.6970(11) 1.1718(6)
F5 F -0.0581(5) 1.7084(7) 1.1417(4)
F6 F 0.0515(9) 1.6002(6) 1.0718(7)
F7 F -0.2684(5) 1.8935(8) 0.8749(5)
F8 F -0.4368(5) 1.8653(8) 0.8762(4)
F9 F -0.3697(9) 2.0478(9) 0.9052(5)
F10 F -0.5251(6) 1.9568(9) 0.5837(4)
F11 F -0.6061(7) 2.1371(6) 0.6056(5)
F12 F -0.6984(5) 1.9615(6) 0.5984(5)
F13 F -0.1217(8) 1.6723(7) 0.4627(5)
F14 F 0.0274(7) 1.6616(7) 0.3982(6)
F15 F -0.1240(6) 1.6658(7) 0.3368(5)
F16 F -0.3235(7) 2.1610(6) 0.3949(5)
F17 F -0.3366(8) 2.1731(7) 0.5193(5)
F18 F -0.1845(6) 2.1962(7) 0.4645(5)
S1 S 0.29481(17) 1.8610(2) 1.04122(14)
S2 S 0.06470(18) 1.8460(2) 1.05255(14)
S3 S -0.36664(17) 1.99904(19) 0.75605(14)
S4 S -0.59085(17) 1.98865(19) 0.72866(15)
S5 S -0.0609(2) 1.8855(2) 0.39644(18)
S6 S -0.25379(18) 1.9596(2) 0.47162(15)
Ag1 Ag 0.17891(5) 1.70953(6) 0.89117(4)
Ag2 Ag -0.46773(6) 2.30885(6) 0.76845(4)
Ag3 Ag -0.19622(5) 1.78144(6) 0.64679(4)
C11_2 C -0.6232(7) 2.3391(9) 0.8602(6)
C12_2 C -0.6614(7) 2.3562(9) 0.7889(7)
C25_2 C -0.4274(8) 2.4397(8) 0.6515(5)
C26_2 C -0.3357(8) 2.3757(8) 0.6679(5)
Ag2_2 Ag -0.46773(6) 1.30885(6) 0.76845(4)
Ag2_3 Ag 0.53227(6) 1.30885(6) 0.76845(4)
loop_
_geom_bond_atom_site_label_1
_geom_bond_atom_site_label_2
_geom_bond_site_symmetry_1
_geom_bond_site_symmetry_2
C1 F1 1_555 1_555
C2 F4 1_555 1_555
C3 F7 1_555 1_555
C4 F10 1_555 1_555
C5 F13 1_555 1_555
C6 F16 1_555 1_555
C7 H1 1_555 1_555
C8 C7 1_555 1_555
H2 C8 1_555 1_555
C9 C8 1_555 1_555
H3 C9 1_555 1_555
C10 C9 1_555 1_555
H4 C10 1_555 1_555
C11 C10 1_555 1_555
H5 C11 1_555 1_555
C12 C7 1_555 1_555
H6 C12 1_555 1_555
C13 C7 1_555 1_555
H7 C13 1_555 1_555
H8 C13 1_555 1_555
C14 H9 1_555 1_555
C15 C14 1_555 1_555
H10 C15 1_555 1_555
C16 C15 1_555 1_555
H11 C16 1_555 1_555
C17 C16 1_555 1_555
H12 C17 1_555 1_555
C18 C17 1_555 1_555
H13 C18 1_555 1_555
C19 C14 1_555 1_555
H14 C19 1_555 1_555
C20 C14 1_555 1_555
H15 C20 1_555 1_555
H16 C20 1_555 1_555
C21 H17 1_555 1_555
C22 C21 1_555 1_555
H18 C22 1_555 1_555
C23 C22 1_555 1_555
H19 C23 1_555 1_555
C24 C23 1_555 1_555
H20 C24 1_555 1_555
C25 C24 1_555 1_555
H21 C25 1_555 1_555
C26 C21 1_555 1_555
H22 C26 1_555 1_555
C27 C21 1_555 1_555
H23 C27 1_555 1_555
H24 C27 1_555 1_555
N1 S1 1_555 1_555
N2 S3 1_555 1_555
N3 S5 1_555 1_555
O1 S1 1_555 1_555
O2 S1 1_555 1_555
O3 S2 1_555 1_555
O4 S2 1_555 1_555
O5 S3 1_555 1_555
O6 S3 1_555 1_555
O7 S4 1_555 1_555
O8 S4 1_555 1_555
O9 S5 1_555 1_555
O10 S5 1_555 1_555
O11 S6 1_555 1_555
O12 S6 1_555 1_555
F2 C1 1_555 1_555
F3 C1 1_555 1_555
F5 C2 1_555 1_555
F6 C2 1_555 1_555
F8 C3 1_555 1_555
F9 C3 1_555 1_555
F11 C4 1_555 1_555
F12 C4 1_555 1_555
F14 C5 1_555 1_555
F15 C5 1_555 1_555
F17 C6 1_555 1_555
F18 C6 1_555 1_555
S1 C1 1_555 1_555
S2 C2 1_555 1_555
S3 C3 1_555 1_555
S4 C4 1_555 1_555
S5 C5 1_555 1_555
S6 C6 1_555 1_555
Ag1 C8 1_555 1_555
Ag2 N2 1_555 1_555
Ag3 C18 1_555 1_555
C11_2 Ag2 1_555 1_555
C12_2 Ag2 1_555 1_555
C25_2 Ag2 1_555 1_555
C26_2 Ag2 1_555 1_555
Ag2_2 C25 1_555 1_555
Ag2_3 C11 1_555 1_555
C9 Ag1 1_555 1_555
C10 C13 1_555 1_555
C11 C12 1_555 1_555
C12 Ag2_3 1_555 1_555
C15 Ag1 1_555 1_555
C16 Ag1 1_555 1_555
C17 C20 1_555 1_555
C18 C19 1_555 1_555
C19 Ag3 1_555 1_555
C22 Ag3 1_555 1_555
C23 Ag3 1_555 1_555
C24 C27 1_555 1_555
C25 C26 1_555 1_555
C26 Ag2_2 1_555 1_555
N1 S2 1_555 1_555
N1 Ag1 1_555 1_555
N2 S4 1_555 1_555
N3 S6 1_555 1_555
O5 Ag3 1_555 1_555
O11 Ag3 1_555 1_555
C11_2 C12_2 1_555 1_555
C25_2 C26_2 1_555 1_555

#END
