
#######################################################################
#
#                 Cambridge Crystallographic Data Centre
#                                CCDC 
#
#######################################################################
#
# If this CIF has been generated from an entry in the Cambridge 
# Structural Database, then it will include bibliographic, chemical, 
# crystal, experimental, refinement or atomic coordinate data resulting 
# from the CCDC's data processing and validation procedures.
#
#######################################################################

data_NEVTUF
_symmetry_cell_setting           orthorhombic
_symmetry_space_group_name_H-M   'P b c a'
_symmetry_Int_Tables_number      61
_space_group_name_Hall           '-P 2ac 2ab'
loop_
_symmetry_equiv_pos_site_id
_symmetry_equiv_pos_as_xyz
1 x,y,z
2 1/2-x,-y,1/2+z
3 -x,1/2+y,1/2-z
4 1/2+x,1/2-y,-z
5 -x,-y,-z
6 1/2+x,y,1/2-z
7 x,1/2-y,1/2+z
8 1/2-x,1/2+y,z
_cell_length_a                   12.526(5)
_cell_length_b                   15.388(6)
_cell_length_c                   23.192(9)
_cell_angle_alpha                90
_cell_angle_beta                 90
_cell_angle_gamma                90
_cell_volume                     4470.26
loop_
_atom_site_label
_atom_site_type_symbol
_atom_site_fract_x
_atom_site_fract_y
_atom_site_fract_z
Ag1 Ag 0.04316(3) 0.83836(2) 0.142217(17)
C1 C 0.0808(4) 1.0078(3) 0.0420(2)
C2 C -0.0267(4) 1.0043(3) 0.0576(2)
H1 H -0.0454 1.0078 0.0963
C3 C 0.2794(4) 0.8429(3) 0.1868(2)
C4 C 0.1659(4) 1.0123(3) 0.0876(2)
H2 H 0.2290 1.0403 0.0720
H3 H 0.1406 1.0470 0.1198
C5 C 0.2091(4) 0.7110(3) 0.2124(2)
H4 H 0.1514 0.6730 0.2139
C6 C 0.3788(4) 0.8199(3) 0.2089(2)
H5 H 0.4354 0.8590 0.2079
C7 C 0.2606(4) 0.9305(3) 0.1601(2)
H6 H 0.2259 0.9680 0.1879
H7 H 0.3287 0.9564 0.1500
C8 C 0.3056(4) 0.6839(4) 0.2346(2)
H8 H 0.3121 0.6290 0.2509
C9 C 0.1056(4) 1.0043(3) -0.0167(2)
H9 H 0.1765 1.0078 -0.0284
C10 C 0.3919(4) 0.7384(3) 0.2323(2)
H10 H 0.4580 0.7207 0.2463
C11 C 0.2523(4) 0.8761(3) 0.0635(2)
H11 H 0.3150 0.9081 0.0527
H12 H 0.2073 0.8685 0.0304
H13 H 0.2727 0.8202 0.0783
N1 N 0.1939(3) 0.9242(2) 0.10817(17)
N2 N 0.1951(3) 0.7898(3) 0.18889(17)
N3 N -0.0113(3) 0.7173(3) 0.07316(17)
N4 N -0.1370(4) 0.8314(2) 0.13985(16)
C12 C -0.2034(5) 0.8912(4) 0.1617(2)
H14 H -0.1737 0.9428 0.1750
C13 C -0.2910(4) 0.7436(3) 0.1218(2)
H15 H -0.3198 0.6923 0.1074
C14 C -0.1818(4) 0.7580(3) 0.1199(2)
C15 C -0.3553(5) 0.8056(4) 0.1452(2)
H16 H -0.4286 0.7967 0.1472
C16 C -0.1093(4) 0.6863(3) 0.0998(2)
H17 H -0.0910 0.6499 0.1325
H18 H -0.1475 0.6505 0.0722
C17 C 0.0687(4) 0.6478(3) 0.0695(2)
H19 H 0.0853 0.6285 0.1083
H20 H 0.1336 0.6719 0.0532
C18 C -0.0319(4) 0.7573(3) 0.0168(2)
H21 H -0.0592 0.7142 -0.0093
H22 H 0.0333 0.7808 0.0016
H23 H -0.0834 0.8031 0.0210
C19 C -0.3110(5) 0.8818(4) 0.1658(2)
H24 H -0.3534 0.9251 0.1820
C20 C -0.0231(4) 0.5030(3) 0.0583(2)
H25 H -0.0388 0.5042 0.0975
C21 C 0.0593(4) 0.5649(3) -0.0247(2)
H26 H 0.0999 0.6087 -0.0415
C22 C 0.0363(4) 0.5693(3) 0.0340(2)
C1D C -0.0808(4) 0.9922(3) -0.0420(2)
C2D C 0.0267(4) 0.9957(3) -0.0576(2)
H1D H 0.0454 0.9922 -0.0963
C3D C -0.2794(4) 1.1571(3) -0.1868(2)
C4D C -0.1659(4) 0.9877(3) -0.0876(2)
H2D H -0.2290 0.9597 -0.0720
H3D H -0.1406 0.9530 -0.1198
C5D C -0.2091(4) 1.2890(3) -0.2124(2)
H4D H -0.1514 1.3270 -0.2139
C6D C -0.3788(4) 1.1801(3) -0.2089(2)
H5D H -0.4354 1.1410 -0.2079
C7D C -0.2606(4) 1.0695(3) -0.1601(2)
H6D H -0.2259 1.0320 -0.1879
H7D H -0.3287 1.0436 -0.1500
C8D C -0.3056(4) 1.3161(4) -0.2346(2)
H8D H -0.3121 1.3710 -0.2509
C9D C -0.1056(4) 0.9957(3) 0.0167(2)
H9D H -0.1765 0.9922 0.0284
C10D C -0.3919(4) 1.2616(3) -0.2323(2)
H10D H -0.4580 1.2793 -0.2463
C11D C -0.2523(4) 1.1239(3) -0.0635(2)
H11D H -0.3150 1.0919 -0.0527
H12D H -0.2073 1.1315 -0.0304
H13D H -0.2727 1.1798 -0.0783
N1D N -0.1939(3) 1.0758(2) -0.10817(17)
N2D N -0.1951(3) 1.2102(3) -0.18889(17)
N3D N 0.0113(3) 0.2827(3) -0.07316(17)
N4D N 0.1370(4) 0.1686(2) -0.13985(16)
C12D C 0.2034(5) 0.1088(4) -0.1617(2)
H14D H 0.1737 0.0572 -0.1750
C13D C 0.2910(4) 0.2564(3) -0.1218(2)
H15D H 0.3198 0.3077 -0.1074
C14D C 0.1818(4) 0.2420(3) -0.1199(2)
C15D C 0.3553(5) 0.1944(4) -0.1452(2)
H16D H 0.4286 0.2033 -0.1472
C16D C 0.1093(4) 0.3137(3) -0.0998(2)
H17D H 0.0910 0.3501 -0.1325
H18D H 0.1475 0.3495 -0.0722
C17D C -0.0687(4) 0.3522(3) -0.0695(2)
H19D H -0.0853 0.3715 -0.1083
H20D H -0.1336 0.3281 -0.0532
C18D C 0.0319(4) 0.2427(3) -0.0168(2)
H21D H 0.0592 0.2858 0.0093
H22D H -0.0333 0.2192 -0.0016
H23D H 0.0834 0.1969 -0.0210
C19D C 0.3110(5) 0.1182(4) -0.1658(2)
H24D H 0.3534 0.0749 -0.1820
C20D C 0.0231(4) 0.4970(3) -0.0583(2)
H25D H 0.0388 0.4958 -0.0975
C21D C -0.0593(4) 0.4351(3) 0.0247(2)
H26D H -0.0999 0.3913 0.0415
C22D C -0.0363(4) 0.4307(3) -0.0340(2)
Ag1D Ag -0.04316(3) 0.16164(2) -0.142217(17)
Ag1D_2 Ag -0.04316(3) 1.16164(2) -0.142217(17)
N1D_2 N -0.1939(3) 0.0758(2) -0.10817(17)
N2D_2 N -0.1951(3) 0.2102(3) -0.18889(17)
O1 O 0.5061(3) 0.5561(2) 0.29433(16)
N5 N 0.5141(4) 0.5333(3) 0.2429(2)
O2 O 0.4614(3) 0.4709(3) 0.22540(17)
O3 O 0.5752(4) 0.5713(3) 0.20930(19)
loop_
_geom_bond_atom_site_label_1
_geom_bond_atom_site_label_2
_geom_bond_site_symmetry_1
_geom_bond_site_symmetry_2
Ag1 N1 1_555 1_555
C1 C2 1_555 1_555
C2 H1 1_555 1_555
C3 C6 1_555 1_555
C4 C1 1_555 1_555
H2 C4 1_555 1_555
H3 C4 1_555 1_555
C5 H4 1_555 1_555
C6 H5 1_555 1_555
C7 C3 1_555 1_555
H6 C7 1_555 1_555
H7 C7 1_555 1_555
C8 C5 1_555 1_555
H8 C8 1_555 1_555
C9 C1 1_555 1_555
H9 C9 1_555 1_555
C10 C6 1_555 1_555
H10 C10 1_555 1_555
C11 H11 1_555 1_555
H12 C11 1_555 1_555
H13 C11 1_555 1_555
N1 C4 1_555 1_555
N2 Ag1 1_555 1_555
N3 Ag1 1_555 1_555
N4 Ag1 1_555 1_555
C12 N4 1_555 1_555
H14 C12 1_555 1_555
C13 H15 1_555 1_555
C14 N4 1_555 1_555
C15 C13 1_555 1_555
H16 C15 1_555 1_555
C16 N3 1_555 1_555
H17 C16 1_555 1_555
H18 C16 1_555 1_555
C17 N3 1_555 1_555
H19 C17 1_555 1_555
H20 C17 1_555 1_555
C18 N3 1_555 1_555
H21 C18 1_555 1_555
H22 C18 1_555 1_555
H23 C18 1_555 1_555
C19 C12 1_555 1_555
H24 C19 1_555 1_555
C20 H25 1_555 1_555
C21 H26 1_555 1_555
C22 C17 1_555 1_555
O1 N5 1_555 1_555
N5 O2 1_555 1_555
O3 N5 1_555 1_555
C1D C2D 1_555 1_555
C2D C9 1_555 1_555
H1D C2D 1_555 1_555
C3D C6D 1_555 1_555
C4D C1D 1_555 1_555
H2D C4D 1_555 1_555
H3D C4D 1_555 1_555
C5D H4D 1_555 1_555
C6D H5D 1_555 1_555
C7D C3D 1_555 1_555
H6D C7D 1_555 1_555
H7D C7D 1_555 1_555
C8D C5D 1_555 1_555
H8D C8D 1_555 1_555
C9D C2 1_555 1_555
H9D C9D 1_555 1_555
C10D C6D 1_555 1_555
H10D C10D 1_555 1_555
C11D H11D 1_555 1_555
H12D C11D 1_555 1_555
H13D C11D 1_555 1_555
N1D C4D 1_555 1_555
N2D C3D 1_555 1_555
N3D C16D 1_555 1_555
N4D C12D 1_555 1_555
C12D H14D 1_555 1_555
C13D H15D 1_555 1_555
C14D N4D 1_555 1_555
C15D C13D 1_555 1_555
H16D C15D 1_555 1_555
C16D C14D 1_555 1_555
H17D C16D 1_555 1_555
H18D C16D 1_555 1_555
C17D N3D 1_555 1_555
H19D C17D 1_555 1_555
H20D C17D 1_555 1_555
C18D N3D 1_555 1_555
H21D C18D 1_555 1_555
H22D C18D 1_555 1_555
H23D C18D 1_555 1_555
C19D C12D 1_555 1_555
H24D C19D 1_555 1_555
C20D C21 1_555 1_555
H25D C20D 1_555 1_555
C21D C20 1_555 1_555
H26D C21D 1_555 1_555
C22D C17D 1_555 1_555
Ag1D N3D 1_555 1_555
Ag1D_2 N1D 1_555 1_555
N1D_2 Ag1D 1_555 1_555
N2D_2 Ag1D 1_555 1_555
C3 N2 1_555 1_555
C5 N2 1_555 1_555
C7 N1 1_555 1_555
C8 C10 1_555 1_555
C11 N1 1_555 1_555
C13 C14 1_555 1_555
C14 C16 1_555 1_555
C15 C19 1_555 1_555
C20 C22 1_555 1_555
C21 C22 1_555 1_555
C1D C9D 1_555 1_555
C5D N2D 1_555 1_555
C7D N1D 1_555 1_555
C8D C10D 1_555 1_555
C11D N1D 1_555 1_555
N2D Ag1D_2 1_555 1_555
N4D Ag1D 1_555 1_555
C13D C14D 1_555 1_555
C15D C19D 1_555 1_555
C20D C22D 1_555 1_555
C21D C22D 1_555 1_555

#END
