
#######################################################################
#
#                 Cambridge Crystallographic Data Centre
#                                CCDC 
#
#######################################################################
#
# If this CIF has been generated from an entry in the Cambridge 
# Structural Database, then it will include bibliographic, chemical, 
# crystal, experimental, refinement or atomic coordinate data resulting 
# from the CCDC's data processing and validation procedures.
#
#######################################################################

data_NEVVAN
_symmetry_cell_setting           tetragonal
_symmetry_space_group_name_H-M   'I -4 2 d'
_symmetry_Int_Tables_number      122
_space_group_name_Hall           'I -4 2bw'
loop_
_symmetry_equiv_pos_site_id
_symmetry_equiv_pos_as_xyz
1 x,y,z
2 -x,-y,z
3 y,-x,-z
4 -y,x,-z
5 1/2-x,y,3/4-z
6 1/2+x,-y,3/4-z
7 1/2-y,-x,3/4+z
8 1/2+y,x,3/4+z
9 1/2+x,1/2+y,1/2+z
10 1/2-x,1/2-y,1/2+z
11 1/2+y,1/2-x,1/2-z
12 1/2-y,1/2+x,1/2-z
13 -x,1/2+y,1/4-z
14 x,1/2-y,1/4-z
15 -y,1/2-x,1/4+z
16 y,1/2+x,1/4+z
_cell_length_a                   14.3358(7)
_cell_length_b                   14.3358(7)
_cell_length_c                   27.646(3)
_cell_angle_alpha                90
_cell_angle_beta                 90
_cell_angle_gamma                90
_cell_volume                     5681.67
loop_
_atom_site_label
_atom_site_type_symbol
_atom_site_fract_x
_atom_site_fract_y
_atom_site_fract_z
Ag1 Ag 0.5000 0.5000 0.10745(3)
C1 C 0.4357(8) 0.6634(5) 0.0312(3)
H1 H 0.4993 0.6660 0.0246
C2 C 0.3826(12) 0.7206(6) 0.0058(4)
H2 H 0.4078 0.7634 -0.0159
C3 C 0.2850(14) 0.7134(7) 0.0134(5)
H3 H 0.2427 0.7489 -0.0043
C4 C 0.2563(9) 0.6514(6) 0.0480(4)
H4 H 0.1931 0.6472 0.0552
C5 C 0.3188(7) 0.5948(5) 0.0726(3)
C6 C 0.2849(6) 0.5229(5) 0.1095(3)
H5 H 0.2266 0.5442 0.1236
H6 H 0.2729 0.4643 0.0931
C7 C 0.3533(8) 0.5918(6) 0.1780(3)
H7 H 0.3546 0.6461 0.1577
H8 H 0.4075 0.5914 0.1984
H9 H 0.2981 0.5930 0.1977
C8 C 0.3251(9) 0.4250(6) 0.1780(3)
H10 H 0.2637 0.4362 0.1915
H11 H 0.3685 0.4190 0.2047
C9 C 0.3232(6) 0.3337(5) 0.1501(3)
C10 C 0.4014(6) 0.2912(5) 0.1371(4)
H12 H 0.4582 0.3188 0.1448
C11 C 0.2422(8) 0.2938(6) 0.1377(4)
H13 H 0.1860 0.3227 0.1455
N1 N 0.4104(5) 0.6037(4) 0.0643(2)
N2 N 0.3528(4) 0.5078(4) 0.14791(18)
C1M C 0.4357(8) -0.1634(5) 0.2188(3)
H1M H 0.4993 -0.1660 0.2254
C2M C 0.3826(12) -0.2206(6) 0.2442(4)
H2M H 0.4078 -0.2634 0.2659
C3M C 0.2850(14) -0.2134(7) 0.2366(5)
H3M H 0.2427 -0.2489 0.2543
C4M C 0.2563(9) -0.1514(6) 0.2020(4)
H4M H 0.1931 -0.1472 0.1948
C5M C 0.3188(7) -0.0948(5) 0.1774(3)
C6M C 0.2849(6) -0.0229(5) 0.1405(3)
H5M H 0.2266 -0.0442 0.1264
H6M H 0.2729 0.0357 0.1569
C7M C 0.3533(8) -0.0918(6) 0.0720(3)
H7M H 0.3546 -0.1461 0.0923
H8M H 0.4075 -0.0914 0.0516
H9M H 0.2981 -0.0930 0.0523
C8M C 0.3251(9) 0.0750(6) 0.0720(3)
H10M H 0.2637 0.0638 0.0585
H11M H 0.3685 0.0810 0.0453
C9M C 0.3232(6) 0.1663(5) 0.0999(3)
C10M C 0.4014(6) 0.2088(5) 0.1129(4)
H12M H 0.4582 0.1812 0.1052
C11M C 0.2422(8) 0.2062(6) 0.1123(4)
H13M H 0.1860 0.1773 0.1045
N1M N 0.4104(5) -0.1037(4) 0.1857(2)
N2M N 0.3528(4) -0.0078(4) 0.10209(18)
Ag1L Ag 0.5000 0.0000 0.14255(3)
N1A N 0.5896(5) 0.3963(4) 0.0643(2)
N2A N 0.6472(4) 0.4922(4) 0.14791(18)
Cl1 Cl 1.0000 0.5000 0.06235(17)
O1 O 0.9200(12) 0.4947(16) 0.0315(5)
O2 O 0.9431(15) 0.5313(14) 0.1030(7)
O1A O 1.0800(12) 0.5053(16) 0.0315(5)
O2A O 1.0569(15) 0.4687(14) 0.1030(7)
O3? O 0.960(4) 0.590(2) 0.056(2)
O4? O 1.0000 0.5000 0.1147(13)
O5? O 0.989(3) 0.4012(8) 0.0644(18)
loop_
_geom_bond_atom_site_label_1
_geom_bond_atom_site_label_2
_geom_bond_site_symmetry_1
_geom_bond_site_symmetry_2
Ag1 N1 1_555 1_555
C1 H1 1_555 1_555
C2 C1 1_555 1_555
H2 C2 1_555 1_555
C3 C2 1_555 1_555
H3 C3 1_555 1_555
C4 C3 1_555 1_555
H4 C4 1_555 1_555
C5 C4 1_555 1_555
C6 C5 1_555 1_555
H5 C6 1_555 1_555
H6 C6 1_555 1_555
C7 H7 1_555 1_555
H8 C7 1_555 1_555
H9 C7 1_555 1_555
C8 H10 1_555 1_555
H11 C8 1_555 1_555
C9 C8 1_555 1_555
C10 C9 1_555 1_555
H12 C10 1_555 1_555
C11 C9 1_555 1_555
H13 C11 1_555 1_555
N1 C1 1_555 1_555
N2 Ag1 1_555 1_555
Cl1 O1 1_555 1_555
O2 Cl1 1_555 1_555
C1M H1M 1_555 1_555
C2M C1M 1_555 1_555
H2M C2M 1_555 1_555
C3M C2M 1_555 1_555
H3M C3M 1_555 1_555
C4M C3M 1_555 1_555
H4M C4M 1_555 1_555
C5M C4M 1_555 1_555
C6M C5M 1_555 1_555
H5M C6M 1_555 1_555
H6M C6M 1_555 1_555
C7M H7M 1_555 1_555
H8M C7M 1_555 1_555
H9M C7M 1_555 1_555
C8M H10M 1_555 1_555
H11M C8M 1_555 1_555
C9M C8M 1_555 1_555
C10M C10 1_555 1_555
H12M C10M 1_555 1_555
C11M C11 1_555 1_555
H13M C11M 1_555 1_555
N1M C1M 1_555 1_555
N2M C6M 1_555 1_555
Ag1L N1M 1_555 1_555
N1A Ag1 1_555 1_555
N2A Ag1 1_555 1_555
O1A Cl1 1_555 1_555
O2A Cl1 1_555 1_555
C5 N1 1_555 1_555
C6 N2 1_555 1_555
C7 N2 1_555 1_555
C8 N2 1_555 1_555
C5M N1M 1_555 1_555
C7M N2M 1_555 1_555
C8M N2M 1_555 1_555
C9M C10M 1_555 1_555
C9M C11M 1_555 1_555
N2M Ag1L 1_555 1_555

#END
