
#######################################################################
#
#                 Cambridge Crystallographic Data Centre
#                                CCDC 
#
#######################################################################
#
# If this CIF has been generated from an entry in the Cambridge 
# Structural Database, then it will include bibliographic, chemical, 
# crystal, experimental, refinement or atomic coordinate data resulting 
# from the CCDC's data processing and validation procedures.
#
#######################################################################

data_NEWDAW
_symmetry_cell_setting           monoclinic
_symmetry_space_group_name_H-M   'C 2/c'
_symmetry_Int_Tables_number      15
_space_group_name_Hall           '-C 2yn'
loop_
_symmetry_equiv_pos_site_id
_symmetry_equiv_pos_as_xyz
1 x,y,z
2 -x,y,1/2-z
3 1/2+x,1/2+y,z
4 1/2-x,1/2+y,1/2-z
5 -x,-y,-z
6 x,-y,1/2+z
7 1/2-x,1/2-y,-z
8 1/2+x,1/2-y,1/2+z
_cell_length_a                   19.280(7)
_cell_length_b                   10.988(4)
_cell_length_c                   12.750(5)
_cell_angle_alpha                90
_cell_angle_beta                 107.587(7)
_cell_angle_gamma                90
_cell_volume                     2574.82
loop_
_atom_site_label
_atom_site_type_symbol
_atom_site_fract_x
_atom_site_fract_y
_atom_site_fract_z
Cd1 Cd 0.5000 0.65456(4) 0.2500
Cd2 Cd 0.5000 0.5000 0.5000
N1 N 0.3418(2) 0.9608(4) 0.1134(4)
N2 N 0.2971(2) 0.8617(4) 0.0955(4)
N3 N 0.4143(2) 0.8039(4) 0.1548(3)
N4 N 0.3720(2) 1.1752(4) 0.3379(4)
N5 N 0.4376(3) 1.1470(4) 0.3246(5)
N6 N 0.4403(2) 1.3321(4) 0.4020(4)
N7 N 0.5687(3) 0.5117(4) 0.3774(4)
N8 N 0.6186(3) 0.4559(4) 0.3691(4)
N9 N 0.6672(3) 0.4005(6) 0.3591(5)
N10 N 0.4295(3) 0.6385(4) 0.3692(4)
N11 N 0.4069(3) 0.7317(4) 0.3921(4)
N12 N 0.3840(4) 0.8233(5) 0.4125(5)
C1 C 0.3121(3) 1.0840(5) 0.1005(5)
H1 H 0.2812 1.0948 0.0254
H2 H 0.3517 1.1420 0.1137
C2 C 0.2683(3) 1.1095(5) 0.1791(5)
H3 H 0.2264 1.0559 0.1610
H4 H 0.2504 1.1925 0.1678
C3 C 0.3101(3) 1.0932(5) 0.2995(5)
H5 H 0.2774 1.1064 0.3431
H6 H 0.3274 1.0099 0.3114
C4 C 0.3433(3) 0.7718(5) 0.1219(5)
H7 H 0.3284 0.6910 0.1184
C5 C 0.4103(3) 0.9242(5) 0.1464(4)
H8 H 0.4503 0.9758 0.1618
C6 C 0.4757(3) 1.2435(5) 0.3655(5)
H9 H 0.5245 1.2507 0.3693
C7 C 0.3755(3) 1.2860(5) 0.3826(4)
H10 H 0.3368 1.3249 0.3977
N1A N 0.6582(2) 0.9608(4) 0.3866(4)
N2A N 0.7029(2) 0.8617(4) 0.4045(4)
N3A N 0.5857(2) 0.8039(4) 0.3452(3)
N4A N 0.6280(2) 1.1752(4) 0.1621(4)
N5A N 0.5624(3) 1.1470(4) 0.1754(5)
N6A N 0.5597(2) 1.3321(4) 0.0980(4)
N7A N 0.4313(3) 0.5117(4) 0.1226(4)
N8A N 0.3814(3) 0.4559(4) 0.1309(4)
N9A N 0.3328(3) 0.4005(6) 0.1409(5)
N10A N 0.5705(3) 0.6385(4) 0.1308(4)
N11A N 0.5931(3) 0.7317(4) 0.1079(4)
N12A N 0.6160(4) 0.8233(5) 0.0875(5)
C1A C 0.6879(3) 1.0840(5) 0.3995(5)
H1A H 0.7188 1.0948 0.4746
H2A H 0.6483 1.1420 0.3863
C2A C 0.7317(3) 1.1095(5) 0.3209(5)
H3A H 0.7736 1.0559 0.3390
H4A H 0.7496 1.1925 0.3322
C3A C 0.6899(3) 1.0932(5) 0.2005(5)
H5A H 0.7226 1.1064 0.1569
H6A H 0.6726 1.0099 0.1886
C4A C 0.6567(3) 0.7718(5) 0.3781(5)
H7A H 0.6716 0.6910 0.3816
C5A C 0.5897(3) 0.9242(5) 0.3536(4)
H8A H 0.5497 0.9758 0.3382
C6A C 0.5243(3) 1.2435(5) 0.1345(5)
H9A H 0.4755 1.2507 0.1307
C7A C 0.6245(3) 1.2860(5) 0.1174(4)
H10A H 0.6632 1.3249 0.1023
Cd2_2 Cd 0.5000 1.5000 0.5000
Cd2A Cd 0.5000 0.5000 0.0000
Cd2A_2 Cd 0.5000 1.5000 0.0000
N6_2 N 0.4403(2) 0.3321(4) 0.4020(4)
N6D N 0.5597(2) 0.6679(4) 0.5980(4)
N7D N 0.4313(3) 0.4883(4) 0.6226(4)
N10D N 0.5705(3) 0.3615(4) 0.6308(4)
loop_
_geom_bond_atom_site_label_1
_geom_bond_atom_site_label_2
_geom_bond_site_symmetry_1
_geom_bond_site_symmetry_2
Cd1 N3 1_555 1_555
Cd2 N7 1_555 1_555
N1 N2 1_555 1_555
N2 C4 1_555 1_555
N3 C4 1_555 1_555
N4 N5 1_555 1_555
N5 C6 1_555 1_555
N6 C6 1_555 1_555
N7 Cd1 1_555 1_555
N8 N7 1_555 1_555
N9 N8 1_555 1_555
N10 Cd1 1_555 1_555
N11 N10 1_555 1_555
N12 N11 1_555 1_555
C1 N1 1_555 1_555
H1 C1 1_555 1_555
H2 C1 1_555 1_555
C2 C1 1_555 1_555
H3 C2 1_555 1_555
H4 C2 1_555 1_555
C3 N4 1_555 1_555
H5 C3 1_555 1_555
H6 C3 1_555 1_555
C4 H7 1_555 1_555
C5 N1 1_555 1_555
H8 C5 1_555 1_555
C6 H9 1_555 1_555
C7 N4 1_555 1_555
H10 C7 1_555 1_555
N1A N2A 1_555 1_555
N2A C4A 1_555 1_555
N3A Cd1 1_555 1_555
N4A N5A 1_555 1_555
N5A C6A 1_555 1_555
N6A C6A 1_555 1_555
N7A Cd1 1_555 1_555
N8A N7A 1_555 1_555
N9A N8A 1_555 1_555
N10A Cd1 1_555 1_555
N11A N10A 1_555 1_555
N12A N11A 1_555 1_555
C1A N1A 1_555 1_555
H1A C1A 1_555 1_555
H2A C1A 1_555 1_555
C2A C1A 1_555 1_555
H3A C2A 1_555 1_555
H4A C2A 1_555 1_555
C3A N4A 1_555 1_555
H5A C3A 1_555 1_555
H6A C3A 1_555 1_555
C4A N3A 1_555 1_555
H7A C4A 1_555 1_555
C5A N1A 1_555 1_555
H8A C5A 1_555 1_555
C6A H9A 1_555 1_555
C7A N4A 1_555 1_555
H10A C7A 1_555 1_555
Cd2_2 N6 1_555 1_555
Cd2A N7A 1_555 1_555
Cd2A_2 N6A 1_555 1_555
N6_2 Cd2 1_555 1_555
N6D Cd2 1_555 1_555
N7D Cd2 1_555 1_555
N10D Cd2 1_555 1_555
Cd2 N10 1_555 1_555
N3 C5 1_555 1_555
N6 C7 1_555 1_555
C2 C3 1_555 1_555
N3A C5A 1_555 1_555
N6A C7A 1_555 1_555
N10A Cd2A 1_555 1_555
C2A C3A 1_555 1_555

#END
