
#######################################################################
#
#                 Cambridge Crystallographic Data Centre
#                                CCDC 
#
#######################################################################
#
# If this CIF has been generated from an entry in the Cambridge 
# Structural Database, then it will include bibliographic, chemical, 
# crystal, experimental, refinement or atomic coordinate data resulting 
# from the CCDC's data processing and validation procedures.
#
#######################################################################

data_NEWPUB
_symmetry_cell_setting           monoclinic
_symmetry_space_group_name_H-M   'C 2/c'
_symmetry_Int_Tables_number      15
_space_group_name_Hall           '-C 2yn'
loop_
_symmetry_equiv_pos_site_id
_symmetry_equiv_pos_as_xyz
1 x,y,z
2 1/2+x,1/2+y,z
3 -x,y,1/2-z
4 1/2-x,1/2+y,1/2-z
5 -x,-y,-z
6 1/2-x,1/2-y,-z
7 x,-y,1/2+z
8 1/2+x,1/2-y,1/2+z
_cell_length_a                   17.13040(10)
_cell_length_b                   9.5611(2)
_cell_length_c                   14.0137(2)
_cell_angle_alpha                90
_cell_angle_beta                 115.96
_cell_angle_gamma                90
_cell_volume                     2063.65
loop_
_atom_site_label
_atom_site_type_symbol
_atom_site_fract_x
_atom_site_fract_y
_atom_site_fract_z
Cd1 Cd 0.5000 0.50513(3) 0.2500
Cd2 Cd 0.259574(15) 0.74404(2) 0.204250(18)
O1 O 0.53405(15) 0.6856(2) 0.37146(18)
O2 O 0.34663(16) 0.8719(3) 0.14349(19)
H1 H 0.3211 0.8801 0.0788
H2 H 0.3961 0.8397 0.1441
O3 O 0.39338(14) 0.6497(2) 0.30988(17)
O4 O 0.16199(16) 0.8989(3) 0.0802(2)
H3 H 0.1154 0.8960 0.0835
H4 H 0.144(3) 0.880(5) 0.015(3)
O5 O 0.1598(2) 0.6643(3) 0.2568(3)
H5 H 0.1465 0.7274 0.2866
H6 H 0.159(4) 0.589(7) 0.282(5)
O6 O 0.39730(17) 0.6553(3) 0.6422(2)
O7 O 0.50306(17) 0.6194(3) 0.5978(2)
O8 O 0.27659(17) 1.0851(2) 0.42806(18)
O9 O 0.26871(17) 0.9408(3) 0.30140(18)
C1 C 0.4616(2) 0.7122(3) 0.3713(2)
C2 C 0.4585(2) 0.8266(3) 0.4447(2)
H7 H 0.5171 0.8444 0.4983
H8 H 0.4373 0.9118 0.4039
C3 C 0.4018(2) 0.7927(3) 0.4996(2)
C4 C 0.4365(2) 0.6822(3) 0.5856(2)
C5 C 0.3279(2) 0.8565(3) 0.4794(3)
H9 H 0.2988 0.8313 0.5194
C6 C 0.2879(2) 0.9669(3) 0.3965(2)
Cd1F Cd 0.5000 0.49487(3) 0.7500
Cd1F_2 Cd 0.5000 0.49487(3) -0.2500
Cd2B Cd 0.740426(15) 0.74404(2) 0.295750(18)
Cd2C Cd 0.240426(15) 1.24404(2) 0.295750(18)
Cd2A Cd 0.759574(15) 1.24404(2) 0.204250(18)
O1B O 0.46595(15) 0.6856(2) 0.12854(18)
O2B O 0.65337(16) 0.8719(3) 0.35651(19)
H1B H 0.6789 0.8801 0.4212
H2B H 0.6039 0.8397 0.3559
O3B O 0.60662(14) 0.6497(2) 0.19012(17)
O4B O 0.83801(16) 0.8989(3) 0.4198(2)
H3B H 0.8846 0.8960 0.4165
H4B H 0.856(3) 0.880(5) 0.485(3)
O5B O 0.8402(2) 0.6643(3) 0.2432(3)
H5B H 0.8535 0.7274 0.2134
H6B H 0.841(4) 0.589(7) 0.218(5)
O6B O 0.60270(17) 0.6553(3) -0.1422(2)
O6F O 0.39730(17) 0.3447(3) 0.1422(2)
O6D O 0.60270(17) 0.3447(3) 0.3578(2)
O7B O 0.49694(17) 0.6194(3) -0.0978(2)
O7F O 0.50306(17) 0.3806(3) 0.0978(2)
O7D O 0.49694(17) 0.3806(3) 0.4022(2)
O8B O 0.72341(17) 1.0851(2) 0.07194(18)
O8C O 0.22341(17) 0.5851(2) 0.07194(18)
O8A O 0.77659(17) 0.5851(2) 0.42806(18)
O9B O 0.73129(17) 0.9408(3) 0.19860(18)
C1B C 0.5384(2) 0.7122(3) 0.1287(2)
C2B C 0.5415(2) 0.8266(3) 0.0553(2)
H7B H 0.4829 0.8444 0.0017
H8B H 0.5627 0.9118 0.0961
C3B C 0.5982(2) 0.7927(3) 0.0004(2)
C4B C 0.5635(2) 0.6822(3) -0.0856(2)
C5B C 0.6721(2) 0.8565(3) 0.0206(3)
H9B H 0.7012 0.8313 -0.0194
C6B C 0.7121(2) 0.9669(3) 0.1035(2)
loop_
_geom_bond_atom_site_label_1
_geom_bond_atom_site_label_2
_geom_bond_site_symmetry_1
_geom_bond_site_symmetry_2
Cd1 O1 1_555 1_555
Cd2 O2 1_555 1_555
O1 C1 1_555 1_555
O2 H1 1_555 1_555
H2 O2 1_555 1_555
O3 Cd2 1_555 1_555
O4 Cd2 1_555 1_555
H3 O4 1_555 1_555
H4 O4 1_555 1_555
O5 Cd2 1_555 1_555
H5 O5 1_555 1_555
H6 O5 1_555 1_555
O6 C4 1_555 1_555
O7 C4 1_555 1_555
O8 C6 1_555 1_555
O9 Cd2 1_555 1_555
C1 O3 1_555 1_555
C2 C1 1_555 1_555
H7 C2 1_555 1_555
H8 C2 1_555 1_555
C3 C2 1_555 1_555
C4 C3 1_555 1_555
C5 C3 1_555 1_555
H9 C5 1_555 1_555
C6 O9 1_555 1_555
Cd1F O6 1_555 1_555
Cd1F_2 O6B 1_555 1_555
Cd2B O2B 1_555 1_555
Cd2C O8 1_555 1_555
Cd2A O8B 1_555 1_555
O1B Cd1 1_555 1_555
O2B H1B 1_555 1_555
H2B O2B 1_555 1_555
O3B Cd2B 1_555 1_555
O4B Cd2B 1_555 1_555
H3B O4B 1_555 1_555
H4B O4B 1_555 1_555
O5B Cd2B 1_555 1_555
H5B O5B 1_555 1_555
H6B O5B 1_555 1_555
O6B C4B 1_555 1_555
O6F Cd1 1_555 1_555
O6D Cd1 1_555 1_555
O7B Cd1F_2 1_555 1_555
O7F Cd1 1_555 1_555
O7D Cd1 1_555 1_555
O8B C6B 1_555 1_555
O8C Cd2 1_555 1_555
O8A Cd2B 1_555 1_555
O9B Cd2B 1_555 1_555
C1B O1B 1_555 1_555
C2B C1B 1_555 1_555
H7B C2B 1_555 1_555
H8B C2B 1_555 1_555
C3B C2B 1_555 1_555
C4B O7B 1_555 1_555
C5B C3B 1_555 1_555
H9B C5B 1_555 1_555
C6B O9B 1_555 1_555
O7 Cd1F 1_555 1_555
C5 C6 1_555 1_555
O3B C1B 1_555 1_555
C3B C4B 1_555 1_555
C5B C6B 1_555 1_555

#END
