
#######################################################################
#
#                 Cambridge Crystallographic Data Centre
#                                CCDC 
#
#######################################################################
#
# If this CIF has been generated from an entry in the Cambridge 
# Structural Database, then it will include bibliographic, chemical, 
# crystal, experimental, refinement or atomic coordinate data resulting 
# from the CCDC's data processing and validation procedures.
#
#######################################################################

data_NEWPUB02
_symmetry_cell_setting           monoclinic
_symmetry_space_group_name_H-M   'C 2/c'
_symmetry_Int_Tables_number      15
_space_group_name_Hall           '-C 2yn'
loop_
_symmetry_equiv_pos_site_id
_symmetry_equiv_pos_as_xyz
1 x,y,z
2 -x,y,1/2-z
3 1/2+x,1/2+y,z
4 1/2-x,1/2+y,1/2-z
5 -x,-y,-z
6 x,-y,1/2+z
7 1/2-x,1/2-y,-z
8 1/2+x,1/2-y,1/2+z
_cell_length_a                   16.9640(19)
_cell_length_b                   9.5416(8)
_cell_length_c                   14.0203(15)
_cell_angle_alpha                90
_cell_angle_beta                 115.982(12)
_cell_angle_gamma                90
_cell_volume                     2040.02
loop_
_atom_site_label
_atom_site_type_symbol
_atom_site_fract_x
_atom_site_fract_y
_atom_site_fract_z
Cd1 Cd 0.00000 0.50808(3) -0.25000
Cd2 Cd 0.24138(1) 0.25591(2) 0.29540(2)
O1 O -0.00247(14) 0.3843(2) -0.09670(17)
O2 O 0.10293(14) 0.3451(2) -0.14389(17)
O3 O -0.03512(13) 0.3109(2) 0.12785(16)
O4 O 0.10613(13) 0.3491(2) 0.19001(16)
O5 O 0.22458(14) -0.0868(2) 0.07063(16)
O6 O 0.34459(19) 0.3379(2) 0.24855(19)
H1 H 0.3408 0.4229 0.2262
H2 H 0.3704 0.2833 0.2181
O7 O 0.33868(14) 0.1016(2) 0.42144(16)
H3 H 0.3774 0.0411 0.4127
H4 H 0.3699 0.1437 0.4877
O8 O 0.23354(14) 0.0594(2) 0.19863(15)
O9 O 0.15400(14) 0.1234(2) 0.35442(16)
H5 H 0.1133 0.1736 0.3471
H6 H 0.1874 0.1048 0.4309
C1 C 0.0641(2) 0.3191(3) -0.0856(2)
C2 C 0.0988(2) 0.2078(3) -0.0004(2)
C3 C 0.03803(19) 0.2861(3) 0.1284(2)
C4 C 0.04119(19) 0.1723(3) 0.0539(2)
H7 H 0.0630 0.0846 0.0949
H8 H -0.0192 0.1546 -0.0011
C5 C 0.21331(19) 0.0331(3) 0.1026(2)
C6 C 0.1733(2) 0.1430(3) 0.0190(2)
H9 H 0.2030 0.1676 -0.0224
Cd1D Cd 0.00000 0.49192(3) 0.25000
Cd1D_2 Cd 0.00000 0.49192(3) -0.75000
Cd2A Cd -0.24138(1) 0.25591(2) -0.79540(2)
Cd2C Cd 0.25862(1) -0.24409(2) 0.20460(2)
Cd2B Cd -0.25862(1) -0.24409(2) -0.70460(2)
O1A O 0.00247(14) 0.3843(2) -0.40330(17)
O2A O -0.10293(14) 0.3451(2) -0.35611(17)
O3A O 0.03512(13) 0.3109(2) -0.62785(16)
O3D O 0.03512(13) 0.6891(2) -0.12785(16)
O3E O -0.03512(13) 0.6891(2) -0.37215(16)
O4A O -0.10613(13) 0.3491(2) -0.69001(16)
O4D O -0.10613(13) 0.6509(2) -0.19001(16)
O4E O 0.10613(13) 0.6509(2) -0.30999(16)
O5A O -0.22458(14) -0.0868(2) -0.57063(16)
O5C O 0.27542(14) 0.4132(2) 0.42937(16)
O5B O -0.27542(14) 0.4132(2) -0.92937(16)
O6A O -0.34459(19) 0.3379(2) -0.74855(19)
H1A H -0.3408 0.4229 -0.7262
H2A H -0.3704 0.2833 -0.7181
O7A O -0.33868(14) 0.1016(2) -0.92144(16)
H3A H -0.3774 0.0411 -0.9127
H4A H -0.3699 0.1437 -0.9877
O8A O -0.23354(14) 0.0594(2) -0.69863(15)
O9A O -0.15400(14) 0.1234(2) -0.85442(16)
H5A H -0.1133 0.1736 -0.8471
H6A H -0.1874 0.1048 -0.9309
C1A C -0.0641(2) 0.3191(3) -0.4144(2)
C2A C -0.0988(2) 0.2078(3) -0.4996(2)
C3A C -0.03803(19) 0.2861(3) -0.6284(2)
C4A C -0.04119(19) 0.1723(3) -0.5539(2)
H7A H -0.0630 0.0846 -0.5949
H8A H 0.0192 0.1546 -0.4989
C5A C -0.21331(19) 0.0331(3) -0.6026(2)
C6A C -0.1733(2) 0.1430(3) -0.5190(2)
H9A H -0.2030 0.1676 -0.4776
loop_
_geom_bond_atom_site_label_1
_geom_bond_atom_site_label_2
_geom_bond_site_symmetry_1
_geom_bond_site_symmetry_2
Cd1 O1 1_555 1_555
Cd2 O4 1_555 1_555
O1 C1 1_555 1_555
O2 Cd1 1_555 1_555
O3 C3 1_555 1_555
O4 C3 1_555 1_555
O5 C5 1_555 1_555
O6 Cd2 1_555 1_555
H1 O6 1_555 1_555
H2 O6 1_555 1_555
O7 Cd2 1_555 1_555
H3 O7 1_555 1_555
H4 O7 1_555 1_555
O8 Cd2 1_555 1_555
O9 Cd2 1_555 1_555
H5 O9 1_555 1_555
H6 O9 1_555 1_555
C1 O2 1_555 1_555
C2 C1 1_555 1_555
C3 C4 1_555 1_555
C4 C2 1_555 1_555
H7 C4 1_555 1_555
H8 C4 1_555 1_555
C5 O8 1_555 1_555
C6 C2 1_555 1_555
H9 C6 1_555 1_555
Cd1D O3 1_555 1_555
Cd1D_2 O3A 1_555 1_555
Cd2A O4A 1_555 1_555
Cd2C O5 1_555 1_555
Cd2B O5A 1_555 1_555
O1A Cd1 1_555 1_555
O2A Cd1 1_555 1_555
O3A C3A 1_555 1_555
O3D Cd1 1_555 1_555
O3E Cd1 1_555 1_555
O4A Cd1D_2 1_555 1_555
O4D Cd1 1_555 1_555
O4E Cd1 1_555 1_555
O5A C5A 1_555 1_555
O5C Cd2 1_555 1_555
O5B Cd2A 1_555 1_555
O6A Cd2A 1_555 1_555
H1A O6A 1_555 1_555
H2A O6A 1_555 1_555
O7A Cd2A 1_555 1_555
H3A O7A 1_555 1_555
H4A O7A 1_555 1_555
O8A Cd2A 1_555 1_555
O9A Cd2A 1_555 1_555
H5A O9A 1_555 1_555
H6A O9A 1_555 1_555
C1A O1A 1_555 1_555
C2A C1A 1_555 1_555
C3A O4A 1_555 1_555
C4A C2A 1_555 1_555
H7A C4A 1_555 1_555
H8A C4A 1_555 1_555
C5A O8A 1_555 1_555
C6A C2A 1_555 1_555
H9A C6A 1_555 1_555
O4 Cd1D 1_555 1_555
C5 C6 1_555 1_555
O2A C1A 1_555 1_555
C3A C4A 1_555 1_555
C5A C6A 1_555 1_555

#END
