
#######################################################################
#
#                 Cambridge Crystallographic Data Centre
#                                CCDC 
#
#######################################################################
#
# If this CIF has been generated from an entry in the Cambridge 
# Structural Database, then it will include bibliographic, chemical, 
# crystal, experimental, refinement or atomic coordinate data resulting 
# from the CCDC's data processing and validation procedures.
#
#######################################################################

data_NEWRAK
_symmetry_cell_setting           triclinic
_symmetry_space_group_name_H-M   'P -1'
_symmetry_Int_Tables_number      2
_space_group_name_Hall           '-P 1'
loop_
_symmetry_equiv_pos_site_id
_symmetry_equiv_pos_as_xyz
1 x,y,z
2 -x,-y,-z
_cell_length_a                   17.079(2)
_cell_length_b                   17.256(2)
_cell_length_c                   20.330(3)
_cell_angle_alpha                114.087(5)
_cell_angle_beta                 97.216(4)
_cell_angle_gamma                111.397(5)
_cell_volume                     4819.96
loop_
_atom_site_label
_atom_site_type_symbol
_atom_site_fract_x
_atom_site_fract_y
_atom_site_fract_z
Cl2 Cl 0.8410(2) 0.6321(3) 1.6004(2)
Cl3 Cl 0.6179(6) 0.0757(6) 1.3977(6)
Cl4 Cl 0.4277(4) -0.5886(3) 1.1097(3)
O1 O 0.3426(6) 0.0797(7) 1.4706(5)
O2 O 0.4331(6) 0.1755(7) 1.0247(5)
O3 O 0.2734(7) -0.0782(7) 0.9073(5)
O4 O 0.2687(6) 0.1999(6) 1.0210(5)
O5 O 0.0983(6) -0.2000(7) 1.3650(5)
O6 O 0.2861(7) -0.1750(7) 1.3867(5)
O7 O 0.1410(6) 0.0140(7) 0.9198(5)
O8 O 0.3538(6) -0.0506(8) 1.3343(5)
O9 O 0.3969(6) 0.0537(7) 0.8756(5)
O10 O 0.1329(7) -0.0084(9) 1.4147(7)
Er1 Er 0.29328(3) 0.07315(4) 0.93799(3)
Er2 Er 0.23228(3) -0.07199(4) 1.38164(3)
C1 C 0.2554(7) 0.0654(7) 1.0988(6)
C2 C 0.1500(8) 0.0250(8) 1.1584(7)
H1 H 0.0903 0.0206 1.1442
C3 C 0.2232(7) 0.1296(8) 1.2113(6)
H2 H 0.1982 0.1754 1.2230
C4 C 0.2157(7) 0.0415(8) 1.2742(7)
C5 C 0.3520(8) 0.2358(8) 1.1881(6)
H3 H 0.3309 0.2838 1.2076
H4 H 0.3665 0.2341 1.1426
C6 C 0.3176(8) 0.2148(9) 1.3516(7)
H5 H 0.2998 0.2646 1.3576
H6 H 0.3094 0.2009 1.3931
C7 C 0.5078(8) 0.2651(9) 1.2310(7)
C8 C 0.4463(7) 0.3153(8) 1.3257(6)
H7 H 0.4288 0.3672 1.3393
C9 C 0.5488(8) 0.3522(9) 1.3628(7)
H8 H 0.5813 0.4229 1.3905
C10 C 0.4726(8) 0.2573(8) 1.4109(7)
C11 C 0.6700(7) 0.3513(9) 1.3020(7)
H9 H 0.6732 0.3361 1.2508
H10 H 0.6984 0.4211 1.3334
C12 C 0.6331(8) 0.3509(9) 1.4740(7)
H11 H 0.6156 0.3332 1.5120
H12 H 0.6635 0.4208 1.4988
C13 C 0.7534(9) 0.2601(9) 1.2929(7)
C14 C 0.7579(7) 0.3542(8) 1.4146(7)
H13 H 0.7875 0.4249 1.4425
C15 C 0.8235(8) 0.3149(8) 1.4202(7)
H14 H 0.8856 0.3661 1.4469
C16 C 0.7168(7) 0.2680(9) 1.4779(7)
C17 C 0.8664(8) 0.2116(8) 1.3153(7)
H15 H 0.9281 0.2601 1.3454
H16 H 0.8593 0.1945 1.2619
C18 C 0.8489(7) 0.2357(8) 1.4959(6)
H17 H 0.9114 0.2828 1.5139
H18 H 0.8328 0.2351 1.5404
C19 C 0.8210(7) 0.0412(8) 1.2591(6)
C20 C 0.8875(7) 0.1280(8) 1.3896(6)
H19 H 0.9515 0.1738 1.4138
C21 C 0.8712(7) 0.0236(8) 1.3615(6)
H20 H 0.9269 0.0197 1.3748
C22 C 0.7981(7) 0.0606(8) 1.4492(6)
C23 C 0.8226(5) -0.1127(5) 1.2255(6)
H21 H 0.8669 -0.1264 1.2476
H22 H 0.8330 -0.1112 1.1796
C24 C 0.7743(8) -0.1039(8) 1.3883(7)
H23 H 0.7563 -0.1031 1.4324
H24 H 0.8215 -0.1234 1.3870
C25 C 0.6639(8) -0.2196(8) 1.1416(7)
C26 C 0.7045(7) -0.2355(8) 1.2489(7)
H25 H 0.7412 -0.2667 1.2554
C27 C 0.6069(8) -0.3095(8) 1.2009(6)
H26 H 0.5964 -0.3761 1.1836
C28 C 0.6130(7) -0.2044(8) 1.3221(6)
C29 C 0.5155(7) -0.3541(9) 1.0696(6)
H27 H 0.5030 -0.4203 1.0541
H28 H 0.5301 -0.3415 1.0287
C30 C 0.4666(7) -0.3433(8) 1.2418(7)
H29 H 0.4580 -0.4091 1.2210
H30 H 0.4573 -0.3243 1.2915
C31 C 0.3964(7) -0.3169(10) 1.0373(7)
C32 C 0.3772(7) -0.3925(8) 1.1092(6)
H31 H 0.3690 -0.4587 1.0897
C33 C 0.2900(8) -0.3913(7) 1.0812(6)
H32 H 0.2413 -0.4566 1.0465
C34 C 0.3394(8) -0.3190(10) 1.2157(7)
C35 C 0.2441(7) -0.3383(8) 0.9886(6)
H33 H 0.1975 -0.4044 0.9562
H34 H 0.2713 -0.3166 0.9557
C36 C 0.1867(7) -0.3500(9) 1.1540(7)
H35 H 0.1412 -0.4155 1.1175
H36 H 0.1833 -0.3373 1.2048
C37 C 0.2150(8) -0.2014(8) 1.0180(6)
C38 C 0.1348(7) -0.3045(8) 1.0578(6)
H37 H 0.0882 -0.3712 1.0236
C39 C 0.0981(7) -0.2321(8) 1.0687(7)
H38 H 0.0346 -0.2639 1.0381
C40 C 0.1499(7) -0.2171(8) 1.1870(6)
C41 C 0.1368(8) -0.1055(9) 1.0291(7)
H39 H 0.0725 -0.1278 1.0137
H40 H 0.1565 -0.1043 0.9861
C42 C 0.0813(6) -0.1126(5) 1.1847(7)
H41 H 0.0274 -0.1264 1.1491
H42 H 0.0686 -0.1112 1.2307
N1 N 0.1794(6) -0.0091(7) 1.0927(5)
N2 N 0.2816(6) 0.1426(6) 1.1675(5)
N3 N 0.1569(5) -0.0175(5) 1.2044(5)
N4 N 0.2588(6) 0.1274(6) 1.2783(5)
N5 N 0.4336(6) 0.2639(7) 1.2468(6)
N6 N 0.5769(6) 0.3124(8) 1.2980(6)
N7 N 0.4076(6) 0.2499(7) 1.3581(5)
N8 N 0.5547(7) 0.3150(8) 1.4132(5)
N9 N 0.7170(7) 0.3155(7) 1.3327(6)
N10 N 0.8081(7) 0.2530(7) 1.3396(5)
N11 N 0.6947(6) 0.3145(7) 1.4484(5)
N12 N 0.7941(7) 0.2652(8) 1.4604(6)
N13 N 0.8503(6) 0.1271(7) 1.3228(5)
N14 N 0.8329(6) -0.0174(6) 1.2817(5)
N15 N 0.8387(6) 0.1414(7) 1.4444(5)
N16 N 0.8107(6) -0.0083(7) 1.4000(5)
N17 N 0.7313(5) -0.1898(6) 1.2047(5)
N18 N 0.5918(6) -0.2907(7) 1.1381(6)
N19 N 0.6996(6) -0.1751(7) 1.3207(5)
N20 N 0.5589(6) -0.2805(7) 1.2530(5)
N21 N 0.4346(6) -0.3438(7) 1.0786(5)
N22 N 0.3116(6) -0.3355(7) 1.0428(5)
N23 N 0.4020(6) -0.3412(7) 1.1929(5)
N24 N 0.2719(6) -0.3436(7) 1.1519(6)
N25 N 0.2037(6) -0.2780(7) 1.0268(6)
N26 N 0.1540(6) -0.1713(7) 1.0439(6)
N27 N 0.1671(6) -0.2859(7) 1.1367(5)
N28 N 0.1113(6) -0.1883(6) 1.1484(5)
O11 O 0.2920(5) 0.0573(6) 1.0497(4)
O12 O 0.5166(6) 0.2313(8) 1.1674(5)
O13 O 0.7341(7) 0.2210(7) 1.2225(5)
O14 O 0.7868(6) 0.0199(5) 1.1930(5)
O15 O 0.6704(5) -0.1900(6) 1.0974(5)
O16 O 0.4256(6) -0.2785(7) 0.9999(6)
O17 O 0.2677(6) -0.1647(6) 0.9922(5)
O18 O 0.2318(5) 0.0220(6) 1.3236(5)
O19 O 0.4568(7) 0.2189(8) 1.4502(5)
O20 O 0.6857(6) 0.2346(8) 1.5162(6)
O21 O 0.7566(5) 0.0554(6) 1.4946(4)
O22 O 0.5903(6) -0.1694(6) 1.3763(5)
O23 O 0.3357(6) -0.2845(7) 1.2808(5)
O24 O 0.1673(6) -0.1893(6) 1.2545(5)
Er1A Er 0.70672(3) -0.07315(4) 1.06201(3)
Er2A Er 0.76772(3) 0.07199(4) 1.61836(3)
O14A O 0.2132(6) -0.0199(5) 0.8070(5)
O15A O 0.3296(5) 0.1900(6) 0.9026(5)
O21A O 0.2434(5) -0.0554(6) 1.5054(4)
Cd1 Cd 0.14693(6) 0.34238(7) 0.88531(6)
Cl5 Cl 0.0813(2) 0.2459(3) 0.7466(2)
Cl6 Cl 0.0633(2) 0.4308(3) 0.9305(3)
Cl7 Cl 0.1273(2) 0.2442(3) 0.9484(2)
Cl8 Cl 0.3060(2) 0.4430(3) 0.9165(2)
Cl1 Cl 0.4418(5) 0.0698(5) 1.1578(4)
loop_
_geom_bond_atom_site_label_1
_geom_bond_atom_site_label_2
_geom_bond_site_symmetry_1
_geom_bond_site_symmetry_2
O1 Er2 1_555 1_555
O2 Er1 1_555 1_555
O3 Er1 1_555 1_555
O4 Er1 1_555 1_555
O5 Er2 1_555 1_555
O6 Er2 1_555 1_555
O7 Er1 1_555 1_555
O8 Er2 1_555 1_555
O9 Er1 1_555 1_555
O10 Er2 1_555 1_555
Er1 O11 1_555 1_555
Er2 O18 1_555 1_555
C1 N1 1_555 1_555
C2 H1 1_555 1_555
C3 C2 1_555 1_555
H2 C3 1_555 1_555
C4 N3 1_555 1_555
C5 H3 1_555 1_555
H4 C5 1_555 1_555
C6 H5 1_555 1_555
H6 C6 1_555 1_555
C7 N5 1_555 1_555
C8 H7 1_555 1_555
C9 C8 1_555 1_555
H8 C9 1_555 1_555
C10 N7 1_555 1_555
C11 H9 1_555 1_555
H10 C11 1_555 1_555
C12 H11 1_555 1_555
H12 C12 1_555 1_555
C13 N9 1_555 1_555
C14 H13 1_555 1_555
C15 C14 1_555 1_555
H14 C15 1_555 1_555
C16 N11 1_555 1_555
C17 H15 1_555 1_555
H16 C17 1_555 1_555
C18 H17 1_555 1_555
H18 C18 1_555 1_555
C19 N13 1_555 1_555
C20 H19 1_555 1_555
C21 C20 1_555 1_555
H20 C21 1_555 1_555
C22 N15 1_555 1_555
C23 H21 1_555 1_555
H22 C23 1_555 1_555
C24 H23 1_555 1_555
H24 C24 1_555 1_555
C25 N17 1_555 1_555
C26 H25 1_555 1_555
C27 C26 1_555 1_555
H26 C27 1_555 1_555
C28 N19 1_555 1_555
C29 H27 1_555 1_555
H28 C29 1_555 1_555
C30 H29 1_555 1_555
H30 C30 1_555 1_555
C31 N21 1_555 1_555
C32 H31 1_555 1_555
C33 C32 1_555 1_555
H32 C33 1_555 1_555
C34 N23 1_555 1_555
C35 H33 1_555 1_555
H34 C35 1_555 1_555
C36 H35 1_555 1_555
H36 C36 1_555 1_555
C37 N25 1_555 1_555
C38 H37 1_555 1_555
C39 C38 1_555 1_555
H38 C39 1_555 1_555
C40 N27 1_555 1_555
C41 H39 1_555 1_555
H40 C41 1_555 1_555
C42 H41 1_555 1_555
H42 C42 1_555 1_555
N1 C2 1_555 1_555
N2 C1 1_555 1_555
N3 C2 1_555 1_555
N4 C3 1_555 1_555
N5 C5 1_555 1_555
N6 C7 1_555 1_555
N7 C6 1_555 1_555
N8 C9 1_555 1_555
N9 C11 1_555 1_555
N10 C13 1_555 1_555
N11 C12 1_555 1_555
N12 C15 1_555 1_555
N13 C17 1_555 1_555
N14 C19 1_555 1_555
N15 C18 1_555 1_555
N16 C21 1_555 1_555
N17 C23 1_555 1_555
N18 C25 1_555 1_555
N19 C24 1_555 1_555
N20 C27 1_555 1_555
N21 C29 1_555 1_555
N22 C31 1_555 1_555
N23 C30 1_555 1_555
N24 C33 1_555 1_555
N25 C35 1_555 1_555
N26 C37 1_555 1_555
N27 C36 1_555 1_555
N28 C39 1_555 1_555
O11 C1 1_555 1_555
O12 C7 1_555 1_555
O13 C13 1_555 1_555
O14 C19 1_555 1_555
O15 C25 1_555 1_555
O16 C31 1_555 1_555
O17 C37 1_555 1_555
O18 C4 1_555 1_555
O19 C10 1_555 1_555
O20 C16 1_555 1_555
O21 C22 1_555 1_555
O22 C28 1_555 1_555
O23 C34 1_555 1_555
O24 Er2 1_555 1_555
Cd1 Cl5 1_555 1_555
Cl6 Cd1 1_555 1_555
Cl7 Cd1 1_555 1_555
Cl8 Cd1 1_555 1_555
Er1A O14 1_555 1_555
Er2A O21 1_555 1_555
O14A Er1 1_555 1_555
O15A Er1 1_555 1_555
O21A Er2 1_555 1_555
C3 N2 1_555 1_555
C4 N4 1_555 1_555
C5 N2 1_555 1_555
C6 N4 1_555 1_555
C8 N5 1_555 1_555
C8 N7 1_555 1_555
C9 N6 1_555 1_555
C10 N8 1_555 1_555
C11 N6 1_555 1_555
C12 N8 1_555 1_555
C14 N9 1_555 1_555
C14 N11 1_555 1_555
C15 N10 1_555 1_555
C16 N12 1_555 1_555
C17 N10 1_555 1_555
C18 N12 1_555 1_555
C20 N13 1_555 1_555
C20 N15 1_555 1_555
C21 N14 1_555 1_555
C22 N16 1_555 1_555
C23 N14 1_555 1_555
C24 N16 1_555 1_555
C26 N17 1_555 1_555
C26 N19 1_555 1_555
C27 N18 1_555 1_555
C28 N20 1_555 1_555
C29 N18 1_555 1_555
C30 N20 1_555 1_555
C32 N21 1_555 1_555
C32 N23 1_555 1_555
C33 N22 1_555 1_555
C34 N24 1_555 1_555
C35 N22 1_555 1_555
C36 N24 1_555 1_555
C38 N25 1_555 1_555
C38 N27 1_555 1_555
C39 N26 1_555 1_555
C40 N28 1_555 1_555
C40 O24 1_555 1_555
C41 N1 1_555 1_555
C41 N26 1_555 1_555
C42 N3 1_555 1_555
C42 N28 1_555 1_555
O15 Er1A 1_555 1_555

#END
