
#######################################################################
#
#                 Cambridge Crystallographic Data Centre
#                                CCDC 
#
#######################################################################
#
# If this CIF has been generated from an entry in the Cambridge 
# Structural Database, then it will include bibliographic, chemical, 
# crystal, experimental, refinement or atomic coordinate data resulting 
# from the CCDC's data processing and validation procedures.
#
#######################################################################

data_NEWSEP
_symmetry_cell_setting           triclinic
_symmetry_space_group_name_H-M   'P -1'
_symmetry_Int_Tables_number      2
_space_group_name_Hall           '-P 1'
loop_
_symmetry_equiv_pos_site_id
_symmetry_equiv_pos_as_xyz
1 x,y,z
2 -x,-y,-z
_cell_length_a                   17.021(2)
_cell_length_b                   17.221(2)
_cell_length_c                   20.217(3)
_cell_angle_alpha                113.978(4)
_cell_angle_beta                 97.330(4)
_cell_angle_gamma                111.415(4)
_cell_volume                     4768.11
loop_
_atom_site_label
_atom_site_type_symbol
_atom_site_fract_x
_atom_site_fract_y
_atom_site_fract_z
Cl1 Cl 0.1695(2) 0.8066(2) 0.9633(2)
Cl2 Cl 0.1586(3) 0.8666(3) 0.8990(3)
Cl3 Cl 0.4390(4) 0.5731(5) 0.6516(3)
Cl4 Cl 0.6269(5) 0.5732(5) 0.9065(4)
Cl5 Cl 0.4261(3) 0.9104(3) 0.6102(3)
Cl6 Cl 0.0000 0.5000 0.5000
Cl7 Cl 0.0818(2) 0.7458(3) 0.2461(2)
Cl8 Cl 0.0631(2) 0.9304(2) 0.4296(2)
Cl9 Cl 0.1279(2) 0.7448(3) 0.4490(2)
Cl10 Cl 0.3062(2) 0.9437(3) 0.4162(2)
Cd1 Cd 0.14687(6) 0.84179(7) 0.38517(6)
Tm1 Tm 0.29400(3) 0.57307(3) 0.43701(2)
O1 O 0.2766(6) 0.4239(6) 0.4083(4)
O2 O 0.2705(5) 0.6997(5) 0.5215(4)
O3 O 0.3962(5) 0.5531(6) 0.3722(5)
O4 O 0.4324(5) 0.6756(6) 0.5219(4)
O5 O 0.1418(5) 0.5136(7) 0.4199(5)
O6 O 0.2920(4) 0.5569(5) 0.5486(4)
O7 O 0.7881(5) 0.5228(5) 0.6939(4)
O8 O 0.6691(5) 0.3098(5) 0.5965(4)
C1 C 0.2567(6) 0.5638(7) 0.5986(6)
N1 N 0.1827(5) 0.4917(6) 0.5926(5)
N2 N 0.2818(5) 0.6427(6) 0.6662(5)
C2 C 0.1496(7) 0.5259(8) 0.6570(5)
C3 C 0.1371(6) 0.3966(7) 0.5296(5)
C4 C 0.2210(6) 0.6277(7) 0.7086(5)
C5 C 0.3548(6) 0.7343(7) 0.6883(6)
H1 H 0.0894 0.5204 0.6412
N3 N 0.1588(4) 0.4888(5) 0.7076(5)
H2 H 0.0728 0.3761 0.5173
H3 H 0.1535 0.3974 0.4851
N4 N 0.1541(5) 0.3282(6) 0.5413(5)
H4 H 0.1960 0.6735 0.7206
N5 N 0.2593(5) 0.6264(6) 0.7776(4)
H5 H 0.3699 0.7319 0.6425
H6 H 0.3342 0.7831 0.7068
N6 N 0.4346(5) 0.7643(7) 0.7461(5)
C6 C 0.2168(6) 0.5404(7) 0.7729(6)
C7 C 0.0817(5) 0.3918(4) 0.6761(6)
C8 C 0.2136(6) 0.2976(8) 0.5167(6)
C9 C 0.0963(6) 0.2657(7) 0.5658(6)
C10 C 0.3171(7) 0.7127(8) 0.8499(6)
C11 C 0.5096(7) 0.7656(8) 0.7310(6)
C12 C 0.4474(7) 0.8133(7) 0.8260(6)
O9 O 0.2323(5) 0.5223(5) 0.8241(4)
H7 H 0.0360 0.3804 0.6336
H8 H 0.0552 0.3894 0.7159
N7 N 0.1104(5) 0.3147(5) 0.6482(5)
N8 N 0.2040(5) 0.2216(6) 0.5249(5)
O10 O 0.2669(5) 0.3344(6) 0.4897(5)
C13 C 0.1337(6) 0.1948(7) 0.5572(5)
H9 H 0.0326 0.2333 0.5346
H10 H 0.2977 0.7615 0.8557
H11 H 0.3090 0.6985 0.8915
N9 N 0.4084(6) 0.7515(7) 0.8585(5)
N10 N 0.5764(5) 0.8126(7) 0.7982(5)
O11 O 0.5164(5) 0.7290(7) 0.6658(4)
H12 H 0.4301 0.8653 0.8397
C14 C 0.5498(7) 0.8526(7) 0.8630(6)
Tm2 Tm 0.23290(3) 0.42811(3) 0.88057(2)
C15 C 0.1503(6) 0.2829(7) 0.6858(6)
C16 C 0.2459(7) 0.1626(8) 0.4882(6)
H13 H 0.0873 0.1278 0.5230
N11 N 0.1664(5) 0.2125(6) 0.6349(5)
C17 C 0.4732(7) 0.7585(8) 0.9115(6)
C18 C 0.6696(6) 0.8491(10) 0.8011(6)
H14 H 0.5814 0.9235 0.8901
N12 N 0.5550(6) 0.8157(7) 0.9146(5)
O12 O 0.3442(5) 0.5767(6) 0.9694(4)
O13 O 0.0996(5) 0.3015(7) 0.8647(5)
O14 O 0.2847(6) 0.3253(7) 0.8847(4)
O15 O 0.3526(5) 0.4483(6) 0.8312(5)
O16 O 0.1347(6) 0.4906(7) 0.9118(5)
O17 O 0.1674(5) 0.3093(6) 0.7528(4)
O18 O 0.7552(4) 0.5567(5) 0.9961(4)
H15 H 0.1995 0.0965 0.4546
H16 H 0.2748 0.1856 0.4563
N13 N 0.3120(5) 0.1636(6) 0.5424(5)
C19 C 0.1838(6) 0.1476(8) 0.6525(6)
O19 O 0.4572(5) 0.7205(7) 0.9504(5)
H17 H 0.6714 0.8308 0.7489
H18 H 0.6984 0.9192 0.8304
N14 N 0.7199(6) 0.8160(6) 0.8343(5)
C20 C 0.6332(7) 0.8513(9) 0.9747(6)
C21 C 0.3956(6) 0.1843(8) 0.5369(5)
C22 C 0.2884(6) 0.1065(7) 0.5805(5)
H19 H 0.1381 0.0822 0.6154
H20 H 0.1792 0.1600 0.7033
N15 N 0.2718(6) 0.1546(7) 0.6516(5)
C23 C 0.7535(8) 0.7606(8) 0.7936(6)
C24 C 0.7586(7) 0.8564(7) 0.9155(6)
H21 H 0.6160 0.8343 1.0133
H22 H 0.6638 0.9213 0.9992
N16 N 0.6954(5) 0.8148(7) 0.9495(5)
N17 N 0.4338(5) 0.1551(6) 0.5773(5)
O20 O 0.4253(5) 0.2180(6) 0.4978(5)
C25 C 0.3744(6) 0.1057(7) 0.6093(5)
H23 H 0.2392 0.0412 0.5455
C26 C 0.3350(7) 0.1813(8) 0.7142(6)
N18 N 0.8112(6) 0.7546(7) 0.8416(5)
O21 O 0.7349(6) 0.7210(6) 0.7223(4)
H24 H 0.7878 0.9273 0.9430
C27 C 0.8253(7) 0.8160(7) 0.9202(6)
C28 C 0.7206(7) 0.7667(7) 0.9782(6)
C29 C 0.5132(6) 0.1451(7) 0.5685(5)
H25 H 0.3664 0.0396 0.5907
N19 N 0.4003(5) 0.1588(6) 0.6931(4)
O22 O 0.3341(5) 0.2150(6) 0.7804(4)
C30 C 0.8681(7) 0.7127(7) 0.8179(6)
H26 H 0.8876 0.8674 0.9470
N20 N 0.7957(5) 0.7656(6) 0.9625(4)
O23 O 0.6854(5) 0.7326(7) 1.0149(5)
H27 H 0.5281 0.1587 0.5279
H28 H 0.5006 0.0787 0.5525
N21 N 0.5917(5) 0.2101(6) 0.6400(5)
C31 C 0.4658(6) 0.1563(7) 0.7431(6)
H29 H 0.9300 0.7605 0.8490
H30 H 0.8623 0.6972 0.7646
N22 N 0.8509(5) 0.6274(6) 0.8233(4)
C32 C 0.8497(7) 0.7358(7) 0.9970(5)
C33 C 0.6634(6) 0.2790(7) 0.6440(5)
C34 C 0.6062(6) 0.1922(8) 0.7021(6)
H31 H 0.4574 0.0905 0.7221
H32 H 0.4566 0.1754 0.7931
N23 N 0.5575(5) 0.2195(6) 0.7536(5)
C35 C 0.8193(6) 0.5411(7) 0.7592(6)
C36 C 0.8873(6) 0.6260(7) 0.8900(5)
H33 H 0.8339 0.7350 1.0417
H34 H 0.9125 0.7830 1.0150
N24 N 0.8399(6) 0.6411(6) 0.9453(5)
N25 N 0.7300(4) 0.3101(5) 0.7057(4)
C37 C 0.7043(6) 0.2641(7) 0.7496(6)
H35 H 0.5953 0.1254 0.6844
C38 C 0.6114(6) 0.2954(7) 0.8226(6)
N26 N 0.8340(5) 0.4833(5) 0.7821(4)
H36 H 0.9518 0.6710 0.9143
C39 C 0.8705(6) 0.5230(8) 0.8606(6)
C40 C 0.7977(6) 0.5621(7) 0.9499(5)
C41 C 0.8216(5) 0.3870(5) 0.7255(6)
H37 H 0.7408 0.2325 0.7558
N27 N 0.6989(5) 0.3251(7) 0.8217(5)
O24 O 0.5894(4) 0.3310(6) 0.8779(4)
H38 H 0.9263 0.5189 0.8743
N28 N 0.8091(5) 0.4922(6) 0.9011(5)
H39 H 0.8309 0.3878 0.6789
H40 H 0.8662 0.3729 0.7470
C42 C 0.7744(6) 0.3967(7) 0.8899(5)
H41 H 0.7570 0.3970 0.9344
H42 H 0.8223 0.3779 0.8882
Tm1A Tm 0.70600(3) 0.42693(3) 0.56299(2)
O7A O 0.2119(5) 0.4772(5) 0.3061(4)
O8A O 0.3309(5) 0.6902(5) 0.4035(4)
Tm2A Tm 0.76710(3) 0.57189(3) 1.11943(2)
O18A O 0.2448(4) 0.4433(5) 1.0039(4)
loop_
_geom_bond_atom_site_label_1
_geom_bond_atom_site_label_2
_geom_bond_site_symmetry_1
_geom_bond_site_symmetry_2
Tm1 O1 1_555 1_555
O2 Tm1 1_555 1_555
O3 Tm1 1_555 1_555
O4 Tm1 1_555 1_555
O5 Tm1 1_555 1_555
O6 Tm1 1_555 1_555
O7 C35 1_555 1_555
O8 C33 1_555 1_555
C1 O6 1_555 1_555
N1 C1 1_555 1_555
N2 C1 1_555 1_555
C2 N1 1_555 1_555
C3 N1 1_555 1_555
C4 N2 1_555 1_555
C5 N2 1_555 1_555
H1 C2 1_555 1_555
N3 C2 1_555 1_555
H2 C3 1_555 1_555
H3 C3 1_555 1_555
N4 C3 1_555 1_555
H4 C4 1_555 1_555
N5 C4 1_555 1_555
H5 C5 1_555 1_555
H6 C5 1_555 1_555
N6 C5 1_555 1_555
C6 N3 1_555 1_555
C7 N3 1_555 1_555
C8 N4 1_555 1_555
C9 N4 1_555 1_555
C10 N5 1_555 1_555
C11 N6 1_555 1_555
C12 N6 1_555 1_555
O9 C6 1_555 1_555
H7 C7 1_555 1_555
H8 C7 1_555 1_555
N7 C7 1_555 1_555
N8 C8 1_555 1_555
O10 C8 1_555 1_555
C13 C9 1_555 1_555
H9 C9 1_555 1_555
H10 C10 1_555 1_555
H11 C10 1_555 1_555
N9 C10 1_555 1_555
N10 C11 1_555 1_555
O11 C11 1_555 1_555
H12 C12 1_555 1_555
C14 C12 1_555 1_555
Tm2 O9 1_555 1_555
C15 N7 1_555 1_555
C16 N8 1_555 1_555
H13 C13 1_555 1_555
N11 C13 1_555 1_555
C17 N9 1_555 1_555
C18 N10 1_555 1_555
H14 C14 1_555 1_555
N12 C14 1_555 1_555
O12 Tm2 1_555 1_555
O13 Tm2 1_555 1_555
O14 Tm2 1_555 1_555
O15 Tm2 1_555 1_555
O16 Tm2 1_555 1_555
O17 Tm2 1_555 1_555
O18 C40 1_555 1_555
H15 C16 1_555 1_555
H16 C16 1_555 1_555
N13 C16 1_555 1_555
C19 N11 1_555 1_555
O19 C17 1_555 1_555
H17 C18 1_555 1_555
H18 C18 1_555 1_555
N14 C18 1_555 1_555
C20 N12 1_555 1_555
C21 N13 1_555 1_555
C22 N13 1_555 1_555
H19 C19 1_555 1_555
H20 C19 1_555 1_555
N15 C19 1_555 1_555
C23 N14 1_555 1_555
C24 N14 1_555 1_555
H21 C20 1_555 1_555
H22 C20 1_555 1_555
N16 C20 1_555 1_555
N17 C21 1_555 1_555
O20 C21 1_555 1_555
C25 C22 1_555 1_555
H23 C22 1_555 1_555
C26 N15 1_555 1_555
N18 C23 1_555 1_555
O21 C23 1_555 1_555
H24 C24 1_555 1_555
C27 C24 1_555 1_555
C28 N16 1_555 1_555
C29 N17 1_555 1_555
H25 C25 1_555 1_555
N19 C25 1_555 1_555
O22 C26 1_555 1_555
C30 N18 1_555 1_555
H26 C27 1_555 1_555
N20 C27 1_555 1_555
O23 C28 1_555 1_555
H27 C29 1_555 1_555
H28 C29 1_555 1_555
N21 C29 1_555 1_555
C31 N19 1_555 1_555
H29 C30 1_555 1_555
H30 C30 1_555 1_555
N22 C30 1_555 1_555
C32 N20 1_555 1_555
C33 N21 1_555 1_555
C34 N21 1_555 1_555
H31 C31 1_555 1_555
H32 C31 1_555 1_555
N23 C31 1_555 1_555
C35 N22 1_555 1_555
C36 N22 1_555 1_555
H33 C32 1_555 1_555
H34 C32 1_555 1_555
N24 C32 1_555 1_555
N25 C33 1_555 1_555
C37 C34 1_555 1_555
H35 C34 1_555 1_555
C38 N23 1_555 1_555
N26 C35 1_555 1_555
H36 C36 1_555 1_555
C39 C36 1_555 1_555
C40 N24 1_555 1_555
C41 N25 1_555 1_555
H37 C37 1_555 1_555
N27 C37 1_555 1_555
O24 C38 1_555 1_555
H38 C39 1_555 1_555
N28 C39 1_555 1_555
H39 C41 1_555 1_555
H40 C41 1_555 1_555
C42 N27 1_555 1_555
H41 C42 1_555 1_555
H42 C42 1_555 1_555
Cl7 Cd1 1_555 1_555
Cl8 Cd1 1_555 1_555
Cl9 Cd1 1_555 1_555
Cl10 Cd1 1_555 1_555
Tm1A O7 1_555 1_555
O7A Tm1 1_555 1_555
O8A Tm1 1_555 1_555
Tm2A O18 1_555 1_555
O18A Tm2 1_555 1_555
O8 Tm1A 1_555 1_555
C2 C4 1_555 1_555
N5 C6 1_555 1_555
C9 N7 1_555 1_555
C12 N9 1_555 1_555
N8 C13 1_555 1_555
N10 C14 1_555 1_555
C15 N11 1_555 1_555
C15 O17 1_555 1_555
C17 N12 1_555 1_555
C22 N15 1_555 1_555
C24 N16 1_555 1_555
N17 C25 1_555 1_555
C26 N19 1_555 1_555
N18 C27 1_555 1_555
C28 N20 1_555 1_555
C34 N23 1_555 1_555
C36 N24 1_555 1_555
N25 C37 1_555 1_555
C38 N27 1_555 1_555
N26 C39 1_555 1_555
N26 C41 1_555 1_555
C40 N28 1_555 1_555
N28 C42 1_555 1_555

#END
