
#######################################################################
#
#                 Cambridge Crystallographic Data Centre
#                                CCDC 
#
#######################################################################
#
# If this CIF has been generated from an entry in the Cambridge 
# Structural Database, then it will include bibliographic, chemical, 
# crystal, experimental, refinement or atomic coordinate data resulting 
# from the CCDC's data processing and validation procedures.
#
#######################################################################

data_NEWSOZ
_symmetry_cell_setting           monoclinic
_symmetry_space_group_name_H-M   'P 21/n'
_symmetry_Int_Tables_number      14
_space_group_name_Hall           '-P 2yn'
loop_
_symmetry_equiv_pos_site_id
_symmetry_equiv_pos_as_xyz
1 x,y,z
2 1/2-x,1/2+y,1/2-z
3 -x,-y,-z
4 1/2+x,1/2-y,1/2+z
_cell_length_a                   16.8475(11)
_cell_length_b                   16.8400(11)
_cell_length_c                   29.097(2)
_cell_angle_alpha                90
_cell_angle_beta                 95.167(2)
_cell_angle_gamma                90
_cell_volume                     8221.62
loop_
_atom_site_label
_atom_site_type_symbol
_atom_site_fract_x
_atom_site_fract_y
_atom_site_fract_z
Cd1 Cd 0.73568(3) 1.28420(3) 0.512643(17)
Cl1 Cl 0.85919(9) 1.26036(9) 0.47377(5)
Cl2 Cl 0.74494(10) 1.40341(10) 0.55962(6)
Cl3 Cl 0.61113(9) 1.27383(11) 0.46337(6)
Cl4 Cl 0.73943(13) 1.17219(13) 0.56870(9)
Cd2 Cd 1.25010(2) 0.93002(3) 0.168886(16)
Cl5 Cl 1.35081(9) 0.87550(9) 0.12155(5)
Cl6 Cl 1.27554(10) 1.06654(9) 0.19543(6)
Cl7 Cl 1.11869(9) 0.91123(9) 0.12525(6)
Cl8 Cl 1.25085(10) 0.85053(12) 0.24082(7)
O2 O 0.7681(2) 1.0153(2) 0.29903(16)
O3 O 0.9971(3) 1.0183(2) 0.39282(16)
O4 O 0.8350(3) 0.8605(3) 0.33663(17)
O5 O 0.8378(4) 0.9727(3) 0.40133(17)
Dy1 Dy 0.898091(15) 0.986411(14) 0.331575(9)
C1 C 1.0196(3) 1.1198(3) 0.27422(18)
C2 C 1.1060(3) 1.1966(3) 0.23453(19)
H1 H 1.1625 1.1796 0.2382
C3 C 1.0823(3) 1.2431(3) 0.27666(19)
H2 H 1.1294 1.2631 0.2960
C4 C 1.0487(3) 1.3169(3) 0.2110(2)
C5 C 1.0162(3) 1.1946(3) 0.34727(17)
H3 H 1.0156 1.1422 0.3619
H4 H 1.0569 1.2267 0.3648
C6 C 1.0006(3) 1.3711(3) 0.28115(18)
H5 H 1.0398 1.3878 0.3062
H6 H 0.9897 1.4166 0.2606
C7 C 0.8721(3) 1.1900(3) 0.35318(17)
C8 C 0.9266(3) 1.3168(3) 0.34707(17)
H7 H 0.9626 1.3466 0.3697
C9 C 0.8382(3) 1.3252(3) 0.35671(17)
H8 H 0.8322 1.3512 0.3867
C10 C 0.8563(3) 1.3837(3) 0.28555(18)
C11 C 0.7380(3) 1.2193(3) 0.37483(18)
H9 H 0.7341 1.2482 0.4038
H10 H 0.7408 1.1625 0.3822
C12 C 0.7297(3) 1.4129(3) 0.31880(19)
H11 H 0.7290 1.4572 0.2969
H12 H 0.7254 1.4351 0.3496
C13 C 0.6207(3) 1.1762(3) 0.32364(18)
C14 C 0.6285(3) 1.3116(3) 0.34070(18)
H13 H 0.6277 1.3380 0.3710
C15 C 0.5435(3) 1.2917(3) 0.31870(17)
H14 H 0.5021 1.3002 0.3403
C16 C 0.6036(3) 1.3852(3) 0.27329(17)
C17 C 0.4839(3) 1.1629(3) 0.28556(19)
H15 H 0.4362 1.1786 0.3002
H16 H 0.4939 1.1067 0.2926
C18 C 0.4603(3) 1.3606(3) 0.25236(18)
H17 H 0.4164 1.3540 0.2720
H18 H 0.4597 1.4158 0.2417
C19 C 0.4863(3) 1.1119(3) 0.2062(2)
C20 C 0.4138(3) 1.2295(3) 0.21367(19)
H19 H 0.3609 1.2287 0.2259
C21 C 0.4095(3) 1.2045(3) 0.16231(19)
H20 H 0.3538 1.1973 0.1489
C22 C 0.4685(3) 1.3290(3) 0.17153(19)
C23 C 0.4452(3) 1.0730(3) 0.1269(2)
H21 H 0.4560 1.0203 0.1403
H22 H 0.3898 1.0735 0.1134
C24 C 0.4501(3) 1.2786(3) 0.09191(19)
H23 H 0.3962 1.2694 0.0772
H24 H 0.4646 1.3335 0.0853
C25 C 0.5486(3) 1.0295(3) 0.0791(2)
C26 C 0.4817(3) 1.1469(3) 0.05590(19)
H25 H 0.4264 1.1451 0.0412
C27 C 0.5429(3) 1.1262(3) 0.02125(19)
H26 H 0.5170 1.1218 -0.0106
C28 C 0.5694(4) 1.2537(3) 0.0521(2)
C29 C 0.6317(3) 1.0056(3) 0.0141(2)
H27 H 0.6158 1.0064 -0.0191
H28 H 0.6295 0.9503 0.0245
C30 C 0.6547(4) 1.2114(3) -0.0071(2)
H29 H 0.6629 1.2689 -0.0078
H30 H 0.6316 1.1952 -0.0378
C31 C 0.7717(3) 0.9893(3) 0.04543(17)
C32 C 0.7455(3) 1.0907(3) -0.00938(19)
H31 H 0.7284 1.0785 -0.0421
C33 C 0.8368(3) 1.0826(3) 0.00122(19)
H32 H 0.8629 1.0665 -0.0265
C34 C 0.7991(4) 1.2131(3) 0.0154(2)
C35 C 0.9188(3) 0.9895(3) 0.05556(19)
H33 H 0.9084 0.9400 0.0716
H34 H 0.9509 0.9763 0.0301
C36 C 0.9432(4) 1.1883(4) 0.0174(2)
H35 H 0.9682 1.1615 -0.0075
H36 H 0.9432 1.2453 0.0108
C37 C 0.9657(3) 1.0328(3) 0.13390(17)
C38 C 1.0238(3) 1.0976(3) 0.07482(19)
H37 H 1.0579 1.0752 0.0520
C39 C 1.0721(3) 1.1173(3) 0.12014(19)
H38 H 1.1255 1.0925 0.1222
C40 C 1.0269(4) 1.2346(3) 0.0862(2)
C41 C 1.0565(3) 1.0639(3) 0.20083(18)
H39 H 1.0290 1.0173 0.2119
H40 H 1.1127 1.0498 0.1996
C42 C 1.1228(3) 1.2476(3) 0.15348(19)
H41 H 1.1763 1.2245 0.1581
H42 H 1.1282 1.3016 0.1416
N1 N 1.0509(2) 1.1289(2) 0.23351(15)
N2 N 1.0384(2) 1.1851(2) 0.30078(14)
N3 N 1.0905(3) 1.2524(2) 0.19734(16)
N4 N 1.0340(2) 1.3076(2) 0.25577(15)
N5 N 0.9403(2) 1.2312(2) 0.35011(15)
N6 N 0.8111(2) 1.2423(2) 0.35587(14)
N7 N 0.9280(2) 1.3483(2) 0.30035(15)
N8 N 0.8045(2) 1.3717(2) 0.31863(15)
N9 N 0.6663(2) 1.2341(2) 0.34446(14)
N10 N 0.5505(3) 1.2088(2) 0.30567(16)
N11 N 0.6609(2) 1.3624(2) 0.30661(14)
N12 N 0.5349(2) 1.3453(2) 0.27947(15)
N13 N 0.4681(3) 1.1715(2) 0.23641(16)
N14 N 0.4541(2) 1.1312(2) 0.16323(16)
N15 N 0.4472(2) 1.3091(2) 0.21322(15)
N16 N 0.4486(3) 1.2697(2) 0.14112(15)
N17 N 0.4961(3) 1.0850(2) 0.09089(16)
N18 N 0.5754(3) 1.0518(2) 0.03736(16)
N19 N 0.5040(3) 1.2263(2) 0.07137(16)
N20 N 0.5976(3) 1.1943(2) 0.02588(17)
N21 N 0.7134(3) 1.0336(2) 0.02190(15)
N22 N 0.8444(3) 1.0220(3) 0.03665(16)
N23 N 0.7311(3) 1.1736(3) 0.00174(17)
N24 N 0.8613(3) 1.1616(3) 0.01657(17)
N25 N 0.9643(2) 1.0409(2) 0.08690(15)
N26 N 1.0219(2) 1.0836(2) 0.15418(15)
N27 N 0.9911(3) 1.1743(3) 0.06002(16)
N28 N 1.0765(3) 1.2018(2) 0.11948(16)
O6 O 0.9812(2) 1.06233(19) 0.28637(12)
O7 O 0.8664(2) 1.11753(19) 0.35502(13)
O8 O 0.6397(2) 1.1056(2) 0.32125(13)
O9 O 0.5251(2) 1.0524(2) 0.21701(15)
O10 O 0.5682(3) 0.9689(2) 0.09931(16)
O11 O 0.7620(2) 0.9322(2) 0.06902(13)
O12 O 0.9232(2) 0.9878(2) 0.15319(14)
O13 O 1.0289(3) 1.3732(2) 0.18605(14)
O14 O 0.8425(2) 1.4199(2) 0.24994(13)
O15 O 0.6128(2) 1.43301(19) 0.24264(13)
O16 O 0.4993(2) 1.3926(2) 0.16164(13)
O17 O 0.5981(3) 1.3198(2) 0.05641(17)
O18 O 0.8044(3) 1.2832(2) 0.02499(18)
O19 O 1.0147(3) 1.3053(2) 0.07866(16)
Dy1A Dy 0.601909(15) 1.486411(14) 0.168425(9)
O15A O 0.8872(2) 0.93301(19) 0.25736(13)
O16A O 1.0007(2) 0.8926(2) 0.33836(13)
O1 O 0.8213(5) 1.5847(5) 0.3040(4)
loop_
_geom_bond_atom_site_label_1
_geom_bond_atom_site_label_2
_geom_bond_site_symmetry_1
_geom_bond_site_symmetry_2
Cd1 Cl1 1_555 1_555
Cl2 Cd1 1_555 1_555
Cl3 Cd1 1_555 1_555
Cl4 Cd1 1_555 1_555
Cd2 Cl5 1_555 1_555
Cl6 Cd2 1_555 1_555
Cl7 Cd2 1_555 1_555
Cl8 Cd2 1_555 1_555
O2 Dy1 1_555 1_555
O3 Dy1 1_555 1_555
O4 Dy1 1_555 1_555
O5 Dy1 1_555 1_555
Dy1 O6 1_555 1_555
C1 N1 1_555 1_555
C2 H1 1_555 1_555
C3 C2 1_555 1_555
H2 C3 1_555 1_555
C4 N3 1_555 1_555
C5 H3 1_555 1_555
H4 C5 1_555 1_555
C6 H5 1_555 1_555
H6 C6 1_555 1_555
C7 N5 1_555 1_555
C8 H7 1_555 1_555
C9 C8 1_555 1_555
H8 C9 1_555 1_555
C10 N7 1_555 1_555
C11 H9 1_555 1_555
H10 C11 1_555 1_555
C12 H11 1_555 1_555
H12 C12 1_555 1_555
C13 N9 1_555 1_555
C14 H13 1_555 1_555
C15 C14 1_555 1_555
H14 C15 1_555 1_555
C16 N11 1_555 1_555
C17 H15 1_555 1_555
H16 C17 1_555 1_555
C18 H17 1_555 1_555
H18 C18 1_555 1_555
C19 N13 1_555 1_555
C20 H19 1_555 1_555
C21 C20 1_555 1_555
H20 C21 1_555 1_555
C22 N15 1_555 1_555
C23 H21 1_555 1_555
H22 C23 1_555 1_555
C24 H23 1_555 1_555
H24 C24 1_555 1_555
C25 N17 1_555 1_555
C26 H25 1_555 1_555
C27 C26 1_555 1_555
H26 C27 1_555 1_555
C28 N19 1_555 1_555
C29 H27 1_555 1_555
H28 C29 1_555 1_555
C30 H29 1_555 1_555
H30 C30 1_555 1_555
C31 N21 1_555 1_555
C32 H31 1_555 1_555
C33 C32 1_555 1_555
H32 C33 1_555 1_555
C34 N23 1_555 1_555
C35 H33 1_555 1_555
H34 C35 1_555 1_555
C36 H35 1_555 1_555
H36 C36 1_555 1_555
C37 N25 1_555 1_555
C38 H37 1_555 1_555
C39 C38 1_555 1_555
H38 C39 1_555 1_555
C40 N27 1_555 1_555
C41 H39 1_555 1_555
H40 C41 1_555 1_555
C42 H41 1_555 1_555
H42 C42 1_555 1_555
N1 C2 1_555 1_555
N2 C1 1_555 1_555
N3 C2 1_555 1_555
N4 C3 1_555 1_555
N5 C5 1_555 1_555
N6 C7 1_555 1_555
N7 C6 1_555 1_555
N8 C9 1_555 1_555
N9 C11 1_555 1_555
N10 C13 1_555 1_555
N11 C12 1_555 1_555
N12 C15 1_555 1_555
N13 C17 1_555 1_555
N14 C19 1_555 1_555
N15 C18 1_555 1_555
N16 C21 1_555 1_555
N17 C23 1_555 1_555
N18 C25 1_555 1_555
N19 C24 1_555 1_555
N20 C27 1_555 1_555
N21 C29 1_555 1_555
N22 C31 1_555 1_555
N23 C30 1_555 1_555
N24 C33 1_555 1_555
N25 C35 1_555 1_555
N26 C37 1_555 1_555
N27 C36 1_555 1_555
N28 C39 1_555 1_555
O6 C1 1_555 1_555
O7 Dy1 1_555 1_555
O8 C13 1_555 1_555
O9 C19 1_555 1_555
O10 C25 1_555 1_555
O11 C31 1_555 1_555
O12 C37 1_555 1_555
O13 C4 1_555 1_555
O14 C10 1_555 1_555
O15 C16 1_555 1_555
O16 C22 1_555 1_555
O17 C28 1_555 1_555
O18 C34 1_555 1_555
O19 C40 1_555 1_555
Dy1A O15 1_555 1_555
O15A Dy1 1_555 1_555
O16A Dy1 1_555 1_555
C3 N2 1_555 1_555
C4 N4 1_555 1_555
C5 N2 1_555 1_555
C6 N4 1_555 1_555
C7 O7 1_555 1_555
C8 N5 1_555 1_555
C8 N7 1_555 1_555
C9 N6 1_555 1_555
C10 N8 1_555 1_555
C11 N6 1_555 1_555
C12 N8 1_555 1_555
C14 N9 1_555 1_555
C14 N11 1_555 1_555
C15 N10 1_555 1_555
C16 N12 1_555 1_555
C17 N10 1_555 1_555
C18 N12 1_555 1_555
C20 N13 1_555 1_555
C20 N15 1_555 1_555
C21 N14 1_555 1_555
C22 N16 1_555 1_555
C23 N14 1_555 1_555
C24 N16 1_555 1_555
C26 N17 1_555 1_555
C26 N19 1_555 1_555
C27 N18 1_555 1_555
C28 N20 1_555 1_555
C29 N18 1_555 1_555
C30 N20 1_555 1_555
C32 N21 1_555 1_555
C32 N23 1_555 1_555
C33 N22 1_555 1_555
C34 N24 1_555 1_555
C35 N22 1_555 1_555
C36 N24 1_555 1_555
C38 N25 1_555 1_555
C38 N27 1_555 1_555
C39 N26 1_555 1_555
C40 N28 1_555 1_555
C41 N1 1_555 1_555
C41 N26 1_555 1_555
C42 N3 1_555 1_555
C42 N28 1_555 1_555
O16 Dy1A 1_555 1_555

#END
