
#######################################################################
#
#                 Cambridge Crystallographic Data Centre
#                                CCDC 
#
#######################################################################
#
# If this CIF has been generated from an entry in the Cambridge 
# Structural Database, then it will include bibliographic, chemical, 
# crystal, experimental, refinement or atomic coordinate data resulting 
# from the CCDC's data processing and validation procedures.
#
#######################################################################

data_NEWTEQ
_symmetry_cell_setting           monoclinic
_symmetry_space_group_name_H-M   'P 21/n'
_symmetry_Int_Tables_number      14
_space_group_name_Hall           '-P 2yn'
loop_
_symmetry_equiv_pos_site_id
_symmetry_equiv_pos_as_xyz
1 x,y,z
2 1/2-x,1/2+y,1/2-z
3 -x,-y,-z
4 1/2+x,1/2-y,1/2+z
_cell_length_a                   16.850(3)
_cell_length_b                   16.902(3)
_cell_length_c                   29.052(4)
_cell_angle_alpha                90
_cell_angle_beta                 95.183(5)
_cell_angle_gamma                90
_cell_volume                     8240.14
loop_
_atom_site_label
_atom_site_type_symbol
_atom_site_fract_x
_atom_site_fract_y
_atom_site_fract_z
O2 O 0.2651(9) 0.5183(9) 0.7998(5)
O3 O 0.4993(9) 0.5178(9) 0.8951(5)
O4 O 0.3344(10) 0.3588(10) 0.8382(6)
O5 O 0.3408(11) 0.4715(10) 0.9040(6)
Eu1 Eu 0.39745(5) 0.48736(5) 0.83240(3)
C1 C 0.5319(10) 0.3288(10) 0.8290(6)
C2 C 0.5896(11) 0.2025(10) 0.8359(6)
H1 H 0.6450 0.1937 0.8493
C3 C 0.5879(11) 0.2317(10) 0.7854(6)
H2 H 0.6412 0.2320 0.7736
C4 C 0.5130(10) 0.1135(10) 0.7943(6)
C5 C 0.5409(10) 0.3615(10) 0.7475(6)
H3 H 0.5848 0.3548 0.7279
H4 H 0.5420 0.4163 0.7586
C6 C 0.5198(10) 0.1644(10) 0.7119(6)
H5 H 0.5673 0.1819 0.6976
H6 H 0.5109 0.1085 0.7041
C7 C 0.3954(10) 0.3855(10) 0.7259(6)
C8 C 0.4584(10) 0.2934(10) 0.6805(6)
H7 H 0.5003 0.3024 0.6593
C9 C 0.3726(10) 0.3135(10) 0.6577(6)
H8 H 0.3735 0.3399 0.6273
C10 C 0.3778(10) 0.1790(10) 0.6755(6)
C11 C 0.2714(10) 0.4160(10) 0.6796(6)
H9 H 0.2726 0.4609 0.7009
H10 H 0.2747 0.4365 0.6483
C12 C 0.2632(10) 0.2225(10) 0.6247(6)
H11 H 0.2611 0.1659 0.6173
H12 H 0.2670 0.2514 0.5957
C13 C 0.1460(10) 0.3825(10) 0.7130(6)
C14 C 0.1607(10) 0.3262(10) 0.6432(6)
H13 H 0.1662 0.3516 0.6129
C15 C 0.0732(10) 0.3182(10) 0.6520(6)
H14 H 0.0365 0.3475 0.6295
C16 C 0.1266(10) 0.1924(10) 0.6452(6)
C17 C -0.0018(10) 0.3714(10) 0.7202(6)
H15 H 0.0085 0.4163 0.7413
H16 H -0.0406 0.3884 0.6951
C18 C -0.0187(10) 0.2000(10) 0.6524(6)
H17 H -0.0580 0.2363 0.6370
H18 H -0.0220 0.1498 0.6354
C19 C -0.0489(10) 0.3164(10) 0.7896(6)
C20 C -0.0820(11) 0.2454(10) 0.7230(6)
H19 H -0.1293 0.2653 0.7038
C21 C -0.1054(11) 0.1971(10) 0.7667(6)
H20 H -0.1617 0.1796 0.7634
C22 C -0.0202(10) 0.1218(10) 0.7251(6)
C23 C -0.1230(11) 0.2507(11) 0.8476(6)
H21 H -0.1770 0.2285 0.8439
H22 H -0.1269 0.3049 0.8592
C24 C -0.0550(11) 0.0676(10) 0.7999(6)
H23 H -0.0263 0.0220 0.7888
H24 H -0.1111 0.0525 0.8003
C25 C -0.0225(11) 0.2362(11) 0.9154(6)
C26 C -0.0706(11) 0.1177(10) 0.8808(6)
H25 H -0.1244 0.0937 0.8795
C27 C -0.0213(11) 0.0991(11) 0.9262(6)
H26 H -0.0552 0.0758 0.9488
C28 C 0.0350(11) 0.0336(11) 0.8668(6)
C29 C 0.0656(7) 0.1998(10) 0.9830(5)
H27 H 0.0738 0.2572 0.9824
H28 H 0.0408 0.1870 1.0113
C30 C 0.0799(11) -0.0084(11) 0.9455(6)
H29 H 0.0485 -0.0197 0.9715
H30 H 0.0889 -0.0587 0.9300
C31 C 0.2013(11) 0.2116(11) 0.9867(6)
C32 C 0.1644(11) 0.0838(11) 0.9998(6)
H31 H 0.1392 0.0682 1.0279
C33 C 0.2579(11) 0.0914(10) 1.0084(6)
H32 H 0.2758 0.0786 1.0409
C34 C 0.2286(11) -0.0087(11) 0.9542(6)
C35 C 0.3534(11) 0.2096(11) 1.0093(6)
H33 H 0.3469 0.2669 1.0124
H34 H 0.3770 0.1893 1.0391
C36 C 0.3646(10) 0.0055(10) 0.9840(6)
H35 H 0.3650 -0.0489 0.9723
H36 H 0.3805 0.0031 1.0173
C37 C 0.4344(11) 0.2534(11) 0.9496(6)
C38 C 0.4594(11) 0.1300(10) 0.9788(6)
H37 H 0.4869 0.1260 1.0103
C39 C 0.5196(11) 0.1458(10) 0.9423(6)
H38 H 0.5757 0.1422 0.9557
C40 C 0.4504(11) 0.0291(10) 0.9202(6)
C41 C 0.5529(11) 0.2768(10) 0.9084(6)
H39 H 0.6067 0.2664 0.9229
H40 H 0.5390 0.3314 0.9157
C42 C 0.5536(11) 0.0725(10) 0.8718(6)
H41 H 0.6090 0.0727 0.8854
H42 H 0.5423 0.0200 0.8586
N1 N 0.5529(9) 0.2685(9) 0.8588(5)
N2 N 0.5527(9) 0.3094(9) 0.7863(5)
N3 N 0.5447(9) 0.1310(9) 0.8350(5)
N4 N 0.5339(9) 0.1725(9) 0.7623(5)
N5 N 0.4654(9) 0.3469(9) 0.7201(5)
N6 N 0.3390(9) 0.3640(8) 0.6922(5)
N7 N 0.4515(9) 0.2103(9) 0.6932(5)
N8 N 0.3324(9) 0.2374(9) 0.6543(5)
N9 N 0.1997(9) 0.3740(8) 0.6815(5)
N10 N 0.0741(9) 0.3486(9) 0.7006(5)
N11 N 0.1899(9) 0.2447(9) 0.6436(5)
N12 N 0.0614(9) 0.2335(9) 0.6507(5)
N13 N -0.0344(9) 0.3081(9) 0.7445(5)
N14 N -0.0904(9) 0.2525(9) 0.8027(5)
N15 N -0.0383(9) 0.1864(9) 0.6992(5)
N16 N -0.0499(9) 0.1305(9) 0.7684(5)
N17 N -0.0739(9) 0.2035(9) 0.8818(5)
N18 N 0.0121(8) 0.1770(9) 0.9433(4)
N19 N -0.0235(9) 0.0851(9) 0.8461(5)
N20 N 0.0340(9) 0.0438(9) 0.9131(5)
N21 N 0.1423(7) 0.1606(8) 0.9842(5)
N22 N 0.2743(9) 0.1733(9) 0.9988(5)
N23 N 0.1555(9) 0.0237(9) 0.9632(5)
N24 N 0.2868(9) 0.0332(9) 0.9780(5)
N25 N 0.4063(9) 0.1945(9) 0.9751(5)
N26 N 0.4981(9) 0.2243(9) 0.9275(5)
N27 N 0.4254(9) 0.0504(9) 0.9622(5)
N28 N 0.5002(9) 0.0869(9) 0.9090(5)
O6 O 0.5020(8) 0.3946(8) 0.8379(4)
O7 O 0.3874(7) 0.4324(6) 0.7571(4)
O8 O 0.1566(8) 0.4212(8) 0.7508(4)
O9 O -0.0295(9) 0.3756(9) 0.8141(5)
O10 O -0.0107(9) 0.3070(9) 0.9206(5)
O11 O 0.1982(11) 0.2849(11) 0.9767(6)
O12 O 0.4067(11) 0.3189(11) 0.9451(6)
O13 O 0.4764(9) 0.0525(9) 0.7810(5)
O14 O 0.3632(8) 0.1068(8) 0.6767(4)
O15 O 0.1344(7) 0.1204(7) 0.6437(4)
O16 O 0.0165(8) 0.0628(8) 0.7141(4)
O17 O 0.0763(9) -0.0111(8) 0.8475(5)
O18 O 0.2369(8) -0.0666(8) 0.9313(5)
O19 O 0.4297(10) -0.0293(10) 0.8985(6)
Eu1A Eu 0.10255(5) -0.01264(5) 0.66760(3)
O15A O 0.3656(7) 0.6204(7) 0.8563(4)
O16A O 0.4835(8) 0.5628(8) 0.7859(4)
Cl1 Cl 0.6413(3) 0.2385(3) 1.02604(17)
Cl2 Cl 0.7542(4) 0.0967(4) 0.93995(19)
Cl3 Cl 0.8890(3) 0.2232(4) 1.0364(2)
Cl4 Cl 0.7621(5) 0.3284(5) 0.9325(3)
Cd1 Cd 0.76421(9) 0.21475(10) 0.98701(5)
Cl5 Cl 0.7487(4) -0.1494(5) 0.7598(2)
Cl6 Cl 0.8817(3) -0.0862(3) 0.8746(2)
Cl7 Cl 0.7243(3) 0.0668(3) 0.8040(2)
Cl8 Cl 0.6480(3) -0.1224(3) 0.87789(16)
Cd2 Cd 0.74961(8) -0.06875(9) 0.83066(5)
O1 O 0.3247(16) 0.2373(16) 0.7770(9)
loop_
_geom_bond_atom_site_label_1
_geom_bond_atom_site_label_2
_geom_bond_site_symmetry_1
_geom_bond_site_symmetry_2
O2 Eu1 1_555 1_555
O3 Eu1 1_555 1_555
O4 Eu1 1_555 1_555
O5 Eu1 1_555 1_555
Eu1 O6 1_555 1_555
C1 N1 1_555 1_555
C2 H1 1_555 1_555
C3 C2 1_555 1_555
H2 C3 1_555 1_555
C4 N3 1_555 1_555
C5 H3 1_555 1_555
H4 C5 1_555 1_555
C6 H5 1_555 1_555
H6 C6 1_555 1_555
C7 N5 1_555 1_555
C8 H7 1_555 1_555
C9 C8 1_555 1_555
H8 C9 1_555 1_555
C10 N7 1_555 1_555
C11 H9 1_555 1_555
H10 C11 1_555 1_555
C12 H11 1_555 1_555
H12 C12 1_555 1_555
C13 N9 1_555 1_555
C14 H13 1_555 1_555
C15 C14 1_555 1_555
H14 C15 1_555 1_555
C16 N11 1_555 1_555
C17 H15 1_555 1_555
H16 C17 1_555 1_555
C18 H17 1_555 1_555
H18 C18 1_555 1_555
C19 N13 1_555 1_555
C20 H19 1_555 1_555
C21 C20 1_555 1_555
H20 C21 1_555 1_555
C22 N15 1_555 1_555
C23 H21 1_555 1_555
H22 C23 1_555 1_555
C24 H23 1_555 1_555
H24 C24 1_555 1_555
C25 N17 1_555 1_555
C26 H25 1_555 1_555
C27 C26 1_555 1_555
H26 C27 1_555 1_555
C28 N19 1_555 1_555
C29 H27 1_555 1_555
H28 C29 1_555 1_555
C30 H29 1_555 1_555
H30 C30 1_555 1_555
C31 N21 1_555 1_555
C32 H31 1_555 1_555
C33 C32 1_555 1_555
H32 C33 1_555 1_555
C34 N23 1_555 1_555
C35 H33 1_555 1_555
H34 C35 1_555 1_555
C36 H35 1_555 1_555
H36 C36 1_555 1_555
C37 N25 1_555 1_555
C38 H37 1_555 1_555
C39 C38 1_555 1_555
H38 C39 1_555 1_555
C40 N27 1_555 1_555
C41 H39 1_555 1_555
H40 C41 1_555 1_555
C42 H41 1_555 1_555
H42 C42 1_555 1_555
N1 C2 1_555 1_555
N2 C1 1_555 1_555
N3 C2 1_555 1_555
N4 C3 1_555 1_555
N5 C5 1_555 1_555
N6 C7 1_555 1_555
N7 C6 1_555 1_555
N8 C9 1_555 1_555
N9 C11 1_555 1_555
N10 C13 1_555 1_555
N11 C12 1_555 1_555
N12 C15 1_555 1_555
N13 C17 1_555 1_555
N14 C19 1_555 1_555
N15 C18 1_555 1_555
N16 C21 1_555 1_555
N17 C23 1_555 1_555
N18 C25 1_555 1_555
N19 C24 1_555 1_555
N20 C27 1_555 1_555
N21 C29 1_555 1_555
N22 C31 1_555 1_555
N23 C30 1_555 1_555
N24 C33 1_555 1_555
N25 C35 1_555 1_555
N26 C37 1_555 1_555
N27 C36 1_555 1_555
N28 C39 1_555 1_555
O6 C1 1_555 1_555
O7 Eu1 1_555 1_555
O8 C13 1_555 1_555
O9 C19 1_555 1_555
O10 C25 1_555 1_555
O11 C31 1_555 1_555
O12 C37 1_555 1_555
O13 C4 1_555 1_555
O14 C10 1_555 1_555
O15 C16 1_555 1_555
O16 C22 1_555 1_555
O17 C28 1_555 1_555
O18 C34 1_555 1_555
O19 C40 1_555 1_555
Cl1 Cd1 1_555 1_555
Cl2 Cd1 1_555 1_555
Cl3 Cd1 1_555 1_555
Cl4 Cd1 1_555 1_555
Cl5 Cd2 1_555 1_555
Cl6 Cd2 1_555 1_555
Cl7 Cd2 1_555 1_555
Cl8 Cd2 1_555 1_555
Eu1A O15 1_555 1_555
O15A Eu1 1_555 1_555
O16A Eu1 1_555 1_555
C3 N2 1_555 1_555
C4 N4 1_555 1_555
C5 N2 1_555 1_555
C6 N4 1_555 1_555
C7 O7 1_555 1_555
C8 N5 1_555 1_555
C8 N7 1_555 1_555
C9 N6 1_555 1_555
C10 N8 1_555 1_555
C11 N6 1_555 1_555
C12 N8 1_555 1_555
C14 N9 1_555 1_555
C14 N11 1_555 1_555
C15 N10 1_555 1_555
C16 N12 1_555 1_555
C17 N10 1_555 1_555
C18 N12 1_555 1_555
C20 N13 1_555 1_555
C20 N15 1_555 1_555
C21 N14 1_555 1_555
C22 N16 1_555 1_555
C23 N14 1_555 1_555
C24 N16 1_555 1_555
C26 N17 1_555 1_555
C26 N19 1_555 1_555
C27 N18 1_555 1_555
C28 N20 1_555 1_555
C29 N18 1_555 1_555
C30 N20 1_555 1_555
C32 N21 1_555 1_555
C32 N23 1_555 1_555
C33 N22 1_555 1_555
C34 N24 1_555 1_555
C35 N22 1_555 1_555
C36 N24 1_555 1_555
C38 N25 1_555 1_555
C38 N27 1_555 1_555
C39 N26 1_555 1_555
C40 N28 1_555 1_555
C41 N1 1_555 1_555
C41 N26 1_555 1_555
C42 N3 1_555 1_555
C42 N28 1_555 1_555
O16 Eu1A 1_555 1_555

#END
