
#######################################################################
#
#                 Cambridge Crystallographic Data Centre
#                                CCDC 
#
#######################################################################
#
# If this CIF has been generated from an entry in the Cambridge 
# Structural Database, then it will include bibliographic, chemical, 
# crystal, experimental, refinement or atomic coordinate data resulting 
# from the CCDC's data processing and validation procedures.
#
#######################################################################

data_NEWTUF
_symmetry_cell_setting           monoclinic
_symmetry_space_group_name_H-M   'P 21/n'
_symmetry_Int_Tables_number      14
_space_group_name_Hall           '-P 2yn'
loop_
_symmetry_equiv_pos_site_id
_symmetry_equiv_pos_as_xyz
1 x,y,z
2 1/2-x,1/2+y,1/2-z
3 -x,-y,-z
4 1/2+x,1/2-y,1/2+z
_cell_length_a                   10.028(4)
_cell_length_b                   12.693(5)
_cell_length_c                   11.881(5)
_cell_angle_alpha                90
_cell_angle_beta                 97.236(6)
_cell_angle_gamma                90
_cell_volume                     1500.23
loop_
_atom_site_label
_atom_site_type_symbol
_atom_site_fract_x
_atom_site_fract_y
_atom_site_fract_z
Cu1 Cu 0.94378(5) 0.06365(4) 0.91668(5)
N1 N 0.4585(4) 0.0561(4) 1.1924(4)
N2 N 0.8319(4) 0.1553(3) 0.7784(3)
O1 O 0.7948(3) 0.0674(3) 1.0127(3)
O2 O 0.8858(3) -0.0443(3) 1.1495(3)
O3 O 0.6230(3) 0.4270(2) 0.6477(2)
O4 O 0.5329(3) 0.3189(2) 0.5059(3)
C1 C 0.7907(5) 0.0124(4) 1.1009(4)
C2 C 0.6627(5) 0.0127(4) 1.1545(4)
C3 C 0.6259(6) -0.0565(5) 1.2366(5)
C4 C 0.6977(6) -0.1484(5) 1.2949(5)
H1 H 0.6433 -0.1787 1.3474
H2 H 0.7816 -0.1253 1.3351
H3 H 0.7144 -0.2003 1.2395
O5 O 0.5027(5) -0.0308(4) 1.2612(4)
C5 C 0.5555(6) 0.0799(5) 1.1298(5)
C6 C 0.5268(5) 0.1702(4) 1.0505(5)
H4 H 0.4390 0.1978 1.0573
H5 H 0.5301 0.1468 0.9741
H6 H 0.5928 0.2244 1.0690
C7 C 0.6079(4) 0.3389(4) 0.5975(4)
C8 C 0.6906(5) 0.2492(4) 0.6515(4)
C9 C 0.7202(5) 0.1574(4) 0.6010(4)
C10 C 0.6812(6) 0.1089(4) 0.4867(4)
H7 H 0.7250 0.0419 0.4834
H8 H 0.7080 0.1544 0.4291
H9 H 0.5855 0.0991 0.4744
O6 O 0.8061(3) 0.0991(2) 0.6735(3)
C11 C 0.7634(4) 0.2436(4) 0.7634(4)
C12 C 0.7666(5) 0.3209(4) 0.8598(4)
H10 H 0.8247 0.2947 0.9241
H11 H 0.6775 0.3297 0.8798
H12 H 0.7997 0.3875 0.8369
Cu1B Cu 1.05622(5) -0.06365(4) 1.08332(5)
Cu1A Cu 0.55622(5) 0.56365(4) 0.58332(5)
Cu1C Cu 0.44378(5) 0.43635(4) 0.41668(5)
O2B O 1.1142(3) 0.0443(3) 0.8505(3)
O3A O 0.8770(3) -0.0730(2) 0.8523(2)
O4C O 1.0329(3) 0.1811(2) 1.0059(3)
loop_
_geom_bond_atom_site_label_1
_geom_bond_atom_site_label_2
_geom_bond_site_symmetry_1
_geom_bond_site_symmetry_2
Cu1 N2 1_555 1_555
N1 O5 1_555 1_555
N2 O6 1_555 1_555
O1 Cu1 1_555 1_555
O2 C1 1_555 1_555
O3 C7 1_555 1_555
O4 C7 1_555 1_555
C1 O1 1_555 1_555
C2 C1 1_555 1_555
C3 C2 1_555 1_555
C4 C3 1_555 1_555
H1 C4 1_555 1_555
H2 C4 1_555 1_555
H3 C4 1_555 1_555
O5 C3 1_555 1_555
C5 N1 1_555 1_555
C6 C5 1_555 1_555
H4 C6 1_555 1_555
H5 C6 1_555 1_555
H6 C6 1_555 1_555
C7 C8 1_555 1_555
C8 C9 1_555 1_555
C9 C10 1_555 1_555
C10 H7 1_555 1_555
H8 C10 1_555 1_555
H9 C10 1_555 1_555
O6 C9 1_555 1_555
C11 N2 1_555 1_555
C12 C11 1_555 1_555
H10 C12 1_555 1_555
H11 C12 1_555 1_555
H12 C12 1_555 1_555
Cu1B Cu1 1_555 1_555
Cu1A O3 1_555 1_555
Cu1C O4 1_555 1_555
O2B Cu1 1_555 1_555
O3A Cu1 1_555 1_555
O4C Cu1 1_555 1_555
O2 Cu1B 1_555 1_555
C2 C5 1_555 1_555
C8 C11 1_555 1_555
Cu1A Cu1C 1_555 1_555

#END
