
#######################################################################
#
#                 Cambridge Crystallographic Data Centre
#                                CCDC 
#
#######################################################################
#
# If this CIF has been generated from an entry in the Cambridge 
# Structural Database, then it will include bibliographic, chemical, 
# crystal, experimental, refinement or atomic coordinate data resulting 
# from the CCDC's data processing and validation procedures.
#
#######################################################################

data_NEWTIU
_symmetry_cell_setting           triclinic
_symmetry_space_group_name_H-M   'P -1'
_symmetry_Int_Tables_number      2
_space_group_name_Hall           '-P 1'
loop_
_symmetry_equiv_pos_site_id
_symmetry_equiv_pos_as_xyz
1 x,y,z
2 -x,-y,-z
_cell_length_a                   16.931(4)
_cell_length_b                   17.078(4)
_cell_length_c                   20.353(7)
_cell_angle_alpha                97.495(10)
_cell_angle_beta                 113.477(10)
_cell_angle_gamma                111.168(7)
_cell_volume                     4767.79
loop_
_atom_site_label
_atom_site_type_symbol
_atom_site_fract_x
_atom_site_fract_y
_atom_site_fract_z
Cl2 Cl 0.16651(13) 0.49993(12) 0.24646(9)
Cl3 Cl 0.11190(11) 0.47054(12) 0.41514(9)
Cl4 Cl 0.32034(13) 0.70291(12) 0.44800(10)
Cl5 Cl 0.36847(12) 0.49653(13) 0.42767(12)
Cd1 Cd 0.23980(3) 0.54269(3) 0.38468(3)
Cl6 Cl 0.20262(17) 0.83903(17) 0.02942(17)
Cl8 Cl -0.18093(17) 0.29984(14) 0.39111(12)
Cl9 Cl -0.5000 1.0000 0.5000
Cl10 Cl -0.4779(7) 1.0792(5) 0.4173(9)
O1 O 0.0821(3) 0.8484(2) 0.5232(2)
O2 O -0.6205(3) 0.6124(3) 0.0277(2)
O3 O 0.1279(3) 0.9884(2) 0.4066(2)
O4 O 0.2518(3) 0.8186(2) 0.5230(2)
O5 O 0.2801(3) 0.9055(3) 0.4183(2)
O6 O -0.4704(3) 0.6201(3) 0.1707(2)
O7 O -0.0321(3) 0.8183(3) 0.3684(2)
O8 O -0.7681(3) 0.4350(3) 0.1327(2)
O9 O -0.5971(3) 0.4367(3) 0.1110(2)
Cl1 Cl -0.7792(3) 0.5844(3) 0.0853(3)
Eu1 Eu 0.140066(17) 0.863075(15) 0.435784(13)
Eu2 Eu -0.645754(17) 0.549292(16) 0.118055(13)
C1 C 0.0189(3) 0.6314(3) 0.3556(3)
C2 C -0.0966(3) 0.4842(3) 0.2982(3)
H1 H -0.0897 0.4341 0.3150
C3 C -0.0467(3) 0.5102(3) 0.2494(3)
H2 H -0.0164 0.4721 0.2428
C4 C -0.2100(4) 0.4697(3) 0.1773(3)
C5 C 0.0909(3) 0.6572(3) 0.2719(3)
H3 H 0.1469 0.7046 0.3173
H4 H 0.1142 0.6219 0.2499
C6 C -0.1141(3) 0.5035(3) 0.1109(2)
H5 H -0.0643 0.4860 0.1129
H6 H -0.1755 0.4599 0.0670
C7 C 0.0596(3) 0.7800(3) 0.2384(3)
C8 C 0.0079(3) 0.6585(3) 0.1381(2)
H7 H 0.0511 0.6407 0.1257
C9 C -0.0033(3) 0.7349(3) 0.1083(3)
H8 H 0.0370 0.7548 0.0836
C10 C -0.1520(3) 0.6099(3) 0.0503(3)
C11 C 0.0553(3) 0.8957(3) 0.1804(3)
H9 H 0.1033 0.9331 0.2327
H10 H 0.0853 0.9108 0.1484
C12 C -0.1469(4) 0.7385(3) 0.0041(3)
H11 H -0.1033 0.7668 -0.0154
H12 H -0.2082 0.6936 -0.0390
C13 C -0.0348(4) 0.9692(3) 0.2068(3)
C14 C -0.0928(3) 0.8967(3) 0.0790(3)
H13 H -0.0591 0.9207 0.0507
C15 C -0.1554(4) 0.9414(3) 0.0848(3)
H14 H -0.1539 0.9848 0.0569
C16 C -0.2556(4) 0.7905(3) 0.0242(3)
C17 C -0.1287(4) 1.0522(3) 0.1986(3)
H15 H -0.0748 1.0866 0.2498
H16 H -0.1307 1.0927 0.1687
C18 C -0.3356(4) 0.8826(4) 0.0268(3)
H17 H -0.3910 0.8284 -0.0126
H18 H -0.3268 0.9301 0.0040
C19 C -0.2162(4) 1.0358(3) 0.2708(3)
C20 C -0.3088(4) 0.9954(3) 0.1392(3)
H19 H -0.3044 1.0399 0.1125
C21 C -0.3741(3) 0.9919(3) 0.1761(3)
H20 H -0.4040 1.0319 0.1638
C22 C -0.4370(4) 0.8518(3) 0.0898(3)
C23 C -0.3288(4) 1.0503(3) 0.3140(3)
H21 H -0.3674 1.0817 0.2961
H22 H -0.2676 1.0926 0.3588
C24 C -0.5323(4) 0.8682(3) 0.1513(3)
H23 H -0.5815 0.8123 0.1106
H24 H -0.5578 0.9116 0.1457
C25 C -0.3402(3) 0.9656(3) 0.4018(3)
C26 C -0.4827(4) 0.9239(3) 0.2929(3)
H25 H -0.5185 0.9596 0.2821
C27 C -0.5051(3) 0.8704(3) 0.3436(3)
H26 H -0.5488 0.8829 0.3595
C28 C -0.5542(3) 0.7723(3) 0.2282(3)
C29 C -0.3925(4) 0.8682(3) 0.4702(3)
H27 H -0.4435 0.8615 0.4836
H28 H -0.3310 0.9126 0.5134
C30 C -0.5982(3) 0.7051(3) 0.3151(3)
H29 H -0.6544 0.6598 0.2686
H30 H -0.6219 0.7243 0.3478
C31 C -0.3033(4) 0.7802(3) 0.4815(3)
C32 C -0.4695(3) 0.7003(3) 0.4333(3)
H31 H -0.5019 0.6993 0.4646
C33 C -0.4218(3) 0.6366(3) 0.4430(3)
H32 H -0.4334 0.6040 0.4776
C34 C -0.5345(3) 0.5963(3) 0.3152(3)
C35 C -0.2463(4) 0.6688(3) 0.5078(3)
H33 H -0.2615 0.6343 0.5398
H34 H -0.1857 0.7229 0.5407
C36 C -0.4691(4) 0.4929(3) 0.3472(3)
H35 H -0.5241 0.4550 0.2972
H36 H -0.4782 0.4641 0.3841
C37 C -0.1429(4) 0.6407(3) 0.4618(3)
C38 C -0.2944(3) 0.5220(3) 0.4171(3)
H37 H -0.3086 0.4920 0.4524
C39 C -0.2336(3) 0.4920(3) 0.3901(3)
H38 H -0.2241 0.4435 0.4084
C40 C -0.3798(4) 0.4615(3) 0.2858(3)
C41 C -0.0562(3) 0.5672(3) 0.4293(3)
H39 H -0.0004 0.6197 0.4705
H40 H -0.0549 0.5147 0.4432
C42 C -0.2754(4) 0.4098(3) 0.2580(3)
H41 H -0.2625 0.3647 0.2793
H42 H -0.3343 0.3788 0.2089
N1 N -0.0484(3) 0.5643(3) 0.3605(2)
N2 N 0.0249(3) 0.6013(2) 0.2935(2)
N3 N -0.1961(3) 0.4607(3) 0.2464(2)
N4 N -0.1226(3) 0.5005(3) 0.1782(2)
N5 N 0.0481(3) 0.6960(2) 0.2187(2)
N6 N 0.0286(3) 0.8033(2) 0.1753(2)
N7 N -0.0905(3) 0.5876(3) 0.1003(2)
N8 N -0.1049(3) 0.6951(3) 0.0547(2)
N9 N -0.0263(3) 0.9149(3) 0.1572(2)
N10 N -0.1105(3) 0.9848(3) 0.1658(2)
N11 N -0.1641(3) 0.8043(3) 0.0398(2)
N12 N -0.2511(3) 0.8692(3) 0.0522(2)
N13 N -0.2167(3) 1.0180(3) 0.2024(2)
N14 N -0.3088(3) 1.0192(3) 0.2556(2)
N15 N -0.3571(3) 0.9058(3) 0.0873(2)
N16 N -0.4462(3) 0.8993(3) 0.1437(2)
N17 N -0.3803(3) 0.9790(3) 0.3354(2)
N18 N -0.4100(3) 0.9001(2) 0.4072(2)
N19 N -0.5144(3) 0.8544(3) 0.2240(2)
N20 N -0.5495(3) 0.7792(3) 0.2965(2)
N21 N -0.3891(3) 0.7845(3) 0.4570(2)
N22 N -0.3226(3) 0.6933(3) 0.4718(2)
N23 N -0.5379(3) 0.6663(3) 0.3528(2)
N24 N -0.4696(3) 0.5765(2) 0.3646(2)
N25 N -0.2326(3) 0.6173(3) 0.4543(2)
N26 N -0.1446(3) 0.5703(3) 0.4204(2)
N27 N -0.3822(3) 0.4990(3) 0.3477(2)
N28 N -0.2922(3) 0.4625(3) 0.3077(2)
O10 O 0.0688(3) 0.7070(2) 0.40128(19)
O11 O 0.0937(2) 0.8271(2) 0.30363(17)
O12 O 0.0164(3) 1.0005(3) 0.2748(2)
O13 O -0.1472(3) 1.0601(3) 0.3328(2)
O14 O -0.2550(2) 1.0078(2) 0.45131(18)
O15 O -0.2237(2) 0.8417(2) 0.5069(2)
O16 O -0.0747(3) 0.7130(2) 0.4992(2)
O17 O -0.2882(2) 0.4503(3) 0.1243(2)
O18 O -0.2401(2) 0.5601(2) 0.00572(18)
O19 O -0.3279(3) 0.7204(3) -0.0099(2)
O20 O -0.4909(3) 0.7759(2) 0.0500(2)
O21 O -0.5895(3) 0.7029(2) 0.17785(19)
O22 O -0.5842(3) 0.5568(2) 0.24664(19)
O23 O -0.4462(3) 0.4304(3) 0.2211(2)
Eu1A Eu -0.140066(17) 1.136925(15) 0.564216(13)
Eu2A Eu -0.354246(17) 0.450708(16) -0.118055(13)
O14A O 0.2550(2) 0.9922(2) 0.54869(18)
O18A O -0.7599(2) 0.4399(2) -0.00572(18)
Cl7? Cl 0.2494(15) 0.8751(15) -0.0114(14)
loop_
_geom_bond_atom_site_label_1
_geom_bond_atom_site_label_2
_geom_bond_site_symmetry_1
_geom_bond_site_symmetry_2
O1 Eu1 1_555 1_555
O2 Eu2 1_555 1_555
O3 Eu1 1_555 1_555
O4 Eu1 1_555 1_555
O5 Eu1 1_555 1_555
O6 Eu2 1_555 1_555
O7 Eu1 1_555 1_555
O8 Eu2 1_555 1_555
O9 Eu2 1_555 1_555
Cl1 Eu2 1_555 1_555
Eu1 O10 1_555 1_555
Eu2 O21 1_555 1_555
C1 N1 1_555 1_555
C2 H1 1_555 1_555
C3 C2 1_555 1_555
H2 C3 1_555 1_555
C4 N3 1_555 1_555
C5 H3 1_555 1_555
H4 C5 1_555 1_555
C6 H5 1_555 1_555
H6 C6 1_555 1_555
C7 N5 1_555 1_555
C8 H7 1_555 1_555
C9 C8 1_555 1_555
H8 C9 1_555 1_555
C10 N7 1_555 1_555
C11 H9 1_555 1_555
H10 C11 1_555 1_555
C12 H11 1_555 1_555
H12 C12 1_555 1_555
C13 N9 1_555 1_555
C14 H13 1_555 1_555
C15 C14 1_555 1_555
H14 C15 1_555 1_555
C16 N11 1_555 1_555
C17 H15 1_555 1_555
H16 C17 1_555 1_555
C18 H17 1_555 1_555
H18 C18 1_555 1_555
C19 N13 1_555 1_555
C20 H19 1_555 1_555
C21 C20 1_555 1_555
H20 C21 1_555 1_555
C22 N15 1_555 1_555
C23 H21 1_555 1_555
H22 C23 1_555 1_555
C24 H23 1_555 1_555
H24 C24 1_555 1_555
C25 N17 1_555 1_555
C26 H25 1_555 1_555
C27 C26 1_555 1_555
H26 C27 1_555 1_555
C28 N19 1_555 1_555
C29 H27 1_555 1_555
H28 C29 1_555 1_555
C30 H29 1_555 1_555
H30 C30 1_555 1_555
C31 N21 1_555 1_555
C32 H31 1_555 1_555
C33 C32 1_555 1_555
H32 C33 1_555 1_555
C34 N23 1_555 1_555
C35 H33 1_555 1_555
H34 C35 1_555 1_555
C36 H35 1_555 1_555
H36 C36 1_555 1_555
C37 N25 1_555 1_555
C38 H37 1_555 1_555
C39 C38 1_555 1_555
H38 C39 1_555 1_555
C40 N27 1_555 1_555
C41 H39 1_555 1_555
H40 C41 1_555 1_555
C42 H41 1_555 1_555
H42 C42 1_555 1_555
N1 C2 1_555 1_555
N2 C1 1_555 1_555
N3 C2 1_555 1_555
N4 C3 1_555 1_555
N5 C5 1_555 1_555
N6 C7 1_555 1_555
N7 C6 1_555 1_555
N8 C9 1_555 1_555
N9 C11 1_555 1_555
N10 C13 1_555 1_555
N11 C12 1_555 1_555
N12 C15 1_555 1_555
N13 C17 1_555 1_555
N14 C19 1_555 1_555
N15 C18 1_555 1_555
N16 C21 1_555 1_555
N17 C23 1_555 1_555
N18 C25 1_555 1_555
N19 C24 1_555 1_555
N20 C27 1_555 1_555
N21 C29 1_555 1_555
N22 C31 1_555 1_555
N23 C30 1_555 1_555
N24 C33 1_555 1_555
N25 C35 1_555 1_555
N26 C37 1_555 1_555
N27 C36 1_555 1_555
N28 C39 1_555 1_555
O10 C1 1_555 1_555
O11 Eu1 1_555 1_555
O12 C13 1_555 1_555
O13 C19 1_555 1_555
O14 C25 1_555 1_555
O15 C31 1_555 1_555
O16 C37 1_555 1_555
O17 C4 1_555 1_555
O18 C10 1_555 1_555
O19 C16 1_555 1_555
O20 C22 1_555 1_555
O21 C28 1_555 1_555
O22 Eu2 1_555 1_555
O23 C40 1_555 1_555
Cl2 Cd1 1_555 1_555
Cl3 Cd1 1_555 1_555
Cl4 Cd1 1_555 1_555
Cl5 Cd1 1_555 1_555
Eu1A O14 1_555 1_555
Eu2A O18 1_555 1_555
O14A Eu1 1_555 1_555
O18A Eu2 1_555 1_555
C3 N2 1_555 1_555
C4 N4 1_555 1_555
C5 N2 1_555 1_555
C6 N4 1_555 1_555
C7 O11 1_555 1_555
C8 N5 1_555 1_555
C8 N7 1_555 1_555
C9 N6 1_555 1_555
C10 N8 1_555 1_555
C11 N6 1_555 1_555
C12 N8 1_555 1_555
C14 N9 1_555 1_555
C14 N11 1_555 1_555
C15 N10 1_555 1_555
C16 N12 1_555 1_555
C17 N10 1_555 1_555
C18 N12 1_555 1_555
C20 N13 1_555 1_555
C20 N15 1_555 1_555
C21 N14 1_555 1_555
C22 N16 1_555 1_555
C23 N14 1_555 1_555
C24 N16 1_555 1_555
C26 N17 1_555 1_555
C26 N19 1_555 1_555
C27 N18 1_555 1_555
C28 N20 1_555 1_555
C29 N18 1_555 1_555
C30 N20 1_555 1_555
C32 N21 1_555 1_555
C32 N23 1_555 1_555
C33 N22 1_555 1_555
C34 N24 1_555 1_555
C34 O22 1_555 1_555
C35 N22 1_555 1_555
C36 N24 1_555 1_555
C38 N25 1_555 1_555
C38 N27 1_555 1_555
C39 N26 1_555 1_555
C40 N28 1_555 1_555
C41 N1 1_555 1_555
C41 N26 1_555 1_555
C42 N3 1_555 1_555
C42 N28 1_555 1_555

#END
