
#######################################################################
#
#                 Cambridge Crystallographic Data Centre
#                                CCDC 
#
#######################################################################
#
# If this CIF has been generated from an entry in the Cambridge 
# Structural Database, then it will include bibliographic, chemical, 
# crystal, experimental, refinement or atomic coordinate data resulting 
# from the CCDC's data processing and validation procedures.
#
#######################################################################

data_NEWVAO
_symmetry_cell_setting           triclinic
_symmetry_space_group_name_H-M   'P -1'
_symmetry_Int_Tables_number      2
_space_group_name_Hall           '-P 1'
loop_
_symmetry_equiv_pos_site_id
_symmetry_equiv_pos_as_xyz
1 x,y,z
2 -x,-y,-z
_cell_length_a                   17.013(3)
_cell_length_b                   17.386(3)
_cell_length_c                   20.459(5)
_cell_angle_alpha                98.417(9)
_cell_angle_beta                 112.688(9)
_cell_angle_gamma                110.141(6)
_cell_volume                     4962.08
loop_
_atom_site_label
_atom_site_type_symbol
_atom_site_fract_x
_atom_site_fract_y
_atom_site_fract_z
Cd1 Cd 0.26091(9) 0.45673(8) 0.11599(7)
Cl1 Cl 0.1349(3) 0.5020(3) 0.0718(3)
Cl2 Cl 0.3307(3) 0.4953(3) 0.2522(2)
Cl3 Cl 0.1840(3) 0.2991(3) 0.0559(2)
Cl4 Cl 0.3877(3) 0.5259(4) 0.0842(3)
Cl5 Cl 0.6801(7) 0.6956(6) 0.1091(5)
Cl7 Cl 0.2011(7) 0.6609(6) 0.6059(5)
Cl8 Cl 0.3080(5) 0.9105(5) 0.8461(4)
Cl9 Cl 0.2397(5) 0.0338(4) 0.3990(4)
Cl10 Cl 1.0000 1.0000 0.0000
Nd1 Nd 0.64145(5) 0.87727(4) 0.94287(3)
Nd2 Nd -0.14432(5) 0.54232(4) 0.60873(3)
C1 C 0.5617(8) 0.7850(7) 0.7421(6)
C2 C 0.5018(8) 0.7424(7) 0.6142(6)
H1 H 0.5413 0.7623 0.5900
C3 C 0.5157(8) 0.6671(7) 0.6439(6)
H2 H 0.5552 0.6493 0.6269
C4 C 0.3566(8) 0.6168(7) 0.5561(6)
C5 C 0.6011(7) 0.6631(8) 0.7795(6)
H3 H 0.6537 0.7101 0.8237
H4 H 0.6256 0.6267 0.7616
C6 C 0.3973(9) 0.5153(7) 0.6179(6)
H5 H 0.3379 0.4735 0.5750
H6 H 0.4460 0.4978 0.6188
C7 C 0.5224(9) 0.6427(8) 0.8586(7)
C8 C 0.4652(8) 0.5226(7) 0.7549(6)
H7 H 0.4975 0.4872 0.7488
C9 C 0.4144(9) 0.4959(8) 0.8017(7)
H8 H 0.4244 0.4493 0.8199
C10 C 0.3027(9) 0.4764(8) 0.6828(7)
C11 C 0.4446(9) 0.5785(8) 0.9313(7)
H9 H 0.4479 0.5280 0.9446
H10 H 0.4964 0.6293 0.9725
C12 C 0.2373(8) 0.4171(7) 0.7634(6)
H11 H 0.2541 0.3764 0.7866
H12 H 0.1807 0.3841 0.7156
C13 C 0.3555(8) 0.6475(7) 0.9636(6)
C14 C 0.2729(9) 0.4997(8) 0.8925(7)
H13 H 0.2850 0.4540 0.9110
C15 C 0.2082(9) 0.5270(8) 0.9188(7)
H14 H 0.1933 0.4962 0.9521
C16 C 0.1303(10) 0.4668(8) 0.7883(7)
C17 C 0.2480(9) 0.6675(8) 1.0086(7)
H15 H 0.3049 0.7204 1.0417
H16 H 0.2324 0.6335 1.0392
C18 C 0.0346(10) 0.4933(8) 0.8461(8)
H17 H 0.0253 0.4659 0.8823
H18 H -0.0162 0.4556 0.7967
C19 C 0.1856(9) 0.7745(8) 0.9796(7)
C20 C 0.0715(9) 0.6343(8) 0.9376(7)
H19 H 0.0579 0.6014 0.9701
C21 C 0.0215(9) 0.6980(8) 0.9279(7)
H20 H -0.0122 0.6969 0.9576
C22 C -0.0330(9) 0.5967(8) 0.8129(7)
C23 C 0.0961(9) 0.8580(8) 0.9644(7)
H21 H 0.1548 0.9014 1.0068
H22 H 0.0454 0.8513 0.9773
C24 C -0.0948(9) 0.7104(8) 0.8179(8)
H23 H -0.1575 0.6699 0.7782
H24 H -0.1027 0.7386 0.8579
C25 C 0.1463(8) 0.9565(7) 0.8975(6)
C26 C -0.0132(8) 0.8627(7) 0.8379(6)
H25 H -0.0575 0.8732 0.8533
C27 C 0.0065(9) 0.9132(7) 0.7861(6)
H26 H -0.0309 0.9461 0.7742
C28 C -0.0567(9) 0.7681(8) 0.7253(7)
C29 C 0.1549(9) 1.0393(8) 0.8081(7)
H27 H 0.2119 1.0815 0.8527
H28 H 0.1143 1.0673 0.7898
C30 C -0.0366(9) 0.8635(8) 0.6463(7)
H29 H -0.0840 0.8107 0.6052
H30 H -0.0610 0.9064 0.6430
C31 C 0.2697(9) 1.0306(8) 0.7626(7)
C32 C 0.1190(9) 0.9860(8) 0.6714(7)
H31 H 0.0873 1.0235 0.6598
C33 C 0.1790(9) 0.9921(8) 0.6346(7)
H32 H 0.1799 1.0344 0.6076
C34 C 0.0626(9) 0.8508(8) 0.5866(7)
C35 C 0.3597(10) 1.0501(9) 0.6915(8)
H33 H 0.3538 1.0854 0.6589
H34 H 0.4119 1.0875 0.7405
C36 C 0.1624(9) 0.8844(8) 0.5255(7)
H35 H 0.1731 0.9326 0.5061
H36 H 0.1091 0.8337 0.4851
C37 C 0.4548(9) 0.9694(8) 0.7049(7)
C38 C 0.3428(9) 0.9422(8) 0.5827(7)
H37 H 0.3446 0.9827 0.5541
C39 C 0.4036(9) 0.8954(8) 0.5802(7)
H38 H 0.4389 0.9170 0.5535
C40 C 0.2472(10) 0.7937(8) 0.5239(7)
C41 C 0.5491(9) 0.8968(8) 0.6821(7)
H39 H 0.5784 0.9115 0.6505
H40 H 0.5947 0.9339 0.7331
C42 C 0.3598(9) 0.7395(8) 0.5091(7)
H41 H 0.3026 0.6945 0.4666
H42 H 0.4034 0.7670 0.4908
N1 N 0.5281(7) 0.8098(6) 0.6785(5)
N2 N 0.5614(6) 0.6980(6) 0.7229(5)
N3 N 0.4013(8) 0.7008(6) 0.5602(6)
N4 N 0.4200(7) 0.5986(6) 0.6066(5)
N5 N 0.5320(7) 0.6135(6) 0.7990(5)
N6 N 0.4577(7) 0.5781(6) 0.8637(5)
N7 N 0.3887(7) 0.5106(6) 0.6846(5)
N8 N 0.3149(7) 0.4700(6) 0.7507(5)
N9 N 0.3575(8) 0.5783(7) 0.9222(6)
N10 N 0.2672(7) 0.6197(6) 0.9581(5)
N11 N 0.2166(7) 0.4702(6) 0.8117(5)
N12 N 0.1241(8) 0.5047(7) 0.8499(6)
N13 N 0.1688(7) 0.6902(6) 0.9701(5)
N14 N 0.1020(7) 0.7793(6) 0.9525(5)
N15 N 0.0308(7) 0.5776(6) 0.8618(5)
N16 N -0.0427(7) 0.6616(6) 0.8462(5)
N17 N 0.0785(7) 0.8894(6) 0.8997(5)
N18 N 0.1070(7) 0.9692(6) 0.8283(6)
N19 N -0.0526(8) 0.7754(6) 0.7892(6)
N20 N -0.0193(7) 0.8459(6) 0.7204(5)
N21 N 0.1815(7) 1.0140(6) 0.7511(6)
N22 N 0.2725(8) 1.0163(7) 0.6980(6)
N23 N 0.0481(7) 0.8938(6) 0.6394(5)
N24 N 0.1393(8) 0.9035(7) 0.5852(6)
N25 N 0.3823(8) 0.9854(7) 0.6632(6)
N26 N 0.4678(7) 0.9139(6) 0.6592(5)
N27 N 0.2476(7) 0.8686(7) 0.5509(6)
N28 N 0.3356(7) 0.8053(6) 0.5414(6)
O1 O 0.5914(6) 0.8318(5) 0.8064(5)
O2 O 0.5702(6) 0.7175(6) 0.9028(5)
O3 O 0.4185(7) 0.7166(7) 0.9997(6)
O4 O 0.2653(6) 0.8362(6) 1.0084(5)
O5 O 0.2305(6) 0.9998(6) 0.9440(5)
O6 O 0.3396(7) 1.0594(7) 0.8253(6)
O7 O 0.5034(7) 0.9998(6) 0.7728(5)
O8 O 0.2722(6) 0.5672(6) 0.5119(5)
O9 O 0.2262(7) 0.4550(6) 0.6294(5)
O10 O 0.0682(7) 0.4357(6) 0.7229(6)
O11 O -0.0810(6) 0.5544(6) 0.7427(5)
O12 O -0.0885(6) 0.6979(5) 0.6732(4)
O13 O 0.0099(7) 0.7738(6) 0.5476(5)
O14 O 0.1756(7) 0.7242(7) 0.4885(6)
O15 O 0.5965(7) 0.8299(6) 1.0362(5)
O16 O 0.7583(7) 0.8260(6) 1.0218(5)
O17 O -0.1476(7) 0.6274(6) 0.5203(5)
O18 O -0.1092(7) 0.4178(6) 0.6279(5)
O19 O -0.2667(7) 0.4351(6) 0.6338(5)
O20 O 0.6560(7) 0.9999(6) 0.8940(5)
O21 O 0.7784(7) 0.9088(6) 0.9168(5)
O22 O 0.0287(8) 0.6162(7) 0.6673(6)
O23 O 0.4677(8) 0.8243(7) 0.8726(6)
O24 O -0.0842(8) 0.4971(7) 0.5221(6)
O25 O -0.2792(8) 0.5794(7) 0.5901(6)
O26 O 0.5812(9) 0.9707(8) 0.9965(6)
Nd1A Nd 0.35855(5) 1.12273(4) 1.05713(3)
Nd2A Nd 0.14432(5) 0.45768(4) 0.39127(3)
O5A O 0.7695(6) 1.0002(6) 1.0560(5)
O8A O -0.2722(6) 0.4328(6) 0.4881(5)
Cl6? Cl 0.8014(5) 0.7524(4) 0.0982(5)
loop_
_geom_bond_atom_site_label_1
_geom_bond_atom_site_label_2
_geom_bond_site_symmetry_1
_geom_bond_site_symmetry_2
Nd1 O1 1_555 1_555
Nd2 O11 1_555 1_555
C1 N1 1_555 1_555
C2 H1 1_555 1_555
C3 C2 1_555 1_555
H2 C3 1_555 1_555
C4 N3 1_555 1_555
C5 H3 1_555 1_555
H4 C5 1_555 1_555
C6 H5 1_555 1_555
H6 C6 1_555 1_555
C7 N5 1_555 1_555
C8 H7 1_555 1_555
C9 C8 1_555 1_555
H8 C9 1_555 1_555
C10 N7 1_555 1_555
C11 H9 1_555 1_555
H10 C11 1_555 1_555
C12 H11 1_555 1_555
H12 C12 1_555 1_555
C13 N9 1_555 1_555
C14 H13 1_555 1_555
C15 C14 1_555 1_555
H14 C15 1_555 1_555
C16 N11 1_555 1_555
C17 H15 1_555 1_555
H16 C17 1_555 1_555
C18 H17 1_555 1_555
H18 C18 1_555 1_555
C19 N13 1_555 1_555
C20 H19 1_555 1_555
C21 C20 1_555 1_555
H20 C21 1_555 1_555
C22 N15 1_555 1_555
C23 H21 1_555 1_555
H22 C23 1_555 1_555
C24 H23 1_555 1_555
H24 C24 1_555 1_555
C25 N17 1_555 1_555
C26 H25 1_555 1_555
C27 C26 1_555 1_555
H26 C27 1_555 1_555
C28 N19 1_555 1_555
C29 H27 1_555 1_555
H28 C29 1_555 1_555
C30 H29 1_555 1_555
H30 C30 1_555 1_555
C31 N21 1_555 1_555
C32 H31 1_555 1_555
C33 C32 1_555 1_555
H32 C33 1_555 1_555
C34 N23 1_555 1_555
C35 H33 1_555 1_555
H34 C35 1_555 1_555
C36 H35 1_555 1_555
H36 C36 1_555 1_555
C37 N25 1_555 1_555
C38 H37 1_555 1_555
C39 C38 1_555 1_555
H38 C39 1_555 1_555
C40 N27 1_555 1_555
C41 H39 1_555 1_555
H40 C41 1_555 1_555
C42 H41 1_555 1_555
H42 C42 1_555 1_555
N1 C2 1_555 1_555
N2 C1 1_555 1_555
N3 C2 1_555 1_555
N4 C3 1_555 1_555
N5 C5 1_555 1_555
N6 C7 1_555 1_555
N7 C6 1_555 1_555
N8 C9 1_555 1_555
N9 C11 1_555 1_555
N10 C13 1_555 1_555
N11 C12 1_555 1_555
N12 C15 1_555 1_555
N13 C17 1_555 1_555
N14 C19 1_555 1_555
N15 C18 1_555 1_555
N16 C21 1_555 1_555
N17 C23 1_555 1_555
N18 C25 1_555 1_555
N19 C24 1_555 1_555
N20 C27 1_555 1_555
N21 C29 1_555 1_555
N22 C31 1_555 1_555
N23 C30 1_555 1_555
N24 C33 1_555 1_555
N25 C35 1_555 1_555
N26 C37 1_555 1_555
N27 C36 1_555 1_555
N28 C39 1_555 1_555
O1 C1 1_555 1_555
O2 Nd1 1_555 1_555
O3 C13 1_555 1_555
O4 C19 1_555 1_555
O5 C25 1_555 1_555
O6 C31 1_555 1_555
O7 C37 1_555 1_555
O8 C4 1_555 1_555
O9 C10 1_555 1_555
O10 C16 1_555 1_555
O11 C22 1_555 1_555
O12 Nd2 1_555 1_555
O13 C34 1_555 1_555
O14 C40 1_555 1_555
O15 Nd1 1_555 1_555
O16 Nd1 1_555 1_555
O17 Nd2 1_555 1_555
O18 Nd2 1_555 1_555
O19 Nd2 1_555 1_555
O20 Nd1 1_555 1_555
O21 Nd1 1_555 1_555
O22 Nd2 1_555 1_555
O23 Nd1 1_555 1_555
O24 Nd2 1_555 1_555
O25 Nd2 1_555 1_555
O26 Nd1 1_555 1_555
Cd1 Cl1 1_555 1_555
Cl2 Cd1 1_555 1_555
Cl3 Cd1 1_555 1_555
Cl4 Cd1 1_555 1_555
Nd1A O5 1_555 1_555
Nd2A O8 1_555 1_555
O5A Nd1 1_555 1_555
O8A Nd2 1_555 1_555
C3 N2 1_555 1_555
C4 N4 1_555 1_555
C5 N2 1_555 1_555
C6 N4 1_555 1_555
C7 O2 1_555 1_555
C8 N5 1_555 1_555
C8 N7 1_555 1_555
C9 N6 1_555 1_555
C10 N8 1_555 1_555
C11 N6 1_555 1_555
C12 N8 1_555 1_555
C14 N9 1_555 1_555
C14 N11 1_555 1_555
C15 N10 1_555 1_555
C16 N12 1_555 1_555
C17 N10 1_555 1_555
C18 N12 1_555 1_555
C20 N13 1_555 1_555
C20 N15 1_555 1_555
C21 N14 1_555 1_555
C22 N16 1_555 1_555
C23 N14 1_555 1_555
C24 N16 1_555 1_555
C26 N17 1_555 1_555
C26 N19 1_555 1_555
C27 N18 1_555 1_555
C28 N20 1_555 1_555
C28 O12 1_555 1_555
C29 N18 1_555 1_555
C30 N20 1_555 1_555
C32 N21 1_555 1_555
C32 N23 1_555 1_555
C33 N22 1_555 1_555
C34 N24 1_555 1_555
C35 N22 1_555 1_555
C36 N24 1_555 1_555
C38 N25 1_555 1_555
C38 N27 1_555 1_555
C39 N26 1_555 1_555
C40 N28 1_555 1_555
C41 N1 1_555 1_555
C41 N26 1_555 1_555
C42 N3 1_555 1_555
C42 N28 1_555 1_555

#END
