
#######################################################################
#
#                 Cambridge Crystallographic Data Centre
#                                CCDC 
#
#######################################################################
#
# If this CIF has been generated from an entry in the Cambridge 
# Structural Database, then it will include bibliographic, chemical, 
# crystal, experimental, refinement or atomic coordinate data resulting 
# from the CCDC's data processing and validation procedures.
#
#######################################################################

data_NEXHEF
_symmetry_cell_setting           monoclinic
_symmetry_space_group_name_H-M   'P 21/n'
_symmetry_Int_Tables_number      14
_space_group_name_Hall           '-P 2yn'
loop_
_symmetry_equiv_pos_site_id
_symmetry_equiv_pos_as_xyz
1 x,y,z
2 1/2-x,1/2+y,1/2-z
3 -x,-y,-z
4 1/2+x,1/2-y,1/2+z
_cell_length_a                   16.9556(15)
_cell_length_b                   9.0102(8)
_cell_length_c                   24.685(2)
_cell_angle_alpha                90
_cell_angle_beta                 106.846(2)
_cell_angle_gamma                90
_cell_volume                     3609.38
loop_
_atom_site_label
_atom_site_type_symbol
_atom_site_fract_x
_atom_site_fract_y
_atom_site_fract_z
N1 N 0.1448(4) 1.0107(7) 0.1031(3)
C1 C 0.2273(5) 1.0221(9) 0.1196(3)
H1 H 0.2562 0.9897 0.0950
C2 C 0.2710(5) 1.0794(10) 0.1710(3)
H2 H 0.3281 1.0850 0.1805
C3 C 0.2306(5) 1.1289(8) 0.2090(3)
C4 C 1.0544(6) 1.5520(11) 0.6630(4)
H3 H 1.0470 1.6305 0.6855
N2 N 1.1266(4) 1.4828(8) 0.6768(3)
C5 C 1.1363(5) 1.3718(11) 0.6438(4)
H4 H 1.1861 1.3208 0.6530
C6 C 1.0743(5) 1.3305(12) 0.5962(4)
H5 H 1.0834 1.2533 0.5738
C7 C 0.9904(6) 1.5129(11) 0.6172(4)
H6 H 0.9403 1.5624 0.6101
C8 C 0.9991(5) 1.4013(11) 0.5814(3)
Ag1 Ag 0.58414(4) 0.59818(8) 0.52224(3)
Ag2 Ag 0.71244(5) 0.96780(9) 0.26185(3)
O1 O 0.5668(3) 0.5100(6) 0.1854(2)
O2 O 0.6073(4) 0.4697(7) 0.4337(2)
O3 O 0.6926(3) 0.6063(6) 0.3992(2)
O4 O 0.2144(3) 0.7285(7) 0.0347(2)
C9 C 0.4221(4) 0.9964(8) 0.3989(3)
O5 O 0.2970(3) 0.8011(7) -0.0165(2)
C10 C 0.4944(5) 0.5528(9) 0.1474(3)
C11 C 0.2821(5) 0.7378(9) 0.0262(3)
C12 C 0.5985(4) 0.5191(8) 0.2866(3)
N3 N 0.5083(3) 0.7676(7) 0.4680(2)
C13 C 0.7694(4) 1.2015(9) 0.4517(3)
C14 C 0.3958(4) 0.9391(8) 0.4422(3)
H7 H 0.3487 0.9766 0.4494
C15 C 0.3213(5) 1.0610(9) 0.3049(3)
H8 H 0.2797 0.9958 0.3117
H9 H 0.3546 1.0031 0.2866
C16 C 0.3569(5) 0.6675(8) 0.0672(3)
N4 N 0.7519(4) 1.0565(7) 0.3482(3)
C17 C 0.3761(5) 1.1190(8) 0.3616(3)
H10 H 0.4154 1.1895 0.3547
H11 H 0.3422 1.1710 0.3811
C18 C 0.5992(4) 0.4417(8) 0.3371(3)
C19 C 0.6344(5) 0.5112(9) 0.3948(3)
O6 O 0.6886(4) 0.6984(7) 0.2709(2)
C20 C 0.4302(5) 0.6467(9) 0.0545(3)
H12 H 0.4337 0.6718 0.0188
C21 C 0.6260(5) 0.6780(9) 0.2847(3)
C22 C 0.5651(5) 0.4405(9) 0.2358(3)
C23 C 0.1065(5) 1.0557(9) 0.1395(3)
H13 H 0.0495 1.0454 0.1296
C24 C 0.7936(5) 1.2696(9) 0.4088(3)
H14 H 0.8163 1.3644 0.4138
C25 C 0.4199(5) 0.5660(10) 0.1603(3)
H15 H 0.4159 0.5367 0.1955
C26 C 0.5366(5) 0.2968(10) 0.2337(3)
H16 H 0.5161 0.2484 0.1992
C27 C 0.8632(5) 1.2740(10) 0.5487(3)
H17 H 0.8595 1.3111 0.5847
H18 H 0.8812 1.1715 0.5542
O7 O 0.5783(4) 0.7742(7) 0.2930(3)
C28 C 0.4401(5) 0.8244(9) 0.4755(3)
H19 H 0.4209 0.7861 0.5043
C29 C 0.5337(5) 0.8234(9) 0.4265(3)
H20 H 0.5810 0.7847 0.4201
C30 C 0.3529(5) 0.6223(10) 0.1205(3)
H21 H 0.3033 0.6308 0.1292
C31 C 0.5388(5) 0.2262(10) 0.2835(3)
H22 H 0.5192 0.1295 0.2826
C32 C 0.1458(5) 1.1174(9) 0.1915(3)
H23 H 0.1152 1.1513 0.2147
C33 C 0.7276(6) 0.9952(10) 0.3898(4)
H24 H 0.7042 0.9010 0.3839
C34 C 0.4927(5) 0.9365(9) 0.3923(3)
H25 H 0.5136 0.9731 0.3640
C35 C 0.7832(5) 1.1927(9) 0.3575(3)
H26 H 0.7990 1.2394 0.3288
C36 C 0.2786(6) 1.1859(9) 0.2649(3)
H27 H 0.2422 1.2395 0.2819
H28 H 0.3199 1.2550 0.2600
C37 C 0.4991(5) 0.5888(10) 0.0944(3)
H29 H 0.5479 0.5745 0.0851
C38 C 0.7772(5) 1.2779(11) 0.5063(3)
H30 H 0.7387 1.2330 0.5238
H31 H 0.7611 1.3808 0.4985
C39 C 0.5701(5) 0.2980(9) 0.3350(3)
H32 H 0.5715 0.2490 0.3684
C40 C 0.7353(5) 1.0632(9) 0.4409(4)
H33 H 0.7171 1.0147 0.4684
C41 C 0.9285(5) 1.3634(12) 0.5316(4)
H34 H 0.9483 1.3064 0.5048
H35 H 0.9040 1.4541 0.5130
N1C N 0.6448(4) 0.4893(7) 0.6031(3)
N2C N 0.6266(4) 1.0172(8) 0.1768(3)
Ag1C Ag 0.08414(4) 0.90182(8) 0.02224(3)
Ag2C Ag 1.21244(5) 1.53220(9) 0.76185(3)
O4C O 0.7144(3) 0.7715(7) 0.5347(2)
loop_
_geom_bond_atom_site_label_1
_geom_bond_atom_site_label_2
_geom_bond_site_symmetry_1
_geom_bond_site_symmetry_2
N1 C1 1_555 1_555
C1 H1 1_555 1_555
C2 C1 1_555 1_555
H2 C2 1_555 1_555
C3 C2 1_555 1_555
C4 H3 1_555 1_555
N2 C4 1_555 1_555
C5 N2 1_555 1_555
H4 C5 1_555 1_555
C6 C5 1_555 1_555
H5 C6 1_555 1_555
C7 C4 1_555 1_555
H6 C7 1_555 1_555
C8 C6 1_555 1_555
Ag1 O2 1_555 1_555
Ag2 N4 1_555 1_555
O1 C10 1_555 1_555
O2 C19 1_555 1_555
O3 C19 1_555 1_555
O4 C11 1_555 1_555
C9 C14 1_555 1_555
O5 C11 1_555 1_555
C10 C25 1_555 1_555
C11 C16 1_555 1_555
C12 C18 1_555 1_555
N3 Ag1 1_555 1_555
C13 C24 1_555 1_555
C14 H7 1_555 1_555
C15 H8 1_555 1_555
H9 C15 1_555 1_555
C16 C20 1_555 1_555
N4 C33 1_555 1_555
C17 C9 1_555 1_555
H10 C17 1_555 1_555
H11 C17 1_555 1_555
C18 C19 1_555 1_555
O6 Ag2 1_555 1_555
C20 H12 1_555 1_555
C21 C12 1_555 1_555
C22 O1 1_555 1_555
C23 N1 1_555 1_555
H13 C23 1_555 1_555
C24 H14 1_555 1_555
C25 H15 1_555 1_555
C26 C22 1_555 1_555
H16 C26 1_555 1_555
C27 H17 1_555 1_555
H18 C27 1_555 1_555
O7 C21 1_555 1_555
C28 N3 1_555 1_555
H19 C28 1_555 1_555
C29 N3 1_555 1_555
H20 C29 1_555 1_555
C30 C16 1_555 1_555
H21 C30 1_555 1_555
C31 C26 1_555 1_555
H22 C31 1_555 1_555
C32 C3 1_555 1_555
H23 C32 1_555 1_555
C33 H24 1_555 1_555
C34 C9 1_555 1_555
H25 C34 1_555 1_555
C35 N4 1_555 1_555
H26 C35 1_555 1_555
C36 C3 1_555 1_555
H27 C36 1_555 1_555
H28 C36 1_555 1_555
C37 C10 1_555 1_555
H29 C37 1_555 1_555
C38 C13 1_555 1_555
H30 C38 1_555 1_555
H31 C38 1_555 1_555
C39 C18 1_555 1_555
H32 C39 1_555 1_555
C40 C13 1_555 1_555
H33 C40 1_555 1_555
C41 C8 1_555 1_555
H34 C41 1_555 1_555
H35 C41 1_555 1_555
N1C Ag1 1_555 1_555
N2C Ag2 1_555 1_555
Ag1C N1 1_555 1_555
Ag2C N2 1_555 1_555
O4C Ag1 1_555 1_555
C7 C8 1_555 1_555
O4 Ag1C 1_555 1_555
C12 C22 1_555 1_555
C14 C28 1_555 1_555
C15 C17 1_555 1_555
C15 C36 1_555 1_555
O6 C21 1_555 1_555
C20 C37 1_555 1_555
C23 C32 1_555 1_555
C24 C35 1_555 1_555
C25 C30 1_555 1_555
C27 C38 1_555 1_555
C27 C41 1_555 1_555
C29 C34 1_555 1_555
C31 C39 1_555 1_555
C33 C40 1_555 1_555

#END
