
#######################################################################
#
#                 Cambridge Crystallographic Data Centre
#                                CCDC 
#
#######################################################################
#
# If this CIF has been generated from an entry in the Cambridge 
# Structural Database, then it will include bibliographic, chemical, 
# crystal, experimental, refinement or atomic coordinate data resulting 
# from the CCDC's data processing and validation procedures.
#
#######################################################################

data_NEXNUA
_symmetry_cell_setting           triclinic
_symmetry_space_group_name_H-M   'P -1'
_symmetry_Int_Tables_number      2
_space_group_name_Hall           '-P 1'
loop_
_symmetry_equiv_pos_site_id
_symmetry_equiv_pos_as_xyz
1 x,y,z
2 -x,-y,-z
_cell_length_a                   8.5369(2)
_cell_length_b                   10.9222(3)
_cell_length_c                   12.9272(5)
_cell_angle_alpha                101.0173(10)
_cell_angle_beta                 95.5610(10)
_cell_angle_gamma                110.7018(12)
_cell_volume                     1088.85
loop_
_atom_site_label
_atom_site_type_symbol
_atom_site_fract_x
_atom_site_fract_y
_atom_site_fract_z
Mn1 Mn 0.46211(5) 1.29179(4) 0.70787(3)
Cr1 Cr 0.43457(5) 0.78383(4) 0.69894(4)
O1 O 0.4690(4) 1.3407(3) 0.8824(2)
O2 O 0.1841(3) 1.2015(3) 0.6967(3)
N1 N 0.4504(3) 1.0835(2) 0.7034(2)
N2 N 0.4551(3) 1.2478(3) 0.5312(2)
N3 N 0.8160(4) 0.9132(4) 0.8290(3)
N4 N 0.4439(3) 1.4910(2) 0.7022(2)
N5 N 0.3211(3) 0.7855(2) 0.83323(19)
N6 N 0.1799(3) 0.7120(2) 0.62990(19)
N7 N 0.7404(3) 1.3673(3) 0.7468(2)
N8 N 1.0322(4) 1.3871(4) 0.7960(3)
N9 N 1.2304(5) 1.4905(4) 0.9660(3)
C1 C 0.4471(4) 0.9788(3) 0.7003(2)
C2 C 0.4869(4) 1.2329(3) 0.4478(3)
C3 C 0.6802(4) 0.8664(3) 0.7816(3)
C4 C 0.4357(4) 1.5917(3) 0.7003(2)
C5 C 0.4028(5) 0.8263(3) 0.9350(3)
H1 H 0.5205 0.8533 0.9487
C6 C 0.3172(5) 0.8296(3) 1.0203(3)
H2 H 0.3770 0.8595 1.0902
C7 C 0.1459(6) 0.7890(4) 1.0012(3)
H3 H 0.0871 0.7926 1.0579
C8 C 0.0594(5) 0.7425(3) 0.8975(3)
H4 H -0.0588 0.7110 0.8834
C9 C 0.1499(4) 0.7427(3) 0.8138(2)
C10 C 0.0699(4) 0.7002(3) 0.6999(3)
C11 C -0.1046(4) 0.6530(3) 0.6643(3)
H5 H -0.1793 0.6431 0.7128
C12 C -0.1651(4) 0.6211(3) 0.5556(3)
H6 H -0.2815 0.5896 0.5301
C13 C -0.0535(4) 0.6359(3) 0.4854(3)
H7 H -0.0926 0.6149 0.4121
C14 C 0.1163(4) 0.6821(3) 0.5252(2)
H8 H 0.1917 0.6935 0.4772
C15 C 0.8769(4) 1.3804(3) 0.7757(3)
C16 C 1.1315(4) 1.4458(3) 0.8889(3)
H9 H 0.131(5) 1.260(3) 0.728(4)
H10 H 0.098(4) 1.121(3) 0.657(4)
H11 H 0.565(6) 1.319(8) 0.898(8)
H12 H 0.375(5) 1.281(5) 0.903(5)
Cr1A Cr 0.56543(5) 1.21617(4) 0.30106(4)
Cr1_2 Cr 0.43457(5) 1.78383(4) 0.69894(4)
C2A C 0.5131(4) 0.7671(3) 0.5522(3)
C4_2 C 0.4357(4) 0.5917(3) 0.7003(2)
O3 O 1.1717(5) 1.0965(4) 0.9092(4)
O4 O -0.0682(19) 0.9936(17) 0.5520(16)
loop_
_geom_bond_atom_site_label_1
_geom_bond_atom_site_label_2
_geom_bond_site_symmetry_1
_geom_bond_site_symmetry_2
Mn1 O1 1_555 1_555
Cr1 N5 1_555 1_555
O1 H11 1_555 1_555
O2 Mn1 1_555 1_555
N1 Mn1 1_555 1_555
N2 Mn1 1_555 1_555
N3 C3 1_555 1_555
N4 Mn1 1_555 1_555
N5 C5 1_555 1_555
N6 Cr1 1_555 1_555
N7 Mn1 1_555 1_555
N8 C15 1_555 1_555
N9 C16 1_555 1_555
C1 Cr1 1_555 1_555
C2 N2 1_555 1_555
C3 Cr1 1_555 1_555
C4 N4 1_555 1_555
C5 H1 1_555 1_555
C6 C5 1_555 1_555
H2 C6 1_555 1_555
C7 C6 1_555 1_555
H3 C7 1_555 1_555
C8 C7 1_555 1_555
H4 C8 1_555 1_555
C9 N5 1_555 1_555
C10 N6 1_555 1_555
C11 C10 1_555 1_555
H5 C11 1_555 1_555
C12 C11 1_555 1_555
H6 C12 1_555 1_555
C13 C12 1_555 1_555
H7 C13 1_555 1_555
C14 N6 1_555 1_555
H8 C14 1_555 1_555
C15 N7 1_555 1_555
C16 N8 1_555 1_555
H9 O2 1_555 1_555
H10 O2 1_555 1_555
H12 O1 1_555 1_555
Cr1A C2 1_555 1_555
Cr1_2 C4 1_555 1_555
C2A Cr1 1_555 1_555
C4_2 Cr1 1_555 1_555
N1 C1 1_555 1_555
C8 C9 1_555 1_555
C9 C10 1_555 1_555
C13 C14 1_555 1_555

#END
