
#######################################################################
#
#                 Cambridge Crystallographic Data Centre
#                                CCDC 
#
#######################################################################
#
# If this CIF has been generated from an entry in the Cambridge 
# Structural Database, then it will include bibliographic, chemical, 
# crystal, experimental, refinement or atomic coordinate data resulting 
# from the CCDC's data processing and validation procedures.
#
#######################################################################

data_NEXQOX
_symmetry_cell_setting           monoclinic
_symmetry_space_group_name_H-M   'C 2/c'
_symmetry_Int_Tables_number      15
_space_group_name_Hall           '-C 2yn'
loop_
_symmetry_equiv_pos_site_id
_symmetry_equiv_pos_as_xyz
1 x,y,z
2 1/2+x,1/2+y,z
3 -x,y,1/2-z
4 1/2-x,1/2+y,1/2-z
5 -x,-y,-z
6 1/2-x,1/2-y,-z
7 x,-y,1/2+z
8 1/2+x,1/2-y,1/2+z
_cell_length_a                   28.0983(3)
_cell_length_b                   7.43520(10)
_cell_length_c                   25.2142(3)
_cell_angle_alpha                90
_cell_angle_beta                 94.923(5)
_cell_angle_gamma                90
_cell_volume                     5248.23
loop_
_atom_site_label
_atom_site_type_symbol
_atom_site_fract_x
_atom_site_fract_y
_atom_site_fract_z
Ag1 Ag 0.5000 0.46491(3) 0.2500
Ag2 Ag 0.5000 1.05939(3) 0.2500
N1 N 0.52541(6) 0.4370(2) 0.17149(6)
C1 C 0.49579(7) 0.3856(3) 0.12966(7)
H1 H 0.4632 0.3638 0.1351
C2 C 0.51029(8) 0.3626(3) 0.07917(8)
H2 H 0.4882 0.3269 0.0505
C3 C 0.55757(8) 0.3928(3) 0.07140(8)
H3 H 0.5688 0.3752 0.0373
C4 C 0.58850(8) 0.4491(3) 0.11379(8)
H4 H 0.6211 0.4716 0.1090
C5 C 0.57133(7) 0.4724(2) 0.16348(7)
C6 C 0.60428(7) 0.5350(2) 0.20794(8)
H5 H 0.6377 0.5369 0.2044
N2 N 0.58831(5) 0.5872(2) 0.25173(6)
N3 N 0.62001(6) 0.6391(2) 0.29292(6)
C7 C 0.67151(7) 0.6291(3) 0.28930(9)
H6 H 0.6807 0.5042 0.2831
H7 H 0.6882 0.6720 0.3227
H8 H 0.6803 0.7045 0.2598
C8 C 0.60071(7) 0.7034(3) 0.33788(8)
N4 N 0.63030(7) 0.7083(3) 0.38287(7)
C9 C 0.61022(9) 0.7631(3) 0.42618(9)
H9 H 0.6307 0.7652 0.4582
N5 N 0.56566(7) 0.8149(3) 0.43069(7)
C10 C 0.53767(7) 0.8187(3) 0.38456(7)
C11 C 0.55365(7) 0.7619(2) 0.33667(7)
H10 H 0.5333 0.7629 0.3046
N6 N 0.49174(6) 0.8833(2) 0.38753(6)
C12 C 0.46892(9) 0.8857(3) 0.43736(8)
H11 H 0.4571 1.0071 0.4438
H12 H 0.4922 0.8508 0.4667
H13 H 0.4422 0.8008 0.4351
N7 N 0.46800(6) 0.9354(2) 0.34082(6)
C13 C 0.42419(7) 0.9839(3) 0.34034(7)
H14 H 0.4086 0.9799 0.3723
C14 C 0.39809(7) 1.0454(2) 0.29095(7)
N8 N 0.42210(5) 1.0816(2) 0.24801(6)
C15 C 0.39626(7) 1.1301(3) 0.20280(8)
H15 H 0.4127 1.1550 0.1723
C16 C 0.34715(7) 1.1456(3) 0.19848(8)
H16 H 0.3303 1.1786 0.1656
C17 C 0.32300(7) 1.1123(3) 0.24282(9)
H17 H 0.2892 1.1233 0.2412
C18 C 0.34884(7) 1.0627(3) 0.28949(9)
H18 H 0.3329 1.0404 0.3206
Ag1_2 Ag 0.5000 1.46491(3) 0.2500
Ag2_2 Ag 0.5000 0.05939(3) 0.2500
N1B N 0.47459(6) 0.4370(2) 0.32851(6)
C1B C 0.50421(7) 0.3856(3) 0.37034(7)
H1B H 0.5368 0.3638 0.3649
C2B C 0.48971(8) 0.3626(3) 0.42083(8)
H2B H 0.5118 0.3269 0.4495
C3B C 0.44243(8) 0.3928(3) 0.42860(8)
H3B H 0.4312 0.3752 0.4627
C4B C 0.41150(8) 0.4491(3) 0.38621(8)
H4B H 0.3789 0.4716 0.3910
C5B C 0.42867(7) 0.4724(2) 0.33652(7)
C6B C 0.39572(7) 0.5350(2) 0.29206(8)
H5B H 0.3623 0.5369 0.2956
N2B N 0.41169(5) 0.5872(2) 0.24827(6)
N3B N 0.37999(6) 0.6391(2) 0.20708(6)
C7B C 0.32849(7) 0.6291(3) 0.21070(9)
H6B H 0.3193 0.5042 0.2169
H7B H 0.3118 0.6720 0.1773
H8B H 0.3197 0.7045 0.2402
C8B C 0.39929(7) 0.7034(3) 0.16212(8)
N4B N 0.36970(7) 0.7083(3) 0.11713(7)
C9B C 0.38978(9) 0.7631(3) 0.07382(9)
H9B H 0.3693 0.7652 0.0418
N5B N 0.43434(7) 0.8149(3) 0.06931(7)
C10B C 0.46233(7) 0.8187(3) 0.11544(7)
C11B C 0.44635(7) 0.7619(2) 0.16333(7)
H10B H 0.4667 0.7629 0.1954
N6B N 0.50826(6) 0.8833(2) 0.11247(6)
C12B C 0.53108(9) 0.8857(3) 0.06264(8)
H11B H 0.5429 1.0071 0.0562
H12B H 0.5078 0.8508 0.0333
H13B H 0.5578 0.8008 0.0649
N7B N 0.53200(6) 0.9354(2) 0.15918(6)
C13B C 0.57581(7) 0.9839(3) 0.15966(7)
H14B H 0.5914 0.9799 0.1277
C14B C 0.60191(7) 1.0454(2) 0.20905(7)
N8B N 0.57790(5) 1.0816(2) 0.25199(6)
C15B C 0.60374(7) 1.1301(3) 0.29720(8)
H15B H 0.5873 1.1550 0.3277
C16B C 0.65285(7) 1.1456(3) 0.30152(8)
H16B H 0.6697 1.1786 0.3344
C17B C 0.67700(7) 1.1123(3) 0.25718(9)
H17B H 0.7108 1.1233 0.2588
C18B C 0.65116(7) 1.0627(3) 0.21051(9)
H18B H 0.6671 1.0404 0.1794
B1 B 0.71849(9) 0.7046(4) 0.13801(11)
F1 F 0.74659(8) 0.6612(4) 0.09825(8)
F2 F 0.71244(6) 0.5523(2) 0.16836(7)
F3 F 0.74002(6) 0.8336(3) 0.17173(9)
F4 F 0.67446(6) 0.7679(2) 0.11736(7)
C19 C 0.74084(12) 0.2016(5) 0.09466(11)
H19 H 0.7284 0.2782 0.1219
H20 H 0.7667 0.2645 0.0787
H21 H 0.7531 0.0893 0.1110
N9 N 0.70239(10) 0.1608(4) 0.05328(10)
O1 O 0.71376(11) 0.0871(5) 0.01218(10)
O2 O 0.66211(10) 0.1895(6) 0.06148(12)
C20 C 0.68027(12) 0.6768(7) 0.97911(15)
H22 H 0.6828 0.6131 1.0133
H23 H 0.6951 0.7958 0.9838
H24 H 0.6967 0.6078 0.9531
N10 N 0.62984(8) 0.6975(3) 0.96004(8)
O3 O 0.61911(10) 0.7572(4) 0.91679(10)
O4 O 0.60121(8) 0.6434(4) 0.98874(9)
loop_
_geom_bond_atom_site_label_1
_geom_bond_atom_site_label_2
_geom_bond_site_symmetry_1
_geom_bond_site_symmetry_2
Ag1 N1 1_555 1_555
Ag2 N7 1_555 1_555
N1 C1 1_555 1_555
C1 H1 1_555 1_555
C2 C1 1_555 1_555
H2 C2 1_555 1_555
C3 C2 1_555 1_555
H3 C3 1_555 1_555
C4 C3 1_555 1_555
H4 C4 1_555 1_555
C5 N1 1_555 1_555
C6 C5 1_555 1_555
H5 C6 1_555 1_555
N2 Ag1 1_555 1_555
N3 N2 1_555 1_555
C7 N3 1_555 1_555
H6 C7 1_555 1_555
H7 C7 1_555 1_555
H8 C7 1_555 1_555
C8 N3 1_555 1_555
N4 C8 1_555 1_555
C9 N4 1_555 1_555
H9 C9 1_555 1_555
N5 C9 1_555 1_555
C10 N5 1_555 1_555
C11 C8 1_555 1_555
H10 C11 1_555 1_555
N6 C10 1_555 1_555
C12 N6 1_555 1_555
H11 C12 1_555 1_555
H12 C12 1_555 1_555
H13 C12 1_555 1_555
N7 N6 1_555 1_555
C13 N7 1_555 1_555
H14 C13 1_555 1_555
C14 C13 1_555 1_555
N8 Ag2 1_555 1_555
C15 N8 1_555 1_555
H15 C15 1_555 1_555
C16 C15 1_555 1_555
H16 C16 1_555 1_555
C17 C16 1_555 1_555
H17 C17 1_555 1_555
C18 C14 1_555 1_555
H18 C18 1_555 1_555
B1 F1 1_555 1_555
F2 B1 1_555 1_555
F3 B1 1_555 1_555
F4 B1 1_555 1_555
C19 H19 1_555 1_555
H20 C19 1_555 1_555
H21 C19 1_555 1_555
N9 C19 1_555 1_555
O1 N9 1_555 1_555
O2 N9 1_555 1_555
C20 H22 1_555 1_555
H23 C20 1_555 1_555
H24 C20 1_555 1_555
N10 C20 1_555 1_555
O3 N10 1_555 1_555
O4 N10 1_555 1_555
Ag1_2 Ag2 1_555 1_555
Ag2_2 Ag1 1_555 1_555
N1B Ag1 1_555 1_555
C1B N1B 1_555 1_555
H1B C1B 1_555 1_555
C2B C1B 1_555 1_555
H2B C2B 1_555 1_555
C3B C2B 1_555 1_555
H3B C3B 1_555 1_555
C4B C3B 1_555 1_555
H4B C4B 1_555 1_555
C5B N1B 1_555 1_555
C6B C5B 1_555 1_555
H5B C6B 1_555 1_555
N2B Ag1 1_555 1_555
N3B N2B 1_555 1_555
C7B N3B 1_555 1_555
H6B C7B 1_555 1_555
H7B C7B 1_555 1_555
H8B C7B 1_555 1_555
C8B N3B 1_555 1_555
N4B C8B 1_555 1_555
C9B N4B 1_555 1_555
H9B C9B 1_555 1_555
N5B C9B 1_555 1_555
C10B N5B 1_555 1_555
C11B C8B 1_555 1_555
H10B C11B 1_555 1_555
N6B C10B 1_555 1_555
C12B N6B 1_555 1_555
H11B C12B 1_555 1_555
H12B C12B 1_555 1_555
H13B C12B 1_555 1_555
N7B Ag2 1_555 1_555
C13B N7B 1_555 1_555
H14B C13B 1_555 1_555
C14B C13B 1_555 1_555
N8B Ag2 1_555 1_555
C15B N8B 1_555 1_555
H15B C15B 1_555 1_555
C16B C15B 1_555 1_555
H16B C16B 1_555 1_555
C17B C16B 1_555 1_555
H17B C17B 1_555 1_555
C18B C14B 1_555 1_555
H18B C18B 1_555 1_555
C4 C5 1_555 1_555
C6 N2 1_555 1_555
C10 C11 1_555 1_555
C14 N8 1_555 1_555
C17 C18 1_555 1_555
C4B C5B 1_555 1_555
C6B N2B 1_555 1_555
C10B C11B 1_555 1_555
N6B N7B 1_555 1_555
C14B N8B 1_555 1_555
C17B C18B 1_555 1_555

#END
