
#######################################################################
#
#                 Cambridge Crystallographic Data Centre
#                                CCDC 
#
#######################################################################
#
# If this CIF has been generated from an entry in the Cambridge 
# Structural Database, then it will include bibliographic, chemical, 
# crystal, experimental, refinement or atomic coordinate data resulting 
# from the CCDC's data processing and validation procedures.
#
#######################################################################

data_NEXXOE
_symmetry_cell_setting           monoclinic
_symmetry_space_group_name_H-M   'C 2/m'
_symmetry_Int_Tables_number      12
_space_group_name_Hall           '-C 2y'
loop_
_symmetry_equiv_pos_site_id
_symmetry_equiv_pos_as_xyz
1 x,y,z
2 1/2+x,1/2+y,z
3 -x,y,-z
4 1/2-x,1/2+y,-z
5 -x,-y,-z
6 1/2-x,1/2-y,-z
7 x,-y,z
8 1/2+x,1/2-y,z
_cell_length_a                   20.913(2)
_cell_length_b                   14.8336(15)
_cell_length_c                   18.2903(19)
_cell_angle_alpha                90
_cell_angle_beta                 118.808(2)
_cell_angle_gamma                90
_cell_volume                     4971.72
loop_
_atom_site_label
_atom_site_type_symbol
_atom_site_fract_x
_atom_site_fract_y
_atom_site_fract_z
Ag1 Ag 0.69786(6) 0.5000 0.93718(6)
Ag2 Ag 0.5000 0.87708(8) 0.5000
C1 C 0.7447(5) 0.6764(8) 0.8484(6)
H1 H 0.7855 0.6405 0.8861
H2 H 0.7620 0.7317 0.8369
H3 H 0.7167 0.6438 0.7974
C2 C 0.6967(4) 0.6975(5) 0.8879(4)
C3 C 0.6414(4) 0.6854(6) 0.9581(4)
H4 H 0.6216 0.6604 0.9894
C4 C 0.6338(4) 0.7675(6) 0.9346(5)
H5 H 0.6097 0.8124 0.9473
C5 C 0.6688(5) 0.8618(5) 0.8457(5)
H6 H 0.6684 0.9126 0.8789
H7 H 0.7134 0.8649 0.8419
C6 C 0.6675(9) 0.8437(12) 0.6740(9)
H8 H 0.6583 0.8680 0.6211
H9 H 0.6752 0.7798 0.6746
H10 H 0.7102 0.8717 0.7178
C7 C 0.6044(8) 0.8616(6) 0.6868(6)
C8 C 0.5359(6) 0.8786(7) 0.7468(6)
H11 H 0.5189 0.8798 0.7853
C9 C 0.4979(8) 0.8863(7) 0.6665(6)
H12 H 0.4481 0.8985 0.6380
N1 N 0.6829(4) 0.6388(4) 0.9305(4)
N2 N 0.6677(3) 0.7773(4) 0.8872(3)
N3 N 0.6067(4) 0.8681(3) 0.7630(3)
N4 N 0.5397(6) 0.8745(4) 0.6292(4)
Ag2F Ag 0.5000 0.12292(8) 0.5000
C1F C 0.7447(5) 0.3236(8) 0.8484(6)
H1F H 0.7855 0.3595 0.8861
H2F H 0.7620 0.2683 0.8369
H3F H 0.7167 0.3562 0.7974
C2F C 0.6967(4) 0.3025(5) 0.8879(4)
C3F C 0.6414(4) 0.3146(6) 0.9581(4)
H4F H 0.6216 0.3396 0.9894
C4F C 0.6338(4) 0.2325(6) 0.9346(5)
H5F H 0.6097 0.1876 0.9473
C5F C 0.6688(5) 0.1382(5) 0.8457(5)
H6F H 0.6684 0.0874 0.8789
H7F H 0.7134 0.1351 0.8419
C6F C 0.6675(9) 0.1563(12) 0.6740(9)
H8F H 0.6583 0.1320 0.6211
H9F H 0.6752 0.2202 0.6746
H10F H 0.7102 0.1283 0.7178
C7F C 0.6044(8) 0.1384(6) 0.6868(6)
C8F C 0.5359(6) 0.1214(7) 0.7468(6)
H11F H 0.5189 0.1202 0.7853
C9F C 0.4979(8) 0.1137(7) 0.6665(6)
H12F H 0.4481 0.1015 0.6380
N1F N 0.6829(4) 0.3612(4) 0.9305(4)
N2F N 0.6677(3) 0.2227(4) 0.8872(3)
N3F N 0.6067(4) 0.1319(3) 0.7630(3)
N4F N 0.5397(6) 0.1255(4) 0.6292(4)
N4B N 0.4603(6) 0.8745(4) 0.3708(4)
Ag3 Ag 0.5000 0.63062(6) 0.5000
Ag4 Ag 0.61766(7) 1.0000 0.18220(7)
C10 C 0.6499(6) 0.6625(14) 0.4700(6)
H13 H 0.6461 0.7157 0.4975
H14 H 0.6871 0.6710 0.4541
H15 H 0.6624 0.6120 0.5072
C11 C 0.5799(4) 0.6453(6) 0.3954(4)
C12 C 0.4661(5) 0.6240(6) 0.3135(6)
H16 H 0.4165 0.6159 0.2947
C13 C 0.4957(5) 0.6262(6) 0.2654(5)
H17 H 0.4719 0.6211 0.2076
C14 C 0.6264(6) 0.6433(8) 0.2908(6)
H18 H 0.6739 0.6471 0.3401
H19 H 0.6254 0.5892 0.2605
C15 C 0.6885(7) 0.8331(12) 0.3462(6)
H20 H 0.7195 0.8819 0.3483
H21 H 0.7177 0.7809 0.3724
H22 H 0.6622 0.8501 0.3749
C16 C 0.6356(5) 0.8119(11) 0.2572(5)
C17 C 0.5691(5) 0.8027(10) 0.1229(5)
H23 H 0.5456 0.8213 0.0675
C18 C 0.5687(6) 0.7213(9) 0.1481(5)
H24 H 0.5435 0.6720 0.1154
N5 N 0.5173(3) 0.6350(4) 0.3952(4)
N6 N 0.5687(4) 0.6374(4) 0.3163(4)
N7 N 0.6154(5) 0.7226(8) 0.2377(5)
N8 N 0.6105(4) 0.8591(6) 0.1918(5)
Ag4D Ag 0.38234(7) 1.0000 0.81780(7)
C10B C 0.3501(6) 0.6625(14) 0.5300(6)
H13B H 0.3539 0.7157 0.5025
H14B H 0.3129 0.6710 0.5459
H15B H 0.3376 0.6120 0.4928
C11B C 0.4201(4) 0.6453(6) 0.6046(4)
C12B C 0.5339(5) 0.6240(6) 0.6865(6)
H16B H 0.5835 0.6159 0.7053
C13B C 0.5043(5) 0.6262(6) 0.7346(5)
H17B H 0.5281 0.6211 0.7924
C14B C 0.3736(6) 0.6433(8) 0.7092(6)
H18B H 0.3261 0.6471 0.6599
H19B H 0.3746 0.5892 0.7395
C15B C 0.3115(7) 0.8331(12) 0.6538(6)
H20B H 0.2805 0.8819 0.6517
H21B H 0.2823 0.7809 0.6276
H22B H 0.3378 0.8501 0.6251
C16B C 0.3644(5) 0.8119(11) 0.7428(5)
C17B C 0.4309(5) 0.8027(10) 0.8771(5)
H23B H 0.4544 0.8213 0.9325
C18B C 0.4313(6) 0.7213(9) 0.8519(5)
H24B H 0.4565 0.6720 0.8846
N5B N 0.4827(3) 0.6350(4) 0.6048(4)
N6B N 0.4313(4) 0.6374(4) 0.6837(4)
N7B N 0.3846(5) 0.7226(8) 0.7623(5)
N8B N 0.3895(4) 0.8591(6) 0.8082(5)
N8F N 0.6105(4) 1.1409(6) 0.1918(5)
N9 N 0.6609(5) 0.5000 0.1222(7)
O1 O 0.6810(12) 0.5000 0.1966(9)
O2 O 0.7053(8) 0.5000 0.0979(9)
O3 O 0.5961(7) 0.5000 0.0729(14)
N10 N 0.6903(6) 1.0000 0.5292(7)
O4 O 0.7522(6) 1.0000 0.5833(8)
O6 O 0.6783(8) 0.9194(6) 0.5104(7)
O6F O 0.6783(8) 1.0806(6) 0.5104(7)
N11 N 0.3346(10) 0.5000 0.3468(12)
O8 O 0.2883(11) 0.5000 0.2785(13)
O9 O 0.3335(9) 0.4044(11) 0.3505(8)
O9F O 0.3335(9) 0.5956(11) 0.3505(8)
N12 N 0.5983(5) 1.0000 0.9849(5)
O11 O 0.6109(15) 1.0000 0.9351(11)
O12 O 0.6030(13) 0.9488(8) 1.0269(9)
O12F O 0.6030(13) 1.0512(8) 1.0269(9)
O10 O 0.4795(9) 0.5000 0.0870(9)
O5? O 0.6240(7) 1.0000 0.4925(12)
O7? O 0.3849(9) 0.5000 0.4149(10)
loop_
_geom_bond_atom_site_label_1
_geom_bond_atom_site_label_2
_geom_bond_site_symmetry_1
_geom_bond_site_symmetry_2
Ag1 N1 1_555 1_555
Ag2 N4 1_555 1_555
Ag3 N5 1_555 1_555
Ag4 N8 1_555 1_555
C1 H1 1_555 1_555
H2 C1 1_555 1_555
H3 C1 1_555 1_555
C2 C1 1_555 1_555
C3 H4 1_555 1_555
C4 C3 1_555 1_555
H5 C4 1_555 1_555
C5 H6 1_555 1_555
H7 C5 1_555 1_555
C6 H8 1_555 1_555
H9 C6 1_555 1_555
H10 C6 1_555 1_555
C7 C6 1_555 1_555
C8 H11 1_555 1_555
C9 C8 1_555 1_555
H12 C9 1_555 1_555
C10 H13 1_555 1_555
H14 C10 1_555 1_555
H15 C10 1_555 1_555
C11 C10 1_555 1_555
C12 H16 1_555 1_555
C13 C12 1_555 1_555
H17 C13 1_555 1_555
C14 H18 1_555 1_555
H19 C14 1_555 1_555
C15 H20 1_555 1_555
H21 C15 1_555 1_555
H22 C15 1_555 1_555
C16 C15 1_555 1_555
C17 H23 1_555 1_555
C18 C17 1_555 1_555
H24 C18 1_555 1_555
N1 C2 1_555 1_555
N2 C2 1_555 1_555
N3 C5 1_555 1_555
N4 C7 1_555 1_555
N5 C11 1_555 1_555
N6 C11 1_555 1_555
N7 C14 1_555 1_555
N8 C16 1_555 1_555
N9 O1 1_555 1_555
N10 O4 1_555 1_555
N11 O8 1_555 1_555
N12 O11 1_555 1_555
O2 N9 1_555 1_555
O3 N9 1_555 1_555
O6 N10 1_555 1_555
O9 N11 1_555 1_555
O12 N12 1_555 1_555
Ag2F N4F 1_555 1_555
Ag4D N8B 1_555 1_555
C1F H1F 1_555 1_555
H2F C1F 1_555 1_555
H3F C1F 1_555 1_555
C2F C1F 1_555 1_555
C3F H4F 1_555 1_555
C4F C3F 1_555 1_555
H5F C4F 1_555 1_555
C5F H6F 1_555 1_555
H7F C5F 1_555 1_555
C6F H8F 1_555 1_555
H9F C6F 1_555 1_555
H10F C6F 1_555 1_555
C7F C6F 1_555 1_555
C8F H11F 1_555 1_555
C9F C8F 1_555 1_555
H12F C9F 1_555 1_555
C10B H13B 1_555 1_555
H14B C10B 1_555 1_555
H15B C10B 1_555 1_555
C11B C10B 1_555 1_555
C12B H16B 1_555 1_555
C13B C12B 1_555 1_555
H17B C13B 1_555 1_555
C14B H18B 1_555 1_555
H19B C14B 1_555 1_555
C15B H20B 1_555 1_555
H21B C15B 1_555 1_555
H22B C15B 1_555 1_555
C16B C15B 1_555 1_555
C17B H23B 1_555 1_555
C18B C17B 1_555 1_555
H24B C18B 1_555 1_555
N1F Ag1 1_555 1_555
N2F C2F 1_555 1_555
N3F C5F 1_555 1_555
N4F C7F 1_555 1_555
N4B Ag2 1_555 1_555
N5B Ag3 1_555 1_555
N6B C11B 1_555 1_555
N7B C14B 1_555 1_555
N8B C16B 1_555 1_555
N8F Ag4 1_555 1_555
O6F N10 1_555 1_555
O9F N11 1_555 1_555
O12F N12 1_555 1_555
C3 N1 1_555 1_555
C4 N2 1_555 1_555
C5 N2 1_555 1_555
C7 N3 1_555 1_555
C8 N3 1_555 1_555
C9 N4 1_555 1_555
C12 N5 1_555 1_555
C13 N6 1_555 1_555
C14 N6 1_555 1_555
C16 N7 1_555 1_555
C17 N8 1_555 1_555
C18 N7 1_555 1_555
C2F N1F 1_555 1_555
C3F N1F 1_555 1_555
C4F N2F 1_555 1_555
C5F N2F 1_555 1_555
C7F N3F 1_555 1_555
C8F N3F 1_555 1_555
C9F N4F 1_555 1_555
C11B N5B 1_555 1_555
C12B N5B 1_555 1_555
C13B N6B 1_555 1_555
C14B N6B 1_555 1_555
C16B N7B 1_555 1_555
C17B N8B 1_555 1_555
C18B N7B 1_555 1_555

#END
