
#######################################################################
#
#                 Cambridge Crystallographic Data Centre
#                                CCDC 
#
#######################################################################
#
# If this CIF has been generated from an entry in the Cambridge 
# Structural Database, then it will include bibliographic, chemical, 
# crystal, experimental, refinement or atomic coordinate data resulting 
# from the CCDC's data processing and validation procedures.
#
#######################################################################

data_NEXZIB
_symmetry_cell_setting           triclinic
_symmetry_space_group_name_H-M   'P -1'
_symmetry_Int_Tables_number      2
_space_group_name_Hall           '-P 1'
loop_
_symmetry_equiv_pos_site_id
_symmetry_equiv_pos_as_xyz
1 x,y,z
2 -x,-y,-z
_cell_length_a                   8.8849(7)
_cell_length_b                   9.3061(7)
_cell_length_c                   13.8627(10)
_cell_angle_alpha                89.536(9)
_cell_angle_beta                 84.924(9)
_cell_angle_gamma                64.523(8)
_cell_volume                     1030.13
loop_
_atom_site_label
_atom_site_type_symbol
_atom_site_fract_x
_atom_site_fract_y
_atom_site_fract_z
Ni1 Ni 0.37086(5) 1.59852(5) 0.32144(3)
Ni2 Ni 0.10073(5) 1.84333(5) 0.17761(3)
N1 N 0.2344(3) 1.8370(3) 0.37063(19)
N2 N 0.1259(3) 1.9356(3) 0.31161(19)
C1 C 0.2600(4) 1.8964(4) 0.4515(2)
H1 H 0.3364 1.8257 0.4929
C2 C 0.1792(5) 2.0582(5) 0.4779(3)
H2 H 0.1996 2.0973 0.5360
C3 C 0.0700(5) 2.1583(5) 0.4175(3)
H3 H 0.0133 2.2698 0.4311
C4 C 0.0454(5) 2.0890(4) 0.3346(3)
H4 H -0.0332 2.1559 0.2929
N3 N 0.3606(3) 1.7794(3) 0.14264(18)
N4 N 0.4682(3) 1.6850(3) 0.20332(19)
C5 C 0.4195(4) 1.8308(4) 0.0651(2)
H5 H 0.3420 1.9001 0.0236
C6 C 0.5902(4) 1.7875(4) 0.0416(3)
H6 H 0.6289 1.8241 -0.0152
C7 C 0.6991(4) 1.6908(5) 0.1034(3)
H7 H 0.8164 1.6574 0.0910
C8 C 0.6323(4) 1.6430(4) 0.1852(2)
H8 H 0.7060 1.5779 0.2298
N5 N -0.0389(4) 1.9463(3) -0.1083(2)
C9 C 0.0188(4) 1.8461(4) -0.0538(2)
S1 S 0.10225(10) 1.70119(9) 0.02188(6)
N6 N -0.1441(3) 1.9049(3) 0.2223(2)
C10 C -0.2761(4) 1.9524(4) 0.2623(3)
S2 S -0.46523(12) 2.02209(13) 0.32020(9)
N7 N 0.1775(3) 1.6212(3) 0.23974(18)
C11 C 0.1344(4) 1.5200(4) 0.2239(2)
S3 S 0.08362(14) 1.38033(12) 0.19825(8)
N8 N 0.4394(3) 1.4305(4) 0.5987(2)
C12 C 0.3548(4) 1.4528(4) 0.5359(2)
S4 S 0.23612(10) 1.48374(10) 0.44583(6)
O1 O 0.5184(3) 1.3659(3) 0.26328(17)
H9 H 0.5019 1.2948 0.2937
C13 C 0.5435(6) 1.3218(5) 0.1619(3)
H10 H 0.5338 1.2217 0.1536
H11 H 0.6551 1.3079 0.1356
H12 H 0.4585 1.4057 0.1273
Ni1A Ni 0.62914(5) 1.40148(5) 0.67856(3)
Ni2A Ni -0.10073(5) 2.15667(5) -0.17761(3)
N5A N 0.0389(4) 2.0537(3) 0.1083(2)
N8A N 0.5606(3) 1.5695(4) 0.4013(2)
loop_
_geom_bond_atom_site_label_1
_geom_bond_atom_site_label_2
_geom_bond_site_symmetry_1
_geom_bond_site_symmetry_2
Ni1 N1 1_555 1_555
Ni2 N2 1_555 1_555
N1 N2 1_555 1_555
N2 C4 1_555 1_555
C1 N1 1_555 1_555
H1 C1 1_555 1_555
C2 C1 1_555 1_555
H2 C2 1_555 1_555
C3 C2 1_555 1_555
H3 C3 1_555 1_555
C4 C3 1_555 1_555
H4 C4 1_555 1_555
N3 Ni2 1_555 1_555
N4 Ni1 1_555 1_555
C5 N3 1_555 1_555
H5 C5 1_555 1_555
C6 C5 1_555 1_555
H6 C6 1_555 1_555
C7 C6 1_555 1_555
H7 C7 1_555 1_555
C8 N4 1_555 1_555
H8 C8 1_555 1_555
N5 C9 1_555 1_555
C9 S1 1_555 1_555
S1 Ni2 1_555 1_555
N6 Ni2 1_555 1_555
C10 N6 1_555 1_555
S2 C10 1_555 1_555
N7 Ni1 1_555 1_555
C11 N7 1_555 1_555
S3 C11 1_555 1_555
N8 C12 1_555 1_555
C12 S4 1_555 1_555
S4 Ni1 1_555 1_555
O1 Ni1 1_555 1_555
H9 O1 1_555 1_555
C13 O1 1_555 1_555
H10 C13 1_555 1_555
H11 C13 1_555 1_555
H12 C13 1_555 1_555
Ni1A N8 1_555 1_555
Ni2A N5 1_555 1_555
N5A Ni2 1_555 1_555
N8A Ni1 1_555 1_555
Ni2 N7 1_555 1_555
N3 N4 1_555 1_555
C7 C8 1_555 1_555

#END
