
#######################################################################
#
#                 Cambridge Crystallographic Data Centre
#                                CCDC 
#
#######################################################################
#
# If this CIF has been generated from an entry in the Cambridge 
# Structural Database, then it will include bibliographic, chemical, 
# crystal, experimental, refinement or atomic coordinate data resulting 
# from the CCDC's data processing and validation procedures.
#
#######################################################################

data_NEYNUC
_symmetry_cell_setting           monoclinic
_symmetry_space_group_name_H-M   'C 2/c'
_symmetry_Int_Tables_number      15
_space_group_name_Hall           '-C 2yn'
loop_
_symmetry_equiv_pos_site_id
_symmetry_equiv_pos_as_xyz
1 x,y,z
2 -x,y,1/2-z
3 1/2+x,1/2+y,z
4 1/2-x,1/2+y,1/2-z
5 -x,-y,-z
6 x,-y,1/2+z
7 1/2-x,1/2-y,-z
8 1/2+x,1/2-y,1/2+z
_cell_length_a                   22.838(12)
_cell_length_b                   11.679(5)
_cell_length_c                   9.720(4)
_cell_angle_alpha                90
_cell_angle_beta                 98.237(9)
_cell_angle_gamma                90
_cell_volume                     2565.82
loop_
_atom_site_label
_atom_site_type_symbol
_atom_site_fract_x
_atom_site_fract_y
_atom_site_fract_z
Mn1 Mn 1.0000 0.02948(3) 0.7500
Cl1 Cl 0.82335(4) -0.57686(7) 0.46251(9)
N1 N 1.0000 0.22514(17) 0.7500
N2 N 1.0000 0.83169(17) 0.7500
O1 O 0.80558(7) -0.07810(16) 0.38881(19)
O2 O 0.93934(6) 0.04263(12) 0.56234(14)
O3 O 0.91987(6) -0.03454(12) 0.35152(14)
C1 C 0.81871(10) -0.4281(2) 0.4431(3)
C2 C 0.84761(11) -0.3582(3) 0.5447(3)
H1 H 0.8688 -0.3902 0.6242
C3 C 0.84527(11) -0.2410(3) 0.5292(3)
H2 H 0.8656 -0.1941 0.5974
C4 C 0.81275(9) -0.1927(2) 0.4124(3)
C5 C 0.78418(11) -0.2649(2) 0.3108(3)
H3 H 0.7627 -0.2335 0.2312
C6 C 0.78693(11) -0.3820(3) 0.3256(3)
H4 H 0.7675 -0.4293 0.2569
C7 C 0.84063(10) -0.0027(2) 0.4816(3)
H5 H 0.8373 -0.0251 0.5763
H6 H 0.8249 0.0743 0.4678
C8 C 0.90598(8) -0.00098(15) 0.46369(19)
C9 C 0.95161(9) 0.28447(16) 0.7663(2)
H7 H 0.9173 0.2444 0.7762
C10 C 0.95008(9) 0.40288(16) 0.7692(2)
H8 H 0.9157 0.4407 0.7839
C11 C 1.0000 0.46469(19) 0.7500
C12 C 1.0000 0.5917(2) 0.7500
C13 C 0.98092(9) 0.65364(15) 0.8568(2)
H9 H 0.9671 0.6158 0.9300
C14 C 0.98253(10) 0.77182(15) 0.8542(2)
H10 H 0.9709 0.8118 0.9285
C9A C 1.04839(9) 0.28447(16) 0.7337(2)
H7A H 1.0827 0.2444 0.7238
C10A C 1.04992(9) 0.40288(16) 0.7308(2)
H8A H 1.0843 0.4407 0.7161
C13A C 1.01908(9) 0.65364(15) 0.6432(2)
H9A H 1.0329 0.6158 0.5700
C14A C 1.01747(10) 0.77182(15) 0.6458(2)
H10A H 1.0291 0.8118 0.5715
Cl1A Cl 1.17665(4) -0.57686(7) 1.03749(9)
O1A O 1.19442(7) -0.07810(16) 1.11119(19)
O2A O 1.06066(6) 0.04263(12) 0.93766(14)
O3A O 1.08013(6) -0.03454(12) 1.14848(14)
C1A C 1.18129(10) -0.4281(2) 1.0569(3)
C2A C 1.15239(11) -0.3582(3) 0.9553(3)
H1A H 1.1312 -0.3902 0.8758
C3A C 1.15473(11) -0.2410(3) 0.9708(3)
H2A H 1.1344 -0.1941 0.9026
C4A C 1.18725(9) -0.1927(2) 1.0876(3)
C5A C 1.21582(11) -0.2649(2) 1.1892(3)
H3A H 1.2373 -0.2335 1.2688
C6A C 1.21307(11) -0.3820(3) 1.1744(3)
H4A H 1.2325 -0.4293 1.2431
C7A C 1.15937(10) -0.0027(2) 1.0184(3)
H5A H 1.1627 -0.0251 0.9237
H6A H 1.1751 0.0743 1.0322
C8A C 1.09402(8) -0.00098(15) 1.03631(19)
Mn1_2 Mn 1.0000 1.02948(3) 0.7500
Mn1D Mn 1.0000 -0.02948(3) 0.2500
Mn1D_2 Mn 1.0000 -0.02948(3) 1.2500
N2_2 N 1.0000 -0.16831(17) 0.7500
O3D O 1.08013(6) 0.03454(12) 0.64848(14)
O3E O 0.91987(6) 0.03454(12) 0.85152(14)
loop_
_geom_bond_atom_site_label_1
_geom_bond_atom_site_label_2
_geom_bond_site_symmetry_1
_geom_bond_site_symmetry_2
Mn1 N1 1_555 1_555
Cl1 C1 1_555 1_555
N1 C9 1_555 1_555
N2 C14 1_555 1_555
O1 C4 1_555 1_555
O2 Mn1 1_555 1_555
O3 C8 1_555 1_555
C1 C2 1_555 1_555
C2 H1 1_555 1_555
C3 C2 1_555 1_555
H2 C3 1_555 1_555
C4 C3 1_555 1_555
C5 C4 1_555 1_555
H3 C5 1_555 1_555
C6 C1 1_555 1_555
H4 C6 1_555 1_555
C7 O1 1_555 1_555
H5 C7 1_555 1_555
H6 C7 1_555 1_555
C8 O2 1_555 1_555
C9 H7 1_555 1_555
C10 C9 1_555 1_555
H8 C10 1_555 1_555
C11 C10 1_555 1_555
C12 C11 1_555 1_555
C13 C12 1_555 1_555
H9 C13 1_555 1_555
C14 C13 1_555 1_555
H10 C14 1_555 1_555
C9A N1 1_555 1_555
H7A C9A 1_555 1_555
C10A C11 1_555 1_555
H8A C10A 1_555 1_555
C13A C12 1_555 1_555
H9A C13A 1_555 1_555
C14A N2 1_555 1_555
H10A C14A 1_555 1_555
Cl1A C1A 1_555 1_555
O1A C4A 1_555 1_555
O2A Mn1 1_555 1_555
O3A C8A 1_555 1_555
C1A C2A 1_555 1_555
C2A H1A 1_555 1_555
C3A C2A 1_555 1_555
H2A C3A 1_555 1_555
C4A C3A 1_555 1_555
C5A C4A 1_555 1_555
H3A C5A 1_555 1_555
C6A C1A 1_555 1_555
H4A C6A 1_555 1_555
C7A O1A 1_555 1_555
H5A C7A 1_555 1_555
H6A C7A 1_555 1_555
C8A O2A 1_555 1_555
Mn1_2 N2 1_555 1_555
Mn1D O3 1_555 1_555
Mn1D_2 O3A 1_555 1_555
N2_2 Mn1 1_555 1_555
O3D Mn1 1_555 1_555
O3E Mn1 1_555 1_555
C5 C6 1_555 1_555
C7 C8 1_555 1_555
C9A C10A 1_555 1_555
C13A C14A 1_555 1_555
C5A C6A 1_555 1_555
C7A C8A 1_555 1_555

#END
