
#######################################################################
#
#                 Cambridge Crystallographic Data Centre
#                                CCDC 
#
#######################################################################
#
# If this CIF has been generated from an entry in the Cambridge 
# Structural Database, then it will include bibliographic, chemical, 
# crystal, experimental, refinement or atomic coordinate data resulting 
# from the CCDC's data processing and validation procedures.
#
#######################################################################

data_NEYQUD
_symmetry_cell_setting           monoclinic
_symmetry_space_group_name_H-M   'P 2/n'
_symmetry_Int_Tables_number      13
_space_group_name_Hall           '-P 2yac'
loop_
_symmetry_equiv_pos_site_id
_symmetry_equiv_pos_as_xyz
1 x,y,z
2 1/2-x,y,1/2-z
3 -x,-y,-z
4 1/2+x,-y,1/2+z
_cell_length_a                   10.4297(6)
_cell_length_b                   4.9331(3)
_cell_length_c                   22.3748(13)
_cell_angle_alpha                90
_cell_angle_beta                 96.3870(10)
_cell_angle_gamma                90
_cell_volume                     1144.06
loop_
_atom_site_label
_atom_site_type_symbol
_atom_site_fract_x
_atom_site_fract_y
_atom_site_fract_z
Ag1 Ag 0.0964(1) 0.1256(1) 0.7622(1)
S1 S -0.1924(1) -2.6197(1) 1.3357(1)
F1 F -0.3696(2) -2.3710(4) 1.0626(1)
F2 F -0.4658(2) -2.7495(4) 1.0700(1)
F3 F -0.2660(2) -2.7439(5) 1.0556(1)
O1 O -0.2989(2) -1.9048(3) 1.1792(1)
O2 O -0.0882(2) -2.4808(3) 1.3116(1)
O3 O -0.3143(2) -2.4799(4) 1.3298(1)
N1 N -0.0642(2) -0.1167(4) 0.7904(1)
C1 C -0.1554(2) -0.4957(4) 0.8533(1)
C2 C -0.0728(2) -0.6136(5) 0.8992(1)
C3 C -0.1188(2) -0.8205(4) 0.9334(1)
C4 C -0.2474(2) -0.9059(5) 0.9209(1)
C5 C -0.3281(2) -0.7854(5) 0.8753(1)
C6 C -0.2834(2) -0.5792(5) 0.8410(1)
C7 C -0.1058(2) -0.2827(5) 0.8178(1)
C8 C -0.0347(2) -0.9463(5) 0.9805(1)
C9 C -0.3550(3) -2.6197(6) 1.0833(1)
H1 H -0.0118(25) -1.4466(51) 1.0938(11)
H2 H -0.2771(23) -1.0447(52) 0.9423(1)
H3 H -0.4145(27) -0.8586(54) 0.8680(12)
H4 H -0.3384(27) -0.4896(59) 0.8104(13)
C8B C 0.0347(2) -1.0537(5) 1.0195(1)
C3B C 0.1188(2) -1.1795(4) 1.0666(1)
C2B C 0.0728(2) -1.3864(5) 1.1008(1)
C1B C 0.1554(2) -1.5043(4) 1.1467(1)
C6B C 0.2834(2) -1.4208(5) 1.1590(1)
C5B C 0.3281(2) -1.2146(5) 1.1247(1)
C4B C 0.2474(2) -1.0941(5) 1.0791(1)
H2B H 0.2771(23) -0.9553(52) 1.0577(1)
H3B H 0.4145(27) -1.1414(54) 1.1320(12)
H4B H 0.3384(27) -1.5104(59) 1.1896(13)
C7B C 0.1058(2) -1.7173(5) 1.1822(1)
N1B N 0.0642(2) -1.8833(4) 1.2096(1)
Ag1B Ag -0.0964(1) -2.1256(1) 1.2378(1)
Ag1C Ag -0.4036(1) -2.1256(1) 1.2622(1)
O1A O -0.2011(2) -1.9048(3) 1.3208(1)
O1A_2 O -0.2011(2) -2.9048(3) 1.3208(1)
Ag1C_2 Ag -0.4036(1) -3.1256(1) 1.2622(1)
Ag1B_2 Ag -0.0964(1) -3.1256(1) 1.2378(1)
O2A O -0.4118(2) -2.4808(3) 1.1884(1)
S1A S -0.3076(1) -2.6197(1) 1.1643(1)
O1_2 O -0.2989(2) -2.9048(3) 1.1792(1)
O3A O -0.1857(2) -2.4799(4) 1.1702(1)
N1C N -0.5642(2) -1.8833(4) 1.2904(1)
C9A C -0.1450(3) -2.6197(6) 1.4167(1)
F1A F -0.1304(2) -2.3710(4) 1.4374(1)
F2A F -0.0342(2) -2.7495(4) 1.4300(1)
F3A F -0.2340(2) -2.7439(5) 1.4444(1)
H1B H 0.0118(25) -0.5534(51) 0.9062(11)
loop_
_geom_bond_atom_site_label_1
_geom_bond_atom_site_label_2
_geom_bond_site_symmetry_1
_geom_bond_site_symmetry_2
Ag1 N1 1_555 1_555
S1 O2 1_555 1_555
F1 C9 1_555 1_555
F2 C9 1_555 1_555
F3 C9 1_555 1_555
O1 Ag1B 1_555 1_555
O2 Ag1B 1_555 1_555
O3 S1 1_555 1_555
N1 C7 1_555 1_555
C1 C2 1_555 1_555
C2 C3 1_555 1_555
C3 C4 1_555 1_555
C4 C5 1_555 1_555
C5 C6 1_555 1_555
C6 C1 1_555 1_555
C7 C1 1_555 1_555
C8 C3 1_555 1_555
C9 S1A 1_555 1_555
H1 C2B 1_555 1_555
H2 C4 1_555 1_555
H3 C5 1_555 1_555
H4 C6 1_555 1_555
C8B C8 1_555 1_555
C3B C8B 1_555 1_555
C2B C3B 1_555 1_555
C1B C2B 1_555 1_555
C6B C1B 1_555 1_555
C5B C6B 1_555 1_555
C4B C3B 1_555 1_555
H2B C4B 1_555 1_555
H3B C5B 1_555 1_555
H4B C6B 1_555 1_555
C7B C1B 1_555 1_555
N1B C7B 1_555 1_555
Ag1B N1B 1_555 1_555
Ag1C O1 1_555 1_555
O1A Ag1B 1_555 1_555
O1A_2 S1 1_555 1_555
Ag1C_2 O1A_2 1_555 1_555
Ag1B_2 O1A_2 1_555 1_555
O2A Ag1C 1_555 1_555
S1A O2A 1_555 1_555
O1_2 Ag1C_2 1_555 1_555
O3A Ag1B 1_555 1_555
N1C Ag1C 1_555 1_555
C9A S1 1_555 1_555
F1A C9A 1_555 1_555
F2A C9A 1_555 1_555
F3A C9A 1_555 1_555
H1B C2 1_555 1_555
O3 Ag1C 1_555 1_555
C5B C4B 1_555 1_555
Ag1B Ag1C 1_555 1_555
Ag1C O1A 1_555 1_555
Ag1C_2 Ag1B_2 1_555 1_555
Ag1B_2 O1_2 1_555 1_555
S1A O1_2 1_555 1_555
S1A O3A 1_555 1_555

#END
