
#######################################################################
#
#                 Cambridge Crystallographic Data Centre
#                                CCDC 
#
#######################################################################
#
# If this CIF has been generated from an entry in the Cambridge 
# Structural Database, then it will include bibliographic, chemical, 
# crystal, experimental, refinement or atomic coordinate data resulting 
# from the CCDC's data processing and validation procedures.
#
#######################################################################

data_NEYXUL
_symmetry_cell_setting           monoclinic
_symmetry_space_group_name_H-M   'P 21/c'
_symmetry_Int_Tables_number      14
_space_group_name_Hall           '-P 2ybc'
loop_
_symmetry_equiv_pos_site_id
_symmetry_equiv_pos_as_xyz
1 x,y,z
2 -x,1/2+y,1/2-z
3 -x,-y,-z
4 x,1/2-y,1/2+z
_cell_length_a                   20.775(7)
_cell_length_b                   10.048(3)
_cell_length_c                   19.353(6)
_cell_angle_alpha                90
_cell_angle_beta                 111.684(4)
_cell_angle_gamma                90
_cell_volume                     3754.01
loop_
_atom_site_label
_atom_site_type_symbol
_atom_site_fract_x
_atom_site_fract_y
_atom_site_fract_z
Sn1 Sn -0.509210(12) -0.00215(3) 0.287140(13)
Sn2 Sn -0.076990(15) -0.39510(3) 0.274310(15)
N1 N -0.22307(17) -0.2934(4) 0.21065(19)
O1 O -0.44935(13) -0.3371(3) 0.16803(14)
O2 O -0.47293(13) -0.1827(3) 0.23605(15)
S1 S -0.25990(6) -0.09361(12) 0.26855(7)
S2 S -0.11109(6) -0.18715(14) 0.31706(7)
C1 C -0.44318(18) -0.2209(4) 0.1939(2)
C2 C -0.3968(2) -0.1284(4) 0.1710(3)
H1 H -0.4150 -0.1205 0.1172
H2 H -0.3978 -0.0406 0.1914
C3 C -0.3228(2) -0.1755(4) 0.1965(2)
C4 C -0.2940(2) -0.2776(4) 0.1727(2)
C5 C -0.1988(2) -0.2016(5) 0.2617(2)
C6 C -0.3286(2) -0.3729(5) 0.1105(3)
H3 H -0.2950 -0.4349 0.1065
H4 H -0.3486 -0.3245 0.0647
H5 H -0.3644 -0.4203 0.1204
C7 C -0.54884(19) -0.1333(4) 0.3477(2)
C8 C -0.5193(2) -0.1320(4) 0.4253(2)
H6 H -0.4798 -0.0814 0.4489
C9 C -0.5479(3) -0.2046(6) 0.4674(3)
H7 H -0.5274 -0.2027 0.5190
C10 C -0.6056(3) -0.2785(5) 0.4340(3)
H8 H -0.6245 -0.3272 0.4628
C11 C -0.6362(3) -0.2819(5) 0.3581(3)
H9 H -0.6762 -0.3318 0.3352
C12 C -0.6072(2) -0.2105(4) 0.3155(2)
H10 H -0.6277 -0.2146 0.2640
C13 C -0.5811(2) 0.0414(4) 0.1784(2)
C14 C -0.6504(2) 0.0555(5) 0.1693(2)
H11 H -0.6632 0.0451 0.2102
C15 C -0.7005(2) 0.0844(5) 0.1010(3)
H12 H -0.7465 0.0935 0.0963
C16 C -0.6830(3) 0.0998(5) 0.0405(3)
H13 H -0.7168 0.1178 -0.0058
C17 C -0.6154(3) 0.0884(5) 0.0480(3)
H14 H -0.6032 0.1004 0.0068
C18 C -0.5645(2) 0.0593(5) 0.1165(2)
H15 H -0.5186 0.0517 0.1206
C19 C -0.40453(19) 0.0446(4) 0.3513(2)
C20 C -0.3820(2) 0.1731(4) 0.3716(2)
H16 H -0.4113 0.2443 0.3504
C21 C -0.3158(2) 0.1970(5) 0.4234(2)
H17 H -0.3008 0.2841 0.4358
C22 C -0.2724(2) 0.0928(5) 0.4564(2)
H18 H -0.2286 0.1090 0.4919
C23 C -0.2942(2) -0.0352(5) 0.4366(2)
H19 H -0.2647 -0.1058 0.4582
C24 C -0.3597(2) -0.0604(4) 0.3847(2)
H20 H -0.3740 -0.1477 0.3719
C25 C -0.1149(2) -0.5668(5) 0.3130(2)
C26 C -0.1835(2) -0.5965(5) 0.2957(3)
H21 H -0.2174 -0.5390 0.2656
C27 C -0.2028(3) -0.7109(6) 0.3225(3)
H22 H -0.2495 -0.7287 0.3113
C28 C -0.1544(3) -0.7972(6) 0.3648(3)
H23 H -0.1679 -0.8748 0.3819
C29 C -0.0856(3) -0.7704(5) 0.3825(3)
H24 H -0.0521 -0.8297 0.4115
C30 C -0.0665(2) -0.6550(5) 0.3571(3)
H25 H -0.0197 -0.6361 0.3700
C31 C 0.0322(2) -0.3881(4) 0.3361(2)
C32 C 0.0605(3) -0.3843(5) 0.4137(3)
H26 H 0.0314 -0.3849 0.4404
C33 C 0.1320(3) -0.3796(6) 0.4514(3)
H27 H 0.1504 -0.3768 0.5031
C34 C 0.1749(3) -0.3792(6) 0.4128(4)
H28 H 0.2226 -0.3760 0.4382
C35 C 0.1483(3) -0.3834(6) 0.3370(3)
H29 H 0.1777 -0.3826 0.3106
C36 C 0.0768(2) -0.3889(5) 0.2994(3)
H30 H 0.0591 -0.3932 0.2477
C37 C -0.0919(2) -0.3906(5) 0.1596(2)
C38 C -0.0767(3) -0.5038(5) 0.1284(3)
H31 H -0.0636 -0.5809 0.1568
C39 C -0.0806(3) -0.5039(7) 0.0559(3)
H32 H -0.0694 -0.5808 0.0359
C40 C -0.1005(3) -0.3934(8) 0.0133(3)
H33 H -0.1038 -0.3944 -0.0360
C41 C -0.1156(3) -0.2811(7) 0.0433(3)
H34 H -0.1286 -0.2048 0.0142
C42 C -0.1120(2) -0.2774(5) 0.1168(3)
H35 H -0.1230 -0.2001 0.1364
Sn1A Sn -0.490790(12) -0.50215(3) 0.212860(13)
O1A O -0.55065(13) 0.1629(3) 0.33197(14)
loop_
_geom_bond_atom_site_label_1
_geom_bond_atom_site_label_2
_geom_bond_site_symmetry_1
_geom_bond_site_symmetry_2
Sn1 O2 1_555 1_555
Sn2 S2 1_555 1_555
N1 C4 1_555 1_555
O1 C1 1_555 1_555
O2 C1 1_555 1_555
S1 C3 1_555 1_555
S2 C5 1_555 1_555
C1 C2 1_555 1_555
C2 H1 1_555 1_555
H2 C2 1_555 1_555
C3 C2 1_555 1_555
C4 C3 1_555 1_555
C5 N1 1_555 1_555
C6 C4 1_555 1_555
H3 C6 1_555 1_555
H4 C6 1_555 1_555
H5 C6 1_555 1_555
C7 Sn1 1_555 1_555
C8 C7 1_555 1_555
H6 C8 1_555 1_555
C9 C8 1_555 1_555
H7 C9 1_555 1_555
C10 C9 1_555 1_555
H8 C10 1_555 1_555
C11 C10 1_555 1_555
H9 C11 1_555 1_555
C12 C7 1_555 1_555
H10 C12 1_555 1_555
C13 Sn1 1_555 1_555
C14 C13 1_555 1_555
H11 C14 1_555 1_555
C15 C14 1_555 1_555
H12 C15 1_555 1_555
C16 C15 1_555 1_555
H13 C16 1_555 1_555
C17 C16 1_555 1_555
H14 C17 1_555 1_555
C18 C13 1_555 1_555
H15 C18 1_555 1_555
C19 Sn1 1_555 1_555
C20 C19 1_555 1_555
H16 C20 1_555 1_555
C21 C20 1_555 1_555
H17 C21 1_555 1_555
C22 C21 1_555 1_555
H18 C22 1_555 1_555
C23 C22 1_555 1_555
H19 C23 1_555 1_555
C24 C19 1_555 1_555
H20 C24 1_555 1_555
C25 Sn2 1_555 1_555
C26 C25 1_555 1_555
H21 C26 1_555 1_555
C27 C26 1_555 1_555
H22 C27 1_555 1_555
C28 C27 1_555 1_555
H23 C28 1_555 1_555
C29 C28 1_555 1_555
H24 C29 1_555 1_555
C30 C25 1_555 1_555
H25 C30 1_555 1_555
C31 Sn2 1_555 1_555
C32 C31 1_555 1_555
H26 C32 1_555 1_555
C33 C32 1_555 1_555
H27 C33 1_555 1_555
C34 C33 1_555 1_555
H28 C34 1_555 1_555
C35 C34 1_555 1_555
H29 C35 1_555 1_555
C36 C31 1_555 1_555
H30 C36 1_555 1_555
C37 Sn2 1_555 1_555
C38 C37 1_555 1_555
H31 C38 1_555 1_555
C39 C38 1_555 1_555
H32 C39 1_555 1_555
C40 C39 1_555 1_555
H33 C40 1_555 1_555
C41 C40 1_555 1_555
H34 C41 1_555 1_555
C42 C37 1_555 1_555
H35 C42 1_555 1_555
Sn1A O1 1_555 1_555
O1A Sn1 1_555 1_555
S1 C5 1_555 1_555
C11 C12 1_555 1_555
C17 C18 1_555 1_555
C23 C24 1_555 1_555
C29 C30 1_555 1_555
C35 C36 1_555 1_555
C41 C42 1_555 1_555

#END
