
#######################################################################
#
#                 Cambridge Crystallographic Data Centre
#                                CCDC 
#
#######################################################################
#
# If this CIF has been generated from an entry in the Cambridge 
# Structural Database, then it will include bibliographic, chemical, 
# crystal, experimental, refinement or atomic coordinate data resulting 
# from the CCDC's data processing and validation procedures.
#
#######################################################################

data_NEYYAS
_symmetry_cell_setting           triclinic
_symmetry_space_group_name_H-M   'P -1'
_symmetry_Int_Tables_number      2
_space_group_name_Hall           '-P 1'
loop_
_symmetry_equiv_pos_site_id
_symmetry_equiv_pos_as_xyz
1 x,y,z
2 -x,-y,-z
_cell_length_a                   10.336(2)
_cell_length_b                   10.977(3)
_cell_length_c                   19.281(4)
_cell_angle_alpha                83.792(3)
_cell_angle_beta                 88.115(3)
_cell_angle_gamma                66.978(2)
_cell_volume                     2001.45
loop_
_atom_site_label
_atom_site_type_symbol
_atom_site_fract_x
_atom_site_fract_y
_atom_site_fract_z
Sn1 Sn 0.65585(5) 0.74955(6) 0.08555(2)
Sn2 Sn 0.14931(6) 0.76627(7) 0.15600(3)
Sn3 Sn 0.57580(9) 0.67850(10) 0.59784(4)
Sn4 Sn 1.03776(8) 0.77604(8) -0.36944(3)
N1 N 0.5685(8) 0.7404(8) 0.4404(3)
N2 N 1.0698(8) 0.7586(8) -0.2082(3)
O1 O 0.4416(5) 0.7989(6) 0.1460(3)
O2 O 0.2837(6) 0.8112(7) 0.2257(3)
O3 O 0.8431(5) 0.6917(6) 0.0181(3)
O4 O 0.9715(6) 0.7349(7) 0.0912(3)
S1 S 0.3403(3) 0.7894(3) 0.37306(11)
S2 S 0.3821(3) 0.6824(4) 0.52553(13)
S3 S 0.8870(2) 0.7083(3) -0.13101(11)
S4 S 0.8463(3) 0.7854(4) -0.28637(13)
C1 C 0.3929(9) 0.8254(9) 0.2048(4)
C2 C 0.4633(9) 0.8779(9) 0.2540(4)
H1 H 0.4105 0.9730 0.2536
H2 H 0.5565 0.8646 0.2366
C3 C 0.4777(9) 0.8148(9) 0.3296(4)
C4 C 0.5873(9) 0.7860(8) 0.3732(4)
C5 C 0.4413(10) 0.7404(11) 0.4470(4)
C6 C 0.7231(9) 0.7987(11) 0.3571(4)
H3 H 0.7817 0.7704 0.3982
H4 H 0.7062 0.8899 0.3419
H5 H 0.7694 0.7441 0.3209
C7 C 0.9541(8) 0.7017(9) 0.0349(4)
C8 C 1.0743(8) 0.6548(10) -0.0152(4)
H6 H 1.1147 0.5583 -0.0096
H7 H 1.1461 0.6845 -0.0020
C9 C 1.0383(8) 0.7012(8) -0.0919(4)
C10 C 1.1213(8) 0.7287(9) -0.1407(4)
C11 C 0.9475(10) 0.7504(9) -0.2107(4)
C12 C 1.2646(10) 0.7313(12) -0.1296(5)
H8 H 1.3004 0.7535 -0.1737
H9 H 1.3277 0.6454 -0.1096
H10 H 1.2564 0.7968 -0.0987
C13 C 0.7535(10) 0.6116(9) 0.1718(4)
H11 H 0.7944 0.6515 0.2018
H12 H 0.8257 0.5341 0.1557
H13 H 0.6848 0.5864 0.1971
C14 C 0.6336(11) 0.9508(9) 0.0832(6)
H14 H 0.5871 0.9998 0.0406
H15 H 0.7249 0.9541 0.0855
H16 H 0.5789 0.9896 0.1222
C15 C 0.5571(9) 0.6903(11) 0.0105(4)
H17 H 0.5173 0.7623 -0.0255
H18 H 0.4839 0.6667 0.0320
H19 H 0.6248 0.6148 -0.0094
C16 C 0.2967(11) 0.5758(10) 0.1372(6)
H20 H 0.3524 0.5839 0.0975
H21 H 0.2479 0.5205 0.1282
H22 H 0.3568 0.5365 0.1774
C17 C 0.1216(13) 0.9336(11) 0.0850(7)
H23 H 0.1936 0.9101 0.0503
H24 H 0.1276 1.0030 0.1093
H25 H 0.0310 0.9641 0.0628
C18 C 0.0132(15) 0.7747(16) 0.2400(7)
H26 H 0.0429 0.6889 0.2665
H27 H -0.0806 0.7998 0.2227
H28 H 0.0152 0.8393 0.2694
C19 C 0.5104(18) 0.6151(19) 0.6963(6)
H29 H 0.5218 0.5238 0.6972
H30 H 0.4133 0.6695 0.7033
H31 H 0.5666 0.6234 0.7327
C20 C 0.5540(14) 0.8761(13) 0.5886(7)
H32 H 0.4601 0.9315 0.6008
H33 H 0.5720 0.9024 0.5413
H34 H 0.6199 0.8856 0.6193
C21 C 0.7709(13) 0.5309(12) 0.5745(7)
H35 H 0.7647 0.4453 0.5807
H36 H 0.8421 0.5311 0.6052
H37 H 0.7947 0.5489 0.5271
C22 C 1.1769(14) 0.5707(11) -0.3508(6)
H38 H 1.1276 0.5154 -0.3593
H39 H 1.2095 0.5516 -0.3032
H40 H 1.2557 0.5530 -0.3815
C23 C 0.9343(15) 0.8242(15) -0.4694(5)
H41 H 0.8997 0.7573 -0.4771
H42 H 0.9998 0.8276 -0.5053
H43 H 0.8572 0.9092 -0.4705
C24 C 1.1089(15) 0.9286(12) -0.3543(6)
H44 H 1.0334 1.0139 -0.3642
H45 H 1.1856 0.9224 -0.3851
H46 H 1.1399 0.9184 -0.3069
Sn2_2 Sn 1.14931(6) 0.76627(7) 0.15600(3)
O4_2 O -0.0285(6) 0.7349(7) 0.0912(3)
loop_
_geom_bond_atom_site_label_1
_geom_bond_atom_site_label_2
_geom_bond_site_symmetry_1
_geom_bond_site_symmetry_2
Sn1 O1 1_555 1_555
Sn2 O2 1_555 1_555
Sn3 S2 1_555 1_555
Sn4 S4 1_555 1_555
N1 C4 1_555 1_555
N2 C10 1_555 1_555
O1 C1 1_555 1_555
O2 C1 1_555 1_555
O3 Sn1 1_555 1_555
O4 C7 1_555 1_555
S1 C3 1_555 1_555
S2 C5 1_555 1_555
S3 C9 1_555 1_555
S4 C11 1_555 1_555
C1 C2 1_555 1_555
C2 H1 1_555 1_555
H2 C2 1_555 1_555
C3 C2 1_555 1_555
C4 C3 1_555 1_555
C5 N1 1_555 1_555
C6 C4 1_555 1_555
H3 C6 1_555 1_555
H4 C6 1_555 1_555
H5 C6 1_555 1_555
C7 O3 1_555 1_555
C8 C7 1_555 1_555
H6 C8 1_555 1_555
H7 C8 1_555 1_555
C9 C8 1_555 1_555
C10 C9 1_555 1_555
C11 N2 1_555 1_555
C12 C10 1_555 1_555
H8 C12 1_555 1_555
H9 C12 1_555 1_555
H10 C12 1_555 1_555
C13 Sn1 1_555 1_555
H11 C13 1_555 1_555
H12 C13 1_555 1_555
H13 C13 1_555 1_555
C14 Sn1 1_555 1_555
H14 C14 1_555 1_555
H15 C14 1_555 1_555
H16 C14 1_555 1_555
C15 Sn1 1_555 1_555
H17 C15 1_555 1_555
H18 C15 1_555 1_555
H19 C15 1_555 1_555
C16 Sn2 1_555 1_555
H20 C16 1_555 1_555
H21 C16 1_555 1_555
H22 C16 1_555 1_555
C17 Sn2 1_555 1_555
H23 C17 1_555 1_555
H24 C17 1_555 1_555
H25 C17 1_555 1_555
C18 Sn2 1_555 1_555
H26 C18 1_555 1_555
H27 C18 1_555 1_555
H28 C18 1_555 1_555
C19 Sn3 1_555 1_555
H29 C19 1_555 1_555
H30 C19 1_555 1_555
H31 C19 1_555 1_555
C20 Sn3 1_555 1_555
H32 C20 1_555 1_555
H33 C20 1_555 1_555
H34 C20 1_555 1_555
C21 Sn3 1_555 1_555
H35 C21 1_555 1_555
H36 C21 1_555 1_555
H37 C21 1_555 1_555
C22 Sn4 1_555 1_555
H38 C22 1_555 1_555
H39 C22 1_555 1_555
H40 C22 1_555 1_555
C23 Sn4 1_555 1_555
H41 C23 1_555 1_555
H42 C23 1_555 1_555
H43 C23 1_555 1_555
C24 Sn4 1_555 1_555
H44 C24 1_555 1_555
H45 C24 1_555 1_555
H46 C24 1_555 1_555
Sn2_2 O4 1_555 1_555
O4_2 Sn2 1_555 1_555
S1 C5 1_555 1_555
S3 C11 1_555 1_555

#END
