
#######################################################################
#
#                 Cambridge Crystallographic Data Centre
#                                CCDC 
#
#######################################################################
#
# If this CIF has been generated from an entry in the Cambridge 
# Structural Database, then it will include bibliographic, chemical, 
# crystal, experimental, refinement or atomic coordinate data resulting 
# from the CCDC's data processing and validation procedures.
#
#######################################################################

data_NEZKUA
_symmetry_cell_setting           orthorhombic
_symmetry_space_group_name_H-M   'P c c n'
_symmetry_Int_Tables_number      56
_space_group_name_Hall           '-P 2ab 2ac'
loop_
_symmetry_equiv_pos_site_id
_symmetry_equiv_pos_as_xyz
1 x,y,z
2 1/2-x,1/2-y,z
3 1/2+x,-y,1/2-z
4 -x,1/2+y,1/2-z
5 -x,-y,-z
6 1/2+x,1/2+y,-z
7 1/2-x,y,1/2+z
8 x,1/2-y,1/2+z
_cell_length_a                   14.1825(8)
_cell_length_b                   17.9582(8)
_cell_length_c                   14.9933(5)
_cell_angle_alpha                90
_cell_angle_beta                 90
_cell_angle_gamma                90
_cell_volume                     3818.68
loop_
_atom_site_label
_atom_site_type_symbol
_atom_site_fract_x
_atom_site_fract_y
_atom_site_fract_z
Cd1 Cd 0.2500 0.2500 0.15990(3)
O1 O 0.1652(3) 0.2909(2) 0.2850(2)
O2 O 0.1684(3) 0.2962(2) 0.0352(2)
N1 N 0.3327(3) 0.3541(3) 0.1622(3)
C1 C 0.1641(4) 0.3576(3) 0.3116(3)
Cd2 Cd 0.2500 0.2500 0.41473(3)
C2 C 0.0824(5) 0.2991(4) 0.0147(4)
C3 C 0.3244(4) 0.4065(3) 0.1010(3)
C4 C 0.3922(4) 0.3831(4) 0.2253(4)
O3 O 0.1921(4) 0.3743(2) 0.3880(3)
C5 C 0.1344(4) 0.4177(3) 0.2477(3)
O4 O 0.0546(5) 0.3016(4) -0.0631(4)
C6 C 0.0112(4) 0.2930(3) 0.0888(4)
N2 N 0.3756(4) 0.4665(3) 0.1212(3)
H1 H 0.2875 0.4021 0.0500
H2 H 0.4105 0.3589 0.2774
C7 C 0.4202(5) 0.4515(4) 0.2009(4)
C8 C 0.0739(4) 0.4046(3) 0.1758(3)
C9 C 0.1763(5) 0.4869(3) 0.2572(4)
C10 C -0.0566(5) 0.2380(5) 0.0813(5)
C11 C 0.0131(4) 0.3366(4) 0.1661(4)
C12 C 0.3882(5) 0.5313(4) 0.0640(5)
H3 H 0.4614 0.4826 0.2316
C13 C 0.0592(5) 0.4611(4) 0.1148(4)
C14 C 0.1610(5) 0.5424(4) 0.1961(4)
H4 H 0.2154 0.4959 0.3058
H5 H -0.0610 0.2118 0.0280
C15 C -0.1164(6) 0.2210(5) 0.1480(7)
C16 C -0.0473(5) 0.3181(4) 0.2362(5)
H6 H 0.3800 0.5762 0.0991
H7 H 0.3403 0.5310 0.0179
C17 C 0.4832(7) 0.5325(4) 0.0215(6)
H8 H 0.0190 0.4531 0.0667
C18 C 0.1034(6) 0.5291(4) 0.1239(4)
H9 H 0.1894 0.5887 0.2033
H10 H -0.1606 0.1832 0.1407
C19 C -0.1115(7) 0.2611(6) 0.2295(7)
H11 H -0.0440 0.3452 0.2889
H12 H 0.4833 0.5724 -0.0222
H13 H 0.5285 0.5459 0.0671
H14 H 0.0943 0.5660 0.0813
H15 H -0.1508 0.2491 0.2771
O1A O 0.3348(3) 0.2091(2) 0.2850(2)
O2A O 0.3316(3) 0.2038(2) 0.0352(2)
N1A N 0.1673(3) 0.1459(3) 0.1622(3)
Cd2F Cd 0.2500 0.2500 -0.08527(3)
C1A C 0.3359(4) 0.1424(3) 0.3116(3)
C2A C 0.4176(5) 0.2009(4) 0.0147(4)
O3A O 0.3079(4) 0.1257(2) 0.3880(3)
O2F O 0.3316(3) 0.2962(2) 0.5352(2)
O2G O 0.1684(3) 0.2038(2) 0.5352(2)
C5A C 0.3656(4) 0.0823(3) 0.2477(3)
O4A O 0.4454(5) 0.1984(4) -0.0631(4)
C6A C 0.4888(4) 0.2070(3) 0.0888(4)
C8A C 0.4261(4) 0.0954(3) 0.1758(3)
C9A C 0.3237(5) 0.0131(3) 0.2572(4)
C10A C 0.5566(5) 0.2620(5) 0.0813(5)
C11A C 0.4869(4) 0.1634(4) 0.1661(4)
C13A C 0.4408(5) 0.0389(4) 0.1148(4)
C14A C 0.3390(5) -0.0424(4) 0.1961(4)
H4A H 0.2846 0.0041 0.3058
H5A H 0.5610 0.2882 0.0280
C15A C 0.6164(6) 0.2790(5) 0.1480(7)
C16A C 0.5473(5) 0.1819(4) 0.2362(5)
C17D C 0.5168(7) 0.4675(4) -0.0215(6)
H8A H 0.4810 0.0469 0.0667
C18A C 0.3966(6) -0.0291(4) 0.1239(4)
H9A H 0.3106 -0.0887 0.2033
H10A H 0.6606 0.3168 0.1407
C19A C 0.6115(7) 0.2389(6) 0.2295(7)
H11A H 0.5440 0.1548 0.2889
C12D C 0.6118(5) 0.4687(4) -0.0640(5)
H12D H 0.5167 0.4276 0.0222
H13D H 0.4715 0.4541 -0.0671
H14A H 0.4057 -0.0660 0.0813
H15A H 0.6508 0.2509 0.2771
N2D N 0.6244(4) 0.5335(3) -0.1212(3)
H6D H 0.6200 0.4238 -0.0991
H7D H 0.6597 0.4690 -0.0179
C3D C 0.6756(4) 0.5935(3) -0.1010(3)
C7D C 0.5798(5) 0.5485(4) -0.2009(4)
N1D N 0.6673(3) 0.6459(3) -0.1622(3)
H1D H 0.7125 0.5979 -0.0500
C4D C 0.6078(4) 0.6169(4) -0.2253(4)
H3D H 0.5386 0.5174 -0.2316
Cd1D Cd 0.7500 0.7500 -0.15990(3)
H2D H 0.5895 0.6411 -0.2774
loop_
_geom_bond_atom_site_label_1
_geom_bond_atom_site_label_2
_geom_bond_site_symmetry_1
_geom_bond_site_symmetry_2
Cd1 O1 1_555 1_555
O1 C1 1_555 1_555
O2 Cd1 1_555 1_555
N1 Cd1 1_555 1_555
C1 O3 1_555 1_555
Cd2 O1 1_555 1_555
C2 O2 1_555 1_555
C3 N1 1_555 1_555
C4 N1 1_555 1_555
O3 Cd2 1_555 1_555
C5 C1 1_555 1_555
O4 C2 1_555 1_555
C6 C2 1_555 1_555
N2 C3 1_555 1_555
H1 C3 1_555 1_555
H2 C4 1_555 1_555
C7 C4 1_555 1_555
C8 C5 1_555 1_555
C9 C5 1_555 1_555
C10 C6 1_555 1_555
C11 C6 1_555 1_555
C12 N2 1_555 1_555
H3 C7 1_555 1_555
C13 C8 1_555 1_555
C14 C9 1_555 1_555
H4 C9 1_555 1_555
H5 C10 1_555 1_555
C15 C10 1_555 1_555
C16 C11 1_555 1_555
H6 C12 1_555 1_555
H7 C12 1_555 1_555
C17 C12 1_555 1_555
H8 C13 1_555 1_555
C18 C13 1_555 1_555
H9 C14 1_555 1_555
H10 C15 1_555 1_555
C19 C15 1_555 1_555
H11 C16 1_555 1_555
H12 C17 1_555 1_555
H13 C17 1_555 1_555
H14 C18 1_555 1_555
H15 C19 1_555 1_555
O1A Cd1 1_555 1_555
O2A Cd1 1_555 1_555
N1A Cd1 1_555 1_555
Cd2F O2 1_555 1_555
C1A O1A 1_555 1_555
C2A O2A 1_555 1_555
O3A Cd2 1_555 1_555
O2F Cd2 1_555 1_555
O2G Cd2 1_555 1_555
C5A C1A 1_555 1_555
O4A C2A 1_555 1_555
C6A C2A 1_555 1_555
C8A C5A 1_555 1_555
C9A C5A 1_555 1_555
C10A C6A 1_555 1_555
C11A C6A 1_555 1_555
C13A C8A 1_555 1_555
C14A C9A 1_555 1_555
H4A C9A 1_555 1_555
H5A C10A 1_555 1_555
C15A C10A 1_555 1_555
C16A C11A 1_555 1_555
C17D C17 1_555 1_555
H8A C13A 1_555 1_555
C18A C13A 1_555 1_555
H9A C14A 1_555 1_555
H10A C15A 1_555 1_555
C19A C15A 1_555 1_555
H11A C16A 1_555 1_555
C12D C17D 1_555 1_555
H12D C17D 1_555 1_555
H13D C17D 1_555 1_555
H14A C18A 1_555 1_555
H15A C19A 1_555 1_555
N2D C12D 1_555 1_555
H6D C12D 1_555 1_555
H7D C12D 1_555 1_555
C3D N2D 1_555 1_555
C7D N2D 1_555 1_555
N1D C3D 1_555 1_555
H1D C3D 1_555 1_555
C4D C7D 1_555 1_555
H3D C7D 1_555 1_555
Cd1D N1D 1_555 1_555
H2D C4D 1_555 1_555
Cd2 O1A 1_555 1_555
N2 C7 1_555 1_555
C8 C11 1_555 1_555
C14 C18 1_555 1_555
C16 C19 1_555 1_555
O2A Cd2F 1_555 1_555
C1A O3A 1_555 1_555
C8A C11A 1_555 1_555
C14A C18A 1_555 1_555
C16A C19A 1_555 1_555
N1D C4D 1_555 1_555

#END
