
#######################################################################
#
#                 Cambridge Crystallographic Data Centre
#                                CCDC 
#
#######################################################################
#
# If this CIF has been generated from an entry in the Cambridge 
# Structural Database, then it will include bibliographic, chemical, 
# crystal, experimental, refinement or atomic coordinate data resulting 
# from the CCDC's data processing and validation procedures.
#
#######################################################################

data_NEZLEL
_symmetry_cell_setting           monoclinic
_symmetry_space_group_name_H-M   'C 2'
_symmetry_Int_Tables_number      5
_space_group_name_Hall           'C 2y'
loop_
_symmetry_equiv_pos_site_id
_symmetry_equiv_pos_as_xyz
1 x,y,z
2 -x,y,-z
3 1/2+x,1/2+y,z
4 1/2-x,1/2+y,-z
_cell_length_a                   17.2256(9)
_cell_length_b                   16.2344(8)
_cell_length_c                   8.5208(3)
_cell_angle_alpha                90
_cell_angle_beta                 99.010(4)
_cell_angle_gamma                90
_cell_volume                     2353.42
loop_
_atom_site_label
_atom_site_type_symbol
_atom_site_fract_x
_atom_site_fract_y
_atom_site_fract_z
O1 O 0.4987(11) 0.6538(13) 0.871(2)
H1 H 0.4993 0.6818 0.7872
H2 H 0.5375 0.6210 0.8845
Zn1 Zn 0.29802(5) 0.48741(12) 1.08625(9)
O2 O 0.4100(5) 0.5112(7) 1.1258(14)
O3 O 0.5252(7) 0.4607(11) 1.266(2)
O4 O 0.4091(6) 0.3931(8) 1.2455(17)
N1 N 0.2561(7) 0.3886(8) 0.9474(14)
N2 N 0.2589(8) 0.2797(8) 0.8119(13)
N3 N 0.2412(6) 0.0859(7) 0.0456(13)
N4 N 0.2515(8) 0.1980(9) 0.1988(12)
N5 N 0.2494(3) 0.4849(11) 1.2862(6)
N6 N 0.1656(4) 0.4882(12) 1.4544(7)
N7 N 0.4446(8) 0.4548(9) 1.2057(16)
C1 C 0.1812(9) 0.3699(10) 0.9050(14)
H3 H 0.1401 0.4000 0.9355
C2 C 0.1713(11) 0.3042(10) 0.815(2)
H4 H 0.1252 0.2791 0.7669
C3 C 0.3032(9) 0.3316(8) 0.8914(14)
H5 H 0.3578 0.3311 0.9087
C4 C 0.2848(11) 0.2092(11) 0.7248(17)
H6 H 0.2491 0.1636 0.7317
H7 H 0.3365 0.1923 0.7769
C5 C 0.2886(10) 0.2255(11) 0.5533(19)
H8 H 0.3265 0.2693 0.5482
H9 H 0.3093 0.1765 0.5096
C6 C 0.2193(13) 0.2472(15) 0.454(2)
H10 H 0.1969 0.2941 0.5014
H11 H 0.1827 0.2018 0.4540
C7 C 0.3172(10) 0.1092(12) 0.1004(17)
H12 H 0.3621 0.0821 0.0799
C8 C 0.3159(9) 0.1782(10) 0.1892(17)
H13 H 0.3605 0.2063 0.2366
C9 C 0.2038(11) 0.1379(11) 0.108(2)
H14 H 0.1493 0.1378 0.0969
C10 C 0.2233(11) 0.2685(11) 0.2832(18)
H15 H 0.1715 0.2846 0.2304
H16 H 0.2584 0.3149 0.2796
C11 C 0.1746(5) 0.4887(14) 1.3004(9)
H17 H 0.1335 0.4914 1.2156
C12 C 0.2366(5) 0.4914(15) 1.5411(9)
H18 H 0.2481 0.4986 1.6506
C13 C 0.2898(5) 0.4821(13) 1.4377(9)
H19 H 0.3438 0.4752 1.4659
C14 C 0.0895(6) 0.4928(14) 1.5146(11)
H20 H 0.0992 0.4909 1.6298
H21 H 0.0645 0.5450 1.4830
C15 C 0.0380(8) 0.4277(10) 1.4567(17)
H22 H 0.0652 0.3755 1.4754
H23 H 0.0219 0.4340 1.3431
N5A N -0.2494(3) 0.4849(11) 1.7138(6)
N6A N -0.1656(4) 0.4882(12) 1.5456(7)
C11A C -0.1746(5) 0.4887(14) 1.6996(9)
H17A H -0.1335 0.4914 1.7844
C12A C -0.2366(5) 0.4914(15) 1.4589(9)
H18A H -0.2481 0.4986 1.3494
C13A C -0.2898(5) 0.4821(13) 1.5623(9)
H19A H -0.3438 0.4752 1.5341
C14A C -0.0895(6) 0.4928(14) 1.4854(11)
H20A H -0.0992 0.4909 1.3702
H21A H -0.0645 0.5450 1.5170
C15A C -0.0380(8) 0.4277(10) 1.5433(17)
H22A H -0.0652 0.3755 1.5246
H23A H -0.0219 0.4340 1.6569
Zn1A Zn -0.29802(5) 0.48741(12) 1.91375(9)
O2A O -0.4100(5) 0.5112(7) 1.8742(14)
O3A O -0.5252(7) 0.4607(11) 1.734(2)
O4A O -0.4091(6) 0.3931(8) 1.7545(17)
N1A N -0.2561(7) 0.3886(8) 2.0526(14)
N2A N -0.2589(8) 0.2797(8) 2.1881(13)
N3A N -0.2412(6) 0.0859(7) 2.9544(13)
N4A N -0.2515(8) 0.1980(9) 2.8012(12)
N7A N -0.4446(8) 0.4548(9) 1.7943(16)
C1A C -0.1812(9) 0.3699(10) 2.0950(14)
H3A H -0.1401 0.4000 2.0645
C2A C -0.1713(11) 0.3042(10) 2.185(2)
H4A H -0.1252 0.2791 2.2331
C3A C -0.3032(9) 0.3316(8) 2.1086(14)
H5A H -0.3578 0.3311 2.0913
C4A C -0.2848(11) 0.2092(11) 2.2752(17)
H6A H -0.2491 0.1636 2.2683
H7A H -0.3365 0.1923 2.2231
C5A C -0.2886(10) 0.2255(11) 2.4467(19)
H8A H -0.3265 0.2693 2.4518
H9A H -0.3093 0.1765 2.4904
C6A C -0.2193(13) 0.2472(15) 2.546(2)
H10A H -0.1969 0.2941 2.4986
H11A H -0.1827 0.2018 2.5460
C7A C -0.3172(10) 0.1092(12) 2.8996(17)
H12A H -0.3621 0.0821 2.9201
C8A C -0.3159(9) 0.1782(10) 2.8108(17)
H13A H -0.3605 0.2063 2.7634
C9A C -0.2038(11) 0.1379(11) 2.892(2)
H14A H -0.1493 0.1378 2.9031
C10A C -0.2233(11) 0.2685(11) 2.7168(18)
H15A H -0.1715 0.2846 2.7696
H16A H -0.2584 0.3149 2.7204
Zn1B Zn -0.20198(5) -0.01259(12) 3.08625(9)
Zn1C Zn 0.20198(5) -0.01259(12) -0.08625(9)
N3B N -0.2588(6) 0.5859(7) 2.0456(13)
N3C N 0.2588(6) 0.5859(7) 0.9544(13)
Br1 Br 0.0000 0.4861(3) 0.0000
O5 O 0.5000 0.727(2) 0.5000
H24? H 0.4974 0.7513 0.4112
loop_
_geom_bond_atom_site_label_1
_geom_bond_atom_site_label_2
_geom_bond_site_symmetry_1
_geom_bond_site_symmetry_2
O1 H1 1_555 1_555
H2 O1 1_555 1_555
Zn1 O2 1_555 1_555
O2 N7 1_555 1_555
O3 N7 1_555 1_555
O4 N7 1_555 1_555
N1 Zn1 1_555 1_555
N2 C2 1_555 1_555
N3 C7 1_555 1_555
N4 C8 1_555 1_555
N5 Zn1 1_555 1_555
N6 C11 1_555 1_555
C1 N1 1_555 1_555
H3 C1 1_555 1_555
C2 C1 1_555 1_555
H4 C2 1_555 1_555
C3 N1 1_555 1_555
H5 C3 1_555 1_555
C4 N2 1_555 1_555
H6 C4 1_555 1_555
H7 C4 1_555 1_555
C5 C4 1_555 1_555
H8 C5 1_555 1_555
H9 C5 1_555 1_555
C6 C5 1_555 1_555
H10 C6 1_555 1_555
H11 C6 1_555 1_555
C7 H12 1_555 1_555
C8 C7 1_555 1_555
H13 C8 1_555 1_555
C9 N3 1_555 1_555
H14 C9 1_555 1_555
C10 N4 1_555 1_555
H15 C10 1_555 1_555
H16 C10 1_555 1_555
C11 N5 1_555 1_555
H17 C11 1_555 1_555
C12 N6 1_555 1_555
H18 C12 1_555 1_555
C13 N5 1_555 1_555
H19 C13 1_555 1_555
C14 N6 1_555 1_555
H20 C14 1_555 1_555
H21 C14 1_555 1_555
C15 C14 1_555 1_555
H22 C15 1_555 1_555
H23 C15 1_555 1_555
N5A C11A 1_555 1_555
N6A C11A 1_555 1_555
C11A H17A 1_555 1_555
C12A N6A 1_555 1_555
H18A C12A 1_555 1_555
C13A N5A 1_555 1_555
H19A C13A 1_555 1_555
C14A N6A 1_555 1_555
H20A C14A 1_555 1_555
H21A C14A 1_555 1_555
C15A C15 1_555 1_555
H22A C15A 1_555 1_555
H23A C15A 1_555 1_555
Zn1A N5A 1_555 1_555
O2A Zn1A 1_555 1_555
O3A N7A 1_555 1_555
O4A N7A 1_555 1_555
N1A Zn1A 1_555 1_555
N2A C2A 1_555 1_555
N3A C7A 1_555 1_555
N4A C8A 1_555 1_555
N7A O2A 1_555 1_555
C1A N1A 1_555 1_555
H3A C1A 1_555 1_555
C2A C1A 1_555 1_555
H4A C2A 1_555 1_555
C3A N1A 1_555 1_555
H5A C3A 1_555 1_555
C4A N2A 1_555 1_555
H6A C4A 1_555 1_555
H7A C4A 1_555 1_555
C5A C4A 1_555 1_555
H8A C5A 1_555 1_555
H9A C5A 1_555 1_555
C6A C5A 1_555 1_555
H10A C6A 1_555 1_555
H11A C6A 1_555 1_555
C7A H12A 1_555 1_555
C8A C7A 1_555 1_555
H13A C8A 1_555 1_555
C9A N3A 1_555 1_555
H14A C9A 1_555 1_555
C10A N4A 1_555 1_555
H15A C10A 1_555 1_555
H16A C10A 1_555 1_555
Zn1B N3A 1_555 1_555
Zn1C N3 1_555 1_555
N3B Zn1A 1_555 1_555
N3C Zn1 1_555 1_555
N2 C3 1_555 1_555
N4 C9 1_555 1_555
C6 C10 1_555 1_555
C12 C13 1_555 1_555
C12A C13A 1_555 1_555
C14A C15A 1_555 1_555
N2A C3A 1_555 1_555
N4A C9A 1_555 1_555
C6A C10A 1_555 1_555

#END
