
#######################################################################
#
#                 Cambridge Crystallographic Data Centre
#                                CCDC 
#
#######################################################################
#
# If this CIF has been generated from an entry in the Cambridge 
# Structural Database, then it will include bibliographic, chemical, 
# crystal, experimental, refinement or atomic coordinate data resulting 
# from the CCDC's data processing and validation procedures.
#
#######################################################################

data_NEZNAJ
_symmetry_cell_setting           orthorhombic
_symmetry_space_group_name_H-M   'P b c a'
_symmetry_Int_Tables_number      61
_space_group_name_Hall           '-P 2ac 2ab'
loop_
_symmetry_equiv_pos_site_id
_symmetry_equiv_pos_as_xyz
1 x,y,z
2 1/2-x,-y,1/2+z
3 -x,1/2+y,1/2-z
4 1/2+x,1/2-y,-z
5 -x,-y,-z
6 1/2+x,y,1/2-z
7 x,1/2-y,1/2+z
8 1/2-x,1/2+y,z
_cell_length_a                   11.7892(8)
_cell_length_b                   7.1869(4)
_cell_length_c                   21.0629(19)
_cell_angle_alpha                90
_cell_angle_beta                 90
_cell_angle_gamma                90
_cell_volume                     1784.61
loop_
_atom_site_label
_atom_site_type_symbol
_atom_site_fract_x
_atom_site_fract_y
_atom_site_fract_z
Cd1 Cd 0.617015(14) 0.36368(2) 0.540007(8)
Cl1 Cl 0.49248(6) 0.64185(8) 0.56999(3)
Cl2 Cl 0.78834(5) 0.54898(8) 0.50246(3)
N1 N 0.2143(2) 0.3276(3) 0.86029(11)
N2 N 0.4874(2) 0.1399(3) 0.58660(12)
C1 C 0.2630(2) 0.2898(4) 0.81552(12)
C2 C 0.3211(2) 0.2471(3) 0.75762(12)
C3 C 0.4311(2) 0.1736(3) 0.64448(12)
C4 C 0.4821(2) 0.1284(3) 0.70176(13)
H1 H 0.5536 0.0734 0.7019
C5 C 0.4280(2) 0.1641(4) 0.75827(13)
H2 H 0.4623 0.1331 0.7966
C6 C 0.3244(2) 0.2560(4) 0.64403(12)
H3 H 0.2901 0.2864 0.6057
C7 C 0.2698(2) 0.2925(4) 0.70021(12)
H4 H 0.1985 0.3475 0.6999
H5 H 0.439(3) 0.120(4) 0.5574(17)
H6 H 0.526(3) 0.052(5) 0.5898(16)
Cd1D Cd 0.382985(14) 0.63632(2) 0.459993(8)
Cd1E Cd 0.117015(14) 0.36368(2) 0.959993(8)
Cd1G Cd 0.882985(14) 0.86368(2) 0.540007(8)
Cl1D Cl 0.50752(6) 0.35815(8) 0.43001(3)
Cl2G Cl 0.71166(5) 0.04898(8) 0.50246(3)
N1E N 0.7143(2) 0.3276(3) 0.63971(11)
loop_
_geom_bond_atom_site_label_1
_geom_bond_atom_site_label_2
_geom_bond_site_symmetry_1
_geom_bond_site_symmetry_2
Cd1 Cl1 1_555 1_555
Cl1 Cd1D 1_555 1_555
Cl2 Cd1 1_555 1_555
N1 C1 1_555 1_555
N2 Cd1 1_555 1_555
C1 C2 1_555 1_555
C2 C5 1_555 1_555
C3 N2 1_555 1_555
C4 C3 1_555 1_555
H1 C4 1_555 1_555
C5 C4 1_555 1_555
H2 C5 1_555 1_555
C6 C3 1_555 1_555
H3 C6 1_555 1_555
C7 C2 1_555 1_555
H4 C7 1_555 1_555
H5 N2 1_555 1_555
H6 N2 1_555 1_555
Cd1D Cl1D 1_555 1_555
Cd1E N1 1_555 1_555
Cd1G Cl2 1_555 1_555
Cl1D Cd1 1_555 1_555
Cl2G Cd1 1_555 1_555
N1E Cd1 1_555 1_555
C6 C7 1_555 1_555

#END
