
#######################################################################
#
#                 Cambridge Crystallographic Data Centre
#                                CCDC 
#
#######################################################################
#
# If this CIF has been generated from an entry in the Cambridge 
# Structural Database, then it will include bibliographic, chemical, 
# crystal, experimental, refinement or atomic coordinate data resulting 
# from the CCDC's data processing and validation procedures.
#
#######################################################################

data_NEZQEQ
_symmetry_cell_setting           monoclinic
_symmetry_space_group_name_H-M   'P 21/c'
_symmetry_Int_Tables_number      14
_space_group_name_Hall           '-P 2ybc'
loop_
_symmetry_equiv_pos_site_id
_symmetry_equiv_pos_as_xyz
1 x,y,z
2 -x,1/2+y,1/2-z
3 -x,-y,-z
4 x,1/2-y,1/2+z
_cell_length_a                   12.2085(13)
_cell_length_b                   13.3646(15)
_cell_length_c                   14.2682(15)
_cell_angle_alpha                90
_cell_angle_beta                 113.638(2)
_cell_angle_gamma                90
_cell_volume                     2132.7
loop_
_atom_site_label
_atom_site_type_symbol
_atom_site_fract_x
_atom_site_fract_y
_atom_site_fract_z
Ni1 Ni 0.35276(2) 0.77329(2) 1.15410(2)
O1 O 0.39739(19) 0.75619(17) 1.02789(15)
H1 H 0.4393 0.7116 1.0135
H2 H 0.3610 0.7970 0.9787
O2 O 0.33127(16) 0.62052(14) 1.17842(14)
H3 H 0.3772 0.5767 1.1681
H4 H 0.3186 0.6098 1.2328
O3 O 0.30219(15) 0.80389(14) 1.27640(13)
H5 H 0.3556 0.8393 1.3234
H6 H 0.2816 0.7507 1.2994
O4 O 0.36599(17) 0.92947(15) 1.14615(15)
H7 H 0.4052 0.9558 1.2048
H8 H 0.3604 0.9641 1.0944
N1 N 0.16657(18) 0.77529(17) 1.04868(16)
N2 N -0.45718(18) 0.73772(17) 0.74896(16)
C1 C 0.1181(3) 0.6953(2) 0.9905(2)
H9 H 0.1682 0.6427 0.9911
C2 C -0.0021(2) 0.6868(2) 0.9296(2)
H10 H -0.0312 0.6294 0.8908
C3 C -0.0798(2) 0.7637(2) 0.92630(19)
C4 C -0.0291(2) 0.8474(2) 0.9854(2)
H11 H -0.0768 0.9017 0.9852
C5 C 0.0925(2) 0.8500(2) 1.0447(2)
H12 H 0.1241 0.9068 1.0839
C6 C -0.2103(2) 0.75555(19) 0.86462(19)
C7 C -0.2927(2) 0.8075(2) 0.8909(2)
H13 H -0.2666 0.8493 0.9477
C8 C -0.4135(2) 0.7965(2) 0.8321(2)
H14 H -0.4672 0.8316 0.8510
C9 C -0.3776(2) 0.6874(2) 0.7238(2)
H15 H -0.4062 0.6461 0.6665
C10 C -0.2560(2) 0.6939(2) 0.7782(2)
H16 H -0.2044 0.6575 0.7577
Ni1C Ni -0.64724(2) 0.72671(2) 0.65410(2)
N2C N 0.54282(18) 0.76228(17) 1.24896(16)
O5 O 1.2398(2) 0.4853(2) 0.4213(3)
O6 O 1.28710(17) 0.62142(16) 0.35955(15)
O7 O 0.51806(17) 0.50873(15) -0.16420(14)
O8 O 0.47859(17) 0.61789(16) -0.06503(15)
C11 C 1.2124(3) 0.5565(2) 0.3623(3)
C12 C 1.0834(2) 0.5691(2) 0.2907(2)
C13 C 1.0418(3) 0.6563(2) 0.2340(2)
H17 H 1.0955 0.7072 0.2383
C14 C 0.9218(3) 0.6685(2) 0.1716(2)
H18 H 0.8965 0.7274 0.1345
C15 C 0.8391(2) 0.5949(2) 0.1633(2)
C16 C 0.8796(3) 0.5076(2) 0.2186(2)
H19 H 0.8256 0.4567 0.2136
C17 C 1.0004(3) 0.4950(2) 0.2817(2)
H20 H 1.0256 0.4359 0.3185
C18 C 0.7082(3) 0.6079(2) 0.0935(2)
H21 H 0.6919 0.6781 0.0763
H22 H 0.6592 0.5866 0.1291
C19 C 0.6754(2) 0.5473(2) -0.0039(2)
H23 H 0.7294 0.5657 -0.0357
H24 H 0.6888 0.4771 0.0145
C20 C 0.5482(2) 0.5593(2) -0.0826(2)
O9 O 0.4760(5) 0.0096(5) 0.0361(4)
H25 H 0.4154 0.0436 0.0094
H26 H 0.5439 0.0447 0.0322
loop_
_geom_bond_atom_site_label_1
_geom_bond_atom_site_label_2
_geom_bond_site_symmetry_1
_geom_bond_site_symmetry_2
Ni1 O1 1_555 1_555
O1 H1 1_555 1_555
H2 O1 1_555 1_555
O2 Ni1 1_555 1_555
H3 O2 1_555 1_555
H4 O2 1_555 1_555
O3 Ni1 1_555 1_555
H5 O3 1_555 1_555
H6 O3 1_555 1_555
O4 Ni1 1_555 1_555
H7 O4 1_555 1_555
H8 O4 1_555 1_555
N1 Ni1 1_555 1_555
N2 C8 1_555 1_555
C1 N1 1_555 1_555
H9 C1 1_555 1_555
C2 C1 1_555 1_555
H10 C2 1_555 1_555
C3 C2 1_555 1_555
C4 C3 1_555 1_555
H11 C4 1_555 1_555
C5 N1 1_555 1_555
H12 C5 1_555 1_555
C6 C3 1_555 1_555
C7 C6 1_555 1_555
H13 C7 1_555 1_555
C8 C7 1_555 1_555
H14 C8 1_555 1_555
C9 N2 1_555 1_555
H15 C9 1_555 1_555
C10 C6 1_555 1_555
H16 C10 1_555 1_555
O5 C11 1_555 1_555
O6 C11 1_555 1_555
O7 C20 1_555 1_555
O8 C20 1_555 1_555
C11 C12 1_555 1_555
C12 C13 1_555 1_555
C13 H17 1_555 1_555
C14 C13 1_555 1_555
H18 C14 1_555 1_555
C15 C14 1_555 1_555
C16 C15 1_555 1_555
H19 C16 1_555 1_555
C17 C12 1_555 1_555
H20 C17 1_555 1_555
C18 C15 1_555 1_555
H21 C18 1_555 1_555
H22 C18 1_555 1_555
C19 C18 1_555 1_555
H23 C19 1_555 1_555
H24 C19 1_555 1_555
C20 C19 1_555 1_555
O9 H25 1_555 1_555
H26 O9 1_555 1_555
Ni1C N2 1_555 1_555
N2C Ni1 1_555 1_555
C4 C5 1_555 1_555
C9 C10 1_555 1_555
C16 C17 1_555 1_555

#END
