
#######################################################################
#
#                 Cambridge Crystallographic Data Centre
#                                CCDC 
#
#######################################################################
#
# If this CIF has been generated from an entry in the Cambridge 
# Structural Database, then it will include bibliographic, chemical, 
# crystal, experimental, refinement or atomic coordinate data resulting 
# from the CCDC's data processing and validation procedures.
#
#######################################################################

data_NEZRUG
_symmetry_cell_setting           monoclinic
_symmetry_space_group_name_H-M   'P 21/n'
_symmetry_Int_Tables_number      14
_space_group_name_Hall           '-P 2yn'
loop_
_symmetry_equiv_pos_site_id
_symmetry_equiv_pos_as_xyz
1 x,y,z
2 1/2-x,1/2+y,1/2-z
3 -x,-y,-z
4 1/2+x,1/2-y,1/2+z
_cell_length_a                   11.096(2)
_cell_length_b                   10.255(2)
_cell_length_c                   15.695(3)
_cell_angle_alpha                90
_cell_angle_beta                 100.179(4)
_cell_angle_gamma                90
_cell_volume                     1757.82
loop_
_atom_site_label
_atom_site_type_symbol
_atom_site_fract_x
_atom_site_fract_y
_atom_site_fract_z
Cu1 Cu 0.75537(6) 0.76776(6) 0.68903(4)
O1 O 0.7355(4) 0.9003(4) 0.5647(3)
O2 O 0.7590(5) 0.8744(5) 0.4266(3)
O3 O 0.7522(4) 0.5442(4) 0.7439(2)
O4 O 0.7048(3) 0.3434(4) 0.6933(2)
N1 N 0.7190(4) 0.6430(4) 0.5838(3)
N2 N 0.6462(10) 0.4875(7) 0.4402(4)
N3 N 0.9377(4) 0.7650(5) 0.6895(3)
N4 N 1.5757(4) 0.7787(5) 0.6946(3)
C1 C 0.7365(6) 0.8361(6) 0.4970(4)
C2 C 0.7073(6) 0.6923(6) 0.5035(4)
C3 C 0.6710(10) 0.6141(8) 0.4331(5)
H1 H 0.6633 0.6504 0.3781
C4 C 0.6623(9) 0.4394(7) 0.5201(5)
H2 H 0.6485 0.3510 0.5273
C5 C 0.6990(6) 0.5155(6) 0.5935(4)
C6 C 0.7201(4) 0.4653(5) 0.6851(4)
C7 C 1.0101(5) 0.6685(7) 0.7248(4)
H3 H 0.9747 0.5978 0.7480
C8 C 1.1346(5) 0.6686(6) 0.7283(4)
H4 H 1.1814 0.5985 0.7530
C9 C 1.1906(5) 0.7730(6) 0.6951(4)
C10 C 1.1161(5) 0.8717(6) 0.6582(5)
H5 H 1.1493 0.9426 0.6335
C11 C 0.9919(6) 0.8659(6) 0.6576(5)
H6 H 0.9434 0.9353 0.6338
C12 C 1.3246(5) 0.7780(6) 0.6967(4)
C13 C 1.4083(5) 0.7238(6) 0.7643(4)
H7 H 1.3814 0.6866 0.8116
C14 C 1.5316(5) 0.7261(6) 0.7600(4)
H8 H 1.5864 0.6889 0.8052
C15 C 1.4950(5) 0.8334(6) 0.6306(4)
H9 H 1.5246 0.8713 0.5845
C16 C 1.3712(5) 0.8364(6) 0.6299(4)
H10 H 1.3190 0.8771 0.5849
Cu1A Cu 0.74463(6) 0.26776(6) 0.81097(4)
Cu1_2 Cu 1.75537(6) 0.76776(6) 0.68903(4)
O4A O 0.7952(3) 0.8434(4) 0.8067(2)
N4_2 N 0.5757(4) 0.7787(5) 0.6946(3)
O5 O 0.8973(8) 0.6349(6) 0.9256(4)
H11 H 0.8856 0.7032 0.8860
H12 H 0.8386 0.5866 0.9301
loop_
_geom_bond_atom_site_label_1
_geom_bond_atom_site_label_2
_geom_bond_site_symmetry_1
_geom_bond_site_symmetry_2
Cu1 O1 1_555 1_555
O1 C1 1_555 1_555
O2 C1 1_555 1_555
O3 Cu1 1_555 1_555
O4 C6 1_555 1_555
N1 Cu1 1_555 1_555
N2 C3 1_555 1_555
N3 Cu1 1_555 1_555
N4 C14 1_555 1_555
C1 C2 1_555 1_555
C2 N1 1_555 1_555
C3 C2 1_555 1_555
H1 C3 1_555 1_555
C4 N2 1_555 1_555
H2 C4 1_555 1_555
C5 N1 1_555 1_555
C6 O3 1_555 1_555
C7 N3 1_555 1_555
H3 C7 1_555 1_555
C8 C7 1_555 1_555
H4 C8 1_555 1_555
C9 C8 1_555 1_555
C10 C9 1_555 1_555
H5 C10 1_555 1_555
C11 N3 1_555 1_555
H6 C11 1_555 1_555
C12 C9 1_555 1_555
C13 C12 1_555 1_555
H7 C13 1_555 1_555
C14 C13 1_555 1_555
H8 C14 1_555 1_555
C15 N4 1_555 1_555
H9 C15 1_555 1_555
C16 C12 1_555 1_555
H10 C16 1_555 1_555
O5 H11 1_555 1_555
H12 O5 1_555 1_555
Cu1A O4 1_555 1_555
Cu1_2 N4 1_555 1_555
O4A Cu1 1_555 1_555
N4_2 Cu1 1_555 1_555
C4 C5 1_555 1_555
C5 C6 1_555 1_555
C10 C11 1_555 1_555
C15 C16 1_555 1_555

#END
