
#######################################################################
#
#                 Cambridge Crystallographic Data Centre
#                                CCDC 
#
#######################################################################
#
# If this CIF has been generated from an entry in the Cambridge 
# Structural Database, then it will include bibliographic, chemical, 
# crystal, experimental, refinement or atomic coordinate data resulting 
# from the CCDC's data processing and validation procedures.
#
#######################################################################

data_NEZXIA
_symmetry_cell_setting           monoclinic
_symmetry_space_group_name_H-M   'P 21/c'
_symmetry_Int_Tables_number      14
_space_group_name_Hall           '-P 2ybc'
loop_
_symmetry_equiv_pos_site_id
_symmetry_equiv_pos_as_xyz
1 x,y,z
2 -x,1/2+y,1/2-z
3 -x,-y,-z
4 x,1/2-y,1/2+z
_cell_length_a                   11.8490(10)
_cell_length_b                   15.1058(12)
_cell_length_c                   10.1439(8)
_cell_angle_alpha                90
_cell_angle_beta                 110.9150(10)
_cell_angle_gamma                90
_cell_volume                     1696.01
loop_
_atom_site_label
_atom_site_type_symbol
_atom_site_fract_x
_atom_site_fract_y
_atom_site_fract_z
Mn1 Mn 0.0000 0.0000 0.5000
F1 F 0.4054(3) 0.27148(19) 0.1690(3)
F2 F 0.7093(3) 0.2474(3) 0.6116(4)
O1 O 0.3554(3) -0.0068(2) 0.1797(4)
H1 H 0.2897 -0.0293 0.1358
N1 N 0.1923(3) 0.1120(2) 0.2542(4)
N2 N 0.2219(4) 0.1746(3) 0.3560(5)
N3 N 0.1112(3) 0.0667(3) 0.4024(4)
N4 N 0.2971(3) 0.0490(2) -0.1090(4)
N5 N 0.3254(4) -0.0351(3) -0.1311(4)
N6 N 0.1525(3) 0.0055(2) -0.2978(4)
N7 N -0.0574(4) 0.1258(3) 0.5520(5)
N8 N -0.0376(6) 0.2817(4) 0.6044(8)
N9 N -0.1319(5) 0.4108(4) 0.4710(6)
C1 C 0.4508(4) 0.1291(3) 0.2705(4)
C2 C 0.4727(4) 0.2190(3) 0.2768(5)
C3 C 0.5613(4) 0.2610(4) 0.3886(6)
H2 H 0.5748 0.3216 0.3884
C4 C 0.6273(4) 0.2083(4) 0.4982(5)
C5 C 0.6120(5) 0.1191(4) 0.4985(5)
H3 H 0.6597 0.0851 0.5743
C6 C 0.5239(4) 0.0795(3) 0.3839(5)
H4 H 0.5137 0.0184 0.3833
C7 C 0.3511(4) 0.0849(3) 0.1488(4)
C8 C 0.2264(4) 0.1219(3) 0.1290(5)
H5 H 0.2247 0.1843 0.1055
H6 H 0.1668 0.0920 0.0500
C9 C 0.1719(5) 0.1436(4) 0.4429(6)
H7 H 0.1777 0.1725 0.5260
C10 C 0.1273(4) 0.0490(3) 0.2838(4)
H8 H 0.0973 -0.0007 0.2283
C11 C 0.3764(4) 0.1012(3) 0.0109(4)
H9 H 0.3654 0.1636 -0.0128
H10 H 0.4599 0.0863 0.0269
C12 C 0.1943(4) 0.0714(3) -0.2086(4)
H11 H 0.1566 0.1261 -0.2150
C13 C 0.2371(4) -0.0582(3) -0.2437(5)
H12 H 0.2319 -0.1140 -0.2842
C14 C -0.0531(4) 0.2008(3) 0.5657(7)
C15 C -0.0924(5) 0.3471(4) 0.5179(7)
Mn1_2 Mn 0.0000 0.0000 -0.5000
Mn1_3 Mn 0.0000 0.0000 1.5000
F1B F -0.4054(3) -0.27148(19) 0.8310(3)
F2B F -0.7093(3) -0.2474(3) 0.3884(4)
O1B O -0.3554(3) 0.0068(2) 0.8203(4)
H1B H -0.2897 0.0293 0.8642
N1B N -0.1923(3) -0.1120(2) 0.7458(4)
N2B N -0.2219(4) -0.1746(3) 0.6440(5)
N3B N -0.1112(3) -0.0667(3) 0.5976(4)
N4B N -0.2971(3) -0.0490(2) 1.1090(4)
N5B N -0.3254(4) 0.0351(3) 1.1311(4)
N6B N -0.1525(3) -0.0055(2) 1.2978(4)
N6_2 N 0.1525(3) 0.0055(2) 0.7022(4)
N6B_2 N -0.1525(3) -0.0055(2) 0.2978(4)
N7B N 0.0574(4) -0.1258(3) 0.4480(5)
N8B N 0.0376(6) -0.2817(4) 0.3956(8)
N9B N 0.1319(5) -0.4108(4) 0.5290(6)
C1B C -0.4508(4) -0.1291(3) 0.7295(4)
C2B C -0.4727(4) -0.2190(3) 0.7232(5)
C3B C -0.5613(4) -0.2610(4) 0.6114(6)
H2B H -0.5748 -0.3216 0.6116
C4B C -0.6273(4) -0.2083(4) 0.5018(5)
C5B C -0.6120(5) -0.1191(4) 0.5015(5)
H3B H -0.6597 -0.0851 0.4257
C6B C -0.5239(4) -0.0795(3) 0.6161(5)
H4B H -0.5137 -0.0184 0.6167
C7B C -0.3511(4) -0.0849(3) 0.8512(4)
C8B C -0.2264(4) -0.1219(3) 0.8710(5)
H5B H -0.2247 -0.1843 0.8945
H6B H -0.1668 -0.0920 0.9500
C9B C -0.1719(5) -0.1436(4) 0.5571(6)
H7B H -0.1777 -0.1725 0.4740
C10B C -0.1273(4) -0.0490(3) 0.7162(4)
H8B H -0.0973 0.0007 0.7717
C11B C -0.3764(4) -0.1012(3) 0.9891(4)
H9B H -0.3654 -0.1636 1.0128
H10B H -0.4599 -0.0863 0.9731
C12B C -0.1943(4) -0.0714(3) 1.2086(4)
H11B H -0.1566 -0.1261 1.2150
C13B C -0.2371(4) 0.0582(3) 1.2437(5)
H12B H -0.2319 0.1140 1.2842
C14B C 0.0531(4) -0.2008(3) 0.4343(7)
C15B C 0.0924(5) -0.3471(4) 0.4821(7)
loop_
_geom_bond_atom_site_label_1
_geom_bond_atom_site_label_2
_geom_bond_site_symmetry_1
_geom_bond_site_symmetry_2
Mn1 N3 1_555 1_555
F1 C2 1_555 1_555
F2 C4 1_555 1_555
O1 H1 1_555 1_555
N1 N2 1_555 1_555
N2 C9 1_555 1_555
N3 C9 1_555 1_555
N4 N5 1_555 1_555
N5 C13 1_555 1_555
N6 C12 1_555 1_555
N7 Mn1 1_555 1_555
N8 C14 1_555 1_555
N9 C15 1_555 1_555
C1 C2 1_555 1_555
C2 C3 1_555 1_555
C3 H2 1_555 1_555
C4 C3 1_555 1_555
C5 C4 1_555 1_555
H3 C5 1_555 1_555
C6 C1 1_555 1_555
H4 C6 1_555 1_555
C7 O1 1_555 1_555
C8 N1 1_555 1_555
H5 C8 1_555 1_555
H6 C8 1_555 1_555
C9 H7 1_555 1_555
C10 N1 1_555 1_555
H8 C10 1_555 1_555
C11 N4 1_555 1_555
H9 C11 1_555 1_555
H10 C11 1_555 1_555
C12 N4 1_555 1_555
H11 C12 1_555 1_555
C13 N6 1_555 1_555
H12 C13 1_555 1_555
C14 N7 1_555 1_555
C15 N8 1_555 1_555
Mn1_2 N6 1_555 1_555
Mn1_3 N6B 1_555 1_555
F1B C2B 1_555 1_555
F2B C4B 1_555 1_555
O1B H1B 1_555 1_555
N1B N2B 1_555 1_555
N2B C9B 1_555 1_555
N3B Mn1 1_555 1_555
N4B N5B 1_555 1_555
N5B C13B 1_555 1_555
N6B C12B 1_555 1_555
N6_2 Mn1 1_555 1_555
N6B_2 Mn1 1_555 1_555
N7B Mn1 1_555 1_555
N8B C14B 1_555 1_555
N9B C15B 1_555 1_555
C1B C2B 1_555 1_555
C2B C3B 1_555 1_555
C3B H2B 1_555 1_555
C4B C3B 1_555 1_555
C5B C4B 1_555 1_555
H3B C5B 1_555 1_555
C6B C1B 1_555 1_555
H4B C6B 1_555 1_555
C7B O1B 1_555 1_555
C8B N1B 1_555 1_555
H5B C8B 1_555 1_555
H6B C8B 1_555 1_555
C9B N3B 1_555 1_555
H7B C9B 1_555 1_555
C10B N1B 1_555 1_555
H8B C10B 1_555 1_555
C11B N4B 1_555 1_555
H9B C11B 1_555 1_555
H10B C11B 1_555 1_555
C12B N4B 1_555 1_555
H11B C12B 1_555 1_555
C13B N6B 1_555 1_555
H12B C13B 1_555 1_555
C14B N7B 1_555 1_555
C15B N8B 1_555 1_555
N3 C10 1_555 1_555
C1 C7 1_555 1_555
C5 C6 1_555 1_555
C7 C8 1_555 1_555
C7 C11 1_555 1_555
N3B C10B 1_555 1_555
C1B C7B 1_555 1_555
C5B C6B 1_555 1_555
C7B C8B 1_555 1_555
C7B C11B 1_555 1_555

#END
