
#######################################################################
#
#                 Cambridge Crystallographic Data Centre
#                                CCDC 
#
#######################################################################
#
# If this CIF has been generated from an entry in the Cambridge 
# Structural Database, then it will include bibliographic, chemical, 
# crystal, experimental, refinement or atomic coordinate data resulting 
# from the CCDC's data processing and validation procedures.
#
#######################################################################

data_NEZYIC
_symmetry_cell_setting           orthorhombic
_symmetry_space_group_name_H-M   'P b c n'
_symmetry_Int_Tables_number      60
_space_group_name_Hall           '-P 2n 2ab'
loop_
_symmetry_equiv_pos_site_id
_symmetry_equiv_pos_as_xyz
1 x,y,z
2 1/2-x,1/2-y,1/2+z
3 1/2+x,1/2-y,-z
4 -x,y,1/2-z
5 -x,-y,-z
6 1/2+x,1/2+y,1/2-z
7 1/2-x,1/2+y,z
8 x,-y,1/2+z
_cell_length_a                   13.9788(8)
_cell_length_b                   24.4204(14)
_cell_length_c                   13.9580(8)
_cell_angle_alpha                90
_cell_angle_beta                 90
_cell_angle_gamma                90
_cell_volume                     4764.81
loop_
_atom_site_label
_atom_site_type_symbol
_atom_site_fract_x
_atom_site_fract_y
_atom_site_fract_z
Cd1 Cd 0.33504(4) 0.12079(2) 0.41785(4)
N1 N -0.3158(4) 0.0429(3) 0.3796(5)
H1 H -0.3131 0.0770 0.3551
H2 H -0.3068 0.0454 0.4433
N2 N 0.3667(5) 0.1976(3) 0.0668(5)
H3 H 0.3917 0.1637 0.0643
H4 H 0.3033 0.1952 0.0562
O1 O 0.2144(4) 0.0580(2) 0.3899(4)
O2 O 0.1585(4) 0.1362(2) 0.4464(4)
O3 O -0.5763(4) 0.0415(3) 0.3728(5)
O4 O -0.4735(4) 0.1027(2) 0.4266(5)
O5 O 0.3808(5) 0.1939(3) 0.3260(4)
O6 O 0.3125(5) 0.1383(2) 0.2242(4)
O7 O 0.3471(5) 0.1040(2) -0.4138(4)
O8 O 0.3531(5) 0.1886(2) -0.4653(4)
C1 C 0.3548(6) 0.1537(3) -0.3987(5)
C2 C 0.1468(5) 0.0889(3) 0.4126(5)
C3 C 0.3562(6) 0.1806(3) 0.2432(6)
C4 C -0.4916(6) 0.0584(3) 0.3904(6)
C5 C -0.2378(5) 0.0091(3) 0.3384(6)
H5 H -0.2441 0.0084 0.2692
H6 H -0.2436 -0.0281 0.3617
C6 C 0.3921(7) 0.2111(4) -0.1083(6)
C7 C 0.4117(6) 0.2326(3) -0.0093(6)
H7 H 0.4803 0.2340 0.0010
H8 H 0.3871 0.2696 -0.0041
C8 C 0.3832(6) 0.2211(3) 0.1639(6)
H9 H 0.3455 0.2542 0.1711
H10 H 0.4501 0.2309 0.1704
C9 C -0.1404(5) 0.0311(3) 0.3645(6)
C10 C 0.3633(6) 0.2295(3) -0.2750(6)
H11 H 0.3542 0.2548 -0.3239
C11 C 0.0458(6) 0.0675(3) 0.3981(6)
C12 C 0.3758(6) 0.2477(3) -0.1819(6)
H12 H 0.3732 0.2850 -0.1688
C13 C 0.0277(6) 0.0136(4) 0.3787(7)
H13 H 0.0783 -0.0110 0.3754
C14 C 0.3642(6) 0.1744(3) -0.2961(6)
C15 C -0.0634(6) -0.0048(4) 0.3642(7)
H14 H -0.0740 -0.0419 0.3540
C16 C -0.4124(5) 0.0191(3) 0.3610(6)
H15 H -0.4191 -0.0148 0.3965
H16 H -0.4185 0.0108 0.2934
C17 C -0.1228(6) 0.0850(4) 0.3816(8)
H17 H -0.1731 0.1099 0.3799
C18 C 0.3930(11) 0.1559(4) -0.1308(7)
H18 H 0.4041 0.1305 -0.0824
C19 C 0.3779(11) 0.1374(4) -0.2240(7)
H19 H 0.3771 0.1001 -0.2371
C20 C -0.0305(6) 0.1033(4) 0.4016(9)
H20 H -0.0202 0.1399 0.4174
Cd1_2 Cd -0.66496(4) 0.12079(2) 0.41785(4)
Cd1_3 Cd 0.33504(4) 0.12079(2) -0.58215(4)
O3_2 O 0.4237(4) 0.0415(3) 0.3728(5)
O4_2 O 0.5265(4) 0.1027(2) 0.4266(5)
O7_2 O 0.3471(5) 0.1040(2) 0.5862(4)
O8_2 O 0.3531(5) 0.1886(2) 0.5347(4)
O9 O 0.7136(6) 0.0409(3) 0.5757(5)
H21 H 0.6991 0.0098 0.6007
H22 H 0.7477 0.0640 0.6074
O10 O 0.1806(5) 0.2027(3) 0.0100(5)
H23 H 0.1653 0.2213 -0.0400
H24 H 0.1371 0.1856 0.0418
O11 O 0.0849(9) 0.1462(3) 0.6389(7)
H25 H 0.0837 0.1472 0.7004
H26 H 0.1346 0.1575 0.6084
O12 O 0.0821(11) 0.1838(6) -0.1632(11)
H27 H 0.0822 0.2180 -0.1485
H28 H 0.0404 0.1622 -0.1382
O13? O 0.1414(11) 0.1315(6) -0.1541(11)
H29? H 0.1052 0.1600 -0.1522
H30? H 0.1399 0.1081 -0.1081
loop_
_geom_bond_atom_site_label_1
_geom_bond_atom_site_label_2
_geom_bond_site_symmetry_1
_geom_bond_site_symmetry_2
Cd1 O1 1_555 1_555
N1 H1 1_555 1_555
H2 N1 1_555 1_555
N2 H3 1_555 1_555
H4 N2 1_555 1_555
O1 C2 1_555 1_555
O2 Cd1 1_555 1_555
O3 C4 1_555 1_555
O4 C4 1_555 1_555
O5 Cd1 1_555 1_555
O6 Cd1 1_555 1_555
O7 C1 1_555 1_555
O8 C1 1_555 1_555
C1 C14 1_555 1_555
C2 O2 1_555 1_555
C3 O5 1_555 1_555
C4 C16 1_555 1_555
C5 N1 1_555 1_555
H5 C5 1_555 1_555
H6 C5 1_555 1_555
C6 C7 1_555 1_555
C7 N2 1_555 1_555
H7 C7 1_555 1_555
H8 C7 1_555 1_555
C8 N2 1_555 1_555
H9 C8 1_555 1_555
H10 C8 1_555 1_555
C9 C5 1_555 1_555
C10 H11 1_555 1_555
C11 C2 1_555 1_555
C12 C6 1_555 1_555
H12 C12 1_555 1_555
C13 C11 1_555 1_555
H13 C13 1_555 1_555
C14 C10 1_555 1_555
C15 C9 1_555 1_555
H14 C15 1_555 1_555
C16 N1 1_555 1_555
H15 C16 1_555 1_555
H16 C16 1_555 1_555
C17 C9 1_555 1_555
H17 C17 1_555 1_555
C18 C6 1_555 1_555
H18 C18 1_555 1_555
C19 C14 1_555 1_555
H19 C19 1_555 1_555
C20 C11 1_555 1_555
H20 C20 1_555 1_555
O9 H21 1_555 1_555
H22 O9 1_555 1_555
O10 H23 1_555 1_555
H24 O10 1_555 1_555
O11 H25 1_555 1_555
H26 O11 1_555 1_555
O12 H27 1_555 1_555
H28 O12 1_555 1_555
Cd1_2 O3 1_555 1_555
Cd1_3 O7 1_555 1_555
O3_2 Cd1 1_555 1_555
O4_2 Cd1 1_555 1_555
O7_2 Cd1 1_555 1_555
O8_2 Cd1 1_555 1_555
O4 Cd1_2 1_555 1_555
O6 C3 1_555 1_555
O8 Cd1_3 1_555 1_555
C3 C8 1_555 1_555
C10 C12 1_555 1_555
C13 C15 1_555 1_555
C17 C20 1_555 1_555
C18 C19 1_555 1_555

#END
