
#######################################################################
#
#                 Cambridge Crystallographic Data Centre
#                                CCDC 
#
#######################################################################
#
# If this CIF has been generated from an entry in the Cambridge 
# Structural Database, then it will include bibliographic, chemical, 
# crystal, experimental, refinement or atomic coordinate data resulting 
# from the CCDC's data processing and validation procedures.
#
#######################################################################

data_NEZZOJ
_symmetry_cell_setting           monoclinic
_symmetry_space_group_name_H-M   'P 21/c'
_symmetry_Int_Tables_number      14
_space_group_name_Hall           '-P 2ybc'
loop_
_symmetry_equiv_pos_site_id
_symmetry_equiv_pos_as_xyz
1 x,y,z
2 -x,1/2+y,1/2-z
3 -x,-y,-z
4 x,1/2-y,1/2+z
_cell_length_a                   8.0955(7)
_cell_length_b                   22.1988(18)
_cell_length_c                   12.9314(11)
_cell_angle_alpha                90
_cell_angle_beta                 103.4700(10)
_cell_angle_gamma                90
_cell_volume                     2259.98
loop_
_atom_site_label
_atom_site_type_symbol
_atom_site_fract_x
_atom_site_fract_y
_atom_site_fract_z
Na1 Na 0.29811(15) 0.62575(5) 0.71893(9)
Ni1 Ni 0.35374(5) 0.494358(16) 0.60076(3)
C1 C 0.4382(6) 0.6962(2) 0.9626(3)
H1 H 0.4545 0.7157 0.8995
H2 H 0.4661 0.7237 1.0214
H3 H 0.3217 0.6840 0.9522
C2 C 0.5490(5) 0.64282(19) 0.9852(3)
H4 H 0.6672 0.6550 0.9988
H5 H 0.5309 0.6223 1.0479
C3 C 0.5968(4) 0.54969(16) 0.9025(3)
C4 C 0.7162(5) 0.5309(2) 0.9903(3)
H6 H 0.7443 0.5553 1.0502
C5 C 0.7954(6) 0.4752(2) 0.9896(4)
H7 H 0.8759 0.4628 1.0494
C6 C 0.7579(5) 0.4395(2) 0.9047(4)
H8 H 0.8127 0.4026 0.9059
C7 C 0.6352(4) 0.45702(16) 0.8122(3)
C8 C 0.5528(4) 0.51290(14) 0.8105(3)
C9 C 0.5921(5) 0.41711(16) 0.7242(4)
H9 H 0.6514 0.3809 0.7301
C10 C 0.4431(6) 0.37633(17) 0.5584(4)
H10 H 0.5488 0.3604 0.5468
H11 H 0.3844 0.3441 0.5857
C11 C 0.1131(6) 0.76551(17) 0.6424(4)
H12 H 0.0891 0.7427 0.7003
H13 H 0.0605 0.8044 0.6399
H14 H 0.2337 0.7703 0.6528
C12 C 0.0461(5) 0.73385(16) 0.5427(3)
H15 H -0.0769 0.7325 0.5285
H16 H 0.0777 0.7552 0.4848
C13 C 0.0624(4) 0.63789(15) 0.4623(3)
C14 C -0.0460(5) 0.65483(19) 0.3689(3)
H17 H -0.0876 0.6940 0.3613
C15 C -0.0945(5) 0.6145(2) 0.2858(3)
H18 H -0.1700 0.6265 0.2235
C16 C -0.0322(5) 0.5575(2) 0.2950(3)
H19 H -0.0656 0.5306 0.2390
C17 C 0.0835(4) 0.53880(17) 0.3895(3)
C18 C 0.1298(4) 0.57868(15) 0.4749(2)
C19 C 0.1548(5) 0.48029(18) 0.3938(3)
H20 H 0.1173 0.4557 0.3347
C20 C 0.3376(6) 0.39830(17) 0.4576(4)
H21 H 0.2460 0.3700 0.4316
H22 H 0.4058 0.4010 0.4052
C21 C 0.6613(5) 0.69582(16) 0.7530(3)
C22 C 0.9316(5) 0.65888(17) 0.7998(3)
N1 N 0.4796(4) 0.42576(11) 0.6369(3)
N2 N 0.2660(4) 0.45805(12) 0.4715(3)
N3 N 0.5261(4) 0.70053(14) 0.7036(3)
N4 N 0.8096(4) 0.69303(18) 0.8182(3)
N5 N 1.0474(4) 0.63217(14) 0.7914(2)
O1 O 0.4375(3) 0.53284(9) 0.72877(17)
O2 O 0.5098(3) 0.60300(11) 0.89502(17)
O3 O 0.2344(3) 0.56507(9) 0.56590(16)
O4 O 0.1127(3) 0.67382(9) 0.54945(18)
Na1_2 Na 1.29811(15) 0.62575(5) 0.71893(9)
N5_2 N 0.0474(4) 0.63217(14) 0.7914(2)
loop_
_geom_bond_atom_site_label_1
_geom_bond_atom_site_label_2
_geom_bond_site_symmetry_1
_geom_bond_site_symmetry_2
Na1 N3 1_555 1_555
Ni1 N1 1_555 1_555
C1 H1 1_555 1_555
H2 C1 1_555 1_555
H3 C1 1_555 1_555
C2 C1 1_555 1_555
H4 C2 1_555 1_555
H5 C2 1_555 1_555
C3 C4 1_555 1_555
C4 H6 1_555 1_555
C5 C4 1_555 1_555
H7 C5 1_555 1_555
C6 C5 1_555 1_555
H8 C6 1_555 1_555
C7 C6 1_555 1_555
C8 C3 1_555 1_555
C9 C7 1_555 1_555
H9 C9 1_555 1_555
C10 H10 1_555 1_555
H11 C10 1_555 1_555
C11 H12 1_555 1_555
H13 C11 1_555 1_555
H14 C11 1_555 1_555
C12 C11 1_555 1_555
H15 C12 1_555 1_555
H16 C12 1_555 1_555
C13 C14 1_555 1_555
C14 H17 1_555 1_555
C15 C14 1_555 1_555
H18 C15 1_555 1_555
C16 C15 1_555 1_555
H19 C16 1_555 1_555
C17 C16 1_555 1_555
C18 C13 1_555 1_555
C19 C17 1_555 1_555
H20 C19 1_555 1_555
C20 C10 1_555 1_555
H21 C20 1_555 1_555
H22 C20 1_555 1_555
C21 N3 1_555 1_555
C22 N4 1_555 1_555
N1 C9 1_555 1_555
N2 Ni1 1_555 1_555
N4 C21 1_555 1_555
N5 C22 1_555 1_555
O1 Na1 1_555 1_555
O2 Na1 1_555 1_555
O3 Na1 1_555 1_555
O4 Na1 1_555 1_555
Na1_2 N5 1_555 1_555
N5_2 Na1 1_555 1_555
Ni1 O1 1_555 1_555
Ni1 O3 1_555 1_555
C2 O2 1_555 1_555
C3 O2 1_555 1_555
C7 C8 1_555 1_555
C8 O1 1_555 1_555
C10 N1 1_555 1_555
C12 O4 1_555 1_555
C13 O4 1_555 1_555
C17 C18 1_555 1_555
C18 O3 1_555 1_555
C19 N2 1_555 1_555
C20 N2 1_555 1_555

#END
