
#######################################################################
#
#                 Cambridge Crystallographic Data Centre
#                                CCDC 
#
#######################################################################
#
# If this CIF has been generated from an entry in the Cambridge 
# Structural Database, then it will include bibliographic, chemical, 
# crystal, experimental, refinement or atomic coordinate data resulting 
# from the CCDC's data processing and validation procedures.
#
#######################################################################

data_NHBZZN10
_symmetry_cell_setting           orthorhombic
_symmetry_space_group_name_H-M   'P 21 21 21'
_symmetry_Int_Tables_number      19
_space_group_name_Hall           'P 2ac 2ab'
loop_
_symmetry_equiv_pos_site_id
_symmetry_equiv_pos_as_xyz
1 x,y,z
2 1/2+x,1/2-y,-z
3 -x,1/2+y,1/2-z
4 1/2-x,-y,1/2+z
_cell_length_a                   7.623(1)
_cell_length_b                   11.189(3)
_cell_length_c                   16.873(5)
_cell_angle_alpha                90
_cell_angle_beta                 90
_cell_angle_gamma                90
_cell_volume                     1439.16
loop_
_atom_site_label
_atom_site_type_symbol
_atom_site_fract_x
_atom_site_fract_y
_atom_site_fract_z
Zn1 Zn -0.10140 -0.64180 -0.03870
O1 O -0.48180 -0.51170 -0.43830
O2 O -0.36520 -0.33130 -0.42380
O3 O 0.17730 -0.27640 -0.39710
O4 O 0.08010 -0.44460 -0.45400
N1 N -0.29650 -0.52050 -0.06420
N2 N 0.14130 -0.60890 -0.08680
C1 C -0.41740 -0.43380 -0.39590
C2 C -0.39040 -0.45450 -0.30700
C3 C -0.44110 -0.56440 -0.27510
C4 C -0.41340 -0.58460 -0.19530
C5 C -0.33460 -0.49560 -0.14980
C6 C -0.28540 -0.38740 -0.18060
C7 C -0.31670 -0.36510 -0.26110
C8 C 0.12640 -0.38430 -0.39530
C9 C 0.12940 -0.44160 -0.31400
C10 C 0.19870 -0.38200 -0.24860
C11 C 0.20240 -0.43090 -0.17480
C12 C 0.13490 -0.55540 -0.16460
C13 C 0.06080 -0.61000 -0.22960
C14 C 0.05880 -0.55780 -0.30240
Zn1C Zn -0.39860 -0.35820 -0.53870
O1C O -0.01820 -0.48830 0.06170
O2C O -0.13480 -0.66870 0.07620
O3B O -0.17730 -0.77640 -0.10290
Zn1B Zn 0.10140 -0.14180 -0.46130
loop_
_geom_bond_atom_site_label_1
_geom_bond_atom_site_label_2
_geom_bond_site_symmetry_1
_geom_bond_site_symmetry_2
Zn1 N1 1_555 1_555
O1 C1 1_555 1_555
O2 C1 1_555 1_555
O3 C8 1_555 1_555
O4 C8 1_555 1_555
N1 C5 1_555 1_555
N2 Zn1 1_555 1_555
C1 C2 1_555 1_555
C2 C3 1_555 1_555
C3 C4 1_555 1_555
C4 C5 1_555 1_555
C5 C6 1_555 1_555
C6 C7 1_555 1_555
C7 C2 1_555 1_555
C8 C9 1_555 1_555
C9 C10 1_555 1_555
C10 C11 1_555 1_555
C11 C12 1_555 1_555
C12 N2 1_555 1_555
C13 C12 1_555 1_555
C14 C9 1_555 1_555
Zn1C O1 1_555 1_555
O1C Zn1 1_555 1_555
O2C Zn1 1_555 1_555
O3B Zn1 1_555 1_555
Zn1B O3 1_555 1_555
O2 Zn1C 1_555 1_555
C13 C14 1_555 1_555

#END
