
#######################################################################
#
#                 Cambridge Crystallographic Data Centre
#                                CCDC 
#
#######################################################################
#
# If this CIF has been generated from an entry in the Cambridge 
# Structural Database, then it will include bibliographic, chemical, 
# crystal, experimental, refinement or atomic coordinate data resulting 
# from the CCDC's data processing and validation procedures.
#
#######################################################################

data_NIBMOB01
_symmetry_cell_setting           orthorhombic
_symmetry_space_group_name_H-M   'A b a 2'
_symmetry_Int_Tables_number      41
_space_group_name_Hall           'A 2 -2ab'
loop_
_symmetry_equiv_pos_site_id
_symmetry_equiv_pos_as_xyz
1 x,y,z
2 -x,-y,z
3 1/2+x,1/2-y,z
4 1/2-x,1/2+y,z
5 x,1/2+y,1/2+z
6 -x,1/2-y,1/2+z
7 1/2+x,-y,1/2+z
8 1/2-x,y,1/2+z
_cell_length_a                   18.125(2)
_cell_length_b                   13.0397(15)
_cell_length_c                   11.0126(12)
_cell_angle_alpha                90
_cell_angle_beta                 90
_cell_angle_gamma                90
_cell_volume                     2602.77
loop_
_atom_site_label
_atom_site_type_symbol
_atom_site_fract_x
_atom_site_fract_y
_atom_site_fract_z
Ag1 Ag 0.125854(11) 0.410419(17) -0.30873(4)
N1 N 0.04339(11) 0.37402(18) -0.1726(2)
N2 N -0.01526(11) 0.36411(18) 0.0049(2)
H1 H -0.0219 0.3608 0.0822
N3 N 0.26033(13) 0.39919(18) 0.1183(2)
C1 C 0.05032(14) 0.3707(2) -0.0531(2)
C2 C -0.06957(14) 0.3637(2) -0.0829(3)
C3 C -0.14632(15) 0.3607(2) -0.0771(3)
H2 H -0.1712 0.3577 -0.0033
C4 C -0.18366(15) 0.3624(2) -0.1863(3)
H3 H -0.2349 0.3605 -0.1856
C5 C -0.14699(14) 0.3668(2) -0.2985(4)
H4 H -0.1742 0.3671 -0.3701
C6 C -0.07033(13) 0.3707(2) -0.3036(3)
H5 H -0.0455 0.3743 -0.3774
C7 C -0.03214(13) 0.3689(2) -0.1936(2)
C8 C 0.12191(13) 0.3764(2) 0.0102(3)
C9 C 0.12887(14) 0.4169(2) 0.1258(3)
H6 H 0.0873 0.4373 0.1691
C10 C 0.19849(14) 0.4269(2) 0.1761(3)
H7 H 0.2025 0.4541 0.2539
C11 C 0.25343(14) 0.3577(2) 0.0082(3)
H8 H 0.2958 0.3370 -0.0325
C12 C 0.18612(13) 0.3444(2) -0.0477(3)
H9 H 0.1836 0.3140 -0.1240
O4 O 0.07568(18) 0.4177(3) -0.5293(3)
H10 H 0.048(3) 0.396(3) -0.576(5)
H11 H 0.080(3) 0.479(4) -0.555(4)
Ag1G Ag 0.374146(11) 0.410419(17) 0.19127(4)
N3G N 0.23967(13) 0.39919(18) -0.3817(2)
N4 N -0.09376(13) 0.35948(19) 0.2921(2)
O1 O -0.02701(13) 0.3752(2) 0.2666(2)
O2 O -0.11781(16) 0.3816(3) 0.3937(3)
O3 O -0.13499(11) 0.32273(18) 0.2140(2)
loop_
_geom_bond_atom_site_label_1
_geom_bond_atom_site_label_2
_geom_bond_site_symmetry_1
_geom_bond_site_symmetry_2
Ag1 N1 1_555 1_555
N1 C1 1_555 1_555
N2 H1 1_555 1_555
N3 C10 1_555 1_555
N4 O1 1_555 1_555
O2 N4 1_555 1_555
O3 N4 1_555 1_555
C1 N2 1_555 1_555
C2 N2 1_555 1_555
C3 C2 1_555 1_555
H2 C3 1_555 1_555
C4 C3 1_555 1_555
H3 C4 1_555 1_555
C5 C4 1_555 1_555
H4 C5 1_555 1_555
C6 C5 1_555 1_555
H5 C6 1_555 1_555
C7 N1 1_555 1_555
C8 C1 1_555 1_555
C9 C8 1_555 1_555
H6 C9 1_555 1_555
C10 C9 1_555 1_555
H7 C10 1_555 1_555
C11 N3 1_555 1_555
H8 C11 1_555 1_555
C12 C8 1_555 1_555
H9 C12 1_555 1_555
O4 Ag1 1_555 1_555
H10 O4 1_555 1_555
H11 O4 1_555 1_555
Ag1G N3 1_555 1_555
N3G Ag1 1_555 1_555
C2 C7 1_555 1_555
C6 C7 1_555 1_555
C11 C12 1_555 1_555

#END
