
#######################################################################
#
#                 Cambridge Crystallographic Data Centre
#                                CCDC 
#
#######################################################################
#
# If this CIF has been generated from an entry in the Cambridge 
# Structural Database, then it will include bibliographic, chemical, 
# crystal, experimental, refinement or atomic coordinate data resulting 
# from the CCDC's data processing and validation procedures.
#
#######################################################################

data_NIBNAO
_symmetry_cell_setting           monoclinic
_symmetry_space_group_name_H-M   'P 21/c'
_symmetry_Int_Tables_number      14
_space_group_name_Hall           '-P 2ybc'
loop_
_symmetry_equiv_pos_site_id
_symmetry_equiv_pos_as_xyz
1 x,y,z
2 -x,1/2+y,1/2-z
3 -x,-y,-z
4 x,1/2-y,1/2+z
_cell_length_a                   15.9922(9)
_cell_length_b                   11.6013(6)
_cell_length_c                   13.9777(8)
_cell_angle_alpha                90
_cell_angle_beta                 95.322(3)
_cell_angle_gamma                90
_cell_volume                     2582.11
loop_
_atom_site_label
_atom_site_type_symbol
_atom_site_fract_x
_atom_site_fract_y
_atom_site_fract_z
Ag1 Ag 0.13323(3) -0.14430(4) -0.16661(3)
C1 C -0.0555(3) -0.1055(4) -0.2304(4)
H1 H -0.0607 -0.1759 -0.1996
C2 C -0.1249(3) -0.0606(4) -0.2814(4)
H2 H -0.1752 -0.1014 -0.2874
C3 C -0.1195(3) 0.0467(4) -0.3242(3)
C4 C -0.0421(3) 0.1007(4) -0.3163(4)
H3 H -0.0357 0.1716 -0.3457
C5 C 0.0252(3) 0.0497(4) -0.2651(4)
H4 H 0.0766 0.0879 -0.2598
C6 C -0.1949(3) 0.1003(4) -0.3723(3)
C7 C -0.2938(3) 0.2202(4) -0.4191(3)
C8 C -0.3461(3) 0.3170(5) -0.4371(4)
H5 H -0.3283 0.3909 -0.4194
C9 C -0.4247(3) 0.2968(6) -0.4821(4)
H6 H -0.4609 0.3588 -0.4949
C10 C -0.4524(3) 0.1862(6) -0.5093(4)
H7 H -0.5061 0.1767 -0.5399
C11 C -0.4021(3) 0.0913(5) -0.4918(4)
H8 H -0.4200 0.0176 -0.5101
C12 C -0.3231(3) 0.1113(4) -0.4454(3)
N1 N 0.0198(3) -0.0535(3) -0.2222(3)
N2 N -0.2126(2) 0.2125(3) -0.3737(3)
N3 N -0.2584(2) 0.0367(3) -0.4149(3)
H17 H -0.2587 -0.0370 -0.4219
Ag1A Ag -0.13323(3) 0.35570(4) -0.33339(3)
N2A N 0.2126(2) -0.2875(3) -0.1263(3)
Ag2 Ag 0.35307(3) -0.39778(3) 0.19294(4)
C13 C 0.5289(5) -0.4321(6) 0.2979(9)
H9 H 0.5180 -0.3567 0.3157
C14 C 0.6064(4) -0.4786(6) 0.3284(8)
H10 H 0.6468 -0.4341 0.3634
C15 C 0.6227(3) -0.5887(4) 0.3069(3)
C16 C 0.5611(4) -0.6473(5) 0.2564(5)
H11 H 0.5695 -0.7241 0.2406
C17 C 0.4853(3) -0.5947(4) 0.2277(5)
H12 H 0.4437 -0.6388 0.1943
C18 C 0.7041(3) -0.6390(4) 0.3427(3)
C19 C 0.8354(3) -0.6434(4) 0.4073(3)
C20 C 0.9158(3) -0.6202(5) 0.4483(4)
H13 H 0.9330 -0.5457 0.4652
C21 C 0.9695(3) -0.7138(5) 0.4629(4)
H14 H 1.0246 -0.7017 0.4885
C22 C 0.9426(3) -0.8256(5) 0.4402(4)
H15 H 0.9800 -0.8863 0.4523
C23 C 0.8617(3) -0.8491(4) 0.4001(4)
H16 H 0.8441 -0.9239 0.3853
C24 C 0.8081(3) -0.7548(4) 0.3831(3)
N4 N 0.4690(3) -0.4881(4) 0.2446(4)
N5 N 0.7253(2) -0.7498(3) 0.3422(3)
N6 N 0.7687(2) -0.5726(3) 0.3814(3)
H18 H 0.7678 -0.4989 0.3884
Ag2A Ag 0.64693(3) -0.89778(3) 0.30706(4)
N5A N 0.2747(2) -0.2498(3) 0.1578(3)
Si1 Si 0.23959(10) -0.71100(13) 0.09306(12)
F1 F 0.2708(3) -0.5739(4) 0.1166(3)
F2 F 0.3381(3) -0.7452(5) 0.0802(5)
F3 F 0.2546(5) -0.7438(6) 0.2089(4)
F4 F 0.2094(3) -0.8474(3) 0.0698(3)
F5 F 0.2253(3) -0.6814(3) -0.0243(3)
F6 F 0.1432(3) -0.6762(4) 0.1056(4)
O1 O 0.2227(5) 0.0441(7) -0.1610(9)
O2 O 0.3641(6) -0.744(2) -0.1318(8)
loop_
_geom_bond_atom_site_label_1
_geom_bond_atom_site_label_2
_geom_bond_site_symmetry_1
_geom_bond_site_symmetry_2
Ag1 N1 1_555 1_555
Ag2 N4 1_555 1_555
Si1 F1 1_555 1_555
F2 Si1 1_555 1_555
F3 Si1 1_555 1_555
F4 Si1 1_555 1_555
F5 Si1 1_555 1_555
F6 Si1 1_555 1_555
C1 H1 1_555 1_555
C2 C1 1_555 1_555
H2 C2 1_555 1_555
C3 C2 1_555 1_555
C4 C3 1_555 1_555
H3 C4 1_555 1_555
C5 C4 1_555 1_555
H4 C5 1_555 1_555
C6 C3 1_555 1_555
C7 C8 1_555 1_555
C8 H5 1_555 1_555
C9 C8 1_555 1_555
H6 C9 1_555 1_555
C10 C9 1_555 1_555
H7 C10 1_555 1_555
C11 C10 1_555 1_555
H8 C11 1_555 1_555
C12 C7 1_555 1_555
C13 H9 1_555 1_555
C14 C13 1_555 1_555
H10 C14 1_555 1_555
C15 C14 1_555 1_555
C16 C15 1_555 1_555
H11 C16 1_555 1_555
C17 C16 1_555 1_555
H12 C17 1_555 1_555
C18 C15 1_555 1_555
C19 C20 1_555 1_555
C20 H13 1_555 1_555
C21 C20 1_555 1_555
H14 C21 1_555 1_555
C22 C21 1_555 1_555
H15 C22 1_555 1_555
C23 C22 1_555 1_555
H16 C23 1_555 1_555
C24 C19 1_555 1_555
N1 C1 1_555 1_555
N2 C6 1_555 1_555
N3 C6 1_555 1_555
H17 N3 1_555 1_555
N4 C13 1_555 1_555
N5 C18 1_555 1_555
N6 C18 1_555 1_555
H18 N6 1_555 1_555
Ag1A N2 1_555 1_555
Ag2A N5 1_555 1_555
N2A Ag1 1_555 1_555
N5A Ag2 1_555 1_555
C5 N1 1_555 1_555
C7 N2 1_555 1_555
C11 C12 1_555 1_555
C12 N3 1_555 1_555
C17 N4 1_555 1_555
C19 N6 1_555 1_555
C23 C24 1_555 1_555
C24 N5 1_555 1_555

#END
