
#######################################################################
#
#                 Cambridge Crystallographic Data Centre
#                                CCDC 
#
#######################################################################
#
# If this CIF has been generated from an entry in the Cambridge 
# Structural Database, then it will include bibliographic, chemical, 
# crystal, experimental, refinement or atomic coordinate data resulting 
# from the CCDC's data processing and validation procedures.
#
#######################################################################

data_NIBPAR
_symmetry_cell_setting           monoclinic
_symmetry_space_group_name_H-M   'P 21/c'
_symmetry_Int_Tables_number      14
_space_group_name_Hall           '-P 2ybc'
loop_
_symmetry_equiv_pos_site_id
_symmetry_equiv_pos_as_xyz
1 x,y,z
2 -x,1/2+y,1/2-z
3 -x,-y,-z
4 x,1/2-y,1/2+z
_cell_length_a                   10.7116(5)
_cell_length_b                   18.4276(7)
_cell_length_c                   9.1416(4)
_cell_angle_alpha                90
_cell_angle_beta                 110.471(5)
_cell_angle_gamma                90
_cell_volume                     1690.5
loop_
_atom_site_label
_atom_site_type_symbol
_atom_site_fract_x
_atom_site_fract_y
_atom_site_fract_z
Cu1 Cu 0.5000 0.0000 0.5000
N1 N 0.41854(18) 0.06982(9) 0.6174(2)
N2 N 0.1773(3) 0.25353(18) 0.8843(4)
C1 C 0.3279(2) 0.04705(13) 0.6765(3)
H1 H 0.3063 -0.0020 0.6687
C2 C 0.2650(3) 0.09165(15) 0.7476(3)
H2 H 0.2024 0.0734 0.7873
C3 C 0.2965(3) 0.16436(14) 0.7593(3)
C4 C 0.3907(3) 0.18897(13) 0.7009(3)
H3 H 0.4140 0.2378 0.7079
C5 C 0.4500(2) 0.14024(13) 0.6319(3)
H4 H 0.5147 0.1570 0.5938
C6 C 0.2297(3) 0.21414(17) 0.8292(4)
N3 N 0.66987(19) 0.04920(10) 0.5856(2)
C7 C 0.7726(2) 0.07406(12) 0.6533(2)
S1 S 0.91609(6) 0.11003(4) 0.74961(8)
Cu2 Cu 1.0000 0.0000 1.0000
N4 N 1.08735(18) -0.06479(11) 0.8788(2)
N5 N 1.3236(3) -0.23391(15) 0.5788(4)
C8 C 1.0183(2) -0.08930(15) 0.7357(3)
H5 H 0.9295 -0.0757 0.6897
C9 C 1.0732(3) -0.13392(15) 0.6535(3)
H6 H 1.0226 -0.1500 0.5540
C10 C 1.2045(3) -0.15415(13) 0.7218(3)
C11 C 1.2758(2) -0.12950(13) 0.8690(3)
H7 H 1.3647 -0.1425 0.9174
C12 C 1.2141(2) -0.08551(14) 0.9436(3)
H8 H 1.2627 -0.0694 1.0438
C13 C 1.2693(3) -0.19961(15) 0.6405(3)
N6 N 0.83489(19) -0.05402(11) 0.9132(2)
C14 C 0.7276(2) -0.07491(12) 0.8538(2)
S2 S 0.57608(6) -0.10384(4) 0.77005(8)
N1B N 0.58146(18) -0.06982(9) 0.3826(2)
N2B N 0.8227(3) -0.25353(18) 0.1157(4)
C1B C 0.6721(2) -0.04705(13) 0.3235(3)
H1B H 0.6937 0.0020 0.3313
C2B C 0.7350(3) -0.09165(15) 0.2524(3)
H2B H 0.7976 -0.0734 0.2127
C3B C 0.7035(3) -0.16436(14) 0.2407(3)
C4B C 0.6093(3) -0.18897(13) 0.2991(3)
H3B H 0.5860 -0.2378 0.2921
C5B C 0.5500(2) -0.14024(13) 0.3681(3)
H4B H 0.4853 -0.1570 0.4062
C6B C 0.7703(3) -0.21414(17) 0.1708(4)
N3B N 0.33013(19) -0.04920(10) 0.4144(2)
C7B C 0.2274(2) -0.07406(12) 0.3467(2)
S1B S 0.08391(6) -0.11003(4) 0.25039(8)
N6B N 0.16511(19) 0.05402(11) 0.0868(2)
C14B C 0.2724(2) 0.07491(12) 0.1462(2)
S2B S 0.42392(6) 0.10384(4) 0.22995(8)
N4B N 0.91265(18) 0.06479(11) 1.1212(2)
N5B N 0.6764(3) 0.23391(15) 1.4212(4)
C8B C 0.9817(2) 0.08930(15) 1.2643(3)
H5B H 1.0705 0.0757 1.3103
C9B C 0.9268(3) 0.13392(15) 1.3465(3)
H6B H 0.9774 0.1500 1.4460
C10B C 0.7955(3) 0.15415(13) 1.2782(3)
C11B C 0.7242(2) 0.12950(13) 1.1310(3)
H7B H 0.6353 0.1425 1.0826
C12B C 0.7859(2) 0.08551(14) 1.0564(3)
H8B H 0.7373 0.0694 0.9562
C13B C 0.7307(3) 0.19961(15) 1.3595(3)
S1B_2 S 1.08391(6) -0.11003(4) 1.25039(8)
Cu2_2 Cu 0.0000 0.0000 0.0000
N6B_2 N 1.16511(19) 0.05402(11) 1.0868(2)
loop_
_geom_bond_atom_site_label_1
_geom_bond_atom_site_label_2
_geom_bond_site_symmetry_1
_geom_bond_site_symmetry_2
Cu1 N1 1_555 1_555
N1 C1 1_555 1_555
N2 C6 1_555 1_555
C1 H1 1_555 1_555
C2 C1 1_555 1_555
H2 C2 1_555 1_555
C3 C2 1_555 1_555
C4 C3 1_555 1_555
H3 C4 1_555 1_555
C5 N1 1_555 1_555
H4 C5 1_555 1_555
C6 C3 1_555 1_555
N3 Cu1 1_555 1_555
C7 N3 1_555 1_555
S1 C7 1_555 1_555
Cu2 S1 1_555 1_555
N4 Cu2 1_555 1_555
N5 C13 1_555 1_555
C8 N4 1_555 1_555
H5 C8 1_555 1_555
C9 C8 1_555 1_555
H6 C9 1_555 1_555
C10 C9 1_555 1_555
C11 C10 1_555 1_555
H7 C11 1_555 1_555
C12 N4 1_555 1_555
H8 C12 1_555 1_555
C13 C10 1_555 1_555
N6 Cu2 1_555 1_555
C14 N6 1_555 1_555
S2 Cu1 1_555 1_555
N1B Cu1 1_555 1_555
N2B C6B 1_555 1_555
C1B N1B 1_555 1_555
H1B C1B 1_555 1_555
C2B C1B 1_555 1_555
H2B C2B 1_555 1_555
C3B C2B 1_555 1_555
C4B C3B 1_555 1_555
H3B C4B 1_555 1_555
C5B N1B 1_555 1_555
H4B C5B 1_555 1_555
C6B C3B 1_555 1_555
N3B Cu1 1_555 1_555
C7B N3B 1_555 1_555
S1B C7B 1_555 1_555
N6B C14B 1_555 1_555
C14B S2B 1_555 1_555
S2B Cu1 1_555 1_555
N4B Cu2 1_555 1_555
N5B C13B 1_555 1_555
C8B N4B 1_555 1_555
H5B C8B 1_555 1_555
C9B C8B 1_555 1_555
H6B C9B 1_555 1_555
C10B C9B 1_555 1_555
C11B C10B 1_555 1_555
H7B C11B 1_555 1_555
C12B N4B 1_555 1_555
H8B C12B 1_555 1_555
C13B C10B 1_555 1_555
S1B_2 Cu2 1_555 1_555
Cu2_2 S1B 1_555 1_555
N6B_2 Cu2 1_555 1_555
C4 C5 1_555 1_555
C11 C12 1_555 1_555
C14 S2 1_555 1_555
C4B C5B 1_555 1_555
N6B Cu2_2 1_555 1_555
C11B C12B 1_555 1_555

#END
