
#######################################################################
#
#                 Cambridge Crystallographic Data Centre
#                                CCDC 
#
#######################################################################
#
# If this CIF has been generated from an entry in the Cambridge 
# Structural Database, then it will include bibliographic, chemical, 
# crystal, experimental, refinement or atomic coordinate data resulting 
# from the CCDC's data processing and validation procedures.
#
#######################################################################

data_NIBZUU
_symmetry_cell_setting           monoclinic
_symmetry_space_group_name_H-M   'C 2'
_symmetry_Int_Tables_number      5
_space_group_name_Hall           'C 2y'
loop_
_symmetry_equiv_pos_site_id
_symmetry_equiv_pos_as_xyz
1 x,y,z
2 -x,y,-z
3 1/2+x,1/2+y,z
4 1/2-x,1/2+y,-z
_cell_length_a                   27.0324(14)
_cell_length_b                   12.7921(5)
_cell_length_c                   23.5524(11)
_cell_angle_alpha                90
_cell_angle_beta                 98.2430(10)
_cell_angle_gamma                90
_cell_volume                     8060.31
loop_
_atom_site_label
_atom_site_type_symbol
_atom_site_fract_x
_atom_site_fract_y
_atom_site_fract_z
Cd1 Cd 0.22738(5) 0.83641(12) -0.08478(6)
Co1 Co 0.25214(9) 0.8923(2) 0.08648(10)
Cl1 Cl 0.1283(3) 0.8914(7) -0.0786(3)
Cl2 Cl 0.2267(2) 0.9260(4) -0.1765(2)
Cl3 Cl 0.3154(2) 0.7535(4) -0.0695(2)
S1 S 0.24828(19) 0.9670(4) -0.0007(2)
O1 O 0.3038(5) 1.2020(11) 0.0265(6)
O2 O 0.3064(5) 1.1687(10) 0.1199(7)
N1 N 0.3186(5) 0.9568(14) 0.1039(7)
H1 H 0.3206 0.9901 0.1388
H2 H 0.3422 0.9045 0.1077
N2 N 0.2818(6) 0.7620(12) 0.0623(7)
H3 H 0.2580 0.7255 0.0384
H4 H 0.3073 0.7782 0.0418
N3 N 0.2598(7) 0.8229(13) 0.1614(6)
H5 H 0.2879 0.8477 0.1840
H6 H 0.2326 0.8376 0.1795
N4 N 0.1829(6) 0.8408(12) 0.0674(6)
H7 H 0.1786 0.8097 0.0318
H8 H 0.1763 0.7919 0.0940
N5 N 0.2227(5) 1.0175(12) 0.1168(7)
H9 H 0.2377 1.0305 0.1537
H10 H 0.2274 1.0747 0.0945
C1 C 0.3146(8) 0.9897(16) 0.0021(8)
H41 H 0.3322 0.9235 -0.0037
H42 H 0.3210 1.0401 -0.0279
C2 C 0.3317(7) 1.0333(15) 0.0609(10)
H43 H 0.3690 1.0375 0.0656
C3 C 0.3124(8) 1.1433(16) 0.0696(10)
C4 C 0.3013(7) 0.6961(14) 0.1106(8)
H44 H 0.3348 0.7207 0.1281
H45 H 0.3042 0.6228 0.0980
C5 C 0.2642(7) 0.7038(14) 0.1539(10)
H46 H 0.2774 0.6693 0.1906
H47 H 0.2316 0.6723 0.1384
C6 C 0.1475(7) 0.9326(17) 0.0676(9)
H48 H 0.1453 0.9719 0.0312
H49 H 0.1137 0.9083 0.0727
C7 C 0.1688(8) 0.9982(14) 0.1161(8)
H50 H 0.1636 0.9636 0.1523
H51 H 0.1510 1.0660 0.1139
Cd1C Cd 0.27262(5) 0.33641(12) 0.08478(6)
Cd1C_2 Cd 0.27262(5) 1.33641(12) 0.08478(6)
Co1C Co 0.24786(9) 0.3923(2) -0.08648(10)
Cl1C Cl 0.3717(3) 0.3914(7) 0.0786(3)
Cl2C Cl 0.2733(2) 0.4260(4) 0.1765(2)
Cl3C Cl 0.1846(2) 0.2535(4) 0.0695(2)
S1C S 0.25172(19) 0.4670(4) 0.0007(2)
O1C O 0.1962(5) 0.7020(11) -0.0265(6)
O1_2 O 0.3038(5) 0.2020(11) 0.0265(6)
O2C O 0.1936(5) 0.6687(10) -0.1199(7)
O2_2 O 0.3064(5) 0.1687(10) 0.1199(7)
N1C N 0.1814(5) 0.4568(14) -0.1039(7)
H1C H 0.1794 0.4901 -0.1388
H2C H 0.1578 0.4045 -0.1077
N2C N 0.2182(6) 0.2620(12) -0.0623(7)
H3C H 0.2420 0.2255 -0.0384
H4C H 0.1927 0.2782 -0.0418
N3C N 0.2402(7) 0.3229(13) -0.1614(6)
H5C H 0.2121 0.3477 -0.1840
H6C H 0.2674 0.3376 -0.1795
N4C N 0.3171(6) 0.3408(12) -0.0674(6)
H7C H 0.3214 0.3097 -0.0318
H8C H 0.3237 0.2919 -0.0940
N5C N 0.2773(5) 0.5175(12) -0.1168(7)
H9C H 0.2623 0.5305 -0.1537
H10C H 0.2726 0.5747 -0.0945
C1C C 0.1854(8) 0.4897(16) -0.0021(8)
H41C H 0.1678 0.4235 0.0037
H42C H 0.1790 0.5401 0.0279
C2C C 0.1683(7) 0.5333(15) -0.0609(10)
H43C H 0.1310 0.5375 -0.0656
C3C C 0.1876(8) 0.6433(16) -0.0696(10)
C4C C 0.1987(7) 0.1961(14) -0.1106(8)
H44C H 0.1652 0.2207 -0.1281
H45C H 0.1958 0.1228 -0.0980
C5C C 0.2358(7) 0.2038(14) -0.1539(10)
H46C H 0.2226 0.1693 -0.1906
H47C H 0.2684 0.1723 -0.1384
C6C C 0.3525(7) 0.4326(17) -0.0676(9)
H48C H 0.3547 0.4719 -0.0312
H49C H 0.3863 0.4083 -0.0727
C7C C 0.3312(8) 0.4982(14) -0.1161(8)
H50C H 0.3364 0.4636 -0.1523
H51C H 0.3490 0.5660 -0.1139
Cd2 Cd 0.26203(6) 0.83993(12) 0.58642(6)
Co2 Co 0.26804(9) 0.8891(2) 0.41436(11)
Cl4 Cl 0.1748(3) 0.7447(5) 0.5504(3)
Cl5 Cl 0.2248(2) 0.9336(5) 0.6615(3)
Cl6 Cl 0.3556(2) 0.9049(5) 0.6118(3)
S2 S 0.2540(2) 0.9635(4) 0.4983(2)
O3 O 0.2168(5) 1.1741(11) 0.3707(6)
O4 O 0.1981(5) 1.1966(10) 0.4590(6)
N6 N 0.2057(5) 0.9605(11) 0.3784(7)
H11 H 0.2129 0.9992 0.3478
H12 H 0.1828 0.9103 0.3644
N7 N 0.3063(6) 1.0099(12) 0.3934(7)
H13 H 0.2967 1.0261 0.3554
H14 H 0.2999 1.0669 0.4151
N8 N 0.3327(6) 0.8308(15) 0.4521(7)
H15 H 0.3297 0.8045 0.4878
H16 H 0.3438 0.7786 0.4302
N9 N 0.2763(7) 0.8181(12) 0.3400(6)
H17 H 0.2675 0.8632 0.3098
H18 H 0.3092 0.7993 0.3403
N10 N 0.2314(7) 0.7628(12) 0.4281(7)
H19 H 0.2411 0.7420 0.4654
H20 H 0.1979 0.7787 0.4242
C8 C 0.1879(7) 0.9814(15) 0.4771(8)
H52 H 0.1702 0.9135 0.4761
H53 H 0.1740 1.0285 0.5042
C9 C 0.1824(7) 1.0300(14) 0.4171(9)
H54 H 0.1458 1.0319 0.4025
C10 C 0.2021(8) 1.1440(15) 0.4146(10)
C11 C 0.3612(7) 0.9851(18) 0.4038(9)
H55 H 0.3715 0.9460 0.3711
H56 H 0.3815 1.0496 0.4101
C12 C 0.3663(10) 0.9194(19) 0.4566(11)
H57 H 0.4012 0.8937 0.4649
H58 H 0.3599 0.9634 0.4893
C13 C 0.2441(9) 0.7237(16) 0.3328(9)
H59 H 0.2590 0.6717 0.3091
H60 H 0.2108 0.7429 0.3123
C14 C 0.2381(13) 0.675(2) 0.3903(11)
H61 H 0.2087 0.6282 0.3864
H62 H 0.2682 0.6342 0.4055
Cd2C Cd 0.23797(6) 0.33993(12) 0.41358(6)
Cd2C_2 Cd 0.23797(6) 1.33993(12) 0.41358(6)
Co2C Co 0.23196(9) 0.3891(2) 0.58564(11)
Cl4C Cl 0.3252(3) 0.2447(5) 0.4496(3)
Cl5C Cl 0.2752(2) 0.4336(5) 0.3385(3)
Cl6C Cl 0.1444(2) 0.4049(5) 0.3882(3)
S2C S 0.2460(2) 0.4635(4) 0.5017(2)
O3C O 0.2832(5) 0.6741(11) 0.6293(6)
O3_2 O 0.2168(5) 0.1741(11) 0.3707(6)
O4C O 0.3019(5) 0.6966(10) 0.5410(6)
O4_2 O 0.1981(5) 0.1966(10) 0.4590(6)
N6C N 0.2943(5) 0.4605(11) 0.6216(7)
H11C H 0.2871 0.4992 0.6522
H12C H 0.3172 0.4103 0.6356
N7C N 0.1937(6) 0.5099(12) 0.6066(7)
H13C H 0.2033 0.5261 0.6446
H14C H 0.2001 0.5669 0.5849
N8C N 0.1673(6) 0.3308(15) 0.5479(7)
H15C H 0.1703 0.3045 0.5122
H16C H 0.1562 0.2786 0.5698
N9C N 0.2237(7) 0.3181(12) 0.6600(6)
H17C H 0.2325 0.3632 0.6902
H18C H 0.1908 0.2993 0.6597
N10C N 0.2686(7) 0.2628(12) 0.5719(7)
H19C H 0.2589 0.2420 0.5346
H20C H 0.3021 0.2787 0.5758
C8C C 0.3121(7) 0.4814(15) 0.5229(8)
H52C H 0.3298 0.4135 0.5239
H53C H 0.3260 0.5285 0.4958
C9C C 0.3176(7) 0.5300(14) 0.5829(9)
H54C H 0.3542 0.5319 0.5975
C10C C 0.2979(8) 0.6440(15) 0.5854(10)
C11C C 0.1388(7) 0.4851(18) 0.5962(9)
H55C H 0.1285 0.4460 0.6289
H56C H 0.1185 0.5496 0.5899
C12C C 0.1337(10) 0.4194(19) 0.5434(11)
H57C H 0.0988 0.3937 0.5351
H58C H 0.1401 0.4634 0.5107
C13C C 0.2559(9) 0.2237(16) 0.6672(9)
H59C H 0.2410 0.1717 0.6909
H60C H 0.2892 0.2429 0.6877
C14C C 0.2619(13) 0.175(2) 0.6097(11)
H61C H 0.2913 0.1282 0.6136
H62C H 0.2318 0.1342 0.5945
Cd3 Cd 0.43663(5) 0.88165(12) 0.22831(7)
Cd4 Cd 0.58637(5) 1.37945(12) 0.24024(6)
Co3 Co 0.58136(9) 0.8336(2) 0.20797(10)
Co4 Co 0.43921(9) 1.3297(2) 0.26039(11)
Cl7 Cl 0.42172(17) 0.8289(4) 0.1067(2)
Cl8 Cl 0.36462(18) 0.7825(4) 0.2543(2)
Cl9 Cl 0.4686(2) 0.9669(4) 0.3282(2)
Cl10 Cl 0.6154(2) 1.3057(5) 0.3451(3)
Cl11 Cl 0.6480(2) 1.2688(4) 0.1970(3)
Cl12 Cl 0.54678(19) 1.4717(4) 0.1459(2)
S3 S 0.51098(18) 0.7535(4) 0.2282(2)
S4 S 0.51066(17) 1.2526(4) 0.2400(2)
O5 O 0.5492(5) 0.5195(11) 0.2928(6)
O6 O 0.6234(5) 0.5469(10) 0.2609(7)
O7 O 0.3962(5) 1.0447(10) 0.2034(6)
O8 O 0.4739(5) 1.0213(9) 0.1853(6)
N11 N 0.6160(6) 0.7583(12) 0.2740(7)
H21 H 0.6396 0.7158 0.2612
H22 H 0.6330 0.8065 0.2984
N12 N 0.5701(6) 0.9605(12) 0.2550(7)
H23 H 0.5383 0.9860 0.2440
H24 H 0.5732 0.9428 0.2932
N13 N 0.6450(6) 0.9058(11) 0.1967(7)
H25 H 0.6714 0.8596 0.2025
H26 H 0.6427 0.9317 0.1600
N14 N 0.5466(6) 0.8979(15) 0.1394(8)
H27 H 0.5129 0.9006 0.1413
H28 H 0.5580 0.9650 0.1360
N15 N 0.5918(6) 0.7175(13) 0.1590(8)
H29 H 0.6249 0.7160 0.1537
H30 H 0.5851 0.6563 0.1769
N16 N 0.4041(6) 1.2595(11) 0.1908(6)
H31 H 0.3779 1.2216 0.2011
H32 H 0.3909 1.3100 0.1653
N17 N 0.4531(6) 1.4580(12) 0.2183(6)
H33 H 0.4796 1.4936 0.2382
H34 H 0.4610 1.4408 0.1827
N18 N 0.3753(5) 1.4001(12) 0.2727(7)
H35 H 0.3489 1.3738 0.2479
H36 H 0.3691 1.3896 0.3097
N19 N 0.4753(6) 1.3873(14) 0.3321(7)
H37 H 0.5045 1.4185 0.3251
H38 H 0.4559 1.4370 0.3467
N20 N 0.4245(6) 1.2091(13) 0.3068(7)
H39 H 0.3910 1.1936 0.2987
H40 H 0.4421 1.1521 0.2968
C15 C 0.5369(8) 0.7339(14) 0.3048(8)
H63 H 0.5378 0.8014 0.3255
H64 H 0.5155 0.6850 0.3228
C16 C 0.5857(7) 0.6929(14) 0.3080(9)
H65 H 0.6018 0.6933 0.3490
C17 C 0.5841(10) 0.5759(15) 0.2850(9)
C18 C 0.6060(7) 1.0383(16) 0.2465(9)
H66 H 0.6105 1.0861 0.2799
H67 H 0.5934 1.0799 0.2120
C19 C 0.6530(8) 0.9934(15) 0.2396(10)
H68 H 0.6696 0.9664 0.2769
H69 H 0.6748 1.0474 0.2261
C20 C 0.5561(8) 0.8330(18) 0.0878(7)
H70 H 0.5286 0.8444 0.0559
H71 H 0.5876 0.8564 0.0749
C21 C 0.5596(10) 0.7231(17) 0.1014(9)
H72 H 0.5752 0.6844 0.0721
H73 H 0.5261 0.6933 0.1033
C22 C 0.4893(8) 1.2326(15) 0.1649(9)
H74 H 0.4892 1.2995 0.1437
H75 H 0.5113 1.1825 0.1485
C23 C 0.4355(7) 1.1884(15) 0.1610(8)
H76 H 0.4209 1.1859 0.1196
C24 C 0.4372(7) 1.0797(16) 0.1837(8)
C25 C 0.4057(8) 1.5271(16) 0.2116(9)
H77 H 0.4150 1.6009 0.2062
H78 H 0.3825 1.5048 0.1774
C26 C 0.3821(8) 1.5176(15) 0.2614(10)
H79 H 0.3493 1.5531 0.2555
H80 H 0.4030 1.5503 0.2947
C27 C 0.4869(10) 1.2991(18) 0.3750(10)
H81 H 0.4940 1.3268 0.4146
H82 H 0.5161 1.2582 0.3666
C28 C 0.4371(7) 1.2279(16) 0.3673(9)
H83 H 0.4434 1.1610 0.3883
H84 H 0.4095 1.2648 0.3823
Cd4_2 Cd 0.58637(5) 0.37945(12) 0.24024(6)
O5_2 O 0.5492(5) 1.5195(11) 0.2928(6)
O6_2 O 0.6234(5) 1.5469(10) 0.2609(7)
Cl13 Cl 0.2592(2) 1.0071(4) 0.2538(2)
Na1 Na 0.587(5) 1.051(9) 0.382(3)
O10 O 0.0804(6) 0.7243(13) -0.0076(7)
O11 O 0.1075(7) 0.5911(14) 0.1030(8)
O12 O 0.4591(8) 1.0233(16) 0.0306(9)
O13 O 0.4177(11) 0.591(2) 0.0481(12)
O14 O 0.7052(6) 0.7171(12) 0.2176(7)
O16 O 0.3183(6) 0.2078(13) 0.2864(7)
O17 O 0.3899(8) 0.4858(16) 0.4014(9)
Na2 Na 0.4462(11) 0.418(3) 0.5029(12)
O18 O 0.425(2) 0.227(4) 0.520(2)
O19 O 0.3917(9) 0.7011(18) 0.3837(10)
O20 O 0.4871(15) 0.775(3) 0.4371(16)
O21 O 0.579(2) 0.707(4) 0.450(2)
O22 O 0.452(2) 0.545(5) 0.580(3)
O23 O 0.5000 1.072(7) 0.5000
O9? O 0.5082(19) 0.533(3) 0.0195(17)
O15? O 0.5163(11) 0.336(3) 0.0318(12)
loop_
_geom_bond_atom_site_label_1
_geom_bond_atom_site_label_2
_geom_bond_site_symmetry_1
_geom_bond_site_symmetry_2
Cd1 Cl1 1_555 1_555
Cd2 Cl4 1_555 1_555
Cd3 Cl7 1_555 1_555
Cd4 Cl10 1_555 1_555
Co1 S1 1_555 1_555
Co2 S2 1_555 1_555
Co3 S3 1_555 1_555
Co4 S4 1_555 1_555
Cl2 Cd1 1_555 1_555
Cl3 Cd1 1_555 1_555
Cl5 Cd2 1_555 1_555
Cl6 Cd2 1_555 1_555
Cl8 Cd3 1_555 1_555
Cl9 Cd3 1_555 1_555
Cl11 Cd4 1_555 1_555
Cl12 Cd4 1_555 1_555
S1 Cd1 1_555 1_555
S2 Cd2 1_555 1_555
S3 Cd3 1_555 1_555
S4 Cd4 1_555 1_555
O1 C3 1_555 1_555
O2 C3 1_555 1_555
O3 C10 1_555 1_555
O4 C10 1_555 1_555
O5 C17 1_555 1_555
O6 C17 1_555 1_555
O7 Cd3 1_555 1_555
O8 Cd3 1_555 1_555
N1 Co1 1_555 1_555
H1 N1 1_555 1_555
H2 N1 1_555 1_555
N2 Co1 1_555 1_555
H3 N2 1_555 1_555
H4 N2 1_555 1_555
N3 Co1 1_555 1_555
H5 N3 1_555 1_555
H6 N3 1_555 1_555
N4 Co1 1_555 1_555
H7 N4 1_555 1_555
H8 N4 1_555 1_555
N5 Co1 1_555 1_555
H9 N5 1_555 1_555
H10 N5 1_555 1_555
N6 Co2 1_555 1_555
H11 N6 1_555 1_555
H12 N6 1_555 1_555
N7 Co2 1_555 1_555
H13 N7 1_555 1_555
H14 N7 1_555 1_555
N8 Co2 1_555 1_555
H15 N8 1_555 1_555
H16 N8 1_555 1_555
N9 Co2 1_555 1_555
H17 N9 1_555 1_555
H18 N9 1_555 1_555
N10 Co2 1_555 1_555
H19 N10 1_555 1_555
H20 N10 1_555 1_555
N11 Co3 1_555 1_555
H21 N11 1_555 1_555
H22 N11 1_555 1_555
N12 Co3 1_555 1_555
H23 N12 1_555 1_555
H24 N12 1_555 1_555
N13 Co3 1_555 1_555
H25 N13 1_555 1_555
H26 N13 1_555 1_555
N14 Co3 1_555 1_555
H27 N14 1_555 1_555
H28 N14 1_555 1_555
N15 Co3 1_555 1_555
H29 N15 1_555 1_555
H30 N15 1_555 1_555
N16 Co4 1_555 1_555
H31 N16 1_555 1_555
H32 N16 1_555 1_555
N17 Co4 1_555 1_555
H33 N17 1_555 1_555
H34 N17 1_555 1_555
N18 Co4 1_555 1_555
H35 N18 1_555 1_555
H36 N18 1_555 1_555
N19 Co4 1_555 1_555
H37 N19 1_555 1_555
H38 N19 1_555 1_555
N20 Co4 1_555 1_555
H39 N20 1_555 1_555
H40 N20 1_555 1_555
C1 S1 1_555 1_555
H41 C1 1_555 1_555
H42 C1 1_555 1_555
C2 N1 1_555 1_555
H43 C2 1_555 1_555
C3 C2 1_555 1_555
C4 N2 1_555 1_555
H44 C4 1_555 1_555
H45 C4 1_555 1_555
C5 N3 1_555 1_555
H46 C5 1_555 1_555
H47 C5 1_555 1_555
C6 N4 1_555 1_555
H48 C6 1_555 1_555
H49 C6 1_555 1_555
C7 N5 1_555 1_555
H50 C7 1_555 1_555
H51 C7 1_555 1_555
C8 S2 1_555 1_555
H52 C8 1_555 1_555
H53 C8 1_555 1_555
C9 N6 1_555 1_555
H54 C9 1_555 1_555
C10 C9 1_555 1_555
C11 N7 1_555 1_555
H55 C11 1_555 1_555
H56 C11 1_555 1_555
C12 N8 1_555 1_555
H57 C12 1_555 1_555
H58 C12 1_555 1_555
C13 N9 1_555 1_555
H59 C13 1_555 1_555
H60 C13 1_555 1_555
C14 N10 1_555 1_555
H61 C14 1_555 1_555
H62 C14 1_555 1_555
C15 S3 1_555 1_555
H63 C15 1_555 1_555
H64 C15 1_555 1_555
C16 N11 1_555 1_555
H65 C16 1_555 1_555
C17 C16 1_555 1_555
C18 N12 1_555 1_555
H66 C18 1_555 1_555
H67 C18 1_555 1_555
C19 N13 1_555 1_555
H68 C19 1_555 1_555
H69 C19 1_555 1_555
C20 N14 1_555 1_555
H70 C20 1_555 1_555
H71 C20 1_555 1_555
C21 N15 1_555 1_555
H72 C21 1_555 1_555
H73 C21 1_555 1_555
C22 S4 1_555 1_555
H74 C22 1_555 1_555
H75 C22 1_555 1_555
C23 N16 1_555 1_555
H76 C23 1_555 1_555
C24 O7 1_555 1_555
C25 N17 1_555 1_555
H77 C25 1_555 1_555
H78 C25 1_555 1_555
C26 N18 1_555 1_555
H79 C26 1_555 1_555
H80 C26 1_555 1_555
C27 N19 1_555 1_555
H81 C27 1_555 1_555
H82 C27 1_555 1_555
C28 N20 1_555 1_555
H83 C28 1_555 1_555
H84 C28 1_555 1_555
Cd1C Cl1C 1_555 1_555
Cd1C_2 O1 1_555 1_555
Cd2C Cl4C 1_555 1_555
Cd2C_2 O3 1_555 1_555
Cd4_2 O5 1_555 1_555
Co1C S1C 1_555 1_555
Co2C S2C 1_555 1_555
Cl2C Cd1C 1_555 1_555
Cl3C Cd1C 1_555 1_555
Cl5C Cd2C 1_555 1_555
Cl6C Cd2C 1_555 1_555
S1C Cd1C 1_555 1_555
S2C Cd2C 1_555 1_555
O1C Cd1 1_555 1_555
O1_2 Cd1C 1_555 1_555
O2C Cd1 1_555 1_555
O2_2 Cd1C 1_555 1_555
O3C Cd2 1_555 1_555
O3_2 Cd2C 1_555 1_555
O4C Cd2 1_555 1_555
O4_2 Cd2C 1_555 1_555
O5_2 Cd4 1_555 1_555
O6_2 Cd4 1_555 1_555
N1C Co1C 1_555 1_555
H1C N1C 1_555 1_555
H2C N1C 1_555 1_555
N2C Co1C 1_555 1_555
H3C N2C 1_555 1_555
H4C N2C 1_555 1_555
N3C Co1C 1_555 1_555
H5C N3C 1_555 1_555
H6C N3C 1_555 1_555
N4C Co1C 1_555 1_555
H7C N4C 1_555 1_555
H8C N4C 1_555 1_555
N5C Co1C 1_555 1_555
H9C N5C 1_555 1_555
H10C N5C 1_555 1_555
N6C Co2C 1_555 1_555
H11C N6C 1_555 1_555
H12C N6C 1_555 1_555
N7C Co2C 1_555 1_555
H13C N7C 1_555 1_555
H14C N7C 1_555 1_555
N8C Co2C 1_555 1_555
H15C N8C 1_555 1_555
H16C N8C 1_555 1_555
N9C Co2C 1_555 1_555
H17C N9C 1_555 1_555
H18C N9C 1_555 1_555
N10C Co2C 1_555 1_555
H19C N10C 1_555 1_555
H20C N10C 1_555 1_555
C1C S1C 1_555 1_555
H41C C1C 1_555 1_555
H42C C1C 1_555 1_555
C2C N1C 1_555 1_555
H43C C2C 1_555 1_555
C3C O1C 1_555 1_555
C4C N2C 1_555 1_555
H44C C4C 1_555 1_555
H45C C4C 1_555 1_555
C5C N3C 1_555 1_555
H46C C5C 1_555 1_555
H47C C5C 1_555 1_555
C6C N4C 1_555 1_555
H48C C6C 1_555 1_555
H49C C6C 1_555 1_555
C7C N5C 1_555 1_555
H50C C7C 1_555 1_555
H51C C7C 1_555 1_555
C8C S2C 1_555 1_555
H52C C8C 1_555 1_555
H53C C8C 1_555 1_555
C9C N6C 1_555 1_555
H54C C9C 1_555 1_555
C10C O3C 1_555 1_555
C11C N7C 1_555 1_555
H55C C11C 1_555 1_555
H56C C11C 1_555 1_555
C12C N8C 1_555 1_555
H57C C12C 1_555 1_555
H58C C12C 1_555 1_555
C13C N9C 1_555 1_555
H59C C13C 1_555 1_555
H60C C13C 1_555 1_555
C14C N10C 1_555 1_555
H61C C14C 1_555 1_555
H62C C14C 1_555 1_555
O2 Cd1C_2 1_555 1_555
O4 Cd2C_2 1_555 1_555
O6 Cd4_2 1_555 1_555
O8 C24 1_555 1_555
C1 C2 1_555 1_555
C4 C5 1_555 1_555
C6 C7 1_555 1_555
C8 C9 1_555 1_555
C11 C12 1_555 1_555
C13 C14 1_555 1_555
C15 C16 1_555 1_555
C18 C19 1_555 1_555
C20 C21 1_555 1_555
C22 C23 1_555 1_555
C23 C24 1_555 1_555
C25 C26 1_555 1_555
C27 C28 1_555 1_555
O2C C3C 1_555 1_555
O4C C10C 1_555 1_555
C1C C2C 1_555 1_555
C2C C3C 1_555 1_555
C4C C5C 1_555 1_555
C6C C7C 1_555 1_555
C8C C9C 1_555 1_555
C9C C10C 1_555 1_555
C11C C12C 1_555 1_555
C13C C14C 1_555 1_555

#END
