
#######################################################################
#
#                 Cambridge Crystallographic Data Centre
#                                CCDC 
#
#######################################################################
#
# If this CIF has been generated from an entry in the Cambridge 
# Structural Database, then it will include bibliographic, chemical, 
# crystal, experimental, refinement or atomic coordinate data resulting 
# from the CCDC's data processing and validation procedures.
#
#######################################################################

data_NICNAQ
_symmetry_cell_setting           orthorhombic
_symmetry_space_group_name_H-M   'P 21 21 21'
_symmetry_Int_Tables_number      19
_space_group_name_Hall           'P 2ac 2ab'
loop_
_symmetry_equiv_pos_site_id
_symmetry_equiv_pos_as_xyz
1 x,y,z
2 1/2+x,1/2-y,-z
3 -x,1/2+y,1/2-z
4 1/2-x,-y,1/2+z
_cell_length_a                   5.5868(7)
_cell_length_b                   8.7166(11)
_cell_length_c                   18.668(2)
_cell_angle_alpha                90
_cell_angle_beta                 90
_cell_angle_gamma                90
_cell_volume                     909.092
loop_
_atom_site_label
_atom_site_type_symbol
_atom_site_fract_x
_atom_site_fract_y
_atom_site_fract_z
Pb1 Pb 0.24533(8) 0.09303(4) 0.045997(18)
S1 S 0.1769(7) -0.4269(4) -0.1081(2)
O1 O -0.007(2) 0.2516(11) -0.1783(5)
O2 O 0.0465(16) 0.1912(10) -0.0642(4)
O3 O 0.5154(15) 0.1289(10) -0.0501(4)
C1 C 0.444(3) -0.1184(16) -0.2326(7)
H1 H 0.4324 -0.1742 -0.2749
N1 N 0.4840(16) 0.0486(11) -0.1092(5)
N2 N 0.187(2) -0.1572(13) -0.0266(7)
C2 C 0.657(2) -0.0590(14) -0.1249(7)
H2 H 0.7845 -0.0754 -0.0939
C3 C 0.637(2) -0.1418(15) -0.1875(6)
H3 H 0.7534 -0.2137 -0.1994
C4 C 0.271(3) -0.0134(13) -0.2155(6)
H4 H 0.1385 0.0011 -0.2448
C5 C 0.300(2) 0.0716(12) -0.1521(4)
C6 C 0.100(2) 0.1856(11) -0.1306(7)
C7 C 0.185(2) -0.2723(15) -0.0594(7)
Pb1A Pb -0.25467(8) 0.40697(4) -0.045997(18)
Pb1A_2 Pb 0.74533(8) 0.40697(4) -0.045997(18)
O1A O 0.493(2) 0.2484(11) 0.1783(5)
O2A O 0.5465(16) 0.3088(10) 0.0642(4)
O3A O 0.0154(15) 0.3711(10) 0.0501(4)
loop_
_geom_bond_atom_site_label_1
_geom_bond_atom_site_label_2
_geom_bond_site_symmetry_1
_geom_bond_site_symmetry_2
Pb1 O2 1_555 1_555
S1 C7 1_555 1_555
O1 C6 1_555 1_555
O2 C6 1_555 1_555
O3 Pb1 1_555 1_555
C1 H1 1_555 1_555
N1 O3 1_555 1_555
N2 Pb1 1_555 1_555
C2 N1 1_555 1_555
H2 C2 1_555 1_555
C3 C1 1_555 1_555
H3 C3 1_555 1_555
C4 C1 1_555 1_555
H4 C4 1_555 1_555
C5 N1 1_555 1_555
C6 C5 1_555 1_555
C7 N2 1_555 1_555
Pb1A O1 1_555 1_555
Pb1A_2 O3 1_555 1_555
O1A Pb1 1_555 1_555
O2A Pb1 1_555 1_555
O3A Pb1 1_555 1_555
O2 Pb1A 1_555 1_555
C2 C3 1_555 1_555
C4 C5 1_555 1_555
Pb1A O3A 1_555 1_555
Pb1A_2 O2A 1_555 1_555

#END
