
#######################################################################
#
#                 Cambridge Crystallographic Data Centre
#                                CCDC 
#
#######################################################################
#
# If this CIF has been generated from an entry in the Cambridge 
# Structural Database, then it will include bibliographic, chemical, 
# crystal, experimental, refinement or atomic coordinate data resulting 
# from the CCDC's data processing and validation procedures.
#
#######################################################################

data_NICNUK
_symmetry_cell_setting           monoclinic
_symmetry_space_group_name_H-M   'P 21/n'
_symmetry_Int_Tables_number      14
_space_group_name_Hall           '-P 2yn'
loop_
_symmetry_equiv_pos_site_id
_symmetry_equiv_pos_as_xyz
1 x,y,z
2 1/2-x,1/2+y,1/2-z
3 -x,-y,-z
4 1/2+x,1/2-y,1/2+z
_cell_length_a                   12.726(3)
_cell_length_b                   10.727(2)
_cell_length_c                   16.007(4)
_cell_angle_alpha                90
_cell_angle_beta                 93.409(3)
_cell_angle_gamma                90
_cell_volume                     2181.28
loop_
_atom_site_label
_atom_site_type_symbol
_atom_site_fract_x
_atom_site_fract_y
_atom_site_fract_z
Sn1 Sn 0.72470(6) 0.94218(6) 0.27749(5)
Br1 Br 0.60719(15) 0.32708(16) 0.64298(11)
N1 N 0.7015(9) 0.4685(8) 0.4215(7)
O1 O 0.6972(6) 0.7866(7) 0.3695(5)
O2 O 0.7540(7) 0.6279(7) 0.2955(5)
C1 C 0.7155(9) 0.6722(8) 0.3597(6)
C2 C 0.6825(9) 0.5911(9) 0.4299(7)
C3 C 0.6401(10) 0.6384(11) 0.4993(8)
H1 H 0.6272 0.7235 0.5027
C4 C 0.6168(13) 0.5641(12) 0.5624(9)
H2 H 0.5887 0.5973 0.6099
C5 C 0.6345(10) 0.4400(11) 0.5569(8)
C6 C 0.6774(11) 0.3952(12) 0.4845(9)
H3 H 0.6897 0.3101 0.4801
C7 C 0.8887(11) 0.9105(14) 0.2758(9)
H4 H 0.8994 0.8320 0.2475
H5 H 0.9187 0.9756 0.2425
C8 C 0.9474(12) 0.907(2) 0.3568(11)
H6 H 0.9221 0.8377 0.3892
H7 H 0.9349 0.9830 0.3870
C9 C 1.0678(12) 0.891(2) 0.3475(12)
H8 H 1.0782 0.8308 0.3036
H9 H 1.0960 0.9701 0.3296
C10 C 1.1285(19) 0.851(3) 0.4240(14)
H10 H 1.1357 0.9192 0.4625
H11 H 1.1970 0.8230 0.4099
H12 H 1.0923 0.7834 0.4495
C11 C 0.6719(10) 1.0630(12) 0.3722(10)
H13 H 0.6859 1.0222 0.4258
H14 H 0.7147 1.1378 0.3726
C12 C 0.5557(11) 1.1034(17) 0.3665(13)
H15 H 0.5475 1.1614 0.4121
H16 H 0.5452 1.1510 0.3152
C13 C 0.4741(12) 1.0226(18) 0.3677(14)
H17 H 0.4765 0.9843 0.4227
H18 H 0.4864 0.9569 0.3278
C14 C 0.3634(12) 1.0707(19) 0.3490(15)
H19 H 0.3326 1.0919 0.4005
H20 H 0.3217 1.0073 0.3206
H21 H 0.3655 1.1434 0.3142
C15 C 0.6116(11) 0.8617(13) 0.1910(9)
H22 H 0.6490 0.8111 0.1522
H23 H 0.5682 0.8057 0.2217
C16 C 0.5393(14) 0.9475(15) 0.1402(11)
H24 H 0.5817 0.9992 0.1056
H25 H 0.5050 1.0023 0.1784
C17 C 0.4547(14) 0.8838(18) 0.0839(12)
H26 H 0.4036 0.9472 0.0666
H27 H 0.4879 0.8572 0.0339
C18 C 0.3973(19) 0.780(2) 0.1127(15)
H28 H 0.4437 0.7270 0.1463
H29 H 0.3680 0.7335 0.0655
H30 H 0.3416 0.8087 0.1456
Sn1A Sn 0.77530(6) 0.44218(6) 0.22251(5)
O2A O 0.7460(7) 1.1279(7) 0.2045(5)
loop_
_geom_bond_atom_site_label_1
_geom_bond_atom_site_label_2
_geom_bond_site_symmetry_1
_geom_bond_site_symmetry_2
Sn1 O1 1_555 1_555
Br1 C5 1_555 1_555
N1 C2 1_555 1_555
O1 C1 1_555 1_555
O2 C1 1_555 1_555
C1 C2 1_555 1_555
C2 C3 1_555 1_555
C3 H1 1_555 1_555
C4 C3 1_555 1_555
H2 C4 1_555 1_555
C5 C4 1_555 1_555
C6 N1 1_555 1_555
H3 C6 1_555 1_555
C7 Sn1 1_555 1_555
H4 C7 1_555 1_555
H5 C7 1_555 1_555
C8 C7 1_555 1_555
H6 C8 1_555 1_555
H7 C8 1_555 1_555
C9 C8 1_555 1_555
H8 C9 1_555 1_555
H9 C9 1_555 1_555
C10 C9 1_555 1_555
H10 C10 1_555 1_555
H11 C10 1_555 1_555
H12 C10 1_555 1_555
C11 Sn1 1_555 1_555
H13 C11 1_555 1_555
H14 C11 1_555 1_555
C12 C11 1_555 1_555
H15 C12 1_555 1_555
H16 C12 1_555 1_555
C13 C12 1_555 1_555
H17 C13 1_555 1_555
H18 C13 1_555 1_555
C14 C13 1_555 1_555
H19 C14 1_555 1_555
H20 C14 1_555 1_555
H21 C14 1_555 1_555
C15 Sn1 1_555 1_555
H22 C15 1_555 1_555
H23 C15 1_555 1_555
C16 C15 1_555 1_555
H24 C16 1_555 1_555
H25 C16 1_555 1_555
C17 C16 1_555 1_555
H26 C17 1_555 1_555
H27 C17 1_555 1_555
C18 C17 1_555 1_555
H28 C18 1_555 1_555
H29 C18 1_555 1_555
H30 C18 1_555 1_555
Sn1A O2 1_555 1_555
O2A Sn1 1_555 1_555
C5 C6 1_555 1_555

#END
