
#######################################################################
#
#                 Cambridge Crystallographic Data Centre
#                                CCDC 
#
#######################################################################
#
# If this CIF has been generated from an entry in the Cambridge 
# Structural Database, then it will include bibliographic, chemical, 
# crystal, experimental, refinement or atomic coordinate data resulting 
# from the CCDC's data processing and validation procedures.
#
#######################################################################

data_NICOPB01
_symmetry_cell_setting           orthorhombic
_symmetry_space_group_name_H-M   'P c c n'
_symmetry_Int_Tables_number      56
_space_group_name_Hall           '-P 2ab 2ac'
loop_
_symmetry_equiv_pos_site_id
_symmetry_equiv_pos_as_xyz
1 x,y,z
2 1/2-x,1/2-y,z
3 -x,1/2+y,1/2-z
4 1/2+x,-y,1/2-z
5 -x,-y,-z
6 1/2+x,1/2+y,-z
7 x,1/2-y,1/2+z
8 1/2-x,y,1/2+z
_cell_length_a                   10.3245(8)
_cell_length_b                   13.5965(11)
_cell_length_c                   8.4990(7)
_cell_angle_alpha                90
_cell_angle_beta                 90
_cell_angle_gamma                90
_cell_volume                     1193.06
loop_
_atom_site_label
_atom_site_type_symbol
_atom_site_fract_x
_atom_site_fract_y
_atom_site_fract_z
Pb1 Pb 0.7500 0.2500 0.093546(12)
N1 N 0.51791(15) 0.33776(11) 0.13687(19)
C1 C 0.43777(19) 0.31056(13) 0.0187(3)
H1 H 0.4541 0.2519 -0.0340
C2 C 0.33281(19) 0.36637(14) -0.0265(2)
H2 H 0.2794 0.3458 -0.1083
O1 O 0.43035(14) 0.59607(10) 0.37784(16)
O2 O 0.28855(15) 0.63810(10) 0.19533(16)
C3 C 0.37030(16) 0.57889(12) 0.2539(2)
C4 C 0.39182(17) 0.48280(12) 0.17025(18)
C5 C 0.3083(2) 0.45353(13) 0.0520(2)
H3 H 0.2369 0.4918 0.0257
C6 C 0.49373(17) 0.42278(12) 0.2089(2)
H4 H 0.5488 0.4425 0.2896
Pb1B Pb 0.2500 0.7500 0.406454(12)
Pb1D Pb 0.2500 0.7500 -0.093546(12)
Pb1B_2 Pb 1.2500 -0.2500 0.406454(12)
Pb1D_2 Pb 1.2500 -0.2500 -0.093546(12)
N1A N 0.98209(15) 0.16224(11) 0.13687(19)
C1A C 1.06223(19) 0.18944(13) 0.0187(3)
H1A H 1.0459 0.2481 -0.0340
C2A C 1.16719(19) 0.13363(14) -0.0265(2)
H2A H 1.2206 0.1542 -0.1083
O1A O 1.06965(14) -0.09607(10) 0.37784(16)
O1B O 0.56965(14) 0.09607(10) 0.12216(16)
O1C O 0.93035(14) 0.40393(10) 0.12216(16)
O2A O 1.21145(15) -0.13810(10) 0.19533(16)
O2B O 0.71145(15) 0.13810(10) 0.30467(16)
O2C O 0.78855(15) 0.36190(10) 0.30467(16)
O2D O 0.71145(15) 0.36190(10) -0.19533(16)
O2E O 0.78855(15) 0.13810(10) -0.19533(16)
C3A C 1.12970(16) -0.07889(12) 0.2539(2)
C4A C 1.10818(17) 0.01720(12) 0.17025(18)
C5A C 1.1917(2) 0.04647(13) 0.0520(2)
H3A H 1.2631 0.0082 0.0257
C6A C 1.00627(17) 0.07722(12) 0.2089(2)
H4A H 0.9512 0.0575 0.2896
loop_
_geom_bond_atom_site_label_1
_geom_bond_atom_site_label_2
_geom_bond_site_symmetry_1
_geom_bond_site_symmetry_2
Pb1 N1 1_555 1_555
N1 C1 1_555 1_555
C1 H1 1_555 1_555
C2 C1 1_555 1_555
H2 C2 1_555 1_555
O1 C3 1_555 1_555
O2 C3 1_555 1_555
C3 C4 1_555 1_555
C4 C5 1_555 1_555
C5 C2 1_555 1_555
H3 C5 1_555 1_555
C6 N1 1_555 1_555
H4 C6 1_555 1_555
Pb1B O1 1_555 1_555
Pb1D O2 1_555 1_555
Pb1B_2 O1A 1_555 1_555
Pb1D_2 O2A 1_555 1_555
N1A Pb1 1_555 1_555
C1A N1A 1_555 1_555
H1A C1A 1_555 1_555
C2A C1A 1_555 1_555
H2A C2A 1_555 1_555
O1A C3A 1_555 1_555
O1B Pb1 1_555 1_555
O1C Pb1 1_555 1_555
O2A Pb1B_2 1_555 1_555
O2B Pb1 1_555 1_555
O2C Pb1 1_555 1_555
O2D Pb1 1_555 1_555
O2E Pb1 1_555 1_555
C3A O2A 1_555 1_555
C4A C3A 1_555 1_555
C5A C2A 1_555 1_555
H3A C5A 1_555 1_555
C6A N1A 1_555 1_555
H4A C6A 1_555 1_555
O2 Pb1B 1_555 1_555
C4 C6 1_555 1_555
C4A C5A 1_555 1_555
C4A C6A 1_555 1_555

#END
