
#######################################################################
#
#                 Cambridge Crystallographic Data Centre
#                                CCDC 
#
#######################################################################
#
# If this CIF has been generated from an entry in the Cambridge 
# Structural Database, then it will include bibliographic, chemical, 
# crystal, experimental, refinement or atomic coordinate data resulting 
# from the CCDC's data processing and validation procedures.
#
#######################################################################

data_NICPAS
_symmetry_cell_setting           monoclinic
_symmetry_space_group_name_H-M   'P 21/n'
_symmetry_Int_Tables_number      14
_space_group_name_Hall           '-P 2yn'
loop_
_symmetry_equiv_pos_site_id
_symmetry_equiv_pos_as_xyz
1 x,y,z
2 1/2-x,1/2+y,1/2-z
3 -x,-y,-z
4 1/2+x,1/2-y,1/2+z
_cell_length_a                   12.945(3)
_cell_length_b                   12.333(3)
_cell_length_c                   13.420(3)
_cell_angle_alpha                90
_cell_angle_beta                 91.985(3)
_cell_angle_gamma                90
_cell_volume                     2141.23
loop_
_atom_site_label
_atom_site_type_symbol
_atom_site_fract_x
_atom_site_fract_y
_atom_site_fract_z
Sn1 Sn 0.764413(16) 0.900991(16) 0.217436(15)
Br1 Br 0.58618(3) 0.83820(3) 0.68269(2)
N1 N 0.6929(2) 0.9476(2) 0.41574(18)
O1 O 0.74484(16) 1.07283(16) 0.25810(15)
O2 O 0.70859(16) 1.22109(16) 0.34383(15)
C1 C 0.7134(2) 1.1212(2) 0.3350(2)
C2 C 0.6795(2) 1.0543(2) 0.4223(2)
C3 C 0.6375(3) 1.1036(3) 0.5044(2)
H1 H 0.6282 1.1784 0.5061
C4 C 0.6095(3) 1.0396(3) 0.5837(2)
H2 H 0.5812 1.0702 0.6399
C5 C 0.6246(2) 0.9306(3) 0.5772(2)
C6 C 0.6667(3) 0.8863(2) 0.4930(2)
H3 H 0.6770 0.8117 0.4900
C7 C 0.8938(2) 0.8725(2) 0.3166(2)
C8 C 0.9136(3) 0.7731(3) 0.3608(2)
H4 H 0.8681 0.7157 0.3492
C9 C 1.0004(3) 0.7584(3) 0.4220(3)
H5 H 1.0128 0.6911 0.4513
C10 C 1.0684(3) 0.8417(4) 0.4399(3)
H6 H 1.1270 0.8309 0.4807
C11 C 1.0496(3) 0.9411(4) 0.3974(3)
H7 H 1.0951 0.9983 0.4096
C12 C 0.9621(3) 0.9561(3) 0.3360(3)
H8 H 0.9495 1.0237 0.3074
C13 C 0.8067(2) 0.9562(2) 0.0729(2)
C14 C 0.7696(3) 0.9031(3) -0.0121(3)
H9 H 0.7271 0.8428 -0.0060
C15 C 0.7952(3) 0.9389(4) -0.1063(3)
H10 H 0.7691 0.9031 -0.1627
C16 C 0.8588(4) 1.0265(4) -0.1162(3)
H11 H 0.8762 1.0500 -0.1793
C17 C 0.8970(3) 1.0799(3) -0.0324(3)
H12 H 0.9400 1.1398 -0.0387
C18 C 0.8710(3) 1.0438(3) 0.0604(3)
H13 H 0.8977 1.0797 0.1165
C19 C 0.6042(2) 0.8625(2) 0.2061(2)
C20 C 0.5396(3) 0.9325(3) 0.1526(2)
H14 H 0.5665 0.9959 0.1262
C21 C 0.4359(3) 0.9095(4) 0.1380(3)
H15 H 0.3935 0.9576 0.1022
C22 C 0.3950(3) 0.8168(4) 0.1756(4)
H16 H 0.3252 0.8011 0.1651
C23 C 0.4575(3) 0.7475(3) 0.2287(4)
H17 H 0.4299 0.6846 0.2553
C24 C 0.5621(3) 0.7698(3) 0.2436(3)
H18 H 0.6040 0.7213 0.2793
Sn1A Sn 0.735587(16) 1.400991(16) 0.282564(15)
O2A O 0.79141(16) 0.72109(16) 0.15617(15)
loop_
_geom_bond_atom_site_label_1
_geom_bond_atom_site_label_2
_geom_bond_site_symmetry_1
_geom_bond_site_symmetry_2
Sn1 O1 1_555 1_555
Br1 C5 1_555 1_555
N1 C2 1_555 1_555
O1 C1 1_555 1_555
O2 C1 1_555 1_555
C1 C2 1_555 1_555
C2 C3 1_555 1_555
C3 H1 1_555 1_555
C4 C3 1_555 1_555
H2 C4 1_555 1_555
C5 C4 1_555 1_555
C6 N1 1_555 1_555
H3 C6 1_555 1_555
C7 Sn1 1_555 1_555
C8 C7 1_555 1_555
H4 C8 1_555 1_555
C9 C8 1_555 1_555
H5 C9 1_555 1_555
C10 C9 1_555 1_555
H6 C10 1_555 1_555
C11 C10 1_555 1_555
H7 C11 1_555 1_555
C12 C7 1_555 1_555
H8 C12 1_555 1_555
C13 Sn1 1_555 1_555
C14 C13 1_555 1_555
H9 C14 1_555 1_555
C15 C14 1_555 1_555
H10 C15 1_555 1_555
C16 C15 1_555 1_555
H11 C16 1_555 1_555
C17 C16 1_555 1_555
H12 C17 1_555 1_555
C18 C13 1_555 1_555
H13 C18 1_555 1_555
C19 Sn1 1_555 1_555
C20 C19 1_555 1_555
H14 C20 1_555 1_555
C21 C20 1_555 1_555
H15 C21 1_555 1_555
C22 C21 1_555 1_555
H16 C22 1_555 1_555
C23 C22 1_555 1_555
H17 C23 1_555 1_555
C24 C19 1_555 1_555
H18 C24 1_555 1_555
Sn1A O2 1_555 1_555
O2A Sn1 1_555 1_555
C5 C6 1_555 1_555
C11 C12 1_555 1_555
C17 C18 1_555 1_555
C23 C24 1_555 1_555

#END
