
#######################################################################
#
#                 Cambridge Crystallographic Data Centre
#                                CCDC 
#
#######################################################################
#
# If this CIF has been generated from an entry in the Cambridge 
# Structural Database, then it will include bibliographic, chemical, 
# crystal, experimental, refinement or atomic coordinate data resulting 
# from the CCDC's data processing and validation procedures.
#
#######################################################################

data_NICSUN
_symmetry_cell_setting           monoclinic
_symmetry_space_group_name_H-M   'C 2/c'
_symmetry_Int_Tables_number      15
_space_group_name_Hall           '-C 2yn'
loop_
_symmetry_equiv_pos_site_id
_symmetry_equiv_pos_as_xyz
1 x,y,z
2 1/2+x,1/2+y,z
3 x,-y,1/2+z
4 1/2+x,1/2-y,1/2+z
5 -x,-y,-z
6 1/2-x,1/2-y,-z
7 -x,y,1/2-z
8 1/2-x,1/2+y,1/2-z
_cell_length_a                   22.549(11)
_cell_length_b                   7.538(2)
_cell_length_c                   21.597(5)
_cell_angle_alpha                90
_cell_angle_beta                 114.34(3)
_cell_angle_gamma                90
_cell_volume                     3344.65
loop_
_atom_site_label
_atom_site_type_symbol
_atom_site_fract_x
_atom_site_fract_y
_atom_site_fract_z
C15 C 0.0000 0.1828(16) 0.7500
C16 C -0.0541(3) 0.2877(8) 0.6939(4)
C16F C 0.0541(3) 0.2877(8) 0.8061(4)
Ca1 Ca -0.01185(2) 0.25277(6) 0.50976(2)
S1 S 0.08614(3) 0.24971(9) 0.33196(3)
S2 S 0.10269(3) 0.27075(9) 0.24606(3)
O1 O 0.03676(12) 0.4027(3) 0.62156(9)
H1 H 0.0378 0.3587 0.6608
H2 H 0.0522 0.5025 0.6172
O2 O -0.07785(10) 0.1288(3) 0.56052(11)
H3 H -0.1025 0.1912 0.5766
H4 H -0.0747 0.0164 0.5611
O3 O 0.06957(8) 0.4730(2) 0.50323(9)
O4 O 0.05760(10) 0.2281(2) 0.44509(10)
O5 O 0.06049(8) -0.0160(2) 0.06470(8)
O6 O 0.09188(9) 0.2469(2) 0.11116(9)
C1 C 0.08707(11) 0.3691(3) 0.46817(11)
C2 C 0.14648(11) 0.4125(3) 0.45653(11)
C3 C 0.15339(11) 0.3596(3) 0.39747(11)
C4 C 0.21066(12) 0.3963(4) 0.39131(13)
H5 H 0.2148 0.3654 0.3501
C5 C 0.26161(13) 0.4785(4) 0.44354(14)
H6 H 0.3021 0.4978 0.4397
C6 C 0.25495(13) 0.5310(4) 0.50143(14)
H7 H 0.2901 0.5898 0.5375
C7 C 0.19707(13) 0.5004(3) 0.50693(12)
H8 H 0.1918 0.5406 0.5465
C8 C 0.09243(11) 0.0817(3) 0.11506(11)
C9 C 0.13389(11) -0.0053(3) 0.18122(11)
C10 C 0.14295(11) 0.0683(3) 0.24403(11)
C11 C 0.18260(13) -0.0189(4) 0.30374(12)
H9 H 0.1886 0.0310 0.3468
C12 C 0.21289(15) -0.1749(4) 0.30122(15)
H10 H 0.2408 -0.2319 0.3428
C13 C 0.20381(14) -0.2505(4) 0.24020(15)
H11 H 0.2244 -0.3611 0.2391
C14 C 0.16439(12) -0.1662(4) 0.18040(13)
H12 H 0.1580 -0.2184 0.1376
S1D S -0.08614(3) 0.75029(9) 0.66804(3)
S2D S -0.10269(3) 0.72925(9) 0.75394(3)
O3D O -0.06957(8) 0.5270(2) 0.49677(9)
O4D O -0.05760(10) 0.7719(2) 0.55491(10)
O5D O -0.06049(8) 1.0160(2) 0.93530(8)
O6D O -0.09188(9) 0.7531(2) 0.88884(9)
C1D C -0.08707(11) 0.6309(3) 0.53183(11)
C2D C -0.14648(11) 0.5875(3) 0.54347(11)
C3D C -0.15339(11) 0.6404(3) 0.60253(11)
C4D C -0.21066(12) 0.6037(4) 0.60869(13)
H5D H -0.2148 0.6346 0.6499
C5D C -0.26161(13) 0.5215(4) 0.55646(14)
H6D H -0.3021 0.5022 0.5603
C6D C -0.25495(13) 0.4690(4) 0.49857(14)
H7D H -0.2901 0.4102 0.4625
C7D C -0.19707(13) 0.4996(3) 0.49307(12)
H8D H -0.1918 0.4594 0.4535
C8D C -0.09243(11) 0.9183(3) 0.88494(11)
C9D C -0.13389(11) 1.0053(3) 0.81878(11)
C10D C -0.14295(11) 0.9317(3) 0.75597(11)
C11D C -0.18260(13) 1.0189(4) 0.69626(12)
H9D H -0.1886 0.9690 0.6532
C12D C -0.21289(15) 1.1749(4) 0.69878(15)
H10D H -0.2408 1.2319 0.6572
C13D C -0.20381(14) 1.2505(4) 0.75980(15)
H11D H -0.2244 1.3611 0.7609
C14D C -0.16439(12) 1.1662(4) 0.81960(13)
H12D H -0.1580 1.2184 0.8624
Ca1D Ca 0.01185(2) 0.74723(6) 0.49024(2)
O1D O -0.03676(12) 0.5973(3) 0.37844(9)
H1D H -0.0378 0.6413 0.3392
H2D H -0.0522 0.4975 0.3828
O2D O 0.07785(10) 0.8712(3) 0.43948(11)
H3D H 0.1025 0.8088 0.4234
H4D H 0.0747 0.9836 0.4389
O5B O 0.06049(8) 0.0160(2) 0.56470(8)
O5F O -0.06049(8) -0.0160(2) 0.43530(8)
O6F O -0.09188(9) 0.2469(2) 0.38884(9)
Ca1B Ca -0.01185(2) -0.25277(6) 0.00976(2)
Ca1F Ca 0.01185(2) 0.25277(6) -0.00976(2)
Ca1B_2 Ca -0.01185(2) 0.74723(6) 1.00976(2)
Ca1F_2 Ca 0.01185(2) 1.25277(6) 0.99024(2)
O5B_2 O 0.06049(8) 1.0160(2) 0.56470(8)
O5F_2 O -0.06049(8) 0.9840(2) 0.43530(8)
O6B O 0.09188(9) 0.7531(2) 0.61116(9)
loop_
_geom_bond_atom_site_label_1
_geom_bond_atom_site_label_2
_geom_bond_site_symmetry_1
_geom_bond_site_symmetry_2
Ca1 O1 1_555 1_555
S1 S2 1_555 1_555
S2 C10 1_555 1_555
O1 H1 1_555 1_555
H2 O1 1_555 1_555
O2 Ca1 1_555 1_555
H3 O2 1_555 1_555
H4 O2 1_555 1_555
O3 Ca1 1_555 1_555
O4 Ca1 1_555 1_555
O5 C8 1_555 1_555
O6 C8 1_555 1_555
C1 O3 1_555 1_555
C2 C1 1_555 1_555
C3 S1 1_555 1_555
C4 C3 1_555 1_555
H5 C4 1_555 1_555
C5 C4 1_555 1_555
H6 C5 1_555 1_555
C6 C5 1_555 1_555
H7 C6 1_555 1_555
C7 C2 1_555 1_555
H8 C7 1_555 1_555
C8 C9 1_555 1_555
C9 C10 1_555 1_555
C10 C11 1_555 1_555
C11 H9 1_555 1_555
C12 C11 1_555 1_555
H10 C12 1_555 1_555
C13 C12 1_555 1_555
H11 C13 1_555 1_555
C14 C9 1_555 1_555
H12 C14 1_555 1_555
C15 C16 1_555 1_555
C16F C15 1_555 1_555
S1D S2D 1_555 1_555
S2D C10D 1_555 1_555
O3D Ca1 1_555 1_555
O4D C1D 1_555 1_555
O5D C8D 1_555 1_555
O6D C8D 1_555 1_555
C1D O3D 1_555 1_555
C2D C1D 1_555 1_555
C3D S1D 1_555 1_555
C4D C3D 1_555 1_555
H5D C4D 1_555 1_555
C5D C4D 1_555 1_555
H6D C5D 1_555 1_555
C6D C5D 1_555 1_555
H7D C6D 1_555 1_555
C7D C2D 1_555 1_555
H8D C7D 1_555 1_555
C8D C9D 1_555 1_555
C9D C10D 1_555 1_555
C10D C11D 1_555 1_555
C11D H9D 1_555 1_555
C12D C11D 1_555 1_555
H10D C12D 1_555 1_555
C13D C12D 1_555 1_555
H11D C13D 1_555 1_555
C14D C9D 1_555 1_555
H12D C14D 1_555 1_555
Ca1D O3 1_555 1_555
O1D Ca1D 1_555 1_555
H1D O1D 1_555 1_555
H2D O1D 1_555 1_555
O2D Ca1D 1_555 1_555
H3D O2D 1_555 1_555
H4D O2D 1_555 1_555
O5B Ca1 1_555 1_555
O5F Ca1 1_555 1_555
O6F Ca1 1_555 1_555
Ca1B O5 1_555 1_555
Ca1F O5 1_555 1_555
Ca1B_2 O5D 1_555 1_555
Ca1F_2 O5D 1_555 1_555
O5B_2 Ca1D 1_555 1_555
O5F_2 Ca1D 1_555 1_555
O6B Ca1D 1_555 1_555
O4 C1 1_555 1_555
O6 Ca1F 1_555 1_555
C2 C3 1_555 1_555
C6 C7 1_555 1_555
C13 C14 1_555 1_555
O3D Ca1D 1_555 1_555
O4D Ca1D 1_555 1_555
O6D Ca1B_2 1_555 1_555
C2D C3D 1_555 1_555
C6D C7D 1_555 1_555
C13D C14D 1_555 1_555

#END
