
#######################################################################
#
#                 Cambridge Crystallographic Data Centre
#                                CCDC 
#
#######################################################################
#
# If this CIF has been generated from an entry in the Cambridge 
# Structural Database, then it will include bibliographic, chemical, 
# crystal, experimental, refinement or atomic coordinate data resulting 
# from the CCDC's data processing and validation procedures.
#
#######################################################################

data_NICZUW
_symmetry_cell_setting           orthorhombic
_symmetry_space_group_name_H-M   'P n a 21'
_symmetry_Int_Tables_number      33
_space_group_name_Hall           'P 2c -2n'
loop_
_symmetry_equiv_pos_site_id
_symmetry_equiv_pos_as_xyz
1 x,y,z
2 -x,-y,1/2+z
3 1/2-x,1/2+y,1/2+z
4 1/2+x,1/2-y,z
_cell_length_a                   13.999(11)
_cell_length_b                   9.293(7)
_cell_length_c                   15.579(11)
_cell_angle_alpha                90
_cell_angle_beta                 90
_cell_angle_gamma                90
_cell_volume                     2026.71
loop_
_atom_site_label
_atom_site_type_symbol
_atom_site_fract_x
_atom_site_fract_y
_atom_site_fract_z
N1 N 0.4244(8) -0.3486(12) 0.9188(6)
O1 O 0.7413(7) -0.3970(11) 0.7371(6)
O2 O 0.7518(7) -0.4764(9) 1.1948(6)
C1 C 0.4128(9) -0.2205(15) 0.9517(10)
H1 H 0.4102 -0.1427 0.9142
C2 C 0.4074(10) -0.311(2) 1.0917(10)
H2 H 0.4002 -0.2959 1.1503
C3 C 0.6704(10) -0.4034(13) 0.7807(8)
C4 C 0.4043(10) -0.1935(16) 1.0364(10)
H3 H 0.3967 -0.1003 1.0570
C5 C 0.6801(10) -0.4905(14) 1.1533(7)
O3 O 0.5849(6) -0.3958(8) 0.7541(5)
C6 C 0.4461(8) -0.6000(15) 0.9320(9)
O4 O 0.5961(6) -0.5275(9) 1.1797(5)
N2 N 0.4421(7) -0.6000(12) 0.8466(8)
O5 O 0.4128(7) -0.2045(9) 0.7622(5)
H4 H 0.4538 -0.1808 0.7226
H5 H 0.3556 -0.1892 0.7420
C7 C 0.4295(9) -0.4621(15) 0.9757(10)
C8 C 0.4548(9) -0.7202(15) 0.8005(10)
H6 H 0.4508 -0.7170 0.7410
C9 C 0.4210(9) -0.4492(18) 1.0611(9)
H7 H 0.4241 -0.5284 1.0975
C10 C 0.4735(10) -0.8485(17) 0.8413(12)
H8 H 0.4834 -0.9318 0.8094
C11 C 0.4775(10) -0.8531(18) 0.9264(14)
H9 H 0.4889 -0.9405 0.9536
C12 C 0.4646(9) -0.7255(17) 0.9772(10)
H10 H 0.4684 -0.7270 1.0368
Br1 Br 0.71149(11) -0.71866(15) 0.83554(8)
Br2 Br 0.71309(11) -0.76744(14) 1.04796(9)
Br3 Br 0.66237(10) -0.17315(14) 1.09696(9)
Br4 Br 0.66704(11) -0.12520(14) 0.88532(9)
Cu1 Cu 0.42938(11) -0.40605(16) 0.79469(11)
C13 C 0.6717(9) -0.3304(14) 1.0202(8)
C14 C 0.6782(8) -0.4265(13) 0.8779(8)
C15 C 0.6933(9) -0.5651(14) 0.9132(8)
C16 C 0.6947(8) -0.5818(13) 1.0013(8)
C17 C 0.6705(8) -0.3146(15) 0.9352(9)
C18 C 0.6814(8) -0.4695(14) 1.0579(7)
O4A O 0.4039(6) -0.4725(9) 0.6797(5)
Cu1A Cu 0.57062(11) -0.59395(16) 1.29469(11)
O6 O 0.4279(8) -0.8694(11) 1.1661(7)
H11 H 0.4019 -0.9448 1.1863
H12 H 0.3947 -0.7970 1.1810
loop_
_geom_bond_atom_site_label_1
_geom_bond_atom_site_label_2
_geom_bond_site_symmetry_1
_geom_bond_site_symmetry_2
N1 C1 1_555 1_555
O1 C3 1_555 1_555
O2 C5 1_555 1_555
C1 H1 1_555 1_555
C2 H2 1_555 1_555
C3 O3 1_555 1_555
C4 C1 1_555 1_555
H3 C4 1_555 1_555
C5 O4 1_555 1_555
O3 Cu1 1_555 1_555
C6 N2 1_555 1_555
O4 Cu1A 1_555 1_555
N2 C8 1_555 1_555
O5 H4 1_555 1_555
H5 O5 1_555 1_555
C7 N1 1_555 1_555
C8 H6 1_555 1_555
C9 C2 1_555 1_555
H7 C9 1_555 1_555
C10 C8 1_555 1_555
H8 C10 1_555 1_555
C11 C10 1_555 1_555
H9 C11 1_555 1_555
C12 C6 1_555 1_555
H10 C12 1_555 1_555
Br1 C15 1_555 1_555
Br2 C16 1_555 1_555
Br3 C13 1_555 1_555
Br4 C17 1_555 1_555
Cu1 N1 1_555 1_555
C13 C17 1_555 1_555
C14 C3 1_555 1_555
C15 C14 1_555 1_555
C16 C15 1_555 1_555
C17 C14 1_555 1_555
C18 C5 1_555 1_555
O6 H11 1_555 1_555
H12 O6 1_555 1_555
O4A Cu1 1_555 1_555
C2 C4 1_555 1_555
C6 C7 1_555 1_555
N2 Cu1 1_555 1_555
O5 Cu1 1_555 1_555
C7 C9 1_555 1_555
C11 C12 1_555 1_555
C13 C18 1_555 1_555
C16 C18 1_555 1_555

#END
