
#######################################################################
#
#                 Cambridge Crystallographic Data Centre
#                                CCDC 
#
#######################################################################
#
# If this CIF has been generated from an entry in the Cambridge 
# Structural Database, then it will include bibliographic, chemical, 
# crystal, experimental, refinement or atomic coordinate data resulting 
# from the CCDC's data processing and validation procedures.
#
#######################################################################

data_NIDCEJ
_symmetry_cell_setting           orthorhombic
_symmetry_space_group_name_H-M   'P b c n'
_symmetry_Int_Tables_number      60
_space_group_name_Hall           '-P 2n 2ab'
loop_
_symmetry_equiv_pos_site_id
_symmetry_equiv_pos_as_xyz
1 x,y,z
2 1/2-x,1/2-y,1/2+z
3 1/2+x,1/2-y,-z
4 -x,y,1/2-z
5 -x,-y,-z
6 1/2+x,1/2+y,1/2-z
7 1/2-x,1/2+y,z
8 x,-y,1/2+z
_cell_length_a                   15.226(4)
_cell_length_b                   8.3221(19)
_cell_length_c                   23.698(5)
_cell_angle_alpha                90
_cell_angle_beta                 90
_cell_angle_gamma                90
_cell_volume                     3002.83
loop_
_atom_site_label
_atom_site_type_symbol
_atom_site_fract_x
_atom_site_fract_y
_atom_site_fract_z
H1 H 0.110(3) 0.369(6) 0.854(2)
H2 H 0.040(3) 0.399(5) 0.8192(16)
La1 La 0.205453(11) 0.488132(18) 0.750056(8)
O1 O 0.28945(15) 0.4822(3) 0.84682(10)
O2 O 0.33652(14) 0.6671(3) 0.73512(10)
O3 O 0.31273(15) 0.2690(3) 0.79541(10)
O4 O 0.14453(15) 0.6567(3) 0.67233(9)
O5 O 0.06899(17) 0.5435(3) 0.58137(10)
H3 H 0.0808 0.5467 0.6151
O6 O 0.09398(16) 0.4246(3) 0.82482(11)
O7 O 0.13760(19) 0.7872(3) 0.40832(9)
H4 H 0.1638 0.8644 0.3950
O8 O 0.22493(16) 0.8785(3) 0.66694(10)
O9 O 0.42549(14) 0.8486(3) 0.70069(9)
C1 C 0.4567(3) 0.5751(5) 0.6785(2)
H5 H 0.4402 0.5664 0.6395
H6 H 0.4463 0.4744 0.6971
H7 H 0.5179 0.6017 0.6810
C2 C 0.1648(2) 0.7748(4) 0.58262(13)
C3 C 0.1122(2) 0.6636(4) 0.55413(13)
C4 C 0.1024(2) 0.6717(4) 0.49595(13)
H8 H 0.0661 0.5992 0.4773
C5 C 0.1468(2) 0.7875(4) 0.46607(13)
C6 C 0.1794(2) 0.7713(4) 0.64445(14)
C7 C 0.2073(2) 0.8919(4) 0.55028(15)
H9 H 0.2420 0.9677 0.5685
C8 C 0.3261(2) 0.3476(4) 0.84044(13)
C9 C 0.3842(3) 0.2812(4) 0.88566(16)
H10 H 0.3506 0.2116 0.9097
H11 H 0.4312 0.2215 0.8687
H12 H 0.4080 0.3679 0.9076
C10 C 0.4033(2) 0.7041(4) 0.70621(15)
C11 C 0.1998(2) 0.8991(5) 0.49269(14)
H13 H 0.2296 0.9770 0.4721
H1F H 0.390(3) 0.869(6) 0.854(2)
H2F H 0.460(3) 0.899(5) 0.8192(16)
La1F La 0.294547(11) 0.988132(18) 0.750056(8)
La1F_2 La 0.294547(11) -0.011868(18) 0.750056(8)
O1F O 0.21055(15) 0.9822(3) 0.84682(10)
O2F O 0.16348(14) 0.1671(3) 0.73512(10)
O2F_2 O 0.16348(14) 1.1671(3) 0.73512(10)
O3F O 0.18727(15) 0.7690(3) 0.79541(10)
O3_2 O 0.31273(15) 1.2690(3) 0.79541(10)
O4F O 0.35547(15) 0.1567(3) 0.67233(9)
O4F_2 O 0.35547(15) 1.1567(3) 0.67233(9)
O5F O 0.43101(17) 0.0435(3) 0.58137(10)
H3F H 0.4192 0.0467 0.6151
O6F O 0.40602(16) 0.9246(3) 0.82482(11)
O7F O 0.36240(19) 0.2872(3) 0.40832(9)
H4F H 0.3362 0.3644 0.3950
O8F O 0.27507(16) 0.3785(3) 0.66694(10)
O9F O 0.07451(14) 0.3486(3) 0.70069(9)
C1F C 0.0433(3) 0.0751(5) 0.6785(2)
H5F H 0.0598 0.0664 0.6395
H6F H 0.0537 -0.0256 0.6971
H7F H -0.0179 0.1017 0.6810
C2F C 0.3352(2) 0.2748(4) 0.58262(13)
C3F C 0.3878(2) 0.1636(4) 0.55413(13)
C4F C 0.3976(2) 0.1717(4) 0.49595(13)
H8F H 0.4339 0.0992 0.4773
C5F C 0.3532(2) 0.2875(4) 0.46607(13)
C6F C 0.3206(2) 0.2713(4) 0.64445(14)
C7F C 0.2927(2) 0.3919(4) 0.55028(15)
H9F H 0.2580 0.4677 0.5685
C8F C 0.1739(2) 0.8476(4) 0.84044(13)
C9F C 0.1158(3) 0.7812(4) 0.88566(16)
H10F H 0.1494 0.7116 0.9097
H11F H 0.0688 0.7215 0.8687
H12F H 0.0920 0.8679 0.9076
C10F C 0.0967(2) 0.2041(4) 0.70621(15)
C11F C 0.3002(2) 0.3991(5) 0.49269(14)
H13F H 0.2704 0.4770 0.4721
O10 O 0.0000 0.6428(18) 0.7500
loop_
_geom_bond_atom_site_label_1
_geom_bond_atom_site_label_2
_geom_bond_site_symmetry_1
_geom_bond_site_symmetry_2
H1 O6 1_555 1_555
H2 O6 1_555 1_555
La1 O1 1_555 1_555
O1 C8 1_555 1_555
O2 La1 1_555 1_555
O3 La1 1_555 1_555
O4 La1 1_555 1_555
O5 H3 1_555 1_555
O6 La1 1_555 1_555
O7 H4 1_555 1_555
O8 C6 1_555 1_555
O9 C10 1_555 1_555
C1 H5 1_555 1_555
H6 C1 1_555 1_555
H7 C1 1_555 1_555
C2 C3 1_555 1_555
C3 O5 1_555 1_555
C4 C3 1_555 1_555
H8 C4 1_555 1_555
C5 O7 1_555 1_555
C6 O4 1_555 1_555
C7 C2 1_555 1_555
H9 C7 1_555 1_555
C8 O3 1_555 1_555
C9 C8 1_555 1_555
H10 C9 1_555 1_555
H11 C9 1_555 1_555
H12 C9 1_555 1_555
C10 O2 1_555 1_555
C11 C5 1_555 1_555
H13 C11 1_555 1_555
H1F O6F 1_555 1_555
H2F O6F 1_555 1_555
La1F O2 1_555 1_555
La1F_2 O3 1_555 1_555
O1F La1F 1_555 1_555
O2F La1 1_555 1_555
O2F_2 La1F 1_555 1_555
O3F La1 1_555 1_555
O3_2 La1F 1_555 1_555
O4F La1F_2 1_555 1_555
O4F_2 La1F 1_555 1_555
O5F H3F 1_555 1_555
O6F La1F 1_555 1_555
O7F H4F 1_555 1_555
O8F La1 1_555 1_555
O9F La1 1_555 1_555
C1F H5F 1_555 1_555
H6F C1F 1_555 1_555
H7F C1F 1_555 1_555
C2F C3F 1_555 1_555
C3F O5F 1_555 1_555
C4F C3F 1_555 1_555
H8F C4F 1_555 1_555
C5F O7F 1_555 1_555
C6F O4F 1_555 1_555
C7F C2F 1_555 1_555
H9F C7F 1_555 1_555
C8F O1F 1_555 1_555
C9F C8F 1_555 1_555
H10F C9F 1_555 1_555
H11F C9F 1_555 1_555
H12F C9F 1_555 1_555
C10F O2F 1_555 1_555
C11F C5F 1_555 1_555
H13F C11F 1_555 1_555
O8 La1F 1_555 1_555
O9 La1F 1_555 1_555
C1 C10 1_555 1_555
C2 C6 1_555 1_555
C4 C5 1_555 1_555
C7 C11 1_555 1_555
La1F O3F 1_555 1_555
La1F_2 O2F 1_555 1_555
O3F C8F 1_555 1_555
O8F C6F 1_555 1_555
O9F C10F 1_555 1_555
C1F C10F 1_555 1_555
C2F C6F 1_555 1_555
C4F C5F 1_555 1_555
C7F C11F 1_555 1_555

#END
