
#######################################################################
#
#                 Cambridge Crystallographic Data Centre
#                                CCDC 
#
#######################################################################
#
# If this CIF has been generated from an entry in the Cambridge 
# Structural Database, then it will include bibliographic, chemical, 
# crystal, experimental, refinement or atomic coordinate data resulting 
# from the CCDC's data processing and validation procedures.
#
#######################################################################

data_NIDCOS
_symmetry_cell_setting           orthorhombic
_symmetry_space_group_name_H-M   'P c n n'
_symmetry_Int_Tables_number      52
_space_group_name_Hall           '-P 2ab 2c'
loop_
_symmetry_equiv_pos_site_id
_symmetry_equiv_pos_as_xyz
1 x,y,z
2 1/2+x,1/2+y,-z
3 -x,y,1/2+z
4 1/2+x,1/2-y,1/2+z
5 -x,-y,-z
6 1/2-x,1/2-y,z
7 x,-y,1/2-z
8 1/2-x,1/2+y,1/2-z
_cell_length_a                   13.107(3)
_cell_length_b                   19.339(4)
_cell_length_c                   24.883(8)
_cell_angle_alpha                90
_cell_angle_beta                 90
_cell_angle_gamma                90
_cell_volume                     6307.25
loop_
_atom_site_label
_atom_site_type_symbol
_atom_site_fract_x
_atom_site_fract_y
_atom_site_fract_z
Ba1 Ba 1.49393(11) -0.39537(6) 0.38869(5)
Ba2 Ba 1.06289(13) 0.0000 0.2500
Ba3 Ba 0.7500 -0.2500 -0.12053(7)
S1 S 1.3399(4) -0.1610(3) 0.2473(2)
S2 S 1.2704(4) -0.0848(3) 0.2036(2)
S3 S 0.7496(6) -0.1023(3) 0.0440(2)
S4 S 0.6667(5) -0.1775(4) 0.0058(2)
O1 O 1.4663(12) -0.3684(6) 0.2804(5)
O2 O 1.4030(11) -0.2685(7) 0.3098(5)
O3 O 1.2215(9) 0.1125(6) 0.1205(5)
O4 O 1.1643(10) 0.0203(6) 0.1577(5)
O5 O 0.9244(10) -0.0026(8) 0.1743(5)
O6 O 0.8824(13) -0.0136(9) 0.0868(7)
O7 O 0.4149(13) -0.2803(10) -0.0737(8)
O8 O 0.5782(10) -0.2664(8) -0.0638(6)
O9 O 1.691(2) -0.3800(15) 0.3554(12)
H1 H 1.7127 -0.3402 0.3404
H2 H 1.7350 -0.4153 0.3599
O10 O 1.392(4) -0.494(4) 0.465(2)
H3 H 1.3289 -0.4854 0.4764
H4 H 1.4249 -0.5329 0.4753
C1 C 1.4256(15) -0.2877(11) 0.2133(8)
C2 C 1.3804(14) -0.2257(10) 0.1986(8)
C3 C 1.3723(15) -0.2068(10) 0.1439(8)
H7 H 1.3463 -0.1639 0.1341
C4 C 1.4051(16) -0.2552(12) 0.1039(9)
H8 H 1.3931 -0.2464 0.0677
C5 C 1.4533(18) -0.3132(11) 0.1190(9)
H9 H 1.4816 -0.3419 0.0930
C6 C 1.4615(15) -0.3307(10) 0.1713(8)
H10 H 1.4919 -0.3726 0.1801
C7 C 1.4318(16) -0.3074(12) 0.2730(8)
C8 C 1.3451(16) 0.0340(11) 0.1528(8)
C9 C 1.3712(15) -0.0290(10) 0.1807(7)
C10 C 1.4716(15) -0.0421(11) 0.1914(8)
H11 H 1.4883 -0.0792 0.2134
C11 C 1.5447(15) -0.0040(12) 0.1717(8)
H12 H 1.6116 -0.0192 0.1757
C12 C 1.5277(16) 0.0588(11) 0.1446(8)
H13 H 1.5803 0.0882 0.1342
C13 C 1.4279(16) 0.0728(9) 0.1350(8)
H14 H 1.4135 0.1120 0.1147
C14 C 1.2376(17) 0.0573(10) 0.1412(8)
C15 C 0.7977(16) -0.0861(10) 0.1507(8)
C16 C 0.7385(16) -0.1241(9) 0.1137(8)
C17 C 0.6668(15) -0.1713(10) 0.1320(8)
H15 H 0.6243 -0.1936 0.1076
C18 C 0.6585(16) -0.1850(11) 0.1853(8)
H16 H 0.6145 -0.2199 0.1965
C19 C 0.7139(16) -0.1485(11) 0.2238(9)
H17 H 0.7048 -0.1578 0.2602
C20 C 0.7823(15) -0.0984(11) 0.2075(8)
H18 H 0.8183 -0.0728 0.2328
C21 C 0.8728(17) -0.0283(11) 0.1374(10)
C22 C 0.4657(15) -0.1855(11) -0.0251(7)
C23 C 0.5373(16) -0.1461(11) 0.0042(7)
C24 C 0.509(2) -0.0887(11) 0.0331(8)
H19 H 0.5567 -0.0655 0.0541
C25 C 0.412(2) -0.0663(12) 0.0308(10)
H20 H 0.3956 -0.0246 0.0471
C26 C 0.340(2) -0.1019(13) 0.0058(9)
H21 H 0.2723 -0.0877 0.0090
C27 C 0.3628(18) -0.1611(12) -0.0256(8)
H22 H 0.3128 -0.1832 -0.0458
C28 C 0.492(2) -0.2510(12) -0.0541(8)
S1F S 1.3399(4) 0.1610(3) 0.2527(2)
S2F S 1.2704(4) 0.0848(3) 0.2964(2)
O1F O 1.4663(12) 0.3684(6) 0.2196(5)
O2F O 1.4030(11) 0.2685(7) 0.1902(5)
O3F O 1.2215(9) -0.1125(6) 0.3795(5)
O4F O 1.1643(10) -0.0203(6) 0.3423(5)
C1F C 1.4256(15) 0.2877(11) 0.2867(8)
C2F C 1.3804(14) 0.2257(10) 0.3014(8)
C3F C 1.3723(15) 0.2068(10) 0.3561(8)
H7F H 1.3463 0.1639 0.3659
C4F C 1.4051(16) 0.2552(12) 0.3961(9)
H8F H 1.3931 0.2464 0.4323
C5F C 1.4533(18) 0.3132(11) 0.3810(9)
H9F H 1.4816 0.3419 0.4070
C6F C 1.4615(15) 0.3307(10) 0.3287(8)
H10F H 1.4919 0.3726 0.3199
C7F C 1.4318(16) 0.3074(12) 0.2270(8)
C8F C 1.3451(16) -0.0340(11) 0.3472(8)
C9F C 1.3712(15) 0.0290(10) 0.3193(7)
C10F C 1.4716(15) 0.0421(11) 0.3086(8)
H11F H 1.4883 0.0792 0.2866
C11F C 1.5447(15) 0.0040(12) 0.3283(8)
H12F H 1.6116 0.0192 0.3243
C12F C 1.5277(16) -0.0588(11) 0.3554(8)
H13F H 1.5803 -0.0882 0.3658
C13F C 1.4279(16) -0.0728(9) 0.3650(8)
H14F H 1.4135 -0.1120 0.3853
C14F C 1.2376(17) -0.0573(10) 0.3588(8)
S3F S 0.7496(6) 0.1023(3) 0.4560(2)
S4F S 0.6667(5) 0.1775(4) 0.4942(2)
O5F O 0.9244(10) 0.0026(8) 0.3257(5)
O6F O 0.8824(13) 0.0136(9) 0.4132(7)
O7F O 0.4149(13) 0.2803(10) 0.5737(8)
O8F O 0.5782(10) 0.2664(8) 0.5638(6)
C15F C 0.7977(16) 0.0861(10) 0.3493(8)
C16F C 0.7385(16) 0.1241(9) 0.3863(8)
C17F C 0.6668(15) 0.1713(10) 0.3680(8)
H15F H 0.6243 0.1936 0.3924
C18F C 0.6585(16) 0.1850(11) 0.3147(8)
H16F H 0.6145 0.2199 0.3035
C19F C 0.7139(16) 0.1485(11) 0.2762(9)
H17F H 0.7048 0.1578 0.2398
C20F C 0.7823(15) 0.0984(11) 0.2925(8)
H18F H 0.8183 0.0728 0.2672
C21F C 0.8728(17) 0.0283(11) 0.3626(10)
C22F C 0.4657(15) 0.1855(11) 0.5251(7)
C23F C 0.5373(16) 0.1461(11) 0.4958(7)
C24F C 0.509(2) 0.0887(11) 0.4669(8)
H19F H 0.5567 0.0655 0.4459
C25F C 0.412(2) 0.0663(12) 0.4692(10)
H20F H 0.3956 0.0246 0.4529
C26F C 0.340(2) 0.1019(13) 0.4942(9)
H21F H 0.2723 0.0877 0.4910
C27F C 0.3628(18) 0.1611(12) 0.5256(8)
H22F H 0.3128 0.1832 0.5458
C28F C 0.492(2) 0.2510(12) 0.5541(8)
Ba1F Ba 1.49393(11) 0.39537(6) 0.11131(5)
O9F O 1.691(2) 0.3800(15) 0.1446(12)
H1F H 1.7127 0.3402 0.1596
H2F H 1.7350 0.4153 0.1401
O10F O 1.392(4) 0.494(4) 0.035(2)
H3F H 1.3289 0.4854 0.0236
H4F H 1.4249 0.5329 0.0247
Ba2E Ba 1.43711(13) -0.5000 0.2500
Ba3B Ba 1.2500 -0.2500 0.37947(7)
O3G O 1.2785(9) -0.3875(6) 0.3795(5)
O4G O 1.3357(10) -0.4797(6) 0.3423(5)
O5G O 1.5756(10) -0.5026(8) 0.3257(5)
O6G O 1.6176(13) -0.5136(9) 0.4132(7)
O7B O 1.5851(13) -0.2803(10) 0.4263(8)
O8B O 1.4218(10) -0.2664(8) 0.4362(6)
Ba1E Ba 1.00607(11) -0.10463(6) 0.38869(5)
Ba1G Ba 1.00607(11) 0.10463(6) 0.11131(5)
O1E O 1.0337(12) -0.1316(6) 0.2804(5)
O1G O 1.0337(12) 0.1316(6) 0.2196(5)
Ba1B Ba 0.50607(11) -0.39537(6) -0.11131(5)
Ba1C Ba 0.99393(11) -0.10463(6) -0.11131(5)
S4E S 0.8333(5) -0.3225(4) 0.0058(2)
O2B O 0.5970(11) -0.2685(7) -0.1902(5)
O2C O 0.9030(11) -0.2315(7) -0.1902(5)
O3A O 0.7215(9) -0.3875(6) -0.1205(5)
O3D O 0.7785(9) -0.1125(6) -0.1205(5)
O8E O 0.9218(10) -0.2336(8) -0.0638(6)
Ba3A Ba 1.2500 0.2500 0.12053(7)
Ba2E_2 Ba 1.43711(13) 0.5000 0.2500
Ba3F Ba 0.7500 0.2500 0.62053(7)
Ba1D Ba 0.50607(11) 0.39537(6) 0.61131(5)
O3E O 1.2785(9) 0.3875(6) 0.1205(5)
O4E O 1.3357(10) 0.4797(6) 0.1577(5)
O5E O 1.5756(10) 0.5026(8) 0.1743(5)
O6E O 1.6176(13) 0.5136(9) 0.0868(7)
O7D O 1.5851(13) 0.2803(10) 0.0737(8)
O8D O 1.4218(10) 0.2664(8) 0.0638(6)
O12 O 0.7500 0.2500 0.1465(13)
O11? O 1.020(3) 0.0822(14) 0.0051(8)
H5? H 1.0682 0.1044 -0.0142
H6? H 0.9776 0.0523 -0.0113
loop_
_geom_bond_atom_site_label_1
_geom_bond_atom_site_label_2
_geom_bond_site_symmetry_1
_geom_bond_site_symmetry_2
Ba1 O1 1_555 1_555
Ba2 S2 1_555 1_555
Ba3 S4 1_555 1_555
S1 S2 1_555 1_555
S2 C9 1_555 1_555
S3 S4 1_555 1_555
S4 C23 1_555 1_555
O1 C7 1_555 1_555
O2 C7 1_555 1_555
O3 C14 1_555 1_555
O4 Ba2 1_555 1_555
O5 Ba2 1_555 1_555
O6 C21 1_555 1_555
O7 C28 1_555 1_555
O8 Ba3 1_555 1_555
O9 Ba1 1_555 1_555
H1 O9 1_555 1_555
H2 O9 1_555 1_555
O10 Ba1 1_555 1_555
H3 O10 1_555 1_555
H4 O10 1_555 1_555
C1 C2 1_555 1_555
C2 S1 1_555 1_555
C3 C2 1_555 1_555
H7 C3 1_555 1_555
C4 C3 1_555 1_555
H8 C4 1_555 1_555
C5 C4 1_555 1_555
H9 C5 1_555 1_555
C6 C1 1_555 1_555
H10 C6 1_555 1_555
C7 C1 1_555 1_555
C8 C9 1_555 1_555
C9 C10 1_555 1_555
C10 H11 1_555 1_555
C11 C10 1_555 1_555
H12 C11 1_555 1_555
C12 C11 1_555 1_555
H13 C12 1_555 1_555
C13 C8 1_555 1_555
H14 C13 1_555 1_555
C14 O4 1_555 1_555
C15 C16 1_555 1_555
C16 S3 1_555 1_555
C17 C16 1_555 1_555
H15 C17 1_555 1_555
C18 C17 1_555 1_555
H16 C18 1_555 1_555
C19 C18 1_555 1_555
H17 C19 1_555 1_555
C20 C15 1_555 1_555
H18 C20 1_555 1_555
C21 O5 1_555 1_555
C22 C23 1_555 1_555
C23 C24 1_555 1_555
C24 H19 1_555 1_555
C25 C24 1_555 1_555
H20 C25 1_555 1_555
C26 C25 1_555 1_555
H21 C26 1_555 1_555
C27 C22 1_555 1_555
H22 C27 1_555 1_555
C28 O8 1_555 1_555
S1F S2F 1_555 1_555
S2F Ba2 1_555 1_555
O1F C7F 1_555 1_555
O2F C7F 1_555 1_555
O3F C14F 1_555 1_555
O4F Ba2 1_555 1_555
C1F C2F 1_555 1_555
C2F S1F 1_555 1_555
C3F C2F 1_555 1_555
H7F C3F 1_555 1_555
C4F C3F 1_555 1_555
H8F C4F 1_555 1_555
C5F C4F 1_555 1_555
H9F C5F 1_555 1_555
C6F C1F 1_555 1_555
H10F C6F 1_555 1_555
C7F C1F 1_555 1_555
C8F C9F 1_555 1_555
C9F S2F 1_555 1_555
C10F C9F 1_555 1_555
H11F C10F 1_555 1_555
C11F C10F 1_555 1_555
H12F C11F 1_555 1_555
C12F C11F 1_555 1_555
H13F C12F 1_555 1_555
C13F C8F 1_555 1_555
H14F C13F 1_555 1_555
C14F O4F 1_555 1_555
S3F S4F 1_555 1_555
S4F C23F 1_555 1_555
O5F Ba2 1_555 1_555
O6F C21F 1_555 1_555
O7F C28F 1_555 1_555
O8F C28F 1_555 1_555
C15F C16F 1_555 1_555
C16F S3F 1_555 1_555
C17F C16F 1_555 1_555
H15F C17F 1_555 1_555
C18F C17F 1_555 1_555
H16F C18F 1_555 1_555
C19F C18F 1_555 1_555
H17F C19F 1_555 1_555
C20F C15F 1_555 1_555
H18F C20F 1_555 1_555
C21F O5F 1_555 1_555
C22F C23F 1_555 1_555
C23F C24F 1_555 1_555
C24F H19F 1_555 1_555
C25F C24F 1_555 1_555
H20F C25F 1_555 1_555
C26F C25F 1_555 1_555
H21F C26F 1_555 1_555
C27F C22F 1_555 1_555
H22F C27F 1_555 1_555
C28F C22F 1_555 1_555
Ba1F O1F 1_555 1_555
O9F Ba1F 1_555 1_555
H1F O9F 1_555 1_555
H2F O9F 1_555 1_555
O10F Ba1F 1_555 1_555
H3F O10F 1_555 1_555
H4F O10F 1_555 1_555
Ba2E O1 1_555 1_555
Ba3B O2 1_555 1_555
O3G Ba1 1_555 1_555
O4G Ba1 1_555 1_555
O5G Ba1 1_555 1_555
O6G Ba1 1_555 1_555
O7B Ba1 1_555 1_555
O8B Ba1 1_555 1_555
Ba1E O3F 1_555 1_555
Ba1G O3 1_555 1_555
O1E Ba2 1_555 1_555
O1G Ba2 1_555 1_555
Ba1B O7 1_555 1_555
Ba1C O3D 1_555 1_555
S4E Ba3 1_555 1_555
O2B Ba3 1_555 1_555
O2C Ba3 1_555 1_555
O3A Ba3 1_555 1_555
O3D Ba3 1_555 1_555
O8E Ba3 1_555 1_555
Ba3A O3 1_555 1_555
Ba2E_2 O1F 1_555 1_555
Ba3F S4F 1_555 1_555
Ba1D O7F 1_555 1_555
O3E Ba1F 1_555 1_555
O4E Ba1F 1_555 1_555
O5E Ba1F 1_555 1_555
O6E Ba1F 1_555 1_555
O7D Ba1F 1_555 1_555
O8D Ba1F 1_555 1_555
O4 Ba1G 1_555 1_555
O5 Ba1G 1_555 1_555
O6 Ba1G 1_555 1_555
O8 Ba1B 1_555 1_555
C5 C6 1_555 1_555
C8 C14 1_555 1_555
C12 C13 1_555 1_555
C15 C21 1_555 1_555
C19 C20 1_555 1_555
C22 C28 1_555 1_555
C26 C27 1_555 1_555
O2F Ba3A 1_555 1_555
O3F Ba3B 1_555 1_555
O4F Ba1E 1_555 1_555
C5F C6F 1_555 1_555
C8F C14F 1_555 1_555
C12F C13F 1_555 1_555
O5F Ba1E 1_555 1_555
O6F Ba1E 1_555 1_555
O8F Ba1D 1_555 1_555
O8F Ba3F 1_555 1_555
C15F C21F 1_555 1_555
C19F C20F 1_555 1_555
C26F C27F 1_555 1_555
Ba2E O4G 1_555 1_555
Ba2E O5G 1_555 1_555
Ba3B O3G 1_555 1_555
Ba3B O8B 1_555 1_555
Ba1E O1E 1_555 1_555
Ba1G O1G 1_555 1_555
Ba1B O3A 1_555 1_555
Ba1C O8E 1_555 1_555
Ba3A O3E 1_555 1_555
Ba3A O8D 1_555 1_555
Ba2E_2 O4E 1_555 1_555
Ba2E_2 O5E 1_555 1_555

#END
