
#######################################################################
#
#                 Cambridge Crystallographic Data Centre
#                                CCDC 
#
#######################################################################
#
# If this CIF has been generated from an entry in the Cambridge 
# Structural Database, then it will include bibliographic, chemical, 
# crystal, experimental, refinement or atomic coordinate data resulting 
# from the CCDC's data processing and validation procedures.
#
#######################################################################

data_NIDDIP
_symmetry_cell_setting           triclinic
_symmetry_space_group_name_H-M   'P -1'
_symmetry_Int_Tables_number      2
_space_group_name_Hall           '-P 1'
loop_
_symmetry_equiv_pos_site_id
_symmetry_equiv_pos_as_xyz
1 x,y,z
2 -x,-y,-z
_cell_length_a                   8.7716(3)
_cell_length_b                   16.9903(6)
_cell_length_c                   20.5716(7)
_cell_angle_alpha                104.794(2)
_cell_angle_beta                 102.209(2)
_cell_angle_gamma                92.243(2)
_cell_volume                     2883.05
loop_
_atom_site_label
_atom_site_type_symbol
_atom_site_fract_x
_atom_site_fract_y
_atom_site_fract_z
Cu1 Cu 0.5820(2) 0.34909(11) 0.00677(9)
Cu2 Cu 0.0706(2) 0.16152(11) 0.01270(9)
O1 O 0.5057(13) 0.2697(7) 0.0776(6)
O2 O 0.3528(13) 0.3035(6) -0.0431(6)
O3 O 0.2947(13) 0.1906(7) 0.0651(7)
O4 O 0.1443(12) 0.2269(6) -0.0444(5)
O5 O -0.1918(12) 0.3625(7) 0.0640(5)
O6 O -0.3405(12) 0.2497(6) -0.0473(4)
O7 O 0.0015(13) 0.2838(7) 0.0806(5)
O8 O -0.1499(12) 0.1708(6) -0.0333(5)
O9 O 0.5106(11) 0.4464(5) 0.0614(4)
O10 O 0.4277(11) 0.5690(5) 0.0624(5)
O11 O 0.0106(11) 0.0889(5) 0.0659(4)
O12 O -0.0580(12) -0.0391(6) 0.0644(5)
C1 C 0.376(2) 0.2406(11) 0.0453(11)
C2 C 0.281(2) 0.2537(11) -0.0188(9)
C3 C -0.124(2) 0.2939(11) 0.0480(8)
C4 C -0.2084(17) 0.2372(9) -0.0165(7)
C5 C 0.4796(16) 0.5075(8) 0.0360(6)
C6 C -0.0115(19) 0.0104(9) 0.0371(6)
O9A O 0.4894(11) 0.5536(5) -0.0614(4)
O10A O 0.5723(11) 0.4310(5) -0.0624(5)
C5A C 0.5204(16) 0.4925(8) -0.0360(6)
O11A O -0.0106(11) -0.0889(5) -0.0659(4)
O12A O 0.0580(12) 0.0391(6) -0.0644(5)
C6A C 0.0115(19) -0.0104(9) -0.0371(6)
Cu1A Cu -0.5820(2) -0.34909(11) -0.00677(9)
Cu2A Cu -0.0706(2) -0.16152(11) -0.01270(9)
O1A O -0.5057(13) -0.2697(7) -0.0776(6)
O2A O -0.3528(13) -0.3035(6) 0.0431(6)
O3A O -0.2947(13) -0.1906(7) -0.0651(7)
O4A O -0.1443(12) -0.2269(6) 0.0444(5)
O5A O 0.1918(12) -0.3625(7) -0.0640(5)
O6A O 0.3405(12) -0.2497(6) 0.0473(4)
O7A O -0.0015(13) -0.2838(7) -0.0806(5)
O8A O 0.1499(12) -0.1708(6) 0.0333(5)
C1A C -0.376(2) -0.2406(11) -0.0453(11)
C2A C -0.281(2) -0.2537(11) 0.0188(9)
C3A C 0.124(2) -0.2939(11) -0.0480(8)
C4A C 0.2084(17) -0.2372(9) 0.0165(7)
Cu1_2 Cu -0.4180(2) 0.34909(11) 0.00677(9)
Cu1A_2 Cu 0.4180(2) -0.34909(11) -0.00677(9)
Cu1A_3 Cu 0.4180(2) 0.65091(11) -0.00677(9)
O5_2 O 0.8082(12) 0.3625(7) 0.0640(5)
O5A_2 O -0.8082(12) -0.3625(7) -0.0640(5)
O6_2 O 0.6595(12) 0.2497(6) -0.0473(4)
O6A_2 O -0.6595(12) -0.2497(6) 0.0473(4)
O9A_2 O -0.5106(11) -0.4464(5) -0.0614(4)
O10_2 O -0.5723(11) -0.4310(5) 0.0624(5)
C7 C 0.0787(16) 0.3471(8) 0.0061(7)
O13 O 0.045(5) 0.434(3) -0.0459(19)
Se1 Se 0.29141(16) -0.12795(7) 0.43722(6)
Se2 Se 0.11170(15) 0.01786(7) 0.39773(6)
Se3 Se 0.38415(16) -0.01804(7) 0.60592(6)
Se4 Se 0.20605(16) 0.12748(7) 0.56514(6)
S1 S 0.2139(4) -0.23470(19) 0.29086(16)
S2 S 0.0302(4) -0.0715(2) 0.24369(16)
S3 S 0.4617(4) 0.0708(2) 0.75956(15)
S4 S 0.2826(4) 0.23480(19) 0.71224(16)
C8 C 0.2302(13) -0.0221(7) 0.4694(6)
C9 C 0.2657(12) 0.0222(6) 0.5362(5)
C10 C 0.1906(13) -0.1401(7) 0.3436(5)
C11 C 0.1185(14) -0.0752(7) 0.3263(5)
C12 C 0.3727(13) 0.0763(7) 0.6763(5)
C13 C 0.3027(12) 0.1396(7) 0.6596(5)
C14 C 0.0951(17) -0.2311(7) 0.2050(6)
H1 H 0.1289 -0.2709 0.1693
H2 H -0.0138 -0.2475 0.2023
C15 C 0.1043(17) -0.1538(8) 0.1909(6)
H3 H 0.0488 -0.1607 0.1434
H4 H 0.2135 -0.1378 0.1940
C16 C 0.4006(16) 0.1597(8) 0.8134(6)
H5 H 0.2925 0.1476 0.8147
H6 H 0.4634 0.1694 0.8601
C17 C 0.4122(16) 0.2339(7) 0.7926(6)
H7 H 0.5192 0.2446 0.7890
H8 H 0.3919 0.2786 0.8288
Se5 Se 1.05700(16) 0.35276(7) 0.39422(6)
Se6 Se 0.89557(15) 0.20737(7) 0.43385(6)
Se7 Se 1.15082(15) 0.46179(7) 0.56034(6)
Se8 Se 0.98747(15) 0.31932(7) 0.60320(6)
S5 S 1.0019(4) 0.2574(2) 0.24203(16)
S6 S 0.8291(4) 0.09748(18) 0.28836(15)
S7 S 1.2693(4) 0.56345(19) 0.70715(16)
S8 S 1.0905(4) 0.40759(19) 0.75642(15)
C18 C 1.0058(13) 0.3128(7) 0.4656(6)
C19 C 1.0449(13) 0.3570(6) 0.5309(5)
C20 C 0.9784(13) 0.2551(7) 0.3240(5)
C21 C 0.9098(14) 0.1922(7) 0.3415(5)
C22 C 1.1686(14) 0.4715(7) 0.6555(5)
C23 C 1.0970(14) 0.4111(7) 0.6743(6)
C24 C 0.8532(15) 0.1803(7) 0.1900(6)
H9 H 0.7525 0.1997 0.1946
H10 H 0.8583 0.1726 0.1421
C25 C 0.8589(15) 0.1013(6) 0.2048(5)
H11 H 0.9602 0.0823 0.2007
H12 H 0.7800 0.0629 0.1696
C26 C 1.2328(19) 0.5683(7) 0.7895(6)
H13 H 1.3153 0.6052 0.8240
H14 H 1.1351 0.5925 0.7919
C27 C 1.2228(19) 0.4932(9) 0.8081(6)
H15 H 1.1999 0.5064 0.8536
H16 H 1.3269 0.4749 0.8134
Se9 Se 0.55367(16) 0.34945(7) 0.39885(6)
Se10 Se 0.39278(15) 0.20535(7) 0.43999(6)
Se11 Se 0.64523(15) 0.46107(7) 0.56525(6)
Se12 Se 0.48656(15) 0.31833(7) 0.60891(6)
S9 S 0.4851(4) 0.2554(2) 0.24610(16)
S10 S 0.3081(4) 0.09712(19) 0.29384(16)
S11 S 0.7577(4) 0.5651(2) 0.71222(17)
S12 S 0.5925(4) 0.40604(19) 0.76259(15)
C28 C 0.5028(13) 0.3108(7) 0.4704(6)
C29 C 0.5405(13) 0.3558(6) 0.5361(5)
C30 C 0.4664(13) 0.2538(7) 0.3281(6)
C31 C 0.3985(13) 0.1910(7) 0.3459(5)
C32 C 0.6633(13) 0.4713(7) 0.6606(5)
C33 C 0.5940(13) 0.4097(6) 0.6792(5)
C34 C 0.435(2) 0.1492(10) 0.2019(7)
H17 H 0.4225 0.1448 0.1530
H18 H 0.5260 0.1214 0.2153
C35 C 0.3058(17) 0.1034(7) 0.2078(6)
H19 H 0.3001 0.0484 0.1782
H20 H 0.2116 0.1271 0.1911
C36 C 0.7160(17) 0.5690(7) 0.7947(6)
H21 H 0.7880 0.6109 0.8299
H22 H 0.6107 0.5846 0.7942
C37 C 0.7287(15) 0.4898(8) 0.8135(6)
H23 H 0.7192 0.4995 0.8610
H24 H 0.8332 0.4739 0.8120
O14? O 0.574(2) 0.0431(6) -0.0715(9)
C38? C 0.5709(19) 0.1602(10) 0.0123(7)
O15? O 0.118(3) 0.4033(12) -0.0845(13)
loop_
_geom_bond_atom_site_label_1
_geom_bond_atom_site_label_2
_geom_bond_site_symmetry_1
_geom_bond_site_symmetry_2
Cu1 O1 1_555 1_555
Cu2 O3 1_555 1_555
O1 C1 1_555 1_555
O2 Cu1 1_555 1_555
O3 C1 1_555 1_555
O4 Cu2 1_555 1_555
O5 C3 1_555 1_555
O6 C4 1_555 1_555
O7 Cu2 1_555 1_555
O8 Cu2 1_555 1_555
O9 Cu1 1_555 1_555
O10 C5 1_555 1_555
O11 Cu2 1_555 1_555
O12 C6 1_555 1_555
C1 C2 1_555 1_555
C2 O2 1_555 1_555
C3 O7 1_555 1_555
C4 O8 1_555 1_555
C5 O9 1_555 1_555
C6 O11 1_555 1_555
C7 O13 1_555 1_555
Se1 C8 1_555 1_555
Se2 C8 1_555 1_555
Se3 C9 1_555 1_555
Se4 C9 1_555 1_555
S1 C10 1_555 1_555
S2 C11 1_555 1_555
S3 C12 1_555 1_555
S4 C13 1_555 1_555
C8 C9 1_555 1_555
C10 Se1 1_555 1_555
C11 Se2 1_555 1_555
C12 Se3 1_555 1_555
C13 Se4 1_555 1_555
C14 S1 1_555 1_555
H1 C14 1_555 1_555
H2 C14 1_555 1_555
C15 S2 1_555 1_555
H3 C15 1_555 1_555
H4 C15 1_555 1_555
C16 S3 1_555 1_555
H5 C16 1_555 1_555
H6 C16 1_555 1_555
C17 S4 1_555 1_555
H7 C17 1_555 1_555
H8 C17 1_555 1_555
Se5 C18 1_555 1_555
Se6 C18 1_555 1_555
Se7 C19 1_555 1_555
Se8 C19 1_555 1_555
S5 C20 1_555 1_555
S6 C21 1_555 1_555
S7 C22 1_555 1_555
S8 C23 1_555 1_555
C18 C19 1_555 1_555
C20 Se5 1_555 1_555
C21 Se6 1_555 1_555
C22 Se7 1_555 1_555
C23 Se8 1_555 1_555
C24 S5 1_555 1_555
H9 C24 1_555 1_555
H10 C24 1_555 1_555
C25 S6 1_555 1_555
H11 C25 1_555 1_555
H12 C25 1_555 1_555
C26 S7 1_555 1_555
H13 C26 1_555 1_555
H14 C26 1_555 1_555
C27 S8 1_555 1_555
H15 C27 1_555 1_555
H16 C27 1_555 1_555
Se9 C28 1_555 1_555
Se10 C28 1_555 1_555
Se11 C29 1_555 1_555
Se12 C29 1_555 1_555
S9 C30 1_555 1_555
S10 C31 1_555 1_555
S11 C32 1_555 1_555
S12 C33 1_555 1_555
C28 C29 1_555 1_555
C30 Se9 1_555 1_555
C31 Se10 1_555 1_555
C32 Se11 1_555 1_555
C33 Se12 1_555 1_555
C34 S9 1_555 1_555
H17 C34 1_555 1_555
H18 C34 1_555 1_555
C35 S10 1_555 1_555
H19 C35 1_555 1_555
H20 C35 1_555 1_555
C36 S11 1_555 1_555
H21 C36 1_555 1_555
H22 C36 1_555 1_555
C37 S12 1_555 1_555
H23 C37 1_555 1_555
H24 C37 1_555 1_555
O9A C5A 1_555 1_555
O10A Cu1 1_555 1_555
C5A C5 1_555 1_555
O11A C6A 1_555 1_555
O12A Cu2 1_555 1_555
C6A C6 1_555 1_555
Cu1A O1A 1_555 1_555
Cu2A O12 1_555 1_555
O1A C1A 1_555 1_555
O2A Cu1A 1_555 1_555
O3A Cu2A 1_555 1_555
O4A Cu2A 1_555 1_555
O5A C3A 1_555 1_555
O6A C4A 1_555 1_555
O7A Cu2A 1_555 1_555
O8A Cu2A 1_555 1_555
C1A O3A 1_555 1_555
C2A O2A 1_555 1_555
C3A O7A 1_555 1_555
C4A O8A 1_555 1_555
Cu1_2 O5 1_555 1_555
Cu1A_2 O5A 1_555 1_555
Cu1A_3 O10 1_555 1_555
O5_2 Cu1 1_555 1_555
O5A_2 Cu1A 1_555 1_555
O6_2 Cu1 1_555 1_555
O6A_2 Cu1A 1_555 1_555
O9A_2 Cu1A 1_555 1_555
O10_2 Cu1A 1_555 1_555
O4 C2 1_555 1_555
O6 Cu1_2 1_555 1_555
C3 C4 1_555 1_555
C10 C11 1_555 1_555
C12 C13 1_555 1_555
C14 C15 1_555 1_555
C16 C17 1_555 1_555
C20 C21 1_555 1_555
C22 C23 1_555 1_555
C24 C25 1_555 1_555
C26 C27 1_555 1_555
C30 C31 1_555 1_555
C32 C33 1_555 1_555
C34 C35 1_555 1_555
C36 C37 1_555 1_555
O9A Cu1A_3 1_555 1_555
O10A C5A 1_555 1_555
O11A Cu2A 1_555 1_555
O12A C6A 1_555 1_555
O4A C2A 1_555 1_555
O6A Cu1A_2 1_555 1_555
C1A C2A 1_555 1_555
C3A C4A 1_555 1_555

#END
