
#######################################################################
#
#                 Cambridge Crystallographic Data Centre
#                                CCDC 
#
#######################################################################
#
# If this CIF has been generated from an entry in the Cambridge 
# Structural Database, then it will include bibliographic, chemical, 
# crystal, experimental, refinement or atomic coordinate data resulting 
# from the CCDC's data processing and validation procedures.
#
#######################################################################

data_NIDSEZ
_symmetry_cell_setting           triclinic
_symmetry_space_group_name_H-M   'P -1'
_symmetry_Int_Tables_number      2
_space_group_name_Hall           '-P 1'
loop_
_symmetry_equiv_pos_site_id
_symmetry_equiv_pos_as_xyz
1 x,y,z
2 -x,-y,-z
_cell_length_a                   4.0119(5)
_cell_length_b                   9.0994(9)
_cell_length_c                   10.7862(14)
_cell_angle_alpha                97.081(7)
_cell_angle_beta                 99.815(10)
_cell_angle_gamma                102.257(8)
_cell_volume                     373.917
loop_
_atom_site_label
_atom_site_type_symbol
_atom_site_fract_x
_atom_site_fract_y
_atom_site_fract_z
Ag1 Ag 0.32358(11) 0.68613(3) 0.97307(3)
S1 S -0.2968(3) 0.69557(13) 0.76266(11)
O1 O 0.1549(11) 0.4123(4) 0.9124(3)
O2 O 0.2463(19) 0.2430(6) 0.7777(5)
O3 O -0.0204(18) 0.3948(7) 0.7082(5)
N1 N -0.4836(8) 0.9388(3) 0.9561(3)
N2 N 0.1251(11) 0.3496(4) 0.7972(4)
C1 C -0.2335(12) 0.6710(8) 0.6081(5)
C2 C -0.2394(15) 0.7936(8) 0.5543(5)
C3 C -0.2864(14) 0.9150(7) 0.6363(4)
C4 C -0.3277(10) 0.8804(5) 0.7537(4)
C5 C -0.3881(10) 0.9821(5) 0.8556(4)
H1 H -0.208(13) 0.595(6) 0.580(5)
H2 H -0.211(17) 0.803(8) 0.469(7)
H3 H -0.302(15) 1.011(7) 0.616(6)
Ag1A Ag -1.32358(11) 1.31387(3) 1.02693(3)
Ag1_2 Ag -0.67642(11) 0.68613(3) 0.97307(3)
Ag1A_2 Ag -0.32358(11) 0.31387(3) 1.02693(3)
Ag1A_3 Ag 0.67642(11) 0.31387(3) 1.02693(3)
Ag1A_4 Ag -0.32358(11) 1.31387(3) 1.02693(3)
S1A S -0.7032(3) 1.30443(13) 1.23734(11)
S1_2 S 0.7032(3) 0.69557(13) 0.76266(11)
S1A_2 S -1.7032(3) 1.30443(13) 1.23734(11)
O1A O -0.1549(11) 0.5877(4) 1.0876(3)
O1A_2 O 0.8451(11) 0.5877(4) 1.0876(3)
O1_2 O -1.8451(11) 1.4123(4) 0.9124(3)
O1_3 O -0.8451(11) 1.4123(4) 0.9124(3)
O1A_3 O -1.1549(11) 1.5877(4) 1.0876(3)
O2A O -0.2463(19) 0.7570(6) 1.2223(5)
O3A O 0.0204(18) 0.6052(7) 1.2918(5)
N1A N -0.5164(8) 1.0612(3) 1.0439(3)
N1_2 N 0.5164(8) 0.9388(3) 0.9561(3)
N1A_2 N -1.5164(8) 1.0612(3) 1.0439(3)
N2A N -0.1251(11) 0.6504(4) 1.2028(4)
C1A C -0.7665(12) 1.3290(8) 1.3919(5)
C2A C -0.7606(15) 1.2064(8) 1.4457(5)
C3A C -0.7136(14) 1.0850(7) 1.3637(4)
C4A C -0.6723(10) 1.1196(5) 1.2463(4)
C5A C -0.6119(10) 1.0179(5) 1.1444(4)
H1A H -0.792(13) 1.405(6) 1.420(5)
H2A H -0.789(17) 1.197(8) 1.531(7)
H3A H -0.698(15) 0.989(7) 1.384(6)
loop_
_geom_bond_atom_site_label_1
_geom_bond_atom_site_label_2
_geom_bond_site_symmetry_1
_geom_bond_site_symmetry_2
Ag1 S1 1_555 1_555
S1 C1 1_555 1_555
O1 Ag1 1_555 1_555
O2 N2 1_555 1_555
O3 N2 1_555 1_555
N1 C5 1_555 1_555
N2 O1 1_555 1_555
C1 C2 1_555 1_555
C2 C3 1_555 1_555
C3 C4 1_555 1_555
C4 S1 1_555 1_555
C5 C4 1_555 1_555
H1 C1 1_555 1_555
H2 C2 1_555 1_555
H3 C3 1_555 1_555
Ag1A S1A 1_555 1_555
Ag1_2 S1 1_555 1_555
Ag1A_2 O1 1_555 1_555
Ag1A_3 O1 1_555 1_555
Ag1A_4 S1A 1_555 1_555
S1A C1A 1_555 1_555
S1_2 Ag1 1_555 1_555
S1A_2 Ag1A 1_555 1_555
O1A Ag1 1_555 1_555
O1A_2 Ag1 1_555 1_555
O1_2 Ag1A 1_555 1_555
O1_3 Ag1A 1_555 1_555
O1A_3 Ag1A 1_555 1_555
O2A N2A 1_555 1_555
O3A N2A 1_555 1_555
N1A N1 1_555 1_555
N1_2 Ag1 1_555 1_555
N1A_2 Ag1A 1_555 1_555
N2A O1A 1_555 1_555
C1A C2A 1_555 1_555
C2A C3A 1_555 1_555
C3A C4A 1_555 1_555
C4A S1A 1_555 1_555
C5A N1A 1_555 1_555
H1A C1A 1_555 1_555
H2A C2A 1_555 1_555
H3A C3A 1_555 1_555
N1 Ag1_2 1_555 1_555
Ag1_2 O1A 1_555 1_555
Ag1A_2 O1A 1_555 1_555
Ag1A_3 O1A_2 1_555 1_555
Ag1A_4 O1_3 1_555 1_555
Ag1A_4 N1A 1_555 1_555
C4A C5A 1_555 1_555

#END
