
#######################################################################
#
#                 Cambridge Crystallographic Data Centre
#                                CCDC 
#
#######################################################################
#
# If this CIF has been generated from an entry in the Cambridge 
# Structural Database, then it will include bibliographic, chemical, 
# crystal, experimental, refinement or atomic coordinate data resulting 
# from the CCDC's data processing and validation procedures.
#
#######################################################################

data_NIFNOH
_symmetry_cell_setting           triclinic
_symmetry_space_group_name_H-M   'P -1'
_symmetry_Int_Tables_number      2
_space_group_name_Hall           '-P 1'
loop_
_symmetry_equiv_pos_site_id
_symmetry_equiv_pos_as_xyz
1 x,y,z
2 -x,-y,-z
_cell_length_a                   6.0361(3)
_cell_length_b                   10.0989(5)
_cell_length_c                   11.9897(6)
_cell_angle_alpha                80.192(4)
_cell_angle_beta                 88.304(4)
_cell_angle_gamma                72.948(5)
_cell_volume                     688.365
loop_
_atom_site_label
_atom_site_type_symbol
_atom_site_fract_x
_atom_site_fract_y
_atom_site_fract_z
Ag1 Ag 0.5000 0.0000 0.5000
Ag2 Ag 0.89763(6) -0.43596(4) 0.85904(3)
Ag3 Ag 0.5000 0.5000 1.0000
N1 N 1.0024(6) -0.5603(4) 0.7231(3)
O1 O 0.2299(6) -0.1411(4) 0.6039(3)
O2 O 0.5363(6) -0.3101(3) 0.7179(3)
C1 C 0.3312(7) -0.0765(4) 0.7896(3)
O3 O 0.1373(8) -0.2689(5) 0.7756(4)
C2 C 1.1330(7) -0.7211(4) 0.5512(3)
C3 C 1.2598(7) -0.6347(4) 0.5762(4)
H1 H 1.3911 -0.6292 0.5354
C4 C 1.1906(8) -0.5578(4) 0.6614(4)
H2 H 1.2783 -0.5011 0.6772
C5 C 0.9412(8) -0.7248(5) 0.6157(4)
H3 H 0.8527 -0.7825 0.6030
C6 C 0.8818(8) -0.6436(5) 0.6978(4)
H4 H 0.7494 -0.6461 0.7388
S1 S 0.30694(19) -0.21175(11) 0.71811(10)
C7 C 0.3413(7) 0.1487(4) 0.8901(3)
C8 C 0.5238(8) 0.0861(5) 0.8280(4)
H5 H 0.6510 0.1209 0.8189
C9 C 0.5233(7) -0.0269(5) 0.7786(4)
H6 H 0.6504 -0.0698 0.7383
C10 C 0.1537(8) 0.0977(5) 0.9025(4)
H7 H 0.0292 0.1390 0.9450
C11 C 0.1479(8) -0.0152(5) 0.8520(4)
H8 H 0.0198 -0.0491 0.8606
C12 C 0.3446(8) 0.2711(4) 0.9462(4)
O4 O 0.1762(6) 0.3154(4) 1.0059(3)
O5 O 0.5090(6) 0.3208(4) 0.9269(3)
N2 N 1.1980(6) -0.7992(4) 0.4641(3)
H9 H 1.1176 -0.8518 0.4491
H10 H 1.3186 -0.7948 0.4253
Ag2A Ag 0.10237(6) 0.43596(4) 0.14096(3)
N1A N -0.0024(6) 0.5603(4) 0.2769(3)
O1A O 0.7701(6) 0.1411(4) 0.3961(3)
O2A O 0.4637(6) 0.3101(3) 0.2821(3)
C1A C 0.6688(7) 0.0765(4) 0.2104(3)
O3A O 0.8627(8) 0.2689(5) 0.2244(4)
C2A C -0.1330(7) 0.7211(4) 0.4488(3)
C3A C -0.2598(7) 0.6347(4) 0.4238(4)
H1A H -0.3911 0.6292 0.4646
C4A C -0.1906(8) 0.5578(4) 0.3386(4)
H2A H -0.2783 0.5011 0.3228
C5A C 0.0588(8) 0.7248(5) 0.3843(4)
H3A H 0.1473 0.7825 0.3970
C6A C 0.1182(8) 0.6436(5) 0.3022(4)
H4A H 0.2506 0.6461 0.2612
S1A S 0.69306(19) 0.21175(11) 0.28189(10)
C7A C 0.6587(7) -0.1487(4) 0.1099(3)
C8A C 0.4762(8) -0.0861(5) 0.1720(4)
H5A H 0.3490 -0.1209 0.1811
C9A C 0.4767(7) 0.0269(5) 0.2214(4)
H6A H 0.3496 0.0698 0.2617
C10A C 0.8463(8) -0.0977(5) 0.0975(4)
H7A H 0.9708 -0.1390 0.0550
C11A C 0.8521(8) 0.0152(5) 0.1480(4)
H8A H 0.9802 0.0491 0.1394
C12A C 0.6554(8) -0.2711(4) 0.0538(4)
O4A O 0.8238(6) -0.3154(4) -0.0059(3)
O5A O 0.4910(6) -0.3208(4) 0.0731(3)
N2A N -0.1980(6) 0.7992(4) 0.5359(3)
H9A H -0.1176 0.8518 0.5509
H10A H -0.3186 0.7948 0.5747
Ag1_2 Ag -0.5000 1.0000 0.5000
Ag1_3 Ag 1.5000 -1.0000 0.5000
Ag2_2 Ag -0.10237(6) -0.43596(4) 0.85904(3)
Ag2_3 Ag 0.89763(6) -0.43596(4) -0.14096(3)
Ag2_4 Ag 0.89763(6) 0.56404(4) 0.85904(3)
Ag2A_2 Ag 0.10237(6) 0.43596(4) 1.14096(3)
Ag2A_3 Ag 1.10237(6) 0.43596(4) 0.14096(3)
Ag3_2 Ag 0.5000 -0.5000 0.0000
Ag3_3 Ag 0.5000 -0.5000 1.0000
Ag3_4 Ag 0.5000 0.5000 0.0000
O3_2 O 1.1373(8) -0.2689(5) 0.7756(4)
O3A_2 O -0.1373(8) 0.2689(5) 0.2244(4)
O4_2 O 0.1762(6) 0.3154(4) 0.0059(3)
O4A_2 O 0.8238(6) -0.3154(4) 0.9941(3)
O5A_2 O 0.4910(6) 0.6792(4) 1.0731(3)
N2_2 N 0.1980(6) 0.2008(4) 0.4641(3)
N2A_2 N 0.8020(6) -0.2008(4) 0.5359(3)
loop_
_geom_bond_atom_site_label_1
_geom_bond_atom_site_label_2
_geom_bond_site_symmetry_1
_geom_bond_site_symmetry_2
Ag1 O1 1_555 1_555
Ag2 N1 1_555 1_555
Ag3 O5 1_555 1_555
N1 C4 1_555 1_555
O1 S1 1_555 1_555
O2 Ag2 1_555 1_555
C1 S1 1_555 1_555
O3 S1 1_555 1_555
C2 C3 1_555 1_555
C3 H1 1_555 1_555
C4 C3 1_555 1_555
H2 C4 1_555 1_555
C5 C2 1_555 1_555
H3 C5 1_555 1_555
C6 N1 1_555 1_555
H4 C6 1_555 1_555
S1 O2 1_555 1_555
C7 C8 1_555 1_555
C8 H5 1_555 1_555
C9 C1 1_555 1_555
H6 C9 1_555 1_555
C10 C7 1_555 1_555
H7 C10 1_555 1_555
C11 C1 1_555 1_555
H8 C11 1_555 1_555
C12 C7 1_555 1_555
O4 C12 1_555 1_555
O5 C12 1_555 1_555
N2 C2 1_555 1_555
H9 N2 1_555 1_555
H10 N2 1_555 1_555
Ag2A N1A 1_555 1_555
N1A C4A 1_555 1_555
O1A Ag1 1_555 1_555
O2A Ag2A 1_555 1_555
C1A S1A 1_555 1_555
O3A S1A 1_555 1_555
C2A C3A 1_555 1_555
C3A H1A 1_555 1_555
C4A C3A 1_555 1_555
H2A C4A 1_555 1_555
C5A C2A 1_555 1_555
H3A C5A 1_555 1_555
C6A N1A 1_555 1_555
H4A C6A 1_555 1_555
S1A O1A 1_555 1_555
C7A C8A 1_555 1_555
C8A H5A 1_555 1_555
C9A C1A 1_555 1_555
H6A C9A 1_555 1_555
C10A C7A 1_555 1_555
H7A C10A 1_555 1_555
C11A C1A 1_555 1_555
H8A C11A 1_555 1_555
C12A C7A 1_555 1_555
O4A C12A 1_555 1_555
O5A C12A 1_555 1_555
N2A C2A 1_555 1_555
H9A N2A 1_555 1_555
H10A N2A 1_555 1_555
Ag1_2 N2A 1_555 1_555
Ag1_3 N2 1_555 1_555
Ag2_2 O3 1_555 1_555
Ag2_3 O4A 1_555 1_555
Ag2_4 Ag3 1_555 1_555
Ag2A_2 Ag3 1_555 1_555
Ag2A_3 O3A 1_555 1_555
Ag3_2 O5A 1_555 1_555
Ag3_3 Ag2 1_555 1_555
Ag3_4 Ag2A 1_555 1_555
O3_2 Ag2 1_555 1_555
O3A_2 Ag2A 1_555 1_555
O4_2 Ag2A 1_555 1_555
O4A_2 Ag2 1_555 1_555
O5A_2 Ag3 1_555 1_555
N2_2 Ag1 1_555 1_555
N2A_2 Ag1 1_555 1_555
C5 C6 1_555 1_555
C8 C9 1_555 1_555
C10 C11 1_555 1_555
O4 Ag2A_2 1_555 1_555
O2A S1A 1_555 1_555
C5A C6A 1_555 1_555
C8A C9A 1_555 1_555
C10A C11A 1_555 1_555
Ag2_3 Ag3_2 1_555 1_555

#END
