
#######################################################################
#
#                 Cambridge Crystallographic Data Centre
#                                CCDC 
#
#######################################################################
#
# If this CIF has been generated from an entry in the Cambridge 
# Structural Database, then it will include bibliographic, chemical, 
# crystal, experimental, refinement or atomic coordinate data resulting 
# from the CCDC's data processing and validation procedures.
#
#######################################################################

data_NIFNEX
_symmetry_cell_setting           triclinic
_symmetry_space_group_name_H-M   'P -1'
_symmetry_Int_Tables_number      2
_space_group_name_Hall           '-P 1'
loop_
_symmetry_equiv_pos_site_id
_symmetry_equiv_pos_as_xyz
1 x,y,z
2 -x,-y,-z
_cell_length_a                   10.9941(10)
_cell_length_b                   12.8302(12)
_cell_length_c                   14.9279(14)
_cell_angle_alpha                113.153(2)
_cell_angle_beta                 93.252(2)
_cell_angle_gamma                110.417(2)
_cell_volume                     1767.93
loop_
_atom_site_label
_atom_site_type_symbol
_atom_site_fract_x
_atom_site_fract_y
_atom_site_fract_z
C1 C 0.3340(6) 0.2857(6) 0.3475(5)
C2 C 0.2407(6) 0.1686(6) 0.2618(5)
C3 C 0.1302(8) 0.1652(7) 0.2106(5)
H1 H 0.1176 0.2376 0.2252
C4 C 0.0383(9) 0.0534(9) 0.1374(7)
H2 H -0.0384 0.0506 0.1049
C5 C 0.0581(9) -0.0552(8) 0.1113(6)
H3 H -0.0053 -0.1296 0.0620
C6 C 0.1712(8) -0.0532(7) 0.1581(6)
C7 C 0.2603(7) 0.0587(6) 0.2347(5)
H4 H 0.3351 0.0609 0.2691
C8 C 0.1951(11) -0.1708(7) 0.1325(7)
H5 H 0.1242 -0.2395 0.0788
H6 H 0.1980 -0.1866 0.1901
H7 H 0.2783 -0.1603 0.1124
C9 C 0.6938(6) 0.4961(6) 0.3993(5)
C10 C 0.8025(6) 0.4927(6) 0.3429(5)
C11 C 0.9082(8) 0.4717(9) 0.3799(7)
H8 H 0.9069 0.4575 0.4364
C12 C 1.0120(9) 0.4719(10) 0.3345(8)
H9 H 1.0833 0.4614 0.3606
C13 C 1.0085(9) 0.4881(9) 0.2489(8)
H10 H 1.0795 0.4885 0.2179
C14 C 0.9045(9) 0.5039(8) 0.2060(6)
C15 C 0.8022(8) 0.5067(7) 0.2578(6)
H11 H 0.7315 0.5187 0.2326
C16 C 0.8997(12) 0.5168(11) 0.1101(8)
H12 H 0.9770 0.5114 0.0852
H13 H 0.8983 0.5955 0.1224
H14 H 0.8209 0.4516 0.0617
C17 C 0.2520(6) -0.0255(6) 0.4393(5)
C18 C 0.1170(6) -0.0381(6) 0.4027(5)
C19 C 0.0130(7) -0.1512(6) 0.3454(5)
H15 H 0.0256 -0.2237 0.3300
C20 C -0.1105(7) -0.1577(8) 0.3104(6)
H16 H -0.1804 -0.2342 0.2721
C21 C -0.1285(7) -0.0505(8) 0.3328(6)
H17 H -0.2110 -0.0557 0.3081
C22 C -0.0283(7) 0.0644(7) 0.3904(6)
C23 C 0.0946(6) 0.0697(7) 0.4259(5)
H18 H 0.1634 0.1465 0.4658
C24 C -0.0483(8) 0.1824(8) 0.4152(7)
H19 H 0.0330 0.2525 0.4553
H20 H -0.1176 0.1831 0.4515
H21 H -0.0732 0.1867 0.3544
C25 C 0.5609(6) 0.0180(6) 0.3337(5)
C26 C 0.5976(6) 0.0297(7) 0.2427(5)
C27 C 0.6432(9) 0.1447(8) 0.2394(6)
H22 H 0.6493 0.2156 0.2939
C28 C 0.6788(11) 0.1505(11) 0.1539(8)
H23 H 0.7095 0.2264 0.1514
C29 C 0.6702(11) 0.0484(11) 0.0735(8)
H24 H 0.6961 0.0559 0.0174
C30 C 0.6244(10) -0.0653(9) 0.0730(7)
C31 C 0.5889(8) -0.0720(8) 0.1592(6)
H25 H 0.5580 -0.1487 0.1603
C32 C 0.6174(15) -0.1764(11) -0.0144(8)
H26 H 0.6452 -0.1542 -0.0665
H27 H 0.5275 -0.2379 -0.0382
H28 H 0.6750 -0.2093 0.0049
N1 N 0.4086(5) 0.2890(5) 0.4208(4)
H29 H 0.4042 0.2200 0.4193
N2 N 0.6138(5) 0.5474(5) 0.3883(4)
H30 H 0.6244 0.5808 0.3479
N3 N 0.2831(5) -0.1212(5) 0.4146(4)
H31 H 0.2221 -0.1939 0.3781
N4 N 0.5739(5) 0.1148(5) 0.4137(4)
H32 H 0.6019 0.1857 0.4126
O1 O 0.3392(4) 0.3882(4) 0.3469(3)
O2 O 0.6829(4) 0.4481(4) 0.4615(3)
O3 O 0.3415(4) 0.0840(4) 0.4942(3)
O4 O 0.5170(4) -0.0900(4) 0.3327(3)
Cl1 Cl 0.61635(17) 0.34176(15) 0.62825(13)
Ru1 Ru 0.53385(5) 0.44868(5) 0.53726(4)
Ru2 Ru 0.53083(5) 0.10497(5) 0.54100(4)
N2A N 0.3862(5) 0.4526(5) 0.6117(4)
N3A N 0.7169(5) 0.1212(5) 0.5854(4)
O1A O 0.6608(4) 0.6118(4) 0.6531(3)
O4A O 0.4830(4) 0.0900(4) 0.6673(3)
Ru1A Ru 0.46615(5) 0.55132(5) 0.46274(4)
Ru2A Ru 0.46917(5) -0.10497(5) 0.45900(4)
C33 C 0.472(2) 0.544(2) 0.1456(13)
H33 H 0.4497 0.4812 0.1701
H34 H 0.5158 0.5162 0.0917
O5 O 0.5605(10) 0.6305(10) 0.2106(9)
H35 H 0.5754 0.6919 0.2008
C34 C 0.359(2) 0.526(2) 0.1004(13)
H36 H 0.3140 0.4407 0.0529
H37 H 0.3729 0.5774 0.0661
H38 H 0.3068 0.5472 0.1481
loop_
_geom_bond_atom_site_label_1
_geom_bond_atom_site_label_2
_geom_bond_site_symmetry_1
_geom_bond_site_symmetry_2
C1 C2 1_555 1_555
C2 C3 1_555 1_555
C3 H1 1_555 1_555
C4 C3 1_555 1_555
H2 C4 1_555 1_555
C5 C4 1_555 1_555
H3 C5 1_555 1_555
C6 C5 1_555 1_555
C7 C2 1_555 1_555
H4 C7 1_555 1_555
C8 C6 1_555 1_555
H5 C8 1_555 1_555
H6 C8 1_555 1_555
H7 C8 1_555 1_555
C9 C10 1_555 1_555
C10 C11 1_555 1_555
C11 H8 1_555 1_555
C12 C11 1_555 1_555
H9 C12 1_555 1_555
C13 C12 1_555 1_555
H10 C13 1_555 1_555
C14 C13 1_555 1_555
C15 C10 1_555 1_555
H11 C15 1_555 1_555
C16 C14 1_555 1_555
H12 C16 1_555 1_555
H13 C16 1_555 1_555
H14 C16 1_555 1_555
C17 C18 1_555 1_555
C18 C19 1_555 1_555
C19 H15 1_555 1_555
C20 C19 1_555 1_555
H16 C20 1_555 1_555
C21 C20 1_555 1_555
H17 C21 1_555 1_555
C22 C21 1_555 1_555
C23 C18 1_555 1_555
H18 C23 1_555 1_555
C24 C22 1_555 1_555
H19 C24 1_555 1_555
H20 C24 1_555 1_555
H21 C24 1_555 1_555
C25 C26 1_555 1_555
C26 C27 1_555 1_555
C27 H22 1_555 1_555
C28 C27 1_555 1_555
H23 C28 1_555 1_555
C29 C28 1_555 1_555
H24 C29 1_555 1_555
C30 C29 1_555 1_555
C31 C26 1_555 1_555
H25 C31 1_555 1_555
C32 C30 1_555 1_555
H26 C32 1_555 1_555
H27 C32 1_555 1_555
H28 C32 1_555 1_555
N1 C1 1_555 1_555
H29 N1 1_555 1_555
N2 C9 1_555 1_555
H30 N2 1_555 1_555
N3 C17 1_555 1_555
H31 N3 1_555 1_555
N4 C25 1_555 1_555
H32 N4 1_555 1_555
O1 C1 1_555 1_555
O2 C9 1_555 1_555
O3 C17 1_555 1_555
O4 C25 1_555 1_555
Cl1 Ru1 1_555 1_555
Ru1 N1 1_555 1_555
Ru2 N4 1_555 1_555
C33 H33 1_555 1_555
H34 C33 1_555 1_555
O5 C33 1_555 1_555
H35 O5 1_555 1_555
C34 C33 1_555 1_555
H36 C34 1_555 1_555
H37 C34 1_555 1_555
H38 C34 1_555 1_555
N2A Ru1 1_555 1_555
N3A Ru2 1_555 1_555
O1A Ru1 1_555 1_555
O4A Ru2 1_555 1_555
Ru1A N2 1_555 1_555
Ru2A N3 1_555 1_555
C6 C7 1_555 1_555
C14 C15 1_555 1_555
C22 C23 1_555 1_555
C30 C31 1_555 1_555
O1 Ru1A 1_555 1_555
O2 Ru1 1_555 1_555
O3 Ru2 1_555 1_555
O4 Ru2A 1_555 1_555
Cl1 Ru2 1_555 1_555
Ru1 Ru1A 1_555 1_555
Ru2 Ru2A 1_555 1_555

#END
