
#######################################################################
#
#                 Cambridge Crystallographic Data Centre
#                                CCDC 
#
#######################################################################
#
# If this CIF has been generated from an entry in the Cambridge 
# Structural Database, then it will include bibliographic, chemical, 
# crystal, experimental, refinement or atomic coordinate data resulting 
# from the CCDC's data processing and validation procedures.
#
#######################################################################

data_NIFZAF
_symmetry_cell_setting           orthorhombic
_symmetry_space_group_name_H-M   'P b c a'
_symmetry_Int_Tables_number      61
_space_group_name_Hall           '-P 2ac 2ab'
loop_
_symmetry_equiv_pos_site_id
_symmetry_equiv_pos_as_xyz
1 x,y,z
2 1/2-x,-y,1/2+z
3 1/2+x,1/2-y,-z
4 -x,1/2+y,1/2-z
5 -x,-y,-z
6 1/2+x,y,1/2-z
7 1/2-x,1/2+y,z
8 x,1/2-y,1/2+z
_cell_length_a                   48.6170(11)
_cell_length_b                   18.6939(5)
_cell_length_c                   18.6061(3)
_cell_angle_alpha                90
_cell_angle_beta                 90
_cell_angle_gamma                90
_cell_volume                     16910
loop_
_atom_site_label
_atom_site_type_symbol
_atom_site_fract_x
_atom_site_fract_y
_atom_site_fract_z
Ho1 Ho 0.121561(8) 0.574084(19) 0.20030(2)
Ho2 Ho 0.122220(8) 0.403610(19) 0.36354(2)
Ho3 Ho -0.124506(8) 0.51448(2) 0.18813(2)
Co1 Co 0.24565(2) 0.88299(5) 0.04139(6)
Co2 Co -0.00191(2) 0.25284(5) 0.10701(6)
C1 C 0.16364(19) 0.6826(5) 0.1029(5)
C2 C 0.20170(18) 0.7713(4) 0.0862(5)
H1 H 0.1905 0.7942 0.0529
C3 C 0.19142(18) 0.7104(4) 0.1201(5)
C4 C 0.20871(19) 0.6766(5) 0.1681(5)
H2 H 0.2031 0.6349 0.1911
C5 C 0.23459(19) 0.7051(4) 0.1821(5)
H3 H 0.2462 0.6827 0.2148
C6 C 0.24328(18) 0.7674(4) 0.1471(5)
C7 C 0.26957(18) 0.8029(4) 0.1611(4)
C8 C 0.28853(19) 0.7757(5) 0.2082(5)
H4 H 0.2856 0.7316 0.2301
C9 C 0.3117(2) 0.8137(5) 0.2226(5)
H5 H 0.3250 0.7954 0.2536
C10 C 0.31542(19) 0.8806(5) 0.1906(5)
C11 C 0.29612(16) 0.9031(4) 0.1413(4)
H6 H 0.2990 0.9465 0.1180
C12 C 0.33907(18) 0.9276(5) 0.2117(5)
C13 C 0.15658(18) 0.5501(5) 0.3605(5)
C14 C 0.19696(17) 0.5873(4) 0.4383(4)
H7 H 0.1941 0.5460 0.4652
C15 C 0.17883(18) 0.6026(4) 0.3841(4)
C16 C 0.18252(19) 0.6661(5) 0.3469(5)
H8 H 0.1699 0.6800 0.3120
C17 C 0.20447(19) 0.7075(4) 0.3616(5)
H9 H 0.2071 0.7501 0.3367
C18 C 0.22304(17) 0.6867(4) 0.4138(4)
C19 C 0.24963(17) 0.7242(4) 0.4256(4)
C20 C 0.25817(18) 0.7821(4) 0.3849(5)
H10 H 0.2464 0.8019 0.3508
C21 C 0.28418(19) 0.8104(4) 0.3949(5)
H11 H 0.2899 0.8501 0.3688
C22 C 0.30123(17) 0.7792(4) 0.4435(5)
C23 C 0.29084(18) 0.7228(4) 0.4858(4)
H12 H 0.3021 0.7034 0.5212
C24 C 0.3308(2) 0.8051(5) 0.4549(6)
C25 C 0.08434(18) 0.4154(5) 0.2131(5)
C26 C 0.04321(17) 0.3460(4) 0.1642(4)
H13 H 0.0447 0.3154 0.2034
C27 C 0.06265(17) 0.4008(4) 0.1569(4)
C28 C 0.06105(18) 0.4416(4) 0.0963(4)
H14 H 0.0742 0.4767 0.0877
C29 C 0.03994(18) 0.4310(4) 0.0473(4)
H15 H 0.0389 0.4594 0.0063
C30 C 0.02074(17) 0.3791(4) 0.0591(4)
C31 C -0.00286(17) 0.3658(4) 0.0111(4)
C32 C -0.00848(19) 0.4070(4) -0.0478(5)
H16 H 0.0033 0.4436 -0.0616
C33 C -0.03172(17) 0.3931(4) -0.0856(5)
H17 H -0.0360 0.4207 -0.1257
C34 C -0.04899(17) 0.3385(4) -0.0650(4)
C35 C -0.04121(17) 0.2960(4) -0.0072(4)
H18 H -0.0522 0.2574 0.0058
C36 C -0.0758(2) 0.3245(5) -0.1053(5)
C37 C 0.0731(3) 0.0784(6) 0.2287(7)
C38 C 0.0353(2) 0.1571(5) 0.1805(6)
H19 H 0.0410 0.1429 0.1350
C39 C 0.0483(2) 0.1283(6) 0.2398(6)
C40 C 0.0406(2) 0.1517(5) 0.3055(6)
H20 H 0.0499 0.1356 0.3461
C41 C 0.01884(18) 0.1999(4) 0.3133(5)
H21 H 0.0133 0.2146 0.3587
C42 C 0.00553(18) 0.2258(4) 0.2516(4)
C43 C -0.01793(18) 0.2726(4) 0.2492(4)
C44 C -0.0316(2) 0.2984(4) 0.3083(5)
H22 H -0.0252 0.2881 0.3542
C45 C -0.0552(2) 0.3402(4) 0.2991(5)
H23 H -0.0646 0.3581 0.3387
C46 C -0.06420(18) 0.3545(4) 0.2305(5)
C47 C -0.04866(17) 0.3282(4) 0.1741(5)
H24 H -0.0542 0.3394 0.1276
C48 C -0.08937(18) 0.3994(4) 0.2150(6)
C49 C 0.08637(19) 0.2422(4) -0.0761(5)
C50 C 0.04644(17) 0.2374(4) 0.0089(4)
H25 H 0.0546 0.2750 0.0336
C51 C 0.05992(17) 0.2087(4) -0.0507(4)
C52 C 0.04761(17) 0.1537(4) -0.0879(5)
H26 H 0.0559 0.1340 -0.1283
C53 C 0.02257(18) 0.1283(4) -0.0636(4)
H27 H 0.0142 0.0906 -0.0878
C54 C 0.00986(17) 0.1574(4) -0.0051(4)
C55 C -0.01514(16) 0.1301(4) 0.0291(5)
C56 C -0.02903(18) 0.0705(4) 0.0053(5)
H28 H -0.0237 0.0477 -0.0369
C57 C -0.05081(18) 0.0451(4) 0.0445(5)
H29 H -0.0605 0.0052 0.0290
C58 C -0.05804(17) 0.0795(4) 0.1067(4)
C59 C -0.04420(17) 0.1431(4) 0.1253(5)
H30 H -0.0498 0.1681 0.1659
C60 C -0.08076(18) 0.0520(5) 0.1550(5)
C61 C -0.16213(19) 0.5142(5) 0.2999(5)
C62 C -0.20131(18) 0.4651(5) 0.3718(4)
H31 H -0.1958 0.4202 0.3560
C63 C -0.18619(18) 0.5239(5) 0.3502(5)
C64 C -0.19440(19) 0.5892(5) 0.3756(5)
H32 H -0.1841 0.6296 0.3642
C65 C -0.21767(18) 0.5963(5) 0.4178(5)
H33 H -0.2235 0.6410 0.4338
C66 C -0.23205(18) 0.5349(5) 0.4353(4)
C67 C -0.25731(18) 0.5358(4) 0.4783(4)
C68 C -0.27178(18) 0.5968(5) 0.4963(5)
H34 H -0.2651 0.6413 0.4824
C69 C -0.29624(19) 0.5927(5) 0.5348(5)
H35 H -0.3063 0.6336 0.5457
C70 C -0.30499(18) 0.5262(5) 0.5563(5)
C71 C -0.28953(17) 0.4663(5) 0.5377(5)
H36 H -0.2953 0.4214 0.5532
C72 C -0.33068(19) 0.5166(5) 0.5992(5)
N1 N 0.21837(13) 0.6281(3) 0.4544(3)
N2 N 0.26579(13) 0.6960(3) 0.4776(3)
N3 N 0.27360(13) 0.8658(3) 0.1252(4)
N4 N 0.22660(14) 0.7989(3) 0.0983(4)
N5 N 0.01477(13) 0.2046(3) 0.1857(4)
N6 N -0.02657(13) 0.2887(3) 0.1820(3)
N7 N 0.02208(14) 0.2124(3) 0.0317(4)
N8 N -0.02368(13) 0.1680(3) 0.0872(4)
N9 N -0.01838(13) 0.3092(3) 0.0302(3)
N10 N 0.02247(13) 0.3353(3) 0.1171(3)
N11 N -0.26675(13) 0.4716(3) 0.4982(4)
N12 N -0.22339(13) 0.4694(3) 0.4141(3)
O1 O 0.15516(13) 0.6319(3) 0.1394(4)
O2 O 0.15085(16) 0.7131(4) 0.0541(5)
O3 O 0.35332(12) 0.9054(3) 0.2640(3)
O4 O 0.34360(12) 0.9836(3) 0.1771(3)
O5 O 0.14438(12) 0.5646(3) 0.3039(3)
O6 O 0.15193(12) 0.4970(3) 0.3994(3)
O7 O 0.34089(13) 0.8419(3) 0.4069(4)
O8 O 0.34255(16) 0.7862(5) 0.5105(4)
O9 O 0.09744(12) 0.4714(3) 0.2031(3)
O10 O 0.08758(11) 0.3727(3) 0.2660(3)
O11 O -0.08552(13) 0.3789(3) -0.1362(3)
O12 O -0.08524(14) 0.2643(3) -0.1065(4)
O13 O 0.09063(15) 0.3047(3) -0.0578(4)
H37 H 0.0820 0.3318 -0.0840
O14 O 0.10211(11) 0.2038(3) -0.1133(3)
O15 O -0.09188(11) -0.0052(3) 0.1348(3)
O16 O -0.08709(12) 0.0879(3) 0.2088(3)
O17 O 0.07591(16) 0.0578(4) 0.1646(4)
O18 O 0.08265(15) 0.0547(4) 0.2840(5)
O19 O -0.09349(13) 0.4200(3) 0.1522(3)
O20 O -0.10451(14) 0.4163(3) 0.2664(4)
O21 O -0.14419(14) 0.5620(3) 0.2968(3)
O22 O -0.16171(13) 0.4614(4) 0.2600(4)
O23 O -0.34764(14) 0.5651(3) 0.6080(4)
O24 O -0.33485(13) 0.4549(3) 0.6255(4)
O25 O 0.11117(15) 0.4129(3) 0.4847(3)
H38 H 0.1021 0.3828 0.5095
H39 H 0.1171 0.4449 0.5132
O26 O 0.12062(13) 0.6973(3) 0.2386(4)
H40 H 0.1123 0.7308 0.2167
H41 H 0.1245 0.7123 0.2805
O27 O 0.12188(15) 0.5256(4) 0.0686(4)
H42 H 0.1337 0.5558 0.0542
H43 H 0.1298 0.4853 0.0720
O28 O -0.10617(15) 0.5471(3) 0.0717(3)
H44 H -0.0987 0.5818 0.0496
H45 H -0.0982 0.5089 0.0582
O29 O -0.12693(14) 0.6434(3) 0.1767(4)
H46 H -0.1216 0.6688 0.1413
H47 H -0.1327 0.6717 0.2091
Ho1C Ho -0.121561(8) 0.074084(19) 0.29970(2)
Ho1D Ho -0.121561(8) 0.425916(19) -0.20030(2)
Ho1F Ho 0.378439(8) 1.074084(19) 0.20030(2)
Ho2C Ho -0.122220(8) -0.096390(19) 0.13646(2)
Ho2F Ho 0.377780(8) 0.903610(19) 0.36354(2)
Ho2G Ho 0.122220(8) 0.096390(19) -0.13646(2)
Ho3A Ho -0.375494(8) 0.48552(2) 0.68813(2)
Ho3C Ho 0.124506(8) 0.01448(2) 0.31187(2)
Co1C Co -0.24565(2) 0.38299(5) 0.45861(6)
Co1G Co 0.24565(2) 0.61701(5) 0.54139(6)
N1G N 0.21837(13) 0.8719(3) -0.0456(3)
N2G N 0.26579(13) 0.8040(3) -0.0224(3)
N11C N 0.26675(13) 0.9716(3) 0.0018(4)
N12C N 0.22339(13) 0.9694(3) 0.0859(3)
O3F O 0.14668(12) 0.4054(3) 0.2640(3)
O4F O 0.15640(12) 0.4836(3) 0.1771(3)
O7F O 0.15911(13) 0.3419(3) 0.4069(4)
O11D O 0.08552(13) 0.6211(3) 0.1362(3)
O14G O 0.10211(11) 0.2962(3) 0.3867(3)
O15C O 0.09188(11) 0.4948(3) 0.3652(3)
O16C O 0.08709(12) 0.5879(3) 0.2912(3)
O18C O -0.08265(15) 0.5547(4) 0.2160(5)
O23A O -0.15236(14) 0.4349(3) 0.1080(4)
O24A O -0.16515(13) 0.5451(3) 0.1255(4)
Cl1 Cl 0.00658(6) 0.49430(14) 0.27485(14)
O30 O -0.0091(2) 0.4602(5) 0.2243(6)
O31 O 0.01457(17) 0.5608(4) 0.2481(4)
O32 O 0.03029(19) 0.4526(5) 0.2894(4)
O33 O -0.00791(17) 0.5056(5) 0.3406(5)
Cl2 Cl 0.73925(8) 0.5017(2) 0.2127(2)
O34 O 0.7471(3) 0.5768(6) 0.1919(9)
O35 O 0.7402(4) 0.5344(8) 0.2809(6)
O36 O 0.7576(3) 0.4857(9) 0.2685(7)
O37 O 0.7404(4) 0.4636(8) 0.1474(6)
O38 O 0.95960(14) 0.4790(3) 0.0991(4)
H48 H 0.9434 0.4686 0.1127
H49 H 0.9705 0.4689 0.1332
O39 O 0.10536(18) 0.5295(4) 0.5689(4)
H50 H 0.1028 0.5288 0.6140
H51 H 0.1093 0.5722 0.5571
O40 O 0.7957(2) 0.3587(4) 0.2257(5)
H52 H 0.7826 0.3815 0.2059
H53 H 0.8097 0.3859 0.2264
O41 O 0.11288(19) 0.6448(4) 0.9783(5)
H54 H 0.1148 0.6835 1.0017
H55 H 0.1073 0.6556 0.9364
O42 O 0.10078(19) 0.7375(4) 0.3751(5)
H56 H 0.1004 0.6961 0.3978
H57 H 0.0842 0.7423 0.3577
O43 O 0.70379(19) 0.3616(5) 0.6906(5)
H58 H 0.7042 0.3199 0.7096
H59 H 0.6922 0.3870 0.7167
O44 O 0.3774(5) 0.8405(13) 0.6034(14)
O45 O 0.8610(4) 0.3172(10) 0.3310(10)
O46 O 0.9152(5) 0.1648(12) 0.9927(14)
O47 O 0.8673(5) 0.6564(11) 0.9297(13)
O48 O 0.4046(4) 0.7744(11) 0.7205(12)
O49? O 0.3855(5) 0.8243(12) 0.5946(13)
O50? O 0.8562(3) 0.3693(8) 0.3884(9)
O51? O 0.8985(4) 0.1659(11) 1.0015(12)
O52? O 0.8504(4) 0.6126(10) 0.9794(11)
O53? O 0.7547(3) 0.5309(8) 0.1572(7)
O54? O 0.7113(2) 0.5176(8) 0.2362(9)
O55? O 0.7113(2) 0.4811(8) 0.1912(9)
O56? O 0.7486(3) 0.4244(7) 0.2268(9)
O57? O 0.3879(4) 0.7642(10) 0.7219(11)
loop_
_geom_bond_atom_site_label_1
_geom_bond_atom_site_label_2
_geom_bond_site_symmetry_1
_geom_bond_site_symmetry_2
Ho1 O1 1_555 1_555
Ho2 O6 1_555 1_555
Ho3 O19 1_555 1_555
Co1 N3 1_555 1_555
Co2 N5 1_555 1_555
C1 C3 1_555 1_555
C2 H1 1_555 1_555
C3 C2 1_555 1_555
C4 C3 1_555 1_555
H2 C4 1_555 1_555
C5 C4 1_555 1_555
H3 C5 1_555 1_555
C6 C5 1_555 1_555
C7 C6 1_555 1_555
C8 C7 1_555 1_555
H4 C8 1_555 1_555
C9 C8 1_555 1_555
H5 C9 1_555 1_555
C10 C9 1_555 1_555
C11 C10 1_555 1_555
H6 C11 1_555 1_555
C12 C10 1_555 1_555
C13 C15 1_555 1_555
C14 H7 1_555 1_555
C15 C14 1_555 1_555
C16 C15 1_555 1_555
H8 C16 1_555 1_555
C17 C16 1_555 1_555
H9 C17 1_555 1_555
C18 C17 1_555 1_555
C19 C18 1_555 1_555
C20 C19 1_555 1_555
H10 C20 1_555 1_555
C21 C20 1_555 1_555
H11 C21 1_555 1_555
C22 C21 1_555 1_555
C23 C22 1_555 1_555
H12 C23 1_555 1_555
C24 C22 1_555 1_555
C25 C27 1_555 1_555
C26 H13 1_555 1_555
C27 C26 1_555 1_555
C28 C27 1_555 1_555
H14 C28 1_555 1_555
C29 C28 1_555 1_555
H15 C29 1_555 1_555
C30 C29 1_555 1_555
C31 C30 1_555 1_555
C32 C31 1_555 1_555
H16 C32 1_555 1_555
C33 C32 1_555 1_555
H17 C33 1_555 1_555
C34 C33 1_555 1_555
C35 C34 1_555 1_555
H18 C35 1_555 1_555
C36 C34 1_555 1_555
C37 C39 1_555 1_555
C38 H19 1_555 1_555
C39 C38 1_555 1_555
C40 C39 1_555 1_555
H20 C40 1_555 1_555
C41 C40 1_555 1_555
H21 C41 1_555 1_555
C42 C41 1_555 1_555
C43 C42 1_555 1_555
C44 C43 1_555 1_555
H22 C44 1_555 1_555
C45 C44 1_555 1_555
H23 C45 1_555 1_555
C46 C45 1_555 1_555
C47 C46 1_555 1_555
H24 C47 1_555 1_555
C48 C46 1_555 1_555
C49 C51 1_555 1_555
C50 H25 1_555 1_555
C51 C50 1_555 1_555
C52 C51 1_555 1_555
H26 C52 1_555 1_555
C53 C52 1_555 1_555
H27 C53 1_555 1_555
C54 C53 1_555 1_555
C55 C54 1_555 1_555
C56 C55 1_555 1_555
H28 C56 1_555 1_555
C57 C56 1_555 1_555
H29 C57 1_555 1_555
C58 C57 1_555 1_555
C59 C58 1_555 1_555
H30 C59 1_555 1_555
C60 C58 1_555 1_555
C61 C63 1_555 1_555
C62 H31 1_555 1_555
C63 C62 1_555 1_555
C64 C63 1_555 1_555
H32 C64 1_555 1_555
C65 C64 1_555 1_555
H33 C65 1_555 1_555
C66 C65 1_555 1_555
C67 C66 1_555 1_555
C68 C67 1_555 1_555
H34 C68 1_555 1_555
C69 C68 1_555 1_555
H35 C69 1_555 1_555
C70 C69 1_555 1_555
C71 C70 1_555 1_555
H36 C71 1_555 1_555
C72 C70 1_555 1_555
N1 C14 1_555 1_555
N2 C19 1_555 1_555
N3 C7 1_555 1_555
N4 Co1 1_555 1_555
N5 C38 1_555 1_555
N6 Co2 1_555 1_555
N7 Co2 1_555 1_555
N8 Co2 1_555 1_555
N9 Co2 1_555 1_555
N10 Co2 1_555 1_555
N11 C67 1_555 1_555
N12 C62 1_555 1_555
O1 C1 1_555 1_555
O2 C1 1_555 1_555
O3 C12 1_555 1_555
O4 C12 1_555 1_555
O5 Ho1 1_555 1_555
O6 C13 1_555 1_555
O7 C24 1_555 1_555
O8 C24 1_555 1_555
O9 Ho1 1_555 1_555
O10 Ho2 1_555 1_555
O11 C36 1_555 1_555
O12 C36 1_555 1_555
O13 C49 1_555 1_555
H37 O13 1_555 1_555
O14 C49 1_555 1_555
O15 C60 1_555 1_555
O16 C60 1_555 1_555
O17 C37 1_555 1_555
O18 C37 1_555 1_555
O19 C48 1_555 1_555
O20 Ho3 1_555 1_555
O21 Ho3 1_555 1_555
O22 Ho3 1_555 1_555
O23 C72 1_555 1_555
O24 C72 1_555 1_555
O25 Ho2 1_555 1_555
H38 O25 1_555 1_555
H39 O25 1_555 1_555
O26 Ho1 1_555 1_555
H40 O26 1_555 1_555
H41 O26 1_555 1_555
O27 Ho1 1_555 1_555
H42 O27 1_555 1_555
H43 O27 1_555 1_555
O28 Ho3 1_555 1_555
H44 O28 1_555 1_555
H45 O28 1_555 1_555
O29 Ho3 1_555 1_555
H46 O29 1_555 1_555
H47 O29 1_555 1_555
Cl1 O30 1_555 1_555
O31 Cl1 1_555 1_555
O32 Cl1 1_555 1_555
O33 Cl1 1_555 1_555
Cl2 O34 1_555 1_555
O35 Cl2 1_555 1_555
O36 Cl2 1_555 1_555
O37 Cl2 1_555 1_555
O38 H48 1_555 1_555
H49 O38 1_555 1_555
O39 H50 1_555 1_555
H51 O39 1_555 1_555
O40 H52 1_555 1_555
H53 O40 1_555 1_555
O41 H54 1_555 1_555
H55 O41 1_555 1_555
O42 H56 1_555 1_555
H57 O42 1_555 1_555
O43 H58 1_555 1_555
H59 O43 1_555 1_555
Ho1C O16 1_555 1_555
Ho1D O11 1_555 1_555
Ho1F O4 1_555 1_555
Ho2C O15 1_555 1_555
Ho2F O3 1_555 1_555
Ho2G O14 1_555 1_555
Ho3A O23 1_555 1_555
Ho3C O18 1_555 1_555
Co1C N11 1_555 1_555
Co1G N1 1_555 1_555
N1G Co1 1_555 1_555
N2G Co1 1_555 1_555
N11C Co1 1_555 1_555
N12C Co1 1_555 1_555
O3F Ho2 1_555 1_555
O4F Ho1 1_555 1_555
O7F Ho2 1_555 1_555
O11D Ho1 1_555 1_555
O14G Ho2 1_555 1_555
O15C Ho2 1_555 1_555
O16C Ho1 1_555 1_555
O18C Ho3 1_555 1_555
O23A Ho3 1_555 1_555
O24A Ho3 1_555 1_555
C2 N4 1_555 1_555
C6 N4 1_555 1_555
C11 N3 1_555 1_555
C13 O5 1_555 1_555
C18 N1 1_555 1_555
C23 N2 1_555 1_555
C25 O9 1_555 1_555
C25 O10 1_555 1_555
C26 N10 1_555 1_555
C30 N10 1_555 1_555
C31 N9 1_555 1_555
C35 N9 1_555 1_555
C42 N5 1_555 1_555
C43 N6 1_555 1_555
C47 N6 1_555 1_555
C48 O20 1_555 1_555
C50 N7 1_555 1_555
C54 N7 1_555 1_555
C55 N8 1_555 1_555
C59 N8 1_555 1_555
C61 O21 1_555 1_555
C61 O22 1_555 1_555
C66 N12 1_555 1_555
C71 N11 1_555 1_555
N2 Co1G 1_555 1_555
N12 Co1C 1_555 1_555
O7 Ho2F 1_555 1_555
O24 Ho3A 1_555 1_555

#END
