
#######################################################################
#
#                 Cambridge Crystallographic Data Centre
#                                CCDC 
#
#######################################################################
#
# If this CIF has been generated from an entry in the Cambridge 
# Structural Database, then it will include bibliographic, chemical, 
# crystal, experimental, refinement or atomic coordinate data resulting 
# from the CCDC's data processing and validation procedures.
#
#######################################################################

data_NIGGAM
_symmetry_cell_setting           monoclinic
_symmetry_space_group_name_H-M   'C 2/c'
_symmetry_Int_Tables_number      15
_space_group_name_Hall           '-C 2yn'
loop_
_symmetry_equiv_pos_site_id
_symmetry_equiv_pos_as_xyz
1 x,y,z
2 1/2+x,1/2+y,z
3 -x,y,1/2-z
4 1/2-x,1/2+y,1/2-z
5 -x,-y,-z
6 1/2-x,1/2-y,-z
7 x,-y,1/2+z
8 1/2+x,1/2-y,1/2+z
_cell_length_a                   18.440(4)
_cell_length_b                   11.647(2)
_cell_length_c                   19.698(4)
_cell_angle_alpha                90
_cell_angle_beta                 107.06(3)
_cell_angle_gamma                90
_cell_volume                     4044.4
loop_
_atom_site_label
_atom_site_type_symbol
_atom_site_fract_x
_atom_site_fract_y
_atom_site_fract_z
Ho1 Ho 0.074964(17) 0.32957(3) 1.083162(16)
C1 C 0.1918(4) 0.1743(6) 1.1083(4)
C2 C 0.3757(4) -0.0787(6) 1.2825(4)
C3 C 0.4100(4) -0.0040(6) 1.0438(4)
C4 C 0.3663(4) 0.0113(6) 1.0945(4)
C5 C 0.3881(4) -0.0415(6) 1.1610(4)
H1 H 0.4309 -0.0883 1.1731
C6 C 0.3473(4) -0.0256(5) 1.2101(4)
C7 C 0.2839(4) 0.0420(6) 1.1917(4)
H2 H 0.2563 0.0526 1.2238
C8 C 0.2600(4) 0.0951(6) 1.1256(4)
C9 C 0.3005(4) 0.0804(5) 1.0770(4)
H3 H 0.2844 0.1160 1.0329
C10 C -0.0479(6) 0.2789(8) 0.9247(5)
H4 H -0.0686 0.3523 0.9175
C11 C -0.0618(9) 0.0800(10) 0.9025(8)
H5 H -0.0266 0.0739 0.9492
H6 H -0.0372 0.0571 0.8679
H7 H -0.1045 0.0309 0.8991
C12 C -0.1625(7) 0.2174(14) 0.8423(8)
H8 H -0.1959 0.1569 0.8473
H9 H -0.1606 0.2198 0.7941
H10 H -0.1809 0.2895 0.8542
C13 C -0.0508(6) 0.1793(7) 1.1316(5)
H11 H -0.0232 0.1958 1.1782
C14 C -0.1563(8) 0.1195(12) 1.1807(8)
H12 H -0.1257 0.1559 1.2232
H13 H -0.1594 0.0387 1.1889
H14 H -0.2063 0.1522 1.1674
C15 C -0.1629(12) 0.107(2) 1.0492(12)
H15 H -0.1419 0.1475 1.0169
H16 H -0.2154 0.1275 1.0400
H17 H -0.1589 0.0259 1.0427
N1 N -0.0870(5) 0.1962(7) 0.8896(5)
N2 N -0.1212(5) 0.1379(8) 1.1225(5)
O1 O 0.1748(4) 0.2309(6) 1.0526(3)
O2 O 0.1538(4) 0.1806(5) 1.1508(4)
O3 O 0.3447(3) -0.0509(5) 1.3292(3)
O4 O 0.4297(3) -0.1475(4) 1.2965(3)
O5 O 0.4733(3) -0.0536(5) 1.0663(3)
O6 O 0.3839(3) 0.0333(4) 0.9818(2)
O7 O 0.0159(4) 0.2673(6) 0.9677(3)
O8 O -0.0197(4) 0.1974(5) 1.0884(3)
Ho1C Ho 0.425036(17) -0.17043(3) 1.416838(16)
Ho1A Ho 0.574964(17) -0.17043(3) 1.083162(16)
Ho1E Ho 0.425036(17) 0.17043(3) 0.916838(16)
O3C O 0.1553(3) 0.4491(5) 1.1708(3)
O4C O 0.0703(3) 0.3525(4) 1.2035(3)
O5A O -0.0267(3) 0.4464(5) 1.0663(3)
O6E O 0.1161(3) 0.4667(4) 1.0182(2)
O10 O 0.0000 0.687(2) 0.2500
O12 O 0.0000 0.9883(12) 0.2500
H18? H 0.0479 0.2232 0.9495
O9? O -0.006(4) 0.899(3) 0.237(3)
O11? O 0.0196(13) 0.7958(17) 0.2650(13)
loop_
_geom_bond_atom_site_label_1
_geom_bond_atom_site_label_2
_geom_bond_site_symmetry_1
_geom_bond_site_symmetry_2
Ho1 O1 1_555 1_555
C1 C8 1_555 1_555
C2 C6 1_555 1_555
C3 C4 1_555 1_555
C4 C5 1_555 1_555
C5 H1 1_555 1_555
C6 C5 1_555 1_555
C7 C6 1_555 1_555
H2 C7 1_555 1_555
C8 C7 1_555 1_555
C9 C4 1_555 1_555
H3 C9 1_555 1_555
C10 H4 1_555 1_555
C11 H5 1_555 1_555
H6 C11 1_555 1_555
H7 C11 1_555 1_555
C12 H8 1_555 1_555
H9 C12 1_555 1_555
H10 C12 1_555 1_555
C13 H11 1_555 1_555
C14 H12 1_555 1_555
H13 C14 1_555 1_555
H14 C14 1_555 1_555
C15 H15 1_555 1_555
H16 C15 1_555 1_555
H17 C15 1_555 1_555
N1 C10 1_555 1_555
N2 C13 1_555 1_555
O1 C1 1_555 1_555
O2 Ho1 1_555 1_555
O3 C2 1_555 1_555
O4 C2 1_555 1_555
O5 C3 1_555 1_555
O6 C3 1_555 1_555
O7 Ho1 1_555 1_555
O8 Ho1 1_555 1_555
Ho1C O3 1_555 1_555
Ho1A O5 1_555 1_555
Ho1E O6 1_555 1_555
O3C Ho1 1_555 1_555
O4C Ho1 1_555 1_555
O5A Ho1 1_555 1_555
O6E Ho1 1_555 1_555
C1 O2 1_555 1_555
C8 C9 1_555 1_555
C10 O7 1_555 1_555
C11 N1 1_555 1_555
C12 N1 1_555 1_555
C13 O8 1_555 1_555
C14 N2 1_555 1_555
C15 N2 1_555 1_555
O4 Ho1C 1_555 1_555

#END
