
#######################################################################
#
#                 Cambridge Crystallographic Data Centre
#                                CCDC 
#
#######################################################################
#
# If this CIF has been generated from an entry in the Cambridge 
# Structural Database, then it will include bibliographic, chemical, 
# crystal, experimental, refinement or atomic coordinate data resulting 
# from the CCDC's data processing and validation procedures.
#
#######################################################################

data_NIGHIU
_symmetry_cell_setting           monoclinic
_symmetry_space_group_name_H-M   'P 2/n'
_symmetry_Int_Tables_number      13
_space_group_name_Hall           '-P 2yac'
loop_
_symmetry_equiv_pos_site_id
_symmetry_equiv_pos_as_xyz
1 x,y,z
2 1/2-x,y,1/2-z
3 -x,-y,-z
4 1/2+x,-y,1/2+z
_cell_length_a                   8.701(1)
_cell_length_b                   8.955(1)
_cell_length_c                   11.811(1)
_cell_angle_alpha                90
_cell_angle_beta                 91.438(8)
_cell_angle_gamma                90
_cell_volume                     919.993
loop_
_atom_site_label
_atom_site_type_symbol
_atom_site_fract_x
_atom_site_fract_y
_atom_site_fract_z
Ag1 Ag 0.75000 0.20171(5) 0.75000
S1 S 1.0337(1) 0.17537(9) 0.70081(8)
S2 S 1.0258(1) 0.50787(8) 0.70030(7)
S3 S 1.22567(9) 0.35624(9) 0.54778(7)
S4 S 1.0988(1) 0.81344(9) 0.62630(8)
S5 S 0.65338(9) 0.3621(1) 0.55476(7)
C1 C 1.0926(3) 0.3402(3) 0.6516(3)
C2 C 1.1301(3) 0.6228(3) 0.6106(2)
C3 C 0.7232(3) 0.4499(3) 1.0389(2)
C4 C 1.2648(5) 0.8983(4) 0.5603(3)
C5 C 1.3969(4) 0.7956(4) 0.5354(3)
H1 H 1.3025 0.9763 0.6078
H2 H 1.2306 0.9412 0.4893
H3 H 0.9370 0.2420 1.1057
H4 H 0.9755 0.1485 0.9996
S5B S 1.34662(9) 0.6379(1) 0.44524(7)
Ag1B Ag 1.25000 0.79829(5) 0.25000
S1A S 0.4663(1) 0.17537(9) 0.79919(8)
Ag1C Ag 0.25000 0.79829(5) 1.25000
S1C S 0.5337(1) 0.82463(9) 1.20081(8)
C1C C 0.5926(3) 0.6598(3) 1.1516(3)
S2C S 0.5258(1) 0.49213(8) 1.20030(7)
C2C C 0.6301(3) 0.3772(3) 1.1106(2)
S4C S 0.5988(1) 0.18656(9) 1.12630(8)
C4C C 0.7648(5) 0.1017(4) 1.0603(3)
C5C C 0.8969(4) 0.2044(4) 1.0354(3)
S5A S 0.84662(9) 0.3621(1) 0.94524(7)
S3C S 0.72567(9) 0.64376(9) 1.04778(7)
H1C H 0.8025 0.0237 1.1078
H2C H 0.7306 0.0588 0.9893
C3C C 1.2232(3) 0.5501(3) 0.5389(2)
H3C H 1.4370 0.7580 0.6057
H4C H 1.4755 0.8515 0.4996
O1 O 0.2500 0.2814(5) 0.2500
O2 O 0.1835(3) 0.0721(4) 0.1725(2)
N1 N 0.2500 0.1439(5) 0.2500
O2A O 0.3165(3) 0.0721(4) 0.3275(2)
loop_
_geom_bond_atom_site_label_1
_geom_bond_atom_site_label_2
_geom_bond_site_symmetry_1
_geom_bond_site_symmetry_2
Ag1 S1 1_555 1_555
S1 C1 1_555 1_555
S2 C1 1_555 1_555
S3 C1 1_555 1_555
S4 C2 1_555 1_555
S5 Ag1 1_555 1_555
O1 N1 1_555 1_555
O2 N1 1_555 1_555
N1 O2A 1_555 1_555
C2 S2 1_555 1_555
C3 C2C 1_555 1_555
C4 S4 1_555 1_555
C5 C4 1_555 1_555
H1 C4 1_555 1_555
H2 C4 1_555 1_555
H3 C5C 1_555 1_555
H4 C5C 1_555 1_555
S5B C5 1_555 1_555
Ag1B S5B 1_555 1_555
S1A Ag1 1_555 1_555
Ag1C S1C 1_555 1_555
S1C C1C 1_555 1_555
C1C S2C 1_555 1_555
S2C C2C 1_555 1_555
C2C S4C 1_555 1_555
S4C C4C 1_555 1_555
C4C C5C 1_555 1_555
C5C S5A 1_555 1_555
S5A Ag1 1_555 1_555
S3C C3 1_555 1_555
H1C C4C 1_555 1_555
H2C C4C 1_555 1_555
C3C S3 1_555 1_555
H3C C5 1_555 1_555
H4C C5 1_555 1_555
C2 C3C 1_555 1_555
C3 S5A 1_555 1_555
S5B C3C 1_555 1_555
C1C S3C 1_555 1_555

#END
