
#######################################################################
#
#                 Cambridge Crystallographic Data Centre
#                                CCDC 
#
#######################################################################
#
# If this CIF has been generated from an entry in the Cambridge 
# Structural Database, then it will include bibliographic, chemical, 
# crystal, experimental, refinement or atomic coordinate data resulting 
# from the CCDC's data processing and validation procedures.
#
#######################################################################

data_NIGNEW
_symmetry_cell_setting           triclinic
_symmetry_space_group_name_H-M   'P -1'
_symmetry_Int_Tables_number      2
_space_group_name_Hall           '-P 1'
loop_
_symmetry_equiv_pos_site_id
_symmetry_equiv_pos_as_xyz
1 x,y,z
2 -x,-y,-z
_cell_length_a                   13.069(1)
_cell_length_b                   13.284(2)
_cell_length_c                   10.917(2)
_cell_angle_alpha                91.07(1)
_cell_angle_beta                 90.50(1)
_cell_angle_gamma                81.975(9)
_cell_volume                     1876.36
loop_
_atom_site_label
_atom_site_type_symbol
_atom_site_fract_x
_atom_site_fract_y
_atom_site_fract_z
Si1 Si -0.0177(3) 0.6706(3) -2.6973(4)
F1 F 0.7711(8) -0.0465(8) -1.8294(10)
F2 F 0.8843(8) -0.0487(9) -1.956(1)
F3 F 0.8946(8) 0.0347(6) -1.7943(9)
F4 F 0.811(1) 0.4344(10) -2.004(1)
F5 F 0.835(1) 0.3815(7) -1.837(1)
F6 F 0.6959(9) 0.4414(8) -1.886(1)
F7 F 0.4367(8) -0.0664(9) -2.4055(10)
F8 F 0.4526(7) -0.1214(7) -2.2337(8)
F9 F 0.5505(7) -0.1820(8) -2.3653(10)
F10 F 0.8187(8) -0.0271(9) -2.526(1)
F11 F 0.9075(8) 0.007(1) -2.376(1)
F12 F 0.8367(9) 0.1189(10) -2.485(1)
O1 O 0.7082(6) 0.0748(6) -2.0207(8)
O2 O 0.6851(6) 0.2895(7) -2.0610(8)
O3 O 0.5408(6) 0.0481(6) -2.2181(8)
O4 O 0.7210(7) 0.1266(7) -2.2851(9)
Mn1 Mn 0.6101(1) 0.1723(2) -2.1455(2)
N1 N 0.4757(7) 0.2116(8) -2.0221(9)
N2 N 0.132(1) 0.2585(10) -2.812(1)
N3 N 0.064(1) 0.213(1) -2.817(2)
N4 N 0.5258(8) 0.2930(8) -2.2666(9)
N5 N 0.3387(9) 0.6111(10) -2.441(1)
N6 N 0.351(1) 0.693(1) -2.414(1)
C1 C 0.4564(10) 0.302(1) -2.968(1)
C2 C 0.372(1) 0.3390(9) -2.899(1)
C3 C 0.2985(10) 0.277(1) -2.879(1)
C4 C 0.3159(9) 0.1797(10) -2.933(1)
C5 C 0.403(1) 0.1510(9) -3.001(1)
C6 C 0.2086(10) 0.3116(10) -2.808(1)
C7 C 0.1917(9) 0.4031(9) -2.729(1)
C8 C 0.2625(9) 0.4175(9) -2.638(1)
C9 C 0.2491(9) 0.5019(9) -2.564(1)
C10 C 0.1623(10) 0.5755(9) -2.580(1)
C11 C 0.0889(9) 0.5614(10) -2.671(1)
C12 C 0.1052(9) 0.476(1) -2.742(1)
C13 C 0.3259(10) 0.5164(10) -2.465(1)
C14 C 0.3941(9) 0.4406(9) -2.396(1)
C15 C 0.3757(8) 0.3429(9) -2.390(1)
C16 C 0.439(1) 0.2705(9) -2.327(1)
C17 C 0.5438(9) 0.387(1) -2.272(1)
C18 C 0.4827(10) 0.464(1) -2.334(1)
C19 C 0.038(1) 0.768(1) -2.783(1)
C20 C -0.070(1) 0.720(1) -2.548(1)
C21 C -0.123(1) 0.623(1) -2.788(2)
C22 C 0.828(2) 0.013(1) -1.874(2)
C23 C 0.770(1) 0.104(1) -1.944(1)
C24 C 0.790(1) 0.198(1) -1.910(1)
C25 C 0.747(1) 0.286(1) -1.971(1)
C26 C 0.772(1) 0.385(2) -1.930(3)
C27 C 0.503(1) -0.091(1) -2.327(2)
C28 C 0.574(1) -0.018(1) -2.294(1)
C29 C 0.666(1) -0.027(1) -2.358(1)
C30 C 0.729(1) 0.050(1) -2.350(1)
C31 C 0.822(2) 0.033(2) -2.431(2)
H1 H 0.5066 0.3468 -2.9787
H2 H 0.3637 0.4063 -2.8665
H3 H 0.2673 0.1337 -2.9226
H4 H 0.4127 0.0842 -3.0360
H5 H 0.3215 0.3679 -2.6270
H6 H 0.1534 0.6352 -2.5299
H7 H 0.0554 0.4658 -2.8030
H8 H 0.3164 0.3240 -2.4299
H9 H 0.4226 0.2031 -2.3254
H10 H 0.6034 0.4040 -2.2309
H11 H 0.5004 0.5315 -2.3345
H12 H 0.0649 0.7389 -2.8588
H13 H 0.0921 0.7907 -2.7365
H14 H -0.0141 0.8233 -2.7991
H15 H -0.0163 0.7436 -2.5011
H16 H -0.1239 0.7743 -2.5611
H17 H -0.0957 0.6671 -2.5060
H18 H -0.1785 0.6769 -2.7990
H19 H -0.1476 0.5693 -2.7460
H20 H -0.0976 0.5989 -2.8661
H21 H 0.8353 0.2047 -1.8426
H22 H 0.6862 -0.0860 -2.4072
N1_2 N 0.4757(7) 0.2116(8) -3.0221(9)
Mn1_2 Mn 0.6101(1) 0.1723(2) -3.1455(2)
loop_
_geom_bond_atom_site_label_1
_geom_bond_atom_site_label_2
_geom_bond_site_symmetry_1
_geom_bond_site_symmetry_2
Si1 C11 1_555 1_555
F1 C22 1_555 1_555
F2 C22 1_555 1_555
F3 C22 1_555 1_555
F4 C26 1_555 1_555
F5 C26 1_555 1_555
F6 C26 1_555 1_555
F7 C27 1_555 1_555
F8 C27 1_555 1_555
F9 C27 1_555 1_555
F10 C31 1_555 1_555
F11 C31 1_555 1_555
F12 C31 1_555 1_555
O1 Mn1 1_555 1_555
O2 Mn1 1_555 1_555
O3 Mn1 1_555 1_555
O4 Mn1 1_555 1_555
Mn1 N1 1_555 1_555
N2 N3 1_555 1_555
N4 Mn1 1_555 1_555
N5 N6 1_555 1_555
C1 C2 1_555 1_555
C2 C3 1_555 1_555
C3 C4 1_555 1_555
C4 C5 1_555 1_555
C5 H4 1_555 1_555
C6 N2 1_555 1_555
C7 C6 1_555 1_555
C8 C7 1_555 1_555
C9 C8 1_555 1_555
C10 C9 1_555 1_555
C11 C10 1_555 1_555
C12 C7 1_555 1_555
C13 N5 1_555 1_555
C14 C13 1_555 1_555
C15 C14 1_555 1_555
C16 N4 1_555 1_555
C17 N4 1_555 1_555
C18 C14 1_555 1_555
C19 Si1 1_555 1_555
C20 Si1 1_555 1_555
C21 Si1 1_555 1_555
C22 C23 1_555 1_555
C23 O1 1_555 1_555
C24 C23 1_555 1_555
C25 O2 1_555 1_555
C26 C25 1_555 1_555
C27 C28 1_555 1_555
C28 O3 1_555 1_555
C29 C28 1_555 1_555
C30 O4 1_555 1_555
C31 C30 1_555 1_555
H1 C1 1_555 1_555
H2 C2 1_555 1_555
H3 C4 1_555 1_555
H5 C8 1_555 1_555
H6 C10 1_555 1_555
H7 C12 1_555 1_555
H8 C15 1_555 1_555
H9 C16 1_555 1_555
H10 C17 1_555 1_555
H11 C18 1_555 1_555
H12 C19 1_555 1_555
H13 C19 1_555 1_555
H14 C19 1_555 1_555
H15 C20 1_555 1_555
H16 C20 1_555 1_555
H17 C20 1_555 1_555
H18 C21 1_555 1_555
H19 C21 1_555 1_555
H20 C21 1_555 1_555
H21 C24 1_555 1_555
H22 C29 1_555 1_555
N1_2 C1 1_555 1_555
Mn1_2 N1_2 1_555 1_555
C3 C6 1_555 1_555
C5 N1_2 1_555 1_555
C9 C13 1_555 1_555
C11 C12 1_555 1_555
C15 C16 1_555 1_555
C17 C18 1_555 1_555
C24 C25 1_555 1_555
C29 C30 1_555 1_555

#END
