
#######################################################################
#
#                 Cambridge Crystallographic Data Centre
#                                CCDC 
#
#######################################################################
#
# If this CIF has been generated from an entry in the Cambridge 
# Structural Database, then it will include bibliographic, chemical, 
# crystal, experimental, refinement or atomic coordinate data resulting 
# from the CCDC's data processing and validation procedures.
#
#######################################################################

data_NIGPOJ
_symmetry_cell_setting           orthorhombic
_symmetry_space_group_name_H-M   'P 21 21 2'
_symmetry_Int_Tables_number      18
_space_group_name_Hall           'P 2 2ab'
loop_
_symmetry_equiv_pos_site_id
_symmetry_equiv_pos_as_xyz
1 x,y,z
2 -x,-y,z
3 1/2-x,1/2+y,-z
4 1/2+x,1/2-y,-z
_cell_length_a                   7.8018(16)
_cell_length_b                   9.0824(17)
_cell_length_c                   9.9020(19)
_cell_angle_alpha                90
_cell_angle_beta                 90
_cell_angle_gamma                90
_cell_volume                     701.646
loop_
_atom_site_label
_atom_site_type_symbol
_atom_site_fract_x
_atom_site_fract_y
_atom_site_fract_z
C1 C 0.8133(7) 0.6980(5) 0.5653(5)
H1 H 0.7939 0.7128 0.4736
C2 C 0.9457(6) 0.7686(5) 0.7562(5)
H2 H 1.0192 0.8315 0.8025
C3 C 0.8666(7) 0.6575(5) 0.8258(5)
H3 H 0.8860 0.6441 0.9176
C4 C 0.7563(7) 0.5651(5) 0.7547(5)
C5 C 0.6655(7) 0.4403(5) 0.8215(5)
H4 H 0.7485 0.3812 0.8703
H5 H 0.6142 0.3785 0.7527
Ag1 Ag 1.0000 1.0000 0.50806(4)
N1 N 0.9210(5) 0.7899(4) 0.6238(4)
N2 N 0.7290(5) 0.5867(4) 0.6219(4)
S1 S 0.5000 0.5000 0.93769(13)
C1A C 0.1867(7) 0.3020(5) 0.5653(5)
H1A H 0.2061 0.2872 0.4736
C2A C 0.0543(6) 0.2314(5) 0.7562(5)
H2A H -0.0192 0.1685 0.8025
C3A C 0.1334(7) 0.3425(5) 0.8258(5)
H3A H 0.1140 0.3559 0.9176
C4A C 0.2437(7) 0.4349(5) 0.7547(5)
C5A C 0.3345(7) 0.5597(5) 0.8215(5)
H4A H 0.2515 0.6188 0.8703
H5A H 0.3858 0.6215 0.7527
Ag1B Ag 0.5000 0.5000 0.49194(4)
Ag1_2 Ag 0.0000 0.0000 0.50806(4)
N1A N 0.0790(5) 0.2101(4) 0.6238(4)
N1A_2 N 1.0790(5) 1.2101(4) 0.6238(4)
N2A N 0.2710(5) 0.4133(4) 0.6219(4)
N2B N 0.7710(5) 1.0867(4) 0.3781(4)
N2C N 1.2290(5) 0.9133(4) 0.3781(4)
P1 P 0.5000 1.0000 0.77758(14)
F1 F 0.5562(5) 0.8853(7) 0.6678(5)
F2 F 0.3123(5) 0.9356(4) 0.7734(6)
F3 F 0.4425(6) 1.1118(5) 0.8877(5)
F1A F 0.4438(5) 1.1147(7) 0.6678(5)
F2A F 0.6877(5) 1.0644(4) 0.7734(6)
F3A F 0.5575(6) 0.8882(5) 0.8877(5)
loop_
_geom_bond_atom_site_label_1
_geom_bond_atom_site_label_2
_geom_bond_site_symmetry_1
_geom_bond_site_symmetry_2
C1 H1 1_555 1_555
C2 H2 1_555 1_555
C3 C2 1_555 1_555
H3 C3 1_555 1_555
C4 C3 1_555 1_555
C5 C4 1_555 1_555
H4 C5 1_555 1_555
H5 C5 1_555 1_555
Ag1 N1 1_555 1_555
N1 C1 1_555 1_555
N2 C1 1_555 1_555
S1 C5 1_555 1_555
P1 F1 1_555 1_555
F2 P1 1_555 1_555
F3 P1 1_555 1_555
C1A H1A 1_555 1_555
C2A H2A 1_555 1_555
C3A C2A 1_555 1_555
H3A C3A 1_555 1_555
C4A C3A 1_555 1_555
C5A S1 1_555 1_555
H4A C5A 1_555 1_555
H5A C5A 1_555 1_555
Ag1B N2 1_555 1_555
Ag1_2 N1A 1_555 1_555
N1A C1A 1_555 1_555
N1A_2 Ag1 1_555 1_555
N2A C1A 1_555 1_555
N2B Ag1 1_555 1_555
N2C Ag1 1_555 1_555
F1A P1 1_555 1_555
F2A P1 1_555 1_555
F3A P1 1_555 1_555
C2 N1 1_555 1_555
C4 N2 1_555 1_555
C2A N1A 1_555 1_555
C4A C5A 1_555 1_555
C4A N2A 1_555 1_555
Ag1B N2A 1_555 1_555

#END
