
#######################################################################
#
#                 Cambridge Crystallographic Data Centre
#                                CCDC 
#
#######################################################################
#
# If this CIF has been generated from an entry in the Cambridge 
# Structural Database, then it will include bibliographic, chemical, 
# crystal, experimental, refinement or atomic coordinate data resulting 
# from the CCDC's data processing and validation procedures.
#
#######################################################################

data_NIGROM
_symmetry_cell_setting           monoclinic
_symmetry_space_group_name_H-M   'P 2/a'
_symmetry_Int_Tables_number      13
_space_group_name_Hall           '-P 2ya'
loop_
_symmetry_equiv_pos_site_id
_symmetry_equiv_pos_as_xyz
1 x,y,z
2 1/2-x,y,-z
3 -x,-y,-z
4 1/2+x,-y,z
_cell_length_a                   11.5691(17)
_cell_length_b                   6.7563(9)
_cell_length_c                   12.088(2)
_cell_angle_alpha                90
_cell_angle_beta                 103.437(15)
_cell_angle_gamma                90
_cell_volume                     918.986
loop_
_atom_site_label
_atom_site_type_symbol
_atom_site_fract_x
_atom_site_fract_y
_atom_site_fract_z
C1 C 0.1516(7) 0.2050(15) 0.1883(9)
C2 C 0.2615(7) 0.1457(13) 0.2764(7)
C3 C 0.3819(7) 0.1764(13) 0.2864(7)
C4 C 0.4623(7) 0.2624(13) 0.2183(7)
Cl1 Cl 0.2500 -0.3752(5) 0.5000
Cu1 Cu 0.11249(8) -0.10094(17) 0.41109(9)
Ho1 Ho 0.2500 0.48838(8) 0.0000
N1 N 0.2510(6) 0.0514(11) 0.3723(6)
N2 N 0.3590(6) 0.0266(11) 0.4374(6)
N3 N 0.4386(6) 0.1018(11) 0.3877(6)
O1 O 0.1677(5) 0.2682(11) 0.0958(5)
O2 O 0.0540(5) 0.1834(10) 0.2134(5)
O3 O 0.4236(4) 0.3454(9) 0.1261(5)
O4 O 0.5730(5) 0.2388(9) 0.2640(5)
O5 O 0.4049(5) 0.7143(9) 0.0095(5)
H1 H 0.4448 0.6819 -0.0387
H2 H 0.3762 0.8296 -0.0058
O6 O 0.2736(5) 0.6476(11) 0.1839(5)
H3 H 0.2052 0.6523 0.2059
H4 H 0.3256 0.5823 0.2373
C1A C 0.3484(7) 0.2050(15) -0.1883(9)
C2A C 0.2385(7) 0.1457(13) -0.2764(7)
C3A C 0.1181(7) 0.1764(13) -0.2864(7)
C4A C 0.0377(7) 0.2624(13) -0.2183(7)
Cu1A Cu 0.38751(8) -0.10094(17) -0.41109(9)
N1A N 0.2490(6) 0.0514(11) -0.3723(6)
N2A N 0.1410(6) 0.0266(11) -0.4374(6)
N3A N 0.0614(6) 0.1018(11) -0.3877(6)
O1A O 0.3323(5) 0.2682(11) -0.0958(5)
O2A O 0.4460(5) 0.1834(10) -0.2134(5)
O3A O 0.0764(4) 0.3454(9) -0.1261(5)
O4A O -0.0730(5) 0.2388(9) -0.2640(5)
O5A O 0.0951(5) 0.7143(9) -0.0095(5)
H1A H 0.0552 0.6819 0.0387
H2A H 0.1238 0.8296 0.0058
O6A O 0.2264(5) 0.6476(11) -0.1839(5)
H3A H 0.2948 0.6523 -0.2059
H4A H 0.1744 0.5823 -0.2373
Cl1_2 Cl 0.2500 -0.3752(5) -0.5000
Cu1_2 Cu 0.11249(8) -0.10094(17) -0.58891(9)
Cu1A_2 Cu 0.38751(8) -0.10094(17) 0.58891(9)
Cu1B Cu -0.11249(8) 0.10094(17) -0.41109(9)
Cu1C Cu 0.61249(8) 0.10094(17) 0.41109(9)
N2_2 N 0.3590(6) 0.0266(11) -0.5626(6)
N2A_2 N 0.1410(6) 0.0266(11) 0.5626(6)
N3B N 0.5614(6) -0.1018(11) -0.3877(6)
N3C N -0.0614(6) -0.1018(11) 0.3877(6)
O4B O 0.4270(5) -0.2388(9) -0.2640(5)
O4C O 0.0730(5) -0.2388(9) 0.2640(5)
O7 O -0.0293(10) 0.3947(18) 0.3717(8)
H5 H -0.0035 0.3542 0.3154
H6 H 0.0104 0.3412 0.4324
loop_
_geom_bond_atom_site_label_1
_geom_bond_atom_site_label_2
_geom_bond_site_symmetry_1
_geom_bond_site_symmetry_2
C1 C2 1_555 1_555
C2 C3 1_555 1_555
C3 C4 1_555 1_555
C4 O3 1_555 1_555
Cl1 Cu1 1_555 1_555
Cu1 N1 1_555 1_555
Ho1 O1 1_555 1_555
N1 C2 1_555 1_555
N2 N1 1_555 1_555
N3 C3 1_555 1_555
O1 C1 1_555 1_555
O2 C1 1_555 1_555
O3 Ho1 1_555 1_555
O4 C4 1_555 1_555
O5 Ho1 1_555 1_555
H1 O5 1_555 1_555
H2 O5 1_555 1_555
O6 Ho1 1_555 1_555
H3 O6 1_555 1_555
H4 O6 1_555 1_555
O7 H5 1_555 1_555
H6 O7 1_555 1_555
C1A C2A 1_555 1_555
C2A C3A 1_555 1_555
C3A C4A 1_555 1_555
C4A O3A 1_555 1_555
Cu1A N1A 1_555 1_555
N1A C2A 1_555 1_555
N2A N1A 1_555 1_555
N3A C3A 1_555 1_555
O1A Ho1 1_555 1_555
O2A C1A 1_555 1_555
O3A Ho1 1_555 1_555
O4A C4A 1_555 1_555
O5A Ho1 1_555 1_555
H1A O5A 1_555 1_555
H2A O5A 1_555 1_555
O6A Ho1 1_555 1_555
H3A O6A 1_555 1_555
H4A O6A 1_555 1_555
Cl1_2 Cu1A 1_555 1_555
Cu1_2 N2A 1_555 1_555
Cu1A_2 Cl1 1_555 1_555
Cu1B N3A 1_555 1_555
Cu1C N3 1_555 1_555
N2_2 Cu1A 1_555 1_555
N2A_2 Cu1 1_555 1_555
N3B Cu1A 1_555 1_555
N3C Cu1 1_555 1_555
O4B Cu1A 1_555 1_555
O4C Cu1 1_555 1_555
N2 N3 1_555 1_555
N2 Cu1A_2 1_555 1_555
O4 Cu1C 1_555 1_555
C1A O1A 1_555 1_555
N2A N3A 1_555 1_555
O4A Cu1B 1_555 1_555
Cl1_2 Cu1_2 1_555 1_555

#END
