
#######################################################################
#
#                 Cambridge Crystallographic Data Centre
#                                CCDC 
#
#######################################################################
#
# If this CIF has been generated from an entry in the Cambridge 
# Structural Database, then it will include bibliographic, chemical, 
# crystal, experimental, refinement or atomic coordinate data resulting 
# from the CCDC's data processing and validation procedures.
#
#######################################################################

data_NIGRAY
_symmetry_cell_setting           monoclinic
_symmetry_space_group_name_H-M   'P 2/a'
_symmetry_Int_Tables_number      13
_space_group_name_Hall           '-P 2ya'
loop_
_symmetry_equiv_pos_site_id
_symmetry_equiv_pos_as_xyz
1 x,y,z
2 1/2-x,y,-z
3 -x,-y,-z
4 1/2+x,-y,z
_cell_length_a                   11.6361(4)
_cell_length_b                   6.8244(2)
_cell_length_c                   12.1675(5)
_cell_angle_alpha                90
_cell_angle_beta                 103.755(4)
_cell_angle_gamma                90
_cell_volume                     938.504
loop_
_atom_site_label
_atom_site_type_symbol
_atom_site_fract_x
_atom_site_fract_y
_atom_site_fract_z
Gd1 Gd 0.2500 0.51351(5) 0.5000
Cu1 Cu 0.61156(5) 0.90134(11) 0.91142(5)
Cl1 Cl 0.7500 0.6269(3) 1.0000
O1 O 0.5718(3) 0.7628(6) 0.7659(3)
O2 O 0.4238(3) 0.6582(5) 0.6285(3)
C1 C 0.4624(4) 0.7420(7) 0.7200(4)
C2 C 0.3822(4) 0.8257(7) 0.7875(4)
N1 N 0.4384(3) 0.9005(6) 0.8876(3)
C3 C 0.1529(4) 0.7994(8) 0.6906(4)
C4 C 0.2617(4) 0.8539(7) 0.7789(4)
N2 N 0.3589(3) 0.9742(6) 0.9387(3)
N3 N 0.2519(3) 0.9479(6) 0.8727(3)
O3 O 0.0564(3) 0.8175(6) 0.7150(3)
O4 O 0.1679(3) 0.7361(7) 0.5979(3)
O5 O 0.4048(3) 0.2809(6) 0.5095(3)
H1 H 0.4545 0.3246 0.4730
H2 H 0.4415 0.2615 0.5790
O6 O 0.2732(4) 0.3542(7) 0.6869(3)
H3 H 0.3157 0.4260 0.7383
H4 H 0.2053 0.3383 0.7007
Cu1A Cu -0.11156(5) 0.90134(11) 0.08858(5)
O1A O -0.0718(3) 0.7628(6) 0.2341(3)
O2A O 0.0762(3) 0.6582(5) 0.3715(3)
C1A C 0.0376(4) 0.7420(7) 0.2800(4)
C2A C 0.1178(4) 0.8257(7) 0.2125(4)
N1A N 0.0616(3) 0.9005(6) 0.1124(3)
C3A C 0.3471(4) 0.7994(8) 0.3094(4)
C4A C 0.2383(4) 0.8539(7) 0.2211(4)
N2A N 0.1411(3) 0.9742(6) 0.0613(3)
N3A N 0.2481(3) 0.9479(6) 0.1273(3)
O3A O 0.4436(3) 0.8175(6) 0.2850(3)
O4A O 0.3321(3) 0.7361(7) 0.4021(3)
O5A O 0.0952(3) 0.2809(6) 0.4905(3)
H1A H 0.0455 0.3246 0.5270
H2A H 0.0585 0.2615 0.4210
O6A O 0.2268(4) 0.3542(7) 0.3131(3)
H3A H 0.1843 0.4260 0.2617
H4A H 0.2947 0.3383 0.2993
Cu1A_2 Cu 0.88844(5) 0.90134(11) 1.08858(5)
Cu1B Cu 0.38844(5) 1.09866(11) 0.08858(5)
Cu1B_2 Cu 0.38844(5) 1.09866(11) 1.08858(5)
Cu1C Cu 0.11156(5) 1.09866(11) -0.08858(5)
Cu1C_2 Cu 0.11156(5) 1.09866(11) 0.91142(5)
Cl1_2 Cl -0.2500 0.6269(3) 0.0000
N2B N 0.6411(3) 1.0258(6) 1.0613(3)
N2C N -0.1411(3) 1.0258(6) -0.0613(3)
N3B N -0.2519(3) 1.0521(6) 0.1273(3)
N3C N 0.7519(3) 1.0521(6) 0.8727(3)
O7 O 0.5267(6) 0.6064(11) 0.1259(5)
H5 H 0.4626 0.5898 0.0760
H6 H 0.5793 0.6522 0.0949
loop_
_geom_bond_atom_site_label_1
_geom_bond_atom_site_label_2
_geom_bond_site_symmetry_1
_geom_bond_site_symmetry_2
Gd1 O2 1_555 1_555
Cu1 Cl1 1_555 1_555
Cl1 Cu1A_2 1_555 1_555
O1 Cu1 1_555 1_555
O2 C1 1_555 1_555
C1 O1 1_555 1_555
C2 C1 1_555 1_555
N1 Cu1 1_555 1_555
C3 C4 1_555 1_555
C4 C2 1_555 1_555
N2 N1 1_555 1_555
N3 C4 1_555 1_555
O3 C3 1_555 1_555
O4 Gd1 1_555 1_555
O5 Gd1 1_555 1_555
H1 O5 1_555 1_555
H2 O5 1_555 1_555
O6 Gd1 1_555 1_555
H3 O6 1_555 1_555
H4 O6 1_555 1_555
O7 H5 1_555 1_555
H6 O7 1_555 1_555
Cu1A O1A 1_555 1_555
O1A C1A 1_555 1_555
O2A Gd1 1_555 1_555
C1A O2A 1_555 1_555
C2A C1A 1_555 1_555
N1A Cu1A 1_555 1_555
C3A C4A 1_555 1_555
C4A C2A 1_555 1_555
N2A N1A 1_555 1_555
N3A C4A 1_555 1_555
O3A C3A 1_555 1_555
O4A Gd1 1_555 1_555
O5A Gd1 1_555 1_555
H1A O5A 1_555 1_555
H2A O5A 1_555 1_555
O6A Gd1 1_555 1_555
H3A O6A 1_555 1_555
H4A O6A 1_555 1_555
Cu1B N3A 1_555 1_555
Cu1B_2 N2 1_555 1_555
Cu1C N2A 1_555 1_555
Cu1C_2 N3 1_555 1_555
Cl1_2 Cu1A 1_555 1_555
N2B Cu1 1_555 1_555
N2C Cu1A 1_555 1_555
N3B Cu1A 1_555 1_555
N3C Cu1 1_555 1_555
C2 N1 1_555 1_555
C3 O4 1_555 1_555
N2 N3 1_555 1_555
C2A N1A 1_555 1_555
C3A O4A 1_555 1_555
N2A N3A 1_555 1_555

#END
