
#######################################################################
#
#                 Cambridge Crystallographic Data Centre
#                                CCDC 
#
#######################################################################
#
# If this CIF has been generated from an entry in the Cambridge 
# Structural Database, then it will include bibliographic, chemical, 
# crystal, experimental, refinement or atomic coordinate data resulting 
# from the CCDC's data processing and validation procedures.
#
#######################################################################

data_NIHGER02
_symmetry_cell_setting           monoclinic
_symmetry_space_group_name_H-M   'P 21'
_symmetry_Int_Tables_number      4
_space_group_name_Hall           'P 2yb'
loop_
_symmetry_equiv_pos_site_id
_symmetry_equiv_pos_as_xyz
1 x,y,z
2 -x,1/2+y,-z
_cell_length_a                   13.2420(6)
_cell_length_b                   12.5161(7)
_cell_length_c                   14.2033(7)
_cell_angle_alpha                90.00
_cell_angle_beta                 90.00(2)
_cell_angle_gamma                90.00
_cell_volume                     2354.03
loop_
_atom_site_label
_atom_site_type_symbol
_atom_site_fract_x
_atom_site_fract_y
_atom_site_fract_z
Cd1 Cd 0.42440(4) 1.19678(5) 1.37878(4)
Cd2 Cd 0.91493(4) 1.71522(5) 1.12750(4)
O1 O 0.5100(5) 1.2150(7) 1.2318(4)
O2 O 0.2533(4) 1.1652(6) 1.3634(4)
O3 O 0.8414(5) 1.5495(6) 1.0979(6)
O4 O 0.7420(4) 1.6803(7) 1.1360(5)
O5 O 0.0052(4) 0.7245(6) 1.2715(4)
O6 O -0.0601(5) 0.8682(5) 1.2122(5)
O7 O 0.4571(6) 1.3547(6) 1.3044(6)
O8 O 0.3436(5) 1.0348(5) 1.4169(6)
N1 N 0.4049(6) 1.2790(6) 1.5242(5)
N2 N 0.8915(6) 0.8025(6) 1.9845(5)
N3 N 0.0619(5) 1.6543(5) 2.0581(5)
N4 N 0.5712(6) 1.1289(7) 1.4389(6)
C1 C 0.6732(8) 1.4632(10) 1.2703(7)
H1 H 0.6325 1.5222 1.2909
H2 H 0.7431 1.4836 1.2712
H3 H 0.6631 1.4035 1.3117
C2 C 0.3251(7) 1.2728(7) 1.5819(8)
H4 H 0.2680 1.2382 1.5593
C3 C 0.5022(7) 1.3143(10) 1.2394(8)
C4 C 0.7558(8) 1.5846(10) 1.1138(7)
C5 C 0.9683(8) 0.8592(9) 1.9509(9)
H5 H 1.0209 0.8759 1.9916
C6 C 0.8166(7) 0.7803(7) 1.9263(8)
H6 H 0.7621 0.7415 1.9493
C7 C 0.0360(6) 0.8888(7) 1.3518(6)
H7 H -0.0210 0.9268 1.3802
C8 C 0.1619(7) 1.0093(7) 1.4112(8)
C9 C 0.6458(10) 1.4347(12) 1.1794(9)
C10 C 0.1789(8) 0.9462(11) 1.2452(8)
H8 H 0.2191 0.8852 1.2617
H9 H 0.2224 1.0057 1.2317
H10 H 0.1390 0.9300 1.1907
C11 C 0.1110(10) 0.9740(12) 1.3255(8)
C12 C 0.6630(7) 1.5123(9) 1.0990(7)
C13 C 0.1398(9) 1.5654(8) 1.9278(7)
H11 H 0.1304 1.5330 1.8696
C14 C 0.1548(7) 1.6585(7) 2.0984(6)
H12 H 0.1616 1.6889 2.1578
C15 C 0.4850(8) 1.3736(9) 1.6489(9)
H13 H 0.5422 1.4094 1.6700
C16 C 0.9744(8) 0.8940(9) 1.8612(10)
H14 H 1.0285 0.9361 1.8420
C17 C 0.2591(7) 1.0713(9) 1.3956(7)
C18 C 0.1873(13) 0.9009(16) 1.4565(13)
H15 H 0.1970 0.9079 1.5239
H16 H 0.2476 0.8700 1.4288
C19 C 0.4068(8) 1.4104(10) 1.7995(8)
H17 H 0.4628 1.4604 1.8016
H18 H 0.4222 1.3536 1.8436
C20 C -0.0086(7) 0.8226(9) 1.2750(7)
C21 C 0.5446(7) 1.3832(9) 1.1605(7)
H19 H 0.5452 1.3443 1.1006
C22 C 0.4048(8) 1.3643(7) 1.7070(8)
C23 C 0.0602(7) 1.6085(9) 1.9755(7)
H20 H -0.0023 1.6049 1.9458
C24 C 0.2339(7) 1.5706(7) 1.9674(7)
C25 C 0.2381(7) 1.6196(8) 2.0542(7)
H21 H 0.3004 1.6262 2.0838
C26 C 0.4847(9) 1.3317(10) 1.5593(9)
H22 H 0.5417 1.3402 1.5218
C27 C 0.5653(8) 1.0776(11) 1.5201(10)
H23 H 0.5014 1.0695 1.5464
C28 C 0.4846(11) 1.486(2) 1.1521(18)
H24 H 0.4531 1.5033 1.2119
H25 H 0.4320 1.4785 1.1052
C29 C 0.7390(8) 1.0495(9) 1.5341(11)
C30 C 0.9003(11) 0.8669(9) 1.7988(10)
C31 C 0.6441(9) 1.0360(10) 1.5681(8)
H26 H 0.6335 0.9986 1.6238
C32 C 0.7450(8) 1.1054(10) 1.4482(9)
H27 H 0.8078 1.1164 1.4205
C33 C 0.8150(9) 0.8108(9) 1.8355(8)
H28 H 0.7596 0.7957 1.7974
C34 C 0.6623(8) 1.1429(7) 1.4059(7)
H29 H 0.6700 1.1809 1.3501
C35 C 0.0439(12) 1.0754(12) 1.2914(13)
H30 H -0.0013 1.0961 1.3410
H31 H 0.0055 1.0560 1.2366
H32 H 0.0877 1.1340 1.2763
C36 C 0.9091(13) 0.8956(14) 1.6947(13)
H33 H 0.9694 0.9380 1.6842
H34 H 0.9140 0.8311 1.6572
C37 C 0.8308(11) 1.0044(13) 1.5804(13)
H35 H 0.8599 0.9514 1.5386
H36 H 0.8799 1.0614 1.5872
C38 C 0.6713(12) 1.4721(14) 1.0028(10)
H37 H 0.7332 1.4329 0.9961
H38 H 0.6709 1.5310 0.9595
H39 H 0.6152 1.4258 0.9895
C39 C 0.0848(13) 0.8272(11) 1.4318(10)
H40 H 0.1034 0.7557 1.4122
H41 H 0.0401 0.8227 1.4858
C40 C 0.5567(10) 1.5763(14) 1.1236(14)
H42 H 0.5664 1.6265 1.1748
H43 H 0.5316 1.6144 1.0689
C41 C 0.1018(10) 1.0734(14) 1.4783(12)
H44 H 0.0839 1.1403 1.4497
H45 H 0.1409 1.0864 1.5340
H46 H 0.0415 1.0351 1.4947
C42 C 0.7166(12) 1.3298(12) 1.1432(14)
H47 H 0.7128 1.2736 1.1890
H48 H 0.7855 1.3521 1.1361
H49 H 0.6915 1.3043 1.0839
C43 C 0.8172(10) 0.9580(18) 1.6666(10)
H50 H 0.7592 0.9108 1.6644
H51 H 0.8040 1.0129 1.7132
C44 C 0.3151(9) 1.4673(10) 1.8350(8)
H52 H 0.2945 1.5192 1.7880
H53 H 0.2609 1.4158 1.8413
C45 C 0.3268(9) 1.5220(10) 1.9239(8)
H54 H 0.3761 1.5785 1.9152
H55 H 0.3551 1.4717 1.9687
C46 C 0.3206(8) 1.3131(8) 1.6712(8)
H56 H 0.2623 1.3062 1.7071
Cd2_2 Cd -0.08507(4) 0.71522(5) 1.12750(4)
Cd2_3 Cd 0.91493(4) 0.71522(5) 2.12750(4)
Cd2_4 Cd -0.08507(4) 1.71522(5) 2.12750(4)
O5_2 O 1.0052(4) 1.7245(6) 1.2715(4)
O6_2 O 0.9399(5) 1.8682(5) 1.2122(5)
N2_2 N 0.8915(6) 1.8025(6) 0.9845(5)
N3_2 N 1.0619(5) 1.6543(5) 1.0581(5)
loop_
_geom_bond_atom_site_label_1
_geom_bond_atom_site_label_2
_geom_bond_site_symmetry_1
_geom_bond_site_symmetry_2
Cd1 O1 1_555 1_555
Cd2 O3 1_555 1_555
O1 C3 1_555 1_555
O2 Cd1 1_555 1_555
O3 C4 1_555 1_555
O4 Cd2 1_555 1_555
O5 C20 1_555 1_555
O6 C20 1_555 1_555
O7 Cd1 1_555 1_555
O8 Cd1 1_555 1_555
N1 Cd1 1_555 1_555
N2 C5 1_555 1_555
N3 C14 1_555 1_555
N4 Cd1 1_555 1_555
C1 H1 1_555 1_555
H2 C1 1_555 1_555
H3 C1 1_555 1_555
C2 N1 1_555 1_555
H4 C2 1_555 1_555
C3 O7 1_555 1_555
C4 O4 1_555 1_555
C5 H5 1_555 1_555
C6 N2 1_555 1_555
H6 C6 1_555 1_555
C7 H7 1_555 1_555
C8 C11 1_555 1_555
C9 C1 1_555 1_555
C10 H8 1_555 1_555
H9 C10 1_555 1_555
H10 C10 1_555 1_555
C11 C7 1_555 1_555
C12 C4 1_555 1_555
C13 H11 1_555 1_555
C14 H12 1_555 1_555
C15 H13 1_555 1_555
C16 C5 1_555 1_555
H14 C16 1_555 1_555
C17 O2 1_555 1_555
C18 C8 1_555 1_555
H15 C18 1_555 1_555
H16 C18 1_555 1_555
C19 H17 1_555 1_555
H18 C19 1_555 1_555
C20 C7 1_555 1_555
C21 C3 1_555 1_555
H19 C21 1_555 1_555
C22 C15 1_555 1_555
C23 N3 1_555 1_555
H20 C23 1_555 1_555
C24 C13 1_555 1_555
C25 C14 1_555 1_555
H21 C25 1_555 1_555
C26 N1 1_555 1_555
H22 C26 1_555 1_555
C27 N4 1_555 1_555
H23 C27 1_555 1_555
C28 C21 1_555 1_555
H24 C28 1_555 1_555
H25 C28 1_555 1_555
C29 C31 1_555 1_555
C30 C16 1_555 1_555
C31 C27 1_555 1_555
H26 C31 1_555 1_555
C32 C29 1_555 1_555
H27 C32 1_555 1_555
C33 C6 1_555 1_555
H28 C33 1_555 1_555
C34 N4 1_555 1_555
H29 C34 1_555 1_555
C35 C11 1_555 1_555
H30 C35 1_555 1_555
H31 C35 1_555 1_555
H32 C35 1_555 1_555
C36 C30 1_555 1_555
H33 C36 1_555 1_555
H34 C36 1_555 1_555
C37 C29 1_555 1_555
H35 C37 1_555 1_555
H36 C37 1_555 1_555
C38 C12 1_555 1_555
H37 C38 1_555 1_555
H38 C38 1_555 1_555
H39 C38 1_555 1_555
C39 C7 1_555 1_555
H40 C39 1_555 1_555
H41 C39 1_555 1_555
C40 C12 1_555 1_555
H42 C40 1_555 1_555
H43 C40 1_555 1_555
C41 C8 1_555 1_555
H44 C41 1_555 1_555
H45 C41 1_555 1_555
H46 C41 1_555 1_555
C42 C9 1_555 1_555
H47 C42 1_555 1_555
H48 C42 1_555 1_555
H49 C42 1_555 1_555
C43 C36 1_555 1_555
H50 C43 1_555 1_555
H51 C43 1_555 1_555
C44 C19 1_555 1_555
H52 C44 1_555 1_555
H53 C44 1_555 1_555
C45 C24 1_555 1_555
H54 C45 1_555 1_555
H55 C45 1_555 1_555
C46 C2 1_555 1_555
H56 C46 1_555 1_555
Cd2_2 O5 1_555 1_555
Cd2_3 N2 1_555 1_555
Cd2_4 N3 1_555 1_555
O5_2 Cd2 1_555 1_555
O6_2 Cd2 1_555 1_555
N2_2 Cd2 1_555 1_555
N3_2 Cd2 1_555 1_555
O6 Cd2_2 1_555 1_555
O8 C17 1_555 1_555
C8 C17 1_555 1_555
C9 C12 1_555 1_555
C9 C21 1_555 1_555
C10 C11 1_555 1_555
C13 C23 1_555 1_555
C15 C26 1_555 1_555
C18 C39 1_555 1_555
C19 C22 1_555 1_555
C22 C46 1_555 1_555
C24 C25 1_555 1_555
C28 C40 1_555 1_555
C30 C33 1_555 1_555
C32 C34 1_555 1_555
C37 C43 1_555 1_555
C44 C45 1_555 1_555

#END
