
#######################################################################
#
#                 Cambridge Crystallographic Data Centre
#                                CCDC 
#
#######################################################################
#
# If this CIF has been generated from an entry in the Cambridge 
# Structural Database, then it will include bibliographic, chemical, 
# crystal, experimental, refinement or atomic coordinate data resulting 
# from the CCDC's data processing and validation procedures.
#
#######################################################################

data_NIHGER
_symmetry_cell_setting           orthorhombic
_symmetry_space_group_name_H-M   'P 21 21 21'
_symmetry_Int_Tables_number      19
_space_group_name_Hall           'P 2ac 2ab'
loop_
_symmetry_equiv_pos_site_id
_symmetry_equiv_pos_as_xyz
1 x,y,z
2 1/2-x,-y,1/2+z
3 -x,1/2+y,1/2-z
4 1/2+x,1/2-y,-z
_cell_length_a                   9.7425(10)
_cell_length_b                   14.8831(18)
_cell_length_c                   16.2144(19)
_cell_angle_alpha                90
_cell_angle_beta                 90
_cell_angle_gamma                90
_cell_volume                     2351.07
loop_
_atom_site_label
_atom_site_type_symbol
_atom_site_fract_x
_atom_site_fract_y
_atom_site_fract_z
Cd1 Cd 1.00036(9) 1.00058(7) 0.79980(6)
O1 O 0.9581(12) 1.1213(6) 0.6871(7)
O2 O 0.8180(10) 1.0428(8) 0.7577(7)
C1 C 1.1550(10) 0.9454(6) 0.6490(8)
H1 H 1.1743 1.0066 0.6476
C2 C 1.1871(9) 0.8032(6) 0.5884(5)
C3 C 0.6793(15) 1.0506(9) 0.5863(8)
C4 C 0.8430(17) 1.0963(10) 0.7008(9)
C5 C 1.7206(10) 0.5162(8) 0.6357(7)
H2 H 1.7458 0.4606 0.6143
C6 C 0.7187(12) 1.1212(8) 0.6523(7)
H3 H 0.6424 1.1229 0.6917
C7 C 0.5504(13) 1.0509(11) 0.4445(8)
N1 N 1.0749(8) 0.9179(5) 0.7083(5)
O3 O 0.5399(18) 0.9705(10) 0.4411(8)
C8 C 1.2143(10) 0.8934(6) 0.5882(6)
H4 H 1.2709 0.9189 0.5484
C9 C 1.0483(11) 0.8282(6) 0.7081(7)
H5 H 0.9908 0.8045 0.7483
C10 C 1.2521(9) 0.7381(7) 0.5269(6)
H6 H 1.1974 0.6837 0.5243
H7 H 1.2523 0.7651 0.4725
C11 C 0.8054(13) 1.0181(13) 0.5413(9)
H8 H 0.7799 0.9717 0.5031
H9 H 0.8702 0.9946 0.5803
H10 H 0.8461 1.0672 0.5118
C12 C 1.3981(9) 0.7142(7) 0.5511(6)
H11 H 1.4376 0.6759 0.5089
H12 H 1.4525 0.7687 0.5538
C13 C 1.7747(10) 0.6406(7) 0.7108(7)
H13 H 1.8383 0.6708 0.7434
C14 C 1.1056(10) 0.7703(6) 0.6485(7)
H14 H 1.0872 0.7090 0.6507
C15 C 1.4052(10) 0.6665(8) 0.6331(7)
H15 H 1.3409 0.6168 0.6332
H16 H 1.3787 0.7077 0.6766
C16 C 0.603(2) 0.9661(13) 0.6251(12)
H17 H 0.5835 0.9233 0.5824
H18 H 0.5189 0.9852 0.6503
H19 H 0.6610 0.9388 0.6659
N2 N 1.8123(8) 0.5631(5) 0.6810(5)
C17 C 0.7234(18) 1.2116(8) 0.6128(9)
H20 H 0.8172 1.2321 0.6055
H21 H 0.6731 1.2557 0.6449
C18 C 0.5849(10) 1.1024(8) 0.5270(7)
O4 O 0.5401(12) 1.0893(10) 0.3883(8)
C19 C 0.654(2) 1.1941(11) 0.5306(11)
H22 H 0.7226 1.1978 0.4871
H23 H 0.5864 1.2405 0.5206
C20 C 1.6438(12) 0.6842(7) 0.6982(7)
H24 H 1.6223 0.7408 0.7189
C21 C 1.5502(10) 0.6310(9) 0.6502(7)
C22 C 0.4461(14) 1.1227(14) 0.5677(9)
H25 H 0.4605 1.1576 0.6167
H26 H 0.4014 1.0673 0.5818
H27 H 0.3895 1.1558 0.5300
C23 C 1.5893(11) 0.5491(8) 0.6203(7)
H28 H 1.5278 0.5151 0.5894
Cd1A Cd 0.49964(9) 0.99942(7) 0.29980(6)
Cd1B Cd 1.99964(9) 0.50058(7) 0.70020(6)
O3A O 0.9601(18) 1.0295(10) 0.9411(8)
N2B N 1.1877(8) 1.0631(5) 0.8190(5)
O4A O 0.9599(12) 0.9107(10) 0.8883(8)
loop_
_geom_bond_atom_site_label_1
_geom_bond_atom_site_label_2
_geom_bond_site_symmetry_1
_geom_bond_site_symmetry_2
Cd1 O1 1_555 1_555
O1 C4 1_555 1_555
O2 Cd1 1_555 1_555
C1 H1 1_555 1_555
C2 C8 1_555 1_555
C3 C6 1_555 1_555
C4 O2 1_555 1_555
C5 H2 1_555 1_555
C6 C4 1_555 1_555
H3 C6 1_555 1_555
C7 O3 1_555 1_555
N1 Cd1 1_555 1_555
O3 Cd1A 1_555 1_555
C8 C1 1_555 1_555
H4 C8 1_555 1_555
C9 N1 1_555 1_555
H5 C9 1_555 1_555
C10 C2 1_555 1_555
H6 C10 1_555 1_555
H7 C10 1_555 1_555
C11 C3 1_555 1_555
H8 C11 1_555 1_555
H9 C11 1_555 1_555
H10 C11 1_555 1_555
C12 C10 1_555 1_555
H11 C12 1_555 1_555
H12 C12 1_555 1_555
C13 H13 1_555 1_555
C14 C2 1_555 1_555
H14 C14 1_555 1_555
C15 C12 1_555 1_555
H15 C15 1_555 1_555
H16 C15 1_555 1_555
C16 C3 1_555 1_555
H17 C16 1_555 1_555
H18 C16 1_555 1_555
H19 C16 1_555 1_555
N2 C5 1_555 1_555
C17 C6 1_555 1_555
H20 C17 1_555 1_555
H21 C17 1_555 1_555
C18 C3 1_555 1_555
O4 C7 1_555 1_555
C19 C17 1_555 1_555
H22 C19 1_555 1_555
H23 C19 1_555 1_555
C20 C13 1_555 1_555
H24 C20 1_555 1_555
C21 C15 1_555 1_555
C22 C18 1_555 1_555
H25 C22 1_555 1_555
H26 C22 1_555 1_555
H27 C22 1_555 1_555
C23 C5 1_555 1_555
H28 C23 1_555 1_555
Cd1A O4 1_555 1_555
Cd1B N2 1_555 1_555
O3A Cd1 1_555 1_555
N2B Cd1 1_555 1_555
O4A Cd1 1_555 1_555
C1 N1 1_555 1_555
C7 C18 1_555 1_555
C9 C14 1_555 1_555
C13 N2 1_555 1_555
C18 C19 1_555 1_555
C20 C21 1_555 1_555
C21 C23 1_555 1_555

#END
