
#######################################################################
#
#                 Cambridge Crystallographic Data Centre
#                                CCDC 
#
#######################################################################
#
# If this CIF has been generated from an entry in the Cambridge 
# Structural Database, then it will include bibliographic, chemical, 
# crystal, experimental, refinement or atomic coordinate data resulting 
# from the CCDC's data processing and validation procedures.
#
#######################################################################

data_NIHGER01
_symmetry_cell_setting           orthorhombic
_symmetry_space_group_name_H-M   'P 21 21 21'
_symmetry_Int_Tables_number      19
_space_group_name_Hall           'P 2ac 2ab'
loop_
_symmetry_equiv_pos_site_id
_symmetry_equiv_pos_as_xyz
1 x,y,z
2 1/2-x,-y,1/2+z
3 -x,1/2+y,1/2-z
4 1/2+x,1/2-y,-z
_cell_length_a                   11.004(3)
_cell_length_b                   13.376(3)
_cell_length_c                   15.390(4)
_cell_angle_alpha                90
_cell_angle_beta                 90
_cell_angle_gamma                90
_cell_volume                     2265.25
loop_
_atom_site_label
_atom_site_type_symbol
_atom_site_fract_x
_atom_site_fract_y
_atom_site_fract_z
Cd1 Cd 0.987953(15) 0.537295(13) 0.257661(11)
O1 O 0.9200(2) 0.64959(18) 0.1498(2)
O2 O 0.5113(2) 0.47497(16) -0.08744(13)
O3 O 0.5652(3) 0.60275(17) -0.16534(14)
C1 C 0.5081(3) 0.5969(2) 0.06914(18)
H1 H 0.4278 0.6268 0.0677
H2 H 0.4997 0.5250 0.0750
C2 C 1.7421(2) 0.8260(2) 0.43868(17)
C3 C 0.8125(3) 0.6274(2) 0.1667(2)
O4 O 0.7891(2) 0.5739(3) 0.23038(18)
N1 N 1.17325(19) 0.61803(18) 0.27471(15)
C4 C 0.7153(2) 0.6143(2) 0.01640(18)
C5 C 0.7508(3) 0.5042(3) 0.0253(3)
H3 H 0.8340 0.4995 0.0434
H4 H 0.7410 0.4714 -0.0298
H5 H 0.6996 0.4727 0.0677
C6 C 0.5496(2) 0.5627(2) -0.09305(18)
C7 C 1.7593(3) 0.9275(2) 0.45094(19)
H6 H 1.7141 0.9615 0.4926
C8 C 0.5796(2) 0.6233(2) -0.01276(18)
H7 H 0.5637 0.6937 -0.0262
C9 C 1.3847(3) 0.7095(2) 0.3335(2)
C10 C 1.8940(3) 0.8377(2) 0.3273(2)
H8 H 1.9394 0.8063 0.2843
C11 C 1.2597(3) 0.5648(2) 0.3138(2)
H9 H 1.2478 0.4966 0.3217
C12 C 1.6526(3) 0.7678(3) 0.4913(2)
H10 H 1.6116 0.8132 0.5307
H11 H 1.6965 0.7195 0.5263
C13 C 1.3662(3) 0.6073(3) 0.3430(2)
H12 H 1.4255 0.5678 0.3690
C14 C 1.4916(4) 0.7635(4) 0.3743(3)
H13 H 1.5474 0.7814 0.3281
H14 H 1.4615 0.8254 0.3992
C15 C 1.8430(3) 0.9779(2) 0.4017(2)
H15 H 1.8541 1.0458 0.4122
C16 C 1.8139(3) 0.7812(2) 0.3752(2)
H16 H 1.8077 0.7128 0.3651
C17 C 1.2977(3) 0.7620(3) 0.2898(2)
H17 H 1.3083 0.8300 0.2798
C18 C 1.1943(3) 0.7148(2) 0.2605(2)
H18 H 1.1371 0.7518 0.2298
N2 N 1.9094(2) 0.93518(18) 0.33966(16)
C19 C 0.7102(3) 0.6668(2) 0.10831(19)
C20 C 0.5831(3) 0.6398(3) 0.1433(2)
H19 H 0.5901 0.5910 0.1896
H20 H 0.5438 0.6990 0.1664
C21 C 1.5588(4) 0.7134(4) 0.4392(3)
H21 H 1.5991 0.6574 0.4115
H22 H 1.5007 0.6856 0.4800
C22 C 0.7226(4) 0.7806(2) 0.1035(3)
H23 H 0.7182 0.8082 0.1610
H24 H 0.6579 0.8075 0.0687
H25 H 0.7993 0.7976 0.0777
C23 C 0.8018(4) 0.6637(4) -0.0473(3)
H26 H 0.8838 0.6562 -0.0269
H27 H 0.7826 0.7335 -0.0519
H28 H 0.7938 0.6327 -0.1032
Cd1A Cd 0.512047(15) 0.462705(13) -0.242339(11)
Cd1B Cd 2.012047(15) 1.037295(13) 0.242339(11)
O2A O 0.9887(2) 0.52503(16) 0.41256(13)
O3A O 0.9348(3) 0.39725(17) 0.33466(14)
N2B N 1.0906(2) 0.43518(18) 0.16034(16)
loop_
_geom_bond_atom_site_label_1
_geom_bond_atom_site_label_2
_geom_bond_site_symmetry_1
_geom_bond_site_symmetry_2
Cd1 O1 1_555 1_555
O1 C3 1_555 1_555
O2 C6 1_555 1_555
O3 C6 1_555 1_555
C1 H1 1_555 1_555
H2 C1 1_555 1_555
C2 C7 1_555 1_555
C3 O4 1_555 1_555
O4 Cd1 1_555 1_555
N1 Cd1 1_555 1_555
C4 C5 1_555 1_555
C5 H3 1_555 1_555
H4 C5 1_555 1_555
H5 C5 1_555 1_555
C6 C8 1_555 1_555
C7 H6 1_555 1_555
C8 C1 1_555 1_555
H7 C8 1_555 1_555
C9 C13 1_555 1_555
C10 H8 1_555 1_555
C11 N1 1_555 1_555
H9 C11 1_555 1_555
C12 C2 1_555 1_555
H10 C12 1_555 1_555
H11 C12 1_555 1_555
C13 C11 1_555 1_555
H12 C13 1_555 1_555
C14 C9 1_555 1_555
H13 C14 1_555 1_555
H14 C14 1_555 1_555
C15 C7 1_555 1_555
H15 C15 1_555 1_555
C16 C2 1_555 1_555
H16 C16 1_555 1_555
C17 C9 1_555 1_555
H17 C17 1_555 1_555
C18 N1 1_555 1_555
H18 C18 1_555 1_555
N2 C10 1_555 1_555
C19 C3 1_555 1_555
C20 C1 1_555 1_555
H19 C20 1_555 1_555
H20 C20 1_555 1_555
C21 C12 1_555 1_555
H21 C21 1_555 1_555
H22 C21 1_555 1_555
C22 C19 1_555 1_555
H23 C22 1_555 1_555
H24 C22 1_555 1_555
H25 C22 1_555 1_555
C23 C4 1_555 1_555
H26 C23 1_555 1_555
H27 C23 1_555 1_555
H28 C23 1_555 1_555
Cd1A O2 1_555 1_555
Cd1B N2 1_555 1_555
O2A Cd1 1_555 1_555
O3A Cd1 1_555 1_555
N2B Cd1 1_555 1_555
O3 Cd1A 1_555 1_555
C4 C8 1_555 1_555
C4 C19 1_555 1_555
C10 C16 1_555 1_555
C14 C21 1_555 1_555
C15 N2 1_555 1_555
C17 C18 1_555 1_555
C19 C20 1_555 1_555

#END
