
#######################################################################
#
#                 Cambridge Crystallographic Data Centre
#                                CCDC 
#
#######################################################################
#
# If this CIF has been generated from an entry in the Cambridge 
# Structural Database, then it will include bibliographic, chemical, 
# crystal, experimental, refinement or atomic coordinate data resulting 
# from the CCDC's data processing and validation procedures.
#
#######################################################################

data_NIHMUO
_symmetry_cell_setting           monoclinic
_symmetry_space_group_name_H-M   'C 2'
_symmetry_Int_Tables_number      5
_space_group_name_Hall           'C 2y'
loop_
_symmetry_equiv_pos_site_id
_symmetry_equiv_pos_as_xyz
1 x,y,z
2 -x,y,-z
3 1/2+x,1/2+y,z
4 1/2-x,1/2+y,-z
_cell_length_a                   15.9945(7)
_cell_length_b                   6.7767(3)
_cell_length_c                   9.5020(4)
_cell_angle_alpha                90
_cell_angle_beta                 104.795(2)
_cell_angle_gamma                90
_cell_volume                     995.775
loop_
_atom_site_label
_atom_site_type_symbol
_atom_site_fract_x
_atom_site_fract_y
_atom_site_fract_z
Pb1 Pb 0.0000 0.2374 0.5000
O1 O 0.0598(5) -0.5374(12) -0.3142(10)
O2 O 0.1223(7) -0.4909(13) -0.4902(9)
N1 N 0.0774(5) 0.1497(12) 0.2823(9)
C1 C 0.1082(6) -0.4371(15) -0.3746(12)
C2 C 0.1433(5) -0.250(4) -0.3032(8)
C3 C 0.1938(6) -0.1221(15) -0.3646(10)
H1 H 0.2091 -0.1593 -0.4488
C4 C 0.2204(6) 0.0561(15) -0.3016(10)
H2 H 0.2534 0.1392 -0.3439
C5 C 0.1986(6) 0.1155(14) -0.1742(10)
H3 H 0.2166 0.2377 -0.1328
C6 C 0.1495(5) -0.0107(13) -0.1094(9)
C7 C 0.1232(5) -0.1901(13) -0.1747(10)
H4 H 0.0910 -0.2743 -0.1318
C8 C 0.1249(5) 0.0463(13) 0.0260(9)
C9 C 0.1149(5) 0.239(4) 0.0627(8)
H5 H 0.1241 0.3401 0.0023
C10 C 0.0909(7) 0.2842(14) 0.1897(13)
H6 H 0.0840 0.4163 0.2107
C11 C 0.0876(6) -0.0373(15) 0.2471(10)
H7 H 0.0787 -0.1351 0.3104
C12 C 0.1108(6) -0.0959(14) 0.1225(9)
H8 H 0.1168 -0.2291 0.1037
O1A O -0.0598(5) -0.5374(12) 1.3142(10)
O2A O -0.1223(7) -0.4909(13) 1.4902(9)
N1A N -0.0774(5) 0.1497(12) 0.7177(9)
C1A C -0.1082(6) -0.4371(15) 1.3746(12)
C2A C -0.1433(5) -0.250(4) 1.3032(8)
C3A C -0.1938(6) -0.1221(15) 1.3646(10)
H1A H -0.2091 -0.1593 1.4488
C4A C -0.2204(6) 0.0561(15) 1.3016(10)
H2A H -0.2534 0.1392 1.3439
C5A C -0.1986(6) 0.1155(14) 1.1742(10)
H3A H -0.2166 0.2377 1.1328
C6A C -0.1495(5) -0.0107(13) 1.1094(9)
C7A C -0.1232(5) -0.1901(13) 1.1747(10)
H4A H -0.0910 -0.2743 1.1318
C8A C -0.1249(5) 0.0463(13) 0.9740(9)
C9A C -0.1149(5) 0.239(4) 0.9373(8)
H5A H -0.1241 0.3401 0.9977
C10A C -0.0909(7) 0.2842(14) 0.8103(13)
H6A H -0.0840 0.4163 0.7893
C11A C -0.0876(6) -0.0373(15) 0.7529(10)
H7A H -0.0787 -0.1351 0.6896
C12A C -0.1108(6) -0.0959(14) 0.8775(9)
H8A H -0.1168 -0.2291 0.8963
Pb1_2 Pb 0.0000 -0.7626 -0.5000
Pb1_3 Pb 0.0000 -0.7626 1.5000
O1_2 O 0.0598(5) 0.4626(12) 0.6858(10)
O1A_2 O -0.0598(5) 0.4626(12) 0.3142(10)
O2_2 O 0.1223(7) 0.5091(13) 0.5098(9)
O2A_2 O -0.1223(7) 0.5091(13) 0.4902(9)
loop_
_geom_bond_atom_site_label_1
_geom_bond_atom_site_label_2
_geom_bond_site_symmetry_1
_geom_bond_site_symmetry_2
Pb1 N1 1_555 1_555
O1 C1 1_555 1_555
O2 C1 1_555 1_555
N1 C10 1_555 1_555
C1 C2 1_555 1_555
C2 C3 1_555 1_555
C3 H1 1_555 1_555
C4 C3 1_555 1_555
H2 C4 1_555 1_555
C5 C4 1_555 1_555
H3 C5 1_555 1_555
C6 C5 1_555 1_555
C7 C2 1_555 1_555
H4 C7 1_555 1_555
C8 C6 1_555 1_555
C9 C8 1_555 1_555
H5 C9 1_555 1_555
C10 C9 1_555 1_555
H6 C10 1_555 1_555
C11 N1 1_555 1_555
H7 C11 1_555 1_555
C12 C8 1_555 1_555
H8 C12 1_555 1_555
O1A C1A 1_555 1_555
O2A C1A 1_555 1_555
N1A Pb1 1_555 1_555
C1A C2A 1_555 1_555
C2A C3A 1_555 1_555
C3A H1A 1_555 1_555
C4A C3A 1_555 1_555
H2A C4A 1_555 1_555
C5A C4A 1_555 1_555
H3A C5A 1_555 1_555
C6A C5A 1_555 1_555
C7A C2A 1_555 1_555
H4A C7A 1_555 1_555
C8A C6A 1_555 1_555
C9A C8A 1_555 1_555
H5A C9A 1_555 1_555
C10A N1A 1_555 1_555
H6A C10A 1_555 1_555
C11A N1A 1_555 1_555
H7A C11A 1_555 1_555
C12A C8A 1_555 1_555
H8A C12A 1_555 1_555
Pb1_2 O1 1_555 1_555
Pb1_3 O1A 1_555 1_555
O1_2 Pb1 1_555 1_555
O1A_2 Pb1 1_555 1_555
O2_2 Pb1 1_555 1_555
O2A_2 Pb1 1_555 1_555
O2 Pb1_2 1_555 1_555
C6 C7 1_555 1_555
C11 C12 1_555 1_555
O2A Pb1_3 1_555 1_555
C6A C7A 1_555 1_555
C9A C10A 1_555 1_555
C11A C12A 1_555 1_555

#END
