
#######################################################################
#
#                 Cambridge Crystallographic Data Centre
#                                CCDC 
#
#######################################################################
#
# If this CIF has been generated from an entry in the Cambridge 
# Structural Database, then it will include bibliographic, chemical, 
# crystal, experimental, refinement or atomic coordinate data resulting 
# from the CCDC's data processing and validation procedures.
#
#######################################################################

data_NIJTOR
_symmetry_cell_setting           triclinic
_symmetry_space_group_name_H-M   'P 1'
_symmetry_Int_Tables_number      1
_space_group_name_Hall           'P 1'
loop_
_symmetry_equiv_pos_site_id
_symmetry_equiv_pos_as_xyz
1 x,y,z
_cell_length_a                   11.196(3)
_cell_length_b                   13.020(3)
_cell_length_c                   16.520(4)
_cell_angle_alpha                84.072(3)
_cell_angle_beta                 85.182(3)
_cell_angle_gamma                79.138(3)
_cell_volume                     2347.22
loop_
_atom_site_label
_atom_site_type_symbol
_atom_site_fract_x
_atom_site_fract_y
_atom_site_fract_z
O18 O 1.1366(3) 0.9258(3) 0.8506(3)
O19 O 1.1487(3) 0.9003(3) 0.7186(2)
O20 O 0.6258(2) 0.88151(18) 0.96344(13)
O21 O 0.5363(2) 0.87506(17) 0.84715(13)
C91 C 1.0926(4) 0.9079(3) 0.7891(3)
C92 C 0.9587(3) 0.9004(2) 0.7955(2)
C93 C 0.8879(3) 0.9021(3) 0.7312(2)
H73 H 0.9174 0.9081 0.6769
C94 C 0.7661(3) 0.8940(3) 0.7557(2)
H74 H 0.7070 0.8932 0.7195
C95 C 0.7444(3) 0.8876(2) 0.83882(18)
C96 C 0.6262(3) 0.8810(2) 0.88749(19)
S4 S 0.87494(7) 0.89109(6) 0.88647(5)
Co1 Co 0.35783(3) 0.63629(3) -0.06508(2)
Co2 Co 0.44500(3) 0.71735(3) 0.13598(2)
Co3 Co 0.25004(3) 0.07919(3) 0.48157(2)
Co4 Co 0.34665(3) 0.14208(3) 0.67449(2)
N1 N 0.3764(2) 0.63543(19) -0.19299(15)
N2 N 0.4489(2) 0.65904(19) -0.31994(15)
N3 N 1.1232(2) 0.81907(19) -0.71417(15)
N4 N 1.2895(2) 0.79284(19) -0.79678(16)
N5 N 0.5720(2) 0.7816(2) 0.19150(15)
N6 N 0.7192(2) 0.86832(19) 0.20638(15)
N7 N 1.2981(2) 1.3249(2) -0.02564(16)
N8 N 1.3727(2) 1.47111(19) -0.04989(16)
N9 N 0.4874(2) 0.19854(19) 0.72628(15)
N10 N 0.6470(2) 0.27556(19) 0.72842(15)
N11 N 1.2084(2) 0.7612(2) 0.51440(15)
N12 N 1.2654(2) 0.9159(2) 0.48702(15)
N13 N 0.2016(2) 0.2280(2) 0.74123(15)
N14 N 0.0410(2) 0.26489(19) 0.82718(15)
N15 N -0.6419(2) 0.15572(19) 1.23344(15)
N16 N -0.7281(2) 0.1121(2) 1.35374(14)
O1 O 0.54333(19) 0.63048(17) -0.06555(13)
O2 O 0.58924(19) 0.63827(17) 0.06425(12)
O3 O 1.0937(2) 0.6683(2) 0.05514(14)
O4 O 1.1701(2) 0.64750(17) -0.07308(13)
O5 O 0.4608(2) 0.59328(17) 0.22875(13)
O6 O 0.3243(2) 0.50257(16) 0.19559(12)
O7 O 0.35091(19) 0.26890(16) 0.58360(12)
O8 O 0.21878(19) 0.24168(16) 0.49551(12)
O9 O 0.06174(19) 0.09562(17) 0.46904(13)
O10 O -0.0059(2) 0.10108(18) 0.60043(13)
O11 O -0.56251(19) 0.07628(16) 0.47777(12)
O12 O -0.51330(19) 0.05248(16) 0.60785(12)
O13 O 0.3335(2) 0.80373(16) -0.07986(13)
H1 H 0.389(2) 0.820(3) -0.1109(19)
H2 H 0.2735(19) 0.849(2) -0.090(2)
O14 O 0.4242(2) 0.85305(17) 0.05376(13)
H3 H 0.377(3) 0.840(3) 0.0214(16)
H4 H 0.477(2) 0.878(3) 0.0239(17)
O15 O 0.3515(2) 0.01227(19) 0.76539(14)
H5 H 0.291(2) -0.003(3) 0.793(2)
H6 H 0.409(2) -0.013(3) 0.794(2)
O16 O 0.32619(19) 0.64566(16) 0.06739(12)
H7 H 0.3280 0.5745 0.0921
H8 H 0.2437 0.6834 0.0771
O17 O 0.22296(19) 0.06572(15) 0.61805(12)
H9 H 0.1397 0.0970 0.6338
H10 H 0.2352 -0.0079 0.6381
C1 C 0.4540(3) 0.6796(2) -0.24204(18)
H11 H 0.5060 0.7200 -0.2253
C2 C 0.3163(3) 0.5843(3) -0.24236(19)
H12 H 0.2554 0.5461 -0.2242
C3 C 0.3602(3) 0.5987(3) -0.32098(19)
H13 H 0.3355 0.5731 -0.3662
C4 C 0.5310(3) 0.6877(2) -0.38664(19)
C5 C 0.5803(3) 0.6175(3) -0.44197(19)
H14 H 0.5520 0.5547 -0.4415
C6 C 0.6729(3) 0.6402(3) -0.49906(19)
H15 H 0.7054 0.5924 -0.5368
C7 C 0.7176(3) 0.7337(3) -0.50043(19)
C8 C 0.6601(4) 0.8056(3) -0.4468(2)
H16 H 0.6850 0.8701 -0.4484
C9 C 0.5662(3) 0.7839(3) -0.3908(2)
H17 H 0.5276 0.8341 -0.3565
C10 C 0.8240(3) 0.7548(2) -0.55630(19)
C11 C 0.8752(4) 0.6886(3) -0.6151(3)
H18 H 0.8440 0.6280 -0.6187
C12 C 0.9717(4) 0.7092(3) -0.6690(3)
H19 H 1.0024 0.6646 -0.7093
C13 C 1.0215(3) 0.7975(2) -0.66177(19)
C14 C 0.9723(3) 0.8654(3) -0.60328(19)
H20 H 1.0045 0.9252 -0.5984
C15 C 0.8741(3) 0.8425(3) -0.5523(2)
H21 H 0.8407 0.8886 -0.5136
C16 C 1.2009(3) 0.7506(3) -0.75792(19)
H22 H 1.1927 0.6813 -0.7604
C17 C 1.2680(3) 0.8958(2) -0.77649(19)
H23 H 1.3162 0.9455 -0.7946
C18 C 1.1663(3) 0.9122(2) -0.7265(2)
H24 H 1.1316 0.9747 -0.7044
C19 C 0.6151(3) 0.6313(2) -0.00979(18)
C20 C 0.7468(3) 0.6242(2) -0.03725(18)
C21 C 0.9658(3) 0.6327(2) -0.03966(18)
C22 C 1.0856(3) 0.6509(2) -0.01757(18)
C23 C 0.9293(3) 0.6235(2) -0.11509(17)
H25 H 0.9815 0.6205 -0.1620
C24 C 0.8034(3) 0.6189(2) -0.11442(18)
H26 H 0.7640 0.6130 -0.1606
C25 C 0.5720(3) 0.8007(3) 0.27207(18)
H27 H 0.5188 0.7791 0.3139
C26 C 0.6617(3) 0.8240(2) 0.15349(18)
H28 H 0.6829 0.8236 0.0979
C27 C 0.6609(3) 0.8553(2) 0.28147(18)
H29 H 0.6785 0.8792 0.3295
C28 C 0.8164(3) 0.9255(2) 0.18236(19)
C29 C 0.9087(3) 0.8869(2) 0.1258(2)
H30 H 0.9129 0.8206 0.1082
C30 C 0.9945(3) 0.9481(2) 0.09588(19)
H31 H 1.0555 0.9231 0.0573
C31 C 0.9900(3) 1.0471(3) 0.12315(19)
C32 C 0.9009(3) 1.0813(3) 0.1850(2)
H32 H 0.8999 1.1449 0.2063
C33 C 0.8154(3) 1.0205(2) 0.21408(19)
H33 H 0.7570 1.0432 0.2550
C34 C 1.0719(3) 1.1176(2) 0.08481(19)
C35 C 1.1881(3) 1.0801(2) 0.05170(19)
H34 H 1.2164 1.0080 0.0548
C36 C 1.2631(3) 1.1464(2) 0.01426(19)
H35 H 1.3405 1.1194 -0.0076
C37 C 1.2207(3) 1.2542(2) 0.00980(18)
C38 C 1.1030(3) 1.2954(2) 0.03869(18)
H36 H 1.0734 1.3673 0.0324
C39 C 1.0300(3) 1.2263(2) 0.07741(18)
H37 H 0.9521 1.2531 0.0987
C40 C 1.3917(3) 1.3084(2) -0.08557(18)
H38 H 1.4187 1.2472 -0.1113
C41 C 1.4363(3) 1.3980(3) -0.09958(18)
H39 H 1.5003 1.4089 -0.1371
C42 C 1.2908(3) 1.4249(2) -0.00542(18)
H40 H 1.2358 1.4562 0.0341
C43 C 0.3917(3) 0.5269(2) 0.24458(19)
C44 C 0.3921(3) 0.4727(2) 0.32869(18)
C45 C 0.4643(3) 0.4807(3) 0.3897(2)
H41 H 0.5220 0.5241 0.3848
C46 C 0.4414(3) 0.4157(2) 0.4608(2)
H42 H 0.4851 0.4092 0.5071
C47 C 0.3486(3) 0.3634(2) 0.45462(18)
C48 C 0.3024(3) 0.2850(2) 0.51604(17)
C49 C -0.0212(3) 0.1020(2) 0.52544(18)
C50 C -0.1483(3) 0.1068(2) 0.50239(18)
C51 C -0.1919(3) 0.1227(3) 0.4267(2)
H43 H -0.1451 0.1369 0.3790
C52 C -0.3177(3) 0.1151(3) 0.42885(19)
H44 H -0.3622 0.1250 0.3827
C53 C -0.3655(3) 0.0919(2) 0.50561(17)
C54 C -0.4906(3) 0.0723(2) 0.53248(17)
C55 C 0.5692(3) 0.1387(2) 0.77923(18)
H45 H 0.5576 0.0764 0.8091
C56 C 0.5384(3) 0.2793(2) 0.69754(17)
H46 H 0.5035 0.3327 0.6603
C57 C 0.6682(3) 0.1842(2) 0.78094(18)
H47 H 0.7361 0.1595 0.8109
C58 C 0.7323(3) 0.3442(2) 0.70371(18)
C59 C 0.8475(3) 0.3009(2) 0.67106(19)
H48 H 0.8695 0.2287 0.6687
C60 C 0.9293(3) 0.3665(2) 0.64205(19)
H49 H 1.0057 0.3380 0.6195
C61 C 0.8975(3) 0.4755(2) 0.64653(19)
C62 C 0.7830(3) 0.5160(2) 0.6824(2)
H50 H 0.7617 0.5877 0.6874
C63 C 0.7004(3) 0.4510(2) 0.71085(19)
H51 H 0.6244 0.4790 0.7344
C64 C 0.9829(3) 0.5471(2) 0.61304(19)
C65 C 1.0571(3) 0.5278(3) 0.5416(2)
H52 H 1.0564 0.4677 0.5158
C66 C 1.1318(3) 0.5978(2) 0.5091(2)
H53 H 1.1792 0.5854 0.4609
C67 C 1.1357(3) 0.6864(2) 0.54835(19)
C68 C 1.0667(3) 0.7040(2) 0.62078(19)
H54 H 1.0719 0.7613 0.6487
C69 C 0.9903(3) 0.6356(3) 0.65102(19)
H55 H 0.9418 0.6493 0.6986
C70 C 1.3108(3) 0.7474(3) 0.4597(2)
H56 H 1.3488 0.6852 0.4384
C71 C 1.3437(3) 0.8427(3) 0.4439(2)
H57 H 1.4095 0.8568 0.4091
C72 C 1.1861(3) 0.8632(2) 0.52855(18)
H58 H 1.1225 0.8932 0.5634
C73 C 0.1111(3) 0.1912(2) 0.78361(17)
H59 H 0.0974 0.1230 0.7834
C74 C 0.1894(3) 0.3305(2) 0.75922(19)
H60 H 0.2412 0.3764 0.7384
C75 C 0.0908(3) 0.3546(3) 0.8117(2)
H61 H 0.0624 0.4188 0.8331
C76 C -0.0642(3) 0.2505(2) 0.88015(17)
C77 C -0.0749(3) 0.1508(2) 0.91531(17)
H62 H -0.0149 0.0933 0.9039
C78 C -0.1752(3) 0.1376(2) 0.96736(17)
H63 H -0.1830 0.0703 0.9893
C79 C -0.2650(3) 0.2224(3) 0.98803(19)
C80 C -0.2525(3) 0.3209(2) 0.95129(19)
H64 H -0.3123 0.3785 0.9626
C81 C -0.1535(3) 0.3357(2) 0.89824(18)
H65 H -0.1470 0.4026 0.8748
C82 C -0.3671(3) 0.2054(2) 1.04886(18)
C83 C -0.3989(3) 0.1061(3) 1.06678(19)
H66 H -0.3593 0.0505 1.0377
C84 C -0.4887(3) 0.0894(3) 1.12716(19)
H67 H -0.5087 0.0230 1.1382
C85 C -0.5487(3) 0.1708(2) 1.17105(18)
C86 C -0.5244(4) 0.2705(3) 1.1515(2)
H68 H -0.5685 0.3265 1.1782
C87 C -0.4327(4) 0.2868(3) 1.0913(2)
H69 H -0.4151 0.3540 1.0794
C88 C -0.7655(3) 0.1982(3) 1.23150(18)
H70 H -0.8049 0.2384 1.1884
C89 C -0.8168(3) 0.1687(2) 1.30585(18)
H71 H -0.8993 0.1845 1.3218
C90 C -0.6251(3) 0.1058(2) 1.30804(19)
H72 H -0.5500 0.0709 1.3253
S1 S 0.84728(7) 0.63530(6) 0.03324(4)
S2 S 0.29178(7) 0.38818(5) 0.35962(4)
S3 S -0.25940(6) 0.08256(5) 0.57708(4)
Co1_2 Co 1.35783(3) 0.63629(3) -0.06508(2)
Co1_3 Co 1.35783(3) 1.63629(3) -0.06508(2)
Co2_2 Co 1.44500(3) 0.71735(3) -0.86402(2)
Co3_2 Co -0.74996(3) 0.07919(3) 0.48157(2)
Co3_3 Co -0.74996(3) 0.07919(3) 1.48157(2)
Co3_4 Co 1.25004(3) 1.07919(3) 0.48157(2)
Co4_2 Co -0.65335(3) 0.14208(3) 0.67449(2)
N4_2 N 0.2895(2) 0.79284(19) 0.20322(16)
N8_2 N 0.3727(2) 0.47111(19) -0.04989(16)
N12_2 N 0.2654(2) -0.0841(2) 0.48702(15)
N16_2 N 0.2719(2) 0.1121(2) 0.35374(14)
O4_2 O 0.1701(2) 0.64750(17) -0.07308(13)
O11_2 O 0.43749(19) 0.07628(16) 0.47777(12)
O12_2 O 0.48670(19) 0.05248(16) 0.60785(12)
loop_
_geom_bond_atom_site_label_1
_geom_bond_atom_site_label_2
_geom_bond_site_symmetry_1
_geom_bond_site_symmetry_2
Co1 N1 1_555 1_555
Co2 N5 1_555 1_555
Co3 O8 1_555 1_555
Co4 N9 1_555 1_555
N1 C1 1_555 1_555
N2 C1 1_555 1_555
N3 C13 1_555 1_555
N4 C16 1_555 1_555
N5 C25 1_555 1_555
N6 C26 1_555 1_555
N7 C37 1_555 1_555
N8 C41 1_555 1_555
N9 C55 1_555 1_555
N10 C56 1_555 1_555
N11 C67 1_555 1_555
N12 C71 1_555 1_555
N13 Co4 1_555 1_555
N14 C73 1_555 1_555
N15 C85 1_555 1_555
N16 C89 1_555 1_555
O1 Co1 1_555 1_555
O2 Co2 1_555 1_555
O3 C22 1_555 1_555
O4 C22 1_555 1_555
O5 Co2 1_555 1_555
O6 C43 1_555 1_555
O7 Co4 1_555 1_555
O8 C48 1_555 1_555
O9 Co3 1_555 1_555
O10 C49 1_555 1_555
O11 C54 1_555 1_555
O12 C54 1_555 1_555
O13 Co1 1_555 1_555
H1 O13 1_555 1_555
H2 O13 1_555 1_555
O14 Co2 1_555 1_555
H3 O14 1_555 1_555
H4 O14 1_555 1_555
O15 Co4 1_555 1_555
H5 O15 1_555 1_555
H6 O15 1_555 1_555
O16 Co1 1_555 1_555
H7 O16 1_555 1_555
H8 O16 1_555 1_555
O17 Co3 1_555 1_555
H9 O17 1_555 1_555
H10 O17 1_555 1_555
C1 H11 1_555 1_555
C2 N1 1_555 1_555
H12 C2 1_555 1_555
C3 N2 1_555 1_555
H13 C3 1_555 1_555
C4 N2 1_555 1_555
C5 C4 1_555 1_555
H14 C5 1_555 1_555
C6 C5 1_555 1_555
H15 C6 1_555 1_555
C7 C6 1_555 1_555
C8 C7 1_555 1_555
H16 C8 1_555 1_555
C9 C4 1_555 1_555
H17 C9 1_555 1_555
C10 C7 1_555 1_555
C11 C10 1_555 1_555
H18 C11 1_555 1_555
C12 C11 1_555 1_555
H19 C12 1_555 1_555
C13 C12 1_555 1_555
C14 C13 1_555 1_555
H20 C14 1_555 1_555
C15 C10 1_555 1_555
H21 C15 1_555 1_555
C16 N3 1_555 1_555
H22 C16 1_555 1_555
C17 N4 1_555 1_555
H23 C17 1_555 1_555
C18 N3 1_555 1_555
H24 C18 1_555 1_555
C19 O1 1_555 1_555
C20 C19 1_555 1_555
C21 C22 1_555 1_555
C23 C21 1_555 1_555
H25 C23 1_555 1_555
C24 C20 1_555 1_555
H26 C24 1_555 1_555
C25 H27 1_555 1_555
C26 N5 1_555 1_555
H28 C26 1_555 1_555
C27 N6 1_555 1_555
H29 C27 1_555 1_555
C28 N6 1_555 1_555
C29 C28 1_555 1_555
H30 C29 1_555 1_555
C30 C29 1_555 1_555
H31 C30 1_555 1_555
C31 C30 1_555 1_555
C32 C31 1_555 1_555
H32 C32 1_555 1_555
C33 C28 1_555 1_555
H33 C33 1_555 1_555
C34 C31 1_555 1_555
C35 C34 1_555 1_555
H34 C35 1_555 1_555
C36 C35 1_555 1_555
H35 C36 1_555 1_555
C37 C36 1_555 1_555
C38 C37 1_555 1_555
H36 C38 1_555 1_555
C39 C34 1_555 1_555
H37 C39 1_555 1_555
C40 N7 1_555 1_555
H38 C40 1_555 1_555
C41 C40 1_555 1_555
H39 C41 1_555 1_555
C42 N7 1_555 1_555
H40 C42 1_555 1_555
C43 O5 1_555 1_555
C44 C43 1_555 1_555
C45 C44 1_555 1_555
H41 C45 1_555 1_555
C46 C45 1_555 1_555
H42 C46 1_555 1_555
C47 C46 1_555 1_555
C48 O7 1_555 1_555
C49 O9 1_555 1_555
C50 C49 1_555 1_555
C51 C50 1_555 1_555
H43 C51 1_555 1_555
C52 C51 1_555 1_555
H44 C52 1_555 1_555
C53 C52 1_555 1_555
C54 C53 1_555 1_555
C55 H45 1_555 1_555
C56 N9 1_555 1_555
H46 C56 1_555 1_555
C57 N10 1_555 1_555
H47 C57 1_555 1_555
C58 N10 1_555 1_555
C59 C58 1_555 1_555
H48 C59 1_555 1_555
C60 C59 1_555 1_555
H49 C60 1_555 1_555
C61 C60 1_555 1_555
C62 C61 1_555 1_555
H50 C62 1_555 1_555
C63 C58 1_555 1_555
H51 C63 1_555 1_555
C64 C61 1_555 1_555
C65 C64 1_555 1_555
H52 C65 1_555 1_555
C66 C65 1_555 1_555
H53 C66 1_555 1_555
C67 C66 1_555 1_555
C68 C67 1_555 1_555
H54 C68 1_555 1_555
C69 C64 1_555 1_555
H55 C69 1_555 1_555
C70 N11 1_555 1_555
H56 C70 1_555 1_555
C71 C70 1_555 1_555
H57 C71 1_555 1_555
C72 N11 1_555 1_555
H58 C72 1_555 1_555
C73 N13 1_555 1_555
H59 C73 1_555 1_555
C74 N13 1_555 1_555
H60 C74 1_555 1_555
C75 N14 1_555 1_555
H61 C75 1_555 1_555
C76 N14 1_555 1_555
C77 C76 1_555 1_555
H62 C77 1_555 1_555
C78 C77 1_555 1_555
H63 C78 1_555 1_555
C79 C78 1_555 1_555
C80 C79 1_555 1_555
H64 C80 1_555 1_555
C81 C76 1_555 1_555
H65 C81 1_555 1_555
C82 C79 1_555 1_555
C83 C82 1_555 1_555
H66 C83 1_555 1_555
C84 C83 1_555 1_555
H67 C84 1_555 1_555
C85 C84 1_555 1_555
C86 C85 1_555 1_555
H68 C86 1_555 1_555
C87 C82 1_555 1_555
H69 C87 1_555 1_555
C88 N15 1_555 1_555
H70 C88 1_555 1_555
C89 C88 1_555 1_555
H71 C89 1_555 1_555
C90 N15 1_555 1_555
H72 C90 1_555 1_555
S1 C20 1_555 1_555
S2 C44 1_555 1_555
S3 C50 1_555 1_555
O18 C91 1_555 1_555
O19 C91 1_555 1_555
O20 C96 1_555 1_555
O21 C96 1_555 1_555
C91 C92 1_555 1_555
C92 C93 1_555 1_555
C93 H73 1_555 1_555
C94 C93 1_555 1_555
H74 C94 1_555 1_555
C95 C94 1_555 1_555
C96 C95 1_555 1_555
S4 C92 1_555 1_555
Co1_2 O4 1_555 1_555
Co1_3 N8 1_555 1_555
Co2_2 N4 1_555 1_555
Co3_2 O11 1_555 1_555
Co3_3 N16 1_555 1_555
Co3_4 N12 1_555 1_555
Co4_2 O12 1_555 1_555
N4_2 Co2 1_555 1_555
N8_2 Co1 1_555 1_555
N12_2 Co3 1_555 1_555
N16_2 Co3 1_555 1_555
O4_2 Co1 1_555 1_555
O11_2 Co3 1_555 1_555
O12_2 Co4 1_555 1_555
Co2 O16 1_555 1_555
Co4 O17 1_555 1_555
N8 C42 1_555 1_555
N12 C72 1_555 1_555
N16 C90 1_555 1_555
O2 C19 1_555 1_555
C2 C3 1_555 1_555
C8 C9 1_555 1_555
C14 C15 1_555 1_555
C17 C18 1_555 1_555
C21 S1 1_555 1_555
C23 C24 1_555 1_555
C25 C27 1_555 1_555
C32 C33 1_555 1_555
C38 C39 1_555 1_555
C47 C48 1_555 1_555
C47 S2 1_555 1_555
C53 S3 1_555 1_555
C55 C57 1_555 1_555
C62 C63 1_555 1_555
C68 C69 1_555 1_555
C74 C75 1_555 1_555
C80 C81 1_555 1_555
C86 C87 1_555 1_555
C95 S4 1_555 1_555

#END
