
#######################################################################
#
#                 Cambridge Crystallographic Data Centre
#                                CCDC 
#
#######################################################################
#
# If this CIF has been generated from an entry in the Cambridge 
# Structural Database, then it will include bibliographic, chemical, 
# crystal, experimental, refinement or atomic coordinate data resulting 
# from the CCDC's data processing and validation procedures.
#
#######################################################################

data_NIJTEH
_symmetry_cell_setting           monoclinic
_symmetry_space_group_name_H-M   'P 21/c'
_symmetry_Int_Tables_number      14
_space_group_name_Hall           '-P 2ybc'
loop_
_symmetry_equiv_pos_site_id
_symmetry_equiv_pos_as_xyz
1 x,y,z
2 -x,1/2+y,1/2-z
3 -x,-y,-z
4 x,1/2-y,1/2+z
_cell_length_a                   10.5078(18)
_cell_length_b                   18.163(3)
_cell_length_c                   11.574(2)
_cell_angle_alpha                90
_cell_angle_beta                 104.499(2)
_cell_angle_gamma                90
_cell_volume                     2138.58
loop_
_atom_site_label
_atom_site_type_symbol
_atom_site_fract_x
_atom_site_fract_y
_atom_site_fract_z
O1 O 0.0675(8) 0.3611(4) 0.8083(6)
H1 H 0.0392 0.3565 0.7360
H2 H 0.0401 0.3257 0.8390
Cd1 Cd 0.25132(4) 0.15128(2) 0.00270(4)
S1 S -0.24973(15) 0.17092(9) 0.00783(13)
O2 O 0.0366(5) 0.1518(3) 0.0449(5)
C1 C -0.3887(5) 0.2074(3) -0.0867(5)
C2 C -0.1515(5) 0.2105(3) -0.0741(5)
O3 O 0.0624(4) 0.2195(3) -0.1042(4)
N1 N 0.2771(5) 0.0483(3) 0.1274(5)
C3 C -0.2233(6) 0.2492(3) -0.1684(6)
H3 H -0.1867 0.2739 -0.2226
C4 C -0.0086(6) 0.1934(3) -0.0408(5)
N2 N 0.2069(5) 0.0739(3) 0.8358(5)
C5 C -0.3589(6) 0.2479(3) -0.1756(6)
H4 H -0.4215 0.2720 -0.2345
C6 C -0.5178(6) 0.1904(4) -0.0615(6)
C7 C 0.4148(7) -0.0311(4) 0.2688(6)
H5 H 0.4995 -0.0465 0.3064
C8 C 0.1850(7) -0.0444(4) 0.2266(6)
H6 H 0.1099 -0.0684 0.2356
C9 C 0.3965(7) 0.0258(4) 0.1886(6)
H7 H 0.4701 0.0499 0.1761
C10 C 0.1734(6) 0.0122(4) 0.1464(6)
H8 H 0.0898 0.0262 0.1033
C11 C 0.3068(7) -0.0661(3) 0.2940(5)
C12 C 0.1582(7) 0.1011(4) 0.7267(6)
H9 H 0.1268 0.1492 0.7199
C13 C 0.2486(8) 0.0043(4) 0.8430(6)
H10 H 0.2830 -0.0158 0.9183
O4 O -0.5213(5) 0.1475(3) 0.0209(4)
O5 O -0.6199(4) 0.2207(3) -0.1283(4)
C14 C 0.1965(6) -0.0112(4) 0.6322(6)
C15 C 0.3283(7) -0.0793(4) 0.5132(6)
H11 H 0.3663 -0.1116 0.5796
H12 H 0.3839 -0.0361 0.5200
C16 C 0.2433(7) -0.0393(4) 0.7445(6)
H13 H 0.2716 -0.0880 0.7544
C17 C 0.1928(8) -0.0560(5) 0.5216(6)
H14 H 0.1516 -0.0272 0.4517
H15 H 0.1394 -0.0995 0.5220
C18 C 0.1518(7) 0.0620(4) 0.6238(6)
H16 H 0.1184 0.0836 0.5496
C19 C 0.3266(5) -0.1194(2) 0.3951(4)
H17 H 0.4091 -0.1452 0.4029
H18 H 0.2563 -0.1555 0.3785
O6 O 0.3013(5) 0.2548(2) 0.1225(4)
H19 H 0.3379 0.2609 0.1933
H20 H 0.276(8) 0.2953(13) 0.095(3)
Cd1_2 Cd -0.74868(4) 0.15128(2) 0.00270(4)
Cd1_3 Cd 0.25132(4) 0.15128(2) 1.00270(4)
N2_2 N 0.2069(5) 0.0739(3) -0.1642(5)
O4_2 O 0.4787(5) 0.1475(3) 0.0209(4)
O5_2 O 0.3801(4) 0.2207(3) -0.1283(4)
O7 O 0.3299(8) 0.3645(4) 0.9547(6)
H21 H 0.2563 0.3743 0.9137
H22 H 0.3681 0.3412 0.9131
loop_
_geom_bond_atom_site_label_1
_geom_bond_atom_site_label_2
_geom_bond_site_symmetry_1
_geom_bond_site_symmetry_2
O1 H1 1_555 1_555
H2 O1 1_555 1_555
Cd1 O2 1_555 1_555
S1 C1 1_555 1_555
O2 C4 1_555 1_555
C1 C5 1_555 1_555
C2 S1 1_555 1_555
O3 Cd1 1_555 1_555
N1 Cd1 1_555 1_555
C3 C2 1_555 1_555
H3 C3 1_555 1_555
C4 C2 1_555 1_555
N2 C12 1_555 1_555
C5 C3 1_555 1_555
H4 C5 1_555 1_555
C6 C1 1_555 1_555
C7 H5 1_555 1_555
C8 H6 1_555 1_555
C9 N1 1_555 1_555
H7 C9 1_555 1_555
C10 N1 1_555 1_555
H8 C10 1_555 1_555
C11 C7 1_555 1_555
C12 H9 1_555 1_555
C13 N2 1_555 1_555
H10 C13 1_555 1_555
O4 C6 1_555 1_555
O5 C6 1_555 1_555
C14 C16 1_555 1_555
C15 H11 1_555 1_555
H12 C15 1_555 1_555
C16 C13 1_555 1_555
H13 C16 1_555 1_555
C17 C14 1_555 1_555
H14 C17 1_555 1_555
H15 C17 1_555 1_555
C18 C12 1_555 1_555
H16 C18 1_555 1_555
C19 C11 1_555 1_555
H17 C19 1_555 1_555
H18 C19 1_555 1_555
O6 Cd1 1_555 1_555
H19 O6 1_555 1_555
H20 O6 1_555 1_555
O7 H21 1_555 1_555
H22 O7 1_555 1_555
Cd1_2 O4 1_555 1_555
Cd1_3 N2 1_555 1_555
N2_2 Cd1 1_555 1_555
O4_2 Cd1 1_555 1_555
O5_2 Cd1 1_555 1_555
O3 C4 1_555 1_555
C7 C9 1_555 1_555
C8 C10 1_555 1_555
C8 C11 1_555 1_555
O5 Cd1_2 1_555 1_555
C14 C18 1_555 1_555
C15 C17 1_555 1_555
C15 C19 1_555 1_555

#END
