
#######################################################################
#
#                 Cambridge Crystallographic Data Centre
#                                CCDC 
#
#######################################################################
#
# If this CIF has been generated from an entry in the Cambridge 
# Structural Database, then it will include bibliographic, chemical, 
# crystal, experimental, refinement or atomic coordinate data resulting 
# from the CCDC's data processing and validation procedures.
#
#######################################################################

data_NIJVEI
_symmetry_cell_setting           triclinic
_symmetry_space_group_name_H-M   'P -1'
_symmetry_Int_Tables_number      2
_space_group_name_Hall           '-P 1'
loop_
_symmetry_equiv_pos_site_id
_symmetry_equiv_pos_as_xyz
1 x,y,z
2 -x,-y,-z
_cell_length_a                   11.6991(14)
_cell_length_b                   13.2387(15)
_cell_length_c                   13.3054(16)
_cell_angle_alpha                115.188(2)
_cell_angle_beta                 114.647(2)
_cell_angle_gamma                91.113(2)
_cell_volume                     1645.62
loop_
_atom_site_label
_atom_site_type_symbol
_atom_site_fract_x
_atom_site_fract_y
_atom_site_fract_z
Pr1 Pr 0.10811(3) 0.15612(2) 0.05845(3)
I1 I 0.50210(7) 0.37431(6) 0.06316(6)
I2 I -0.05288(4) -0.33890(5) -0.41330(4)
I3 I 0.42281(5) -0.09753(5) 0.18595(7)
O1 O 0.2215(4) 0.3612(3) 0.2198(4)
O2 O 0.3334(4) 0.2611(3) 0.1350(4)
O3 O 0.1828(4) -0.0019(3) -0.0516(4)
O4 O 0.0483(4) -0.1695(3) -0.1337(4)
O5 O 0.0865(3) -0.0116(3) 0.1190(3)
O6 O 0.2583(4) 0.1312(4) 0.2469(4)
N1 N -0.0389(4) 0.2877(4) -0.0214(4)
N2 N 0.1166(4) 0.1912(4) -0.1223(5)
C1 C 0.3214(5) 0.3534(5) 0.2061(5)
C2 C 0.4264(5) 0.4615(5) 0.2769(6)
C3 C 0.4391(6) 0.5434(5) 0.3912(6)
H1 H 0.3842 0.5292 0.4204
C4 C 0.5327(7) 0.6469(6) 0.4634(8)
H2 H 0.5412 0.7008 0.5408
C5 C 0.6106(7) 0.6681(7) 0.4202(9)
H3 H 0.6728 0.7372 0.4674
C6 C 0.5989(7) 0.5884(7) 0.3069(10)
H4 H 0.6530 0.6047 0.2779
C7 C 0.5087(6) 0.4846(6) 0.2349(7)
C8 C 0.1394(5) -0.1082(4) -0.1232(5)
C9 C 0.2062(5) -0.1665(4) -0.1996(5)
C10 C 0.3368(6) -0.1196(5) -0.1490(6)
H5 H 0.3774 -0.0519 -0.0728
C11 C 0.4083(7) -0.1710(7) -0.2090(8)
H6 H 0.4962 -0.1390 -0.1728
C12 C 0.3482(7) -0.2690(7) -0.3219(8)
H7 H 0.3957 -0.3044 -0.3626
C13 C 0.2172(7) -0.3162(6) -0.3764(7)
H8 H 0.1765 -0.3822 -0.4542
C14 C 0.1471(6) -0.2652(5) -0.3154(6)
C15 C 0.1941(5) 0.0381(5) 0.2163(5)
C16 C 0.2420(6) -0.0181(5) 0.2995(6)
C17 C 0.1807(9) -0.0076(7) 0.3800(7)
H9 H 0.1169 0.0328 0.3823
C18 C 0.2264(11) -0.0627(8) 0.4508(8)
H10 H 0.1904 -0.0603 0.5020
C19 C 0.3217(11) -0.1207(9) 0.4505(9)
H11 H 0.3485 -0.1553 0.5017
C20 C 0.3777(9) -0.1291(7) 0.3778(9)
H12 H 0.4419 -0.1695 0.3786
C21 C 0.3390(7) -0.0772(6) 0.3018(7)
C22 C -0.1148(6) 0.3350(5) 0.0265(6)
H13 H -0.1179 0.3208 0.0881
C23 C -0.1912(6) 0.4056(5) -0.0105(7)
H14 H -0.2437 0.4367 0.0258
C24 C -0.1875(6) 0.4276(6) -0.0985(7)
H15 H -0.2380 0.4738 -0.1243
C25 C -0.1074(6) 0.3807(5) -0.1521(6)
C26 C -0.0962(7) 0.4026(6) -0.2440(7)
H16 H -0.1443 0.4494 -0.2712
C27 C -0.0185(7) 0.3577(6) -0.2917(7)
H17 H -0.0121 0.3744 -0.3506
C28 C 0.0558(6) 0.2836(6) -0.2536(6)
C29 C 0.1377(7) 0.2319(7) -0.3022(7)
H18 H 0.1452 0.2446 -0.3630
C30 C 0.2056(7) 0.1641(7) -0.2612(7)
H19 H 0.2598 0.1295 -0.2933
C31 C 0.1929(6) 0.1472(6) -0.1708(6)
H20 H 0.2415 0.1015 -0.1420
C32 C 0.0477(5) 0.2595(5) -0.1629(5)
C33 C -0.0352(5) 0.3094(4) -0.1106(5)
Pr1A Pr -0.10811(3) -0.15612(2) -0.05845(3)
O4A O -0.0483(4) 0.1695(3) 0.1337(4)
O5A O -0.0865(3) 0.0116(3) -0.1190(3)
loop_
_geom_bond_atom_site_label_1
_geom_bond_atom_site_label_2
_geom_bond_site_symmetry_1
_geom_bond_site_symmetry_2
Pr1 O1 1_555 1_555
I1 C7 1_555 1_555
I2 C14 1_555 1_555
I3 C21 1_555 1_555
O1 C1 1_555 1_555
O2 Pr1 1_555 1_555
O3 Pr1 1_555 1_555
O4 C8 1_555 1_555
O5 Pr1 1_555 1_555
O6 Pr1 1_555 1_555
N1 Pr1 1_555 1_555
N2 Pr1 1_555 1_555
C1 O2 1_555 1_555
C2 C1 1_555 1_555
C3 C2 1_555 1_555
H1 C3 1_555 1_555
C4 C3 1_555 1_555
H2 C4 1_555 1_555
C5 C4 1_555 1_555
H3 C5 1_555 1_555
C6 C5 1_555 1_555
H4 C6 1_555 1_555
C7 C2 1_555 1_555
C8 O3 1_555 1_555
C9 C8 1_555 1_555
C10 C9 1_555 1_555
H5 C10 1_555 1_555
C11 C10 1_555 1_555
H6 C11 1_555 1_555
C12 C11 1_555 1_555
H7 C12 1_555 1_555
C13 C12 1_555 1_555
H8 C13 1_555 1_555
C14 C9 1_555 1_555
C15 O5 1_555 1_555
C16 C15 1_555 1_555
C17 C16 1_555 1_555
H9 C17 1_555 1_555
C18 C17 1_555 1_555
H10 C18 1_555 1_555
C19 C18 1_555 1_555
H11 C19 1_555 1_555
C20 C19 1_555 1_555
H12 C20 1_555 1_555
C21 C16 1_555 1_555
C22 N1 1_555 1_555
H13 C22 1_555 1_555
C23 C22 1_555 1_555
H14 C23 1_555 1_555
C24 C23 1_555 1_555
H15 C24 1_555 1_555
C25 C24 1_555 1_555
C26 C25 1_555 1_555
H16 C26 1_555 1_555
C27 C26 1_555 1_555
H17 C27 1_555 1_555
C28 C27 1_555 1_555
C29 C28 1_555 1_555
H18 C29 1_555 1_555
C30 C29 1_555 1_555
H19 C30 1_555 1_555
C31 N2 1_555 1_555
H20 C31 1_555 1_555
C32 N2 1_555 1_555
C33 N1 1_555 1_555
Pr1A O4 1_555 1_555
O4A Pr1 1_555 1_555
O5A Pr1 1_555 1_555
O5 Pr1A 1_555 1_555
O6 C15 1_555 1_555
C6 C7 1_555 1_555
C13 C14 1_555 1_555
C20 C21 1_555 1_555
C25 C33 1_555 1_555
C28 C32 1_555 1_555
C30 C31 1_555 1_555
C32 C33 1_555 1_555
Pr1A O5A 1_555 1_555

#END
