
#######################################################################
#
#                 Cambridge Crystallographic Data Centre
#                                CCDC 
#
#######################################################################
#
# If this CIF has been generated from an entry in the Cambridge 
# Structural Database, then it will include bibliographic, chemical, 
# crystal, experimental, refinement or atomic coordinate data resulting 
# from the CCDC's data processing and validation procedures.
#
#######################################################################

data_NIJYEM
_symmetry_cell_setting           triclinic
_symmetry_space_group_name_H-M   'P -1'
_symmetry_Int_Tables_number      2
_space_group_name_Hall           '-P 1'
loop_
_symmetry_equiv_pos_site_id
_symmetry_equiv_pos_as_xyz
1 x,y,z
2 -x,-y,-z
_cell_length_a                   7.9193(16)
_cell_length_b                   11.378(2)
_cell_length_c                   11.607(2)
_cell_angle_alpha                67.29(3)
_cell_angle_beta                 88.38(3)
_cell_angle_gamma                81.81(3)
_cell_volume                     954.525
loop_
_atom_site_label
_atom_site_type_symbol
_atom_site_fract_x
_atom_site_fract_y
_atom_site_fract_z
Zn1 Zn 0.36199(8) 0.37072(7) 0.03488(6)
O1 O 0.5732(5) 0.5029(4) 0.1256(4)
O2 O -0.0393(6) 0.5179(5) 0.3354(4)
O3 O -0.4433(5) 0.2336(4) 0.1082(4)
O4 O 0.2075(5) 0.2856(5) -0.0170(4)
N1 N 0.3058(6) 0.4577(5) 0.1535(5)
N2 N 0.1484(6) 0.4619(5) 0.2108(5)
H1 H 0.0716 0.4257 0.1916
N3 N -0.1896(6) 0.3015(5) 0.1186(5)
H2 H -0.2356 0.3313 0.1717
N4 N -0.0226(6) 0.3213(5) 0.0914(5)
C1 C 0.3306(9) 0.7334(6) 0.5422(6)
H3 H 0.2253 0.7386 0.5788
C2 C 0.4632(10) 0.7805(7) 0.5756(7)
H4 H 0.4473 0.8171 0.6349
C3 C 0.6218(9) 0.7739(7) 0.5210(6)
H5 H 0.7100 0.8068 0.5443
C4 C 0.6506(9) 0.7198(6) 0.4336(6)
H6 H 0.7576 0.7154 0.3991
C5 C 0.5149(8) 0.6705(6) 0.3962(5)
C6 C 0.3532(8) 0.6768(6) 0.4520(5)
C7 C 0.2185(7) 0.6274(6) 0.4161(5)
H7 H 0.1121 0.6322 0.4514
C8 C 0.2446(8) 0.5720(6) 0.3290(5)
C9 C 0.4076(7) 0.5663(6) 0.2742(5)
C10 C 0.5393(8) 0.6147(6) 0.3079(5)
H8 H 0.6450 0.6101 0.2717
C11 C 0.4299(7) 0.5091(6) 0.1810(5)
C12 C 0.1061(7) 0.5173(6) 0.2935(5)
C13 C -0.3168(9) 0.0121(6) -0.2067(6)
H9 H -0.4301 0.0024 -0.1876
C14 C -0.2381(11) -0.0347(7) -0.2880(7)
H10 H -0.2976 -0.0774 -0.3239
C15 C -0.0652(10) -0.0196(7) -0.3196(7)
H11 H -0.0129 -0.0529 -0.3754
C16 C 0.0233(10) 0.0427(6) -0.2692(6)
H12 H 0.1360 0.0520 -0.2907
C17 C -0.0540(8) 0.0941(6) -0.1835(6)
C18 C -0.2257(8) 0.0765(6) -0.1503(6)
C19 C -0.3023(8) 0.1266(6) -0.0649(6)
H13 H -0.4157 0.1186 -0.0445
C20 C -0.2107(7) 0.1874(6) -0.0114(5)
C21 C -0.0404(7) 0.2047(6) -0.0435(6)
C22 C 0.0376(8) 0.1583(6) -0.1284(5)
H14 H 0.1502 0.1691 -0.1494
C23 C -0.2891(8) 0.2430(6) 0.0744(6)
C24 C 0.0501(7) 0.2741(6) 0.0133(5)
Zn1_2 Zn -0.63801(8) 0.37072(7) 0.03488(6)
Zn1A Zn 0.63801(8) 0.62928(7) -0.03488(6)
O1A O 0.4268(5) 0.4971(4) -0.1256(4)
O3_2 O 0.5567(5) 0.2336(4) 0.1082(4)
loop_
_geom_bond_atom_site_label_1
_geom_bond_atom_site_label_2
_geom_bond_site_symmetry_1
_geom_bond_site_symmetry_2
Zn1 O4 1_555 1_555
O1 C11 1_555 1_555
O2 C12 1_555 1_555
O3 C23 1_555 1_555
O4 C24 1_555 1_555
N1 Zn1 1_555 1_555
N2 N1 1_555 1_555
H1 N2 1_555 1_555
N3 H2 1_555 1_555
N4 N3 1_555 1_555
C1 H3 1_555 1_555
C2 C1 1_555 1_555
H4 C2 1_555 1_555
C3 C2 1_555 1_555
H5 C3 1_555 1_555
C4 C3 1_555 1_555
H6 C4 1_555 1_555
C5 C4 1_555 1_555
C6 C1 1_555 1_555
C7 C6 1_555 1_555
H7 C7 1_555 1_555
C8 C7 1_555 1_555
C9 C8 1_555 1_555
C10 C5 1_555 1_555
H8 C10 1_555 1_555
C11 N1 1_555 1_555
C12 N2 1_555 1_555
C13 H9 1_555 1_555
C14 C13 1_555 1_555
H10 C14 1_555 1_555
C15 C14 1_555 1_555
H11 C15 1_555 1_555
C16 C15 1_555 1_555
H12 C16 1_555 1_555
C17 C16 1_555 1_555
C18 C13 1_555 1_555
C19 C18 1_555 1_555
H13 C19 1_555 1_555
C20 C19 1_555 1_555
C21 C20 1_555 1_555
C22 C17 1_555 1_555
H14 C22 1_555 1_555
C23 N3 1_555 1_555
C24 N4 1_555 1_555
Zn1_2 O3 1_555 1_555
Zn1A O1 1_555 1_555
O1A Zn1 1_555 1_555
O3_2 Zn1 1_555 1_555
C5 C6 1_555 1_555
C8 C12 1_555 1_555
C9 C10 1_555 1_555
C9 C11 1_555 1_555
C17 C18 1_555 1_555
C20 C23 1_555 1_555
C21 C22 1_555 1_555
C21 C24 1_555 1_555

#END
