
#######################################################################
#
#                 Cambridge Crystallographic Data Centre
#                                CCDC 
#
#######################################################################
#
# If this CIF has been generated from an entry in the Cambridge 
# Structural Database, then it will include bibliographic, chemical, 
# crystal, experimental, refinement or atomic coordinate data resulting 
# from the CCDC's data processing and validation procedures.
#
#######################################################################

data_NIJZIQ
_symmetry_cell_setting           monoclinic
_symmetry_space_group_name_H-M   'P 21/n'
_symmetry_Int_Tables_number      14
_space_group_name_Hall           '-P 2yn'
loop_
_symmetry_equiv_pos_site_id
_symmetry_equiv_pos_as_xyz
1 x,y,z
2 1/2-x,1/2+y,1/2-z
3 -x,-y,-z
4 1/2+x,1/2-y,1/2+z
_cell_length_a                   8.7148(15)
_cell_length_b                   8.6142(17)
_cell_length_c                   15.204(3)
_cell_angle_alpha                90
_cell_angle_beta                 92.100(10)
_cell_angle_gamma                90
_cell_volume                     1140.61
loop_
_atom_site_label
_atom_site_type_symbol
_atom_site_fract_x
_atom_site_fract_y
_atom_site_fract_z
Cd1 Cd 0.0000 0.0000 0.0000
N1 N -0.3729(6) -0.2861(6) -0.1203(4)
N2 N -0.4580(6) -0.2258(7) -0.0548(4)
N3 N -0.2153(6) -0.1352(7) -0.0473(4)
N4 N -0.3217(6) -0.6203(6) -0.0857(4)
N5 N -0.2530(7) -0.5436(7) -0.0155(4)
N6 N -0.1365(7) -0.7719(7) -0.0403(4)
N7 N 0.3045(7) -0.1005(8) -0.2422(4)
N8 N 0.1026(7) -0.0445(8) -0.1385(4)
N9 N 0.5449(9) 0.0457(9) -0.2531(5)
C1 C -0.3571(8) -0.1374(8) -0.0128(5)
H1 H -0.3812 -0.0792 0.0379
C2 C -0.2293(9) -0.2322(9) -0.1152(5)
H2 H -0.1500 -0.2587 -0.1537
C3 C -0.1439(8) -0.6394(8) 0.0084(5)
H3 H -0.0743 -0.6186 0.0565
C4 C -0.2520(7) -0.7540(8) -0.0984(4)
H4 H -0.2806 -0.8270 -0.1429
C5 C -0.4340(8) -0.4074(7) -0.1784(5)
H5 H -0.3607 -0.4274 -0.2253
H6 H -0.5318 -0.3717 -0.2068
C6 C -0.4617(7) -0.5565(8) -0.1287(5)
H7 H -0.5382 -0.5367 -0.0835
H8 H -0.5057 -0.6347 -0.1702
C7 C 0.2030(8) -0.0659(9) -0.1844(5)
C8 C 0.4309(9) -0.0194(9) -0.2456(5)
Cd1_2 Cd 0.0000 -1.0000 0.0000
Cd1_3 Cd 0.0000 1.0000 0.0000
N1B N 0.3729(6) 0.2861(6) 0.1203(4)
N2B N 0.4580(6) 0.2258(7) 0.0548(4)
N3B N 0.2153(6) 0.1352(7) 0.0473(4)
N4B N 0.3217(6) 0.6203(6) 0.0857(4)
N5B N 0.2530(7) 0.5436(7) 0.0155(4)
N6B N 0.1365(7) 0.7719(7) 0.0403(4)
N6_2 N -0.1365(7) 0.2281(7) -0.0403(4)
N6B_2 N 0.1365(7) -0.2281(7) 0.0403(4)
N7B N -0.3045(7) 0.1005(8) 0.2422(4)
N8B N -0.1026(7) 0.0445(8) 0.1385(4)
N9B N -0.5449(9) -0.0457(9) 0.2531(5)
C1B C 0.3571(8) 0.1374(8) 0.0128(5)
H1B H 0.3812 0.0792 -0.0379
C2B C 0.2293(9) 0.2322(9) 0.1152(5)
H2B H 0.1500 0.2587 0.1537
C3B C 0.1439(8) 0.6394(8) -0.0084(5)
H3B H 0.0743 0.6186 -0.0565
C4B C 0.2520(7) 0.7540(8) 0.0984(4)
H4B H 0.2806 0.8270 0.1429
C5B C 0.4340(8) 0.4074(7) 0.1784(5)
H5B H 0.3607 0.4274 0.2253
H6B H 0.5318 0.3717 0.2068
C6B C 0.4617(7) 0.5565(8) 0.1287(5)
H7B H 0.5382 0.5367 0.0835
H8B H 0.5057 0.6347 0.1702
C7B C -0.2030(8) 0.0659(9) 0.1844(5)
C8B C -0.4309(9) 0.0194(9) 0.2456(5)
loop_
_geom_bond_atom_site_label_1
_geom_bond_atom_site_label_2
_geom_bond_site_symmetry_1
_geom_bond_site_symmetry_2
Cd1 N3 1_555 1_555
N1 N2 1_555 1_555
N2 C1 1_555 1_555
N3 C1 1_555 1_555
N4 N5 1_555 1_555
N5 C3 1_555 1_555
N6 C3 1_555 1_555
N7 C7 1_555 1_555
N8 Cd1 1_555 1_555
N9 C8 1_555 1_555
C1 H1 1_555 1_555
C2 N1 1_555 1_555
H2 C2 1_555 1_555
C3 H3 1_555 1_555
C4 N4 1_555 1_555
H4 C4 1_555 1_555
C5 N1 1_555 1_555
H5 C5 1_555 1_555
H6 C5 1_555 1_555
C6 N4 1_555 1_555
H7 C6 1_555 1_555
H8 C6 1_555 1_555
C7 N8 1_555 1_555
C8 N7 1_555 1_555
Cd1_2 N6 1_555 1_555
Cd1_3 N6B 1_555 1_555
N1B N2B 1_555 1_555
N2B C1B 1_555 1_555
N3B Cd1 1_555 1_555
N4B N5B 1_555 1_555
N5B C3B 1_555 1_555
N6B C3B 1_555 1_555
N6_2 Cd1 1_555 1_555
N6B_2 Cd1 1_555 1_555
N7B C7B 1_555 1_555
N8B Cd1 1_555 1_555
N9B C8B 1_555 1_555
C1B N3B 1_555 1_555
H1B C1B 1_555 1_555
C2B N1B 1_555 1_555
H2B C2B 1_555 1_555
C3B H3B 1_555 1_555
C4B N4B 1_555 1_555
H4B C4B 1_555 1_555
C5B N1B 1_555 1_555
H5B C5B 1_555 1_555
H6B C5B 1_555 1_555
C6B N4B 1_555 1_555
H7B C6B 1_555 1_555
H8B C6B 1_555 1_555
C7B N8B 1_555 1_555
C8B N7B 1_555 1_555
N3 C2 1_555 1_555
N6 C4 1_555 1_555
C5 C6 1_555 1_555
N3B C2B 1_555 1_555
N6B C4B 1_555 1_555
C5B C6B 1_555 1_555

#END
