
#######################################################################
#
#                 Cambridge Crystallographic Data Centre
#                                CCDC 
#
#######################################################################
#
# If this CIF has been generated from an entry in the Cambridge 
# Structural Database, then it will include bibliographic, chemical, 
# crystal, experimental, refinement or atomic coordinate data resulting 
# from the CCDC's data processing and validation procedures.
#
#######################################################################

data_NIKBOA
_symmetry_cell_setting           monoclinic
_symmetry_space_group_name_H-M   'C 2/c'
_symmetry_Int_Tables_number      15
_space_group_name_Hall           '-C 2yn'
loop_
_symmetry_equiv_pos_site_id
_symmetry_equiv_pos_as_xyz
1 x,y,z
2 -x,y,1/2-z
3 1/2+x,1/2+y,z
4 1/2-x,1/2+y,1/2-z
5 -x,-y,-z
6 x,-y,1/2+z
7 1/2-x,1/2-y,-z
8 1/2+x,1/2-y,1/2+z
_cell_length_a                   24.8251(13)
_cell_length_b                   15.1782(8)
_cell_length_c                   15.1878(9)
_cell_angle_alpha                90
_cell_angle_beta                 97.7670(10)
_cell_angle_gamma                90
_cell_volume                     5670.27
loop_
_atom_site_label
_atom_site_type_symbol
_atom_site_fract_x
_atom_site_fract_y
_atom_site_fract_z
Eu1 Eu 0.162131(10) 0.767657(16) 1.022711(15)
O1 O 0.24620(13) 0.6634(2) 0.9973(2)
O2 O 0.16423(14) 0.6098(2) 0.9848(3)
O3 O 0.27045(13) 0.7447(2) 0.8357(2)
O4 O 0.31503(13) 0.6202(2) 0.8629(2)
O5 O 0.11211(14) 0.7082(3) 1.1265(2)
O6 O 0.06010(17) 0.8214(3) 1.1496(3)
O7 O 0.16878(15) 0.7885(3) 0.8679(2)
H1 H 0.147(2) 0.802(4) 0.823(3)
H2 H 0.1995(13) 0.784(4) 0.852(4)
N1 N 0.06584(16) 0.7367(3) 0.9341(3)
N2 N 0.10091(15) 0.9027(3) 0.9747(3)
N3 N -0.10253(17) 0.8679(3) 0.7740(3)
N4 N -0.07283(16) 1.0054(3) 0.8085(3)
H3 H -0.0726 1.0620 0.8114
C1 C 0.0485(2) 0.6545(4) 0.9162(4)
H4 H 0.0708 0.6080 0.9379
C2 C -0.0012(2) 0.6354(4) 0.8665(4)
H5 H -0.0116 0.5771 0.8556
C3 C -0.0347(2) 0.7019(4) 0.8339(4)
H6 H -0.0678 0.6897 0.7995
C4 C -0.0186(2) 0.7892(3) 0.8529(3)
C5 C -0.0506(2) 0.8649(4) 0.8232(3)
C6 C -0.1128(2) 0.9528(5) 0.7690(4)
H7 H -0.1454 0.9751 0.7402
C7 C -0.03219(19) 0.9477(4) 0.8435(3)
C8 C 0.0200(2) 0.9672(3) 0.8940(3)
C9 C 0.0398(2) 1.0512(4) 0.9152(3)
H8 H 0.0198 1.1007 0.8949
C10 C 0.0892(2) 1.0596(4) 0.9665(4)
H9 H 0.1033 1.1151 0.9815
C11 C 0.11804(19) 0.9841(3) 0.9959(3)
H10 H 0.1510 0.9909 1.0323
C12 C 0.05149(19) 0.8936(3) 0.9240(3)
C13 C 0.03266(19) 0.8039(4) 0.9037(3)
C14 C 0.2132(2) 0.5996(3) 0.9822(3)
C15 C 0.23560(18) 0.5104(3) 0.9639(3)
C16 C 0.25545(18) 0.4601(3) 1.0371(3)
H11 H 0.2543 0.4825 1.0938
C17 C 0.2769(2) 0.3774(3) 1.0277(4)
H12 H 0.2896 0.3440 1.0775
C18 C 0.2795(2) 0.3450(3) 0.9439(4)
H13 H 0.2945 0.2897 0.9369
C19 C 0.2596(2) 0.3943(3) 0.8698(4)
H14 H 0.2610 0.3714 0.8133
C20 C 0.23747(19) 0.4780(3) 0.8786(3)
C21 C 0.21366(18) 0.5265(3) 0.7968(3)
C22 C 0.1728(2) 0.4854(4) 0.7385(4)
H15 H 0.1634 0.4276 0.7499
C23 C 0.1461(2) 0.5272(4) 0.6653(4)
H16 H 0.1198 0.4975 0.6269
C24 C 0.1586(2) 0.6137(4) 0.6492(3)
H17 H 0.1396 0.6434 0.6011
C25 C 0.1986(2) 0.6559(4) 0.7036(3)
H18 H 0.2067 0.7142 0.6920
C26 C 0.22775(18) 0.6130(3) 0.7764(3)
C27 C 0.27433(19) 0.6617(3) 0.8278(3)
C28 C 0.0824(2) 0.7502(4) 1.1720(4)
C29 C 0.07487(19) 0.7119(3) 1.2607(3)
C30 C 0.02532(18) 0.6819(3) 1.2833(3)
C31 C 0.0239(2) 0.6468(4) 1.3668(3)
H19 H -0.0088 0.6256 1.3817
C32 C 0.0701(2) 0.6425(5) 1.4287(4)
H20 H 0.0682 0.6191 1.4847
C33 C 0.1192(2) 0.6732(5) 1.4071(4)
H21 H 0.1504 0.6704 1.4485
C34 C 0.1215(2) 0.7078(4) 1.3235(4)
H22 H 0.1543 0.7287 1.3089
O5A O -0.11211(14) 0.7082(3) 1.3735(2)
O6A O -0.06010(17) 0.8214(3) 1.3504(3)
C28A C -0.0824(2) 0.7502(4) 1.3280(4)
C29A C -0.07487(19) 0.7119(3) 1.2393(3)
C30A C -0.02532(18) 0.6819(3) 1.2167(3)
C31A C -0.0239(2) 0.6468(4) 1.1332(3)
H19A H 0.0088 0.6256 1.1183
C32A C -0.0701(2) 0.6425(5) 1.0713(4)
H20A H -0.0682 0.6191 1.0153
C33A C -0.1192(2) 0.6732(5) 1.0929(4)
H21A H -0.1504 0.6704 1.0515
C34A C -0.1215(2) 0.7078(4) 1.1765(4)
H22A H -0.1543 0.7287 1.1911
Eu1A Eu -0.162131(10) 0.767657(16) 1.477289(15)
O1A O -0.24620(13) 0.6634(2) 1.5027(2)
O2A O -0.16423(14) 0.6098(2) 1.5152(3)
O3A O -0.27045(13) 0.7447(2) 1.6643(2)
O4A O -0.31503(13) 0.6202(2) 1.6371(2)
O7A O -0.16878(15) 0.7885(3) 1.6321(2)
H1A H -0.147(2) 0.802(4) 1.677(3)
H2A H -0.1995(13) 0.784(4) 1.648(4)
N1A N -0.06584(16) 0.7367(3) 1.5659(3)
N2A N -0.10091(15) 0.9027(3) 1.5253(3)
N3A N 0.10253(17) 0.8679(3) 1.7260(3)
N4A N 0.07283(16) 1.0054(3) 1.6915(3)
H3A H 0.0726 1.0620 1.6886
C1A C -0.0485(2) 0.6545(4) 1.5838(4)
H4A H -0.0708 0.6080 1.5621
C2A C 0.0012(2) 0.6354(4) 1.6335(4)
H5A H 0.0116 0.5771 1.6444
C3A C 0.0347(2) 0.7019(4) 1.6661(4)
H6A H 0.0678 0.6897 1.7005
C4A C 0.0186(2) 0.7892(3) 1.6471(3)
C5A C 0.0506(2) 0.8649(4) 1.6768(3)
C6A C 0.1128(2) 0.9528(5) 1.7310(4)
H7A H 0.1454 0.9751 1.7598
C7A C 0.03219(19) 0.9477(4) 1.6565(3)
C8A C -0.0200(2) 0.9672(3) 1.6060(3)
C9A C -0.0398(2) 1.0512(4) 1.5848(3)
H8A H -0.0198 1.1007 1.6051
C10A C -0.0892(2) 1.0596(4) 1.5335(4)
H9A H -0.1033 1.1151 1.5185
C11A C -0.11804(19) 0.9841(3) 1.5041(3)
H10A H -0.1510 0.9909 1.4677
C12A C -0.05149(19) 0.8936(3) 1.5760(3)
C13A C -0.03266(19) 0.8039(4) 1.5963(3)
C14A C -0.2132(2) 0.5996(3) 1.5178(3)
C15A C -0.23560(18) 0.5104(3) 1.5361(3)
C16A C -0.25545(18) 0.4601(3) 1.4629(3)
H11A H -0.2543 0.4825 1.4062
C17A C -0.2769(2) 0.3774(3) 1.4723(4)
H12A H -0.2896 0.3440 1.4225
C18A C -0.2795(2) 0.3450(3) 1.5561(4)
H13A H -0.2945 0.2897 1.5631
C19A C -0.2596(2) 0.3943(3) 1.6302(4)
H14A H -0.2610 0.3714 1.6867
C20A C -0.23747(19) 0.4780(3) 1.6214(3)
C21A C -0.21366(18) 0.5265(3) 1.7032(3)
C22A C -0.1728(2) 0.4854(4) 1.7615(4)
H15A H -0.1634 0.4276 1.7501
C23A C -0.1461(2) 0.5272(4) 1.8347(4)
H16A H -0.1198 0.4975 1.8731
C24A C -0.1586(2) 0.6137(4) 1.8508(3)
H17A H -0.1396 0.6434 1.8989
C25A C -0.1986(2) 0.6559(4) 1.7964(3)
H18A H -0.2067 0.7142 1.8080
C26A C -0.22775(18) 0.6130(3) 1.7236(3)
C27A C -0.27433(19) 0.6617(3) 1.6722(3)
Eu1F Eu 0.337869(10) 0.732343(16) 0.977289(15)
Eu1G Eu -0.337869(10) 0.732343(16) 1.522711(15)
O1F O 0.25380(13) 0.8366(2) 1.0027(2)
O1G O -0.25380(13) 0.8366(2) 1.4973(2)
O3F O 0.22955(13) 0.7553(2) 1.1643(2)
O3G O -0.22955(13) 0.7553(2) 1.3357(2)
O4F O 0.18497(13) 0.8798(2) 1.1371(2)
O4G O -0.18497(13) 0.8798(2) 1.3629(2)
loop_
_geom_bond_atom_site_label_1
_geom_bond_atom_site_label_2
_geom_bond_site_symmetry_1
_geom_bond_site_symmetry_2
Eu1 O1 1_555 1_555
O1 C14 1_555 1_555
O2 Eu1 1_555 1_555
O3 C27 1_555 1_555
O4 C27 1_555 1_555
O5 Eu1 1_555 1_555
O6 C28 1_555 1_555
O7 Eu1 1_555 1_555
H1 O7 1_555 1_555
H2 O7 1_555 1_555
N1 Eu1 1_555 1_555
N2 Eu1 1_555 1_555
N3 C5 1_555 1_555
N4 H3 1_555 1_555
C1 N1 1_555 1_555
H4 C1 1_555 1_555
C2 C1 1_555 1_555
H5 C2 1_555 1_555
C3 C2 1_555 1_555
H6 C3 1_555 1_555
C4 C3 1_555 1_555
C5 C4 1_555 1_555
C6 N3 1_555 1_555
H7 C6 1_555 1_555
C7 N4 1_555 1_555
C8 C7 1_555 1_555
C9 C8 1_555 1_555
H8 C9 1_555 1_555
C10 C9 1_555 1_555
H9 C10 1_555 1_555
C11 N2 1_555 1_555
H10 C11 1_555 1_555
C12 N2 1_555 1_555
C13 N1 1_555 1_555
C14 O2 1_555 1_555
C15 C14 1_555 1_555
C16 C15 1_555 1_555
H11 C16 1_555 1_555
C17 C16 1_555 1_555
H12 C17 1_555 1_555
C18 C17 1_555 1_555
H13 C18 1_555 1_555
C19 C18 1_555 1_555
H14 C19 1_555 1_555
C20 C15 1_555 1_555
C21 C20 1_555 1_555
C22 C21 1_555 1_555
H15 C22 1_555 1_555
C23 C22 1_555 1_555
H16 C23 1_555 1_555
C24 C23 1_555 1_555
H17 C24 1_555 1_555
C25 C24 1_555 1_555
H18 C25 1_555 1_555
C26 C21 1_555 1_555
C27 C26 1_555 1_555
C28 O5 1_555 1_555
C29 C28 1_555 1_555
C30 C29 1_555 1_555
C31 C30 1_555 1_555
H19 C31 1_555 1_555
C32 C31 1_555 1_555
H20 C32 1_555 1_555
C33 C32 1_555 1_555
H21 C33 1_555 1_555
C34 C29 1_555 1_555
H22 C34 1_555 1_555
O5A C28A 1_555 1_555
O6A C28A 1_555 1_555
C28A C29A 1_555 1_555
C29A C30A 1_555 1_555
C30A C30 1_555 1_555
C31A C30A 1_555 1_555
H19A C31A 1_555 1_555
C32A C31A 1_555 1_555
H20A C32A 1_555 1_555
C33A C32A 1_555 1_555
H21A C33A 1_555 1_555
C34A C29A 1_555 1_555
H22A C34A 1_555 1_555
Eu1A O5A 1_555 1_555
O1A Eu1A 1_555 1_555
O2A Eu1A 1_555 1_555
O3A C27A 1_555 1_555
O4A C27A 1_555 1_555
O7A Eu1A 1_555 1_555
H1A O7A 1_555 1_555
H2A O7A 1_555 1_555
N1A Eu1A 1_555 1_555
N2A Eu1A 1_555 1_555
N3A C5A 1_555 1_555
N4A H3A 1_555 1_555
C1A N1A 1_555 1_555
H4A C1A 1_555 1_555
C2A C1A 1_555 1_555
H5A C2A 1_555 1_555
C3A C2A 1_555 1_555
H6A C3A 1_555 1_555
C4A C3A 1_555 1_555
C5A C4A 1_555 1_555
C6A N3A 1_555 1_555
H7A C6A 1_555 1_555
C7A N4A 1_555 1_555
C8A C7A 1_555 1_555
C9A C8A 1_555 1_555
H8A C9A 1_555 1_555
C10A C9A 1_555 1_555
H9A C10A 1_555 1_555
C11A N2A 1_555 1_555
H10A C11A 1_555 1_555
C12A N2A 1_555 1_555
C13A N1A 1_555 1_555
C14A O1A 1_555 1_555
C15A C14A 1_555 1_555
C16A C15A 1_555 1_555
H11A C16A 1_555 1_555
C17A C16A 1_555 1_555
H12A C17A 1_555 1_555
C18A C17A 1_555 1_555
H13A C18A 1_555 1_555
C19A C18A 1_555 1_555
H14A C19A 1_555 1_555
C20A C15A 1_555 1_555
C21A C20A 1_555 1_555
C22A C21A 1_555 1_555
H15A C22A 1_555 1_555
C23A C22A 1_555 1_555
H16A C23A 1_555 1_555
C24A C23A 1_555 1_555
H17A C24A 1_555 1_555
C25A C24A 1_555 1_555
H18A C25A 1_555 1_555
C26A C21A 1_555 1_555
C27A C26A 1_555 1_555
Eu1F O1 1_555 1_555
Eu1G O1A 1_555 1_555
O1F Eu1 1_555 1_555
O1G Eu1A 1_555 1_555
O3F Eu1 1_555 1_555
O3G Eu1A 1_555 1_555
O4F Eu1 1_555 1_555
O4G Eu1A 1_555 1_555
O3 Eu1F 1_555 1_555
O4 Eu1F 1_555 1_555
N4 C6 1_555 1_555
C4 C13 1_555 1_555
C5 C7 1_555 1_555
C8 C12 1_555 1_555
C10 C11 1_555 1_555
C12 C13 1_555 1_555
C19 C20 1_555 1_555
C25 C26 1_555 1_555
C33 C34 1_555 1_555
C33A C34A 1_555 1_555
O2A C14A 1_555 1_555
O3A Eu1G 1_555 1_555
O4A Eu1G 1_555 1_555
N4A C6A 1_555 1_555
C4A C13A 1_555 1_555
C5A C7A 1_555 1_555
C8A C12A 1_555 1_555
C10A C11A 1_555 1_555
C12A C13A 1_555 1_555
C19A C20A 1_555 1_555
C25A C26A 1_555 1_555
Eu1F O1F 1_555 1_555
Eu1G O1G 1_555 1_555

#END
