
#######################################################################
#
#                 Cambridge Crystallographic Data Centre
#                                CCDC 
#
#######################################################################
#
# If this CIF has been generated from an entry in the Cambridge 
# Structural Database, then it will include bibliographic, chemical, 
# crystal, experimental, refinement or atomic coordinate data resulting 
# from the CCDC's data processing and validation procedures.
#
#######################################################################

data_NIKFEU03
_symmetry_cell_setting           orthorhombic
_symmetry_space_group_name_H-M   'I m m a'
_symmetry_Int_Tables_number      74
_space_group_name_Hall           '-I 2b 2'
loop_
_symmetry_equiv_pos_site_id
_symmetry_equiv_pos_as_xyz
1 x,y,z
2 -x,1/2-y,z
3 -x,1/2+y,-z
4 x,-y,-z
5 1/2+x,1/2+y,1/2+z
6 1/2-x,-y,1/2+z
7 1/2-x,y,1/2-z
8 1/2+x,1/2-y,1/2-z
9 -x,-y,-z
10 x,1/2+y,-z
11 x,1/2-y,z
12 -x,y,z
13 1/2-x,1/2-y,1/2-z
14 1/2+x,y,1/2-z
15 1/2+x,-y,1/2+z
16 1/2-x,1/2+y,1/2+z
_cell_length_a                   19.2841(15)
_cell_length_b                   7.1837(7)
_cell_length_c                   9.2835(9)
_cell_angle_alpha                90
_cell_angle_beta                 90
_cell_angle_gamma                90
_cell_volume                     1286.05
loop_
_atom_site_label
_atom_site_type_symbol
_atom_site_fract_x
_atom_site_fract_y
_atom_site_fract_z
Co1 Co 0.5000 0.0000 0.5000
O1 O 0.5000 0.2500 0.6175(7)
N1 N 0.5000 0.2500 0.7583(9)
C1 C 0.4395(5) 0.2500 0.8287(10)
H1 H 0.3981 0.2500 0.7775
C2 C 0.4387(5) 0.2500 0.9761(10)
H2 H 0.3969 0.2500 1.0260
C3 C 0.5000 0.2500 1.0485(14)
H3 H 0.5000 0.2500 1.1487
O2 O 0.42101(16) 0.0942(4) 0.3664(4)
C4 C 0.3933(3) 0.2500 0.3503(7)
C5 C 0.3187(3) 0.2500 0.2986(8)
C6 C 0.2837(3) 0.0872(7) 0.2741(9)
H4 H 0.3060 -0.0256 0.2902
C1A C 0.5605(5) 0.2500 0.8287(10)
H1A H 0.6019 0.2500 0.7775
C2A C 0.5613(5) 0.2500 0.9761(10)
H2A H 0.6031 0.2500 1.0260
O2F O 0.07899(16) 0.0942(4) 0.1336(4)
C4F C 0.1067(3) 0.2500 0.1497(7)
C5F C 0.1813(3) 0.2500 0.2014(8)
C6F C 0.2163(3) 0.0872(7) 0.2259(9)
H4F H 0.1940 -0.0256 0.2098
O2J O 0.42101(16) 0.4058(4) 0.3664(4)
C6J C 0.2837(3) 0.4128(7) 0.2741(9)
H4J H 0.3060 0.5256 0.2902
O2L O 0.07899(16) 0.4058(4) 0.1336(4)
C6L C 0.2163(3) 0.4128(7) 0.2259(9)
H4L H 0.1940 0.5256 0.2098
Co1A Co 0.5000 0.5000 0.5000
Co1D Co 0.0000 0.5000 0.0000
Co1E Co 0.0000 0.0000 0.0000
O1B O 0.5000 -0.2500 0.3825(7)
O2C O 0.42101(16) -0.0942(4) 0.6336(4)
O2H O 0.57899(16) -0.0942(4) 0.6336(4)
O2K O 0.57899(16) 0.0942(4) 0.3664(4)
loop_
_geom_bond_atom_site_label_1
_geom_bond_atom_site_label_2
_geom_bond_site_symmetry_1
_geom_bond_site_symmetry_2
Co1 O1 1_555 1_555
O1 N1 1_555 1_555
N1 C1 1_555 1_555
C1 H1 1_555 1_555
C2 C1 1_555 1_555
H2 C2 1_555 1_555
C3 C2 1_555 1_555
H3 C3 1_555 1_555
O2 Co1 1_555 1_555
C4 O2 1_555 1_555
C5 C4 1_555 1_555
C6 C5 1_555 1_555
H4 C6 1_555 1_555
C1A N1 1_555 1_555
H1A C1A 1_555 1_555
C2A C3 1_555 1_555
H2A C2A 1_555 1_555
O2F C4F 1_555 1_555
C4F C5F 1_555 1_555
C5F C6F 1_555 1_555
C6F C6 1_555 1_555
H4F C6F 1_555 1_555
O2J C4 1_555 1_555
C6J C5 1_555 1_555
H4J C6J 1_555 1_555
O2L C4F 1_555 1_555
C6L C5F 1_555 1_555
H4L C6L 1_555 1_555
Co1A O1 1_555 1_555
Co1D O2L 1_555 1_555
Co1E O2F 1_555 1_555
O1B Co1 1_555 1_555
O2C Co1 1_555 1_555
O2H Co1 1_555 1_555
O2K Co1 1_555 1_555
C1A C2A 1_555 1_555
O2J Co1A 1_555 1_555
C6J C6L 1_555 1_555

#END
