
#######################################################################
#
#                 Cambridge Crystallographic Data Centre
#                                CCDC 
#
#######################################################################
#
# If this CIF has been generated from an entry in the Cambridge 
# Structural Database, then it will include bibliographic, chemical, 
# crystal, experimental, refinement or atomic coordinate data resulting 
# from the CCDC's data processing and validation procedures.
#
#######################################################################

data_NIKGOD
_symmetry_cell_setting           monoclinic
_symmetry_space_group_name_H-M   'P 21/n'
_symmetry_Int_Tables_number      14
_space_group_name_Hall           '-P 2yn'
loop_
_symmetry_equiv_pos_site_id
_symmetry_equiv_pos_as_xyz
1 x,y,z
2 1/2-x,1/2+y,1/2-z
3 -x,-y,-z
4 1/2+x,1/2-y,1/2+z
_cell_length_a                   14.257(3)
_cell_length_b                   12.391(2)
_cell_length_c                   15.801(2)
_cell_angle_alpha                90
_cell_angle_beta                 93.60(2)
_cell_angle_gamma                90
_cell_volume                     2785.87
loop_
_atom_site_label
_atom_site_type_symbol
_atom_site_fract_x
_atom_site_fract_y
_atom_site_fract_z
Co1 Co -1.27693(9) -0.0131(1) -1.25665(8)
Co2 Co -1.04130(8) 0.3757(1) -1.15235(8)
S1 S -1.2524(2) 0.1696(2) -1.3309(2)
O1 O -1.1890(4) 0.4229(5) -1.1369(3)
O2 O -1.0914(4) 0.5013(5) -1.2477(4)
N1 N -1.3489(5) 0.4461(6) -1.2448(5)
N2 N -1.2532(5) 0.5340(6) -1.3537(4)
N3 N -0.9109(5) 0.4374(6) -1.1801(5)
N4 N -0.9377(5) 0.2326(6) -1.1162(5)
N5 N -1.0465(6) 0.3623(7) -1.0195(5)
N6 N -1.1025(6) 0.2657(6) -1.2373(5)
C1 C -1.4359(7) 0.3675(10) -0.8730(6)
C2 C -1.3730(6) 0.3787(8) -0.9444(6)
C3 C -1.4068(6) 0.3955(7) -1.0266(6)
C4 C -1.3482(7) 0.4077(7) -1.0940(6)
C5 C -1.2484(6) 0.4050(7) -1.0784(6)
C6 C -1.2148(6) 0.3822(7) -0.9945(5)
C7 C -1.2760(6) 0.3700(8) -0.9293(5)
C8 C -1.3919(6) 0.4157(8) -1.1784(6)
C9 C -1.3966(7) 0.4428(9) -1.3289(6)
C10 C -1.3538(7) 0.5310(8) -1.3791(6)
C11 C -1.1956(7) 0.5740(8) -1.4049(6)
C12 C -1.0957(6) 0.5842(8) -1.3865(6)
C13 C -1.0440(7) 0.6278(9) -1.4505(6)
C14 C -0.9472(7) 0.6384(9) -1.4430(6)
C15 C -0.8938(8) 0.6868(9) -1.5124(7)
C16 C -0.9011(6) 0.5984(8) -1.3696(6)
C17 C -0.9487(6) 0.5503(8) -1.3049(6)
C18 C -1.0473(6) 0.5447(7) -1.3098(6)
C19 C -0.8887(6) 0.5011(9) -1.2398(6)
C20 C -0.8300(6) 0.3836(9) -1.1362(6)
C21 C -0.8476(8) 0.2635(9) -1.1455(6)
C22 C -0.9329(7) 0.2202(9) -1.0243(7)
C23 C -0.9577(7) 0.323(1) -0.9797(6)
C24 C -1.1175(7) 0.3618(8) -0.9720(6)
C25 C -1.1656(7) 0.2275(8) -1.2767(6)
Co1A Co -1.22307(9) 0.4869(1) -1.24335(8)
S1A S -1.2476(2) 0.6696(2) -1.1691(2)
Cl1 Cl -1.6659(2) -0.5962(3) -1.3468(2)
O3 O -1.6164(6) -0.607(1) -1.4168(5)
O4 O -1.6273(7) -0.6714(9) -1.2892(6)
O5 O -1.7600(5) -0.6213(7) -1.3659(5)
O6 O -1.6538(6) -0.4974(8) -1.3090(7)
loop_
_geom_bond_atom_site_label_1
_geom_bond_atom_site_label_2
_geom_bond_site_symmetry_1
_geom_bond_site_symmetry_2
Co1 S1 1_555 1_555
Co2 O1 1_555 1_555
Cl1 O3 1_555 1_555
S1 C25 1_555 1_555
O1 C5 1_555 1_555
O2 Co2 1_555 1_555
O4 Cl1 1_555 1_555
O5 Cl1 1_555 1_555
O6 Cl1 1_555 1_555
N1 C8 1_555 1_555
N2 C10 1_555 1_555
N3 Co2 1_555 1_555
N4 Co2 1_555 1_555
N5 Co2 1_555 1_555
N6 Co2 1_555 1_555
C1 C2 1_555 1_555
C2 C3 1_555 1_555
C3 C4 1_555 1_555
C4 C5 1_555 1_555
C5 C6 1_555 1_555
C6 C7 1_555 1_555
C7 C2 1_555 1_555
C8 C4 1_555 1_555
C9 N1 1_555 1_555
C10 C9 1_555 1_555
C11 N2 1_555 1_555
C12 C11 1_555 1_555
C13 C12 1_555 1_555
C14 C13 1_555 1_555
C15 C14 1_555 1_555
C16 C14 1_555 1_555
C17 C16 1_555 1_555
C18 O2 1_555 1_555
C19 N3 1_555 1_555
C20 N3 1_555 1_555
C21 N4 1_555 1_555
C22 N4 1_555 1_555
C23 N5 1_555 1_555
C24 N5 1_555 1_555
C25 N6 1_555 1_555
Co1A O1 1_555 1_555
S1A Co1A 1_555 1_555
O2 Co1A 1_555 1_555
N1 Co1A 1_555 1_555
N2 Co1A 1_555 1_555
C6 C24 1_555 1_555
C12 C18 1_555 1_555
C17 C19 1_555 1_555
C17 C18 1_555 1_555
C20 C21 1_555 1_555
C22 C23 1_555 1_555

#END
