
#######################################################################
#
#                 Cambridge Crystallographic Data Centre
#                                CCDC 
#
#######################################################################
#
# If this CIF has been generated from an entry in the Cambridge 
# Structural Database, then it will include bibliographic, chemical, 
# crystal, experimental, refinement or atomic coordinate data resulting 
# from the CCDC's data processing and validation procedures.
#
#######################################################################

data_NIKQEF
_symmetry_cell_setting           orthorhombic
_symmetry_space_group_name_H-M   'P n n 2'
_symmetry_Int_Tables_number      34
_space_group_name_Hall           'P 2 -2n'
loop_
_symmetry_equiv_pos_site_id
_symmetry_equiv_pos_as_xyz
1 x,y,z
2 -x,-y,z
3 1/2-x,1/2+y,1/2+z
4 1/2+x,1/2-y,1/2+z
_cell_length_a                   22.3698(11)
_cell_length_b                   22.4296(16)
_cell_length_c                   15.3707(7)
_cell_angle_alpha                90
_cell_angle_beta                 90
_cell_angle_gamma                90
_cell_volume                     7712.18
loop_
_atom_site_label
_atom_site_type_symbol
_atom_site_fract_x
_atom_site_fract_y
_atom_site_fract_z
Co1 Co 0.74806(2) 0.26235(3) 1.03062(6)
N1 N 0.74285(18) 0.1698(2) 1.0203(3)
C1 C 0.7421(2) 0.1186(3) 1.0282(4)
S1 S 0.74027(11) 0.04599(6) 1.03888(18)
N2 N 0.75022(18) 0.35535(18) 1.0409(4)
C2 C 0.7492(2) 0.40689(19) 1.0366(4)
S2 S 0.74847(9) 0.47821(6) 1.02980(16)
N3 N 0.8173(2) 0.2646(2) 0.9323(3)
C3 C 0.8632(2) 0.3026(3) 0.9388(4)
H1 H 0.8602 0.3346 0.9789
C4 C 0.9143(2) 0.2974(3) 0.8904(4)
H2 H 0.9462 0.3248 0.8986
C5 C 0.9197(3) 0.2517(3) 0.8285(4)
C6 C 0.8705(3) 0.2140(3) 0.8203(4)
H3 H 0.8714 0.1826 0.7789
C7 C 0.8213(2) 0.2215(3) 0.8708(4)
H4 H 0.7882 0.1955 0.8627
C8 C 0.9730(3) 0.2412(3) 0.7771(5)
H5 H 0.9699 0.2145 0.7294
C9 C 1.0256(2) 0.2660(3) 0.7918(5)
H6 H 1.0292 0.2924 0.8399
C10 C 1.0791(2) 0.2553(3) 0.7377(4)
C11 C 1.1289(2) 0.2931(3) 0.7447(4)
H7 H 1.1290 0.3243 0.7865
C12 C 1.1784(3) 0.2850(3) 0.6902(4)
H8 H 1.2111 0.3119 0.6940
C13 C 1.1344(2) 0.2022(2) 0.6300(4)
H9 H 1.1369 0.1695 0.5910
C14 C 1.0843(2) 0.2080(2) 0.6797(4)
H10 H 1.0529 0.1797 0.6747
N4 N 1.1806(2) 0.2407(2) 0.6334(3)
N5 N 0.6761(2) 0.2686(2) 0.9370(3)
C15 C 0.6315(2) 0.2294(2) 0.9442(4)
H11 H 0.6354 0.1977 0.9849
C16 C 0.5796(2) 0.2328(3) 0.8950(4)
H12 H 0.5484 0.2046 0.9031
C17 C 0.5738(2) 0.2772(3) 0.8344(4)
C18 C 0.6202(2) 0.3179(3) 0.8254(4)
H13 H 0.6178 0.3492 0.7840
C19 C 0.6705(2) 0.3119(3) 0.8781(4)
H14 H 0.7021 0.3398 0.8718
C20 C 0.5200(2) 0.2831(2) 0.7799(4)
H15 H 0.5212 0.3104 0.7327
C21 C 0.4699(2) 0.2524(3) 0.7928(5)
H16 H 0.4682 0.2278 0.8431
C22 C 0.4169(3) 0.2531(2) 0.7362(4)
C23 C 0.3736(2) 0.2096(2) 0.7459(4)
H17 H 0.3770 0.1809 0.7910
C24 C 0.3252(2) 0.2082(3) 0.6894(4)
H18 H 0.2961 0.1778 0.6967
C25 C 0.3598(2) 0.2911(2) 0.6183(4)
H19 H 0.3549 0.3203 0.5740
C26 C 0.4089(2) 0.2953(2) 0.6713(4)
H20 H 0.4370 0.3266 0.6637
N6 N 0.3177(2) 0.2478(2) 0.6253(3)
Co1C Co 0.24806(2) 0.23765(3) 0.53062(6)
Co1C_2 Co 1.24806(2) 0.23765(3) 0.53062(6)
N4C N 0.6806(2) 0.2593(2) 1.1334(3)
N6C N 0.8177(2) 0.2522(2) 1.1253(3)
Co2 Co 0.75553(3) -0.23789(2) 1.04067(5)
N7 N 0.66189(19) -0.24203(17) 1.0426(4)
C27 C 0.6104(2) -0.2494(2) 1.0418(4)
S3 S 0.53951(6) -0.26009(11) 1.03899(18)
N8 N 0.84792(18) -0.23491(18) 1.0373(4)
C28 C 0.8991(2) -0.2401(2) 1.0385(4)
S4 S 0.97128(6) -0.24874(8) 1.03817(17)
N9 N 0.7533(2) -0.1692(2) 1.1388(3)
C29 C 0.7075(3) -0.1619(2) 1.1948(4)
H21 H 0.6790 -0.1931 1.1996
C30 C 0.6994(3) -0.1122(2) 1.2451(4)
H22 H 0.6659 -0.1094 1.2828
C31 C 0.7406(3) -0.0659(2) 1.2405(4)
C32 C 0.7884(3) -0.0727(2) 1.1856(4)
H23 H 0.8180 -0.0424 1.1816
C33 C 0.7935(3) -0.1243(2) 1.1358(4)
H24 H 0.8268 -0.1281 1.0979
C34 C 0.7300(3) -0.0120(2) 1.2907(5)
H25 H 0.6979 -0.0124 1.3312
C35 C 0.7619(3) 0.0377(2) 1.2841(5)
H26 H 0.7928 0.0384 1.2418
C36 C 0.7533(3) 0.0918(3) 1.3371(4)
C37 C 0.7057(2) 0.0992(2) 1.3930(4)
H27 H 0.6755 0.0696 1.3965
C38 C 0.7020(3) 0.1506(2) 1.4447(4)
H28 H 0.6692 0.1548 1.4834
C39 C 0.7886(3) 0.1875(2) 1.3839(4)
H29 H 0.8178 0.2182 1.3799
C40 C 0.7942(3) 0.1382(2) 1.3309(4)
H30 H 0.8260 0.1360 1.2901
N10 N 0.7432(2) 0.1940(2) 1.4414(3)
N11 N 0.7484(2) -0.1683(2) 0.9427(3)
C41 C 0.7095(3) -0.1230(2) 0.9541(4)
H31 H 0.6815 -0.1258 1.0003
C42 C 0.7083(2) -0.0737(2) 0.9029(4)
H32 H 0.6808 -0.0424 0.9146
C43 C 0.7477(3) -0.0694(3) 0.8331(4)
C44 C 0.7863(3) -0.1166(3) 0.8190(4)
H33 H 0.8129 -0.1162 0.7709
C45 C 0.7859(3) -0.1653(2) 0.8765(4)
H34 H 0.8133 -0.1970 0.8675
C46 C 0.7502(3) -0.0165(2) 0.7759(5)
H35 H 0.7690 -0.0208 0.7209
C47 C 0.7277(3) 0.0368(2) 0.7965(5)
H36 H 0.7067 0.0405 0.8500
C48 C 0.7334(3) 0.0901(3) 0.7416(4)
C49 C 0.6960(3) 0.1386(2) 0.7543(4)
H37 H 0.6670 0.1383 0.7995
C50 C 0.7017(3) 0.1882(3) 0.6995(4)
H38 H 0.6755 0.2211 0.7078
C51 C 0.7796(2) 0.1444(2) 0.6259(4)
H39 H 0.8092 0.1464 0.5817
C52 C 0.7763(3) 0.0937(2) 0.6770(4)
H40 H 0.8033 0.0617 0.6678
N12 N 0.7421(2) 0.19110(19) 0.6365(3)
Co2B Co 0.74447(3) 0.26211(2) 0.54067(5)
Co2B_2 Co 0.74447(3) 0.26211(2) 1.54067(5)
N10B N 0.7568(2) -0.3060(2) 0.9414(3)
N12B N 0.7579(2) -0.30890(19) 1.1365(3)
N13 N 0.9622(4) 0.5853(3) 0.6652(5)
C53 C 0.9232(5) 0.5839(4) 0.5997(7)
H41 H 0.8816 0.5849 0.6124
C54 C 0.9417(4) 0.5811(3) 0.5125(6)
H42 H 0.9131 0.5788 0.4669
C55 C 1.0029(4) 0.5817(3) 0.4937(6)
C56 C 1.0415(5) 0.5825(4) 0.5614(6)
H43 H 1.0834 0.5823 0.5517
C57 C 1.0188(5) 0.5837(5) 0.6452(7)
H44 H 1.0467 0.5834 0.6918
C58 C 1.0271(4) 0.5785(4) 0.4014(7)
H45 H 1.0690 0.5727 0.3957
C59 C 0.9982(4) 0.5825(3) 0.3325(6)
H46 H 0.9564 0.5890 0.3369
C60 C 1.0247(3) 0.5778(3) 0.2423(5)
C61 C 0.9905(4) 0.5977(4) 0.1744(6)
H47 H 0.9521 0.6145 0.1842
C62 C 1.0135(4) 0.5925(4) 0.0903(6)
H48 H 0.9891 0.6054 0.0434
C63 C 1.0998(4) 0.5517(4) 0.1381(7)
H49 H 1.1382 0.5353 0.1265
C64 C 1.0804(4) 0.5545(3) 0.2233(6)
H50 H 1.1054 0.5405 0.2689
N14 N 1.0670(3) 0.5709(3) 0.0715(5)
N15 N 0.5768(3) 0.4377(3) 0.4991(5)
C65 C 0.5986(4) 0.4907(5) 0.4782(7)
H51 H 0.6131 0.5151 0.5241
C66 C 0.6016(4) 0.5132(4) 0.3949(6)
H52 H 0.6183 0.5515 0.3848
C67 C 0.5807(3) 0.4802(4) 0.3272(5)
C68 C 0.5584(4) 0.4241(4) 0.3453(6)
H53 H 0.5443 0.3993 0.2996
C69 C 0.5566(4) 0.4041(4) 0.4320(6)
H54 H 0.5406 0.3657 0.4439
C70 C 0.5834(3) 0.5061(4) 0.2376(7)
H55 H 0.5910 0.5476 0.2331
C71 C 0.5764(4) 0.4776(4) 0.1677(7)
H56 H 0.5684 0.4362 0.1733
C72 C 0.5792(3) 0.5015(4) 0.0763(6)
C73 C 0.5797(3) 0.5619(4) 0.0584(5)
H57 H 0.5797 0.5903 0.1042
C74 C 0.5803(4) 0.5808(4) -0.0309(6)
H58 H 0.5798 0.6223 -0.0432
C75 C 0.5804(4) 0.4843(5) -0.0766(6)
H59 H 0.5807 0.4562 -0.1228
C76 C 0.5790(4) 0.4635(4) 0.0068(7)
H60 H 0.5778 0.4217 0.0168
N16 N 0.5815(3) 0.5428(3) -0.0968(5)
O1 O 1.0450(3) 0.4249(2) -0.1485(4)
H61 H 1.0516 0.4188 -0.2015
H62 H 1.0506 0.4605 -0.1335
O2 O 0.5698(2) 0.5514(2) 0.7185(4)
H63 H 0.5740 0.5533 0.7727
H64 H 0.5815 0.5165 0.7081
O3 O 1.0756(3) 0.5449(3) -0.1151(4)
H65 H 1.1130 0.5481 -0.1165
H66 H 1.0621 0.5513 -0.0650
O4 O 0.5535(3) 0.4292(2) 0.6832(4)
H67 H 0.5630 0.4170 0.6335
H68 H 0.5165 0.4271 0.6743
loop_
_geom_bond_atom_site_label_1
_geom_bond_atom_site_label_2
_geom_bond_site_symmetry_1
_geom_bond_site_symmetry_2
Co1 N1 1_555 1_555
N1 C1 1_555 1_555
C1 S1 1_555 1_555
N2 Co1 1_555 1_555
C2 N2 1_555 1_555
S2 C2 1_555 1_555
N3 Co1 1_555 1_555
C3 N3 1_555 1_555
H1 C3 1_555 1_555
C4 C3 1_555 1_555
H2 C4 1_555 1_555
C5 C4 1_555 1_555
C6 C5 1_555 1_555
H3 C6 1_555 1_555
C7 N3 1_555 1_555
H4 C7 1_555 1_555
C8 C5 1_555 1_555
H5 C8 1_555 1_555
C9 C8 1_555 1_555
H6 C9 1_555 1_555
C10 C9 1_555 1_555
C11 C10 1_555 1_555
H7 C11 1_555 1_555
C12 C11 1_555 1_555
H8 C12 1_555 1_555
C13 H9 1_555 1_555
C14 C10 1_555 1_555
H10 C14 1_555 1_555
N4 C12 1_555 1_555
N5 Co1 1_555 1_555
C15 N5 1_555 1_555
H11 C15 1_555 1_555
C16 C15 1_555 1_555
H12 C16 1_555 1_555
C17 C16 1_555 1_555
C18 C17 1_555 1_555
H13 C18 1_555 1_555
C19 N5 1_555 1_555
H14 C19 1_555 1_555
C20 C17 1_555 1_555
H15 C20 1_555 1_555
C21 C20 1_555 1_555
H16 C21 1_555 1_555
C22 C21 1_555 1_555
C23 C22 1_555 1_555
H17 C23 1_555 1_555
C24 C23 1_555 1_555
H18 C24 1_555 1_555
C25 H19 1_555 1_555
C26 C22 1_555 1_555
H20 C26 1_555 1_555
N6 C24 1_555 1_555
Co2 N7 1_555 1_555
N7 C27 1_555 1_555
C27 S3 1_555 1_555
N8 Co2 1_555 1_555
C28 N8 1_555 1_555
S4 C28 1_555 1_555
N9 Co2 1_555 1_555
C29 N9 1_555 1_555
H21 C29 1_555 1_555
C30 C29 1_555 1_555
H22 C30 1_555 1_555
C31 C30 1_555 1_555
C32 C31 1_555 1_555
H23 C32 1_555 1_555
C33 N9 1_555 1_555
H24 C33 1_555 1_555
C34 C31 1_555 1_555
H25 C34 1_555 1_555
C35 C34 1_555 1_555
H26 C35 1_555 1_555
C36 C35 1_555 1_555
C37 C36 1_555 1_555
H27 C37 1_555 1_555
C38 C37 1_555 1_555
H28 C38 1_555 1_555
C39 H29 1_555 1_555
C40 C36 1_555 1_555
H30 C40 1_555 1_555
N10 C38 1_555 1_555
N11 Co2 1_555 1_555
C41 N11 1_555 1_555
H31 C41 1_555 1_555
C42 C41 1_555 1_555
H32 C42 1_555 1_555
C43 C42 1_555 1_555
C44 C43 1_555 1_555
H33 C44 1_555 1_555
C45 N11 1_555 1_555
H34 C45 1_555 1_555
C46 C43 1_555 1_555
H35 C46 1_555 1_555
C47 C46 1_555 1_555
H36 C47 1_555 1_555
C48 C47 1_555 1_555
C49 C48 1_555 1_555
H37 C49 1_555 1_555
C50 C49 1_555 1_555
H38 C50 1_555 1_555
C51 H39 1_555 1_555
C52 C48 1_555 1_555
H40 C52 1_555 1_555
N12 C50 1_555 1_555
N13 C53 1_555 1_555
C53 H41 1_555 1_555
C54 C53 1_555 1_555
H42 C54 1_555 1_555
C55 C54 1_555 1_555
C56 C55 1_555 1_555
H43 C56 1_555 1_555
C57 N13 1_555 1_555
H44 C57 1_555 1_555
C58 C55 1_555 1_555
H45 C58 1_555 1_555
C59 C58 1_555 1_555
H46 C59 1_555 1_555
C60 C59 1_555 1_555
C61 C60 1_555 1_555
H47 C61 1_555 1_555
C62 C61 1_555 1_555
H48 C62 1_555 1_555
C63 H49 1_555 1_555
C64 C60 1_555 1_555
H50 C64 1_555 1_555
N14 C62 1_555 1_555
N15 C65 1_555 1_555
C65 H51 1_555 1_555
C66 C65 1_555 1_555
H52 C66 1_555 1_555
C67 C66 1_555 1_555
C68 C67 1_555 1_555
H53 C68 1_555 1_555
C69 N15 1_555 1_555
H54 C69 1_555 1_555
C70 C67 1_555 1_555
H55 C70 1_555 1_555
C71 C70 1_555 1_555
H56 C71 1_555 1_555
C72 C71 1_555 1_555
C73 C72 1_555 1_555
H57 C73 1_555 1_555
C74 C73 1_555 1_555
H58 C74 1_555 1_555
C75 H59 1_555 1_555
C76 C72 1_555 1_555
H60 C76 1_555 1_555
N16 C74 1_555 1_555
O1 H61 1_555 1_555
H62 O1 1_555 1_555
O2 H63 1_555 1_555
H64 O2 1_555 1_555
O3 H65 1_555 1_555
H66 O3 1_555 1_555
O4 H67 1_555 1_555
H68 O4 1_555 1_555
Co1C N6 1_555 1_555
Co1C_2 N4 1_555 1_555
N4C Co1 1_555 1_555
N6C Co1 1_555 1_555
Co2B N12 1_555 1_555
Co2B_2 N10 1_555 1_555
N10B Co2 1_555 1_555
N12B Co2 1_555 1_555
C6 C7 1_555 1_555
C13 C14 1_555 1_555
C13 N4 1_555 1_555
C18 C19 1_555 1_555
C25 C26 1_555 1_555
C25 N6 1_555 1_555
C32 C33 1_555 1_555
C39 C40 1_555 1_555
C39 N10 1_555 1_555
C44 C45 1_555 1_555
C51 C52 1_555 1_555
C51 N12 1_555 1_555
C56 C57 1_555 1_555
C63 C64 1_555 1_555
C63 N14 1_555 1_555
C68 C69 1_555 1_555
C75 C76 1_555 1_555
C75 N16 1_555 1_555

#END
