
#######################################################################
#
#                 Cambridge Crystallographic Data Centre
#                                CCDC 
#
#######################################################################
#
# If this CIF has been generated from an entry in the Cambridge 
# Structural Database, then it will include bibliographic, chemical, 
# crystal, experimental, refinement or atomic coordinate data resulting 
# from the CCDC's data processing and validation procedures.
#
#######################################################################

data_NIKREG
_symmetry_cell_setting           orthorhombic
_symmetry_space_group_name_H-M   'C m c a'
_symmetry_Int_Tables_number      64
_space_group_name_Hall           '-C 2ac 2'
loop_
_symmetry_equiv_pos_site_id
_symmetry_equiv_pos_as_xyz
1 x,y,z
2 -x,1/2-y,1/2+z
3 x,-y,-z
4 -x,1/2+y,1/2-z
5 1/2+x,1/2+y,z
6 1/2-x,-y,1/2+z
7 1/2+x,1/2-y,-z
8 1/2-x,y,1/2-z
9 -x,-y,-z
10 x,1/2+y,1/2-z
11 -x,y,z
12 x,1/2-y,1/2+z
13 1/2-x,1/2-y,-z
14 1/2+x,y,1/2-z
15 1/2-x,1/2+y,z
16 1/2+x,-y,1/2+z
_cell_length_a                   19.0530(10)
_cell_length_b                   8.0559(5)
_cell_length_c                   16.1952(9)
_cell_angle_alpha                90
_cell_angle_beta                 90
_cell_angle_gamma                90
_cell_volume                     2485.79
loop_
_atom_site_label
_atom_site_type_symbol
_atom_site_fract_x
_atom_site_fract_y
_atom_site_fract_z
Fe1 Fe 0.5000 0.0000 0.5000
N1 N 0.5000 0.1936(5) 0.5832(3)
C1 C 0.5000 0.3240(5) 0.6134(3)
S1 S 0.5000 0.50646(16) 0.65366(9)
N2 N 0.41517(13) 0.1291(3) 0.42501(17)
C2 C 0.37695(15) 0.2524(4) 0.4557(2)
H1 H 0.3819 0.2818 0.5109
C3 C 0.32962(17) 0.3380(4) 0.4062(2)
C4 C 0.3600(2) 0.1830(6) 0.2972(2)
H2 H 0.3561 0.1563 0.2415
C5 C 0.4057(2) 0.0943(5) 0.3454(2)
H3 H 0.4309 0.0073 0.3219
N3 N 0.32128(18) 0.3053(4) 0.3271(2)
S2 S 0.27348(5) 0.50102(12) 0.43778(8)
N2B N 0.41517(13) 0.8709(3) 0.57499(17)
C2B C 0.37695(15) 0.7476(4) 0.5443(2)
H1B H 0.3819 0.7182 0.4891
C3B C 0.32962(17) 0.6620(4) 0.5938(2)
C4B C 0.3600(2) 0.8170(6) 0.7028(2)
H2B H 0.3561 0.8437 0.7585
C5B C 0.4057(2) 0.9057(5) 0.6546(2)
H3B H 0.4309 0.9927 0.6781
N3B N 0.32128(18) 0.6947(4) 0.6729(2)
S2B S 0.27348(5) 0.49898(12) 0.56222(8)
N1B N 0.5000 -0.1936(5) 0.4168(3)
C1B C 0.5000 -0.3240(5) 0.3866(3)
S1B S 0.5000 -0.50646(16) 0.34634(9)
N2J N 0.58483(13) 0.1291(3) 0.42501(17)
C2J C 0.62305(15) 0.2524(4) 0.4557(2)
H1J H 0.6181 0.2818 0.5109
C3J C 0.67038(17) 0.3380(4) 0.4062(2)
C4J C 0.6400(2) 0.1830(6) 0.2972(2)
H2J H 0.6439 0.1563 0.2415
C5J C 0.5943(2) 0.0943(5) 0.3454(2)
H3J H 0.5691 0.0073 0.3219
N3J N 0.67872(18) 0.3053(4) 0.3271(2)
S2J S 0.72652(5) 0.50102(12) 0.43778(8)
N2H N 0.58483(13) 0.8709(3) 0.57499(17)
C2H C 0.62305(15) 0.7476(4) 0.5443(2)
H1H H 0.6181 0.7182 0.4891
C3H C 0.67038(17) 0.6620(4) 0.5938(2)
C4H C 0.6400(2) 0.8170(6) 0.7028(2)
H2H H 0.6439 0.8437 0.7585
C5H C 0.5943(2) 0.9057(5) 0.6546(2)
H3H H 0.5691 0.9927 0.6781
N3H N 0.67872(18) 0.6947(4) 0.6729(2)
S2H S 0.72652(5) 0.49898(12) 0.56222(8)
Fe1_2 Fe 0.5000 1.0000 0.5000
N2B_2 N 0.41517(13) -0.1291(3) 0.57499(17)
N2H_2 N 0.58483(13) -0.1291(3) 0.57499(17)
loop_
_geom_bond_atom_site_label_1
_geom_bond_atom_site_label_2
_geom_bond_site_symmetry_1
_geom_bond_site_symmetry_2
Fe1 N1 1_555 1_555
N1 C1 1_555 1_555
C1 S1 1_555 1_555
N2 Fe1 1_555 1_555
C2 N2 1_555 1_555
H1 C2 1_555 1_555
C3 C2 1_555 1_555
C4 H2 1_555 1_555
C5 N2 1_555 1_555
H3 C5 1_555 1_555
N3 C3 1_555 1_555
S2 C3 1_555 1_555
N2B C2B 1_555 1_555
C2B H1B 1_555 1_555
C3B C2B 1_555 1_555
C4B H2B 1_555 1_555
C5B N2B 1_555 1_555
H3B C5B 1_555 1_555
N3B C3B 1_555 1_555
S2B S2 1_555 1_555
N1B Fe1 1_555 1_555
C1B N1B 1_555 1_555
S1B C1B 1_555 1_555
N2J Fe1 1_555 1_555
C2J N2J 1_555 1_555
H1J C2J 1_555 1_555
C3J C2J 1_555 1_555
C4J H2J 1_555 1_555
C5J N2J 1_555 1_555
H3J C5J 1_555 1_555
N3J C3J 1_555 1_555
S2J C3J 1_555 1_555
N2H C2H 1_555 1_555
C2H H1H 1_555 1_555
C3H C2H 1_555 1_555
C4H H2H 1_555 1_555
C5H N2H 1_555 1_555
H3H C5H 1_555 1_555
N3H C3H 1_555 1_555
S2H S2J 1_555 1_555
Fe1_2 N2B 1_555 1_555
N2B_2 Fe1 1_555 1_555
N2H_2 Fe1 1_555 1_555
C4 C5 1_555 1_555
C4 N3 1_555 1_555
C3B S2B 1_555 1_555
C4B C5B 1_555 1_555
C4B N3B 1_555 1_555
C4J C5J 1_555 1_555
C4J N3J 1_555 1_555
N2H Fe1_2 1_555 1_555
C3H S2H 1_555 1_555
C4H C5H 1_555 1_555
C4H N3H 1_555 1_555

#END
