
#######################################################################
#
#                 Cambridge Crystallographic Data Centre
#                                CCDC 
#
#######################################################################
#
# If this CIF has been generated from an entry in the Cambridge 
# Structural Database, then it will include bibliographic, chemical, 
# crystal, experimental, refinement or atomic coordinate data resulting 
# from the CCDC's data processing and validation procedures.
#
#######################################################################

data_NIKZUE
_symmetry_cell_setting           triclinic
_symmetry_space_group_name_H-M   'P -1'
_symmetry_Int_Tables_number      2
_space_group_name_Hall           '-P 1'
loop_
_symmetry_equiv_pos_site_id
_symmetry_equiv_pos_as_xyz
1 x,y,z
2 -x,-y,-z
_cell_length_a                   9.7629(11)
_cell_length_b                   11.5128(7)
_cell_length_c                   12.6274(10)
_cell_angle_alpha                74.605(6)
_cell_angle_beta                 72.647(9)
_cell_angle_gamma                72.200(8)
_cell_volume                     1265.9
loop_
_atom_site_label
_atom_site_type_symbol
_atom_site_fract_x
_atom_site_fract_y
_atom_site_fract_z
Gd1 Gd 1.28617(4) -0.04212(3) 0.05086(3)
O1 O 1.1391(5) -0.1647(4) 0.2176(4)
O2 O 1.0633(5) 0.0377(4) 0.1814(4)
O3 O 0.7730(6) 0.1027(4) 0.2904(4)
O4 O 0.4219(7) 0.6618(4) 0.3293(5)
O5 O 0.2688(6) 0.5964(4) 0.2723(5)
H1 H 0.2320 0.6709 0.2546
O6 O 1.4008(6) 0.1131(4) 0.0383(4)
O7 O 1.5527(5) 0.2368(4) -0.0294(4)
O8 O 0.9961(6) 0.6473(4) 0.1329(4)
O9 O 0.8624(5) 0.8675(4) 0.0525(4)
O10 O 0.6529(5) 0.9571(4) 0.1556(3)
O11 O 1.3875(5) -0.0921(4) 0.2151(4)
H2 H 1.4799 -0.0970 0.1936
H3 H 1.3729 -0.1615 0.2546
O12 O 1.1529(5) -0.1352(3) -0.0253(4)
H4 H 1.1988 -0.1424 -0.0928
H5 H 1.0663 -0.0887 -0.0246
C1 C 1.0547(7) -0.0652(6) 0.2476(6)
C2 C 0.9519(8) -0.0676(5) 0.3600(5)
C3 C 0.9905(9) -0.1577(6) 0.4498(6)
H6 H 1.0786 -0.2184 0.4366
C4 C 0.9039(10) -0.1614(7) 0.5580(6)
H7 H 0.9331 -0.2230 0.6171
C5 C 0.7730(10) -0.0719(7) 0.5772(7)
H8 H 0.7145 -0.0725 0.6504
C6 C 0.7270(9) 0.0191(7) 0.4894(7)
H9 H 0.6367 0.0773 0.5027
C7 C 0.8175(8) 0.0215(6) 0.3820(6)
C8 C 0.6768(8) 0.2183(7) 0.3024(6)
C9 C 0.7028(9) 0.3007(7) 0.3497(7)
H10 H 0.7840 0.2776 0.3815
C10 C 0.6105(8) 0.4169(7) 0.3507(7)
H11 H 0.6287 0.4722 0.3837
C11 C 0.4907(8) 0.4525(6) 0.3030(6)
C12 C 0.4618(8) 0.3693(6) 0.2570(6)
H12 H 0.3791 0.3920 0.2269
C13 C 0.5558(8) 0.2517(6) 0.2554(6)
H13 H 0.5378 0.1958 0.2230
C14 C 0.3906(9) 0.5810(6) 0.3035(6)
C15 C 1.4262(8) 0.2205(6) 0.0134(5)
C16 C 1.3008(7) 0.3311(5) 0.0419(5)
C17 C 1.3331(8) 0.4478(5) 0.0057(6)
H14 H 1.4248 0.4558 -0.0411
C18 C 1.2297(8) 0.5499(6) 0.0393(6)
H15 H 1.2512 0.6274 0.0168
C19 C 1.0932(8) 0.5372(6) 0.1066(6)
C20 C 1.0565(8) 0.4240(6) 0.1370(6)
H16 H 0.9621 0.4173 0.1787
C21 C 1.1638(8) 0.3204(5) 0.1040(6)
H17 H 1.1415 0.2433 0.1246
C22 C 0.9038(8) 0.6579(5) 0.2375(5)
C23 C 0.9239(8) 0.5689(6) 0.3343(6)
H18 H 0.9999 0.4968 0.3299
C24 C 0.8291(8) 0.5895(6) 0.4368(6)
H19 H 0.8427 0.5310 0.5020
C25 C 0.7152(9) 0.6944(7) 0.4448(6)
H20 H 0.6504 0.7060 0.5142
C26 C 0.6988(8) 0.7812(6) 0.3493(6)
H21 H 0.6230 0.8532 0.3550
C27 C 0.7901(7) 0.7662(5) 0.2450(5)
C28 C 0.7682(8) 0.8675(5) 0.1460(6)
Gd1A Gd 0.71383(4) 1.04212(3) -0.05086(3)
Gd1A_2 Gd 1.71383(4) 0.04212(3) -0.05086(3)
O6A O 1.5992(6) -0.1131(4) -0.0383(4)
O7A O 1.4473(5) -0.2368(4) 0.0294(4)
O9A O 1.1376(5) 0.1325(4) -0.0525(4)
O10A O 1.3471(5) 0.0429(4) -0.1556(3)
loop_
_geom_bond_atom_site_label_1
_geom_bond_atom_site_label_2
_geom_bond_site_symmetry_1
_geom_bond_site_symmetry_2
Gd1 O1 1_555 1_555
O1 C1 1_555 1_555
O2 Gd1 1_555 1_555
O3 C7 1_555 1_555
O4 C14 1_555 1_555
O5 H1 1_555 1_555
O6 Gd1 1_555 1_555
O7 C15 1_555 1_555
O8 C19 1_555 1_555
O9 C28 1_555 1_555
O10 C28 1_555 1_555
O11 Gd1 1_555 1_555
H2 O11 1_555 1_555
H3 O11 1_555 1_555
O12 Gd1 1_555 1_555
H4 O12 1_555 1_555
H5 O12 1_555 1_555
C1 O2 1_555 1_555
C2 C1 1_555 1_555
C3 C2 1_555 1_555
H6 C3 1_555 1_555
C4 C3 1_555 1_555
H7 C4 1_555 1_555
C5 C4 1_555 1_555
H8 C5 1_555 1_555
C6 C5 1_555 1_555
H9 C6 1_555 1_555
C7 C2 1_555 1_555
C8 O3 1_555 1_555
C9 C8 1_555 1_555
H10 C9 1_555 1_555
C10 C9 1_555 1_555
H11 C10 1_555 1_555
C11 C10 1_555 1_555
C12 C11 1_555 1_555
H12 C12 1_555 1_555
C13 C8 1_555 1_555
H13 C13 1_555 1_555
C14 O5 1_555 1_555
C15 O6 1_555 1_555
C16 C15 1_555 1_555
C17 C16 1_555 1_555
H14 C17 1_555 1_555
C18 C17 1_555 1_555
H15 C18 1_555 1_555
C19 C18 1_555 1_555
C20 C19 1_555 1_555
H16 C20 1_555 1_555
C21 C16 1_555 1_555
H17 C21 1_555 1_555
C22 O8 1_555 1_555
C23 C22 1_555 1_555
H18 C23 1_555 1_555
C24 C23 1_555 1_555
H19 C24 1_555 1_555
C25 C24 1_555 1_555
H20 C25 1_555 1_555
C26 C25 1_555 1_555
H21 C26 1_555 1_555
C27 C22 1_555 1_555
C28 C27 1_555 1_555
Gd1A O9 1_555 1_555
Gd1A_2 O6 1_555 1_555
O6A Gd1 1_555 1_555
O7A Gd1 1_555 1_555
O9A Gd1 1_555 1_555
O10A Gd1 1_555 1_555
O7 Gd1A_2 1_555 1_555
O10 Gd1A 1_555 1_555
C6 C7 1_555 1_555
C11 C14 1_555 1_555
C12 C13 1_555 1_555
C20 C21 1_555 1_555
C26 C27 1_555 1_555
Gd1A_2 O6A 1_555 1_555

#END
