
#######################################################################
#
#                 Cambridge Crystallographic Data Centre
#                                CCDC 
#
#######################################################################
#
# If this CIF has been generated from an entry in the Cambridge 
# Structural Database, then it will include bibliographic, chemical, 
# crystal, experimental, refinement or atomic coordinate data resulting 
# from the CCDC's data processing and validation procedures.
#
#######################################################################

data_NILBER
_symmetry_cell_setting           triclinic
_symmetry_space_group_name_H-M   'P -1'
_symmetry_Int_Tables_number      2
_space_group_name_Hall           '-P 1'
loop_
_symmetry_equiv_pos_site_id
_symmetry_equiv_pos_as_xyz
1 x,y,z
2 -x,-y,-z
_cell_length_a                   9.7896(8)
_cell_length_b                   11.5519(8)
_cell_length_c                   12.6529(19)
_cell_angle_alpha                74.677(9)
_cell_angle_beta                 72.626(10)
_cell_angle_gamma                72.086(7)
_cell_volume                     1275.77
loop_
_atom_site_label
_atom_site_type_symbol
_atom_site_fract_x
_atom_site_fract_y
_atom_site_fract_z
C1 C 0.5551(8) -0.0666(7) 0.2480(7)
C2 C 0.4521(8) -0.0687(7) 0.3603(7)
C3 C 0.4921(10) -0.1584(7) 0.4490(8)
H1 H 0.5800 -0.2191 0.4358
C4 C 0.4041(11) -0.1606(8) 0.5586(9)
H2 H 0.4344 -0.2211 0.6177
C5 C 0.2748(11) -0.0747(8) 0.5784(9)
H3 H 0.2162 -0.0772 0.6515
C6 C 0.2275(10) 0.0172(8) 0.4925(9)
H4 H 0.1383 0.0760 0.5076
C7 C 0.3150(9) 0.0206(7) 0.3831(8)
C8 C 0.1758(8) 0.2172(7) 0.3030(8)
C9 C 0.2017(9) 0.2995(8) 0.3510(9)
H5 H 0.2819 0.2763 0.3836
C10 C 0.1099(9) 0.4152(8) 0.3508(9)
H6 H 0.1280 0.4704 0.3837
C11 C -0.0091(8) 0.4515(7) 0.3027(8)
C12 C -0.0356(9) 0.3674(7) 0.2572(8)
H7 H -0.1175 0.3896 0.2266
C13 C 0.0565(9) 0.2516(7) 0.2560(8)
H8 H 0.0384 0.1961 0.2234
C14 C -0.1056(9) 0.5795(8) 0.3027(8)
C15 C 0.7313(9) 0.1300(7) -0.1433(8)
C16 C 0.7101(8) 0.2320(6) -0.2439(7)
C17 C 0.5969(8) 0.3400(6) -0.2373(7)
C18 C 0.5760(9) 0.4283(7) -0.3340(8)
H9 H 0.4989 0.4994 -0.3292
C19 C 0.6703(10) 0.4096(8) -0.4365(8)
H10 H 0.6564 0.4683 -0.5012
C20 C 0.7857(9) 0.3043(8) -0.4443(8)
H11 H 0.8506 0.2923 -0.5134
C21 C 0.8020(8) 0.2176(7) -0.3474(8)
H12 H 0.8788 0.1464 -0.3526
C22 C 0.4068(8) 0.4620(6) -0.1060(7)
C23 C 0.2687(9) 0.4512(7) -0.0381(8)
H13 H 0.2463 0.3744 -0.0142
C24 C 0.0766(9) 0.7819(7) -0.0154(7)
C25 C 0.1991(8) 0.6705(6) -0.0435(7)
C26 C 0.1657(8) 0.5557(6) -0.0067(7)
H14 H 0.0734 0.5494 0.0393
C27 C 0.3400(8) 0.6771(7) -0.1052(7)
H15 H 0.3651 0.7527 -0.1252
C28 C 0.4441(9) 0.5734(7) -0.1377(8)
H16 H 0.5381 0.5790 -0.1805
O1 O 0.6560(5) -0.1361(4) -0.0260(5)
H17 H 0.6704 -0.1096 -0.0968
H18 H 0.5638 -0.1159 0.0030
O2 O 0.8867(5) -0.0934(4) 0.2136(5)
H19 H 0.8830 -0.1673 0.2481
H20 H 0.9769 -0.0889 0.1923
O3 O 0.5632(6) 0.0367(5) 0.1817(5)
O4 O 0.6404(5) -0.1644(4) 0.2165(5)
O5 O 0.8476(5) 0.0419(4) -0.1543(5)
O6 O 0.6373(5) 0.1300(4) -0.0514(5)
O7 O 0.1040(6) 0.8876(4) -0.0395(5)
O8 O -0.2294(6) 0.5971(5) 0.2712(6)
H21 H -0.2747 0.6701 0.2675
O9 O -0.0761(7) 0.6609(5) 0.3288(6)
O10 O 0.5020(6) 0.3506(4) -0.1334(5)
O11 O 0.2714(6) 0.1012(6) 0.2910(6)
O12 O -0.0508(6) 0.7676(4) 0.0272(6)
Dy1 Dy 0.78435(4) -0.04220(3) 0.05158(4)
O7A O 0.8960(6) 0.1124(4) 0.0395(5)
O12_2 O 0.9492(6) -0.2324(4) 0.0272(6)
Dy1_2 Dy -0.21565(4) 0.95780(3) 0.05158(4)
Dy1A Dy 0.21565(4) 1.04220(3) -0.05158(4)
loop_
_geom_bond_atom_site_label_1
_geom_bond_atom_site_label_2
_geom_bond_site_symmetry_1
_geom_bond_site_symmetry_2
C1 C2 1_555 1_555
C2 C3 1_555 1_555
C3 H1 1_555 1_555
C4 C3 1_555 1_555
H2 C4 1_555 1_555
C5 C4 1_555 1_555
H3 C5 1_555 1_555
C6 C5 1_555 1_555
H4 C6 1_555 1_555
C7 C2 1_555 1_555
C8 C9 1_555 1_555
C9 H5 1_555 1_555
C10 C9 1_555 1_555
H6 C10 1_555 1_555
C11 C10 1_555 1_555
C12 C11 1_555 1_555
H7 C12 1_555 1_555
C13 C8 1_555 1_555
H8 C13 1_555 1_555
C14 C11 1_555 1_555
C15 C16 1_555 1_555
C16 C17 1_555 1_555
C17 C18 1_555 1_555
C18 H9 1_555 1_555
C19 C18 1_555 1_555
H10 C19 1_555 1_555
C20 C19 1_555 1_555
H11 C20 1_555 1_555
C21 C16 1_555 1_555
H12 C21 1_555 1_555
C22 C23 1_555 1_555
C23 H13 1_555 1_555
C24 C25 1_555 1_555
C25 C26 1_555 1_555
C26 C23 1_555 1_555
H14 C26 1_555 1_555
C27 C25 1_555 1_555
H15 C27 1_555 1_555
C28 C22 1_555 1_555
H16 C28 1_555 1_555
O1 H17 1_555 1_555
H18 O1 1_555 1_555
O2 H19 1_555 1_555
H20 O2 1_555 1_555
O3 C1 1_555 1_555
O4 C1 1_555 1_555
O5 C15 1_555 1_555
O6 C15 1_555 1_555
O7 C24 1_555 1_555
O8 C14 1_555 1_555
H21 O8 1_555 1_555
O9 C14 1_555 1_555
O10 C17 1_555 1_555
O11 C7 1_555 1_555
O12 C24 1_555 1_555
Dy1 O1 1_555 1_555
O7A Dy1 1_555 1_555
O12_2 Dy1 1_555 1_555
Dy1_2 O12 1_555 1_555
Dy1A O7 1_555 1_555
C6 C7 1_555 1_555
C8 O11 1_555 1_555
C12 C13 1_555 1_555
C20 C21 1_555 1_555
C22 O10 1_555 1_555
C27 C28 1_555 1_555
O2 Dy1 1_555 1_555
O3 Dy1 1_555 1_555
O4 Dy1 1_555 1_555
O5 Dy1 1_555 1_555
O6 Dy1 1_555 1_555

#END
