
#######################################################################
#
#                 Cambridge Crystallographic Data Centre
#                                CCDC 
#
#######################################################################
#
# If this CIF has been generated from an entry in the Cambridge 
# Structural Database, then it will include bibliographic, chemical, 
# crystal, experimental, refinement or atomic coordinate data resulting 
# from the CCDC's data processing and validation procedures.
#
#######################################################################

data_NILFAR
_symmetry_cell_setting           orthorhombic
_symmetry_space_group_name_H-M   'P 21 21 21'
_symmetry_Int_Tables_number      19
_space_group_name_Hall           'P 2ac 2ab'
loop_
_symmetry_equiv_pos_site_id
_symmetry_equiv_pos_as_xyz
1 x,y,z
2 1/2-x,-y,1/2+z
3 1/2+x,1/2-y,-z
4 -x,1/2+y,1/2-z
_cell_length_a                   10.1840(10)
_cell_length_b                   24.895(3)
_cell_length_c                   10.777(2)
_cell_angle_alpha                90
_cell_angle_beta                 90
_cell_angle_gamma                90
_cell_volume                     2732.3
loop_
_atom_site_label
_atom_site_type_symbol
_atom_site_fract_x
_atom_site_fract_y
_atom_site_fract_z
C1 C 0.0149(6) 0.4355(3) 0.3879(7)
C2 C 0.0206(7) 0.4144(3) 0.5219(6)
H1 H -0.0087 0.4437 0.5762
C3 C 0.2288(8) 0.3559(3) 0.5085(8)
H2 H 0.2521 0.3612 0.4221
H3 H 0.1784 0.3230 0.5163
C4 C 0.3503(8) 0.3546(3) 0.5904(8)
H4 H 0.3348 0.3302 0.6603
C5 C 0.3627(7) 0.4127(3) 0.6395(8)
H5 H 0.3951 0.4130 0.7242
H6 H 0.4215 0.4336 0.5879
C6 C 0.2257(6) 0.4342(3) 0.6333(6)
C7 C -0.0747(9) 0.3670(4) 0.5415(9)
H7 H -0.1625 0.3778 0.5168
H8 H -0.0482 0.3372 0.4890
C8 C -0.0770(11) 0.3486(5) 0.6760(10)
H9 H 0.0100 0.3384 0.7010
H10 H -0.1349 0.3184 0.6842
H11 H -0.1074 0.3774 0.7277
C9 C 0.4703(10) 0.3366(4) 0.5213(10)
H12 H 0.4942 0.3572 0.4529
C10 C 0.5426(12) 0.2968(5) 0.5449(14)
C11 C 0.4886(6) 0.4353(3) 0.2247(6)
C12 C 0.4823(6) 0.4173(3) 0.0893(6)
H13 H 0.5070 0.4481 0.0375
C13 C 0.2782(7) 0.3551(3) 0.1030(8)
H14 H 0.2553 0.3596 0.1897
H15 H 0.3300 0.3226 0.0938
C14 C 0.1524(9) 0.3529(3) 0.0200(7)
H16 H 0.1703 0.3305 -0.0529
C15 C 0.1373(7) 0.4106(3) -0.0208(8)
H17 H 0.1031 0.4125 -0.1047
H18 H 0.0783 0.4298 0.0342
C16 C 0.2723(7) 0.4338(3) -0.0147(6)
C17 C 0.0370(10) 0.3308(4) 0.0869(10)
H19 H 0.0180 0.3458 0.1638
C18 C -0.0378(14) 0.2938(4) 0.0497(14)
C19 C 0.5800(8) 0.3719(3) 0.0630(8)
H20 H 0.5564 0.3408 0.1122
H21 H 0.6671 0.3833 0.0882
C20 C 0.5831(10) 0.3559(4) -0.0756(8)
H22 H 0.4990 0.3418 -0.0994
H23 H 0.6492 0.3289 -0.0884
H24 H 0.6031 0.3869 -0.1251
N1 N 0.1561(7) 0.4017(2) 0.5568(5)
N2 N -0.0945(5) 0.4602(3) 0.3584(6)
H25 H -0.1065 0.4714 0.2838
H26 H -0.1542 0.4651 0.4137
N3 N 0.3496(6) 0.4020(2) 0.0559(5)
N4 N 0.5983(5) 0.4594(3) 0.2573(6)
H27 H 0.6088 0.4702 0.3324
H28 H 0.6595 0.4642 0.2035
O1 O 0.1038(4) 0.42719(19) 0.3141(4)
O2 O 0.3983(4) 0.42733(19) 0.2973(4)
F1 F 0.5238(10) 0.2635(3) 0.6413(9)
F2 F 0.6509(8) 0.2808(3) 0.4883(10)
F3 F -0.1430(7) 0.2735(3) 0.1039(9)
F4 F -0.0226(10) 0.2680(3) -0.0589(8)
Li1 Li 0.2538(10) 0.4768(5) 0.3076(10)
O3 O 0.3102(5) 0.4759(2) -0.0654(4)
O4 O 0.1841(5) 0.4747(2) 0.6828(4)
Li1A Li 0.2462(10) 0.5232(5) -0.1924(10)
Li1A_2 Li 0.2462(10) 0.5232(5) 0.8076(10)
O3A O 0.1898(5) 0.5241(2) 0.4346(4)
O4A O 0.3159(5) 0.5253(2) 0.1828(4)
Br1 Br 0.66889(7) 0.49842(5) 0.55704(7)
loop_
_geom_bond_atom_site_label_1
_geom_bond_atom_site_label_2
_geom_bond_site_symmetry_1
_geom_bond_site_symmetry_2
C1 C2 1_555 1_555
C2 H1 1_555 1_555
C3 H2 1_555 1_555
H3 C3 1_555 1_555
C4 C3 1_555 1_555
H4 C4 1_555 1_555
C5 C4 1_555 1_555
H5 C5 1_555 1_555
H6 C5 1_555 1_555
C6 C5 1_555 1_555
C7 C2 1_555 1_555
H7 C7 1_555 1_555
H8 C7 1_555 1_555
C8 C7 1_555 1_555
H9 C8 1_555 1_555
H10 C8 1_555 1_555
H11 C8 1_555 1_555
C9 C4 1_555 1_555
H12 C9 1_555 1_555
C10 C9 1_555 1_555
C11 C12 1_555 1_555
C12 H13 1_555 1_555
C13 H14 1_555 1_555
H15 C13 1_555 1_555
C14 C13 1_555 1_555
H16 C14 1_555 1_555
C15 C14 1_555 1_555
H17 C15 1_555 1_555
H18 C15 1_555 1_555
C16 C15 1_555 1_555
C17 C14 1_555 1_555
H19 C17 1_555 1_555
C18 C17 1_555 1_555
C19 C12 1_555 1_555
H20 C19 1_555 1_555
H21 C19 1_555 1_555
C20 C19 1_555 1_555
H22 C20 1_555 1_555
H23 C20 1_555 1_555
H24 C20 1_555 1_555
N1 C2 1_555 1_555
N2 C1 1_555 1_555
H25 N2 1_555 1_555
H26 N2 1_555 1_555
N3 C12 1_555 1_555
N4 C11 1_555 1_555
H27 N4 1_555 1_555
H28 N4 1_555 1_555
O1 C1 1_555 1_555
O2 C11 1_555 1_555
F1 C10 1_555 1_555
F2 C10 1_555 1_555
F3 C18 1_555 1_555
F4 C18 1_555 1_555
Li1 O1 1_555 1_555
O3 C16 1_555 1_555
O4 C6 1_555 1_555
Li1A O3 1_555 1_555
Li1A_2 O4 1_555 1_555
O3A Li1 1_555 1_555
O4A Li1 1_555 1_555
C3 N1 1_555 1_555
C6 N1 1_555 1_555
C13 N3 1_555 1_555
C16 N3 1_555 1_555
O2 Li1 1_555 1_555

#END
