
#######################################################################
#
#                 Cambridge Crystallographic Data Centre
#                                CCDC 
#
#######################################################################
#
# If this CIF has been generated from an entry in the Cambridge 
# Structural Database, then it will include bibliographic, chemical, 
# crystal, experimental, refinement or atomic coordinate data resulting 
# from the CCDC's data processing and validation procedures.
#
#######################################################################

data_NILHOF
_symmetry_cell_setting           monoclinic
_symmetry_space_group_name_H-M   'P 21/c'
_symmetry_Int_Tables_number      14
_space_group_name_Hall           '-P 2ybc'
loop_
_symmetry_equiv_pos_site_id
_symmetry_equiv_pos_as_xyz
1 x,y,z
2 -x,1/2+y,1/2-z
3 -x,-y,-z
4 x,1/2-y,1/2+z
_cell_length_a                   8.399(2)
_cell_length_b                   25.186(5)
_cell_length_c                   11.874(2)
_cell_angle_alpha                90
_cell_angle_beta                 95.32(3)
_cell_angle_gamma                90
_cell_volume                     2500.97
loop_
_atom_site_label
_atom_site_type_symbol
_atom_site_fract_x
_atom_site_fract_y
_atom_site_fract_z
Cu1 Cu 0.73702(7) 0.14702(2) 0.96837(5)
N1 N 0.6613(4) 0.0829(1) 1.0575(3)
N2 N 0.8321(4) 0.0859(2) 0.8769(3)
C1 C 0.5112(8) 0.1342(3) 1.1825(6)
C2 C 0.5760(5) 0.0826(2) 1.1462(4)
C3 C 0.5455(6) 0.0351(2) 1.2021(4)
C4 C 0.6057(6) -0.0120(2) 1.1664(4)
C5 C 0.6902(5) -0.0126(2) 1.0720(4)
C6 C 0.7544(6) -0.0599(2) 1.0266(5)
C7 C 0.8344(6) -0.0586(2) 0.9350(5)
C8 C 0.8634(6) -0.0098(2) 0.8783(4)
C9 C 0.9472(6) -0.0060(3) 0.7834(4)
C10 C 0.9737(7) 0.0424(3) 0.7379(5)
C11 C 0.9154(5) 0.0881(2) 0.7866(4)
C12 C 0.9485(8) 0.1421(3) 0.7405(6)
C13 C 0.8065(5) 0.0383(2) 0.9225(4)
C14 C 0.7170(5) 0.0359(2) 1.0194(3)
N3 N 0.5691(5) 0.1882(2) 0.8744(4)
C15 C 0.5151(6) 0.2355(2) 0.9065(4)
C16 C 0.3871(6) 0.2612(2) 0.8483(4)
C17 C 0.3081(5) 0.2376(2) 0.7530(4)
C18 C 0.3674(6) 0.1899(2) 0.7179(4)
C19 C 0.4961(6) 0.1669(2) 0.7802(5)
N4 N 0.9014(5) 0.1893(1) 1.0654(3)
C20 C -0.0171(6) 0.2718(2) 0.5220(4)
C21 C 0.1147(7) 0.2474(2) 0.5799(5)
C22 C 0.1658(5) 0.2635(2) 0.6886(4)
C23 C 0.0801(6) 0.3027(2) 0.7348(4)
C24 C -0.0513(5) 0.3252(2) 0.6715(4)
H1 H 0.594(8) 0.153(3) 1.224(6)
H2 H 0.425(8) 0.129(2) 1.236(5)
H3 H 0.453(9) 0.153(3) 1.127(7)
H4 H 0.485(6) 0.035(2) 1.254(4)
H5 H 0.592(6) -0.041(2) 1.200(4)
H6 H 0.738(6) -0.091(2) 1.069(4)
H7 H 0.870(7) -0.085(3) 0.893(5)
H8 H 0.987(8) -0.034(3) 0.746(6)
H9 H 1.020(6) 0.041(2) 0.689(4)
H10 H 0.994(7) 0.143(2) 0.668(5)
H11 H 0.861(8) 0.164(3) 0.739(5)
H12 H 1.01(1) 0.163(3) 0.786(7)
H13 H 0.569(5) 0.251(2) 0.972(4)
H14 H 0.343(5) 0.293(2) 0.880(3)
H15 H 0.327(6) 0.171(2) 0.653(5)
H16 H 0.538(5) 0.136(2) 0.763(4)
H17 H 0.142(6) 0.226(2) 0.551(4)
H18 H 0.097(5) 0.317(2) 0.810(4)
H19 H -0.0527(6) 0.2593(2) 0.4438(4)
H20 H -0.1129(5) 0.3535(2) 0.7074(4)
N4C N -0.0986(5) 0.3107(1) 0.5654(3)
Cu1C Cu -0.26298(7) 0.35298(2) 0.46837(5)
B1 B 0.2418(8) 0.0839(2) 0.4830(5)
F1 F 0.3181(5) 0.0624(2) 0.3979(3)
F2 F 0.3197(5) 0.0731(1) 0.5869(3)
F3 F 0.2256(7) 0.1371(1) 0.4718(3)
F4 F 0.0941(5) 0.0608(2) 0.4756(4)
N5 N 0.760(1) 0.1578(3) 0.4349(9)
C25 C 0.740(1) 0.1153(3) 0.4609(8)
C26 C 0.709(1) 0.0608(3) 0.4921(7)
H21 H 0.60(1) 0.041(4) 0.458(8)
H22 H 0.646(8) 0.060(3) 0.574(6)
H23 H 0.753(1) 0.0241(3) 0.5010(7)
loop_
_geom_bond_atom_site_label_1
_geom_bond_atom_site_label_2
_geom_bond_site_symmetry_1
_geom_bond_site_symmetry_2
Cu1 N1 1_555 1_555
N1 C2 1_555 1_555
N2 Cu1 1_555 1_555
C1 C2 1_555 1_555
C2 C3 1_555 1_555
C3 C4 1_555 1_555
C4 C5 1_555 1_555
C5 C6 1_555 1_555
C6 C7 1_555 1_555
C7 C8 1_555 1_555
C8 C9 1_555 1_555
C9 C10 1_555 1_555
C10 C11 1_555 1_555
C11 N2 1_555 1_555
C12 C11 1_555 1_555
C13 N2 1_555 1_555
C14 N1 1_555 1_555
N3 Cu1 1_555 1_555
C15 N3 1_555 1_555
C16 C15 1_555 1_555
C17 C16 1_555 1_555
C18 C17 1_555 1_555
C19 N3 1_555 1_555
N4 Cu1 1_555 1_555
C20 C21 1_555 1_555
C21 C22 1_555 1_555
C22 C17 1_555 1_555
C23 C22 1_555 1_555
C24 C23 1_555 1_555
H1 C1 1_555 1_555
H2 C1 1_555 1_555
H3 C1 1_555 1_555
H4 C3 1_555 1_555
H5 C4 1_555 1_555
H6 C6 1_555 1_555
H7 C7 1_555 1_555
H8 C9 1_555 1_555
H9 C10 1_555 1_555
H10 C12 1_555 1_555
H11 C12 1_555 1_555
H12 C12 1_555 1_555
H13 C15 1_555 1_555
H14 C16 1_555 1_555
H15 C18 1_555 1_555
H16 C19 1_555 1_555
H17 C21 1_555 1_555
H18 C23 1_555 1_555
H19 C20 1_555 1_555
H20 C24 1_555 1_555
B1 F1 1_555 1_555
F2 B1 1_555 1_555
F3 B1 1_555 1_555
F4 B1 1_555 1_555
N5 C25 1_555 1_555
C25 C26 1_555 1_555
C26 H21 1_555 1_555
H22 C26 1_555 1_555
H23 C26 1_555 1_555
N4C C20 1_555 1_555
Cu1C N4C 1_555 1_555
C5 C14 1_555 1_555
C8 C13 1_555 1_555
C13 C14 1_555 1_555
C18 C19 1_555 1_555
C24 N4C 1_555 1_555

#END
