
#######################################################################
#
#                 Cambridge Crystallographic Data Centre
#                                CCDC 
#
#######################################################################
#
# If this CIF has been generated from an entry in the Cambridge 
# Structural Database, then it will include bibliographic, chemical, 
# crystal, experimental, refinement or atomic coordinate data resulting 
# from the CCDC's data processing and validation procedures.
#
#######################################################################

data_NILHIA
_symmetry_cell_setting           triclinic
_symmetry_space_group_name_H-M   'P -1'
_symmetry_Int_Tables_number      2
_space_group_name_Hall           '-P 1'
loop_
_symmetry_equiv_pos_site_id
_symmetry_equiv_pos_as_xyz
1 x,y,z
2 -x,-y,-z
_cell_length_a                   10.472(2)
_cell_length_b                   16.396(3)
_cell_length_c                   16.563(3)
_cell_angle_alpha                60.45(3)
_cell_angle_beta                 89.52(3)
_cell_angle_gamma                78.05(3)
_cell_volume                     2405.6
loop_
_atom_site_label
_atom_site_type_symbol
_atom_site_fract_x
_atom_site_fract_y
_atom_site_fract_z
O1 O -0.5000 0.5000 0.0000
N10 N -0.2226(14) 0.4897(9) 0.0955(9)
H3 H -0.2972 0.4786 0.0872
H4 H -0.2308 0.5110 0.1342
C37 C -0.1142(9) 0.5002(5) 0.0462(5)
C38 C -0.0087(9) 0.5316(5) 0.0636(5)
H37 H -0.0131 0.5534 0.1074
C39 C -0.1000(9) 0.4688(6) -0.0183(5)
H38 H -0.1698 0.4466 -0.0313
N10A N 0.2226(14) 0.5103(9) -0.0955(9)
H3A H 0.2972 0.5214 -0.0872
H4A H 0.2308 0.4890 -0.1342
C37A C 0.1142(9) 0.4998(5) -0.0462(5)
C38A C 0.0087(9) 0.4684(5) -0.0636(5)
H37A H 0.0131 0.4466 -0.1074
C39A C 0.1000(9) 0.5312(6) 0.0183(5)
H38A H 0.1698 0.5534 0.0313
N11 N 0.468(4) 0.1903(15) 0.857(2)
C40 C 0.484(2) 0.0961(7) 0.9278(10)
C41 C 0.480(3) 0.0238(14) 0.9064(7)
H39 H 0.4656 0.0399 0.8431
C42 C 0.504(3) 0.0728(11) 1.0213(13)
H40 H 0.5063 0.1219 1.0357
N11A N 0.532(4) -0.1903(15) 1.143(2)
C40A C 0.516(2) -0.0961(7) 1.0722(10)
C41A C 0.520(3) -0.0238(14) 1.0936(7)
H39A H 0.5344 -0.0399 1.1569
C42A C 0.496(3) -0.0728(11) 0.9787(13)
H40A H 0.4937 -0.1219 0.9643
Mo1 Mo 0.28068(5) 0.32063(3) 0.42209(3)
Cu1 Cu 0.06451(7) 0.29731(5) 0.51289(5)
Cu2 Cu 0.14355(8) 0.27759(5) 0.31870(5)
Cu3 Cu 0.11119(7) 0.49015(5) 0.31392(5)
S1 S -0.16047(15) 0.34421(11) 0.47228(11)
S2 S -0.3402(2) 0.61456(18) 0.19727(19)
S3 S 0.16086(14) 0.42094(10) 0.46796(9)
S4 S 0.18474(14) 0.19218(9) 0.47429(9)
S5 S 0.23941(16) 0.40082(10) 0.26313(10)
N1 N -0.2253(6) 0.1649(5) 0.5823(4)
N2 N -0.0772(6) 0.5363(4) 0.2686(4)
N3 N 0.0919(5) 0.2204(3) 0.6602(3)
N4 N 0.1709(5) -0.3764(3) 1.2451(3)
N5 N 0.1849(5) 0.2026(3) 1.2483(3)
N6 N 0.1674(5) -0.0350(3) 1.0002(3)
N7 N 0.1668(5) 0.1099(3) 1.0011(3)
N8 N 0.1988(5) -0.0386(3) 1.1441(3)
N9 N -0.0655(6) 0.3133(4) 0.2863(4)
H1 H -0.081(8) 0.326(5) 0.331(3)
H2 H -0.066(8) 0.366(3) 0.235(3)
C1 C -0.1967(6) 0.2377(5) 0.5377(4)
C2 C -0.1846(7) 0.5671(5) 0.2407(5)
C3 C 0.1233(6) 0.2604(4) 0.7085(4)
H5 H 0.1298 0.3257 0.6752
C4 C 0.1468(6) 0.2105(4) 0.8053(4)
H6 H 0.1683 0.2411 0.8375
C5 C 0.1382(5) 0.1152(4) 0.8538(4)
C6 C 0.1048(6) 0.0735(4) 0.8043(4)
H7 H 0.0983 0.0081 0.8357
C7 C 0.0811(6) 0.1289(4) 0.7081(4)
H8 H 0.0559 0.1007 0.6745
C8 C 0.1602(5) 0.0600(4) 0.9576(4)
C9 C 0.1885(5) -0.0811(4) 1.0936(4)
C10 C 0.1865(5) 0.0571(4) 1.0939(4)
C11 C 0.1916(6) -0.1849(4) 1.1459(4)
C12 C 0.2054(6) -0.2357(4) 1.2425(4)
H9 H 0.2229 -0.2058 1.2765
C13 C 0.1937(6) -0.3303(4) 1.2893(4)
H10 H 0.2022 -0.3639 1.3556
C14 C 0.1624(7) -0.3282(4) 1.1519(4)
H11 H 0.1489 -0.3609 1.1199
C15 C 0.1720(7) -0.2340(4) 1.0996(4)
H12 H 0.1655 -0.2029 1.0334
C16 C 0.1897(6) 0.1077(4) 1.1473(4)
C17 C 0.1953(6) 0.0572(4) 1.2443(4)
H13 H 0.2007 -0.0102 1.2773
C18 C 0.1928(6) 0.1072(4) 1.2913(4)
H14 H 0.1969 0.0726 1.3575
C19 C 0.1821(7) 0.2495(4) 1.1562(4)
H15 H 0.1776 0.3168 1.1249
C20 C 0.1855(7) 0.2047(4) 1.1030(4)
H16 H 0.1848 0.2407 1.0371
C21 C -0.1124(6) 0.2352(5) 0.2913(5)
C22 C -0.1135(7) 0.1552(5) 0.3769(5)
H17 H -0.0849 0.1524 0.4327
C23 C -0.1568(8) 0.0787(6) 0.3810(8)
H18 H -0.1588 0.0236 0.4397
C24 C -0.1970(8) 0.0833(7) 0.2991(9)
H19 H -0.2291 0.0320 0.3019
C25 C -0.1909(9) 0.1601(7) 0.2155(8)
H20 H -0.2162 0.1615 0.1598
C26 C -0.1481(8) 0.2368(6) 0.2102(6)
H21 H -0.1433 0.2903 0.1511
C27 C 0.4768(6) 0.3625(5) 0.4395(5)
C28 C 0.4524(6) 0.2964(5) 0.5309(5)
C29 C 0.4597(7) 0.2078(5) 0.5350(6)
C30 C 0.4889(6) 0.2168(5) 0.4485(7)
C31 C 0.5038(6) 0.3127(5) 0.3884(5)
C32 C 0.4826(8) 0.4650(6) 0.4047(8)
H22 H 0.5731 0.4676 0.4159
H23 H 0.4251 0.4907 0.4379
H24 H 0.4535 0.5037 0.3377
C33 C 0.4374(9) 0.3152(8) 0.6106(6)
H25 H 0.3963 0.2673 0.6592
H26 H 0.3820 0.3799 0.5884
H27 H 0.5240 0.3108 0.6365
C34 C 0.4529(8) 0.1153(6) 0.6216(8)
H28 H 0.4331 0.0699 0.6040
H29 H 0.3837 0.1284 0.6567
H30 H 0.5375 0.0872 0.6605
C35 C 0.5111(8) 0.1384(6) 0.4243(8)
H31 H 0.5986 0.0961 0.4518
H32 H 0.5046 0.1671 0.3563
H33 H 0.4444 0.1007 0.4490
C36 C 0.5548(8) 0.3515(8) 0.2962(7)
H34 H 0.5103 0.4195 0.2565
H35 H 0.5384 0.3149 0.2667
H36 H 0.6494 0.3456 0.3045
Mo1_2 Mo 0.28068(5) 0.32063(3) -0.57791(3)
Mo1_3 Mo 0.28068(5) 0.32063(3) 1.42209(3)
Cu1_2 Cu 0.06451(7) 0.29731(5) -0.48711(5)
Cu2_2 Cu 0.14355(8) 0.27759(5) 1.31870(5)
Cu2_3 Cu 0.14355(8) 0.27759(5) -0.68130(5)
Cu3_2 Cu 0.11119(7) -0.50985(5) 1.31392(5)
Cu3_3 Cu 0.11119(7) -0.50985(5) 0.31392(5)
Cu3_4 Cu 0.11119(7) 0.49015(5) -0.68608(5)
Cu3_5 Cu 0.11119(7) 0.49015(5) 1.31392(5)
S1_2 S -0.16047(15) 0.34421(11) -0.52772(11)
S2_2 S -0.3402(2) -0.38544(18) 1.19727(19)
S3_2 S 0.16086(14) 0.42094(10) -0.53204(9)
S3_3 S 0.16086(14) -0.57906(10) 1.46796(9)
S4_2 S 0.18474(14) 0.19218(9) -0.52571(9)
S4_3 S 0.18474(14) 0.19218(9) 1.47429(9)
S5_2 S 0.23941(16) 0.40082(10) 1.26313(10)
S5_3 S 0.23941(16) -0.59918(10) 1.26313(10)
S5_4 S 0.23941(16) 0.40082(10) -0.73687(10)
N1_2 N -0.2253(6) 0.1649(5) -0.4177(4)
N2_2 N -0.0772(6) -0.4637(4) 1.2686(4)
N3_2 N 0.0919(5) 0.2204(3) -0.3398(3)
N4_2 N 0.1709(5) -0.3764(3) 0.2451(3)
N4_3 N 0.1709(5) 0.6236(3) 0.2451(3)
N5_2 N 0.1849(5) 0.2026(3) 0.2483(3)
N6_2 N 0.1674(5) -0.0350(3) 0.0002(3)
N7_2 N 0.1668(5) 0.1099(3) 0.0011(3)
N8_2 N 0.1988(5) -0.0386(3) 0.1441(3)
N9_2 N -0.0655(6) 0.3133(4) 1.2863(4)
H1_2 H -0.081(8) 0.326(5) 1.331(3)
H2_2 H -0.066(8) 0.366(3) 1.235(3)
C1_2 C -0.1967(6) 0.2377(5) -0.4623(4)
C2_2 C -0.1846(7) -0.4329(5) 1.2407(5)
C3_2 C 0.1233(6) 0.2604(4) -0.2915(4)
H5_2 H 0.1298 0.3257 -0.3248
C4_2 C 0.1468(6) 0.2105(4) -0.1947(4)
H6_2 H 0.1683 0.2411 -0.1625
C5_2 C 0.1382(5) 0.1152(4) -0.1462(4)
C6_2 C 0.1048(6) 0.0735(4) -0.1957(4)
H7_2 H 0.0983 0.0081 -0.1643
C7_2 C 0.0811(6) 0.1289(4) -0.2919(4)
H8_2 H 0.0559 0.1007 -0.3255
C8_2 C 0.1602(5) 0.0600(4) -0.0424(4)
C9_2 C 0.1885(5) -0.0811(4) 0.0936(4)
C10_2 C 0.1865(5) 0.0571(4) 0.0939(4)
C11_2 C 0.1916(6) -0.1849(4) 0.1459(4)
C12_2 C 0.2054(6) -0.2357(4) 0.2425(4)
H9_2 H 0.2229 -0.2058 0.2765
C13_2 C 0.1937(6) -0.3303(4) 0.2893(4)
H10_2 H 0.2022 -0.3639 0.3556
C14_2 C 0.1624(7) -0.3282(4) 0.1519(4)
H11_2 H 0.1489 -0.3609 0.1199
C15_2 C 0.1720(7) -0.2340(4) 0.0996(4)
H12_2 H 0.1655 -0.2029 0.0334
C16_2 C 0.1897(6) 0.1077(4) 0.1473(4)
C17_2 C 0.1953(6) 0.0572(4) 0.2443(4)
H13_2 H 0.2007 -0.0102 0.2773
C18_2 C 0.1928(6) 0.1072(4) 0.2913(4)
H14_2 H 0.1969 0.0726 0.3575
C19_2 C 0.1821(7) 0.2495(4) 0.1562(4)
H15_2 H 0.1776 0.3168 0.1249
C20_2 C 0.1855(7) 0.2047(4) 0.1030(4)
H16_2 H 0.1848 0.2407 0.0371
C21_2 C -0.1124(6) 0.2352(5) 1.2913(5)
C22_2 C -0.1135(7) 0.1552(5) 1.3769(5)
H17_2 H -0.0849 0.1524 1.4327
C23_2 C -0.1568(8) 0.0787(6) 1.3810(8)
H18_2 H -0.1588 0.0236 1.4397
C24_2 C -0.1970(8) 0.0833(7) 1.2991(9)
H19_2 H -0.2291 0.0320 1.3019
C25_2 C -0.1909(9) 0.1601(7) 1.2155(8)
H20_2 H -0.2162 0.1615 1.1598
C26_2 C -0.1481(8) 0.2368(6) 1.2102(6)
H21_2 H -0.1433 0.2903 1.1511
C27_2 C 0.4768(6) 0.3625(5) -0.5605(5)
C28_2 C 0.4524(6) 0.2964(5) -0.4691(5)
C29_2 C 0.4597(7) 0.2078(5) -0.4650(6)
C30_2 C 0.4889(6) 0.2168(5) -0.5515(7)
C31_2 C 0.5038(6) 0.3127(5) -0.6116(5)
C32_2 C 0.4826(8) 0.4650(6) -0.5953(8)
H22_2 H 0.5731 0.4676 -0.5841
H23_2 H 0.4251 0.4907 -0.5621
H24_2 H 0.4535 0.5037 -0.6623
C33_2 C 0.4374(9) 0.3152(8) -0.3894(6)
H25_2 H 0.3963 0.2673 -0.3408
H26_2 H 0.3820 0.3799 -0.4116
H27_2 H 0.5240 0.3108 -0.3635
C34_2 C 0.4529(8) 0.1153(6) -0.3784(8)
H28_2 H 0.4331 0.0699 -0.3960
H29_2 H 0.3837 0.1284 -0.3433
H30_2 H 0.5375 0.0872 -0.3395
C35_2 C 0.5111(8) 0.1384(6) -0.5757(8)
H31_2 H 0.5986 0.0961 -0.5482
H32_2 H 0.5046 0.1671 -0.6437
H33_2 H 0.4444 0.1007 -0.5510
C36_2 C 0.5548(8) 0.3515(8) -0.7038(7)
H34_2 H 0.5103 0.4195 -0.7435
H35_2 H 0.5384 0.3149 -0.7333
H36_2 H 0.6494 0.3456 -0.6955
loop_
_geom_bond_atom_site_label_1
_geom_bond_atom_site_label_2
_geom_bond_site_symmetry_1
_geom_bond_site_symmetry_2
Mo1 S3 1_555 1_555
Cu1 S1 1_555 1_555
Cu2 S4 1_555 1_555
Cu3 S3 1_555 1_555
S1 C1 1_555 1_555
S2 C2 1_555 1_555
S3 Cu1 1_555 1_555
S4 Mo1 1_555 1_555
S5 Mo1 1_555 1_555
N1 C1 1_555 1_555
N2 Cu3 1_555 1_555
N3 Cu1 1_555 1_555
N4 C13 1_555 1_555
N5 C18 1_555 1_555
N6 C8 1_555 1_555
N7 C8 1_555 1_555
N8 C9 1_555 1_555
N9 Cu2 1_555 1_555
H1 N9 1_555 1_555
H2 N9 1_555 1_555
N10 H3 1_555 1_555
H4 N10 1_555 1_555
N11 C40 1_555 1_555
C2 N2 1_555 1_555
C3 N3 1_555 1_555
H5 C3 1_555 1_555
C4 C3 1_555 1_555
H6 C4 1_555 1_555
C5 C4 1_555 1_555
C6 C5 1_555 1_555
H7 C6 1_555 1_555
C7 N3 1_555 1_555
H8 C7 1_555 1_555
C8 C5 1_555 1_555
C9 N6 1_555 1_555
C10 N7 1_555 1_555
C11 C9 1_555 1_555
C12 C11 1_555 1_555
H9 C12 1_555 1_555
C13 C12 1_555 1_555
H10 C13 1_555 1_555
C14 N4 1_555 1_555
H11 C14 1_555 1_555
C15 C11 1_555 1_555
H12 C15 1_555 1_555
C16 C10 1_555 1_555
C17 C16 1_555 1_555
H13 C17 1_555 1_555
C18 C17 1_555 1_555
H14 C18 1_555 1_555
C19 N5 1_555 1_555
H15 C19 1_555 1_555
C20 C16 1_555 1_555
H16 C20 1_555 1_555
C21 N9 1_555 1_555
C22 C21 1_555 1_555
H17 C22 1_555 1_555
C23 C22 1_555 1_555
H18 C23 1_555 1_555
C24 C23 1_555 1_555
H19 C24 1_555 1_555
C25 C24 1_555 1_555
H20 C25 1_555 1_555
C26 C21 1_555 1_555
H21 C26 1_555 1_555
C27 Mo1 1_555 1_555
C28 Mo1 1_555 1_555
C29 Mo1 1_555 1_555
C30 Mo1 1_555 1_555
C31 Mo1 1_555 1_555
C32 C27 1_555 1_555
H22 C32 1_555 1_555
H23 C32 1_555 1_555
H24 C32 1_555 1_555
C33 C28 1_555 1_555
H25 C33 1_555 1_555
H26 C33 1_555 1_555
H27 C33 1_555 1_555
C34 C29 1_555 1_555
H28 C34 1_555 1_555
H29 C34 1_555 1_555
H30 C34 1_555 1_555
C35 C30 1_555 1_555
H31 C35 1_555 1_555
H32 C35 1_555 1_555
H33 C35 1_555 1_555
C36 C31 1_555 1_555
H34 C36 1_555 1_555
H35 C36 1_555 1_555
H36 C36 1_555 1_555
C37 N10 1_555 1_555
C38 C37 1_555 1_555
H37 C38 1_555 1_555
C39 C37 1_555 1_555
H38 C39 1_555 1_555
C40 C41 1_555 1_555
C41 H39 1_555 1_555
C42 C40 1_555 1_555
H40 C42 1_555 1_555
Mo1_2 S3_2 1_555 1_555
Mo1_3 S4_3 1_555 1_555
Cu1_2 S1_2 1_555 1_555
Cu2_2 N5 1_555 1_555
Cu2_3 S4_2 1_555 1_555
Cu3_2 N4 1_555 1_555
Cu3_3 N4_2 1_555 1_555
Cu3_4 S3_2 1_555 1_555
Cu3_5 S5_2 1_555 1_555
S1_2 C1_2 1_555 1_555
S2_2 C2_2 1_555 1_555
S3_2 Cu1_2 1_555 1_555
S3_3 Cu3_2 1_555 1_555
S4_2 Mo1_2 1_555 1_555
S4_3 Cu2_2 1_555 1_555
S5_2 Mo1_3 1_555 1_555
S5_3 Cu3_2 1_555 1_555
S5_4 Mo1_2 1_555 1_555
N1_2 C1_2 1_555 1_555
N2_2 Cu3_2 1_555 1_555
N3_2 Cu1_2 1_555 1_555
N4_2 C13_2 1_555 1_555
N4_3 Cu3 1_555 1_555
N5_2 Cu2 1_555 1_555
N6_2 C8_2 1_555 1_555
N7_2 C8_2 1_555 1_555
N8_2 C9_2 1_555 1_555
N9_2 Cu2_2 1_555 1_555
H1_2 N9_2 1_555 1_555
H2_2 N9_2 1_555 1_555
N10A H3A 1_555 1_555
H4A N10A 1_555 1_555
N11A C40A 1_555 1_555
C2_2 N2_2 1_555 1_555
C3_2 N3_2 1_555 1_555
H5_2 C3_2 1_555 1_555
C4_2 C3_2 1_555 1_555
H6_2 C4_2 1_555 1_555
C5_2 C4_2 1_555 1_555
C6_2 C5_2 1_555 1_555
H7_2 C6_2 1_555 1_555
C7_2 N3_2 1_555 1_555
H8_2 C7_2 1_555 1_555
C8_2 C5_2 1_555 1_555
C9_2 N6_2 1_555 1_555
C10_2 N7_2 1_555 1_555
C11_2 C9_2 1_555 1_555
C12_2 C11_2 1_555 1_555
H9_2 C12_2 1_555 1_555
C13_2 C12_2 1_555 1_555
H10_2 C13_2 1_555 1_555
C14_2 N4_2 1_555 1_555
H11_2 C14_2 1_555 1_555
C15_2 C11_2 1_555 1_555
H12_2 C15_2 1_555 1_555
C16_2 C10_2 1_555 1_555
C17_2 C16_2 1_555 1_555
H13_2 C17_2 1_555 1_555
C18_2 N5_2 1_555 1_555
H14_2 C18_2 1_555 1_555
C19_2 N5_2 1_555 1_555
H15_2 C19_2 1_555 1_555
C20_2 C16_2 1_555 1_555
H16_2 C20_2 1_555 1_555
C21_2 N9_2 1_555 1_555
C22_2 C21_2 1_555 1_555
H17_2 C22_2 1_555 1_555
C23_2 C22_2 1_555 1_555
H18_2 C23_2 1_555 1_555
C24_2 C23_2 1_555 1_555
H19_2 C24_2 1_555 1_555
C25_2 C24_2 1_555 1_555
H20_2 C25_2 1_555 1_555
C26_2 C21_2 1_555 1_555
H21_2 C26_2 1_555 1_555
C27_2 Mo1_2 1_555 1_555
C28_2 Mo1_2 1_555 1_555
C29_2 Mo1_2 1_555 1_555
C30_2 Mo1_2 1_555 1_555
C31_2 Mo1_2 1_555 1_555
C32_2 C27_2 1_555 1_555
H22_2 C32_2 1_555 1_555
H23_2 C32_2 1_555 1_555
H24_2 C32_2 1_555 1_555
C33_2 C28_2 1_555 1_555
H25_2 C33_2 1_555 1_555
H26_2 C33_2 1_555 1_555
H27_2 C33_2 1_555 1_555
C34_2 C29_2 1_555 1_555
H28_2 C34_2 1_555 1_555
H29_2 C34_2 1_555 1_555
H30_2 C34_2 1_555 1_555
C35_2 C30_2 1_555 1_555
H31_2 C35_2 1_555 1_555
H32_2 C35_2 1_555 1_555
H33_2 C35_2 1_555 1_555
C36_2 C31_2 1_555 1_555
H34_2 C36_2 1_555 1_555
H35_2 C36_2 1_555 1_555
H36_2 C36_2 1_555 1_555
C37A N10A 1_555 1_555
C38A C39 1_555 1_555
H37A C38A 1_555 1_555
C39A C38 1_555 1_555
H38A C39A 1_555 1_555
C40A C41A 1_555 1_555
C41A C42 1_555 1_555
H39A C41A 1_555 1_555
C42A C41 1_555 1_555
H40A C42A 1_555 1_555
Cu1 S4 1_555 1_555
Cu2 S5 1_555 1_555
Cu3 S5 1_555 1_555
N8 C10 1_555 1_555
C6 C7 1_555 1_555
C14 C15 1_555 1_555
C19 C20 1_555 1_555
C25 C26 1_555 1_555
C27 C28 1_555 1_555
C27 C31 1_555 1_555
C28 C29 1_555 1_555
C29 C30 1_555 1_555
C30 C31 1_555 1_555
Cu1_2 S4_2 1_555 1_555
Cu2_2 S5_2 1_555 1_555
Cu2_3 S5_4 1_555 1_555
Cu3_4 S5_4 1_555 1_555
N8_2 C10_2 1_555 1_555
C6_2 C7_2 1_555 1_555
C14_2 C15_2 1_555 1_555
C17_2 C18_2 1_555 1_555
C19_2 C20_2 1_555 1_555
C25_2 C26_2 1_555 1_555
C27_2 C28_2 1_555 1_555
C27_2 C31_2 1_555 1_555
C28_2 C29_2 1_555 1_555
C29_2 C30_2 1_555 1_555
C30_2 C31_2 1_555 1_555
C37A C38A 1_555 1_555
C37A C39A 1_555 1_555
C40A C42A 1_555 1_555

#END
