
#######################################################################
#
#                 Cambridge Crystallographic Data Centre
#                                CCDC 
#
#######################################################################
#
# If this CIF has been generated from an entry in the Cambridge 
# Structural Database, then it will include bibliographic, chemical, 
# crystal, experimental, refinement or atomic coordinate data resulting 
# from the CCDC's data processing and validation procedures.
#
#######################################################################

data_NILLEA
_symmetry_cell_setting           triclinic
_symmetry_space_group_name_H-M   'P -1'
_symmetry_Int_Tables_number      2
_space_group_name_Hall           '-P 1'
loop_
_symmetry_equiv_pos_site_id
_symmetry_equiv_pos_as_xyz
1 x,y,z
2 -x,-y,-z
_cell_length_a                   7.2963(15)
_cell_length_b                   11.287(2)
_cell_length_c                   14.504(3)
_cell_angle_alpha                108.74(3)
_cell_angle_beta                 102.03(3)
_cell_angle_gamma                95.75(3)
_cell_volume                     1088.12
loop_
_atom_site_label
_atom_site_type_symbol
_atom_site_fract_x
_atom_site_fract_y
_atom_site_fract_z
Co1 Co 0.0000 1.0000 0.5000
Co2 Co 0.0000 0.5000 0.5000
C1 C 0.2146(8) 0.7463(6) 0.4791(4)
C2 C -0.1582(8) 0.7742(6) 0.5652(5)
C3 C 0.3480(9) 1.1643(7) 0.6708(5)
H1 H 0.4036 1.1547 0.6173
C4 C 0.4593(10) 1.2285(7) 0.7679(6)
H2 H 0.5878 1.2603 0.7793
C5 C 0.3772(9) 1.2446(7) 0.8474(5)
H3 H 0.4495 1.2865 0.9133
C6 C 0.1848(9) 1.1971(6) 0.8273(5)
C7 C 0.0840(9) 1.1330(6) 0.7290(5)
H4 H -0.0446 1.1003 0.7162
C8 C 0.0905(9) 1.2134(6) 0.9124(5)
C9 C 0.3695(10) 0.5488(7) 0.6675(5)
H5 H 0.4239 0.5568 0.6167
C10 C 0.4884(10) 0.5627(7) 0.7593(6)
H6 H 0.6199 0.5796 0.7696
C11 C 0.4107(10) 0.5513(7) 0.8352(5)
H7 H 0.4882 0.5600 0.8975
C12 C 0.2126(9) 0.5263(6) 0.8166(4)
C13 C 0.1035(9) 0.5139(7) 0.7227(5)
H8 H -0.0284 0.4974 0.7106
C14 C 0.1205(10) 0.5149(7) 0.8964(5)
N1 N 0.1689(8) 0.6516(5) 0.4903(4)
N2 N -0.1169(8) 0.8684(5) 0.5526(4)
N3 N 0.1615(7) 1.1152(5) 0.6510(4)
N4 N 0.1791(8) 0.5245(5) 0.6483(4)
O1 O -0.0932(7) 1.1699(6) 0.8818(4)
H13 H -0.1378 1.1811 0.9307
O2 O 0.1799(7) 1.2635(6) 0.9993(4)
O3 O -0.0623(7) 0.4835(6) 0.8702(4)
H14 H -0.1005 0.4795 0.9186
O4 O 0.2204(8) 0.5344(6) 0.9823(4)
S1 S 0.2817(2) 0.88166(15) 0.46670(13)
S2 S -0.2170(3) 0.64195(16) 0.58443(15)
Co2_2 Co 0.0000 1.5000 0.5000
C1A C -0.2146(8) 1.2537(6) 0.5209(4)
C2A C 0.1582(8) 1.2258(6) 0.4348(5)
C3A C -0.3480(9) 0.8357(7) 0.3292(5)
H1A H -0.4036 0.8453 0.3827
C4A C -0.4593(10) 0.7715(7) 0.2321(6)
H2A H -0.5878 0.7397 0.2207
C5A C -0.3772(9) 0.7554(7) 0.1526(5)
H3A H -0.4495 0.7135 0.0867
C6A C -0.1848(9) 0.8029(6) 0.1727(5)
C7A C -0.0840(9) 0.8670(6) 0.2710(5)
H4A H 0.0446 0.8997 0.2838
C8A C -0.0905(9) 0.7866(6) 0.0876(5)
C9A C -0.3695(10) 0.4512(7) 0.3325(5)
H5A H -0.4239 0.4432 0.3833
C10A C -0.4884(10) 0.4373(7) 0.2407(6)
H6A H -0.6199 0.4204 0.2304
C11A C -0.4107(10) 0.4487(7) 0.1648(5)
H7A H -0.4882 0.4400 0.1025
C12A C -0.2126(9) 0.4737(6) 0.1834(4)
C13A C -0.1035(9) 0.4861(7) 0.2773(5)
H8A H 0.0284 0.5026 0.2894
C14A C -0.1205(10) 0.4851(7) 0.1036(5)
N1A N -0.1689(8) 1.3484(5) 0.5097(4)
N1A_2 N -0.1689(8) 0.3484(5) 0.5097(4)
N2A N 0.1169(8) 1.1316(5) 0.4474(4)
N3A N -0.1615(7) 0.8848(5) 0.3490(4)
N4A N -0.1791(8) 0.4755(5) 0.3517(4)
O1A O 0.0932(7) 0.8301(6) 0.1182(4)
H13A H 0.1378 0.8189 0.0693
O2A O -0.1799(7) 0.7365(6) 0.0007(4)
O3A O 0.0623(7) 0.5165(6) 0.1298(4)
H14A H 0.1005 0.5205 0.0814
O4A O -0.2204(8) 0.4656(6) 0.0177(4)
S1A S -0.2817(2) 1.11834(15) 0.53330(13)
S2A S 0.2170(3) 1.35805(16) 0.41557(15)
S2A_2 S 0.2170(3) 0.35805(16) 0.41557(15)
C15 C 0.6729(10) 0.8963(7) 0.7738(5)
H9 H 0.7744 0.9053 0.7456
C16 C 0.4916(11) 0.8984(8) 0.7236(6)
H10 H 0.4691 0.9070 0.6608
C17 C 0.3436(10) 0.8877(7) 0.7679(5)
H11 H 0.2207 0.8898 0.7350
C18 C 0.3776(9) 0.8738(6) 0.8606(5)
C19 C 0.5603(9) 0.8697(7) 0.9062(5)
H12 H 0.5856 0.8588 0.9683
C20 C 0.2223(9) 0.8627(7) 0.9143(5)
N5 N 0.7027(8) 0.8812(6) 0.8628(4)
O5 O 0.0753(8) 0.8972(8) 0.8851(6)
H15 H 0.0006 0.8877 0.9183
O6 O 0.2678(8) 0.8254(6) 0.9869(4)
loop_
_geom_bond_atom_site_label_1
_geom_bond_atom_site_label_2
_geom_bond_site_symmetry_1
_geom_bond_site_symmetry_2
Co1 N2 1_555 1_555
Co2 N1 1_555 1_555
C1 N1 1_555 1_555
C2 N2 1_555 1_555
C3 H1 1_555 1_555
C4 C3 1_555 1_555
H2 C4 1_555 1_555
C5 C4 1_555 1_555
H3 C5 1_555 1_555
C6 C5 1_555 1_555
C7 C6 1_555 1_555
H4 C7 1_555 1_555
C8 C6 1_555 1_555
C9 H5 1_555 1_555
C10 C9 1_555 1_555
H6 C10 1_555 1_555
C11 C10 1_555 1_555
H7 C11 1_555 1_555
C12 C11 1_555 1_555
C13 C12 1_555 1_555
H8 C13 1_555 1_555
C14 C12 1_555 1_555
C15 H9 1_555 1_555
C16 C15 1_555 1_555
H10 C16 1_555 1_555
C17 C16 1_555 1_555
H11 C17 1_555 1_555
C18 C17 1_555 1_555
C19 C18 1_555 1_555
H12 C19 1_555 1_555
C20 C18 1_555 1_555
N3 Co1 1_555 1_555
N4 Co2 1_555 1_555
N5 C15 1_555 1_555
O1 C8 1_555 1_555
H13 O1 1_555 1_555
O2 C8 1_555 1_555
O3 C14 1_555 1_555
H14 O3 1_555 1_555
O4 C14 1_555 1_555
O5 C20 1_555 1_555
H15 O5 1_555 1_555
O6 C20 1_555 1_555
S1 Co1 1_555 1_555
S2 Co2 1_555 1_555
Co2_2 N1A 1_555 1_555
C1A N1A 1_555 1_555
C2A N2A 1_555 1_555
C3A H1A 1_555 1_555
C4A C3A 1_555 1_555
H2A C4A 1_555 1_555
C5A C4A 1_555 1_555
H3A C5A 1_555 1_555
C6A C5A 1_555 1_555
C7A C6A 1_555 1_555
H4A C7A 1_555 1_555
C8A C6A 1_555 1_555
C9A H5A 1_555 1_555
C10A C9A 1_555 1_555
H6A C10A 1_555 1_555
C11A C10A 1_555 1_555
H7A C11A 1_555 1_555
C12A C11A 1_555 1_555
C13A C12A 1_555 1_555
H8A C13A 1_555 1_555
C14A C12A 1_555 1_555
N1A_2 Co2 1_555 1_555
N2A Co1 1_555 1_555
N3A Co1 1_555 1_555
N4A Co2 1_555 1_555
O1A C8A 1_555 1_555
H13A O1A 1_555 1_555
O2A C8A 1_555 1_555
O3A C14A 1_555 1_555
H14A O3A 1_555 1_555
O4A C14A 1_555 1_555
S1A Co1 1_555 1_555
S2A Co2_2 1_555 1_555
S2A_2 Co2 1_555 1_555
C1 S1 1_555 1_555
C2 S2 1_555 1_555
C3 N3 1_555 1_555
C7 N3 1_555 1_555
C9 N4 1_555 1_555
C13 N4 1_555 1_555
C19 N5 1_555 1_555
C1A S1A 1_555 1_555
C2A S2A 1_555 1_555
C3A N3A 1_555 1_555
C7A N3A 1_555 1_555
C9A N4A 1_555 1_555
C13A N4A 1_555 1_555

#END
