
#######################################################################
#
#                 Cambridge Crystallographic Data Centre
#                                CCDC 
#
#######################################################################
#
# If this CIF has been generated from an entry in the Cambridge 
# Structural Database, then it will include bibliographic, chemical, 
# crystal, experimental, refinement or atomic coordinate data resulting 
# from the CCDC's data processing and validation procedures.
#
#######################################################################

data_NILMAY
_symmetry_cell_setting           monoclinic
_symmetry_space_group_name_H-M   'P 21/c'
_symmetry_Int_Tables_number      14
_space_group_name_Hall           '-P 2ybc'
loop_
_symmetry_equiv_pos_site_id
_symmetry_equiv_pos_as_xyz
1 x,y,z
2 -x,1/2+y,1/2-z
3 -x,-y,-z
4 x,1/2-y,1/2+z
_cell_length_a                   7.92830(10)
_cell_length_b                   13.3730(2)
_cell_length_c                   15.2752(2)
_cell_angle_alpha                90
_cell_angle_beta                 102.2840(10)
_cell_angle_gamma                90
_cell_volume                     1582.48
loop_
_atom_site_label
_atom_site_type_symbol
_atom_site_fract_x
_atom_site_fract_y
_atom_site_fract_z
Cd1 Cd 0.51210(3) 0.352748(15) 0.283853(15)
N1 N 0.5222(3) 0.52736(16) 0.33859(15)
N2 N 0.5139(3) 0.68538(18) 0.31015(16)
N3 N 0.4995(4) 0.67783(18) 0.39506(16)
N4 N 0.4911(3) 0.54611(17) 0.49529(16)
N5 N 0.2339(3) 0.33598(18) 0.30270(18)
H1 H 0.1871 0.3967 0.3064
H2 H 0.1699 0.3037 0.2554
N6 N 0.5436(3) 0.24240(19) 0.40312(16)
H3 H 0.6195 0.1939 0.3977
H4 H 0.5821 0.2747 0.4552
N7 N 0.4835(3) 0.41939(19) 0.14085(16)
H5 H 0.4020 0.3858 0.1019
H6 H 0.4518 0.4840 0.1406
N8 N 0.7939(3) 0.36863(18) 0.26934(19)
H7 H 0.8588 0.3945 0.3198
H8 H 0.8370 0.3083 0.2598
C1 C 0.5264(4) 0.59639(19) 0.27614(17)
H9 H 0.5366 0.5835 0.2177
C2 C 0.5055(4) 0.58014(19) 0.41013(18)
C3 C 0.2347(4) 0.2790(2) 0.3854(2)
H10 H 0.1228 0.2478 0.3814
H11 H 0.2542 0.3244 0.4361
C4 C 0.3728(5) 0.1996(2) 0.4006(2)
H12 H 0.3732 0.1657 0.4568
H13 H 0.3470 0.1505 0.3529
C5 C 0.6511(4) 0.4104(2) 0.1149(2)
H14 H 0.6545 0.4556 0.0656
H15 H 0.6652 0.3427 0.0947
C6 C 0.7972(4) 0.4351(2) 0.1931(2)
H16 H 0.9066 0.4278 0.1749
H17 H 0.7868 0.5040 0.2110
N1B N 0.4778(3) 0.47264(16) 0.66141(15)
N2B N 0.4861(3) 0.31462(18) 0.68985(16)
N3B N 0.5005(4) 0.32217(18) 0.60494(16)
N4B N 0.5089(3) 0.45389(17) 0.50471(16)
C1B C 0.4736(4) 0.40361(19) 0.72386(17)
H9B H 0.4634 0.4165 0.7823
C2B C 0.4945(4) 0.41986(19) 0.58987(18)
Cd1B Cd 0.48790(3) 0.647252(15) 0.716147(15)
N5B N 0.7661(3) 0.66402(18) 0.69730(18)
H1B H 0.8129 0.6033 0.6936
H2B H 0.8301 0.6963 0.7446
N6B N 0.4564(3) 0.75760(19) 0.59688(16)
H3B H 0.3805 0.8061 0.6023
H4B H 0.4179 0.7253 0.5448
N7B N 0.5165(3) 0.58061(19) 0.85915(16)
H5B H 0.5980 0.6142 0.8981
H6B H 0.5482 0.5160 0.8594
N8B N 0.2061(3) 0.63137(18) 0.73066(19)
H7B H 0.1412 0.6055 0.6802
H8B H 0.1630 0.6917 0.7402
C3B C 0.7653(4) 0.7210(2) 0.6146(2)
H10B H 0.8772 0.7522 0.6186
H11B H 0.7458 0.6756 0.5639
C4B C 0.6272(5) 0.8004(2) 0.5994(2)
H12B H 0.6268 0.8343 0.5432
H13B H 0.6530 0.8495 0.6471
C5B C 0.3489(4) 0.5896(2) 0.8851(2)
H14B H 0.3455 0.5444 0.9344
H15B H 0.3348 0.6573 0.9053
C6B C 0.2028(4) 0.5649(2) 0.8069(2)
H16B H 0.0934 0.5722 0.8251
H17B H 0.2132 0.4960 0.7890
Cd1A Cd 0.48790(3) 0.852748(15) 0.216147(15)
Cd1C Cd 0.51210(3) 0.147252(15) 0.783853(15)
N2A N 0.4861(3) 0.18538(18) 0.18985(16)
N2C N 0.5139(3) 0.81462(18) 0.81015(16)
N9 N 0.9923(4) 0.1833(2) 0.0986(2)
N10 N 0.9576(4) 0.1945(2) 0.17967(18)
N11 N 0.9220(4) 0.03696(19) 0.14803(17)
N12 N 0.9965(4) 0.04670(18) 0.00007(18)
C7 C 0.9153(4) 0.1075(2) 0.2083(2)
H18 H 0.8850 0.0967 0.2631
C8 C 0.9704(4) 0.0860(2) 0.0817(2)
N9B N 1.0077(4) -0.1833(2) -0.0986(2)
N10B N 1.0424(4) -0.1945(2) -0.17967(18)
N11B N 1.0780(4) -0.03696(19) -0.14803(17)
N12B N 1.0035(4) -0.04670(18) -0.00007(18)
C7B C 1.0847(4) -0.1075(2) -0.2083(2)
H18B H 1.1150 -0.0967 -0.2631
C8B C 1.0296(4) -0.0860(2) -0.0817(2)
O1 O 0.0980(4) 0.37426(18) 0.04191(18)
H19 H 0.0237 0.3977 0.0031
H20 H 0.0696 0.3205 0.0565
O2 O 0.1526(4) 0.5719(2) 0.11313(17)
H21 H 0.2547 0.5798 0.1283
H22 H 0.1245 0.5167 0.1014
loop_
_geom_bond_atom_site_label_1
_geom_bond_atom_site_label_2
_geom_bond_site_symmetry_1
_geom_bond_site_symmetry_2
Cd1 N1 1_555 1_555
N1 C1 1_555 1_555
N2 N3 1_555 1_555
N3 C2 1_555 1_555
N4 C2 1_555 1_555
N5 Cd1 1_555 1_555
H1 N5 1_555 1_555
H2 N5 1_555 1_555
N6 Cd1 1_555 1_555
H3 N6 1_555 1_555
H4 N6 1_555 1_555
N7 Cd1 1_555 1_555
H5 N7 1_555 1_555
H6 N7 1_555 1_555
N8 Cd1 1_555 1_555
H7 N8 1_555 1_555
H8 N8 1_555 1_555
C1 N2 1_555 1_555
H9 C1 1_555 1_555
C2 N1 1_555 1_555
C3 N5 1_555 1_555
H10 C3 1_555 1_555
H11 C3 1_555 1_555
C4 N6 1_555 1_555
H12 C4 1_555 1_555
H13 C4 1_555 1_555
C5 N7 1_555 1_555
H14 C5 1_555 1_555
H15 C5 1_555 1_555
C6 N8 1_555 1_555
H16 C6 1_555 1_555
H17 C6 1_555 1_555
N9 N10 1_555 1_555
N10 C7 1_555 1_555
N11 C7 1_555 1_555
N12 C8 1_555 1_555
C7 H18 1_555 1_555
C8 N9 1_555 1_555
O1 H19 1_555 1_555
H20 O1 1_555 1_555
O2 H21 1_555 1_555
H22 O2 1_555 1_555
N1B C1B 1_555 1_555
N2B N3B 1_555 1_555
N3B C2B 1_555 1_555
N4B N4 1_555 1_555
C1B N2B 1_555 1_555
H9B C1B 1_555 1_555
C2B N1B 1_555 1_555
Cd1B N1B 1_555 1_555
N5B Cd1B 1_555 1_555
H1B N5B 1_555 1_555
H2B N5B 1_555 1_555
N6B Cd1B 1_555 1_555
H3B N6B 1_555 1_555
H4B N6B 1_555 1_555
N7B Cd1B 1_555 1_555
H5B N7B 1_555 1_555
H6B N7B 1_555 1_555
N8B Cd1B 1_555 1_555
H7B N8B 1_555 1_555
H8B N8B 1_555 1_555
C3B N5B 1_555 1_555
H10B C3B 1_555 1_555
H11B C3B 1_555 1_555
C4B N6B 1_555 1_555
H12B C4B 1_555 1_555
H13B C4B 1_555 1_555
C5B N7B 1_555 1_555
H14B C5B 1_555 1_555
H15B C5B 1_555 1_555
C6B N8B 1_555 1_555
H16B C6B 1_555 1_555
H17B C6B 1_555 1_555
Cd1A N2 1_555 1_555
Cd1C N2B 1_555 1_555
N2A Cd1 1_555 1_555
N2C Cd1B 1_555 1_555
N9B N10B 1_555 1_555
N10B C7B 1_555 1_555
N11B C7B 1_555 1_555
N12B N12 1_555 1_555
C7B H18B 1_555 1_555
C8B N9B 1_555 1_555
C3 C4 1_555 1_555
C5 C6 1_555 1_555
N11 C8 1_555 1_555
N4B C2B 1_555 1_555
C3B C4B 1_555 1_555
C5B C6B 1_555 1_555
N11B C8B 1_555 1_555
N12B C8B 1_555 1_555

#END
