
#######################################################################
#
#                 Cambridge Crystallographic Data Centre
#                                CCDC 
#
#######################################################################
#
# If this CIF has been generated from an entry in the Cambridge 
# Structural Database, then it will include bibliographic, chemical, 
# crystal, experimental, refinement or atomic coordinate data resulting 
# from the CCDC's data processing and validation procedures.
#
#######################################################################

data_NILNIH
_symmetry_cell_setting           trigonal
_symmetry_space_group_name_H-M   'P -3 1 c'
_symmetry_Int_Tables_number      163
_space_group_name_Hall           "-P 3 2'c"
loop_
_symmetry_equiv_pos_site_id
_symmetry_equiv_pos_as_xyz
1 x,y,z
2 -y,x-y,z
3 -x+y,-x,z
4 -y,-x,1/2-z
5 x,x-y,1/2-z
6 -x+y,y,1/2-z
7 -x,-y,-z
8 y,-x+y,-z
9 x-y,x,-z
10 y,x,1/2+z
11 -x,-x+y,1/2+z
12 x-y,-y,1/2+z
_cell_length_a                   13.1216(3)
_cell_length_b                   13.1216(3)
_cell_length_c                   13.5926(2)
_cell_angle_alpha                90
_cell_angle_beta                 90
_cell_angle_gamma                120
_cell_volume                     2026.78
loop_
_atom_site_label
_atom_site_type_symbol
_atom_site_fract_x
_atom_site_fract_y
_atom_site_fract_z
S1 S 0.47500(5) 0.11228(5) -0.14645(4)
Na1 Na 0.6667 0.3333 -0.2500
Na2 Na 0.6667 0.3333 0.2500
N1 N 0.55707(13) 0.22016(13) 0.03235(10)
N2 N 0.52652(15) 0.20077(15) 0.13115(11)
N3 N 0.39477(15) 0.05476(14) 0.04126(12)
C1 C 0.47668(16) 0.13090(16) -0.02338(14)
C2 C 0.4292(2) 0.10061(19) 0.13299(15)
H1 H 0.3871 0.0637 0.1914
C3 C 0.2905(2) -0.05632(19) 0.01661(19)
H2 H 0.2715 -0.1119 0.0711
H3 H 0.3055 -0.0888 -0.0430
H4 H 0.2242 -0.0432 0.0051
B1 B 0.6667 0.3333 -0.0034(2)
H5 H 0.6667 0.3333 -0.0769
S1A S 0.88772(5) 0.36272(7) -0.14645(4)
N1A N 0.77984(13) 0.33691(18) 0.03235(10)
N2A N 0.79923(15) 0.32575(21) 0.13115(11)
N3A N 0.94524(14) 0.34001(21) 0.04126(12)
C1A C 0.86910(16) 0.34578(23) -0.02338(14)
C2A C 0.89939(19) 0.32859(28) 0.13299(15)
H1A H 0.9363 0.3234 0.1914
C3A C 1.05632(19) 0.34682(28) 0.01661(19)
H2A H 1.1119 0.3834 0.0711
H3A H 1.0888 0.3943 -0.0430
H4A H 1.0432 0.2674 0.0051
S1B S 0.63728(7) 0.52500(5) -0.14645(4)
N1B N 0.66309(18) 0.44293(13) 0.03235(10)
N2B N 0.67425(21) 0.47348(15) 0.13115(11)
N3B N 0.65999(21) 0.60523(15) 0.04126(12)
C1B C 0.65422(23) 0.52332(16) -0.02338(14)
C2B C 0.67141(28) 0.5708(2) 0.13299(15)
H1B H 0.6766 0.6129 0.1914
C3B C 0.65318(28) 0.7095(2) 0.01661(19)
H2B H 0.6166 0.7285 0.0711
H3B H 0.6057 0.6945 -0.0430
H4B H 0.7326 0.7758 0.0051
S1C S 0.88772(5) 0.52500(5) -0.35355(4)
N1C N 0.77984(13) 0.44293(13) -0.53235(10)
N2C N 0.79923(15) 0.47348(15) -0.63115(11)
N3C N 0.94524(14) 0.60523(15) -0.54126(12)
C1C C 0.86910(16) 0.52332(16) -0.47662(14)
C2C C 0.89939(19) 0.5708(2) -0.63299(15)
H1C H 0.9363 0.6129 -0.6914
C3C C 1.05632(19) 0.7095(2) -0.51661(19)
H2C H 1.1119 0.7285 -0.5711
H3C H 1.0888 0.6945 -0.4570
H4C H 1.0432 0.7758 -0.5051
B1C B 0.6667 0.3333 -0.4966(2)
H5C H 0.6667 0.3333 -0.4231
S1E S 0.63728(7) 0.11228(5) -0.35355(4)
N1E N 0.66309(18) 0.22016(13) -0.53235(10)
N2E N 0.67425(21) 0.20077(15) -0.63115(11)
N3E N 0.65999(21) 0.05476(14) -0.54126(12)
C1E C 0.65422(23) 0.13090(16) -0.47662(14)
C2E C 0.67141(28) 0.10061(19) -0.63299(15)
H1E H 0.6766 0.0637 -0.6914
C3E C 0.65318(28) -0.05632(19) -0.51661(19)
H2E H 0.6166 -0.1119 -0.5711
H3E H 0.6057 -0.0888 -0.4570
H4E H 0.7326 -0.0432 -0.5051
S1D S 0.47500(5) 0.36272(7) -0.35355(4)
N1D N 0.55707(13) 0.33691(18) -0.53235(10)
N2D N 0.52652(15) 0.32575(21) -0.63115(11)
N3D N 0.39477(15) 0.34001(21) -0.54126(12)
C1D C 0.47668(16) 0.34578(23) -0.47662(14)
C2D C 0.4292(2) 0.32859(28) -0.63299(15)
H1D H 0.3871 0.3234 -0.6914
C3D C 0.2905(2) 0.34682(28) -0.51661(19)
H2D H 0.2715 0.3834 -0.5711
H3D H 0.3055 0.3943 -0.4570
H4D H 0.2242 0.2674 -0.5051
Na2_2 Na 0.6667 0.3333 -0.7500
N2C_2 N 0.79923(15) 0.47348(15) 0.36885(11)
N2D_2 N 0.52652(15) 0.32575(21) 0.36885(11)
N2E_2 N 0.67425(21) 0.20077(15) 0.36885(11)
loop_
_geom_bond_atom_site_label_1
_geom_bond_atom_site_label_2
_geom_bond_site_symmetry_1
_geom_bond_site_symmetry_2
S1 Na1 1_555 1_555
Na1 H5 1_555 1_555
Na2 N2 1_555 1_555
N1 N2 1_555 1_555
N2 C2 1_555 1_555
N3 C1 1_555 1_555
C1 S1 1_555 1_555
C2 N3 1_555 1_555
H1 C2 1_555 1_555
C3 N3 1_555 1_555
H2 C3 1_555 1_555
H3 C3 1_555 1_555
H4 C3 1_555 1_555
B1 N1 1_555 1_555
H5 B1 1_555 1_555
S1A Na1 1_555 1_555
N1A B1 1_555 1_555
N2A Na2 1_555 1_555
N3A C1A 1_555 1_555
C1A S1A 1_555 1_555
C2A N2A 1_555 1_555
H1A C2A 1_555 1_555
C3A N3A 1_555 1_555
H2A C3A 1_555 1_555
H3A C3A 1_555 1_555
H4A C3A 1_555 1_555
S1B Na1 1_555 1_555
N1B B1 1_555 1_555
N2B Na2 1_555 1_555
N3B C1B 1_555 1_555
C1B S1B 1_555 1_555
C2B N2B 1_555 1_555
H1B C2B 1_555 1_555
C3B N3B 1_555 1_555
H2B C3B 1_555 1_555
H3B C3B 1_555 1_555
H4B C3B 1_555 1_555
S1C Na1 1_555 1_555
N1C N2C 1_555 1_555
N2C C2C 1_555 1_555
N3C C1C 1_555 1_555
C1C S1C 1_555 1_555
C2C N3C 1_555 1_555
H1C C2C 1_555 1_555
C3C N3C 1_555 1_555
H2C C3C 1_555 1_555
H3C C3C 1_555 1_555
H4C C3C 1_555 1_555
B1C N1C 1_555 1_555
H5C Na1 1_555 1_555
S1E Na1 1_555 1_555
N1E B1C 1_555 1_555
N2E N1E 1_555 1_555
N3E C1E 1_555 1_555
C1E S1E 1_555 1_555
C2E N2E 1_555 1_555
H1E C2E 1_555 1_555
C3E N3E 1_555 1_555
H2E C3E 1_555 1_555
H3E C3E 1_555 1_555
H4E C3E 1_555 1_555
S1D Na1 1_555 1_555
N1D B1C 1_555 1_555
N2D N1D 1_555 1_555
N3D C1D 1_555 1_555
C1D S1D 1_555 1_555
C2D N2D 1_555 1_555
H1D C2D 1_555 1_555
C3D N3D 1_555 1_555
H2D C3D 1_555 1_555
H3D C3D 1_555 1_555
H4D C3D 1_555 1_555
Na2_2 N2C 1_555 1_555
N2C_2 Na2 1_555 1_555
N2D_2 Na2 1_555 1_555
N2E_2 Na2 1_555 1_555
N1 C1 1_555 1_555
N1A N2A 1_555 1_555
N1A C1A 1_555 1_555
N3A C2A 1_555 1_555
N1B N2B 1_555 1_555
N1B C1B 1_555 1_555
N3B C2B 1_555 1_555
N1C C1C 1_555 1_555
B1C H5C 1_555 1_555
N1E C1E 1_555 1_555
N2E Na2_2 1_555 1_555
N3E C2E 1_555 1_555
N1D C1D 1_555 1_555
N2D Na2_2 1_555 1_555
N3D C2D 1_555 1_555

#END
