
#######################################################################
#
#                 Cambridge Crystallographic Data Centre
#                                CCDC 
#
#######################################################################
#
# If this CIF has been generated from an entry in the Cambridge 
# Structural Database, then it will include bibliographic, chemical, 
# crystal, experimental, refinement or atomic coordinate data resulting 
# from the CCDC's data processing and validation procedures.
#
#######################################################################

data_NILZIT
_symmetry_cell_setting           monoclinic
_symmetry_space_group_name_H-M   'P 21/n'
_symmetry_Int_Tables_number      14
_space_group_name_Hall           '-P 2yn'
loop_
_symmetry_equiv_pos_site_id
_symmetry_equiv_pos_as_xyz
1 x,y,z
2 1/2-x,1/2+y,1/2-z
3 -x,-y,-z
4 1/2+x,1/2-y,1/2+z
_cell_length_a                   11.4008(14)
_cell_length_b                   9.6644(11)
_cell_length_c                   16.7665(19)
_cell_angle_alpha                90
_cell_angle_beta                 96.393(3)
_cell_angle_gamma                90
_cell_volume                     1835.88
loop_
_atom_site_label
_atom_site_type_symbol
_atom_site_fract_x
_atom_site_fract_y
_atom_site_fract_z
Cu1 Cu 1.08519(5) 0.55591(6) 0.07449(3)
Cl1 Cl 0.89350(10) 0.62445(12) 0.02383(7)
S1 S 1.06799(11) 0.42293(13) 0.18808(7)
S2 S 1.27117(11) 0.21396(13) 0.42956(7)
O1 O 0.9161(3) 0.1617(4) 0.4286(2)
O2 O 0.8837(3) 0.2465(4) 0.2992(2)
C1 C 0.8324(5) 0.2195(7) 0.3698(3)
H1 H 0.7669 0.1559 0.3582
H2 H 0.8019 0.3048 0.3899
C2 C 0.9071(4) 0.1376(5) 0.2517(3)
C3 C 0.9041(5) -0.0002(6) 0.2748(3)
H3 H 0.8864 -0.0242 0.3258
C4 C 0.9277(6) -0.1009(6) 0.2205(4)
H4 H 0.9242 -0.1935 0.2352
C5 C 0.9557(6) -0.0687(7) 0.1470(4)
H5 H 0.9720 -0.1386 0.1117
C6 C 0.9602(5) 0.0690(7) 0.1235(3)
H6 H 0.9797 0.0908 0.0726
C7 C 0.9359(4) 0.1746(5) 0.1760(3)
C8 C 0.9380(4) 0.3208(5) 0.1493(3)
H7 H 0.8684 0.3666 0.1649
H8 H 0.9322 0.3219 0.0912
C9 C 1.1917(4) 0.3059(5) 0.1877(3)
H9 H 1.1636 0.2167 0.1670
H10 H 1.2460 0.3419 0.1522
C10 C 1.2566(5) 0.2868(7) 0.2708(3)
H11 H 1.3259 0.2303 0.2665
H12 H 1.2836 0.3767 0.2911
C11 C 1.1870(5) 0.2226(7) 0.3297(3)
H13 H 1.1643 0.1298 0.3120
H14 H 1.1156 0.2758 0.3328
C12 C 1.1576(5) 0.1324(5) 0.4826(3)
H15 H 1.1095 0.0735 0.4452
H16 H 1.1959 0.0736 0.5246
C13 C 1.0790(5) 0.2314(5) 0.5191(3)
C14 C 1.1242(5) 0.3114(6) 0.5850(3)
H17 H 1.2037 0.3046 0.6041
C15 C 1.0530(6) 0.4001(6) 0.6219(4)
H18 H 1.0849 0.4546 0.6646
C16 C 0.9332(6) 0.4081(6) 0.5953(3)
H19 H 0.8841 0.4658 0.6211
C17 C 0.8885(5) 0.3306(6) 0.5312(3)
H20 H 0.8084 0.3361 0.5132
C18 C 0.9598(5) 0.2446(5) 0.4927(3)
Cu1A Cu 1.41481(5) 0.05591(6) 0.42551(3)
Cu1B Cu 0.91481(5) 0.44409(6) -0.07449(3)
Cl1B Cl 1.10650(10) 0.37555(12) -0.02383(7)
S2A S 1.22883(11) 0.71396(13) 0.07044(7)
loop_
_geom_bond_atom_site_label_1
_geom_bond_atom_site_label_2
_geom_bond_site_symmetry_1
_geom_bond_site_symmetry_2
Cu1 Cl1 1_555 1_555
Cl1 Cu1B 1_555 1_555
S1 Cu1 1_555 1_555
S2 C11 1_555 1_555
O1 C1 1_555 1_555
O2 C1 1_555 1_555
C1 H1 1_555 1_555
H2 C1 1_555 1_555
C2 O2 1_555 1_555
C3 C2 1_555 1_555
H3 C3 1_555 1_555
C4 C3 1_555 1_555
H4 C4 1_555 1_555
C5 C4 1_555 1_555
H5 C5 1_555 1_555
C6 C5 1_555 1_555
H6 C6 1_555 1_555
C7 C2 1_555 1_555
C8 S1 1_555 1_555
H7 C8 1_555 1_555
H8 C8 1_555 1_555
C9 S1 1_555 1_555
H9 C9 1_555 1_555
H10 C9 1_555 1_555
C10 C9 1_555 1_555
H11 C10 1_555 1_555
H12 C10 1_555 1_555
C11 C10 1_555 1_555
H13 C11 1_555 1_555
H14 C11 1_555 1_555
C12 S2 1_555 1_555
H15 C12 1_555 1_555
H16 C12 1_555 1_555
C13 C12 1_555 1_555
C14 C13 1_555 1_555
H17 C14 1_555 1_555
C15 C14 1_555 1_555
H18 C15 1_555 1_555
C16 C15 1_555 1_555
H19 C16 1_555 1_555
C17 C16 1_555 1_555
H20 C17 1_555 1_555
C18 O1 1_555 1_555
Cu1A S2 1_555 1_555
Cu1B Cl1B 1_555 1_555
Cl1B Cu1 1_555 1_555
S2A Cu1 1_555 1_555
C6 C7 1_555 1_555
C7 C8 1_555 1_555
C13 C18 1_555 1_555
C17 C18 1_555 1_555

#END
