
#######################################################################
#
#                 Cambridge Crystallographic Data Centre
#                                CCDC 
#
#######################################################################
#
# If this CIF has been generated from an entry in the Cambridge 
# Structural Database, then it will include bibliographic, chemical, 
# crystal, experimental, refinement or atomic coordinate data resulting 
# from the CCDC's data processing and validation procedures.
#
#######################################################################

data_NIMBOB
_symmetry_cell_setting           monoclinic
_symmetry_space_group_name_H-M   'C 2/c'
_symmetry_Int_Tables_number      15
_space_group_name_Hall           '-C 2yn'
loop_
_symmetry_equiv_pos_site_id
_symmetry_equiv_pos_as_xyz
1 x,y,z
2 1/2+x,1/2+y,z
3 -x,y,1/2-z
4 1/2-x,1/2+y,1/2-z
5 -x,-y,-z
6 1/2-x,1/2-y,-z
7 x,-y,1/2+z
8 1/2+x,1/2-y,1/2+z
_cell_length_a                   12.6212(11)
_cell_length_b                   10.6429(10)
_cell_length_c                   9.1104(8)
_cell_angle_alpha                90
_cell_angle_beta                 96.200(2)
_cell_angle_gamma                90
_cell_volume                     1216.61
loop_
_atom_site_label
_atom_site_type_symbol
_atom_site_fract_x
_atom_site_fract_y
_atom_site_fract_z
Cu1 Cu 0.0000 0.65231(3) 0.2500
O1 O -0.09705(12) 0.61331(15) 0.02352(17)
O2 O -0.08409(12) 0.48426(15) -0.16483(16)
C1 C -0.05256(15) 0.5295(2) -0.0400(2)
N1 N 0.09894(14) 0.77973(18) 0.1844(2)
C2 C 0.1786(3) 0.9215(4) 0.0591(4)
H1 H 0.1940 0.9770 -0.0146
C3 C 0.0920(3) 0.8464(3) 0.0561(4)
H2 H 0.0371 0.8411 -0.0204
N2 N 0.23750(17) 0.9016(2) 0.1861(3)
H3 H 0.2964 0.9386 0.2165
C4 C 0.18922(19) 0.8150(2) 0.2572(3)
H4 H 0.2160 0.7825 0.3485
Cu1F Cu 0.0000 0.34769(3) -0.2500
O1D O 0.09705(12) 0.38669(15) -0.02352(17)
O1B O 0.09705(12) 0.61331(15) 0.47648(17)
O2D O 0.08409(12) 0.51574(15) 0.16483(16)
O2F O -0.08409(12) 0.51574(15) 0.33517(16)
C1D C 0.05256(15) 0.4705(2) 0.0400(2)
N1B N -0.09894(14) 0.77973(18) 0.3156(2)
C2B C -0.1786(3) 0.9215(4) 0.4409(4)
H1B H -0.1940 0.9770 0.5146
C3B C -0.0920(3) 0.8464(3) 0.4439(4)
H2B H -0.0371 0.8411 0.5204
N2B N -0.23750(17) 0.9016(2) 0.3139(3)
H3B H -0.2964 0.9386 0.2835
C4B C -0.18922(19) 0.8150(2) 0.2428(3)
H4B H -0.2160 0.7825 0.1515
loop_
_geom_bond_atom_site_label_1
_geom_bond_atom_site_label_2
_geom_bond_site_symmetry_1
_geom_bond_site_symmetry_2
Cu1 O1 1_555 1_555
O1 C1 1_555 1_555
O2 C1 1_555 1_555
C1 C1D 1_555 1_555
N1 Cu1 1_555 1_555
C2 H1 1_555 1_555
C3 N1 1_555 1_555
H2 C3 1_555 1_555
N2 C2 1_555 1_555
H3 N2 1_555 1_555
C4 N1 1_555 1_555
H4 C4 1_555 1_555
Cu1F O2 1_555 1_555
O1D Cu1F 1_555 1_555
O1B Cu1 1_555 1_555
O2D Cu1 1_555 1_555
O2F Cu1 1_555 1_555
C1D O1D 1_555 1_555
N1B Cu1 1_555 1_555
C2B H1B 1_555 1_555
C3B N1B 1_555 1_555
H2B C3B 1_555 1_555
N2B C2B 1_555 1_555
H3B N2B 1_555 1_555
C4B N1B 1_555 1_555
H4B C4B 1_555 1_555
C2 C3 1_555 1_555
N2 C4 1_555 1_555
O2D C1D 1_555 1_555
C2B C3B 1_555 1_555
N2B C4B 1_555 1_555

#END
