
#######################################################################
#
#                 Cambridge Crystallographic Data Centre
#                                CCDC 
#
#######################################################################
#
# If this CIF has been generated from an entry in the Cambridge 
# Structural Database, then it will include bibliographic, chemical, 
# crystal, experimental, refinement or atomic coordinate data resulting 
# from the CCDC's data processing and validation procedures.
#
#######################################################################

data_NIMDEU
_symmetry_cell_setting           monoclinic
_symmetry_space_group_name_H-M   'P 21/c'
_symmetry_Int_Tables_number      14
_space_group_name_Hall           '-P 2ybc'
loop_
_symmetry_equiv_pos_site_id
_symmetry_equiv_pos_as_xyz
1 x,y,z
2 -x,1/2+y,1/2-z
3 -x,-y,-z
4 x,1/2-y,1/2+z
_cell_length_a                   11.552(5)
_cell_length_b                   14.116(6)
_cell_length_c                   10.387(4)
_cell_angle_alpha                90
_cell_angle_beta                 96.412(7)
_cell_angle_gamma                90
_cell_volume                     1683.19
loop_
_atom_site_label
_atom_site_type_symbol
_atom_site_fract_x
_atom_site_fract_y
_atom_site_fract_z
Ag1 Ag 0.93091(4) 0.09422(4) 0.14935(5)
Ag2 Ag 0.93322(5) -0.11854(4) 0.16150(5)
Ag3 Ag 0.79134(5) -0.22883(4) 0.34586(5)
Ag4 Ag 1.07698(5) 0.04300(5) 0.38432(5)
S1 S 1.11872(13) 0.11698(10) 0.07755(14)
S2 S 0.87326(13) -0.06260(10) 0.36690(13)
N1 N 1.0886(5) -0.2706(4) 0.0642(5)
N2 N 1.2035(5) -0.0134(3) 0.2505(5)
O1 O 1.0072(5) -0.2851(4) 0.1344(6)
N3 N 0.6490(5) -0.2507(4) 0.0850(5)
N4 N 0.7648(4) 0.0797(3) 0.2298(5)
O2 O 1.1149(5) -0.3352(4) -0.0035(6)
C1 C 0.7531(5) 0.0141(4) 0.3205(6)
C2 C 1.3131(6) 0.0066(4) 0.0712(6)
H1 H 1.3226 0.0372 0.0000
O3 O 1.1326(6) -0.1915(4) 0.0623(6)
C3 C 1.2197(5) 0.0285(4) 0.1381(5)
O4 O 0.6361(6) -0.1860(4) 0.1622(6)
C4 C 1.2810(6) -0.0806(4) 0.2958(6)
H2 H 1.2694 -0.1117 0.3723
C5 C 0.6518(6) 0.0062(5) 0.3797(6)
H3 H 0.6447 0.0000 0.4421
O5 O 0.6022(6) -0.2517(5) -0.0246(5)
O6 O 0.7132(7) -0.3153(5) 0.1216(7)
C6 C 0.6770(6) 0.1396(5) 0.1966(7)
H4 H 0.6846 0.1850 0.1338
C7 C 1.3923(6) -0.0606(5) 0.1191(7)
H5 H 1.4556 -0.0759 0.0752
C8 C 0.5622(6) 0.0689(5) 0.3463(7)
H6 H 0.4942 0.0653 0.3857
C9 C 0.5744(6) 0.1366(5) 0.2528(7)
H7 H 0.5151 0.1795 0.2285
C10 C 1.3756(6) -0.1051(5) 0.2347(7)
H8 H 1.4278 -0.1508 0.2700
Ag1B Ag 1.06909(4) -0.09422(4) -0.14935(5)
Ag2B Ag 1.06678(5) 0.11854(4) -0.16150(5)
Ag3A Ag 1.20866(5) 0.27117(4) 0.15414(5)
Ag3C Ag 0.79134(5) -0.27117(4) -0.15414(5)
Ag4A Ag 0.92302(5) -0.45700(5) 0.11568(5)
Ag4B Ag 0.92302(5) -0.04300(5) 0.61568(5)
S1A S 0.88128(13) -0.38302(10) 0.42245(14)
S1B S 0.88128(13) -0.11698(10) -0.07755(14)
S2B S 1.12674(13) 0.06260(10) 0.63310(13)
O1A O 0.9928(5) 0.2149(4) 0.3656(6)
O3B O 0.8674(6) 0.1915(4) -0.0623(6)
O5C O 0.6022(6) -0.2483(5) 0.4754(5)
loop_
_geom_bond_atom_site_label_1
_geom_bond_atom_site_label_2
_geom_bond_site_symmetry_1
_geom_bond_site_symmetry_2
Ag1 Ag2 1_555 1_555
Ag2 Ag3 1_555 1_555
Ag3 S2 1_555 1_555
Ag4 Ag1 1_555 1_555
S1 Ag1 1_555 1_555
S2 Ag2 1_555 1_555
N1 O1 1_555 1_555
N2 Ag4 1_555 1_555
O1 Ag2 1_555 1_555
N3 O4 1_555 1_555
N4 Ag1 1_555 1_555
O2 N1 1_555 1_555
C1 S2 1_555 1_555
C2 H1 1_555 1_555
O3 N1 1_555 1_555
C3 S1 1_555 1_555
O4 Ag3 1_555 1_555
C4 N2 1_555 1_555
H2 C4 1_555 1_555
C5 C1 1_555 1_555
H3 C5 1_555 1_555
O5 N3 1_555 1_555
O6 Ag3 1_555 1_555
C6 N4 1_555 1_555
H4 C6 1_555 1_555
C7 C2 1_555 1_555
H5 C7 1_555 1_555
C8 C5 1_555 1_555
H6 C8 1_555 1_555
C9 C6 1_555 1_555
H7 C9 1_555 1_555
C10 C4 1_555 1_555
H8 C10 1_555 1_555
Ag1B O3 1_555 1_555
Ag2B S1 1_555 1_555
Ag3A S1 1_555 1_555
Ag3C O5 1_555 1_555
Ag4A O1 1_555 1_555
Ag4B S2 1_555 1_555
S1A Ag3 1_555 1_555
S1B Ag2 1_555 1_555
S2B Ag4 1_555 1_555
O1A Ag4 1_555 1_555
O3B Ag1 1_555 1_555
O5C Ag3 1_555 1_555
Ag4 S2 1_555 1_555
N2 C3 1_555 1_555
N3 O6 1_555 1_555
N4 C1 1_555 1_555
C2 C3 1_555 1_555
C7 C10 1_555 1_555
C8 C9 1_555 1_555
Ag1B Ag2B 1_555 1_555
Ag1B S1B 1_555 1_555
Ag3C S1B 1_555 1_555
Ag4B S2B 1_555 1_555

#END
