
#######################################################################
#
#                 Cambridge Crystallographic Data Centre
#                                CCDC 
#
#######################################################################
#
# If this CIF has been generated from an entry in the Cambridge 
# Structural Database, then it will include bibliographic, chemical, 
# crystal, experimental, refinement or atomic coordinate data resulting 
# from the CCDC's data processing and validation procedures.
#
#######################################################################

data_NIMDOD
_symmetry_cell_setting           monoclinic
_symmetry_space_group_name_H-M   'P 21/n'
_symmetry_Int_Tables_number      14
_space_group_name_Hall           '-P 2yn'
loop_
_symmetry_equiv_pos_site_id
_symmetry_equiv_pos_as_xyz
1 x,y,z
2 1/2-x,1/2+y,1/2-z
3 -x,-y,-z
4 1/2+x,1/2-y,1/2+z
_cell_length_a                   9.3248(2)
_cell_length_b                   12.6620(4)
_cell_length_c                   21.7892(7)
_cell_angle_alpha                90
_cell_angle_beta                 95.351(2)
_cell_angle_gamma                90
_cell_volume                     2561.45
loop_
_atom_site_label
_atom_site_type_symbol
_atom_site_fract_x
_atom_site_fract_y
_atom_site_fract_z
Ba1 Ba 0.75045(2) -0.103846(18) 0.009615(10)
P1 P 0.99930(10) 0.03763(8) 0.08495(4)
P2 P 0.50140(10) -0.00656(8) -0.08846(5)
O1 O 0.6759(3) -0.2683(2) 0.08367(13)
O2 O 0.8120(3) -0.3003(2) -0.03975(13)
C1 C 0.9662(4) 0.1191(3) 0.15258(17)
H1 H 0.9052 0.1799 0.1384
H2 H 0.9114 0.0764 0.1804
C2 C 1.1019(5) 0.1609(4) 0.1893(2)
H3 H 1.0746 0.2072 0.2224
H4 H 1.1594 0.2009 0.1619
H5 H 1.1587 0.1015 0.2073
C3 C 1.0618(4) -0.0870(3) 0.11879(17)
C4 C 1.0644(4) -0.1127(3) 0.18209(17)
H6 H 1.0307 -0.0624 0.2098
C5 C 1.1148(4) -0.2095(3) 0.20468(19)
H7 H 1.1156 -0.2241 0.2475
C6 C 1.1641(4) -0.2853(3) 0.16575(18)
H8 H 1.1994 -0.3513 0.1814
C7 C 1.1606(4) -0.2619(3) 0.10323(18)
H9 H 1.1924 -0.3132 0.0757
C8 C 1.1115(4) -0.1653(3) 0.08049(17)
H10 H 1.1114 -0.1515 0.0376
C9 C 0.5405(4) 0.0358(4) -0.16665(18)
H11 H 0.6076 0.0965 -0.1627
H12 H 0.5897 -0.0226 -0.1864
C10 C 0.4062(5) 0.0678(4) -0.2090(2)
H13 H 0.4355 0.0928 -0.2485
H14 H 0.3551 0.1244 -0.1894
H15 H 0.3424 0.0066 -0.2160
C11 C 0.4314(4) -0.1390(3) -0.10036(17)
C12 C 0.3801(4) -0.1935(3) -0.05016(17)
H16 H 0.3832 -0.1592 -0.0113
C13 C 0.3258(4) -0.2946(3) -0.05582(19)
H17 H 0.2932 -0.3285 -0.0208
C14 C 0.3179(4) -0.3473(4) -0.1113(2)
H18 H 0.2788 -0.4165 -0.1151
C15 C 0.3682(4) -0.2970(4) -0.1612(2)
H19 H 0.3643 -0.3324 -0.1998
C16 C 0.4243(4) -0.1957(3) -0.15605(18)
H20 H 0.4591 -0.1636 -0.1912
C17 C 0.5426(5) -0.3124(4) 0.0992(2)
H21 H 0.5039 -0.3624 0.0669
H22 H 0.4707 -0.2558 0.1031
C18 C 0.5732(6) -0.3682(5) 0.1588(3)
H23 H 0.5425 -0.4430 0.1550
H24 H 0.5217 -0.3342 0.1913
C19 C 0.7343(6) -0.3608(4) 0.1743(2)
H25 H 0.7589 -0.3071 0.2066
H26 H 0.7752 -0.4297 0.1885
C20 C 0.7875(5) -0.3289(4) 0.1143(3)
H27 H 0.8767 -0.2865 0.1215
H28 H 0.8079 -0.3919 0.0897
C21 C 0.7019(5) -0.3754(4) -0.0596(3)
H29 H 0.6092 -0.3393 -0.0711
H30 H 0.6884 -0.4270 -0.0265
C22 C 0.7543(5) -0.4282(4) -0.1134(3)
H31 H 0.7177 -0.3919 -0.1520
H32 H 0.7223 -0.5027 -0.1157
C23 C 0.9159(5) -0.4217(4) -0.1040(2)
H33 H 0.9558 -0.3934 -0.1412
H34 H 0.9583 -0.4922 -0.0945
C24 C 0.9465(4) -0.3478(4) -0.0502(2)
H35 H 0.9861 -0.3872 -0.0132
H36 H 1.0170 -0.2932 -0.0598
Ba1B Ba 1.24955(2) 0.103846(18) -0.009615(10)
Ba1B_2 Ba 0.24955(2) 0.103846(18) -0.009615(10)
P1B P 1.00070(10) -0.03763(8) -0.08495(4)
P2B P 0.49860(10) 0.00656(8) 0.08846(5)
loop_
_geom_bond_atom_site_label_1
_geom_bond_atom_site_label_2
_geom_bond_site_symmetry_1
_geom_bond_site_symmetry_2
Ba1 P1 1_555 1_555
P1 C1 1_555 1_555
P2 Ba1 1_555 1_555
O1 Ba1 1_555 1_555
O2 Ba1 1_555 1_555
C1 H1 1_555 1_555
H2 C1 1_555 1_555
C2 C1 1_555 1_555
H3 C2 1_555 1_555
H4 C2 1_555 1_555
H5 C2 1_555 1_555
C3 P1 1_555 1_555
C4 C3 1_555 1_555
H6 C4 1_555 1_555
C5 C4 1_555 1_555
H7 C5 1_555 1_555
C6 C5 1_555 1_555
H8 C6 1_555 1_555
C7 C6 1_555 1_555
H9 C7 1_555 1_555
C8 C3 1_555 1_555
H10 C8 1_555 1_555
C9 P2 1_555 1_555
H11 C9 1_555 1_555
H12 C9 1_555 1_555
C10 C9 1_555 1_555
H13 C10 1_555 1_555
H14 C10 1_555 1_555
H15 C10 1_555 1_555
C11 P2 1_555 1_555
C12 C11 1_555 1_555
H16 C12 1_555 1_555
C13 C12 1_555 1_555
H17 C13 1_555 1_555
C14 C13 1_555 1_555
H18 C14 1_555 1_555
C15 C14 1_555 1_555
H19 C15 1_555 1_555
C16 C11 1_555 1_555
H20 C16 1_555 1_555
C17 O1 1_555 1_555
H21 C17 1_555 1_555
H22 C17 1_555 1_555
C18 C17 1_555 1_555
H23 C18 1_555 1_555
H24 C18 1_555 1_555
C19 C18 1_555 1_555
H25 C19 1_555 1_555
H26 C19 1_555 1_555
C20 O1 1_555 1_555
H27 C20 1_555 1_555
H28 C20 1_555 1_555
C21 O2 1_555 1_555
H29 C21 1_555 1_555
H30 C21 1_555 1_555
C22 C21 1_555 1_555
H31 C22 1_555 1_555
H32 C22 1_555 1_555
C23 C22 1_555 1_555
H33 C23 1_555 1_555
H34 C23 1_555 1_555
C24 O2 1_555 1_555
H35 C24 1_555 1_555
H36 C24 1_555 1_555
Ba1B P1 1_555 1_555
Ba1B_2 P2 1_555 1_555
P1B Ba1 1_555 1_555
P2B Ba1 1_555 1_555
C7 C8 1_555 1_555
C15 C16 1_555 1_555
C19 C20 1_555 1_555
C23 C24 1_555 1_555
Ba1B P1B 1_555 1_555
Ba1B_2 P2B 1_555 1_555

#END
