
#######################################################################
#
#                 Cambridge Crystallographic Data Centre
#                                CCDC 
#
#######################################################################
#
# If this CIF has been generated from an entry in the Cambridge 
# Structural Database, then it will include bibliographic, chemical, 
# crystal, experimental, refinement or atomic coordinate data resulting 
# from the CCDC's data processing and validation procedures.
#
#######################################################################

data_NIMGOH
_symmetry_cell_setting           orthorhombic
_symmetry_space_group_name_H-M   'C 2 2 21'
_symmetry_Int_Tables_number      20
_space_group_name_Hall           'C 2n 2'
loop_
_symmetry_equiv_pos_site_id
_symmetry_equiv_pos_as_xyz
1 x,y,z
2 -x,-y,1/2+z
3 x,-y,-z
4 -x,y,1/2-z
5 1/2+x,1/2+y,z
6 1/2-x,1/2-y,1/2+z
7 1/2+x,1/2-y,-z
8 1/2-x,1/2+y,1/2-z
_cell_length_a                   18.768(9)
_cell_length_b                   28.890(14)
_cell_length_c                   9.479(5)
_cell_angle_alpha                90
_cell_angle_beta                 90
_cell_angle_gamma                90
_cell_volume                     5139.59
loop_
_atom_site_label
_atom_site_type_symbol
_atom_site_fract_x
_atom_site_fract_y
_atom_site_fract_z
Zn1 Zn -0.05682(5) -0.23482(3) 0.63948(10)
S1 S 0.0741(2) 0.06072(16) 0.1166(5)
O1 O 0.0113(4) -0.1861(3) 0.5682(9)
O2 O 0.0975(4) -0.1857(3) 0.7214(9)
O3 O 0.4045(5) 0.2166(3) -0.2327(9)
O4 O 0.4875(5) 0.2152(3) -0.0656(10)
O5 O -0.1304(4) -0.2421(3) 0.4916(8)
N1 N 0.0907(5) 0.0163(4) 0.2128(13)
N2 N 0.1532(6) 0.0783(4) 0.0818(12)
N3 N -0.1854(7) -0.2495(4) 0.2858(12)
C1 C 0.0662(5) -0.1714(3) 0.6155(9)
C2 C 0.1008(5) -0.1321(3) 0.5352(11)
C3 C 0.0671(6) -0.1131(4) 0.4176(11)
H1 H 0.0225 -0.1240 0.3912
C4 C 0.0988(6) -0.0782(4) 0.3392(14)
H2 H 0.0755 -0.0661 0.2609
C5 C 0.1663(6) -0.0612(4) 0.3779(12)
C6 C 0.1988(5) -0.0800(4) 0.4948(13)
H3 H 0.2433 -0.0689 0.5213
C7 C 0.1676(5) -0.1152(3) 0.5752(13)
H4 H 0.1909 -0.1271 0.6538
C8 C 0.2020(5) -0.0228(3) 0.2975(12)
C9 C 0.1618(6) 0.0118(4) 0.2199(13)
C10 C 0.1976(7) 0.0480(4) 0.1435(14)
C11 C 0.2745(6) 0.0515(3) 0.1449(14)
C12 C 0.3103(6) 0.0173(4) 0.2188(14)
H5 H 0.3598 0.0176 0.2215
C13 C 0.2728(7) -0.0178(4) 0.2900(14)
H6 H 0.3001 -0.0399 0.3366
C14 C 0.3130(8) 0.0907(4) 0.0747(13)
C15 C 0.3772(7) 0.1060(4) 0.1354(16)
H7 H 0.3955 0.0923 0.2164
C16 C 0.4120(7) 0.1422(4) 0.0704(13)
H8 H 0.4548 0.1526 0.1085
C17 C 0.3864(7) 0.1633(4) -0.0470(12)
C18 C 0.3246(10) 0.1490(5) -0.1058(16)
H9 H 0.3062 0.1639 -0.1848
C19 C 0.2885(8) 0.1112(4) -0.0449(13)
H10 H 0.2473 0.1000 -0.0874
C20 C 0.4278(5) 0.2017(3) -0.1192(13)
C21 C -0.1208(18) -0.1825(11) 0.344(4)
H11 H -0.1203 -0.1631 0.4263
H12 H -0.1524 -0.1695 0.2748
H13 H -0.0736 -0.1843 0.3055
C22 C -0.1451(10) -0.2285(7) 0.3822(18)
C23 C -0.2207(12) -0.2923(8) 0.311(3)
H14 H -0.2045 -0.3051 0.3992
H15 H -0.2102 -0.3136 0.2362
H16 H -0.2712 -0.2872 0.3158
C24 C -0.1965(16) -0.2344(11) 0.140(2)
H17 H -0.1953 -0.2012 0.1362
H18 H -0.2419 -0.2453 0.1077
H19 H -0.1595 -0.2468 0.0816
Zn1C Zn 0.05682(5) -0.23482(3) 0.86052(10)
Zn1D Zn 0.44318(5) 0.26518(3) -0.36052(10)
Zn1G Zn 0.55682(5) 0.26518(3) -0.13948(10)
O2C O -0.0975(4) -0.1857(3) 0.7786(9)
O3D O -0.0955(5) -0.2834(3) 0.7673(9)
O4G O 0.0125(5) -0.2848(3) 0.5656(10)
O6 O 0.0450(16) 0.4579(10) 0.901(3)
O7 O 0.039(2) 0.4311(14) 1.087(4)
loop_
_geom_bond_atom_site_label_1
_geom_bond_atom_site_label_2
_geom_bond_site_symmetry_1
_geom_bond_site_symmetry_2
Zn1 O1 1_555 1_555
S1 N1 1_555 1_555
O1 C1 1_555 1_555
O2 C1 1_555 1_555
O3 C20 1_555 1_555
O4 C20 1_555 1_555
O5 Zn1 1_555 1_555
N1 C9 1_555 1_555
N2 S1 1_555 1_555
N3 C22 1_555 1_555
C1 C2 1_555 1_555
C2 C3 1_555 1_555
C3 H1 1_555 1_555
C4 C3 1_555 1_555
H2 C4 1_555 1_555
C5 C4 1_555 1_555
C6 C5 1_555 1_555
H3 C6 1_555 1_555
C7 C2 1_555 1_555
H4 C7 1_555 1_555
C8 C5 1_555 1_555
C9 C8 1_555 1_555
C10 N2 1_555 1_555
C11 C10 1_555 1_555
C12 C11 1_555 1_555
H5 C12 1_555 1_555
C13 C8 1_555 1_555
H6 C13 1_555 1_555
C14 C11 1_555 1_555
C15 C14 1_555 1_555
H7 C15 1_555 1_555
C16 C15 1_555 1_555
H8 C16 1_555 1_555
C17 C16 1_555 1_555
C18 C17 1_555 1_555
H9 C18 1_555 1_555
C19 C14 1_555 1_555
H10 C19 1_555 1_555
C20 C17 1_555 1_555
C21 H11 1_555 1_555
H12 C21 1_555 1_555
H13 C21 1_555 1_555
C22 O5 1_555 1_555
C23 N3 1_555 1_555
H14 C23 1_555 1_555
H15 C23 1_555 1_555
H16 C23 1_555 1_555
C24 N3 1_555 1_555
H17 C24 1_555 1_555
H18 C24 1_555 1_555
H19 C24 1_555 1_555
Zn1C O2 1_555 1_555
Zn1D O3 1_555 1_555
Zn1G O4 1_555 1_555
O2C Zn1 1_555 1_555
O3D Zn1 1_555 1_555
O4G Zn1 1_555 1_555
C6 C7 1_555 1_555
C9 C10 1_555 1_555
C12 C13 1_555 1_555
C18 C19 1_555 1_555
C21 C22 1_555 1_555

#END
