
#######################################################################
#
#                 Cambridge Crystallographic Data Centre
#                                CCDC 
#
#######################################################################
#
# If this CIF has been generated from an entry in the Cambridge 
# Structural Database, then it will include bibliographic, chemical, 
# crystal, experimental, refinement or atomic coordinate data resulting 
# from the CCDC's data processing and validation procedures.
#
#######################################################################

data_NIMJUP
_symmetry_cell_setting           orthorhombic
_symmetry_space_group_name_H-M   'P b c n'
_symmetry_Int_Tables_number      60
_space_group_name_Hall           '-P 2n 2ab'
loop_
_symmetry_equiv_pos_site_id
_symmetry_equiv_pos_as_xyz
1 x,y,z
2 1/2-x,1/2-y,1/2+z
3 1/2+x,1/2-y,-z
4 -x,y,1/2-z
5 -x,-y,-z
6 1/2+x,1/2+y,1/2-z
7 1/2-x,1/2+y,z
8 x,-y,1/2+z
_cell_length_a                   19.2982(11)
_cell_length_b                   16.5661(10)
_cell_length_c                   25.3006(15)
_cell_angle_alpha                90
_cell_angle_beta                 90
_cell_angle_gamma                90
_cell_volume                     8088.5
loop_
_atom_site_label
_atom_site_type_symbol
_atom_site_fract_x
_atom_site_fract_y
_atom_site_fract_z
I1 I -0.04151(3) 0.00742(3) 0.41747(2)
Cu1 Cu -0.01285(5) -0.08428(6) 0.49981(4)
S1 S 0.07133(10) -0.18054(12) 0.47289(9)
S2 S 0.38209(9) -0.36276(12) 0.47285(8)
C1 C 0.1151(4) -0.2114(5) 0.5340(3)
H1 H 0.1524 -0.1734 0.5404
H2 H 0.0822 -0.2051 0.5628
C2 C 0.1454(4) -0.2960(4) 0.5380(3)
H3 H 0.1073 -0.3336 0.5452
C3 C 0.1937(4) -0.2976(4) 0.5849(3)
H4 H 0.1670 -0.2870 0.6166
H5 H 0.2271 -0.2543 0.5811
C4 C 0.2331(4) -0.3771(5) 0.5923(3)
H6 H 0.2006 -0.4196 0.6013
H7 H 0.2656 -0.3716 0.6213
C5 C 0.2726(4) -0.4005(4) 0.5418(3)
H8 H 0.2918 -0.4546 0.5470
C6 C 0.2202(4) -0.4050(4) 0.4957(3)
H9 H 0.2445 -0.4186 0.4633
H10 H 0.1866 -0.4472 0.5027
C7 C 0.1828(4) -0.3251(4) 0.4885(3)
H11 H 0.1494 -0.3305 0.4602
H12 H 0.2162 -0.2844 0.4780
C8 C 0.3326(4) -0.3429(4) 0.5326(3)
H13 H 0.3636 -0.3458 0.5627
H14 H 0.3146 -0.2883 0.5309
C9 C 0.4010(4) -0.2613(5) 0.4477(4)
H15 H 0.4313 -0.2336 0.4724
H16 H 0.4251 -0.2656 0.4142
C10 C 0.3358(4) -0.2125(5) 0.4402(4)
C11 C 0.3176(4) -0.1562(5) 0.4772(4)
H17 H 0.3491 -0.1415 0.5033
C12 C 0.2520(5) -0.1208(5) 0.4760(4)
H18 H 0.2398 -0.0833 0.5017
C13 C 0.2053(4) -0.1406(5) 0.4372(4)
C14 C 0.2257(5) -0.1928(6) 0.3972(4)
H19 H 0.1955 -0.2041 0.3695
C15 C 0.2900(5) -0.2277(6) 0.3984(4)
H20 H 0.3035 -0.2618 0.3711
C16 C 0.1323(4) -0.1097(5) 0.4424(4)
H21 H 0.1153 -0.0959 0.4074
H22 H 0.1330 -0.0606 0.4632
I1D I 0.04151(3) -0.00742(3) 0.58253(2)
Cu1D Cu 0.01285(5) 0.08428(6) 0.50019(4)
Cu1B Cu 0.48715(5) -0.41572(6) 0.50019(4)
Cu1B_2 Cu -0.51285(5) -0.41572(6) 0.50019(4)
S1B S -0.42867(10) -0.31946(12) 0.52711(9)
S1D S -0.07133(10) 0.18054(12) 0.52711(9)
S2B S -0.11791(9) -0.13724(12) 0.52715(8)
S2F S 0.11791(9) 0.13724(12) 0.47285(8)
C1B C -0.3849(4) -0.2886(5) 0.4660(3)
H1B H -0.3476 -0.3266 0.4596
H2B H -0.4178 -0.2949 0.4372
C2B C -0.3546(4) -0.2040(4) 0.4620(3)
H3B H -0.3927 -0.1664 0.4548
C3B C -0.3063(4) -0.2024(4) 0.4151(3)
H4B H -0.3330 -0.2130 0.3834
H5B H -0.2729 -0.2457 0.4189
C4B C -0.2669(4) -0.1229(5) 0.4077(3)
H6B H -0.2994 -0.0804 0.3987
H7B H -0.2344 -0.1284 0.3787
C5B C -0.2274(4) -0.0995(4) 0.4582(3)
H8B H -0.2082 -0.0454 0.4530
C6B C -0.2798(4) -0.0950(4) 0.5043(3)
H9B H -0.2555 -0.0814 0.5367
H10B H -0.3134 -0.0528 0.4973
C7B C -0.3172(4) -0.1749(4) 0.5115(3)
H11B H -0.3506 -0.1695 0.5398
H12B H -0.2838 -0.2156 0.5220
C8B C -0.1674(4) -0.1571(4) 0.4674(3)
H13B H -0.1364 -0.1542 0.4373
H14B H -0.1854 -0.2117 0.4691
C9B C -0.0990(4) -0.2387(5) 0.5523(4)
H15B H -0.0687 -0.2664 0.5276
H16B H -0.0749 -0.2344 0.5858
C10B C -0.1642(4) -0.2875(5) 0.5598(4)
C11B C -0.1824(4) -0.3438(5) 0.5228(4)
H17B H -0.1509 -0.3585 0.4967
C12B C -0.2480(5) -0.3792(5) 0.5240(4)
H18B H -0.2602 -0.4167 0.4983
C13B C -0.2947(4) -0.3594(5) 0.5628(4)
C14B C -0.2743(5) -0.3072(6) 0.6028(4)
H19B H -0.3045 -0.2959 0.6305
C15B C -0.2100(5) -0.2723(6) 0.6016(4)
H20B H -0.1965 -0.2382 0.6289
C16B C -0.3677(4) -0.3903(5) 0.5576(4)
H21B H -0.3847 -0.4041 0.5926
H22B H -0.3670 -0.4394 0.5368
I2 I 0.47782(3) -0.17731(3) 0.16415(2)
Cu2 Cu 0.5000 -0.26367(8) 0.2500
Cu3 Cu 0.5000 -0.09003(8) 0.2500
S3 S 0.90139(10) -0.51688(13) 0.23172(8)
S4 S 0.60239(10) -0.33230(13) 0.23305(9)
C17 C 0.8596(4) -0.4915(4) 0.2935(3)
H23 H 0.8803 -0.5238 0.3213
H24 H 0.8112 -0.5066 0.2911
C18 C 0.8639(4) -0.4029(5) 0.3096(3)
H25 H 0.9124 -0.3902 0.3175
C19 C 0.8212(4) -0.3881(6) 0.3592(4)
H26 H 0.8306 -0.3341 0.3723
H27 H 0.8352 -0.4262 0.3863
C20 C 0.7444(4) -0.3968(6) 0.3492(3)
H28 H 0.7343 -0.4530 0.3418
H29 H 0.7195 -0.3820 0.3810
C21 C 0.7178(4) -0.3454(5) 0.3035(3)
H30 H 0.7207 -0.2888 0.3146
C22 C 0.7625(4) -0.3549(5) 0.2557(3)
H31 H 0.7551 -0.4082 0.2409
H32 H 0.7485 -0.3155 0.2294
C23 C 0.8385(4) -0.3443(5) 0.2668(4)
H33 H 0.8646 -0.3533 0.2346
H34 H 0.8470 -0.2893 0.2783
C24 C 0.6402(4) -0.3654(5) 0.2949(3)
H35 H 0.6346 -0.4235 0.2974
H36 H 0.6139 -0.3414 0.3235
C25 C 0.5814(4) -0.4280(6) 0.2004(4)
H37 H 0.5633 -0.4170 0.1654
H38 H 0.5455 -0.4554 0.2204
C26 C 0.6431(4) -0.4827(5) 0.1956(4)
C27 C 0.6936(5) -0.4689(6) 0.1578(4)
H39 H 0.6847 -0.4328 0.1305
C28 C 0.7564(5) -0.5075(6) 0.1598(4)
H40 H 0.7898 -0.4962 0.1343
C29 C 0.7708(5) -0.5628(5) 0.1989(4)
C30 C 0.7183(5) -0.5831(5) 0.2339(4)
H41 H 0.7251 -0.6238 0.2587
C31 C 0.6549(4) -0.5420(6) 0.2315(5)
H42 H 0.6200 -0.5558 0.2552
C32 C 0.8429(4) -0.5936(5) 0.2060(4)
H43 H 0.8421 -0.6391 0.2301
H44 H 0.8602 -0.6126 0.1723
I2C I 0.52218(3) -0.17731(3) 0.33585(2)
Cu3E Cu 1.0000 -0.59003(8) 0.2500
Cu3E_2 Cu 0.0000 -0.59003(8) 0.2500
S3C S 0.09861(10) -0.51688(13) 0.26828(8)
S3E S 0.40139(10) -0.01688(13) 0.26828(8)
S3F S 0.59861(10) -0.01688(13) 0.23172(8)
S4C S 0.39761(10) -0.33230(13) 0.26695(9)
C17C C 0.1404(4) -0.4915(4) 0.2065(3)
H23C H 0.1197 -0.5238 0.1787
H24C H 0.1888 -0.5066 0.2089
C18C C 0.1361(4) -0.4029(5) 0.1904(3)
H25C H 0.0876 -0.3902 0.1825
C19C C 0.1788(4) -0.3881(6) 0.1408(4)
H26C H 0.1694 -0.3341 0.1277
H27C H 0.1648 -0.4262 0.1137
C20C C 0.2556(4) -0.3968(6) 0.1508(3)
H28C H 0.2657 -0.4530 0.1582
H29C H 0.2805 -0.3820 0.1190
C21C C 0.2822(4) -0.3454(5) 0.1965(3)
H30C H 0.2793 -0.2888 0.1854
C22C C 0.2375(4) -0.3549(5) 0.2443(3)
H31C H 0.2449 -0.4082 0.2591
H32C H 0.2515 -0.3155 0.2706
C23C C 0.1615(4) -0.3443(5) 0.2332(4)
H33C H 0.1354 -0.3533 0.2654
H34C H 0.1530 -0.2893 0.2217
C24C C 0.3598(4) -0.3654(5) 0.2051(3)
H35C H 0.3654 -0.4235 0.2026
H36C H 0.3861 -0.3414 0.1765
C25C C 0.4186(4) -0.4280(6) 0.2996(4)
H37C H 0.4367 -0.4170 0.3346
H38C H 0.4545 -0.4554 0.2796
C26C C 0.3569(4) -0.4827(5) 0.3044(4)
C27C C 0.3064(5) -0.4689(6) 0.3422(4)
H39C H 0.3153 -0.4328 0.3695
C28C C 0.2436(5) -0.5075(6) 0.3402(4)
H40C H 0.2102 -0.4962 0.3657
C29C C 0.2292(5) -0.5628(5) 0.3011(4)
C30C C 0.2817(5) -0.5831(5) 0.2661(4)
H41C H 0.2749 -0.6238 0.2413
C31C C 0.3451(4) -0.5420(6) 0.2685(5)
H42C H 0.3800 -0.5558 0.2448
C32C C 0.1571(4) -0.5936(5) 0.2940(4)
H43C H 0.1579 -0.6391 0.2699
H44C H 0.1398 -0.6126 0.3277
O1 O 0.462(2) -0.013(3) 0.455(2)
O2 O 0.4762(19) -0.067(2) 0.5481(16)
loop_
_geom_bond_atom_site_label_1
_geom_bond_atom_site_label_2
_geom_bond_site_symmetry_1
_geom_bond_site_symmetry_2
I1 Cu1 1_555 1_555
I2 Cu2 1_555 1_555
Cu1 S1 1_555 1_555
Cu2 S4 1_555 1_555
Cu3 I2 1_555 1_555
S1 C1 1_555 1_555
S2 C8 1_555 1_555
S3 C17 1_555 1_555
S4 C24 1_555 1_555
C1 H1 1_555 1_555
H2 C1 1_555 1_555
C2 C1 1_555 1_555
H3 C2 1_555 1_555
C3 C2 1_555 1_555
H4 C3 1_555 1_555
H5 C3 1_555 1_555
C4 C3 1_555 1_555
H6 C4 1_555 1_555
H7 C4 1_555 1_555
C5 C4 1_555 1_555
H8 C5 1_555 1_555
C6 C5 1_555 1_555
H9 C6 1_555 1_555
H10 C6 1_555 1_555
C7 C2 1_555 1_555
H11 C7 1_555 1_555
H12 C7 1_555 1_555
C8 C5 1_555 1_555
H13 C8 1_555 1_555
H14 C8 1_555 1_555
C9 S2 1_555 1_555
H15 C9 1_555 1_555
H16 C9 1_555 1_555
C10 C9 1_555 1_555
C11 C10 1_555 1_555
H17 C11 1_555 1_555
C12 C11 1_555 1_555
H18 C12 1_555 1_555
C13 C12 1_555 1_555
C14 C13 1_555 1_555
H19 C14 1_555 1_555
C15 C10 1_555 1_555
H20 C15 1_555 1_555
C16 S1 1_555 1_555
H21 C16 1_555 1_555
H22 C16 1_555 1_555
C17 H23 1_555 1_555
H24 C17 1_555 1_555
C18 C17 1_555 1_555
H25 C18 1_555 1_555
C19 C18 1_555 1_555
H26 C19 1_555 1_555
H27 C19 1_555 1_555
C20 C19 1_555 1_555
H28 C20 1_555 1_555
H29 C20 1_555 1_555
C21 C20 1_555 1_555
H30 C21 1_555 1_555
C22 C21 1_555 1_555
H31 C22 1_555 1_555
H32 C22 1_555 1_555
C23 C18 1_555 1_555
H33 C23 1_555 1_555
H34 C23 1_555 1_555
C24 C21 1_555 1_555
H35 C24 1_555 1_555
H36 C24 1_555 1_555
C25 S4 1_555 1_555
H37 C25 1_555 1_555
H38 C25 1_555 1_555
C26 C25 1_555 1_555
C27 C26 1_555 1_555
H39 C27 1_555 1_555
C28 C27 1_555 1_555
H40 C28 1_555 1_555
C29 C28 1_555 1_555
C30 C29 1_555 1_555
H41 C30 1_555 1_555
C31 C26 1_555 1_555
H42 C31 1_555 1_555
C32 S3 1_555 1_555
H43 C32 1_555 1_555
H44 C32 1_555 1_555
I1D Cu1 1_555 1_555
I2C Cu2 1_555 1_555
Cu1D I1 1_555 1_555
Cu1B S2 1_555 1_555
Cu1B_2 S1B 1_555 1_555
Cu3E S3 1_555 1_555
Cu3E_2 S3C 1_555 1_555
S1B C1B 1_555 1_555
S1D Cu1D 1_555 1_555
S2B Cu1 1_555 1_555
S2F Cu1D 1_555 1_555
S3C C17C 1_555 1_555
S3E Cu3 1_555 1_555
S3F Cu3 1_555 1_555
S4C Cu2 1_555 1_555
C1B H1B 1_555 1_555
H2B C1B 1_555 1_555
C2B C1B 1_555 1_555
H3B C2B 1_555 1_555
C3B C2B 1_555 1_555
H4B C3B 1_555 1_555
H5B C3B 1_555 1_555
C4B C3B 1_555 1_555
H6B C4B 1_555 1_555
H7B C4B 1_555 1_555
C5B C4B 1_555 1_555
H8B C5B 1_555 1_555
C6B C5B 1_555 1_555
H9B C6B 1_555 1_555
H10B C6B 1_555 1_555
C7B C2B 1_555 1_555
H11B C7B 1_555 1_555
H12B C7B 1_555 1_555
C8B S2B 1_555 1_555
H13B C8B 1_555 1_555
H14B C8B 1_555 1_555
C9B S2B 1_555 1_555
H15B C9B 1_555 1_555
H16B C9B 1_555 1_555
C10B C9B 1_555 1_555
C11B C10B 1_555 1_555
H17B C11B 1_555 1_555
C12B C11B 1_555 1_555
H18B C12B 1_555 1_555
C13B C12B 1_555 1_555
C14B C13B 1_555 1_555
H19B C14B 1_555 1_555
C15B C10B 1_555 1_555
H20B C15B 1_555 1_555
C16B S1B 1_555 1_555
H21B C16B 1_555 1_555
H22B C16B 1_555 1_555
C17C H23C 1_555 1_555
H24C C17C 1_555 1_555
C18C C17C 1_555 1_555
H25C C18C 1_555 1_555
C19C C18C 1_555 1_555
H26C C19C 1_555 1_555
H27C C19C 1_555 1_555
C20C C19C 1_555 1_555
H28C C20C 1_555 1_555
H29C C20C 1_555 1_555
C21C C20C 1_555 1_555
H30C C21C 1_555 1_555
C22C C21C 1_555 1_555
H31C C22C 1_555 1_555
H32C C22C 1_555 1_555
C23C C18C 1_555 1_555
H33C C23C 1_555 1_555
H34C C23C 1_555 1_555
C24C S4C 1_555 1_555
H35C C24C 1_555 1_555
H36C C24C 1_555 1_555
C25C S4C 1_555 1_555
H37C C25C 1_555 1_555
H38C C25C 1_555 1_555
C26C C25C 1_555 1_555
C27C C26C 1_555 1_555
H39C C27C 1_555 1_555
C28C C27C 1_555 1_555
H40C C28C 1_555 1_555
C29C C28C 1_555 1_555
C30C C29C 1_555 1_555
H41C C30C 1_555 1_555
C31C C26C 1_555 1_555
H42C C31C 1_555 1_555
C32C S3C 1_555 1_555
H43C C32C 1_555 1_555
H44C C32C 1_555 1_555
Cu3 I2C 1_555 1_555
C6 C7 1_555 1_555
C13 C16 1_555 1_555
C14 C15 1_555 1_555
C22 C23 1_555 1_555
C29 C32 1_555 1_555
C30 C31 1_555 1_555
I1D Cu1D 1_555 1_555
C5B C8B 1_555 1_555
C6B C7B 1_555 1_555
C13B C16B 1_555 1_555
C14B C15B 1_555 1_555
C21C C24C 1_555 1_555
C22C C23C 1_555 1_555
C29C C32C 1_555 1_555
C30C C31C 1_555 1_555

#END
