
#######################################################################
#
#                 Cambridge Crystallographic Data Centre
#                                CCDC 
#
#######################################################################
#
# If this CIF has been generated from an entry in the Cambridge 
# Structural Database, then it will include bibliographic, chemical, 
# crystal, experimental, refinement or atomic coordinate data resulting 
# from the CCDC's data processing and validation procedures.
#
#######################################################################

data_NIMLEB
_symmetry_cell_setting           monoclinic
_symmetry_space_group_name_H-M   'P 21/c'
_symmetry_Int_Tables_number      14
_space_group_name_Hall           '-P 2ybc'
loop_
_symmetry_equiv_pos_site_id
_symmetry_equiv_pos_as_xyz
1 x,y,z
2 -x,1/2+y,1/2-z
3 -x,-y,-z
4 x,1/2-y,1/2+z
_cell_length_a                   15.6891(4)
_cell_length_b                   28.7759(6)
_cell_length_c                   14.5171(3)
_cell_angle_alpha                90
_cell_angle_beta                 110.4250(10)
_cell_angle_gamma                90
_cell_volume                     6141.95
loop_
_atom_site_label
_atom_site_type_symbol
_atom_site_fract_x
_atom_site_fract_y
_atom_site_fract_z
Mn1 Mn 0.45154(5) 0.72854(3) 0.10908(5)
Mn2 Mn 0.56462(5) 0.80720(3) 0.26432(5)
Mn3 Mn 0.39926(5) 0.83791(3) 0.06543(5)
C1 C 0.3412(4) 0.6476(2) 0.0223(4)
C2 C 0.3329(4) 0.5983(2) 0.0270(4)
C3 C 0.2491(5) 0.5802(2) -0.0246(4)
H1 H 0.2409 0.5482 -0.0223
C4 C 0.1730(4) 0.6057(3) -0.0817(4)
C5 C 0.1831(4) 0.6520(2) -0.0872(4)
H2 H 0.1317 0.6694 -0.1266
C6 C 0.2674(4) 0.6738(2) -0.0360(4)
C7 C 0.2745(4) 0.7229(2) -0.0512(4)
H3 H 0.2252 0.7365 -0.0998
C8 C 0.4142(4) 0.5683(2) 0.0831(5)
C9 C 0.3895(5) 0.5158(2) 0.0760(5)
H4 H 0.3675 0.5065 0.0134
H5 H 0.3386 0.5100 0.1006
H6 H 0.4472 0.4985 0.1098
C10 C 0.4886(5) 0.5746(3) 0.0378(5)
H7 H 0.4602 0.5659 -0.0251
H8 H 0.5449 0.5555 0.0673
H9 H 0.5085 0.6066 0.0420
C11 C 0.4524(5) 0.5814(2) 0.1923(4)
H10 H 0.4001 0.5763 0.2154
H11 H 0.4719 0.6134 0.2003
H12 H 0.5074 0.5621 0.2247
C12 C 0.0819(5) 0.5802(3) -0.1359(6)
C13 C 0.0041(6) 0.6147(3) -0.1808(8)
H13 H -0.0095 0.6330 -0.1355
H14 H -0.0545 0.5988 -0.2172
H15 H 0.0261 0.6346 -0.2189
C14 C 0.0963(7) 0.5505(4) -0.2176(7)
H16 H 0.0361 0.5348 -0.2508
H17 H 0.1476 0.5280 -0.1930
H18 H 0.1138 0.5710 -0.2578
C15 C 0.0544(6) 0.5493(4) -0.0640(7)
H19 H 0.0446 0.5691 -0.0186
H20 H 0.1069 0.5279 -0.0354
H21 H -0.0048 0.5323 -0.0945
C16 C 0.7409(4) 0.7997(2) 0.4197(4)
C17 C 0.8107(4) 0.8246(2) 0.4917(4)
C18 C 0.8939(4) 0.8021(2) 0.5333(4)
H22 H 0.9427 0.8169 0.5803
C19 C 0.9117(4) 0.7564(2) 0.5096(4)
C20 C 0.8397(4) 0.7330(2) 0.4428(4)
H23 H 0.8498 0.7025 0.4287
C21 C 0.7552(3) 0.7544(2) 0.3985(4)
C22 C 0.6848(4) 0.72604(19) 0.3322(4)
H24 H 0.6987 0.6946 0.3298
C23 C 0.7954(5) 0.8734(3) 0.5247(6)
C24 C 0.7167(6) 0.8746(4) 0.5607(7)
H25 H 0.7336 0.8555 0.6142
H26 H 0.6575 0.8631 0.5159
H27 H 0.7066 0.9060 0.5762
C25 C 0.7741(6) 0.9067(3) 0.4357(8)
H28 H 0.7631 0.9380 0.4511
H29 H 0.7170 0.8957 0.3875
H30 H 0.8297 0.9060 0.4160
C26 C 0.8815(5) 0.8931(3) 0.6041(7)
H31 H 0.8925 0.8741 0.6570
H32 H 0.8663 0.9243 0.6168
H33 H 0.9396 0.8934 0.5881
C27 C 1.0070(4) 0.7345(3) 0.5575(6)
C28 C 1.0728(5) 0.7588(4) 0.5228(9)
H34 H 1.0533 0.7536 0.4585
H35 H 1.1385 0.7475 0.5524
H36 H 1.0705 0.7914 0.5343
C29 C 1.0371(6) 0.7398(4) 0.6700(7)
H37 H 1.0992 0.7250 0.7001
H38 H 0.9875 0.7253 0.6885
H39 H 1.0418 0.7721 0.6861
C30 C 1.0077(5) 0.6844(3) 0.5432(7)
H40 H 0.9913 0.6781 0.4795
H41 H 0.9603 0.6698 0.5645
H42 H 1.0719 0.6723 0.5761
C31 C 0.3021(4) 0.9242(2) 0.0126(4)
C32 C 0.2238(4) 0.9460(2) -0.0555(4)
C33 C 0.1949(4) 0.9878(2) -0.0263(4)
H43 H 0.1428 1.0034 -0.0685
C34 C 0.2377(4) 1.0096(2) 0.0634(4)
C35 C 0.3128(4) 0.9876(2) 0.1270(4)
H44 H 0.3418 1.0003 0.1847
C36 C 0.3460(4) 0.9453(2) 0.1045(4)
C37 C 0.4269(4) 0.9250(2) 0.1773(4)
H45 H 0.4583 0.9424 0.2292
C38 C 0.1738(4) 0.9239(2) -0.1567(4)
C39 C 0.0921(4) 0.9545(2) -0.2182(4)
H46 H 0.0644 0.9402 -0.2770
H47 H 0.1184 0.9844 -0.2245
H48 H 0.0419 0.9582 -0.1920
C40 C 0.1377(4) 0.8765(2) -0.1432(5)
H49 H 0.1918 0.8584 -0.1048
H50 H 0.1094 0.8614 -0.2011
H51 H 0.0889 0.8795 -0.1151
C41 C 0.2388(5) 0.9205(2) -0.2146(4)
H52 H 0.2946 0.9012 -0.1844
H53 H 0.2609 0.9510 -0.2233
H54 H 0.2019 0.9072 -0.2726
C42 C 0.2032(5) 1.0555(2) 0.0878(5)
C43 C 0.1035(6) 1.0513(3) 0.0722(7)
H55 H 0.0938 1.0300 0.1155
H56 H 0.0706 1.0397 0.0118
H57 H 0.0771 1.0811 0.0786
C44 C 0.2072(6) 1.0920(3) 0.0140(7)
H58 H 0.2744 1.0977 0.0204
H59 H 0.1771 1.1205 0.0223
H60 H 0.1725 1.0799 -0.0457
C45 C 0.2590(6) 1.0742(3) 0.1861(6)
H61 H 0.2548 1.0518 0.2298
H62 H 0.2296 1.1029 0.1948
H63 H 0.3267 1.0794 0.1938
C46 C 0.3025(4) 0.6936(2) 0.2247(4)
H64 H 0.2658 0.7023 0.2626
H65 H 0.3518 0.6712 0.2560
H66 H 0.2589 0.6802 0.1692
C47 C 0.7440(7) 0.8005(6) 0.1590(7)
H67 H 0.7545 0.8138 0.1070
H68 H 0.7411 0.7673 0.1533
H69 H 0.7972 0.8091 0.2132
C48 C 0.2691(4) 0.8487(2) 0.2069(5)
H70 H 0.2176 0.8337 0.2220
H71 H 0.2494 0.8798 0.1866
H72 H 0.3278 0.8496 0.2598
C49 C 0.5197(5) 0.8515(3) -0.0802(5)
H73 H 0.5829 0.8611 -0.0805
H74 H 0.4698 0.8714 -0.1194
H75 H 0.5074 0.8200 -0.1014
N1 N 0.3428(3) 0.74845(16) -0.0032(3)
N2 N 0.6054(3) 0.74137(15) 0.2770(3)
N3 N 0.4562(3) 0.88420(16) 0.1723(3)
N4 N 0.4735(3) 0.71242(17) -0.1505(3)
N5 N 0.5076(3) 0.72299(16) -0.0669(4)
N6 N 0.5414(3) 0.73317(17) 0.0168(3)
O1 O 0.4723(2) 0.79123(11) 0.1461(2)
O2 O 0.4201(2) 0.66728(12) 0.0734(2)
O3 O 0.3392(2) 0.79422(13) -0.0344(2)
O4 O 0.6612(2) 0.82096(13) 0.3775(2)
O5 O 0.5460(2) 0.70796(12) 0.2244(2)
O6 O 0.3327(2) 0.88509(13) -0.0130(2)
O7 O 0.5352(2) 0.87187(12) 0.2468(2)
O8 O 0.3484(2) 0.73349(13) 0.2044(2)
O9 O 0.6628(3) 0.81568(19) 0.1636(4)
O10 O 0.5183(3) 0.85443(15) 0.0120(3)
O11 O 0.2880(2) 0.82260(14) 0.1344(3)
Mn2C Mn 0.56462(5) 0.69280(3) -0.23568(5)
N4C N 0.4735(3) 0.78758(17) 0.3495(3)
C50 C 0.6347(14) 0.9547(8) 0.1346(12)
H76 H 0.6907 0.9742 0.1427
H77 H 0.6549 0.9227 0.1405
H78 H 0.6065 0.9620 0.1799
O12 O 0.5570(10) 0.9629(5) 0.0383(9)
loop_
_geom_bond_atom_site_label_1
_geom_bond_atom_site_label_2
_geom_bond_site_symmetry_1
_geom_bond_site_symmetry_2
Mn1 N1 1_555 1_555
Mn2 N2 1_555 1_555
Mn3 N3 1_555 1_555
C1 C2 1_555 1_555
C2 C3 1_555 1_555
C3 H1 1_555 1_555
C4 C3 1_555 1_555
C5 C4 1_555 1_555
H2 C5 1_555 1_555
C6 C1 1_555 1_555
C7 C6 1_555 1_555
H3 C7 1_555 1_555
C8 C2 1_555 1_555
C9 C8 1_555 1_555
H4 C9 1_555 1_555
H5 C9 1_555 1_555
H6 C9 1_555 1_555
C10 C8 1_555 1_555
H7 C10 1_555 1_555
H8 C10 1_555 1_555
H9 C10 1_555 1_555
C11 C8 1_555 1_555
H10 C11 1_555 1_555
H11 C11 1_555 1_555
H12 C11 1_555 1_555
C12 C4 1_555 1_555
C13 C12 1_555 1_555
H13 C13 1_555 1_555
H14 C13 1_555 1_555
H15 C13 1_555 1_555
C14 C12 1_555 1_555
H16 C14 1_555 1_555
H17 C14 1_555 1_555
H18 C14 1_555 1_555
C15 C12 1_555 1_555
H19 C15 1_555 1_555
H20 C15 1_555 1_555
H21 C15 1_555 1_555
C16 C17 1_555 1_555
C17 C18 1_555 1_555
C18 H22 1_555 1_555
C19 C18 1_555 1_555
C20 C19 1_555 1_555
H23 C20 1_555 1_555
C21 C16 1_555 1_555
C22 C21 1_555 1_555
H24 C22 1_555 1_555
C23 C17 1_555 1_555
C24 C23 1_555 1_555
H25 C24 1_555 1_555
H26 C24 1_555 1_555
H27 C24 1_555 1_555
C25 C23 1_555 1_555
H28 C25 1_555 1_555
H29 C25 1_555 1_555
H30 C25 1_555 1_555
C26 C23 1_555 1_555
H31 C26 1_555 1_555
H32 C26 1_555 1_555
H33 C26 1_555 1_555
C27 C19 1_555 1_555
C28 C27 1_555 1_555
H34 C28 1_555 1_555
H35 C28 1_555 1_555
H36 C28 1_555 1_555
C29 C27 1_555 1_555
H37 C29 1_555 1_555
H38 C29 1_555 1_555
H39 C29 1_555 1_555
C30 C27 1_555 1_555
H40 C30 1_555 1_555
H41 C30 1_555 1_555
H42 C30 1_555 1_555
C31 C32 1_555 1_555
C32 C33 1_555 1_555
C33 H43 1_555 1_555
C34 C33 1_555 1_555
C35 C34 1_555 1_555
H44 C35 1_555 1_555
C36 C31 1_555 1_555
C37 C36 1_555 1_555
H45 C37 1_555 1_555
C38 C32 1_555 1_555
C39 C38 1_555 1_555
H46 C39 1_555 1_555
H47 C39 1_555 1_555
H48 C39 1_555 1_555
C40 C38 1_555 1_555
H49 C40 1_555 1_555
H50 C40 1_555 1_555
H51 C40 1_555 1_555
C41 C38 1_555 1_555
H52 C41 1_555 1_555
H53 C41 1_555 1_555
H54 C41 1_555 1_555
C42 C34 1_555 1_555
C43 C42 1_555 1_555
H55 C43 1_555 1_555
H56 C43 1_555 1_555
H57 C43 1_555 1_555
C44 C42 1_555 1_555
H58 C44 1_555 1_555
H59 C44 1_555 1_555
H60 C44 1_555 1_555
C45 C42 1_555 1_555
H61 C45 1_555 1_555
H62 C45 1_555 1_555
H63 C45 1_555 1_555
C46 H64 1_555 1_555
H65 C46 1_555 1_555
H66 C46 1_555 1_555
C47 H67 1_555 1_555
H68 C47 1_555 1_555
H69 C47 1_555 1_555
C48 H70 1_555 1_555
H71 C48 1_555 1_555
H72 C48 1_555 1_555
C49 H73 1_555 1_555
H74 C49 1_555 1_555
H75 C49 1_555 1_555
C50 H76 1_555 1_555
H77 C50 1_555 1_555
H78 C50 1_555 1_555
N1 C7 1_555 1_555
N2 C22 1_555 1_555
N3 C37 1_555 1_555
N4 N5 1_555 1_555
N5 N6 1_555 1_555
N6 Mn1 1_555 1_555
O1 Mn1 1_555 1_555
O2 Mn1 1_555 1_555
O3 Mn3 1_555 1_555
O4 Mn2 1_555 1_555
O5 Mn1 1_555 1_555
O6 Mn3 1_555 1_555
O7 Mn2 1_555 1_555
O8 Mn1 1_555 1_555
O9 Mn2 1_555 1_555
O10 Mn3 1_555 1_555
O11 Mn3 1_555 1_555
O12 C50 1_555 1_555
Mn2C N4 1_555 1_555
N4C Mn2 1_555 1_555
Mn2 O1 1_555 1_555
Mn3 O1 1_555 1_555
C1 O2 1_555 1_555
C5 C6 1_555 1_555
C16 O4 1_555 1_555
C20 C21 1_555 1_555
C31 O6 1_555 1_555
C35 C36 1_555 1_555
C46 O8 1_555 1_555
C47 O9 1_555 1_555
C48 O11 1_555 1_555
C49 O10 1_555 1_555
N1 O3 1_555 1_555
N2 O5 1_555 1_555
N3 O7 1_555 1_555

#END
