
#######################################################################
#
#                 Cambridge Crystallographic Data Centre
#                                CCDC 
#
#######################################################################
#
# If this CIF has been generated from an entry in the Cambridge 
# Structural Database, then it will include bibliographic, chemical, 
# crystal, experimental, refinement or atomic coordinate data resulting 
# from the CCDC's data processing and validation procedures.
#
#######################################################################

data_NIMTOT
_symmetry_cell_setting           orthorhombic
_symmetry_space_group_name_H-M   'P b c n'
_symmetry_Int_Tables_number      60
_space_group_name_Hall           '-P 2n 2ab'
loop_
_symmetry_equiv_pos_site_id
_symmetry_equiv_pos_as_xyz
1 x,y,z
2 1/2-x,1/2-y,1/2+z
3 -x,y,1/2-z
4 1/2+x,1/2-y,-z
5 -x,-y,-z
6 1/2+x,1/2+y,1/2-z
7 x,-y,1/2+z
8 1/2-x,1/2+y,z
_cell_length_a                   7.37850(10)
_cell_length_b                   19.1406(3)
_cell_length_c                   12.3183(3)
_cell_angle_alpha                90
_cell_angle_beta                 90
_cell_angle_gamma                90
_cell_volume                     1739.7
loop_
_atom_site_label
_atom_site_type_symbol
_atom_site_fract_x
_atom_site_fract_y
_atom_site_fract_z
Er1 Er 0.23790(5) 0.26541(2) 0.95873(3)
C1 C 0.2318(12) 0.4084(6) 0.9618(9)
C2 C 0.2363(12) 0.4874(5) 0.9611(9)
C3 C 0.1930(16) 0.5237(6) 0.8657(11)
H1 H 0.1617 0.5002 0.8023
C4 C 0.1988(16) 0.5962(6) 0.8696(10)
H2 H 0.1672 0.6208 0.8074
C5 C 0.2879(15) 0.5964(6) 1.0472(9)
H3 H 0.3199 0.6212 1.1092
C6 C 0.2856(16) 0.5250(6) 1.0535(9)
H4 H 0.3160 0.5021 1.1176
C7 C 0.0868(13) 0.2501(4) 0.7165(7)
O1 O 0.1926(12) 0.3763(4) 0.8753(7)
O2 O 0.2707(11) 0.3766(4) 1.0475(6)
O3 O 0.2322(8) 0.2442(3) 0.7674(5)
O4 O 0.0685(8) 0.2547(4) 0.6137(5)
O5 O 0.5292(9) 0.2560(3) 0.9139(6)
N1 N 0.2474(10) 0.6328(5) 0.9579(7)
Er1G Er 0.26210(5) -0.23459(2) 0.95873(3)
Er1A Er 0.26210(5) 0.23459(2) 0.45873(3)
Er1B Er -0.23790(5) 0.26541(2) 0.54127(3)
Er1C Er 0.73790(5) 0.23459(2) 1.04127(3)
Er1G_2 Er 0.26210(5) 0.76541(2) 0.95873(3)
Er1C_2 Er -0.26210(5) 0.23459(2) 1.04127(3)
C1G C 0.2682(12) -0.0916(6) 0.9618(9)
C2G C 0.2637(12) -0.0126(5) 0.9611(9)
C3G C 0.3070(16) 0.0237(6) 0.8657(11)
H1G H 0.3383 0.0002 0.8023
C4G C 0.3012(16) 0.0962(6) 0.8696(10)
H2G H 0.3328 0.1208 0.8074
C5G C 0.2121(15) 0.0964(6) 1.0472(9)
H3G H 0.1801 0.1212 1.1092
C6G C 0.2144(16) 0.0250(6) 1.0535(9)
H4G H 0.1840 0.0021 1.1176
C7B C -0.0868(13) 0.2501(4) 0.7835(7)
O1G O 0.3074(12) -0.1237(4) 0.8753(7)
O2G O 0.2293(11) -0.1234(4) 1.0475(6)
O3B O -0.2322(8) 0.2442(3) 0.7326(5)
O3G O 0.2678(8) -0.2558(3) 0.7674(5)
O4B O -0.0685(8) 0.2547(4) 0.8863(5)
O4A O 0.4315(8) 0.2453(4) 1.1137(5)
O4E O 0.5685(8) -0.2453(4) 0.8863(5)
O4F O 0.0685(8) -0.2547(4) 1.1137(5)
O5C O 0.0292(9) 0.2440(3) 1.0861(6)
O5G O -0.0292(9) -0.2440(3) 0.9139(6)
O5D O 0.4708(9) -0.2560(3) 1.0861(6)
N1G N 0.2526(10) 0.1328(5) 0.9579(7)
N1_2 N 0.2474(10) -0.3672(5) 0.9579(7)
loop_
_geom_bond_atom_site_label_1
_geom_bond_atom_site_label_2
_geom_bond_site_symmetry_1
_geom_bond_site_symmetry_2
Er1 O1 1_555 1_555
C1 C2 1_555 1_555
C2 C3 1_555 1_555
C3 H1 1_555 1_555
C4 C3 1_555 1_555
H2 C4 1_555 1_555
C5 H3 1_555 1_555
C6 C2 1_555 1_555
H4 C6 1_555 1_555
C7 O3 1_555 1_555
O1 C1 1_555 1_555
O2 Er1 1_555 1_555
O3 Er1 1_555 1_555
O4 C7 1_555 1_555
O5 Er1 1_555 1_555
N1 C4 1_555 1_555
Er1G O1G 1_555 1_555
Er1A O4 1_555 1_555
Er1B O4 1_555 1_555
Er1C O5 1_555 1_555
Er1G_2 N1 1_555 1_555
Er1C_2 O4B 1_555 1_555
C1G C2G 1_555 1_555
C2G C3G 1_555 1_555
C3G H1G 1_555 1_555
C4G C3G 1_555 1_555
H2G C4G 1_555 1_555
C5G H3G 1_555 1_555
C6G C2G 1_555 1_555
H4G C6G 1_555 1_555
C7B C7 1_555 1_555
O1G C1G 1_555 1_555
O2G Er1G 1_555 1_555
O3B Er1B 1_555 1_555
O3G Er1G 1_555 1_555
O4B Er1 1_555 1_555
O4A Er1 1_555 1_555
O4E Er1G 1_555 1_555
O4F Er1G 1_555 1_555
O5C Er1 1_555 1_555
O5G Er1G 1_555 1_555
O5D Er1G 1_555 1_555
N1G Er1 1_555 1_555
N1_2 Er1G 1_555 1_555
C1 O2 1_555 1_555
C5 C6 1_555 1_555
C5 N1 1_555 1_555
Er1C O4A 1_555 1_555
Er1C_2 O5C 1_555 1_555
C1G O2G 1_555 1_555
C4G N1G 1_555 1_555
C5G C6G 1_555 1_555
C5G N1G 1_555 1_555
C7B O3B 1_555 1_555
C7B O4B 1_555 1_555

#END
