
#######################################################################
#
#                 Cambridge Crystallographic Data Centre
#                                CCDC 
#
#######################################################################
#
# If this CIF has been generated from an entry in the Cambridge 
# Structural Database, then it will include bibliographic, chemical, 
# crystal, experimental, refinement or atomic coordinate data resulting 
# from the CCDC's data processing and validation procedures.
#
#######################################################################

data_NIMTIN
_symmetry_cell_setting           orthorhombic
_symmetry_space_group_name_H-M   'P b c n'
_symmetry_Int_Tables_number      60
_space_group_name_Hall           '-P 2n 2ab'
loop_
_symmetry_equiv_pos_site_id
_symmetry_equiv_pos_as_xyz
1 x,y,z
2 1/2-x,1/2-y,1/2+z
3 -x,y,1/2-z
4 1/2+x,1/2-y,-z
5 -x,-y,-z
6 1/2+x,1/2+y,1/2-z
7 x,-y,1/2+z
8 1/2-x,1/2+y,z
_cell_length_a                   7.4196(4)
_cell_length_b                   19.2216(13)
_cell_length_c                   12.3604(8)
_cell_angle_alpha                90
_cell_angle_beta                 90
_cell_angle_gamma                90
_cell_volume                     1762.8
loop_
_atom_site_label
_atom_site_type_symbol
_atom_site_fract_x
_atom_site_fract_y
_atom_site_fract_z
Dy1 Dy 0.23883(3) 0.265673(11) 0.958794(17)
C1 C 0.2334(7) 0.4091(3) 0.9610(4)
C2 C 0.2375(6) 0.4875(3) 0.9606(5)
C3 C 0.1938(10) 0.5241(3) 0.8672(6)
H1 H 0.1611 0.5007 0.8043
C4 C 0.1999(9) 0.5964(3) 0.8699(5)
H2 H 0.1687 0.6206 0.8075
C5 C 0.2865(9) 0.5970(4) 1.0471(5)
H3 H 0.3169 0.6216 1.1093
C6 C 0.2831(9) 0.5248(3) 1.0522(5)
H4 H 0.3111 0.5019 1.1163
C7 C 0.0865(6) 0.2502(2) 0.7169(3)
O1 O 0.1961(7) 0.3775(2) 0.8749(4)
O2 O 0.2692(6) 0.3774(3) 1.0473(4)
O3 O 0.2315(4) 0.2453(2) 0.7658(4)
O4 O 0.0657(5) 0.25416(18) 0.6143(3)
O5 O 0.5300(5) 0.25638(18) 0.9137(3)
N1 N 0.2484(5) 0.6331(3) 0.9573(4)
Dy1G Dy 0.26117(3) -0.234327(11) 0.958794(17)
Dy1A Dy 0.26117(3) 0.234327(11) 0.458794(17)
Dy1B Dy -0.23883(3) 0.265673(11) 0.541206(17)
Dy1C Dy 0.73883(3) 0.234327(11) 1.041206(17)
Dy1G_2 Dy 0.26117(3) 0.765673(11) 0.958794(17)
Dy1C_2 Dy -0.26117(3) 0.234327(11) 1.041206(17)
C1G C 0.2666(7) -0.0909(3) 0.9610(4)
C2G C 0.2625(6) -0.0125(3) 0.9606(5)
C3G C 0.3062(10) 0.0241(3) 0.8672(6)
H1G H 0.3389 0.0007 0.8043
C4G C 0.3001(9) 0.0964(3) 0.8699(5)
H2G H 0.3313 0.1206 0.8075
C5G C 0.2135(9) 0.0970(4) 1.0471(5)
H3G H 0.1831 0.1216 1.1093
C6G C 0.2169(9) 0.0248(3) 1.0522(5)
H4G H 0.1889 0.0019 1.1163
C7B C -0.0865(6) 0.2502(2) 0.7831(3)
O1G O 0.3039(7) -0.1225(2) 0.8749(4)
O2G O 0.2308(6) -0.1226(3) 1.0473(4)
O3B O -0.2315(4) 0.2453(2) 0.7342(4)
O3G O 0.2685(4) -0.2547(2) 0.7658(4)
O4B O -0.0657(5) 0.25416(18) 0.8857(3)
O4A O 0.4343(5) 0.24584(18) 1.1143(3)
O4E O 0.5657(5) -0.24584(18) 0.8857(3)
O4F O 0.0657(5) -0.25416(18) 1.1143(3)
O5C O 0.0300(5) 0.24362(18) 1.0863(3)
O5G O -0.0300(5) -0.24362(18) 0.9137(3)
O5D O 0.4700(5) -0.25638(18) 1.0863(3)
N1G N 0.2516(5) 0.1331(3) 0.9573(4)
N1_2 N 0.2484(5) -0.3669(3) 0.9573(4)
loop_
_geom_bond_atom_site_label_1
_geom_bond_atom_site_label_2
_geom_bond_site_symmetry_1
_geom_bond_site_symmetry_2
Dy1 O1 1_555 1_555
C1 C2 1_555 1_555
C2 C3 1_555 1_555
C3 H1 1_555 1_555
C4 C3 1_555 1_555
H2 C4 1_555 1_555
C5 H3 1_555 1_555
C6 C2 1_555 1_555
H4 C6 1_555 1_555
C7 O3 1_555 1_555
O1 C1 1_555 1_555
O2 Dy1 1_555 1_555
O3 Dy1 1_555 1_555
O4 C7 1_555 1_555
O5 Dy1 1_555 1_555
N1 C4 1_555 1_555
Dy1G O1G 1_555 1_555
Dy1A O4 1_555 1_555
Dy1B O4 1_555 1_555
Dy1C O5 1_555 1_555
Dy1G_2 N1 1_555 1_555
Dy1C_2 O4B 1_555 1_555
C1G C2G 1_555 1_555
C2G C3G 1_555 1_555
C3G H1G 1_555 1_555
C4G C3G 1_555 1_555
H2G C4G 1_555 1_555
C5G H3G 1_555 1_555
C6G C2G 1_555 1_555
H4G C6G 1_555 1_555
C7B C7 1_555 1_555
O1G C1G 1_555 1_555
O2G Dy1G 1_555 1_555
O3B Dy1B 1_555 1_555
O3G Dy1G 1_555 1_555
O4B Dy1 1_555 1_555
O4A Dy1 1_555 1_555
O4E Dy1G 1_555 1_555
O4F Dy1G 1_555 1_555
O5C Dy1 1_555 1_555
O5G Dy1G 1_555 1_555
O5D Dy1G 1_555 1_555
N1G Dy1 1_555 1_555
N1_2 Dy1G 1_555 1_555
C1 O2 1_555 1_555
C5 C6 1_555 1_555
C5 N1 1_555 1_555
Dy1C O4A 1_555 1_555
Dy1C_2 O5C 1_555 1_555
C1G O2G 1_555 1_555
C4G N1G 1_555 1_555
C5G C6G 1_555 1_555
C5G N1G 1_555 1_555
C7B O3B 1_555 1_555
C7B O4B 1_555 1_555

#END
