
#######################################################################
#
#                 Cambridge Crystallographic Data Centre
#                                CCDC 
#
#######################################################################
#
# If this CIF has been generated from an entry in the Cambridge 
# Structural Database, then it will include bibliographic, chemical, 
# crystal, experimental, refinement or atomic coordinate data resulting 
# from the CCDC's data processing and validation procedures.
#
#######################################################################

data_NIMVIO
_symmetry_cell_setting           monoclinic
_symmetry_space_group_name_H-M   'P 21/n'
_symmetry_Int_Tables_number      14
_space_group_name_Hall           '-P 2yn'
loop_
_symmetry_equiv_pos_site_id
_symmetry_equiv_pos_as_xyz
1 x,y,z
2 1/2-x,1/2+y,1/2-z
3 -x,-y,-z
4 1/2+x,1/2-y,1/2+z
_cell_length_a                   10.427(3)
_cell_length_b                   8.876(2)
_cell_length_c                   13.777(4)
_cell_angle_alpha                90
_cell_angle_beta                 93.254(2)
_cell_angle_gamma                90
_cell_volume                     1273.01
loop_
_atom_site_label
_atom_site_type_symbol
_atom_site_fract_x
_atom_site_fract_y
_atom_site_fract_z
Cu1 Cu 0.8694(1) 0.0399(1) 0.8467(1)
S1 S 0.8103(1) -0.1269(1) 0.6499(1)
N1 N 0.8701(2) 0.1117(2) 0.9790(1)
N2 N 1.0224(2) 0.1806(2) 0.8511(1)
N3 N 1.1289(2) 0.3689(2) 0.9450(1)
N4 N 0.6119(2) -0.1334(2) 1.0351(1)
N5 N 0.7418(2) -0.1022(2) 0.9035(1)
O1 O 1.1044(2) 0.2246(2) 0.7789(1)
O2 O 0.6661(2) -0.2191(2) 0.8633(1)
O3 O 0.8936(1) -0.0330(2) 0.7193(1)
O4 O 0.7150(1) 0.2272(2) 0.7995(1)
O5 O 0.8861(2) -0.1554(2) 0.5655(1)
O6 O 0.6904(1) -0.0494(2) 0.6248(1)
C1 C 0.9540(2) 0.2183(2) 1.0081(1)
C2 C 0.9544(2) 0.2763(2) 1.1015(1)
C3 C 0.8638(2) 0.2202(2) 1.1630(2)
C4 C 0.7769(2) 0.1091(2) 1.1316(2)
C5 C 0.7834(2) 0.0564(2) 1.0373(1)
C6 C 1.0416(2) 0.2597(2) 0.9304(1)
C7 C 0.7054(2) -0.0659(2) 0.9897(1)
H1 H 1.1788(2) 0.3923(2) 0.8997(1)
H2 H 1.1352(2) 0.4157(2) 0.9997(1)
H3 H 0.5703(2) -0.2069(2) 1.0077(1)
H4 H 0.5931(2) -0.1034(2) 1.0920(1)
H5 H 1.0977(21) 0.1651(19) 0.7334(10)
H6 H 0.7010(15) -0.2551(23) 0.8167(14)
H7 H 1.0130(2) 0.3500(2) 1.1225(1)
H8 H 0.8614(2) 0.2577(2) 1.2259(2)
H9 H 0.7166(2) 0.0715(2) 1.1725(2)
O4A O 0.7850(1) -0.2728(2) 0.7005(1)
Cu1A Cu 0.6306(1) -0.4601(1) 0.6533(1)
O7 O 0.8698(2) -0.0304(2) 0.3742(1)
H10 H 0.9293(28) 0.0175(37) 0.3746(25)
H11 H 0.8672(35) -0.0747(40) 0.4217(23)
O8 O 0.5035(2) -0.0332(2) 1.2063(1)
H12 H 0.4404(34) -0.0800(41) 1.2051(25)
H13 H 0.4861(33) 0.0546(43) 1.2124(26)
loop_
_geom_bond_atom_site_label_1
_geom_bond_atom_site_label_2
_geom_bond_site_symmetry_1
_geom_bond_site_symmetry_2
Cu1 N1 1_555 1_555
S1 O3 1_555 1_555
N1 C1 1_555 1_555
N2 Cu1 1_555 1_555
N3 C6 1_555 1_555
N4 C7 1_555 1_555
N5 Cu1 1_555 1_555
O1 N2 1_555 1_555
O2 N5 1_555 1_555
O3 Cu1 1_555 1_555
O4 Cu1 1_555 1_555
O5 S1 1_555 1_555
O6 S1 1_555 1_555
C1 C2 1_555 1_555
C2 C3 1_555 1_555
C3 C4 1_555 1_555
C4 C5 1_555 1_555
C5 N1 1_555 1_555
C6 N2 1_555 1_555
C7 N5 1_555 1_555
O7 H10 1_555 1_555
O8 H12 1_555 1_555
H1 N3 1_555 1_555
H2 N3 1_555 1_555
H3 N4 1_555 1_555
H4 N4 1_555 1_555
H5 O1 1_555 1_555
H6 O2 1_555 1_555
H7 C2 1_555 1_555
H8 C3 1_555 1_555
H9 C4 1_555 1_555
H11 O7 1_555 1_555
H13 O8 1_555 1_555
O4A S1 1_555 1_555
Cu1A O4A 1_555 1_555
C1 C6 1_555 1_555
C5 C7 1_555 1_555

#END
