
#######################################################################
#
#                 Cambridge Crystallographic Data Centre
#                                CCDC 
#
#######################################################################
#
# If this CIF has been generated from an entry in the Cambridge 
# Structural Database, then it will include bibliographic, chemical, 
# crystal, experimental, refinement or atomic coordinate data resulting 
# from the CCDC's data processing and validation procedures.
#
#######################################################################

data_NIMVOW
_symmetry_cell_setting           monoclinic
_symmetry_space_group_name_H-M   'P 21/c'
_symmetry_Int_Tables_number      14
_space_group_name_Hall           '-P 2ybc'
loop_
_symmetry_equiv_pos_site_id
_symmetry_equiv_pos_as_xyz
1 x,y,z
2 -x,1/2+y,1/2-z
3 -x,-y,-z
4 x,1/2-y,1/2+z
_cell_length_a                   10.8861(8)
_cell_length_b                   10.2944(8)
_cell_length_c                   14.3534(8)
_cell_angle_alpha                90
_cell_angle_beta                 120.868(4)
_cell_angle_gamma                90
_cell_volume                     1380.68
loop_
_atom_site_label
_atom_site_type_symbol
_atom_site_fract_x
_atom_site_fract_y
_atom_site_fract_z
Cd1 Cd 0.67672(3) 0.61497(3) 0.59406(2)
F1 F 0.8428(7) 0.3501(6) 0.3233(4)
F2 F 0.2291(6) 0.5041(6) -0.0386(4)
O1 O 1.1561(4) 0.1245(3) 0.7066(3)
O2 O 1.1319(4) 0.2589(3) 0.8152(3)
O3 O 0.6025(3) 0.7035(3) 0.4283(2)
O4 O 0.4274(5) 0.5636(4) 0.3781(3)
N1 N 0.8093(4) 0.4635(4) 0.5600(3)
N2 N 0.5246(4) 0.7493(4) 0.1194(3)
C1 C 1.0991(4) 0.2212(4) 0.7229(4)
C2 C 0.9894(4) 0.2985(4) 0.6271(3)
C3 C 0.9066(5) 0.3895(4) 0.6410(4)
H1 H 0.9191 0.3997 0.7097
C4 C 0.7932(5) 0.4470(5) 0.4614(4)
H2 H 0.7258 0.4982 0.4047
C5 C 0.8700(5) 0.3592(5) 0.4389(4)
C6 C 0.9689(5) 0.2835(4) 0.5236(4)
H3 H 1.0221 0.2222 0.5116
C7 C 0.4992(5) 0.6391(4) 0.3571(4)
C8 C 0.4652(4) 0.6520(4) 0.2420(3)
C9 C 0.3611(5) 0.5775(4) 0.1588(3)
H4 H 0.3060 0.5205 0.1727
C10 C 0.3385(5) 0.5874(4) 0.0543(4)
C11 C 0.4244(5) 0.6755(4) 0.0401(3)
H5 H 0.4114 0.6837 -0.0289
C12 C 0.5451(4) 0.7367(4) 0.2193(3)
H6 H 0.6155 0.7866 0.2753
Cd1A Cd 1.32328(3) 0.11497(3) 0.90594(2)
Cd1B Cd 0.32328(3) 0.38503(3) 0.40594(2)
Cd1C Cd 0.67672(3) 0.88503(3) 0.09406(2)
O1A O 0.8439(4) 0.6245(3) 0.7934(3)
O2A O 0.8681(4) 0.7589(3) 0.6848(3)
O4B O 0.5726(5) 0.4364(4) 0.6219(3)
N2C N 0.5246(4) 0.7507(4) 0.6194(3)
loop_
_geom_bond_atom_site_label_1
_geom_bond_atom_site_label_2
_geom_bond_site_symmetry_1
_geom_bond_site_symmetry_2
Cd1 O3 1_555 1_555
F1 C5 1_555 1_555
F2 C10 1_555 1_555
O1 C1 1_555 1_555
O2 C1 1_555 1_555
O3 C7 1_555 1_555
O4 C7 1_555 1_555
N1 Cd1 1_555 1_555
N2 C11 1_555 1_555
C1 C2 1_555 1_555
C2 C3 1_555 1_555
C3 N1 1_555 1_555
H1 C3 1_555 1_555
C4 N1 1_555 1_555
H2 C4 1_555 1_555
C5 C4 1_555 1_555
C6 C2 1_555 1_555
H3 C6 1_555 1_555
C7 C8 1_555 1_555
C8 C9 1_555 1_555
C9 H4 1_555 1_555
C10 C9 1_555 1_555
C11 C10 1_555 1_555
H5 C11 1_555 1_555
C12 N2 1_555 1_555
H6 C12 1_555 1_555
Cd1A O1 1_555 1_555
Cd1B O4 1_555 1_555
Cd1C N2 1_555 1_555
O1A Cd1 1_555 1_555
O2A Cd1 1_555 1_555
O4B Cd1 1_555 1_555
N2C Cd1 1_555 1_555
O2 Cd1A 1_555 1_555
C5 C6 1_555 1_555
C8 C12 1_555 1_555

#END
