
#######################################################################
#
#                 Cambridge Crystallographic Data Centre
#                                CCDC 
#
#######################################################################
#
# If this CIF has been generated from an entry in the Cambridge 
# Structural Database, then it will include bibliographic, chemical, 
# crystal, experimental, refinement or atomic coordinate data resulting 
# from the CCDC's data processing and validation procedures.
#
#######################################################################

data_NIMVAI
_symmetry_cell_setting           hexagonal
_symmetry_space_group_name_H-M   'P 63/m'
_symmetry_Int_Tables_number      176
_space_group_name_Hall           '-P 6c'
loop_
_symmetry_equiv_pos_site_id
_symmetry_equiv_pos_as_xyz
1 x,y,z
2 -y,x-y,z
3 -x+y,-x,z
4 -x,-y,1/2+z
5 y,-x+y,1/2+z
6 x-y,x,1/2+z
7 -x,-y,-z
8 y,-x+y,-z
9 x-y,x,-z
10 x,y,1/2-z
11 -y,x-y,1/2-z
12 -x+y,-x,1/2-z
_cell_length_a                   15.1265(4)
_cell_length_b                   15.1265(4)
_cell_length_c                   12.5331(10)
_cell_angle_alpha                90
_cell_angle_beta                 90
_cell_angle_gamma                120
_cell_volume                     2483.51
loop_
_atom_site_label
_atom_site_type_symbol
_atom_site_fract_x
_atom_site_fract_y
_atom_site_fract_z
C1 C 0.1647(8) 0.7051(8) 0.5594(8)
C2 C 0.0763(9) 0.6550(10) 0.5012(10)
H1 H 0.0572 0.6021 0.4526
C3 C 0.0205(9) 0.7042(12) 0.5337(14)
H2 H -0.0458 0.6862 0.5143
C4 C 0.2513(7) 0.6855(8) 0.5593(8)
C5 C 0.3535(8) 0.7659(8) 0.5586(9)
H3 H 0.3665 0.8329 0.5578
C6 C 0.4810(12) 0.9510(11) 0.7500
H4 H 0.4784 0.8882 0.7500
C7 C 0.5678(12) 1.0420(13) 0.7500
H5 H 0.6339 1.0526 0.7500
C8 C 0.5415(11) 1.1150(11) 0.7500
C9 C 0.6032(13) 1.2258(11) 0.7500
C10 C 0.5617(11) 1.2897(12) 0.7500
H6 H 0.4911 1.2605 0.7500
Cu1 Cu 0.25208(14) 0.86029(13) 0.7500
Mo1 Mo 0.17861(16) 1.06242(16) 0.7500
Mo2 Mo 0.0000 1.0000 0.5000
N1 N 0.1705(7) 0.7836(7) 0.6199(8)
N2 N 0.0807(7) 0.7784(8) 0.5951(9)
H7 H 0.0649 0.8220 0.6189
N3 N 0.3970(10) 0.9628(10) 0.7500
N4 N 0.4374(10) 1.0641(9) 0.7500
O1 O 0.3063(13) 1.1534(14) 0.7500
O2 O 0.1678(17) 0.9448(15) 0.7500
O3 O 0.1227(12) 1.0757(11) 0.612(3)
C1A C 0.2949(8) 0.4596(11) 0.5594(8)
C2A C 0.3450(10) 0.4213(13) 0.5012(10)
H1A H 0.3979 0.4551 0.4526
C3A C 0.2958(12) 0.3163(15) 0.5337(14)
H2A H 0.3138 0.2680 0.5143
C4A C 0.3145(8) 0.5658(11) 0.5593(8)
C5A C 0.2341(8) 0.5876(11) 0.5586(9)
H3A H 0.1671 0.5336 0.5578
N1A N 0.2164(7) 0.3869(10) 0.6199(8)
N2A N 0.2216(8) 0.3023(11) 0.5951(9)
H7A H 0.1780 0.2429 0.6189
C1B C 0.5404(11) 0.8353(8) 0.5594(8)
C2B C 0.5787(13) 0.9237(9) 0.5012(10)
H1B H 0.5449 0.9428 0.4526
C3B C 0.6837(15) 0.9795(9) 0.5337(14)
H2B H 0.7320 1.0458 0.5143
C4B C 0.4342(11) 0.7487(7) 0.5593(8)
C5B C 0.4124(11) 0.6465(8) 0.5586(9)
H3B H 0.4664 0.6335 0.5578
N1B N 0.6131(10) 0.8295(7) 0.6199(8)
N2B N 0.6977(11) 0.9193(7) 0.5951(9)
H7B H 0.7571 0.9351 0.6189
C6A C 1.0490(11) 1.5300(16) 0.7500
H4A H 1.1118 1.5902 0.7500
C7A C 0.9580(13) 1.5258(18) 0.7500
H5A H 0.9474 1.5813 0.7500
C8A C 0.8850(11) 1.4265(16) 0.7500
C9A C 0.7742(11) 1.3774(17) 0.7500
C10A C 0.7103(12) 1.2720(16) 0.7500
H6A H 0.7395 1.2306 0.7500
N3A N 1.0372(10) 1.4342(14) 0.7500
N4A N 0.9359(9) 1.3733(13) 0.7500
C6B C 0.4700(16) 1.5190(12) 0.7500
H4B H 0.4098 1.5216 0.7500
C7B C 0.4742(18) 1.4322(12) 0.7500
H5B H 0.4187 1.3661 0.7500
C8B C 0.5735(16) 1.4585(11) 0.7500
C9B C 0.6226(17) 1.3968(13) 0.7500
C10B C 0.7280(16) 1.4383(11) 0.7500
H6B H 0.7694 1.5089 0.7500
N3B N 0.5658(14) 1.6030(10) 0.7500
N4B N 0.6267(13) 1.5626(10) 0.7500
Cu1A Cu 0.13971(13) 0.39179(19) 0.7500
Mo1A Mo -0.06242(16) 0.11619(23) 0.7500
O1A O -0.1534(14) 0.1529(19) 0.7500
O2A O 0.0552(15) 0.2230(23) 0.7500
O3A O -0.0757(11) 0.0470(16) 0.612(3)
C1I C 0.1647(8) 0.7051(8) 0.9406(8)
C2I C 0.0763(9) 0.6550(10) 0.9988(10)
H1I H 0.0572 0.6021 1.0474
C3I C 0.0205(9) 0.7042(12) 0.9663(14)
H2I H -0.0458 0.6862 0.9857
C4I C 0.2513(7) 0.6855(8) 0.9407(8)
C5I C 0.3535(8) 0.7659(8) 0.9414(9)
H3I H 0.3665 0.8329 0.9422
N1I N 0.1705(7) 0.7836(7) 0.8801(8)
N2I N 0.0807(7) 0.7784(8) 0.9049(9)
H7I H 0.0649 0.8220 0.8811
C1J C 0.2949(8) 0.4596(11) 0.9406(8)
C2J C 0.3450(10) 0.4213(13) 0.9988(10)
H1J H 0.3979 0.4551 1.0474
C3J C 0.2958(12) 0.3163(15) 0.9663(14)
H2J H 0.3138 0.2680 0.9857
C4J C 0.3145(8) 0.5658(11) 0.9407(8)
C5J C 0.2341(8) 0.5876(11) 0.9414(9)
H3J H 0.1671 0.5336 0.9422
N1J N 0.2164(7) 0.3869(10) 0.8801(8)
N2J N 0.2216(8) 0.3023(11) 0.9049(9)
H7J H 0.1780 0.2429 0.8811
C1K C 0.5404(11) 0.8353(8) 0.9406(8)
C2K C 0.5787(13) 0.9237(9) 0.9988(10)
H1K H 0.5449 0.9428 1.0474
C3K C 0.6837(15) 0.9795(9) 0.9663(14)
H2K H 0.7320 1.0458 0.9857
C4K C 0.4342(11) 0.7487(7) 0.9407(8)
C5K C 0.4124(11) 0.6465(8) 0.9414(9)
H3K H 0.4664 0.6335 0.9422
N1K N 0.6131(10) 0.8295(7) 0.8801(8)
N2K N 0.6977(11) 0.9193(7) 0.9049(9)
H7K H 0.7571 0.9351 0.8811
Cu1B Cu -0.39179(19) 0.74792(14) 0.7500
Mo1B Mo -0.11619(23) 0.82139(16) 0.7500
O1B O -0.1529(19) 0.6937(13) 0.7500
O2B O -0.2230(23) 0.8322(17) 0.7500
O3B O -0.0470(16) 0.8773(12) 0.612(3)
O3I O 0.1227(12) 1.0757(11) 0.888(3)
O3G O 0.0757(11) 0.9530(16) 0.388(3)
O3H O 0.0470(16) 1.1227(12) 0.388(3)
Cu1A_2 Cu 1.13971(13) 1.39179(19) 0.7500
Cu1B_2 Cu 0.60821(19) 0.74792(14) 0.7500
Cu1B_3 Cu 0.60821(19) 1.74792(14) 0.7500
Mo1D Mo 0.06242(16) 0.88381(23) 0.2500
Mo1E Mo 0.11619(23) 1.17861(16) 0.2500
Mo2_2 Mo 0.0000 0.0000 0.5000
Mo2C Mo 0.0000 1.0000 1.0000
N1B_2 N -0.3869(10) 0.8295(7) 0.6199(8)
N1K_2 N -0.3869(10) 0.8295(7) 0.8801(8)
N3A_2 N 0.0372(10) 0.4342(14) 0.7500
N3B_2 N -0.4342(14) 0.6030(10) 0.7500
O3A_2 O -0.0757(11) 1.0470(16) 0.612(3)
O3F O -0.1227(12) 0.9243(11) 0.388(3)
O3J O -0.0757(11) 0.0470(16) 0.888(3)
O3K O -0.0470(16) 0.8773(12) 0.888(3)
loop_
_geom_bond_atom_site_label_1
_geom_bond_atom_site_label_2
_geom_bond_site_symmetry_1
_geom_bond_site_symmetry_2
C1 C2 1_555 1_555
C2 H1 1_555 1_555
C3 C2 1_555 1_555
H2 C3 1_555 1_555
C4 C1 1_555 1_555
C5 C4 1_555 1_555
H3 C5 1_555 1_555
C6 H4 1_555 1_555
C7 C6 1_555 1_555
H5 C7 1_555 1_555
C8 C7 1_555 1_555
C9 C8 1_555 1_555
C10 C9 1_555 1_555
H6 C10 1_555 1_555
Cu1 N1 1_555 1_555
Mo1 O1 1_555 1_555
Mo2 O3 1_555 1_555
N1 C1 1_555 1_555
N2 C3 1_555 1_555
H7 N2 1_555 1_555
N3 C6 1_555 1_555
N4 C8 1_555 1_555
O2 Cu1 1_555 1_555
O3 Mo1 1_555 1_555
C1A C2A 1_555 1_555
C2A H1A 1_555 1_555
C3A C2A 1_555 1_555
H2A C3A 1_555 1_555
C4A C1A 1_555 1_555
C5A C4 1_555 1_555
H3A C5A 1_555 1_555
N1A C1A 1_555 1_555
N2A C3A 1_555 1_555
H7A N2A 1_555 1_555
C1B C2B 1_555 1_555
C2B H1B 1_555 1_555
C3B C2B 1_555 1_555
H2B C3B 1_555 1_555
C4B C5 1_555 1_555
C5B C4A 1_555 1_555
H3B C5B 1_555 1_555
N1B C1B 1_555 1_555
N2B C3B 1_555 1_555
H7B N2B 1_555 1_555
C6A H4A 1_555 1_555
C7A C6A 1_555 1_555
H5A C7A 1_555 1_555
C8A C7A 1_555 1_555
C9A C8A 1_555 1_555
C10A C9 1_555 1_555
H6A C10A 1_555 1_555
N3A C6A 1_555 1_555
N4A C8A 1_555 1_555
C6B H4B 1_555 1_555
C7B C6B 1_555 1_555
H5B C7B 1_555 1_555
C8B C7B 1_555 1_555
C9B C10 1_555 1_555
C10B C9A 1_555 1_555
H6B C10B 1_555 1_555
N3B C6B 1_555 1_555
N4B C8B 1_555 1_555
Cu1A N1A 1_555 1_555
Mo1A O1A 1_555 1_555
O2A Cu1A 1_555 1_555
O3A Mo1A 1_555 1_555
C1I C2I 1_555 1_555
C2I H1I 1_555 1_555
C3I C2I 1_555 1_555
H2I C3I 1_555 1_555
C4I C1I 1_555 1_555
C5I C4I 1_555 1_555
H3I C5I 1_555 1_555
N1I Cu1 1_555 1_555
N2I C3I 1_555 1_555
H7I N2I 1_555 1_555
C1J C2J 1_555 1_555
C2J H1J 1_555 1_555
C3J C2J 1_555 1_555
H2J C3J 1_555 1_555
C4J C1J 1_555 1_555
C5J C4I 1_555 1_555
H3J C5J 1_555 1_555
N1J Cu1A 1_555 1_555
N2J C3J 1_555 1_555
H7J N2J 1_555 1_555
C1K C2K 1_555 1_555
C2K H1K 1_555 1_555
C3K C2K 1_555 1_555
H2K C3K 1_555 1_555
C4K C5I 1_555 1_555
C5K C4J 1_555 1_555
H3K C5K 1_555 1_555
N1K C1K 1_555 1_555
N2K C3K 1_555 1_555
H7K N2K 1_555 1_555
Cu1B O2B 1_555 1_555
Mo1B O1B 1_555 1_555
O2B Mo1B 1_555 1_555
O3B Mo2 1_555 1_555
O3I Mo1 1_555 1_555
O3G Mo2 1_555 1_555
O3H Mo2 1_555 1_555
Cu1A_2 N3A 1_555 1_555
Cu1B_2 N1B 1_555 1_555
Cu1B_3 N3B 1_555 1_555
Mo1D O3G 1_555 1_555
Mo1E O3H 1_555 1_555
Mo2_2 O3A 1_555 1_555
Mo2C O3I 1_555 1_555
N1B_2 Cu1B 1_555 1_555
N1K_2 Cu1B 1_555 1_555
N3A_2 Cu1A 1_555 1_555
N3B_2 Cu1B 1_555 1_555
O3A_2 Mo2 1_555 1_555
O3F Mo2 1_555 1_555
O3J Mo1A 1_555 1_555
O3K Mo1B 1_555 1_555
Cu1 N3 1_555 1_555
Mo1 O2 1_555 1_555
N1 N2 1_555 1_555
N3 N4 1_555 1_555
C4A C5A 1_555 1_555
N1A N2A 1_555 1_555
C1B C4B 1_555 1_555
C4B C5B 1_555 1_555
N1B N2B 1_555 1_555
C9A C10A 1_555 1_555
N3A N4A 1_555 1_555
C8B C9B 1_555 1_555
C9B C10B 1_555 1_555
N3B N4B 1_555 1_555
Mo1A O2A 1_555 1_555
C1I N1I 1_555 1_555
N1I N2I 1_555 1_555
C1J N1J 1_555 1_555
C4J C5J 1_555 1_555
N1J N2J 1_555 1_555
C1K C4K 1_555 1_555
C4K C5K 1_555 1_555
N1K N2K 1_555 1_555
N1K Cu1B_2 1_555 1_555
Mo1B O3B 1_555 1_555
Mo2C O3K 1_555 1_555

#END
