
#######################################################################
#
#                 Cambridge Crystallographic Data Centre
#                                CCDC 
#
#######################################################################
#
# If this CIF has been generated from an entry in the Cambridge 
# Structural Database, then it will include bibliographic, chemical, 
# crystal, experimental, refinement or atomic coordinate data resulting 
# from the CCDC's data processing and validation procedures.
#
#######################################################################

data_NIMWAJ
_symmetry_cell_setting           monoclinic
_symmetry_space_group_name_H-M   'P 21/c'
_symmetry_Int_Tables_number      14
_space_group_name_Hall           '-P 2ybc'
loop_
_symmetry_equiv_pos_site_id
_symmetry_equiv_pos_as_xyz
1 x,y,z
2 -x,1/2+y,1/2-z
3 -x,-y,-z
4 x,1/2-y,1/2+z
_cell_length_a                   13.9287(15)
_cell_length_b                   12.7175(14)
_cell_length_c                   6.9109(8)
_cell_angle_alpha                90
_cell_angle_beta                 95.088(2)
_cell_angle_gamma                90
_cell_volume                     1219.36
loop_
_atom_site_label
_atom_site_type_symbol
_atom_site_fract_x
_atom_site_fract_y
_atom_site_fract_z
Cd1 Cd 0.220482(11) 1.160286(12) 0.15423(2)
Cl1 Cl 0.32459(4) 1.29443(5) -0.02078(8)
F1 F 0.21561(14) 0.83135(17) 0.6780(3)
O1 O -0.12651(12) 0.90156(13) 0.1183(2)
O2 O -0.09438(12) 0.75943(14) 0.3042(3)
O3 O 0.32348(13) 1.02413(13) 0.0910(3)
N1 N 0.14339(14) 1.02320(15) 0.3193(3)
N2 N 0.40548(15) 0.93718(16) -0.1259(3)
C1 C -0.07653(17) 0.84893(18) 0.2408(4)
C2 C 0.01960(16) 0.89291(18) 0.3230(3)
C3 C 0.0737(2) 0.8396(2) 0.4681(4)
H1 H 0.0515 0.7772 0.5186
C4 C 0.1602(2) 0.8804(2) 0.5351(5)
C5 C 0.19416(19) 0.9714(2) 0.4593(4)
H2 H 0.2541 0.9972 0.5074
C6 C 0.05728(16) 0.98527(18) 0.2544(3)
H3 H 0.0207 1.0225 0.1583
C7 C 0.35816(17) 1.01904(19) -0.0668(4)
H4 H 0.3504 1.0767 -0.1493
C8 C 0.4460(2) 0.9368(3) -0.3127(4)
H5 H 0.4123 0.8865 -0.3970
H6 H 0.5130 0.9183 -0.2944
H7 H 0.4395 1.0055 -0.3699
C9 C 0.4147(2) 0.8424(2) -0.0095(5)
H8 H 0.4016 0.8582 0.1214
H9 H 0.4791 0.8154 -0.0097
H10 H 0.3697 0.7907 -0.0629
Cd1A Cd -0.220482(11) 0.660286(12) 0.34577(2)
Cd1B Cd -0.220482(11) 0.839714(12) -0.15423(2)
Cd1C Cd 0.220482(11) 1.339714(12) -0.34577(2)
Cl1C Cl 0.32459(4) 1.20557(5) 0.47922(8)
O1B O 0.12651(12) 1.09844(13) -0.1183(2)
O2A O 0.09438(12) 1.25943(14) 0.1958(3)
loop_
_geom_bond_atom_site_label_1
_geom_bond_atom_site_label_2
_geom_bond_site_symmetry_1
_geom_bond_site_symmetry_2
Cd1 Cl1 1_555 1_555
Cl1 Cd1C 1_555 1_555
F1 C4 1_555 1_555
O1 C1 1_555 1_555
O2 C1 1_555 1_555
O3 Cd1 1_555 1_555
N1 Cd1 1_555 1_555
N2 C7 1_555 1_555
C1 C2 1_555 1_555
C2 C3 1_555 1_555
C3 H1 1_555 1_555
C4 C3 1_555 1_555
C5 N1 1_555 1_555
H2 C5 1_555 1_555
C6 N1 1_555 1_555
H3 C6 1_555 1_555
C7 O3 1_555 1_555
H4 C7 1_555 1_555
C8 N2 1_555 1_555
H5 C8 1_555 1_555
H6 C8 1_555 1_555
H7 C8 1_555 1_555
C9 N2 1_555 1_555
H8 C9 1_555 1_555
H9 C9 1_555 1_555
H10 C9 1_555 1_555
Cd1A O2 1_555 1_555
Cd1B O1 1_555 1_555
Cl1C Cd1 1_555 1_555
O1B Cd1 1_555 1_555
O2A Cd1 1_555 1_555
C2 C6 1_555 1_555
C4 C5 1_555 1_555

#END
