
#######################################################################
#
#                 Cambridge Crystallographic Data Centre
#                                CCDC 
#
#######################################################################
#
# If this CIF has been generated from an entry in the Cambridge 
# Structural Database, then it will include bibliographic, chemical, 
# crystal, experimental, refinement or atomic coordinate data resulting 
# from the CCDC's data processing and validation procedures.
#
#######################################################################

data_NINDOF
_symmetry_cell_setting           monoclinic
_symmetry_space_group_name_H-M   'P 21/n'
_symmetry_Int_Tables_number      14
_space_group_name_Hall           '-P 2yn'
loop_
_symmetry_equiv_pos_site_id
_symmetry_equiv_pos_as_xyz
1 x,y,z
2 1/2-x,1/2+y,1/2-z
3 -x,-y,-z
4 1/2+x,1/2-y,1/2+z
_cell_length_a                   10.5803(2)
_cell_length_b                   29.3713(3)
_cell_length_c                   12.3860(1)
_cell_angle_alpha                90
_cell_angle_beta                 93.596(1)
_cell_angle_gamma                90
_cell_volume                     3841.46
loop_
_atom_site_label
_atom_site_type_symbol
_atom_site_fract_x
_atom_site_fract_y
_atom_site_fract_z
C1 C 0.2402(3) 0.12140(9) 0.2777(2)
C2 C -0.0593(3) 0.17297(11) 0.2918(2)
H1 H -0.1210 0.1882 0.3283
C3 C -0.0705(3) 0.16206(12) 0.1821(3)
H2 H -0.1384 0.1686 0.1333
C4 C 0.0380(3) 0.13996(11) 0.1611(2)
H3 H 0.0586 0.1284 0.0946
C5 C 0.3866(3) 0.21087(10) 0.4283(2)
H4 H 0.3932 0.2303 0.4876
C6 C 0.4700(3) 0.21039(11) 0.3453(3)
H5 H 0.5406 0.2288 0.3391
C7 C 0.4266(3) 0.17733(11) 0.2754(2)
H6 H 0.4622 0.1689 0.2115
C8 C 0.2289(3) 0.06021(9) 0.5228(2)
H7 H 0.2118 0.0577 0.5953
C9 C 0.2858(3) 0.02651(10) 0.4641(2)
H8 H 0.3129 -0.0019 0.4892
C10 C 0.2938(3) 0.04334(9) 0.3630(2)
H9 H 0.3284 0.0286 0.3054
C11 C 0.2353(3) 0.21181(9) 0.6821(2)
C12 C 0.1639(3) 0.24488(9) 0.6173(2)
C13 C 0.3061(3) 0.21036(11) 0.7771(2)
H10 H 0.3206 0.2343 0.8256
C14 C -0.1563(3) 0.10552(10) 0.4803(2)
C15 C -0.1130(3) 0.07407(10) 0.4070(2)
H11 H -0.0269 0.0676 0.4077
C16 C -0.1960(3) 0.05243(11) 0.3335(2)
H12 H -0.1655 0.0313 0.2856
C17 C -0.3230(4) 0.06186(11) 0.3306(3)
H13 H -0.3784 0.0478 0.2797
C18 C -0.3679(3) 0.09221(12) 0.4036(3)
H14 H -0.4542 0.0983 0.4027
C19 C -0.2856(3) 0.11381(11) 0.4787(3)
H15 H -0.3173 0.1340 0.5282
C20 C -0.1463(3) 0.17806(11) 0.6314(3)
C21 C -0.1821(3) 0.21690(11) 0.5714(3)
H16 H -0.1454 0.2228 0.5066
C22 C -0.2716(4) 0.24656(13) 0.6081(4)
H17 H -0.2950 0.2722 0.5677
C23 C -0.3262(4) 0.23816(15) 0.7041(4)
H18 H -0.3861 0.2582 0.7286
C24 C -0.2922(5) 0.20021(17) 0.7634(4)
H19 H -0.3296 0.1945 0.8280
C25 C -0.2024(4) 0.17032(14) 0.7278(3)
H20 H -0.1796 0.1448 0.7690
C26 C -0.0129(3) 0.09634(10) 0.6848(2)
C27 C 0.0567(3) 0.11173(12) 0.7772(2)
H21 H 0.0860 0.1416 0.7804
C28 C 0.0822(4) 0.08305(14) 0.8637(3)
H22 H 0.1299 0.0935 0.9242
C29 C 0.0375(4) 0.03881(14) 0.8613(3)
H23 H 0.0549 0.0196 0.9201
C30 C -0.0332(4) 0.02330(12) 0.7710(3)
H24 H -0.0647 -0.0063 0.7695
C31 C -0.0571(3) 0.05174(10) 0.6828(2)
H25 H -0.1032 0.0409 0.6217
C32 C 0.5482(5) 0.06331(19) -0.2982(4)
H26 H 0.5332 0.0951 -0.3122
H27 H 0.5117 0.0457 -0.3575
H28 H 0.6377 0.0578 -0.2903
C33 C 0.4885(5) 0.04986(17) -0.1959(4)
H29 H 0.3988 0.0569 -0.2024
H30 H 0.4975 0.0173 -0.1850
C34 C 0.6608(6) 0.0524(2) -0.0601(5)
H31 H 0.7171 0.0470 -0.1177
H32 H 0.6401 0.0233 -0.0289
C35 C 0.7231(6) 0.0810(2) 0.0219(4)
H33 H 0.7469 0.1093 -0.0100
H34 H 0.7975 0.0659 0.0524
H35 H 0.6664 0.0869 0.0778
N1 N 0.0500(2) 0.15897(7) 0.33729(17)
N2 N 0.1111(2) 0.13786(7) 0.25582(17)
N3 N 0.2972(2) 0.17999(8) 0.41098(17)
N4 N 0.3219(2) 0.15885(7) 0.31604(17)
N5 N 0.2020(2) 0.09637(7) 0.46198(16)
N6 N 0.2420(2) 0.08594(7) 0.36097(16)
N7 N 0.2379(2) 0.16956(8) 0.63772(17)
N8 N 0.3099(3) 0.14285(9) 0.70256(19)
N9 N 0.3518(3) 0.16747(10) 0.7879(2)
N10 N 0.1451(3) 0.28973(9) 0.6239(2)
N11 N 0.1066(2) 0.22879(7) 0.52479(18)
N12 N 0.0509(2) 0.26379(8) 0.47345(19)
N13 N 0.0731(3) 0.30075(8) 0.5326(2)
Na1 Na 0.45300(12) 0.13978(4) -0.05058(9)
O1 O 0.4264(2) 0.08157(7) 0.18155(16)
O2 O 0.2930(2) 0.13333(7) 0.07411(15)
O3 O 0.2102(2) 0.06005(7) 0.12597(15)
O4 O 0.5485(3) 0.07407(10) -0.1026(2)
P1 P -0.04215(7) 0.13619(2) 0.57213(5)
Ru1 Ru 0.13656(2) 0.160788(6) 0.490758(15)
S1 S 0.29970(7) 0.09578(2) 0.14970(5)
N9_2 N 0.3518(3) 0.16747(10) -0.2121(2)
N13C N 0.5731(3) 0.19925(8) 0.0326(2)
Na1_2 Na 0.45300(12) 0.13978(4) 0.94942(9)
Na1C Na -0.04700(12) 0.36022(4) 0.44942(9)
loop_
_geom_bond_atom_site_label_1
_geom_bond_atom_site_label_2
_geom_bond_site_symmetry_1
_geom_bond_site_symmetry_2
C1 N2 1_555 1_555
C2 H1 1_555 1_555
C3 C2 1_555 1_555
H2 C3 1_555 1_555
C4 C3 1_555 1_555
H3 C4 1_555 1_555
C5 H4 1_555 1_555
C6 C5 1_555 1_555
H5 C6 1_555 1_555
C7 C6 1_555 1_555
H6 C7 1_555 1_555
C8 H7 1_555 1_555
C9 C8 1_555 1_555
H8 C9 1_555 1_555
C10 C9 1_555 1_555
H9 C10 1_555 1_555
C11 C12 1_555 1_555
C12 N10 1_555 1_555
C13 C11 1_555 1_555
H10 C13 1_555 1_555
C14 C15 1_555 1_555
C15 H11 1_555 1_555
C16 C15 1_555 1_555
H12 C16 1_555 1_555
C17 C16 1_555 1_555
H13 C17 1_555 1_555
C18 C17 1_555 1_555
H14 C18 1_555 1_555
C19 C14 1_555 1_555
H15 C19 1_555 1_555
C20 C21 1_555 1_555
C21 H16 1_555 1_555
C22 C21 1_555 1_555
H17 C22 1_555 1_555
C23 C22 1_555 1_555
H18 C23 1_555 1_555
C24 C23 1_555 1_555
H19 C24 1_555 1_555
C25 C20 1_555 1_555
H20 C25 1_555 1_555
C26 C27 1_555 1_555
C27 H21 1_555 1_555
C28 C27 1_555 1_555
H22 C28 1_555 1_555
C29 C28 1_555 1_555
H23 C29 1_555 1_555
C30 C29 1_555 1_555
H24 C30 1_555 1_555
C31 C26 1_555 1_555
H25 C31 1_555 1_555
C32 H26 1_555 1_555
H27 C32 1_555 1_555
H28 C32 1_555 1_555
C33 C32 1_555 1_555
H29 C33 1_555 1_555
H30 C33 1_555 1_555
C34 H31 1_555 1_555
H32 C34 1_555 1_555
C35 C34 1_555 1_555
H33 C35 1_555 1_555
H34 C35 1_555 1_555
H35 C35 1_555 1_555
N1 C2 1_555 1_555
N2 C4 1_555 1_555
N3 C5 1_555 1_555
N4 C1 1_555 1_555
N5 C8 1_555 1_555
N6 C1 1_555 1_555
N7 C11 1_555 1_555
N8 N7 1_555 1_555
N9 C13 1_555 1_555
N10 N13 1_555 1_555
N11 C12 1_555 1_555
N12 N11 1_555 1_555
N13 N12 1_555 1_555
Na1 O2 1_555 1_555
O1 S1 1_555 1_555
O2 S1 1_555 1_555
O3 S1 1_555 1_555
O4 C33 1_555 1_555
P1 C14 1_555 1_555
Ru1 N1 1_555 1_555
S1 C1 1_555 1_555
N9_2 Na1 1_555 1_555
N13C Na1 1_555 1_555
Na1_2 N9 1_555 1_555
Na1C N13 1_555 1_555
C7 N4 1_555 1_555
C10 N6 1_555 1_555
C18 C19 1_555 1_555
C20 P1 1_555 1_555
C24 C25 1_555 1_555
C26 P1 1_555 1_555
C30 C31 1_555 1_555
C34 O4 1_555 1_555
N1 N2 1_555 1_555
N3 N4 1_555 1_555
N3 Ru1 1_555 1_555
N5 N6 1_555 1_555
N5 Ru1 1_555 1_555
N7 Ru1 1_555 1_555
N8 N9 1_555 1_555
N11 Ru1 1_555 1_555
Na1 O4 1_555 1_555
P1 Ru1 1_555 1_555

#END
