
#######################################################################
#
#                 Cambridge Crystallographic Data Centre
#                                CCDC 
#
#######################################################################
#
# If this CIF has been generated from an entry in the Cambridge 
# Structural Database, then it will include bibliographic, chemical, 
# crystal, experimental, refinement or atomic coordinate data resulting 
# from the CCDC's data processing and validation procedures.
#
#######################################################################

data_NINGIB
_symmetry_cell_setting           triclinic
_symmetry_space_group_name_H-M   'P -1'
_symmetry_Int_Tables_number      2
_space_group_name_Hall           '-P 1'
loop_
_symmetry_equiv_pos_site_id
_symmetry_equiv_pos_as_xyz
1 x,y,z
2 -x,-y,-z
_cell_length_a                   9.6483(14)
_cell_length_b                   9.9256(17)
_cell_length_c                   11.5794(17)
_cell_angle_alpha                67.193(2)
_cell_angle_beta                 68.372(2)
_cell_angle_gamma                80.077(2)
_cell_volume                     949.676
loop_
_atom_site_label
_atom_site_type_symbol
_atom_site_fract_x
_atom_site_fract_y
_atom_site_fract_z
O6 O 0.9895(17) 0.3320(14) 0.0608(19)
H17 H 1.0341 0.3796 -0.0197
H18 H 0.9653 0.3739 0.1165
Cd1 Cd 0.71856(7) 0.91165(6) 0.18938(6)
O1 O 0.7690(9) 1.1975(8) 0.0731(9)
O2 O 0.5562(9) 1.1015(7) 0.1356(9)
O3 O 0.9426(6) 0.9304(6) 0.2323(6)
O4 O 0.7198(7) 0.9420(6) 0.3788(6)
O5 O 0.8473(9) 0.9015(8) -0.0146(7)
H1 H 0.8891 0.8165 0.0006
H2 H 0.9033 0.9735 -0.0646
N1 N 0.7820(9) 0.6537(8) 0.2742(10)
N2 N 0.5219(7) 0.7664(7) 0.2372(7)
N3 N 0.7053(18) 0.920(2) 0.6189(15)
H3 H 0.6564 0.9055 0.5760
H4 H 0.6621 0.9110 0.7009
N4 N 0.335(2) 1.262(2) 0.079(3)
H5 H 0.3725 1.1740 0.1020
H6 H 0.2453 1.2762 0.0775
C1 C 0.6768(10) 0.5603(9) 0.3082(8)
C2 C 0.5375(9) 0.6213(8) 0.2909(8)
C3 C 0.3942(11) 0.8217(12) 0.2165(15)
H7 H 0.3829 0.9227 0.1796
C4 C 0.2782(15) 0.7381(16) 0.247(2)
H8 H 0.1892 0.7815 0.2333
C5 C 0.2964(14) 0.5863(15) 0.298(2)
H9 H 0.2219 0.5267 0.3140
C6 C 0.4246(11) 0.5258(11) 0.3244(14)
C7 C 0.4533(16) 0.3689(12) 0.3824(16)
H10 H 0.3780 0.3052 0.4090
C8 C 0.5789(15) 0.3160(13) 0.3980(16)
H11 H 0.5934 0.2151 0.4324
C9 C 0.6960(16) 0.4076(12) 0.3639(18)
C10 C 0.8331(15) 0.3535(13) 0.3781(17)
H12 H 0.8500 0.2535 0.4164
C11 C 0.9443(16) 0.4496(12) 0.3347(17)
H13 H 1.0398 0.4155 0.3363
C12 C 0.9109(16) 0.5969(13) 0.2890(17)
H14 H 0.9842 0.6609 0.2671
C13 C 0.8575(10) 0.9474(9) 0.3417(8)
C14 C 0.9304(10) 0.9730(8) 0.4249(9)
C15 C 1.0774(10) 1.0187(8) 0.3687(8)
H15 H 1.1286 1.0328 0.2796
C16 C 0.8509(10) 0.9563(9) 0.5571(9)
C17 C 0.6351(14) 1.2097(12) 0.0865(14)
C18 C 0.5611(12) 1.3603(10) 0.0445(12)
C19 C 0.6404(11) 1.4849(10) 0.0000(13)
H16 H 0.7380 1.4740 0.0002
C20 C 0.4187(12) 1.3770(10) 0.0442(13)
C15A C 0.9226(10) 0.9813(8) 0.6313(8)
C16A C 1.1491(10) 1.0437(9) 0.4429(9)
C19A C 0.3596(11) 1.5151(10) 0.0000(13)
C20A C 0.5813(12) 1.6230(10) -0.0442(13)
loop_
_geom_bond_atom_site_label_1
_geom_bond_atom_site_label_2
_geom_bond_site_symmetry_1
_geom_bond_site_symmetry_2
Cd1 O1 1_555 1_555
O1 C17 1_555 1_555
O2 Cd1 1_555 1_555
O3 Cd1 1_555 1_555
O4 Cd1 1_555 1_555
O5 Cd1 1_555 1_555
H1 O5 1_555 1_555
H2 O5 1_555 1_555
N1 Cd1 1_555 1_555
N2 Cd1 1_555 1_555
N3 H3 1_555 1_555
H4 N3 1_555 1_555
N4 H5 1_555 1_555
H6 N4 1_555 1_555
C1 N1 1_555 1_555
C2 N2 1_555 1_555
C3 N2 1_555 1_555
H7 C3 1_555 1_555
C4 C3 1_555 1_555
H8 C4 1_555 1_555
C5 C4 1_555 1_555
H9 C5 1_555 1_555
C6 C2 1_555 1_555
C7 C6 1_555 1_555
H10 C7 1_555 1_555
C8 C7 1_555 1_555
H11 C8 1_555 1_555
C9 C1 1_555 1_555
C10 C9 1_555 1_555
H12 C10 1_555 1_555
C11 C10 1_555 1_555
H13 C11 1_555 1_555
C12 N1 1_555 1_555
H14 C12 1_555 1_555
C13 O3 1_555 1_555
C14 C13 1_555 1_555
C15 C14 1_555 1_555
H15 C15 1_555 1_555
C16 N3 1_555 1_555
C17 O2 1_555 1_555
C18 C17 1_555 1_555
C19 C18 1_555 1_555
H16 C19 1_555 1_555
C20 N4 1_555 1_555
O6 H17 1_555 1_555
H18 O6 1_555 1_555
C15A C16 1_555 1_555
C16A C15 1_555 1_555
C19A C20 1_555 1_555
C20A C19 1_555 1_555
O4 C13 1_555 1_555
C1 C2 1_555 1_555
C5 C6 1_555 1_555
C8 C9 1_555 1_555
C11 C12 1_555 1_555
C14 C16 1_555 1_555
C18 C20 1_555 1_555

#END
