
#######################################################################
#
#                 Cambridge Crystallographic Data Centre
#                                CCDC 
#
#######################################################################
#
# If this CIF has been generated from an entry in the Cambridge 
# Structural Database, then it will include bibliographic, chemical, 
# crystal, experimental, refinement or atomic coordinate data resulting 
# from the CCDC's data processing and validation procedures.
#
#######################################################################

data_NIPNIK
_symmetry_cell_setting           tetragonal
_symmetry_space_group_name_H-M   'I -4 2 d'
_symmetry_Int_Tables_number      122
_space_group_name_Hall           'I -4 2bw'
loop_
_symmetry_equiv_pos_site_id
_symmetry_equiv_pos_as_xyz
1 x,y,z
2 -x,-y,z
3 y,-x,-z
4 -y,x,-z
5 1/2-x,y,3/4-z
6 1/2+x,-y,3/4-z
7 1/2-y,-x,3/4+z
8 1/2+y,x,3/4+z
9 1/2+x,1/2+y,1/2+z
10 1/2-x,1/2-y,1/2+z
11 1/2+y,1/2-x,1/2-z
12 1/2-y,1/2+x,1/2-z
13 -x,1/2+y,1/4-z
14 x,1/2-y,1/4-z
15 -y,1/2-x,1/4+z
16 y,1/2+x,1/4+z
_cell_length_a                   15.2904(4)
_cell_length_b                   15.2904(4)
_cell_length_c                   16.7746(6)
_cell_angle_alpha                90
_cell_angle_beta                 90
_cell_angle_gamma                90
_cell_volume                     3921.84
loop_
_atom_site_label
_atom_site_type_symbol
_atom_site_fract_x
_atom_site_fract_y
_atom_site_fract_z
Hg1 Hg -0.25000(2) 0.3525 0.3750
Br1 Br -0.11302(5) 0.33507(5) 0.30213(4)
Ni1 Ni 0.0000 1.0000 0.5000
N1 N 0.0657(3) 0.8914(3) 0.5070(2)
C1 C 0.0348(3) 0.8070(3) 0.5040(3)
C2 C 0.1036(3) 0.7450(4) 0.5158(3)
H1 H 0.0979 0.6831 0.5163
C3 C 0.1784(4) 0.7910(4) 0.5262(3)
H2 H 0.2349 0.7679 0.5365
C4 C 0.1554(3) 0.8819(3) 0.5185(3)
C5 C -0.0512(3) 0.7835(3) 0.4873(3)
C6 C -0.0755(3) 0.6890(4) 0.4828(3)
C7 C -0.0771(4) 0.6375(4) 0.5514(3)
H3 H -0.0552 0.6599 0.6003
C8 C -0.1108(4) 0.5538(4) 0.5479(4)
H4 H -0.1114 0.5188 0.5947
N2 N -0.1427(3) 0.5210(3) 0.4796(3)
O1 O -0.1819(3) 0.4439(4) 0.4825(3)
C9 C -0.1353(4) 0.5675(4) 0.4114(3)
H5 H -0.1531 0.5418 0.3625
C10 C -0.1027(4) 0.6510(4) 0.4114(3)
H6 H -0.0986 0.6828 0.3629
Hg1B Hg -0.6475 1.25000(2) 0.6250
Hg1A Hg 0.25000(2) 1.6475 0.3750
Hg1C Hg 0.6475 0.75000(2) 0.6250
Br1D Br -0.38698(5) 0.33507(5) 0.44787(4)
Br1B Br -0.66493(5) 1.11302(5) 0.69787(4)
Br1O Br -0.66493(5) 1.38698(5) 0.55213(4)
N1C N 0.1086(3) 1.0657(3) 0.4930(2)
N1A N -0.0657(3) 1.1086(3) 0.5070(2)
N1B N -0.1086(3) 0.9343(3) 0.4930(2)
C1C C 0.1930(3) 1.0348(3) 0.4960(3)
C1A C -0.0348(3) 1.1930(3) 0.5040(3)
C1B C -0.1930(3) 0.9652(3) 0.4960(3)
C2C C 0.2550(4) 1.1036(3) 0.4842(3)
C2A C -0.1036(3) 1.2550(4) 0.5158(3)
C2B C -0.2550(4) 0.8964(3) 0.4842(3)
H1C H 0.3169 1.0979 0.4837
H1A H -0.0979 1.3169 0.5163
H1B H -0.3169 0.9021 0.4837
C3C C 0.2090(4) 1.1784(4) 0.4738(3)
C3A C -0.1784(4) 1.2090(4) 0.5262(3)
C3B C -0.2090(4) 0.8216(4) 0.4738(3)
H2C H 0.2321 1.2349 0.4635
H2A H -0.2349 1.2321 0.5365
H2B H -0.2321 0.7651 0.4635
C4C C 0.1181(3) 1.1554(3) 0.4815(3)
C4A C -0.1554(3) 1.1181(3) 0.5185(3)
C4B C -0.1181(3) 0.8446(3) 0.4815(3)
C5C C 0.2165(3) 0.9488(3) 0.5127(3)
C5A C 0.0512(3) 1.2165(3) 0.4873(3)
C5B C -0.2165(3) 1.0512(3) 0.5127(3)
C6B C -0.3110(4) 1.0755(3) 0.5172(3)
C6A C 0.0755(3) 1.3110(4) 0.4828(3)
C6C C 0.3110(4) 0.9245(3) 0.5172(3)
C7B C -0.3625(4) 1.0771(4) 0.4486(3)
C7A C 0.0771(4) 1.3625(4) 0.5514(3)
C7C C 0.3625(4) 0.9229(4) 0.4486(3)
H3B H -0.3401 1.0552 0.3997
H3A H 0.0552 1.3401 0.6003
H3C H 0.3401 0.9448 0.3997
C8B C -0.4462(4) 1.1108(4) 0.4521(4)
C8A C 0.1108(4) 1.4462(4) 0.5479(4)
C8C C 0.4462(4) 0.8892(4) 0.4521(4)
H4B H -0.4812 1.1114 0.4053
H4A H 0.1114 1.4812 0.5947
H4C H 0.4812 0.8886 0.4053
N2B N -0.4790(3) 1.1427(3) 0.5204(3)
N2A N 0.1427(3) 1.4790(3) 0.4796(3)
N2C N 0.4790(3) 0.8573(3) 0.5204(3)
O1B O -0.5561(4) 1.1819(3) 0.5175(3)
O1A O 0.1819(3) 1.5561(4) 0.4825(3)
O1C O 0.5561(4) 0.8181(3) 0.5175(3)
O1D O -0.3181(3) 0.4439(4) 0.2675(3)
O1O O -0.5561(4) 1.3181(3) 0.7325(3)
C9B C -0.4325(4) 1.1353(4) 0.5886(3)
C9A C 0.1353(4) 1.4325(4) 0.4114(3)
C9C C 0.4325(4) 0.8647(4) 0.5886(3)
H5B H -0.4582 1.1531 0.6375
H5A H 0.1531 1.4582 0.3625
H5C H 0.4582 0.8469 0.6375
C10B C -0.3490(4) 1.1027(4) 0.5886(3)
C10A C 0.1027(4) 1.3490(4) 0.4114(3)
C10C C 0.3490(4) 0.8973(4) 0.5886(3)
H6B H -0.3172 1.0986 0.6371
H6A H 0.0986 1.3172 0.3629
H6C H 0.3172 0.9014 0.6371
loop_
_geom_bond_atom_site_label_1
_geom_bond_atom_site_label_2
_geom_bond_site_symmetry_1
_geom_bond_site_symmetry_2
Hg1 Br1 1_555 1_555
Ni1 N1 1_555 1_555
N1 C1 1_555 1_555
C1 C2 1_555 1_555
C2 H1 1_555 1_555
C3 C2 1_555 1_555
H2 C3 1_555 1_555
C4 N1 1_555 1_555
C5 C1 1_555 1_555
C6 C5 1_555 1_555
C7 C6 1_555 1_555
H3 C7 1_555 1_555
C8 C7 1_555 1_555
H4 C8 1_555 1_555
N2 C8 1_555 1_555
O1 Hg1 1_555 1_555
C9 N2 1_555 1_555
H5 C9 1_555 1_555
C10 C6 1_555 1_555
H6 C10 1_555 1_555
Hg1B Br1B 1_555 1_555
Hg1A O1A 1_555 1_555
Hg1C O1C 1_555 1_555
Br1D Hg1 1_555 1_555
Br1O Hg1B 1_555 1_555
N1C Ni1 1_555 1_555
N1A Ni1 1_555 1_555
N1B Ni1 1_555 1_555
C1C N1C 1_555 1_555
C1A N1A 1_555 1_555
C1B N1B 1_555 1_555
C2C C1C 1_555 1_555
C2A C1A 1_555 1_555
C2B C1B 1_555 1_555
H1C C2C 1_555 1_555
H1A C2A 1_555 1_555
H1B C2B 1_555 1_555
C3C C2C 1_555 1_555
C3A C2A 1_555 1_555
C3B C2B 1_555 1_555
H2C C3C 1_555 1_555
H2A C3A 1_555 1_555
H2B C3B 1_555 1_555
C4C N1C 1_555 1_555
C4A N1A 1_555 1_555
C4B C5 1_555 1_555
C5C C4 1_555 1_555
C5A C1A 1_555 1_555
C5B C1B 1_555 1_555
C6B C5B 1_555 1_555
C6A C5A 1_555 1_555
C6C C5C 1_555 1_555
C7B C6B 1_555 1_555
C7A C6A 1_555 1_555
C7C C6C 1_555 1_555
H3B C7B 1_555 1_555
H3A C7A 1_555 1_555
H3C C7C 1_555 1_555
C8B C7B 1_555 1_555
C8A C7A 1_555 1_555
C8C C7C 1_555 1_555
H4B C8B 1_555 1_555
H4A C8A 1_555 1_555
H4C C8C 1_555 1_555
N2B C8B 1_555 1_555
N2A C8A 1_555 1_555
N2C C8C 1_555 1_555
O1B Hg1B 1_555 1_555
O1A N2A 1_555 1_555
O1C N2C 1_555 1_555
O1D Hg1 1_555 1_555
O1O Hg1B 1_555 1_555
C9B N2B 1_555 1_555
C9A N2A 1_555 1_555
C9C N2C 1_555 1_555
H5B C9B 1_555 1_555
H5A C9A 1_555 1_555
H5C C9C 1_555 1_555
C10B C6B 1_555 1_555
C10A C6A 1_555 1_555
C10C C6C 1_555 1_555
H6B C10B 1_555 1_555
H6A C10A 1_555 1_555
H6C C10C 1_555 1_555
C3 C4 1_555 1_555
N2 O1 1_555 1_555
C9 C10 1_555 1_555
N1B C4B 1_555 1_555
C1C C5C 1_555 1_555
C3C C4C 1_555 1_555
C3A C4A 1_555 1_555
C3B C4B 1_555 1_555
C4C C5A 1_555 1_555
C4A C5B 1_555 1_555
N2B O1B 1_555 1_555
C9B C10B 1_555 1_555
C9A C10A 1_555 1_555
C9C C10C 1_555 1_555

#END
