
#######################################################################
#
#                 Cambridge Crystallographic Data Centre
#                                CCDC 
#
#######################################################################
#
# If this CIF has been generated from an entry in the Cambridge 
# Structural Database, then it will include bibliographic, chemical, 
# crystal, experimental, refinement or atomic coordinate data resulting 
# from the CCDC's data processing and validation procedures.
#
#######################################################################

data_NIPVUD
_symmetry_cell_setting           triclinic
_symmetry_space_group_name_H-M   'P -1'
_symmetry_Int_Tables_number      2
_space_group_name_Hall           '-P 1'
loop_
_symmetry_equiv_pos_site_id
_symmetry_equiv_pos_as_xyz
1 x,y,z
2 -x,-y,-z
_cell_length_a                   8.540(3)
_cell_length_b                   8.927(4)
_cell_length_c                   11.317(4)
_cell_angle_alpha                76.96(3)
_cell_angle_beta                 66.71(4)
_cell_angle_gamma                80.25(3)
_cell_volume                     768.929
loop_
_atom_site_label
_atom_site_type_symbol
_atom_site_fract_x
_atom_site_fract_y
_atom_site_fract_z
Pb1 Pb 0.27765(14) 0.72423(14) 0.39710(12)
N1 N 0.1572(28) 1.0714(26) 0.4045(24)
O1 O 0.2365(33) 1.0218(28) 0.4667(29)
O2 O -0.0952(30) 0.7871(25) 0.6090(22)
O3 O 0.1626(25) 0.9928(21) 0.3230(18)
N2 N 0.5249(33) 0.4080(29) 0.3648(27)
O4 O 0.5947(42) 0.5195(40) 0.3558(53)
O5 O 0.4094(34) 0.7258(26) 0.6141(27)
O6 O 0.3826(25) 0.4425(28) 0.3639(23)
N3 N 0.3885(31) 0.7373(27) 0.1560(25)
N4 N 0.0658(27) 0.6507(29) 0.3120(23)
N5 N -0.0834(32) 0.6122(32) 0.3921(29)
H1 H -0.1144(32) 0.6107(32) 0.4781(29)
H2 H -0.1566(32) 0.5867(32) 0.3620(29)
N6 N 0.5520(30) 0.8476(31) 0.2701(26)
N7 N 0.6300(36) 0.8951(38) 0.3352(30)
H3 H 0.5838(36) 0.8824(38) 0.4230(30)
H4 H 0.7288(36) 0.9397(38) 0.2912(30)
C1 C 0.2981(37) 0.6815(32) 0.1050(25)
C2 C 0.3562(48) 0.6657(45) -0.0213(28)
H5 H 0.2956(48) 0.6145(45) -0.0540(28)
C3 C 0.5089(47) 0.7318(43) -0.1018(30)
H6 H 0.5497(47) 0.7309(43) -0.1939(30)
C4 C 0.6068(42) 0.7963(39) -0.0562(34)
H7 H 0.7115(42) 0.8416(39) -0.1118(34)
C5 C 0.5355(33) 0.7889(33) 0.0805(25)
C6 C 0.1280(38) 0.6241(32) 0.1947(37)
C7 C 0.0331(50) 0.5322(49) 0.1542(43)
H8 H -0.0722(50) 0.5069(49) 0.2254(43)
H9 H 0.0086(50) 0.5919(49) 0.0806(43)
H10 H 0.1019(50) 0.4389(49) 0.1305(43)
C8 C 0.6250(34) 0.8538(31) 0.1444(31)
C9 C 0.7894(37) 0.9185(41) 0.0666(29)
H11 H 0.8290(37) 0.9551(41) 0.1225(29)
H12 H 0.8716(37) 0.8402(41) 0.0254(29)
H13 H 0.7751(37) 1.0028(41) 0.0009(29)
O2A O 0.0952(30) 1.2129(25) 0.3910(22)
Pb1A Pb -0.27765(14) 1.27577(14) 0.60290(12)
O5A O 0.5906(34) 0.2742(26) 0.3859(27)
Pb1A_2 Pb 0.72235(14) 0.27577(14) 0.60290(12)
O7 O -0.0996(30) 1.1447(34) 0.2212(24)
loop_
_geom_bond_atom_site_label_1
_geom_bond_atom_site_label_2
_geom_bond_site_symmetry_1
_geom_bond_site_symmetry_2
Pb1 O1 1_555 1_555
N1 O1 1_555 1_555
O2 Pb1 1_555 1_555
O3 Pb1 1_555 1_555
N2 O4 1_555 1_555
O4 Pb1 1_555 1_555
O5 Pb1 1_555 1_555
O6 Pb1 1_555 1_555
N3 Pb1 1_555 1_555
N4 Pb1 1_555 1_555
N5 N4 1_555 1_555
H1 N5 1_555 1_555
H2 N5 1_555 1_555
N6 Pb1 1_555 1_555
N7 N6 1_555 1_555
H3 N7 1_555 1_555
H4 N7 1_555 1_555
C1 N3 1_555 1_555
C2 C1 1_555 1_555
H5 C2 1_555 1_555
C3 C2 1_555 1_555
H6 C3 1_555 1_555
C4 C3 1_555 1_555
H7 C4 1_555 1_555
C5 N3 1_555 1_555
C6 N4 1_555 1_555
C7 C6 1_555 1_555
H8 C7 1_555 1_555
H9 C7 1_555 1_555
H10 C7 1_555 1_555
C8 N6 1_555 1_555
C9 C8 1_555 1_555
H11 C9 1_555 1_555
H12 C9 1_555 1_555
H13 C9 1_555 1_555
O2A N1 1_555 1_555
Pb1A O2A 1_555 1_555
O5A N2 1_555 1_555
Pb1A_2 O5A 1_555 1_555
N1 O3 1_555 1_555
N2 O6 1_555 1_555
C1 C6 1_555 1_555
C4 C5 1_555 1_555
C5 C8 1_555 1_555

#END
