
#######################################################################
#
#                 Cambridge Crystallographic Data Centre
#                                CCDC 
#
#######################################################################
#
# If this CIF has been generated from an entry in the Cambridge 
# Structural Database, then it will include bibliographic, chemical, 
# crystal, experimental, refinement or atomic coordinate data resulting 
# from the CCDC's data processing and validation procedures.
#
#######################################################################

data_NIPWAL
_symmetry_cell_setting           monoclinic
_symmetry_space_group_name_H-M   'C 2/c'
_symmetry_Int_Tables_number      15
_space_group_name_Hall           '-C 2yn'
loop_
_symmetry_equiv_pos_site_id
_symmetry_equiv_pos_as_xyz
1 x,y,z
2 1/2+x,1/2+y,z
3 -x,y,1/2-z
4 1/2-x,1/2+y,1/2-z
5 -x,-y,-z
6 1/2-x,1/2-y,-z
7 x,-y,1/2+z
8 1/2+x,1/2-y,1/2+z
_cell_length_a                   17.618(3)
_cell_length_b                   8.0323(16)
_cell_length_c                   25.068(5)
_cell_angle_alpha                90
_cell_angle_beta                 100.63(3)
_cell_angle_gamma                90
_cell_volume                     3486.57
loop_
_atom_site_label
_atom_site_type_symbol
_atom_site_fract_x
_atom_site_fract_y
_atom_site_fract_z
C1 C 0.12872(16) 0.7288(3) 0.15076(11)
C2 C 0.18693(16) 0.8307(4) 0.17847(11)
H1 H 0.2118 0.9084 0.1588
C3 C 0.20916(16) 0.8197(4) 0.23469(11)
H2 H 0.2490 0.8893 0.2533
C4 C 0.17256(17) 0.7064(4) 0.26327(11)
C5 C 0.11322(17) 0.6054(4) 0.23596(11)
H3 H 0.0876 0.5292 0.2556
C6 C 0.09195(17) 0.6171(4) 0.18004(11)
H4 H 0.0518 0.5480 0.1615
C7 C 0.2501(2) 0.7861(5) 0.34778(13)
H5 H 0.2976 0.7720 0.3331
H6 H 0.2597 0.7536 0.3861
H7 H 0.2340 0.9030 0.3445
C8 C 0.15282(17) 0.9227(4) 0.00751(11)
H8 H 0.0992 0.9310 -0.0128
H9 H 0.1797 0.8339 -0.0092
C9 C 0.19390(16) 1.0859(4) 0.00578(12)
H10 H 0.1659 1.1733 0.0214
H11 H 0.1961 1.1139 -0.0320
H12 H 0.2465 1.0769 0.0268
C10 C 0.01429(16) 0.2361(3) 0.08897(11)
H13 H 0.0560 0.1989 0.0729
C11 C 0.00000(17) 0.1536(3) 0.13446(11)
H14 H 0.0310 0.0620 0.1492
C12 C -0.06101(17) 0.2083(4) 0.15808(11)
C13 C -0.10594(17) 0.3412(4) 0.13462(11)
H15 H -0.1484 0.3800 0.1496
C14 C -0.08727(16) 0.4153(4) 0.08910(11)
H16 H -0.1182 0.5056 0.0731
N1 N -0.02771(13) 0.3665(3) 0.06614(9)
O1 O 0.19028(13) 0.6832(3) 0.31801(8)
O2 O 0.15292(12) 0.8841(2) 0.06464(8)
P1 P 0.10298(4) 0.72840(8) 0.07790(3)
S1 S 0.13607(4) 0.51727(8) 0.04721(3)
S2 S -0.00944(4) 0.76254(8) 0.05112(3)
S3 S -0.08837(5) 0.12316(10) 0.21694(3)
S4 S 0.0000 -0.03112(13) 0.2500
Ni1 Ni 0.0000 0.5000 0.0000
C1D C -0.12872(16) 0.2712(3) -0.15076(11)
C2D C -0.18693(16) 0.1693(4) -0.17847(11)
H1D H -0.2118 0.0916 -0.1588
C3D C -0.20916(16) 0.1803(4) -0.23469(11)
H2D H -0.2490 0.1107 -0.2533
C4D C -0.17256(17) 0.2936(4) -0.26327(11)
C5D C -0.11322(17) 0.3946(4) -0.23596(11)
H3D H -0.0876 0.4708 -0.2556
C6D C -0.09195(17) 0.3829(4) -0.18004(11)
H4D H -0.0518 0.4520 -0.1615
C7D C -0.2501(2) 0.2139(5) -0.34778(13)
H5D H -0.2976 0.2280 -0.3331
H6D H -0.2597 0.2464 -0.3861
H7D H -0.2340 0.0970 -0.3445
C8D C -0.15282(17) 0.0773(4) -0.00751(11)
H8D H -0.0992 0.0690 0.0128
H9D H -0.1797 0.1661 0.0092
C9D C -0.19390(16) -0.0859(4) -0.00578(12)
H10D H -0.1659 -0.1733 -0.0214
H11D H -0.1961 -0.1139 0.0320
H12D H -0.2465 -0.0769 -0.0268
C10B C -0.01429(16) 0.2361(3) 0.41103(11)
H13B H -0.0560 0.1989 0.4271
C11B C 0.00000(17) 0.1536(3) 0.36554(11)
H14B H -0.0310 0.0620 0.3508
C12B C 0.06101(17) 0.2083(4) 0.34192(11)
C13B C 0.10594(17) 0.3412(4) 0.36538(11)
H15B H 0.1484 0.3800 0.3504
C14B C 0.08727(16) 0.4153(4) 0.41090(11)
H16B H 0.1182 0.5056 0.4269
N1B N 0.02771(13) 0.3665(3) 0.43386(9)
N1D N 0.02771(13) 0.6335(3) -0.06614(9)
O1D O -0.19028(13) 0.3168(3) -0.31801(8)
O2D O -0.15292(12) 0.1159(2) -0.06464(8)
P1D P -0.10298(4) 0.27160(8) -0.07790(3)
S1D S -0.13607(4) 0.48273(8) -0.04721(3)
S2D S 0.00944(4) 0.23746(8) -0.05112(3)
S3B S 0.08837(5) 0.12316(10) 0.28306(3)
Ni1F Ni 0.0000 0.5000 0.5000
loop_
_geom_bond_atom_site_label_1
_geom_bond_atom_site_label_2
_geom_bond_site_symmetry_1
_geom_bond_site_symmetry_2
C1 C2 1_555 1_555
C2 H1 1_555 1_555
C3 C2 1_555 1_555
H2 C3 1_555 1_555
C4 C3 1_555 1_555
C5 C4 1_555 1_555
H3 C5 1_555 1_555
C6 C1 1_555 1_555
H4 C6 1_555 1_555
C7 H5 1_555 1_555
H6 C7 1_555 1_555
H7 C7 1_555 1_555
C8 H8 1_555 1_555
H9 C8 1_555 1_555
C9 C8 1_555 1_555
H10 C9 1_555 1_555
H11 C9 1_555 1_555
H12 C9 1_555 1_555
C10 H13 1_555 1_555
C11 C10 1_555 1_555
H14 C11 1_555 1_555
C12 C11 1_555 1_555
C13 C12 1_555 1_555
H15 C13 1_555 1_555
C14 C13 1_555 1_555
H16 C14 1_555 1_555
N1 C10 1_555 1_555
O1 C4 1_555 1_555
O2 C8 1_555 1_555
P1 C1 1_555 1_555
S1 P1 1_555 1_555
S2 P1 1_555 1_555
S3 C12 1_555 1_555
S4 S3 1_555 1_555
Ni1 N1 1_555 1_555
C1D C2D 1_555 1_555
C2D H1D 1_555 1_555
C3D C2D 1_555 1_555
H2D C3D 1_555 1_555
C4D C3D 1_555 1_555
C5D C4D 1_555 1_555
H3D C5D 1_555 1_555
C6D C1D 1_555 1_555
H4D C6D 1_555 1_555
C7D H5D 1_555 1_555
H6D C7D 1_555 1_555
H7D C7D 1_555 1_555
C8D H8D 1_555 1_555
H9D C8D 1_555 1_555
C9D C8D 1_555 1_555
H10D C9D 1_555 1_555
H11D C9D 1_555 1_555
H12D C9D 1_555 1_555
C10B H13B 1_555 1_555
C11B C10B 1_555 1_555
H14B C11B 1_555 1_555
C12B C11B 1_555 1_555
C13B C12B 1_555 1_555
H15B C13B 1_555 1_555
C14B C13B 1_555 1_555
H16B C14B 1_555 1_555
N1B C10B 1_555 1_555
N1D Ni1 1_555 1_555
O1D C4D 1_555 1_555
O2D C8D 1_555 1_555
P1D C1D 1_555 1_555
S1D Ni1 1_555 1_555
S2D Ni1 1_555 1_555
S3B S4 1_555 1_555
Ni1F N1B 1_555 1_555
C5 C6 1_555 1_555
C7 O1 1_555 1_555
C14 N1 1_555 1_555
O2 P1 1_555 1_555
S1 Ni1 1_555 1_555
S2 Ni1 1_555 1_555
C5D C6D 1_555 1_555
C7D O1D 1_555 1_555
C12B S3B 1_555 1_555
C14B N1B 1_555 1_555
O2D P1D 1_555 1_555
P1D S1D 1_555 1_555
P1D S2D 1_555 1_555

#END
