
#######################################################################
#
#                 Cambridge Crystallographic Data Centre
#                                CCDC 
#
#######################################################################
#
# If this CIF has been generated from an entry in the Cambridge 
# Structural Database, then it will include bibliographic, chemical, 
# crystal, experimental, refinement or atomic coordinate data resulting 
# from the CCDC's data processing and validation procedures.
#
#######################################################################

data_NIQGIE
_symmetry_cell_setting           monoclinic
_symmetry_space_group_name_H-M   'P 21/c'
_symmetry_Int_Tables_number      14
_space_group_name_Hall           '-P 2ybc'
loop_
_symmetry_equiv_pos_site_id
_symmetry_equiv_pos_as_xyz
1 x,y,z
2 -x,1/2+y,1/2-z
3 -x,-y,-z
4 x,1/2-y,1/2+z
_cell_length_a                   8.4110(17)
_cell_length_b                   16.329(3)
_cell_length_c                   14.083(3)
_cell_angle_alpha                90
_cell_angle_beta                 100.87(3)
_cell_angle_gamma                90
_cell_volume                     1899.5
loop_
_atom_site_label
_atom_site_type_symbol
_atom_site_fract_x
_atom_site_fract_y
_atom_site_fract_z
Zn1 Zn 0.11543(10) 0.21386(5) 0.54220(5)
O1 O 0.0879(6) 0.3286(3) 0.7024(3)
O2 O 0.2671(6) 0.2883(3) 0.6147(3)
O3 O 0.2286(6) 0.3586(3) 0.9655(3)
O4 O 0.2799(7) 0.2492(3) 0.8833(3)
N1 N -0.0828(8) 0.2607(4) 0.4605(4)
N2 N -0.2745(10) 0.2885(5) 0.3388(6)
N3 N 0.0464(7) 0.1306(3) 0.6335(4)
N4 N 0.0425(8) 0.0561(4) 0.7615(5)
C1 C 0.5666(14) 0.4761(7) 0.7496(8)
H1 H 0.6262 0.5093 0.7156
C2 C 0.4515(10) 0.4271(5) 0.6993(6)
H2 H 0.4353 0.4270 0.6322
C3 C 0.3591(8) 0.3781(4) 0.7441(4)
C4 C 0.3852(8) 0.3766(4) 0.8456(5)
C5 C 0.5051(10) 0.4275(5) 0.8981(6)
H3 H 0.5227 0.4273 0.9653
C6 C 0.5999(12) 0.4792(6) 0.8497(7)
H4 H 0.6798 0.5132 0.8834
C7 C 0.2259(8) 0.3285(4) 0.6859(4)
C8 C 0.2909(8) 0.3233(5) 0.8999(5)
C9 C -0.1283(10) 0.2505(5) 0.3651(6)
H5 H -0.0713 0.2229 0.3245
C10 C -0.3184(13) 0.3235(7) 0.4126(7)
H6 H -0.4129 0.3530 0.4128
C11 C -0.1980(14) 0.3083(7) 0.4892(8)
H7 H -0.1946 0.3275 0.5517
C12 C -0.3286(13) 0.2862(6) 0.2280(8)
H8 H -0.2862 0.2467 0.1922
C13 C -0.4307(12) 0.3378(7) 0.1850(8)
H9 H -0.4734 0.3774 0.2205
H10 H -0.4625 0.3359 0.1181
C14 C 0.0926(8) 0.1266(4) 0.7271(5)
H11 H 0.1520 0.1669 0.7649
C15 C -0.0419(11) 0.0139(6) 0.6833(6)
H12 H -0.0898 -0.0373 0.6848
C16 C -0.0421(10) 0.0598(5) 0.6052(6)
H13 H -0.0927 0.0468 0.5425
C17 C 0.0665(12) 0.0246(7) 0.8540(7)
H14 H 0.0191 -0.0257 0.8626
C18 C 0.1471(12) 0.0584(6) 0.9271(7)
H15 H 0.1964 0.1087 0.9214
H16 H 0.1579 0.0333 0.9873
Zn1C Zn 0.11543(10) 0.28614(5) 1.04220(5)
O3C O 0.2286(6) 0.1414(3) 0.4655(3)
loop_
_geom_bond_atom_site_label_1
_geom_bond_atom_site_label_2
_geom_bond_site_symmetry_1
_geom_bond_site_symmetry_2
Zn1 O2 1_555 1_555
O1 C7 1_555 1_555
O2 C7 1_555 1_555
O3 C8 1_555 1_555
O4 C8 1_555 1_555
N1 Zn1 1_555 1_555
N2 C9 1_555 1_555
N3 Zn1 1_555 1_555
N4 C14 1_555 1_555
C1 H1 1_555 1_555
C2 C1 1_555 1_555
H2 C2 1_555 1_555
C3 C2 1_555 1_555
C4 C3 1_555 1_555
C5 C4 1_555 1_555
H3 C5 1_555 1_555
C6 C1 1_555 1_555
H4 C6 1_555 1_555
C7 C3 1_555 1_555
C8 C4 1_555 1_555
C9 N1 1_555 1_555
H5 C9 1_555 1_555
C10 N2 1_555 1_555
H6 C10 1_555 1_555
C11 N1 1_555 1_555
H7 C11 1_555 1_555
C12 N2 1_555 1_555
H8 C12 1_555 1_555
C13 C12 1_555 1_555
H9 C13 1_555 1_555
H10 C13 1_555 1_555
C14 N3 1_555 1_555
H11 C14 1_555 1_555
C15 N4 1_555 1_555
H12 C15 1_555 1_555
C16 N3 1_555 1_555
H13 C16 1_555 1_555
C17 N4 1_555 1_555
H14 C17 1_555 1_555
C18 C17 1_555 1_555
H15 C18 1_555 1_555
H16 C18 1_555 1_555
Zn1C O3 1_555 1_555
O3C Zn1 1_555 1_555
C5 C6 1_555 1_555
C10 C11 1_555 1_555
C15 C16 1_555 1_555

#END
