
#######################################################################
#
#                 Cambridge Crystallographic Data Centre
#                                CCDC 
#
#######################################################################
#
# If this CIF has been generated from an entry in the Cambridge 
# Structural Database, then it will include bibliographic, chemical, 
# crystal, experimental, refinement or atomic coordinate data resulting 
# from the CCDC's data processing and validation procedures.
#
#######################################################################

data_NIQGUQ
_symmetry_cell_setting           monoclinic
_symmetry_space_group_name_H-M   'P 21/c'
_symmetry_Int_Tables_number      14
_space_group_name_Hall           '-P 2ybc'
loop_
_symmetry_equiv_pos_site_id
_symmetry_equiv_pos_as_xyz
1 x,y,z
2 -x,1/2+y,1/2-z
3 -x,-y,-z
4 x,1/2-y,1/2+z
_cell_length_a                   14.051(3)
_cell_length_b                   8.2084(16)
_cell_length_c                   13.979(3)
_cell_angle_alpha                90
_cell_angle_beta                 103.80(3)
_cell_angle_gamma                90
_cell_volume                     1565.75
loop_
_atom_site_label
_atom_site_type_symbol
_atom_site_fract_x
_atom_site_fract_y
_atom_site_fract_z
Mn1 Mn 0.655818(15) 0.01342(3) 0.319366(15)
C1 C 0.54650(12) 0.1764(2) 0.48789(11)
H1 H 0.5925 0.1506 0.5456
C2 C 0.47557(10) 0.21157(17) 0.33523(10)
C3 C 0.41124(11) 0.26685(17) 0.38842(10)
C4 C 0.47212(10) 0.20023(17) 0.22797(10)
C5 C 0.30854(11) 0.33264(18) 0.36474(11)
C6 C 0.84725(13) 0.2004(2) 0.31644(14)
H2 H 0.8634 0.0935 0.3049
C7 C 0.92054(13) 0.3157(2) 0.33212(14)
H3 H 0.9844 0.2855 0.3322
C8 C 0.89897(12) 0.47683(18) 0.34779(12)
C9 C 0.80176(14) 0.5129(2) 0.34472(18)
H4 H 0.7829 0.6197 0.3523
C10 C 0.73332(13) 0.3891(2) 0.33030(17)
H5 H 0.6689 0.4156 0.3299
C11 C 1.14620(13) 0.6796(2) 0.42065(14)
H6 H 1.2117 0.6482 0.4351
C12 C 1.07570(13) 0.5603(2) 0.39433(14)
H7 H 1.0941 0.4518 0.3922
C13 C 0.97745(12) 0.60229(19) 0.37104(12)
C14 C 0.95562(14) 0.7667(2) 0.37459(17)
H8 H 0.8909 0.8023 0.3585
C15 C 1.03154(15) 0.8763(2) 0.40235(17)
H9 H 1.0156 0.9860 0.4043
N1 N 0.55941(9) 0.15294(16) 0.39850(9)
N2 N 0.45860(10) 0.24189(17) 0.48485(9)
H10 H 0.4357 0.2645 0.5351
N3 N 0.75455(10) 0.23313(16) 0.31690(10)
N4 N 1.12591(11) 0.83635(19) 0.42656(12)
O1 O 0.40748(8) 0.27583(13) 0.16630(7)
O2 O 0.53640(9) 0.11390(15) 0.20466(7)
O3 O 0.27564(8) 0.39872(14) 0.28237(8)
O4 O 0.26300(9) 0.31810(17) 0.43017(9)
O5 O 0.75594(8) -0.06111(14) 0.45556(8)
H11 H 0.7967 0.0042 0.4908
H12 H 0.7548 -0.1473 0.4890
Mn1A Mn 0.344182(15) 0.51342(3) 0.180634(15)
O1A O 0.59252(8) -0.22417(13) 0.33370(7)
O3A O 0.72436(8) -0.10128(14) 0.21763(8)
loop_
_geom_bond_atom_site_label_1
_geom_bond_atom_site_label_2
_geom_bond_site_symmetry_1
_geom_bond_site_symmetry_2
Mn1 N1 1_555 1_555
C1 H1 1_555 1_555
C2 C3 1_555 1_555
C3 C5 1_555 1_555
C4 C2 1_555 1_555
C5 O3 1_555 1_555
C6 H2 1_555 1_555
C7 C6 1_555 1_555
H3 C7 1_555 1_555
C8 C7 1_555 1_555
C9 C8 1_555 1_555
H4 C9 1_555 1_555
C10 C9 1_555 1_555
H5 C10 1_555 1_555
C11 H6 1_555 1_555
C12 C11 1_555 1_555
H7 C12 1_555 1_555
C13 C8 1_555 1_555
C14 C13 1_555 1_555
H8 C14 1_555 1_555
C15 C14 1_555 1_555
H9 C15 1_555 1_555
N1 C1 1_555 1_555
N2 C1 1_555 1_555
H10 N2 1_555 1_555
N3 Mn1 1_555 1_555
N4 C11 1_555 1_555
O1 C4 1_555 1_555
O2 Mn1 1_555 1_555
O3 Mn1A 1_555 1_555
O4 C5 1_555 1_555
O5 Mn1 1_555 1_555
H11 O5 1_555 1_555
H12 O5 1_555 1_555
Mn1A O1 1_555 1_555
O1A Mn1 1_555 1_555
O3A Mn1 1_555 1_555
C2 N1 1_555 1_555
C3 N2 1_555 1_555
C4 O2 1_555 1_555
C6 N3 1_555 1_555
C10 N3 1_555 1_555
C12 C13 1_555 1_555
C15 N4 1_555 1_555

#END
