
#######################################################################
#
#                 Cambridge Crystallographic Data Centre
#                                CCDC 
#
#######################################################################
#
# If this CIF has been generated from an entry in the Cambridge 
# Structural Database, then it will include bibliographic, chemical, 
# crystal, experimental, refinement or atomic coordinate data resulting 
# from the CCDC's data processing and validation procedures.
#
#######################################################################

data_NIQHIF
_symmetry_cell_setting           orthorhombic
_symmetry_space_group_name_H-M   'P b c a'
_symmetry_Int_Tables_number      61
_space_group_name_Hall           '-P 2ac 2ab'
loop_
_symmetry_equiv_pos_site_id
_symmetry_equiv_pos_as_xyz
1 x,y,z
2 1/2-x,-y,1/2+z
3 -x,1/2+y,1/2-z
4 1/2+x,1/2-y,-z
5 -x,-y,-z
6 1/2+x,y,1/2-z
7 x,1/2-y,1/2+z
8 1/2-x,1/2+y,z
_cell_length_a                   14.2014(4)
_cell_length_b                   7.0513(1)
_cell_length_c                   22.1100(5)
_cell_angle_alpha                90
_cell_angle_beta                 90
_cell_angle_gamma                90
_cell_volume                     2214.06
loop_
_atom_site_label
_atom_site_type_symbol
_atom_site_fract_x
_atom_site_fract_y
_atom_site_fract_z
La1 La 0.833810(10) 1.02208(2) 0.554317(6)
O1 O 0.86146(16) 1.0440(3) 0.44571(8)
O2 O 1.00219(14) 0.9173(3) 0.43107(8)
C1 C 0.92144(19) 0.9655(4) 0.41250(12)
C2 C 0.89650(19) 0.9240(4) 0.34781(12)
C3 C 0.8095(2) 0.9761(5) 0.32544(14)
H1 H 0.7667 1.0383 0.3503
C4 C 0.7857(2) 0.9356(5) 0.26579(14)
H2 H 0.7269 0.9697 0.2509
C5 C 0.8497(2) 0.8446(5) 0.22869(13)
C6 C 0.8238(2) 0.7940(5) 0.16472(14)
C7 C 0.9370(2) 0.7938(5) 0.25116(13)
H3 H 0.9803 0.7333 0.2262
C8 C 0.9603(2) 0.8325(5) 0.31042(13)
H4 H 1.0189 0.7971 0.3253
O3 O 0.74602(16) 0.8515(4) 0.14369(9)
O4 O 0.88149(19) 0.6945(4) 0.13534(10)
O5 O 0.66405(13) 0.8794(3) 0.54300(10)
O6 O 0.67149(13) 1.1776(3) 0.51616(9)
C9 C 0.6242(2) 1.0327(5) 0.52874(16)
C10 C 0.5157(2) 1.0426(5) 0.52970(16)
H5 H 0.4907 0.9706 0.5635
H6 H 0.4946 1.1729 0.5331
La1D La 1.166190(10) 0.97792(2) 0.445683(6)
La1A La 0.666190(10) 0.97792(2) 0.054317(6)
La1F La 0.833810(10) 0.47792(2) 0.054317(6)
La1G La 0.666190(10) 0.52208(2) 0.554317(6)
La1G_2 La 0.666190(10) 1.52208(2) 0.554317(6)
La1D_2 La 0.166190(10) 0.97792(2) 0.445683(6)
La1C La 0.333810(10) 1.47792(2) 0.445683(6)
La1C_2 La 0.333810(10) 0.47792(2) 0.445683(6)
La1E La 1.333810(10) 1.02208(2) 0.945683(6)
La1B La 1.166190(10) 1.52208(2) 0.945683(6)
O1D O 1.13854(16) 0.9560(3) 0.55429(8)
O2D O 0.99781(14) 1.0827(3) 0.56893(8)
C1D C 1.07856(19) 1.0345(4) 0.58750(12)
C2D C 1.10350(19) 1.0760(4) 0.65219(12)
C3D C 1.1905(2) 1.0239(5) 0.67456(14)
H1D H 1.2333 0.9617 0.6497
C4D C 1.2143(2) 1.0644(5) 0.73421(14)
H2D H 1.2731 1.0303 0.7491
C5D C 1.1503(2) 1.1554(5) 0.77131(13)
C6D C 1.1762(2) 1.2060(5) 0.83528(14)
C7D C 1.0630(2) 1.2062(5) 0.74884(13)
H3D H 1.0197 1.2667 0.7738
C8D C 1.0397(2) 1.1675(5) 0.68958(13)
H4D H 0.9811 1.2029 0.6747
O3D O 1.25398(16) 1.1485(4) 0.85631(9)
O3A O 0.75398(16) 1.1485(4) 0.64369(9)
O3E O 1.24602(16) 0.8515(4) 0.35631(9)
O4D O 1.11851(19) 1.3055(4) 0.86466(10)
O4F O 0.88149(19) 0.8055(4) 0.63534(10)
O4B O 1.11851(19) 1.1945(4) 0.36466(10)
O5D O 0.33595(13) 1.1206(3) 0.45700(10)
O5G O 0.83595(13) 1.3794(3) 0.54300(10)
O5D_2 O 1.33595(13) 1.1206(3) 0.45700(10)
O5C O 1.16405(13) 0.6206(3) 0.45700(10)
O6D O 0.32851(13) 0.8224(3) 0.48384(9)
O6G O 0.82851(13) 0.6776(3) 0.51616(9)
O6D_2 O 1.32851(13) 0.8224(3) 0.48384(9)
O6C O 1.17149(13) 1.3224(3) 0.48384(9)
C9D C 0.3758(2) 0.9673(5) 0.47126(16)
C10D C 0.4843(2) 0.9574(5) 0.47030(16)
H5D H 0.5093 1.0294 0.4365
H6D H 0.5054 0.8271 0.4669
loop_
_geom_bond_atom_site_label_1
_geom_bond_atom_site_label_2
_geom_bond_site_symmetry_1
_geom_bond_site_symmetry_2
La1 O1 1_555 1_555
O1 C1 1_555 1_555
O2 C1 1_555 1_555
C1 C2 1_555 1_555
C2 C3 1_555 1_555
C3 H1 1_555 1_555
C4 C3 1_555 1_555
H2 C4 1_555 1_555
C5 C4 1_555 1_555
C6 C5 1_555 1_555
C7 C5 1_555 1_555
H3 C7 1_555 1_555
C8 C2 1_555 1_555
H4 C8 1_555 1_555
O3 C6 1_555 1_555
O4 C6 1_555 1_555
O5 La1 1_555 1_555
O6 La1 1_555 1_555
C9 O5 1_555 1_555
C10 C9 1_555 1_555
H5 C10 1_555 1_555
H6 C10 1_555 1_555
La1D O2 1_555 1_555
La1A O3 1_555 1_555
La1F O4 1_555 1_555
La1G O5 1_555 1_555
La1G_2 O6 1_555 1_555
La1D_2 O5D 1_555 1_555
La1C O5D 1_555 1_555
La1C_2 O6D 1_555 1_555
La1E O3D 1_555 1_555
La1B O4D 1_555 1_555
O1D La1D 1_555 1_555
O2D La1 1_555 1_555
C1D O1D 1_555 1_555
C2D C1D 1_555 1_555
C3D C2D 1_555 1_555
H1D C3D 1_555 1_555
C4D C3D 1_555 1_555
H2D C4D 1_555 1_555
C5D C4D 1_555 1_555
C6D C5D 1_555 1_555
C7D C5D 1_555 1_555
H3D C7D 1_555 1_555
C8D C2D 1_555 1_555
H4D C8D 1_555 1_555
O3D C6D 1_555 1_555
O3A La1 1_555 1_555
O3E La1D 1_555 1_555
O4D C6D 1_555 1_555
O4F La1 1_555 1_555
O4B La1D 1_555 1_555
O5D C9D 1_555 1_555
O5G La1 1_555 1_555
O5D_2 La1D 1_555 1_555
O5C La1D 1_555 1_555
O6D La1D_2 1_555 1_555
O6G La1 1_555 1_555
O6D_2 La1D 1_555 1_555
O6C La1D 1_555 1_555
C9D O6D 1_555 1_555
C10D C10 1_555 1_555
H5D C10D 1_555 1_555
H6D C10D 1_555 1_555
C7 C8 1_555 1_555
O6 C9 1_555 1_555
La1G O6G 1_555 1_555
La1G_2 O5G 1_555 1_555
O2D C1D 1_555 1_555
C7D C8D 1_555 1_555
C9D C10D 1_555 1_555

#END
