
#######################################################################
#
#                 Cambridge Crystallographic Data Centre
#                                CCDC 
#
#######################################################################
#
# If this CIF has been generated from an entry in the Cambridge 
# Structural Database, then it will include bibliographic, chemical, 
# crystal, experimental, refinement or atomic coordinate data resulting 
# from the CCDC's data processing and validation procedures.
#
#######################################################################

data_NIQKAA
_symmetry_cell_setting           monoclinic
_symmetry_space_group_name_H-M   'C 2/c'
_symmetry_Int_Tables_number      15
_space_group_name_Hall           '-C 2yn'
loop_
_symmetry_equiv_pos_site_id
_symmetry_equiv_pos_as_xyz
1 x,y,z
2 1/2+x,1/2+y,z
3 -x,y,1/2-z
4 1/2-x,1/2+y,1/2-z
5 -x,-y,-z
6 1/2-x,1/2-y,-z
7 x,-y,1/2+z
8 1/2+x,1/2-y,1/2+z
_cell_length_a                   11.1875(6)
_cell_length_b                   21.4051(15)
_cell_length_c                   20.2455(12)
_cell_angle_alpha                90
_cell_angle_beta                 100.847(1)
_cell_angle_gamma                90
_cell_volume                     4761.56
loop_
_atom_site_label
_atom_site_type_symbol
_atom_site_fract_x
_atom_site_fract_y
_atom_site_fract_z
Cd1 Cd 0.5000 0.450298(13) 0.2500
Cd2 Cd 0.785266(16) 0.558555(9) 0.372822(9)
N1 N 0.4185(2) 0.36355(11) 0.18944(13)
N2 N 0.73872(19) 0.66078(10) 0.33202(11)
N3 N 0.86461(19) 0.63215(11) 0.45773(11)
O1 O 0.63997(18) 0.46118(10) 0.18172(10)
O2 O 0.66807(15) 0.51931(9) 0.27212(9)
O3 O 1.0882(2) 0.46530(13) 0.15096(13)
O4 O 1.01226(19) 0.56006(11) 0.14051(11)
O5 O 0.59517(19) 0.55649(11) 0.41393(12)
O6 O 0.74168(19) 0.49423(10) 0.45879(11)
C1 C 0.7021(2) 0.50054(12) 0.21886(13)
C2 C 0.8143(2) 0.52649(13) 0.19883(13)
H1 H 0.8672 0.5432 0.2384
H2 H 0.7914 0.5607 0.1676
C3 C 0.8840(2) 0.47844(15) 0.16635(17)
H3 H 0.9004 0.4426 0.1960
H4 H 0.8332 0.4644 0.1248
C4 C 1.0029(3) 0.50216(17) 0.15113(14)
C5 C 0.3448(3) 0.36281(16) 0.13045(17)
H5 H 0.3145 0.4007 0.1121
C6 C 0.3099(3) 0.30888(18) 0.09421(18)
H6 H 0.2596 0.3108 0.0521
C7 C 0.3511(3) 0.25281(17) 0.12167(18)
H7 H 0.3290 0.2160 0.0982
C8 C 0.4264(3) 0.25086(14) 0.18520(16)
C9 C 0.4599(2) 0.30787(13) 0.21748(14)
C10 C 0.4661(3) 0.19347(15) 0.21870(16)
H8 H 0.4449 0.1557 0.1970
C11 C 0.6760(3) 0.67523(14) 0.27157(14)
H9 H 0.6429 0.6430 0.2431
C12 C 0.6576(3) 0.73636(16) 0.24886(15)
H10 H 0.6125 0.7445 0.2063
C13 C 0.7060(3) 0.78405(14) 0.28923(16)
H11 H 0.6956 0.8251 0.2741
C14 C 0.7718(2) 0.77134(13) 0.35386(14)
C15 C 0.8255(3) 0.81935(14) 0.39966(17)
H12 H 0.8172 0.8610 0.3864
C16 C 0.8867(3) 0.80530(15) 0.46072(16)
H13 H 0.9198 0.8373 0.4895
C17 C 0.9027(2) 0.74159(14) 0.48317(14)
C18 C 0.9684(3) 0.72468(15) 0.54706(15)
H14 H 1.0030 0.7552 0.5774
C19 C 0.9806(3) 0.66304(16) 0.56400(15)
H15 H 1.0238 0.6511 0.6059
C20 C 0.9279(3) 0.61835(14) 0.51804(14)
H16 H 0.9375 0.5765 0.5302
C21 C 0.8526(2) 0.69322(13) 0.43960(12)
C22 C 0.7853(2) 0.70819(13) 0.37350(13)
C23 C 0.6369(3) 0.51558(15) 0.45537(15)
C24 C 0.5619(3) 0.48871(19) 0.50365(18)
H17 H 0.5593 0.4437 0.4983
H18 H 0.6037 0.4975 0.5492
Cd2B Cd 0.214734(16) 0.558555(9) 0.127178(9)
Cd2B_2 Cd 1.214734(16) 0.558555(9) 0.127178(9)
Cd2D Cd 0.214734(16) 0.441445(9) 0.627178(9)
Cd2_2 Cd -0.214734(16) 0.558555(9) 0.372822(9)
N1B N 0.5815(2) 0.36355(11) 0.31056(13)
N2B N 0.26128(19) 0.66078(10) 0.16798(11)
N3B N 0.13539(19) 0.63215(11) 0.04227(11)
O1B O 0.36003(18) 0.46118(10) 0.31828(10)
O2B O 0.33193(15) 0.51931(9) 0.22788(9)
O3B O -0.0882(2) 0.46530(13) 0.34904(13)
O3B_2 O 0.9118(2) 0.46530(13) 0.34904(13)
O3_2 O 0.0882(2) 0.46530(13) 0.15096(13)
O4B O -0.01226(19) 0.56006(11) 0.35949(11)
O4B_2 O 0.98774(19) 0.56006(11) 0.35949(11)
O4_2 O 0.01226(19) 0.56006(11) 0.14051(11)
O5D O 0.40483(19) 0.44351(11) 0.58607(12)
O5B O 0.40483(19) 0.55649(11) 0.08607(12)
O6D O 0.25832(19) 0.50577(10) 0.54121(11)
O6B O 0.25832(19) 0.49423(10) 0.04121(11)
C1B C 0.2979(2) 0.50054(12) 0.28114(13)
C2B C 0.1857(2) 0.52649(13) 0.30117(13)
H1B H 0.1328 0.5432 0.2616
H2B H 0.2086 0.5607 0.3324
C3B C 0.1160(2) 0.47844(15) 0.33365(17)
H3B H 0.0996 0.4426 0.3040
H4B H 0.1668 0.4644 0.3752
C4B C -0.0029(3) 0.50216(17) 0.34887(14)
C5B C 0.6552(3) 0.36281(16) 0.36955(17)
H5B H 0.6855 0.4007 0.3879
C6B C 0.6901(3) 0.30888(18) 0.40579(18)
H6B H 0.7404 0.3108 0.4479
C7B C 0.6489(3) 0.25281(17) 0.37833(18)
H7B H 0.6710 0.2160 0.4018
C8B C 0.5736(3) 0.25086(14) 0.31480(16)
C9B C 0.5401(2) 0.30787(13) 0.28252(14)
C10B C 0.5339(3) 0.19347(15) 0.28130(16)
H8B H 0.5551 0.1557 0.3030
C11B C 0.3240(3) 0.67523(14) 0.22843(14)
H9B H 0.3571 0.6430 0.2569
C12B C 0.3424(3) 0.73636(16) 0.25114(15)
H10B H 0.3875 0.7445 0.2937
C13B C 0.2940(3) 0.78405(14) 0.21077(16)
H11B H 0.3044 0.8251 0.2259
C14B C 0.2282(2) 0.77134(13) 0.14614(14)
C15B C 0.1745(3) 0.81935(14) 0.10034(17)
H12B H 0.1828 0.8610 0.1136
C16B C 0.1133(3) 0.80530(15) 0.03928(16)
H13B H 0.0802 0.8373 0.0105
C17B C 0.0973(2) 0.74159(14) 0.01683(14)
C18B C 0.0316(3) 0.72468(15) -0.04706(15)
H14B H -0.0030 0.7552 -0.0774
C19B C 0.0194(3) 0.66304(16) -0.06400(15)
H15B H -0.0238 0.6511 -0.1059
C20B C 0.0721(3) 0.61835(14) -0.01804(14)
H16B H 0.0625 0.5765 -0.0302
C21B C 0.1474(2) 0.69322(13) 0.06040(12)
C22B C 0.2147(2) 0.70819(13) 0.12650(13)
C23D C 0.3631(3) 0.48442(15) 0.54463(15)
C24D C 0.4381(3) 0.51129(19) 0.49635(18)
H17D H 0.4407 0.5563 0.5017
H18D H 0.3963 0.5025 0.4508
O7 O 0.3967(2) 0.64187(12) 0.38792(14)
H19 H 0.345(3) 0.630(2) 0.407(2)
H20 H 0.449(3) 0.6154(16) 0.393(2)
O8 O 0.8093(2) 0.39279(12) 0.54661(12)
H21 H 0.870(2) 0.4015(19) 0.5751(16)
H22 H 0.795(4) 0.4228(14) 0.5223(18)
loop_
_geom_bond_atom_site_label_1
_geom_bond_atom_site_label_2
_geom_bond_site_symmetry_1
_geom_bond_site_symmetry_2
Cd1 N1 1_555 1_555
Cd2 N2 1_555 1_555
N1 C5 1_555 1_555
N2 C11 1_555 1_555
N3 Cd2 1_555 1_555
O1 Cd1 1_555 1_555
O2 Cd1 1_555 1_555
O3 C4 1_555 1_555
O4 C4 1_555 1_555
O5 Cd2 1_555 1_555
O6 Cd2 1_555 1_555
C1 O1 1_555 1_555
C2 C1 1_555 1_555
H1 C2 1_555 1_555
H2 C2 1_555 1_555
C3 C2 1_555 1_555
H3 C3 1_555 1_555
H4 C3 1_555 1_555
C4 C3 1_555 1_555
C5 H5 1_555 1_555
C6 C5 1_555 1_555
H6 C6 1_555 1_555
C7 C6 1_555 1_555
H7 C7 1_555 1_555
C8 C7 1_555 1_555
C9 N1 1_555 1_555
C10 C8 1_555 1_555
H8 C10 1_555 1_555
C11 H9 1_555 1_555
C12 C11 1_555 1_555
H10 C12 1_555 1_555
C13 C12 1_555 1_555
H11 C13 1_555 1_555
C14 C13 1_555 1_555
C15 C14 1_555 1_555
H12 C15 1_555 1_555
C16 C15 1_555 1_555
H13 C16 1_555 1_555
C17 C16 1_555 1_555
C18 C17 1_555 1_555
H14 C18 1_555 1_555
C19 C18 1_555 1_555
H15 C19 1_555 1_555
C20 N3 1_555 1_555
H16 C20 1_555 1_555
C21 N3 1_555 1_555
C22 N2 1_555 1_555
C23 O5 1_555 1_555
C24 C23 1_555 1_555
H17 C24 1_555 1_555
H18 C24 1_555 1_555
O7 H19 1_555 1_555
H20 O7 1_555 1_555
O8 H21 1_555 1_555
H22 O8 1_555 1_555
Cd2B N2B 1_555 1_555
Cd2B_2 O3 1_555 1_555
Cd2D O5D 1_555 1_555
Cd2_2 O3B 1_555 1_555
N1B Cd1 1_555 1_555
N2B C11B 1_555 1_555
N3B Cd2B 1_555 1_555
O1B Cd1 1_555 1_555
O2B Cd1 1_555 1_555
O3B C4B 1_555 1_555
O3B_2 Cd2 1_555 1_555
O3_2 Cd2B 1_555 1_555
O4B Cd2_2 1_555 1_555
O4B_2 Cd2 1_555 1_555
O4_2 Cd2B 1_555 1_555
O5D C23D 1_555 1_555
O5B Cd2B 1_555 1_555
O6D Cd2D 1_555 1_555
O6B Cd2B 1_555 1_555
C1B O1B 1_555 1_555
C2B C1B 1_555 1_555
H1B C2B 1_555 1_555
H2B C2B 1_555 1_555
C3B C2B 1_555 1_555
H3B C3B 1_555 1_555
H4B C3B 1_555 1_555
C4B O4B 1_555 1_555
C5B N1B 1_555 1_555
H5B C5B 1_555 1_555
C6B C5B 1_555 1_555
H6B C6B 1_555 1_555
C7B C6B 1_555 1_555
H7B C7B 1_555 1_555
C8B C7B 1_555 1_555
C9B C9 1_555 1_555
C10B C10 1_555 1_555
H8B C10B 1_555 1_555
C11B H9B 1_555 1_555
C12B C11B 1_555 1_555
H10B C12B 1_555 1_555
C13B C12B 1_555 1_555
H11B C13B 1_555 1_555
C14B C13B 1_555 1_555
C15B C14B 1_555 1_555
H12B C15B 1_555 1_555
C16B C15B 1_555 1_555
H13B C16B 1_555 1_555
C17B C16B 1_555 1_555
C18B C17B 1_555 1_555
H14B C18B 1_555 1_555
C19B C18B 1_555 1_555
H15B C19B 1_555 1_555
C20B N3B 1_555 1_555
H16B C20B 1_555 1_555
C21B N3B 1_555 1_555
C22B N2B 1_555 1_555
C23D O6D 1_555 1_555
C24D C24 1_555 1_555
H17D C24D 1_555 1_555
H18D C24D 1_555 1_555
Cd2 O2 1_555 1_555
O2 C1 1_555 1_555
O4 Cd2B_2 1_555 1_555
O6 C23 1_555 1_555
C8 C9 1_555 1_555
C14 C22 1_555 1_555
C17 C21 1_555 1_555
C19 C20 1_555 1_555
C21 C22 1_555 1_555
Cd2B O2B 1_555 1_555
N1B C9B 1_555 1_555
O2B C1B 1_555 1_555
C3B C4B 1_555 1_555
C8B C9B 1_555 1_555
C8B C10B 1_555 1_555
C14B C22B 1_555 1_555
C17B C21B 1_555 1_555
C19B C20B 1_555 1_555
C21B C22B 1_555 1_555
C23D C24D 1_555 1_555

#END
