
#######################################################################
#
#                 Cambridge Crystallographic Data Centre
#                                CCDC 
#
#######################################################################
#
# If this CIF has been generated from an entry in the Cambridge 
# Structural Database, then it will include bibliographic, chemical, 
# crystal, experimental, refinement or atomic coordinate data resulting 
# from the CCDC's data processing and validation procedures.
#
#######################################################################

data_NIQKEE
_symmetry_cell_setting           triclinic
_symmetry_space_group_name_H-M   'P -1'
_symmetry_Int_Tables_number      2
_space_group_name_Hall           '-P 1'
loop_
_symmetry_equiv_pos_site_id
_symmetry_equiv_pos_as_xyz
1 x,y,z
2 -x,-y,-z
_cell_length_a                   8.3044(17)
_cell_length_b                   11.021(2)
_cell_length_c                   12.746(3)
_cell_angle_alpha                89.35(3)
_cell_angle_beta                 86.73(3)
_cell_angle_gamma                82.49(3)
_cell_volume                     1154.65
loop_
_atom_site_label
_atom_site_type_symbol
_atom_site_fract_x
_atom_site_fract_y
_atom_site_fract_z
C1 C 0.4593(6) 0.0099(5) 0.3502(4)
C2 C 0.4835(6) -0.0340(4) 0.4607(4)
H1 H 0.4744 -0.1158 0.4750
C3 C 0.1800(6) 0.0473(4) 0.0722(4)
C4 C 0.0161(6) 0.0255(4) 0.0441(4)
H2 H -0.0706 0.0494 0.0920
C5 C 0.2750(6) 0.3741(4) 0.3041(4)
H3 H 0.2981 0.3115 0.3526
C6 C 0.1994(7) 0.4868(4) 0.3407(4)
H4 H 0.1737 0.4979 0.4122
C7 C 0.1623(6) 0.5819(4) 0.2720(4)
C8 C 0.2041(6) 0.5598(4) 0.1626(4)
C9 C 0.2769(6) 0.4420(4) 0.1324(4)
C10 C 0.3062(6) 0.4128(4) 0.0226(4)
C11 C 0.3919(7) 0.2663(4) -0.1023(4)
H5 H 0.4357 0.1865 -0.1197
C12 C 0.3552(7) 0.3488(4) -0.1829(4)
H6 H 0.3729 0.3224 -0.2522
C13 C 0.2933(6) 0.4686(4) -0.1631(4)
C14 C 0.2685(6) 0.5034(4) -0.0553(4)
C15 C 0.2079(7) 0.6242(4) -0.0196(4)
H7 H 0.1918 0.6868 -0.0690
C16 C 0.1732(7) 0.6510(4) 0.0830(4)
H8 H 0.1285 0.7300 0.1022
C17 C 0.2590(6) 0.5552(4) -0.2513(4)
C18 C 0.3689(6) 0.5503(5) -0.3385(4)
H9 H 0.4610 0.4922 -0.3403
C19 C 0.3443(8) 0.6296(5) -0.4222(4)
H10 H 0.4189 0.6241 -0.4798
C20 C 0.2103(7) 0.7165(5) -0.4208(4)
H11 H 0.1956 0.7715 -0.4763
C21 C 0.0971(7) 0.7223(5) -0.3369(4)
H12 H 0.0047 0.7800 -0.3367
C22 C 0.1207(6) 0.6426(4) -0.2533(4)
H13 H 0.0435 0.6470 -0.1972
C23 C 0.0785(6) 0.7009(4) 0.3128(4)
C24 C 0.1379(7) 0.8109(4) 0.2931(4)
H14 H 0.2331 0.8126 0.2513
C25 C 0.0570(8) 0.9177(5) 0.3352(5)
H15 H 0.0978 0.9913 0.3217
C26 C -0.0836(8) 0.9160(5) 0.3970(5)
H16 H -0.1388 0.9888 0.4242
C27 C -0.1433(7) 0.8071(5) 0.4188(5)
H17 H -0.2372 0.8059 0.4621
C28 C -0.0632(6) 0.6999(4) 0.3762(4)
H18 H -0.1043 0.6264 0.3900
N1 N 0.3158(5) 0.3512(3) 0.2036(3)
N2 N 0.3676(5) 0.2954(3) -0.0021(3)
O1 O 0.4253(6) 0.1240(3) 0.3391(3)
O2 O 0.4774(5) -0.0635(3) 0.2768(3)
O3 O 0.1859(4) 0.1193(3) 0.1493(3)
O4 O 0.3050(5) -0.0021(3) 0.0238(3)
Pb1 Pb 0.46035(2) 0.137456(17) 0.147460(15)
C1A C 0.5407(6) -0.0099(5) 0.6498(4)
C2A C 0.5165(6) 0.0340(4) 0.5393(4)
H1A H 0.5256 0.1158 0.5250
C3A C -0.1800(6) -0.0473(4) -0.0722(4)
C4A C -0.0161(6) -0.0255(4) -0.0441(4)
H2A H 0.0706 -0.0494 -0.0920
C5A C 0.7250(6) -0.3741(4) 0.6959(4)
H3A H 0.7019 -0.3115 0.6474
C6A C 0.8006(7) -0.4868(4) 0.6593(4)
H4A H 0.8263 -0.4979 0.5878
C7A C 0.8377(6) -0.5819(4) 0.7280(4)
C8A C 0.7959(6) -0.5598(4) 0.8374(4)
C9A C 0.7231(6) -0.4420(4) 0.8676(4)
C10A C 0.6938(6) -0.4128(4) 0.9774(4)
C11A C 0.6081(7) -0.2663(4) 1.1023(4)
H5A H 0.5643 -0.1865 1.1197
C12A C 0.6448(7) -0.3488(4) 1.1829(4)
H6A H 0.6271 -0.3224 1.2522
C13A C 0.7067(6) -0.4686(4) 1.1631(4)
C14A C 0.7315(6) -0.5034(4) 1.0553(4)
C15A C 0.7921(7) -0.6242(4) 1.0196(4)
H7A H 0.8082 -0.6868 1.0690
C16A C 0.8268(7) -0.6510(4) 0.9170(4)
H8A H 0.8715 -0.7300 0.8978
C17A C 0.7410(6) -0.5552(4) 1.2513(4)
C18A C 0.6311(6) -0.5503(5) 1.3385(4)
H9A H 0.5390 -0.4922 1.3403
C19A C 0.6557(8) -0.6296(5) 1.4222(4)
H10A H 0.5811 -0.6241 1.4798
C20A C 0.7897(7) -0.7165(5) 1.4208(4)
H11A H 0.8044 -0.7715 1.4763
C21A C 0.9029(7) -0.7223(5) 1.3369(4)
H12A H 0.9953 -0.7800 1.3367
C22A C 0.8793(6) -0.6426(4) 1.2533(4)
H13A H 0.9565 -0.6470 1.1972
C23A C 0.9215(6) -0.7009(4) 0.6872(4)
C24A C 0.8621(7) -0.8109(4) 0.7069(4)
H14A H 0.7669 -0.8126 0.7487
C25A C 0.9430(8) -0.9177(5) 0.6648(5)
H15A H 0.9022 -0.9913 0.6783
C26A C 1.0836(8) -0.9160(5) 0.6030(5)
H16A H 1.1388 -0.9888 0.5758
C27A C 1.1433(7) -0.8071(5) 0.5812(5)
H17A H 1.2372 -0.8059 0.5379
C28A C 1.0632(6) -0.6999(4) 0.6238(4)
H18A H 1.1043 -0.6264 0.6100
N1A N 0.6842(5) -0.3512(3) 0.7964(3)
N2A N 0.6324(5) -0.2954(3) 1.0021(3)
O1A O 0.5747(6) -0.1240(3) 0.6609(3)
O2A O 0.5226(5) 0.0635(3) 0.7232(3)
O3A O -0.1859(4) -0.1193(3) -0.1493(3)
O3A_2 O 0.8141(4) -0.1193(3) 0.8507(3)
O4A O -0.3050(5) 0.0021(3) -0.0238(3)
O4A_2 O 0.6950(5) 0.0021(3) 0.9762(3)
Pb1A Pb 0.53965(2) -0.137456(17) 0.852540(15)
Pb1A_2 Pb -0.46035(2) -0.137456(17) -0.147460(15)
loop_
_geom_bond_atom_site_label_1
_geom_bond_atom_site_label_2
_geom_bond_site_symmetry_1
_geom_bond_site_symmetry_2
C1 C2 1_555 1_555
C2 H1 1_555 1_555
C3 C4 1_555 1_555
C4 H2 1_555 1_555
C5 H3 1_555 1_555
C6 C5 1_555 1_555
H4 C6 1_555 1_555
C7 C6 1_555 1_555
C8 C7 1_555 1_555
C9 C8 1_555 1_555
C10 C9 1_555 1_555
C11 H5 1_555 1_555
C12 C11 1_555 1_555
H6 C12 1_555 1_555
C13 C12 1_555 1_555
C14 C10 1_555 1_555
C15 C14 1_555 1_555
H7 C15 1_555 1_555
C16 C8 1_555 1_555
H8 C16 1_555 1_555
C17 C13 1_555 1_555
C18 C17 1_555 1_555
H9 C18 1_555 1_555
C19 C18 1_555 1_555
H10 C19 1_555 1_555
C20 C19 1_555 1_555
H11 C20 1_555 1_555
C21 C20 1_555 1_555
H12 C21 1_555 1_555
C22 C17 1_555 1_555
H13 C22 1_555 1_555
C23 C7 1_555 1_555
C24 C23 1_555 1_555
H14 C24 1_555 1_555
C25 C24 1_555 1_555
H15 C25 1_555 1_555
C26 C25 1_555 1_555
H16 C26 1_555 1_555
C27 C26 1_555 1_555
H17 C27 1_555 1_555
C28 C23 1_555 1_555
H18 C28 1_555 1_555
N1 C5 1_555 1_555
N2 C10 1_555 1_555
O1 C1 1_555 1_555
O2 C1 1_555 1_555
O3 C3 1_555 1_555
O4 C3 1_555 1_555
Pb1 N1 1_555 1_555
C1A C2A 1_555 1_555
C2A C2 1_555 1_555
H1A C2A 1_555 1_555
C3A C4A 1_555 1_555
C4A C4 1_555 1_555
H2A C4A 1_555 1_555
C5A H3A 1_555 1_555
C6A C5A 1_555 1_555
H4A C6A 1_555 1_555
C7A C6A 1_555 1_555
C8A C7A 1_555 1_555
C9A C8A 1_555 1_555
C10A C9A 1_555 1_555
C11A H5A 1_555 1_555
C12A C11A 1_555 1_555
H6A C12A 1_555 1_555
C13A C12A 1_555 1_555
C14A C10A 1_555 1_555
C15A C14A 1_555 1_555
H7A C15A 1_555 1_555
C16A C8A 1_555 1_555
H8A C16A 1_555 1_555
C17A C13A 1_555 1_555
C18A C17A 1_555 1_555
H9A C18A 1_555 1_555
C19A C18A 1_555 1_555
H10A C19A 1_555 1_555
C20A C19A 1_555 1_555
H11A C20A 1_555 1_555
C21A C20A 1_555 1_555
H12A C21A 1_555 1_555
C22A C17A 1_555 1_555
H13A C22A 1_555 1_555
C23A C7A 1_555 1_555
C24A C23A 1_555 1_555
H14A C24A 1_555 1_555
C25A C24A 1_555 1_555
H15A C25A 1_555 1_555
C26A C25A 1_555 1_555
H16A C26A 1_555 1_555
C27A C26A 1_555 1_555
H17A C27A 1_555 1_555
C28A C23A 1_555 1_555
H18A C28A 1_555 1_555
N1A C5A 1_555 1_555
N2A C10A 1_555 1_555
O1A C1A 1_555 1_555
O2A C1A 1_555 1_555
O3A C3A 1_555 1_555
O3A_2 Pb1A 1_555 1_555
O4A C3A 1_555 1_555
O4A_2 Pb1A 1_555 1_555
Pb1A N1A 1_555 1_555
Pb1A_2 O3A 1_555 1_555
C9 N1 1_555 1_555
C11 N2 1_555 1_555
C13 C14 1_555 1_555
C15 C16 1_555 1_555
C21 C22 1_555 1_555
C27 C28 1_555 1_555
N2 Pb1 1_555 1_555
O1 Pb1 1_555 1_555
O2 Pb1 1_555 1_555
O3 Pb1 1_555 1_555
O4 Pb1 1_555 1_555
C9A N1A 1_555 1_555
C11A N2A 1_555 1_555
C13A C14A 1_555 1_555
C15A C16A 1_555 1_555
C21A C22A 1_555 1_555
C27A C28A 1_555 1_555
N2A Pb1A 1_555 1_555
O1A Pb1A 1_555 1_555
O2A Pb1A 1_555 1_555
O4A Pb1A_2 1_555 1_555

#END
