
#######################################################################
#
#                 Cambridge Crystallographic Data Centre
#                                CCDC 
#
#######################################################################
#
# If this CIF has been generated from an entry in the Cambridge 
# Structural Database, then it will include bibliographic, chemical, 
# crystal, experimental, refinement or atomic coordinate data resulting 
# from the CCDC's data processing and validation procedures.
#
#######################################################################

data_NIQREM
_symmetry_cell_setting           orthorhombic
_symmetry_space_group_name_H-M   'P n a 21'
_symmetry_Int_Tables_number      33
_space_group_name_Hall           'P 2c -2n'
loop_
_symmetry_equiv_pos_site_id
_symmetry_equiv_pos_as_xyz
1 x,y,z
2 -x,-y,1/2+z
3 1/2-x,1/2+y,1/2+z
4 1/2+x,1/2-y,z
_cell_length_a                   9.3569(17)
_cell_length_b                   14.609(3)
_cell_length_c                   16.563(3)
_cell_angle_alpha                90
_cell_angle_beta                 90
_cell_angle_gamma                90
_cell_volume                     2264.08
loop_
_atom_site_label
_atom_site_type_symbol
_atom_site_fract_x
_atom_site_fract_y
_atom_site_fract_z
N1 N 0.7390(8) 0.8676(5) 0.6230(5)
N2 N 0.3176(9) 1.0339(6) 0.2772(5)
C1 C 0.3929(9) 0.9962(6) 0.3204(6)
Pt1 Pt 0.38903(3) 0.902234(19) 0.49897(3)
Co1 Co -0.15805(13) 0.96914(8) 0.68407(7)
S1 S 0.3120(3) 0.86594(17) 0.62868(15)
S2 S 0.5079(2) 0.94204(18) 0.38119(15)
C2 C -0.3659(10) 1.2528(7) 0.5786(6)
H1 H -0.4003 1.3079 0.5584
C3 C -0.2590(10) 1.2531(6) 0.6354(6)
H2 H -0.2195 1.3080 0.6532
C4 C -0.4225(10) 1.1715(7) 0.5513(6)
H3 H -0.4964 1.1707 0.5137
N3 N -0.2616(8) 1.0889(5) 0.6380(5)
C5 C -0.2103(9) 1.1687(7) 0.6664(5)
N4 N -0.0130(8) 0.8994(6) 0.7610(5)
C6 C -0.3652(9) 1.0902(7) 0.5820(6)
H4 H -0.4004 1.0348 0.5628
C7 C 0.1552(11) 0.9154(7) 0.8682(7)
H5 H 0.2043 0.9528 0.9042
N5 N -0.0084(8) 0.9819(5) 0.5883(5)
C8 C -0.0968(10) 1.1610(7) 0.7295(6)
C9 C 0.0709(10) 1.2122(7) 0.8262(6)
H6 H 0.1185 1.2598 0.8522
C10 C 0.0345(9) 1.0536(7) 0.8028(6)
C11 C -0.0319(10) 1.2330(7) 0.7695(6)
H7 H -0.0568 1.2933 0.7585
C12 C 0.0998(10) 0.7668(8) 0.8183(7)
H8 H 0.1103 0.7035 0.8198
C13 C 0.0622(10) 0.9531(7) 0.8127(6)
C14 C 0.1744(11) 0.8223(8) 0.8697(7)
H9 H 0.2388 0.7968 0.9061
N6 N -0.0603(9) 1.0737(5) 0.7457(5)
C15 C 0.1047(10) 1.1242(8) 0.8455(6)
H10 H 0.1717 1.1111 0.8853
C16 C 0.3289(9) 0.9698(7) 0.6702(5)
N7 N 0.3430(11) 1.0412(7) 0.7014(5)
S3 S 0.2121(2) 1.00850(17) 0.47369(13)
C17 C 0.0823(10) 0.9907(7) 0.5433(6)
C18 C 0.0075(11) 0.8085(7) 0.7635(6)
H11 H -0.0419 0.7718 0.7271
S4 S 0.5601(2) 0.78521(16) 0.5081(2)
C19 C 0.6641(10) 0.8341(6) 0.5770(6)
N1_2 N -0.2610(8) 0.8676(5) 0.6230(5)
N2A N -0.3176(9) 0.9661(6) 0.7772(5)
Co1_2 Co 0.84195(13) 0.96914(8) 0.68407(7)
Co1A Co 0.15805(13) 1.03086(8) 0.18407(7)
loop_
_geom_bond_atom_site_label_1
_geom_bond_atom_site_label_2
_geom_bond_site_symmetry_1
_geom_bond_site_symmetry_2
N1 C19 1_555 1_555
N2 C1 1_555 1_555
C1 S2 1_555 1_555
Pt1 S1 1_555 1_555
Co1 N3 1_555 1_555
S1 C16 1_555 1_555
S2 Pt1 1_555 1_555
C2 H1 1_555 1_555
C3 C2 1_555 1_555
H2 C3 1_555 1_555
C4 C2 1_555 1_555
H3 C4 1_555 1_555
N3 C5 1_555 1_555
C5 C3 1_555 1_555
N4 Co1 1_555 1_555
C6 C4 1_555 1_555
H4 C6 1_555 1_555
C7 H5 1_555 1_555
N5 Co1 1_555 1_555
C8 C5 1_555 1_555
C9 H6 1_555 1_555
C10 C13 1_555 1_555
C11 C8 1_555 1_555
H7 C11 1_555 1_555
C12 H8 1_555 1_555
C13 N4 1_555 1_555
C14 C7 1_555 1_555
H9 C14 1_555 1_555
N6 Co1 1_555 1_555
C15 C9 1_555 1_555
H10 C15 1_555 1_555
C16 N7 1_555 1_555
S3 Pt1 1_555 1_555
C17 N5 1_555 1_555
C18 N4 1_555 1_555
H11 C18 1_555 1_555
S4 Pt1 1_555 1_555
C19 S4 1_555 1_555
N1_2 Co1 1_555 1_555
N2A Co1 1_555 1_555
Co1_2 N1 1_555 1_555
Co1A N2 1_555 1_555
N3 C6 1_555 1_555
C7 C13 1_555 1_555
C8 N6 1_555 1_555
C9 C11 1_555 1_555
C10 N6 1_555 1_555
C10 C15 1_555 1_555
C12 C14 1_555 1_555
C12 C18 1_555 1_555
S3 C17 1_555 1_555

#END
