
#######################################################################
#
#                 Cambridge Crystallographic Data Centre
#                                CCDC 
#
#######################################################################
#
# If this CIF has been generated from an entry in the Cambridge 
# Structural Database, then it will include bibliographic, chemical, 
# crystal, experimental, refinement or atomic coordinate data resulting 
# from the CCDC's data processing and validation procedures.
#
#######################################################################

data_NIQWOB
_symmetry_cell_setting           triclinic
_symmetry_space_group_name_H-M   'P 1'
_symmetry_Int_Tables_number      1
_space_group_name_Hall           'P 1'
loop_
_symmetry_equiv_pos_site_id
_symmetry_equiv_pos_as_xyz
1 x,y,z
_cell_length_a                   11.632(3)
_cell_length_b                   12.699(4)
_cell_length_c                   13.603(5)
_cell_angle_alpha                95.315(14)
_cell_angle_beta                 104.618(19)
_cell_angle_gamma                113.660(18)
_cell_volume                     1737.74
loop_
_atom_site_label
_atom_site_type_symbol
_atom_site_fract_x
_atom_site_fract_y
_atom_site_fract_z
Ag1 Ag 0.06557(13) 0.59972(13) 0.39068(11)
S1 S 0.0297(3) 0.5236(3) 0.2149(3)
O1 O 0.1090(8) 0.3884(8) 0.0597(7)
O2 O 0.2851(8) 0.5134(8) 0.0249(8)
N1 N 0.1934(9) 0.6740(8) 0.0006(8)
H1 H 0.1630 0.7296 0.0051
H2 H 0.1734 0.6413 -0.0675
H3 H 0.2827 0.7082 0.0315
C1 C 0.1506(9) 0.6366(9) 0.1675(8)
C2 C 0.1290(10) 0.5799(8) 0.0549(7)
H4 H 0.0351 0.5418 0.0205
C3 C 0.1809(10) 0.4875(9) 0.0468(9)
C4 C 0.1175(12) 0.7422(9) 0.1669(10)
H5 H 0.1773 0.8027 0.1424
H6 H 0.1246 0.7730 0.2365
H7 H 0.0285 0.7161 0.1221
C5 C 0.2911(9) 0.6767(11) 0.2388(9)
H8 H 0.3556 0.7342 0.2153
H9 H 0.3083 0.6089 0.2413
H10 H 0.2964 0.7101 0.3070
Ag2 Ag 0.76591(13) 0.38087(12) 0.24684(11)
S2 S 0.8386(3) 0.2278(3) 0.2287(3)
O3 O 0.5591(9) -0.1717(8) 0.0316(8)
O4 O 0.4217(7) -0.1202(7) 0.0906(7)
N2 N 0.7232(9) 0.0468(9) 0.0380(8)
H11 H 0.7811 0.1243 0.0511
H12 H 0.6798 0.0201 -0.0317
H13 H 0.7683 0.0046 0.0597
C6 C 0.6956(9) 0.0838(8) 0.2129(8)
C7 C 0.6258(9) 0.0328(8) 0.0946(8)
H14 H 0.5802 0.0784 0.0702
C8 C 0.5285(9) -0.0979(9) 0.0698(9)
C9 C 0.7437(11) 0.0026(10) 0.2668(10)
H15 H 0.6715 -0.0717 0.2617
H16 H 0.7920 0.0398 0.3388
H17 H 0.8015 -0.0101 0.2329
C10 C 0.5994(12) 0.1034(12) 0.2628(11)
H18 H 0.5257 0.0291 0.2548
H19 H 0.5682 0.1549 0.2300
H20 H 0.6447 0.1384 0.3356
Ag3 Ag 0.14022(13) 0.40548(13) 0.27614(12)
S3 S 0.6983(3) 0.5249(3) 0.3023(3)
O5 O 0.6572(8) 0.3692(7) 0.0530(7)
O6 O 0.7387(8) 0.5312(7) -0.0094(7)
N3 N 0.5495(9) 0.5906(9) 0.0162(7)
H21 H 0.5038 0.6234 0.0424
H22 H 0.4959 0.5396 -0.0457
H23 H 0.6207 0.6483 0.0064
C11 C 0.6715(9) 0.6087(8) 0.2005(7)
C12 C 0.5959(10) 0.5251(9) 0.0917(7)
H24 H 0.5206 0.4611 0.0987
C13 C 0.6734(11) 0.4720(10) 0.0437(9)
C14 C 0.5886(12) 0.6665(11) 0.2290(11)
H25 H 0.5707 0.7126 0.1804
H26 H 0.6352 0.7161 0.2975
H27 H 0.5066 0.6049 0.2289
C15 C 0.8075(10) 0.7045(9) 0.2085(10)
H28 H 0.7949 0.7489 0.1568
H29 H 0.8626 0.6689 0.1952
H30 H 0.8493 0.7560 0.2763
Ag4 Ag 0.48331(13) 0.40534(12) 0.30835(12)
S4 S 0.2717(3) 0.3043(3) 0.3284(3)
O7 O 0.0798(8) -0.0280(8) 0.0377(7)
O8 O -0.0943(7) -0.0486(7) 0.0909(6)
N4 N 0.1660(9) 0.2063(8) 0.0782(8)
H31 H 0.1054 0.1946 0.0159
H32 H 0.2271 0.1830 0.0677
H33 H 0.2069 0.2842 0.1097
C16 C 0.1918(9) 0.1500(8) 0.2534(7)
C17 C 0.0980(9) 0.1364(9) 0.1458(7)
H34 H 0.0354 0.1616 0.1607
C18 C 0.0192(10) 0.0070(9) 0.0848(9)
C19 C 0.2999(11) 0.1121(11) 0.2465(10)
H35 H 0.2598 0.0321 0.2082
H36 H 0.3501 0.1178 0.3163
H37 H 0.3575 0.1622 0.2133
C20 C 0.1112(11) 0.0757(10) 0.3167(9)
H38 H 0.0671 -0.0055 0.2807
H39 H 0.0468 0.1014 0.3261
H40 H 0.1708 0.0841 0.3835
Ag5 Ag -0.10233(13) 0.51425(13) 0.54844(12)
S5 S 0.1115(3) 0.6724(3) 0.5689(3)
O9 O 0.2187(8) 1.0538(7) 0.7580(7)
O10 O 0.0049(8) 0.9578(8) 0.7452(8)
N5 N 0.2369(9) 0.8464(9) 0.7768(7)
H41 H 0.2424 0.8671 0.8443
H42 H 0.3089 0.8998 0.7642
H43 H 0.2342 0.7737 0.7647
C21 C 0.0966(10) 0.8111(8) 0.5901(8)
C22 C 0.1128(10) 0.8444(10) 0.7057(7)
H44 H 0.0383 0.7820 0.7153
C23 C 0.1120(10) 0.9628(9) 0.7403(9)
C24 C -0.0387(10) 0.7978(12) 0.5255(10)
H45 H -0.0425 0.8718 0.5385
H46 H -0.1076 0.7387 0.5440
H47 H -0.0504 0.7750 0.4531
C25 C 0.2022(11) 0.9057(10) 0.5559(10)
H48 H 0.1939 0.9778 0.5673
H49 H 0.1894 0.8815 0.4835
H50 H 0.2887 0.9180 0.5966
Ag6 Ag -0.39882(13) 0.52567(13) 0.53060(12)
S6 S -0.3275(3) 0.3727(3) 0.5147(3)
O11 O -0.0927(8) 0.5098(8) 0.7812(7)
O12 O -0.2143(9) 0.6056(8) 0.7272(7)
N6 N -0.3167(9) 0.3541(8) 0.8197(7)
H51 H -0.3904 0.2857 0.8094
H52 H -0.3108 0.4085 0.8716
H53 H -0.2437 0.3408 0.8377
C26 C -0.3493(9) 0.3055(8) 0.6277(7)
C27 C -0.3254(10) 0.3994(9) 0.7207(8)
H54 H -0.4000 0.4172 0.7041
C28 C -0.1993(10) 0.5153(9) 0.7458(10)
C29 C -0.2548(10) 0.2484(10) 0.6545(9)
H55 H -0.2661 0.2139 0.7134
H56 H -0.1654 0.3078 0.6716
H57 H -0.2733 0.1884 0.5964
C30 C -0.4923(10) 0.2081(11) 0.5923(11)
H58 H -0.5081 0.1700 0.6485
H59 H -0.5074 0.1510 0.5331
H60 H -0.5512 0.2438 0.5739
Ag7 Ag -0.72684(13) 0.51725(13) 0.52968(12)
S7 S -0.5248(3) 0.6347(3) 0.4987(3)
O13 O -0.3148(8) 0.9370(8) 0.8304(7)
O14 O -0.5089(8) 0.9376(8) 0.7513(7)
N7 N -0.4141(10) 0.7023(9) 0.7483(7)
H61 H -0.4406 0.6317 0.7055
H62 H -0.4403 0.6900 0.8056
H63 H -0.3243 0.7427 0.7682
C31 C -0.4477(9) 0.7825(8) 0.5864(7)
C32 C -0.4758(10) 0.7731(8) 0.6910(7)
H64 H -0.5703 0.7338 0.6744
C33 C -0.4285(10) 0.8936(10) 0.7639(8)
C34 C -0.5127(13) 0.8533(12) 0.5317(10)
H65 H -0.4749 0.9308 0.5750
H66 H -0.6067 0.8165 0.5187
H67 H -0.4946 0.8592 0.4669
C35 C -0.2997(10) 0.8402(12) 0.6007(10)
H68 H -0.2581 0.9168 0.6461
H69 H -0.2885 0.8478 0.5338
H70 H -0.2597 0.7924 0.6300
Ag8 Ag -1.04439(13) 0.31143(13) 0.40802(11)
S8 S -0.9118(3) 0.3972(3) 0.5830(3)
O15 O -0.5724(8) 0.4078(8) 0.8375(7)
O16 O -0.6434(9) 0.5306(8) 0.7643(8)
N8 N -0.8041(9) 0.2512(8) 0.8236(7)
H71 H -0.8882 0.1937 0.8082
H72 H -0.7724 0.2860 0.8925
H73 H -0.7518 0.2189 0.8087
C36 C -0.8714(9) 0.2856(8) 0.6425(7)
C37 C -0.8042(9) 0.3420(8) 0.7599(7)
H74 H -0.8555 0.3794 0.7778
C38 C -0.6596(10) 0.4350(10) 0.7893(10)
C39 C -0.9982(9) 0.1739(9) 0.6225(10)
H75 H -0.9789 0.1148 0.6522
H76 H -1.0427 0.1444 0.5490
H77 H -1.0541 0.1930 0.6546
C40 C -0.7750(11) 0.2576(11) 0.5973(10)
H78 H -0.7539 0.2004 0.6292
H79 H -0.6954 0.3289 0.6108
H80 H -0.8154 0.2272 0.5236
S1_2 S 1.0297(3) 0.5236(3) 0.2149(3)
Ag2_2 Ag -0.23409(13) 0.38087(12) 0.24684(11)
S2_2 S -1.1614(3) 0.2278(3) 0.2287(3)
Ag8_2 Ag 0.95561(13) 0.31143(13) 0.40802(11)
O17 O 0.3863(8) 0.2279(8) 0.0157(8)
H81 H 0.4620 0.2683 0.0163
H82 H 0.3639 0.1609 -0.0156
O18 O 0.2934(7) -0.0152(8) -0.0240(6)
H83 H 0.2357 -0.0076 -0.0041
H84 H 0.3395 -0.0297 0.0241
O19 O 0.4990(8) 0.1412(8) -0.1583(7)
H85 H 0.4222 0.0990 -0.1944
H86 H 0.5458 0.1170 -0.1796
O20 O 0.8274(8) 0.2780(8) -0.0146(7)
H87 H 0.8082 0.3312 0.0014
H88 H 0.9071 0.3020 0.0142
O21 O 0.9620(8) 0.1027(7) -0.1275(7)
H89 H 1.0144 0.0839 -0.1458
H90 H 0.8901 0.0444 -0.1474
O22 O 0.7562(7) -0.2505(7) -0.0508(7)
H91 H 0.7800 -0.3000 -0.0318
H92 H 0.6818 -0.2698 -0.0462
O23 O 1.0174(9) -0.2417(8) -0.0943(8)
H93 H 0.9376 -0.2743 -0.1251
H94 H 1.0390 -0.1710 -0.0784
O24 O 1.1776(9) -0.3865(9) -0.1987(8)
H95 H 1.2272 -0.3949 -0.2288
H96 H 1.1036 -0.4403 -0.2282
loop_
_geom_bond_atom_site_label_1
_geom_bond_atom_site_label_2
_geom_bond_site_symmetry_1
_geom_bond_site_symmetry_2
Ag1 S1 1_555 1_555
S1 C1 1_555 1_555
O1 C3 1_555 1_555
O2 C3 1_555 1_555
N1 H1 1_555 1_555
H2 N1 1_555 1_555
H3 N1 1_555 1_555
C1 C2 1_555 1_555
C2 N1 1_555 1_555
H4 C2 1_555 1_555
C3 C2 1_555 1_555
C4 C1 1_555 1_555
H5 C4 1_555 1_555
H6 C4 1_555 1_555
H7 C4 1_555 1_555
C5 C1 1_555 1_555
H8 C5 1_555 1_555
H9 C5 1_555 1_555
H10 C5 1_555 1_555
Ag2 S2 1_555 1_555
S2 C6 1_555 1_555
O3 C8 1_555 1_555
O4 C8 1_555 1_555
N2 H11 1_555 1_555
H12 N2 1_555 1_555
H13 N2 1_555 1_555
C6 C7 1_555 1_555
C7 N2 1_555 1_555
H14 C7 1_555 1_555
C8 C7 1_555 1_555
C9 C6 1_555 1_555
H15 C9 1_555 1_555
H16 C9 1_555 1_555
H17 C9 1_555 1_555
C10 C6 1_555 1_555
H18 C10 1_555 1_555
H19 C10 1_555 1_555
H20 C10 1_555 1_555
Ag3 S1 1_555 1_555
S3 Ag2 1_555 1_555
O5 Ag2 1_555 1_555
O6 C13 1_555 1_555
N3 H21 1_555 1_555
H22 N3 1_555 1_555
H23 N3 1_555 1_555
C11 S3 1_555 1_555
C12 N3 1_555 1_555
H24 C12 1_555 1_555
C13 O5 1_555 1_555
C14 C11 1_555 1_555
H25 C14 1_555 1_555
H26 C14 1_555 1_555
H27 C14 1_555 1_555
C15 C11 1_555 1_555
H28 C15 1_555 1_555
H29 C15 1_555 1_555
H30 C15 1_555 1_555
Ag4 S3 1_555 1_555
S4 Ag3 1_555 1_555
O7 C18 1_555 1_555
O8 C18 1_555 1_555
N4 H31 1_555 1_555
H32 N4 1_555 1_555
H33 N4 1_555 1_555
C16 S4 1_555 1_555
C17 N4 1_555 1_555
H34 C17 1_555 1_555
C18 C17 1_555 1_555
C19 C16 1_555 1_555
H35 C19 1_555 1_555
H36 C19 1_555 1_555
H37 C19 1_555 1_555
C20 C16 1_555 1_555
H38 C20 1_555 1_555
H39 C20 1_555 1_555
H40 C20 1_555 1_555
Ag5 S5 1_555 1_555
S5 Ag1 1_555 1_555
O9 C23 1_555 1_555
O10 C23 1_555 1_555
N5 H41 1_555 1_555
H42 N5 1_555 1_555
H43 N5 1_555 1_555
C21 S5 1_555 1_555
C22 N5 1_555 1_555
H44 C22 1_555 1_555
C23 C22 1_555 1_555
C24 C21 1_555 1_555
H45 C24 1_555 1_555
H46 C24 1_555 1_555
H47 C24 1_555 1_555
C25 C21 1_555 1_555
H48 C25 1_555 1_555
H49 C25 1_555 1_555
H50 C25 1_555 1_555
Ag6 S6 1_555 1_555
S6 Ag5 1_555 1_555
O11 C28 1_555 1_555
O12 C28 1_555 1_555
N6 H51 1_555 1_555
H52 N6 1_555 1_555
H53 N6 1_555 1_555
C26 S6 1_555 1_555
C27 N6 1_555 1_555
H54 C27 1_555 1_555
C28 C27 1_555 1_555
C29 C26 1_555 1_555
H55 C29 1_555 1_555
H56 C29 1_555 1_555
H57 C29 1_555 1_555
C30 C26 1_555 1_555
H58 C30 1_555 1_555
H59 C30 1_555 1_555
H60 C30 1_555 1_555
Ag7 S7 1_555 1_555
S7 Ag6 1_555 1_555
O13 C33 1_555 1_555
O14 C33 1_555 1_555
N7 H61 1_555 1_555
H62 N7 1_555 1_555
H63 N7 1_555 1_555
C31 S7 1_555 1_555
C32 N7 1_555 1_555
H64 C32 1_555 1_555
C33 C32 1_555 1_555
C34 C31 1_555 1_555
H65 C34 1_555 1_555
H66 C34 1_555 1_555
H67 C34 1_555 1_555
C35 C31 1_555 1_555
H68 C35 1_555 1_555
H69 C35 1_555 1_555
H70 C35 1_555 1_555
Ag8 S8 1_555 1_555
S8 Ag7 1_555 1_555
O15 C38 1_555 1_555
O16 C38 1_555 1_555
N8 H71 1_555 1_555
H72 N8 1_555 1_555
H73 N8 1_555 1_555
C36 S8 1_555 1_555
C37 N8 1_555 1_555
H74 C37 1_555 1_555
C38 C37 1_555 1_555
C39 C36 1_555 1_555
H75 C39 1_555 1_555
H76 C39 1_555 1_555
H77 C39 1_555 1_555
C40 C36 1_555 1_555
H78 C40 1_555 1_555
H79 C40 1_555 1_555
H80 C40 1_555 1_555
O17 H81 1_555 1_555
H82 O17 1_555 1_555
O18 H83 1_555 1_555
H84 O18 1_555 1_555
O19 H85 1_555 1_555
H86 O19 1_555 1_555
O20 H87 1_555 1_555
H88 O20 1_555 1_555
O21 H89 1_555 1_555
H90 O21 1_555 1_555
O22 H91 1_555 1_555
H92 O22 1_555 1_555
O23 H93 1_555 1_555
H94 O23 1_555 1_555
O24 H95 1_555 1_555
H96 O24 1_555 1_555
S1_2 Ag2 1_555 1_555
Ag2_2 S1 1_555 1_555
S2_2 Ag8 1_555 1_555
Ag8_2 S2 1_555 1_555
C11 C12 1_555 1_555
C12 C13 1_555 1_555
Ag4 S4 1_555 1_555
C16 C17 1_555 1_555
C21 C22 1_555 1_555
C26 C27 1_555 1_555
C31 C32 1_555 1_555
C36 C37 1_555 1_555

#END
