
#######################################################################
#
#                 Cambridge Crystallographic Data Centre
#                                CCDC 
#
#######################################################################
#
# If this CIF has been generated from an entry in the Cambridge 
# Structural Database, then it will include bibliographic, chemical, 
# crystal, experimental, refinement or atomic coordinate data resulting 
# from the CCDC's data processing and validation procedures.
#
#######################################################################

data_NIQWOA
_symmetry_cell_setting           monoclinic
_symmetry_space_group_name_H-M   'C 2/c'
_symmetry_Int_Tables_number      15
_space_group_name_Hall           '-C 2yn'
loop_
_symmetry_equiv_pos_site_id
_symmetry_equiv_pos_as_xyz
1 x,y,z
2 1/2+x,1/2+y,z
3 -x,y,1/2-z
4 1/2-x,1/2+y,1/2-z
5 -x,-y,-z
6 1/2-x,1/2-y,-z
7 x,-y,1/2+z
8 1/2+x,1/2-y,1/2+z
_cell_length_a                   20.9203(19)
_cell_length_b                   21.295(2)
_cell_length_c                   8.1553(8)
_cell_angle_alpha                90
_cell_angle_beta                 104.149(1)
_cell_angle_gamma                90
_cell_volume                     3522.95
loop_
_atom_site_label
_atom_site_type_symbol
_atom_site_fract_x
_atom_site_fract_y
_atom_site_fract_z
Er1 Er 0.0000 0.286068(11) -0.2500
Er2 Er 0.0000 0.207737(11) 0.2500
O1 O 0.03360(15) 0.35226(14) -0.0038(4)
O2 O 0.06559(15) 0.28775(12) 0.2149(4)
O3 O -0.09534(15) 0.16647(14) 0.0661(4)
O4 O -0.05676(14) 0.24656(14) -0.0475(3)
O5 O -0.06811(15) 0.21025(12) -0.3784(4)
O6 O -0.04653(16) 0.14925(14) -0.5796(4)
O7 O 0.08921(17) 0.35709(16) -0.2627(4)
H1 H 0.1042 0.3822 -0.1812
H2 H 0.1056 0.3568 -0.3483
C1 C 0.0780(2) 0.39592(19) 0.2697(5)
C2 C 0.0360(2) 0.44492(19) 0.2913(5)
C3 C 0.0629(2) 0.4955(2) 0.3965(6)
H3 H 0.0358 0.5286 0.4112
C4 C 0.1290(3) 0.4967(2) 0.4785(6)
H4 H 0.1461 0.5310 0.5457
C5 C 0.1697(3) 0.4476(2) 0.4613(6)
H5 H 0.2139 0.4481 0.5188
C6 C 0.1440(2) 0.3975(2) 0.3575(6)
H6 H 0.1714 0.3643 0.3463
C7 C 0.0566(2) 0.34130(19) 0.1496(6)
C8 C -0.1672(2) 0.2098(2) -0.1767(6)
C9 C -0.2079(3) 0.2597(2) -0.1626(6)
H7 H -0.1921 0.2913 -0.0845
C10 C -0.2720(3) 0.2636(3) -0.2632(7)
H8 H -0.2995 0.2966 -0.2502
C11 C -0.2937(3) 0.2176(3) -0.3821(7)
H9 H -0.3359 0.2202 -0.4525
C12 C -0.2537(2) 0.1673(2) -0.3985(6)
H10 H -0.2697 0.1366 -0.4792
C13 C -0.1897(2) 0.1619(2) -0.2959(5)
C14 C -0.1518(2) 0.1043(2) -0.3118(5)
C15 C -0.1762(3) 0.0473(2) -0.2683(6)
H11 H -0.2135 0.0477 -0.2254
C16 C -0.1473(3) -0.0094(2) -0.2866(6)
H12 H -0.1645 -0.0464 -0.2548
C17 C -0.0926(3) -0.0112(2) -0.3524(7)
H13 H -0.0719 -0.0491 -0.3625
C18 C -0.0690(3) 0.0440(2) -0.4027(6)
H14 H -0.0332 0.0426 -0.4513
C19 C -0.0969(2) 0.1018(2) -0.3835(5)
C20 C -0.1019(2) 0.20617(19) -0.0487(6)
C21 C -0.0687(2) 0.15816(19) -0.4508(5)
Er1_2 Er 0.0000 0.286068(11) 0.7500
Er2_2 Er 0.0000 0.207737(11) -0.7500
O1B O -0.03360(15) 0.35226(14) 0.5038(4)
O1B_2 O -0.03360(15) 0.35226(14) -0.4962(4)
O2B O -0.06559(15) 0.28775(12) 0.2851(4)
O3B O 0.09534(15) 0.16647(14) -0.5661(4)
O3B_2 O 0.09534(15) 0.16647(14) 0.4339(4)
O4B O 0.05676(14) 0.24656(14) -0.4525(3)
O4B_2 O 0.05676(14) 0.24656(14) 0.5475(3)
O5B O 0.06811(15) 0.21025(12) -0.1216(4)
O6B O 0.04653(16) 0.14925(14) 0.0796(4)
O6_2 O -0.04653(16) 0.14925(14) 0.4204(4)
O7B O -0.08921(17) 0.35709(16) -0.2373(4)
H1B H -0.1042 0.3822 -0.3188
H2B H -0.1056 0.3568 -0.1517
C1B C -0.0780(2) 0.39592(19) 0.2303(5)
C2B C -0.0360(2) 0.44492(19) 0.2087(5)
C3B C -0.0629(2) 0.4955(2) 0.1035(6)
H3B H -0.0358 0.5286 0.0888
C4B C -0.1290(3) 0.4967(2) 0.0215(6)
H4B H -0.1461 0.5310 -0.0457
C5B C -0.1697(3) 0.4476(2) 0.0387(6)
H5B H -0.2139 0.4481 -0.0188
C6B C -0.1440(2) 0.3975(2) 0.1425(6)
H6B H -0.1714 0.3643 0.1537
C7B C -0.0566(2) 0.34130(19) 0.3504(6)
C8B C 0.1672(2) 0.2098(2) -0.3233(6)
C9B C 0.2079(3) 0.2597(2) -0.3374(6)
H7B H 0.1921 0.2913 -0.4155
C10B C 0.2720(3) 0.2636(3) -0.2368(7)
H8B H 0.2995 0.2966 -0.2498
C11B C 0.2937(3) 0.2176(3) -0.1179(7)
H9B H 0.3359 0.2202 -0.0475
C12B C 0.2537(2) 0.1673(2) -0.1015(6)
H10B H 0.2697 0.1366 -0.0208
C13B C 0.1897(2) 0.1619(2) -0.2041(5)
C14B C 0.1518(2) 0.1043(2) -0.1882(5)
C15B C 0.1762(3) 0.0473(2) -0.2317(6)
H11B H 0.2135 0.0477 -0.2746
C16B C 0.1473(3) -0.0094(2) -0.2134(6)
H12B H 0.1645 -0.0464 -0.2452
C17B C 0.0926(3) -0.0112(2) -0.1476(7)
H13B H 0.0719 -0.0491 -0.1375
C18B C 0.0690(3) 0.0440(2) -0.0973(6)
H14B H 0.0332 0.0426 -0.0487
C19B C 0.0969(2) 0.1018(2) -0.1165(5)
C20B C 0.1019(2) 0.20617(19) -0.4513(6)
C21B C 0.0687(2) 0.15816(19) -0.0492(5)
loop_
_geom_bond_atom_site_label_1
_geom_bond_atom_site_label_2
_geom_bond_site_symmetry_1
_geom_bond_site_symmetry_2
Er1 O1 1_555 1_555
Er2 O2 1_555 1_555
O1 C7 1_555 1_555
O2 C7 1_555 1_555
O3 Er2 1_555 1_555
O4 Er1 1_555 1_555
O5 Er1 1_555 1_555
O6 C21 1_555 1_555
O7 Er1 1_555 1_555
H1 O7 1_555 1_555
H2 O7 1_555 1_555
C1 C2 1_555 1_555
C2 C3 1_555 1_555
C3 H3 1_555 1_555
C4 C3 1_555 1_555
H4 C4 1_555 1_555
C5 C4 1_555 1_555
H5 C5 1_555 1_555
C6 C1 1_555 1_555
H6 C6 1_555 1_555
C7 C1 1_555 1_555
C8 C9 1_555 1_555
C9 H7 1_555 1_555
C10 C9 1_555 1_555
H8 C10 1_555 1_555
C11 C10 1_555 1_555
H9 C11 1_555 1_555
C12 C11 1_555 1_555
H10 C12 1_555 1_555
C13 C8 1_555 1_555
C14 C13 1_555 1_555
C15 C14 1_555 1_555
H11 C15 1_555 1_555
C16 C15 1_555 1_555
H12 C16 1_555 1_555
C17 C16 1_555 1_555
H13 C17 1_555 1_555
C18 C17 1_555 1_555
H14 C18 1_555 1_555
C19 C14 1_555 1_555
C20 O3 1_555 1_555
C21 O5 1_555 1_555
Er1_2 O1B 1_555 1_555
Er2_2 O6 1_555 1_555
O1B C7B 1_555 1_555
O1B_2 Er1 1_555 1_555
O2B Er2 1_555 1_555
O3B Er2_2 1_555 1_555
O3B_2 Er2 1_555 1_555
O4B Er1 1_555 1_555
O4B_2 Er2 1_555 1_555
O5B Er1 1_555 1_555
O6B Er2 1_555 1_555
O6_2 Er2 1_555 1_555
O7B Er1 1_555 1_555
H1B O7B 1_555 1_555
H2B O7B 1_555 1_555
C1B C2B 1_555 1_555
C2B C2 1_555 1_555
C3B C2B 1_555 1_555
H3B C3B 1_555 1_555
C4B C3B 1_555 1_555
H4B C4B 1_555 1_555
C5B C4B 1_555 1_555
H5B C5B 1_555 1_555
C6B C1B 1_555 1_555
H6B C6B 1_555 1_555
C7B O2B 1_555 1_555
C8B C9B 1_555 1_555
C9B H7B 1_555 1_555
C10B C9B 1_555 1_555
H8B C10B 1_555 1_555
C11B C10B 1_555 1_555
H9B C11B 1_555 1_555
C12B C11B 1_555 1_555
H10B C12B 1_555 1_555
C13B C8B 1_555 1_555
C14B C13B 1_555 1_555
C15B C14B 1_555 1_555
H11B C15B 1_555 1_555
C16B C15B 1_555 1_555
H12B C16B 1_555 1_555
C17B C16B 1_555 1_555
H13B C17B 1_555 1_555
C18B C17B 1_555 1_555
H14B C18B 1_555 1_555
C19B C14B 1_555 1_555
C20B O3B 1_555 1_555
C21B O5B 1_555 1_555
Er2 O4 1_555 1_555
O4 C20 1_555 1_555
C5 C6 1_555 1_555
C8 C20 1_555 1_555
C12 C13 1_555 1_555
C18 C19 1_555 1_555
C19 C21 1_555 1_555
Er1_2 O4B_2 1_555 1_555
Er2_2 O4B 1_555 1_555
O4B C20B 1_555 1_555
O6B C21B 1_555 1_555
C1B C7B 1_555 1_555
C5B C6B 1_555 1_555
C8B C20B 1_555 1_555
C12B C13B 1_555 1_555
C18B C19B 1_555 1_555
C19B C21B 1_555 1_555

#END
