
#######################################################################
#
#                 Cambridge Crystallographic Data Centre
#                                CCDC 
#
#######################################################################
#
# If this CIF has been generated from an entry in the Cambridge 
# Structural Database, then it will include bibliographic, chemical, 
# crystal, experimental, refinement or atomic coordinate data resulting 
# from the CCDC's data processing and validation procedures.
#
#######################################################################

data_NIRBOG
_symmetry_cell_setting           rhombohedral
_symmetry_space_group_name_H-M   'R -3'
_symmetry_Int_Tables_number      148
_space_group_name_Hall           '-R 3'
loop_
_symmetry_equiv_pos_site_id
_symmetry_equiv_pos_as_xyz
1 x,y,z
2 -y,x-y,z
3 -x+y,-x,z
4 2/3+x,1/3+y,1/3+z
5 2/3-y,1/3+x-y,1/3+z
6 2/3-x+y,1/3-x,1/3+z
7 1/3+x,2/3+y,2/3+z
8 1/3-y,2/3+x-y,2/3+z
9 1/3-x+y,2/3-x,2/3+z
10 -x,-y,-z
11 y,-x+y,-z
12 x-y,x,-z
13 1/3-x,2/3-y,2/3-z
14 1/3+y,2/3-x+y,2/3-z
15 1/3+x-y,2/3+x,2/3-z
16 2/3-x,1/3-y,1/3-z
17 2/3+y,1/3-x+y,1/3-z
18 2/3+x-y,1/3+x,1/3-z
_cell_length_a                   13.854(2)
_cell_length_b                   13.854(2)
_cell_length_c                   17.222(3)
_cell_angle_alpha                90
_cell_angle_beta                 90
_cell_angle_gamma                120.00
_cell_volume                     2862.63
loop_
_atom_site_label
_atom_site_type_symbol
_atom_site_fract_x
_atom_site_fract_y
_atom_site_fract_z
Ni1 Ni 0.6667 0.3333 0.3333
N1 N 0.8113(4) 0.4267(4) 0.2644(2)
N2 N 0.9218(5) 0.5161(4) 0.1665(3)
C1 C 0.8167(6) 0.4609(5) 0.1903(3)
H1 H 0.7555 0.4477 0.1602
C2 C 0.9877(6) 0.5165(6) 0.2252(4)
H2 H 1.0648 0.5482 0.2245
C3 C 0.9178(5) 0.4611(5) 0.2853(4)
H3 H 0.9399 0.4488 0.3335
C4 C 0.9575(8) 0.5582(6) 0.0869(4)
H4 H 1.0226 0.6321 0.0889
H5 H 0.8984 0.5634 0.0605
C5 C 0.9853(8) 0.4794(7) 0.0418(4)
H6 H 1.0478 0.4779 0.0660
H7 H 0.9218 0.4043 0.0424
Ni1C Ni 1.3334 0.6666 -0.3334
Ni1C_2 Ni 0.3334 0.6666 -0.3334
Ni1C_3 Ni 0.3334 -0.3334 -0.3334
N1I N 1.1887(4) 0.5733(4) -0.2644(2)
N1A N 0.5733(4) 0.3846(6) 0.2644(2)
N1J N 0.4267(4) 0.6154(6) -0.2644(2)
N1B N 0.6154(6) 0.1887(4) 0.2644(2)
N1K N 0.3846(6) -0.1887(4) -0.2644(2)
N1L N 0.5220(4) 0.2400(4) 0.4023(2)
N1M N 0.7600(4) 0.2821(6) 0.4023(2)
N1N N 0.7179(6) 0.4780(4) 0.4023(2)
N2I N 1.0782(5) 0.4839(4) -0.1665(3)
N2A N 0.4839(4) 0.4057(6) 0.1665(3)
N2J N 0.5161(4) 0.5943(6) -0.1665(3)
N2B N 0.5943(6) 0.0782(5) 0.1665(3)
N2K N 0.4057(6) -0.0782(5) -0.1665(3)
C1I C 1.1833(6) 0.5391(5) -0.1903(3)
C1A C 0.5391(5) 0.3558(8) 0.1903(3)
C1J C 0.4609(5) 0.6442(8) -0.1903(3)
C1B C 0.6442(8) 0.1833(6) 0.1903(3)
C1K C 0.3558(8) -0.1833(6) -0.1903(3)
H1I H 1.2445 0.5523 -0.1602
H1A H 0.5523 0.3078 0.1602
H1J H 0.4477 0.6922 -0.1602
H1B H 0.6922 0.2445 0.1602
H1K H 0.3078 -0.2445 -0.1602
C2I C 1.0123(6) 0.4835(6) -0.2252(4)
C2A C 0.4835(6) 0.4712(8) 0.2252(4)
C2J C 0.5165(6) 0.5288(8) -0.2252(4)
C2B C 0.5288(8) 0.0123(6) 0.2252(4)
C2K C 0.4712(8) -0.0123(6) -0.2252(4)
H2I H 0.9352 0.4518 -0.2245
H2A H 0.4518 0.5166 0.2245
H2J H 0.5482 0.4834 -0.2245
H2B H 0.4834 -0.0648 0.2245
H2K H 0.5166 0.0648 -0.2245
C3I C 1.0822(5) 0.5389(5) -0.2853(4)
C3A C 0.5389(5) 0.4567(7) 0.2853(4)
C3J C 0.4611(5) 0.5433(7) -0.2853(4)
C3B C 0.5433(7) 0.0822(5) 0.2853(4)
C3K C 0.4567(7) -0.0822(5) -0.2853(4)
H3I H 1.0601 0.5512 -0.3335
H3A H 0.5512 0.4911 0.3335
H3J H 0.4488 0.5089 -0.3335
H3B H 0.5089 0.0601 0.3335
H3K H 0.4911 -0.0601 -0.3335
C4I C 1.0425(8) 0.4418(6) -0.0869(4)
C4A C 0.4418(6) 0.3993(10) 0.0869(4)
C4J C 0.5582(6) 0.6007(10) -0.0869(4)
C4B C 0.6007(10) 0.0425(8) 0.0869(4)
C4K C 0.3993(10) -0.0425(8) -0.0869(4)
H4I H 0.9774 0.3679 -0.0889
H4A H 0.3679 0.3905 0.0889
H4J H 0.6321 0.6095 -0.0889
H4B H 0.6095 -0.0226 0.0889
H4K H 0.3905 0.0226 -0.0889
H5I H 1.1016 0.4366 -0.0605
H5A H 0.4366 0.3350 0.0605
H5J H 0.5634 0.6650 -0.0605
H5B H 0.6650 0.1016 0.0605
H5K H 0.3350 -0.1016 -0.0605
C5I C 1.0147(8) 0.5206(7) -0.0418(4)
C5A C 0.5206(7) 0.5059(11) 0.0418(4)
C5J C 0.4794(7) 0.4941(11) -0.0418(4)
C5B C 0.4941(11) 0.0147(8) 0.0418(4)
C5K C 0.5059(11) -0.0147(8) -0.0418(4)
H6I H 0.9522 0.5221 -0.0660
H6A H 0.5221 0.5699 0.0660
H6J H 0.4779 0.4301 -0.0660
H6B H 0.4301 -0.0478 0.0660
H6K H 0.5699 0.0478 -0.0660
H7I H 1.0782 0.5957 -0.0424
H7A H 0.5957 0.5175 0.0424
H7J H 0.4043 0.4825 -0.0424
H7B H 0.4825 0.0782 0.0424
H7K H 0.5175 -0.0782 -0.0424
N3 N 1.0000 0.0000 0.3305(7)
O1 O 0.9361(17) 0.0383(18) 0.3307(7)
O1A O 0.9617(18) -0.1022(25) 0.3307(7)
O1B O 1.1022(25) 0.0639(17) 0.3307(7)
loop_
_geom_bond_atom_site_label_1
_geom_bond_atom_site_label_2
_geom_bond_site_symmetry_1
_geom_bond_site_symmetry_2
Ni1 N1 1_555 1_555
N1 C1 1_555 1_555
N2 C1 1_555 1_555
N3 O1 1_555 1_555
C1 H1 1_555 1_555
C2 N2 1_555 1_555
H2 C2 1_555 1_555
C3 N1 1_555 1_555
H3 C3 1_555 1_555
C4 N2 1_555 1_555
H4 C4 1_555 1_555
H5 C4 1_555 1_555
C5 C4 1_555 1_555
H6 C5 1_555 1_555
H7 C5 1_555 1_555
Ni1C N1I 1_555 1_555
Ni1C_2 N1J 1_555 1_555
Ni1C_3 N1K 1_555 1_555
N1I C1I 1_555 1_555
N1A Ni1 1_555 1_555
N1J C1J 1_555 1_555
N1B Ni1 1_555 1_555
N1K C1K 1_555 1_555
N1L Ni1 1_555 1_555
N1M Ni1 1_555 1_555
N1N Ni1 1_555 1_555
N2I C1I 1_555 1_555
N2A C1A 1_555 1_555
N2J C1J 1_555 1_555
N2B C1B 1_555 1_555
N2K C1K 1_555 1_555
O1A N3 1_555 1_555
O1B N3 1_555 1_555
C1I H1I 1_555 1_555
C1A N1A 1_555 1_555
C1J H1J 1_555 1_555
C1B N1B 1_555 1_555
C1K H1K 1_555 1_555
H1A C1A 1_555 1_555
H1B C1B 1_555 1_555
C2I N2I 1_555 1_555
C2A N2A 1_555 1_555
C2J N2J 1_555 1_555
C2B N2B 1_555 1_555
C2K N2K 1_555 1_555
H2I C2I 1_555 1_555
H2A C2A 1_555 1_555
H2J C2J 1_555 1_555
H2B C2B 1_555 1_555
H2K C2K 1_555 1_555
C3I N1I 1_555 1_555
C3A N1A 1_555 1_555
C3J N1J 1_555 1_555
C3B N1B 1_555 1_555
C3K N1K 1_555 1_555
H3I C3I 1_555 1_555
H3A C3A 1_555 1_555
H3J C3J 1_555 1_555
H3B C3B 1_555 1_555
H3K C3K 1_555 1_555
C4I N2I 1_555 1_555
C4A N2A 1_555 1_555
C4J N2J 1_555 1_555
C4B N2B 1_555 1_555
C4K N2K 1_555 1_555
H4I C4I 1_555 1_555
H4A C4A 1_555 1_555
H4J C4J 1_555 1_555
H4B C4B 1_555 1_555
H4K C4K 1_555 1_555
H5I C4I 1_555 1_555
H5A C4A 1_555 1_555
H5J C4J 1_555 1_555
H5B C4B 1_555 1_555
H5K C4K 1_555 1_555
C5I C5 1_555 1_555
C5A C4A 1_555 1_555
C5J C4J 1_555 1_555
C5B C4B 1_555 1_555
C5K C4K 1_555 1_555
H6I C5I 1_555 1_555
H6A C5A 1_555 1_555
H6J C5J 1_555 1_555
H6B C5B 1_555 1_555
H6K C5K 1_555 1_555
H7I C5I 1_555 1_555
H7A C5A 1_555 1_555
H7J C5J 1_555 1_555
H7B C5B 1_555 1_555
H7K C5K 1_555 1_555
C2 C3 1_555 1_555
C2I C3I 1_555 1_555
C2A C3A 1_555 1_555
C2J C3J 1_555 1_555
C2B C3B 1_555 1_555
C2K C3K 1_555 1_555
C4I C5I 1_555 1_555
C5A C5J 1_555 1_555
C5B C5K 1_555 1_555

#END
