
#######################################################################
#
#                 Cambridge Crystallographic Data Centre
#                                CCDC 
#
#######################################################################
#
# If this CIF has been generated from an entry in the Cambridge 
# Structural Database, then it will include bibliographic, chemical, 
# crystal, experimental, refinement or atomic coordinate data resulting 
# from the CCDC's data processing and validation procedures.
#
#######################################################################

data_NIRDEY
_symmetry_cell_setting           triclinic
_symmetry_space_group_name_H-M   'P -1'
_symmetry_Int_Tables_number      2
_space_group_name_Hall           '-P 1'
loop_
_symmetry_equiv_pos_site_id
_symmetry_equiv_pos_as_xyz
1 x,y,z
2 -x,-y,-z
_cell_length_a                   8.514(5)
_cell_length_b                   9.242(5)
_cell_length_c                   10.409(5)
_cell_angle_alpha                89.302(6)
_cell_angle_beta                 76.287(6)
_cell_angle_gamma                86.998(6)
_cell_volume                     794.608
loop_
_atom_site_label
_atom_site_type_symbol
_atom_site_fract_x
_atom_site_fract_y
_atom_site_fract_z
Ni1 Ni 0.5000 0.5000 0.5000
N1 N 0.9450(3) 0.2846(2) 0.5183(2)
N2 N 0.7348(3) 0.4143(2) 0.4826(2)
O1 O 0.4267(2) 0.37459(19) 0.66399(17)
O2 O 0.4160(3) 0.5303(2) 0.82745(18)
O3 O 0.2606(3) -0.0556(2) 1.1469(2)
H1 H 0.2502 -0.1307 1.1092
O4 O 0.4496(2) 0.32614(18) 0.38435(18)
H2 H 0.4855 0.3568 0.3094
C1 C 0.4045(3) 0.4050(3) 0.7849(3)
C2 C 0.3601(3) 0.2849(3) 0.8806(3)
C3 C 0.3467(4) 0.3033(3) 1.0153(3)
H4 H 0.3609 0.3940 1.0473
C4 C 0.3128(4) 0.1889(3) 1.1021(3)
H5 H 0.3042 0.2035 1.1917
C5 C 0.2912(4) 0.0529(3) 1.0574(3)
C6 C 0.3022(4) 0.0342(3) 0.9238(3)
H6 H 0.2854 -0.0560 0.8923
C7 C 0.3375(4) 0.1476(3) 0.8378(3)
H7 H 0.3467 0.1322 0.7481
C8 C 0.7876(3) 0.3240(3) 0.5633(3)
H8 H 0.7235 0.2912 0.6423
C9 C 0.8665(4) 0.4338(3) 0.3805(3)
H9 H 0.8668 0.4930 0.3076
C10 C 0.9957(4) 0.3547(3) 0.4013(3)
H10 H 1.0994 0.3491 0.3463
C11 C 1.0420(4) 0.1802(3) 0.5781(3)
H11 H 0.9851 0.1620 0.6688
H12 H 1.1440 0.2213 0.5797
C12 C 1.0754(4) 0.0379(3) 0.5030(3)
H13 H 1.1362 0.0562 0.4136
H14 H 1.1424 -0.0261 0.5448
C13 C 0.5141(4) 0.1826(3) 0.3953(3)
H15 H 0.6298 0.1803 0.3647
H16 H 0.4703 0.1184 0.3425
H17 H 0.4857 0.1524 0.4860
Ni1_2 Ni 1.5000 -0.5000 0.5000
N1A N 1.0550(3) -0.2846(2) 0.4817(2)
N2A N 1.2652(3) -0.4143(2) 0.5174(2)
N2A_2 N 0.2652(3) 0.5857(2) 0.5174(2)
O1A O 0.5733(2) 0.62541(19) 0.33601(17)
O2A O 0.5840(3) 0.4697(2) 0.17255(18)
O3A O 0.7394(3) 1.0556(2) -0.1469(2)
H1A H 0.7498 1.1307 -0.1092
O4A O 0.5504(2) 0.67386(18) 0.61565(18)
H2A H 0.5145 0.6432 0.6906
C1A C 0.5955(3) 0.5950(3) 0.2151(3)
C2A C 0.6399(3) 0.7151(3) 0.1194(3)
C3A C 0.6533(4) 0.6967(3) -0.0153(3)
H4A H 0.6391 0.6060 -0.0473
C4A C 0.6872(4) 0.8111(3) -0.1021(3)
H5A H 0.6958 0.7965 -0.1917
C5A C 0.7088(4) 0.9471(3) -0.0574(3)
C6A C 0.6978(4) 0.9658(3) 0.0762(3)
H6A H 0.7146 1.0560 0.1077
C7A C 0.6625(4) 0.8524(3) 0.1622(3)
H7A H 0.6533 0.8678 0.2519
C8A C 1.2124(3) -0.3240(3) 0.4367(3)
H8A H 1.2765 -0.2912 0.3577
C9A C 1.1335(4) -0.4338(3) 0.6195(3)
H9A H 1.1332 -0.4930 0.6924
C10A C 1.0043(4) -0.3547(3) 0.5987(3)
H10A H 0.9006 -0.3491 0.6537
C11A C 0.9580(4) -0.1802(3) 0.4219(3)
H11A H 1.0149 -0.1620 0.3312
H12A H 0.8560 -0.2213 0.4203
C12A C 0.9246(4) -0.0379(3) 0.4970(3)
H13A H 0.8638 -0.0562 0.5864
H14A H 0.8576 0.0261 0.4552
C13A C 0.4859(4) 0.8174(3) 0.6047(3)
H15A H 0.3702 0.8197 0.6353
H16A H 0.5297 0.8816 0.6575
H17A H 0.5143 0.8476 0.5140
O5 O 0.7647(3) 0.3097(3) 0.9608(3)
H3 H 0.7002 0.3556 1.0190
C14 C 0.9186(6) 0.3193(6) 0.9790(6)
H18 H 0.9559 0.4141 0.9538
H19 H 0.9899 0.2478 0.9254
H20 H 0.9176 0.3026 1.0704
loop_
_geom_bond_atom_site_label_1
_geom_bond_atom_site_label_2
_geom_bond_site_symmetry_1
_geom_bond_site_symmetry_2
Ni1 N2 1_555 1_555
N1 C8 1_555 1_555
N2 C8 1_555 1_555
O1 Ni1 1_555 1_555
O2 C1 1_555 1_555
O3 H1 1_555 1_555
O4 Ni1 1_555 1_555
H2 O4 1_555 1_555
O5 H3 1_555 1_555
C1 O1 1_555 1_555
C2 C1 1_555 1_555
C3 C2 1_555 1_555
H4 C3 1_555 1_555
C4 C3 1_555 1_555
H5 C4 1_555 1_555
C5 O3 1_555 1_555
C6 C5 1_555 1_555
H6 C6 1_555 1_555
C7 C2 1_555 1_555
H7 C7 1_555 1_555
C8 H8 1_555 1_555
C9 N2 1_555 1_555
H9 C9 1_555 1_555
C10 N1 1_555 1_555
H10 C10 1_555 1_555
C11 N1 1_555 1_555
H11 C11 1_555 1_555
H12 C11 1_555 1_555
C12 C11 1_555 1_555
H13 C12 1_555 1_555
H14 C12 1_555 1_555
C13 O4 1_555 1_555
H15 C13 1_555 1_555
H16 C13 1_555 1_555
H17 C13 1_555 1_555
C14 O5 1_555 1_555
H18 C14 1_555 1_555
H19 C14 1_555 1_555
H20 C14 1_555 1_555
Ni1_2 N2A 1_555 1_555
N1A C8A 1_555 1_555
N2A C8A 1_555 1_555
N2A_2 Ni1 1_555 1_555
O1A Ni1 1_555 1_555
O2A C1A 1_555 1_555
O3A H1A 1_555 1_555
O4A Ni1 1_555 1_555
H2A O4A 1_555 1_555
C1A O1A 1_555 1_555
C2A C1A 1_555 1_555
C3A C2A 1_555 1_555
H4A C3A 1_555 1_555
C4A C3A 1_555 1_555
H5A C4A 1_555 1_555
C5A O3A 1_555 1_555
C6A C5A 1_555 1_555
H6A C6A 1_555 1_555
C7A C2A 1_555 1_555
H7A C7A 1_555 1_555
C8A H8A 1_555 1_555
C9A N2A 1_555 1_555
H9A C9A 1_555 1_555
C10A N1A 1_555 1_555
H10A C10A 1_555 1_555
C11A N1A 1_555 1_555
H11A C11A 1_555 1_555
H12A C11A 1_555 1_555
C12A C12 1_555 1_555
H13A C12A 1_555 1_555
H14A C12A 1_555 1_555
C13A O4A 1_555 1_555
H15A C13A 1_555 1_555
H16A C13A 1_555 1_555
H17A C13A 1_555 1_555
C4 C5 1_555 1_555
C6 C7 1_555 1_555
C9 C10 1_555 1_555
C4A C5A 1_555 1_555
C6A C7A 1_555 1_555
C9A C10A 1_555 1_555
C11A C12A 1_555 1_555

#END
