
#######################################################################
#
#                 Cambridge Crystallographic Data Centre
#                                CCDC 
#
#######################################################################
#
# If this CIF has been generated from an entry in the Cambridge 
# Structural Database, then it will include bibliographic, chemical, 
# crystal, experimental, refinement or atomic coordinate data resulting 
# from the CCDC's data processing and validation procedures.
#
#######################################################################

data_NIRFUR
_symmetry_cell_setting           triclinic
_symmetry_space_group_name_H-M   'P -1'
_symmetry_Int_Tables_number      2
_space_group_name_Hall           '-P 1'
loop_
_symmetry_equiv_pos_site_id
_symmetry_equiv_pos_as_xyz
1 x,y,z
2 -x,-y,-z
_cell_length_a                   14.7676(18)
_cell_length_b                   19.2240(14)
_cell_length_c                   19.7451(16)
_cell_angle_alpha                65.774(2)
_cell_angle_beta                 87.413(3)
_cell_angle_gamma                67.535(2)
_cell_volume                     4682.26
loop_
_atom_site_label
_atom_site_type_symbol
_atom_site_fract_x
_atom_site_fract_y
_atom_site_fract_z
C1 C 0.6800(4) -0.3308(3) 0.3150(3)
C2 C 0.6544(4) -0.2399(3) 0.2651(3)
C3 C 0.7117(4) -0.2136(3) 0.2074(3)
H1 H 0.7673 -0.2525 0.1999
C4 C 0.6834(4) -0.1306(3) 0.1634(3)
H2 H 0.7243 -0.1124 0.1296
C5 C 0.5961(4) -0.0741(3) 0.1683(3)
C6 C 0.5377(4) -0.0966(3) 0.2208(3)
H3 H 0.4793 -0.0571 0.2244
C7 C 0.5678(4) -0.1815(3) 0.2696(3)
H4 H 0.5283 -0.1982 0.3055
C8 C 0.6345(4) 0.0375(3) 0.0861(3)
H5 H 0.6564 0.0150 0.0496
H6 H 0.6911 0.0200 0.1213
C9 C 0.5810(3) 0.1350(3) 0.0466(3)
C10 C 0.5591(4) 0.1784(3) -0.0319(3)
C11 C 0.5305(4) 0.2658(3) -0.0646(3)
C12 C 0.5179(4) 0.3102(3) -0.0173(3)
C13 C 0.5364(3) 0.2637(3) 0.0586(3)
C14 C 0.5693(4) 0.1787(3) 0.0901(3)
C15 C 0.5593(4) 0.1388(4) -0.0848(4)
H7 H 0.6134 0.1394 -0.1134
H8 H 0.4985 0.1671 -0.1182
H9 H 0.5682 0.0822 -0.0542
C16 C 0.4915(4) 0.4042(3) -0.0556(3)
H10 H 0.5034 0.4222 -0.0195
H11 H 0.4230 0.4330 -0.0764
H12 H 0.5316 0.4161 -0.0949
C17 C 0.5893(4) 0.1328(3) 0.1797(3)
H13 H 0.6159 0.0736 0.1956
H14 H 0.5284 0.1497 0.1996
H15 H 0.6357 0.1474 0.1974
C18 C 0.5142(4) 0.3140(3) -0.1497(3)
H16 H 0.4971 0.2852 -0.1741
H17 H 0.4631 0.3696 -0.1657
C19 C 0.6288(4) 0.3519(4) -0.2360(3)
C20 C 0.5626(4) 0.3728(4) -0.2984(3)
H18 H 0.5030 0.3666 -0.2917
C21 C 0.5894(5) 0.4019(4) -0.3678(3)
H19 H 0.5439 0.4198 -0.4087
C22 C 0.6801(5) 0.4065(4) -0.3816(4)
C23 C 0.7447(5) 0.3852(4) -0.3191(4)
H20 H 0.8060 0.3882 -0.3254
C24 C 0.7156(5) 0.3594(4) -0.2475(4)
H21 H 0.7576 0.3470 -0.2068
C25 C 0.7057(5) 0.4436(4) -0.4594(4)
C26 C 0.5284(4) 0.3077(3) 0.1075(3)
H22 H 0.4729 0.3613 0.0872
H23 H 0.5190 0.2749 0.1577
C27 C 0.6334(4) 0.3515(3) 0.1519(3)
C28 C 0.7281(4) 0.3540(4) 0.1535(3)
H24 H 0.7737 0.3332 0.1254
C29 C 0.7534(4) 0.3874(4) 0.1970(3)
H25 H 0.8151 0.3898 0.1972
C30 C 0.6842(4) 0.4174(3) 0.2406(3)
C31 C 0.5930(4) 0.4146(3) 0.2391(3)
H26 H 0.5479 0.4348 0.2678
C32 C 0.5663(4) 0.3821(3) 0.1951(3)
H27 H 0.5039 0.3810 0.1947
C33 C 0.7042(5) 0.4502(4) 0.2907(3)
C34 C 1.1950(5) 0.1870(4) 0.5026(3)
C35 C 1.1026(5) 0.1804(4) 0.5208(3)
H28 H 1.0502 0.2005 0.4841
C36 C 1.0963(5) 0.1433(4) 0.5947(3)
H29 H 1.0365 0.1410 0.6097
C37 C 1.1792(4) 0.1076(3) 0.6499(3)
C38 C 1.2602(4) 0.1222(3) 0.6292(3)
H30 H 1.3104 0.1074 0.6655
C39 C 1.2699(4) 0.1597(4) 0.5526(3)
H31 H 1.3286 0.1650 0.5380
C40 C 1.2028(5) 0.2280(4) 0.4205(4)
C41 C 1.0723(4) 0.0733(4) 0.7445(3)
H32 H 1.0514 0.0458 0.7205
H33 H 1.0225 0.1291 0.7308
C42 C 1.0995(3) 0.0201(3) 0.8334(3)
C43 C 1.0901(4) 0.0642(3) 0.8765(3)
C44 C 1.1104(3) 0.0187(3) 0.9554(3)
C45 C 1.1427(3) -0.0657(3) 0.9903(3)
C46 C 1.1541(4) -0.1079(3) 0.9450(3)
C47 C 1.1309(4) -0.0653(3) 0.8642(3)
C48 C 1.1373(5) -0.1188(4) 0.8218(4)
H34 H 1.1088 -0.0831 0.7706
H35 H 1.1018 -0.1535 0.8449
H36 H 1.2053 -0.1531 0.8238
C49 C 1.0615(4) 0.1587(3) 0.8473(3)
H37 H 1.0558 0.1834 0.7936
H38 H 1.1116 0.1679 0.8674
H39 H 0.9994 0.1834 0.8628
C50 C 1.1708(4) -0.1153(4) 1.0737(3)
H40 H 1.2367 -0.1231 1.0873
H41 H 1.1679 -0.1685 1.0882
H42 H 1.1257 -0.0859 1.0988
C51 C 1.0950(4) 0.0659(4) 1.0040(3)
H43 H 1.0471 0.1227 0.9776
H44 H 1.0720 0.0389 1.0504
C52 C 1.1994(4) 0.0971(4) 1.0657(3)
C53 C 1.1209(4) 0.1398(3) 1.0944(3)
H45 H 1.0572 0.1461 1.0826
C54 C 1.1377(3) 0.1730(3) 1.1408(3)
H46 H 1.0852 0.2016 1.1600
C55 C 1.2330(4) 0.1636(4) 1.1585(3)
C56 C 1.3114(4) 0.1210(3) 1.1298(3)
H47 H 1.3752 0.1147 1.1416
C57 C 1.2946(4) 0.0877(3) 1.0834(4)
H48 H 1.3471 0.0592 1.0642
C58 C 1.2565(5) 0.2025(4) 1.2038(3)
C59 C 1.2067(4) -0.2041(3) 0.9756(3)
H49 H 1.2273 -0.2209 0.9354
H50 H 1.2639 -0.2260 1.0119
C60 C 1.1621(4) -0.3151(3) 1.0537(3)
C61 C 1.2550(4) -0.3755(3) 1.0559(3)
H51 H 1.2992 -0.3573 1.0261
C62 C 1.2837(4) -0.4563(3) 1.0972(3)
H52 H 1.3444 -0.4937 1.0939
C63 C 1.2179(4) -0.4856(3) 1.1482(3)
C64 C 1.1257(4) -0.4300(3) 1.1505(4)
H53 H 1.0814 -0.4469 1.1812
C65 C 1.1033(4) -0.3425(4) 1.1009(4)
H54 H 1.0433 -0.3030 1.1026
C66 C 1.2509(5) -0.5750(4) 1.2020(3)
Cd1 Cd 0.73802(3) 0.50307(3) 0.39558(3)
Cd2 Cd 0.96269(4) 0.34933(3) 0.33300(3)
Cd3 Cd 1.31676(3) 0.26225(3) 0.29095(3)
O1 O 1.4826(3) 0.1658(2) 0.3460(2)
O2 O 0.7693(3) -0.3835(2) 0.3139(2)
O3 O 0.6295(3) -0.3529(2) 0.3573(2)
O4 O 0.5588(3) 0.0100(2) 0.1254(2)
O5 O 0.6448(3) 0.4709(2) -0.5141(2)
O6 O 0.7924(3) 0.4364(2) -0.4659(2)
O7 O 0.6141(3) 0.3158(2) -0.1646(2)
O8 O 0.7996(3) 0.4376(2) 0.2954(2)
O9 O 0.6514(3) 0.4781(2) 0.3291(2)
O10 O 0.6202(2) 0.3180(2) 0.1088(2)
O11 O 1.1274(3) 0.2746(3) 0.3696(2)
O12 O 1.2850(3) 0.2108(2) 0.4027(2)
O13 O 1.1735(3) 0.0726(2) 0.72822(19)
O14 O 1.1780(3) 0.2506(2) 1.2215(2)
O15 O 1.3385(4) 0.1846(3) 1.2258(3)
O16 O 1.1923(2) 0.0640(2) 1.0188(2)
O17 O 1.3366(3) -0.6256(2) 1.1939(2)
O18 O 1.1973(3) -0.5996(2) 1.2442(2)
O19 O 1.1311(2) -0.2318(2) 1.0103(2)
O20 O 0.9229(3) 0.4174(3) 0.4254(2)
O21 O 0.9871(3) 0.4219(3) 0.2338(3)
O22 O 0.9446(4) 0.2710(3) 0.2743(3)
Cd1_2 Cd 0.73802(3) -0.49693(3) 0.39558(3)
Cd1_3 Cd 0.73802(3) 0.50307(3) -0.60442(3)
Cd3_2 Cd 1.31676(3) -0.73775(3) 1.29095(3)
Cd3_3 Cd 1.31676(3) 0.26225(3) 1.29095(3)
O2_2 O 0.7693(3) 0.6165(2) 0.3139(2)
O3_2 O 0.6295(3) 0.6471(2) 0.3573(2)
O5_2 O 0.6448(3) 0.4709(2) 0.4859(2)
O6_2 O 0.7924(3) 0.4364(2) 0.5341(2)
O14_2 O 1.1780(3) 0.2506(2) 0.2215(2)
O15_2 O 1.3385(4) 0.1846(3) 0.2258(3)
O17_2 O 1.3366(3) 0.3744(2) 0.1939(2)
O18_2 O 1.1973(3) 0.4004(2) 0.2442(2)
loop_
_geom_bond_atom_site_label_1
_geom_bond_atom_site_label_2
_geom_bond_site_symmetry_1
_geom_bond_site_symmetry_2
C1 C2 1_555 1_555
C2 C3 1_555 1_555
C3 H1 1_555 1_555
C4 C3 1_555 1_555
H2 C4 1_555 1_555
C5 C4 1_555 1_555
C6 C5 1_555 1_555
H3 C6 1_555 1_555
C7 C2 1_555 1_555
H4 C7 1_555 1_555
C8 H5 1_555 1_555
H6 C8 1_555 1_555
C9 C8 1_555 1_555
C10 C9 1_555 1_555
C11 C10 1_555 1_555
C12 C11 1_555 1_555
C13 C12 1_555 1_555
C14 C9 1_555 1_555
C15 C10 1_555 1_555
H7 C15 1_555 1_555
H8 C15 1_555 1_555
H9 C15 1_555 1_555
C16 C12 1_555 1_555
H10 C16 1_555 1_555
H11 C16 1_555 1_555
H12 C16 1_555 1_555
C17 C14 1_555 1_555
H13 C17 1_555 1_555
H14 C17 1_555 1_555
H15 C17 1_555 1_555
C18 C11 1_555 1_555
H16 C18 1_555 1_555
H17 C18 1_555 1_555
C19 C20 1_555 1_555
C20 H18 1_555 1_555
C21 C20 1_555 1_555
H19 C21 1_555 1_555
C22 C21 1_555 1_555
C23 C22 1_555 1_555
H20 C23 1_555 1_555
C24 C19 1_555 1_555
H21 C24 1_555 1_555
C25 C22 1_555 1_555
C26 C13 1_555 1_555
H22 C26 1_555 1_555
H23 C26 1_555 1_555
C27 C28 1_555 1_555
C28 H24 1_555 1_555
C29 C28 1_555 1_555
H25 C29 1_555 1_555
C30 C29 1_555 1_555
C31 C30 1_555 1_555
H26 C31 1_555 1_555
C32 C27 1_555 1_555
H27 C32 1_555 1_555
C33 C30 1_555 1_555
C34 C35 1_555 1_555
C35 H28 1_555 1_555
C36 C35 1_555 1_555
H29 C36 1_555 1_555
C37 C36 1_555 1_555
C38 C37 1_555 1_555
H30 C38 1_555 1_555
C39 C34 1_555 1_555
H31 C39 1_555 1_555
C40 C34 1_555 1_555
C41 H32 1_555 1_555
H33 C41 1_555 1_555
C42 C41 1_555 1_555
C43 C42 1_555 1_555
C44 C43 1_555 1_555
C45 C44 1_555 1_555
C46 C45 1_555 1_555
C47 C42 1_555 1_555
C48 C47 1_555 1_555
H34 C48 1_555 1_555
H35 C48 1_555 1_555
H36 C48 1_555 1_555
C49 C43 1_555 1_555
H37 C49 1_555 1_555
H38 C49 1_555 1_555
H39 C49 1_555 1_555
C50 C45 1_555 1_555
H40 C50 1_555 1_555
H41 C50 1_555 1_555
H42 C50 1_555 1_555
C51 C44 1_555 1_555
H43 C51 1_555 1_555
H44 C51 1_555 1_555
C52 C53 1_555 1_555
C53 H45 1_555 1_555
C54 C53 1_555 1_555
H46 C54 1_555 1_555
C55 C54 1_555 1_555
C56 C55 1_555 1_555
H47 C56 1_555 1_555
C57 C52 1_555 1_555
H48 C57 1_555 1_555
C58 C55 1_555 1_555
C59 C46 1_555 1_555
H49 C59 1_555 1_555
H50 C59 1_555 1_555
C60 C61 1_555 1_555
C61 H51 1_555 1_555
C62 C61 1_555 1_555
H52 C62 1_555 1_555
C63 C62 1_555 1_555
C64 C63 1_555 1_555
H53 C64 1_555 1_555
C65 C60 1_555 1_555
H54 C65 1_555 1_555
C66 C63 1_555 1_555
Cd1 O8 1_555 1_555
Cd2 O8 1_555 1_555
Cd3 O1 1_555 1_555
O2 C1 1_555 1_555
O3 C1 1_555 1_555
O4 C5 1_555 1_555
O5 C25 1_555 1_555
O6 C25 1_555 1_555
O7 C18 1_555 1_555
O8 C33 1_555 1_555
O9 C33 1_555 1_555
O10 C26 1_555 1_555
O11 C40 1_555 1_555
O12 C40 1_555 1_555
O13 C37 1_555 1_555
O14 C58 1_555 1_555
O15 C58 1_555 1_555
O16 C51 1_555 1_555
O17 C66 1_555 1_555
O18 C66 1_555 1_555
O19 C59 1_555 1_555
O20 Cd1 1_555 1_555
O21 Cd2 1_555 1_555
O22 Cd2 1_555 1_555
Cd1_2 O2 1_555 1_555
Cd1_3 O5 1_555 1_555
Cd3_2 O17 1_555 1_555
Cd3_3 O14 1_555 1_555
O2_2 Cd1 1_555 1_555
O3_2 Cd1 1_555 1_555
O5_2 Cd1 1_555 1_555
O6_2 Cd1 1_555 1_555
O14_2 Cd3 1_555 1_555
O15_2 Cd3 1_555 1_555
O17_2 Cd3 1_555 1_555
O18_2 Cd3 1_555 1_555
C6 C7 1_555 1_555
C8 O4 1_555 1_555
C13 C14 1_555 1_555
C19 O7 1_555 1_555
C23 C24 1_555 1_555
C27 O10 1_555 1_555
C31 C32 1_555 1_555
C38 C39 1_555 1_555
C41 O13 1_555 1_555
C46 C47 1_555 1_555
C52 O16 1_555 1_555
C56 C57 1_555 1_555
C60 O19 1_555 1_555
C64 C65 1_555 1_555
Cd1 O9 1_555 1_555
Cd2 O11 1_555 1_555
Cd2 O20 1_555 1_555
Cd3 O12 1_555 1_555
O3 Cd1_2 1_555 1_555
O6 Cd1_3 1_555 1_555
O15 Cd3_3 1_555 1_555
O18 Cd3_2 1_555 1_555

#END
