
#######################################################################
#
#                 Cambridge Crystallographic Data Centre
#                                CCDC 
#
#######################################################################
#
# If this CIF has been generated from an entry in the Cambridge 
# Structural Database, then it will include bibliographic, chemical, 
# crystal, experimental, refinement or atomic coordinate data resulting 
# from the CCDC's data processing and validation procedures.
#
#######################################################################

data_NISWUI
_symmetry_cell_setting           monoclinic
_symmetry_space_group_name_H-M   'P c'
_symmetry_Int_Tables_number      7
_space_group_name_Hall           'P -2yc'
loop_
_symmetry_equiv_pos_site_id
_symmetry_equiv_pos_as_xyz
1 x,y,z
2 x,-y,1/2+z
_cell_length_a                   4.924(2)
_cell_length_b                   6.817(3)
_cell_length_c                   27.731(7)
_cell_angle_alpha                90
_cell_angle_beta                 91.18(3)
_cell_angle_gamma                90
_cell_volume                     930.647
loop_
_atom_site_label
_atom_site_type_symbol
_atom_site_fract_x
_atom_site_fract_y
_atom_site_fract_z
Zn1 Zn 0.5000 0.88343(5) 0.5000
O1 O 0.3976(5) 0.6042(3) 0.50887(9)
H1 H 0.2326 0.5450 0.4923
H2 H 0.4835 0.4891 0.5261
O2 O 0.2659(4) 0.9704(3) 0.44631(8)
O3 O -0.1140(4) 0.8808(3) 0.48166(8)
C1 C -0.1263(6) 0.9689(5) 0.39720(12)
C2 C -0.3193(6) 0.8376(4) 0.37789(11)
C3 C -0.4434(7) 0.8760(5) 0.33360(12)
H3 H -0.5760 0.7878 0.3209
C4 C -0.3754(7) 1.0423(5) 0.30774(11)
H4 H -0.4633 1.0698 0.2777
C5 C -0.1778(7) 1.1683(5) 0.32614(12)
C6 C -0.0509(7) 1.1321(5) 0.37032(11)
H5 H 0.0868 1.2181 0.3822
C7 C 0.0142(6) 0.9375(4) 0.44527(11)
O4 O -0.3672(5) 0.6726(3) 0.40449(8)
C8 C -0.5759(7) 0.5413(5) 0.38719(13)
H6 H -0.5850 0.4272 0.4086
H7 H -0.5336 0.4977 0.3545
H8 H -0.7512 0.6093 0.3867
Cl1 Cl -0.08347(18) 1.37557(13) 0.29317(3)
O5 O 0.4693(5) 0.9766(3) 0.56617(8)
O6 O 0.5931(5) 1.2506(3) 0.52999(8)
C9 C 0.4997(7) 1.2595(5) 0.61480(12)
C10 C 0.6393(7) 1.4351(5) 0.62732(11)
C11 C 0.6037(7) 1.5164(5) 0.67313(12)
H9 H 0.7029 1.6305 0.6823
C12 C 0.4253(7) 1.4326(5) 0.70537(12)
H10 H 0.3987 1.4908 0.7360
C13 C 0.2870(7) 1.2638(5) 0.69240(12)
C14 C 0.3238(7) 1.1772(5) 0.64780(11)
H11 H 0.2280 1.0604 0.6397
C15 C 0.5264(6) 1.1608(5) 0.56711(11)
O7 O 0.8065(5) 1.5129(3) 0.59392(9)
C16 C 0.9611(8) 1.6840(5) 0.60758(14)
H12 H 1.0827 1.7195 0.5814
H13 H 1.0686 1.6558 0.6369
H14 H 0.8370 1.7932 0.6137
Cl2 Cl 0.06182(18) 1.15674(13) 0.73272(3)
Zn1_2 Zn -0.5000 0.88343(5) 0.5000
O3_2 O 0.8860(4) 0.8808(3) 0.48166(8)
O8 O -0.0285(5) 0.4207(3) 0.46900(9)
H15 H -0.1426 0.5300 0.4546
H16 H -0.1177 0.3706 0.4979
loop_
_geom_bond_atom_site_label_1
_geom_bond_atom_site_label_2
_geom_bond_site_symmetry_1
_geom_bond_site_symmetry_2
Zn1 O1 1_555 1_555
O1 H1 1_555 1_555
H2 O1 1_555 1_555
O2 Zn1 1_555 1_555
O3 C7 1_555 1_555
C1 C2 1_555 1_555
C2 C3 1_555 1_555
C3 H3 1_555 1_555
C4 C3 1_555 1_555
H4 C4 1_555 1_555
C5 C4 1_555 1_555
C6 C1 1_555 1_555
H5 C6 1_555 1_555
C7 O2 1_555 1_555
O4 C2 1_555 1_555
C8 O4 1_555 1_555
H6 C8 1_555 1_555
H7 C8 1_555 1_555
H8 C8 1_555 1_555
Cl1 C5 1_555 1_555
O5 Zn1 1_555 1_555
O6 C15 1_555 1_555
C9 C10 1_555 1_555
C10 C11 1_555 1_555
C11 H9 1_555 1_555
C12 C11 1_555 1_555
H10 C12 1_555 1_555
C13 C12 1_555 1_555
C14 C9 1_555 1_555
H11 C14 1_555 1_555
C15 O5 1_555 1_555
O7 C10 1_555 1_555
C16 O7 1_555 1_555
H12 C16 1_555 1_555
H13 C16 1_555 1_555
H14 C16 1_555 1_555
Cl2 C13 1_555 1_555
O8 H15 1_555 1_555
H16 O8 1_555 1_555
Zn1_2 O3 1_555 1_555
O3_2 Zn1 1_555 1_555
C1 C7 1_555 1_555
C5 C6 1_555 1_555
C9 C15 1_555 1_555
C13 C14 1_555 1_555

#END
