
#######################################################################
#
#                 Cambridge Crystallographic Data Centre
#                                CCDC 
#
#######################################################################
#
# If this CIF has been generated from an entry in the Cambridge 
# Structural Database, then it will include bibliographic, chemical, 
# crystal, experimental, refinement or atomic coordinate data resulting 
# from the CCDC's data processing and validation procedures.
#
#######################################################################

data_NISZAQ
_symmetry_cell_setting           triclinic
_symmetry_space_group_name_H-M   'P -1'
_symmetry_Int_Tables_number      2
_space_group_name_Hall           '-P 1'
loop_
_symmetry_equiv_pos_site_id
_symmetry_equiv_pos_as_xyz
1 x,y,z
2 -x,-y,-z
_cell_length_a                   7.1835(3)
_cell_length_b                   11.5682(5)
_cell_length_c                   16.9615(7)
_cell_angle_alpha                89.568
_cell_angle_beta                 79.995
_cell_angle_gamma                81.7390
_cell_volume                     1373.45
loop_
_atom_site_label
_atom_site_type_symbol
_atom_site_fract_x
_atom_site_fract_y
_atom_site_fract_z
O1 O 0.3717(15) 0.0195(10) 0.0547(7)
O9 O 0.3848(8) 0.0923(13) -0.1516(7)
O10 O 0.5351(17) 0.2238(12) -0.0530(9)
O11 O 0.1650(14) 0.1661(9) -0.0038(7)
O12 O 0.1472(15) -0.0749(9) -0.0432(6)
O13 O 0.0394(16) 0.1326(10) 0.1657(7)
O14 O 0.0789(6) -0.0970(9) 0.1176(7)
N3 N 0.2547(19) -0.3305(12) -0.0590(8)
N4 N 0.1277(19) -0.3562(12) 0.0913(8)
C11 C 0.3309(25) -0.3065(17) -0.1358(11)
C12 C 0.3987(26) -0.3968(17) -0.1918(12)
C13 C 0.4041(29) -0.5117(19) -0.1691(13)
C14 C 0.3364(27) -0.5320(18) -0.0926(12)
C15 C 0.2552(23) -0.4413(15) -0.0368(10)
C16 C 0.1863(23) -0.4576(15) 0.0496(10)
C17 C 0.1819(26) -0.5647(17) 0.0864(11)
C18 C 0.1179(26) -0.5646(18) 0.1687(12)
C19 C 0.0598(26) -0.4682(17) 0.2095(12)
C20 C 0.0574(25) -0.3617(16) 0.1708(11)
H9 H 0.3401 -0.2272 -0.1511
H10 H 0.4406 -0.3784 -0.2467
H11 H 0.4563 -0.5735 -0.2075
H12 H 0.3406 -0.6115 -0.0755
H13 H 0.2259 -0.6364 0.0563
H14 H 0.1170 -0.6376 0.1959
H15 H 0.0142 -0.4688 0.2662
H16 H 0.0066 -0.2903 0.2003
Mo3 Mo 0.4129(2) 0.1066(1) -0.0555(1)
Mo4 Mo 0.0777(2) 0.0476(1) 0.0819(1)
Cu2 Cu 0.1509(3) -0.2137(2) 0.0275(1)
O1A O 0.6283(15) -0.0195(10) -0.0547(7)
Mo3A Mo 0.5871(2) -0.1066(1) 0.0555(1)
O10A O 0.4649(17) -0.2238(12) 0.0530(9)
Cu2A Cu 0.8491(3) 0.2137(2) -0.0275(1)
O11A O -0.1650(14) -0.1661(9) 0.0038(7)
Mo4A Mo -0.0777(2) -0.0476(1) -0.0819(1)
O12A O -0.1472(15) 0.0749(9) 0.0432(6)
Cu2A_2 Cu -0.1509(3) 0.2137(2) -0.0275(1)
O2 O 0.6728(16) 0.6175(10) 0.3325(7)
O3 O 0.6806(15) 0.3903(10) 0.3861(7)
O4 O 0.6155(13) 0.4334(9) 0.5430(7)
O5 O 0.9171(13) 0.5183(9) 0.4439(7)
O6 O 0.6601(4) 0.6634(9) 0.5016(6)
O7 O 0.7576(16) 0.6039(12) 0.6515(8)
O8 O 0.9834(15) 0.7291(10) 0.5479(8)
N1 N 0.7125(8) 0.1314(12) 0.4196(8)
N2 N 0.7095(19) 0.1793(12) 0.5719(8)
C1 C 0.7219(27) 0.1174(18) 0.3419(12)
C2 C 0.7380(25) 0.0094(16) 0.3062(11)
C3 C 0.7522(26) -0.0858(18) 0.3535(12)
C4 C 0.7518(28) -0.0732(19) 0.4352(12)
C5 C 0.7328(22) 0.0357(15) 0.4661(10)
C6 C 0.7318(23) 0.0627(15) 0.5514(10)
C7 C 0.7612(29) -0.0205(20) 0.6104(13)
C8 C 0.7595(29) 0.0175(19) 0.6887(13)
C9 C 0.7347(28) 0.1340(19) 0.7063(13)
C10 C 0.7074(27) 0.2129(18) 0.6469(12)
H1 H 0.7092 0.1858 0.3097
H2 H 0.7428 0.0011 0.2496
H3 H 0.7657 -0.1628 0.3306
H4 H 0.7610 -0.1404 0.4686
H5 H 0.7880 -0.1023 0.5966
H6 H 0.7746 -0.0385 0.7300
H7 H 0.7322 0.1611 0.7598
H8 H 0.6866 0.2950 0.6597
Mo1 Mo 0.6459(2) 0.5389(1) 0.4181(1)
Mo2 Mo 0.8640(2) 0.6097(1) 0.5547(1)
Cu1 Cu 0.6813(3) 0.2846(2) 0.4791(1)
O4A O 0.3845(13) 0.5666(9) 0.4570(7)
Mo1A Mo 0.3541(2) 0.4611(1) 0.5819(1)
Cu1A Cu 0.3187(3) 0.7154(2) 0.5209(1)
O5A O 1.0829(13) 0.4817(9) 0.5561(7)
Cu1A_2 Cu 1.3187(3) 0.7154(2) 0.5209(1)
Mo2A Mo 1.1360(2) 0.3903(1) 0.4453(1)
O8A O 1.0166(15) 0.2709(10) 0.4521(8)
O6A O 0.3399(4) 0.3366(9) 0.4984(6)
loop_
_geom_bond_atom_site_label_1
_geom_bond_atom_site_label_2
_geom_bond_site_symmetry_1
_geom_bond_site_symmetry_2
O1 Mo3 1_555 1_555
O2 Mo1 1_555 1_555
O3 Mo1 1_555 1_555
O4 Mo1 1_555 1_555
O5 Mo1 1_555 1_555
O6 Mo1 1_555 1_555
O7 Mo2 1_555 1_555
O8 Mo2 1_555 1_555
O9 Mo3 1_555 1_555
O10 Mo3 1_555 1_555
O11 Mo3 1_555 1_555
O12 Mo4 1_555 1_555
O13 Mo4 1_555 1_555
O14 Mo4 1_555 1_555
N1 C1 1_555 1_555
N2 C6 1_555 1_555
N3 C11 1_555 1_555
N4 C16 1_555 1_555
C1 C2 1_555 1_555
C2 C3 1_555 1_555
C3 C4 1_555 1_555
C4 C5 1_555 1_555
C5 N1 1_555 1_555
C6 C5 1_555 1_555
C7 C6 1_555 1_555
C8 C7 1_555 1_555
C9 C8 1_555 1_555
C10 N2 1_555 1_555
C11 C12 1_555 1_555
C12 C13 1_555 1_555
C13 C14 1_555 1_555
C14 C15 1_555 1_555
C15 N3 1_555 1_555
C16 C15 1_555 1_555
C17 C16 1_555 1_555
C18 C17 1_555 1_555
C19 C18 1_555 1_555
C20 N4 1_555 1_555
H1 C1 1_555 1_555
H2 C2 1_555 1_555
H3 C3 1_555 1_555
H4 C4 1_555 1_555
H5 C7 1_555 1_555
H6 C8 1_555 1_555
H7 C9 1_555 1_555
H8 C10 1_555 1_555
H9 C11 1_555 1_555
H10 C12 1_555 1_555
H11 C13 1_555 1_555
H12 C14 1_555 1_555
H13 C17 1_555 1_555
H14 C18 1_555 1_555
H15 C19 1_555 1_555
H16 C20 1_555 1_555
Mo1 O4A 1_555 1_555
Mo2 O5 1_555 1_555
Mo3 O1A 1_555 1_555
Mo4 O1 1_555 1_555
Cu1 O3 1_555 1_555
Cu2 O12 1_555 1_555
O1A Mo3A 1_555 1_555
Mo3A O1 1_555 1_555
O10A Cu2 1_555 1_555
Cu2A O10 1_555 1_555
O11A Cu2 1_555 1_555
Mo4A O12 1_555 1_555
O12A Mo4 1_555 1_555
Cu2A_2 O11 1_555 1_555
O4A Mo1A 1_555 1_555
Mo1A O4 1_555 1_555
Cu1A O6 1_555 1_555
O5A Mo2 1_555 1_555
Cu1A_2 O8 1_555 1_555
Mo2A O5 1_555 1_555
O8A Cu1 1_555 1_555
O6A Cu1 1_555 1_555
O4 Cu1 1_555 1_555
O6 Mo2 1_555 1_555
O11 Mo4 1_555 1_555
O14 Cu2 1_555 1_555
N1 Cu1 1_555 1_555
N2 Cu1 1_555 1_555
N3 Cu2 1_555 1_555
N4 Cu2 1_555 1_555
C9 C10 1_555 1_555
C19 C20 1_555 1_555
Mo3A O10A 1_555 1_555
O11A Mo4A 1_555 1_555
Mo4A O12A 1_555 1_555
O12A Cu2A_2 1_555 1_555
O4A Cu1A 1_555 1_555
Mo1A O6A 1_555 1_555
O5A Mo2A 1_555 1_555
Mo2A O8A 1_555 1_555

#END
