
#######################################################################
#
#                 Cambridge Crystallographic Data Centre
#                                CCDC 
#
#######################################################################
#
# If this CIF has been generated from an entry in the Cambridge 
# Structural Database, then it will include bibliographic, chemical, 
# crystal, experimental, refinement or atomic coordinate data resulting 
# from the CCDC's data processing and validation procedures.
#
#######################################################################

data_NITBOI
_symmetry_cell_setting           rhombohedral
_symmetry_space_group_name_H-M   'R -3 c'
_symmetry_Int_Tables_number      167
_space_group_name_Hall           '-R 3 2"c'
loop_
_symmetry_equiv_pos_site_id
_symmetry_equiv_pos_as_xyz
1 x,y,z
2 -y,x-y,z
3 -x+y,-x,z
4 y,x,1/2-z
5 2/3+x,1/3+y,1/3+z
6 2/3-y,1/3+x-y,1/3+z
7 2/3-x+y,1/3-x,1/3+z
8 2/3+y,1/3+x,5/6-z
9 1/3+x,2/3+y,2/3+z
10 1/3+y,2/3+x,1/6-z
11 x-y,-y,1/2-z
12 -x,-x+y,1/2-z
13 1/3-y,2/3+x-y,2/3+z
14 1/3-x+y,2/3-x,2/3+z
15 1/3+x-y,2/3-y,1/6-z
16 1/3-x,2/3-x+y,1/6-z
17 2/3+x-y,1/3-y,5/6-z
18 2/3-x,1/3-x+y,5/6-z
19 -x,-y,-z
20 y,-x+y,-z
21 x-y,x,-z
22 -y,-x,1/2+z
23 1/3-x,2/3-y,2/3-z
24 1/3+y,2/3-x+y,2/3-z
25 1/3+x-y,2/3+x,2/3-z
26 1/3-y,2/3-x,1/6+z
27 2/3-x,1/3-y,1/3-z
28 2/3-y,1/3-x,5/6+z
29 -x+y,y,1/2+z
30 x,x-y,1/2+z
31 2/3+y,1/3-x+y,1/3-z
32 2/3+x-y,1/3+x,1/3-z
33 2/3-x+y,1/3+y,5/6+z
34 2/3+x,1/3+x-y,5/6+z
35 1/3-x+y,2/3+y,1/6+z
36 1/3+x,2/3+x-y,1/6+z
_cell_length_a                   15.3029(4)
_cell_length_b                   15.3029(4)
_cell_length_c                   93.566(5)
_cell_angle_alpha                90
_cell_angle_beta                 90
_cell_angle_gamma                120.00
_cell_volume                     18975.6
loop_
_atom_site_label
_atom_site_type_symbol
_atom_site_fract_x
_atom_site_fract_y
_atom_site_fract_z
O1 O 0.8053(18) 1.3333 0.5833
Eu1 Eu 0.91737(2) 1.09240(2) 0.677654(3)
Cu1 Cu 0.3333 0.6667 0.625860(16)
Cu2 Cu 0.30560(7) 0.82251(9) 0.587120(9)
I1 I 0.3333 0.6667 0.597880(8)
I2 I 0.12092(4) 0.7876 0.5834
C1 C 0.7298(5) 0.8712(5) 0.66456(8)
C2 C 0.6426(5) 0.8212(5) 0.65388(7)
C3 C 0.5769(6) 0.7212(6) 0.65440(9)
H1 H 0.5871 0.6811 0.6609
C4 C 0.4965(6) 0.6789(6) 0.64556(9)
H2 H 0.4521 0.6100 0.6465
C5 C 0.5462(5) 0.8287(5) 0.63447(8)
H3 H 0.5394 0.8657 0.6271
C6 C 0.6256(5) 0.8765(5) 0.64356(8)
H4 H 0.6684 0.9459 0.6429
C7 C 0.5921(5) 1.1406(6) 0.63204(7)
C8 C 0.5225(5) 1.0663(5) 0.62148(7)
C9 C 0.4201(5) 1.0265(5) 0.62246(8)
H5 H 0.3930 1.0469 0.6298
C10 C 0.3578(5) 0.9566(6) 0.61268(8)
H6 H 0.2885 0.9294 0.6136
C11 C 0.4920(6) 0.9636(6) 0.60143(8)
H7 H 0.5178 0.9417 0.5942
C12 C 0.5578(5) 1.0311(6) 0.61079(7)
H8 H 0.6264 1.0537 0.6100
C13 C 0.4297(5) 0.9024(5) 0.52213(6)
C14 C 0.4075(5) 0.8845(5) 0.53754(6)
C15 C 0.4692(5) 0.9502(5) 0.54804(7)
H9 H 0.5284 1.0087 0.5456
C16 C 0.4419(5) 0.9281(6) 0.56230(8)
H10 H 0.4840 0.9736 0.5692
C17 C 0.2985(5) 0.7821(6) 0.55633(7)
H11 H 0.2388 0.7252 0.5591
C18 C 0.3203(5) 0.7971(5) 0.54208(7)
H12 H 0.2776 0.7497 0.5355
N1 N 0.4761(5) 0.7290(4) 0.63564(6)
N2 N 0.3936(4) 0.9262(4) 0.60186(6)
N3 N 0.3582(4) 0.8448(4) 0.56670(6)
O2 O 0.7669(4) 0.9626(4) 0.66679(6)
O3 O 1.0596(4) 1.2458(4) 0.67065(6)
O4 O 0.8574(5) 0.9613(4) 0.69404(5)
O5 O 0.9892(4) 1.1840(4) 0.69949(6)
O6 O 0.8116(4) 1.1538(4) 0.68416(5)
O7 O 0.9366(4) 1.0967(4) 0.65200(6)
O8 O 1.0000 1.0000 0.67125(7)
Eu1B Eu 1.17503(3) 1.08263(2) 0.677654(3)
Eu1A Eu 0.90760(2) 0.82497(3) 0.677654(3)
Eu1EA Eu 0.49164(3) 1.25070(2) 0.655679(3)
Eu1Z Eu 0.74930(2) 1.24093(2) 0.655679(3)
Eu1GA Eu 0.58404(2) 1.15830(3) 0.510987(3)
Eu1O Eu 0.41596(2) 0.84170(3) 0.489013(3)
Eu1B_2 Eu 0.17503(3) 0.08263(2) 0.677654(3)
Eu1_2 Eu -0.08263(2) 0.09240(2) 0.677654(3)
Eu1Z_2 Eu -0.25070(2) 0.24093(2) 0.655679(3)
Eu1DA Eu -0.24093(2) 0.50836(3) 0.655679(3)
Eu1EA_2 Eu 1.49164(3) 1.25070(2) 0.655679(3)
Eu1FA Eu -0.15830(3) 0.42573(2) 0.510987(3)
Eu1N Eu 0.15830(3) 0.57427(2) 0.489013(3)
Eu1B_3 Eu 0.17503(3) 1.08263(2) 0.677654(3)
Eu1A_2 Eu -0.09240(2) 0.82497(3) 0.677654(3)
Eu1DA_2 Eu 0.75907(2) 0.50836(3) 0.655679(3)
Cu1_2 Cu 1.3333 1.6667 0.625860(16)
Cu1_3 Cu 1.3333 0.6667 0.625860(16)
Cu1I Cu 0.0000 1.0000 0.540807(16)
Cu2A Cu 0.17749(9) 0.48309(11) 0.587120(9)
Cu2B Cu 0.51691(11) 0.69440(7) 0.587120(9)
Cu2I Cu 0.15584(9) 0.97227(7) 0.579547(9)
Cu2O Cu 1.02773(7) 1.18358(11) 0.579547(9)
Cu2IA Cu 0.63893(7) 1.14976(11) 0.753787(9)
Cu2DA Cu 0.48918(9) 0.85024(11) 0.746213(9)
Cu2Z Cu 1.36107(7) 1.51082(9) 0.746213(9)
Cu2Y Cu 1.51082(9) 1.36107(7) 0.753787(9)
Cu2EA Cu 1.14976(11) 0.63893(7) 0.746213(9)
Cu2I_2 Cu 1.15584(9) 0.97227(7) 0.579547(9)
Cu2N Cu -0.18358(11) 0.84416(9) 0.579547(9)
Cu2O_2 Cu 0.02773(7) 1.18358(11) 0.579547(9)
Cu2N_2 Cu 0.81642(11) 0.84416(9) 0.579547(9)
Cu2HA Cu 0.85024(11) 0.48918(9) 0.753787(9)
I1I I 0.0000 1.0000 0.568787(8)
I1_2 I 1.3333 0.6667 0.597880(8)
I1I_2 I 1.0000 1.0000 0.568787(8)
I2A I 0.2124 0.33332(4) 0.5834
I2B I 0.66668(4) 0.87908(4) 0.5834
I2A_2 I 0.2124 1.33332(4) 0.5834
I2_2 I 1.12092(4) 0.7876 0.5834
I2A_3 I 1.2124 1.33332(4) 0.5834
C1B C 1.1414(7) 1.2702(5) 0.66456(8)
C1A C 1.1288(5) 0.8586(7) 0.66456(8)
C1B_2 C 0.1414(7) 0.2702(5) 0.66456(8)
C1A_2 C 0.1288(5) 0.8586(7) 0.66456(8)
C2B C 1.1786(7) 1.3574(5) 0.65388(7)
C2A C 1.1788(5) 0.8214(7) 0.65388(7)
C2B_2 C 0.1786(7) 0.3574(5) 0.65388(7)
C2A_2 C 0.1788(5) 0.8214(7) 0.65388(7)
C3B C 1.1443(8) 1.4231(6) 0.65440(9)
C3A C 0.2788(6) 0.8557(8) 0.65440(9)
C3B_2 C 0.1443(8) 0.4231(6) 0.65440(9)
C3A_2 C 1.2788(6) 0.8557(8) 0.65440(9)
H1B H 0.0940 0.4129 0.6609
H1A H 0.3189 0.9060 0.6609
H1B_2 H 1.0940 1.4129 0.6609
H1A_2 H 1.3189 0.9060 0.6609
C4B C 0.1824(8) 0.5035(6) 0.64556(9)
C4A C 0.3211(6) 0.8176(8) 0.64556(9)
C4B_2 C 1.1824(8) 1.5035(6) 0.64556(9)
C4A_2 C 1.3211(6) 0.8176(8) 0.64556(9)
H2A H 0.3900 0.8421 0.6465
H2B H 0.1579 0.5479 0.6465
H2B_2 H 1.1579 1.5479 0.6465
H2A_2 H 1.3900 0.8421 0.6465
C5B C 0.2825(7) 0.4538(5) 0.63447(8)
C5A C 0.1713(5) 0.7175(7) 0.63447(8)
C5B_2 C 1.2825(7) 1.4538(5) 0.63447(8)
C5A_2 C 1.1713(5) 0.7175(7) 0.63447(8)
H3A H 0.1343 0.6737 0.6271
H3B H 0.3263 0.4606 0.6271
H3B_2 H 1.3263 1.4606 0.6271
H3A_2 H 1.1343 0.6737 0.6271
C6B C 1.2509(7) 1.3744(5) 0.64356(8)
C6A C 0.1235(5) 0.7491(7) 0.64356(8)
C6B_2 C 0.2509(7) 0.3744(5) 0.64356(8)
C6A_2 C 1.1235(5) 0.7491(7) 0.64356(8)
H4B H 1.2775 1.3316 0.6429
H4B_2 H 0.2775 0.3316 0.6429
H4A H 0.0541 0.7225 0.6429
H4A_2 H 1.0541 0.7225 0.6429
C7DA C 0.8073(6) 0.8818(8) 0.70129(7)
C7Z C 1.0746(5) 1.1927(6) 0.70129(7)
C7A C -0.1406(6) 0.4515(8) 0.63204(7)
C7EA C 1.1182(8) 0.9254(5) 0.70129(7)
C8DA C 0.7330(5) 0.8771(7) 0.71185(7)
C8Z C 1.1442(5) 1.2670(5) 0.71185(7)
C8A C -0.0663(5) 0.4562(7) 0.62148(7)
C8EA C 1.1229(7) 0.8558(5) 0.71185(7)
C9Z C 1.2466(5) 1.3068(5) 0.71087(8)
C9DA C 0.6932(5) 0.9397(7) 0.71087(8)
C9A C -0.0265(5) 0.3936(7) 0.62246(8)
C9EA C 1.0603(7) 0.7534(5) 0.71087(8)
H5Z H 1.2737 1.2864 0.7035
H5A H -0.0469 0.3461 0.6298
H5DA H 0.7136 0.9872 0.7035
H5EA H 1.0128 0.7263 0.7035
C10A C 0.0434(6) 0.4012(8) 0.61268(8)
C10Z C 1.3089(5) 1.3767(6) 0.72065(8)
C10DA C 0.6233(6) 0.9321(8) 0.72065(8)
C10EA C 1.0679(8) 0.6911(5) 0.72065(8)
H6A H 0.0706 0.3591 0.6136
H6DA H 0.5961 0.9742 0.7197
H6Z H 1.3782 1.4039 0.7197
H6EA H 1.0258 0.6218 0.7197
C11A C 0.0364(6) 0.5284(8) 0.60143(8)
C11Z C 1.1747(6) 1.3697(6) 0.73190(8)
C11DA C 0.6303(6) 0.8049(8) 0.73190(8)
C11EA C 1.1951(8) 0.8253(6) 0.73190(8)
H7A H 0.0583 0.5761 0.5942
H7DA H 0.6084 0.7572 0.7391
H7Z H 1.1489 1.3916 0.7391
H7EA H 1.2428 0.8511 0.7391
C12Z C 1.1089(5) 1.3022(6) 0.72254(7)
C12DA C 0.6978(6) 0.8066(8) 0.72254(7)
C12A C -0.0311(6) 0.5267(8) 0.61079(7)
C12EA C 1.1934(8) 0.8911(5) 0.72254(7)
H8Z H 1.0403 1.2796 0.7233
H8A H -0.0537 0.5727 0.6100
H8DA H 0.7204 0.7606 0.7233
H8EA H 1.2394 0.9597 0.7233
C13IA C 0.7630(5) 1.1940(7) 0.68880(6)
C13O C 0.9036(5) 1.1394(7) 0.64454(6)
C13Y C 1.4309(5) 1.2370(5) 0.68880(6)
C13I C 1.2357(5) 1.0964(5) 0.64454(6)
C13A C 0.0976(5) 0.5273(7) 0.52213(6)
C13N C 0.8606(7) 0.7643(5) 0.64454(6)
C13I_2 C 0.2357(5) 1.0964(5) 0.64454(6)
C13HA C 0.8060(7) 0.5691(5) 0.68880(6)
C14IA C 0.7408(5) 1.1897(7) 0.70421(6)
C14O C 0.9258(5) 1.1437(7) 0.62913(6)
C14Y C 1.4488(5) 1.2592(5) 0.70421(6)
C14A C 0.1155(5) 0.5230(7) 0.53754(6)
C14I C 1.2178(5) 1.0742(5) 0.62913(6)
C14I_2 C 0.2178(5) 1.0742(5) 0.62913(6)
C14N C 0.8563(7) 0.7822(5) 0.62913(6)
C14HA C 0.8103(7) 0.5512(5) 0.70421(6)
C15O C 0.8641(5) 1.1477(7) 0.61863(7)
C15IA C 0.8025(5) 1.1857(7) 0.71471(7)
C15Y C 1.3831(5) 1.1975(5) 0.71471(7)
C15A C 0.0498(5) 0.5190(7) 0.54804(7)
C15I C 1.2835(5) 1.1359(5) 0.61863(7)
C15I_2 C 0.2835(5) 1.1359(5) 0.61863(7)
C15N C 0.8523(7) 0.7165(5) 0.61863(7)
C15HA C 0.8143(7) 0.6169(5) 0.71471(7)
H9O H 0.8049 1.1470 0.6211
H9IA H 0.8617 1.1864 0.7123
H9Y H 1.3246 1.1383 0.7123
H9A H -0.0087 0.5197 0.5456
H9I H 1.3420 1.1951 0.6211
H9I_2 H 0.3420 1.1951 0.6211
H9N H 0.8530 0.6580 0.6211
H9HA H 0.8136 0.6754 0.7123
C16A C 0.0719(6) 0.5138(8) 0.56230(8)
C16O C 0.8914(5) 1.1529(8) 0.60437(8)
C16IA C 0.7752(5) 1.1805(8) 0.72897(8)
C16Y C 1.4052(6) 1.2248(5) 0.72897(8)
C16I C 1.2614(6) 1.1086(5) 0.60437(8)
C16I_2 C 0.2614(6) 1.1086(5) 0.60437(8)
C16N C 0.8471(8) 0.7386(6) 0.60437(8)
C16HA C 0.8195(8) 0.5948(6) 0.72897(8)
H10O H 0.8493 1.1563 0.5975
H10IA H 0.8173 1.1771 0.7359
H10Y H 1.3597 1.1827 0.7359
H10A H 0.0264 0.5104 0.5692
H10I H 1.3069 1.1507 0.5975
H10I_2 H 0.3069 1.1507 0.5975
H10N H 0.8437 0.6931 0.5975
H10HA H 0.8229 0.6403 0.7359
C17A C 0.2179(6) 0.5164(8) 0.55633(7)
C17O C 1.0348(5) 1.1503(8) 0.61034(7)
C17IA C 0.6318(5) 1.1831(8) 0.72300(7)
C17Y C 1.5512(6) 1.3682(5) 0.72300(7)
C17I C 1.1154(6) 0.9652(5) 0.61034(7)
C17I_2 C 0.1154(6) 0.9652(5) 0.61034(7)
C17N C 0.8497(8) 0.8846(6) 0.61034(7)
C17HA C 0.8169(8) 0.4488(6) 0.72300(7)
H11O H 1.0945 1.1531 0.6076
H11IA H 0.5721 1.1803 0.7258
H11Y H 1.6081 1.4279 0.7258
H11A H 0.2748 0.5136 0.5591
H11I H 1.0585 0.9055 0.6076
H11I_2 H 0.0585 0.9055 0.6076
H11HA H 0.8197 0.3919 0.7258
C18O C 1.0130(5) 1.1435(7) 0.62459(7)
C18IA C 0.6536(5) 1.1899(7) 0.70875(7)
C18Y C 1.5362(5) 1.3464(5) 0.70875(7)
C18A C 0.2029(5) 0.5232(7) 0.54208(7)
C18I C 1.1304(5) 0.9870(5) 0.62459(7)
C18I_2 C 0.1304(5) 0.9870(5) 0.62459(7)
C18N C 0.8565(7) 0.8696(5) 0.62459(7)
C18HA C 0.8101(7) 0.4638(5) 0.70875(7)
H12O H 1.0557 1.1388 0.6312
H12IA H 0.6109 1.1946 0.7022
H12Y H 1.5836 1.3891 0.7022
H12A H 0.2503 0.5279 0.5355
H12I H 1.0830 0.9443 0.6312
H12N H 0.8612 0.9170 0.6312
H12HA H 0.8054 0.4164 0.7022
N1B N 0.2529(6) 0.5239(5) 0.63564(6)
N1A N 0.2710(4) 0.7471(6) 0.63564(6)
N1B_2 N 1.2529(6) 1.5239(5) 0.63564(6)
N1A_2 N 1.2710(4) 0.7471(6) 0.63564(6)
N1_2 N 1.4761(5) 0.7290(4) 0.63564(6)
N1B_3 N 1.2529(6) 0.5239(5) 0.63564(6)
N2A N 0.0738(4) 0.4674(6) 0.60186(6)
N2B N 0.5326(6) 0.6064(4) 0.60186(6)
N2I N 0.2595(4) 1.0603(4) 0.56481(6)
N2DA N 0.5929(4) 0.8659(6) 0.73147(6)
N2Z N 1.2731(4) 1.4071(4) 0.73147(6)
N2EA N 1.1341(6) 0.7269(4) 0.73147(6)
N2O N -0.0603(4) 1.1993(6) 0.56481(6)
N2I_2 N 1.2595(4) 1.0603(4) 0.56481(6)
N2O_2 N 0.9397(4) 1.1993(6) 0.56481(6)
N3A N 0.1552(4) 0.5134(6) 0.56670(6)
N3B N 0.4866(6) 0.6418(4) 0.56670(6)
N3I N 0.1781(4) 1.0249(4) 0.59997(6)
N3O N 0.9751(4) 1.1533(6) 0.59997(6)
N3IA N 0.6915(4) 1.1801(6) 0.73337(6)
N3Y N 1.4885(4) 1.3085(4) 0.73337(6)
N3I_2 N 1.1781(4) 1.0249(4) 0.59997(6)
N3O_2 N -0.0249(4) 1.1533(6) 0.59997(6)
N3N N 0.8467(6) 0.8219(4) 0.59997(6)
N3HA N 0.8199(6) 0.5115(4) 0.73337(6)
O2B O 1.1957(6) 1.2331(4) 0.66679(6)
O2A O 1.0374(4) 0.8043(6) 0.66679(6)
O2B_2 O 0.1957(6) 0.2331(4) 0.66679(6)
O2Z O 0.8998(4) 1.3707(4) 0.66654(6)
O2A_2 O 0.0374(4) 0.8043(6) 0.66679(6)
O3A O 0.7542(4) 0.8138(6) 0.67065(6)
O3B O 1.1862(6) 0.9404(4) 0.67065(6)
O3_2 O 0.0596(4) 0.2458(4) 0.67065(6)
O3Z O 0.6071(4) 1.0875(4) 0.66268(6)
O3B_2 O 0.1862(6) 0.9404(4) 0.67065(6)
O4EA O 0.5628(6) 1.1907(5) 0.63929(5)
O4B O 1.1039(6) 1.1426(5) 0.69404(5)
O4A O 1.0387(4) 0.8961(6) 0.69404(5)
O4Z O -0.1907(5) 0.3720(4) 0.63929(5)
O4Z_2 O 0.8093(5) 1.3720(4) 0.63929(5)
O5Z O 0.6775(4) 1.1493(4) 0.63384(6)
O5A O 0.8160(4) 0.8052(6) 0.69949(6)
O5B O 1.1948(6) 1.0108(4) 0.69949(6)
O5DA O -0.1493(4) 0.5281(6) 0.63384(6)
O6GA O 0.4783(4) 0.9911(6) 0.51749(5)
O6Z O 0.8551(4) 1.1795(4) 0.64917(5)
O6B O 1.3422(6) 1.1884(4) 0.68416(5)
O6A O 0.8462(4) 0.6578(6) 0.68416(5)
O6FA O 0.0089(6) 0.4871(4) 0.51749(5)
O6EA O 1.3245(6) 1.1449(4) 0.64917(5)
O6EA_2 O 0.3245(6) 1.1449(4) 0.64917(5)
O6DA O 0.8205(4) 0.6755(6) 0.64917(5)
O7O O 0.3967(4) 0.8268(6) 0.51467(6)
O7Z O 0.7301(4) 1.2366(4) 0.68133(6)
O7B O 1.1601(6) 1.0634(4) 0.65200(6)
O7A O 0.9033(4) 0.8399(6) 0.65200(6)
O7EA O 1.5066(6) 1.2699(4) 0.68133(6)
O7N O 0.1732(6) 0.5700(4) 0.51467(6)
O7B_2 O 0.1601(6) 1.0634(4) 0.65200(6)
O7DA O 0.7634(4) 0.4934(6) 0.68133(6)
O8DA O 0.6667 1.3333 0.66208(7)
loop_
_geom_bond_atom_site_label_1
_geom_bond_atom_site_label_2
_geom_bond_site_symmetry_1
_geom_bond_site_symmetry_2
Eu1 O2 1_555 1_555
Cu1 I1 1_555 1_555
Cu2 I1 1_555 1_555
I1 Cu2A 1_555 1_555
I2 Cu2 1_555 1_555
C1 C2 1_555 1_555
C2 C3 1_555 1_555
C3 H1 1_555 1_555
C4 C3 1_555 1_555
H2 C4 1_555 1_555
C5 H3 1_555 1_555
C6 C2 1_555 1_555
H4 C6 1_555 1_555
C7 C8 1_555 1_555
C8 C9 1_555 1_555
C9 H5 1_555 1_555
C10 C9 1_555 1_555
H6 C10 1_555 1_555
C11 H7 1_555 1_555
C12 C8 1_555 1_555
H8 C12 1_555 1_555
C13 C14 1_555 1_555
C14 C15 1_555 1_555
C15 H9 1_555 1_555
C16 C15 1_555 1_555
H10 C16 1_555 1_555
C17 H11 1_555 1_555
C18 C14 1_555 1_555
H12 C18 1_555 1_555
N1 Cu1 1_555 1_555
N2 Cu2 1_555 1_555
N3 Cu2 1_555 1_555
O2 C1 1_555 1_555
O3 Eu1 1_555 1_555
O4 Eu1 1_555 1_555
O5 Eu1 1_555 1_555
O6 Eu1 1_555 1_555
O7 Eu1 1_555 1_555
O8 Eu1 1_555 1_555
Eu1B O8 1_555 1_555
Eu1A O8 1_555 1_555
Eu1EA O4EA 1_555 1_555
Eu1Z O2Z 1_555 1_555
Eu1GA O6GA 1_555 1_555
Eu1O O7O 1_555 1_555
Eu1B_2 O2B_2 1_555 1_555
Eu1_2 O3_2 1_555 1_555
Eu1Z_2 O4Z 1_555 1_555
Eu1DA O5DA 1_555 1_555
Eu1EA_2 O6EA 1_555 1_555
Eu1FA O6FA 1_555 1_555
Eu1N O7N 1_555 1_555
Eu1B_3 O3B_2 1_555 1_555
Eu1A_2 O2A_2 1_555 1_555
Eu1DA_2 O6DA 1_555 1_555
Cu1_2 N1B_2 1_555 1_555
Cu1_3 I1_2 1_555 1_555
Cu1I I1I 1_555 1_555
Cu2A I2A 1_555 1_555
Cu2B I1 1_555 1_555
Cu2I I2 1_555 1_555
Cu2O I1I_2 1_555 1_555
Cu2IA N3IA 1_555 1_555
Cu2DA N2DA 1_555 1_555
Cu2Z N2Z 1_555 1_555
Cu2Y N3Y 1_555 1_555
Cu2EA N2EA 1_555 1_555
Cu2I_2 I1I_2 1_555 1_555
Cu2N I1I 1_555 1_555
Cu2O_2 I1I 1_555 1_555
Cu2N_2 N3N 1_555 1_555
Cu2HA N3HA 1_555 1_555
I1I Cu2I 1_555 1_555
I2B Cu2B 1_555 1_555
I2A_2 Cu2O_2 1_555 1_555
I2_2 Cu2I_2 1_555 1_555
I2A_3 Cu2O 1_555 1_555
C1B O3 1_555 1_555
C1A C2A 1_555 1_555
C1B_2 C2B_2 1_555 1_555
C1A_2 C2A_2 1_555 1_555
C2B C1B 1_555 1_555
C2A C3A_2 1_555 1_555
C2B_2 C3B_2 1_555 1_555
C2A_2 C3A 1_555 1_555
C3B C2B 1_555 1_555
C3A H1A 1_555 1_555
C3B_2 H1B 1_555 1_555
C3A_2 H1A_2 1_555 1_555
H1B_2 C3B 1_555 1_555
C4B C3B_2 1_555 1_555
C4A C3A 1_555 1_555
C4B_2 C3B 1_555 1_555
C4A_2 C3A_2 1_555 1_555
H2A C4A 1_555 1_555
H2B C4B 1_555 1_555
H2B_2 C4B_2 1_555 1_555
H2A_2 C4A_2 1_555 1_555
C5B H3B 1_555 1_555
C5A H3A 1_555 1_555
C5B_2 H3B_2 1_555 1_555
C5A_2 H3A_2 1_555 1_555
C6B C2B 1_555 1_555
C6A C2A_2 1_555 1_555
C6B_2 C2B_2 1_555 1_555
C6A_2 C2A 1_555 1_555
H4B C6B 1_555 1_555
H4B_2 C6B_2 1_555 1_555
H4A C6A 1_555 1_555
H4A_2 C6A_2 1_555 1_555
C7DA O4 1_555 1_555
C7Z O5 1_555 1_555
C7A C8A 1_555 1_555
C7EA C8EA 1_555 1_555
C8DA C7DA 1_555 1_555
C8Z C7Z 1_555 1_555
C8A C9A 1_555 1_555
C8EA C9EA 1_555 1_555
C9Z C8Z 1_555 1_555
C9DA C8DA 1_555 1_555
C9A H5A 1_555 1_555
C9EA H5EA 1_555 1_555
H5Z C9Z 1_555 1_555
H5DA C9DA 1_555 1_555
C10A C9A 1_555 1_555
C10Z C9Z 1_555 1_555
C10DA C9DA 1_555 1_555
C10EA C9EA 1_555 1_555
H6A C10A 1_555 1_555
H6DA C10DA 1_555 1_555
H6Z C10Z 1_555 1_555
H6EA C10EA 1_555 1_555
C11A H7A 1_555 1_555
C11Z H7Z 1_555 1_555
C11DA H7DA 1_555 1_555
C11EA H7EA 1_555 1_555
C12Z C8Z 1_555 1_555
C12DA C8DA 1_555 1_555
C12A C8A 1_555 1_555
C12EA C8EA 1_555 1_555
H8Z C12Z 1_555 1_555
H8A C12A 1_555 1_555
H8DA C12DA 1_555 1_555
H8EA C12EA 1_555 1_555
C13IA O6 1_555 1_555
C13O O7 1_555 1_555
C13Y C14Y 1_555 1_555
C13I C14I 1_555 1_555
C13A C14A 1_555 1_555
C13N C14N 1_555 1_555
C13I_2 C14I_2 1_555 1_555
C13HA C14HA 1_555 1_555
C14IA C13IA 1_555 1_555
C14O C13O 1_555 1_555
C14Y C15Y 1_555 1_555
C14A C15A 1_555 1_555
C14I C15I 1_555 1_555
C14I_2 C15I_2 1_555 1_555
C14N C15N 1_555 1_555
C14HA C15HA 1_555 1_555
C15O C14O 1_555 1_555
C15IA C14IA 1_555 1_555
C15Y H9Y 1_555 1_555
C15A H9A 1_555 1_555
C15I H9I 1_555 1_555
C15I_2 H9I_2 1_555 1_555
C15N H9N 1_555 1_555
C15HA H9HA 1_555 1_555
H9O C15O 1_555 1_555
H9IA C15IA 1_555 1_555
C16A C15A 1_555 1_555
C16O C15O 1_555 1_555
C16IA C15IA 1_555 1_555
C16Y C15Y 1_555 1_555
C16I C15I 1_555 1_555
C16I_2 C15I_2 1_555 1_555
C16N C15N 1_555 1_555
C16HA C15HA 1_555 1_555
H10O C16O 1_555 1_555
H10IA C16IA 1_555 1_555
H10Y C16Y 1_555 1_555
H10A C16A 1_555 1_555
H10I C16I 1_555 1_555
H10I_2 C16I_2 1_555 1_555
H10N C16N 1_555 1_555
H10HA C16HA 1_555 1_555
C17A H11A 1_555 1_555
C17O H11O 1_555 1_555
C17IA H11IA 1_555 1_555
C17Y H11Y 1_555 1_555
C17I H11I 1_555 1_555
C17I_2 H11I_2 1_555 1_555
C17N C18N 1_555 1_555
C17HA H11HA 1_555 1_555
C18O C14O 1_555 1_555
C18IA C14IA 1_555 1_555
C18Y C14Y 1_555 1_555
C18A C14A 1_555 1_555
C18I C14I 1_555 1_555
C18I_2 C14I_2 1_555 1_555
C18N C14N 1_555 1_555
C18HA C14HA 1_555 1_555
H12O C18O 1_555 1_555
H12IA C18IA 1_555 1_555
H12Y C18Y 1_555 1_555
H12A C18A 1_555 1_555
H12I C18I 1_555 1_555
H12N C18N 1_555 1_555
H12HA C18HA 1_555 1_555
N1B Cu1 1_555 1_555
N1A Cu1 1_555 1_555
N1B_2 C4B_2 1_555 1_555
N1A_2 Cu1_3 1_555 1_555
N1_2 Cu1_3 1_555 1_555
N1B_3 Cu1_3 1_555 1_555
N2A Cu2A 1_555 1_555
N2B Cu2B 1_555 1_555
N2I Cu2I 1_555 1_555
N2DA C10DA 1_555 1_555
N2Z C10Z 1_555 1_555
N2EA C10EA 1_555 1_555
N2O Cu2O_2 1_555 1_555
N2I_2 Cu2I_2 1_555 1_555
N2O_2 Cu2O 1_555 1_555
N3A Cu2A 1_555 1_555
N3B Cu2B 1_555 1_555
N3I Cu2I 1_555 1_555
N3O Cu2O 1_555 1_555
N3IA C16IA 1_555 1_555
N3Y C16Y 1_555 1_555
N3I_2 Cu2I_2 1_555 1_555
N3O_2 Cu2O_2 1_555 1_555
N3N C16N 1_555 1_555
N3HA C16HA 1_555 1_555
O2B Eu1B 1_555 1_555
O2A Eu1A 1_555 1_555
O2B_2 C1B_2 1_555 1_555
O2A_2 C1A_2 1_555 1_555
O3A C1 1_555 1_555
O3B Eu1B 1_555 1_555
O3_2 C1B_2 1_555 1_555
O3Z Eu1Z 1_555 1_555
O3B_2 C1A_2 1_555 1_555
O4EA C7 1_555 1_555
O4B Eu1B 1_555 1_555
O4A Eu1A 1_555 1_555
O4Z C7A 1_555 1_555
O4Z_2 Eu1Z 1_555 1_555
O5Z C7 1_555 1_555
O5A Eu1A 1_555 1_555
O5B Eu1B 1_555 1_555
O5DA C7A 1_555 1_555
O6GA C13 1_555 1_555
O6Z Eu1Z 1_555 1_555
O6B Eu1B 1_555 1_555
O6A Eu1A 1_555 1_555
O6FA C13A 1_555 1_555
O6EA C13I 1_555 1_555
O6EA_2 Eu1EA 1_555 1_555
O6DA C13N 1_555 1_555
O7O C13 1_555 1_555
O7Z Eu1Z 1_555 1_555
O7B Eu1B 1_555 1_555
O7A Eu1A 1_555 1_555
O7EA Eu1EA_2 1_555 1_555
O7N C13A 1_555 1_555
O7B_2 Eu1B_3 1_555 1_555
O7DA Eu1DA_2 1_555 1_555
O8DA Eu1Z 1_555 1_555
C4 N1 1_555 1_555
C5 C6 1_555 1_555
C5 N1 1_555 1_555
C10 N2 1_555 1_555
C11 C12 1_555 1_555
C11 N2 1_555 1_555
C16 N3 1_555 1_555
C17 C18 1_555 1_555
C17 N3 1_555 1_555
Eu1A O3A 1_555 1_555
Eu1Z O5Z 1_555 1_555
C1B O2B 1_555 1_555
C1A O2A 1_555 1_555
C1A O3B 1_555 1_555
C4B N1B 1_555 1_555
C4A N1A 1_555 1_555
C4A_2 N1A_2 1_555 1_555
C5B C6B_2 1_555 1_555
C5B N1B 1_555 1_555
C5A C6A 1_555 1_555
C5A N1A 1_555 1_555
C5B_2 C6B 1_555 1_555
C5B_2 N1B_2 1_555 1_555
C5A_2 C6A_2 1_555 1_555
C5A_2 N1A_2 1_555 1_555
C7DA O5A 1_555 1_555
C7Z O4B 1_555 1_555
C7EA O4A 1_555 1_555
C7EA O5B 1_555 1_555
C10A N2A 1_555 1_555
C11A C12A 1_555 1_555
C11A N2A 1_555 1_555
C11Z C12Z 1_555 1_555
C11Z N2Z 1_555 1_555
C11DA C12DA 1_555 1_555
C11DA N2DA 1_555 1_555
C11EA C12EA 1_555 1_555
C11EA N2EA 1_555 1_555
C13IA O7Z 1_555 1_555
C13O O6Z 1_555 1_555
C13Y O6B 1_555 1_555
C13Y O7EA 1_555 1_555
C13I O7B 1_555 1_555
C13N O7A 1_555 1_555
C13I_2 O6EA_2 1_555 1_555
C13I_2 O7B_2 1_555 1_555
C13HA O6A 1_555 1_555
C13HA O7DA 1_555 1_555
C16A N3A 1_555 1_555
C16O N3O 1_555 1_555
C16I N3I_2 1_555 1_555
C16I_2 N3I 1_555 1_555
C17A C18A 1_555 1_555
C17A N3A 1_555 1_555
C17O C18O 1_555 1_555
C17O N3O 1_555 1_555
C17IA C18IA 1_555 1_555
C17IA N3IA 1_555 1_555
C17Y C18Y 1_555 1_555
C17Y N3Y 1_555 1_555
C17I C18I 1_555 1_555
C17I N3I_2 1_555 1_555
C17I_2 C18I_2 1_555 1_555
C17I_2 N3I 1_555 1_555
C17N N3N 1_555 1_555
C17HA C18HA 1_555 1_555
C17HA N3HA 1_555 1_555

#END
