
#######################################################################
#
#                 Cambridge Crystallographic Data Centre
#                                CCDC 
#
#######################################################################
#
# If this CIF has been generated from an entry in the Cambridge 
# Structural Database, then it will include bibliographic, chemical, 
# crystal, experimental, refinement or atomic coordinate data resulting 
# from the CCDC's data processing and validation procedures.
#
#######################################################################

data_NITCOJ
_symmetry_cell_setting           orthorhombic
_symmetry_space_group_name_H-M   'P c a 21'
_symmetry_Int_Tables_number      29
_space_group_name_Hall           'P 2c -2ac'
loop_
_symmetry_equiv_pos_site_id
_symmetry_equiv_pos_as_xyz
1 x,y,z
2 -x,-y,1/2+z
3 1/2+x,-y,z
4 1/2-x,y,1/2+z
_cell_length_a                   21.4256(3)
_cell_length_b                   7.23140(10)
_cell_length_c                   35.3093(5)
_cell_angle_alpha                90
_cell_angle_beta                 90
_cell_angle_gamma                90
_cell_volume                     5470.72
loop_
_atom_site_label
_atom_site_type_symbol
_atom_site_fract_x
_atom_site_fract_y
_atom_site_fract_z
I1 I 0.15982(4) 0.27026(12) 0.21952(3)
I2 I 0.37322(4) 0.30560(11) 0.22663(2)
I3 I 0.24810(4) 0.77797(10) 0.21623(3)
I4 I -0.04055(4) 0.18997(11) 0.21400(3)
C1 C -0.1659(6) 1.7733(15) 0.4074(3)
C2 C -0.1636(5) 1.8747(15) 0.3705(3)
C3 C -0.2169(6) 1.9271(17) 0.3501(4)
H1 H -0.2564 1.9122 0.3607
C4 C -0.2107(6) 2.0002(17) 0.3146(4)
H2 H -0.2465 2.0319 0.3012
C5 C -0.1045(6) 1.986(2) 0.3177(4)
H3 H -0.0658 2.0112 0.3070
C6 C -0.1059(6) 1.9056(18) 0.3534(4)
H4 H -0.0690 1.8730 0.3656
C7 C 0.1936(5) 0.5315(14) 0.5133(3)
C8 C 0.1803(5) 0.5530(16) 0.5557(3)
C9 C 0.1214(6) 0.5995(18) 0.5687(4)
H5 H 0.0885 0.6144 0.5517
C10 C 0.1120(6) 0.6236(19) 0.6071(4)
H6 H 0.0720 0.6542 0.6153
C11 C 0.2138(7) 0.5578(18) 0.6201(4)
H7 H 0.2461 0.5432 0.6374
C12 C 0.2271(6) 0.5287(17) 0.5818(3)
H8 H 0.2669 0.4937 0.5742
C13 C 0.1663(6) 1.0173(16) 0.5265(4)
C14 C 0.1830(6) 1.0523(16) 0.5670(3)
C15 C 0.1367(6) 1.1027(18) 0.5925(4)
H9 H 0.0956 1.1165 0.5846
C16 C 0.1533(6) 1.1316(18) 0.6294(4)
H10 H 0.1221 1.1665 0.6462
C17 C 0.2557(7) 1.0650(19) 0.6181(4)
H11 H 0.2963 1.0519 0.6270
C18 C 0.2441(7) 1.034(2) 0.5806(4)
H12 H 0.2764 1.0021 0.5643
C19 C -0.1139(6) 1.2794(19) 0.5503(4)
C20 C -0.0879(6) 1.3326(16) 0.5884(4)
C21 C -0.0667(8) 1.205(2) 0.6133(4)
H13 H -0.0666 1.0804 0.6064
C22 C -0.0454(9) 1.256(2) 0.6486(5)
H14 H -0.0316 1.1647 0.6652
C23 C -0.0623(8) 1.5592(19) 0.6355(4)
H15 H -0.0611 1.6829 0.6427
C24 C -0.0840(7) 1.516(2) 0.5993(4)
H16 H -0.0956 1.6090 0.5827
C25 C 0.2546(5) 0.6815(15) 0.4150(4)
C26 C 0.2588(6) 0.6044(16) 0.3751(4)
C27 C 0.2037(6) 0.553(2) 0.3567(4)
H17 H 0.1654 0.5589 0.3690
C28 C 0.2083(7) 0.494(2) 0.3196(4)
H18 H 0.1718 0.4622 0.3070
C29 C 0.3145(6) 0.5251(17) 0.3193(4)
H19 H 0.3524 0.5151 0.3066
C30 C 0.3151(5) 0.5842(16) 0.3557(4)
H20 H 0.3527 0.6111 0.3677
C31 C 0.0876(6) 0.9182(19) 0.3658(4)
C32 C 0.0701(6) 0.8171(19) 0.3291(4)
C33 C 0.0396(6) 0.6472(19) 0.3300(4)
H21 H 0.0288 0.5926 0.3529
C34 C 0.0260(7) 0.562(2) 0.2962(4)
H22 H 0.0045 0.4505 0.2970
C35 C 0.0696(7) 0.793(2) 0.2620(4)
H23 H 0.0799 0.8452 0.2388
C36 C 0.0843(7) 0.890(2) 0.2947(5)
H24 H 0.1038 1.0047 0.2931
C37 C -0.0122(5) 1.6111(13) 0.4786(4)
C38 C -0.0151(5) 1.4062(13) 0.4659(3)
C39 C 0.0367(5) 1.2952(15) 0.4625(3)
H25 H 0.0762 1.3451 0.4665
C40 C -0.0270(5) 1.0545(15) 0.4457(3)
H26 H -0.0326 0.9318 0.4385
C41 C -0.0782(5) 1.1692(15) 0.4482(4)
H27 H -0.1174 1.1238 0.4419
N1 N -0.1542(5) 2.0282(15) 0.2983(3)
N2 N 0.1573(5) 0.6054(14) 0.6333(3)
N3 N 0.2106(5) 1.1133(14) 0.6427(3)
N4 N -0.0437(6) 1.4345(16) 0.6598(3)
N5 N 0.2627(5) 0.4805(15) 0.3007(3)
N6 N 0.0415(5) 0.6295(15) 0.2623(3)
N7 N -0.0725(4) 1.3461(11) 0.4598(3)
N8 N 0.0312(4) 1.1164(12) 0.4534(3)
O1 O -0.2175(4) 1.7563(10) 0.4246(2)
O2 O -0.1731(4) 1.8795(12) 0.4991(3)
O3 O -0.1155(4) 1.7058(12) 0.4198(2)
O4 O 0.1594(3) 1.1551(11) 0.4295(3)
O5 O 0.2408(3) 0.4356(11) 0.5050(2)
O7 O 0.1568(4) 0.6073(11) 0.4913(2)
O8 O 0.2082(4) 0.9801(12) 0.5024(2)
O9 O 0.1092(4) 1.0130(13) 0.5179(2)
O10 O -0.1080(5) 1.1145(13) 0.5404(3)
O11 O -0.1417(4) 1.4030(12) 0.5316(2)
O12 O 0.2072(4) 0.7758(12) 0.4219(3)
O13 O 0.2991(3) 0.6522(10) 0.4370(2)
O14 O 0.1097(6) 1.0762(16) 0.3619(3)
O15 O 0.0790(4) 0.8332(12) 0.3965(3)
O16 O -0.0594(4) 1.6767(10) 0.4927(2)
O17 O 0.0385(3) 1.6913(10) 0.4725(3)
Gd1 Gd 0.12393(2) 0.86933(7) 0.457705(16)
Gd2 Gd -0.16169(2) 1.57208(7) 0.477640(17)
Cu1 Cu 0.26073(9) 0.4205(3) 0.24503(5)
Cu2 Cu 0.35135(9) -0.0917(3) 0.24252(5)
Cu3 Cu 0.02388(11) 0.5066(3) 0.21391(6)
Cu4 Cu 0.14322(9) 0.6430(3) 0.68975(5)
Cu5 Cu 0.23057(8) 1.1479(2) 0.69884(5)
I1C I 0.34018(4) 1.27026(12) 0.71952(3)
I2C I 0.12678(4) 0.30560(11) 0.72663(2)
I2C_2 I 0.12678(4) 1.30560(11) 0.72663(2)
I3_2 I 0.24810(4) -0.22203(10) 0.21623(3)
I3C I 0.25190(4) 0.77797(10) 0.71623(3)
I4B I 0.45945(4) -0.18997(11) 0.21400(3)
I4A I 0.04055(4) 0.81003(11) 0.71400(3)
N1B N 0.3458(5) -0.0282(15) 0.2983(3)
N4A N 0.0437(6) 0.5655(16) 0.1598(3)
O5B O -0.2592(3) 1.5644(11) 0.5050(2)
O13B O -0.2009(3) 1.3478(10) 0.4370(2)
O17_2 O 0.0385(3) 0.6913(10) 0.4725(3)
Gd1_2 Gd 0.12393(2) 1.86933(7) 0.457705(16)
Gd2B Gd 0.33831(2) 0.42792(7) 0.477640(17)
Cu1C Cu 0.23927(9) 1.4205(3) 0.74503(5)
Cu2_2 Cu 0.35135(9) 0.9083(3) 0.24252(5)
Cu2B Cu -0.14865(9) 0.0917(3) 0.24252(5)
Cu2B_2 Cu -0.14865(9) 2.0917(3) 0.24252(5)
Cu2C Cu 0.14865(9) 0.9083(3) 0.74252(5)
Cu3A Cu -0.02388(11) 1.4934(3) 0.71391(6)
Cu4C Cu 0.35678(9) 0.6430(3) 0.18975(5)
Cu4A Cu -0.14322(9) 0.3570(3) 0.18975(5)
Cu4C_2 Cu 0.35678(9) -0.3570(3) 0.18975(5)
Cu5C Cu 0.26943(8) 0.1479(2) 0.19884(5)
Cu5C_2 Cu 0.26943(8) 1.1479(2) 0.19884(5)
O6 O 0.0004(6) -0.1257(17) 0.5627(4)
loop_
_geom_bond_atom_site_label_1
_geom_bond_atom_site_label_2
_geom_bond_site_symmetry_1
_geom_bond_site_symmetry_2
I1 Cu1 1_555 1_555
I2 Cu1 1_555 1_555
I3 Cu1 1_555 1_555
I4 Cu3 1_555 1_555
C1 C2 1_555 1_555
C2 C3 1_555 1_555
C3 H1 1_555 1_555
C4 C3 1_555 1_555
H2 C4 1_555 1_555
C5 H3 1_555 1_555
C6 C2 1_555 1_555
H4 C6 1_555 1_555
C7 C8 1_555 1_555
C8 C9 1_555 1_555
C9 H5 1_555 1_555
C10 C9 1_555 1_555
H6 C10 1_555 1_555
C11 H7 1_555 1_555
C12 C8 1_555 1_555
H8 C12 1_555 1_555
C13 C14 1_555 1_555
C14 C15 1_555 1_555
C15 H9 1_555 1_555
C16 C15 1_555 1_555
H10 C16 1_555 1_555
C17 H11 1_555 1_555
C18 C14 1_555 1_555
H12 C18 1_555 1_555
C19 C20 1_555 1_555
C20 C21 1_555 1_555
C21 H13 1_555 1_555
C22 C21 1_555 1_555
H14 C22 1_555 1_555
C23 H15 1_555 1_555
C24 C20 1_555 1_555
H16 C24 1_555 1_555
C25 C26 1_555 1_555
C26 C27 1_555 1_555
C27 H17 1_555 1_555
C28 C27 1_555 1_555
H18 C28 1_555 1_555
C29 H19 1_555 1_555
C30 C26 1_555 1_555
H20 C30 1_555 1_555
C31 C32 1_555 1_555
C32 C33 1_555 1_555
C33 H21 1_555 1_555
C34 C33 1_555 1_555
H22 C34 1_555 1_555
C35 H23 1_555 1_555
C36 C32 1_555 1_555
H24 C36 1_555 1_555
C37 C38 1_555 1_555
C38 C39 1_555 1_555
C39 H25 1_555 1_555
C40 H26 1_555 1_555
C41 C40 1_555 1_555
H27 C41 1_555 1_555
N1 C4 1_555 1_555
N2 C10 1_555 1_555
N3 C16 1_555 1_555
N4 C22 1_555 1_555
N5 C28 1_555 1_555
N6 C34 1_555 1_555
N7 C38 1_555 1_555
N8 C39 1_555 1_555
O1 C1 1_555 1_555
O2 Gd2 1_555 1_555
O3 C1 1_555 1_555
O4 Gd1 1_555 1_555
O5 C7 1_555 1_555
O7 C7 1_555 1_555
O8 C13 1_555 1_555
O9 C13 1_555 1_555
O10 C19 1_555 1_555
O11 C19 1_555 1_555
O12 C25 1_555 1_555
O13 C25 1_555 1_555
O14 C31 1_555 1_555
O15 C31 1_555 1_555
O16 C37 1_555 1_555
O17 C37 1_555 1_555
Gd1 N8 1_555 1_555
Gd2 N7 1_555 1_555
Cu1 N5 1_555 1_555
Cu2 I2 1_555 1_555
Cu3 N6 1_555 1_555
Cu4 N2 1_555 1_555
Cu5 N3 1_555 1_555
I1C Cu5 1_555 1_555
I2C Cu4 1_555 1_555
I2C_2 Cu5 1_555 1_555
I3_2 Cu2 1_555 1_555
I3C Cu4 1_555 1_555
I4B Cu2 1_555 1_555
I4A Cu4 1_555 1_555
N1B Cu2 1_555 1_555
N4A Cu3 1_555 1_555
O5B Gd2 1_555 1_555
O13B Gd2 1_555 1_555
O17_2 Gd1 1_555 1_555
Gd1_2 O17 1_555 1_555
Gd2B O5 1_555 1_555
Cu1C Cu5 1_555 1_555
Cu2_2 I3 1_555 1_555
Cu2B I4 1_555 1_555
Cu2B_2 N1 1_555 1_555
Cu2C Cu4 1_555 1_555
Cu3A N4 1_555 1_555
Cu4C I2 1_555 1_555
Cu4A I4 1_555 1_555
Cu4C_2 Cu2 1_555 1_555
Cu5C I1 1_555 1_555
Cu5C_2 I3 1_555 1_555
I2 Cu5C 1_555 1_555
I3 Cu4C 1_555 1_555
C5 C6 1_555 1_555
C5 N1 1_555 1_555
C11 C12 1_555 1_555
C11 N2 1_555 1_555
C17 C18 1_555 1_555
C17 N3 1_555 1_555
C23 C24 1_555 1_555
C23 N4 1_555 1_555
C29 C30 1_555 1_555
C29 N5 1_555 1_555
C35 C36 1_555 1_555
C35 N6 1_555 1_555
C40 N8 1_555 1_555
C41 N7 1_555 1_555
O1 Gd2 1_555 1_555
O3 Gd2 1_555 1_555
O7 Gd1 1_555 1_555
O8 Gd1 1_555 1_555
O9 Gd1 1_555 1_555
O11 Gd2 1_555 1_555
O12 Gd1 1_555 1_555
O13 Gd2B 1_555 1_555
O15 Gd1 1_555 1_555
O16 Gd2 1_555 1_555
Cu1 Cu5C 1_555 1_555
Cu2 Cu5C 1_555 1_555
Cu5 I3C 1_555 1_555
Cu5 Cu2C 1_555 1_555
I1C Cu1C 1_555 1_555
I2C_2 Cu1C 1_555 1_555
I2C_2 Cu2C 1_555 1_555
I3_2 Cu4C_2 1_555 1_555
I3_2 Cu5C 1_555 1_555
I3C Cu2C 1_555 1_555
I4B Cu4C_2 1_555 1_555
I4A Cu2C 1_555 1_555
Cu2_2 Cu4C 1_555 1_555
Cu2_2 Cu5C_2 1_555 1_555
Cu2B Cu4A 1_555 1_555

#END
