
#######################################################################
#
#                 Cambridge Crystallographic Data Centre
#                                CCDC 
#
#######################################################################
#
# If this CIF has been generated from an entry in the Cambridge 
# Structural Database, then it will include bibliographic, chemical, 
# crystal, experimental, refinement or atomic coordinate data resulting 
# from the CCDC's data processing and validation procedures.
#
#######################################################################

data_NITDIE
_symmetry_cell_setting           orthorhombic
_symmetry_space_group_name_H-M   'P c a 21'
_symmetry_Int_Tables_number      29
_space_group_name_Hall           'P 2c -2ac'
loop_
_symmetry_equiv_pos_site_id
_symmetry_equiv_pos_as_xyz
1 x,y,z
2 -x,-y,1/2+z
3 1/2+x,-y,z
4 1/2-x,y,1/2+z
_cell_length_a                   21.1582(3)
_cell_length_b                   7.204
_cell_length_c                   35.1354(6)
_cell_angle_alpha                90
_cell_angle_beta                 90
_cell_angle_gamma                90
_cell_volume                     5355.47
loop_
_atom_site_label
_atom_site_type_symbol
_atom_site_fract_x
_atom_site_fract_y
_atom_site_fract_z
Yb1 Yb 0.124745(16) 0.86746(5) 0.458204(12)
Yb2 Yb -0.159540(16) 1.56982(5) 0.476770(11)
Cu1 Cu 0.26068(7) 0.4223(2) 0.24561(4)
Cu2 Cu 0.35042(7) -0.0922(2) 0.24246(4)
Cu3 Cu 0.02747(10) 0.5067(3) 0.21443(5)
Cu4 Cu 0.14396(8) 0.6412(2) 0.68905(4)
Cu5 Cu 0.23107(6) 1.1481(2) 0.69909(4)
I1 I 0.15797(3) 0.26740(10) 0.22090(3)
I2 I 0.37388(3) 0.30538(9) 0.226790(19)
I3 I 0.24592(3) 0.77624(8) 0.21601(2)
I4 I -0.04031(3) 0.19048(10) 0.21374(2)
C1 C -0.1658(5) 1.7720(13) 0.4090(3)
C2 C -0.1647(5) 1.8720(13) 0.3716(3)
C3 C -0.2185(5) 1.9234(14) 0.3519(3)
H1 H -0.2583 1.9074 0.3626
C4 C -0.2121(5) 1.9996(14) 0.3157(3)
H2 H -0.2485 2.0298 0.3023
C5 C -0.1042(5) 1.9840(15) 0.3182(3)
H3 H -0.0651 2.0053 0.3069
C6 C -0.1057(5) 1.9045(14) 0.3537(3)
H4 H -0.0683 1.8722 0.3659
C7 C 0.1967(4) 0.5323(12) 0.5126(3)
C8 C 0.1826(4) 0.5517(13) 0.5545(3)
C9 C 0.1221(5) 0.5983(16) 0.5678(3)
H5 H 0.0891 0.6144 0.5507
C10 C 0.1121(5) 0.6198(16) 0.6056(3)
H6 H 0.0713 0.6474 0.6137
C11 C 0.2153(6) 0.5548(15) 0.6195(3)
H7 H 0.2476 0.5381 0.6372
C12 C 0.2294(5) 0.5280(15) 0.5809(3)
H8 H 0.2699 0.4946 0.5733
C13 C 0.1685(4) 1.0120(14) 0.5261(3)
C14 C 0.1848(5) 1.0495(14) 0.5668(3)
C15 C 0.1379(5) 1.1034(16) 0.5923(3)
H9 H 0.0965 1.1202 0.5840
C16 C 0.1532(5) 1.1308(15) 0.6288(3)
H10 H 0.1211 1.1636 0.6456
C17 C 0.2565(5) 1.0661(17) 0.6186(3)
H11 H 0.2978 1.0571 0.6276
C18 C 0.2451(5) 1.0287(17) 0.5805(3)
H12 H 0.2777 0.9902 0.5645
C19 C -0.1124(5) 1.2818(14) 0.5488(3)
C20 C -0.0887(5) 1.3350(14) 0.5875(3)
C21 C -0.0688(7) 1.2010(17) 0.6134(4)
H13 H -0.0693 1.0761 0.6066
C22 C -0.0484(8) 1.2541(18) 0.6490(4)
H14 H -0.0358 1.1625 0.6660
C23 C -0.0621(6) 1.5576(17) 0.6348(3)
H15 H -0.0578 1.6818 0.6415
C24 C -0.0850(6) 1.5172(16) 0.5990(3)
H16 H -0.0979 1.6122 0.5829
C25 C 0.2548(4) 0.6812(13) 0.4167(3)
C26 C 0.2588(4) 0.6046(13) 0.3768(3)
C27 C 0.2038(5) 0.5543(17) 0.3581(3)
H17 H 0.1649 0.5624 0.3702
C28 C 0.2081(5) 0.4916(18) 0.3209(3)
H18 H 0.1710 0.4560 0.3088
C29 C 0.3144(5) 0.5280(14) 0.3205(3)
H19 H 0.3527 0.5214 0.3076
C30 C 0.3152(5) 0.5872(14) 0.3575(3)
H20 H 0.3533 0.6152 0.3694
C31 C 0.0878(5) 0.9172(17) 0.3681(3)
C32 C 0.0699(5) 0.8147(16) 0.3317(3)
C33 C 0.0401(5) 0.6450(17) 0.3321(3)
H21 H 0.0294 0.5888 0.3550
C34 C 0.0261(6) 0.5586(17) 0.2977(3)
H22 H 0.0052 0.4452 0.2985
C35 C 0.0701(6) 0.7930(17) 0.2632(3)
H23 H 0.0826 0.8443 0.2401
C36 C 0.0829(6) 0.8922(16) 0.2967(4)
H24 H 0.1001 1.0108 0.2952
C37 C -0.0107(4) 1.6091(11) 0.4777(3)
C38 C -0.0139(4) 1.4063(12) 0.4659(2)
C39 C 0.0385(4) 1.2924(12) 0.4631(3)
H25 H 0.0786 1.3409 0.4674
C40 C -0.0260(4) 1.0507(13) 0.4459(3)
H26 H -0.0317 0.9283 0.4382
C41 C -0.0777(4) 1.1686(12) 0.4488(3)
H27 H -0.1176 1.1227 0.4430
N1 N -0.1559(4) 2.0318(12) 0.2991(2)
N2 N 0.1576(4) 0.6035(12) 0.6325(3)
N3 N 0.2120(4) 1.1137(12) 0.6427(3)
N4 N -0.0459(5) 1.4307(14) 0.6601(3)
N5 N 0.2619(4) 0.4790(14) 0.3015(3)
N6 N 0.0411(4) 0.6292(14) 0.2628(3)
N7 N -0.0720(3) 1.3466(10) 0.4596(2)
N8 N 0.0318(3) 1.1131(10) 0.4542(2)
O1 O -0.2175(3) 1.7524(9) 0.4264(2)
O2 O -0.1717(3) 1.8665(10) 0.4992(2)
O3 O -0.1156(3) 1.6983(10) 0.4206(2)
O4 O 0.1591(3) 1.1458(9) 0.43247(19)
O5 O 0.2440(3) 0.4375(10) 0.5039(2)
O7 O 0.1598(3) 0.6106(10) 0.4894(2)
O8 O 0.2104(3) 0.9760(10) 0.5020(2)
O9 O 0.1103(3) 1.0009(10) 0.5174(2)
O10 O -0.1059(4) 1.1173(11) 0.5387(2)
O11 O -0.1398(3) 1.4083(10) 0.5295(2)
O12 O 0.2066(3) 0.7795(10) 0.4228(2)
O13 O 0.2990(3) 0.6492(9) 0.43937(19)
O14 O 0.1086(5) 1.0787(13) 0.3646(2)
O15 O 0.0798(3) 0.8276(10) 0.3992(2)
O16 O -0.0595(3) 1.6768(9) 0.49169(19)
O17 O 0.0408(3) 1.6941(8) 0.4724(2)
Yb1_2 Yb 0.124745(16) 1.86746(5) 0.458204(12)
Yb2B Yb 0.340460(16) 0.43018(5) 0.476770(11)
Cu1C Cu 0.23932(7) 1.4223(2) 0.74561(4)
Cu2C Cu 0.14958(7) 0.9078(2) 0.74246(4)
Cu2_2 Cu 0.35042(7) 0.9078(2) 0.24246(4)
Cu2B Cu -0.14958(7) 0.0922(2) 0.24246(4)
Cu2B_2 Cu -0.14958(7) 2.0922(2) 0.24246(4)
Cu3A Cu -0.02747(10) 1.4933(3) 0.71443(5)
Cu4C Cu 0.35604(8) -0.3588(2) 0.18905(4)
Cu4C_2 Cu 0.35604(8) 0.6412(2) 0.18905(4)
Cu4A Cu -0.14396(8) 0.3588(2) 0.18905(4)
Cu5C Cu 0.26893(6) 0.1481(2) 0.19909(4)
Cu5C_2 Cu 0.26893(6) 1.1481(2) 0.19909(4)
I1C I 0.34203(3) 1.26740(10) 0.72090(3)
I2C I 0.12612(3) 0.30538(9) 0.726790(19)
I2C_2 I 0.12612(3) 1.30538(9) 0.726790(19)
I3_2 I 0.24592(3) -0.22376(8) 0.21601(2)
I3C I 0.25408(3) 0.77624(8) 0.71601(2)
I4B I 0.45969(3) -0.19048(10) 0.21374(2)
I4A I 0.04031(3) 0.80952(10) 0.71374(2)
N1B N 0.3441(4) -0.0318(12) 0.2991(2)
N4A N 0.0459(5) 0.5693(14) 0.1601(3)
O5B O -0.2560(3) 1.5625(10) 0.5039(2)
O13B O -0.2010(3) 1.3508(9) 0.43937(19)
O17_2 O 0.0408(3) 0.6941(8) 0.4724(2)
O6 O 0.0002(5) -0.1216(16) 0.5629(3)
loop_
_geom_bond_atom_site_label_1
_geom_bond_atom_site_label_2
_geom_bond_site_symmetry_1
_geom_bond_site_symmetry_2
Yb1 N8 1_555 1_555
Yb2 N7 1_555 1_555
Cu1 I1 1_555 1_555
Cu2 I2 1_555 1_555
Cu3 I4 1_555 1_555
Cu4 N2 1_555 1_555
Cu5 N3 1_555 1_555
I1 Cu5C 1_555 1_555
I2 Cu1 1_555 1_555
I3 Cu1 1_555 1_555
I4 Cu2B 1_555 1_555
C1 C2 1_555 1_555
C2 C3 1_555 1_555
C3 H1 1_555 1_555
C4 C3 1_555 1_555
H2 C4 1_555 1_555
C5 H3 1_555 1_555
C6 C2 1_555 1_555
H4 C6 1_555 1_555
C7 C8 1_555 1_555
C8 C9 1_555 1_555
C9 H5 1_555 1_555
C10 C9 1_555 1_555
H6 C10 1_555 1_555
C11 H7 1_555 1_555
C12 C8 1_555 1_555
H8 C12 1_555 1_555
C13 C14 1_555 1_555
C14 C15 1_555 1_555
C15 H9 1_555 1_555
C16 C15 1_555 1_555
H10 C16 1_555 1_555
C17 H11 1_555 1_555
C18 C14 1_555 1_555
H12 C18 1_555 1_555
C19 C20 1_555 1_555
C20 C21 1_555 1_555
C21 H13 1_555 1_555
C22 C21 1_555 1_555
H14 C22 1_555 1_555
C23 H15 1_555 1_555
C24 C20 1_555 1_555
H16 C24 1_555 1_555
C25 C26 1_555 1_555
C26 C27 1_555 1_555
C27 H17 1_555 1_555
C28 C27 1_555 1_555
H18 C28 1_555 1_555
C29 H19 1_555 1_555
C30 C26 1_555 1_555
H20 C30 1_555 1_555
C31 C32 1_555 1_555
C32 C33 1_555 1_555
C33 H21 1_555 1_555
C34 C33 1_555 1_555
H22 C34 1_555 1_555
C35 H23 1_555 1_555
C36 C32 1_555 1_555
H24 C36 1_555 1_555
C37 C38 1_555 1_555
C38 C39 1_555 1_555
C39 H25 1_555 1_555
C40 H26 1_555 1_555
C41 C40 1_555 1_555
H27 C41 1_555 1_555
N1 C4 1_555 1_555
N2 C10 1_555 1_555
N3 C16 1_555 1_555
N4 C22 1_555 1_555
N5 Cu1 1_555 1_555
N6 Cu3 1_555 1_555
N7 C38 1_555 1_555
N8 C39 1_555 1_555
O1 Yb2 1_555 1_555
O2 Yb2 1_555 1_555
O3 Yb2 1_555 1_555
O4 Yb1 1_555 1_555
O5 C7 1_555 1_555
O7 Yb1 1_555 1_555
O8 Yb1 1_555 1_555
O9 Yb1 1_555 1_555
O10 C19 1_555 1_555
O11 Yb2 1_555 1_555
O12 Yb1 1_555 1_555
O13 C25 1_555 1_555
O14 C31 1_555 1_555
O15 Yb1 1_555 1_555
O16 Yb2 1_555 1_555
O17 C37 1_555 1_555
Yb1_2 O17 1_555 1_555
Yb2B O5 1_555 1_555
Cu1C Cu5 1_555 1_555
Cu2C Cu4 1_555 1_555
Cu2_2 I3 1_555 1_555
Cu2B Cu4A 1_555 1_555
Cu2B_2 N1 1_555 1_555
Cu3A N4 1_555 1_555
Cu4C Cu2 1_555 1_555
Cu4C_2 I2 1_555 1_555
Cu4A I4 1_555 1_555
Cu5C Cu1 1_555 1_555
Cu5C_2 I3 1_555 1_555
I1C Cu5 1_555 1_555
I2C Cu4 1_555 1_555
I2C_2 Cu5 1_555 1_555
I3_2 Cu2 1_555 1_555
I3C Cu4 1_555 1_555
I4B Cu2 1_555 1_555
I4A Cu4 1_555 1_555
N1B Cu2 1_555 1_555
N4A Cu3 1_555 1_555
O5B Yb2 1_555 1_555
O13B Yb2 1_555 1_555
O17_2 Yb1 1_555 1_555
Cu2 Cu5C 1_555 1_555
Cu5 Cu2C 1_555 1_555
Cu5 I3C 1_555 1_555
I2 Cu5C 1_555 1_555
I3 Cu4C_2 1_555 1_555
C1 O1 1_555 1_555
C1 O3 1_555 1_555
C5 C6 1_555 1_555
C5 N1 1_555 1_555
C7 O7 1_555 1_555
C11 C12 1_555 1_555
C11 N2 1_555 1_555
C13 O8 1_555 1_555
C13 O9 1_555 1_555
C17 C18 1_555 1_555
C17 N3 1_555 1_555
C19 O11 1_555 1_555
C23 C24 1_555 1_555
C23 N4 1_555 1_555
C25 O12 1_555 1_555
C28 N5 1_555 1_555
C29 C30 1_555 1_555
C29 N5 1_555 1_555
C31 O15 1_555 1_555
C34 N6 1_555 1_555
C35 C36 1_555 1_555
C35 N6 1_555 1_555
C37 O16 1_555 1_555
C40 N8 1_555 1_555
C41 N7 1_555 1_555
O13 Yb2B 1_555 1_555
Cu1C I1C 1_555 1_555
Cu1C I2C_2 1_555 1_555
Cu2C I2C_2 1_555 1_555
Cu2C I3C 1_555 1_555
Cu2C I4A 1_555 1_555
Cu2_2 Cu4C_2 1_555 1_555
Cu2_2 Cu5C_2 1_555 1_555
Cu4C I3_2 1_555 1_555
Cu4C I4B 1_555 1_555
Cu5C I3_2 1_555 1_555

#END
