
#######################################################################
#
#                 Cambridge Crystallographic Data Centre
#                                CCDC 
#
#######################################################################
#
# If this CIF has been generated from an entry in the Cambridge 
# Structural Database, then it will include bibliographic, chemical, 
# crystal, experimental, refinement or atomic coordinate data resulting 
# from the CCDC's data processing and validation procedures.
#
#######################################################################

data_NITHOP
_symmetry_cell_setting           monoclinic
_symmetry_space_group_name_H-M   'P 21/c'
_symmetry_Int_Tables_number      14
_space_group_name_Hall           '-P 2ybc'
loop_
_symmetry_equiv_pos_site_id
_symmetry_equiv_pos_as_xyz
1 x,y,z
2 -x,1/2+y,1/2-z
3 -x,-y,-z
4 x,1/2-y,1/2+z
_cell_length_a                   9.5310(6)
_cell_length_b                   42.837(2)
_cell_length_c                   10.6511(7)
_cell_angle_alpha                90
_cell_angle_beta                 101.489(6)
_cell_angle_gamma                90
_cell_volume                     4261.49
loop_
_atom_site_label
_atom_site_type_symbol
_atom_site_fract_x
_atom_site_fract_y
_atom_site_fract_z
K1 K 1.43527(8) 0.099413(19) 0.69758(8)
P1 P 1.17796(9) 0.15408(2) 0.75277(9)
N1 N 1.3463(3) 0.15646(6) 0.7673(3)
C1 C 1.1155(4) 0.12160(8) 0.6663(3)
H1 H 1.1544 0.1202 0.5910
P2 P 1.00293(9) 0.09062(2) 0.67544(8)
N2 N 1.0679(3) 0.05699(6) 0.7084(3)
C2 C 1.1255(4) 0.15183(8) 0.9082(3)
C3 C 1.1981(4) 0.13035(9) 0.9955(4)
H2 H 1.2652 0.1165 0.9703
C4 C 1.1728(5) 0.12905(10) 1.1189(4)
H3 H 1.2230 0.1143 1.1779
C5 C 1.0773(5) 0.14860(11) 1.1565(4)
H4 H 1.0610 0.1475 1.2415
C6 C 1.0034(4) 0.17014(10) 1.0716(4)
H5 H 0.9357 0.1837 1.0978
C7 C 1.0287(4) 0.17194(9) 0.9474(4)
H6 H 0.9795 0.1870 0.8894
C8 C 1.0916(3) 0.18934(8) 0.6772(3)
C9 C 0.9752(4) 0.18704(9) 0.5743(4)
H7 H 0.9366 0.1671 0.5485
C10 C 0.9159(4) 0.21316(9) 0.5098(4)
H8 H 0.8382 0.2110 0.4390
C11 C 0.9687(4) 0.24258(10) 0.5474(4)
H9 H 0.9279 0.2606 0.5025
C12 C 1.0820(4) 0.24540(9) 0.6516(4)
H10 H 1.1177 0.2655 0.6794
C13 C 1.1426(4) 0.21897(8) 0.7145(4)
H11 H 1.2209 0.2211 0.7848
C14 C 0.8856(3) 0.09747(8) 0.7871(3)
C15 C 0.8702(4) 0.07505(8) 0.8778(3)
H12 H 0.9250 0.0564 0.8838
C16 C 0.7754(4) 0.07967(9) 0.9598(4)
H13 H 0.7648 0.0642 1.0211
C17 C 0.6967(4) 0.10699(9) 0.9511(4)
H14 H 0.6331 0.1104 1.0080
C18 C 0.7095(4) 0.12923(9) 0.8610(4)
H15 H 0.6548 0.1479 0.8555
C19 C 0.8025(3) 0.12433(8) 0.7782(3)
H16 H 0.8096 0.1395 0.7147
C20 C 0.8708(3) 0.08977(8) 0.5242(3)
C21 C 0.7608(4) 0.06776(9) 0.5116(4)
H17 H 0.7537 0.0545 0.5816
C22 C 0.6619(4) 0.06508(11) 0.3973(4)
H18 H 0.5879 0.0499 0.3898
C23 C 0.6693(5) 0.08400(12) 0.2951(4)
H19 H 0.6007 0.0821 0.2174
C24 C 0.7766(4) 0.10573(10) 0.3060(4)
H20 H 0.7828 0.1189 0.2356
C25 C 0.8763(4) 0.10851(9) 0.4198(3)
H21 H 0.9501 0.1237 0.4260
C26 C 1.4384(3) 0.18224(8) 0.7681(3)
C27 C 1.5087(3) 0.19634(8) 0.8832(3)
C28 C 1.6105(4) 0.21924(8) 0.8805(4)
H22 H 1.6553 0.2290 0.9583
C29 C 1.6487(4) 0.22830(9) 0.7670(4)
H23 H 1.7210 0.2436 0.7670
C30 C 1.5796(4) 0.21470(9) 0.6541(4)
H24 H 1.6050 0.2209 0.5760
C31 C 1.4742(4) 0.19225(8) 0.6512(3)
C32 C 1.4778(4) 0.18566(9) 1.0122(3)
H25 H 1.4306 0.1648 0.9984
C33 C 1.6126(4) 0.18172(9) 1.1161(4)
H26 H 1.6828 0.1691 1.0826
H27 H 1.5879 0.1713 1.1906
H28 H 1.6537 0.2023 1.1417
C34 C 1.3740(4) 0.20755(9) 1.0606(4)
H29 H 1.4174 0.2283 1.0761
H30 H 1.3526 0.1993 1.1405
H31 H 1.2852 0.2091 0.9961
C35 C 1.4037(4) 0.17800(9) 0.5230(3)
H32 H 1.3286 0.1632 0.5399
C36 C 1.5101(5) 0.15922(10) 0.4644(4)
H33 H 1.5847 0.1732 0.4453
H34 H 1.4602 0.1493 0.3850
H35 H 1.5540 0.1431 0.5250
C37 C 1.3286(4) 0.20261(10) 0.4293(4)
H36 H 1.2608 0.2143 0.4693
H37 H 1.2769 0.1923 0.3516
H38 H 1.3999 0.2170 0.4071
C38 C 1.2036(3) 0.04635(8) 0.7004(3)
C39 C 1.3038(3) 0.04016(8) 0.8160(3)
C40 C 1.4399(4) 0.02973(8) 0.8117(4)
H39 H 1.5062 0.0260 0.8895
C41 C 1.4819(4) 0.02455(9) 0.6960(4)
H40 H 1.5766 0.0179 0.6942
C42 C 1.3837(4) 0.02918(9) 0.5840(4)
H41 H 1.4110 0.0249 0.5046
C43 C 1.2463(4) 0.03987(8) 0.5831(3)
C44 C 1.2563(4) 0.04422(8) 0.9435(3)
H42 H 1.1859 0.0618 0.9335
C45 C 1.3774(4) 0.05218(9) 1.0556(4)
H43 H 1.4415 0.0342 1.0751
H44 H 1.3373 0.0574 1.1309
H45 H 1.4312 0.0701 1.0328
C46 C 1.1786(4) 0.01470(9) 0.9732(4)
H46 H 1.0999 0.0100 0.9013
H47 H 1.1401 0.0180 1.0509
H48 H 1.2459 -0.0028 0.9864
C47 C 1.1431(4) 0.04393(9) 0.4551(3)
H49 H 1.0485 0.0502 0.4742
C48 C 1.1897(5) 0.06964(10) 0.3745(4)
H50 H 1.1991 0.0893 0.4226
H51 H 1.1180 0.0721 0.2952
H52 H 1.2822 0.0641 0.3534
C49 C 1.1196(4) 0.01372(9) 0.3783(4)
H53 H 1.2091 0.0076 0.3531
H54 H 1.0453 0.0169 0.3014
H55 H 1.0894 -0.0028 0.4309
K1_2 K 0.43527(8) 0.099413(19) 0.69758(8)
C17_2 C 1.6967(4) 0.10699(9) 0.9511(4)
C18_2 C 1.7095(4) 0.12923(9) 0.8610(4)
loop_
_geom_bond_atom_site_label_1
_geom_bond_atom_site_label_2
_geom_bond_site_symmetry_1
_geom_bond_site_symmetry_2
K1 N1 1_555 1_555
P1 N1 1_555 1_555
N1 C26 1_555 1_555
C1 K1 1_555 1_555
H1 C1 1_555 1_555
P2 C1 1_555 1_555
N2 P2 1_555 1_555
C2 P1 1_555 1_555
C3 C2 1_555 1_555
H2 C3 1_555 1_555
C4 C3 1_555 1_555
H3 C4 1_555 1_555
C5 C4 1_555 1_555
H4 C5 1_555 1_555
C6 C5 1_555 1_555
H5 C6 1_555 1_555
C7 C2 1_555 1_555
H6 C7 1_555 1_555
C8 P1 1_555 1_555
C9 C8 1_555 1_555
H7 C9 1_555 1_555
C10 C9 1_555 1_555
H8 C10 1_555 1_555
C11 C10 1_555 1_555
H9 C11 1_555 1_555
C12 C11 1_555 1_555
H10 C12 1_555 1_555
C13 C8 1_555 1_555
H11 C13 1_555 1_555
C14 P2 1_555 1_555
C15 C14 1_555 1_555
H12 C15 1_555 1_555
C16 C15 1_555 1_555
H13 C16 1_555 1_555
C17 C16 1_555 1_555
H14 C17 1_555 1_555
C18 C17 1_555 1_555
H15 C18 1_555 1_555
C19 C14 1_555 1_555
H16 C19 1_555 1_555
C20 P2 1_555 1_555
C21 C20 1_555 1_555
H17 C21 1_555 1_555
C22 C21 1_555 1_555
H18 C22 1_555 1_555
C23 C22 1_555 1_555
H19 C23 1_555 1_555
C24 C23 1_555 1_555
H20 C24 1_555 1_555
C25 C20 1_555 1_555
H21 C25 1_555 1_555
C26 C27 1_555 1_555
C27 C28 1_555 1_555
C28 H22 1_555 1_555
C29 C28 1_555 1_555
H23 C29 1_555 1_555
C30 C29 1_555 1_555
H24 C30 1_555 1_555
C31 C26 1_555 1_555
C32 C27 1_555 1_555
H25 C32 1_555 1_555
C33 C32 1_555 1_555
H26 C33 1_555 1_555
H27 C33 1_555 1_555
H28 C33 1_555 1_555
C34 C32 1_555 1_555
H29 C34 1_555 1_555
H30 C34 1_555 1_555
H31 C34 1_555 1_555
C35 C31 1_555 1_555
H32 C35 1_555 1_555
C36 C35 1_555 1_555
H33 C36 1_555 1_555
H34 C36 1_555 1_555
H35 C36 1_555 1_555
C37 C35 1_555 1_555
H36 C37 1_555 1_555
H37 C37 1_555 1_555
H38 C37 1_555 1_555
C38 K1 1_555 1_555
C39 K1 1_555 1_555
C40 K1 1_555 1_555
H39 C40 1_555 1_555
C41 K1 1_555 1_555
H40 C41 1_555 1_555
C42 K1 1_555 1_555
H41 C42 1_555 1_555
C43 K1 1_555 1_555
C44 C39 1_555 1_555
H42 C44 1_555 1_555
C45 C44 1_555 1_555
H43 C45 1_555 1_555
H44 C45 1_555 1_555
H45 C45 1_555 1_555
C46 C44 1_555 1_555
H46 C46 1_555 1_555
H47 C46 1_555 1_555
H48 C46 1_555 1_555
C47 C43 1_555 1_555
H49 C47 1_555 1_555
C48 C47 1_555 1_555
H50 C48 1_555 1_555
H51 C48 1_555 1_555
H52 C48 1_555 1_555
C49 C47 1_555 1_555
H53 C49 1_555 1_555
H54 C49 1_555 1_555
H55 C49 1_555 1_555
K1_2 C17 1_555 1_555
C17_2 K1 1_555 1_555
C18_2 K1 1_555 1_555
P1 C1 1_555 1_555
N2 C38 1_555 1_555
C6 C7 1_555 1_555
C12 C13 1_555 1_555
C18 C19 1_555 1_555
C18 K1_2 1_555 1_555
C24 C25 1_555 1_555
C30 C31 1_555 1_555
C38 C39 1_555 1_555
C38 C43 1_555 1_555
C39 C40 1_555 1_555
C40 C41 1_555 1_555
C41 C42 1_555 1_555
C42 C43 1_555 1_555
C17_2 C18_2 1_555 1_555

#END
