
#######################################################################
#
#                 Cambridge Crystallographic Data Centre
#                                CCDC 
#
#######################################################################
#
# If this CIF has been generated from an entry in the Cambridge 
# Structural Database, then it will include bibliographic, chemical, 
# crystal, experimental, refinement or atomic coordinate data resulting 
# from the CCDC's data processing and validation procedures.
#
#######################################################################

data_NITRUE
_symmetry_cell_setting           monoclinic
_symmetry_space_group_name_H-M   'C 2/c'
_symmetry_Int_Tables_number      15
_space_group_name_Hall           '-C 2yn'
loop_
_symmetry_equiv_pos_site_id
_symmetry_equiv_pos_as_xyz
1 x,y,z
2 1/2+x,1/2+y,z
3 -x,y,1/2-z
4 1/2-x,1/2+y,1/2-z
5 -x,-y,-z
6 1/2-x,1/2-y,-z
7 x,-y,1/2+z
8 1/2+x,1/2-y,1/2+z
_cell_length_a                   14.530(5)
_cell_length_b                   13.372(5)
_cell_length_c                   14.267(5)
_cell_angle_alpha                90
_cell_angle_beta                 119.440(5)
_cell_angle_gamma                90
_cell_volume                     2414.06
loop_
_atom_site_label
_atom_site_type_symbol
_atom_site_fract_x
_atom_site_fract_y
_atom_site_fract_z
Co1 Co 0.0000 0.09219(7) 0.7500
N1 N 0.1176(2) 0.1908(3) 0.7697(3)
N2 N 0.1172(4) -0.0197(3) 0.9132(4)
O1 O 0.0431(3) 0.0380(2) 0.9016(2)
O2 O 0.1267(3) -0.0259(2) 0.8307(3)
O3 O 0.1716(3) -0.0650(3) 0.9945(3)
C1 C 0.1545(3) 0.1810(4) 0.7000(3)
H1 H 0.1350 0.1247 0.6560
C2 C 0.2189(3) 0.2496(4) 0.6909(4)
H2 H 0.2417 0.2405 0.6409
C3 C 0.2493(3) 0.3308(4) 0.7551(4)
H3 H 0.2927 0.3786 0.7492
C4 C 0.2160(3) 0.3427(3) 0.8294(3)
H4 H 0.2377 0.3977 0.8753
C5 C 0.1494(3) 0.2714(3) 0.8349(3)
C6 C 0.1117(3) 0.2772(3) 0.9126(3)
H5 H 0.0824 0.2189 0.9222
C7 C 0.1139(3) 0.3544(3) 0.9706(3)
H6 H 0.1412 0.4137 0.9603
C8 C 0.0777(3) 0.3566(3) 1.0499(3)
C9 C 0.0290(3) 0.2757(3) 1.0673(3)
H7 H 0.0166 0.2183 1.0260
C10 C -0.0018(3) 0.2781(3) 1.1444(3)
H8 H -0.0347 0.2224 1.1541
C11 C 0.0153(3) 0.3619(3) 1.2079(3)
C12 C 0.0617(3) 0.4432(3) 1.1887(3)
H9 H 0.0719 0.5015 1.2282
C13 C 0.0935(3) 0.4403(3) 1.1122(3)
H10 H 0.1263 0.4960 1.1024
Co1_2 Co 0.0000 0.09219(7) 1.7500
N1B N -0.1176(2) 0.1908(3) 1.7303(3)
N1B_2 N -0.1176(2) 0.1908(3) 0.7303(3)
N2B N -0.1172(4) -0.0197(3) 0.5868(4)
O1B O -0.0431(3) 0.0380(2) 0.5984(2)
O2B O -0.1267(3) -0.0259(2) 0.6693(3)
O3B O -0.1716(3) -0.0650(3) 0.5055(3)
C1B C -0.1545(3) 0.1810(4) 1.8000(3)
H1B H -0.1350 0.1247 1.8440
C2B C -0.2189(3) 0.2496(4) 1.8091(4)
H2B H -0.2417 0.2405 1.8591
C3B C -0.2493(3) 0.3308(4) 1.7449(4)
H3B H -0.2927 0.3786 1.7508
C4B C -0.2160(3) 0.3427(3) 1.6706(3)
H4B H -0.2377 0.3977 1.6247
C5B C -0.1494(3) 0.2714(3) 1.6651(3)
C6B C -0.1117(3) 0.2772(3) 1.5874(3)
H5B H -0.0824 0.2189 1.5778
C7B C -0.1139(3) 0.3544(3) 1.5294(3)
H6B H -0.1412 0.4137 1.5397
C8B C -0.0777(3) 0.3566(3) 1.4501(3)
C9B C -0.0290(3) 0.2757(3) 1.4327(3)
H7B H -0.0166 0.2183 1.4740
C10B C 0.0018(3) 0.2781(3) 1.3556(3)
H8B H 0.0347 0.2224 1.3459
C11B C -0.0153(3) 0.3619(3) 1.2921(3)
C12B C -0.0617(3) 0.4432(3) 1.3113(3)
H9B H -0.0719 0.5015 1.2718
C13B C -0.0935(3) 0.4403(3) 1.3878(3)
H10B H -0.1263 0.4960 1.3976
loop_
_geom_bond_atom_site_label_1
_geom_bond_atom_site_label_2
_geom_bond_site_symmetry_1
_geom_bond_site_symmetry_2
Co1 N1 1_555 1_555
N1 C1 1_555 1_555
N2 O1 1_555 1_555
O1 Co1 1_555 1_555
O2 Co1 1_555 1_555
O3 N2 1_555 1_555
C1 H1 1_555 1_555
C2 C1 1_555 1_555
H2 C2 1_555 1_555
C3 C2 1_555 1_555
H3 C3 1_555 1_555
C4 C3 1_555 1_555
H4 C4 1_555 1_555
C5 N1 1_555 1_555
C6 C5 1_555 1_555
H5 C6 1_555 1_555
C7 C6 1_555 1_555
H6 C7 1_555 1_555
C8 C7 1_555 1_555
C9 C8 1_555 1_555
H7 C9 1_555 1_555
C10 C9 1_555 1_555
H8 C10 1_555 1_555
C11 C10 1_555 1_555
C12 C11 1_555 1_555
H9 C12 1_555 1_555
C13 C8 1_555 1_555
H10 C13 1_555 1_555
Co1_2 N1B 1_555 1_555
N1B C1B 1_555 1_555
N1B_2 Co1 1_555 1_555
N2B O1B 1_555 1_555
O1B Co1 1_555 1_555
O2B Co1 1_555 1_555
O3B N2B 1_555 1_555
C1B H1B 1_555 1_555
C2B C1B 1_555 1_555
H2B C2B 1_555 1_555
C3B C2B 1_555 1_555
H3B C3B 1_555 1_555
C4B C3B 1_555 1_555
H4B C4B 1_555 1_555
C5B N1B 1_555 1_555
C6B C5B 1_555 1_555
H5B C6B 1_555 1_555
C7B C6B 1_555 1_555
H6B C7B 1_555 1_555
C8B C7B 1_555 1_555
C9B C8B 1_555 1_555
H7B C9B 1_555 1_555
C10B C9B 1_555 1_555
H8B C10B 1_555 1_555
C11B C11 1_555 1_555
C12B C11B 1_555 1_555
H9B C12B 1_555 1_555
C13B C8B 1_555 1_555
H10B C13B 1_555 1_555
N2 O2 1_555 1_555
C4 C5 1_555 1_555
C12 C13 1_555 1_555
N2B O2B 1_555 1_555
C4B C5B 1_555 1_555
C10B C11B 1_555 1_555
C12B C13B 1_555 1_555

#END
