
#######################################################################
#
#                 Cambridge Crystallographic Data Centre
#                                CCDC 
#
#######################################################################
#
# If this CIF has been generated from an entry in the Cambridge 
# Structural Database, then it will include bibliographic, chemical, 
# crystal, experimental, refinement or atomic coordinate data resulting 
# from the CCDC's data processing and validation procedures.
#
#######################################################################

data_NIVFUT
_symmetry_cell_setting           monoclinic
_symmetry_space_group_name_H-M   'P 21/n'
_symmetry_Int_Tables_number      14
_space_group_name_Hall           '-P 2yn'
loop_
_symmetry_equiv_pos_site_id
_symmetry_equiv_pos_as_xyz
1 x,y,z
2 1/2-x,1/2+y,1/2-z
3 -x,-y,-z
4 1/2+x,1/2-y,1/2+z
_cell_length_a                   9.624(2)
_cell_length_b                   11.283(2)
_cell_length_c                   14.916(3)
_cell_angle_alpha                90
_cell_angle_beta                 90.47(3)
_cell_angle_gamma                90
_cell_volume                     1619.64
loop_
_atom_site_label
_atom_site_type_symbol
_atom_site_fract_x
_atom_site_fract_y
_atom_site_fract_z
O1 O -0.0570(3) -0.0966(3) -0.0065(2)
C1 C -0.1350(5) -0.1979(4) -0.0131(3)
C2 C -0.0713(6) -0.3028(5) -0.0399(4)
O2 O -0.3609(4) -0.5108(3) -0.0280(3)
O3 O -0.0583(3) -0.1303(3) 0.1785(2)
C3 C -0.1476(6) -0.4059(5) -0.0448(4)
C4 C -0.2872(6) -0.4068(5) -0.0233(4)
O4 O -0.3005(4) -0.4398(3) 0.4142(2)
O5 O 0.0413(3) 0.0961(3) 0.1922(2)
C5 C -0.3493(6) -0.3021(5) 0.0030(4)
C6 C -0.2746(6) -0.1978(5) 0.0076(4)
C7 C -0.1141(5) -0.2072(4) 0.2386(3)
C8 C -0.1555(5) -0.3186(5) 0.2102(4)
C9 C -0.2132(5) -0.3973(5) 0.2697(4)
C10 C -0.2328(5) -0.3608(5) 0.3583(3)
C11 C -0.1894(5) -0.2520(5) 0.3874(3)
C12 C -0.1285(5) -0.1749(5) 0.3276(4)
C13 C 0.1025(5) 0.1736(5) 0.2492(3)
C14 C 0.0405(6) 0.2804(5) 0.2692(3)
C15 C 0.1090(5) 0.3618(5) 0.3223(4)
C16 C 0.2381(5) 0.3358(5) 0.3587(3)
C17 C 0.2960(6) 0.2246(5) 0.3430(3)
C18 C 0.2290(5) 0.1456(5) 0.2875(4)
O6 O 0.3087(3) 0.4190(3) 0.4088(2)
H1 H 0.0225(6) -0.3033(5) -0.0545(4)
H2 H -0.4417(4) -0.4985(3) -0.0137(3)
H3 H -0.1048(6) -0.4757(5) -0.0627(4)
H4 H -0.2538(4) -0.4629(3) 0.4662(2)
H5 H -0.4430(6) -0.3019(5) 0.0178(4)
H6 H -0.3181(6) -0.1279(5) 0.0246(4)
H7 H -0.1442(5) -0.3404(5) 0.1506(4)
H8 H -0.2386(5) -0.4731(5) 0.2514(4)
H9 H -0.2008(5) -0.2301(5) 0.4470(3)
H10 H -0.0971(5) -0.1013(5) 0.3471(4)
H11 H -0.0477(6) 0.2976(5) 0.2468(3)
H12 H 0.0681(5) 0.4348(5) 0.3339(4)
H13 H 0.3800(6) 0.2039(5) 0.3700(3)
H14 H 0.2695(5) 0.0724(5) 0.2757(4)
Ti1 Ti 0.0091(1) -0.0157(1) 0.1091(1)
Ti1B Ti -0.0091(1) 0.0157(1) -0.1091(1)
Ti1A Ti -0.5091(1) -0.5157(1) 0.3909(1)
Ti1A_2 Ti 0.4909(1) 0.4843(1) 0.3909(1)
O1B O 0.0570(3) 0.0966(3) 0.0065(2)
O4A O -0.1995(4) 0.0602(3) 0.0858(2)
O6A O 0.1913(3) -0.0810(3) 0.0912(2)
H4A H -0.2462(4) 0.0371(3) 0.0338(2)
loop_
_geom_bond_atom_site_label_1
_geom_bond_atom_site_label_2
_geom_bond_site_symmetry_1
_geom_bond_site_symmetry_2
O1 C1 1_555 1_555
C1 C2 1_555 1_555
C2 C3 1_555 1_555
O2 C4 1_555 1_555
O3 C7 1_555 1_555
C3 C4 1_555 1_555
C4 C5 1_555 1_555
O4 C10 1_555 1_555
O5 C13 1_555 1_555
C5 C6 1_555 1_555
C6 C1 1_555 1_555
C7 C8 1_555 1_555
C8 C9 1_555 1_555
C9 C10 1_555 1_555
C10 C11 1_555 1_555
C11 C12 1_555 1_555
C12 C7 1_555 1_555
C13 C14 1_555 1_555
C14 C15 1_555 1_555
C15 C16 1_555 1_555
C16 C17 1_555 1_555
C17 C18 1_555 1_555
C18 C13 1_555 1_555
O6 C16 1_555 1_555
H1 C2 1_555 1_555
H2 O2 1_555 1_555
H3 C3 1_555 1_555
H4 O4 1_555 1_555
H5 C5 1_555 1_555
H6 C6 1_555 1_555
H7 C8 1_555 1_555
H8 C9 1_555 1_555
H9 C11 1_555 1_555
H10 C12 1_555 1_555
H11 C14 1_555 1_555
H12 C15 1_555 1_555
H13 C17 1_555 1_555
H14 C18 1_555 1_555
Ti1 O1 1_555 1_555
Ti1B O1 1_555 1_555
Ti1A O4 1_555 1_555
Ti1A_2 O6 1_555 1_555
O1B Ti1 1_555 1_555
O4A Ti1 1_555 1_555
O6A Ti1 1_555 1_555
H4A O4A 1_555 1_555
O3 Ti1 1_555 1_555
O5 Ti1 1_555 1_555
Ti1B O1B 1_555 1_555

#END
