
#######################################################################
#
#                 Cambridge Crystallographic Data Centre
#                                CCDC 
#
#######################################################################
#
# If this CIF has been generated from an entry in the Cambridge 
# Structural Database, then it will include bibliographic, chemical, 
# crystal, experimental, refinement or atomic coordinate data resulting 
# from the CCDC's data processing and validation procedures.
#
#######################################################################

data_NIVGAA01
_symmetry_cell_setting           orthorhombic
_symmetry_space_group_name_H-M   'P n m a'
_symmetry_Int_Tables_number      62
_space_group_name_Hall           '-P 2ac 2n'
loop_
_symmetry_equiv_pos_site_id
_symmetry_equiv_pos_as_xyz
1 x,y,z
2 1/2-x,-y,1/2+z
3 1/2+x,1/2-y,1/2-z
4 -x,1/2+y,-z
5 -x,-y,-z
6 1/2+x,y,1/2-z
7 1/2-x,1/2+y,1/2+z
8 x,1/2-y,z
_cell_length_a                   15.631(3)
_cell_length_b                   14.017(3)
_cell_length_c                   9.063(2)
_cell_angle_alpha                90
_cell_angle_beta                 90
_cell_angle_gamma                90
_cell_volume                     1985.7
loop_
_atom_site_label
_atom_site_type_symbol
_atom_site_fract_x
_atom_site_fract_y
_atom_site_fract_z
O1 O 0.2043(4) 0.2500 0.3111(6)
N1 N 0.2588(4) 0.3615(4) 0.0703(6)
C1 C 0.3309(6) 0.3729(8) 0.1532(9)
O2 O 0.1357(4) 0.2500 0.9145(6)
C2 C 0.3905(7) 0.4423(9) 0.1250(10)
O3 O 0.0820(3) 0.3553(3) 0.1583(5)
C3 C 0.3765(6) 0.5075(7) 0.0138(10)
C4 C 0.3033(5) 0.5001(5) -0.0694(8)
C5 C 0.2468(5) 0.4269(5) -0.0410(7)
C6 C 0.1863(6) 0.2500 0.4576(10)
C7 C 0.2522(6) 0.2500 0.5598(10)
C8 C 0.2369(6) 0.2500 0.7132(10)
C9 C 0.1518(5) 0.2500 0.7656(10)
C10 C 0.0857(6) 0.2500 0.6629(10)
C11 C 0.1007(6) 0.2500 0.5120(10)
C12 C 0.0421(4) 0.4260(5) 0.0793(7)
C13 C 0.0646(4) 0.5234(5) 0.1005(7)
C14 C -0.0225(4) 0.4043(5) -0.0227(7)
H1 H 0.4241(66) 0.4445(10) 0.1628(74)
H2 H 0.4169(49) 0.5561(59) -0.0053(25)
H3 H 0.2917(32) 0.5452(41) -0.1454(70)
H4 H 0.1939(43) 0.4209(7) -0.1052(53)
H5 H 0.3101(71) 0.2500 0.5252(43)
H6 H 0.2874(52) 0.2500 0.7864(76)
H7 H 0.0444(68) 0.2500 0.6876(42)
H8 H 0.0433(50) 0.2500 0.4296(73)
H9 H 0.1083(38) 0.5394(15) 0.1677(59)
H10 H -0.0374(14) 0.3416(57) -0.0387(16)
Ti1 Ti 0.1532(1) 0.2500 0.1191(2)
C14D C 0.0225(4) 0.5957(5) 0.0227(7)
C12D C -0.0421(4) 0.5740(5) -0.0793(7)
O3D O -0.0820(3) 0.6447(3) -0.1583(5)
C13D C -0.0646(4) 0.4766(5) -0.1005(7)
H9D H -0.1083(38) 0.4606(15) -0.1677(59)
H10D H 0.0374(14) 0.6584(57) 0.0387(16)
N1G N 0.2588(4) 0.1385(4) 0.0703(6)
C1G C 0.3309(6) 0.1271(8) 0.1532(9)
C2G C 0.3905(7) 0.0577(9) 0.1250(10)
C3G C 0.3765(6) -0.0075(7) 0.0138(10)
C4G C 0.3033(5) -0.0001(5) -0.0694(8)
C5G C 0.2468(5) 0.0731(5) -0.0410(7)
H1G H 0.4241(66) 0.0555(10) 0.1628(74)
H2G H 0.4169(49) -0.0561(59) -0.0053(25)
H3G H 0.2917(32) -0.0452(41) -0.1454(70)
H4G H 0.1939(43) 0.0791(7) -0.1052(53)
Ti1_2 Ti 0.1532(1) 0.2500 1.1191(2)
O2_2 O 0.1357(4) 0.2500 -0.0855(6)
O3G O 0.0820(3) 0.1447(3) 0.1583(5)
Ti1C Ti -0.1532(1) 0.7500 -0.1191(2)
loop_
_geom_bond_atom_site_label_1
_geom_bond_atom_site_label_2
_geom_bond_site_symmetry_1
_geom_bond_site_symmetry_2
O1 C6 1_555 1_555
N1 C1 1_555 1_555
C1 C2 1_555 1_555
O2 C9 1_555 1_555
C2 C3 1_555 1_555
O3 C12 1_555 1_555
C3 C4 1_555 1_555
C4 C5 1_555 1_555
C5 N1 1_555 1_555
C6 C7 1_555 1_555
C7 C8 1_555 1_555
C8 C9 1_555 1_555
C9 C10 1_555 1_555
C10 C11 1_555 1_555
C11 C6 1_555 1_555
C12 C13 1_555 1_555
C13 H9 1_555 1_555
C14 C12 1_555 1_555
H1 C2 1_555 1_555
H2 C3 1_555 1_555
H3 C4 1_555 1_555
H4 C5 1_555 1_555
H5 C7 1_555 1_555
H6 C8 1_555 1_555
H7 C10 1_555 1_555
H8 C11 1_555 1_555
H10 C14 1_555 1_555
Ti1 O1 1_555 1_555
C14D C13 1_555 1_555
C12D C14D 1_555 1_555
O3D C12D 1_555 1_555
C13D C14 1_555 1_555
H9D C13D 1_555 1_555
H10D C14D 1_555 1_555
N1G Ti1 1_555 1_555
C1G N1G 1_555 1_555
C2G C1G 1_555 1_555
C3G C2G 1_555 1_555
C4G C3G 1_555 1_555
C5G N1G 1_555 1_555
H1G C2G 1_555 1_555
H2G C3G 1_555 1_555
H3G C4G 1_555 1_555
H4G C5G 1_555 1_555
Ti1_2 O2 1_555 1_555
O2_2 Ti1 1_555 1_555
O3G Ti1 1_555 1_555
Ti1C O3D 1_555 1_555
N1 Ti1 1_555 1_555
O3 Ti1 1_555 1_555
C12D C13D 1_555 1_555
C4G C5G 1_555 1_555

#END
