
#######################################################################
#
#                 Cambridge Crystallographic Data Centre
#                                CCDC 
#
#######################################################################
#
# If this CIF has been generated from an entry in the Cambridge 
# Structural Database, then it will include bibliographic, chemical, 
# crystal, experimental, refinement or atomic coordinate data resulting 
# from the CCDC's data processing and validation procedures.
#
#######################################################################

data_NIVNIQ
_symmetry_cell_setting           monoclinic
_symmetry_space_group_name_H-M   'P 21/c'
_symmetry_Int_Tables_number      14
_space_group_name_Hall           '-P 2ybc'
loop_
_symmetry_equiv_pos_site_id
_symmetry_equiv_pos_as_xyz
1 x,y,z
2 -x,1/2+y,1/2-z
3 -x,-y,-z
4 x,1/2-y,1/2+z
_cell_length_a                   14.035(3)
_cell_length_b                   14.766(3)
_cell_length_c                   26.088(6)
_cell_angle_alpha                90
_cell_angle_beta                 94.590(10)
_cell_angle_gamma                90
_cell_volume                     5389.16
loop_
_atom_site_label
_atom_site_type_symbol
_atom_site_fract_x
_atom_site_fract_y
_atom_site_fract_z
Gd1 Gd -0.01845(2) 0.24262(2) 0.271680(10)
Cu1 Cu -0.20803(6) 0.12944(5) 0.07918(3)
Cu2 Cu -0.37146(6) 0.37858(6) 0.33413(4)
Cu3 Cu 0.13939(8) 0.09668(5) 0.46170(4)
Cu4 Cu 0.35279(5) 0.35581(4) 0.22049(3)
Na1 Na 0.0402(2) -0.00636(17) 0.25888(12)
O1 O -0.1051(3) 0.2905(2) 0.19291(19)
O2 O -0.0478(2) 0.1184(2) 0.21300(16)
O3 O -0.1813(3) 0.2467(2) 0.11876(19)
O4 O -0.3080(3) 0.1767(3) 0.0344(2)
O5 O -0.1692(3) 0.2081(2) 0.3008(2)
O6 O -0.1028(2) 0.3794(2) 0.29534(17)
O7 O -0.3084(3) 0.2589(2) 0.3248(2)
O8 O -0.4919(3) 0.3301(3) 0.3415(2)
O9 O 0.0608(4) 0.2725(2) 0.3532(2)
O10 O 0.0056(2) 0.1053(2) 0.32197(17)
O11 O 0.1239(5) 0.2170(3) 0.4273(2)
O12 O 0.2128(4) 0.1435(3) 0.5191(2)
O13 O 0.1368(3) 0.1944(2) 0.2493(2)
O14 O 0.0749(2) 0.3684(2) 0.24429(18)
O15 O 0.2809(3) 0.2381(2) 0.2292(2)
O16 O 0.4696(2) 0.3036(2) 0.20749(18)
O19 O 0.1916(5) -0.0072(7) 0.3043(3)
N1 N -0.1241(3) 0.0815(3) 0.1338(2)
N2 N -0.2215(4) 0.0055(3) 0.0577(2)
N3 N -0.2480(3) 0.4240(3) 0.3228(2)
N4 N -0.3992(4) 0.5021(3) 0.3516(2)
N5 N 0.0581(4) 0.0564(3) 0.4042(2)
N6 N 0.1313(5) -0.0257(3) 0.4855(2)
N7 N 0.2287(3) 0.4061(3) 0.2265(2)
N8 N 0.3938(3) 0.4793(3) 0.2226(2)
C1 C -0.1305(4) 0.2326(3) 0.1595(2)
C2 C -0.0969(4) 0.1344(3) 0.1713(2)
C3 C -0.1098(6) -0.0169(4) 0.1344(2)
C4 C -0.1437(5) -0.0518(4) 0.0805(3)
C5 C -0.2843(5) -0.0247(5) 0.0227(2)
C6 C -0.3540(5) 0.0319(5) -0.0011(3)
C7 C -0.3619(5) 0.1240(6) 0.0039(2)
C8 C -0.2859(6) -0.1222(5) 0.0059(3)
C9 C -0.4397(6) 0.1768(7) -0.0263(3)
C10 C -0.2248(4) 0.2694(3) 0.3125(2)
C11 C -0.1867(4) 0.3673(3) 0.3093(2)
C12 C -0.2396(5) 0.5227(4) 0.3215(3)
C13 C -0.3152(5) 0.5608(4) 0.3537(3)
C14 C -0.4821(5) 0.5287(5) 0.3652(2)
C15 C -0.5604(5) 0.4716(5) 0.3647(3)
C16 C -0.5634(5) 0.3787(6) 0.3524(2)
C17 C -0.4947(7) 0.6263(5) 0.3823(3)
C18 C -0.6544(5) 0.3244(7) 0.3558(4)
C19 C 0.0791(5) 0.2091(3) 0.3841(2)
C20 C 0.0427(4) 0.1145(3) 0.3672(2)
C21 C 0.0352(6) -0.0388(4) 0.4018(3)
C22 C 0.0712(6) -0.0836(4) 0.4516(3)
C23 C 0.1773(6) -0.0552(5) 0.5274(3)
C24 C 0.2364(7) 0.0001(6) 0.5589(3)
C25 C 0.2540(7) 0.0920(6) 0.5536(3)
C26 C 0.1702(8) -0.1552(5) 0.5436(3)
C27 C 0.3216(9) 0.1388(7) 0.5922(4)
C28 C 0.1966(4) 0.2522(3) 0.2388(2)
C29 C 0.1610(3) 0.3522(3) 0.2363(2)
C30 C 0.2218(4) 0.5039(3) 0.2212(3)
C31 C 0.3187(4) 0.5432(3) 0.2343(3)
C32 C 0.4824(4) 0.5041(4) 0.2210(2)
C33 C 0.5560(4) 0.4422(4) 0.2135(3)
C34 C 0.5471(4) 0.3494(4) 0.2065(2)
C35 C 0.5108(4) 0.6033(4) 0.2274(3)
C36 C 0.6341(4) 0.2947(4) 0.1956(3)
H1 H -0.0440 -0.0302 0.1421
H2 H -0.1460 -0.0438 0.1596
H3 H -0.1656 -0.1123 0.0832
H4 H -0.0919 -0.0503 0.0592
H5 H -0.4047 0.0033 -0.0213
H6 H -0.2472 -0.1267 -0.0222
H7 H -0.3490 -0.1417 -0.0046
H8 H -0.2600 -0.1593 0.0333
H9 H -0.4953 0.1793 -0.0078
H10 H -0.4547 0.1479 -0.0584
H11 H -0.4176 0.2365 -0.0319
H12 H -0.1784 0.5416 0.3356
H13 H -0.2496 0.5434 0.2870
H14 H -0.3347 0.6185 0.3407
H15 H -0.2898 0.5668 0.3884
H16 H -0.6185 0.4984 0.3734
H17 H -0.4794 0.6316 0.4183
H18 H -0.5601 0.6413 0.3743
H19 H -0.4557 0.6664 0.3646
H20 H -0.6896 0.3207 0.3232
H21 H -0.6926 0.3525 0.3797
H22 H -0.6373 0.2652 0.3674
H23 H -0.0321 -0.0469 0.3969
H24 H 0.0646 -0.0657 0.3740
H25 H 0.1088 -0.1346 0.4438
H26 H 0.0182 -0.1031 0.4692
H27 H 0.2691 -0.0279 0.5880
H28 H 0.1192 -0.1638 0.5649
H29 H 0.2287 -0.1730 0.5617
H30 H 0.1594 -0.1908 0.5134
H31 H 0.3843 0.1433 0.5810
H32 H 0.3241 0.1081 0.6242
H33 H 0.2962 0.1979 0.5960
H34 H 0.1997 0.5189 0.1869
H35 H 0.1785 0.5269 0.2442
H36 H 0.3257 0.5581 0.2698
H37 H 0.3244 0.5966 0.2144
H38 H 0.6188 0.4662 0.2134
H39 H 0.5067 0.6324 0.1949
H40 H 0.5747 0.6066 0.2424
H41 H 0.4693 0.6325 0.2493
H42 H 0.6654 0.2733 0.2269
H43 H 0.6767 0.3320 0.1784
H44 H 0.6150 0.2447 0.1743
Na1A Na -0.0402(2) 0.49364(17) 0.24112(12)
O6A O 0.1028(2) -0.1206(2) 0.20466(17)
O14A O -0.0749(2) -0.1316(2) 0.25571(18)
O17 O -0.0842(5) 0.1504(5) 0.0149(3)
C37 C -0.1012(8) 0.1138(7) -0.0340(4)
H45 H -0.0959 0.0497 -0.0321
H46 H -0.0556 0.1367 -0.0558
H47 H -0.1637 0.1298 -0.0477
O18 O 0.0920(6) 0.2168(5) 0.0496(3)
C38 C 0.0985(10) 0.2226(8) 0.1027(5)
H48 H 0.0892 0.2848 0.1102
H49 H 0.1591 0.2036 0.1177
H50 H 0.0497 0.1876 0.1164
O20 O 0.7071(8) 0.5437(7) 0.0949(4)
O21 O 0.6495(10) 0.3741(8) 0.0578(5)
loop_
_geom_bond_atom_site_label_1
_geom_bond_atom_site_label_2
_geom_bond_site_symmetry_1
_geom_bond_site_symmetry_2
Gd1 O1 1_555 1_555
Cu1 O3 1_555 1_555
Cu2 O7 1_555 1_555
Cu3 O11 1_555 1_555
Cu4 O15 1_555 1_555
Na1 O2 1_555 1_555
O1 C1 1_555 1_555
O2 Gd1 1_555 1_555
O3 C1 1_555 1_555
O4 Cu1 1_555 1_555
O5 Gd1 1_555 1_555
O6 Gd1 1_555 1_555
O7 C10 1_555 1_555
O8 Cu2 1_555 1_555
O9 Gd1 1_555 1_555
O10 Gd1 1_555 1_555
O11 C19 1_555 1_555
O12 Cu3 1_555 1_555
O13 Gd1 1_555 1_555
O14 Gd1 1_555 1_555
O15 C28 1_555 1_555
O16 Cu4 1_555 1_555
O17 C37 1_555 1_555
O18 C38 1_555 1_555
O19 Na1 1_555 1_555
N1 Cu1 1_555 1_555
N2 Cu1 1_555 1_555
N3 Cu2 1_555 1_555
N4 Cu2 1_555 1_555
N5 Cu3 1_555 1_555
N6 Cu3 1_555 1_555
N7 Cu4 1_555 1_555
N8 Cu4 1_555 1_555
C1 C2 1_555 1_555
C2 O2 1_555 1_555
C3 N1 1_555 1_555
C4 N2 1_555 1_555
C5 N2 1_555 1_555
C6 C5 1_555 1_555
C7 O4 1_555 1_555
C8 C5 1_555 1_555
C9 C7 1_555 1_555
C10 O5 1_555 1_555
C11 O6 1_555 1_555
C12 N3 1_555 1_555
C13 N4 1_555 1_555
C14 N4 1_555 1_555
C15 C14 1_555 1_555
C16 O8 1_555 1_555
C17 C14 1_555 1_555
C18 C16 1_555 1_555
C19 O9 1_555 1_555
C20 O10 1_555 1_555
C21 N5 1_555 1_555
C22 N6 1_555 1_555
C23 N6 1_555 1_555
C24 C23 1_555 1_555
C25 O12 1_555 1_555
C26 C23 1_555 1_555
C27 C25 1_555 1_555
C28 O13 1_555 1_555
C29 O14 1_555 1_555
C30 N7 1_555 1_555
C31 N8 1_555 1_555
C32 N8 1_555 1_555
C33 C32 1_555 1_555
C34 O16 1_555 1_555
C35 C32 1_555 1_555
C36 C34 1_555 1_555
C37 H45 1_555 1_555
C38 H48 1_555 1_555
H1 C3 1_555 1_555
H2 C3 1_555 1_555
H3 C4 1_555 1_555
H4 C4 1_555 1_555
H5 C6 1_555 1_555
H6 C8 1_555 1_555
H7 C8 1_555 1_555
H8 C8 1_555 1_555
H9 C9 1_555 1_555
H10 C9 1_555 1_555
H11 C9 1_555 1_555
H12 C12 1_555 1_555
H13 C12 1_555 1_555
H14 C13 1_555 1_555
H15 C13 1_555 1_555
H16 C15 1_555 1_555
H17 C17 1_555 1_555
H18 C17 1_555 1_555
H19 C17 1_555 1_555
H20 C18 1_555 1_555
H21 C18 1_555 1_555
H22 C18 1_555 1_555
H23 C21 1_555 1_555
H24 C21 1_555 1_555
H25 C22 1_555 1_555
H26 C22 1_555 1_555
H27 C24 1_555 1_555
H28 C26 1_555 1_555
H29 C26 1_555 1_555
H30 C26 1_555 1_555
H31 C27 1_555 1_555
H32 C27 1_555 1_555
H33 C27 1_555 1_555
H34 C30 1_555 1_555
H35 C30 1_555 1_555
H36 C31 1_555 1_555
H37 C31 1_555 1_555
H38 C33 1_555 1_555
H39 C35 1_555 1_555
H40 C35 1_555 1_555
H41 C35 1_555 1_555
H42 C36 1_555 1_555
H43 C36 1_555 1_555
H44 C36 1_555 1_555
H46 C37 1_555 1_555
H47 C37 1_555 1_555
H49 C38 1_555 1_555
H50 C38 1_555 1_555
Na1A O6 1_555 1_555
O6A Na1 1_555 1_555
O14A Na1 1_555 1_555
Na1 O10 1_555 1_555
O14 Na1A 1_555 1_555
N1 C2 1_555 1_555
N3 C11 1_555 1_555
N5 C20 1_555 1_555
N7 C29 1_555 1_555
C3 C4 1_555 1_555
C6 C7 1_555 1_555
C10 C11 1_555 1_555
C12 C13 1_555 1_555
C15 C16 1_555 1_555
C19 C20 1_555 1_555
C21 C22 1_555 1_555
C24 C25 1_555 1_555
C28 C29 1_555 1_555
C30 C31 1_555 1_555
C33 C34 1_555 1_555

#END
