
#######################################################################
#
#                 Cambridge Crystallographic Data Centre
#                                CCDC 
#
#######################################################################
#
# If this CIF has been generated from an entry in the Cambridge 
# Structural Database, then it will include bibliographic, chemical, 
# crystal, experimental, refinement or atomic coordinate data resulting 
# from the CCDC's data processing and validation procedures.
#
#######################################################################

data_NIVZEZ
_symmetry_cell_setting           monoclinic
_symmetry_space_group_name_H-M   'C c'
_symmetry_Int_Tables_number      9
_space_group_name_Hall           'C -2yc'
loop_
_symmetry_equiv_pos_site_id
_symmetry_equiv_pos_as_xyz
1 x,y,z
2 x,-y,1/2+z
3 1/2+x,1/2+y,z
4 1/2+x,1/2-y,1/2+z
_cell_length_a                   25.247(3)
_cell_length_b                   13.7830(14)
_cell_length_c                   23.808(2)
_cell_angle_alpha                90
_cell_angle_beta                 95.776(2)
_cell_angle_gamma                90
_cell_volume                     8242.63
loop_
_atom_site_label
_atom_site_type_symbol
_atom_site_fract_x
_atom_site_fract_y
_atom_site_fract_z
C1 C 0.5539(13) 0.7873(14) 0.0472(11)
H1 H 0.5458 0.8516 0.0545
N1 N 0.5813(12) 0.7216(18) 0.0858(9)
C2 C 0.5853(12) 0.6312(15) 0.0579(11)
H2 H 0.6014 0.5754 0.0735
N2 N 0.5604(12) 0.6411(16) 0.0020(10)
N3 N 0.5410(11) 0.7375(17) -0.0046(9)
C3 C 0.5085(18) 0.772(3) -0.0567(19)
H3 H 0.5280 0.7602 -0.0891
H4 H 0.5038 0.8421 -0.0539
C4 C 0.4546(18) 0.725(3) -0.0668(19)
H5 H 0.4367 0.7432 -0.1034
H6 H 0.4571 0.6553 -0.0643
C5 C 0.4016(18) 0.721(3) 0.0181(19)
H7 H 0.4016 0.6542 0.0236
N4 N 0.4164(15) 0.864(3) -0.0163(16)
C6 C 0.5366(18) 0.381(3) -0.1729(19)
H8 H 0.5513 0.4265 -0.1957
C7 C 0.5081(18) 0.311(3) -0.0952(19)
H9 H 0.5004 0.2973 -0.0587
C8 C 0.4737(14) 0.154(3) -0.1409(19)
H10 H 0.4821 0.1181 -0.1738
H11 H 0.4902 0.1203 -0.1080
C9 C 0.4154(14) 0.151(3) -0.1391(19)
H12 H 0.4052 0.1830 -0.1057
H13 H 0.4029 0.0840 -0.1392
C10 C 0.1908(13) 0.644(3) -0.0557(18)
H14 H 0.1913 0.7136 -0.0497
H15 H 0.1861 0.6121 -0.0202
C11 C 0.1445(19) 0.614(3) -0.1028(19)
H16 H 0.1103 0.6221 -0.0882
H17 H 0.1484 0.5470 -0.1132
C12 C 0.1404(18) 0.789(3) -0.2192(19)
H18 H 0.1400 0.8513 -0.2344
C13 C 0.1331(18) 0.646(3) -0.2172(19)
H19 H 0.1265 0.5827 -0.2301
C14 C 0.2140(12) 1.0538(15) -0.0078(11)
H20 H 0.2006 1.1151 -0.0012
N5 N 0.2293(12) 0.9827(19) 0.0339(8)
C15 C 0.2475(13) 0.8997(15) 0.0061(10)
H21 H 0.2599 0.8424 0.0234
N6 N 0.2434(12) 0.9195(17) -0.0527(9)
N7 N 0.2227(12) 1.0148(17) -0.0613(9)
C16 C 0.2204(18) 1.063(3) -0.1150(18)
H22 H 0.1945 1.0294 -0.1409
H23 H 0.2072 1.1282 -0.1103
C17 C 0.2689(18) 1.070(3) -0.1408(19)
H24 H 0.2978 1.0419 -0.1160
H25 H 0.2772 1.1372 -0.1471
C18 C 0.2432(19) 0.907(3) -0.2621(19)
H26 H 0.2356 0.8486 -0.2809
C19 C 0.2549(18) 1.060(3) -0.2475(18)
H27 H 0.2547 1.1267 -0.2540
C20 C 0.3490(12) 0.3250(16) -0.2424(11)
H28 H 0.3314 0.3831 -0.2516
N8 N 0.3700(12) 0.2957(17) -0.1874(9)
N9 N 0.3935(12) 0.2028(17) -0.1919(9)
C21 C 0.3870(12) 0.1747(16) -0.2495(10)
H29 H 0.3988 0.1169 -0.2643
N10 N 0.3595(12) 0.2503(19) -0.2808(8)
N11 N 0.4269(16) 0.766(3) -0.0202(16)
N12 N 0.3758(16) 0.786(3) 0.0484(16)
C22 C 0.3901(18) 0.876(3) 0.0210(19)
H30 H 0.3793 0.9365 0.0322
N13 N 0.5279(15) 0.384(3) -0.1137(16)
N14 N 0.5161(15) 0.289(3) -0.1848(16)
N15 N 0.5005(16) 0.256(2) -0.1429(16)
N16 N 0.2792(11) 0.6697(13) -0.1016(12)
C23 C 0.3228(9) 0.6094(18) -0.1119(12)
H31 H 0.3534 0.6290 -0.1274
N17 N 0.3115(10) 0.5139(15) -0.0942(13)
C24 C 0.2609(10) 0.5151(15) -0.0730(13)
H32 H 0.2438 0.4622 -0.0587
N18 N 0.2409(9) 0.6114(18) -0.0776(12)
N19 N 0.1471(16) 0.683(3) -0.1578(16)
N20 N 0.1510(16) 0.769(3) -0.1578(16)
N21 N 0.1331(16) 0.725(3) -0.2446(16)
N22 N 0.2633(15) 1.0146(19) -0.1979(16)
N23 N 0.2523(15) 0.9164(19) -0.2010(16)
N24 N 0.2468(15) 0.988(3) -0.2862(16)
O1 O 0.6187(11) 0.1747(18) 0.1821(11)
O2 O 0.2817(10) 0.2696(18) -0.0739(11)
O3 O 0.7162(11) 0.2156(18) 0.2261(11)
O4 O 0.6825(10) 0.0369(18) 0.2253(11)
O5 O 0.7005(10) 0.1261(18) 0.1241(11)
O6 O 0.5870(10) -0.0197(18) 0.1698(11)
O7 O 0.5274(10) 0.1353(19) 0.1999(11)
O8 O 0.6061(11) 0.0889(18) 0.2889(11)
O9 O 0.5420(10) 0.2265(18) 0.3135(11)
O10 O 0.6402(10) 0.2692(19) 0.2925(11)
O11 O 0.5624(10) 0.3099(18) 0.2039(11)
O12 O 0.6592(11) 0.3700(18) 0.1787(11)
O13 O 0.5777(10) 0.4250(18) 0.1038(11)
O14 O 0.6458(10) 0.2793(18) 0.0816(11)
O15 O 0.5426(10) 0.2252(18) 0.1124(11)
O16 O 0.6046(10) 0.0676(18) 0.0785(11)
O17 O 0.5692(10) 0.2083(18) 0.0053(11)
O18 O 0.5087(11) 0.0267(18) 0.0981(11)
O19 O 0.4660(10) 0.1512(18) 0.0206(11)
O20 O 0.4279(10) 0.2927(18) 0.0950(11)
O21 O 0.5053(10) 0.3585(18) 0.0250(11)
O22 O 0.4658(10) 0.4898(18) 0.0901(11)
O23 O 0.5349(11) 0.5088(18) 0.1825(11)
O24 O 0.4437(10) 0.3807(18) 0.1894(11)
O25 O 0.5125(10) 0.4120(18) 0.2906(11)
O26 O 0.4469(10) 0.5427(18) 0.2421(11)
O27 O 0.4251(10) 0.2991(18) 0.2981(11)
O28 O 0.4587(10) 0.1134(18) 0.2857(11)
O29 O 0.4105(10) 0.2053(18) 0.1874(11)
O30 O 0.4396(10) 0.0126(18) 0.1786(11)
O31 O 0.3625(10) 0.0759(18) 0.2370(11)
O32 O 0.3928(10) 0.0984(18) 0.0834(11)
O33 O 0.3136(10) 0.1509(18) 0.1344(11)
O34 O 0.3254(10) 0.2316(18) 0.0429(11)
O35 O 0.2728(10) 0.3894(18) 0.0753(11)
O36 O 0.3682(10) 0.4505(18) 0.0472(11)
O37 O 0.3860(11) 0.5436(18) 0.1450(11)
O38 O 0.3542(11) 0.3437(18) 0.1502(11)
O39 O 0.3603(11) 0.4381(18) 0.2596(11)
O40 O 0.3269(10) 0.2628(18) 0.2551(11)
O41 O 0.2882(10) 0.4856(18) 0.1723(11)
O42 O 0.2553(10) 0.2992(18) 0.1699(11)
O43 O 0.2546(10) 0.4085(18) 0.2726(11)
O44 O 0.2940(11) 0.5916(18) 0.0726(11)
O45 O 0.2210(11) 0.2138(18) 0.0665(11)
O46 O 0.3376(10) -0.0452(18) 0.1398(11)
O47 O 0.3694(10) 0.1497(18) 0.3451(11)
O48 O 0.4308(10) 0.4760(18) 0.3513(11)
O49 O 0.4683(11) 0.6673(18) 0.1544(11)
O50 O 0.4066(10) 0.3035(18) -0.0140(11)
O51 O 0.4381(10) 0.4926(18) -0.0270(11)
O52 O 0.3686(10) 0.1156(18) -0.0312(11)
O53 O 0.5367(10) 0.0189(18) -0.0131(11)
O54 O 0.6058(10) 0.3971(18) -0.0076(11)
O55 O 0.6129(11) 0.4443(18) 0.2666(11)
O56 O 0.6384(10) 0.5579(18) 0.1685(11)
O57 O 0.5947(10) 0.3781(18) 0.3709(11)
O58 O 0.5220(11) -0.0212(18) 0.2526(11)
O59 O 0.5375(10) 0.0467(18) 0.3672(11)
O60 O 0.4987(11) -0.1456(18) 0.1612(11)
O61 O 0.6733(11) -0.0772(18) 0.1214(11)
O62 O 0.7149(10) 0.1206(18) 0.3299(11)
O63 O 0.7490(11) 0.3017(19) 0.1244(11)
P1 P 0.4090(4) 0.3062(8) 0.1564(5)
P2 P 0.5608(5) 0.2130(8) 0.1753(5)
Ag1 Ag 0.54351(15) 0.5222(2) -0.06114(14)
Ag2 Ag 0.6128(2) 0.7600(3) 0.16574(18)
Ag3 Ag 0.3508(2) 0.3805(3) -0.1134(2)
Ag4 Ag 0.26617(17) 0.8196(3) -0.12676(16)
Ag5 Ag 0.23051(13) 1.0009(2) 0.12131(13)
Ag6 Ag 0.35235(17) 0.2397(3) -0.36965(16)
Ag7 Ag 0.5121(4) 0.7513(5) 0.2272(3)
W1 W 0.69247(7) 0.25434(12) 0.14712(8)
W2 W 0.67117(7) 0.14913(12) 0.27001(7)
W3 W 0.64818(7) 0.02703(13) 0.14551(8)
W4 W 0.51005(6) -0.02182(11) 0.17252(7)
W5 W 0.53254(6) 0.09143(11) 0.29728(6)
W6 W 0.57808(6) 0.34473(11) 0.30152(6)
W7 W 0.60258(6) 0.45537(10) 0.18245(7)
W8 W 0.57988(6) 0.33049(11) 0.04644(7)
W9 W 0.53696(6) 0.10064(11) 0.04066(6)
W10 W 0.39457(6) 0.18445(11) 0.02438(6)
W11 W 0.43689(6) 0.41528(11) 0.02851(7)
W12 W 0.46095(6) 0.54313(10) 0.16346(6)
W13 W 0.43629(6) 0.43280(10) 0.28349(7)
W14 W 0.39035(6) 0.17864(11) 0.28018(7)
W15 W 0.36933(6) 0.06522(10) 0.15614(6)
W16 W 0.27825(7) 0.26140(12) 0.09886(7)
W17 W 0.32251(7) 0.49122(12) 0.10351(7)
W18 W 0.29911(7) 0.37500(12) 0.22413(7)
N12A N 0.3758(16) 0.214(3) -0.4516(16)
N14A N 0.5161(15) 0.711(3) 0.3152(16)
N21C N 0.6331(16) 0.775(3) 0.2554(16)
N24A N 0.2468(15) 1.012(3) 0.2138(16)
O46A O 0.3376(10) 0.0452(18) -0.3602(11)
O57A O 0.5947(10) 0.6219(18) -0.1291(11)
O60_2 O 0.4987(11) 0.8544(18) 0.1612(11)
O63C O 0.2490(11) 0.1983(19) -0.3756(11)
Ag1A Ag 0.54351(15) 0.4778(2) 0.43886(14)
Ag2C Ag 0.1128(2) 0.7400(3) -0.33426(18)
Ag5A Ag 0.23051(13) 0.9991(2) -0.37869(13)
Ag6A Ag 0.35235(17) -0.2397(3) 0.13035(16)
Ag6A_2 Ag 0.35235(17) 0.7603(3) 0.13035(16)
Ag6C Ag 0.85235(17) 0.2603(3) 0.13035(16)
Ag7_2 Ag 0.5121(4) -0.2487(5) 0.2272(3)
Ag7A Ag 0.5121(4) 0.2487(5) -0.2728(3)
loop_
_geom_bond_atom_site_label_1
_geom_bond_atom_site_label_2
_geom_bond_site_symmetry_1
_geom_bond_site_symmetry_2
C1 H1 1_555 1_555
N1 C1 1_555 1_555
C2 N1 1_555 1_555
H2 C2 1_555 1_555
N2 C2 1_555 1_555
N3 C1 1_555 1_555
C3 N3 1_555 1_555
H3 C3 1_555 1_555
H4 C3 1_555 1_555
C4 C3 1_555 1_555
H5 C4 1_555 1_555
H6 C4 1_555 1_555
C5 H7 1_555 1_555
N4 N11 1_555 1_555
C6 H8 1_555 1_555
C7 H9 1_555 1_555
C8 H10 1_555 1_555
H11 C8 1_555 1_555
C9 C8 1_555 1_555
H12 C9 1_555 1_555
H13 C9 1_555 1_555
C10 H14 1_555 1_555
H15 C10 1_555 1_555
C11 C10 1_555 1_555
H16 C11 1_555 1_555
H17 C11 1_555 1_555
C12 H18 1_555 1_555
C13 H19 1_555 1_555
C14 H20 1_555 1_555
N5 C14 1_555 1_555
C15 N5 1_555 1_555
H21 C15 1_555 1_555
N6 C15 1_555 1_555
N7 C14 1_555 1_555
C16 N7 1_555 1_555
H22 C16 1_555 1_555
H23 C16 1_555 1_555
C17 C16 1_555 1_555
H24 C17 1_555 1_555
H25 C17 1_555 1_555
C18 H26 1_555 1_555
C19 H27 1_555 1_555
C20 H28 1_555 1_555
N8 C20 1_555 1_555
N9 C9 1_555 1_555
C21 N9 1_555 1_555
H29 C21 1_555 1_555
N10 C20 1_555 1_555
N11 C4 1_555 1_555
N12 C5 1_555 1_555
C22 N4 1_555 1_555
H30 C22 1_555 1_555
N13 C6 1_555 1_555
N14 C6 1_555 1_555
N15 C7 1_555 1_555
N16 C23 1_555 1_555
C23 H31 1_555 1_555
N17 C23 1_555 1_555
C24 N17 1_555 1_555
H32 C24 1_555 1_555
N18 C10 1_555 1_555
N19 C11 1_555 1_555
N20 C12 1_555 1_555
N21 C12 1_555 1_555
N22 C17 1_555 1_555
N23 C18 1_555 1_555
N24 C18 1_555 1_555
O1 P2 1_555 1_555
O2 Ag3 1_555 1_555
O3 W1 1_555 1_555
O4 W2 1_555 1_555
O5 W1 1_555 1_555
O6 W3 1_555 1_555
O7 P2 1_555 1_555
O8 W2 1_555 1_555
O9 W5 1_555 1_555
O10 W2 1_555 1_555
O11 P2 1_555 1_555
O12 W1 1_555 1_555
O13 W7 1_555 1_555
O14 W1 1_555 1_555
O15 P2 1_555 1_555
O16 W3 1_555 1_555
O17 W8 1_555 1_555
O18 W4 1_555 1_555
O19 W9 1_555 1_555
O20 P1 1_555 1_555
O21 W8 1_555 1_555
O22 W11 1_555 1_555
O23 W7 1_555 1_555
O24 P1 1_555 1_555
O25 W6 1_555 1_555
O26 W12 1_555 1_555
O27 W13 1_555 1_555
O28 W5 1_555 1_555
O29 P1 1_555 1_555
O30 W4 1_555 1_555
O31 W14 1_555 1_555
O32 W10 1_555 1_555
O33 W15 1_555 1_555
O34 W10 1_555 1_555
O35 W16 1_555 1_555
O36 W11 1_555 1_555
O37 W12 1_555 1_555
O38 P1 1_555 1_555
O39 W13 1_555 1_555
O40 W14 1_555 1_555
O41 W17 1_555 1_555
O42 W16 1_555 1_555
O43 W18 1_555 1_555
O44 W17 1_555 1_555
O45 W16 1_555 1_555
O46 W15 1_555 1_555
O47 W14 1_555 1_555
O48 W13 1_555 1_555
O49 Ag7 1_555 1_555
O50 W10 1_555 1_555
O51 W11 1_555 1_555
O52 W10 1_555 1_555
O53 W9 1_555 1_555
O54 Ag1 1_555 1_555
O55 W6 1_555 1_555
O56 W7 1_555 1_555
O57 W6 1_555 1_555
O58 W4 1_555 1_555
O59 W5 1_555 1_555
O60 W4 1_555 1_555
O61 W3 1_555 1_555
O62 W2 1_555 1_555
O63 W1 1_555 1_555
Ag1 N2 1_555 1_555
Ag2 N1 1_555 1_555
Ag3 N8 1_555 1_555
Ag4 N6 1_555 1_555
Ag5 N5 1_555 1_555
Ag6 N10 1_555 1_555
Ag7 Ag2 1_555 1_555
W1 O1 1_555 1_555
W2 O1 1_555 1_555
W3 O1 1_555 1_555
W4 O6 1_555 1_555
W5 O7 1_555 1_555
W6 O9 1_555 1_555
W7 O11 1_555 1_555
W8 O13 1_555 1_555
W9 O15 1_555 1_555
W10 O19 1_555 1_555
W11 O20 1_555 1_555
W12 O22 1_555 1_555
W13 O24 1_555 1_555
W14 O27 1_555 1_555
W15 O29 1_555 1_555
W16 O33 1_555 1_555
W17 O35 1_555 1_555
W18 O38 1_555 1_555
N12A Ag6 1_555 1_555
N14A Ag7 1_555 1_555
N21C Ag2 1_555 1_555
N24A Ag5 1_555 1_555
O46A Ag6 1_555 1_555
O57A Ag1 1_555 1_555
O60_2 Ag7 1_555 1_555
O63C Ag6 1_555 1_555
Ag1A O57 1_555 1_555
Ag2C N21 1_555 1_555
Ag5A N24 1_555 1_555
Ag6A O46 1_555 1_555
Ag6A_2 N12 1_555 1_555
Ag6C O63 1_555 1_555
Ag7_2 O60 1_555 1_555
Ag7A N14 1_555 1_555
N2 N3 1_555 1_555
C5 N11 1_555 1_555
C7 N13 1_555 1_555
C8 N15 1_555 1_555
C13 N19 1_555 1_555
C13 N21 1_555 1_555
N6 N7 1_555 1_555
C19 N22 1_555 1_555
C19 N24 1_555 1_555
N8 N9 1_555 1_555
C21 N10 1_555 1_555
N12 C22 1_555 1_555
N13 Ag1 1_555 1_555
N14 N15 1_555 1_555
N16 N18 1_555 1_555
N16 Ag4 1_555 1_555
N17 Ag3 1_555 1_555
C24 N18 1_555 1_555
N19 N20 1_555 1_555
N22 N23 1_555 1_555
N23 Ag4 1_555 1_555
O3 W2 1_555 1_555
O4 W3 1_555 1_555
O5 W3 1_555 1_555
O7 W4 1_555 1_555
O8 W5 1_555 1_555
O10 W6 1_555 1_555
O11 W6 1_555 1_555
O12 W7 1_555 1_555
O14 W8 1_555 1_555
O15 W8 1_555 1_555
O16 W9 1_555 1_555
O17 W9 1_555 1_555
O18 W9 1_555 1_555
O20 W10 1_555 1_555
O21 W11 1_555 1_555
O23 W12 1_555 1_555
O24 W12 1_555 1_555
O25 W13 1_555 1_555
O26 W13 1_555 1_555
O28 W14 1_555 1_555
O29 W14 1_555 1_555
O30 W15 1_555 1_555
O31 W15 1_555 1_555
O32 W15 1_555 1_555
O34 W16 1_555 1_555
O36 W17 1_555 1_555
O37 W17 1_555 1_555
O38 W16 1_555 1_555
O38 W17 1_555 1_555
O39 W18 1_555 1_555
O40 W18 1_555 1_555
O41 W18 1_555 1_555
O42 W18 1_555 1_555
O49 W12 1_555 1_555
O50 W11 1_555 1_555
O54 W8 1_555 1_555
O55 W7 1_555 1_555
O58 W5 1_555 1_555

#END
