
#######################################################################
#
#                 Cambridge Crystallographic Data Centre
#                                CCDC 
#
#######################################################################
#
# If this CIF has been generated from an entry in the Cambridge 
# Structural Database, then it will include bibliographic, chemical, 
# crystal, experimental, refinement or atomic coordinate data resulting 
# from the CCDC's data processing and validation procedures.
#
#######################################################################

data_NIWJIN01
_symmetry_cell_setting           monoclinic
_symmetry_space_group_name_H-M   'P 21/n'
_symmetry_Int_Tables_number      14
_space_group_name_Hall           '-P 2yn'
loop_
_symmetry_equiv_pos_site_id
_symmetry_equiv_pos_as_xyz
1 x,y,z
2 1/2-x,1/2+y,1/2-z
3 -x,-y,-z
4 1/2+x,1/2-y,1/2+z
_cell_length_a                   11.021(14)
_cell_length_b                   11.193(16)
_cell_length_c                   15.739(13)
_cell_angle_alpha                90
_cell_angle_beta                 104.01(9)
_cell_angle_gamma                90
_cell_volume                     1883.78
loop_
_atom_site_label
_atom_site_type_symbol
_atom_site_fract_x
_atom_site_fract_y
_atom_site_fract_z
Zn1 Zn 0.36027(4) 0.56208(4) 0.14968(3)
C1 C 0.6375(4) 0.6155(3) 0.4251(3)
H1 H 0.6222 0.6796 0.3865
C2 C 0.7087(4) 0.6338(3) 0.5102(2)
C3 C 0.7304(4) 0.5395(4) 0.5666(3)
H2 H 0.7775 0.5505 0.6237
C4 C 0.6827(4) 0.4273(3) 0.5397(3)
H3 H 0.7001 0.3631 0.5782
C5 C 0.6099(4) 0.4106(3) 0.4566(3)
H4 H 0.5742 0.3363 0.4399
C6 C 0.5895(3) 0.5054(3) 0.3969(2)
C7 C 0.7501(4) 0.7592(4) 0.5383(3)
C8 C 0.5097(3) 0.4873(3) 0.3060(2)
C9 C 0.4721(5) 0.3417(5) 0.0895(3)
H5 H 0.5280 0.3448 0.1441
C10 C 0.4804(5) 0.2478(5) 0.0364(3)
H6 H 0.5403 0.1891 0.0561
C11 C 0.4032(4) 0.2377(3) -0.0448(3)
C12 C 0.3197(6) 0.3280(5) -0.0675(3)
H7 H 0.2645 0.3273 -0.1226
C13 C 0.3146(6) 0.4212(4) -0.0106(3)
H8 H 0.2556 0.4811 -0.0291
C14 C 0.4083(4) 0.1335(3) -0.1050(3)
H9 H 0.3782 0.0627 -0.0810
H10 H 0.4950 0.1193 -0.1055
C15 C 0.3331(4) 0.1497(4) -0.1989(3)
H11 H 0.2461 0.1627 -0.1988
H12 H 0.3626 0.2206 -0.2231
C16 C 0.3411(4) 0.0447(4) -0.2575(3)
H13 H 0.3145 -0.0262 -0.2316
H14 H 0.2820 0.0576 -0.3133
C17 C 0.4666(4) 0.0204(4) -0.2744(3)
C18 C 0.5110(4) -0.0932(4) -0.2794(3)
H15 H 0.4637 -0.1580 -0.2690
C19 C 0.6230(4) -0.1133(4) -0.2994(3)
H16 H 0.6496 -0.1918 -0.3020
C20 C 0.6553(4) 0.0871(3) -0.3103(3)
H17 H 0.7047 0.1502 -0.3206
C21 C 0.5437(4) 0.1128(4) -0.2905(3)
H18 H 0.5190 0.1919 -0.2877
N1 N 0.6967(3) -0.0247(3) -0.3155(2)
N2 N 0.3886(3) 0.4293(3) 0.0678(2)
O1 O 0.8313(3) 0.7718(2) 0.61037(18)
O2 O 0.7011(4) 0.8431(3) 0.4927(2)
O3 O 0.4948(3) 0.5787(2) 0.25550(18)
O4 O 0.4625(3) 0.3888(3) 0.28322(19)
Zn1C Zn 0.86027(4) -0.06208(4) -0.35032(3)
Zn1C_2 Zn 0.86027(4) 0.93792(4) 0.64968(3)
N1C N 0.1967(3) 0.5247(3) 0.1845(2)
O1C O 0.3313(3) 0.7282(2) 0.11037(18)
loop_
_geom_bond_atom_site_label_1
_geom_bond_atom_site_label_2
_geom_bond_site_symmetry_1
_geom_bond_site_symmetry_2
Zn1 N2 1_555 1_555
C1 H1 1_555 1_555
C2 C1 1_555 1_555
C3 C2 1_555 1_555
H2 C3 1_555 1_555
C4 C3 1_555 1_555
H3 C4 1_555 1_555
C5 C4 1_555 1_555
H4 C5 1_555 1_555
C6 C1 1_555 1_555
C7 C2 1_555 1_555
C8 C6 1_555 1_555
C9 H5 1_555 1_555
C10 C9 1_555 1_555
H6 C10 1_555 1_555
C11 C10 1_555 1_555
C12 C11 1_555 1_555
H7 C12 1_555 1_555
C13 C12 1_555 1_555
H8 C13 1_555 1_555
C14 C11 1_555 1_555
H9 C14 1_555 1_555
H10 C14 1_555 1_555
C15 C14 1_555 1_555
H11 C15 1_555 1_555
H12 C15 1_555 1_555
C16 C15 1_555 1_555
H13 C16 1_555 1_555
H14 C16 1_555 1_555
C17 C16 1_555 1_555
C18 C17 1_555 1_555
H15 C18 1_555 1_555
C19 C18 1_555 1_555
H16 C19 1_555 1_555
C20 H17 1_555 1_555
C21 C17 1_555 1_555
H18 C21 1_555 1_555
N1 C19 1_555 1_555
N2 C9 1_555 1_555
O1 C7 1_555 1_555
O2 C7 1_555 1_555
O3 Zn1 1_555 1_555
O4 C8 1_555 1_555
Zn1C N1 1_555 1_555
Zn1C_2 O1 1_555 1_555
N1C Zn1 1_555 1_555
O1C Zn1 1_555 1_555
C5 C6 1_555 1_555
C8 O3 1_555 1_555
C13 N2 1_555 1_555
C20 C21 1_555 1_555
C20 N1 1_555 1_555

#END
