
#######################################################################
#
#                 Cambridge Crystallographic Data Centre
#                                CCDC 
#
#######################################################################
#
# If this CIF has been generated from an entry in the Cambridge 
# Structural Database, then it will include bibliographic, chemical, 
# crystal, experimental, refinement or atomic coordinate data resulting 
# from the CCDC's data processing and validation procedures.
#
#######################################################################

data_NIXDED
_symmetry_cell_setting           monoclinic
_symmetry_space_group_name_H-M   'P 21/c'
_symmetry_Int_Tables_number      14
_space_group_name_Hall           '-P 2ybc'
loop_
_symmetry_equiv_pos_site_id
_symmetry_equiv_pos_as_xyz
1 x,y,z
2 -x,1/2+y,1/2-z
3 -x,-y,-z
4 x,1/2-y,1/2+z
_cell_length_a                   9.961(2)
_cell_length_b                   5.838(1)
_cell_length_c                   24.608(5)
_cell_angle_alpha                90
_cell_angle_beta                 101.48(3)
_cell_angle_gamma                90
_cell_volume                     1402.38
loop_
_atom_site_label
_atom_site_type_symbol
_atom_site_fract_x
_atom_site_fract_y
_atom_site_fract_z
O1 O 0.4716(4) 0.4377(8) 0.7228(2)
O2 O 0.6635(4) 0.6518(7) 0.6906(2)
O3 O 0.6736(4) 0.2205(7) 0.6979(2)
O4 O 0.4192(4) -0.0383(7) 0.6414(2)
C1 C 0.4814(6) 0.404(1) 0.6172(2)
C2 C 0.3054(7) 0.115(1) 0.5387(3)
C3 C 0.357(1) 0.202(2) 0.4977(4)
C4 C 0.315(1) 0.136(2) 0.4423(4)
C5 C 0.223(1) -0.008(2) 0.4270(4)
C6 C 0.184(2) -0.124(4) 0.4662(6)
C7 C 0.223(2) -0.056(4) 0.5224(4)
C8 C 0.2121(7) 0.269(1) 0.6353(4)
C9 C 0.1576(8) 0.152(2) 0.6748(3)
C10 C 0.040(1) 0.222(3) 0.6892(4)
C11 C -0.028(1) 0.415(3) 0.6719(8)
C12 C 0.036(1) 0.537(3) 0.637(1)
C13 C 0.150(1) 0.470(2) 0.616(1)
Zn1 Zn 0.57977(7) 0.9337(1) 0.70680(3)
P1 P 0.5810(1) 0.4308(3) 0.68778(6)
P2 P 0.3602(2) 0.1752(3) 0.61103(6)
H1 H 0.4332(6) 0.547(1) 0.6066(2)
H2 H 0.5441(6) 0.378(1) 0.5919(2)
H3 H 0.425(1) 0.313(2) 0.5061(4)
H4 H 0.357(1) 0.202(2) 0.4158(4)
H5 H 0.185(1) -0.032(2) 0.3897(3)
H6 H 0.129(2) -0.253(41) 0.4571(6)
H7 H 0.188(2) -0.137(4) 0.5491(4)
H8 H 0.2000(8) 0.017(2) 0.6862(3)
H9 H 0.004(1) 0.130(3) 0.7135(4)
H10 H -0.097(1) 0.464(3) 0.6839(8)
H11 H -0.005(2) 0.677(3) 0.625(1)
H12 H 0.183(1) 0.559(2) 0.591(1)
Zn1A Zn 0.42023(7) 0.4337(1) 0.79320(3)
O1A O 0.5284(4) -0.0623(8) 0.7772(2)
Zn1_2 Zn 0.57977(7) -0.0663(1) 0.70680(3)
O2_2 O 0.6635(4) -0.3482(7) 0.6906(2)
loop_
_geom_bond_atom_site_label_1
_geom_bond_atom_site_label_2
_geom_bond_site_symmetry_1
_geom_bond_site_symmetry_2
O1 P1 1_555 1_555
O2 Zn1 1_555 1_555
O3 P1 1_555 1_555
O4 P2 1_555 1_555
C1 P1 1_555 1_555
C2 C3 1_555 1_555
C3 C4 1_555 1_555
C4 C5 1_555 1_555
C5 C6 1_555 1_555
C6 C7 1_555 1_555
C7 C2 1_555 1_555
C8 C9 1_555 1_555
C9 C10 1_555 1_555
C10 C11 1_555 1_555
C11 C12 1_555 1_555
C12 C13 1_555 1_555
C13 C8 1_555 1_555
P1 O2 1_555 1_555
P2 C1 1_555 1_555
H1 C1 1_555 1_555
H2 C1 1_555 1_555
H3 C3 1_555 1_555
H4 C4 1_555 1_555
H5 C5 1_555 1_555
H6 C6 1_555 1_555
H7 C7 1_555 1_555
H8 C9 1_555 1_555
H9 C10 1_555 1_555
H10 C11 1_555 1_555
H11 C12 1_555 1_555
H12 C13 1_555 1_555
Zn1A O1 1_555 1_555
O1A Zn1_2 1_555 1_555
Zn1_2 O3 1_555 1_555
O2_2 Zn1_2 1_555 1_555
O4 Zn1_2 1_555 1_555
C2 P2 1_555 1_555
C8 P2 1_555 1_555

#END
