
#######################################################################
#
#                 Cambridge Crystallographic Data Centre
#                                CCDC 
#
#######################################################################
#
# If this CIF has been generated from an entry in the Cambridge 
# Structural Database, then it will include bibliographic, chemical, 
# crystal, experimental, refinement or atomic coordinate data resulting 
# from the CCDC's data processing and validation procedures.
#
#######################################################################

data_NIXHOT
_symmetry_cell_setting           monoclinic
_symmetry_space_group_name_H-M   'P 21/n'
_symmetry_Int_Tables_number      14
_space_group_name_Hall           '-P 2yn'
loop_
_symmetry_equiv_pos_site_id
_symmetry_equiv_pos_as_xyz
1 x,y,z
2 1/2-x,1/2+y,1/2-z
3 -x,-y,-z
4 1/2+x,1/2-y,1/2+z
_cell_length_a                   6.8557(4)
_cell_length_b                   10.4900(6)
_cell_length_c                   19.7921(13)
_cell_angle_alpha                90
_cell_angle_beta                 96.419(4)
_cell_angle_gamma                90
_cell_volume                     1414.45
loop_
_atom_site_label
_atom_site_type_symbol
_atom_site_fract_x
_atom_site_fract_y
_atom_site_fract_z
Mn1 Mn 0.32021(17) 0.59588(11) 0.17304(6)
V1 V -0.18120(19) 0.65380(13) 0.22267(7)
V2 V -0.3915(2) 0.45967(13) 0.30884(7)
O1 O -0.3620(7) 0.6000(5) 0.1691(2)
O2 O -0.6158(8) 0.4946(5) 0.2683(3)
O3 O -0.2912(9) 0.3215(6) 0.2700(3)
O4 O 0.3729(9) 0.8023(6) 0.2018(3)
H1 H 0.4854 0.8108 0.2258
H2 H 0.2824 0.8290 0.2254
O5 O -0.2120(9) 0.5835(6) 0.3036(3)
O6 O -0.4178(10) 0.4301(6) 0.3877(3)
N1 N 0.2893(10) 0.4133(7) 0.1131(3)
C1 C 0.2974(12) 0.2969(8) 0.1407(4)
H3 H 0.3169 0.2904 0.1878
C2 C 0.2537(12) 0.5551(8) 0.0169(4)
C3 C 0.2616(11) 0.4236(8) 0.0441(4)
C4 C 0.2298(12) 0.7039(9) -0.0750(4)
H4 H 0.2187 0.7218 -0.1213
C5 C 0.2426(13) 0.3161(8) 0.0035(4)
H5 H 0.2262 0.3244 -0.0436
C6 C 0.2439(13) 0.8031(9) -0.0279(4)
H6 H 0.2404 0.8878 -0.0419
C7 C 0.2783(12) 0.1847(8) 0.1027(4)
H7 H 0.2857 0.1052 0.1236
C8 C 0.2632(13) 0.7711(8) 0.0404(4)
H8 H 0.2727 0.8366 0.0723
C9 C 0.2324(13) 0.5806(9) -0.0532(4)
H9 H 0.2202 0.5141 -0.0844
C10 C 0.2480(13) 0.1962(9) 0.0327(4)
H10 H 0.2315 0.1239 0.0055
O7 O 0.0265(9) 0.6140(6) 0.1940(3)
N2 N 0.2689(10) 0.6505(7) 0.0627(3)
Mn1_2 Mn -0.67979(17) 0.59588(11) 0.17304(6)
V1A V -0.31880(19) 0.15380(13) 0.27733(7)
O1_2 O 0.6380(7) 0.6000(5) 0.1691(2)
O2_2 O 0.3842(8) 0.4946(5) 0.2683(3)
O3A O -0.2088(9) 0.8215(6) 0.2300(3)
loop_
_geom_bond_atom_site_label_1
_geom_bond_atom_site_label_2
_geom_bond_site_symmetry_1
_geom_bond_site_symmetry_2
Mn1 O4 1_555 1_555
V1 O1 1_555 1_555
V2 O2 1_555 1_555
O1 Mn1_2 1_555 1_555
O2 Mn1_2 1_555 1_555
O3 V2 1_555 1_555
O4 H1 1_555 1_555
H2 O4 1_555 1_555
O5 V1 1_555 1_555
O6 V2 1_555 1_555
N1 Mn1 1_555 1_555
C1 N1 1_555 1_555
H3 C1 1_555 1_555
C2 C3 1_555 1_555
C3 N1 1_555 1_555
C4 H4 1_555 1_555
C5 C3 1_555 1_555
H5 C5 1_555 1_555
C6 C4 1_555 1_555
H6 C6 1_555 1_555
C7 C1 1_555 1_555
H7 C7 1_555 1_555
C8 C6 1_555 1_555
H8 C8 1_555 1_555
C9 C2 1_555 1_555
H9 C9 1_555 1_555
C10 C5 1_555 1_555
H10 C10 1_555 1_555
O7 Mn1 1_555 1_555
N2 Mn1 1_555 1_555
V1A O3 1_555 1_555
O1_2 Mn1 1_555 1_555
O2_2 Mn1 1_555 1_555
O3A V1 1_555 1_555
V1 O7 1_555 1_555
V2 O5 1_555 1_555
C2 N2 1_555 1_555
C4 C9 1_555 1_555
C7 C10 1_555 1_555
C8 N2 1_555 1_555

#END
