
#######################################################################
#
#                 Cambridge Crystallographic Data Centre
#                                CCDC 
#
#######################################################################
#
# If this CIF has been generated from an entry in the Cambridge 
# Structural Database, then it will include bibliographic, chemical, 
# crystal, experimental, refinement or atomic coordinate data resulting 
# from the CCDC's data processing and validation procedures.
#
#######################################################################

data_NIXQUH
_symmetry_cell_setting           monoclinic
_symmetry_space_group_name_H-M   'I 2/m'
_symmetry_Int_Tables_number      12
_space_group_name_Hall           '-I 2y'
loop_
_symmetry_equiv_pos_site_id
_symmetry_equiv_pos_as_xyz
1 x,y,z
2 1/2+x,1/2+y,1/2+z
3 -x,y,-z
4 1/2-x,1/2+y,1/2-z
5 -x,-y,-z
6 1/2-x,1/2-y,1/2-z
7 x,-y,z
8 1/2+x,1/2-y,1/2+z
_cell_length_a                   7.508(2)
_cell_length_b                   12.083(3)
_cell_length_c                   8.500(3)
_cell_angle_alpha                90
_cell_angle_beta                 91.67(2)
_cell_angle_gamma                90
_cell_volume                     770.785
loop_
_atom_site_label
_atom_site_type_symbol
_atom_site_fract_x
_atom_site_fract_y
_atom_site_fract_z
Zn1 Zn 0.2500 0.2500 0.7500
N1 N 0.0911(3) 0.0983(2) 0.7566(3)
C1 C -0.0883(4) 0.0981(3) 0.7643(3)
H1 H -0.1493 0.1651 0.7668
C2 C -0.1826(6) 0.0000 0.7687(6)
H2 H -0.3061 0.0000 0.7743
C3 C 0.1720(5) 0.0000 0.7520(5)
H3 H 0.2954 0.0000 0.7449
N2 N 0.1523(3) 0.3065(2) 0.9714(3)
N3 N 0.0000 0.3058(3) 1.0000
N4 N 0.0295(3) 0.3346(2) 0.6370(3)
N5 N 0.0000 0.3330(3) 0.5000
Zn1F Zn 0.2500 -0.2500 0.7500
Zn1G Zn -0.2500 0.2500 1.2500
Zn1G_2 Zn -0.2500 0.2500 0.2500
N1F N 0.0911(3) -0.0983(2) 0.7566(3)
N1E N 0.4089(3) 0.4017(2) 0.7434(3)
C1F C -0.0883(4) -0.0981(3) 0.7643(3)
H1F H -0.1493 -0.1651 0.7668
N2B N -0.1523(3) 0.3065(2) 1.0286(3)
N2E N 0.3477(3) 0.1935(2) 0.5286(3)
N4B N -0.0295(3) 0.3346(2) 0.3630(3)
N4E N 0.4705(3) 0.1654(2) 0.8630(3)
loop_
_geom_bond_atom_site_label_1
_geom_bond_atom_site_label_2
_geom_bond_site_symmetry_1
_geom_bond_site_symmetry_2
Zn1 N1 1_555 1_555
N1 C1 1_555 1_555
C1 H1 1_555 1_555
C2 C1 1_555 1_555
H2 C2 1_555 1_555
C3 N1 1_555 1_555
H3 C3 1_555 1_555
N2 Zn1 1_555 1_555
N3 N2 1_555 1_555
N4 Zn1 1_555 1_555
N5 N4 1_555 1_555
Zn1F N1F 1_555 1_555
Zn1G N2B 1_555 1_555
Zn1G_2 N4B 1_555 1_555
N1F C3 1_555 1_555
N1E Zn1 1_555 1_555
C1F C2 1_555 1_555
H1F C1F 1_555 1_555
N2B N3 1_555 1_555
N2E Zn1 1_555 1_555
N4B N5 1_555 1_555
N4E Zn1 1_555 1_555
N1F C1F 1_555 1_555

#END
