
#######################################################################
#
#                 Cambridge Crystallographic Data Centre
#                                CCDC 
#
#######################################################################
#
# If this CIF has been generated from an entry in the Cambridge 
# Structural Database, then it will include bibliographic, chemical, 
# crystal, experimental, refinement or atomic coordinate data resulting 
# from the CCDC's data processing and validation procedures.
#
#######################################################################

data_NIXZOL
_symmetry_cell_setting           triclinic
_symmetry_space_group_name_H-M   'P -1'
_symmetry_Int_Tables_number      2
_space_group_name_Hall           '-P 1'
loop_
_symmetry_equiv_pos_site_id
_symmetry_equiv_pos_as_xyz
1 x,y,z
2 -x,-y,-z
_cell_length_a                   8.6755(7)
_cell_length_b                   10.3795(8)
_cell_length_c                   35.240(3)
_cell_angle_alpha                92.172(2)
_cell_angle_beta                 91.370(2)
_cell_angle_gamma                99.956(3)
_cell_volume                     3121.74
loop_
_atom_site_label
_atom_site_type_symbol
_atom_site_fract_x
_atom_site_fract_y
_atom_site_fract_z
C1 C -0.2144(6) 1.0528(6) 0.70588(15)
C2 C 0.0723(6) 1.0358(6) 0.70826(15)
H1 H 0.0800 1.1168 0.7245
H2 H 0.1478 1.0541 0.6877
C3 C -0.2470(6) 0.4923(6) 0.73711(15)
H3 H -0.2438 0.4739 0.7644
H4 H -0.3477 0.4455 0.7258
C4 C 0.2026(9) 0.1732(8) 0.5461(2)
H5 H 0.1654 0.1303 0.5215
H6 H 0.1127 0.1838 0.5614
H7 H 0.2671 0.1193 0.5593
C5 C -0.0229(7) 0.8330(6) 0.59841(16)
C6 C -0.2256(7) 1.1217(6) 0.74045(16)
H8 H -0.1390 1.1424 0.7579
C7 C 0.1193(7) 0.9278(6) 0.73227(15)
H9 H 0.0914 0.8427 0.7179
H10 H 0.2343 0.9453 0.7367
C8 C -0.2348(7) 0.6384(6) 0.73246(16)
H11 H -0.2296 0.6555 0.7050
H12 H -0.1353 0.6835 0.7448
C9 C 0.6745(12) 0.1273(8) 0.5164(2)
H13 H 0.7753 0.1870 0.5167
H14 H 0.6920 0.0367 0.5137
H15 H 0.6218 0.1395 0.5402
C10 C -0.1284(7) 0.7743(6) 0.56722(17)
C11 C -0.3665(7) 1.1577(6) 0.74786(18)
H16 H -0.3778 1.2046 0.7710
C12 C 0.0396(7) 0.9182(6) 0.77065(15)
H17 H -0.0748 0.9089 0.7659
H18 H 0.0595 0.8373 0.7825
C13 C -0.3694(7) 0.6985(6) 0.74897(16)
H19 H -0.4696 0.6463 0.7390
H20 H -0.3628 0.7880 0.7397
C14 C 0.0041(7) 0.7304(6) 0.54725(16)
C15 C -0.4945(8) 1.1272(7) 0.7222(2)
H21 H -0.5906 1.1545 0.7280
C16 C 0.0909(7) 1.0330(6) 0.79899(15)
H22 H 0.0881 1.1158 0.7862
H23 H 0.2003 1.0332 0.8077
C17 C -0.3729(7) 0.7063(6) 0.79258(16)
H24 H -0.3998 0.6166 0.8019
H25 H -0.2671 0.7447 0.8029
C18 C 0.1091(7) 0.7993(6) 0.57853(16)
C19 C -0.4819(7) 1.0583(6) 0.68882(18)
H26 H -0.5693 1.0370 0.6716
C20 C -0.0134(7) 1.0265(6) 0.83330(16)
H27 H 0.0103 0.9559 0.8494
H28 H -0.1239 1.0022 0.8243
C21 C -0.4890(8) 0.7874(7) 0.80739(16)
H29 H -0.5962 0.7417 0.8003
H30 H -0.4723 0.8723 0.7949
C22 C -0.3412(7) 1.0201(6) 0.68039(16)
C23 C 0.0042(7) 1.1534(6) 0.85776(16)
H31 H 0.1146 1.1787 0.8668
H32 H -0.0218 1.2241 0.8420
C24 C -0.4770(7) 0.8134(6) 0.85060(16)
H33 H -0.4965 0.7285 0.8631
H34 H -0.3691 0.8570 0.8578
C25 C -0.2947(6) 0.9444(6) 0.64645(16)
C26 C -0.1005(7) 1.1404(6) 0.89175(16)
H35 H -0.0669 1.0759 0.9087
H36 H -0.2092 1.1055 0.8827
C27 C -0.5906(7) 0.8973(6) 0.86523(16)
H37 H -0.6987 0.8519 0.8589
H38 H -0.5741 0.9807 0.8519
C28 C -0.1220(6) 0.9419(5) 0.65594(14)
C29 C -0.0993(7) 1.2680(6) 0.91461(16)
H39 H -0.1338 1.3324 0.8978
H40 H 0.0094 1.3033 0.9235
C30 C -0.5745(7) 0.9280(6) 0.90806(16)
H41 H -0.5877 0.8445 0.9213
H42 H -0.4673 0.9756 0.9142
C31 C -0.3107(7) 1.0206(7) 0.60997(17)
H43 H -0.4211 1.0260 0.6051
H44 H -0.2717 0.9749 0.5884
H45 H -0.2495 1.1092 0.6134
C32 C -0.2046(7) 1.2531(6) 0.94894(16)
H46 H -0.3128 1.2162 0.9399
H47 H -0.1691 1.1894 0.9658
C33 C -0.6916(7) 1.0092(6) 0.92327(16)
H48 H -0.6788 1.0923 0.9098
H49 H -0.7987 0.9611 0.9172
C34 C -0.3933(7) 0.8070(6) 0.64251(17)
H50 H -0.3831 0.7611 0.6660
H51 H -0.3565 0.7582 0.6212
H52 H -0.5033 0.8137 0.6378
C35 C -0.2076(7) 1.3786(6) 0.97186(16)
H53 H -0.2468 1.4415 0.9552
H54 H -0.0991 1.4172 0.9802
C36 C -0.6760(7) 1.0410(6) 0.96567(16)
H55 H -0.5701 1.0916 0.9717
H56 H -0.6859 0.9582 0.9792
C37 C -0.0125(7) 0.8954(6) 0.63486(15)
H57 H 0.0886 0.9070 0.6468
C38 C -0.3085(7) 1.3616(6) 1.00663(17)
H58 H -0.4169 1.3227 0.9983
H59 H -0.2690 1.2991 1.0233
C39 C -0.7969(7) 1.1189(6) 0.98053(16)
H60 H -0.9028 1.0681 0.9747
H61 H -0.7874 1.2015 0.9669
C40 C -0.3120(6) 1.4879(6) 1.02954(16)
H62 H -0.3542 1.5496 1.0131
H63 H -0.2034 1.5280 1.0373
C41 C -0.7806(7) 1.1518(6) 1.02331(16)
H64 H -0.7883 1.0694 1.0370
H65 H -0.6757 1.2043 1.0292
C42 C -0.4099(7) 1.4699(6) 1.06486(17)
H66 H -0.5182 1.4290 1.0570
H67 H -0.3673 1.4083 1.0813
C43 C -0.9042(7) 1.2271(6) 1.03757(16)
H68 H -1.0088 1.1734 1.0321
H69 H -0.8982 1.3080 1.0233
C44 C -0.4156(7) 1.5948(6) 1.08803(16)
H70 H -0.4552 1.6576 1.0715
H71 H -0.3079 1.6342 1.0968
C45 C -0.8884(7) 1.2644(6) 1.07990(16)
H72 H -0.8932 1.1838 1.0943
H73 H -0.7845 1.3194 1.0854
C46 C -0.5181(8) 1.5747(6) 1.12230(16)
H74 H -0.4776 1.5127 1.1390
H75 H -0.6254 1.5340 1.1135
C47 C -1.0142(7) 1.3380(6) 1.09362(16)
H76 H -1.1178 1.2823 1.0885
H77 H -1.0105 1.4176 1.0788
C48 C -0.5266(8) 1.6996(7) 1.14548(17)
H78 H -0.4217 1.7386 1.1553
H79 H -0.5962 1.6791 1.1667
H80 H -0.5675 1.7615 1.1293
C49 C -0.9989(8) 1.3782(7) 1.13556(17)
H81 H -1.0018 1.3001 1.1505
H82 H -1.0857 1.4226 1.1425
H83 H -0.8993 1.4377 1.1407
C50 C -0.2460(7) 0.4271(6) 0.61528(15)
C51 C -0.1581(6) 0.4364(6) 0.58029(15)
C52 C -0.3069(6) 0.4410(6) 0.55823(15)
C53 C -0.3906(7) 0.4224(7) 0.59474(16)
C54 C 0.0237(6) 0.4355(6) 0.73746(14)
C55 C 0.0569(7) 0.4388(6) 0.77587(15)
H84 H -0.0190 0.4526 0.7939
C56 C 0.2056(7) 0.4214(6) 0.78728(17)
H85 H 0.2315 0.4230 0.8137
C57 C 0.3183(7) 0.4015(6) 0.76118(16)
H86 H 0.4191 0.3893 0.7698
C58 C 0.2822(7) 0.3997(6) 0.72238(16)
H87 H 0.3582 0.3863 0.7044
C59 C 0.1351(6) 0.4175(5) 0.71040(15)
C60 C 0.0653(6) 0.4249(6) 0.67099(15)
C61 C -0.1052(6) 0.4332(5) 0.67956(14)
C62 C 0.0803(7) 0.3041(6) 0.64557(16)
H88 H 0.1912 0.2980 0.6432
H89 H 0.0339 0.3123 0.6203
H90 H 0.0253 0.2250 0.6569
C63 C 0.1452(7) 0.5520(6) 0.65328(15)
H91 H 0.1335 0.6274 0.6699
H92 H 0.0962 0.5600 0.6283
H93 H 0.2567 0.5495 0.6504
C64 C -0.2304(6) 0.4295(6) 0.65553(16)
H94 H -0.3263 0.4283 0.6680
N1 N -0.0854(5) 1.0037(5) 0.69133(13)
N2 N -0.1164(5) 0.4464(5) 0.71819(12)
O1 O 0.3612(5) 0.6000(5) 0.56200(11)
O2 O 0.2942(5) 0.2992(5) 0.54011(11)
O3 O -0.2700(5) 0.7620(5) 0.55862(12)
O4 O 0.5799(7) 0.1544(6) 0.48551(16)
O5 O 0.0179(5) 0.6623(4) 0.51878(11)
O6 O 0.2541(5) 0.8210(5) 0.58563(12)
O7 O -0.0209(4) 0.4405(4) 0.57098(10)
O8 O -0.5313(5) 0.4106(5) 0.60354(11)
Na1 Na 0.1572(2) 0.4764(2) 0.52391(6)
Na2 Na 0.4560(3) 0.3303(3) 0.48504(6)
O9 O -0.3415(4) 0.4606(4) 0.52501(10)
H95 H 0.326(8) 0.665(4) 0.5703(15)
H96 H 0.400(8) 0.562(6) 0.5792(12)
H97 H 0.637(7) 0.143(7) 0.4666(13)
H98 H 0.325(8) 0.320(7) 0.5630(7)
O1A O 0.6388(5) 0.4000(5) 0.43800(11)
O3A O 0.2700(5) 0.2380(5) 0.44138(12)
O5A O -0.0179(5) 0.3377(4) 0.48122(11)
Na1A Na -0.1572(2) 0.5236(2) 0.47609(6)
Na2_2 Na -0.5440(3) 0.3303(3) 0.48504(6)
Na2A Na -0.4560(3) 0.6697(3) 0.51496(6)
Na2A_2 Na 0.5440(3) 0.6697(3) 0.51496(6)
O9_2 O 0.6585(4) 0.4606(4) 0.52501(10)
O9A O 0.3415(4) 0.5394(4) 0.47499(10)
loop_
_geom_bond_atom_site_label_1
_geom_bond_atom_site_label_2
_geom_bond_site_symmetry_1
_geom_bond_site_symmetry_2
C1 C6 1_555 1_555
C2 H1 1_555 1_555
H2 C2 1_555 1_555
C3 H3 1_555 1_555
H4 C3 1_555 1_555
C4 H5 1_555 1_555
H6 C4 1_555 1_555
H7 C4 1_555 1_555
C5 C10 1_555 1_555
C6 H8 1_555 1_555
C7 C2 1_555 1_555
H9 C7 1_555 1_555
H10 C7 1_555 1_555
C8 C3 1_555 1_555
H11 C8 1_555 1_555
H12 C8 1_555 1_555
C9 H13 1_555 1_555
H14 C9 1_555 1_555
H15 C9 1_555 1_555
C10 C14 1_555 1_555
C11 C6 1_555 1_555
H16 C11 1_555 1_555
C12 C7 1_555 1_555
H17 C12 1_555 1_555
H18 C12 1_555 1_555
C13 C8 1_555 1_555
H19 C13 1_555 1_555
H20 C13 1_555 1_555
C14 C18 1_555 1_555
C15 C11 1_555 1_555
H21 C15 1_555 1_555
C16 C12 1_555 1_555
H22 C16 1_555 1_555
H23 C16 1_555 1_555
C17 C13 1_555 1_555
H24 C17 1_555 1_555
H25 C17 1_555 1_555
C18 C5 1_555 1_555
C19 C15 1_555 1_555
H26 C19 1_555 1_555
C20 C16 1_555 1_555
H27 C20 1_555 1_555
H28 C20 1_555 1_555
C21 C17 1_555 1_555
H29 C21 1_555 1_555
H30 C21 1_555 1_555
C22 C1 1_555 1_555
C23 C20 1_555 1_555
H31 C23 1_555 1_555
H32 C23 1_555 1_555
C24 C21 1_555 1_555
H33 C24 1_555 1_555
H34 C24 1_555 1_555
C25 C22 1_555 1_555
C26 C23 1_555 1_555
H35 C26 1_555 1_555
H36 C26 1_555 1_555
C27 C24 1_555 1_555
H37 C27 1_555 1_555
H38 C27 1_555 1_555
C28 C25 1_555 1_555
C29 C26 1_555 1_555
H39 C29 1_555 1_555
H40 C29 1_555 1_555
C30 C27 1_555 1_555
H41 C30 1_555 1_555
H42 C30 1_555 1_555
C31 C25 1_555 1_555
H43 C31 1_555 1_555
H44 C31 1_555 1_555
H45 C31 1_555 1_555
C32 C29 1_555 1_555
H46 C32 1_555 1_555
H47 C32 1_555 1_555
C33 C30 1_555 1_555
H48 C33 1_555 1_555
H49 C33 1_555 1_555
C34 C25 1_555 1_555
H50 C34 1_555 1_555
H51 C34 1_555 1_555
H52 C34 1_555 1_555
C35 C32 1_555 1_555
H53 C35 1_555 1_555
H54 C35 1_555 1_555
C36 C33 1_555 1_555
H55 C36 1_555 1_555
H56 C36 1_555 1_555
C37 C5 1_555 1_555
H57 C37 1_555 1_555
C38 C35 1_555 1_555
H58 C38 1_555 1_555
H59 C38 1_555 1_555
C39 C36 1_555 1_555
H60 C39 1_555 1_555
H61 C39 1_555 1_555
C40 C38 1_555 1_555
H62 C40 1_555 1_555
H63 C40 1_555 1_555
C41 C39 1_555 1_555
H64 C41 1_555 1_555
H65 C41 1_555 1_555
C42 C40 1_555 1_555
H66 C42 1_555 1_555
H67 C42 1_555 1_555
C43 C41 1_555 1_555
H68 C43 1_555 1_555
H69 C43 1_555 1_555
C44 C42 1_555 1_555
H70 C44 1_555 1_555
H71 C44 1_555 1_555
C45 C43 1_555 1_555
H72 C45 1_555 1_555
H73 C45 1_555 1_555
C46 C44 1_555 1_555
H74 C46 1_555 1_555
H75 C46 1_555 1_555
C47 C45 1_555 1_555
H76 C47 1_555 1_555
H77 C47 1_555 1_555
C48 C46 1_555 1_555
H78 C48 1_555 1_555
H79 C48 1_555 1_555
H80 C48 1_555 1_555
C49 C47 1_555 1_555
H81 C49 1_555 1_555
H82 C49 1_555 1_555
H83 C49 1_555 1_555
C50 C51 1_555 1_555
C51 C52 1_555 1_555
C52 C53 1_555 1_555
C53 C50 1_555 1_555
C54 C55 1_555 1_555
C55 H84 1_555 1_555
C56 C55 1_555 1_555
H85 C56 1_555 1_555
C57 C56 1_555 1_555
H86 C57 1_555 1_555
C58 C57 1_555 1_555
H87 C58 1_555 1_555
C59 C54 1_555 1_555
C60 C59 1_555 1_555
C61 C60 1_555 1_555
C62 C60 1_555 1_555
H88 C62 1_555 1_555
H89 C62 1_555 1_555
H90 C62 1_555 1_555
C63 C60 1_555 1_555
H91 C63 1_555 1_555
H92 C63 1_555 1_555
H93 C63 1_555 1_555
C64 C50 1_555 1_555
H94 C64 1_555 1_555
N1 C1 1_555 1_555
N2 C3 1_555 1_555
O1 Na1 1_555 1_555
O2 C4 1_555 1_555
O3 C10 1_555 1_555
O4 C9 1_555 1_555
O5 C14 1_555 1_555
O6 C18 1_555 1_555
O7 C51 1_555 1_555
O8 C53 1_555 1_555
Na1 O2 1_555 1_555
Na2 O2 1_555 1_555
O9 C52 1_555 1_555
H95 O1 1_555 1_555
H96 O1 1_555 1_555
H97 O4 1_555 1_555
H98 O2 1_555 1_555
O1A Na2 1_555 1_555
O3A Na2 1_555 1_555
O5A Na1 1_555 1_555
Na1A O5 1_555 1_555
Na2_2 O9 1_555 1_555
Na2A O3 1_555 1_555
Na2A_2 O1 1_555 1_555
O9_2 Na2 1_555 1_555
O9A Na1 1_555 1_555
C2 N1 1_555 1_555
C19 C22 1_555 1_555
C28 C37 1_555 1_555
C28 N1 1_555 1_555
C54 N2 1_555 1_555
C58 C59 1_555 1_555
C61 C64 1_555 1_555
C61 N2 1_555 1_555
O4 Na2 1_555 1_555
O5 Na1 1_555 1_555
O7 Na1 1_555 1_555
Na2 O9A 1_555 1_555
O9 Na1A 1_555 1_555
O9 Na2A 1_555 1_555
O5A Na1A 1_555 1_555
Na2A_2 O9_2 1_555 1_555
Na2A_2 O9A 1_555 1_555

#END
