
#######################################################################
#
#                 Cambridge Crystallographic Data Centre
#                                CCDC 
#
#######################################################################
#
# If this CIF has been generated from an entry in the Cambridge 
# Structural Database, then it will include bibliographic, chemical, 
# crystal, experimental, refinement or atomic coordinate data resulting 
# from the CCDC's data processing and validation procedures.
#
#######################################################################

data_NIYCUV
_symmetry_cell_setting           monoclinic
_symmetry_space_group_name_H-M   'P 21/c'
_symmetry_Int_Tables_number      14
_space_group_name_Hall           '-P 2ybc'
loop_
_symmetry_equiv_pos_site_id
_symmetry_equiv_pos_as_xyz
1 x,y,z
2 -x,1/2+y,1/2-z
3 -x,-y,-z
4 x,1/2-y,1/2+z
_cell_length_a                   13.5546(3)
_cell_length_b                   14.6026(3)
_cell_length_c                   11.7865(4)
_cell_angle_alpha                90
_cell_angle_beta                 110.7280(10)
_cell_angle_gamma                90
_cell_volume                     2181.92
loop_
_atom_site_label
_atom_site_type_symbol
_atom_site_fract_x
_atom_site_fract_y
_atom_site_fract_z
U1 U 0.50196(2) 0.01980(2) 0.34723(2)
U2 U 0.22281(2) 0.01971(2) 0.39147(2)
O1 O 0.2175(4) 0.1411(4) 0.3890(5)
O2 O 0.2216(4) -0.0994(4) 0.3932(5)
O3 O 0.5258(4) 0.1385(4) 0.3784(5)
O4 O 0.4771(4) -0.0964(4) 0.3060(5)
O5 O 0.0376(4) 0.0122(4) 0.3084(5)
O6 O -0.1448(4) -0.0308(4) 0.4422(5)
O7 O -0.1558(5) -0.0055(5) -0.1608(5)
O8 O -0.4871(4) -0.0521(4) -0.1421(4)
O9 O -0.3175(4) -0.0529(4) -0.2263(5)
O10 O 0.3964(4) 0.0134(4) 0.4591(5)
C1 C -0.1427(5) 0.0115(5) 0.1983(6)
C2 C -0.0469(6) 0.0554(6) 0.2913(7)
O11 O -0.0567(4) 0.1275(4) 0.3363(5)
O12 O -0.3141(4) -0.0030(4) 0.3689(5)
C3 C -0.3145(5) -0.0594(5) 0.1362(6)
C4 C -0.2297(6) -0.0212(5) 0.2257(6)
C5 C -0.3202(5) -0.0615(5) 0.0159(6)
C6 C -0.1470(6) 0.0071(5) 0.0782(6)
C7 C -0.2361(6) -0.0277(5) -0.0120(6)
C8 C -0.2360(6) -0.0269(6) -0.1404(6)
C9 C -0.2281(6) -0.0171(5) 0.3531(7)
C10 C -0.4178(6) -0.1074(6) -0.0753(7)
O13 O -0.4242(4) -0.1906(4) -0.0701(5)
H1 H -0.371069 -0.085085 0.156974
H2 H -0.088308 0.028192 0.057808
U1_2 U -0.49804(2) 0.01980(2) 0.34723(2)
U1B U -0.50196(2) -0.01980(2) -0.34723(2)
U1B_2 U 0.49804(2) -0.01980(2) 0.65277(2)
U2B U -0.22281(2) -0.01971(2) -0.39147(2)
U2B_2 U -0.22281(2) -0.01971(2) 0.60853(2)
O6B O 0.1448(4) 0.0308(4) 0.5578(5)
O7B O 0.1558(5) 0.0055(5) 0.1608(5)
O8B O 0.4871(4) 0.0521(4) 0.1421(4)
O9B O 0.3175(4) 0.0529(4) 0.2263(5)
O10B O 0.6036(4) -0.0134(4) 0.5409(5)
O12_2 O 0.6859(4) -0.0030(4) 0.3689(5)
O12B O 0.3141(4) 0.0030(4) 0.6311(5)
N1 N 0.0564(5) 0.2245(5) 0.5341(6)
C11 C 0.0293(10) 0.3110(7) 0.4647(9)
C12 C 0.0021(9) 0.2135(8) 0.6216(11)
H3 H 0.068236 0.31514 0.410865
H4 H -0.044907 0.312007 0.418347
H5 H 0.047024 0.36186 0.519788
H6 H 0.007397 0.150911 0.647986
H7 H 0.034445 0.252593 0.690205
H8 H -0.07083 0.229785 0.583553
H9 H 0.041231 0.178429 0.484076
H10 H 0.124227 0.221868 0.572093
N2 N 0.3765(5) 0.7527(5) 0.3932(6)
C13 C 0.3056(7) 0.7386(7) 0.2662(8)
C14 C 0.3588(9) 0.6857(7) 0.4780(9)
H11 H 0.311792 0.789453 0.217594
H12 H 0.324825 0.683174 0.235408
H13 H 0.234055 0.733974 0.263252
H14 H 0.419535 0.683923 0.551312
H15 H 0.298073 0.703644 0.496731
H16 H 0.347092 0.626157 0.441219
H17 H 0.441812 0.749483 0.397282
H18 H 0.368268 0.80788 0.416044
O14 O 0.2756(5) 0.2339(5) 0.6735(6)
loop_
_geom_bond_atom_site_label_1
_geom_bond_atom_site_label_2
_geom_bond_site_symmetry_1
_geom_bond_site_symmetry_2
U1 O3 1_555 1_555
U2 O1 1_555 1_555
O2 U2 1_555 1_555
O4 U1 1_555 1_555
O5 U2 1_555 1_555
O6 C9 1_555 1_555
O7 C8 1_555 1_555
O8 C10 1_555 1_555
O9 C8 1_555 1_555
O10 U1 1_555 1_555
C1 C2 1_555 1_555
C2 O5 1_555 1_555
O11 C2 1_555 1_555
O12 C9 1_555 1_555
C3 C4 1_555 1_555
C4 C1 1_555 1_555
C5 C3 1_555 1_555
C6 C1 1_555 1_555
C7 C5 1_555 1_555
C8 C7 1_555 1_555
C9 C4 1_555 1_555
C10 C5 1_555 1_555
O13 C10 1_555 1_555
H1 C3 1_555 1_555
H2 C6 1_555 1_555
N1 C11 1_555 1_555
C11 H3 1_555 1_555
C12 N1 1_555 1_555
H4 C11 1_555 1_555
H5 C11 1_555 1_555
H6 C12 1_555 1_555
H7 C12 1_555 1_555
H8 C12 1_555 1_555
H9 N1 1_555 1_555
H10 N1 1_555 1_555
N2 C13 1_555 1_555
C13 H11 1_555 1_555
C14 N2 1_555 1_555
H12 C13 1_555 1_555
H13 C13 1_555 1_555
H14 C14 1_555 1_555
H15 C14 1_555 1_555
H16 C14 1_555 1_555
H17 N2 1_555 1_555
H18 N2 1_555 1_555
U1_2 O12 1_555 1_555
U1B O8 1_555 1_555
U1B_2 O10 1_555 1_555
U2B O7 1_555 1_555
U2B_2 O6 1_555 1_555
O6B U2 1_555 1_555
O7B U2 1_555 1_555
O8B U1 1_555 1_555
O9B U1 1_555 1_555
O10B U1 1_555 1_555
O12_2 U1 1_555 1_555
O12B U2 1_555 1_555
U2 O10 1_555 1_555
U2 O9B 1_555 1_555
O9 U1B 1_555 1_555
O9 U2B 1_555 1_555
O12 U2B_2 1_555 1_555
C6 C7 1_555 1_555
U1B_2 O10B 1_555 1_555
U1B_2 O12B 1_555 1_555

#END
