
#######################################################################
#
#                 Cambridge Crystallographic Data Centre
#                                CCDC 
#
#######################################################################
#
# If this CIF has been generated from an entry in the Cambridge 
# Structural Database, then it will include bibliographic, chemical, 
# crystal, experimental, refinement or atomic coordinate data resulting 
# from the CCDC's data processing and validation procedures.
#
#######################################################################

data_NIYNUG
_symmetry_cell_setting           triclinic
_symmetry_space_group_name_H-M   'P -1'
_symmetry_Int_Tables_number      2
_space_group_name_Hall           '-P 1'
loop_
_symmetry_equiv_pos_site_id
_symmetry_equiv_pos_as_xyz
1 x,y,z
2 -x,-y,-z
_cell_length_a                   5.2008(3)
_cell_length_b                   9.1754(4)
_cell_length_c                   16.7077(8)
_cell_angle_alpha                96.307(3)
_cell_angle_beta                 97.880(3)
_cell_angle_gamma                101.052(3)
_cell_volume                     767.469
loop_
_atom_site_label
_atom_site_type_symbol
_atom_site_fract_x
_atom_site_fract_y
_atom_site_fract_z
Zn1 Zn 0.86588(7) 0.90215(4) 0.64469(2)
O1 O 0.7958(5) 1.0601(2) 0.57043(14)
N1 N 1.1248(5) 0.9515(3) 0.75145(14)
O2 O 0.6485(6) 1.0941(3) 0.68374(16)
C1 C 0.6793(6) 1.1345(3) 0.6174(2)
C2 C 1.2760(7) 0.8554(4) 0.77458(19)
H1 H 1.2375 0.7586 0.7464
C3 C 1.1814(7) 1.0879(4) 0.79466(19)
H2 H 1.0768 1.1556 0.7806
C4 C 0.4055(7) 1.3323(3) 0.6413(2)
H3 H 0.4843 1.3444 0.6984
H4 H 0.2365 1.2619 0.6341
C5 C 1.5459(6) 1.0356(4) 0.88163(18)
C6 C 0.5853(7) 1.2679(3) 0.58990(19)
H5 H 0.4916 1.2398 0.5343
H6 H 0.7394 1.3460 0.5891
C7 C 1.4841(7) 0.8938(4) 0.83775(19)
H7 H 1.5846 0.8237 0.8512
C8 C 1.3869(7) 1.1333(4) 0.8590(2)
H8 H 1.4187 1.2298 0.8873
N2 N 1.8917(6) 0.9766(4) 0.96815(17)
C9 C 1.7749(7) 1.0805(4) 0.94943(19)
C10 C 0.3573(6) 1.4832(3) 0.6198(2)
H9 H 0.3042 1.4734 0.5612
H10 H 0.2096 1.5058 0.6450
O3 O 0.7965(5) 1.6024(2) 0.68540(15)
C11 C 0.5874(6) 1.6133(3) 0.64495(19)
O4 O 0.5513(4) 1.7389(2) 0.62223(13)
C12 C 1.8505(9) 1.2409(5) 0.9893(3)
H11 H 1.8961 1.3049 0.9494
H12 H 2.0001 1.2528 1.0319
H13 H 1.7034 1.2675 1.0122
O5 O 1.0911(5) 0.8218(3) 0.56732(13)
H14 H 1.2345 0.8093 0.5944
H15 H 1.1283 0.8842 0.5343
N1A N 2.8752(5) 1.0485(3) 1.24855(14)
C2A C 2.7240(7) 1.1446(4) 1.22542(19)
H1A H 2.7625 1.2414 1.2536
C3A C 2.8186(7) 0.9121(4) 1.20534(19)
H2A H 2.9232 0.8444 1.2194
C5A C 2.4541(6) 0.9644(4) 1.11837(18)
C7A C 2.5159(7) 1.1062(4) 1.16225(19)
H7A H 2.4154 1.1763 1.1488
C8A C 2.6131(7) 0.8667(4) 1.1410(2)
H8A H 2.5813 0.7702 1.1127
N2A N 2.1083(6) 1.0234(4) 1.03185(17)
C9A C 2.2251(7) 0.9195(4) 1.05057(19)
C12A C 2.1495(9) 0.7591(5) 1.0107(3)
H11A H 2.1039 0.6951 1.0506
H12A H 1.9999 0.7472 0.9681
H13A H 2.2966 0.7325 0.9878
Zn1A Zn 3.13412(7) 1.09785(4) 1.35531(2)
O1A O 3.2042(5) 0.9399(2) 1.42957(14)
O2A O 3.3515(6) 0.9059(3) 1.31626(16)
C1A C 3.3207(6) 0.8655(3) 1.3826(2)
C4A C 3.5945(7) 0.6677(3) 1.3587(2)
H3A H 3.5157 0.6556 1.3016
H4A H 3.7635 0.7381 1.3659
C6A C 3.4147(7) 0.7321(3) 1.41010(19)
H5A H 3.5084 0.7602 1.4657
H6A H 3.2606 0.6540 1.4109
C10A C 3.6427(6) 0.5168(3) 1.3802(2)
H9A H 3.6958 0.5266 1.4388
H10A H 3.7904 0.4942 1.3550
O3A O 3.2035(5) 0.3976(2) 1.31460(15)
C11A C 3.4126(6) 0.3867(3) 1.35505(19)
O4A O 3.4487(4) 0.2611(2) 1.37777(13)
O5A O 2.9089(5) 1.1782(3) 1.43268(13)
H14A H 2.7655 1.1907 1.4056
H15A H 2.8717 1.1158 1.4657
Zn1_2 Zn 0.86588(7) 1.90215(4) 0.64469(2)
Zn1A_2 Zn 3.13412(7) 0.09785(4) 1.35531(2)
O4_2 O 0.5513(4) 0.7389(2) 0.62223(13)
O4A_2 O 3.4487(4) 1.2611(2) 1.37777(13)
O6 O 0.9237(6) 1.4560(5) 0.8204(2)
H16 H 0.8871 1.5347 0.8033
H17 H 1.0864 1.4733 0.8418
O7 O 1.4733(6) 1.5132(4) 0.9109(2)
H18 H 1.5221 1.6056 0.9303
H19 H 1.5952 1.4854 0.8879
loop_
_geom_bond_atom_site_label_1
_geom_bond_atom_site_label_2
_geom_bond_site_symmetry_1
_geom_bond_site_symmetry_2
Zn1 O1 1_555 1_555
O1 C1 1_555 1_555
N1 Zn1 1_555 1_555
O2 Zn1 1_555 1_555
C1 O2 1_555 1_555
C2 N1 1_555 1_555
H1 C2 1_555 1_555
C3 N1 1_555 1_555
H2 C3 1_555 1_555
C4 H3 1_555 1_555
H4 C4 1_555 1_555
C5 C7 1_555 1_555
C6 C1 1_555 1_555
H5 C6 1_555 1_555
H6 C6 1_555 1_555
C7 C2 1_555 1_555
H7 C7 1_555 1_555
C8 C3 1_555 1_555
H8 C8 1_555 1_555
N2 C9 1_555 1_555
C9 C5 1_555 1_555
C10 C4 1_555 1_555
H9 C10 1_555 1_555
H10 C10 1_555 1_555
O3 C11 1_555 1_555
C11 C10 1_555 1_555
O4 C11 1_555 1_555
C12 C9 1_555 1_555
H11 C12 1_555 1_555
H12 C12 1_555 1_555
H13 C12 1_555 1_555
O5 Zn1 1_555 1_555
H14 O5 1_555 1_555
H15 O5 1_555 1_555
O6 H16 1_555 1_555
H17 O6 1_555 1_555
O7 H18 1_555 1_555
H19 O7 1_555 1_555
N1A C2A 1_555 1_555
C2A H1A 1_555 1_555
C3A N1A 1_555 1_555
H2A C3A 1_555 1_555
C5A C7A 1_555 1_555
C7A C2A 1_555 1_555
H7A C7A 1_555 1_555
C8A C3A 1_555 1_555
H8A C8A 1_555 1_555
N2A N2 1_555 1_555
C9A C5A 1_555 1_555
C12A C9A 1_555 1_555
H11A C12A 1_555 1_555
H12A C12A 1_555 1_555
H13A C12A 1_555 1_555
Zn1A N1A 1_555 1_555
O1A Zn1A 1_555 1_555
O2A Zn1A 1_555 1_555
C1A O1A 1_555 1_555
C4A H3A 1_555 1_555
H4A C4A 1_555 1_555
C6A C1A 1_555 1_555
H5A C6A 1_555 1_555
H6A C6A 1_555 1_555
C10A C4A 1_555 1_555
H9A C10A 1_555 1_555
H10A C10A 1_555 1_555
O3A C11A 1_555 1_555
C11A C10A 1_555 1_555
O4A C11A 1_555 1_555
O5A Zn1A 1_555 1_555
H14A O5A 1_555 1_555
H15A O5A 1_555 1_555
Zn1_2 O4 1_555 1_555
Zn1A_2 O4A 1_555 1_555
O4_2 Zn1 1_555 1_555
O4A_2 Zn1A 1_555 1_555
C4 C6 1_555 1_555
C5 C8 1_555 1_555
C5A C8A 1_555 1_555
N2A C9A 1_555 1_555
O2A C1A 1_555 1_555
C4A C6A 1_555 1_555

#END
