
#######################################################################
#
#                 Cambridge Crystallographic Data Centre
#                                CCDC 
#
#######################################################################
#
# If this CIF has been generated from an entry in the Cambridge 
# Structural Database, then it will include bibliographic, chemical, 
# crystal, experimental, refinement or atomic coordinate data resulting 
# from the CCDC's data processing and validation procedures.
#
#######################################################################

data_NIYNOA
_symmetry_cell_setting           triclinic
_symmetry_space_group_name_H-M   'P -1'
_symmetry_Int_Tables_number      2
_space_group_name_Hall           '-P 1'
loop_
_symmetry_equiv_pos_site_id
_symmetry_equiv_pos_as_xyz
1 x,y,z
2 -x,-y,-z
_cell_length_a                   7.9410(3)
_cell_length_b                   10.7157(4)
_cell_length_c                   12.0719(4)
_cell_angle_alpha                93.337(2)
_cell_angle_beta                 93.883(2)
_cell_angle_gamma                111.134(2)
_cell_volume                     952.171
loop_
_atom_site_label
_atom_site_type_symbol
_atom_site_fract_x
_atom_site_fract_y
_atom_site_fract_z
C1 C 0.9758(4) 0.7555(4) 0.7780(4)
C2 C 1.1632(4) 0.8420(4) 0.7524(3)
H1 H 1.1528 0.9074 0.7029
H2 H 1.2159 0.7857 0.7131
C3 C 1.2914(4) 0.9160(3) 0.8542(3)
H3 H 1.4025 0.9778 0.8297
H4 H 1.2362 0.9685 0.8961
C4 C 1.3377(4) 0.8231(4) 0.9300(3)
H5 H 1.3937 0.8739 1.0006
H6 H 1.2255 0.7532 0.9446
C5 C 1.4617(4) 0.7570(3) 0.8872(3)
C6 C 0.4416(5) 0.3444(3) 0.7700(3)
H7 H 0.4877 0.3240 0.8365
C7 C 0.3220(5) 0.2404(3) 0.6982(3)
H8 H 0.2897 0.1521 0.7164
C8 C 0.2517(5) 0.2680(3) 0.6005(3)
C9 C 0.3037(7) 0.3994(4) 0.5779(4)
H9 H 0.2588 0.4220 0.5120
C10 C 0.4229(7) 0.4980(4) 0.6532(4)
H10 H 0.4556 0.5870 0.6369
C11 C 0.1218(5) 0.1625(4) 0.5213(3)
H11 H 0.0834 0.1852 0.4535
N1 N 0.4936(4) 0.4723(3) 0.7483(2)
N2 N 0.0620(4) 0.0427(3) 0.5435(2)
O1 O 0.8827(4) 0.6603(3) 0.7118(3)
O2 O 0.9160(3) 0.7823(3) 0.8661(3)
O3 O 0.7612(3) 0.5255(2) 0.9672(2)
H12 H 0.6712 0.4753 0.9988
H13 H 0.8106 0.4766 0.9342
O4 O 1.5024(3) 0.6777(2) 0.9490(2)
O5 O 1.5251(3) 0.7793(2) 0.7955(2)
Zn1 Zn 0.67479(4) 0.62739(3) 0.85362(3)
C6A C -0.4416(5) -0.3444(3) 0.2300(3)
H7A H -0.4877 -0.3240 0.1635
C7A C -0.3220(5) -0.2404(3) 0.3018(3)
H8A H -0.2897 -0.1521 0.2836
C8A C -0.2517(5) -0.2680(3) 0.3995(3)
C9A C -0.3037(7) -0.3994(4) 0.4221(4)
H9A H -0.2588 -0.4220 0.4880
C10A C -0.4229(7) -0.4980(4) 0.3468(4)
H10A H -0.4556 -0.5870 0.3631
C11A C -0.1218(5) -0.1625(4) 0.4787(3)
H11A H -0.0834 -0.1852 0.5465
N1A N -0.4936(4) -0.4723(3) 0.2517(2)
N2A N -0.0620(4) -0.0427(3) 0.4565(2)
C1A C -0.9758(4) -0.7555(4) 0.2220(4)
C2A C -1.1632(4) -0.8420(4) 0.2476(3)
H1A H -1.1528 -0.9074 0.2971
H2A H -1.2159 -0.7857 0.2869
C3A C -1.2914(4) -0.9160(3) 0.1458(3)
H3A H -1.4025 -0.9778 0.1703
H4A H -1.2362 -0.9685 0.1039
C4A C -1.3377(4) -0.8231(4) 0.0700(3)
H5A H -1.3937 -0.8739 -0.0006
H6A H -1.2255 -0.7532 0.0554
C5A C -1.4617(4) -0.7570(3) 0.1128(3)
O1A O -0.8827(4) -0.6603(3) 0.2882(3)
O2A O -0.9160(3) -0.7823(3) 0.1339(3)
O3A O -0.7612(3) -0.5255(2) 0.0328(2)
H12A H -0.6712 -0.4753 0.0012
H13A H -0.8106 -0.4766 0.0658
O4A O -1.5024(3) -0.6777(2) 0.0510(2)
O5A O -1.5251(3) -0.7793(2) 0.2045(2)
Zn1A Zn -0.67479(4) -0.62739(3) 0.14638(3)
O4_2 O 0.5024(3) 0.6777(2) 0.9490(2)
O4A_2 O -0.5024(3) -0.6777(2) 0.0510(2)
O5_2 O 0.5251(3) 0.7793(2) 0.7955(2)
O5A_2 O -0.5251(3) -0.7793(2) 0.2045(2)
Zn1_2 Zn 1.67479(4) 0.62739(3) 0.85362(3)
Zn1A_2 Zn -1.67479(4) -0.62739(3) 0.14638(3)
C12 C 0.1930(5) -0.2608(4) 0.3045(3)
H14 H 0.2443 -0.2928 0.3626
C13 C 0.0709(5) -0.3492(4) 0.2234(3)
H15 H 0.0425 -0.4408 0.2281
C14 C 0.0339(5) -0.1773(4) 0.1341(3)
H16 H -0.0209 -0.1477 0.0761
C15 C 0.1556(5) -0.0825(4) 0.2121(3)
H17 H 0.1813 0.0086 0.2062
C16 C 0.3699(5) -0.0228(4) 0.3817(3)
H18 H 0.4012 0.0678 0.3713
C17 C 0.2386(4) -0.1243(3) 0.2989(3)
N3 N -0.0090(4) -0.3099(3) 0.1381(3)
N4 N 0.4403(4) -0.0559(3) 0.4659(3)
C12A C 0.8070(5) 0.2608(4) 0.6955(3)
H14A H 0.7557 0.2928 0.6374
C13A C 0.9291(5) 0.3492(4) 0.7766(3)
H15A H 0.9575 0.4408 0.7719
C14A C 0.9661(5) 0.1773(4) 0.8659(3)
H16A H 1.0209 0.1477 0.9239
C15A C 0.8444(5) 0.0825(4) 0.7879(3)
H17A H 0.8187 -0.0086 0.7938
C16A C 0.6301(5) 0.0228(4) 0.6183(3)
H18A H 0.5988 -0.0678 0.6287
C17A C 0.7614(4) 0.1243(3) 0.7011(3)
N3A N 1.0090(4) 0.3099(3) 0.8619(3)
N4A N 0.5597(4) 0.0559(3) 0.5341(3)
loop_
_geom_bond_atom_site_label_1
_geom_bond_atom_site_label_2
_geom_bond_site_symmetry_1
_geom_bond_site_symmetry_2
C1 C2 1_555 1_555
C2 H1 1_555 1_555
H2 C2 1_555 1_555
C3 C2 1_555 1_555
H3 C3 1_555 1_555
H4 C3 1_555 1_555
C4 C3 1_555 1_555
H5 C4 1_555 1_555
H6 C4 1_555 1_555
C5 C4 1_555 1_555
C6 H7 1_555 1_555
C7 C6 1_555 1_555
H8 C7 1_555 1_555
C8 C7 1_555 1_555
C9 C8 1_555 1_555
H9 C9 1_555 1_555
C10 C9 1_555 1_555
H10 C10 1_555 1_555
C11 C8 1_555 1_555
H11 C11 1_555 1_555
N1 C6 1_555 1_555
N2 C11 1_555 1_555
O1 C1 1_555 1_555
O2 C1 1_555 1_555
O3 H12 1_555 1_555
H13 O3 1_555 1_555
O4 C5 1_555 1_555
O5 C5 1_555 1_555
Zn1 N1 1_555 1_555
C12 H14 1_555 1_555
C13 C12 1_555 1_555
H15 C13 1_555 1_555
C14 H16 1_555 1_555
C15 C14 1_555 1_555
H17 C15 1_555 1_555
C16 H18 1_555 1_555
C17 C12 1_555 1_555
N3 C13 1_555 1_555
N4 C16 1_555 1_555
C6A H7A 1_555 1_555
C7A C6A 1_555 1_555
H8A C7A 1_555 1_555
C8A C7A 1_555 1_555
C9A C8A 1_555 1_555
H9A C9A 1_555 1_555
C10A C9A 1_555 1_555
H10A C10A 1_555 1_555
C11A C8A 1_555 1_555
H11A C11A 1_555 1_555
N1A C6A 1_555 1_555
N2A N2 1_555 1_555
C1A C2A 1_555 1_555
C2A H1A 1_555 1_555
H2A C2A 1_555 1_555
C3A C2A 1_555 1_555
H3A C3A 1_555 1_555
H4A C3A 1_555 1_555
C4A C3A 1_555 1_555
H5A C4A 1_555 1_555
H6A C4A 1_555 1_555
C5A C4A 1_555 1_555
O1A C1A 1_555 1_555
O2A C1A 1_555 1_555
O3A H12A 1_555 1_555
H13A O3A 1_555 1_555
O4A C5A 1_555 1_555
O5A C5A 1_555 1_555
Zn1A N1A 1_555 1_555
O4_2 Zn1 1_555 1_555
O4A_2 Zn1A 1_555 1_555
O5_2 Zn1 1_555 1_555
O5A_2 Zn1A 1_555 1_555
Zn1_2 O4 1_555 1_555
Zn1A_2 O4A 1_555 1_555
C12A H14A 1_555 1_555
C13A C12A 1_555 1_555
H15A C13A 1_555 1_555
C14A H16A 1_555 1_555
C15A C14A 1_555 1_555
H17A C15A 1_555 1_555
C16A H18A 1_555 1_555
C17A C12A 1_555 1_555
N3A C13A 1_555 1_555
N4A N4 1_555 1_555
C10 N1 1_555 1_555
O1 Zn1 1_555 1_555
O2 Zn1 1_555 1_555
O3 Zn1 1_555 1_555
O5 Zn1_2 1_555 1_555
C14 N3 1_555 1_555
C15 C17 1_555 1_555
C16 C17 1_555 1_555
C10A N1A 1_555 1_555
C11A N2A 1_555 1_555
O1A Zn1A 1_555 1_555
O2A Zn1A 1_555 1_555
O3A Zn1A 1_555 1_555
O5A Zn1A_2 1_555 1_555
C14A N3A 1_555 1_555
C15A C17A 1_555 1_555
C16A C17A 1_555 1_555
C16A N4A 1_555 1_555

#END
