
#######################################################################
#
#                 Cambridge Crystallographic Data Centre
#                                CCDC 
#
#######################################################################
#
# If this CIF has been generated from an entry in the Cambridge 
# Structural Database, then it will include bibliographic, chemical, 
# crystal, experimental, refinement or atomic coordinate data resulting 
# from the CCDC's data processing and validation procedures.
#
#######################################################################

data_NIYPAO
_symmetry_cell_setting           triclinic
_symmetry_space_group_name_H-M   'P -1'
_symmetry_Int_Tables_number      2
_space_group_name_Hall           '-P 1'
loop_
_symmetry_equiv_pos_site_id
_symmetry_equiv_pos_as_xyz
1 x,y,z
2 -x,-y,-z
_cell_length_a                   8.6482(2)
_cell_length_b                   10.2848(2)
_cell_length_c                   12.7911(3)
_cell_angle_alpha                93.5300(10)
_cell_angle_beta                 108.2490(10)
_cell_angle_gamma                111.4530(10)
_cell_volume                     985.465
loop_
_atom_site_label
_atom_site_type_symbol
_atom_site_fract_x
_atom_site_fract_y
_atom_site_fract_z
Cd1 Cd 0.65189(2) 0.927724(17) 0.600993(14)
N1 N 0.7003(3) 1.0978(2) 0.74871(18)
O1 O 0.8097(2) 0.8125(2) 0.72652(17)
O2 O 0.9551(3) 0.9716(2) 0.64763(18)
C1 C 0.7310(4) 1.4079(3) 0.9979(2)
H1 H 0.7866 1.5038 0.9965
C2 C 0.7219(4) 1.2987(3) 0.9139(2)
N2 N 0.6638(4) 1.3729(3) 1.0723(2)
C3 C 0.6246(4) 1.0577(3) 0.8253(2)
H2 H 0.5643 0.9610 0.8221
C4 C 0.6335(4) 1.1547(3) 0.9080(2)
H3 H 0.5801 1.1235 0.9598
C5 C 0.8029(4) 1.3398(3) 0.8373(2)
H4 H 0.8667 1.4357 0.8401
C6 C 0.7877(4) 1.2362(3) 0.7565(2)
H5 H 0.8417 1.2651 0.7046
N3 N 0.6854(4) 1.4928(3) 1.1436(2)
C7 C 0.5923(4) 1.5683(3) 1.2833(2)
C8 C 0.5882(4) 1.4589(3) 1.2020(2)
H6 H 0.5136 1.3638 1.1934
C9 C 1.0979(5) 0.8284(5) 0.7420(3)
H7 H 1.2087 0.9055 0.7484
H8 H 1.1102 0.8041 0.8154
C10 C 0.7053(4) 1.8056(3) 1.3845(2)
H9 H 0.7825 1.9009 1.3981
C11 C 0.7043(4) 1.7107(3) 1.3032(2)
H10 H 0.7780 1.7421 1.2622
C12 C 0.4895(4) 1.6310(3) 1.4229(2)
H11 H 0.4131 1.6033 1.4625
C13 C 0.4816(4) 1.5286(3) 1.3445(2)
H12 H 0.4030 1.4340 1.3328
C14 C 1.0631(5) 0.7002(4) 0.6593(4)
H13 H 0.9411 0.6321 0.6404
H14 H 1.1408 0.6548 0.6952
N4 N 0.6006(3) 1.7673(2) 1.44500(17)
C15 C 1.2856(4) 0.8070(3) 0.5660(2)
C16 C 1.0924(4) 0.7356(3) 0.5521(3)
H15 H 1.0365 0.6484 0.4959
H16 H 1.0340 0.7978 0.5243
O3 O 1.3958(3) 0.7708(2) 0.63008(17)
O4 O 1.3336(3) 0.8998(2) 0.51020(18)
C17 C 0.9470(4) 0.8773(3) 0.7046(2)
Cd1_2 Cd 0.65189(2) 1.927724(17) 1.600993(14)
Cd1_3 Cd 1.65189(2) 0.927724(17) 0.600993(14)
Cd1A Cd 1.34811(2) 1.072276(17) 0.399007(14)
N4_2 N 0.6006(3) 0.7673(2) 0.44500(17)
O3_2 O 0.3958(3) 0.7708(2) 0.63008(17)
O4_2 O 0.3336(3) 0.8998(2) 0.51020(18)
O4A O 0.6664(3) 1.1002(2) 0.48980(18)
O5 O 0.8650(5) 0.7274(4) 0.9311(3)
H17 H 0.7664 0.6724 0.8869
C18 C 0.8453(7) 0.8156(5) 1.0111(5)
H18 H 0.7576 0.8500 0.9734
H19 H 0.9572 0.8950 1.0501
H20 H 0.8078 0.7617 1.0639
loop_
_geom_bond_atom_site_label_1
_geom_bond_atom_site_label_2
_geom_bond_site_symmetry_1
_geom_bond_site_symmetry_2
Cd1 N1 1_555 1_555
N1 C3 1_555 1_555
O1 Cd1 1_555 1_555
O2 Cd1 1_555 1_555
C1 H1 1_555 1_555
C2 C1 1_555 1_555
N2 C1 1_555 1_555
C3 H2 1_555 1_555
C4 C2 1_555 1_555
H3 C4 1_555 1_555
C5 C2 1_555 1_555
H4 C5 1_555 1_555
C6 N1 1_555 1_555
H5 C6 1_555 1_555
N3 N2 1_555 1_555
C7 C8 1_555 1_555
C8 N3 1_555 1_555
H6 C8 1_555 1_555
C9 H7 1_555 1_555
H8 C9 1_555 1_555
C10 H9 1_555 1_555
C11 C7 1_555 1_555
H10 C11 1_555 1_555
C12 H11 1_555 1_555
C13 C7 1_555 1_555
H12 C13 1_555 1_555
C14 C9 1_555 1_555
H13 C14 1_555 1_555
H14 C14 1_555 1_555
N4 C10 1_555 1_555
C15 C16 1_555 1_555
C16 C14 1_555 1_555
H15 C16 1_555 1_555
H16 C16 1_555 1_555
O3 C15 1_555 1_555
O4 C15 1_555 1_555
C17 O1 1_555 1_555
O5 H17 1_555 1_555
C18 O5 1_555 1_555
H18 C18 1_555 1_555
H19 C18 1_555 1_555
H20 C18 1_555 1_555
Cd1_2 N4 1_555 1_555
Cd1_3 O3 1_555 1_555
Cd1A O4 1_555 1_555
N4_2 Cd1 1_555 1_555
O3_2 Cd1 1_555 1_555
O4_2 Cd1 1_555 1_555
O4A Cd1 1_555 1_555
O2 C17 1_555 1_555
C3 C4 1_555 1_555
C5 C6 1_555 1_555
C9 C17 1_555 1_555
C10 C11 1_555 1_555
C12 C13 1_555 1_555
C12 N4 1_555 1_555
O4 Cd1_3 1_555 1_555

#END
