
#######################################################################
#
#                 Cambridge Crystallographic Data Centre
#                                CCDC 
#
#######################################################################
#
# If this CIF has been generated from an entry in the Cambridge 
# Structural Database, then it will include bibliographic, chemical, 
# crystal, experimental, refinement or atomic coordinate data resulting 
# from the CCDC's data processing and validation procedures.
#
#######################################################################

data_NIZDEG
_symmetry_cell_setting           orthorhombic
_symmetry_space_group_name_H-M   'P n n 2'
_symmetry_Int_Tables_number      34
_space_group_name_Hall           'P 2 -2n'
loop_
_symmetry_equiv_pos_site_id
_symmetry_equiv_pos_as_xyz
1 x,y,z
2 -x,-y,z
3 1/2+x,1/2-y,1/2+z
4 1/2-x,1/2+y,1/2+z
_cell_length_a                   15.4137(6)
_cell_length_b                   6.5818(2)
_cell_length_c                   7.8808(3)
_cell_angle_alpha                90
_cell_angle_beta                 90
_cell_angle_gamma                90
_cell_volume                     799.506
loop_
_atom_site_label
_atom_site_type_symbol
_atom_site_fract_x
_atom_site_fract_y
_atom_site_fract_z
Ni1 Ni 0.30584(4) 0.22562(10) 0.4795(5)
O1 O 0.3585(5) 0.0458(14) 0.6625(7)
O2 O 0.3592(5) 0.0278(14) 1.2995(8)
O3 O 0.2413(5) -0.0830(15) 1.1719(7)
O4 O 0.2431(5) -0.0757(16) 0.8043(9)
N1 N 0.4227(3) 0.3888(7) 0.4718(14)
N2 N 0.3183(3) -0.3967(8) 0.9668(19)
C1 C 0.5002(4) 0.3029(10) 0.470(3)
H1 H 0.5030 0.1620 0.4630
C2 C 0.4236(3) 0.5917(9) 0.4765(18)
H2 H 0.3715 0.6622 0.4846
C3 C 0.3219(7) -0.057(2) 0.7727(13)
C4 C 0.3704(5) -0.2157(12) 0.8923(11)
H3 H 0.4224 -0.2668 0.8348
C5 C 0.3228(9) -0.056(3) 1.1800(14)
C6 C 0.3966(5) -0.0923(13) 1.0439(10)
H4 H 0.4449 -0.1597 1.0992
H5 H 0.4171 0.0389 1.0048
Ni1_2 Ni 0.30584(4) 0.22562(10) -0.5205(5)
Ni1_3 Ni 0.30584(4) 0.22562(10) 1.4795(5)
Ni1C Ni 0.19416(4) -0.27438(10) 0.9795(5)
Ni1A Ni 0.69416(4) 0.77438(10) 0.4795(5)
Ni1C_2 Ni 0.19416(4) -0.27438(10) -0.0205(5)
O1_2 O 0.3585(5) 0.0458(14) -0.3375(7)
O2_2 O 0.3592(5) 0.0278(14) 0.2995(8)
O2_3 O 0.3592(5) 0.0278(14) -0.7005(8)
O3_2 O 0.2413(5) -0.0830(15) 0.1719(7)
O3C O 0.2587(5) 0.4170(15) 0.6719(7)
O3C_2 O 0.2587(5) 0.4170(15) -0.3281(7)
O4_2 O 0.2431(5) -0.0757(16) -0.1957(9)
O4C O 0.2569(5) 0.4243(16) 0.3043(9)
O4C_2 O 0.2569(5) 0.4243(16) -0.6957(9)
N1A N 0.5773(3) 0.6112(7) 0.4718(14)
N1_2 N 0.4227(3) 0.3888(7) -0.5282(14)
N2_2 N 0.3183(3) -0.3967(8) -0.0332(19)
N2C N 0.1817(3) 0.1033(8) 0.4668(19)
N2C_2 N 0.1817(3) 0.1033(8) -0.5332(19)
C1A C 0.4998(4) 0.6971(10) 0.470(3)
H1A H 0.4970 0.8380 0.4630
C2A C 0.5764(3) 0.4083(9) 0.4765(18)
H2A H 0.6285 0.3378 0.4846
C3_2 C 0.3219(7) -0.057(2) -0.2273(13)
C4_2 C 0.3704(5) -0.2157(12) -0.1077(11)
H3_2 H 0.4224 -0.2668 -0.1652
C5_2 C 0.3228(9) -0.056(3) 0.1800(14)
C6_2 C 0.3966(5) -0.0923(13) 0.0439(10)
H4_2 H 0.4449 -0.1597 0.0992
H5_2 H 0.4171 0.0389 0.0048
loop_
_geom_bond_atom_site_label_1
_geom_bond_atom_site_label_2
_geom_bond_site_symmetry_1
_geom_bond_site_symmetry_2
Ni1 O1 1_555 1_555
O1 C3 1_555 1_555
O2 C5 1_555 1_555
O3 C5 1_555 1_555
O4 C3 1_555 1_555
N1 Ni1 1_555 1_555
N2 C4 1_555 1_555
C1 N1 1_555 1_555
H1 C1 1_555 1_555
C2 N1 1_555 1_555
H2 C2 1_555 1_555
C3 C4 1_555 1_555
C4 H3 1_555 1_555
C5 C6 1_555 1_555
C6 C4 1_555 1_555
H4 C6 1_555 1_555
H5 C6 1_555 1_555
Ni1_2 O1_2 1_555 1_555
Ni1_3 O2 1_555 1_555
Ni1C O3 1_555 1_555
Ni1A N1A 1_555 1_555
Ni1C_2 O3_2 1_555 1_555
O1_2 C3_2 1_555 1_555
O2_2 Ni1 1_555 1_555
O2_3 Ni1_2 1_555 1_555
O3_2 C5_2 1_555 1_555
O3C Ni1 1_555 1_555
O3C_2 Ni1_2 1_555 1_555
O4_2 Ni1C_2 1_555 1_555
O4C Ni1 1_555 1_555
O4C_2 Ni1_2 1_555 1_555
N1A C1A 1_555 1_555
N1_2 Ni1_2 1_555 1_555
N2_2 Ni1C_2 1_555 1_555
N2C Ni1 1_555 1_555
N2C_2 Ni1_2 1_555 1_555
C1A C2 1_555 1_555
H1A C1A 1_555 1_555
C2A C1 1_555 1_555
H2A C2A 1_555 1_555
C3_2 O4_2 1_555 1_555
C4_2 N2_2 1_555 1_555
H3_2 C4_2 1_555 1_555
C5_2 O2_2 1_555 1_555
C6_2 C4_2 1_555 1_555
H4_2 C6_2 1_555 1_555
H5_2 C6_2 1_555 1_555
O4 Ni1C 1_555 1_555
N2 Ni1C 1_555 1_555
N1A C2A 1_555 1_555
C3_2 C4_2 1_555 1_555
C5_2 C6_2 1_555 1_555

#END
