
#######################################################################
#
#                 Cambridge Crystallographic Data Centre
#                                CCDC 
#
#######################################################################
#
# If this CIF has been generated from an entry in the Cambridge 
# Structural Database, then it will include bibliographic, chemical, 
# crystal, experimental, refinement or atomic coordinate data resulting 
# from the CCDC's data processing and validation procedures.
#
#######################################################################

data_NIZMEQ
_symmetry_cell_setting           triclinic
_symmetry_space_group_name_H-M   'P -1'
_symmetry_Int_Tables_number      2
_space_group_name_Hall           '-P 1'
loop_
_symmetry_equiv_pos_site_id
_symmetry_equiv_pos_as_xyz
1 x,y,z
2 -x,-y,-z
_cell_length_a                   11.7644(17)
_cell_length_b                   12.1610(19)
_cell_length_c                   13.3468(12)
_cell_angle_alpha                73.298(2)
_cell_angle_beta                 65.509(3)
_cell_angle_gamma                63.667(2)
_cell_volume                     1544.77
loop_
_atom_site_label
_atom_site_type_symbol
_atom_site_fract_x
_atom_site_fract_y
_atom_site_fract_z
Dy1 Dy 0.91714(2) 0.72615(2) 0.23549(2)
K1 K 1.0000 0.5000 0.5000
K2 K 1.0000 1.0000 0.0000
C1 C 0.6629(6) 0.5144(5) 0.5252(4)
C2 C 0.6861(5) 0.6247(5) 0.4375(4)
C3 C 0.5771(5) 0.7094(5) 0.4080(5)
H1 H 0.4930 0.6995 0.4431
C4 C 0.5883(6) 0.8119(5) 0.3255(4)
C5 C 0.4571(6) 0.9098(5) 0.3023(5)
C6 C 0.7693(6) 0.4989(5) 0.1272(4)
C7 C 0.8184(6) 0.6031(5) 0.1131(4)
C8 C 0.8030(6) 0.6943(5) 0.0242(5)
H2 H 0.7584 0.6933 -0.0207
C9 C 0.8521(6) 0.7872(5) -0.0002(4)
C10 C 0.8519(7) 0.8691(6) -0.1136(5)
C11 C 0.9956(6) 0.8076(5) 0.5223(5)
C12 C 0.9399(6) 0.8367(6) 0.4278(4)
C13 C 0.8715(6) 0.9613(5) 0.3964(5)
H3 H 0.8447 1.0206 0.4431
C14 C 0.8421(6) 0.9999(5) 0.2997(4)
C15 C 0.7542(6) 1.1390(5) 0.2782(5)
C16 C 1.2891(5) 0.3640(5) 0.2562(4)
C17 C 1.2195(5) 0.5023(5) 0.2206(4)
C18 C 1.2978(6) 0.5666(6) 0.1502(5)
H4 H 1.3928 0.5256 0.1274
C19 C 1.2428(6) 0.6911(6) 0.1104(5)
C20 C 1.3414(6) 0.7561(6) 0.0487(5)
F1 F 0.7546(3) 0.4633(3) 0.5767(2)
F2 F 0.5444(3) 0.5479(3) 0.6042(2)
F3 F 0.6733(3) 0.4291(3) 0.4765(2)
F4 F 0.3547(3) 0.8750(3) 0.3507(3)
F5 F 0.4236(3) 1.0103(3) 0.3458(3)
F6 F 0.4810(3) 0.9390(3) 0.1972(3)
F7 F 0.7308(4) 0.4520(3) 0.2235(3)
F8 F 0.8375(4) 0.4330(3) 0.0517(3)
F9 F 0.6496(4) 0.5483(3) 0.1116(3)
F10 F 0.8936(3) 0.9592(3) -0.1306(2)
F11 F 0.9557(4) 0.7896(3) -0.2007(3)
F12 F 0.7578(4) 0.9004(3) -0.1391(3)
F13 F 1.0104(3) 0.6954(3) 0.5741(2)
F14 F 0.9170(3) 0.8872(3) 0.5961(2)
F15 F 1.1154(3) 0.8177(3) 0.4793(3)
F16 F 0.6335(4) 1.1533(3) 0.2944(3)
F17 F 0.7557(4) 1.2083(3) 0.3372(3)
F18 F 0.8121(3) 1.1788(3) 0.1687(3)
F19 F 1.2329(3) 0.3335(3) 0.3659(3)
F20 F 1.2804(3) 0.2959(3) 0.2016(3)
F21 F 1.4181(3) 0.3320(3) 0.2395(3)
F22 F 1.4595(4) 0.6850(3) -0.0099(3)
F23 F 1.3601(3) 0.8000(3) 0.1190(2)
F24 F 1.2942(3) 0.8544(3) -0.0225(3)
O1 O 0.8030(4) 0.6245(3) 0.3989(3)
O2 O 0.6902(4) 0.8330(3) 0.2689(3)
O3 O 0.8717(4) 0.5910(3) 0.1805(3)
O4 O 0.9071(4) 0.8069(3) 0.0528(3)
O5 O 0.8678(4) 0.9380(3) 0.2268(3)
O6 O 0.9674(4) 0.7461(3) 0.3830(3)
O7 O 1.1196(4) 0.7558(4) 0.1253(3)
O8 O 1.0925(4) 0.5380(3) 0.2603(3)
Dy1A Dy 1.08286(2) 0.27385(2) 0.76451(2)
C1A C 1.3371(6) 0.4856(5) 0.4748(4)
C2A C 1.3139(5) 0.3753(5) 0.5625(4)
C3A C 1.4229(5) 0.2906(5) 0.5920(5)
H1A H 1.5070 0.3005 0.5569
C4A C 1.4117(6) 0.1881(5) 0.6745(4)
C5A C 1.5429(6) 0.0902(5) 0.6977(5)
C6A C 1.2307(6) 0.5011(5) 0.8728(4)
C7A C 1.1816(6) 0.3969(5) 0.8869(4)
C8A C 1.1970(6) 0.3057(5) 0.9758(5)
H2A H 1.2416 0.3067 1.0207
C9A C 1.1479(6) 0.2128(5) 1.0002(4)
C10A C 1.1481(7) 0.1309(6) 1.1136(5)
C11A C 1.0044(6) 0.1924(5) 0.4777(5)
C12A C 1.0601(6) 0.1633(6) 0.5722(4)
C13A C 1.1285(6) 0.0387(5) 0.6036(5)
H3A H 1.1553 -0.0206 0.5569
C14A C 1.1579(6) 0.0001(5) 0.7003(4)
C15A C 1.2458(6) -0.1390(5) 0.7218(5)
C16A C 0.7109(5) 0.6360(5) 0.7438(4)
C17A C 0.7805(5) 0.4977(5) 0.7794(4)
C18A C 0.7022(6) 0.4334(6) 0.8498(5)
H4A H 0.6072 0.4744 0.8726
C19A C 0.7572(6) 0.3089(6) 0.8896(5)
C20A C 0.6586(6) 0.2439(6) 0.9513(5)
F1A F 1.2454(3) 0.5367(3) 0.4233(2)
F2A F 1.4556(3) 0.4521(3) 0.3958(2)
F3A F 1.3267(3) 0.5709(3) 0.5235(2)
F4A F 1.6453(3) 0.1250(3) 0.6493(3)
F5A F 1.5764(3) -0.0103(3) 0.6542(3)
F6A F 1.5190(3) 0.0610(3) 0.8028(3)
F7A F 1.2692(4) 0.5480(3) 0.7765(3)
F8A F 1.1625(4) 0.5670(3) 0.9483(3)
F9A F 1.3504(4) 0.4517(3) 0.8884(3)
F10A F 1.1064(3) 0.0408(3) 1.1306(2)
F11A F 1.0443(4) 0.2104(3) 1.2007(3)
F12A F 1.2422(4) 0.0996(3) 1.1391(3)
F13A F 0.9896(3) 0.3046(3) 0.4259(2)
F14A F 1.0830(3) 0.1128(3) 0.4039(2)
F15A F 0.8846(3) 0.1823(3) 0.5207(3)
F16A F 1.3665(4) -0.1533(3) 0.7056(3)
F17A F 1.2443(4) -0.2083(3) 0.6628(3)
F18A F 1.1879(3) -0.1788(3) 0.8313(3)
F19A F 0.7671(3) 0.6665(3) 0.6341(3)
F20A F 0.7196(3) 0.7041(3) 0.7984(3)
F21A F 0.5819(3) 0.6680(3) 0.7605(3)
F22A F 0.5405(4) 0.3150(3) 1.0099(3)
F23A F 0.6399(3) 0.2000(3) 0.8810(2)
F24A F 0.7058(3) 0.1456(3) 1.0225(3)
O1A O 1.1970(4) 0.3755(3) 0.6011(3)
O2A O 1.3098(4) 0.1670(3) 0.7311(3)
O3A O 1.1283(4) 0.4090(3) 0.8195(3)
O4A O 1.0929(4) 0.1931(3) 0.9472(3)
O5A O 1.1322(4) 0.0620(3) 0.7732(3)
O6A O 1.0326(4) 0.2539(3) 0.6170(3)
O7A O 0.8804(4) 0.2442(4) 0.8747(3)
O8A O 0.9075(4) 0.4620(3) 0.7397(3)
K2_2 K 1.0000 0.0000 1.0000
F10A_2 F 1.1064(3) 1.0408(3) 0.1306(2)
F18A_2 F 1.1879(3) 0.8212(3) -0.1687(3)
F24A_2 F 0.7058(3) 1.1456(3) 0.0225(3)
O4A_2 O 1.0929(4) 1.1931(3) -0.0528(3)
O5A_2 O 1.1322(4) 1.0620(3) -0.2268(3)
O7A_2 O 0.8804(4) 1.2442(4) -0.1253(3)
loop_
_geom_bond_atom_site_label_1
_geom_bond_atom_site_label_2
_geom_bond_site_symmetry_1
_geom_bond_site_symmetry_2
Dy1 O1 1_555 1_555
K1 F1 1_555 1_555
K2 F10 1_555 1_555
C1 C2 1_555 1_555
C2 C3 1_555 1_555
C3 H1 1_555 1_555
C4 C3 1_555 1_555
C5 C4 1_555 1_555
C6 C7 1_555 1_555
C7 C8 1_555 1_555
C8 H2 1_555 1_555
C9 C8 1_555 1_555
C10 C9 1_555 1_555
C11 C12 1_555 1_555
C12 C13 1_555 1_555
C13 H3 1_555 1_555
C14 C13 1_555 1_555
C15 C14 1_555 1_555
C16 C17 1_555 1_555
C17 C18 1_555 1_555
C18 H4 1_555 1_555
C19 C18 1_555 1_555
C20 C19 1_555 1_555
F1 C1 1_555 1_555
F2 C1 1_555 1_555
F3 C1 1_555 1_555
F4 C5 1_555 1_555
F5 C5 1_555 1_555
F6 C5 1_555 1_555
F7 C6 1_555 1_555
F8 C6 1_555 1_555
F9 C6 1_555 1_555
F10 C10 1_555 1_555
F11 C10 1_555 1_555
F12 C10 1_555 1_555
F13 K1 1_555 1_555
F14 C11 1_555 1_555
F15 C11 1_555 1_555
F16 C15 1_555 1_555
F17 C15 1_555 1_555
F18 K2 1_555 1_555
F19 K1 1_555 1_555
F20 C16 1_555 1_555
F21 C16 1_555 1_555
F22 C20 1_555 1_555
F23 C20 1_555 1_555
F24 K2 1_555 1_555
O1 K1 1_555 1_555
O2 Dy1 1_555 1_555
O3 Dy1 1_555 1_555
O4 Dy1 1_555 1_555
O5 Dy1 1_555 1_555
O6 Dy1 1_555 1_555
O7 Dy1 1_555 1_555
O8 Dy1 1_555 1_555
Dy1A O1A 1_555 1_555
C1A C2A 1_555 1_555
C2A C3A 1_555 1_555
C3A H1A 1_555 1_555
C4A C3A 1_555 1_555
C5A C4A 1_555 1_555
C6A C7A 1_555 1_555
C7A C8A 1_555 1_555
C8A H2A 1_555 1_555
C9A C8A 1_555 1_555
C10A C9A 1_555 1_555
C11A C12A 1_555 1_555
C12A C13A 1_555 1_555
C13A H3A 1_555 1_555
C14A C13A 1_555 1_555
C15A C14A 1_555 1_555
C16A C17A 1_555 1_555
C17A C18A 1_555 1_555
C18A H4A 1_555 1_555
C19A C18A 1_555 1_555
C20A C19A 1_555 1_555
F1A K1 1_555 1_555
F2A C1A 1_555 1_555
F3A C1A 1_555 1_555
F4A C5A 1_555 1_555
F5A C5A 1_555 1_555
F6A C5A 1_555 1_555
F7A C6A 1_555 1_555
F8A C6A 1_555 1_555
F9A C6A 1_555 1_555
F10A C10A 1_555 1_555
F11A C10A 1_555 1_555
F12A C10A 1_555 1_555
F13A K1 1_555 1_555
F14A C11A 1_555 1_555
F15A C11A 1_555 1_555
F16A C15A 1_555 1_555
F17A C15A 1_555 1_555
F18A C15A 1_555 1_555
F19A K1 1_555 1_555
F20A C16A 1_555 1_555
F21A C16A 1_555 1_555
F22A C20A 1_555 1_555
F23A C20A 1_555 1_555
F24A C20A 1_555 1_555
O1A K1 1_555 1_555
O2A Dy1A 1_555 1_555
O3A Dy1A 1_555 1_555
O4A Dy1A 1_555 1_555
O5A Dy1A 1_555 1_555
O6A K1 1_555 1_555
O7A Dy1A 1_555 1_555
O8A K1 1_555 1_555
K2_2 F10A 1_555 1_555
F10A_2 K2 1_555 1_555
F18A_2 K2 1_555 1_555
F24A_2 K2 1_555 1_555
O4A_2 K2 1_555 1_555
O5A_2 K2 1_555 1_555
O7A_2 K2 1_555 1_555
K1 O6 1_555 1_555
K1 O8 1_555 1_555
K2 O4 1_555 1_555
K2 O5 1_555 1_555
K2 O7 1_555 1_555
C2 O1 1_555 1_555
C4 O2 1_555 1_555
C7 O3 1_555 1_555
C9 O4 1_555 1_555
C11 F13 1_555 1_555
C12 O6 1_555 1_555
C14 O5 1_555 1_555
C15 F18 1_555 1_555
C16 F19 1_555 1_555
C17 O8 1_555 1_555
C19 O7 1_555 1_555
C20 F24 1_555 1_555
Dy1A O6A 1_555 1_555
Dy1A O8A 1_555 1_555
C1A F1A 1_555 1_555
C2A O1A 1_555 1_555
C4A O2A 1_555 1_555
C7A O3A 1_555 1_555
C9A O4A 1_555 1_555
C11A F13A 1_555 1_555
C12A O6A 1_555 1_555
C14A O5A 1_555 1_555
C16A F19A 1_555 1_555
C17A O8A 1_555 1_555
C19A O7A 1_555 1_555
F18A K2_2 1_555 1_555
F24A K2_2 1_555 1_555
O4A K2_2 1_555 1_555
O5A K2_2 1_555 1_555
O7A K2_2 1_555 1_555

#END
