
#######################################################################
#
#                 Cambridge Crystallographic Data Centre
#                                CCDC 
#
#######################################################################
#
# If this CIF has been generated from an entry in the Cambridge 
# Structural Database, then it will include bibliographic, chemical, 
# crystal, experimental, refinement or atomic coordinate data resulting 
# from the CCDC's data processing and validation procedures.
#
#######################################################################

data_NIZQOD
_symmetry_cell_setting           triclinic
_symmetry_space_group_name_H-M   'P -1'
_symmetry_Int_Tables_number      2
_space_group_name_Hall           '-P 1'
loop_
_symmetry_equiv_pos_site_id
_symmetry_equiv_pos_as_xyz
1 x,y,z
2 -x,-y,-z
_cell_length_a                   8.821(3)
_cell_length_b                   9.989(3)
_cell_length_c                   12.418(3)
_cell_angle_alpha                99.072(10)
_cell_angle_beta                 98.80(2)
_cell_angle_gamma                115.24(2)
_cell_volume                     947.174
loop_
_atom_site_label
_atom_site_type_symbol
_atom_site_fract_x
_atom_site_fract_y
_atom_site_fract_z
Mn1 Mn -0.76726(3) 0.08530(3) 0.45771(2)
O1 O -0.6132(2) 0.10150(16) 0.62126(12)
H1 H -0.574(3) 0.044(3) 0.619(2)
H2 H -0.661(3) 0.094(3) 0.673(2)
O2 O -0.9025(2) 0.08437(19) 0.29342(14)
H3 H -1.009(4) 0.037(3) 0.266(2)
H4 H -0.852(4) 0.074(3) 0.247(2)
O3 O -0.52674(16) 0.09732(13) 0.38689(12)
O4 O -0.55307(16) 0.30221(14) 0.44879(13)
O5 O -0.11019(19) 0.81559(15) 0.45217(14)
O6 O 0.13267(17) 0.84365(13) 0.40916(13)
C1 C -0.4696(2) 0.23950(18) 0.40755(14)
C2 C -0.30127(19) 0.33963(16) 0.38453(13)
C3 C -0.2030(2) 0.27720(17) 0.34010(15)
H5 H -0.2440 0.1719 0.3222
C4 C -0.0445(2) 0.37141(18) 0.32248(16)
H6 H 0.0209 0.3293 0.2932
C5 C 0.0161(2) 0.52840(17) 0.34863(14)
H7 H 0.1226 0.5915 0.3371
C6 C -0.08147(19) 0.59194(16) 0.39200(13)
C7 C -0.2398(2) 0.49711(17) 0.41038(14)
H8 H -0.3048 0.5393 0.4401
C8 C -0.0151(2) 0.76248(17) 0.42048(14)
Mn1A Mn -0.23274(3) 0.91470(3) 0.54229(2)
Mn1_2 Mn 0.23274(3) 1.08530(3) 0.45771(2)
O5A O -0.88981(19) 0.18441(15) 0.54783(14)
O6_2 O -0.86733(17) -0.15635(13) 0.40916(13)
O7 O -0.2470(3) -0.0468(2) -0.12718(15)
O8 O -0.25409(19) 0.89924(16) 0.18510(12)
N1 N -0.2613(3) 0.0779(2) -0.09381(15)
N2 N -0.2653(2) 0.76620(18) 0.13533(13)
C9 C -0.2496(3) 0.1756(2) -0.15966(18)
H9 H -0.2357 0.1527 -0.2319
C10 C -0.2581(3) 0.3079(2) -0.12143(16)
H10 H -0.2490 0.3739 -0.1680
C11 C -0.2802(3) 0.3456(2) -0.01397(15)
C12 C -0.2977(3) 0.2381(3) 0.04904(18)
H11 H -0.3176 0.2556 0.1201
C13 C -0.2865(3) 0.1088(3) 0.00965(19)
H12 H -0.2964 0.0407 0.0546
C14 C -0.2005(3) 0.7545(2) 0.04431(18)
H13 H -0.1510 0.8395 0.0157
C15 C -0.2067(3) 0.6202(2) -0.00605(18)
H14 H -0.1611 0.6152 -0.0684
C16 C -0.2803(2) 0.4901(2) 0.03430(15)
C17 C -0.3511(3) 0.5052(2) 0.12554(16)
H15 H -0.4059 0.4206 0.1536
C18 C -0.3416(3) 0.6420(2) 0.17484(17)
H16 H -0.3885 0.6493 0.2364
O9 O -0.6270(2) 0.5012(3) 0.31279(18)
H17 H -0.642(5) 0.416(5) 0.324(3)
H18 H -0.583(7) 0.541(6) 0.373(4)
loop_
_geom_bond_atom_site_label_1
_geom_bond_atom_site_label_2
_geom_bond_site_symmetry_1
_geom_bond_site_symmetry_2
Mn1 O1 1_555 1_555
O1 H1 1_555 1_555
H2 O1 1_555 1_555
O2 Mn1 1_555 1_555
H3 O2 1_555 1_555
H4 O2 1_555 1_555
O3 Mn1 1_555 1_555
O4 Mn1 1_555 1_555
O5 C8 1_555 1_555
O6 C8 1_555 1_555
C1 O3 1_555 1_555
C2 C1 1_555 1_555
C3 C2 1_555 1_555
H5 C3 1_555 1_555
C4 C3 1_555 1_555
H6 C4 1_555 1_555
C5 C4 1_555 1_555
H7 C5 1_555 1_555
C6 C5 1_555 1_555
C7 C2 1_555 1_555
H8 C7 1_555 1_555
C8 C6 1_555 1_555
O7 N1 1_555 1_555
O8 N2 1_555 1_555
N1 C9 1_555 1_555
N2 C14 1_555 1_555
C9 H9 1_555 1_555
C10 C9 1_555 1_555
H10 C10 1_555 1_555
C11 C10 1_555 1_555
C12 C11 1_555 1_555
H11 C12 1_555 1_555
C13 N1 1_555 1_555
H12 C13 1_555 1_555
C14 H13 1_555 1_555
C15 C14 1_555 1_555
H14 C15 1_555 1_555
C16 C11 1_555 1_555
C17 C16 1_555 1_555
H15 C17 1_555 1_555
C18 N2 1_555 1_555
H16 C18 1_555 1_555
O9 H17 1_555 1_555
H18 O9 1_555 1_555
Mn1A O5 1_555 1_555
Mn1_2 O6 1_555 1_555
O5A Mn1 1_555 1_555
O6_2 Mn1 1_555 1_555
O4 C1 1_555 1_555
C6 C7 1_555 1_555
C12 C13 1_555 1_555
C15 C16 1_555 1_555
C17 C18 1_555 1_555

#END
