
#######################################################################
#
#                 Cambridge Crystallographic Data Centre
#                                CCDC 
#
#######################################################################
#
# If this CIF has been generated from an entry in the Cambridge 
# Structural Database, then it will include bibliographic, chemical, 
# crystal, experimental, refinement or atomic coordinate data resulting 
# from the CCDC's data processing and validation procedures.
#
#######################################################################

data_NOBQAY
_symmetry_cell_setting           monoclinic
_symmetry_space_group_name_H-M   'C 2/c'
_symmetry_Int_Tables_number      15
_space_group_name_Hall           '-C 2yn'
loop_
_symmetry_equiv_pos_site_id
_symmetry_equiv_pos_as_xyz
1 x,y,z
2 -x,y,1/2-z
3 1/2+x,1/2+y,z
4 1/2-x,1/2+y,1/2-z
5 -x,-y,-z
6 x,-y,1/2+z
7 1/2-x,1/2-y,-z
8 1/2+x,1/2-y,1/2+z
_cell_length_a                   14.5393(19)
_cell_length_b                   11.0615(15)
_cell_length_c                   21.854(3)
_cell_angle_alpha                90
_cell_angle_beta                 102.012(3)
_cell_angle_gamma                90
_cell_volume                     3437.74
loop_
_atom_site_label
_atom_site_type_symbol
_atom_site_fract_x
_atom_site_fract_y
_atom_site_fract_z
Au1 Au 0.01265(7) 1.44014(8) 0.08148(4)
Fe1 Fe 0.0000 1.0000 0.0000
Fe2 Fe 0.0000 0.7802(4) 0.2500
N1 N -0.1183(13) 1.0236(15) 0.0469(8)
N2 N 0.0682(12) 0.9637(14) 0.0945(7)
N3 N 0.1529(12) 0.9176(15) 0.1275(7)
N4 N 0.0434(11) 0.9095(14) 0.1872(6)
N5 N 0.1582(11) 0.7781(15) 0.2762(8)
N6 N 0.0216(18) 1.1926(16) 0.0111(10)
N7 N 0.0094(15) 1.6444(16) 0.1803(8)
C1 C -0.2080(14) 1.066(2) 0.0221(10)
H1 H -0.2283 1.0742 -0.0209
C2 C -0.2662(16) 1.095(3) 0.0614(12)
H2 H -0.3250 1.1278 0.0446
C3 C -0.2406(16) 1.078(2) 0.1256(11)
H3 H -0.2817 1.0967 0.1516
C4 C -0.1544(15) 1.0331(19) 0.1492(10)
H4 H -0.1354 1.0220 0.1921
C5 C -0.0925(13) 1.0025(16) 0.1096(8)
C6 C 0.0076(14) 0.9618(15) 0.1337(8)
C7 C 0.1331(14) 0.8861(17) 0.1801(8)
C8 C 0.2014(14) 0.8279(17) 0.2324(8)
C9 C 0.2967(13) 0.8208(19) 0.2383(10)
C10 C 0.3456(15) 0.762(2) 0.2910(11)
H5 H 0.4106 0.7550 0.2972
C11 C 0.3010(17) 0.716(2) 0.3333(12)
H6 H 0.3354 0.6762 0.3681
C12 C 0.2113(16) 0.726(2) 0.3266(11)
H7 H 0.1826 0.6952 0.3576
C13 C 0.3479(16) 0.880(3) 0.1925(12)
H8 H 0.4140 0.8832 0.2103
H9 H 0.3245 0.9610 0.1837
H10 H 0.3375 0.8344 0.1544
C14 C 0.0145(14) 1.288(3) 0.0308(9)
C15 C 0.0061(17) 1.575(2) 0.1383(11)
N1A N 0.1183(13) 1.0236(15) 0.4531(8)
N2A N -0.0682(12) 0.9637(14) 0.4055(7)
N3A N -0.1529(12) 0.9176(15) 0.3725(7)
N4A N -0.0434(11) 0.9095(14) 0.3128(6)
N5A N -0.1582(11) 0.7781(15) 0.2238(8)
C1A C 0.2080(14) 1.066(2) 0.4779(10)
H1A H 0.2283 1.0742 0.5209
C2A C 0.2662(16) 1.095(3) 0.4386(12)
H2A H 0.3250 1.1278 0.4554
C3A C 0.2406(16) 1.078(2) 0.3744(11)
H3A H 0.2817 1.0967 0.3484
C4A C 0.1544(15) 1.0331(19) 0.3508(10)
H4A H 0.1354 1.0220 0.3079
C5A C 0.0925(13) 1.0025(16) 0.3904(8)
C6A C -0.0076(14) 0.9618(15) 0.3663(8)
C7A C -0.1331(14) 0.8861(17) 0.3199(8)
C8A C -0.2014(14) 0.8279(17) 0.2676(8)
C9A C -0.2967(13) 0.8208(19) 0.2617(10)
C10A C -0.3456(15) 0.762(2) 0.2090(11)
H5A H -0.4106 0.7550 0.2028
C11A C -0.3010(17) 0.716(2) 0.1667(12)
H6A H -0.3354 0.6762 0.1319
C12A C -0.2113(16) 0.726(2) 0.1734(11)
H7A H -0.1826 0.6952 0.1424
C13A C -0.3479(16) 0.880(3) 0.3075(12)
H8A H -0.4140 0.8832 0.2897
H9A H -0.3245 0.9610 0.3163
H10A H -0.3375 0.8344 0.3456
Au1D Au -0.01265(7) 0.55986(8) -0.08148(4)
N6D N -0.0216(18) 0.8074(16) -0.0111(10)
N7D N -0.0094(15) 0.3556(16) -0.1803(8)
C14D C -0.0145(14) 0.712(3) -0.0308(9)
C15D C -0.0061(17) 0.425(2) -0.1383(11)
Fe1A Fe 0.0000 1.0000 0.5000
Fe2_2 Fe 0.0000 1.7802(4) 0.2500
Fe2D Fe 0.0000 0.2198(4) -0.2500
N1D N 0.1183(13) 0.9764(15) -0.0469(8)
N2D N -0.0682(12) 1.0363(14) -0.0945(7)
N7_2 N 0.0094(15) 0.6444(16) 0.1803(8)
N7A N -0.0094(15) 0.6444(16) 0.3197(8)
loop_
_geom_bond_atom_site_label_1
_geom_bond_atom_site_label_2
_geom_bond_site_symmetry_1
_geom_bond_site_symmetry_2
Au1 C14 1_555 1_555
Fe1 N1 1_555 1_555
Fe2 N4 1_555 1_555
N1 C1 1_555 1_555
N2 Fe1 1_555 1_555
N3 N2 1_555 1_555
N4 C6 1_555 1_555
N5 Fe2 1_555 1_555
N6 Fe1 1_555 1_555
N7 C15 1_555 1_555
C1 H1 1_555 1_555
C2 C1 1_555 1_555
H2 C2 1_555 1_555
C3 C2 1_555 1_555
H3 C3 1_555 1_555
C4 C3 1_555 1_555
H4 C4 1_555 1_555
C5 N1 1_555 1_555
C6 N2 1_555 1_555
C7 N3 1_555 1_555
C8 N5 1_555 1_555
C9 C8 1_555 1_555
C10 C9 1_555 1_555
H5 C10 1_555 1_555
C11 C10 1_555 1_555
H6 C11 1_555 1_555
C12 N5 1_555 1_555
H7 C12 1_555 1_555
C13 C9 1_555 1_555
H8 C13 1_555 1_555
H9 C13 1_555 1_555
H10 C13 1_555 1_555
C14 N6 1_555 1_555
C15 Au1 1_555 1_555
N1A C1A 1_555 1_555
N2A N3A 1_555 1_555
N3A C7A 1_555 1_555
N4A Fe2 1_555 1_555
N5A Fe2 1_555 1_555
C1A H1A 1_555 1_555
C2A C1A 1_555 1_555
H2A C2A 1_555 1_555
C3A C2A 1_555 1_555
H3A C3A 1_555 1_555
C4A C3A 1_555 1_555
H4A C4A 1_555 1_555
C5A N1A 1_555 1_555
C6A N2A 1_555 1_555
C7A N4A 1_555 1_555
C8A N5A 1_555 1_555
C9A C8A 1_555 1_555
C10A C9A 1_555 1_555
H5A C10A 1_555 1_555
C11A C10A 1_555 1_555
H6A C11A 1_555 1_555
C12A N5A 1_555 1_555
H7A C12A 1_555 1_555
C13A C9A 1_555 1_555
H8A C13A 1_555 1_555
H9A C13A 1_555 1_555
H10A C13A 1_555 1_555
Au1D C14D 1_555 1_555
N6D Fe1 1_555 1_555
N7D C15D 1_555 1_555
C14D N6D 1_555 1_555
C15D Au1D 1_555 1_555
Fe1A N1A 1_555 1_555
Fe2_2 N7 1_555 1_555
Fe2D N7D 1_555 1_555
N1D Fe1 1_555 1_555
N2D Fe1 1_555 1_555
N7_2 Fe2 1_555 1_555
N7A Fe2 1_555 1_555
N4 C7 1_555 1_555
C4 C5 1_555 1_555
C5 C6 1_555 1_555
C7 C8 1_555 1_555
C11 C12 1_555 1_555
N2A Fe1A 1_555 1_555
N4A C6A 1_555 1_555
C4A C5A 1_555 1_555
C5A C6A 1_555 1_555
C7A C8A 1_555 1_555
C11A C12A 1_555 1_555

#END
