
#######################################################################
#
#                 Cambridge Crystallographic Data Centre
#                                CCDC 
#
#######################################################################
#
# If this CIF has been generated from an entry in the Cambridge 
# Structural Database, then it will include bibliographic, chemical, 
# crystal, experimental, refinement or atomic coordinate data resulting 
# from the CCDC's data processing and validation procedures.
#
#######################################################################

data_NOBQAY02
_symmetry_cell_setting           monoclinic
_symmetry_space_group_name_H-M   'C 2/c'
_symmetry_Int_Tables_number      15
_space_group_name_Hall           '-C 2yn'
loop_
_symmetry_equiv_pos_site_id
_symmetry_equiv_pos_as_xyz
1 x,y,z
2 -x,y,1/2-z
3 1/2+x,1/2+y,z
4 1/2-x,1/2+y,1/2-z
5 -x,-y,-z
6 x,-y,1/2+z
7 1/2-x,1/2-y,-z
8 1/2+x,1/2-y,1/2+z
_cell_length_a                   14.4588(14)
_cell_length_b                   10.9079(9)
_cell_length_c                   21.423(2)
_cell_angle_alpha                90
_cell_angle_beta                 101.441(2)
_cell_angle_gamma                90
_cell_volume                     3311.59
loop_
_atom_site_label
_atom_site_type_symbol
_atom_site_fract_x
_atom_site_fract_y
_atom_site_fract_z
Au1 Au 0.01744(3) 1.43408(4) 0.07776(2)
Fe1 Fe 0.0000 1.0000 0.0000
Fe2 Fe 0.0000 0.77760(17) 0.2500
N1 N -0.1125(6) 1.0210(7) 0.0423(4)
N2 N 0.0625(6) 0.9578(7) 0.0889(4)
N3 N 0.1465(6) 0.9103(7) 0.1190(4)
N4 N 0.0425(6) 0.9106(7) 0.1858(4)
N5 N 0.1547(6) 0.7744(7) 0.2733(4)
N6 N 0.0213(5) 1.1752(8) 0.0159(4)
N7 N 0.0068(6) 1.6458(7) 0.1768(4)
C1 C -0.1985(7) 1.0649(9) 0.0161(6)
H1 H -0.2133 1.0785 -0.0286
C2 C -0.2668(8) 1.0913(9) 0.0521(5)
H2 H -0.3275 1.1200 0.0322
C3 C -0.2441(8) 1.0747(9) 0.1176(6)
H3 H -0.2886 1.0949 0.1432
C4 C -0.1574(7) 1.0291(9) 0.1452(5)
H4 H -0.1417 1.0157 0.1898
C5 C -0.0920(7) 1.0023(8) 0.1068(5)
C6 C 0.0035(7) 0.9590(8) 0.1294(5)
C7 C 0.1333(7) 0.8843(8) 0.1785(5)
C8 C 0.1995(7) 0.8213(9) 0.2296(5)
C9 C 0.2975(7) 0.8178(9) 0.2340(5)
C10 C 0.3487(8) 0.7553(10) 0.2875(6)
H5 H 0.4150 0.7464 0.2919
C11 C 0.3053(7) 0.7071(10) 0.3331(5)
H6 H 0.3402 0.6664 0.3695
C12 C 0.2086(8) 0.7200(9) 0.3240(5)
H7 H 0.1780 0.6880 0.3558
C13 C 0.3491(8) 0.8744(11) 0.1859(6)
H8 H 0.4170 0.8598 0.1993
H9 H 0.3371 0.9629 0.1834
H10 H 0.3265 0.8372 0.1440
C14 C 0.0215(7) 1.2778(10) 0.0324(5)
C15 C 0.0116(7) 1.5746(8) 0.1382(6)
N1A N 0.1125(6) 1.0210(7) 0.4577(4)
N2A N -0.0625(6) 0.9578(7) 0.4111(4)
N3A N -0.1465(6) 0.9103(7) 0.3810(4)
N4A N -0.0425(6) 0.9106(7) 0.3142(4)
N5A N -0.1547(6) 0.7744(7) 0.2267(4)
C1A C 0.1985(7) 1.0649(9) 0.4839(6)
H1A H 0.2133 1.0785 0.5286
C2A C 0.2668(8) 1.0913(9) 0.4479(5)
H2A H 0.3275 1.1200 0.4678
C3A C 0.2441(8) 1.0747(9) 0.3824(6)
H3A H 0.2886 1.0949 0.3568
C4A C 0.1574(7) 1.0291(9) 0.3548(5)
H4A H 0.1417 1.0157 0.3102
C5A C 0.0920(7) 1.0023(8) 0.3932(5)
C6A C -0.0035(7) 0.9590(8) 0.3706(5)
C7A C -0.1333(7) 0.8843(8) 0.3215(5)
C8A C -0.1995(7) 0.8213(9) 0.2704(5)
C9A C -0.2975(7) 0.8178(9) 0.2660(5)
C10A C -0.3487(8) 0.7553(10) 0.2125(6)
H5A H -0.4150 0.7464 0.2081
C11A C -0.3053(7) 0.7071(10) 0.1669(5)
H6A H -0.3402 0.6664 0.1305
C12A C -0.2086(8) 0.7200(9) 0.1760(5)
H7A H -0.1780 0.6880 0.1442
C13A C -0.3491(8) 0.8744(11) 0.3141(6)
H8A H -0.4170 0.8598 0.3007
H9A H -0.3371 0.9629 0.3166
H10A H -0.3265 0.8372 0.3560
Au1D Au -0.01744(3) 0.56592(4) -0.07776(2)
N6D N -0.0213(5) 0.8248(8) -0.0159(4)
N7D N -0.0068(6) 0.3542(7) -0.1768(4)
C14D C -0.0215(7) 0.7222(10) -0.0324(5)
C15D C -0.0116(7) 0.4254(8) -0.1382(6)
Fe1A Fe 0.0000 1.0000 0.5000
Fe2_2 Fe 0.0000 1.77760(17) 0.2500
Fe2D Fe 0.0000 0.22240(17) -0.2500
N1D N 0.1125(6) 0.9790(7) -0.0423(4)
N2D N -0.0625(6) 1.0422(7) -0.0889(4)
N7_2 N 0.0068(6) 0.6458(7) 0.1768(4)
N7A N -0.0068(6) 0.6458(7) 0.3232(4)
loop_
_geom_bond_atom_site_label_1
_geom_bond_atom_site_label_2
_geom_bond_site_symmetry_1
_geom_bond_site_symmetry_2
Au1 C14 1_555 1_555
Fe1 N1 1_555 1_555
Fe2 N4 1_555 1_555
N1 C1 1_555 1_555
N2 Fe1 1_555 1_555
N3 N2 1_555 1_555
N4 C6 1_555 1_555
N5 Fe2 1_555 1_555
N6 Fe1 1_555 1_555
N7 C15 1_555 1_555
C1 H1 1_555 1_555
C2 C1 1_555 1_555
H2 C2 1_555 1_555
C3 C2 1_555 1_555
H3 C3 1_555 1_555
C4 C3 1_555 1_555
H4 C4 1_555 1_555
C5 N1 1_555 1_555
C6 N2 1_555 1_555
C7 N3 1_555 1_555
C8 N5 1_555 1_555
C9 C8 1_555 1_555
C10 C9 1_555 1_555
H5 C10 1_555 1_555
C11 C10 1_555 1_555
H6 C11 1_555 1_555
C12 N5 1_555 1_555
H7 C12 1_555 1_555
C13 C9 1_555 1_555
H8 C13 1_555 1_555
H9 C13 1_555 1_555
H10 C13 1_555 1_555
C14 N6 1_555 1_555
C15 Au1 1_555 1_555
N1A C1A 1_555 1_555
N2A N3A 1_555 1_555
N3A C7A 1_555 1_555
N4A Fe2 1_555 1_555
N5A Fe2 1_555 1_555
C1A H1A 1_555 1_555
C2A C1A 1_555 1_555
H2A C2A 1_555 1_555
C3A C2A 1_555 1_555
H3A C3A 1_555 1_555
C4A C3A 1_555 1_555
H4A C4A 1_555 1_555
C5A N1A 1_555 1_555
C6A N2A 1_555 1_555
C7A N4A 1_555 1_555
C8A N5A 1_555 1_555
C9A C8A 1_555 1_555
C10A C9A 1_555 1_555
H5A C10A 1_555 1_555
C11A C10A 1_555 1_555
H6A C11A 1_555 1_555
C12A N5A 1_555 1_555
H7A C12A 1_555 1_555
C13A C9A 1_555 1_555
H8A C13A 1_555 1_555
H9A C13A 1_555 1_555
H10A C13A 1_555 1_555
Au1D C14D 1_555 1_555
N6D Fe1 1_555 1_555
N7D C15D 1_555 1_555
C14D N6D 1_555 1_555
C15D Au1D 1_555 1_555
Fe1A N1A 1_555 1_555
Fe2_2 N7 1_555 1_555
Fe2D N7D 1_555 1_555
N1D Fe1 1_555 1_555
N2D Fe1 1_555 1_555
N7_2 Fe2 1_555 1_555
N7A Fe2 1_555 1_555
N4 C7 1_555 1_555
C4 C5 1_555 1_555
C5 C6 1_555 1_555
C7 C8 1_555 1_555
C11 C12 1_555 1_555
N2A Fe1A 1_555 1_555
N4A C6A 1_555 1_555
C4A C5A 1_555 1_555
C5A C6A 1_555 1_555
C7A C8A 1_555 1_555
C11A C12A 1_555 1_555

#END
