
#######################################################################
#
#                 Cambridge Crystallographic Data Centre
#                                CCDC 
#
#######################################################################
#
# If this CIF has been generated from an entry in the Cambridge 
# Structural Database, then it will include bibliographic, chemical, 
# crystal, experimental, refinement or atomic coordinate data resulting 
# from the CCDC's data processing and validation procedures.
#
#######################################################################

data_NOBRUT01
_symmetry_cell_setting           monoclinic
_symmetry_space_group_name_H-M   'P 21/c'
_symmetry_Int_Tables_number      14
_space_group_name_Hall           '-P 2ybc'
loop_
_symmetry_equiv_pos_site_id
_symmetry_equiv_pos_as_xyz
1 x,y,z
2 -x,1/2+y,1/2-z
3 -x,-y,-z
4 x,1/2-y,1/2+z
_cell_length_a                   9.0033(5)
_cell_length_b                   12.0053(6)
_cell_length_c                   9.6117(5)
_cell_angle_alpha                90
_cell_angle_beta                 100.043(6)
_cell_angle_gamma                90
_cell_volume                     1022.98
loop_
_atom_site_label
_atom_site_type_symbol
_atom_site_fract_x
_atom_site_fract_y
_atom_site_fract_z
Ni1 Ni 0.0000 0.00000 0.0000
Fe1 Fe 0.0000 0.00000 0.5000
C1 C 0.1187(3) -0.1185(2) -0.0400(3)
N1 N 0.1908(3) -0.1906(2) -0.0716(3)
N2 N 0.1690(3) 0.10814(19) 0.4863(2)
C2 C 0.3049(3) 0.0777(2) 0.5669(3)
C3 C 0.4351(3) 0.1448(2) 0.5814(3)
C4 C 0.4257(4) 0.2440(2) 0.5000(3)
H1 H 0.5098 0.2895 0.5026
C5 C 0.1663(3) 0.2028(2) 0.4152(3)
H2 H 0.0756 0.2248 0.3603
C6 C 0.2921(4) 0.2717(2) 0.4180(3)
H3 H 0.2844 0.3363 0.3639
C7 C 0.3100(3) -0.0272(2) 0.6350(3)
C8 C 0.5669(4) 0.0113(2) 0.7453(3)
H4 H 0.6524 -0.0099 0.8087
C9 C 0.4377(3) -0.0583(2) 0.7232(3)
H5 H 0.4405 -0.1263 0.7699
C10 C 0.5657(3) 0.1087(2) 0.6739(3)
H6 H 0.6522 0.1525 0.686
N3 N 0.1768(3) -0.09636(17) 0.6021(2)
H7 H 0.1532 -0.1249 0.682
H8 H 0.1943 -0.1532 0.5461
N4 N 0.0210(3) -0.0554(2) 0.3069(2)
C11 C 0.0169(3) -0.0418(2) 0.1881(3)
C1B C -0.1187(3) 0.1185(2) 0.0400(3)
N1B N -0.1908(3) 0.1906(2) 0.0716(3)
N4B N -0.0210(3) 0.0554(2) -0.3069(2)
C11B C -0.0169(3) 0.0418(2) -0.1881(3)
N2B N -0.1690(3) -0.10814(19) 0.5137(2)
C2B C -0.3049(3) -0.0777(2) 0.4331(3)
C3B C -0.4351(3) -0.1448(2) 0.4186(3)
C4B C -0.4257(4) -0.2440(2) 0.5000(3)
H1B H -0.5098 -0.2895 0.4974
C5B C -0.1663(3) -0.2028(2) 0.5848(3)
H2B H -0.0756 -0.2248 0.6397
C6B C -0.2921(4) -0.2717(2) 0.5820(3)
H3B H -0.2844 -0.3363 0.6361
C7B C -0.3100(3) 0.0272(2) 0.3650(3)
C8B C -0.5669(4) -0.0113(2) 0.2547(3)
H4B H -0.6524 0.0099 0.1913
C9B C -0.4377(3) 0.0583(2) 0.2768(3)
H5B H -0.4405 0.1263 0.2301
C10B C -0.5657(3) -0.1087(2) 0.3261(3)
H6B H -0.6522 -0.1525 0.314
N3B N -0.1768(3) 0.09636(17) 0.3979(2)
H7B H -0.1532 0.1249 0.318
H8B H -0.1943 0.1532 0.4539
Fe1_2 Fe 0.0000 0.00000 -0.5000
N4B_2 N -0.0210(3) 0.0554(2) 0.6931(2)
loop_
_geom_bond_atom_site_label_1
_geom_bond_atom_site_label_2
_geom_bond_site_symmetry_1
_geom_bond_site_symmetry_2
Ni1 C1 1_555 1_555
Fe1 N2 1_555 1_555
C1 N1 1_555 1_555
N2 C2 1_555 1_555
C2 C3 1_555 1_555
C3 C4 1_555 1_555
C4 H1 1_555 1_555
C5 N2 1_555 1_555
H2 C5 1_555 1_555
C6 C4 1_555 1_555
H3 C6 1_555 1_555
C7 C2 1_555 1_555
C8 H4 1_555 1_555
C9 C7 1_555 1_555
H5 C9 1_555 1_555
C10 C3 1_555 1_555
H6 C10 1_555 1_555
N3 Fe1 1_555 1_555
H7 N3 1_555 1_555
H8 N3 1_555 1_555
N4 Fe1 1_555 1_555
C11 Ni1 1_555 1_555
C1B Ni1 1_555 1_555
N1B C1B 1_555 1_555
N4B C11B 1_555 1_555
C11B Ni1 1_555 1_555
N2B Fe1 1_555 1_555
C2B N2B 1_555 1_555
C3B C2B 1_555 1_555
C4B C3B 1_555 1_555
H1B C4B 1_555 1_555
C5B N2B 1_555 1_555
H2B C5B 1_555 1_555
C6B C4B 1_555 1_555
H3B C6B 1_555 1_555
C7B C2B 1_555 1_555
C8B H4B 1_555 1_555
C9B C7B 1_555 1_555
H5B C9B 1_555 1_555
C10B C3B 1_555 1_555
H6B C10B 1_555 1_555
N3B Fe1 1_555 1_555
H7B N3B 1_555 1_555
H8B N3B 1_555 1_555
Fe1_2 N4B 1_555 1_555
N4B_2 Fe1 1_555 1_555
C5 C6 1_555 1_555
C7 N3 1_555 1_555
C8 C9 1_555 1_555
C8 C10 1_555 1_555
N4 C11 1_555 1_555
C5B C6B 1_555 1_555
C7B N3B 1_555 1_555
C8B C9B 1_555 1_555
C8B C10B 1_555 1_555

#END
