
#######################################################################
#
#                 Cambridge Crystallographic Data Centre
#                                CCDC 
#
#######################################################################
#
# If this CIF has been generated from an entry in the Cambridge 
# Structural Database, then it will include bibliographic, chemical, 
# crystal, experimental, refinement or atomic coordinate data resulting 
# from the CCDC's data processing and validation procedures.
#
#######################################################################

data_NOBWIM01
_symmetry_cell_setting           monoclinic
_symmetry_space_group_name_H-M   'P 21/c'
_symmetry_Int_Tables_number      14
_space_group_name_Hall           '-P 2ybc'
loop_
_symmetry_equiv_pos_site_id
_symmetry_equiv_pos_as_xyz
1 x,y,z
2 -x,1/2+y,1/2-z
3 -x,-y,-z
4 x,1/2-y,1/2+z
_cell_length_a                   9.3073(3)
_cell_length_b                   12.1228(4)
_cell_length_c                   9.9073(3)
_cell_angle_alpha                90
_cell_angle_beta                 101.670(4)
_cell_angle_gamma                90
_cell_volume                     1094.74
loop_
_atom_site_label
_atom_site_type_symbol
_atom_site_fract_x
_atom_site_fract_y
_atom_site_fract_z
Pt1 Pt 0.0000 0.0000 0.0000
Fe1 Fe 0.0000 0.0000 0.5000
C1 C 0.1264(4) -0.1231(3) -0.0400(3)
N1 N 0.1978(4) -0.1922(3) -0.0670(4)
N2 N 0.1847(3) 0.1027(2) 0.4774(3)
C2 C 0.3134(4) 0.0742(3) 0.5615(3)
C3 C 0.4406(4) 0.1402(3) 0.5768(4)
C4 C 0.4316(5) 0.2349(3) 0.4908(5)
H1 H 0.5134 0.2797 0.4943
C5 C 0.1828(4) 0.1926(3) 0.4023(4)
H2 H 0.0952 0.2128 0.3443
C6 C 0.3068(5) 0.2593(3) 0.4057(5)
H3 H 0.3012 0.3205 0.3484
C7 C 0.3176(4) -0.0250(3) 0.6384(4)
C8 C 0.5660(4) 0.0179(3) 0.7512(5)
H4 H 0.6485 0.0001 0.8176
C9 C 0.4405(4) -0.0519(4) 0.7322(4)
H5 H 0.4426 -0.116 0.7841
C10 C 0.5670(4) 0.1089(3) 0.6747(4)
H6 H 0.6513 0.152 0.686
N3 N 0.1892(3) -0.0954(2) 0.6111(3)
H7 H 0.1701 -0.1208 0.691
H8 H 0.2056 -0.1536 0.5599
N4 N 0.0119(3) -0.0738(2) 0.3045(3)
C11 C 0.0099(4) -0.0520(3) 0.1911(3)
C1B C -0.1264(4) 0.1231(3) 0.0400(3)
N1B N -0.1978(4) 0.1922(3) 0.0670(4)
N4B N -0.0119(3) 0.0738(2) -0.3045(3)
C11B C -0.0099(4) 0.0520(3) -0.1911(3)
N2B N -0.1847(3) -0.1027(2) 0.5226(3)
C2B C -0.3134(4) -0.0742(3) 0.4385(3)
C3B C -0.4406(4) -0.1402(3) 0.4232(4)
C4B C -0.4316(5) -0.2349(3) 0.5092(5)
H1B H -0.5134 -0.2797 0.5057
C5B C -0.1828(4) -0.1926(3) 0.5977(4)
H2B H -0.0952 -0.2128 0.6557
C6B C -0.3068(5) -0.2593(3) 0.5943(5)
H3B H -0.3012 -0.3205 0.6516
C7B C -0.3176(4) 0.0250(3) 0.3616(4)
C8B C -0.5660(4) -0.0179(3) 0.2488(5)
H4B H -0.6485 -0.0001 0.1824
C9B C -0.4405(4) 0.0519(4) 0.2678(4)
H5B H -0.4426 0.116 0.2159
C10B C -0.5670(4) -0.1089(3) 0.3253(4)
H6B H -0.6513 -0.152 0.314
N3B N -0.1892(3) 0.0954(2) 0.3889(3)
H7B H -0.1701 0.1208 0.309
H8B H -0.2056 0.1536 0.4401
Fe1_2 Fe 0.0000 0.0000 -0.5000
N4B_2 N -0.0119(3) 0.0738(2) 0.6955(3)
loop_
_geom_bond_atom_site_label_1
_geom_bond_atom_site_label_2
_geom_bond_site_symmetry_1
_geom_bond_site_symmetry_2
Pt1 C1 1_555 1_555
Fe1 N2 1_555 1_555
C1 N1 1_555 1_555
N2 C2 1_555 1_555
C2 C3 1_555 1_555
C3 C4 1_555 1_555
C4 H1 1_555 1_555
C5 N2 1_555 1_555
H2 C5 1_555 1_555
C6 C4 1_555 1_555
H3 C6 1_555 1_555
C7 C2 1_555 1_555
C8 H4 1_555 1_555
C9 C7 1_555 1_555
H5 C9 1_555 1_555
C10 C3 1_555 1_555
H6 C10 1_555 1_555
N3 Fe1 1_555 1_555
H7 N3 1_555 1_555
H8 N3 1_555 1_555
N4 Fe1 1_555 1_555
C11 Pt1 1_555 1_555
C1B Pt1 1_555 1_555
N1B C1B 1_555 1_555
N4B C11B 1_555 1_555
C11B Pt1 1_555 1_555
N2B Fe1 1_555 1_555
C2B N2B 1_555 1_555
C3B C2B 1_555 1_555
C4B C3B 1_555 1_555
H1B C4B 1_555 1_555
C5B N2B 1_555 1_555
H2B C5B 1_555 1_555
C6B C4B 1_555 1_555
H3B C6B 1_555 1_555
C7B C2B 1_555 1_555
C8B H4B 1_555 1_555
C9B C7B 1_555 1_555
H5B C9B 1_555 1_555
C10B C3B 1_555 1_555
H6B C10B 1_555 1_555
N3B Fe1 1_555 1_555
H7B N3B 1_555 1_555
H8B N3B 1_555 1_555
Fe1_2 N4B 1_555 1_555
N4B_2 Fe1 1_555 1_555
C5 C6 1_555 1_555
C7 N3 1_555 1_555
C8 C9 1_555 1_555
C8 C10 1_555 1_555
N4 C11 1_555 1_555
C5B C6B 1_555 1_555
C7B N3B 1_555 1_555
C8B C9B 1_555 1_555
C8B C10B 1_555 1_555

#END
