
#######################################################################
#
#                 Cambridge Crystallographic Data Centre
#                                CCDC 
#
#######################################################################
#
# If this CIF has been generated from an entry in the Cambridge 
# Structural Database, then it will include bibliographic, chemical, 
# crystal, experimental, refinement or atomic coordinate data resulting 
# from the CCDC's data processing and validation procedures.
#
#######################################################################

data_NOCBOW
_symmetry_cell_setting           monoclinic
_symmetry_space_group_name_H-M   'C 2/c'
_symmetry_Int_Tables_number      15
_space_group_name_Hall           '-C 2yn'
loop_
_symmetry_equiv_pos_site_id
_symmetry_equiv_pos_as_xyz
1 x,y,z
2 1/2+x,1/2+y,z
3 x,-y,1/2+z
4 1/2+x,1/2-y,1/2+z
5 -x,-y,-z
6 1/2-x,1/2-y,-z
7 -x,y,1/2-z
8 1/2-x,1/2+y,1/2-z
_cell_length_a                   12.8780(10)
_cell_length_b                   6.8970(10)
_cell_length_c                   16.1170(10)
_cell_angle_alpha                90
_cell_angle_beta                 107.670(10)
_cell_angle_gamma                90
_cell_volume                     1363.97
loop_
_atom_site_label
_atom_site_type_symbol
_atom_site_fract_x
_atom_site_fract_y
_atom_site_fract_z
Cu1 Cu 0.053298(15) 0.21529(4) 0.515365(13)
O1 O -0.12556(10) -0.1946(2) 0.58050(8)
O2 O 0.28016(12) -0.1779(3) 0.60633(13)
N1 N -0.30463(12) -0.2013(2) 0.58307(10)
N2 N -0.01659(13) -0.2741(3) 0.37412(11)
N3 N -0.08967(12) 0.1484(3) 0.44236(10)
C1 C -0.22806(14) -0.2205(3) 0.54779(11)
C2 C -0.21121(14) -0.3462(4) 0.32584(12)
C3 C -0.0999(2) -0.4081(4) 0.32009(12)
C4 C 0.18348(15) -0.1669(3) 0.57997(12)
H1 H -0.2411(21) -0.2338(35) 0.2855(16)
H2 H -0.2609(17) -0.4525(36) 0.3047(13)
H3 H -0.0793(17) -0.5431(37) 0.3454(13)
H4 H -0.1034(18) -0.3995(40) 0.2592(15)
H5 H -0.0211(22) -0.1438(51) 0.3473(18)
H6 H 0.0433(23) -0.3147(40) 0.3852(17)
Cu1D Cu -0.053298(15) -0.21529(4) 0.484635(13)
Cu1A Cu -0.446702(15) -0.28471(4) 0.515365(13)
Cu1E Cu -0.553298(15) -0.71529(4) 0.484635(13)
O1E O -0.37444(10) -0.3054(2) 0.41950(8)
C1E C -0.27194(14) -0.2795(3) 0.45221(11)
N1E N -0.19537(12) -0.2987(2) 0.41693(10)
N3D N 0.08967(12) -0.1484(3) 0.55764(10)
N2E N -0.48341(13) -0.2259(3) 0.62588(11)
C3E C -0.4001(2) -0.0919(4) 0.67991(12)
C2E C -0.28879(14) -0.1538(4) 0.67416(12)
H1E H -0.2589(21) -0.2662(35) 0.7145(16)
H2E H -0.2391(17) -0.0475(36) 0.6953(13)
H3E H -0.4207(17) 0.0431(37) 0.6546(13)
H4E H -0.3966(18) -0.1005(40) 0.7408(15)
H5E H -0.4789(22) -0.3562(51) 0.6527(18)
H6E H -0.5433(23) -0.1853(40) 0.6148(17)
N3A N -0.58967(12) -0.3516(3) 0.44236(10)
N3E N -0.41033(12) -0.6484(3) 0.55764(10)
C4E C -0.68348(15) -0.3331(3) 0.42003(12)
O2E O -0.78016(12) -0.3221(3) 0.39367(13)
O3 O 0.0000 0.0519(4) 0.2500
H7 H 0.0339(21) 0.1250(39) 0.2885(14)
H7F H -0.0339(21) 0.1250(39) 0.2115(14)
loop_
_geom_bond_atom_site_label_1
_geom_bond_atom_site_label_2
_geom_bond_site_symmetry_1
_geom_bond_site_symmetry_2
Cu1 N3 1_555 1_555
O1 C1 1_555 1_555
O2 C4 1_555 1_555
O3 H7 1_555 1_555
N1 C1 1_555 1_555
N2 C3 1_555 1_555
N3 Cu1D 1_555 1_555
C1 C1E 1_555 1_555
C2 C3 1_555 1_555
C3 H3 1_555 1_555
C4 N3D 1_555 1_555
H1 C2 1_555 1_555
H2 C2 1_555 1_555
H4 C3 1_555 1_555
H5 N2 1_555 1_555
H6 N2 1_555 1_555
Cu1D O1 1_555 1_555
Cu1A N1 1_555 1_555
Cu1E N3A 1_555 1_555
O1E Cu1A 1_555 1_555
C1E O1E 1_555 1_555
N1E C2 1_555 1_555
N3D Cu1 1_555 1_555
N2E Cu1A 1_555 1_555
C3E N2E 1_555 1_555
C2E N1 1_555 1_555
H1E C2E 1_555 1_555
H2E C2E 1_555 1_555
H3E C3E 1_555 1_555
H4E C3E 1_555 1_555
H5E N2E 1_555 1_555
H6E N2E 1_555 1_555
N3A Cu1A 1_555 1_555
N3E Cu1A 1_555 1_555
H7F O3 1_555 1_555
C4E N3A 1_555 1_555
O2E C4E 1_555 1_555
N2 Cu1D 1_555 1_555
Cu1D N1E 1_555 1_555
Cu1D N3D 1_555 1_555
Cu1E N3E 1_555 1_555
C1E N1E 1_555 1_555
C3E C2E 1_555 1_555

#END
