
#######################################################################
#
#                 Cambridge Crystallographic Data Centre
#                                CCDC 
#
#######################################################################
#
# If this CIF has been generated from an entry in the Cambridge 
# Structural Database, then it will include bibliographic, chemical, 
# crystal, experimental, refinement or atomic coordinate data resulting 
# from the CCDC's data processing and validation procedures.
#
#######################################################################

data_NOCHET
_symmetry_cell_setting           monoclinic
_symmetry_space_group_name_H-M   'P 21/n'
_symmetry_Int_Tables_number      14
_space_group_name_Hall           '-P 2yn'
loop_
_symmetry_equiv_pos_site_id
_symmetry_equiv_pos_as_xyz
1 x,y,z
2 1/2-x,1/2+y,1/2-z
3 -x,-y,-z
4 1/2+x,1/2-y,1/2+z
_cell_length_a                   9.0741(18)
_cell_length_b                   15.264(3)
_cell_length_c                   17.667(4)
_cell_angle_alpha                90.00
_cell_angle_beta                 99.18(3)
_cell_angle_gamma                90.00
_cell_volume                     2415.66
loop_
_atom_site_label
_atom_site_type_symbol
_atom_site_fract_x
_atom_site_fract_y
_atom_site_fract_z
Re1 Re 0.00271(5) 0.02867(4) 0.22730(3)
Re2 Re 0.36694(5) -0.00167(3) 0.16793(3)
Ag1 Ag 0.42698(11) 0.32536(7) 0.39095(6)
C1 C -0.1472(14) -0.0535(9) 0.1888(8)
O1 O -0.2334(10) -0.1064(7) 0.1620(6)
C2 C -0.0178(16) -0.0043(11) 0.3313(10)
O2 O -0.0357(13) -0.0235(9) 0.3915(7)
C3 C -0.1453(15) 0.1137(9) 0.2331(8)
O3 O -0.2348(11) 0.1682(7) 0.2376(6)
C4 C 0.5190(16) -0.0400(9) 0.2494(8)
O4 O 0.6116(11) -0.0621(8) 0.2971(7)
C5 C 0.3982(14) -0.1051(11) 0.1093(8)
O5 O 0.4265(11) -0.1644(7) 0.0760(6)
C6 C 0.5135(14) 0.0523(9) 0.1187(8)
O6 O 0.6019(11) 0.0827(7) 0.0856(6)
O7 O 0.1852(9) -0.0565(6) 0.2150(5)
N1 N 0.0446(10) 0.0655(7) 0.1136(6)
N2 N 0.1798(12) 0.0524(7) 0.0894(6)
C7 C 0.1640(14) 0.0818(8) 0.0191(8)
H1 H 0.2404 0.0818 -0.0103
N3 N 0.0253(10) 0.1119(7) -0.0065(6)
C8 C -0.0432(13) 0.1015(8) 0.0561(8)
H2 H -0.1413 0.1181 0.0578
N4 N 0.1864(11) 0.1171(8) 0.2644(6)
N5 N 0.3202(11) 0.1084(7) 0.2379(6)
C9 C 0.4044(14) 0.1731(9) 0.2700(8)
H3 H 0.5015 0.1830 0.2614
N6 N 0.3372(11) 0.2226(7) 0.3158(6)
C10 C 0.2015(15) 0.1852(9) 0.3106(8)
H4 H 0.1269 0.2053 0.3367
H17 H 0.225(17) -0.083(11) 0.271(10)
Ag1C Ag -0.07302(11) 0.17464(7) -0.10905(6)
N3C N 0.5253(10) 0.3881(7) 0.4935(6)
O8 O 0.2671(17) 0.8676(9) 0.3574(8)
C11 C 0.363(2) 0.7957(13) 0.3719(11)
H5 H 0.4047 0.7822 0.3267
H6 H 0.3076 0.7461 0.3856
H7 H 0.4414 0.8093 0.4133
O9 O 0.317(3) -0.001(4) 0.500(2)
C12 C 0.394(4) 0.024(2) 0.432(2)
H8 H 0.3236 0.0217 0.3857
H9 H 0.4745 -0.0160 0.4289
H10 H 0.4336 0.0825 0.4395
O10 O 0.854(3) 0.876(2) 0.5162(13)
C13 C 0.784(4) 0.818(2) 0.458(2)
H11 H 0.7299 0.8514 0.4163
H12 H 0.7163 0.7800 0.4785
H13 H 0.8590 0.7835 0.4389
O11 O 0.155(3) 0.862(2) 0.4965(15)
C14 C 0.234(4) 0.824(3) 0.5617(16)
H14 H 0.3330 0.8488 0.5712
H15 H 0.2406 0.7622 0.5547
H16 H 0.1843 0.8363 0.6045
loop_
_geom_bond_atom_site_label_1
_geom_bond_atom_site_label_2
_geom_bond_site_symmetry_1
_geom_bond_site_symmetry_2
Re1 C1 1_555 1_555
Re2 C4 1_555 1_555
Ag1 N6 1_555 1_555
C1 O1 1_555 1_555
C2 Re1 1_555 1_555
O2 C2 1_555 1_555
C3 Re1 1_555 1_555
O3 C3 1_555 1_555
C4 O4 1_555 1_555
C5 Re2 1_555 1_555
O5 C5 1_555 1_555
C6 Re2 1_555 1_555
O6 C6 1_555 1_555
O7 Re1 1_555 1_555
N1 Re1 1_555 1_555
N2 Re2 1_555 1_555
C7 N2 1_555 1_555
H1 C7 1_555 1_555
N3 C7 1_555 1_555
C8 N1 1_555 1_555
H2 C8 1_555 1_555
N4 Re1 1_555 1_555
N5 Re2 1_555 1_555
C9 N5 1_555 1_555
H3 C9 1_555 1_555
N6 C9 1_555 1_555
C10 N4 1_555 1_555
H4 C10 1_555 1_555
O8 C11 1_555 1_555
C11 H5 1_555 1_555
H6 C11 1_555 1_555
H7 C11 1_555 1_555
O9 C12 1_555 1_555
C12 H8 1_555 1_555
H9 C12 1_555 1_555
H10 C12 1_555 1_555
O10 C13 1_555 1_555
C13 H11 1_555 1_555
H12 C13 1_555 1_555
H13 C13 1_555 1_555
O11 C14 1_555 1_555
C14 H14 1_555 1_555
H15 C14 1_555 1_555
H16 C14 1_555 1_555
H17 O7 1_555 1_555
Ag1C N3 1_555 1_555
N3C Ag1 1_555 1_555
Re2 O7 1_555 1_555
N1 N2 1_555 1_555
N3 C8 1_555 1_555
N4 N5 1_555 1_555
N6 C10 1_555 1_555

#END
