
#######################################################################
#
#                 Cambridge Crystallographic Data Centre
#                                CCDC 
#
#######################################################################
#
# If this CIF has been generated from an entry in the Cambridge 
# Structural Database, then it will include bibliographic, chemical, 
# crystal, experimental, refinement or atomic coordinate data resulting 
# from the CCDC's data processing and validation procedures.
#
#######################################################################

data_NOCHOD
_symmetry_cell_setting           monoclinic
_symmetry_space_group_name_H-M   'P 21/c'
_symmetry_Int_Tables_number      14
_space_group_name_Hall           '-P 2ybc'
loop_
_symmetry_equiv_pos_site_id
_symmetry_equiv_pos_as_xyz
1 x,y,z
2 -x,1/2+y,1/2-z
3 -x,-y,-z
4 x,1/2-y,1/2+z
_cell_length_a                   15.295(2)
_cell_length_b                   14.351(2)
_cell_length_c                   26.579(3)
_cell_angle_alpha                90
_cell_angle_beta                 97.514(2)
_cell_angle_gamma                90
_cell_volume                     5783.95
loop_
_atom_site_label
_atom_site_type_symbol
_atom_site_fract_x
_atom_site_fract_y
_atom_site_fract_z
Cu1 Cu 0.43805(5) 0.77229(5) 0.21919(3)
Cu2 Cu 0.30248(5) 0.89218(6) 0.24852(3)
Cu3 Cu 0.81160(5) 0.36747(6) -0.24605(3)
Cu4 Cu 0.95358(5) 0.25384(6) -0.27053(3)
O1 O 0.3900(3) 0.8066(3) 0.28089(16)
O2 O 1.0461(3) 0.5555(3) -0.2596(2)
O3 O 0.5560(3) 1.0492(4) 0.2383(2)
O4 O 0.3236(3) 0.8186(3) 0.19016(15)
O5 O 0.9162(3) 0.5024(4) -0.2500(2)
O6 O 0.5115(3) 0.9177(3) 0.20526(19)
O7 O 0.8361(3) 0.2882(4) -0.30122(17)
O8 O 1.0119(4) 0.4148(4) -0.2811(2)
O9 O 0.4193(3) 1.0109(3) 0.23607(19)
O10 O 0.9000(3) 0.2865(3) -0.21024(16)
N1 N 0.5440(4) 0.7327(4) 0.2663(2)
H1 H 0.5575 0.6716 0.2603
H2 H 0.5917 0.7691 0.2614
N2 N 0.4795(3) 0.7205(4) 0.1562(2)
N3 N -0.0005(3) 1.2122(4) 0.6665(2)
N4 N 0.9915(4) 0.4903(4) -0.2635(2)
N5 N 0.4961(4) 0.9917(4) 0.2266(2)
N6 N 0.2155(3) 0.9625(4) 0.2001(2)
H3 H 0.1617 0.9649 0.2120
H4 H 0.2348 1.0225 0.1963
N7 N 0.7702(4) 0.4233(4) -0.1855(2)
N8 N 0.2689(4) 0.9461(4) 0.3122(2)
N9 N 0.7316(4) 0.4378(4) -0.2988(2)
H5 H 0.6768 0.4451 -0.2886
H6 H 0.7545 0.4958 -0.3038
N10 N 1.0632(4) 0.2288(4) -0.2230(2)
H7 H 1.0852 0.1707 -0.2289
H8 H 1.1057 0.2726 -0.2270
C1 C 0.5090(5) 0.6314(4) 0.1556(3)
H9 H 0.5057 0.5932 0.1845
C2 C -0.0113(5) 1.1250(5) 0.6505(3)
H10 H -0.0422 1.0840 0.6700
C3 C 0.5433(4) 0.5945(5) 0.1148(2)
H11 H 0.5636 0.5319 0.1161
C4 C 0.0185(5) 1.0895(6) 0.6081(3)
H12 H 0.0063 1.0268 0.5980
C5 C 0.5487(4) 0.6480(5) 0.0710(2)
C6 C 0.0674(4) 1.1474(5) 0.5797(2)
C7 C 0.5870(4) 0.6088(5) 0.0270(2)
C8 C 0.1026(4) 1.1141(5) 0.5329(2)
C9 C 0.5976(4) 0.5134(5) 0.0213(2)
H13 H 0.5796 0.4721 0.0459
C10 C 0.1097(5) 1.0188(5) 0.5235(3)
H14 H 0.0911 0.9752 0.5468
C11 C 0.6339(5) 0.4774(5) -0.0196(2)
H15 H 0.6422 0.4121 -0.0221
C12 C 0.1432(5) 0.9870(5) 0.4810(3)
H16 H 0.1474 0.9219 0.4753
C13 C 0.6584(4) 0.5360(5) -0.0571(2)
C14 C 0.1710(4) 1.0491(5) 0.4463(3)
C15 C 0.6982(4) 0.4967(5) -0.1012(2)
C16 C 0.2062(4) 1.0156(5) 0.3997(2)
C17 C 0.7231(5) 0.4039(5) -0.1038(3)
H17 H 0.7163 0.3632 -0.0764
C18 C 0.2366(5) 0.9240(5) 0.3968(3)
H18 H 0.2372 0.8833 0.4250
C19 C 0.7575(5) 0.3701(5) -0.1457(3)
H19 H 0.7730 0.3061 -0.1463
C20 C 0.2655(5) 0.8932(5) 0.3529(3)
H20 H 0.2842 0.8303 0.3516
C21 C 0.7465(5) 0.5131(5) -0.1832(3)
H21 H 0.7547 0.5524 -0.2109
C22 C 0.2432(5) 1.0349(5) 0.3157(3)
H22 H 0.2474 1.0754 0.2878
C23 C 0.7109(5) 0.5515(6) -0.1430(3)
H23 H 0.6950 0.6155 -0.1437
C24 C 0.2111(5) 1.0697(6) 0.3578(3)
H24 H 0.1918 1.1327 0.3578
C25 C 0.6480(5) 0.6315(5) -0.0513(3)
H25 H 0.6661 0.6727 -0.0760
C26 C 0.1650(5) 1.1435(5) 0.4553(3)
H26 H 0.1845 1.1869 0.4322
C27 C 0.6119(5) 0.6678(5) -0.0108(3)
H27 H 0.6038 0.7332 -0.0083
C28 C 0.1305(5) 1.1758(6) 0.4982(3)
H28 H 0.1261 1.2410 0.5036
C29 C 0.5150(4) 0.7385(5) 0.0719(2)
H29 H 0.5144 0.7774 0.0430
C30 C 0.0796(6) 1.2389(6) 0.5965(3)
H30 H 0.1109 1.2817 0.5782
C31 C 0.4830(5) 0.7713(5) 0.1141(2)
H31 H 0.4620 0.8336 0.1137
C32 C 0.0460(6) 1.2675(6) 0.6398(3)
H32 H 0.0568 1.3297 0.6511
C33 C 0.2973(4) 0.8713(5) 0.1453(2)
H33 H 0.2933 0.8306 0.1150
H34 H 0.3404 0.9214 0.1417
C34 C 0.4605(5) 0.8239(5) 0.3202(3)
H35 H 0.4383 0.8274 0.3535
H36 H 0.4901 0.8834 0.3141
C35 C 0.8148(5) 0.3347(6) -0.3482(3)
H37 H 0.8114 0.2898 -0.3766
H38 H 0.8602 0.3820 -0.3528
C36 C 0.9671(5) 0.3066(5) -0.1703(3)
H39 H 0.9434 0.3048 -0.1374
H40 H 0.9915 0.3695 -0.1747
C37 C 0.2074(4) 0.9126(5) 0.1509(2)
H41 H 0.1889 0.9563 0.1226
H42 H 0.1627 0.8626 0.1502
C38 C 0.5239(5) 0.7433(5) 0.3193(3)
H43 H 0.5787 0.7558 0.3425
H44 H 0.4969 0.6854 0.3305
C39 C 0.7249(4) 0.3817(5) -0.3466(3)
H45 H 0.7103 0.4227 -0.3765
H46 H 0.6780 0.3341 -0.3469
C40 C 1.0374(5) 0.2341(5) -0.1715(2)
H47 H 1.0894 0.2504 -0.1468
H48 H 1.0151 0.1728 -0.1618
Cu4_2 Cu -0.04642(5) 1.25384(6) 0.72947(3)
N3_2 N 0.9995(3) 0.2122(4) -0.3335(2)
N11 N 0.7544(4) -0.2150(5) -0.2076(2)
O11 O 0.8090(6) -0.1648(6) -0.2204(4)
O12 O 0.7272(8) -0.2114(9) -0.1665(4)
O13 O 0.7297(7) -0.2856(6) -0.2348(4)
N13 N 0.6668(6) 0.2182(5) 0.0228(3)
O20 O 0.6149(5) 0.2548(5) 0.0507(3)
O21 O 0.7297(5) 0.2633(5) 0.0100(3)
O22 O 0.6549(6) 0.1357(5) 0.0083(3)
O23 O 0.5269(5) 0.8748(5) -0.0595(3)
H49 H 0.4814 0.8419 -0.0598
C41 C 0.5021(7) 0.9691(6) -0.0705(4)
H50 H 0.4501 0.9845 -0.0541
H51 H 0.4881 0.9772 -0.1072
H52 H 0.5509 1.0105 -0.0575
O24 O 0.7897(6) 0.6070(7) -0.3516(4)
H53 H 0.7931 0.5921 -0.3209
C42 C 0.7070(9) 0.6515(12) -0.3671(6)
H54 H 0.6688 0.6442 -0.3405
H55 H 0.6787 0.6229 -0.3986
H56 H 0.7167 0.7180 -0.3728
O25 O 0.8399(6) 0.1369(7) -0.0271(4)
H57 H 0.8556 0.0915 -0.0082
C43 C 0.9101(8) 0.2038(9) -0.0241(5)
H58 H 0.8900 0.2592 -0.0439
H59 H 0.9607 0.1764 -0.0378
H60 H 0.9274 0.2214 0.0114
O26 O 0.8932(7) 0.5844(8) -0.4276(4)
H61 H 0.8938 0.6059 -0.4570
C44 C 0.9606(8) 0.5138(9) -0.4176(5)
H62 H 0.9751 0.5053 -0.3808
H63 H 1.0135 0.5333 -0.4320
H64 H 0.9389 0.4548 -0.4331
O14? O 0.778(3) -0.196(2) -0.2456(11)
O15? O 0.7368(14) -0.1544(12) -0.1768(7)
O16? O 0.741(3) -0.2967(10) -0.1953(13)
N12? N 0.724(2) 0.674(2) -0.3112(8)
O17? O 0.727(2) 0.663(2) -0.2646(7)
O18? O 0.696(2) 0.7531(18) -0.3260(11)
O19? O 0.7653(16) 0.6293(15) -0.3358(8)
loop_
_geom_bond_atom_site_label_1
_geom_bond_atom_site_label_2
_geom_bond_site_symmetry_1
_geom_bond_site_symmetry_2
Cu1 O1 1_555 1_555
Cu2 O1 1_555 1_555
Cu3 O5 1_555 1_555
Cu4 O7 1_555 1_555
O1 C34 1_555 1_555
O2 N4 1_555 1_555
O3 N5 1_555 1_555
O4 Cu1 1_555 1_555
O5 N4 1_555 1_555
O6 Cu1 1_555 1_555
O7 Cu3 1_555 1_555
O8 Cu4 1_555 1_555
O9 Cu2 1_555 1_555
O10 Cu3 1_555 1_555
N1 Cu1 1_555 1_555
H1 N1 1_555 1_555
H2 N1 1_555 1_555
N2 Cu1 1_555 1_555
N3 C2 1_555 1_555
N4 O8 1_555 1_555
N5 O6 1_555 1_555
N6 Cu2 1_555 1_555
H3 N6 1_555 1_555
H4 N6 1_555 1_555
N7 Cu3 1_555 1_555
N8 Cu2 1_555 1_555
N9 Cu3 1_555 1_555
H5 N9 1_555 1_555
H6 N9 1_555 1_555
N10 Cu4 1_555 1_555
H7 N10 1_555 1_555
H8 N10 1_555 1_555
C1 N2 1_555 1_555
H9 C1 1_555 1_555
C2 H10 1_555 1_555
C3 C1 1_555 1_555
H11 C3 1_555 1_555
C4 C2 1_555 1_555
H12 C4 1_555 1_555
C5 C3 1_555 1_555
C6 C4 1_555 1_555
C7 C5 1_555 1_555
C8 C6 1_555 1_555
C9 C7 1_555 1_555
H13 C9 1_555 1_555
C10 C8 1_555 1_555
H14 C10 1_555 1_555
C11 C9 1_555 1_555
H15 C11 1_555 1_555
C12 C10 1_555 1_555
H16 C12 1_555 1_555
C13 C11 1_555 1_555
C14 C12 1_555 1_555
C15 C13 1_555 1_555
C16 C14 1_555 1_555
C17 C15 1_555 1_555
H17 C17 1_555 1_555
C18 C16 1_555 1_555
H18 C18 1_555 1_555
C19 N7 1_555 1_555
H19 C19 1_555 1_555
C20 N8 1_555 1_555
H20 C20 1_555 1_555
C21 N7 1_555 1_555
H21 C21 1_555 1_555
C22 N8 1_555 1_555
H22 C22 1_555 1_555
C23 C15 1_555 1_555
H23 C23 1_555 1_555
C24 C16 1_555 1_555
H24 C24 1_555 1_555
C25 C13 1_555 1_555
H25 C25 1_555 1_555
C26 C14 1_555 1_555
H26 C26 1_555 1_555
C27 C7 1_555 1_555
H27 C27 1_555 1_555
C28 C8 1_555 1_555
H28 C28 1_555 1_555
C29 C5 1_555 1_555
H29 C29 1_555 1_555
C30 C6 1_555 1_555
H30 C30 1_555 1_555
C31 N2 1_555 1_555
H31 C31 1_555 1_555
C32 N3 1_555 1_555
H32 C32 1_555 1_555
C33 O4 1_555 1_555
H33 C33 1_555 1_555
H34 C33 1_555 1_555
C34 H35 1_555 1_555
H36 C34 1_555 1_555
C35 O7 1_555 1_555
H37 C35 1_555 1_555
H38 C35 1_555 1_555
C36 O10 1_555 1_555
H39 C36 1_555 1_555
H40 C36 1_555 1_555
C37 N6 1_555 1_555
H41 C37 1_555 1_555
H42 C37 1_555 1_555
C38 N1 1_555 1_555
H43 C38 1_555 1_555
H44 C38 1_555 1_555
C39 N9 1_555 1_555
H45 C39 1_555 1_555
H46 C39 1_555 1_555
C40 N10 1_555 1_555
H47 C40 1_555 1_555
H48 C40 1_555 1_555
N11 O11 1_555 1_555
O12 N11 1_555 1_555
O13 N11 1_555 1_555
N13 O20 1_555 1_555
O21 N13 1_555 1_555
O22 N13 1_555 1_555
O23 H49 1_555 1_555
C41 O23 1_555 1_555
H50 C41 1_555 1_555
H51 C41 1_555 1_555
H52 C41 1_555 1_555
O24 H53 1_555 1_555
C42 O24 1_555 1_555
H54 C42 1_555 1_555
H55 C42 1_555 1_555
H56 C42 1_555 1_555
O25 H57 1_555 1_555
C43 O25 1_555 1_555
H58 C43 1_555 1_555
H59 C43 1_555 1_555
H60 C43 1_555 1_555
O26 H61 1_555 1_555
C44 O26 1_555 1_555
H62 C44 1_555 1_555
H63 C44 1_555 1_555
H64 C44 1_555 1_555
Cu4_2 N3 1_555 1_555
N3_2 Cu4 1_555 1_555
Cu2 O4 1_555 1_555
Cu4 O10 1_555 1_555
O9 N5 1_555 1_555
C17 C19 1_555 1_555
C18 C20 1_555 1_555
C21 C23 1_555 1_555
C22 C24 1_555 1_555
C25 C27 1_555 1_555
C26 C28 1_555 1_555
C29 C31 1_555 1_555
C30 C32 1_555 1_555
C33 C37 1_555 1_555
C34 C38 1_555 1_555
C35 C39 1_555 1_555
C36 C40 1_555 1_555

#END
