
#######################################################################
#
#                 Cambridge Crystallographic Data Centre
#                                CCDC 
#
#######################################################################
#
# If this CIF has been generated from an entry in the Cambridge 
# Structural Database, then it will include bibliographic, chemical, 
# crystal, experimental, refinement or atomic coordinate data resulting 
# from the CCDC's data processing and validation procedures.
#
#######################################################################

data_NOCJAR
_symmetry_cell_setting           monoclinic
_symmetry_space_group_name_H-M   'P 21/c'
_symmetry_Int_Tables_number      14
_space_group_name_Hall           '-P 2ybc'
loop_
_symmetry_equiv_pos_site_id
_symmetry_equiv_pos_as_xyz
1 x,y,z
2 -x,1/2+y,1/2-z
3 -x,-y,-z
4 x,1/2-y,1/2+z
_cell_length_a                   10.4247(11)
_cell_length_b                   11.9967(13)
_cell_length_c                   14.591(2)
_cell_angle_alpha                90
_cell_angle_beta                 96.623(2)
_cell_angle_gamma                90
_cell_volume                     1812.6
loop_
_atom_site_label
_atom_site_type_symbol
_atom_site_fract_x
_atom_site_fract_y
_atom_site_fract_z
Cu1 Cu 0.13877(5) -0.03129(4) 0.03428(3)
O1 O 0.0290(3) 0.0970(2) 0.0061(2)
N1 N 0.3026(4) 0.0579(3) 0.0439(3)
H1 H 0.3641 0.0199 0.0820
H2 H 0.3303 0.0597 -0.0138
N2 N 0.1154(4) -0.0358(3) 0.1906(3)
N3 N 0.2375(4) -0.1740(3) 0.0256(3)
C1 C 0.2014(5) 0.0011(4) 0.2599(3)
H3 H 0.2863 0.0180 0.2466
C2 C 0.2590(5) -0.2458(4) 0.0957(4)
H4 H 0.2224 -0.2307 0.1510
C3 C 0.1727(5) 0.0156(4) 0.3492(3)
H5 H 0.2359 0.0436 0.3956
C4 C 0.3329(5) -0.3419(5) 0.0909(4)
H6 H 0.3455 -0.3918 0.1417
C5 C 0.0498(5) -0.0116(4) 0.3698(3)
C6 C 0.3877(5) -0.3633(4) 0.0105(4)
C7 C -0.0408(5) -0.0492(4) 0.2984(3)
H7 H -0.1262 -0.0677 0.3098
C8 C 0.3633(5) -0.2898(4) -0.0630(4)
H8 H 0.3974 -0.3036 -0.1195
C9 C -0.0033(5) -0.0589(4) 0.2106(3)
H9 H -0.0656 -0.0834 0.1621
C10 C 0.2891(5) -0.1968(4) -0.0529(3)
H10 H 0.2736 -0.1466 -0.1033
C11 C 0.0153(5) -0.0026(4) 0.4619(3)
C12 C 0.4665(5) -0.4597(4) 0.0033(5)
C13 C 0.2993(5) 0.1741(4) 0.0778(4)
H11 H 0.3836 0.2100 0.0725
H12 H 0.2859 0.1733 0.1439
C14 C 0.1936(5) 0.2420(4) 0.0248(4)
H13 H 0.2019 0.2361 -0.0419
H14 H 0.2052 0.3213 0.0426
C15 C 0.0591(5) 0.2051(4) 0.0415(4)
H15 H 0.0525 0.2056 0.1087
H16 H -0.0048 0.2589 0.0120
Cu1B Cu -0.13877(5) 0.03129(4) -0.03428(3)
Cu1B_2 Cu -0.13877(5) 0.03129(4) 0.96572(3)
Cu1B_3 Cu 0.86123(5) -0.96871(4) -0.03428(3)
O1B O -0.0290(3) -0.0970(2) -0.0061(2)
N1B N -0.3026(4) -0.0579(3) -0.0439(3)
H1B H -0.3641 -0.0199 -0.0820
H2B H -0.3303 -0.0597 0.0138
N2B N -0.1154(4) 0.0358(3) 0.8094(3)
N2B_2 N -0.1154(4) 0.0358(3) -0.1906(3)
N3B N 0.7625(4) -0.8260(3) -0.0256(3)
N3B_2 N -0.2375(4) 0.1740(3) -0.0256(3)
C1B C -0.2014(5) -0.0011(4) 0.7401(3)
H3B H -0.2863 -0.0180 0.7534
C2B C 0.7410(5) -0.7542(4) -0.0957(4)
H4B H 0.7776 -0.7693 -0.1510
C3B C -0.1727(5) -0.0156(4) 0.6508(3)
H5B H -0.2359 -0.0436 0.6044
C4B C 0.6671(5) -0.6581(5) -0.0909(4)
H6B H 0.6545 -0.6082 -0.1417
C5B C -0.0498(5) 0.0116(4) 0.6302(3)
C6B C 0.6123(5) -0.6367(4) -0.0105(4)
C7B C 0.0408(5) 0.0492(4) 0.7016(3)
H7B H 0.1262 0.0677 0.6902
C8B C 0.6367(5) -0.7102(4) 0.0630(4)
H8B H 0.6026 -0.6964 0.1195
C9B C 0.0033(5) 0.0589(4) 0.7894(3)
H9B H 0.0656 0.0834 0.8379
C10B C 0.7109(5) -0.8032(4) 0.0529(3)
H10B H 0.7264 -0.8534 0.1033
C11B C -0.0153(5) 0.0026(4) 0.5381(3)
C12B C 0.5335(5) -0.5403(4) -0.0033(5)
C13B C -0.2993(5) -0.1741(4) -0.0778(4)
H11B H -0.3836 -0.2100 -0.0725
H12B H -0.2859 -0.1733 -0.1439
C14B C -0.1936(5) -0.2420(4) -0.0248(4)
H13B H -0.2019 -0.2361 0.0419
H14B H -0.2052 -0.3213 -0.0426
C15B C -0.0591(5) -0.2051(4) -0.0415(4)
H15B H -0.0525 -0.2056 -0.1087
H16B H 0.0048 -0.2589 -0.0120
Cl1 Cl 0.58899(13) -0.09863(14) 0.20210(10)
O2 O 0.5284(8) -0.0996(8) 0.1053(5)
O3 O 0.6834(10) -0.1861(9) 0.2046(9)
O4 O 0.6528(14) 0.0058(9) 0.2157(12)
O5 O 0.4919(11) -0.1204(11) 0.2576(8)
O6? O 0.4544(8) -0.0983(14) 0.1924(11)
O7? O 0.6327(18) -0.2042(10) 0.1680(13)
O8? O 0.6667(14) -0.0158(12) 0.1689(12)
O9? O 0.6293(10) -0.1020(10) 0.3024(5)
loop_
_geom_bond_atom_site_label_1
_geom_bond_atom_site_label_2
_geom_bond_site_symmetry_1
_geom_bond_site_symmetry_2
Cu1 O1 1_555 1_555
O1 C15 1_555 1_555
N1 Cu1 1_555 1_555
H1 N1 1_555 1_555
H2 N1 1_555 1_555
N2 Cu1 1_555 1_555
N3 Cu1 1_555 1_555
C1 N2 1_555 1_555
H3 C1 1_555 1_555
C2 N3 1_555 1_555
H4 C2 1_555 1_555
C3 C1 1_555 1_555
H5 C3 1_555 1_555
C4 C2 1_555 1_555
H6 C4 1_555 1_555
C5 C3 1_555 1_555
C6 C4 1_555 1_555
C7 C5 1_555 1_555
H7 C7 1_555 1_555
C8 C6 1_555 1_555
H8 C8 1_555 1_555
C9 N2 1_555 1_555
H9 C9 1_555 1_555
C10 N3 1_555 1_555
H10 C10 1_555 1_555
C11 C5 1_555 1_555
C12 C6 1_555 1_555
C13 N1 1_555 1_555
H11 C13 1_555 1_555
H12 C13 1_555 1_555
C14 C13 1_555 1_555
H13 C14 1_555 1_555
H14 C14 1_555 1_555
C15 C14 1_555 1_555
H15 C15 1_555 1_555
H16 C15 1_555 1_555
Cl1 O2 1_555 1_555
O3 Cl1 1_555 1_555
O4 Cl1 1_555 1_555
O5 Cl1 1_555 1_555
Cu1B O1 1_555 1_555
Cu1B_2 N2B 1_555 1_555
Cu1B_3 N3B 1_555 1_555
O1B Cu1 1_555 1_555
N1B Cu1B 1_555 1_555
H1B N1B 1_555 1_555
H2B N1B 1_555 1_555
N2B C1B 1_555 1_555
N2B_2 Cu1B 1_555 1_555
N3B C2B 1_555 1_555
N3B_2 Cu1B 1_555 1_555
C1B H3B 1_555 1_555
C2B H4B 1_555 1_555
C3B C1B 1_555 1_555
H5B C3B 1_555 1_555
C4B C2B 1_555 1_555
H6B C4B 1_555 1_555
C5B C3B 1_555 1_555
C6B C4B 1_555 1_555
C7B C5B 1_555 1_555
H7B C7B 1_555 1_555
C8B C6B 1_555 1_555
H8B C8B 1_555 1_555
C9B N2B 1_555 1_555
H9B C9B 1_555 1_555
C10B N3B 1_555 1_555
H10B C10B 1_555 1_555
C11B C11 1_555 1_555
C12B C12 1_555 1_555
C13B N1B 1_555 1_555
H11B C13B 1_555 1_555
H12B C13B 1_555 1_555
C14B C13B 1_555 1_555
H13B C14B 1_555 1_555
H14B C14B 1_555 1_555
C15B O1B 1_555 1_555
H15B C15B 1_555 1_555
H16B C15B 1_555 1_555
C7 C9 1_555 1_555
C8 C10 1_555 1_555
Cu1B O1B 1_555 1_555
C5B C11B 1_555 1_555
C6B C12B 1_555 1_555
C7B C9B 1_555 1_555
C8B C10B 1_555 1_555
C14B C15B 1_555 1_555

#END
