
#######################################################################
#
#                 Cambridge Crystallographic Data Centre
#                                CCDC 
#
#######################################################################
#
# If this CIF has been generated from an entry in the Cambridge 
# Structural Database, then it will include bibliographic, chemical, 
# crystal, experimental, refinement or atomic coordinate data resulting 
# from the CCDC's data processing and validation procedures.
#
#######################################################################

data_NOCLOH02
_symmetry_cell_setting           trigonal
_symmetry_space_group_name_H-M   'P 31'
_symmetry_Int_Tables_number      144
_space_group_name_Hall           'P 31'
loop_
_symmetry_equiv_pos_site_id
_symmetry_equiv_pos_as_xyz
1 x,y,z
2 -y,x-y,1/3+z
3 -x+y,-x,2/3+z
_cell_length_a                   10.62017(15)
_cell_length_b                   10.62017(15)
_cell_length_c                   9.84171(14)
_cell_angle_alpha                90
_cell_angle_beta                 90
_cell_angle_gamma                120
_cell_volume                     961.311
loop_
_atom_site_label
_atom_site_type_symbol
_atom_site_fract_x
_atom_site_fract_y
_atom_site_fract_z
Sr1 Sr 0.31170(3) 0.76535(3) 0.4999
O1 O 0.3924(3) 0.5929(4) 0.6251(3)
O2 O 0.4855(3) 0.6593(4) 0.4206(3)
O3 O 0.9962(4) 0.5498(5) 0.8336(4)
O4 O 1.0865(3) 0.5935(3) 0.6265(3)
O5 O 0.2082(5) 0.9241(5) 0.4479(5)
N1 N 0.2197(9) 1.1409(7) 0.4348(7)
C1 C 0.4896(4) 0.6187(4) 0.5382(5)
C2 C 0.6193(5) 0.6050(5) 0.5812(5)
C3 C 0.6262(5) 0.5594(7) 0.7090(5)
H1 H 0.5496 0.5341 0.7691
C4 C 0.7459(6) 0.5503(7) 0.7506(6)
H2 H 0.7492 0.5195 0.8382
C5 C 0.8613(5) 0.5869(5) 0.6622(5)
C6 C 0.9906(4) 0.5780(5) 0.7118(5)
C7 C 0.8539(5) 0.6330(6) 0.5331(5)
H3 H 0.9303 0.6582 0.4728
C8 C 0.7343(5) 0.6422(6) 0.4920(5)
H4 H 0.7307 0.6733 0.4045
C9 C 0.3920(15) 1.2278(14) 0.4664(14)
H5 H 0.4090 1.2747 0.5533
H6 H 0.4418 1.2995 0.3972
H7 H 0.4277 1.1607 0.4676
C10 C 0.185(2) 1.2467(14) 0.4165(17)
H8 H 0.2307 1.3001 0.3352
H9 H 0.2185 1.3115 0.4930
H10 H 0.0815 1.2033 0.4084
C11 C 0.1824(19) 1.0195(11) 0.4367(11)
H11 H 0.0825 0.9733 0.4226
Sr1A Sr 0.23465(3) 0.54635(4) 0.8332
Sr1B Sr 0.45365(4) 0.68830(3) 0.1666
Sr1A_2 Sr 1.23465(3) 0.54635(4) 0.8332
Sr1_2 Sr 1.31170(3) 0.76535(3) 0.4999
O1B O 0.2005(5) 0.6076(3) 0.2918(3)
O2A O 0.3407(4) 0.8262(5) 0.7539(3)
O3B O 0.5536(6) 1.0038(4) 0.5003(4)
O4_2 O 0.0865(3) 0.5935(3) 0.6265(3)
O4B O 0.5070(4) 0.9135(3) 0.2932(3)
loop_
_geom_bond_atom_site_label_1
_geom_bond_atom_site_label_2
_geom_bond_site_symmetry_1
_geom_bond_site_symmetry_2
Sr1 O1 1_555 1_555
O1 C1 1_555 1_555
O2 Sr1 1_555 1_555
O3 C6 1_555 1_555
O4 C6 1_555 1_555
O5 Sr1 1_555 1_555
N1 C9 1_555 1_555
C1 O2 1_555 1_555
C2 C1 1_555 1_555
C3 C2 1_555 1_555
H1 C3 1_555 1_555
C4 C3 1_555 1_555
H2 C4 1_555 1_555
C5 C4 1_555 1_555
C6 C5 1_555 1_555
C7 C5 1_555 1_555
H3 C7 1_555 1_555
C8 C2 1_555 1_555
H4 C8 1_555 1_555
C9 H5 1_555 1_555
H6 C9 1_555 1_555
H7 C9 1_555 1_555
C10 N1 1_555 1_555
H8 C10 1_555 1_555
H9 C10 1_555 1_555
H10 C10 1_555 1_555
C11 O5 1_555 1_555
H11 C11 1_555 1_555
Sr1A O1 1_555 1_555
Sr1B O2 1_555 1_555
Sr1A_2 O3 1_555 1_555
Sr1_2 O4 1_555 1_555
O1B Sr1 1_555 1_555
O2A Sr1 1_555 1_555
O3B Sr1 1_555 1_555
O4_2 Sr1 1_555 1_555
O4B Sr1 1_555 1_555
O4 Sr1A_2 1_555 1_555
N1 C11 1_555 1_555
C7 C8 1_555 1_555
Sr1A O2A 1_555 1_555
Sr1A O4_2 1_555 1_555
Sr1B O1B 1_555 1_555
Sr1B O4B 1_555 1_555

#END
