
#######################################################################
#
#                 Cambridge Crystallographic Data Centre
#                                CCDC 
#
#######################################################################
#
# If this CIF has been generated from an entry in the Cambridge 
# Structural Database, then it will include bibliographic, chemical, 
# crystal, experimental, refinement or atomic coordinate data resulting 
# from the CCDC's data processing and validation procedures.
#
#######################################################################

data_NOCMAU
_symmetry_cell_setting           orthorhombic
_symmetry_space_group_name_H-M   'P 21 21 21'
_symmetry_Int_Tables_number      19
_space_group_name_Hall           'P 2ac 2ab'
loop_
_symmetry_equiv_pos_site_id
_symmetry_equiv_pos_as_xyz
1 x,y,z
2 1/2-x,-y,1/2+z
3 1/2+x,1/2-y,-z
4 -x,1/2+y,1/2-z
_cell_length_a                   7.1452(8)
_cell_length_b                   10.1443(11)
_cell_length_c                   20.695(2)
_cell_angle_alpha                90
_cell_angle_beta                 90
_cell_angle_gamma                90
_cell_volume                     1500.04
loop_
_atom_site_label
_atom_site_type_symbol
_atom_site_fract_x
_atom_site_fract_y
_atom_site_fract_z
Sr1 Sr 0.34958(3) 0.18385(2) 0.998510(13)
N1 N 0.2731(4) 0.6256(3) 1.05336(13)
O1 O 0.5469(3) 0.3245(3) 0.92763(9)
O2 O 0.7540(3) 0.4832(3) 0.91241(12)
O3 O -0.2404(4) 0.5306(3) 0.59256(13)
O4 O -0.0474(3) 0.6989(3) 0.57812(9)
O5 O 0.1713(3) 0.4295(2) 1.01208(10)
C1 C 0.6074(4) 0.4256(3) 0.89737(14)
C2 C 0.4935(4) 0.4760(3) 0.84132(14)
C3 C 0.3170(5) 0.4270(3) 0.82996(14)
H1 H 0.2660 0.3629 0.8584
C4 C 0.2103(4) 0.4709(3) 0.77639(15)
C5 C 0.0312(5) 0.4173(4) 0.76227(16)
H2 H -0.0218 0.3531 0.7902
C6 C -0.0650(5) 0.4572(4) 0.70897(16)
H3 H -0.1832 0.4189 0.6994
C7 C 0.0095(4) 0.5556(3) 0.66747(14)
C8 C -0.1000(4) 0.5978(4) 0.60884(14)
C9 C 0.1816(5) 0.6099(3) 0.68019(14)
H4 H 0.2305 0.6760 0.6524
C10 C 0.2874(5) 0.5679(3) 0.73488(15)
C11 C 0.4691(5) 0.6184(4) 0.74798(15)
H5 H 0.5211 0.6843 0.7208
C12 C 0.5697(5) 0.5721(4) 0.79975(14)
H6 H 0.6920 0.6052 0.8076
C13 C 0.2850(4) 0.5220(3) 1.01583(14)
H7 H 0.3918 0.5169 0.9886
C14 C 0.1161(5) 0.6460(4) 1.09820(18)
H8 H 0.0218 0.5772 1.0913
H9 H 0.0600 0.7327 1.0903
H10 H 0.1618 0.6416 1.1428
C15 C 0.4246(5) 0.7232(4) 1.0564(2)
H11 H 0.5221 0.6999 1.0251
H12 H 0.4781 0.7240 1.1000
H13 H 0.3747 0.8107 1.0462
Sr1B Sr 0.84958(3) 0.31615(2) 1.001490(13)
Sr1C Sr -0.34958(3) 0.68385(2) 0.501490(13)
Sr1A Sr 0.15042(3) 0.81615(2) 0.498510(13)
Sr1B_2 Sr -0.15042(3) 0.31615(2) 1.001490(13)
O1B O 0.0469(3) 0.1755(3) 1.07237(9)
O2B O 0.2540(3) 0.0168(3) 1.08759(12)
O3C O 0.2404(4) 0.0306(3) 0.90744(13)
O4A O 0.5474(3) 0.3011(3) 1.07812(9)
O4C O 0.0474(3) 0.1989(3) 0.92188(9)
O5B O 0.6713(3) 0.0705(2) 0.98792(10)
loop_
_geom_bond_atom_site_label_1
_geom_bond_atom_site_label_2
_geom_bond_site_symmetry_1
_geom_bond_site_symmetry_2
Sr1 O1 1_555 1_555
N1 C13 1_555 1_555
O1 C1 1_555 1_555
O2 C1 1_555 1_555
O3 C8 1_555 1_555
O4 C8 1_555 1_555
O5 Sr1 1_555 1_555
C1 C2 1_555 1_555
C2 C3 1_555 1_555
C3 H1 1_555 1_555
C4 C3 1_555 1_555
C5 C4 1_555 1_555
H2 C5 1_555 1_555
C6 C5 1_555 1_555
H3 C6 1_555 1_555
C7 C6 1_555 1_555
C8 C7 1_555 1_555
C9 C7 1_555 1_555
H4 C9 1_555 1_555
C10 C4 1_555 1_555
C11 C10 1_555 1_555
H5 C11 1_555 1_555
C12 C2 1_555 1_555
H6 C12 1_555 1_555
C13 O5 1_555 1_555
H7 C13 1_555 1_555
C14 N1 1_555 1_555
H8 C14 1_555 1_555
H9 C14 1_555 1_555
H10 C14 1_555 1_555
C15 N1 1_555 1_555
H11 C15 1_555 1_555
H12 C15 1_555 1_555
H13 C15 1_555 1_555
Sr1B O1 1_555 1_555
Sr1C O3 1_555 1_555
Sr1A O4 1_555 1_555
Sr1B_2 O5 1_555 1_555
O1B Sr1 1_555 1_555
O2B Sr1 1_555 1_555
O3C Sr1 1_555 1_555
O4A Sr1 1_555 1_555
O4C Sr1 1_555 1_555
O5B Sr1 1_555 1_555
O2 Sr1B 1_555 1_555
O4 Sr1C 1_555 1_555
C9 C10 1_555 1_555
C11 C12 1_555 1_555
Sr1B O4A 1_555 1_555
Sr1B O5B 1_555 1_555
Sr1B_2 O1B 1_555 1_555
Sr1B_2 O4C 1_555 1_555

#END
