
#######################################################################
#
#                 Cambridge Crystallographic Data Centre
#                                CCDC 
#
#######################################################################
#
# If this CIF has been generated from an entry in the Cambridge 
# Structural Database, then it will include bibliographic, chemical, 
# crystal, experimental, refinement or atomic coordinate data resulting 
# from the CCDC's data processing and validation procedures.
#
#######################################################################

data_NOCPUR
_symmetry_cell_setting           monoclinic
_symmetry_space_group_name_H-M   'P 21/c'
_symmetry_Int_Tables_number      14
_space_group_name_Hall           '-P 2ybc'
loop_
_symmetry_equiv_pos_site_id
_symmetry_equiv_pos_as_xyz
1 x,y,z
2 -x,1/2+y,1/2-z
3 -x,-y,-z
4 x,1/2-y,1/2+z
_cell_length_a                   14.280(3)
_cell_length_b                   6.9480(14)
_cell_length_c                   13.662(3)
_cell_angle_alpha                90
_cell_angle_beta                 112.380(3)
_cell_angle_gamma                90
_cell_volume                     1253.41
loop_
_atom_site_label
_atom_site_type_symbol
_atom_site_fract_x
_atom_site_fract_y
_atom_site_fract_z
La1 La 0.368650(11) -0.59166(2) 0.536090(12)
O1 O 0.45862(15) -0.3325(3) 0.47859(16)
O2 O 0.34548(17) 0.1710(3) 0.20476(17)
O3 O 0.34385(17) 0.2860(3) 0.35458(17)
O4 O 0.18053(18) -0.6431(3) 0.4827(2)
O5 O 0.33538(18) -0.2688(3) 0.61413(18)
O6 O 0.52395(17) -0.5160(3) 0.70965(18)
O7 O 0.26411(17) -0.9166(3) 0.5223(2)
O8 O 0.51502(18) -0.9040(3) 0.6150(2)
N1 N 0.2603(2) -0.3178(4) 0.3804(2)
C1 C 0.3134(2) -0.1730(4) 0.3615(2)
C2 C 0.2671(2) -0.0150(4) 0.2982(2)
C3 C 0.1619(2) -0.0126(5) 0.2505(3)
H1 H 0.1286 0.0898 0.2075
C4 C 0.1077(3) -0.1641(5) 0.2677(3)
H2 H 0.0374 -0.1662 0.2356
C5 C 0.1591(2) -0.3126(5) 0.3333(3)
H3 H 0.1219 -0.4134 0.3452
C6 C 0.4266(2) -0.1964(4) 0.4120(2)
C7 C 0.3249(2) 0.1583(4) 0.2853(2)
C8 C 0.0856(3) -1.1127(4) 0.5189(3)
H4 H 0.1429 -1.1885 0.5325
C9 C 0.0897(2) -0.9155(4) 0.5031(3)
C10 C 0.0041(2) -0.8047(5) 0.4857(3)
H5 H 0.0071 -0.6724 0.4770
C11 C 0.1841(2) -0.8207(4) 0.5029(2)
H6 H 0.308(3) -0.151(3) 0.581(3)
H7 H 0.375(4) -0.227(8) 0.6829(19)
H8 H 0.509(4) -0.471(7) 0.767(3)
H9 H 0.576(3) -0.434(6) 0.709(5)
La1B La 0.631350(11) -0.40834(2) 0.463910(12)
La1A La 0.631350(11) -1.09166(2) 0.963910(12)
La1C La 0.368650(11) 0.09166(2) 0.036090(12)
La1_2 La 0.368650(11) 0.40834(2) 0.536090(12)
La1B_2 La 0.631350(11) -1.40834(2) 0.463910(12)
La1B_3 La -0.368650(11) -1.40834(2) 0.463910(12)
O1B O 0.54138(15) -0.6675(3) 0.52141(16)
O2A O 0.65452(17) -0.3290(3) 0.29524(17)
O2C O 0.34548(17) -0.6710(3) 0.70476(17)
O2B O 0.65452(17) -1.1710(3) 0.79524(17)
O3B O 0.65615(17) -0.2860(3) 0.64542(17)
O3_2 O 0.34385(17) -0.7140(3) 0.35458(17)
O3B_2 O 0.65615(17) -1.2860(3) 0.64542(17)
O4B O 0.81947(18) -0.3569(3) 0.5173(2)
O4B_2 O -0.18053(18) -1.3569(3) 0.5173(2)
O5B O 0.66462(18) -0.7312(3) 0.38587(18)
O6B O 0.47605(17) -0.4840(3) 0.29035(18)
O7B O 0.73589(17) -0.0834(3) 0.4777(2)
O7B_2 O -0.26411(17) -1.0834(3) 0.4777(2)
O8B O 0.48498(18) -0.0960(3) 0.3850(2)
N1B N 0.7397(2) -0.6822(4) 0.6196(2)
C1B C 0.6866(2) -0.8270(4) 0.6385(2)
C2B C 0.7329(2) -0.9850(4) 0.7018(2)
C3B C 0.8381(2) -0.9874(5) 0.7495(3)
H1B H 0.8714 -1.0898 0.7925
C4B C 0.8923(3) -0.8359(5) 0.7323(3)
H2B H 0.9626 -0.8338 0.7644
C5B C 0.8409(2) -0.6874(5) 0.6667(3)
H3B H 0.8781 -0.5866 0.6548
C6B C 0.5734(2) -0.8036(4) 0.5880(2)
C7B C 0.6751(2) -1.1583(4) 0.7147(2)
C8B C -0.0856(3) -0.8873(4) 0.4811(3)
H4B H -0.1429 -0.8115 0.4675
C9B C -0.0897(2) -1.0845(4) 0.4969(3)
C10B C -0.0041(2) -1.1953(5) 0.5143(3)
H5B H -0.0071 -1.3276 0.5230
C11B C -0.1841(2) -1.1793(4) 0.4971(2)
H6B H 0.692(3) -0.849(3) 0.419(3)
H7B H 0.625(4) -0.773(8) 0.3171(19)
H8B H 0.491(4) -0.529(7) 0.233(3)
H9B H 0.424(3) -0.566(6) 0.291(5)
loop_
_geom_bond_atom_site_label_1
_geom_bond_atom_site_label_2
_geom_bond_site_symmetry_1
_geom_bond_site_symmetry_2
La1 O1 1_555 1_555
O1 C6 1_555 1_555
O2 C7 1_555 1_555
O3 C7 1_555 1_555
O4 La1 1_555 1_555
O5 La1 1_555 1_555
O6 La1 1_555 1_555
O7 La1 1_555 1_555
O8 La1 1_555 1_555
N1 La1 1_555 1_555
C1 N1 1_555 1_555
C2 C1 1_555 1_555
C3 C2 1_555 1_555
H1 C3 1_555 1_555
C4 C3 1_555 1_555
H2 C4 1_555 1_555
C5 N1 1_555 1_555
H3 C5 1_555 1_555
C6 C1 1_555 1_555
C7 C2 1_555 1_555
C8 H4 1_555 1_555
C9 C8 1_555 1_555
C10 C9 1_555 1_555
H5 C10 1_555 1_555
C11 O4 1_555 1_555
H6 O5 1_555 1_555
H7 O5 1_555 1_555
H8 O6 1_555 1_555
H9 O6 1_555 1_555
La1B O1 1_555 1_555
La1A O2B 1_555 1_555
La1C O2 1_555 1_555
La1_2 O3 1_555 1_555
La1B_2 O3B_2 1_555 1_555
La1B_3 O4B_2 1_555 1_555
O1B La1 1_555 1_555
O2A La1B 1_555 1_555
O2C La1 1_555 1_555
O2B C7B 1_555 1_555
O3B La1B 1_555 1_555
O3_2 La1 1_555 1_555
O3B_2 C7B 1_555 1_555
O4B La1B 1_555 1_555
O4B_2 C11B 1_555 1_555
O5B La1B 1_555 1_555
O6B La1B 1_555 1_555
O7B La1B 1_555 1_555
O7B_2 La1B_3 1_555 1_555
O8B C6 1_555 1_555
N1B La1B 1_555 1_555
C1B N1B 1_555 1_555
C2B C1B 1_555 1_555
C3B C2B 1_555 1_555
H1B C3B 1_555 1_555
C4B C3B 1_555 1_555
H2B C4B 1_555 1_555
C5B N1B 1_555 1_555
H3B C5B 1_555 1_555
C6B O8 1_555 1_555
C7B C2B 1_555 1_555
C8B C10 1_555 1_555
H4B C8B 1_555 1_555
C9B C8B 1_555 1_555
C10B C8 1_555 1_555
H5B C10B 1_555 1_555
C11B O7B_2 1_555 1_555
H6B O5B 1_555 1_555
H7B O5B 1_555 1_555
H8B O6B 1_555 1_555
H9B O6B 1_555 1_555
O7 C11 1_555 1_555
C4 C5 1_555 1_555
C9 C11 1_555 1_555
La1B O1B 1_555 1_555
La1B O8B 1_555 1_555
O1B C6B 1_555 1_555
C1B C6B 1_555 1_555
C4B C5B 1_555 1_555
C9B C10B 1_555 1_555
C9B C11B 1_555 1_555

#END
