
#######################################################################
#
#                 Cambridge Crystallographic Data Centre
#                                CCDC 
#
#######################################################################
#
# If this CIF has been generated from an entry in the Cambridge 
# Structural Database, then it will include bibliographic, chemical, 
# crystal, experimental, refinement or atomic coordinate data resulting 
# from the CCDC's data processing and validation procedures.
#
#######################################################################

data_NODDAM
_symmetry_cell_setting           monoclinic
_symmetry_space_group_name_H-M   'P 21/c'
_symmetry_Int_Tables_number      14
_space_group_name_Hall           '-P 2ybc'
loop_
_symmetry_equiv_pos_site_id
_symmetry_equiv_pos_as_xyz
1 x,y,z
2 -x,1/2+y,1/2-z
3 -x,-y,-z
4 x,1/2-y,1/2+z
_cell_length_a                   7.4356(15)
_cell_length_b                   15.585(3)
_cell_length_c                   6.1639(12)
_cell_angle_alpha                90
_cell_angle_beta                 102.11(3)
_cell_angle_gamma                90
_cell_volume                     698.401
loop_
_atom_site_label
_atom_site_type_symbol
_atom_site_fract_x
_atom_site_fract_y
_atom_site_fract_z
Zn1 Zn 0.11480(5) 0.71633(2) 0.06664(6)
N1 N 0.2806(5) 0.7217(2) -0.1782(6)
N2 N 0.4226(4) 0.6846(2) -0.1896(5)
N3 N 0.5544(5) 0.6491(2) -0.1986(6)
N4 N -0.0587(5) 0.7751(2) -0.1899(5)
N5 N -0.1973(4) 0.8149(2) -0.1843(5)
N6 N -0.3289(5) 0.8533(2) -0.1832(6)
N7 N 0.0596(4) 0.5841(2) 0.0317(5)
C1 C 0.1226(5) 0.5240(2) 0.1875(5)
C2 C -0.0620(5) 0.5603(2) -0.1510(6)
H1 H -0.1075 0.6016 -0.2573
C3 C 0.2573(5) 0.5503(2) 0.3921(6)
H2 H 0.3545 0.5830 0.3514
H3 H 0.3079 0.5001 0.4726
H4 H 0.1961 0.5847 0.4838
Zn1C Zn 0.11480(5) 0.78367(2) 0.56664(6)
Zn1C_2 Zn 0.11480(5) 0.78367(2) -0.43336(6)
Zn1B Zn -0.11480(5) 0.28367(2) -0.06664(6)
N1C N 0.2806(5) 0.7783(2) 0.3218(6)
N1_2 N 0.2806(5) 0.7217(2) 0.8218(6)
N2C N 0.4226(4) 0.8154(2) 0.3104(5)
N3C N 0.5544(5) 0.8509(2) 0.3014(6)
N4C N -0.0587(5) 0.7249(2) 0.3101(5)
N4_2 N -0.0587(5) 0.7751(2) 0.8101(5)
N5C N -0.1973(4) 0.6851(2) 0.3157(5)
N6C N -0.3289(5) 0.6467(2) 0.3168(6)
N7B N -0.0596(4) 0.4159(2) -0.0317(5)
N7C N 0.0596(4) 0.9159(2) 0.5317(5)
C1B C -0.1226(5) 0.4760(2) -0.1875(5)
C2B C 0.0620(5) 0.4397(2) 0.1510(6)
H1B H 0.1075 0.3984 0.2573
C3B C -0.2573(5) 0.4497(2) -0.3921(6)
H2B H -0.3545 0.4170 -0.3514
H3B H -0.3079 0.4999 -0.4726
H4B H -0.1961 0.4153 -0.4838
loop_
_geom_bond_atom_site_label_1
_geom_bond_atom_site_label_2
_geom_bond_site_symmetry_1
_geom_bond_site_symmetry_2
Zn1 N1 1_555 1_555
N1 N2 1_555 1_555
N2 N3 1_555 1_555
N4 Zn1 1_555 1_555
N5 N4 1_555 1_555
N6 N5 1_555 1_555
N7 Zn1 1_555 1_555
C1 N7 1_555 1_555
C2 N7 1_555 1_555
H1 C2 1_555 1_555
C3 C1 1_555 1_555
H2 C3 1_555 1_555
H3 C3 1_555 1_555
H4 C3 1_555 1_555
Zn1C N1C 1_555 1_555
Zn1C_2 N1 1_555 1_555
Zn1B N7B 1_555 1_555
N1C Zn1 1_555 1_555
N1_2 Zn1C 1_555 1_555
N2C N1C 1_555 1_555
N3C N2C 1_555 1_555
N4C Zn1 1_555 1_555
N4_2 Zn1C 1_555 1_555
N5C N4C 1_555 1_555
N6C N5C 1_555 1_555
N7B C1B 1_555 1_555
N7C Zn1C 1_555 1_555
C1B C2 1_555 1_555
C2B C1 1_555 1_555
H1B C2B 1_555 1_555
C3B C1B 1_555 1_555
H2B C3B 1_555 1_555
H3B C3B 1_555 1_555
H4B C3B 1_555 1_555
N4 Zn1C_2 1_555 1_555
Zn1C N4C 1_555 1_555
N7B C2B 1_555 1_555

#END
