
#######################################################################
#
#                 Cambridge Crystallographic Data Centre
#                                CCDC 
#
#######################################################################
#
# If this CIF has been generated from an entry in the Cambridge 
# Structural Database, then it will include bibliographic, chemical, 
# crystal, experimental, refinement or atomic coordinate data resulting 
# from the CCDC's data processing and validation procedures.
#
#######################################################################

data_NODJEX
_symmetry_cell_setting           monoclinic
_symmetry_space_group_name_H-M   'C 2/c'
_symmetry_Int_Tables_number      15
_space_group_name_Hall           '-C 2yn'
loop_
_symmetry_equiv_pos_site_id
_symmetry_equiv_pos_as_xyz
1 x,y,z
2 -x,y,1/2-z
3 1/2+x,1/2+y,z
4 1/2-x,1/2+y,1/2-z
5 -x,-y,-z
6 x,-y,1/2+z
7 1/2-x,1/2-y,-z
8 1/2+x,1/2-y,1/2+z
_cell_length_a                   17.8710(4)
_cell_length_b                   7.64260(10)
_cell_length_c                   14.8566(3)
_cell_angle_alpha                90
_cell_angle_beta                 101.9870(10)
_cell_angle_gamma                90
_cell_volume                     1984.88
loop_
_atom_site_label
_atom_site_type_symbol
_atom_site_fract_x
_atom_site_fract_y
_atom_site_fract_z
C1 C 1.11965(11) 0.1291(2) 0.11635(12)
C2 C 1.18536(13) 0.1380(3) 0.07799(14)
C3 C 1.26062(10) 0.1259(2) 0.22109(13)
C4 C 1.33416(13) 0.1230(3) 0.27985(18)
C5 C 1.34118(13) 0.1133(3) 0.37225(19)
C6 C 1.27625(13) 0.1057(3) 0.41130(15)
C7 C 1.20427(11) 0.1101(2) 0.35709(12)
C8 C 1.19518(9) 0.11900(15) 0.26074(10)
C9 C 0.95969(7) -0.24083(18) 0.11117(8)
C10 C 0.95736(8) -0.53449(17) 0.11017(9)
N1 N 1.12316(8) 0.12036(14) 0.20530(9)
N2 N 1.25504(11) 0.1353(3) 0.12876(13)
N3 N 0.96625(12) -0.10222(19) 0.14168(13)
N4 N 0.95120(13) -0.38701(14) 0.06704(10)
N5 N 0.96176(10) -0.6739(2) 0.14067(11)
Cd1 Cd 1.0000 0.113908(14) 0.2500
H1 H 1.066(3) 0.133(3) 0.074(3)
H2 H 1.1780(16) 0.145(3) 0.019(2)
H3 H 1.377(2) 0.128(2) 0.253(2)
H4 H 1.388(3) 0.117(3) 0.413(3)
H5 H 1.278(3) 0.105(4) 0.464(4)
H6 H 1.1581(18) 0.114(2) 0.378(2)
C1A C 0.88035(11) 0.1291(2) 0.38365(12)
C2A C 0.81464(13) 0.1380(3) 0.42201(14)
C3A C 0.73938(10) 0.1259(2) 0.27891(13)
C4A C 0.66584(13) 0.1230(3) 0.22015(18)
C5A C 0.65882(13) 0.1133(3) 0.12775(19)
C6A C 0.72375(13) 0.1057(3) 0.08870(15)
C7A C 0.79573(11) 0.1101(2) 0.14291(12)
C8A C 0.80482(9) 0.11900(15) 0.23926(10)
C9A C 1.04031(7) -0.24083(18) 0.38883(8)
C10A C 1.04264(8) -0.53449(17) 0.38983(9)
N1A N 0.87684(8) 0.12036(14) 0.29470(9)
N2A N 0.74496(11) 0.1353(3) 0.37124(13)
N3A N 1.03375(12) -0.10222(19) 0.35832(13)
N4A N 1.04880(13) -0.38701(14) 0.43296(10)
N5A N 1.03824(10) -0.6739(2) 0.35933(11)
H1A H 0.934(3) 0.133(3) 0.426(3)
H2A H 0.8220(16) 0.145(3) 0.481(2)
H3A H 0.623(2) 0.128(2) 0.247(2)
H4A H 0.612(3) 0.117(3) 0.087(3)
H5A H 0.722(3) 0.105(4) 0.036(4)
H6A H 0.8419(18) 0.114(2) 0.122(2)
N5_2 N 0.96176(10) 0.3261(2) 0.14067(11)
N5A_2 N 1.03824(10) 0.3261(2) 0.35933(11)
Cd1_2 Cd 1.0000 -0.886092(14) 0.2500
loop_
_geom_bond_atom_site_label_1
_geom_bond_atom_site_label_2
_geom_bond_site_symmetry_1
_geom_bond_site_symmetry_2
C1 C2 1_555 1_555
C2 N2 1_555 1_555
C3 C4 1_555 1_555
C4 C5 1_555 1_555
C5 C6 1_555 1_555
C6 C7 1_555 1_555
C7 C8 1_555 1_555
C8 C3 1_555 1_555
C9 N3 1_555 1_555
C10 N4 1_555 1_555
N1 C1 1_555 1_555
N2 C3 1_555 1_555
N3 Cd1 1_555 1_555
N4 C9 1_555 1_555
N5 C10 1_555 1_555
Cd1 N1 1_555 1_555
H1 C1 1_555 1_555
H2 C2 1_555 1_555
H3 C4 1_555 1_555
H4 C5 1_555 1_555
H5 C6 1_555 1_555
H6 C7 1_555 1_555
C1A C2A 1_555 1_555
C2A N2A 1_555 1_555
C3A C4A 1_555 1_555
C4A C5A 1_555 1_555
C5A C6A 1_555 1_555
C6A C7A 1_555 1_555
C7A C8A 1_555 1_555
C8A C3A 1_555 1_555
C9A N3A 1_555 1_555
C10A N4A 1_555 1_555
N1A Cd1 1_555 1_555
N2A C3A 1_555 1_555
N3A Cd1 1_555 1_555
N4A C9A 1_555 1_555
N5A C10A 1_555 1_555
H1A C1A 1_555 1_555
H2A C2A 1_555 1_555
H3A C4A 1_555 1_555
H4A C5A 1_555 1_555
H5A C6A 1_555 1_555
H6A C7A 1_555 1_555
N5_2 Cd1 1_555 1_555
N5A_2 Cd1 1_555 1_555
Cd1_2 N5 1_555 1_555
C8 N1 1_555 1_555
C1A N1A 1_555 1_555
C8A N1A 1_555 1_555
N5A Cd1_2 1_555 1_555

#END
