
#######################################################################
#
#                 Cambridge Crystallographic Data Centre
#                                CCDC 
#
#######################################################################
#
# If this CIF has been generated from an entry in the Cambridge 
# Structural Database, then it will include bibliographic, chemical, 
# crystal, experimental, refinement or atomic coordinate data resulting 
# from the CCDC's data processing and validation procedures.
#
#######################################################################

data_NODYUC
_symmetry_cell_setting           triclinic
_symmetry_space_group_name_H-M   'P -1'
_symmetry_Int_Tables_number      2
_space_group_name_Hall           '-P 1'
loop_
_symmetry_equiv_pos_site_id
_symmetry_equiv_pos_as_xyz
1 x,y,z
2 -x,-y,-z
_cell_length_a                   9.7732(6)
_cell_length_b                   10.5394(6)
_cell_length_c                   11.4624(7)
_cell_angle_alpha                105.6930(10)
_cell_angle_beta                 91.6000(10)
_cell_angle_gamma                114.3860(10)
_cell_volume                     1022.05
loop_
_atom_site_label
_atom_site_type_symbol
_atom_site_fract_x
_atom_site_fract_y
_atom_site_fract_z
Ni1 Ni 0.21253(4) 0.59149(4) 0.31356(4)
V1 V 0.21260(6) 0.86981(6) 0.58539(5)
O1 O 0.1929(3) 0.7227(3) 0.4765(2)
N1 N 0.2407(3) 0.7440(3) 0.2242(3)
C1 C -0.1134(4) 0.4841(4) 0.3459(3)
H1 H -0.0852 0.5024 0.4292
Ni2 Ni 0.0000 0.5000 0.0000
V2 V 0.16107(6) 0.26181(6) 0.38070(5)
O2 O 0.0288(3) 0.8582(3) 0.6113(3)
N2 N 0.1633(3) 0.7084(3) 0.1084(3)
C2 C -0.2478(4) 0.4224(4) 0.1702(3)
H2 H -0.3303 0.3895 0.1092
V3 V 0.62124(6) 0.77607(6) 0.39854(5)
O3 O 0.3210(3) 1.0307(3) 0.5431(3)
N3 N -0.1053(3) 0.4664(3) 0.1537(2)
C3 C 0.3431(4) 0.4164(4) 0.1387(3)
H3 H 0.4217 0.4382 0.1995
O4 O 0.3005(3) 0.8778(3) 0.7113(3)
N4 N -0.0198(3) 0.5049(3) 0.2664(2)
C4 C 0.1932(4) 0.3254(4) -0.0350(3)
H4 H 0.1484 0.2717 -0.1161
O5 O 0.1761(3) 0.4269(2) 0.3898(2)
N5 N -0.2563(3) 0.4321(3) 0.2893(3)
C5 C 0.2175(4) 0.8267(4) 0.0745(3)
H5 H 0.1854 0.8335 0.0002
O6 O 0.2906(4) 0.2841(3) 0.5041(3)
N6 N -0.3923(3) 0.3928(3) 0.3399(3)
H6 H -0.3969 0.3330 0.3796
H7 H -0.3924 0.4705 0.3892
C6 C 0.3373(4) 0.8827(4) 0.2566(3)
H8 H 0.4025 0.9354 0.3311
O7 O 0.2016(4) 0.1908(3) 0.2509(3)
N7 N 0.1460(3) 0.4102(3) 0.0411(3)
O8 O 0.4361(3) 0.6867(3) 0.3867(3)
N8 N 0.2403(3) 0.4667(3) 0.1528(2)
O9 O 0.6645(4) 0.7337(4) 0.2640(3)
N9 N 0.3174(3) 0.3284(3) 0.0229(3)
N10 N 0.4112(3) 0.2602(4) -0.0230(3)
H9 H 0.3822 0.1793 -0.0060
H10 H 0.4028 0.2425 -0.1013
N11 N 0.3270(3) 0.9370(3) 0.1639(3)
N12 N 0.4142(4) 1.0799(3) 0.1580(3)
H11 H 0.4270 1.0756 0.0833
H12 H 0.3668 1.1326 0.1831
Ni1A Ni -0.21253(4) 0.40851(4) -0.31356(4)
V1A V -0.21260(6) 0.13019(6) -0.58539(5)
O1A O -0.1929(3) 0.2773(3) -0.4765(2)
N1A N -0.2407(3) 0.2560(3) -0.2242(3)
C1A C 0.1134(4) 0.5159(4) -0.3459(3)
H1A H 0.0852 0.4976 -0.4292
V2A V -0.16107(6) 0.73819(6) -0.38070(5)
O2A O -0.0288(3) 0.1418(3) -0.6113(3)
N2A N -0.1633(3) 0.2916(3) -0.1084(3)
C2A C 0.2478(4) 0.5776(4) -0.1702(3)
H2A H 0.3303 0.6105 -0.1092
V3A V -0.62124(6) 0.22393(6) -0.39854(5)
O3A O -0.3210(3) -0.0307(3) -0.5431(3)
N3A N 0.1053(3) 0.5336(3) -0.1537(2)
C3A C -0.3431(4) 0.5836(4) -0.1387(3)
H3A H -0.4217 0.5618 -0.1995
O4A O -0.3005(3) 0.1222(3) -0.7113(3)
N4A N 0.0198(3) 0.4951(3) -0.2664(2)
C4A C -0.1932(4) 0.6746(4) 0.0350(3)
H4A H -0.1484 0.7283 0.1161
O5A O -0.1761(3) 0.5731(2) -0.3898(2)
N5A N 0.2563(3) 0.5679(3) -0.2893(3)
C5A C -0.2175(4) 0.1733(4) -0.0745(3)
H5A H -0.1854 0.1665 -0.0002
O6A O -0.2906(4) 0.7159(3) -0.5041(3)
N6A N 0.3923(3) 0.6072(3) -0.3399(3)
H6A H 0.3969 0.6670 -0.3796
H7A H 0.3924 0.5295 -0.3892
C6A C -0.3373(4) 0.1173(4) -0.2566(3)
H8A H -0.4025 0.0646 -0.3311
O7A O -0.2016(4) 0.8092(3) -0.2509(3)
N7A N -0.1460(3) 0.5898(3) -0.0411(3)
O8A O -0.4361(3) 0.3133(3) -0.3867(3)
N8A N -0.2403(3) 0.5333(3) -0.1528(2)
O9A O -0.6645(4) 0.2663(4) -0.2640(3)
N9A N -0.3174(3) 0.6716(3) -0.0229(3)
N10A N -0.4112(3) 0.7398(4) 0.0230(3)
H9A H -0.3822 0.8207 0.0060
H10A H -0.4028 0.7575 0.1013
N11A N -0.3270(3) 0.0630(3) -0.1639(3)
N12A N -0.4142(4) -0.0799(3) -0.1580(3)
H11A H -0.4270 -0.0756 -0.0833
H12A H -0.3668 -0.1326 -0.1831
V2_2 V 0.16107(6) 0.26181(6) -0.61930(5)
V2A_2 V -0.16107(6) 0.73819(6) 0.61930(5)
O2_2 O 0.0288(3) 0.8582(3) -0.3887(3)
O2A_2 O -0.0288(3) 0.1418(3) 0.3887(3)
V3_2 V -0.37876(6) -0.22393(6) -0.60146(5)
V3_3 V -0.37876(6) 0.77607(6) -0.60146(5)
V3A_2 V 0.37876(6) 0.22393(6) 0.60146(5)
V3A_3 V 0.37876(6) 1.22393(6) 0.60146(5)
O3_2 O -0.6790(3) 0.0307(3) -0.4569(3)
O3A_2 O 0.6790(3) 0.9693(3) 0.4569(3)
O6_2 O -0.7094(4) 0.2841(3) -0.4959(3)
O6A_2 O 0.7094(4) 0.7159(3) 0.4959(3)
O10 O 0.0084(7) 0.8596(7) 0.3063(6)
H13 H 0.0994 0.8825 0.2931
H14 H 0.0002 0.9386 0.3374
O11 O 0.8956(4) 0.0318(4) 0.0946(3)
H15 H 0.9439 0.0872 0.1658
H16 H 0.8344 -0.0502 0.1014
loop_
_geom_bond_atom_site_label_1
_geom_bond_atom_site_label_2
_geom_bond_site_symmetry_1
_geom_bond_site_symmetry_2
Ni1 O1 1_555 1_555
V1 O1 1_555 1_555
N1 Ni1 1_555 1_555
C1 H1 1_555 1_555
Ni2 N2 1_555 1_555
V2 O5 1_555 1_555
O2 V1 1_555 1_555
N2 N1 1_555 1_555
C2 H2 1_555 1_555
V3 O8 1_555 1_555
O3 V1 1_555 1_555
N3 Ni2 1_555 1_555
C3 H3 1_555 1_555
O4 V1 1_555 1_555
N4 Ni1 1_555 1_555
C4 H4 1_555 1_555
O5 Ni1 1_555 1_555
N5 C1 1_555 1_555
C5 N2 1_555 1_555
H5 C5 1_555 1_555
O6 V2 1_555 1_555
N6 N5 1_555 1_555
H6 N6 1_555 1_555
H7 N6 1_555 1_555
C6 N1 1_555 1_555
H8 C6 1_555 1_555
O7 V2 1_555 1_555
N7 Ni2 1_555 1_555
O8 Ni1 1_555 1_555
N8 Ni1 1_555 1_555
O9 V3 1_555 1_555
N9 C3 1_555 1_555
N10 N9 1_555 1_555
H9 N10 1_555 1_555
H10 N10 1_555 1_555
N11 C5 1_555 1_555
N12 N11 1_555 1_555
H11 N12 1_555 1_555
H12 N12 1_555 1_555
O10 H13 1_555 1_555
H14 O10 1_555 1_555
O11 H15 1_555 1_555
H16 O11 1_555 1_555
Ni1A O1A 1_555 1_555
V1A O1A 1_555 1_555
N1A Ni1A 1_555 1_555
C1A H1A 1_555 1_555
V2A O5A 1_555 1_555
O2A V1A 1_555 1_555
N2A Ni2 1_555 1_555
C2A H2A 1_555 1_555
V3A O8A 1_555 1_555
O3A V1A 1_555 1_555
N3A Ni2 1_555 1_555
C3A H3A 1_555 1_555
O4A V1A 1_555 1_555
N4A Ni1A 1_555 1_555
C4A H4A 1_555 1_555
O5A Ni1A 1_555 1_555
N5A C1A 1_555 1_555
C5A N2A 1_555 1_555
H5A C5A 1_555 1_555
O6A V2A 1_555 1_555
N6A N5A 1_555 1_555
H6A N6A 1_555 1_555
H7A N6A 1_555 1_555
C6A N1A 1_555 1_555
H8A C6A 1_555 1_555
O7A V2A 1_555 1_555
N7A Ni2 1_555 1_555
O8A Ni1A 1_555 1_555
N8A Ni1A 1_555 1_555
O9A V3A 1_555 1_555
N9A C3A 1_555 1_555
N10A N9A 1_555 1_555
H9A N10A 1_555 1_555
H10A N10A 1_555 1_555
N11A C5A 1_555 1_555
N12A N11A 1_555 1_555
H11A N12A 1_555 1_555
H12A N12A 1_555 1_555
V2_2 O2A 1_555 1_555
V2A_2 O2 1_555 1_555
O2_2 V2A 1_555 1_555
O2A_2 V2 1_555 1_555
V3_2 O3A 1_555 1_555
V3_3 O6A 1_555 1_555
V3A_2 O6 1_555 1_555
V3A_3 O3 1_555 1_555
O3_2 V3A 1_555 1_555
O3A_2 V3 1_555 1_555
O6_2 V3A 1_555 1_555
O6A_2 V3 1_555 1_555
C1 N4 1_555 1_555
C2 N3 1_555 1_555
C2 N5 1_555 1_555
N3 N4 1_555 1_555
C3 N8 1_555 1_555
C4 N7 1_555 1_555
C4 N9 1_555 1_555
C6 N11 1_555 1_555
N7 N8 1_555 1_555
N1A N2A 1_555 1_555
C1A N4A 1_555 1_555
C2A N3A 1_555 1_555
C2A N5A 1_555 1_555
N3A N4A 1_555 1_555
C3A N8A 1_555 1_555
C4A N7A 1_555 1_555
C4A N9A 1_555 1_555
C6A N11A 1_555 1_555
N7A N8A 1_555 1_555

#END
