
#######################################################################
#
#                 Cambridge Crystallographic Data Centre
#                                CCDC 
#
#######################################################################
#
# If this CIF has been generated from an entry in the Cambridge 
# Structural Database, then it will include bibliographic, chemical, 
# crystal, experimental, refinement or atomic coordinate data resulting 
# from the CCDC's data processing and validation procedures.
#
#######################################################################

data_NODYOW
_symmetry_cell_setting           rhombohedral
_symmetry_space_group_name_H-M   'R -3'
_symmetry_Int_Tables_number      148
_space_group_name_Hall           '-R 3'
loop_
_symmetry_equiv_pos_site_id
_symmetry_equiv_pos_as_xyz
1 x,y,z
2 -y,x-y,z
3 -x+y,-x,z
4 2/3+x,1/3+y,1/3+z
5 2/3-y,1/3+x-y,1/3+z
6 2/3-x+y,1/3-x,1/3+z
7 1/3+x,2/3+y,2/3+z
8 1/3-y,2/3+x-y,2/3+z
9 1/3-x+y,2/3-x,2/3+z
10 -x,-y,-z
11 y,-x+y,-z
12 x-y,x,-z
13 1/3-x,2/3-y,2/3-z
14 1/3+y,2/3-x+y,2/3-z
15 1/3+x-y,2/3+x,2/3-z
16 2/3-x,1/3-y,1/3-z
17 2/3+y,1/3-x+y,1/3-z
18 2/3+x-y,1/3+x,1/3-z
_cell_length_a                   15.9628(9)
_cell_length_b                   15.9628(9)
_cell_length_c                   14.4867(16)
_cell_angle_alpha                90
_cell_angle_beta                 90
_cell_angle_gamma                120
_cell_volume                     3196.82
loop_
_atom_site_label
_atom_site_type_symbol
_atom_site_fract_x
_atom_site_fract_y
_atom_site_fract_z
Ni1 Ni 0.0000 0.0000 -0.25942(6)
V1 V -0.15211(6) -0.18561(6) -0.43062(5)
N1 N -0.1161(3) -0.0218(3) -0.1807(3)
O1 O -0.09379(13) -0.11320(13) -0.34388(13)
C1 C -0.20035(13) -0.03634(13) -0.20812(13)
Ni2 Ni 0.00000(13) 0.00000(13) 0.00000(13)
N2 N -0.11705(13) -0.02040(13) -0.08474(13)
O2 O -0.21039(13) -0.13825(13) -0.50244(13)
C2 C -0.20228(13) -0.03345(13) -0.05855(13)
H1 H -0.2222 -0.0351 0.0021
O3 O -0.2368(3) -0.2866(3) -0.3883(3)
N3 N -0.2558(3) -0.0440(4) -0.1353(4)
H2 H -0.3138 -0.0537 -0.1368
N4 N -0.2390(5) -0.0519(5) -0.2917(4)
H3 H -0.2069 -0.0536 -0.3386
H4 H -0.2962 -0.0604 -0.2990
V1A V 0.18561(6) 0.03350(8) -0.43062(5)
N1A N 0.0218(3) -0.0943(4) -0.1807(3)
O1A O 0.11320(13) 0.01941(18) -0.34388(13)
C1A C 0.03634(13) -0.16401(18) -0.20812(13)
N2A N 0.02040(13) -0.09665(18) -0.08474(13)
O2A O 0.13825(13) -0.07214(18) -0.50244(13)
C2A C 0.03345(13) -0.16883(18) -0.05855(13)
H1A H 0.0351 -0.1871 0.0021
O3A O 0.2866(3) 0.0498(4) -0.3883(3)
N3A N 0.0440(4) -0.2118(5) -0.1353(4)
H2A H 0.0537 -0.2601 -0.1368
N4A N 0.0519(5) -0.1871(7) -0.2917(4)
H3A H 0.0536 -0.1533 -0.3386
H4A H 0.0604 -0.2358 -0.2990
V1B V -0.03350(8) 0.15211(6) -0.43062(5)
N1B N 0.0943(4) 0.1161(3) -0.1807(3)
O1B O -0.01941(18) 0.09379(13) -0.34388(13)
C1B C 0.16401(18) 0.20035(13) -0.20812(13)
N2B N 0.09665(18) 0.11705(13) -0.08474(13)
O2B O 0.07214(18) 0.21039(13) -0.50244(13)
C2B C 0.16883(18) 0.20228(13) -0.05855(13)
H1B H 0.1871 0.2222 0.0021
O3B O -0.0498(4) 0.2368(3) -0.3883(3)
N3B N 0.2118(5) 0.2558(3) -0.1353(4)
H2B H 0.2601 0.3138 -0.1368
N4B N 0.1871(7) 0.2390(5) -0.2917(4)
H3B H 0.1533 0.2069 -0.3386
H4B H 0.2358 0.2962 -0.2990
Ni1I Ni 0.0000 0.0000 -0.74058(6)
V1I V 0.15211(6) 0.18561(6) -0.56938(5)
N1I N 0.1161(3) 0.0218(3) -0.8193(3)
O1I O 0.09379(13) 0.11320(13) -0.65612(13)
C1I C 0.20035(13) 0.03634(13) -0.79188(13)
N2I N 0.11705(13) 0.02040(13) -0.91526(13)
O2I O 0.21039(13) 0.13825(13) -0.49756(13)
C2I C 0.20228(13) 0.03345(13) -0.94145(13)
H1I H 0.2222 0.0351 -1.0021
O3I O 0.2368(3) 0.2866(3) -0.6117(3)
N3I N 0.2558(3) 0.0440(4) -0.8647(4)
H2I H 0.3138 0.0537 -0.8632
N4I N 0.2390(5) 0.0519(5) -0.7083(4)
H3I H 0.2069 0.0536 -0.6614
H4I H 0.2962 0.0604 -0.7010
V1J V -0.18561(6) -0.03350(8) -0.56938(5)
N1J N -0.0218(3) 0.0943(4) -0.8193(3)
O1J O -0.11320(13) -0.01941(18) -0.65612(13)
C1J C -0.03634(13) 0.16401(18) -0.79188(13)
N2J N -0.02040(13) 0.09665(18) -0.91526(13)
O2J O -0.13825(13) 0.07214(18) -0.49756(13)
C2J C -0.03345(13) 0.16883(18) -0.94145(13)
H1J H -0.0351 0.1871 -1.0021
O3J O -0.2866(3) -0.0498(4) -0.6117(3)
N3J N -0.0440(4) 0.2118(5) -0.8647(4)
H2J H -0.0537 0.2601 -0.8632
N4J N -0.0519(5) 0.1871(7) -0.7083(4)
H3J H -0.0536 0.1533 -0.6614
H4J H -0.0604 0.2358 -0.7010
V1K V 0.03350(8) -0.15211(6) -0.56938(5)
N1K N -0.0943(4) -0.1161(3) -0.8193(3)
O1K O 0.01941(18) -0.09379(13) -0.65612(13)
C1K C -0.16401(18) -0.20035(13) -0.79188(13)
N2K N -0.09665(18) -0.11705(13) -0.91526(13)
O2K O -0.07214(18) -0.21039(13) -0.49756(13)
C2K C -0.16883(18) -0.20228(13) -0.94145(13)
H1K H -0.1871 -0.2222 -1.0021
O3K O 0.0498(4) -0.2368(3) -0.6117(3)
N3K N -0.2118(5) -0.2558(3) -0.8647(4)
H2K H -0.2601 -0.3138 -0.8632
N4K N -0.1871(7) -0.2390(5) -0.7083(4)
H3K H -0.1533 -0.2069 -0.6614
H4K H -0.2358 -0.2962 -0.7010
Ni2_2 Ni 0.00000(13) 0.00000(13) -1.00000(13)
N2I_2 N 0.11705(13) 0.02040(13) 0.08474(13)
N2J_2 N -0.02040(13) 0.09665(18) 0.08474(13)
N2K_2 N -0.09665(18) -0.11705(13) 0.08474(13)
H5 H -0.4101 -0.0186 -0.1227
H6 H -0.4678 -0.1155 -0.1046
O4 O -0.44392(13) -0.07384(13) -0.14761(13)
loop_
_geom_bond_atom_site_label_1
_geom_bond_atom_site_label_2
_geom_bond_site_symmetry_1
_geom_bond_site_symmetry_2
Ni1 N1 1_555 1_555
V1 O1 1_555 1_555
N1 C1 1_555 1_555
O1 Ni1 1_555 1_555
C1 N3 1_555 1_555
Ni2 N2 1_555 1_555
N2 N1 1_555 1_555
O2 V1 1_555 1_555
C2 N2 1_555 1_555
H1 C2 1_555 1_555
O3 V1 1_555 1_555
N3 C2 1_555 1_555
H2 N3 1_555 1_555
N4 C1 1_555 1_555
H3 N4 1_555 1_555
H4 N4 1_555 1_555
H5 O4 1_555 1_555
H6 O4 1_555 1_555
V1A O1A 1_555 1_555
N1A Ni1 1_555 1_555
O1A Ni1 1_555 1_555
C1A N1A 1_555 1_555
N2A Ni2 1_555 1_555
O2A V1A 1_555 1_555
C2A N2A 1_555 1_555
H1A C2A 1_555 1_555
O3A V1A 1_555 1_555
N3A C1A 1_555 1_555
H2A N3A 1_555 1_555
N4A C1A 1_555 1_555
H3A N4A 1_555 1_555
H4A N4A 1_555 1_555
V1B O1B 1_555 1_555
N1B Ni1 1_555 1_555
O1B Ni1 1_555 1_555
C1B N1B 1_555 1_555
N2B Ni2 1_555 1_555
O2B V1B 1_555 1_555
C2B N2B 1_555 1_555
H1B C2B 1_555 1_555
O3B V1B 1_555 1_555
N3B C1B 1_555 1_555
H2B N3B 1_555 1_555
N4B C1B 1_555 1_555
H3B N4B 1_555 1_555
H4B N4B 1_555 1_555
Ni1I N1I 1_555 1_555
V1I O2B 1_555 1_555
N1I C1I 1_555 1_555
O1I Ni1I 1_555 1_555
C1I N3I 1_555 1_555
N2I N1I 1_555 1_555
O2I V1A 1_555 1_555
C2I N2I 1_555 1_555
H1I C2I 1_555 1_555
O3I V1I 1_555 1_555
N3I C2I 1_555 1_555
H2I N3I 1_555 1_555
N4I C1I 1_555 1_555
H3I N4I 1_555 1_555
H4I N4I 1_555 1_555
V1J O2 1_555 1_555
N1J Ni1I 1_555 1_555
O1J Ni1I 1_555 1_555
C1J N1J 1_555 1_555
N2J N1J 1_555 1_555
O2J V1B 1_555 1_555
C2J N2J 1_555 1_555
H1J C2J 1_555 1_555
O3J V1J 1_555 1_555
N3J C1J 1_555 1_555
H2J N3J 1_555 1_555
N4J C1J 1_555 1_555
H3J N4J 1_555 1_555
H4J N4J 1_555 1_555
V1K O2A 1_555 1_555
N1K Ni1I 1_555 1_555
O1K Ni1I 1_555 1_555
C1K N1K 1_555 1_555
N2K N1K 1_555 1_555
O2K V1 1_555 1_555
C2K N2K 1_555 1_555
H1K C2K 1_555 1_555
O3K V1K 1_555 1_555
N3K C1K 1_555 1_555
H2K N3K 1_555 1_555
N4K C1K 1_555 1_555
H3K N4K 1_555 1_555
H4K N4K 1_555 1_555
Ni2_2 N2I 1_555 1_555
N2I_2 Ni2 1_555 1_555
N2J_2 Ni2 1_555 1_555
N2K_2 Ni2 1_555 1_555
N1A N2A 1_555 1_555
C2A N3A 1_555 1_555
N1B N2B 1_555 1_555
C2B N3B 1_555 1_555
V1I O1I 1_555 1_555
V1I O2I 1_555 1_555
V1J O1J 1_555 1_555
V1J O2J 1_555 1_555
N2J Ni2_2 1_555 1_555
C2J N3J 1_555 1_555
V1K O1K 1_555 1_555
V1K O2K 1_555 1_555
N2K Ni2_2 1_555 1_555
C2K N3K 1_555 1_555

#END
