
#######################################################################
#
#                 Cambridge Crystallographic Data Centre
#                                CCDC 
#
#######################################################################
#
# If this CIF has been generated from an entry in the Cambridge 
# Structural Database, then it will include bibliographic, chemical, 
# crystal, experimental, refinement or atomic coordinate data resulting 
# from the CCDC's data processing and validation procedures.
#
#######################################################################

data_NOFJAU
_symmetry_cell_setting           orthorhombic
_symmetry_space_group_name_H-M   'F d d d'
_symmetry_Int_Tables_number      70
_space_group_name_Hall           '-F 2uv 2vw'
loop_
_symmetry_equiv_pos_site_id
_symmetry_equiv_pos_as_xyz
1 x,y,z
2 x,1/2+y,1/2+z
3 1/2+x,y,1/2+z
4 1/2+x,1/2+y,z
5 x,1/4-y,1/4-z
6 1/4-x,y,1/4-z
7 1/4-x,1/4-y,z
8 x,3/4-y,3/4-z
9 1/2+x,3/4-y,1/4-z
10 1/2+x,1/4-y,3/4-z
11 3/4-x,y,3/4-z
12 3/4-x,1/2+y,1/4-z
13 1/4-x,1/2+y,3/4-z
14 3/4-x,1/4-y,1/2+z
15 3/4-x,3/4-y,z
16 1/4-x,3/4-y,1/2+z
17 -x,-y,-z
18 -x,1/2-y,1/2-z
19 1/2-x,-y,1/2-z
20 1/2-x,1/2-y,-z
21 -x,3/4+y,3/4+z
22 3/4+x,-y,3/4+z
23 3/4+x,3/4+y,-z
24 -x,1/4+y,1/4+z
25 1/2-x,1/4+y,3/4+z
26 1/2-x,3/4+y,1/4+z
27 1/4+x,-y,1/4+z
28 1/4+x,1/2-y,3/4+z
29 3/4+x,1/2-y,1/4+z
30 1/4+x,3/4+y,1/2-z
31 1/4+x,1/4+y,-z
32 3/4+x,1/4+y,1/2-z
_cell_length_a                   6.9317(13)
_cell_length_b                   20.885(5)
_cell_length_c                   36.459(5)
_cell_angle_alpha                90
_cell_angle_beta                 90
_cell_angle_gamma                90
_cell_volume                     5278.12
loop_
_atom_site_label
_atom_site_type_symbol
_atom_site_fract_x
_atom_site_fract_y
_atom_site_fract_z
Pb1 Pb 0.6250 0.1250 0.1250
Au1 Au 0.8750 0.3750 0.143078(16)
N1 N 0.8460(19) 0.2266(6) 0.1458(3)
N2 N 0.4558(15) 0.0915(5) 0.0604(3)
C1 C 0.864(2) 0.2812(9) 0.1436(3)
C2 C 0.288(2) 0.0593(8) 0.0599(4)
C3 C 0.201(2) 0.0387(10) 0.0274(4)
C4 C 0.282(2) 0.0540(10) -0.0045(4)
C5 C 0.450(2) 0.0917(9) -0.0057(3)
C6 C 0.5340(17) 0.1081(6) 0.0282(3)
C7 C 0.542(2) 0.1089(8) -0.0392(3)
H1 H 0.2300 0.0495 0.0822
H2 H 0.0859 0.0160 0.0280
H3 H 0.2211 0.0427 -0.0264
H4 H 0.4903 0.0948 -0.0613
Au1D Au 0.8750 -0.1250 0.106922(16)
Au1E Au 0.3750 0.3750 0.106922(16)
Au1C Au 0.3750 -0.1250 0.143078(16)
N1D N 0.8460(19) 0.0234(6) 0.1042(3)
N1E N 0.4040(19) 0.2266(6) 0.1042(3)
N1F N 0.4040(19) 0.0234(6) 0.1458(3)
N2D N 0.4558(15) 0.1585(5) 0.1896(3)
N2E N 0.7942(15) 0.0915(5) 0.1896(3)
N2F N 0.7942(15) 0.1585(5) 0.0604(3)
C1N C 0.886(2) 0.4688(9) 0.1436(3)
C1D C 0.864(2) -0.0312(9) 0.1064(3)
C1E C 0.386(2) 0.2812(9) 0.1064(3)
C1F C 0.386(2) -0.0312(9) 0.1436(3)
C1K C 0.886(2) -0.2188(9) 0.1064(3)
C2D C 0.288(2) 0.1907(8) 0.1901(4)
C2E C 0.962(2) 0.0593(8) 0.1901(4)
C2F C 0.962(2) 0.1907(8) 0.0599(4)
C3D C 0.201(2) 0.2113(10) 0.2226(4)
C3E C 1.049(2) 0.0387(10) 0.2226(4)
C3F C 1.049(2) 0.2113(10) 0.0274(4)
C4F C 0.968(2) 0.1960(10) -0.0045(4)
C4D C 0.282(2) 0.1960(10) 0.2545(4)
C4E C 0.968(2) 0.0540(10) 0.2545(4)
C5F C 0.800(2) 0.1583(9) -0.0057(3)
C5D C 0.450(2) 0.1583(9) 0.2557(3)
C5E C 0.800(2) 0.0917(9) 0.2557(3)
C6F C 0.7160(17) 0.1419(6) 0.0282(3)
C6D C 0.5340(17) 0.1419(6) 0.2218(3)
C6E C 0.7160(17) 0.1081(6) 0.2218(3)
C7F C 0.708(2) 0.1411(8) -0.0392(3)
C7D C 0.542(2) 0.1411(8) 0.2892(3)
C7E C 0.708(2) 0.1089(8) 0.2892(3)
H1D H 0.2300 0.2005 0.1678
H1E H 1.0200 0.0495 0.1678
H1F H 1.0200 0.2005 0.0822
H2D H 0.0859 0.2340 0.2220
H2E H 1.1641 0.0160 0.2220
H2F H 1.1641 0.2340 0.0280
H3F H 1.0289 0.2073 -0.0264
H3D H 0.2211 0.2073 0.2764
H3E H 1.0289 0.0427 0.2764
H4F H 0.7597 0.1552 -0.0613
H4D H 0.4903 0.1552 0.3113
H4E H 0.7597 0.0948 0.3113
loop_
_geom_bond_atom_site_label_1
_geom_bond_atom_site_label_2
_geom_bond_site_symmetry_1
_geom_bond_site_symmetry_2
Pb1 N1 1_555 1_555
Au1 C1 1_555 1_555
N1 C1 1_555 1_555
N2 Pb1 1_555 1_555
C2 N2 1_555 1_555
C3 C2 1_555 1_555
C4 C3 1_555 1_555
C5 C4 1_555 1_555
C6 N2 1_555 1_555
C7 C5 1_555 1_555
H1 C2 1_555 1_555
H2 C3 1_555 1_555
H3 C4 1_555 1_555
H4 C7 1_555 1_555
Au1D C1D 1_555 1_555
Au1E C1E 1_555 1_555
Au1C C1F 1_555 1_555
N1D Pb1 1_555 1_555
N1E Pb1 1_555 1_555
N1F Pb1 1_555 1_555
N2D Pb1 1_555 1_555
N2E Pb1 1_555 1_555
N2F Pb1 1_555 1_555
C1N Au1 1_555 1_555
C1D N1D 1_555 1_555
C1E N1E 1_555 1_555
C1F N1F 1_555 1_555
C1K Au1D 1_555 1_555
C2D N2D 1_555 1_555
C2E N2E 1_555 1_555
C2F N2F 1_555 1_555
C3D C2D 1_555 1_555
C3E C2E 1_555 1_555
C3F C2F 1_555 1_555
C4F C3F 1_555 1_555
C4D C3D 1_555 1_555
C4E C3E 1_555 1_555
C5F C4F 1_555 1_555
C5D C4D 1_555 1_555
C5E C4E 1_555 1_555
C6F C6 1_555 1_555
C6D N2D 1_555 1_555
C6E N2E 1_555 1_555
C7F C7 1_555 1_555
C7D C5D 1_555 1_555
C7E C5E 1_555 1_555
H1D C2D 1_555 1_555
H1E C2E 1_555 1_555
H1F C2F 1_555 1_555
H2D C3D 1_555 1_555
H2E C3E 1_555 1_555
H2F C3F 1_555 1_555
H3F C4F 1_555 1_555
H3D C4D 1_555 1_555
H3E C4E 1_555 1_555
H4F C7F 1_555 1_555
H4D C7D 1_555 1_555
H4E C7E 1_555 1_555
C5 C6 1_555 1_555
N2F C6F 1_555 1_555
C5F C6F 1_555 1_555
C5F C7F 1_555 1_555
C5D C6D 1_555 1_555
C5E C6E 1_555 1_555
C6D C6E 1_555 1_555
C7D C7E 1_555 1_555

#END
