
#######################################################################
#
#                 Cambridge Crystallographic Data Centre
#                                CCDC 
#
#######################################################################
#
# If this CIF has been generated from an entry in the Cambridge 
# Structural Database, then it will include bibliographic, chemical, 
# crystal, experimental, refinement or atomic coordinate data resulting 
# from the CCDC's data processing and validation procedures.
#
#######################################################################

data_NOFQUW
_symmetry_cell_setting           triclinic
_symmetry_space_group_name_H-M   'P -1'
_symmetry_Int_Tables_number      2
_space_group_name_Hall           '-P 1'
loop_
_symmetry_equiv_pos_site_id
_symmetry_equiv_pos_as_xyz
1 x,y,z
2 -x,-y,-z
_cell_length_a                   7.1089(14)
_cell_length_b                   13.125(3)
_cell_length_c                   13.376(3)
_cell_angle_alpha                93.524(3)
_cell_angle_beta                 93.563(3)
_cell_angle_gamma                99.823(4)
_cell_volume                     1224.06
loop_
_atom_site_label
_atom_site_type_symbol
_atom_site_fract_x
_atom_site_fract_y
_atom_site_fract_z
Cu1 Cu 0.40100(3) 0.762030(15) 0.205986(13)
O1 O 0.2115(2) 0.62823(10) 0.19005(10)
O2 O 0.5888(2) 0.89690(11) 0.21424(10)
H1 H 0.662(3) 0.9074(19) 0.2639(12)
H2 H 0.655(3) 0.9011(19) 0.1672(12)
O3 O 0.1301(2) 0.83787(12) 0.19547(13)
H3 H 0.061(3) 0.7971(16) 0.2244(19)
H4 H 0.138(4) 0.8972(10) 0.217(2)
O4 O 0.3799(2) 0.50584(11) 0.23262(12)
O5 O 0.1507(3) 0.43001(13) 0.58186(12)
O6 O 0.6831(3) 0.66780(14) 0.21098(12)
H5 H 0.760(3) 0.684(2) 0.2581(16)
H6 H 0.630(4) 0.6092(12) 0.218(2)
O7 O 0.1167(3) 0.26153(12) 0.60369(11)
O8 O 0.1496(2) 0.03002(10) 0.28692(11)
O9 O 0.1278(3) 0.09869(13) 0.13961(12)
N1 N 0.3971(2) 0.77072(11) 0.35630(10)
N2 N 0.4027(2) 0.75675(12) 1.05636(10)
N3 N 0.0637(2) 0.37737(11) 0.27667(12)
C1 C 0.3694(3) 0.85901(14) 0.40493(13)
H7 H 0.3550 0.9151 0.3677
C2 C 0.3615(3) 0.87010(15) 0.50760(13)
H8 H 0.3424 0.9327 0.5384
C3 C 0.3820(2) 0.78760(15) 0.56481(12)
C4 C 0.4066(3) 0.69534(16) 0.51378(13)
H9 H 0.4173 0.6375 0.5491
C5 C 0.4150(3) 0.69019(14) 0.41118(13)
H10 H 0.4339 0.6285 0.3785
C6 C 0.3789(3) 0.80208(16) 0.67454(13)
H11 H 0.3582 0.8658 0.7017
C7 C 0.4037(3) 0.73027(17) 0.73738(14)
H12 H 0.4231 0.6665 0.7097
C8 C 0.4032(3) 0.74351(16) 0.84763(13)
C9 C 0.3675(3) 0.83186(17) 0.90002(14)
H13 H 0.3433 0.8883 0.8656
C10 C 0.3680(3) 0.83590(15) 1.00399(14)
H14 H 0.3434 0.8955 1.0382
C11 C 0.4364(3) 0.67126(16) 1.00568(13)
H15 H 0.4600 0.6158 1.0418
C12 C 0.4376(3) 0.66165(18) 0.90257(14)
H16 H 0.4612 0.6008 0.8702
C13 C 0.2300(3) 0.53862(13) 0.21324(13)
C14 C 0.0384(3) 0.46605(14) 0.21738(15)
H17 H -0.0522 0.5037 0.2477
H18 H -0.0128 0.4409 0.1498
C15 C 0.0749(3) 0.39240(14) 0.37757(14)
H19 H 0.0614 0.4564 0.4073
C16 C 0.1063(3) 0.31399(13) 0.43748(13)
C17 C 0.1236(2) 0.21893(13) 0.39075(13)
H20 H 0.1406 0.1642 0.4294
C18 C 0.1157(2) 0.20507(13) 0.28641(13)
C19 C 0.0869(2) 0.28699(13) 0.23014(13)
H21 H 0.0836 0.2795 0.1604
C20 C 0.1247(3) 0.33744(15) 0.55132(14)
C21 C 0.1344(3) 0.10246(14) 0.23222(14)
Cu1_2 Cu 0.40100(3) 0.762030(15) 1.205986(13)
N2_2 N 0.4027(2) 0.75675(12) 0.05636(10)
O10 O 0.0854(4) 0.3580(3) 0.97862(19)
H22 H -0.0151 0.3624 0.9424
H23 H 0.1749 0.3550 0.9399
O11 O 0.8197(3) 0.9282(2) 0.06433(14)
H24 H 0.7668 0.9422 0.0093
H25 H 0.9070 0.8939 0.0503
O12 O 0.8303(2) 0.93540(12) 0.38048(12)
H26 H 0.8706 0.8847 0.4060
H27 H 0.9265 0.9829 0.3763
loop_
_geom_bond_atom_site_label_1
_geom_bond_atom_site_label_2
_geom_bond_site_symmetry_1
_geom_bond_site_symmetry_2
Cu1 O1 1_555 1_555
O1 C13 1_555 1_555
O2 Cu1 1_555 1_555
H1 O2 1_555 1_555
H2 O2 1_555 1_555
O3 Cu1 1_555 1_555
H3 O3 1_555 1_555
H4 O3 1_555 1_555
O4 C13 1_555 1_555
O5 C20 1_555 1_555
O6 Cu1 1_555 1_555
H5 O6 1_555 1_555
H6 O6 1_555 1_555
O7 C20 1_555 1_555
O8 C21 1_555 1_555
O9 C21 1_555 1_555
N1 Cu1 1_555 1_555
N2 C10 1_555 1_555
N3 C14 1_555 1_555
C1 N1 1_555 1_555
H7 C1 1_555 1_555
C2 C1 1_555 1_555
H8 C2 1_555 1_555
C3 C2 1_555 1_555
C4 C3 1_555 1_555
H9 C4 1_555 1_555
C5 N1 1_555 1_555
H10 C5 1_555 1_555
C6 C3 1_555 1_555
H11 C6 1_555 1_555
C7 C6 1_555 1_555
H12 C7 1_555 1_555
C8 C7 1_555 1_555
C9 C8 1_555 1_555
H13 C9 1_555 1_555
C10 C9 1_555 1_555
H14 C10 1_555 1_555
C11 N2 1_555 1_555
H15 C11 1_555 1_555
C12 C8 1_555 1_555
H16 C12 1_555 1_555
C13 C14 1_555 1_555
C14 H17 1_555 1_555
H18 C14 1_555 1_555
C15 N3 1_555 1_555
H19 C15 1_555 1_555
C16 C15 1_555 1_555
C17 C16 1_555 1_555
H20 C17 1_555 1_555
C18 C17 1_555 1_555
C19 N3 1_555 1_555
H21 C19 1_555 1_555
C20 C16 1_555 1_555
C21 C18 1_555 1_555
O10 H22 1_555 1_555
H23 O10 1_555 1_555
O11 H24 1_555 1_555
H25 O11 1_555 1_555
O12 H26 1_555 1_555
H27 O12 1_555 1_555
Cu1_2 N2 1_555 1_555
N2_2 Cu1 1_555 1_555
C4 C5 1_555 1_555
C11 C12 1_555 1_555
C18 C19 1_555 1_555

#END
