
#######################################################################
#
#                 Cambridge Crystallographic Data Centre
#                                CCDC 
#
#######################################################################
#
# If this CIF has been generated from an entry in the Cambridge 
# Structural Database, then it will include bibliographic, chemical, 
# crystal, experimental, refinement or atomic coordinate data resulting 
# from the CCDC's data processing and validation procedures.
#
#######################################################################

data_NOFREG
_symmetry_cell_setting           triclinic
_symmetry_space_group_name_H-M   'P -1'
_symmetry_Int_Tables_number      2
_space_group_name_Hall           '-P 1'
loop_
_symmetry_equiv_pos_site_id
_symmetry_equiv_pos_as_xyz
1 x,y,z
2 -x,-y,-z
_cell_length_a                   5.12630(10)
_cell_length_b                   11.8894(3)
_cell_length_c                   14.8166(2)
_cell_angle_alpha                98.8300(10)
_cell_angle_beta                 94.5970(10)
_cell_angle_gamma                98.1150(10)
_cell_volume                     878.616
loop_
_atom_site_label
_atom_site_type_symbol
_atom_site_fract_x
_atom_site_fract_y
_atom_site_fract_z
Pb1 Pb 0.52432(10) 0.12356(4) 0.61154(3)
As1 As 0.9964(2) 0.13712(11) 0.42958(8)
N1 N 1.173(3) 0.5711(12) 0.3859(11)
C1 C 0.608(3) 0.3443(13) 0.2789(11)
H1 H 0.4512 0.3356 0.2404
C2 C 0.767(3) 0.4521(12) 0.2996(10)
C3 C 0.999(3) 0.4628(13) 0.3596(10)
C4 C 1.068(3) 0.3692(12) 0.3985(10)
H2 H 1.2193 0.3790 0.4397
C5 C 0.909(3) 0.2613(12) 0.3754(9)
C6 C 0.677(3) 0.2502(13) 0.3137(10)
H3 H 0.5697 0.1788 0.2967
C7 C -0.037(3) 0.2415(13) 1.0487(9)
H4 H -0.1115 0.2586 1.1034
C8 C -0.098(3) 0.2963(12) 0.9735(9)
C9 C 0.013(3) 0.2689(12) 0.8914(9)
H5 H -0.0260 0.3065 0.8426
C10 C 0.179(3) 0.1874(12) 0.8815(9)
C11 C 0.240(3) 0.1343(12) 0.9579(9)
H6 H 0.3532 0.0796 0.9527
C12 C 0.135(3) 0.1618(12) 1.0397(8)
C13 C 0.203(3) 0.1057(12) 1.1198(10)
C14 C -0.275(3) 0.3857(12) 0.9855(9)
C15 C 0.288(3) 0.1558(13) 0.7926(9)
O1 O 1.121(3) 0.6494(11) 0.3453(14)
O2 O 1.364(3) 0.5792(12) 0.4431(12)
O3 O 0.675(3) 0.5386(10) 0.2635(9)
H7 H 0.7839 0.5975 0.2774
O4 O -0.312(3) 0.4383(12) 0.9149(9)
H8 H -0.4109 0.4858 0.9267
O5 O -0.378(2) 0.4072(10) 1.0582(8)
O6 O 0.236(2) 0.2101(10) 0.7287(7)
O7 O 0.437(2) 0.0789(10) 0.7821(7)
O8 O 0.397(3) 0.0454(13) 1.1069(8)
H9 H 0.4183 0.0107 1.1500
O9 O 0.093(2) 0.1179(10) 1.1899(7)
O10 O 0.720(2) 0.0595(8) 0.4537(8)
O11 O 1.212(2) 0.1891(9) 0.5189(7)
O12 O 1.136(2) 0.0469(9) 0.3511(7)
H10 H 1.1239 0.0681 0.3010
Pb1A Pb 0.47568(10) -0.12356(4) 0.38846(3)
Pb1_2 Pb 1.52432(10) 0.12356(4) 0.61154(3)
O10A O 0.280(2) -0.0595(8) 0.5463(8)
O11_2 O 0.212(2) 0.1891(9) 0.5189(7)
loop_
_geom_bond_atom_site_label_1
_geom_bond_atom_site_label_2
_geom_bond_site_symmetry_1
_geom_bond_site_symmetry_2
Pb1 O6 1_555 1_555
As1 C5 1_555 1_555
N1 C3 1_555 1_555
C1 H1 1_555 1_555
C2 C1 1_555 1_555
C3 C2 1_555 1_555
C4 C3 1_555 1_555
H2 C4 1_555 1_555
C5 C4 1_555 1_555
C6 C1 1_555 1_555
H3 C6 1_555 1_555
C7 H4 1_555 1_555
C8 C7 1_555 1_555
C9 C8 1_555 1_555
H5 C9 1_555 1_555
C10 C9 1_555 1_555
C11 C10 1_555 1_555
H6 C11 1_555 1_555
C12 C7 1_555 1_555
C13 C12 1_555 1_555
C14 C8 1_555 1_555
C15 C10 1_555 1_555
O1 N1 1_555 1_555
O2 N1 1_555 1_555
O3 C2 1_555 1_555
H7 O3 1_555 1_555
O4 C14 1_555 1_555
H8 O4 1_555 1_555
O5 C14 1_555 1_555
O6 C15 1_555 1_555
O7 Pb1 1_555 1_555
O8 C13 1_555 1_555
H9 O8 1_555 1_555
O9 C13 1_555 1_555
O10 Pb1 1_555 1_555
O11 As1 1_555 1_555
O12 As1 1_555 1_555
H10 O12 1_555 1_555
Pb1A O10 1_555 1_555
Pb1_2 O11 1_555 1_555
O10A Pb1 1_555 1_555
O11_2 Pb1 1_555 1_555
As1 O10 1_555 1_555
C5 C6 1_555 1_555
C11 C12 1_555 1_555
C15 O7 1_555 1_555
Pb1A O10A 1_555 1_555

#END
