
#######################################################################
#
#                 Cambridge Crystallographic Data Centre
#                                CCDC 
#
#######################################################################
#
# If this CIF has been generated from an entry in the Cambridge 
# Structural Database, then it will include bibliographic, chemical, 
# crystal, experimental, refinement or atomic coordinate data resulting 
# from the CCDC's data processing and validation procedures.
#
#######################################################################

data_NOFZEO
_symmetry_cell_setting           orthorhombic
_symmetry_space_group_name_H-M   'P b c a'
_symmetry_Int_Tables_number      61
_space_group_name_Hall           '-P 2ac 2ab'
loop_
_symmetry_equiv_pos_site_id
_symmetry_equiv_pos_as_xyz
1 x,y,z
2 1/2-x,-y,1/2+z
3 -x,1/2+y,1/2-z
4 1/2+x,1/2-y,-z
5 -x,-y,-z
6 1/2+x,y,1/2-z
7 x,1/2-y,1/2+z
8 1/2-x,1/2+y,z
_cell_length_a                   13.314(3)
_cell_length_b                   8.0269(18)
_cell_length_c                   20.275(5)
_cell_angle_alpha                90
_cell_angle_beta                 90
_cell_angle_gamma                90
_cell_volume                     2166.79
loop_
_atom_site_label
_atom_site_type_symbol
_atom_site_fract_x
_atom_site_fract_y
_atom_site_fract_z
Dy1 Dy -0.179951(14) 0.56913(2) 0.531480(9)
O1 O -0.1934(2) 0.8526(4) 0.50404(17)
O2 O -0.1784(3) 1.0972(6) 0.4593(2)
O3 O -0.0343(2) 0.6817(4) 0.57093(16)
O4 O 0.1019(3) 0.5266(5) 0.55748(16)
C1 C 0.0794(3) 0.6624(5) 0.6600(2)
C2 C 0.0467(3) 0.6214(6) 0.5911(2)
C3 C 0.1666(4) 0.5906(7) 0.6855(3)
H1 H 0.2063 0.5223 0.6592
C4 C 0.1935(4) 0.6216(7) 0.7500(3)
H2 H 0.2511 0.5727 0.7673
C5 C 0.1353(4) 0.7254(6) 0.7896(2)
C6 C 0.0495(4) 0.7991(6) 0.7636(2)
H3 H 0.0112 0.8708 0.7894
O5 O 0.2251(3) 0.6524(5) 0.88464(19)
C7 C 0.0213(4) 0.7658(6) 0.6993(2)
H4 H -0.0370 0.8130 0.6823
C8 C -0.1475(4) 0.9521(6) 0.4646(2)
C9 C -0.0612(5) 0.8910(8) 0.4250(4)
H5 H -0.0366 0.9795 0.3975
H6 H -0.0825 0.7997 0.3978
H7 H -0.0086 0.8545 0.4540
O6 O 0.1287(3) 0.8754(4) 0.89088(16)
C10 C 0.1644(3) 0.7546(6) 0.8601(2)
Dy1G Dy -0.320049(14) 1.06913(2) 0.531480(9)
Dy1D Dy 0.179951(14) 0.43087(2) 0.468520(9)
Dy1E Dy 0.320049(14) 0.56913(2) 0.968520(9)
Dy1B Dy 0.179951(14) 1.06913(2) 0.968520(9)
O1G O -0.3066(2) 0.3526(4) 0.50404(17)
O2G O -0.3216(3) 0.5972(6) 0.4593(2)
O4D O -0.1019(3) 0.4734(5) 0.44252(16)
O5E O -0.2749(3) 0.6524(5) 0.61536(19)
O6B O -0.1287(3) 0.3754(4) 0.60912(16)
loop_
_geom_bond_atom_site_label_1
_geom_bond_atom_site_label_2
_geom_bond_site_symmetry_1
_geom_bond_site_symmetry_2
Dy1 O1 1_555 1_555
O1 C8 1_555 1_555
O2 C8 1_555 1_555
O3 Dy1 1_555 1_555
O4 C2 1_555 1_555
C1 C2 1_555 1_555
C2 O3 1_555 1_555
C3 C1 1_555 1_555
H1 C3 1_555 1_555
C4 C3 1_555 1_555
H2 C4 1_555 1_555
C5 C4 1_555 1_555
C6 C5 1_555 1_555
H3 C6 1_555 1_555
O5 C10 1_555 1_555
C7 C1 1_555 1_555
H4 C7 1_555 1_555
C8 C9 1_555 1_555
C9 H5 1_555 1_555
H6 C9 1_555 1_555
H7 C9 1_555 1_555
O6 C10 1_555 1_555
C10 C5 1_555 1_555
Dy1G O1 1_555 1_555
Dy1D O4 1_555 1_555
Dy1E O5 1_555 1_555
Dy1B O6 1_555 1_555
O1G Dy1 1_555 1_555
O2G Dy1 1_555 1_555
O4D Dy1 1_555 1_555
O5E Dy1 1_555 1_555
O6B Dy1 1_555 1_555
O2 Dy1G 1_555 1_555
C6 C7 1_555 1_555

#END
