
#######################################################################
#
#                 Cambridge Crystallographic Data Centre
#                                CCDC 
#
#######################################################################
#
# If this CIF has been generated from an entry in the Cambridge 
# Structural Database, then it will include bibliographic, chemical, 
# crystal, experimental, refinement or atomic coordinate data resulting 
# from the CCDC's data processing and validation procedures.
#
#######################################################################

data_NOGBOB
_symmetry_cell_setting           monoclinic
_symmetry_space_group_name_H-M   'C 2/c'
_symmetry_Int_Tables_number      15
_space_group_name_Hall           '-C 2yn'
loop_
_symmetry_equiv_pos_site_id
_symmetry_equiv_pos_as_xyz
1 x,y,z
2 1/2+x,1/2+y,z
3 -x,y,1/2-z
4 1/2-x,1/2+y,1/2-z
5 -x,-y,-z
6 1/2-x,1/2-y,-z
7 x,-y,1/2+z
8 1/2+x,1/2-y,1/2+z
_cell_length_a                   21.046(3)
_cell_length_b                   11.0036(15)
_cell_length_c                   20.012(3)
_cell_angle_alpha                90
_cell_angle_beta                 98.694(8)
_cell_angle_gamma                90
_cell_volume                     4581.16
loop_
_atom_site_label
_atom_site_type_symbol
_atom_site_fract_x
_atom_site_fract_y
_atom_site_fract_z
Cd1 Cd 0.193020(10) 0.32033(2) 0.199918(11)
Cl1 Cl 0.15907(5) 0.10281(9) 0.15903(5)
O1 O 0.15801(18) 0.2897(3) 0.30122(14)
O2 O 0.21734(17) 0.5167(3) 0.24390(17)
O3 O 0.26010(17) 0.2363(3) 0.31466(16)
O5 O 0.09079(15) 0.4013(3) 0.16156(15)
O7 O 0.15551(13) 0.3929(3) 0.08550(16)
N1 N -0.20909(14) 0.1860(3) 0.65960(15)
N2 N 0.07633(14) 0.1645(3) 0.51670(14)
C1 C -0.20688(17) 0.2320(4) 0.59843(18)
H1 H -0.2441 0.2669 0.5753
C2 C -0.15292(17) 0.2308(4) 0.56734(18)
H2 H -0.1541 0.2627 0.5241
C3 C -0.03749(18) 0.1603(3) 0.50257(18)
H3 H -0.0765 0.1536 0.4741
C4 C 0.01944(17) 0.1525(3) 0.47648(17)
H4 H 0.0184 0.1388 0.4305
C5 C -0.15518(18) 0.1364(5) 0.6923(2)
H5 H -0.1560 0.1030 0.7349
C6 C -0.09821(19) 0.1325(5) 0.6655(2)
H6 H -0.0615 0.0978 0.6899
C7 C 0.02342(18) 0.1936(4) 0.61154(19)
H7 H 0.0252 0.2095 0.6574
C8 C 0.07962(18) 0.1861(3) 0.58497(19)
H8 H 0.1191 0.1953 0.6124
C9 C -0.09675(17) 0.1812(3) 0.60166(19)
C10 C -0.03639(17) 0.1781(3) 0.57166(19)
C11 C 0.13599(16) 0.1498(3) 0.48895(17)
C12 C 0.18411(18) 0.0807(4) 0.52444(19)
H9 H 0.1789 0.0460 0.5656
C13 C 0.2408(2) 0.0636(4) 0.4976(2)
H10 H 0.2738 0.0166 0.5206
C14 C 0.24790(18) 0.1166(4) 0.4369(2)
H11 H 0.2860 0.1058 0.4194
C15 C 0.14183(17) 0.2022(3) 0.42760(17)
H12 H 0.1084 0.2474 0.4040
C16 C 0.19936(19) 0.1856(3) 0.40168(18)
C17 C 0.2066(2) 0.2420(3) 0.33457(19)
C18 C 0.10236(17) 0.4167(3) 0.1026(2)
C19 C 0.04907(16) 0.4619(3) 0.04999(18)
C20 C 0.06229(17) 0.4923(4) -0.0140(2)
H13 H 0.1042 0.4872 -0.0234
C21 C -0.01296(18) 0.4698(4) 0.06405(19)
H14 H -0.0218 0.4497 0.1068
H15 H 0.258(3) 0.536(6) 0.277(3)
H16 H 0.217(3) 0.583(6) 0.226(3)
Cd1G Cd 0.693020(10) 0.17967(2) -0.300082(11)
Cd1G_2 Cd -0.306980(10) 0.17967(2) 0.699918(11)
Cd1D Cd -0.193020(10) 0.67967(2) -0.199918(11)
Cl1G Cl 0.65907(5) 0.39719(9) -0.34097(5)
O1G O 0.65801(18) 0.2103(3) -0.19878(14)
O2G O 0.71734(17) -0.0167(3) -0.25610(17)
O3G O 0.76010(17) 0.2637(3) -0.18534(16)
O5D O -0.09079(15) 0.5987(3) -0.16156(15)
O5G O 0.59079(15) 0.0987(3) -0.33844(15)
O7D O -0.15551(13) 0.6071(3) -0.08550(16)
O7G O 0.65551(13) 0.1071(3) -0.41450(16)
N1G N 0.29091(14) 0.3140(3) 0.15960(15)
N1_2 N 0.79091(14) 0.1860(3) -0.34040(15)
N2G N 0.57633(14) 0.3355(3) 0.01670(14)
C1G C 0.29312(17) 0.2680(4) 0.09843(18)
H1G H 0.2559 0.2331 0.0753
C2G C 0.34708(17) 0.2692(4) 0.06734(18)
H2G H 0.3459 0.2373 0.0241
C3G C 0.46251(18) 0.3397(3) 0.00257(18)
H3G H 0.4235 0.3464 -0.0259
C4G C 0.51944(17) 0.3475(3) -0.02352(17)
H4G H 0.5184 0.3612 -0.0695
C5G C 0.34482(18) 0.3636(5) 0.1923(2)
H5G H 0.3440 0.3970 0.2349
C6G C 0.40179(19) 0.3675(5) 0.1655(2)
H6G H 0.4385 0.4022 0.1899
C7G C 0.52342(18) 0.3064(4) 0.11154(19)
H7G H 0.5252 0.2905 0.1574
C8G C 0.57962(18) 0.3139(3) 0.08497(19)
H8G H 0.6191 0.3047 0.1124
C9G C 0.40325(17) 0.3188(3) 0.10166(19)
C10G C 0.46361(17) 0.3219(3) 0.07166(19)
C11G C 0.63599(16) 0.3502(3) -0.01105(17)
C12G C 0.68411(18) 0.4193(4) 0.02444(19)
H9G H 0.6789 0.4540 0.0656
C13G C 0.7408(2) 0.4364(4) -0.0024(2)
H10G H 0.7738 0.4834 0.0206
C14G C 0.74790(18) 0.3834(4) -0.0631(2)
H11G H 0.7860 0.3942 -0.0806
C15G C 0.64183(17) 0.2978(3) -0.07240(17)
H12G H 0.6084 0.2526 -0.0960
C16G C 0.69936(19) 0.3144(3) -0.09832(18)
C17G C 0.7066(2) 0.2580(3) -0.16543(19)
C18D C -0.10236(17) 0.5833(3) -0.1026(2)
C19D C -0.04907(16) 0.5381(3) -0.04999(18)
C20D C -0.06229(17) 0.5077(4) 0.0140(2)
H13D H -0.1042 0.5128 0.0234
C21D C 0.01296(18) 0.5302(4) -0.06405(19)
H14D H 0.0218 0.5503 -0.1068
H15G H 0.758(3) -0.036(6) -0.223(3)
H16G H 0.717(3) -0.083(6) -0.274(3)
O4 O 0.1118(6) 0.5316(8) 0.3233(8)
O6 O 0.0000 0.3396(15) 0.7500
O9 O 0.0133(3) 0.0870(8) 0.1802(3)
O8? O 0.0133(8) 0.3236(19) 0.2710(11)
loop_
_geom_bond_atom_site_label_1
_geom_bond_atom_site_label_2
_geom_bond_site_symmetry_1
_geom_bond_site_symmetry_2
Cd1 Cl1 1_555 1_555
O1 Cd1 1_555 1_555
O2 Cd1 1_555 1_555
O3 Cd1 1_555 1_555
O5 Cd1 1_555 1_555
O7 Cd1 1_555 1_555
N1 C1 1_555 1_555
N2 C4 1_555 1_555
C1 H1 1_555 1_555
C2 C1 1_555 1_555
H2 C2 1_555 1_555
C3 H3 1_555 1_555
C4 C3 1_555 1_555
H4 C4 1_555 1_555
C5 N1 1_555 1_555
H5 C5 1_555 1_555
C6 C5 1_555 1_555
H6 C6 1_555 1_555
C7 H7 1_555 1_555
C8 N2 1_555 1_555
H8 C8 1_555 1_555
C9 C2 1_555 1_555
C10 C3 1_555 1_555
C11 N2 1_555 1_555
C12 C11 1_555 1_555
H9 C12 1_555 1_555
C13 C12 1_555 1_555
H10 C13 1_555 1_555
C14 C13 1_555 1_555
H11 C14 1_555 1_555
C15 C11 1_555 1_555
H12 C15 1_555 1_555
C16 C14 1_555 1_555
C17 O1 1_555 1_555
C18 O5 1_555 1_555
C19 C18 1_555 1_555
C20 C19 1_555 1_555
H13 C20 1_555 1_555
C21 C19 1_555 1_555
H14 C21 1_555 1_555
H15 O2 1_555 1_555
H16 O2 1_555 1_555
Cd1G Cl1G 1_555 1_555
Cd1G_2 N1 1_555 1_555
Cd1D O5D 1_555 1_555
O1G Cd1G 1_555 1_555
O2G Cd1G 1_555 1_555
O3G Cd1G 1_555 1_555
O5D C18D 1_555 1_555
O5G Cd1G 1_555 1_555
O7D Cd1D 1_555 1_555
O7G Cd1G 1_555 1_555
N1G Cd1 1_555 1_555
N1_2 Cd1G 1_555 1_555
N2G C4G 1_555 1_555
C1G N1G 1_555 1_555
H1G C1G 1_555 1_555
C2G C1G 1_555 1_555
H2G C2G 1_555 1_555
C3G H3G 1_555 1_555
C4G C3G 1_555 1_555
H4G C4G 1_555 1_555
C5G N1G 1_555 1_555
H5G C5G 1_555 1_555
C6G C5G 1_555 1_555
H6G C6G 1_555 1_555
C7G H7G 1_555 1_555
C8G N2G 1_555 1_555
H8G C8G 1_555 1_555
C9G C2G 1_555 1_555
C10G C3G 1_555 1_555
C11G N2G 1_555 1_555
C12G C11G 1_555 1_555
H9G C12G 1_555 1_555
C13G C12G 1_555 1_555
H10G C13G 1_555 1_555
C14G C13G 1_555 1_555
H11G C14G 1_555 1_555
C15G C11G 1_555 1_555
H12G C15G 1_555 1_555
C16G C14G 1_555 1_555
C17G O1G 1_555 1_555
C18D O7D 1_555 1_555
C19D C18D 1_555 1_555
C20D C21 1_555 1_555
H13D C20D 1_555 1_555
C21D C20 1_555 1_555
H14D C21D 1_555 1_555
H15G O2G 1_555 1_555
H16G O2G 1_555 1_555
O3 C17 1_555 1_555
O7 C18 1_555 1_555
C6 C9 1_555 1_555
C7 C8 1_555 1_555
C7 C10 1_555 1_555
C9 C10 1_555 1_555
C15 C16 1_555 1_555
C16 C17 1_555 1_555
O3G C17G 1_555 1_555
C6G C9G 1_555 1_555
C7G C8G 1_555 1_555
C7G C10G 1_555 1_555
C9G C10G 1_555 1_555
C15G C16G 1_555 1_555
C16G C17G 1_555 1_555
C19D C20D 1_555 1_555
C19D C21D 1_555 1_555

#END
