
#######################################################################
#
#                 Cambridge Crystallographic Data Centre
#                                CCDC 
#
#######################################################################
#
# If this CIF has been generated from an entry in the Cambridge 
# Structural Database, then it will include bibliographic, chemical, 
# crystal, experimental, refinement or atomic coordinate data resulting 
# from the CCDC's data processing and validation procedures.
#
#######################################################################

data_NOGMAY
_symmetry_cell_setting           hexagonal
_symmetry_space_group_name_H-M   'P 63/m'
_symmetry_Int_Tables_number      176
_space_group_name_Hall           '-P 6c'
loop_
_symmetry_equiv_pos_site_id
_symmetry_equiv_pos_as_xyz
1 x,y,z
2 -y,x-y,z
3 -x+y,-x,z
4 y,-x+y,1/2+z
5 x-y,x,1/2+z
6 -x,-y,1/2+z
7 -x,-y,-z
8 y,-x+y,-z
9 x-y,x,-z
10 -y,x-y,1/2-z
11 -x+y,-x,1/2-z
12 x,y,1/2-z
_cell_length_a                   8.2600(19)
_cell_length_b                   8.2600(19)
_cell_length_c                   11.009(3)
_cell_angle_alpha                90
_cell_angle_beta                 90
_cell_angle_gamma                120
_cell_volume                     650.487
loop_
_atom_site_label
_atom_site_type_symbol
_atom_site_fract_x
_atom_site_fract_y
_atom_site_fract_z
Rb1 Rb 0.6667 0.3333 0.02922(6)
Rb2 Rb 0.0000 0.0000 0.0000
N1 N 0.3469(5) 0.1070(7) -0.1516(3)
C1 C 0.3610(10) 0.1997(10) -0.2500
N2 N 0.3217(5) -0.0528(6) -0.1922(4)
H1 H 0.393(12) 0.322(11) -0.2500
Rb1K Rb 0.6667 0.3333 -0.52922(6)
Rb1F Rb 0.3333 -0.3333 -0.02922(6)
Rb1C Rb 0.3333 -0.3334 -0.47078(6)
Rb1_2 Rb -0.3333 0.3333 0.02922(6)
Rb1F_2 Rb 0.3333 0.6667 -0.02922(6)
Rb1K_2 Rb -0.3333 0.3333 -0.52922(6)
Rb1C_2 Rb 0.3333 0.6666 -0.47078(6)
Rb1_3 Rb -0.3333 -0.6667 0.02922(6)
Rb1F_3 Rb -0.6667 -0.3333 -0.02922(6)
Rb1K_3 Rb -0.3333 -0.6667 -0.52922(6)
Rb1C_3 Rb -0.6667 -0.3334 -0.47078(6)
Rb2C Rb 0.0000 0.0000 -0.5000
N1K N 0.3469(5) 0.1070(7) -0.3484(3)
N1A N -0.1070(7) 0.2399(9) -0.1516(3)
N1I N -0.1070(7) 0.2399(9) -0.3484(3)
N1B N -0.2399(9) -0.3469(5) -0.1516(3)
N1J N -0.2399(9) -0.3469(5) -0.3484(3)
N1A_2 N 0.8930(7) 0.2399(9) -0.1516(3)
N1B_2 N 0.7601(9) 0.6531(5) -0.1516(3)
N1F N -0.3469(5) -0.1070(7) 0.1516(3)
N1G N 0.1070(7) -0.2399(9) 0.1516(3)
N1H N 0.2399(9) 0.3469(5) 0.1516(3)
N1I_2 N 0.8930(7) 0.2399(9) -0.3484(3)
N1J_2 N 0.7601(9) 0.6531(5) -0.3484(3)
C1A C -0.1997(10) 0.1613(14) -0.2500
C1B C -0.1613(14) -0.3610(10) -0.2500
N2K N 0.3217(5) -0.0528(6) -0.3078(4)
N2A N 0.0528(6) 0.3745(8) -0.1922(4)
N2I N 0.0528(6) 0.3745(8) -0.3078(4)
N2B N -0.3745(8) -0.3217(5) -0.1922(4)
N2J N -0.3745(8) -0.3217(5) -0.3078(4)
N2F N 0.6783(5) 0.0528(6) 0.1922(4)
N2G N 0.9472(6) 0.6255(8) 0.1922(4)
N2H N 0.3745(8) 0.3217(5) 0.1922(4)
N2C N 0.9472(6) 0.6255(8) -0.6922(4)
N2D N 0.3745(8) 0.3217(5) -0.6922(4)
N2E N 0.6783(5) 0.0528(6) -0.6922(4)
H1A H -0.322(11) 0.071(16) -0.2500
H1B H -0.071(16) -0.393(12) -0.2500
loop_
_geom_bond_atom_site_label_1
_geom_bond_atom_site_label_2
_geom_bond_site_symmetry_1
_geom_bond_site_symmetry_2
Rb1 N1 1_555 1_555
Rb2 N1 1_555 1_555
N1 C1 1_555 1_555
C1 H1 1_555 1_555
N2 N1 1_555 1_555
Rb1K N1K 1_555 1_555
Rb1F N2 1_555 1_555
Rb1C N2K 1_555 1_555
Rb1_2 N1A 1_555 1_555
Rb1F_2 N1H 1_555 1_555
Rb1K_2 N1I 1_555 1_555
Rb1C_2 N2I 1_555 1_555
Rb1_3 N1B 1_555 1_555
Rb1F_3 N1F 1_555 1_555
Rb1K_3 N1J 1_555 1_555
Rb1C_3 N2J 1_555 1_555
Rb2C N1K 1_555 1_555
N1K C1 1_555 1_555
N1A Rb2 1_555 1_555
N1I Rb2C 1_555 1_555
N1B Rb2 1_555 1_555
N1J Rb2C 1_555 1_555
N1A_2 Rb1 1_555 1_555
N1B_2 Rb1 1_555 1_555
N1F Rb2 1_555 1_555
N1G Rb2 1_555 1_555
N1H Rb2 1_555 1_555
N1I_2 Rb1K 1_555 1_555
N1J_2 Rb1K 1_555 1_555
C1A N1A 1_555 1_555
C1B N1B 1_555 1_555
N2K N2 1_555 1_555
N2A Rb1F_2 1_555 1_555
N2I N1I 1_555 1_555
N2B Rb1F_3 1_555 1_555
N2J N1J 1_555 1_555
N2F Rb1 1_555 1_555
N2G Rb1 1_555 1_555
N2H Rb1 1_555 1_555
N2C Rb1K 1_555 1_555
N2D Rb1K 1_555 1_555
N2E Rb1K 1_555 1_555
H1A C1A 1_555 1_555
H1B C1B 1_555 1_555
Rb1F N1G 1_555 1_555
N1K N2K 1_555 1_555
N1A N2A 1_555 1_555
N1I C1A 1_555 1_555
N1B N2B 1_555 1_555
N1J C1B 1_555 1_555
N1H N2H 1_555 1_555
N2A N2I 1_555 1_555
N2B N2J 1_555 1_555

#END
