
#######################################################################
#
#                 Cambridge Crystallographic Data Centre
#                                CCDC 
#
#######################################################################
#
# If this CIF has been generated from an entry in the Cambridge 
# Structural Database, then it will include bibliographic, chemical, 
# crystal, experimental, refinement or atomic coordinate data resulting 
# from the CCDC's data processing and validation procedures.
#
#######################################################################

data_NOGWAJ
_symmetry_cell_setting           orthorhombic
_symmetry_space_group_name_H-M   'P n a 21'
_symmetry_Int_Tables_number      33
_space_group_name_Hall           'P 2c -2n'
loop_
_symmetry_equiv_pos_site_id
_symmetry_equiv_pos_as_xyz
1 x,y,z
2 -x,-y,1/2+z
3 1/2-x,1/2+y,1/2+z
4 1/2+x,1/2-y,z
_cell_length_a                   14.728(2)
_cell_length_b                   14.876(2)
_cell_length_c                   7.4484(11)
_cell_angle_alpha                90
_cell_angle_beta                 90
_cell_angle_gamma                90
_cell_volume                     1631.9
loop_
_atom_site_label
_atom_site_type_symbol
_atom_site_fract_x
_atom_site_fract_y
_atom_site_fract_z
Cu1 Cu 0.438607(15) 0.090569(14) 0.74359(5)
O1 O 0.54660(15) 0.51817(13) 0.3789(3)
O2 O 0.65535(14) 0.47980(12) 0.1856(3)
H1 H 0.6635(19) 0.537(2) 0.171(4)
O3 O 0.48682(11) 0.04492(10) 0.5224(2)
O4 O 0.58750(11) 0.03354(10) 0.3074(2)
O5 O 0.28440(13) 0.10507(14) 0.6655(3)
H2 H 0.269(2) 0.155(2) 0.699(6)
N1 N 0.40351(13) 0.14729(12) 0.9748(3)
N2 N 0.47861(12) 0.21558(11) 0.6834(2)
C1 C 0.36244(16) 0.11103(16) 1.1158(3)
H3 H 0.3541 0.0491 1.1192
C2 C 0.33206(15) 0.16191(17) 1.2562(4)
H4 H 0.3043 0.1345 1.3542
C3 C 0.34269(15) 0.25394(17) 1.2523(4)
H5 H 0.3212 0.2894 1.3459
C4 C 0.38586(16) 0.29262(16) 1.1067(4)
H6 H 0.3946 0.3544 1.1002
C5 C 0.41552(16) 0.23642(15) 0.9712(3)
C6 C 0.46193(17) 0.26989(15) 0.8106(4)
H7 H 0.4789 0.3300 0.8019
C7 C 0.52233(15) 0.24381(14) 0.5231(3)
C8 C 0.53279(16) 0.33542(14) 0.4835(3)
H8 H 0.5084 0.3781 0.5610
C9 C 0.57836(15) 0.36329(15) 0.3323(4)
C10 C 0.61204(15) 0.30019(14) 0.2110(3)
H9 H 0.6427 0.3187 0.1082
C11 C 0.59941(14) 0.21023(13) 0.2452(4)
H10 H 0.6209 0.1683 0.1628
C12 C 0.55519(14) 0.17979(15) 0.4004(3)
C13 C 0.59055(18) 0.46204(16) 0.3017(4)
C14 C 0.54172(15) 0.07990(15) 0.4160(3)
C15 C 0.2228(2) 0.0362(2) 0.7151(6)
H11 H 0.2220 0.0303 0.8434
H12 H 0.2417 -0.0197 0.6623
H13 H 0.1631 0.0512 0.6732
Cu1A Cu 0.561393(15) -0.090569(14) 0.24359(5)
O4A O 0.41250(11) -0.03354(10) 0.8074(2)
O6 O 0.16939(18) 0.39723(15) 0.7848(5)
O7 O 0.19658(14) 0.25740(12) 0.7924(4)
O8 O 0.29389(13) 0.34786(12) 0.6722(3)
N3 N 0.21956(14) 0.33448(14) 0.7525(4)
loop_
_geom_bond_atom_site_label_1
_geom_bond_atom_site_label_2
_geom_bond_site_symmetry_1
_geom_bond_site_symmetry_2
Cu1 O3 1_555 1_555
O1 C13 1_555 1_555
O2 H1 1_555 1_555
O3 C14 1_555 1_555
O4 C14 1_555 1_555
O5 Cu1 1_555 1_555
H2 O5 1_555 1_555
N1 Cu1 1_555 1_555
N2 Cu1 1_555 1_555
C1 N1 1_555 1_555
H3 C1 1_555 1_555
C2 C1 1_555 1_555
H4 C2 1_555 1_555
C3 C2 1_555 1_555
H5 C3 1_555 1_555
C4 C3 1_555 1_555
H6 C4 1_555 1_555
C5 N1 1_555 1_555
C6 N2 1_555 1_555
H7 C6 1_555 1_555
C7 N2 1_555 1_555
C8 C7 1_555 1_555
H8 C8 1_555 1_555
C9 C8 1_555 1_555
C10 C9 1_555 1_555
H9 C10 1_555 1_555
C11 C10 1_555 1_555
H10 C11 1_555 1_555
C12 C7 1_555 1_555
C13 O2 1_555 1_555
C14 C12 1_555 1_555
C15 O5 1_555 1_555
H11 C15 1_555 1_555
H12 C15 1_555 1_555
H13 C15 1_555 1_555
O6 N3 1_555 1_555
O7 N3 1_555 1_555
O8 N3 1_555 1_555
Cu1A O4 1_555 1_555
O4A Cu1 1_555 1_555
C4 C5 1_555 1_555
C5 C6 1_555 1_555
C9 C13 1_555 1_555
C11 C12 1_555 1_555

#END
