
#######################################################################
#
#                 Cambridge Crystallographic Data Centre
#                                CCDC 
#
#######################################################################
#
# If this CIF has been generated from an entry in the Cambridge 
# Structural Database, then it will include bibliographic, chemical, 
# crystal, experimental, refinement or atomic coordinate data resulting 
# from the CCDC's data processing and validation procedures.
#
#######################################################################

data_NOGXEM
_symmetry_cell_setting           triclinic
_symmetry_space_group_name_H-M   'P -1'
_symmetry_Int_Tables_number      2
_space_group_name_Hall           '-P 1'
loop_
_symmetry_equiv_pos_site_id
_symmetry_equiv_pos_as_xyz
1 x,y,z
2 -x,-y,-z
_cell_length_a                   7.8382(2)
_cell_length_b                   10.0439(3)
_cell_length_c                   10.2868(3)
_cell_angle_alpha                80.3670(13)
_cell_angle_beta                 75.8350(13)
_cell_angle_gamma                83.9330(13)
_cell_volume                     772.367
loop_
_atom_site_label
_atom_site_type_symbol
_atom_site_fract_x
_atom_site_fract_y
_atom_site_fract_z
Cd1 Cd 0.0000 0.0000 0.0000
O1 O -0.3083(2) 0.02114(16) 0.05121(15)
H1 H -0.3632 0.0949 0.0756
H2 H -0.3604 -0.0423 0.1047
O2 O 0.4665(2) 0.74207(15) -0.13138(15)
N1 N 0.0094(2) 0.22936(18) -0.08169(18)
N2 N 0.4329(3) 0.56206(19) -0.2281(2)
H3 H 0.4581 0.5240 -0.3022
N3 N 0.5709(2) 0.74548(19) -0.35853(18)
H4 H 0.5870 0.7016 -0.4283
N4 N 0.9884(2) 0.94311(18) -0.21257(17)
C1 C 0.1400(3) 0.2957(2) -0.0637(2)
H5 H 0.2098 0.2512 -0.0036
C2 C 0.1786(3) 0.4255(2) -0.1278(2)
C3 C 0.0730(3) 0.4894(2) -0.2129(3)
H6 H 0.0945 0.5785 -0.2588
C4 C -0.0638(3) 0.4235(3) -0.2309(3)
H7 H -0.1381 0.4670 -0.2880
C5 C -0.0910(3) 0.2928(2) -0.1643(2)
H8 H -0.1839 0.2470 -0.1779
C6 C 0.3318(3) 0.4899(2) -0.1032(2)
H9 H 0.2865 0.5538 -0.0371
H10 H 0.4098 0.4188 -0.0639
C7 C 0.4892(3) 0.6859(2) -0.2334(2)
C8 C 0.6319(3) 0.8806(2) -0.3787(2)
H11 H 0.5467 0.9359 -0.3179
H12 H 0.6350 0.9231 -0.4732
C9 C 0.8123(3) 0.8813(2) -0.3517(2)
C10 C 0.8321(3) 0.9378(2) -0.2423(2)
H13 H 0.7297 0.9747 -0.1856
C11 C 1.1322(3) 0.8931(2) -0.2944(2)
H14 H 1.2440 0.8978 -0.2754
C12 C 1.1250(3) 0.8346(2) -0.4061(2)
H15 H 1.2297 0.7997 -0.4620
C13 C 0.9629(3) 0.8280(2) -0.4343(2)
H16 H 0.9545 0.7875 -0.5094
O1A O 0.3083(2) -0.02114(16) -0.05121(15)
H1A H 0.3632 -0.0949 -0.0756
H2A H 0.3604 0.0423 -0.1047
O2A O -0.4665(2) -0.74207(15) 0.13138(15)
N1A N -0.0094(2) -0.22936(18) 0.08169(18)
N2A N -0.4329(3) -0.56206(19) 0.2281(2)
H3A H -0.4581 -0.5240 0.3022
N3A N -0.5709(2) -0.74548(19) 0.35853(18)
H4A H -0.5870 -0.7016 0.4283
N4A N -0.9884(2) -0.94311(18) 0.21257(17)
C1A C -0.1400(3) -0.2957(2) 0.0637(2)
H5A H -0.2098 -0.2512 0.0036
C2A C -0.1786(3) -0.4255(2) 0.1278(2)
C3A C -0.0730(3) -0.4894(2) 0.2129(3)
H6A H -0.0945 -0.5785 0.2588
C4A C 0.0638(3) -0.4235(3) 0.2309(3)
H7A H 0.1381 -0.4670 0.2880
C5A C 0.0910(3) -0.2928(2) 0.1643(2)
H8A H 0.1839 -0.2470 0.1779
C6A C -0.3318(3) -0.4899(2) 0.1032(2)
H9A H -0.2865 -0.5538 0.0371
H10A H -0.4098 -0.4188 0.0639
C7A C -0.4892(3) -0.6859(2) 0.2334(2)
C8A C -0.6319(3) -0.8806(2) 0.3787(2)
H11A H -0.5467 -0.9359 0.3179
H12A H -0.6350 -0.9231 0.4732
C9A C -0.8123(3) -0.8813(2) 0.3517(2)
C10A C -0.8321(3) -0.9378(2) 0.2423(2)
H13A H -0.7297 -0.9747 0.1856
C11A C -1.1322(3) -0.8931(2) 0.2944(2)
H14A H -1.2440 -0.8978 0.2754
C12A C -1.1250(3) -0.8346(2) 0.4061(2)
H15A H -1.2297 -0.7997 0.4620
C13A C -0.9629(3) -0.8280(2) 0.4343(2)
H16A H -0.9545 -0.7875 0.5094
N4_2 N -0.0116(2) -0.05689(18) -0.21257(17)
N4A_2 N 0.0116(2) 0.05689(18) 0.21257(17)
Cd1_2 Cd 1.0000 1.0000 0.0000
Cd1_3 Cd -1.0000 -1.0000 0.0000
N5 N -0.4624(3) -0.2373(2) 0.31161(19)
O3 O -0.3418(3) -0.1772(2) 0.33092(18)
O4 O -0.5213(3) -0.1947(2) 0.20840(19)
O5 O -0.5209(3) -0.33702(19) 0.39464(18)
loop_
_geom_bond_atom_site_label_1
_geom_bond_atom_site_label_2
_geom_bond_site_symmetry_1
_geom_bond_site_symmetry_2
Cd1 O1 1_555 1_555
O1 H1 1_555 1_555
H2 O1 1_555 1_555
O2 C7 1_555 1_555
N1 Cd1 1_555 1_555
N2 H3 1_555 1_555
N3 H4 1_555 1_555
N4 C10 1_555 1_555
C1 N1 1_555 1_555
H5 C1 1_555 1_555
C2 C1 1_555 1_555
C3 C2 1_555 1_555
H6 C3 1_555 1_555
C4 C3 1_555 1_555
H7 C4 1_555 1_555
C5 N1 1_555 1_555
H8 C5 1_555 1_555
C6 N2 1_555 1_555
H9 C6 1_555 1_555
H10 C6 1_555 1_555
C7 N2 1_555 1_555
C8 N3 1_555 1_555
H11 C8 1_555 1_555
H12 C8 1_555 1_555
C9 C8 1_555 1_555
C10 C9 1_555 1_555
H13 C10 1_555 1_555
C11 N4 1_555 1_555
H14 C11 1_555 1_555
C12 C11 1_555 1_555
H15 C12 1_555 1_555
C13 C9 1_555 1_555
H16 C13 1_555 1_555
N5 O3 1_555 1_555
O4 N5 1_555 1_555
O5 N5 1_555 1_555
O1A Cd1 1_555 1_555
H1A O1A 1_555 1_555
H2A O1A 1_555 1_555
O2A C7A 1_555 1_555
N1A Cd1 1_555 1_555
N2A H3A 1_555 1_555
N3A H4A 1_555 1_555
N4A C10A 1_555 1_555
C1A N1A 1_555 1_555
H5A C1A 1_555 1_555
C2A C1A 1_555 1_555
C3A C2A 1_555 1_555
H6A C3A 1_555 1_555
C4A C3A 1_555 1_555
H7A C4A 1_555 1_555
C5A N1A 1_555 1_555
H8A C5A 1_555 1_555
C6A N2A 1_555 1_555
H9A C6A 1_555 1_555
H10A C6A 1_555 1_555
C7A N2A 1_555 1_555
C8A N3A 1_555 1_555
H11A C8A 1_555 1_555
H12A C8A 1_555 1_555
C9A C8A 1_555 1_555
C10A C9A 1_555 1_555
H13A C10A 1_555 1_555
C11A N4A 1_555 1_555
H14A C11A 1_555 1_555
C12A C11A 1_555 1_555
H15A C12A 1_555 1_555
C13A C9A 1_555 1_555
H16A C13A 1_555 1_555
N4_2 Cd1 1_555 1_555
N4A_2 Cd1 1_555 1_555
Cd1_2 N4 1_555 1_555
Cd1_3 N4A 1_555 1_555
N3 C7 1_555 1_555
C2 C6 1_555 1_555
C4 C5 1_555 1_555
C12 C13 1_555 1_555
N3A C7A 1_555 1_555
C2A C6A 1_555 1_555
C4A C5A 1_555 1_555
C12A C13A 1_555 1_555

#END
