
#######################################################################
#
#                 Cambridge Crystallographic Data Centre
#                                CCDC 
#
#######################################################################
#
# If this CIF has been generated from an entry in the Cambridge 
# Structural Database, then it will include bibliographic, chemical, 
# crystal, experimental, refinement or atomic coordinate data resulting 
# from the CCDC's data processing and validation procedures.
#
#######################################################################

data_NOGYAK
_symmetry_cell_setting           orthorhombic
_symmetry_space_group_name_H-M   'P n a 21'
_symmetry_Int_Tables_number      33
_space_group_name_Hall           'P 2c -2n'
loop_
_symmetry_equiv_pos_site_id
_symmetry_equiv_pos_as_xyz
1 x,y,z
2 -x,-y,1/2+z
3 1/2+x,1/2-y,z
4 1/2-x,1/2+y,1/2+z
_cell_length_a                   23.440(4)
_cell_length_b                   11.6384(19)
_cell_length_c                   9.6917(15)
_cell_angle_alpha                90
_cell_angle_beta                 90
_cell_angle_gamma                90
_cell_volume                     2643.94
loop_
_atom_site_label
_atom_site_type_symbol
_atom_site_fract_x
_atom_site_fract_y
_atom_site_fract_z
Cu1 Cu 0.19940(6) 0.48601(10) -0.0727(2)
Cu2 Cu 0.07059(6) 0.30562(11) 0.4300(2)
C1 C 0.3207(6) 0.4771(15) 0.007(2)
H1 H 0.3510 0.4317 0.0480
H2 H 0.3383 0.5308 -0.0568
C2 C 0.2930(7) 0.5399(14) 0.1122(19)
H3 H 0.3190 0.5959 0.1516
H4 H 0.2807 0.4884 0.1850
C3 C 0.2146(6) 0.7244(11) -0.1385(16)
H5 H 0.1790 0.7499 -0.0980
H6 H 0.2281 0.7834 -0.2013
C4 C 0.2585(6) 0.7028(11) -0.0268(15)
H7 H 0.2959 0.6923 -0.0678
H8 H 0.2602 0.7681 0.0352
C5 C 0.2025(6) 0.6318(11) 0.1641(14)
H9 H 0.2239 0.6628 0.2413
H10 H 0.1757 0.6897 0.1330
C6 C 0.1718(6) 0.5269(11) 0.2067(13)
C7 C 0.1453(6) 0.4930(11) 0.3221(14)
H11 H 0.1422 0.5364 0.4023
C8 C 0.1362(6) 0.3584(12) 0.1760(14)
H12 H 0.1263 0.2890 0.1350
C9 C 0.1518(5) 0.3967(12) -0.3335(16)
H13 H 0.1758 0.4439 -0.3845
C10 C 0.1114(6) 0.3168(12) -0.1681(15)
H14 H 0.1005 0.2957 -0.0794
C11 C 0.0877(5) 0.2764(11) -0.2805(14)
C12 C 0.0421(6) 0.1915(12) -0.3142(14)
H15 H 0.0157 0.1849 -0.2375
H16 H 0.0588 0.1166 -0.3309
C13 C -0.0306(6) 0.3243(14) -0.4041(19)
H17 H -0.0642 0.2891 -0.3637
H18 H -0.0135 0.3734 -0.3346
C14 C -0.0480(6) 0.3947(14) -0.5207(17)
H19 H -0.0687 0.4618 -0.4886
H20 H -0.0729 0.3511 -0.5812
C15 C -0.0167(6) 0.1342(11) -0.5116(13)
H21 H -0.0493 0.1608 -0.5643
H22 H -0.0301 0.0796 -0.4434
C16 C 0.0247(6) 0.0773(11) -0.6050(16)
H23 H 0.0528 0.0359 -0.5512
H24 H 0.0050 0.0227 -0.6637
N1 N 0.1232(5) 0.3842(9) 0.3043(12)
N2 N 0.1652(5) 0.4413(9) 0.1094(11)
N3 N 0.2818(4) 0.3981(10) -0.073(2)
H25 H 0.2792 0.3290 -0.0319
H26 H 0.2946 0.3882 -0.1599
N4 N 0.2422(4) 0.5998(8) 0.0494(12)
N5 N 0.2063(5) 0.6173(9) -0.2118(11)
H27 H 0.2360 0.6044 -0.2685
H28 H 0.1744 0.6214 -0.2632
N6 N 0.1531(5) 0.3919(9) -0.1953(11)
N7 N 0.1131(4) 0.3281(9) -0.3915(11)
N8 N 0.0108(4) 0.2325(9) -0.4419(12)
N9 N 0.0039(5) 0.4302(9) -0.5957(15)
H29 H 0.0158 0.4988 -0.5637
H30 H -0.0042 0.4381 -0.6860
N10 N 0.0522(5) 0.1623(9) -0.6879(12)
H31 H 0.0293 0.1822 -0.7585
H32 H 0.0847 0.1333 -0.7232
Cu2_2 Cu 0.07059(6) 0.30562(11) -0.5700(2)
N7_2 N 0.1131(4) 0.3281(9) 0.6085(11)
N8_2 N 0.0108(4) 0.2325(9) 0.5581(12)
N9_2 N 0.0039(5) 0.4302(9) 0.4043(15)
H29_2 H 0.0158 0.4988 0.4363
H30_2 H -0.0042 0.4381 0.3140
N10_2 N 0.0522(5) 0.1623(9) 0.3121(12)
H31_2 H 0.0293 0.1822 0.2415
H32_2 H 0.0847 0.1333 0.2768
Cl1 Cl 0.9368(2) 0.2683(4) -0.9368(5)
O1 O 0.9482(8) 0.1720(13) -0.875(2)
O2 O 0.8940(10) 0.299(2) -0.882(3)
O3 O 0.9229(9) 0.2530(14) -1.070(3)
O4 O 0.9775(10) 0.3465(18) -0.914(3)
Cl2 Cl 0.8297(2) 0.9841(4) -0.4474(6)
O5 O 0.7798(7) 0.957(2) -0.4960(19)
O6 O 0.8668(8) 0.9672(19) -0.534(3)
O7 O 0.8299(12) 1.0862(15) -0.382(2)
O8 O 0.8387(10) 0.9138(14) -0.342(2)
loop_
_geom_bond_atom_site_label_1
_geom_bond_atom_site_label_2
_geom_bond_site_symmetry_1
_geom_bond_site_symmetry_2
Cu1 N2 1_555 1_555
Cu2 N1 1_555 1_555
Cl1 O1 1_555 1_555
Cl2 O5 1_555 1_555
C1 H1 1_555 1_555
H2 C1 1_555 1_555
C2 C1 1_555 1_555
H3 C2 1_555 1_555
H4 C2 1_555 1_555
C3 H5 1_555 1_555
H6 C3 1_555 1_555
C4 C3 1_555 1_555
H7 C4 1_555 1_555
H8 C4 1_555 1_555
C5 H9 1_555 1_555
H10 C5 1_555 1_555
C6 C5 1_555 1_555
C7 C6 1_555 1_555
H11 C7 1_555 1_555
C8 H12 1_555 1_555
C9 H13 1_555 1_555
C10 H14 1_555 1_555
C11 C10 1_555 1_555
C12 C11 1_555 1_555
H15 C12 1_555 1_555
H16 C12 1_555 1_555
C13 H17 1_555 1_555
H18 C13 1_555 1_555
C14 C13 1_555 1_555
H19 C14 1_555 1_555
H20 C14 1_555 1_555
C15 H21 1_555 1_555
H22 C15 1_555 1_555
C16 C15 1_555 1_555
H23 C16 1_555 1_555
H24 C16 1_555 1_555
N1 C7 1_555 1_555
N2 C6 1_555 1_555
N3 Cu1 1_555 1_555
H25 N3 1_555 1_555
H26 N3 1_555 1_555
N4 Cu1 1_555 1_555
N5 Cu1 1_555 1_555
H27 N5 1_555 1_555
H28 N5 1_555 1_555
N6 Cu1 1_555 1_555
N7 C9 1_555 1_555
N8 C12 1_555 1_555
N9 C14 1_555 1_555
H29 N9 1_555 1_555
H30 N9 1_555 1_555
N10 C16 1_555 1_555
H31 N10 1_555 1_555
H32 N10 1_555 1_555
O2 Cl1 1_555 1_555
O3 Cl1 1_555 1_555
O4 Cl1 1_555 1_555
O6 Cl2 1_555 1_555
O7 Cl2 1_555 1_555
O8 Cl2 1_555 1_555
Cu2_2 N7 1_555 1_555
N7_2 Cu2 1_555 1_555
N8_2 Cu2 1_555 1_555
N9_2 Cu2 1_555 1_555
H29_2 N9_2 1_555 1_555
H30_2 N9_2 1_555 1_555
N10_2 Cu2 1_555 1_555
H31_2 N10_2 1_555 1_555
H32_2 N10_2 1_555 1_555
C1 N3 1_555 1_555
C2 N4 1_555 1_555
C3 N5 1_555 1_555
C4 N4 1_555 1_555
C5 N4 1_555 1_555
C8 N1 1_555 1_555
C8 N2 1_555 1_555
C9 N6 1_555 1_555
C10 N6 1_555 1_555
C11 N7 1_555 1_555
C13 N8 1_555 1_555
C15 N8 1_555 1_555
N8 Cu2_2 1_555 1_555
N9 Cu2_2 1_555 1_555
N10 Cu2_2 1_555 1_555

#END
