
#######################################################################
#
#                 Cambridge Crystallographic Data Centre
#                                CCDC 
#
#######################################################################
#
# If this CIF has been generated from an entry in the Cambridge 
# Structural Database, then it will include bibliographic, chemical, 
# crystal, experimental, refinement or atomic coordinate data resulting 
# from the CCDC's data processing and validation procedures.
#
#######################################################################

data_NOHBUJ
_symmetry_cell_setting           monoclinic
_symmetry_space_group_name_H-M   'P 21/c'
_symmetry_Int_Tables_number      14
_space_group_name_Hall           '-P 2ybc'
loop_
_symmetry_equiv_pos_site_id
_symmetry_equiv_pos_as_xyz
1 x,y,z
2 -x,1/2+y,1/2-z
3 -x,-y,-z
4 x,1/2-y,1/2+z
_cell_length_a                   16.982(4)
_cell_length_b                   10.725(2)
_cell_length_c                   22.521(4)
_cell_angle_alpha                90
_cell_angle_beta                 128.552(11)
_cell_angle_gamma                90
_cell_volume                     3207.78
loop_
_atom_site_label
_atom_site_type_symbol
_atom_site_fract_x
_atom_site_fract_y
_atom_site_fract_z
Cd1 Cd -0.159861(16) 0.559617(18) 0.515107(12)
O1 O 0.15791(19) 0.4673(2) 0.86319(14)
O2 O 0.6864(2) 0.4917(2) 1.19793(14)
O3 O -0.06312(19) 0.7376(2) 0.56770(13)
O4 O -0.1449(2) 0.7125(2) 0.44656(14)
O5 O -0.3195(2) 0.5771(3) 0.46958(16)
O6 O -0.23424(18) 0.5550(2) 0.59190(16)
N1 N -0.0533(2) 0.4315(2) 0.61327(15)
N2 N 0.02409(19) 0.3293(2) 0.72042(14)
N3 N 0.8069(2) 0.3424(3) 1.33553(15)
N4 N 0.8171(2) 0.4208(2) 1.42973(15)
C1 C -0.0392(2) 0.4204(3) 0.67769(18)
H1 H -0.0700 0.4708 0.6914
C2 C 0.0051(3) 0.3406(3) 0.6164(2)
H2 H 0.0113 0.3248 0.5788
C3 C 0.0523(3) 0.2773(4) 0.6816(2)
H3 H 0.0960 0.2104 0.6971
C4 C 0.0573(3) 0.2922(3) 0.79509(18)
H4 H 0.0548 0.2020 0.7970
H5 H 0.0113 0.3263 0.8028
C5 C 0.1613(3) 0.3353(3) 0.85755(19)
H6 H 0.1855 0.2961 0.9050
H7 H 0.2064 0.3134 0.8466
C6 C 0.2439(3) 0.5228(3) 0.9230(2)
C7 C 0.2345(3) 0.6509(3) 0.9300(2)
H8 H 0.1726 0.6901 0.8962
C8 C 0.3154(3) 0.7170(3) 0.9858(2)
H9 H 0.3084 0.8021 0.9893
C9 C 0.4099(3) 0.6611(3) 1.0388(2)
C10 C 0.4190(3) 0.5311(3) 1.0325(2)
C11 C 0.3343(3) 0.4644(3) 0.97341(19)
H10 H 0.3398 0.3794 0.9685
C12 C 0.5124(3) 0.4728(3) 1.08508(19)
H11 H 0.5190 0.3879 1.0807
C13 C 0.5932(3) 0.5389(3) 1.1424(2)
C14 C 0.5850(4) 0.6679(4) 1.1483(2)
H12 H 0.6409 0.7131 1.1870
C15 C 0.4965(4) 0.7262(3) 1.0979(3)
H13 H 0.4923 0.8118 1.1024
C16 C 0.7027(3) 0.3618(3) 1.1979(2)
H14 H 0.6992 0.3400 1.1545
H15 H 0.6518 0.3145 1.1952
C17 C 0.8045(3) 0.3329(4) 1.2698(2)
H16 H 0.8236 0.2492 1.2671
H17 H 0.8531 0.3905 1.2759
C18 C 0.7878(3) 0.2485(3) 1.3650(2)
H18 H 0.7727 0.1663 1.3483
C19 C 0.8239(3) 0.4440(3) 1.37598(18)
H19 H 0.8388 0.5219 1.3671
C20 C 0.7946(3) 0.2965(3) 1.4228(2)
H20 H 0.7856 0.2522 1.4537
C21 C -0.0868(2) 0.7734(3) 0.50589(19)
C22 C -0.0429(2) 0.8922(2) 0.50295(17)
C23 C -0.0630(3) 0.9291(3) 0.43572(18)
H21 H -0.1060 0.8816 0.3920
C24 C 0.0197(3) 0.9644(3) 0.56699(18)
H22 H 0.0329 0.9412 0.6122
C25 C -0.3138(3) 0.5569(3) 0.5270(2)
C26 C -0.4112(2) 0.5301(3) 0.51289(19)
C27 C -0.4102(3) 0.4567(3) 0.5643(2)
H23 H -0.3494 0.4275 0.6079
C28 C -0.5012(2) 0.5724(3) 0.44947(19)
H24 H -0.5025 0.6218 0.4150
O3B O 0.06312(19) 1.2624(2) 0.43230(13)
O4B O 0.1449(2) 1.2875(2) 0.55344(14)
C21B C 0.0868(2) 1.2266(3) 0.49411(19)
C22B C 0.0429(2) 1.1078(2) 0.49705(17)
C23B C 0.0630(3) 1.0709(3) 0.56428(18)
H21B H 0.1060 1.1184 0.6080
C24B C -0.0197(3) 1.0356(3) 0.43301(18)
H22B H -0.0329 1.0588 0.3878
O5B O -0.6805(2) 0.4229(3) 0.53042(16)
O6B O -0.76576(18) 0.4450(2) 0.40810(16)
C25B C -0.6862(3) 0.4431(3) 0.4730(2)
C26B C -0.5888(2) 0.4699(3) 0.48711(19)
C27B C -0.5898(3) 0.5433(3) 0.4357(2)
H23B H -0.6506 0.5725 0.3921
C28B C -0.4988(2) 0.4276(3) 0.55053(19)
H24B H -0.4975 0.3782 0.5850
Cd1B Cd -0.840139(16) 0.440383(18) 0.484893(12)
O1B O -1.15791(19) 0.5327(2) 0.13681(14)
O2B O -1.6864(2) 0.5083(2) -0.19793(14)
N1B N -0.9467(2) 0.5685(2) 0.38673(15)
N2B N -1.02409(19) 0.6707(2) 0.27958(14)
N3B N -1.8069(2) 0.6576(3) -0.33553(15)
N4B N -1.8171(2) 0.5792(2) -0.42973(15)
C1B C -0.9608(2) 0.5796(3) 0.32231(18)
H1B H -0.9300 0.5292 0.3086
C2B C -1.0051(3) 0.6594(3) 0.3836(2)
H2B H -1.0113 0.6752 0.4212
C3B C -1.0523(3) 0.7227(4) 0.3184(2)
H3B H -1.0960 0.7896 0.3029
C4B C -1.0573(3) 0.7078(3) 0.20491(18)
H4B H -1.0548 0.7980 0.2030
H5B H -1.0113 0.6737 0.1972
C5B C -1.1613(3) 0.6647(3) 0.14245(19)
H6B H -1.1855 0.7039 0.0950
H7B H -1.2064 0.6866 0.1534
C6B C -1.2439(3) 0.4772(3) 0.0770(2)
C7B C -1.2345(3) 0.3491(3) 0.0700(2)
H8B H -1.1726 0.3099 0.1038
C8B C -1.3154(3) 0.2830(3) 0.0142(2)
H9B H -1.3084 0.1979 0.0107
C9B C -1.4099(3) 0.3389(3) -0.0388(2)
C10B C -1.4190(3) 0.4689(3) -0.0325(2)
C11B C -1.3343(3) 0.5356(3) 0.02659(19)
H10B H -1.3398 0.6206 0.0315
C12B C -1.5124(3) 0.5272(3) -0.08508(19)
H11B H -1.5190 0.6121 -0.0807
C13B C -1.5932(3) 0.4611(3) -0.1424(2)
C14B C -1.5850(4) 0.3321(4) -0.1483(2)
H12B H -1.6409 0.2869 -0.1870
C15B C -1.4965(4) 0.2738(3) -0.0979(3)
H13B H -1.4923 0.1882 -0.1024
C16B C -1.7027(3) 0.6382(3) -0.1979(2)
H14B H -1.6992 0.6600 -0.1545
H15B H -1.6518 0.6855 -0.1952
C17B C -1.8045(3) 0.6671(4) -0.2698(2)
H16B H -1.8236 0.7508 -0.2671
H17B H -1.8531 0.6095 -0.2759
C18B C -1.7878(3) 0.7515(3) -0.3650(2)
H18B H -1.7727 0.8337 -0.3483
C19B C -1.8239(3) 0.5560(3) -0.37598(18)
H19B H -1.8388 0.4781 -0.3671
C20B C -1.7946(3) 0.7035(3) -0.4228(2)
H20B H -1.7856 0.7478 -0.4537
Cd1_2 Cd 0.840139(16) 0.559617(18) 1.515107(12)
Cd1B_2 Cd -1.840139(16) 0.440383(18) -0.515107(12)
Cd1B_3 Cd 0.159861(16) 1.440383(18) 0.484893(12)
O3B_2 O -0.93688(19) 0.2624(2) 0.43230(13)
O4B_2 O -0.8551(2) 0.2875(2) 0.55344(14)
N4_2 N -0.1829(2) 0.4208(2) 0.42973(15)
N4B_2 N -0.8171(2) 0.5792(2) 0.57027(15)
O7 O 0.6697(4) 0.9973(5) 0.2521(2)
N5 N 0.5781(4) 0.9002(5) 0.2774(3)
C29 C 0.5925(9) 0.8056(10) 0.3278(6)
H25 H 0.6267 0.7359 0.3263
H26 H 0.5283 0.7790 0.3126
H27 H 0.6323 0.8382 0.3786
C30 C 0.4836(8) 0.9494(10) 0.2325(6)
H28 H 0.4727 0.9922 0.1905
H29 H 0.4765 1.0069 0.2615
H30 H 0.4351 0.8836 0.2138
C31 C 0.6428(9) 0.9291(10) 0.2717(7)
H31 H 0.6897 0.8647 0.2939
O8 O 0.8218(2) 0.5108(4) 0.73760(18)
H32 H 0.7773 0.5201 0.7388
H33 H 0.7908 0.5445 0.6880
loop_
_geom_bond_atom_site_label_1
_geom_bond_atom_site_label_2
_geom_bond_site_symmetry_1
_geom_bond_site_symmetry_2
Cd1 O3 1_555 1_555
O1 C5 1_555 1_555
O2 C13 1_555 1_555
O3 C21 1_555 1_555
O4 Cd1 1_555 1_555
O5 Cd1 1_555 1_555
O6 Cd1 1_555 1_555
N1 Cd1 1_555 1_555
N2 C1 1_555 1_555
N3 C17 1_555 1_555
N4 C19 1_555 1_555
C1 N1 1_555 1_555
H1 C1 1_555 1_555
C2 N1 1_555 1_555
H2 C2 1_555 1_555
C3 N2 1_555 1_555
H3 C3 1_555 1_555
C4 N2 1_555 1_555
H4 C4 1_555 1_555
H5 C4 1_555 1_555
C5 C4 1_555 1_555
H6 C5 1_555 1_555
H7 C5 1_555 1_555
C6 O1 1_555 1_555
C7 C6 1_555 1_555
H8 C7 1_555 1_555
C8 C7 1_555 1_555
H9 C8 1_555 1_555
C9 C8 1_555 1_555
C10 C9 1_555 1_555
C11 C6 1_555 1_555
H10 C11 1_555 1_555
C12 C10 1_555 1_555
H11 C12 1_555 1_555
C13 C12 1_555 1_555
C14 C13 1_555 1_555
H12 C14 1_555 1_555
C15 C9 1_555 1_555
H13 C15 1_555 1_555
C16 O2 1_555 1_555
H14 C16 1_555 1_555
H15 C16 1_555 1_555
C17 C16 1_555 1_555
H16 C17 1_555 1_555
H17 C17 1_555 1_555
C18 N3 1_555 1_555
H18 C18 1_555 1_555
C19 N3 1_555 1_555
H19 C19 1_555 1_555
C20 N4 1_555 1_555
H20 C20 1_555 1_555
C21 O4 1_555 1_555
C22 C21 1_555 1_555
C23 C22 1_555 1_555
H21 C23 1_555 1_555
C24 C22 1_555 1_555
H22 C24 1_555 1_555
C25 O5 1_555 1_555
C26 C25 1_555 1_555
C27 C26 1_555 1_555
H23 C27 1_555 1_555
C28 C26 1_555 1_555
H24 C28 1_555 1_555
O7 C31 1_555 1_555
N5 C29 1_555 1_555
C29 H25 1_555 1_555
H26 C29 1_555 1_555
H27 C29 1_555 1_555
C30 N5 1_555 1_555
H28 C30 1_555 1_555
H29 C30 1_555 1_555
H30 C30 1_555 1_555
C31 N5 1_555 1_555
H31 C31 1_555 1_555
O8 H32 1_555 1_555
H33 O8 1_555 1_555
O3B C21B 1_555 1_555
O4B C21B 1_555 1_555
C21B C22B 1_555 1_555
C22B C23B 1_555 1_555
C23B C24 1_555 1_555
H21B C23B 1_555 1_555
C24B C23 1_555 1_555
H22B C24B 1_555 1_555
O5B C25B 1_555 1_555
O6B C25B 1_555 1_555
C25B C26B 1_555 1_555
C26B C27B 1_555 1_555
C27B C28 1_555 1_555
H23B C27B 1_555 1_555
C28B C27 1_555 1_555
H24B C28B 1_555 1_555
Cd1B O5B 1_555 1_555
O1B C5B 1_555 1_555
O2B C13B 1_555 1_555
N1B Cd1B 1_555 1_555
N2B C1B 1_555 1_555
N3B C17B 1_555 1_555
N4B C19B 1_555 1_555
C1B N1B 1_555 1_555
H1B C1B 1_555 1_555
C2B N1B 1_555 1_555
H2B C2B 1_555 1_555
C3B N2B 1_555 1_555
H3B C3B 1_555 1_555
C4B N2B 1_555 1_555
H4B C4B 1_555 1_555
H5B C4B 1_555 1_555
C5B C4B 1_555 1_555
H6B C5B 1_555 1_555
H7B C5B 1_555 1_555
C6B O1B 1_555 1_555
C7B C6B 1_555 1_555
H8B C7B 1_555 1_555
C8B C7B 1_555 1_555
H9B C8B 1_555 1_555
C9B C8B 1_555 1_555
C10B C9B 1_555 1_555
C11B C6B 1_555 1_555
H10B C11B 1_555 1_555
C12B C10B 1_555 1_555
H11B C12B 1_555 1_555
C13B C12B 1_555 1_555
C14B C13B 1_555 1_555
H12B C14B 1_555 1_555
C15B C9B 1_555 1_555
H13B C15B 1_555 1_555
C16B O2B 1_555 1_555
H14B C16B 1_555 1_555
H15B C16B 1_555 1_555
C17B C16B 1_555 1_555
H16B C17B 1_555 1_555
H17B C17B 1_555 1_555
C18B N3B 1_555 1_555
H18B C18B 1_555 1_555
C19B N3B 1_555 1_555
H19B C19B 1_555 1_555
C20B N4B 1_555 1_555
H20B C20B 1_555 1_555
Cd1_2 N4 1_555 1_555
Cd1B_2 N4B 1_555 1_555
Cd1B_3 O3B 1_555 1_555
O3B_2 Cd1B 1_555 1_555
O4B_2 Cd1B 1_555 1_555
N4_2 Cd1 1_555 1_555
N4B_2 Cd1B 1_555 1_555
O6 C25 1_555 1_555
C2 C3 1_555 1_555
C10 C11 1_555 1_555
C14 C15 1_555 1_555
C18 C20 1_555 1_555
O4B Cd1B_3 1_555 1_555
C22B C24B 1_555 1_555
O6B Cd1B 1_555 1_555
C26B C28B 1_555 1_555
C2B C3B 1_555 1_555
C10B C11B 1_555 1_555
C14B C15B 1_555 1_555
C18B C20B 1_555 1_555

#END
