
#######################################################################
#
#                 Cambridge Crystallographic Data Centre
#                                CCDC 
#
#######################################################################
#
# If this CIF has been generated from an entry in the Cambridge 
# Structural Database, then it will include bibliographic, chemical, 
# crystal, experimental, refinement or atomic coordinate data resulting 
# from the CCDC's data processing and validation procedures.
#
#######################################################################

data_NOHFUM
_symmetry_cell_setting           triclinic
_symmetry_space_group_name_H-M   'P -1'
_symmetry_Int_Tables_number      2
_space_group_name_Hall           '-P 1'
loop_
_symmetry_equiv_pos_site_id
_symmetry_equiv_pos_as_xyz
1 x,y,z
2 -x,-y,-z
_cell_length_a                   6.44560(10)
_cell_length_b                   12.0131(3)
_cell_length_c                   16.4256(4)
_cell_angle_alpha                107.8710(10)
_cell_angle_beta                 97.0740(10)
_cell_angle_gamma                93.477(2)
_cell_volume                     1194.74
loop_
_atom_site_label
_atom_site_type_symbol
_atom_site_fract_x
_atom_site_fract_y
_atom_site_fract_z
Gd1 Gd 0.16553(2) 0.005446(12) 0.819457(9)
O1 O 0.5106(4) 0.1345(2) 0.88371(18)
C1 C 0.1487(5) -0.1157(3) 0.4900(2)
H1 H 0.0369 -0.1619 0.4981
O2 O -0.0346(4) -0.1683(2) 0.81780(18)
O3 O 0.2206(4) 0.2202(2) 0.87884(17)
O4 O -0.0959(4) 0.0822(2) 0.92220(16)
O5 O 0.3223(4) 0.0483(2) 0.70403(16)
O7 O 0.2860(4) 0.0031(3) 0.96596(19)
C2 C 0.4583(5) 0.4416(3) 0.9946(2)
O8 O 0.4527(4) -0.1238(2) 0.80989(18)
O9 O 0.1541(4) -0.1296(2) 0.66244(17)
C3 C 0.1513(5) -0.0978(3) 0.4100(2)
H2 H 0.0408 -0.1325 0.3655
C4 C 0.2642(5) -0.0504(3) 0.6465(2)
O10 O 0.3540(4) 0.1164(2) 0.32718(17)
O11 O 0.0583(4) 0.2766(2) 1.06216(18)
O12 O 0.1348(4) -0.0451(2) 0.25672(16)
C5 C 0.5370(5) 0.3454(3) 0.9342(2)
O14 O 0.3977(4) 0.2511(3) 1.0718(2)
C6 C 0.3115(5) -0.0651(3) 0.5571(2)
C7 C 0.3152(5) -0.0295(3) 0.3958(2)
C8 C 0.4185(5) 0.2255(3) 0.8991(2)
C9 C 0.2480(5) 0.3077(3) 1.0589(2)
C10 C 0.7892(6) 0.4818(3) 0.9079(3)
H3 H 0.9056 0.4945 0.8823
C11 C 0.2684(5) 0.0166(3) 0.3202(2)
C12 C 0.7074(6) 0.3660(3) 0.8962(3)
H4 H 0.7687 0.3031 0.8626
C13 C 0.2977(5) 0.4246(3) 1.0445(2)
C14 C 0.5008(4) -0.0103(2) 0.54120(17)
Gd1A Gd 0.83447(2) 0.994554(12) 1.180543(9)
Gd1A_2 Gd -0.16553(2) -0.005446(12) 0.180543(9)
Gd1_2 Gd 1.16553(2) 0.005446(12) 0.819457(9)
Gd1A_3 Gd 0.83447(2) -0.005446(12) 0.180543(9)
O1A O 0.4894(4) 0.8655(2) 1.11629(18)
C1A C 0.8513(5) 0.1157(3) 0.5100(2)
H1A H 0.9631 0.1619 0.5019
O2A O 1.0346(4) 1.1683(2) 1.18220(18)
O3A O 0.7794(4) 0.7798(2) 1.12116(17)
O4A O 1.0959(4) 0.9178(2) 1.07780(16)
O5A O 0.6777(4) -0.0483(2) 0.29597(16)
O5A_2 O 0.6777(4) 0.9517(2) 1.29597(16)
O7A O 0.7140(4) 0.9969(3) 1.03404(19)
C2A C 0.5417(5) 0.5584(3) 1.0054(2)
O8A O 0.5473(4) 1.1238(2) 1.19011(18)
O9A O 0.8459(4) 0.1296(2) 0.33756(17)
O9A_2 O 0.8459(4) 1.1296(2) 1.33756(17)
C3A C 0.8487(5) 0.0978(3) 0.5900(2)
H2A H 0.9592 0.1325 0.6345
C4A C 0.7358(5) 0.0504(3) 0.3535(2)
O10A O 0.6460(4) -0.1164(2) 0.67282(17)
O11A O 0.9417(4) 0.7234(2) 0.93784(18)
O12A O 0.8652(4) 0.0451(2) 0.74328(16)
O12A_2 O -0.1348(4) 0.0451(2) 0.74328(16)
O12_2 O 1.1348(4) 0.9549(2) 1.25672(16)
C5A C 0.4630(5) 0.6546(3) 1.0658(2)
O14A O 0.6023(4) 0.7489(3) 0.9282(2)
C6A C 0.6885(5) 0.0651(3) 0.4429(2)
C7A C 0.6848(5) 0.0295(3) 0.6042(2)
C8A C 0.5815(5) 0.7745(3) 1.1009(2)
C9A C 0.7520(5) 0.6923(3) 0.9411(2)
C10A C 0.2108(6) 0.5182(3) 1.0921(3)
H3A H 0.0944 0.5055 1.1177
C11A C 0.7316(5) -0.0166(3) 0.6798(2)
C12A C 0.2926(6) 0.6340(3) 1.1038(3)
H4A H 0.2313 0.6969 1.1374
C13A C 0.7023(5) 0.5754(3) 0.9555(2)
C14A C 0.4992(4) 0.0103(2) 0.45880(17)
O6 O -0.0613(4) -0.3647(3) 0.57734(16)
O13 O 0.2748(6) 0.3667(3) 1.3069(2)
O15 O -0.2549(6) 0.3570(3) 1.3215(3)
O16 O -0.3510(6) -0.2928(3) 0.5148(3)
O17 O -0.1808(7) 0.4166(4) 0.5210(3)
O18 O -0.2200(5) 0.3969(3) 0.6819(2)
O19 O 0.1494(5) 0.3673(3) 0.7754(2)
O20 O 1.2369(5) 0.6070(3) 0.8427(2)
O21 O 0.3991(5) 0.2575(3) 0.6539(2)
loop_
_geom_bond_atom_site_label_1
_geom_bond_atom_site_label_2
_geom_bond_site_symmetry_1
_geom_bond_site_symmetry_2
Gd1 O1 1_555 1_555
O1 C8 1_555 1_555
C1 H1 1_555 1_555
O2 Gd1 1_555 1_555
O3 Gd1 1_555 1_555
O4 Gd1 1_555 1_555
O5 Gd1 1_555 1_555
O7 Gd1 1_555 1_555
C2 C5 1_555 1_555
O8 Gd1 1_555 1_555
O9 Gd1 1_555 1_555
C3 C1 1_555 1_555
H2 C3 1_555 1_555
C4 O5 1_555 1_555
O10 C11 1_555 1_555
O11 C9 1_555 1_555
O12 C11 1_555 1_555
C5 C8 1_555 1_555
O14 C9 1_555 1_555
C6 C1 1_555 1_555
C7 C3 1_555 1_555
C8 O3 1_555 1_555
C9 C13 1_555 1_555
C10 H3 1_555 1_555
C11 C7 1_555 1_555
C12 C5 1_555 1_555
H4 C12 1_555 1_555
C13 C2 1_555 1_555
C14 C6 1_555 1_555
Gd1A O1A 1_555 1_555
Gd1A_2 O12 1_555 1_555
Gd1_2 O12A 1_555 1_555
Gd1A_3 O5A 1_555 1_555
O1A C8A 1_555 1_555
C1A H1A 1_555 1_555
O2A Gd1A 1_555 1_555
O3A Gd1A 1_555 1_555
O4A Gd1A 1_555 1_555
O5A C4A 1_555 1_555
O5A_2 Gd1A 1_555 1_555
O7A Gd1A 1_555 1_555
C2A C2 1_555 1_555
O8A Gd1A 1_555 1_555
O9A Gd1A_3 1_555 1_555
O9A_2 Gd1A 1_555 1_555
C3A C1A 1_555 1_555
H2A C3A 1_555 1_555
C4A O9A 1_555 1_555
O10A C11A 1_555 1_555
O11A C9A 1_555 1_555
O12A C11A 1_555 1_555
O12A_2 Gd1 1_555 1_555
O12_2 Gd1A 1_555 1_555
C5A C2A 1_555 1_555
O14A C9A 1_555 1_555
C6A C1A 1_555 1_555
C7A C14 1_555 1_555
C8A O3A 1_555 1_555
C9A C13A 1_555 1_555
C10A C13 1_555 1_555
H3A C10A 1_555 1_555
C11A C7A 1_555 1_555
C12A C5A 1_555 1_555
H4A C12A 1_555 1_555
C13A C10 1_555 1_555
C14A C7 1_555 1_555
O9 C4 1_555 1_555
C4 C6 1_555 1_555
C10 C12 1_555 1_555
C14 C14A 1_555 1_555
C2A C13A 1_555 1_555
C3A C7A 1_555 1_555
C4A C6A 1_555 1_555
C5A C8A 1_555 1_555
C6A C14A 1_555 1_555
C10A C12A 1_555 1_555

#END
