
#######################################################################
#
#                 Cambridge Crystallographic Data Centre
#                                CCDC 
#
#######################################################################
#
# If this CIF has been generated from an entry in the Cambridge 
# Structural Database, then it will include bibliographic, chemical, 
# crystal, experimental, refinement or atomic coordinate data resulting 
# from the CCDC's data processing and validation procedures.
#
#######################################################################

data_NOHGEX
_symmetry_cell_setting           triclinic
_symmetry_space_group_name_H-M   'P -1'
_symmetry_Int_Tables_number      2
_space_group_name_Hall           '-P 1'
loop_
_symmetry_equiv_pos_site_id
_symmetry_equiv_pos_as_xyz
1 x,y,z
2 -x,-y,-z
_cell_length_a                   7.5312(3)
_cell_length_b                   9.0288(3)
_cell_length_c                   13.1144(6)
_cell_angle_alpha                92.6010(10)
_cell_angle_beta                 94.9180(10)
_cell_angle_gamma                112.182(2)
_cell_volume                     819.783
loop_
_atom_site_label
_atom_site_type_symbol
_atom_site_fract_x
_atom_site_fract_y
_atom_site_fract_z
Y1 Y 0.74599(4) 0.49713(3) 0.64551(2)
C1 C 0.8419(5) 1.0311(4) 0.5240(3)
H1 H 0.7353 1.0525 0.5394
O1 O 0.5991(3) 0.6597(3) 0.5803(2)
O2 O 1.1551(3) 1.4413(3) 0.5168(2)
O3 O 0.9148(4) 1.3376(3) 0.6125(2)
O4 O 0.4981(4) 0.7280(3) 0.4329(2)
O5 O 0.7976(5) 0.3854(4) 0.7997(2)
O6 O 1.0392(4) 0.6958(3) 0.6942(3)
O7 O 0.4571(5) 0.4468(5) 0.7411(3)
O8 O 0.7057(5) 0.6606(4) 0.7922(3)
N1 N 1.3255(5) 0.8993(4) 0.7287(3)
C2 C 0.6263(5) 0.7417(4) 0.5044(3)
C3 C 0.8214(5) 0.8733(4) 0.5013(3)
C4 C 1.0307(5) 1.3265(4) 0.5523(3)
C5 C 1.1125(12) 0.2582(11) 0.9592(6)
H2 H 1.0960 0.2156 1.0251
H3 H 1.2269 0.3545 0.9649
H4 H 1.1245 0.1806 0.9107
C6 C 1.0188(5) 1.1576(4) 0.5240(2)
N2 N 0.9451(7) 0.2949(5) 0.9241(3)
C7 C 1.2174(6) 0.7522(5) 0.6941(3)
H5 H 1.2761 0.6867 0.6684
C8 C 1.5348(7) 0.9609(6) 0.7328(5)
H6 H 1.5880 1.0710 0.7603
H7 H 1.5707 0.9535 0.6648
H8 H 1.5839 0.8987 0.7759
N3 N 0.5345(7) 0.5726(6) 0.8021(3)
O9 O 0.4466(8) 0.6094(8) 0.8665(4)
C9 C 0.9366(7) 0.3551(6) 0.8349(3)
H9 H 1.0405 0.3758 0.7966
C10 C 1.2416(8) 1.0076(6) 0.7677(4)
H10 H 1.3422 1.1101 0.7897
H11 H 1.1731 0.9642 0.8249
H12 H 1.1540 1.0204 0.7145
C11 C 0.7951(12) 0.2659(9) 0.9899(5)
H13 H 0.8274 0.2222 1.0509
H14 H 0.6756 0.1911 0.9546
H15 H 0.7818 0.3650 1.0084
Y1A Y 1.25401(4) 1.50287(3) 0.35449(2)
Y1_2 Y 0.74599(4) 1.49713(3) 0.64551(2)
Y1A_2 Y 0.25401(4) 0.50287(3) 0.35449(2)
Y1_3 Y 1.74599(4) 1.49713(3) 0.64551(2)
Y1A_3 Y 1.25401(4) 0.50287(3) 0.35449(2)
C1A C 1.1581(5) 0.9689(4) 0.4760(3)
H1A H 1.2647 0.9475 0.4606
O1A O 1.4009(3) 1.3403(3) 0.4197(2)
O2A O 0.8449(3) 0.5587(3) 0.4832(2)
O3A O 1.0852(4) 0.6624(3) 0.3875(2)
O3_2 O 0.9148(4) 0.3376(3) 0.6125(2)
O3A_2 O 1.0852(4) 1.6624(3) 0.3875(2)
O4A O 1.5019(4) 1.2720(3) 0.5671(2)
O4A_2 O 0.5019(4) 0.2720(3) 0.5671(2)
O4_2 O 1.4981(4) 1.7280(3) 0.4329(2)
O5A O 1.2024(5) 1.6146(4) 0.2003(2)
O6A O 0.9608(4) 1.3042(3) 0.3058(3)
O7A O 1.5429(5) 1.5532(5) 0.2589(3)
O8A O 1.2943(5) 1.3394(4) 0.2078(3)
N1A N 0.6745(5) 1.1007(4) 0.2713(3)
C2A C 1.3737(5) 1.2583(4) 0.4956(3)
C3A C 1.1786(5) 1.1267(4) 0.4987(3)
C4A C 0.9693(5) 0.6735(4) 0.4477(3)
C5A C 0.8875(12) 1.7418(11) 0.0408(6)
H2A H 0.9040 1.7844 -0.0251
H3A H 0.7731 1.6455 0.0351
H4A H 0.8755 1.8194 0.0893
C6A C 0.9812(5) 0.8424(4) 0.4760(2)
N2A N 1.0549(7) 1.7051(5) 0.0759(3)
C7A C 0.7826(6) 1.2478(5) 0.3059(3)
H5A H 0.7239 1.3133 0.3316
C8A C 0.4652(7) 1.0391(6) 0.2672(5)
H6A H 0.4120 0.9290 0.2397
H7A H 0.4293 1.0465 0.3352
H8A H 0.4161 1.1013 0.2241
N3A N 1.4655(7) 1.4274(6) 0.1979(3)
O9A O 1.5534(8) 1.3906(8) 0.1335(4)
C9A C 1.0634(7) 1.6449(6) 0.1651(3)
H9A H 0.9595 1.6242 0.2034
C10A C 0.7584(8) 0.9924(6) 0.2323(4)
H10A H 0.6578 0.8899 0.2103
H11A H 0.8269 1.0358 0.1751
H12A H 0.8460 0.9796 0.2855
C11A C 1.2049(12) 1.7341(9) 0.0101(5)
H13A H 1.1726 1.7778 -0.0509
H14A H 1.3244 1.8089 0.0454
H15A H 1.2182 1.6350 -0.0084
loop_
_geom_bond_atom_site_label_1
_geom_bond_atom_site_label_2
_geom_bond_site_symmetry_1
_geom_bond_site_symmetry_2
Y1 O1 1_555 1_555
C1 H1 1_555 1_555
O1 C2 1_555 1_555
O2 C4 1_555 1_555
O3 C4 1_555 1_555
O4 C2 1_555 1_555
O5 Y1 1_555 1_555
O6 Y1 1_555 1_555
O7 Y1 1_555 1_555
O8 Y1 1_555 1_555
N1 C7 1_555 1_555
C2 C3 1_555 1_555
C3 C1 1_555 1_555
C4 C6 1_555 1_555
C5 H2 1_555 1_555
H3 C5 1_555 1_555
H4 C5 1_555 1_555
C6 C1 1_555 1_555
N2 C5 1_555 1_555
C7 O6 1_555 1_555
H5 C7 1_555 1_555
C8 N1 1_555 1_555
H6 C8 1_555 1_555
H7 C8 1_555 1_555
H8 C8 1_555 1_555
N3 O7 1_555 1_555
O9 N3 1_555 1_555
C9 O5 1_555 1_555
H9 C9 1_555 1_555
C10 N1 1_555 1_555
H10 C10 1_555 1_555
H11 C10 1_555 1_555
H12 C10 1_555 1_555
C11 N2 1_555 1_555
H13 C11 1_555 1_555
H14 C11 1_555 1_555
H15 C11 1_555 1_555
Y1A O2 1_555 1_555
Y1_2 O3 1_555 1_555
Y1A_2 O4 1_555 1_555
Y1_3 O4A 1_555 1_555
Y1A_3 O3A 1_555 1_555
C1A H1A 1_555 1_555
O1A Y1A 1_555 1_555
O2A Y1 1_555 1_555
O3A C4A 1_555 1_555
O3_2 Y1 1_555 1_555
O3A_2 Y1A 1_555 1_555
O4A C2A 1_555 1_555
O4A_2 Y1 1_555 1_555
O4_2 Y1A 1_555 1_555
O5A Y1A 1_555 1_555
O6A Y1A 1_555 1_555
O7A Y1A 1_555 1_555
O8A Y1A 1_555 1_555
N1A C7A 1_555 1_555
C2A O1A 1_555 1_555
C3A C6 1_555 1_555
C4A O2A 1_555 1_555
C5A H2A 1_555 1_555
H3A C5A 1_555 1_555
H4A C5A 1_555 1_555
C6A C3 1_555 1_555
N2A C5A 1_555 1_555
C7A O6A 1_555 1_555
H5A C7A 1_555 1_555
C8A N1A 1_555 1_555
H6A C8A 1_555 1_555
H7A C8A 1_555 1_555
H8A C8A 1_555 1_555
N3A O7A 1_555 1_555
O9A N3A 1_555 1_555
C9A O5A 1_555 1_555
H9A C9A 1_555 1_555
C10A N1A 1_555 1_555
H10A C10A 1_555 1_555
H11A C10A 1_555 1_555
H12A C10A 1_555 1_555
C11A N2A 1_555 1_555
H13A C11A 1_555 1_555
H14A C11A 1_555 1_555
H15A C11A 1_555 1_555
O8 N3 1_555 1_555
N2 C9 1_555 1_555
C1A C3A 1_555 1_555
C1A C6A 1_555 1_555
O8A N3A 1_555 1_555
C2A C3A 1_555 1_555
C4A C6A 1_555 1_555
N2A C9A 1_555 1_555

#END
