
#######################################################################
#
#                 Cambridge Crystallographic Data Centre
#                                CCDC 
#
#######################################################################
#
# If this CIF has been generated from an entry in the Cambridge 
# Structural Database, then it will include bibliographic, chemical, 
# crystal, experimental, refinement or atomic coordinate data resulting 
# from the CCDC's data processing and validation procedures.
#
#######################################################################

data_NOHHEY
_symmetry_cell_setting           orthorhombic
_symmetry_space_group_name_H-M   'P 21 21 2'
_symmetry_Int_Tables_number      18
_space_group_name_Hall           'P 2 2ab'
loop_
_symmetry_equiv_pos_site_id
_symmetry_equiv_pos_as_xyz
1 x,y,z
2 -x,-y,z
3 1/2-x,1/2+y,-z
4 1/2+x,1/2-y,-z
_cell_length_a                   5.3321(9)
_cell_length_b                   7.4268(12)
_cell_length_c                   15.101(2)
_cell_angle_alpha                90
_cell_angle_beta                 90
_cell_angle_gamma                90
_cell_volume                     598.006
loop_
_atom_site_label
_atom_site_type_symbol
_atom_site_fract_x
_atom_site_fract_y
_atom_site_fract_z
Ge1 Ge 0.7385(3) 0.62084(16) 0.92141(9)
Ge2 Ge 1.0000 1.0000 0.89078(13)
C1 C 0.864(3) 1.035(2) 0.7034(10)
H1 H 0.7522 0.9305 0.7016
C2 C 0.812(3) 1.146(2) 0.6218(9)
H2 H 0.6375 1.1827 0.6211
H3 H 0.9148 1.2540 0.6227
C3 C 0.869(3) 1.040(2) 0.5411(12)
H4 H 0.8503 1.1172 0.4896
H5 H 0.7473 0.9435 0.5359
N1 N 0.815(2) 1.1316(15) 0.7878(7)
H6 H 0.6492 1.1342 0.7987
H7 H 0.8702 1.2459 0.7838
O1 O 0.5000 0.5000 0.8682(8)
O2 O 0.7473(19) 0.8289(10) 0.8714(5)
O3 O 0.8228(16) 1.1387(12) 0.9674(6)
O4 O 1.0000 0.5000 0.8844(10)
Ge1A Ge 1.2615(3) 1.37916(16) 0.92141(9)
Ge1A_2 Ge 0.2615(3) 0.37916(16) 0.92141(9)
Ge1B Ge 0.7615(3) 1.12084(16) 1.07859(9)
Ge1A_3 Ge 1.2615(3) 0.37916(16) 0.92141(9)
Ge1C Ge 1.2385(3) 0.87916(16) 1.07859(9)
C1A C 1.136(3) 0.965(2) 0.7034(10)
H1A H 1.2478 1.0695 0.7016
C2A C 1.188(3) 0.854(2) 0.6218(9)
H2A H 1.3625 0.8173 0.6211
H3A H 1.0852 0.7460 0.6227
C3A C 1.131(3) 0.960(2) 0.5411(12)
H4A H 1.1497 0.8828 0.4896
H5A H 1.2527 1.0565 0.5359
N1A N 1.185(2) 0.8684(15) 0.7878(7)
H6A H 1.3508 0.8658 0.7987
H7A H 1.1298 0.7541 0.7838
O1_2 O 1.5000 1.5000 0.8682(8)
O2A O 1.2527(19) 1.1711(10) 0.8714(5)
O3A O 1.1772(16) 0.8613(12) 0.9674(6)
O3B O 0.6772(16) 0.6387(12) 1.0326(6)
O3C O 1.3228(16) 1.3613(12) 1.0326(6)
O4_2 O 1.0000 1.5000 0.8844(10)
loop_
_geom_bond_atom_site_label_1
_geom_bond_atom_site_label_2
_geom_bond_site_symmetry_1
_geom_bond_site_symmetry_2
Ge1 O1 1_555 1_555
Ge2 N1 1_555 1_555
C1 H1 1_555 1_555
C2 C1 1_555 1_555
H2 C2 1_555 1_555
H3 C2 1_555 1_555
C3 C2 1_555 1_555
H4 C3 1_555 1_555
H5 C3 1_555 1_555
N1 C1 1_555 1_555
H6 N1 1_555 1_555
H7 N1 1_555 1_555
O1 Ge1A_2 1_555 1_555
O2 Ge1 1_555 1_555
O3 Ge2 1_555 1_555
O4 Ge1 1_555 1_555
Ge1A O1_2 1_555 1_555
Ge1B O3 1_555 1_555
Ge1A_3 O4 1_555 1_555
Ge1C O3A 1_555 1_555
C1A C1 1_555 1_555
H1A C1A 1_555 1_555
C2A C1A 1_555 1_555
H2A C2A 1_555 1_555
H3A C2A 1_555 1_555
C3A C3 1_555 1_555
H4A C3A 1_555 1_555
H5A C3A 1_555 1_555
N1A Ge2 1_555 1_555
H6A N1A 1_555 1_555
H7A N1A 1_555 1_555
O2A Ge2 1_555 1_555
O3A Ge2 1_555 1_555
O3B Ge1 1_555 1_555
O3C Ge1A 1_555 1_555
O4_2 Ge1A 1_555 1_555
Ge2 O2 1_555 1_555
Ge1A O2A 1_555 1_555
C1A N1A 1_555 1_555
C2A C3A 1_555 1_555

#END
