
#######################################################################
#
#                 Cambridge Crystallographic Data Centre
#                                CCDC 
#
#######################################################################
#
# If this CIF has been generated from an entry in the Cambridge 
# Structural Database, then it will include bibliographic, chemical, 
# crystal, experimental, refinement or atomic coordinate data resulting 
# from the CCDC's data processing and validation procedures.
#
#######################################################################

data_NOHKOM
_symmetry_cell_setting           orthorhombic
_symmetry_space_group_name_H-M   'P n m a'
_symmetry_Int_Tables_number      62
_space_group_name_Hall           '-P 2ac 2n'
loop_
_symmetry_equiv_pos_site_id
_symmetry_equiv_pos_as_xyz
1 x,y,z
2 1/2-x,-y,1/2+z
3 1/2+x,1/2-y,1/2-z
4 -x,1/2+y,-z
5 -x,-y,-z
6 1/2+x,y,1/2-z
7 1/2-x,1/2+y,1/2+z
8 x,1/2-y,z
_cell_length_a                   15.251(3)
_cell_length_b                   6.6990(13)
_cell_length_c                   14.382(3)
_cell_angle_alpha                90
_cell_angle_beta                 90
_cell_angle_gamma                90
_cell_volume                     1469.36
loop_
_atom_site_label
_atom_site_type_symbol
_atom_site_fract_x
_atom_site_fract_y
_atom_site_fract_z
Gd1 Gd -0.19891(6) -0.2500 0.62073(8)
O1 O -0.1506(9) -0.2500 0.4630(10)
O2 O -0.1092(15) -0.2500 0.7571(14)
O3 O -0.2994(15) -0.025(5) 0.5424(19)
N1 N -0.0345(9) -0.2500 0.5954(8)
O4 O -0.1467(9) 0.0853(15) 0.6375(9)
O5 O -0.2957(9) -0.417(2) 0.7434(10)
C1 C -0.0715(11) -0.2500 0.4340(11)
Na1 Na -0.2643(8) -0.2500 0.3106(6)
C2 C -0.0297(19) -0.2500 0.7609(16)
H1 H -0.3130 0.0305 0.5931
H2 H -0.3340 -0.1180 0.5314
C3 C -0.0036(12) -0.2500 0.5073(11)
C4 C 0.0197(14) -0.2500 0.6679(11)
O6 O -0.0510(15) -0.2500 0.3516(10)
O7 O 0.0194(19) -0.2500 0.8299(19)
C5 C 0.0872(10) -0.2500 0.4948(12)
C6 C 0.1065(15) -0.2500 0.6526(18)
N2 N 0.1423(11) -0.2500 0.5659(15)
C7 C 0.1285(14) -0.2500 0.3994(14)
C8 C 0.173(2) -0.2500 0.730(2)
O8 O 0.367(10) 0.47(2) 0.594(8)
H3 H 0.3844 0.5563 0.6345
H4 H 0.3126 0.5453 0.5787
O3G O -0.2994(15) -0.475(5) 0.5424(19)
O4G O -0.1467(9) -0.5853(15) 0.6375(9)
O5G O -0.2957(9) -0.083(2) 0.7434(10)
H1G H -0.3130 -0.5305 0.5931
H2G H -0.3340 -0.3820 0.5314
O4C O 0.1467(9) -0.4147(15) 0.3625(9)
O4D O 0.1467(9) -0.0853(15) 0.3625(9)
O5B O 0.2043(9) -0.083(2) 0.7566(10)
O5E O 0.2043(9) -0.417(2) 0.7566(10)
Gd1C Gd 0.19891(6) -0.7500 0.37927(8)
Na1B Na 0.2357(8) -0.2500 0.1894(6)
Gd1C_2 Gd 0.19891(6) 0.2500 0.37927(8)
Na1C Na 0.2643(8) 0.2500 0.6894(6)
Gd1B Gd 0.30109(6) -0.2500 0.87927(8)
Na1C_2 Na 0.2643(8) -0.7500 0.6894(6)
O1C O 0.1506(9) 0.2500 0.5370(10)
O4B O 0.3533(9) 0.4147(15) 0.8625(9)
O4E O 0.3533(9) 0.0853(15) 0.8625(9)
O5E_2 O 0.2043(9) 0.583(2) 0.7566(10)
O9 O -0.078(2) -0.2500 0.164(2)
H5 H -0.1264 -0.2500 0.1376
H6 H -0.0381 -0.2500 0.1236
loop_
_geom_bond_atom_site_label_1
_geom_bond_atom_site_label_2
_geom_bond_site_symmetry_1
_geom_bond_site_symmetry_2
Gd1 O1 1_555 1_555
O1 C1 1_555 1_555
O2 Gd1 1_555 1_555
O3 Gd1 1_555 1_555
N1 Gd1 1_555 1_555
O4 Gd1 1_555 1_555
O5 Gd1 1_555 1_555
C1 C3 1_555 1_555
Na1 O1 1_555 1_555
C2 O2 1_555 1_555
H1 O3 1_555 1_555
H2 O3 1_555 1_555
C3 N1 1_555 1_555
C4 N1 1_555 1_555
O6 C1 1_555 1_555
O7 C2 1_555 1_555
C5 C3 1_555 1_555
C6 C4 1_555 1_555
N2 C5 1_555 1_555
C7 C5 1_555 1_555
C8 C6 1_555 1_555
O8 H3 1_555 1_555
H4 O8 1_555 1_555
O9 H5 1_555 1_555
H6 O9 1_555 1_555
O3G Gd1 1_555 1_555
O4G Gd1 1_555 1_555
O5G Gd1 1_555 1_555
H1G O3G 1_555 1_555
H2G O3G 1_555 1_555
O4C C7 1_555 1_555
O4D C7 1_555 1_555
O5B C8 1_555 1_555
O5E C8 1_555 1_555
Gd1C O4C 1_555 1_555
Na1B O4C 1_555 1_555
Gd1C_2 O4D 1_555 1_555
Na1C O8 1_555 1_555
Gd1B O5B 1_555 1_555
Na1C_2 O5E 1_555 1_555
O1C Gd1C_2 1_555 1_555
O4B Na1C 1_555 1_555
O4E Na1C 1_555 1_555
O5E_2 Na1C 1_555 1_555
C2 C4 1_555 1_555
C6 N2 1_555 1_555
O4D Na1B 1_555 1_555
O5B Na1C 1_555 1_555
O5E Gd1B 1_555 1_555
Na1C O1C 1_555 1_555
Gd1B O4E 1_555 1_555

#END
