
#######################################################################
#
#                 Cambridge Crystallographic Data Centre
#                                CCDC 
#
#######################################################################
#
# If this CIF has been generated from an entry in the Cambridge 
# Structural Database, then it will include bibliographic, chemical, 
# crystal, experimental, refinement or atomic coordinate data resulting 
# from the CCDC's data processing and validation procedures.
#
#######################################################################

data_NOHLED
_symmetry_cell_setting           orthorhombic
_symmetry_space_group_name_H-M   'P n m a'
_symmetry_Int_Tables_number      62
_space_group_name_Hall           '-P 2ac 2n'
loop_
_symmetry_equiv_pos_site_id
_symmetry_equiv_pos_as_xyz
1 x,y,z
2 1/2-x,-y,1/2+z
3 1/2+x,1/2-y,1/2-z
4 -x,1/2+y,-z
5 -x,-y,-z
6 1/2+x,y,1/2-z
7 1/2-x,1/2+y,1/2+z
8 x,1/2-y,z
_cell_length_a                   15.414(3)
_cell_length_b                   6.7180(13)
_cell_length_c                   14.322(3)
_cell_angle_alpha                90
_cell_angle_beta                 90
_cell_angle_gamma                90
_cell_volume                     1483.06
loop_
_atom_site_label
_atom_site_type_symbol
_atom_site_fract_x
_atom_site_fract_y
_atom_site_fract_z
O9 O -0.084(2) -0.2500 0.161(2)
H5 H -0.0439 -0.2500 0.1200
H6 H -0.1322 -0.2500 0.1340
Ce1 Ce -0.19666(5) -0.2500 0.62343(6)
Na1 Na 0.2586(8) 0.2500 0.6909(7)
O1 O -0.1503(7) -0.2500 0.4622(8)
O2 O -0.0502(11) -0.2500 0.3498(8)
O3 O 0.1447(8) -0.4132(13) 0.3585(8)
O4 O 0.2069(8) -0.0849(15) 0.7522(10)
O5 O 0.0273(15) -0.2500 0.8286(13)
O6 O -0.1028(11) -0.2500 0.7598(9)
O7 O -0.2955(9) -0.022(3) 0.5445(15)
H1 H -0.3091 0.0336 0.5952
H2 H -0.3300 -0.1149 0.5335
N1 N -0.0334(7) -0.2500 0.5948(7)
N2 N 0.1425(8) -0.2500 0.5620(13)
C1 C -0.0029(8) -0.2500 0.5070(9)
C2 C 0.0852(9) -0.2500 0.4903(11)
C3 C 0.1113(12) -0.2500 0.6481(14)
C4 C 0.0214(10) -0.2500 0.6651(10)
C5 C -0.0727(10) -0.2500 0.4307(9)
C6 C 0.1256(12) -0.2500 0.3920(13)
C7 C 0.1780(14) -0.2500 0.7225(17)
C8 C -0.0209(14) -0.2500 0.7596(12)
O8 O 0.368(2) 0.460(7) 0.603(2)
H3 H 0.3892 0.5355 0.6456
H4 H 0.3174 0.5246 0.5898
O3G O 0.1447(8) -0.0868(13) 0.3585(8)
O4G O 0.2069(8) -0.4151(15) 0.7522(10)
O7G O -0.2955(9) -0.478(3) 0.5445(15)
H1G H -0.3091 -0.5336 0.5952
H2G H -0.3300 -0.3851 0.5335
O8G O 0.368(2) 0.040(7) 0.603(2)
H3G H 0.3892 -0.0355 0.6456
H4G H 0.3174 -0.0246 0.5898
Ce1B Ce 0.30334(5) -0.2500 0.87657(6)
Ce1C Ce 0.19666(5) -0.7500 0.37657(6)
Ce1C_2 Ce 0.19666(5) 0.2500 0.37657(6)
Na1_2 Na 0.2586(8) -0.7500 0.6909(7)
Na1A Na 0.2414(8) -0.2500 0.1909(7)
Na1C Na -0.2586(8) -0.2500 0.3091(7)
O1C O 0.1503(7) 0.2500 0.5378(8)
O3A O 0.3553(8) 0.4132(13) 0.8585(8)
O3C O -0.1447(8) 0.0868(13) 0.6415(8)
O3D O -0.1447(8) -0.5868(13) 0.6415(8)
O3F O 0.3553(8) 0.0868(13) 0.8585(8)
O4B O -0.2931(8) -0.4151(15) 0.7478(10)
O4E O -0.2931(8) -0.0849(15) 0.7478(10)
O4G_2 O 0.2069(8) 0.5849(15) 0.7522(10)
loop_
_geom_bond_atom_site_label_1
_geom_bond_atom_site_label_2
_geom_bond_site_symmetry_1
_geom_bond_site_symmetry_2
Ce1 O1 1_555 1_555
Na1 O4 1_555 1_555
O1 C5 1_555 1_555
O2 C5 1_555 1_555
O3 C6 1_555 1_555
O4 C7 1_555 1_555
O5 C8 1_555 1_555
O6 Ce1 1_555 1_555
O7 Ce1 1_555 1_555
H1 O7 1_555 1_555
H2 O7 1_555 1_555
N1 Ce1 1_555 1_555
N2 C2 1_555 1_555
C1 N1 1_555 1_555
C2 C1 1_555 1_555
C3 N2 1_555 1_555
C4 N1 1_555 1_555
C5 C1 1_555 1_555
C6 C2 1_555 1_555
C7 C3 1_555 1_555
C8 O6 1_555 1_555
O8 Na1 1_555 1_555
H3 O8 1_555 1_555
H4 O8 1_555 1_555
O9 H5 1_555 1_555
H6 O9 1_555 1_555
O3G C6 1_555 1_555
O4G C7 1_555 1_555
O7G Ce1 1_555 1_555
H1G O7G 1_555 1_555
H2G O7G 1_555 1_555
O8G Na1 1_555 1_555
H3G O8G 1_555 1_555
H4G O8G 1_555 1_555
Ce1B O4 1_555 1_555
Ce1C O3 1_555 1_555
Ce1C_2 O3G 1_555 1_555
Na1_2 O4G 1_555 1_555
Na1A O3 1_555 1_555
Na1C O1 1_555 1_555
O1C Na1 1_555 1_555
O3A Na1 1_555 1_555
O3C Ce1 1_555 1_555
O3D Ce1 1_555 1_555
O3F Na1 1_555 1_555
O4B Ce1 1_555 1_555
O4E Ce1 1_555 1_555
O4G_2 Na1 1_555 1_555
C3 C4 1_555 1_555
C4 C8 1_555 1_555
O3G Na1A 1_555 1_555
O4G Ce1B 1_555 1_555
Ce1B O3F 1_555 1_555
Ce1C_2 O1C 1_555 1_555

#END
