
#######################################################################
#
#                 Cambridge Crystallographic Data Centre
#                                CCDC 
#
#######################################################################
#
# If this CIF has been generated from an entry in the Cambridge 
# Structural Database, then it will include bibliographic, chemical, 
# crystal, experimental, refinement or atomic coordinate data resulting 
# from the CCDC's data processing and validation procedures.
#
#######################################################################

data_NOHTOU
_symmetry_cell_setting           orthorhombic
_symmetry_space_group_name_H-M   'C 2 2 21'
_symmetry_Int_Tables_number      20
_space_group_name_Hall           'C 2n 2'
loop_
_symmetry_equiv_pos_site_id
_symmetry_equiv_pos_as_xyz
1 x,y,z
2 -x,-y,1/2+z
3 -x,y,1/2-z
4 x,-y,-z
5 1/2+x,1/2+y,z
6 1/2-x,1/2-y,1/2+z
7 1/2-x,1/2+y,1/2-z
8 1/2+x,1/2-y,-z
_cell_length_a                   11.7805(10)
_cell_length_b                   17.1957(15)
_cell_length_c                   23.633(2)
_cell_angle_alpha                90
_cell_angle_beta                 90
_cell_angle_gamma                90
_cell_volume                     4787.43
loop_
_atom_site_label
_atom_site_type_symbol
_atom_site_fract_x
_atom_site_fract_y
_atom_site_fract_z
Cd1 Cd 0.5000 0.49629(3) 0.2500
C13 C 0.5107(6) 0.5651(3) 0.12040(19)
H13 H 0.5203 0.6116 0.1399
C14 C 0.5096(6) 0.5675(3) 0.06229(19)
H14 H 0.5196 0.6147 0.0437
C15 C 0.4795(5) 0.4326(3) 0.0625(2)
H15 H 0.4670 0.3856 0.0442
C16 C 0.4841(6) 0.4356(3) 0.1201(2)
H16 H 0.4763 0.3891 0.1398
C17 C 0.7594(4) 0.5510(3) 0.2321(2)
H17 H 0.7208 0.5951 0.2200
C18 C 0.8765(4) 0.5528(3) 0.2330(2)
H18 H 0.9146 0.5979 0.2223
C19 C 0.8748(4) 0.4243(3) 0.2636(2)
H19 H 0.9114 0.3785 0.2740
C20 C 0.7587(4) 0.4275(3) 0.2626(3)
H20 H 0.7187 0.3832 0.2730
C21 C 0.4937(4) 0.5003(3) 0.03135(14)
C22 C 0.9370(3) 0.4890(2) 0.2494(3)
N7 N 0.4989(3) 0.5001(2) 0.15028(12)
N8 N 0.6998(2) 0.48992(19) 0.24770(18)
O8 O 0.5000 0.3540(2) 0.2500
H21 H 0.4557 0.3344 0.2255
O9 O 0.5000 0.6338(2) 0.2500
H22 H 0.5034 0.6712 0.2786
Cd1A Cd 0.5000 0.50371(3) -0.2500
Cd1_2 Cd 1.5000 0.49629(3) 0.2500
C13C C 0.5107(6) 0.4349(3) -0.12040(19)
H13C H 0.5203 0.3884 -0.1399
C14C C 0.5096(6) 0.4325(3) -0.06229(19)
H14C H 0.5196 0.3853 -0.0437
C15C C 0.4795(5) 0.5674(3) -0.0625(2)
H15C H 0.4670 0.6144 -0.0442
C16C C 0.4841(6) 0.5644(3) -0.1201(2)
H16C H 0.4763 0.6109 -0.1398
C17B C 1.2406(4) 0.5510(3) 0.2679(2)
H17B H 1.2792 0.5951 0.2800
C18B C 1.1235(4) 0.5528(3) 0.2670(2)
H18B H 1.0854 0.5979 0.2777
C19B C 1.1252(4) 0.4243(3) 0.2364(2)
H19B H 1.0886 0.3785 0.2260
C20B C 1.2413(4) 0.4275(3) 0.2374(3)
H20B H 1.2813 0.3832 0.2270
C21C C 0.4937(4) 0.4997(3) -0.03135(14)
C22B C 1.0630(3) 0.4890(2) 0.2506(3)
N7C N 0.4989(3) 0.4999(2) -0.15028(12)
N7B N 0.5011(3) 0.5001(2) 0.34972(12)
N8B N 1.3002(2) 0.48992(19) 0.25230(18)
N8B_2 N 0.3002(2) 0.48992(19) 0.25230(18)
H21B H 0.5443 0.3344 0.2745
H22B H 0.4966 0.6712 0.2214
Cl1 Cl 0.71073(18) 0.24155(8) 0.34782(7)
O4 O 0.7140(5) 0.1725(2) 0.3784(2)
O5 O 0.6145(7) 0.2440(3) 0.3129(4)
O6 O 0.8098(6) 0.2358(4) 0.3134(4)
O7 O 0.7217(7) 0.3109(3) 0.3792(3)
C1 C 0.7146(7) 0.2799(4) 0.6715(3)
H1 H 0.7390 0.3262 0.6878
C2 C 0.7950(6) 0.2272(4) 0.6510(3)
H2 H 0.8716 0.2393 0.6544
C3 C 0.5754(5) 0.1980(3) 0.6425(3)
H3 H 0.4989 0.1866 0.6375
C4 C 0.6558(5) 0.1457(3) 0.6234(2)
C5 C 0.6259(5) 0.0702(3) 0.5983(2)
C6 C 0.7175(5) 0.0195(5) 0.5762(3)
H4 H 0.6850 -0.0276 0.5616
H5 H 0.7694 0.0072 0.6062
H6 H 0.7573 0.0461 0.5465
C7 C 0.3976(5) -0.0415(3) 0.5715(2)
C8 C 0.3020(5) 0.0078(5) 0.5906(3)
H7 H 0.3311 0.0552 0.6064
H8 H 0.2591 -0.0195 0.6188
H9 H 0.2538 0.0196 0.5590
C9 C 0.3735(5) -0.1181(3) 0.5465(2)
C10 C 0.4599(5) -0.1710(4) 0.5314(3)
H10 H 0.5349 -0.1571 0.5385
C11 C 0.2454(5) -0.2054(4) 0.5142(3)
H11 H 0.1706 -0.2200 0.5074
C12 C 0.3299(5) -0.2553(3) 0.4998(3)
H12 H 0.3106 -0.3027 0.4836
N1 N 0.4396(4) -0.2391(3) 0.5079(3)
N2 N 0.2652(4) -0.1372(3) 0.5374(2)
N3 N 0.5026(6) -0.0225(2) 0.5749(2)
N4 N 0.5213(5) 0.0517(3) 0.5986(3)
N5 N 0.7662(4) 0.1617(3) 0.6272(3)
N6 N 0.6047(5) 0.2654(3) 0.6683(2)
O1? O 0.6706(19) 0.2356(11) 0.2933(5)
O2? O 0.8121(17) 0.2810(16) 0.3498(13)
O3? O 0.628(2) 0.2838(14) 0.3780(9)
loop_
_geom_bond_atom_site_label_1
_geom_bond_atom_site_label_2
_geom_bond_site_symmetry_1
_geom_bond_site_symmetry_2
Cd1 N7 1_555 1_555
Cl1 O4 1_555 1_555
O5 Cl1 1_555 1_555
O6 Cl1 1_555 1_555
O7 Cl1 1_555 1_555
C1 H1 1_555 1_555
C2 C1 1_555 1_555
H2 C2 1_555 1_555
C3 H3 1_555 1_555
C4 C3 1_555 1_555
C5 C4 1_555 1_555
C6 C5 1_555 1_555
H4 C6 1_555 1_555
H5 C6 1_555 1_555
H6 C6 1_555 1_555
C7 C8 1_555 1_555
C8 H7 1_555 1_555
H8 C8 1_555 1_555
H9 C8 1_555 1_555
C9 C7 1_555 1_555
C10 C9 1_555 1_555
H10 C10 1_555 1_555
C11 H11 1_555 1_555
C12 C11 1_555 1_555
H12 C12 1_555 1_555
C13 H13 1_555 1_555
C14 C13 1_555 1_555
H14 C14 1_555 1_555
C15 H15 1_555 1_555
C16 C15 1_555 1_555
H16 C16 1_555 1_555
C17 H17 1_555 1_555
C18 C17 1_555 1_555
H18 C18 1_555 1_555
C19 H19 1_555 1_555
C20 C19 1_555 1_555
H20 C20 1_555 1_555
C21 C14 1_555 1_555
C22 C18 1_555 1_555
N1 C10 1_555 1_555
N2 C9 1_555 1_555
N3 C7 1_555 1_555
N4 C5 1_555 1_555
N5 C2 1_555 1_555
N6 C1 1_555 1_555
N7 C13 1_555 1_555
N8 Cd1 1_555 1_555
O8 Cd1 1_555 1_555
H21 O8 1_555 1_555
O9 Cd1 1_555 1_555
H22 O9 1_555 1_555
Cd1A N7C 1_555 1_555
Cd1_2 N8B 1_555 1_555
C13C H13C 1_555 1_555
C14C C13C 1_555 1_555
H14C C14C 1_555 1_555
C15C H15C 1_555 1_555
C16C C15C 1_555 1_555
H16C C16C 1_555 1_555
C17B H17B 1_555 1_555
C18B C17B 1_555 1_555
H18B C18B 1_555 1_555
C19B H19B 1_555 1_555
C20B C19B 1_555 1_555
H20B C20B 1_555 1_555
C21C C21 1_555 1_555
C22B C22 1_555 1_555
N7C C13C 1_555 1_555
N7B Cd1 1_555 1_555
N8B C17B 1_555 1_555
N8B_2 Cd1 1_555 1_555
H21B O8 1_555 1_555
H22B O9 1_555 1_555
C3 N6 1_555 1_555
C4 N5 1_555 1_555
C11 N2 1_555 1_555
C12 N1 1_555 1_555
C15 C21 1_555 1_555
C16 N7 1_555 1_555
C17 N8 1_555 1_555
C19 C22 1_555 1_555
C20 N8 1_555 1_555
N3 N4 1_555 1_555
C14C C21C 1_555 1_555
C15C C21C 1_555 1_555
C16C N7C 1_555 1_555
C18B C22B 1_555 1_555
C19B C22B 1_555 1_555
C20B N8B 1_555 1_555

#END
