
#######################################################################
#
#                 Cambridge Crystallographic Data Centre
#                                CCDC 
#
#######################################################################
#
# If this CIF has been generated from an entry in the Cambridge 
# Structural Database, then it will include bibliographic, chemical, 
# crystal, experimental, refinement or atomic coordinate data resulting 
# from the CCDC's data processing and validation procedures.
#
#######################################################################

data_NOHTEK
_symmetry_cell_setting           monoclinic
_symmetry_space_group_name_H-M   'P 21/n'
_symmetry_Int_Tables_number      14
_space_group_name_Hall           '-P 2yn'
loop_
_symmetry_equiv_pos_site_id
_symmetry_equiv_pos_as_xyz
1 x,y,z
2 1/2-x,1/2+y,1/2-z
3 -x,-y,-z
4 1/2+x,1/2-y,1/2+z
_cell_length_a                   7.7136(15)
_cell_length_b                   19.757(4)
_cell_length_c                   10.680(2)
_cell_angle_alpha                90
_cell_angle_beta                 95.36(3)
_cell_angle_gamma                90
_cell_volume                     1620.49
loop_
_atom_site_label
_atom_site_type_symbol
_atom_site_fract_x
_atom_site_fract_y
_atom_site_fract_z
Zn1 Zn 0.76919(7) 0.85817(2) 0.28162(5)
O1 O 1.0243(4) 0.84189(15) 0.2808(3)
O2 O 1.2180(4) 0.77790(16) 0.3957(3)
O3 O 1.4626(4) 0.85396(15) 0.2381(3)
O4 O 1.6455(4) 0.77215(15) 0.1981(3)
N1 N 1.2407(5) 0.68215(18) -0.0335(3)
N2 N 0.7585(5) 0.90916(18) 0.1011(3)
N3 N 0.7706(5) 0.96155(18) 0.3348(4)
C1 C 1.4928(6) 0.7961(2) 0.1963(4)
C2 C 1.3437(6) 0.7550(2) 0.1373(4)
C3 C 1.3689(6) 0.7167(2) 0.0320(4)
H1 H 1.4802 0.7147 0.0054
C4 C 1.0820(6) 0.6855(2) 0.0075(4)
H2 H 0.9916 0.6615 -0.0359
C5 C 1.0465(6) 0.7228(2) 0.1110(4)
H3 H 0.9341 0.7240 0.1358
C6 C 1.1793(6) 0.7586(2) 0.1783(4)
C7 C 1.1403(6) 0.7959(2) 0.2950(4)
C8 C 0.7485(8) 0.8828(3) -0.0133(5)
H4 H 0.7470 0.8360 -0.0221
C9 C 0.7402(10) 0.9231(3) -0.1212(5)
H5 H 0.7283 0.9029 -0.2003
C10 C 0.7493(10) 0.9914(3) -0.1113(6)
H6 H 0.7462 1.0183 -0.1829
C11 C 0.7635(8) 1.0209(3) 0.0090(5)
C12 C 0.7753(9) 1.0921(3) 0.0306(7)
H7 H 0.7743 1.1212 -0.0380
C13 C 0.7878(9) 1.1183(3) 0.1466(7)
H8 H 0.7981 1.1649 0.1571
C14 C 0.7856(7) 1.0759(2) 0.2538(5)
C15 C 0.7930(7) 1.0999(3) 0.3782(6)
H9 H 0.8017 1.1461 0.3941
C16 C 0.7875(8) 1.0561(3) 0.4744(6)
H10 H 0.7900 1.0719 0.5565
C17 C 0.7781(7) 0.9868(3) 0.4498(5)
H11 H 0.7770 0.9571 0.5173
C18 C 0.7742(6) 1.0054(2) 0.2369(5)
C19 C 0.7646(6) 0.9776(2) 0.1124(4)
Zn1_2 Zn 1.76919(7) 0.85817(2) 0.28162(5)
Zn1C Zn 1.26919(7) 0.64183(2) -0.21838(5)
O3_2 O 0.4626(4) 0.85396(15) 0.2381(3)
O4_2 O 0.6455(4) 0.77215(15) 0.1981(3)
N1C N 0.7407(5) 0.81785(18) 0.4665(3)
loop_
_geom_bond_atom_site_label_1
_geom_bond_atom_site_label_2
_geom_bond_site_symmetry_1
_geom_bond_site_symmetry_2
Zn1 O1 1_555 1_555
O1 C7 1_555 1_555
O2 C7 1_555 1_555
O3 C1 1_555 1_555
O4 C1 1_555 1_555
N1 C3 1_555 1_555
N2 Zn1 1_555 1_555
N3 Zn1 1_555 1_555
C1 C2 1_555 1_555
C2 C3 1_555 1_555
C3 H1 1_555 1_555
C4 N1 1_555 1_555
H2 C4 1_555 1_555
C5 C4 1_555 1_555
H3 C5 1_555 1_555
C6 C2 1_555 1_555
C7 C6 1_555 1_555
C8 N2 1_555 1_555
H4 C8 1_555 1_555
C9 C8 1_555 1_555
H5 C9 1_555 1_555
C10 C9 1_555 1_555
H6 C10 1_555 1_555
C11 C10 1_555 1_555
C12 C11 1_555 1_555
H7 C12 1_555 1_555
C13 C12 1_555 1_555
H8 C13 1_555 1_555
C14 C13 1_555 1_555
C15 C14 1_555 1_555
H9 C15 1_555 1_555
C16 C15 1_555 1_555
H10 C16 1_555 1_555
C17 N3 1_555 1_555
H11 C17 1_555 1_555
C18 N3 1_555 1_555
C19 N2 1_555 1_555
Zn1_2 O3 1_555 1_555
Zn1C N1 1_555 1_555
O3_2 Zn1 1_555 1_555
O4_2 Zn1 1_555 1_555
N1C Zn1 1_555 1_555
O4 Zn1_2 1_555 1_555
C5 C6 1_555 1_555
C11 C19 1_555 1_555
C14 C18 1_555 1_555
C16 C17 1_555 1_555
C18 C19 1_555 1_555

#END
