
#######################################################################
#
#                 Cambridge Crystallographic Data Centre
#                                CCDC 
#
#######################################################################
#
# If this CIF has been generated from an entry in the Cambridge 
# Structural Database, then it will include bibliographic, chemical, 
# crystal, experimental, refinement or atomic coordinate data resulting 
# from the CCDC's data processing and validation procedures.
#
#######################################################################

data_NOHYOZ
_symmetry_cell_setting           monoclinic
_symmetry_space_group_name_H-M   'P 21/n'
_symmetry_Int_Tables_number      14
_space_group_name_Hall           '-P 2yn'
loop_
_symmetry_equiv_pos_site_id
_symmetry_equiv_pos_as_xyz
1 x,y,z
2 1/2-x,1/2+y,1/2-z
3 -x,-y,-z
4 1/2+x,1/2-y,1/2+z
_cell_length_a                   14.893(3)
_cell_length_b                   14.935(3)
_cell_length_c                   15.735(3)
_cell_angle_alpha                90
_cell_angle_beta                 112.646(5)
_cell_angle_gamma                90
_cell_volume                     3230.05
loop_
_atom_site_label
_atom_site_type_symbol
_atom_site_fract_x
_atom_site_fract_y
_atom_site_fract_z
Ag1 Ag 0.45614(2) 0.23636(2) 0.47433(2)
N1 N 0.0406(2) 0.4073(2) 0.3528(2)
N2 N 0.2601(2) 0.4507(2) 0.4393(2)
N3 N 0.2869(2) 0.3656(2) 0.4548(2)
N4 N 0.3631(2) 0.3565(2) 0.4315(2)
N5 N -0.0085(2) 0.5197(2) 0.1746(2)
N6 N -0.0277(2) 0.5971(2) 0.1282(2)
N7 N 0.0412(2) 0.6093(2) 0.0966(2)
N8 N 0.0859(2) 0.2467(2) 0.26377(19)
N9 N 0.0191(2) 0.2593(2) 0.1787(2)
N10 N 0.06704(19) 0.2581(2) 0.1214(2)
C1 C 0.1011(2) 0.4214(2) 0.4501(2)
C2 C 0.1823(3) 0.4872(2) 0.4670(3)
C3 C 0.3162(3) 0.4970(2) 0.4061(2)
C4 C 0.3837(2) 0.4368(2) 0.4008(2)
C5 C 0.4644(2) 0.4490(2) 0.3710(2)
C6 C 0.5077(3) 0.3770(2) 0.3441(3)
C7 C 0.5821(3) 0.3898(2) 0.3148(3)
C8 C 0.6151(3) 0.4762(2) 0.3095(3)
C9 C 0.5733(3) 0.5481(2) 0.3355(3)
C10 C 0.4994(2) 0.5343(2) 0.3659(2)
C11 C -0.0307(2) 0.4794(2) 0.3191(2)
C12 C -0.0760(3) 0.4862(2) 0.2144(2)
C13 C 0.0726(3) 0.4829(2) 0.1727(2)
C14 C 0.1058(2) 0.5395(2) 0.1229(2)
C15 C 0.1908(3) 0.5339(2) 0.0964(3)
C16 C 0.2701(3) 0.4828(2) 0.1481(3)
C17 C 0.3512(3) 0.4771(3) 0.1237(3)
C18 C 0.3528(3) 0.5245(3) 0.0501(3)
C19 C 0.2756(3) 0.5757(2) -0.0014(3)
C20 C 0.1933(3) 0.5808(2) 0.0213(3)
C21 C -0.0095(2) 0.3209(2) 0.3415(2)
C22 C 0.0557(2) 0.2428(2) 0.3421(2)
C23 C 0.1756(2) 0.2375(2) 0.2625(2)
C24 C 0.1642(2) 0.2460(2) 0.1730(2)
C25 C 0.2370(2) 0.2422(2) 0.1313(2)
C26 C 0.3333(2) 0.2192(2) 0.1856(2)
C27 C 0.4044(2) 0.2207(2) 0.1484(2)
C28 C 0.3802(2) 0.2411(3) 0.0577(3)
C29 C 0.2856(3) 0.2615(3) 0.0021(2)
C30 C 0.2140(2) 0.2632(3) 0.0378(2)
H1 H 0.0609 0.4411 0.4809
H2 H 0.1300 0.3657 0.4752
H3 H 0.2097 0.5019 0.5306
H4 H 0.1560 0.5396 0.4320
H5 H 0.3109 0.5585 0.3894
H6 H 0.4843 0.3180 0.3456
H7 H 0.6119 0.3401 0.2984
H8 H 0.6660 0.4853 0.2882
H9 H 0.5956 0.6070 0.3318
H10 H 0.4713 0.5841 0.3842
H11 H -0.0812 0.4703 0.3410
H12 H 0.0015 0.5343 0.3426
H13 H -0.1302 0.5256 0.1973
H14 H -0.0975 0.4283 0.1902
H15 H 0.1018 0.4283 0.2008
H16 H 0.2699 0.4520 0.2009
H17 H 0.4051 0.4408 0.1587
H18 H 0.4077 0.5204 0.0335
H19 H 0.2777 0.6090 -0.0521
H20 H 0.1390 0.6162 -0.0148
H21 H -0.0344 0.3136 0.3883
H22 H -0.0618 0.3215 0.2829
H23 H 0.0215 0.1885 0.3391
H24 H 0.1117 0.2447 0.3979
H25 H 0.2345 0.2270 0.3140
H26 H 0.3498 0.2023 0.2480
H27 H 0.4700 0.2075 0.1866
H28 H 0.4292 0.2411 0.0330
H29 H 0.2695 0.2747 -0.0612
H30 H 0.1488 0.2782 -0.0003
Ag1A Ag 0.04386(2) 0.73636(2) 0.02567(2)
Ag1C Ag -0.04386(2) 0.26364(2) -0.02567(2)
N7A N 0.4588(2) 0.1093(2) 0.4034(2)
N10C N 0.56704(19) 0.2419(2) 0.6214(2)
P1 P 0.72081(8) 0.21389(8) 0.19893(9)
F1 F 0.78327(16) 0.23364(19) 0.13875(17)
F2 F 0.65821(18) 0.19439(16) 0.25993(18)
F3 F 0.7415(2) 0.31311(17) 0.2382(2)
F4 F 0.81644(17) 0.17994(18) 0.28073(17)
F5 F 0.70048(18) 0.11394(16) 0.15986(17)
F6 F 0.62526(17) 0.2473(2) 0.11681(17)
loop_
_geom_bond_atom_site_label_1
_geom_bond_atom_site_label_2
_geom_bond_site_symmetry_1
_geom_bond_site_symmetry_2
Ag1 N4 1_555 1_555
P1 F1 1_555 1_555
F2 P1 1_555 1_555
F3 P1 1_555 1_555
F4 P1 1_555 1_555
F5 P1 1_555 1_555
F6 P1 1_555 1_555
N1 C1 1_555 1_555
N2 N3 1_555 1_555
N3 N4 1_555 1_555
N4 C4 1_555 1_555
N5 N6 1_555 1_555
N6 N7 1_555 1_555
N7 C14 1_555 1_555
N8 N9 1_555 1_555
N9 N10 1_555 1_555
N10 C24 1_555 1_555
C1 C2 1_555 1_555
C2 N2 1_555 1_555
C3 N2 1_555 1_555
C4 C3 1_555 1_555
C5 C4 1_555 1_555
C6 C5 1_555 1_555
C7 C6 1_555 1_555
C8 C7 1_555 1_555
C9 C8 1_555 1_555
C10 C5 1_555 1_555
C11 N1 1_555 1_555
C12 N5 1_555 1_555
C13 N5 1_555 1_555
C14 C13 1_555 1_555
C15 C14 1_555 1_555
C16 C15 1_555 1_555
C17 C16 1_555 1_555
C18 C17 1_555 1_555
C19 C18 1_555 1_555
C20 C15 1_555 1_555
C21 N1 1_555 1_555
C22 N8 1_555 1_555
C23 N8 1_555 1_555
C24 C23 1_555 1_555
C25 C24 1_555 1_555
C26 C25 1_555 1_555
C27 C26 1_555 1_555
C28 C27 1_555 1_555
C29 C28 1_555 1_555
C30 C25 1_555 1_555
H1 C1 1_555 1_555
H2 C1 1_555 1_555
H3 C2 1_555 1_555
H4 C2 1_555 1_555
H5 C3 1_555 1_555
H6 C6 1_555 1_555
H7 C7 1_555 1_555
H8 C8 1_555 1_555
H9 C9 1_555 1_555
H10 C10 1_555 1_555
H11 C11 1_555 1_555
H12 C11 1_555 1_555
H13 C12 1_555 1_555
H14 C12 1_555 1_555
H15 C13 1_555 1_555
H16 C16 1_555 1_555
H17 C17 1_555 1_555
H18 C18 1_555 1_555
H19 C19 1_555 1_555
H20 C20 1_555 1_555
H21 C21 1_555 1_555
H22 C21 1_555 1_555
H23 C22 1_555 1_555
H24 C22 1_555 1_555
H25 C23 1_555 1_555
H26 C26 1_555 1_555
H27 C27 1_555 1_555
H28 C28 1_555 1_555
H29 C29 1_555 1_555
H30 C30 1_555 1_555
Ag1A N7 1_555 1_555
Ag1C N10 1_555 1_555
N7A Ag1 1_555 1_555
N10C Ag1 1_555 1_555
C9 C10 1_555 1_555
C11 C12 1_555 1_555
C19 C20 1_555 1_555
C21 C22 1_555 1_555
C29 C30 1_555 1_555

#END
