
#######################################################################
#
#                 Cambridge Crystallographic Data Centre
#                                CCDC 
#
#######################################################################
#
# If this CIF has been generated from an entry in the Cambridge 
# Structural Database, then it will include bibliographic, chemical, 
# crystal, experimental, refinement or atomic coordinate data resulting 
# from the CCDC's data processing and validation procedures.
#
#######################################################################

data_NOJBUL
_symmetry_cell_setting           triclinic
_symmetry_space_group_name_H-M   'P -1'
_symmetry_Int_Tables_number      2
_space_group_name_Hall           '-P 1'
loop_
_symmetry_equiv_pos_site_id
_symmetry_equiv_pos_as_xyz
1 x,y,z
2 -x,-y,-z
_cell_length_a                   7.6943(15)
_cell_length_b                   9.950(2)
_cell_length_c                   12.675(3)
_cell_angle_alpha                91.13(3)
_cell_angle_beta                 92.58(3)
_cell_angle_gamma                99.25(3)
_cell_volume                     956.429
loop_
_atom_site_label
_atom_site_type_symbol
_atom_site_fract_x
_atom_site_fract_y
_atom_site_fract_z
Cd1 Cd 0.31197(3) 0.14192(2) 0.490211(19)
S1 S 0.81122(13) 0.50440(11) 0.42380(9)
O1 O 0.1127(3) 0.1803(3) 0.6098(2)
O2 O -0.1439(3) 0.0697(3) 0.5419(2)
O3 O -0.4922(3) -0.0371(3) 0.6142(2)
O4 O -0.5010(4) 0.1809(3) 0.6406(2)
N1 N 0.2075(4) 0.2731(3) 0.3526(2)
N2 N 0.5363(4) 0.3310(3) 0.4465(3)
N3 N 0.2419(4) 0.4490(3) 0.2437(2)
C1 C 0.6982(5) 0.3657(4) 0.4815(3)
H1 H 0.7491 0.3186 0.5341
C2 C 0.6300(5) 0.5151(4) 0.3451(3)
H2 H 0.6234 0.5803 0.2941
C3 C 0.4958(5) 0.4148(4) 0.3673(3)
C4 C 0.3163(4) 0.3792(3) 0.3207(3)
C5 C 0.0514(5) 0.2715(4) 0.2929(3)
C6 C -0.1111(5) 0.1865(4) 0.2971(3)
H3 H -0.1287 0.1159 0.3445
C7 C -0.2433(5) 0.2122(4) 0.2282(3)
H4 H -0.3522 0.1558 0.2278
C8 C -0.2210(5) 0.3201(4) 0.1583(3)
H5 H -0.3150 0.3335 0.1131
C9 C -0.0626(5) 0.4068(4) 0.1550(3)
H6 H -0.0464 0.4789 0.1089
C10 C 0.0709(5) 0.3798(4) 0.2244(3)
C11 C 0.3184(5) 0.5671(3) 0.1865(3)
H7 H 0.4009 0.6265 0.2336
H8 H 0.2257 0.6171 0.1638
C12 C 0.4133(4) 0.5296(3) 0.0908(3)
C13 C 0.3570(5) 0.4110(4) 0.0312(3)
H9 H 0.2607 0.3499 0.0517
C14 C 0.5581(5) 0.6175(4) 0.0581(3)
H10 H 0.5988 0.6974 0.0971
C15 C -0.0434(4) 0.1218(3) 0.6176(3)
C16 C -0.1130(5) 0.1162(4) 0.7272(3)
C17 C 0.0068(6) 0.1371(5) 0.8139(4)
H11 H 0.1268 0.1577 0.8030
C18 C -0.0496(7) 0.1276(6) 0.9156(4)
H12 H 0.0320 0.1417 0.9728
C19 C -0.2265(7) 0.0973(5) 0.9324(3)
H13 H -0.2645 0.0899 1.0010
C20 C -0.3475(6) 0.0779(4) 0.8482(3)
H14 H -0.4670 0.0581 0.8604
C21 C -0.2936(5) 0.0875(3) 0.7453(3)
C22 C -0.4368(4) 0.0760(4) 0.6584(3)
S1A S 0.18878(13) 0.49560(11) -0.42380(9)
N1A N 0.7925(4) 0.7269(3) -0.3526(2)
N2A N 0.4637(4) 0.6690(3) -0.4465(3)
N3A N 0.7581(4) 0.5510(3) -0.2437(2)
C1A C 0.3018(5) 0.6343(4) -0.4815(3)
H1A H 0.2509 0.6814 -0.5341
C2A C 0.3700(5) 0.4849(4) -0.3451(3)
H2A H 0.3766 0.4197 -0.2941
C3A C 0.5042(5) 0.5852(4) -0.3673(3)
C4A C 0.6837(4) 0.6208(3) -0.3207(3)
C5A C 0.9486(5) 0.7285(4) -0.2929(3)
C6A C 1.1111(5) 0.8135(4) -0.2971(3)
H3A H 1.1287 0.8841 -0.3445
C7A C 1.2433(5) 0.7878(4) -0.2282(3)
H4A H 1.3522 0.8442 -0.2278
C8A C 1.2210(5) 0.6799(4) -0.1583(3)
H5A H 1.3150 0.6665 -0.1131
C9A C 1.0626(5) 0.5932(4) -0.1550(3)
H6A H 1.0464 0.5211 -0.1089
C10A C 0.9291(5) 0.6202(4) -0.2244(3)
C11A C 0.6816(5) 0.4329(3) -0.1865(3)
H7A H 0.5991 0.3735 -0.2336
H8A H 0.7743 0.3829 -0.1638
C12A C 0.5867(4) 0.4704(3) -0.0908(3)
C13A C 0.6430(5) 0.5890(4) -0.0312(3)
H9A H 0.7393 0.6501 -0.0517
C14A C 0.4419(5) 0.3825(4) -0.0581(3)
H10A H 0.4012 0.3026 -0.0971
Cd1A Cd -0.31197(3) -0.14192(2) 0.509789(19)
O1A O -0.1127(3) -0.1803(3) 0.3902(2)
O2A O 0.1439(3) -0.0697(3) 0.4581(2)
O3A O 0.4922(3) 0.0371(3) 0.3858(2)
O4A O 0.5010(4) -0.1809(3) 0.3594(2)
C15A C 0.0434(4) -0.1218(3) 0.3824(3)
C16A C 0.1130(5) -0.1162(4) 0.2728(3)
C17A C -0.0068(6) -0.1371(5) 0.1861(4)
H11A H -0.1268 -0.1577 0.1970
C18A C 0.0496(7) -0.1276(6) 0.0844(4)
H12A H -0.0320 -0.1417 0.0272
C19A C 0.2265(7) -0.0973(5) 0.0676(3)
H13A H 0.2645 -0.0899 -0.0010
C20A C 0.3475(6) -0.0779(4) 0.1518(3)
H14A H 0.4670 -0.0581 0.1396
C21A C 0.2936(5) -0.0875(3) 0.2547(3)
C22A C 0.4368(4) -0.0760(4) 0.3416(3)
Cd1_2 Cd -0.68803(3) 0.14192(2) 0.490211(19)
Cd1A_2 Cd 0.68803(3) -0.14192(2) 0.509789(19)
Cd1A_3 Cd 0.68803(3) 0.85808(2) -0.490211(19)
O4_2 O 0.4990(4) 0.1809(3) 0.6406(2)
O4A_2 O -0.4990(4) -0.1809(3) 0.3594(2)
N1A_2 N -0.2075(4) -0.2731(3) 0.6474(2)
N2A_2 N -0.5363(4) -0.3310(3) 0.5535(3)
loop_
_geom_bond_atom_site_label_1
_geom_bond_atom_site_label_2
_geom_bond_site_symmetry_1
_geom_bond_site_symmetry_2
Cd1 O1 1_555 1_555
S1 C1 1_555 1_555
O1 C15 1_555 1_555
O2 C15 1_555 1_555
O3 C22 1_555 1_555
O4 C22 1_555 1_555
N1 Cd1 1_555 1_555
N2 Cd1 1_555 1_555
N3 C4 1_555 1_555
C1 N2 1_555 1_555
H1 C1 1_555 1_555
C2 S1 1_555 1_555
H2 C2 1_555 1_555
C3 N2 1_555 1_555
C4 N1 1_555 1_555
C5 N1 1_555 1_555
C6 C5 1_555 1_555
H3 C6 1_555 1_555
C7 C6 1_555 1_555
H4 C7 1_555 1_555
C8 C7 1_555 1_555
H5 C8 1_555 1_555
C9 C8 1_555 1_555
H6 C9 1_555 1_555
C10 N3 1_555 1_555
C11 N3 1_555 1_555
H7 C11 1_555 1_555
H8 C11 1_555 1_555
C12 C11 1_555 1_555
C13 C12 1_555 1_555
H9 C13 1_555 1_555
C14 C12 1_555 1_555
H10 C14 1_555 1_555
C15 C16 1_555 1_555
C16 C17 1_555 1_555
C17 H11 1_555 1_555
C18 C17 1_555 1_555
H12 C18 1_555 1_555
C19 C18 1_555 1_555
H13 C19 1_555 1_555
C20 C19 1_555 1_555
H14 C20 1_555 1_555
C21 C16 1_555 1_555
C22 C21 1_555 1_555
S1A C1A 1_555 1_555
N1A C4A 1_555 1_555
N2A C1A 1_555 1_555
N3A C4A 1_555 1_555
C1A H1A 1_555 1_555
C2A S1A 1_555 1_555
H2A C2A 1_555 1_555
C3A N2A 1_555 1_555
C4A C3A 1_555 1_555
C5A N1A 1_555 1_555
C6A C5A 1_555 1_555
H3A C6A 1_555 1_555
C7A C6A 1_555 1_555
H4A C7A 1_555 1_555
C8A C7A 1_555 1_555
H5A C8A 1_555 1_555
C9A C8A 1_555 1_555
H6A C9A 1_555 1_555
C10A N3A 1_555 1_555
C11A N3A 1_555 1_555
H7A C11A 1_555 1_555
H8A C11A 1_555 1_555
C12A C11A 1_555 1_555
C13A C14 1_555 1_555
H9A C13A 1_555 1_555
C14A C13 1_555 1_555
H10A C14A 1_555 1_555
Cd1A O2 1_555 1_555
O1A Cd1A 1_555 1_555
O2A Cd1 1_555 1_555
O3A Cd1 1_555 1_555
O4A C22A 1_555 1_555
C15A O1A 1_555 1_555
C16A C15A 1_555 1_555
C17A C16A 1_555 1_555
H11A C17A 1_555 1_555
C18A C17A 1_555 1_555
H12A C18A 1_555 1_555
C19A C18A 1_555 1_555
H13A C19A 1_555 1_555
C20A C19A 1_555 1_555
H14A C20A 1_555 1_555
C21A C16A 1_555 1_555
C22A O3A 1_555 1_555
Cd1_2 O4 1_555 1_555
Cd1A_2 O4A 1_555 1_555
Cd1A_3 N1A 1_555 1_555
O4_2 Cd1 1_555 1_555
O4A_2 Cd1A 1_555 1_555
N1A_2 Cd1A 1_555 1_555
N2A_2 Cd1A 1_555 1_555
O3 Cd1A 1_555 1_555
C2 C3 1_555 1_555
C3 C4 1_555 1_555
C5 C10 1_555 1_555
C9 C10 1_555 1_555
C20 C21 1_555 1_555
N2A Cd1A_3 1_555 1_555
C2A C3A 1_555 1_555
C5A C10A 1_555 1_555
C9A C10A 1_555 1_555
C12A C13A 1_555 1_555
C12A C14A 1_555 1_555
O2A C15A 1_555 1_555
C20A C21A 1_555 1_555
C21A C22A 1_555 1_555

#END
