
#######################################################################
#
#                 Cambridge Crystallographic Data Centre
#                                CCDC 
#
#######################################################################
#
# If this CIF has been generated from an entry in the Cambridge 
# Structural Database, then it will include bibliographic, chemical, 
# crystal, experimental, refinement or atomic coordinate data resulting 
# from the CCDC's data processing and validation procedures.
#
#######################################################################

data_NOJGEZ
_symmetry_cell_setting           monoclinic
_symmetry_space_group_name_H-M   'P 21/c'
_symmetry_Int_Tables_number      14
_space_group_name_Hall           '-P 2ybc'
loop_
_symmetry_equiv_pos_site_id
_symmetry_equiv_pos_as_xyz
1 x,y,z
2 -x,1/2+y,1/2-z
3 -x,-y,-z
4 x,1/2-y,1/2+z
_cell_length_a                   10.815(2)
_cell_length_b                   12.963(3)
_cell_length_c                   6.3422(13)
_cell_angle_alpha                90
_cell_angle_beta                 105.33(3)
_cell_angle_gamma                90
_cell_volume                     857.507
loop_
_atom_site_label
_atom_site_type_symbol
_atom_site_fract_x
_atom_site_fract_y
_atom_site_fract_z
Pb1 Pb 0.45204(2) -0.126090(19) 0.25014(4)
O1 O 0.2276(5) -0.1817(4) 0.2412(10)
O2 O 0.3297(5) -0.3322(5) 0.3288(9)
O3 O 0.6285(5) 0.0164(4) 0.4571(8)
N1 N 0.5753(6) -0.2991(5) 0.1560(11)
N2 N 0.5977(7) -0.3634(5) 0.2967(13)
N3 N 0.6192(8) -0.4271(6) 0.4349(11)
N4 N -0.1425(6) -0.4230(6) 0.1266(11)
C1 C 0.2296(6) -0.2787(6) 0.2652(11)
C2 C 0.0998(7) -0.3313(6) 0.2134(13)
C3 C -0.0124(7) -0.2760(6) 0.1069(12)
H1 H -0.0073 -0.2076 0.0660
C4 C -0.1300(8) -0.3257(6) 0.0646(14)
H2 H -0.2031 -0.2899 -0.0098
C5 C -0.0366(7) -0.4749(7) 0.2264(13)
H3 H -0.0452 -0.5430 0.2659
C6 C 0.0878(8) -0.4321(6) 0.2756(12)
H4 H 0.1592 -0.4704 0.3474
H5 H 0.696(5) -0.008(6) 0.537(11)
H6 H 0.646(7) 0.052(6) 0.358(10)
Pb1C Pb 0.45204(2) -0.373910(19) 0.75014(4)
Pb1B Pb 0.54796(2) 0.126090(19) 0.74986(4)
Pb1C_2 Pb 0.45204(2) -0.373910(19) -0.24986(4)
Pb1A Pb 0.54796(2) -0.626090(19) 0.24986(4)
O2C O 0.3297(5) -0.1678(5) -0.1712(9)
O3B O 0.3715(5) -0.0164(4) 0.5429(8)
N1C N 0.5753(6) -0.2009(5) 0.6560(11)
N3A N 0.3808(8) 0.0729(6) 0.0651(11)
H5B H 0.304(5) 0.008(6) 0.463(11)
H6B H 0.354(7) -0.052(6) 0.642(10)
loop_
_geom_bond_atom_site_label_1
_geom_bond_atom_site_label_2
_geom_bond_site_symmetry_1
_geom_bond_site_symmetry_2
Pb1 O1 1_555 1_555
O1 C1 1_555 1_555
O2 C1 1_555 1_555
O3 Pb1 1_555 1_555
N1 Pb1 1_555 1_555
N2 N1 1_555 1_555
N3 N2 1_555 1_555
N4 C4 1_555 1_555
C1 C2 1_555 1_555
C2 C3 1_555 1_555
C3 H1 1_555 1_555
C4 C3 1_555 1_555
H2 C4 1_555 1_555
C5 N4 1_555 1_555
H3 C5 1_555 1_555
C6 C2 1_555 1_555
H4 C6 1_555 1_555
H5 O3 1_555 1_555
H6 O3 1_555 1_555
Pb1C O2 1_555 1_555
Pb1B O3 1_555 1_555
Pb1C_2 N1 1_555 1_555
Pb1A N3 1_555 1_555
O2C Pb1 1_555 1_555
O3B Pb1 1_555 1_555
N1C Pb1 1_555 1_555
N3A Pb1 1_555 1_555
H5B O3B 1_555 1_555
H6B O3B 1_555 1_555
C5 C6 1_555 1_555
Pb1C N1C 1_555 1_555
Pb1B O3B 1_555 1_555

#END
