
#######################################################################
#
#                 Cambridge Crystallographic Data Centre
#                                CCDC 
#
#######################################################################
#
# If this CIF has been generated from an entry in the Cambridge 
# Structural Database, then it will include bibliographic, chemical, 
# crystal, experimental, refinement or atomic coordinate data resulting 
# from the CCDC's data processing and validation procedures.
#
#######################################################################

data_NOJNUW
_symmetry_cell_setting           orthorhombic
_symmetry_space_group_name_H-M   'P 21 21 21'
_symmetry_Int_Tables_number      19
_space_group_name_Hall           'P 2ac 2ab'
loop_
_symmetry_equiv_pos_site_id
_symmetry_equiv_pos_as_xyz
1 x,y,z
2 1/2-x,-y,1/2+z
3 -x,1/2+y,1/2-z
4 1/2+x,1/2-y,-z
_cell_length_a                   9.6171(2)
_cell_length_b                   14.5971(5)
_cell_length_c                   16.3977(4)
_cell_angle_alpha                90
_cell_angle_beta                 90
_cell_angle_gamma                90
_cell_volume                     2301.94
loop_
_atom_site_label
_atom_site_type_symbol
_atom_site_fract_x
_atom_site_fract_y
_atom_site_fract_z
Co1 Co 0.99590(9) 0.52105(5) 0.68849(5)
O1 O 0.9364(4) 0.4792(3) 0.5629(3)
O2 O 0.5663(4) 0.5897(3) 0.2757(3)
O3 O 0.9750(5) 0.6214(3) 0.5981(3)
O4 O 0.7116(4) 0.4887(3) 0.2268(3)
N1 N 1.0677(5) 0.5985(3) 0.7880(3)
N2 N 1.8074(5) 0.9646(3) 0.8362(3)
C1 C 1.0720(7) 0.6108(5) 0.4258(4)
H1 H 1.1205 0.6514 0.4621
H2 H 1.0689 0.6373 0.3723
H3 H 1.1196 0.5531 0.4236
C2 C 0.9429(6) 0.5628(5) 0.5426(4)
C3 C 0.8059(7) 0.5936(4) 0.3269(4)
H4 H 0.8904 0.5947 0.2935
C4 C 1.1517(7) 0.5626(4) 0.8463(4)
H5 H 1.1726 0.5005 0.8435
C5 C 0.8436(8) 0.6881(4) 0.4502(4)
H6 H 0.9056 0.7394 0.4600
H7 H 0.7682 0.6905 0.4894
C6 C 1.1807(6) 0.7060(4) 0.9143(4)
C7 C 1.2465(7) 0.7642(4) 0.9780(4)
H8 H 1.2493 0.7303 1.0289
H9 H 1.1893 0.8181 0.9866
C8 C 1.0924(7) 0.7425(4) 0.8569(4)
H10 H 1.0674 0.8040 0.8602
C9 C 1.7098(7) 1.0109(5) 0.8796(4)
H11 H 1.7340 1.0673 0.9019
C10 C 0.8361(6) 0.5306(4) 0.4006(4)
C11 C 0.6881(7) 0.5566(4) 0.2724(4)
C12 C 1.3950(7) 0.7948(4) 0.9559(4)
H12 H 1.4338 0.8295 1.0009
H13 H 1.4527 0.7411 0.9476
C13 C 1.7701(6) 0.8825(4) 0.8076(4)
H14 H 1.8354 0.8485 0.7787
C14 C 1.3976(7) 0.8540(4) 0.8784(4)
H15 H 1.3693 0.8170 0.8321
H16 H 1.3312 0.9036 0.8841
C15 C 1.5390(6) 0.8932(4) 0.8622(4)
C16 C 0.7861(8) 0.6908(4) 0.3612(4)
H17 H 0.6885 0.7075 0.3611
H18 H 0.8371 0.7350 0.3287
C17 C 1.6379(7) 0.8453(4) 0.8189(4)
H19 H 1.6165 0.7881 0.7972
C18 C 0.6978(6) 0.5039(4) 0.4417(4)
H20 H 0.6465 0.4638 0.4064
H21 H 0.6441 0.5581 0.4521
H22 H 0.7166 0.4732 0.4923
C19 C 1.2079(6) 0.6128(4) 0.9092(4)
H23 H 1.2637 0.5844 0.9480
C20 C 0.9234(7) 0.5960(4) 0.4570(4)
C21 C 1.5779(7) 0.9792(5) 0.8922(4)
H24 H 1.5140 1.0147 0.9207
C22 C 0.9133(7) 0.4433(4) 0.3771(4)
H25 H 0.8547 0.4060 0.3433
H26 H 0.9375 0.4099 0.4256
H27 H 0.9964 0.4589 0.3478
C23 C 1.0402(6) 0.6891(4) 0.7945(4)
H28 H 0.9839 0.7166 0.7553
Co1A Co 0.50410(9) 0.47895(5) 0.18849(5)
Co1B Co 2.00410(9) 1.02105(5) 0.81151(5)
O2A O 0.9337(4) 0.4103(3) 0.7757(3)
O4A O 0.7884(4) 0.5113(3) 0.7268(3)
N2B N 1.1926(5) 0.4646(3) 0.6638(3)
O5 O 0.6477(6) 0.6774(4) 0.6713(4)
O6 O 0.8918(6) 0.8049(4) 0.6211(4)
loop_
_geom_bond_atom_site_label_1
_geom_bond_atom_site_label_2
_geom_bond_site_symmetry_1
_geom_bond_site_symmetry_2
Co1 O1 1_555 1_555
O1 C2 1_555 1_555
O2 C11 1_555 1_555
O3 Co1 1_555 1_555
O4 C11 1_555 1_555
N1 Co1 1_555 1_555
N2 C9 1_555 1_555
C1 H1 1_555 1_555
H2 C1 1_555 1_555
H3 C1 1_555 1_555
C2 O3 1_555 1_555
C3 H4 1_555 1_555
C4 N1 1_555 1_555
H5 C4 1_555 1_555
C5 H6 1_555 1_555
H7 C5 1_555 1_555
C6 C7 1_555 1_555
C7 H8 1_555 1_555
H9 C7 1_555 1_555
C8 C6 1_555 1_555
H10 C8 1_555 1_555
C9 H11 1_555 1_555
C10 C3 1_555 1_555
C11 C3 1_555 1_555
C12 C7 1_555 1_555
H12 C12 1_555 1_555
H13 C12 1_555 1_555
C13 N2 1_555 1_555
H14 C13 1_555 1_555
C14 C12 1_555 1_555
H15 C14 1_555 1_555
H16 C14 1_555 1_555
C15 C14 1_555 1_555
C16 C3 1_555 1_555
H17 C16 1_555 1_555
H18 C16 1_555 1_555
C17 C13 1_555 1_555
H19 C17 1_555 1_555
C18 C10 1_555 1_555
H20 C18 1_555 1_555
H21 C18 1_555 1_555
H22 C18 1_555 1_555
C19 C4 1_555 1_555
H23 C19 1_555 1_555
C20 C1 1_555 1_555
C21 C9 1_555 1_555
H24 C21 1_555 1_555
C22 C10 1_555 1_555
H25 C22 1_555 1_555
H26 C22 1_555 1_555
H27 C22 1_555 1_555
C23 N1 1_555 1_555
H28 C23 1_555 1_555
Co1A O2 1_555 1_555
Co1B N2 1_555 1_555
O2A Co1 1_555 1_555
O4A Co1 1_555 1_555
N2B Co1 1_555 1_555
O4 Co1A 1_555 1_555
C2 C20 1_555 1_555
C5 C16 1_555 1_555
C5 C20 1_555 1_555
C6 C19 1_555 1_555
C8 C23 1_555 1_555
C10 C20 1_555 1_555
C15 C17 1_555 1_555
C15 C21 1_555 1_555

#END
