
#######################################################################
#
#                 Cambridge Crystallographic Data Centre
#                                CCDC 
#
#######################################################################
#
# If this CIF has been generated from an entry in the Cambridge 
# Structural Database, then it will include bibliographic, chemical, 
# crystal, experimental, refinement or atomic coordinate data resulting 
# from the CCDC's data processing and validation procedures.
#
#######################################################################

data_NOJPEI
_symmetry_cell_setting           monoclinic
_symmetry_space_group_name_H-M   'C 2'
_symmetry_Int_Tables_number      5
_space_group_name_Hall           'C 2y'
loop_
_symmetry_equiv_pos_site_id
_symmetry_equiv_pos_as_xyz
1 x,y,z
2 -x,y,-z
3 1/2+x,1/2+y,z
4 1/2-x,1/2+y,-z
_cell_length_a                   19.0446(6)
_cell_length_b                   12.2585(4)
_cell_length_c                   14.0227(4)
_cell_angle_alpha                90
_cell_angle_beta                 106.480(2)
_cell_angle_gamma                90
_cell_volume                     3139.23
loop_
_atom_site_label
_atom_site_type_symbol
_atom_site_fract_x
_atom_site_fract_y
_atom_site_fract_z
Co1 Co 0.81888(4) 0.82305(6) 0.24519(6)
Co2 Co 0.83252(4) 1.36894(6) 0.75231(6)
O1 O 0.7762(2) 1.2036(4) 0.7191(3)
O2 O 0.65213(19) 0.8343(4) 0.1027(3)
O3 O 0.83328(19) 0.8601(4) 0.3876(3)
O4 O 0.7653(2) 0.7823(3) 0.1070(3)
O5 O 0.7334(2) 0.4924(4) -0.2135(3)
O6 O 0.8894(2) 1.2411(4) 0.7183(3)
O7 O 0.7206(2) 0.9157(4) 0.3865(3)
O8 O 0.6205(2) 0.4506(4) -0.2153(3)
N1 N 0.8906(3) 0.6922(4) 0.2804(4)
N2 N 0.9062(3) 1.4957(5) 0.7892(4)
C1 C 0.8036(4) 0.9719(7) 0.7141(7)
H1 H 0.7692 1.0057 0.7445
H2 H 0.8346 0.9207 0.7599
C2 C 0.7220(5) 0.7122(6) -0.1815(5)
H3 H 0.7681 0.6728 -0.1641
H4 H 0.7142 0.7426 -0.2476
C3 C 0.5872(5) 0.6761(6) -0.2549(5)
H5 H 0.5908 0.6677 -0.3214
H6 H 0.5800 0.7517 -0.2425
H7 H 0.5466 0.6343 -0.2472
C4 C 0.8863(5) 0.8679(11) 0.5885(6)
H8 H 0.8785 0.7906 0.5809
H9 H 0.9016 0.8860 0.6579
H10 H 0.9235 0.8894 0.5583
C5 C 0.7939(5) 1.1288(7) 0.4959(6)
H11 H 0.7432 1.1281 0.4943
H12 H 0.7981 1.1150 0.4303
H13 H 0.8147 1.1988 0.5184
C6 C 0.7620(5) 0.9155(8) 0.6022(7)
H14 H 0.7509 0.8393 0.6099
H15 H 0.7167 0.9535 0.5705
C7 C 0.8324(9) 1.0458(8) 0.5626(6)
C8 C 0.9150(7) 1.0751(17) 0.5417(11)
H16 H 0.9256 1.1514 0.5532
H17 H 0.9127 1.0575 0.4742
H18 H 0.9529 1.0329 0.5861
C9 C 0.6716(3) 0.5200(5) -0.2048(4)
C10 C 0.6986(3) 0.7987(5) 0.0637(4)
C11 C 1.0000 0.3638(10) 0.5000
C12 C 0.6591(4) 0.6351(6) -0.1797(5)
C13 C 0.8166(3) 0.9265(5) 0.5391(5)
C14 C 0.8372(4) 1.1754(7) 0.7058(5)
C15 C 0.8468(4) 1.0545(6) 0.6734(5)
H19 H 0.8986 1.0362 0.7025
C16 C 1.0000 1.8312(10) 1.0000
C17 C 0.9733(3) 1.4795(6) 0.8511(5)
H20 H 0.9899 1.4081 0.8643
C18 C 0.8851(3) 1.6015(6) 0.7709(5)
H21 H 0.8400 1.6163 0.7255
C19 C 0.8703(3) 0.5902(5) 0.2632(5)
H22 H 0.8248 0.5757 0.2186
C20 C 0.9563(3) 0.7093(6) 0.3411(5)
H23 H 0.9722 0.7812 0.3520
C21 C 1.0189(3) 1.5632(6) 0.8962(5)
H24 H 1.0658 1.5479 0.9363
C22 C 0.7143(4) 0.5759(6) -0.0034(5)
H25 H 0.7133 0.5820 0.0644
H26 H 0.7612 0.5992 -0.0087
H27 H 0.7060 0.5014 -0.0246
C23 C 0.6718(3) 0.7713(6) -0.0485(4)
H28 H 0.6260 0.8112 -0.0767
C24 C 0.7881(3) 0.9003(5) 0.4307(5)
C25 C 1.0404(4) 1.7629(6) 0.9372(5)
H29 H 1.0539 1.8107 0.8902
H30 H 1.0851 1.7331 0.9812
C26 C 0.9822(3) 0.5216(6) 0.3738(5)
C27 C 0.9946(3) 1.6717(6) 0.8818(5)
C28 C 0.6550(3) 0.6471(6) -0.0686(5)
C29 C 0.5810(4) 0.6186(6) -0.0518(5)
H31 H 0.5839 0.6282 0.0172
H32 H 0.5689 0.5441 -0.0706
H33 H 0.5438 0.6657 -0.0915
C30 C 0.9139(4) 0.5018(6) 0.3088(5)
H34 H 0.8970 0.4307 0.2954
C31 C 0.7244(3) 0.8035(6) -0.1065(5)
H35 H 0.7736 0.8115 -0.0623
H36 H 0.7097 0.8722 -0.1406
C32 C 0.9268(3) 1.6855(6) 0.8160(5)
H37 H 0.9087 1.7559 0.8019
C33 C 1.0036(3) 0.6280(6) 0.3901(5)
H38 H 1.0491 0.6457 0.4332
C34 C 1.0299(4) 0.4292(6) 0.4298(5)
H39 H 1.0397 0.3796 0.3813
H40 H 1.0765 0.4600 0.4674
Co1C Co 0.68112(4) 1.32305(6) -0.24519(6)
Co1C_2 Co 0.68112(4) 0.32305(6) -0.24519(6)
Co1A Co 1.18112(4) 0.82305(6) 0.75481(6)
Co1C_3 Co 0.68112(4) 1.32305(6) 0.75481(6)
Co2C Co 0.66748(4) 0.86894(6) 0.24769(6)
Co2A Co 1.16748(4) 1.36894(6) 1.24769(6)
Co2_2 Co 0.83252(4) 1.36894(6) -0.24769(6)
Co2C_2 Co 0.66748(4) 1.86894(6) 0.24769(6)
O1C O 0.7238(2) 1.7036(4) 0.2809(3)
O1C_2 O 0.7238(2) 0.7036(4) 0.2809(3)
O2C O 0.84787(19) 1.3343(4) -0.1027(3)
O2C_2 O 0.84787(19) 1.3343(4) 0.8973(3)
O3C O 0.66672(19) 1.3601(4) 0.6124(3)
O3C_2 O 0.66672(19) 1.3601(4) -0.3876(3)
O4C O 0.7347(2) 1.2823(3) -0.1070(3)
O5C O 0.7666(2) 0.9924(4) 0.2135(3)
O5_2 O 0.7334(2) 1.4924(4) -0.2135(3)
O6C O 0.6106(2) 1.7411(4) 0.2817(3)
O6C_2 O 0.6106(2) 0.7411(4) 0.2817(3)
O7C O 0.7794(2) 1.4157(4) 0.6135(3)
O8C O 0.8795(2) 0.9506(4) 0.2153(3)
O8_2 O 0.6205(2) 1.4506(4) -0.2153(3)
N1A N 1.1094(3) 0.6922(4) 0.7196(4)
N1C N 0.6094(3) 1.1922(4) -0.2804(4)
N2A N 1.0938(3) 1.4957(5) 1.2108(4)
N2C N 0.5938(3) 0.9957(5) 0.2108(4)
C1C C 0.6964(4) 1.4719(7) 0.2859(7)
H1C H 0.7308 1.5057 0.2555
H2C H 0.6654 1.4207 0.2401
C2C C 0.7780(5) 1.2122(6) 0.1815(5)
H3C H 0.7319 1.1728 0.1641
H4C H 0.7858 1.2426 0.2476
C3C C 0.9128(5) 1.1761(6) 0.2549(5)
H5C H 0.9092 1.1677 0.3214
H6C H 0.9200 1.2517 0.2425
H7C H 0.9534 1.1343 0.2472
C4C C 0.6137(5) 1.3679(11) 0.4115(6)
H8C H 0.6215 1.2906 0.4191
H9C H 0.5984 1.3860 0.3421
H10C H 0.5765 1.3894 0.4417
C5C C 0.7061(5) 1.6288(7) 0.5041(6)
H11C H 0.7568 1.6281 0.5057
H12C H 0.7019 1.6150 0.5697
H13C H 0.6853 1.6988 0.4816
C6C C 0.7380(5) 1.4155(8) 0.3978(7)
H14C H 0.7491 1.3393 0.3901
H15C H 0.7833 1.4535 0.4295
C7C C 0.6676(9) 1.5458(8) 0.4374(6)
C8C C 0.5850(7) 1.5751(17) 0.4583(11)
H16C H 0.5744 1.6514 0.4468
H17C H 0.5873 1.5575 0.5258
H18C H 0.5471 1.5329 0.4139
C9C C 0.8284(3) 1.0200(5) 0.2048(4)
C10C C 0.8014(3) 1.2987(5) -0.0637(4)
C12C C 0.8409(4) 1.1351(6) 0.1797(5)
C13C C 0.6834(3) 1.4265(5) 0.4609(5)
C14C C 0.6628(4) 1.6754(7) 0.2942(5)
C15C C 0.6532(4) 1.5545(6) 0.3266(5)
H19C H 0.6014 1.5362 0.2975
C17A C 1.0267(3) 1.4795(6) 1.1489(5)
H20A H 1.0101 1.4081 1.1357
C18A C 1.1149(3) 1.6015(6) 1.2291(5)
H21A H 1.1600 1.6163 1.2745
C19A C 1.1297(3) 0.5902(5) 0.7368(5)
H22A H 1.1752 0.5757 0.7814
C20A C 1.0437(3) 0.7093(6) 0.6589(5)
H23A H 1.0278 0.7812 0.6480
C21A C 0.9811(3) 1.5632(6) 1.1038(5)
H24A H 0.9342 1.5479 1.0637
C22C C 0.7857(4) 1.0759(6) 0.0034(5)
H25C H 0.7867 1.0820 -0.0644
H26C H 0.7388 1.0992 0.0087
H27C H 0.7940 1.0014 0.0246
C23C C 0.8282(3) 1.2713(6) 0.0485(4)
H28C H 0.8740 1.3112 0.0767
C24C C 0.7119(3) 1.4003(5) 0.5693(5)
C25A C 0.9596(4) 1.7629(6) 1.0628(5)
H29A H 0.9461 1.8107 1.1098
H30A H 0.9149 1.7331 1.0188
C26A C 1.0178(3) 0.5216(6) 0.6262(5)
C27A C 1.0054(3) 1.6717(6) 1.1182(5)
C28C C 0.8450(3) 1.1471(6) 0.0686(5)
C29C C 0.9190(4) 1.1186(6) 0.0518(5)
H31C H 0.9161 1.1282 -0.0172
H32C H 0.9311 1.0441 0.0706
H33C H 0.9562 1.1657 0.0915
C30A C 1.0861(4) 0.5018(6) 0.6912(5)
H34A H 1.1030 0.4307 0.7046
C31C C 0.7756(3) 1.3035(6) 0.1065(5)
H35C H 0.7264 1.3115 0.0623
H36C H 0.7903 1.3722 0.1406
C32A C 1.0732(3) 1.6855(6) 1.1840(5)
H37A H 1.0913 1.7559 1.1981
C33A C 0.9964(3) 0.6280(6) 0.6099(5)
H38A H 0.9509 0.6457 0.5668
C34A C 0.9701(4) 0.4292(6) 0.5702(5)
H39A H 0.9603 0.3796 0.6187
H40A H 0.9235 0.4600 0.5326
loop_
_geom_bond_atom_site_label_1
_geom_bond_atom_site_label_2
_geom_bond_site_symmetry_1
_geom_bond_site_symmetry_2
Co1 O3 1_555 1_555
Co2 O1 1_555 1_555
O1 C14 1_555 1_555
O2 C10 1_555 1_555
O3 C24 1_555 1_555
O4 Co1 1_555 1_555
O5 C9 1_555 1_555
O6 Co2 1_555 1_555
O7 C24 1_555 1_555
O8 C9 1_555 1_555
N1 Co1 1_555 1_555
N2 Co2 1_555 1_555
C1 H1 1_555 1_555
H2 C1 1_555 1_555
C2 H3 1_555 1_555
H4 C2 1_555 1_555
C3 H5 1_555 1_555
H6 C3 1_555 1_555
H7 C3 1_555 1_555
C4 H8 1_555 1_555
H9 C4 1_555 1_555
H10 C4 1_555 1_555
C5 H11 1_555 1_555
H12 C5 1_555 1_555
H13 C5 1_555 1_555
C6 C1 1_555 1_555
H14 C6 1_555 1_555
H15 C6 1_555 1_555
C7 C5 1_555 1_555
C8 C7 1_555 1_555
H16 C8 1_555 1_555
H17 C8 1_555 1_555
H18 C8 1_555 1_555
C9 C12 1_555 1_555
C10 O4 1_555 1_555
C11 C34 1_555 1_555
C12 C2 1_555 1_555
C13 C4 1_555 1_555
C14 O6 1_555 1_555
C15 C1 1_555 1_555
H19 C15 1_555 1_555
C16 C25 1_555 1_555
C17 N2 1_555 1_555
H20 C17 1_555 1_555
C18 N2 1_555 1_555
H21 C18 1_555 1_555
C19 N1 1_555 1_555
H22 C19 1_555 1_555
C20 N1 1_555 1_555
H23 C20 1_555 1_555
C21 C17 1_555 1_555
H24 C21 1_555 1_555
C22 H25 1_555 1_555
H26 C22 1_555 1_555
H27 C22 1_555 1_555
C23 C10 1_555 1_555
H28 C23 1_555 1_555
C24 C13 1_555 1_555
C25 H29 1_555 1_555
H30 C25 1_555 1_555
C26 C30 1_555 1_555
C27 C21 1_555 1_555
C28 C12 1_555 1_555
C29 C28 1_555 1_555
H31 C29 1_555 1_555
H32 C29 1_555 1_555
H33 C29 1_555 1_555
C30 C19 1_555 1_555
H34 C30 1_555 1_555
C31 C2 1_555 1_555
H35 C31 1_555 1_555
H36 C31 1_555 1_555
C32 C18 1_555 1_555
H37 C32 1_555 1_555
C33 C20 1_555 1_555
H38 C33 1_555 1_555
C34 C26 1_555 1_555
H39 C34 1_555 1_555
H40 C34 1_555 1_555
Co1C O3C_2 1_555 1_555
Co1C_2 O5 1_555 1_555
Co1A N1A 1_555 1_555
Co1C_3 O3C 1_555 1_555
Co2C O2 1_555 1_555
Co2A N2A 1_555 1_555
Co2_2 O2C 1_555 1_555
Co2C_2 O1C 1_555 1_555
O1C C14C 1_555 1_555
O1C_2 Co2C 1_555 1_555
O2C C10C 1_555 1_555
O2C_2 Co2 1_555 1_555
O3C C24C 1_555 1_555
O4C Co1C 1_555 1_555
O5C Co1 1_555 1_555
O5_2 Co1C 1_555 1_555
O6C Co2C_2 1_555 1_555
O6C_2 Co2C 1_555 1_555
O7C Co2 1_555 1_555
O8C Co1 1_555 1_555
O8_2 Co1C 1_555 1_555
N1A C19A 1_555 1_555
N1C Co1C 1_555 1_555
N2A C17A 1_555 1_555
N2C Co2C 1_555 1_555
C1C H1C 1_555 1_555
H2C C1C 1_555 1_555
C2C H3C 1_555 1_555
H4C C2C 1_555 1_555
C3C H5C 1_555 1_555
H6C C3C 1_555 1_555
H7C C3C 1_555 1_555
C4C H8C 1_555 1_555
H9C C4C 1_555 1_555
H10C C4C 1_555 1_555
C5C H11C 1_555 1_555
H12C C5C 1_555 1_555
H13C C5C 1_555 1_555
C6C C1C 1_555 1_555
H14C C6C 1_555 1_555
H15C C6C 1_555 1_555
C7C C5C 1_555 1_555
C8C C7C 1_555 1_555
H16C C8C 1_555 1_555
H17C C8C 1_555 1_555
H18C C8C 1_555 1_555
C9C O5C 1_555 1_555
C10C O4C 1_555 1_555
C12C C2C 1_555 1_555
C13C C4C 1_555 1_555
C14C O6C 1_555 1_555
C15C C1C 1_555 1_555
H19C C15C 1_555 1_555
C17A H20A 1_555 1_555
C18A N2A 1_555 1_555
H21A C18A 1_555 1_555
C19A H22A 1_555 1_555
C20A N1A 1_555 1_555
H23A C20A 1_555 1_555
C21A C17A 1_555 1_555
H24A C21A 1_555 1_555
C22C H25C 1_555 1_555
H26C C22C 1_555 1_555
H27C C22C 1_555 1_555
C23C C10C 1_555 1_555
H28C C23C 1_555 1_555
C24C O7C 1_555 1_555
C25A C16 1_555 1_555
H29A C25A 1_555 1_555
H30A C25A 1_555 1_555
C26A C30A 1_555 1_555
C27A C21A 1_555 1_555
C28C C12C 1_555 1_555
C29C C28C 1_555 1_555
H31C C29C 1_555 1_555
H32C C29C 1_555 1_555
H33C C29C 1_555 1_555
C30A C19A 1_555 1_555
H34A C30A 1_555 1_555
C31C C2C 1_555 1_555
H35C C31C 1_555 1_555
H36C C31C 1_555 1_555
C32A C18A 1_555 1_555
H37A C32A 1_555 1_555
C33A C20A 1_555 1_555
H38A C33A 1_555 1_555
C34A C11 1_555 1_555
H39A C34A 1_555 1_555
H40A C34A 1_555 1_555
O7 Co2C 1_555 1_555
O8 Co1C_2 1_555 1_555
C3 C12 1_555 1_555
C6 C13 1_555 1_555
C7 C13 1_555 1_555
C7 C15 1_555 1_555
C14 C15 1_555 1_555
C22 C28 1_555 1_555
C23 C28 1_555 1_555
C23 C31 1_555 1_555
C25 C27 1_555 1_555
C26 C33 1_555 1_555
C27 C32 1_555 1_555
O8C C9C 1_555 1_555
C3C C12C 1_555 1_555
C6C C13C 1_555 1_555
C7C C13C 1_555 1_555
C7C C15C 1_555 1_555
C9C C12C 1_555 1_555
C13C C24C 1_555 1_555
C14C C15C 1_555 1_555
C22C C28C 1_555 1_555
C23C C28C 1_555 1_555
C23C C31C 1_555 1_555
C25A C27A 1_555 1_555
C26A C33A 1_555 1_555
C26A C34A 1_555 1_555
C27A C32A 1_555 1_555

#END
