
#######################################################################
#
#                 Cambridge Crystallographic Data Centre
#                                CCDC 
#
#######################################################################
#
# If this CIF has been generated from an entry in the Cambridge 
# Structural Database, then it will include bibliographic, chemical, 
# crystal, experimental, refinement or atomic coordinate data resulting 
# from the CCDC's data processing and validation procedures.
#
#######################################################################

data_NOJSIQ
_symmetry_cell_setting           monoclinic
_symmetry_space_group_name_H-M   'P 21/c'
_symmetry_Int_Tables_number      14
_space_group_name_Hall           '-P 2ybc'
loop_
_symmetry_equiv_pos_site_id
_symmetry_equiv_pos_as_xyz
1 x,y,z
2 -x,1/2+y,1/2-z
3 -x,-y,-z
4 x,1/2-y,1/2+z
_cell_length_a                   11.4760(13)
_cell_length_b                   16.0380(18)
_cell_length_c                   11.4170(13)
_cell_angle_alpha                90
_cell_angle_beta                 110.0560(10)
_cell_angle_gamma                90
_cell_volume                     1973.89
loop_
_atom_site_label
_atom_site_type_symbol
_atom_site_fract_x
_atom_site_fract_y
_atom_site_fract_z
Co1 Co 0.51124(5) 0.21820(4) 0.42742(5)
N1 N 0.4687(4) 0.0003(3) 0.2200(4)
H1 H 0.4909 -0.0311 0.1703
N2 N 0.4688(4) 0.1032(3) 0.3475(4)
N3 N -0.4045(4) 0.2432(3) 0.8094(4)
N4 N -0.4098(4) 0.2203(2) 0.6130(4)
O1 O 0.4573(3) 0.3977(2) 0.4339(4)
O2 O 0.3544(3) 0.2780(2) 0.4053(3)
C1 C 0.2751(4) 0.0720(3) 0.3935(4)
C2 C 0.3095(4) 0.0957(3) 0.5176(4)
H2 H 0.3931 0.0968 0.5666
C3 C 0.2205(4) 0.1177(3) 0.5698(4)
H3 H 0.2455 0.1343 0.6528
C4 C 0.0941(4) 0.1152(3) 0.4992(4)
C5 C 0.0605(4) 0.0885(3) 0.3746(4)
H4 H -0.0231 0.0850 0.3262
C6 C 0.1487(4) 0.0675(3) 0.3227(4)
H5 H 0.1241 0.0502 0.2400
C7 C -0.0021(4) 0.1406(3) 0.5517(4)
C8 C 0.0221(4) 0.1998(3) 0.6474(5)
H6 H 0.1009 0.2230 0.6806
C9 C -0.0693(5) 0.2240(3) 0.6932(5)
H7 H -0.0513 0.2636 0.7564
C10 C -0.1885(4) 0.1901(3) 0.6461(4)
C11 C -0.2117(4) 0.1299(3) 0.5525(4)
H8 H -0.2897 0.1053 0.5212
C12 C -0.1208(4) 0.1063(3) 0.5058(4)
H9 H -0.1389 0.0667 0.4426
C13 C 0.3668(4) 0.0521(3) 0.3342(4)
C14 C 0.3673(5) -0.0109(3) 0.2552(5)
H10 H 0.3095 -0.0538 0.2297
C15 C 0.5270(5) 0.0689(3) 0.2767(5)
H11 H 0.5991 0.0899 0.2680
C16 C -0.2881(5) 0.2141(3) 0.6928(4)
C17 C -0.2857(4) 0.2291(3) 0.8123(4)
H12 H -0.2151 0.2295 0.8835
C18 C -0.4757(4) 0.2365(3) 0.6896(5)
H13 H -0.5615 0.2422 0.6613
C19 C 0.2526(4) 0.3987(3) 0.4403(4)
C20 C 0.2418(5) 0.4853(3) 0.4376(5)
H14 H 0.3021 0.5175 0.4218
C21 C 0.1430(5) 0.5241(3) 0.4580(5)
H15 H 0.1371 0.5819 0.4529
C22 C 0.0520(4) 0.4791(3) 0.4860(4)
C23 C 0.0629(5) 0.3924(3) 0.4864(5)
H16 H 0.0026 0.3602 0.5021
C24 C 0.1605(4) 0.3529(3) 0.4643(5)
H17 H 0.1645 0.2950 0.4656
C25 C 0.3628(4) 0.3567(3) 0.4249(4)
O1B O -0.4573(3) 0.6023(2) 0.5661(4)
O2B O -0.3544(3) 0.7220(2) 0.5947(3)
C19B C -0.2526(4) 0.6013(3) 0.5597(4)
C20B C -0.2418(5) 0.5147(3) 0.5624(5)
H14B H -0.3021 0.4825 0.5782
C21B C -0.1430(5) 0.4759(3) 0.5420(5)
H15B H -0.1371 0.4181 0.5471
C22B C -0.0520(4) 0.5209(3) 0.5140(4)
C23B C -0.0629(5) 0.6076(3) 0.5136(5)
H16B H -0.0026 0.6398 0.4979
C24B C -0.1605(4) 0.6471(3) 0.5357(5)
H17B H -0.1645 0.7050 0.5344
C25B C -0.3628(4) 0.6433(3) 0.5751(4)
Co1B Co -0.51124(5) 0.78180(4) 0.57258(5)
N1B N -0.4687(4) 0.9997(3) 0.7800(4)
H1B H -0.4909 1.0311 0.8297
N2B N -0.4688(4) 0.8968(3) 0.6525(4)
N3B N 0.4045(4) 0.7568(3) 0.1906(4)
N4B N 0.4098(4) 0.7797(2) 0.3870(4)
C1B C -0.2751(4) 0.9280(3) 0.6065(4)
C2B C -0.3095(4) 0.9043(3) 0.4824(4)
H2B H -0.3931 0.9032 0.4334
C3B C -0.2205(4) 0.8823(3) 0.4302(4)
H3B H -0.2455 0.8657 0.3472
C4B C -0.0941(4) 0.8848(3) 0.5008(4)
C5B C -0.0605(4) 0.9115(3) 0.6254(4)
H4B H 0.0231 0.9150 0.6738
C6B C -0.1487(4) 0.9325(3) 0.6773(4)
H5B H -0.1241 0.9498 0.7600
C7B C 0.0021(4) 0.8594(3) 0.4483(4)
C8B C -0.0221(4) 0.8002(3) 0.3526(5)
H6B H -0.1009 0.7770 0.3194
C9B C 0.0693(5) 0.7760(3) 0.3068(5)
H7B H 0.0513 0.7364 0.2436
C10B C 0.1885(4) 0.8099(3) 0.3539(4)
C11B C 0.2117(4) 0.8701(3) 0.4475(4)
H8B H 0.2897 0.8947 0.4788
C12B C 0.1208(4) 0.8937(3) 0.4942(4)
H9B H 0.1389 0.9333 0.5574
C13B C -0.3668(4) 0.9479(3) 0.6658(4)
C14B C -0.3673(5) 1.0109(3) 0.7448(5)
H10B H -0.3095 1.0538 0.7703
C15B C -0.5270(5) 0.9311(3) 0.7233(5)
H11B H -0.5991 0.9101 0.7320
C16B C 0.2881(5) 0.7859(3) 0.3072(4)
C17B C 0.2857(4) 0.7709(3) 0.1877(4)
H12B H 0.2151 0.7705 0.1165
C18B C 0.4757(4) 0.7635(3) 0.3104(5)
H13B H 0.5615 0.7578 0.3387
Co1_2 Co -0.48876(5) 0.21820(4) 0.42742(5)
Co1A Co 0.48876(5) 0.71820(4) 0.07258(5)
Co1B_2 Co 0.48876(5) 0.78180(4) 0.57258(5)
Co1C Co -0.48876(5) 0.28180(4) 0.92742(5)
N3A N -0.5955(4) 0.7432(3) 0.6906(4)
N3C N 0.5955(4) 0.2568(3) 0.3094(4)
N4_2 N 0.5902(4) 0.2203(2) 0.6130(4)
N4B_2 N -0.5902(4) 0.7797(2) 0.3870(4)
loop_
_geom_bond_atom_site_label_1
_geom_bond_atom_site_label_2
_geom_bond_site_symmetry_1
_geom_bond_site_symmetry_2
Co1 N2 1_555 1_555
N1 H1 1_555 1_555
N2 C13 1_555 1_555
N3 C17 1_555 1_555
N4 C16 1_555 1_555
O1 C25 1_555 1_555
O2 Co1 1_555 1_555
C1 C2 1_555 1_555
C2 H2 1_555 1_555
C3 C2 1_555 1_555
H3 C3 1_555 1_555
C4 C3 1_555 1_555
C5 C4 1_555 1_555
H4 C5 1_555 1_555
C6 C1 1_555 1_555
H5 C6 1_555 1_555
C7 C4 1_555 1_555
C8 C7 1_555 1_555
H6 C8 1_555 1_555
C9 C8 1_555 1_555
H7 C9 1_555 1_555
C10 C9 1_555 1_555
C11 C10 1_555 1_555
H8 C11 1_555 1_555
C12 C7 1_555 1_555
H9 C12 1_555 1_555
C13 C1 1_555 1_555
C14 N1 1_555 1_555
H10 C14 1_555 1_555
C15 N1 1_555 1_555
H11 C15 1_555 1_555
C16 C10 1_555 1_555
C17 C16 1_555 1_555
H12 C17 1_555 1_555
C18 N3 1_555 1_555
H13 C18 1_555 1_555
C19 C20 1_555 1_555
C20 H14 1_555 1_555
C21 C20 1_555 1_555
H15 C21 1_555 1_555
C22 C21 1_555 1_555
C23 C22 1_555 1_555
H16 C23 1_555 1_555
C24 C19 1_555 1_555
H17 C24 1_555 1_555
C25 O2 1_555 1_555
O1B C25B 1_555 1_555
O2B C25B 1_555 1_555
C19B C20B 1_555 1_555
C20B H14B 1_555 1_555
C21B C20B 1_555 1_555
H15B C21B 1_555 1_555
C22B C22 1_555 1_555
C23B C22B 1_555 1_555
H16B C23B 1_555 1_555
C24B C19B 1_555 1_555
H17B C24B 1_555 1_555
C25B C19B 1_555 1_555
Co1B O2B 1_555 1_555
N1B H1B 1_555 1_555
N2B Co1B 1_555 1_555
N3B C17B 1_555 1_555
N4B C16B 1_555 1_555
C1B C2B 1_555 1_555
C2B H2B 1_555 1_555
C3B C2B 1_555 1_555
H3B C3B 1_555 1_555
C4B C3B 1_555 1_555
C5B C4B 1_555 1_555
H4B C5B 1_555 1_555
C6B C1B 1_555 1_555
H5B C6B 1_555 1_555
C7B C4B 1_555 1_555
C8B C7B 1_555 1_555
H6B C8B 1_555 1_555
C9B C8B 1_555 1_555
H7B C9B 1_555 1_555
C10B C9B 1_555 1_555
C11B C10B 1_555 1_555
H8B C11B 1_555 1_555
C12B C7B 1_555 1_555
H9B C12B 1_555 1_555
C13B N2B 1_555 1_555
C14B N1B 1_555 1_555
H10B C14B 1_555 1_555
C15B N1B 1_555 1_555
H11B C15B 1_555 1_555
C16B C10B 1_555 1_555
C17B C16B 1_555 1_555
H12B C17B 1_555 1_555
C18B N3B 1_555 1_555
H13B C18B 1_555 1_555
Co1_2 N4 1_555 1_555
Co1A N3B 1_555 1_555
Co1B_2 N4B 1_555 1_555
Co1C N3 1_555 1_555
N3A Co1B 1_555 1_555
N3C Co1 1_555 1_555
N4_2 Co1 1_555 1_555
N4B_2 Co1B 1_555 1_555
N2 C15 1_555 1_555
N4 C18 1_555 1_555
C5 C6 1_555 1_555
C11 C12 1_555 1_555
C13 C14 1_555 1_555
C19 C25 1_555 1_555
C23 C24 1_555 1_555
C21B C22B 1_555 1_555
C23B C24B 1_555 1_555
N2B C15B 1_555 1_555
N4B C18B 1_555 1_555
C1B C13B 1_555 1_555
C5B C6B 1_555 1_555
C11B C12B 1_555 1_555
C13B C14B 1_555 1_555

#END
