
#######################################################################
#
#                 Cambridge Crystallographic Data Centre
#                                CCDC 
#
#######################################################################
#
# If this CIF has been generated from an entry in the Cambridge 
# Structural Database, then it will include bibliographic, chemical, 
# crystal, experimental, refinement or atomic coordinate data resulting 
# from the CCDC's data processing and validation procedures.
#
#######################################################################

data_NOJSUC
_symmetry_cell_setting           triclinic
_symmetry_space_group_name_H-M   'P -1'
_symmetry_Int_Tables_number      2
_space_group_name_Hall           '-P 1'
loop_
_symmetry_equiv_pos_site_id
_symmetry_equiv_pos_as_xyz
1 x,y,z
2 -x,-y,-z
_cell_length_a                   7.953(5)
_cell_length_b                   12.514(5)
_cell_length_c                   12.804(5)
_cell_angle_alpha                98.102(5)
_cell_angle_beta                 107.666(5)
_cell_angle_gamma                103.542(5)
_cell_volume                     1149.13
loop_
_atom_site_label
_atom_site_type_symbol
_atom_site_fract_x
_atom_site_fract_y
_atom_site_fract_z
Ni1 Ni 0.5000 0.0000 0.5000
Ni2 Ni 0.5000 0.5000 0.5000
O1 O 0.4608(3) 0.04544(17) 0.35197(16)
O2 O 0.1817(3) -0.0648(2) 0.2374(2)
O3 O 0.6504(4) 0.4312(2) 0.4190(2)
N1 N 0.3980(4) 0.2687(2) 0.72456(19)
O4 O 0.2763(3) 0.44615(17) 0.35823(17)
N2 N 0.1218(3) 0.1999(2) 0.5560(2)
O5 O 0.7894(4) 0.0761(2) 0.2917(2)
O6 O 0.7572(3) 0.11853(19) 0.5659(2)
N3 N 0.7078(4) 0.1468(2) 0.2740(2)
O7 O 0.7594(4) 0.2415(2) 0.3343(3)
N4 N 0.3954(3) 0.34066(18) 0.55542(19)
N5 N 0.3990(3) 0.14430(18) 0.55835(18)
C1 C 0.1956(4) 0.2302(3) 0.6802(3)
H1 H 0.1489 0.2895 0.7068
H2 H 0.1526 0.1650 0.7084
C2 C 0.2624(6) 0.0674(4) -0.0318(3)
H3 H 0.1661 0.0502 -0.1004
C3 C 0.5452(4) 0.1184(3) 0.1707(2)
C4 C 0.4624(4) 0.2460(2) 0.5171(2)
H4 H 0.4184 0.2266 0.4354
H5 H 0.5963 0.2706 0.5439
C5 C 0.4653(4) 0.1777(2) 0.6837(2)
H6 H 0.4243 0.1125 0.7124
H7 H 0.5992 0.2021 0.7126
C6 C 0.3749(4) 0.0483(2) 0.1607(2)
O8 O 0.0720(5) 0.5341(3) 0.3841(3)
C7 C 0.4617(4) 0.3669(2) 0.6808(2)
H8 H 0.5956 0.3927 0.7099
H9 H 0.4178 0.4278 0.7075
C8 C 0.1937(4) 0.1102(2) 0.5176(2)
H10 H 0.1467 0.0898 0.4359
H11 H 0.1494 0.0440 0.5441
C9 C 0.1879(4) 0.2991(2) 0.5140(2)
H12 H 0.1408 0.3591 0.5387
H13 H 0.1407 0.2796 0.4323
C10 C 0.0610(6) 0.3575(3) 0.1340(3)
C11 C 0.3331(4) 0.0051(3) 0.2571(2)
C12 C 0.0125(5) 0.4295(3) 0.2001(3)
C13 C -0.2261(9) 0.4352(5) 0.0410(5)
H14 H -0.3232 0.4641 0.0108
C14 C 0.4322(6) 0.1386(4) -0.0173(3)
H15 H 0.4504 0.1695 -0.0764
N6 N 0.2053(6) 0.3041(4) 0.1749(3)
C15 C 0.5751(5) 0.1646(3) 0.0835(3)
H16 H 0.6902 0.2125 0.0930
C16 C 0.1274(5) 0.4729(3) 0.3270(3)
C17 C 0.2354(5) 0.0212(3) 0.0568(3)
H17 H 0.1215 -0.0288 0.0459
O9 O 0.1705(7) 0.2248(4) 0.2191(4)
O10 O 0.3534(7) 0.3423(5) 0.1644(4)
C18 C -0.0373(8) 0.3201(5) 0.0145(4)
H18 H -0.0054 0.2697 -0.0311
C19 C -0.1839(7) 0.3639(4) -0.0291(4)
H19 H -0.2515 0.3439 -0.1059
C20 C -0.1325(7) 0.4671(4) 0.1544(5)
H20 H -0.1688 0.5146 0.2001
H21 H 0.808(8) 0.114(5) 0.633(6)
H22 H 0.830(6) 0.142(3) 0.544(3)
H23 H 0.602(6) 0.380(4) 0.363(4)
H24 H 0.750(8) 0.434(4) 0.457(4)
O1A O 0.5392(3) -0.04544(17) 0.64803(16)
O2A O 0.8183(3) 0.0648(2) 0.7626(2)
N1A N 0.6020(4) -0.2687(2) 0.27544(19)
N2A N 0.8782(3) -0.1999(2) 0.4440(2)
O5A O 0.2106(4) -0.0761(2) 0.7083(2)
O6A O 0.2428(3) -0.11853(19) 0.4341(2)
N3A N 0.2922(4) -0.1468(2) 0.7260(2)
O7A O 0.2406(4) -0.2415(2) 0.6657(3)
N4A N 0.6046(3) -0.34066(18) 0.44458(19)
N5A N 0.6010(3) -0.14430(18) 0.44165(18)
C1A C 0.8044(4) -0.2302(3) 0.3198(3)
H1A H 0.8511 -0.2895 0.2932
H2A H 0.8474 -0.1650 0.2916
C2A C 0.7376(6) -0.0674(4) 1.0318(3)
H3A H 0.8339 -0.0502 1.1004
C3A C 0.4548(4) -0.1184(3) 0.8293(2)
C4A C 0.5376(4) -0.2460(2) 0.4829(2)
H4A H 0.5816 -0.2266 0.5646
H5A H 0.4037 -0.2706 0.4561
C5A C 0.5347(4) -0.1777(2) 0.3163(2)
H6A H 0.5757 -0.1125 0.2876
H7A H 0.4008 -0.2021 0.2874
C6A C 0.6251(4) -0.0483(2) 0.8393(2)
C7A C 0.5383(4) -0.3669(2) 0.3192(2)
H8A H 0.4044 -0.3927 0.2901
H9A H 0.5822 -0.4278 0.2925
C8A C 0.8063(4) -0.1102(2) 0.4824(2)
H10A H 0.8533 -0.0898 0.5641
H11A H 0.8506 -0.0440 0.4559
C9A C 0.8121(4) -0.2991(2) 0.4860(2)
H12A H 0.8592 -0.3591 0.4613
H13A H 0.8593 -0.2796 0.5677
C11A C 0.6669(4) -0.0051(3) 0.7429(2)
C14A C 0.5678(6) -0.1386(4) 1.0173(3)
H15A H 0.5496 -0.1695 1.0764
C15A C 0.4249(5) -0.1646(3) 0.9165(3)
H16A H 0.3098 -0.2125 0.9070
C17A C 0.7646(5) -0.0212(3) 0.9432(3)
H17A H 0.8785 0.0288 0.9541
H21A H 0.192(8) -0.114(5) 0.367(6)
H22A H 0.170(6) -0.142(3) 0.456(3)
O4A O 0.7237(3) 0.55385(17) 0.64177(17)
O8A O 0.9280(5) 0.4659(3) 0.6159(3)
C10A C 0.9390(6) 0.6425(3) 0.8660(3)
C12A C 0.9875(5) 0.5705(3) 0.7999(3)
C13A C 1.2261(9) 0.5648(5) 0.9590(5)
H14A H 1.3232 0.5359 0.9892
N6A N 0.7947(6) 0.6959(4) 0.8251(3)
C16A C 0.8726(5) 0.5271(3) 0.6730(3)
O9A O 0.8295(7) 0.7752(4) 0.7809(4)
O10A O 0.6466(7) 0.6577(5) 0.8356(4)
C18A C 1.0373(8) 0.6799(5) 0.9855(4)
H18A H 1.0054 0.7303 1.0311
C19A C 1.1839(7) 0.6361(4) 1.0291(4)
H19A H 1.2515 0.6561 1.1059
C20A C 1.1325(7) 0.5329(4) 0.8456(5)
H20A H 1.1688 0.4854 0.7999
O3A O 0.3496(4) 0.5688(2) 0.5810(2)
H23A H 0.398(6) 0.620(4) 0.637(4)
H24A H 0.250(8) 0.566(4) 0.543(4)
Ni2_2 Ni 0.5000 -0.5000 0.5000
N4A_2 N 0.6046(3) 0.65934(18) 0.44458(19)
loop_
_geom_bond_atom_site_label_1
_geom_bond_atom_site_label_2
_geom_bond_site_symmetry_1
_geom_bond_site_symmetry_2
Ni1 O1 1_555 1_555
Ni2 O3 1_555 1_555
O1 C11 1_555 1_555
O2 C11 1_555 1_555
O3 H23 1_555 1_555
N1 C1 1_555 1_555
O4 Ni2 1_555 1_555
N2 C1 1_555 1_555
O5 N3 1_555 1_555
O6 Ni1 1_555 1_555
N3 O7 1_555 1_555
N4 Ni2 1_555 1_555
N5 Ni1 1_555 1_555
C1 H1 1_555 1_555
H2 C1 1_555 1_555
C2 H3 1_555 1_555
C3 N3 1_555 1_555
C4 N4 1_555 1_555
H4 C4 1_555 1_555
H5 C4 1_555 1_555
C5 N1 1_555 1_555
H6 C5 1_555 1_555
H7 C5 1_555 1_555
C6 C3 1_555 1_555
O8 C16 1_555 1_555
C7 N1 1_555 1_555
H8 C7 1_555 1_555
H9 C7 1_555 1_555
C8 N2 1_555 1_555
H10 C8 1_555 1_555
H11 C8 1_555 1_555
C9 N2 1_555 1_555
H12 C9 1_555 1_555
H13 C9 1_555 1_555
C10 C12 1_555 1_555
C11 C6 1_555 1_555
C12 C16 1_555 1_555
C13 H14 1_555 1_555
C14 C2 1_555 1_555
H15 C14 1_555 1_555
N6 C10 1_555 1_555
C15 C3 1_555 1_555
H16 C15 1_555 1_555
C16 O4 1_555 1_555
C17 C2 1_555 1_555
H17 C17 1_555 1_555
O9 N6 1_555 1_555
O10 N6 1_555 1_555
C18 C10 1_555 1_555
H18 C18 1_555 1_555
C19 C13 1_555 1_555
H19 C19 1_555 1_555
C20 C12 1_555 1_555
H20 C20 1_555 1_555
H21 O6 1_555 1_555
H22 O6 1_555 1_555
H24 O3 1_555 1_555
O1A Ni1 1_555 1_555
O2A C11A 1_555 1_555
N1A C1A 1_555 1_555
N2A C1A 1_555 1_555
O5A N3A 1_555 1_555
O6A Ni1 1_555 1_555
N3A O7A 1_555 1_555
N4A C4A 1_555 1_555
N5A Ni1 1_555 1_555
C1A H1A 1_555 1_555
H2A C1A 1_555 1_555
C2A H3A 1_555 1_555
C3A N3A 1_555 1_555
C4A N5A 1_555 1_555
H4A C4A 1_555 1_555
H5A C4A 1_555 1_555
C5A N1A 1_555 1_555
H6A C5A 1_555 1_555
H7A C5A 1_555 1_555
C6A C3A 1_555 1_555
C7A N1A 1_555 1_555
H8A C7A 1_555 1_555
H9A C7A 1_555 1_555
C8A N2A 1_555 1_555
H10A C8A 1_555 1_555
H11A C8A 1_555 1_555
C9A N2A 1_555 1_555
H12A C9A 1_555 1_555
H13A C9A 1_555 1_555
C11A O1A 1_555 1_555
C14A C2A 1_555 1_555
H15A C14A 1_555 1_555
C15A C3A 1_555 1_555
H16A C15A 1_555 1_555
C17A C2A 1_555 1_555
H17A C17A 1_555 1_555
H21A O6A 1_555 1_555
H22A O6A 1_555 1_555
O4A Ni2 1_555 1_555
O8A C16A 1_555 1_555
C10A C12A 1_555 1_555
C12A C16A 1_555 1_555
C13A H14A 1_555 1_555
N6A C10A 1_555 1_555
C16A O4A 1_555 1_555
O9A N6A 1_555 1_555
O10A N6A 1_555 1_555
C18A C10A 1_555 1_555
H18A C18A 1_555 1_555
C19A C13A 1_555 1_555
H19A C19A 1_555 1_555
C20A C12A 1_555 1_555
H20A C20A 1_555 1_555
O3A Ni2 1_555 1_555
H23A O3A 1_555 1_555
H24A O3A 1_555 1_555
Ni2_2 N4A 1_555 1_555
N4A_2 Ni2 1_555 1_555
N4 C7 1_555 1_555
N4 C9 1_555 1_555
N5 C4 1_555 1_555
N5 C5 1_555 1_555
N5 C8 1_555 1_555
C6 C17 1_555 1_555
C13 C20 1_555 1_555
C14 C15 1_555 1_555
C18 C19 1_555 1_555
N4A C7A 1_555 1_555
N4A C9A 1_555 1_555
N5A C5A 1_555 1_555
N5A C8A 1_555 1_555
C6A C11A 1_555 1_555
C6A C17A 1_555 1_555
C14A C15A 1_555 1_555
C13A C20A 1_555 1_555
C18A C19A 1_555 1_555

#END
