
#######################################################################
#
#                 Cambridge Crystallographic Data Centre
#                                CCDC 
#
#######################################################################
#
# If this CIF has been generated from an entry in the Cambridge 
# Structural Database, then it will include bibliographic, chemical, 
# crystal, experimental, refinement or atomic coordinate data resulting 
# from the CCDC's data processing and validation procedures.
#
#######################################################################

data_NOJVEO
_symmetry_cell_setting           monoclinic
_symmetry_space_group_name_H-M   'P 21/c'
_symmetry_Int_Tables_number      14
_space_group_name_Hall           '-P 2ybc'
loop_
_symmetry_equiv_pos_site_id
_symmetry_equiv_pos_as_xyz
1 x,y,z
2 -x,1/2+y,1/2-z
3 -x,-y,-z
4 x,1/2-y,1/2+z
_cell_length_a                   15.406(2)
_cell_length_b                   12.3503(13)
_cell_length_c                   21.961(2)
_cell_angle_alpha                90
_cell_angle_beta                 93.196(6)
_cell_angle_gamma                90
_cell_volume                     4171.99
loop_
_atom_site_label
_atom_site_type_symbol
_atom_site_fract_x
_atom_site_fract_y
_atom_site_fract_z
Zn1 Zn 0.688380(10) 0.219520(10) 0.302530(10)
Zn2 Zn 1.093610(10) -0.262520(10) 0.161160(10)
O1 O 0.54831(7) -0.12959(8) 0.13900(5)
O2 O 1.12005(6) -0.11838(6) 0.20319(4)
O3 O 0.83306(6) 0.00776(7) 0.17684(4)
O4 O 0.80455(6) 0.15490(6) 0.30920(4)
O5 O 0.72450(7) 0.35618(7) 0.25720(5)
N1 N 0.61882(7) 0.09610(8) 0.35851(5)
N2 N 0.57885(8) 0.19149(8) 0.24690(5)
N3 N 0.66346(8) 0.30618(9) 0.38144(5)
N4 N 0.97315(7) 0.11621(8) 0.40441(5)
N5 N 1.02608(7) 0.21268(8) 0.30266(5)
N6 N 0.89474(7) 0.30715(8) 0.42575(5)
C1 C 0.65904(9) -0.03781(9) 0.28097(6)
C2 C 0.59671(9) -0.07980(9) 0.23949(6)
C3 C 0.61158(9) -0.08711(10) 0.17723(6)
C4 C 0.69106(9) -0.05491(10) 0.15713(6)
C5 C 0.98049(9) -0.03837(9) 0.19032(5)
C6 C 1.05339(9) -0.06741(9) 0.22746(6)
C7 C 1.05078(9) -0.04991(9) 0.29108(6)
C8 C 0.97592(9) -0.01351(9) 0.31572(5)
C9 C 0.81315(9) 0.03818(9) 0.30347(6)
C10 C 0.74087(9) -0.00616(9) 0.26203(6)
C11 C 0.75439(9) -0.01623(9) 0.19976(6)
C12 C 0.90574(9) -0.00545(9) 0.21661(6)
C13 C 0.89928(9) 0.00726(9) 0.27956(6)
C14 C 0.63798(9) -0.02071(10) 0.34628(6)
C15 C 0.52706(9) 0.12047(11) 0.34137(6)
C16 C 0.51240(9) 0.14548(10) 0.27417(6)
C17 C 0.43233(10) 0.12864(10) 0.24284(7)
C18 C 0.42088(10) 0.15903(11) 0.18323(7)
C19 C 0.49028(11) 0.20293(11) 0.15436(7)
C20 C 0.56811(10) 0.21764(10) 0.18711(6)
C21 C 0.64037(10) 0.12629(10) 0.42237(6)
C22 C 0.64016(10) 0.24836(11) 0.42988(6)
C23 C 0.61737(11) 0.29759(12) 0.48299(7)
C24 C 0.61861(11) 0.40919(12) 0.48686(7)
C25 C 0.64162(11) 0.46923(12) 0.43697(7)
C26 C 0.66385(10) 0.41513(11) 0.38515(7)
C27 C 0.97600(9) 0.00043(9) 0.38424(6)
C28 C 1.06095(9) 0.16428(10) 0.40795(6)
C29 C 1.09022(9) 0.19040(10) 0.34517(6)
C30 C 1.17693(10) 0.19107(11) 0.33179(7)
C31 C 1.19739(11) 0.21124(12) 0.27263(8)
C32 C 1.13178(11) 0.22462(11) 0.22815(7)
C33 C 1.04620(10) 0.22514(10) 0.24434(6)
C34 C 0.93325(10) 0.12665(10) 0.46311(5)
C35 C 0.90593(10) 0.24206(10) 0.47490(6)
C36 C 0.89466(11) 0.27786(12) 0.53363(6)
C37 C 0.87174(11) 0.38539(12) 0.54154(6)
C38 C 0.86221(11) 0.45318(11) 0.49215(7)
C39 C 0.87300(9) 0.41114(10) 0.43496(6)
H1 H 0.5423 -0.0981 0.2507
H2 H 0.7064 -0.0556 0.1144
H3 H 0.9784 -0.0478 0.1465
H4 H 1.1015 -0.0707 0.3182
H5 H 0.8102 0.0071 0.3455
H6 H 0.5884 -0.0643 0.3582
H7 H 0.6864 -0.0413 0.3742
H8 H 0.5098 0.1887 0.3601
H9 H 0.4858 0.0617 0.3501
H10 H 0.3885 0.0937 0.2663
H11 H 0.3665 0.1553 0.1571
H12 H 0.4840 0.2254 0.1098
H13 H 0.6192 0.2491 0.1673
H14 H 0.5968 0.0981 0.4465
H15 H 0.7008 0.1041 0.4315
H16 H 0.6040 0.2507 0.5222
H17 H 0.5996 0.4499 0.5197
H18 H 0.6428 0.5509 0.4377
H19 H 0.6844 0.4574 0.3495
H20 H 1.0270 -0.0335 0.4034
H21 H 0.9250 -0.0345 0.4024
H22 H 1.1012 0.1187 0.4274
H23 H 1.0602 0.2317 0.4314
H24 H 1.2187 0.1741 0.3717
H25 H 1.2585 0.2067 0.2649
H26 H 1.1389 0.2315 0.1851
H27 H 0.9964 0.2417 0.2143
H28 H 0.9704 0.0967 0.4958
H29 H 0.8814 0.0817 0.4628
H30 H 0.9117 0.2203 0.5667
H31 H 0.8593 0.4148 0.5821
H32 H 0.8464 0.5273 0.4959
H33 H 0.8660 0.4539 0.3992
H34 H 0.5689 -0.1417 0.0976
H35 H 0.7804 0.3685 0.2624
H36 H 0.7064 0.3785 0.2244
Zn2A Zn 0.906390(10) 0.237480(10) 0.338840(10)
O4A O 1.19545(6) -0.34510(6) 0.19080(4)
N4A N 1.02685(7) -0.38379(8) 0.09559(5)
N5A N 0.97392(7) -0.28732(8) 0.19734(5)
N6A N 1.10526(7) -0.19285(8) 0.07425(5)
Cl1 Cl 0.80724(2) -0.23751(3) 0.448990(10)
O6 O 0.89585(8) -0.26192(10) 0.43761(6)
O7 O 0.74973(10) -0.27794(14) 0.40261(6)
O8 O 0.78697(7) -0.28210(8) 0.50776(4)
O9 O 0.80063(10) -0.12106(10) 0.45140(6)
Cl2 Cl 0.68763(4) 0.06053(4) 0.59580(2)
O10 O 0.7404(2) 0.0080(2) 0.55801(9)
O11 O 0.59966(11) 0.08001(12) 0.57221(7)
O12 O 0.68178(11) 0.00960(11) 0.65395(6)
O13 O 0.72495(14) 0.16818(16) 0.60927(11)
O14 O 0.4254(2) 0.1508(3) 0.5024(2)
H37 H 0.4056 0.1860 0.4878
H38 H 0.4526 0.1240 0.5258
O15 O 0.60937(9) -0.30862(12) 0.53015(6)
H39 H 0.6129 -0.2542 0.5514
H40 H 0.6659 -0.3082 0.5244
loop_
_geom_bond_atom_site_label_1
_geom_bond_atom_site_label_2
_geom_bond_site_symmetry_1
_geom_bond_site_symmetry_2
Zn1 O4 1_555 1_555
Zn2 O2 1_555 1_555
Cl1 O6 1_555 1_555
Cl2 O10 1_555 1_555
O1 C3 1_555 1_555
O2 C6 1_555 1_555
O3 C11 1_555 1_555
O4 C9 1_555 1_555
O5 Zn1 1_555 1_555
O7 Cl1 1_555 1_555
O8 Cl1 1_555 1_555
O9 Cl1 1_555 1_555
O11 Cl2 1_555 1_555
O12 Cl2 1_555 1_555
O13 Cl2 1_555 1_555
O14 H37 1_555 1_555
O15 H39 1_555 1_555
N1 Zn1 1_555 1_555
N2 Zn1 1_555 1_555
N3 Zn1 1_555 1_555
N4 C27 1_555 1_555
N5 C29 1_555 1_555
N6 C35 1_555 1_555
C1 C2 1_555 1_555
C2 C3 1_555 1_555
C3 C4 1_555 1_555
C4 C11 1_555 1_555
C5 C6 1_555 1_555
C6 C7 1_555 1_555
C7 C8 1_555 1_555
C8 C13 1_555 1_555
C9 C10 1_555 1_555
C10 C1 1_555 1_555
C11 C10 1_555 1_555
C12 O3 1_555 1_555
C13 C9 1_555 1_555
C14 N1 1_555 1_555
C15 N1 1_555 1_555
C16 N2 1_555 1_555
C17 C16 1_555 1_555
C18 C17 1_555 1_555
C19 C18 1_555 1_555
C20 N2 1_555 1_555
C21 N1 1_555 1_555
C22 N3 1_555 1_555
C23 C22 1_555 1_555
C24 C23 1_555 1_555
C25 C24 1_555 1_555
C26 N3 1_555 1_555
C27 C8 1_555 1_555
C28 N4 1_555 1_555
C29 C28 1_555 1_555
C30 C29 1_555 1_555
C31 C30 1_555 1_555
C32 C31 1_555 1_555
C33 N5 1_555 1_555
C34 N4 1_555 1_555
C35 C34 1_555 1_555
C36 C35 1_555 1_555
C37 C36 1_555 1_555
C38 C37 1_555 1_555
C39 N6 1_555 1_555
H1 C2 1_555 1_555
H2 C4 1_555 1_555
H3 C5 1_555 1_555
H4 C7 1_555 1_555
H5 C9 1_555 1_555
H6 C14 1_555 1_555
H7 C14 1_555 1_555
H8 C15 1_555 1_555
H9 C15 1_555 1_555
H10 C17 1_555 1_555
H11 C18 1_555 1_555
H12 C19 1_555 1_555
H13 C20 1_555 1_555
H14 C21 1_555 1_555
H15 C21 1_555 1_555
H16 C23 1_555 1_555
H17 C24 1_555 1_555
H18 C25 1_555 1_555
H19 C26 1_555 1_555
H20 C27 1_555 1_555
H21 C27 1_555 1_555
H22 C28 1_555 1_555
H23 C28 1_555 1_555
H24 C30 1_555 1_555
H25 C31 1_555 1_555
H26 C32 1_555 1_555
H27 C33 1_555 1_555
H28 C34 1_555 1_555
H29 C34 1_555 1_555
H30 C36 1_555 1_555
H31 C37 1_555 1_555
H32 C38 1_555 1_555
H33 C39 1_555 1_555
H34 O1 1_555 1_555
H35 O5 1_555 1_555
H36 O5 1_555 1_555
H38 O14 1_555 1_555
H40 O15 1_555 1_555
Zn2A O4 1_555 1_555
O4A Zn2 1_555 1_555
N4A Zn2 1_555 1_555
N5A Zn2 1_555 1_555
N6A Zn2 1_555 1_555
N4 Zn2A 1_555 1_555
N5 Zn2A 1_555 1_555
N6 Zn2A 1_555 1_555
C1 C14 1_555 1_555
C5 C12 1_555 1_555
C12 C13 1_555 1_555
C15 C16 1_555 1_555
C19 C20 1_555 1_555
C21 C22 1_555 1_555
C25 C26 1_555 1_555
C32 C33 1_555 1_555
C38 C39 1_555 1_555

#END
