
#######################################################################
#
#                 Cambridge Crystallographic Data Centre
#                                CCDC 
#
#######################################################################
#
# If this CIF has been generated from an entry in the Cambridge 
# Structural Database, then it will include bibliographic, chemical, 
# crystal, experimental, refinement or atomic coordinate data resulting 
# from the CCDC's data processing and validation procedures.
#
#######################################################################

data_NOJXUG
_symmetry_cell_setting           rhombohedral
_symmetry_space_group_name_H-M   'R -3'
_symmetry_Int_Tables_number      148
_space_group_name_Hall           '-R 3'
loop_
_symmetry_equiv_pos_site_id
_symmetry_equiv_pos_as_xyz
1 x,y,z
2 -y,x-y,z
3 -x+y,-x,z
4 2/3+x,1/3+y,1/3+z
5 2/3-y,1/3+x-y,1/3+z
6 2/3-x+y,1/3-x,1/3+z
7 1/3+x,2/3+y,2/3+z
8 1/3-y,2/3+x-y,2/3+z
9 1/3-x+y,2/3-x,2/3+z
10 -x,-y,-z
11 y,-x+y,-z
12 x-y,x,-z
13 1/3-x,2/3-y,2/3-z
14 1/3+y,2/3-x+y,2/3-z
15 1/3+x-y,2/3+x,2/3-z
16 2/3-x,1/3-y,1/3-z
17 2/3+y,1/3-x+y,1/3-z
18 2/3+x-y,1/3+x,1/3-z
_cell_length_a                   32.9851(7)
_cell_length_b                   32.9851(7)
_cell_length_c                   9.0387(4)
_cell_angle_alpha                90
_cell_angle_beta                 90
_cell_angle_gamma                120.00
_cell_volume                     8516.72
loop_
_atom_site_label
_atom_site_type_symbol
_atom_site_fract_x
_atom_site_fract_y
_atom_site_fract_z
Zn1 Zn 0.5000 0.0000 0.0000
N1 N 0.53288(9) -0.00281(10) -0.1915(3)
N2 N 0.55976(9) 0.05945(9) 0.0712(3)
C1 C 0.51532(11) -0.03668(12) -0.2988(4)
C2 C 0.55259(12) -0.03067(13) -0.3958(4)
H1 H 0.5497 -0.0492 -0.4800
C3 C 0.59243(13) 0.00636(14) -0.3442(4)
H2 H 0.6228 0.0187 -0.3857
C4 C 0.58050(11) 0.02369(12) -0.2151(4)
C5 C 0.61201(11) 0.06045(12) -0.1244(4)
C6 C 0.60250(11) 0.07704(12) 0.0066(4)
C7 C 0.63740(12) 0.11434(13) 0.0958(4)
H3 H 0.6698 0.1329 0.0741
C8 C 0.61515(12) 0.11784(13) 0.2161(4)
H4 H 0.6291 0.1392 0.2958
C9 C 0.56604(11) 0.08316(12) 0.2016(4)
C10 C 0.46857(12) -0.07373(12) -0.3068(4)
C11 C 0.66223(11) 0.08467(12) -0.1702(4)
C12 C 0.69349(12) 0.07380(13) -0.1031(4)
H5 H 0.6828 0.0495 -0.0317
C13 C 0.74014(13) 0.09869(13) -0.1411(4)
H6 H 0.7612 0.0911 -0.0937
N3 N 0.75713(10) 0.13294(11) -0.2411(3)
C14 C 0.72682(14) 0.14292(13) -0.3061(5)
H7 H 0.7383 0.1673 -0.3778
C15 C 0.67979(13) 0.11970(14) -0.2745(4)
H8 H 0.6595 0.1278 -0.3244
C16 C 0.45495(12) -0.10481(12) -0.4402(4)
C17 C 0.43971(14) -0.15242(14) -0.4276(5)
H9 H 0.4376 -0.1658 -0.3328
C18 C 0.42758(17) -0.18054(15) -0.5541(5)
H10 H 0.4176 -0.2129 -0.5454
C19 C 0.43012(16) -0.16105(16) -0.6921(5)
C20 C 0.44463(14) -0.11390(15) -0.7035(5)
H11 H 0.4460 -0.1006 -0.7978
C21 C 0.45716(13) -0.08607(14) -0.5785(4)
H12 H 0.4674 -0.0537 -0.5879
C22 C 0.4193(3) -0.1879(2) -0.8260(8)
N4 N 0.4127(2) -0.20660(19) -0.9354(6)
Zn1N Zn 0.8333 0.1667 -0.3333
Zn1E Zn 0.1667 -0.1667 0.3333
N1I N 0.46712(9) 0.00281(10) 0.1915(3)
N2I N 0.44024(9) -0.05945(9) -0.0712(3)
C1I C 0.48468(11) 0.03668(12) 0.2988(4)
C2I C 0.44741(12) 0.03067(13) 0.3958(4)
H1I H 0.4503 0.0492 0.4800
C3I C 0.40757(13) -0.00636(14) 0.3442(4)
H2I H 0.3772 -0.0187 0.3857
C4I C 0.41950(11) -0.02369(12) 0.2151(4)
C5I C 0.38799(11) -0.06045(12) 0.1244(4)
C6I C 0.39750(11) -0.07704(12) -0.0066(4)
C7I C 0.36260(12) -0.11434(13) -0.0958(4)
H3I H 0.3302 -0.1329 -0.0741
C8I C 0.38485(12) -0.11784(13) -0.2161(4)
H4I H 0.3709 -0.1392 -0.2958
C9I C 0.43396(11) -0.08316(12) -0.2016(4)
C10I C 0.53143(12) 0.07373(12) 0.3068(4)
C11I C 0.33777(11) -0.08467(12) 0.1702(4)
C12I C 0.30651(12) -0.07380(13) 0.1031(4)
H5I H 0.3172 -0.0495 0.0317
C13I C 0.25986(13) -0.09869(13) 0.1411(4)
H6I H 0.2388 -0.0911 0.0937
N3I N 0.24287(10) -0.13294(11) 0.2411(3)
N3D N 0.53373(11) -0.04248(15) 0.0922(3)
N3M N 0.46627(11) 0.04248(15) -0.0922(3)
C14I C 0.27318(14) -0.14292(13) 0.3061(5)
H7I H 0.2617 -0.1673 0.3778
C15I C 0.32021(13) -0.11970(14) 0.2745(4)
H8I H 0.3405 -0.1278 0.3244
C16I C 0.54505(12) 0.10481(12) 0.4402(4)
C17I C 0.56029(14) 0.15242(14) 0.4276(5)
H9I H 0.5624 0.1658 0.3328
C18I C 0.57242(17) 0.18054(15) 0.5541(5)
H10I H 0.5824 0.2129 0.5454
C19I C 0.56988(16) 0.16105(16) 0.6921(5)
C20I C 0.55537(14) 0.11390(15) 0.7035(5)
H11I H 0.5540 0.1006 0.7978
C21I C 0.54284(13) 0.08607(14) 0.5785(4)
H12I H 0.5326 0.0537 0.5879
C22I C 0.5807(3) 0.1879(2) 0.8260(8)
N4I N 0.5873(2) 0.20660(19) 0.9354(6)
loop_
_geom_bond_atom_site_label_1
_geom_bond_atom_site_label_2
_geom_bond_site_symmetry_1
_geom_bond_site_symmetry_2
Zn1 N1 1_555 1_555
N1 C1 1_555 1_555
N2 Zn1 1_555 1_555
C1 C2 1_555 1_555
C2 H1 1_555 1_555
C3 C2 1_555 1_555
H2 C3 1_555 1_555
C4 N1 1_555 1_555
C5 C4 1_555 1_555
C6 N2 1_555 1_555
C7 C6 1_555 1_555
H3 C7 1_555 1_555
C8 C7 1_555 1_555
H4 C8 1_555 1_555
C9 N2 1_555 1_555
C10 C1 1_555 1_555
C11 C5 1_555 1_555
C12 C11 1_555 1_555
H5 C12 1_555 1_555
C13 C12 1_555 1_555
H6 C13 1_555 1_555
N3 C13 1_555 1_555
C14 N3 1_555 1_555
H7 C14 1_555 1_555
C15 C11 1_555 1_555
H8 C15 1_555 1_555
C16 C10 1_555 1_555
C17 C16 1_555 1_555
H9 C17 1_555 1_555
C18 C17 1_555 1_555
H10 C18 1_555 1_555
C19 C18 1_555 1_555
C20 C19 1_555 1_555
H11 C20 1_555 1_555
C21 C16 1_555 1_555
H12 C21 1_555 1_555
C22 C19 1_555 1_555
N4 C22 1_555 1_555
Zn1N N3 1_555 1_555
Zn1E N3I 1_555 1_555
N1I Zn1 1_555 1_555
N2I Zn1 1_555 1_555
C1I N1I 1_555 1_555
C2I C1I 1_555 1_555
H1I C2I 1_555 1_555
C3I C2I 1_555 1_555
H2I C3I 1_555 1_555
C4I N1I 1_555 1_555
C5I C4I 1_555 1_555
C6I N2I 1_555 1_555
C7I C6I 1_555 1_555
H3I C7I 1_555 1_555
C8I C7I 1_555 1_555
H4I C8I 1_555 1_555
C9I C10 1_555 1_555
C10I C9 1_555 1_555
C11I C5I 1_555 1_555
C12I C11I 1_555 1_555
H5I C12I 1_555 1_555
C13I C12I 1_555 1_555
H6I C13I 1_555 1_555
N3I C13I 1_555 1_555
N3D Zn1 1_555 1_555
N3M Zn1 1_555 1_555
C14I N3I 1_555 1_555
H7I C14I 1_555 1_555
C15I C11I 1_555 1_555
H8I C15I 1_555 1_555
C16I C10I 1_555 1_555
C17I C16I 1_555 1_555
H9I C17I 1_555 1_555
C18I C17I 1_555 1_555
H10I C18I 1_555 1_555
C19I C18I 1_555 1_555
C20I C19I 1_555 1_555
H11I C20I 1_555 1_555
C21I C16I 1_555 1_555
H12I C21I 1_555 1_555
C22I C19I 1_555 1_555
N4I C22I 1_555 1_555
C3 C4 1_555 1_555
C5 C6 1_555 1_555
C8 C9 1_555 1_555
C14 C15 1_555 1_555
C20 C21 1_555 1_555
N2I C9I 1_555 1_555
C1I C10I 1_555 1_555
C3I C4I 1_555 1_555
C5I C6I 1_555 1_555
C8I C9I 1_555 1_555
C14I C15I 1_555 1_555
C20I C21I 1_555 1_555

#END
