
#######################################################################
#
#                 Cambridge Crystallographic Data Centre
#                                CCDC 
#
#######################################################################
#
# If this CIF has been generated from an entry in the Cambridge 
# Structural Database, then it will include bibliographic, chemical, 
# crystal, experimental, refinement or atomic coordinate data resulting 
# from the CCDC's data processing and validation procedures.
#
#######################################################################

data_NOJYER
_symmetry_cell_setting           rhombohedral
_symmetry_space_group_name_H-M   'R -3'
_symmetry_Int_Tables_number      148
_space_group_name_Hall           '-R 3'
loop_
_symmetry_equiv_pos_site_id
_symmetry_equiv_pos_as_xyz
1 x,y,z
2 -y,x-y,z
3 -x+y,-x,z
4 2/3+x,1/3+y,1/3+z
5 2/3-y,1/3+x-y,1/3+z
6 2/3-x+y,1/3-x,1/3+z
7 1/3+x,2/3+y,2/3+z
8 1/3-y,2/3+x-y,2/3+z
9 1/3-x+y,2/3-x,2/3+z
10 -x,-y,-z
11 y,-x+y,-z
12 x-y,x,-z
13 1/3-x,2/3-y,2/3-z
14 1/3+y,2/3-x+y,2/3-z
15 1/3+x-y,2/3+x,2/3-z
16 2/3-x,1/3-y,1/3-z
17 2/3+y,1/3-x+y,1/3-z
18 2/3+x-y,1/3+x,1/3-z
_cell_length_a                   32.941(2)
_cell_length_b                   32.941(2)
_cell_length_c                   9.4384(11)
_cell_angle_alpha                90
_cell_angle_beta                 90
_cell_angle_gamma                120.00
_cell_volume                     8869.57
loop_
_atom_site_label
_atom_site_type_symbol
_atom_site_fract_x
_atom_site_fract_y
_atom_site_fract_z
Zn1 Zn 0.5000 0.0000 0.0000
N1 N 0.5332(2) -0.0009(2) -0.1836(6)
N2 N 0.5596(2) 0.0583(2) 0.0705(6)
C1 C 0.5164(3) -0.0340(3) -0.2878(7)
C2 C 0.5547(3) -0.0270(3) -0.3845(9)
H1 H 0.5520 -0.0444 -0.4677
C3 C 0.5944(3) 0.0092(3) -0.3309(8)
H2 H 0.6252 0.0213 -0.3673
C4 C 0.5811(3) 0.0260(3) -0.2072(8)
C5 C 0.6130(3) 0.0623(3) -0.1186(8)
C6 C 0.6027(3) 0.0773(3) 0.0099(7)
C7 C 0.6375(3) 0.1137(3) 0.0989(8)
H3 H 0.6700 0.1324 0.0799
C8 C 0.6145(3) 0.1157(3) 0.2143(9)
H4 H 0.6281 0.1365 0.2921
C9 C 0.5656(3) 0.0808(3) 0.1991(8)
C10 C 0.4698(3) -0.0706(3) -0.3014(7)
C11 C 0.6634(3) 0.0876(3) -0.1618(8)
C12 C 0.6788(3) 0.1199(3) -0.2722(9)
H5 H 0.6576 0.1264 -0.3221
C13 C 0.7259(3) 0.1424(3) -0.3066(8)
H6 H 0.7365 0.1644 -0.3820
N3 N 0.7574(2) 0.1348(2) -0.2402(6)
C14 C 0.7417(3) 0.1026(3) -0.1355(8)
H7 H 0.7634 0.0962 -0.0879
C15 C 0.6953(3) 0.0785(3) -0.0954(8)
H8 H 0.6853 0.0557 -0.0221
C16 C 0.4564(3) -0.1023(3) -0.4242(9)
C17 C 0.4433(4) -0.1491(4) -0.4070(11)
H9 H 0.4424 -0.1611 -0.3149
C18 C 0.4315(4) -0.1785(4) -0.5251(16)
H10 H 0.4230 -0.2104 -0.5134
C19 C 0.4320(4) -0.1612(6) -0.6582(15)
C20 C 0.4458(4) -0.1153(6) -0.6765(11)
H11 H 0.4475 -0.1035 -0.7694
C21 C 0.4578(3) -0.0849(4) -0.5596(8)
H12 H 0.4667 -0.0529 -0.5730
O1 O 0.4227(3) -0.1891(4) -0.7857(8)
H13 H 0.4033 -0.1862 -0.8364
Zn1N Zn 0.8333 0.1667 -0.3333
Zn1E Zn 0.1667 -0.1667 0.3333
N1I N 0.4668(2) 0.0009(2) 0.1836(6)
N2I N 0.4404(2) -0.0583(2) -0.0705(6)
C1I C 0.4836(3) 0.0340(3) 0.2878(7)
C2I C 0.4453(3) 0.0270(3) 0.3845(9)
H1I H 0.4480 0.0444 0.4677
C3I C 0.4056(3) -0.0092(3) 0.3309(8)
H2I H 0.3748 -0.0213 0.3673
C4I C 0.4189(3) -0.0260(3) 0.2072(8)
C5I C 0.3870(3) -0.0623(3) 0.1186(8)
C6I C 0.3973(3) -0.0773(3) -0.0099(7)
C7I C 0.3625(3) -0.1137(3) -0.0989(8)
H3I H 0.3300 -0.1324 -0.0799
C8I C 0.3855(3) -0.1157(3) -0.2143(9)
H4I H 0.3719 -0.1365 -0.2921
C9I C 0.4344(3) -0.0808(3) -0.1991(8)
C10I C 0.5302(3) 0.0706(3) 0.3014(7)
C11I C 0.3366(3) -0.0876(3) 0.1618(8)
C12I C 0.3212(3) -0.1199(3) 0.2722(9)
H5I H 0.3424 -0.1264 0.3221
C13I C 0.2741(3) -0.1424(3) 0.3066(8)
H6I H 0.2635 -0.1644 0.3820
N3I N 0.2426(2) -0.1348(2) 0.2402(6)
N3D N 0.5319(2) -0.0441(3) 0.0931(6)
N3M N 0.4681(2) 0.0441(3) -0.0931(6)
C14I C 0.2583(3) -0.1026(3) 0.1355(8)
H7I H 0.2366 -0.0962 0.0879
C15I C 0.3047(3) -0.0785(3) 0.0954(8)
H8I H 0.3147 -0.0557 0.0221
C16I C 0.5436(3) 0.1023(3) 0.4242(9)
C17I C 0.5567(4) 0.1491(4) 0.4070(11)
H9I H 0.5576 0.1611 0.3149
C18I C 0.5685(4) 0.1785(4) 0.5251(16)
H10I H 0.5770 0.2104 0.5134
C19I C 0.5680(4) 0.1612(6) 0.6582(15)
C20I C 0.5542(4) 0.1153(6) 0.6765(11)
H11I H 0.5525 0.1035 0.7694
C21I C 0.5422(3) 0.0849(4) 0.5596(8)
H12I H 0.5333 0.0529 0.5730
O1I O 0.5773(3) 0.1891(4) 0.7857(8)
H13I H 0.5967 0.1862 0.8364
loop_
_geom_bond_atom_site_label_1
_geom_bond_atom_site_label_2
_geom_bond_site_symmetry_1
_geom_bond_site_symmetry_2
Zn1 N1 1_555 1_555
N1 C1 1_555 1_555
N2 Zn1 1_555 1_555
C1 C2 1_555 1_555
C2 H1 1_555 1_555
C3 C2 1_555 1_555
H2 C3 1_555 1_555
C4 N1 1_555 1_555
C5 C4 1_555 1_555
C6 N2 1_555 1_555
C7 C6 1_555 1_555
H3 C7 1_555 1_555
C8 C7 1_555 1_555
H4 C8 1_555 1_555
C9 N2 1_555 1_555
C10 C1 1_555 1_555
C11 C5 1_555 1_555
C12 C11 1_555 1_555
H5 C12 1_555 1_555
C13 C12 1_555 1_555
H6 C13 1_555 1_555
N3 C13 1_555 1_555
C14 N3 1_555 1_555
H7 C14 1_555 1_555
C15 C11 1_555 1_555
H8 C15 1_555 1_555
C16 C10 1_555 1_555
C17 C16 1_555 1_555
H9 C17 1_555 1_555
C18 C17 1_555 1_555
H10 C18 1_555 1_555
C19 C18 1_555 1_555
C20 C19 1_555 1_555
H11 C20 1_555 1_555
C21 C16 1_555 1_555
H12 C21 1_555 1_555
O1 C19 1_555 1_555
H13 O1 1_555 1_555
Zn1N N3 1_555 1_555
Zn1E N3I 1_555 1_555
N1I Zn1 1_555 1_555
N2I Zn1 1_555 1_555
C1I N1I 1_555 1_555
C2I C1I 1_555 1_555
H1I C2I 1_555 1_555
C3I C2I 1_555 1_555
H2I C3I 1_555 1_555
C4I N1I 1_555 1_555
C5I C4I 1_555 1_555
C6I N2I 1_555 1_555
C7I C6I 1_555 1_555
H3I C7I 1_555 1_555
C8I C7I 1_555 1_555
H4I C8I 1_555 1_555
C9I C10 1_555 1_555
C10I C9 1_555 1_555
C11I C5I 1_555 1_555
C12I C11I 1_555 1_555
H5I C12I 1_555 1_555
C13I C12I 1_555 1_555
H6I C13I 1_555 1_555
N3I C13I 1_555 1_555
N3D Zn1 1_555 1_555
N3M Zn1 1_555 1_555
C14I N3I 1_555 1_555
H7I C14I 1_555 1_555
C15I C11I 1_555 1_555
H8I C15I 1_555 1_555
C16I C10I 1_555 1_555
C17I C16I 1_555 1_555
H9I C17I 1_555 1_555
C18I C17I 1_555 1_555
H10I C18I 1_555 1_555
C19I C18I 1_555 1_555
C20I C19I 1_555 1_555
H11I C20I 1_555 1_555
C21I C16I 1_555 1_555
H12I C21I 1_555 1_555
O1I C19I 1_555 1_555
H13I O1I 1_555 1_555
C3 C4 1_555 1_555
C5 C6 1_555 1_555
C8 C9 1_555 1_555
C14 C15 1_555 1_555
C20 C21 1_555 1_555
N2I C9I 1_555 1_555
C1I C10I 1_555 1_555
C3I C4I 1_555 1_555
C5I C6I 1_555 1_555
C8I C9I 1_555 1_555
C14I C15I 1_555 1_555
C20I C21I 1_555 1_555

#END
