
#######################################################################
#
#                 Cambridge Crystallographic Data Centre
#                                CCDC 
#
#######################################################################
#
# If this CIF has been generated from an entry in the Cambridge 
# Structural Database, then it will include bibliographic, chemical, 
# crystal, experimental, refinement or atomic coordinate data resulting 
# from the CCDC's data processing and validation procedures.
#
#######################################################################

data_NOJYIV
_symmetry_cell_setting           rhombohedral
_symmetry_space_group_name_H-M   'R -3'
_symmetry_Int_Tables_number      148
_space_group_name_Hall           '-R 3'
loop_
_symmetry_equiv_pos_site_id
_symmetry_equiv_pos_as_xyz
1 x,y,z
2 -y,x-y,z
3 -x+y,-x,z
4 2/3+x,1/3+y,1/3+z
5 2/3-y,1/3+x-y,1/3+z
6 2/3-x+y,1/3-x,1/3+z
7 1/3+x,2/3+y,2/3+z
8 1/3-y,2/3+x-y,2/3+z
9 1/3-x+y,2/3-x,2/3+z
10 -x,-y,-z
11 y,-x+y,-z
12 x-y,x,-z
13 1/3-x,2/3-y,2/3-z
14 1/3+y,2/3-x+y,2/3-z
15 1/3+x-y,2/3+x,2/3-z
16 2/3-x,1/3-y,1/3-z
17 2/3+y,1/3-x+y,1/3-z
18 2/3+x-y,1/3+x,1/3-z
_cell_length_a                   33.1347(4)
_cell_length_b                   33.1347(4)
_cell_length_c                   9.1686(3)
_cell_angle_alpha                90
_cell_angle_beta                 90
_cell_angle_gamma                120.00
_cell_volume                     8717.66
loop_
_atom_site_label
_atom_site_type_symbol
_atom_site_fract_x
_atom_site_fract_y
_atom_site_fract_z
Zn1 Zn 0.5000 0.0000 0.5000
N1 N 0.49873(10) 0.05816(11) 0.5717(4)
N2 N 0.46534(11) -0.00161(11) 0.3111(4)
N3 N 0.37613(11) 0.13292(12) 0.2586(4)
C1 C 0.51591(13) 0.08162(13) 0.7019(4)
C2 C 0.50231(14) 0.11655(15) 0.7171(5)
H1 H 0.5100 0.1379 0.7957
C3 C 0.47662(15) 0.11328(14) 0.5991(5)
H2 H 0.4629 0.1319 0.5790
C4 C 0.47386(13) 0.07618(13) 0.5084(4)
C5 C 0.44838(14) 0.06043(14) 0.3785(4)
C6 C 0.44401(14) 0.02447(14) 0.2875(4)
C7 C 0.41463(15) 0.00742(15) 0.1606(5)
H3 H 0.3964 0.0196 0.1208
C8 C 0.41780(15) -0.02946(15) 0.1077(5)
H4 H 0.4025 -0.0477 0.0242
C9 C 0.44940(13) -0.03522(14) 0.2053(4)
C10 C 0.54067(13) 0.07172(13) 0.8052(4)
C11 C 0.42233(14) 0.08487(13) 0.3329(4)
C12 C 0.43817(16) 0.11677(16) 0.2196(5)
H5 H 0.4650 0.1227 0.1651
C13 C 0.36007(14) 0.10110(15) 0.3645(5)
H6 H 0.3324 0.0950 0.4143
C14 C 0.41425(15) 0.13985(15) 0.1875(5)
H7 H 0.4255 0.1619 0.1104
C15 C 0.38216(15) 0.07639(15) 0.4049(5)
H8 H 0.3698 0.0540 0.4811
C16 C 0.55873(14) 0.10310(14) 0.9364(4)
C17 C 0.59158(15) 0.15019(15) 0.9202(5)
H9 H 0.6027 0.1626 0.8258
C18 C 0.60809(17) 0.17889(16) 1.0413(6)
H10 H 0.6305 0.2110 1.0300
C19 C 0.59180(17) 0.16076(17) 1.1800(5)
C20 C 0.6116(2) 0.1907(2) 1.3113(8)
C21 C 0.55908(15) 0.11450(16) 1.1949(5)
H11 H 0.5475 0.1022 1.2890
C22 C 0.54277(14) 0.08568(15) 1.0744(5)
H12 H 0.5204 0.0536 1.0866
F1 F 0.62604(14) 0.23588(14) 1.2828(5)
F2 F 0.6495(2) 0.19128(17) 1.3614(6)
F3 F 0.5832(2) 0.17636(19) 1.4220(5)
Zn1M Zn 0.3333 0.1667 0.1667
Zn1D Zn 0.6667 -0.1667 0.8333
N1I N 0.50127(10) -0.05816(11) 0.4283(4)
N2I N 0.53466(11) 0.00161(11) 0.6889(4)
N3I N 0.62387(11) -0.13292(12) 0.7414(4)
N3E N 0.42346(16) -0.04280(11) 0.5919(4)
N3N N 0.57654(16) 0.04280(11) 0.4081(4)
C1I C 0.48409(13) -0.08162(13) 0.2981(4)
C2I C 0.49769(14) -0.11655(15) 0.2829(5)
H1I H 0.4900 -0.1379 0.2043
C3I C 0.52338(15) -0.11328(14) 0.4009(5)
H2I H 0.5371 -0.1319 0.4210
C4I C 0.52614(13) -0.07618(13) 0.4916(4)
C5I C 0.55162(14) -0.06043(14) 0.6215(4)
C6I C 0.55599(14) -0.02447(14) 0.7125(4)
C7I C 0.58537(15) -0.00742(15) 0.8394(5)
H3I H 0.6036 -0.0196 0.8792
C8I C 0.58220(15) 0.02946(15) 0.8923(5)
H4I H 0.5975 0.0477 0.9758
C9I C 0.55060(13) 0.03522(14) 0.7947(4)
C10I C 0.45933(13) -0.07172(13) 0.1948(4)
C11I C 0.57767(14) -0.08487(13) 0.6671(4)
C12I C 0.56183(16) -0.11677(16) 0.7804(5)
H5I H 0.5350 -0.1227 0.8349
C13I C 0.63993(14) -0.10110(15) 0.6355(5)
H6I H 0.6676 -0.0950 0.5857
C14I C 0.58575(15) -0.13985(15) 0.8125(5)
H7I H 0.5745 -0.1619 0.8896
C15I C 0.61784(15) -0.07639(15) 0.5951(5)
H8I H 0.6302 -0.0540 0.5189
C16I C 0.44127(14) -0.10310(14) 0.0636(4)
C17I C 0.40842(15) -0.15019(15) 0.0798(5)
H9I H 0.3973 -0.1626 0.1742
C18I C 0.39191(17) -0.17889(16) -0.0413(6)
H10I H 0.3695 -0.2110 -0.0300
C19I C 0.40820(17) -0.16076(17) -0.1800(5)
C20I C 0.3884(2) -0.1907(2) -0.3113(8)
C21I C 0.44092(15) -0.11450(16) -0.1949(5)
H11I H 0.4525 -0.1022 -0.2890
C22I C 0.45723(14) -0.08568(15) -0.0744(5)
H12I H 0.4796 -0.0536 -0.0866
F1I F 0.37396(14) -0.23588(14) -0.2828(5)
F2I F 0.3505(2) -0.19128(17) -0.3614(6)
F3I F 0.4168(2) -0.17636(19) -0.4220(5)
O1 O 0.7049(2) 0.31306(19) 0.9726(10)
loop_
_geom_bond_atom_site_label_1
_geom_bond_atom_site_label_2
_geom_bond_site_symmetry_1
_geom_bond_site_symmetry_2
Zn1 N1 1_555 1_555
N1 C1 1_555 1_555
N2 Zn1 1_555 1_555
N3 C13 1_555 1_555
C1 C2 1_555 1_555
C2 H1 1_555 1_555
C3 C2 1_555 1_555
H2 C3 1_555 1_555
C4 N1 1_555 1_555
C5 C4 1_555 1_555
C6 N2 1_555 1_555
C7 C6 1_555 1_555
H3 C7 1_555 1_555
C8 C7 1_555 1_555
H4 C8 1_555 1_555
C9 N2 1_555 1_555
C10 C1 1_555 1_555
C11 C5 1_555 1_555
C12 C11 1_555 1_555
H5 C12 1_555 1_555
C13 H6 1_555 1_555
C14 N3 1_555 1_555
H7 C14 1_555 1_555
C15 C11 1_555 1_555
H8 C15 1_555 1_555
C16 C10 1_555 1_555
C17 C16 1_555 1_555
H9 C17 1_555 1_555
C18 C17 1_555 1_555
H10 C18 1_555 1_555
C19 C18 1_555 1_555
C20 C19 1_555 1_555
C21 C19 1_555 1_555
H11 C21 1_555 1_555
C22 C16 1_555 1_555
H12 C22 1_555 1_555
F1 C20 1_555 1_555
F2 C20 1_555 1_555
F3 C20 1_555 1_555
Zn1M N3 1_555 1_555
Zn1D N3I 1_555 1_555
N1I Zn1 1_555 1_555
N2I Zn1 1_555 1_555
N3I C13I 1_555 1_555
N3E Zn1 1_555 1_555
N3N Zn1 1_555 1_555
C1I N1I 1_555 1_555
C2I C1I 1_555 1_555
H1I C2I 1_555 1_555
C3I C2I 1_555 1_555
H2I C3I 1_555 1_555
C4I N1I 1_555 1_555
C5I C4I 1_555 1_555
C6I N2I 1_555 1_555
C7I C6I 1_555 1_555
H3I C7I 1_555 1_555
C8I C7I 1_555 1_555
H4I C8I 1_555 1_555
C9I C10 1_555 1_555
C10I C9 1_555 1_555
C11I C5I 1_555 1_555
C12I C11I 1_555 1_555
H5I C12I 1_555 1_555
C13I H6I 1_555 1_555
C14I N3I 1_555 1_555
H7I C14I 1_555 1_555
C15I C11I 1_555 1_555
H8I C15I 1_555 1_555
C16I C10I 1_555 1_555
C17I C16I 1_555 1_555
H9I C17I 1_555 1_555
C18I C17I 1_555 1_555
H10I C18I 1_555 1_555
C19I C18I 1_555 1_555
C20I C19I 1_555 1_555
C21I C19I 1_555 1_555
H11I C21I 1_555 1_555
C22I C16I 1_555 1_555
H12I C22I 1_555 1_555
F1I C20I 1_555 1_555
F2I C20I 1_555 1_555
F3I C20I 1_555 1_555
C3 C4 1_555 1_555
C5 C6 1_555 1_555
C8 C9 1_555 1_555
C12 C14 1_555 1_555
C13 C15 1_555 1_555
C21 C22 1_555 1_555
N2I C9I 1_555 1_555
C1I C10I 1_555 1_555
C3I C4I 1_555 1_555
C5I C6I 1_555 1_555
C8I C9I 1_555 1_555
C12I C14I 1_555 1_555
C13I C15I 1_555 1_555
C21I C22I 1_555 1_555

#END
