
#######################################################################
#
#                 Cambridge Crystallographic Data Centre
#                                CCDC 
#
#######################################################################
#
# If this CIF has been generated from an entry in the Cambridge 
# Structural Database, then it will include bibliographic, chemical, 
# crystal, experimental, refinement or atomic coordinate data resulting 
# from the CCDC's data processing and validation procedures.
#
#######################################################################

data_NOKDIA
_symmetry_cell_setting           monoclinic
_symmetry_space_group_name_H-M   'P 21'
_symmetry_Int_Tables_number      4
_space_group_name_Hall           'P 2yb'
loop_
_symmetry_equiv_pos_site_id
_symmetry_equiv_pos_as_xyz
1 x,y,z
2 -x,1/2+y,-z
_cell_length_a                   7.2053(11)
_cell_length_b                   10.447(2)
_cell_length_c                   10.812(2)
_cell_angle_alpha                90
_cell_angle_beta                 108.489(14)
_cell_angle_gamma                90
_cell_volume                     771.852
loop_
_atom_site_label
_atom_site_type_symbol
_atom_site_fract_x
_atom_site_fract_y
_atom_site_fract_z
O1 O 1.0314(6) 0.3493(6) 0.7626(4)
O2 O 0.3186(5) 0.4247(4) 0.8816(4)
O3 O 0.6007(6) 0.5535(5) 0.7511(4)
O4 O 0.8876(7) 0.6461(5) 0.8238(5)
N1 N 0.3900(7) 0.1915(5) 0.6898(5)
N2 N 0.2818(8) 0.2350(5) 0.4639(5)
N3 N 0.2765(7) 0.4357(5) 0.5633(4)
N4 N 0.7261(7) 0.3361(5) 0.8770(5)
C1 C 0.4273(9) 0.1026(6) 0.7878(7)
C2 C 0.4138(10) -0.0257(7) 0.7661(7)
C3 C 0.3538(10) -0.0674(7) 0.6381(7)
C4 C 0.3099(10) 0.0180(6) 0.5380(7)
C5 C 0.3302(8) 0.1497(6) 0.5669(6)
C6 C 0.2363(8) 0.3644(7) 0.4573(5)
C7 C 0.1456(9) 0.4155(7) 0.3327(6)
C8 C 0.0994(10) 0.5422(7) 0.3200(6)
C9 C 0.1356(9) 0.6166(7) 0.4304(6)
C10 C 0.2239(9) 0.5604(7) 0.5495(6)
C11 C 1.1386(7) 0.3972(8) 0.8627(5)
C12 C 1.0606(8) 0.4317(6) 0.9726(5)
C13 C 0.7723(8) 0.5603(6) 0.8276(6)
C14 C 0.8402(8) 0.4535(6) 0.9287(5)
Zn1 Zn 0.4445(1) 0.3819(1) 0.7507(1)
H1 H 0.4637(9) 0.1316(6) 0.8736(7)
H2 H 0.4440(10) -0.0835(7) 0.8350(7)
H3 H 0.3796(8) 0.2019(5) 0.3906(5)
H4 H 0.3433(10) -0.1547(7) 0.6203(7)
H5 H 0.2673(10) -0.0101(6) 0.4520(7)
H6 H 0.7150(7) 0.2887(5) 0.9438(5)
H7 H 0.7900(7) 0.2892(5) 0.8335(5)
H8 H 0.1173(9) 0.3633(7) 0.2595(6)
H9 H 0.0441(10) 0.5781(7) 0.2378(6)
H10 H 0.1010(9) 0.7027(7) 0.4245(6)
H11 H 0.2488(9) 0.6105(7) 0.6241(6)
H12 H 1.1256(8) 0.5088(6) 1.0148(5)
H13 H 1.0928(8) 0.3634(6) 1.0367(5)
H14 H 0.8061(8) 0.4798(6) 1.0058(5)
O2_2 O 1.3186(5) 0.4247(4) 0.8816(4)
Zn1_2 Zn 1.4445(1) 0.3819(1) 0.7507(1)
O5 O 0.7188(8) 0.2080(5) 1.1222(5)
H15 H 0.663(14) 0.1367(50) 1.0968(89)
H16 H 0.8360(50) 0.1854(94) 1.1611(77)
loop_
_geom_bond_atom_site_label_1
_geom_bond_atom_site_label_2
_geom_bond_site_symmetry_1
_geom_bond_site_symmetry_2
O1 C11 1_555 1_555
O2 Zn1 1_555 1_555
O3 C13 1_555 1_555
O4 C13 1_555 1_555
N1 C1 1_555 1_555
N2 C5 1_555 1_555
N3 C6 1_555 1_555
N4 C14 1_555 1_555
C1 C2 1_555 1_555
C2 C3 1_555 1_555
C3 C4 1_555 1_555
C4 C5 1_555 1_555
C5 N1 1_555 1_555
C6 N2 1_555 1_555
C7 C6 1_555 1_555
C8 C7 1_555 1_555
C9 C8 1_555 1_555
C10 N3 1_555 1_555
C11 C12 1_555 1_555
C12 C14 1_555 1_555
C13 C14 1_555 1_555
C14 H14 1_555 1_555
Zn1 O3 1_555 1_555
H1 C1 1_555 1_555
H2 C2 1_555 1_555
H3 N2 1_555 1_555
H4 C3 1_555 1_555
H5 C4 1_555 1_555
H6 N4 1_555 1_555
H7 N4 1_555 1_555
H8 C7 1_555 1_555
H9 C8 1_555 1_555
H10 C9 1_555 1_555
H11 C10 1_555 1_555
H12 C12 1_555 1_555
H13 C12 1_555 1_555
O5 H15 1_555 1_555
H16 O5 1_555 1_555
O2_2 C11 1_555 1_555
Zn1_2 O2_2 1_555 1_555
N1 Zn1 1_555 1_555
N3 Zn1 1_555 1_555
N4 Zn1 1_555 1_555
C9 C10 1_555 1_555

#END
