
#######################################################################
#
#                 Cambridge Crystallographic Data Centre
#                                CCDC 
#
#######################################################################
#
# If this CIF has been generated from an entry in the Cambridge 
# Structural Database, then it will include bibliographic, chemical, 
# crystal, experimental, refinement or atomic coordinate data resulting 
# from the CCDC's data processing and validation procedures.
#
#######################################################################

data_NOKDOG
_symmetry_cell_setting           monoclinic
_symmetry_space_group_name_H-M   'P 21/c'
_symmetry_Int_Tables_number      14
_space_group_name_Hall           '-P 2ybc'
loop_
_symmetry_equiv_pos_site_id
_symmetry_equiv_pos_as_xyz
1 x,y,z
2 -x,1/2+y,1/2-z
3 -x,-y,-z
4 x,1/2-y,1/2+z
_cell_length_a                   6.457(1)
_cell_length_b                   8.180(1)
_cell_length_c                   9.982(1)
_cell_angle_alpha                90
_cell_angle_beta                 97.83(1)
_cell_angle_gamma                90
_cell_volume                     522.316
loop_
_atom_site_label
_atom_site_type_symbol
_atom_site_fract_x
_atom_site_fract_y
_atom_site_fract_z
Ag1 Ag 0.26178(3) 0.09408(2) 0.04226(2)
O1 O 0.2516(3) 0.2448(2) 0.2351(2)
O2 O 0.6148(3) -0.0353(2) 0.1530(2)
O3 O 0.9684(3) 0.4100(2) -0.1547(2)
O4 O 0.8897(3) 0.1867(2) -0.0456(2)
C1 C 0.3429(3) 0.3807(2) 0.2428(2)
C2 C 0.4179(3) 0.4447(2) 0.1152(2)
C3 C 0.3321(3) 0.5815(2) 0.0447(2)
C4 C 0.8507(3) 0.3265(3) -0.0831(2)
C5 C 0.5857(3) 0.3640(2) 0.0699(2)
O2A O 0.3852(3) 0.4647(2) 0.3470(2)
Ag1A Ag 0.73822(3) 0.59408(2) 0.45774(2)
O1A O 0.7484(3) 0.7448(2) 0.2649(2)
O2_2 O 0.6148(3) 0.9647(2) 0.1530(2)
Ag1_2 Ag 0.26178(3) 1.09408(2) 0.04226(2)
O2B O 0.3852(3) 1.0353(2) -0.1530(2)
Ag1B Ag 0.73822(3) 0.90592(2) -0.04226(2)
O1B O 0.7484(3) 0.7552(2) -0.2351(2)
C1B C 0.6571(3) 0.6193(2) -0.2428(2)
O2C O 0.6148(3) 0.5353(2) -0.3470(2)
Ag1C Ag 0.26178(3) 0.40592(2) -0.45774(2)
O2B_2 O 0.3852(3) 0.0353(2) -0.1530(2)
Ag1B_2 Ag 0.73822(3) -0.09408(2) -0.04226(2)
O2A_2 O 0.3852(3) 0.4647(2) -0.6530(2)
Ag1A_2 Ag 0.73822(3) 0.59408(2) -0.54226(2)
C2B C 0.5821(3) 0.5553(2) -0.1152(2)
C3B C 0.6679(3) 0.4185(2) -0.0447(2)
O4B O 1.1103(3) -0.1867(2) 0.0456(2)
Ag1_3 Ag 1.26178(3) 0.09408(2) 0.04226(2)
C5B C 0.4143(3) 0.6360(2) -0.0699(2)
O4_2 O 0.8897(3) 1.1867(2) -0.0456(2)
O4B_2 O 1.1103(3) 0.8133(2) 0.0456(2)
O4B_3 O 0.1103(3) 0.8133(2) 0.0456(2)
O4_3 O -0.1103(3) 1.1867(2) -0.0456(2)
O2C_2 O 0.6148(3) 0.5353(2) 0.6530(2)
O4C O 0.8897(3) 0.3133(2) 0.4544(2)
O4A O 1.1103(3) 0.6867(2) 0.5456(2)
Ag1C_2 Ag 0.26178(3) 0.40592(2) 0.54226(2)
C4B C 0.1493(3) 0.6735(3) 0.0831(2)
O3B O 0.0316(3) 0.5900(2) 0.1547(2)
Ag1B_3 Ag -0.26178(3) 0.90592(2) -0.04226(2)
loop_
_geom_bond_atom_site_label_1
_geom_bond_atom_site_label_2
_geom_bond_site_symmetry_1
_geom_bond_site_symmetry_2
Ag1 O1 1_555 1_555
O1 C1 1_555 1_555
O2 Ag1 1_555 1_555
O3 C4 1_555 1_555
O4 C4 1_555 1_555
C1 C2 1_555 1_555
C2 C3 1_555 1_555
C3 C5B 1_555 1_555
C4 C3B 1_555 1_555
C5 C2 1_555 1_555
O2A C1 1_555 1_555
Ag1A O2A 1_555 1_555
O1A Ag1A 1_555 1_555
O2_2 Ag1_2 1_555 1_555
Ag1_2 O2B 1_555 1_555
O2B Ag1B 1_555 1_555
Ag1B O2_2 1_555 1_555
O1B Ag1B 1_555 1_555
C1B O1B 1_555 1_555
O2C C1B 1_555 1_555
Ag1C O2C 1_555 1_555
O2B_2 Ag1 1_555 1_555
Ag1B_2 O2 1_555 1_555
O2A_2 Ag1C 1_555 1_555
Ag1A_2 O2C 1_555 1_555
C2B C1B 1_555 1_555
C3B C5 1_555 1_555
O4B Ag1B_2 1_555 1_555
Ag1_3 O4 1_555 1_555
C5B C2B 1_555 1_555
O4_2 Ag1B 1_555 1_555
O4B_2 Ag1B 1_555 1_555
O4B_3 Ag1_2 1_555 1_555
O4_3 Ag1_2 1_555 1_555
O2C_2 Ag1A 1_555 1_555
O4C Ag1A 1_555 1_555
O4A Ag1A 1_555 1_555
Ag1C_2 O2A 1_555 1_555
C4B C3 1_555 1_555
O3B C4B 1_555 1_555
Ag1B_3 O4B_3 1_555 1_555
O4 Ag1B_2 1_555 1_555
O2B_2 Ag1B_2 1_555 1_555
O2A_2 Ag1A_2 1_555 1_555
C2B C3B 1_555 1_555
O4B Ag1_3 1_555 1_555
O4B_3 C4B 1_555 1_555
O4_3 Ag1B_3 1_555 1_555
O2C_2 Ag1C_2 1_555 1_555

#END
