
#######################################################################
#
#                 Cambridge Crystallographic Data Centre
#                                CCDC 
#
#######################################################################
#
# If this CIF has been generated from an entry in the Cambridge 
# Structural Database, then it will include bibliographic, chemical, 
# crystal, experimental, refinement or atomic coordinate data resulting 
# from the CCDC's data processing and validation procedures.
#
#######################################################################

data_NOKJII
_symmetry_cell_setting           monoclinic
_symmetry_space_group_name_H-M   'P 21/n'
_symmetry_Int_Tables_number      14
_space_group_name_Hall           '-P 2yn'
loop_
_symmetry_equiv_pos_site_id
_symmetry_equiv_pos_as_xyz
1 x,y,z
2 1/2-x,1/2+y,1/2-z
3 -x,-y,-z
4 1/2+x,1/2-y,1/2+z
_cell_length_a                   15.6582(4)
_cell_length_b                   7.2109(2)
_cell_length_c                   6.4971(2)
_cell_angle_alpha                90
_cell_angle_beta                 92.757(4)
_cell_angle_gamma                90
_cell_volume                     732.737
loop_
_atom_site_label
_atom_site_type_symbol
_atom_site_fract_x
_atom_site_fract_y
_atom_site_fract_z
N2 N 0.00000 0.50000 0.50000
O1 O 0.04706 0.63481 0.46305
O2 O -0.00650 0.36772 0.37590
O3 O -0.04056 0.49747 0.66105
O1B O -0.04706 0.36519 0.53695
O2B O 0.00650 0.63228 0.62410
O3B O 0.04056 0.50253 0.33895
Ag1 Ag 0.00000 0.00000 0.50000
N1 N 0.07629 0.04076 -0.20666
C1 C 0.01934 0.08722 -0.03961
H1 H -0.02478 0.16756 -0.09106
H2 H 0.05133 0.14713 0.06912
C2 C 0.15358 0.08172 -0.18123
H3 H 0.17385 0.14072 -0.05760
C3 C 0.21426 0.04104 -0.33783
C4 C 0.30103 0.04822 -0.31671
H4 H 0.33496 0.08074 -0.19701
C5 C 0.34041 0.00032 -0.49893
H5 H 0.40099 0.00044 -0.50252
C6 C 0.28431 -0.04126 -0.65112
H6 H 0.30360 -0.07585 -0.78211
S1 S 0.18112 -0.02404 -0.57965
N1B N -0.07629 -0.04076 0.20666
C1B C -0.01934 -0.08722 0.03961
H1B H 0.02478 -0.16756 0.09106
H2B H -0.05133 -0.14713 -0.06912
C2B C -0.15358 -0.08172 0.18123
H3B H -0.17385 -0.14072 0.05760
C3B C -0.21426 -0.04104 0.33783
C4B C -0.30103 -0.04822 0.31671
H4B H -0.33496 -0.08074 0.19701
C5B C -0.34041 -0.00032 0.49893
H5B H -0.40099 -0.00044 0.50252
C6B C -0.28431 0.04126 0.65112
H6B H -0.30360 0.07585 0.78211
S1B S -0.18112 0.02404 0.57965
Ag1B Ag 0.00000 0.00000 -0.50000
N1_2 N 0.07629 0.04076 0.79334
S1_2 S 0.18112 -0.02404 0.42035
loop_
_geom_bond_atom_site_label_1
_geom_bond_atom_site_label_2
_geom_bond_site_symmetry_1
_geom_bond_site_symmetry_2
Ag1 N1B 1_555 1_555
N1 C1 1_555 1_555
C1 H1 1_555 1_555
H2 C1 1_555 1_555
C2 N1 1_555 1_555
H3 C2 1_555 1_555
C3 C2 1_555 1_555
C4 C3 1_555 1_555
H4 C4 1_555 1_555
C5 C4 1_555 1_555
H5 C5 1_555 1_555
C6 C5 1_555 1_555
H6 C6 1_555 1_555
S1 C3 1_555 1_555
N2 O1 1_555 1_555
O1 O2B 1_555 1_555
O2 N2 1_555 1_555
O3 N2 1_555 1_555
N1B C1B 1_555 1_555
C1B C1 1_555 1_555
H1B C1B 1_555 1_555
H2B C1B 1_555 1_555
C2B N1B 1_555 1_555
H3B C2B 1_555 1_555
C3B C2B 1_555 1_555
C4B C3B 1_555 1_555
H4B C4B 1_555 1_555
C5B C4B 1_555 1_555
H5B C5B 1_555 1_555
C6B C5B 1_555 1_555
H6B C6B 1_555 1_555
S1B Ag1 1_555 1_555
Ag1B N1 1_555 1_555
N1_2 Ag1 1_555 1_555
S1_2 Ag1 1_555 1_555
O1B N2 1_555 1_555
O2B N2 1_555 1_555
O3B N2 1_555 1_555
C6 S1 1_555 1_555
S1 Ag1B 1_555 1_555
O1 O3B 1_555 1_555
O2 O1B 1_555 1_555
O2 O3B 1_555 1_555
O3 O1B 1_555 1_555
O3 O2B 1_555 1_555
C3B S1B 1_555 1_555
C6B S1B 1_555 1_555

#END
