
#######################################################################
#
#                 Cambridge Crystallographic Data Centre
#                                CCDC 
#
#######################################################################
#
# If this CIF has been generated from an entry in the Cambridge 
# Structural Database, then it will include bibliographic, chemical, 
# crystal, experimental, refinement or atomic coordinate data resulting 
# from the CCDC's data processing and validation procedures.
#
#######################################################################

data_NOKLAA
_symmetry_cell_setting           triclinic
_symmetry_space_group_name_H-M   'P -1'
_symmetry_Int_Tables_number      2
_space_group_name_Hall           '-P 1'
loop_
_symmetry_equiv_pos_site_id
_symmetry_equiv_pos_as_xyz
1 x,y,z
2 -x,-y,-z
_cell_length_a                   6.722(8)
_cell_length_b                   7.465(9)
_cell_length_c                   10.252(1)
_cell_angle_alpha                83.03(1)
_cell_angle_beta                 76.85(1)
_cell_angle_gamma                74.40(1)
_cell_volume                     481.505
loop_
_atom_site_label
_atom_site_type_symbol
_atom_site_fract_x
_atom_site_fract_y
_atom_site_fract_z
Nd1 Nd 0.2142(1) 0.2055(1) 0.4401(1)
Cl1 Cl -0.0997(3) 0.5180(2) 0.3571(2)
Cl2 Cl 0.6363(3) 0.0050(3) 0.3389(2)
Cl3 Cl -0.1711(3) 0.1503(3) 0.6071(2)
O1 O 0.2483(10) 0.2082(9) 0.1873(6)
O2 O 0.4338(11) 0.4335(8) 0.3620(7)
C1 C 0.3711(19) 0.3099(16) 0.0892(10)
C2 C 0.3436(23) 0.2784(20) -0.0469(11)
C3 C 0.1473(32) 0.2117(31) -0.0159(12)
C4 C 0.0948(22) 0.1718(21) 0.1262(10)
H1 H 0.5187(19) 0.2670(16) 0.0949(10)
H2 H 0.3241(19) 0.4417(16) 0.1047(10)
H3 H 0.3272(23) 0.3931(20) -0.1036(11)
H4 H 0.4627(23) 0.1853(20) -0.0910(11)
H5 H 0.0332(32) 0.3067(31) -0.0451(12)
H6 H 0.1691(32) 0.1003(31) -0.0625(12)
H7 H -0.0435(22) 0.2489(21) 0.1626(10)
H8 H 0.0907(22) 0.0422(21) 0.1450(10)
Cl1A Cl 0.0997(3) 0.4820(2) 0.6429(2)
Cl2A Cl 0.3637(3) -0.0050(3) 0.6611(2)
Cl3A Cl 0.1711(3) -0.1503(3) 0.3929(2)
Nd1A Nd -0.2142(1) 0.7945(1) 0.5599(1)
Nd1A_2 Nd 0.7858(1) -0.2055(1) 0.5599(1)
Nd1A_3 Nd -0.2142(1) -0.2055(1) 0.5599(1)
loop_
_geom_bond_atom_site_label_1
_geom_bond_atom_site_label_2
_geom_bond_site_symmetry_1
_geom_bond_site_symmetry_2
Nd1 Cl1 1_555 1_555
Cl1 Nd1A 1_555 1_555
Cl2 Nd1 1_555 1_555
Cl3 Nd1 1_555 1_555
O1 Nd1 1_555 1_555
O2 Nd1 1_555 1_555
C1 O1 1_555 1_555
C2 C1 1_555 1_555
C3 C2 1_555 1_555
C4 O1 1_555 1_555
H1 C1 1_555 1_555
H2 C1 1_555 1_555
H3 C2 1_555 1_555
H4 C2 1_555 1_555
H5 C3 1_555 1_555
H6 C3 1_555 1_555
H7 C4 1_555 1_555
H8 C4 1_555 1_555
Cl1A Nd1 1_555 1_555
Cl2A Nd1 1_555 1_555
Cl3A Nd1 1_555 1_555
Nd1A Cl1A 1_555 1_555
Nd1A_2 Cl2 1_555 1_555
Nd1A_3 Cl3 1_555 1_555
C3 C4 1_555 1_555
Cl2A Nd1A_2 1_555 1_555
Cl3A Nd1A_3 1_555 1_555

#END
