
#######################################################################
#
#                 Cambridge Crystallographic Data Centre
#                                CCDC 
#
#######################################################################
#
# If this CIF has been generated from an entry in the Cambridge 
# Structural Database, then it will include bibliographic, chemical, 
# crystal, experimental, refinement or atomic coordinate data resulting 
# from the CCDC's data processing and validation procedures.
#
#######################################################################

data_NOKPOS
_symmetry_cell_setting           triclinic
_symmetry_space_group_name_H-M   'P -1'
_symmetry_Int_Tables_number      2
_space_group_name_Hall           '-P 1'
loop_
_symmetry_equiv_pos_site_id
_symmetry_equiv_pos_as_xyz
1 x,y,z
2 -x,-y,-z
_cell_length_a                   7.990(2)
_cell_length_b                   11.387(4)
_cell_length_c                   25.210(8)
_cell_angle_alpha                78.31(3)
_cell_angle_beta                 81.35(2)
_cell_angle_gamma                78.42(3)
_cell_volume                     2185.93
loop_
_atom_site_label
_atom_site_type_symbol
_atom_site_fract_x
_atom_site_fract_y
_atom_site_fract_z
O1 O 0.1659(2) -0.0748(2) -0.2698(1)
O2 O -0.3646(2) 0.0039(2) -0.2719(1)
N1 N -0.0864(3) 0.1488(2) -0.2732(1)
C1 C -0.1903(4) 0.2400(3) -0.3014(1)
C2 C -0.2006(4) 0.3614(3) -0.2980(1)
C3 C -0.0962(4) 0.3931(3) -0.2661(1)
C4 C 0.0147(4) 0.2984(3) -0.2381(1)
C5 C 0.0133(4) 0.1805(3) -0.2424(1)
N2 N -0.0998(3) 0.7683(2) -0.2619(1)
C6 C 0.0448(4) 0.6857(3) -0.2609(1)
C7 C 0.0504(4) 0.5644(3) -0.2613(1)
C8 C -0.0986(4) 0.5222(3) -0.2632(1)
C9 C -0.2489(4) 0.6069(3) -0.2632(1)
C10 C -0.2448(4) 0.7266(3) -0.2620(1)
N3 N -0.0654(3) -1.0199(2) -0.3556(1)
C11 C 0.0454(4) -0.9550(3) -0.3872(1)
C12 C 0.0744(4) -0.9460(3) -0.4430(1)
C13 C -0.0135(4) -1.0042(2) -0.4698(1)
C14 C -0.1283(4) -1.0711(3) -0.4370(1)
C15 C -0.1510(4) -1.0763(3) -0.3814(1)
N4 N -0.1441(3) -0.0540(2) -0.1842(1)
C16 C -0.2615(4) 0.0314(3) -0.1634(1)
C17 C -0.2899(4) 0.0379(3) -0.1092(1)
C18 C -0.1945(4) -0.0458(3) -0.0720(1)
C19 C -0.0749(4) -0.1357(3) -0.0936(1)
C20 C -0.0543(4) -0.1374(3) -0.1484(1)
N5 N -0.2628(5) -0.0110(3) 0.0966(1)
C21 C -0.1823(6) -0.1120(4) 0.0807(2)
C22 C -0.1557(6) -0.1286(4) 0.0266(1)
C23 C -0.2164(4) -0.0348(3) -0.0136(1)
C24 C -0.3011(6) 0.0716(4) 0.0037(2)
C25 C -0.3202(6) 0.0783(4) 0.0582(2)
Ni1 Ni -0.0997(1) -0.0392(1) -0.2700(1)
H1 H 0.2289(2) -0.0695(13) -0.2464(3)
H2 H 0.2366(2) -0.0929(15) -0.2970(2)
H3 H -0.4402(2) -0.0233(11) -0.2477(3)
H4 H -0.4220(2) 0.0534(10) -0.2955(3)
H5 H -0.2583(4) 0.2209(3) -0.3241(1)
H6 H -0.2777(4) 0.4214(3) -0.3171(1)
H7 H 0.0890(4) 0.3151(3) -0.2167(1)
H8 H 0.0863(4) 0.1187(3) -0.2226(1)
H9 H 0.1473(4) 0.7116(3) -0.2600(1)
H10 H 0.1547(4) 0.5107(3) -0.2602(1)
H11 H -0.3531(4) 0.5830(3) -0.2640(1)
H12 H -0.3482(4) 0.7813(3) -0.2613(1)
H13 H 0.1063(4) -0.9135(3) -0.3707(1)
H14 H 0.1544(4) -0.9000(3) -0.4628(1)
H15 H -0.1909(4) -1.1131(3) -0.4526(1)
H16 H -0.2304(4) -1.1216(3) -0.3606(1)
H17 H -0.3272(4) 0.0893(3) -0.1872(1)
H18 H -0.3739(4) 0.0991(3) -0.0971(1)
H19 H -0.0083(4) -0.1952(3) -0.0707(1)
H20 H 0.0258(4) -0.1993(3) -0.1615(1)
H21 H -0.1403(6) -0.1766(4) 0.1070(2)
H22 H -0.0974(6) -0.2025(4) 0.0176(1)
H23 H -0.3451(6) 0.1382(4) -0.0124(2)
H24 H -0.3776(6) 0.1510(4) 0.0686(2)
N1_2 N -0.0864(3) -0.8512(2) -0.2732(1)
C1_2 C -0.1903(4) -0.7600(3) -0.3014(1)
C2_2 C -0.2006(4) -0.6386(3) -0.2980(1)
C3_2 C -0.0962(4) -0.6069(3) -0.2661(1)
C4_2 C 0.0147(4) -0.7016(3) -0.2381(1)
C5_2 C 0.0133(4) -0.8195(3) -0.2424(1)
N2_2 N -0.0998(3) -0.2317(2) -0.2619(1)
C6_2 C 0.0448(4) -0.3143(3) -0.2609(1)
C7_2 C 0.0504(4) -0.4356(3) -0.2613(1)
C8_2 C -0.0986(4) -0.4778(3) -0.2632(1)
C9_2 C -0.2489(4) -0.3931(3) -0.2632(1)
C10_2 C -0.2448(4) -0.2734(3) -0.2620(1)
H5_2 H -0.2583(4) -0.7791(3) -0.3241(1)
H6_2 H -0.2777(4) -0.5786(3) -0.3171(1)
H7_2 H 0.0890(4) -0.6849(3) -0.2167(1)
H8_2 H 0.0863(4) -0.8813(3) -0.2226(1)
H9_2 H 0.1473(4) -0.2884(3) -0.2600(1)
H10_2 H 0.1547(4) -0.4893(3) -0.2602(1)
H11_2 H -0.3531(4) -0.4170(3) -0.2640(1)
H12_2 H -0.3482(4) -0.2187(3) -0.2613(1)
Ni1_2 Ni -0.0997(1) -1.0392(1) -0.2700(1)
O1_2 O 0.1659(2) -1.0748(2) -0.2698(1)
H1_2 H 0.2289(2) -1.0695(13) -0.2464(3)
H2_2 H 0.2366(2) -1.0929(15) -0.2970(2)
O2_2 O -0.3646(2) -0.9961(2) -0.2719(1)
H3_2 H -0.4402(2) -1.0233(11) -0.2477(3)
H4_2 H -0.4220(2) -0.9466(10) -0.2955(3)
N4_2 N -0.1441(3) -1.0540(2) -0.1842(1)
C16_2 C -0.2615(4) -0.9686(3) -0.1634(1)
C17_2 C -0.2899(4) -0.9621(3) -0.1092(1)
C18_2 C -0.1945(4) -1.0458(3) -0.0720(1)
C19_2 C -0.0749(4) -1.1357(3) -0.0936(1)
C20_2 C -0.0543(4) -1.1374(3) -0.1484(1)
N5_2 N -0.2628(5) -1.0110(3) 0.0966(1)
C21_2 C -0.1823(6) -1.1120(4) 0.0807(2)
C22_2 C -0.1557(6) -1.1286(4) 0.0266(1)
C23_2 C -0.2164(4) -1.0348(3) -0.0136(1)
C24_2 C -0.3011(6) -0.9284(4) 0.0037(2)
C25_2 C -0.3202(6) -0.9217(4) 0.0582(2)
H17_2 H -0.3272(4) -0.9107(3) -0.1872(1)
H18_2 H -0.3739(4) -0.9009(3) -0.0971(1)
H19_2 H -0.0083(4) -1.1952(3) -0.0707(1)
H20_2 H 0.0258(4) -1.1993(3) -0.1615(1)
H21_2 H -0.1403(6) -1.1766(4) 0.1070(2)
H22_2 H -0.0974(6) -1.2025(4) 0.0176(1)
H23_2 H -0.3451(6) -0.8618(4) -0.0124(2)
H24_2 H -0.3776(6) -0.8490(4) 0.0686(2)
Ni1_3 Ni -0.0997(1) 0.9608(1) -0.2700(1)
N2_3 N -0.0998(3) -1.2317(2) -0.2619(1)
N3_2 N -0.0654(3) -0.0199(2) -0.3556(1)
C13A C 0.0135(4) -0.9958(2) -0.5302(1)
C12A C -0.0744(4) -1.0540(3) -0.5570(1)
C14A C 0.1283(4) -0.9289(3) -0.5630(1)
C15A C 0.1510(4) -0.9237(3) -0.6186(1)
H15A H 0.1909(4) -0.8869(3) -0.5474(1)
C11A C -0.0454(4) -1.0450(3) -0.6128(1)
H14A H -0.1544(4) -1.1000(3) -0.5372(1)
N3A N 0.0654(3) -0.9801(2) -0.6444(1)
H16A H 0.2304(4) -0.8784(3) -0.6394(1)
H13A H -0.1063(4) -1.0865(3) -0.6293(1)
Ni1A Ni 0.0997(1) -0.9608(1) -0.7300(1)
Cl1 Cl -0.4380(1) 0.2321(1) -0.6202(1)
O3 O -0.5138(28) 0.3537(14) -0.6344(6)
O5 O -0.5068(26) 0.1775(17) -0.5717(6)
O7 O -0.2594(7) 0.2352(9) -0.6179(3)
O9 O -0.4365(4) 0.1535(3) -0.6581(1)
Cl2 Cl -0.4236(2) 0.6360(1) -0.8342(1)
O10 O -0.4514(14) 0.5309(9) -0.7984(4)
O12 O -0.5042(17) 0.6744(9) -0.8811(5)
O14 O -0.2405(8) 0.6107(9) -0.8532(3)
O16 O -0.4352(5) 0.7279(3) -0.8035(2)
N6 N -0.1578(5) 0.3504(4) -0.4423(2)
C26 C -0.2087(5) 0.3308(4) -0.4866(2)
C27 C -0.2673(5) 0.4220(3) -0.5286(2)
C28 C -0.2726(4) 0.5421(3) -0.5252(1)
C29 C -0.2201(5) 0.5634(3) -0.4791(1)
C30 C -0.1632(6) 0.4663(4) -0.4398(2)
N7 N -0.4573(4) 0.8349(3) -0.6507(1)
C31 C -0.4616(5) 0.8506(3) -0.5999(2)
C32 C -0.4030(4) 0.7591(3) -0.5585(1)
C33 C -0.3338(4) 0.6435(3) -0.5691(1)
C34 C -0.3270(5) 0.6276(4) -0.6223(2)
C35 C -0.3901(5) 0.7243(4) -0.6612(2)
H25 H -0.2051(5) 0.2504(4) -0.4900(2)
H26 H -0.3027(5) 0.4023(3) -0.5588(2)
H27 H -0.2229(5) 0.6427(3) -0.4745(1)
H28 H -0.1261(6) 0.4833(4) -0.4093(2)
H29 H -0.5067(5) 0.9275(3) -0.5916(2)
H30 H -0.4099(4) 0.7751(3) -0.5234(1)
H31 H -0.2802(5) 0.5522(4) -0.6319(2)
H32 H -0.3852(5) 0.7110(4) -0.6966(2)
N8 N -0.3667(6) 0.6096(4) -0.0720(2)
C36 C -0.3717(7) 0.6100(5) -0.0198(2)
C37 C -0.2332(6) 0.5681(4) 0.0096(2)
C38 C -0.0771(6) 0.5221(3) -0.0152(2)
C39 C -0.0689(7) 0.5216(5) -0.0702(2)
C40 C -0.2159(9) 0.5659(5) -0.0963(2)
H33 H -0.4760(7) 0.6407(5) -0.0014(2)
H34 H -0.2463(6) 0.5711(4) 0.0466(2)
H35 H 0.0340(7) 0.4918(5) -0.0896(2)
H36 H -0.2074(9) 0.5647(5) -0.1334(2)
C38A C 0.0771(6) 0.4779(3) 0.0152(2)
C37A C 0.2332(6) 0.4319(4) -0.0096(2)
C36A C 0.3717(7) 0.3900(5) 0.0198(2)
N8A N 0.3667(6) 0.3904(4) 0.0720(2)
C40A C 0.2159(9) 0.4341(5) 0.0963(2)
C39A C 0.0689(7) 0.4784(5) 0.0702(2)
H35A H -0.0340(7) 0.5082(5) 0.0896(2)
H36A H 0.2074(9) 0.4353(5) 0.1334(2)
H33A H 0.4760(7) 0.3593(5) 0.0014(2)
H34A H 0.2463(6) 0.4289(4) -0.0466(2)
O17 O -0.3730(5) 0.3140(3) -0.8581(2)
H37 H -0.3727(75) 0.3661(50) -0.8421(24)
H38 H -0.4574(69) 0.3400(48) -0.8775(22)
O18 O -0.3755(3) 0.0788(2) -0.8062(1)
H39 H -0.3820(49) 0.1528(7) -0.8218(11)
H40 H -0.3385(46) 0.0383(22) -0.8317(8)
O4? O -0.6190(23) 0.2890(20) -0.6162(8)
O6? O -0.4305(49) 0.1762(18) -0.5661(7)
O8? O -0.3694(37) 0.3281(24) -0.6466(9)
O11? O -0.5991(17) 0.6176(20) -0.8321(8)
O13? O -0.3598(69) 0.6735(39) -0.8824(13)
O15? O -0.3389(45) 0.5232(21) -0.8245(16)
loop_
_geom_bond_atom_site_label_1
_geom_bond_atom_site_label_2
_geom_bond_site_symmetry_1
_geom_bond_site_symmetry_2
O1 Ni1 1_555 1_555
O2 Ni1 1_555 1_555
Cl1 O3 1_555 1_555
O5 Cl1 1_555 1_555
O7 Cl1 1_555 1_555
O9 Cl1 1_555 1_555
Cl2 O10 1_555 1_555
O12 Cl2 1_555 1_555
O14 Cl2 1_555 1_555
O16 Cl2 1_555 1_555
N1 C1 1_555 1_555
C1 C2 1_555 1_555
C2 C3 1_555 1_555
C3 C4 1_555 1_555
C4 C5 1_555 1_555
C5 N1 1_555 1_555
N2 C6 1_555 1_555
C6 C7 1_555 1_555
C7 C8 1_555 1_555
C8 C3 1_555 1_555
C9 C8 1_555 1_555
C10 N2 1_555 1_555
N3 C11 1_555 1_555
C11 C12 1_555 1_555
C12 C13 1_555 1_555
C13 C14 1_555 1_555
C14 C15 1_555 1_555
C15 N3 1_555 1_555
N4 C16 1_555 1_555
C16 C17 1_555 1_555
C17 C18 1_555 1_555
C18 C19 1_555 1_555
C19 C20 1_555 1_555
C20 N4 1_555 1_555
N5 C21 1_555 1_555
C21 C22 1_555 1_555
C22 C23 1_555 1_555
C23 C18 1_555 1_555
C24 C23 1_555 1_555
C25 N5 1_555 1_555
N6 C26 1_555 1_555
C26 C27 1_555 1_555
C27 C28 1_555 1_555
C28 C29 1_555 1_555
C29 C30 1_555 1_555
C30 N6 1_555 1_555
N7 C31 1_555 1_555
C31 C32 1_555 1_555
C32 C33 1_555 1_555
C33 C28 1_555 1_555
C34 C33 1_555 1_555
C35 N7 1_555 1_555
N8 C36 1_555 1_555
C36 C37 1_555 1_555
C37 C38 1_555 1_555
C38 C39 1_555 1_555
C39 C40 1_555 1_555
C40 N8 1_555 1_555
O17 H37 1_555 1_555
O18 H39 1_555 1_555
Ni1 N1 1_555 1_555
H1 O1 1_555 1_555
H2 O1 1_555 1_555
H3 O2 1_555 1_555
H4 O2 1_555 1_555
H5 C1 1_555 1_555
H6 C2 1_555 1_555
H7 C4 1_555 1_555
H8 C5 1_555 1_555
H9 C6 1_555 1_555
H10 C7 1_555 1_555
H11 C9 1_555 1_555
H12 C10 1_555 1_555
H13 C11 1_555 1_555
H14 C12 1_555 1_555
H15 C14 1_555 1_555
H16 C15 1_555 1_555
H17 C16 1_555 1_555
H18 C17 1_555 1_555
H19 C19 1_555 1_555
H20 C20 1_555 1_555
H21 C21 1_555 1_555
H22 C22 1_555 1_555
H23 C24 1_555 1_555
H24 C25 1_555 1_555
H25 C26 1_555 1_555
H26 C27 1_555 1_555
H27 C29 1_555 1_555
H28 C30 1_555 1_555
H29 C31 1_555 1_555
H30 C32 1_555 1_555
H31 C34 1_555 1_555
H32 C35 1_555 1_555
H33 C36 1_555 1_555
H34 C37 1_555 1_555
H35 C39 1_555 1_555
H36 C40 1_555 1_555
H38 O17 1_555 1_555
H40 O18 1_555 1_555
C38A C38 1_555 1_555
C37A C38A 1_555 1_555
C36A C37A 1_555 1_555
N8A C36A 1_555 1_555
C40A N8A 1_555 1_555
C39A C38A 1_555 1_555
H35A C39A 1_555 1_555
H36A C40A 1_555 1_555
H33A C36A 1_555 1_555
H34A C37A 1_555 1_555
N1_2 C1_2 1_555 1_555
C1_2 C2_2 1_555 1_555
C2_2 C3_2 1_555 1_555
C3_2 C4_2 1_555 1_555
C4_2 C5_2 1_555 1_555
C5_2 N1_2 1_555 1_555
N2_2 Ni1 1_555 1_555
C6_2 N2_2 1_555 1_555
C7_2 C6_2 1_555 1_555
C8_2 C3_2 1_555 1_555
C9_2 C8_2 1_555 1_555
C10_2 N2_2 1_555 1_555
H5_2 C1_2 1_555 1_555
H6_2 C2_2 1_555 1_555
H7_2 C4_2 1_555 1_555
H8_2 C5_2 1_555 1_555
H9_2 C6_2 1_555 1_555
H10_2 C7_2 1_555 1_555
H11_2 C9_2 1_555 1_555
H12_2 C10_2 1_555 1_555
Ni1_2 N3 1_555 1_555
O1_2 Ni1_2 1_555 1_555
H1_2 O1_2 1_555 1_555
H2_2 O1_2 1_555 1_555
O2_2 Ni1_2 1_555 1_555
H3_2 O2_2 1_555 1_555
H4_2 O2_2 1_555 1_555
N4_2 Ni1_2 1_555 1_555
C16_2 N4_2 1_555 1_555
C17_2 C16_2 1_555 1_555
C18_2 C17_2 1_555 1_555
C19_2 C18_2 1_555 1_555
C20_2 N4_2 1_555 1_555
N5_2 C21_2 1_555 1_555
C21_2 C22_2 1_555 1_555
C22_2 C23_2 1_555 1_555
C23_2 C18_2 1_555 1_555
C24_2 C23_2 1_555 1_555
C25_2 N5_2 1_555 1_555
H17_2 C16_2 1_555 1_555
H18_2 C17_2 1_555 1_555
H19_2 C19_2 1_555 1_555
H20_2 C20_2 1_555 1_555
H21_2 C21_2 1_555 1_555
H22_2 C22_2 1_555 1_555
H23_2 C24_2 1_555 1_555
H24_2 C25_2 1_555 1_555
Ni1_3 N2 1_555 1_555
N2_3 Ni1_2 1_555 1_555
N3_2 Ni1 1_555 1_555
C13A C13 1_555 1_555
C12A C13A 1_555 1_555
C14A C13A 1_555 1_555
C15A C14A 1_555 1_555
H15A C14A 1_555 1_555
C11A C12A 1_555 1_555
H14A C12A 1_555 1_555
N3A C15A 1_555 1_555
H16A C15A 1_555 1_555
H13A C11A 1_555 1_555
Ni1A N3A 1_555 1_555
C9 C10 1_555 1_555
N4 Ni1 1_555 1_555
C24 C25 1_555 1_555
C34 C35 1_555 1_555
C40A C39A 1_555 1_555
N1_2 Ni1_2 1_555 1_555
C7_2 C8_2 1_555 1_555
C9_2 C10_2 1_555 1_555
C19_2 C20_2 1_555 1_555
C24_2 C25_2 1_555 1_555
C11A N3A 1_555 1_555

#END
