
#######################################################################
#
#                 Cambridge Crystallographic Data Centre
#                                CCDC 
#
#######################################################################
#
# If this CIF has been generated from an entry in the Cambridge 
# Structural Database, then it will include bibliographic, chemical, 
# crystal, experimental, refinement or atomic coordinate data resulting 
# from the CCDC's data processing and validation procedures.
#
#######################################################################

data_NOKZIY
_symmetry_cell_setting           triclinic
_symmetry_space_group_name_H-M   'P -1'
_symmetry_Int_Tables_number      2
_space_group_name_Hall           '-P 1'
loop_
_symmetry_equiv_pos_site_id
_symmetry_equiv_pos_as_xyz
1 x,y,z
2 -x,-y,-z
_cell_length_a                   6.5750(4)
_cell_length_b                   11.3940(5)
_cell_length_c                   16.8870(13)
_cell_angle_alpha                72.167(5)
_cell_angle_beta                 84.064(5)
_cell_angle_gamma                77.597(5)
_cell_volume                     1175.24
loop_
_atom_site_label
_atom_site_type_symbol
_atom_site_fract_x
_atom_site_fract_y
_atom_site_fract_z
Mn1 Mn 0.72223(11) 0.32246(6) 0.11392(4)
O1 O 0.7197(5) 0.3537(3) 0.22943(19)
O2 O 0.7764(7) 0.5491(3) 0.2037(2)
O3 O 0.7054(6) 0.5174(3) 0.0578(2)
H1 H 0.7108 0.5550 0.0931
H2 H 0.6815 0.5701 0.0110
O4 O 1.0683(5) 0.2859(3) 0.10581(18)
O5 O 1.3695(6) 0.3479(3) 0.10441(18)
O6 O 0.7438(11) 0.2484(5) 0.6482(2)
O7 O 0.7593(8) 0.4413(4) 0.6314(2)
O8 O 1.2475(8) -0.0034(4) 0.5296(3)
O9 O 1.2645(9) 0.1814(5) 0.5338(3)
N1 N 0.7465(6) 0.2625(4) -0.0021(2)
N2 N 0.7163(6) 0.1136(4) 0.1587(2)
N3 N 0.7524(8) 0.3529(5) 0.6049(3)
N4 N 1.2506(8) 0.1085(5) 0.4955(3)
C1 C 0.7503(7) 0.4464(4) 0.2509(3)
C2 C 0.7536(7) 0.4225(4) 0.3444(3)
C3 C 0.7363(8) 0.3055(4) 0.3980(3)
H3 H 0.7249 0.2399 0.3760
C4 C 0.7354(8) 0.2829(5) 0.4835(3)
H4 H 0.7237 0.2026 0.5203
C5 C 0.7518(9) 0.3796(5) 0.5135(3)
C6 C 0.7695(8) 0.4975(5) 0.4624(3)
H5 H 0.7828 0.5620 0.4852
C7 C 0.7674(8) 0.5193(5) 0.3778(3)
H6 H 0.7753 0.6006 0.3416
C8 C 1.2180(7) 0.3000(4) 0.1387(3)
C9 C 1.2193(7) 0.2485(4) 0.2351(3)
C10 C 1.1775(8) 0.1290(5) 0.2761(3)
H7 H 1.1407 0.0803 0.2451
C11 C 1.1894(8) 0.0816(5) 0.3613(3)
H8 H 1.1650 -0.0004 0.3896
C12 C 1.2379(7) 0.1565(5) 0.4045(3)
C13 C 1.2728(8) 0.2770(5) 0.3661(3)
H9 H 1.2999 0.3272 0.3980
C14 C 1.2672(8) 0.3224(4) 0.2804(3)
H10 H 1.2958 0.4036 0.2524
C15 C 0.7665(7) 0.3342(4) -0.0794(3)
H11 H 0.7723 0.4199 -0.0884
C16 C 0.7794(8) 0.2897(5) -0.1486(3)
H12 H 0.7895 0.3450 -0.2033
C17 C 0.7774(8) 0.1656(5) -0.1367(3)
H13 H 0.7887 0.1331 -0.1828
C18 C 0.7581(7) 0.0863(4) -0.0541(3)
C19 C 0.7437(7) 0.1395(4) 0.0111(3)
C20 C 0.7246(7) 0.0612(4) 0.0959(3)
C21 C 0.7199(7) -0.0669(4) 0.1114(3)
C22 C 0.6993(8) -0.1397(4) 0.1946(3)
H14 H 0.6928 -0.2260 0.2074
C23 C 0.6888(9) -0.0851(5) 0.2569(3)
H15 H 0.6749 -0.1330 0.3135
C24 C 0.6988(8) 0.0430(4) 0.2362(3)
H16 H 0.6926 0.0801 0.2798
C25 C 0.7377(7) -0.1180(4) 0.0426(3)
H17 H 0.7352 -0.2045 0.0529
C26 C 0.7580(7) -0.0453(4) -0.0369(3)
H18 H 0.7722 -0.0814 -0.0814
Mn1_2 Mn 1.72223(11) 0.32246(6) 0.11392(4)
O5_2 O 0.3695(6) 0.3479(3) 0.10441(18)
loop_
_geom_bond_atom_site_label_1
_geom_bond_atom_site_label_2
_geom_bond_site_symmetry_1
_geom_bond_site_symmetry_2
Mn1 O1 1_555 1_555
O1 C1 1_555 1_555
O2 C1 1_555 1_555
O3 Mn1 1_555 1_555
H1 O3 1_555 1_555
H2 O3 1_555 1_555
O4 Mn1 1_555 1_555
O5 C8 1_555 1_555
O6 N3 1_555 1_555
O7 N3 1_555 1_555
O8 N4 1_555 1_555
O9 N4 1_555 1_555
N1 Mn1 1_555 1_555
N2 Mn1 1_555 1_555
N3 C5 1_555 1_555
N4 C12 1_555 1_555
C1 C2 1_555 1_555
C2 C3 1_555 1_555
C3 H3 1_555 1_555
C4 C3 1_555 1_555
H4 C4 1_555 1_555
C5 C4 1_555 1_555
C6 C5 1_555 1_555
H5 C6 1_555 1_555
C7 C2 1_555 1_555
H6 C7 1_555 1_555
C8 O4 1_555 1_555
C9 C8 1_555 1_555
C10 C9 1_555 1_555
H7 C10 1_555 1_555
C11 C10 1_555 1_555
H8 C11 1_555 1_555
C12 C11 1_555 1_555
C13 C12 1_555 1_555
H9 C13 1_555 1_555
C14 C9 1_555 1_555
H10 C14 1_555 1_555
C15 N1 1_555 1_555
H11 C15 1_555 1_555
C16 C15 1_555 1_555
H12 C16 1_555 1_555
C17 C16 1_555 1_555
H13 C17 1_555 1_555
C18 C17 1_555 1_555
C19 N1 1_555 1_555
C20 N2 1_555 1_555
C21 C20 1_555 1_555
C22 C21 1_555 1_555
H14 C22 1_555 1_555
C23 C22 1_555 1_555
H15 C23 1_555 1_555
C24 N2 1_555 1_555
H16 C24 1_555 1_555
C25 C21 1_555 1_555
H17 C25 1_555 1_555
C26 C18 1_555 1_555
H18 C26 1_555 1_555
Mn1_2 O5 1_555 1_555
O5_2 Mn1 1_555 1_555
C6 C7 1_555 1_555
C13 C14 1_555 1_555
C18 C19 1_555 1_555
C19 C20 1_555 1_555
C23 C24 1_555 1_555
C25 C26 1_555 1_555

#END
