
#######################################################################
#
#                 Cambridge Crystallographic Data Centre
#                                CCDC 
#
#######################################################################
#
# If this CIF has been generated from an entry in the Cambridge 
# Structural Database, then it will include bibliographic, chemical, 
# crystal, experimental, refinement or atomic coordinate data resulting 
# from the CCDC's data processing and validation procedures.
#
#######################################################################

data_NOKZUK
_symmetry_cell_setting           monoclinic
_symmetry_space_group_name_H-M   'C 2/c'
_symmetry_Int_Tables_number      15
_space_group_name_Hall           '-C 2yn'
loop_
_symmetry_equiv_pos_site_id
_symmetry_equiv_pos_as_xyz
1 x,y,z
2 -x,y,1/2-z
3 1/2+x,1/2+y,z
4 1/2-x,1/2+y,1/2-z
5 -x,-y,-z
6 x,-y,1/2+z
7 1/2-x,1/2-y,-z
8 1/2+x,1/2-y,1/2+z
_cell_length_a                   26.8690(6)
_cell_length_b                   12.6550(3)
_cell_length_c                   6.70400(10)
_cell_angle_alpha                90
_cell_angle_beta                 97.535(3)
_cell_angle_gamma                90
_cell_volume                     2259.86
loop_
_atom_site_label
_atom_site_type_symbol
_atom_site_fract_x
_atom_site_fract_y
_atom_site_fract_z
Mn1 Mn 0.0000 0.62876(4) 0.2500
O1 O 0.05761(6) 0.53106(12) 0.3893(2)
O2 O 0.03846(6) 0.36606(12) 0.4754(2)
O3 O 0.22994(7) 0.61284(13) 0.3235(3)
O4 O 0.28127(7) 0.49045(15) 0.2545(3)
O5 O 0.09768(6) 0.21530(12) 0.4113(2)
H1 H 0.0711 0.2439 0.4375
N1 N -0.04759(7) 0.77506(14) 0.1628(3)
N2 N 0.24040(8) 0.51943(16) 0.2989(3)
C1 C 0.06790(9) 0.43506(17) 0.4172(3)
C2 C 0.11893(9) 0.39851(17) 0.3845(3)
C3 C 0.15552(8) 0.47224(17) 0.3545(3)
H2 H 0.1479 0.5455 0.3551
C4 C 0.20255(9) 0.43945(18) 0.3240(3)
C5 C 0.21498(9) 0.33294(19) 0.3183(3)
H3 H 0.2475 0.3118 0.2932
C6 C 0.17945(9) 0.25870(18) 0.3495(3)
H4 H 0.1875 0.1857 0.3474
C7 C 0.13155(9) 0.29034(17) 0.3843(3)
C8 C -0.02730(9) 0.87073(17) 0.2127(3)
C9 C -0.05632(9) 0.96202(17) 0.1976(3)
H5 H -0.0413 1.0287 0.2320
C10 C -0.10709(10) 0.95495(18) 0.1322(4)
H6 H -0.1274 1.0167 0.1213
C11 C -0.12804(9) 0.85763(19) 0.0831(3)
H7 H -0.1630 0.8506 0.0401
C12 C -0.09665(9) 0.76993(19) 0.0979(3)
H8 H -0.1108 0.7030 0.0600
N1A N 0.04759(7) 0.77506(14) 0.3372(3)
C8A C 0.02730(9) 0.87073(17) 0.2873(3)
C9A C 0.05632(9) 0.96202(17) 0.3024(3)
H5A H 0.0413 1.0287 0.2680
C10A C 0.10709(10) 0.95495(18) 0.3678(4)
H6A H 0.1274 1.0167 0.3787
C11A C 0.12804(9) 0.85763(19) 0.4169(3)
H7A H 0.1630 0.8506 0.4599
C12A C 0.09665(9) 0.76993(19) 0.4021(3)
H8A H 0.1108 0.7030 0.4400
O1A O -0.05761(6) 0.53106(12) 0.1107(2)
O2A O -0.03846(6) 0.36606(12) 0.0246(2)
O3A O -0.22994(7) 0.61284(13) 0.1765(3)
O4A O -0.28127(7) 0.49045(15) 0.2455(3)
O5A O -0.09768(6) 0.21530(12) 0.0887(2)
H1A H -0.0711 0.2439 0.0625
N2A N -0.24040(8) 0.51943(16) 0.2011(3)
C1A C -0.06790(9) 0.43506(17) 0.0828(3)
C2A C -0.11893(9) 0.39851(17) 0.1155(3)
C3A C -0.15552(8) 0.47224(17) 0.1455(3)
H2A H -0.1479 0.5455 0.1449
C4A C -0.20255(9) 0.43945(18) 0.1760(3)
C5A C -0.21498(9) 0.33294(19) 0.1817(3)
H3A H -0.2475 0.3118 0.2068
C6A C -0.17945(9) 0.25870(18) 0.1505(3)
H4A H -0.1875 0.1857 0.1526
C7A C -0.13155(9) 0.29034(17) 0.1157(3)
Mn1D Mn 0.0000 0.37124(4) -0.2500
Mn1D_2 Mn 0.0000 0.37124(4) 0.7500
O2D O -0.03846(6) 0.63394(12) 0.5246(2)
O2E O 0.03846(6) 0.63394(12) -0.0246(2)
loop_
_geom_bond_atom_site_label_1
_geom_bond_atom_site_label_2
_geom_bond_site_symmetry_1
_geom_bond_site_symmetry_2
Mn1 O1 1_555 1_555
O1 C1 1_555 1_555
O2 C1 1_555 1_555
O3 N2 1_555 1_555
O4 N2 1_555 1_555
O5 H1 1_555 1_555
N1 Mn1 1_555 1_555
N2 C4 1_555 1_555
C1 C2 1_555 1_555
C2 C3 1_555 1_555
C3 H2 1_555 1_555
C4 C3 1_555 1_555
C5 C4 1_555 1_555
H3 C5 1_555 1_555
C6 C5 1_555 1_555
H4 C6 1_555 1_555
C7 O5 1_555 1_555
C8 N1 1_555 1_555
C9 C8 1_555 1_555
H5 C9 1_555 1_555
C10 C9 1_555 1_555
H6 C10 1_555 1_555
C11 C10 1_555 1_555
H7 C11 1_555 1_555
C12 N1 1_555 1_555
H8 C12 1_555 1_555
N1A Mn1 1_555 1_555
C8A C8 1_555 1_555
C9A C8A 1_555 1_555
H5A C9A 1_555 1_555
C10A C9A 1_555 1_555
H6A C10A 1_555 1_555
C11A C10A 1_555 1_555
H7A C11A 1_555 1_555
C12A N1A 1_555 1_555
H8A C12A 1_555 1_555
O1A Mn1 1_555 1_555
O2A C1A 1_555 1_555
O3A N2A 1_555 1_555
O4A N2A 1_555 1_555
O5A H1A 1_555 1_555
N2A C4A 1_555 1_555
C1A O1A 1_555 1_555
C2A C1A 1_555 1_555
C3A C2A 1_555 1_555
H2A C3A 1_555 1_555
C4A C3A 1_555 1_555
C5A C4A 1_555 1_555
H3A C5A 1_555 1_555
C6A C5A 1_555 1_555
H4A C6A 1_555 1_555
C7A O5A 1_555 1_555
Mn1D O2A 1_555 1_555
Mn1D_2 O2 1_555 1_555
O2D Mn1 1_555 1_555
O2E Mn1 1_555 1_555
C2 C7 1_555 1_555
C6 C7 1_555 1_555
C11 C12 1_555 1_555
N1A C8A 1_555 1_555
C11A C12A 1_555 1_555
C2A C7A 1_555 1_555
C6A C7A 1_555 1_555

#END
