
#######################################################################
#
#                 Cambridge Crystallographic Data Centre
#                                CCDC 
#
#######################################################################
#
# If this CIF has been generated from an entry in the Cambridge 
# Structural Database, then it will include bibliographic, chemical, 
# crystal, experimental, refinement or atomic coordinate data resulting 
# from the CCDC's data processing and validation procedures.
#
#######################################################################

data_NOLPAH
_symmetry_cell_setting           orthorhombic
_symmetry_space_group_name_H-M   'P 21 21 21'
_symmetry_Int_Tables_number      19
_space_group_name_Hall           'P 2ac 2ab'
loop_
_symmetry_equiv_pos_site_id
_symmetry_equiv_pos_as_xyz
1 x,y,z
2 1/2-x,-y,1/2+z
3 1/2+x,1/2-y,-z
4 -x,1/2+y,1/2-z
_cell_length_a                   9.20110(10)
_cell_length_b                   16.0844(4)
_cell_length_c                   19.6277(4)
_cell_angle_alpha                90
_cell_angle_beta                 90
_cell_angle_gamma                90
_cell_volume                     2904.79
loop_
_atom_site_label
_atom_site_type_symbol
_atom_site_fract_x
_atom_site_fract_y
_atom_site_fract_z
C1 C 0.1682(7) -0.0966(3) 0.9810(3)
H1 H 0.1179 -0.1194 0.9431
C2 C 0.2240(7) -0.1503(4) 1.0298(3)
H2 H 0.2107 -0.2086 1.0255
C3 C 0.2985(7) -0.1182(4) 1.0841(3)
H3 H 0.3387 -0.1540 1.1177
C4 C 0.3142(5) -0.0335(3) 1.0892(3)
H4 H 0.3655 -0.0097 1.1265
C5 C 0.2536(5) 0.0173(3) 1.0388(3)
C6 C 0.2649(6) 0.1111(3) 1.0455(2)
H5 H 0.1758 0.1326 1.0677
H6 H 0.3485 0.1250 1.0751
C7 C 0.3149(5) 0.1182(3) 0.7685(2)
H7 H 0.2389 0.0929 0.7432
C8 C 0.4186(6) 0.1619(4) 0.7343(3)
H8 H 0.4146 0.1668 0.6861
C9 C 0.5289(6) 0.1988(4) 0.7703(3)
H9 H 0.6017 0.2301 0.7474
C10 C 0.5329(5) 0.1898(3) 0.8411(2)
H10 H 0.6085 0.2142 0.8673
C11 C 0.4234(5) 0.1443(3) 0.8719(2)
C12 C 0.4246(5) 0.1296(3) 0.9478(2)
H11 H 0.4456 0.0702 0.9569
H12 H 0.5030 0.1631 0.9688
C13 C 0.2689(5) 0.2412(3) 0.9826(2)
C14 C 0.2128(5) 0.2843(3) 0.9271(2)
H13 H 0.1765 0.2537 0.8893
C15 C 0.2083(5) 0.3689(3) 0.9253(2)
H14 H 0.1680 0.3964 0.8868
C16 C 0.2631(5) 0.4156(3) 0.9801(2)
C17 C 0.3158(5) 0.3747(3) 1.0384(2)
C18 C 0.3222(4) 0.2874(3) 1.0378(2)
H15 H 0.3636 0.2590 1.0756
C19 C 0.3611(4) 0.4236(3) 1.0991(2)
H16 H 0.3609 0.4824 1.0950
C20 C 0.4018(5) 0.3918(3) 1.1588(2)
H17 H 0.4036 0.3332 1.1651
H18 H 0.4292 0.4276 1.1950
C21 C 0.2364(7) 0.5473(4) 0.9213(3)
H19 H 0.1459 0.5279 0.8980
C22 C 0.2182(11) 0.6344(4) 0.9443(5)
H20 H 0.1288 0.6392 0.9712
H21 H 0.2121 0.6711 0.9046
H22 H 0.3016 0.6506 0.9724
C23 C 0.3647(10) 0.5372(6) 0.8745(4)
H23 H 0.4539 0.5334 0.9016
H24 H 0.3707 0.5853 0.8440
H25 H 0.3529 0.4864 0.8475
O1 O 0.2598(4) 0.4996(2) 0.98261(19)
Ag1 Ag 0.11324(3) 0.07004(2) 0.896992(16)
N1 N 0.1822(5) -0.0150(3) 0.9853(2)
N2 N 0.3156(4) 0.1094(3) 0.83678(19)
N3 N 0.2833(4) 0.1521(2) 0.97953(18)
C19B C -0.1389(4) 0.0764(3) 0.9009(2)
C20B C -0.0982(5) 0.1082(3) 0.8412(2)
Ag1B Ag 0.61324(3) 0.42996(2) 1.103008(16)
C24 C -0.0390(8) -0.1869(5) 0.7902(3)
F1 F -0.1165(6) -0.1538(4) 0.8406(3)
F2 F -0.1280(8) -0.2188(5) 0.7458(3)
F3 F 0.0369(8) -0.2485(4) 0.8161(3)
O2 O 0.1691(6) -0.1594(4) 0.7077(3)
O3 O 0.1527(6) -0.0765(4) 0.8100(3)
O4 O -0.0142(6) -0.0542(3) 0.7186(3)
S1 S 0.08079(15) -0.11103(9) 0.75249(6)
Cl1 Cl 0.5887(4) -0.0518(3) 0.8011(4)
Cl2 Cl 0.4829(3) -0.18348(17) 0.88823(13)
C25 C 0.4902(18) -0.0888(11) 0.8526(15)
H26 H 0.3918 -0.0805 0.8334
H27 H 0.4966 -0.0504 0.8919
loop_
_geom_bond_atom_site_label_1
_geom_bond_atom_site_label_2
_geom_bond_site_symmetry_1
_geom_bond_site_symmetry_2
C1 H1 1_555 1_555
C2 C1 1_555 1_555
H2 C2 1_555 1_555
C3 C2 1_555 1_555
H3 C3 1_555 1_555
C4 C3 1_555 1_555
H4 C4 1_555 1_555
C5 C4 1_555 1_555
C6 C5 1_555 1_555
H5 C6 1_555 1_555
H6 C6 1_555 1_555
C7 H7 1_555 1_555
C8 C7 1_555 1_555
H8 C8 1_555 1_555
C9 C8 1_555 1_555
H9 C9 1_555 1_555
C10 C9 1_555 1_555
H10 C10 1_555 1_555
C11 C10 1_555 1_555
C12 C11 1_555 1_555
H11 C12 1_555 1_555
H12 C12 1_555 1_555
C13 C14 1_555 1_555
C14 H13 1_555 1_555
C15 C14 1_555 1_555
H14 C15 1_555 1_555
C16 C15 1_555 1_555
C17 C16 1_555 1_555
C18 C13 1_555 1_555
H15 C18 1_555 1_555
C19 C17 1_555 1_555
H16 C19 1_555 1_555
C20 C19 1_555 1_555
H17 C20 1_555 1_555
H18 C20 1_555 1_555
C21 H19 1_555 1_555
C22 C21 1_555 1_555
H20 C22 1_555 1_555
H21 C22 1_555 1_555
H22 C22 1_555 1_555
C23 C21 1_555 1_555
H23 C23 1_555 1_555
H24 C23 1_555 1_555
H25 C23 1_555 1_555
O1 C16 1_555 1_555
Ag1 N1 1_555 1_555
N1 C1 1_555 1_555
N2 C7 1_555 1_555
N3 C6 1_555 1_555
C24 F1 1_555 1_555
F2 C24 1_555 1_555
F3 C24 1_555 1_555
O2 S1 1_555 1_555
O3 S1 1_555 1_555
O4 S1 1_555 1_555
S1 C24 1_555 1_555
Cl1 C25 1_555 1_555
Cl2 C25 1_555 1_555
C25 H26 1_555 1_555
H27 C25 1_555 1_555
C19B Ag1 1_555 1_555
C20B Ag1 1_555 1_555
Ag1B C19 1_555 1_555
C5 N1 1_555 1_555
C11 N2 1_555 1_555
C12 N3 1_555 1_555
C13 N3 1_555 1_555
C17 C18 1_555 1_555
C20 Ag1B 1_555 1_555
C21 O1 1_555 1_555
Ag1 N2 1_555 1_555
Ag1 N3 1_555 1_555
C19B C20B 1_555 1_555

#END
