
#######################################################################
#
#                 Cambridge Crystallographic Data Centre
#                                CCDC 
#
#######################################################################
#
# If this CIF has been generated from an entry in the Cambridge 
# Structural Database, then it will include bibliographic, chemical, 
# crystal, experimental, refinement or atomic coordinate data resulting 
# from the CCDC's data processing and validation procedures.
#
#######################################################################

data_NOLWUI
_symmetry_cell_setting           orthorhombic
_symmetry_space_group_name_H-M   'P 21 21 21'
_symmetry_Int_Tables_number      19
_space_group_name_Hall           'P 2ac 2ab'
loop_
_symmetry_equiv_pos_site_id
_symmetry_equiv_pos_as_xyz
1 x,y,z
2 1/2-x,-y,1/2+z
3 -x,1/2+y,1/2-z
4 1/2+x,1/2-y,-z
_cell_length_a                   10.1448(12)
_cell_length_b                   11.9933(14)
_cell_length_c                   13.9849(16)
_cell_angle_alpha                90
_cell_angle_beta                 90
_cell_angle_gamma                90
_cell_volume                     1701.54
loop_
_atom_site_label
_atom_site_type_symbol
_atom_site_fract_x
_atom_site_fract_y
_atom_site_fract_z
Co1 Co 0.80199(5) 0.94960(4) 1.02568(3)
S1 S 0.68831(10) 0.57197(7) 0.71121(6)
O1 O 0.5271(2) 0.8887(2) 1.02443(19)
O2 O 0.6451(2) 1.0444(2) 1.04040(17)
O3 O -0.0619(2) 1.0641(2) 1.06286(18)
O4 O 0.0393(2) 0.91452(19) 1.00847(17)
N1 N 0.7934(3) 0.8883(2) 0.8897(2)
N2 N 0.8072(3) 0.7582(2) 0.7793(2)
N3 N 0.7247(3) 0.3527(3) 0.6753(2)
N4 N 0.6903(3) 0.1880(2) 0.61201(19)
C1 C 0.8364(3) 0.7880(3) 0.8713(2)
H1 H 0.8818 0.7420 0.9158
C2 C 0.7343(3) 0.9268(3) 0.8071(3)
H2 H 0.6952 0.9982 0.7995
C3 C 0.7408(3) 0.8467(3) 0.7382(3)
H3 H 0.7067 0.8508 0.6750
C4 C 0.8256(4) 0.6501(3) 0.7418(2)
C5 C 0.9379(4) 0.5885(3) 0.7394(3)
H4 H 1.0229 0.6182 0.7520
C6 C 0.9144(4) 0.4754(3) 0.7163(2)
H5 H 0.9816 0.4204 0.7125
C7 C 0.7861(3) 0.4545(3) 0.7001(2)
C8 C 0.7744(4) 0.2717(3) 0.6186(2)
H6 H 0.8579 0.2746 0.5880
C9 C 0.6014(4) 0.3196(3) 0.7060(3)
H7 H 0.5431 0.3590 0.7469
C10 C 0.5815(4) 0.2184(3) 0.6649(3)
H8 H 0.5039 0.1748 0.6717
C11 C 0.5358(4) 0.9909(3) 1.0361(3)
C12 C 0.4125(3) 1.0602(3) 1.0470(2)
C13 C 0.4183(4) 1.1743(3) 1.0671(3)
H9 H 0.5015 1.2095 1.0744
C14 C 0.3043(4) 1.2361(3) 1.0763(3)
H10 H 0.3094 1.3139 1.0888
C15 C 0.1812(4) 1.1845(3) 1.0672(3)
H11 H 0.1027 1.2269 1.0739
C16 C 0.1745(3) 1.0716(3) 1.0485(2)
C17 C 0.2897(3) 1.0109(3) 1.0381(2)
H12 H 0.2844 0.9335 1.0244
C18 C 0.0442(3) 1.0123(3) 1.0384(3)
Co1_2 Co -0.19801(5) 0.94960(4) 1.02568(3)
Co1A Co 0.69801(5) 0.05040(4) 0.52568(3)
O3_2 O 0.9381(2) 1.0641(2) 1.06286(18)
O4_2 O 1.0393(2) 0.91452(19) 1.00847(17)
N4A N 0.8097(3) 0.8120(2) 1.11201(19)
loop_
_geom_bond_atom_site_label_1
_geom_bond_atom_site_label_2
_geom_bond_site_symmetry_1
_geom_bond_site_symmetry_2
Co1 O2 1_555 1_555
S1 C4 1_555 1_555
O1 C11 1_555 1_555
O2 C11 1_555 1_555
O3 C18 1_555 1_555
O4 C18 1_555 1_555
N1 Co1 1_555 1_555
N2 C1 1_555 1_555
N3 C7 1_555 1_555
N4 C8 1_555 1_555
C1 N1 1_555 1_555
H1 C1 1_555 1_555
C2 N1 1_555 1_555
H2 C2 1_555 1_555
C3 N2 1_555 1_555
H3 C3 1_555 1_555
C4 N2 1_555 1_555
C5 C4 1_555 1_555
H4 C5 1_555 1_555
C6 C5 1_555 1_555
H5 C6 1_555 1_555
C7 S1 1_555 1_555
C8 N3 1_555 1_555
H6 C8 1_555 1_555
C9 N3 1_555 1_555
H7 C9 1_555 1_555
C10 N4 1_555 1_555
H8 C10 1_555 1_555
C11 C12 1_555 1_555
C12 C13 1_555 1_555
C13 H9 1_555 1_555
C14 C13 1_555 1_555
H10 C14 1_555 1_555
C15 C14 1_555 1_555
H11 C15 1_555 1_555
C16 C15 1_555 1_555
C17 C12 1_555 1_555
H12 C17 1_555 1_555
C18 C16 1_555 1_555
Co1_2 O3 1_555 1_555
Co1A N4 1_555 1_555
O3_2 Co1 1_555 1_555
O4_2 Co1 1_555 1_555
N4A Co1 1_555 1_555
O4 Co1_2 1_555 1_555
C2 C3 1_555 1_555
C6 C7 1_555 1_555
C9 C10 1_555 1_555
C16 C17 1_555 1_555

#END
