
#######################################################################
#
#                 Cambridge Crystallographic Data Centre
#                                CCDC 
#
#######################################################################
#
# If this CIF has been generated from an entry in the Cambridge 
# Structural Database, then it will include bibliographic, chemical, 
# crystal, experimental, refinement or atomic coordinate data resulting 
# from the CCDC's data processing and validation procedures.
#
#######################################################################

data_NOLXET
_symmetry_cell_setting           monoclinic
_symmetry_space_group_name_H-M   'P 21/n'
_symmetry_Int_Tables_number      14
_space_group_name_Hall           '-P 2yn'
loop_
_symmetry_equiv_pos_site_id
_symmetry_equiv_pos_as_xyz
1 x,y,z
2 1/2-x,1/2+y,1/2-z
3 -x,-y,-z
4 1/2+x,1/2-y,1/2+z
_cell_length_a                   7.2709(15)
_cell_length_b                   17.234(3)
_cell_length_c                   16.173(3)
_cell_angle_alpha                90
_cell_angle_beta                 90.215(4)
_cell_angle_gamma                90
_cell_volume                     2026.57
loop_
_atom_site_label
_atom_site_type_symbol
_atom_site_fract_x
_atom_site_fract_y
_atom_site_fract_z
Zn1 Zn 0.85913(12) 0.18282(4) 0.22053(4)
S1 S 0.2960(3) -0.09160(12) 0.30221(12)
O1 O 1.0371(7) 0.1696(3) 0.1310(3)
O2 O 1.2437(7) 0.1041(4) 0.2051(3)
O3 O 1.8769(7) 0.0595(3) -0.0624(3)
O4 O 1.8073(7) 0.0141(3) 0.0641(3)
H1 H 1.8943 -0.0166 0.0545
O5 O 1.4617(9) 0.2454(3) -0.1960(3)
O6 O 1.1731(8) 0.2608(3) -0.1494(3)
N1 N 0.7833(8) 0.0800(3) 0.2641(3)
N2 N 0.6224(9) -0.0161(4) 0.3159(5)
N3 N 0.0522(9) -0.1797(3) 0.3869(3)
N4 N -0.1755(8) -0.2548(3) 0.3455(3)
C1 C 0.6306(10) 0.0586(4) 0.2988(4)
H2 H 0.5334 0.0937 0.3106
C2 C 0.8726(12) 0.0088(5) 0.2457(6)
H3 H 0.9842 0.0035 0.2159
C3 C 0.7715(12) -0.0511(5) 0.2780(6)
H4 H 0.7980 -0.1050 0.2750
C4 C 0.4817(11) -0.0578(4) 0.3570(5)
C5 C 0.4849(10) -0.0813(4) 0.4380(5)
H5 H 0.5789 -0.0683 0.4765
C6 C 0.3294(10) -0.1277(4) 0.4567(4)
H6 H 0.3057 -0.1489 0.5099
C7 C 0.2180(10) -0.1383(4) 0.3899(4)
C8 C -0.0132(11) -0.2238(4) 0.3260(4)
H7 H 0.0480 -0.2322 0.2750
C9 C -0.0761(10) -0.1814(4) 0.4505(4)
H8 H -0.0690 -0.1547 0.5018
C10 C -0.2115(9) -0.2282(4) 0.4246(4)
H9 H -0.3172 -0.2413 0.4560
C11 C 1.1905(10) 0.1351(4) 0.1407(4)
C12 C 1.3118(10) 0.1335(4) 0.0649(4)
C13 C 1.2614(11) 0.1755(4) -0.0054(4)
H10 H 1.1460 0.2013 -0.0072
C14 C 1.3786(11) 0.1798(4) -0.0726(4)
C15 C 1.5446(11) 0.1399(4) -0.0718(4)
H11 H 1.6246 0.1427 -0.1180
C16 C 1.5932(10) 0.0956(4) -0.0026(4)
C17 C 1.4770(10) 0.0933(4) 0.0659(4)
H12 H 1.5112 0.0640 0.1133
C18 C 1.7715(10) 0.0541(4) -0.0018(4)
C19 C 1.3287(13) 0.2322(4) -0.1438(4)
Zn1A Zn -0.35913(12) -0.31718(4) 0.27947(4)
Zn1C Zn 1.35913(12) 0.31718(4) -0.27947(4)
O5C O 0.9617(9) 0.2546(3) 0.3040(3)
N4A N 0.6755(8) 0.2452(3) 0.1545(3)
O7 O 0.3015(13) 0.1629(6) 0.3864(5)
loop_
_geom_bond_atom_site_label_1
_geom_bond_atom_site_label_2
_geom_bond_site_symmetry_1
_geom_bond_site_symmetry_2
Zn1 O1 1_555 1_555
S1 C4 1_555 1_555
O1 C11 1_555 1_555
O2 C11 1_555 1_555
O3 C18 1_555 1_555
O4 H1 1_555 1_555
O5 C19 1_555 1_555
O6 C19 1_555 1_555
N1 Zn1 1_555 1_555
N2 C1 1_555 1_555
N3 C7 1_555 1_555
N4 C8 1_555 1_555
C1 N1 1_555 1_555
H2 C1 1_555 1_555
C2 N1 1_555 1_555
H3 C2 1_555 1_555
C3 N2 1_555 1_555
H4 C3 1_555 1_555
C4 N2 1_555 1_555
C5 C4 1_555 1_555
H5 C5 1_555 1_555
C6 C5 1_555 1_555
H6 C6 1_555 1_555
C7 S1 1_555 1_555
C8 N3 1_555 1_555
H7 C8 1_555 1_555
C9 N3 1_555 1_555
H8 C9 1_555 1_555
C10 N4 1_555 1_555
H9 C10 1_555 1_555
C11 C12 1_555 1_555
C12 C13 1_555 1_555
C13 H10 1_555 1_555
C14 C13 1_555 1_555
C15 C14 1_555 1_555
H11 C15 1_555 1_555
C16 C15 1_555 1_555
C17 C12 1_555 1_555
H12 C17 1_555 1_555
C18 O4 1_555 1_555
C19 C14 1_555 1_555
Zn1A N4 1_555 1_555
Zn1C O5 1_555 1_555
O5C Zn1 1_555 1_555
N4A Zn1 1_555 1_555
C2 C3 1_555 1_555
C6 C7 1_555 1_555
C9 C10 1_555 1_555
C16 C17 1_555 1_555
C16 C18 1_555 1_555

#END
