
#######################################################################
#
#                 Cambridge Crystallographic Data Centre
#                                CCDC 
#
#######################################################################
#
# If this CIF has been generated from an entry in the Cambridge 
# Structural Database, then it will include bibliographic, chemical, 
# crystal, experimental, refinement or atomic coordinate data resulting 
# from the CCDC's data processing and validation procedures.
#
#######################################################################

data_NOLXUJ
_symmetry_cell_setting           triclinic
_symmetry_space_group_name_H-M   'P -1'
_symmetry_Int_Tables_number      2
_space_group_name_Hall           '-P 1'
loop_
_symmetry_equiv_pos_site_id
_symmetry_equiv_pos_as_xyz
1 x,y,z
2 -x,-y,-z
_cell_length_a                   9.611(4)
_cell_length_b                   10.082(5)
_cell_length_c                   18.355(5)
_cell_angle_alpha                80.514(5)
_cell_angle_beta                 85.412(3)
_cell_angle_gamma                82.853(5)
_cell_volume                     1737.4
loop_
_atom_site_label
_atom_site_type_symbol
_atom_site_fract_x
_atom_site_fract_y
_atom_site_fract_z
Mn1 Mn 0.55258(6) 0.07535(6) 0.31990(3)
Mn2 Mn 0.44865(6) 0.51399(5) 0.20598(3)
S1 S 0.99438(10) 0.24070(10) 0.02412(6)
S2 S -0.00463(10) 0.26997(10) 0.49596(5)
O1 O 0.4444(3) 0.1558(3) 0.22294(15)
O2 O 0.4546(3) 0.3504(2) 0.14619(15)
O3 O 0.7607(3) 0.1790(3) -0.14657(15)
O4 O 0.6455(3) 0.3646(3) -0.10881(15)
O5 O 0.5750(3) 0.2208(3) 0.38929(16)
O6 O 0.5721(3) 0.3803(3) 0.29076(15)
O7 O 0.5866(3) 0.8481(3) 0.31348(15)
O8 O 0.6474(3) 0.9112(3) 0.41460(15)
O9 O 0.4208(3) 0.7078(3) 0.24898(17)
H1 H 0.3675 0.7627 0.2233
N1 N 0.7572(3) 0.0801(3) 0.25258(18)
N2 N 0.9234(3) 0.1464(3) 0.16866(18)
N3 N 1.1740(3) 0.3928(3) -0.06429(18)
N4 N 1.3340(4) 0.4470(3) -0.15484(19)
N5 N 0.2491(3) 0.4796(3) 0.27612(18)
N6 N 0.0950(3) 0.3857(3) 0.35833(17)
C1 C 0.8058(4) 0.1842(4) 0.2088(2)
H2 H 0.7639 0.2730 0.2061
C2 C 0.8500(4) -0.0312(4) 0.2390(2)
H3 H 0.8428 -0.1198 0.2618
C3 C 0.9532(4) 0.0080(4) 0.1876(2)
H4 H 1.0282 -0.0470 0.1692
C4 C 1.0063(4) 0.2319(4) 0.1182(2)
C5 C 1.0999(5) 0.3085(4) 0.1351(2)
H5 H 1.1191 0.3144 0.1832
C6 C 1.1662(4) 0.3793(4) 0.0713(2)
H6 H 1.2329 0.4381 0.0725
C7 C 1.1210(4) 0.3511(4) 0.0084(2)
C8 C 1.3077(4) 0.4232(4) -0.0826(2)
H7 H 1.3727 0.4267 -0.0483
C9 C 1.1118(4) 0.3948(4) -0.1298(2)
H8 H 1.0210 0.3764 -0.1351
C10 C 1.2098(4) 0.4292(4) -0.1849(2)
H9 H 1.1963 0.4394 -0.2352
C11 C 0.2188(4) 0.3657(4) 0.3182(2)
H10 H 0.2747 0.2832 0.3201
C12 C 0.1406(4) 0.5775(4) 0.2900(2)
H11 H 0.1344 0.6679 0.2681
C13 C 0.0446(4) 0.5221(4) 0.3405(2)
H12 H -0.0379 0.5661 0.3593
C14 C 0.0188(4) 0.2855(4) 0.4005(2)
C15 C -0.0458(4) 0.1953(4) 0.3731(2)
H13 H -0.0427 0.1894 0.3230
C16 C -0.1187(4) 0.1105(4) 0.4279(2)
H14 H -0.1677 0.0419 0.4184
C17 C -0.1085(4) 0.1413(4) 0.4963(2)
C18 C 0.4793(4) 0.2250(4) 0.1616(2)
C19 C 0.5542(4) 0.1521(4) 0.1017(2)
C20 C 0.5879(4) 0.0120(4) 0.1136(2)
H15 H 0.5628 -0.0384 0.1589
C21 C 0.6592(4) -0.0527(4) 0.0576(2)
H16 H 0.6826 -0.1461 0.0658
C22 C 0.6952(4) 0.0218(4) -0.0100(2)
H17 H 0.7422 -0.0219 -0.0471
C23 C 0.6619(4) 0.1613(4) -0.0229(2)
C24 C 0.5926(4) 0.2261(4) 0.0336(2)
H18 H 0.5718 0.3198 0.0257
C25 C 0.6936(4) 0.2414(4) -0.0983(2)
C26 C 0.5889(4) 0.3393(4) 0.3580(2)
C27 C 0.6289(4) 0.4388(4) 0.4044(2)
C28 C 0.6548(4) 0.4026(4) 0.4785(2)
H19 H 0.6543 0.3129 0.5009
C29 C 0.6813(4) 0.4992(4) 0.5194(2)
H20 H 0.7028 0.4733 0.5686
C30 C 0.6762(4) 0.6358(4) 0.4876(2)
H21 H 0.6918 0.7005 0.5158
C31 C 0.6478(4) 0.6735(4) 0.4141(2)
C32 C 0.6271(4) 0.5748(4) 0.3720(2)
H22 H 0.6120 0.5998 0.3219
C33 C 0.6271(4) 0.8188(4) 0.3794(2)
H23 H 0.473(5) 0.738(5) 0.273(3)
N7 N -0.1789(3) 0.0851(3) 0.56212(17)
C34 C -0.2938(4) 0.0173(4) 0.5661(2)
H24 H -0.3365 0.0007 0.5253
C35 C -0.1486(4) 0.0895(4) 0.6344(2)
H25 H -0.0765 0.1304 0.6495
N8 N -0.3367(3) -0.0219(3) 0.63566(18)
C36 C -0.2447(4) 0.0227(4) 0.6781(2)
H26 H -0.2487 0.0085 0.7296
Mn1_2 Mn 0.55258(6) 1.07535(6) 0.31990(3)
Mn1A Mn -0.55258(6) -0.07535(6) 0.68010(3)
Mn2A Mn 0.55135(6) 0.48601(5) -0.20598(3)
Mn2A_2 Mn 1.55135(6) 0.48601(5) -0.20598(3)
O4A O 0.3545(3) 0.6354(3) 0.10881(15)
O7_2 O 0.5866(3) -0.1519(3) 0.31348(15)
O8_2 O 0.6474(3) -0.0888(3) 0.41460(15)
N4A N 0.6660(4) 0.5530(3) 0.15484(19)
N8A N 0.3367(3) 0.0219(3) 0.36434(18)
loop_
_geom_bond_atom_site_label_1
_geom_bond_atom_site_label_2
_geom_bond_site_symmetry_1
_geom_bond_site_symmetry_2
Mn1 O1 1_555 1_555
Mn2 O2 1_555 1_555
S1 C4 1_555 1_555
S2 C14 1_555 1_555
O1 C18 1_555 1_555
O2 C18 1_555 1_555
O3 C25 1_555 1_555
O4 C25 1_555 1_555
O5 Mn1 1_555 1_555
O6 Mn2 1_555 1_555
O7 C33 1_555 1_555
O8 C33 1_555 1_555
O9 Mn2 1_555 1_555
H1 O9 1_555 1_555
N1 Mn1 1_555 1_555
N2 C1 1_555 1_555
N3 C7 1_555 1_555
N4 C8 1_555 1_555
N5 Mn2 1_555 1_555
N6 C11 1_555 1_555
C1 N1 1_555 1_555
H2 C1 1_555 1_555
C2 N1 1_555 1_555
H3 C2 1_555 1_555
C3 N2 1_555 1_555
H4 C3 1_555 1_555
C4 N2 1_555 1_555
C5 C4 1_555 1_555
H5 C5 1_555 1_555
C6 C5 1_555 1_555
H6 C6 1_555 1_555
C7 S1 1_555 1_555
C8 N3 1_555 1_555
H7 C8 1_555 1_555
C9 N3 1_555 1_555
H8 C9 1_555 1_555
C10 N4 1_555 1_555
H9 C10 1_555 1_555
C11 N5 1_555 1_555
H10 C11 1_555 1_555
C12 N5 1_555 1_555
H11 C12 1_555 1_555
C13 N6 1_555 1_555
H12 C13 1_555 1_555
C14 N6 1_555 1_555
C15 C14 1_555 1_555
H13 C15 1_555 1_555
C16 C15 1_555 1_555
H14 C16 1_555 1_555
C17 S2 1_555 1_555
C18 C19 1_555 1_555
C19 C20 1_555 1_555
C20 H15 1_555 1_555
C21 C20 1_555 1_555
H16 C21 1_555 1_555
C22 C21 1_555 1_555
H17 C22 1_555 1_555
C23 C22 1_555 1_555
C24 C19 1_555 1_555
H18 C24 1_555 1_555
C25 C23 1_555 1_555
C26 O5 1_555 1_555
C27 C26 1_555 1_555
C28 C27 1_555 1_555
H19 C28 1_555 1_555
C29 C28 1_555 1_555
H20 C29 1_555 1_555
C30 C29 1_555 1_555
H21 C30 1_555 1_555
C31 C30 1_555 1_555
C32 C27 1_555 1_555
H22 C32 1_555 1_555
C33 C31 1_555 1_555
H23 O9 1_555 1_555
N7 C17 1_555 1_555
C34 N7 1_555 1_555
H24 C34 1_555 1_555
C35 N7 1_555 1_555
H25 C35 1_555 1_555
N8 C34 1_555 1_555
C36 C35 1_555 1_555
H26 C36 1_555 1_555
Mn1_2 O7 1_555 1_555
Mn1A N8 1_555 1_555
Mn2A O4 1_555 1_555
Mn2A_2 N4 1_555 1_555
O4A Mn2 1_555 1_555
O7_2 Mn1 1_555 1_555
O8_2 Mn1 1_555 1_555
N4A Mn2 1_555 1_555
N8A Mn1 1_555 1_555
O6 C26 1_555 1_555
O8 Mn1_2 1_555 1_555
C2 C3 1_555 1_555
C6 C7 1_555 1_555
C9 C10 1_555 1_555
C12 C13 1_555 1_555
C16 C17 1_555 1_555
C23 C24 1_555 1_555
C31 C32 1_555 1_555
N8 C36 1_555 1_555

#END
