
#######################################################################
#
#                 Cambridge Crystallographic Data Centre
#                                CCDC 
#
#######################################################################
#
# If this CIF has been generated from an entry in the Cambridge 
# Structural Database, then it will include bibliographic, chemical, 
# crystal, experimental, refinement or atomic coordinate data resulting 
# from the CCDC's data processing and validation procedures.
#
#######################################################################

data_NOMPAI
_symmetry_cell_setting           triclinic
_symmetry_space_group_name_H-M   'P -1'
_symmetry_Int_Tables_number      2
_space_group_name_Hall           '-P 1'
loop_
_symmetry_equiv_pos_site_id
_symmetry_equiv_pos_as_xyz
1 x,y,z
2 -x,-y,-z
_cell_length_a                   10.469(10)
_cell_length_b                   10.611(11)
_cell_length_c                   11.429(11)
_cell_angle_alpha                89.177(14)
_cell_angle_beta                 65.827(13)
_cell_angle_gamma                66.661(13)
_cell_volume                     1046.81
loop_
_atom_site_label
_atom_site_type_symbol
_atom_site_fract_x
_atom_site_fract_y
_atom_site_fract_z
Co1 Co 0.10617(6) 0.35243(6) 0.31030(5)
N1 N 0.0803(4) 0.2084(4) 0.4411(3)
O1 O 0.8057(4) -0.4325(3) 0.5914(3)
O2 O 0.8928(4) -0.4855(4) 0.3747(3)
O3 O -0.6675(4) 0.2064(4) 1.1732(3)
O4 O -0.7633(4) 0.4178(4) 1.1300(3)
C1 C 0.7914(5) -0.4165(5) 0.4869(4)
C2 C 0.6385(5) -0.3094(5) 0.4953(4)
C3 C 0.6139(5) -0.2824(5) 0.3844(5)
H1 H 0.6916 -0.3346 0.3035
C4 C 0.4773(5) -0.1802(5) 0.3920(5)
H2 H 0.4647 -0.1636 0.3164
C5 C 0.3575(5) -0.1014(5) 0.5125(4)
C6 C 0.3810(6) -0.1292(5) 0.6237(5)
H3 H 0.3025 -0.0783 0.7048
C7 C 0.5197(5) -0.2317(6) 0.6155(5)
H4 H 0.5329 -0.2483 0.6908
C8 C 0.2096(5) 0.0122(4) 0.5241(4)
C9 C 0.2088(5) 0.1004(5) 0.4329(4)
H5 H 0.3025 0.0837 0.3621
C10 C -0.0562(5) 0.2320(4) 0.5438(4)
H6 H -0.1457 0.3054 0.5491
C11 C -0.0690(5) 0.1519(4) 0.6417(4)
C12 C 0.0661(5) 0.0392(5) 0.6301(4)
H7 H 0.0611 -0.0181 0.6926
C13 C -0.2219(5) 0.1873(4) 0.7576(4)
C14 C -0.3362(5) 0.3269(5) 0.7988(4)
H8 H -0.3174 0.3961 0.7537
C15 C -0.4769(5) 0.3601(5) 0.9073(4)
H9 H -0.5536 0.4511 0.9320
C16 C -0.5047(5) 0.2588(5) 0.9793(4)
C17 C -0.3904(5) 0.1206(5) 0.9389(4)
H10 H -0.4074 0.0521 0.9861
C18 C -0.2519(5) 0.0864(4) 0.8282(4)
H11 H -0.1778 -0.0058 0.8009
C19 C -0.6543(5) 0.2971(5) 1.1015(4)
C20 C 0.0344(10) 0.2856(9) 0.0928(8)
H12 H 0.1077 0.3198 0.0503
C21 C 0.0088(11) 0.2856(10) -0.1094(9)
H13 H -0.0248 0.2323 -0.1474
H14 H 0.1188 0.2541 -0.1574
H15 H -0.0425 0.3825 -0.1123
C22 C -0.1908(11) 0.2929(11) 0.0902(10)
H16 H -0.2364 0.3394 0.1784
H17 H -0.1985 0.2057 0.0900
H18 H -0.2445 0.3504 0.0444
N2 N -0.0298(8) 0.2674(7) 0.0265(7)
O5 O 0.0178(6) 0.2664(6) 0.2037(5)
Co1_2 Co -0.89383(6) 0.35243(6) 1.31030(5)
Co1_3 Co 1.10617(6) -0.64757(6) 0.31030(5)
Co1A Co 0.89383(6) -0.35243(6) 0.68970(5)
O1A O 0.1943(4) 0.4325(3) 0.4086(3)
O2_2 O -0.1072(4) 0.5145(4) 0.3747(3)
O3_2 O 0.3325(4) 0.2064(4) 0.1732(3)
O4_2 O 0.2367(4) 0.4178(4) 0.1300(3)
loop_
_geom_bond_atom_site_label_1
_geom_bond_atom_site_label_2
_geom_bond_site_symmetry_1
_geom_bond_site_symmetry_2
Co1 N1 1_555 1_555
N1 C9 1_555 1_555
O1 C1 1_555 1_555
O2 C1 1_555 1_555
O3 C19 1_555 1_555
O4 C19 1_555 1_555
C1 C2 1_555 1_555
C2 C3 1_555 1_555
C3 H1 1_555 1_555
C4 C3 1_555 1_555
H2 C4 1_555 1_555
C5 C4 1_555 1_555
C6 C5 1_555 1_555
H3 C6 1_555 1_555
C7 C2 1_555 1_555
H4 C7 1_555 1_555
C8 C5 1_555 1_555
C9 C8 1_555 1_555
H5 C9 1_555 1_555
C10 N1 1_555 1_555
H6 C10 1_555 1_555
C11 C10 1_555 1_555
C12 C8 1_555 1_555
H7 C12 1_555 1_555
C13 C11 1_555 1_555
C14 C13 1_555 1_555
H8 C14 1_555 1_555
C15 C14 1_555 1_555
H9 C15 1_555 1_555
C16 C15 1_555 1_555
C17 C16 1_555 1_555
H10 C17 1_555 1_555
C18 C13 1_555 1_555
H11 C18 1_555 1_555
C19 C16 1_555 1_555
C20 H12 1_555 1_555
C21 H13 1_555 1_555
H14 C21 1_555 1_555
H15 C21 1_555 1_555
C22 H16 1_555 1_555
H17 C22 1_555 1_555
H18 C22 1_555 1_555
N2 C20 1_555 1_555
O5 Co1 1_555 1_555
Co1_2 O3 1_555 1_555
Co1_3 O2 1_555 1_555
Co1A O1 1_555 1_555
O1A Co1 1_555 1_555
O2_2 Co1 1_555 1_555
O3_2 Co1 1_555 1_555
O4_2 Co1 1_555 1_555
O4 Co1_2 1_555 1_555
C6 C7 1_555 1_555
C11 C12 1_555 1_555
C17 C18 1_555 1_555
C20 O5 1_555 1_555
C21 N2 1_555 1_555
C22 N2 1_555 1_555

#END
