
#######################################################################
#
#                 Cambridge Crystallographic Data Centre
#                                CCDC 
#
#######################################################################
#
# If this CIF has been generated from an entry in the Cambridge 
# Structural Database, then it will include bibliographic, chemical, 
# crystal, experimental, refinement or atomic coordinate data resulting 
# from the CCDC's data processing and validation procedures.
#
#######################################################################

data_NOMPUC01
_symmetry_cell_setting           triclinic
_symmetry_space_group_name_H-M   'P -1'
_symmetry_Int_Tables_number      2
_space_group_name_Hall           '-P 1'
loop_
_symmetry_equiv_pos_site_id
_symmetry_equiv_pos_as_xyz
1 x,y,z
2 -x,-y,-z
_cell_length_a                   9.6899(8)
_cell_length_b                   10.0639(9)
_cell_length_c                   12.1141(10)
_cell_angle_alpha                72.0730(10)
_cell_angle_beta                 66.8970(10)
_cell_angle_gamma                74.9930(10)
_cell_volume                     1020.88
loop_
_atom_site_label
_atom_site_type_symbol
_atom_site_fract_x
_atom_site_fract_y
_atom_site_fract_z
Mn1 Mn 0.31231(6) 0.45659(5) 0.97378(5)
O1 O 0.3638(3) 0.4134(3) 0.7861(2)
O2 O 0.1588(3) 0.5609(3) 0.8570(2)
O3 O -0.4611(3) 1.3867(3) 0.1160(2)
O4 O 0.1383(3) 0.3207(3) 1.0817(2)
H1 H 0.1449 0.2455 1.1448
H2 H 0.0419 0.3822 1.1013
O5 O -0.5399(3) 1.2726(3) 0.0264(3)
N1 N 0.1760(3) 0.5940(3) 0.1168(2)
C1 C 0.2089(4) 0.5670(4) 0.2202(3)
H3 H 0.2879 0.4946 0.2309
C2 C 0.1315(4) 0.6413(4) 0.3120(3)
C3 C 0.0182(4) 0.7526(4) 0.2909(3)
H4 H -0.0353 0.8060 0.3496
C4 C -0.0162(4) 0.7855(3) 0.1837(3)
C5 C 0.0645(4) 0.7004(4) 0.1011(3)
H5 H 0.0399 0.7182 0.0305
C6 C -0.1336(4) 0.9096(3) 0.1594(3)
C7 C -0.2198(4) 0.9122(4) 0.0898(3)
H6 H -0.2060 0.8346 0.0581
C8 C -0.3257(4) 1.0293(4) 0.0672(3)
H7 H -0.3810 1.0299 0.0193
C9 C -0.3509(4) 1.1454(3) 0.1147(3)
C10 C -0.2680(4) 1.1420(4) 0.1868(3)
H8 H -0.2850 1.2181 0.2212
C11 C -0.1603(4) 1.0262(4) 0.2077(3)
H9 H -0.1045 1.0263 0.2550
C12 C 0.1661(4) 0.6042(4) 0.4285(3)
C13 C 0.0889(6) 0.6775(6) 0.5166(4)
H10 H 0.0152 0.7542 0.5024
C14 C 0.2758(7) 0.4968(6) 0.4530(5)
H11 H 0.3337 0.4434 0.3949
C15 C 0.2500(4) 0.4992(4) 0.7725(3)
C16 C 0.2213(4) 0.5348(4) 0.6526(3)
C17 C 0.3030(7) 0.4653(6) 0.5629(5)
H12 H 0.3812 0.3927 0.5752
C18 C 0.1150(6) 0.6431(6) 0.6276(4)
H13 H 0.0576 0.6963 0.6859
C19 C -0.4585(4) 1.2777(4) 0.0841(3)
Mn1_2 Mn -0.68769(6) 1.45659(5) -0.02622(5)
Mn1_3 Mn 0.31231(6) 0.45659(5) -0.02622(5)
Mn1A Mn -0.31231(6) 1.54341(5) 0.02622(5)
O3A O 0.4611(3) 0.6133(3) 0.8840(2)
O5_2 O 0.4601(3) 0.2726(3) 1.0264(3)
N1_2 N 0.1760(3) 0.5940(3) 1.1168(2)
O6 O 0.8406(6) -0.0828(6) 0.7373(5)
N2 N 0.6663(5) 0.0288(5) 0.6492(5)
C20 C 0.5498(7) 0.1431(7) 0.6311(7)
H14 H 0.5362 0.2079 0.6798
H15 H 0.4566 0.1076 0.6557
H16 H 0.5777 0.1911 0.5454
C21 C 0.7353(8) 0.0108(8) 0.7251(6)
H17 H 0.7021 0.0746 0.7752
C22 C 0.6998(12) -0.0786(13) 0.5846(10)
H18 H 0.7801 -0.0571 0.5072
H19 H 0.6108 -0.0829 0.5700
H20 H 0.7311 -0.1681 0.6331
loop_
_geom_bond_atom_site_label_1
_geom_bond_atom_site_label_2
_geom_bond_site_symmetry_1
_geom_bond_site_symmetry_2
Mn1 O1 1_555 1_555
O1 C15 1_555 1_555
O2 Mn1 1_555 1_555
O3 C19 1_555 1_555
O4 Mn1 1_555 1_555
H1 O4 1_555 1_555
H2 O4 1_555 1_555
O5 C19 1_555 1_555
N1 C1 1_555 1_555
C1 H3 1_555 1_555
C2 C1 1_555 1_555
C3 C2 1_555 1_555
H4 C3 1_555 1_555
C4 C3 1_555 1_555
C5 N1 1_555 1_555
H5 C5 1_555 1_555
C6 C4 1_555 1_555
C7 C6 1_555 1_555
H6 C7 1_555 1_555
C8 C7 1_555 1_555
H7 C8 1_555 1_555
C9 C8 1_555 1_555
C10 C9 1_555 1_555
H8 C10 1_555 1_555
C11 C6 1_555 1_555
H9 C11 1_555 1_555
C12 C2 1_555 1_555
C13 C12 1_555 1_555
H10 C13 1_555 1_555
C14 C12 1_555 1_555
H11 C14 1_555 1_555
C15 O2 1_555 1_555
C16 C15 1_555 1_555
C17 C14 1_555 1_555
H12 C17 1_555 1_555
C18 C13 1_555 1_555
H13 C18 1_555 1_555
C19 C9 1_555 1_555
O6 C21 1_555 1_555
N2 C20 1_555 1_555
C20 H14 1_555 1_555
H15 C20 1_555 1_555
H16 C20 1_555 1_555
C21 N2 1_555 1_555
H17 C21 1_555 1_555
C22 N2 1_555 1_555
H18 C22 1_555 1_555
H19 C22 1_555 1_555
H20 C22 1_555 1_555
Mn1_2 O5 1_555 1_555
Mn1_3 N1 1_555 1_555
Mn1A O3 1_555 1_555
O3A Mn1 1_555 1_555
O5_2 Mn1 1_555 1_555
N1_2 Mn1 1_555 1_555
C4 C5 1_555 1_555
C10 C11 1_555 1_555
C16 C17 1_555 1_555
C16 C18 1_555 1_555

#END
