
#######################################################################
#
#                 Cambridge Crystallographic Data Centre
#                                CCDC 
#
#######################################################################
#
# If this CIF has been generated from an entry in the Cambridge 
# Structural Database, then it will include bibliographic, chemical, 
# crystal, experimental, refinement or atomic coordinate data resulting 
# from the CCDC's data processing and validation procedures.
#
#######################################################################

data_NOMPIQ01
_symmetry_cell_setting           monoclinic
_symmetry_space_group_name_H-M   'C 2/c'
_symmetry_Int_Tables_number      15
_space_group_name_Hall           '-C 2yn'
loop_
_symmetry_equiv_pos_site_id
_symmetry_equiv_pos_as_xyz
1 x,y,z
2 -x,y,1/2-z
3 1/2+x,1/2+y,z
4 1/2-x,1/2+y,1/2-z
5 -x,-y,-z
6 x,-y,1/2+z
7 1/2-x,1/2-y,-z
8 1/2+x,1/2-y,1/2+z
_cell_length_a                   22.448(5)
_cell_length_b                   7.704(5)
_cell_length_c                   22.269(5)
_cell_angle_alpha                90
_cell_angle_beta                 102.116(5)
_cell_angle_gamma                90
_cell_volume                     3765.4
loop_
_atom_site_label
_atom_site_type_symbol
_atom_site_fract_x
_atom_site_fract_y
_atom_site_fract_z
Co1 Co 0.5000 1.0000 0.5000
Co2 Co 0.413197(10) 0.69314(3) 0.409072(11)
C1 C 0.51559(9) 0.7681(3) 0.38507(9)
C2 C 0.57598(9) 0.8031(3) 0.37004(9)
C3 C 0.62753(9) 0.8240(3) 0.41555(9)
H1 H 0.6250 0.8156 0.4566
C4 C 0.68304(9) 0.8577(3) 0.40006(9)
H2 H 0.7179 0.8676 0.4309
C5 C 0.68749(8) 0.8768(2) 0.33906(8)
C6 C 0.63525(9) 0.8563(3) 0.29385(9)
H3 H 0.6372 0.8697 0.2528
C7 C 0.58047(9) 0.8162(3) 0.30911(10)
H4 H 0.5462 0.7977 0.2782
C8 C 0.79116(8) 1.0104(2) 0.36311(8)
H5 H 0.7829 1.0446 0.4006
C9 C 0.74652(8) 0.9194(2) 0.32249(8)
C10 C 0.75947(8) 0.8719(3) 0.26601(8)
H6 H 0.7304 0.8134 0.2372
C11 C 0.81574(8) 0.9120(2) 0.25287(8)
C12 C 0.85703(8) 1.0013(2) 0.29712(9)
H7 H 0.8949 1.0281 0.2889
C13 C 0.89917(9) 0.7452(3) 0.03173(9)
C14 C 0.87540(9) 0.7878(2) 0.08798(9)
C15 C 0.91375(9) 0.7680(3) 0.14488(10)
H8 H 0.9533 0.7279 0.1475
C16 C 0.89374(10) 0.8072(3) 0.19751(10)
H9 H 0.9202 0.7952 0.2355
C17 C 0.83443(8) 0.8646(3) 0.19483(9)
C18 C 0.79568(9) 0.8810(3) 0.13804(9)
H10 H 0.7556 0.9167 0.1354
C19 C 0.81631(9) 0.8445(3) 0.08489(9)
H11 H 0.7902 0.8583 0.0468
C20 C 0.38451(10) 1.0700(3) 0.39390(10)
H12 H 0.3606 1.1583 0.3728
N1 N 0.84524(7) 1.0512(2) 0.35099(7)
O1 O 0.50664(6) 0.79769(17) 0.43888(6)
O2 O 0.47344(6) 0.7051(2) 0.34560(7)
O3 O 0.87035(7) 0.7980(2) -0.01924(7)
O4 O 0.94830(7) 0.6627(2) 0.04029(6)
O5 O 0.42391(7) 1.11671(19) 0.43939(7)
O6 O 0.37307(7) 0.92223(19) 0.37320(7)
O7 O 0.45610(8) 0.4588(2) 0.44494(8)
H13 H 0.4298 0.3777 0.4405
H14 H 0.4838 0.4333 0.4256
Co2D Co 0.586803(10) 1.30686(3) 0.590928(11)
C1D C 0.48441(9) 1.2319(3) 0.61493(9)
C2D C 0.42402(9) 1.1969(3) 0.62996(9)
C3D C 0.37247(9) 1.1760(3) 0.58445(9)
H1D H 0.3750 1.1844 0.5434
C4D C 0.31696(9) 1.1423(3) 0.59994(9)
H2D H 0.2821 1.1324 0.5691
C5D C 0.31251(8) 1.1232(2) 0.66094(8)
C6D C 0.36475(9) 1.1437(3) 0.70615(9)
H3D H 0.3628 1.1303 0.7472
C7D C 0.41953(9) 1.1838(3) 0.69089(10)
H4D H 0.4538 1.2023 0.7218
C8D C 0.20884(8) 0.9896(2) 0.63689(8)
H5D H 0.2171 0.9554 0.5994
C9D C 0.25348(8) 1.0806(2) 0.67751(8)
C10D C 0.24053(8) 1.1281(3) 0.73399(8)
H6D H 0.2696 1.1866 0.7628
C11D C 0.18426(8) 1.0880(2) 0.74713(8)
C12D C 0.14297(8) 0.9987(2) 0.70288(9)
H7D H 0.1051 0.9719 0.7111
C13D C 0.10083(9) 1.2548(3) 0.96827(9)
C14D C 0.12460(9) 1.2122(2) 0.91202(9)
C15D C 0.08625(9) 1.2320(3) 0.85512(10)
H8D H 0.0467 1.2721 0.8525
C16D C 0.10626(10) 1.1928(3) 0.80249(10)
H9D H 0.0798 1.2048 0.7645
C17D C 0.16557(8) 1.1354(3) 0.80517(9)
C18D C 0.20432(9) 1.1190(3) 0.86196(9)
H10D H 0.2444 1.0833 0.8646
C19D C 0.18369(9) 1.1555(3) 0.91511(9)
H11D H 0.2098 1.1417 0.9532
C20D C 0.61549(10) 0.9300(3) 0.60610(10)
H12D H 0.6394 0.8417 0.6272
N1D N 0.15476(7) 0.9488(2) 0.64901(7)
O1D O 0.49336(6) 1.20231(17) 0.56112(6)
O2D O 0.52656(6) 1.2949(2) 0.65440(7)
O3D O 0.12965(7) 1.2020(2) 1.01924(7)
O4D O 0.05170(7) 1.3373(2) 0.95971(6)
O5D O 0.57609(7) 0.88329(19) 0.56061(7)
O6D O 0.62693(7) 1.07777(19) 0.62680(7)
O7D O 0.54390(8) 1.5412(2) 0.55506(8)
H13D H 0.5702 1.6223 0.5595
H14D H 0.5162 1.5667 0.5744
Co1C Co 0.0000 1.5000 1.0000
Co1C_2 Co 1.0000 0.5000 0.0000
Co2B Co 0.913197(10) 1.19314(3) 0.409072(11)
Co2C Co 0.086803(10) 1.19314(3) 1.090928(11)
Co2F Co 0.086803(10) 0.80686(3) 0.590928(11)
Co2G Co 0.913197(10) 0.80686(3) -0.090928(11)
N1B N 0.34524(7) 0.5512(2) 0.35099(7)
N1F N 0.65476(7) 1.4488(2) 0.64901(7)
O3C O 0.62965(7) 1.2980(2) 0.51924(7)
O3G O 0.37035(7) 0.7020(2) 0.48076(7)
O4C O 0.55170(7) 1.1627(2) 0.45971(6)
O4G O 0.44830(7) 0.8373(2) 0.54029(6)
loop_
_geom_bond_atom_site_label_1
_geom_bond_atom_site_label_2
_geom_bond_site_symmetry_1
_geom_bond_site_symmetry_2
Co1 O1 1_555 1_555
Co2 O1 1_555 1_555
C1 C2 1_555 1_555
C2 C3 1_555 1_555
C3 H1 1_555 1_555
C4 C3 1_555 1_555
H2 C4 1_555 1_555
C5 C4 1_555 1_555
C6 C5 1_555 1_555
H3 C6 1_555 1_555
C7 C2 1_555 1_555
H4 C7 1_555 1_555
C8 H5 1_555 1_555
C9 C5 1_555 1_555
C10 C9 1_555 1_555
H6 C10 1_555 1_555
C11 C10 1_555 1_555
C12 C11 1_555 1_555
H7 C12 1_555 1_555
C13 C14 1_555 1_555
C14 C15 1_555 1_555
C15 H8 1_555 1_555
C16 C15 1_555 1_555
H9 C16 1_555 1_555
C17 C11 1_555 1_555
C18 C17 1_555 1_555
H10 C18 1_555 1_555
C19 C14 1_555 1_555
H11 C19 1_555 1_555
C20 H12 1_555 1_555
N1 C8 1_555 1_555
O1 C1 1_555 1_555
O2 Co2 1_555 1_555
O3 C13 1_555 1_555
O4 C13 1_555 1_555
O5 Co1 1_555 1_555
O6 Co2 1_555 1_555
O7 Co2 1_555 1_555
H13 O7 1_555 1_555
H14 O7 1_555 1_555
Co2D O1D 1_555 1_555
C1D C2D 1_555 1_555
C2D C3D 1_555 1_555
C3D H1D 1_555 1_555
C4D C3D 1_555 1_555
H2D C4D 1_555 1_555
C5D C4D 1_555 1_555
C6D C5D 1_555 1_555
H3D C6D 1_555 1_555
C7D C2D 1_555 1_555
H4D C7D 1_555 1_555
C8D H5D 1_555 1_555
C9D C5D 1_555 1_555
C10D C9D 1_555 1_555
H6D C10D 1_555 1_555
C11D C10D 1_555 1_555
C12D C11D 1_555 1_555
H7D C12D 1_555 1_555
C13D C14D 1_555 1_555
C14D C15D 1_555 1_555
C15D H8D 1_555 1_555
C16D C15D 1_555 1_555
H9D C16D 1_555 1_555
C17D C11D 1_555 1_555
C18D C17D 1_555 1_555
H10D C18D 1_555 1_555
C19D C14D 1_555 1_555
H11D C19D 1_555 1_555
C20D H12D 1_555 1_555
N1D C8D 1_555 1_555
O1D Co1 1_555 1_555
O2D Co2D 1_555 1_555
O3D C13D 1_555 1_555
O4D C13D 1_555 1_555
O5D Co1 1_555 1_555
O6D Co2D 1_555 1_555
O7D Co2D 1_555 1_555
H13D O7D 1_555 1_555
H14D O7D 1_555 1_555
Co1C O4D 1_555 1_555
Co1C_2 O4 1_555 1_555
Co2B N1 1_555 1_555
Co2C O3D 1_555 1_555
Co2F N1D 1_555 1_555
Co2G O3 1_555 1_555
N1B Co2 1_555 1_555
N1F Co2D 1_555 1_555
O3C Co2D 1_555 1_555
O3G Co2 1_555 1_555
O4C Co1 1_555 1_555
O4G Co1 1_555 1_555
C1 O2 1_555 1_555
C6 C7 1_555 1_555
C8 C9 1_555 1_555
C12 N1 1_555 1_555
C16 C17 1_555 1_555
C18 C19 1_555 1_555
C20 O5 1_555 1_555
C20 O6 1_555 1_555
C1D O1D 1_555 1_555
C1D O2D 1_555 1_555
C6D C7D 1_555 1_555
C8D C9D 1_555 1_555
C12D N1D 1_555 1_555
C16D C17D 1_555 1_555
C18D C19D 1_555 1_555
C20D O5D 1_555 1_555
C20D O6D 1_555 1_555

#END
