
#######################################################################
#
#                 Cambridge Crystallographic Data Centre
#                                CCDC 
#
#######################################################################
#
# If this CIF has been generated from an entry in the Cambridge 
# Structural Database, then it will include bibliographic, chemical, 
# crystal, experimental, refinement or atomic coordinate data resulting 
# from the CCDC's data processing and validation procedures.
#
#######################################################################

data_NONKOQ
_symmetry_cell_setting           monoclinic
_symmetry_space_group_name_H-M   'P 21/c'
_symmetry_Int_Tables_number      14
_space_group_name_Hall           '-P 2ybc'
loop_
_symmetry_equiv_pos_site_id
_symmetry_equiv_pos_as_xyz
1 x,y,z
2 -x,1/2+y,1/2-z
3 -x,-y,-z
4 x,1/2-y,1/2+z
_cell_length_a                   10.162(2)
_cell_length_b                   20.548(4)
_cell_length_c                   10.552(2)
_cell_angle_alpha                90
_cell_angle_beta                 101.07(2)
_cell_angle_gamma                90
_cell_volume                     2162.35
loop_
_atom_site_label
_atom_site_type_symbol
_atom_site_fract_x
_atom_site_fract_y
_atom_site_fract_z
Zn1 Zn 0.0722(1) 0.0747(1) 0.1492(1)
O1 O 0.1954(4) 0.0785(3) 0.0244(4)
O2 O 0.3416(5) 0.0860(3) 0.2087(5)
O3 O 0.5753(7) 0.1153(5) -0.3818(6)
O4 O 0.3580(6) 0.1137(4) -0.3906(6)
O5 O -0.0998(5) 0.0755(3) 0.0214(4)
O6 O 0.8226(5) 0.0746(4) 0.2039(5)
C1 C 0.4262(7) 0.0856(4) 0.0130(7)
C2 C 0.3994(7) 0.0933(4) -0.1197(7)
C3 C 0.5030(7) 0.0961(4) -0.1889(7)
C4 C 0.6360(7) 0.0884(4) -0.1232(7)
C5 C 0.6643(6) 0.0803(4) 0.0100(6)
C6 C 0.5581(7) 0.0791(5) 0.0771(6)
C7 C 0.3151(8) 0.0832(5) 0.0890(7)
C8 C 0.4685(9) 0.1081(5) -0.3301(8)
C9 C 0.8062(7) 0.0750(5) 0.0852(7)
N1 N 0.0947(6) 0.0016(4) 0.2821(5)
C10 C -0.0038(9) -0.0422(4) 0.2775(8)
C11 C -0.0127(9) -0.0846(5) 0.3746(8)
C12 C 0.0836(9) -0.0816(5) 0.4868(8)
C13 C 0.1858(10) -0.0382(5) 0.4936(8)
C14 C 0.1896(8) 0.0033(4) 0.3900(7)
N2 N 0.0757(8) 0.1651(4) 0.2404(7)
C15 C -0.0218(10) 0.2083(5) 0.1980(9)
C16 C -0.0333(12) 0.2669(5) 0.2571(12)
C17 C 0.0591(15) 0.2832(6) 0.3649(12)
C18 C 0.1581(14) 0.2401(7) 0.4101(11)
C19 C 0.1643(10) 0.1810(5) 0.3472(8)
H1 H 0.5555(81) 0.1183(41) -0.4513(75)
H2 H 0.3081 0.0972 -0.1646
H3 H 0.7079 0.0887 -0.1704
H4 H 0.5769 0.0737 0.1692
H5 H -0.0719 -0.0434 0.2007
H6 H -0.0839 -0.1160 0.3660
H7 H 0.0791 -0.1097 0.5587
H8 H 0.2539 -0.0359 0.5704
H9 H 0.2620 0.0338 0.3947
H10 H -0.0880 0.1966 0.1238
H11 H -0.1044 0.2966 0.2234
H12 H 0.0549 0.3242 0.4077
H13 H 0.2238 0.2500 0.4863
H14 H 0.2337 0.1503 0.3801
O5_2 O 0.9002(5) 0.0755(3) 0.0214(4)
Zn1_2 Zn 1.0722(1) 0.0747(1) 0.1492(1)
O7 O 0.5312(11) 0.1478(6) 0.3768(8)
C20 C 0.5822(19) 0.2052(8) 0.3300(14)
C21 C 0.6764(20) 0.2386(10) 0.4214(24)
H15 H 0.4983(93) 0.1316(46) 0.3468(84)
H16 H 0.5079 0.2347 0.3090
H17 H 0.6128 0.1956 0.2515
loop_
_geom_bond_atom_site_label_1
_geom_bond_atom_site_label_2
_geom_bond_site_symmetry_1
_geom_bond_site_symmetry_2
Zn1 O1 1_555 1_555
O1 C7 1_555 1_555
O2 C7 1_555 1_555
O3 C8 1_555 1_555
O4 C8 1_555 1_555
O5 Zn1 1_555 1_555
O6 C9 1_555 1_555
C1 C2 1_555 1_555
C2 C3 1_555 1_555
C3 C4 1_555 1_555
C4 C5 1_555 1_555
C5 C6 1_555 1_555
C6 C1 1_555 1_555
C7 C1 1_555 1_555
C8 C3 1_555 1_555
C9 C5 1_555 1_555
N1 Zn1 1_555 1_555
C10 N1 1_555 1_555
C11 C10 1_555 1_555
C12 C11 1_555 1_555
C13 C12 1_555 1_555
C14 N1 1_555 1_555
N2 Zn1 1_555 1_555
C15 N2 1_555 1_555
C16 C15 1_555 1_555
C17 C16 1_555 1_555
C18 C17 1_555 1_555
C19 N2 1_555 1_555
O7 C20 1_555 1_555
C20 C21 1_555 1_555
H1 O3 1_555 1_555
H2 C2 1_555 1_555
H3 C4 1_555 1_555
H4 C6 1_555 1_555
H5 C10 1_555 1_555
H6 C11 1_555 1_555
H7 C12 1_555 1_555
H8 C13 1_555 1_555
H9 C14 1_555 1_555
H10 C15 1_555 1_555
H11 C16 1_555 1_555
H12 C17 1_555 1_555
H13 C18 1_555 1_555
H14 C19 1_555 1_555
H15 O7 1_555 1_555
H16 C20 1_555 1_555
H17 C20 1_555 1_555
O5_2 C9 1_555 1_555
Zn1_2 O5_2 1_555 1_555
C13 C14 1_555 1_555
C18 C19 1_555 1_555

#END
