
#######################################################################
#
#                 Cambridge Crystallographic Data Centre
#                                CCDC 
#
#######################################################################
#
# If this CIF has been generated from an entry in the Cambridge 
# Structural Database, then it will include bibliographic, chemical, 
# crystal, experimental, refinement or atomic coordinate data resulting 
# from the CCDC's data processing and validation procedures.
#
#######################################################################

data_NONPIP
_symmetry_cell_setting           orthorhombic
_symmetry_space_group_name_H-M   'P b c a'
_symmetry_Int_Tables_number      61
_space_group_name_Hall           '-P 2ac 2ab'
loop_
_symmetry_equiv_pos_site_id
_symmetry_equiv_pos_as_xyz
1 x,y,z
2 1/2-x,-y,1/2+z
3 1/2+x,1/2-y,-z
4 -x,1/2+y,1/2-z
5 -x,-y,-z
6 1/2+x,y,1/2-z
7 1/2-x,1/2+y,z
8 x,1/2-y,1/2+z
_cell_length_a                   11.667(2)
_cell_length_b                   16.144(2)
_cell_length_c                   24.531(3)
_cell_angle_alpha                90
_cell_angle_beta                 90
_cell_angle_gamma                90
_cell_volume                     4620.46
loop_
_atom_site_label
_atom_site_type_symbol
_atom_site_fract_x
_atom_site_fract_y
_atom_site_fract_z
O2 O 0.566(3) 0.912(2) -0.0011(16)
C21 C 0.485(3) 0.9659(17) -0.0136(12)
C22 C 0.506(3) 0.9595(19) 0.0379(11)
H29 H 0.613(3) 0.909(2) -0.0270(16)
C21D C 0.515(3) 1.0341(17) 0.0136(12)
O2D O 0.434(3) 1.088(2) 0.0011(16)
C22D C 0.494(3) 1.0405(19) -0.0379(11)
H29D H 0.387(3) 1.091(2) 0.0270(16)
Cl2 Cl 0.5724(2) 0.32329(15) 0.11071(9)
Cu1 Cu 1.07844(7) 0.12506(6) 0.06136(4)
Cl1 Cl 1.1705(2) 0.03693(14) 0.00364(9)
O1 O 0.9740(5) 0.0252(4) 0.1081(2)
N1 N 0.9538(5) 0.1429(4) 0.0066(3)
N2 N 0.8866(5) 0.3123(5) -0.1261(3)
N3 N 0.7194(5) 0.3621(4) -0.1041(2)
N4 N 0.8275(5) 0.2771(5) 0.1098(3)
N5 N 0.9904(5) 0.2099(4) 0.1021(3)
C1 C 0.8757(10) 0.2109(9) 0.0195(5)
C3 C 0.7639(9) 0.2215(6) -0.0670(3)
C4 C 0.7878(6) 0.2987(5) -0.0994(3)
C5 C 0.7768(7) 0.4206(6) -0.1343(3)
C6 C 0.8841(7) 0.3887(6) -0.1491(3)
C7 C 0.9626(8) 0.4351(8) -0.1791(4)
C8 C 0.9311(10) 0.5156(8) -0.1927(4)
C9 C 0.8260(9) 0.5465(7) -0.1774(4)
C10 C 0.7458(8) 0.5012(6) -0.1489(4)
C11 C 0.8974(7) 0.2340(6) 0.0778(4)
C12 C 0.9837(6) 0.2422(5) 0.1554(3)
C13 C 0.8800(7) 0.2835(6) 0.1600(3)
C14 C 0.8447(7) 0.3183(5) 0.2090(4)
C15 C 0.9194(8) 0.3111(6) 0.2521(3)
C16 C 1.0221(8) 0.2693(5) 0.2472(4)
C17 C 1.0561(6) 0.2343(5) 0.1991(3)
C18 C 0.9284(9) 0.0252(6) 0.1622(4)
C19 C 0.8064(9) 0.0452(8) 0.1638(4)
C20 C 0.8329(14) 0.2600(11) -0.0087(6)
H1 H 0.948(7) -0.016(4) 0.0909(13)
H2 H 0.9119(5) 0.0948(4) 0.0035(3)
H4 H 0.7285(11) 0.2667(9) 0.0070(5)
H8 H 0.9869(5) 0.1531(4) -0.0268(3)
H9 H 1.0346(8) 0.4128(8) -0.1897(4)
H10 H 0.9825(10) 0.5495(8) -0.2127(4)
H11 H 0.8078(9) 0.6020(7) -0.1870(4)
H12 H 0.6731(8) 0.5236(6) -0.1397(4)
H13 H 0.7604(5) 0.2977(5) 0.1007(3)
H14 H 0.7730(7) 0.3457(5) 0.2125(4)
H15 H 0.8998(8) 0.3354(6) 0.2861(3)
H16 H 1.0707(8) 0.2647(5) 0.2781(4)
H17 H 1.1270(6) 0.2058(5) 0.1961(3)
H18 H 0.9709(9) 0.0660(6) 0.1845(4)
H19 H 0.9404(9) -0.0302(6) 0.1787(4)
H20 H 0.7796(9) 0.0443(8) 0.2017(4)
H21 H 0.7636(9) 0.0043(8) 0.1425(4)
H22 H 0.7942(9) 0.1005(8) 0.1484(4)
H23 H 0.9440(5) 0.2772(5) -0.1283(3)
H25 H 0.8926(14) 0.2998(11) -0.0205(6)
H27 H 0.8016(9) 0.1716(6) -0.0823(3)
H28 H 0.6811(9) 0.2112(6) -0.0614(3)
N3B N 1.2194(5) 0.1379(4) 0.1041(2)
Cu1B Cu 0.57844(7) 0.37494(6) -0.06136(4)
C2? C 0.7677(11) 0.2169(9) -0.0073(5)
O3? O 0.408(3) 0.923(2) 0.0159(14)
H3? H 0.9170(10) 0.2574(9) 0.0010(5)
H5? H 0.7215(11) 0.1684(9) 0.0039(5)
H6? H 0.6864(9) 0.2028(6) -0.0779(3)
H7? H 0.8181(9) 0.1789(6) -0.0806(3)
H24? H 0.8059(10) 0.1764(9) 0.0260(5)
H26? H 0.7760(14) 0.2913(11) 0.0131(6)
H30? H 0.528(3) 1.0802(19) -0.0125(11)
H31? H 0.342(3) 0.932(2) 0.0037(14)
H32? H 0.507(3) 1.0831(19) -0.0103(11)
H33? H 0.430(3) 0.9344(17) -0.0365(12)
H34? H 0.445(3) 0.9768(17) 0.0211(12)
H35? H 0.554(3) 0.9645(17) 0.0099(12)
H36? H 0.502(3) 0.9272(17) -0.0439(12)
H37? H 0.417(3) 1.0598(19) -0.0487(11)
H38? H 0.542(3) 1.0357(19) -0.0704(11)
H39? H 0.558(3) 1.0397(19) -0.0638(11)
H40? H 0.422(3) 1.0528(19) -0.0575(11)
loop_
_geom_bond_atom_site_label_1
_geom_bond_atom_site_label_2
_geom_bond_site_symmetry_1
_geom_bond_site_symmetry_2
Cu1 Cl1 1_555 1_555
O1 Cu1 1_555 1_555
N1 Cu1 1_555 1_555
N2 C4 1_555 1_555
N3 C4 1_555 1_555
N4 C11 1_555 1_555
N5 Cu1 1_555 1_555
C1 N1 1_555 1_555
C3 C4 1_555 1_555
C5 N3 1_555 1_555
C6 N2 1_555 1_555
C7 C6 1_555 1_555
C8 C7 1_555 1_555
C9 C8 1_555 1_555
C10 C5 1_555 1_555
C11 N5 1_555 1_555
C12 N5 1_555 1_555
C13 N4 1_555 1_555
C14 C13 1_555 1_555
C15 C14 1_555 1_555
C16 C15 1_555 1_555
C17 C12 1_555 1_555
C18 O1 1_555 1_555
C19 C18 1_555 1_555
C20 C1 1_555 1_555
O2 C21 1_555 1_555
C21 C22 1_555 1_555
C22 O2 1_555 1_555
H1 O1 1_555 1_555
H2 N1 1_555 1_555
H4 C20 1_555 1_555
H8 N1 1_555 1_555
H9 C7 1_555 1_555
H10 C8 1_555 1_555
H11 C9 1_555 1_555
H12 C10 1_555 1_555
H13 N4 1_555 1_555
H14 C14 1_555 1_555
H15 C15 1_555 1_555
H16 C16 1_555 1_555
H17 C17 1_555 1_555
H18 C18 1_555 1_555
H19 C18 1_555 1_555
H20 C19 1_555 1_555
H21 C19 1_555 1_555
H22 C19 1_555 1_555
H23 N2 1_555 1_555
H25 C20 1_555 1_555
H27 C3 1_555 1_555
H28 C3 1_555 1_555
H29 O2 1_555 1_555
C21D C21 1_555 1_555
O2D C21D 1_555 1_555
C22D C21 1_555 1_555
H29D O2D 1_555 1_555
N3B Cu1 1_555 1_555
Cu1B N3 1_555 1_555
C1 C11 1_555 1_555
C3 C20 1_555 1_555
C5 C6 1_555 1_555
C9 C10 1_555 1_555
C12 C13 1_555 1_555
C16 C17 1_555 1_555
C22 C21D 1_555 1_555
C21D C22D 1_555 1_555
O2D C22D 1_555 1_555

#END
