
#######################################################################
#
#                 Cambridge Crystallographic Data Centre
#                                CCDC 
#
#######################################################################
#
# If this CIF has been generated from an entry in the Cambridge 
# Structural Database, then it will include bibliographic, chemical, 
# crystal, experimental, refinement or atomic coordinate data resulting 
# from the CCDC's data processing and validation procedures.
#
#######################################################################

data_NONXUK
_symmetry_cell_setting           rhombohedral
_symmetry_space_group_name_H-M   'R -3'
_symmetry_Int_Tables_number      148
_space_group_name_Hall           '-R 3'
loop_
_symmetry_equiv_pos_site_id
_symmetry_equiv_pos_as_xyz
1 x,y,z
2 -y,x-y,z
3 -x+y,-x,z
4 2/3+x,1/3+y,1/3+z
5 2/3-y,1/3+x-y,1/3+z
6 2/3-x+y,1/3-x,1/3+z
7 1/3+x,2/3+y,2/3+z
8 1/3-y,2/3+x-y,2/3+z
9 1/3-x+y,2/3-x,2/3+z
10 -x,-y,-z
11 y,-x+y,-z
12 x-y,x,-z
13 1/3-x,2/3-y,2/3-z
14 1/3+y,2/3-x+y,2/3-z
15 1/3+x-y,2/3+x,2/3-z
16 2/3-x,1/3-y,1/3-z
17 2/3+y,1/3-x+y,1/3-z
18 2/3+x-y,1/3+x,1/3-z
_cell_length_a                   18.470(3)
_cell_length_b                   18.470(3)
_cell_length_c                   12.583(3)
_cell_angle_alpha                90
_cell_angle_beta                 90
_cell_angle_gamma                120
_cell_volume                     3717.48
loop_
_atom_site_label
_atom_site_type_symbol
_atom_site_fract_x
_atom_site_fract_y
_atom_site_fract_z
Pb1 Pb 0.86486(3) 0.06553(3) 0.61867(4)
O1 O 0.7761(7) 0.1054(6) 0.7231(9)
O2 O 0.7091(9) 0.0976(9) 0.8696(11)
O3 O 0.8745(7) -0.0717(7) 0.6390(10)
O4 O 0.8708(7) -0.1641(7) 0.7586(9)
N1 N 0.7946(6) -0.0237(6) 0.7766(8)
C1 C 0.7429(8) 0.0717(8) 0.8065(14)
C2 C 0.7487(8) -0.0033(8) 0.8401(11)
C3 C 0.7106(9) -0.0481(10) 0.9293(12)
H1 H 0.6773 -0.0341 0.9699
C4 C 0.7209(11) -0.1148(10) 0.9605(14)
H2 H 0.6961 -0.1451 1.0219
C5 C 0.7696(10) -0.1340(10) 0.8962(13)
H3 H 0.7789 -0.1774 0.9148
C6 C 0.8052(9) -0.0880(8) 0.8025(13)
C7 C 0.8548(9) -0.1082(9) 0.7271(13)
Pb1H Pb 0.53400(4) -0.19819(3) 0.28534(4)
Pb1B Pb 1.20067(4) 0.13514(3) 0.61867(4)
Pb1D Pb 0.60114(3) 0.13266(4) 0.95200(4)
Pb1C Pb 1.53153(3) 0.39886(3) 0.95200(4)
Pb1A Pb 0.93447(3) -0.20067(4) 0.61867(4)
Pb1F Pb 0.19819(3) -0.26780(3) 0.28534(4)
Pb1D_2 Pb 0.60114(3) 0.13266(4) -0.04800(4)
Pb1E Pb 0.86734(4) 0.46847(3) -0.04800(4)
Pb1G Pb 0.26780(3) -0.53400(4) 0.28534(4)
Pb1B_2 Pb 0.20067(4) -0.86486(3) 0.61867(4)
Pb1G_2 Pb 1.26780(3) 0.46600(4) 0.28534(4)
Pb1H_2 Pb 1.53400(4) 0.80181(3) 0.28534(4)
O1H O 0.6626(9) -0.1094(7) 0.3898(9)
O1B O 1.3293(9) 0.2239(7) 0.7231(9)
O1D O 0.5613(6) 0.0040(9) 0.0564(9)
O1G O 0.2279(6) -0.6626(9) 0.3898(9)
O1G_2 O 1.2279(6) 0.3374(9) 0.3898(9)
O1D_2 O 0.5613(6) 0.0040(9) 1.0564(9)
O1C O 1.4428(7) 0.4387(6) 1.0564(9)
O1A O 0.8946(6) -0.3293(9) 0.7231(9)
O2H O 0.7218(13) -0.0424(9) 0.5363(11)
O2B O 1.3885(13) 0.2909(9) 0.8696(11)
O2D O 0.5691(9) -0.0552(13) 0.2029(11)
O2G O 0.2357(9) -0.7218(13) 0.5363(11)
O2G_2 O 1.2357(9) 0.2782(13) 0.5363(11)
O2F O 1.0424(9) -0.2357(9) 0.5363(11)
O3H O 0.3871(10) -0.2078(7) 0.3057(10)
O3B O 1.0538(10) 0.1255(7) 0.6390(10)
O3D O 0.7384(7) 0.2795(10) -0.0277(10)
O3G O 0.4050(7) -0.3871(10) 0.3057(10)
O3G_2 O 1.4050(7) 0.6129(10) 0.3057(10)
O3D_2 O 0.7384(7) 0.2795(10) 0.9723(10)
O3C O 1.5412(7) 0.2616(7) 0.9723(10)
O3A O 1.0717(7) -0.0538(10) 0.6390(10)
O4H O 0.2984(10) -0.2041(7) 0.4253(9)
O4B O 0.9651(10) 0.1292(7) 0.7586(9)
O4D O 0.8308(7) 0.3682(10) 0.0919(9)
O4G O 0.4974(7) -0.2984(10) 0.4253(9)
O4G_2 O 1.4974(7) 0.7016(10) 0.4253(9)
O4A O 1.1641(7) 0.0349(10) 0.7586(9)
O4C O 0.5375(7) 0.1692(7) 1.0919(9)
O4E O 1.6318(10) 0.4625(7) 1.0919(9)
N1H N 0.5150(8) -0.1279(6) 0.4433(8)
N1B N 1.1817(8) 0.2054(6) 0.7766(8)
N1D N 0.6904(6) 0.1516(8) 0.1099(8)
N1G N 0.3570(6) -0.5150(8) 0.4433(8)
N1G_2 N 1.3570(6) 0.4850(8) 0.4433(8)
N1D_2 N 0.6904(6) 0.1516(8) 1.1099(8)
N1C N 1.4613(6) 0.3096(6) 1.1099(8)
N1A N 1.0237(6) -0.1817(8) 0.7766(8)
C1H C 0.6621(11) -0.0762(8) 0.4732(14)
C1B C 1.3288(11) 0.2571(8) 0.8065(14)
C1D C 0.5950(8) 0.0045(11) 0.1398(14)
C1G C 0.2616(8) -0.6621(11) 0.4732(14)
C1G_2 C 1.2616(8) 0.3379(11) 0.4732(14)
C2H C 0.5813(11) -0.0820(8) 0.5068(11)
C2B C 1.2480(11) 0.2513(8) 0.8401(11)
C2D C 0.6700(8) 0.0853(11) 0.1734(11)
C2G C 0.3366(8) -0.5813(11) 0.5068(11)
C2G_2 C 1.3366(8) 0.4187(11) 0.5068(11)
C3H C 0.5746(13) -0.0439(9) 0.5960(12)
C3B C 1.2413(13) 0.2894(9) 0.9293(12)
C3D C 0.7148(10) 0.0920(13) 0.2626(12)
C3G C 0.3814(10) -0.5746(13) 0.5960(12)
C3G_2 C 1.3814(10) 0.4254(13) 0.5960(12)
H1H H 0.6219 -0.0106 0.6366
H1B H 1.2886 0.3227 0.9699
H1D H 0.7008 0.0447 0.3032
H1G H 0.3674 -0.6219 0.6366
H1G_2 H 1.3674 0.3781 0.6366
C4H C 0.4976(15) -0.0542(11) 0.6272(14)
C4B C 1.1643(15) 0.2791(11) 0.9605(14)
C4D C 0.7815(10) 0.1690(15) 0.2938(14)
C4G C 0.4481(10) -0.4976(15) 0.6272(14)
C4G_2 C 1.4481(10) 0.5024(15) 0.6272(14)
H2H H 0.4921 -0.0294 0.6886
H2B H 1.1588 0.3039 1.0219
H2D H 0.8118 0.1745 0.3552
H2G H 0.4784 -0.4921 0.6886
H2G_2 H 1.4784 0.5079 0.6886
C5H C 0.4297(14) -0.1029(10) 0.5629(13)
C5B C 1.0964(14) 0.2304(10) 0.8962(13)
C5D C 0.8007(10) 0.2369(14) 0.2295(13)
C5G C 0.4673(10) -0.4297(14) 0.5629(13)
C5G_2 C 1.4673(10) 0.5703(14) 0.5629(13)
H3H H 0.3770 -0.1122 0.5815
H3B H 1.0437 0.2211 0.9148
H3D H 0.8441 0.2896 0.2481
H3G H 0.5107 -0.3770 0.5815
H3G_2 H 1.5107 0.6230 0.5815
C6H C 0.4401(12) -0.1385(9) 0.4692(13)
C6B C 1.1068(12) 0.1948(9) 0.8025(13)
C6D C 0.7547(8) 0.2265(12) 0.1358(13)
C6G C 0.4213(8) -0.4401(12) 0.4692(13)
C6G_2 C 1.4213(8) 0.5599(12) 0.4692(13)
C7H C 0.3703(13) -0.1881(9) 0.3938(13)
C7B C 1.0370(13) 0.1452(9) 0.7271(13)
C7D C 0.7749(9) 0.2963(13) 0.0604(13)
C7G C 0.4415(9) -0.3703(13) 0.3938(13)
C7G_2 C 1.4415(9) 0.6297(13) 0.3938(13)
O5 O 1.0000 0.0000 0.5000
O6? O 1.0000 0.0000 1.040(9)
loop_
_geom_bond_atom_site_label_1
_geom_bond_atom_site_label_2
_geom_bond_site_symmetry_1
_geom_bond_site_symmetry_2
Pb1 O1 1_555 1_555
O1 C1 1_555 1_555
O2 C1 1_555 1_555
O3 Pb1 1_555 1_555
O4 C7 1_555 1_555
N1 Pb1 1_555 1_555
C1 C2 1_555 1_555
C2 N1 1_555 1_555
C3 C2 1_555 1_555
H1 C3 1_555 1_555
C4 C3 1_555 1_555
H2 C4 1_555 1_555
C5 C4 1_555 1_555
H3 C5 1_555 1_555
C6 N1 1_555 1_555
C7 O3 1_555 1_555
Pb1H O1H 1_555 1_555
Pb1B O1B 1_555 1_555
Pb1D O2 1_555 1_555
Pb1C O1C 1_555 1_555
Pb1A O4 1_555 1_555
Pb1F O4H 1_555 1_555
Pb1D_2 O1D 1_555 1_555
Pb1E O4D 1_555 1_555
Pb1G O1G 1_555 1_555
Pb1B_2 O2G 1_555 1_555
Pb1G_2 O1G_2 1_555 1_555
Pb1H_2 O4G_2 1_555 1_555
O1H C1H 1_555 1_555
O1B C1B 1_555 1_555
O1D C1D 1_555 1_555
O1G C1G 1_555 1_555
O1G_2 C1G_2 1_555 1_555
O1D_2 Pb1D 1_555 1_555
O1A Pb1A 1_555 1_555
O2H Pb1 1_555 1_555
O2B Pb1C 1_555 1_555
O2D Pb1H 1_555 1_555
O2G C1G 1_555 1_555
O2G_2 Pb1B 1_555 1_555
O2F Pb1A 1_555 1_555
O3H Pb1H 1_555 1_555
O3B Pb1B 1_555 1_555
O3D Pb1D_2 1_555 1_555
O3G Pb1G 1_555 1_555
O3G_2 Pb1G_2 1_555 1_555
O3D_2 Pb1D 1_555 1_555
O3C Pb1C 1_555 1_555
O3A Pb1A 1_555 1_555
O4H C7H 1_555 1_555
O4B Pb1 1_555 1_555
O4D C7D 1_555 1_555
O4G Pb1H 1_555 1_555
O4G_2 C7G_2 1_555 1_555
O4A Pb1B 1_555 1_555
O4C Pb1D 1_555 1_555
O4E Pb1C 1_555 1_555
N1H Pb1H 1_555 1_555
N1B Pb1B 1_555 1_555
N1D Pb1D_2 1_555 1_555
N1G Pb1G 1_555 1_555
N1G_2 Pb1G_2 1_555 1_555
N1D_2 Pb1D 1_555 1_555
N1C Pb1C 1_555 1_555
N1A Pb1A 1_555 1_555
C1H O2H 1_555 1_555
C1B O2B 1_555 1_555
C1D O2D 1_555 1_555
C1G C2G 1_555 1_555
C1G_2 O2G_2 1_555 1_555
C2H N1H 1_555 1_555
C2B N1B 1_555 1_555
C2D N1D 1_555 1_555
C2G N1G 1_555 1_555
C2G_2 N1G_2 1_555 1_555
C3H C2H 1_555 1_555
C3B C2B 1_555 1_555
C3D C2D 1_555 1_555
C3G C2G 1_555 1_555
C3G_2 C2G_2 1_555 1_555
H1H C3H 1_555 1_555
H1B C3B 1_555 1_555
H1D C3D 1_555 1_555
H1G C3G 1_555 1_555
H1G_2 C3G_2 1_555 1_555
C4H C3H 1_555 1_555
C4B C3B 1_555 1_555
C4D C3D 1_555 1_555
C4G C3G 1_555 1_555
C4G_2 C3G_2 1_555 1_555
H2H C4H 1_555 1_555
H2B C4B 1_555 1_555
H2D C4D 1_555 1_555
H2G C4G 1_555 1_555
H2G_2 C4G_2 1_555 1_555
C5H C4H 1_555 1_555
C5B C4B 1_555 1_555
C5D C4D 1_555 1_555
C5G C4G 1_555 1_555
C5G_2 C4G_2 1_555 1_555
H3H C5H 1_555 1_555
H3B C5B 1_555 1_555
H3D C5D 1_555 1_555
H3G C5G 1_555 1_555
H3G_2 C5G_2 1_555 1_555
C6H N1H 1_555 1_555
C6B N1B 1_555 1_555
C6D N1D 1_555 1_555
C6G N1G 1_555 1_555
C6G_2 N1G_2 1_555 1_555
C7H O3H 1_555 1_555
C7B O3B 1_555 1_555
C7D O3D 1_555 1_555
C7G O3G 1_555 1_555
C7G_2 O3G_2 1_555 1_555
C5 C6 1_555 1_555
C6 C7 1_555 1_555
O4B C7B 1_555 1_555
O4G C7G 1_555 1_555
C1H C2H 1_555 1_555
C1B C2B 1_555 1_555
C1D C2D 1_555 1_555
C1G_2 C2G_2 1_555 1_555
C5H C6H 1_555 1_555
C5B C6B 1_555 1_555
C5D C6D 1_555 1_555
C5G C6G 1_555 1_555
C5G_2 C6G_2 1_555 1_555
C6H C7H 1_555 1_555
C6B C7B 1_555 1_555
C6D C7D 1_555 1_555
C6G C7G 1_555 1_555
C6G_2 C7G_2 1_555 1_555

#END
