
#######################################################################
#
#                 Cambridge Crystallographic Data Centre
#                                CCDC 
#
#######################################################################
#
# If this CIF has been generated from an entry in the Cambridge 
# Structural Database, then it will include bibliographic, chemical, 
# crystal, experimental, refinement or atomic coordinate data resulting 
# from the CCDC's data processing and validation procedures.
#
#######################################################################

data_NOPCEB
_symmetry_cell_setting           triclinic
_symmetry_space_group_name_H-M   'P -1'
_symmetry_Int_Tables_number      2
_space_group_name_Hall           '-P 1'
loop_
_symmetry_equiv_pos_site_id
_symmetry_equiv_pos_as_xyz
1 x,y,z
2 -x,-y,-z
_cell_length_a                   6.794(4)
_cell_length_b                   9.885(6)
_cell_length_c                   9.947(6)
_cell_angle_alpha                64.170(6)
_cell_angle_beta                 84.190(8)
_cell_angle_gamma                85.319(8)
_cell_volume                     597.672
loop_
_atom_site_label
_atom_site_type_symbol
_atom_site_fract_x
_atom_site_fract_y
_atom_site_fract_z
C1 C 0.3099(12) -0.0329(9) -0.2637(9)
H1 H 0.4012 -0.1140 -0.2373
C2 C 0.1927(13) -0.0038(9) -0.3774(10)
H2 H 0.2027 -0.0689 -0.4230
C3 C 0.0527(9) 0.1967(7) -0.3525(7)
C4 C 0.1657(10) 0.1671(8) -0.2322(7)
H3 H 0.1484 0.2284 -0.1824
C5 C -0.3835(11) 0.3259(10) -0.4938(9)
H4 H -0.4485 0.2885 -0.3987
C6 C -0.1851(10) 0.3491(8) -0.5159(8)
C7 C -0.0938(10) 0.4060(8) -0.6570(8)
H5 H 0.0410 0.4225 -0.6687
C8 C -0.3840(10) 0.4165(9) -0.7598(8)
H6 H -0.4540 0.4390 -0.8431
C9 C -0.4832(10) 0.3612(10) -0.6210(9)
H7 H -0.6185 0.3472 -0.6118
Mn1 Mn 0.5000 0.0000 0.0000
Mn2 Mn 0.0000 0.5000 0.0000
N1 N 0.2547(9) 0.0691(7) 0.1264(8)
N2 N 0.2280(8) 0.1883(7) 0.1230(6)
N3 N 0.2012(10) 0.3072(8) 0.1236(8)
N4 N -0.1904(8) 0.4391(6) -0.7795(6)
N5 N 0.0652(10) 0.1129(7) -0.4259(7)
N6 N 0.2966(9) 0.0531(6) -0.1887(6)
N7 N 0.4118(9) -0.2333(7) 0.1056(7)
N8 N 0.2891(8) -0.2950(6) 0.0836(6)
N9 N 0.1664(11) -0.3600(8) 0.0652(8)
O1 O -0.0768(7) 0.3192(6) -0.3931(5)
C1A C 0.6901(12) 0.0329(9) 0.2637(9)
H1A H 0.5988 0.1140 0.2373
C2A C 0.8073(13) 0.0038(9) 0.3774(10)
H2A H 0.7973 0.0689 0.4230
C3A C 0.9473(9) -0.1967(7) 0.3525(7)
C4A C 0.8343(10) -0.1671(8) 0.2322(7)
H3A H 0.8516 -0.2284 0.1824
C5A C 1.3835(11) -0.3259(10) 0.4938(9)
H4A H 1.4485 -0.2885 0.3987
C6A C 1.1851(10) -0.3491(8) 0.5159(8)
C7A C 1.0938(10) -0.4060(8) 0.6570(8)
H5A H 0.9590 -0.4225 0.6687
C8A C 1.3840(10) -0.4165(9) 0.7598(8)
H6A H 1.4540 -0.4390 0.8431
C9A C 1.4832(10) -0.3612(10) 0.6210(9)
H7A H 1.6185 -0.3472 0.6118
Mn2_2 Mn 0.0000 -0.5000 0.0000
Mn2_3 Mn 1.0000 -0.5000 0.0000
Mn2_4 Mn 1.0000 0.5000 0.0000
Mn2_5 Mn 0.0000 0.5000 -1.0000
Mn2_6 Mn 1.0000 -0.5000 1.0000
N1A N 0.7453(9) -0.0691(7) -0.1264(8)
N2A N 0.7720(8) -0.1883(7) -0.1230(6)
N3A N -0.2012(10) 0.6928(8) -0.1236(8)
N3A_2 N 0.7988(10) -0.3072(8) -0.1236(8)
N4A N 0.1904(8) 0.5609(6) -0.2205(6)
N4_2 N -0.1904(8) 0.4391(6) 0.2205(6)
N4A_2 N 1.1904(8) -0.4391(6) 0.7795(6)
N5A N 0.9348(10) -0.1129(7) 0.4259(7)
N6A N 0.7034(9) -0.0531(6) 0.1887(6)
N7A N 0.5882(9) 0.2333(7) -0.1056(7)
N8A N 0.7109(8) 0.2950(6) -0.0836(6)
N9A N -0.1664(11) 0.3600(8) -0.0652(8)
N9_2 N 0.1664(11) 0.6400(8) 0.0652(8)
N9A_2 N 0.8336(11) 0.3600(8) -0.0652(8)
O1A O 1.0768(7) -0.3192(6) 0.3931(5)
loop_
_geom_bond_atom_site_label_1
_geom_bond_atom_site_label_2
_geom_bond_site_symmetry_1
_geom_bond_site_symmetry_2
C1 H1 1_555 1_555
C2 C1 1_555 1_555
H2 C2 1_555 1_555
C3 C4 1_555 1_555
C4 H3 1_555 1_555
C5 H4 1_555 1_555
C6 C5 1_555 1_555
C7 C6 1_555 1_555
H5 C7 1_555 1_555
C8 H6 1_555 1_555
C9 C5 1_555 1_555
H7 C9 1_555 1_555
Mn1 N1 1_555 1_555
Mn2 N3 1_555 1_555
N1 N2 1_555 1_555
N2 N3 1_555 1_555
N4 C7 1_555 1_555
N5 C2 1_555 1_555
N6 C1 1_555 1_555
N7 Mn1 1_555 1_555
N8 N7 1_555 1_555
N9 N8 1_555 1_555
O1 C3 1_555 1_555
C1A H1A 1_555 1_555
C2A C1A 1_555 1_555
H2A C2A 1_555 1_555
C3A C4A 1_555 1_555
C4A H3A 1_555 1_555
C5A H4A 1_555 1_555
C6A C5A 1_555 1_555
C7A C6A 1_555 1_555
H5A C7A 1_555 1_555
C8A H6A 1_555 1_555
C9A C5A 1_555 1_555
H7A C9A 1_555 1_555
Mn2_2 N9 1_555 1_555
Mn2_3 N3A_2 1_555 1_555
Mn2_4 N9A_2 1_555 1_555
Mn2_5 N4 1_555 1_555
Mn2_6 N4A_2 1_555 1_555
N1A Mn1 1_555 1_555
N2A N1A 1_555 1_555
N3A Mn2 1_555 1_555
N3A_2 N2A 1_555 1_555
N4A Mn2 1_555 1_555
N4_2 Mn2 1_555 1_555
N4A_2 C7A 1_555 1_555
N5A C2A 1_555 1_555
N6A Mn1 1_555 1_555
N7A Mn1 1_555 1_555
N8A N7A 1_555 1_555
N9A Mn2 1_555 1_555
N9_2 Mn2 1_555 1_555
N9A_2 N8A 1_555 1_555
O1A C3A 1_555 1_555
C3 N5 1_555 1_555
C4 N6 1_555 1_555
C6 O1 1_555 1_555
C8 C9 1_555 1_555
C8 N4 1_555 1_555
Mn1 N6 1_555 1_555
C1A N6A 1_555 1_555
C3A N5A 1_555 1_555
C4A N6A 1_555 1_555
C6A O1A 1_555 1_555
C8A C9A 1_555 1_555
C8A N4A_2 1_555 1_555

#END
