
#######################################################################
#
#                 Cambridge Crystallographic Data Centre
#                                CCDC 
#
#######################################################################
#
# If this CIF has been generated from an entry in the Cambridge 
# Structural Database, then it will include bibliographic, chemical, 
# crystal, experimental, refinement or atomic coordinate data resulting 
# from the CCDC's data processing and validation procedures.
#
#######################################################################

data_NOPCUR
_symmetry_cell_setting           triclinic
_symmetry_space_group_name_H-M   'P -1'
_symmetry_Int_Tables_number      2
_space_group_name_Hall           '-P 1'
loop_
_symmetry_equiv_pos_site_id
_symmetry_equiv_pos_as_xyz
1 x,y,z
2 -x,-y,-z
_cell_length_a                   7.537(4)
_cell_length_b                   8.782(5)
_cell_length_c                   10.623(6)
_cell_angle_alpha                66.624(6)
_cell_angle_beta                 71.966(6)
_cell_angle_gamma                83.973(6)
_cell_volume                     613.587
loop_
_atom_site_label
_atom_site_type_symbol
_atom_site_fract_x
_atom_site_fract_y
_atom_site_fract_z
Cu1 Cu 1.22127(4) 0.45090(3) 0.42210(3)
Cl1 Cl 1.02231(8) 0.63303(7) 0.31739(6)
O1 O 1.4352(2) 0.32395(19) 0.48739(19)
O2 O 1.6709(2) 0.36635(19) 0.55600(19)
N1 N 1.1748(2) 0.2716(2) 0.3705(2)
N2 N 1.0582(3) 0.1260(2) 0.2870(2)
C1 C 1.2586(3) 0.1190(3) 0.3983(3)
H1 H 1.3503 0.0837 0.4449
C2 C 1.1871(3) 0.0295(3) 0.3477(3)
H2 H 1.2192 -0.0776 0.3530
C3 C 0.9476(4) 0.0775(3) 0.2159(3)
H3 H 0.8796 -0.0248 0.2830
H4 H 1.0322 0.0554 0.1355
C4 C 0.8114(3) 0.2052(3) 0.1622(3)
H5 H 0.8780 0.3084 0.0956
H6 H 0.7239 0.2259 0.2423
C5 C 0.7037(3) 0.1487(3) 0.0871(3)
H7 H 0.7920 0.1209 0.0113
H8 H 0.6316 0.0490 0.1557
C6 C 0.5744(3) 0.2782(3) 0.0239(3)
H9 H 0.6468 0.3779 -0.0441
H10 H 0.4862 0.3056 0.0999
C7 C 0.4666(4) 0.2248(3) -0.0518(3)
H11 H 0.5546 0.1994 -0.1291
H12 H 0.3958 0.1240 0.0156
C8 C 1.0546(3) 0.2700(3) 0.3033(3)
H13 H 0.9775 0.3575 0.2714
C9 C 0.3340(4) 0.3552(4) -0.1130(3)
H14 H 0.2421 0.3767 -0.0365
H15 H 0.2731 0.3157 -0.1616
H16 H 0.4029 0.4557 -0.1795
C10 C 1.5309(3) 0.4106(3) 0.5126(2)
Cu1A Cu 0.77873(4) 0.54910(3) 0.57790(3)
Cu1A_2 Cu 1.77873(4) 0.54910(3) 0.57790(3)
Cl1A Cl 0.97769(8) 0.36697(7) 0.68261(6)
O1A O 1.5648(2) 0.67605(19) 0.51261(19)
O1A_2 O 0.5648(2) 0.67605(19) 0.51261(19)
O2A O 1.3291(2) 0.63365(19) 0.44400(19)
O2_2 O 0.6709(2) 0.36635(19) 0.55600(19)
N1A N 0.8252(2) 0.7284(2) 0.6295(2)
N2A N 0.9418(3) 0.8740(2) 0.7130(2)
C1A C 0.7414(3) 0.8810(3) 0.6017(3)
H1A H 0.6497 0.9163 0.5551
C2A C 0.8129(3) 0.9705(3) 0.6523(3)
H2A H 0.7808 1.0776 0.6470
C3A C 1.0524(4) 0.9225(3) 0.7841(3)
H3A H 1.1204 1.0248 0.7170
H4A H 0.9678 0.9446 0.8645
C4A C 1.1886(3) 0.7948(3) 0.8378(3)
H5A H 1.1220 0.6916 0.9044
H6A H 1.2761 0.7741 0.7577
C5A C 1.2963(3) 0.8513(3) 0.9129(3)
H7A H 1.2080 0.8791 0.9887
H8A H 1.3684 0.9510 0.8443
C6A C 1.4256(3) 0.7218(3) 0.9761(3)
H9A H 1.3532 0.6221 1.0441
H10A H 1.5138 0.6944 0.9001
C7A C 1.5334(4) 0.7752(3) 1.0518(3)
H11A H 1.4454 0.8006 1.1291
H12A H 1.6042 0.8760 0.9844
C8A C 0.9454(3) 0.7300(3) 0.6967(3)
H13A H 1.0225 0.6425 0.7286
C9A C 1.6660(4) 0.6448(4) 1.1130(3)
H14A H 1.7579 0.6233 1.0365
H15A H 1.7269 0.6843 1.1616
H16A H 1.5971 0.5443 1.1795
C10A C 1.4691(3) 0.5894(3) 0.4874(2)
loop_
_geom_bond_atom_site_label_1
_geom_bond_atom_site_label_2
_geom_bond_site_symmetry_1
_geom_bond_site_symmetry_2
Cu1 Cl1 1_555 1_555
Cl1 Cu1A 1_555 1_555
O1 Cu1 1_555 1_555
O2 C10 1_555 1_555
N1 Cu1 1_555 1_555
N2 C2 1_555 1_555
C1 N1 1_555 1_555
H1 C1 1_555 1_555
C2 C1 1_555 1_555
H2 C2 1_555 1_555
C3 N2 1_555 1_555
H3 C3 1_555 1_555
H4 C3 1_555 1_555
C4 C3 1_555 1_555
H5 C4 1_555 1_555
H6 C4 1_555 1_555
C5 C4 1_555 1_555
H7 C5 1_555 1_555
H8 C5 1_555 1_555
C6 C5 1_555 1_555
H9 C6 1_555 1_555
H10 C6 1_555 1_555
C7 C6 1_555 1_555
H11 C7 1_555 1_555
H12 C7 1_555 1_555
C8 N1 1_555 1_555
H13 C8 1_555 1_555
C9 C7 1_555 1_555
H14 C9 1_555 1_555
H15 C9 1_555 1_555
H16 C9 1_555 1_555
C10 O1 1_555 1_555
Cu1A Cl1A 1_555 1_555
Cu1A_2 O2 1_555 1_555
Cl1A Cu1 1_555 1_555
O1A Cu1A_2 1_555 1_555
O1A_2 Cu1A 1_555 1_555
O2A Cu1 1_555 1_555
O2_2 Cu1A 1_555 1_555
N1A Cu1A 1_555 1_555
N2A C2A 1_555 1_555
C1A N1A 1_555 1_555
H1A C1A 1_555 1_555
C2A C1A 1_555 1_555
H2A C2A 1_555 1_555
C3A N2A 1_555 1_555
H3A C3A 1_555 1_555
H4A C3A 1_555 1_555
C4A C3A 1_555 1_555
H5A C4A 1_555 1_555
H6A C4A 1_555 1_555
C5A C4A 1_555 1_555
H7A C5A 1_555 1_555
H8A C5A 1_555 1_555
C6A C5A 1_555 1_555
H9A C6A 1_555 1_555
H10A C6A 1_555 1_555
C7A C6A 1_555 1_555
H11A C7A 1_555 1_555
H12A C7A 1_555 1_555
C8A N1A 1_555 1_555
H13A C8A 1_555 1_555
C9A C7A 1_555 1_555
H14A C9A 1_555 1_555
H15A C9A 1_555 1_555
H16A C9A 1_555 1_555
C10A C10 1_555 1_555
N2 C8 1_555 1_555
O1A C10A 1_555 1_555
O2A C10A 1_555 1_555
N2A C8A 1_555 1_555

#END
