
#######################################################################
#
#                 Cambridge Crystallographic Data Centre
#                                CCDC 
#
#######################################################################
#
# If this CIF has been generated from an entry in the Cambridge 
# Structural Database, then it will include bibliographic, chemical, 
# crystal, experimental, refinement or atomic coordinate data resulting 
# from the CCDC's data processing and validation procedures.
#
#######################################################################

data_NOPDEC
_symmetry_cell_setting           triclinic
_symmetry_space_group_name_H-M   'P -1'
_symmetry_Int_Tables_number      2
_space_group_name_Hall           '-P 1'
loop_
_symmetry_equiv_pos_site_id
_symmetry_equiv_pos_as_xyz
1 x,y,z
2 -x,-y,-z
_cell_length_a                   7.6088(2)
_cell_length_b                   12.2795(2)
_cell_length_c                   13.6617(3)
_cell_angle_alpha                75.416(2)
_cell_angle_beta                 79.264(2)
_cell_angle_gamma                74.271(2)
_cell_volume                     1179.48
loop_
_atom_site_label
_atom_site_type_symbol
_atom_site_fract_x
_atom_site_fract_y
_atom_site_fract_z
Mn1 Mn 0.04656(6) -0.28092(4) 0.33782(3)
S1 S -0.79724(10) 0.38735(7) 0.12724(6)
O1 O -0.2486(3) -0.10783(19) 0.03394(15)
O2 O -0.3676(3) -0.27479(19) 0.27949(16)
O3 O -0.1100(2) -0.21671(17) 0.21339(14)
O4 O -0.9299(3) 0.54117(19) 0.35866(16)
O5 O -0.8148(3) 0.35776(18) 0.35239(15)
O6 O -0.2086(3) -0.2611(2) 0.4455(2)
H1 H -0.272(6) -0.279(4) 0.418(3)
H2 H -0.202(5) -0.297(3) 0.503(3)
O7 O 0.3123(3) -0.3020(2) 0.23787(19)
H3 H 0.402(5) -0.294(3) 0.253(3)
H4 H 0.339(6) -0.357(4) 0.209(3)
N1 N -0.4208(3) 0.3355(2) 0.10703(17)
N2 N -0.2821(3) 0.3846(3) 0.1102(2)
N3 N -0.3593(4) 0.4852(3) 0.1302(2)
N4 N -0.5464(3) 0.5048(2) 0.14040(19)
N5 N 0.2021(3) -0.2978(2) 0.46689(17)
N6 N 0.0781(3) -0.1019(2) 0.33707(18)
C1 C -0.2993(4) -0.0014(3) 0.0571(2)
C2 C -0.2136(4) 0.0820(3) -0.0070(2)
H5 H -0.1278 0.0624 -0.0616
C3 C -0.2531(4) 0.1921(3) 0.0088(2)
H6 H -0.1942 0.2468 -0.0344
C4 C -0.3811(4) 0.2210(3) 0.0892(2)
C5 C -0.4684(4) 0.1401(3) 0.1535(2)
H7 H -0.5542 0.1604 0.2079
C6 C -0.4288(4) 0.0289(3) 0.1375(2)
H8 H -0.4888 -0.0253 0.1804
C7 C -0.5818(4) 0.4112(3) 0.1259(2)
C8 C -0.9302(4) 0.4876(3) 0.2048(2)
H9 H -0.9112 0.5641 0.1721
H10 H -1.0596 0.4908 0.2068
C9 C -0.8857(4) 0.4591(3) 0.3140(2)
C10 C -0.3264(4) -0.1966(3) 0.1020(2)
H11 H -0.2940 -0.2643 0.0721
H12 H -0.4594 -0.1700 0.1094
C11 C -0.2632(4) -0.2316(3) 0.2072(2)
C12 C 0.0096(4) -0.0062(3) 0.2705(3)
H13 H -0.0573 -0.0126 0.2226
C13 C 0.0329(5) 0.1003(3) 0.2693(3)
H14 H -0.0152 0.1650 0.2212
C14 C 0.1286(5) 0.1094(3) 0.3406(3)
H15 H 0.1452 0.1812 0.3421
C15 C 0.2007(5) 0.0129(3) 0.4104(3)
H16 H 0.2660 0.0190 0.4591
C16 C 0.3444(4) -0.2100(4) 0.5556(3)
H17 H 0.3723 -0.1439 0.5641
C17 C 0.4025(5) -0.3157(5) 0.6196(3)
H18 H 0.4713 -0.3216 0.6710
C18 C 0.3586(5) -0.4116(4) 0.6071(3)
H19 H 0.3955 -0.4831 0.6501
C19 C 0.2583(4) -0.4000(3) 0.5292(2)
H20 H 0.2290 -0.4651 0.5198
C20 C 0.2446(4) -0.2037(3) 0.4792(2)
C21 C 0.1748(4) -0.0944(3) 0.4072(2)
Mn1_2 Mn -0.95344(6) 0.71908(4) 0.33782(3)
O4_2 O 0.0701(3) -0.45883(19) 0.35866(16)
loop_
_geom_bond_atom_site_label_1
_geom_bond_atom_site_label_2
_geom_bond_site_symmetry_1
_geom_bond_site_symmetry_2
Mn1 O3 1_555 1_555
S1 C7 1_555 1_555
O1 C1 1_555 1_555
O2 C11 1_555 1_555
O3 C11 1_555 1_555
O4 C9 1_555 1_555
O5 C9 1_555 1_555
O6 Mn1 1_555 1_555
H1 O6 1_555 1_555
H2 O6 1_555 1_555
O7 Mn1 1_555 1_555
H3 O7 1_555 1_555
H4 O7 1_555 1_555
N1 N2 1_555 1_555
N2 N3 1_555 1_555
N3 N4 1_555 1_555
N4 C7 1_555 1_555
N5 Mn1 1_555 1_555
N6 Mn1 1_555 1_555
C1 C2 1_555 1_555
C2 H5 1_555 1_555
C3 C2 1_555 1_555
H6 C3 1_555 1_555
C4 N1 1_555 1_555
C5 C4 1_555 1_555
H7 C5 1_555 1_555
C6 C1 1_555 1_555
H8 C6 1_555 1_555
C7 N1 1_555 1_555
C8 S1 1_555 1_555
H9 C8 1_555 1_555
H10 C8 1_555 1_555
C9 C8 1_555 1_555
C10 O1 1_555 1_555
H11 C10 1_555 1_555
H12 C10 1_555 1_555
C11 C10 1_555 1_555
C12 N6 1_555 1_555
H13 C12 1_555 1_555
C13 C12 1_555 1_555
H14 C13 1_555 1_555
C14 C13 1_555 1_555
H15 C14 1_555 1_555
C15 C14 1_555 1_555
H16 C15 1_555 1_555
C16 H17 1_555 1_555
C17 C16 1_555 1_555
H18 C17 1_555 1_555
C18 C17 1_555 1_555
H19 C18 1_555 1_555
C19 N5 1_555 1_555
H20 C19 1_555 1_555
C20 N5 1_555 1_555
C21 N6 1_555 1_555
Mn1_2 O4 1_555 1_555
O4_2 Mn1 1_555 1_555
C3 C4 1_555 1_555
C5 C6 1_555 1_555
C15 C21 1_555 1_555
C16 C20 1_555 1_555
C18 C19 1_555 1_555
C20 C21 1_555 1_555

#END
