
#######################################################################
#
#                 Cambridge Crystallographic Data Centre
#                                CCDC 
#
#######################################################################
#
# If this CIF has been generated from an entry in the Cambridge 
# Structural Database, then it will include bibliographic, chemical, 
# crystal, experimental, refinement or atomic coordinate data resulting 
# from the CCDC's data processing and validation procedures.
#
#######################################################################

data_NOPDIG01
_symmetry_cell_setting           monoclinic
_symmetry_space_group_name_H-M   'C 2/c'
_symmetry_Int_Tables_number      15
_space_group_name_Hall           '-C 2yn'
loop_
_symmetry_equiv_pos_site_id
_symmetry_equiv_pos_as_xyz
1 x,y,z
2 -x,y,1/2-z
3 1/2+x,1/2+y,z
4 1/2-x,1/2+y,1/2-z
5 -x,-y,-z
6 x,-y,1/2+z
7 1/2-x,1/2-y,-z
8 1/2+x,1/2-y,1/2+z
_cell_length_a                   14.867(6)
_cell_length_b                   10.304(4)
_cell_length_c                   15.928(6)
_cell_angle_alpha                90
_cell_angle_beta                 99.82(2)
_cell_angle_gamma                90
_cell_volume                     2404.25
loop_
_atom_site_label
_atom_site_type_symbol
_atom_site_fract_x
_atom_site_fract_y
_atom_site_fract_z
Mn1 Mn 0.5000 0.5000 0.5000
O1 O 0.4802(3) 0.5779(4) 0.6171(2)
O2 O 0.6345(3) 0.5893(4) 0.5536(2)
O3 O 0.6177(3) 0.8495(5) 0.8407(3)
O4 O 0.4608(3) 0.6880(5) 0.4417(3)
N1 N 0.3883(6) 0.8812(7) 0.4300(4)
C1 C 0.5461(4) 0.6507(6) 0.6567(4)
C2 C 0.6324(4) 0.6513(7) 0.6203(4)
C3 C 0.7131(4) 0.7249(6) 0.6608(4)
C4 C 0.7894(5) 0.7345(7) 0.6250(4)
C5 C 0.8628(5) 0.8063(7) 0.6651(5)
C6 C 0.8566(5) 0.8707(7) 0.7410(5)
C7 C 0.7809(4) 0.8621(7) 0.7775(4)
C8 C 0.7060(4) 0.7906(6) 0.7379(4)
C9 C 0.6202(5) 0.7858(7) 0.7749(4)
C10 C 0.5422(4) 0.7149(6) 0.7319(4)
C11 C 0.4104(6) 0.7694(9) 0.4677(4)
C12 C 0.3268(12) 0.9705(14) 0.4600(6)
C13 C 0.4258(7) 0.9253(9) 0.3548(5)
H1 H 0.7923 0.6920 0.5726
H2 H 0.9171 0.8117 0.6413
H3 H 0.9065 0.9219 0.7676
H4 H 0.7788 0.9048 0.8300
H5 H 0.3865 0.7498 0.5178
H6 H 0.2642 0.9521 0.4320
H7 H 0.3430 1.0595 0.4467
H8 H 0.3312 0.9610 0.5218
H9 H 0.4827 0.9730 0.3735
H10 H 0.3816 0.9822 0.3199
H11 H 0.4381 0.8498 0.3210
Mn1A Mn 0.5000 0.5000 1.0000
O1A O 0.5198(3) 0.5779(4) 0.8829(2)
O1D O 0.5198(3) 0.4221(4) 0.3829(2)
O2A O 0.3655(3) 0.5893(4) 0.9464(2)
O2D O 0.3655(3) 0.4107(4) 0.4464(2)
O3A O 0.3823(3) 0.8495(5) 0.6593(3)
O4D O 0.5392(3) 0.3120(5) 0.5583(3)
N1D N 0.6117(6) 0.1188(7) 0.5700(4)
C1A C 0.4539(4) 0.6507(6) 0.8433(4)
C2A C 0.3676(4) 0.6513(7) 0.8797(4)
C3A C 0.2869(4) 0.7249(6) 0.8392(4)
C4A C 0.2106(5) 0.7345(7) 0.8750(4)
C5A C 0.1372(5) 0.8063(7) 0.8349(5)
C6A C 0.1434(5) 0.8707(7) 0.7590(5)
C7A C 0.2191(4) 0.8621(7) 0.7225(4)
C8A C 0.2940(4) 0.7906(6) 0.7621(4)
C9A C 0.3798(5) 0.7858(7) 0.7251(4)
C10A C 0.4578(4) 0.7149(6) 0.7681(4)
C11D C 0.5896(6) 0.2306(9) 0.5323(4)
C12D C 0.6732(12) 0.0295(14) 0.5400(6)
C13D C 0.5742(7) 0.0747(9) 0.6452(5)
H1A H 0.2077 0.6920 0.9274
H2A H 0.0829 0.8117 0.8587
H3A H 0.0935 0.9219 0.7324
H4A H 0.2212 0.9048 0.6700
H5D H 0.6135 0.2502 0.4822
H6D H 0.7358 0.0479 0.5680
H7D H 0.6570 -0.0595 0.5533
H8D H 0.6688 0.0390 0.4782
H9D H 0.5173 0.0270 0.6265
H10D H 0.6184 0.0178 0.6801
H11D H 0.5619 0.1502 0.6790
loop_
_geom_bond_atom_site_label_1
_geom_bond_atom_site_label_2
_geom_bond_site_symmetry_1
_geom_bond_site_symmetry_2
Mn1 O1 1_555 1_555
O1 C1 1_555 1_555
O2 Mn1 1_555 1_555
O3 C9 1_555 1_555
O4 Mn1 1_555 1_555
N1 C11 1_555 1_555
C1 C2 1_555 1_555
C2 O2 1_555 1_555
C3 C2 1_555 1_555
C4 C3 1_555 1_555
C5 C4 1_555 1_555
C6 C5 1_555 1_555
C7 C6 1_555 1_555
C8 C3 1_555 1_555
C9 C8 1_555 1_555
C10 C1 1_555 1_555
C11 O4 1_555 1_555
C12 N1 1_555 1_555
C13 N1 1_555 1_555
H1 C4 1_555 1_555
H2 C5 1_555 1_555
H3 C6 1_555 1_555
H4 C7 1_555 1_555
H5 C11 1_555 1_555
H6 C12 1_555 1_555
H7 C12 1_555 1_555
H8 C12 1_555 1_555
H9 C13 1_555 1_555
H10 C13 1_555 1_555
H11 C13 1_555 1_555
Mn1A O1A 1_555 1_555
O1A C1A 1_555 1_555
O1D Mn1 1_555 1_555
O2A Mn1A 1_555 1_555
O2D Mn1 1_555 1_555
O3A C9A 1_555 1_555
O4D Mn1 1_555 1_555
N1D C11D 1_555 1_555
C1A C2A 1_555 1_555
C2A O2A 1_555 1_555
C3A C2A 1_555 1_555
C4A C3A 1_555 1_555
C5A C4A 1_555 1_555
C6A C5A 1_555 1_555
C7A C6A 1_555 1_555
C8A C3A 1_555 1_555
C9A C8A 1_555 1_555
C10A C10 1_555 1_555
C11D O4D 1_555 1_555
C12D N1D 1_555 1_555
C13D N1D 1_555 1_555
H1A C4A 1_555 1_555
H2A C5A 1_555 1_555
H3A C6A 1_555 1_555
H4A C7A 1_555 1_555
H5D C11D 1_555 1_555
H6D C12D 1_555 1_555
H7D C12D 1_555 1_555
H8D C12D 1_555 1_555
H9D C13D 1_555 1_555
H10D C13D 1_555 1_555
H11D C13D 1_555 1_555
C7 C8 1_555 1_555
C9 C10 1_555 1_555
C1A C10A 1_555 1_555
C7A C8A 1_555 1_555
C9A C10A 1_555 1_555

#END
