
#######################################################################
#
#                 Cambridge Crystallographic Data Centre
#                                CCDC 
#
#######################################################################
#
# If this CIF has been generated from an entry in the Cambridge 
# Structural Database, then it will include bibliographic, chemical, 
# crystal, experimental, refinement or atomic coordinate data resulting 
# from the CCDC's data processing and validation procedures.
#
#######################################################################

data_NOPGEF
_symmetry_cell_setting           orthorhombic
_symmetry_space_group_name_H-M   'P b c n'
_symmetry_Int_Tables_number      60
_space_group_name_Hall           '-P 2n 2ab'
loop_
_symmetry_equiv_pos_site_id
_symmetry_equiv_pos_as_xyz
1 x,y,z
2 1/2-x,1/2-y,1/2+z
3 -x,y,1/2-z
4 1/2+x,1/2-y,-z
5 -x,-y,-z
6 1/2+x,1/2+y,1/2-z
7 x,-y,1/2+z
8 1/2-x,1/2+y,z
_cell_length_a                   25.249(5)
_cell_length_b                   11.065(2)
_cell_length_c                   7.8686(16)
_cell_angle_alpha                90
_cell_angle_beta                 90
_cell_angle_gamma                90
_cell_volume                     2198.33
loop_
_atom_site_label
_atom_site_type_symbol
_atom_site_fract_x
_atom_site_fract_y
_atom_site_fract_z
O1 O 0.4106(2) 0.5253(4) 0.2394(5)
Cd1 Cd 0.5000 0.43703(4) 0.2500
C1 C 0.4512(2) 0.0408(4) 0.1595(7)
N1 N 0.45417(14) 0.2595(3) 0.1571(5)
C2 C 0.42046(19) 0.5932(5) 0.1214(7)
C3 C 0.40972(19) 0.2598(5) 0.0675(7)
H1 H 0.3956 0.3333 0.0327
C4 C 0.47546(19) 0.1514(4) 0.2028(5)
C5 C 0.3836(2) 0.1536(5) 0.0240(7)
H2 H 0.3521 0.1571 -0.0369
C6 C 0.4769(3) -0.0702(5) 0.2067(7)
H3 H 0.4614 -0.1434 0.1771
C7 C 0.4038(2) 0.0455(5) 0.0698(8)
H4 H 0.3861 -0.0254 0.0416
C8 C 0.3824(2) 0.6790(5) 0.0470(8)
H5 H 0.3920 0.7187 -0.0526
O2 O 0.46626(17) 0.5923(5) 0.0563(6)
C9 C 0.2985(2) 0.7903(5) 0.0487(7)
O3 O 0.3114(2) 0.8575(5) -0.0836(7)
C10 C 0.3383(2) 0.7017(5) 0.1093(7)
H6 H 0.3291 0.6576 0.2055
C11 C 0.2313(3) 0.9179(6) -0.0029(12)
H7 H 0.1991 0.9585 0.0009
C12 C 0.2523(3) 0.8159(6) 0.1137(9)
H8 H 0.2359 0.7813 0.2076
C13 C 0.2721(4) 0.9324(6) -0.1113(12)
H9 H 0.2723 0.9899 -0.1975
O1B O 0.5894(2) 0.5253(4) 0.2606(5)
O1F O 0.4106(2) 0.4747(4) 0.7394(5)
Cd1F Cd 0.5000 0.56297(4) -0.2500
Cd1F_2 Cd 0.5000 0.56297(4) 0.7500
C1B C 0.5488(2) 0.0408(4) 0.3405(7)
N1B N 0.54583(14) 0.2595(3) 0.3429(5)
C2F C 0.42046(19) 0.4068(5) 0.6214(7)
C3B C 0.59028(19) 0.2598(5) 0.4325(7)
H1B H 0.6044 0.3333 0.4673
C4B C 0.52454(19) 0.1514(4) 0.2972(5)
C5B C 0.6164(2) 0.1536(5) 0.4760(7)
H2B H 0.6479 0.1571 0.5369
C6B C 0.5231(3) -0.0702(5) 0.2933(7)
H3B H 0.5386 -0.1434 0.3229
C7B C 0.5962(2) 0.0455(5) 0.4302(8)
H4B H 0.6139 -0.0254 0.4584
C8F C 0.3824(2) 0.3210(5) 0.5470(8)
H5F H 0.3920 0.2813 0.4474
O2F O 0.46626(17) 0.4077(5) 0.5563(6)
O2D O 0.53374(17) 0.4077(5) -0.0563(6)
O2B O 0.53374(17) 0.5923(5) 0.4437(6)
C9F C 0.2985(2) 0.2097(5) 0.5487(7)
O3F O 0.3114(2) 0.1425(5) 0.4164(7)
C10F C 0.3383(2) 0.2983(5) 0.6093(7)
H6F H 0.3291 0.3424 0.7055
C11F C 0.2313(3) 0.0821(6) 0.4971(12)
H7F H 0.1991 0.0415 0.5009
C12F C 0.2523(3) 0.1841(6) 0.6137(9)
H8F H 0.2359 0.2187 0.7076
C13F C 0.2721(4) 0.0676(6) 0.3887(12)
H9F H 0.2723 0.0101 0.3025
loop_
_geom_bond_atom_site_label_1
_geom_bond_atom_site_label_2
_geom_bond_site_symmetry_1
_geom_bond_site_symmetry_2
O1 Cd1 1_555 1_555
Cd1 N1 1_555 1_555
C1 C4 1_555 1_555
N1 C3 1_555 1_555
C2 O1 1_555 1_555
C3 H1 1_555 1_555
C4 N1 1_555 1_555
C5 C3 1_555 1_555
H2 C5 1_555 1_555
C6 C1 1_555 1_555
H3 C6 1_555 1_555
C7 C1 1_555 1_555
H4 C7 1_555 1_555
C8 C2 1_555 1_555
H5 C8 1_555 1_555
O2 Cd1 1_555 1_555
C9 O3 1_555 1_555
O3 C13 1_555 1_555
C10 C8 1_555 1_555
H6 C10 1_555 1_555
C11 H7 1_555 1_555
C12 C9 1_555 1_555
H8 C12 1_555 1_555
C13 C11 1_555 1_555
H9 C13 1_555 1_555
O1B Cd1 1_555 1_555
O1F Cd1F_2 1_555 1_555
Cd1F O2 1_555 1_555
Cd1F_2 O2F 1_555 1_555
C1B C4B 1_555 1_555
N1B Cd1 1_555 1_555
C2F O1F 1_555 1_555
C3B N1B 1_555 1_555
H1B C3B 1_555 1_555
C4B C4 1_555 1_555
C5B C3B 1_555 1_555
H2B C5B 1_555 1_555
C6B C6 1_555 1_555
H3B C6B 1_555 1_555
C7B C1B 1_555 1_555
H4B C7B 1_555 1_555
C8F C2F 1_555 1_555
H5F C8F 1_555 1_555
O2F Cd1 1_555 1_555
O2D Cd1 1_555 1_555
O2B Cd1 1_555 1_555
C9F O3F 1_555 1_555
O3F C13F 1_555 1_555
C10F C8F 1_555 1_555
H6F C10F 1_555 1_555
C11F H7F 1_555 1_555
C12F C9F 1_555 1_555
H8F C12F 1_555 1_555
C13F C11F 1_555 1_555
H9F C13F 1_555 1_555
C2 O2 1_555 1_555
C5 C7 1_555 1_555
C9 C10 1_555 1_555
C11 C12 1_555 1_555
Cd1F O2D 1_555 1_555
Cd1F_2 O2B 1_555 1_555
C1B C6B 1_555 1_555
N1B C4B 1_555 1_555
C2F O2F 1_555 1_555
C5B C7B 1_555 1_555
C9F C10F 1_555 1_555
C11F C12F 1_555 1_555

#END
