
#######################################################################
#
#                 Cambridge Crystallographic Data Centre
#                                CCDC 
#
#######################################################################
#
# If this CIF has been generated from an entry in the Cambridge 
# Structural Database, then it will include bibliographic, chemical, 
# crystal, experimental, refinement or atomic coordinate data resulting 
# from the CCDC's data processing and validation procedures.
#
#######################################################################

data_NOPJUZ
_symmetry_cell_setting           triclinic
_symmetry_space_group_name_H-M   'P -1'
_symmetry_Int_Tables_number      2
_space_group_name_Hall           '-P 1'
loop_
_symmetry_equiv_pos_site_id
_symmetry_equiv_pos_as_xyz
1 x,y,z
2 -x,-y,-z
_cell_length_a                   9.3359(7)
_cell_length_b                   11.2684(9)
_cell_length_c                   18.8508(15)
_cell_angle_alpha                79.4150(10)
_cell_angle_beta                 79.4140(10)
_cell_angle_gamma                66.2700(10)
_cell_volume                     1771.22
loop_
_atom_site_label
_atom_site_type_symbol
_atom_site_fract_x
_atom_site_fract_y
_atom_site_fract_z
Ni1 Ni 1.0000 0.5000 0.5000
N1 N 0.9988(3) 0.3164(2) 0.49725(13)
O1 O 0.8473(2) 0.58799(19) 0.42149(10)
O2 O 0.8077(2) 0.5381(2) 0.58158(11)
C1 C 0.8678(4) 0.2979(3) 0.4975(2)
C2 C 1.1310(4) 0.2112(3) 0.4970(2)
C3 C 0.8738(4) 0.5793(3) 0.35514(16)
H1 H 0.7735 0.3705 0.4969
C4 C 0.8628(4) 0.1765(3) 0.4987(2)
H2 H 1.2251 0.2216 0.4964
C5 C 1.1365(4) 0.0870(3) 0.4975(2)
C6 C 0.7575(4) 0.6837(3) 0.30725(14)
O3 O 0.9917(3) 0.4960(3) 0.32379(14)
H3 H 0.7668 0.1693 0.4993
C7 C 0.9996(3) 0.0664(3) 0.49911(15)
H4 H 1.2329 0.0165 0.4967
C8 C 0.8085(4) 0.7014(4) 0.23331(16)
C9 C 0.6098(4) 0.7699(3) 0.33441(14)
C10 C 0.7156(5) 0.8025(4) 0.18786(16)
H5 H 0.9062 0.6445 0.2144
C11 C 0.5196(4) 0.8718(3) 0.28793(17)
C12 C 0.5398(3) 0.7567(3) 0.41323(14)
C13 C 0.5739(5) 0.8882(4) 0.21380(18)
O4 O 0.7848(4) 0.8230(3) 0.11635(12)
H6 H 0.4219 0.9299 0.3061
O5 O 0.5005(3) 0.6611(2) 0.43562(11)
O6 O 0.5161(3) 0.8470(2) 0.44927(11)
H7 H 0.5133 0.9571 0.1829
C14 C 0.7180(5) 0.8187(4) 0.05801(16)
C15 C 0.5980(4) 0.7751(4) 0.06265(16)
C16 C 0.7872(5) 0.8561(4) -0.00884(16)
C17 C 0.5534(4) 0.7632(4) -0.00184(16)
H8 H 0.5478 0.7540 0.1076
C18 C 0.7429(5) 0.8428(4) -0.07179(16)
H9 H 0.8637 0.8903 -0.0114
C19 C 0.6261(4) 0.7941(3) -0.06899(14)
H10 H 0.4726 0.7338 0.0007
H11 H 0.7915 0.8666 -0.1166
C20 C 0.5915(3) 0.7693(3) -0.13866(14)
O7 O 0.4815(2) 0.72747(19) -0.13394(10)
O8 O 0.6744(3) 0.7883(3) -0.19582(11)
Ni2 Ni 0.39383(4) 0.68733(3) -0.216389(17)
N2 N 0.5687(3) 0.4916(2) -0.21262(12)
N3 N 0.2494(3) 0.6141(2) -0.13581(12)
O9 O 0.2954(2) 0.6599(2) -0.30044(10)
O10 O 0.5500(2) 0.7371(2) -0.29515(10)
N4 N 0.2130(3) 0.8785(2) -0.21814(12)
C21 C 0.5978(4) 0.4168(3) -0.26446(18)
C22 C 0.6616(4) 0.4402(3) -0.15989(19)
C23 C 0.1425(5) 0.5789(5) -0.15209(18)
C24 C 0.2620(4) 0.6000(4) -0.06492(17)
H12 H 0.5310 0.4470 -0.3004
C25 C 0.7205(4) 0.2976(3) -0.26828(18)
H13 H 0.6421 0.4880 -0.1215
C26 C 0.7848(4) 0.3204(3) -0.15897(19)
H14 H 0.1337 0.5840 -0.2010
C27 C 0.0418(5) 0.5347(5) -0.10127(18)
H15 H 0.3384 0.6216 -0.0512
C28 C 0.1673(4) 0.5550(4) -0.01083(17)
H16 H 0.7371 0.2514 -0.3072
C29 C 0.8193(3) 0.2460(3) -0.21463(15)
H17 H 0.8450 0.2895 -0.1204
H18 H -0.0329 0.5128 -0.1163
C30 C 0.0533(4) 0.5232(3) -0.02826(15)
H19 H 0.1818 0.5464 0.0376
C31 C 0.9547(3) 0.1183(3) -0.21614(15)
C32 C 1.0387(4) 0.0725(3) -0.28065(16)
C33 C 1.0056(4) 0.0403(3) -0.15217(15)
H20 H 1.0103 0.1216 -0.3248
C34 C 1.1649(4) -0.0463(3) -0.27944(16)
H21 H 0.9536 0.0664 -0.1073
C35 C 1.1334(4) -0.0758(3) -0.15607(15)
H22 H 1.2190 -0.0753 -0.3235
H23 H 1.1666 -0.1256 -0.1127
O2A O 1.1923(2) 0.4619(2) 0.41842(11)
N1A N 1.0012(3) 0.6836(2) 0.50275(13)
O1A O 1.1527(2) 0.41201(19) 0.57851(10)
C7A C 1.0004(3) -0.0664(3) 0.50089(15)
C5A C 0.8635(4) -0.0870(3) 0.5025(2)
C4A C 1.1372(4) -0.1765(3) 0.5013(2)
C2A C 0.8690(4) -0.2112(3) 0.5030(2)
H4A H 0.7671 -0.0165 0.5033
C1A C 1.1322(4) -0.2979(3) 0.5025(2)
H3A H 1.2332 -0.1693 0.5007
H2A H 0.7749 -0.2216 0.5036
N1A_2 N 1.0012(3) -0.3164(2) 0.50275(13)
H1A H 1.2265 -0.3705 0.5031
Ni1_2 Ni 1.0000 -0.5000 0.5000
C30A C -0.0533(4) 0.4768(3) 0.02826(15)
C27A C -0.0418(5) 0.4653(5) 0.10127(18)
C28A C -0.1673(4) 0.4450(4) 0.01083(17)
C23A C -0.1425(5) 0.4211(5) 0.15209(18)
H18A H 0.0329 0.4872 0.1163
C24A C -0.2620(4) 0.4000(4) 0.06492(17)
H19A H -0.1818 0.4536 -0.0376
N4_2 N 1.2130(3) -0.1215(2) -0.21814(12)
H14A H -0.1337 0.4160 0.2010
N3A N -0.2494(3) 0.3859(2) 0.13581(12)
H15A H -0.3384 0.3784 0.0512
Ni2_2 Ni 1.39383(4) -0.31267(3) -0.216389(17)
Ni2A Ni -0.39383(4) 0.31267(3) 0.216389(17)
N2A N -0.5687(3) 0.5084(2) 0.21262(12)
O7A O -0.4815(2) 0.27253(19) 0.13394(10)
O9A O -0.2954(2) 0.3401(2) 0.30044(10)
O10A O -0.5500(2) 0.2629(2) 0.29515(10)
N4A N -0.2130(3) 0.1215(2) 0.21814(12)
C21A C -0.5978(4) 0.5832(3) 0.26446(18)
C22A C -0.6616(4) 0.5598(3) 0.15989(19)
C20A C -0.5915(3) 0.2307(3) 0.13866(14)
H12A H -0.5310 0.5530 0.3004
C25A C -0.7205(4) 0.7024(3) 0.26828(18)
H13A H -0.6421 0.5120 0.1215
C26A C -0.7848(4) 0.6796(3) 0.15897(19)
C19A C -0.6261(4) 0.2059(3) 0.06899(14)
O8A O -0.6744(3) 0.2117(3) 0.19582(11)
H16A H -0.7371 0.7486 0.3072
C29A C -0.8193(3) 0.7540(3) 0.21463(15)
H17A H -0.8450 0.7105 0.1204
C17A C -0.5534(4) 0.2368(4) 0.00184(16)
C18A C -0.7429(5) 0.1572(4) 0.07179(16)
C31A C -0.9547(3) 0.8817(3) 0.21614(15)
H10A H -0.4726 0.2662 -0.0007
C15A C -0.5980(4) 0.2249(4) -0.06265(16)
H11A H -0.7915 0.1334 0.1166
C16A C -0.7872(5) 0.1439(4) 0.00884(16)
C32A C -1.0387(4) 0.9275(3) 0.28065(16)
C33A C -1.0056(4) 0.9597(3) 0.15217(15)
H8A H -0.5478 0.2460 -0.1076
C14A C -0.7180(5) 0.1813(4) -0.05801(16)
H9A H -0.8637 0.1097 0.0114
H20A H -1.0103 0.8784 0.3248
C34A C -1.1649(4) 1.0463(3) 0.27944(16)
H21A H -0.9536 0.9336 0.1073
C35A C -1.1334(4) 1.0758(3) 0.15607(15)
O4A O -0.7848(4) 0.1770(3) -0.11635(12)
H22A H -1.2190 1.0753 0.3235
N4A_2 N -1.2130(3) 1.1215(2) 0.21814(12)
H23A H -1.1666 1.1256 0.1127
C10A C -0.7156(5) 0.1975(4) -0.18786(16)
Ni2A_2 Ni -1.39383(4) 1.31267(3) 0.216389(17)
C13A C -0.5739(5) 0.1118(4) -0.21380(18)
C8A C -0.8085(4) 0.2986(4) -0.23331(16)
H7A H -0.5133 0.0429 -0.1829
C11A C -0.5196(4) 0.1282(3) -0.28793(17)
H5A H -0.9062 0.3555 -0.2144
C6A C -0.7575(4) 0.3163(3) -0.30725(14)
H6A H -0.4219 0.0701 -0.3061
C9A C -0.6098(4) 0.2301(3) -0.33441(14)
C3A C -0.8738(4) 0.4207(3) -0.35514(16)
C12A C -0.5398(3) 0.2433(3) -0.41323(14)
O3A O -0.9917(3) 0.5040(3) -0.32379(14)
O1A_2 O -0.8473(2) 0.41201(19) -0.42149(10)
O5A O -0.5005(3) 0.3389(2) -0.43562(11)
O6A O -0.5161(3) 0.1530(2) -0.44927(11)
Ni1_3 Ni -1.0000 0.5000 -0.5000
O11 O 0.0299(4) 0.2492(4) 0.3026(2)
H24 H 0.123(8) 0.208(7) 0.288(3)
O12 O 0.5405(3) 0.0906(3) 0.41115(12)
H25 H 0.517(4) 0.114(4) 0.450(2)
H26 H 0.532(6) 0.012(6) 0.418(3)
O13 O 0.5116(3) 0.4199(3) 0.42168(12)
H27 H 0.506(5) 0.392(4) 0.470(3)
H28 H 0.512(4) 0.496(4) 0.4211(18)
loop_
_geom_bond_atom_site_label_1
_geom_bond_atom_site_label_2
_geom_bond_site_symmetry_1
_geom_bond_site_symmetry_2
Ni1 N1 1_555 1_555
N1 C1 1_555 1_555
O1 Ni1 1_555 1_555
O2 Ni1 1_555 1_555
C1 H1 1_555 1_555
C2 N1 1_555 1_555
C3 O1 1_555 1_555
C4 C1 1_555 1_555
H2 C2 1_555 1_555
C5 C2 1_555 1_555
C6 C3 1_555 1_555
O3 C3 1_555 1_555
H3 C4 1_555 1_555
C7 C4 1_555 1_555
H4 C5 1_555 1_555
C8 C6 1_555 1_555
C9 C6 1_555 1_555
C10 C8 1_555 1_555
H5 C8 1_555 1_555
C11 C9 1_555 1_555
C12 C9 1_555 1_555
C13 C10 1_555 1_555
O4 C10 1_555 1_555
H6 C11 1_555 1_555
O5 C12 1_555 1_555
O6 C12 1_555 1_555
H7 C13 1_555 1_555
C14 O4 1_555 1_555
C15 C14 1_555 1_555
C16 C14 1_555 1_555
C17 C15 1_555 1_555
H8 C15 1_555 1_555
C18 C16 1_555 1_555
H9 C16 1_555 1_555
C19 C17 1_555 1_555
H10 C17 1_555 1_555
H11 C18 1_555 1_555
C20 C19 1_555 1_555
O7 C20 1_555 1_555
O8 C20 1_555 1_555
Ni2 O7 1_555 1_555
N2 Ni2 1_555 1_555
N3 Ni2 1_555 1_555
O9 Ni2 1_555 1_555
O10 Ni2 1_555 1_555
N4 Ni2 1_555 1_555
C21 N2 1_555 1_555
C22 N2 1_555 1_555
C23 N3 1_555 1_555
C24 N3 1_555 1_555
H12 C21 1_555 1_555
C25 C21 1_555 1_555
H13 C22 1_555 1_555
C26 C22 1_555 1_555
H14 C23 1_555 1_555
C27 C23 1_555 1_555
H15 C24 1_555 1_555
C28 C24 1_555 1_555
H16 C25 1_555 1_555
C29 C25 1_555 1_555
H17 C26 1_555 1_555
H18 C27 1_555 1_555
C30 C27 1_555 1_555
H19 C28 1_555 1_555
C31 C29 1_555 1_555
C32 C31 1_555 1_555
C33 C31 1_555 1_555
H20 C32 1_555 1_555
C34 C32 1_555 1_555
H21 C33 1_555 1_555
C35 C33 1_555 1_555
H22 C34 1_555 1_555
H23 C35 1_555 1_555
O11 H24 1_555 1_555
O12 H25 1_555 1_555
H26 O12 1_555 1_555
O13 H27 1_555 1_555
H28 O13 1_555 1_555
O2A Ni1 1_555 1_555
N1A Ni1 1_555 1_555
O1A Ni1 1_555 1_555
C7A C7 1_555 1_555
C5A C7A 1_555 1_555
C4A C7A 1_555 1_555
C2A C5A 1_555 1_555
H4A C5A 1_555 1_555
C1A C4A 1_555 1_555
H3A C4A 1_555 1_555
H2A C2A 1_555 1_555
N1A_2 C2A 1_555 1_555
H1A C1A 1_555 1_555
Ni1_2 N1A_2 1_555 1_555
C30A C30 1_555 1_555
C27A C30A 1_555 1_555
C28A C30A 1_555 1_555
C23A C27A 1_555 1_555
H18A C27A 1_555 1_555
C24A C28A 1_555 1_555
H19A C28A 1_555 1_555
N4_2 C34 1_555 1_555
H14A C23A 1_555 1_555
N3A C23A 1_555 1_555
H15A C24A 1_555 1_555
Ni2_2 N4_2 1_555 1_555
Ni2A N3A 1_555 1_555
N2A Ni2A 1_555 1_555
O7A Ni2A 1_555 1_555
O9A Ni2A 1_555 1_555
O10A Ni2A 1_555 1_555
N4A Ni2A 1_555 1_555
C21A N2A 1_555 1_555
C22A N2A 1_555 1_555
C20A O7A 1_555 1_555
H12A C21A 1_555 1_555
C25A C21A 1_555 1_555
H13A C22A 1_555 1_555
C26A C22A 1_555 1_555
C19A C20A 1_555 1_555
O8A C20A 1_555 1_555
H16A C25A 1_555 1_555
C29A C25A 1_555 1_555
H17A C26A 1_555 1_555
C17A C19A 1_555 1_555
C18A C19A 1_555 1_555
C31A C29A 1_555 1_555
H10A C17A 1_555 1_555
C15A C17A 1_555 1_555
H11A C18A 1_555 1_555
C16A C18A 1_555 1_555
C32A C31A 1_555 1_555
C33A C31A 1_555 1_555
H8A C15A 1_555 1_555
C14A C15A 1_555 1_555
H9A C16A 1_555 1_555
H20A C32A 1_555 1_555
C34A C32A 1_555 1_555
H21A C33A 1_555 1_555
C35A C33A 1_555 1_555
O4A C14A 1_555 1_555
H22A C34A 1_555 1_555
N4A_2 C34A 1_555 1_555
H23A C35A 1_555 1_555
C10A O4A 1_555 1_555
Ni2A_2 N4A_2 1_555 1_555
C13A C10A 1_555 1_555
C8A C10A 1_555 1_555
H7A C13A 1_555 1_555
C11A C13A 1_555 1_555
H5A C8A 1_555 1_555
C6A C8A 1_555 1_555
H6A C11A 1_555 1_555
C9A C11A 1_555 1_555
C3A C6A 1_555 1_555
C12A C9A 1_555 1_555
O3A C3A 1_555 1_555
O1A_2 C3A 1_555 1_555
O5A C12A 1_555 1_555
O6A C12A 1_555 1_555
Ni1_3 O1A_2 1_555 1_555
C5 C7 1_555 1_555
C11 C13 1_555 1_555
C18 C19 1_555 1_555
C26 C29 1_555 1_555
C28 C30 1_555 1_555
C35 N4_2 1_555 1_555
C1A N1A_2 1_555 1_555
C24A N3A 1_555 1_555
C26A C29A 1_555 1_555
C16A C14A 1_555 1_555
C35A N4A_2 1_555 1_555
C6A C9A 1_555 1_555

#END
