
#######################################################################
#
#                 Cambridge Crystallographic Data Centre
#                                CCDC 
#
#######################################################################
#
# If this CIF has been generated from an entry in the Cambridge 
# Structural Database, then it will include bibliographic, chemical, 
# crystal, experimental, refinement or atomic coordinate data resulting 
# from the CCDC's data processing and validation procedures.
#
#######################################################################

data_NOPLIP
_symmetry_cell_setting           triclinic
_symmetry_space_group_name_H-M   'P -1'
_symmetry_Int_Tables_number      2
_space_group_name_Hall           '-P 1'
loop_
_symmetry_equiv_pos_site_id
_symmetry_equiv_pos_as_xyz
1 x,y,z
2 -x,-y,-z
_cell_length_a                   9.3173(6)
_cell_length_b                   10.4833(6)
_cell_length_c                   14.0375(8)
_cell_angle_alpha                97.468(2)
_cell_angle_beta                 96.161(2)
_cell_angle_gamma                91.980(2)
_cell_volume                     1350.01
loop_
_atom_site_label
_atom_site_type_symbol
_atom_site_fract_x
_atom_site_fract_y
_atom_site_fract_z
C1 C 0.8599(3) 0.7294(2) 0.75673(18)
C2 C 0.8043(3) 0.6433(2) 0.82232(17)
C3 C 0.8810(3) 0.6308(3) 0.9111(2)
H1 H 0.9680 0.6777 0.9310
C4 C 0.8275(3) 0.5483(3) 0.9700(2)
H2 H 0.8783 0.5410 1.0296
C5 C 0.6985(3) 0.4763(3) 0.94060(18)
C6 C 0.6186(3) 0.4927(3) 0.85374(19)
H3 H 0.5300 0.4480 0.8348
C7 C 0.6719(3) 0.5762(3) 0.79571(18)
H4 H 0.6181 0.5875 0.7379
C8 C 0.5555(3) 0.2907(3) 0.9806(2)
C9 C 0.5413(3) 0.2073(3) 1.0585(2)
C10 C 0.6538(4) 0.1878(3) 1.1277(3)
H5 H 0.7426 0.2307 1.1271
C11 C 0.6406(4) 0.1098(3) 1.1956(3)
H6 H 0.7187 0.0974 1.2400
C12 C 0.5136(5) 0.0518(4) 1.1972(3)
H7 H 0.5034 -0.0006 1.2449
C13 C 0.4101(4) 0.1419(3) 1.0600(3)
H8 H 0.3331 0.1498 1.0136
C14 C 0.9898(3) 0.7368(3) 0.4510(2)
H9 H 0.9202 0.7908 0.4291
C15 C 1.0452(3) 0.6488(3) 0.3847(2)
H10 H 1.0133 0.6436 0.3191
C16 C 1.1494(3) 0.5676(3) 0.41707(19)
H11 H 1.1889 0.5082 0.3733
C17 C 1.1934(2) 0.5763(2) 0.51498(17)
C18 C 1.1329(3) 0.6686(2) 0.57704(19)
H12 H 1.1634 0.6759 0.6429
C19 C 1.3057(2) 0.4974(2) 0.56076(17)
C20 C 1.4467(2) 0.3032(2) 0.53437(17)
C21 C 1.4995(3) 0.2215(2) 0.4606(2)
H13 H 1.4655 0.2249 0.3963
C22 C 1.6030(3) 0.1354(2) 0.4842(2)
H14 H 1.6381 0.0809 0.4352
C23 C 1.6550(3) 0.1293(2) 0.5798(2)
C24 C 1.5989(3) 0.2080(3) 0.6521(2)
H15 H 1.6320 0.2035 0.7164
C25 C 1.4939(3) 0.2938(3) 0.6300(2)
H16 H 1.4554 0.3448 0.6794
C26 C 1.7700(3) 0.0399(3) 0.6054(3)
N1 N 0.6552(3) 0.3903(2) 1.00252(17)
H17 H 0.6967 0.4025 1.0609
N2 N 0.3945(4) 0.0641(4) 1.1319(3)
N3 N 1.0332(2) 0.7472(2) 0.54658(17)
N4 N 1.3426(2) 0.3906(2) 0.50594(14)
H18 H 1.2987 0.3739 0.4483
O1 O 0.4809(3) 0.2666(3) 0.9026(2)
O2 O 0.7918(2) 0.7329(2) 0.67481(14)
O3 O 0.9740(2) 0.7992(2) 0.78212(15)
O4 O 1.3590(2) 0.5324(2) 0.64457(14)
O5 O 1.8143(3) 0.0351(3) 0.6927(3)
O6 O 1.8217(3) -0.0302(2) 0.5380(3)
O7 O 1.1438(3) 0.9859(2) 0.6840(2)
Zn1 Zn 0.95199(3) 0.88117(3) 0.64842(2)
O5_2 O 0.8143(3) 1.0351(3) 0.6927(3)
O6_2 O 0.8217(3) 0.9698(2) 0.5380(3)
Zn1_2 Zn 1.95199(3) -0.11883(3) 0.64842(2)
O8 O 0.2124(3) 0.5139(3) 0.80587(18)
O9 O 0.2018(4) 0.2383(4) 0.7986(3)
O10 O 0.9346(7) 0.1956(7) 0.8680(5)
loop_
_geom_bond_atom_site_label_1
_geom_bond_atom_site_label_2
_geom_bond_site_symmetry_1
_geom_bond_site_symmetry_2
C1 C2 1_555 1_555
C2 C3 1_555 1_555
C3 H1 1_555 1_555
C4 C3 1_555 1_555
H2 C4 1_555 1_555
C5 C4 1_555 1_555
C6 C5 1_555 1_555
H3 C6 1_555 1_555
C7 C2 1_555 1_555
H4 C7 1_555 1_555
C8 C9 1_555 1_555
C9 C10 1_555 1_555
C10 H5 1_555 1_555
C11 C10 1_555 1_555
H6 C11 1_555 1_555
C12 C11 1_555 1_555
H7 C12 1_555 1_555
C13 C9 1_555 1_555
H8 C13 1_555 1_555
C14 H9 1_555 1_555
C15 C14 1_555 1_555
H10 C15 1_555 1_555
C16 C15 1_555 1_555
H11 C16 1_555 1_555
C17 C16 1_555 1_555
C18 C17 1_555 1_555
H12 C18 1_555 1_555
C19 C17 1_555 1_555
C20 C21 1_555 1_555
C21 H13 1_555 1_555
C22 C21 1_555 1_555
H14 C22 1_555 1_555
C23 C22 1_555 1_555
C24 C23 1_555 1_555
H15 C24 1_555 1_555
C25 C20 1_555 1_555
H16 C25 1_555 1_555
C26 C23 1_555 1_555
N1 C5 1_555 1_555
H17 N1 1_555 1_555
N2 C12 1_555 1_555
N3 C14 1_555 1_555
N4 C19 1_555 1_555
H18 N4 1_555 1_555
O1 C8 1_555 1_555
O2 C1 1_555 1_555
O3 C1 1_555 1_555
O4 C19 1_555 1_555
O5 C26 1_555 1_555
O6 C26 1_555 1_555
O7 Zn1 1_555 1_555
Zn1 N3 1_555 1_555
O5_2 Zn1 1_555 1_555
O6_2 Zn1 1_555 1_555
Zn1_2 O5 1_555 1_555
C6 C7 1_555 1_555
C8 N1 1_555 1_555
C13 N2 1_555 1_555
C18 N3 1_555 1_555
C20 N4 1_555 1_555
C24 C25 1_555 1_555
O2 Zn1 1_555 1_555
O3 Zn1 1_555 1_555
O6 Zn1_2 1_555 1_555

#END
