
#######################################################################
#
#                 Cambridge Crystallographic Data Centre
#                                CCDC 
#
#######################################################################
#
# If this CIF has been generated from an entry in the Cambridge 
# Structural Database, then it will include bibliographic, chemical, 
# crystal, experimental, refinement or atomic coordinate data resulting 
# from the CCDC's data processing and validation procedures.
#
#######################################################################

data_NOPMIQ
_symmetry_cell_setting           monoclinic
_symmetry_space_group_name_H-M   'P 21/n'
_symmetry_Int_Tables_number      14
_space_group_name_Hall           '-P 2yn'
loop_
_symmetry_equiv_pos_site_id
_symmetry_equiv_pos_as_xyz
1 x,y,z
2 1/2-x,1/2+y,1/2-z
3 -x,-y,-z
4 1/2+x,1/2-y,1/2+z
_cell_length_a                   9.0273(8)
_cell_length_b                   9.6688(8)
_cell_length_c                   15.3406(12)
_cell_angle_alpha                90
_cell_angle_beta                 99.176(3)
_cell_angle_gamma                90
_cell_volume                     1321.84
loop_
_atom_site_label
_atom_site_type_symbol
_atom_site_fract_x
_atom_site_fract_y
_atom_site_fract_z
C1 C 0.8647(4) 0.7230(4) 0.9790(2)
H1 H 0.8318 0.7598 0.9233
C2 C 0.8124(4) 0.5934(4) 0.9984(2)
C3 C 0.8659(5) 0.5364(4) 1.0806(3)
H2 H 0.8342 0.4493 1.0958
C4 C 0.9672(5) 0.6114(4) 1.1396(3)
H3 H 1.0059 0.5748 1.1946
C5 C 1.0104(4) 0.7424(4) 1.1154(3)
H4 H 1.0766 0.7934 1.1557
C6 C 0.6965(4) 0.5314(3) 0.9286(3)
C7 C 0.5384(4) 0.3321(4) 0.8796(2)
C8 C 0.4530(4) 0.2301(4) 0.9123(3)
H5 H 0.4716 0.2068 0.9719
C9 C 0.3401(4) 0.1632(4) 0.8557(3)
H6 H 0.2844 0.0940 0.8774
C10 C 0.3096(4) 0.1988(4) 0.7668(3)
H7 H 0.2318 0.1557 0.7296
C11 C 0.3964(4) 0.2995(3) 0.7337(2)
C12 C 0.5126(4) 0.3630(4) 0.7900(2)
H8 H 0.5736 0.4269 0.7675
C13 C 0.3682(4) 0.3443(3) 0.6385(2)
N1 N 0.9597(4) 0.7977(3) 1.0360(2)
N2 N 0.6522(4) 0.4002(3) 0.9387(2)
H9 H 0.688(5) 0.366(5) 0.982(3)
O1 O 0.6446(4) 0.6023(3) 0.8645(2)
O2 O 0.4598(3) 0.4315(3) 0.61672(16)
O3 O 0.2557(3) 0.2964(3) 0.58782(17)
O4 O 1.2456(3) 0.9649(3) 1.0612(2)
Cu1 Cu 1.0000 1.0000 1.0000
C1B C 1.1353(4) 1.2770(4) 1.0210(2)
H1B H 1.1682 1.2402 1.0767
C2B C 1.1876(4) 1.4066(4) 1.0016(2)
C3B C 1.1341(5) 1.4636(4) 0.9194(3)
H2B H 1.1658 1.5507 0.9042
C4B C 1.0328(5) 1.3886(4) 0.8604(3)
H3B H 0.9941 1.4252 0.8054
C5B C 0.9896(4) 1.2576(4) 0.8846(3)
H4B H 0.9234 1.2066 0.8443
C6B C 1.3035(4) 1.4686(3) 1.0714(3)
C7B C 1.4616(4) 1.6679(4) 1.1204(2)
C8B C 1.5470(4) 1.7699(4) 1.0877(3)
H5B H 1.5284 1.7932 1.0281
C9B C 1.6599(4) 1.8368(4) 1.1443(3)
H6B H 1.7156 1.9060 1.1226
C10B C 1.6904(4) 1.8012(4) 1.2332(3)
H7B H 1.7682 1.8443 1.2704
C11B C 1.6036(4) 1.7005(3) 1.2663(2)
C12B C 1.4874(4) 1.6370(4) 1.2100(2)
H8B H 1.4264 1.5731 1.2325
C13B C 1.6318(4) 1.6557(3) 1.3615(2)
N1B N 1.0403(4) 1.2023(3) 0.9640(2)
N2B N 1.3478(4) 1.5998(3) 1.0613(2)
H9B H 1.312(5) 1.634(5) 1.018(3)
O1B O 1.3554(4) 1.3977(3) 1.1355(2)
O2B O 1.5402(3) 1.5685(3) 1.38328(16)
O3B O 1.7443(3) 1.7036(3) 1.41218(17)
O4B O 0.7544(3) 1.0351(3) 0.9388(2)
O2A O 1.0402(3) 0.9315(3) 0.88328(16)
O2C O 0.9598(3) 1.0685(3) 1.11672(16)
Cu1A Cu 0.5000 0.5000 0.5000
Cu1A_2 Cu 1.5000 1.5000 1.5000
O5 O 0.0308(4) 0.6363(3) 0.3590(2)
loop_
_geom_bond_atom_site_label_1
_geom_bond_atom_site_label_2
_geom_bond_site_symmetry_1
_geom_bond_site_symmetry_2
C1 H1 1_555 1_555
C2 C1 1_555 1_555
C3 C2 1_555 1_555
H2 C3 1_555 1_555
C4 C3 1_555 1_555
H3 C4 1_555 1_555
C5 C4 1_555 1_555
H4 C5 1_555 1_555
C6 C2 1_555 1_555
C7 C8 1_555 1_555
C8 H5 1_555 1_555
C9 C8 1_555 1_555
H6 C9 1_555 1_555
C10 C9 1_555 1_555
H7 C10 1_555 1_555
C11 C10 1_555 1_555
C12 C7 1_555 1_555
H8 C12 1_555 1_555
C13 C11 1_555 1_555
N1 C1 1_555 1_555
N2 C6 1_555 1_555
H9 N2 1_555 1_555
O1 C6 1_555 1_555
O2 C13 1_555 1_555
O3 C13 1_555 1_555
O4 Cu1 1_555 1_555
Cu1 N1 1_555 1_555
C1B H1B 1_555 1_555
C2B C1B 1_555 1_555
C3B C2B 1_555 1_555
H2B C3B 1_555 1_555
C4B C3B 1_555 1_555
H3B C4B 1_555 1_555
C5B C4B 1_555 1_555
H4B C5B 1_555 1_555
C6B C2B 1_555 1_555
C7B C8B 1_555 1_555
C8B H5B 1_555 1_555
C9B C8B 1_555 1_555
H6B C9B 1_555 1_555
C10B C9B 1_555 1_555
H7B C10B 1_555 1_555
C11B C10B 1_555 1_555
C12B C7B 1_555 1_555
H8B C12B 1_555 1_555
C13B C11B 1_555 1_555
N1B Cu1 1_555 1_555
N2B C6B 1_555 1_555
H9B N2B 1_555 1_555
O1B C6B 1_555 1_555
O2B C13B 1_555 1_555
O3B C13B 1_555 1_555
O4B Cu1 1_555 1_555
O2A Cu1 1_555 1_555
O2C Cu1 1_555 1_555
Cu1A O2 1_555 1_555
Cu1A_2 O2B 1_555 1_555
C5 N1 1_555 1_555
C7 N2 1_555 1_555
C11 C12 1_555 1_555
C1B N1B 1_555 1_555
C5B N1B 1_555 1_555
C7B N2B 1_555 1_555
C11B C12B 1_555 1_555

#END
