
#######################################################################
#
#                 Cambridge Crystallographic Data Centre
#                                CCDC 
#
#######################################################################
#
# If this CIF has been generated from an entry in the Cambridge 
# Structural Database, then it will include bibliographic, chemical, 
# crystal, experimental, refinement or atomic coordinate data resulting 
# from the CCDC's data processing and validation procedures.
#
#######################################################################

data_NOPMOW
_symmetry_cell_setting           monoclinic
_symmetry_space_group_name_H-M   'P 21/n'
_symmetry_Int_Tables_number      14
_space_group_name_Hall           '-P 2yn'
loop_
_symmetry_equiv_pos_site_id
_symmetry_equiv_pos_as_xyz
1 x,y,z
2 1/2-x,1/2+y,1/2-z
3 -x,-y,-z
4 1/2+x,1/2-y,1/2+z
_cell_length_a                   8.7930(10)
_cell_length_b                   9.8082(11)
_cell_length_c                   15.5768(18)
_cell_angle_alpha                90
_cell_angle_beta                 100.664(3)
_cell_angle_gamma                90
_cell_volume                     1320.2
loop_
_atom_site_label
_atom_site_type_symbol
_atom_site_fract_x
_atom_site_fract_y
_atom_site_fract_z
C1 C -0.13222(10) 0.15903(9) 0.13767(5)
C2 C -0.10491(10) 0.20558(9) 0.23138(5)
C3 C -0.19672(10) 0.30515(9) 0.26088(6)
H1 H -0.2766 0.3467 0.2222
C4 C -0.16721(10) 0.34148(9) 0.34882(6)
H2 H -0.2249 0.4104 0.3684
C5 C -0.05227(10) 0.27558(9) 0.40772(6)
H3 H -0.0351 0.2990 0.4666
C6 C 0.03733(10) 0.17418(9) 0.37823(6)
C7 C 0.01373(10) 0.14236(9) 0.28964(6)
H4 H 0.0772 0.0789 0.2693
C8 C 0.19046(11) -0.02662(10) 0.43087(6)
C9 C 0.30951(10) -0.08902(9) 0.50113(6)
C10 C 0.36372(11) -0.03442(10) 0.58369(6)
H5 H 0.3307 0.0509 0.5988
C11 C 0.46839(11) -0.11028(10) 0.64308(6)
H6 H 0.5077 -0.0757 0.6983
C12 C 0.51333(10) -0.23846(10) 0.61870(6)
H7 H 0.5814 -0.2893 0.6591
C13 C 0.36450(10) -0.21675(9) 0.48179(6)
H8 H 0.3313 -0.2517 0.4260
N1 N 0.15136(9) 0.10529(8) 0.43973(5)
H9 H 0.1976 0.1496 0.4847
N2 N 0.46228(9) -0.29183(8) 0.53895(5)
O1 O -0.03408(7) 0.07670(7) 0.11757(4)
O2 O -0.25154(8) 0.20141(7) 0.08591(4)
O3 O 0.13148(10) -0.09683(8) 0.36780(5)
O4 O 0.23367(8) -0.03207(8) 0.05272(5)
H10 H 0.2710 -0.0846 0.0213
H11 H 0.305(2) 0.0222(18) 0.0764(12)
Co1 Co 0.0000 0.0000 0.0000
C1B C 0.13222(10) -0.15903(9) -0.13767(5)
C2B C 0.10491(10) -0.20558(9) -0.23138(5)
C3B C 0.19672(10) -0.30515(9) -0.26088(6)
H1B H 0.2766 -0.3467 -0.2222
C4B C 0.16721(10) -0.34148(9) -0.34882(6)
H2B H 0.2249 -0.4104 -0.3684
C5B C 0.05227(10) -0.27558(9) -0.40772(6)
H3B H 0.0351 -0.2990 -0.4666
C6B C -0.03733(10) -0.17418(9) -0.37823(6)
C7B C -0.01373(10) -0.14236(9) -0.28964(6)
H4B H -0.0772 -0.0789 -0.2693
C8B C -0.19046(11) 0.02662(10) -0.43087(6)
C9B C -0.30951(10) 0.08902(9) -0.50113(6)
C10B C -0.36372(11) 0.03442(10) -0.58369(6)
H5B H -0.3307 -0.0509 -0.5988
C11B C -0.46839(11) 0.11028(10) -0.64308(6)
H6B H -0.5077 0.0757 -0.6983
C12B C -0.51333(10) 0.23846(10) -0.61870(6)
H7B H -0.5814 0.2893 -0.6591
C13B C -0.36450(10) 0.21675(9) -0.48179(6)
H8B H -0.3313 0.2517 -0.4260
N1B N -0.15136(9) -0.10529(8) -0.43973(5)
H9B H -0.1976 -0.1496 -0.4847
N2B N -0.46228(9) 0.29183(8) -0.53895(5)
O1B O 0.03408(7) -0.07670(7) -0.11757(4)
O2B O 0.25154(8) -0.20141(7) -0.08591(4)
O3B O -0.13148(10) 0.09683(8) -0.36780(5)
O4B O -0.23367(8) 0.03207(8) -0.05272(5)
H10B H -0.2710 0.0846 -0.0213
H11B H -0.305(2) -0.0222(18) -0.0764(12)
N2A N 0.03772(9) 0.20817(8) -0.03895(5)
N2C N -0.03772(9) -0.20817(8) 0.03895(5)
Co1A Co -0.5000 0.5000 -0.5000
Co1A_2 Co 0.5000 -0.5000 0.5000
O5 O 0.45805(8) 0.13604(8) 0.13676(5)
H12 H 0.425(2) 0.222(2) 0.1355(13)
H13 H 0.558(2) 0.142(2) 0.1252(12)
loop_
_geom_bond_atom_site_label_1
_geom_bond_atom_site_label_2
_geom_bond_site_symmetry_1
_geom_bond_site_symmetry_2
C1 C2 1_555 1_555
C2 C3 1_555 1_555
C3 H1 1_555 1_555
C4 C3 1_555 1_555
H2 C4 1_555 1_555
C5 C4 1_555 1_555
H3 C5 1_555 1_555
C6 C5 1_555 1_555
C7 C2 1_555 1_555
H4 C7 1_555 1_555
C8 C9 1_555 1_555
C9 C10 1_555 1_555
C10 H5 1_555 1_555
C11 C10 1_555 1_555
H6 C11 1_555 1_555
C12 C11 1_555 1_555
H7 C12 1_555 1_555
C13 C9 1_555 1_555
H8 C13 1_555 1_555
N1 C6 1_555 1_555
H9 N1 1_555 1_555
N2 C12 1_555 1_555
O1 C1 1_555 1_555
O2 C1 1_555 1_555
O3 C8 1_555 1_555
O4 H10 1_555 1_555
H11 O4 1_555 1_555
Co1 O1 1_555 1_555
O5 H12 1_555 1_555
H13 O5 1_555 1_555
C1B C2B 1_555 1_555
C2B C3B 1_555 1_555
C3B H1B 1_555 1_555
C4B C3B 1_555 1_555
H2B C4B 1_555 1_555
C5B C4B 1_555 1_555
H3B C5B 1_555 1_555
C6B C5B 1_555 1_555
C7B C2B 1_555 1_555
H4B C7B 1_555 1_555
C8B C9B 1_555 1_555
C9B C10B 1_555 1_555
C10B H5B 1_555 1_555
C11B C10B 1_555 1_555
H6B C11B 1_555 1_555
C12B C11B 1_555 1_555
H7B C12B 1_555 1_555
C13B C9B 1_555 1_555
H8B C13B 1_555 1_555
N1B C6B 1_555 1_555
H9B N1B 1_555 1_555
N2B C12B 1_555 1_555
O1B Co1 1_555 1_555
O2B C1B 1_555 1_555
O3B C8B 1_555 1_555
O4B Co1 1_555 1_555
H10B O4B 1_555 1_555
H11B O4B 1_555 1_555
N2A Co1 1_555 1_555
N2C Co1 1_555 1_555
Co1A N2B 1_555 1_555
Co1A_2 N2 1_555 1_555
C6 C7 1_555 1_555
C8 N1 1_555 1_555
C13 N2 1_555 1_555
O4 Co1 1_555 1_555
C1B O1B 1_555 1_555
C6B C7B 1_555 1_555
C8B N1B 1_555 1_555
C13B N2B 1_555 1_555

#END
