
#######################################################################
#
#                 Cambridge Crystallographic Data Centre
#                                CCDC 
#
#######################################################################
#
# If this CIF has been generated from an entry in the Cambridge 
# Structural Database, then it will include bibliographic, chemical, 
# crystal, experimental, refinement or atomic coordinate data resulting 
# from the CCDC's data processing and validation procedures.
#
#######################################################################

data_NOPMAI
_symmetry_cell_setting           monoclinic
_symmetry_space_group_name_H-M   'P 21/n'
_symmetry_Int_Tables_number      14
_space_group_name_Hall           '-P 2yn'
loop_
_symmetry_equiv_pos_site_id
_symmetry_equiv_pos_as_xyz
1 x,y,z
2 1/2-x,1/2+y,1/2-z
3 -x,-y,-z
4 1/2+x,1/2-y,1/2+z
_cell_length_a                   7.7788(3)
_cell_length_b                   12.5459(4)
_cell_length_c                   13.3501(5)
_cell_angle_alpha                90
_cell_angle_beta                 101.4830(10)
_cell_angle_gamma                90
_cell_volume                     1276.79
loop_
_atom_site_label
_atom_site_type_symbol
_atom_site_fract_x
_atom_site_fract_y
_atom_site_fract_z
C1 C 0.2495(2) 0.57616(10) -0.04657(10)
H1 H 0.2535 0.6476 -0.0277
C2 C 0.21242(19) 0.54775(10) -0.14930(10)
H2 H 0.1924 0.6008 -0.1989
C3 C 0.20464(17) 0.44133(10) -0.17931(9)
C4 C 0.23791(19) 0.36247(10) -0.10420(10)
H3 H 0.2340 0.2910 -0.1230
C5 C 0.27664(19) 0.39007(10) -0.00185(10)
H4 H 0.3002 0.3369 0.0476
C6 C 0.28068(19) 0.49666(9) 0.02803(10)
C7 C 0.32882(17) 0.61001(10) 0.18375(9)
C8 C 0.35193(17) 0.60275(10) 0.29750(9)
C9 C 0.46985(18) 0.66952(10) 0.36051(10)
H5 H 0.5414 0.7159 0.3330
C10 C 0.47820(18) 0.66526(11) 0.46518(10)
H6 H 0.5614 0.7050 0.5095
C11 C 0.36070(18) 0.60093(10) 0.50273(9)
H7 H 0.3652 0.5998 0.5729
C12 C 0.24209(17) 0.53840(10) 0.34197(9)
H8 H 0.1663 0.4921 0.3003
C13 C 0.15767(17) 0.41223(10) -0.29032(9)
N1 N 0.24061(15) 0.54015(9) 0.44232(8)
N2 N 0.31797(16) 0.51616(8) 0.13443(8)
H9 H 0.3361 0.4605 0.1727
O1 O 0.12948(14) 0.31598(7) -0.31494(7)
O2 O 0.14627(14) 0.48911(7) -0.35347(7)
O3 O 0.02027(14) 0.33084(8) 0.48238(7)
H10 H 0.0551 0.3034 0.5385
H11 H 0.070(3) 0.2951(18) 0.4436(17)
O4 O 0.31597(14) 0.69959(7) 0.14292(7)
Fe1 Fe 0.0000 0.5000 0.5000
C1B C -0.2495(2) 0.42384(10) 0.04657(10)
H1B H -0.2535 0.3524 0.0277
C2B C -0.21242(19) 0.45225(10) 0.14930(10)
H2B H -0.1924 0.3992 0.1989
C3B C -0.20464(17) 0.55867(10) 0.17931(9)
C4B C -0.23791(19) 0.63753(10) 0.10420(10)
H3B H -0.2340 0.7090 0.1230
C5B C -0.27664(19) 0.60993(10) 0.00185(10)
H4B H -0.3002 0.6631 -0.0476
C6B C -0.28068(19) 0.50334(9) -0.02803(10)
C7B C -0.32882(17) 0.38999(10) -0.18375(9)
C8B C -0.35193(17) 0.39725(10) -0.29750(9)
C9B C -0.46985(18) 0.33048(10) -0.36051(10)
H5B H -0.5414 0.2841 -0.3330
C10B C -0.47820(18) 0.33474(11) -0.46518(10)
H6B H -0.5614 0.2950 -0.5095
C11B C -0.36070(18) 0.39907(10) -0.50273(9)
H7B H -0.3652 0.4002 -0.5729
C12B C -0.24209(17) 0.46160(10) -0.34197(9)
H8B H -0.1663 0.5079 -0.3003
C13B C -0.15767(17) 0.58777(10) 0.29032(9)
N1B N -0.24061(15) 0.45985(9) -0.44232(8)
N2B N -0.31797(16) 0.48384(8) -0.13443(8)
H9B H -0.3361 0.5395 -0.1727
O1B O -0.12948(14) 0.68402(7) 0.31494(7)
O2B O -0.14627(14) 0.51089(7) 0.35347(7)
O4B O -0.31597(14) 0.30041(7) -0.14292(7)
O3B O -0.02027(14) 0.66916(8) 0.51762(7)
H10B H -0.0551 0.6966 0.4615
H11B H -0.070(3) 0.7049(18) 0.5564(17)
N1B_2 N -0.24061(15) 0.45985(9) 0.55768(8)
O2_2 O 0.14627(14) 0.48911(7) 0.64653(7)
Fe1_2 Fe 0.0000 0.5000 -0.5000
O5 O 0.08917(16) 0.83131(8) 0.24258(8)
H12 H 0.163(3) 0.7956(18) 0.2206(17)
H13 H 0.022(3) 0.7913(18) 0.2583(16)
loop_
_geom_bond_atom_site_label_1
_geom_bond_atom_site_label_2
_geom_bond_site_symmetry_1
_geom_bond_site_symmetry_2
C1 H1 1_555 1_555
C2 C1 1_555 1_555
H2 C2 1_555 1_555
C3 C2 1_555 1_555
C4 C3 1_555 1_555
H3 C4 1_555 1_555
C5 C4 1_555 1_555
H4 C5 1_555 1_555
C6 C1 1_555 1_555
C7 C8 1_555 1_555
C8 C9 1_555 1_555
C9 H5 1_555 1_555
C10 C9 1_555 1_555
H6 C10 1_555 1_555
C11 C10 1_555 1_555
H7 C11 1_555 1_555
C12 C8 1_555 1_555
H8 C12 1_555 1_555
C13 C3 1_555 1_555
N1 C11 1_555 1_555
N2 C6 1_555 1_555
H9 N2 1_555 1_555
O1 C13 1_555 1_555
O2 C13 1_555 1_555
O3 H10 1_555 1_555
H11 O3 1_555 1_555
O4 C7 1_555 1_555
Fe1 N1 1_555 1_555
O5 H12 1_555 1_555
H13 O5 1_555 1_555
C1B H1B 1_555 1_555
C2B C1B 1_555 1_555
H2B C2B 1_555 1_555
C3B C2B 1_555 1_555
C4B C3B 1_555 1_555
H3B C4B 1_555 1_555
C5B C4B 1_555 1_555
H4B C5B 1_555 1_555
C6B C1B 1_555 1_555
C7B C8B 1_555 1_555
C8B C9B 1_555 1_555
C9B H5B 1_555 1_555
C10B C9B 1_555 1_555
H6B C10B 1_555 1_555
C11B C10B 1_555 1_555
H7B C11B 1_555 1_555
C12B C8B 1_555 1_555
H8B C12B 1_555 1_555
C13B C3B 1_555 1_555
N1B C11B 1_555 1_555
N2B C6B 1_555 1_555
H9B N2B 1_555 1_555
O1B C13B 1_555 1_555
O2B Fe1 1_555 1_555
O4B C7B 1_555 1_555
O3B Fe1 1_555 1_555
H10B O3B 1_555 1_555
H11B O3B 1_555 1_555
N1B_2 Fe1 1_555 1_555
O2_2 Fe1 1_555 1_555
Fe1_2 O2 1_555 1_555
C5 C6 1_555 1_555
C7 N2 1_555 1_555
C12 N1 1_555 1_555
O3 Fe1 1_555 1_555
C5B C6B 1_555 1_555
C7B N2B 1_555 1_555
C12B N1B 1_555 1_555
C13B O2B 1_555 1_555
N1B Fe1_2 1_555 1_555

#END
