
#######################################################################
#
#                 Cambridge Crystallographic Data Centre
#                                CCDC 
#
#######################################################################
#
# If this CIF has been generated from an entry in the Cambridge 
# Structural Database, then it will include bibliographic, chemical, 
# crystal, experimental, refinement or atomic coordinate data resulting 
# from the CCDC's data processing and validation procedures.
#
#######################################################################

data_NOPQUG
_symmetry_cell_setting           triclinic
_symmetry_space_group_name_H-M   'P -1'
_symmetry_Int_Tables_number      2
_space_group_name_Hall           '-P 1'
loop_
_symmetry_equiv_pos_site_id
_symmetry_equiv_pos_as_xyz
1 x,y,z
2 -x,-y,-z
_cell_length_a                   10.8092(7)
_cell_length_b                   11.6881(8)
_cell_length_c                   14.3895(10)
_cell_angle_alpha                110.4090(10)
_cell_angle_beta                 93.6660(10)
_cell_angle_gamma                94.6660(10)
_cell_volume                     1689.88
loop_
_atom_site_label
_atom_site_type_symbol
_atom_site_fract_x
_atom_site_fract_y
_atom_site_fract_z
Ni1 Ni 0.226822(16) 0.026552(15) 0.830071(13)
C1 C -0.03177(13) 0.06232(13) 0.75208(10)
C2 C -0.21483(14) 0.11658(14) 0.91050(11)
C3 C -0.12829(12) 0.15205(13) 0.76090(10)
C4 C -0.21316(13) 0.17768(14) 0.83327(11)
C5 C -0.30133(15) 0.25820(16) 0.83325(12)
H1 H -0.3577 0.2744 0.8812
C6 C -0.30668(16) 0.31454(17) 0.76311(14)
H2 H -0.3640 0.3704 0.7654
C7 C -0.22580(16) 0.28681(17) 0.68959(13)
H3 H -0.2296 0.3224 0.6410
C8 C -0.13973(13) 0.20621(14) 0.68899(11)
C9 C 0.04155(14) 0.23428(14) 0.60932(11)
C10 C 0.08471(15) 0.34452(15) 0.68431(12)
H4 H 0.0365 0.3801 0.7359
C11 C 0.10910(16) 0.18357(16) 0.52923(12)
H5 H 0.0768 0.1118 0.4774
C12 C 0.20123(15) 0.40079(15) 0.68097(12)
H6 H 0.2313 0.4750 0.7310
C13 C 0.22545(16) 0.24112(16) 0.52729(13)
H7 H 0.2717 0.2076 0.4739
C14 C 0.27376(14) 0.34861(14) 0.60460(12)
C15 C 0.40239(16) 0.40642(16) 0.60800(14)
C16 C 0.27125(14) -0.01899(15) 0.61387(11)
H8 H 0.1846 -0.0326 0.6048
C17 C 0.45299(14) 0.01734(15) 0.71376(11)
H9 H 0.4949 0.0300 0.7756
C18 C 0.33464(14) -0.02097(16) 0.53291(11)
H10 H 0.2903 -0.0355 0.4716
C19 C 0.52292(14) 0.01578(16) 0.63613(11)
H11 H 0.6095 0.0262 0.6466
C20 C 0.46433(13) -0.00133(13) 0.54251(10)
C21 C 0.33396(15) 0.28014(14) 0.84615(11)
H12 H 0.2914 0.2549 0.7829
C22 C 0.38857(16) 0.24239(14) 0.98727(12)
H13 H 0.3862 0.1900 1.0233
C23 C 0.40041(14) 0.39569(13) 0.88353(11)
H14 H 0.4030 0.4451 0.8450
C24 C 0.45522(16) 0.35774(14) 1.03105(12)
H15 H 0.4945 0.3815 1.0953
C25 C 0.46329(12) 0.43810(12) 0.97863(10)
H16 H 0.547(3) 0.395(2) 0.534(2)
H17 H 0.054(2) -0.127(2) 0.7378(19)
H18 H 0.109(2) -0.188(2) 0.792(2)
H19 H 0.067(2) 0.079(2) 0.9471(17)
H20 H 0.131(2) 0.010(2) 0.9885(17)
H21 H 0.342(2) -0.071(2) 0.9426(18)
H22 H 0.394(2) -0.110(2) 0.8556(18)
N1 N 0.32779(11) 0.00149(11) 0.70449(9)
N2 N 0.32769(11) 0.20267(11) 0.89630(9)
O1 O 0.07985(9) 0.10687(9) 0.78050(8)
O2 O -0.07087(11) -0.04957(10) 0.71321(9)
O3 O -0.11705(11) 0.07756(13) 0.93197(10)
O4 O -0.31541(12) 0.10794(15) 0.94638(11)
O5 O -0.06952(10) 0.16628(11) 0.60737(8)
O6 O 0.45759(13) 0.35269(14) 0.52868(12)
O7 O 0.45139(12) 0.49467(13) 0.67933(11)
O8 O 0.12500(12) -0.14416(10) 0.76009(9)
O9 O 0.13728(11) 0.06309(11) 0.95803(8)
O10 O 0.35681(11) -0.05280(11) 0.89220(9)
C16A C 0.72875(14) 0.01899(15) 0.38613(11)
H8A H 0.8154 0.0326 0.3952
C17A C 0.54701(14) -0.01734(15) 0.28624(11)
H9A H 0.5051 -0.0300 0.2244
C18A C 0.66536(14) 0.02097(16) 0.46709(11)
H10A H 0.7097 0.0355 0.5284
C19A C 0.47708(14) -0.01578(16) 0.36387(11)
H11A H 0.3905 -0.0262 0.3534
C20A C 0.53567(13) 0.00133(13) 0.45749(10)
N1A N 0.67221(11) -0.00149(11) 0.29551(9)
C21A C 0.66604(15) 0.71986(14) 1.15385(11)
H12A H 0.7086 0.7451 1.2171
C22A C 0.61143(16) 0.75761(14) 1.01273(12)
H13A H 0.6138 0.8100 0.9767
C23A C 0.59959(14) 0.60431(13) 1.11647(11)
H14A H 0.5970 0.5549 1.1550
C24A C 0.54478(16) 0.64226(14) 0.96895(12)
H15A H 0.5055 0.6185 0.9047
C25A C 0.53671(12) 0.56190(12) 1.02137(10)
N2A N 0.67231(11) 0.79733(11) 1.10370(9)
Ni1A Ni 0.773178(16) -0.026552(15) 0.169929(13)
C1A C 1.03177(13) -0.06232(13) 0.24792(10)
C2A C 1.21483(14) -0.11658(14) 0.08950(11)
C3A C 1.12829(12) -0.15205(13) 0.23910(10)
C4A C 1.21316(13) -0.17768(14) 0.16673(11)
C5A C 1.30133(15) -0.25820(16) 0.16675(12)
H1A H 1.3577 -0.2744 0.1188
C6A C 1.30668(16) -0.31454(17) 0.23689(14)
H2A H 1.3640 -0.3704 0.2346
C7A C 1.22580(16) -0.28681(17) 0.31041(13)
H3A H 1.2296 -0.3224 0.3590
C8A C 1.13973(13) -0.20621(14) 0.31101(11)
C9A C 0.95845(14) -0.23428(14) 0.39068(11)
C10A C 0.91529(15) -0.34452(15) 0.31569(12)
H4A H 0.9635 -0.3801 0.2641
C11A C 0.89090(16) -0.18357(16) 0.47077(12)
H5A H 0.9232 -0.1118 0.5226
C12A C 0.79877(15) -0.40079(15) 0.31903(12)
H6A H 0.7687 -0.4750 0.2690
C13A C 0.77455(16) -0.24112(16) 0.47271(13)
H7A H 0.7283 -0.2076 0.5261
C14A C 0.72624(14) -0.34861(14) 0.39540(12)
C15A C 0.59761(16) -0.40642(16) 0.39200(14)
H16A H 0.453(3) -0.395(2) 0.466(2)
H17A H 0.946(2) 0.127(2) 0.2622(19)
H18A H 0.891(2) 0.188(2) 0.208(2)
H19A H 0.933(2) -0.079(2) 0.0529(17)
H20A H 0.869(2) -0.010(2) 0.0115(17)
H21A H 0.658(2) 0.071(2) 0.0574(18)
H22A H 0.606(2) 0.110(2) 0.1444(18)
O1A O 0.92015(9) -0.10687(9) 0.21950(8)
O2A O 1.07087(11) 0.04957(10) 0.28679(9)
O3A O 1.11705(11) -0.07756(13) 0.06803(10)
O4A O 1.31541(12) -0.10794(15) 0.05362(11)
O5A O 1.06952(10) -0.16628(11) 0.39263(8)
O6A O 0.54241(13) -0.35269(14) 0.47132(12)
O7A O 0.54861(12) -0.49467(13) 0.32067(11)
O8A O 0.87500(12) 0.14416(10) 0.23991(9)
O9A O 0.86272(11) -0.06309(11) 0.04197(8)
O10A O 0.64319(11) 0.05280(11) 0.10780(9)
Ni1A_2 Ni 0.773178(16) 0.973448(15) 1.169929(13)
N2A_2 N 0.67231(11) -0.20267(11) 0.10370(9)
C26 C 0.26333(17) 0.63706(18) 0.54851(15)
H23 H 0.3107 0.7058 0.5945
C27 C 0.24932(17) 0.46679(19) 0.40839(15)
H24 H 0.2867 0.4155 0.3554
C28 C 0.13983(17) 0.61572(17) 0.56106(14)
H25 H 0.1052 0.6696 0.6145
C29 C 0.12487(16) 0.43847(17) 0.41574(13)
H26 H 0.0801 0.3691 0.3684
C30 C 0.06656(14) 0.51359(14) 0.49391(12)
N3 N 0.31789(13) 0.56438(14) 0.47399(12)
C26A C -0.26333(17) 0.36294(18) 0.45149(15)
H23A H -0.3107 0.2942 0.4055
C27A C -0.24932(17) 0.53321(19) 0.59161(15)
H24A H -0.2867 0.5845 0.6446
C28A C -0.13983(17) 0.38428(17) 0.43894(14)
H25A H -0.1052 0.3304 0.3855
C29A C -0.12487(16) 0.56153(17) 0.58426(13)
H26A H -0.0801 0.6309 0.6316
C30A C -0.06656(14) 0.48641(14) 0.50609(12)
N3A N -0.31789(13) 0.43562(14) 0.52601(12)
C31 C 1.0563(3) 0.3398(2) 0.1248(2)
H27 H 1.1221 0.3095 0.1502
C32 C 0.8510(2) 0.35659(18) 0.10737(15)
H28 H 0.7699 0.3374 0.1196
C33 C 1.0833(2) 0.4124(2) 0.0687(2)
H29 H 1.1653 0.4286 0.0569
C34 C 0.86913(19) 0.43107(17) 0.05167(15)
H30 H 0.8013 0.4612 0.0285
C35 C 0.98821(17) 0.46078(15) 0.03033(13)
N4 N 0.9420(2) 0.31116(16) 0.14417(13)
C31A C 0.9437(3) 0.6602(2) -0.1248(2)
H27A H 0.8779 0.6905 -0.1502
C32A C 1.1490(2) 0.64341(18) -0.10737(15)
H28A H 1.2301 0.6626 -0.1196
C33A C 0.9167(2) 0.5876(2) -0.0687(2)
H29A H 0.8347 0.5714 -0.0569
C34A C 1.13087(19) 0.56893(17) -0.05167(15)
H30A H 1.1987 0.5388 -0.0285
C35A C 1.01179(17) 0.53922(15) -0.03033(13)
N4A N 1.0580(2) 0.68884(16) -0.14417(13)
H31 H 0.465(3) 0.685(3) 0.746(2)
H32 H 0.558(3) 0.774(3) 0.770(3)
O11 O 0.4809(2) 0.75686(19) 0.77128(15)
H33 H 0.219(4) 0.144(4) 0.253(3)
H34 H 0.265(6) 0.121(6) 0.168(5)
O12 O 0.2603(2) 0.17394(19) 0.2204(2)
loop_
_geom_bond_atom_site_label_1
_geom_bond_atom_site_label_2
_geom_bond_site_symmetry_1
_geom_bond_site_symmetry_2
Ni1 N1 1_555 1_555
C1 C3 1_555 1_555
C2 C4 1_555 1_555
C3 C4 1_555 1_555
C4 C5 1_555 1_555
C5 H1 1_555 1_555
C6 C5 1_555 1_555
H2 C6 1_555 1_555
C7 C6 1_555 1_555
H3 C7 1_555 1_555
C8 C3 1_555 1_555
C9 C10 1_555 1_555
C10 H4 1_555 1_555
C11 C9 1_555 1_555
H5 C11 1_555 1_555
C12 C10 1_555 1_555
H6 C12 1_555 1_555
C13 C11 1_555 1_555
H7 C13 1_555 1_555
C14 C12 1_555 1_555
C15 C14 1_555 1_555
C16 H8 1_555 1_555
C17 H9 1_555 1_555
C18 C16 1_555 1_555
H10 C18 1_555 1_555
C19 C17 1_555 1_555
H11 C19 1_555 1_555
C20 C18 1_555 1_555
C21 H12 1_555 1_555
C22 H13 1_555 1_555
C23 C21 1_555 1_555
H14 C23 1_555 1_555
C24 C22 1_555 1_555
H15 C24 1_555 1_555
C25 C23 1_555 1_555
H16 O6 1_555 1_555
H17 O8 1_555 1_555
H18 O8 1_555 1_555
H19 O9 1_555 1_555
H20 O9 1_555 1_555
H21 O10 1_555 1_555
H22 O10 1_555 1_555
N1 C16 1_555 1_555
N2 Ni1 1_555 1_555
O1 Ni1 1_555 1_555
O2 C1 1_555 1_555
O3 C2 1_555 1_555
O4 C2 1_555 1_555
O5 C8 1_555 1_555
O6 C15 1_555 1_555
O7 C15 1_555 1_555
O8 Ni1 1_555 1_555
O9 Ni1 1_555 1_555
O10 Ni1 1_555 1_555
C26 H23 1_555 1_555
C27 H24 1_555 1_555
C28 C26 1_555 1_555
H25 C28 1_555 1_555
C29 C27 1_555 1_555
H26 C29 1_555 1_555
C30 C28 1_555 1_555
N3 C26 1_555 1_555
C31 H27 1_555 1_555
C32 H28 1_555 1_555
C33 C31 1_555 1_555
H29 C33 1_555 1_555
C34 C32 1_555 1_555
H30 C34 1_555 1_555
C35 C33 1_555 1_555
N4 C31 1_555 1_555
H31 O11 1_555 1_555
H32 O11 1_555 1_555
H33 O12 1_555 1_555
H34 O12 1_555 1_555
C16A H8A 1_555 1_555
C17A H9A 1_555 1_555
C18A C16A 1_555 1_555
H10A C18A 1_555 1_555
C19A C17A 1_555 1_555
H11A C19A 1_555 1_555
C20A C20 1_555 1_555
N1A C16A 1_555 1_555
C21A H12A 1_555 1_555
C22A H13A 1_555 1_555
C23A C21A 1_555 1_555
H14A C23A 1_555 1_555
C24A C22A 1_555 1_555
H15A C24A 1_555 1_555
C25A C25 1_555 1_555
N2A C21A 1_555 1_555
Ni1A N1A 1_555 1_555
C1A C3A 1_555 1_555
C2A C4A 1_555 1_555
C3A C4A 1_555 1_555
C4A C5A 1_555 1_555
C5A H1A 1_555 1_555
C6A C5A 1_555 1_555
H2A C6A 1_555 1_555
C7A C6A 1_555 1_555
H3A C7A 1_555 1_555
C8A C3A 1_555 1_555
C9A C10A 1_555 1_555
C10A H4A 1_555 1_555
C11A C9A 1_555 1_555
H5A C11A 1_555 1_555
C12A C10A 1_555 1_555
H6A C12A 1_555 1_555
C13A C11A 1_555 1_555
H7A C13A 1_555 1_555
C14A C12A 1_555 1_555
C15A C14A 1_555 1_555
H16A O6A 1_555 1_555
H17A O8A 1_555 1_555
H18A O8A 1_555 1_555
H19A O9A 1_555 1_555
H20A O9A 1_555 1_555
H21A O10A 1_555 1_555
H22A O10A 1_555 1_555
O1A Ni1A 1_555 1_555
O2A C1A 1_555 1_555
O3A C2A 1_555 1_555
O4A C2A 1_555 1_555
O5A C8A 1_555 1_555
O6A C15A 1_555 1_555
O7A C15A 1_555 1_555
O8A Ni1A 1_555 1_555
O9A Ni1A 1_555 1_555
O10A Ni1A 1_555 1_555
Ni1A_2 N2A 1_555 1_555
N2A_2 Ni1A 1_555 1_555
C26A H23A 1_555 1_555
C27A H24A 1_555 1_555
C28A C26A 1_555 1_555
H25A C28A 1_555 1_555
C29A C27A 1_555 1_555
H26A C29A 1_555 1_555
C30A C30 1_555 1_555
N3A C26A 1_555 1_555
C31A H27A 1_555 1_555
C32A H28A 1_555 1_555
C33A C31A 1_555 1_555
H29A C33A 1_555 1_555
C34A C32A 1_555 1_555
H30A C34A 1_555 1_555
C35A C35 1_555 1_555
N4A C31A 1_555 1_555
C1 O1 1_555 1_555
C7 C8 1_555 1_555
C9 O5 1_555 1_555
C13 C14 1_555 1_555
C17 N1 1_555 1_555
C19 C20 1_555 1_555
C21 N2 1_555 1_555
C22 N2 1_555 1_555
C24 C25 1_555 1_555
C27 N3 1_555 1_555
C29 C30 1_555 1_555
C32 N4 1_555 1_555
C34 C35 1_555 1_555
C17A N1A 1_555 1_555
C18A C20A 1_555 1_555
C19A C20A 1_555 1_555
C22A N2A 1_555 1_555
C23A C25A 1_555 1_555
C24A C25A 1_555 1_555
C1A O1A 1_555 1_555
C7A C8A 1_555 1_555
C9A O5A 1_555 1_555
C13A C14A 1_555 1_555
C27A N3A 1_555 1_555
C28A C30A 1_555 1_555
C29A C30A 1_555 1_555
C32A N4A 1_555 1_555
C33A C35A 1_555 1_555
C34A C35A 1_555 1_555

#END
