
#######################################################################
#
#                 Cambridge Crystallographic Data Centre
#                                CCDC 
#
#######################################################################
#
# If this CIF has been generated from an entry in the Cambridge 
# Structural Database, then it will include bibliographic, chemical, 
# crystal, experimental, refinement or atomic coordinate data resulting 
# from the CCDC's data processing and validation procedures.
#
#######################################################################

data_NOPXUL
_symmetry_cell_setting           monoclinic
_symmetry_space_group_name_H-M   'C 2/c'
_symmetry_Int_Tables_number      15
_space_group_name_Hall           '-C 2yn'
loop_
_symmetry_equiv_pos_site_id
_symmetry_equiv_pos_as_xyz
1 x,y,z
2 -x,y,1/2-z
3 1/2+x,1/2+y,z
4 1/2-x,1/2+y,1/2-z
5 -x,-y,-z
6 x,-y,1/2+z
7 1/2-x,1/2-y,-z
8 1/2+x,1/2-y,1/2+z
_cell_length_a                   20.082(8)
_cell_length_b                   8.128(9)
_cell_length_c                   14.501(8)
_cell_angle_alpha                90
_cell_angle_beta                 90.68(1)
_cell_angle_gamma                90
_cell_volume                     2366.78
loop_
_atom_site_label
_atom_site_type_symbol
_atom_site_fract_x
_atom_site_fract_y
_atom_site_fract_z
F1 F 1.0040(4) 0.026(1) 0.4145(6)
F2 F 1.0688(4) -0.024(1) 0.4702(6)
F3 F 0.9865(5) 0.160(1) 0.4720(7)
F4 F 0.9594(6) -0.108(1) 0.4481(8)
B1 B 1.0000 0.0000 0.50000
F4D F 1.0406(6) 0.108(1) 0.5519(8)
F1D F 0.9960(4) -0.026(1) 0.5855(6)
F2D F 0.9312(4) 0.024(1) 0.5298(6)
F3D F 1.0135(5) -0.160(1) 0.5280(7)
Cu1 Cu 0.50000 0.1797(1) 0.75000
S1 S 0.40781(6) 0.3548(2) 0.75390(8)
S2 S 0.53741(6) 0.0464(2) 0.87899(9)
S3 S 0.65710(7) 0.1088(2) 0.9964(1)
S4 S 0.70833(7) 0.3734(2) 0.8779(1)
C1 C 0.6120(2) 0.1568(7) 0.8961(3)
C2 C 0.7224(3) 0.2460(7) 0.9729(3)
C3 C 0.6344(2) 0.2766(7) 0.8427(3)
C4 C 0.8527(4) 0.221(1) 1.3498(4)
C5 C 0.8038(5) 0.114(2) 1.3756(6)
C6 C 0.5706(4) -0.1574(8) 0.8477(5)
C7 C 0.6143(4) -0.1603(8) 0.7664(6)
H1 H 0.8303 0.3230 1.3301
H2 H 0.8798 0.2525 1.4029
H3 H 0.8288 0.0085 1.3942
H4 H 0.7793 0.0790 1.3214
H5 H 0.7785 0.1441 1.4219
H6 H 0.5972 -0.2008 0.8973
H7 H 0.5351 -0.2323 0.8351
H8 H 0.6305 -0.2674 0.7502
H9 H 0.5901 -0.1204 0.7106
H10 H 0.6522 -0.0886 0.7727
S2A S 0.46259(6) 0.0464(2) 0.62101(9)
S1A S 0.59219(6) 0.3548(2) 0.74610(8)
C2F C 0.7776(3) 0.2540(7) 1.0271(3)
S3F S 0.84290(7) 0.3912(2) 1.0036(1)
C1F C 0.8880(2) 0.3432(7) 1.1039(3)
S2F S 0.96259(6) 0.4536(2) 1.12101(9)
Cu1F Cu 1.00000 0.3203(1) 1.25000
S1G S 0.90781(6) 0.1452(2) 1.25390(8)
C3F C 0.8656(2) 0.2234(7) 1.1573(3)
S4F S 0.79167(7) 0.1266(2) 1.1221(1)
C6F C 0.9294(4) 0.6574(8) 1.1523(5)
C7F C 0.8857(4) 0.6603(8) 1.2336(6)
H8F H 0.8695 0.7674 1.2498
H9F H 0.9099 0.6204 1.2894
H10F H 0.8478 0.5886 1.2273
H6F H 0.9028 0.7008 1.1027
H7F H 0.9649 0.7323 1.1649
C4F C 0.6473(4) 0.279(1) 0.6502(4)
C5F C 0.6962(5) 0.386(2) 0.6244(6)
H3F H 0.6712 0.4915 0.6058
H4F H 0.7207 0.4210 0.6786
H5F H 0.7215 0.3559 0.5781
H1F H 0.6697 0.1770 0.6699
H2F H 0.6202 0.2475 0.5971
loop_
_geom_bond_atom_site_label_1
_geom_bond_atom_site_label_2
_geom_bond_site_symmetry_1
_geom_bond_site_symmetry_2
Cu1 S1 1_555 1_555
S2 Cu1 1_555 1_555
S3 C1 1_555 1_555
S4 C2 1_555 1_555
F1 F2 1_555 1_555
F2 B1 1_555 1_555
F3 F1 1_555 1_555
F4 F1 1_555 1_555
C1 S2 1_555 1_555
C2 S3 1_555 1_555
C3 S4 1_555 1_555
C4 C5 1_555 1_555
C5 H3 1_555 1_555
C6 S2 1_555 1_555
C7 C6 1_555 1_555
B1 F1 1_555 1_555
H1 C4 1_555 1_555
H2 C4 1_555 1_555
H4 C5 1_555 1_555
H5 C5 1_555 1_555
H6 C6 1_555 1_555
H7 C6 1_555 1_555
H8 C7 1_555 1_555
H9 C7 1_555 1_555
H10 C7 1_555 1_555
S2A Cu1 1_555 1_555
S1A Cu1 1_555 1_555
C2F C2 1_555 1_555
S3F C2F 1_555 1_555
C1F S3F 1_555 1_555
S2F C1F 1_555 1_555
Cu1F S2F 1_555 1_555
S1G C4 1_555 1_555
C3F C1F 1_555 1_555
S4F C2F 1_555 1_555
C6F S2F 1_555 1_555
C7F C6F 1_555 1_555
H8F C7F 1_555 1_555
H9F C7F 1_555 1_555
H10F C7F 1_555 1_555
H6F C6F 1_555 1_555
H7F C6F 1_555 1_555
C4F S1A 1_555 1_555
C5F C4F 1_555 1_555
H3F C5F 1_555 1_555
H4F C5F 1_555 1_555
H5F C5F 1_555 1_555
H1F C4F 1_555 1_555
H2F C4F 1_555 1_555
F4D F3 1_555 1_555
F1D B1 1_555 1_555
F2D B1 1_555 1_555
F3D F4 1_555 1_555
F3 B1 1_555 1_555
F4 B1 1_555 1_555
C1 C3 1_555 1_555
C3 S1A 1_555 1_555
B1 F3D 1_555 1_555
B1 F4D 1_555 1_555
Cu1F S1G 1_555 1_555
S1G C3F 1_555 1_555
C3F S4F 1_555 1_555
F4D F1D 1_555 1_555
F1D F2D 1_555 1_555
F1D F3D 1_555 1_555

#END
