
#######################################################################
#
#                 Cambridge Crystallographic Data Centre
#                                CCDC 
#
#######################################################################
#
# If this CIF has been generated from an entry in the Cambridge 
# Structural Database, then it will include bibliographic, chemical, 
# crystal, experimental, refinement or atomic coordinate data resulting 
# from the CCDC's data processing and validation procedures.
#
#######################################################################

data_NOPXUN
_symmetry_cell_setting           cubic
_symmetry_space_group_name_H-M   'I a -3'
_symmetry_Int_Tables_number      206
_space_group_name_Hall           '-I 2b 2c 3'
loop_
_symmetry_equiv_pos_site_id
_symmetry_equiv_pos_as_xyz
1 x,y,z
2 z,x,y
3 y,z,x
4 -y,1/2-z,x
5 z,-x,1/2-y
6 1/2-y,z,-x
7 -z,1/2-x,y
8 1/2-z,x,-y
9 y,-z,1/2-x
10 x,-y,1/2-z
11 1/2-x,y,-z
12 -x,1/2-y,z
13 1/2+x,1/2+y,1/2+z
14 1/2+z,1/2+x,1/2+y
15 1/2+y,1/2+z,1/2+x
16 1/2-y,-z,1/2+x
17 1/2+z,1/2-x,-y
18 -y,1/2+z,1/2-x
19 1/2-z,-x,1/2+y
20 -z,1/2+x,1/2-y
21 1/2+y,1/2-z,-x
22 1/2+x,1/2-y,-z
23 -x,1/2+y,1/2-z
24 1/2-x,-y,1/2+z
25 -x,-y,-z
26 -z,-x,-y
27 -y,-z,-x
28 y,1/2+z,-x
29 -z,x,1/2+y
30 1/2+y,-z,x
31 z,1/2+x,-y
32 1/2+z,-x,y
33 -y,z,1/2+x
34 -x,y,1/2+z
35 1/2+x,-y,z
36 x,1/2+y,-z
37 1/2-x,1/2-y,1/2-z
38 1/2-z,1/2-x,1/2-y
39 1/2-y,1/2-z,1/2-x
40 1/2+y,z,1/2-x
41 1/2-z,1/2+x,y
42 y,1/2-z,1/2+x
43 1/2+z,x,1/2-y
44 z,1/2-x,1/2+y
45 1/2-y,1/2+z,x
46 1/2-x,1/2+y,z
47 x,1/2-y,1/2+z
48 1/2+x,y,1/2-z
_cell_length_a                   22.9897(18)
_cell_length_b                   22.9897(18)
_cell_length_c                   22.9897(18)
_cell_angle_alpha                90
_cell_angle_beta                 90
_cell_angle_gamma                90
_cell_volume                     12150.7
loop_
_atom_site_label
_atom_site_type_symbol
_atom_site_fract_x
_atom_site_fract_y
_atom_site_fract_z
Cd1 Cd 0.759175(9) 0.687174(8) 0.119347(9)
O1 O 0.60724(10) 0.74441(10) 0.21717(9)
O2 O 0.67899(9) 0.69378(9) 0.17680(9)
O3 O 0.67615(10) 0.68811(9) 0.05819(10)
O4 O 0.67083(10) 0.69385(10) -0.04953(9)
O5 O 0.60942(10) 0.75688(10) -0.09182(9)
C1 C 0.63472(13) 0.73029(13) 0.06175(12)
C2 C 0.61123(13) 0.75368(14) 0.01026(13)
C3 C 0.54950(17) 0.81760(17) 0.06655(15)
H1 H 0.52110(17) 0.84757(17) 0.06839(15)
C4 C 0.56866(15) 0.79685(15) 0.01318(14)
H2 H 0.55264(15) 0.81219(15) -0.02168(14)
C5 C 0.61491(13) 0.75034(13) 0.11613(12)
C6 C 0.57223(15) 0.79413(15) 0.11686(13)
H3 H 0.55857(15) 0.80804(15) 0.15330(13)
C7 C 0.63165(13) 0.73359(13) -0.04828(13)
C8 C 0.63541(13) 0.72806(13) 0.17375(13)
H4 H 0.682(2) 0.681(2) 0.025(2)
Cd1J Cd 0.740825(9) 0.687174(8) -0.119347(9)
Cd1AA Cd 0.687174(8) 0.619347(9) 0.240825(9)
Cd1P Cd 0.619347(9) 0.740825(9) 0.312826(8)
Cd1PA Cd 0.619347(9) 0.759175(9) -0.187174(8)
O1O O 0.75559(10) 0.78283(9) 0.10724(10)
O2BA O 0.82320(9) 0.67899(9) 0.19378(9)
O4J O 0.82917(10) 0.69385(10) 0.04953(9)
O5OA O 0.75688(10) 0.59182(9) 0.10942(10)
O6 O 0.5520(8) 0.5869(8) -0.0613(9)
loop_
_geom_bond_atom_site_label_1
_geom_bond_atom_site_label_2
_geom_bond_site_symmetry_1
_geom_bond_site_symmetry_2
Cd1 O2 1_555 1_555
O1 C8 1_555 1_555
O2 C8 1_555 1_555
O3 Cd1 1_555 1_555
O4 C7 1_555 1_555
O5 C7 1_555 1_555
C1 O3 1_555 1_555
C2 C1 1_555 1_555
C3 H1 1_555 1_555
C4 C2 1_555 1_555
H2 C4 1_555 1_555
C5 C1 1_555 1_555
C6 C3 1_555 1_555
H3 C6 1_555 1_555
C7 C2 1_555 1_555
C8 C5 1_555 1_555
H4 O3 1_555 1_555
Cd1J O4 1_555 1_555
Cd1AA O2 1_555 1_555
Cd1P O1 1_555 1_555
Cd1PA O5 1_555 1_555
O1O Cd1 1_555 1_555
O2BA Cd1 1_555 1_555
O4J Cd1 1_555 1_555
O5OA Cd1 1_555 1_555
C3 C4 1_555 1_555
C5 C6 1_555 1_555

#END
