
#######################################################################
#
#                 Cambridge Crystallographic Data Centre
#                                CCDC 
#
#######################################################################
#
# If this CIF has been generated from an entry in the Cambridge 
# Structural Database, then it will include bibliographic, chemical, 
# crystal, experimental, refinement or atomic coordinate data resulting 
# from the CCDC's data processing and validation procedures.
#
#######################################################################

data_NOPXAT
_symmetry_cell_setting           triclinic
_symmetry_space_group_name_H-M   'P -1'
_symmetry_Int_Tables_number      2
_space_group_name_Hall           '-P 1'
loop_
_symmetry_equiv_pos_site_id
_symmetry_equiv_pos_as_xyz
1 x,y,z
2 -x,-y,-z
_cell_length_a                   11.5143(12)
_cell_length_b                   11.8139(12)
_cell_length_c                   13.5056(14)
_cell_angle_alpha                64.7510(10)
_cell_angle_beta                 81.7810(10)
_cell_angle_gamma                87.4000(9)
_cell_volume                     1644.32
loop_
_atom_site_label
_atom_site_type_symbol
_atom_site_fract_x
_atom_site_fract_y
_atom_site_fract_z
Ag1 Ag 0.17081(2) 0.22145(2) 0.81656(2)
O1 O 0.0333(2) 0.2184(2) 0.9836(2)
O2 O -0.0626(2) 0.0362(2) 1.0606(2)
O3 O -0.4347(2) 0.0796(2) 1.4232(2)
O4 O -0.3277(2) -0.0761(2) 1.4118(2)
N1 N 0.0819(2) 0.2802(2) 0.6757(2)
N2 N 0.0436(2) 0.3041(2) 0.5113(2)
N3 N 0.3255(2) 0.1990(3) 0.8933(2)
N4 N 0.4417(3) 0.1865(2) 1.0157(2)
C1 C -0.2676(2) 0.1320(3) 1.2898(2)
C2 C -0.1945(2) 0.0963(3) 1.2176(2)
H1 H -0.1955 0.0135 1.2271
C3 C -0.1196(3) 0.1834(3) 1.1309(2)
C4 C -0.2649(3) 0.2555(3) 1.2751(3)
H2 H -0.3146 0.2796 1.3231
C5 C -0.3474(3) 0.0355(3) 1.3819(2)
C6 C -0.0427(3) 0.1456(3) 1.0515(3)
C7 C 0.1196(3) 0.2642(3) 0.5859(3)
H3 H 0.1914 0.2290 0.5752
C8 C -0.0273(3) 0.3358(3) 0.6586(3)
C9 C -0.0515(3) 0.3502(3) 0.5555(3)
C10 C 0.4378(3) 0.1702(3) 0.8588(3)
C11 C 0.5118(3) 0.1610(3) 0.9348(3)
C12 C -0.1178(3) 0.3065(3) 1.1190(3)
H4 H -0.0671 0.3648 1.0618
C13 C -0.1896(3) 0.3439(3) 1.1904(3)
C14 C 0.6288(3) 0.1276(3) 0.9232(3)
H5 H 0.6768 0.1192 0.9757
C15 C 0.3332(3) 0.2076(3) 0.9861(3)
H6 H 0.2699 0.2265 1.0273
C16 C 0.4817(3) 0.1516(3) 0.7652(3)
H7 H 0.4333 0.1591 0.7133
C17 C 0.0577(4) 0.2913(3) 0.4073(3)
H8 H 0.1403 0.2833 0.3848
H9 H 0.0299 0.3663 0.3504
C18 C -0.1074(3) 0.3721(3) 0.7260(3)
H10 H -0.0905 0.3636 0.7941
C19 C -0.1568(3) 0.4016(3) 0.5181(4)
H11 H -0.1725 0.4128 0.4489
C20 C 0.6710(3) 0.1074(3) 0.8316(4)
C21 C 0.5978(3) 0.1219(3) 0.7511(3)
C22 C 0.0330(4) 0.0559(4) 0.4978(3)
H12 H 0.0229 0.0543 0.5709
H13 H 0.1161 0.0487 0.4764
C23 C -0.1878(4) 0.4786(4) 1.1759(4)
H14 H -0.1165 0.4951 1.1969
H15 H -0.2538 0.4918 1.2217
H16 H -0.1920 0.5340 1.1000
C24 C -0.2130(3) 0.4214(3) 0.6900(4)
C25 C -0.0094(4) 0.1784(4) 0.4177(3)
H17 H -0.0917 0.1866 0.4411
H18 H -0.0028 0.1778 0.3455
C26 C -0.2370(3) 0.4356(4) 0.5862(5)
C27 C 0.6451(4) 0.1041(5) 0.6480(4)
H19 H 0.6684 0.0188 0.6685
H20 H 0.7117 0.1589 0.6093
H21 H 0.5851 0.1232 0.6009
C28 C -0.3022(5) 0.4580(5) 0.7639(5)
H22 H -0.2722 0.4409 0.8315
H23 H -0.3736 0.4108 0.7799
H24 H -0.3177 0.5458 0.7272
C29 C -0.3546(4) 0.4895(6) 0.5455(6)
H25 H -0.3522 0.5025 0.4701
H26 H -0.3675 0.5678 0.5506
H27 H -0.4172 0.4317 0.5906
C30 C 0.7966(4) 0.0671(4) 0.8178(5)
H28 H 0.8340 0.0618 0.8787
H29 H 0.8379 0.1273 0.7500
H30 H 0.7974 -0.0133 0.8160
C31 C 0.4709(3) 0.4384(3) 1.0125(3)
H31 H 0.3947 0.4329 1.0556
H32 H 0.4582 0.4374 0.9434
C32 C 0.4783(4) 0.2005(3) 1.1094(3)
H33 H 0.5306 0.1332 1.1452
H34 H 0.4098 0.1934 1.1628
C33 C 0.5400(4) 0.3250(3) 1.0744(3)
H35 H 0.5592 0.3304 1.1399
H36 H 0.6132 0.3268 1.0282
N1A N -0.0819(2) -0.2802(2) 0.3243(2)
N2A N -0.0436(2) -0.3041(2) 0.4887(2)
C7A C -0.1196(3) -0.2642(3) 0.4141(3)
H3A H -0.1914 -0.2290 0.4248
C8A C 0.0273(3) -0.3358(3) 0.3414(3)
C9A C 0.0515(3) -0.3502(3) 0.4445(3)
C17A C -0.0577(4) -0.2913(3) 0.5927(3)
H8A H -0.1403 -0.2833 0.6152
H9A H -0.0299 -0.3663 0.6496
C18A C 0.1074(3) -0.3721(3) 0.2740(3)
H10A H 0.0905 -0.3636 0.2059
C19A C 0.1568(3) -0.4016(3) 0.4819(4)
H11A H 0.1725 -0.4128 0.5511
C22A C -0.0330(4) -0.0559(4) 0.5022(3)
H12A H -0.0229 -0.0543 0.4291
H13A H -0.1161 -0.0487 0.5236
C24A C 0.2130(3) -0.4214(3) 0.3100(4)
C25A C 0.0094(4) -0.1784(4) 0.5823(3)
H17A H 0.0917 -0.1866 0.5589
H18A H 0.0028 -0.1778 0.6545
C26A C 0.2370(3) -0.4356(4) 0.4138(5)
C28A C 0.3022(5) -0.4580(5) 0.2361(5)
H22A H 0.2722 -0.4409 0.1685
H23A H 0.3736 -0.4108 0.2201
H24A H 0.3177 -0.5458 0.2728
C29A C 0.3546(4) -0.4895(6) 0.4545(6)
H25A H 0.3522 -0.5025 0.5299
H26A H 0.3675 -0.5678 0.4494
H27A H 0.4172 -0.4317 0.4094
N3A N 0.6745(2) 0.8010(3) 1.1067(2)
N4A N 0.5583(3) 0.8135(2) 0.9843(2)
C10A C 0.5622(3) 0.8298(3) 1.1412(3)
C11A C 0.4882(3) 0.8390(3) 1.0652(3)
C14A C 0.3712(3) 0.8724(3) 1.0768(3)
H5A H 0.3232 0.8808 1.0243
C15A C 0.6668(3) 0.7924(3) 1.0139(3)
H6A H 0.7301 0.7735 0.9727
C16A C 0.5183(3) 0.8484(3) 1.2348(3)
H7A H 0.5667 0.8409 1.2867
C20A C 0.3290(3) 0.8926(3) 1.1684(4)
C21A C 0.4022(3) 0.8781(3) 1.2489(3)
C27A C 0.3549(4) 0.8959(5) 1.3520(4)
H19A H 0.3316 0.9812 1.3315
H20A H 0.2883 0.8411 1.3907
H21A H 0.4149 0.8768 1.3991
C30A C 0.2034(4) 0.9329(4) 1.1822(5)
H28A H 0.1660 0.9382 1.1213
H29A H 0.1621 0.8727 1.2500
H30A H 0.2026 1.0133 1.1840
C31A C 0.5291(3) 0.5616(3) 0.9875(3)
H31A H 0.6053 0.5671 0.9444
H32A H 0.5418 0.5626 1.0566
C32A C 0.5217(4) 0.7995(3) 0.8906(3)
H33A H 0.4694 0.8668 0.8548
H34A H 0.5902 0.8066 0.8372
C33A C 0.4600(4) 0.6750(3) 0.9256(3)
H35A H 0.4408 0.6696 0.8601
H36A H 0.3868 0.6732 0.9718
Ag1A Ag -0.17081(2) -0.22145(2) 0.18344(2)
O1A O -0.0333(2) -0.2184(2) 0.0164(2)
O2A O 0.0626(2) -0.0362(2) -0.0606(2)
O3A O 0.4347(2) -0.0796(2) -0.4232(2)
O4A O 0.3277(2) 0.0761(2) -0.4118(2)
C1A C 0.2676(2) -0.1320(3) -0.2898(2)
C2A C 0.1945(2) -0.0963(3) -0.2176(2)
H1A H 0.1955 -0.0135 -0.2271
C3A C 0.1196(3) -0.1834(3) -0.1309(2)
C4A C 0.2649(3) -0.2555(3) -0.2751(3)
H2A H 0.3146 -0.2796 -0.3231
C5A C 0.3474(3) -0.0355(3) -0.3819(2)
C6A C 0.0427(3) -0.1456(3) -0.0515(3)
C12A C 0.1178(3) -0.3065(3) -0.1190(3)
H4A H 0.0671 -0.3648 -0.0618
C13A C 0.1896(3) -0.3439(3) -0.1904(3)
C23A C 0.1878(4) -0.4786(4) -0.1759(4)
H14A H 0.1165 -0.4951 -0.1969
H15A H 0.2538 -0.4918 -0.2217
H16A H 0.1920 -0.5340 -0.1000
Ag1A_2 Ag 0.82919(2) 0.77855(2) 1.18344(2)
N3A_2 N -0.3255(2) -0.1990(3) 0.1067(2)
O5 O 0.6351(5) 0.7719(5) 0.6421(4)
H37 H 0.6464 0.8178 0.5731
H38 H 0.5685 0.8035 0.6497
loop_
_geom_bond_atom_site_label_1
_geom_bond_atom_site_label_2
_geom_bond_site_symmetry_1
_geom_bond_site_symmetry_2
Ag1 O1 1_555 1_555
O1 C6 1_555 1_555
O2 C6 1_555 1_555
O3 C5 1_555 1_555
O4 C5 1_555 1_555
N1 Ag1 1_555 1_555
N2 C7 1_555 1_555
N3 Ag1 1_555 1_555
N4 C11 1_555 1_555
C1 C2 1_555 1_555
C2 H1 1_555 1_555
C3 C2 1_555 1_555
C4 C1 1_555 1_555
H2 C4 1_555 1_555
C5 C1 1_555 1_555
C6 C3 1_555 1_555
C7 N1 1_555 1_555
H3 C7 1_555 1_555
C8 N1 1_555 1_555
C9 N2 1_555 1_555
C10 N3 1_555 1_555
C11 C10 1_555 1_555
C12 C3 1_555 1_555
H4 C12 1_555 1_555
C13 C4 1_555 1_555
C14 C11 1_555 1_555
H5 C14 1_555 1_555
C15 N3 1_555 1_555
H6 C15 1_555 1_555
C16 C10 1_555 1_555
H7 C16 1_555 1_555
C17 N2 1_555 1_555
H8 C17 1_555 1_555
H9 C17 1_555 1_555
C18 C8 1_555 1_555
H10 C18 1_555 1_555
C19 C9 1_555 1_555
H11 C19 1_555 1_555
C20 C14 1_555 1_555
C21 C16 1_555 1_555
C22 H12 1_555 1_555
H13 C22 1_555 1_555
C23 C13 1_555 1_555
H14 C23 1_555 1_555
H15 C23 1_555 1_555
H16 C23 1_555 1_555
C24 C18 1_555 1_555
C25 C17 1_555 1_555
H17 C25 1_555 1_555
H18 C25 1_555 1_555
C26 C19 1_555 1_555
C27 C21 1_555 1_555
H19 C27 1_555 1_555
H20 C27 1_555 1_555
H21 C27 1_555 1_555
C28 C24 1_555 1_555
H22 C28 1_555 1_555
H23 C28 1_555 1_555
H24 C28 1_555 1_555
C29 C26 1_555 1_555
H25 C29 1_555 1_555
H26 C29 1_555 1_555
H27 C29 1_555 1_555
C30 C20 1_555 1_555
H28 C30 1_555 1_555
H29 C30 1_555 1_555
H30 C30 1_555 1_555
C31 H31 1_555 1_555
H32 C31 1_555 1_555
C32 N4 1_555 1_555
H33 C32 1_555 1_555
H34 C32 1_555 1_555
C33 C31 1_555 1_555
H35 C33 1_555 1_555
H36 C33 1_555 1_555
O5 H37 1_555 1_555
H38 O5 1_555 1_555
N1A C7A 1_555 1_555
N2A C7A 1_555 1_555
C7A H3A 1_555 1_555
C8A N1A 1_555 1_555
C9A N2A 1_555 1_555
C17A N2A 1_555 1_555
H8A C17A 1_555 1_555
H9A C17A 1_555 1_555
C18A C8A 1_555 1_555
H10A C18A 1_555 1_555
C19A C9A 1_555 1_555
H11A C19A 1_555 1_555
C22A C22 1_555 1_555
H12A C22A 1_555 1_555
H13A C22A 1_555 1_555
C24A C18A 1_555 1_555
C25A C17A 1_555 1_555
H17A C25A 1_555 1_555
H18A C25A 1_555 1_555
C26A C19A 1_555 1_555
C28A C24A 1_555 1_555
H22A C28A 1_555 1_555
H23A C28A 1_555 1_555
H24A C28A 1_555 1_555
C29A C26A 1_555 1_555
H25A C29A 1_555 1_555
H26A C29A 1_555 1_555
H27A C29A 1_555 1_555
N3A C10A 1_555 1_555
N4A C11A 1_555 1_555
C10A C11A 1_555 1_555
C11A C14A 1_555 1_555
C14A H5A 1_555 1_555
C15A N3A 1_555 1_555
H6A C15A 1_555 1_555
C16A C10A 1_555 1_555
H7A C16A 1_555 1_555
C20A C14A 1_555 1_555
C21A C16A 1_555 1_555
C27A C21A 1_555 1_555
H19A C27A 1_555 1_555
H20A C27A 1_555 1_555
H21A C27A 1_555 1_555
C30A C20A 1_555 1_555
H28A C30A 1_555 1_555
H29A C30A 1_555 1_555
H30A C30A 1_555 1_555
C31A C31 1_555 1_555
H31A C31A 1_555 1_555
H32A C31A 1_555 1_555
C32A N4A 1_555 1_555
H33A C32A 1_555 1_555
H34A C32A 1_555 1_555
C33A C31A 1_555 1_555
H35A C33A 1_555 1_555
H36A C33A 1_555 1_555
Ag1A N1A 1_555 1_555
O1A Ag1A 1_555 1_555
O2A C6A 1_555 1_555
O3A C5A 1_555 1_555
O4A C5A 1_555 1_555
C1A C2A 1_555 1_555
C2A H1A 1_555 1_555
C3A C2A 1_555 1_555
C4A C1A 1_555 1_555
H2A C4A 1_555 1_555
C5A C1A 1_555 1_555
C6A O1A 1_555 1_555
C12A C3A 1_555 1_555
H4A C12A 1_555 1_555
C13A C4A 1_555 1_555
C23A C13A 1_555 1_555
H14A C23A 1_555 1_555
H15A C23A 1_555 1_555
H16A C23A 1_555 1_555
Ag1A_2 N3A 1_555 1_555
N3A_2 Ag1A 1_555 1_555
N4 C15 1_555 1_555
C8 C9 1_555 1_555
C12 C13 1_555 1_555
C20 C21 1_555 1_555
C22 C25 1_555 1_555
C24 C26 1_555 1_555
C32 C33 1_555 1_555
C8A C9A 1_555 1_555
C22A C25A 1_555 1_555
C24A C26A 1_555 1_555
N4A C15A 1_555 1_555
C20A C21A 1_555 1_555
C32A C33A 1_555 1_555
C3A C6A 1_555 1_555
C12A C13A 1_555 1_555

#END
