
#######################################################################
#
#                 Cambridge Crystallographic Data Centre
#                                CCDC 
#
#######################################################################
#
# If this CIF has been generated from an entry in the Cambridge 
# Structural Database, then it will include bibliographic, chemical, 
# crystal, experimental, refinement or atomic coordinate data resulting 
# from the CCDC's data processing and validation procedures.
#
#######################################################################

data_NOPXEX
_symmetry_cell_setting           monoclinic
_symmetry_space_group_name_H-M   'P 21/c'
_symmetry_Int_Tables_number      14
_space_group_name_Hall           '-P 2ybc'
loop_
_symmetry_equiv_pos_site_id
_symmetry_equiv_pos_as_xyz
1 x,y,z
2 -x,1/2+y,1/2-z
3 -x,-y,-z
4 x,1/2-y,1/2+z
_cell_length_a                   10.3963(11)
_cell_length_b                   16.6902(19)
_cell_length_c                   17.1741(19)
_cell_angle_alpha                90
_cell_angle_beta                 99.864(2)
_cell_angle_gamma                90
_cell_volume                     2935.93
loop_
_atom_site_label
_atom_site_type_symbol
_atom_site_fract_x
_atom_site_fract_y
_atom_site_fract_z
Co1 Co 0.65187(4) 0.30286(2) 0.60293(2)
O1 O 0.6794(2) 0.29504(13) 0.72197(11)
N1 N 0.5446(2) 0.40761(13) 0.58840(13)
N2 N 0.5170(2) 0.53681(14) 0.61270(13)
C1 C 0.7915(3) 0.30592(17) 0.87834(15)
H1 H 0.7258 0.2686 0.8626
N3 N 0.4841(2) 0.70898(14) 0.90894(13)
O2 O 0.81664(19) 0.38000(13) 0.68392(11)
C2 C 0.7757(3) 0.34282(18) 0.73702(16)
C3 C 0.6005(3) 0.47840(17) 0.60129(16)
H2 H 0.6892 0.4870 0.6024
C4 C 0.1679(3) 0.4805(2) 0.60481(18)
C5 C 0.8432(3) 0.31354(17) 0.95769(15)
C6 C 0.6822(3) 0.63671(17) 0.67659(17)
C7 C 0.4123(3) 0.42159(17) 0.59071(15)
N4 N 0.5886(2) 0.60956(14) 0.85964(13)
C8 C 0.3946(3) 0.50196(17) 0.60576(15)
C9 C 0.6016(3) 0.60635(18) 1.10132(17)
C10 C 0.5172(3) 0.67698(18) 0.84546(17)
H3 H 0.4935 0.6988 0.7952
C11 C 0.8358(3) 0.35273(17) 0.82180(15)
C12 C 0.5476(3) 0.62139(18) 0.63024(19)
H4 H 0.4837 0.6428 0.6597
H5 H 0.5387 0.6506 0.5807
C13 C 0.5375(3) 0.66352(17) 1.05133(17)
H6 H 0.4935 0.7051 1.0715
C14 C 0.6649(3) 0.54157(18) 1.07003(17)
C15 C 0.6038(3) 0.59575(16) 0.94062(16)
C16 C 0.9343(3) 0.40705(18) 0.84531(17)
H7 H 0.9649 0.4388 0.8079
C17 C 0.7231(3) 0.61017(17) 0.75376(16)
C18 C 0.5389(3) 0.65890(16) 0.97064(16)
C19 C 0.7671(3) 0.68186(19) 0.6407(2)
H8 H 0.7413 0.6987 0.5887
C20 C 0.6655(3) 0.53604(17) 0.99018(17)
H9 H 0.7063 0.4933 0.9697
C21 C 0.1845(3) 0.3988(2) 0.58862(19)
C22 C 0.3066(3) 0.36938(18) 0.58192(17)
H10 H 0.3178 0.3154 0.5717
C23 C 0.6367(3) 0.56139(19) 0.79870(18)
H11 H 0.5629 0.5408 0.7619
H12 H 0.6858 0.5161 0.8236
C24 C 0.9414(3) 0.3683(2) 0.97990(17)
H13 H 0.9768 0.3741 1.0331
C25 C 0.2723(3) 0.53299(19) 0.61235(17)
H14 H 0.2613 0.5873 0.6215
C26 C 0.6058(4) 0.6153(2) 1.18932(18)
H15 H 0.5457 0.6563 1.1989
H16 H 0.6926 0.6297 1.2142
H17 H 0.5819 0.5654 1.2108
C27 C 0.9881(3) 0.4147(2) 0.92453(18)
H18 H 1.0554 0.4510 0.9403
C28 C 0.7312(3) 0.47744(19) 1.12491(19)
H19 H 0.7683 0.4379 1.0948
H20 H 0.6683 0.4525 1.1520
H21 H 0.7991 0.5012 1.1628
C29 C 0.8893(4) 0.7023(2) 0.6806(3)
H22 H 0.9446 0.7334 0.6558
C30 C 0.8473(3) 0.6310(2) 0.7919(2)
H23 H 0.8755 0.6132 0.8433
C31 C 0.9290(4) 0.6769(3) 0.7565(3)
H24 H 1.0112 0.6907 0.7837
C32 C 0.0691(3) 0.3417(2) 0.5789(2)
H25 H 0.0972 0.2891 0.5665
H26 H 0.0028 0.3602 0.5368
H27 H 0.0343 0.3398 0.6271
C33 C 0.0345(3) 0.5128(2) 0.6141(2)
H28 H 0.0424 0.5681 0.6297
H29 H 0.0013 0.4825 0.6538
H30 H -0.0244 0.5083 0.5648
C34 C 0.7860(3) 0.26569(18) 1.01704(17)
O3 O 0.7074(2) 0.20913(12) 0.99317(11)
O4 O 0.8117(2) 0.28417(13) 1.08851(11)
Co1A Co 0.34813(4) 0.80286(2) 0.89707(2)
Co1C Co 0.65187(4) 0.19714(2) 1.10293(2)
N3A N 0.5159(2) 0.20898(14) 0.59106(13)
O3C O 0.7074(2) 0.29087(12) 0.49317(11)
O4C O 0.8117(2) 0.21583(13) 0.58851(11)
loop_
_geom_bond_atom_site_label_1
_geom_bond_atom_site_label_2
_geom_bond_site_symmetry_1
_geom_bond_site_symmetry_2
Co1 O1 1_555 1_555
O1 C2 1_555 1_555
N1 Co1 1_555 1_555
N2 C3 1_555 1_555
C1 H1 1_555 1_555
N3 C10 1_555 1_555
O2 Co1 1_555 1_555
C2 O2 1_555 1_555
C3 N1 1_555 1_555
H2 C3 1_555 1_555
C4 C21 1_555 1_555
C5 C1 1_555 1_555
C6 C12 1_555 1_555
C7 N1 1_555 1_555
N4 C10 1_555 1_555
C8 N2 1_555 1_555
C9 C13 1_555 1_555
C10 H3 1_555 1_555
C11 C1 1_555 1_555
C12 N2 1_555 1_555
H4 C12 1_555 1_555
H5 C12 1_555 1_555
C13 H6 1_555 1_555
C14 C9 1_555 1_555
C15 N4 1_555 1_555
C16 C11 1_555 1_555
H7 C16 1_555 1_555
C17 C6 1_555 1_555
C18 N3 1_555 1_555
C19 C6 1_555 1_555
H8 C19 1_555 1_555
C20 C14 1_555 1_555
H9 C20 1_555 1_555
C21 C22 1_555 1_555
C22 C7 1_555 1_555
H10 C22 1_555 1_555
C23 N4 1_555 1_555
H11 C23 1_555 1_555
H12 C23 1_555 1_555
C24 C5 1_555 1_555
H13 C24 1_555 1_555
C25 C4 1_555 1_555
H14 C25 1_555 1_555
C26 C9 1_555 1_555
H15 C26 1_555 1_555
H16 C26 1_555 1_555
H17 C26 1_555 1_555
C27 C16 1_555 1_555
H18 C27 1_555 1_555
C28 C14 1_555 1_555
H19 C28 1_555 1_555
H20 C28 1_555 1_555
H21 C28 1_555 1_555
C29 C19 1_555 1_555
H22 C29 1_555 1_555
C30 C17 1_555 1_555
H23 C30 1_555 1_555
C31 C29 1_555 1_555
H24 C31 1_555 1_555
C32 C21 1_555 1_555
H25 C32 1_555 1_555
H26 C32 1_555 1_555
H27 C32 1_555 1_555
C33 C4 1_555 1_555
H28 C33 1_555 1_555
H29 C33 1_555 1_555
H30 C33 1_555 1_555
C34 C5 1_555 1_555
O3 C34 1_555 1_555
O4 C34 1_555 1_555
Co1A N3 1_555 1_555
Co1C O3 1_555 1_555
N3A Co1 1_555 1_555
O3C Co1 1_555 1_555
O4C Co1 1_555 1_555
C2 C11 1_555 1_555
C7 C8 1_555 1_555
C8 C25 1_555 1_555
C13 C18 1_555 1_555
C15 C18 1_555 1_555
C15 C20 1_555 1_555
C17 C23 1_555 1_555
C24 C27 1_555 1_555
C30 C31 1_555 1_555
O4 Co1C 1_555 1_555

#END
