
#######################################################################
#
#                 Cambridge Crystallographic Data Centre
#                                CCDC 
#
#######################################################################
#
# If this CIF has been generated from an entry in the Cambridge 
# Structural Database, then it will include bibliographic, chemical, 
# crystal, experimental, refinement or atomic coordinate data resulting 
# from the CCDC's data processing and validation procedures.
#
#######################################################################

data_NOPXIB
_symmetry_cell_setting           cubic
_symmetry_space_group_name_H-M   'I a -3'
_symmetry_Int_Tables_number      206
_space_group_name_Hall           '-I 2b 2c 3'
loop_
_symmetry_equiv_pos_site_id
_symmetry_equiv_pos_as_xyz
1 x,y,z
2 z,x,y
3 y,z,x
4 -y,1/2-z,x
5 z,-x,1/2-y
6 1/2-y,z,-x
7 -z,1/2-x,y
8 1/2-z,x,-y
9 y,-z,1/2-x
10 x,-y,1/2-z
11 1/2-x,y,-z
12 -x,1/2-y,z
13 1/2+x,1/2+y,1/2+z
14 1/2+z,1/2+x,1/2+y
15 1/2+y,1/2+z,1/2+x
16 1/2-y,-z,1/2+x
17 1/2+z,1/2-x,-y
18 -y,1/2+z,1/2-x
19 1/2-z,-x,1/2+y
20 -z,1/2+x,1/2-y
21 1/2+y,1/2-z,-x
22 1/2+x,1/2-y,-z
23 -x,1/2+y,1/2-z
24 1/2-x,-y,1/2+z
25 -x,-y,-z
26 -z,-x,-y
27 -y,-z,-x
28 y,1/2+z,-x
29 -z,x,1/2+y
30 1/2+y,-z,x
31 z,1/2+x,-y
32 1/2+z,-x,y
33 -y,z,1/2+x
34 -x,y,1/2+z
35 1/2+x,-y,z
36 x,1/2+y,-z
37 1/2-x,1/2-y,1/2-z
38 1/2-z,1/2-x,1/2-y
39 1/2-y,1/2-z,1/2-x
40 1/2+y,z,1/2-x
41 1/2-z,1/2+x,y
42 y,1/2-z,1/2+x
43 1/2+z,x,1/2-y
44 z,1/2-x,1/2+y
45 1/2-y,1/2+z,x
46 1/2-x,1/2+y,z
47 x,1/2-y,1/2+z
48 1/2+x,y,1/2-z
_cell_length_a                   22.308(2)
_cell_length_b                   22.308(2)
_cell_length_c                   22.308(2)
_cell_angle_alpha                90
_cell_angle_beta                 90
_cell_angle_gamma                90
_cell_volume                     11101.5
loop_
_atom_site_label
_atom_site_type_symbol
_atom_site_fract_x
_atom_site_fract_y
_atom_site_fract_z
Co1 Co 0.00641(2) 0.12859(2) 0.43751(2)
O1 O -0.06646(11) 0.19274(11) 0.43777(12)
O2 O -0.06666(11) 0.07160(11) 0.43904(11)
C1 C -0.13229(17) 0.13339(16) 0.49903(17)
C2 C -0.10977(16) 0.07390(16) 0.47722(16)
C3 C -0.17798(18) 0.13238(18) 0.54217(19)
H1 H -0.19281(18) 0.09479(18) 0.55561(19)
C4 C -0.2022(2) 0.18435(18) 0.5658(2)
H2 H -0.2324(2) 0.18253(18) 0.5957(2)
C5 C -0.11168(17) 0.18900(17) 0.47910(17)
O3 O -0.13554(12) 0.02859(11) 0.49703(12)
C6 C -0.13616(17) 0.24230(17) 0.50181(17)
C7 C -0.18140(18) 0.23930(18) 0.54498(19)
H3 H -0.19821(18) 0.27529(18) 0.56033(19)
C8 C -0.11398(17) 0.30253(17) 0.48345(16)
O4 O -0.07189(12) 0.30384(11) 0.44334(12)
O5 O -0.13637(12) 0.34727(11) 0.50775(12)
H4 H -0.055(3) 0.235(3) 0.431(3)
Co1K Co -0.00641(2) 0.37141(2) 0.43751(2)
Co1FA Co -0.12859(2) 0.43751(2) 0.50641(2)
Co1Q Co -0.12859(2) -0.06249(2) 0.49359(2)
Co1PA Co -0.06249(2) 0.00641(2) 0.37141(2)
O2OA O 0.07160(11) 0.06096(11) 0.43334(11)
O3R O 0.00297(12) 0.13554(12) 0.52859(11)
O4K O 0.07189(12) 0.19616(11) 0.44334(12)
O5EA O 0.00775(12) 0.13637(12) 0.34727(11)
O6 O -0.1633(8) 0.2053(10) 0.3039(10)
loop_
_geom_bond_atom_site_label_1
_geom_bond_atom_site_label_2
_geom_bond_site_symmetry_1
_geom_bond_site_symmetry_2
Co1 O1 1_555 1_555
O1 C5 1_555 1_555
O2 Co1 1_555 1_555
C1 C2 1_555 1_555
C2 O2 1_555 1_555
C3 C1 1_555 1_555
H1 C3 1_555 1_555
C4 C3 1_555 1_555
H2 C4 1_555 1_555
C5 C1 1_555 1_555
O3 C2 1_555 1_555
C6 C5 1_555 1_555
C7 C4 1_555 1_555
H3 C7 1_555 1_555
C8 C6 1_555 1_555
O4 C8 1_555 1_555
O5 C8 1_555 1_555
H4 O1 1_555 1_555
Co1K O4 1_555 1_555
Co1FA O5 1_555 1_555
Co1Q O3 1_555 1_555
Co1PA O2 1_555 1_555
O2OA Co1 1_555 1_555
O3R Co1 1_555 1_555
O4K Co1 1_555 1_555
O5EA Co1 1_555 1_555
C6 C7 1_555 1_555

#END
