
#######################################################################
#
#                 Cambridge Crystallographic Data Centre
#                                CCDC 
#
#######################################################################
#
# If this CIF has been generated from an entry in the Cambridge 
# Structural Database, then it will include bibliographic, chemical, 
# crystal, experimental, refinement or atomic coordinate data resulting 
# from the CCDC's data processing and validation procedures.
#
#######################################################################

data_NOQGIK
_symmetry_cell_setting           orthorhombic
_symmetry_space_group_name_H-M   'P n m a'
_symmetry_Int_Tables_number      62
_space_group_name_Hall           '-P 2ac 2n'
loop_
_symmetry_equiv_pos_site_id
_symmetry_equiv_pos_as_xyz
1 x,y,z
2 1/2-x,-y,1/2+z
3 1/2+x,1/2-y,1/2-z
4 -x,1/2+y,-z
5 -x,-y,-z
6 1/2+x,y,1/2-z
7 1/2-x,1/2+y,1/2+z
8 x,1/2-y,z
_cell_length_a                   13.4161(7)
_cell_length_b                   7.6294(3)
_cell_length_c                   13.1775(5)
_cell_angle_alpha                90
_cell_angle_beta                 90
_cell_angle_gamma                90
_cell_volume                     1348.81
loop_
_atom_site_label
_atom_site_type_symbol
_atom_site_fract_x
_atom_site_fract_y
_atom_site_fract_z
C1 C 0.0049(3) 0.2500 0.0947(3)
H1 H 0.0720 0.2500 0.1122
C2 C -0.0208(3) 0.2500 -0.0075(3)
C3 C -0.1834(4) 0.2500 0.0392(3)
H2 H -0.2507 0.2500 0.0222
C4 C -0.1576(3) 0.2500 0.1401(3)
H3 H -0.2072 0.2500 0.1893
C5 C 0.0566(4) 0.2500 -0.0888(4)
H4 H 0.0248 0.2500 -0.1541
H5 H 0.0975 0.1473 -0.0823
C6 C 0.13922(17) -0.0754(3) 0.27598(19)
C7 C 0.30089(18) -0.0769(3) 0.16804(18)
N1 N -0.0621(3) 0.2500 0.1681(2)
N2 N -0.1166(3) 0.2500 -0.0350(3)
N3 N 0.09336(17) 0.0343(3) 0.31262(19)
N4 N 0.35462(17) 0.0303(3) 0.14115(18)
O1 O -0.0015(3) 0.2500 0.5175(2)
H6 H -0.022(3) 0.333(4) 0.554(3)
Ni1 Ni 0.21550(3) -0.2500 0.21574(4)
Cd1 Cd -0.023840(16) 0.2500 0.345950(17)
H5G H 0.0975 0.3527 -0.0823
C6G C 0.13922(17) -0.4246(3) 0.27598(19)
C7G C 0.30089(18) -0.4231(3) 0.16804(18)
N3G N 0.09336(17) -0.5343(3) 0.31262(19)
N3G_2 N 0.09336(17) 0.4657(3) 0.31262(19)
N4G N 0.35462(17) -0.5303(3) 0.14115(18)
N4B N -0.14538(17) 0.4697(3) 0.35885(18)
N4E N -0.14538(17) 0.0303(3) 0.35885(18)
H6G H -0.022(3) 0.167(4) 0.554(3)
Cd1B Cd 0.476160(16) 0.2500 0.154050(17)
Cd1_2 Cd -0.023840(16) -0.7500 0.345950(17)
Cd1B_2 Cd 0.476160(16) -0.7500 0.154050(17)
loop_
_geom_bond_atom_site_label_1
_geom_bond_atom_site_label_2
_geom_bond_site_symmetry_1
_geom_bond_site_symmetry_2
C1 H1 1_555 1_555
C2 C1 1_555 1_555
C3 H2 1_555 1_555
C4 C3 1_555 1_555
H3 C4 1_555 1_555
C5 C2 1_555 1_555
H4 C5 1_555 1_555
H5 C5 1_555 1_555
C6 N3 1_555 1_555
C7 N4 1_555 1_555
N1 C1 1_555 1_555
N2 C2 1_555 1_555
N3 Cd1 1_555 1_555
N4 Cd1B 1_555 1_555
O1 H6 1_555 1_555
Ni1 C6 1_555 1_555
Cd1 N1 1_555 1_555
H5G C5 1_555 1_555
C6G Ni1 1_555 1_555
C7G Ni1 1_555 1_555
N3G C6G 1_555 1_555
N3G_2 Cd1 1_555 1_555
N4G C7G 1_555 1_555
N4B Cd1 1_555 1_555
N4E Cd1 1_555 1_555
H6G O1 1_555 1_555
Cd1_2 N3G 1_555 1_555
Cd1B_2 N4G 1_555 1_555
C3 N2 1_555 1_555
C4 N1 1_555 1_555
C7 Ni1 1_555 1_555
O1 Cd1 1_555 1_555

#END
