
#######################################################################
#
#                 Cambridge Crystallographic Data Centre
#                                CCDC 
#
#######################################################################
#
# If this CIF has been generated from an entry in the Cambridge 
# Structural Database, then it will include bibliographic, chemical, 
# crystal, experimental, refinement or atomic coordinate data resulting 
# from the CCDC's data processing and validation procedures.
#
#######################################################################

data_NOQJAG
_symmetry_cell_setting           monoclinic
_symmetry_space_group_name_H-M   'P 21/n'
_symmetry_Int_Tables_number      14
_space_group_name_Hall           '-P 2yn'
loop_
_symmetry_equiv_pos_site_id
_symmetry_equiv_pos_as_xyz
1 x,y,z
2 1/2-x,1/2+y,1/2-z
3 -x,-y,-z
4 1/2+x,1/2-y,1/2+z
_cell_length_a                   9.7990(8)
_cell_length_b                   10.2982(9)
_cell_length_c                   19.7914(15)
_cell_angle_alpha                90
_cell_angle_beta                 93.420(2)
_cell_angle_gamma                90
_cell_volume                     1993.63
loop_
_atom_site_label
_atom_site_type_symbol
_atom_site_fract_x
_atom_site_fract_y
_atom_site_fract_z
Ni1 Ni 0.69944(2) 0.05768(2) 0.176434(10)
O1 O 0.65937(13) -0.00289(14) 0.27727(6)
O2 O 0.81303(12) 0.14478(13) 0.25774(6)
O3 O 0.69740(13) 0.36825(13) 0.33806(6)
O4 O 0.90129(13) 0.41660(13) 0.38265(7)
N1 N 0.53928(15) 0.18317(15) 0.17436(7)
N2 N 0.40284(16) 0.33903(16) 0.20524(7)
N3 N 0.10544(16) 0.84750(18) -0.00084(8)
N4 N 0.19003(15) 0.86975(16) -0.10074(7)
C1 C 0.77934(18) 0.08959(18) 0.37352(8)
C2 C 0.7789(2) -0.0245(2) 0.41075(11)
H1 H 0.7561 -0.1024 0.3892
C3 C 0.8123(3) -0.0236(3) 0.47989(12)
H2 H 0.8111 -0.1006 0.5044
C4 C 0.8467(3) 0.0903(3) 0.51188(10)
H3 H 0.8690 0.0906 0.5582
C5 C 0.8488(2) 0.2053(2) 0.47564(9)
H4 H 0.8740 0.2822 0.4976
C6 C 0.81316(17) 0.20640(18) 0.40608(8)
C7 C 0.80405(17) 0.33680(17) 0.37231(8)
C8 C 0.74742(17) 0.07843(17) 0.29837(9)
C9 C 0.28958(19) 0.55574(19) 0.19316(9)
C10 C 0.1499(2) 0.5528(2) 0.17751(11)
H5 H 0.0974 0.4859 0.1939
C11 C 0.08812(19) 0.6494(2) 0.13748(10)
H6 H -0.0057 0.6462 0.1272
C12 C 0.16346(18) 0.74997(19) 0.11263(8)
C13 C 0.3033(2) 0.7524(2) 0.12816(10)
H7 H 0.3558 0.8190 0.1115
C14 C 0.36523(18) 0.6569(2) 0.16816(10)
H8 H 0.4590 0.6605 0.1785
C15 C 0.3568(2) 0.4562(2) 0.24008(10)
H9 H 0.4349 0.4958 0.2644
H10 H 0.2926 0.4306 0.2731
C16 C 0.3235(2) 0.2512(2) 0.16908(12)
H11 H 0.2296 0.2562 0.1593
C17 C 0.4079(2) 0.1559(2) 0.15042(10)
H12 H 0.3813 0.0830 0.1252
C18 C 0.53161(18) 0.29420(19) 0.20731(9)
H13 H 0.6059 0.3360 0.2292
C19 C 0.0930(2) 0.8585(2) 0.07262(10)
H14 H -0.0031 0.8589 0.0818
H15 H 0.1318 0.9408 0.0880
C20 C 0.0214(2) 0.7818(3) -0.04609(11)
H16 H -0.0571 0.7362 -0.0367
C21 C 0.0739(2) 0.7956(2) -0.10740(10)
H17 H 0.0370 0.7603 -0.1477
C22 C 0.2058(2) 0.8985(2) -0.03587(9)
H18 H 0.2775 0.9480 -0.0167
Ni1A Ni 0.80056(2) 0.55768(2) 0.323566(10)
Ni1B Ni 0.30056(2) 0.94232(2) -0.176434(10)
O3A O 0.80260(13) -0.13175(13) 0.16194(6)
O4A O 0.59871(13) -0.08340(13) 0.11735(7)
N4B N 0.80997(15) 0.13025(16) 0.10074(7)
loop_
_geom_bond_atom_site_label_1
_geom_bond_atom_site_label_2
_geom_bond_site_symmetry_1
_geom_bond_site_symmetry_2
Ni1 O1 1_555 1_555
O1 C8 1_555 1_555
O2 Ni1 1_555 1_555
O3 C7 1_555 1_555
O4 C7 1_555 1_555
N1 Ni1 1_555 1_555
N2 C15 1_555 1_555
N3 C19 1_555 1_555
N4 C21 1_555 1_555
C1 C2 1_555 1_555
C2 H1 1_555 1_555
C3 C2 1_555 1_555
H2 C3 1_555 1_555
C4 C3 1_555 1_555
H3 C4 1_555 1_555
C5 C4 1_555 1_555
H4 C5 1_555 1_555
C6 C1 1_555 1_555
C7 C6 1_555 1_555
C8 O2 1_555 1_555
C9 C10 1_555 1_555
C10 H5 1_555 1_555
C11 C10 1_555 1_555
H6 C11 1_555 1_555
C12 C11 1_555 1_555
C13 C12 1_555 1_555
H7 C13 1_555 1_555
C14 C9 1_555 1_555
H8 C14 1_555 1_555
C15 C9 1_555 1_555
H9 C15 1_555 1_555
H10 C15 1_555 1_555
C16 N2 1_555 1_555
H11 C16 1_555 1_555
C17 N1 1_555 1_555
H12 C17 1_555 1_555
C18 N1 1_555 1_555
H13 C18 1_555 1_555
C19 C12 1_555 1_555
H14 C19 1_555 1_555
H15 C19 1_555 1_555
C20 N3 1_555 1_555
H16 C20 1_555 1_555
C21 C20 1_555 1_555
H17 C21 1_555 1_555
C22 N3 1_555 1_555
H18 C22 1_555 1_555
Ni1A O3 1_555 1_555
Ni1B N4 1_555 1_555
O3A Ni1 1_555 1_555
O4A Ni1 1_555 1_555
N4B Ni1 1_555 1_555
O4 Ni1A 1_555 1_555
N2 C18 1_555 1_555
N4 C22 1_555 1_555
C1 C8 1_555 1_555
C5 C6 1_555 1_555
C13 C14 1_555 1_555
C16 C17 1_555 1_555

#END
