
#######################################################################
#
#                 Cambridge Crystallographic Data Centre
#                                CCDC 
#
#######################################################################
#
# If this CIF has been generated from an entry in the Cambridge 
# Structural Database, then it will include bibliographic, chemical, 
# crystal, experimental, refinement or atomic coordinate data resulting 
# from the CCDC's data processing and validation procedures.
#
#######################################################################

data_NOQPUF
_symmetry_cell_setting           monoclinic
_symmetry_space_group_name_H-M   'P 21/n'
_symmetry_Int_Tables_number      14
_space_group_name_Hall           '-P 2yn'
loop_
_symmetry_equiv_pos_site_id
_symmetry_equiv_pos_as_xyz
1 x,y,z
2 1/2-x,1/2+y,1/2-z
3 -x,-y,-z
4 1/2+x,1/2-y,1/2+z
_cell_length_a                   10.5567(3)
_cell_length_b                   30.1870(6)
_cell_length_c                   11.6879(3)
_cell_angle_alpha                90
_cell_angle_beta                 93.734(2)
_cell_angle_gamma                90
_cell_volume                     3716.74
loop_
_atom_site_label
_atom_site_type_symbol
_atom_site_fract_x
_atom_site_fract_y
_atom_site_fract_z
Mn1 Mn 0.77819(5) 0.714006(14) 0.77976(4)
Mn2 Mn 0.77185(5) 0.579806(15) 0.67513(4)
C1 C 0.4084(3) 0.64521(10) 0.7166(3)
C2 C 0.3428(3) 0.68342(11) 0.7357(3)
H1 H 0.3871 0.7099 0.7451
C3 C 0.2103(3) 0.68348(11) 0.7413(3)
H2 H 0.1691 0.7102 0.7529
C4 C 0.1404(3) 0.64549(10) 0.7302(3)
C5 C 0.1409(4) 0.56271(11) 0.7086(3)
H3 H 0.0536 0.5621 0.7151
C6 C 0.2032(4) 0.52440(12) 0.6950(4)
H4 H 0.1587 0.4978 0.6918
C7 C 0.3352(4) 0.52436(13) 0.6856(4)
H5 H 0.3778 0.4977 0.6762
C8 C 0.4007(4) 0.56295(11) 0.6901(4)
H6 H 0.4880 0.5624 0.6832
C9 C 0.3398(3) 0.60406(10) 0.7049(3)
C10 C 0.2049(3) 0.60412(10) 0.7135(3)
C11 C 0.5509(3) 0.64903(10) 0.7160(3)
O1 O 0.6003(2) 0.68148(8) 0.7687(2)
O2 O 0.6110(2) 0.62049(8) 0.6641(2)
C12 C -0.0020(3) 0.64949(10) 0.7354(3)
O3 O -0.0702(2) 0.62131(8) 0.6830(2)
O4 O -0.0424(2) 0.68245(8) 0.7874(2)
C13 C 0.7452(3) 0.94371(10) 0.8155(3)
C14 C 0.7282(4) 0.91782(11) 0.9088(3)
H7 H 0.7105 0.9311 0.9778
C15 C 0.7368(4) 0.87126(11) 0.9028(3)
H8 H 0.7239 0.8544 0.9676
C16 C 0.7635(3) 0.85071(10) 0.8037(3)
C17 C 0.8072(5) 0.85703(13) 0.5973(3)
H9 H 0.8148 0.8264 0.5921
C18 C 0.8203(6) 0.88213(15) 0.5031(4)
H10 H 0.8366 0.8686 0.4342
C19 C 0.8095(6) 0.92831(15) 0.5079(4)
H11 H 0.8181 0.9452 0.4423
C20 C 0.7865(4) 0.94860(13) 0.6088(3)
H12 H 0.7802 0.9793 0.6114
C21 C 0.7719(3) 0.92355(10) 0.7098(3)
C22 C 0.7822(3) 0.87639(11) 0.7040(3)
C23 C 0.7350(3) 0.99366(11) 0.8236(3)
O5 O 0.8342(3) 1.01602(8) 0.8250(3)
O6 O 0.6298(3) 1.01132(8) 0.8259(3)
C24 C 0.7718(3) 0.80079(10) 0.7979(3)
O7 O 0.8766(2) 0.78240(8) 0.7851(2)
O8 O 0.6728(2) 0.77859(7) 0.8027(2)
C25 C 0.7782(3) 0.70738(10) 0.3422(3)
C26 C 0.8900(3) 0.71117(12) 0.4116(3)
H13 H 0.9681 0.7108 0.3790
C27 C 0.8846(3) 0.71547(12) 0.5288(3)
H14 H 0.9608 0.7179 0.5729
N1 N 0.7771(3) 0.71640(9) 0.5828(2)
C28 C 0.6697(3) 0.71320(12) 0.5159(3)
H15 H 0.5931 0.7140 0.5509
C29 C 0.6657(3) 0.70878(12) 0.3975(3)
H16 H 0.5881 0.7068 0.3554
C30 C 0.7791(3) 0.70395(10) 0.2152(3)
C31 C 0.8908(3) 0.70268(12) 0.1596(3)
H17 H 0.9685 0.7019 0.2019
C32 C 0.8870(3) 0.70257(12) 0.0409(3)
H18 H 0.9636 0.7015 0.0058
N2 N 0.7797(3) 0.70391(9) -0.0260(2)
C33 C 0.6711(3) 0.70379(12) 0.0276(3)
H19 H 0.5948 0.7037 -0.0170
C34 C 0.6665(3) 0.70380(12) 0.1455(3)
H20 H 0.5886 0.7037 0.1784
C35 C 0.7779(4) 0.58616(12) 1.1149(3)
C36 C 0.8887(5) 0.58533(18) 1.0592(3)
H21 H 0.9663 0.5869 1.1014
C37 C 0.8857(5) 0.58219(18) 0.9417(3)
H22 H 0.9626 0.5818 0.9071
N3 N 0.7789(4) 0.57972(10) 0.8742(3)
C38 C 0.6726(5) 0.58022(16) 0.9282(3)
H23 H 0.5961 0.5784 0.8841
C39 C 0.6677(4) 0.58323(17) 1.0459(3)
H24 H 0.5897 0.5833 1.0785
C40 C 0.7762(4) 0.58964(11) 1.2420(3)
C41 C 0.8866(4) 0.58875(13) 1.3122(3)
H25 H 0.9650 0.5885 1.2802
C42 C 0.8804(4) 0.58820(13) 1.4301(3)
H26 H 0.9561 0.5878 1.4755
N4 N 0.7719(3) 0.58829(10) 1.4818(2)
C43 C 0.6656(4) 0.59161(13) 1.4149(3)
H27 H 0.5887 0.5934 1.4494
C44 C 0.6638(4) 0.59256(13) 1.2964(3)
H28 H 0.5870 0.5952 1.2532
Mn1_2 Mn -0.22181(5) 0.714006(14) 0.77976(4)
Mn1_3 Mn 0.77819(5) 0.714006(14) -0.22024(4)
Mn2_2 Mn -0.22815(5) 0.579806(15) 0.67513(4)
Mn2_3 Mn 0.77185(5) 0.579806(15) 1.67513(4)
Mn2A Mn 0.72815(5) 1.079806(15) 0.82487(4)
O3_2 O 0.9298(2) 0.62131(8) 0.6830(2)
O4_2 O 0.9576(2) 0.68245(8) 0.7874(2)
O5A O 0.6658(3) 0.51602(8) 0.6750(3)
O6A O 0.8702(3) 0.51132(8) 0.6741(3)
N2_2 N 0.7797(3) 0.70391(9) 0.9740(2)
N4_2 N 0.7719(3) 0.58829(10) 0.4818(2)
loop_
_geom_bond_atom_site_label_1
_geom_bond_atom_site_label_2
_geom_bond_site_symmetry_1
_geom_bond_site_symmetry_2
Mn1 O1 1_555 1_555
Mn2 O2 1_555 1_555
C1 C2 1_555 1_555
C2 H1 1_555 1_555
C3 C2 1_555 1_555
H2 C3 1_555 1_555
C4 C3 1_555 1_555
C5 H3 1_555 1_555
C6 C5 1_555 1_555
H4 C6 1_555 1_555
C7 C6 1_555 1_555
H5 C7 1_555 1_555
C8 C7 1_555 1_555
H6 C8 1_555 1_555
C9 C1 1_555 1_555
C10 C4 1_555 1_555
C11 C1 1_555 1_555
O1 C11 1_555 1_555
O2 C11 1_555 1_555
C12 C4 1_555 1_555
O3 C12 1_555 1_555
O4 C12 1_555 1_555
C13 C14 1_555 1_555
C14 H7 1_555 1_555
C15 C14 1_555 1_555
H8 C15 1_555 1_555
C16 C15 1_555 1_555
C17 H9 1_555 1_555
C18 C17 1_555 1_555
H10 C18 1_555 1_555
C19 C18 1_555 1_555
H11 C19 1_555 1_555
C20 C19 1_555 1_555
H12 C20 1_555 1_555
C21 C13 1_555 1_555
C22 C16 1_555 1_555
C23 C13 1_555 1_555
O5 C23 1_555 1_555
O6 C23 1_555 1_555
C24 C16 1_555 1_555
O7 Mn1 1_555 1_555
O8 Mn1 1_555 1_555
C25 C26 1_555 1_555
C26 H13 1_555 1_555
C27 C26 1_555 1_555
H14 C27 1_555 1_555
N1 Mn1 1_555 1_555
C28 N1 1_555 1_555
H15 C28 1_555 1_555
C29 C25 1_555 1_555
H16 C29 1_555 1_555
C30 C25 1_555 1_555
C31 C30 1_555 1_555
H17 C31 1_555 1_555
C32 C31 1_555 1_555
H18 C32 1_555 1_555
N2 C32 1_555 1_555
C33 N2 1_555 1_555
H19 C33 1_555 1_555
C34 C30 1_555 1_555
H20 C34 1_555 1_555
C35 C36 1_555 1_555
C36 H21 1_555 1_555
C37 C36 1_555 1_555
H22 C37 1_555 1_555
N3 Mn2 1_555 1_555
C38 N3 1_555 1_555
H23 C38 1_555 1_555
C39 C35 1_555 1_555
H24 C39 1_555 1_555
C40 C35 1_555 1_555
C41 C40 1_555 1_555
H25 C41 1_555 1_555
C42 C41 1_555 1_555
H26 C42 1_555 1_555
N4 C42 1_555 1_555
C43 N4 1_555 1_555
H27 C43 1_555 1_555
C44 C40 1_555 1_555
H28 C44 1_555 1_555
Mn1_2 O4 1_555 1_555
Mn1_3 N2 1_555 1_555
Mn2_2 O3 1_555 1_555
Mn2_3 N4 1_555 1_555
Mn2A O5 1_555 1_555
O3_2 Mn2 1_555 1_555
O4_2 Mn1 1_555 1_555
O5A Mn2 1_555 1_555
O6A Mn2 1_555 1_555
N2_2 Mn1 1_555 1_555
N4_2 Mn2 1_555 1_555
C5 C10 1_555 1_555
C8 C9 1_555 1_555
C9 C10 1_555 1_555
C17 C22 1_555 1_555
C20 C21 1_555 1_555
C21 C22 1_555 1_555
O6 Mn2A 1_555 1_555
C24 O7 1_555 1_555
C24 O8 1_555 1_555
C27 N1 1_555 1_555
C28 C29 1_555 1_555
C33 C34 1_555 1_555
C37 N3 1_555 1_555
C38 C39 1_555 1_555
C43 C44 1_555 1_555

#END
