
#######################################################################
#
#                 Cambridge Crystallographic Data Centre
#                                CCDC 
#
#######################################################################
#
# If this CIF has been generated from an entry in the Cambridge 
# Structural Database, then it will include bibliographic, chemical, 
# crystal, experimental, refinement or atomic coordinate data resulting 
# from the CCDC's data processing and validation procedures.
#
#######################################################################

data_NOQTAO
_symmetry_cell_setting           tetragonal
_symmetry_space_group_name_H-M   'P 4/n'
_symmetry_Int_Tables_number      85
_space_group_name_Hall           '-P 4a'
loop_
_symmetry_equiv_pos_site_id
_symmetry_equiv_pos_as_xyz
1 x,y,z
2 1/2-y,x,z
3 1/2-x,1/2-y,z
4 y,1/2-x,z
5 -x,-y,-z
6 1/2+y,-x,-z
7 1/2+x,1/2+y,-z
8 -y,1/2+x,-z
_cell_length_a                   16.957(3)
_cell_length_b                   16.957(3)
_cell_length_c                   5.129(2)
_cell_angle_alpha                90
_cell_angle_beta                 90
_cell_angle_gamma                90
_cell_volume                     1474.79
loop_
_atom_site_label
_atom_site_type_symbol
_atom_site_fract_x
_atom_site_fract_y
_atom_site_fract_z
Ag1 Ag 0.7500 0.2500 1.0000
O1 O 0.4805(5) 0.4352(5) 1.258(1)
N1 N 0.6262(6) 0.2304(7) 0.804(2)
N2 N 0.4636(6) 0.4198(6) 0.820(2)
C1 C 0.4848(6) 0.4607(7) 1.026(2)
C2 C 0.5696(8) 0.2787(8) 0.871(2)
C3 C 0.4330(8) 0.341(1) 0.826(3)
C4 C 0.4836(8) 0.2269(8) 0.552(3)
C5 C 0.544(1) 0.1773(8) 0.477(3)
C6 C 0.613(1) 0.1779(7) 0.621(3)
C7 C 0.4948(7) 0.2799(7) 0.737(2)
H1 H 0.5701 0.3169 1.0116
H2 H 0.4374 0.2211 0.4578
H3 H 0.5433 0.1404 0.3375
H4 H 0.6556 0.1418 0.5758
H5 H 0.4174 0.3294 0.9939
H6 H 0.3924 0.3368 0.7041
H7 H 0.4747 0.4412 0.6962
C1D C 0.5152(6) 0.5393(7) 0.974(2)
O1D O 0.5195(5) 0.5648(5) 0.742(1)
N2D N 0.5364(6) 0.5802(6) 1.180(2)
C3D C 0.5670(8) 0.659(1) 1.174(3)
C7D C 0.5052(7) 0.7201(7) 1.263(2)
C2D C 0.4304(8) 0.7213(8) 1.129(2)
N1D N 0.3738(6) 0.7696(7) 1.196(2)
Ag1D Ag 0.2500 0.7500 1.0000
N1F N 0.1262(6) 0.7304(7) 1.196(2)
C2F C 0.0696(8) 0.7787(8) 1.129(2)
C7F C -0.0052(7) 0.7799(7) 1.263(2)
C3F C -0.0670(8) 0.841(1) 1.174(3)
N2F N -0.0364(6) 0.9198(6) 1.180(2)
C1F C -0.0152(6) 0.9607(7) 0.974(2)
O1F O -0.0195(5) 0.9352(5) 0.742(1)
C1B C 0.0152(6) 1.0393(7) 1.026(2)
O1B O 0.0195(5) 1.0648(5) 1.258(1)
N2B N 0.0364(6) 1.0802(6) 0.820(2)
C3B C 0.0670(8) 1.159(1) 0.826(3)
C7B C 0.0052(7) 1.2201(7) 0.737(2)
C2B C -0.0696(8) 1.2213(8) 0.871(2)
N1B N -0.1262(6) 1.2696(7) 0.804(2)
Ag1B Ag -0.2500 1.2500 1.0000
C6B C -0.113(1) 1.3221(7) 0.621(3)
C5B C -0.044(1) 1.3227(8) 0.477(3)
C4B C 0.0164(8) 1.2731(8) 0.552(3)
H2B H 0.0626 1.2789 0.4578
H3B H -0.0433 1.3596 0.3375
H4B H -0.1556 1.3582 0.5758
H1B H -0.0701 1.1831 1.0116
H5B H 0.0826 1.1706 0.9939
H6B H 0.1076 1.1632 0.7041
H7B H 0.0253 1.0588 0.6962
H7F H -0.0253 0.9412 1.3038
H5F H -0.0826 0.8294 1.0061
H6F H -0.1076 0.8368 1.2959
C4F C -0.0164(8) 0.7269(8) 1.448(3)
C5F C 0.044(1) 0.6773(8) 1.523(3)
C6F C 0.113(1) 0.6779(7) 1.379(3)
H4F H 0.1556 0.6418 1.4242
H3F H 0.0433 0.6404 1.6625
H2F H -0.0626 0.7211 1.5422
H1F H 0.0701 0.8169 0.9884
N1A N 0.2696(7) 0.6262(6) 0.804(2)
N1C N 0.2304(7) 0.8738(6) 0.804(2)
C6D C 0.387(1) 0.8221(7) 1.379(3)
C5D C 0.456(1) 0.8227(8) 1.523(3)
C4D C 0.5164(8) 0.7731(8) 1.448(3)
H2D H 0.5626 0.7789 1.5422
H3D H 0.4567 0.8596 1.6625
H4D H 0.3444 0.8582 1.4242
H1D H 0.4299 0.6831 0.9884
H5D H 0.5826 0.6706 1.0061
H6D H 0.6076 0.6632 1.2959
H7D H 0.5253 0.5588 1.3038
F1 F 0.208(1) 0.185(1) 1.286(3)
B1 B 0.2500 0.2500 1.226(7)
F1A F 0.315(1) 0.208(1) 1.286(3)
F1B F 0.292(1) 0.315(1) 1.286(3)
F1C F 0.185(1) 0.292(1) 1.286(3)
F2? F 0.2500 0.2500 0.944(7)
loop_
_geom_bond_atom_site_label_1
_geom_bond_atom_site_label_2
_geom_bond_site_symmetry_1
_geom_bond_site_symmetry_2
Ag1 N1 1_555 1_555
F1 B1 1_555 1_555
O1 C1 1_555 1_555
N1 C2 1_555 1_555
N2 C1 1_555 1_555
C1 C1D 1_555 1_555
C2 C7 1_555 1_555
C3 N2 1_555 1_555
C4 C5 1_555 1_555
C5 C6 1_555 1_555
C6 N1 1_555 1_555
C7 C3 1_555 1_555
B1 F1A 1_555 1_555
H1 C2 1_555 1_555
H2 C4 1_555 1_555
H3 C5 1_555 1_555
H4 C6 1_555 1_555
H5 C3 1_555 1_555
H6 C3 1_555 1_555
H7 N2 1_555 1_555
C1D O1D 1_555 1_555
N2D C1D 1_555 1_555
C3D N2D 1_555 1_555
C7D C3D 1_555 1_555
C2D C7D 1_555 1_555
N1D C2D 1_555 1_555
Ag1D N1D 1_555 1_555
N1F Ag1D 1_555 1_555
C2F N1F 1_555 1_555
C7F C2F 1_555 1_555
C3F C7F 1_555 1_555
N2F C3F 1_555 1_555
C1F N2F 1_555 1_555
O1F C1F 1_555 1_555
C1B C1F 1_555 1_555
O1B C1B 1_555 1_555
N2B C1B 1_555 1_555
C3B N2B 1_555 1_555
C7B C3B 1_555 1_555
C2B C7B 1_555 1_555
N1B C2B 1_555 1_555
Ag1B N1B 1_555 1_555
C6B N1B 1_555 1_555
C5B C6B 1_555 1_555
C4B C7B 1_555 1_555
H2B C4B 1_555 1_555
H3B C5B 1_555 1_555
H4B C6B 1_555 1_555
H1B C2B 1_555 1_555
H5B C3B 1_555 1_555
H6B C3B 1_555 1_555
H7B N2B 1_555 1_555
H7F N2F 1_555 1_555
H5F C3F 1_555 1_555
H6F C3F 1_555 1_555
C4F C7F 1_555 1_555
C5F C4F 1_555 1_555
C6F N1F 1_555 1_555
H4F C6F 1_555 1_555
H3F C5F 1_555 1_555
H2F C4F 1_555 1_555
H1F C2F 1_555 1_555
N1A Ag1D 1_555 1_555
N1C Ag1D 1_555 1_555
C6D N1D 1_555 1_555
C5D C6D 1_555 1_555
C4D C7D 1_555 1_555
H2D C4D 1_555 1_555
H3D C5D 1_555 1_555
H4D C6D 1_555 1_555
H1D C2D 1_555 1_555
H5D C3D 1_555 1_555
H6D C3D 1_555 1_555
H7D N2D 1_555 1_555
F1B B1 1_555 1_555
F1C B1 1_555 1_555
C4 C7 1_555 1_555
C5B C4B 1_555 1_555
C5F C6F 1_555 1_555
C5D C4D 1_555 1_555

#END
