
#######################################################################
#
#                 Cambridge Crystallographic Data Centre
#                                CCDC 
#
#######################################################################
#
# If this CIF has been generated from an entry in the Cambridge 
# Structural Database, then it will include bibliographic, chemical, 
# crystal, experimental, refinement or atomic coordinate data resulting 
# from the CCDC's data processing and validation procedures.
#
#######################################################################

data_NOQXAU
_symmetry_cell_setting           orthorhombic
_symmetry_space_group_name_H-M   'P 21 21 21'
_symmetry_Int_Tables_number      19
_space_group_name_Hall           'P 2ac 2ab'
loop_
_symmetry_equiv_pos_site_id
_symmetry_equiv_pos_as_xyz
1 x,y,z
2 1/2-x,-y,1/2+z
3 -x,1/2+y,1/2-z
4 1/2+x,1/2-y,-z
_cell_length_a                   12.175(3)
_cell_length_b                   13.545(2)
_cell_length_c                   22.344(3)
_cell_angle_alpha                90
_cell_angle_beta                 90
_cell_angle_gamma                90
_cell_volume                     3684.76
loop_
_atom_site_label
_atom_site_type_symbol
_atom_site_fract_x
_atom_site_fract_y
_atom_site_fract_z
C1 C 0.19722(17) 0.18298(15) 0.91828(9)
C2 C 0.32974(18) 0.18728(16) 0.82118(9)
C3 C 0.01645(17) 0.20973(15) 0.85771(8)
C4 C 0.22458(18) 0.40165(17) 0.87237(10)
H1 H 0.2412 0.3760 0.9099
C5 C 0.2388(2) 0.50282(19) 0.86285(12)
H2 H 0.2650 0.5431 0.8934
C6 C 0.2136(2) 0.54190(19) 0.80792(11)
H3 H 0.2222 0.6092 0.8010
C7 C 0.1746(2) 0.47998(17) 0.76198(10)
C8 C 0.1445(2) 0.5127(2) 0.70410(11)
H4 H 0.1486 0.5794 0.6944
C9 C 0.1093(2) 0.4458(2) 0.66263(11)
H5 H 0.0882 0.4685 0.6251
C10 C 0.10367(19) 0.3446(2) 0.67414(10)
H6 H 0.0815 0.3011 0.6443
C11 C 0.13155(17) 0.30925(18) 0.73071(9)
C12 C 0.16491(18) 0.37881(17) 0.77459(9)
C13 C 0.10160(18) 0.13077(19) 0.72023(10)
C14 C 0.12283(18) 0.04018(18) 0.75607(10)
C15 C 0.1166(2) -0.0561(2) 0.73533(11)
H7 H 0.0947 -0.0663 0.6959
C16 C 0.1692(2) -0.11717(17) 0.82595(12)
C17 C 0.17570(19) -0.02109(16) 0.84829(10)
H8 H 0.1953 -0.0113 0.8881
C18 C 0.1945(3) -0.2043(2) 0.86452(14)
H9 H 0.1358 -0.2514 0.8617
H10 H 0.2023 -0.1833 0.9053
H11 H 0.2617 -0.2343 0.8513
C19 C 0.4478(3) 0.7267(2) 0.99688(14)
H12 H 0.5195 0.7174 0.9799
H13 H 0.4544 0.7598 1.0347
H14 H 0.4040 0.7659 0.9702
C20 C 0.3935(2) 0.62711(19) 1.00606(10)
C21 C 0.2849(2) 0.62105(18) 1.02760(10)
H15 H 0.2453 0.6790 1.0334
C22 C 0.23586(19) 0.53207(17) 1.04027(10)
H16 H 0.1643 0.5314 1.0548
C23 C 0.29147(18) 0.44184(16) 1.03180(9)
C24 C 0.39809(18) 0.44688(17) 1.00535(9)
C25 C 0.4457(2) 0.53980(18) 0.99431(10)
H17 H 0.5161 0.5420 0.9782
C26 C 0.45574(18) 0.35951(17) 0.98638(9)
H18 H 0.5210 0.3683 0.9654
C27 C 0.48421(18) 0.18564(17) 0.97092(10)
H19 H 0.5564 0.2057 0.9571
H20 H 0.4440 0.1579 0.9374
C28 C 0.49441(18) 0.11018(17) 1.02089(10)
H21 H 0.5161 0.0466 1.0048
H22 H 0.5492 0.1311 1.0498
C29 C 0.34612(18) 0.01950(16) 1.06573(9)
H23 H 0.3876 -0.0365 1.0574
C30 C 0.24191(19) 0.00572(17) 1.09611(9)
C31 C 0.2102(2) -0.09168(17) 1.10915(10)
H24 H 0.2544 -0.1433 1.0959
C32 C 0.1159(2) -0.11372(19) 1.14098(10)
C33 C 0.0520(2) -0.03344(19) 1.15980(10)
H25 H -0.0124 -0.0459 1.1808
C34 C 0.08069(19) 0.06303(18) 1.14843(10)
H26 H 0.0361 0.1139 1.1622
C35 C 0.17719(18) 0.08571(15) 1.11600(8)
C36 C 0.0849(2) -0.21864(19) 1.15578(12)
H27 H 0.1256 -0.2630 1.1307
H28 H 0.0077 -0.2278 1.1491
H29 H 0.1018 -0.2319 1.1970
Fe1 Fe 0.17035(2) 0.19642(2) 0.832539(12)
Mn1 Mn 0.30658(2) 0.23193(2) 1.053037(13)
N1 N 0.21060(15) 0.17891(14) 0.96910(8)
N2 N 0.42323(16) 0.18824(17) 0.81420(9)
N3 N 0.18854(15) 0.34058(13) 0.83045(8)
N4 N 0.13317(14) 0.21211(14) 0.75114(7)
N5 N 0.15437(15) 0.05689(14) 0.81378(8)
N6 N 0.14012(18) -0.13444(16) 0.76857(10)
N7 N 0.42448(13) 0.27084(14) 0.99611(7)
N8 N 0.38506(14) 0.10320(13) 1.04960(8)
N9 N -0.07184(14) 0.22233(14) 0.87443(8)
O1 O 0.06136(14) 0.12718(14) 0.66945(7)
O2 O 0.24299(12) 0.35892(11) 1.04679(7)
O3 O 0.20072(12) 0.18014(10) 1.10643(6)
Mn1C Mn -0.19342(2) 0.26807(2) 0.946963(13)
N9C N 0.42816(14) 0.27767(14) 1.12557(8)
C37 C 0.4622(3) 0.9501(2) 0.86854(15)
C38 C 0.5084(7) 0.9560(4) 0.80901(18)
H30 H 0.5869 0.9611 0.8117
H31 H 0.4798 1.0131 0.7889
H32 H 0.4893 0.8977 0.7869
N10 N 0.4271(2) 0.94483(19) 0.91436(12)
O4 O 0.64815(18) 0.21854(19) 0.76785(11)
H33 H 0.5884 0.2075 0.7870
H34 H 0.6286 0.2156 0.7310
loop_
_geom_bond_atom_site_label_1
_geom_bond_atom_site_label_2
_geom_bond_site_symmetry_1
_geom_bond_site_symmetry_2
C1 Fe1 1_555 1_555
C2 Fe1 1_555 1_555
C3 Fe1 1_555 1_555
C4 H1 1_555 1_555
C5 C4 1_555 1_555
H2 C5 1_555 1_555
C6 C5 1_555 1_555
H3 C6 1_555 1_555
C7 C6 1_555 1_555
C8 C7 1_555 1_555
H4 C8 1_555 1_555
C9 C8 1_555 1_555
H5 C9 1_555 1_555
C10 C9 1_555 1_555
H6 C10 1_555 1_555
C11 C10 1_555 1_555
C12 C7 1_555 1_555
C13 C14 1_555 1_555
C14 C15 1_555 1_555
C15 H7 1_555 1_555
C16 C17 1_555 1_555
C17 H8 1_555 1_555
C18 C16 1_555 1_555
H9 C18 1_555 1_555
H10 C18 1_555 1_555
H11 C18 1_555 1_555
C19 H12 1_555 1_555
H13 C19 1_555 1_555
H14 C19 1_555 1_555
C20 C19 1_555 1_555
C21 C20 1_555 1_555
H15 C21 1_555 1_555
C22 C21 1_555 1_555
H16 C22 1_555 1_555
C23 C22 1_555 1_555
C24 C23 1_555 1_555
C25 C20 1_555 1_555
H17 C25 1_555 1_555
C26 C24 1_555 1_555
H18 C26 1_555 1_555
C27 H19 1_555 1_555
H20 C27 1_555 1_555
C28 C27 1_555 1_555
H21 C28 1_555 1_555
H22 C28 1_555 1_555
C29 H23 1_555 1_555
C30 C29 1_555 1_555
C31 C30 1_555 1_555
H24 C31 1_555 1_555
C32 C31 1_555 1_555
C33 C32 1_555 1_555
H25 C33 1_555 1_555
C34 C33 1_555 1_555
H26 C34 1_555 1_555
C35 C30 1_555 1_555
C36 C32 1_555 1_555
H27 C36 1_555 1_555
H28 C36 1_555 1_555
H29 C36 1_555 1_555
Fe1 N3 1_555 1_555
Mn1 N1 1_555 1_555
N1 C1 1_555 1_555
N2 C2 1_555 1_555
N3 C4 1_555 1_555
N4 C11 1_555 1_555
N5 C14 1_555 1_555
N6 C15 1_555 1_555
N7 C26 1_555 1_555
N8 C28 1_555 1_555
N9 C3 1_555 1_555
O1 C13 1_555 1_555
O2 C23 1_555 1_555
O3 C35 1_555 1_555
C37 C38 1_555 1_555
C38 H30 1_555 1_555
H31 C38 1_555 1_555
H32 C38 1_555 1_555
N10 C37 1_555 1_555
O4 H33 1_555 1_555
H34 O4 1_555 1_555
Mn1C N9 1_555 1_555
N9C Mn1 1_555 1_555
C11 C12 1_555 1_555
C12 N3 1_555 1_555
C13 N4 1_555 1_555
C16 N6 1_555 1_555
C17 N5 1_555 1_555
C24 C25 1_555 1_555
C27 N7 1_555 1_555
C29 N8 1_555 1_555
C34 C35 1_555 1_555
Fe1 N4 1_555 1_555
Fe1 N5 1_555 1_555
Mn1 N7 1_555 1_555
Mn1 N8 1_555 1_555
Mn1 O2 1_555 1_555
Mn1 O3 1_555 1_555

#END
