
#######################################################################
#
#                 Cambridge Crystallographic Data Centre
#                                CCDC 
#
#######################################################################
#
# If this CIF has been generated from an entry in the Cambridge 
# Structural Database, then it will include bibliographic, chemical, 
# crystal, experimental, refinement or atomic coordinate data resulting 
# from the CCDC's data processing and validation procedures.
#
#######################################################################

data_NORJIP
_symmetry_cell_setting           monoclinic
_symmetry_space_group_name_H-M   'P 21/n'
_symmetry_Int_Tables_number      14
_space_group_name_Hall           '-P 2yn'
loop_
_symmetry_equiv_pos_site_id
_symmetry_equiv_pos_as_xyz
1 x,y,z
2 1/2-x,1/2+y,1/2-z
3 -x,-y,-z
4 1/2+x,1/2-y,1/2+z
_cell_length_a                   9.4137(19)
_cell_length_b                   17.434(4)
_cell_length_c                   13.667(3)
_cell_angle_alpha                90
_cell_angle_beta                 91.87(3)
_cell_angle_gamma                90
_cell_volume                     2241.81
loop_
_atom_site_label
_atom_site_type_symbol
_atom_site_fract_x
_atom_site_fract_y
_atom_site_fract_z
Pr1 Pr 0.80826(5) 0.20144(3) 0.17013(4)
O1 O 1.0797(7) 0.2098(4) 0.1831(6)
H1 H 1.1306 0.1742 0.2064
H2 H 1.1280 0.2357 0.1445
O2 O 0.9296(7) 0.2356(4) 0.0151(5)
H3 H 0.9852 0.2058 -0.0131
H4 H 0.8946 0.2661 -0.0267
O3 O 0.6383(7) 0.2609(4) 0.0391(5)
H5 H 0.5983 0.2302 -0.0004
H6 H 0.5773 0.2917 0.0592
O4 O 0.8748(7) 0.2536(4) 0.3337(5)
H7 H 0.9495 0.2788 0.3255
H8 H 0.8094 0.2844 0.3466
O5 O 0.5923(7) 0.2462(4) 0.2599(5)
H9 H 0.5156 0.2221 0.2648
H10 H 0.5901 0.2856 0.2951
O6 O 0.8862(8) 0.0848(4) 0.0802(6)
H11 H 0.8628 0.0395 0.0931
H12 H 0.9295 0.0861 0.0275
O7 O 0.8659(7) 0.1013(4) 0.2905(5)
O8 O 0.6092(7) 0.1082(4) 0.1484(6)
N1 N 0.3963(9) 0.1465(5) 0.0827(7)
H13 H 0.4254 0.1940 0.0753
H14 H 0.3090 0.1336 0.0646
C1 C 0.2797(9) 0.0050(5) 0.1561(7)
H15 H 0.2158 0.0471 0.1587
C2 C 0.4835(10) 0.0946(6) 0.1208(8)
C3 C 0.7635(9) -0.0158(5) 0.3435(7)
C4 C 0.5111(10) -0.0471(5) 0.1296(7)
H16 H 0.6082 -0.0385 0.1161
C5 C 0.4213(9) 0.0161(5) 0.1367(7)
C6 C 0.8865(11) 0.0364(5) 0.3279(8)
N2 N 0.6640(8) -0.1421(4) 0.3461(6)
N3 N 1.0155(9) 0.0122(5) 0.3553(7)
H17 H 1.0897 0.0420 0.3473
H18 H 1.0269 -0.0336 0.3813
N4 N 0.4669(9) -0.1188(5) 0.1409(7)
C7 C 0.3306(12) -0.1284(6) 0.1618(8)
H19 H 0.2975 -0.1793 0.1706
C8 C 0.7750(10) -0.0948(5) 0.3341(8)
H20 H 0.8644 -0.1163 0.3187
C9 C 0.6339(10) 0.0168(5) 0.3671(8)
H21 H 0.6238 0.0708 0.3736
C10 C 0.5400(10) -0.1097(6) 0.3694(8)
H22 H 0.4610 -0.1425 0.3786
C11 C 0.2342(11) -0.0692(6) 0.1715(8)
H23 H 0.1389 -0.0793 0.1885
C12 C 0.5202(11) -0.0322(6) 0.3808(8)
H24 H 0.4303 -0.0125 0.3978
Pr1A Pr 0.69174(5) -0.29856(3) 0.32987(4)
N2A N 0.8360(8) 0.3579(4) 0.1539(6)
Br1 Br 0.62713(10) 0.39400(5) 0.41848(8)
Br2 Br 0.30157(10) 0.14895(6) 0.35384(8)
Br3 Br 0.83076(11) 0.16021(6) 0.55632(9)
loop_
_geom_bond_atom_site_label_1
_geom_bond_atom_site_label_2
_geom_bond_site_symmetry_1
_geom_bond_site_symmetry_2
Pr1 O1 1_555 1_555
O1 H1 1_555 1_555
H2 O1 1_555 1_555
O2 Pr1 1_555 1_555
H3 O2 1_555 1_555
H4 O2 1_555 1_555
O3 Pr1 1_555 1_555
H5 O3 1_555 1_555
H6 O3 1_555 1_555
O4 Pr1 1_555 1_555
H7 O4 1_555 1_555
H8 O4 1_555 1_555
O5 Pr1 1_555 1_555
H9 O5 1_555 1_555
H10 O5 1_555 1_555
O6 Pr1 1_555 1_555
H11 O6 1_555 1_555
H12 O6 1_555 1_555
O7 Pr1 1_555 1_555
O8 Pr1 1_555 1_555
N1 H13 1_555 1_555
H14 N1 1_555 1_555
C1 H15 1_555 1_555
C2 O8 1_555 1_555
C3 C6 1_555 1_555
C4 H16 1_555 1_555
C5 C1 1_555 1_555
C6 O7 1_555 1_555
N2 C8 1_555 1_555
N3 C6 1_555 1_555
H17 N3 1_555 1_555
H18 N3 1_555 1_555
N4 C4 1_555 1_555
C7 N4 1_555 1_555
H19 C7 1_555 1_555
C8 C3 1_555 1_555
H20 C8 1_555 1_555
C9 C3 1_555 1_555
H21 C9 1_555 1_555
C10 N2 1_555 1_555
H22 C10 1_555 1_555
C11 C1 1_555 1_555
H23 C11 1_555 1_555
C12 C9 1_555 1_555
H24 C12 1_555 1_555
Pr1A N2 1_555 1_555
N2A Pr1 1_555 1_555
N1 C2 1_555 1_555
C2 C5 1_555 1_555
C4 C5 1_555 1_555
C7 C11 1_555 1_555
C10 C12 1_555 1_555

#END
