
#######################################################################
#
#                 Cambridge Crystallographic Data Centre
#                                CCDC 
#
#######################################################################
#
# If this CIF has been generated from an entry in the Cambridge 
# Structural Database, then it will include bibliographic, chemical, 
# crystal, experimental, refinement or atomic coordinate data resulting 
# from the CCDC's data processing and validation procedures.
#
#######################################################################

data_NORPOB
_symmetry_cell_setting           monoclinic
_symmetry_space_group_name_H-M   'C 2/c'
_symmetry_Int_Tables_number      15
_space_group_name_Hall           '-C 2yn'
loop_
_symmetry_equiv_pos_site_id
_symmetry_equiv_pos_as_xyz
1 x,y,z
2 -x,y,1/2-z
3 1/2+x,1/2+y,z
4 1/2-x,1/2+y,1/2-z
5 -x,-y,-z
6 x,-y,1/2+z
7 1/2-x,1/2-y,-z
8 1/2+x,1/2-y,1/2+z
_cell_length_a                   55.325(11)
_cell_length_b                   5.0360(10)
_cell_length_c                   15.642(3)
_cell_angle_alpha                90
_cell_angle_beta                 98.42(3)
_cell_angle_gamma                90
_cell_volume                     4311.15
loop_
_atom_site_label
_atom_site_type_symbol
_atom_site_fract_x
_atom_site_fract_y
_atom_site_fract_z
C1 C 0.22925(4) 0.7649(4) 0.63234(13)
C2 C 0.21537(4) 0.7789(4) 0.70868(13)
H1 H 0.2259 0.8614 0.7581
H2 H 0.2115 0.5963 0.7258
C3 C 0.19165(4) 0.9377(4) 0.68957(14)
H3 H 0.1955 1.1175 0.6697
H4 H 0.1845 0.9578 0.7437
C4 C 0.17263(4) 0.8094(4) 0.62113(14)
H5 H 0.1796 0.7936 0.5665
H6 H 0.1691 0.6278 0.6402
C5 C 0.14874(4) 0.9647(4) 0.60388(15)
H7 H 0.1420 0.9843 0.6588
H8 H 0.1522 1.1448 0.5834
C6 C 0.12960(4) 0.8341(4) 0.53745(14)
H9 H 0.1269 0.6503 0.5565
H10 H 0.1361 0.8232 0.4818
C7 C 0.10507(4) 0.9774(4) 0.52242(15)
H11 H 0.0987 0.9918 0.5781
H12 H 0.1076 1.1598 0.5018
C8 C 0.08620(4) 0.8391(5) 0.45739(15)
H13 H 0.0841 0.6549 0.4772
H14 H 0.0925 0.8295 0.4014
C9 C 0.06133(4) 0.9734(5) 0.44319(17)
H15 H 0.0551 0.9860 0.4992
H16 H 0.0632 1.1563 0.4219
C10 C 0.04281(5) 0.8257(6) 0.37898(19)
H17 H 0.0272 0.9202 0.3722
H18 H 0.0406 0.6457 0.4003
H19 H 0.0487 0.8162 0.3230
C11 C 0.21118(4) 0.5149(4) 0.42937(12)
C12 C 0.18752(3) 0.3650(4) 0.40873(13)
H20 H 0.1815 0.3209 0.4636
H21 H 0.1908 0.1956 0.3804
C13 C 0.16736(4) 0.5127(4) 0.35051(13)
H22 H 0.1648 0.6880 0.3764
H23 H 0.1726 0.5437 0.2935
C14 C 0.14336(3) 0.3599(4) 0.33774(13)
H24 H 0.1463 0.1799 0.3159
H25 H 0.1375 0.3400 0.3943
C15 C 0.12362(4) 0.4961(4) 0.27481(14)
H26 H 0.1209 0.6769 0.2964
H27 H 0.1295 0.5145 0.2182
C16 C 0.09942(4) 0.3475(4) 0.26196(14)
H28 H 0.1022 0.1656 0.2414
H29 H 0.0934 0.3320 0.3184
C17 C 0.07981(4) 0.4807(4) 0.19792(15)
H30 H 0.0858 0.4963 0.1414
H31 H 0.0770 0.6625 0.2185
C18 C 0.05567(4) 0.3305(5) 0.18542(15)
H32 H 0.0585 0.1501 0.1638
H33 H 0.0500 0.3110 0.2423
C19 C 0.03559(4) 0.4632(5) 0.12319(18)
H34 H 0.0413 0.4886 0.0667
H35 H 0.0321 0.6405 0.1459
C20 C 0.01208(4) 0.3007(6) 0.1100(2)
H36 H -0.0003 0.3932 0.0694
H37 H 0.0061 0.2785 0.1655
H38 H 0.0153 0.1259 0.0865
O1 O 0.22528(3) 0.9466(3) 0.57716(11)
O2 O 0.24388(3) 0.5746(3) 0.62896(9)
O3 O 0.21124(3) 0.7603(3) 0.41666(11)
O4 O 0.22987(2) 0.3847(3) 0.46197(8)
Cu1 Cu 0.239433(4) 0.96558(4) 0.471293(15)
O2F O 0.25612(3) 0.9254(3) 0.37104(9)
O4_2 O 0.22987(2) 1.3847(3) 0.46197(8)
O4F O 0.27013(2) 1.1153(3) 0.53803(8)
Cu1_2 Cu 0.239433(4) -0.03442(4) 0.471293(15)
Cu1F Cu 0.260567(4) 0.53442(4) 0.528707(15)
loop_
_geom_bond_atom_site_label_1
_geom_bond_atom_site_label_2
_geom_bond_site_symmetry_1
_geom_bond_site_symmetry_2
C1 C2 1_555 1_555
C2 H1 1_555 1_555
H2 C2 1_555 1_555
C3 C2 1_555 1_555
H3 C3 1_555 1_555
H4 C3 1_555 1_555
C4 C3 1_555 1_555
H5 C4 1_555 1_555
H6 C4 1_555 1_555
C5 C4 1_555 1_555
H7 C5 1_555 1_555
H8 C5 1_555 1_555
C6 C5 1_555 1_555
H9 C6 1_555 1_555
H10 C6 1_555 1_555
C7 C6 1_555 1_555
H11 C7 1_555 1_555
H12 C7 1_555 1_555
C8 C7 1_555 1_555
H13 C8 1_555 1_555
H14 C8 1_555 1_555
C9 C8 1_555 1_555
H15 C9 1_555 1_555
H16 C9 1_555 1_555
C10 C9 1_555 1_555
H17 C10 1_555 1_555
H18 C10 1_555 1_555
H19 C10 1_555 1_555
C11 C12 1_555 1_555
C12 H20 1_555 1_555
H21 C12 1_555 1_555
C13 C12 1_555 1_555
H22 C13 1_555 1_555
H23 C13 1_555 1_555
C14 C13 1_555 1_555
H24 C14 1_555 1_555
H25 C14 1_555 1_555
C15 C14 1_555 1_555
H26 C15 1_555 1_555
H27 C15 1_555 1_555
C16 C15 1_555 1_555
H28 C16 1_555 1_555
H29 C16 1_555 1_555
C17 C16 1_555 1_555
H30 C17 1_555 1_555
H31 C17 1_555 1_555
C18 C17 1_555 1_555
H32 C18 1_555 1_555
H33 C18 1_555 1_555
C19 C18 1_555 1_555
H34 C19 1_555 1_555
H35 C19 1_555 1_555
C20 C19 1_555 1_555
H36 C20 1_555 1_555
H37 C20 1_555 1_555
H38 C20 1_555 1_555
O1 C1 1_555 1_555
O2 C1 1_555 1_555
O3 C11 1_555 1_555
O4 C11 1_555 1_555
Cu1 O1 1_555 1_555
O2F Cu1 1_555 1_555
O4_2 Cu1 1_555 1_555
O4F Cu1 1_555 1_555
Cu1_2 O4 1_555 1_555
Cu1F O2 1_555 1_555
O3 Cu1 1_555 1_555
O4 Cu1F 1_555 1_555
Cu1 Cu1F 1_555 1_555

#END
