
#######################################################################
#
#                 Cambridge Crystallographic Data Centre
#                                CCDC 
#
#######################################################################
#
# If this CIF has been generated from an entry in the Cambridge 
# Structural Database, then it will include bibliographic, chemical, 
# crystal, experimental, refinement or atomic coordinate data resulting 
# from the CCDC's data processing and validation procedures.
#
#######################################################################

data_NORPER
_symmetry_cell_setting           monoclinic
_symmetry_space_group_name_H-M   'P 21/n'
_symmetry_Int_Tables_number      14
_space_group_name_Hall           '-P 2yn'
loop_
_symmetry_equiv_pos_site_id
_symmetry_equiv_pos_as_xyz
1 x,y,z
2 1/2-x,1/2+y,1/2-z
3 -x,-y,-z
4 1/2+x,1/2-y,1/2+z
_cell_length_a                   12.9801(8)
_cell_length_b                   34.096(2)
_cell_length_c                   16.3847(10)
_cell_angle_alpha                90
_cell_angle_beta                 94.9230(10)
_cell_angle_gamma                90
_cell_volume                     7224.62
loop_
_atom_site_label
_atom_site_type_symbol
_atom_site_fract_x
_atom_site_fract_y
_atom_site_fract_z
U1 U 0.32039(2) 0.169231(7) 0.133571(15)
U2 U 0.293816(19) -0.167938(7) 0.152513(16)
O1 O 0.2199(4) 0.17358(14) 0.1987(3)
O2 O 0.4204(4) 0.16340(15) 0.0682(3)
O3 O 0.4024(4) 0.22793(12) 0.1957(3)
O4 O 0.4478(4) 0.17237(13) 0.2527(3)
O5 O 0.6955(4) 0.32741(15) 0.5117(3)
O6 O 0.7562(4) 0.27174(12) 0.5613(3)
O7 O 0.3668(4) 0.10373(13) 0.1985(3)
O8 O 0.2532(4) 0.10365(12) 0.0925(3)
O9 O 0.3492(4) -0.10272(13) 0.2054(3)
O10 O 0.2390(4) -0.10236(13) 0.0966(3)
O11 O 0.1905(4) -0.16616(14) 0.2144(3)
O12 O 0.3980(4) -0.16765(15) 0.0914(3)
O13 O 0.4147(4) -0.17156(14) 0.2773(3)
O14 O 0.3642(4) -0.22746(13) 0.2222(3)
O15 O 0.7238(4) -0.27222(12) 0.5832(3)
O16 O 0.6696(4) -0.32825(14) 0.5306(3)
C1 C 0.4527(5) 0.2093(2) 0.2531(4)
C2 C 0.5144(5) 0.23025(17) 0.3193(4)
C3 C 0.5714(5) 0.2094(2) 0.3806(4)
H1 H 0.5706 0.1821 0.3799
C4 C 0.6294(5) 0.22900(17) 0.4424(4)
H2 H 0.6658 0.2148 0.4840
C5 C 0.6336(5) 0.26946(17) 0.4430(4)
C6 C 0.6979(5) 0.2906(2) 0.5091(4)
C7 C 0.5754(6) 0.2906(2) 0.3816(5)
H3 H 0.5762 0.3179 0.3824
C8 C 0.5178(6) 0.27118(18) 0.3206(5)
H4 H 0.4805 0.2854 0.2795
C9 C 0.3065(5) 0.0846(2) 0.1458(4)
C10 C 0.3033(5) 0.0410(2) 0.1487(4)
C11 C 0.3613(6) 0.0212(2) 0.2094(5)
H5 H 0.4017 0.0349 0.2495
C12 C 0.3586(6) -0.0198(2) 0.2101(5)
H6 H 0.3981 -0.0337 0.2504
C13 C 0.2969(5) -0.0397(2) 0.1507(4)
C14 C 0.2940(5) -0.0839(2) 0.1507(4)
C15 C 0.2397(6) -0.0195(2) 0.0908(5)
H7 H 0.1988 -0.0330 0.0508
C16 C 0.2425(6) 0.0216(2) 0.0894(5)
H8 H 0.2036 0.0355 0.0487
C17 C 0.4166(5) -0.2083(2) 0.2775(4)
C18 C 0.4803(5) -0.22995(17) 0.3433(4)
C19 C 0.5351(5) -0.2092(2) 0.4064(4)
H9 H 0.5311 -0.1820 0.4078
C20 C 0.5960(5) -0.22912(17) 0.4674(4)
H10 H 0.6320 -0.2152 0.5096
C21 C 0.6025(5) -0.26952(17) 0.4650(4)
C22 C 0.6671(5) -0.2909(2) 0.5295(4)
C23 C 0.5462(5) -0.2904(2) 0.4028(4)
H11 H 0.5493 -0.3176 0.4021
C24 C 0.4858(5) -0.27073(18) 0.3422(4)
H12 H 0.4489 -0.2848 0.3007
U1C U 0.82039(2) 0.330769(7) 0.633571(15)
U2C U 0.793816(19) -0.332062(7) 0.652513(16)
O5C O 0.1955(4) 0.17259(15) 0.0117(3)
O6C O 0.2562(4) 0.22826(12) 0.0613(3)
O15C O 0.2238(4) -0.22778(12) 0.0832(3)
O16C O 0.1696(4) -0.17175(14) 0.0306(3)
Cu1 Cu 0.76246(8) 0.14905(3) 0.26922(7)
Cl1 Cl 0.7114(2) 0.11637(7) 0.38247(17)
N1 N 0.7110(5) 0.10449(19) 0.1980(5)
N2 N 0.9089(5) 0.12122(19) 0.2476(4)
N3 N 0.8240(5) 0.19416(18) 0.3337(4)
N4 N 0.7143(5) 0.19345(17) 0.1900(4)
C25 C 0.6108(7) 0.0972(3) 0.1743(7)
H13 H 0.5603 0.1150 0.1870
C26 C 0.5828(9) 0.0636(3) 0.1313(8)
H14 H 0.5140 0.0599 0.1121
C27 C 0.6538(9) 0.0356(3) 0.1163(8)
H15 H 0.6331 0.0124 0.0899
C28 C 0.7569(8) 0.0422(3) 0.1410(7)
C29 C 0.8408(10) 0.0153(3) 0.1322(7)
H16 H 0.8248 -0.0088 0.1074
C30 C 0.9408(10) 0.0223(3) 0.1573(7)
H17 H 0.9914 0.0037 0.1498
C31 C 0.9680(8) 0.0596(2) 0.1960(6)
C32 C 1.0698(8) 0.0702(3) 0.2267(7)
H18 H 1.1241 0.0527 0.2219
C33 C 1.0884(8) 0.1050(3) 0.2621(6)
H19 H 1.1556 0.1125 0.2794
C34 C 1.0046(7) 0.1301(3) 0.2729(6)
H20 H 1.0177 0.1540 0.2990
C35 C 0.8888(6) 0.0871(2) 0.2083(5)
C36 C 0.7839(7) 0.0776(2) 0.1813(5)
C37 C 0.8750(7) 0.1931(3) 0.4061(6)
H21 H 0.8837 0.1691 0.4325
C38 C 0.9173(7) 0.2268(3) 0.4457(6)
H22 H 0.9542 0.2251 0.4968
C39 C 0.9025(6) 0.2617(3) 0.4073(5)
H23 H 0.9305 0.2844 0.4317
C40 C 0.8458(6) 0.2640(2) 0.3316(5)
C41 C 0.8212(7) 0.2999(2) 0.2880(6)
H24 H 0.8467 0.3235 0.3096
C42 C 0.7620(8) 0.2998(2) 0.2166(6)
H25 H 0.7455 0.3236 0.1909
C43 C 0.7230(6) 0.2638(2) 0.1781(5)
C44 C 0.6618(7) 0.2620(3) 0.1044(5)
H26 H 0.6425 0.2848 0.0761
C45 C 0.6308(7) 0.2268(3) 0.0745(5)
H27 H 0.5907 0.2251 0.0248
C46 C 0.6588(6) 0.1931(3) 0.1179(5)
H28 H 0.6378 0.1691 0.0955
C47 C 0.7469(6) 0.2289(2) 0.2199(5)
C48 C 0.8065(6) 0.2292(2) 0.2963(5)
Cu2 Cu 0.06240(8) 0.09421(3) -0.37712(6)
Cl2 Cl 0.06375(19) 0.13761(7) -0.47968(16)
N5 N 0.0679(5) 0.09769(16) -0.2476(4)
N6 N 0.2165(5) 0.09713(17) -0.3521(4)
N7 N 0.0619(6) 0.03171(19) -0.3872(4)
N8 N -0.0907(5) 0.0852(2) -0.3904(4)
C49 C -0.0054(7) 0.0992(2) -0.1966(5)
H29 H -0.0739 0.0999 -0.2186
C50 C 0.0139(7) 0.0996(2) -0.1125(5)
H30 H -0.0401 0.1005 -0.0787
C51 C 0.1150(7) 0.0987(2) -0.0800(5)
H31 H 0.1299 0.0991 -0.0234
C52 C 0.1955(6) 0.0974(2) -0.1311(5)
C53 C 0.3042(7) 0.0974(2) -0.1022(5)
H32 H 0.3231 0.0979 -0.0461
C54 C 0.3782(6) 0.0967(2) -0.1548(6)
H33 H 0.4473 0.0966 -0.1346
C55 C 0.3523(6) 0.0962(2) -0.2418(6)
C56 C 0.4240(6) 0.0982(2) -0.3004(6)
H34 H 0.4943 0.0991 -0.2836
C57 C 0.3920(7) 0.0989(2) -0.3829(6)
H35 H 0.4395 0.0994 -0.4223
C58 C 0.2875(7) 0.0988(2) -0.4047(6)
H36 H 0.2655 0.1000 -0.4602
C59 C 0.2469(6) 0.0958(2) -0.2713(5)
C60 C 0.1692(6) 0.09672(19) -0.2155(5)
C61 C 0.1395(9) 0.0059(3) -0.3863(6)
H37 H 0.2071 0.0151 -0.3784
C62 C 0.1235(10) -0.0338(3) -0.3967(6)
H38 H 0.1793 -0.0509 -0.3973
C63 C 0.0235(11) -0.0479(3) -0.4062(6)
H39 H 0.0118 -0.0747 -0.4136
C64 C -0.0615(8) -0.0220(2) -0.4048(5)
C65 C -0.1686(10) -0.0320(3) -0.4111(6)
H40 H -0.1860 -0.0584 -0.4146
C66 C -0.2456(10) -0.0061(3) -0.4122(6)
H41 H -0.3138 -0.0146 -0.4185
C67 C -0.2230(7) 0.0349(3) -0.4039(6)
C68 C -0.2961(8) 0.0645(4) -0.4045(6)
H42 H -0.3660 0.0581 -0.4097
C69 C -0.2673(8) 0.1027(3) -0.3976(6)
H43 H -0.3167 0.1224 -0.3964
C70 C -0.1631(7) 0.1118(3) -0.3922(5)
H44 H -0.1437 0.1380 -0.3898
C71 C -0.1192(7) 0.0469(3) -0.3958(4)
C72 C -0.0367(7) 0.0185(2) -0.3956(5)
O17 O 0.7992(12) 0.1964(3) 0.6173(7)
O18 O 0.4980(9) 0.0740(4) 0.4309(8)
O19 O 0.3351(8) 0.1249(3) 0.3832(6)
O20 O 0.7931(8) -0.1934(2) 0.6266(5)
O21 O 0.526(2) -0.0004(7) 0.4228(18)
loop_
_geom_bond_atom_site_label_1
_geom_bond_atom_site_label_2
_geom_bond_site_symmetry_1
_geom_bond_site_symmetry_2
U1 O1 1_555 1_555
U2 O9 1_555 1_555
O2 U1 1_555 1_555
O3 U1 1_555 1_555
O4 U1 1_555 1_555
O5 C6 1_555 1_555
O6 C6 1_555 1_555
O7 U1 1_555 1_555
O8 U1 1_555 1_555
O9 C14 1_555 1_555
O10 U2 1_555 1_555
O11 U2 1_555 1_555
O12 U2 1_555 1_555
O13 U2 1_555 1_555
O14 U2 1_555 1_555
O15 C22 1_555 1_555
O16 C22 1_555 1_555
C1 O3 1_555 1_555
C2 C1 1_555 1_555
C3 C2 1_555 1_555
H1 C3 1_555 1_555
C4 C3 1_555 1_555
H2 C4 1_555 1_555
C5 C4 1_555 1_555
C6 C5 1_555 1_555
C7 C5 1_555 1_555
H3 C7 1_555 1_555
C8 C2 1_555 1_555
H4 C8 1_555 1_555
C9 O7 1_555 1_555
C10 C9 1_555 1_555
C11 C10 1_555 1_555
H5 C11 1_555 1_555
C12 C11 1_555 1_555
H6 C12 1_555 1_555
C13 C12 1_555 1_555
C14 O10 1_555 1_555
C15 C13 1_555 1_555
H7 C15 1_555 1_555
C16 C10 1_555 1_555
H8 C16 1_555 1_555
C17 O13 1_555 1_555
C18 C17 1_555 1_555
C19 C18 1_555 1_555
H9 C19 1_555 1_555
C20 C19 1_555 1_555
H10 C20 1_555 1_555
C21 C20 1_555 1_555
C22 C21 1_555 1_555
C23 C21 1_555 1_555
H11 C23 1_555 1_555
C24 C18 1_555 1_555
H12 C24 1_555 1_555
Cu1 Cl1 1_555 1_555
N1 Cu1 1_555 1_555
N2 Cu1 1_555 1_555
N3 Cu1 1_555 1_555
N4 Cu1 1_555 1_555
C25 N1 1_555 1_555
H13 C25 1_555 1_555
C26 C25 1_555 1_555
H14 C26 1_555 1_555
C27 C26 1_555 1_555
H15 C27 1_555 1_555
C28 C27 1_555 1_555
C29 C28 1_555 1_555
H16 C29 1_555 1_555
C30 C29 1_555 1_555
H17 C30 1_555 1_555
C31 C30 1_555 1_555
C32 C31 1_555 1_555
H18 C32 1_555 1_555
C33 C32 1_555 1_555
H19 C33 1_555 1_555
C34 N2 1_555 1_555
H20 C34 1_555 1_555
C35 N2 1_555 1_555
C36 N1 1_555 1_555
C37 N3 1_555 1_555
H21 C37 1_555 1_555
C38 C37 1_555 1_555
H22 C38 1_555 1_555
C39 C38 1_555 1_555
H23 C39 1_555 1_555
C40 C39 1_555 1_555
C41 C40 1_555 1_555
H24 C41 1_555 1_555
C42 C41 1_555 1_555
H25 C42 1_555 1_555
C43 C42 1_555 1_555
C44 C43 1_555 1_555
H26 C44 1_555 1_555
C45 C44 1_555 1_555
H27 C45 1_555 1_555
C46 N4 1_555 1_555
H28 C46 1_555 1_555
C47 N4 1_555 1_555
C48 N3 1_555 1_555
Cu2 Cl2 1_555 1_555
N5 Cu2 1_555 1_555
N6 Cu2 1_555 1_555
N7 Cu2 1_555 1_555
N8 Cu2 1_555 1_555
C49 N5 1_555 1_555
H29 C49 1_555 1_555
C50 C49 1_555 1_555
H30 C50 1_555 1_555
C51 C50 1_555 1_555
H31 C51 1_555 1_555
C52 C51 1_555 1_555
C53 C52 1_555 1_555
H32 C53 1_555 1_555
C54 C53 1_555 1_555
H33 C54 1_555 1_555
C55 C54 1_555 1_555
C56 C55 1_555 1_555
H34 C56 1_555 1_555
C57 C56 1_555 1_555
H35 C57 1_555 1_555
C58 N6 1_555 1_555
H36 C58 1_555 1_555
C59 N6 1_555 1_555
C60 N5 1_555 1_555
C61 N7 1_555 1_555
H37 C61 1_555 1_555
C62 C61 1_555 1_555
H38 C62 1_555 1_555
C63 C62 1_555 1_555
H39 C63 1_555 1_555
C64 C63 1_555 1_555
C65 C64 1_555 1_555
H40 C65 1_555 1_555
C66 C65 1_555 1_555
H41 C66 1_555 1_555
C67 C66 1_555 1_555
C68 C67 1_555 1_555
H42 C68 1_555 1_555
C69 C68 1_555 1_555
H43 C69 1_555 1_555
C70 N8 1_555 1_555
H44 C70 1_555 1_555
C71 N8 1_555 1_555
C72 N7 1_555 1_555
U1C O5 1_555 1_555
U2C O15 1_555 1_555
O5C U1 1_555 1_555
O6C U1 1_555 1_555
O15C U2 1_555 1_555
O16C U2 1_555 1_555
O4 C1 1_555 1_555
O6 U1C 1_555 1_555
O8 C9 1_555 1_555
O14 C17 1_555 1_555
O16 U2C 1_555 1_555
C7 C8 1_555 1_555
C13 C14 1_555 1_555
C15 C16 1_555 1_555
C23 C24 1_555 1_555
C28 C36 1_555 1_555
C31 C35 1_555 1_555
C33 C34 1_555 1_555
C35 C36 1_555 1_555
C40 C48 1_555 1_555
C43 C47 1_555 1_555
C45 C46 1_555 1_555
C47 C48 1_555 1_555
C52 C60 1_555 1_555
C55 C59 1_555 1_555
C57 C58 1_555 1_555
C59 C60 1_555 1_555
C64 C72 1_555 1_555
C67 C71 1_555 1_555
C69 C70 1_555 1_555
C71 C72 1_555 1_555

#END
