
#######################################################################
#
#                 Cambridge Crystallographic Data Centre
#                                CCDC 
#
#######################################################################
#
# If this CIF has been generated from an entry in the Cambridge 
# Structural Database, then it will include bibliographic, chemical, 
# crystal, experimental, refinement or atomic coordinate data resulting 
# from the CCDC's data processing and validation procedures.
#
#######################################################################

data_NORPAN
_symmetry_cell_setting           orthorhombic
_symmetry_space_group_name_H-M   'P b c n'
_symmetry_Int_Tables_number      60
_space_group_name_Hall           '-P 2n 2ab'
loop_
_symmetry_equiv_pos_site_id
_symmetry_equiv_pos_as_xyz
1 x,y,z
2 1/2-x,1/2-y,1/2+z
3 -x,y,1/2-z
4 1/2+x,1/2-y,-z
5 -x,-y,-z
6 1/2+x,1/2+y,1/2-z
7 x,-y,1/2+z
8 1/2-x,1/2+y,z
_cell_length_a                   16.4997(8)
_cell_length_b                   17.2919(8)
_cell_length_c                   18.0359(9)
_cell_angle_alpha                90
_cell_angle_beta                 90
_cell_angle_gamma                90
_cell_volume                     5145.84
loop_
_atom_site_label
_atom_site_type_symbol
_atom_site_fract_x
_atom_site_fract_y
_atom_site_fract_z
U1 U 0.865206(13) 0.124996(13) 0.460046(11)
O1 O 0.5941(3) 0.3640(2) 0.8291(2)
C1 C 1.0209(4) 0.0075(4) 0.4633(3)
O2 O 0.6999(3) 0.2958(3) 0.8622(2)
O3 O 0.9914(3) 0.0600(2) 0.4243(2)
O4 O 1.0786(3) -0.0353(3) 0.4474(2)
C2 C 0.6500(4) 0.3163(4) 0.8139(3)
C3 C 0.6300(4) 0.2603(4) 0.6152(4)
H1 H 0.6020 0.2622 0.5706
C4 C 0.7018(4) 0.2204(3) 0.6255(3)
C5 C 0.7518(4) 0.1813(3) 0.5691(4)
O5 O 0.7351(3) 0.1874(3) 0.5006(2)
O6 O 0.8143(3) 0.1454(3) 0.5890(2)
O7 O 0.9258(3) 0.2053(3) 0.4819(2)
C6 C 0.6048(4) 0.2971(4) 0.6796(3)
H2 H 0.5578 0.3265 0.6829
C7 C 0.6568(3) 0.2855(3) 0.7376(3)
S1 S 0.73714(10) 0.22917(10) 0.71360(9)
O8 O 0.8064(3) 0.0440(2) 0.4368(2)
C1D C 0.9791(4) -0.0075(4) 0.5367(3)
O3D O 1.0086(3) -0.0600(2) 0.5757(2)
O4D O 0.9214(3) 0.0353(3) 0.5526(2)
U1D U 1.134794(13) -0.124996(13) 0.539954(11)
O1D O 1.4059(3) -0.3640(2) 0.1709(2)
O2D O 1.3001(3) -0.2958(3) 0.1378(2)
C2D C 1.3500(4) -0.3163(4) 0.1861(3)
C3D C 1.3700(4) -0.2603(4) 0.3848(4)
H1D H 1.3980 -0.2622 0.4294
C4D C 1.2982(4) -0.2204(3) 0.3745(3)
C5D C 1.2482(4) -0.1813(3) 0.4309(4)
O5D O 1.2649(3) -0.1874(3) 0.4994(2)
O6D O 1.1857(3) -0.1454(3) 0.4110(2)
O7D O 1.0742(3) -0.2053(3) 0.5181(2)
C6D C 1.3952(4) -0.2971(4) 0.3204(3)
H2D H 1.4422 -0.3265 0.3171
C7D C 1.3432(3) -0.2855(3) 0.2624(3)
S1D S 1.26286(10) -0.22917(10) 0.28640(9)
O8D O 1.1936(3) -0.0440(2) 0.5632(2)
U1A U 0.634794(13) 0.375004(13) 0.960046(11)
U1E U 1.365206(13) -0.375004(13) 0.039954(11)
O1A O 0.9059(3) 0.1360(2) 0.3291(2)
O1E O 1.0941(3) -0.1360(2) 0.6709(2)
O2A O 0.8001(3) 0.2042(3) 0.3622(2)
O2E O 1.1999(3) -0.2042(3) 0.6378(2)
Ni1 Ni 0.5000 0.14177(6) 0.2500
N1 N 0.4065(3) 0.1307(3) 0.3267(3)
N2 N 0.5528(3) 0.2335(3) 0.3059(3)
C8 C 0.5526(4) 0.3740(3) 0.3109(3)
C9 C 0.5250(4) 0.4449(4) 0.2796(3)
H3 H 0.5416 0.4916 0.3002
C10 C 0.5274(3) 0.3041(3) 0.2805(3)
C11 C 0.6323(4) 0.3005(4) 0.3971(4)
H4 H 0.6682 0.2973 0.4368
C12 C 0.6042(4) 0.2330(4) 0.3616(4)
H5 H 0.6230 0.1854 0.3785
C13 C 0.6062(4) 0.3698(4) 0.3725(4)
H6 H 0.6233 0.4149 0.3959
C14 C 0.3307(6) 0.1468(4) 0.4378(5)
H7 H 0.3269 0.1712 0.4836
C15 C 0.3944(4) 0.1632(4) 0.3907(4)
H8 H 0.4315 0.2005 0.4059
C16 C 0.4490(5) 0.0170(4) 0.1379(4)
H9 H 0.4960 0.0295 0.1121
C17 C 0.4001(6) -0.0436(6) 0.1103(5)
H10 H 0.4149 -0.0712 0.0682
C18 C 0.3302(6) -0.0600(5) 0.1477(5)
H11 H 0.2963 -0.0991 0.1308
C19 C 0.2748(5) 0.0960(4) 0.4170(4)
H12 H 0.2317 0.0846 0.4484
C20 C 0.2807(4) 0.0592(4) 0.3476(4)
C21 C 0.2220(5) 0.0052(4) 0.3205(5)
H13 H 0.1747 -0.0046 0.3469
C22 C 0.2366(5) -0.0302(4) 0.2573(6)
H14 H 0.1980 -0.0652 0.2403
C23 C 0.3095(5) -0.0185(4) 0.2114(5)
C24 C 0.3635(4) 0.0386(4) 0.2347(4)
C25 C 0.3494(4) 0.0791(4) 0.3052(4)
N3 N 0.4320(3) 0.0563(3) 0.1972(3)
N2B N 0.4472(3) 0.2335(3) 0.1941(3)
C8B C 0.4474(4) 0.3740(3) 0.1891(3)
C9B C 0.4750(4) 0.4449(4) 0.2204(3)
H3B H 0.4584 0.4916 0.1998
C10B C 0.4726(3) 0.3041(3) 0.2195(3)
C11B C 0.3677(4) 0.3005(4) 0.1029(4)
H4B H 0.3318 0.2973 0.0632
C12B C 0.3958(4) 0.2330(4) 0.1384(4)
H5B H 0.3770 0.1854 0.1215
C13B C 0.3938(4) 0.3698(4) 0.1275(4)
H6B H 0.3767 0.4149 0.1041
N1B N 0.5935(3) 0.1307(3) 0.1733(3)
C14B C 0.6693(6) 0.1468(4) 0.0622(5)
H7B H 0.6731 0.1712 0.0164
C15B C 0.6056(4) 0.1632(4) 0.1093(4)
H8B H 0.5685 0.2005 0.0941
C16B C 0.5510(5) 0.0170(4) 0.3621(4)
H9B H 0.5040 0.0295 0.3879
C17B C 0.5999(6) -0.0436(6) 0.3897(5)
H10B H 0.5851 -0.0712 0.4318
C18B C 0.6698(6) -0.0600(5) 0.3523(5)
H11B H 0.7037 -0.0991 0.3692
C19B C 0.7252(5) 0.0960(4) 0.0830(4)
H12B H 0.7683 0.0846 0.0516
C20B C 0.7193(4) 0.0592(4) 0.1524(4)
C21B C 0.7780(5) 0.0052(4) 0.1795(5)
H13B H 0.8253 -0.0046 0.1531
C22B C 0.7634(5) -0.0302(4) 0.2427(6)
H14B H 0.8020 -0.0652 0.2597
C23B C 0.6905(5) -0.0185(4) 0.2886(5)
C24B C 0.6365(4) 0.0386(4) 0.2653(4)
C25B C 0.6506(4) 0.0791(4) 0.1948(4)
N3B N 0.5680(3) 0.0563(3) 0.3028(3)
loop_
_geom_bond_atom_site_label_1
_geom_bond_atom_site_label_2
_geom_bond_site_symmetry_1
_geom_bond_site_symmetry_2
U1 O3 1_555 1_555
O1 C2 1_555 1_555
C1 O3 1_555 1_555
O2 C2 1_555 1_555
O4 C1 1_555 1_555
C2 C7 1_555 1_555
C3 H1 1_555 1_555
C4 C3 1_555 1_555
C5 C4 1_555 1_555
O5 U1 1_555 1_555
O6 U1 1_555 1_555
O7 U1 1_555 1_555
C6 C3 1_555 1_555
H2 C6 1_555 1_555
C7 C6 1_555 1_555
S1 C4 1_555 1_555
O8 U1 1_555 1_555
Ni1 N1 1_555 1_555
N1 C15 1_555 1_555
N2 Ni1 1_555 1_555
C8 C9 1_555 1_555
C9 H3 1_555 1_555
C10 N2 1_555 1_555
C11 H4 1_555 1_555
C12 N2 1_555 1_555
H5 C12 1_555 1_555
C13 C8 1_555 1_555
H6 C13 1_555 1_555
C14 H7 1_555 1_555
C15 C14 1_555 1_555
H8 C15 1_555 1_555
C16 H9 1_555 1_555
C17 C16 1_555 1_555
H10 C17 1_555 1_555
C18 C17 1_555 1_555
H11 C18 1_555 1_555
C19 C14 1_555 1_555
H12 C19 1_555 1_555
C20 C19 1_555 1_555
C21 C20 1_555 1_555
H13 C21 1_555 1_555
C22 C21 1_555 1_555
H14 C22 1_555 1_555
C23 C18 1_555 1_555
C24 C23 1_555 1_555
C25 N1 1_555 1_555
N3 Ni1 1_555 1_555
C1D C1 1_555 1_555
O3D C1D 1_555 1_555
O4D U1 1_555 1_555
U1D O4 1_555 1_555
O1D C2D 1_555 1_555
O2D C2D 1_555 1_555
C2D C7D 1_555 1_555
C3D H1D 1_555 1_555
C4D C3D 1_555 1_555
C5D C4D 1_555 1_555
O5D U1D 1_555 1_555
O6D U1D 1_555 1_555
O7D U1D 1_555 1_555
C6D C3D 1_555 1_555
H2D C6D 1_555 1_555
C7D C6D 1_555 1_555
S1D C4D 1_555 1_555
O8D U1D 1_555 1_555
U1A O1 1_555 1_555
U1E O1D 1_555 1_555
O1A U1 1_555 1_555
O1E U1D 1_555 1_555
O2A U1 1_555 1_555
O2E U1D 1_555 1_555
N2B Ni1 1_555 1_555
C8B C9B 1_555 1_555
C9B C9 1_555 1_555
H3B C9B 1_555 1_555
C10B C10 1_555 1_555
C11B H4B 1_555 1_555
C12B N2B 1_555 1_555
H5B C12B 1_555 1_555
C13B C8B 1_555 1_555
H6B C13B 1_555 1_555
N1B Ni1 1_555 1_555
C14B H7B 1_555 1_555
C15B N1B 1_555 1_555
H8B C15B 1_555 1_555
C16B H9B 1_555 1_555
C17B C16B 1_555 1_555
H10B C17B 1_555 1_555
C18B C17B 1_555 1_555
H11B C18B 1_555 1_555
C19B C14B 1_555 1_555
H12B C19B 1_555 1_555
C20B C19B 1_555 1_555
C21B C20B 1_555 1_555
H13B C21B 1_555 1_555
C22B C21B 1_555 1_555
H14B C22B 1_555 1_555
C23B C18B 1_555 1_555
C24B C23B 1_555 1_555
C25B N1B 1_555 1_555
N3B Ni1 1_555 1_555
O2 U1A 1_555 1_555
C5 O5 1_555 1_555
C5 O6 1_555 1_555
C7 S1 1_555 1_555
C8 C10 1_555 1_555
C11 C12 1_555 1_555
C11 C13 1_555 1_555
C16 N3 1_555 1_555
C20 C25 1_555 1_555
C22 C23 1_555 1_555
C24 C25 1_555 1_555
C24 N3 1_555 1_555
C1D O4D 1_555 1_555
O3D U1D 1_555 1_555
O2D U1E 1_555 1_555
C5D O5D 1_555 1_555
C5D O6D 1_555 1_555
C7D S1D 1_555 1_555
N2B C10B 1_555 1_555
C8B C10B 1_555 1_555
C11B C12B 1_555 1_555
C11B C13B 1_555 1_555
C14B C15B 1_555 1_555
C16B N3B 1_555 1_555
C20B C25B 1_555 1_555
C22B C23B 1_555 1_555
C24B C25B 1_555 1_555
C24B N3B 1_555 1_555

#END
