
#######################################################################
#
#                 Cambridge Crystallographic Data Centre
#                                CCDC 
#
#######################################################################
#
# If this CIF has been generated from an entry in the Cambridge 
# Structural Database, then it will include bibliographic, chemical, 
# crystal, experimental, refinement or atomic coordinate data resulting 
# from the CCDC's data processing and validation procedures.
#
#######################################################################

data_NORRES
_symmetry_cell_setting           monoclinic
_symmetry_space_group_name_H-M   'C 2/c'
_symmetry_Int_Tables_number      15
_space_group_name_Hall           '-C 2yn'
loop_
_symmetry_equiv_pos_site_id
_symmetry_equiv_pos_as_xyz
1 x,y,z
2 1/2+x,1/2+y,z
3 -x,y,1/2-z
4 1/2-x,1/2+y,1/2-z
5 -x,-y,-z
6 1/2-x,1/2-y,-z
7 x,-y,1/2+z
8 1/2+x,1/2-y,1/2+z
_cell_length_a                   19.0677(5)
_cell_length_b                   12.3768(3)
_cell_length_c                   14.1151(4)
_cell_angle_alpha                90
_cell_angle_beta                 107.527(2)
_cell_angle_gamma                90
_cell_volume                     3176.48
loop_
_atom_site_label
_atom_site_type_symbol
_atom_site_fract_x
_atom_site_fract_y
_atom_site_fract_z
Co1 Co 0.17121(5) 0.23479(7) 0.00029(6)
O1 O 0.1591(2) 0.2641(3) -0.1424(3)
O2 O 0.2271(3) 0.6026(3) -0.4666(3)
O3 O 0.2730(3) 0.3122(3) -0.1369(3)
O4 O 0.1150(3) 0.6384(4) -0.4674(3)
C1 C 0.1671(5) 0.5703(5) -0.4554(4)
C2 C 0.2053(4) 0.2991(5) -0.1817(5)
N1 N 0.0987(3) 0.1066(4) -0.0365(4)
C3 C 0.1781(4) 0.3242(5) -0.2925(4)
H1 H 0.1330 0.2824 -0.3214
C4 C 0.1582(4) 0.4551(5) -0.4260(4)
C5 C 0.1593(4) 0.4449(5) -0.3155(5)
C6 C 0.0313(4) 0.1223(6) -0.0977(5)
H2 H 0.0138 0.1927 -0.1096
C7 C 0.1198(4) 0.0063(6) -0.0198(5)
H3 H 0.1661 -0.0066 0.0247
C8 C 0.2162(5) 0.5198(5) -0.2492(5)
H4 H 0.2152 0.5131 -0.1819
H5 H 0.2052 0.5931 -0.2710
H6 H 0.2642 0.5008 -0.2527
C9 C 0.0105(4) -0.0663(6) -0.1288(5)
C10 C -0.0140(4) 0.0381(6) -0.1446(5)
H7 H -0.0608 0.0526 -0.1868
C11 C 0.0786(4) -0.0814(5) -0.0635(5)
H8 H 0.0972 -0.1509 -0.0485
C12 C 0.2206(5) 0.3814(6) -0.4314(7)
H9 H 0.2086 0.3467 -0.4959
H10 H 0.2654 0.4229 -0.4217
C13 C 0.2314(5) 0.2976(6) -0.3507(5)
H11 H 0.2816 0.2994 -0.3073
H12 H 0.2214 0.2260 -0.3796
C14 C 0.0000 -0.2218(7) -0.2500
H13 H 0.0000 -0.2970 -0.2500
C15 C 0.0906(6) 0.4070(8) -0.4991(8)
H14 H 0.0941 0.4143 -0.5653
H15 H 0.0476 0.4441 -0.4943
H16 H 0.0872 0.3318 -0.4843
C16 C -0.0360(4) -0.1575(6) -0.1866(5)
H17 H -0.0483 -0.2062 -0.1401
H18 H -0.0817 -0.1276 -0.2292
C17 C 0.0838(5) 0.4714(8) -0.3000(7)
H19 H 0.0879 0.4662 -0.2307
H20 H 0.0475 0.4210 -0.3369
H21 H 0.0693 0.5434 -0.3229
Co1F Co 0.17121(5) 0.76521(7) 0.50029(6)
Co1F_2 Co 0.17121(5) 0.76521(7) -0.49971(6)
Co1E Co 0.32879(5) 0.26521(7) -0.00029(6)
Co1B Co -0.17121(5) 0.23479(7) -0.50029(6)
Co1C Co 0.32879(5) 0.73479(7) 0.49971(6)
O1F O 0.1591(2) 0.7359(3) 0.3576(3)
O2F O 0.2271(3) 0.3974(3) 0.0334(3)
O2_2 O 0.2271(3) 0.6026(3) 0.5334(3)
O3F O 0.2730(3) 0.6878(3) 0.3631(3)
O3E O 0.2270(3) 0.1878(3) 0.1369(3)
O3C O 0.2270(3) 0.8122(3) 0.6369(3)
O4F O 0.1150(3) 0.3616(4) 0.0326(3)
O4_2 O 0.1150(3) 0.6384(4) 0.5326(3)
C1F C 0.1671(5) 0.4297(5) 0.0446(4)
C2F C 0.2053(4) 0.7009(5) 0.3183(5)
N1B N -0.0987(3) 0.1066(4) -0.4635(4)
N1F N 0.0987(3) 0.8934(4) 0.4635(4)
C3F C 0.1781(4) 0.6758(5) 0.2075(4)
H1F H 0.1330 0.7176 0.1786
C4F C 0.1582(4) 0.5449(5) 0.0740(4)
C5F C 0.1593(4) 0.5551(5) 0.1845(5)
C6B C -0.0313(4) 0.1223(6) -0.4023(5)
H2B H -0.0138 0.1927 -0.3904
C7B C -0.1198(4) 0.0063(6) -0.4802(5)
H3B H -0.1661 -0.0066 -0.5247
C8F C 0.2162(5) 0.4802(5) 0.2508(5)
H4F H 0.2152 0.4869 0.3181
H5F H 0.2052 0.4069 0.2290
H6F H 0.2642 0.4992 0.2473
C9B C -0.0105(4) -0.0663(6) -0.3712(5)
C10B C 0.0140(4) 0.0381(6) -0.3554(5)
H7B H 0.0608 0.0526 -0.3132
C11B C -0.0786(4) -0.0814(5) -0.4365(5)
H8B H -0.0972 -0.1509 -0.4515
C12F C 0.2206(5) 0.6186(6) 0.0686(7)
H9F H 0.2086 0.6533 0.0041
H10F H 0.2654 0.5771 0.0783
C13F C 0.2314(5) 0.7024(6) 0.1493(5)
H11F H 0.2816 0.7006 0.1927
H12F H 0.2214 0.7740 0.1204
C15F C 0.0906(6) 0.5930(8) 0.0009(8)
H14F H 0.0941 0.5857 -0.0653
H15F H 0.0476 0.5559 0.0057
H16F H 0.0872 0.6682 0.0157
C16B C 0.0360(4) -0.1575(6) -0.3134(5)
H17B H 0.0483 -0.2062 -0.3599
H18B H 0.0817 -0.1276 -0.2708
C17F C 0.0838(5) 0.5286(8) 0.2000(7)
H19F H 0.0879 0.5338 0.2693
H20F H 0.0475 0.5790 0.1631
H21F H 0.0693 0.4566 0.1771
loop_
_geom_bond_atom_site_label_1
_geom_bond_atom_site_label_2
_geom_bond_site_symmetry_1
_geom_bond_site_symmetry_2
Co1 O1 1_555 1_555
O1 C2 1_555 1_555
O2 C1 1_555 1_555
O3 C2 1_555 1_555
O4 C1 1_555 1_555
C1 C4 1_555 1_555
C2 C3 1_555 1_555
N1 Co1 1_555 1_555
C3 H1 1_555 1_555
C4 C5 1_555 1_555
C5 C3 1_555 1_555
C6 N1 1_555 1_555
H2 C6 1_555 1_555
C7 N1 1_555 1_555
H3 C7 1_555 1_555
C8 C5 1_555 1_555
H4 C8 1_555 1_555
H5 C8 1_555 1_555
H6 C8 1_555 1_555
C9 C10 1_555 1_555
C10 C6 1_555 1_555
H7 C10 1_555 1_555
C11 C7 1_555 1_555
H8 C11 1_555 1_555
C12 C4 1_555 1_555
H9 C12 1_555 1_555
H10 C12 1_555 1_555
C13 C3 1_555 1_555
H11 C13 1_555 1_555
H12 C13 1_555 1_555
C14 H13 1_555 1_555
C15 C4 1_555 1_555
H14 C15 1_555 1_555
H15 C15 1_555 1_555
H16 C15 1_555 1_555
C16 C9 1_555 1_555
H17 C16 1_555 1_555
H18 C16 1_555 1_555
C17 C5 1_555 1_555
H19 C17 1_555 1_555
H20 C17 1_555 1_555
H21 C17 1_555 1_555
Co1F O1F 1_555 1_555
Co1F_2 O2 1_555 1_555
Co1E O3 1_555 1_555
Co1B N1B 1_555 1_555
Co1C O3F 1_555 1_555
O1F C2F 1_555 1_555
O2F Co1 1_555 1_555
O2_2 Co1F 1_555 1_555
O3F C2F 1_555 1_555
O3E Co1 1_555 1_555
O3C Co1F 1_555 1_555
O4F Co1 1_555 1_555
O4_2 Co1F 1_555 1_555
C1F O2F 1_555 1_555
C2F C3F 1_555 1_555
N1B C6B 1_555 1_555
N1F Co1F 1_555 1_555
C3F H1F 1_555 1_555
C4F C1F 1_555 1_555
C5F C3F 1_555 1_555
C6B H2B 1_555 1_555
C7B N1B 1_555 1_555
H3B C7B 1_555 1_555
C8F C5F 1_555 1_555
H4F C8F 1_555 1_555
H5F C8F 1_555 1_555
H6F C8F 1_555 1_555
C9B C10B 1_555 1_555
C10B C6B 1_555 1_555
H7B C10B 1_555 1_555
C11B C7B 1_555 1_555
H8B C11B 1_555 1_555
C12F C4F 1_555 1_555
H9F C12F 1_555 1_555
H10F C12F 1_555 1_555
C13F C3F 1_555 1_555
H11F C13F 1_555 1_555
H12F C13F 1_555 1_555
C15F C4F 1_555 1_555
H14F C15F 1_555 1_555
H15F C15F 1_555 1_555
H16F C15F 1_555 1_555
C16B C14 1_555 1_555
H17B C16B 1_555 1_555
H18B C16B 1_555 1_555
C17F C5F 1_555 1_555
H19F C17F 1_555 1_555
H20F C17F 1_555 1_555
H21F C17F 1_555 1_555
O4 Co1F_2 1_555 1_555
C9 C11 1_555 1_555
C12 C13 1_555 1_555
C14 C16 1_555 1_555
O4F C1F 1_555 1_555
C4F C5F 1_555 1_555
C9B C11B 1_555 1_555
C9B C16B 1_555 1_555
C12F C13F 1_555 1_555

#END
