
#######################################################################
#
#                 Cambridge Crystallographic Data Centre
#                                CCDC 
#
#######################################################################
#
# If this CIF has been generated from an entry in the Cambridge 
# Structural Database, then it will include bibliographic, chemical, 
# crystal, experimental, refinement or atomic coordinate data resulting 
# from the CCDC's data processing and validation procedures.
#
#######################################################################

data_NORZOL
_symmetry_cell_setting           triclinic
_symmetry_space_group_name_H-M   'P -1'
_symmetry_Int_Tables_number      2
_space_group_name_Hall           '-P 1'
loop_
_symmetry_equiv_pos_site_id
_symmetry_equiv_pos_as_xyz
1 x,y,z
2 -x,-y,-z
_cell_length_a                   10.272(3)
_cell_length_b                   15.184(4)
_cell_length_c                   16.200(4)
_cell_angle_alpha                100.009(3)
_cell_angle_beta                 99.610(3)
_cell_angle_gamma                108.045(3)
_cell_volume                     2299.16
loop_
_atom_site_label
_atom_site_type_symbol
_atom_site_fract_x
_atom_site_fract_y
_atom_site_fract_z
Cu1 Cu 0.50034(5) 0.51010(4) 0.11739(3)
Cu2 Cu 0.89995(5) 0.93360(4) 0.62574(3)
O1 O 0.3715(4) 0.4380(2) 0.2473(2)
O2 O 0.5247(3) 0.5751(2) 0.24176(18)
O3 O 0.7780(3) 0.6854(2) 0.36959(19)
H1 H 0.8119 0.7061 0.3315
O4 O 0.6411(3) 0.7741(2) 0.34730(18)
O5 O 0.7882(3) 0.8170(2) 0.53632(19)
O6 O 0.6415(4) 0.8294(3) 0.6195(2)
O7 O 0.2700(4) 0.5372(3) 0.6155(2)
O8 O 0.1609(4) 0.4347(2) 0.4939(2)
O9 O 0.8631(4) 0.9422(2) 0.8015(2)
O10 O 0.9795(3) 1.0377(2) 0.7278(2)
O11 O 1.2699(3) 1.1771(2) 0.78614(19)
H2 H 1.2971 1.1953 0.7452
O12 O 1.1043(3) 1.2417(2) 0.75051(18)
O13 O 1.3319(3) 1.3682(2) 0.8997(2)
O14 O 1.3761(3) 1.3852(2) 1.0422(2)
O15 O 1.0067(5) 1.2153(3) 1.1649(2)
O16 O 0.8641(4) 1.0742(3) 1.0958(3)
N1 N 0.2581(4) 0.5049(3) 0.5389(3)
N2 N 0.9608(5) 1.1493(3) 1.1016(3)
N3 N 0.3589(4) 0.5687(3) 0.0795(2)
N4 N 0.2605(4) 0.6738(3) 0.0647(3)
N5 N 0.1562(4) 0.5886(3) 0.0266(3)
N6 N 0.7575(4) 1.1421(3) 0.2962(3)
N7 N 0.8381(5) 1.2253(3) 0.3535(3)
N8 N 0.9520(4) 1.1212(3) 0.3467(2)
N9 N 0.6443(4) 0.4522(2) 0.1466(2)
N10 N 0.8415(4) 0.4318(3) 0.1922(3)
N11 N 0.7479(4) 0.3430(3) 0.1565(3)
N12 N 1.2821(4) 0.8851(3) 0.4640(3)
N13 N 1.3351(5) 0.9582(3) 0.5369(3)
N14 N 1.1835(4) 0.9878(3) 0.4373(2)
C1 C 0.4651(4) 0.5635(3) 0.3747(3)
C2 C 0.5679(4) 0.6516(3) 0.4208(3)
C3 C 0.5683(4) 0.6901(3) 0.5058(3)
C4 C 0.4675(4) 0.6405(3) 0.5441(3)
H3 H 0.4670 0.6655 0.6006
C5 C 0.3678(4) 0.5542(3) 0.4982(3)
C6 C 0.3653(4) 0.5144(3) 0.4143(3)
H4 H 0.2978 0.4556 0.3847
C7 C 0.4532(5) 0.5203(3) 0.2805(3)
C8 C 0.6669(4) 0.7091(3) 0.3753(3)
C9 C 0.6723(5) 0.7857(3) 0.5585(3)
C10 C 1.0106(4) 1.1004(3) 0.8768(3)
C11 C 1.1176(4) 1.1845(3) 0.8795(3)
C12 C 1.1833(4) 1.2543(3) 0.9586(3)
C13 C 1.1336(4) 1.2403(3) 1.0313(3)
H5 H 1.1751 1.2857 1.0835
C14 C 1.0229(5) 1.1594(3) 1.0261(3)
C15 C 0.9622(4) 1.0880(3) 0.9503(3)
H6 H 0.8897 1.0325 0.9489
C16 C 0.9437(5) 1.0185(3) 0.7961(3)
C17 C 1.1635(4) 1.2043(3) 0.7986(3)
C18 C 1.3067(4) 1.3425(3) 0.9657(3)
C19 C 0.3798(5) 0.6610(3) 0.0951(3)
H7 H 0.4649 0.7095 0.1230
C20 C 0.2198(5) 0.5267(3) 0.0375(3)
H8 H 0.1746 0.4610 0.0183
C21 C 0.2251(6) 0.7594(4) 0.0611(5)
H9 H 0.1396 0.7529 0.0812
H10 H 0.2055 0.7633 0.0014
C22 C 0.3382(5) 0.8512(4) 0.1136(4)
C23 C 0.3318(6) 0.8926(4) 0.1944(4)
H11 H 0.2629 0.8596 0.2196
C24 C 0.4259(6) 0.9829(4) 0.2400(4)
H12 H 0.4202 1.0090 0.2950
C25 C 0.5260(5) 1.0326(4) 0.2035(4)
C26 C 0.5356(6) 0.9903(4) 0.1240(4)
H13 H 0.6062 1.0223 0.0995
C27 C 0.4412(6) 0.8999(4) 0.0792(4)
H14 H 0.4492 0.8727 0.0251
C28 C 0.9533(5) 1.2092(4) 0.3827(4)
H15 H 1.0292 1.2541 0.4245
C29 C 0.8264(5) 1.0815(3) 0.2924(3)
H16 H 0.7919 1.0201 0.2569
C30 C 0.7791(5) 0.4956(3) 0.1859(3)
H17 H 0.8236 0.5613 0.2061
C31 C 0.6303(5) 0.3586(3) 0.1301(4)
H18 H 0.5454 0.3098 0.1025
C32 C 0.9895(5) 0.4437(4) 0.2257(4)
H19 H 1.0321 0.4327 0.1776
H20 H 0.9932 0.3961 0.2581
C33 C 1.0741(5) 0.5417(3) 0.2832(3)
C34 C 1.0490(5) 0.5691(4) 0.3625(4)
H21 H 0.9751 0.5287 0.3792
C35 C 1.1325(6) 0.6562(4) 0.4179(4)
H22 H 1.1140 0.6733 0.4715
C36 C 1.2414(5) 0.7174(3) 0.3953(3)
C37 C 1.2650(6) 0.6904(4) 0.3148(4)
H23 H 1.3380 0.7311 0.2975
C38 C 1.1809(6) 0.6030(4) 0.2593(3)
H24 H 1.1977 0.5862 0.2052
C39 C 1.3385(6) 0.8068(4) 0.4582(4)
H25 H 1.3571 0.7938 0.5147
H26 H 1.4274 0.8268 0.4413
C40 C 1.1940(5) 0.9033(3) 0.4067(3)
H27 H 1.1459 0.8633 0.3526
C41 C 1.2724(6) 1.0170(4) 0.5174(3)
H28 H 1.2871 1.0746 0.5552
C42 C 0.6172(6) 1.1333(4) 0.2481(5)
H29 H 0.6286 1.1710 0.2055
H30 H 0.5700 1.1595 0.2878
Cu1_2 Cu 1.50034(5) 1.51010(4) 1.11739(3)
Cu1A Cu 1.49966(5) 1.48990(4) 0.88261(3)
Cu2A Cu 1.10005(5) 1.06640(4) 0.37426(3)
O13A O 0.6681(3) 0.6318(2) 0.1003(2)
O14_2 O 0.3761(3) 0.3852(2) 0.0422(2)
N8A N 1.0480(4) 0.8788(3) 0.6533(2)
N14A N 0.8165(4) 1.0122(3) 0.5627(2)
O17 O 0.3728(5) 0.2427(3) 0.2126(3)
H31 H 0.3602 0.2943 0.2327
H32 H 0.3239 0.1981 0.2319
O18 O 0.6280(7) 0.8621(5) 0.9393(5)
H33 H 0.6900 0.8541 0.9811
H34 H 0.6241 0.8275 0.8910
loop_
_geom_bond_atom_site_label_1
_geom_bond_atom_site_label_2
_geom_bond_site_symmetry_1
_geom_bond_site_symmetry_2
Cu1 O2 1_555 1_555
Cu2 O5 1_555 1_555
O1 C7 1_555 1_555
O2 C7 1_555 1_555
O3 H1 1_555 1_555
O4 C8 1_555 1_555
O5 C9 1_555 1_555
O6 Cu2 1_555 1_555
O7 N1 1_555 1_555
O8 N1 1_555 1_555
O9 C16 1_555 1_555
O10 Cu2 1_555 1_555
O11 H2 1_555 1_555
O12 C17 1_555 1_555
O13 C18 1_555 1_555
O14 C18 1_555 1_555
O15 N2 1_555 1_555
O16 N2 1_555 1_555
N1 C5 1_555 1_555
N2 C14 1_555 1_555
N3 Cu1 1_555 1_555
N4 N5 1_555 1_555
N5 C20 1_555 1_555
N6 N7 1_555 1_555
N7 C28 1_555 1_555
N8 C28 1_555 1_555
N9 Cu1 1_555 1_555
N10 N11 1_555 1_555
N11 C31 1_555 1_555
N12 N13 1_555 1_555
N13 C41 1_555 1_555
N14 C40 1_555 1_555
C1 C2 1_555 1_555
C2 C3 1_555 1_555
C3 C4 1_555 1_555
C4 H3 1_555 1_555
C5 C4 1_555 1_555
C6 C1 1_555 1_555
H4 C6 1_555 1_555
C7 C1 1_555 1_555
C8 O3 1_555 1_555
C9 O6 1_555 1_555
C10 C11 1_555 1_555
C11 C12 1_555 1_555
C12 C13 1_555 1_555
C13 H5 1_555 1_555
C14 C13 1_555 1_555
C15 C10 1_555 1_555
H6 C15 1_555 1_555
C16 O10 1_555 1_555
C17 O11 1_555 1_555
C18 C12 1_555 1_555
C19 N3 1_555 1_555
H7 C19 1_555 1_555
C20 N3 1_555 1_555
H8 C20 1_555 1_555
C21 N4 1_555 1_555
H9 C21 1_555 1_555
H10 C21 1_555 1_555
C22 C21 1_555 1_555
C23 C22 1_555 1_555
H11 C23 1_555 1_555
C24 C23 1_555 1_555
H12 C24 1_555 1_555
C25 C24 1_555 1_555
C26 C25 1_555 1_555
H13 C26 1_555 1_555
C27 C22 1_555 1_555
H14 C27 1_555 1_555
C28 H15 1_555 1_555
C29 N6 1_555 1_555
H16 C29 1_555 1_555
C30 N9 1_555 1_555
H17 C30 1_555 1_555
C31 N9 1_555 1_555
H18 C31 1_555 1_555
C32 N10 1_555 1_555
H19 C32 1_555 1_555
H20 C32 1_555 1_555
C33 C32 1_555 1_555
C34 C33 1_555 1_555
H21 C34 1_555 1_555
C35 C34 1_555 1_555
H22 C35 1_555 1_555
C36 C35 1_555 1_555
C37 C36 1_555 1_555
H23 C37 1_555 1_555
C38 C33 1_555 1_555
H24 C38 1_555 1_555
C39 N12 1_555 1_555
H25 C39 1_555 1_555
H26 C39 1_555 1_555
C40 N12 1_555 1_555
H27 C40 1_555 1_555
C41 N14 1_555 1_555
H28 C41 1_555 1_555
C42 N6 1_555 1_555
H29 C42 1_555 1_555
H30 C42 1_555 1_555
O17 H31 1_555 1_555
H32 O17 1_555 1_555
O18 H33 1_555 1_555
H34 O18 1_555 1_555
Cu1_2 O14 1_555 1_555
Cu1A O13 1_555 1_555
Cu2A N8 1_555 1_555
O13A Cu1 1_555 1_555
O14_2 Cu1 1_555 1_555
N8A Cu2 1_555 1_555
N14A Cu2 1_555 1_555
N4 C19 1_555 1_555
N8 C29 1_555 1_555
N10 C30 1_555 1_555
N14 Cu2A 1_555 1_555
C2 C8 1_555 1_555
C3 C9 1_555 1_555
C5 C6 1_555 1_555
C10 C16 1_555 1_555
C11 C17 1_555 1_555
C14 C15 1_555 1_555
C25 C42 1_555 1_555
C26 C27 1_555 1_555
C36 C39 1_555 1_555
C37 C38 1_555 1_555

#END
