
#######################################################################
#
#                 Cambridge Crystallographic Data Centre
#                                CCDC 
#
#######################################################################
#
# If this CIF has been generated from an entry in the Cambridge 
# Structural Database, then it will include bibliographic, chemical, 
# crystal, experimental, refinement or atomic coordinate data resulting 
# from the CCDC's data processing and validation procedures.
#
#######################################################################

data_NORZIF
_symmetry_cell_setting           monoclinic
_symmetry_space_group_name_H-M   'P 21/n'
_symmetry_Int_Tables_number      14
_space_group_name_Hall           '-P 2yn'
loop_
_symmetry_equiv_pos_site_id
_symmetry_equiv_pos_as_xyz
1 x,y,z
2 1/2-x,1/2+y,1/2-z
3 -x,-y,-z
4 1/2+x,1/2-y,1/2+z
_cell_length_a                   12.4021(12)
_cell_length_b                   12.3286(12)
_cell_length_c                   13.1324(13)
_cell_angle_alpha                90
_cell_angle_beta                 105.5440(10)
_cell_angle_gamma                90
_cell_volume                     1934.51
loop_
_atom_site_label
_atom_site_type_symbol
_atom_site_fract_x
_atom_site_fract_y
_atom_site_fract_z
Cu1 Cu 0.08168(2) 1.00915(2) 0.13726(2)
N1 N 0.43795(17) 1.01988(15) 0.73596(14)
N2 N -0.02623(17) 1.03957(15) 0.22089(15)
N3 N -0.10906(17) 1.11570(16) 0.32787(15)
N4 N -0.1203(3) 1.00742(18) 0.3413(2)
N5 N 0.31067(16) 1.47736(15) 0.44547(15)
N6 N 0.1955(2) 1.49706(18) 0.5490(2)
N7 N 0.20883(17) 1.39013(17) 0.52777(16)
O1 O 0.20186(14) 0.97577(13) 0.27707(13)
O2 O 0.26831(18) 1.13168(13) 0.35583(14)
O3 O 0.25145(14) 0.73888(13) 0.31736(12)
H1 H 0.2417 0.7090 0.2598
O4 O 0.38871(14) 0.82700(13) 0.26894(12)
O5 O 0.46039(13) 0.65417(11) 0.43456(11)
O6 O 0.51253(14) 0.64775(12) 0.61121(12)
O7 O 0.50241(18) 0.97650(15) 0.81110(13)
O8 O 0.38807(15) 1.10477(13) 0.73975(13)
C1 C 0.32798(17) 0.96858(16) 0.44635(16)
C2 C 0.36290(16) 0.86140(16) 0.43878(15)
C3 C 0.42864(16) 0.80849(15) 0.52909(15)
C4 C 0.45527(17) 0.86151(16) 0.62672(16)
H2 H 0.4985 0.8274 0.6871
C5 C 0.41598(17) 0.96564(16) 0.63166(16)
C6 C 0.35550(18) 1.02049(16) 0.54391(17)
H3 H 0.3331 1.0917 0.5497
C7 C 0.25967(19) 1.03091(18) 0.35099(17)
C8 C 0.33558(18) 0.80695(16) 0.33155(16)
C9 C 0.47099(17) 0.69383(15) 0.52498(16)
C10 C -0.0698(3) 0.9657(2) 0.2749(2)
H4 H -0.0643 0.8914 0.2656
C11 C -0.05300(19) 1.13278(18) 0.25639(18)
H5 H -0.0352 1.2007 0.2346
C12 C -0.1446(2) 1.1921(2) 0.3985(2)
H6 H -0.2081 1.1621 0.4188
H7 H -0.1681 1.2596 0.3612
C13 C -0.0509(2) 1.2144(2) 0.4962(2)
H8 H -0.0137 1.1468 0.5226
H9 H -0.0815 1.2447 0.5506
C14 C 0.2754(2) 1.3807(2) 0.46515(19)
H10 H 0.2947 1.3156 0.4388
C15 C 0.2582(2) 1.5455(2) 0.4977(2)
H11 H 0.2662 1.6204 0.4969
C16 C 0.1398(2) 1.3061(2) 0.5594(2)
H12 H 0.1226 1.3273 0.6244
H13 H 0.1804 1.2380 0.5717
C17 C 0.0332(2) 1.2927(3) 0.4724(2)
H14 H 0.0523 1.2682 0.4092
H15 H -0.0022 1.3632 0.4569
Cu1A Cu 0.41832(2) 0.50915(2) 0.36274(2)
Cu1A_2 Cu 0.41832(2) 1.50915(2) 0.36274(2)
Cu1C Cu 0.58168(2) 0.49085(2) 0.63726(2)
N5A N 0.18933(16) 0.97736(15) 0.05453(15)
O5A O 0.03961(13) 1.15417(11) 0.06544(11)
O6C O 0.01253(14) 0.85225(12) 0.11121(12)
loop_
_geom_bond_atom_site_label_1
_geom_bond_atom_site_label_2
_geom_bond_site_symmetry_1
_geom_bond_site_symmetry_2
Cu1 N2 1_555 1_555
N1 O7 1_555 1_555
N2 C10 1_555 1_555
N3 N4 1_555 1_555
N4 C10 1_555 1_555
N5 C14 1_555 1_555
N6 N7 1_555 1_555
N7 C14 1_555 1_555
O1 Cu1 1_555 1_555
O2 C7 1_555 1_555
O3 H1 1_555 1_555
O4 C8 1_555 1_555
O5 C9 1_555 1_555
O6 C9 1_555 1_555
O8 N1 1_555 1_555
C1 C2 1_555 1_555
C2 C3 1_555 1_555
C3 C4 1_555 1_555
C4 H2 1_555 1_555
C5 N1 1_555 1_555
C6 C1 1_555 1_555
H3 C6 1_555 1_555
C7 O1 1_555 1_555
C8 O3 1_555 1_555
C9 C3 1_555 1_555
C10 H4 1_555 1_555
C11 N2 1_555 1_555
H5 C11 1_555 1_555
C12 N3 1_555 1_555
H6 C12 1_555 1_555
H7 C12 1_555 1_555
C13 C12 1_555 1_555
H8 C13 1_555 1_555
H9 C13 1_555 1_555
C14 H10 1_555 1_555
C15 N5 1_555 1_555
H11 C15 1_555 1_555
C16 N7 1_555 1_555
H12 C16 1_555 1_555
H13 C16 1_555 1_555
C17 C13 1_555 1_555
H14 C17 1_555 1_555
H15 C17 1_555 1_555
Cu1A O5 1_555 1_555
Cu1A_2 N5 1_555 1_555
Cu1C O6 1_555 1_555
N5A Cu1 1_555 1_555
O5A Cu1 1_555 1_555
O6C Cu1 1_555 1_555
N3 C11 1_555 1_555
N6 C15 1_555 1_555
C1 C7 1_555 1_555
C2 C8 1_555 1_555
C4 C5 1_555 1_555
C5 C6 1_555 1_555
C16 C17 1_555 1_555

#END
