
#######################################################################
#
#                 Cambridge Crystallographic Data Centre
#                                CCDC 
#
#######################################################################
#
# If this CIF has been generated from an entry in the Cambridge 
# Structural Database, then it will include bibliographic, chemical, 
# crystal, experimental, refinement or atomic coordinate data resulting 
# from the CCDC's data processing and validation procedures.
#
#######################################################################

data_NORZAX
_symmetry_cell_setting           triclinic
_symmetry_space_group_name_H-M   'P -1'
_symmetry_Int_Tables_number      2
_space_group_name_Hall           '-P 1'
loop_
_symmetry_equiv_pos_site_id
_symmetry_equiv_pos_as_xyz
1 x,y,z
2 -x,-y,-z
_cell_length_a                   10.362(2)
_cell_length_b                   10.649(2)
_cell_length_c                   11.096(2)
_cell_angle_alpha                92.16(3)
_cell_angle_beta                 100.28(3)
_cell_angle_gamma                92.65(3)
_cell_volume                     1202.13
loop_
_atom_site_label
_atom_site_type_symbol
_atom_site_fract_x
_atom_site_fract_y
_atom_site_fract_z
Cd1 Cd 0.66120(3) 0.61972(3) 0.54416(3)
O1 O 0.8933(5) 0.6025(5) 0.5404(5)
O2 O 0.8248(4) 0.7816(4) 0.6021(5)
O3 O 1.3848(5) 0.5742(5) 0.5539(5)
O4 O 1.5089(4) 0.7506(4) 0.5922(5)
N1 N 0.7091(5) 0.5147(5) 0.7251(5)
N2 N 0.8185(6) 0.3844(5) 0.8496(5)
N3 N 1.5074(5) -0.1837(5) 1.2088(5)
N4 N 1.6091(5) -0.3034(5) 1.3466(5)
C1 C 0.8040(6) 0.4356(6) 0.7378(6)
H1 H 0.8547 0.4170 0.6778
C2 C 0.6582(7) 0.5139(6) 0.8314(6)
C3 C 0.7276(8) 0.4352(7) 0.9101(7)
H2 H 0.7152 0.4190 0.9901
C4 C 0.9173(7) 0.3006(6) 0.8983(6)
C5 C 0.9485(7) 0.2033(7) 0.8280(6)
H3 H 0.9045 0.1899 0.7465
C6 C 1.0454(7) 0.1236(7) 0.8761(6)
H4 H 1.0657 0.0566 0.8264
C7 C 1.1124(6) 0.1409(6) 0.9957(6)
C8 C 1.0778(8) 0.2416(8) 1.0670(7)
H5 H 1.1206 0.2556 1.1489
C9 C 0.9814(9) 0.3203(8) 1.0182(7)
H6 H 0.9595 0.3875 1.0668
C10 C 1.2172(6) 0.0558(6) 1.0488(6)
C11 C 1.2697(8) -0.0296(7) 0.9761(6)
H7 H 1.2397 -0.0344 0.8909
C12 C 1.3661(8) -0.1084(7) 1.0273(6)
H8 H 1.4008 -0.1662 0.9772
C13 C 1.4102(6) -0.1010(6) 1.1521(6)
C14 C 1.3622(7) -0.0156(7) 1.2268(7)
H9 H 1.3944 -0.0099 1.3116
C15 C 1.2646(7) 0.0628(7) 1.1743(7)
H10 H 1.2308 0.1210 1.2247
C16 C 1.5161(7) -0.2270(6) 1.3232(6)
H11 H 1.4613 -0.2040 1.3784
C17 C 1.6053(7) -0.2392(6) 1.1589(6)
H12 H 1.6244 -0.2282 1.0801
C18 C 1.6678(7) -0.3120(6) 1.2448(6)
C19 C 0.5488(8) 0.5943(8) 0.8525(7)
H13 H 0.5439 0.5979 0.9390
H14 H 0.4664 0.5586 0.8056
H15 H 0.5652 0.6786 0.8265
C20 C 1.7807(8) -0.3935(8) 1.2378(7)
H16 H 1.7581 -0.4783 1.2586
H17 H 1.8575 -0.3599 1.2950
H18 H 1.7996 -0.3949 1.1552
C21 C 0.9140(5) 0.7158(6) 0.5765(5)
C22 C 1.3990(5) 0.6907(6) 0.5764(6)
C23 C 1.0494(5) 0.7768(5) 0.5885(5)
C24 C 1.1564(5) 0.7062(5) 0.5772(5)
H19 H 1.1447 0.6184 0.5637
C25 C 1.2814(5) 0.7649(6) 0.5860(5)
C26 C 1.2971(6) 0.8954(6) 0.6058(7)
H20 H 1.3813 0.9351 0.6135
C27 C 1.1902(7) 0.9676(6) 0.6144(8)
H21 H 1.2006 1.0558 0.6232
C28 C 1.0677(6) 0.9068(6) 0.6096(6)
H22 H 0.9960 0.9541 0.6209
Cd1_2 Cd 1.66120(3) -0.38028(3) 1.54416(3)
Cd1_3 Cd 1.66120(3) 0.61972(3) 0.54416(3)
Cd1A Cd 1.33880(3) 0.38028(3) 0.45584(3)
O3A O 0.6152(5) 0.4258(5) 0.4461(5)
O4_2 O 0.5089(4) 0.7506(4) 0.5922(5)
N4_2 N 0.6091(5) 0.6966(5) 0.3466(5)
loop_
_geom_bond_atom_site_label_1
_geom_bond_atom_site_label_2
_geom_bond_site_symmetry_1
_geom_bond_site_symmetry_2
Cd1 O1 1_555 1_555
O1 C21 1_555 1_555
O2 Cd1 1_555 1_555
O3 C22 1_555 1_555
O4 C22 1_555 1_555
N1 Cd1 1_555 1_555
N2 C1 1_555 1_555
N3 C13 1_555 1_555
N4 C16 1_555 1_555
C1 N1 1_555 1_555
H1 C1 1_555 1_555
C2 N1 1_555 1_555
C3 N2 1_555 1_555
H2 C3 1_555 1_555
C4 N2 1_555 1_555
C5 C4 1_555 1_555
H3 C5 1_555 1_555
C6 C5 1_555 1_555
H4 C6 1_555 1_555
C7 C6 1_555 1_555
C8 C7 1_555 1_555
H5 C8 1_555 1_555
C9 C4 1_555 1_555
H6 C9 1_555 1_555
C10 C7 1_555 1_555
C11 C10 1_555 1_555
H7 C11 1_555 1_555
C12 C11 1_555 1_555
H8 C12 1_555 1_555
C13 C12 1_555 1_555
C14 C13 1_555 1_555
H9 C14 1_555 1_555
C15 C10 1_555 1_555
H10 C15 1_555 1_555
C16 N3 1_555 1_555
H11 C16 1_555 1_555
C17 N3 1_555 1_555
H12 C17 1_555 1_555
C18 N4 1_555 1_555
C19 C2 1_555 1_555
H13 C19 1_555 1_555
H14 C19 1_555 1_555
H15 C19 1_555 1_555
C20 C18 1_555 1_555
H16 C20 1_555 1_555
H17 C20 1_555 1_555
H18 C20 1_555 1_555
C21 O2 1_555 1_555
C22 C25 1_555 1_555
C23 C21 1_555 1_555
C24 C23 1_555 1_555
H19 C24 1_555 1_555
C25 C24 1_555 1_555
C26 C25 1_555 1_555
H20 C26 1_555 1_555
C27 C26 1_555 1_555
H21 C27 1_555 1_555
C28 C23 1_555 1_555
H22 C28 1_555 1_555
Cd1_2 N4 1_555 1_555
Cd1_3 O4 1_555 1_555
Cd1A O3 1_555 1_555
O3A Cd1 1_555 1_555
O4_2 Cd1 1_555 1_555
N4_2 Cd1 1_555 1_555
C2 C3 1_555 1_555
C8 C9 1_555 1_555
C14 C15 1_555 1_555
C17 C18 1_555 1_555
C27 C28 1_555 1_555

#END
