
#######################################################################
#
#                 Cambridge Crystallographic Data Centre
#                                CCDC 
#
#######################################################################
#
# If this CIF has been generated from an entry in the Cambridge 
# Structural Database, then it will include bibliographic, chemical, 
# crystal, experimental, refinement or atomic coordinate data resulting 
# from the CCDC's data processing and validation procedures.
#
#######################################################################

data_NOSBOO
_symmetry_cell_setting           triclinic
_symmetry_space_group_name_H-M   'P -1'
_symmetry_Int_Tables_number      2
_space_group_name_Hall           '-P 1'
loop_
_symmetry_equiv_pos_site_id
_symmetry_equiv_pos_as_xyz
1 x,y,z
2 -x,-y,-z
_cell_length_a                   10.7700(11)
_cell_length_b                   14.5781(14)
_cell_length_c                   15.7165(18)
_cell_angle_alpha                66.1160(10)
_cell_angle_beta                 71.702(2)
_cell_angle_gamma                68.8200(10)
_cell_volume                     2062.78
loop_
_atom_site_label
_atom_site_type_symbol
_atom_site_fract_x
_atom_site_fract_y
_atom_site_fract_z
Pb1 Pb 0.43771(4) 0.60993(3) 0.11176(3)
N1 N 0.5439(8) 0.8750(7) 0.1338(6)
N2 N 0.5366(9) 0.7227(7) 0.1463(7)
N3 N 0.4297(9) 1.3630(7) 0.0908(7)
N4 N 0.3454(11) 1.4517(8) 0.1020(7)
N5 N 0.2208(10) 1.4436(8) 0.1295(7)
N6 N 0.2192(9) 1.3494(8) 0.1315(7)
N7 N 0.8192(8) 0.3383(7) 0.1131(6)
N8 N 0.6671(9) 0.4873(7) 0.1173(7)
N9 N 1.1691(9) -0.1261(8) 0.1001(7)
N10 N 1.1811(10) -0.2281(8) 0.1270(7)
N11 N 1.0631(10) -0.2473(8) 0.1715(7)
N12 N 0.9691(9) -0.1587(7) 0.1779(7)
O1 O 0.4096(9) 0.5261(6) 0.2773(6)
H1 H 0.3969 0.4667 0.2924
H2 H 0.3423 0.5626 0.3060
C1 C 0.4985(11) 0.9843(8) 0.1198(7)
C2 C 0.5842(11) 1.0358(9) 0.1196(8)
H3 H 0.6741 1.0001 0.1247
C3 C 0.5376(11) 1.1394(9) 0.1120(8)
H4 H 0.5969 1.1731 0.1110
C4 C 0.4035(10) 1.1945(8) 0.1060(7)
C5 C 0.3178(10) 1.1448(8) 0.1031(7)
H5 H 0.2284 1.1813 0.0971
C6 C 0.3649(10) 1.0401(8) 0.1092(7)
H6 H 0.3073 1.0074 0.1062
C7 C 0.4752(11) 0.8205(9) 0.1218(8)
H7 H 0.3947 0.8500 0.0991
C8 C 0.6543(12) 0.7092(9) 0.1741(8)
H8 H 0.7199 0.6467 0.1930
C9 C 0.6557(12) 0.8045(9) 0.1684(8)
H9 H 0.7206 0.8189 0.1849
C10 C 0.3510(10) 1.3032(9) 0.1077(7)
C11 C 0.8734(10) 0.2321(8) 0.1156(7)
C12 C 0.9870(11) 0.2050(9) 0.0501(8)
H10 H 1.0275 0.2555 0.0034
C13 C 1.0407(10) 0.1005(8) 0.0548(7)
H11 H 1.1180 0.0814 0.0115
C14 C 0.9787(10) 0.0247(8) 0.1242(7)
C15 C 0.8617(10) 0.0553(8) 0.1868(7)
H12 H 0.8184 0.0058 0.2323
C16 C 0.8088(10) 0.1584(8) 0.1823(7)
H13 H 0.7296 0.1781 0.2240
C17 C 0.6872(10) 0.3896(9) 0.1253(8)
H14 H 0.6175 0.3597 0.1380
C18 C 0.7965(11) 0.4985(9) 0.0962(8)
H15 H 0.8161 0.5602 0.0843
C19 C 0.8892(12) 0.4089(9) 0.0952(8)
H16 H 0.9829 0.3964 0.0845
C20 C 1.0376(11) -0.0855(9) 0.1334(8)
Pb1_2 Pb 0.43771(4) 1.60993(3) 0.11176(3)
Pb1_3 Pb 1.43771(4) -0.39007(3) 0.11176(3)
N4_2 N 0.3454(11) 0.4517(8) 0.1020(7)
N10_2 N 0.1811(10) 0.7719(8) 0.1270(7)
Pb2 Pb 1.01901(4) 0.46716(3) 0.38539(3)
N13 N 0.8965(8) 0.2231(6) 0.3577(6)
N14 N 0.9086(9) 0.3721(7) 0.3510(6)
N15 N 1.2104(10) -0.2500(8) 0.3540(7)
N16 N 1.2123(11) -0.3489(8) 0.3751(8)
N17 N 1.0926(11) -0.3639(8) 0.4222(7)
N18 N 1.0092(9) -0.2737(7) 0.4354(7)
N19 N 0.6313(8) 0.7354(7) 0.4066(6)
N20 N 0.7856(9) 0.5843(7) 0.4115(6)
N21 N 0.4868(9) 1.2325(7) 0.3402(7)
N22 N 0.3928(9) 1.3248(7) 0.3369(7)
N23 N 0.2730(9) 1.3142(7) 0.3499(7)
N24 N 0.2830(9) 1.2153(7) 0.3616(7)
O2 O 1.0111(8) 0.5679(6) 0.2219(6)
H17 H 1.0754 0.5370 0.1868
H18 H 1.0224 0.6270 0.2099
C21 C 0.9404(10) 0.1160(8) 0.3665(7)
C22 C 1.0590(10) 0.0802(8) 0.3087(7)
H19 H 1.1070 0.1267 0.2633
C23 C 1.1068(10) -0.0239(8) 0.3178(7)
H20 H 1.1874 -0.0470 0.2787
C24 C 1.0361(10) -0.0961(8) 0.3852(7)
C25 C 0.9175(10) -0.0573(8) 0.4436(7)
H21 H 0.8693 -0.1034 0.4895
C26 C 0.8691(10) 0.0469(8) 0.4357(7)
H22 H 0.7904 0.0704 0.4759
C27 C 0.9771(11) 0.2769(9) 0.3551(8)
H23 H 1.0693 0.2496 0.3561
C28 C 0.7740(11) 0.3804(9) 0.3528(8)
H24 H 0.7018 0.4399 0.3514
C29 C 0.7658(10) 0.2891(8) 0.3569(7)
H25 H 0.6886 0.2733 0.3588
C30 C 1.0846(11) -0.2059(9) 0.3926(8)
C31 C 0.5780(10) 0.8443(8) 0.3916(7)
C32 C 0.6539(10) 0.8988(8) 0.3985(7)
H26 H 0.7409 0.8647 0.4113
C33 C 0.6016(10) 1.0033(8) 0.3865(7)
H27 H 0.6527 1.0389 0.3928
C34 C 0.4737(10) 1.0561(8) 0.3653(7)
C35 C 0.3972(10) 1.0019(8) 0.3586(8)
H28 H 0.3102 1.0365 0.3460
C36 C 0.4488(10) 0.8959(8) 0.3706(7)
H29 H 0.3977 0.8601 0.3646
C37 C 0.7650(10) 0.6865(9) 0.3825(8)
H30 H 0.8329 0.7206 0.3498
C38 C 0.6613(11) 0.5683(9) 0.4575(8)
H31 H 0.6446 0.5031 0.4874
C39 C 0.5671(11) 0.6581(8) 0.4538(8)
H32 H 0.4747 0.6667 0.4787
C40 C 0.4164(10) 1.1672(8) 0.3561(7)
Pb2_2 Pb 0.01901(4) 1.46716(3) 0.38539(3)
Pb2A Pb 0.98099(4) -0.46716(3) 0.61461(3)
N17A N 0.9074(11) 0.3639(8) 0.5778(7)
N23_2 N 1.2730(9) 0.3142(7) 0.3499(7)
loop_
_geom_bond_atom_site_label_1
_geom_bond_atom_site_label_2
_geom_bond_site_symmetry_1
_geom_bond_site_symmetry_2
Pb1 N2 1_555 1_555
N1 C1 1_555 1_555
N2 C7 1_555 1_555
N3 N4 1_555 1_555
N4 N5 1_555 1_555
N5 N6 1_555 1_555
N6 C10 1_555 1_555
N7 C11 1_555 1_555
N8 Pb1 1_555 1_555
N9 N10 1_555 1_555
N10 N11 1_555 1_555
N11 N12 1_555 1_555
N12 C20 1_555 1_555
O1 Pb1 1_555 1_555
H1 O1 1_555 1_555
H2 O1 1_555 1_555
C1 C2 1_555 1_555
C2 H3 1_555 1_555
C3 C2 1_555 1_555
H4 C3 1_555 1_555
C4 C3 1_555 1_555
C5 C4 1_555 1_555
H5 C5 1_555 1_555
C6 C1 1_555 1_555
H6 C6 1_555 1_555
C7 N1 1_555 1_555
H7 C7 1_555 1_555
C8 N2 1_555 1_555
H8 C8 1_555 1_555
C9 N1 1_555 1_555
H9 C9 1_555 1_555
C10 N3 1_555 1_555
C11 C12 1_555 1_555
C12 H10 1_555 1_555
C13 C12 1_555 1_555
H11 C13 1_555 1_555
C14 C13 1_555 1_555
C15 C14 1_555 1_555
H12 C15 1_555 1_555
C16 C11 1_555 1_555
H13 C16 1_555 1_555
C17 N7 1_555 1_555
H14 C17 1_555 1_555
C18 N8 1_555 1_555
H15 C18 1_555 1_555
C19 N7 1_555 1_555
H16 C19 1_555 1_555
C20 N9 1_555 1_555
Pb2 N14 1_555 1_555
N13 C21 1_555 1_555
N14 C27 1_555 1_555
N15 N16 1_555 1_555
N16 N17 1_555 1_555
N17 N18 1_555 1_555
N18 C30 1_555 1_555
N19 C31 1_555 1_555
N20 Pb2 1_555 1_555
N21 N22 1_555 1_555
N22 N23 1_555 1_555
N23 N24 1_555 1_555
N24 C40 1_555 1_555
O2 Pb2 1_555 1_555
H17 O2 1_555 1_555
H18 O2 1_555 1_555
C21 C22 1_555 1_555
C22 H19 1_555 1_555
C23 C22 1_555 1_555
H20 C23 1_555 1_555
C24 C23 1_555 1_555
C25 C24 1_555 1_555
H21 C25 1_555 1_555
C26 C21 1_555 1_555
H22 C26 1_555 1_555
C27 N13 1_555 1_555
H23 C27 1_555 1_555
C28 N14 1_555 1_555
H24 C28 1_555 1_555
C29 N13 1_555 1_555
H25 C29 1_555 1_555
C30 N15 1_555 1_555
C31 C32 1_555 1_555
C32 H26 1_555 1_555
C33 C32 1_555 1_555
H27 C33 1_555 1_555
C34 C33 1_555 1_555
C35 C34 1_555 1_555
H28 C35 1_555 1_555
C36 C31 1_555 1_555
H29 C36 1_555 1_555
C37 N19 1_555 1_555
H30 C37 1_555 1_555
C38 N20 1_555 1_555
H31 C38 1_555 1_555
C39 N19 1_555 1_555
H32 C39 1_555 1_555
C40 N21 1_555 1_555
Pb1_2 N4 1_555 1_555
Pb1_3 N10 1_555 1_555
N4_2 Pb1 1_555 1_555
N10_2 Pb1 1_555 1_555
Pb2_2 N23 1_555 1_555
Pb2A N17 1_555 1_555
N17A Pb2 1_555 1_555
N23_2 Pb2 1_555 1_555
N8 C17 1_555 1_555
C4 C10 1_555 1_555
C5 C6 1_555 1_555
C8 C9 1_555 1_555
C14 C20 1_555 1_555
C15 C16 1_555 1_555
C18 C19 1_555 1_555
N20 C37 1_555 1_555
C24 C30 1_555 1_555
C25 C26 1_555 1_555
C28 C29 1_555 1_555
C34 C40 1_555 1_555
C35 C36 1_555 1_555
C38 C39 1_555 1_555

#END
