
#######################################################################
#
#                 Cambridge Crystallographic Data Centre
#                                CCDC 
#
#######################################################################
#
# If this CIF has been generated from an entry in the Cambridge 
# Structural Database, then it will include bibliographic, chemical, 
# crystal, experimental, refinement or atomic coordinate data resulting 
# from the CCDC's data processing and validation procedures.
#
#######################################################################

data_NOTSOG
_symmetry_cell_setting           triclinic
_symmetry_space_group_name_H-M   'P -1'
_symmetry_Int_Tables_number      2
_space_group_name_Hall           '-P 1'
loop_
_symmetry_equiv_pos_site_id
_symmetry_equiv_pos_as_xyz
1 x,y,z
2 -x,-y,-z
_cell_length_a                   7.401(3)
_cell_length_b                   10.742(4)
_cell_length_c                   17.837(6)
_cell_angle_alpha                98.452(7)
_cell_angle_beta                 99.816(7)
_cell_angle_gamma                98.979(7)
_cell_volume                     1358.06
loop_
_atom_site_label
_atom_site_type_symbol
_atom_site_fract_x
_atom_site_fract_y
_atom_site_fract_z
O1 O -0.1231(6) -0.5765(5) 0.2947(2)
C1 C -0.2013(11) -0.4811(8) 0.3087(4)
Co1 Co 0.86521(13) 0.30345(10) 0.19238(5)
S1 S 0.1864(3) -0.0061(2) 0.43850(11)
S2 S 0.2179(3) -0.1105(2) 0.52336(10)
O2 O 0.7052(7) 0.1506(5) 0.2216(3)
N1 N 1.0654(8) 0.4320(6) 0.1565(3)
N2 N 0.8709(8) 0.2058(6) 0.0785(3)
O3 O 0.4095(6) 0.1797(5) 0.2004(3)
O4 O 0.6196(6) 0.3695(4) 0.1432(2)
H1 H 0.5235 0.3133 0.1412
H2 H 0.6123 0.4390 0.1713
C2 C 0.5672(9) -0.1589(7) 0.3319(4)
H3 H 0.6347 -0.2251 0.3327
C3 C 0.0399(9) -0.2469(6) 0.4908(4)
C4 C 0.5896(9) -0.0747(7) 0.2815(4)
C5 C 0.4961(9) 0.0252(7) 0.2778(3)
N3 N 0.7150(9) -0.1020(6) 0.2269(4)
C6 C 0.5353(10) 0.1238(7) 0.2292(4)
O5 O 1.0801(7) 0.2124(6) 0.2437(3)
H4 H 1.1407 0.2674 0.2826
H5 H 1.1518 0.1851 0.2255
C7 C -0.1672(10) -0.4079(7) 0.5283(4)
H6 H -0.2196 -0.4428 0.5662
C8 C -0.0215(10) -0.3040(7) 0.4139(4)
H7 H 0.0258 -0.2660 0.3760
C9 C 1.0912(10) 0.3950(8) 0.0836(4)
O6 O -0.4183(8) -0.6323(6) 0.4857(4)
C10 C 0.3762(9) 0.0410(7) 0.3282(4)
H8 H 0.3112 0.1084 0.3277
O7 O -0.2875(8) -0.4310(5) 0.2604(3)
N4 N -0.3754(10) -0.5773(8) 0.4326(5)
O8 O 0.6442(8) -0.1209(6) 0.1582(3)
C11 C 0.3514(9) -0.0410(7) 0.3788(4)
O9 O 0.8776(8) -0.1043(7) 0.2520(3)
C12 C -0.1541(9) -0.4184(7) 0.3922(4)
C13 C 0.4428(9) -0.1446(7) 0.3820(4)
H9 H 0.4221 -0.2014 0.4156
C14 C -0.2276(10) -0.4658(7) 0.4516(5)
C15 C 1.0038(12) 0.2308(8) -0.0335(4)
C16 C 0.9880(10) 0.2745(7) 0.0413(4)
C17 C -0.0317(10) -0.3003(8) 0.5492(4)
H10 H 0.0121 -0.2633 0.6009
C18 C 1.1667(11) 0.5403(9) 0.1956(5)
H11 H 1.1572 0.5641 0.2468
C19 C 1.2134(10) 0.4735(9) 0.0483(4)
C20 C 1.2267(11) 0.4238(11) -0.0288(5)
H12 H 1.3105 0.4713 -0.0519
C21 C 1.3116(11) 0.5869(9) 0.0923(5)
H13 H 1.3950 0.6398 0.0718
C22 C 1.1280(12) 0.3152(9) -0.0694(5)
H14 H 1.1362 0.2913 -0.1208
O10 O -0.4592(10) -0.6087(7) 0.3658(4)
C23 C 0.7678(11) 0.0947(8) 0.0404(4)
H15 H 0.6846 0.0491 0.0647
C24 C 1.2881(11) 0.6221(9) 0.1649(5)
H16 H 1.3520 0.7001 0.1943
C25 C 0.8997(14) 0.1197(11) -0.0731(5)
H17 H 0.9056 0.0929 -0.1245
C26 C 0.7808(13) 0.0432(8) -0.0363(5)
H18 H 0.7142 -0.0372 -0.0613
O1_2 O 0.8769(6) 0.4235(5) 0.2947(2)
Co1_2 Co -0.13479(13) -0.69655(10) 0.19238(5)
loop_
_geom_bond_atom_site_label_1
_geom_bond_atom_site_label_2
_geom_bond_site_symmetry_1
_geom_bond_site_symmetry_2
O1 C1 1_555 1_555
C1 O7 1_555 1_555
Co1 O2 1_555 1_555
S1 S2 1_555 1_555
S2 C3 1_555 1_555
O2 C6 1_555 1_555
N1 Co1 1_555 1_555
N2 Co1 1_555 1_555
O3 C6 1_555 1_555
O4 Co1 1_555 1_555
H1 O4 1_555 1_555
H2 O4 1_555 1_555
C2 H3 1_555 1_555
C3 C8 1_555 1_555
C4 C2 1_555 1_555
C5 C4 1_555 1_555
N3 C4 1_555 1_555
C6 C5 1_555 1_555
O5 Co1 1_555 1_555
H4 O5 1_555 1_555
H5 O5 1_555 1_555
C7 H6 1_555 1_555
C8 H7 1_555 1_555
C9 N1 1_555 1_555
O6 N4 1_555 1_555
C10 C5 1_555 1_555
H8 C10 1_555 1_555
N4 C14 1_555 1_555
O8 N3 1_555 1_555
C11 S1 1_555 1_555
O9 N3 1_555 1_555
C12 C1 1_555 1_555
C13 C2 1_555 1_555
H9 C13 1_555 1_555
C14 C7 1_555 1_555
C15 C16 1_555 1_555
C16 N2 1_555 1_555
C17 C3 1_555 1_555
H10 C17 1_555 1_555
C18 N1 1_555 1_555
H11 C18 1_555 1_555
C19 C9 1_555 1_555
C20 C19 1_555 1_555
H12 C20 1_555 1_555
C21 C19 1_555 1_555
H13 C21 1_555 1_555
C22 C15 1_555 1_555
H14 C22 1_555 1_555
O10 N4 1_555 1_555
C23 N2 1_555 1_555
H15 C23 1_555 1_555
C24 C18 1_555 1_555
H16 C24 1_555 1_555
C25 C15 1_555 1_555
H17 C25 1_555 1_555
C26 C23 1_555 1_555
H18 C26 1_555 1_555
O1_2 Co1 1_555 1_555
Co1_2 O1 1_555 1_555
C7 C17 1_555 1_555
C8 C12 1_555 1_555
C9 C16 1_555 1_555
C10 C11 1_555 1_555
C11 C13 1_555 1_555
C12 C14 1_555 1_555
C20 C22 1_555 1_555
C21 C24 1_555 1_555
C25 C26 1_555 1_555

#END
