
#######################################################################
#
#                 Cambridge Crystallographic Data Centre
#                                CCDC 
#
#######################################################################
#
# If this CIF has been generated from an entry in the Cambridge 
# Structural Database, then it will include bibliographic, chemical, 
# crystal, experimental, refinement or atomic coordinate data resulting 
# from the CCDC's data processing and validation procedures.
#
#######################################################################

data_NOTVAV
_symmetry_cell_setting           monoclinic
_symmetry_space_group_name_H-M   'P 21/c'
_symmetry_Int_Tables_number      14
_space_group_name_Hall           '-P 2ybc'
loop_
_symmetry_equiv_pos_site_id
_symmetry_equiv_pos_as_xyz
1 x,y,z
2 -x,1/2+y,1/2-z
3 -x,-y,-z
4 x,1/2-y,1/2+z
_cell_length_a                   15.365(7)
_cell_length_b                   11.404(5)
_cell_length_c                   20.346(9)
_cell_angle_alpha                90
_cell_angle_beta                 94.763(8)
_cell_angle_gamma                90
_cell_volume                     3552.76
loop_
_atom_site_label
_atom_site_type_symbol
_atom_site_fract_x
_atom_site_fract_y
_atom_site_fract_z
Mn1 Mn 0.91692(2) 0.14968(3) 0.967689(17)
Cl1 Cl 0.68724(6) 0.53477(7) 1.17757(5)
Cl2 Cl 0.52053(8) -0.18039(8) 0.78655(5)
O1 O 0.85809(13) 0.29571(16) 0.89216(9)
O2 O 0.94651(11) -0.14607(14) 1.05195(8)
O3 O 0.89813(11) 0.03867(14) 1.04914(8)
O4 O 0.77333(11) 0.21038(15) 0.96030(9)
N1 N 0.88837(15) -0.14245(17) 0.82724(9)
N2 N 0.88048(14) 0.00646(18) 0.89586(10)
N3 N 0.95505(14) 0.20224(17) 0.53589(9)
N4 N 0.94645(13) 0.03114(16) 0.58593(9)
O5 O 0.87832(13) 0.00967(17) 1.20496(10)
C1 C 0.5566(2) -0.0682(3) 0.90259(17)
H1 H 0.5473 -0.1398 0.9227
C2 C 0.5672(2) 0.4424(3) 0.9107(2)
H2 H 0.5126 0.4324 0.9263
O6 O 0.57173(15) 0.2466(2) 1.00561(12)
C3 C 1.03763(16) 0.1570(2) 0.54997(12)
H3 H 1.0891 0.1933 0.5400
C4 C 0.77628(17) 0.1593(2) 1.17534(12)
C5 C 0.80203(16) -0.1085(2) 1.07868(12)
C6 C 0.90225(17) 0.1225(2) 0.55855(12)
H4 H 0.8417 0.1293 0.5558
C7 C 0.76257(16) -0.0514(2) 1.12924(13)
C8 C 0.93656(19) -0.0902(2) 0.68649(12)
H5 H 0.9131 -0.0262 0.7110
H6 H 0.9997 -0.0880 0.6938
C9 C 0.58809(17) 0.1430(2) 0.84230(14)
H7 H 0.6007 0.2133 0.8220
C10 C 0.78646(18) 0.2860(2) 0.91734(14)
C11 C 0.9029(2) -0.2065(2) 0.71105(12)
H8 H 0.8398 -0.2081 0.7028
H9 H 0.9263 -0.2696 0.6859
C12 C 0.88971(16) -0.0692(2) 1.05825(11)
C13 C 0.57780(18) 0.0296(3) 0.93989(15)
H10 H 0.5823 0.0238 0.9856
C14 C 0.59267(16) 0.1369(2) 0.91061(14)
C15 C 0.81151(18) 0.0381(2) 1.17244(13)
C16 C 0.93136(18) -0.0562(2) 0.85987(12)
H11 H 0.9906 -0.0415 0.8576
C17 C 0.56509(19) 0.0466(3) 0.80419(15)
H12 H 0.5601 0.0520 0.7584
C18 C 0.80347(19) 0.2316(3) 1.22847(14)
H13 H 0.8411 0.2023 1.2628
C19 C 0.60097(19) 0.2444(3) 0.95171(16)
C20 C 0.75677(17) -0.1987(2) 1.04444(13)
H14 H 0.7821 -0.2368 1.0104
C21 C 0.90958(19) -0.0752(2) 0.61365(12)
H15 H 0.9286 -0.1431 0.5900
H16 H 0.8464 -0.0716 0.6072
C22 C 1.03279(17) 0.0522(2) 0.58032(12)
H17 H 1.0793 0.0038 0.5946
C23 C 0.6302(2) 0.3557(3) 0.92098(16)
C24 C 0.7748(2) 0.3465(3) 1.23044(14)
H18 H 0.7923 0.3946 1.2660
C25 C 0.68011(19) -0.0870(3) 1.14493(16)
H19 H 0.6537 -0.0491 1.1785
C26 C 0.5495(2) -0.0585(3) 0.83485(16)
C27 C 0.79980(19) -0.0440(2) 0.88498(14)
H20 H 0.7497 -0.0194 0.9037
C28 C 0.71895(19) 0.2040(3) 1.12521(14)
H21 H 0.6991 0.1557 1.0903
C29 C 0.7202(2) 0.3882(2) 1.17900(15)
C30 C 0.7137(2) 0.3721(2) 0.89870(15)
C31 C 0.9268(2) -0.2287(2) 0.78410(12)
H22 H 0.9071 -0.3065 0.7952
H23 H 0.9898 -0.2269 0.7925
C32 C 0.6908(2) 0.3191(3) 1.12640(15)
H24 H 0.6529 0.3491 1.0925
C33 C 0.7304(2) 0.4732(3) 0.8641(2)
H25 H 0.7849 0.4842 0.8482
C34 C 0.67464(19) -0.2323(3) 1.06058(16)
H26 H 0.6448 -0.2919 1.0370
C35 C 0.8039(2) -0.1352(2) 0.84287(14)
H27 H 0.7580 -0.1836 0.8275
C36 C 0.6372(2) -0.1778(3) 1.11132(18)
H28 H 0.5828 -0.2021 1.1230
C37 C 0.6657(3) 0.5586(3) 0.8529(3)
H29 H 0.6768 0.6257 0.8290
C38 C 0.5854(3) 0.5434(3) 0.8773(3)
H30 H 0.5432 0.6017 0.8711
Mn1B Mn 1.08308(2) -0.14968(3) 1.032311(17)
Mn1C Mn 0.91692(2) 0.35032(3) 0.467689(17)
O2B O 1.05349(11) 0.14607(14) 0.94805(8)
N3C N 0.95505(14) 0.29776(17) 1.03589(9)
loop_
_geom_bond_atom_site_label_1
_geom_bond_atom_site_label_2
_geom_bond_site_symmetry_1
_geom_bond_site_symmetry_2
Mn1 O1 1_555 1_555
Cl1 C29 1_555 1_555
Cl2 C26 1_555 1_555
O1 C10 1_555 1_555
O2 C12 1_555 1_555
O3 Mn1 1_555 1_555
O4 Mn1 1_555 1_555
N1 C16 1_555 1_555
N2 Mn1 1_555 1_555
N3 C3 1_555 1_555
N4 C6 1_555 1_555
O5 C15 1_555 1_555
C1 H1 1_555 1_555
C2 H2 1_555 1_555
O6 C19 1_555 1_555
C3 H3 1_555 1_555
C4 C15 1_555 1_555
C5 C7 1_555 1_555
C6 N3 1_555 1_555
H4 C6 1_555 1_555
C7 C15 1_555 1_555
C8 H5 1_555 1_555
H6 C8 1_555 1_555
C9 H7 1_555 1_555
C10 O4 1_555 1_555
C11 C8 1_555 1_555
H8 C11 1_555 1_555
H9 C11 1_555 1_555
C12 O3 1_555 1_555
C13 C1 1_555 1_555
H10 C13 1_555 1_555
C14 C9 1_555 1_555
C16 N2 1_555 1_555
H11 C16 1_555 1_555
C17 C9 1_555 1_555
H12 C17 1_555 1_555
C18 C4 1_555 1_555
H13 C18 1_555 1_555
C19 C14 1_555 1_555
C20 C5 1_555 1_555
H14 C20 1_555 1_555
C21 N4 1_555 1_555
H15 C21 1_555 1_555
H16 C21 1_555 1_555
C22 N4 1_555 1_555
H17 C22 1_555 1_555
C23 C2 1_555 1_555
C24 C18 1_555 1_555
H18 C24 1_555 1_555
C25 C7 1_555 1_555
H19 C25 1_555 1_555
C26 C1 1_555 1_555
C27 N2 1_555 1_555
H20 C27 1_555 1_555
C28 C4 1_555 1_555
H21 C28 1_555 1_555
C29 C24 1_555 1_555
C30 C10 1_555 1_555
C31 N1 1_555 1_555
H22 C31 1_555 1_555
H23 C31 1_555 1_555
C32 C28 1_555 1_555
H24 C32 1_555 1_555
C33 C30 1_555 1_555
H25 C33 1_555 1_555
C34 C20 1_555 1_555
H26 C34 1_555 1_555
C35 N1 1_555 1_555
H27 C35 1_555 1_555
C36 C25 1_555 1_555
H28 C36 1_555 1_555
C37 C33 1_555 1_555
H29 C37 1_555 1_555
C38 C2 1_555 1_555
H30 C38 1_555 1_555
Mn1B O2 1_555 1_555
Mn1C N3 1_555 1_555
O2B Mn1 1_555 1_555
N3C Mn1 1_555 1_555
C3 C22 1_555 1_555
C5 C12 1_555 1_555
C8 C21 1_555 1_555
C11 C31 1_555 1_555
C13 C14 1_555 1_555
C17 C26 1_555 1_555
C19 C23 1_555 1_555
C23 C30 1_555 1_555
C27 C35 1_555 1_555
C29 C32 1_555 1_555
C34 C36 1_555 1_555
C37 C38 1_555 1_555

#END
