
#######################################################################
#
#                 Cambridge Crystallographic Data Centre
#                                CCDC 
#
#######################################################################
#
# If this CIF has been generated from an entry in the Cambridge 
# Structural Database, then it will include bibliographic, chemical, 
# crystal, experimental, refinement or atomic coordinate data resulting 
# from the CCDC's data processing and validation procedures.
#
#######################################################################

data_NOTWAW
_symmetry_cell_setting           monoclinic
_symmetry_space_group_name_H-M   'C 2/c'
_symmetry_Int_Tables_number      15
_space_group_name_Hall           '-C 2yn'
loop_
_symmetry_equiv_pos_site_id
_symmetry_equiv_pos_as_xyz
1 x,y,z
2 -x,y,1/2-z
3 1/2+x,1/2+y,z
4 1/2-x,1/2+y,1/2-z
5 -x,-y,-z
6 x,-y,1/2+z
7 1/2-x,1/2-y,-z
8 1/2+x,1/2-y,1/2+z
_cell_length_a                   19.300(3)
_cell_length_b                   16.0683(14)
_cell_length_c                   14.5724(18)
_cell_angle_alpha                90
_cell_angle_beta                 115.261(10)
_cell_angle_gamma                90
_cell_volume                     4087.01
loop_
_atom_site_label
_atom_site_type_symbol
_atom_site_fract_x
_atom_site_fract_y
_atom_site_fract_z
Zn1 Zn 0.43439(5) 0.29791(6) 0.87754(8)
O1 O 0.4037(4) 0.1002(4) 0.8867(7)
O2 O 0.3497(3) 0.2225(4) 0.8720(5)
O3 O 0.4796(3) 0.3005(3) 1.0432(4)
H1 H 0.4685 0.3468 1.0617
H2 H 0.5280 0.2948 1.0690
O4 O 0.5152(4) 0.2028(4) 0.8954(6)
H3 H 0.5600 0.2219 0.9297
H4 H 0.5076 0.1615 0.9263
O5 O 0.3957(3) 0.2815(4) 0.7168(4)
H5 H 0.3717 0.3248 0.6860
H6 H 0.3659 0.2397 0.6976
N1 N 0.0676(3) -0.0874(4) 0.8741(5)
N2 N -0.0024(3) -0.0992(4) 0.8751(5)
N3 N 0.0170(3) 0.0378(4) 0.8791(5)
N4 N -0.1415(3) -0.0911(4) 0.8706(5)
N5 N -0.2136(4) 0.0597(5) 0.8724(6)
C1 C 0.3496(5) 0.1457(6) 0.8805(7)
C2 C 0.2790(4) 0.1065(5) 0.8787(7)
C3 C 0.2736(5) 0.0203(5) 0.8893(7)
H7 H 0.3151 -0.0134 0.8977
C4 C 0.2085(4) -0.0156(5) 0.8874(6)
H8 H 0.2062 -0.0730 0.8937
C5 C 0.1456(4) 0.0336(5) 0.8762(6)
C6 C 0.1498(4) 0.1192(5) 0.8640(7)
H9 H 0.1080 0.1528 0.8545
C7 C 0.2153(5) 0.1541(5) 0.8661(7)
H10 H 0.2172 0.2114 0.8588
C8 C 0.0767(4) -0.0055(4) 0.8757(6)
C9 C -0.0307(4) -0.0240(5) 0.8765(6)
C10 C -0.1073(4) -0.0171(5) 0.8753(6)
C11 C -0.1431(4) 0.0554(5) 0.8771(6)
H11 H -0.1168 0.1049 0.8818
C12 C -0.2477(5) -0.0141(6) 0.8658(7)
H12 H -0.2973 -0.0152 0.8609
C13 C -0.2121(5) -0.0881(6) 0.8659(7)
H13 H -0.2379 -0.1376 0.8625
Zn1B Zn -0.06561(5) -0.20209(6) 0.87754(8)
N2B N 0.4976(3) 0.4008(4) 0.8751(5)
N4B N 0.3585(3) 0.4089(4) 0.8706(5)
O6 O 0.7494(5) 0.2715(6) 0.0938(7)
H14 H 0.7474 0.3238 0.1012
H15 H 0.7156 0.2470 0.1068
O7 O 0.3768(10) 0.8034(9) 0.8752(16)
H16 H 0.3685 0.7834 0.8175
H17 H 0.3887 0.8546 0.8787
O8 O 0.4633(11) 0.9517(12) 0.8791(16)
H18 H 0.4659 0.9501 0.8224
H19 H 0.4424 0.9971 0.8840
O9 O 0.5863(12) 0.8311(13) 0.8463(18)
H20 H 0.5760 0.7890 0.8735
H21 H 0.5564 0.8703 0.8449
loop_
_geom_bond_atom_site_label_1
_geom_bond_atom_site_label_2
_geom_bond_site_symmetry_1
_geom_bond_site_symmetry_2
Zn1 O2 1_555 1_555
O1 C1 1_555 1_555
O2 C1 1_555 1_555
O3 Zn1 1_555 1_555
H1 O3 1_555 1_555
H2 O3 1_555 1_555
O4 Zn1 1_555 1_555
H3 O4 1_555 1_555
H4 O4 1_555 1_555
O5 Zn1 1_555 1_555
H5 O5 1_555 1_555
H6 O5 1_555 1_555
N1 N2 1_555 1_555
N2 C9 1_555 1_555
N3 C8 1_555 1_555
N4 C10 1_555 1_555
N5 C11 1_555 1_555
C1 C2 1_555 1_555
C2 C3 1_555 1_555
C3 H7 1_555 1_555
C4 C3 1_555 1_555
H8 C4 1_555 1_555
C5 C4 1_555 1_555
C6 C5 1_555 1_555
H9 C6 1_555 1_555
C7 C2 1_555 1_555
H10 C7 1_555 1_555
C8 N1 1_555 1_555
C9 N3 1_555 1_555
C10 C9 1_555 1_555
C11 C10 1_555 1_555
H11 C11 1_555 1_555
C12 N5 1_555 1_555
H12 C12 1_555 1_555
C13 N4 1_555 1_555
H13 C13 1_555 1_555
O6 H14 1_555 1_555
H15 O6 1_555 1_555
O7 H16 1_555 1_555
H17 O7 1_555 1_555
O8 H18 1_555 1_555
H19 O8 1_555 1_555
O9 H20 1_555 1_555
H21 O9 1_555 1_555
Zn1B N2 1_555 1_555
N2B Zn1 1_555 1_555
N4B Zn1 1_555 1_555
N4 Zn1B 1_555 1_555
C5 C8 1_555 1_555
C6 C7 1_555 1_555
C12 C13 1_555 1_555

#END
