
#######################################################################
#
#                 Cambridge Crystallographic Data Centre
#                                CCDC 
#
#######################################################################
#
# If this CIF has been generated from an entry in the Cambridge 
# Structural Database, then it will include bibliographic, chemical, 
# crystal, experimental, refinement or atomic coordinate data resulting 
# from the CCDC's data processing and validation procedures.
#
#######################################################################

data_NOWCIN
_symmetry_cell_setting           hexagonal
_symmetry_space_group_name_H-M   'P -6 2 c'
_symmetry_Int_Tables_number      190
_space_group_name_Hall           "P -6c -2'c"
loop_
_symmetry_equiv_pos_site_id
_symmetry_equiv_pos_as_xyz
1 x,y,z
2 -y,x-y,z
3 -x+y,-x,z
4 x,y,1/2-z
5 -y,x-y,1/2-z
6 -x+y,-x,1/2-z
7 y,x,-z
8 x-y,-y,-z
9 -x,-x+y,-z
10 y,x,1/2+z
11 x-y,-y,1/2+z
12 -x,-x+y,1/2+z
_cell_length_a                   19.9865(2)
_cell_length_b                   19.9865(2)
_cell_length_c                   40.9787(3)
_cell_angle_alpha                90
_cell_angle_beta                 90
_cell_angle_gamma                120
_cell_volume                     14176.3
loop_
_atom_site_label
_atom_site_type_symbol
_atom_site_fract_x
_atom_site_fract_y
_atom_site_fract_z
P1 P 0.3333 0.6667 0.392558(15)
O1 O 0.3333 0.6667 0.43011(5)
O2 O 0.30295(9) 0.58443(8) 0.37932(3)
O2A O 0.41557(8) 0.71852(12) 0.37932(3)
O2B O 0.28148(12) 0.69705(9) 0.37932(3)
K1 K 0.04325(3) 0.51596(3) 0.633067(10)
O3 O 0.17150(17) 0.59872(18) 0.59081(5)
O4 O 0.15314(13) 0.69375(16) 0.60023(4)
O5 O 0.23918(12) 0.86014(11) 0.44865(4)
O6 O 0.45323(10) 0.93522(9) 0.31399(3)
O7 O 0.00233(10) 0.62802(10) 0.64599(4)
O8 O -0.03465(10) 0.55397(12) 0.58493(4)
O9 O -0.00900(12) 0.42978(13) 0.57458(5)
O10 O 0.10925(12) 0.42758(14) 0.61027(6)
O11 O 0.15312(12) 0.50520(14) 0.67148(6)
O12 O 0.12434(10) 0.63016(11) 0.68068(4)
N1 N 0.17272(13) 0.65708(17) 0.58230(5)
N2 N 0.26305(11) 0.75920(11) 0.45371(4)
H1 H 0.2837 0.7352 0.4435
N3 N 0.26943(11) 0.81122(11) 0.40400(4)
H2 H 0.2842 0.7783 0.3980
N4 N 0.36506(12) 0.85068(11) 0.35114(4)
H3 H 0.3581 0.8150 0.3655
N5 N 0.46038(11) 0.83079(10) 0.33140(4)
H4 H 0.4401 0.7900 0.3442
C1 C 0.19636(13) 0.68566(15) 0.54910(5)
C2 C 0.20179(16) 0.75371(17) 0.53977(5)
H5 H 0.1905 0.7826 0.5550
C3 C 0.22387(16) 0.78126(16) 0.50800(5)
H6 H 0.2273 0.8284 0.5013
C4 C 0.24082(12) 0.73793(13) 0.48621(4)
C5 C 0.23486(13) 0.66865(14) 0.49648(5)
H7 H 0.2460 0.6392 0.4815
C6 C 0.21320(14) 0.64192(15) 0.52793(5)
H8 H 0.2099 0.5950 0.5349
C7 C 0.25558(14) 0.81438(13) 0.43621(5)
C8 C 0.26205(14) 0.85627(13) 0.37934(5)
C9 C 0.20571(16) 0.87663(16) 0.38015(7)
H9 H 0.1720 0.8623 0.3984
C10 C 0.19734(19) 0.91773(19) 0.35476(8)
H10 H 0.1589 0.9323 0.3558
C11 C 0.2452(2) 0.9371(2) 0.32813(8)
H11 H 0.2395 0.9653 0.3107
C12 C 0.30152(19) 0.91632(17) 0.32614(6)
H12 H 0.3336 0.9297 0.3074
C13 C 0.31123(14) 0.87549(13) 0.35181(5)
C14 C 0.42847(13) 0.87534(11) 0.33060(4)
C15 C 0.52797(13) 0.84728(13) 0.31175(4)
H13 H 0.5611 0.8328 0.3243
H14 H 0.5583 0.9035 0.3075
C16 C 0.50687(11) 0.80449(12) 0.27952(4)
C17 C 0.52727(15) 0.84384(16) 0.2500
H15 H 0.5557 0.8987 0.2500
C18 C 0.46589(12) 0.72418(12) 0.27923(4)
H16 H 0.4518 0.6965 0.2993
C19 C 0.44555(19) 0.68430(17) 0.2500
H17 H 0.4176 0.6294 0.2500
C20 C -0.02257(17) 0.65546(18) 0.61932(6)
H18 H 0.0226 0.6927 0.6064
H19 H -0.0495 0.6823 0.6275
C21 C -0.07602(15) 0.58869(19) 0.59834(6)
H20 H -0.1201 0.5503 0.6115
H21 H -0.0966 0.6068 0.5805
C22 C -0.08303(17) 0.4895(2) 0.56482(7)
H22 H -0.1069 0.5054 0.5476
H23 H -0.1249 0.4486 0.5781
C23 C -0.0357(2) 0.4597(2) 0.54987(7)
H24 H -0.0671 0.4186 0.5339
H25 H 0.0087 0.5019 0.5382
C24 C 0.0356(2) 0.3988(2) 0.56156(10)
H26 H 0.0820 0.4397 0.5504
H27 H 0.0048 0.3576 0.5456
C25 C 0.0593(2) 0.3660(2) 0.59005(12)
H28 H 0.0130 0.3288 0.6025
H29 H 0.0857 0.3386 0.5818
C26 C 0.1386(2) 0.4039(2) 0.63687(12)
H30 H 0.1647 0.3763 0.6286
H31 H 0.0957 0.3686 0.6513
C27 C 0.1939(2) 0.4732(3) 0.65508(11)
H32 H 0.2219 0.4594 0.6712
H33 H 0.2322 0.5119 0.6399
C28 C 0.20372(17) 0.5753(2) 0.68796(7)
H34 H 0.2391 0.6143 0.6721
H35 H 0.2352 0.5662 0.7041
C29 C 0.15769(16) 0.60396(19) 0.70463(6)
H36 H 0.1165 0.5620 0.7178
H37 H 0.1911 0.6469 0.7195
C30 C 0.07656(15) 0.65610(18) 0.69452(6)
H38 H 0.1060 0.6968 0.7109
H39 H 0.0319 0.6127 0.7056
C31 C 0.04908(16) 0.68745(17) 0.66815(7)
H40 H 0.0190 0.7097 0.6777
H41 H 0.0939 0.7291 0.6565
O3C O 0.17150(17) 0.59872(18) -0.09081(5)
O4C O 0.15314(13) 0.69375(16) -0.10023(4)
O5C O 0.23918(12) 0.86014(11) 0.05135(4)
O6C O 0.45323(10) 0.93522(9) 0.18601(3)
N1C N 0.17272(13) 0.65708(17) -0.08230(5)
N2C N 0.26305(11) 0.75920(11) 0.04629(4)
H1C H 0.2837 0.7352 0.0565
N3C N 0.26943(11) 0.81122(11) 0.09600(4)
H2C H 0.2842 0.7783 0.1020
N4C N 0.36506(12) 0.85068(11) 0.14886(4)
H3C H 0.3581 0.8150 0.1345
N5C N 0.46038(11) 0.83079(10) 0.16860(4)
H4C H 0.4401 0.7900 0.1558
C1C C 0.19636(13) 0.68566(15) -0.04910(5)
C2C C 0.20179(16) 0.75371(17) -0.03977(5)
H5C H 0.1905 0.7826 -0.0550
C3C C 0.22387(16) 0.78126(16) -0.00800(5)
H6C H 0.2273 0.8284 -0.0013
C4C C 0.24082(12) 0.73793(13) 0.01379(4)
C5C C 0.23486(13) 0.66865(14) 0.00352(5)
H7C H 0.2460 0.6392 0.0185
C6C C 0.21320(14) 0.64192(15) -0.02793(5)
H8C H 0.2099 0.5950 -0.0349
C7C C 0.25558(14) 0.81438(13) 0.06379(5)
C8C C 0.26205(14) 0.85627(13) 0.12066(5)
C9C C 0.20571(16) 0.87663(16) 0.11985(7)
H9C H 0.1720 0.8623 0.1016
C10C C 0.19734(19) 0.91773(19) 0.14524(8)
H10C H 0.1589 0.9323 0.1442
C11C C 0.2452(2) 0.9371(2) 0.17187(8)
H11C H 0.2395 0.9653 0.1893
C12C C 0.30152(19) 0.91632(17) 0.17386(6)
H12C H 0.3336 0.9297 0.1926
C13C C 0.31123(14) 0.87549(13) 0.14819(5)
C14C C 0.42847(13) 0.87534(11) 0.16940(4)
C15C C 0.52797(13) 0.84728(13) 0.18825(4)
H13C H 0.5611 0.8328 0.1757
H14C H 0.5583 0.9035 0.1925
C16C C 0.50687(11) 0.80449(12) 0.22048(4)
C18C C 0.46589(12) 0.72418(12) 0.22077(4)
H16C H 0.4518 0.6965 0.2007
K1C K 0.04325(3) 0.51596(3) -0.133067(10)
O7C O 0.00233(10) 0.62802(10) -0.14599(4)
O8C O -0.03465(10) 0.55397(12) -0.08493(4)
O9C O -0.00900(12) 0.42978(13) -0.07458(5)
O10C O 0.10925(12) 0.42758(14) -0.11027(6)
O11C O 0.15312(12) 0.50520(14) -0.17148(6)
O12C O 0.12434(10) 0.63016(11) -0.18068(4)
C20C C -0.02257(17) 0.65546(18) -0.11932(6)
H18C H 0.0226 0.6927 -0.1064
H19C H -0.0495 0.6823 -0.1275
C21C C -0.07602(15) 0.58869(19) -0.09834(6)
H20C H -0.1201 0.5503 -0.1115
H21C H -0.0966 0.6068 -0.0805
C22C C -0.08303(17) 0.4895(2) -0.06482(7)
H22C H -0.1069 0.5054 -0.0476
H23C H -0.1249 0.4486 -0.0781
C23C C -0.0357(2) 0.4597(2) -0.04987(7)
H24C H -0.0671 0.4186 -0.0339
H25C H 0.0087 0.5019 -0.0382
C24C C 0.0356(2) 0.3988(2) -0.06156(10)
H26C H 0.0820 0.4397 -0.0504
H27C H 0.0048 0.3576 -0.0456
C25C C 0.0593(2) 0.3660(2) -0.09005(12)
H28C H 0.0130 0.3288 -0.1025
H29C H 0.0857 0.3386 -0.0818
C26C C 0.1386(2) 0.4039(2) -0.13687(12)
H30C H 0.1647 0.3763 -0.1286
H31C H 0.0957 0.3686 -0.1513
C27C C 0.1939(2) 0.4732(3) -0.15508(11)
H32C H 0.2219 0.4594 -0.1712
H33C H 0.2322 0.5119 -0.1399
C28C C 0.20372(17) 0.5753(2) -0.18796(7)
H34C H 0.2391 0.6143 -0.1721
H35C H 0.2352 0.5662 -0.2041
C29C C 0.15769(16) 0.60396(19) -0.20463(6)
H36C H 0.1165 0.5620 -0.2178
H37C H 0.1911 0.6469 -0.2195
C30C C 0.07656(15) 0.65610(18) -0.19452(6)
H38C H 0.1060 0.6968 -0.2109
H39C H 0.0319 0.6127 -0.2056
C31C C 0.04908(16) 0.68745(17) -0.16815(7)
H40C H 0.0190 0.7097 -0.1777
H41C H 0.0939 0.7291 -0.1565
K1F K 0.51596(3) 1.04325(3) 0.366933(10)
K1I K 0.51596(3) 1.04325(3) 0.133067(10)
O6F O -0.06478(9) 0.45323(10) 0.68601(3)
O6I O -0.06478(9) 0.45323(10) -0.18601(3)
O13 O 0.4726(3) 0.99346(16) 0.2500
H42 H 0.473(7) 1.036(3) 0.2500
loop_
_geom_bond_atom_site_label_1
_geom_bond_atom_site_label_2
_geom_bond_site_symmetry_1
_geom_bond_site_symmetry_2
P1 O1 1_555 1_555
O2 P1 1_555 1_555
K1 O3 1_555 1_555
O3 N1 1_555 1_555
O4 K1 1_555 1_555
O5 C7 1_555 1_555
O6 C14 1_555 1_555
O7 K1 1_555 1_555
O8 K1 1_555 1_555
O9 K1 1_555 1_555
O10 K1 1_555 1_555
O11 K1 1_555 1_555
O12 K1 1_555 1_555
N1 O4 1_555 1_555
N2 H1 1_555 1_555
N3 H2 1_555 1_555
N4 H3 1_555 1_555
N5 H4 1_555 1_555
C1 N1 1_555 1_555
C2 C1 1_555 1_555
H5 C2 1_555 1_555
C3 C2 1_555 1_555
H6 C3 1_555 1_555
C4 N2 1_555 1_555
C5 C4 1_555 1_555
H7 C5 1_555 1_555
C6 C1 1_555 1_555
H8 C6 1_555 1_555
C7 N2 1_555 1_555
C8 N3 1_555 1_555
C9 C8 1_555 1_555
H9 C9 1_555 1_555
C10 C9 1_555 1_555
H10 C10 1_555 1_555
C11 C10 1_555 1_555
H11 C11 1_555 1_555
C12 C11 1_555 1_555
H12 C12 1_555 1_555
C13 N4 1_555 1_555
C14 N4 1_555 1_555
C15 N5 1_555 1_555
H13 C15 1_555 1_555
H14 C15 1_555 1_555
C16 C15 1_555 1_555
C17 C16 1_555 1_555
H15 C17 1_555 1_555
C18 C16 1_555 1_555
H16 C18 1_555 1_555
C19 C18 1_555 1_555
H17 C19 1_555 1_555
C20 O7 1_555 1_555
H18 C20 1_555 1_555
H19 C20 1_555 1_555
C21 O8 1_555 1_555
H20 C21 1_555 1_555
H21 C21 1_555 1_555
C22 O8 1_555 1_555
H22 C22 1_555 1_555
H23 C22 1_555 1_555
C23 O9 1_555 1_555
H24 C23 1_555 1_555
H25 C23 1_555 1_555
C24 O9 1_555 1_555
H26 C24 1_555 1_555
H27 C24 1_555 1_555
C25 O10 1_555 1_555
H28 C25 1_555 1_555
H29 C25 1_555 1_555
C26 O10 1_555 1_555
H30 C26 1_555 1_555
H31 C26 1_555 1_555
C27 O11 1_555 1_555
H32 C27 1_555 1_555
H33 C27 1_555 1_555
C28 O11 1_555 1_555
H34 C28 1_555 1_555
H35 C28 1_555 1_555
C29 O12 1_555 1_555
H36 C29 1_555 1_555
H37 C29 1_555 1_555
C30 O12 1_555 1_555
H38 C30 1_555 1_555
H39 C30 1_555 1_555
C31 O7 1_555 1_555
H40 C31 1_555 1_555
H41 C31 1_555 1_555
O13 H42 1_555 1_555
O2A P1 1_555 1_555
O2B P1 1_555 1_555
O3C N1C 1_555 1_555
O4C N1C 1_555 1_555
O5C C7C 1_555 1_555
O6C C14C 1_555 1_555
N1C C1C 1_555 1_555
N2C H1C 1_555 1_555
N3C H2C 1_555 1_555
N4C H3C 1_555 1_555
N5C H4C 1_555 1_555
C1C C2C 1_555 1_555
C2C H5C 1_555 1_555
C3C C2C 1_555 1_555
H6C C3C 1_555 1_555
C4C N2C 1_555 1_555
C5C C4C 1_555 1_555
H7C C5C 1_555 1_555
C6C C1C 1_555 1_555
H8C C6C 1_555 1_555
C7C N2C 1_555 1_555
C8C N3C 1_555 1_555
C9C C8C 1_555 1_555
H9C C9C 1_555 1_555
C10C C9C 1_555 1_555
H10C C10C 1_555 1_555
C11C C10C 1_555 1_555
H11C C11C 1_555 1_555
C12C C11C 1_555 1_555
H12C C12C 1_555 1_555
C13C N4C 1_555 1_555
C14C N4C 1_555 1_555
C15C N5C 1_555 1_555
H13C C15C 1_555 1_555
H14C C15C 1_555 1_555
C16C C17 1_555 1_555
C18C C19 1_555 1_555
H16C C18C 1_555 1_555
K1C O3C 1_555 1_555
O7C K1C 1_555 1_555
O8C K1C 1_555 1_555
O9C K1C 1_555 1_555
O10C K1C 1_555 1_555
O11C K1C 1_555 1_555
O12C K1C 1_555 1_555
C20C O7C 1_555 1_555
H18C C20C 1_555 1_555
H19C C20C 1_555 1_555
C21C O8C 1_555 1_555
H20C C21C 1_555 1_555
H21C C21C 1_555 1_555
C22C O8C 1_555 1_555
H22C C22C 1_555 1_555
H23C C22C 1_555 1_555
C23C O9C 1_555 1_555
H24C C23C 1_555 1_555
H25C C23C 1_555 1_555
C24C O9C 1_555 1_555
H26C C24C 1_555 1_555
H27C C24C 1_555 1_555
C25C O10C 1_555 1_555
H28C C25C 1_555 1_555
H29C C25C 1_555 1_555
C26C O10C 1_555 1_555
H30C C26C 1_555 1_555
H31C C26C 1_555 1_555
C27C O11C 1_555 1_555
H32C C27C 1_555 1_555
H33C C27C 1_555 1_555
C28C O11C 1_555 1_555
H34C C28C 1_555 1_555
H35C C28C 1_555 1_555
C29C O12C 1_555 1_555
H36C C29C 1_555 1_555
H37C C29C 1_555 1_555
C30C O12C 1_555 1_555
H38C C30C 1_555 1_555
H39C C30C 1_555 1_555
C31C O7C 1_555 1_555
H40C C31C 1_555 1_555
H41C C31C 1_555 1_555
K1F O6 1_555 1_555
K1I O6C 1_555 1_555
O6F K1 1_555 1_555
O6I K1C 1_555 1_555
N3 C7 1_555 1_555
N5 C14 1_555 1_555
C3 C4 1_555 1_555
C5 C6 1_555 1_555
C8 C13 1_555 1_555
C12 C13 1_555 1_555
C20 C21 1_555 1_555
C22 C23 1_555 1_555
C24 C25 1_555 1_555
C26 C27 1_555 1_555
C28 C29 1_555 1_555
C30 C31 1_555 1_555
O4C K1C 1_555 1_555
N3C C7C 1_555 1_555
N5C C14C 1_555 1_555
C3C C4C 1_555 1_555
C5C C6C 1_555 1_555
C8C C13C 1_555 1_555
C12C C13C 1_555 1_555
C15C C16C 1_555 1_555
C16C C18C 1_555 1_555
C20C C21C 1_555 1_555
C22C C23C 1_555 1_555
C24C C25C 1_555 1_555
C26C C27C 1_555 1_555
C28C C29C 1_555 1_555
C30C C31C 1_555 1_555

#END
