
#######################################################################
#
#                 Cambridge Crystallographic Data Centre
#                                CCDC 
#
#######################################################################
#
# If this CIF has been generated from an entry in the Cambridge 
# Structural Database, then it will include bibliographic, chemical, 
# crystal, experimental, refinement or atomic coordinate data resulting 
# from the CCDC's data processing and validation procedures.
#
#######################################################################

data_NOXXUV
_symmetry_cell_setting           triclinic
_symmetry_space_group_name_H-M   'P -1'
_symmetry_Int_Tables_number      2
_space_group_name_Hall           '-P 1'
loop_
_symmetry_equiv_pos_site_id
_symmetry_equiv_pos_as_xyz
1 x,y,z
2 -x,-y,-z
_cell_length_a                   8.7677(7)
_cell_length_b                   12.3314(9)
_cell_length_c                   17.5451(13)
_cell_angle_alpha                95.580(6)
_cell_angle_beta                 90.379(6)
_cell_angle_gamma                108.708(7)
_cell_volume                     1786.77
loop_
_atom_site_label
_atom_site_type_symbol
_atom_site_fract_x
_atom_site_fract_y
_atom_site_fract_z
Ag1 Ag 0.71336(3) 0.97357(2) 0.667191(15)
N1 N 0.4951(3) 0.9878(2) 0.73355(15)
N2 N 0.0201(4) 0.7870(3) 0.98986(17)
H1 H -0.016(5) 0.735(3) 1.016(2)
N3 N 0.4501(4) 1.1431(3) 1.0310(2)
N4 N -0.1828(4) 0.8942(3) 0.76438(18)
N5 N 1.0708(3) 0.8987(2) 0.37913(16)
N6 N 0.3626(4) 0.5313(2) 0.36358(17)
H2 H 0.271(5) 0.506(3) 0.335(2)
N7 N 0.5479(4) 0.8143(3) 0.58043(18)
N8 N 0.8351(4) 0.4213(3) 0.3812(2)
C1 C 0.3887(4) 0.8914(3) 0.7515(2)
H3 H 0.3952 0.8206 0.7276
C2 C 0.2682(4) 0.8873(3) 0.8031(2)
H4 H 0.1960 0.8150 0.8137
C3 C 0.2527(4) 0.9867(3) 0.83875(18)
C4 C 0.3611(4) 1.0934(3) 0.81955(19)
C5 C 0.4826(4) 1.0898(3) 0.76711(18)
C6 C 0.5981(4) 1.1932(3) 0.7498(2)
H5 H 0.6788 1.1906 0.7145
C7 C 0.5945(5) 1.2970(3) 0.7836(2)
H6 H 0.6755 1.3659 0.7734
C8 C 0.4726(5) 1.3021(3) 0.8329(2)
H7 H 0.4683 1.3749 0.8542
C9 C 0.3589(5) 1.2036(3) 0.8511(2)
H8 H 0.2774 1.2089 0.8853
C10 C 0.1308(4) 0.9819(3) 0.90116(19)
H9 H 0.1029 1.0548 0.9050
C11 C 0.2050(4) 0.9718(3) 0.97780(19)
C12 C 0.1539(4) 0.8781(3) 1.01654(19)
C13 C -0.0710(4) 0.7883(3) 0.92641(19)
C14 C -0.0237(4) 0.8798(3) 0.88463(19)
C15 C 0.3416(4) 1.0657(3) 1.0077(2)
C16 C 0.2316(5) 0.8634(3) 1.0889(2)
H10 H 0.3250 0.9318 1.1036
H11 H 0.2668 0.7955 1.0811
H12 H 0.1539 0.8533 1.1297
C17 C -0.2181(4) 0.6862(3) 0.9098(2)
H13 H -0.2747 0.6944 0.8635
H14 H -0.2893 0.6806 0.9531
H15 H -0.1872 0.6164 0.9019
C18 C -0.1162(4) 0.8834(3) 0.8182(2)
C19 C 0.9484(4) 0.8353(3) 0.3321(2)
H16 H 0.9512 0.8501 0.2799
C20 C 0.8161(4) 0.7482(3) 0.35494(19)
H17 H 0.7333 0.7051 0.3183
C21 C 0.8046(4) 0.7242(3) 0.42989(19)
C22 C 0.9302(4) 0.7927(3) 0.48326(18)
C23 C 1.0614(4) 0.8792(3) 0.45517(18)
C24 C 1.1900(4) 0.9470(3) 0.5055(2)
H18 H 1.2784 1.0037 0.4865
C25 C 1.1876(4) 0.9311(3) 0.5818(2)
H19 H 1.2738 0.9776 0.6156
C26 C 1.0587(4) 0.8465(3) 0.6103(2)
H20 H 1.0591 0.8358 0.6632
C27 C 0.9324(4) 0.7793(3) 0.5629(2)
H21 H 0.8454 0.7232 0.5833
C28 C 0.6612(4) 0.6256(3) 0.45361(19)
H22 H 0.6918 0.6024 0.5030
C29 C 0.5126(4) 0.6620(3) 0.46589(19)
C30 C 0.3750(4) 0.6174(3) 0.42133(19)
C31 C 0.4820(4) 0.4828(3) 0.35043(19)
C32 C 0.6203(4) 0.5222(3) 0.39429(19)
C33 C 0.5247(4) 0.7469(3) 0.5285(2)
C34 C 0.2275(4) 0.6528(3) 0.4319(2)
H23 H 0.2479 0.7144 0.4742
H24 H 0.1370 0.5866 0.4438
H25 H 0.2013 0.6806 0.3847
C35 C 0.4466(4) 0.3877(3) 0.2869(2)
H26 H 0.5387 0.3592 0.2818
H27 H 0.4273 0.4165 0.2388
H28 H 0.3507 0.3249 0.2982
C36 C 0.7388(4) 0.4662(3) 0.3846(2)
Ag1_2 Ag -0.28664(3) 0.97357(2) 0.667191(15)
Ag1A Ag 1.28664(3) 1.02643(2) 0.332809(15)
N4_2 N 0.8172(4) 0.8942(3) 0.76438(18)
N5A N 0.9292(3) 1.1013(2) 0.62087(16)
S1 S 0.87790(12) 0.55052(8) 0.14745(5)
F1 F 0.6048(3) 0.4412(2) 0.07400(19)
F2 F 0.8103(4) 0.4220(3) 0.01646(18)
F3 F 0.7297(4) 0.3334(2) 0.1156(2)
O1 O 0.7917(4) 0.5467(3) 0.21654(16)
O2 O 1.0252(3) 0.5235(3) 0.15306(18)
O3 O 0.8882(4) 0.6477(2) 0.10632(17)
C37 C 0.7486(6) 0.4294(4) 0.0843(3)
O4 O 0.0807(4) 0.4129(3) 0.27639(19)
H29 H -0.013(8) 0.411(5) 0.299(4)
H30 H 0.047(7) 0.449(5) 0.250(4)
loop_
_geom_bond_atom_site_label_1
_geom_bond_atom_site_label_2
_geom_bond_site_symmetry_1
_geom_bond_site_symmetry_2
Ag1 N1 1_555 1_555
N1 C1 1_555 1_555
N2 H1 1_555 1_555
N3 C15 1_555 1_555
N4 C18 1_555 1_555
N5 C19 1_555 1_555
N6 H2 1_555 1_555
N7 Ag1 1_555 1_555
N8 C36 1_555 1_555
C1 H3 1_555 1_555
C2 C1 1_555 1_555
H4 C2 1_555 1_555
C3 C2 1_555 1_555
C4 C3 1_555 1_555
C5 N1 1_555 1_555
C6 C5 1_555 1_555
H5 C6 1_555 1_555
C7 C6 1_555 1_555
H6 C7 1_555 1_555
C8 C7 1_555 1_555
H7 C8 1_555 1_555
C9 C4 1_555 1_555
H8 C9 1_555 1_555
C10 C3 1_555 1_555
H9 C10 1_555 1_555
C11 C10 1_555 1_555
C12 N2 1_555 1_555
C13 N2 1_555 1_555
C14 C10 1_555 1_555
C15 C11 1_555 1_555
C16 C12 1_555 1_555
H10 C16 1_555 1_555
H11 C16 1_555 1_555
H12 C16 1_555 1_555
C17 C13 1_555 1_555
H13 C17 1_555 1_555
H14 C17 1_555 1_555
H15 C17 1_555 1_555
C18 C14 1_555 1_555
C19 H16 1_555 1_555
C20 C19 1_555 1_555
H17 C20 1_555 1_555
C21 C20 1_555 1_555
C22 C21 1_555 1_555
C23 N5 1_555 1_555
C24 C23 1_555 1_555
H18 C24 1_555 1_555
C25 C24 1_555 1_555
H19 C25 1_555 1_555
C26 C25 1_555 1_555
H20 C26 1_555 1_555
C27 C22 1_555 1_555
H21 C27 1_555 1_555
C28 C21 1_555 1_555
H22 C28 1_555 1_555
C29 C28 1_555 1_555
C30 N6 1_555 1_555
C31 N6 1_555 1_555
C32 C28 1_555 1_555
C33 N7 1_555 1_555
C34 C30 1_555 1_555
H23 C34 1_555 1_555
H24 C34 1_555 1_555
H25 C34 1_555 1_555
C35 C31 1_555 1_555
H26 C35 1_555 1_555
H27 C35 1_555 1_555
H28 C35 1_555 1_555
C36 C32 1_555 1_555
S1 O1 1_555 1_555
F1 C37 1_555 1_555
F2 C37 1_555 1_555
F3 C37 1_555 1_555
O2 S1 1_555 1_555
O3 S1 1_555 1_555
C37 S1 1_555 1_555
O4 H29 1_555 1_555
H30 O4 1_555 1_555
Ag1_2 N4 1_555 1_555
Ag1A N5 1_555 1_555
N4_2 Ag1 1_555 1_555
N5A Ag1 1_555 1_555
C4 C5 1_555 1_555
C8 C9 1_555 1_555
C11 C12 1_555 1_555
C13 C14 1_555 1_555
C22 C23 1_555 1_555
C26 C27 1_555 1_555
C29 C30 1_555 1_555
C29 C33 1_555 1_555
C31 C32 1_555 1_555

#END
