
#######################################################################
#
#                 Cambridge Crystallographic Data Centre
#                                CCDC 
#
#######################################################################
#
# If this CIF has been generated from an entry in the Cambridge 
# Structural Database, then it will include bibliographic, chemical, 
# crystal, experimental, refinement or atomic coordinate data resulting 
# from the CCDC's data processing and validation procedures.
#
#######################################################################

data_NOXZEH
_symmetry_cell_setting           monoclinic
_symmetry_space_group_name_H-M   'P 21/n'
_symmetry_Int_Tables_number      14
_space_group_name_Hall           '-P 2yn'
loop_
_symmetry_equiv_pos_site_id
_symmetry_equiv_pos_as_xyz
1 x,y,z
2 1/2-x,1/2+y,1/2-z
3 -x,-y,-z
4 1/2+x,1/2-y,1/2+z
_cell_length_a                   8.8378(6)
_cell_length_b                   17.1743(12)
_cell_length_c                   12.4973(9)
_cell_angle_alpha                90
_cell_angle_beta                 95.143(2)
_cell_angle_gamma                90
_cell_volume                     1889.24
loop_
_atom_site_label
_atom_site_type_symbol
_atom_site_fract_x
_atom_site_fract_y
_atom_site_fract_z
Ag1 Ag 0.132987(19) -0.076651(10) 0.377624(13)
F1 F -0.22982(19) -0.15606(10) 0.02584(12)
F2 F -0.2467(2) -0.03250(10) 0.03848(13)
F3 F -0.35111(18) -0.10426(15) 0.14840(13)
O1 O -0.0926(2) -0.07601(10) 0.26375(13)
O2 O 0.04028(19) -0.10878(12) 0.12505(13)
N1 N 0.31803(17) 0.00677(10) 0.34020(13)
N2 N 0.8310(2) 0.15221(11) 0.06609(14)
H1 H 0.871(3) 0.1460(18) 0.014(2)
N3 N 0.36589(19) 0.28207(13) 0.12605(13)
N4 N 0.9247(2) 0.09393(12) 0.44072(15)
C1 C 0.3726(2) 0.00504(12) 0.24540(16)
H2 H 0.3358 -0.0339 0.1957
C2 C 0.4821(2) 0.05757(13) 0.21383(17)
H3 H 0.5154 0.0546 0.1437
C3 C 0.5409(2) 0.11334(11) 0.28475(15)
C4 C 0.4903(2) 0.11510(11) 0.38970(16)
C5 C 0.3743(2) 0.06132(13) 0.41297(17)
C6 C 0.3144(2) 0.06507(13) 0.51431(18)
H4 H 0.2337 0.0313 0.5289
C7 C 0.3703(2) 0.11612(14) 0.59107(18)
H5 H 0.3288 0.1178 0.6585
C8 C 0.4906(2) 0.16668(13) 0.57019(16)
H6 H 0.5321 0.2009 0.6249
C9 C 0.5476(2) 0.16687(13) 0.47195(15)
H7 H 0.6266 0.2021 0.4587
C10 C 0.6564(2) 0.17257(12) 0.24966(15)
H8 H 0.6597 0.2177 0.3004
C11 C 0.6129(2) 0.20277(12) 0.13708(15)
C12 C 0.6961(2) 0.19150(12) 0.05203(15)
C13 C 0.8920(2) 0.12821(12) 0.16544(17)
C14 C 0.8149(2) 0.13755(12) 0.25302(15)
C15 C 0.4759(2) 0.24691(13) 0.12593(15)
C16 C 0.6534(3) 0.22172(13) -0.05918(16)
H9 H 0.5555 0.2486 -0.0610
H10 H 0.6455 0.1781 -0.1100
H11 H 0.7315 0.2581 -0.0792
C17 C 1.0478(3) 0.09450(15) 0.16846(18)
H12 H 1.0818 0.0791 0.2422
H13 H 1.1177 0.1335 0.1436
H14 H 1.0463 0.0487 0.1215
C18 C 0.8804(2) 0.11256(13) 0.35567(17)
C19 C -0.0762(3) -0.09503(14) 0.16954(17)
C20 C -0.2276(3) -0.09774(17) 0.09619(18)
Ag1A Ag 0.367013(19) 0.423349(10) 0.122376(13)
Ag1B Ag 0.867013(19) 0.076651(10) 0.622376(13)
N3A N 0.13411(19) -0.21793(13) 0.37395(13)
N4B N 0.0753(2) -0.09393(12) 0.55928(15)
loop_
_geom_bond_atom_site_label_1
_geom_bond_atom_site_label_2
_geom_bond_site_symmetry_1
_geom_bond_site_symmetry_2
Ag1 O1 1_555 1_555
F1 C20 1_555 1_555
F2 C20 1_555 1_555
F3 C20 1_555 1_555
O1 C19 1_555 1_555
O2 C19 1_555 1_555
N1 Ag1 1_555 1_555
N2 H1 1_555 1_555
N3 C15 1_555 1_555
N4 C18 1_555 1_555
C1 N1 1_555 1_555
H2 C1 1_555 1_555
C2 C1 1_555 1_555
H3 C2 1_555 1_555
C3 C2 1_555 1_555
C4 C3 1_555 1_555
C5 N1 1_555 1_555
C6 C5 1_555 1_555
H4 C6 1_555 1_555
C7 C6 1_555 1_555
H5 C7 1_555 1_555
C8 C7 1_555 1_555
H6 C8 1_555 1_555
C9 C4 1_555 1_555
H7 C9 1_555 1_555
C10 C3 1_555 1_555
H8 C10 1_555 1_555
C11 C10 1_555 1_555
C12 N2 1_555 1_555
C13 N2 1_555 1_555
C14 C10 1_555 1_555
C15 C11 1_555 1_555
C16 C12 1_555 1_555
H9 C16 1_555 1_555
H10 C16 1_555 1_555
H11 C16 1_555 1_555
C17 C13 1_555 1_555
H12 C17 1_555 1_555
H13 C17 1_555 1_555
H14 C17 1_555 1_555
C18 C14 1_555 1_555
C19 C20 1_555 1_555
Ag1A N3 1_555 1_555
Ag1B N4 1_555 1_555
N3A Ag1 1_555 1_555
N4B Ag1 1_555 1_555
C4 C5 1_555 1_555
C8 C9 1_555 1_555
C11 C12 1_555 1_555
C13 C14 1_555 1_555

#END
