
#######################################################################
#
#                 Cambridge Crystallographic Data Centre
#                                CCDC 
#
#######################################################################
#
# If this CIF has been generated from an entry in the Cambridge 
# Structural Database, then it will include bibliographic, chemical, 
# crystal, experimental, refinement or atomic coordinate data resulting 
# from the CCDC's data processing and validation procedures.
#
#######################################################################

data_NUCBUK
_symmetry_cell_setting           monoclinic
_symmetry_space_group_name_H-M   'C 2/c'
_symmetry_Int_Tables_number      15
_space_group_name_Hall           '-C 2yn'
loop_
_symmetry_equiv_pos_site_id
_symmetry_equiv_pos_as_xyz
1 x,y,z
2 -x,y,1/2-z
3 1/2+x,1/2+y,z
4 1/2-x,1/2+y,1/2-z
5 -x,-y,-z
6 x,-y,1/2+z
7 1/2-x,1/2-y,-z
8 1/2+x,1/2-y,1/2+z
_cell_length_a                   15.2670(4)
_cell_length_b                   21.2820(4)
_cell_length_c                   12.6080(4)
_cell_angle_alpha                90
_cell_angle_beta                 119.841(2)
_cell_angle_gamma                90
_cell_volume                     3553.34
loop_
_atom_site_label
_atom_site_type_symbol
_atom_site_fract_x
_atom_site_fract_y
_atom_site_fract_z
Cd1 Cd 0.5000 0.720424(10) 0.2500
O1 O 0.78136(14) 0.28929(8) 0.11193(16)
O2 O 0.92123(14) 0.29751(9) 0.29342(17)
O3 O 0.41901(15) 0.70781(10) 0.03580(18)
N1 N 0.71697(15) 0.65866(10) 0.35589(19)
H1 H 0.7375 0.6938 0.3979
N2 N 0.62071(15) 0.64838(9) 0.26549(19)
C1 C 0.80460(18) 0.38115(11) 0.2315(2)
C2 C 0.74014(19) 0.41829(11) 0.1331(2)
H2 H 0.7140 0.4031 0.0521
C3 C 0.71362(19) 0.47803(11) 0.1529(2)
H3 H 0.6709 0.5037 0.0848
C4 C 0.74885(18) 0.50083(11) 0.2714(2)
C5 C 0.8120(2) 0.46237(12) 0.3691(2)
H4 H 0.8352 0.4764 0.4504
C6 C 0.8414(2) 0.40401(12) 0.3497(2)
H5 H 0.8871 0.3793 0.4176
C7 C 0.83762(18) 0.31781(11) 0.2102(2)
C8 C 0.4695(3) 0.71262(18) -0.0328(3)
H6 H 0.4432 0.7488 -0.0879
H7 H 0.4582 0.6742 -0.0808
H8 H 0.5421 0.7181 0.0231
C9 C 0.5252(2) 0.56226(12) 0.1253(3)
H9 H 0.4670 0.5840 0.1212
H10 H 0.5226 0.5176 0.1423
H11 H 0.5237 0.5668 0.0470
C10 C 0.8868(2) 0.61134(14) 0.4678(3)
H12 H 0.9057 0.6544 0.4984
H13 H 0.9269 0.5977 0.4309
H14 H 0.8996 0.5833 0.5358
C11 C 0.62049(18) 0.59038(11) 0.2249(2)
C12 C 0.71783(18) 0.56362(11) 0.2902(2)
C13 C 0.77731(19) 0.60931(11) 0.3741(2)
H15 H 0.3483(7) 0.7033(19) -0.016(3)
O1A O 0.21864(14) 0.28929(8) 0.38807(16)
O2A O 0.07877(14) 0.29751(9) 0.20658(17)
O3A O 0.58099(15) 0.70781(10) 0.46420(18)
N1A N 0.28303(15) 0.65866(10) 0.14411(19)
H1A H 0.2625 0.6938 0.1021
N2A N 0.37929(15) 0.64838(9) 0.23451(19)
C1A C 0.19540(18) 0.38115(11) 0.2685(2)
C2A C 0.25986(19) 0.41829(11) 0.3669(2)
H2A H 0.2860 0.4031 0.4479
C3A C 0.28638(19) 0.47803(11) 0.3471(2)
H3A H 0.3291 0.5037 0.4152
C4A C 0.25115(18) 0.50083(11) 0.2286(2)
C5A C 0.1880(2) 0.46237(12) 0.1309(2)
H4A H 0.1648 0.4764 0.0496
C6A C 0.1586(2) 0.40401(12) 0.1503(2)
H5A H 0.1129 0.3793 0.0824
C7A C 0.16238(18) 0.31781(11) 0.2898(2)
C8A C 0.5305(3) 0.71262(18) 0.5328(3)
H6A H 0.5568 0.7488 0.5879
H7A H 0.5418 0.6742 0.5808
H8A H 0.4579 0.7181 0.4769
C9A C 0.4748(2) 0.56226(12) 0.3747(3)
H9A H 0.5330 0.5840 0.3788
H10A H 0.4774 0.5176 0.3577
H11A H 0.4763 0.5668 0.4530
C10A C 0.1132(2) 0.61134(14) 0.0322(3)
H12A H 0.0943 0.6544 0.0016
H13A H 0.0731 0.5977 0.0691
H14A H 0.1004 0.5833 -0.0358
C11A C 0.37951(18) 0.59038(11) 0.2751(2)
C12A C 0.28217(18) 0.56362(11) 0.2098(2)
C13A C 0.22269(19) 0.60931(11) 0.1259(2)
H15A H 0.6517(7) 0.7033(19) 0.516(3)
Cd1B Cd 0.0000 0.220424(10) 0.2500
Cd1B_2 Cd 1.0000 0.220424(10) 0.2500
O2B O 0.42123(14) 0.79751(9) 0.29342(17)
O2C O 0.57877(14) 0.79751(9) 0.20658(17)
O4 O 0.8798(7) 0.8211(4) 0.1456(8)
C14 C 0.9250(9) 0.8808(5) 0.1884(10)
O5 O 0.8854(6) 0.6893(5) 0.1580(8)
C15 C 0.7894(6) 0.6621(4) 0.0808(8)
O6? O 0.877(3) 0.8802(19) 0.0587(11)
O7? O 0.7928(10) 0.7114(5) 0.1556(9)
O8? O 1.0337(7) 0.6021(5) 0.3094(8)
C16? C 1.0000 0.5428(5) 0.2500
loop_
_geom_bond_atom_site_label_1
_geom_bond_atom_site_label_2
_geom_bond_site_symmetry_1
_geom_bond_site_symmetry_2
Cd1 O3 1_555 1_555
O1 C7 1_555 1_555
O2 C7 1_555 1_555
O3 C8 1_555 1_555
N1 H1 1_555 1_555
N2 Cd1 1_555 1_555
C1 C2 1_555 1_555
C2 H2 1_555 1_555
C3 C2 1_555 1_555
H3 C3 1_555 1_555
C4 C3 1_555 1_555
C5 C4 1_555 1_555
H4 C5 1_555 1_555
C6 C1 1_555 1_555
H5 C6 1_555 1_555
C7 C1 1_555 1_555
C8 H6 1_555 1_555
H7 C8 1_555 1_555
H8 C8 1_555 1_555
C9 H9 1_555 1_555
H10 C9 1_555 1_555
H11 C9 1_555 1_555
C10 H12 1_555 1_555
H13 C10 1_555 1_555
H14 C10 1_555 1_555
C11 N2 1_555 1_555
C12 C4 1_555 1_555
C13 N1 1_555 1_555
H15 O3 1_555 1_555
O4 C14 1_555 1_555
O5 C15 1_555 1_555
O1A C7A 1_555 1_555
O2A C7A 1_555 1_555
O3A Cd1 1_555 1_555
N1A H1A 1_555 1_555
N2A Cd1 1_555 1_555
C1A C2A 1_555 1_555
C2A H2A 1_555 1_555
C3A C2A 1_555 1_555
H3A C3A 1_555 1_555
C4A C3A 1_555 1_555
C5A C4A 1_555 1_555
H4A C5A 1_555 1_555
C6A C1A 1_555 1_555
H5A C6A 1_555 1_555
C7A C1A 1_555 1_555
C8A O3A 1_555 1_555
H6A C8A 1_555 1_555
H7A C8A 1_555 1_555
H8A C8A 1_555 1_555
C9A H9A 1_555 1_555
H10A C9A 1_555 1_555
H11A C9A 1_555 1_555
C10A H12A 1_555 1_555
H13A C10A 1_555 1_555
H14A C10A 1_555 1_555
C11A N2A 1_555 1_555
C12A C4A 1_555 1_555
C13A N1A 1_555 1_555
H15A O3A 1_555 1_555
Cd1B O2A 1_555 1_555
Cd1B_2 O2 1_555 1_555
O2B Cd1 1_555 1_555
O2C Cd1 1_555 1_555
N1 N2 1_555 1_555
C5 C6 1_555 1_555
C9 C11 1_555 1_555
C10 C13 1_555 1_555
C11 C12 1_555 1_555
C12 C13 1_555 1_555
N1A N2A 1_555 1_555
C5A C6A 1_555 1_555
C9A C11A 1_555 1_555
C10A C13A 1_555 1_555
C11A C12A 1_555 1_555
C12A C13A 1_555 1_555

#END
