
#######################################################################
#
#                 Cambridge Crystallographic Data Centre
#                                CCDC 
#
#######################################################################
#
# If this CIF has been generated from an entry in the Cambridge 
# Structural Database, then it will include bibliographic, chemical, 
# crystal, experimental, refinement or atomic coordinate data resulting 
# from the CCDC's data processing and validation procedures.
#
#######################################################################

data_NUCBOE
_symmetry_cell_setting           tetragonal
_symmetry_space_group_name_H-M   'I -4 2 d'
_symmetry_Int_Tables_number      122
_space_group_name_Hall           'I -4 2bw'
loop_
_symmetry_equiv_pos_site_id
_symmetry_equiv_pos_as_xyz
1 x,y,z
2 y,-x,-z
3 -x,-y,z
4 -y,x,-z
5 x,1/2-y,1/4-z
6 -x,1/2+y,1/4-z
7 -y,1/2-x,1/4+z
8 y,1/2+x,1/4+z
9 1/2+x,1/2+y,1/2+z
10 1/2+y,1/2-x,1/2-z
11 1/2-x,1/2-y,1/2+z
12 1/2-y,1/2+x,1/2-z
13 1/2+x,-y,3/4-z
14 1/2-x,y,3/4-z
15 1/2-y,-x,3/4+z
16 1/2+y,x,3/4+z
_cell_length_a                   14.85742(19)
_cell_length_b                   14.85742(19)
_cell_length_c                   39.7127(9)
_cell_angle_alpha                90
_cell_angle_beta                 90
_cell_angle_gamma                90
_cell_volume                     8766.3
loop_
_atom_site_label
_atom_site_type_symbol
_atom_site_fract_x
_atom_site_fract_y
_atom_site_fract_z
Co1 Co 0.5000 1.0000 0.400051(18)
O1 O 0.40011(18) 1.0017(2) 0.43050(6)
N1 N 0.4900(2) 0.89604(18) 0.36816(6)
C1 C 0.5350(2) 0.8772(2) 0.33947(8)
N2 N 0.41520(19) 0.8446(2) 0.36776(7)
C2 C 0.4869(2) 0.8129(2) 0.32071(8)
C3 C 0.6225(3) 0.9223(3) 0.33257(9)
H1 H 0.377(3) 0.850(2) 0.3830(8)
C4 C 0.4097(2) 0.7936(2) 0.34015(8)
C5 C 0.5077(2) 0.7749(2) 0.28730(8)
H2 H 0.6501 0.9410 0.3539
H3 H 0.6628 0.8804 0.3209
H4 H 0.6124 0.9753 0.3184
C6 C 0.3323(2) 0.7323(2) 0.33438(10)
C7 C 0.4800(2) 0.6887(2) 0.27907(8)
C8 C 0.5533(2) 0.8257(2) 0.26267(8)
H5 H 0.3499 0.6705 0.3400
H6 H 0.3141 0.7353 0.3107
H7 H 0.2818 0.7506 0.3487
H8 H 0.4528 0.6523 0.2959
C9 C 0.4911(2) 0.6541(2) 0.24671(8)
C10 C 0.5682(2) 0.7898(2) 0.23062(8)
H9 H 0.5740 0.8846 0.2679
C11 C 0.5354(2) 0.7049(2) 0.22239(8)
H10 H 0.4685 0.5961 0.2413
H11 H 0.6009 0.8235 0.2144
C12 C 0.5504(3) 0.6646(2) 0.18808(9)
O2 O 0.60777(18) 0.69789(18) 0.16896(6)
O1B O 0.59989(18) 0.9983(2) 0.43050(6)
N1B N 0.5100(2) 1.10396(18) 0.36816(6)
C1B C 0.4650(2) 1.1228(2) 0.33947(8)
N2B N 0.58480(19) 1.1554(2) 0.36776(7)
C2B C 0.5131(2) 1.1871(2) 0.32071(8)
C3B C 0.3775(3) 1.0777(3) 0.33257(9)
H1B H 0.623(3) 1.150(2) 0.3830(8)
C4B C 0.5903(2) 1.2064(2) 0.34015(8)
C5B C 0.4923(2) 1.2251(2) 0.28730(8)
H2B H 0.3499 1.0590 0.3539
H3B H 0.3372 1.1196 0.3209
H4B H 0.3876 1.0247 0.3184
C6B C 0.6677(2) 1.2677(2) 0.33438(10)
C7B C 0.5200(2) 1.3113(2) 0.27907(8)
C8B C 0.4467(2) 1.1743(2) 0.26267(8)
H5B H 0.6501 1.3295 0.3400
H6B H 0.6859 1.2647 0.3107
H7B H 0.7182 1.2494 0.3487
H8B H 0.5472 1.3477 0.2959
C9B C 0.5089(2) 1.3459(2) 0.24671(8)
C10B C 0.4318(2) 1.2102(2) 0.23062(8)
H9B H 0.4260 1.1154 0.2679
C11B C 0.4646(2) 1.2951(2) 0.22239(8)
H10B H 0.5315 1.4039 0.2413
H11B H 0.3991 1.1765 0.2144
C12B C 0.4496(3) 1.3354(2) 0.18808(9)
O1N O 0.4983(2) 0.59989(18) 0.18050(6)
O1O O 0.5017(2) 1.40011(18) 0.18050(6)
O2B O 0.39223(18) 1.30211(18) 0.16896(6)
Co1N Co 0.5000 0.5000 0.150051(18)
Co1N_2 Co 0.5000 1.5000 0.150051(18)
Co2 Co 0.5000 1.0000 0.601149(18)
O3 O 0.50132(19) 0.89368(16) 0.57285(6)
N3 N 0.39390(18) 0.9984(2) 0.63283(6)
C13 C 0.4317(3) 1.1200(3) 0.67217(9)
H12 H 0.3973 1.1745 0.6668
N4 N 0.3382(2) 0.9258(2) 0.63152(7)
C14 C 0.2886(2) 0.9201(2) 0.65925(8)
C15 C 0.3786(2) 1.0394(2) 0.66254(8)
C16 C 0.3125(2) 0.9919(2) 0.68018(8)
O4 O 0.16282(17) 1.13874(19) 0.82375(6)
C17 C 0.1540(2) 1.0631(2) 0.81052(8)
C18 C 0.1982(2) 1.0450(2) 0.77756(8)
H13 H 0.336(2) 0.895(3) 0.6138(7)
C19 C 0.2240(2) 1.1158(2) 0.75667(8)
C20 C 0.2126(2) 0.9575(2) 0.76657(8)
C21 C 0.2748(2) 1.0109(2) 0.71390(8)
C22 C 0.2601(2) 1.0990(2) 0.72509(8)
H14 H 0.2751 1.1480 0.7108
C23 C 0.2511(2) 0.9406(2) 0.73537(8)
H15 H 0.2615 0.8803 0.7285
H16 H 0.4442 1.1183 0.6964
C24 C 0.2226(2) 0.8440(2) 0.66346(9)
H17 H 0.2508 0.7953 0.6763
H18 H 0.1693 0.8657 0.6756
H19 H 0.1959 0.9084 0.7806
H20 H 0.4885 1.1205 0.6597
H21 H 0.2046 0.8216 0.6413
H22 H 0.2168 1.1761 0.7641
O3B O 0.49868(19) 1.10632(16) 0.57285(6)
N3B N 0.60610(18) 1.0016(2) 0.63283(6)
Co2F Co 0.0000 1.0000 0.851149(18)
O3F O 0.10632(16) 0.99868(19) 0.82285(6)
C13B C 0.5683(3) 0.8800(3) 0.67217(9)
H12B H 0.6027 0.8255 0.6668
N4B N 0.6618(2) 1.0742(2) 0.63152(7)
C14B C 0.7114(2) 1.0799(2) 0.65925(8)
Co2F_2 Co 1.0000 1.0000 0.851149(18)
C15B C 0.6214(2) 0.9606(2) 0.66254(8)
C16B C 0.6875(2) 1.0081(2) 0.68018(8)
O4B O 0.83718(17) 0.86126(19) 0.82375(6)
C17B C 0.8460(2) 0.9369(2) 0.81052(8)
O3G O 0.89368(16) 1.00132(19) 0.82285(6)
C18B C 0.8018(2) 0.9550(2) 0.77756(8)
H13B H 0.664(2) 1.105(3) 0.6138(7)
C19B C 0.7760(2) 0.8842(2) 0.75667(8)
C20B C 0.7874(2) 1.0425(2) 0.76657(8)
C21B C 0.7252(2) 0.9891(2) 0.71390(8)
C22B C 0.7399(2) 0.9010(2) 0.72509(8)
H14B H 0.7249 0.8520 0.7108
C23B C 0.7489(2) 1.0594(2) 0.73537(8)
H15B H 0.7385 1.1197 0.7285
H16B H 0.5558 0.8817 0.6964
C24B C 0.7774(2) 1.1560(2) 0.66346(9)
H17B H 0.7492 1.2047 0.6763
H18B H 0.8307 1.1343 0.6756
H19B H 0.8041 1.0916 0.7806
H20B H 0.5115 0.8795 0.6597
H21B H 0.7954 1.1784 0.6413
H22B H 0.7832 0.8239 0.7641
loop_
_geom_bond_atom_site_label_1
_geom_bond_atom_site_label_2
_geom_bond_site_symmetry_1
_geom_bond_site_symmetry_2
Co1 O1 1_555 1_555
N1 Co1 1_555 1_555
C1 N1 1_555 1_555
N2 N1 1_555 1_555
C2 C1 1_555 1_555
C3 C1 1_555 1_555
H1 N2 1_555 1_555
C4 N2 1_555 1_555
C5 C2 1_555 1_555
H2 C3 1_555 1_555
H3 C3 1_555 1_555
H4 C3 1_555 1_555
C6 C4 1_555 1_555
C7 C5 1_555 1_555
C8 C5 1_555 1_555
H5 C6 1_555 1_555
H6 C6 1_555 1_555
H7 C6 1_555 1_555
H8 C7 1_555 1_555
C9 C7 1_555 1_555
C10 C8 1_555 1_555
H9 C8 1_555 1_555
C11 C9 1_555 1_555
H10 C9 1_555 1_555
H11 C10 1_555 1_555
C12 C11 1_555 1_555
O2 C12 1_555 1_555
Co2 O3 1_555 1_555
N3 Co2 1_555 1_555
C13 H12 1_555 1_555
N4 N3 1_555 1_555
C14 N4 1_555 1_555
C15 N3 1_555 1_555
C16 C14 1_555 1_555
O4 C17 1_555 1_555
C17 C18 1_555 1_555
C18 C19 1_555 1_555
H13 N4 1_555 1_555
C19 C22 1_555 1_555
C20 C18 1_555 1_555
C21 C16 1_555 1_555
C22 C21 1_555 1_555
H14 C22 1_555 1_555
C23 C20 1_555 1_555
H15 C23 1_555 1_555
H16 C13 1_555 1_555
C24 C14 1_555 1_555
H17 C24 1_555 1_555
H18 C24 1_555 1_555
H19 C20 1_555 1_555
H20 C13 1_555 1_555
H21 C24 1_555 1_555
H22 C19 1_555 1_555
O1B Co1 1_555 1_555
N1B Co1 1_555 1_555
C1B N1B 1_555 1_555
N2B N1B 1_555 1_555
C2B C1B 1_555 1_555
C3B C1B 1_555 1_555
H1B N2B 1_555 1_555
C4B N2B 1_555 1_555
C5B C2B 1_555 1_555
H2B C3B 1_555 1_555
H3B C3B 1_555 1_555
H4B C3B 1_555 1_555
C6B C4B 1_555 1_555
C7B C5B 1_555 1_555
C8B C5B 1_555 1_555
H5B C6B 1_555 1_555
H6B C6B 1_555 1_555
H7B C6B 1_555 1_555
H8B C7B 1_555 1_555
C9B C7B 1_555 1_555
C10B C8B 1_555 1_555
H9B C8B 1_555 1_555
C11B C9B 1_555 1_555
H10B C9B 1_555 1_555
H11B C10B 1_555 1_555
C12B C11B 1_555 1_555
O1N C12 1_555 1_555
O1O C12B 1_555 1_555
O2B C12B 1_555 1_555
Co1N O1N 1_555 1_555
Co1N_2 O1O 1_555 1_555
O3B Co2 1_555 1_555
N3B Co2 1_555 1_555
Co2F O3F 1_555 1_555
O3F C17 1_555 1_555
C13B H12B 1_555 1_555
N4B N3B 1_555 1_555
C14B N4B 1_555 1_555
Co2F_2 O3G 1_555 1_555
C15B N3B 1_555 1_555
C16B C14B 1_555 1_555
O4B C17B 1_555 1_555
C17B O3G 1_555 1_555
C18B C17B 1_555 1_555
H13B N4B 1_555 1_555
C19B C18B 1_555 1_555
C20B C18B 1_555 1_555
C21B C16B 1_555 1_555
C22B C19B 1_555 1_555
H14B C22B 1_555 1_555
C23B C20B 1_555 1_555
H15B C23B 1_555 1_555
H16B C13B 1_555 1_555
C24B C14B 1_555 1_555
H17B C24B 1_555 1_555
H18B C24B 1_555 1_555
H19B C20B 1_555 1_555
H20B C13B 1_555 1_555
H21B C24B 1_555 1_555
H22B C19B 1_555 1_555
C2 C4 1_555 1_555
C10 C11 1_555 1_555
C13 C15 1_555 1_555
C15 C16 1_555 1_555
C21 C23 1_555 1_555
C2B C4B 1_555 1_555
C10B C11B 1_555 1_555
C13B C15B 1_555 1_555
C15B C16B 1_555 1_555
C21B C22B 1_555 1_555
C21B C23B 1_555 1_555

#END
