
#######################################################################
#
#                 Cambridge Crystallographic Data Centre
#                                CCDC 
#
#######################################################################
#
# If this CIF has been generated from an entry in the Cambridge 
# Structural Database, then it will include bibliographic, chemical, 
# crystal, experimental, refinement or atomic coordinate data resulting 
# from the CCDC's data processing and validation procedures.
#
#######################################################################

data_NUCCIY
_symmetry_cell_setting           monoclinic
_symmetry_space_group_name_H-M   'C 2/c'
_symmetry_Int_Tables_number      15
_space_group_name_Hall           '-C 2yn'
loop_
_symmetry_equiv_pos_site_id
_symmetry_equiv_pos_as_xyz
1 x,y,z
2 -x,y,1/2-z
3 1/2+x,1/2+y,z
4 1/2-x,1/2+y,1/2-z
5 -x,-y,-z
6 x,-y,1/2+z
7 1/2-x,1/2-y,-z
8 1/2+x,1/2-y,1/2+z
_cell_length_a                   23.2263(10)
_cell_length_b                   13.8727(6)
_cell_length_c                   8.7862(4)
_cell_angle_alpha                90
_cell_angle_beta                 105.157(1)
_cell_angle_gamma                90
_cell_volume                     2732.53
loop_
_atom_site_label
_atom_site_type_symbol
_atom_site_fract_x
_atom_site_fract_y
_atom_site_fract_z
Er1 Er 0.687962(9) 0.644333(13) -0.08794(2)
O1 O 0.64969(19) 0.6323(2) -0.3809(4)
O2 O 0.67312(17) 0.7724(2) -0.2709(4)
C1 C 0.5812(2) 0.6409(3) -0.0026(7)
O3 O 0.58429(16) 0.6759(3) -0.1322(4)
O4 O 0.62751(16) 0.6106(3) 0.0928(4)
C2 C 0.6531(2) 0.7221(4) -0.3931(6)
C3 C 0.5217(3) 0.6346(4) 0.0370(9)
H1 H 0.4934 0.6753 -0.0360
H2 H 0.5264 0.6606 0.1420
O5 O 0.70741(15) 0.7834(2) -0.9338(4)
O6 O 0.73264(16) 0.9186(3) -0.8088(5)
C4 C 0.6930(2) 0.8570(3) -0.8670(6)
C5 C 0.6295(2) 0.8716(4) -0.8616(6)
H3 H 0.6102 0.8091 -0.8691
H4 H 0.6090 0.9087 -0.9534
C6 C 0.6516(3) 0.8721(4) -0.5599(6)
H5 H 0.6435 0.9083 -0.4734
H6 H 0.6944 0.8723 -0.5462
C7 C 0.6215(2) 0.9225(4) -0.7152(6)
H7 H 0.5792 0.9280 -0.7233
H8 H 0.6374 0.9872 -0.7126
C8 C 0.6309(3) 0.7694(4) -0.5524(7)
H9 H 0.6441 0.7314 -0.6297
H10 H 0.5876 0.7685 -0.5818
C9 C 0.4970(4) 0.5398(6) 0.0317(17)
H11 H 0.4544 0.5514 -0.0039
H12 H 0.5043 0.5231 0.1423
O7 O 0.75396(16) 0.5836(2) 0.1387(4)
H13 H 0.7909 0.5788 0.1433
H14 H 0.7412 0.5664 0.2167
O8 O 0.66072(18) 0.4842(2) -0.1253(4)
H15 H 0.6848 0.4434 -0.1465
H16 H 0.6266 0.4661 -0.1179
Er1_2 Er 0.687962(9) 0.644333(13) 0.91206(2)
Er1_3 Er 0.687962(9) 0.644333(13) -1.08794(2)
Er1F Er 0.812038(9) 0.855667(13) -0.91206(2)
Er1D Er 0.312038(9) 0.355667(13) 0.08794(2)
Er1F_2 Er 0.812038(9) 0.855667(13) 0.08794(2)
O1_2 O 0.64969(19) 0.6323(2) 0.6191(4)
O2_2 O 0.67312(17) 0.7724(2) 0.7291(4)
C1D C 0.4188(2) 0.3591(3) 0.0026(7)
O3D O 0.41571(16) 0.3241(3) 0.1322(4)
O3_2 O 0.58429(16) 0.6759(3) 0.8678(4)
O4D O 0.37249(16) 0.3894(3) -0.0928(4)
O4_2 O 0.62751(16) 0.6106(3) 1.0928(4)
C2_2 C 0.6531(2) 0.7221(4) 0.6069(6)
C3D C 0.4783(3) 0.3654(4) -0.0370(9)
H1D H 0.5066 0.3247 0.0360
H2D H 0.4736 0.3394 -0.1420
O5_2 O 0.70741(15) 0.7834(2) 0.0662(4)
O5F O 0.79259(15) 0.7166(2) -0.0662(4)
O5_3 O 0.70741(15) 0.7834(2) 1.0662(4)
O5F_2 O 0.79259(15) 0.7166(2) 0.9338(4)
O6_2 O 0.73264(16) 0.9186(3) 0.1912(5)
O6F O 0.76736(16) 0.5814(3) -0.1912(5)
O6F_2 O 0.76736(16) 0.5814(3) 0.8088(5)
C4_2 C 0.6930(2) 0.8570(3) 0.1330(6)
C5_2 C 0.6295(2) 0.8716(4) 0.1384(6)
H3_2 H 0.6102 0.8091 0.1309
H4_2 H 0.6090 0.9087 0.0466
C6_2 C 0.6516(3) 0.8721(4) 0.4401(6)
H5_2 H 0.6435 0.9083 0.5266
H6_2 H 0.6944 0.8723 0.4538
C7_2 C 0.6215(2) 0.9225(4) 0.2848(6)
H7_2 H 0.5792 0.9280 0.2767
H8_2 H 0.6374 0.9872 0.2874
C8_2 C 0.6309(3) 0.7694(4) 0.4476(7)
H9_2 H 0.6441 0.7314 0.3703
H10_2 H 0.5876 0.7685 0.4182
C9D C 0.5030(4) 0.4602(6) -0.0317(17)
H11D H 0.5456 0.4486 0.0039
H12D H 0.4957 0.4769 -0.1423
O7_2 O 0.75396(16) 0.5836(2) 1.1387(4)
H13_2 H 0.7909 0.5788 1.1433
H14_2 H 0.7412 0.5664 1.2167
O8_2 O 0.66072(18) 0.4842(2) 0.8747(4)
H15_2 H 0.6848 0.4434 0.8535
H16_2 H 0.6266 0.4661 0.8821
O9 O 0.5000 0.1616(10) 0.2500
H17 H 0.5201 0.2067 0.2233
H17A H 0.4799 0.2067 0.2767
loop_
_geom_bond_atom_site_label_1
_geom_bond_atom_site_label_2
_geom_bond_site_symmetry_1
_geom_bond_site_symmetry_2
Er1 O1 1_555 1_555
O1 C2 1_555 1_555
O2 Er1 1_555 1_555
C1 O3 1_555 1_555
O3 Er1 1_555 1_555
O4 Er1 1_555 1_555
C2 O2 1_555 1_555
C3 C1 1_555 1_555
H1 C3 1_555 1_555
H2 C3 1_555 1_555
O5 C4 1_555 1_555
O6 C4 1_555 1_555
C4 C5 1_555 1_555
C5 H3 1_555 1_555
H4 C5 1_555 1_555
C6 H5 1_555 1_555
H6 C6 1_555 1_555
C7 C5 1_555 1_555
H7 C7 1_555 1_555
H8 C7 1_555 1_555
C8 C2 1_555 1_555
H9 C8 1_555 1_555
H10 C8 1_555 1_555
C9 C3 1_555 1_555
H11 C9 1_555 1_555
H12 C9 1_555 1_555
O7 Er1 1_555 1_555
H13 O7 1_555 1_555
H14 O7 1_555 1_555
O8 Er1 1_555 1_555
H15 O8 1_555 1_555
H16 O8 1_555 1_555
O9 H17 1_555 1_555
Er1_2 O1_2 1_555 1_555
Er1_3 O5 1_555 1_555
Er1F O5 1_555 1_555
Er1D O3D 1_555 1_555
Er1F_2 O5_2 1_555 1_555
O1_2 C2_2 1_555 1_555
O2_2 Er1_2 1_555 1_555
C1D O3D 1_555 1_555
O3_2 Er1_2 1_555 1_555
O4D Er1D 1_555 1_555
O4_2 Er1_2 1_555 1_555
C2_2 O2_2 1_555 1_555
C3D C1D 1_555 1_555
H1D C3D 1_555 1_555
H2D C3D 1_555 1_555
O5_2 Er1 1_555 1_555
O5F Er1 1_555 1_555
O5_3 Er1_2 1_555 1_555
O5F_2 Er1_2 1_555 1_555
O6_2 Er1F_2 1_555 1_555
O6F Er1 1_555 1_555
O6F_2 Er1_2 1_555 1_555
C4_2 O5_2 1_555 1_555
C5_2 C4_2 1_555 1_555
H3_2 C5_2 1_555 1_555
H4_2 C5_2 1_555 1_555
C6_2 H5_2 1_555 1_555
H6_2 C6_2 1_555 1_555
C7_2 C5_2 1_555 1_555
H7_2 C7_2 1_555 1_555
H8_2 C7_2 1_555 1_555
C8_2 C2_2 1_555 1_555
H9_2 C8_2 1_555 1_555
H10_2 C8_2 1_555 1_555
C9D C9 1_555 1_555
H11D C9D 1_555 1_555
H12D C9D 1_555 1_555
O7_2 Er1_2 1_555 1_555
H13_2 O7_2 1_555 1_555
H14_2 O7_2 1_555 1_555
O8_2 Er1_2 1_555 1_555
H15_2 O8_2 1_555 1_555
H16_2 O8_2 1_555 1_555
H17A O9 1_555 1_555
C1 O4 1_555 1_555
O6 Er1F 1_555 1_555
C6 C7 1_555 1_555
C6 C8 1_555 1_555
Er1F_2 O5F 1_555 1_555
C1D O4D 1_555 1_555
C3D C9D 1_555 1_555
O6_2 C4_2 1_555 1_555
C6_2 C7_2 1_555 1_555
C6_2 C8_2 1_555 1_555

#END
