
#######################################################################
#
#                 Cambridge Crystallographic Data Centre
#                                CCDC 
#
#######################################################################
#
# If this CIF has been generated from an entry in the Cambridge 
# Structural Database, then it will include bibliographic, chemical, 
# crystal, experimental, refinement or atomic coordinate data resulting 
# from the CCDC's data processing and validation procedures.
#
#######################################################################

data_NUCDOF
_symmetry_cell_setting           monoclinic
_symmetry_space_group_name_H-M   'P 21/c'
_symmetry_Int_Tables_number      14
_space_group_name_Hall           '-P 2ybc'
loop_
_symmetry_equiv_pos_site_id
_symmetry_equiv_pos_as_xyz
1 x,y,z
2 -x,1/2+y,1/2-z
3 -x,-y,-z
4 x,1/2-y,1/2+z
_cell_length_a                   10.871(4)
_cell_length_b                   16.511(6)
_cell_length_c                   11.097(4)
_cell_angle_alpha                90
_cell_angle_beta                 114.311(9)
_cell_angle_gamma                90
_cell_volume                     1815.19
loop_
_atom_site_label
_atom_site_type_symbol
_atom_site_fract_x
_atom_site_fract_y
_atom_site_fract_z
Zn1 Zn 0.49717(16) 0.16478(11) 0.46783(17)
Cu1 Cu 0.41275(16) -0.07476(12) 0.14241(19)
O1 O 0.9104(9) 0.4089(6) 1.0161(9)
H1 H 0.8417 0.3959 1.0247
O2 O 1.2157(9) 0.2679(7) 0.7276(10)
O3 O 0.4825(8) 0.2412(7) 0.3170(8)
H2 H 0.507(8) 0.251(8) 0.259(7)
H3 H 0.4013(17) 0.245(6) 0.284(9)
O4 O 0.5064(9) 0.0591(6) 0.3702(10)
O5 O 0.7220(9) 0.1825(7) 0.5587(9)
O6 O 0.5960(9) 0.2478(5) 0.6305(8)
O7 O 0.4928(9) -0.0754(6) 0.3882(10)
O8 O 1.3022(10) 0.3255(6) 0.9257(10)
N1 N 0.2310(10) -0.0734(8) 0.1260(11)
N2 N -0.4204(11) -0.0725(7) 0.1259(12)
C1 C 0.7124(15) 0.2320(10) 0.6374(15)
C2 C -0.1667(12) -0.0728(8) 0.1207(13)
C3 C -0.2768(13) -0.1090(8) 0.0215(14)
H4 H -0.2682 -0.1343 -0.0495
C4 C -0.1845(13) -0.0408(9) 0.2262(14)
H5 H -0.1119 -0.0189 0.2975
C5 C 0.9589(13) 0.2678(7) 0.7344(12)
H6 H 0.9708 0.2374 0.6694
C6 C 0.8290(14) 0.2752(8) 0.7301(15)
C7 C 1.0704(13) 0.3040(8) 0.8316(13)
C8 C -0.4026(13) -0.1067(8) 0.0307(15)
H7 H -0.4763 -0.1312 -0.0358
C9 C 1.0530(13) 0.3492(8) 0.9240(13)
H8 H 1.1276 0.3718 0.9923
C10 C -0.0262(13) -0.0713(9) 0.1218(13)
C11 C 0.1951(14) -0.0191(9) 0.1942(14)
H9 H 0.2594 0.0188 0.2434
C12 C 0.1389(13) -0.1260(8) 0.0532(13)
H10 H 0.1616 -0.1631 0.0026
C13 C 0.5006(14) -0.0055(14) 0.4272(16)
C14 C 0.8165(13) 0.3222(8) 0.8276(13)
H11 H 0.7326 0.3261 0.8310
C15 C 0.9224(14) 0.3627(8) 0.9183(15)
C16 C 1.2024(16) 0.2979(10) 0.8230(18)
C17 C 0.0112(14) -0.1283(8) 0.0492(13)
H12 H -0.0501 -0.1673 -0.0013
C18 C -0.3140(15) -0.0416(9) 0.2253(14)
H13 H -0.3257 -0.0197 0.2970
C19 C 0.0687(12) -0.0148(8) 0.1972(13)
H14 H 0.0489 0.0239 0.2473
Zn1B Zn 0.50283(16) -0.16478(11) 0.53217(17)
Zn1C Zn 1.49717(16) 0.33522(11) 0.96783(17)
Zn1C_2 Zn -0.50283(16) 0.33522(11) -0.03217(17)
Cu1B Cu 0.58725(16) 0.07476(12) 0.85759(19)
Cu1_2 Cu -0.58725(16) -0.07476(12) 0.14241(19)
Cu1_3 Cu 1.41275(16) -0.07476(12) 0.14241(19)
O1C O -0.0896(9) 0.0911(6) 0.5161(9)
H1C H -0.1583 0.1041 0.5247
O2C O 0.2157(9) 0.2321(7) 0.2276(10)
O3B O 0.5175(8) -0.2412(7) 0.6830(8)
H2B H 0.493(8) -0.251(8) 0.741(7)
H3B H 0.5987(17) -0.245(6) 0.716(9)
O4B O 0.4936(9) -0.0591(6) 0.6298(10)
O5C O -0.2780(9) 0.3175(7) 0.0587(9)
O5B O 0.2780(9) -0.1825(7) 0.4413(9)
O6C O -0.4040(9) 0.2522(5) 0.1305(8)
O6B O 0.4040(9) -0.2478(5) 0.3695(8)
O7B O 0.5072(9) 0.0754(6) 0.6118(10)
O8C O 0.3022(10) 0.1745(6) 0.4257(10)
O8A O 0.6978(10) -0.1745(6) 0.5743(10)
N1_2 N 1.2310(10) -0.0734(8) 0.1260(11)
N1B N 0.7690(10) 0.0734(8) 0.8740(11)
N2_2 N 0.5796(11) -0.0725(7) 0.1259(12)
N2B N 0.4204(11) 0.0725(7) 0.8741(12)
C1C C -0.2876(15) 0.2680(10) 0.1374(15)
C2_2 C 0.8333(12) -0.0728(8) 0.1207(13)
C3_2 C 0.7232(13) -0.1090(8) 0.0215(14)
H4_2 H 0.7318 -0.1343 -0.0495
C4_2 C 0.8155(13) -0.0408(9) 0.2262(14)
H5_2 H 0.8881 -0.0189 0.2975
C5C C -0.0411(13) 0.2322(7) 0.2344(12)
H6C H -0.0292 0.2626 0.1694
C6C C -0.1710(14) 0.2248(8) 0.2301(15)
C7C C 0.0704(13) 0.1960(8) 0.3316(13)
C8_2 C 0.5974(13) -0.1067(8) 0.0307(15)
H7_2 H 0.5237 -0.1312 -0.0358
C9C C 0.0530(13) 0.1508(8) 0.4240(13)
H8C H 0.1276 0.1282 0.4923
C10_2 C 0.9738(13) -0.0713(9) 0.1218(13)
C11_2 C 1.1951(14) -0.0191(9) 0.1942(14)
H9_2 H 1.2594 0.0188 0.2434
C12_2 C 1.1389(13) -0.1260(8) 0.0532(13)
H10_2 H 1.1616 -0.1631 0.0026
C13B C 0.4994(14) 0.0055(14) 0.5728(16)
C14C C -0.1835(13) 0.1778(8) 0.3276(13)
H11C H -0.2674 0.1739 0.3310
C15C C -0.0776(14) 0.1373(8) 0.4183(15)
C16C C 0.2024(16) 0.2021(10) 0.3230(18)
C17_2 C 1.0112(14) -0.1283(8) 0.0492(13)
H12_2 H 0.9499 -0.1673 -0.0013
C18_2 C 0.6860(15) -0.0416(9) 0.2253(14)
H13_2 H 0.6743 -0.0197 0.2970
C19_2 C 1.0687(12) -0.0148(8) 0.1972(13)
H14_2 H 1.0489 0.0239 0.2473
loop_
_geom_bond_atom_site_label_1
_geom_bond_atom_site_label_2
_geom_bond_site_symmetry_1
_geom_bond_site_symmetry_2
Zn1 O3 1_555 1_555
Cu1 O7 1_555 1_555
O1 H1 1_555 1_555
O2 C16 1_555 1_555
O3 H2 1_555 1_555
H3 O3 1_555 1_555
O4 Zn1 1_555 1_555
O5 Zn1 1_555 1_555
O6 Zn1 1_555 1_555
O7 C13 1_555 1_555
O8 C16 1_555 1_555
N1 Cu1 1_555 1_555
N2 C8 1_555 1_555
C1 O5 1_555 1_555
C2 C3 1_555 1_555
C3 H4 1_555 1_555
C4 C2 1_555 1_555
H5 C4 1_555 1_555
C5 H6 1_555 1_555
C6 C1 1_555 1_555
C7 C5 1_555 1_555
C8 C3 1_555 1_555
H7 C8 1_555 1_555
C9 C7 1_555 1_555
H8 C9 1_555 1_555
C10 C2 1_555 1_555
C11 N1 1_555 1_555
H9 C11 1_555 1_555
C12 N1 1_555 1_555
H10 C12 1_555 1_555
C13 O4 1_555 1_555
C14 C6 1_555 1_555
H11 C14 1_555 1_555
C15 O1 1_555 1_555
C16 C7 1_555 1_555
C17 C10 1_555 1_555
H12 C17 1_555 1_555
C18 N2 1_555 1_555
H13 C18 1_555 1_555
C19 C10 1_555 1_555
H14 C19 1_555 1_555
Zn1B O7 1_555 1_555
Zn1C O8 1_555 1_555
Zn1C_2 O5C 1_555 1_555
Cu1B O7B 1_555 1_555
Cu1_2 N2 1_555 1_555
Cu1_3 N1_2 1_555 1_555
O1C H1C 1_555 1_555
O2C C16C 1_555 1_555
O3B Zn1B 1_555 1_555
H2B O3B 1_555 1_555
H3B O3B 1_555 1_555
O4B Zn1B 1_555 1_555
O5C C1C 1_555 1_555
O5B Zn1B 1_555 1_555
O6C Zn1C_2 1_555 1_555
O6B Zn1B 1_555 1_555
O7B Zn1 1_555 1_555
O8C Zn1 1_555 1_555
O8A Zn1B 1_555 1_555
N1_2 C11_2 1_555 1_555
N1B Cu1B 1_555 1_555
N2_2 Cu1 1_555 1_555
N2B Cu1B 1_555 1_555
C1C O6C 1_555 1_555
C2_2 C3_2 1_555 1_555
C3_2 H4_2 1_555 1_555
C4_2 C2_2 1_555 1_555
H5_2 C4_2 1_555 1_555
C5C H6C 1_555 1_555
C6C C1C 1_555 1_555
C7C C5C 1_555 1_555
C8_2 N2_2 1_555 1_555
H7_2 C8_2 1_555 1_555
C9C C7C 1_555 1_555
H8C C9C 1_555 1_555
C10_2 C2_2 1_555 1_555
C11_2 H9_2 1_555 1_555
C12_2 N1_2 1_555 1_555
H10_2 C12_2 1_555 1_555
C13B C13 1_555 1_555
C14C C6C 1_555 1_555
H11C C14C 1_555 1_555
C15C O1C 1_555 1_555
C16C O8C 1_555 1_555
C17_2 C10_2 1_555 1_555
H12_2 C17_2 1_555 1_555
C18_2 N2_2 1_555 1_555
H13_2 C18_2 1_555 1_555
C19_2 C10_2 1_555 1_555
H14_2 C19_2 1_555 1_555
O6 C1 1_555 1_555
C4 C18 1_555 1_555
C5 C6 1_555 1_555
C9 C15 1_555 1_555
C11 C19 1_555 1_555
C12 C17 1_555 1_555
C14 C15 1_555 1_555
O4B C13B 1_555 1_555
O7B C13B 1_555 1_555
C3_2 C8_2 1_555 1_555
C4_2 C18_2 1_555 1_555
C5C C6C 1_555 1_555
C7C C16C 1_555 1_555
C9C C15C 1_555 1_555
C11_2 C19_2 1_555 1_555
C12_2 C17_2 1_555 1_555
C14C C15C 1_555 1_555

#END
