
#######################################################################
#
#                 Cambridge Crystallographic Data Centre
#                                CCDC 
#
#######################################################################
#
# If this CIF has been generated from an entry in the Cambridge 
# Structural Database, then it will include bibliographic, chemical, 
# crystal, experimental, refinement or atomic coordinate data resulting 
# from the CCDC's data processing and validation procedures.
#
#######################################################################

data_NUCDEV
_symmetry_cell_setting           triclinic
_symmetry_space_group_name_H-M   'P -1'
_symmetry_Int_Tables_number      2
_space_group_name_Hall           '-P 1'
loop_
_symmetry_equiv_pos_site_id
_symmetry_equiv_pos_as_xyz
1 x,y,z
2 -x,-y,-z
_cell_length_a                   9.0938(17)
_cell_length_b                   10.587(2)
_cell_length_c                   13.567(3)
_cell_angle_alpha                103.854(4)
_cell_angle_beta                 100.129(5)
_cell_angle_gamma                99.920(4)
_cell_volume                     1216.6
loop_
_atom_site_label
_atom_site_type_symbol
_atom_site_fract_x
_atom_site_fract_y
_atom_site_fract_z
Mn1 Mn 0.0000 1.0000 0.5000
S1 S -0.41579(6) 0.62363(5) 0.26838(4)
N1 N 0.29709(16) 0.70601(15) 0.47147(12)
N2 N 0.40759(17) 0.81955(15) 0.49354(13)
N3 N 0.17525(17) 0.86769(15) 0.49169(12)
N4 N 0.01580(17) 0.91486(15) 0.80117(12)
N5 N -0.12856(18) 0.83964(17) 0.75668(13)
N6 N -0.03938(17) 0.94855(15) 0.64791(12)
N7 N -0.18203(18) 0.82814(16) 0.40680(14)
C1 C 0.3285(2) 0.91325(19) 0.50515(15)
H1 H 0.3751 1.0055 0.5216
C2 C 0.1605(2) 0.73621(18) 0.47012(14)
H2 H 0.0662 0.6730 0.4558
C3 C 0.3337(2) 0.57370(18) 0.44496(15)
H3 H 0.3466 0.5517 0.3723
H4 H 0.2467 0.5060 0.4488
C4 C 0.4781(2) 0.56668(18) 0.51678(15)
H5 H 0.4621 0.5809 0.5886
H6 H 0.5634 0.6392 0.5175
C5 C -0.1555(2) 0.86423(19) 0.66536(15)
H7 H -0.2496 0.8256 0.6153
C6 C 0.0660(2) 0.97776(19) 0.73564(14)
H8 H 0.1639 1.0357 0.7498
C7 C 0.1021(2) 0.9065(2) 0.90069(15)
H9 H 0.2008 0.9731 0.9218
H10 H 0.1251 0.8169 0.8909
C8 C 0.0163(2) 0.93105(18) 0.98703(14)
H11 H -0.0820 0.8639 0.9660
H12 H 0.0774 0.9183 1.0505
C9 C -0.2788(2) 0.74146(18) 0.35021(15)
Mn1_2 Mn 1.0000 0.0000 0.5000
Mn1_3 Mn 0.0000 1.0000 1.5000
S1A S 0.41579(6) 1.37637(5) 0.73162(4)
N1A N 0.70291(16) 0.29399(15) 0.52853(12)
N2A N 0.59241(17) 0.18045(15) 0.50646(13)
N3A N 0.82475(17) 0.13231(15) 0.50831(12)
N3A_2 N -0.17525(17) 1.13231(15) 0.50831(12)
N4A N -0.01580(17) 1.08514(15) 1.19883(12)
N5A N 0.12856(18) 1.16036(17) 1.24332(13)
N6A N 0.03938(17) 1.05145(15) 1.35209(12)
N6A_2 N 0.03938(17) 1.05145(15) 0.35209(12)
N7A N 0.18203(18) 1.17186(16) 0.59320(14)
C1A C 0.6715(2) 0.08675(19) 0.49485(15)
H1A H 0.6249 -0.0055 0.4784
C2A C 0.8395(2) 0.26379(18) 0.52988(14)
H2A H 0.9338 0.3270 0.5442
C3A C 0.6663(2) 0.42630(18) 0.55504(15)
H3A H 0.6534 0.4483 0.6277
H4A H 0.7533 0.4940 0.5512
C4A C 0.5219(2) 0.43332(18) 0.48322(15)
H5A H 0.5379 0.4191 0.4114
H6A H 0.4366 0.3608 0.4825
C5A C 0.1555(2) 1.13577(19) 1.33464(15)
H7A H 0.2496 1.1744 1.3847
C6A C -0.0660(2) 1.02224(19) 1.26436(14)
H8A H -0.1639 0.9643 1.2502
C7A C -0.1021(2) 1.0935(2) 1.09931(15)
H9A H -0.2008 1.0269 1.0782
H10A H -0.1251 1.1831 1.1091
C8A C -0.0163(2) 1.06895(18) 1.01297(14)
H11A H 0.0820 1.1361 1.0340
H12A H -0.0774 1.0817 0.9495
C9A C 0.2788(2) 1.25854(18) 0.64979(15)
Mn2 Mn 1.0000 0.5000 1.0000
S2 S 1.10509(6) 0.60221(5) 0.67582(4)
N8 N 0.62702(17) 0.68085(15) 0.89527(12)
N9 N 0.6036(2) 0.69440(18) 0.99303(13)
N10 N 0.79992(17) 0.59530(15) 0.97152(12)
N11 N 0.63776(17) 1.15259(15) 0.81987(12)
N12 N 0.73206(19) 1.13366(16) 0.75265(13)
N13 N 0.84419(17) 1.30945(15) 0.89245(12)
N14 N 1.07287(19) 0.54225(17) 0.86171(14)
C10 C 0.7098(2) 0.6407(2) 1.03526(16)
H13 H 0.7222 0.6344 1.1048
C11 C 0.7426(2) 0.62222(17) 0.88378(15)
H14 H 0.7793 0.6022 0.8217
C12 C 0.8536(2) 1.23041(19) 0.79982(15)
H15 H 0.9414 1.2440 0.7713
C13 C 0.7050(2) 1.25684(18) 0.90086(15)
H16 H 0.6601 1.2895 0.9572
C14 C 0.5335(2) 0.72879(18) 0.81963(15)
H17 H 0.4247 0.6831 0.8079
H18 H 0.5648 0.7056 0.7524
C15 C 0.5485(2) 0.87827(18) 0.85535(15)
H19 H 0.6582 0.9242 0.8787
H20 H 0.4993 0.9007 0.9149
C16 C 0.4718(2) 0.92494(18) 0.76578(15)
H21 H 0.5205 0.8999 0.7064
H22 H 0.3626 0.8774 0.7429
C17 C 0.4808(2) 1.07438(18) 0.79268(17)
H23 H 0.4224 1.0956 0.7323
H24 H 0.4321 1.1000 0.8520
C18 C 1.0863(2) 0.56514(18) 0.78345(15)
Mn2_2 Mn 1.0000 1.5000 1.0000
Mn2_3 Mn 1.0000 -0.5000 1.0000
S2A S 0.89491(6) 0.39779(5) 1.32418(4)
N8_2 N 0.62702(17) -0.31915(15) 0.89527(12)
N9_2 N 0.6036(2) -0.30560(18) 0.99303(13)
N10_2 N 0.79992(17) -0.40470(15) 0.97152(12)
N10A N 1.20008(17) 0.40470(15) 1.02848(12)
N11_2 N 0.63776(17) 0.15259(15) 0.81987(12)
N12_2 N 0.73206(19) 0.13366(16) 0.75265(13)
N13_2 N 0.84419(17) 0.30945(15) 0.89245(12)
N13A N 1.15581(17) 0.69055(15) 1.10755(12)
N14A N 0.92713(19) 0.45775(17) 1.13829(14)
C10_2 C 0.7098(2) -0.3593(2) 1.03526(16)
H13_2 H 0.7222 -0.3656 1.1048
C11_2 C 0.7426(2) -0.37778(17) 0.88378(15)
H14_2 H 0.7793 -0.3978 0.8217
C12_2 C 0.8536(2) 0.23041(19) 0.79982(15)
H15_2 H 0.9414 0.2440 0.7713
C13_2 C 0.7050(2) 0.25684(18) 0.90086(15)
H16_2 H 0.6601 0.2895 0.9572
C14_2 C 0.5335(2) -0.27121(18) 0.81963(15)
H17_2 H 0.4247 -0.3169 0.8079
H18_2 H 0.5648 -0.2944 0.7524
C15_2 C 0.5485(2) -0.12173(18) 0.85535(15)
H19_2 H 0.6582 -0.0758 0.8787
H20_2 H 0.4993 -0.0993 0.9149
C16_2 C 0.4718(2) -0.07506(18) 0.76578(15)
H21_2 H 0.5205 -0.1001 0.7064
H22_2 H 0.3626 -0.1226 0.7429
C17_2 C 0.4808(2) 0.07438(18) 0.79268(17)
H23_2 H 0.4224 0.0956 0.7323
H24_2 H 0.4321 0.1000 0.8520
C18A C 0.9137(2) 0.43486(18) 1.21655(15)
loop_
_geom_bond_atom_site_label_1
_geom_bond_atom_site_label_2
_geom_bond_site_symmetry_1
_geom_bond_site_symmetry_2
Mn1 N3 1_555 1_555
Mn2 N10 1_555 1_555
S1 C9 1_555 1_555
S2 C18 1_555 1_555
N1 N2 1_555 1_555
N2 C1 1_555 1_555
N3 C1 1_555 1_555
N4 N5 1_555 1_555
N5 C5 1_555 1_555
N6 Mn1 1_555 1_555
N7 Mn1 1_555 1_555
N8 N9 1_555 1_555
N9 C10 1_555 1_555
N10 C10 1_555 1_555
N11 N12 1_555 1_555
N12 C12 1_555 1_555
N13 C12 1_555 1_555
N14 Mn2 1_555 1_555
C1 H1 1_555 1_555
C2 N1 1_555 1_555
H2 C2 1_555 1_555
C3 N1 1_555 1_555
H3 C3 1_555 1_555
H4 C3 1_555 1_555
C4 C3 1_555 1_555
H5 C4 1_555 1_555
H6 C4 1_555 1_555
C5 N6 1_555 1_555
H7 C5 1_555 1_555
C6 N4 1_555 1_555
H8 C6 1_555 1_555
C7 N4 1_555 1_555
H9 C7 1_555 1_555
H10 C7 1_555 1_555
C8 C7 1_555 1_555
H11 C8 1_555 1_555
H12 C8 1_555 1_555
C9 N7 1_555 1_555
C10 H13 1_555 1_555
C11 N8 1_555 1_555
H14 C11 1_555 1_555
C12 H15 1_555 1_555
C13 N11 1_555 1_555
H16 C13 1_555 1_555
C14 N8 1_555 1_555
H17 C14 1_555 1_555
H18 C14 1_555 1_555
C15 C14 1_555 1_555
H19 C15 1_555 1_555
H20 C15 1_555 1_555
C16 C15 1_555 1_555
H21 C16 1_555 1_555
H22 C16 1_555 1_555
C17 N11 1_555 1_555
H23 C17 1_555 1_555
H24 C17 1_555 1_555
C18 N14 1_555 1_555
Mn1_2 N3A 1_555 1_555
Mn1_3 N6A 1_555 1_555
Mn2_2 N13 1_555 1_555
Mn2_3 N10_2 1_555 1_555
S1A C9A 1_555 1_555
S2A C18A 1_555 1_555
N1A N2A 1_555 1_555
N2A C1A 1_555 1_555
N3A C1A 1_555 1_555
N3A_2 Mn1 1_555 1_555
N4A N5A 1_555 1_555
N5A C5A 1_555 1_555
N6A C5A 1_555 1_555
N6A_2 Mn1 1_555 1_555
N7A Mn1 1_555 1_555
N8_2 N9_2 1_555 1_555
N9_2 C10_2 1_555 1_555
N10_2 C10_2 1_555 1_555
N10A Mn2 1_555 1_555
N11_2 N12_2 1_555 1_555
N12_2 C12_2 1_555 1_555
N13_2 Mn2 1_555 1_555
N13A Mn2 1_555 1_555
N14A Mn2 1_555 1_555
C1A H1A 1_555 1_555
C2A N1A 1_555 1_555
H2A C2A 1_555 1_555
C3A N1A 1_555 1_555
H3A C3A 1_555 1_555
H4A C3A 1_555 1_555
C4A C4 1_555 1_555
H5A C4A 1_555 1_555
H6A C4A 1_555 1_555
C5A H7A 1_555 1_555
C6A N4A 1_555 1_555
H8A C6A 1_555 1_555
C7A N4A 1_555 1_555
H9A C7A 1_555 1_555
H10A C7A 1_555 1_555
C8A C8 1_555 1_555
H11A C8A 1_555 1_555
H12A C8A 1_555 1_555
C9A N7A 1_555 1_555
C10_2 H13_2 1_555 1_555
C11_2 N8_2 1_555 1_555
H14_2 C11_2 1_555 1_555
C12_2 N13_2 1_555 1_555
H15_2 C12_2 1_555 1_555
C13_2 N11_2 1_555 1_555
H16_2 C13_2 1_555 1_555
C14_2 N8_2 1_555 1_555
H17_2 C14_2 1_555 1_555
H18_2 C14_2 1_555 1_555
C15_2 C14_2 1_555 1_555
H19_2 C15_2 1_555 1_555
H20_2 C15_2 1_555 1_555
C16_2 C15_2 1_555 1_555
H21_2 C16_2 1_555 1_555
H22_2 C16_2 1_555 1_555
C17_2 N11_2 1_555 1_555
H23_2 C17_2 1_555 1_555
H24_2 C17_2 1_555 1_555
C18A N14A 1_555 1_555
N3 C2 1_555 1_555
N6 C6 1_555 1_555
N10 C11 1_555 1_555
N13 C13 1_555 1_555
C16 C17 1_555 1_555
N3A C2A 1_555 1_555
N6A C6A 1_555 1_555
N10_2 C11_2 1_555 1_555
N13_2 C13_2 1_555 1_555
C3A C4A 1_555 1_555
C7A C8A 1_555 1_555
C16_2 C17_2 1_555 1_555

#END
