
#######################################################################
#
#                 Cambridge Crystallographic Data Centre
#                                CCDC 
#
#######################################################################
#
# If this CIF has been generated from an entry in the Cambridge 
# Structural Database, then it will include bibliographic, chemical, 
# crystal, experimental, refinement or atomic coordinate data resulting 
# from the CCDC's data processing and validation procedures.
#
#######################################################################

data_NUCFIB
_symmetry_cell_setting           monoclinic
_symmetry_space_group_name_H-M   'C 2/c'
_symmetry_Int_Tables_number      15
_space_group_name_Hall           '-C 2yn'
loop_
_symmetry_equiv_pos_site_id
_symmetry_equiv_pos_as_xyz
1 x,y,z
2 -x,y,1/2-z
3 1/2+x,1/2+y,z
4 1/2-x,1/2+y,1/2-z
5 -x,-y,-z
6 x,-y,1/2+z
7 1/2-x,1/2-y,-z
8 1/2+x,1/2-y,1/2+z
_cell_length_a                   10.7340(11)
_cell_length_b                   14.3446(11)
_cell_length_c                   13.7280(12)
_cell_angle_alpha                90
_cell_angle_beta                 104.839(2)
_cell_angle_gamma                90
_cell_volume                     2043.27
loop_
_atom_site_label
_atom_site_type_symbol
_atom_site_fract_x
_atom_site_fract_y
_atom_site_fract_z
Zn1 Zn 0.5000 0.13155(2) 0.2500
Cl1 Cl 0.46947(5) 0.05237(4) 0.10664(4)
N1 N 0.34930(16) 0.21876(11) 0.23888(12)
N2 N 0.24671(19) 0.38572(14) 0.40482(14)
H1 H 0.1864 0.4267 0.3959
C1 C 0.2536(2) 0.33440(15) 0.32119(15)
C2 C 0.3464(2) 0.26713(14) 0.32149(15)
H2 H 0.4087 0.2553 0.3811
C3 C 0.3263(2) 0.37840(17) 0.50157(18)
O1 O 0.42052(19) 0.32935(16) 0.52239(13)
N3 N 0.28874(19) 0.43211(15) 0.56869(15)
H3 H 0.2202 0.4653 0.5491
C4 C 0.1654(2) 0.29983(18) 0.14725(17)
H4 H 0.1033 0.3095 0.0870
C5 C 0.2597(2) 0.23396(16) 0.15297(16)
H5 H 0.2613 0.1993 0.0960
C6 C 0.1634(2) 0.35090(16) 0.23024(17)
H6 H 0.1015 0.3971 0.2262
C7 C 0.3615(2) 0.43563(19) 0.67429(18)
H7 H 0.4032 0.3760 0.6932
H8 H 0.3023 0.4461 0.7161
C8 C 0.4611(2) 0.51076(17) 0.69402(18)
H9 H 0.4195 0.5708 0.6773
H10 H 0.5193 0.5014 0.6513
Zn1_2 Zn 0.5000 0.13155(2) 1.2500
Cl1A Cl 0.53053(5) 0.05237(4) 0.39336(4)
N1A N 0.65070(16) 0.21876(11) 1.26112(12)
N1A_2 N 0.65070(16) 0.21876(11) 0.26112(12)
N2A N 0.75329(19) 0.38572(14) 1.09518(14)
H1A H 0.8136 0.4267 1.1041
C1A C 0.7464(2) 0.33440(15) 1.17881(15)
C2A C 0.6536(2) 0.26713(14) 1.17851(15)
H2A H 0.5913 0.2553 1.1189
C3A C 0.6737(2) 0.37840(17) 0.99843(18)
O1A O 0.57948(19) 0.32935(16) 0.97761(13)
N3A N 0.71126(19) 0.43211(15) 0.93131(15)
H3A H 0.7798 0.4653 0.9509
C4A C 0.8346(2) 0.29983(18) 1.35275(17)
H4A H 0.8967 0.3095 1.4130
C5A C 0.7403(2) 0.23396(16) 1.34703(16)
H5A H 0.7387 0.1993 1.4040
C6A C 0.8366(2) 0.35090(16) 1.26976(17)
H6A H 0.8985 0.3971 1.2738
C7A C 0.6385(2) 0.43563(19) 0.82571(18)
H7A H 0.5968 0.3760 0.8068
H8A H 0.6977 0.4461 0.7839
C8A C 0.5389(2) 0.51076(17) 0.80598(18)
H9A H 0.5805 0.5708 0.8227
H10A H 0.4807 0.5014 0.8487
loop_
_geom_bond_atom_site_label_1
_geom_bond_atom_site_label_2
_geom_bond_site_symmetry_1
_geom_bond_site_symmetry_2
Zn1 Cl1 1_555 1_555
N1 Zn1 1_555 1_555
N2 H1 1_555 1_555
C1 N2 1_555 1_555
C2 N1 1_555 1_555
H2 C2 1_555 1_555
C3 N2 1_555 1_555
O1 C3 1_555 1_555
N3 C3 1_555 1_555
H3 N3 1_555 1_555
C4 H4 1_555 1_555
C5 N1 1_555 1_555
H5 C5 1_555 1_555
C6 C1 1_555 1_555
H6 C6 1_555 1_555
C7 N3 1_555 1_555
H7 C7 1_555 1_555
H8 C7 1_555 1_555
C8 C7 1_555 1_555
H9 C8 1_555 1_555
H10 C8 1_555 1_555
Zn1_2 N1A 1_555 1_555
Cl1A Zn1 1_555 1_555
N1A C2A 1_555 1_555
N1A_2 Zn1 1_555 1_555
N2A H1A 1_555 1_555
C1A N2A 1_555 1_555
C2A C1A 1_555 1_555
H2A C2A 1_555 1_555
C3A N2A 1_555 1_555
O1A C3A 1_555 1_555
N3A C3A 1_555 1_555
H3A N3A 1_555 1_555
C4A H4A 1_555 1_555
C5A N1A 1_555 1_555
H5A C5A 1_555 1_555
C6A C1A 1_555 1_555
H6A C6A 1_555 1_555
C7A N3A 1_555 1_555
H7A C7A 1_555 1_555
H8A C7A 1_555 1_555
C8A C8 1_555 1_555
H9A C8A 1_555 1_555
H10A C8A 1_555 1_555
C1 C2 1_555 1_555
C4 C5 1_555 1_555
C4 C6 1_555 1_555
C4A C5A 1_555 1_555
C4A C6A 1_555 1_555
C7A C8A 1_555 1_555

#END
