
#######################################################################
#
#                 Cambridge Crystallographic Data Centre
#                                CCDC 
#
#######################################################################
#
# If this CIF has been generated from an entry in the Cambridge 
# Structural Database, then it will include bibliographic, chemical, 
# crystal, experimental, refinement or atomic coordinate data resulting 
# from the CCDC's data processing and validation procedures.
#
#######################################################################

data_NUCGOI
_symmetry_cell_setting           monoclinic
_symmetry_space_group_name_H-M   'P 21/c'
_symmetry_Int_Tables_number      14
_space_group_name_Hall           '-P 2ybc'
loop_
_symmetry_equiv_pos_site_id
_symmetry_equiv_pos_as_xyz
1 x,y,z
2 -x,1/2+y,1/2-z
3 -x,-y,-z
4 x,1/2-y,1/2+z
_cell_length_a                   14.3062(13)
_cell_length_b                   7.3389(7)
_cell_length_c                   14.9630(14)
_cell_angle_alpha                90
_cell_angle_beta                 102.636(7)
_cell_angle_gamma                90
_cell_volume                     1532.94
loop_
_atom_site_label
_atom_site_type_symbol
_atom_site_fract_x
_atom_site_fract_y
_atom_site_fract_z
Cu1 Cu 0.0000 0.0000 0.0000
N1 N 0.22030(11) 0.4414(2) -0.11000(10)
H1 H 0.1799(18) 0.436(3) -0.0719(17)
C1 C 0.24466(14) 0.2499(2) -0.13353(13)
H2 H 0.2953 0.2543 -0.1693
H3 H 0.1873 0.1925 -0.1723
C2 C 0.27909(13) 0.1346(3) -0.04851(13)
H4 H 0.3287 0.2044 -0.0055
H5 H 0.3103 0.0243 -0.0665
C3 C 0.20314(13) 0.0742(2) 0.00287(13)
O1 O 0.11645(9) 0.07315(18) -0.04208(9)
O2 O 0.23159(10) 0.0220(2) 0.08364(10)
O3 O -0.03517(10) 0.7085(2) -0.10227(10)
H6 H -0.079(2) 0.640(4) -0.0855(19)
C4 C 0.16840(13) 0.5453(3) -0.19373(12)
H7 H 0.1303 0.4596 -0.2384
H8 H 0.2156 0.6056 -0.2234
C5 C 0.10277(13) 0.6875(2) -0.16640(13)
H9 H 0.1392 0.7614 -0.1151
H10 H 0.0789 0.7701 -0.2188
C6 C 0.01916(13) 0.5980(2) -0.13774(12)
O4 O 0.00477(10) 0.43493(19) -0.14787(10)
O5 O 0.24607(10) 0.5808(2) 0.16788(10)
C7 C 0.30376(13) 0.5458(3) -0.05829(12)
C8 C 0.37566(13) 0.5945(3) -0.10297(13)
H11 H 0.3725 0.5561 -0.1642
C9 C 0.45216(14) 0.6997(3) -0.05749(14)
H12 H 0.5013 0.7339 -0.0878
C10 C 0.45708(14) 0.7552(3) 0.03222(14)
H13 H 0.5088 0.8290 0.0629
C11 C 0.38593(13) 0.7023(3) 0.07666(13)
H14 H 0.3904 0.7383 0.1384
C12 C 0.30790(13) 0.5972(2) 0.03274(13)
C13 C 0.23253(13) 0.5454(3) 0.08565(13)
O6 O 0.15771(10) 0.4655(2) 0.03866(10)
O7 O -0.07285(10) 0.1284(2) -0.10470(10)
H15 H -0.135(2) 0.107(4) -0.1082(19)
H16 H -0.059(2) 0.242(4) -0.1077(19)
Cu1_2 Cu 0.0000 1.0000 0.0000
Cu1_3 Cu 0.0000 -1.0000 0.0000
N1B N -0.22030(11) -0.4414(2) 0.11000(10)
H1B H -0.1799(18) -0.436(3) 0.0719(17)
C1B C -0.24466(14) -0.2499(2) 0.13353(13)
H2B H -0.2953 -0.2543 0.1693
H3B H -0.1873 -0.1925 0.1723
C2B C -0.27909(13) -0.1346(3) 0.04851(13)
H4B H -0.3287 -0.2044 0.0055
H5B H -0.3103 -0.0243 0.0665
C3B C -0.20314(13) -0.0742(2) -0.00287(13)
O1B O -0.11645(9) -0.07315(18) 0.04208(9)
O2B O -0.23159(10) -0.0220(2) -0.08364(10)
O3B O 0.03517(10) -0.7085(2) 0.10227(10)
O3_2 O -0.03517(10) -0.2915(2) -0.10227(10)
O3B_2 O 0.03517(10) 0.2915(2) 0.10227(10)
H6B H 0.079(2) -0.640(4) 0.0855(19)
H6_2 H -0.079(2) -0.360(4) -0.0855(19)
H6B_2 H 0.079(2) 0.360(4) 0.0855(19)
C4B C -0.16840(13) -0.5453(3) 0.19373(12)
H7B H -0.1303 -0.4596 0.2384
H8B H -0.2156 -0.6056 0.2234
C5B C -0.10277(13) -0.6875(2) 0.16640(13)
H9B H -0.1392 -0.7614 0.1151
H10B H -0.0789 -0.7701 0.2188
C6B C -0.01916(13) -0.5980(2) 0.13774(12)
O4B O -0.00477(10) -0.43493(19) 0.14787(10)
O5B O -0.24607(10) -0.5808(2) -0.16788(10)
C7B C -0.30376(13) -0.5458(3) 0.05829(12)
C8B C -0.37566(13) -0.5945(3) 0.10297(13)
H11B H -0.3725 -0.5561 0.1642
C9B C -0.45216(14) -0.6997(3) 0.05749(14)
H12B H -0.5013 -0.7339 0.0878
C10B C -0.45708(14) -0.7552(3) -0.03222(14)
H13B H -0.5088 -0.8290 -0.0629
C11B C -0.38593(13) -0.7023(3) -0.07666(13)
H14B H -0.3904 -0.7383 -0.1384
C12B C -0.30790(13) -0.5972(2) -0.03274(13)
C13B C -0.23253(13) -0.5454(3) -0.08565(13)
O6B O -0.15771(10) -0.4655(2) -0.03866(10)
O7B O 0.07285(10) -0.1284(2) 0.10470(10)
H15B H 0.135(2) -0.107(4) 0.1082(19)
H16B H 0.059(2) -0.242(4) 0.1077(19)
O8 O 0.41262(12) 0.4387(2) 0.27847(11)
H17 H 0.461(3) 0.499(4) 0.278(2)
H18 H 0.371(3) 0.509(4) 0.245(3)
O9 O 0.40790(11) 0.0978(2) 0.20044(11)
H19 H 0.357(3) 0.078(5) 0.163(2)
H20 H 0.405(2) 0.204(5) 0.218(2)
loop_
_geom_bond_atom_site_label_1
_geom_bond_atom_site_label_2
_geom_bond_site_symmetry_1
_geom_bond_site_symmetry_2
Cu1 O1 1_555 1_555
N1 H1 1_555 1_555
C1 N1 1_555 1_555
H2 C1 1_555 1_555
H3 C1 1_555 1_555
C2 C1 1_555 1_555
H4 C2 1_555 1_555
H5 C2 1_555 1_555
C3 C2 1_555 1_555
O1 C3 1_555 1_555
O2 C3 1_555 1_555
O3 H6 1_555 1_555
C4 N1 1_555 1_555
H7 C4 1_555 1_555
H8 C4 1_555 1_555
C5 C4 1_555 1_555
H9 C5 1_555 1_555
H10 C5 1_555 1_555
C6 O3 1_555 1_555
O4 C6 1_555 1_555
O5 C13 1_555 1_555
C7 N1 1_555 1_555
C8 C7 1_555 1_555
H11 C8 1_555 1_555
C9 C8 1_555 1_555
H12 C9 1_555 1_555
C10 C9 1_555 1_555
H13 C10 1_555 1_555
C11 C10 1_555 1_555
H14 C11 1_555 1_555
C12 C7 1_555 1_555
C13 C12 1_555 1_555
O6 C13 1_555 1_555
O7 Cu1 1_555 1_555
H15 O7 1_555 1_555
H16 O7 1_555 1_555
O8 H17 1_555 1_555
H18 O8 1_555 1_555
O9 H19 1_555 1_555
H20 O9 1_555 1_555
Cu1_2 O3 1_555 1_555
Cu1_3 O3B 1_555 1_555
N1B H1B 1_555 1_555
C1B N1B 1_555 1_555
H2B C1B 1_555 1_555
H3B C1B 1_555 1_555
C2B C1B 1_555 1_555
H4B C2B 1_555 1_555
H5B C2B 1_555 1_555
C3B C2B 1_555 1_555
O1B Cu1 1_555 1_555
O2B C3B 1_555 1_555
O3B H6B 1_555 1_555
O3_2 Cu1 1_555 1_555
O3B_2 Cu1 1_555 1_555
H6_2 O3_2 1_555 1_555
H6B_2 O3B_2 1_555 1_555
C4B N1B 1_555 1_555
H7B C4B 1_555 1_555
H8B C4B 1_555 1_555
C5B C4B 1_555 1_555
H9B C5B 1_555 1_555
H10B C5B 1_555 1_555
C6B O3B 1_555 1_555
O4B C6B 1_555 1_555
O5B C13B 1_555 1_555
C7B N1B 1_555 1_555
C8B C7B 1_555 1_555
H11B C8B 1_555 1_555
C9B C8B 1_555 1_555
H12B C9B 1_555 1_555
C10B C9B 1_555 1_555
H13B C10B 1_555 1_555
C11B C10B 1_555 1_555
H14B C11B 1_555 1_555
C12B C7B 1_555 1_555
C13B C12B 1_555 1_555
O6B C13B 1_555 1_555
O7B Cu1 1_555 1_555
H15B O7B 1_555 1_555
H16B O7B 1_555 1_555
C5 C6 1_555 1_555
C11 C12 1_555 1_555
C3B O1B 1_555 1_555
C5B C6B 1_555 1_555
C11B C12B 1_555 1_555

#END
