
#######################################################################
#
#                 Cambridge Crystallographic Data Centre
#                                CCDC 
#
#######################################################################
#
# If this CIF has been generated from an entry in the Cambridge 
# Structural Database, then it will include bibliographic, chemical, 
# crystal, experimental, refinement or atomic coordinate data resulting 
# from the CCDC's data processing and validation procedures.
#
#######################################################################

data_NUCJIF
_symmetry_cell_setting           monoclinic
_symmetry_space_group_name_H-M   'P 21/n'
_symmetry_Int_Tables_number      14
_space_group_name_Hall           '-P 2yn'
loop_
_symmetry_equiv_pos_site_id
_symmetry_equiv_pos_as_xyz
1 x,y,z
2 1/2-x,1/2+y,1/2-z
3 -x,-y,-z
4 1/2+x,1/2-y,1/2+z
_cell_length_a                   8.4438(3)
_cell_length_b                   10.0791(4)
_cell_length_c                   19.4100(6)
_cell_angle_alpha                90
_cell_angle_beta                 92.264(1)
_cell_angle_gamma                90
_cell_volume                     1650.62
loop_
_atom_site_label
_atom_site_type_symbol
_atom_site_fract_x
_atom_site_fract_y
_atom_site_fract_z
Ag1 Ag 0.41431(5) 0.72622(3) 0.129132(17)
Cu1 Cu 0.62767(6) 0.53583(5) 0.27100(2)
Cu2 Cu 0.31772(6) 0.45460(5) 0.03570(2)
O1 O 0.1842(4) 0.3614(3) -0.03517(14)
O2 O 0.1489(4) 0.6095(4) 0.1160(2)
H1 H 0.115(8) 0.565(5) 0.151(3)
H2 H 0.097(8) 0.682(4) 0.125(3)
O3 O 0.0453(4) 0.1754(3) -0.05234(16)
O4 O 0.7858(4) 0.6318(3) 0.19246(16)
H3 H 0.792(7) 0.7144(19) 0.192(2)
H4 H 0.809(7) 0.605(4) 0.1534(15)
O5 O 0.5352(4) 0.3893(3) 0.22201(13)
O6 O 0.4619(3) 0.4874(3) 0.12244(13)
O7 O 0.2488(4) -0.0656(3) 0.17648(14)
H5 H 0.3062 -0.0703 0.2115
O8 O 0.5637(4) 0.8959(3) 0.08539(14)
O9 O 0.7196(4) 0.9104(3) 0.18103(13)
O10 O 1.0726(3) 1.3989(3) 0.20690(13)
O11 O 1.0226(3) 1.1956(3) 0.24607(13)
O12 O 0.6378(3) 1.3754(3) -0.00249(13)
N1 N 0.2997(4) 0.2892(3) 0.08075(16)
N2 N 0.8179(4) 1.1423(3) 0.15190(16)
C1 C 0.2103(5) 0.1945(4) 0.05051(19)
C2 C 0.1915(5) 0.0726(4) 0.0817(2)
H6 H 0.1297 0.0063 0.0608
C3 C 0.2691(5) 0.0527(4) 0.1460(2)
C4 C 0.3613(5) 0.1523(4) 0.17682(19)
H7 H 0.4130 0.1396 0.2195
C5 C 0.3732(5) 0.2698(4) 0.14199(19)
C6 C 0.1388(5) 0.2435(4) -0.0180(2)
C7 C 0.4644(5) 0.3916(4) 0.16431(18)
C8 C 0.7118(5) 1.0937(4) 0.10557(19)
C9 C 0.6555(5) 1.1683(4) 0.05066(18)
H8 H 0.5843 1.1324 0.0180
C10 C 0.7080(5) 1.3005(4) 0.04486(18)
C11 C 0.8285(5) 1.3460(4) 0.09233(19)
H9 H 0.8727 1.4299 0.0876
C12 C 0.8787(5) 1.2634(4) 0.14545(19)
C13 C 0.6592(5) 0.9550(4) 0.12420(19)
C14 C 1.0016(5) 1.2916(4) 0.20370(19)
Ag1A Ag 1.08569(5) 1.22622(3) 0.370868(17)
Cu1A Cu 0.87233(6) 1.03583(5) 0.22900(2)
Cu2B Cu 0.68228(6) 1.54540(5) -0.03570(2)
O9A O 0.7804(4) 0.4104(3) 0.31897(13)
O11A O 0.4774(3) 0.6956(3) 0.25393(13)
O12B O 0.3622(3) 0.6246(3) 0.00249(13)
N2A N 0.6821(4) 0.6423(3) 0.34810(16)
loop_
_geom_bond_atom_site_label_1
_geom_bond_atom_site_label_2
_geom_bond_site_symmetry_1
_geom_bond_site_symmetry_2
Ag1 O2 1_555 1_555
Cu1 O4 1_555 1_555
Cu2 O1 1_555 1_555
O1 C6 1_555 1_555
O2 H1 1_555 1_555
H2 O2 1_555 1_555
O3 C6 1_555 1_555
O4 H3 1_555 1_555
H4 O4 1_555 1_555
O5 Cu1 1_555 1_555
O6 Ag1 1_555 1_555
O7 H5 1_555 1_555
O8 Ag1 1_555 1_555
O9 C13 1_555 1_555
O10 C14 1_555 1_555
O11 C14 1_555 1_555
O12 C10 1_555 1_555
N1 Cu2 1_555 1_555
N2 C8 1_555 1_555
C1 N1 1_555 1_555
C2 C1 1_555 1_555
H6 C2 1_555 1_555
C3 O7 1_555 1_555
C4 C3 1_555 1_555
H7 C4 1_555 1_555
C5 N1 1_555 1_555
C6 C1 1_555 1_555
C7 O5 1_555 1_555
C8 C9 1_555 1_555
C9 H8 1_555 1_555
C10 C9 1_555 1_555
C11 C10 1_555 1_555
H9 C11 1_555 1_555
C12 N2 1_555 1_555
C13 O8 1_555 1_555
C14 C12 1_555 1_555
Ag1A O11 1_555 1_555
Cu1A O9 1_555 1_555
Cu2B O12 1_555 1_555
O9A Cu1 1_555 1_555
O11A Ag1 1_555 1_555
O12B Cu2 1_555 1_555
N2A Cu1 1_555 1_555
Cu1 O11A 1_555 1_555
Cu2 O6 1_555 1_555
O6 C7 1_555 1_555
O11 Cu1A 1_555 1_555
N2 Cu1A 1_555 1_555
C2 C3 1_555 1_555
C4 C5 1_555 1_555
C5 C7 1_555 1_555
C8 C13 1_555 1_555
C11 C12 1_555 1_555

#END
