
#######################################################################
#
#                 Cambridge Crystallographic Data Centre
#                                CCDC 
#
#######################################################################
#
# If this CIF has been generated from an entry in the Cambridge 
# Structural Database, then it will include bibliographic, chemical, 
# crystal, experimental, refinement or atomic coordinate data resulting 
# from the CCDC's data processing and validation procedures.
#
#######################################################################

data_NUCWAL
_symmetry_cell_setting           monoclinic
_symmetry_space_group_name_H-M   'P 21/n'
_symmetry_Int_Tables_number      14
_space_group_name_Hall           '-P 2yn'
loop_
_symmetry_equiv_pos_site_id
_symmetry_equiv_pos_as_xyz
1 x,y,z
2 1/2-x,1/2+y,1/2-z
3 -x,-y,-z
4 1/2+x,1/2-y,1/2+z
_cell_length_a                   18.2080(5)
_cell_length_b                   10.3193(2)
_cell_length_c                   27.3873(8)
_cell_angle_alpha                90
_cell_angle_beta                 98.580(2)
_cell_angle_gamma                90
_cell_volume                     5088.31
loop_
_atom_site_label
_atom_site_type_symbol
_atom_site_fract_x
_atom_site_fract_y
_atom_site_fract_z
C1 C 0.6575(3) 0.1856(4) 0.17367(17)
H1 H 0.6444 0.1078 0.1903
H2 H 0.6118 0.2277 0.1592
C2 C 0.7008(3) 0.1475(4) 0.13264(17)
H3 H 0.749 0.1148 0.1474
H4 H 0.7092 0.2245 0.1139
C3 C 0.6633(3) 0.0460(4) 0.09724(17)
H5 H 0.6487 -0.0264 0.1162
H6 H 0.6184 0.083 0.0789
C4 C 0.7113(4) -0.0034(6) 0.0613(2)
H7 H 0.6843 -0.0668 0.0401
H8 H 0.7552 -0.0423 0.0791
H9 H 0.725 0.0674 0.0418
C5 C 0.8301(2) 0.3564(4) 0.22123(17)
H10 H 0.8493 0.4101 0.2493
H11 H 0.8576 0.2757 0.2247
C6 C 0.8476(3) 0.4222(6) 0.1762(2)
H12 H 0.8138 0.4947 0.1689
H13 H 0.8381 0.3621 0.1488
C7 C 0.9262(3) 0.4721(6) 0.1789(3)
H14 H 0.939 0.516 0.2103
H15 H 0.9588 0.3975 0.1793
C8 C 0.9431(4) 0.5567(7) 0.1417(3)
H16 H 0.9948 0.5792 0.1481
H17 H 0.9135 0.6337 0.1416
H18 H 0.9324 0.5146 0.1102
C9 C 0.6706(3) 0.3596(5) 0.29183(16)
H19 H 0.6581 0.279 0.3069
H20 H 0.7089 0.4014 0.3149
C10 C 0.6034(2) 0.4443(4) 0.28601(17)
H21 H 0.5648 0.4031 0.2629
H22 H 0.6156 0.5257 0.2715
C11 C 0.5727(3) 0.4731(6) 0.3328(2)
H23 H 0.5555 0.3926 0.3455
H24 H 0.6126 0.5059 0.3571
C12 C 0.5103(3) 0.5684(6) 0.3276(2)
H25 H 0.4945 0.5818 0.3591
H26 H 0.4695 0.5356 0.3046
H27 H 0.5267 0.6492 0.3156
C13 C 0.6932(2) 0.5916(3) 0.19311(14)
C14 C 0.6688(2) 0.6943(4) 0.15510(16)
H28 H 0.7105 0.7162 0.1384
H29 H 0.6554 0.7716 0.1719
C15 C 0.6039(3) 0.6559(4) 0.11677(17)
H30 H 0.5643 0.6228 0.1334
H31 H 0.5853 0.7323 0.0983
C16 C 0.6236(3) 0.5547(4) 0.08123(16)
C17 C 0.5630(3) 0.3679(5) 0.03044(17)
C18 C 0.4985(3) 0.2923(5) 0.02742(18)
C19 C 0.4905(4) 0.1864(5) -0.0045(2)
H32 H 0.4485 0.1341 -0.0072
C20 C 0.5475(4) 0.1606(6) -0.0324(2)
H33 H 0.5429 0.0888 -0.0532
C21 C 0.6085(4) 0.2357(6) -0.0304(2)
H34 H 0.6444 0.2172 -0.0503
C22 C 0.6175(4) 0.3432(6) 0.0023(2)
H35 H 0.6593 0.3957 0.0045
C23 C 0.3752(4) 0.2702(7) 0.0468(2)
H36 H 0.3455 0.3042 0.0699
H37 H 0.3799 0.1781 0.0509
H38 H 0.3518 0.2893 0.0138
N1 N 0.5667(2) 0.4724(4) 0.06456(14)
H39 H 0.5264 0.486 0.0767
O1 O 0.67019(15) 0.4765(2) 0.18248(10)
O2 O 0.73498(15) 0.6187(2) 0.23205(10)
O3 O 0.6835(2) 0.5486(4) 0.06772(14)
O4 O 0.4476(2) 0.3288(4) 0.05527(15)
Sn1 Sn 0.717479(13) 0.31261(2) 0.226963(9)
O2A O 0.76502(15) 0.1187(2) 0.26795(10)
Sn1A Sn 0.782521(13) 0.81261(2) 0.273037(9)
C24 C 0.3286(2) 0.6256(4) 0.21447(17)
H40 H 0.3585 0.7027 0.2222
H41 H 0.3487 0.5585 0.2375
C25 C 0.3372(3) 0.5817(5) 0.1624(2)
H42 H 0.3046 0.5082 0.1537
H43 H 0.3205 0.6512 0.1396
C26 C 0.4154(3) 0.5436(5) 0.1552(3)
H44 H 0.4174 0.5408 0.12
H45 H 0.4491 0.6112 0.1692
C27 C 0.4419(4) 0.4228(7) 0.1761(3)
H46 H 0.4921 0.4096 0.1704
H47 H 0.4111 0.3539 0.161
H48 H 0.4403 0.4237 0.211
C28 C 0.1539(3) 0.7952(4) 0.17582(18)
H49 H 0.1068 0.7542 0.1634
H50 H 0.1432 0.8734 0.1932
C29 C 0.1931(3) 0.8325(4) 0.13201(17)
H51 H 0.2435 0.8591 0.1446
H52 H 0.1961 0.7564 0.1116
C30 C 0.1558(3) 0.9398(5) 0.10005(18)
H53 H 0.1076 0.9098 0.0841
H54 H 0.1477 1.013 0.1208
C31 C 0.2006(4) 0.9836(7) 0.0610(2)
H55 H 0.1749 1.0523 0.042
H56 H 0.2073 0.9121 0.0397
H57 H 0.2482 1.0141 0.0765
C32 C 0.1758(2) 0.6111(4) 0.29254(16)
H58 H 0.2125 0.5558 0.3116
H59 H 0.1712 0.6885 0.312
C33 C 0.1021(2) 0.5410(4) 0.28585(16)
H60 H 0.1058 0.4653 0.2654
H61 H 0.0646 0.5976 0.2683
C34 C 0.0767(3) 0.4983(6) 0.33344(19)
H62 H 0.1156 0.4469 0.3523
H63 H 0.069 0.5744 0.3529
C35 C 0.0062(3) 0.4202(6) 0.3256(2)
H64 H -0.0072 0.3967 0.3571
H65 H 0.0137 0.3431 0.3074
H66 H -0.0329 0.4708 0.3075
C36 C 0.1908(2) 0.3871(3) 0.19456(14)
C37 C 0.1609(2) 0.2795(4) 0.16000(16)
H67 H 0.1394 0.2134 0.1788
H68 H 0.2018 0.2403 0.1464
C38 C 0.1024(3) 0.3235(4) 0.11765(17)
H69 H 0.0792 0.2479 0.1008
H70 H 0.0642 0.3721 0.1309
C39 C 0.1350(3) 0.4067(5) 0.08105(16)
C40 C 0.1033(3) 0.5889(5) 0.02314(19)
C41 C 0.0528(4) 0.6870(5) 0.0127(2)
C42 C 0.0593(4) 0.7809(7) -0.0244(2)
H71 H 0.0251 0.8477 -0.0315
C43 C 0.1183(5) 0.7672(8) -0.0487(3)
H72 H 0.1242 0.8278 -0.073
C44 C 0.1706(5) 0.6687(8) -0.0399(3)
H73 H 0.2098 0.6627 -0.058
C45 C 0.1623(4) 0.5801(7) -0.0035(2)
H74 H 0.1967 0.5136 0.0034
C46 C -0.0623(5) 0.7791(7) 0.0332(3)
H75 H -0.0961 0.7636 0.0563
H76 H -0.0882 0.771 0.0001
H77 H -0.0422 0.865 0.038
N2 N 0.0892(2) 0.5017(4) 0.06033(14)
H78 H 0.0473 0.5096 0.0709
O5 O 0.16942(15) 0.5016(2) 0.18262(10)
O6 O 0.23550(16) 0.3613(3) 0.23257(10)
O7 O 0.1965(2) 0.3852(4) 0.07094(15)
O8 O -0.0042(3) 0.6879(4) 0.04075(16)
Sn2 Sn 0.217552(13) 0.66718(2) 0.226609(9)
O6A O 0.26450(16) 0.8613(3) 0.26743(10)
Sn2A Sn 0.282448(13) 0.16718(2) 0.273391(9)
loop_
_geom_bond_atom_site_label_1
_geom_bond_atom_site_label_2
_geom_bond_site_symmetry_1
_geom_bond_site_symmetry_2
C1 H1 1_555 1_555
H2 C1 1_555 1_555
C2 C1 1_555 1_555
H3 C2 1_555 1_555
H4 C2 1_555 1_555
C3 C2 1_555 1_555
H5 C3 1_555 1_555
H6 C3 1_555 1_555
C4 C3 1_555 1_555
H7 C4 1_555 1_555
H8 C4 1_555 1_555
H9 C4 1_555 1_555
C5 H10 1_555 1_555
H11 C5 1_555 1_555
C6 C5 1_555 1_555
H12 C6 1_555 1_555
H13 C6 1_555 1_555
C7 C6 1_555 1_555
H14 C7 1_555 1_555
H15 C7 1_555 1_555
C8 C7 1_555 1_555
H16 C8 1_555 1_555
H17 C8 1_555 1_555
H18 C8 1_555 1_555
C9 H19 1_555 1_555
H20 C9 1_555 1_555
C10 C9 1_555 1_555
H21 C10 1_555 1_555
H22 C10 1_555 1_555
C11 C10 1_555 1_555
H23 C11 1_555 1_555
H24 C11 1_555 1_555
C12 C11 1_555 1_555
H25 C12 1_555 1_555
H26 C12 1_555 1_555
H27 C12 1_555 1_555
C13 C14 1_555 1_555
C14 H28 1_555 1_555
H29 C14 1_555 1_555
C15 C14 1_555 1_555
H30 C15 1_555 1_555
H31 C15 1_555 1_555
C16 C15 1_555 1_555
C17 C18 1_555 1_555
C18 C19 1_555 1_555
C19 H32 1_555 1_555
C20 C19 1_555 1_555
H33 C20 1_555 1_555
C21 C20 1_555 1_555
H34 C21 1_555 1_555
C22 C17 1_555 1_555
H35 C22 1_555 1_555
C23 H36 1_555 1_555
H37 C23 1_555 1_555
H38 C23 1_555 1_555
N1 C16 1_555 1_555
H39 N1 1_555 1_555
O1 C13 1_555 1_555
O2 C13 1_555 1_555
O3 C16 1_555 1_555
O4 C18 1_555 1_555
Sn1 C1 1_555 1_555
C24 H40 1_555 1_555
H41 C24 1_555 1_555
C25 C24 1_555 1_555
H42 C25 1_555 1_555
H43 C25 1_555 1_555
C26 C25 1_555 1_555
H44 C26 1_555 1_555
H45 C26 1_555 1_555
C27 C26 1_555 1_555
H46 C27 1_555 1_555
H47 C27 1_555 1_555
H48 C27 1_555 1_555
C28 H49 1_555 1_555
H50 C28 1_555 1_555
C29 C28 1_555 1_555
H51 C29 1_555 1_555
H52 C29 1_555 1_555
C30 C29 1_555 1_555
H53 C30 1_555 1_555
H54 C30 1_555 1_555
C31 C30 1_555 1_555
H55 C31 1_555 1_555
H56 C31 1_555 1_555
H57 C31 1_555 1_555
C32 H58 1_555 1_555
H59 C32 1_555 1_555
C33 C32 1_555 1_555
H60 C33 1_555 1_555
H61 C33 1_555 1_555
C34 C33 1_555 1_555
H62 C34 1_555 1_555
H63 C34 1_555 1_555
C35 C34 1_555 1_555
H64 C35 1_555 1_555
H65 C35 1_555 1_555
H66 C35 1_555 1_555
C36 C37 1_555 1_555
C37 H67 1_555 1_555
H68 C37 1_555 1_555
C38 C37 1_555 1_555
H69 C38 1_555 1_555
H70 C38 1_555 1_555
C39 C38 1_555 1_555
C40 C41 1_555 1_555
C41 C42 1_555 1_555
C42 H71 1_555 1_555
C43 C42 1_555 1_555
H72 C43 1_555 1_555
C44 C43 1_555 1_555
H73 C44 1_555 1_555
C45 C40 1_555 1_555
H74 C45 1_555 1_555
C46 H75 1_555 1_555
H76 C46 1_555 1_555
H77 C46 1_555 1_555
N2 C39 1_555 1_555
H78 N2 1_555 1_555
O5 C36 1_555 1_555
O6 C36 1_555 1_555
O7 C39 1_555 1_555
O8 C41 1_555 1_555
Sn2 C24 1_555 1_555
O2A Sn1 1_555 1_555
Sn1A O2 1_555 1_555
O6A Sn2 1_555 1_555
Sn2A O6 1_555 1_555
C5 Sn1 1_555 1_555
C9 Sn1 1_555 1_555
C17 N1 1_555 1_555
C21 C22 1_555 1_555
C23 O4 1_555 1_555
O1 Sn1 1_555 1_555
C28 Sn2 1_555 1_555
C32 Sn2 1_555 1_555
C40 N2 1_555 1_555
C44 C45 1_555 1_555
C46 O8 1_555 1_555
O5 Sn2 1_555 1_555

#END
