
#######################################################################
#
#                 Cambridge Crystallographic Data Centre
#                                CCDC 
#
#######################################################################
#
# If this CIF has been generated from an entry in the Cambridge 
# Structural Database, then it will include bibliographic, chemical, 
# crystal, experimental, refinement or atomic coordinate data resulting 
# from the CCDC's data processing and validation procedures.
#
#######################################################################

data_NUCYAN
_symmetry_cell_setting           orthorhombic
_symmetry_space_group_name_H-M   'P n a 21'
_symmetry_Int_Tables_number      33
_space_group_name_Hall           'P 2c -2n'
loop_
_symmetry_equiv_pos_site_id
_symmetry_equiv_pos_as_xyz
1 x,y,z
2 -x,-y,1/2+z
3 1/2+x,1/2-y,z
4 1/2-x,1/2+y,1/2+z
_cell_length_a                   28.044(2)
_cell_length_b                   9.6262(7)
_cell_length_c                   8.2546(6)
_cell_angle_alpha                90
_cell_angle_beta                 90
_cell_angle_gamma                90
_cell_volume                     2228.39
loop_
_atom_site_label
_atom_site_type_symbol
_atom_site_fract_x
_atom_site_fract_y
_atom_site_fract_z
Eu1 Eu -0.003774(6) 1.414557(19) 0.90702(11)
O1 O 0.07212(11) 1.4752(4) 1.0005(4)
O2 O 0.06308(13) 1.6105(4) 1.2143(5)
O3 O 0.45088(12) 1.8858(3) 0.9656(4)
O4 O 0.45931(11) 1.7958(4) 1.2111(4)
O5 O 0.22818(14) 1.7770(5) 1.3501(5)
O6 O 0.30042(14) 1.5622(5) 1.3161(6)
O7 O 0.02162(16) 1.1963(4) 1.0143(5)
O8 O -0.02294(12) 1.4121(3) 1.2126(4)
O9 O -0.07362(13) 1.3048(4) 1.0523(5)
C1 C 0.08804(17) 1.5559(5) 1.1060(7)
C2 C 0.13999(16) 1.5917(5) 1.1033(6)
C3 C 0.16841(17) 1.5548(5) 0.9725(7)
H1 H 0.1558 1.5045 0.8865
C4 C 0.21595(17) 1.5943(6) 0.9724(7)
H2 H 0.2349 1.5704 0.8843
C5 C 0.23611(17) 1.6677(5) 1.0986(7)
C6 C 0.20689(19) 1.7021(6) 1.2317(7)
C7 C 0.15893(16) 1.6659(5) 1.2336(6)
H3 H 0.1397 1.6909 1.3206
C8 C 0.28735(17) 1.7080(6) 1.0967(7)
C9 C 0.30460(18) 1.7935(6) 0.9784(7)
H4 H 0.2838 1.8273 0.9000
C10 C 0.35242(17) 1.8316(6) 0.9716(7)
H5 H 0.3634 1.8894 0.8894
C11 C 0.38329(16) 1.7825(5) 1.0883(6)
C12 C 0.36676(18) 1.6930(6) 1.2069(7)
H6 H 0.3876 1.6586 1.2848
C13 C 0.31911(17) 1.6547(6) 1.2095(7)
C14 C 0.43480(17) 1.8247(5) 1.0879(7)
C15 C 0.2060(3) 1.7832(9) 1.5038(8)
H7 H 0.2248 1.8396 1.5753
H8 H 0.2033 1.6911 1.5475
H9 H 0.1748 1.8231 1.4928
C16 C 0.3274(3) 1.5161(9) 1.4444(10)
H10 H 0.3089 1.4529 1.5087
H11 H 0.3369 1.5939 1.5096
H12 H 0.3552 1.4694 1.4043
C17 C 0.0835(3) 0.9918(8) 1.3048(9)
H13 H 0.0884 1.0717 1.3724
H14 H 0.1138 0.9548 1.2722
H15 H 0.0661 0.9225 1.3641
C18 C 0.0427(3) 0.9222(7) 1.0475(12)
H16 H 0.0252 0.9630 0.9596
H17 H 0.0231 0.8549 1.1014
H18 H 0.0708 0.8776 1.0060
C19 C 0.0452(2) 1.1605(7) 1.1300(8)
H19 H 0.0559 1.2293 1.2002
C20 C -0.0603(2) 1.3419(6) 1.1874(8)
H20 H -0.0789 1.3169 1.2762
N1 N 0.05667(19) 1.0315(5) 1.1633(6)
Eu1A Eu 0.003774(6) 1.585443(19) 1.40702(11)
Eu1B Eu 0.496226(6) 2.085443(19) 0.90702(11)
Eu1C Eu 0.503774(6) 1.914557(19) 1.40702(11)
O2A O -0.06308(13) 1.3895(4) 0.7143(5)
O3B O -0.04912(12) 1.6142(3) 0.9656(4)
O4C O 0.04069(11) 1.2958(4) 0.7111(4)
O8A O 0.02294(12) 1.5879(3) 0.7126(4)
loop_
_geom_bond_atom_site_label_1
_geom_bond_atom_site_label_2
_geom_bond_site_symmetry_1
_geom_bond_site_symmetry_2
Eu1 O1 1_555 1_555
O1 C1 1_555 1_555
O2 C1 1_555 1_555
O3 C14 1_555 1_555
O4 C14 1_555 1_555
O5 C6 1_555 1_555
O6 C13 1_555 1_555
O7 Eu1 1_555 1_555
O8 Eu1 1_555 1_555
O9 Eu1 1_555 1_555
C1 C2 1_555 1_555
C2 C3 1_555 1_555
C3 H1 1_555 1_555
C4 C3 1_555 1_555
H2 C4 1_555 1_555
C5 C4 1_555 1_555
C6 C5 1_555 1_555
C7 C2 1_555 1_555
H3 C7 1_555 1_555
C8 C5 1_555 1_555
C9 C8 1_555 1_555
H4 C9 1_555 1_555
C10 C9 1_555 1_555
H5 C10 1_555 1_555
C11 C10 1_555 1_555
C12 C11 1_555 1_555
H6 C12 1_555 1_555
C13 C8 1_555 1_555
C14 C11 1_555 1_555
C15 O5 1_555 1_555
H7 C15 1_555 1_555
H8 C15 1_555 1_555
H9 C15 1_555 1_555
C16 O6 1_555 1_555
H10 C16 1_555 1_555
H11 C16 1_555 1_555
H12 C16 1_555 1_555
C17 H13 1_555 1_555
H14 C17 1_555 1_555
H15 C17 1_555 1_555
C18 H16 1_555 1_555
H17 C18 1_555 1_555
H18 C18 1_555 1_555
C19 O7 1_555 1_555
H19 C19 1_555 1_555
C20 O8 1_555 1_555
H20 C20 1_555 1_555
N1 C17 1_555 1_555
Eu1A O2 1_555 1_555
Eu1B O3 1_555 1_555
Eu1C O4 1_555 1_555
O2A Eu1 1_555 1_555
O3B Eu1 1_555 1_555
O4C Eu1 1_555 1_555
O8A Eu1 1_555 1_555
O8 Eu1A 1_555 1_555
O9 C20 1_555 1_555
C6 C7 1_555 1_555
C12 C13 1_555 1_555
C18 N1 1_555 1_555
C19 N1 1_555 1_555

#END
