
#######################################################################
#
#                 Cambridge Crystallographic Data Centre
#                                CCDC 
#
#######################################################################
#
# If this CIF has been generated from an entry in the Cambridge 
# Structural Database, then it will include bibliographic, chemical, 
# crystal, experimental, refinement or atomic coordinate data resulting 
# from the CCDC's data processing and validation procedures.
#
#######################################################################

data_NUDFIC
_symmetry_cell_setting           monoclinic
_symmetry_space_group_name_H-M   'C 2/c'
_symmetry_Int_Tables_number      15
_space_group_name_Hall           '-C 2yn'
loop_
_symmetry_equiv_pos_site_id
_symmetry_equiv_pos_as_xyz
1 x,y,z
2 -x,y,1/2-z
3 1/2+x,1/2+y,z
4 1/2-x,1/2+y,1/2-z
5 -x,-y,-z
6 x,-y,1/2+z
7 1/2-x,1/2-y,-z
8 1/2+x,1/2-y,1/2+z
_cell_length_a                   29.9954(8)
_cell_length_b                   17.6794(7)
_cell_length_c                   20.5253(6)
_cell_angle_alpha                90
_cell_angle_beta                 127.974(2)
_cell_angle_gamma                90
_cell_volume                     8580.21
loop_
_atom_site_label
_atom_site_type_symbol
_atom_site_fract_x
_atom_site_fract_y
_atom_site_fract_z
U1 U 0.336568(10) 0.438880(14) 0.793810(15)
U2 U 0.722100(10) -0.054490(14) 0.824650(15)
O1 O 0.3877(2) 0.4328(3) 0.9008(3)
O2 O 0.2859(2) 0.4449(4) 0.6848(3)
O3 O 0.7743(2) -0.0487(3) 0.9337(3)
O4 O 0.6676(2) -0.0566(3) 0.7165(3)
O5 O 0.27782(17) 0.5145(3) 0.8030(3)
H1 H 0.2553 0.5536 0.7678
O6 O 0.2768(2) 0.3677(3) 0.8067(3)
H2 H 0.2805 0.3131 0.8136
O7 O 0.3480(3) 0.3128(3) 0.7589(5)
H3 H 0.3813 0.2894 0.7869
H4 H 0.3202 0.2806 0.7128
O8 O 0.3612(2) 0.5712(3) 0.7942(4)
H5 H 0.3871 0.5904 0.8024
H6 H 0.3336 0.5844 0.7413
O9 O 0.6995(2) -0.1825(3) 0.8401(4)
H7 H 0.7316 -0.1934 0.8947
H8 H 0.7030 -0.2151 0.8126
O10 O 0.70088(19) 0.0778(3) 0.8278(3)
H9 H 0.6596 0.0899 0.7797
H10 H 0.7085 0.0877 0.8774
O17 O 0.41262(19) 0.4369(3) 0.7832(3)
O18 O 0.32724(19) 0.3267(3) 0.5983(3)
O19 O 0.51207(18) 0.3454(3) 0.9819(3)
O20 O 0.70834(19) 0.1296(3) 0.9598(3)
O21 O 0.52891(19) 0.1376(3) 1.0111(3)
O22 O 0.64694(18) -0.0491(3) 0.8357(3)
O23 O 0.46308(18) -0.0247(3) 0.8674(3)
N3 N 0.5004(2) 0.4778(3) 0.8301(3)
N4 N 0.4302(2) 0.4846(3) 0.6963(3)
N5 N 0.5663(2) 0.4226(3) 0.9658(3)
N6 N 0.6054(2) 0.3196(3) 1.0427(3)
N7 N 0.6734(2) 0.3157(3) 1.0141(3)
N8 N 0.3680(2) 0.4156(3) 0.5668(3)
N9 N 0.6181(2) 0.1845(3) 1.0660(3)
N10 N 0.5995(2) 0.0626(3) 1.0306(3)
N11 N 0.6723(2) 0.0582(3) 1.0127(3)
N12 N 0.6889(2) 0.1810(3) 1.0432(3)
N13 N 0.5586(2) -0.0522(3) 0.9493(3)
N14 N 0.5009(2) -0.1094(3) 0.8274(3)
N15 N 0.5780(2) -0.1236(3) 0.8188(3)
N16 N 0.6320(2) -0.0558(3) 0.9326(3)
C1 C 0.4448(3) 0.4637(4) 0.7707(4)
C2 C 0.5243(2) 0.5212(4) 0.7977(4)
H21 H 0.5345 0.5726 0.8202
C3 C 0.5252(3) 0.4805(4) 0.9179(4)
H22 H 0.5430 0.5295 0.9402
H23 H 0.4953 0.4756 0.9230
C4 C 0.3731(2) 0.4762(4) 0.6189(4)
H24 H 0.3472 0.4665 0.6313
H25 H 0.3618 0.5234 0.5884
C5 C 0.5566(3) 0.3602(4) 0.9955(4)
C6 C 0.6247(3) 0.4274(4) 0.9960(4)
H26 H 0.6431 0.4740 1.0273
C7 C 0.6525(2) 0.3560(4) 1.0513(4)
H27 H 0.6830 0.3694 1.1089
C8 C 0.3395(3) 0.3493(4) 0.5553(4)
C9 C 0.6123(3) 0.2565(4) 1.0933(4)
H28 H 0.6456 0.2652 1.1499
H29 H 0.5799 0.2544 1.0930
C10 C 0.7144(2) 0.2543(4) 1.0562(4)
H30 H 0.7369 0.2528 1.0369
H31 H 0.7397 0.2648 1.1150
C11 C 0.5765(3) 0.1296(4) 1.0327(4)
C12 C 0.6720(3) 0.1544(4) 1.0922(4)
H32 H 0.7020 0.1616 1.1515
C13 C 0.6591(3) 0.0697(3) 1.0690(4)
H33 H 0.6823 0.0373 1.1179
C14 C 0.6918(3) 0.1240(4) 1.0010(4)
C15 C 0.5753(3) -0.0103(4) 1.0229(4)
H34 H 0.5423 -0.0034 1.0207
H35 H 0.6025 -0.0401 1.0716
C16 C 0.6835(2) -0.0156(4) 0.9975(4)
H36 H 0.7035 -0.0449 1.0482
H37 H 0.7080 -0.0111 0.9817
C17 C 0.5038(3) -0.0584(4) 0.8813(4)
C18 C 0.5968(2) -0.0987(4) 0.9461(4)
H38 H 0.6190 -0.1330 0.9936
C19 C 0.5557(2) -0.1422(4) 0.8627(4)
H39 H 0.5562 -0.1968 0.8714
C20 C 0.6208(3) -0.0738(3) 0.8594(4)
C21 C 0.4483(2) -0.1475(4) 0.7656(4)
H40 H 0.4220 -0.1386 0.7773
H41 H 0.4553 -0.2015 0.7698
U1A U 0.663432(10) 0.438880(14) 0.706190(15)
U1B U 0.836568(10) -0.061120(14) 0.793810(15)
U2A U 0.277900(10) -0.054490(14) 0.675350(15)
U2B U 0.222100(10) 0.445510(14) 0.824650(15)
O1A O 0.6123(2) 0.4328(3) 0.5992(3)
O2A O 0.7141(2) 0.4449(4) 0.8152(3)
O3A O 0.2257(2) -0.0487(3) 0.5663(3)
O4A O 0.3324(2) -0.0566(3) 0.7835(3)
O5B O 0.77782(17) 0.0145(3) 0.8030(3)
O5A O 0.72218(17) 0.5145(3) 0.6970(3)
O5C O 0.22218(17) 0.0145(3) 0.6970(3)
H1B H 0.7553 0.0536 0.7678
H1A H 0.7447 0.5536 0.7322
H1C H 0.2447 0.0536 0.7322
O6B O 0.7768(2) -0.1323(3) 0.8067(3)
O6A O 0.7232(2) 0.3677(3) 0.6933(3)
O6C O 0.2232(2) -0.1323(3) 0.6933(3)
H2B H 0.7805 -0.1869 0.8136
H2A H 0.7195 0.3131 0.6864
H2C H 0.2195 -0.1869 0.6864
O7A O 0.6520(3) 0.3128(3) 0.7411(5)
H3A H 0.6187 0.2894 0.7131
H4A H 0.6798 0.2806 0.7872
O8A O 0.6388(2) 0.5712(3) 0.7058(4)
H5A H 0.6129 0.5904 0.6976
H6A H 0.6664 0.5844 0.7587
O9A O 0.3005(2) -0.1825(3) 0.6599(4)
H7A H 0.2684 -0.1934 0.6053
H8A H 0.2970 -0.2151 0.6874
O10A O 0.29912(19) 0.0778(3) 0.6722(3)
H9A H 0.3404 0.0899 0.7203
H10A H 0.2915 0.0877 0.6226
O17A O 0.58738(19) 0.4369(3) 0.7168(3)
O18A O 0.67276(19) 0.3267(3) 0.9017(3)
O19A O 0.48793(18) 0.3454(3) 0.5181(3)
O20A O 0.29166(19) 0.1296(3) 0.5402(3)
O21A O 0.47109(19) 0.1376(3) 0.4889(3)
O22A O 0.35306(18) -0.0491(3) 0.6643(3)
O23A O 0.53692(18) -0.0247(3) 0.6326(3)
N3A N 0.4996(2) 0.4778(3) 0.6699(3)
N4A N 0.5698(2) 0.4846(3) 0.8037(3)
N5A N 0.4337(2) 0.4226(3) 0.5342(3)
N6A N 0.3946(2) 0.3196(3) 0.4573(3)
N7A N 0.3266(2) 0.3157(3) 0.4859(3)
N8A N 0.6320(2) 0.4156(3) 0.9332(3)
N9A N 0.3819(2) 0.1845(3) 0.4340(3)
N10A N 0.4005(2) 0.0626(3) 0.4694(3)
N11A N 0.3277(2) 0.0582(3) 0.4873(3)
N12A N 0.3111(2) 0.1810(3) 0.4568(3)
N13A N 0.4414(2) -0.0522(3) 0.5507(3)
N14A N 0.4991(2) -0.1094(3) 0.6726(3)
N15A N 0.4220(2) -0.1236(3) 0.6812(3)
N16A N 0.3680(2) -0.0558(3) 0.5674(3)
C1A C 0.5552(3) 0.4637(4) 0.7293(4)
C2A C 0.4757(2) 0.5212(4) 0.7023(4)
H21A H 0.4655 0.5726 0.6798
C3A C 0.4748(3) 0.4805(4) 0.5821(4)
H22A H 0.4570 0.5295 0.5598
H23A H 0.5047 0.4756 0.5770
C4A C 0.6269(2) 0.4762(4) 0.8811(4)
H24A H 0.6528 0.4665 0.8687
H25A H 0.6382 0.5234 0.9116
C5A C 0.4434(3) 0.3602(4) 0.5045(4)
C6A C 0.3753(3) 0.4274(4) 0.5040(4)
H26A H 0.3569 0.4740 0.4727
C7A C 0.3475(2) 0.3560(4) 0.4487(4)
H27A H 0.3170 0.3694 0.3911
C8A C 0.6605(3) 0.3493(4) 0.9447(4)
C9A C 0.3877(3) 0.2565(4) 0.4067(4)
H28A H 0.3544 0.2652 0.3501
H29A H 0.4201 0.2544 0.4070
C10A C 0.2856(2) 0.2543(4) 0.4438(4)
H30A H 0.2631 0.2528 0.4631
H31A H 0.2603 0.2648 0.3850
C11A C 0.4235(3) 0.1296(4) 0.4673(4)
C12A C 0.3280(3) 0.1544(4) 0.4078(4)
H32A H 0.2980 0.1616 0.3485
C13A C 0.3409(3) 0.0697(3) 0.4310(4)
H33A H 0.3177 0.0373 0.3821
C14A C 0.3082(3) 0.1240(4) 0.4990(4)
C15A C 0.4247(3) -0.0103(4) 0.4771(4)
H34A H 0.4577 -0.0034 0.4793
H35A H 0.3975 -0.0401 0.4284
C16A C 0.3165(2) -0.0156(4) 0.5025(4)
H36A H 0.2965 -0.0449 0.4518
H37A H 0.2920 -0.0111 0.5183
C17A C 0.4962(3) -0.0584(4) 0.6187(4)
C18A C 0.4032(2) -0.0987(4) 0.5539(4)
H38A H 0.3810 -0.1330 0.5064
C19A C 0.4443(2) -0.1422(4) 0.6373(4)
H39A H 0.4438 -0.1968 0.6286
C20A C 0.3792(3) -0.0738(3) 0.6406(4)
C21A C 0.5517(2) -0.1475(4) 0.7344(4)
H40A H 0.5780 -0.1386 0.7227
H41A H 0.5447 -0.2015 0.7302
O11 O 0.1469(3) 0.2058(5) 0.9587(4)
O12 O 0.1642(3) 0.1647(4) 0.8759(5)
O13 O 0.0773(3) 0.1841(3) 0.8280(4)
N1 N 0.1294(3) 0.1868(4) 0.8879(5)
O14 O 0.1889(2) 0.2790(3) 1.1186(4)
O15 O 0.2758(2) 0.3125(3) 1.2134(3)
O16 O 0.2072(2) 0.3925(3) 1.1667(3)
N2 N 0.2232(2) 0.3275(3) 1.1662(4)
O24 O 0.4454(5) 0.2405(8) 0.8552(7)
H11 H 0.4362 0.2001 0.8269
H12 H 0.4625 0.2762 0.8454
O25 O 0.4491(2) 0.6318(3) 0.8188(4)
O26 O 0.0940(3) 0.6062(4) 0.7066(5)
H13 H 0.0758 0.5515 0.6887
H14 H 0.1006 0.6086 0.6692
O27 O 0.2197(2) 0.3253(3) 0.9866(4)
H15 H 0.2071 0.2890 0.9962
H16 H 0.2491 0.3500 1.0388
O28 O 0.5438(4) 0.7009(6) 0.9498(6)
H17 H 0.5144 0.6772 0.9133
H18 H 0.5754 0.6653 0.9713
O29 O 0.0567(6) 0.5976(10) 0.8183(10)
H19 H 0.0502 0.5654 0.7785
H20 H 0.0754 0.5608 0.8688
loop_
_geom_bond_atom_site_label_1
_geom_bond_atom_site_label_2
_geom_bond_site_symmetry_1
_geom_bond_site_symmetry_2
U1 O1 1_555 1_555
U2 O3 1_555 1_555
O2 U1 1_555 1_555
O4 U2 1_555 1_555
O5 U1 1_555 1_555
H1 O5 1_555 1_555
O6 U1 1_555 1_555
H2 O6 1_555 1_555
O7 U1 1_555 1_555
H3 O7 1_555 1_555
H4 O7 1_555 1_555
O8 U1 1_555 1_555
H5 O8 1_555 1_555
H6 O8 1_555 1_555
O9 U2 1_555 1_555
H7 O9 1_555 1_555
H8 O9 1_555 1_555
O10 U2 1_555 1_555
H9 O10 1_555 1_555
H10 O10 1_555 1_555
O11 N1 1_555 1_555
O12 N1 1_555 1_555
O13 N1 1_555 1_555
O14 N2 1_555 1_555
O15 N2 1_555 1_555
O16 N2 1_555 1_555
O17 U1 1_555 1_555
O18 C8 1_555 1_555
O19 C5 1_555 1_555
O20 C14 1_555 1_555
O21 C11 1_555 1_555
O22 U2 1_555 1_555
O23 C17 1_555 1_555
O24 H11 1_555 1_555
H12 O24 1_555 1_555
O26 H13 1_555 1_555
H14 O26 1_555 1_555
O27 H15 1_555 1_555
H16 O27 1_555 1_555
O28 H17 1_555 1_555
H18 O28 1_555 1_555
O29 H19 1_555 1_555
H20 O29 1_555 1_555
N3 C1 1_555 1_555
N4 C1 1_555 1_555
N5 C3 1_555 1_555
N6 C5 1_555 1_555
N7 C7 1_555 1_555
N8 C4 1_555 1_555
N9 C9 1_555 1_555
N10 C11 1_555 1_555
N11 C13 1_555 1_555
N12 C10 1_555 1_555
N13 C15 1_555 1_555
N14 C17 1_555 1_555
N15 C19 1_555 1_555
N16 C16 1_555 1_555
C1 O17 1_555 1_555
C2 N3 1_555 1_555
H21 C2 1_555 1_555
C3 N3 1_555 1_555
H22 C3 1_555 1_555
H23 C3 1_555 1_555
C4 N4 1_555 1_555
H24 C4 1_555 1_555
H25 C4 1_555 1_555
C5 N5 1_555 1_555
C6 N5 1_555 1_555
H26 C6 1_555 1_555
C7 N6 1_555 1_555
H27 C7 1_555 1_555
C8 N8 1_555 1_555
C9 N6 1_555 1_555
H28 C9 1_555 1_555
H29 C9 1_555 1_555
C10 N7 1_555 1_555
H30 C10 1_555 1_555
H31 C10 1_555 1_555
C11 N9 1_555 1_555
C12 N9 1_555 1_555
H32 C12 1_555 1_555
C13 N10 1_555 1_555
H33 C13 1_555 1_555
C14 N11 1_555 1_555
C15 N10 1_555 1_555
H34 C15 1_555 1_555
H35 C15 1_555 1_555
C16 N11 1_555 1_555
H36 C16 1_555 1_555
H37 C16 1_555 1_555
C17 N13 1_555 1_555
C18 N13 1_555 1_555
H38 C18 1_555 1_555
C19 N14 1_555 1_555
H39 C19 1_555 1_555
C20 O22 1_555 1_555
C21 N14 1_555 1_555
H40 C21 1_555 1_555
H41 C21 1_555 1_555
U1A O1A 1_555 1_555
U1B O5B 1_555 1_555
U2A O3A 1_555 1_555
U2B O5 1_555 1_555
O2A U1A 1_555 1_555
O4A U2A 1_555 1_555
O5B U2 1_555 1_555
O5A U1A 1_555 1_555
O5C U2A 1_555 1_555
H1B O5B 1_555 1_555
H1A O5A 1_555 1_555
H1C O5C 1_555 1_555
O6B U2 1_555 1_555
O6A U1A 1_555 1_555
O6C U2A 1_555 1_555
H2B O6B 1_555 1_555
H2A O6A 1_555 1_555
H2C O6C 1_555 1_555
O7A U1A 1_555 1_555
H3A O7A 1_555 1_555
H4A O7A 1_555 1_555
O8A U1A 1_555 1_555
H5A O8A 1_555 1_555
H6A O8A 1_555 1_555
O9A U2A 1_555 1_555
H7A O9A 1_555 1_555
H8A O9A 1_555 1_555
O10A U2A 1_555 1_555
H9A O10A 1_555 1_555
H10A O10A 1_555 1_555
O17A U1A 1_555 1_555
O18A C8A 1_555 1_555
O19A C5A 1_555 1_555
O20A C14A 1_555 1_555
O21A C11A 1_555 1_555
O22A U2A 1_555 1_555
O23A C17A 1_555 1_555
N3A C1A 1_555 1_555
N4A C2 1_555 1_555
N5A C3A 1_555 1_555
N6A C5A 1_555 1_555
N7A C8 1_555 1_555
N8A C6 1_555 1_555
N9A C9A 1_555 1_555
N10A C11A 1_555 1_555
N11A C13A 1_555 1_555
N12A C10A 1_555 1_555
N13A C15A 1_555 1_555
N14A C17A 1_555 1_555
N15A C21 1_555 1_555
N16A C16A 1_555 1_555
C1A O17A 1_555 1_555
C2A N4 1_555 1_555
H21A C2A 1_555 1_555
C3A N3A 1_555 1_555
H22A C3A 1_555 1_555
H23A C3A 1_555 1_555
C4A N4A 1_555 1_555
H24A C4A 1_555 1_555
H25A C4A 1_555 1_555
C5A N5A 1_555 1_555
C6A N8 1_555 1_555
H26A C6A 1_555 1_555
C7A N6A 1_555 1_555
H27A C7A 1_555 1_555
C8A N7 1_555 1_555
C9A N6A 1_555 1_555
H28A C9A 1_555 1_555
H29A C9A 1_555 1_555
C10A N7A 1_555 1_555
H30A C10A 1_555 1_555
H31A C10A 1_555 1_555
C11A N9A 1_555 1_555
C12A N9A 1_555 1_555
H32A C12A 1_555 1_555
C13A N10A 1_555 1_555
H33A C13A 1_555 1_555
C14A N11A 1_555 1_555
C15A N10A 1_555 1_555
H34A C15A 1_555 1_555
H35A C15A 1_555 1_555
C16A N11A 1_555 1_555
H36A C16A 1_555 1_555
H37A C16A 1_555 1_555
C17A N13A 1_555 1_555
C18A N13A 1_555 1_555
H38A C18A 1_555 1_555
C19A N14A 1_555 1_555
H39A C19A 1_555 1_555
C20A O22A 1_555 1_555
C21A N15 1_555 1_555
H40A C21A 1_555 1_555
H41A C21A 1_555 1_555
O6 U2B 1_555 1_555
N12 C12 1_555 1_555
N12 C14 1_555 1_555
N15 C20 1_555 1_555
N16 C18 1_555 1_555
N16 C20 1_555 1_555
C2 C2A 1_555 1_555
C6 C7 1_555 1_555
C12 C13 1_555 1_555
C18 C19 1_555 1_555
U1B O6B 1_555 1_555
N3A C2A 1_555 1_555
N4A C1A 1_555 1_555
N5A C6A 1_555 1_555
N7A C7A 1_555 1_555
N8A C4A 1_555 1_555
N8A C8A 1_555 1_555
N12A C12A 1_555 1_555
N12A C14A 1_555 1_555
N14A C21A 1_555 1_555
N15A C19A 1_555 1_555
N15A C20A 1_555 1_555
N16A C18A 1_555 1_555
N16A C20A 1_555 1_555
C6A C7A 1_555 1_555
C12A C13A 1_555 1_555
C18A C19A 1_555 1_555

#END
