
#######################################################################
#
#                 Cambridge Crystallographic Data Centre
#                                CCDC 
#
#######################################################################
#
# If this CIF has been generated from an entry in the Cambridge 
# Structural Database, then it will include bibliographic, chemical, 
# crystal, experimental, refinement or atomic coordinate data resulting 
# from the CCDC's data processing and validation procedures.
#
#######################################################################

data_NUDHAX
_symmetry_cell_setting           monoclinic
_symmetry_space_group_name_H-M   'P 21/c'
_symmetry_Int_Tables_number      14
_space_group_name_Hall           '-P 2ybc'
loop_
_symmetry_equiv_pos_site_id
_symmetry_equiv_pos_as_xyz
1 x,y,z
2 -x,1/2+y,1/2-z
3 -x,-y,-z
4 x,1/2-y,1/2+z
_cell_length_a                   15.877(3)
_cell_length_b                   12.1583(16)
_cell_length_c                   17.912(3)
_cell_angle_alpha                90
_cell_angle_beta                 115.18(2)
_cell_angle_gamma                90
_cell_volume                     3129.12
loop_
_atom_site_label
_atom_site_type_symbol
_atom_site_fract_x
_atom_site_fract_y
_atom_site_fract_z
Gd1 Gd 0.35041(7) 0.46258(8) 0.44058(6)
Cl1 Cl 0.2280(3) 0.3923(4) 0.2899(3)
N1 N 0.2198(9) 0.6108(12) 0.3989(9)
N2 N 0.2290(9) 0.4452(11) 0.4982(8)
N3 N 0.1321(9) 0.5350(12) 0.5480(8)
N4 N 0.1884(10) 0.3524(12) 0.5929(9)
N5 N 0.3090(10) 0.2632(12) 0.4735(10)
N6 N 0.0385(10) 0.5312(12) 0.6467(9)
O1 O 0.4024(9) 0.5825(11) 0.3683(7)
O2 O 0.5590(9) 0.5883(11) 0.4197(8)
O3 O 0.3813(8) 0.8788(11) 0.0270(7)
O4 O 0.5345(8) 0.8574(10) 0.0699(7)
C1 C 0.2112(12) 0.6922(15) 0.3471(11)
H1 H 0.2396 0.6834 0.3115
C2 C 0.1641(13) 0.7880(16) 0.3415(11)
H2 H 0.1645 0.8437 0.3061
C3 C 0.1170(13) 0.8002(16) 0.3885(11)
H3 H 0.0831 0.8638 0.3856
C4 C 0.1209(13) 0.7148(15) 0.4413(11)
H4 H 0.0891 0.7214 0.4743
C5 C 0.1707(12) 0.6209(15) 0.4458(11)
C6 C 0.1792(11) 0.5304(14) 0.4993(10)
C7 C 0.1419(12) 0.4447(14) 0.5944(11)
C8 C 0.2306(12) 0.3568(14) 0.5433(11)
C9 C 0.2688(12) 0.2527(15) 0.5272(12)
C10 C 0.2677(13) 0.1570(16) 0.5672(12)
H5 H 0.2469 0.1556 0.6086
C11 C 0.2984(14) 0.0634(17) 0.5437(14)
H6 H 0.2969 -0.0032 0.5686
C12 C 0.3314(15) 0.0660(18) 0.4838(14)
H7 H 0.3512 0.0023 0.4673
C13 C 0.3338(13) 0.1646(16) 0.4500(13)
H8 H 0.3535 0.1663 0.4080
C14 C 0.0956(12) 0.4456(14) 0.6529(11)
C15 C 0.1152(13) 0.3606(15) 0.7095(11)
H9 H 0.1558 0.3038 0.7125
C16 C 0.0693(13) 0.3654(17) 0.7630(12)
H10 H 0.0809 0.3123 0.8035
C17 C 0.0081(14) 0.4494(16) 0.7536(11)
H11 H -0.0236 0.4526 0.7869
C18 C -0.0062(13) 0.5277(15) 0.6958(11)
H12 H -0.0496 0.5825 0.6896
C19 C 0.4809(14) 0.6043(17) 0.3653(12)
C20 C 0.4706(12) 0.6569(15) 0.2848(11)
C21 C 0.3866(12) 0.6817(15) 0.2198(10)
H13 H 0.3318 0.6596 0.2223
C22 C 0.3814(13) 0.7379(15) 0.1516(11)
H14 H 0.3239 0.7538 0.1087
C23 C 0.4649(12) 0.7715(16) 0.1470(10)
C24 C 0.5484(13) 0.7451(16) 0.2106(11)
H15 H 0.6031 0.7687 0.2085
C25 C 0.5537(13) 0.6840(16) 0.2782(11)
H16 H 0.6111 0.6614 0.3183
C26 C 0.4597(12) 0.8382(16) 0.0762(11)
Gd1A Gd 0.64959(7) 0.96258(8) 0.05942(6)
Gd1B Gd 0.64959(7) 0.53742(8) 0.55942(6)
Gd1C Gd 0.35041(7) 1.03742(8) -0.05942(6)
O2B O 0.4410(9) 0.4117(11) 0.5803(8)
O3C O 0.3813(8) 0.6212(11) 0.5270(7)
O4A O 0.4655(8) 0.3574(10) 0.4301(7)
O5 O 0.8707(12) 0.2892(13) 0.8452(10)
O6 O 1.0044(9) 0.2166(12) 0.9338(8)
H17 H 1.0162 0.2054 0.9824
C27 C 0.9456(14) 0.3020(17) 0.9059(13)
C28 C 0.9759(13) 0.4027(16) 0.9553(12)
C29 C 0.9273(13) 0.4994(15) 0.9219(12)
H18 H 0.8786 0.4997 0.8694
C30 C 0.9531(13) 0.5955(16) 0.9687(11)
H19 H 0.9204 0.6601 0.9470
O5B O 1.1293(12) 0.7108(13) 1.1548(10)
O6B O 0.9956(9) 0.7834(12) 1.0662(8)
H17B H 0.9838 0.7946 1.0176
C27B C 1.0544(14) 0.6980(17) 1.0941(13)
C28B C 1.0241(13) 0.5973(16) 1.0447(12)
C29B C 1.0727(13) 0.5006(15) 1.0781(12)
H18B H 1.1214 0.5003 1.1306
C30B C 1.0469(13) 0.4045(16) 1.0313(11)
H19B H 1.0796 0.3399 1.0530
loop_
_geom_bond_atom_site_label_1
_geom_bond_atom_site_label_2
_geom_bond_site_symmetry_1
_geom_bond_site_symmetry_2
Gd1 Cl1 1_555 1_555
N1 Gd1 1_555 1_555
N2 Gd1 1_555 1_555
N3 C6 1_555 1_555
N4 C7 1_555 1_555
N5 Gd1 1_555 1_555
N6 C14 1_555 1_555
O1 Gd1 1_555 1_555
O2 C19 1_555 1_555
O3 C26 1_555 1_555
O4 C26 1_555 1_555
C1 N1 1_555 1_555
H1 C1 1_555 1_555
C2 C1 1_555 1_555
H2 C2 1_555 1_555
C3 C2 1_555 1_555
H3 C3 1_555 1_555
C4 C3 1_555 1_555
H4 C4 1_555 1_555
C5 N1 1_555 1_555
C6 N2 1_555 1_555
C7 N3 1_555 1_555
C8 N2 1_555 1_555
C9 N5 1_555 1_555
C10 C9 1_555 1_555
H5 C10 1_555 1_555
C11 C10 1_555 1_555
H6 C11 1_555 1_555
C12 C11 1_555 1_555
H7 C12 1_555 1_555
C13 N5 1_555 1_555
H8 C13 1_555 1_555
C14 C7 1_555 1_555
C15 C14 1_555 1_555
H9 C15 1_555 1_555
C16 C15 1_555 1_555
H10 C16 1_555 1_555
C17 C16 1_555 1_555
H11 C17 1_555 1_555
C18 N6 1_555 1_555
H12 C18 1_555 1_555
C19 O1 1_555 1_555
C20 C19 1_555 1_555
C21 C20 1_555 1_555
H13 C21 1_555 1_555
C22 C21 1_555 1_555
H14 C22 1_555 1_555
C23 C22 1_555 1_555
C24 C23 1_555 1_555
H15 C24 1_555 1_555
C25 C20 1_555 1_555
H16 C25 1_555 1_555
C26 C23 1_555 1_555
O5 C27 1_555 1_555
O6 H17 1_555 1_555
C27 O6 1_555 1_555
C28 C27 1_555 1_555
C29 C28 1_555 1_555
H18 C29 1_555 1_555
C30 C29 1_555 1_555
H19 C30 1_555 1_555
Gd1A O4 1_555 1_555
Gd1B O2 1_555 1_555
Gd1C O3 1_555 1_555
O2B Gd1 1_555 1_555
O3C Gd1 1_555 1_555
O4A Gd1 1_555 1_555
O5B C27B 1_555 1_555
O6B H17B 1_555 1_555
C27B O6B 1_555 1_555
C28B C30 1_555 1_555
C29B C28B 1_555 1_555
H18B C29B 1_555 1_555
C30B C28 1_555 1_555
H19B C30B 1_555 1_555
N4 C8 1_555 1_555
C4 C5 1_555 1_555
C5 C6 1_555 1_555
C8 C9 1_555 1_555
C12 C13 1_555 1_555
C17 C18 1_555 1_555
C24 C25 1_555 1_555
C27B C28B 1_555 1_555
C29B C30B 1_555 1_555

#END
