
#######################################################################
#
#                 Cambridge Crystallographic Data Centre
#                                CCDC 
#
#######################################################################
#
# If this CIF has been generated from an entry in the Cambridge 
# Structural Database, then it will include bibliographic, chemical, 
# crystal, experimental, refinement or atomic coordinate data resulting 
# from the CCDC's data processing and validation procedures.
#
#######################################################################

data_NUDVAL
_symmetry_cell_setting           triclinic
_symmetry_space_group_name_H-M   'P -1'
_symmetry_Int_Tables_number      2
_space_group_name_Hall           '-P 1'
loop_
_symmetry_equiv_pos_site_id
_symmetry_equiv_pos_as_xyz
1 x,y,z
2 -x,-y,-z
_cell_length_a                   10.8919(15)
_cell_length_b                   12.8520(17)
_cell_length_c                   14.933(2)
_cell_angle_alpha                70.463(3)
_cell_angle_beta                 82.650(2)
_cell_angle_gamma                85.850(3)
_cell_volume                     1952.84
loop_
_atom_site_label
_atom_site_type_symbol
_atom_site_fract_x
_atom_site_fract_y
_atom_site_fract_z
Tb1 Tb 0.37985(5) 0.32064(5) 0.13286(4)
Tb2 Tb -0.03410(5) 0.22362(5) 0.47121(4)
O1 O 0.5012(7) 0.3648(6) -0.0087(6)
O2 O 0.5768(7) 0.5082(7) -0.1320(5)
O3 O 0.8827(7) 0.2493(6) -0.3868(5)
O4 O 0.8842(8) 0.4180(7) -0.3781(7)
O5 O 0.5781(7) 0.2602(6) 0.1915(5)
O6 O 0.4834(7) 0.1432(6) 0.1463(6)
O7 O 0.9403(7) 0.1188(6) 0.3767(5)
O8 O 0.9944(6) -0.0570(6) 0.4153(5)
O9 O 0.0742(8) 0.3674(6) 0.4997(6)
H1 H 0.111(9) 0.416(6) 0.453(6)
H2 H 0.021(9) 0.396(7) 0.532(6)
O10 O 0.0389(7) 0.3432(6) 0.3210(5)
O11 O 0.1829(6) 0.1830(6) 0.4246(5)
O12 O 0.1907(7) 0.3817(6) 0.2008(5)
O13 O 0.3283(7) 0.2145(7) 0.2977(5)
N1 N 0.2184(8) 0.2043(9) 0.1062(7)
N2 N 0.2456(8) 0.4164(9) -0.0003(7)
N3 N -0.1976(9) 0.3777(8) 0.4104(7)
N4 N -0.2613(8) 0.1685(8) 0.5059(6)
C1 C 0.2640(11) 0.5205(11) -0.0567(8)
H3 H 0.3331 0.5561 -0.0521
C2 C 0.1831(12) 0.5762(12) -0.1213(9)
H4 H 0.1959 0.6501 -0.1564
C3 C 0.0686(13) 0.4164(14) -0.0805(9)
C4 C 0.0873(12) 0.5277(13) -0.1351(10)
H5 H 0.0339 0.5663 -0.1797
C5 C -0.0317(15) 0.3557(15) -0.0890(12)
H6 H -0.0881 0.3919 -0.1320
C6 C -0.0478(14) 0.2503(15) -0.0386(12)
H7 H -0.1128 0.2135 -0.0481
C7 C 0.0357(14) 0.1921(14) 0.0315(11)
C8 C 0.0249(13) 0.0861(13) 0.0907(12)
H8 H -0.0439 0.0480 0.0895
C9 C 0.1080(13) 0.0331(12) 0.1510(11)
H9 H 0.1030 -0.0416 0.1863
C10 C 0.2006(13) 0.0959(12) 0.1574(10)
H10 H 0.2568 0.0612 0.2010
C11 C 0.1343(11) 0.2488(11) 0.0441(9)
C12 C 0.1506(11) 0.3646(12) -0.0136(9)
C13 C 0.5991(9) 0.3309(10) -0.1487(8)
C14 C 0.6908(9) 0.3642(9) -0.2245(8)
H11 H 0.7219 0.4345 -0.2417
C15 C 0.7377(10) 0.2937(10) -0.2757(8)
C16 C 0.6848(12) 0.1931(10) -0.2481(9)
H12 H 0.7085 0.1466 -0.2839
C17 C 0.5991(15) 0.1578(12) -0.1708(11)
H13 H 0.5700 0.0866 -0.1516
C18 C 0.5557(12) 0.2282(11) -0.1212(10)
H14 H 0.4964 0.2050 -0.0686
C19 C 0.5549(11) 0.4072(10) -0.0897(9)
C20 C 0.8451(11) 0.3250(11) -0.3532(9)
C21 C 0.6703(10) 0.0796(10) 0.2166(8)
C22 C 0.7515(10) 0.0911(10) 0.2757(8)
H15 H 0.7467 0.1547 0.2927
C23 C 0.8417(10) 0.0083(10) 0.3109(8)
C24 C 0.8456(10) -0.0861(10) 0.2875(9)
H16 H 0.9009 -0.1437 0.3136
C25 C 0.7674(12) -0.0963(10) 0.2248(9)
H17 H 0.7729 -0.1588 0.2062
C26 C 0.6801(11) -0.0120(11) 0.1900(10)
H18 H 0.6278 -0.0187 0.1478
C27 C 0.9310(11) 0.0228(10) 0.3730(8)
C28 C 0.5723(11) 0.1671(11) 0.1832(8)
C29 C -0.2949(11) 0.0664(10) 0.5549(8)
H19 H -0.2325 0.0129 0.5734
C30 C -0.4149(12) 0.0339(10) 0.5803(9)
H20 H -0.4324 -0.0400 0.6118
C31 C -0.5087(11) 0.1120(11) 0.5585(9)
H21 H -0.5908 0.0924 0.5780
C32 C -0.4793(12) 0.2219(11) 0.5062(9)
C33 C -0.5727(13) 0.3052(11) 0.4767(9)
H22 H -0.6557 0.2879 0.4943
C34 C -0.5426(12) 0.4062(12) 0.4249(10)
H23 H -0.6051 0.4589 0.4044
C35 C -0.4146(12) 0.4383(12) 0.3987(9)
C36 C -0.3775(11) 0.5479(10) 0.3481(10)
H24 H -0.4362 0.6042 0.3270
C37 C -0.2566(12) 0.5689(11) 0.3311(9)
H25 H -0.2313 0.6406 0.2987
C38 C -0.1672(13) 0.4831(10) 0.3621(9)
H26 H -0.0838 0.5001 0.3485
C39 C -0.3200(11) 0.3584(10) 0.4281(8)
C40 C -0.3543(11) 0.2493(10) 0.4817(8)
C41 C 0.1424(12) 0.3275(10) 0.2838(9)
C42 C 0.2250(11) 0.2307(10) 0.3412(9)
Tb1A Tb 0.62015(5) 0.67936(5) -0.13286(4)
Tb2_2 Tb 0.96590(5) 0.22362(5) -0.52879(4)
Tb2_3 Tb 0.96590(5) 0.22362(5) 0.47121(4)
Tb2A Tb 1.03410(5) -0.22362(5) 0.52879(4)
O2A O 0.4232(7) 0.4918(7) 0.1320(5)
O3_2 O -0.1173(7) 0.2493(6) 0.6132(5)
O7_2 O -0.0597(7) 0.1188(6) 0.3767(5)
O8A O 0.0056(6) 0.0570(6) 0.5847(5)
loop_
_geom_bond_atom_site_label_1
_geom_bond_atom_site_label_2
_geom_bond_site_symmetry_1
_geom_bond_site_symmetry_2
Tb1 O1 1_555 1_555
Tb2 O9 1_555 1_555
O1 C19 1_555 1_555
O2 C19 1_555 1_555
O3 C20 1_555 1_555
O4 C20 1_555 1_555
O5 Tb1 1_555 1_555
O6 Tb1 1_555 1_555
O7 C27 1_555 1_555
O8 C27 1_555 1_555
O9 H1 1_555 1_555
H2 O9 1_555 1_555
O10 Tb2 1_555 1_555
O11 Tb2 1_555 1_555
O12 Tb1 1_555 1_555
O13 Tb1 1_555 1_555
N1 Tb1 1_555 1_555
N2 Tb1 1_555 1_555
N3 Tb2 1_555 1_555
N4 Tb2 1_555 1_555
C1 N2 1_555 1_555
H3 C1 1_555 1_555
C2 C1 1_555 1_555
H4 C2 1_555 1_555
C3 C4 1_555 1_555
C4 C2 1_555 1_555
H5 C4 1_555 1_555
C5 C3 1_555 1_555
H6 C5 1_555 1_555
C6 C5 1_555 1_555
H7 C6 1_555 1_555
C7 C6 1_555 1_555
C8 C7 1_555 1_555
H8 C8 1_555 1_555
C9 C8 1_555 1_555
H9 C9 1_555 1_555
C10 N1 1_555 1_555
H10 C10 1_555 1_555
C11 N1 1_555 1_555
C12 N2 1_555 1_555
C13 C14 1_555 1_555
C14 H11 1_555 1_555
C15 C14 1_555 1_555
C16 C15 1_555 1_555
H12 C16 1_555 1_555
C17 C16 1_555 1_555
H13 C17 1_555 1_555
C18 C13 1_555 1_555
H14 C18 1_555 1_555
C19 C13 1_555 1_555
C20 C15 1_555 1_555
C21 C22 1_555 1_555
C22 H15 1_555 1_555
C23 C22 1_555 1_555
C24 C23 1_555 1_555
H16 C24 1_555 1_555
C25 C24 1_555 1_555
H17 C25 1_555 1_555
C26 C21 1_555 1_555
H18 C26 1_555 1_555
C27 C23 1_555 1_555
C28 O5 1_555 1_555
C29 N4 1_555 1_555
H19 C29 1_555 1_555
C30 C29 1_555 1_555
H20 C30 1_555 1_555
C31 C30 1_555 1_555
H21 C31 1_555 1_555
C32 C31 1_555 1_555
C33 C32 1_555 1_555
H22 C33 1_555 1_555
C34 C33 1_555 1_555
H23 C34 1_555 1_555
C35 C34 1_555 1_555
C36 C35 1_555 1_555
H24 C36 1_555 1_555
C37 C36 1_555 1_555
H25 C37 1_555 1_555
C38 N3 1_555 1_555
H26 C38 1_555 1_555
C39 N3 1_555 1_555
C40 N4 1_555 1_555
C41 O10 1_555 1_555
C42 O11 1_555 1_555
Tb1A O2 1_555 1_555
Tb2_2 O3 1_555 1_555
Tb2_3 O7 1_555 1_555
Tb2A O8 1_555 1_555
O2A Tb1 1_555 1_555
O3_2 Tb2 1_555 1_555
O7_2 Tb2 1_555 1_555
O8A Tb2 1_555 1_555
O6 C28 1_555 1_555
O12 C41 1_555 1_555
O13 C42 1_555 1_555
C3 C12 1_555 1_555
C7 C11 1_555 1_555
C9 C10 1_555 1_555
C11 C12 1_555 1_555
C17 C18 1_555 1_555
C21 C28 1_555 1_555
C25 C26 1_555 1_555
C32 C40 1_555 1_555
C35 C39 1_555 1_555
C37 C38 1_555 1_555
C39 C40 1_555 1_555
C41 C42 1_555 1_555

#END
