
#######################################################################
#
#                 Cambridge Crystallographic Data Centre
#                                CCDC 
#
#######################################################################
#
# If this CIF has been generated from an entry in the Cambridge 
# Structural Database, then it will include bibliographic, chemical, 
# crystal, experimental, refinement or atomic coordinate data resulting 
# from the CCDC's data processing and validation procedures.
#
#######################################################################

data_NUDXUF
_symmetry_cell_setting           monoclinic
_symmetry_space_group_name_H-M   'P 21'
_symmetry_Int_Tables_number      4
_space_group_name_Hall           'P 2yb'
loop_
_symmetry_equiv_pos_site_id
_symmetry_equiv_pos_as_xyz
1 x,y,z
2 -x,1/2+y,-z
_cell_length_a                   10.688(3)
_cell_length_b                   17.165(5)
_cell_length_c                   10.761(4)
_cell_angle_alpha                90
_cell_angle_beta                 90.648(6)
_cell_angle_gamma                90
_cell_volume                     1974.08
loop_
_atom_site_label
_atom_site_type_symbol
_atom_site_fract_x
_atom_site_fract_y
_atom_site_fract_z
Mn1 Mn -0.0399(7) -0.0247(3) 0.3168(5)
Mn2 Mn 0.0415(7) 0.3164(3) 0.1871(5)
O1 O 0.1261(24) 0.0018(11) 0.2703(19)
O2 O 0.0942(24) 0.2466(13) 0.0674(19)
N1 N 0.1405(30) 0.0525(16) 0.1796(24)
N2 N 0.1500(29) 0.1777(17) 0.1111(24)
N3 N -0.0818(26) 0.0979(15) 0.3190(24)
N4 N -0.0423(26) 0.2229(14) 0.2773(19)
C1 C 0.0937(38) 0.1273(21) 0.1876(30)
C2 C 0.2708(37) 0.0591(19) 0.1118(28)
C3 C 0.2445(36) 0.1376(20) 0.0245(30)
C4 C 0.3700(32) 0.0726(18) 0.2062(27)
H1 H 0.3507(32) 0.1197(18) 0.2536(27)
H2 H 0.4506(32) 0.0791(18) 0.1648(27)
H3 H 0.3746(32) 0.0278(18) 0.2626(27)
C5 C 0.2805(35) -0.0087(18) 0.0320(28)
H4 H 0.2081(35) -0.0106(18) -0.0246(28)
H5 H 0.2825(35) -0.0560(18) 0.0831(28)
H6 H 0.3575(35) -0.0054(18) -0.0163(28)
C6 C 0.1809(32) 0.1219(17) -0.0995(26)
H7 H 0.1079(32) 0.0884(17) -0.0870(26)
H8 H 0.2397(32) 0.0959(17) -0.1551(26)
H9 H 0.1538(32) 0.1714(17) -0.1367(26)
C7 C 0.3553(34) 0.1882(19) 0.0115(28)
H10 H 0.3939(34) 0.1968(19) 0.0933(28)
H11 H 0.3296(34) 0.2383(19) -0.0243(28)
H12 H 0.4157(34) 0.1631(19) -0.0434(28)
C8 C -0.0137(41) 0.1455(23) 0.2422(34)
C9 C -0.1798(35) 0.1406(19) 0.3820(29)
H13 H -0.2459(35) 0.1218(19) 0.4321(29)
C10 C -0.1501(34) 0.2166(19) 0.3489(27)
H14 H -0.1987(34) 0.2603(19) 0.3729(27)
O3 O 0.0122(22) -0.1527(12) 0.3087(20)
O4 O -0.1443(18) 0.3233(13) 0.0938(17)
N5 N 0.0792(27) -0.1770(17) 0.2181(23)
N6 N 0.1498(27) -0.1883(18) 0.0228(24)
N7 N -0.1008(28) -0.0460(15) 0.1370(23)
N8 N 0.0790(28) 0.4002(15) 0.0548(24)
C11 C 0.0572(39) -0.1532(20) 0.0989(31)
C12 C 0.1826(37) -0.2384(20) 0.2191(30)
C13 C 0.2210(38) -0.2484(20) 0.0891(30)
C14 C 0.1266(33) -0.3035(17) 0.2901(27)
H15 H 0.1068(33) -0.2858(17) 0.3742(27)
H16 H 0.1862(33) -0.3468(17) 0.2950(27)
H17 H 0.0498(33) -0.3210(17) 0.2481(27)
C15 C 0.2659(30) -0.2008(18) 0.3148(27)
H18 H 0.2231(30) -0.1995(18) 0.3948(27)
H19 H 0.2857(30) -0.1476(18) 0.2888(27)
H20 H 0.3435(30) -0.2309(18) 0.3233(27)
C16 C 0.1854(35) -0.3276(18) 0.0344(29)
H21 H 0.2139(35) -0.3307(18) -0.0518(29)
H22 H 0.0943(35) -0.3340(18) 0.0363(29)
H23 H 0.2252(35) -0.3691(18) 0.0834(29)
C17 C 0.3566(34) -0.2268(18) 0.0629(30)
H24 H 0.3740(34) -0.2355(18) -0.0253(30)
H25 H 0.4126(34) -0.2593(18) 0.1137(30)
H26 H 0.3704(34) -0.1718(18) 0.0833(30)
C18 C -0.0379(38) -0.0990(21) 0.0564(33)
C19 C -0.1799(33) -0.0198(20) 0.0634(28)
H27 H -0.2372(33) 0.0194(20) 0.0883(28)
C20 C -0.1823(34) -0.0482(18) -0.0525(29)
H28 H -0.2399(34) -0.0365(18) -0.1178(29)
O5 O -0.2093(22) -0.0411(12) 0.3762(18)
O6 O 0.2077(19) 0.3057(12) 0.2812(18)
N9 N -0.2233(28) -0.1117(16) 0.4306(24)
N10 N -0.2411(25) -0.1667(15) 0.6094(23)
N11 N 0.0178(30) -0.0422(16) 0.4993(25)
N12 N -0.0114(28) 0.3946(15) 0.3119(26)
C21 C -0.1674(36) -0.1177(18) 0.5394(31)
C22 C -0.3434(35) -0.1506(20) 0.4173(29)
C23 C -0.3334(36) -0.2071(19) 0.5249(30)
C24 C -0.4436(34) -0.0816(20) 0.4348(30)
H29 H -0.4356(34) -0.0601(20) 0.5189(30)
H30 H -0.5283(34) -0.1022(20) 0.4223(30)
H31 H -0.4279(34) -0.0404(20) 0.3739(30)
C25 C -0.3570(31) -0.1812(20) 0.2915(25)
H32 H -0.3624(31) -0.1379(20) 0.2324(25)
H33 H -0.4334(31) -0.2127(20) 0.2856(25)
H34 H -0.2844(31) -0.2137(20) 0.2720(25)
C26 C -0.2638(35) -0.2838(20) 0.4873(28)
H35 H -0.2593(35) -0.3190(20) 0.5589(28)
H36 H -0.1789(35) -0.2711(20) 0.4603(28)
H37 H -0.3096(35) -0.3092(20) 0.4191(28)
C27 C -0.4546(33) -0.2193(19) 0.6044(29)
H38 H -0.4373(33) -0.2572(19) 0.6705(29)
H39 H -0.5224(33) -0.2388(19) 0.5507(29)
H40 H -0.4796(33) -0.1696(19) 0.6413(29)
C28 C -0.0410(38) -0.0847(21) 0.5788(33)
C29 C 0.1306(35) -0.0249(22) 0.5591(28)
H41 H 0.1970(35) 0.0074(22) 0.5318(28)
C30 C 0.1212(39) -0.0683(19) 0.6725(29)
H42 H 0.1873(39) -0.0708(19) 0.7321(29)
N8A N -0.0790(28) -0.0998(15) -0.0548(24)
N12A N 0.0114(28) -0.1054(15) 0.6881(26)
O4A O 0.1443(18) -0.1767(13) -0.0938(17)
Mn2A Mn -0.0415(7) -0.1836(3) -0.1871(5)
O6A O -0.2077(19) -0.1943(12) 0.7188(18)
Mn2A_2 Mn -0.0415(7) -0.1836(3) 0.8129(5)
Cl1 Cl 0.4593(15) 0.5605(8) -0.7291(13)
O7 O 0.3474(35) 0.5274(18) -0.6817(29)
O8 O 0.5692(34) 0.5213(18) -0.6975(29)
O9 O 0.4493(32) 0.5608(18) -0.8649(29)
O10 O 0.4682(35) 0.6356(19) -0.6956(32)
loop_
_geom_bond_atom_site_label_1
_geom_bond_atom_site_label_2
_geom_bond_site_symmetry_1
_geom_bond_site_symmetry_2
Mn1 O1 1_555 1_555
Mn2 O2 1_555 1_555
O1 N1 1_555 1_555
O2 N2 1_555 1_555
N1 C1 1_555 1_555
N2 C1 1_555 1_555
N3 Mn1 1_555 1_555
N4 Mn2 1_555 1_555
C1 C8 1_555 1_555
C2 N1 1_555 1_555
C3 N2 1_555 1_555
C4 C2 1_555 1_555
H1 C4 1_555 1_555
H2 C4 1_555 1_555
H3 C4 1_555 1_555
C5 C2 1_555 1_555
H4 C5 1_555 1_555
H5 C5 1_555 1_555
H6 C5 1_555 1_555
C6 C3 1_555 1_555
H7 C6 1_555 1_555
H8 C6 1_555 1_555
H9 C6 1_555 1_555
C7 C3 1_555 1_555
H10 C7 1_555 1_555
H11 C7 1_555 1_555
H12 C7 1_555 1_555
C8 N3 1_555 1_555
C9 N3 1_555 1_555
H13 C9 1_555 1_555
C10 N4 1_555 1_555
H14 C10 1_555 1_555
O3 Mn1 1_555 1_555
O4 Mn2 1_555 1_555
N5 O3 1_555 1_555
N6 C11 1_555 1_555
N7 Mn1 1_555 1_555
N8 Mn2 1_555 1_555
C11 N5 1_555 1_555
C12 N5 1_555 1_555
C13 N6 1_555 1_555
C14 C12 1_555 1_555
H15 C14 1_555 1_555
H16 C14 1_555 1_555
H17 C14 1_555 1_555
C15 C12 1_555 1_555
H18 C15 1_555 1_555
H19 C15 1_555 1_555
H20 C15 1_555 1_555
C16 C13 1_555 1_555
H21 C16 1_555 1_555
H22 C16 1_555 1_555
H23 C16 1_555 1_555
C17 C13 1_555 1_555
H24 C17 1_555 1_555
H25 C17 1_555 1_555
H26 C17 1_555 1_555
C18 N7 1_555 1_555
C19 N7 1_555 1_555
H27 C19 1_555 1_555
C20 C19 1_555 1_555
H28 C20 1_555 1_555
O5 Mn1 1_555 1_555
O6 Mn2 1_555 1_555
N9 O5 1_555 1_555
N10 C21 1_555 1_555
N11 Mn1 1_555 1_555
N12 Mn2 1_555 1_555
C21 N9 1_555 1_555
C22 N9 1_555 1_555
C23 N10 1_555 1_555
C24 C22 1_555 1_555
H29 C24 1_555 1_555
H30 C24 1_555 1_555
H31 C24 1_555 1_555
C25 C22 1_555 1_555
H32 C25 1_555 1_555
H33 C25 1_555 1_555
H34 C25 1_555 1_555
C26 C23 1_555 1_555
H35 C26 1_555 1_555
H36 C26 1_555 1_555
H37 C26 1_555 1_555
C27 C23 1_555 1_555
H38 C27 1_555 1_555
H39 C27 1_555 1_555
H40 C27 1_555 1_555
C28 N11 1_555 1_555
C29 N11 1_555 1_555
H41 C29 1_555 1_555
C30 C29 1_555 1_555
H42 C30 1_555 1_555
Cl1 O7 1_555 1_555
O8 Cl1 1_555 1_555
O9 Cl1 1_555 1_555
O10 Cl1 1_555 1_555
N8A C18 1_555 1_555
N12A C28 1_555 1_555
O4A N6 1_555 1_555
Mn2A N8A 1_555 1_555
O6A N10 1_555 1_555
Mn2A_2 N12A 1_555 1_555
N4 C8 1_555 1_555
C2 C3 1_555 1_555
C9 C10 1_555 1_555
C11 C18 1_555 1_555
C12 C13 1_555 1_555
C20 N8A 1_555 1_555
C21 C28 1_555 1_555
C22 C23 1_555 1_555
C30 N12A 1_555 1_555
O4A Mn2A 1_555 1_555
O6A Mn2A_2 1_555 1_555

#END
