
#######################################################################
#
#                 Cambridge Crystallographic Data Centre
#                                CCDC 
#
#######################################################################
#
# If this CIF has been generated from an entry in the Cambridge 
# Structural Database, then it will include bibliographic, chemical, 
# crystal, experimental, refinement or atomic coordinate data resulting 
# from the CCDC's data processing and validation procedures.
#
#######################################################################

data_NUFFAX
_symmetry_cell_setting           triclinic
_symmetry_space_group_name_H-M   'P -1'
_symmetry_Int_Tables_number      2
_space_group_name_Hall           '-P 1'
loop_
_symmetry_equiv_pos_site_id
_symmetry_equiv_pos_as_xyz
1 x,y,z
2 -x,-y,-z
_cell_length_a                   10.649(2)
_cell_length_b                   12.367(3)
_cell_length_c                   12.424(3)
_cell_angle_alpha                95.00(3)
_cell_angle_beta                 98.78(3)
_cell_angle_gamma                107.19(3)
_cell_volume                     1529.55
loop_
_atom_site_label
_atom_site_type_symbol
_atom_site_fract_x
_atom_site_fract_y
_atom_site_fract_z
Ag1 Ag 0.71038(9) 0.37920(7) 0.35190(7)
Ag2 Ag 0.94033(9) 0.61292(8) 0.58009(7)
P1 P 0.5378(3) 0.2114(2) 0.2755(2)
P2 P 0.0863(3) 0.2896(2) 0.25912(19)
N1 N 0.8600(10) 0.3368(9) 0.5849(8)
O1 O 0.8880(7) 0.4093(6) 0.5171(5)
O2 O 0.8435(15) 0.3712(13) 0.6752(9)
O3 O 0.8510(17) 0.2397(8) 0.5586(10)
N2 N 0.7724(10) 0.6295(8) 0.3371(9)
O4 O 0.8199(8) 0.5642(6) 0.3940(6)
O5 O 0.8063(14) 0.7308(9) 0.3720(11)
O6 O 0.6907(15) 0.5868(11) 0.2550(10)
N3 N 0.3554(8) 0.3162(7) 0.3323(6)
C1 C 0.3812(10) 0.2083(9) 0.3302(8)
H1 H 0.3048 0.1490 0.2841
H2 H 0.3901 0.1881 0.4049
C2 C 0.2655(10) 0.3283(8) 0.2410(7)
H3 H 0.2707 0.2801 0.1761
H4 H 0.2944 0.4079 0.2269
C3 C 0.4274(9) 0.4095(10) 0.4161(9)
C4 C 0.5188(10) 0.3945(7) 0.5009(8)
H5 H 0.5336 0.3233 0.5021
C5 C 0.4104(10) 0.5148(9) 0.4147(8)
H6 H 0.3505 0.5267 0.3565
C6 C 0.5539(10) 0.0738(8) 0.3015(8)
C7 C 0.6790(11) 0.0627(10) 0.3302(9)
H7 H 0.7551 0.1269 0.3361
C8 C 0.6950(12) -0.0394(12) 0.3502(10)
H8 H 0.7819 -0.0449 0.3666
C9 C 0.5850(13) -0.1366(10) 0.3470(10)
H9 H 0.5961 -0.2068 0.3618
C10 C 0.4595(14) -0.1245(11) 0.3211(13)
H10 H 0.3838 -0.1880 0.3191
C11 C 0.4414(12) -0.0209(10) 0.2977(12)
H11 H 0.3549 -0.0151 0.2797
C12 C 0.4771(11) 0.2051(9) 0.1295(7)
C13 C 0.4977(13) 0.3103(11) 0.0861(10)
H12 H 0.5532 0.3782 0.1303
C14 C 0.4384(17) 0.3149(14) -0.0189(10)
H13 H 0.4503 0.3856 -0.0452
C15 C 0.3615(17) 0.2151(16) -0.0852(11)
H14 H 0.3226 0.2173 -0.1578
C16 C 0.3408(18) 0.1101(15) -0.0450(12)
H15 H 0.2863 0.0415 -0.0886
C17 C 0.4022(15) 0.1112(12) 0.0592(10)
H16 H 0.3917 0.0402 0.0845
C18 C -0.0041(11) 0.3015(10) 0.1261(8)
C19 C -0.1419(15) 0.2559(18) 0.1040(11)
H17 H -0.1870 0.2240 0.1588
C20 C -0.2143(15) 0.2569(18) 0.0012(12)
H18 H -0.3075 0.2216 -0.0151
C21 C -0.1490(17) 0.3099(15) -0.0769(12)
H19 H -0.1992 0.3153 -0.1441
C22 C -0.0136(16) 0.3543(14) -0.0585(11)
H20 H 0.0294 0.3889 -0.1132
C23 C 0.0627(14) 0.3481(12) 0.0437(10)
C24 C 0.0530(10) 0.1371(9) 0.2574(8)
C25 C 0.0425(15) 0.0649(10) 0.1634(9)
H21 H 0.0373 0.0922 0.0951
C26 C 0.0393(15) -0.0469(11) 0.1677(11)
H22 H 0.0327 -0.0944 0.1024
C27 C 0.0458(12) -0.0897(10) 0.2660(10)
H23 H 0.0393 -0.1670 0.2678
C28 C 0.0619(13) -0.0178(11) 0.3629(11)
H24 H 0.0711 -0.0453 0.4308
C29 C 0.0645(12) 0.0934(10) 0.3596(9)
H25 H 0.0740 0.1413 0.4253
P1A P 0.4622(3) 0.7886(2) 0.7245(2)
P2A P 0.9137(3) 0.7104(2) 0.74088(19)
N3A N 0.6446(8) 0.6838(7) 0.6677(6)
C1A C 0.6188(10) 0.7917(9) 0.6698(8)
H1A H 0.6952 0.8510 0.7159
H2A H 0.6099 0.8119 0.5951
C2A C 0.7345(10) 0.6717(8) 0.7590(7)
H3A H 0.7293 0.7199 0.8239
H4A H 0.7056 0.5921 0.7731
C3A C 0.5726(9) 0.5905(10) 0.5839(9)
C4A C 0.4812(10) 0.6055(7) 0.4991(8)
H5A H 0.4664 0.6767 0.4979
C5A C 0.5896(10) 0.4852(9) 0.5853(8)
H6A H 0.6495 0.4733 0.6435
C6A C 0.4461(10) 0.9262(8) 0.6985(8)
C7A C 0.3210(11) 0.9373(10) 0.6698(9)
H7A H 0.2449 0.8731 0.6639
C8A C 0.3050(12) 1.0394(12) 0.6498(10)
H8A H 0.2181 1.0449 0.6334
C9A C 0.4150(13) 1.1366(10) 0.6530(10)
H9A H 0.4039 1.2068 0.6382
C10A C 0.5405(14) 1.1245(11) 0.6789(13)
H10A H 0.6162 1.1880 0.6809
C11A C 0.5586(12) 1.0209(10) 0.7023(12)
H11A H 0.6451 1.0151 0.7203
C12A C 0.5229(11) 0.7949(9) 0.8705(7)
C13A C 0.5023(13) 0.6897(11) 0.9139(10)
H12A H 0.4468 0.6218 0.8697
C14A C 0.5616(17) 0.6851(14) 1.0189(10)
H13A H 0.5497 0.6144 1.0452
C15A C 0.6385(17) 0.7849(16) 1.0852(11)
H14A H 0.6774 0.7827 1.1578
C16A C 0.6592(18) 0.8899(15) 1.0450(12)
H15A H 0.7137 0.9585 1.0886
C17A C 0.5978(15) 0.8888(12) 0.9408(10)
H16A H 0.6083 0.9598 0.9155
C18A C 1.0041(11) 0.6985(10) 0.8739(8)
C19A C 1.1419(15) 0.7441(18) 0.8960(11)
H17A H 1.1870 0.7760 0.8412
C20A C 1.2143(15) 0.7431(18) 0.9988(12)
H18A H 1.3075 0.7784 1.0151
C21A C 1.1490(17) 0.6901(15) 1.0769(12)
H19A H 1.1992 0.6847 1.1441
C22A C 1.0136(16) 0.6457(14) 1.0585(11)
H20A H 0.9706 0.6111 1.1132
C23A C 0.9373(14) 0.6519(12) 0.9563(10)
C24A C 0.9470(10) 0.8629(9) 0.7426(8)
C25A C 0.9575(15) 0.9351(10) 0.8366(9)
H21A H 0.9627 0.9078 0.9049
C26A C 0.9607(15) 1.0469(11) 0.8323(11)
H22A H 0.9673 1.0944 0.8976
C27A C 0.9542(12) 1.0897(10) 0.7340(10)
H23A H 0.9607 1.1670 0.7322
C28A C 0.9381(13) 1.0178(11) 0.6371(11)
H24A H 0.9289 1.0453 0.5692
C29A C 0.9355(12) 0.9066(10) 0.6404(9)
H25A H 0.9260 0.8587 0.5747
Ag1A Ag 0.28962(9) 0.62080(7) 0.64810(7)
Ag2A Ag 0.05967(9) 0.38708(8) 0.41991(7)
N1A N 0.1400(10) 0.6632(9) 0.4151(8)
O1A O 0.1120(7) 0.5907(6) 0.4829(5)
O2A O 0.1565(15) 0.6288(13) 0.3248(9)
O3A O 0.1490(17) 0.7603(8) 0.4414(10)
N2A N 0.2276(10) 0.3705(8) 0.6629(9)
O4A O 0.1801(8) 0.4358(6) 0.6060(6)
O5A O 0.1937(14) 0.2692(9) 0.6280(11)
O6A O 0.3093(15) 0.4132(11) 0.7450(10)
Ag2_2 Ag -0.05967(9) 0.61292(8) 0.58009(7)
Ag2A_2 Ag 1.05967(9) 0.38708(8) 0.41991(7)
O1_2 O -0.1120(7) 0.4093(6) 0.5171(5)
O1A_2 O 1.1120(7) 0.5907(6) 0.4829(5)
loop_
_geom_bond_atom_site_label_1
_geom_bond_atom_site_label_2
_geom_bond_site_symmetry_1
_geom_bond_site_symmetry_2
Ag1 P1 1_555 1_555
Ag2 O1 1_555 1_555
P1 C1 1_555 1_555
P2 C2 1_555 1_555
N1 O1 1_555 1_555
O1 Ag1 1_555 1_555
O2 N1 1_555 1_555
O3 N1 1_555 1_555
N2 O4 1_555 1_555
O4 Ag1 1_555 1_555
O5 N2 1_555 1_555
O6 N2 1_555 1_555
N3 C1 1_555 1_555
C1 H1 1_555 1_555
H2 C1 1_555 1_555
C2 N3 1_555 1_555
H3 C2 1_555 1_555
H4 C2 1_555 1_555
C3 N3 1_555 1_555
C4 C3 1_555 1_555
H5 C4 1_555 1_555
C5 C3 1_555 1_555
H6 C5 1_555 1_555
C6 P1 1_555 1_555
C7 C6 1_555 1_555
H7 C7 1_555 1_555
C8 C7 1_555 1_555
H8 C8 1_555 1_555
C9 C8 1_555 1_555
H9 C9 1_555 1_555
C10 C9 1_555 1_555
H10 C10 1_555 1_555
C11 C6 1_555 1_555
H11 C11 1_555 1_555
C12 P1 1_555 1_555
C13 C12 1_555 1_555
H12 C13 1_555 1_555
C14 C13 1_555 1_555
H13 C14 1_555 1_555
C15 C14 1_555 1_555
H14 C15 1_555 1_555
C16 C15 1_555 1_555
H15 C16 1_555 1_555
C17 C12 1_555 1_555
H16 C17 1_555 1_555
C18 P2 1_555 1_555
C19 C18 1_555 1_555
H17 C19 1_555 1_555
C20 C19 1_555 1_555
H18 C20 1_555 1_555
C21 C20 1_555 1_555
H19 C21 1_555 1_555
C22 C21 1_555 1_555
H20 C22 1_555 1_555
C23 C18 1_555 1_555
C24 P2 1_555 1_555
C25 C24 1_555 1_555
H21 C25 1_555 1_555
C26 C25 1_555 1_555
H22 C26 1_555 1_555
C27 C26 1_555 1_555
H23 C27 1_555 1_555
C28 C27 1_555 1_555
H24 C28 1_555 1_555
C29 C24 1_555 1_555
H25 C29 1_555 1_555
P1A C1A 1_555 1_555
P2A Ag2 1_555 1_555
N3A C1A 1_555 1_555
C1A H1A 1_555 1_555
H2A C1A 1_555 1_555
C2A P2A 1_555 1_555
H3A C2A 1_555 1_555
H4A C2A 1_555 1_555
C3A N3A 1_555 1_555
C4A C5 1_555 1_555
H5A C4A 1_555 1_555
C5A C4 1_555 1_555
H6A C5A 1_555 1_555
C6A P1A 1_555 1_555
C7A C6A 1_555 1_555
H7A C7A 1_555 1_555
C8A C7A 1_555 1_555
H8A C8A 1_555 1_555
C9A C8A 1_555 1_555
H9A C9A 1_555 1_555
C10A C9A 1_555 1_555
H10A C10A 1_555 1_555
C11A C6A 1_555 1_555
H11A C11A 1_555 1_555
C12A P1A 1_555 1_555
C13A C12A 1_555 1_555
H12A C13A 1_555 1_555
C14A C13A 1_555 1_555
H13A C14A 1_555 1_555
C15A C14A 1_555 1_555
H14A C15A 1_555 1_555
C16A C15A 1_555 1_555
H15A C16A 1_555 1_555
C17A C12A 1_555 1_555
H16A C17A 1_555 1_555
C18A P2A 1_555 1_555
C19A C18A 1_555 1_555
H17A C19A 1_555 1_555
C20A C19A 1_555 1_555
H18A C20A 1_555 1_555
C21A C20A 1_555 1_555
H19A C21A 1_555 1_555
C22A C21A 1_555 1_555
H20A C22A 1_555 1_555
C23A C18A 1_555 1_555
C24A P2A 1_555 1_555
C25A C24A 1_555 1_555
H21A C25A 1_555 1_555
C26A C25A 1_555 1_555
H22A C26A 1_555 1_555
C27A C26A 1_555 1_555
H23A C27A 1_555 1_555
C28A C27A 1_555 1_555
H24A C28A 1_555 1_555
C29A C24A 1_555 1_555
H25A C29A 1_555 1_555
Ag1A P1A 1_555 1_555
Ag2A P2 1_555 1_555
N1A O1A 1_555 1_555
O1A Ag1A 1_555 1_555
O2A N1A 1_555 1_555
O3A N1A 1_555 1_555
N2A O4A 1_555 1_555
O4A Ag1A 1_555 1_555
O5A N2A 1_555 1_555
O6A N2A 1_555 1_555
Ag2_2 O1A 1_555 1_555
Ag2A_2 O1 1_555 1_555
O1_2 Ag2A 1_555 1_555
O1A_2 Ag2 1_555 1_555
Ag2 O4 1_555 1_555
C10 C11 1_555 1_555
C16 C17 1_555 1_555
C22 C23 1_555 1_555
C28 C29 1_555 1_555
N3A C2A 1_555 1_555
C3A C4A 1_555 1_555
C3A C5A 1_555 1_555
C10A C11A 1_555 1_555
C16A C17A 1_555 1_555
C22A C23A 1_555 1_555
C28A C29A 1_555 1_555
Ag2A O1A 1_555 1_555
Ag2A O4A 1_555 1_555
Ag2_2 O1_2 1_555 1_555
Ag2A_2 O1A_2 1_555 1_555

#END
