
#######################################################################
#
#                 Cambridge Crystallographic Data Centre
#                                CCDC 
#
#######################################################################
#
# If this CIF has been generated from an entry in the Cambridge 
# Structural Database, then it will include bibliographic, chemical, 
# crystal, experimental, refinement or atomic coordinate data resulting 
# from the CCDC's data processing and validation procedures.
#
#######################################################################

data_NUFGUQ
_symmetry_cell_setting           monoclinic
_symmetry_space_group_name_H-M   'C 2/c'
_symmetry_Int_Tables_number      15
_space_group_name_Hall           '-C 2yn'
loop_
_symmetry_equiv_pos_site_id
_symmetry_equiv_pos_as_xyz
1 x,y,z
2 1/2+x,1/2+y,z
3 x,-y,1/2+z
4 1/2+x,1/2-y,1/2+z
5 -x,-y,-z
6 1/2-x,1/2-y,-z
7 -x,y,1/2-z
8 1/2-x,1/2+y,1/2-z
_cell_length_a                   27.780(7)
_cell_length_b                   14.177(6)
_cell_length_c                   44.949(13)
_cell_angle_alpha                90
_cell_angle_beta                 95.61(2)
_cell_angle_gamma                90
_cell_volume                     17617.8
loop_
_atom_site_label
_atom_site_type_symbol
_atom_site_fract_x
_atom_site_fract_y
_atom_site_fract_z
Sm1 Sm 0.495523(16) 0.13763(3) 0.613910(11)
Sm2 Sm 0.636932(16) 0.09095(3) 0.644696(10)
Sm3 Sm 0.750151(16) -0.10205(3) 0.641851(11)
Sm4 Sm 0.866325(16) -0.21418(3) 0.603594(11)
S1 S 0.57985(8) 0.25089(16) 0.62711(5)
S2 S 0.57973(8) 0.07172(16) 0.58762(5)
S3 S 0.54621(8) 0.06304(16) 0.66669(5)
S4 S 0.64878(8) -0.10344(17) 0.62864(5)
S5 S 0.70769(8) -0.00308(16) 0.68797(5)
S6 S 0.72438(8) 0.08516(17) 0.62020(5)
S7 S 0.76418(8) -0.24010(17) 0.59835(5)
S8 S 0.84117(8) -0.17268(17) 0.66447(5)
S9 S 0.82867(8) -0.03456(17) 0.61073(5)
S10 S 0.40462(8) 0.12734(16) 0.63837(5)
S11 S 0.42222(8) 0.16946(17) 0.56621(5)
S12 S 0.46263(8) 0.33048(17) 0.61789(5)
C1 C 0.5731(3) 0.3457(6) 0.65213(18)
C2 C 0.5594(3) 0.3332(7) 0.6801(2)
H1 H 0.5534 0.2726 0.6868
C3 C 0.5541(3) 0.4108(7) 0.6992(2)
H2 H 0.5446 0.4012 0.7182
C4 C 0.5630(3) 0.5005(7) 0.6896(2)
H3 H 0.5604 0.5519 0.7022
C5 C 0.5756(3) 0.5133(7) 0.6612(2)
H4 H 0.5804 0.5741 0.6542
C6 C 0.5815(3) 0.4367(6) 0.6425(2)
H5 H 0.5911 0.4465 0.6235
C7 C 0.5883(3) 0.1557(6) 0.5594(2)
C8 C 0.5516(3) 0.1712(7) 0.5364(2)
H6 H 0.5228 0.1375 0.5361
C9 C 0.5573(4) 0.2353(7) 0.5142(2)
H7 H 0.5320 0.2460 0.4994
C10 C 0.5994(4) 0.2834(8) 0.5135(2)
H8 H 0.6030 0.3263 0.4982
C11 C 0.6364(4) 0.2684(8) 0.5353(2)
H9 H 0.6651 0.3020 0.5349
C12 C 0.6317(4) 0.2032(7) 0.5582(2)
H10 H 0.6576 0.1918 0.5725
C13 C 0.5236(3) -0.0479(6) 0.67775(19)
C14 C 0.5323(3) -0.1314(7) 0.6636(2)
H11 H 0.5513 -0.1316 0.6477
C15 C 0.5130(3) -0.2140(7) 0.6729(2)
H12 H 0.5183 -0.2701 0.6629
C16 C 0.4856(3) -0.2139(8) 0.6970(2)
H13 H 0.4722 -0.2699 0.7031
C17 C 0.4783(3) -0.1337(7) 0.7116(2)
H14 H 0.4605 -0.1348 0.7281
C18 C 0.4970(3) -0.0490(7) 0.7024(2)
H15 H 0.4918 0.0065 0.7126
C19 C 0.6276(3) -0.1532(7) 0.5940(2)
C20 C 0.6393(4) -0.1208(7) 0.5677(2)
H16 H 0.6597 -0.0688 0.5673
C21 C 0.5907(4) -0.2401(9) 0.5432(3)
H17 H 0.5771 -0.2679 0.5256
C22 C 0.5788(4) -0.2769(9) 0.5684(3)
H18 H 0.5596 -0.3305 0.5686
C23 C 0.6209(4) -0.1655(8) 0.5402(3)
H19 H 0.6290 -0.1449 0.5216
C24 C 0.5964(4) -0.2320(7) 0.5945(3)
H20 H 0.5876 -0.2539 0.6127
C25 C 0.6827(3) -0.0700(6) 0.71553(19)
C26 C 0.7058(3) -0.0768(6) 0.74468(19)
H21 H 0.7354 -0.0468 0.7494
C27 C 0.6851(3) -0.1276(7) 0.7664(2)
H22 H 0.7011 -0.1319 0.7856
C28 C 0.6409(3) -0.1724(7) 0.7602(2)
H23 H 0.6270 -0.2061 0.7749
C29 C 0.6183(3) -0.1657(7) 0.7319(2)
H24 H 0.5887 -0.1958 0.7275
C30 C 0.6378(3) -0.1161(6) 0.7100(2)
H25 H 0.6211 -0.1126 0.6911
C31 C 0.7707(3) 0.1685(6) 0.6326(2)
C32 C 0.8010(3) 0.1497(7) 0.65807(19)
H26 H 0.7962 0.0963 0.6694
C33 C 0.8390(3) 0.2120(7) 0.6666(2)
H27 H 0.8599 0.1990 0.6836
C34 C 0.8456(3) 0.2913(7) 0.6505(2)
H28 H 0.8703 0.3336 0.6566
C35 C 0.8159(3) 0.3072(7) 0.6258(2)
H29 H 0.8210 0.3608 0.6146
C36 C 0.7775(3) 0.2475(6) 0.6157(2)
H30 H 0.7575 0.2606 0.5984
C37 C 0.7387(3) -0.3552(6) 0.60181(19)
C38 C 0.6980(3) -0.3774(7) 0.5834(2)
H31 H 0.6843 -0.3330 0.5699
C39 C 0.6770(4) -0.4678(7) 0.5850(2)
H32 H 0.6501 -0.4838 0.5720
C40 C 0.6962(3) -0.5317(7) 0.6057(2)
H33 H 0.6822 -0.5909 0.6071
C41 C 0.7367(3) -0.5074(7) 0.6245(2)
H34 H 0.7496 -0.5504 0.6387
C42 C 0.7585(3) -0.4197(6) 0.6225(2)
H35 H 0.7861 -0.4046 0.6349
C43 C 0.8673(3) -0.0799(6) 0.68708(18)
C44 C 0.9132(3) -0.0432(7) 0.6832(2)
H36 H 0.9297 -0.0652 0.6676
C45 C 0.9342(4) 0.0245(7) 0.7020(2)
H37 H 0.9646 0.0480 0.6989
C46 C 0.9102(3) 0.0583(7) 0.7257(2)
H38 H 0.9243 0.1042 0.7385
C47 C 0.8656(3) 0.0226(7) 0.7296(2)
H39 H 0.8492 0.0443 0.7454
C48 C 0.8446(3) -0.0452(6) 0.71056(19)
H40 H 0.8142 -0.0681 0.7137
C49 C 0.8125(3) 0.0334(7) 0.5784(2)
C50 C 0.8377(3) 0.1142(6) 0.5729(2)
H41 H 0.8645 0.1308 0.5859
C51 C 0.8243(4) 0.1707(7) 0.5487(2)
H42 H 0.8414 0.2258 0.5457
C52 C 0.7859(4) 0.1459(8) 0.5290(2)
H43 H 0.7772 0.1841 0.5125
C53 C 0.7598(4) 0.0654(7) 0.5332(2)
H44 H 0.7332 0.0496 0.5200
C54 C 0.7741(3) 0.0080(7) 0.5575(2)
H45 H 0.7578 -0.0484 0.5600
C55 C 0.4120(3) 0.1375(6) 0.67778(19)
C56 C 0.3897(3) 0.0741(7) 0.6956(2)
H46 H 0.3695 0.0275 0.6868
C57 C 0.3977(3) 0.0805(7) 0.7269(2)
H47 H 0.3830 0.0380 0.7389
C58 C 0.4274(3) 0.1504(8) 0.7396(2)
H48 H 0.4333 0.1545 0.7602
C59 C 0.4481(3) 0.2138(7) 0.7217(2)
H49 H 0.4672 0.2619 0.7306
C60 C 0.4417(3) 0.2085(7) 0.6915(2)
H50 H 0.4569 0.2515 0.6799
C61 C 0.3859(3) 0.0737(6) 0.5529(2)
C62 C 0.3954(3) 0.0258(7) 0.5269(2)
H51 H 0.4223 0.0424 0.5173
C63 C 0.3653(4) -0.0460(8) 0.5152(2)
H52 H 0.3717 -0.0757 0.4975
C64 C 0.3268(4) -0.0728(8) 0.5293(2)
H53 H 0.3076 -0.1226 0.5217
C65 C 0.3155(4) -0.0273(7) 0.5549(2)
H54 H 0.2887 -0.0445 0.5645
C66 C 0.3457(3) 0.0444(7) 0.5657(2)
H55 H 0.3383 0.0753 0.5829
C67 C 0.4772(3) 0.4122(7) 0.59027(19)
C68 C 0.5055(3) 0.3897(7) 0.5677(2)
H56 H 0.5193 0.3300 0.5672
C69 C 0.5135(3) 0.4547(7) 0.5459(2)
H57 H 0.5335 0.4388 0.5312
C70 C 0.4928(3) 0.5416(7) 0.5455(2)
H58 H 0.4970 0.5837 0.5301
C71 C 0.4658(4) 0.5660(7) 0.5680(2)
H59 H 0.4524 0.6261 0.5683
C72 C 0.4579(3) 0.5025(7) 0.5908(2)
H60 H 0.4398 0.5205 0.6062
O1 O 0.47418(19) -0.0276(4) 0.60026(13)
C73 C 0.4887(3) -0.0763(6) 0.57356(19)
H61 H 0.5224 -0.0950 0.5766
H62 H 0.4843 -0.0353 0.5562
C74 C 0.4563(3) -0.1618(6) 0.5693(2)
H63 H 0.4272 -0.1476 0.5564
H64 H 0.4730 -0.2139 0.5608
C75 C 0.4447(3) -0.1841(6) 0.6006(2)
H65 H 0.4151 -0.2204 0.6005
H66 H 0.4709 -0.2184 0.6117
C76 C 0.4390(3) -0.0870(6) 0.6135(2)
H67 H 0.4064 -0.0637 0.6084
H68 H 0.4455 -0.0882 0.6351
O2 O 0.6668(2) 0.2103(4) 0.68016(13)
C77 C 0.6651(4) 0.2065(7) 0.7118(2)
H69 H 0.6856 0.1555 0.7200
H70 H 0.6323 0.1937 0.7162
C78 C 0.6814(4) 0.2947(7) 0.7256(2)
H71 H 0.7124 0.2868 0.7372
H72 H 0.6581 0.3182 0.7385
C79 C 0.6858(3) 0.3614(6) 0.6994(2)
H73 H 0.6568 0.3992 0.6954
H74 H 0.7134 0.4029 0.7033
C80 C 0.6922(3) 0.2961(6) 0.6743(2)
H75 H 0.6789 0.3236 0.6555
H76 H 0.7262 0.2832 0.6732
O3 O 0.7280(2) -0.2411(4) 0.67240(13)
C81 C 0.7549(3) -0.2688(7) 0.7002(2)
H77 H 0.7625 -0.2138 0.7127
H78 H 0.7849 -0.2992 0.6964
C82 C 0.7243(4) -0.3347(7) 0.7154(2)
H79 H 0.7046 -0.3012 0.7286
H80 H 0.7439 -0.3811 0.7269
C83 C 0.6935(4) -0.3806(7) 0.6901(2)
H81 H 0.6632 -0.4028 0.6965
H82 H 0.7102 -0.4330 0.6818
C84 C 0.6852(3) -0.3007(6) 0.6676(2)
H83 H 0.6816 -0.3252 0.6473
H84 H 0.6563 -0.2654 0.6709
O4 O 0.8441(2) -0.1682(4) 0.55088(13)
C85 C 0.8156(3) -0.2251(7) 0.52862(19)
H85 H 0.7856 -0.2454 0.5360
H86 H 0.8336 -0.2802 0.5233
C86 C 0.8059(3) -0.1605(7) 0.5025(2)
H87 H 0.7750 -0.1289 0.5032
H88 H 0.8053 -0.1954 0.4839
C87 C 0.8469(3) -0.0894(7) 0.5050(2)
H89 H 0.8346 -0.0254 0.5051
H90 H 0.8668 -0.0962 0.4885
C88 C 0.8756(3) -0.1130(7) 0.5346(2)
H91 H 0.9044 -0.1485 0.5313
H92 H 0.8851 -0.0558 0.5455
S10A S 0.90462(8) -0.37266(16) 0.63837(5)
S11A S 0.92222(8) -0.33054(17) 0.56621(5)
S12A S 0.96263(8) -0.16952(17) 0.61789(5)
Sm4A Sm 0.366325(16) 0.28582(3) 0.603594(11)
loop_
_geom_bond_atom_site_label_1
_geom_bond_atom_site_label_2
_geom_bond_site_symmetry_1
_geom_bond_site_symmetry_2
Sm1 S1 1_555 1_555
Sm2 S1 1_555 1_555
Sm3 S4 1_555 1_555
Sm4 S7 1_555 1_555
S1 C1 1_555 1_555
S2 Sm1 1_555 1_555
S3 Sm1 1_555 1_555
S4 Sm2 1_555 1_555
S5 Sm2 1_555 1_555
S6 Sm2 1_555 1_555
S7 Sm3 1_555 1_555
S8 Sm3 1_555 1_555
S9 Sm3 1_555 1_555
S10 Sm1 1_555 1_555
S11 Sm1 1_555 1_555
S12 Sm1 1_555 1_555
C1 C2 1_555 1_555
C2 H1 1_555 1_555
C3 C2 1_555 1_555
H2 C3 1_555 1_555
C4 C3 1_555 1_555
H3 C4 1_555 1_555
C5 C4 1_555 1_555
H4 C5 1_555 1_555
C6 C1 1_555 1_555
H5 C6 1_555 1_555
C7 S2 1_555 1_555
C8 C7 1_555 1_555
H6 C8 1_555 1_555
C9 C8 1_555 1_555
H7 C9 1_555 1_555
C10 C9 1_555 1_555
H8 C10 1_555 1_555
C11 C10 1_555 1_555
H9 C11 1_555 1_555
C12 C7 1_555 1_555
H10 C12 1_555 1_555
C13 S3 1_555 1_555
C14 C13 1_555 1_555
H11 C14 1_555 1_555
C15 C14 1_555 1_555
H12 C15 1_555 1_555
C16 C15 1_555 1_555
H13 C16 1_555 1_555
C17 C16 1_555 1_555
H14 C17 1_555 1_555
C18 C13 1_555 1_555
H15 C18 1_555 1_555
C19 S4 1_555 1_555
C20 C19 1_555 1_555
H16 C20 1_555 1_555
C21 H17 1_555 1_555
C22 C21 1_555 1_555
H18 C22 1_555 1_555
C23 C20 1_555 1_555
H19 C23 1_555 1_555
C24 C19 1_555 1_555
H20 C24 1_555 1_555
C25 S5 1_555 1_555
C26 C25 1_555 1_555
H21 C26 1_555 1_555
C27 C26 1_555 1_555
H22 C27 1_555 1_555
C28 C27 1_555 1_555
H23 C28 1_555 1_555
C29 C28 1_555 1_555
H24 C29 1_555 1_555
C30 C25 1_555 1_555
H25 C30 1_555 1_555
C31 S6 1_555 1_555
C32 C31 1_555 1_555
H26 C32 1_555 1_555
C33 C32 1_555 1_555
H27 C33 1_555 1_555
C34 C33 1_555 1_555
H28 C34 1_555 1_555
C35 C34 1_555 1_555
H29 C35 1_555 1_555
C36 C31 1_555 1_555
H30 C36 1_555 1_555
C37 S7 1_555 1_555
C38 C37 1_555 1_555
H31 C38 1_555 1_555
C39 C38 1_555 1_555
H32 C39 1_555 1_555
C40 C39 1_555 1_555
H33 C40 1_555 1_555
C41 C40 1_555 1_555
H34 C41 1_555 1_555
C42 C37 1_555 1_555
H35 C42 1_555 1_555
C43 S8 1_555 1_555
C44 C43 1_555 1_555
H36 C44 1_555 1_555
C45 C44 1_555 1_555
H37 C45 1_555 1_555
C46 C45 1_555 1_555
H38 C46 1_555 1_555
C47 C46 1_555 1_555
H39 C47 1_555 1_555
C48 C43 1_555 1_555
H40 C48 1_555 1_555
C49 S9 1_555 1_555
C50 C49 1_555 1_555
H41 C50 1_555 1_555
C51 C50 1_555 1_555
H42 C51 1_555 1_555
C52 C51 1_555 1_555
H43 C52 1_555 1_555
C53 C52 1_555 1_555
H44 C53 1_555 1_555
C54 C49 1_555 1_555
H45 C54 1_555 1_555
C55 S10 1_555 1_555
C56 C55 1_555 1_555
H46 C56 1_555 1_555
C57 C56 1_555 1_555
H47 C57 1_555 1_555
C58 C57 1_555 1_555
H48 C58 1_555 1_555
C59 C58 1_555 1_555
H49 C59 1_555 1_555
C60 C55 1_555 1_555
H50 C60 1_555 1_555
C61 S11 1_555 1_555
C62 C61 1_555 1_555
H51 C62 1_555 1_555
C63 C62 1_555 1_555
H52 C63 1_555 1_555
C64 C63 1_555 1_555
H53 C64 1_555 1_555
C65 C64 1_555 1_555
H54 C65 1_555 1_555
C66 C61 1_555 1_555
H55 C66 1_555 1_555
C67 S12 1_555 1_555
C68 C67 1_555 1_555
H56 C68 1_555 1_555
C69 C68 1_555 1_555
H57 C69 1_555 1_555
C70 C69 1_555 1_555
H58 C70 1_555 1_555
C71 C70 1_555 1_555
H59 C71 1_555 1_555
C72 C67 1_555 1_555
H60 C72 1_555 1_555
O1 Sm1 1_555 1_555
C73 O1 1_555 1_555
H61 C73 1_555 1_555
H62 C73 1_555 1_555
C74 C73 1_555 1_555
H63 C74 1_555 1_555
H64 C74 1_555 1_555
C75 C74 1_555 1_555
H65 C75 1_555 1_555
H66 C75 1_555 1_555
C76 O1 1_555 1_555
H67 C76 1_555 1_555
H68 C76 1_555 1_555
O2 Sm2 1_555 1_555
C77 O2 1_555 1_555
H69 C77 1_555 1_555
H70 C77 1_555 1_555
C78 C77 1_555 1_555
H71 C78 1_555 1_555
H72 C78 1_555 1_555
C79 C78 1_555 1_555
H73 C79 1_555 1_555
H74 C79 1_555 1_555
C80 O2 1_555 1_555
H75 C80 1_555 1_555
H76 C80 1_555 1_555
O3 Sm3 1_555 1_555
C81 O3 1_555 1_555
H77 C81 1_555 1_555
H78 C81 1_555 1_555
C82 C81 1_555 1_555
H79 C82 1_555 1_555
H80 C82 1_555 1_555
C83 C82 1_555 1_555
H81 C83 1_555 1_555
H82 C83 1_555 1_555
C84 O3 1_555 1_555
H83 C84 1_555 1_555
H84 C84 1_555 1_555
O4 Sm4 1_555 1_555
C85 O4 1_555 1_555
H85 C85 1_555 1_555
H86 C85 1_555 1_555
C86 C85 1_555 1_555
H87 C86 1_555 1_555
H88 C86 1_555 1_555
C87 C86 1_555 1_555
H89 C87 1_555 1_555
H90 C87 1_555 1_555
C88 O4 1_555 1_555
H91 C88 1_555 1_555
H92 C88 1_555 1_555
S10A Sm4 1_555 1_555
S11A Sm4 1_555 1_555
S12A Sm4 1_555 1_555
Sm4A S10 1_555 1_555
Sm2 S2 1_555 1_555
Sm2 S3 1_555 1_555
Sm3 S5 1_555 1_555
Sm3 S6 1_555 1_555
Sm4 S8 1_555 1_555
Sm4 S9 1_555 1_555
S11 Sm4A 1_555 1_555
S12 Sm4A 1_555 1_555
C5 C6 1_555 1_555
C11 C12 1_555 1_555
C17 C18 1_555 1_555
C21 C23 1_555 1_555
C22 C24 1_555 1_555
C29 C30 1_555 1_555
C35 C36 1_555 1_555
C41 C42 1_555 1_555
C47 C48 1_555 1_555
C53 C54 1_555 1_555
C59 C60 1_555 1_555
C65 C66 1_555 1_555
C71 C72 1_555 1_555
C75 C76 1_555 1_555
C79 C80 1_555 1_555
C83 C84 1_555 1_555
C87 C88 1_555 1_555

#END
