
#######################################################################
#
#                 Cambridge Crystallographic Data Centre
#                                CCDC 
#
#######################################################################
#
# If this CIF has been generated from an entry in the Cambridge 
# Structural Database, then it will include bibliographic, chemical, 
# crystal, experimental, refinement or atomic coordinate data resulting 
# from the CCDC's data processing and validation procedures.
#
#######################################################################

data_NUFPAG
_symmetry_cell_setting           monoclinic
_symmetry_space_group_name_H-M   'P 21'
_symmetry_Int_Tables_number      4
_space_group_name_Hall           'P 2yb'
loop_
_symmetry_equiv_pos_site_id
_symmetry_equiv_pos_as_xyz
1 x,y,z
2 -x,1/2+y,-z
_cell_length_a                   6.0255(8)
_cell_length_b                   8.0326(9)
_cell_length_c                   20.377(2)
_cell_angle_alpha                90
_cell_angle_beta                 95.532(9)
_cell_angle_gamma                90
_cell_volume                     981.662
loop_
_atom_site_label
_atom_site_type_symbol
_atom_site_fract_x
_atom_site_fract_y
_atom_site_fract_z
Zn1 Zn 1.01424(7) 0.16792(6) 0.75035(2)
C1 C 0.4914(5) 0.2038(4) 0.78479(17)
O1 O 0.3597(3) 0.1771(4) 0.73272(9)
O2 O 0.6967(4) 0.2202(3) 0.78516(13)
C2 C 0.3940(5) 0.2119(4) 0.85065(16)
H1 H 0.4677 0.3014 0.8772
N1 N 0.1532(4) 0.2468(4) 0.84057(14)
H2 H 0.1311 0.3571 0.8442
H3 H 0.0845 0.1957 0.8723
C3 C 0.4391(6) 0.0461(5) 0.88654(17)
H4 H 0.3747 -0.0438 0.8592
H5 H 0.5988 0.0278 0.8935
C4 C 0.3423(6) 0.0430(5) 0.95218(17)
C5 C 0.4466(6) 0.1238(4) 1.00663(17)
H6 H 0.5836 0.1750 1.0035
C6 C 0.3513(6) 0.1301(5) 1.06574(17)
H7 H 0.4260 0.1824 1.1021
C7 C 0.1441(6) 0.0581(4) 1.07057(17)
O3 O 0.0361(4) 0.0698(3) 1.12642(12)
H8 H 0.1244 0.0995 1.1573
C8 C 0.0400(6) -0.0265(4) 1.01720(16)
H9 H -0.0961 -0.0789 1.0205
C9 C 0.1388(6) -0.0327(5) 0.95910(18)
H10 H 0.0669 -0.0895 0.9234
C10 C 0.8321(6) -0.1604(5) 0.74719(17)
O4 O 0.9895(5) -0.0850(3) 0.78037(14)
O5 O 0.7421(4) -0.2919(4) 0.76627(12)
C11 C 0.7507(6) -0.0960(4) 0.67860(15)
H11 H 0.5924 -0.0673 0.6779
N2 N 0.8759(6) 0.0552(4) 0.66367(15)
H12 H 0.7838 0.1273 0.6409
H13 H 0.9852 0.0280 0.6385
C12 C 0.7758(7) -0.2342(5) 0.62808(16)
H14 H 0.9317 -0.2660 0.6306
H15 H 0.6926 -0.3305 0.6407
C13 C 0.7001(6) -0.1927(4) 0.55780(17)
C14 C 0.4860(7) -0.1389(5) 0.53816(18)
H16 H 0.3899 -0.1161 0.5701
C15 C 0.4106(7) -0.1181(5) 0.47222(18)
H17 H 0.2652 -0.0829 0.4603
C16 C 0.5507(6) -0.1495(5) 0.42478(17)
O6 O 0.4643(4) -0.1331(4) 0.36004(12)
H18 H 0.5529 -0.1712 0.3358
C17 C 0.7670(7) -0.1956(5) 0.44297(18)
H19 H 0.8648 -0.2126 0.4110
C18 C 0.8392(6) -0.2168(5) 0.50863(18)
H20 H 0.9863 -0.2484 0.5202
O7 O 0.9967(4) 0.4044(3) 0.70303(13)
H21 H 0.8747 0.4450 0.6972
H22 H 1.0676 0.4735 0.7243
Zn1_2 Zn 0.01424(7) 0.16792(6) 0.75035(2)
O1_2 O 1.3597(3) 0.1771(4) 0.73272(9)
N1_2 N 1.1532(4) 0.2468(4) 0.84057(14)
H2_2 H 1.1311 0.3571 0.8442
H3_2 H 1.0845 0.1957 0.8723
O8 O 1.2913(5) 0.6290(5) 0.7547(2)
H23 H 1.2210 0.6852 0.7761
H24 H 1.4085 0.6701 0.7549
loop_
_geom_bond_atom_site_label_1
_geom_bond_atom_site_label_2
_geom_bond_site_symmetry_1
_geom_bond_site_symmetry_2
Zn1 O2 1_555 1_555
C1 O1 1_555 1_555
O1 Zn1_2 1_555 1_555
O2 C1 1_555 1_555
C2 C1 1_555 1_555
H1 C2 1_555 1_555
N1 C2 1_555 1_555
H2 N1 1_555 1_555
H3 N1 1_555 1_555
C3 C2 1_555 1_555
H4 C3 1_555 1_555
H5 C3 1_555 1_555
C4 C3 1_555 1_555
C5 C4 1_555 1_555
H6 C5 1_555 1_555
C6 C5 1_555 1_555
H7 C6 1_555 1_555
C7 C6 1_555 1_555
O3 C7 1_555 1_555
H8 O3 1_555 1_555
C8 C7 1_555 1_555
H9 C8 1_555 1_555
C9 C4 1_555 1_555
H10 C9 1_555 1_555
C10 O4 1_555 1_555
O4 Zn1 1_555 1_555
O5 C10 1_555 1_555
C11 C10 1_555 1_555
H11 C11 1_555 1_555
N2 Zn1 1_555 1_555
H12 N2 1_555 1_555
H13 N2 1_555 1_555
C12 C11 1_555 1_555
H14 C12 1_555 1_555
H15 C12 1_555 1_555
C13 C12 1_555 1_555
C14 C13 1_555 1_555
H16 C14 1_555 1_555
C15 C14 1_555 1_555
H17 C15 1_555 1_555
C16 C15 1_555 1_555
O6 C16 1_555 1_555
H18 O6 1_555 1_555
C17 C16 1_555 1_555
H19 C17 1_555 1_555
C18 C13 1_555 1_555
H20 C18 1_555 1_555
O7 Zn1 1_555 1_555
H21 O7 1_555 1_555
H22 O7 1_555 1_555
O8 H23 1_555 1_555
H24 O8 1_555 1_555
Zn1_2 N1 1_555 1_555
O1_2 Zn1 1_555 1_555
N1_2 Zn1 1_555 1_555
H2_2 N1_2 1_555 1_555
H3_2 N1_2 1_555 1_555
C8 C9 1_555 1_555
C11 N2 1_555 1_555
C17 C18 1_555 1_555

#END
