
#######################################################################
#
#                 Cambridge Crystallographic Data Centre
#                                CCDC 
#
#######################################################################
#
# If this CIF has been generated from an entry in the Cambridge 
# Structural Database, then it will include bibliographic, chemical, 
# crystal, experimental, refinement or atomic coordinate data resulting 
# from the CCDC's data processing and validation procedures.
#
#######################################################################

data_NUFRAI
_symmetry_cell_setting           monoclinic
_symmetry_space_group_name_H-M   'C 2/c'
_symmetry_Int_Tables_number      15
_space_group_name_Hall           '-C 2yn'
loop_
_symmetry_equiv_pos_site_id
_symmetry_equiv_pos_as_xyz
1 x,y,z
2 -x,y,1/2-z
3 1/2+x,1/2+y,z
4 1/2-x,1/2+y,1/2-z
5 -x,-y,-z
6 x,-y,1/2+z
7 1/2-x,1/2-y,-z
8 1/2+x,1/2-y,1/2+z
_cell_length_a                   20.701(4)
_cell_length_b                   12.196(2)
_cell_length_c                   13.787(2)
_cell_angle_alpha                90
_cell_angle_beta                 125.088(7)
_cell_angle_gamma                90
_cell_volume                     2848.23
loop_
_atom_site_label
_atom_site_type_symbol
_atom_site_fract_x
_atom_site_fract_y
_atom_site_fract_z
Cd1 Cd 0.423234(9) 1.220070(13) 0.303839(14)
Cl1 Cl 0.41298(4) 1.18505(5) 0.47439(5)
Cl2 Cl 0.56584(4) 1.24334(7) 0.40607(7)
N1 N 0.37584(11) 1.04816(15) 0.21845(17)
C1 C 0.40633(16) 0.9572(2) 0.2852(2)
H1 H 0.4557 0.9622 0.3602
C2 C 0.36866(18) 0.8564(2) 0.2489(2)
H2 H 0.3924 0.7931 0.2969
C3 C 0.29585(18) 0.84995(19) 0.1414(2)
H3 H 0.2680 0.7824 0.1158
C4 C 0.26341(14) 0.94315(18) 0.0705(2)
H4 H 0.2136 0.9402 -0.0041
C5 C 0.30590(13) 1.04030(17) 0.11167(18)
C6 C 0.27489(12) 1.14696(16) 0.04685(18)
N2 N 0.29282(10) 1.23280(14) 0.11791(16)
C7 C 0.23004(12) 1.16504(16) -0.07663(18)
C8 C 0.20368(12) 1.08205(17) -0.17127(18)
C9 C 0.24928(13) 0.99182(17) -0.1592(2)
H5 H 0.2999 0.9797 -0.0879
C10 C 0.21834(15) 0.92015(18) -0.2545(2)
H6 H 0.2474 0.8570 -0.2483
C11 C 0.14513(15) 0.94092(19) -0.3586(2)
H7 H 0.1228 0.8921 -0.4241
C12 C 0.10550(14) 1.03515(19) -0.3644(2)
H8 H 0.0563 1.0514 -0.4365
N3 N 0.13335(11) 1.10437(15) -0.27300(17)
Cd1A Cd 0.576766(9) 1.220070(13) 0.196161(14)
Cd1F Cd 0.076766(9) 1.279930(13) -0.303839(14)
Cl1A Cl 0.58702(4) 1.18505(5) 0.02561(5)
Cl2A Cl 0.43416(4) 1.24334(7) 0.09393(7)
N1F N 0.12416(11) 1.45184(15) -0.21845(17)
N1A N 0.62416(11) 1.04816(15) 0.28155(17)
C1F C 0.09367(16) 1.5428(2) -0.2852(2)
H1F H 0.0443 1.5378 -0.3602
C2F C 0.13134(18) 1.6436(2) -0.2489(2)
H2F H 0.1076 1.7069 -0.2969
C3F C 0.20415(18) 1.65005(19) -0.1414(2)
H3F H 0.2320 1.7176 -0.1158
C4F C 0.23659(14) 1.55685(18) -0.0705(2)
H4F H 0.2864 1.5598 0.0041
C5F C 0.19410(13) 1.45970(17) -0.11167(18)
C6F C 0.22511(12) 1.35304(16) -0.04685(18)
N2F N 0.20718(10) 1.26720(14) -0.11791(16)
N2A N 0.70718(10) 1.23280(14) 0.38209(16)
C7F C 0.26996(12) 1.33496(16) 0.07663(18)
C8F C 0.29632(12) 1.41795(17) 0.17127(18)
C9F C 0.25072(13) 1.50818(17) 0.1592(2)
H5F H 0.2001 1.5203 0.0879
C10F C 0.28166(15) 1.57985(18) 0.2545(2)
H6F H 0.2526 1.6430 0.2483
C11F C 0.35487(15) 1.55908(19) 0.3586(2)
H7F H 0.3772 1.6079 0.4241
C12F C 0.39450(14) 1.46485(19) 0.3644(2)
H8F H 0.4437 1.4486 0.4365
N3F N 0.36665(11) 1.39563(15) 0.27300(17)
N3G N 0.63335(11) 1.39563(15) 0.22700(17)
O1 O 0.08904(15) 0.8544(2) -0.1538(2)
H9 H 0.0830 0.8047 -0.1127
C13 C 0.0333(2) 0.9350(3) -0.1854(3)
H10 H 0.0596 1.0074 -0.1645
H11 H 0.0112 0.9250 -0.1385
O1A O -0.08904(15) 0.8544(2) -0.3462(2)
H9A H -0.0830 0.8047 -0.3873
C13A C -0.0333(2) 0.9350(3) -0.3146(3)
H10A H -0.0596 1.0074 -0.3355
H11A H -0.0112 0.9250 -0.3615
loop_
_geom_bond_atom_site_label_1
_geom_bond_atom_site_label_2
_geom_bond_site_symmetry_1
_geom_bond_site_symmetry_2
Cd1 Cl1 1_555 1_555
Cl2 Cd1 1_555 1_555
N1 Cd1 1_555 1_555
C1 N1 1_555 1_555
H1 C1 1_555 1_555
C2 C1 1_555 1_555
H2 C2 1_555 1_555
C3 C2 1_555 1_555
H3 C3 1_555 1_555
C4 C3 1_555 1_555
H4 C4 1_555 1_555
C5 N1 1_555 1_555
C6 C5 1_555 1_555
N2 Cd1 1_555 1_555
C7 C6 1_555 1_555
C8 C7 1_555 1_555
C9 C8 1_555 1_555
H5 C9 1_555 1_555
C10 C9 1_555 1_555
H6 C10 1_555 1_555
C11 C10 1_555 1_555
H7 C11 1_555 1_555
C12 C11 1_555 1_555
H8 C12 1_555 1_555
N3 C8 1_555 1_555
O1 H9 1_555 1_555
C13 O1 1_555 1_555
H10 C13 1_555 1_555
H11 C13 1_555 1_555
Cd1A Cl2 1_555 1_555
Cd1F N3 1_555 1_555
Cl1A Cd1A 1_555 1_555
Cl2A Cd1 1_555 1_555
N1F Cd1F 1_555 1_555
N1A Cd1A 1_555 1_555
C1F N1F 1_555 1_555
H1F C1F 1_555 1_555
C2F C1F 1_555 1_555
H2F C2F 1_555 1_555
C3F C2F 1_555 1_555
H3F C3F 1_555 1_555
C4F C3F 1_555 1_555
H4F C4F 1_555 1_555
C5F N1F 1_555 1_555
C6F C5F 1_555 1_555
N2F C7 1_555 1_555
N2A Cd1A 1_555 1_555
C7F N2 1_555 1_555
C8F C7F 1_555 1_555
C9F C8F 1_555 1_555
H5F C9F 1_555 1_555
C10F C9F 1_555 1_555
H6F C10F 1_555 1_555
C11F C10F 1_555 1_555
H7F C11F 1_555 1_555
C12F C11F 1_555 1_555
H8F C12F 1_555 1_555
N3F Cd1 1_555 1_555
N3G Cd1A 1_555 1_555
O1A H9A 1_555 1_555
C13A C13 1_555 1_555
H10A C13A 1_555 1_555
H11A C13A 1_555 1_555
C4 C5 1_555 1_555
C6 N2 1_555 1_555
C12 N3 1_555 1_555
Cd1A Cl2A 1_555 1_555
Cd1F N2F 1_555 1_555
C4F C5F 1_555 1_555
C6F N2F 1_555 1_555
C6F C7F 1_555 1_555
C8F N3F 1_555 1_555
C12F N3F 1_555 1_555
O1A C13A 1_555 1_555

#END
