
#######################################################################
#
#                 Cambridge Crystallographic Data Centre
#                                CCDC 
#
#######################################################################
#
# If this CIF has been generated from an entry in the Cambridge 
# Structural Database, then it will include bibliographic, chemical, 
# crystal, experimental, refinement or atomic coordinate data resulting 
# from the CCDC's data processing and validation procedures.
#
#######################################################################

data_NUFYET
_symmetry_cell_setting           monoclinic
_symmetry_space_group_name_H-M   'P 21/c'
_symmetry_Int_Tables_number      14
_space_group_name_Hall           '-P 2ybc'
loop_
_symmetry_equiv_pos_site_id
_symmetry_equiv_pos_as_xyz
1 x,y,z
2 -x,1/2+y,1/2-z
3 -x,-y,-z
4 x,1/2-y,1/2+z
_cell_length_a                   9.65009(12)
_cell_length_b                   10.05853(15)
_cell_length_c                   6.750693(85)
_cell_angle_alpha                90
_cell_angle_beta                 92.47859(92)
_cell_angle_gamma                90
_cell_volume                     654.648
loop_
_atom_site_label
_atom_site_type_symbol
_atom_site_fract_x
_atom_site_fract_y
_atom_site_fract_z
Ga1 Ga 0.99245(13) 0.25563(14) 0.09967(16)
O1 O 0.99094(55) 0.33929(35) -0.15486(85)
O2 O 1.12038(39) 0.39545(42) 0.21172(48)
O3 O 1.16468(46) 0.34476(46) 0.53337(53)
O4 O 1.84722(43) 0.37115(47) 0.49581(58)
O5 O 1.83223(44) 0.36876(47) 0.16463(57)
C1 C 1.62806(39) 0.43100(51) 0.32906(60)
C2 C 1.55251(41) 0.37860(60) 0.16787(82)
C3 C 1.40700(41) 0.37817(63) 0.17837(71)
C4 C 1.34958(39) 0.43042(51) 0.34774(63)
C5 C 1.42626(29) 0.49965(47) 0.50262(72)
C6 C 1.78224(41) 0.39655(61) 0.32996(58)
C7 C 1.19564(38) 0.39069(63) 0.36337(54)
O2B O 1.87962(39) 0.60455(42) 0.78828(48)
O3B O 1.83532(46) 0.65524(46) 0.46663(53)
O4B O 1.15278(43) 0.62885(47) 0.50419(58)
O5B O 1.16777(44) 0.63124(47) 0.83537(57)
C1B C 1.37194(39) 0.56900(51) 0.67094(60)
C2B C 1.44749(41) 0.62140(60) 0.83213(82)
C3B C 1.59300(41) 0.62183(63) 0.82163(71)
C4B C 1.65042(39) 0.56958(51) 0.65226(63)
C5B C 1.57374(29) 0.50035(47) 0.49738(72)
C6B C 1.21776(41) 0.60345(61) 0.67004(58)
C7B C 1.80436(38) 0.60931(63) 0.63663(54)
Ga1B Ga 1.00755(13) 0.74437(14) 0.90033(16)
O1B O 1.00906(55) 0.66071(35) 1.15486(85)
Ga1_2 Ga 1.99245(13) 0.25563(14) 0.09967(16)
Ga1A Ga 1.00755(13) 0.75563(14) 0.40033(16)
Ga1A_2 Ga 1.00755(13) 0.75563(14) 1.40033(16)
Ga1A_3 Ga 2.00755(13) 0.75563(14) 0.40033(16)
Ga1B_2 Ga 2.00755(13) 0.74437(14) 0.90033(16)
Ga1C Ga 0.99245(13) 0.24437(14) -0.40033(16)
Ga1C_2 Ga 0.99245(13) 0.24437(14) 0.59967(16)
Ga1C_3 Ga 1.99245(13) 0.24437(14) 0.59967(16)
O1A O 1.00906(55) 0.83929(35) 0.65486(85)
O1C O 0.99094(55) 0.16071(35) 0.34514(85)
O2B_2 O 0.87962(39) 0.60455(42) 0.78828(48)
O3A O 0.83532(46) 0.84476(46) 0.96663(53)
O3C O 1.16468(46) 0.15524(46) 0.03337(53)
O4A O 1.15278(43) 0.87115(47) 1.00419(58)
O4C O 0.84722(43) 0.12885(47) -0.00419(58)
O5_2 O 0.83223(44) 0.36876(47) 0.16463(57)
loop_
_geom_bond_atom_site_label_1
_geom_bond_atom_site_label_2
_geom_bond_site_symmetry_1
_geom_bond_site_symmetry_2
Ga1 O1 1_555 1_555
O1 Ga1C 1_555 1_555
O2 Ga1 1_555 1_555
O3 C7 1_555 1_555
O4 C6 1_555 1_555
O5 C6 1_555 1_555
C1 C2 1_555 1_555
C2 C3 1_555 1_555
C3 C4 1_555 1_555
C4 C5 1_555 1_555
C5 C1B 1_555 1_555
C6 C1 1_555 1_555
C7 O2 1_555 1_555
O2B C7B 1_555 1_555
O3B C7B 1_555 1_555
O4B C6B 1_555 1_555
O5B C6B 1_555 1_555
C1B C2B 1_555 1_555
C2B C3B 1_555 1_555
C3B C4B 1_555 1_555
C4B C5B 1_555 1_555
C5B C1 1_555 1_555
C6B C1B 1_555 1_555
C7B C4B 1_555 1_555
Ga1B O5B 1_555 1_555
O1B Ga1B 1_555 1_555
Ga1_2 O5 1_555 1_555
Ga1A O4B 1_555 1_555
Ga1A_2 O1B 1_555 1_555
Ga1A_3 O3B 1_555 1_555
Ga1B_2 O2B 1_555 1_555
Ga1C_2 O3 1_555 1_555
Ga1C_3 O4 1_555 1_555
O1A Ga1B 1_555 1_555
O1C Ga1 1_555 1_555
O2B_2 Ga1B 1_555 1_555
O3A Ga1B 1_555 1_555
O3C Ga1 1_555 1_555
O4A Ga1B 1_555 1_555
O4C Ga1 1_555 1_555
O5_2 Ga1 1_555 1_555
C4 C7 1_555 1_555
C5 C5B 1_555 1_555
Ga1A O1A 1_555 1_555
Ga1C_2 O1C 1_555 1_555

#END
