
#######################################################################
#
#                 Cambridge Crystallographic Data Centre
#                                CCDC 
#
#######################################################################
#
# If this CIF has been generated from an entry in the Cambridge 
# Structural Database, then it will include bibliographic, chemical, 
# crystal, experimental, refinement or atomic coordinate data resulting 
# from the CCDC's data processing and validation procedures.
#
#######################################################################

data_NUFYES
_symmetry_cell_setting           monoclinic
_symmetry_space_group_name_H-M   'P 2/n'
_symmetry_Int_Tables_number      13
_space_group_name_Hall           '-P 2yac'
loop_
_symmetry_equiv_pos_site_id
_symmetry_equiv_pos_as_xyz
1 x,y,z
2 1/2+x,-y,1/2+z
3 -x,-y,-z
4 1/2-x,y,1/2-z
_cell_length_a                   13.150(3)
_cell_length_b                   11.368(2)
_cell_length_c                   14.745(3)
_cell_angle_alpha                90
_cell_angle_beta                 110.60(3)
_cell_angle_gamma                90
_cell_volume                     2063.28
loop_
_atom_site_label
_atom_site_type_symbol
_atom_site_fract_x
_atom_site_fract_y
_atom_site_fract_z
Zn1 Zn -0.2500 -0.97686(4) -0.2500
N1 N -0.2500 -0.1643(3) -0.2500
C1 C -0.2331(3) -0.2272(3) -0.1685(2)
H1 H -0.2189(3) -0.1834(3) -0.1103(2)
C2 C -0.2316(3) -0.3477(3) -0.1650(2)
H2 H -0.2307(3) -0.3809(3) -0.1155(2)
C3 C -0.2500 -0.4103(4) -0.2500
C4 C -0.2500 -0.5426(4) -0.2500
C5 C -0.1900(3) -0.6053(3) -0.1681(2)
H3 H -0.1528(3) -0.5605(3) -0.1142(2)
C6 C -0.1922(3) -0.7268(3) -0.1711(2)
H4 H -0.1538(3) -0.7682(3) -0.1230(2)
N2 N -0.2500 -0.7896(3) -0.2500
N3 N -0.3418(2) -0.9826(2) -0.1511(2)
O1 O -0.0975(2) -0.9803(2) -0.1259(2)
H5 H -0.0685(2) -1.0511(2) -0.1128(2)
H6 H -0.0563(2) -0.9166(2) -0.1221(2)
C7 C -0.3121(3) -0.9279(3) -0.0651(3)
H7 H -0.2639(3) -0.8706(3) -0.0584(3)
C8 C -0.3720(3) -0.9314(4) -0.0053(3)
H8 H -0.3409(3) -0.8902(4) 0.0527(3)
C9 C -0.4676(3) -0.9963(3) -0.0317(3)
C10 C -0.5032(3) -0.9467(4) 0.1202(3)
H9 H -0.4451(3) -0.8935(4) 0.1343(3)
C11 C -0.5663(3) -0.9558(4) 0.1768(3)
H10 H -0.5565(3) -0.9081(4) 0.2341(3)
C2C C -0.2684(3) -0.3477(3) -0.3350(2)
C1C C -0.2669(3) -0.2272(3) -0.3315(2)
H1C H -0.2811(3) -0.1834(3) -0.3897(2)
H2C H -0.2693(3) -0.3809(3) -0.3845(2)
Zn1_2 Zn -0.2500 0.02314(4) -0.2500
N1_2 N -0.2500 -1.1643(3) -0.2500
C9B C -0.5324(3) -1.0037(3) 0.0317(3)
C8B C -0.6280(3) -1.0686(4) 0.0053(3)
C7B C -0.6879(3) -1.0721(3) 0.0651(3)
N3B N -0.6582(2) -1.0174(2) 0.1511(2)
Zn1A Zn -0.7500 -1.02314(4) 0.2500
H7B H -0.7361(3) -1.1294(3) 0.0584(3)
H8B H -0.6591(3) -1.1098(4) -0.0527(3)
C10B C -0.4968(3) -1.0533(4) -0.1202(3)
H9B H -0.5549(3) -1.1065(4) -0.1343(3)
C11B C -0.4337(3) -1.0442(4) -0.1768(3)
H10B H -0.4435(3) -1.0919(4) -0.2341(3)
O1C O -0.4025(2) -0.9803(2) -0.3741(2)
H5C H -0.4315(2) -1.0511(2) -0.3872(2)
H6C H -0.4437(2) -0.9166(2) -0.3779(2)
C6C C -0.3078(3) -0.7268(3) -0.3289(2)
C5C C -0.3100(3) -0.6053(3) -0.3319(2)
H3C H -0.3472(3) -0.5605(3) -0.3858(2)
H4C H -0.3462(3) -0.7682(3) -0.3770(2)
N3C N -0.1582(2) -0.9826(2) -0.3489(2)
N4 N 0.4351(3) 0.2925(4) -0.1259(4)
N5 N 0.0768(3) 0.1644(4) -0.1126(3)
C12 C 0.5195(5) 0.3504(6) -0.1337(6)
H11 H 0.5816(5) 0.3138(6) -0.1339(6)
C13 C 0.5264(5) 0.4680(6) -0.1384(5)
H12 H 0.5782(5) 0.5109(6) -0.1554(5)
C14 C 0.4415(5) 0.5322(5) -0.1352(5)
H13 H 0.4438(5) 0.6079(5) -0.1342(5)
C15 C 0.3530(4) 0.4770(4) -0.1278(4)
H14 H 0.2920(4) 0.5298(4) -0.1261(4)
C16 C 0.3519(3) 0.3571(4) -0.1237(3)
C17 C 0.2566(3) 0.2901(4) -0.1182(3)
C18 C 0.1734(3) 0.3448(4) -0.0981(3)
H15 H 0.1840(3) 0.4274(4) -0.0829(3)
C19 C 0.0864(3) 0.2786(4) -0.0955(3)
H16 H 0.0386(3) 0.3344(4) -0.0791(3)
C20 C 0.1568(4) 0.1115(4) -0.1329(4)
H17 H 0.1426(4) 0.0237(4) -0.1542(4)
C21 C 0.2484(3) 0.1702(4) -0.1338(4)
H18 H 0.3128 0.1361 -0.1496
Cl1 Cl 0.07076(9) -0.29409(9) -0.11128(7)
O2 O 0.0446(3) -0.1928(3) -0.0672(3)
O3 O 0.0365(4) -0.3961(3) -0.0738(3)
O4 O 0.1825(3) -0.3021(5) -0.0873(5)
O5 O 0.0098(5) -0.2914(4) -0.2116(3)
O6 O -0.2500 0.1778(6) -0.7500
H19 H -0.3067 0.2211(6) -0.7878
H19C H -0.1933 0.2211(6) -0.7122
loop_
_geom_bond_atom_site_label_1
_geom_bond_atom_site_label_2
_geom_bond_site_symmetry_1
_geom_bond_site_symmetry_2
Zn1 N2 1_555 1_555
N1 C1 1_555 1_555
C1 H1 1_555 1_555
C2 C1 1_555 1_555
H2 C2 1_555 1_555
C3 C2 1_555 1_555
C4 C3 1_555 1_555
C5 C4 1_555 1_555
H3 C5 1_555 1_555
C6 C5 1_555 1_555
H4 C6 1_555 1_555
N2 C6 1_555 1_555
N3 Zn1 1_555 1_555
O1 Zn1 1_555 1_555
H5 O1 1_555 1_555
H6 O1 1_555 1_555
C7 N3 1_555 1_555
H7 C7 1_555 1_555
C8 C7 1_555 1_555
H8 C8 1_555 1_555
C9 C8 1_555 1_555
C10 H9 1_555 1_555
C11 C10 1_555 1_555
H10 C11 1_555 1_555
N4 C12 1_555 1_555
N5 C19 1_555 1_555
C12 H11 1_555 1_555
C13 C12 1_555 1_555
H12 C13 1_555 1_555
C14 C13 1_555 1_555
H13 C14 1_555 1_555
C15 C14 1_555 1_555
H14 C15 1_555 1_555
C16 N4 1_555 1_555
C17 C16 1_555 1_555
C18 C17 1_555 1_555
H15 C18 1_555 1_555
C19 C18 1_555 1_555
H16 C19 1_555 1_555
C20 N5 1_555 1_555
H17 C20 1_555 1_555
C21 C17 1_555 1_555
H18 C21 1_555 1_555
Cl1 O2 1_555 1_555
O3 Cl1 1_555 1_555
O4 Cl1 1_555 1_555
O5 Cl1 1_555 1_555
O6 H19 1_555 1_555
C2C C3 1_555 1_555
C1C N1 1_555 1_555
H1C C1C 1_555 1_555
H2C C2C 1_555 1_555
Zn1_2 N1 1_555 1_555
N1_2 Zn1 1_555 1_555
C9B C9 1_555 1_555
C8B C9B 1_555 1_555
C7B C8B 1_555 1_555
N3B C11 1_555 1_555
Zn1A N3B 1_555 1_555
H7B C7B 1_555 1_555
H8B C8B 1_555 1_555
C10B C9 1_555 1_555
H9B C10B 1_555 1_555
C11B N3 1_555 1_555
H10B C11B 1_555 1_555
O1C Zn1 1_555 1_555
H5C O1C 1_555 1_555
H6C O1C 1_555 1_555
C6C N2 1_555 1_555
C5C C4 1_555 1_555
H3C C5C 1_555 1_555
H4C C6C 1_555 1_555
H19C O6 1_555 1_555
N3C Zn1 1_555 1_555
C10 C9B 1_555 1_555
C15 C16 1_555 1_555
C20 C21 1_555 1_555
C2C C1C 1_555 1_555
C7B N3B 1_555 1_555
C10B C11B 1_555 1_555
C6C C5C 1_555 1_555

#END
