
#######################################################################
#
#                 Cambridge Crystallographic Data Centre
#                                CCDC 
#
#######################################################################
#
# If this CIF has been generated from an entry in the Cambridge 
# Structural Database, then it will include bibliographic, chemical, 
# crystal, experimental, refinement or atomic coordinate data resulting 
# from the CCDC's data processing and validation procedures.
#
#######################################################################

data_NUGBUO
_symmetry_cell_setting           rhombohedral
_symmetry_space_group_name_H-M   'R -3'
_symmetry_Int_Tables_number      148
_space_group_name_Hall           '-R 3'
loop_
_symmetry_equiv_pos_site_id
_symmetry_equiv_pos_as_xyz
1 x,y,z
2 -y,x-y,z
3 -x+y,-x,z
4 2/3+x,1/3+y,1/3+z
5 2/3-y,1/3+x-y,1/3+z
6 2/3-x+y,1/3-x,1/3+z
7 1/3+x,2/3+y,2/3+z
8 1/3-y,2/3+x-y,2/3+z
9 1/3-x+y,2/3-x,2/3+z
10 -x,-y,-z
11 y,-x+y,-z
12 x-y,x,-z
13 1/3-x,2/3-y,2/3-z
14 1/3+y,2/3-x+y,2/3-z
15 1/3+x-y,2/3+x,2/3-z
16 2/3-x,1/3-y,1/3-z
17 2/3+y,1/3-x+y,1/3-z
18 2/3+x-y,1/3+x,1/3-z
_cell_length_a                   16.458(2)
_cell_length_b                   16.458(2)
_cell_length_c                   35.911(7)
_cell_angle_alpha                90
_cell_angle_beta                 90
_cell_angle_gamma                120
_cell_volume                     8423.88
loop_
_atom_site_label
_atom_site_type_symbol
_atom_site_fract_x
_atom_site_fract_y
_atom_site_fract_z
Ni1 Ni 0.5000 0.0000 1.0000
N1 N 0.52652(6) 0.09064(5) 1.04378(2)
H1 H 0.5051 0.0526 1.0672
N2 N 0.38197(6) 0.01124(6) 0.99017(2)
H2 H 0.3965 0.0568 0.9693
N3 N 0.31240(6) -0.12238(6) 0.94706(2)
O1 O 0.57545(5) 0.11805(4) 0.96605(2)
O2 O 0.57124(6) 0.06881(5) 0.90759(2)
C1 C 0.62713(7) 0.16140(6) 1.04826(3)
H3 H 0.6480 0.2027 1.0261
H4 H 0.6342 0.2009 1.0702
C2 C 0.46569(8) 0.13088(6) 1.03745(3)
H5 H 0.4937 0.1806 1.0183
H6 H 0.4592 0.1592 1.0608
C3 C 0.36948(8) 0.05322(7) 1.02455(3)
H7 H 0.3402 0.0047 1.0441
H8 H 0.3280 0.0795 1.0196
C4 C 0.29833(7) -0.07904(7) 0.97952(3)
H9 H 0.2805 -0.1231 1.0007
H10 H 0.2454 -0.0680 0.9747
C5 C 0.32151(8) -0.07519(8) 0.91134(3)
H11 H 0.3422 -0.1040 0.8921
H12 H 0.3706 -0.0084 0.9136
C6 C 0.23034(8) -0.08111(8) 0.89878(3)
H13 H 0.1803 -0.1478 0.8978
H14 H 0.2116 -0.0489 0.9173
C7 C 0.23950(10) -0.03680(9) 0.86069(3)
H15 H 0.2944 0.0275 0.8610
H16 H 0.2518 -0.0734 0.8419
C8 C 0.15394(12) -0.03186(12) 0.84894(4)
H17 H 0.1413 0.0043 0.8678
H18 H 0.0992 -0.0962 0.8484
C9 C 0.16340(17) 0.01294(17) 0.81126(5)
H19 H 0.2130 0.0789 0.8123
H20 H 0.1038 0.0090 0.8045
H21 H 0.1795 -0.0201 0.7926
C10 C 0.58789(6) 0.13152(5) 0.93137(2)
C11 C 0.62700(5) 0.23225(5) 0.91839(2)
H22 H 0.6272 0.2328 0.8905
C12 C 0.72811(5) 0.29372(5) 0.93193(2)
H23 H 0.7297 0.2927 0.9595
H24 H 0.7674 0.2684 0.9224
N1I N 0.47348(6) -0.09064(5) 0.95622(2)
H1I H 0.4949 -0.0526 0.9328
N2I N 0.61803(6) -0.01124(6) 1.00983(2)
H2I H 0.6035 -0.0568 1.0307
N3I N 0.68760(6) 0.12238(6) 1.05294(2)
C1I C 0.37287(7) -0.16140(6) 0.95174(3)
H3I H 0.3520 -0.2027 0.9739
H4I H 0.3658 -0.2009 0.9298
C2I C 0.53431(8) -0.13088(6) 0.96255(3)
H5I H 0.5063 -0.1806 0.9817
H6I H 0.5408 -0.1592 0.9392
C3I C 0.63052(8) -0.05322(7) 0.97545(3)
H7I H 0.6598 -0.0047 0.9559
H8I H 0.6720 -0.0795 0.9804
C4I C 0.70167(7) 0.07904(7) 1.02048(3)
H9I H 0.7195 0.1231 0.9993
H10I H 0.7546 0.0680 1.0253
C5I C 0.67849(8) 0.07519(8) 1.08866(3)
H11I H 0.6578 0.1040 1.1079
H12I H 0.6294 0.0084 1.0864
C6I C 0.76966(8) 0.08111(8) 1.10122(3)
H13I H 0.8197 0.1478 1.1022
H14I H 0.7884 0.0489 1.0827
C7I C 0.76050(10) 0.03680(9) 1.13931(3)
H15I H 0.7056 -0.0275 1.1390
H16I H 0.7482 0.0734 1.1581
C8I C 0.84606(12) 0.03186(12) 1.15106(4)
H17I H 0.8587 -0.0043 1.1322
H18I H 0.9008 0.0962 1.1516
C9I C 0.83660(17) -0.01294(17) 1.18874(5)
H19I H 0.7870 -0.0789 1.1877
H20I H 0.8962 -0.0090 1.1955
H21I H 0.8205 0.0201 1.2074
O1A O 0.88195(4) 0.45740(6) 0.96605(2)
O2A O 0.93119(5) 0.50243(8) 0.90759(2)
C10A C 0.86848(5) 0.45637(8) 0.93137(2)
C11A C 0.76775(5) 0.39475(7) 0.91839(2)
H22A H 0.7672 0.3944 0.8905
C12A C 0.70628(5) 0.43439(7) 0.93193(2)
H23A H 0.7073 0.4370 0.9595
H24A H 0.7316 0.4990 0.9224
O1B O 0.54260(6) 0.42455(5) 0.96605(2)
O2B O 0.49757(8) 0.42876(6) 0.90759(2)
C10B C 0.54363(8) 0.41211(6) 0.93137(2)
C11B C 0.60525(7) 0.37300(5) 0.91839(2)
H22B H 0.6056 0.3728 0.8905
C12B C 0.56561(7) 0.27189(5) 0.93193(2)
H23B H 0.5630 0.2703 0.9595
H24B H 0.5010 0.2326 0.9224
Ni1A Ni 1.0000 0.5000 1.0000
N1A N 0.90936(5) 0.43588(8) 1.04378(2)
H1A H 0.9474 0.4525 1.0672
N2A N 0.98876(6) 0.37073(8) 0.99017(2)
H2A H 0.9432 0.3397 0.9693
N3A N 1.12238(6) 0.43478(8) 0.94706(2)
C1A C 0.83860(6) 0.46573(9) 1.04826(3)
H3A H 0.7973 0.4453 1.0261
H4A H 0.7991 0.4333 1.0702
C2A C 0.86912(6) 0.33481(10) 1.03745(3)
H5A H 0.8194 0.3131 1.0183
H6A H 0.8408 0.3000 1.0608
C3A C 0.94678(7) 0.31626(11) 1.02455(3)
H7A H 0.9953 0.3355 1.0441
H8A H 0.9205 0.2485 1.0196
C4A C 1.07904(7) 0.37737(10) 0.97952(3)
H9A H 1.1231 0.4036 1.0007
H10A H 1.0680 0.3134 0.9747
C5A C 1.07519(8) 0.39670(11) 0.91134(3)
H11A H 1.1040 0.4462 0.8921
H12A H 1.0084 0.3790 0.9136
C6A C 1.08111(8) 0.31145(11) 0.89878(3)
H13A H 1.1478 0.3281 0.8978
H14A H 1.0489 0.2605 0.9173
C7A C 1.03680(9) 0.27630(13) 0.86069(3)
H15A H 0.9725 0.2669 0.8610
H16A H 1.0734 0.3252 0.8419
C8A C 1.03186(12) 0.18580(17) 0.84894(4)
H17A H 0.9957 0.1370 0.8678
H18A H 1.0962 0.1954 0.8484
C9A C 0.98706(17) 0.15046(24) 0.81126(5)
H19A H 0.9211 0.1341 0.8123
H20A H 0.9910 0.0948 0.8045
H21A H 1.0201 0.1996 0.7926
N1J N 1.09064(5) 0.56412(8) 0.95622(2)
H1J H 1.0526 0.5475 0.9328
N2J N 1.01124(6) 0.62927(8) 1.00983(2)
H2J H 1.0568 0.6603 1.0307
N3J N 0.87762(6) 0.56522(8) 1.05294(2)
C1J C 1.16140(6) 0.53427(9) 0.95174(3)
H3J H 1.2027 0.5547 0.9739
H4J H 1.2009 0.5667 0.9298
C2J C 1.13088(6) 0.66519(10) 0.96255(3)
H5J H 1.1806 0.6869 0.9817
H6J H 1.1592 0.7000 0.9392
C3J C 1.05322(7) 0.68374(11) 0.97545(3)
H7J H 1.0047 0.6645 0.9559
H8J H 1.0795 0.7515 0.9804
C4J C 0.92096(7) 0.62263(10) 1.02048(3)
H9J H 0.8769 0.5964 0.9993
H10J H 0.9320 0.6866 1.0253
C5J C 0.92481(8) 0.60330(11) 1.08866(3)
H11J H 0.8960 0.5538 1.1079
H12J H 0.9916 0.6210 1.0864
C6J C 0.91889(8) 0.68855(11) 1.10122(3)
H13J H 0.8522 0.6719 1.1022
H14J H 0.9511 0.7395 1.0827
C7J C 0.96320(9) 0.72370(13) 1.13931(3)
H15J H 1.0275 0.7331 1.1390
H16J H 0.9266 0.6748 1.1581
C8J C 0.96814(12) 0.81420(17) 1.15106(4)
H17J H 1.0043 0.8630 1.1322
H18J H 0.9038 0.8046 1.1516
C9J C 1.01294(17) 0.84954(24) 1.18874(5)
H19J H 1.0789 0.8659 1.1877
H20J H 1.0090 0.9052 1.1955
H21J H 0.9799 0.8004 1.2074
Ni1B Ni 0.5000 0.5000 1.0000
N1B N 0.56412(8) 0.47348(6) 1.04378(2)
H1B H 0.5475 0.4949 1.0672
N2B N 0.62927(8) 0.61803(6) 0.99017(2)
H2B H 0.6603 0.6035 0.9693
N3B N 0.56522(8) 0.68760(6) 0.94706(2)
C1B C 0.53427(9) 0.37287(7) 1.04826(3)
H3B H 0.5547 0.3520 1.0261
H4B H 0.5667 0.3658 1.0702
C2B C 0.66519(10) 0.53431(8) 1.03745(3)
H5B H 0.6869 0.5063 1.0183
H6B H 0.7000 0.5408 1.0608
C3B C 0.68374(11) 0.63052(8) 1.02455(3)
H7B H 0.6645 0.6598 1.0441
H8B H 0.7515 0.6720 1.0196
C4B C 0.62263(10) 0.70167(7) 0.97952(3)
H9B H 0.5964 0.7195 1.0007
H10B H 0.6866 0.7546 0.9747
C5B C 0.60330(11) 0.67849(8) 0.91134(3)
H11B H 0.5538 0.6578 0.8921
H12B H 0.6210 0.6294 0.9136
C6B C 0.68855(11) 0.76966(8) 0.89878(3)
H13B H 0.6719 0.8197 0.8978
H14B H 0.7395 0.7884 0.9173
C7B C 0.72370(13) 0.76050(10) 0.86069(3)
H15B H 0.7331 0.7056 0.8610
H16B H 0.6748 0.7482 0.8419
C8B C 0.81420(17) 0.84606(12) 0.84894(4)
H17B H 0.8630 0.8587 0.8678
H18B H 0.8046 0.9008 0.8484
C9B C 0.84954(24) 0.83660(17) 0.81126(5)
H19B H 0.8659 0.7870 0.8123
H20B H 0.9052 0.8962 0.8045
H21B H 0.8004 0.8205 0.7926
N1K N 0.43588(8) 0.52652(6) 0.95622(2)
H1K H 0.4525 0.5051 0.9328
N2K N 0.37073(8) 0.38197(6) 1.00983(2)
H2K H 0.3397 0.3965 1.0307
N3K N 0.43478(8) 0.31240(6) 1.05294(2)
C1K C 0.46573(9) 0.62713(7) 0.95174(3)
H3K H 0.4453 0.6480 0.9739
H4K H 0.4333 0.6342 0.9298
C2K C 0.33481(10) 0.46569(8) 0.96255(3)
H5K H 0.3131 0.4937 0.9817
H6K H 0.3000 0.4592 0.9392
C3K C 0.31626(11) 0.36948(8) 0.97545(3)
H7K H 0.3355 0.3402 0.9559
H8K H 0.2485 0.3280 0.9804
C4K C 0.37737(10) 0.29833(7) 1.02048(3)
H9K H 0.4036 0.2805 0.9993
H10K H 0.3134 0.2454 1.0253
C5K C 0.39670(11) 0.32151(8) 1.08866(3)
H11K H 0.4462 0.3422 1.1079
H12K H 0.3790 0.3706 1.0864
C6K C 0.31145(11) 0.23034(8) 1.10122(3)
H13K H 0.3281 0.1803 1.1022
H14K H 0.2605 0.2116 1.0827
C7K C 0.27630(13) 0.23950(10) 1.13931(3)
H15K H 0.2669 0.2944 1.1390
H16K H 0.3252 0.2518 1.1581
C8K C 0.18580(17) 0.15394(12) 1.15106(4)
H17K H 0.1370 0.1413 1.1322
H18K H 0.1954 0.0992 1.1516
C9K C 0.15046(24) 0.16340(17) 1.18874(5)
H19K H 0.1341 0.2130 1.1877
H20K H 0.0948 0.1038 1.1955
H21K H 0.1996 0.1795 1.2074
O1I O 0.42455(5) -0.11805(4) 1.03395(2)
O2I O 0.42876(6) -0.06881(5) 1.09241(2)
C10I C 0.41211(6) -0.13152(5) 1.06863(2)
C11I C 0.37300(5) -0.23225(5) 1.08161(2)
H22I H 0.3728 -0.2328 1.1095
C12I C 0.27189(5) -0.29372(5) 1.06807(2)
H23I H 0.2703 -0.2927 1.0405
H24I H 0.2326 -0.2684 1.0776
O1J O 0.11805(4) -0.45740(6) 1.03395(2)
O2J O 0.06881(5) -0.50243(8) 1.09241(2)
C10J C 0.13152(5) -0.45637(8) 1.06863(2)
C11J C 0.23225(5) -0.39475(7) 1.08161(2)
H22J H 0.2328 -0.3944 1.1095
C12J C 0.29372(5) -0.43439(7) 1.06807(2)
H23J H 0.2927 -0.4370 1.0405
H24J H 0.2684 -0.4990 1.0776
O1K O 0.45740(6) -0.42455(5) 1.03395(2)
O2K O 0.50243(8) -0.42876(6) 1.09241(2)
C10K C 0.45637(8) -0.41211(6) 1.06863(2)
C11K C 0.39475(7) -0.37300(5) 1.08161(2)
H22K H 0.3944 -0.3728 1.1095
C12K C 0.43439(7) -0.27189(5) 1.06807(2)
H23K H 0.4370 -0.2703 1.0405
H24K H 0.4990 -0.2326 1.0776
Ni1A_2 Ni 0.0000 -0.5000 1.0000
Ni1B_2 Ni 0.5000 -0.5000 1.0000
O1J_2 O 1.11805(4) 0.54260(6) 1.03395(2)
O1K_2 O 0.45740(6) 0.57545(5) 1.03395(2)
O3 O 0.58600(8) 0.12616(7) 0.83415(2)
H25 H 0.6462 0.1590 0.8311
H26 H 0.5734 0.1003 0.8561
N4 N 0.30362(14) 0.13042(12) 0.94547(5)
C13 C 0.30885(16) 0.22553(13) 0.88600(5)
H27 H 0.3446 0.2927 0.8918
H28 H 0.2457 0.2090 0.8777
H29 H 0.3407 0.2113 0.8661
C14 C 0.30226(12) 0.17149(12) 0.91910(5)
loop_
_geom_bond_atom_site_label_1
_geom_bond_atom_site_label_2
_geom_bond_site_symmetry_1
_geom_bond_site_symmetry_2
Ni1 N1 1_555 1_555
N1 H1 1_555 1_555
N2 Ni1 1_555 1_555
H2 N2 1_555 1_555
N3 C4 1_555 1_555
O1 Ni1 1_555 1_555
O2 C10 1_555 1_555
C1 N1 1_555 1_555
H3 C1 1_555 1_555
H4 C1 1_555 1_555
C2 N1 1_555 1_555
H5 C2 1_555 1_555
H6 C2 1_555 1_555
C3 N2 1_555 1_555
H7 C3 1_555 1_555
H8 C3 1_555 1_555
C4 N2 1_555 1_555
H9 C4 1_555 1_555
H10 C4 1_555 1_555
C5 N3 1_555 1_555
H11 C5 1_555 1_555
H12 C5 1_555 1_555
C6 C5 1_555 1_555
H13 C6 1_555 1_555
H14 C6 1_555 1_555
C7 C6 1_555 1_555
H15 C7 1_555 1_555
H16 C7 1_555 1_555
C8 C7 1_555 1_555
H17 C8 1_555 1_555
H18 C8 1_555 1_555
C9 C8 1_555 1_555
H19 C9 1_555 1_555
H20 C9 1_555 1_555
H21 C9 1_555 1_555
C10 O1 1_555 1_555
C11 C10 1_555 1_555
H22 C11 1_555 1_555
C12 C11 1_555 1_555
H23 C12 1_555 1_555
H24 C12 1_555 1_555
O3 H25 1_555 1_555
H26 O3 1_555 1_555
N4 C14 1_555 1_555
C13 H27 1_555 1_555
H28 C13 1_555 1_555
H29 C13 1_555 1_555
C14 C13 1_555 1_555
N1I Ni1 1_555 1_555
H1I N1I 1_555 1_555
N2I Ni1 1_555 1_555
H2I N2I 1_555 1_555
N3I C1 1_555 1_555
C1I N3 1_555 1_555
H3I C1I 1_555 1_555
H4I C1I 1_555 1_555
C2I N1I 1_555 1_555
H5I C2I 1_555 1_555
H6I C2I 1_555 1_555
C3I N2I 1_555 1_555
H7I C3I 1_555 1_555
H8I C3I 1_555 1_555
C4I N2I 1_555 1_555
H9I C4I 1_555 1_555
H10I C4I 1_555 1_555
C5I N3I 1_555 1_555
H11I C5I 1_555 1_555
H12I C5I 1_555 1_555
C6I C5I 1_555 1_555
H13I C6I 1_555 1_555
H14I C6I 1_555 1_555
C7I C6I 1_555 1_555
H15I C7I 1_555 1_555
H16I C7I 1_555 1_555
C8I C7I 1_555 1_555
H17I C8I 1_555 1_555
H18I C8I 1_555 1_555
C9I C8I 1_555 1_555
H19I C9I 1_555 1_555
H20I C9I 1_555 1_555
H21I C9I 1_555 1_555
O1A C10A 1_555 1_555
O2A C10A 1_555 1_555
C10A C11A 1_555 1_555
C11A C12 1_555 1_555
H22A C11A 1_555 1_555
C12A C11A 1_555 1_555
H23A C12A 1_555 1_555
H24A C12A 1_555 1_555
O1B C10B 1_555 1_555
O2B C10B 1_555 1_555
C10B C11B 1_555 1_555
C11B C12A 1_555 1_555
H22B C11B 1_555 1_555
C12B C11 1_555 1_555
H23B C12B 1_555 1_555
H24B C12B 1_555 1_555
Ni1A O1A 1_555 1_555
N1A Ni1A 1_555 1_555
H1A N1A 1_555 1_555
N2A Ni1A 1_555 1_555
H2A N2A 1_555 1_555
N3A C4A 1_555 1_555
C1A N1A 1_555 1_555
H3A C1A 1_555 1_555
H4A C1A 1_555 1_555
C2A N1A 1_555 1_555
H5A C2A 1_555 1_555
H6A C2A 1_555 1_555
C3A N2A 1_555 1_555
H7A C3A 1_555 1_555
H8A C3A 1_555 1_555
C4A N2A 1_555 1_555
H9A C4A 1_555 1_555
H10A C4A 1_555 1_555
C5A N3A 1_555 1_555
H11A C5A 1_555 1_555
H12A C5A 1_555 1_555
C6A C5A 1_555 1_555
H13A C6A 1_555 1_555
H14A C6A 1_555 1_555
C7A C6A 1_555 1_555
H15A C7A 1_555 1_555
H16A C7A 1_555 1_555
C8A C7A 1_555 1_555
H17A C8A 1_555 1_555
H18A C8A 1_555 1_555
C9A C8A 1_555 1_555
H19A C9A 1_555 1_555
H20A C9A 1_555 1_555
H21A C9A 1_555 1_555
N1J Ni1A 1_555 1_555
H1J N1J 1_555 1_555
N2J Ni1A 1_555 1_555
H2J N2J 1_555 1_555
N3J C1A 1_555 1_555
C1J N3A 1_555 1_555
H3J C1J 1_555 1_555
H4J C1J 1_555 1_555
C2J N1J 1_555 1_555
H5J C2J 1_555 1_555
H6J C2J 1_555 1_555
C3J N2J 1_555 1_555
H7J C3J 1_555 1_555
H8J C3J 1_555 1_555
C4J N2J 1_555 1_555
H9J C4J 1_555 1_555
H10J C4J 1_555 1_555
C5J N3J 1_555 1_555
H11J C5J 1_555 1_555
H12J C5J 1_555 1_555
C6J C5J 1_555 1_555
H13J C6J 1_555 1_555
H14J C6J 1_555 1_555
C7J C6J 1_555 1_555
H15J C7J 1_555 1_555
H16J C7J 1_555 1_555
C8J C7J 1_555 1_555
H17J C8J 1_555 1_555
H18J C8J 1_555 1_555
C9J C8J 1_555 1_555
H19J C9J 1_555 1_555
H20J C9J 1_555 1_555
H21J C9J 1_555 1_555
Ni1B O1B 1_555 1_555
N1B Ni1B 1_555 1_555
H1B N1B 1_555 1_555
N2B Ni1B 1_555 1_555
H2B N2B 1_555 1_555
N3B C4B 1_555 1_555
C1B N1B 1_555 1_555
H3B C1B 1_555 1_555
H4B C1B 1_555 1_555
C2B N1B 1_555 1_555
H5B C2B 1_555 1_555
H6B C2B 1_555 1_555
C3B N2B 1_555 1_555
H7B C3B 1_555 1_555
H8B C3B 1_555 1_555
C4B N2B 1_555 1_555
H9B C4B 1_555 1_555
H10B C4B 1_555 1_555
C5B N3B 1_555 1_555
H11B C5B 1_555 1_555
H12B C5B 1_555 1_555
C6B C5B 1_555 1_555
H13B C6B 1_555 1_555
H14B C6B 1_555 1_555
C7B C6B 1_555 1_555
H15B C7B 1_555 1_555
H16B C7B 1_555 1_555
C8B C7B 1_555 1_555
H17B C8B 1_555 1_555
H18B C8B 1_555 1_555
C9B C8B 1_555 1_555
H19B C9B 1_555 1_555
H20B C9B 1_555 1_555
H21B C9B 1_555 1_555
N1K Ni1B 1_555 1_555
H1K N1K 1_555 1_555
N2K Ni1B 1_555 1_555
H2K N2K 1_555 1_555
N3K C1B 1_555 1_555
C1K N3B 1_555 1_555
H3K C1K 1_555 1_555
H4K C1K 1_555 1_555
C2K N1K 1_555 1_555
H5K C2K 1_555 1_555
H6K C2K 1_555 1_555
C3K N2K 1_555 1_555
H7K C3K 1_555 1_555
H8K C3K 1_555 1_555
C4K N2K 1_555 1_555
H9K C4K 1_555 1_555
H10K C4K 1_555 1_555
C5K N3K 1_555 1_555
H11K C5K 1_555 1_555
H12K C5K 1_555 1_555
C6K C5K 1_555 1_555
H13K C6K 1_555 1_555
H14K C6K 1_555 1_555
C7K C6K 1_555 1_555
H15K C7K 1_555 1_555
H16K C7K 1_555 1_555
C8K C7K 1_555 1_555
H17K C8K 1_555 1_555
H18K C8K 1_555 1_555
C9K C8K 1_555 1_555
H19K C9K 1_555 1_555
H20K C9K 1_555 1_555
H21K C9K 1_555 1_555
O1I Ni1 1_555 1_555
O2I C10I 1_555 1_555
C10I O1I 1_555 1_555
C11I C10I 1_555 1_555
H22I C11I 1_555 1_555
C12I C11I 1_555 1_555
H23I C12I 1_555 1_555
H24I C12I 1_555 1_555
O1J C10J 1_555 1_555
O2J C10J 1_555 1_555
C10J C11J 1_555 1_555
C11J C12I 1_555 1_555
H22J C11J 1_555 1_555
C12J C11J 1_555 1_555
H23J C12J 1_555 1_555
H24J C12J 1_555 1_555
O1K C10K 1_555 1_555
O2K C10K 1_555 1_555
C10K C11K 1_555 1_555
C11K C12J 1_555 1_555
H22K C11K 1_555 1_555
C12K C11I 1_555 1_555
H23K C12K 1_555 1_555
H24K C12K 1_555 1_555
Ni1A_2 O1J 1_555 1_555
Ni1B_2 O1K 1_555 1_555
O1J_2 Ni1A 1_555 1_555
O1K_2 Ni1B 1_555 1_555
C2 C3 1_555 1_555
N1I C1I 1_555 1_555
N3I C4I 1_555 1_555
C2I C3I 1_555 1_555
C11B C12B 1_555 1_555
C2A C3A 1_555 1_555
N1J C1J 1_555 1_555
N3J C4J 1_555 1_555
C2J C3J 1_555 1_555
C2B C3B 1_555 1_555
N1K C1K 1_555 1_555
N3K C4K 1_555 1_555
C2K C3K 1_555 1_555
C11K C12K 1_555 1_555

#END
