
#######################################################################
#
#                 Cambridge Crystallographic Data Centre
#                                CCDC 
#
#######################################################################
#
# If this CIF has been generated from an entry in the Cambridge 
# Structural Database, then it will include bibliographic, chemical, 
# crystal, experimental, refinement or atomic coordinate data resulting 
# from the CCDC's data processing and validation procedures.
#
#######################################################################

data_NUGGAZ
_symmetry_cell_setting           orthorhombic
_symmetry_space_group_name_H-M   'P c a 21'
_symmetry_Int_Tables_number      29
_space_group_name_Hall           'P 2c -2ac'
loop_
_symmetry_equiv_pos_site_id
_symmetry_equiv_pos_as_xyz
1 x,y,z
2 -x,-y,1/2+z
3 1/2+x,-y,z
4 1/2-x,y,1/2+z
_cell_length_a                   11.5889(11)
_cell_length_b                   16.0648(14)
_cell_length_c                   10.7143(9)
_cell_angle_alpha                90
_cell_angle_beta                 90
_cell_angle_gamma                90
_cell_volume                     1994.72
loop_
_atom_site_label
_atom_site_type_symbol
_atom_site_fract_x
_atom_site_fract_y
_atom_site_fract_z
Ag1 Ag 0.39084(3) 0.55971(2) 0.63226(6)
N1 N 0.8576(4) 0.8577(3) 0.2694(5)
N2 N 0.8761(4) 0.8953(3) 0.1716(5)
N3 N 0.5057(3) 0.4538(2) 0.5414(3)
N4 N 0.7079(3) 0.4067(2) 0.5418(3)
N5 N 0.5989(3) 0.4123(2) 0.3464(3)
N6 N 0.5521(3) 0.3078(2) 0.5026(4)
O1 O 0.4736(4) 0.6805(3) 0.5343(4)
O2 O 0.6629(5) 0.6671(3) 0.5651(5)
O3 O 0.4021(3) 0.7593(3) 0.3493(4)
H1 H 0.3985 0.7306 0.4126
C1 C 0.5790(5) 0.6992(4) 0.5155(6)
C2 C 0.6009(4) 0.7603(3) 0.4116(5)
C3 C 0.5116(5) 0.7855(3) 0.3323(6)
C4 C 0.5357(5) 0.8361(4) 0.2303(6)
H2 H 0.4766 0.8528 0.1771
C5 C 0.6467(6) 0.8613(4) 0.2085(6)
H3 H 0.6626 0.8940 0.1391
C6 C 0.7358(5) 0.8389(3) 0.2879(6)
C7 C 0.7119(5) 0.7886(3) 0.3884(6)
H4 H 0.7714 0.7733 0.4420
C8 C 0.9968(5) 0.9089(3) 0.1496(9)
C9 C 1.0847(6) 0.8872(4) 0.2316(8)
H5 H 1.0678 0.8660 0.3102
C10 C 1.1986(7) 0.8980(5) 0.1938(9)
H6 H 1.2584 0.8819 0.2464
C11 C 1.2226(8) 0.9315(5) 0.0813(10)
H7 H 1.2991 0.9399 0.0584
C12 C 1.1366(7) 0.9533(4) 0.0003(9)
H8 H 1.1550 0.9747 -0.0779
C13 C 1.0224(7) 0.9437(4) 0.0345(7)
H9 H 0.9635 0.9604 -0.0190
C14 C 0.6217(4) 0.4642(3) 0.5978(4)
H10 H 0.6169 0.4539 0.6869
H11 H 0.6472 0.5212 0.5860
C15 C 0.5153(4) 0.4696(3) 0.4071(4)
H12 H 0.5400 0.5267 0.3939
H13 H 0.4402 0.4629 0.3686
C16 C 0.4705(4) 0.3647(3) 0.5592(5)
H14 H 0.4649 0.3528 0.6478
H15 H 0.3949 0.3560 0.5225
C17 C 0.7128(4) 0.4237(3) 0.4071(4)
H16 H 0.7684 0.3865 0.3686
H17 H 0.7389 0.4803 0.3938
C18 C 0.6651(4) 0.3206(3) 0.5596(5)
H18 H 0.7198 0.2819 0.5232
H19 H 0.6601 0.3088 0.6482
C19 C 0.5603(5) 0.3251(3) 0.3684(5)
H20 H 0.4855 0.3165 0.3297
H21 H 0.6146 0.2868 0.3303
Ag1A Ag 0.60916(3) 0.44029(2) 0.13226(6)
Ag1B Ag 0.89084(3) 0.44029(2) 0.63226(6)
N4B N 0.2079(3) 0.5933(2) 0.5418(3)
N5A N 0.4011(3) 0.5877(2) 0.8464(3)
O4 O 0.2495(4) 0.3975(2) 0.7825(4)
H22 H 0.2668 0.3689 0.8466
H23 H 0.2238 0.3651 0.7263
loop_
_geom_bond_atom_site_label_1
_geom_bond_atom_site_label_2
_geom_bond_site_symmetry_1
_geom_bond_site_symmetry_2
Ag1 N3 1_555 1_555
N1 N2 1_555 1_555
N2 C8 1_555 1_555
N3 C14 1_555 1_555
N4 C14 1_555 1_555
N5 C15 1_555 1_555
N6 C16 1_555 1_555
O1 Ag1 1_555 1_555
O2 C1 1_555 1_555
O3 H1 1_555 1_555
C1 O1 1_555 1_555
C2 C1 1_555 1_555
C3 O3 1_555 1_555
C4 C3 1_555 1_555
H2 C4 1_555 1_555
C5 C4 1_555 1_555
H3 C5 1_555 1_555
C6 N1 1_555 1_555
C7 C2 1_555 1_555
H4 C7 1_555 1_555
C8 C9 1_555 1_555
C9 H5 1_555 1_555
C10 C9 1_555 1_555
H6 C10 1_555 1_555
C11 C10 1_555 1_555
H7 C11 1_555 1_555
C12 C11 1_555 1_555
H8 C12 1_555 1_555
C13 C8 1_555 1_555
H9 C13 1_555 1_555
C14 H10 1_555 1_555
H11 C14 1_555 1_555
C15 N3 1_555 1_555
H12 C15 1_555 1_555
H13 C15 1_555 1_555
C16 N3 1_555 1_555
H14 C16 1_555 1_555
H15 C16 1_555 1_555
C17 N4 1_555 1_555
H16 C17 1_555 1_555
H17 C17 1_555 1_555
C18 N4 1_555 1_555
H18 C18 1_555 1_555
H19 C18 1_555 1_555
C19 N5 1_555 1_555
H20 C19 1_555 1_555
H21 C19 1_555 1_555
O4 H22 1_555 1_555
H23 O4 1_555 1_555
Ag1A N5 1_555 1_555
Ag1B N4 1_555 1_555
N4B Ag1 1_555 1_555
N5A Ag1 1_555 1_555
N5 C17 1_555 1_555
N6 C18 1_555 1_555
N6 C19 1_555 1_555
C2 C3 1_555 1_555
C5 C6 1_555 1_555
C6 C7 1_555 1_555
C12 C13 1_555 1_555

#END
