
#######################################################################
#
#                 Cambridge Crystallographic Data Centre
#                                CCDC 
#
#######################################################################
#
# If this CIF has been generated from an entry in the Cambridge 
# Structural Database, then it will include bibliographic, chemical, 
# crystal, experimental, refinement or atomic coordinate data resulting 
# from the CCDC's data processing and validation procedures.
#
#######################################################################

data_NUGHOO
_symmetry_cell_setting           monoclinic
_symmetry_space_group_name_H-M   'P 21/n'
_symmetry_Int_Tables_number      14
_space_group_name_Hall           '-P 2yn'
loop_
_symmetry_equiv_pos_site_id
_symmetry_equiv_pos_as_xyz
1 x,y,z
2 1/2-x,1/2+y,1/2-z
3 -x,-y,-z
4 1/2+x,1/2-y,1/2+z
_cell_length_a                   12.7911(3)
_cell_length_b                   10.9623(3)
_cell_length_c                   16.3076(5)
_cell_angle_alpha                90
_cell_angle_beta                 97.328(3)
_cell_angle_gamma                90
_cell_volume                     2267.97
loop_
_atom_site_label
_atom_site_type_symbol
_atom_site_fract_x
_atom_site_fract_y
_atom_site_fract_z
Zn1 Zn 0.65036(3) 0.07881(4) 0.77106(3)
O1 O 0.2397(2) -0.5665(2) 0.81919(19)
O2 O 0.5747(2) -0.1168(2) 0.69891(18)
O3 O 0.7272(2) -0.2778(2) 0.79198(16)
O4 O 0.5792(2) -0.0528(2) 0.82892(18)
N1 N 0.3333(3) -0.5743(3) 0.8098(2)
O5 O 0.3778(2) -0.6714(3) 0.80043(18)
C1 C 0.3664(3) 0.8684(3) 0.4892(2)
H1 H 0.4381 0.8522 0.4919
C2 C 0.1528(3) 0.9182(3) 0.4834(2)
H2 H 0.0814 0.9357 0.4817
C3 C 0.5566(3) -0.3630(3) 0.7902(2)
C4 C 0.4179(3) 0.4240(3) 0.5860(2)
N2 N 0.1835(2) 1.1240(3) 0.43427(19)
C5 C 0.5065(3) -0.2496(3) 0.7936(2)
N3 N 0.3926(2) 0.2056(3) 0.6050(2)
N4 N 0.4550(2) 0.3072(3) 0.61714(19)
C6 C 0.5438(3) 0.2793(3) 0.6665(2)
H3 H 0.5984 0.3335 0.6831
C7 C 0.4016(3) -0.2446(4) 0.8090(3)
H4 H 0.3697 -0.1694 0.8148
N5 N 0.5419(2) 0.1635(3) 0.68783(19)
C8 C 0.4809(3) 0.5253(3) 0.6012(2)
H5 H 0.5493 0.5171 0.6278
C9 C 0.3297(3) 0.9824(3) 0.4652(2)
H6 H 0.3756 1.0422 0.4507
C10 C 0.5591(3) -0.1327(4) 0.7721(3)
C11 C 0.3170(3) 0.4336(4) 0.5427(3)
H7 H 0.2752 0.3647 0.5315
N6 N 0.0984(3) 1.1768(3) 0.4637(2)
C12 C 0.2988(3) 0.7760(3) 0.5099(2)
C13 C 0.3950(3) -0.4612(3) 0.8094(2)
C14 C 0.5000(3) -0.4696(3) 0.7981(2)
H8 H 0.5322 -0.5453 0.7959
C15 C 0.4424(3) 0.6391(3) 0.5769(2)
H9 H 0.4846 0.7076 0.5886
C16 C 0.2165(3) 1.1932(3) 0.3752(2)
H10 H 0.2722 1.1745 0.3458
C17 C 0.0871(3) 1.2784(3) 0.4206(2)
H11 H 0.0353 1.3357 0.4274
C18 C 0.1913(3) 0.8026(3) 0.5067(2)
H12 H 0.1451 0.7426 0.5203
C19 C 0.3449(3) -0.3507(4) 0.8159(3)
H13 H 0.2745 -0.3477 0.8246
C20 C 0.3406(3) 0.6527(3) 0.5347(2)
C21 C 0.2222(3) 1.0067(3) 0.4628(2)
C22 C 0.4480(3) 0.1222(3) 0.6482(2)
H14 H 0.4255 0.0419 0.6517
C23 C 0.2803(3) 0.5475(4) 0.5169(3)
H15 H 0.2138 0.5543 0.4868
N7 N 0.1574(2) 1.2927(3) 0.36519(19)
O6 O 0.70378(19) -0.4677(2) 0.74649(16)
C24 C 0.6698(3) -0.3682(4) 0.7760(2)
Zn1A Zn 0.84964(3) -0.42119(4) 0.72894(3)
Zn1C Zn 0.15036(3) 1.42119(4) 0.27106(3)
N7C N 0.6574(2) 0.2073(3) 0.86519(19)
O6A O 0.79622(19) 0.0323(2) 0.75351(16)
loop_
_geom_bond_atom_site_label_1
_geom_bond_atom_site_label_2
_geom_bond_site_symmetry_1
_geom_bond_site_symmetry_2
Zn1 O4 1_555 1_555
O1 N1 1_555 1_555
O2 C10 1_555 1_555
O3 C24 1_555 1_555
O4 C10 1_555 1_555
N1 O5 1_555 1_555
C1 H1 1_555 1_555
C2 H2 1_555 1_555
C3 C5 1_555 1_555
C4 N4 1_555 1_555
N2 N6 1_555 1_555
C5 C7 1_555 1_555
N3 N4 1_555 1_555
N4 C6 1_555 1_555
C6 H3 1_555 1_555
C7 H4 1_555 1_555
N5 Zn1 1_555 1_555
C8 C4 1_555 1_555
H5 C8 1_555 1_555
C9 C1 1_555 1_555
H6 C9 1_555 1_555
C10 C5 1_555 1_555
C11 C4 1_555 1_555
H7 C11 1_555 1_555
N6 C17 1_555 1_555
C12 C1 1_555 1_555
C13 N1 1_555 1_555
C14 C3 1_555 1_555
H8 C14 1_555 1_555
C15 C8 1_555 1_555
H9 C15 1_555 1_555
C16 N2 1_555 1_555
H10 C16 1_555 1_555
C17 H11 1_555 1_555
C18 C2 1_555 1_555
H12 C18 1_555 1_555
C19 C7 1_555 1_555
H13 C19 1_555 1_555
C20 C12 1_555 1_555
C21 C2 1_555 1_555
C22 N3 1_555 1_555
H14 C22 1_555 1_555
C23 C11 1_555 1_555
H15 C23 1_555 1_555
N7 C16 1_555 1_555
O6 C24 1_555 1_555
C24 C3 1_555 1_555
Zn1A O6 1_555 1_555
Zn1C N7 1_555 1_555
N7C Zn1 1_555 1_555
O6A Zn1 1_555 1_555
N2 C21 1_555 1_555
C6 N5 1_555 1_555
N5 C22 1_555 1_555
C9 C21 1_555 1_555
C12 C18 1_555 1_555
C13 C14 1_555 1_555
C13 C19 1_555 1_555
C15 C20 1_555 1_555
C17 N7 1_555 1_555
C20 C23 1_555 1_555

#END
