
#######################################################################
#
#                 Cambridge Crystallographic Data Centre
#                                CCDC 
#
#######################################################################
#
# If this CIF has been generated from an entry in the Cambridge 
# Structural Database, then it will include bibliographic, chemical, 
# crystal, experimental, refinement or atomic coordinate data resulting 
# from the CCDC's data processing and validation procedures.
#
#######################################################################

data_NUGJEF
_symmetry_cell_setting           triclinic
_symmetry_space_group_name_H-M   'P -1'
_symmetry_Int_Tables_number      2
_space_group_name_Hall           '-P 1'
loop_
_symmetry_equiv_pos_site_id
_symmetry_equiv_pos_as_xyz
1 x,y,z
2 -x,-y,-z
_cell_length_a                   8.3618(14)
_cell_length_b                   8.8762(15)
_cell_length_c                   11.659(2)
_cell_angle_alpha                84.211(3)
_cell_angle_beta                 74.321(3)
_cell_angle_gamma                69.805(3)
_cell_volume                     781.898
loop_
_atom_site_label
_atom_site_type_symbol
_atom_site_fract_x
_atom_site_fract_y
_atom_site_fract_z
Cd1 Cd 0.5000 1.0000 0.0000
Br1 Br 0.24970(7) 0.22753(5) 0.39551(4)
C1 C 0.1756(4) 0.4789(4) 0.6946(3)
C2 C 0.2164(4) 0.6141(4) 0.6471(3)
H1 H 0.2113 0.6910 0.6979
C3 C 0.2649(4) 0.6368(4) 0.5250(3)
C4 C 0.2741(4) 0.5212(4) 0.4497(3)
H2 H 0.3066 0.5343 0.3675
C5 C 0.2343(5) 0.3869(4) 0.4983(3)
C6 C 0.1842(4) 0.3636(4) 0.6193(3)
H3 H 0.1567 0.2722 0.6500
C7 C 0.1146(5) 0.4608(4) 0.8288(3)
H4 H 0.1384 0.3479 0.8493
H5 H 0.1802 0.5020 0.8672
C8 C -0.2084(5) 0.4911(4) 0.8835(3)
H6 H -0.2000 0.3872 0.8690
C9 C -0.3569(5) 0.6158(4) 0.9195(3)
H7 H -0.4703 0.6117 0.9342
C10 C -0.1450(5) 0.7025(4) 0.9015(3)
H8 H -0.0802 0.7695 0.9005
C11 C 0.3102(5) 0.7854(4) 0.4791(3)
H9 H 0.2347 0.8735 0.5324
H10 H 0.4308 0.7676 0.4805
C12 C 0.4180(4) 0.8488(4) 0.2649(3)
H11 H 0.5337 0.8300 0.2670
C13 C 0.1839(5) 0.9111(4) 0.2045(3)
H12 H 0.1066 0.9427 0.1555
C14 C 0.1412(4) 0.8733(4) 0.3219(3)
H13 H 0.0305 0.8756 0.3680
N1 N -0.3173(4) 0.7492(3) 0.9314(2)
N2 N -0.0733(4) 0.5470(3) 0.8725(2)
N3 N 0.3587(4) 0.8953(3) 0.1696(2)
N4 N 0.2913(4) 0.8316(3) 0.3592(2)
N5 N 0.2442(4) 0.9432(3) -0.1532(3)
O1 O 0.2736(4) 1.0414(3) -0.0999(3)
O2 O 0.2366(5) 0.9731(4) -0.2575(3)
O3 O 0.2189(5) 0.8233(4) -0.1032(3)
Cd1_2 Cd -0.5000 1.0000 1.0000
Br1A Br -0.24970(7) 1.77247(5) 0.60449(4)
C1A C -0.1756(4) 1.5211(4) 0.3054(3)
C2A C -0.2164(4) 1.3859(4) 0.3529(3)
H1A H -0.2113 1.3090 0.3021
C3A C -0.2649(4) 1.3632(4) 0.4750(3)
C4A C -0.2741(4) 1.4788(4) 0.5503(3)
H2A H -0.3066 1.4657 0.6325
C5A C -0.2343(5) 1.6131(4) 0.5017(3)
C6A C -0.1842(4) 1.6364(4) 0.3807(3)
H3A H -0.1567 1.7278 0.3500
C7A C -0.1146(5) 1.5392(4) 0.1712(3)
H4A H -0.1384 1.6521 0.1507
H5A H -0.1802 1.4980 0.1328
C8A C 0.2084(5) 1.5089(4) 0.1165(3)
H6A H 0.2000 1.6128 0.1310
C9A C 0.3569(5) 1.3842(4) 0.0805(3)
H7A H 0.4703 1.3883 0.0658
C10A C 0.1450(5) 1.2975(4) 0.0985(3)
H8A H 0.0802 1.2305 0.0995
C11A C -0.3102(5) 1.2146(4) 0.5209(3)
H9A H -0.2347 1.1265 0.4676
H10A H -0.4308 1.2324 0.5195
C12A C -0.4180(4) 1.1512(4) 0.7351(3)
H11A H -0.5337 1.1700 0.7330
C13A C -0.1839(5) 1.0889(4) 0.7955(3)
H12A H -0.1066 1.0573 0.8445
C14A C -0.1412(4) 1.1267(4) 0.6781(3)
H13A H -0.0305 1.1244 0.6320
N1A N 0.3173(4) 1.2508(3) 0.0686(2)
N1_2 N 0.6827(4) 0.7492(3) -0.0686(2)
N2A N 0.0733(4) 1.4530(3) 0.1275(2)
N3A N -0.3587(4) 1.1047(3) 0.8304(2)
N3A_2 N 0.6413(4) 1.1047(3) -0.1696(2)
N4A N -0.2913(4) 1.1684(3) 0.6408(2)
N5A N 0.7558(4) 1.0568(3) 0.1532(3)
O1A O 0.7264(4) 0.9586(3) 0.0999(3)
O2A O 0.7634(5) 1.0269(4) 0.2575(3)
O3A O 0.7811(5) 1.1767(4) 0.1032(3)
loop_
_geom_bond_atom_site_label_1
_geom_bond_atom_site_label_2
_geom_bond_site_symmetry_1
_geom_bond_site_symmetry_2
Cd1 N3 1_555 1_555
Br1 C5 1_555 1_555
C1 C2 1_555 1_555
C2 H1 1_555 1_555
C3 C2 1_555 1_555
C4 C3 1_555 1_555
H2 C4 1_555 1_555
C5 C4 1_555 1_555
C6 C1 1_555 1_555
H3 C6 1_555 1_555
C7 C1 1_555 1_555
H4 C7 1_555 1_555
H5 C7 1_555 1_555
C8 H6 1_555 1_555
C9 C8 1_555 1_555
H7 C9 1_555 1_555
C10 H8 1_555 1_555
C11 C3 1_555 1_555
H9 C11 1_555 1_555
H10 C11 1_555 1_555
C12 H11 1_555 1_555
C13 H12 1_555 1_555
C14 C13 1_555 1_555
H13 C14 1_555 1_555
N1 C9 1_555 1_555
N2 C7 1_555 1_555
N3 C12 1_555 1_555
N4 C11 1_555 1_555
N5 O1 1_555 1_555
O1 Cd1 1_555 1_555
O2 N5 1_555 1_555
O3 N5 1_555 1_555
Cd1_2 N1 1_555 1_555
Br1A C5A 1_555 1_555
C1A C2A 1_555 1_555
C2A H1A 1_555 1_555
C3A C2A 1_555 1_555
C4A C3A 1_555 1_555
H2A C4A 1_555 1_555
C5A C4A 1_555 1_555
C6A C1A 1_555 1_555
H3A C6A 1_555 1_555
C7A C1A 1_555 1_555
H4A C7A 1_555 1_555
H5A C7A 1_555 1_555
C8A H6A 1_555 1_555
C9A C8A 1_555 1_555
H7A C9A 1_555 1_555
C10A H8A 1_555 1_555
C11A C3A 1_555 1_555
H9A C11A 1_555 1_555
H10A C11A 1_555 1_555
C12A H11A 1_555 1_555
C13A H12A 1_555 1_555
C14A C13A 1_555 1_555
H13A C14A 1_555 1_555
N1A Cd1 1_555 1_555
N1_2 Cd1 1_555 1_555
N2A C7A 1_555 1_555
N3A Cd1_2 1_555 1_555
N3A_2 Cd1 1_555 1_555
N4A C11A 1_555 1_555
N5A O1A 1_555 1_555
O1A Cd1 1_555 1_555
O2A N5A 1_555 1_555
O3A N5A 1_555 1_555
C5 C6 1_555 1_555
C8 N2 1_555 1_555
C10 N1 1_555 1_555
C10 N2 1_555 1_555
C12 N4 1_555 1_555
C13 N3 1_555 1_555
C14 N4 1_555 1_555
C5A C6A 1_555 1_555
C8A N2A 1_555 1_555
C9A N1A 1_555 1_555
C10A N1A 1_555 1_555
C10A N2A 1_555 1_555
C12A N3A 1_555 1_555
C12A N4A 1_555 1_555
C13A N3A 1_555 1_555
C14A N4A 1_555 1_555

#END
