
#######################################################################
#
#                 Cambridge Crystallographic Data Centre
#                                CCDC 
#
#######################################################################
#
# If this CIF has been generated from an entry in the Cambridge 
# Structural Database, then it will include bibliographic, chemical, 
# crystal, experimental, refinement or atomic coordinate data resulting 
# from the CCDC's data processing and validation procedures.
#
#######################################################################

data_NUGNEJ
_symmetry_cell_setting           orthorhombic
_symmetry_space_group_name_H-M   'P n a 21'
_symmetry_Int_Tables_number      33
_space_group_name_Hall           'P 2c -2n'
loop_
_symmetry_equiv_pos_site_id
_symmetry_equiv_pos_as_xyz
1 x,y,z
2 -x,-y,1/2+z
3 1/2+x,1/2-y,z
4 1/2-x,1/2+y,1/2+z
_cell_length_a                   16.2570(15)
_cell_length_b                   8.8673(15)
_cell_length_c                   15.976(2)
_cell_angle_alpha                90
_cell_angle_beta                 90
_cell_angle_gamma                90
_cell_volume                     2303.03
loop_
_atom_site_label
_atom_site_type_symbol
_atom_site_fract_x
_atom_site_fract_y
_atom_site_fract_z
Mn1 Mn -0.17818(8) 0.56399(16) 0.15393(12)
Fe1 Fe -0.43331(8) 0.26300(15) 0.22924(12)
N1 N -0.4435(5) 0.2786(10) 0.1063(7)
O1 O -0.1864(4) 0.7785(7) 0.2221(8)
N2 N -0.2853(6) 0.4783(10) 0.2232(7)
C1 C -0.3410(6) 0.4014(11) 0.2274(9)
C2 C -0.4266(7) 0.2554(14) 0.3501(9)
C3 C -0.5255(6) 0.1244(10) 0.2333(8)
C4 C -0.3187(9) 0.724(2) -0.1105(10)
H1 H -0.3418 0.7518 -0.1615
N3 N -0.4230(6) 0.2513(13) 0.4215(7)
N4 N -0.1868(5) 0.3624(12) 0.0653(7)
C5 C -0.4354(8) 0.4085(13) 0.0594(7)
H2 H -0.4221 0.5036 0.0799
N5 N -0.5507(6) 0.5324(12) 0.2534(7)
C6 C -0.1852(11) 0.134(2) -0.0509(13)
H3 H -0.1841 0.0590 -0.0912
C7 C -0.5069(6) 0.4322(12) 0.2452(8)
N6 N -0.3191(6) -0.0151(12) 0.2197(9)
O2 O -0.0718(5) 0.6593(10) 0.0855(6)
C8 C -0.2515(7) 0.5391(13) -0.0251(8)
N7 N -0.4673(6) 0.2240(11) -0.0249(6)
C9 C -0.2799(9) 0.7740(15) 0.0303(9)
H4 H -0.2776 0.8401 0.0755
C10 C -0.2868(8) 0.5826(17) -0.1001(9)
H5 H -0.2889 0.5144 -0.1443
C11 C -0.4501(7) 0.3735(14) -0.0216(9)
H6 H -0.4488 0.4397 -0.0667
N8 N -0.2489(5) 0.6378(11) 0.0399(7)
C12 C -0.2166(7) 0.3853(15) -0.0118(9)
C13 C -0.3591(6) 0.0906(12) 0.2218(8)
C14 C -0.1559(8) 0.1068(17) 0.0264(12)
H7 H -0.1345 0.0129 0.0403
C15 C -0.2169(11) 0.2749(18) -0.0705(10)
H8 H -0.2383 0.2934 -0.1235
C16 C -0.3167(8) 0.8255(18) -0.0450(11)
H9 H -0.3382 0.9222 -0.0500
C17 C -0.4637(7) 0.1719(14) 0.0532(8)
H10 H -0.4743 0.0725 0.0682
C18 C -0.1587(8) 0.2235(15) 0.0848(10)
H11 H -0.1407 0.2049 0.1391
C19 C -0.4867(10) 0.1396(18) -0.1000(9)
H12 H -0.4957 0.0357 -0.0859
H13 H -0.4418 0.1470 -0.1388
H14 H -0.5355 0.1803 -0.1252
N9 N -0.5811(5) 0.0470(9) 0.2284(7)
Mn1B Mn -0.67818(8) -0.06399(16) 0.15393(12)
N9B N -0.0811(5) 0.4530(9) 0.2284(7)
O3 O -0.5654(7) 1.2513(11) -0.3309(11)
loop_
_geom_bond_atom_site_label_1
_geom_bond_atom_site_label_2
_geom_bond_site_symmetry_1
_geom_bond_site_symmetry_2
Mn1 O1 1_555 1_555
Fe1 N1 1_555 1_555
N1 C5 1_555 1_555
N2 Mn1 1_555 1_555
C1 Fe1 1_555 1_555
C2 Fe1 1_555 1_555
C3 Fe1 1_555 1_555
C4 H1 1_555 1_555
N3 C2 1_555 1_555
N4 Mn1 1_555 1_555
C5 H2 1_555 1_555
N5 C7 1_555 1_555
C6 H3 1_555 1_555
C7 Fe1 1_555 1_555
N6 C13 1_555 1_555
O2 Mn1 1_555 1_555
C8 C10 1_555 1_555
N7 C11 1_555 1_555
C9 H4 1_555 1_555
C10 C4 1_555 1_555
H5 C10 1_555 1_555
C11 C5 1_555 1_555
H6 C11 1_555 1_555
N8 Mn1 1_555 1_555
C12 N4 1_555 1_555
C13 Fe1 1_555 1_555
C14 C6 1_555 1_555
H7 C14 1_555 1_555
C15 C6 1_555 1_555
H8 C15 1_555 1_555
C16 C4 1_555 1_555
H9 C16 1_555 1_555
C17 N1 1_555 1_555
H10 C17 1_555 1_555
C18 N4 1_555 1_555
H11 C18 1_555 1_555
C19 N7 1_555 1_555
H12 C19 1_555 1_555
H13 C19 1_555 1_555
H14 C19 1_555 1_555
N9 C3 1_555 1_555
Mn1B N9 1_555 1_555
N9B Mn1 1_555 1_555
N2 C1 1_555 1_555
C8 N8 1_555 1_555
C8 C12 1_555 1_555
N7 C17 1_555 1_555
C9 N8 1_555 1_555
C9 C16 1_555 1_555
C12 C15 1_555 1_555
C14 C18 1_555 1_555

#END
