
#######################################################################
#
#                 Cambridge Crystallographic Data Centre
#                                CCDC 
#
#######################################################################
#
# If this CIF has been generated from an entry in the Cambridge 
# Structural Database, then it will include bibliographic, chemical, 
# crystal, experimental, refinement or atomic coordinate data resulting 
# from the CCDC's data processing and validation procedures.
#
#######################################################################

data_NUGYET
_symmetry_cell_setting           orthorhombic
_symmetry_space_group_name_H-M   'P b c a'
_symmetry_Int_Tables_number      61
_space_group_name_Hall           '-P 2ac 2ab'
loop_
_symmetry_equiv_pos_site_id
_symmetry_equiv_pos_as_xyz
1 x,y,z
2 1/2-x,1/2+y,z
3 x,1/2-y,1/2+z
4 1/2+x,y,1/2-z
5 -x,-y,-z
6 1/2+x,1/2-y,-z
7 -x,1/2+y,1/2-z
8 1/2-x,-y,1/2+z
_cell_length_a                   18.132(12)
_cell_length_b                   14.927(6)
_cell_length_c                   8.629(4)
_cell_angle_alpha                90
_cell_angle_beta                 90
_cell_angle_gamma                90
_cell_volume                     2335.49
loop_
_atom_site_label
_atom_site_type_symbol
_atom_site_fract_x
_atom_site_fract_y
_atom_site_fract_z
Cu1 Cu 0.27996(8) 0.38933(9) 0.1733(2)
N1 N 0.3300(5) 0.2911(6) 0.0559(11)
N2 N 0.3118(5) 0.3266(6) 0.3960(10)
N3 N 0.1880(5) 0.3273(6) 0.0864(11)
N4 N 0.2187(6) 0.4953(6) 0.2288(10)
N5 N 0.3818(6) 0.6307(6) 0.2062(12)
N6 N 0.3597(5) 0.4830(6) 0.1673(12)
C1 C 0.3964(7) 0.2540(9) 0.0290(15)
H1 H 0.4415(7) 0.2724(9) 0.0690(15)
C2 C 0.3837(7) 0.1818(8) -0.0715(15)
H2 H 0.4204(7) 0.1447(8) -0.1106(15)
C3 C 0.2815(6) 0.2400(7) -0.0236(12)
C4 C 0.2038(6) 0.2624(8) -0.0075(14)
H3 H 0.1674(6) 0.2318(8) -0.0619(14)
C5 C 0.1108(6) 0.3514(7) 0.1067(15)
H4 H 0.0925(6) 0.3247(7) 0.2017(15)
H5 H 0.0823(6) 0.3271(7) 0.0213(15)
C6 C 0.0994(7) 0.4525(8) 0.1135(14)
H6 H 0.0717(7) 0.4837(8) 0.0407(14)
C7 C 0.1378(6) 0.4982(8) 0.2512(16)
H7 H 0.1215(6) 0.5599(8) 0.2590(16)
H8 H 0.1248(6) 0.4677(8) 0.3467(16)
C8 C 0.2547(7) 0.5679(8) 0.2328(13)
H9 H 0.2313(7) 0.6219(8) 0.2544(13)
C9 C 0.3327(6) 0.5648(8) 0.2032(13)
C10 C 0.4459(7) 0.5870(7) 0.1760(15)
H10 H 0.4921(7) 0.6138(7) 0.1733(15)
C11 C 0.4329(6) 0.4982(9) 0.1503(14)
H11 H 0.4682(6) 0.4554(9) 0.1254(14)
N2B N 0.3118(5) 0.1734(6) -0.1040(10)
Cu1B Cu 0.27996(8) 0.11067(9) -0.3267(2)
loop_
_geom_bond_atom_site_label_1
_geom_bond_atom_site_label_2
_geom_bond_site_symmetry_1
_geom_bond_site_symmetry_2
Cu1 N1 1_555 1_555
N1 C1 1_555 1_555
N2 Cu1 1_555 1_555
N3 Cu1 1_555 1_555
N4 Cu1 1_555 1_555
N5 C9 1_555 1_555
N6 Cu1 1_555 1_555
C1 H1 1_555 1_555
C2 C1 1_555 1_555
H2 C2 1_555 1_555
C3 N1 1_555 1_555
C4 N3 1_555 1_555
H3 C4 1_555 1_555
C5 N3 1_555 1_555
H4 C5 1_555 1_555
H5 C5 1_555 1_555
C6 C5 1_555 1_555
H6 C6 1_555 1_555
C7 N4 1_555 1_555
H7 C7 1_555 1_555
H8 C7 1_555 1_555
C8 N4 1_555 1_555
H9 C8 1_555 1_555
C9 N6 1_555 1_555
C10 N5 1_555 1_555
H10 C10 1_555 1_555
C11 N6 1_555 1_555
H11 C11 1_555 1_555
N2B C2 1_555 1_555
Cu1B N2B 1_555 1_555
C3 N2B 1_555 1_555
C3 C4 1_555 1_555
C6 C7 1_555 1_555
C8 C9 1_555 1_555
C10 C11 1_555 1_555

#END
