
#######################################################################
#
#                 Cambridge Crystallographic Data Centre
#                                CCDC 
#
#######################################################################
#
# If this CIF has been generated from an entry in the Cambridge 
# Structural Database, then it will include bibliographic, chemical, 
# crystal, experimental, refinement or atomic coordinate data resulting 
# from the CCDC's data processing and validation procedures.
#
#######################################################################

data_NUHBUO
_symmetry_cell_setting           triclinic
_symmetry_space_group_name_H-M   'P -1'
_symmetry_Int_Tables_number      2
_space_group_name_Hall           '-P 1'
loop_
_symmetry_equiv_pos_site_id
_symmetry_equiv_pos_as_xyz
1 x,y,z
2 -x,-y,-z
_cell_length_a                   9.814(3)
_cell_length_b                   10.545(3)
_cell_length_c                   10.595(3)
_cell_angle_alpha                112.508(6)
_cell_angle_beta                 106.884(11)
_cell_angle_gamma                96.478(4)
_cell_volume                     937.642
loop_
_atom_site_label
_atom_site_type_symbol
_atom_site_fract_x
_atom_site_fract_y
_atom_site_fract_z
Co1 Co -0.12531(6) 0.04361(5) 0.33657(5)
C1 C -0.1993(5) -0.1167(4) 0.5166(4)
C2 C -0.3594(5) -0.1866(4) 0.4870(5)
H1 H -0.3740 -0.1675 0.5806
H2 H -0.4293 -0.1488 0.4317
C3 C -0.3843(4) -0.3485(4) 0.3957(4)
C4 C -0.3585(5) -0.4392(4) 0.4591(5)
H3 H -0.3278 -0.4025 0.5627
C5 C -0.3758(5) -0.5848(4) 0.3760(5)
H4 H -0.3543 -0.6420 0.4264
C6 C -0.4220(5) -0.6483(4) 0.2260(5)
C7 C -0.4475(5) -0.5572(4) 0.1614(5)
H5 H -0.4771 -0.5943 0.0578
C8 C -0.4311(5) -0.4105(5) 0.2443(5)
H6 H -0.4528 -0.3531 0.1942
C9 C -0.4476(6) -0.8098(5) 0.1338(6)
H7 H -0.4526 -0.8274 0.0336
H8 H -0.5436 -0.8600 0.1256
C10 C -0.3269(5) -0.8713(4) 0.1994(4)
C11 C -0.0230(4) 0.3669(4) 0.5736(4)
H9 H 0.0434 0.3741 0.5254
C12 C -0.0235(4) 0.4942(4) 0.6911(4)
H10 H 0.0397 0.5826 0.7171
C13 C -0.1187(4) 0.4868(4) 0.7674(4)
C14 C -0.2124(4) 0.3532(4) 0.7200(4)
H11 H -0.2799 0.3431 0.7662
C15 C -0.2053(5) 0.2339(4) 0.6028(4)
H12 H -0.2694 0.1450 0.5735
C16 C -0.1240(4) 0.6157(4) 0.8961(4)
C17 C -0.1035(5) 0.7523(4) 0.9053(5)
H13 H -0.0838 0.7693 0.8298
C18 C -0.1120(6) 0.8671(4) 1.0284(5)
H14 H -0.1009 0.9582 1.0292
C19 C -0.1557(5) 0.7219(4) 1.1286(4)
H15 H -0.1743 0.7074 1.2058
C20 C -0.1529(5) 0.6017(4) 1.0093(4)
H16 H -0.1712 0.5108 1.0080
N1 N -0.1119(4) 0.2373(3) 0.5279(3)
N2 N -0.1343(4) 0.8548(3) 1.1410(3)
O1 O -0.1730(4) -0.0855(3) 0.4232(4)
O2 O -0.0986(3) -0.1028(3) 0.6278(3)
O3 O -0.1943(4) -0.8390(3) 0.2078(4)
O4 O -0.3619(4) -0.9528(3) 0.2512(3)
Co1_2 Co -0.12531(6) 1.04361(5) 1.33657(5)
Co1A Co 0.12531(6) -0.04361(5) 0.66343(5)
Co1_3 Co -0.12531(6) -0.95639(5) 0.33657(5)
N2_2 N -0.1343(4) -0.1452(3) 0.1410(3)
O2A O 0.0986(3) 0.1028(3) 0.3722(3)
O3_2 O -0.1943(4) 0.1610(3) 0.2078(4)
O4_2 O -0.3619(4) 0.0472(3) 0.2512(3)
O5 O 0.3621(7) 0.8704(7) 0.1898(8)
loop_
_geom_bond_atom_site_label_1
_geom_bond_atom_site_label_2
_geom_bond_site_symmetry_1
_geom_bond_site_symmetry_2
Co1 N1 1_555 1_555
C1 C2 1_555 1_555
C2 H1 1_555 1_555
H2 C2 1_555 1_555
C3 C2 1_555 1_555
C4 C3 1_555 1_555
H3 C4 1_555 1_555
C5 C4 1_555 1_555
H4 C5 1_555 1_555
C6 C5 1_555 1_555
C7 C6 1_555 1_555
H5 C7 1_555 1_555
C8 C3 1_555 1_555
H6 C8 1_555 1_555
C9 C6 1_555 1_555
H7 C9 1_555 1_555
H8 C9 1_555 1_555
C10 C9 1_555 1_555
C11 H9 1_555 1_555
C12 C11 1_555 1_555
H10 C12 1_555 1_555
C13 C12 1_555 1_555
C14 C13 1_555 1_555
H11 C14 1_555 1_555
C15 C14 1_555 1_555
H12 C15 1_555 1_555
C16 C13 1_555 1_555
C17 C16 1_555 1_555
H13 C17 1_555 1_555
C18 C17 1_555 1_555
H14 C18 1_555 1_555
C19 H15 1_555 1_555
C20 C16 1_555 1_555
H16 C20 1_555 1_555
N1 C11 1_555 1_555
N2 C18 1_555 1_555
O1 Co1 1_555 1_555
O2 C1 1_555 1_555
O3 C10 1_555 1_555
O4 C10 1_555 1_555
Co1_2 N2 1_555 1_555
Co1A O2 1_555 1_555
Co1_3 O3 1_555 1_555
N2_2 Co1 1_555 1_555
O2A Co1 1_555 1_555
O3_2 Co1 1_555 1_555
O4_2 Co1 1_555 1_555
C1 O1 1_555 1_555
C7 C8 1_555 1_555
C15 N1 1_555 1_555
C19 C20 1_555 1_555
C19 N2 1_555 1_555
O4 Co1_3 1_555 1_555

#END
