
#######################################################################
#
#                 Cambridge Crystallographic Data Centre
#                                CCDC 
#
#######################################################################
#
# If this CIF has been generated from an entry in the Cambridge 
# Structural Database, then it will include bibliographic, chemical, 
# crystal, experimental, refinement or atomic coordinate data resulting 
# from the CCDC's data processing and validation procedures.
#
#######################################################################

data_NUHDOK01
_symmetry_cell_setting           triclinic
_symmetry_space_group_name_H-M   'P -1'
_symmetry_Int_Tables_number      2
_space_group_name_Hall           '-P 1'
loop_
_symmetry_equiv_pos_site_id
_symmetry_equiv_pos_as_xyz
1 x,y,z
2 -x,-y,-z
_cell_length_a                   10.3700(4)
_cell_length_b                   14.3641(5)
_cell_length_c                   15.3164(6)
_cell_angle_alpha                89.5770(10)
_cell_angle_beta                 74.1980(10)
_cell_angle_gamma                69.6300(10)
_cell_volume                     2048.28
loop_
_atom_site_label
_atom_site_type_symbol
_atom_site_fract_x
_atom_site_fract_y
_atom_site_fract_z
Ag1 Ag 0.43515(3) 0.970325(19) 0.380017(18)
Ag2 Ag 0.70998(3) 0.82528(2) 0.442799(18)
Ag3 Ag 0.84550(3) 0.605585(19) 0.051959(18)
Ag4 Ag 0.84339(3) 0.23891(2) 0.304807(18)
N1 N 0.5856(3) 0.8387(2) 0.2809(2)
N2 N 0.7042(3) 0.7848(2) 0.3090(2)
N3 N 0.7352(3) 0.7194(2) 0.1714(2)
N4 N 0.5883(3) 1.0531(2) 0.3975(2)
N5 N 0.5571(3) 1.1116(2) 0.4780(2)
N6 N 0.7039(3) 1.1600(2) 0.3680(2)
N7 N 0.8177(3) 0.8282(2) 0.5430(2)
N8 N 0.7820(3) 0.9189(2) 0.5918(2)
N9 N 0.9869(3) 0.8144(2) 0.6109(2)
N10 N 0.8892(3) 0.4582(2) 0.1152(2)
N11 N 1.0230(3) 0.3839(2) 0.0822(2)
N12 N 0.8978(3) 0.3321(2) 0.2008(2)
C1 C 0.6083(4) 0.7974(3) 0.1987(2)
C2 C 0.5076(4) 0.8330(3) 0.1420(2)
H1 H 0.5590 0.8509 0.0837
H2 H 0.4276 0.8942 0.1741
C3 C 0.4451(5) 0.7571(3) 0.1211(3)
H3 H 0.3981 0.7360 0.1790
H4 H 0.5241 0.6974 0.0853
C4 C 0.3359(5) 0.7990(4) 0.0678(3)
H5 H 0.3005 0.7473 0.0546
H6 H 0.3819 0.8202 0.0105
H7 H 0.2554 0.8563 0.1041
C5 C 0.7905(4) 0.7154(3) 0.2420(2)
C6 C 0.9344(4) 0.6435(3) 0.2430(3)
H8 H 0.9353 0.5746 0.2378
H9 H 0.9509 0.6549 0.3021
C7 C 1.0571(4) 0.6539(3) 0.1651(3)
H10 H 1.0391 0.6442 0.1061
H11 H 1.0576 0.7223 0.1713
C8 C 1.2035(5) 0.5794(4) 0.1641(4)
H12 H 1.2779 0.5913 0.1153
H13 H 1.2061 0.5114 0.1534
H14 H 1.2208 0.5872 0.2229
C9 C 0.6751(4) 1.0848(3) 0.3343(2)
C10 C 0.7320(4) 1.0431(3) 0.2364(2)
H15 H 0.7123 0.9811 0.2306
H16 H 0.8375 1.0256 0.2163
C11 C 0.6644(4) 1.1171(3) 0.1740(3)
H17 H 0.6855 1.1786 0.1793
H18 H 0.7090 1.0874 0.1100
C12 C 0.5033(5) 1.1443(5) 0.1972(4)
H19 H 0.4661 1.1898 0.1545
H20 H 0.4579 1.1770 0.2595
H21 H 0.4816 1.0836 0.1926
C13 C 0.6293(4) 1.1730(3) 0.4572(2)
C14 C 0.6271(4) 1.2485(3) 0.5249(3)
H22 H 0.7269 1.2361 0.5257
H23 H 0.5726 1.2397 0.5863
C15 C 0.5597(5) 1.3569(3) 0.5044(3)
H24 H 0.5613 1.4026 0.5518
H25 H 0.6181 1.3674 0.4450
C16 C 0.4051(5) 1.3827(3) 0.5016(4)
H26 H 0.3654 1.4530 0.4910
H27 H 0.3472 1.3711 0.5598
H28 H 0.4035 1.3406 0.4521
C17 C 0.9397(4) 0.7686(3) 0.5561(2)
C18 C 1.0124(4) 0.6619(3) 0.5172(3)
H29 H 1.1118 0.6511 0.4801
H30 H 0.9609 0.6474 0.4764
C19 C 1.0169(5) 0.5894(3) 0.5914(3)
H31 H 1.0664 0.5201 0.5623
H32 H 1.0732 0.6013 0.6301
C20 C 0.8688(6) 0.6009(4) 0.6506(4)
H33 H 0.8769 0.5540 0.6974
H34 H 0.8138 0.5870 0.6129
H35 H 0.8197 0.6693 0.6801
C21 C 0.8853(4) 0.9076(2) 0.6302(2)
C22 C 0.8934(4) 0.9910(3) 0.6834(3)
H36 H 0.9538 0.9627 0.7242
H37 H 0.7958 1.0310 0.7222
C23 C 0.9548(5) 1.0591(3) 0.6239(3)
H38 H 0.9016 1.0816 0.5782
H39 H 1.0566 1.0214 0.5906
C24 C 0.9452(5) 1.1500(3) 0.6797(3)
H40 H 0.9903 1.1904 0.6395
H41 H 0.9951 1.1280 0.7263
H42 H 0.8442 1.1901 0.7093
C25 C 0.8187(4) 0.4247(3) 0.1858(2)
C26 C 0.6670(4) 0.4818(3) 0.2405(3)
H43 H 0.6364 0.5500 0.2210
H44 H 0.6628 0.4877 0.3057
C27 C 0.5624(5) 0.4318(4) 0.2298(3)
H45 H 0.5861 0.3668 0.2558
H46 H 0.4634 0.4742 0.2646
C28 C 0.5685(6) 0.4154(4) 0.1311(4)
H47 H 0.4958 0.3878 0.1276
H48 H 0.6640 0.3687 0.0975
H49 H 0.5497 0.4792 0.1043
C29 C 1.0234(4) 0.3096(3) 0.1342(2)
C30 C 1.1446(4) 0.2117(3) 0.1190(3)
H50 H 1.1706 0.1969 0.1765
H51 H 1.2294 0.2164 0.0728
C31 C 1.1069(5) 0.1262(3) 0.0869(3)
H52 H 1.1902 0.0632 0.0792
H53 H 1.0256 0.1195 0.1350
C32 C 1.0671(6) 0.1398(4) -0.0012(3)
H54 H 1.0514 0.0804 -0.0197
H55 H 1.1451 0.1496 -0.0487
H56 H 0.9789 0.1983 0.0074
Ag1A Ag 0.56485(3) 1.029675(19) 0.619983(18)
Ag3A Ag 1.15450(3) 0.394415(19) -0.051959(18)
Ag4_2 Ag 0.84339(3) 1.23891(2) 0.304807(18)
Ag4A Ag 1.15661(3) 0.76109(2) 0.695193(18)
N5A N 0.4429(3) 0.8884(2) 0.5220(2)
N6_2 N 0.7039(3) 0.1600(2) 0.3680(2)
N8A N 0.2180(3) 1.0811(2) 0.4082(2)
N9A N 1.0131(3) 0.1856(2) 0.3891(2)
N11A N 0.9770(3) 0.6161(2) -0.0822(2)
loop_
_geom_bond_atom_site_label_1
_geom_bond_atom_site_label_2
_geom_bond_site_symmetry_1
_geom_bond_site_symmetry_2
Ag1 N1 1_555 1_555
Ag2 N2 1_555 1_555
Ag3 N3 1_555 1_555
Ag4 N12 1_555 1_555
N1 N2 1_555 1_555
N2 C5 1_555 1_555
N3 C1 1_555 1_555
N4 Ag1 1_555 1_555
N5 N4 1_555 1_555
N6 C9 1_555 1_555
N7 Ag2 1_555 1_555
N8 N7 1_555 1_555
N9 C17 1_555 1_555
N10 Ag3 1_555 1_555
N11 N10 1_555 1_555
N12 C25 1_555 1_555
C1 N1 1_555 1_555
C2 C1 1_555 1_555
H1 C2 1_555 1_555
H2 C2 1_555 1_555
C3 C2 1_555 1_555
H3 C3 1_555 1_555
H4 C3 1_555 1_555
C4 C3 1_555 1_555
H5 C4 1_555 1_555
H6 C4 1_555 1_555
H7 C4 1_555 1_555
C5 N3 1_555 1_555
C6 C5 1_555 1_555
H8 C6 1_555 1_555
H9 C6 1_555 1_555
C7 C6 1_555 1_555
H10 C7 1_555 1_555
H11 C7 1_555 1_555
C8 C7 1_555 1_555
H12 C8 1_555 1_555
H13 C8 1_555 1_555
H14 C8 1_555 1_555
C9 N4 1_555 1_555
C10 C9 1_555 1_555
H15 C10 1_555 1_555
H16 C10 1_555 1_555
C11 C10 1_555 1_555
H17 C11 1_555 1_555
H18 C11 1_555 1_555
C12 C11 1_555 1_555
H19 C12 1_555 1_555
H20 C12 1_555 1_555
H21 C12 1_555 1_555
C13 N5 1_555 1_555
C14 C13 1_555 1_555
H22 C14 1_555 1_555
H23 C14 1_555 1_555
C15 C14 1_555 1_555
H24 C15 1_555 1_555
H25 C15 1_555 1_555
C16 C15 1_555 1_555
H26 C16 1_555 1_555
H27 C16 1_555 1_555
H28 C16 1_555 1_555
C17 N7 1_555 1_555
C18 C17 1_555 1_555
H29 C18 1_555 1_555
H30 C18 1_555 1_555
C19 C18 1_555 1_555
H31 C19 1_555 1_555
H32 C19 1_555 1_555
C20 C19 1_555 1_555
H33 C20 1_555 1_555
H34 C20 1_555 1_555
H35 C20 1_555 1_555
C21 N8 1_555 1_555
C22 C21 1_555 1_555
H36 C22 1_555 1_555
H37 C22 1_555 1_555
C23 C22 1_555 1_555
H38 C23 1_555 1_555
H39 C23 1_555 1_555
C24 C23 1_555 1_555
H40 C24 1_555 1_555
H41 C24 1_555 1_555
H42 C24 1_555 1_555
C25 N10 1_555 1_555
C26 C25 1_555 1_555
H43 C26 1_555 1_555
H44 C26 1_555 1_555
C27 C26 1_555 1_555
H45 C27 1_555 1_555
H46 C27 1_555 1_555
C28 C27 1_555 1_555
H47 C28 1_555 1_555
H48 C28 1_555 1_555
H49 C28 1_555 1_555
C29 N11 1_555 1_555
C30 C29 1_555 1_555
H50 C30 1_555 1_555
H51 C30 1_555 1_555
C31 C30 1_555 1_555
H52 C31 1_555 1_555
H53 C31 1_555 1_555
C32 C31 1_555 1_555
H54 C32 1_555 1_555
H55 C32 1_555 1_555
H56 C32 1_555 1_555
Ag1A N5 1_555 1_555
Ag3A N11 1_555 1_555
Ag4_2 N6 1_555 1_555
Ag4A N9 1_555 1_555
N5A Ag1 1_555 1_555
N6_2 Ag4 1_555 1_555
N8A Ag1 1_555 1_555
N9A Ag4 1_555 1_555
N11A Ag3 1_555 1_555
N6 C13 1_555 1_555
N8 Ag1A 1_555 1_555
N9 C21 1_555 1_555
N12 C29 1_555 1_555

#END
