
#######################################################################
#
#                 Cambridge Crystallographic Data Centre
#                                CCDC 
#
#######################################################################
#
# If this CIF has been generated from an entry in the Cambridge 
# Structural Database, then it will include bibliographic, chemical, 
# crystal, experimental, refinement or atomic coordinate data resulting 
# from the CCDC's data processing and validation procedures.
#
#######################################################################

data_NUHFAY
_symmetry_cell_setting           tetragonal
_symmetry_space_group_name_H-M   'I -4 2 d'
_symmetry_Int_Tables_number      122
_space_group_name_Hall           'I -4 2bw'
loop_
_symmetry_equiv_pos_site_id
_symmetry_equiv_pos_as_xyz
1 x,y,z
2 -x,-y,z
3 y,-x,-z
4 -y,x,-z
5 1/2-x,y,3/4-z
6 1/2+x,-y,3/4-z
7 1/2-y,-x,3/4+z
8 1/2+y,x,3/4+z
9 1/2+x,1/2+y,1/2+z
10 1/2-x,1/2-y,1/2+z
11 1/2+y,1/2-x,1/2-z
12 1/2-y,1/2+x,1/2-z
13 -x,1/2+y,1/4-z
14 x,1/2-y,1/4-z
15 -y,1/2-x,1/4+z
16 y,1/2+x,1/4+z
_cell_length_a                   13.6784(19)
_cell_length_b                   13.6784(19)
_cell_length_c                   39.742(8)
_cell_angle_alpha                90
_cell_angle_beta                 90
_cell_angle_gamma                90
_cell_volume                     7435.67
loop_
_atom_site_label
_atom_site_type_symbol
_atom_site_fract_x
_atom_site_fract_y
_atom_site_fract_z
Ag1 Ag -0.12119(2) 0.61464(2) 0.249280(11)
Ag2 Ag 0.0000 1.0000 0.156140(7)
N1 N -0.0561(2) 0.7300(2) 0.21860(9)
N2 N 0.0421(2) 0.7423(2) 0.22433(9)
N3 N -0.00460(18) 0.8586(3) 0.18836(6)
N4 N 0.0000 1.0000 0.09845(8)
N5 N 0.0492(3) 0.98990(19) 0.04467(6)
C1 C 0.0704(3) 0.8178(3) 0.20595(9)
C2 C -0.0823(3) 0.8003(3) 0.19709(9)
C3 C 0.0761(2) 0.9835(2) 0.07699(8)
C4 C 0.1730(3) 0.8509(3) 0.20707(9)
C5 C 0.1979(3) 0.9475(3) 0.21270(12)
H1 H 0.1490 0.9946 0.2141
C6 C 0.2943(3) 0.9749(4) 0.21628(13)
H2 H 0.3101 1.0402 0.2199
C7 C 0.3679(4) 0.9051(4) 0.21444(13)
H3 H 0.4329 0.9235 0.2170
C8 C 0.3444(4) 0.8089(3) 0.20877(12)
H4 H 0.3934 0.7619 0.2076
C9 C 0.2469(4) 0.7821(3) 0.20482(12)
H5 H 0.2312 0.7171 0.2006
C10 C -0.1827(3) 0.8089(3) 0.18424(9)
C11 C -0.2608(4) 0.7706(4) 0.20257(13)
H6 H -0.2486 0.7393 0.2229
C12 C -0.3559(4) 0.7781(3) 0.19112(12)
H7 H -0.4071 0.7520 0.2036
C13 C -0.3746(4) 0.8250(3) 0.16072(13)
H8 H -0.4384 0.8312 0.1530
C14 C -0.2982(4) 0.8621(4) 0.14221(12)
H9 H -0.3107 0.8932 0.1219
C15 C -0.2031(3) 0.8537(3) 0.15347(10)
H10 H -0.1522 0.8782 0.1404
C16 C 0.1777(3) 0.9601(3) 0.08619(8)
C17 C 0.2537(4) 0.9887(3) 0.06511(9)
H11 H 0.2398 1.0257 0.0461
C18 C 0.3494(3) 0.9631(3) 0.07191(11)
H12 H 0.3994 0.9825 0.0575
C19 C 0.3703(4) 0.9085(4) 0.10034(13)
H13 H 0.4345 0.8912 0.1051
C20 C 0.2965(4) 0.8799(4) 0.12153(12)
H14 H 0.3110 0.8438 0.1407
C21 C 0.2002(3) 0.9046(3) 0.11440(9)
H15 H 0.1504 0.8839 0.1286
Ag1A Ag 0.12119(2) 1.38536(2) 0.249280(11)
Ag1J Ag 0.11464(2) 0.62119(2) 0.250720(11)
Ag1L Ag 0.12119(2) 1.11464(2) 0.000720(11)
Ag1G Ag 0.11464(2) 0.87881(2) -0.000720(11)
Ag1M Ag -0.12119(2) 0.88536(2) 0.000720(11)
Ag1F Ag -0.11464(2) 1.12119(2) -0.000720(11)
Ag1K Ag -0.11464(2) 1.37881(2) 0.250720(11)
N1A N 0.0561(2) 1.2700(2) 0.21860(9)
N2A N -0.0421(2) 1.2577(2) 0.22433(9)
N2K N -0.2423(2) 0.5421(2) 0.27567(9)
N2J N 0.2423(2) 1.4579(2) 0.27567(9)
N3A N 0.00460(18) 1.1414(3) 0.18836(6)
N5A N -0.0492(3) 1.01010(19) 0.04467(6)
N5L N -0.0492(3) 0.48990(19) 0.20533(6)
N5O N -0.01010(19) 0.5492(3) 0.29467(6)
N5M N 0.0492(3) 1.51010(19) 0.20533(6)
N5N N 0.01010(19) 1.4508(3) 0.29467(6)
C1A C -0.0704(3) 1.1822(3) 0.20595(9)
C2A C 0.0823(3) 1.1997(3) 0.19709(9)
C3A C -0.0761(2) 1.0165(2) 0.07699(8)
C4A C -0.1730(3) 1.1491(3) 0.20707(9)
C5A C -0.1979(3) 1.0525(3) 0.21270(12)
H1A H -0.1490 1.0054 0.2141
C6A C -0.2943(3) 1.0251(4) 0.21628(13)
H2A H -0.3101 0.9598 0.2199
C7A C -0.3679(4) 1.0949(4) 0.21444(13)
H3A H -0.4329 1.0765 0.2170
C8A C -0.3444(4) 1.1911(3) 0.20877(12)
H4A H -0.3934 1.2381 0.2076
C9A C -0.2469(4) 1.2179(3) 0.20482(12)
H5A H -0.2312 1.2829 0.2006
C10A C 0.1827(3) 1.1911(3) 0.18424(9)
C11A C 0.2608(4) 1.2294(4) 0.20257(13)
H6A H 0.2486 1.2607 0.2229
C12A C 0.3559(4) 1.2219(3) 0.19112(12)
H7A H 0.4071 1.2480 0.2036
C13A C 0.3746(4) 1.1750(3) 0.16072(13)
H8A H 0.4384 1.1688 0.1530
C14A C 0.2982(4) 1.1379(4) 0.14221(12)
H9A H 0.3107 1.1068 0.1219
C15A C 0.2031(3) 1.1463(3) 0.15347(10)
H10A H 0.1522 1.1218 0.1404
C16A C -0.1777(3) 1.0399(3) 0.08619(8)
C17A C -0.2537(4) 1.0113(3) 0.06511(9)
H11A H -0.2398 0.9743 0.0461
C18A C -0.3494(3) 1.0369(3) 0.07191(11)
H12A H -0.3994 1.0175 0.0575
C19A C -0.3703(4) 1.0915(4) 0.10034(13)
H13A H -0.4345 1.1088 0.1051
C20A C -0.2965(4) 1.1201(4) 0.12153(12)
H14A H -0.3110 1.1562 0.1407
C21A C -0.2002(3) 1.0954(3) 0.11440(9)
H15A H -0.1504 1.1161 0.1286
loop_
_geom_bond_atom_site_label_1
_geom_bond_atom_site_label_2
_geom_bond_site_symmetry_1
_geom_bond_site_symmetry_2
Ag1 N1 1_555 1_555
Ag2 N3 1_555 1_555
N1 N2 1_555 1_555
N2 C1 1_555 1_555
N3 C1 1_555 1_555
N4 Ag2 1_555 1_555
N5 C3 1_555 1_555
C1 C4 1_555 1_555
C2 N1 1_555 1_555
C3 N4 1_555 1_555
C4 C5 1_555 1_555
C5 H1 1_555 1_555
C6 C5 1_555 1_555
H2 C6 1_555 1_555
C7 C6 1_555 1_555
H3 C7 1_555 1_555
C8 C7 1_555 1_555
H4 C8 1_555 1_555
C9 C4 1_555 1_555
H5 C9 1_555 1_555
C10 C2 1_555 1_555
C11 C10 1_555 1_555
H6 C11 1_555 1_555
C12 C11 1_555 1_555
H7 C12 1_555 1_555
C13 C12 1_555 1_555
H8 C13 1_555 1_555
C14 C13 1_555 1_555
H9 C14 1_555 1_555
C15 C10 1_555 1_555
H10 C15 1_555 1_555
C16 C3 1_555 1_555
C17 C16 1_555 1_555
H11 C17 1_555 1_555
C18 C17 1_555 1_555
H12 C18 1_555 1_555
C19 C18 1_555 1_555
H13 C19 1_555 1_555
C20 C19 1_555 1_555
H14 C20 1_555 1_555
C21 C16 1_555 1_555
H15 C21 1_555 1_555
Ag1A N1A 1_555 1_555
Ag1J N2 1_555 1_555
Ag1L N5 1_555 1_555
Ag1G N5 1_555 1_555
Ag1M N5A 1_555 1_555
Ag1F N5A 1_555 1_555
Ag1K N2A 1_555 1_555
N1A N2A 1_555 1_555
N2A C1A 1_555 1_555
N2K Ag1 1_555 1_555
N2J Ag1A 1_555 1_555
N3A Ag2 1_555 1_555
N5A N5 1_555 1_555
N5L Ag1 1_555 1_555
N5O Ag1 1_555 1_555
N5M Ag1A 1_555 1_555
N5N Ag1A 1_555 1_555
C1A N3A 1_555 1_555
C2A N1A 1_555 1_555
C3A N4 1_555 1_555
C4A C1A 1_555 1_555
C5A C4A 1_555 1_555
H1A C5A 1_555 1_555
C6A C5A 1_555 1_555
H2A C6A 1_555 1_555
C7A C6A 1_555 1_555
H3A C7A 1_555 1_555
C8A C7A 1_555 1_555
H4A C8A 1_555 1_555
C9A C4A 1_555 1_555
H5A C9A 1_555 1_555
C10A C2A 1_555 1_555
C11A C10A 1_555 1_555
H6A C11A 1_555 1_555
C12A C11A 1_555 1_555
H7A C12A 1_555 1_555
C13A C12A 1_555 1_555
H8A C13A 1_555 1_555
C14A C13A 1_555 1_555
H9A C14A 1_555 1_555
C15A C10A 1_555 1_555
H10A C15A 1_555 1_555
C16A C3A 1_555 1_555
C17A C16A 1_555 1_555
H11A C17A 1_555 1_555
C18A C17A 1_555 1_555
H12A C18A 1_555 1_555
C19A C18A 1_555 1_555
H13A C19A 1_555 1_555
C20A C19A 1_555 1_555
H14A C20A 1_555 1_555
C21A C16A 1_555 1_555
H15A C21A 1_555 1_555
N3 C2 1_555 1_555
C8 C9 1_555 1_555
C14 C15 1_555 1_555
C20 C21 1_555 1_555
Ag1J N5O 1_555 1_555
Ag1K N5N 1_555 1_555
N3A C2A 1_555 1_555
N5A C3A 1_555 1_555
C8A C9A 1_555 1_555
C14A C15A 1_555 1_555
C20A C21A 1_555 1_555

#END
