
#######################################################################
#
#                 Cambridge Crystallographic Data Centre
#                                CCDC 
#
#######################################################################
#
# If this CIF has been generated from an entry in the Cambridge 
# Structural Database, then it will include bibliographic, chemical, 
# crystal, experimental, refinement or atomic coordinate data resulting 
# from the CCDC's data processing and validation procedures.
#
#######################################################################

data_NUHLIM
_symmetry_cell_setting           monoclinic
_symmetry_space_group_name_H-M   'C 2/c'
_symmetry_Int_Tables_number      15
_space_group_name_Hall           '-C 2yn'
loop_
_symmetry_equiv_pos_site_id
_symmetry_equiv_pos_as_xyz
1 x,y,z
2 -x,y,1/2-z
3 1/2+x,1/2+y,z
4 1/2-x,1/2+y,1/2-z
5 -x,-y,-z
6 x,-y,1/2+z
7 1/2-x,1/2-y,-z
8 1/2+x,1/2-y,1/2+z
_cell_length_a                   19.1935(12)
_cell_length_b                   19.8554(12)
_cell_length_c                   22.9368(14)
_cell_angle_alpha                90
_cell_angle_beta                 108.4480(10)
_cell_angle_gamma                90
_cell_volume                     8291.9
loop_
_atom_site_label
_atom_site_type_symbol
_atom_site_fract_x
_atom_site_fract_y
_atom_site_fract_z
Mn1 Mn 0.815804(19) 0.041604(17) 0.672782(17)
O1 O 0.89511(10) 0.08488(10) 0.75620(9)
H1 H 0.9216(17) 0.1131(15) 0.7502(14)
C1 C 0.88425(19) 0.10607(18) 0.81108(15)
H2 H 0.8664 0.1516 0.8065
H3 H 0.9299 0.1039 0.8440
H4 H 0.8490 0.0772 0.8203
O2 O 0.73193(11) 0.00036(10) 0.59068(9)
H5 H 0.7045(17) -0.0272(15) 0.6037(15)
C2 C 0.68431(19) 0.03688(17) 0.54120(15)
H6 H 0.6377 0.0427 0.5478
H7 H 0.6775 0.0126 0.5036
H8 H 0.7053 0.0802 0.5385
O4 O 0.77692(11) -0.02441(10) 0.72878(10)
O5 O 0.68265(13) -0.07664(11) 0.66316(11)
C4 C 0.72272(18) -0.06224(15) 0.71660(16)
C5 C 0.70268(17) -0.09270(14) 0.76930(16)
C6 C 0.7420(2) -0.07534(18) 0.82834(18)
H13 H 0.7809 -0.0452 0.8358
C7 C 0.7233(3) -0.1030(2) 0.8771(2)
H14 H 0.7500 -0.0916 0.9173
C8 C 0.6655(3) -0.1472(2) 0.8663(3)
H15 H 0.6533 -0.1651 0.8992
C9 C 0.6261(2) -0.16497(19) 0.8078(2)
H16 H 0.5873 -0.1952 0.8007
C10 C 0.64446(19) -0.13724(16) 0.75858(19)
H17 H 0.6175 -0.1488 0.7185
O6 O 0.85344(11) 0.10924(9) 0.61710(9)
O7 O 0.94746(14) 0.15907(13) 0.68388(11)
C11 C 0.90327(17) 0.15185(15) 0.63156(15)
C12 C 0.91028(17) 0.19927(14) 0.58219(15)
C13 C 0.8587(2) 0.19996(19) 0.52582(17)
H18 H 0.8195 0.1700 0.5168
C14 C 0.8646(4) 0.2454(3) 0.4818(2)
H19 H 0.8291 0.2460 0.4433
C15 C 0.9221(4) 0.2892(2) 0.4946(3)
H20 H 0.9254 0.3194 0.4646
C16 C 0.9748(3) 0.2896(2) 0.5509(3)
H21 H 1.0142 0.3194 0.5594
C17 C 0.9685(2) 0.24467(16) 0.59492(19)
H22 H 1.0036 0.2448 0.6337
N1 N 0.73242(11) 0.12097(10) 0.68185(10)
N2 N 0.39650(10) 0.46211(10) 0.66596(9)
C18 C 0.66667(15) 0.10487(14) 0.68585(16)
H23 H 0.6537 0.0596 0.6838
C19 C 0.61708(17) 0.15137(15) 0.69280(15)
H24 H 0.5716 0.1373 0.6945
C20 C 0.63453(15) 0.21902(14) 0.69726(12)
C21 C 0.70307(16) 0.23562(13) 0.69318(14)
H25 H 0.7177 0.2805 0.6955
C22 C 0.74935(15) 0.18593(13) 0.68574(13)
H26 H 0.7950 0.1985 0.6833
C23 C 0.58234(18) 0.27224(16) 0.70430(15)
H27 H 0.5455 0.2515 0.7193
H28 H 0.6092 0.3046 0.7349
C24 C 0.54484(19) 0.30855(17) 0.64606(15)
H29 H 0.5175 0.2763 0.6156
H30 H 0.5817 0.3289 0.6308
C25 C 0.49345(16) 0.36211(14) 0.65337(13)
C26 C 0.51752(15) 0.42747(15) 0.67057(13)
H31 H 0.5667 0.4389 0.6786
C27 C 0.46758(14) 0.47484(13) 0.67555(12)
H32 H 0.4843 0.5185 0.6863
C28 C 0.37483(14) 0.39860(12) 0.65111(12)
H33 H 0.3259 0.3879 0.6451
C29 C 0.42064(16) 0.34839(13) 0.64431(13)
H34 H 0.4025 0.3052 0.6336
Mn1B Mn 0.315804(19) 0.541604(17) 0.672782(17)
N2B N 0.89650(10) -0.03789(10) 0.66596(9)
Mn2 Mn 0.7500 0.7500 0.5000
O3 O 0.76526(11) 0.70778(9) 0.41531(8)
H9 H 0.8062(16) 0.6886(15) 0.4319(14)
C3 C 0.7618(2) 0.74082(16) 0.35959(14)
H10 H 0.7221 0.7727 0.3493
H11 H 0.7537 0.7082 0.3273
H12 H 0.8072 0.7640 0.3645
O8 O 0.84175(10) 0.69032(9) 0.55260(9)
O9 O 0.88145(12) 0.64253(11) 0.48118(10)
C30 C 0.87817(14) 0.64698(14) 0.53446(14)
C31 C 0.91863(15) 0.59428(13) 0.58050(14)
C32 C 0.97037(16) 0.55321(15) 0.56734(16)
H35 H 0.9827 0.5603 0.5317
C33 C 1.0037(2) 0.50156(18) 0.6075(2)
H36 H 1.0387 0.4744 0.5989
C34 C 0.9852(2) 0.49102(19) 0.6585(2)
H37 H 1.0069 0.4558 0.6847
C35 C 0.9340(2) 0.5322(2) 0.6727(2)
H38 H 0.9221 0.5248 0.7084
C36 C 0.90121(19) 0.58387(18) 0.63362(16)
H39 H 0.8673 0.6117 0.6431
N3 N 0.67569(12) 0.66371(10) 0.50591(10)
C37 C 0.69302(16) 0.59923(14) 0.50019(15)
H40 H 0.7376 0.5898 0.4940
C38 C 0.64822(19) 0.54666(15) 0.50299(19)
H41 H 0.6621 0.5029 0.4974
C39 C 0.58252(18) 0.55814(16) 0.51407(18)
C40 C 0.56382(17) 0.62548(16) 0.51767(15)
H42 H 0.5190 0.6364 0.5227
C41 C 0.61097(15) 0.67537(14) 0.51377(13)
H43 H 0.5972 0.7198 0.5168
C42 C 0.53661(14) 0.5014(2) 0.52325(18)
H44 H 0.5620 0.4594 0.5223
H45 H 0.5308 0.5055 0.5636
Mn2B Mn 0.2500 0.2500 0.5000
O3F O 0.73474(11) 0.79222(9) 0.58469(8)
H9F H 0.6938(16) 0.8114(15) 0.5681(14)
C3F C 0.7382(2) 0.75918(16) 0.64041(14)
H10F H 0.7779 0.7273 0.6507
H11F H 0.7463 0.7918 0.6727
H12F H 0.6928 0.7360 0.6355
O8F O 0.65825(10) 0.80968(9) 0.44740(9)
O9F O 0.61855(12) 0.85747(11) 0.51882(10)
C30F C 0.62183(14) 0.85302(14) 0.46554(14)
C31F C 0.58137(15) 0.90572(13) 0.41950(14)
C32F C 0.52963(16) 0.94679(15) 0.43266(16)
H35F H 0.5173 0.9397 0.4683
C33F C 0.4963(2) 0.99844(18) 0.3925(2)
H36F H 0.4613 1.0256 0.4011
C34F C 0.5148(2) 1.00898(19) 0.3415(2)
H37F H 0.4931 1.0442 0.3153
C35F C 0.5660(2) 0.9678(2) 0.3273(2)
H38F H 0.5779 0.9752 0.2916
C36F C 0.59879(19) 0.91613(18) 0.36638(16)
H39F H 0.6327 0.8883 0.3569
N3D N 0.32431(12) 0.33629(10) 0.49409(10)
N3F N 0.82431(12) 0.83629(10) 0.49409(10)
C37D C 0.30698(16) 0.40077(14) 0.49981(15)
H40D H 0.2624 0.4102 0.5060
C38D C 0.35178(19) 0.45334(15) 0.49701(19)
H41D H 0.3379 0.4971 0.5026
C39D C 0.41748(18) 0.44186(16) 0.48593(18)
C40D C 0.43618(17) 0.37452(16) 0.48233(15)
H42D H 0.4810 0.3636 0.4773
C41D C 0.38903(15) 0.32463(14) 0.48623(13)
H43D H 0.4028 0.2802 0.4832
C42D C 0.46339(14) 0.4986(2) 0.47675(18)
H44D H 0.4380 0.5406 0.4777
H45D H 0.4692 0.4945 0.4364
loop_
_geom_bond_atom_site_label_1
_geom_bond_atom_site_label_2
_geom_bond_site_symmetry_1
_geom_bond_site_symmetry_2
Mn1 O1 1_555 1_555
Mn2 O3 1_555 1_555
O1 H1 1_555 1_555
C1 O1 1_555 1_555
H2 C1 1_555 1_555
H3 C1 1_555 1_555
H4 C1 1_555 1_555
O2 Mn1 1_555 1_555
H5 O2 1_555 1_555
C2 O2 1_555 1_555
H6 C2 1_555 1_555
H7 C2 1_555 1_555
H8 C2 1_555 1_555
O3 H9 1_555 1_555
C3 O3 1_555 1_555
H10 C3 1_555 1_555
H11 C3 1_555 1_555
H12 C3 1_555 1_555
O4 Mn1 1_555 1_555
O5 C4 1_555 1_555
C4 O4 1_555 1_555
C5 C4 1_555 1_555
C6 C5 1_555 1_555
H13 C6 1_555 1_555
C7 C6 1_555 1_555
H14 C7 1_555 1_555
C8 C7 1_555 1_555
H15 C8 1_555 1_555
C9 C8 1_555 1_555
H16 C9 1_555 1_555
C10 C5 1_555 1_555
H17 C10 1_555 1_555
O6 Mn1 1_555 1_555
O7 C11 1_555 1_555
C11 O6 1_555 1_555
C12 C11 1_555 1_555
C13 C12 1_555 1_555
H18 C13 1_555 1_555
C14 C13 1_555 1_555
H19 C14 1_555 1_555
C15 C14 1_555 1_555
H20 C15 1_555 1_555
C16 C15 1_555 1_555
H21 C16 1_555 1_555
C17 C12 1_555 1_555
H22 C17 1_555 1_555
N1 Mn1 1_555 1_555
N2 C27 1_555 1_555
C18 N1 1_555 1_555
H23 C18 1_555 1_555
C19 C18 1_555 1_555
H24 C19 1_555 1_555
C20 C19 1_555 1_555
C21 C20 1_555 1_555
H25 C21 1_555 1_555
C22 N1 1_555 1_555
H26 C22 1_555 1_555
C23 C20 1_555 1_555
H27 C23 1_555 1_555
H28 C23 1_555 1_555
C24 C23 1_555 1_555
H29 C24 1_555 1_555
H30 C24 1_555 1_555
C25 C24 1_555 1_555
C26 C25 1_555 1_555
H31 C26 1_555 1_555
C27 C26 1_555 1_555
H32 C27 1_555 1_555
C28 N2 1_555 1_555
H33 C28 1_555 1_555
C29 C25 1_555 1_555
H34 C29 1_555 1_555
O8 Mn2 1_555 1_555
O9 C30 1_555 1_555
C30 O8 1_555 1_555
C31 C30 1_555 1_555
C32 C31 1_555 1_555
H35 C32 1_555 1_555
C33 C32 1_555 1_555
H36 C33 1_555 1_555
C34 C33 1_555 1_555
H37 C34 1_555 1_555
C35 C34 1_555 1_555
H38 C35 1_555 1_555
C36 C31 1_555 1_555
H39 C36 1_555 1_555
N3 Mn2 1_555 1_555
C37 N3 1_555 1_555
H40 C37 1_555 1_555
C38 C37 1_555 1_555
H41 C38 1_555 1_555
C39 C38 1_555 1_555
C40 C39 1_555 1_555
H42 C40 1_555 1_555
C41 N3 1_555 1_555
H43 C41 1_555 1_555
C42 C39 1_555 1_555
H44 C42 1_555 1_555
H45 C42 1_555 1_555
Mn1B N2 1_555 1_555
Mn2B N3D 1_555 1_555
O3F Mn2 1_555 1_555
H9F O3F 1_555 1_555
C3F O3F 1_555 1_555
H10F C3F 1_555 1_555
H11F C3F 1_555 1_555
H12F C3F 1_555 1_555
N2B Mn1 1_555 1_555
O8F Mn2 1_555 1_555
O9F C30F 1_555 1_555
C30F O8F 1_555 1_555
C31F C30F 1_555 1_555
C32F C31F 1_555 1_555
H35F C32F 1_555 1_555
C33F C32F 1_555 1_555
H36F C33F 1_555 1_555
C34F C33F 1_555 1_555
H37F C34F 1_555 1_555
C35F C34F 1_555 1_555
H38F C35F 1_555 1_555
C36F C31F 1_555 1_555
H39F C36F 1_555 1_555
N3D C37D 1_555 1_555
N3F Mn2 1_555 1_555
C37D H40D 1_555 1_555
C38D C37D 1_555 1_555
H41D C38D 1_555 1_555
C39D C38D 1_555 1_555
C40D C39D 1_555 1_555
H42D C40D 1_555 1_555
C41D N3D 1_555 1_555
H43D C41D 1_555 1_555
C42D C42 1_555 1_555
H44D C42D 1_555 1_555
H45D C42D 1_555 1_555
C9 C10 1_555 1_555
C16 C17 1_555 1_555
C21 C22 1_555 1_555
C28 C29 1_555 1_555
C35 C36 1_555 1_555
C40 C41 1_555 1_555
C35F C36F 1_555 1_555
C39D C42D 1_555 1_555
C40D C41D 1_555 1_555

#END
