
#######################################################################
#
#                 Cambridge Crystallographic Data Centre
#                                CCDC 
#
#######################################################################
#
# If this CIF has been generated from an entry in the Cambridge 
# Structural Database, then it will include bibliographic, chemical, 
# crystal, experimental, refinement or atomic coordinate data resulting 
# from the CCDC's data processing and validation procedures.
#
#######################################################################

data_NUHYAR
_symmetry_cell_setting           monoclinic
_symmetry_space_group_name_H-M   'P 21/m'
_symmetry_Int_Tables_number      11
_space_group_name_Hall           '-P 2yb'
loop_
_symmetry_equiv_pos_site_id
_symmetry_equiv_pos_as_xyz
1 x,y,z
2 -x,1/2+y,-z
3 -x,-y,-z
4 x,1/2-y,z
_cell_length_a                   5.805(5)
_cell_length_b                   26.19(2)
_cell_length_c                   12.117(10)
_cell_angle_alpha                90
_cell_angle_beta                 91.596(14)
_cell_angle_gamma                90
_cell_volume                     1841.47
loop_
_atom_site_label
_atom_site_type_symbol
_atom_site_fract_x
_atom_site_fract_y
_atom_site_fract_z
Zn1 Zn 0.67030(12) 0.05178(3) 0.10854(6)
N1 N 0.5654(9) 0.1039(2) 0.2287(4)
N2 N 0.9411(10) 0.0435(2) 0.2372(4)
O1 O 0.3607(7) 0.06207(17) 0.0234(3)
O2 O 0.3770(8) 0.02274(17) -0.1398(4)
O3 O -0.1447(7) 0.07069(19) -0.0201(3)
O4 O -0.1339(12) 0.1482(2) 0.0535(5)
O5 O -0.1963(11) 0.2500 -0.3381(5)
O6 O 0.1792(12) 0.2500 -0.4308(5)
S1 S 0.0508(4) 0.2500 -0.33078(18)
C1 C 0.3397(10) 0.0606(3) -0.0786(5)
C2 C 0.2667(10) 0.1087(2) -0.1386(5)
C3 C 0.4064(11) 0.1277(3) -0.2206(5)
H1 H 0.5413 0.1107 -0.2378
C4 C 0.3449(11) 0.1719(2) -0.2766(5)
H2 H 0.4400 0.1850 -0.3302
C5 C 0.1386(11) 0.1968(2) -0.2523(5)
C6 C 0.0000(11) 0.1783(2) -0.1688(5)
H3 H -0.1362 0.1950 -0.1524
C7 C 0.0652(11) 0.1351(2) -0.1108(5)
C8 C -0.0866(12) 0.1170(3) -0.0173(6)
C9 C 0.3919(14) 0.1367(3) 0.2186(6)
H4 H 0.2995 0.1360 0.1547
C10 C 0.3433(14) 0.1721(3) 0.3006(6)
H5 H 0.2237 0.1954 0.2898
C11 C 0.4709(14) 0.1726(3) 0.3962(6)
H6 H 0.4337 0.1950 0.4525
C12 C 0.6595(13) 0.1392(3) 0.4100(6)
C13 C 0.8032(14) 0.1365(3) 0.5066(6)
H7 H 0.7759 0.1584 0.5652
C14 C 0.9753(15) 0.1034(4) 0.5148(6)
H8 H 1.0617 0.1015 0.5805
C15 C 1.0323(13) 0.0702(3) 0.4239(5)
C16 C 1.2247(13) 0.0357(3) 0.4243(6)
H9 H 1.3223 0.0331 0.4862
C17 C 1.2622(13) 0.0074(3) 0.3342(6)
H10 H 1.3853 -0.0153 0.3344
C18 C 1.1196(12) 0.0116(3) 0.2409(6)
H11 H 1.1494 -0.0084 0.1794
C19 C 0.8967(11) 0.0723(2) 0.3277(5)
C20 C 0.7034(11) 0.1056(2) 0.3205(5)
Zn1C Zn 0.67030(12) 0.44822(3) 0.10854(6)
Zn1B Zn 0.32970(12) -0.05178(3) -0.10854(6)
Zn1_2 Zn -0.32970(12) 0.05178(3) 0.10854(6)
Zn1A Zn 0.32970(12) 0.55178(3) -0.10854(6)
Zn1C_2 Zn -0.32970(12) 0.44822(3) 0.10854(6)
N1C N 0.5654(9) 0.3961(2) 0.2287(4)
N2C N 0.9411(10) 0.4565(2) 0.2372(4)
O1C O 0.3607(7) 0.43793(17) 0.0234(3)
O2C O 0.3770(8) 0.47726(17) -0.1398(4)
O2B O 0.6230(8) -0.02274(17) 0.1398(4)
O2A O 0.6230(8) 0.52274(17) 0.1398(4)
O3C O -0.1447(7) 0.42931(19) -0.0201(3)
O3_2 O 0.8553(7) 0.07069(19) -0.0201(3)
O3C_2 O 0.8553(7) 0.42931(19) -0.0201(3)
O4C O -0.1339(12) 0.3518(2) 0.0535(5)
C1C C 0.3397(10) 0.4394(3) -0.0786(5)
C2C C 0.2667(10) 0.3913(2) -0.1386(5)
C3C C 0.4064(11) 0.3723(3) -0.2206(5)
H1C H 0.5413 0.3893 -0.2378
C4C C 0.3449(11) 0.3281(2) -0.2766(5)
H2C H 0.4400 0.3150 -0.3302
C5C C 0.1386(11) 0.3032(2) -0.2523(5)
C6C C 0.0000(11) 0.3217(2) -0.1688(5)
H3C H -0.1362 0.3050 -0.1524
C7C C 0.0652(11) 0.3649(2) -0.1108(5)
C8C C -0.0866(12) 0.3830(3) -0.0173(6)
C9C C 0.3919(14) 0.3633(3) 0.2186(6)
H4C H 0.2995 0.3640 0.1547
C10C C 0.3433(14) 0.3279(3) 0.3006(6)
H5C H 0.2237 0.3046 0.2898
C11C C 0.4709(14) 0.3274(3) 0.3962(6)
H6C H 0.4337 0.3050 0.4525
C12C C 0.6595(13) 0.3608(3) 0.4100(6)
C13C C 0.8032(14) 0.3635(3) 0.5066(6)
H7C H 0.7759 0.3416 0.5652
C14C C 0.9753(15) 0.3966(4) 0.5148(6)
H8C H 1.0617 0.3985 0.5805
C15C C 1.0323(13) 0.4298(3) 0.4239(5)
C16C C 1.2247(13) 0.4643(3) 0.4243(6)
H9C H 1.3223 0.4669 0.4862
C17C C 1.2622(13) 0.4926(3) 0.3342(6)
H10C H 1.3853 0.5153 0.3344
C18C C 1.1196(12) 0.4884(3) 0.2409(6)
H11C H 1.1494 0.5084 0.1794
C19C C 0.8967(11) 0.4277(2) 0.3277(5)
C20C C 0.7034(11) 0.3944(2) 0.3205(5)
O7 O 0.068(3) 0.2500 0.0963(13)
H12 H 0.032(18) 0.280(2) 0.071(9)
H12C H 0.032(18) 0.220(2) 0.071(9)
O8 O 0.523(3) 0.2500 0.9741(13)
loop_
_geom_bond_atom_site_label_1
_geom_bond_atom_site_label_2
_geom_bond_site_symmetry_1
_geom_bond_site_symmetry_2
Zn1 N1 1_555 1_555
N1 C9 1_555 1_555
N2 Zn1 1_555 1_555
O1 Zn1 1_555 1_555
O2 C1 1_555 1_555
O3 C8 1_555 1_555
O4 C8 1_555 1_555
O5 S1 1_555 1_555
O6 S1 1_555 1_555
O7 H12 1_555 1_555
S1 C5 1_555 1_555
C1 O1 1_555 1_555
C2 C1 1_555 1_555
C3 C2 1_555 1_555
H1 C3 1_555 1_555
C4 C3 1_555 1_555
H2 C4 1_555 1_555
C5 C4 1_555 1_555
C6 C5 1_555 1_555
H3 C6 1_555 1_555
C7 C2 1_555 1_555
C8 C7 1_555 1_555
C9 H4 1_555 1_555
C10 C9 1_555 1_555
H5 C10 1_555 1_555
C11 C10 1_555 1_555
H6 C11 1_555 1_555
C12 C11 1_555 1_555
C13 C12 1_555 1_555
H7 C13 1_555 1_555
C14 C13 1_555 1_555
H8 C14 1_555 1_555
C15 C14 1_555 1_555
C16 C15 1_555 1_555
H9 C16 1_555 1_555
C17 C16 1_555 1_555
H10 C17 1_555 1_555
C18 N2 1_555 1_555
H11 C18 1_555 1_555
C19 N2 1_555 1_555
C20 N1 1_555 1_555
Zn1C N1C 1_555 1_555
Zn1B O2 1_555 1_555
Zn1_2 O3 1_555 1_555
Zn1A O2C 1_555 1_555
Zn1C_2 O3C 1_555 1_555
N1C C9C 1_555 1_555
N2C Zn1C 1_555 1_555
O1C Zn1C 1_555 1_555
O2C C1C 1_555 1_555
O2B Zn1 1_555 1_555
O2A Zn1C 1_555 1_555
O3C C8C 1_555 1_555
O3_2 Zn1 1_555 1_555
O3C_2 Zn1C 1_555 1_555
O4C C8C 1_555 1_555
C1C O1C 1_555 1_555
C2C C1C 1_555 1_555
C3C C2C 1_555 1_555
H1C C3C 1_555 1_555
C4C C3C 1_555 1_555
H2C C4C 1_555 1_555
C5C S1 1_555 1_555
C6C C5C 1_555 1_555
H3C C6C 1_555 1_555
C7C C2C 1_555 1_555
C8C C7C 1_555 1_555
C9C H4C 1_555 1_555
C10C C9C 1_555 1_555
H5C C10C 1_555 1_555
C11C C10C 1_555 1_555
H6C C11C 1_555 1_555
C12C C11C 1_555 1_555
C13C C12C 1_555 1_555
H7C C13C 1_555 1_555
C14C C13C 1_555 1_555
H8C C14C 1_555 1_555
C15C C14C 1_555 1_555
C16C C15C 1_555 1_555
H9C C16C 1_555 1_555
C17C C16C 1_555 1_555
H10C C17C 1_555 1_555
C18C N2C 1_555 1_555
H11C C18C 1_555 1_555
C19C N2C 1_555 1_555
C20C N1C 1_555 1_555
H12C O7 1_555 1_555
C6 C7 1_555 1_555
C12 C20 1_555 1_555
C15 C19 1_555 1_555
C17 C18 1_555 1_555
C19 C20 1_555 1_555
C4C C5C 1_555 1_555
C6C C7C 1_555 1_555
C12C C20C 1_555 1_555
C15C C19C 1_555 1_555
C17C C18C 1_555 1_555
C19C C20C 1_555 1_555

#END
