
#######################################################################
#
#                 Cambridge Crystallographic Data Centre
#                                CCDC 
#
#######################################################################
#
# If this CIF has been generated from an entry in the Cambridge 
# Structural Database, then it will include bibliographic, chemical, 
# crystal, experimental, refinement or atomic coordinate data resulting 
# from the CCDC's data processing and validation procedures.
#
#######################################################################

data_NUJNOW
_symmetry_cell_setting           monoclinic
_symmetry_space_group_name_H-M   'C 2/c'
_symmetry_Int_Tables_number      15
_space_group_name_Hall           '-C 2yn'
loop_
_symmetry_equiv_pos_site_id
_symmetry_equiv_pos_as_xyz
1 x,y,z
2 -x,y,1/2-z
3 1/2+x,1/2+y,z
4 1/2-x,1/2+y,1/2-z
5 -x,-y,-z
6 x,-y,1/2+z
7 1/2-x,1/2-y,-z
8 1/2+x,1/2-y,1/2+z
_cell_length_a                   17.4581(11)
_cell_length_b                   13.6561(11)
_cell_length_c                   9.6240(7)
_cell_angle_alpha                90
_cell_angle_beta                 104.716(6)
_cell_angle_gamma                90
_cell_volume                     2219.19
loop_
_atom_site_label
_atom_site_type_symbol
_atom_site_fract_x
_atom_site_fract_y
_atom_site_fract_z
Cd1 Cd 0.0000 0.641917(17) 0.7500
N1 N 0.13714(12) 0.62499(14) 0.8633(2)
C1 C 0.21191(13) 0.83388(17) 0.5246(2)
H1 H 0.1867 0.8909 0.5417
C2 C 0.16790(11) 0.75805(16) 0.4491(2)
C3 C 0.29347(13) 0.82558(18) 0.5751(2)
H2 H 0.3224 0.8772 0.6259
C4 C 0.07876(12) 0.76504(19) 0.3977(2)
H3 H 0.0606 0.7313 0.3065
H4 H 0.0629 0.8331 0.3837
C5 C 0.18829(16) 0.6065(2) 0.7843(3)
H5 H 0.1687 0.5997 0.6855
C6 C 0.26849(16) 0.5971(2) 0.8417(3)
H6 H 0.3019 0.5840 0.7825
C7 C 0.29857(17) 0.6070(2) 0.9861(3)
H7 H 0.3527 0.6020 1.0271
C8 C 0.24725(18) 0.6243(2) 1.0688(3)
H8 H 0.2657 0.6304 1.1679
C9 C 0.16780(17) 0.6328(2) 1.0038(3)
H9 H 0.1335 0.6446 1.0617
C10 C 0.04202(12) 0.71871(19) 0.5091(2)
O1 O 0.02379(11) 0.62983(13) 0.4984(2)
O2 O 0.03464(10) 0.76881(13) 0.61346(19)
O4 O 0.0000 0.4762(3) 0.7500
H10 H -0.0055(18) 0.447(2) 0.688(3)
Cd1F Cd 0.5000 0.858083(17) 0.2500
N1A N -0.13714(12) 0.62499(14) 0.6367(2)
C1F C 0.28809(13) 0.66612(17) 0.4754(2)
H1F H 0.3133 0.6091 0.4583
C2F C 0.33210(11) 0.74195(16) 0.5509(2)
C3F C 0.20653(13) 0.67442(18) 0.4249(2)
H2F H 0.1776 0.6228 0.3741
C4F C 0.42124(12) 0.73496(19) 0.6023(2)
H3F H 0.4394 0.7687 0.6935
H4F H 0.4371 0.6669 0.6163
C5A C -0.18829(16) 0.6065(2) 0.7157(3)
H5A H -0.1687 0.5997 0.8145
C6A C -0.26849(16) 0.5971(2) 0.6583(3)
H6A H -0.3019 0.5840 0.7175
C7A C -0.29857(17) 0.6070(2) 0.5139(3)
H7A H -0.3527 0.6020 0.4729
C8A C -0.24725(18) 0.6243(2) 0.4312(3)
H8A H -0.2657 0.6304 0.3321
C9A C -0.16780(17) 0.6328(2) 0.4962(3)
H9A H -0.1335 0.6446 0.4383
C10F C 0.45798(12) 0.78129(19) 0.4909(2)
O1F O 0.47621(11) 0.87017(13) 0.5016(2)
O1A O -0.02379(11) 0.62983(13) 1.0016(2)
O2F O 0.46536(10) 0.73119(13) 0.38654(19)
O2A O -0.03464(10) 0.76881(13) 0.88654(19)
H10A H 0.0055(18) 0.447(2) 0.812(3)
O3 O 0.0439(2) 0.9731(2) 0.6437(4)
H11 H 0.0028(17) 0.969(3) 0.616(3)
H12 H 0.043(4) 0.904(4) 0.637(6)
loop_
_geom_bond_atom_site_label_1
_geom_bond_atom_site_label_2
_geom_bond_site_symmetry_1
_geom_bond_site_symmetry_2
Cd1 N1 1_555 1_555
N1 C5 1_555 1_555
C1 H1 1_555 1_555
C2 C1 1_555 1_555
C3 C1 1_555 1_555
H2 C3 1_555 1_555
C4 C2 1_555 1_555
H3 C4 1_555 1_555
H4 C4 1_555 1_555
C5 H5 1_555 1_555
C6 C5 1_555 1_555
H6 C6 1_555 1_555
C7 C6 1_555 1_555
H7 C7 1_555 1_555
C8 C7 1_555 1_555
H8 C8 1_555 1_555
C9 N1 1_555 1_555
H9 C9 1_555 1_555
C10 C4 1_555 1_555
O1 Cd1 1_555 1_555
O2 Cd1 1_555 1_555
O3 H11 1_555 1_555
O4 Cd1 1_555 1_555
H10 O4 1_555 1_555
H12 O3 1_555 1_555
Cd1F O1F 1_555 1_555
N1A Cd1 1_555 1_555
C1F H1F 1_555 1_555
C2F C3 1_555 1_555
C3F C2 1_555 1_555
H2F C3F 1_555 1_555
C4F C2F 1_555 1_555
H3F C4F 1_555 1_555
H4F C4F 1_555 1_555
C5A N1A 1_555 1_555
H5A C5A 1_555 1_555
C6A C5A 1_555 1_555
H6A C6A 1_555 1_555
C7A C6A 1_555 1_555
H7A C7A 1_555 1_555
C8A C7A 1_555 1_555
H8A C8A 1_555 1_555
C9A N1A 1_555 1_555
H9A C9A 1_555 1_555
C10F C4F 1_555 1_555
O1F C10F 1_555 1_555
O1A Cd1 1_555 1_555
O2F Cd1F 1_555 1_555
O2A Cd1 1_555 1_555
H10A O4 1_555 1_555
C8 C9 1_555 1_555
C10 O1 1_555 1_555
C10 O2 1_555 1_555
C1F C2F 1_555 1_555
C1F C3F 1_555 1_555
C8A C9A 1_555 1_555
C10F O2F 1_555 1_555

#END
