
#######################################################################
#
#                 Cambridge Crystallographic Data Centre
#                                CCDC 
#
#######################################################################
#
# If this CIF has been generated from an entry in the Cambridge 
# Structural Database, then it will include bibliographic, chemical, 
# crystal, experimental, refinement or atomic coordinate data resulting 
# from the CCDC's data processing and validation procedures.
#
#######################################################################

data_NUJNUC
_symmetry_cell_setting           monoclinic
_symmetry_space_group_name_H-M   'P 21/n'
_symmetry_Int_Tables_number      14
_space_group_name_Hall           '-P 2yn'
loop_
_symmetry_equiv_pos_site_id
_symmetry_equiv_pos_as_xyz
1 x,y,z
2 1/2-x,1/2+y,1/2-z
3 -x,-y,-z
4 1/2+x,1/2-y,1/2+z
_cell_length_a                   9.0423(3)
_cell_length_b                   8.0159(3)
_cell_length_c                   13.2883(4)
_cell_angle_alpha                90
_cell_angle_beta                 91.125(2)
_cell_angle_gamma                90
_cell_volume                     962.979
loop_
_atom_site_label
_atom_site_type_symbol
_atom_site_fract_x
_atom_site_fract_y
_atom_site_fract_z
Cu1 Cu 0.5000 0.0000 0.5000
C1 C 0.1452(3) 0.4856(3) 0.4635(2)
C2 C 0.3022(3) 0.4719(3) 0.4267(3)
H1 H 0.3691 0.5236 0.4754
H2 H 0.3103 0.5320 0.3637
C3 C 0.0357(3) 0.5670(4) 0.4079(2)
H3 H 0.0579 0.6129 0.3457
C4 C 0.1067(3) 0.4195(4) 0.5558(2)
H4 H 0.1783 0.3646 0.5945
C5 C 0.3481(3) 0.2901(4) 0.4110(3)
C6 C 0.7945(4) 0.1052(4) 0.4413(3)
H5 H 0.7905 0.1650 0.5011
C7 C 0.9216(4) 0.1095(5) 0.3880(3)
H6 H 1.0019 0.1723 0.4110
C8 C 0.6840(4) -0.0668(4) 0.3257(3)
H7 H 0.6022 -0.1279 0.3037
C9 C 0.9302(4) 0.0210(4) 0.3009(3)
H8 H 1.0166 0.0213 0.2640
C10 C 0.8096(4) -0.0681(5) 0.2686(3)
H9 H 0.8122 -0.1288 0.2090
O1 O 0.4407(2) 0.2322(3) 0.47516(19)
O2 O 0.6670(3) 0.1236(4) 0.6657(2)
O3 O 0.2928(3) 0.2116(3) 0.3397(2)
N1 N 0.6758(3) 0.0191(3) 0.4113(2)
H10 H 0.688(5) 0.024(5) 0.671(3)
H11 H 0.703(4) 0.176(5) 0.717(3)
Cu1_2 Cu -0.5000 1.0000 0.5000
C1B C -0.1452(3) 0.5144(3) 0.5365(2)
C2B C -0.3022(3) 0.5281(3) 0.5733(3)
H1B H -0.3691 0.4764 0.5246
H2B H -0.3103 0.4680 0.6363
C3B C -0.0357(3) 0.4330(4) 0.5921(2)
H3B H -0.0579 0.3871 0.6543
C4B C -0.1067(3) 0.5805(4) 0.4442(2)
H4B H -0.1783 0.6354 0.4055
C5B C -0.3481(3) 0.7099(4) 0.5890(3)
C6B C 0.2055(4) -0.1052(4) 0.5587(3)
H5B H 0.2095 -0.1650 0.4989
C7B C 0.0784(4) -0.1095(5) 0.6120(3)
H6B H -0.0019 -0.1723 0.5890
C8B C 0.3160(4) 0.0668(4) 0.6743(3)
H7B H 0.3978 0.1279 0.6963
C9B C 0.0698(4) -0.0210(4) 0.6991(3)
H8B H -0.0166 -0.0213 0.7360
C10B C 0.1904(4) 0.0681(5) 0.7314(3)
H9B H 0.1878 0.1288 0.7910
O1B O -0.4407(2) 0.7678(3) 0.52484(19)
O1B_2 O 0.5593(2) -0.2322(3) 0.52484(19)
O2B O 0.3330(3) -0.1236(4) 0.3343(2)
O3B O -0.2928(3) 0.7884(3) 0.6603(2)
N1B N 0.3242(3) -0.0191(3) 0.5887(2)
H10B H 0.312(5) -0.024(5) 0.329(3)
H11B H 0.297(4) -0.176(5) 0.283(3)
loop_
_geom_bond_atom_site_label_1
_geom_bond_atom_site_label_2
_geom_bond_site_symmetry_1
_geom_bond_site_symmetry_2
Cu1 O1 1_555 1_555
C1 C2 1_555 1_555
C2 H1 1_555 1_555
H2 C2 1_555 1_555
C3 C1 1_555 1_555
H3 C3 1_555 1_555
C4 C1 1_555 1_555
H4 C4 1_555 1_555
C5 C2 1_555 1_555
C6 H5 1_555 1_555
C7 C6 1_555 1_555
H6 C7 1_555 1_555
C8 H7 1_555 1_555
C9 C7 1_555 1_555
H8 C9 1_555 1_555
C10 C8 1_555 1_555
H9 C10 1_555 1_555
O1 C5 1_555 1_555
O2 Cu1 1_555 1_555
O3 C5 1_555 1_555
N1 Cu1 1_555 1_555
H10 O2 1_555 1_555
H11 O2 1_555 1_555
Cu1_2 O1B 1_555 1_555
C1B C2B 1_555 1_555
C2B H1B 1_555 1_555
H2B C2B 1_555 1_555
C3B C4 1_555 1_555
H3B C3B 1_555 1_555
C4B C3 1_555 1_555
H4B C4B 1_555 1_555
C5B C2B 1_555 1_555
C6B H5B 1_555 1_555
C7B C6B 1_555 1_555
H6B C7B 1_555 1_555
C8B H7B 1_555 1_555
C9B C7B 1_555 1_555
H8B C9B 1_555 1_555
C10B C8B 1_555 1_555
H9B C10B 1_555 1_555
O1B C5B 1_555 1_555
O1B_2 Cu1 1_555 1_555
O2B Cu1 1_555 1_555
O3B C5B 1_555 1_555
N1B Cu1 1_555 1_555
H10B O2B 1_555 1_555
H11B O2B 1_555 1_555
C6 N1 1_555 1_555
C8 N1 1_555 1_555
C9 C10 1_555 1_555
C1B C3B 1_555 1_555
C1B C4B 1_555 1_555
C6B N1B 1_555 1_555
C8B N1B 1_555 1_555
C9B C10B 1_555 1_555

#END
