
#######################################################################
#
#                 Cambridge Crystallographic Data Centre
#                                CCDC 
#
#######################################################################
#
# If this CIF has been generated from an entry in the Cambridge 
# Structural Database, then it will include bibliographic, chemical, 
# crystal, experimental, refinement or atomic coordinate data resulting 
# from the CCDC's data processing and validation procedures.
#
#######################################################################

data_NUJPAK
_symmetry_cell_setting           orthorhombic
_symmetry_space_group_name_H-M   'P b c a'
_symmetry_Int_Tables_number      61
_space_group_name_Hall           '-P 2ac 2ab'
loop_
_symmetry_equiv_pos_site_id
_symmetry_equiv_pos_as_xyz
1 x,y,z
2 1/2-x,-y,1/2+z
3 -x,1/2+y,1/2-z
4 1/2+x,1/2-y,-z
5 -x,-y,-z
6 1/2+x,y,1/2-z
7 x,1/2-y,1/2+z
8 1/2-x,1/2+y,z
_cell_length_a                   9.9452(3)
_cell_length_b                   16.4005(5)
_cell_length_c                   18.0695(5)
_cell_angle_alpha                90
_cell_angle_beta                 90
_cell_angle_gamma                90
_cell_volume                     2947.25
loop_
_atom_site_label
_atom_site_type_symbol
_atom_site_fract_x
_atom_site_fract_y
_atom_site_fract_z
Zn1 Zn 0.827753(16) 0.071770(10) 0.349092(9)
C1 C 1.05496(13) -0.00375(8) 0.38230(7)
C2 C 1.16021(13) -0.05549(9) 0.42041(9)
H1 H 1.2435 -0.0508 0.3928
H2 H 1.1761 -0.0329 0.4693
C3 C 1.18187(14) -0.28553(10) 0.40251(9)
H3 H 1.2360 -0.3232 0.3782
C4 C 1.12770(12) -0.14469(8) 0.42890(7)
C5 C 1.02402(14) -0.17184(8) 0.47396(8)
H4 H 0.9703 -0.1342 0.4985
C6 C 1.20590(14) -0.20286(9) 0.39353(8)
H5 H 1.2760 -0.1860 0.3631
C7 C 1.07859(13) -0.31232(8) 0.44703(8)
C8 C 0.99959(15) -0.25455(9) 0.48278(8)
H6 H 0.9294 -0.2716 0.5130
O1 O 1.08800(12) 0.04566(8) 0.33380(7)
O2 O 0.93405(10) -0.00945(7) 0.40390(6)
C9 C 0.96444(17) 0.21615(10) 0.28380(10)
H7 H 1.0166 0.1767 0.2605
C10 C 0.79801(19) 0.25027(11) 0.36598(11)
H8 H 0.7334 0.2346 0.4004
C11 C 0.9868(2) 0.29732(11) 0.26724(12)
H9 H 1.0525 0.3121 0.2332
C12 C 0.9105(2) 0.35574(11) 0.30176(12)
H10 H 0.9234 0.4107 0.2912
C13 C 0.8155(2) 0.33211(12) 0.35169(12)
H11 H 0.7631 0.3708 0.3759
N1 N 0.87089(13) 0.19235(8) 0.33203(7)
O3 O 0.80764(11) 0.02762(8) 0.24799(6)
H12 H 0.7331 0.0395 0.2318
O4 O 0.82237(10) -0.41844(8) 0.41841(7)
C14 C 0.94311(13) -0.42671(8) 0.39834(8)
O5 O 0.97542(13) -0.44957(9) 0.33658(7)
C15 C 1.04783(15) -0.40232(9) 0.45544(9)
H13 H 1.1292 -0.4340 0.4483
H14 H 1.0141 -0.4131 0.5049
H15 H 0.872(3) 0.0369(14) 0.2201(13)
Zn1G Zn 0.672247(16) -0.428230(10) 0.349092(9)
O4G O 0.67763(10) 0.08156(8) 0.41841(7)
loop_
_geom_bond_atom_site_label_1
_geom_bond_atom_site_label_2
_geom_bond_site_symmetry_1
_geom_bond_site_symmetry_2
Zn1 O2 1_555 1_555
C1 C2 1_555 1_555
C2 H1 1_555 1_555
H2 C2 1_555 1_555
C3 H3 1_555 1_555
C4 C2 1_555 1_555
C5 C4 1_555 1_555
H4 C5 1_555 1_555
C6 C3 1_555 1_555
H5 C6 1_555 1_555
C7 C3 1_555 1_555
C8 C5 1_555 1_555
H6 C8 1_555 1_555
O1 C1 1_555 1_555
O2 C1 1_555 1_555
C9 H7 1_555 1_555
C10 H8 1_555 1_555
C11 C9 1_555 1_555
H9 C11 1_555 1_555
C12 C11 1_555 1_555
H10 C12 1_555 1_555
C13 C10 1_555 1_555
H11 C13 1_555 1_555
N1 Zn1 1_555 1_555
O3 Zn1 1_555 1_555
H12 O3 1_555 1_555
O4 C14 1_555 1_555
C14 O5 1_555 1_555
C15 C7 1_555 1_555
H13 C15 1_555 1_555
H14 C15 1_555 1_555
H15 O3 1_555 1_555
Zn1G O4 1_555 1_555
O4G Zn1 1_555 1_555
C4 C6 1_555 1_555
C7 C8 1_555 1_555
C9 N1 1_555 1_555
C10 N1 1_555 1_555
C12 C13 1_555 1_555
C14 C15 1_555 1_555

#END
