
#######################################################################
#
#                 Cambridge Crystallographic Data Centre
#                                CCDC 
#
#######################################################################
#
# If this CIF has been generated from an entry in the Cambridge 
# Structural Database, then it will include bibliographic, chemical, 
# crystal, experimental, refinement or atomic coordinate data resulting 
# from the CCDC's data processing and validation procedures.
#
#######################################################################

data_NUJREQ
_symmetry_cell_setting           monoclinic
_symmetry_space_group_name_H-M   'P 21/n'
_symmetry_Int_Tables_number      14
_space_group_name_Hall           '-P 2yn'
loop_
_symmetry_equiv_pos_site_id
_symmetry_equiv_pos_as_xyz
1 x,y,z
2 1/2-x,1/2+y,1/2-z
3 -x,-y,-z
4 1/2+x,1/2-y,1/2+z
_cell_length_a                   9.779(2)
_cell_length_b                   10.196(2)
_cell_length_c                   11.188(2)
_cell_angle_alpha                90
_cell_angle_beta                 95.57(3)
_cell_angle_gamma                90
_cell_volume                     1110.25
loop_
_atom_site_label
_atom_site_type_symbol
_atom_site_fract_x
_atom_site_fract_y
_atom_site_fract_z
Zn1 Zn 0.0000 0.5000 0.5000
O1 O -0.01108(16) 0.55553(15) 0.69077(13)
O2 O 0.13987(19) 0.71342(17) 0.70473(17)
O3 O -0.0129(2) 0.70468(19) 0.82748(17)
N1 N 0.21151(17) 0.52533(16) 0.51815(15)
N2 N 0.40433(17) 0.54722(16) 0.63424(15)
N3 N 0.46261(17) 0.61499(15) 0.83780(14)
N4 N 0.51317(17) 0.73760(16) 0.85116(15)
N5 N 0.45843(17) 0.79278(16) 0.94060(15)
N6 N 0.04015(18) 0.65885(17) 0.74217(15)
C1 C 0.2838(2) 0.48358(19) 0.61560(18)
H1 H 0.2553 0.4182 0.6655
C2 C 0.2903(2) 0.6212(2) 0.47104(18)
H2 H 0.2654 0.6684 0.4012
C3 C 0.4095(2) 0.6360(2) 0.54218(18)
H3 H 0.4803 0.6943 0.5311
C4 C 0.5013(2) 0.5332(2) 0.73996(18)
H4 H 0.5923 0.5578 0.7204
H5 H 0.5044 0.4422 0.7653
C5 C 0.3704(2) 0.58971(19) 0.91913(17)
C6 C 0.2900(2) 0.4809(2) 0.9416(2)
H6 H 0.2927 0.4038 0.8975
C7 C 0.2068(2) 0.4947(2) 1.0326(2)
H7 H 0.1502 0.4253 1.0497
C8 C 0.2039(2) 0.6105(2) 1.1010(2)
H8 H 0.1465 0.6149 1.1624
C9 C 0.2835(2) 0.7167(2) 1.07959(19)
H9 H 0.2814 0.7930 1.1249
C10 C 0.3684(2) 0.70499(19) 0.98616(18)
Zn1A Zn 0.5000 1.0000 1.0000
Zn1A_2 Zn -0.5000 0.0000 0.0000
O1B O 0.01108(16) 0.44447(15) 0.30923(13)
O2B O -0.13987(19) 0.28658(17) 0.29527(17)
O3B O 0.0129(2) 0.29532(19) 0.17252(17)
N1B N -0.21151(17) 0.47467(16) 0.48185(15)
N2B N -0.40433(17) 0.45278(16) 0.36576(15)
N3B N -0.46261(17) 0.38501(15) 0.16220(14)
N4B N -0.51317(17) 0.26240(16) 0.14884(15)
N5B N -0.45843(17) 0.20722(16) 0.05940(15)
N5A N 0.04157(17) 0.29278(16) 0.55940(15)
N5C N -0.04157(17) 0.70722(16) 0.44060(15)
N6B N -0.04015(18) 0.34115(17) 0.25783(15)
C1B C -0.2838(2) 0.51642(19) 0.38440(18)
H1B H -0.2553 0.5818 0.3345
C2B C -0.2903(2) 0.3788(2) 0.52896(18)
H2B H -0.2654 0.3316 0.5988
C3B C -0.4095(2) 0.3640(2) 0.45782(18)
H3B H -0.4803 0.3057 0.4689
C4B C -0.5013(2) 0.4668(2) 0.26004(18)
H4B H -0.5923 0.4422 0.2796
H5B H -0.5044 0.5578 0.2347
C5B C -0.3704(2) 0.41029(19) 0.08087(17)
C6B C -0.2900(2) 0.5191(2) 0.0584(2)
H6B H -0.2927 0.5962 0.1025
C7B C -0.2068(2) 0.5053(2) -0.0326(2)
H7B H -0.1502 0.5747 -0.0497
C8B C -0.2039(2) 0.3895(2) -0.1010(2)
H8B H -0.1465 0.3851 -0.1624
C9B C -0.2835(2) 0.2833(2) -0.07959(19)
H9B H -0.2814 0.2070 -0.1249
C10B C -0.3684(2) 0.29501(19) 0.01384(18)
loop_
_geom_bond_atom_site_label_1
_geom_bond_atom_site_label_2
_geom_bond_site_symmetry_1
_geom_bond_site_symmetry_2
Zn1 O1 1_555 1_555
O1 N6 1_555 1_555
O2 N6 1_555 1_555
O3 N6 1_555 1_555
N1 Zn1 1_555 1_555
N2 C1 1_555 1_555
N3 N4 1_555 1_555
N4 N5 1_555 1_555
N5 C10 1_555 1_555
C1 N1 1_555 1_555
H1 C1 1_555 1_555
C2 N1 1_555 1_555
H2 C2 1_555 1_555
C3 N2 1_555 1_555
H3 C3 1_555 1_555
C4 N2 1_555 1_555
H4 C4 1_555 1_555
H5 C4 1_555 1_555
C5 N3 1_555 1_555
C6 C5 1_555 1_555
H6 C6 1_555 1_555
C7 C6 1_555 1_555
H7 C7 1_555 1_555
C8 C7 1_555 1_555
H8 C8 1_555 1_555
C9 C8 1_555 1_555
H9 C9 1_555 1_555
C10 C5 1_555 1_555
Zn1A N5 1_555 1_555
Zn1A_2 N5B 1_555 1_555
O1B Zn1 1_555 1_555
O2B N6B 1_555 1_555
O3B N6B 1_555 1_555
N1B Zn1 1_555 1_555
N2B C1B 1_555 1_555
N3B N4B 1_555 1_555
N4B N5B 1_555 1_555
N5B C10B 1_555 1_555
N5A Zn1 1_555 1_555
N5C Zn1 1_555 1_555
N6B O1B 1_555 1_555
C1B N1B 1_555 1_555
H1B C1B 1_555 1_555
C2B N1B 1_555 1_555
H2B C2B 1_555 1_555
C3B N2B 1_555 1_555
H3B C3B 1_555 1_555
C4B N2B 1_555 1_555
H4B C4B 1_555 1_555
H5B C4B 1_555 1_555
C5B N3B 1_555 1_555
C6B C5B 1_555 1_555
H6B C6B 1_555 1_555
C7B C6B 1_555 1_555
H7B C7B 1_555 1_555
C8B C7B 1_555 1_555
H8B C8B 1_555 1_555
C9B C8B 1_555 1_555
H9B C9B 1_555 1_555
C10B C5B 1_555 1_555
N3 C4 1_555 1_555
C2 C3 1_555 1_555
C9 C10 1_555 1_555
N3B C4B 1_555 1_555
C2B C3B 1_555 1_555
C9B C10B 1_555 1_555

#END
