
#######################################################################
#
#                 Cambridge Crystallographic Data Centre
#                                CCDC 
#
#######################################################################
#
# If this CIF has been generated from an entry in the Cambridge 
# Structural Database, then it will include bibliographic, chemical, 
# crystal, experimental, refinement or atomic coordinate data resulting 
# from the CCDC's data processing and validation procedures.
#
#######################################################################

data_NUJROA
_symmetry_cell_setting           monoclinic
_symmetry_space_group_name_H-M   'P 21/n'
_symmetry_Int_Tables_number      14
_space_group_name_Hall           '-P 2yn'
loop_
_symmetry_equiv_pos_site_id
_symmetry_equiv_pos_as_xyz
1 x,y,z
2 1/2-x,1/2+y,1/2-z
3 -x,-y,-z
4 1/2+x,1/2-y,1/2+z
_cell_length_a                   9.887(2)
_cell_length_b                   10.393(2)
_cell_length_c                   11.252(2)
_cell_angle_alpha                90
_cell_angle_beta                 93.99(3)
_cell_angle_gamma                90
_cell_volume                     1153.4
loop_
_atom_site_label
_atom_site_type_symbol
_atom_site_fract_x
_atom_site_fract_y
_atom_site_fract_z
Cd1 Cd 0.0000 0.5000 0.5000
N1 N 0.2297(2) 0.48012(18) 0.51397(18)
N2 N 0.41253(18) 0.45466(19) 0.63379(16)
N3 N 0.46593(19) 0.39189(17) 0.83602(16)
N4 N 0.5163(2) 0.27203(18) 0.84941(17)
N5 N 0.4604(2) 0.21811(18) 0.93877(17)
N6 N 0.0434(2) 0.34181(19) 0.74732(17)
O1 O -0.0118(2) 0.44287(18) 0.70317(15)
O2 O 0.1410(3) 0.2933(2) 0.7023(2)
O3 O -0.0012(3) 0.2913(2) 0.8341(2)
C1 C 0.2988(2) 0.5232(2) 0.6093(2)
H1 H 0.2725 0.5926 0.6544
C2 C 0.3029(2) 0.3764(2) 0.4750(2)
H2 H 0.2781 0.3259 0.4088
C3 C 0.4162(2) 0.3599(2) 0.5483(2)
H3 H 0.4827 0.2974 0.5423
C4 C 0.5054(2) 0.4716(2) 0.7379(2)
H4 H 0.5061 0.5613 0.7618
H5 H 0.5963 0.4487 0.7184
C5 C 0.3727(2) 0.4162(2) 0.9177(2)
C6 C 0.3709(2) 0.3038(2) 0.9848(2)
C7 C 0.2870(2) 0.2920(2) 1.0798(2)
H6 H 0.2860 0.2175 1.1256
C8 C 0.2067(3) 0.3957(3) 1.1020(2)
H7 H 0.1495 0.3914 1.1641
C9 C 0.2089(3) 0.5081(2) 1.0331(3)
H8 H 0.1523 0.5759 1.0508
C10 C 0.2914(3) 0.5221(2) 0.9402(3)
H9 H 0.2929 0.5972 0.8954
Cd1A Cd -0.5000 1.0000 0.0000
Cd1A_2 Cd 0.5000 0.0000 1.0000
N1B N -0.2297(2) 0.51988(18) 0.48603(18)
N2B N -0.41253(18) 0.54534(19) 0.36621(16)
N3B N -0.46593(19) 0.60811(17) 0.16398(16)
N4B N -0.5163(2) 0.72797(18) 0.15059(17)
N5B N -0.4604(2) 0.78189(18) 0.06123(17)
N5A N 0.0396(2) 0.71811(18) 0.56123(17)
N5C N -0.0396(2) 0.28189(18) 0.43877(17)
N6B N -0.0434(2) 0.65819(19) 0.25268(17)
O1B O 0.0118(2) 0.55713(18) 0.29683(15)
O2B O -0.1410(3) 0.7067(2) 0.2977(2)
O3B O 0.0012(3) 0.7087(2) 0.1659(2)
C1B C -0.2988(2) 0.4768(2) 0.3907(2)
H1B H -0.2725 0.4074 0.3456
C2B C -0.3029(2) 0.6236(2) 0.5250(2)
H2B H -0.2781 0.6741 0.5912
C3B C -0.4162(2) 0.6401(2) 0.4517(2)
H3B H -0.4827 0.7026 0.4577
C4B C -0.5054(2) 0.5284(2) 0.2621(2)
H4B H -0.5061 0.4387 0.2382
H5B H -0.5963 0.5513 0.2816
C5B C -0.3727(2) 0.5838(2) 0.0823(2)
C6B C -0.3709(2) 0.6962(2) 0.0152(2)
C7B C -0.2870(2) 0.7080(2) -0.0798(2)
H6B H -0.2860 0.7825 -0.1256
C8B C -0.2067(3) 0.6043(3) -0.1020(2)
H7B H -0.1495 0.6086 -0.1641
C9B C -0.2089(3) 0.4919(2) -0.0331(3)
H8B H -0.1523 0.4241 -0.0508
C10B C -0.2914(3) 0.4779(2) 0.0598(3)
H9B H -0.2929 0.4028 0.1046
loop_
_geom_bond_atom_site_label_1
_geom_bond_atom_site_label_2
_geom_bond_site_symmetry_1
_geom_bond_site_symmetry_2
Cd1 N1 1_555 1_555
N1 C1 1_555 1_555
N2 C1 1_555 1_555
N3 N4 1_555 1_555
N4 N5 1_555 1_555
N5 C6 1_555 1_555
N6 O1 1_555 1_555
O1 Cd1 1_555 1_555
O2 N6 1_555 1_555
O3 N6 1_555 1_555
C1 H1 1_555 1_555
C2 N1 1_555 1_555
H2 C2 1_555 1_555
C3 N2 1_555 1_555
H3 C3 1_555 1_555
C4 N2 1_555 1_555
H4 C4 1_555 1_555
H5 C4 1_555 1_555
C5 N3 1_555 1_555
C6 C5 1_555 1_555
C7 C6 1_555 1_555
H6 C7 1_555 1_555
C8 C7 1_555 1_555
H7 C8 1_555 1_555
C9 C8 1_555 1_555
H8 C9 1_555 1_555
C10 C5 1_555 1_555
H9 C10 1_555 1_555
Cd1A N5B 1_555 1_555
Cd1A_2 N5 1_555 1_555
N1B Cd1 1_555 1_555
N2B C1B 1_555 1_555
N3B N4B 1_555 1_555
N4B N5B 1_555 1_555
N5B C6B 1_555 1_555
N5A Cd1 1_555 1_555
N5C Cd1 1_555 1_555
N6B O1B 1_555 1_555
O1B Cd1 1_555 1_555
O2B N6B 1_555 1_555
O3B N6B 1_555 1_555
C1B N1B 1_555 1_555
H1B C1B 1_555 1_555
C2B N1B 1_555 1_555
H2B C2B 1_555 1_555
C3B N2B 1_555 1_555
H3B C3B 1_555 1_555
C4B N2B 1_555 1_555
H4B C4B 1_555 1_555
H5B C4B 1_555 1_555
C5B N3B 1_555 1_555
C6B C5B 1_555 1_555
C7B C6B 1_555 1_555
H6B C7B 1_555 1_555
C8B C7B 1_555 1_555
H7B C8B 1_555 1_555
C9B C8B 1_555 1_555
H8B C9B 1_555 1_555
C10B C5B 1_555 1_555
H9B C10B 1_555 1_555
N3 C4 1_555 1_555
C2 C3 1_555 1_555
C9 C10 1_555 1_555
N3B C4B 1_555 1_555
C2B C3B 1_555 1_555
C9B C10B 1_555 1_555

#END
