
#######################################################################
#
#                 Cambridge Crystallographic Data Centre
#                                CCDC 
#
#######################################################################
#
# If this CIF has been generated from an entry in the Cambridge 
# Structural Database, then it will include bibliographic, chemical, 
# crystal, experimental, refinement or atomic coordinate data resulting 
# from the CCDC's data processing and validation procedures.
#
#######################################################################

data_NUJTAN
_symmetry_cell_setting           monoclinic
_symmetry_space_group_name_H-M   'C 2/c'
_symmetry_Int_Tables_number      15
_space_group_name_Hall           '-C 2yn'
loop_
_symmetry_equiv_pos_site_id
_symmetry_equiv_pos_as_xyz
1 x,y,z
2 -x,y,1/2-z
3 1/2+x,1/2+y,z
4 1/2-x,1/2+y,1/2-z
5 -x,-y,-z
6 x,-y,1/2+z
7 1/2-x,1/2-y,-z
8 1/2+x,1/2-y,1/2+z
_cell_length_a                   17.704(4)
_cell_length_b                   14.167(2)
_cell_length_c                   11.920(2)
_cell_angle_alpha                90
_cell_angle_beta                 102.70(2)
_cell_angle_gamma                90
_cell_volume                     2916.54
loop_
_atom_site_label
_atom_site_type_symbol
_atom_site_fract_x
_atom_site_fract_y
_atom_site_fract_z
Au1 Au 0.4328(1) 0.2927(1) 0.3174(1)
I1 I 0.5262(1) 0.1726(1) 0.4400(1)
P1 P 0.3428(2) 0.3950(2) 0.2226(3)
C1 C 0.3047(8) 0.3586(9) 0.0753(10)
C2 C 0.2606(7) 0.2649(9) 0.0625(10)
C3 C 0.2605(8) 0.4091(8) 0.2894(10)
C4 C 0.1921(8) 0.4528(10) 0.2277(12)
C5 C 0.1298(10) 0.4675(13) 0.2808(14)
C6 C 0.1341(8) 0.4369(10) 0.3922(13)
C7 C 0.2018(9) 0.3905(9) 0.4518(13)
C8 C 0.2652(8) 0.3769(9) 0.4001(12)
C9 C 0.3759(8) 0.5134(9) 0.2003(11)
C10 C 0.4315(8) 0.5235(9) 0.1325(10)
C11 C 0.4552(8) 0.6123(9) 0.1072(11)
C12 C 0.4261(9) 0.6909(10) 0.1497(13)
C13 C 0.3717(9) 0.6840(10) 0.2154(13)
C14 C 0.3478(8) 0.5931(10) 0.2445(11)
H1 H 0.3469 0.3536 0.0370
H2 H 0.2703 0.4067 0.0370
H3 H 0.2150 0.2713 0.0931
H4 H 0.2930 0.2175 0.1066
H5 H 0.1883 0.4731 0.1498
H6 H 0.0834 0.4971 0.2388
H7 H 0.0922 0.4477 0.4298
H8 H 0.2046 0.3675 0.5283
H9 H 0.3113 0.3465 0.4416
H10 H 0.4520 0.4677 0.1044
H11 H 0.4930 0.6189 0.0610
H12 H 0.4425 0.7525 0.1314
H13 H 0.3504 0.7394 0.2432
H14 H 0.3118 0.5869 0.2938
Au1A Au 0.5672(1) 0.2927(1) 0.1826(1)
C2F C 0.2394(7) 0.2351(9) -0.0625(10)
C1F C 0.1953(8) 0.1414(9) -0.0753(10)
P1F P 0.1572(2) 0.1050(2) -0.2226(3)
Au1F Au 0.0672(1) 0.2073(1) -0.3174(1)
Au1G Au -0.0672(1) 0.2073(1) -0.1826(1)
I1F I -0.0262(1) 0.3274(1) -0.4400(1)
C3F C 0.2395(8) 0.0909(8) -0.2894(10)
C4F C 0.3079(8) 0.0472(10) -0.2277(12)
C5F C 0.3702(10) 0.0325(13) -0.2808(14)
C6F C 0.3659(8) 0.0631(10) -0.3922(13)
C7F C 0.2982(9) 0.1095(9) -0.4518(13)
C8F C 0.2348(8) 0.1231(9) -0.4001(12)
H9F H 0.1887 0.1535 -0.4416
H8F H 0.2954 0.1325 -0.5283
H7F H 0.4078 0.0523 -0.4298
H6F H 0.4166 0.0029 -0.2388
H5F H 0.3117 0.0269 -0.1498
C9F C 0.1241(8) -0.0134(9) -0.2003(11)
C10F C 0.0685(8) -0.0235(9) -0.1325(10)
C11F C 0.0448(8) -0.1123(9) -0.1072(11)
C12F C 0.0739(9) -0.1909(10) -0.1497(13)
C13F C 0.1283(9) -0.1840(10) -0.2154(13)
C14F C 0.1522(8) -0.0931(10) -0.2445(11)
H14F H 0.1882 -0.0869 -0.2938
H13F H 0.1496 -0.2394 -0.2432
H12F H 0.0575 -0.2525 -0.1314
H11F H 0.0070 -0.1189 -0.0610
H10F H 0.0480 0.0323 -0.1044
H1F H 0.1531 0.1464 -0.0370
H2F H 0.2297 0.0933 -0.0370
H3F H 0.2850 0.2287 -0.0931
H4F H 0.2070 0.2825 -0.1066
loop_
_geom_bond_atom_site_label_1
_geom_bond_atom_site_label_2
_geom_bond_site_symmetry_1
_geom_bond_site_symmetry_2
Au1 I1 1_555 1_555
P1 Au1 1_555 1_555
C1 P1 1_555 1_555
C2 C1 1_555 1_555
C3 P1 1_555 1_555
C4 C3 1_555 1_555
C5 C4 1_555 1_555
C6 C5 1_555 1_555
C7 C6 1_555 1_555
C8 C3 1_555 1_555
C9 P1 1_555 1_555
C10 C9 1_555 1_555
C11 C10 1_555 1_555
C12 C11 1_555 1_555
C13 C12 1_555 1_555
C14 C9 1_555 1_555
H1 C1 1_555 1_555
H2 C1 1_555 1_555
H3 C2 1_555 1_555
H4 C2 1_555 1_555
H5 C4 1_555 1_555
H6 C5 1_555 1_555
H7 C6 1_555 1_555
H8 C7 1_555 1_555
H9 C8 1_555 1_555
H10 C10 1_555 1_555
H11 C11 1_555 1_555
H12 C12 1_555 1_555
H13 C13 1_555 1_555
H14 C14 1_555 1_555
Au1A Au1 1_555 1_555
C2F C2 1_555 1_555
C1F C2F 1_555 1_555
P1F C1F 1_555 1_555
Au1F P1F 1_555 1_555
Au1G Au1F 1_555 1_555
I1F Au1F 1_555 1_555
C3F P1F 1_555 1_555
C4F C3F 1_555 1_555
C5F C4F 1_555 1_555
C6F C5F 1_555 1_555
C7F C6F 1_555 1_555
C8F C3F 1_555 1_555
H9F C8F 1_555 1_555
H8F C7F 1_555 1_555
H7F C6F 1_555 1_555
H6F C5F 1_555 1_555
H5F C4F 1_555 1_555
C9F P1F 1_555 1_555
C10F C9F 1_555 1_555
C11F C10F 1_555 1_555
C12F C11F 1_555 1_555
C13F C12F 1_555 1_555
C14F C9F 1_555 1_555
H14F C14F 1_555 1_555
H13F C13F 1_555 1_555
H12F C12F 1_555 1_555
H11F C11F 1_555 1_555
H10F C10F 1_555 1_555
H1F C1F 1_555 1_555
H2F C1F 1_555 1_555
H3F C2F 1_555 1_555
H4F C2F 1_555 1_555
C7 C8 1_555 1_555
C13 C14 1_555 1_555
C7F C8F 1_555 1_555
C13F C14F 1_555 1_555

#END
