
#######################################################################
#
#                 Cambridge Crystallographic Data Centre
#                                CCDC 
#
#######################################################################
#
# If this CIF has been generated from an entry in the Cambridge 
# Structural Database, then it will include bibliographic, chemical, 
# crystal, experimental, refinement or atomic coordinate data resulting 
# from the CCDC's data processing and validation procedures.
#
#######################################################################

data_NUJWIA
_symmetry_cell_setting           monoclinic
_symmetry_space_group_name_H-M   'P 21/c'
_symmetry_Int_Tables_number      14
_space_group_name_Hall           '-P 2ybc'
loop_
_symmetry_equiv_pos_site_id
_symmetry_equiv_pos_as_xyz
1 x,y,z
2 -x,1/2+y,1/2-z
3 -x,-y,-z
4 x,1/2-y,1/2+z
_cell_length_a                   8.3385(7)
_cell_length_b                   14.7789(12)
_cell_length_c                   7.4739(6)
_cell_angle_alpha                90
_cell_angle_beta                 103.2170(10)
_cell_angle_gamma                90
_cell_volume                     896.64
loop_
_atom_site_label
_atom_site_type_symbol
_atom_site_fract_x
_atom_site_fract_y
_atom_site_fract_z
Cd1 Cd 1.5000 1.5000 0.5000
C1 C 0.9791(2) 1.33736(17) 0.4895(3)
H1 H 0.8880 1.3749 0.4797
C2 C 1.1294(2) 1.37461(13) 0.5029(3)
H2 H 1.1401 1.4372 0.5025
C3 C 1.2704(2) 1.31974(12) 0.5173(2)
C4 C 1.2422(2) 1.22557(13) 0.5205(3)
H3 H 1.3304 1.1857 0.5328
C5 C 1.0879(3) 1.19256(15) 0.5059(4)
H4 H 1.0719 1.1303 0.5069
C6 C 1.6982(2) 1.46194(14) 1.1578(2)
C7 C 1.7560(2) 1.46423(13) 0.8773(3)
N1 N 0.9587(2) 1.24767(14) 0.4902(3)
N2 N 1.6202(2) 1.45550(14) 1.2652(2)
N3 N 1.8025(2) 1.47033(16) 1.0538(3)
N4 N 1.7319(2) 1.45867(14) 0.7203(2)
O1 O 1.41595(14) 1.35150(8) 0.5280(2)
H5 H 0.870(3) 1.2327(18) 0.472(4)
C1B C 2.0209(2) 1.66264(17) 0.5105(3)
H1B H 2.1120 1.6251 0.5203
C2B C 1.8706(2) 1.62539(13) 0.4971(3)
H2B H 1.8599 1.5628 0.4975
C3B C 1.7296(2) 1.68026(12) 0.4827(2)
C4B C 1.7578(2) 1.77443(13) 0.4795(3)
H3B H 1.6696 1.8143 0.4672
C5B C 1.9121(3) 1.80744(15) 0.4941(4)
H4B H 1.9281 1.8697 0.4931
C6B C 1.3018(2) 1.53806(14) -0.1578(2)
C7B C 1.2440(2) 1.53577(13) 0.1227(3)
N1B N 2.0413(2) 1.75233(14) 0.5098(3)
N2B N 1.3798(2) 1.54450(14) -0.2652(2)
N3B N 1.1975(2) 1.52967(16) -0.0538(3)
N4B N 1.2681(2) 1.54133(14) 0.2797(2)
O1B O 1.58405(14) 1.64850(8) 0.4720(2)
H5B H 2.130(3) 1.7673(18) 0.528(4)
Cd1_2 Cd 1.5000 1.5000 -0.5000
Cd1_3 Cd 1.5000 1.5000 1.5000
N2_2 N 1.6202(2) 1.45550(14) 0.2652(2)
N2B_2 N 1.3798(2) 1.54450(14) 0.7348(2)
O2 O 0.61805(18) 1.22304(12) 0.3991(3)
H6 H 0.574(5) 1.211(3) 0.301(6)
H7 H 0.568(4) 1.2644(19) 0.433(4)
loop_
_geom_bond_atom_site_label_1
_geom_bond_atom_site_label_2
_geom_bond_site_symmetry_1
_geom_bond_site_symmetry_2
Cd1 N4 1_555 1_555
C1 H1 1_555 1_555
C2 C1 1_555 1_555
H2 C2 1_555 1_555
C3 C2 1_555 1_555
C4 C3 1_555 1_555
H3 C4 1_555 1_555
C5 C4 1_555 1_555
H4 C5 1_555 1_555
C6 N2 1_555 1_555
C7 N3 1_555 1_555
N1 C1 1_555 1_555
N2 Cd1_3 1_555 1_555
N3 C6 1_555 1_555
N4 C7 1_555 1_555
O1 Cd1 1_555 1_555
H5 N1 1_555 1_555
O2 H6 1_555 1_555
H7 O2 1_555 1_555
C1B H1B 1_555 1_555
C2B C1B 1_555 1_555
H2B C2B 1_555 1_555
C3B C2B 1_555 1_555
C4B C3B 1_555 1_555
H3B C4B 1_555 1_555
C5B C4B 1_555 1_555
H4B C5B 1_555 1_555
C6B N2B 1_555 1_555
C7B N3B 1_555 1_555
N1B C1B 1_555 1_555
N2B Cd1_2 1_555 1_555
N3B C6B 1_555 1_555
N4B Cd1 1_555 1_555
O1B Cd1 1_555 1_555
H5B N1B 1_555 1_555
N2_2 Cd1 1_555 1_555
N2B_2 Cd1 1_555 1_555
C3 O1 1_555 1_555
C5 N1 1_555 1_555
C3B O1B 1_555 1_555
C5B N1B 1_555 1_555
C7B N4B 1_555 1_555

#END
