
#######################################################################
#
#                 Cambridge Crystallographic Data Centre
#                                CCDC 
#
#######################################################################
#
# If this CIF has been generated from an entry in the Cambridge 
# Structural Database, then it will include bibliographic, chemical, 
# crystal, experimental, refinement or atomic coordinate data resulting 
# from the CCDC's data processing and validation procedures.
#
#######################################################################

data_NUJXEV
_symmetry_cell_setting           orthorhombic
_symmetry_space_group_name_H-M   'F d d 2'
_symmetry_Int_Tables_number      43
_space_group_name_Hall           'F 2 -2d'
loop_
_symmetry_equiv_pos_site_id
_symmetry_equiv_pos_as_xyz
1 x,y,z
2 -x,-y,z
3 1/4-x,1/4+y,1/4+z
4 3/4+x,3/4-y,1/4+z
5 x,1/2+y,1/2+z
6 -x,1/2-y,1/2+z
7 1/4-x,3/4+y,3/4+z
8 3/4+x,1/4-y,3/4+z
9 1/2+x,y,1/2+z
10 1/2-x,-y,1/2+z
11 3/4-x,1/4+y,3/4+z
12 1/4+x,3/4-y,3/4+z
13 1/2+x,1/2+y,z
14 1/2-x,1/2-y,z
15 3/4-x,3/4+y,1/4+z
16 1/4+x,1/4-y,1/4+z
_cell_length_a                   21.460(5)
_cell_length_b                   24.199(1)
_cell_length_c                   8.449(3)
_cell_angle_alpha                90
_cell_angle_beta                 90
_cell_angle_gamma                90
_cell_volume                     4387.65
loop_
_atom_site_label
_atom_site_type_symbol
_atom_site_fract_x
_atom_site_fract_y
_atom_site_fract_z
Cu1 Cu -0.08561(5) 0.51842(4) 0.3328
O1 O -0.2098(3) 0.3236(2) 0.7577(8)
O2 O -0.2500 0.2500 0.408(1)
N1 N -0.1055(3) 0.4453(3) 0.4073(10)
N2 N -0.1358(3) 0.3396(3) 0.5052(10)
N3 N -0.2123(4) 0.4141(3) 0.821(1)
C1 C -0.1550(4) 0.3846(3) 0.584(2)
C2 C -0.1388(4) 0.4369(3) 0.536(1)
C3 C -0.3371(4) 0.3491(3) 0.574(2)
C4 C -0.3520(4) 0.4017(4) 0.630(1)
C5 C -0.1957(4) 0.3713(4) 0.732(1)
C6 C -0.3087(6) 0.2614(5) 0.174(2)
C7 C -0.2500 0.2500 0.265(2)
H1 H -0.4016 0.2819 0.8489
H2 H -0.3140 0.3443 0.4736
H3 H -0.3357 0.4338 0.5739
Cu1N Cu -0.16439(5) 0.26842(4) 0.5828
Cu1C Cu -0.33561(5) 0.23158(4) 0.5828
O1M O -0.2902(3) 0.1764(2) 0.7577(8)
N2M N -0.3642(3) 0.1604(3) 0.5052(10)
N1C N -0.3555(3) 0.3047(3) 0.6573(10)
C2C C -0.3888(4) 0.3131(3) 0.786(1)
C1C C -0.4050(4) 0.3654(3) 0.834(2)
N2C N -0.3858(3) 0.4104(3) 0.7552(10)
Cu1I Cu -0.41439(5) 0.48158(4) 0.8328
O1C O -0.4598(3) 0.4264(2) 1.0077(8)
C5C C -0.4457(4) 0.3787(4) 0.982(1)
N3C N -0.4623(4) 0.3359(3) 1.071(1)
C6M C -0.1913(6) 0.2386(5) 0.174(2)
N1N N -0.1445(3) 0.1953(3) 0.6573(10)
C4K C -0.1020(4) 0.3483(4) 0.380(1)
H1K H -0.1516 0.4681 0.5989
C3K C -0.0871(4) 0.4009(3) 0.324(2)
H2K H -0.0640 0.4057 0.2236
H3K H -0.0857 0.3162 0.3239
F1 F 0.4498(3) 0.3401(3) 0.333(1)
F2 F 0.5050(3) 0.3574(3) 0.548(1)
F3 F 0.4385(4) 0.2856(3) 0.540(1)
F4 F 0.5262(4) 0.2823(3) 0.4029(10)
B1 B 0.4804(7) 0.3171(5) 0.460(2)
loop_
_geom_bond_atom_site_label_1
_geom_bond_atom_site_label_2
_geom_bond_site_symmetry_1
_geom_bond_site_symmetry_2
Cu1 N1 1_555 1_555
F1 B1 1_555 1_555
F2 B1 1_555 1_555
F3 B1 1_555 1_555
F4 B1 1_555 1_555
O1 C5 1_555 1_555
O2 C7 1_555 1_555
N1 C2 1_555 1_555
N2 C1 1_555 1_555
N3 C5 1_555 1_555
C1 C2 1_555 1_555
C2 H1K 1_555 1_555
C3 C4 1_555 1_555
C4 H3 1_555 1_555
C5 C1 1_555 1_555
C6 C7 1_555 1_555
C7 C6M 1_555 1_555
H1 C2C 1_555 1_555
H2 C3 1_555 1_555
Cu1N O1 1_555 1_555
Cu1C O2 1_555 1_555
O1M Cu1C 1_555 1_555
N2M Cu1C 1_555 1_555
N1C C3 1_555 1_555
C2C N1C 1_555 1_555
C1C C2C 1_555 1_555
N2C C4 1_555 1_555
Cu1I N2C 1_555 1_555
O1C Cu1I 1_555 1_555
C5C C1C 1_555 1_555
N3C C5C 1_555 1_555
N1N Cu1N 1_555 1_555
C4K N2 1_555 1_555
C3K N1 1_555 1_555
H2K C3K 1_555 1_555
H3K C4K 1_555 1_555
O2 Cu1N 1_555 1_555
N2 Cu1N 1_555 1_555
Cu1C N1C 1_555 1_555
C1C N2C 1_555 1_555
O1C C5C 1_555 1_555
C4K C3K 1_555 1_555

#END
