
#######################################################################
#
#                 Cambridge Crystallographic Data Centre
#                                CCDC 
#
#######################################################################
#
# If this CIF has been generated from an entry in the Cambridge 
# Structural Database, then it will include bibliographic, chemical, 
# crystal, experimental, refinement or atomic coordinate data resulting 
# from the CCDC's data processing and validation procedures.
#
#######################################################################

data_NUKCIG
_symmetry_cell_setting           triclinic
_symmetry_space_group_name_H-M   'P -1'
_symmetry_Int_Tables_number      2
_space_group_name_Hall           '-P 1'
loop_
_symmetry_equiv_pos_site_id
_symmetry_equiv_pos_as_xyz
1 x,y,z
2 -x,-y,-z
_cell_length_a                   10.052(3)
_cell_length_b                   12.844(4)
_cell_length_c                   12.911(3)
_cell_angle_alpha                78.577(7)
_cell_angle_beta                 80.494(7)
_cell_angle_gamma                85.116(6)
_cell_volume                     1609.09
loop_
_atom_site_label
_atom_site_type_symbol
_atom_site_fract_x
_atom_site_fract_y
_atom_site_fract_z
Zn1 Zn 0.56944(4) 0.74210(3) 0.59497(3)
O1 O 0.6327(2) 0.9728(2) 0.5571(2)
O2 O 0.5738(2) 0.6385(2) 0.4958(2)
O3 O 0.7353(2) 0.81362(18) 0.5499(2)
O4 O 0.3973(2) 0.81960(19) 0.5647(2)
O5 O 0.5543(7) 0.7577(4) 0.8228(4)
O6 O 0.5655(5) 0.6388(3) 0.7250(3)
C1 C 0.7347(3) 0.9140(2) 0.5443(2)
C2 C 0.8728(3) 0.9587(2) 0.5195(2)
C3 C 0.8883(3) 1.0587(2) 0.5400(2)
H1 H 0.8135 1.0981 0.5674
C4 C 0.9852(3) 0.8999(2) 0.4800(2)
H2 H 0.9757 0.8325 0.4669
C5 C 0.5495(5) 0.6639(4) 0.8100(4)
C6 C 0.5275(4) 0.5776(3) 0.9084(3)
C7 C 0.5544(8) 0.4765(4) 0.9051(4)
H3 H 0.5918 0.4572 0.8403
C36 C 0.4712(8) 0.6024(4) 1.0053(5)
H26 H 0.4498 0.6732 1.0109
Zn1A Zn 1.43056(4) 1.25790(3) 0.40503(3)
Zn1A_2 Zn 0.43056(4) 0.25790(3) 1.40503(3)
O1A O 1.3673(2) 1.0272(2) 0.4429(2)
O2A O 1.4262(2) 1.3615(2) 0.5042(2)
O3A O 1.2647(2) 1.18638(18) 0.4501(2)
O4A O 1.6027(2) 1.18040(19) 0.4353(2)
O5A O 0.4457(7) 0.2423(4) 1.1772(4)
O6A O 0.4345(5) 0.3612(3) 1.2750(3)
O6A_2 O 1.4345(5) 1.3612(3) 0.2750(3)
C1A C 1.2653(3) 1.0860(2) 0.4557(2)
C2A C 1.1272(3) 1.0413(2) 0.4805(2)
C3A C 1.1117(3) 0.9413(2) 0.4600(2)
H1A H 1.1865 0.9019 0.4326
C4A C 1.0148(3) 1.1001(2) 0.5200(2)
H2A H 1.0243 1.1675 0.5331
C5A C 0.4505(5) 0.3361(4) 1.1900(4)
C6A C 0.4725(4) 0.4224(3) 1.0916(3)
C7A C 0.4456(8) 0.5235(4) 1.0949(4)
H3A H 0.4082 0.5428 1.1597
C36A C 0.5288(8) 0.3976(4) 0.9947(5)
H26A H 0.5502 0.3268 0.9891
P1 P 0.90856(10) 0.77685(7) 0.11616(7)
C12 C 0.9548(4) 0.7944(3) -0.0266(3)
C13 C 0.8608(4) 0.7768(4) -0.0891(3)
H6 H 0.7745 0.7571 -0.0571
C14 C 0.8967(5) 0.7887(4) -0.1986(3)
H7 H 0.8340 0.7781 -0.2405
C15 C 1.0252(5) 0.8164(4) -0.2461(3)
H8 H 1.0485 0.8245 -0.3199
C16 C 1.1191(5) 0.8321(3) -0.1852(3)
H9 H 1.2062 0.8491 -0.2176
C17 C 1.0837(4) 0.8226(3) -0.0760(3)
H10 H 1.1466 0.8351 -0.0351
C18 C 0.8494(4) 0.6457(3) 0.1614(3)
C19 C 0.9233(5) 0.5615(3) 0.1220(4)
H11 H 1.0019 0.5738 0.0731
C20 C 0.8794(6) 0.4598(4) 0.1557(4)
H12 H 0.9292 0.4035 0.1298
C21 C 0.7636(5) 0.4411(4) 0.2265(4)
H13 H 0.7353 0.3721 0.2485
C22 C 0.6890(5) 0.5225(4) 0.2654(4)
H14 H 0.6095 0.5090 0.3129
C23 C 0.7319(4) 0.6255(3) 0.2341(3)
H15 H 0.6821 0.6809 0.2616
C24 C 0.7785(4) 0.8733(3) 0.1525(3)
C25 C 0.7401(4) 0.8778(3) 0.2608(3)
H16 H 0.7850 0.8340 0.3119
C26 C 0.6360(4) 0.9470(3) 0.2916(3)
H17 H 0.6084 0.9482 0.3638
C27 C 0.5727(4) 1.0142(4) 0.2160(4)
H18 H 0.5033 1.0618 0.2371
C28 C 0.6111(4) 1.0117(4) 0.1090(4)
H19 H 0.5679 1.0579 0.0583
C29 C 0.7136(4) 0.9409(3) 0.0766(3)
H20 H 0.7387 0.9386 0.0044
C30 C 1.0553(4) 0.7937(3) 0.1724(3)
C31 C 1.0928(4) 0.8959(3) 0.1698(3)
H21 H 1.0370 0.9544 0.1464
C32 C 1.2131(5) 0.9104(4) 0.2022(3)
H22 H 1.2382 0.9789 0.2001
C33 C 1.2958(5) 0.8250(5) 0.2373(4)
H23 H 1.3772 0.8358 0.2579
C34 C 1.2588(5) 0.7236(5) 0.2422(4)
H24 H 1.3147 0.6658 0.2670
C35 C 1.1379(5) 0.7069(4) 0.2102(4)
H25 H 1.1126 0.6381 0.2141
O7 O 0.2203(2) 0.69989(19) 0.5321(2)
O8 O 0.3503(2) 0.5743(2) 0.4607(2)
C8 C 0.2374(3) 0.6148(3) 0.4969(3)
C9 C 0.1142(3) 0.5553(3) 0.4985(3)
C10 C 0.1199(3) 0.4765(3) 0.4382(3)
H4 H 0.2005 0.4606 0.3960
C11 C -0.0065(3) 0.5790(3) 0.5599(3)
H5 H -0.0118 0.6323 0.6000
O7A O -0.2203(2) 0.30011(19) 0.4679(2)
O8A O -0.3503(2) 0.4257(2) 0.5393(2)
C8A C -0.2374(3) 0.3852(3) 0.5031(3)
C9A C -0.1142(3) 0.4447(3) 0.5015(3)
C10A C -0.1199(3) 0.5235(3) 0.5618(3)
H4A H -0.2005 0.5394 0.6040
C11A C 0.0065(3) 0.4210(3) 0.4401(3)
H5A H 0.0118 0.3677 0.4000
loop_
_geom_bond_atom_site_label_1
_geom_bond_atom_site_label_2
_geom_bond_site_symmetry_1
_geom_bond_site_symmetry_2
Zn1 O2 1_555 1_555
P1 C12 1_555 1_555
O1 C1 1_555 1_555
O3 Zn1 1_555 1_555
O4 Zn1 1_555 1_555
O5 C5 1_555 1_555
O6 Zn1 1_555 1_555
O7 C8 1_555 1_555
O8 C8 1_555 1_555
C1 O3 1_555 1_555
C2 C1 1_555 1_555
C3 C2 1_555 1_555
H1 C3 1_555 1_555
C4 C2 1_555 1_555
H2 C4 1_555 1_555
C5 O6 1_555 1_555
C6 C5 1_555 1_555
C7 C6 1_555 1_555
H3 C7 1_555 1_555
C8 C9 1_555 1_555
C9 C10 1_555 1_555
C10 H4 1_555 1_555
C11 C9 1_555 1_555
H5 C11 1_555 1_555
C12 C13 1_555 1_555
C13 H6 1_555 1_555
C14 C13 1_555 1_555
H7 C14 1_555 1_555
C15 C14 1_555 1_555
H8 C15 1_555 1_555
C16 C15 1_555 1_555
H9 C16 1_555 1_555
C17 C12 1_555 1_555
H10 C17 1_555 1_555
C18 P1 1_555 1_555
C19 C18 1_555 1_555
H11 C19 1_555 1_555
C20 C19 1_555 1_555
H12 C20 1_555 1_555
C21 C20 1_555 1_555
H13 C21 1_555 1_555
C22 C21 1_555 1_555
H14 C22 1_555 1_555
C23 C18 1_555 1_555
H15 C23 1_555 1_555
C24 P1 1_555 1_555
C25 C24 1_555 1_555
H16 C25 1_555 1_555
C26 C25 1_555 1_555
H17 C26 1_555 1_555
C27 C26 1_555 1_555
H18 C27 1_555 1_555
C28 C27 1_555 1_555
H19 C28 1_555 1_555
C29 C24 1_555 1_555
H20 C29 1_555 1_555
C30 P1 1_555 1_555
C31 C30 1_555 1_555
H21 C31 1_555 1_555
C32 C31 1_555 1_555
H22 C32 1_555 1_555
C33 C32 1_555 1_555
H23 C33 1_555 1_555
C34 C33 1_555 1_555
H24 C34 1_555 1_555
C35 C30 1_555 1_555
H25 C35 1_555 1_555
C36 C6 1_555 1_555
H26 C36 1_555 1_555
Zn1A O2A 1_555 1_555
Zn1A_2 O6A 1_555 1_555
O1A C1A 1_555 1_555
O3A Zn1A 1_555 1_555
O4A Zn1A 1_555 1_555
O5A C5A 1_555 1_555
O6A C5A 1_555 1_555
O6A_2 Zn1A 1_555 1_555
O7A C8A 1_555 1_555
O8A C8A 1_555 1_555
C1A O3A 1_555 1_555
C2A C1A 1_555 1_555
C3A C4 1_555 1_555
H1A C3A 1_555 1_555
C4A C3 1_555 1_555
H2A C4A 1_555 1_555
C5A C6A 1_555 1_555
C6A C7A 1_555 1_555
C7A C36 1_555 1_555
H3A C7A 1_555 1_555
C8A C9A 1_555 1_555
C9A C10A 1_555 1_555
C10A C11 1_555 1_555
H4A C10A 1_555 1_555
C11A C10 1_555 1_555
H5A C11A 1_555 1_555
C36A C7 1_555 1_555
H26A C36A 1_555 1_555
C16 C17 1_555 1_555
C22 C23 1_555 1_555
C28 C29 1_555 1_555
C34 C35 1_555 1_555
C2A C3A 1_555 1_555
C2A C4A 1_555 1_555
C6A C36A 1_555 1_555
C9A C11A 1_555 1_555

#END
