
#######################################################################
#
#                 Cambridge Crystallographic Data Centre
#                                CCDC 
#
#######################################################################
#
# If this CIF has been generated from an entry in the Cambridge 
# Structural Database, then it will include bibliographic, chemical, 
# crystal, experimental, refinement or atomic coordinate data resulting 
# from the CCDC's data processing and validation procedures.
#
#######################################################################

data_NUKCUS
_symmetry_cell_setting           monoclinic
_symmetry_space_group_name_H-M   'C 2/c'
_symmetry_Int_Tables_number      15
_space_group_name_Hall           '-C 2yn'
loop_
_symmetry_equiv_pos_site_id
_symmetry_equiv_pos_as_xyz
1 x,y,z
2 -x,y,1/2-z
3 1/2+x,1/2+y,z
4 1/2-x,1/2+y,1/2-z
5 -x,-y,-z
6 x,-y,1/2+z
7 1/2-x,1/2-y,-z
8 1/2+x,1/2-y,1/2+z
_cell_length_a                   27.239(5)
_cell_length_b                   11.072(2)
_cell_length_c                   19.280(4)
_cell_angle_alpha                90
_cell_angle_beta                 115.96(3)
_cell_angle_gamma                90
_cell_volume                     5227.96
loop_
_atom_site_label
_atom_site_type_symbol
_atom_site_fract_x
_atom_site_fract_y
_atom_site_fract_z
Ag1 Ag 0.23403(2) 0.01683(5) 0.19881(4)
P1 P 0.15949(7) -0.10876(15) 0.10370(11)
P2 P 0.31544(8) -0.09312(16) 0.20296(12)
N1 N 0.2400(2) -0.2337(5) 0.0892(3)
C1 C 0.1930(3) -0.2549(5) 0.1067(4)
H1 H 0.2056 -0.2913 0.1579
H2 H 0.1671 -0.3104 0.0687
C2 C 0.2926(3) -0.2419(6) 0.1550(4)
H3 H 0.3195 -0.2722 0.1383
H4 H 0.2905 -0.2998 0.1921
C3 C 0.2364(3) -0.2896(6) 0.0187(4)
H5 H 0.1979 -0.3015 -0.0174
H6 H 0.2541 -0.3688 0.0307
C4 C 0.1018(3) -0.1499(6) 0.1238(4)
C5 C 0.1115(3) -0.2162(6) 0.1882(4)
H7 H 0.1472 -0.2419 0.2204
C6 C 0.0688(3) -0.2461(7) 0.2068(5)
H8 H 0.0755 -0.2947 0.2500
C7 C 0.0176(3) -0.2048(7) 0.1621(5)
H9 H -0.0112 -0.2250 0.1743
C8 C 0.0080(3) -0.1337(7) 0.0995(5)
H10 H -0.0272 -0.1025 0.0698
C9 C 0.0492(3) -0.1079(7) 0.0798(4)
H11 H 0.0418 -0.0608 0.0358
C10 C 0.1290(3) -0.0732(6) -0.0004(4)
C11 C 0.1442(3) 0.0333(7) -0.0237(5)
H12 H 0.1671 0.0884 0.0133
C12 C 0.1256(4) 0.0583(8) -0.1011(6)
H13 H 0.1368 0.1295 -0.1166
C13 C 0.0911(4) -0.0195(9) -0.1553(5)
H14 H 0.0786 -0.0019 -0.2081
C14 C 0.0747(3) -0.1236(8) -0.1330(5)
H15 H 0.0499 -0.1758 -0.1703
C15 C 0.0947(3) -0.1517(6) -0.0555(5)
H16 H 0.0847 -0.2249 -0.0405
C16 C 0.3457(3) -0.0190(6) 0.1469(5)
C17 C 0.3981(4) -0.0414(8) 0.1551(6)
H17 H 0.4204 -0.0970 0.1925
C18 C 0.4179(5) 0.0168(10) 0.1091(9)
H18 H 0.4537 0.0021 0.1159
C19 C 0.3850(6) 0.0959(11) 0.0533(8)
H19 H 0.3982 0.1341 0.0213
C20 C 0.3338(5) 0.1194(8) 0.0440(6)
H20 H 0.3117 0.1742 0.0059
C21 C 0.3139(4) 0.0626(7) 0.0906(5)
H21 H 0.2783 0.0796 0.0839
C22 C 0.3741(3) -0.1302(7) 0.2930(4)
C23 C 0.3998(3) -0.2422(7) 0.3091(5)
H22 H 0.3867 -0.3057 0.2733
C24 C 0.4452(4) -0.2582(9) 0.3793(6)
H23 H 0.4624 -0.3342 0.3908
C25 C 0.4652(4) -0.1695(9) 0.4308(6)
H24 H 0.4969 -0.1822 0.4770
C26 C 0.4399(4) -0.0609(9) 0.4164(6)
H25 H 0.4532 0.0012 0.4533
C27 C 0.3950(3) -0.0417(7) 0.3482(5)
H26 H 0.3778 0.0342 0.3388
S1 S 0.26075(10) 0.45683(17) 0.16456(13)
C28 C 0.2451(3) 0.3149(6) 0.1736(4)
N2 N 0.2347(3) 0.2165(5) 0.1805(4)
Ag1F Ag 0.26597(2) -0.51683(5) -0.19881(4)
Ag1C Ag 0.26597(2) 0.51683(5) 0.30119(4)
Ag1E Ag 0.23403(2) -1.01683(5) -0.30119(4)
P1F P 0.34051(7) -0.39124(15) -0.10370(11)
P2F P 0.18456(8) -0.40688(16) -0.20296(12)
N1F N 0.2600(2) -0.2663(5) -0.0892(3)
C1F C 0.3070(3) -0.2451(5) -0.1067(4)
H1F H 0.2944 -0.2087 -0.1579
H2F H 0.3329 -0.1896 -0.0687
C2F C 0.2074(3) -0.2581(6) -0.1550(4)
H3F H 0.1805 -0.2278 -0.1383
H4F H 0.2095 -0.2002 -0.1921
C3F C 0.2636(3) -0.2104(6) -0.0187(4)
H5F H 0.3021 -0.1985 0.0174
H6F H 0.2459 -0.1312 -0.0307
C4F C 0.3982(3) -0.3501(6) -0.1238(4)
C5F C 0.3885(3) -0.2838(6) -0.1882(4)
H7F H 0.3528 -0.2581 -0.2204
C6F C 0.4312(3) -0.2539(7) -0.2068(5)
H8F H 0.4245 -0.2053 -0.2500
C7F C 0.4824(3) -0.2952(7) -0.1621(5)
H9F H 0.5112 -0.2750 -0.1743
C8F C 0.4920(3) -0.3663(7) -0.0995(5)
H10F H 0.5272 -0.3975 -0.0698
C9F C 0.4508(3) -0.3921(7) -0.0798(4)
H11F H 0.4582 -0.4392 -0.0358
C10F C 0.3710(3) -0.4268(6) 0.0004(4)
C11F C 0.3558(3) -0.5333(7) 0.0237(5)
H12F H 0.3329 -0.5884 -0.0133
C12F C 0.3744(4) -0.5583(8) 0.1011(6)
H13F H 0.3632 -0.6295 0.1166
C13F C 0.4089(4) -0.4805(9) 0.1553(5)
H14F H 0.4214 -0.4981 0.2081
C14F C 0.4253(3) -0.3764(8) 0.1330(5)
H15F H 0.4501 -0.3242 0.1703
C15F C 0.4053(3) -0.3483(6) 0.0555(5)
H16F H 0.4153 -0.2751 0.0405
C16F C 0.1543(3) -0.4810(6) -0.1469(5)
C17F C 0.1019(4) -0.4586(8) -0.1551(6)
H17F H 0.0796 -0.4030 -0.1925
C18F C 0.0821(5) -0.5168(10) -0.1091(9)
H18F H 0.0463 -0.5021 -0.1159
C19F C 0.1150(6) -0.5959(11) -0.0533(8)
H19F H 0.1018 -0.6341 -0.0213
C20F C 0.1662(5) -0.6194(8) -0.0440(6)
H20F H 0.1883 -0.6742 -0.0059
C21F C 0.1861(4) -0.5626(7) -0.0906(5)
H21F H 0.2217 -0.5796 -0.0839
C22F C 0.1259(3) -0.3698(7) -0.2930(4)
C23F C 0.1002(3) -0.2578(7) -0.3091(5)
H22F H 0.1133 -0.1943 -0.2733
C24F C 0.0548(4) -0.2418(9) -0.3793(6)
H23F H 0.0376 -0.1658 -0.3908
C25F C 0.0348(4) -0.3305(9) -0.4308(6)
H24F H 0.0031 -0.3178 -0.4770
C26F C 0.0601(4) -0.4391(9) -0.4164(6)
H25F H 0.0468 -0.5012 -0.4533
C27F C 0.1050(3) -0.4583(7) -0.3482(5)
H26F H 0.1222 -0.5342 -0.3388
S1F S 0.23925(10) -0.95683(17) -0.16456(13)
S1C S 0.23925(10) -0.04317(17) 0.33544(13)
S1E S 0.26075(10) -0.45683(17) -0.33544(13)
C28F C 0.2549(3) -0.8149(6) -0.1736(4)
N2F N 0.2653(3) -0.7165(5) -0.1805(4)
loop_
_geom_bond_atom_site_label_1
_geom_bond_atom_site_label_2
_geom_bond_site_symmetry_1
_geom_bond_site_symmetry_2
Ag1 P1 1_555 1_555
P1 C1 1_555 1_555
P2 Ag1 1_555 1_555
N1 C1 1_555 1_555
C1 H1 1_555 1_555
H2 C1 1_555 1_555
C2 P2 1_555 1_555
H3 C2 1_555 1_555
H4 C2 1_555 1_555
C3 N1 1_555 1_555
H5 C3 1_555 1_555
H6 C3 1_555 1_555
C4 P1 1_555 1_555
C5 C4 1_555 1_555
H7 C5 1_555 1_555
C6 C5 1_555 1_555
H8 C6 1_555 1_555
C7 C6 1_555 1_555
H9 C7 1_555 1_555
C8 C7 1_555 1_555
H10 C8 1_555 1_555
C9 C4 1_555 1_555
H11 C9 1_555 1_555
C10 P1 1_555 1_555
C11 C10 1_555 1_555
H12 C11 1_555 1_555
C12 C11 1_555 1_555
H13 C12 1_555 1_555
C13 C12 1_555 1_555
H14 C13 1_555 1_555
C14 C13 1_555 1_555
H15 C14 1_555 1_555
C15 C10 1_555 1_555
H16 C15 1_555 1_555
C16 P2 1_555 1_555
C17 C16 1_555 1_555
H17 C17 1_555 1_555
C18 C17 1_555 1_555
H18 C18 1_555 1_555
C19 C18 1_555 1_555
H19 C19 1_555 1_555
C20 C19 1_555 1_555
H20 C20 1_555 1_555
C21 C16 1_555 1_555
H21 C21 1_555 1_555
C22 P2 1_555 1_555
C23 C22 1_555 1_555
H22 C23 1_555 1_555
C24 C23 1_555 1_555
H23 C24 1_555 1_555
C25 C24 1_555 1_555
H24 C25 1_555 1_555
C26 C25 1_555 1_555
H25 C26 1_555 1_555
C27 C22 1_555 1_555
H26 C27 1_555 1_555
S1 C28 1_555 1_555
C28 N2 1_555 1_555
N2 Ag1 1_555 1_555
Ag1F P1F 1_555 1_555
Ag1C S1 1_555 1_555
Ag1E S1F 1_555 1_555
P1F C1F 1_555 1_555
P2F Ag1F 1_555 1_555
N1F C1F 1_555 1_555
C1F H1F 1_555 1_555
H2F C1F 1_555 1_555
C2F P2F 1_555 1_555
H3F C2F 1_555 1_555
H4F C2F 1_555 1_555
C3F C3 1_555 1_555
H5F C3F 1_555 1_555
H6F C3F 1_555 1_555
C4F P1F 1_555 1_555
C5F C4F 1_555 1_555
H7F C5F 1_555 1_555
C6F C5F 1_555 1_555
H8F C6F 1_555 1_555
C7F C6F 1_555 1_555
H9F C7F 1_555 1_555
C8F C7F 1_555 1_555
H10F C8F 1_555 1_555
C9F C4F 1_555 1_555
H11F C9F 1_555 1_555
C10F P1F 1_555 1_555
C11F C10F 1_555 1_555
H12F C11F 1_555 1_555
C12F C11F 1_555 1_555
H13F C12F 1_555 1_555
C13F C12F 1_555 1_555
H14F C13F 1_555 1_555
C14F C13F 1_555 1_555
H15F C14F 1_555 1_555
C15F C10F 1_555 1_555
H16F C15F 1_555 1_555
C16F P2F 1_555 1_555
C17F C16F 1_555 1_555
H17F C17F 1_555 1_555
C18F C17F 1_555 1_555
H18F C18F 1_555 1_555
C19F C18F 1_555 1_555
H19F C19F 1_555 1_555
C20F C19F 1_555 1_555
H20F C20F 1_555 1_555
C21F C16F 1_555 1_555
H21F C21F 1_555 1_555
C22F P2F 1_555 1_555
C23F C22F 1_555 1_555
H22F C23F 1_555 1_555
C24F C23F 1_555 1_555
H23F C24F 1_555 1_555
C25F C24F 1_555 1_555
H24F C25F 1_555 1_555
C26F C25F 1_555 1_555
H25F C26F 1_555 1_555
C27F C22F 1_555 1_555
H26F C27F 1_555 1_555
S1F C28F 1_555 1_555
S1C Ag1 1_555 1_555
S1E Ag1F 1_555 1_555
C28F N2F 1_555 1_555
N2F Ag1F 1_555 1_555
N1 C2 1_555 1_555
C8 C9 1_555 1_555
C14 C15 1_555 1_555
C20 C21 1_555 1_555
C26 C27 1_555 1_555
N1F C2F 1_555 1_555
N1F C3F 1_555 1_555
C8F C9F 1_555 1_555
C14F C15F 1_555 1_555
C20F C21F 1_555 1_555
C26F C27F 1_555 1_555

#END
