
#######################################################################
#
#                 Cambridge Crystallographic Data Centre
#                                CCDC 
#
#######################################################################
#
# If this CIF has been generated from an entry in the Cambridge 
# Structural Database, then it will include bibliographic, chemical, 
# crystal, experimental, refinement or atomic coordinate data resulting 
# from the CCDC's data processing and validation procedures.
#
#######################################################################

data_NUKFUV
_symmetry_cell_setting           monoclinic
_symmetry_space_group_name_H-M   'P 21/n'
_symmetry_Int_Tables_number      14
_space_group_name_Hall           '-P 2yn'
loop_
_symmetry_equiv_pos_site_id
_symmetry_equiv_pos_as_xyz
1 x,y,z
2 1/2-x,1/2+y,1/2-z
3 -x,-y,-z
4 1/2+x,1/2-y,1/2+z
_cell_length_a                   11.3869(10)
_cell_length_b                   8.7250(7)
_cell_length_c                   14.4431(13)
_cell_angle_alpha                90
_cell_angle_beta                 107.4310(10)
_cell_angle_gamma                90
_cell_volume                     1369.04
loop_
_atom_site_label
_atom_site_type_symbol
_atom_site_fract_x
_atom_site_fract_y
_atom_site_fract_z
Cu1 Cu 0.31523(3) 0.37255(4) 0.02731(3)
N1 N 0.1658(2) 0.1959(3) -0.01426(17)
H1 H 0.1111 0.2229 -0.0720
N2 N 0.5328(2) 0.0065(3) 0.1498(2)
H2 H 0.5958 -0.0399 0.1873
N3 N 0.4115(2) 0.1902(3) 0.07475(18)
O1 O 0.21796(19) -0.0822(2) 0.30634(16)
O2 O 0.07983(18) 0.0167(2) 0.36802(15)
O3 O -0.19859(19) 0.4672(2) 0.02365(15)
O4 O -0.20662(18) 0.4204(2) 0.17452(15)
O5 O 0.36753(19) 0.3607(2) -0.10665(15)
H3 H 0.4262 0.4230 -0.1030
H4 H 0.3059 0.3850 -0.1544
C1 C -0.0170(3) 0.2008(3) 0.2002(2)
H7 H -0.0576 0.2043 0.2473
C2 C 0.0815(3) 0.1022(3) 0.2107(2)
C3 C 0.1401(3) 0.0948(3) 0.1388(2)
H8 H 0.2045 0.0262 0.1450
C4 C 0.1027(3) 0.1896(3) 0.0580(2)
C5 C 0.0050(3) 0.2895(3) 0.0493(2)
H9 H -0.0202 0.3538 -0.0044
C6 C -0.0551(3) 0.2948(3) 0.1186(2)
C7 C 0.1298(3) 0.0041(3) 0.3001(2)
C8 C -0.1623(3) 0.4020(3) 0.1057(2)
C9 C 0.2312(3) 0.0547(3) -0.0283(2)
H10 H 0.1849 -0.0349 -0.0201
H11 H 0.2385 0.0528 -0.0935
C10 C 0.3547(3) 0.0516(3) 0.0433(2)
C11 C 0.4296(3) -0.0615(4) 0.0909(2)
H12 H 0.4137 -0.1661 0.0847
C12 C 0.5187(3) 0.1578(4) 0.1387(2)
H13 H 0.5762 0.2303 0.1713
Cu1A Cu 0.18477(3) -0.12745(4) 0.47269(3)
Cu1B Cu -0.31523(3) 0.62745(4) -0.02731(3)
O2A O 0.42017(18) 0.5167(2) 0.13198(15)
O3B O 0.19859(19) 0.5328(2) -0.02365(15)
O6 O 0.0761(2) 0.6643(3) 0.18195(17)
H5 H 0.0943 0.7202 0.2325
H6 H 0.1363 0.6057 0.1837
loop_
_geom_bond_atom_site_label_1
_geom_bond_atom_site_label_2
_geom_bond_site_symmetry_1
_geom_bond_site_symmetry_2
Cu1 N1 1_555 1_555
N1 H1 1_555 1_555
N2 H2 1_555 1_555
N3 Cu1 1_555 1_555
O1 C7 1_555 1_555
O2 C7 1_555 1_555
O3 C8 1_555 1_555
O4 C8 1_555 1_555
O5 Cu1 1_555 1_555
H3 O5 1_555 1_555
H4 O5 1_555 1_555
O6 H5 1_555 1_555
H6 O6 1_555 1_555
C1 H7 1_555 1_555
C2 C1 1_555 1_555
C3 C2 1_555 1_555
H8 C3 1_555 1_555
C4 N1 1_555 1_555
C5 C4 1_555 1_555
H9 C5 1_555 1_555
C6 C1 1_555 1_555
C7 C2 1_555 1_555
C8 C6 1_555 1_555
C9 N1 1_555 1_555
H10 C9 1_555 1_555
H11 C9 1_555 1_555
C10 N3 1_555 1_555
C11 N2 1_555 1_555
H12 C11 1_555 1_555
C12 N2 1_555 1_555
H13 C12 1_555 1_555
Cu1A O2 1_555 1_555
Cu1B O3 1_555 1_555
O2A Cu1 1_555 1_555
O3B Cu1 1_555 1_555
N3 C12 1_555 1_555
C3 C4 1_555 1_555
C5 C6 1_555 1_555
C9 C10 1_555 1_555
C10 C11 1_555 1_555

#END
