
#######################################################################
#
#                 Cambridge Crystallographic Data Centre
#                                CCDC 
#
#######################################################################
#
# If this CIF has been generated from an entry in the Cambridge 
# Structural Database, then it will include bibliographic, chemical, 
# crystal, experimental, refinement or atomic coordinate data resulting 
# from the CCDC's data processing and validation procedures.
#
#######################################################################

data_NUKGEG
_symmetry_cell_setting           monoclinic
_symmetry_space_group_name_H-M   'P 21/n'
_symmetry_Int_Tables_number      14
_space_group_name_Hall           '-P 2yn'
loop_
_symmetry_equiv_pos_site_id
_symmetry_equiv_pos_as_xyz
1 x,y,z
2 1/2-x,1/2+y,1/2-z
3 -x,-y,-z
4 1/2+x,1/2-y,1/2+z
_cell_length_a                   12.067(5)
_cell_length_b                   16.172(7)
_cell_length_c                   16.358(6)
_cell_angle_alpha                90
_cell_angle_beta                 109.579(6)
_cell_angle_gamma                90
_cell_volume                     3007.65
loop_
_atom_site_label
_atom_site_type_symbol
_atom_site_fract_x
_atom_site_fract_y
_atom_site_fract_z
Co1 Co 0.76803(5) 0.32004(4) 0.81308(4)
N1 N 0.7161(3) 0.2093(3) 0.8822(2)
H1 H 0.6368 0.2125 0.8696
N2 N 0.9318(4) 0.3371(2) 0.9184(3)
N3 N 0.7200(4) 0.4065(2) 0.8918(2)
N4 N 0.8349(4) 0.2228(3) 0.7640(3)
N5 N 0.9524(5) 0.1411(4) 0.7285(4)
H2 H 1.0023 0.1233 0.7055
O1 O 1.0932(4) 0.1109(3) 1.1191(3)
O2 O 1.0996(3) 0.1892(2) 1.2296(2)
O3 O 0.5919(3) 0.3420(3) 1.1191(2)
O4 O 0.7497(4) 0.3417(5) 1.2340(3)
O5 O 0.8061(3) 0.4133(2) 0.7338(2)
H3 H 0.7339 0.4333 0.6930
H4 H 0.8542 0.3903 0.7031
C1 C 0.7673(4) 0.2155(3) 0.9754(3)
C2 C 0.8767(4) 0.1822(3) 1.0194(3)
H5 H 0.9155 0.1509 0.9897
C3 C 0.9283(4) 0.1956(3) 1.1074(3)
C4 C 0.8707(4) 0.2414(3) 1.1521(3)
H6 H 0.9062 0.2514 1.2112
C5 C 0.7590(4) 0.2725(3) 1.1079(3)
C6 C 0.7083(4) 0.2584(3) 1.0201(3)
H7 H 0.6331 0.2783 0.9909
C7 C 0.7383(5) 0.1325(3) 0.8418(3)
H8 H 0.6654 0.1130 0.7997
H9 H 0.7670 0.0902 0.8859
C8 C 0.8274(5) 0.1473(3) 0.7976(3)
C9 C 0.9016(5) 0.0953(4) 0.7758(4)
H10 H 0.9148 0.0397 0.7904
C10 C 0.9137(5) 0.2157(4) 0.7237(4)
H11 H 0.9375 0.2588 0.6959
C11 C 0.6165(5) 0.4405(3) 0.8770(4)
H12 H 0.5557 0.4272 0.8263
C12 C 0.5942(6) 0.4971(4) 0.9361(5)
H13 H 0.5207 0.5218 0.9232
C13 C 0.6805(7) 0.5146(4) 1.0110(5)
H14 H 0.6666 0.5508 1.0506
C14 C 0.7908(6) 0.4783(3) 1.0288(4)
C15 C 0.8881(8) 0.4927(4) 1.1076(4)
H15 H 0.8777 0.5272 1.1499
C16 C 0.9919(7) 0.4577(4) 1.1209(3)
H16 H 1.0531 0.4692 1.1719
C17 C 1.0125(5) 0.4033(3) 1.0598(3)
C18 C 1.1205(5) 0.3634(4) 1.0708(4)
H17 H 1.1842 0.3721 1.1212
C19 C 1.1317(5) 0.3136(4) 1.0096(4)
H18 H 1.2024 0.2863 1.0174
C20 C 1.0338(4) 0.3021(3) 0.9312(4)
H19 H 1.0433 0.2684 0.8879
C21 C 0.9194(4) 0.3880(3) 0.9811(3)
C22 C 0.8081(4) 0.4264(3) 0.9670(3)
C23 C 1.0504(4) 0.1625(3) 1.1546(3)
C24 C 0.6935(5) 0.3223(3) 1.1566(4)
Co1C Co 1.26803(5) 0.17996(4) 1.31308(4)
O2C O 0.5996(3) 0.3108(2) 0.7296(2)
O6 O 0.9660(9) 0.3334(5) 0.3640(6)
O7 O 0.9945(9) 0.4058(6) 0.6703(6)
O8 O 0.6651(9) 0.4987(6) 0.2667(6)
O9 O 0.4189(9) 0.2450(6) 0.0120(6)
O10 O 0.2274(11) 0.3631(8) 0.7856(7)
O11 O 0.923(2) 0.5278(12) 0.5506(13)
O12 O 0.222(2) 0.0269(15) 0.9650(16)
O13 O 0.217(8) 0.238(3) 0.857(5)
loop_
_geom_bond_atom_site_label_1
_geom_bond_atom_site_label_2
_geom_bond_site_symmetry_1
_geom_bond_site_symmetry_2
Co1 N1 1_555 1_555
N1 H1 1_555 1_555
N2 Co1 1_555 1_555
N3 Co1 1_555 1_555
N4 Co1 1_555 1_555
N5 H2 1_555 1_555
O1 C23 1_555 1_555
O2 C23 1_555 1_555
O3 C24 1_555 1_555
O4 C24 1_555 1_555
O5 Co1 1_555 1_555
H3 O5 1_555 1_555
H4 O5 1_555 1_555
C1 N1 1_555 1_555
C2 C1 1_555 1_555
H5 C2 1_555 1_555
C3 C2 1_555 1_555
C4 C3 1_555 1_555
H6 C4 1_555 1_555
C5 C4 1_555 1_555
C6 C1 1_555 1_555
H7 C6 1_555 1_555
C7 N1 1_555 1_555
H8 C7 1_555 1_555
H9 C7 1_555 1_555
C8 N4 1_555 1_555
C9 N5 1_555 1_555
H10 C9 1_555 1_555
C10 N4 1_555 1_555
H11 C10 1_555 1_555
C11 N3 1_555 1_555
H12 C11 1_555 1_555
C12 C11 1_555 1_555
H13 C12 1_555 1_555
C13 C12 1_555 1_555
H14 C13 1_555 1_555
C14 C13 1_555 1_555
C15 C14 1_555 1_555
H15 C15 1_555 1_555
C16 C15 1_555 1_555
H16 C16 1_555 1_555
C17 C16 1_555 1_555
C18 C17 1_555 1_555
H17 C18 1_555 1_555
C19 C18 1_555 1_555
H18 C19 1_555 1_555
C20 N2 1_555 1_555
H19 C20 1_555 1_555
C21 N2 1_555 1_555
C22 N3 1_555 1_555
C23 C3 1_555 1_555
C24 C5 1_555 1_555
Co1C O2 1_555 1_555
O2C Co1 1_555 1_555
N5 C10 1_555 1_555
C5 C6 1_555 1_555
C7 C8 1_555 1_555
C8 C9 1_555 1_555
C14 C22 1_555 1_555
C17 C21 1_555 1_555
C19 C20 1_555 1_555
C21 C22 1_555 1_555

#END
