
#######################################################################
#
#                 Cambridge Crystallographic Data Centre
#                                CCDC 
#
#######################################################################
#
# If this CIF has been generated from an entry in the Cambridge 
# Structural Database, then it will include bibliographic, chemical, 
# crystal, experimental, refinement or atomic coordinate data resulting 
# from the CCDC's data processing and validation procedures.
#
#######################################################################

data_NUKGOQ
_symmetry_cell_setting           triclinic
_symmetry_space_group_name_H-M   'P -1'
_symmetry_Int_Tables_number      2
_space_group_name_Hall           '-P 1'
loop_
_symmetry_equiv_pos_site_id
_symmetry_equiv_pos_as_xyz
1 x,y,z
2 -x,-y,-z
_cell_length_a                   9.305(6)
_cell_length_b                   11.342(17)
_cell_length_c                   11.348(7)
_cell_angle_alpha                102.37(7)
_cell_angle_beta                 112.15(6)
_cell_angle_gamma                112.03(12)
_cell_volume                     935.897
loop_
_atom_site_label
_atom_site_type_symbol
_atom_site_fract_x
_atom_site_fract_y
_atom_site_fract_z
Co1 Co 0.76845(15) 0.09776(11) 0.93743(11)
C1 C 0.4290(9) -0.0257(6) 0.9241(7)
O1 O 0.4881(6) -0.0044(5) 0.8430(5)
O2 O 0.2683(6) -0.0808(6) 0.8948(5)
C2 C 0.9234(9) -0.0754(7) 0.9509(8)
O3 O 0.7708(6) -0.0921(5) 0.8821(5)
O4 O 0.9599(6) -0.1713(5) 0.9401(5)
N1 N 0.7972(8) 0.2984(6) 0.9734(7)
N2 N 0.7988(8) 0.3933(6) 1.0698(6)
C3 C 0.7721(9) 0.4803(7) 1.0171(7)
N3 N 0.7505(7) 0.4419(6) 0.8873(6)
C4 C 0.7662(9) 0.3268(7) 0.8635(7)
N4 N 0.7234(11) 0.5042(7) 0.7947(7)
C5 C 0.7511(8) 0.5951(7) 1.0870(7)
N5 N 0.6675(9) 0.6408(7) 1.0011(7)
C6 C 0.6484(12) 0.7466(8) 1.0641(9)
H1 H 0.5936 0.7835 1.0084
C7 C 0.7024(12) 0.8003(9) 1.1990(10)
H2 H 0.6811 0.8699 1.2341
C8 C 0.7876(15) 0.7543(11) 1.2846(11)
H3 H 0.8297 0.7934 1.3799
C9 C 0.8123(12) 0.6428(8) 1.2256(9)
H4 H 0.8678 0.6055 1.2803
C10 C 0.7513(10) 0.2348(8) 0.7402(8)
N6 N 0.7623(8) 0.1255(6) 0.7569(6)
C11 C 0.7476(12) 0.0300(9) 0.6472(9)
H5 H 0.7517 -0.0488 0.6548
C12 C 0.7277(14) 0.0488(10) 0.5306(10)
H6 H 0.7224 -0.0156 0.4604
C13 C 0.7151(14) 0.1597(12) 0.5129(10)
H7 H 0.6975 0.1697 0.4302
C14 C 0.7290(12) 0.2591(9) 0.6209(9)
H8 H 0.7235 0.3375 0.6132
Co1A Co 0.23155(15) -0.09776(11) 1.06257(11)
Co1A_2 Co 1.23155(15) -0.09776(11) 1.06257(11)
C1A C 0.5710(9) 0.0257(6) 1.0759(7)
O1A O 0.5119(6) 0.0044(5) 1.1570(5)
O2A O 0.7317(6) 0.0808(6) 1.1052(5)
C2A C 1.0766(9) 0.0754(7) 1.0491(8)
O3A O 1.2292(6) 0.0921(5) 1.1179(5)
O3A_2 O 0.2292(6) 0.0921(5) 1.1179(5)
O4A O 1.0401(6) 0.1713(5) 1.0599(5)
O4_2 O -0.0401(6) -0.1713(5) 0.9401(5)
N1A N 0.2028(8) -0.2984(6) 1.0266(7)
N2A N 0.2012(8) -0.3933(6) 0.9302(6)
C3A C 0.2279(9) -0.4803(7) 0.9829(7)
N3A N 0.2495(7) -0.4419(6) 1.1127(6)
C4A C 0.2338(9) -0.3268(7) 1.1365(7)
N4A N 0.2766(11) -0.5042(7) 1.2053(7)
C5A C 0.2489(8) -0.5951(7) 0.9130(7)
N5A N 0.3325(9) -0.6408(7) 0.9989(7)
C6A C 0.3516(12) -0.7466(8) 0.9359(9)
H1A H 0.4064 -0.7835 0.9916
C7A C 0.2976(12) -0.8003(9) 0.8010(10)
H2A H 0.3189 -0.8699 0.7659
C8A C 0.2124(15) -0.7543(11) 0.7154(11)
H3A H 0.1703 -0.7934 0.6201
C9A C 0.1877(12) -0.6428(8) 0.7744(9)
H4A H 0.1322 -0.6055 0.7197
C10A C 0.2487(10) -0.2348(8) 1.2598(8)
N6A N 0.2377(8) -0.1255(6) 1.2431(6)
C11A C 0.2524(12) -0.0300(9) 1.3528(9)
H5A H 0.2483 0.0488 1.3452
C12A C 0.2723(14) -0.0488(10) 1.4694(10)
H6A H 0.2776 0.0156 1.5396
C13A C 0.2849(14) -0.1597(12) 1.4871(10)
H7A H 0.3025 -0.1697 1.5698
C14A C 0.2710(12) -0.2591(9) 1.3791(9)
H8A H 0.2765 -0.3375 1.3868
O5 O -0.0074(14) -0.2014(15) 0.6190(11)
O6 O 0.1461(15) -0.3986(11) 0.6451(13)
O7 O 0.4711(10) -0.3562(9) 0.6687(8)
O8 O 0.6308(13) -0.3425(14) 0.5018(12)
loop_
_geom_bond_atom_site_label_1
_geom_bond_atom_site_label_2
_geom_bond_site_symmetry_1
_geom_bond_site_symmetry_2
Co1 O1 1_555 1_555
C1 O1 1_555 1_555
O2 C1 1_555 1_555
C2 O3 1_555 1_555
O3 Co1 1_555 1_555
O4 C2 1_555 1_555
N1 Co1 1_555 1_555
N2 N1 1_555 1_555
C3 N2 1_555 1_555
N3 C3 1_555 1_555
C4 N1 1_555 1_555
N4 N3 1_555 1_555
C5 C3 1_555 1_555
N5 C5 1_555 1_555
C6 N5 1_555 1_555
H1 C6 1_555 1_555
C7 C6 1_555 1_555
H2 C7 1_555 1_555
C8 C7 1_555 1_555
H3 C8 1_555 1_555
C9 C5 1_555 1_555
H4 C9 1_555 1_555
C10 C4 1_555 1_555
N6 Co1 1_555 1_555
C11 N6 1_555 1_555
H5 C11 1_555 1_555
C12 C11 1_555 1_555
H6 C12 1_555 1_555
C13 C12 1_555 1_555
H7 C13 1_555 1_555
C14 C10 1_555 1_555
H8 C14 1_555 1_555
Co1A O2 1_555 1_555
Co1A_2 O4 1_555 1_555
C1A C1 1_555 1_555
O1A Co1A 1_555 1_555
O2A Co1 1_555 1_555
C2A C2 1_555 1_555
O3A Co1A_2 1_555 1_555
O3A_2 Co1A 1_555 1_555
O4A Co1 1_555 1_555
O4_2 Co1A 1_555 1_555
N1A Co1A 1_555 1_555
N2A N1A 1_555 1_555
C3A N2A 1_555 1_555
N3A C3A 1_555 1_555
C4A N1A 1_555 1_555
N4A N3A 1_555 1_555
C5A C3A 1_555 1_555
N5A C5A 1_555 1_555
C6A N5A 1_555 1_555
H1A C6A 1_555 1_555
C7A C6A 1_555 1_555
H2A C7A 1_555 1_555
C8A C7A 1_555 1_555
H3A C8A 1_555 1_555
C9A C5A 1_555 1_555
H4A C9A 1_555 1_555
C10A C4A 1_555 1_555
N6A Co1A 1_555 1_555
C11A N6A 1_555 1_555
H5A C11A 1_555 1_555
C12A C11A 1_555 1_555
H6A C12A 1_555 1_555
C13A C12A 1_555 1_555
H7A C13A 1_555 1_555
C14A C10A 1_555 1_555
H8A C14A 1_555 1_555
N3 C4 1_555 1_555
C8 C9 1_555 1_555
C10 N6 1_555 1_555
C13 C14 1_555 1_555
C1A O1A 1_555 1_555
C1A O2A 1_555 1_555
C2A O3A 1_555 1_555
C2A O4A 1_555 1_555
N3A C4A 1_555 1_555
C8A C9A 1_555 1_555
C10A N6A 1_555 1_555
C13A C14A 1_555 1_555

#END
