
#######################################################################
#
#                 Cambridge Crystallographic Data Centre
#                                CCDC 
#
#######################################################################
#
# If this CIF has been generated from an entry in the Cambridge 
# Structural Database, then it will include bibliographic, chemical, 
# crystal, experimental, refinement or atomic coordinate data resulting 
# from the CCDC's data processing and validation procedures.
#
#######################################################################

data_NUKHIL
_symmetry_cell_setting           monoclinic
_symmetry_space_group_name_H-M   'P 21/c'
_symmetry_Int_Tables_number      14
_space_group_name_Hall           '-P 2ybc'
loop_
_symmetry_equiv_pos_site_id
_symmetry_equiv_pos_as_xyz
1 x,y,z
2 -x,1/2+y,1/2-z
3 -x,-y,-z
4 x,1/2-y,1/2+z
_cell_length_a                   11.2242(14)
_cell_length_b                   17.861(2)
_cell_length_c                   7.1391(9)
_cell_angle_alpha                90
_cell_angle_beta                 106.606(2)
_cell_angle_gamma                90
_cell_volume                     1371.52
loop_
_atom_site_label
_atom_site_type_symbol
_atom_site_fract_x
_atom_site_fract_y
_atom_site_fract_z
Ni1 Ni 0.00014(8) 0.06284(4) 0.08944(11)
C1 C 0.3069(6) -0.0445(4) 0.6478(10)
C2 C 0.2383(6) -0.0848(4) 0.4866(10)
C3 C 0.2428(7) -0.1625(4) 0.4921(10)
H1 H 0.1971 -0.1893 0.3837
C4 C 0.3810(7) -0.0845(5) 0.8110(11)
H2 H 0.4292 -0.0583 0.9187
C5 C 0.3128(7) -0.2010(4) 0.6529(11)
H3 H 0.3131 -0.2530 0.6546
C6 C 0.3828(8) -0.1606(5) 0.8123(11)
H4 H 0.4316 -0.1859 0.9213
C7 C 0.3171(7) 0.0397(4) 0.6605(10)
C8 C 0.1720(7) 0.0523(4) 0.8736(10)
C9 C 0.1547(7) -0.0478(4) 0.3071(10)
C10 C 0.2645(7) 0.0833(4) 0.7788(9)
C11 C 0.3929(7) 0.0757(5) 0.5622(12)
H5 H 0.4269 0.0481 0.4797
C12 C 0.2929(7) 0.1592(4) 0.8000(10)
H6 H 0.2596 0.1879 0.8815
C13 C 0.3679(7) 0.1927(5) 0.7051(11)
H7 H 0.3851 0.2437 0.7214
C14 C 0.4180(8) 0.1509(5) 0.5853(12)
H8 H 0.4690 0.1735 0.5196
O1 O 0.1189(5) -0.0897(3) 0.1599(7)
O2 O 0.1214(5) 0.0184(3) 0.3163(7)
O3 O 0.1328(5) -0.0126(3) 0.8289(7)
O4 O 0.1353(5) 0.0951(3) 0.9859(8)
O5 O -0.0425(6) 0.1664(3) 0.2230(8)
C15 C 0.0430(10) 0.1978(6) 0.3853(14)
H9 H 0.0347 0.1745 0.5021
H10 H 0.0275 0.2505 0.3896
H11 H 0.1257 0.1899 0.3759
H12 H -0.104(7) 0.158(7) 0.260(19)
Ni1B Ni -0.00014(8) -0.06284(4) -0.08944(11)
Ni1_2 Ni 0.00014(8) 0.06284(4) -0.91056(11)
Ni1_3 Ni 0.00014(8) 0.06284(4) 1.08944(11)
Ni1B_2 Ni -0.00014(8) -0.06284(4) -1.08944(11)
Ni1B_3 Ni -0.00014(8) -0.06284(4) 0.91056(11)
C1B C -0.3069(6) 0.0445(4) -0.6478(10)
C2B C -0.2383(6) 0.0848(4) -0.4866(10)
C3B C -0.2428(7) 0.1625(4) -0.4921(10)
H1B H -0.1971 0.1893 -0.3837
C4B C -0.3810(7) 0.0845(5) -0.8110(11)
H2B H -0.4292 0.0583 -0.9187
C5B C -0.3128(7) 0.2010(4) -0.6529(11)
H3B H -0.3131 0.2530 -0.6546
C6B C -0.3828(8) 0.1606(5) -0.8123(11)
H4B H -0.4316 0.1859 -0.9213
C7B C -0.3171(7) -0.0397(4) -0.6605(10)
C8B C -0.1720(7) -0.0523(4) -0.8736(10)
C9B C -0.1547(7) 0.0478(4) -0.3071(10)
C10B C -0.2645(7) -0.0833(4) -0.7788(9)
C11B C -0.3929(7) -0.0757(5) -0.5622(12)
H5B H -0.4269 -0.0481 -0.4797
C12B C -0.2929(7) -0.1592(4) -0.8000(10)
H6B H -0.2596 -0.1879 -0.8815
C13B C -0.3679(7) -0.1927(5) -0.7051(11)
H7B H -0.3851 -0.2437 -0.7214
C14B C -0.4180(8) -0.1509(5) -0.5853(12)
H8B H -0.4690 -0.1735 -0.5196
O1B O -0.1189(5) 0.0897(3) -0.1599(7)
O2B O -0.1214(5) -0.0184(3) -0.3163(7)
O3B O -0.1328(5) 0.0126(3) -0.8289(7)
O3_2 O 0.1328(5) -0.0126(3) -0.1711(7)
O3B_2 O -0.1328(5) 0.0126(3) 0.1711(7)
O4B O -0.1353(5) -0.0951(3) -0.9859(8)
O4_2 O 0.1353(5) 0.0951(3) -0.0141(8)
O4B_2 O -0.1353(5) -0.0951(3) 0.0141(8)
O5B O 0.0425(6) -0.1664(3) -0.2230(8)
C15B C -0.0430(10) -0.1978(6) -0.3853(14)
H9B H -0.0347 -0.1745 -0.5021
H10B H -0.0275 -0.2505 -0.3896
H11B H -0.1257 -0.1899 -0.3759
H12B H 0.104(7) -0.158(7) -0.260(19)
loop_
_geom_bond_atom_site_label_1
_geom_bond_atom_site_label_2
_geom_bond_site_symmetry_1
_geom_bond_site_symmetry_2
Ni1 O2 1_555 1_555
C1 C2 1_555 1_555
C2 C3 1_555 1_555
C3 H1 1_555 1_555
C4 C1 1_555 1_555
H2 C4 1_555 1_555
C5 C3 1_555 1_555
H3 C5 1_555 1_555
C6 C4 1_555 1_555
H4 C6 1_555 1_555
C7 C1 1_555 1_555
C8 C10 1_555 1_555
C9 C2 1_555 1_555
C10 C7 1_555 1_555
C11 C7 1_555 1_555
H5 C11 1_555 1_555
C12 C10 1_555 1_555
H6 C12 1_555 1_555
C13 C12 1_555 1_555
H7 C13 1_555 1_555
C14 C11 1_555 1_555
H8 C14 1_555 1_555
O1 C9 1_555 1_555
O2 C9 1_555 1_555
O3 C8 1_555 1_555
O4 C8 1_555 1_555
O5 Ni1 1_555 1_555
C15 O5 1_555 1_555
H9 C15 1_555 1_555
H10 C15 1_555 1_555
H11 C15 1_555 1_555
H12 O5 1_555 1_555
Ni1B Ni1 1_555 1_555
Ni1_2 Ni1B_2 1_555 1_555
Ni1_3 O4 1_555 1_555
Ni1B_2 O4B 1_555 1_555
Ni1B_3 O3 1_555 1_555
C1B C2B 1_555 1_555
C2B C3B 1_555 1_555
C3B H1B 1_555 1_555
C4B C1B 1_555 1_555
H2B C4B 1_555 1_555
C5B C3B 1_555 1_555
H3B C5B 1_555 1_555
C6B C4B 1_555 1_555
H4B C6B 1_555 1_555
C7B C1B 1_555 1_555
C8B C10B 1_555 1_555
C9B C2B 1_555 1_555
C10B C7B 1_555 1_555
C11B C7B 1_555 1_555
H5B C11B 1_555 1_555
C12B C10B 1_555 1_555
H6B C12B 1_555 1_555
C13B C12B 1_555 1_555
H7B C13B 1_555 1_555
C14B C11B 1_555 1_555
H8B C14B 1_555 1_555
O1B Ni1 1_555 1_555
O2B Ni1B 1_555 1_555
O3B Ni1_2 1_555 1_555
O3_2 Ni1B 1_555 1_555
O3B_2 Ni1 1_555 1_555
O4B C8B 1_555 1_555
O4_2 Ni1 1_555 1_555
O4B_2 Ni1B 1_555 1_555
O5B Ni1B 1_555 1_555
C15B O5B 1_555 1_555
H9B C15B 1_555 1_555
H10B C15B 1_555 1_555
H11B C15B 1_555 1_555
H12B O5B 1_555 1_555
C5 C6 1_555 1_555
C13 C14 1_555 1_555
O1 Ni1B 1_555 1_555
Ni1_3 Ni1B_3 1_555 1_555
C5B C6B 1_555 1_555
C8B O3B 1_555 1_555
C9B O1B 1_555 1_555
C9B O2B 1_555 1_555
C13B C14B 1_555 1_555

#END
