
#######################################################################
#
#                 Cambridge Crystallographic Data Centre
#                                CCDC 
#
#######################################################################
#
# If this CIF has been generated from an entry in the Cambridge 
# Structural Database, then it will include bibliographic, chemical, 
# crystal, experimental, refinement or atomic coordinate data resulting 
# from the CCDC's data processing and validation procedures.
#
#######################################################################

data_NUKHEH
_symmetry_cell_setting           monoclinic
_symmetry_space_group_name_H-M   'P 2/c'
_symmetry_Int_Tables_number      13
_space_group_name_Hall           '-P 2yc'
loop_
_symmetry_equiv_pos_site_id
_symmetry_equiv_pos_as_xyz
1 x,y,z
2 -x,y,1/2-z
3 -x,-y,-z
4 x,-y,1/2+z
_cell_length_a                   13.5820(19)
_cell_length_b                   11.0393(15)
_cell_length_c                   11.9075(17)
_cell_angle_alpha                90
_cell_angle_beta                 112.066(2)
_cell_angle_gamma                90
_cell_volume                     1654.59
loop_
_atom_site_label
_atom_site_type_symbol
_atom_site_fract_x
_atom_site_fract_y
_atom_site_fract_z
Cu1 Cu 0.0000 0.27921(5) 0.2500
O1 O 0.1585(2) 0.2690(2) 0.3196(2)
O2 O 0.1867(2) 0.3728(3) 0.4884(3)
O3 O 0.3199(3) 0.4249(3) 0.2179(3)
O4 O 0.2001(3) 0.3888(3) 0.0353(3)
H1 H 0.2025 0.4628 0.0304
O5 O 0.0046(2) 0.2812(3) 0.0492(3)
H2 H -0.0454 0.3212 0.0038
H3 H 0.0628 0.3124 0.0520
N1 N 0.0000 0.0998(3) 0.2500
N2 N 0.0000 -0.5386(4) 0.2500
C1 C 0.2195(3) 0.3148(3) 0.4181(4)
C2 C 0.3373(3) 0.3017(3) 0.4528(3)
C3 C 0.4023(3) 0.3602(4) 0.5578(4)
H4 H 0.3710 0.4028 0.6031
C4 C 0.5110(4) 0.3574(5) 0.5969(4)
H5 H 0.5525 0.3999 0.6658
C5 C 0.5578(4) 0.2908(6) 0.5327(5)
H6 H 0.6314 0.2864 0.5590
C6 C 0.4949(4) 0.2306(5) 0.4290(4)
H7 H 0.5272 0.1850 0.3868
C7 C 0.3847(3) 0.2362(4) 0.3856(4)
C8 C 0.3298(3) 0.1663(4) 0.2700(4)
C9 C 0.3420(4) 0.0408(4) 0.2756(4)
H8 H 0.3765 0.0039 0.3504
C10 C 0.3040(4) -0.0304(5) 0.1722(5)
H9 H 0.3136 -0.1139 0.1778
C11 C 0.2523(4) 0.0229(4) 0.0620(5)
H10 H 0.2261 -0.0245 -0.0076
C12 C 0.2389(3) 0.1458(4) 0.0539(4)
H11 H 0.2028 0.1810 -0.0214
C13 C 0.2783(3) 0.2195(4) 0.1563(4)
C14 C 0.2700(3) 0.3528(4) 0.1425(4)
C15 C -0.0480(3) 0.0376(3) 0.3116(4)
H12 H -0.0825 0.0800 0.3536
C16 C -0.0481(3) -0.0871(3) 0.3149(4)
H13 H -0.0804 -0.1275 0.3605
C17 C 0.0000 -0.1523(4) 0.2500
C18 C 0.0000 -0.2861(4) 0.2500
C19 C -0.0817(3) -0.3515(3) 0.2640(3)
H14 H -0.1382 -0.3113 0.2738
C20 C -0.0791(3) -0.4755(3) 0.2632(3)
H15 H -0.1348 -0.5178 0.2722
Cu1_2 Cu 0.0000 -0.72079(5) 0.2500
O1A O -0.1585(2) 0.2690(2) 0.1804(2)
O2A O -0.1867(2) 0.3728(3) 0.0116(3)
O3A O -0.3199(3) 0.4249(3) 0.2821(3)
O4A O -0.2001(3) 0.3888(3) 0.4647(3)
H1A H -0.2025 0.4628 0.4696
O5A O -0.0046(2) 0.2812(3) 0.4508(3)
H2A H 0.0454 0.3212 0.4962
H3A H -0.0628 0.3124 0.4480
N2_2 N 0.0000 0.4614(4) 0.2500
C1A C -0.2195(3) 0.3148(3) 0.0819(4)
C2A C -0.3373(3) 0.3017(3) 0.0472(3)
C3A C -0.4023(3) 0.3602(4) -0.0578(4)
H4A H -0.3710 0.4028 -0.1031
C4A C -0.5110(4) 0.3574(5) -0.0969(4)
H5A H -0.5525 0.3999 -0.1658
C5A C -0.5578(4) 0.2908(6) -0.0327(5)
H6A H -0.6314 0.2864 -0.0590
C6A C -0.4949(4) 0.2306(5) 0.0710(4)
H7A H -0.5272 0.1850 0.1132
C7A C -0.3847(3) 0.2362(4) 0.1144(4)
C8A C -0.3298(3) 0.1663(4) 0.2300(4)
C9A C -0.3420(4) 0.0408(4) 0.2244(4)
H8A H -0.3765 0.0039 0.1496
C10A C -0.3040(4) -0.0304(5) 0.3278(5)
H9A H -0.3136 -0.1139 0.3222
C11A C -0.2523(4) 0.0229(4) 0.4380(5)
H10A H -0.2261 -0.0245 0.5076
C12A C -0.2389(3) 0.1458(4) 0.4461(4)
H11A H -0.2028 0.1810 0.5214
C13A C -0.2783(3) 0.2195(4) 0.3437(4)
C14A C -0.2700(3) 0.3528(4) 0.3575(4)
C15A C 0.0480(3) 0.0376(3) 0.1884(4)
H12A H 0.0825 0.0800 0.1464
C16A C 0.0481(3) -0.0871(3) 0.1851(4)
H13A H 0.0804 -0.1275 0.1395
C19A C 0.0817(3) -0.3515(3) 0.2360(3)
H14A H 0.1382 -0.3113 0.2262
C20A C 0.0791(3) -0.4755(3) 0.2368(3)
H15A H 0.1348 -0.5178 0.2278
loop_
_geom_bond_atom_site_label_1
_geom_bond_atom_site_label_2
_geom_bond_site_symmetry_1
_geom_bond_site_symmetry_2
Cu1 O1 1_555 1_555
O1 C1 1_555 1_555
O2 C1 1_555 1_555
O3 C14 1_555 1_555
O4 H1 1_555 1_555
O5 Cu1 1_555 1_555
H2 O5 1_555 1_555
H3 O5 1_555 1_555
N1 Cu1 1_555 1_555
N2 C20 1_555 1_555
C1 C2 1_555 1_555
C2 C3 1_555 1_555
C3 H4 1_555 1_555
C4 C3 1_555 1_555
H5 C4 1_555 1_555
C5 C4 1_555 1_555
H6 C5 1_555 1_555
C6 C5 1_555 1_555
H7 C6 1_555 1_555
C7 C2 1_555 1_555
C8 C7 1_555 1_555
C9 C8 1_555 1_555
H8 C9 1_555 1_555
C10 C9 1_555 1_555
H9 C10 1_555 1_555
C11 C10 1_555 1_555
H10 C11 1_555 1_555
C12 C11 1_555 1_555
H11 C12 1_555 1_555
C13 C8 1_555 1_555
C14 O4 1_555 1_555
C15 N1 1_555 1_555
H12 C15 1_555 1_555
C16 C15 1_555 1_555
H13 C16 1_555 1_555
C17 C16 1_555 1_555
C18 C17 1_555 1_555
C19 C18 1_555 1_555
H14 C19 1_555 1_555
C20 C19 1_555 1_555
H15 C20 1_555 1_555
Cu1_2 N2 1_555 1_555
O1A Cu1 1_555 1_555
O2A C1A 1_555 1_555
O3A C14A 1_555 1_555
O4A H1A 1_555 1_555
O5A Cu1 1_555 1_555
H2A O5A 1_555 1_555
H3A O5A 1_555 1_555
N2_2 Cu1 1_555 1_555
C1A O1A 1_555 1_555
C2A C1A 1_555 1_555
C3A C2A 1_555 1_555
H4A C3A 1_555 1_555
C4A C3A 1_555 1_555
H5A C4A 1_555 1_555
C5A C4A 1_555 1_555
H6A C5A 1_555 1_555
C6A C5A 1_555 1_555
H7A C6A 1_555 1_555
C7A C2A 1_555 1_555
C8A C7A 1_555 1_555
C9A C8A 1_555 1_555
H8A C9A 1_555 1_555
C10A C9A 1_555 1_555
H9A C10A 1_555 1_555
C11A C10A 1_555 1_555
H10A C11A 1_555 1_555
C12A C11A 1_555 1_555
H11A C12A 1_555 1_555
C13A C8A 1_555 1_555
C14A O4A 1_555 1_555
C15A N1 1_555 1_555
H12A C15A 1_555 1_555
C16A C17 1_555 1_555
H13A C16A 1_555 1_555
C19A C18 1_555 1_555
H14A C19A 1_555 1_555
C20A N2 1_555 1_555
H15A C20A 1_555 1_555
C6 C7 1_555 1_555
C12 C13 1_555 1_555
C13 C14 1_555 1_555
C6A C7A 1_555 1_555
C12A C13A 1_555 1_555
C13A C14A 1_555 1_555
C15A C16A 1_555 1_555
C19A C20A 1_555 1_555

#END
