
#######################################################################
#
#                 Cambridge Crystallographic Data Centre
#                                CCDC 
#
#######################################################################
#
# If this CIF has been generated from an entry in the Cambridge 
# Structural Database, then it will include bibliographic, chemical, 
# crystal, experimental, refinement or atomic coordinate data resulting 
# from the CCDC's data processing and validation procedures.
#
#######################################################################

data_NULBEC
_symmetry_cell_setting           monoclinic
_symmetry_space_group_name_H-M   'P 21/n'
_symmetry_Int_Tables_number      14
_space_group_name_Hall           '-P 2yn'
loop_
_symmetry_equiv_pos_site_id
_symmetry_equiv_pos_as_xyz
1 x,y,z
2 1/2-x,1/2+y,1/2-z
3 -x,-y,-z
4 1/2+x,1/2-y,1/2+z
_cell_length_a                   13.220(2)
_cell_length_b                   7.6773(12)
_cell_length_c                   18.315(3)
_cell_angle_alpha                90
_cell_angle_beta                 110.360(2)
_cell_angle_gamma                90
_cell_volume                     1742.73
loop_
_atom_site_label
_atom_site_type_symbol
_atom_site_fract_x
_atom_site_fract_y
_atom_site_fract_z
Cu1 Cu 0.63514(4) 0.11446(7) 0.19480(3)
Cl1 Cl 0.73295(10) 0.45839(17) 0.21657(7)
N1 N 0.6833(3) 0.0535(4) 0.1066(2)
N2 N 0.5197(3) 0.2382(5) 0.1121(2)
O1 O 0.5673(2) 0.1471(4) 0.26858(18)
C1 C 0.4394(4) 0.3196(5) 0.1223(3)
H1 H 0.3932 0.3814 0.0802
C2 C 0.4163(3) 0.3216(6) 0.1925(3)
C3 C 0.4785(3) 0.2319(6) 0.2605(3)
C4 C 0.4408(4) 0.2343(6) 0.3240(3)
H2 H 0.4790 0.1737 0.3692
C5 C 0.3497(4) 0.3234(7) 0.3207(3)
H3 H 0.3269 0.3215 0.3633
C6 C 0.2913(4) 0.4160(7) 0.2549(3)
H4 H 0.2308 0.4792 0.2539
C7 C 0.3228(4) 0.4142(6) 0.1916(3)
H5 H 0.2824 0.4746 0.1469
C8 C 0.5317(3) 0.2309(5) 0.0382(3)
C9 C 0.4659(4) 0.3022(6) -0.0304(3)
H6 H 0.4066 0.3684 -0.0313
C10 C 0.4876(4) 0.2758(6) -0.0993(3)
H7 H 0.4426 0.3274 -0.1450
C11 C 0.5717(4) 0.1778(7) -0.1015(3)
H8 H 0.5837 0.1624 -0.1482
C12 C 0.6407(4) 0.0994(6) -0.0329(3)
C13 C 0.6213(3) 0.1275(6) 0.0377(3)
C14 C 0.7626(4) -0.0529(6) 0.1067(3)
H9 H 0.8048 -0.1037 0.1534
C15 C 0.7853(4) -0.0918(7) 0.0392(3)
H10 H 0.8401 -0.1694 0.0411
C16 C 0.7259(4) -0.0144(7) -0.0287(3)
H11 H 0.7419 -0.0369 -0.0734
Cu1A Cu 0.86486(4) 0.61446(7) 0.30520(3)
Cl1A Cl 0.76705(10) -0.04161(17) 0.28343(7)
N3 N 0.9380(4) 0.3018(6) 0.0943(3)
O2 O 0.8163(4) 0.4513(6) -0.0046(3)
C17 C 0.8497(5) 0.3979(8) 0.0620(3)
H12 H 0.8100 0.4267 0.0934
C18 C 0.9728(4) 0.2476(7) 0.1743(3)
H13 H 1.0401 0.3029 0.2027
H14 H 0.9820 0.1235 0.1772
H15 H 0.9195 0.2802 0.1964
C19 C 1.0050(5) 0.2528(9) 0.0503(4)
H16 H 1.0143 0.1286 0.0524
H17 H 1.0741 0.3082 0.0722
H18 H 0.9712 0.2888 -0.0028
loop_
_geom_bond_atom_site_label_1
_geom_bond_atom_site_label_2
_geom_bond_site_symmetry_1
_geom_bond_site_symmetry_2
Cu1 Cl1 1_555 1_555
Cl1 Cu1A 1_555 1_555
N1 Cu1 1_555 1_555
N2 Cu1 1_555 1_555
N3 C17 1_555 1_555
O1 Cu1 1_555 1_555
O2 C17 1_555 1_555
C1 N2 1_555 1_555
H1 C1 1_555 1_555
C2 C1 1_555 1_555
C3 O1 1_555 1_555
C4 C3 1_555 1_555
H2 C4 1_555 1_555
C5 C4 1_555 1_555
H3 C5 1_555 1_555
C6 C5 1_555 1_555
H4 C6 1_555 1_555
C7 C2 1_555 1_555
H5 C7 1_555 1_555
C8 N2 1_555 1_555
C9 C8 1_555 1_555
H6 C9 1_555 1_555
C10 C9 1_555 1_555
H7 C10 1_555 1_555
C11 C10 1_555 1_555
H8 C11 1_555 1_555
C12 C11 1_555 1_555
C13 N1 1_555 1_555
C14 N1 1_555 1_555
H9 C14 1_555 1_555
C15 C14 1_555 1_555
H10 C15 1_555 1_555
C16 C12 1_555 1_555
H11 C16 1_555 1_555
C17 H12 1_555 1_555
C18 N3 1_555 1_555
H13 C18 1_555 1_555
H14 C18 1_555 1_555
H15 C18 1_555 1_555
C19 N3 1_555 1_555
H16 C19 1_555 1_555
H17 C19 1_555 1_555
H18 C19 1_555 1_555
Cl1A Cu1 1_555 1_555
C2 C3 1_555 1_555
C6 C7 1_555 1_555
C8 C13 1_555 1_555
C12 C13 1_555 1_555
C15 C16 1_555 1_555

#END
