
#######################################################################
#
#                 Cambridge Crystallographic Data Centre
#                                CCDC 
#
#######################################################################
#
# If this CIF has been generated from an entry in the Cambridge 
# Structural Database, then it will include bibliographic, chemical, 
# crystal, experimental, refinement or atomic coordinate data resulting 
# from the CCDC's data processing and validation procedures.
#
#######################################################################

data_NULCED
_symmetry_cell_setting           monoclinic
_symmetry_space_group_name_H-M   'P 21/c'
_symmetry_Int_Tables_number      14
_space_group_name_Hall           '-P 2ybc'
loop_
_symmetry_equiv_pos_site_id
_symmetry_equiv_pos_as_xyz
1 x,y,z
2 -x,1/2+y,1/2-z
3 -x,-y,-z
4 x,1/2-y,1/2+z
_cell_length_a                   12.324(2)
_cell_length_b                   10.743(2)
_cell_length_c                   43.324(8)
_cell_angle_alpha                90
_cell_angle_beta                 93.364(2)
_cell_angle_gamma                90
_cell_volume                     5726.07
loop_
_atom_site_label
_atom_site_type_symbol
_atom_site_fract_x
_atom_site_fract_y
_atom_site_fract_z
Cd1 Cd 0.52280(3) 0.39407(3) 0.214798(7)
Cd2 Cd 0.51171(3) 0.23575(3) 0.304500(7)
N1 N 0.7156(3) 0.4066(3) 0.21578(8)
N2 N 0.5784(3) 0.4220(3) 0.16499(8)
N3 N 0.8989(3) 0.4906(3) 0.10453(8)
N4 N 1.0122(3) 0.4826(3) 0.14654(8)
H1 H 1.0717 0.4846 0.1579
N5 N 1.2867(3) 0.5125(5) 0.09044(10)
N6 N 0.4531(3) 0.2492(3) 0.35500(8)
N7 N 0.3209(3) 0.2312(3) 0.30277(8)
N8 N 0.1263(3) 0.3385(4) 0.41118(8)
N9 N 0.0170(3) 0.3132(3) 0.36871(8)
H2 H -0.0417 0.3095 0.3570
N10 N -0.2638(3) 0.3674(5) 0.42088(11)
O1 O 0.5183(3) 0.5971(3) 0.23809(7)
O2 O 0.4377(3) 0.6892(3) 0.27695(9)
O3 O 0.5047(3) 0.3814(3) 0.26650(7)
O4 O 0.4778(3) 0.4764(3) 0.31067(7)
O5 O 0.3116(3) 0.7984(3) 0.18399(8)
O6 O 0.1452(3) 0.7297(4) 0.17064(9)
O7 O 0.3813(2) 0.5632(3) 0.18830(8)
O8 O 0.2121(3) 0.4926(3) 0.18411(8)
O13 O 0.3570(3) 0.3047(4) 0.20140(11)
C1 C 0.7808(4) 0.3955(4) 0.24121(10)
H4 H 0.7499 0.3797 0.2599
C2 C 0.8935(4) 0.4067(5) 0.24107(11)
H5 H 0.9366 0.3979 0.2593
C3 C 0.9398(4) 0.4306(4) 0.21380(10)
H6 H 1.0147 0.4402 0.2133
C4 C 0.8730(3) 0.4404(4) 0.18658(9)
C5 C 0.9101(3) 0.4633(4) 0.15643(9)
C6 C 0.8412(3) 0.4687(4) 0.13028(9)
C7 C 0.7264(3) 0.4548(4) 0.13190(9)
C8 C 0.6509(4) 0.4616(5) 0.10621(10)
H7 H 0.6744 0.4753 0.0865
C9 C 0.5430(4) 0.4480(5) 0.11073(11)
H8 H 0.4919 0.4515 0.0941
C10 C 0.5104(4) 0.4288(4) 0.14018(10)
H9 H 0.4364 0.4201 0.1428
C11 C 0.6866(3) 0.4351(4) 0.16110(9)
C12 C 0.7606(3) 0.4272(4) 0.18866(9)
C13 C 1.0018(3) 0.4982(4) 0.11538(10)
C14 C 1.2002(4) 0.4980(5) 0.10708(11)
H10 H 1.2118 0.4719 0.1275
C15 C 1.0941(3) 0.5191(4) 0.09610(10)
C16 C 1.0784(4) 0.5565(5) 0.06567(11)
H11 H 1.0085 0.5717 0.0573
C17 C 1.1663(4) 0.5711(5) 0.04780(12)
H12 H 1.1570 0.5947 0.0272
C18 C 1.2683(4) 0.5500(5) 0.06139(13)
H13 H 1.3278 0.5626 0.0495
C19 C 0.5185(4) 0.2585(5) 0.37996(11)
H14 H 0.5928 0.2484 0.3780
C20 C 0.4818(4) 0.2830(5) 0.40924(11)
H15 H 0.5307 0.2870 0.4264
C21 C 0.3732(4) 0.3009(5) 0.41236(10)
H16 H 0.3470 0.3177 0.4316
C22 C 0.3022(3) 0.2935(4) 0.38603(10)
C23 C 0.1870(3) 0.3092(4) 0.38653(9)
C24 C 0.1211(3) 0.2943(4) 0.35990(10)
C25 C 0.1604(3) 0.2681(4) 0.33057(9)
C26 C 0.0968(4) 0.2544(4) 0.30276(10)
H17 H 0.0215 0.2612 0.3026
C27 C 0.1463(4) 0.2312(4) 0.27602(10)
H18 H 0.1051 0.2225 0.2575
C28 C 0.2584(4) 0.2206(4) 0.27676(10)
H19 H 0.2914 0.2055 0.2584
C29 C 0.2743(3) 0.2546(4) 0.32947(9)
C30 C 0.3454(3) 0.2673(4) 0.35762(9)
C31 C 0.0245(3) 0.3391(4) 0.39961(10)
C32 C -0.1759(4) 0.3503(5) 0.40519(12)
H20 H -0.1858 0.3278 0.3845
C33 C -0.0703(4) 0.3636(4) 0.41751(10)
C34 C -0.0569(4) 0.3965(5) 0.44839(11)
H21 H 0.0124 0.4062 0.4577
C35 C -0.1473(5) 0.4146(5) 0.46514(13)
H22 H -0.1402 0.4371 0.4859
C36 C -0.2479(5) 0.3987(5) 0.45045(14)
H23 H -0.3086 0.4105 0.4619
C55 C 0.4811(3) 0.6000(4) 0.26417(10)
C56 C 0.4884(3) 0.4787(4) 0.28244(11)
C57 C 0.2416(4) 0.7143(5) 0.17926(11)
C58 C 0.2805(4) 0.5786(5) 0.18460(10)
H34 H 0.335(5) 0.230(2) 0.2008(14)
H35 H 0.309(4) 0.359(4) 0.1967(13)
Cd1A Cd 0.47720(3) -0.10593(3) 0.285202(7)
Cd1A_2 Cd 0.47720(3) 0.89407(3) 0.285202(7)
Cd2A Cd 0.48829(3) -0.26425(3) 0.195500(7)
Cd2A_2 Cd 0.48829(3) 0.73575(3) 0.195500(7)
N1A N 0.2844(3) -0.0934(3) 0.28422(8)
N2A N 0.4216(3) -0.0780(3) 0.33501(8)
N3A N 0.1011(3) -0.0094(3) 0.39547(8)
N4A N -0.0122(3) -0.0174(3) 0.35346(8)
H1A H -0.0717 -0.0154 0.3421
N5A N -0.2867(3) 0.0125(5) 0.40956(10)
N6A N 0.5469(3) -0.2508(3) 0.14500(8)
N7A N 0.6791(3) -0.2688(3) 0.19723(8)
N8A N 0.8737(3) -0.1615(4) 0.08882(8)
N9A N 0.9830(3) -0.1868(3) 0.13129(8)
H2A H 1.0417 -0.1905 0.1430
N10A N 1.2638(3) -0.1326(5) 0.07912(11)
O1A O 0.4817(3) 0.0971(3) 0.26191(7)
O1_2 O 0.5183(3) -0.4029(3) 0.23809(7)
O2A O 0.5623(3) 0.1892(3) 0.22305(9)
O2_2 O 0.4377(3) -0.3108(3) 0.27695(9)
O3A O 0.4953(3) -0.1186(3) 0.23350(7)
O4A O 0.5222(3) -0.0236(3) 0.18933(7)
O5A O 0.6884(3) 0.2984(3) 0.31601(8)
O5_2 O 0.3116(3) -0.2016(3) 0.18399(8)
O6A O 0.8548(3) 0.2297(4) 0.32936(9)
O7A O 0.6187(2) 0.0632(3) 0.31170(8)
O7_2 O 0.3813(2) -0.4368(3) 0.18830(8)
O8A O 0.7879(3) -0.0074(3) 0.31589(8)
O13A O 0.6430(3) -0.1953(4) 0.29860(11)
C1A C 0.2192(4) -0.1045(4) 0.25879(10)
H4A H 0.2501 -0.1203 0.2401
C2A C 0.1065(4) -0.0933(5) 0.25893(11)
H5A H 0.0634 -0.1021 0.2407
C3A C 0.0602(4) -0.0694(4) 0.28620(10)
H6A H -0.0147 -0.0598 0.2867
C4A C 0.1270(3) -0.0596(4) 0.31342(9)
C5A C 0.0899(3) -0.0367(4) 0.34357(9)
C6A C 0.1588(3) -0.0313(4) 0.36972(9)
C7A C 0.2736(3) -0.0452(4) 0.36810(9)
C8A C 0.3491(4) -0.0384(5) 0.39379(10)
H7A H 0.3256 -0.0247 0.4135
C9A C 0.4570(4) -0.0520(5) 0.38927(11)
H8A H 0.5081 -0.0485 0.4059
C10A C 0.4896(4) -0.0712(4) 0.35982(10)
H9A H 0.5636 -0.0799 0.3572
C11A C 0.3134(3) -0.0649(4) 0.33890(9)
C12A C 0.2394(3) -0.0728(4) 0.31134(9)
C13A C -0.0018(3) -0.0018(4) 0.38462(10)
C14A C -0.2002(4) -0.0020(5) 0.39292(11)
H10A H -0.2118 -0.0281 0.3725
C15A C -0.0941(3) 0.0191(4) 0.40390(10)
C16A C -0.0784(4) 0.0565(5) 0.43433(11)
H11A H -0.0085 0.0717 0.4427
C17A C -0.1663(4) 0.0711(5) 0.45220(12)
H12A H -0.1570 0.0947 0.4728
C18A C -0.2683(4) 0.0500(5) 0.43861(13)
H13A H -0.3278 0.0626 0.4505
C19A C 0.4815(4) -0.2415(5) 0.12004(11)
H14A H 0.4072 -0.2516 0.1220
C20A C 0.5182(4) -0.2170(5) 0.09076(11)
H15A H 0.4693 -0.2130 0.0736
C21A C 0.6268(4) -0.1991(5) 0.08764(10)
H16A H 0.6530 -0.1823 0.0684
C22A C 0.6978(3) -0.2065(4) 0.11397(10)
C23A C 0.8130(3) -0.1908(4) 0.11347(9)
C24A C 0.8789(3) -0.2057(4) 0.14010(10)
C25A C 0.8396(3) -0.2319(4) 0.16943(9)
C26A C 0.9032(4) -0.2456(4) 0.19724(10)
H17A H 0.9785 -0.2388 0.1974
C27A C 0.8537(4) -0.2688(4) 0.22398(10)
H18A H 0.8949 -0.2775 0.2425
C28A C 0.7416(4) -0.2794(4) 0.22324(10)
H19A H 0.7086 -0.2945 0.2416
C29A C 0.7257(3) -0.2454(4) 0.17053(9)
C30A C 0.6546(3) -0.2327(4) 0.14238(9)
C31A C 0.9755(3) -0.1609(4) 0.10039(10)
C32A C 1.1759(4) -0.1497(5) 0.09481(12)
H20A H 1.1858 -0.1722 0.1155
C33A C 1.0703(4) -0.1364(4) 0.08249(10)
C34A C 1.0569(4) -0.1035(5) 0.05161(11)
H21A H 0.9876 -0.0938 0.0423
C35A C 1.1473(5) -0.0854(5) 0.03486(13)
H22A H 1.1402 -0.0629 0.0141
C36A C 1.2479(5) -0.1013(5) 0.04955(14)
H23A H 1.3086 -0.0895 0.0381
C55A C 0.5189(3) 0.1000(4) 0.23583(10)
C56A C 0.5116(3) -0.0213(4) 0.21756(11)
C57A C 0.7584(4) 0.2143(5) 0.32074(11)
C58A C 0.7195(4) 0.0786(5) 0.31540(10)
H34A H 0.665(5) -0.270(2) 0.2992(14)
H35A H 0.691(4) -0.141(4) 0.3033(13)
Cd3 Cd 0.43308(3) 0.24962(3) 0.518890(8)
N11 N 0.4117(3) 0.3105(4) 0.56933(8)
N12 N 0.2491(3) 0.2423(3) 0.52794(9)
N13 N 0.1327(3) 0.3693(4) 0.64483(9)
N14 N -0.0006(3) 0.3211(4) 0.60998(9)
H3 H -0.0651 0.3080 0.6020
N15 N -0.0836(4) 0.4213(5) 0.71607(11)
O9 O 0.4036(3) 0.0994(3) 0.48198(7)
O10 O 0.4517(3) -0.0898(3) 0.46872(7)
O11 O 0.5775(3) 0.3831(3) 0.51853(8)
O12 O 0.6180(3) 0.5811(3) 0.51148(7)
C37 C 0.4927(4) 0.3491(5) 0.58896(11)
H24 H 0.5632 0.3503 0.5824
C38 C 0.4750(4) 0.3868(5) 0.61856(12)
H25 H 0.5329 0.4155 0.6314
C39 C 0.3737(4) 0.3827(5) 0.62929(11)
H26 H 0.3618 0.4061 0.6495
C40 C 0.2878(4) 0.3425(4) 0.60921(10)
C41 C 0.1755(4) 0.3398(4) 0.61699(10)
C42 C 0.0934(4) 0.3096(4) 0.59528(11)
C43 C 0.1129(4) 0.2764(4) 0.56431(11)
C44 C 0.0334(4) 0.2476(5) 0.54128(12)
H27 H -0.0395 0.2487 0.5457
C45 C 0.0614(5) 0.2181(5) 0.51247(13)
H28 H 0.0084 0.2002 0.4969
C46 C 0.1719(4) 0.2150(5) 0.50647(12)
H29 H 0.1915 0.1931 0.4868
C47 C 0.2214(4) 0.2729(4) 0.55651(10)
C48 C 0.3095(4) 0.3089(4) 0.57911(10)
C49 C 0.0255(4) 0.3571(5) 0.63954(11)
C50 C -0.0187(4) 0.4030(6) 0.69307(13)
H30 H 0.0558 0.4067 0.6977
C51 C -0.0537(4) 0.3787(4) 0.66264(11)
C52 C -0.1656(4) 0.3759(5) 0.65638(13)
H31 H -0.1943 0.3605 0.6364
C53 C -0.2325(4) 0.3959(5) 0.67967(14)
H32 H -0.3075 0.3946 0.6757
C54 C -0.1899(5) 0.4179(5) 0.70877(14)
H33 H -0.2373 0.4312 0.7244
C59 C 0.4586(4) 0.0029(5) 0.48569(10)
C60 C 0.5559(4) 0.4895(5) 0.50876(10)
Cd3B Cd 0.56692(3) -0.24962(3) 0.481110(8)
Cd3B_2 Cd 0.56692(3) 0.75038(3) 0.481110(8)
N11B N 0.5883(3) -0.3105(4) 0.43067(8)
N12B N 0.7509(3) -0.2423(3) 0.47206(9)
N13B N 0.8673(3) -0.3693(4) 0.35517(9)
N14B N 1.0006(3) -0.3211(4) 0.39002(9)
H3B H 1.0651 -0.3080 0.3980
N15B N 1.0836(4) -0.4213(5) 0.28393(11)
O9B O 0.5964(3) -0.0994(3) 0.51802(7)
O10B O 0.5483(3) 0.0898(3) 0.53128(7)
O11B O 0.4225(3) 0.6169(3) 0.48147(8)
O11B_2 O 0.4225(3) -0.3831(3) 0.48147(8)
O12B O 0.3820(3) 0.4189(3) 0.48852(7)
O12_2 O 0.6180(3) -0.4189(3) 0.51148(7)
C37B C 0.5073(4) -0.3491(5) 0.41104(11)
H24B H 0.4368 -0.3503 0.4176
C38B C 0.5250(4) -0.3868(5) 0.38144(12)
H25B H 0.4671 -0.4155 0.3686
C39B C 0.6263(4) -0.3827(5) 0.37071(11)
H26B H 0.6382 -0.4061 0.3505
C40B C 0.7122(4) -0.3425(4) 0.39079(10)
C41B C 0.8245(4) -0.3398(4) 0.38301(10)
C42B C 0.9066(4) -0.3096(4) 0.40472(11)
C43B C 0.8871(4) -0.2764(4) 0.43569(11)
C44B C 0.9666(4) -0.2476(5) 0.45872(12)
H27B H 1.0395 -0.2487 0.4543
C45B C 0.9386(5) -0.2181(5) 0.48753(13)
H28B H 0.9916 -0.2002 0.5031
C46B C 0.8281(4) -0.2150(5) 0.49353(12)
H29B H 0.8085 -0.1931 0.5132
C47B C 0.7786(4) -0.2729(4) 0.44349(10)
C48B C 0.6905(4) -0.3089(4) 0.42089(10)
C49B C 0.9745(4) -0.3571(5) 0.36046(11)
C50B C 1.0187(4) -0.4030(6) 0.30693(13)
H30B H 0.9442 -0.4067 0.3023
C51B C 1.0537(4) -0.3787(4) 0.33736(11)
C52B C 1.1656(4) -0.3759(5) 0.34362(13)
H31B H 1.1943 -0.3605 0.3636
C53B C 1.2325(4) -0.3959(5) 0.32033(14)
H32B H 1.3075 -0.3946 0.3243
C54B C 1.1899(5) -0.4179(5) 0.29123(14)
H33B H 1.2373 -0.4312 0.2756
C59B C 0.5414(4) -0.0029(5) 0.51431(10)
C60B C 0.4441(4) 0.5105(5) 0.49124(10)
O14 O 0.2654(3) 0.0643(4) 0.19761(9)
H36 H 0.282(5) -0.0120(18) 0.1957(13)
H37 H 0.220(4) 0.088(5) 0.1834(9)
O15 O 0.1932(4) 0.5060(5) 0.45783(11)
H38 H 0.161(4) 0.469(5) 0.4423(9)
H39 H 0.255(2) 0.490(6) 0.4676(12)
O16 O 0.7916(4) 0.2985(6) 0.57950(13)
H42 H 0.799(6) 0.376(2) 0.5749(16)
H43 H 0.755(5) 0.253(5) 0.5667(12)
O17 O 0.8094(4) 0.4446(8) 0.04087(12)
H40 H 0.833(5) 0.481(5) 0.0575(9)
H41 H 0.773(5) 0.512(3) 0.0385(15)
loop_
_geom_bond_atom_site_label_1
_geom_bond_atom_site_label_2
_geom_bond_site_symmetry_1
_geom_bond_site_symmetry_2
Cd1 N1 1_555 1_555
Cd2 N6 1_555 1_555
Cd3 N11 1_555 1_555
N1 C1 1_555 1_555
N2 Cd1 1_555 1_555
N3 C6 1_555 1_555
N4 H1 1_555 1_555
N5 C14 1_555 1_555
N6 C19 1_555 1_555
N7 Cd2 1_555 1_555
N8 C23 1_555 1_555
N9 H2 1_555 1_555
N10 C32 1_555 1_555
N11 C37 1_555 1_555
N12 Cd3 1_555 1_555
N13 C41 1_555 1_555
N14 H3 1_555 1_555
N15 C50 1_555 1_555
O1 Cd1 1_555 1_555
O2 C55 1_555 1_555
O3 Cd1 1_555 1_555
O4 Cd2 1_555 1_555
O5 C57 1_555 1_555
O6 C57 1_555 1_555
O7 Cd1 1_555 1_555
O8 C58 1_555 1_555
O9 Cd3 1_555 1_555
O10 C59 1_555 1_555
O11 Cd3 1_555 1_555
O12 C60 1_555 1_555
O13 Cd1 1_555 1_555
O14 H36 1_555 1_555
O15 H38 1_555 1_555
O16 H42 1_555 1_555
O17 H40 1_555 1_555
C1 H4 1_555 1_555
C2 C1 1_555 1_555
H5 C2 1_555 1_555
C3 C2 1_555 1_555
H6 C3 1_555 1_555
C4 C3 1_555 1_555
C5 N4 1_555 1_555
C6 C5 1_555 1_555
C7 C6 1_555 1_555
C8 C7 1_555 1_555
H7 C8 1_555 1_555
C9 C8 1_555 1_555
H8 C9 1_555 1_555
C10 N2 1_555 1_555
H9 C10 1_555 1_555
C11 N2 1_555 1_555
C12 N1 1_555 1_555
C13 N3 1_555 1_555
C14 H10 1_555 1_555
C15 C13 1_555 1_555
C16 C15 1_555 1_555
H11 C16 1_555 1_555
C17 C16 1_555 1_555
H12 C17 1_555 1_555
C18 N5 1_555 1_555
H13 C18 1_555 1_555
C19 H14 1_555 1_555
C20 C19 1_555 1_555
H15 C20 1_555 1_555
C21 C20 1_555 1_555
H16 C21 1_555 1_555
C22 C21 1_555 1_555
C23 C22 1_555 1_555
C24 N9 1_555 1_555
C25 C24 1_555 1_555
C26 C25 1_555 1_555
H17 C26 1_555 1_555
C27 C26 1_555 1_555
H18 C27 1_555 1_555
C28 N7 1_555 1_555
H19 C28 1_555 1_555
C29 N7 1_555 1_555
C30 N6 1_555 1_555
C31 N8 1_555 1_555
C32 H20 1_555 1_555
C33 C31 1_555 1_555
C34 C33 1_555 1_555
H21 C34 1_555 1_555
C35 C34 1_555 1_555
H22 C35 1_555 1_555
C36 N10 1_555 1_555
H23 C36 1_555 1_555
C37 H24 1_555 1_555
C38 C37 1_555 1_555
H25 C38 1_555 1_555
C39 C38 1_555 1_555
H26 C39 1_555 1_555
C40 C39 1_555 1_555
C41 C40 1_555 1_555
C42 N14 1_555 1_555
C43 C42 1_555 1_555
C44 C43 1_555 1_555
H27 C44 1_555 1_555
C45 C44 1_555 1_555
H28 C45 1_555 1_555
C46 N12 1_555 1_555
H29 C46 1_555 1_555
C47 N12 1_555 1_555
C48 N11 1_555 1_555
C49 N13 1_555 1_555
C50 H30 1_555 1_555
C51 C49 1_555 1_555
C52 C51 1_555 1_555
H31 C52 1_555 1_555
C53 C52 1_555 1_555
H32 C53 1_555 1_555
C54 N15 1_555 1_555
H33 C54 1_555 1_555
C55 O1 1_555 1_555
C56 O3 1_555 1_555
C57 C58 1_555 1_555
C58 O7 1_555 1_555
C59 O9 1_555 1_555
C60 O11 1_555 1_555
H34 O13 1_555 1_555
H35 O13 1_555 1_555
H37 O14 1_555 1_555
H39 O15 1_555 1_555
H41 O17 1_555 1_555
H43 O16 1_555 1_555
Cd1A N1A 1_555 1_555
Cd1A_2 O2 1_555 1_555
Cd2A N6A 1_555 1_555
Cd2A_2 O1 1_555 1_555
Cd3B O10 1_555 1_555
Cd3B_2 O12 1_555 1_555
N1A C1A 1_555 1_555
N2A Cd1A 1_555 1_555
N3A C6A 1_555 1_555
N4A H1A 1_555 1_555
N5A C14A 1_555 1_555
N6A C19A 1_555 1_555
N7A Cd2A 1_555 1_555
N8A C23A 1_555 1_555
N9A H2A 1_555 1_555
N10A C32A 1_555 1_555
N11B Cd3B 1_555 1_555
N12B Cd3B 1_555 1_555
N13B C41B 1_555 1_555
N14B H3B 1_555 1_555
N15B C50B 1_555 1_555
O1A Cd2 1_555 1_555
O1_2 Cd2A 1_555 1_555
O2A Cd1 1_555 1_555
O2_2 Cd1A 1_555 1_555
O3A Cd1A 1_555 1_555
O4A Cd2A 1_555 1_555
O5A Cd2 1_555 1_555
O5_2 Cd2A 1_555 1_555
O6A C57A 1_555 1_555
O7A Cd2 1_555 1_555
O7_2 Cd2A 1_555 1_555
O8A C58A 1_555 1_555
O9B Cd3B 1_555 1_555
O10B Cd3 1_555 1_555
O11B Cd3B_2 1_555 1_555
O11B_2 Cd3B 1_555 1_555
O12B Cd3 1_555 1_555
O12_2 Cd3B 1_555 1_555
O13A Cd1A 1_555 1_555
C1A H4A 1_555 1_555
C2A C1A 1_555 1_555
H5A C2A 1_555 1_555
C3A C2A 1_555 1_555
H6A C3A 1_555 1_555
C4A C3A 1_555 1_555
C5A N4A 1_555 1_555
C6A C5A 1_555 1_555
C7A C6A 1_555 1_555
C8A C7A 1_555 1_555
H7A C8A 1_555 1_555
C9A C8A 1_555 1_555
H8A C9A 1_555 1_555
C10A N2A 1_555 1_555
H9A C10A 1_555 1_555
C11A N2A 1_555 1_555
C12A N1A 1_555 1_555
C13A N3A 1_555 1_555
C14A H10A 1_555 1_555
C15A C13A 1_555 1_555
C16A C15A 1_555 1_555
H11A C16A 1_555 1_555
C17A C16A 1_555 1_555
H12A C17A 1_555 1_555
C18A N5A 1_555 1_555
H13A C18A 1_555 1_555
C19A H14A 1_555 1_555
C20A C19A 1_555 1_555
H15A C20A 1_555 1_555
C21A C20A 1_555 1_555
H16A C21A 1_555 1_555
C22A C21A 1_555 1_555
C23A C22A 1_555 1_555
C24A N9A 1_555 1_555
C25A C24A 1_555 1_555
C26A C25A 1_555 1_555
H17A C26A 1_555 1_555
C27A C26A 1_555 1_555
H18A C27A 1_555 1_555
C28A N7A 1_555 1_555
H19A C28A 1_555 1_555
C29A N7A 1_555 1_555
C30A N6A 1_555 1_555
C31A N8A 1_555 1_555
C32A H20A 1_555 1_555
C33A C31A 1_555 1_555
C34A C33A 1_555 1_555
H21A C34A 1_555 1_555
C35A C34A 1_555 1_555
H22A C35A 1_555 1_555
C36A N10A 1_555 1_555
H23A C36A 1_555 1_555
C37B N11B 1_555 1_555
H24B C37B 1_555 1_555
C38B C37B 1_555 1_555
H25B C38B 1_555 1_555
C39B C38B 1_555 1_555
H26B C39B 1_555 1_555
C40B C39B 1_555 1_555
C41B C40B 1_555 1_555
C42B N14B 1_555 1_555
C43B C42B 1_555 1_555
C44B C43B 1_555 1_555
H27B C44B 1_555 1_555
C45B C44B 1_555 1_555
H28B C45B 1_555 1_555
C46B N12B 1_555 1_555
H29B C46B 1_555 1_555
C47B N12B 1_555 1_555
C48B N11B 1_555 1_555
C49B N13B 1_555 1_555
C50B H30B 1_555 1_555
C51B C49B 1_555 1_555
C52B C51B 1_555 1_555
H31B C52B 1_555 1_555
C53B C52B 1_555 1_555
H32B C53B 1_555 1_555
C54B N15B 1_555 1_555
H33B C54B 1_555 1_555
C55A O1A 1_555 1_555
C56A O3A 1_555 1_555
C57A O5A 1_555 1_555
C58A O7A 1_555 1_555
C59B C59 1_555 1_555
C60B C60 1_555 1_555
H34A O13A 1_555 1_555
H35A O13A 1_555 1_555
Cd2 O3 1_555 1_555
N4 C13 1_555 1_555
N9 C31 1_555 1_555
N14 C49 1_555 1_555
O4 C56 1_555 1_555
O5 Cd2A_2 1_555 1_555
O7 Cd2A_2 1_555 1_555
C4 C5 1_555 1_555
C4 C12 1_555 1_555
C7 C11 1_555 1_555
C9 C10 1_555 1_555
C11 C12 1_555 1_555
C14 C15 1_555 1_555
C17 C18 1_555 1_555
C22 C30 1_555 1_555
C23 C24 1_555 1_555
C25 C29 1_555 1_555
C27 C28 1_555 1_555
C29 C30 1_555 1_555
C32 C33 1_555 1_555
C35 C36 1_555 1_555
C40 C48 1_555 1_555
C41 C42 1_555 1_555
C43 C47 1_555 1_555
C45 C46 1_555 1_555
C47 C48 1_555 1_555
C50 C51 1_555 1_555
C53 C54 1_555 1_555
C55 C56 1_555 1_555
Cd1A O1A 1_555 1_555
Cd1A O7A 1_555 1_555
Cd2A O3A 1_555 1_555
N4A C13A 1_555 1_555
N9A C31A 1_555 1_555
N14B C49B 1_555 1_555
O2A C55A 1_555 1_555
O4A C56A 1_555 1_555
O9B C59B 1_555 1_555
O10B C59B 1_555 1_555
O11B C60B 1_555 1_555
O12B C60B 1_555 1_555
C4A C5A 1_555 1_555
C4A C12A 1_555 1_555
C7A C11A 1_555 1_555
C9A C10A 1_555 1_555
C11A C12A 1_555 1_555
C14A C15A 1_555 1_555
C17A C18A 1_555 1_555
C22A C30A 1_555 1_555
C23A C24A 1_555 1_555
C25A C29A 1_555 1_555
C27A C28A 1_555 1_555
C29A C30A 1_555 1_555
C32A C33A 1_555 1_555
C35A C36A 1_555 1_555
C40B C48B 1_555 1_555
C41B C42B 1_555 1_555
C43B C47B 1_555 1_555
C45B C46B 1_555 1_555
C47B C48B 1_555 1_555
C50B C51B 1_555 1_555
C53B C54B 1_555 1_555
C55A C56A 1_555 1_555
C57A C58A 1_555 1_555

#END
