
#######################################################################
#
#                 Cambridge Crystallographic Data Centre
#                                CCDC 
#
#######################################################################
#
# If this CIF has been generated from an entry in the Cambridge 
# Structural Database, then it will include bibliographic, chemical, 
# crystal, experimental, refinement or atomic coordinate data resulting 
# from the CCDC's data processing and validation procedures.
#
#######################################################################

data_NULHEI
_symmetry_cell_setting           monoclinic
_symmetry_space_group_name_H-M   'C 2/c'
_symmetry_Int_Tables_number      15
_space_group_name_Hall           '-C 2yn'
loop_
_symmetry_equiv_pos_site_id
_symmetry_equiv_pos_as_xyz
1 x,y,z
2 -x,y,1/2-z
3 1/2+x,1/2+y,z
4 1/2-x,1/2+y,1/2-z
5 -x,-y,-z
6 x,-y,1/2+z
7 1/2-x,1/2-y,-z
8 1/2+x,1/2-y,1/2+z
_cell_length_a                   21.9372(15)
_cell_length_b                   8.6546(4)
_cell_length_c                   23.0491(17)
_cell_angle_alpha                90
_cell_angle_beta                 98.753(5)
_cell_angle_gamma                90
_cell_volume                     4325.08
loop_
_atom_site_label
_atom_site_type_symbol
_atom_site_fract_x
_atom_site_fract_y
_atom_site_fract_z
Sm1 Sm 0.190660(7) -0.196560(19) 0.245380(7)
S1 S -0.10538(4) -0.13014(10) 0.40502(4)
P1 P 0.15458(4) -0.57061(10) 0.17384(4)
N1 N 0.05657(14) -0.7001(3) 0.22387(14)
H1 H 0.0850 -0.6988 0.2570
P2 P 0.31663(4) -0.32950(10) 0.17599(4)
N2 N 0.26804(14) -0.3231(3) 0.05766(12)
H2 H 0.2330 -0.3064 0.0734
O1 O 0.07904(13) -0.2161(3) 0.27666(12)
O2 O 0.16106(13) -0.2675(3) 0.34115(13)
O3 O 0.15273(14) -0.3313(4) 0.44713(14)
H3 H 0.1697 -0.3213 0.4180
O4 O -0.10470(14) 0.0092(4) 0.43979(13)
O5 O -0.12449(12) -0.1016(3) 0.34228(11)
O6 O -0.14205(12) -0.2523(3) 0.42798(12)
O7 O 0.21263(12) -0.6566(3) 0.19546(12)
O8 O 0.15405(14) -0.5402(3) 0.10582(11)
H4 H 0.1504 -0.4473 0.0991
O9 O 0.14036(11) -0.4274(3) 0.20528(11)
O10 O 0.25035(12) -0.2818(3) 0.17595(11)
O11 O 0.33946(11) -0.4587(3) 0.21758(11)
O12 O 0.36021(13) -0.1916(3) 0.18140(12)
O13 O 0.24461(13) -0.4633(3) 0.29588(12)
H5 H 0.2153 -0.5092 0.3090
H6 H 0.2684 -0.4311 0.3260
C1 C 0.10277(16) -0.2432(4) 0.32749(16)
C2 C 0.06602(16) -0.2486(4) 0.37706(16)
C3 C 0.09313(19) -0.2915(5) 0.43386(18)
C4 C 0.0580(2) -0.2923(6) 0.47936(19)
H9 H 0.0758 -0.3235 0.5167
C5 C -0.0028(2) -0.2472(7) 0.46943(19)
H10 H -0.0259 -0.2475 0.5002
C6 C -0.03027(17) -0.2009(4) 0.41336(17)
C7 C 0.00380(17) -0.2034(4) 0.36711(16)
H11 H -0.0146 -0.1751 0.3296
C8 C 0.08956(17) -0.7049(4) 0.17140(17)
H12 H 0.0600 -0.6825 0.1366
H13 H 0.1046 -0.8091 0.1673
C9 C 0.01631(16) -0.5603(4) 0.22356(16)
H14 H -0.0139 -0.5596 0.1881
H15 H 0.0413 -0.4678 0.2237
C10 C 0.01752(16) -0.8425(4) 0.22447(17)
H16 H -0.0114 -0.8479 0.1882
H17 H 0.0437 -0.9333 0.2266
C11 C 0.31244(17) -0.4108(4) 0.10152(15)
H18 H 0.3531 -0.4079 0.0899
H19 H 0.2996 -0.5180 0.1019
C12 C 0.29329(17) -0.1694(4) 0.04272(16)
H20 H 0.3318 -0.1849 0.0277
H21 H 0.3018 -0.1071 0.0780
C13 C 0.25170(18) -0.4157(4) 0.00273(15)
H22 H 0.2335 -0.5130 0.0121
H23 H 0.2889 -0.4386 -0.0136
Sm1A Sm -0.190660(7) -0.196560(19) 0.254620(7)
Sm1C Sm 0.309340(7) 0.303440(19) 0.254620(7)
Sm1C_2 Sm 0.309340(7) -0.696560(19) 0.254620(7)
Sm1F Sm 0.309340(7) -0.303440(19) -0.245380(7)
Sm1E Sm 0.190660(7) 0.196560(19) -0.254620(7)
Sm1B Sm -0.309340(7) -0.696560(19) 0.245380(7)
S1A S 0.10538(4) -0.13014(10) 0.09498(4)
P1A P -0.15458(4) -0.57061(10) 0.32616(4)
N1A N -0.05657(14) -0.7001(3) 0.27613(14)
H1A H -0.0850 -0.6988 0.2430
P2F P 0.18337(4) -0.17050(10) -0.17599(4)
N2F N 0.23196(14) -0.1769(3) -0.05766(12)
H2F H 0.2670 -0.1936 -0.0734
O1A O -0.07904(13) -0.2161(3) 0.22334(12)
O2A O -0.16106(13) -0.2675(3) 0.15885(13)
O3A O -0.15273(14) -0.3313(4) 0.05287(14)
H3A H -0.1697 -0.3213 0.0820
O4A O 0.10470(14) 0.0092(4) 0.06021(13)
O5A O 0.12449(12) -0.1016(3) 0.15772(11)
O6A O 0.14205(12) -0.2523(3) 0.07202(12)
O7B O -0.28737(12) -0.1566(3) 0.19546(12)
O7C O 0.28737(12) -0.1566(3) 0.30454(12)
O7A O -0.21263(12) -0.6566(3) 0.30454(12)
O8A O -0.15405(14) -0.5402(3) 0.39418(11)
H4A H -0.1504 -0.4473 0.4009
O9A O -0.14036(11) -0.4274(3) 0.29472(11)
O10F O 0.24965(12) -0.2182(3) -0.17595(11)
O10A O -0.25035(12) -0.2818(3) 0.32405(11)
O11F O 0.16054(11) -0.0413(3) -0.21758(11)
O11C O 0.16054(11) 0.0413(3) 0.28242(11)
O11B O -0.16054(11) 0.0413(3) 0.21758(11)
O12F O 0.13979(13) -0.3084(3) -0.18140(12)
O13C O 0.25539(13) 0.0367(3) 0.20412(12)
O13A O -0.24461(13) -0.4633(3) 0.20412(12)
O13B O -0.25539(13) 0.0367(3) 0.29588(12)
H5C H 0.2847 -0.0092 0.1910
H5A H -0.2153 -0.5092 0.1910
H5B H -0.2847 -0.0092 0.3090
H6C H 0.2316 0.0689 0.1740
H6A H -0.2684 -0.4311 0.1740
H6B H -0.2316 0.0689 0.3260
C1A C -0.10277(16) -0.2432(4) 0.17251(16)
C2A C -0.06602(16) -0.2486(4) 0.12294(16)
C3A C -0.09313(19) -0.2915(5) 0.06614(18)
C4A C -0.0580(2) -0.2923(6) 0.02064(19)
H9A H -0.0758 -0.3235 -0.0167
C5A C 0.0028(2) -0.2472(7) 0.03057(19)
H10A H 0.0259 -0.2475 -0.0002
C6A C 0.03027(17) -0.2009(4) 0.08664(17)
C7A C -0.00380(17) -0.2034(4) 0.13289(16)
H11A H 0.0146 -0.1751 0.1704
C8A C -0.08956(17) -0.7049(4) 0.32860(17)
H12A H -0.0600 -0.6825 0.3634
H13A H -0.1046 -0.8091 0.3327
C9A C -0.01631(16) -0.5603(4) 0.27644(16)
H14A H 0.0139 -0.5596 0.3119
H15A H -0.0413 -0.4678 0.2763
C10A C -0.01752(16) -0.8425(4) 0.27553(17)
H16A H 0.0114 -0.8479 0.3118
H17A H -0.0437 -0.9333 0.2734
C11F C 0.18756(17) -0.0892(4) -0.10152(15)
H18F H 0.1469 -0.0921 -0.0899
H19F H 0.2004 0.0180 -0.1019
C12F C 0.20671(17) -0.3306(4) -0.04272(16)
H20F H 0.1682 -0.3151 -0.0277
H21F H 0.1982 -0.3929 -0.0780
C13F C 0.24830(18) -0.0843(4) -0.00273(15)
H22F H 0.2665 0.0130 -0.0121
H23F H 0.2111 -0.0614 0.0136
O14 O 0.28174(18) -0.3462(5) 0.41215(16)
H7 H 0.2996 -0.2612 0.4071
H8 H 0.3134 -0.4030 0.4212
O15 O 0.4399(5) -0.1633(14) 0.0950(5)
loop_
_geom_bond_atom_site_label_1
_geom_bond_atom_site_label_2
_geom_bond_site_symmetry_1
_geom_bond_site_symmetry_2
Sm1 O1 1_555 1_555
S1 O4 1_555 1_555
P1 O7 1_555 1_555
N1 H1 1_555 1_555
P2 O10 1_555 1_555
N2 H2 1_555 1_555
O1 C1 1_555 1_555
O2 Sm1 1_555 1_555
O3 H3 1_555 1_555
O5 S1 1_555 1_555
O6 S1 1_555 1_555
O7 Sm1C_2 1_555 1_555
O8 P1 1_555 1_555
H4 O8 1_555 1_555
O9 Sm1 1_555 1_555
O10 Sm1 1_555 1_555
O11 P2 1_555 1_555
O12 P2 1_555 1_555
O13 Sm1 1_555 1_555
H5 O13 1_555 1_555
H6 O13 1_555 1_555
O14 H7 1_555 1_555
H8 O14 1_555 1_555
C1 O2 1_555 1_555
C2 C1 1_555 1_555
C3 O3 1_555 1_555
C4 C3 1_555 1_555
H9 C4 1_555 1_555
C5 C4 1_555 1_555
H10 C5 1_555 1_555
C6 S1 1_555 1_555
C7 C2 1_555 1_555
H11 C7 1_555 1_555
C8 P1 1_555 1_555
H12 C8 1_555 1_555
H13 C8 1_555 1_555
C9 N1 1_555 1_555
H14 C9 1_555 1_555
H15 C9 1_555 1_555
C10 N1 1_555 1_555
H16 C10 1_555 1_555
H17 C10 1_555 1_555
C11 P2 1_555 1_555
H18 C11 1_555 1_555
H19 C11 1_555 1_555
C12 N2 1_555 1_555
H20 C12 1_555 1_555
H21 C12 1_555 1_555
C13 N2 1_555 1_555
H22 C13 1_555 1_555
H23 C13 1_555 1_555
Sm1A O5 1_555 1_555
Sm1C O13C 1_555 1_555
Sm1C_2 O11 1_555 1_555
Sm1F O10F 1_555 1_555
Sm1E O11F 1_555 1_555
Sm1B O7A 1_555 1_555
S1A O4A 1_555 1_555
P1A O7A 1_555 1_555
N1A H1A 1_555 1_555
P2F O10F 1_555 1_555
N2F H2F 1_555 1_555
O1A Sm1A 1_555 1_555
O2A Sm1A 1_555 1_555
O3A H3A 1_555 1_555
O5A Sm1 1_555 1_555
O6A S1A 1_555 1_555
O7B Sm1A 1_555 1_555
O7C Sm1 1_555 1_555
O8A P1A 1_555 1_555
H4A O8A 1_555 1_555
O9A Sm1A 1_555 1_555
O10A Sm1A 1_555 1_555
O11F P2F 1_555 1_555
O11C Sm1 1_555 1_555
O11B Sm1A 1_555 1_555
O12F P2F 1_555 1_555
O13C Sm1 1_555 1_555
O13A Sm1A 1_555 1_555
O13B Sm1A 1_555 1_555
H5C O13C 1_555 1_555
H5A O13A 1_555 1_555
H5B O13B 1_555 1_555
H6C O13C 1_555 1_555
H6A O13A 1_555 1_555
H6B O13B 1_555 1_555
C1A O1A 1_555 1_555
C2A C1A 1_555 1_555
C3A O3A 1_555 1_555
C4A C3A 1_555 1_555
H9A C4A 1_555 1_555
C5A C4A 1_555 1_555
H10A C5A 1_555 1_555
C6A S1A 1_555 1_555
C7A C2A 1_555 1_555
H11A C7A 1_555 1_555
C8A P1A 1_555 1_555
H12A C8A 1_555 1_555
H13A C8A 1_555 1_555
C9A C9 1_555 1_555
H14A C9A 1_555 1_555
H15A C9A 1_555 1_555
C10A C10 1_555 1_555
H16A C10A 1_555 1_555
H17A C10A 1_555 1_555
C11F P2F 1_555 1_555
H18F C11F 1_555 1_555
H19F C11F 1_555 1_555
C12F C13 1_555 1_555
H20F C12F 1_555 1_555
H21F C12F 1_555 1_555
C13F C12 1_555 1_555
H22F C13F 1_555 1_555
H23F C13F 1_555 1_555
P1 O9 1_555 1_555
N1 C8 1_555 1_555
N2 C11 1_555 1_555
O13 Sm1C_2 1_555 1_555
C2 C3 1_555 1_555
C5 C6 1_555 1_555
C6 C7 1_555 1_555
Sm1B O13A 1_555 1_555
S1A O5A 1_555 1_555
P1A O9A 1_555 1_555
N1A C8A 1_555 1_555
N1A C9A 1_555 1_555
N1A C10A 1_555 1_555
N2F C11F 1_555 1_555
N2F C12F 1_555 1_555
N2F C13F 1_555 1_555
O2A C1A 1_555 1_555
C2A C3A 1_555 1_555
C5A C6A 1_555 1_555
C6A C7A 1_555 1_555

#END
