
#######################################################################
#
#                 Cambridge Crystallographic Data Centre
#                                CCDC 
#
#######################################################################
#
# If this CIF has been generated from an entry in the Cambridge 
# Structural Database, then it will include bibliographic, chemical, 
# crystal, experimental, refinement or atomic coordinate data resulting 
# from the CCDC's data processing and validation procedures.
#
#######################################################################

data_NULLEN
_symmetry_cell_setting           orthorhombic
_symmetry_space_group_name_H-M   'P n 21 a'
_symmetry_Int_Tables_number      33
_space_group_name_Hall           'P -2ac -2n'
loop_
_symmetry_equiv_pos_site_id
_symmetry_equiv_pos_as_xyz
1 x,y,z
2 -x,1/2+y,-z
3 1/2-x,1/2+y,1/2+z
4 1/2+x,y,1/2-z
_cell_length_a                   8.889(5)
_cell_length_b                   7.407(5)
_cell_length_c                   30.467(5)
_cell_angle_alpha                90
_cell_angle_beta                 90
_cell_angle_gamma                90
_cell_volume                     2005.97
loop_
_atom_site_label
_atom_site_type_symbol
_atom_site_fract_x
_atom_site_fract_y
_atom_site_fract_z
Mn1 Mn 0.43313(9) 0.21512(19) 0.20237(3)
O1 O 0.6675(5) 0.2130(14) 0.18456(13)
H1 H 0.679(7) 0.213(14) 0.1566(7)
H2 H 0.717(7) 0.299(9) 0.196(2)
O2 O 0.3912(5) 0.2076(12) 0.13382(13)
C1 C 0.4708(7) 0.2062(16) 0.10023(19)
O3 O 0.6111(6) 0.2333(18) 0.10025(17)
C2 C 0.3948(7) 0.2244(16) 0.05656(19)
C3 C 0.3906(12) 0.3814(15) 0.0346(3)
H3 H 0.4319 0.4843 0.0473
C4 C 0.3243(14) 0.3927(19) -0.0074(3)
H4 H 0.3202 0.5037 -0.0216
C5 C 0.2688(13) 0.251(2) -0.0265(4)
H5 H 0.2283 0.2631 -0.0545
C6 C 0.2673(12) 0.087(2) -0.0077(5)
H6 H 0.2305 -0.0136 -0.0227
C7 C 0.3244(12) 0.0710(13) 0.0362(3)
N1 N 0.3132(12) -0.0989(13) 0.0573(4)
O4 O 0.4134(13) -0.1420(13) 0.0850(3)
O5 O 0.2237(14) -0.2065(14) 0.0462(5)
O6 O 0.4530(4) 0.2138(11) 0.27338(12)
C8 C 0.5713(6) 0.2207(18) 0.29616(17)
O7 O 0.6980(4) 0.2198(12) 0.28089(13)
C9 C 0.5457(6) 0.2277(16) 0.3451(2)
C10 C 0.5682(11) 0.3995(15) 0.3652(3)
H7 H 0.6029 0.4968 0.3488
C11 C 0.5372(10) 0.4195(17) 0.4102(4)
H8 H 0.5469 0.5323 0.4233
C12 C 0.4933(14) 0.2760(19) 0.4347(4)
H9 H 0.4765 0.2914 0.4646
C13 C 0.4732(12) 0.1072(18) 0.4161(3)
H10 H 0.4443 0.0083 0.4329
C14 C 0.4981(10) 0.0921(14) 0.3712(3)
N2 N 0.4806(8) -0.0862(10) 0.3518(3)
O8 O 0.5516(9) -0.1279(10) 0.3196(3)
O9 O 0.3831(14) -0.1909(13) 0.3679(4)
N3 N 0.4395(8) -0.0939(13) 0.2062(2)
C15 C 0.3565(9) -0.2013(12) 0.2339(3)
H11 H 0.3007 -0.1430 0.2555
C16 C 0.5202(12) -0.3719(13) 0.1770(3)
H12 H 0.5856 -0.4309 0.1580
N4 N 0.4331(7) -0.4712(11) 0.20450(19)
C17 C 0.3480(13) -0.3859(12) 0.2328(3)
H13 H 0.2838 -0.4486 0.2514
C18 C 0.5145(12) -0.1881(12) 0.1765(3)
H14 H 0.5654 -0.1264 0.1545
Mn1_2 Mn 0.43313(9) -0.78488(19) 0.20237(3)
Mn1C Mn 0.93313(9) 0.21512(19) 0.29763(3)
O7C O 0.1980(4) 0.2198(12) 0.21911(13)
N4_2 N 0.4331(7) 0.5288(11) 0.20450(19)
loop_
_geom_bond_atom_site_label_1
_geom_bond_atom_site_label_2
_geom_bond_site_symmetry_1
_geom_bond_site_symmetry_2
Mn1 O1 1_555 1_555
O1 H1 1_555 1_555
H2 O1 1_555 1_555
O2 Mn1 1_555 1_555
C1 O2 1_555 1_555
O3 C1 1_555 1_555
C2 C1 1_555 1_555
C3 C2 1_555 1_555
H3 C3 1_555 1_555
C4 C3 1_555 1_555
H4 C4 1_555 1_555
C5 C4 1_555 1_555
H5 C5 1_555 1_555
C6 C5 1_555 1_555
H6 C6 1_555 1_555
C7 C2 1_555 1_555
N1 C7 1_555 1_555
O4 N1 1_555 1_555
O5 N1 1_555 1_555
O6 Mn1 1_555 1_555
C8 O6 1_555 1_555
O7 C8 1_555 1_555
C9 C8 1_555 1_555
C10 C9 1_555 1_555
H7 C10 1_555 1_555
C11 C10 1_555 1_555
H8 C11 1_555 1_555
C12 C11 1_555 1_555
H9 C12 1_555 1_555
C13 C12 1_555 1_555
H10 C13 1_555 1_555
C14 C9 1_555 1_555
N2 C14 1_555 1_555
O8 N2 1_555 1_555
O9 N2 1_555 1_555
N3 Mn1 1_555 1_555
C15 N3 1_555 1_555
H11 C15 1_555 1_555
C16 H12 1_555 1_555
N4 C16 1_555 1_555
C17 C15 1_555 1_555
H13 C17 1_555 1_555
C18 N3 1_555 1_555
H14 C18 1_555 1_555
Mn1_2 N4 1_555 1_555
Mn1C O7 1_555 1_555
O7C Mn1 1_555 1_555
N4_2 Mn1 1_555 1_555
C6 C7 1_555 1_555
C13 C14 1_555 1_555
C16 C18 1_555 1_555
N4 C17 1_555 1_555

#END
