
#######################################################################
#
#                 Cambridge Crystallographic Data Centre
#                                CCDC 
#
#######################################################################
#
# If this CIF has been generated from an entry in the Cambridge 
# Structural Database, then it will include bibliographic, chemical, 
# crystal, experimental, refinement or atomic coordinate data resulting 
# from the CCDC's data processing and validation procedures.
#
#######################################################################

data_NULROB
_symmetry_cell_setting           tetragonal
_symmetry_space_group_name_H-M   'P -4 n 2'
_symmetry_Int_Tables_number      118
_space_group_name_Hall           'P -4 -2n'
loop_
_symmetry_equiv_pos_site_id
_symmetry_equiv_pos_as_xyz
1 x,y,z
2 y,-x,-z
3 1/2-x,1/2+y,1/2+z
4 -x,-y,z
5 1/2+y,1/2+x,1/2-z
6 -y,x,-z
7 1/2+x,1/2-y,1/2+z
8 1/2-y,1/2-x,1/2-z
_cell_length_a                   10.4560(6)
_cell_length_b                   10.4560(6)
_cell_length_c                   9.3682(8)
_cell_angle_alpha                90
_cell_angle_beta                 90
_cell_angle_gamma                90
_cell_volume                     1024.21
loop_
_atom_site_label
_atom_site_type_symbol
_atom_site_fract_x
_atom_site_fract_y
_atom_site_fract_z
Cu1 Cu 0.5000 0.5000 0.5000
N1 N -0.0298(3) 0.1467(3) 0.1398(3)
C1 C -0.0011(3) 0.3078(4) 0.3748(4)
C2 C -0.1036(3) 0.1346(3) 0.2567(5)
C3 C -0.0912(3) 0.2113(4) 0.3743(4)
C4 C 0.0750(2) 0.3241(3) 0.2544(3)
C5 C 0.0563(3) 0.2420(3) 0.1410(4)
H1 H 0.0085(3) 0.3608(4) 0.4538(4)
H2 H -0.1659(3) 0.0712(3) 0.2577(5)
H3 H -0.1433(3) 0.1985(4) 0.4535(4)
H4 H 0.1066(3) 0.2534(3) 0.0601(4)
C4G C 0.1759(3) 0.4250(2) 0.2456(3)
C1G C 0.1922(4) 0.5011(3) 0.1252(4)
C3G C 0.2887(4) 0.5912(3) 0.1257(4)
C2G C 0.3654(3) 0.6036(3) 0.2433(5)
N1G N 0.3533(3) 0.5298(3) 0.3602(3)
Cu1B Cu 0.0000 0.0000 0.0000
N1F N 0.4702(3) 0.3533(3) 0.6398(3)
C2F C 0.3964(3) 0.3654(3) 0.7567(5)
C3F C 0.4088(3) 0.2887(4) 0.8743(4)
C1F C 0.4989(3) 0.1922(4) 0.8748(4)
C4F C 0.5750(2) 0.1759(3) 0.7544(3)
C4E C 0.6759(3) 0.0750(2) 0.7456(3)
C1E C 0.6922(4) -0.0011(3) 0.6252(4)
C3E C 0.7887(4) -0.0912(3) 0.6257(4)
C2E C 0.8654(3) -0.1036(3) 0.7433(5)
N1E N 0.8533(3) -0.0298(3) 0.8602(3)
Cu1B_2 Cu 1.0000 0.0000 1.0000
C5E C 0.7580(3) 0.0563(3) 0.8590(4)
H4E H 0.7466(3) 0.1066(3) 0.9399(4)
H2E H 0.9288(3) -0.1659(3) 0.7423(5)
H3E H 0.8015(4) -0.1433(3) 0.5465(4)
H1E H 0.6392(4) 0.0085(3) 0.5462(4)
C5F C 0.5563(3) 0.2580(3) 0.6410(4)
H4F H 0.6066(3) 0.2466(3) 0.5601(4)
H1F H 0.5085(3) 0.1392(4) 0.9538(4)
H3F H 0.3567(3) 0.3015(4) 0.9535(4)
H2F H 0.3341(3) 0.4288(3) 0.7577(5)
N1D N 0.6467(3) 0.4702(3) 0.3602(3)
N1B N 0.5298(3) 0.6467(3) 0.6398(3)
C5G C 0.2580(3) 0.4437(3) 0.3590(4)
H4G H 0.2466(3) 0.3934(3) 0.4399(4)
H2G H 0.4288(3) 0.6659(3) 0.2423(5)
H3G H 0.3015(4) 0.6433(3) 0.0465(4)
H1G H 0.1392(4) 0.4915(3) 0.0462(4)
F1 F -0.0101(7) 0.5978(7) 0.8360(6)
B1 B 0.0000 0.5000 0.7500
F1C F 0.0101(7) 0.4022(7) 0.8360(6)
F1D F 0.0978(7) 0.4899(7) 0.6640(6)
F1G F -0.0978(7) 0.5101(7) 0.6640(6)
loop_
_geom_bond_atom_site_label_1
_geom_bond_atom_site_label_2
_geom_bond_site_symmetry_1
_geom_bond_site_symmetry_2
Cu1 N1G 1_555 1_555
F1 B1 1_555 1_555
N1 C2 1_555 1_555
C1 C3 1_555 1_555
C2 C3 1_555 1_555
C3 H3 1_555 1_555
C4 C1 1_555 1_555
C5 N1 1_555 1_555
B1 F1C 1_555 1_555
H1 C1 1_555 1_555
H2 C2 1_555 1_555
H4 C5 1_555 1_555
C4G C4 1_555 1_555
C1G C4G 1_555 1_555
C3G C1G 1_555 1_555
C2G C3G 1_555 1_555
N1G C2G 1_555 1_555
Cu1B N1 1_555 1_555
N1F Cu1 1_555 1_555
C2F N1F 1_555 1_555
C3F C2F 1_555 1_555
C1F C3F 1_555 1_555
C4F C1F 1_555 1_555
C4E C4F 1_555 1_555
C1E C4E 1_555 1_555
C3E C1E 1_555 1_555
C2E C3E 1_555 1_555
N1E C2E 1_555 1_555
Cu1B_2 N1E 1_555 1_555
C5E C4E 1_555 1_555
H4E C5E 1_555 1_555
H2E C2E 1_555 1_555
H3E C3E 1_555 1_555
H1E C1E 1_555 1_555
C5F N1F 1_555 1_555
H4F C5F 1_555 1_555
H1F C1F 1_555 1_555
H3F C3F 1_555 1_555
H2F C2F 1_555 1_555
N1D Cu1 1_555 1_555
N1B Cu1 1_555 1_555
C5G C4G 1_555 1_555
H4G C5G 1_555 1_555
H2G C2G 1_555 1_555
H3G C3G 1_555 1_555
H1G C1G 1_555 1_555
F1D B1 1_555 1_555
F1G B1 1_555 1_555
C4 C5 1_555 1_555
N1G C5G 1_555 1_555
C4F C5F 1_555 1_555
N1E C5E 1_555 1_555

#END
