
#######################################################################
#
#                 Cambridge Crystallographic Data Centre
#                                CCDC 
#
#######################################################################
#
# If this CIF has been generated from an entry in the Cambridge 
# Structural Database, then it will include bibliographic, chemical, 
# crystal, experimental, refinement or atomic coordinate data resulting 
# from the CCDC's data processing and validation procedures.
#
#######################################################################

data_NULSUJ
_symmetry_cell_setting           monoclinic
_symmetry_space_group_name_H-M   'C 2/c'
_symmetry_Int_Tables_number      15
_space_group_name_Hall           '-C 2yn'
loop_
_symmetry_equiv_pos_site_id
_symmetry_equiv_pos_as_xyz
1 x,y,z
2 -x,y,1/2-z
3 1/2+x,1/2+y,z
4 1/2-x,1/2+y,1/2-z
5 -x,-y,-z
6 x,-y,1/2+z
7 1/2-x,1/2-y,-z
8 1/2+x,1/2-y,1/2+z
_cell_length_a                   26.8795(12)
_cell_length_b                   19.1415(8)
_cell_length_c                   21.2041(9)
_cell_angle_alpha                90
_cell_angle_beta                 122.078(2)
_cell_angle_gamma                90
_cell_volume                     9244.16
loop_
_atom_site_label
_atom_site_type_symbol
_atom_site_fract_x
_atom_site_fract_y
_atom_site_fract_z
Zn1 Zn 1.00213(2) 0.31758(3) 1.06472(3)
Zn2 Zn 0.5000 0.29249(4) 0.7500
Zn3 Zn 1.0000 0.5000 1.0000
Zn4 Zn 1.00071(2) 0.22078(3) 0.85328(3)
N1 N 0.90761(15) 0.3131(2) 1.0123(2)
C1 C 0.8758(2) 0.2741(3) 0.9515(3)
H1 H 0.8953 0.2498 0.9330
C2 C 0.8161(2) 0.2680(3) 0.9149(3)
H2 H 0.7962 0.2404 0.8723
C3 C 0.78493(18) 0.3026(2) 0.9407(2)
C4 C 0.81807(19) 0.3415(3) 1.0041(3)
H3 H 0.7999 0.3652 1.0249
C5 C 0.87792(19) 0.3457(3) 1.0371(3)
H4 H 0.8989 0.3731 1.0796
N2 N 0.59627(15) 0.2927(2) 0.8221(2)
C6 C 0.62720(19) 0.3300(3) 0.8831(3)
H5 H 0.6069 0.3557 0.8997
C7 C 0.68769(19) 0.3336(3) 0.9242(3)
H6 H 0.7067 0.3606 0.9672
C8 C 0.71987(18) 0.2975(2) 0.9021(2)
C9 C 0.6875(2) 0.2549(3) 0.8409(3)
H7 H 0.7068 0.2265 0.8250
C10 C 0.6276(2) 0.2536(3) 0.8032(3)
H8 H 0.6076 0.2240 0.7623
N3 N 1.09696(15) 0.3128(2) 1.1194(2)
C11 C 1.13291(19) 0.3579(2) 1.1720(3)
H9 H 1.1165 0.3928 1.1858
C12 C 1.19335(18) 0.3556(3) 1.2070(3)
H10 H 1.2164 0.3882 1.2435
C13 C 1.21945(19) 0.3048(3) 1.1877(2)
C14 C 1.1816(2) 0.2584(3) 1.1326(3)
H11 H 1.1967 0.2231 1.1174
C15 C 1.1224(2) 0.2643(3) 1.1006(3)
H12 H 1.0983 0.2326 1.0635
N4 N 1.40678(16) 0.2887(2) 1.2959(2)
C16 C 1.3813(2) 0.3466(3) 1.2985(3)
H13 H 1.4050 0.3846 1.3244
C17 C 1.3211(2) 0.3537(3) 1.2648(3)
H14 H 1.3056 0.3956 1.2690
C18 C 1.28421(19) 0.2995(3) 1.2251(2)
C19 C 1.3112(2) 0.2382(3) 1.2233(3)
H15 H 1.2886 0.1993 1.1983
C20 C 1.3712(2) 0.2352(3) 1.2583(3)
H16 H 1.3880 0.1936 1.2558
N5 N 1.09312(15) 0.50141(19) 1.0560(2)
C21 C 1.1267(2) 0.5328(3) 1.1219(3)
H17 H 1.1085 0.5520 1.1449
C22 C 1.1868(2) 0.5381(3) 1.1573(3)
H18 H 1.2080 0.5603 1.2032
C23 C 1.21587(19) 0.5107(2) 1.1254(3)
C24 C 1.1810(2) 0.4788(3) 1.0574(3)
H19 H 1.1980 0.4594 1.0331
C25 C 1.1211(2) 0.4751(3) 1.0250(3)
H20 H 1.0990 0.4532 0.9791
N6 N 1.40173(19) 0.5302(3) 1.2264(3)
C26 C 1.3754(2) 0.5495(4) 1.2605(4)
H21 H 1.3983 0.5676 1.3083
C27 C 1.3157(2) 0.5446(4) 1.2301(3)
H22 H 1.2996 0.5605 1.2568
C28 C 1.2802(2) 0.5164(3) 1.1608(3)
C29 C 1.3084(2) 0.4943(3) 1.1257(4)
H23 H 1.2870 0.4739 1.0788
C30 C 1.3682(2) 0.5027(3) 1.1603(4)
H24 H 1.3859 0.4878 1.1351
N7 N 1.09492(16) 0.2337(2) 0.9116(2)
C31 C 1.1307(2) 0.1792(3) 0.9419(3)
H25 H 1.1142 0.1359 0.9396
C32 C 1.1905(2) 0.1831(3) 0.9764(3)
H26 H 1.2131 0.1430 0.9968
C33 C 1.21803(19) 0.2468(2) 0.9813(3)
C34 C 1.1805(2) 0.3029(3) 0.9501(3)
H27 H 1.1958 0.3469 0.9516
C35 C 1.1207(2) 0.2951(3) 0.9168(3)
H28 H 1.0970 0.3345 0.8969
C36 C 1.00883(18) 0.4499(2) 1.1473(2)
H29 H 1.0106 0.4690 1.1888
O1 O 1.00862(12) 0.38440(16) 1.14420(16)
O2 O 1.00703(14) 0.49175(16) 1.10236(17)
C37 C 0.99655(17) 0.3543(2) 0.9350(2)
H30 H 0.9947 0.3792 0.8961
O3 O 0.99791(12) 0.38843(15) 0.98752(15)
O4 O 0.99755(13) 0.29048(16) 0.93310(16)
C38 C 1.0000 0.1081(4) 0.7500
H31 H 1.0000 0.0595 0.7500
O5 O 1.0088(2) 0.1321(3) 0.8065(2)
C39 C 1.0000 0.3382(3) 0.7500
H32 H 1.0000 0.3868 0.7500
O6 O 0.99037(15) 0.3112(2) 0.79441(19)
C40 C 0.50163(17) 0.3159(2) 0.6061(2)
H33 H 0.4989 0.3640 0.6095
O7 O 0.50053(13) 0.29117(17) 0.55051(16)
O8 O 0.50625(13) 0.27867(16) 0.65642(16)
O9 O 0.5000 0.3998(2) 0.7500
H34 H 0.5250(18) 0.424(2) 0.749(3)
O10 O 0.5000 0.1848(2) 0.7500
H35 H 0.503(2) 0.162(2) 0.720(2)
O11 O 1.01091(16) 0.1500(2) 0.9377(2)
H36 H 1.016(3) 0.1080(9) 0.937(4)
H37 H 1.005(3) 0.161(3) 0.971(2)
Zn1A Zn -0.00213(2) 0.31758(3) 0.43528(3)
Zn1G Zn 0.50213(2) 0.18242(3) 0.56472(3)
Zn1F Zn 0.49787(2) 0.18242(3) 0.93528(3)
Zn3A Zn 0.0000 0.5000 0.5000
Zn4A Zn -0.00071(2) 0.22078(3) 0.64672(3)
Zn4G Zn 1.50071(2) 0.27922(3) 1.35328(3)
Zn4F Zn 1.49929(2) 0.27922(3) 1.14672(3)
Zn4A_2 Zn 0.99929(2) 0.22078(3) 0.64672(3)
Zn4F_2 Zn -0.50071(2) 0.27922(3) 0.14672(3)
N1A N 0.09239(15) 0.3131(2) 0.4877(2)
C1A C 0.1242(2) 0.2741(3) 0.5485(3)
H1A H 0.1047 0.2498 0.5670
C2A C 0.1839(2) 0.2680(3) 0.5851(3)
H2A H 0.2038 0.2404 0.6277
C3A C 0.21507(18) 0.3026(2) 0.5593(2)
C4A C 0.18193(19) 0.3415(3) 0.4959(3)
H3A H 0.2001 0.3652 0.4751
C5A C 0.12208(19) 0.3457(3) 0.4629(3)
H4A H 0.1011 0.3731 0.4204
N2A N 0.40373(15) 0.2927(2) 0.6779(2)
C6A C 0.37280(19) 0.3300(3) 0.6169(3)
H5A H 0.3931 0.3557 0.6003
C7A C 0.31231(19) 0.3336(3) 0.5758(3)
H6A H 0.2933 0.3606 0.5328
C8A C 0.28013(18) 0.2975(2) 0.5979(2)
C9A C 0.3125(2) 0.2549(3) 0.6591(3)
H7A H 0.2932 0.2265 0.6750
C10A C 0.3724(2) 0.2536(3) 0.6968(3)
H8A H 0.3924 0.2240 0.7377
N3A N -0.09696(15) 0.3128(2) 0.3806(2)
C11A C -0.13291(19) 0.3579(2) 0.3280(3)
H9A H -0.1165 0.3928 0.3142
C12A C -0.19335(18) 0.3556(3) 0.2930(3)
H10A H -0.2164 0.3882 0.2565
C13A C -0.21945(19) 0.3048(3) 0.3123(2)
C14A C -0.1816(2) 0.2584(3) 0.3674(3)
H11A H -0.1967 0.2231 0.3826
C15A C -0.1224(2) 0.2643(3) 0.3994(3)
H12A H -0.0983 0.2326 0.4365
N4A N -0.40678(16) 0.2887(2) 0.2041(2)
N4G N 0.90678(16) 0.2113(2) 0.7959(2)
N4F N 0.09322(16) 0.2113(2) 0.7041(2)
C16A C -0.3813(2) 0.3466(3) 0.2015(3)
H13A H -0.4050 0.3846 0.1756
C17A C -0.3211(2) 0.3537(3) 0.2352(3)
H14A H -0.3056 0.3956 0.2310
C18A C -0.28421(19) 0.2995(3) 0.2749(2)
C19A C -0.3112(2) 0.2382(3) 0.2767(3)
H15A H -0.2886 0.1993 0.3017
C20A C -0.3712(2) 0.2352(3) 0.2417(3)
H16A H -0.3880 0.1936 0.2442
N5D N 0.90688(15) 0.49859(19) 0.9440(2)
C21D C 0.8733(2) 0.4672(3) 0.8781(3)
H17D H 0.8915 0.4480 0.8551
C22D C 0.8132(2) 0.4619(3) 0.8427(3)
H18D H 0.7920 0.4397 0.7968
C23D C 0.78413(19) 0.4893(2) 0.8746(3)
C24D C 0.8190(2) 0.5212(3) 0.9426(3)
H19D H 0.8020 0.5406 0.9669
C25D C 0.8789(2) 0.5249(3) 0.9750(3)
H20D H 0.9010 0.5468 1.0209
N6D N 0.59827(19) 0.4698(3) 0.7736(3)
C26D C 0.6246(2) 0.4505(4) 0.7395(4)
H21D H 0.6017 0.4324 0.6917
C27D C 0.6843(2) 0.4554(4) 0.7699(3)
H22D H 0.7004 0.4395 0.7432
C28D C 0.7198(2) 0.4836(3) 0.8392(3)
C29D C 0.6916(2) 0.5057(3) 0.8743(4)
H23D H 0.7130 0.5261 0.9212
C30D C 0.6318(2) 0.4973(3) 0.8397(4)
H24D H 0.6141 0.5122 0.8649
N7F N 1.40508(16) 0.2663(2) 1.0884(2)
N7A N -0.09492(16) 0.2337(2) 0.5884(2)
C31F C 1.3693(2) 0.3208(3) 1.0581(3)
H25F H 1.3858 0.3641 1.0604
C32F C 1.3095(2) 0.3169(3) 1.0236(3)
H26F H 1.2869 0.3570 1.0032
C33F C 1.28197(19) 0.2532(2) 1.0187(3)
C34F C 1.3195(2) 0.1971(3) 1.0499(3)
H27F H 1.3042 0.1531 1.0484
C35F C 1.3793(2) 0.2049(3) 1.0832(3)
H28F H 1.4030 0.1655 1.1031
C36A C -0.00883(18) 0.4499(2) 0.3527(2)
H29A H -0.0106 0.4690 0.3112
O1A O -0.00862(12) 0.38440(16) 0.35580(16)
O2A O -0.00703(14) 0.49175(16) 0.39764(17)
O2D O 0.99297(14) 0.50825(16) 0.89764(17)
C37A C 0.00345(17) 0.3543(2) 0.5650(2)
H30A H 0.0053 0.3792 0.6039
O3A O 0.00209(12) 0.38843(15) 0.51248(15)
O3D O 1.00209(12) 0.61157(15) 1.01248(15)
O4A O 0.00245(13) 0.29048(16) 0.56690(16)
O5A O 0.9912(2) 0.1321(3) 0.6935(2)
O5A_2 O -0.0088(2) 0.1321(3) 0.6935(2)
O6A O 1.00963(15) 0.3112(2) 0.70559(19)
O6A_2 O 0.00963(15) 0.3112(2) 0.70559(19)
C40A C 0.49837(17) 0.3159(2) 0.8939(2)
H33A H 0.5011 0.3640 0.8905
O7A O 0.49947(13) 0.29117(17) 0.94949(16)
O7G O 1.00053(13) 0.20883(17) 1.05051(16)
O7F O -0.00053(13) 0.20883(17) 0.44949(16)
O8A O 0.49375(13) 0.27867(16) 0.84358(16)
H34A H 0.4750(18) 0.424(2) 0.751(3)
H35A H 0.497(2) 0.162(2) 0.780(2)
O11A O -0.01091(16) 0.1500(2) 0.5623(2)
H36A H -0.016(3) 0.1080(9) 0.563(4)
H37A H -0.005(3) 0.161(3) 0.529(2)
O12 O 0.7311(2) 0.4085(3) 0.6493(3)
O13 O 0.7362(4) 0.6083(4) 0.6109(5)
Cl1 Cl 0.64125(7) -0.00972(9) 0.84156(8)
O14 O 0.69696(19) -0.0178(3) 0.9079(2)
O15 O 0.5998(4) -0.0413(6) 0.8538(7)
O16 O 0.6401(6) -0.0391(6) 0.7807(5)
O17 O 0.6277(6) 0.0619(4) 0.8286(6)
Cl2 Cl 0.59834(12) 0.51310(14) 0.51156(15)
O18 O 0.6068(4) 0.4626(5) 0.5637(5)
O19 O 0.5459(3) 0.4992(4) 0.4416(4)
O20 O 0.5990(5) 0.5813(4) 0.5358(6)
O21 O 0.6458(4) 0.5056(6) 0.5004(7)
Cl3? Cl 0.6484(5) 0.5482(6) 0.5566(6)
O22? O 0.5969(6) -0.0084(9) 0.8572(10)
O23? O 0.6337(7) -0.0680(6) 0.7960(7)
O24? O 0.6403(8) 0.0504(6) 0.8036(8)
O25? O 0.6281(11) 0.5226(12) 0.6017(12)
O26? O 0.7023(7) 0.5819(13) 0.6000(14)
O27? O 0.6061(7) 0.5928(8) 0.5031(8)
O28? O 0.6535(10) 0.4880(9) 0.5209(12)
O29? O 0.4974(15) 0.4961(18) 0.4283(19)
loop_
_geom_bond_atom_site_label_1
_geom_bond_atom_site_label_2
_geom_bond_site_symmetry_1
_geom_bond_site_symmetry_2
Zn1 N1 1_555 1_555
Zn2 N2 1_555 1_555
Zn3 N5 1_555 1_555
Zn4 N7 1_555 1_555
N1 C1 1_555 1_555
C1 H1 1_555 1_555
C2 C1 1_555 1_555
H2 C2 1_555 1_555
C3 C2 1_555 1_555
C4 C3 1_555 1_555
H3 C4 1_555 1_555
C5 N1 1_555 1_555
H4 C5 1_555 1_555
N2 C6 1_555 1_555
C6 H5 1_555 1_555
C7 C6 1_555 1_555
H6 C7 1_555 1_555
C8 C3 1_555 1_555
C9 C8 1_555 1_555
H7 C9 1_555 1_555
C10 N2 1_555 1_555
H8 C10 1_555 1_555
N3 Zn1 1_555 1_555
C11 N3 1_555 1_555
H9 C11 1_555 1_555
C12 C11 1_555 1_555
H10 C12 1_555 1_555
C13 C12 1_555 1_555
C14 C13 1_555 1_555
H11 C14 1_555 1_555
C15 N3 1_555 1_555
H12 C15 1_555 1_555
N4 C16 1_555 1_555
C16 H13 1_555 1_555
C17 C16 1_555 1_555
H14 C17 1_555 1_555
C18 C13 1_555 1_555
C19 C18 1_555 1_555
H15 C19 1_555 1_555
C20 N4 1_555 1_555
H16 C20 1_555 1_555
N5 C21 1_555 1_555
C21 H17 1_555 1_555
C22 C21 1_555 1_555
H18 C22 1_555 1_555
C23 C22 1_555 1_555
C24 C23 1_555 1_555
H19 C24 1_555 1_555
C25 N5 1_555 1_555
H20 C25 1_555 1_555
N6 C26 1_555 1_555
C26 H21 1_555 1_555
C27 C26 1_555 1_555
H22 C27 1_555 1_555
C28 C23 1_555 1_555
C29 C28 1_555 1_555
H23 C29 1_555 1_555
C30 N6 1_555 1_555
H24 C30 1_555 1_555
N7 C31 1_555 1_555
C31 H25 1_555 1_555
C32 C31 1_555 1_555
H26 C32 1_555 1_555
C33 C32 1_555 1_555
C34 C33 1_555 1_555
H27 C34 1_555 1_555
C35 N7 1_555 1_555
H28 C35 1_555 1_555
C36 H29 1_555 1_555
O1 Zn1 1_555 1_555
O2 Zn3 1_555 1_555
C37 H30 1_555 1_555
O3 Zn1 1_555 1_555
O4 Zn4 1_555 1_555
C38 H31 1_555 1_555
O5 Zn4 1_555 1_555
C39 H32 1_555 1_555
O6 Zn4 1_555 1_555
C40 H33 1_555 1_555
O7 C40 1_555 1_555
O8 Zn2 1_555 1_555
O9 Zn2 1_555 1_555
H34 O9 1_555 1_555
O10 Zn2 1_555 1_555
H35 O10 1_555 1_555
O11 Zn4 1_555 1_555
H36 O11 1_555 1_555
H37 O11 1_555 1_555
Cl1 O14 1_555 1_555
O15 Cl1 1_555 1_555
O16 Cl1 1_555 1_555
O17 Cl1 1_555 1_555
Cl2 O18 1_555 1_555
O19 Cl2 1_555 1_555
O20 Cl2 1_555 1_555
O21 Cl2 1_555 1_555
Zn1A N1A 1_555 1_555
Zn1G O7 1_555 1_555
Zn1F O7A 1_555 1_555
Zn3A O2A 1_555 1_555
Zn4A N4F 1_555 1_555
Zn4G N4 1_555 1_555
Zn4F N7F 1_555 1_555
Zn4A_2 O5A 1_555 1_555
Zn4F_2 N4A 1_555 1_555
N1A C1A 1_555 1_555
C1A H1A 1_555 1_555
C2A C1A 1_555 1_555
H2A C2A 1_555 1_555
C3A C2A 1_555 1_555
C4A C3A 1_555 1_555
H3A C4A 1_555 1_555
C5A N1A 1_555 1_555
H4A C5A 1_555 1_555
N2A Zn2 1_555 1_555
C6A N2A 1_555 1_555
H5A C6A 1_555 1_555
C7A C6A 1_555 1_555
H6A C7A 1_555 1_555
C8A C3A 1_555 1_555
C9A C8A 1_555 1_555
H7A C9A 1_555 1_555
C10A N2A 1_555 1_555
H8A C10A 1_555 1_555
N3A Zn1A 1_555 1_555
C11A N3A 1_555 1_555
H9A C11A 1_555 1_555
C12A C11A 1_555 1_555
H10A C12A 1_555 1_555
C13A C12A 1_555 1_555
C14A C13A 1_555 1_555
H11A C14A 1_555 1_555
C15A N3A 1_555 1_555
H12A C15A 1_555 1_555
N4A C16A 1_555 1_555
N4G Zn4 1_555 1_555
C16A H13A 1_555 1_555
C17A C16A 1_555 1_555
H14A C17A 1_555 1_555
C18A C13A 1_555 1_555
C19A C18A 1_555 1_555
H15A C19A 1_555 1_555
C20A N4A 1_555 1_555
H16A C20A 1_555 1_555
N5D Zn3 1_555 1_555
C21D N5D 1_555 1_555
H17D C21D 1_555 1_555
C22D C21D 1_555 1_555
H18D C22D 1_555 1_555
C23D C22D 1_555 1_555
C24D C23D 1_555 1_555
H19D C24D 1_555 1_555
C25D N5D 1_555 1_555
H20D C25D 1_555 1_555
N6D C26D 1_555 1_555
C26D H21D 1_555 1_555
C27D C26D 1_555 1_555
H22D C27D 1_555 1_555
C28D C23D 1_555 1_555
C29D C28D 1_555 1_555
H23D C29D 1_555 1_555
C30D N6D 1_555 1_555
H24D C30D 1_555 1_555
N7F C31F 1_555 1_555
N7A Zn4A 1_555 1_555
C31F H25F 1_555 1_555
C32F C31F 1_555 1_555
H26F C32F 1_555 1_555
C33F C33 1_555 1_555
C34F C33F 1_555 1_555
H27F C34F 1_555 1_555
C35F N7F 1_555 1_555
H28F C35F 1_555 1_555
C36A H29A 1_555 1_555
O1A Zn1A 1_555 1_555
O2A C36A 1_555 1_555
O2D Zn3 1_555 1_555
C37A H30A 1_555 1_555
O3A Zn1A 1_555 1_555
O3D Zn3 1_555 1_555
O4A Zn4A 1_555 1_555
O5A C38 1_555 1_555
O5A_2 Zn4A 1_555 1_555
O6A C39 1_555 1_555
O6A_2 Zn4A 1_555 1_555
C40A H33A 1_555 1_555
O7A C40A 1_555 1_555
O7G Zn1 1_555 1_555
O7F Zn1A 1_555 1_555
O8A Zn2 1_555 1_555
H34A O9 1_555 1_555
H35A O10 1_555 1_555
O11A Zn4A 1_555 1_555
H36A O11A 1_555 1_555
H37A O11A 1_555 1_555
Zn3 O3 1_555 1_555
C4 C5 1_555 1_555
C7 C8 1_555 1_555
C9 C10 1_555 1_555
C14 C15 1_555 1_555
C17 C18 1_555 1_555
C19 C20 1_555 1_555
C24 C25 1_555 1_555
C27 C28 1_555 1_555
C29 C30 1_555 1_555
C34 C35 1_555 1_555
C36 O1 1_555 1_555
C36 O2 1_555 1_555
C37 O3 1_555 1_555
C37 O4 1_555 1_555
C38 O5 1_555 1_555
C39 O6 1_555 1_555
C40 O8 1_555 1_555
Zn3A O3A 1_555 1_555
Zn4A_2 O6A 1_555 1_555
C4A C5A 1_555 1_555
C7A C8A 1_555 1_555
C9A C10A 1_555 1_555
C14A C15A 1_555 1_555
C17A C18A 1_555 1_555
C19A C20A 1_555 1_555
C24D C25D 1_555 1_555
C27D C28D 1_555 1_555
C29D C30D 1_555 1_555
C32F C33F 1_555 1_555
C34F C35F 1_555 1_555
C36A O1A 1_555 1_555
C37A O3A 1_555 1_555
C37A O4A 1_555 1_555
C40A O8A 1_555 1_555

#END
