
#######################################################################
#
#                 Cambridge Crystallographic Data Centre
#                                CCDC 
#
#######################################################################
#
# If this CIF has been generated from an entry in the Cambridge 
# Structural Database, then it will include bibliographic, chemical, 
# crystal, experimental, refinement or atomic coordinate data resulting 
# from the CCDC's data processing and validation procedures.
#
#######################################################################

data_NULXAU
_symmetry_cell_setting           monoclinic
_symmetry_space_group_name_H-M   'C 2/c'
_symmetry_Int_Tables_number      15
_space_group_name_Hall           '-C 2yn'
loop_
_symmetry_equiv_pos_site_id
_symmetry_equiv_pos_as_xyz
1 x,y,z
2 -x,y,1/2-z
3 1/2+x,1/2+y,z
4 1/2-x,1/2+y,1/2-z
5 -x,-y,-z
6 x,-y,1/2+z
7 1/2-x,1/2-y,-z
8 1/2+x,1/2-y,1/2+z
_cell_length_a                   19.9212(19)
_cell_length_b                   6.0431(5)
_cell_length_c                   20.5250(18)
_cell_angle_alpha                90
_cell_angle_beta                 111.164(3)
_cell_angle_gamma                90
_cell_volume                     2304.26
loop_
_atom_site_label
_atom_site_type_symbol
_atom_site_fract_x
_atom_site_fract_y
_atom_site_fract_z
C1 C 0.15326(19) 0.6277(5) 0.36181(18)
C2 C 0.15865(19) 0.7855(5) 0.30775(18)
C3 C 0.20321(17) 0.9712(5) 0.32619(16)
C4 C 0.25397(17) 1.0232(5) 0.39886(16)
C5 C 0.2038(2) 1.1208(6) 0.27496(19)
H1 H 0.2333 1.2448 0.2872
C6 C 0.1605(2) 1.0865(7) 0.20557(19)
H2 H 0.1601 1.1896 0.1718
C7 C 0.1180(2) 0.8996(7) 0.18664(19)
H3 H 0.0905 0.8730 0.1399
C8 C 0.1165(2) 0.7515(7) 0.23791(19)
H4 H 0.0869 0.6277 0.2253
C9 C 0.00079(18) 0.6135(6) 0.48234(17)
O1 O 0.10700(15) 0.4742(4) 0.34414(13)
O2 O 0.19489(14) 0.6496(4) 0.42478(13)
O3 O 0.31834(13) 0.9612(4) 0.41812(13)
O4 O 0.23264(14) 1.1439(4) 0.43763(13)
O5 O 0.04769(14) 0.6334(4) 0.45483(15)
O6 O -0.04352(14) 0.7537(4) 0.48389(14)
O7 O 0.05729(16) 0.0491(4) 0.38743(14)
O8 O 0.16363(14) -0.0120(4) 0.53641(14)
Pr1 Pr 0.137233(9) 0.33049(3) 0.466475(8)
C1_2 C 0.15326(19) -0.3723(5) 0.36181(18)
C2_2 C 0.15865(19) -0.2145(5) 0.30775(18)
C3_2 C 0.20321(17) -0.0288(5) 0.32619(16)
C4_2 C 0.25397(17) 0.0232(5) 0.39886(16)
C5_2 C 0.2038(2) 0.1208(6) 0.27496(19)
H1_2 H 0.2333 0.2448 0.2872
C6_2 C 0.1605(2) 0.0865(7) 0.20557(19)
H2_2 H 0.1601 0.1896 0.1718
C7_2 C 0.1180(2) -0.1004(7) 0.18664(19)
H3_2 H 0.0905 -0.1270 0.1399
C8_2 C 0.1165(2) -0.2485(7) 0.23791(19)
H4_2 H 0.0869 -0.3723 0.2253
C9D C -0.00079(18) 0.3865(6) 0.51766(17)
O1_2 O 0.10700(15) 1.4742(4) 0.34414(13)
O1_3 O 0.10700(15) -0.5258(4) 0.34414(13)
O2_2 O 0.19489(14) 1.6496(4) 0.42478(13)
O2_3 O 0.19489(14) -0.3504(4) 0.42478(13)
O3F O 0.18166(13) 0.5388(4) 0.58188(13)
O3F_2 O 0.18166(13) 1.5388(4) 0.58188(13)
O3_2 O 0.31834(13) -0.0388(4) 0.41812(13)
O4F O 0.26736(14) 0.3561(4) 0.56237(13)
O4_2 O 0.23264(14) 0.1439(4) 0.43763(13)
O4F_2 O 0.26736(14) 1.3561(4) 0.56237(13)
O5D O -0.04769(14) 0.3666(4) 0.54517(15)
O5_2 O 0.04769(14) 1.6334(4) 0.45483(15)
O6D O 0.04352(14) 0.2463(4) 0.51611(14)
O6D_2 O 0.04352(14) 1.2463(4) 0.51611(14)
O7_2 O 0.05729(16) 1.0491(4) 0.38743(14)
O8_2 O 0.16363(14) 0.9880(4) 0.53641(14)
Pr1F Pr 0.362767(9) 1.16951(3) 0.533525(8)
Pr1_2 Pr 0.137233(9) 1.33049(3) 0.466475(8)
Pr1D Pr -0.137233(9) 0.66951(3) 0.533525(8)
Pr1F_2 Pr 0.362767(9) 0.16951(3) 0.533525(8)
Pr1_3 Pr 0.137233(9) -0.66951(3) 0.466475(8)
H5 H 0.033(4) 0.306(10) 0.268(4)
O9 O 0.0000 0.2093(8) 0.2500
H5A H -0.033(4) 0.306(10) 0.232(4)
loop_
_geom_bond_atom_site_label_1
_geom_bond_atom_site_label_2
_geom_bond_site_symmetry_1
_geom_bond_site_symmetry_2
C1 C2 1_555 1_555
C2 C3 1_555 1_555
C3 C4 1_555 1_555
C4 O3 1_555 1_555
C5 C3 1_555 1_555
H1 C5 1_555 1_555
C6 C5 1_555 1_555
H2 C6 1_555 1_555
C7 C6 1_555 1_555
H3 C7 1_555 1_555
C8 C2 1_555 1_555
H4 C8 1_555 1_555
C9 O5 1_555 1_555
H5 O9 1_555 1_555
O1 C1 1_555 1_555
O2 C1 1_555 1_555
O3 Pr1F 1_555 1_555
O4 C4 1_555 1_555
O5 Pr1 1_555 1_555
O6 C9 1_555 1_555
O7 Pr1 1_555 1_555
O8 Pr1 1_555 1_555
O9 H5A 1_555 1_555
Pr1 O1 1_555 1_555
C1_2 C2_2 1_555 1_555
C2_2 C3_2 1_555 1_555
C3_2 C4_2 1_555 1_555
C4_2 O3_2 1_555 1_555
C5_2 C3_2 1_555 1_555
H1_2 C5_2 1_555 1_555
C6_2 C5_2 1_555 1_555
H2_2 C6_2 1_555 1_555
C7_2 C6_2 1_555 1_555
H3_2 C7_2 1_555 1_555
C8_2 C2_2 1_555 1_555
H4_2 C8_2 1_555 1_555
C9D C9 1_555 1_555
O1_2 Pr1_2 1_555 1_555
O1_3 C1_2 1_555 1_555
O2_2 Pr1_2 1_555 1_555
O2_3 C1_2 1_555 1_555
O3F Pr1 1_555 1_555
O3F_2 Pr1_2 1_555 1_555
O3_2 Pr1F_2 1_555 1_555
O4F Pr1 1_555 1_555
O4_2 Pr1 1_555 1_555
O4F_2 Pr1F 1_555 1_555
O5D C9D 1_555 1_555
O5_2 Pr1_2 1_555 1_555
O6D Pr1 1_555 1_555
O6D_2 Pr1_2 1_555 1_555
O7_2 Pr1_2 1_555 1_555
O8_2 Pr1_2 1_555 1_555
Pr1F O4 1_555 1_555
Pr1_2 O4 1_555 1_555
Pr1D O6 1_555 1_555
Pr1F_2 O4F 1_555 1_555
Pr1_3 O1_3 1_555 1_555
C7 C8 1_555 1_555
O2 Pr1 1_555 1_555
C4_2 O4_2 1_555 1_555
C7_2 C8_2 1_555 1_555
C9D O6D 1_555 1_555
O2_3 Pr1_3 1_555 1_555
O4_2 Pr1F_2 1_555 1_555
O4F_2 Pr1_2 1_555 1_555
O5D Pr1D 1_555 1_555

#END
