
#######################################################################
#
#                 Cambridge Crystallographic Data Centre
#                                CCDC 
#
#######################################################################
#
# If this CIF has been generated from an entry in the Cambridge 
# Structural Database, then it will include bibliographic, chemical, 
# crystal, experimental, refinement or atomic coordinate data resulting 
# from the CCDC's data processing and validation procedures.
#
#######################################################################

data_NULXEY
_symmetry_cell_setting           monoclinic
_symmetry_space_group_name_H-M   'C 2/c'
_symmetry_Int_Tables_number      15
_space_group_name_Hall           '-C 2yn'
loop_
_symmetry_equiv_pos_site_id
_symmetry_equiv_pos_as_xyz
1 x,y,z
2 -x,y,1/2-z
3 1/2+x,1/2+y,z
4 1/2-x,1/2+y,1/2-z
5 -x,-y,-z
6 x,-y,1/2+z
7 1/2-x,1/2-y,-z
8 1/2+x,1/2-y,1/2+z
_cell_length_a                   19.8310(18)
_cell_length_b                   6.0329(5)
_cell_length_c                   20.4964(19)
_cell_angle_alpha                90
_cell_angle_beta                 111.096(2)
_cell_angle_gamma                90
_cell_volume                     2287.81
loop_
_atom_site_label
_atom_site_type_symbol
_atom_site_fract_x
_atom_site_fract_y
_atom_site_fract_z
C1 C 0.15353(15) 0.8744(4) 0.86240(15)
C2 C 0.15868(16) 0.7170(4) 0.80834(15)
C3 C 0.11628(17) 0.7506(5) 0.73837(16)
H1 H 0.0865 0.8745 0.7257
C4 C 0.11784(17) 0.6021(6) 0.68734(16)
H2 H 0.0899 0.6281 0.6407
C5 C 0.16061(18) 0.4167(6) 0.70561(15)
H3 H 0.1608 0.3153 0.6715
C6 C 0.20355(17) 0.3804(5) 0.77501(16)
H4 H 0.2326 0.2548 0.7871
C7 C 0.20359(14) 0.5297(4) 0.82657(13)
C8 C 0.25401(14) 0.4768(4) 0.89930(13)
C9 C -0.00083(14) 1.1128(4) 1.01762(14)
H5 H 0.199(2) 1.558(7) 1.041(2)
H6 H 0.139(3) 1.580(10) 1.036(3)
H7 H 0.044(2) 1.577(8) 0.906(2)
H8 H 0.034(2) 1.432(7) 0.854(2)
Nd1 Nd 0.137328(7) 1.16956(2) 0.966874(7)
O1 O 0.19462(11) 0.8516(3) 0.92564(10)
O2 O 0.10733(12) 1.0288(4) 0.84477(10)
O3 O 0.31860(10) 0.5396(3) 0.91877(10)
O4 O 0.23263(11) 0.3560(3) 0.93846(10)
O5 O 0.04383(11) 1.2534(3) 1.01632(12)
O6 O -0.04827(11) 1.1338(3) 1.04522(12)
O7 O 0.16341(15) 1.5088(4) 1.03623(13)
O8 O 0.05788(14) 1.4487(4) 0.88850(13)
C1_2 C 0.15353(15) 1.8744(4) 0.86240(15)
C2_2 C 0.15868(16) 1.7170(4) 0.80834(15)
C3_2 C 0.11628(17) 1.7506(5) 0.73837(16)
H1_2 H 0.0865 1.8745 0.7257
C4_2 C 0.11784(17) 1.6021(6) 0.68734(16)
H2_2 H 0.0899 1.6281 0.6407
C5_2 C 0.16061(18) 1.4167(6) 0.70561(15)
H3_2 H 0.1608 1.3153 0.6715
C6_2 C 0.20355(17) 1.3804(5) 0.77501(16)
H4_2 H 0.2326 1.2548 0.7871
C7_2 C 0.20359(14) 1.5297(4) 0.82657(13)
C8_2 C 0.25401(14) 1.4768(4) 0.89930(13)
C9D C 0.00083(14) 0.8872(4) 0.98238(14)
H5_2 H 0.199(2) 0.558(7) 1.041(2)
H6_2 H 0.139(3) 0.580(10) 1.036(3)
H7_2 H 0.044(2) 0.577(8) 0.906(2)
H8_2 H 0.034(2) 0.432(7) 0.854(2)
Nd1F Nd 0.362672(7) 0.33044(2) 1.033126(7)
Nd1_2 Nd 0.137328(7) 0.16956(2) 0.966874(7)
Nd1D Nd -0.137328(7) 0.83044(2) 1.033126(7)
Nd1F_2 Nd 0.362672(7) 1.33044(2) 1.033126(7)
Nd1_3 Nd 0.137328(7) 2.16956(2) 0.966874(7)
O1_2 O 0.19462(11) -0.1484(3) 0.92564(10)
O1_3 O 0.19462(11) 1.8516(3) 0.92564(10)
O2_2 O 0.10733(12) 0.0288(4) 0.84477(10)
O2_3 O 0.10733(12) 2.0288(4) 0.84477(10)
O3F O 0.18140(10) 0.9604(3) 1.08123(10)
O3F_2 O 0.18140(10) -0.0396(3) 1.08123(10)
O3_2 O 0.31860(10) 1.5396(3) 0.91877(10)
O4F O 0.26737(11) 1.1440(3) 1.06154(10)
O4_2 O 0.23263(11) 1.3560(3) 0.93846(10)
O4F_2 O 0.26737(11) 0.1440(3) 1.06154(10)
O5D O -0.04383(11) 0.7466(3) 0.98368(12)
O5_2 O 0.04383(11) 0.2534(3) 1.01632(12)
O6D O 0.04827(11) 0.8662(3) 0.95478(12)
O6D_2 O 0.04827(11) -0.1338(3) 0.95478(12)
O7_2 O 0.16341(15) 0.5088(4) 1.03623(13)
O8_2 O 0.05788(14) 0.4487(4) 0.88850(13)
H9 H 0.036(3) 0.791(7) 0.267(3)
O9 O 0.0000 0.7068(7) 0.2500
H9A H -0.036(3) 0.791(7) 0.233(3)
loop_
_geom_bond_atom_site_label_1
_geom_bond_atom_site_label_2
_geom_bond_site_symmetry_1
_geom_bond_site_symmetry_2
C1 C2 1_555 1_555
C2 C3 1_555 1_555
C3 H1 1_555 1_555
C4 C3 1_555 1_555
H2 C4 1_555 1_555
C5 C4 1_555 1_555
H3 C5 1_555 1_555
C6 C5 1_555 1_555
H4 C6 1_555 1_555
C7 C2 1_555 1_555
C8 C7 1_555 1_555
C9 O5 1_555 1_555
H5 O7 1_555 1_555
H6 O7 1_555 1_555
H7 O8 1_555 1_555
H8 O8 1_555 1_555
H9 O9 1_555 1_555
Nd1 O1 1_555 1_555
O1 C1 1_555 1_555
O2 C1 1_555 1_555
O3 C8 1_555 1_555
O4 C8 1_555 1_555
O5 Nd1 1_555 1_555
O6 C9 1_555 1_555
O7 Nd1 1_555 1_555
O8 Nd1 1_555 1_555
O9 H9A 1_555 1_555
C1_2 C2_2 1_555 1_555
C2_2 C3_2 1_555 1_555
C3_2 H1_2 1_555 1_555
C4_2 C3_2 1_555 1_555
H2_2 C4_2 1_555 1_555
C5_2 C4_2 1_555 1_555
H3_2 C5_2 1_555 1_555
C6_2 C5_2 1_555 1_555
H4_2 C6_2 1_555 1_555
C7_2 C2_2 1_555 1_555
C8_2 C7_2 1_555 1_555
C9D C9 1_555 1_555
H5_2 O7_2 1_555 1_555
H6_2 O7_2 1_555 1_555
H7_2 O8_2 1_555 1_555
H8_2 O8_2 1_555 1_555
Nd1F O3 1_555 1_555
Nd1_2 O4 1_555 1_555
Nd1D O6 1_555 1_555
Nd1F_2 O3_2 1_555 1_555
Nd1_3 O1_3 1_555 1_555
O1_2 Nd1_2 1_555 1_555
O1_3 C1_2 1_555 1_555
O2_2 Nd1_2 1_555 1_555
O2_3 C1_2 1_555 1_555
O3F Nd1 1_555 1_555
O3F_2 Nd1_2 1_555 1_555
O3_2 C8_2 1_555 1_555
O4F Nd1 1_555 1_555
O4_2 Nd1 1_555 1_555
O4F_2 Nd1F 1_555 1_555
O5D C9D 1_555 1_555
O5_2 Nd1_2 1_555 1_555
O6D Nd1 1_555 1_555
O6D_2 Nd1_2 1_555 1_555
O7_2 Nd1_2 1_555 1_555
O8_2 Nd1_2 1_555 1_555
C6 C7 1_555 1_555
Nd1 O2 1_555 1_555
O4 Nd1F 1_555 1_555
C6_2 C7_2 1_555 1_555
C8_2 O4_2 1_555 1_555
C9D O6D 1_555 1_555
Nd1_2 O4F_2 1_555 1_555
Nd1D O5D 1_555 1_555
Nd1F_2 O4F 1_555 1_555
Nd1F_2 O4_2 1_555 1_555
Nd1_3 O2_3 1_555 1_555

#END
