
#######################################################################
#
#                 Cambridge Crystallographic Data Centre
#                                CCDC 
#
#######################################################################
#
# If this CIF has been generated from an entry in the Cambridge 
# Structural Database, then it will include bibliographic, chemical, 
# crystal, experimental, refinement or atomic coordinate data resulting 
# from the CCDC's data processing and validation procedures.
#
#######################################################################

data_NULYOJ
_symmetry_cell_setting           triclinic
_symmetry_space_group_name_H-M   'P -1'
_symmetry_Int_Tables_number      2
_space_group_name_Hall           '-P 1'
loop_
_symmetry_equiv_pos_site_id
_symmetry_equiv_pos_as_xyz
1 x,y,z
2 -x,-y,-z
_cell_length_a                   10.3647(7)
_cell_length_b                   11.5338(8)
_cell_length_c                   12.2664(8)
_cell_angle_alpha                82.0820(10)
_cell_angle_beta                 65.0190(10)
_cell_angle_gamma                84.3190(10)
_cell_volume                     1315.16
loop_
_atom_site_label
_atom_site_type_symbol
_atom_site_fract_x
_atom_site_fract_y
_atom_site_fract_z
C1 C 0.3975(5) 0.6265(4) 0.3449(4)
C2 C 0.5405(5) 0.5670(4) 0.3177(4)
C3 C 0.6651(5) 0.6254(4) 0.2484(5)
H1 H 0.6606 0.7038 0.2192
C4 C 0.7975(6) 0.5658(5) 0.2226(5)
H2 H 0.8810 0.6036 0.1732
C5 C 0.8043(5) 0.4504(4) 0.2705(5)
H3 H 0.8925 0.4116 0.2538
C6 C 0.6803(5) 0.3921(4) 0.3436(4)
C7 C 0.6869(5) 0.2697(4) 0.4029(4)
C8 C 0.5483(5) 0.4500(4) 0.3647(4)
H4 H 0.4650 0.4105 0.4104
C9 C 0.0829(5) 0.4887(4) 0.3169(4)
C10 C 0.1952(5) 0.4504(4) 0.2026(4)
C11 C 0.2348(6) 0.5229(4) 0.0938(5)
H5 H 0.1909 0.5971 0.0924
C12 C 0.3379(7) 0.4858(5) -0.0110(5)
H6 H 0.3601 0.5335 -0.0835
C13 C 0.4097(6) 0.3771(4) -0.0099(4)
H7 H 0.4813 0.3531 -0.0808
C14 C 0.3729(5) 0.3048(4) 0.0987(4)
C15 C 0.2642(5) 0.3407(4) 0.2045(4)
H8 H 0.2377 0.2913 0.2763
C16 C 0.4449(4) 0.1875(4) 0.1042(4)
C17 C 1.0782(4) 0.8288(3) 0.2091(4)
C18 C 1.0567(4) 0.8366(4) 0.0951(4)
C19 C 1.1710(5) 0.8180(4) -0.0143(4)
H9 H 1.2618 0.8009 -0.0170
C20 C 1.1498(5) 0.8249(5) -0.1194(4)
H10 H 1.2260 0.8096 -0.1917
C21 C 1.0160(5) 0.8545(4) -0.1174(4)
H11 H 1.0027 0.8616 -0.1885
C22 C 0.9004(4) 0.8738(4) -0.0071(4)
C23 C 0.7572(4) 0.9156(4) -0.0041(4)
C24 C 0.9211(4) 0.8636(4) 0.0976(4)
H12 H 0.8441 0.8748 0.1707
C25 C 0.0726(4) 0.0223(4) 0.4497(4)
K1 K 0.3734(2) 0.15344(19) 0.41305(19)
O1 O 0.2875(4) 0.5708(3) 0.4051(3)
O2 O 0.3882(4) 0.7352(3) 0.3077(3)
O3 O 0.7964(4) 0.2376(3) 0.4217(3)
O4 O 0.5854(4) 0.2055(3) 0.4307(4)
O5 O 0.0514(4) 0.5959(3) 0.3237(3)
O6 O 0.0240(4) 0.4100(3) 0.4012(3)
O7 O 1.2017(3) 0.8070(3) 0.2057(3)
O8 O 0.9724(3) 0.8391(3) 0.3080(3)
O9 O 0.4232(4) 0.1325(3) 0.2072(3)
O10 O 0.5220(3) 0.1429(3) 0.0077(3)
O11 O 0.7517(3) 0.9536(3) -0.1028(3)
O12 O 0.6533(3) 0.9109(3) 0.0989(3)
O13 O 0.0911(4) 0.1290(3) 0.4352(3)
O14 O 0.1617(3) -0.0552(3) 0.3927(3)
O15 O 0.4732(4) -0.0531(3) 0.3587(3)
O16 O 0.2786(4) 0.0352(3) 0.6058(3)
O17 O 0.2262(5) 0.3166(4) 0.5066(4)
Pr1 Pr 0.39826(2) 0.927130(18) 0.186756(19)
Pr2 Pr 0.09399(2) 0.730313(18) 0.440322(19)
C1A C 0.6025(5) 0.3735(4) 0.6551(4)
C2A C 0.4595(5) 0.4330(4) 0.6823(4)
C3A C 0.3349(5) 0.3746(4) 0.7516(5)
H1A H 0.3394 0.2962 0.7808
C4A C 0.2025(6) 0.4342(5) 0.7774(5)
H2A H 0.1190 0.3964 0.8268
C5A C 0.1957(5) 0.5496(4) 0.7295(5)
H3A H 0.1075 0.5884 0.7462
C6A C 0.3197(5) 0.6079(4) 0.6564(4)
C7A C 0.3131(5) 0.7303(4) 0.5971(4)
C8A C 0.4517(5) 0.5500(4) 0.6353(4)
H4A H 0.5350 0.5895 0.5896
C9_2 C 0.0829(5) 1.4887(4) 0.3169(4)
C10_2 C 0.1952(5) 1.4504(4) 0.2026(4)
C11_2 C 0.2348(6) 1.5229(4) 0.0938(5)
H5_2 H 0.1909 1.5971 0.0924
C12_2 C 0.3379(7) 1.4858(5) -0.0110(5)
H6_2 H 0.3601 1.5335 -0.0835
C13_2 C 0.4097(6) 1.3771(4) -0.0099(4)
H7_2 H 0.4813 1.3531 -0.0808
C14_2 C 0.3729(5) 1.3048(4) 0.0987(4)
C15_2 C 0.2642(5) 1.3407(4) 0.2045(4)
H8_2 H 0.2377 1.2913 0.2763
C16_2 C 0.4449(4) 1.1875(4) 0.1042(4)
C17_2 C 0.0782(4) 0.8288(3) 0.2091(4)
C18_2 C 0.0567(4) 0.8366(4) 0.0951(4)
C19_2 C 0.1710(5) 0.8180(4) -0.0143(4)
H9_2 H 0.2618 0.8009 -0.0170
C20_2 C 0.1498(5) 0.8249(5) -0.1194(4)
H10_2 H 0.2260 0.8096 -0.1917
C21_2 C 0.0160(5) 0.8545(4) -0.1174(4)
H11_2 H 0.0027 0.8616 -0.1885
C22_2 C -0.0996(4) 0.8738(4) -0.0071(4)
C23_2 C -0.2428(4) 0.9156(4) -0.0041(4)
C24_2 C -0.0789(4) 0.8636(4) 0.0976(4)
H12_2 H -0.1559 0.8748 0.1707
C25A C -0.0726(4) -0.0223(4) 0.5503(4)
K1A K -0.3734(2) -0.15344(19) 0.58695(19)
K1_2 K 0.3734(2) 1.15344(19) 0.41305(19)
K1A_2 K 0.6266(2) 0.84656(19) 0.58695(19)
O1A O 0.7125(4) 0.4292(3) 0.5949(3)
O2A O 0.6118(4) 0.2648(3) 0.6923(3)
O2_2 O 0.3882(4) -0.2648(3) 0.3077(3)
O3A O 0.2036(4) 0.7624(3) 0.5783(3)
O4A O 0.4146(4) 0.7945(3) 0.5693(4)
O4A_2 O -0.5854(4) -0.2055(3) 0.5693(4)
O5_2 O 0.0514(4) 1.5959(3) 0.3237(3)
O5A O 0.9486(4) 0.4041(3) 0.6763(3)
O6_2 O 0.0240(4) 1.4100(3) 0.4012(3)
O6A O -0.0240(4) 0.5900(3) 0.5988(3)
O6_3 O 1.0240(4) 0.4100(3) 0.4012(3)
O7_2 O 0.2017(3) 0.8070(3) 0.2057(3)
O7_3 O 0.2017(3) -0.1930(3) 0.2057(3)
O7A O 0.7983(3) 0.1930(3) 0.7943(3)
O8_2 O -0.0276(3) 0.8391(3) 0.3080(3)
O8A O 1.0276(3) 0.1609(3) 0.6920(3)
O9_2 O 0.4232(4) 1.1325(3) 0.2072(3)
O9A O -0.4232(4) -0.1325(3) 0.7928(3)
O10_2 O 0.5220(3) 1.1429(3) 0.0077(3)
O10A O 0.4780(3) 0.8571(3) -0.0077(3)
O10A_2 O 0.4780(3) -0.1429(3) -0.0077(3)
O11_2 O -0.2483(3) 0.9536(3) -0.1028(3)
O11A O 0.2483(3) 1.0464(3) 0.1028(3)
O11A_2 O 0.2483(3) 0.0464(3) 0.1028(3)
O12_2 O -0.3467(3) 0.9109(3) 0.0989(3)
O12_3 O 0.6533(3) -0.0891(3) 0.0989(3)
O13A O -0.0911(4) -0.1290(3) 0.5648(3)
O13A_2 O -0.0911(4) 0.8710(3) 0.5648(3)
O13_2 O 1.0911(4) 0.1290(3) 0.4352(3)
O14A O -0.1617(3) 0.0552(3) 0.6073(3)
O14_2 O 0.1617(3) 0.9448(3) 0.3927(3)
O14A_2 O 0.8383(3) 0.0552(3) 0.6073(3)
O15_2 O 0.4732(4) 0.9469(3) 0.3587(3)
O15A O -0.4732(4) 0.0531(3) 0.6413(3)
O16A O -0.2786(4) -0.0352(3) 0.3942(3)
O17A O -0.2262(5) -0.3166(4) 0.4934(4)
Pr1_2 Pr 0.39826(2) -0.072870(18) 0.186756(19)
Pr1_3 Pr 1.39826(2) 0.927130(18) 0.186756(19)
Pr1A Pr 0.60174(2) 0.072870(18) -0.186756(19)
Pr1A_2 Pr 0.60174(2) 1.072870(18) -0.186756(19)
Pr1A_3 Pr -0.39826(2) 0.072870(18) 0.813244(19)
Pr1A_4 Pr -0.39826(2) 1.072870(18) -0.186756(19)
Pr1_4 Pr -0.60174(2) 0.927130(18) 0.186756(19)
Pr1A_5 Pr 0.60174(2) 0.072870(18) 0.813244(19)
Pr2A Pr 0.90601(2) 0.269687(18) 0.559678(19)
Pr2A_2 Pr -0.09399(2) 0.269687(18) 0.559678(19)
Pr2_2 Pr 1.09399(2) 0.730313(18) 0.440322(19)
Pr2_3 Pr 0.09399(2) -0.269687(18) 0.440322(19)
Pr2_4 Pr 0.09399(2) 1.730313(18) 0.440322(19)
Pr2A_3 Pr -0.09399(2) 1.269687(18) 0.559678(19)
loop_
_geom_bond_atom_site_label_1
_geom_bond_atom_site_label_2
_geom_bond_site_symmetry_1
_geom_bond_site_symmetry_2
C1 C2 1_555 1_555
C2 C3 1_555 1_555
C3 H1 1_555 1_555
C4 C3 1_555 1_555
H2 C4 1_555 1_555
C5 C4 1_555 1_555
H3 C5 1_555 1_555
C6 C5 1_555 1_555
C7 C6 1_555 1_555
C8 C2 1_555 1_555
H4 C8 1_555 1_555
C9 C10 1_555 1_555
C10 C11 1_555 1_555
C11 H5 1_555 1_555
C12 C11 1_555 1_555
H6 C12 1_555 1_555
C13 C12 1_555 1_555
H7 C13 1_555 1_555
C14 C13 1_555 1_555
C15 C10 1_555 1_555
H8 C15 1_555 1_555
C16 C14 1_555 1_555
C17 C18 1_555 1_555
C18 C19 1_555 1_555
C19 H9 1_555 1_555
C20 C19 1_555 1_555
H10 C20 1_555 1_555
C21 C20 1_555 1_555
H11 C21 1_555 1_555
C22 C21 1_555 1_555
C23 C22 1_555 1_555
C24 C18 1_555 1_555
H12 C24 1_555 1_555
C25 O13 1_555 1_555
K1 O4 1_555 1_555
O1 C1 1_555 1_555
O2 C1 1_555 1_555
O3 C7 1_555 1_555
O4 C7 1_555 1_555
O5 C9 1_555 1_555
O6 C9 1_555 1_555
O7 C17 1_555 1_555
O8 C17 1_555 1_555
O9 C16 1_555 1_555
O10 C16 1_555 1_555
O11 C23 1_555 1_555
O12 C23 1_555 1_555
O13 K1 1_555 1_555
O14 C25 1_555 1_555
O15 K1 1_555 1_555
O16 K1 1_555 1_555
O17 K1 1_555 1_555
Pr1 O2 1_555 1_555
Pr2 O1 1_555 1_555
C1A C2A 1_555 1_555
C2A C3A 1_555 1_555
C3A H1A 1_555 1_555
C4A C3A 1_555 1_555
H2A C4A 1_555 1_555
C5A C4A 1_555 1_555
H3A C5A 1_555 1_555
C6A C5A 1_555 1_555
C7A C6A 1_555 1_555
C8A C2A 1_555 1_555
H4A C8A 1_555 1_555
C9_2 C10_2 1_555 1_555
C10_2 C11_2 1_555 1_555
C11_2 H5_2 1_555 1_555
C12_2 C11_2 1_555 1_555
H6_2 C12_2 1_555 1_555
C13_2 C12_2 1_555 1_555
H7_2 C13_2 1_555 1_555
C14_2 C13_2 1_555 1_555
C15_2 C10_2 1_555 1_555
H8_2 C15_2 1_555 1_555
C16_2 C14_2 1_555 1_555
C17_2 C18_2 1_555 1_555
C18_2 C19_2 1_555 1_555
C19_2 H9_2 1_555 1_555
C20_2 C19_2 1_555 1_555
H10_2 C20_2 1_555 1_555
C21_2 C20_2 1_555 1_555
H11_2 C21_2 1_555 1_555
C22_2 C21_2 1_555 1_555
C23_2 C22_2 1_555 1_555
C24_2 C18_2 1_555 1_555
H12_2 C24_2 1_555 1_555
C25A C25 1_555 1_555
K1A O4A_2 1_555 1_555
K1_2 O9_2 1_555 1_555
K1A_2 O4A 1_555 1_555
O1A C1A 1_555 1_555
O2A C1A 1_555 1_555
O2_2 Pr1_2 1_555 1_555
O3A Pr2 1_555 1_555
O4A C7A 1_555 1_555
O5_2 C9_2 1_555 1_555
O5A Pr2A 1_555 1_555
O6_2 C9_2 1_555 1_555
O6A Pr2 1_555 1_555
O6_3 Pr2A 1_555 1_555
O7_2 Pr1 1_555 1_555
O7_3 Pr1_2 1_555 1_555
O7A Pr1A_5 1_555 1_555
O8_2 Pr2 1_555 1_555
O8A Pr2A 1_555 1_555
O9_2 Pr1 1_555 1_555
O9A K1A 1_555 1_555
O10_2 C16_2 1_555 1_555
O10A Pr1 1_555 1_555
O10A_2 Pr1_2 1_555 1_555
O11_2 C23_2 1_555 1_555
O11A Pr1 1_555 1_555
O11A_2 Pr1_2 1_555 1_555
O12_2 C23_2 1_555 1_555
O12_3 Pr1_2 1_555 1_555
O13A C25A 1_555 1_555
O13A_2 Pr2 1_555 1_555
O13_2 Pr2A 1_555 1_555
O14A C25A 1_555 1_555
O14_2 Pr1 1_555 1_555
O14A_2 Pr1A_5 1_555 1_555
O15_2 Pr1 1_555 1_555
O15A K1A 1_555 1_555
O16A K1A 1_555 1_555
O17A K1A 1_555 1_555
Pr1_2 O9 1_555 1_555
Pr1_3 O7 1_555 1_555
Pr1A O10 1_555 1_555
Pr1A_2 O11 1_555 1_555
Pr1A_3 O9A 1_555 1_555
Pr1A_4 O11_2 1_555 1_555
Pr1_4 O12_2 1_555 1_555
Pr1A_5 O2A 1_555 1_555
Pr2A O3 1_555 1_555
Pr2A_2 O6 1_555 1_555
Pr2_2 O7 1_555 1_555
Pr2_3 O14 1_555 1_555
Pr2_4 O5_2 1_555 1_555
Pr2A_3 O6_2 1_555 1_555
C6 C8 1_555 1_555
C14 C15 1_555 1_555
C22 C24 1_555 1_555
K1 O9 1_555 1_555
O2 Pr2 1_555 1_555
O5 Pr2 1_555 1_555
O8 Pr2_2 1_555 1_555
O12 Pr1 1_555 1_555
O13 Pr2A_2 1_555 1_555
O14 Pr1_2 1_555 1_555
O15 Pr1_2 1_555 1_555
Pr2 O7_2 1_555 1_555
Pr2 O14_2 1_555 1_555
C6A C8A 1_555 1_555
C7A O3A 1_555 1_555
C14_2 C15_2 1_555 1_555
C16_2 O9_2 1_555 1_555
C17_2 O7_2 1_555 1_555
C17_2 O8_2 1_555 1_555
C22_2 C24_2 1_555 1_555
K1A O13A 1_555 1_555
K1_2 O15_2 1_555 1_555
O1A Pr2A 1_555 1_555
O2A Pr2A 1_555 1_555
O2_2 Pr2_3 1_555 1_555
O7_3 Pr2_3 1_555 1_555
O7A Pr2A 1_555 1_555
O10_2 Pr1A_2 1_555 1_555
O13A Pr2_3 1_555 1_555
O14A Pr1A_3 1_555 1_555
O14A Pr2A_2 1_555 1_555
O14A_2 Pr2A 1_555 1_555
O15A Pr1A_3 1_555 1_555

#END
