
#######################################################################
#
#                 Cambridge Crystallographic Data Centre
#                                CCDC 
#
#######################################################################
#
# If this CIF has been generated from an entry in the Cambridge 
# Structural Database, then it will include bibliographic, chemical, 
# crystal, experimental, refinement or atomic coordinate data resulting 
# from the CCDC's data processing and validation procedures.
#
#######################################################################

data_NULYUQ
_symmetry_cell_setting           monoclinic
_symmetry_space_group_name_H-M   'C 2/c'
_symmetry_Int_Tables_number      15
_space_group_name_Hall           '-C 2yn'
loop_
_symmetry_equiv_pos_site_id
_symmetry_equiv_pos_as_xyz
1 x,y,z
2 -x,y,1/2-z
3 1/2+x,1/2+y,z
4 1/2-x,1/2+y,1/2-z
5 -x,-y,-z
6 x,-y,1/2+z
7 1/2-x,1/2-y,-z
8 1/2+x,1/2-y,1/2+z
_cell_length_a                   19.599(4)
_cell_length_b                   11.351(2)
_cell_length_c                   23.735(5)
_cell_angle_alpha                90
_cell_angle_beta                 92.31(3)
_cell_angle_gamma                90
_cell_volume                     5275.99
loop_
_atom_site_label
_atom_site_type_symbol
_atom_site_fract_x
_atom_site_fract_y
_atom_site_fract_z
Eu1 Eu 0.090179(10) 0.492241(19) 0.042617(9)
S1 S 0.00281(6) 0.60724(10) 0.20718(4)
S2 S 0.10313(7) 0.36379(12) 0.24749(5)
S3 S 0.11060(7) 0.35392(11) 0.33322(5)
O1 O 0.00472(16) 0.5958(3) 0.09186(13)
O2 O -0.09625(16) 0.6036(3) 0.04450(13)
O3 O 0.1075(2) 0.4143(3) 0.13717(14)
O4 O 0.1415(2) 0.2990(3) 0.07039(15)
O5 O 0.12135(17) 0.3379(3) 0.46232(15)
O6 O 0.01482(15) 0.3859(3) 0.47405(14)
N1 N 0.1480(2) 0.6751(4) 0.08734(18)
N2 N 0.2346(3) 0.7963(4) 0.0979(2)
H1 H 0.2748 0.8257 0.0951
N3 N 0.2186(2) 0.5054(3) 0.0306(2)
N4 N 0.3135(2) 0.6095(5) 0.0288(2)
H2 H 0.3421 0.6663 0.0344
C1 C 0.1387(2) 0.3237(4) 0.1220(2)
C2 C 0.1748(2) 0.2489(4) 0.1657(2)
C3 C 0.2228(3) 0.1685(4) 0.1479(2)
H3 H 0.2282 0.1580 0.1095
C4 C 0.2629(3) 0.1035(5) 0.1860(2)
H4 H 0.2956 0.0517 0.1733
C5 C 0.2535(3) 0.1166(5) 0.2431(2)
H5 H 0.2800 0.0733 0.2691
C6 C 0.2047(3) 0.1942(5) 0.2615(2)
H6 H 0.1976 0.2010 0.2999
C7 C 0.1662(2) 0.2621(4) 0.2234(2)
C8 C 0.0590(2) 0.3255(4) 0.44987(19)
C9 C 0.0374(2) 0.2332(4) 0.4089(2)
C10 C -0.0041(3) 0.1423(5) 0.4267(2)
H7 H -0.0189 0.1415 0.4635
C11 C -0.0232(3) 0.0538(6) 0.3901(3)
H8 H -0.0518 -0.0060 0.4019
C12 C -0.0003(3) 0.0528(6) 0.3356(3)
H9 H -0.0123 -0.0090 0.3115
C13 C 0.0400(3) 0.1430(5) 0.3171(2)
H10 H 0.0544 0.1434 0.2803
C14 C 0.0590(2) 0.2328(4) 0.3537(2)
C15 C -0.0559(2) 0.6310(4) 0.08490(18)
C16 C -0.0810(2) 0.7152(4) 0.12762(18)
C17 C -0.1310(3) 0.7990(5) 0.1090(2)
H11 H -0.1467 0.7998 0.0715
C18 C -0.1562(3) 0.8789(5) 0.1466(3)
H12 H -0.1878 0.9351 0.1340
C19 C -0.1355(3) 0.8766(5) 0.2020(2)
H13 H -0.1535 0.9301 0.2271
C20 C -0.0878(2) 0.7946(5) 0.2208(2)
H14 H -0.0745 0.7930 0.2588
C21 C -0.0594(2) 0.7146(4) 0.18445(18)
C22 C 0.2123(3) 0.6923(4) 0.0767(2)
C23 C 0.1279(3) 0.7714(5) 0.1185(2)
H15 H 0.0849 0.7830 0.1328
C24 C 0.1817(4) 0.8455(5) 0.1243(3)
H16 H 0.1822 0.9174 0.1432
C25 C 0.2491(2) 0.6054(4) 0.0456(2)
C26 C 0.3253(4) 0.5065(6) 0.0011(4)
H17 H 0.3654 0.4838 -0.0157
C27 C 0.2664(3) 0.4442(6) 0.0030(2)
H18 H 0.2598 0.3695 -0.0124
S1A S -0.00281(6) 0.60724(10) 0.29282(4)
O1A O -0.00472(16) 0.5958(3) 0.40814(13)
O2A O 0.09625(16) 0.6036(3) 0.45550(13)
C15A C 0.0559(2) 0.6310(4) 0.41510(18)
C16A C 0.0810(2) 0.7152(4) 0.37238(18)
C17A C 0.1310(3) 0.7990(5) 0.3910(2)
H11A H 0.1467 0.7998 0.4285
C18A C 0.1562(3) 0.8789(5) 0.3534(3)
H12A H 0.1878 0.9351 0.3660
C19A C 0.1355(3) 0.8766(5) 0.2980(2)
H13A H 0.1535 0.9301 0.2729
C20A C 0.0878(2) 0.7946(5) 0.2792(2)
H14A H 0.0745 0.7930 0.2412
C21A C 0.0594(2) 0.7146(4) 0.31555(18)
Eu1A Eu -0.090179(10) 0.492241(19) 0.457383(9)
S2A S -0.10313(7) 0.36379(12) 0.25251(5)
S3A S -0.11060(7) 0.35392(11) 0.16678(5)
O3A O -0.1075(2) 0.4143(3) 0.36283(14)
O4A O -0.1415(2) 0.2990(3) 0.42961(15)
O5A O -0.12135(17) 0.3379(3) 0.03768(15)
O6A O -0.01482(15) 0.3859(3) 0.02595(14)
N1A N -0.1480(2) 0.6751(4) 0.41266(18)
N2A N -0.2346(3) 0.7963(4) 0.4021(2)
H1A H -0.2748 0.8257 0.4049
N3A N -0.2186(2) 0.5054(3) 0.4694(2)
N4A N -0.3135(2) 0.6095(5) 0.4712(2)
H2A H -0.3421 0.6663 0.4656
C1A C -0.1387(2) 0.3237(4) 0.3780(2)
C2A C -0.1748(2) 0.2489(4) 0.3343(2)
C3A C -0.2228(3) 0.1685(4) 0.3521(2)
H3A H -0.2282 0.1580 0.3905
C4A C -0.2629(3) 0.1035(5) 0.3140(2)
H4A H -0.2956 0.0517 0.3267
C5A C -0.2535(3) 0.1166(5) 0.2569(2)
H5A H -0.2800 0.0733 0.2309
C6A C -0.2047(3) 0.1942(5) 0.2385(2)
H6A H -0.1976 0.2010 0.2001
C7A C -0.1662(2) 0.2621(4) 0.2766(2)
C8A C -0.0590(2) 0.3255(4) 0.05013(19)
C9A C -0.0374(2) 0.2332(4) 0.0911(2)
C10A C 0.0041(3) 0.1423(5) 0.0733(2)
H7A H 0.0189 0.1415 0.0365
C11A C 0.0232(3) 0.0538(6) 0.1099(3)
H8A H 0.0518 -0.0060 0.0981
C12A C 0.0003(3) 0.0528(6) 0.1644(3)
H9A H 0.0123 -0.0090 0.1885
C13A C -0.0400(3) 0.1430(5) 0.1829(2)
H10A H -0.0544 0.1434 0.2197
C14A C -0.0590(2) 0.2328(4) 0.1463(2)
C22A C -0.2123(3) 0.6923(4) 0.4233(2)
C23A C -0.1279(3) 0.7714(5) 0.3815(2)
H15A H -0.0849 0.7830 0.3672
C24A C -0.1817(4) 0.8455(5) 0.3757(3)
H16A H -0.1822 0.9174 0.3568
C25A C -0.2491(2) 0.6054(4) 0.4544(2)
C26A C -0.3253(4) 0.5065(6) 0.4989(4)
H17A H -0.3654 0.4838 0.5157
C27A C -0.2664(3) 0.4442(6) 0.4970(2)
H18A H -0.2598 0.3695 0.5124
Eu1D Eu -0.090179(10) 0.507759(19) -0.042617(9)
Eu1E Eu 0.090179(10) 0.507759(19) 0.542617(9)
O2D O 0.09625(16) 0.3964(3) -0.04450(13)
O2E O -0.09625(16) 0.3964(3) 0.54450(13)
O5D O -0.12135(17) 0.6621(3) 0.53768(15)
O5E O 0.12135(17) 0.6621(3) -0.03768(15)
O6D O -0.01482(15) 0.6141(3) 0.52595(14)
O6E O 0.01482(15) 0.6141(3) -0.02595(14)
loop_
_geom_bond_atom_site_label_1
_geom_bond_atom_site_label_2
_geom_bond_site_symmetry_1
_geom_bond_site_symmetry_2
Eu1 O1 1_555 1_555
S1 C21 1_555 1_555
S2 S3 1_555 1_555
S3 C14 1_555 1_555
O1 C15 1_555 1_555
O2 C15 1_555 1_555
O3 Eu1 1_555 1_555
O4 Eu1 1_555 1_555
O5 C8 1_555 1_555
O6 C8 1_555 1_555
N1 Eu1 1_555 1_555
N2 H1 1_555 1_555
N3 Eu1 1_555 1_555
N4 H2 1_555 1_555
C1 O3 1_555 1_555
C2 C1 1_555 1_555
C3 C2 1_555 1_555
H3 C3 1_555 1_555
C4 C3 1_555 1_555
H4 C4 1_555 1_555
C5 C4 1_555 1_555
H5 C5 1_555 1_555
C6 C5 1_555 1_555
H6 C6 1_555 1_555
C7 S2 1_555 1_555
C8 C9 1_555 1_555
C9 C10 1_555 1_555
C10 H7 1_555 1_555
C11 C10 1_555 1_555
H8 C11 1_555 1_555
C12 C11 1_555 1_555
H9 C12 1_555 1_555
C13 C12 1_555 1_555
H10 C13 1_555 1_555
C14 C9 1_555 1_555
C15 C16 1_555 1_555
C16 C17 1_555 1_555
C17 H11 1_555 1_555
C18 C17 1_555 1_555
H12 C18 1_555 1_555
C19 C18 1_555 1_555
H13 C19 1_555 1_555
C20 C19 1_555 1_555
H14 C20 1_555 1_555
C21 C16 1_555 1_555
C22 N1 1_555 1_555
C23 N1 1_555 1_555
H15 C23 1_555 1_555
C24 N2 1_555 1_555
H16 C24 1_555 1_555
C25 N3 1_555 1_555
C26 N4 1_555 1_555
H17 C26 1_555 1_555
C27 N3 1_555 1_555
H18 C27 1_555 1_555
S1A S1 1_555 1_555
O1A C15A 1_555 1_555
O2A C15A 1_555 1_555
C15A C16A 1_555 1_555
C16A C17A 1_555 1_555
C17A H11A 1_555 1_555
C18A C17A 1_555 1_555
H12A C18A 1_555 1_555
C19A C18A 1_555 1_555
H13A C19A 1_555 1_555
C20A C19A 1_555 1_555
H14A C20A 1_555 1_555
C21A S1A 1_555 1_555
Eu1A O6 1_555 1_555
S2A S3A 1_555 1_555
S3A C14A 1_555 1_555
O3A Eu1A 1_555 1_555
O4A Eu1A 1_555 1_555
O5A C8A 1_555 1_555
O6A Eu1 1_555 1_555
N1A Eu1A 1_555 1_555
N2A H1A 1_555 1_555
N3A Eu1A 1_555 1_555
N4A H2A 1_555 1_555
C1A O3A 1_555 1_555
C2A C1A 1_555 1_555
C3A C2A 1_555 1_555
H3A C3A 1_555 1_555
C4A C3A 1_555 1_555
H4A C4A 1_555 1_555
C5A C4A 1_555 1_555
H5A C5A 1_555 1_555
C6A C5A 1_555 1_555
H6A C6A 1_555 1_555
C7A S2A 1_555 1_555
C8A O6A 1_555 1_555
C9A C8A 1_555 1_555
C10A C9A 1_555 1_555
H7A C10A 1_555 1_555
C11A C10A 1_555 1_555
H8A C11A 1_555 1_555
C12A C11A 1_555 1_555
H9A C12A 1_555 1_555
C13A C12A 1_555 1_555
H10A C13A 1_555 1_555
C14A C9A 1_555 1_555
C22A N1A 1_555 1_555
C23A N1A 1_555 1_555
H15A C23A 1_555 1_555
C24A N2A 1_555 1_555
H16A C24A 1_555 1_555
C25A N3A 1_555 1_555
C26A N4A 1_555 1_555
H17A C26A 1_555 1_555
C27A N3A 1_555 1_555
H18A C27A 1_555 1_555
Eu1D O2 1_555 1_555
Eu1E O5 1_555 1_555
O2D Eu1 1_555 1_555
O2E Eu1A 1_555 1_555
O5D Eu1A 1_555 1_555
O5E Eu1 1_555 1_555
O6D Eu1A 1_555 1_555
O6E Eu1 1_555 1_555
O4 C1 1_555 1_555
O6 Eu1E 1_555 1_555
N2 C22 1_555 1_555
N4 C25 1_555 1_555
C2 C7 1_555 1_555
C6 C7 1_555 1_555
C13 C14 1_555 1_555
C20 C21 1_555 1_555
C22 C25 1_555 1_555
C23 C24 1_555 1_555
C26 C27 1_555 1_555
O1A Eu1A 1_555 1_555
O2A Eu1E 1_555 1_555
C16A C21A 1_555 1_555
C20A C21A 1_555 1_555
O4A C1A 1_555 1_555
O5A Eu1D 1_555 1_555
O6A Eu1D 1_555 1_555
N2A C22A 1_555 1_555
N4A C25A 1_555 1_555
C2A C7A 1_555 1_555
C6A C7A 1_555 1_555
C13A C14A 1_555 1_555
C22A C25A 1_555 1_555
C23A C24A 1_555 1_555
C26A C27A 1_555 1_555
Eu1D O6E 1_555 1_555
Eu1E O6D 1_555 1_555

#END
