
#######################################################################
#
#                 Cambridge Crystallographic Data Centre
#                                CCDC 
#
#######################################################################
#
# If this CIF has been generated from an entry in the Cambridge 
# Structural Database, then it will include bibliographic, chemical, 
# crystal, experimental, refinement or atomic coordinate data resulting 
# from the CCDC's data processing and validation procedures.
#
#######################################################################

data_NUMMAK
_symmetry_cell_setting           monoclinic
_symmetry_space_group_name_H-M   'P 21/c'
_symmetry_Int_Tables_number      14
_space_group_name_Hall           '-P 2ybc'
loop_
_symmetry_equiv_pos_site_id
_symmetry_equiv_pos_as_xyz
1 x,y,z
2 -x,1/2+y,1/2-z
3 -x,-y,-z
4 x,1/2-y,1/2+z
_cell_length_a                   6.540(3)
_cell_length_b                   28.999(12)
_cell_length_c                   12.309(5)
_cell_angle_alpha                90
_cell_angle_beta                 119.858(18)
_cell_angle_gamma                90
_cell_volume                     2024.57
loop_
_atom_site_label
_atom_site_type_symbol
_atom_site_fract_x
_atom_site_fract_y
_atom_site_fract_z
Er1 Er 0.20240(7) -0.078685(15) -0.03806(4)
O1 O -0.0976(13) -0.0307(2) -0.1879(8)
O2 O 0.2389(13) -0.0263(3) -0.1819(8)
O3 O 0.2396(15) -0.1362(3) -0.1680(8)
O4 O -0.0791(14) -0.1385(3) -0.1555(8)
O5 O 0.3328(15) -0.1337(3) 0.1205(8)
O6 O -0.0634(13) -0.0722(2) 0.0319(8)
O7 O 0.3535(14) -0.0214(3) 0.1114(8)
O8 O -0.3992(15) -0.0782(2) 0.0356(8)
N1 N -0.3934(17) 0.1101(3) -0.6408(9)
H1 H -0.3118 0.1216 -0.6716
H2 H -0.5401 0.1170 -0.6732
N2 N -0.2901(18) -0.3086(4) -0.5256(11)
H3 H -0.4247 -0.3204 -0.5452
H4 H -0.2104 -0.3192 -0.5584
N3 N 0.359(2) -0.1651(4) 0.2949(10)
C1 C 0.0305(17) -0.0126(3) -0.2280(10)
C2 C -0.0721(17) 0.0223(3) -0.3309(10)
C3 C -0.305(2) 0.0349(4) -0.3816(12)
H5 H -0.3917 0.0232 -0.3468
C4 C -0.413(2) 0.0645(5) -0.4831(12)
H6 H -0.5682 0.0735 -0.5129
C5 C -0.290(2) 0.0811(4) -0.5411(11)
C6 C -0.055(2) 0.0692(5) -0.4866(15)
H7 H 0.0340 0.0811 -0.5200
C7 C 0.054(2) 0.0398(5) -0.3826(13)
H8 H 0.2125 0.0323 -0.3487
C8 C 0.0435(19) -0.1549(4) -0.1984(11)
C9 C -0.0374(19) -0.1957(4) -0.2820(10)
C10 C -0.2504(19) -0.2178(4) -0.3109(12)
H9 H -0.3396 -0.2067 -0.2767
C11 C -0.329(2) -0.2555(4) -0.3890(11)
H10 H -0.4693 -0.2695 -0.4058
C12 C -0.204(2) -0.2733(4) -0.4433(12)
C13 C 0.010(2) -0.2498(4) -0.4154(12)
H11 H 0.0969 -0.2598 -0.4521
C14 C 0.087(2) -0.2136(4) -0.3372(13)
H12 H 0.2294 -0.1999 -0.3191
C15 C 0.249(2) -0.1438(5) 0.1898(12)
H13 H 0.0940 -0.1350 0.1626
C16 C 0.601(3) -0.1770(7) 0.3461(18)
H14 H 0.6565 -0.1661 0.2917
H15 H 0.6181 -0.2099 0.3540
H16 H 0.6918 -0.1631 0.4271
C17 C 0.237(3) -0.1786(5) 0.3626(15)
H17 H 0.0764 -0.1684 0.3170
H18 H 0.3141 -0.1647 0.4442
H19 H 0.2415 -0.2115 0.3711
C18 C -0.281(2) -0.0770(3) -0.0173(12)
H20 H -0.36(3) -0.080(4) -0.109(18)
H21 H 0.491(15) -0.006(5) 0.154(14)
H22 H 0.32(3) -0.004(4) 0.160(13)
Er1_2 Er -0.79760(7) -0.078685(15) -0.03806(4)
O8_2 O 0.6008(15) -0.0782(2) 0.0356(8)
loop_
_geom_bond_atom_site_label_1
_geom_bond_atom_site_label_2
_geom_bond_site_symmetry_1
_geom_bond_site_symmetry_2
Er1 O1 1_555 1_555
O1 C1 1_555 1_555
O2 Er1 1_555 1_555
O3 Er1 1_555 1_555
O4 Er1 1_555 1_555
O5 Er1 1_555 1_555
O6 Er1 1_555 1_555
O7 Er1 1_555 1_555
O8 C18 1_555 1_555
N1 H1 1_555 1_555
H2 N1 1_555 1_555
N2 H3 1_555 1_555
H4 N2 1_555 1_555
N3 C15 1_555 1_555
C1 O2 1_555 1_555
C2 C1 1_555 1_555
C3 C2 1_555 1_555
H5 C3 1_555 1_555
C4 C3 1_555 1_555
H6 C4 1_555 1_555
C5 N1 1_555 1_555
C6 C5 1_555 1_555
H7 C6 1_555 1_555
C7 C2 1_555 1_555
H8 C7 1_555 1_555
C8 O3 1_555 1_555
C9 C8 1_555 1_555
C10 C9 1_555 1_555
H9 C10 1_555 1_555
C11 C10 1_555 1_555
H10 C11 1_555 1_555
C12 N2 1_555 1_555
C13 C12 1_555 1_555
H11 C13 1_555 1_555
C14 C9 1_555 1_555
H12 C14 1_555 1_555
C15 O5 1_555 1_555
H13 C15 1_555 1_555
C16 N3 1_555 1_555
H14 C16 1_555 1_555
H15 C16 1_555 1_555
H16 C16 1_555 1_555
C17 N3 1_555 1_555
H17 C17 1_555 1_555
H18 C17 1_555 1_555
H19 C17 1_555 1_555
C18 O6 1_555 1_555
H20 C18 1_555 1_555
H21 O7 1_555 1_555
H22 O7 1_555 1_555
Er1_2 O8 1_555 1_555
O8_2 Er1 1_555 1_555
O4 C8 1_555 1_555
C4 C5 1_555 1_555
C6 C7 1_555 1_555
C11 C12 1_555 1_555
C13 C14 1_555 1_555

#END
