
#######################################################################
#
#                 Cambridge Crystallographic Data Centre
#                                CCDC 
#
#######################################################################
#
# If this CIF has been generated from an entry in the Cambridge 
# Structural Database, then it will include bibliographic, chemical, 
# crystal, experimental, refinement or atomic coordinate data resulting 
# from the CCDC's data processing and validation procedures.
#
#######################################################################

data_NUMNUF
_symmetry_cell_setting           triclinic
_symmetry_space_group_name_H-M   'P -1'
_symmetry_Int_Tables_number      2
_space_group_name_Hall           '-P 1'
loop_
_symmetry_equiv_pos_site_id
_symmetry_equiv_pos_as_xyz
1 x,y,z
2 -x,-y,-z
_cell_length_a                   10.2755(9)
_cell_length_b                   14.3255(12)
_cell_length_c                   15.8554(14)
_cell_angle_alpha                100.651(1)
_cell_angle_beta                 92.172(2)
_cell_angle_gamma                107.311(1)
_cell_volume                     2179.07
loop_
_atom_site_label
_atom_site_type_symbol
_atom_site_fract_x
_atom_site_fract_y
_atom_site_fract_z
C1 C 0.3146(5) 0.0609(3) -0.2564(3)
C2 C 0.4283(5) 0.1532(3) -0.2638(3)
C3 C 0.5483(5) 0.1454(3) -0.2989(3)
H1 H 0.5589 0.0828 -0.3177
C4 C 0.6497(5) 0.2295(3) -0.3055(3)
H2 H 0.7287 0.2231 -0.3293
C5 C 0.6391(5) 0.3232(3) -0.2782(3)
C6 C 0.5200(5) 0.3318(3) -0.2423(3)
H3 H 0.5108 0.3946 -0.2229
C7 C 0.4160(5) 0.2471(3) -0.2355(3)
H4 H 0.3369 0.2534 -0.2117
C8 C 0.7530(5) 0.4165(3) -0.2847(3)
C9 C -0.7578(5) -0.3273(3) -0.2671(3)
C10 C -0.6071(4) -0.2897(3) -0.2520(3)
C11 C -0.5291(5) -0.3544(3) -0.2506(3)
H5 H -0.5740 -0.4223 -0.2558
C12 C -0.3890(5) -0.3214(3) -0.2416(3)
H6 H -0.3407 -0.3668 -0.2404
C13 C -0.3177(4) -0.2200(3) -0.2343(3)
C14 C -0.3953(5) -0.1547(3) -0.2334(3)
H7 H -0.3504 -0.0865 -0.2261
C15 C -0.5361(4) -0.1882(3) -0.2429(3)
H8 H -0.5846 -0.1428 -0.2432
C16 C -0.1672(4) -0.1841(3) -0.2301(3)
C17 C 0.2462(5) -0.1410(4) -0.0646(3)
H9 H 0.2848 -0.1884 -0.0913
C18 C 0.1402(6) -0.0334(4) -0.0448(3)
H10 H 0.0911 0.0090 -0.0556
C19 C 0.1836(6) -0.0414(4) 0.0346(3)
H11 H 0.1692 -0.0071 0.0874
C20 C 0.3169(6) -0.1432(4) 0.0897(3)
H12 H 0.2468 -0.1742 0.1240
H13 H 0.3813 -0.0853 0.1272
C21 C 0.3906(5) -0.2157(4) 0.0552(3)
C22 C 0.5241(5) -0.1784(4) 0.0348(3)
H14 H 0.5637 -0.1095 0.0434
C23 C 0.6010(6) -0.2393(4) 0.0019(3)
H15 H 0.6909 -0.2126 -0.0099
C24 C 0.5382(6) -0.3408(4) -0.0122(3)
H16 H 0.5855 -0.3838 -0.0362
C25 C 0.4073(6) -0.3800(4) 0.0081(3)
H17 H 0.3688 -0.4490 -0.0014
C26 C 0.3302(5) -0.3194(4) 0.0426(3)
C27 C 0.1886(5) -0.3660(4) 0.0641(4)
H18 H 0.1774 -0.4342 0.0696
H19 H 0.1741 -0.3293 0.1189
C28 C -0.0268(5) -0.3306(4) 0.0069(3)
H20 H -0.0566 -0.3060 0.0585
C29 C -0.0829(5) -0.3402(4) -0.0736(3)
H21 H -0.1584 -0.3204 -0.0865
C30 C 0.0831(5) -0.3968(4) -0.0883(3)
H22 H 0.1453 -0.4264 -0.1133
C31 C -0.0756(5) -0.1502(4) -0.4260(3)
H23 H -0.1539 -0.1638 -0.3970
C32 C 0.1359(5) -0.1140(4) -0.4554(3)
H24 H 0.2307 -0.0993 -0.4495
C33 C 0.0573(5) -0.1233(4) -0.5296(3)
H25 H 0.0879 -0.1146 -0.5829
C34 C -0.1977(5) -0.1676(4) -0.5717(3)
H26 H -0.1953 -0.2179 -0.6214
H27 H -0.1931 -0.1068 -0.5918
C35 C -0.3321(5) -0.2027(4) -0.5335(3)
C36 C -0.3814(5) -0.1303(4) -0.4933(3)
H28 H -0.3330 -0.0634 -0.4901
C37 C -0.5063(5) -0.1566(4) -0.4565(3)
H29 H -0.5405 -0.1074 -0.4282
C38 C -0.5765(6) -0.2550(4) -0.4628(3)
H30 H -0.6596 -0.2721 -0.4390
C39 C -0.5294(6) -0.3284(4) -0.5023(3)
H31 H -0.5802 -0.3950 -0.5062
C40 C -0.3962(5) -0.3026(4) -0.5395(3)
C41 C -0.3440(6) -0.3838(4) -0.5799(4)
H32 H -0.4169 -0.4469 -0.5881
H33 H -0.3173 -0.3734 -0.6363
C42 C -0.2179(5) -0.3982(4) -0.4467(3)
H34 H -0.2915 -0.4041 -0.4135
C43 C -0.0986(6) -0.3834(4) -0.5536(3)
H35 H -0.0693 -0.3763 -0.6075
C44 C -0.0246(6) -0.3892(4) -0.4849(3)
H36 H 0.0665 -0.3877 -0.4845
Cd1 Cd 0.11668(4) -0.11630(2) -0.24841(2)
Cd2 Cd -0.04457(4) -0.40589(2) -0.27951(2)
N1 N 0.1788(4) -0.0960(3) -0.1058(3)
N2 N 0.2526(5) -0.1100(3) 0.0211(3)
N3 N -0.0161(4) -0.3819(3) -0.1330(3)
N4 N 0.0861(4) -0.3656(3) -0.0042(3)
N5 N 0.0495(4) -0.1305(3) -0.3895(2)
N6 N -0.0760(4) -0.1482(3) -0.5100(2)
N7 N -0.0974(4) -0.3976(3) -0.4165(2)
N8 N -0.2269(5) -0.3898(3) -0.5286(3)
O1 O 0.2081(3) 0.0698(2) -0.2288(2)
O2 O 0.3362(3) -0.0215(2) -0.2784(2)
O3 O 0.7230(3) 0.4965(2) -0.2792(2)
O4 O 0.8693(3) 0.4106(2) -0.2957(2)
O5 O -0.8235(3) -0.2667(2) -0.2727(2)
O6 O -0.8189(3) -0.4192(2) -0.2771(2)
O7 O -0.1050(3) -0.0915(2) -0.2171(2)
O8 O -0.1026(3) -0.2469(2) -0.2437(2)
Cd1_2 Cd -0.88332(4) -0.11630(2) -0.24841(2)
Cd2_2 Cd 0.95543(4) 0.59411(2) -0.27951(2)
Cd2_3 Cd -1.04457(4) -0.40589(2) -0.27951(2)
O3_2 O -0.2770(3) -0.5035(2) -0.2792(2)
O4_2 O -0.1307(3) -0.5894(2) -0.2957(2)
O5_2 O 0.1765(3) -0.2667(2) -0.2727(2)
O6_2 O 0.1811(3) -0.4192(2) -0.2771(2)
O9 O -0.0001(9) -0.7033(6) -0.2298(5)
H37 H 0.0251 -0.6417 -0.2318
H38 H 0.0167 -0.7369 -0.2758
O10 O 0.2487(12) -0.5668(8) -0.1994(7)
H39 H 0.1699 -0.6102 -0.2095
H40 H 0.3074 -0.5937 -0.1852
O11 O 0.9539(12) -0.9019(8) -0.2549(7)
H41 H 1.0014 -0.9416 -0.2559
H42 H 0.9001 -0.9096 -0.2156
loop_
_geom_bond_atom_site_label_1
_geom_bond_atom_site_label_2
_geom_bond_site_symmetry_1
_geom_bond_site_symmetry_2
C1 C2 1_555 1_555
C2 C3 1_555 1_555
C3 H1 1_555 1_555
C4 C3 1_555 1_555
H2 C4 1_555 1_555
C5 C4 1_555 1_555
C6 C5 1_555 1_555
H3 C6 1_555 1_555
C7 C2 1_555 1_555
H4 C7 1_555 1_555
C8 C5 1_555 1_555
C9 C10 1_555 1_555
C10 C11 1_555 1_555
C11 H5 1_555 1_555
C12 C11 1_555 1_555
H6 C12 1_555 1_555
C13 C12 1_555 1_555
C14 C13 1_555 1_555
H7 C14 1_555 1_555
C15 C10 1_555 1_555
H8 C15 1_555 1_555
C16 C13 1_555 1_555
C17 H9 1_555 1_555
C18 H10 1_555 1_555
C19 C18 1_555 1_555
H11 C19 1_555 1_555
C20 H12 1_555 1_555
H13 C20 1_555 1_555
C21 C20 1_555 1_555
C22 C21 1_555 1_555
H14 C22 1_555 1_555
C23 C22 1_555 1_555
H15 C23 1_555 1_555
C24 C23 1_555 1_555
H16 C24 1_555 1_555
C25 C24 1_555 1_555
H17 C25 1_555 1_555
C26 C21 1_555 1_555
C27 C26 1_555 1_555
H18 C27 1_555 1_555
H19 C27 1_555 1_555
C28 H20 1_555 1_555
C29 C28 1_555 1_555
H21 C29 1_555 1_555
C30 H22 1_555 1_555
C31 H23 1_555 1_555
C32 H24 1_555 1_555
C33 C32 1_555 1_555
H25 C33 1_555 1_555
C34 H26 1_555 1_555
H27 C34 1_555 1_555
C35 C34 1_555 1_555
C36 C35 1_555 1_555
H28 C36 1_555 1_555
C37 C36 1_555 1_555
H29 C37 1_555 1_555
C38 C37 1_555 1_555
H30 C38 1_555 1_555
C39 C38 1_555 1_555
H31 C39 1_555 1_555
C40 C35 1_555 1_555
C41 C40 1_555 1_555
H32 C41 1_555 1_555
H33 C41 1_555 1_555
C42 H34 1_555 1_555
C43 H35 1_555 1_555
C44 C43 1_555 1_555
H36 C44 1_555 1_555
Cd1 N1 1_555 1_555
Cd2 N3 1_555 1_555
N1 C17 1_555 1_555
N2 C17 1_555 1_555
N3 C29 1_555 1_555
N4 C27 1_555 1_555
N5 C31 1_555 1_555
N6 C31 1_555 1_555
N7 C42 1_555 1_555
N8 C41 1_555 1_555
O1 C1 1_555 1_555
O2 C1 1_555 1_555
O3 C8 1_555 1_555
O4 C8 1_555 1_555
O5 C9 1_555 1_555
O6 C9 1_555 1_555
O7 C16 1_555 1_555
O8 C16 1_555 1_555
O9 H37 1_555 1_555
H38 O9 1_555 1_555
O10 H39 1_555 1_555
H40 O10 1_555 1_555
O11 H41 1_555 1_555
H42 O11 1_555 1_555
Cd1_2 O5 1_555 1_555
Cd2_2 O3 1_555 1_555
Cd2_3 O5 1_555 1_555
O3_2 Cd2 1_555 1_555
O4_2 Cd2 1_555 1_555
O5_2 Cd1 1_555 1_555
O6_2 Cd2 1_555 1_555
C6 C7 1_555 1_555
C14 C15 1_555 1_555
C18 N1 1_555 1_555
C19 N2 1_555 1_555
C20 N2 1_555 1_555
C25 C26 1_555 1_555
C28 N4 1_555 1_555
C30 N3 1_555 1_555
C30 N4 1_555 1_555
C32 N5 1_555 1_555
C33 N6 1_555 1_555
C34 N6 1_555 1_555
C39 C40 1_555 1_555
C42 N8 1_555 1_555
C43 N8 1_555 1_555
C44 N7 1_555 1_555
Cd1 N5 1_555 1_555
Cd1 O1 1_555 1_555
Cd1 O2 1_555 1_555
Cd1 O7 1_555 1_555
Cd1 O8 1_555 1_555
Cd2 N7 1_555 1_555
Cd2 O8 1_555 1_555
Cd2 O5_2 1_555 1_555
O4 Cd2_2 1_555 1_555
O6 Cd2_3 1_555 1_555

#END
