
#######################################################################
#
#                 Cambridge Crystallographic Data Centre
#                                CCDC 
#
#######################################################################
#
# If this CIF has been generated from an entry in the Cambridge 
# Structural Database, then it will include bibliographic, chemical, 
# crystal, experimental, refinement or atomic coordinate data resulting 
# from the CCDC's data processing and validation procedures.
#
#######################################################################

data_NUMNIT
_symmetry_cell_setting           monoclinic
_symmetry_space_group_name_H-M   'C 2/c'
_symmetry_Int_Tables_number      15
_space_group_name_Hall           '-C 2yn'
loop_
_symmetry_equiv_pos_site_id
_symmetry_equiv_pos_as_xyz
1 x,y,z
2 -x,y,1/2-z
3 1/2+x,1/2+y,z
4 1/2-x,1/2+y,1/2-z
5 -x,-y,-z
6 x,-y,1/2+z
7 1/2-x,1/2-y,-z
8 1/2+x,1/2-y,1/2+z
_cell_length_a                   24.2468(10)
_cell_length_b                   8.9030(4)
_cell_length_c                   15.1630(6)
_cell_angle_alpha                90
_cell_angle_beta                 107.623(2)
_cell_angle_gamma                90
_cell_volume                     3119.61
loop_
_atom_site_label
_atom_site_type_symbol
_atom_site_fract_x
_atom_site_fract_y
_atom_site_fract_z
Cd1 Cd 0.365509(6) 0.151924(16) 0.029508(9)
N1 N 0.45155(7) 0.27630(19) 0.07910(13)
N2 N 0.54112(8) 0.3152(2) 0.17058(13)
H1 H 0.5755 0.2956 0.2058
N3 N 0.32861(8) 0.83906(18) 0.37217(12)
N4 N 0.32362(8) 0.8907(2) 0.22688(12)
H2 H 0.3233 0.9426 0.1789
O1 O 0.29043(7) -0.01153(18) 0.03679(10)
H3 H 0.2594(11) 0.031(3) 0.0060(19)
H4 H 0.3032(11) -0.087(3) 0.0084(18)
O2 O 0.42142(7) 0.95008(18) 0.06945(14)
O3 O 0.35650(7) 0.7958(2) -0.01958(11)
O4 O 0.35445(6) 0.23630(17) 0.18125(10)
O5 O 0.30973(7) 0.35989(16) 0.05366(10)
C1 C 0.42546(9) 0.5495(2) 0.05086(14)
H5 H 0.3881 0.5328 0.0121
C2 C 0.44585(9) 0.6938(2) 0.07287(15)
C3 C 0.50228(9) 0.7172(2) 0.13098(17)
H6 H 0.5153 0.8151 0.1451
C4 C 0.53914(9) 0.6002(3) 0.16791(16)
H7 H 0.5766 0.6171 0.2061
C5 C 0.51793(8) 0.4565(2) 0.14564(14)
C6 C 0.46176(9) 0.4304(2) 0.08762(14)
C7 C 0.50020(9) 0.2142(2) 0.12975(16)
H8 H 0.5056 0.1109 0.1365
C8 C 0.40496(10) 0.8225(2) 0.03732(16)
C9 C 0.31529(9) 0.6220(2) 0.16612(13)
H9 H 0.3133 0.6427 0.1051
C10 C 0.31666(8) 0.4767(2) 0.19840(13)
C11 C 0.31527(8) 0.4464(2) 0.28867(13)
H10 H 0.3144 0.3471 0.3073
C12 C 0.31515(8) 0.5593(2) 0.35000(13)
H11 H 0.3124 0.5387 0.4087
C13 C 0.31926(8) 0.7056(2) 0.32115(13)
C14 C 0.31707(8) 0.7365(2) 0.23020(13)
C15 C 0.33053(9) 0.9439(2) 0.31224(14)
H12 H 0.3361 1.0451 0.3275
C16 C 0.32642(9) 0.3487(2) 0.14057(14)
Cd1_2 Cd 0.365509(6) 1.151924(16) 0.029508(9)
Cd1E Cd 0.365509(6) 0.848076(16) 0.529508(9)
N3E N 0.32861(8) 0.16094(18) -0.12783(12)
O2_2 O 0.42142(7) -0.04992(18) 0.06945(14)
loop_
_geom_bond_atom_site_label_1
_geom_bond_atom_site_label_2
_geom_bond_site_symmetry_1
_geom_bond_site_symmetry_2
Cd1 N1 1_555 1_555
N1 C6 1_555 1_555
N2 H1 1_555 1_555
N3 C13 1_555 1_555
N4 H2 1_555 1_555
O1 Cd1 1_555 1_555
H3 O1 1_555 1_555
H4 O1 1_555 1_555
O2 C8 1_555 1_555
O3 C8 1_555 1_555
O4 Cd1 1_555 1_555
O5 Cd1 1_555 1_555
C1 H5 1_555 1_555
C2 C1 1_555 1_555
C3 C2 1_555 1_555
H6 C3 1_555 1_555
C4 C3 1_555 1_555
H7 C4 1_555 1_555
C5 N2 1_555 1_555
C6 C1 1_555 1_555
C7 N1 1_555 1_555
H8 C7 1_555 1_555
C8 C2 1_555 1_555
C9 H9 1_555 1_555
C10 C9 1_555 1_555
C11 C10 1_555 1_555
H10 C11 1_555 1_555
C12 C11 1_555 1_555
H11 C12 1_555 1_555
C13 C12 1_555 1_555
C14 N4 1_555 1_555
C15 N3 1_555 1_555
H12 C15 1_555 1_555
C16 O4 1_555 1_555
Cd1_2 O2 1_555 1_555
Cd1E N3 1_555 1_555
N3E Cd1 1_555 1_555
O2_2 Cd1 1_555 1_555
N2 C7 1_555 1_555
N4 C15 1_555 1_555
O5 C16 1_555 1_555
C4 C5 1_555 1_555
C5 C6 1_555 1_555
C9 C14 1_555 1_555
C10 C16 1_555 1_555
C13 C14 1_555 1_555

#END
