
#######################################################################
#
#                 Cambridge Crystallographic Data Centre
#                                CCDC 
#
#######################################################################
#
# If this CIF has been generated from an entry in the Cambridge 
# Structural Database, then it will include bibliographic, chemical, 
# crystal, experimental, refinement or atomic coordinate data resulting 
# from the CCDC's data processing and validation procedures.
#
#######################################################################

data_NUMPIV
_symmetry_cell_setting           monoclinic
_symmetry_space_group_name_H-M   'P 21/c'
_symmetry_Int_Tables_number      14
_space_group_name_Hall           '-P 2ybc'
loop_
_symmetry_equiv_pos_site_id
_symmetry_equiv_pos_as_xyz
1 x,y,z
2 -x,1/2+y,1/2-z
3 -x,-y,-z
4 x,1/2-y,1/2+z
_cell_length_a                   14.528(2)
_cell_length_b                   6.8159(11)
_cell_length_c                   14.640(2)
_cell_angle_alpha                90
_cell_angle_beta                 94.270(2)
_cell_angle_gamma                90
_cell_volume                     1445.65
loop_
_atom_site_label
_atom_site_type_symbol
_atom_site_fract_x
_atom_site_fract_y
_atom_site_fract_z
C1 C 0.4985(3) 0.9099(6) 0.6860(3)
C2 C 0.4884(3) 0.8177(6) 0.5924(3)
C3 C 0.5639(3) 0.8032(7) 0.5400(3)
H1 H 0.6214 0.8394 0.5668
C4 C 0.4764(3) 0.6768(7) 0.4184(3)
H2 H 0.4720 0.6276 0.3589
C5 C 0.3983(3) 0.6802(7) 0.4655(3)
H3 H 0.3427 0.6332 0.4384
C6 C 0.4029(3) 0.7542(5) 0.5538(3)
C7 C 0.3146(3) 0.7535(5) 0.6015(3)
C8 C 0.8183(3) 0.7258(7) 0.6827(3)
C9 C 0.9116(3) 0.7278(6) 0.6419(3)
C10 C 0.9895(3) 0.7300(7) 0.7048(4)
H4 H 0.9823 0.7210 0.7672
C11 C 1.0755(3) 0.7451(7) 0.6747(4)
H5 H 1.1271 0.7451 0.7163
C12 C 1.0138(3) 0.7553(6) 0.5225(4)
H6 H 1.0235 0.7636 0.4605
C13 C 0.9245(3) 0.7380(6) 0.5499(3)
C14 C 0.8467(3) 0.7333(6) 0.4756(3)
La1 La 0.691760(14) 0.75836(3) 0.332750(15)
N1 N 1.0854(3) 0.7600(6) 0.5847(3)
H7 H 1.1400 0.7731 0.5665
N2 N 0.5589(3) 0.7406(5) 0.4534(3)
O1 O 0.7847(2) 0.8890(5) 0.7004(2)
O2 O 0.7851(2) 0.5652(5) 0.7049(2)
O3 O 0.7667(2) 0.7136(5) 0.5002(2)
O4 O 0.8658(2) 0.7505(4) 0.3938(2)
O5 O 0.2877(2) 0.5989(5) 0.6330(2)
O6 O 0.26814(19) 0.9109(4) 0.5998(2)
O7 O 0.4283(2) 0.9921(5) 0.7147(2)
O8 O 0.5756(2) 0.9028(5) 0.7300(2)
La1C La 0.691760(14) 0.74164(3) 0.832750(15)
La1B La 0.308240(14) 0.24164(3) 0.667250(15)
La1B_2 La 0.308240(14) 1.24164(3) 0.667250(15)
O1C O 0.7847(2) 0.6110(5) 0.2004(2)
O2C O 0.7851(2) 0.9348(5) 0.2049(2)
O5B O 0.7123(2) 0.4011(5) 0.3670(2)
O6B O 0.73186(19) 1.0891(4) 0.4002(2)
O7B O 0.5717(2) 1.0079(5) 0.2853(2)
O8C O 0.5756(2) 0.5972(5) 0.2300(2)
O9 O 0.8353(3) 0.2301(5) 0.6030(3)
H8 H 0.8376 0.1297 0.6376
H9 H 0.8377 0.3387 0.6319
loop_
_geom_bond_atom_site_label_1
_geom_bond_atom_site_label_2
_geom_bond_site_symmetry_1
_geom_bond_site_symmetry_2
C1 C2 1_555 1_555
C2 C3 1_555 1_555
C3 H1 1_555 1_555
C4 H2 1_555 1_555
C5 C4 1_555 1_555
H3 C5 1_555 1_555
C6 C2 1_555 1_555
C7 C6 1_555 1_555
C8 C9 1_555 1_555
C9 C10 1_555 1_555
C10 H4 1_555 1_555
C11 C10 1_555 1_555
H5 C11 1_555 1_555
C12 H6 1_555 1_555
C13 C9 1_555 1_555
C14 C13 1_555 1_555
La1 N2 1_555 1_555
N1 C11 1_555 1_555
H7 N1 1_555 1_555
N2 C3 1_555 1_555
O1 C8 1_555 1_555
O2 C8 1_555 1_555
O3 C14 1_555 1_555
O4 C14 1_555 1_555
O5 C7 1_555 1_555
O6 C7 1_555 1_555
O7 C1 1_555 1_555
O8 C1 1_555 1_555
O9 H8 1_555 1_555
H9 O9 1_555 1_555
La1C O1 1_555 1_555
La1B O5 1_555 1_555
La1B_2 O6 1_555 1_555
O1C La1 1_555 1_555
O2C La1 1_555 1_555
O5B La1 1_555 1_555
O6B La1 1_555 1_555
O7B La1 1_555 1_555
O8C La1 1_555 1_555
C4 N2 1_555 1_555
C5 C6 1_555 1_555
C12 C13 1_555 1_555
C12 N1 1_555 1_555
La1 O3 1_555 1_555
La1 O4 1_555 1_555
O2 La1C 1_555 1_555
O7 La1B_2 1_555 1_555
O8 La1C 1_555 1_555

#END
